# Generated by pormake.
# Topology lcy-e, (6)-cn, num edge types: 1
# Building blocks:
#     Node 0, Type 0, BuildingBlock: FUNLAD_clean_sbu_0, # of connection points: 6
#     Node 1, Type 0, BuildingBlock: FUNLAD_clean_sbu_0, # of connection points: 6
#     Node 2, Type 0, BuildingBlock: FUNLAD_clean_sbu_0, # of connection points: 6
#     Node 3, Type 0, BuildingBlock: FUNLAD_clean_sbu_0, # of connection points: 6
#     Node 4, Type 0, BuildingBlock: FUNLAD_clean_sbu_0, # of connection points: 6
#     Node 5, Type 0, BuildingBlock: FUNLAD_clean_sbu_0, # of connection points: 6
#     Node 6, Type 0, BuildingBlock: FUNLAD_clean_sbu_0, # of connection points: 6
#     Node 7, Type 0, BuildingBlock: FUNLAD_clean_sbu_0, # of connection points: 6
#     Node 8, Type 0, BuildingBlock: FUNLAD_clean_sbu_0, # of connection points: 6
#     Node 9, Type 0, BuildingBlock: FUNLAD_clean_sbu_0, # of connection points: 6
#     Node 10, Type 0, BuildingBlock: FUNLAD_clean_sbu_0, # of connection points: 6
#     Node 11, Type 0, BuildingBlock: FUNLAD_clean_sbu_0, # of connection points: 6
#     Edge 12, Type (0, 0), BuildingBlock: UVAHIK_clean_linker_0, # of connection points: 2
#     Edge 13, Type (0, 0), BuildingBlock: UVAHIK_clean_linker_0, # of connection points: 2
#     Edge 14, Type (0, 0), BuildingBlock: UVAHIK_clean_linker_0, # of connection points: 2
#     Edge 15, Type (0, 0), BuildingBlock: UVAHIK_clean_linker_0, # of connection points: 2
#     Edge 16, Type (0, 0), BuildingBlock: UVAHIK_clean_linker_0, # of connection points: 2
#     Edge 17, Type (0, 0), BuildingBlock: UVAHIK_clean_linker_0, # of connection points: 2
#     Edge 18, Type (0, 0), BuildingBlock: UVAHIK_clean_linker_0, # of connection points: 2
#     Edge 19, Type (0, 0), BuildingBlock: UVAHIK_clean_linker_0, # of connection points: 2
#     Edge 20, Type (0, 0), BuildingBlock: UVAHIK_clean_linker_0, # of connection points: 2
#     Edge 21, Type (0, 0), BuildingBlock: UVAHIK_clean_linker_0, # of connection points: 2
#     Edge 22, Type (0, 0), BuildingBlock: UVAHIK_clean_linker_0, # of connection points: 2
#     Edge 23, Type (0, 0), BuildingBlock: UVAHIK_clean_linker_0, # of connection points: 2
#     Edge 24, Type (0, 0), BuildingBlock: UVAHIK_clean_linker_0, # of connection points: 2
#     Edge 25, Type (0, 0), BuildingBlock: UVAHIK_clean_linker_0, # of connection points: 2
#     Edge 26, Type (0, 0), BuildingBlock: UVAHIK_clean_linker_0, # of connection points: 2
#     Edge 27, Type (0, 0), BuildingBlock: UVAHIK_clean_linker_0, # of connection points: 2
#     Edge 28, Type (0, 0), BuildingBlock: UVAHIK_clean_linker_0, # of connection points: 2
#     Edge 29, Type (0, 0), BuildingBlock: UVAHIK_clean_linker_0, # of connection points: 2
#     Edge 30, Type (0, 0), BuildingBlock: UVAHIK_clean_linker_0, # of connection points: 2
#     Edge 31, Type (0, 0), BuildingBlock: UVAHIK_clean_linker_0, # of connection points: 2
#     Edge 32, Type (0, 0), BuildingBlock: UVAHIK_clean_linker_0, # of connection points: 2
#     Edge 33, Type (0, 0), BuildingBlock: UVAHIK_clean_linker_0, # of connection points: 2
#     Edge 34, Type (0, 0), BuildingBlock: UVAHIK_clean_linker_0, # of connection points: 2
#     Edge 35, Type (0, 0), BuildingBlock: UVAHIK_clean_linker_0, # of connection points: 2
#     Edge 36, Type (0, 0), BuildingBlock: UVAHIK_clean_linker_0, # of connection points: 2
#     Edge 37, Type (0, 0), BuildingBlock: UVAHIK_clean_linker_0, # of connection points: 2
#     Edge 38, Type (0, 0), BuildingBlock: UVAHIK_clean_linker_0, # of connection points: 2
#     Edge 39, Type (0, 0), BuildingBlock: UVAHIK_clean_linker_0, # of connection points: 2
#     Edge 40, Type (0, 0), BuildingBlock: UVAHIK_clean_linker_0, # of connection points: 2
#     Edge 41, Type (0, 0), BuildingBlock: UVAHIK_clean_linker_0, # of connection points: 2
#     Edge 42, Type (0, 0), BuildingBlock: UVAHIK_clean_linker_0, # of connection points: 2
#     Edge 43, Type (0, 0), BuildingBlock: UVAHIK_clean_linker_0, # of connection points: 2
#     Edge 44, Type (0, 0), BuildingBlock: UVAHIK_clean_linker_0, # of connection points: 2
#     Edge 45, Type (0, 0), BuildingBlock: UVAHIK_clean_linker_0, # of connection points: 2
#     Edge 46, Type (0, 0), BuildingBlock: UVAHIK_clean_linker_0, # of connection points: 2
#     Edge 47, Type (0, 0), BuildingBlock: UVAHIK_clean_linker_0, # of connection points: 2
# Relax obj value: 0.549
# Max RMSD: 0.346
# Mean RMSD: 0.291
data_MOF--net-lcy-e--node1-FUNLAD_clean_sbu_0--edge1-UVAHIK_clean_linker_0
_symmetry_space_group_name_H-M    P1
_symmetry_Int_Tables_number       1
_symmetry_cell_setting            triclinic
loop_
_symmetry_equiv_pos_as_xyz
'x, y, z'
_cell_length_a     50.617062
_cell_length_b     48.136138
_cell_length_c     47.615764
_cell_angle_alpha  92.43224
_cell_angle_beta   87.738584
_cell_angle_gamma 94.55891
loop_
_atom_site_label
_atom_site_type_symbol
_atom_site_fract_x
_atom_site_fract_y
_atom_site_fract_z
_atom_type_partial_charge
C0 C 0.0901 0.18081 0.49526 0.0
N1 N 0.03874 0.18737 0.42865 0.0
C2 C 0.0428 0.16133 0.41803 0.0
C3 C 0.02324 0.14613 0.40265 0.0
C4 C -0.00097 0.15762 0.39852 0.0
C5 C 0.99528 0.18435 0.41026 0.0
C6 C 0.01553 0.19899 0.42506 0.0
Zn7 Zn 0.06832 0.21095 0.44838 0.0
C8 C 0.04817 0.24431 0.49723 0.0
N9 N 0.13026 0.26159 0.48838 0.0
C10 C 0.15515 0.25407 0.4926 0.0
C11 C 0.12424 0.28857 0.49241 0.0
C12 C 0.14373 0.30936 0.49951 0.0
C13 C 0.1698 0.30254 0.50266 0.0
C14 C 0.17538 0.2744 0.50004 0.0
Zn15 Zn 0.10104 0.23549 0.47034 0.0
O16 O 0.07354 0.17882 0.47571 0.0
C17 C 0.12172 0.2002 0.42372 0.0
O18 O 0.10472 0.20337 0.49903 0.0
H19 H 0.1045 0.29432 0.48874 0.0
H20 H 0.06142 0.15249 0.42105 0.0
H21 H 0.15959 0.23256 0.48903 0.0
O22 O 0.09712 0.19448 0.42005 0.0
O23 O 0.12904 0.21755 0.44326 0.0
H24 H 0.01277 0.21983 0.43342 0.0
O25 O 0.09709 0.26664 0.44091 0.0
O26 O 0.06378 0.24313 0.42069 0.0
O27 O 0.07263 0.25231 0.49789 0.0
O28 O 0.04015 0.22689 0.47804 0.0
C29 C 0.07986 0.26468 0.42213 0.0
H30 H 0.02731 0.1258 0.39369 0.0
H31 H 0.97685 0.19394 0.40819 0.0
H32 H 0.13858 0.33079 0.50178 0.0
H33 H 0.19533 0.26841 0.50239 0.0
C34 C 0.05006 0.92565 0.74012 0.0
N35 N 0.08556 0.87018 0.68185 0.0
C36 C 0.1095 0.88528 0.68166 0.0
C37 C 0.13265 0.87242 0.67355 0.0
C38 C 0.13076 0.84405 0.66517 0.0
C39 C 0.10597 0.82894 0.66639 0.0
C40 C 0.0836 0.8424 0.67497 0.0
Zn41 Zn 0.05035 0.88755 0.68903 0.0
C42 C 0.01371 0.85333 0.72735 0.0
N43 N 0.97533 0.92126 0.70247 0.0
C44 C 0.97188 0.94885 0.70729 0.0
C45 C 0.95434 0.90239 0.6978 0.0
C46 C 0.92888 0.91104 0.69661 0.0
C47 C 0.92478 0.93939 0.70056 0.0
C48 C 0.94647 0.95843 0.70668 0.0
Zn49 Zn 0.01182 0.90598 0.69746 0.0
O50 O 0.06452 0.9107 0.72425 0.0
C51 C 0.04854 0.94134 0.66104 0.0
O52 O 0.0259 0.92753 0.73445 0.0
H53 H 0.95739 0.88056 0.69404 0.0
H54 H 0.11056 0.90737 0.68715 0.0
H55 H 0.98887 0.96351 0.71078 0.0
O56 O 0.06333 0.92142 0.66323 0.0
O57 O 0.02578 0.94015 0.67339 0.0
H58 H 0.06447 0.8307 0.67539 0.0
O59 O -0.00158 0.88418 0.66039 0.0
O60 O 0.03586 0.8649 0.65328 0.0
O61 O -0.0014 0.87208 0.722 0.0
O62 O 0.03693 0.85415 0.71605 0.0
C63 C 0.01263 0.86809 0.64574 0.0
H64 H 0.1516 0.88458 0.67298 0.0
H65 H 0.1039 0.80689 0.66054 0.0
H66 H 0.91254 0.8957 0.69236 0.0
H67 H 0.94392 0.98047 0.70995 0.0
C68 C 0.31244 0.78389 0.94895 0.0
N69 N 0.24561 0.83056 0.95893 0.0
C70 C 0.25005 0.8409 0.9329 0.0
C71 C 0.22999 0.85321 0.91988 0.0
C72 C 0.20504 0.85468 0.93369 0.0
C73 C 0.20058 0.8423 0.9598 0.0
C74 C 0.22128 0.83039 0.97216 0.0
Zn75 Zn 0.27693 0.82091 0.98106 0.0
C76 C 0.26583 0.76992 0.01403 0.0
N77 N 0.34259 0.80383 0.02924 0.0
C78 C 0.36741 0.80282 0.01739 0.0
C79 C 0.33799 0.80083 0.05731 0.0
C80 C 0.35883 0.79743 0.07478 0.0
C81 C 0.38476 0.79635 0.06328 0.0
C82 C 0.38883 0.79884 0.03405 0.0
Zn83 Zn 0.31142 0.81193 0.00569 0.0
O84 O 0.29118 0.79603 0.94715 0.0
C85 C 0.32383 0.8613 0.97154 0.0
O86 O 0.32502 0.78637 0.97164 0.0
H87 H 0.31811 0.80154 0.06636 0.0
H88 H 0.26958 0.84092 0.92282 0.0
H89 H 0.37066 0.80533 0.99503 0.0
O90 O 0.29996 0.85574 0.96464 0.0
O91 O 0.33373 0.84641 0.98916 0.0
H92 H 0.21825 0.82218 0.99293 0.0
O93 O 0.29749 0.83774 0.03889 0.0
O94 O 0.26338 0.84682 0.01497 0.0
O95 O 0.28919 0.77736 0.02159 0.0
O96 O 0.25475 0.7848 -0.00284 0.0
C97 C 0.27661 0.85034 0.03707 0.0
H98 H 0.23447 0.86269 0.89986 0.0
H99 H 0.18152 0.84246 0.97094 0.0
H100 H 0.35457 0.79618 0.09716 0.0
H101 H 0.40829 0.79762 0.02402 0.0
C102 C 0.33881 0.08139 0.29857 0.0
N103 N 0.36138 0.14573 0.24385 0.0
C104 C 0.33585 0.14418 0.2356 0.0
C105 C 0.32601 0.16676 0.22313 0.0
C106 C 0.34263 0.19113 0.21898 0.0
C107 C 0.36869 0.19239 0.22828 0.0
C108 C 0.37769 0.16936 0.24078 0.0
Zn109 Zn 0.37628 0.111 0.2581 0.0
C110 C 0.40726 0.12177 0.30943 0.0
N111 N 0.40722 0.03721 0.28565 0.0
C112 C 0.39479 0.01116 0.28236 0.0
C113 C 0.43235 0.04102 0.295 0.0
C114 C 0.44613 0.01828 0.301 0.0
C115 C 0.43429 0.99121 0.2967 0.0
C116 C 0.40822 0.98763 0.28748 0.0
Zn117 Zn 0.39102 0.07194 0.27278 0.0
O118 O 0.34232 0.10266 0.28359 0.0
C119 C 0.35913 0.06005 0.22284 0.0
O120 O 0.35649 0.06408 0.29895 0.0
H121 H 0.4423 0.06169 0.29668 0.0
H122 H 0.32329 0.12513 0.23805 0.0
H123 H 0.37486 0.00853 0.27478 0.0
O124 O 0.35764 0.08633 0.22459 0.0
O125 O 0.37269 0.0487 0.24033 0.0
H126 H 0.39791 0.17013 0.24747 0.0
O127 O 0.4252 0.08009 0.24616 0.0
O128 O 0.41051 0.11869 0.2324 0.0
O129 O 0.40868 0.09573 0.30546 0.0
O130 O 0.39455 0.13491 0.29241 0.0
C131 C 0.4283 0.10152 0.23134 0.0
H132 H 0.30586 0.16483 0.21603 0.0
H133 H 0.38202 0.21094 0.22582 0.0
H134 H 0.46645 0.02182 0.30747 0.0
H135 H 0.3986 0.96696 0.28376 0.0
C136 C 0.60798 0.27476 0.53145 0.0
N137 N 0.55811 0.2909 0.60222 0.0
C138 C 0.56772 0.31794 0.6063 0.0
C139 C 0.55158 0.33746 0.61914 0.0
C140 C 0.52532 0.32903 0.62736 0.0
C141 C 0.5159 0.30115 0.6226 0.0
C142 C 0.53275 0.28232 0.61018 0.0
Zn143 Zn 0.58142 0.26087 0.58624 0.0
C144 C 0.55107 0.22012 0.54801 0.0
N145 N 0.62799 0.19545 0.55429 0.0
C146 C 0.65342 0.20095 0.54452 0.0
C147 C 0.61707 0.16878 0.55587 0.0
C148 C 0.63191 0.14638 0.54787 0.0
C149 C 0.65833 0.15134 0.53807 0.0
C150 C 0.669 0.1791 0.53619 0.0
Zn151 Zn 0.60555 0.22697 0.56887 0.0
O152 O 0.59287 0.28405 0.55104 0.0
C153 C 0.63648 0.26855 0.6055 0.0
O154 O 0.61693 0.25096 0.53336 0.0
H155 H 0.59682 0.16482 0.56365 0.0
H156 H 0.58796 0.32429 0.59991 0.0
H157 H 0.66175 0.22231 0.54355 0.0
O158 O 0.6145 0.27966 0.60781 0.0
O159 O 0.6381 0.24608 0.59073 0.0
H160 H 0.5256 0.26066 0.60735 0.0
O161 O 0.59366 0.20373 0.60455 0.0
O162 O 0.57019 0.23733 0.62148 0.0
O163 O 0.57282 0.20858 0.54684 0.0
O164 O 0.54898 0.24205 0.56344 0.0
C165 C 0.57852 0.21343 0.62381 0.0
H166 H 0.55942 0.35891 0.62238 0.0
H167 H 0.49584 0.29386 0.62896 0.0
H168 H 0.62271 0.12536 0.54919 0.0
H169 H 0.68933 0.18386 0.52891 0.0
C170 C 0.86333 0.34901 0.7601 0.0
N171 N 0.87057 0.29111 0.8225 0.0
C172 C 0.84416 0.29068 0.82917 0.0
C173 C 0.83051 0.26645 0.83906 0.0
C174 C 0.84415 0.24247 0.84163 0.0
C175 C 0.87133 0.24349 0.83459 0.0
C176 C 0.88427 0.26822 0.82527 0.0
Zn177 Zn 0.8908 0.32622 0.80794 0.0
C178 C 0.92832 0.3133 0.76074 0.0
N179 N 0.93424 0.39956 0.77732 0.0
C180 C 0.9256 0.42573 0.77948 0.0
C181 C 0.96003 0.39562 0.77012 0.0
C182 C 0.97822 0.41818 0.7652 0.0
C183 C 0.9702 0.44528 0.76858 0.0
C184 C 0.94351 0.44912 0.77554 0.0
Zn185 Zn 0.91152 0.36488 0.79072 0.0
O186 O 0.86256 0.32958 0.77746 0.0
C187 C 0.87342 0.37848 0.83652 0.0
O188 O 0.88205 0.36834 0.76065 0.0
H189 H 0.9671 0.37504 0.76969 0.0
H190 H 0.83365 0.30907 0.8267 0.0
H191 H 0.90516 0.42859 0.78554 0.0
O192 O 0.86922 0.3521 0.83714 0.0
O193 O 0.89051 0.38931 0.81925 0.0
H194 H 0.90531 0.2691 0.82018 0.0
O195 O 0.94034 0.36087 0.8212 0.0
O196 O 0.9195 0.32328 0.83822 0.0
O197 O 0.93173 0.33966 0.76183 0.0
O198 O 0.91209 0.30113 0.77808 0.0
C199 C 0.93887 0.34167 0.83883 0.0
H200 H 0.80944 0.26629 0.84413 0.0
H201 H 0.88249 0.22542 0.83655 0.0
H202 H -0.0012 0.41453 0.76044 0.0
H203 H 0.9368 0.46989 0.77853 0.0
C204 C 0.85948 0.63766 0.97186 0.0
N205 N 0.91369 0.66192 0.03416 0.0
C206 C 0.90921 0.63644 0.04545 0.0
C207 C 0.92782 0.62655 0.06252 0.0
C208 C 0.95161 0.64278 0.0677 0.0
C209 C 0.95614 0.66856 0.05481 0.0
C210 C 0.93674 0.67786 0.0382 0.0
Zn211 Zn 0.88352 0.67781 0.01459 0.0
C212 C 0.90097 0.7099 0.96413 0.0
N213 N 0.81885 0.71106 0.97664 0.0
C214 C 0.79483 0.69635 0.9749 0.0
C215 C 0.82224 0.73824 0.96964 0.0
C216 C 0.80078 0.75199 0.96147 0.0
C217 C 0.77552 0.73772 0.96075 0.0
C218 C 0.77271 0.70941 0.96709 0.0
Zn219 Zn 0.84959 0.69431 0.99442 0.0
O220 O 0.87776 0.6413 0.98948 0.0
C221 C 0.83099 0.66246 0.04372 0.0
O222 O 0.84455 0.65723 0.96836 0.0
H223 H 0.8414 0.74966 0.97153 0.0
H224 H 0.89074 0.6241 0.042 0.0
H225 H 0.79258 0.67475 0.98059 0.0
O226 O 0.85565 0.65989 0.04566 0.0
O227 O 0.82326 0.67626 0.02398 0.0
H228 H 0.93981 0.69815 0.02916 0.0
O229 O 0.85458 0.73058 0.0216 0.0
O230 O 0.8887 0.71417 0.04023 0.0
O231 O 0.87618 0.71236 0.96462 0.0
O232 O 0.91058 0.69586 0.98283 0.0
C233 C 0.87287 0.73321 0.03927 0.0
H234 H 0.92313 0.60676 0.07226 0.0
H235 H 0.97435 0.68158 0.05767 0.0
H236 H 0.80371 0.77394 0.95706 0.0
H237 H 0.75356 0.69767 0.96654 0.0
C238 C 0.56473 0.59365 0.32718 0.0
N239 N 0.60282 0.52274 0.30148 0.0
C240 C 0.58134 0.50715 0.31181 0.0
C241 C 0.58438 0.48186 0.32385 0.0
C242 C 0.60985 0.47266 0.32597 0.0
C243 C 0.63168 0.48885 0.31457 0.0
C244 C 0.62767 0.51395 0.30224 0.0
Zn245 Zn 0.59651 0.56019 0.28586 0.0
C246 C 0.54558 0.55787 0.25582 0.0
N247 N 0.58082 0.63844 0.25374 0.0
C248 C 0.57919 0.66191 0.27055 0.0
C249 C 0.57602 0.63851 0.22582 0.0
C250 C 0.56899 0.66261 0.21384 0.0
C251 C 0.56616 0.68671 0.23085 0.0
C252 C 0.57147 0.68638 0.25951 0.0
Zn253 Zn 0.58807 0.60117 0.26992 0.0
O254 O 0.57451 0.57028 0.32294 0.0
C255 C 0.63783 0.60462 0.30087 0.0
O256 O 0.56733 0.61142 0.30808 0.0
H257 H 0.57675 0.61959 0.21286 0.0
H258 H 0.56177 0.51453 0.31115 0.0
H259 H 0.5831 0.66146 0.29268 0.0
O260 O 0.63113 0.57906 0.30487 0.0
O261 O 0.62353 0.61869 0.28642 0.0
H262 H 0.64445 0.52668 0.2938 0.0
O263 O 0.60913 0.59028 0.23273 0.0
O264 O 0.61952 0.5507 0.24882 0.0
O265 O 0.55267 0.58357 0.25372 0.0
O266 O 0.5608 0.54229 0.26732 0.0
C267 C 0.6212 0.5682 0.22947 0.0
H268 H 0.56688 0.46981 0.33175 0.0
H269 H 0.65169 0.48269 0.31593 0.0
H270 H 0.56447 0.66202 0.19176 0.0
H271 H 0.56921 0.70464 0.27323 0.0
C272 C 0.14786 0.4984 0.16302 0.0
N273 N 0.14697 0.43021 0.10478 0.0
C274 C 0.12081 0.42446 0.11169 0.0
C275 C 0.10358 0.41225 0.0916 0.0
C276 C 0.11345 0.40607 0.06424 0.0
C277 C 0.14066 0.41148 0.05807 0.0
C278 C 0.15708 0.42366 0.07867 0.0
Zn279 Zn 0.17248 0.45061 0.13214 0.0
C280 C 0.20323 0.49808 0.10548 0.0
N281 N 0.22688 0.49389 0.1883 0.0
C282 C 0.22392 0.49613 0.21689 0.0
C283 C 0.25047 0.50166 0.17505 0.0
C284 C 0.27206 0.51214 0.19029 0.0
C285 C 0.26992 0.51388 0.21966 0.0
C286 C 0.24554 0.50584 0.23318 0.0
Zn287 Zn 0.19899 0.47416 0.16257 0.0
O288 O 0.14405 0.47831 0.14505 0.0
C289 C 0.16674 0.42819 0.18973 0.0
O290 O 0.1702 0.50261 0.17452 0.0
H291 H 0.2532 0.49851 0.1526 0.0
H292 H 0.11322 0.4299 0.13259 0.0
H293 H 0.2052 0.48938 0.22713 0.0
O294 O 0.15843 0.42405 0.16491 0.0
O295 O 0.18435 0.44791 0.19475 0.0
H296 H 0.17791 0.42839 0.07358 0.0
O297 O 0.22728 0.44535 0.15058 0.0
O298 O 0.20146 0.42264 0.1202 0.0
O299 O 0.2123 0.50043 0.12995 0.0
O300 O 0.18599 0.47828 0.09969 0.0
C301 C 0.2233 0.4254 0.13259 0.0
H302 H 0.08268 0.40854 0.09714 0.0
H303 H 0.14917 0.40661 0.03739 0.0
H304 H 0.29079 0.51741 0.17921 0.0
H305 H 0.24343 0.50659 0.25592 0.0
C306 C 0.55766 0.97761 0.8649 0.0
N307 N 0.59027 0.0258 0.93196 0.0
C308 C 0.56903 0.04135 0.93128 0.0
C309 C 0.55977 0.05496 0.9557 0.0
C310 C 0.57241 0.05246 0.98112 0.0
C311 C 0.59444 0.03647 0.98113 0.0
C312 C 0.60309 0.02327 0.95618 0.0
Zn313 Zn 0.60334 0.00632 0.89593 0.0
C314 C 0.61421 0.94725 0.90432 0.0
N315 N 0.62989 0.96532 0.82009 0.0
C316 C 0.62293 0.97262 0.79422 0.0
C317 C 0.6508 0.94973 0.82306 0.0
C318 C 0.66677 0.94262 0.79985 0.0
C319 C 0.66152 0.95199 0.77327 0.0
C320 C 0.63871 0.96628 0.77036 0.0
Zn321 Zn 0.61501 0.98388 0.85615 0.0
O322 O 0.56451 0.992 0.88676 0.0
C323 C 0.60332 0.04197 0.8467 0.0
O324 O 0.57519 0.96969 0.84707 0.0
H325 H 0.65652 0.94469 0.84375 0.0
H326 H 0.55921 0.04317 0.91175 0.0
H327 H 0.60627 0.98506 0.79227 0.0
O328 O 0.59854 0.04283 0.87311 0.0
O329 O 0.61109 0.01986 0.83483 0.0
H330 H 0.61997 0.01085 0.95621 0.0
O331 O 0.65489 -0.00083 0.86559 0.0
O332 O 0.642 0.02111 0.90432 0.0
O333 O 0.61807 0.94787 0.87791 0.0
O334 O 0.60824 0.96917 0.91822 0.0
C335 C 0.66047 0.01486 0.88705 0.0
H336 H 0.54292 0.06736 0.95467 0.0
H337 H 0.60454 0.03366 0.00032 0.0
H338 H 0.6844 0.93201 0.80321 0.0
H339 H 0.63396 0.97377 0.75018 0.0
C340 C 0.81614 0.94927 0.3293 0.0
N341 N 0.84356 0.88648 0.37635 0.0
C342 C 0.86809 0.88933 0.36347 0.0
C343 C 0.88999 0.88013 0.37642 0.0
C344 C 0.88622 0.86745 0.4024 0.0
C345 C 0.8609 0.86543 0.41542 0.0
C346 C 0.83981 0.87533 0.4021 0.0
Zn347 Zn 0.81023 0.89509 0.35688 0.0
C348 C 0.77332 0.92589 0.39487 0.0
N349 N 0.73913 0.9102 0.31727 0.0
C350 C 0.72713 0.93409 0.32356 0.0
C351 C 0.72661 0.88856 0.30243 0.0
C352 C 0.70032 0.88967 0.29508 0.0
C353 C 0.68681 0.91322 0.30321 0.0
C354 C 0.70082 0.93606 0.31669 0.0
Zn355 Zn 0.77364 0.90366 0.33574 0.0
O356 O 0.8283 0.93241 0.34291 0.0
C357 C 0.81038 0.87435 0.29704 0.0
O358 O 0.79191 0.94336 0.32356 0.0
H359 H 0.73645 0.86968 0.29783 0.0
H360 H 0.87056 0.89817 0.34293 0.0
H361 H 0.73746 0.95103 0.33536 0.0
O362 O 0.8238 0.87459 0.3191 0.0
O363 O 0.78833 0.88529 0.29816 0.0
H364 H 0.82023 0.87343 0.41208 0.0
O365 O 0.75616 0.8641 0.34837 0.0
O366 O 0.79203 0.85718 0.37031 0.0
O367 O 0.75938 0.92216 0.37329 0.0
O368 O 0.79625 0.91675 0.39435 0.0
C369 C 0.76883 0.84879 0.36326 0.0
H370 H 0.90942 0.8822 0.36601 0.0
H371 H 0.85746 0.85625 0.43576 0.0
H372 H 0.69021 0.87156 0.28483 0.0
H373 H 0.69119 0.95478 0.32292 0.0
C374 C 0.35308 0.53889 0.67987 0.0
N375 N 0.37073 0.60121 0.62134 0.0
C376 C 0.39639 0.60165 0.62901 0.0
C377 C 0.4171 0.60837 0.60954 0.0
C378 C 0.4112 0.61504 0.58216 0.0
C379 C 0.38457 0.61503 0.57511 0.0
C380 C 0.36459 0.60784 0.59501 0.0
Zn381 Zn 0.33992 0.58875 0.64802 0.0
C382 C 0.30347 0.5447 0.62098 0.0
N383 N 0.27528 0.56102 0.70279 0.0
C384 C 0.27584 0.55568 0.73064 0.0
C385 C 0.25185 0.56198 0.68991 0.0
C386 C 0.22793 0.55873 0.70509 0.0
C387 C 0.22782 0.55415 0.7339 0.0
C388 C 0.25204 0.55186 0.74672 0.0
Zn389 Zn 0.30798 0.57239 0.67777 0.0
O390 O 0.36155 0.55732 0.66265 0.0
C391 C 0.34425 0.61508 0.7055 0.0
O392 O 0.32949 0.53897 0.69023 0.0
H393 H 0.2516 0.56631 0.66785 0.0
H394 H 0.40081 0.59628 0.65005 0.0
H395 H 0.29467 0.55519 0.74053 0.0
O396 O 0.35468 0.61686 0.68081 0.0
O397 O 0.32453 0.59771 0.71022 0.0
H398 H 0.34412 0.60694 0.58916 0.0
O399 O 0.28739 0.60649 0.66508 0.0
O400 O 0.31807 0.62049 0.6341 0.0
O401 O 0.29211 0.54668 0.64508 0.0
O402 O 0.32466 0.55989 0.61574 0.0
C403 C 0.29577 0.6234 0.6464 0.0
H404 H 0.43744 0.60817 0.61572 0.0
H405 H 0.3792 0.61952 0.55407 0.0
H406 H 0.2096 0.56016 0.69443 0.0
H407 H 0.25256 0.54816 0.76896 0.0
C408 C 0.20737 0.32565 0.53028 0.0
C409 C 0.19079 0.32531 0.5073 0.0
C410 C 0.22409 0.34948 0.53688 0.0
C411 C 0.22589 0.42497 0.52873 0.0
H412 H 0.29459 0.42644 0.56224 0.0
C413 C 0.30945 0.51008 0.58071 0.0
C414 C 0.29275 0.52327 0.60049 0.0
C415 C 0.29959 0.4868 0.56453 0.0
C416 C 0.2756 0.42638 0.55252 0.0
H417 H 0.18032 0.34831 0.47177 0.0
H418 H 0.20967 0.38955 0.48293 0.0
H419 H 0.2741 0.38238 0.54256 0.0
H420 H 0.25253 0.52342 0.61789 0.0
H421 H 0.23531 0.48344 0.58938 0.0
H422 H 0.22699 0.46868 0.53925 0.0
C423 C 0.20932 0.3719 0.49636 0.0
C424 C 0.26376 0.40114 0.54154 0.0
C425 C 0.19258 0.34828 0.48992 0.0
C426 C 0.26585 0.51368 0.6028 0.0
C427 C 0.25597 0.49083 0.5864 0.0
C428 C 0.23761 0.45005 0.53981 0.0
C429 C 0.22455 0.37321 0.52048 0.0
C430 C 0.23857 0.4001 0.5299 0.0
C431 C 0.2728 0.47678 0.56751 0.0
C432 C 0.26232 0.45095 0.55232 0.0
H433 H 0.20631 0.30817 0.54399 0.0
H434 H 0.23549 0.34987 0.55568 0.0
H435 H 0.20634 0.42492 0.52026 0.0
H436 H 0.33032 0.51693 0.5787 0.0
H437 H 0.31295 0.4764 0.55001 0.0
C438 C 0.6966 0.92697 0.74647 0.0
C439 C 0.68222 0.95068 0.75043 0.0
C440 C 0.7206 0.92829 0.73095 0.0
C441 C 0.77493 0.98066 0.7158 0.0
H442 H 0.80626 0.91701 0.67944 0.0
C443 C 0.88296 0.93929 0.67458 0.0
C444 C 0.89779 0.94846 0.69798 0.0
C445 C 0.85618 0.94407 0.67379 0.0
C446 C 0.79785 0.93527 0.68902 0.0
H447 H 0.68038 0.99359 0.73892 0.0
H448 H 0.72194 0.99566 0.71113 0.0
H449 H 0.75851 0.91551 0.68775 0.0
H450 H 0.89685 0.97104 0.73822 0.0
H451 H 0.84982 0.97886 0.73735 0.0
H452 H 0.81432 0.0003 0.71735 0.0
C453 C 0.71497 0.97623 0.72059 0.0
C454 C 0.77043 0.93425 0.69406 0.0
C455 C 0.69096 0.97491 0.73619 0.0
C456 C 0.88581 0.96389 0.7199 0.0
C457 C 0.85889 0.96843 0.71929 0.0
C458 C 0.80235 0.98175 0.7106 0.0
C459 C 0.73068 0.95336 0.71895 0.0
C460 C 0.75875 0.95653 0.7084 0.0
C461 C 0.84357 0.95785 0.69658 0.0
C462 C 0.81423 0.9587 0.698 0.0
H463 H 0.69018 0.90793 0.75695 0.0
H464 H 0.73215 0.91027 0.73024 0.0
H465 H 0.76669 -0.00185 0.72711 0.0
H466 H 0.89193 0.92767 0.65721 0.0
H467 H 0.84517 0.93621 0.6557 0.0
C468 C 0.23168 0.72931 0.0081 0.0
C469 C 0.25368 0.74227 0.02203 0.0
C470 C 0.22372 0.70113 0.01214 0.0
C471 C 0.25285 0.63754 0.02975 0.0
H472 H 0.18211 0.60744 0.0517 0.0
C473 C 0.23363 0.53792 0.08974 0.0
C474 C 0.21046 0.52043 0.08568 0.0
C475 C 0.23827 0.5624 0.07514 0.0
C476 C 0.20184 0.61538 0.04489 0.0
H477 H 0.28323 0.73643 0.05266 0.0
H478 H 0.26938 0.68768 0.05955 0.0
H479 H 0.18978 0.65678 0.04072 0.0
H480 H 0.1746 0.51402 0.06204 0.0
H481 H 0.18276 0.55715 0.03635 0.0
H482 H 0.26519 0.59661 0.0345 0.0
C483 C 0.25862 0.69906 0.04516 0.0
C484 C 0.2062 0.64363 0.03876 0.0
C485 C 0.26641 0.72706 0.04133 0.0
C486 C 0.19272 0.52707 0.06545 0.0
C487 C 0.19724 0.55185 0.05098 0.0
C488 C 0.24849 0.6094 0.03566 0.0
C489 C 0.23779 0.68558 0.02997 0.0
C490 C 0.23195 0.65511 0.03219 0.0
C491 C 0.21977 0.57009 0.05622 0.0
C492 C 0.22315 0.59823 0.04434 0.0
H493 H 0.22149 0.74048 0.99308 0.0
H494 H 0.20745 0.69118 0.00035 0.0
H495 H 0.27281 0.6458 0.02412 0.0
H496 H 0.24766 0.53334 0.1052 0.0
H497 H 0.25567 0.57609 0.07995 0.0
C498 C 0.45511 0.94955 0.27564 0.0
C499 C 0.45063 0.96741 0.29913 0.0
C500 C 0.47614 0.93233 0.27505 0.0
C501 C 0.52919 0.90799 0.31812 0.0
H502 H 0.57462 0.92598 0.25284 0.0
C503 C 0.64174 0.9221 0.32307 0.0
C504 C 0.65771 0.91277 0.30036 0.0
C505 C 0.61425 0.92061 0.32132 0.0
C506 C 0.56205 0.92016 0.27092 0.0
H507 H 0.46254 0.97939 0.34136 0.0
H508 H 0.49904 0.94939 0.34052 0.0
H509 H 0.52805 0.93526 0.25325 0.0
H510 H 0.65738 0.89444 0.25798 0.0
H511 H 0.60904 0.89204 0.2548 0.0
H512 H 0.56365 0.89432 0.33636 0.0
C513 C 0.48653 0.94848 0.32252 0.0
C514 C 0.53529 0.92538 0.27114 0.0
C515 C 0.4657 0.96579 0.32301 0.0
C516 C 0.64555 0.9018 0.27581 0.0
C517 C 0.61794 0.90047 0.27398 0.0
C518 C 0.55594 0.9028 0.31791 0.0
C519 C 0.4928 0.9326 0.29804 0.0
C520 C 0.51885 0.92045 0.29521 0.0
C521 C 0.60202 0.90978 0.29678 0.0
C522 C 0.57288 0.90995 0.29478 0.0
H523 H 0.44381 0.95058 0.25691 0.0
H524 H 0.48034 0.92007 0.25602 0.0
H525 H 0.51689 0.90357 0.33678 0.0
H526 H 0.65047 0.9302 0.34246 0.0
H527 H 0.60259 0.92843 0.33907 0.0
C528 C 0.6909 0.1283 0.50533 0.0
C529 C 0.67441 0.12758 0.52977 0.0
C530 C 0.70463 0.10517 0.49659 0.0
C531 C 0.70071 0.02905 0.50253 0.0
H532 H 0.76999 0.03615 0.46463 0.0
C533 C 0.73655 0.94814 0.42118 0.0
C534 C 0.76355 0.94321 0.41887 0.0
C535 C 0.72756 0.96808 0.44059 0.0
C536 C 0.75085 0.03371 0.4756 0.0
H537 H 0.66053 0.10254 0.56501 0.0
H538 H 0.68447 0.06223 0.54977 0.0
H539 H 0.75184 0.0772 0.48746 0.0
H540 H 0.80213 0.95429 0.43614 0.0
H541 H 0.78634 0.9894 0.47025 0.0
H542 H 0.69951 0.98567 0.49029 0.0
C543 C 0.6864 0.08047 0.53706 0.0
C544 C 0.74029 0.0573 0.48836 0.0
C545 C 0.67266 0.10356 0.54577 0.0
C546 C 0.78119 0.9576 0.43749 0.0
C547 C 0.7722 0.97783 0.45683 0.0
C548 C 0.71123 0.00549 0.48975 0.0
C549 C 0.70223 0.08082 0.51213 0.0
C550 C 0.71483 0.05537 0.50139 0.0
C551 C 0.74537 0.98373 0.45809 0.0
C552 C 0.73613 0.00767 0.47552 0.0
H553 H 0.69248 0.14637 0.4924 0.0
H554 H 0.71634 0.10603 0.47707 0.0
H555 H 0.68097 0.02679 0.51221 0.0
H556 H 0.72244 0.93735 0.40717 0.0
H557 H 0.70684 0.97226 0.44077 0.0
C558 C -0.00301 0.48456 0.79215 0.0
C559 C 0.99069 0.4688 0.7675 0.0
C560 C 0.02061 0.50173 0.79322 0.0
C561 C 0.0758 0.53446 0.74979 0.0
H562 H 0.12045 0.51595 0.80962 0.0
C563 C 0.19281 0.52753 0.76273 0.0
C564 C 0.20209 0.55221 0.74972 0.0
C565 C 0.16608 0.52328 0.7714 0.0
C566 C 0.10816 0.5215 0.79293 0.0
H567 H 0.00291 0.45969 0.72427 0.0
H568 H 0.04376 0.49019 0.72579 0.0
H569 H 0.07355 0.49907 0.81047 0.0
H570 H 0.19176 0.59282 0.73797 0.0
H571 H 0.14531 0.58572 0.75359 0.0
H572 H 0.11048 0.55564 0.73142 0.0
C573 C 0.03064 0.48937 0.74431 0.0
C574 C 0.08127 0.51209 0.79355 0.0
C575 C 0.00729 0.47194 0.74338 0.0
C576 C 0.18492 0.57351 0.74776 0.0
C577 C 0.15834 0.56937 0.75653 0.0
C578 C 0.10257 0.54401 0.74926 0.0
C579 C 0.03802 0.50364 0.76952 0.0
C580 C 0.06503 0.51781 0.77154 0.0
C581 C 0.14834 0.54373 0.76723 0.0
C582 C 0.11923 0.53702 0.77042 0.0
H583 H 0.98461 0.48209 0.81111 0.0
H584 H 0.02578 0.51263 0.81286 0.0
H585 H 0.06371 0.53927 0.73262 0.0
H586 H 0.2057 0.51077 0.76426 0.0
H587 H 0.15897 0.50324 0.77945 0.0
C588 C 0.63378 0.9218 0.94202 0.0
C589 C 0.61842 0.92135 0.91812 0.0
C590 C 0.64371 0.89721 0.95033 0.0
C591 C 0.66066 0.84052 0.96602 0.0
H592 H 0.68819 0.80097 0.89985 0.0
C593 C 0.72919 0.75027 0.97269 0.0
C594 C 0.75216 0.75299 0.95512 0.0
C595 C 0.70827 0.76698 0.96925 0.0
C596 C 0.68056 0.81171 0.91854 0.0
H597 H 0.59875 0.89494 0.88609 0.0
H598 H 0.61495 0.85192 0.90131 0.0
H599 H 0.65853 0.83736 0.89438 0.0
H600 H 0.77085 0.7744 0.91954 0.0
H601 H 0.73447 0.80358 0.91355 0.0
H602 H 0.68414 0.81565 0.98997 0.0
C603 C 0.6203 0.8712 0.91302 0.0
C604 C 0.66324 0.83236 0.91548 0.0
C605 C 0.61086 0.89575 0.90443 0.0
C606 C 0.75344 0.77199 0.93346 0.0
C607 C 0.73251 0.78852 0.92992 0.0
C608 C 0.67808 0.81977 0.96908 0.0
C609 C 0.63807 0.87187 0.93502 0.0
C610 C 0.65348 0.84744 0.93911 0.0
C611 C 0.70987 0.78648 0.94801 0.0
C612 C 0.68872 0.80569 0.94528 0.0
H613 H 0.63995 0.9414 0.95276 0.0
H614 H 0.65741 0.8985 0.96733 0.0
H615 H 0.65333 0.85159 0.98464 0.0
H616 H 0.7278 0.73597 0.98974 0.0
H617 H 0.69098 0.76485 0.98336 0.0
C618 C 0.50306 0.56458 0.2335 0.0
C619 C 0.51826 0.5477 0.24873 0.0
C620 C 0.47585 0.55833 0.23141 0.0
C621 C 0.41912 0.52277 0.26926 0.0
H622 H 0.38242 0.5394 0.20278 0.0
C623 C 0.30567 0.50101 0.24992 0.0
C624 C 0.29433 0.52138 0.23506 0.0
C625 C 0.33266 0.50414 0.25581 0.0
C626 C 0.39239 0.53494 0.22161 0.0
H627 H 0.5171 0.5101 0.27243 0.0
H628 H 0.46935 0.49883 0.26831 0.0
H629 H 0.43058 0.54139 0.20123 0.0
H630 H 0.30115 0.56206 0.2173 0.0
H631 H 0.34805 0.56786 0.22809 0.0
H632 H 0.38052 0.51601 0.28941 0.0
C633 C 0.47854 0.51719 0.2584 0.0
C634 C 0.41998 0.53599 0.22069 0.0
C635 C 0.50591 0.52344 0.26045 0.0
C636 C 0.30953 0.54614 0.22883 0.0
C637 C 0.33637 0.54928 0.23471 0.0
C638 C 0.39135 0.52147 0.27009 0.0
C639 C 0.46312 0.53498 0.24443 0.0
C640 C 0.43374 0.53049 0.24464 0.0
C641 C 0.34849 0.52765 0.24681 0.0
C642 C 0.3778 0.52816 0.24643 0.0
H643 H 0.51197 0.58343 0.22424 0.0
H644 H 0.46462 0.57267 0.22074 0.0
H645 H 0.42912 0.51867 0.28816 0.0
H646 H 0.29435 0.48159 0.25457 0.0
H647 H 0.34153 0.48719 0.26522 0.0
C648 C 0.41311 0.16213 0.3448 0.0
C649 C 0.41958 0.13561 0.33452 0.0
C650 C 0.42317 0.17329 0.37029 0.0
C651 C 0.4509 0.15026 0.43543 0.0
H652 H 0.4826 0.22599 0.44387 0.0
C653 C 0.53026 0.18376 0.51506 0.0
C654 C 0.52958 0.2099 0.5292 0.0
C655 C 0.51207 0.17562 0.49443 0.0
C656 C 0.47337 0.20494 0.442 0.0
H657 H 0.44272 0.10072 0.34211 0.0
H658 H 0.46033 0.1202 0.38578 0.0
H659 H 0.46008 0.21096 0.40062 0.0
H660 H 0.50873 0.24764 0.5335 0.0
H661 H 0.47707 0.23341 0.49711 0.0
H662 H 0.46507 0.14385 0.47622 0.0
C663 C 0.44696 0.1321 0.3748 0.0
C664 C 0.46049 0.19636 0.41725 0.0
C665 C 0.43699 0.12103 0.34959 0.0
C666 C 0.5097 0.22731 0.52303 0.0
C667 C 0.4917 0.2193 0.50209 0.0
C668 C 0.46384 0.15877 0.46 0.0
C669 C 0.43977 0.15805 0.3858 0.0
C670 C 0.44988 0.16866 0.41338 0.0
C671 C 0.493 0.19355 0.48729 0.0
C672 C 0.47586 0.18594 0.46321 0.0
H673 H 0.39973 0.17382 0.33364 0.0
H674 H 0.4174 0.19342 0.37823 0.0
H675 H 0.44233 0.12896 0.43334 0.0
H676 H 0.54534 0.1699 0.51935 0.0
H677 H 0.5137 0.15575 0.48319 0.0
C678 C 0.00707 0.23523 0.52758 0.0
C679 C 0.03055 0.2518 0.52133 0.0
C680 C 0.99391 0.23827 0.55382 0.0
C681 C 0.01004 0.26075 0.62589 0.0
H682 H 0.93435 0.26351 0.6402 0.0
C683 C 0.96567 0.30943 0.72599 0.0
C684 C 0.94169 0.2978 0.73777 0.0
C685 C 0.97635 0.29804 0.70113 0.0
C686 C 0.95547 0.26213 0.63653 0.0
H687 H 0.05722 0.28622 0.53647 0.0
H688 H 0.03408 0.29179 0.58182 0.0
H689 H 0.95176 0.25696 0.59182 0.0
H690 H 0.91052 0.26448 0.73363 0.0
H691 H 0.92923 0.24452 0.68957 0.0
H692 H 0.01394 0.26662 0.67032 0.0
C693 C 0.02626 0.27594 0.56687 0.0
C694 C 0.96541 0.25856 0.60888 0.0
C695 C 0.03937 0.27291 0.54079 0.0
C696 C 0.92918 0.27367 0.72502 0.0
C697 C 0.93971 0.26244 0.69976 0.0
C698 C 0.00014 0.26425 0.65341 0.0
C699 C 0.00407 0.25792 0.57409 0.0
C700 C 0.99287 0.25876 0.60328 0.0
C701 C 0.96312 0.27493 0.68732 0.0
C702 C 0.97286 0.26585 0.65895 0.0
H703 H -0.00015 0.21873 0.513 0.0
H704 H 0.97673 0.22423 0.55882 0.0
H705 H 0.03125 0.26019 0.62223 0.0
H706 H 0.9757 0.32805 0.73543 0.0
H707 H 0.99426 0.30831 0.69193 0.0
C708 C 0.97932 0.8331 0.76117 0.0
C709 C 0.00514 0.83311 0.74917 0.0
C710 C 0.97213 0.8179 0.78491 0.0
C711 C 0.98647 0.76075 0.82826 0.0
H712 H 0.95172 0.80483 0.88673 0.0
C713 C 0.94406 0.71705 0.93565 0.0
C714 C 0.91781 0.72366 0.9418 0.0
C715 C 0.95895 0.72981 0.9135 0.0
C716 C 0.96142 0.79222 0.87065 0.0
H717 H 0.04315 0.81564 0.7517 0.0
H718 H 0.03025 0.78857 0.79334 0.0
H719 H 0.9692 0.82681 0.84406 0.0
H720 H 0.88686 0.74913 0.9298 0.0
H721 H 0.91257 0.77112 0.89181 0.0
H722 H 0.97769 0.72585 0.85472 0.0
C723 C 0.01578 0.80063 0.78428 0.0
C724 C 0.97139 0.8048 0.84621 0.0
C725 C 0.02311 0.81608 0.76046 0.0
C726 C 0.90698 0.74347 0.9257 0.0
C727 C 0.92181 0.75628 0.90397 0.0
C728 C 0.97631 0.74803 0.85283 0.0
C729 C 0.99048 0.80219 0.79723 0.0
C730 C 0.98324 0.78905 0.82438 0.0
C731 C 0.94794 0.74968 0.89755 0.0
C732 C 0.9629 0.76351 0.87384 0.0
H733 H 0.96486 0.84573 0.75291 0.0
H734 H 0.9523 0.81901 0.79412 0.0
H735 H 0.99564 0.74819 0.81176 0.0
H736 H 0.9529 0.70179 0.94763 0.0
H737 H 0.97907 0.72435 0.90899 0.0
C738 C 0.53001 0.71855 0.22926 0.0
C739 C 0.55473 0.71066 0.21893 0.0
C740 C 0.51598 0.73643 0.2142 0.0
C741 C 0.51159 0.75674 0.14057 0.0
H742 H 0.45402 0.7974 0.17324 0.0
C743 C 0.43288 0.80505 0.07559 0.0
C744 C 0.40724 0.79269 0.08176 0.0
C745 C 0.45388 0.80129 0.09294 0.0
C746 C 0.47024 0.78637 0.16389 0.0
H747 H 0.58539 0.7169 0.18638 0.0
H748 H 0.56169 0.74951 0.16079 0.0
H749 H 0.48736 0.78214 0.20365 0.0
H750 H 0.384 0.76635 0.11116 0.0
H751 H 0.42033 0.76107 0.14187 0.0
H752 H 0.49423 0.76114 0.10082 0.0
C753 C 0.55249 0.74107 0.17984 0.0
C754 C 0.48922 0.77741 0.18126 0.0
C755 C 0.56624 0.72268 0.1946 0.0
C756 C 0.40317 0.77683 0.10596 0.0
C757 C 0.42399 0.77366 0.12358 0.0
C758 C 0.49294 0.76625 0.12319 0.0
C759 C 0.52663 0.74715 0.18871 0.0
C760 C 0.50958 0.76151 0.16997 0.0
C761 C 0.44951 0.7857 0.11712 0.0
C762 C 0.47164 0.78027 0.13484 0.0
H763 H 0.52065 0.70924 0.24783 0.0
H764 H 0.49606 0.74019 0.22165 0.0
H765 H 0.5266 0.74423 0.13097 0.0
H766 H 0.43679 0.81782 0.05749 0.0
H767 H 0.4735 0.81069 0.08759 0.0
C768 C 0.09876 0.3094 0.40211 0.0
C769 C 0.08078 0.28566 0.40029 0.0
C770 C 0.103 0.32687 0.37946 0.0
C771 C 0.10065 0.32323 0.30291 0.0
H772 H 0.11709 0.40317 0.31069 0.0
C773 C 0.13382 0.39113 0.20833 0.0
C774 C 0.15494 0.41138 0.21299 0.0
C775 C 0.12165 0.37657 0.23076 0.0
C776 C 0.11269 0.38083 0.30822 0.0
H777 H 0.05185 0.26264 0.37399 0.0
H778 H 0.05918 0.29334 0.33445 0.0
H779 H 0.0995 0.37748 0.3513 0.0
H780 H 0.18013 0.43188 0.24476 0.0
H781 H 0.15919 0.40622 0.28368 0.0
H782 H 0.11447 0.32645 0.26003 0.0
C783 C 0.07025 0.29816 0.35328 0.0
C784 C 0.10254 0.36615 0.33144 0.0
C785 C 0.06593 0.2807 0.376 0.0
C786 C 0.16387 0.41647 0.24044 0.0
C787 C 0.1517 0.40195 0.26281 0.0
C788 C 0.11081 0.33791 0.27969 0.0
C789 C 0.08937 0.32097 0.3545 0.0
C790 C 0.09689 0.33712 0.32917 0.0
C791 C 0.13032 0.38201 0.25828 0.0
C792 C 0.11745 0.36678 0.28224 0.0
H793 H 0.11046 0.31386 0.42057 0.0
H794 H 0.118 0.34415 0.38101 0.0
H795 H 0.09686 0.3008 0.30057 0.0
H796 H 0.1264 0.38682 0.18744 0.0
H797 H 0.10512 0.36144 0.22663 0.0
C798 C 0.97643 0.85656 0.61219 0.0
C799 C 0.00299 0.85518 0.61903 0.0
C800 C 0.96796 0.84768 0.58557 0.0
C801 C 0.95225 0.81933 0.53048 0.0
H802 H 0.99483 0.85407 0.47012 0.0
C803 C 0.90608 0.82915 0.42554 0.0
C804 C 0.90832 0.85673 0.41679 0.0
C805 C 0.92353 0.8206 0.4448 0.0
C806 C 0.98283 0.844 0.48667 0.0
H807 H 0.04124 0.84205 0.6039 0.0
H808 H 0.02635 0.82669 0.55711 0.0
H809 H 0.01274 0.85349 0.51692 0.0
H810 H 0.93152 0.8964 0.41921 0.0
H811 H 0.96164 0.8819 0.45357 0.0
H812 H 0.92159 0.81172 0.50112 0.0
C813 C 0.01218 0.83475 0.57239 0.0
C814 C 0.99318 0.84341 0.51341 0.0
C815 C 0.02064 0.84344 0.59918 0.0
C816 C 0.92957 0.87499 0.42565 0.0
C817 C 0.94685 0.86657 0.44525 0.0
C818 C 0.9419 0.81997 0.50384 0.0
C819 C 0.98589 0.83734 0.56516 0.0
C820 C 0.97751 0.83216 0.53583 0.0
C821 C 0.94321 0.83967 0.45604 0.0
C822 C 0.95665 0.83335 0.48192 0.0
H823 H 0.96235 0.8654 0.62707 0.0
H824 H 0.94764 0.85028 0.58053 0.0
H825 H 0.9399 0.81016 0.54729 0.0
H826 H 0.8899 0.81468 0.41867 0.0
H827 H 0.92058 0.79957 0.45219 0.0
C828 C 0.35287 0.66258 0.72722 0.0
C829 C 0.35375 0.63369 0.72869 0.0
C830 C 0.35596 0.67976 0.75147 0.0
C831 C 0.34776 0.67373 0.82886 0.0
H832 H 0.36711 0.75328 0.82867 0.0
C833 C 0.34001 0.74678 0.92807 0.0
C834 C 0.32278 0.76775 0.92451 0.0
C835 C 0.34924 0.73117 0.9048 0.0
C836 C 0.36187 0.73102 0.82898 0.0
H837 H 0.36067 0.60003 0.75546 0.0
H838 H 0.36814 0.63004 0.79735 0.0
H839 H 0.37596 0.72425 0.78651 0.0
H840 H 0.30252 0.78962 0.89388 0.0
H841 H 0.31916 0.76269 0.8532 0.0
H842 H 0.3339 0.68068 0.87145 0.0
C843 C 0.36373 0.63956 0.77806 0.0
C844 C 0.36672 0.71439 0.80482 0.0
C845 C 0.35983 0.62235 0.75403 0.0
C846 C 0.31559 0.7734 0.89725 0.0
C847 C 0.32528 0.75823 0.87398 0.0
C848 C 0.34348 0.69026 0.85312 0.0
C849 C 0.36055 0.66833 0.77747 0.0
C850 C 0.35907 0.68559 0.80417 0.0
C851 C 0.34191 0.73679 0.87761 0.0
C852 C 0.34988 0.7191 0.85315 0.0
H853 H 0.34785 0.6716 0.70784 0.0
H854 H 0.35306 0.70168 0.75006 0.0
H855 H 0.34096 0.65186 0.82923 0.0
H856 H 0.34588 0.74205 0.94886 0.0
H857 H 0.36201 0.71465 0.90802 0.0
C858 C 0.46776 0.08345 0.20557 0.0
C859 C 0.45106 0.10513 0.21113 0.0
C860 C 0.48655 0.08497 0.18331 0.0
C861 C 0.52947 0.09487 0.13797 0.0
H862 H 0.4989 0.11774 0.07003 0.0
C863 C 0.57933 0.07784 0.02782 0.0
C864 C 0.56201 0.0655 0.00764 0.0
C865 C 0.56934 0.08876 0.0534 0.0
C866 C 0.50778 0.1114 0.08883 0.0
H867 H 0.44251 0.14646 0.19937 0.0
H868 H 0.47562 0.14929 0.16082 0.0
H869 H 0.47634 0.12596 0.11524 0.0
H870 H 0.52067 0.05501 -0.00148 0.0
H871 H 0.50333 0.07405 0.0429 0.0
H872 H 0.56005 0.07871 0.11116 0.0
C873 C 0.47375 0.13082 0.1732 0.0
C874 C 0.49504 0.11643 0.11483 0.0
C875 C 0.45484 0.12923 0.19534 0.0
C876 C 0.53454 0.06482 0.01336 0.0
C877 C 0.52459 0.07577 0.03882 0.0
C878 C 0.5422 0.08977 0.1119 0.0
C879 C 0.48913 0.10828 0.16629 0.0
C880 C 0.50528 0.10743 0.13962 0.0
C881 C 0.54186 0.08765 0.05922 0.0
C882 C 0.53098 0.09716 0.087 0.0
H883 H 0.46541 0.06464 0.21742 0.0
H884 H 0.49788 0.06711 0.17845 0.0
H885 H 0.53805 0.08804 0.15673 0.0
H886 H 0.6006 0.07902 0.02387 0.0
H887 H 0.5831 0.09799 0.06865 0.0
C888 C 0.56116 0.21097 0.67364 0.0
C889 C 0.57179 0.19771 0.64933 0.0
C890 C 0.55711 0.19668 0.69857 0.0
C891 C 0.55171 0.1262 0.72663 0.0
H892 H 0.58902 0.16023 0.79062 0.0
C893 C 0.60388 0.06293 0.80002 0.0
C894 C 0.59759 0.065 0.829 0.0
C895 C 0.59525 0.08197 0.78202 0.0
C896 C 0.57794 0.15077 0.7732 0.0
H897 H 0.58538 0.15887 0.63164 0.0
H898 H 0.57817 0.13395 0.67498 0.0
H899 H 0.5818 0.1883 0.75023 0.0
H900 H 0.57864 0.08964 0.86207 0.0
H901 H 0.56398 0.12378 0.83008 0.0
H902 H 0.54944 0.08828 0.74871 0.0
C903 C 0.57291 0.15532 0.67482 0.0
C904 C 0.57379 0.16674 0.75015 0.0
C905 C 0.57725 0.16965 0.65005 0.0
C906 C 0.58374 0.08755 0.83982 0.0
C907 C 0.57527 0.10694 0.82162 0.0
C908 C 0.55589 0.1103 0.74955 0.0
C909 C 0.56321 0.16882 0.69942 0.0
C910 C 0.56176 0.15419 0.72615 0.0
C911 C 0.58034 0.10366 0.79252 0.0
C912 C 0.57011 0.12216 0.77238 0.0
H913 H 0.55677 0.23264 0.67367 0.0
H914 H 0.54958 0.20749 0.71727 0.0
H915 H 0.54197 0.11618 0.70859 0.0
H916 H 0.61476 0.04603 0.79098 0.0
H917 H 0.5999 0.07946 0.75968 0.0
C918 C 0.07528 0.37414 0.04674 0.0
C919 C 0.09556 0.39521 0.04171 0.0
C920 C 0.05892 0.36381 0.02503 0.0
C921 C 0.05601 0.36024 0.9473 0.0
H922 H 0.97991 0.35003 0.96099 0.0
C923 C 0.98136 0.36067 0.8598 0.0
C924 C 0.95867 0.34189 0.86082 0.0
C925 C -0.001 0.36262 0.88169 0.0
C926 C 0.00117 0.35232 0.95694 0.0
H927 H 0.11395 0.42267 0.01034 0.0
H928 H 0.08549 0.40485 0.97273 0.0
H929 H 0.00874 0.36223 0.00029 0.0
H930 H 0.93706 0.30984 0.88523 0.0
H931 H 0.96796 0.3134 0.92363 0.0
H932 H 0.04837 0.35121 0.90385 0.0
C933 C 0.08261 0.39572 0.99314 0.0
C934 C 0.01767 0.3593 0.97944 0.0
C935 C 0.0989 0.40598 0.01473 0.0
C936 C 0.95438 0.32453 0.88384 0.0
C937 C 0.97195 0.32665 0.90589 0.0
C938 C 0.03953 0.35338 0.92484 0.0
C939 C 0.06255 0.3744 -0.00205 0.0
C940 C 0.04523 0.36397 0.97474 0.0
C941 C 0.99428 0.34595 0.90516 0.0
C942 C 0.01191 0.34994 0.92934 0.0
H943 H 0.07236 0.36533 0.06729 0.0
H944 H 0.04369 0.34728 0.02934 0.0
H945 H 0.07722 0.3631 0.94309 0.0
H946 H 0.98524 0.37431 0.84233 0.0
H947 H 0.01588 0.37791 0.88069 0.0
C948 C 0.84562 0.85172 0.26772 0.0
C949 C 0.8206 0.86252 0.26997 0.0
C950 C 0.85543 0.84146 0.24175 0.0
C951 C 0.84649 0.84397 0.16507 0.0
H952 H 0.87757 0.77283 0.16173 0.0
C953 C 0.85234 0.77307 0.06485 0.0
C954 C 0.87352 0.75593 0.06117 0.0
C955 C 0.85024 0.79056 0.08888 0.0
C956 C 0.86946 0.79301 0.16228 0.0
H957 H 0.78619 0.87088 0.24677 0.0
H958 H 0.80312 0.85271 0.20178 0.0
H959 H 0.86531 0.79402 0.20719 0.0
H960 H 0.91034 0.74554 0.07852 0.0
H961 H 0.90687 0.77639 0.12017 0.0
H962 H 0.85002 0.84256 0.12007 0.0
C963 C 0.81538 0.85259 0.2199 0.0
C964 C 0.86238 0.80512 0.18838 0.0
C965 C 0.80558 0.86276 0.24578 0.0
C966 C 0.89361 0.75825 0.08089 0.0
C967 C 0.89155 0.77579 0.10486 0.0
C968 C 0.85359 0.83187 0.13895 0.0
C969 C 0.84043 0.84189 0.21755 0.0
C970 C 0.85033 0.83045 0.19003 0.0
C971 C 0.86935 0.79134 0.10963 0.0
C972 C 0.86471 0.80599 0.13725 0.0
H973 H 0.85773 0.85136 0.28594 0.0
H974 H 0.87487 0.83348 0.24056 0.0
H975 H 0.83767 0.86378 0.16571 0.0
H976 H 0.83654 0.77178 0.05004 0.0
H977 H 0.83281 0.80216 0.09198 0.0
C978 C 0.43126 0.64181 0.54163 0.0
C979 C 0.43238 0.62007 0.56021 0.0
C980 C 0.44884 0.64404 0.51834 0.0
C981 C 0.47222 0.62958 0.46079 0.0
H982 H 0.54436 0.60777 0.45975 0.0
C983 C 0.55159 0.58188 0.37663 0.0
C984 C 0.55121 0.6002 0.35446 0.0
C985 C 0.5393 0.58805 0.40263 0.0
C986 C 0.52422 0.61388 0.45975 0.0
H987 H 0.45341 0.58434 0.56975 0.0
H988 H 0.48384 0.58788 0.5289 0.0
H989 H 0.51986 0.6131 0.50461 0.0
H990 H 0.53767 0.63943 0.34221 0.0
H991 H 0.51585 0.65005 0.38773 0.0
H992 H 0.4765 0.63 0.4159 0.0
C993 C 0.46973 0.60355 0.53248 0.0
C994 C 0.51018 0.61689 0.48541 0.0
C995 C 0.45228 0.60146 0.5559 0.0
C996 C 0.53824 0.62486 0.35886 0.0
C997 C 0.52573 0.63092 0.38486 0.0
C998 C 0.48632 0.62674 0.43517 0.0
C999 C 0.46775 0.62442 0.51301 0.0
C1000 C 0.48382 0.62425 0.4862 0.0
C1001 C 0.52619 0.61258 0.40701 0.0
C1002 C 0.51226 0.61832 0.43435 0.0
H1003 H 0.41631 0.65666 0.54471 0.0
H1004 H 0.44716 0.66073 0.50412 0.0
H1005 H 0.45182 0.63481 0.46051 0.0
H1006 H 0.56145 0.56272 0.37397 0.0
H1007 H 0.53964 0.57332 0.41917 0.0
C1008 C 0.1679 0.18615 0.41686 0.0
C1009 C 0.14158 0.18406 0.40819 0.0
C1010 C 0.18595 0.16807 0.40534 0.0
C1011 C 0.20214 0.12496 0.34424 0.0
H1012 H 0.2453 0.08967 0.39585 0.0
C1013 C 0.29068 0.06876 0.30146 0.0
C1014 C 0.31406 0.07755 0.31513 0.0
C1015 C 0.26607 0.07295 0.31453 0.0
C1016 C 0.2334 0.0993 0.38116 0.0
H1017 H 0.11383 0.16214 0.37975 0.0
H1018 H 0.14589 0.13094 0.35895 0.0
H1019 H 0.20906 0.11655 0.41423 0.0
H1020 H 0.33068 0.09621 0.35321 0.0
H1021 H 0.28786 0.1041 0.37606 0.0
H1022 H 0.22731 0.10938 0.31124 0.0
C1023 C 0.15225 0.14638 0.375 0.0
C1024 C 0.21268 0.11465 0.39168 0.0
C1025 C 0.134 0.16429 0.38681 0.0
C1026 C 0.31273 0.08879 0.34266 0.0
C1027 C 0.28816 0.09327 0.35567 0.0
C1028 C 0.22304 0.10988 0.33371 0.0
C1029 C 0.17817 0.14773 0.3847 0.0
C1030 C 0.19743 0.12829 0.37334 0.0
C1031 C 0.26459 0.08656 0.34122 0.0
C1032 C 0.23944 0.0976 0.3521 0.0
H1033 H 0.17441 0.20111 0.43328 0.0
H1034 H 0.20601 0.16988 0.41273 0.0
H1035 H 0.19068 0.13538 0.32972 0.0
H1036 H 0.29148 0.06036 0.27999 0.0
H1037 H 0.2483 0.06709 0.30305 0.0
C1038 C 0.08017 0.13044 0.50456 0.0
C1039 C 0.09219 0.15664 0.51297 0.0
C1040 C 0.08117 0.1075 0.52126 0.0
C1041 C 0.09685 0.05919 0.55396 0.0
H1042 H 0.07469 0.06902 0.63239 0.0
C1043 C 0.08188 0.96714 0.62919 0.0
C1044 C 0.05782 0.96616 0.64504 0.0
C1045 C 0.09047 0.99086 0.61432 0.0
C1046 C 0.08102 0.06599 0.61055 0.0
H1047 H 0.11512 0.17922 0.54532 0.0
H1048 H 0.11654 0.13891 0.57493 0.0
H1049 H 0.08255 0.10972 0.60338 0.0
H1050 H 0.02406 0.98944 0.65795 0.0
H1051 H 0.03899 0.03056 0.63204 0.0
H1052 H 0.0943 0.01537 0.56083 0.0
C1053 C 0.1064 0.13629 0.55527 0.0
C1054 C 0.08578 0.0893 0.59404 0.0
C1055 C 0.10564 0.1593 0.53833 0.0
C1056 C 0.04268 0.98945 0.64591 0.0
C1057 C 0.05134 0.01316 0.63127 0.0
C1058 C 0.09225 0.0359 0.57052 0.0
C1059 C 0.09406 0.11019 0.54691 0.0
C1060 C 0.09303 0.08606 0.56538 0.0
C1061 C 0.07529 0.01413 0.61528 0.0
C1062 C 0.08358 0.039 0.59878 0.0
H1063 H 0.06976 0.1276 0.48507 0.0
H1064 H 0.07114 0.08779 0.51444 0.0
H1065 H 0.10269 0.05612 0.53199 0.0
H1066 H 0.09403 0.94956 0.62817 0.0
H1067 H 0.10905 0.99108 0.60222 0.0
C1068 C 0.04484 0.93992 0.791 0.0
C1069 C 0.06098 0.93787 0.76645 0.0
C1070 C 0.05638 0.94391 0.81726 0.0
C1071 C 0.12203 0.95446 0.85163 0.0
H1072 H 0.09511 0.88963 0.89269 0.0
C1073 C 0.18138 0.86973 0.89231 0.0
C1074 C 0.1844 0.87037 0.92155 0.0
C1075 C 0.16325 0.88587 0.88071 0.0
C1076 C 0.10247 0.90827 0.88198 0.0
H1077 H 0.10138 0.94188 0.74949 0.0
H1078 H 0.12143 0.94872 0.79478 0.0
H1079 H 0.06739 0.90856 0.85862 0.0
H1080 H 0.17045 0.88846 0.96152 0.0
H1081 H 0.13791 0.91597 0.94091 0.0
H1082 H 0.15822 0.95197 0.87303 0.0
C1083 C 0.1 0.94727 0.79424 0.0
C1084 C 0.08659 0.91927 0.86256 0.0
C1085 C 0.08852 0.94306 0.76818 0.0
C1086 C 0.16836 0.88713 0.93895 0.0
C1087 C 0.14997 0.90309 0.92727 0.0
C1088 C 0.13797 0.94325 0.87084 0.0
C1089 C 0.08415 0.94614 0.81916 0.0
C1090 C 0.09682 0.94144 0.84596 0.0
C1091 C 0.1476 0.90272 0.89808 0.0
C1092 C 0.12866 0.91931 0.88506 0.0
H1093 H 0.0235 0.93607 0.79016 0.0
H1094 H 0.04366 0.94329 0.83609 0.0
H1095 H 0.13028 0.97182 0.8395 0.0
H1096 H 0.19302 0.85674 0.87834 0.0
H1097 H 0.16136 0.88516 0.85809 0.0
C1098 C 0.34368 0.01302 0.20356 0.0
C1099 C 0.34346 0.04213 0.20259 0.0
C1100 C 0.3273 0.99551 0.18664 0.0
C1101 C 0.29416 0.98974 0.12094 0.0
H1102 H 0.26003 0.92327 0.15422 0.0
C1103 C 0.25704 0.89491 0.05212 0.0
C1104 C 0.27007 0.8715 0.05895 0.0
C1105 C 0.25619 0.91786 0.07109 0.0
C1106 C 0.26911 0.94189 0.14466 0.0
H1107 H 0.32625 0.07572 0.1825 0.0
H1108 H 0.29781 0.04466 0.15207 0.0
H1109 H 0.27851 0.96152 0.18454 0.0
H1110 H 0.29028 0.85259 0.09166 0.0
H1111 H 0.28841 0.89223 0.12484 0.0
H1112 H 0.28624 0.96932 0.081 0.0
C1113 C 0.31058 0.03567 0.16638 0.0
C1114 C 0.27971 0.96372 0.16196 0.0
C1115 C 0.32689 0.05336 0.18366 0.0
C1116 C 0.2802 0.87042 0.08584 0.0
C1117 C 0.27897 0.89309 0.1049 0.0
C1118 C 0.28352 0.96784 0.10358 0.0
C1119 C 0.31035 0.00657 0.16814 0.0
C1120 C 0.29351 0.98719 0.15022 0.0
C1121 C 0.26788 0.91744 0.09733 0.0
C1122 C 0.27209 0.94315 0.1153 0.0
H1123 H 0.35622 0.00359 0.21779 0.0
H1124 H 0.32804 0.97316 0.18791 0.0
H1125 H 0.30472 0.00761 0.11139 0.0
H1126 H 0.24914 0.89629 0.03145 0.0
H1127 H 0.24744 0.93635 0.06481 0.0
C1128 C 0.83134 0.37166 0.73111 0.0
C1129 C 0.84305 0.34772 0.73874 0.0
C1130 C 0.81017 0.3692 0.71278 0.0
C1131 C 0.77931 0.32448 0.6577 0.0
H1132 H 0.7109 0.34196 0.6903 0.0
C1133 C 0.68343 0.26779 0.61937 0.0
C1134 C 0.66029 0.282 0.61894 0.0
C1135 C 0.70631 0.28061 0.63112 0.0
C1136 C 0.72986 0.33752 0.68053 0.0
H1137 H 0.84302 0.30286 0.73246 0.0
H1138 H 0.80691 0.29875 0.69983 0.0
H1139 H 0.75133 0.3576 0.71474 0.0
H1140 H 0.64299 0.32089 0.63045 0.0
H1141 H 0.68322 0.34351 0.65066 0.0
H1142 H 0.75818 0.30402 0.62376 0.0
C1143 C 0.81368 0.31925 0.7082 0.0
C1144 C 0.75297 0.34651 0.69454 0.0
C1145 C 0.8342 0.3216 0.72695 0.0
C1146 C 0.6605 0.30933 0.63063 0.0
C1147 C 0.68353 0.32228 0.64223 0.0
C1148 C 0.75632 0.31582 0.64352 0.0
C1149 C 0.8012 0.34291 0.70131 0.0
C1150 C 0.77775 0.33918 0.68369 0.0
C1151 C 0.70676 0.30809 0.6425 0.0
C1152 C 0.73124 0.32124 0.65532 0.0
H1153 H 0.83782 0.39198 0.74013 0.0
H1154 H 0.80068 0.38767 0.70777 0.0
H1155 H 0.79828 0.31874 0.6489 0.0
H1156 H 0.6839 0.24665 0.61069 0.0
H1157 H 0.72357 0.26873 0.63161 0.0
C1158 C 0.84027 0.41325 0.84292 0.0
C1159 C 0.85847 0.39717 0.85485 0.0
C1160 C 0.83141 0.43664 0.85762 0.0
C1161 C 0.83456 0.47711 0.92635 0.0
H1162 H 0.84108 0.54063 0.87831 0.0
C1163 C 0.86781 0.58739 0.96625 0.0
C1164 C 0.85448 0.60994 0.95766 0.0
C1165 C 0.86211 0.56066 0.95464 0.0
C1166 C 0.83867 0.52308 0.89195 0.0
H1167 H 0.88099 0.39171 0.89155 0.0
H1168 H 0.86604 0.43289 0.91727 0.0
H1169 H 0.84047 0.49367 0.85728 0.0
H1170 H 0.82487 0.62213 0.92987 0.0
H1171 H 0.81535 0.57512 0.90892 0.0
H1172 H 0.83435 0.5069 0.96106 0.0
C1173 C 0.85788 0.42722 0.89694 0.0
C1174 C 0.8382 0.49609 0.87993 0.0
C1175 C 0.86648 0.40361 0.88231 0.0
C1176 C 0.83553 0.60519 0.93683 0.0
C1177 C 0.83004 0.57835 0.92491 0.0
C1178 C 0.83525 0.50413 0.93835 0.0
C1179 C 0.84112 0.44467 0.88426 0.0
C1180 C 0.83691 0.47279 0.89701 0.0
C1181 C 0.84312 0.55581 0.93397 0.0
C1182 C 0.8381 0.52737 0.92127 0.0
H1183 H 0.83416 0.40867 0.82154 0.0
H1184 H 0.81811 0.44928 0.84746 0.0
H1185 H 0.83305 0.45965 0.94009 0.0
H1186 H 0.88246 0.59024 0.98232 0.0
H1187 H 0.87287 0.54379 0.96162 0.0
C1188 C 0.81782 0.63113 0.08391 0.0
C1189 C 0.81096 0.64919 0.06338 0.0
C1190 C 0.79813 0.61835 0.1017 0.0
C1191 C 0.73073 0.62822 0.12974 0.0
H1192 H 0.72502 0.54913 0.14378 0.0
C1193 C 0.63685 0.58058 0.18128 0.0
C1194 C 0.64032 0.5659 0.20552 0.0
C1195 C 0.65792 0.58569 0.16202 0.0
C1196 C 0.72651 0.57126 0.1401 0.0
H1197 H 0.77807 0.66769 0.04523 0.0
H1198 H 0.74422 0.6456 0.0759 0.0
H1199 H 0.76295 0.56937 0.11557 0.0
H1200 H 0.66765 0.54271 0.22736 0.0
H1201 H 0.7048 0.552 0.19367 0.0
H1202 H 0.69457 0.63042 0.15394 0.0
C1203 C 0.76469 0.64148 0.0786 0.0
C1204 C 0.74822 0.58284 0.12414 0.0
C1205 C 0.78416 0.65409 0.06092 0.0
C1206 C 0.66445 0.55401 0.20875 0.0
C1207 C 0.68573 0.55939 0.18953 0.0
C1208 C 0.70918 0.61674 0.14549 0.0
C1209 C 0.7714 0.62366 0.0993 0.0
C1210 C 0.7502 0.61137 0.11839 0.0
C1211 C 0.68298 0.57654 0.16682 0.0
C1212 C 0.70651 0.58806 0.15039 0.0
H1213 H 0.83829 0.62683 0.08616 0.0
H1214 H 0.80382 0.60473 0.11757 0.0
H1215 H 0.73204 0.65039 0.12624 0.0
H1216 H 0.61835 0.58971 0.17815 0.0
H1217 H 0.65506 0.59834 0.14426 0.0
C1218 C 0.6315 0.28258 0.48458 0.0
C1219 C 0.61327 0.2908 0.50584 0.0
C1220 C 0.63468 0.29697 0.45955 0.0
C1221 C 0.59756 0.33743 0.41499 0.0
H1222 H 0.66269 0.38057 0.39352 0.0
C1223 C 0.59748 0.44129 0.36557 0.0
C1224 C 0.6134 0.44713 0.34137 0.0
C1225 C 0.5999 0.41717 0.37995 0.0
C1226 C 0.64459 0.36804 0.39879 0.0
H1227 H 0.58459 0.32084 0.51778 0.0
H1228 H 0.58993 0.34543 0.47424 0.0
H1229 H 0.66303 0.34626 0.43028 0.0
H1230 H 0.64496 0.43239 0.31378 0.0
H1231 H 0.64975 0.39023 0.33989 0.0
H1232 H 0.5787 0.36023 0.38498 0.0
C1233 C 0.60166 0.3279 0.47688 0.0
C1234 C 0.64478 0.34851 0.41974 0.0
C1235 C 0.59876 0.3139 0.50186 0.0
C1236 C 0.63244 0.42853 0.33239 0.0
C1237 C 0.63512 0.4044 0.34715 0.0
C1238 C 0.59737 0.35679 0.39415 0.0
C1239 C 0.61932 0.31935 0.45539 0.0
C1240 C 0.62098 0.33413 0.42885 0.0
C1241 C 0.61854 0.39841 0.37079 0.0
C1242 C 0.62058 0.37322 0.3869 0.0
H1243 H 0.64301 0.26488 0.48713 0.0
H1244 H 0.64853 0.29022 0.44322 0.0
H1245 H 0.57905 0.32629 0.42155 0.0
H1246 H 0.58324 0.45553 0.37368 0.0
H1247 H 0.58737 0.41336 0.39859 0.0
C1248 C 0.23616 0.37906 0.11295 0.0
C1249 C 0.24214 0.40341 0.12956 0.0
C1250 C 0.25086 0.35588 0.11495 0.0
C1251 C 0.31071 0.33095 0.14668 0.0
H1252 H 0.26447 0.26374 0.15715 0.0
C1253 C 0.30736 0.22325 0.21067 0.0
C1254 C 0.33295 0.21484 0.20449 0.0
C1255 C 0.29808 0.24531 0.19678 0.0
C1256 C 0.27766 0.28234 0.15436 0.0
H1257 H 0.26972 0.42342 0.15933 0.0
H1258 H 0.29489 0.38305 0.16321 0.0
H1259 H 0.2466 0.30472 0.13951 0.0
H1260 H 0.36876 0.22269 0.17858 0.0
H1261 H 0.35251 0.26123 0.15424 0.0
H1262 H 0.34141 0.30894 0.16315 0.0
C1263 C 0.27905 0.38173 0.14847 0.0
C1264 C 0.26752 0.30574 0.14377 0.0
C1265 C 0.26446 0.40491 0.14637 0.0
C1266 C 0.34908 0.22897 0.18409 0.0
C1267 C 0.33976 0.251 0.17011 0.0
C1268 C 0.32084 0.30754 0.1574 0.0
C1269 C 0.27177 0.35658 0.13365 0.0
C1270 C 0.28375 0.33057 0.14046 0.0
C1271 C 0.31413 0.2594 0.17628 0.0
C1272 C 0.30424 0.28321 0.16204 0.0
H1273 H 0.21924 0.37734 0.09956 0.0
H1274 H 0.24512 0.33701 0.10277 0.0
H1275 H 0.32383 0.34962 0.14405 0.0
H1276 H 0.29461 0.21304 0.22656 0.0
H1277 H 0.27846 0.25163 0.20251 0.0
C1278 C 0.81401 0.21634 0.87588 0.0
C1279 C 0.83003 0.21633 0.85118 0.0
C1280 C 0.80013 0.19175 0.88449 0.0
C1281 C 0.7936 0.1144 0.87059 0.0
H1282 H 0.72214 0.1223 0.90048 0.0
C1283 C 0.7056 0.02967 0.8669 0.0
C1284 C 0.68711 0.02944 0.88972 0.0
C1285 C 0.72775 0.049 0.86678 0.0
C1286 C 0.74222 0.11973 0.89265 0.0
H1287 H 0.8444 0.19084 0.81617 0.0
H1288 H 0.8193 0.1481 0.83041 0.0
H1289 H 0.75103 0.16365 0.891 0.0
H1290 H 0.67892 0.04698 0.93163 0.0
H1291 H 0.71749 0.08058 0.93133 0.0
H1292 H 0.78381 0.07016 0.87085 0.0
C1293 C 0.81802 0.16676 0.84374 0.0
C1294 C 0.75888 0.14349 0.88725 0.0
C1295 C 0.83226 0.19127 0.83542 0.0
C1296 C 0.69258 0.04691 0.91353 0.0
C1297 C 0.71462 0.06621 0.91337 0.0
C1298 C 0.77672 0.09054 0.87566 0.0
C1299 C 0.80156 0.16673 0.86825 0.0
C1300 C 0.78471 0.1412 0.87589 0.0
C1301 C 0.73168 0.06834 0.88947 0.0
C1302 C 0.75081 0.09304 0.88655 0.0
H1303 H 0.81232 0.23538 0.88859 0.0
H1304 H 0.78815 0.19244 0.90382 0.0
H1305 H 0.81351 0.11181 0.86227 0.0
H1306 H 0.70199 0.01638 0.84829 0.0
H1307 H 0.74061 0.05022 0.84806 0.0
C1308 C 0.13215 0.54517 0.17776 0.0
C1309 C 0.12655 0.51717 0.16894 0.0
C1310 C 0.11218 0.56378 0.17842 0.0
C1311 C 0.03919 0.56695 0.17137 0.0
H1312 H 0.06002 0.63005 0.1252 0.0
C1313 C 0.97471 0.6044 0.08803 0.0
C1314 C 0.97118 0.63301 0.08684 0.0
C1315 C 0.99238 0.595 0.10651 0.0
C1316 C 0.05396 0.61292 0.13866 0.0
H1317 H 0.09546 0.4861 0.15626 0.0
H1318 H 0.06099 0.51817 0.15726 0.0
H1319 H 0.09406 0.6046 0.14536 0.0
H1320 H 0.98369 0.67414 0.10451 0.0
H1321 H 0.01572 0.65754 0.13581 0.0
H1322 H -0.00086 0.5739 0.16251 0.0
C1323 C 0.08053 0.52604 0.16378 0.0
C1324 C 0.07342 0.5984 0.15034 0.0
C1325 C 0.1004 0.50764 0.16289 0.0
C1326 C 0.98615 0.652 0.10445 0.0
C1327 C 0.00428 0.64257 0.12261 0.0
C1328 C 0.01981 0.58124 0.15941 0.0
C1329 C 0.08632 0.5545 0.17063 0.0
C1330 C 0.06623 0.57439 0.1656 0.0
C1331 C 0.00732 0.61396 0.12391 0.0
C1332 C 0.02711 0.6035 0.14192 0.0
H1333 H 0.15218 0.55301 0.18258 0.0
H1334 H 0.11717 0.58557 0.18395 0.0
H1335 H 0.03304 0.54891 0.18355 0.0
H1336 H 0.96411 0.58917 0.07438 0.0
H1337 H 0.99487 0.57286 0.1067 0.0
C1338 C 0.7745 0.80147 0.38056 0.0
C1339 C 0.75788 0.8205 0.37025 0.0
C1340 C 0.76543 0.77355 0.38336 0.0
C1341 C 0.70623 0.72392 0.38453 0.0
H1342 H 0.74805 0.67704 0.33495 0.0
C1343 C 0.67716 0.63845 0.29962 0.0
C1344 C 0.66075 0.61898 0.31456 0.0
C1345 C 0.69531 0.65671 0.31372 0.0
C1346 C 0.73654 0.68963 0.34947 0.0
H1347 H 0.71822 0.82573 0.35679 0.0
H1348 H 0.70228 0.77694 0.36198 0.0
H1349 H 0.76617 0.72387 0.34913 0.0
H1350 H 0.65106 0.60199 0.35541 0.0
H1351 H 0.68229 0.63504 0.38049 0.0
H1352 H 0.67593 0.69028 0.38336 0.0
C1353 C 0.72232 0.78366 0.36782 0.0
C1354 C 0.74686 0.71637 0.35762 0.0
C1355 C 0.73149 0.81151 0.36463 0.0
C1356 C 0.6638 0.61676 0.34353 0.0
C1357 C 0.68152 0.6356 0.35782 0.0
C1358 C 0.69607 0.69701 0.37673 0.0
C1359 C 0.73947 0.76429 0.37636 0.0
C1360 C 0.73126 0.73418 0.37407 0.0
C1361 C 0.69681 0.65623 0.34307 0.0
C1362 C 0.71065 0.68023 0.35803 0.0
H1363 H 0.79493 0.80779 0.3852 0.0
H1364 H 0.77896 0.75899 0.39002 0.0
H1365 H 0.69392 0.73727 0.39735 0.0
H1366 H 0.67498 0.64049 0.27727 0.0
H1367 H 0.70664 0.67267 0.30194 0.0
C1368 C 0.48214 0.35071 0.63066 0.0
C1369 C 0.50757 0.34902 0.6408 0.0
C1370 C 0.46509 0.36928 0.64335 0.0
C1371 C 0.4658 0.43396 0.68796 0.0
H1372 H 0.38964 0.41874 0.68382 0.0
C1373 C 0.36146 0.49332 0.70079 0.0
C1374 C 0.37081 0.5173 0.68651 0.0
C1375 C 0.37819 0.4719 0.70406 0.0
C1376 C 0.4108 0.42322 0.68583 0.0
H1377 H 0.53501 0.3647 0.67254 0.0
H1378 H 0.50497 0.39678 0.69535 0.0
H1379 H 0.41855 0.38141 0.67326 0.0
H1380 H 0.40541 0.53834 0.6659 0.0
H1381 H 0.43395 0.50125 0.67091 0.0
H1382 H 0.45804 0.47567 0.70082 0.0
C1383 C 0.49835 0.38427 0.67715 0.0
C1384 C 0.42746 0.40189 0.67926 0.0
C1385 C 0.51558 0.36595 0.66413 0.0
C1386 C 0.39744 0.52006 0.67684 0.0
C1387 C 0.41401 0.49883 0.68005 0.0
C1388 C 0.44914 0.45514 0.69496 0.0
C1389 C 0.47293 0.38632 0.66679 0.0
C1390 C 0.45521 0.40734 0.67894 0.0
C1391 C 0.40454 0.47422 0.69319 0.0
C1392 C 0.42152 0.45038 0.69262 0.0
H1393 H 0.4756 0.338 0.61254 0.0
H1394 H 0.44601 0.37072 0.63423 0.0
H1395 H 0.48702 0.43905 0.68805 0.0
H1396 H 0.34107 0.49069 0.7086 0.0
H1397 H 0.37035 0.45331 0.71452 0.0
C1398 C 0.29235 0.66998 0.62589 0.0
C1399 C 0.28048 0.64724 0.64061 0.0
C1400 C 0.27858 0.69367 0.62283 0.0
C1401 C 0.25071 0.74669 0.63975 0.0
H1402 H 0.17619 0.73907 0.62262 0.0
C1403 C 0.17557 0.82763 0.67228 0.0
C1404 C 0.1541 0.82957 0.65493 0.0
C1405 C 0.19467 0.80884 0.66502 0.0
C1406 C 0.1971 0.74171 0.62696 0.0
H1407 H 0.24465 0.63105 0.6628 0.0
H1408 H 0.22061 0.67219 0.6572 0.0
H1409 H 0.20158 0.69819 0.61955 0.0
H1410 H 0.13689 0.81579 0.61532 0.0
H1411 H 0.17048 0.78349 0.60229 0.0
H1412 H 0.24597 0.79023 0.64781 0.0
C1413 C 0.24052 0.67175 0.64805 0.0
C1414 C 0.21155 0.7182 0.62549 0.0
C1415 C 0.25433 0.64824 0.65137 0.0
C1416 C 0.15318 0.81434 0.62915 0.0
C1417 C 0.1723 0.79579 0.6218 0.0
C1418 C 0.23618 0.77028 0.64138 0.0
C1419 C 0.25262 0.69484 0.63409 0.0
C1420 C 0.23833 0.72034 0.63243 0.0
C1421 C 0.19256 0.7919 0.64024 0.0
C1422 C 0.2091 0.76793 0.63544 0.0
H1423 H 0.31252 0.66983 0.61743 0.0
H1424 H 0.28828 0.71113 0.61181 0.0
H1425 H 0.27133 0.74888 0.64537 0.0
H1426 H 0.17655 0.83914 0.69231 0.0
H1427 H 0.20998 0.80622 0.67973 0.0
C1428 C 0.36486 0.89325 0.96874 0.0
C1429 C 0.34102 0.88262 0.9569 0.0
C1430 C 0.38337 0.90978 0.95312 0.0
C1431 C 0.40781 0.91764 0.88164 0.0
H1432 H 0.45034 0.97999 0.91506 0.0
C1433 C 0.512 0.9921 0.86655 0.0
C1434 C 0.52926 0.971 0.86093 0.0
C1435 C 0.48481 0.98548 0.86986 0.0
C1436 C 0.43842 0.96303 0.90498 0.0
H1437 H 0.31724 0.88183 0.9199 0.0
H1438 H 0.35002 0.91055 0.89233 0.0
H1439 H 0.40939 0.96276 0.93885 0.0
H1440 H 0.53195 0.92688 0.85208 0.0
H1441 H 0.48425 0.91491 0.85889 0.0
H1442 H 0.43753 0.91722 0.84828 0.0
C1443 C 0.3542 0.90613 0.91375 0.0
C1444 C 0.41506 0.95303 0.91881 0.0
C1445 C 0.33543 0.88991 0.92959 0.0
C1446 C 0.51886 0.94343 0.85628 0.0
C1447 C 0.49157 0.93667 0.86012 0.0
C1448 C 0.43133 0.9276 0.86778 0.0
C1449 C 0.37854 0.91572 0.92523 0.0
C1450 C 0.40003 0.92968 0.90778 0.0
C1451 C 0.47447 0.95753 0.86832 0.0
C1452 C 0.44729 0.94989 0.87976 0.0
H1453 H 0.36965 0.88795 0.98974 0.0
H1454 H 0.40209 0.91667 0.9624 0.0
H1455 H 0.39661 0.89947 0.87277 0.0
H1456 H 0.51971 0.01359 0.86994 0.0
H1457 H 0.4721 0.00208 0.87545 0.0
C1458 C 0.81784 0.00043 0.32033 0.0
C1459 C 0.83059 0.97564 0.32121 0.0
C1460 C 0.83288 0.02603 0.31796 0.0
C1461 C 0.90234 0.05724 0.30551 0.0
H1462 H 0.88511 0.10738 0.36829 0.0
C1463 C 0.97397 0.11261 0.3836 0.0
C1464 C 0.9778 0.1418 0.38229 0.0
C1465 C 0.95399 0.09772 0.36863 0.0
C1466 C 0.88984 0.09395 0.35025 0.0
H1467 H 0.86856 0.95766 0.31777 0.0
H1468 H 0.89456 0.00173 0.31375 0.0
H1469 H 0.85199 0.0709 0.35265 0.0
H1470 H 0.96356 0.17804 0.36363 0.0
H1471 H 0.92773 0.15175 0.33851 0.0
H1472 H 0.94113 0.07871 0.30519 0.0
C1473 C 0.87315 0.00186 0.31477 0.0
C1474 C 0.87088 0.07316 0.34115 0.0
C1475 C 0.85825 0.97653 0.31741 0.0
C1476 C 0.96097 0.15566 0.36559 0.0
C1477 C 0.94063 0.14072 0.35098 0.0
C1478 C 0.92136 0.07776 0.31487 0.0
C1479 C 0.86078 0.02703 0.31603 0.0
C1480 C 0.87742 0.05367 0.31963 0.0
C1481 C 0.93716 0.11168 0.35239 0.0
C1482 C 0.91551 0.09545 0.338 0.0
H1483 H 0.79649 0.00021 0.32322 0.0
H1484 H 0.82279 0.04508 0.31882 0.0
H1485 H 0.9078 0.04287 0.28853 0.0
H1486 H 0.98605 0.1012 0.39662 0.0
H1487 H 0.95132 0.07526 0.37016 0.0
loop_
_geom_bond_atom_site_label_1
_geom_bond_atom_site_label_2
_geom_bond_distance
_geom_bond_site_symmetry_2
_ccdc_geom_bond_type
C0 O16 1.251 . S
C0 O18 1.254 . S
N1 C2 1.333 . S
N1 C6 1.307 . S
N1 Zn7 2.020 . S
C2 N1 1.333 . S
C2 C3 1.379 . S
C2 H20 0.952 . S
C3 C2 1.379 . S
C3 C4 1.390 . S
C3 H30 0.949 . S
C4 C3 1.390 . S
C4 C5 1.357 . S
C5 C4 1.357 . S
C5 C6 1.370 . S
C5 H31 0.950 . S
C6 N1 1.307 . S
C6 C5 1.370 . S
C6 H24 0.948 . S
Zn7 N1 2.020 . S
Zn7 O16 2.039 . S
Zn7 O22 2.034 . S
Zn7 O26 2.025 . S
Zn7 O28 2.024 . S
C8 O27 1.246 . S
C8 O28 1.249 . S
N9 C10 1.307 . S
N9 C11 1.333 . S
N9 Zn15 2.020 . S
C10 N9 1.307 . S
C10 C14 1.370 . S
C10 H21 0.948 . S
C11 N9 1.333 . S
C11 C12 1.379 . S
C11 H19 0.952 . S
C12 C11 1.379 . S
C12 C13 1.390 . S
C12 H32 0.949 . S
C13 C12 1.390 . S
C13 C14 1.357 . S
C14 C10 1.370 . S
C14 C13 1.357 . S
C14 H33 0.950 . S
Zn15 N9 2.020 . S
Zn15 O18 2.025 . S
Zn15 O23 2.024 . S
Zn15 O25 2.039 . S
Zn15 O27 2.034 . S
O16 C0 1.251 . S
O16 Zn7 2.039 . S
C17 O22 1.246 . S
C17 O23 1.249 . S
O18 C0 1.254 . S
O18 Zn15 2.025 . S
H19 C11 0.952 . S
H20 C2 0.952 . S
H21 C10 0.948 . S
O22 Zn7 2.034 . S
O22 C17 1.246 . S
O23 Zn15 2.024 . S
O23 C17 1.249 . S
H24 C6 0.948 . S
O25 Zn15 2.039 . S
O25 C29 1.251 . S
O26 Zn7 2.025 . S
O26 C29 1.254 . S
O27 C8 1.246 . S
O27 Zn15 2.034 . S
O28 Zn7 2.024 . S
O28 C8 1.249 . S
C29 O25 1.251 . S
C29 O26 1.254 . S
H30 C3 0.949 . S
H31 C5 0.950 . S
H32 C12 0.949 . S
H33 C14 0.950 . S
C34 O50 1.251 . S
C34 O52 1.254 . S
N35 C36 1.333 . S
N35 C40 1.307 . S
N35 Zn41 2.020 . S
C36 N35 1.333 . S
C36 C37 1.379 . S
C36 H54 0.952 . S
C37 C36 1.379 . S
C37 C38 1.390 . S
C37 H64 0.949 . S
C38 C37 1.390 . S
C38 C39 1.357 . S
C39 C38 1.357 . S
C39 C40 1.370 . S
C39 H65 0.950 . S
C40 N35 1.307 . S
C40 C39 1.370 . S
C40 H58 0.948 . S
Zn41 N35 2.020 . S
Zn41 O50 2.039 . S
Zn41 O56 2.034 . S
Zn41 O60 2.025 . S
Zn41 O62 2.024 . S
C42 O61 1.246 . S
C42 O62 1.249 . S
N43 C44 1.307 1_655 S
N43 C45 1.333 . S
N43 Zn49 2.020 1_655 S
C44 N43 1.307 1_455 S
C44 C48 1.370 1_455 S
C44 H55 0.948 . S
C45 N43 1.333 . S
C45 C46 1.379 . S
C45 H53 0.952 . S
C46 C45 1.379 . S
C46 C47 1.390 . S
C46 H66 0.949 . S
C47 C46 1.390 . S
C47 C48 1.357 . S
C48 C44 1.370 1_655 S
C48 C47 1.357 . S
C48 H67 0.950 . S
Zn49 N43 2.020 1_455 S
Zn49 O52 2.025 . S
Zn49 O57 2.024 . S
Zn49 O59 2.018 1_455 S
Zn49 O61 2.034 . S
O50 C34 1.251 . S
O50 Zn41 2.039 . S
C51 O56 1.246 . S
C51 O57 1.249 . S
O52 C34 1.254 . S
O52 Zn49 2.025 . S
H53 C45 0.952 . S
H54 C36 0.952 . S
H55 C44 0.948 . S
O56 Zn41 2.034 . S
O56 C51 1.246 . S
O57 Zn49 2.024 . S
O57 C51 1.249 . S
H58 C40 0.948 . S
O59 Zn49 2.018 1_655 S
O59 C63 1.242 1_655 S
O60 Zn41 2.025 . S
O60 C63 1.254 . S
O61 C42 1.246 . S
O61 Zn49 2.034 . S
O62 Zn41 2.024 . S
O62 C42 1.249 . S
C63 O59 1.242 1_455 S
C63 O60 1.254 . S
H64 C37 0.949 . S
H65 C39 0.950 . S
H66 C46 0.949 . S
H67 C48 0.950 . S
C68 O84 1.251 . S
C68 O86 1.254 . S
N69 C70 1.333 . S
N69 C74 1.307 . S
N69 Zn75 2.020 . S
C70 N69 1.333 . S
C70 C71 1.379 . S
C70 H88 0.952 . S
C71 C70 1.379 . S
C71 C72 1.390 . S
C71 H98 0.949 . S
C72 C71 1.390 . S
C72 C73 1.357 . S
C73 C72 1.357 . S
C73 C74 1.370 . S
C73 H99 0.950 . S
C74 N69 1.307 . S
C74 C73 1.370 . S
C74 H92 0.948 . S
Zn75 N69 2.020 . S
Zn75 O84 2.039 . S
Zn75 O90 2.034 . S
Zn75 O94 2.025 . S
Zn75 O96 2.024 . S
C76 O95 1.246 . S
C76 O96 1.249 . S
N77 C78 1.307 1_554 S
N77 C79 1.333 . S
N77 Zn83 2.020 1_554 S
C78 N77 1.307 1_556 S
C78 C82 1.370 1_556 S
C78 H89 0.948 . S
C79 N77 1.333 . S
C79 C80 1.379 . S
C79 H87 0.952 . S
C80 C79 1.379 . S
C80 C81 1.390 . S
C80 H100 0.949 . S
C81 C80 1.390 . S
C81 C82 1.357 . S
C82 C78 1.370 1_554 S
C82 C81 1.357 . S
C82 H101 0.950 1_554 S
Zn83 N77 2.020 1_556 S
Zn83 O86 2.025 . S
Zn83 O91 2.024 . S
Zn83 O93 2.039 1_556 S
Zn83 O95 2.034 . S
O84 C68 1.251 . S
O84 Zn75 2.039 . S
C85 O90 1.246 . S
C85 O91 1.249 . S
O86 C68 1.254 . S
O86 Zn83 2.025 . S
H87 C79 0.952 . S
H88 C70 0.952 . S
H89 C78 0.948 . S
O90 Zn75 2.034 . S
O90 C85 1.246 . S
O91 Zn83 2.024 . S
O91 C85 1.249 . S
H92 C74 0.948 . S
O93 Zn83 2.039 1_554 S
O93 C97 1.251 . S
O94 Zn75 2.025 . S
O94 C97 1.254 1_556 S
O95 C76 1.246 . S
O95 Zn83 2.034 . S
O96 Zn75 2.024 . S
O96 C76 1.249 . S
C97 O93 1.251 . S
C97 O94 1.254 1_554 S
H98 C71 0.949 . S
H99 C73 0.950 . S
H100 C80 0.949 . S
H101 C82 0.950 1_556 S
C102 O118 1.251 . S
C102 O120 1.254 . S
N103 C104 1.333 . S
N103 C108 1.307 . S
N103 Zn109 2.020 . S
C104 N103 1.333 . S
C104 C105 1.379 . S
C104 H122 0.952 . S
C105 C104 1.379 . S
C105 C106 1.390 . S
C105 H132 0.949 . S
C106 C105 1.390 . S
C106 C107 1.357 . S
C107 C106 1.357 . S
C107 C108 1.370 . S
C107 H133 0.950 . S
C108 N103 1.307 . S
C108 C107 1.370 . S
C108 H126 0.948 . S
Zn109 N103 2.020 . S
Zn109 O118 2.039 . S
Zn109 O124 2.034 . S
Zn109 O128 2.025 . S
Zn109 O130 2.024 . S
C110 O129 1.246 . S
C110 O130 1.249 . S
N111 C112 1.307 . S
N111 C113 1.333 . S
N111 Zn117 2.020 . S
C112 N111 1.307 . S
C112 C116 1.370 . S
C112 H123 0.948 . S
C113 N111 1.333 . S
C113 C114 1.379 . S
C113 H121 0.952 . S
C114 C113 1.379 . S
C114 C115 1.390 . S
C114 H134 0.949 . S
C115 C114 1.390 . S
C115 C116 1.357 . S
C116 C112 1.370 . S
C116 C115 1.357 . S
C116 H135 0.950 . S
Zn117 N111 2.020 . S
Zn117 O120 2.025 . S
Zn117 O125 2.024 . S
Zn117 O127 2.039 . S
Zn117 O129 2.034 . S
O118 C102 1.251 . S
O118 Zn109 2.039 . S
C119 O124 1.246 . S
C119 O125 1.249 . S
O120 C102 1.254 . S
O120 Zn117 2.025 . S
H121 C113 0.952 . S
H122 C104 0.952 . S
H123 C112 0.948 . S
O124 Zn109 2.034 . S
O124 C119 1.246 . S
O125 Zn117 2.024 . S
O125 C119 1.249 . S
H126 C108 0.948 . S
O127 Zn117 2.039 . S
O127 C131 1.251 . S
O128 Zn109 2.025 . S
O128 C131 1.254 . S
O129 C110 1.246 . S
O129 Zn117 2.034 . S
O130 Zn109 2.024 . S
O130 C110 1.249 . S
C131 O127 1.251 . S
C131 O128 1.254 . S
H132 C105 0.949 . S
H133 C107 0.950 . S
H134 C114 0.949 . S
H135 C116 0.950 . S
C136 O152 1.251 . S
C136 O154 1.254 . S
N137 C138 1.333 . S
N137 C142 1.307 . S
N137 Zn143 2.020 . S
C138 N137 1.333 . S
C138 C139 1.379 . S
C138 H156 0.952 . S
C139 C138 1.379 . S
C139 C140 1.390 . S
C139 H166 0.949 . S
C140 C139 1.390 . S
C140 C141 1.357 . S
C141 C140 1.357 . S
C141 C142 1.370 . S
C141 H167 0.950 . S
C142 N137 1.307 . S
C142 C141 1.370 . S
C142 H160 0.948 . S
Zn143 N137 2.020 . S
Zn143 O152 2.039 . S
Zn143 O158 2.034 . S
Zn143 O162 2.025 . S
Zn143 O164 2.024 . S
C144 O163 1.246 . S
C144 O164 1.249 . S
N145 C146 1.307 . S
N145 C147 1.333 . S
N145 Zn151 2.020 . S
C146 N145 1.307 . S
C146 C150 1.370 . S
C146 H157 0.948 . S
C147 N145 1.333 . S
C147 C148 1.379 . S
C147 H155 0.952 . S
C148 C147 1.379 . S
C148 C149 1.390 . S
C148 H168 0.949 . S
C149 C148 1.390 . S
C149 C150 1.357 . S
C150 C146 1.370 . S
C150 C149 1.357 . S
C150 H169 0.950 . S
Zn151 N145 2.020 . S
Zn151 O154 2.025 . S
Zn151 O159 2.024 . S
Zn151 O161 2.039 . S
Zn151 O163 2.034 . S
O152 C136 1.251 . S
O152 Zn143 2.039 . S
C153 O158 1.246 . S
C153 O159 1.249 . S
O154 C136 1.254 . S
O154 Zn151 2.025 . S
H155 C147 0.952 . S
H156 C138 0.952 . S
H157 C146 0.948 . S
O158 Zn143 2.034 . S
O158 C153 1.246 . S
O159 Zn151 2.024 . S
O159 C153 1.249 . S
H160 C142 0.948 . S
O161 Zn151 2.039 . S
O161 C165 1.251 . S
O162 Zn143 2.025 . S
O162 C165 1.254 . S
O163 C144 1.246 . S
O163 Zn151 2.034 . S
O164 Zn143 2.024 . S
O164 C144 1.249 . S
C165 O161 1.251 . S
C165 O162 1.254 . S
H166 C139 0.949 . S
H167 C141 0.950 . S
H168 C148 0.949 . S
H169 C150 0.950 . S
C170 O186 1.251 . S
C170 O188 1.254 . S
N171 C172 1.333 . S
N171 C176 1.307 . S
N171 Zn177 2.020 . S
C172 N171 1.333 . S
C172 C173 1.379 . S
C172 H190 0.952 . S
C173 C172 1.379 . S
C173 C174 1.390 . S
C173 H200 0.949 . S
C174 C173 1.390 . S
C174 C175 1.357 . S
C175 C174 1.357 . S
C175 C176 1.370 . S
C175 H201 0.950 . S
C176 N171 1.307 . S
C176 C175 1.370 . S
C176 H194 0.948 . S
Zn177 N171 2.020 . S
Zn177 O186 2.039 . S
Zn177 O192 2.034 . S
Zn177 O196 2.025 . S
Zn177 O198 2.024 . S
C178 O197 1.246 . S
C178 O198 1.249 . S
N179 C180 1.307 . S
N179 C181 1.333 . S
N179 Zn185 2.020 . S
C180 N179 1.307 . S
C180 C184 1.370 . S
C180 H191 0.948 . S
C181 N179 1.333 . S
C181 C182 1.379 . S
C181 H189 0.952 . S
C182 C181 1.379 . S
C182 C183 1.390 . S
C182 H202 0.949 1_655 S
C183 C182 1.390 . S
C183 C184 1.357 . S
C184 C180 1.370 . S
C184 C183 1.357 . S
C184 H203 0.950 . S
Zn185 N179 2.020 . S
Zn185 O188 2.025 . S
Zn185 O193 2.024 . S
Zn185 O195 2.039 . S
Zn185 O197 2.034 . S
O186 C170 1.251 . S
O186 Zn177 2.039 . S
C187 O192 1.246 . S
C187 O193 1.249 . S
O188 C170 1.254 . S
O188 Zn185 2.025 . S
H189 C181 0.952 . S
H190 C172 0.952 . S
H191 C180 0.948 . S
O192 Zn177 2.034 . S
O192 C187 1.246 . S
O193 Zn185 2.024 . S
O193 C187 1.249 . S
H194 C176 0.948 . S
O195 Zn185 2.039 . S
O195 C199 1.251 . S
O196 Zn177 2.025 . S
O196 C199 1.254 . S
O197 C178 1.246 . S
O197 Zn185 2.034 . S
O198 Zn177 2.024 . S
O198 C178 1.249 . S
C199 O195 1.251 . S
C199 O196 1.254 . S
H200 C173 0.949 . S
H201 C175 0.950 . S
H202 C182 0.949 1_455 S
H203 C184 0.950 . S
C204 O220 1.251 . S
C204 O222 1.254 . S
N205 C206 1.333 . S
N205 C210 1.307 . S
N205 Zn211 2.020 . S
C206 N205 1.333 . S
C206 C207 1.379 . S
C206 H224 0.952 . S
C207 C206 1.379 . S
C207 C208 1.390 . S
C207 H234 0.949 . S
C208 C207 1.390 . S
C208 C209 1.357 . S
C209 C208 1.357 . S
C209 C210 1.370 . S
C209 H235 0.950 . S
C210 N205 1.307 . S
C210 C209 1.370 . S
C210 H228 0.948 . S
Zn211 N205 2.020 . S
Zn211 O220 2.039 . S
Zn211 O226 2.034 . S
Zn211 O230 2.025 . S
Zn211 O232 2.024 . S
C212 O231 1.246 . S
C212 O232 1.249 . S
N213 C214 1.307 . S
N213 C215 1.333 . S
N213 Zn219 2.020 . S
C214 N213 1.307 . S
C214 C218 1.370 1_554 S
C214 H225 0.948 . S
C215 N213 1.333 . S
C215 C216 1.379 . S
C215 H223 0.952 . S
C216 C215 1.379 . S
C216 C217 1.390 1_554 S
C216 H236 0.949 . S
C217 C216 1.390 1_556 S
C217 C218 1.357 . S
C218 C214 1.370 1_556 S
C218 C217 1.357 . S
C218 H237 0.950 . S
Zn219 N213 2.020 . S
Zn219 O222 2.025 . S
Zn219 O227 2.024 . S
Zn219 O229 2.039 . S
Zn219 O231 2.034 . S
O220 C204 1.251 . S
O220 Zn211 2.039 . S
C221 O226 1.246 . S
C221 O227 1.249 . S
O222 C204 1.254 . S
O222 Zn219 2.025 . S
H223 C215 0.952 . S
H224 C206 0.952 . S
H225 C214 0.948 . S
O226 Zn211 2.034 . S
O226 C221 1.246 . S
O227 Zn219 2.024 . S
O227 C221 1.249 . S
H228 C210 0.948 . S
O229 Zn219 2.039 . S
O229 C233 1.251 . S
O230 Zn211 2.025 . S
O230 C233 1.254 . S
O231 C212 1.246 . S
O231 Zn219 2.034 . S
O232 Zn211 2.024 . S
O232 C212 1.249 . S
C233 O229 1.251 . S
C233 O230 1.254 . S
H234 C207 0.949 . S
H235 C209 0.950 . S
H236 C216 0.949 . S
H237 C218 0.950 . S
C238 O254 1.251 . S
C238 O256 1.254 . S
N239 C240 1.333 . S
N239 C244 1.307 . S
N239 Zn245 2.020 . S
C240 N239 1.333 . S
C240 C241 1.379 . S
C240 H258 0.952 . S
C241 C240 1.379 . S
C241 C242 1.390 . S
C241 H268 0.949 . S
C242 C241 1.390 . S
C242 C243 1.357 . S
C243 C242 1.357 . S
C243 C244 1.370 . S
C243 H269 0.950 . S
C244 N239 1.307 . S
C244 C243 1.370 . S
C244 H262 0.948 . S
Zn245 N239 2.020 . S
Zn245 O254 2.039 . S
Zn245 O260 2.034 . S
Zn245 O264 2.025 . S
Zn245 O266 2.024 . S
C246 O265 1.246 . S
C246 O266 1.249 . S
N247 C248 1.307 . S
N247 C249 1.333 . S
N247 Zn253 2.020 . S
C248 N247 1.307 . S
C248 C252 1.370 . S
C248 H259 0.948 . S
C249 N247 1.333 . S
C249 C250 1.379 . S
C249 H257 0.952 . S
C250 C249 1.379 . S
C250 C251 1.390 . S
C250 H270 0.949 . S
C251 C250 1.390 . S
C251 C252 1.357 . S
C252 C248 1.370 . S
C252 C251 1.357 . S
C252 H271 0.950 . S
Zn253 N247 2.020 . S
Zn253 O256 2.025 . S
Zn253 O261 2.024 . S
Zn253 O263 2.039 . S
Zn253 O265 2.034 . S
O254 C238 1.251 . S
O254 Zn245 2.039 . S
C255 O260 1.246 . S
C255 O261 1.249 . S
O256 C238 1.254 . S
O256 Zn253 2.025 . S
H257 C249 0.952 . S
H258 C240 0.952 . S
H259 C248 0.948 . S
O260 Zn245 2.034 . S
O260 C255 1.246 . S
O261 Zn253 2.024 . S
O261 C255 1.249 . S
H262 C244 0.948 . S
O263 Zn253 2.039 . S
O263 C267 1.251 . S
O264 Zn245 2.025 . S
O264 C267 1.254 . S
O265 C246 1.246 . S
O265 Zn253 2.034 . S
O266 Zn245 2.024 . S
O266 C246 1.249 . S
C267 O263 1.251 . S
C267 O264 1.254 . S
H268 C241 0.949 . S
H269 C243 0.950 . S
H270 C250 0.949 . S
H271 C252 0.950 . S
C272 O288 1.251 . S
C272 O290 1.254 . S
N273 C274 1.333 . S
N273 C278 1.307 . S
N273 Zn279 2.020 . S
C274 N273 1.333 . S
C274 C275 1.379 . S
C274 H292 0.952 . S
C275 C274 1.379 . S
C275 C276 1.390 . S
C275 H302 0.949 . S
C276 C275 1.390 . S
C276 C277 1.357 . S
C277 C276 1.357 . S
C277 C278 1.370 . S
C277 H303 0.950 . S
C278 N273 1.307 . S
C278 C277 1.370 . S
C278 H296 0.948 . S
Zn279 N273 2.020 . S
Zn279 O288 2.039 . S
Zn279 O294 2.034 . S
Zn279 O298 2.025 . S
Zn279 O300 2.024 . S
C280 O299 1.246 . S
C280 O300 1.249 . S
N281 C282 1.307 . S
N281 C283 1.333 . S
N281 Zn287 2.020 . S
C282 N281 1.307 . S
C282 C286 1.370 . S
C282 H293 0.948 . S
C283 N281 1.333 . S
C283 C284 1.379 . S
C283 H291 0.952 . S
C284 C283 1.379 . S
C284 C285 1.390 . S
C284 H304 0.949 . S
C285 C284 1.390 . S
C285 C286 1.357 . S
C286 C282 1.370 . S
C286 C285 1.357 . S
C286 H305 0.950 . S
Zn287 N281 2.020 . S
Zn287 O290 2.025 . S
Zn287 O295 2.024 . S
Zn287 O297 2.039 . S
Zn287 O299 2.034 . S
O288 C272 1.251 . S
O288 Zn279 2.039 . S
C289 O294 1.246 . S
C289 O295 1.249 . S
O290 C272 1.254 . S
O290 Zn287 2.025 . S
H291 C283 0.952 . S
H292 C274 0.952 . S
H293 C282 0.948 . S
O294 Zn279 2.034 . S
O294 C289 1.246 . S
O295 Zn287 2.024 . S
O295 C289 1.249 . S
H296 C278 0.948 . S
O297 Zn287 2.039 . S
O297 C301 1.251 . S
O298 Zn279 2.025 . S
O298 C301 1.254 . S
O299 C280 1.246 . S
O299 Zn287 2.034 . S
O300 Zn279 2.024 . S
O300 C280 1.249 . S
C301 O297 1.251 . S
C301 O298 1.254 . S
H302 C275 0.949 . S
H303 C277 0.950 . S
H304 C284 0.949 . S
H305 C286 0.950 . S
C306 O322 1.251 1_565 S
C306 O324 1.254 . S
N307 C308 1.333 . S
N307 C312 1.307 . S
N307 Zn313 2.020 . S
C308 N307 1.333 . S
C308 C309 1.379 . S
C308 H326 0.952 . S
C309 C308 1.379 . S
C309 C310 1.390 . S
C309 H336 0.949 . S
C310 C309 1.390 . S
C310 C311 1.357 . S
C311 C310 1.357 . S
C311 C312 1.370 . S
C311 H337 0.950 . S
C312 N307 1.307 . S
C312 C311 1.370 . S
C312 H330 0.948 . S
Zn313 N307 2.020 . S
Zn313 O322 2.039 . S
Zn313 O328 2.034 . S
Zn313 O332 2.025 . S
Zn313 O334 2.024 . S
C314 O333 1.246 . S
C314 O334 1.249 . S
N315 C316 1.307 1_545 S
N315 C317 1.333 . S
N315 Zn321 2.020 . S
C316 N315 1.307 1_565 S
C316 C320 1.370 . S
C316 H327 0.948 . S
C317 N315 1.333 . S
C317 C318 1.379 . S
C317 H325 0.952 . S
C318 C317 1.379 . S
C318 C319 1.390 1_545 S
C318 H338 0.949 . S
C319 C318 1.390 1_565 S
C319 C320 1.357 . S
C320 C316 1.370 . S
C320 C319 1.357 . S
C320 H339 0.950 . S
Zn321 N315 2.020 . S
Zn321 O324 2.025 1_545 S
Zn321 O329 2.024 . S
Zn321 O331 2.039 . S
Zn321 O333 2.034 . S
O322 C306 1.251 1_545 S
O322 Zn313 2.039 . S
C323 O328 1.246 . S
C323 O329 1.249 . S
O324 C306 1.254 . S
O324 Zn321 2.025 1_565 S
H325 C317 0.952 . S
H326 C308 0.952 . S
H327 C316 0.948 . S
O328 Zn313 2.034 . S
O328 C323 1.246 . S
O329 Zn321 2.024 . S
O329 C323 1.249 . S
H330 C312 0.948 . S
O331 Zn321 2.039 . S
O331 C335 1.251 . S
O332 Zn313 2.025 . S
O332 C335 1.254 . S
O333 C314 1.246 . S
O333 Zn321 2.034 . S
O334 Zn313 2.024 . S
O334 C314 1.249 . S
C335 O331 1.251 . S
C335 O332 1.254 . S
H336 C309 0.949 . S
H337 C311 0.950 . S
H338 C318 0.949 . S
H339 C320 0.950 . S
C340 O356 1.251 . S
C340 O358 1.254 . S
N341 C342 1.333 . S
N341 C346 1.307 . S
N341 Zn347 2.020 . S
C342 N341 1.333 . S
C342 C343 1.379 . S
C342 H360 0.952 . S
C343 C342 1.379 . S
C343 C344 1.390 . S
C343 H370 0.949 . S
C344 C343 1.390 . S
C344 C345 1.357 . S
C345 C344 1.357 . S
C345 C346 1.370 . S
C345 H371 0.950 . S
C346 N341 1.307 . S
C346 C345 1.370 . S
C346 H364 0.948 . S
Zn347 N341 2.020 . S
Zn347 O356 2.039 . S
Zn347 O362 2.034 . S
Zn347 O366 2.025 . S
Zn347 O368 2.024 . S
C348 O367 1.246 . S
C348 O368 1.249 . S
N349 C350 1.307 . S
N349 C351 1.333 . S
N349 Zn355 2.020 . S
C350 N349 1.307 . S
C350 C354 1.370 . S
C350 H361 0.948 . S
C351 N349 1.333 . S
C351 C352 1.379 . S
C351 H359 0.952 . S
C352 C351 1.379 . S
C352 C353 1.390 . S
C352 H372 0.949 . S
C353 C352 1.390 . S
C353 C354 1.357 . S
C354 C350 1.370 . S
C354 C353 1.357 . S
C354 H373 0.950 . S
Zn355 N349 2.020 . S
Zn355 O358 2.025 . S
Zn355 O363 2.024 . S
Zn355 O365 2.039 . S
Zn355 O367 2.034 . S
O356 C340 1.251 . S
O356 Zn347 2.039 . S
C357 O362 1.246 . S
C357 O363 1.249 . S
O358 C340 1.254 . S
O358 Zn355 2.025 . S
H359 C351 0.952 . S
H360 C342 0.952 . S
H361 C350 0.948 . S
O362 Zn347 2.034 . S
O362 C357 1.246 . S
O363 Zn355 2.024 . S
O363 C357 1.249 . S
H364 C346 0.948 . S
O365 Zn355 2.039 . S
O365 C369 1.251 . S
O366 Zn347 2.025 . S
O366 C369 1.254 . S
O367 C348 1.246 . S
O367 Zn355 2.034 . S
O368 Zn347 2.024 . S
O368 C348 1.249 . S
C369 O365 1.251 . S
C369 O366 1.254 . S
H370 C343 0.949 . S
H371 C345 0.950 . S
H372 C352 0.949 . S
H373 C354 0.950 . S
C374 O390 1.251 . S
C374 O392 1.254 . S
N375 C376 1.333 . S
N375 C380 1.307 . S
N375 Zn381 2.020 . S
C376 N375 1.333 . S
C376 C377 1.379 . S
C376 H394 0.952 . S
C377 C376 1.379 . S
C377 C378 1.390 . S
C377 H404 0.949 . S
C378 C377 1.390 . S
C378 C379 1.357 . S
C379 C378 1.357 . S
C379 C380 1.370 . S
C379 H405 0.950 . S
C380 N375 1.307 . S
C380 C379 1.370 . S
C380 H398 0.948 . S
Zn381 N375 2.020 . S
Zn381 O390 2.039 . S
Zn381 O396 2.034 . S
Zn381 O400 2.025 . S
Zn381 O402 2.024 . S
C382 O401 1.246 . S
C382 O402 1.249 . S
N383 C384 1.307 . S
N383 C385 1.333 . S
N383 Zn389 2.020 . S
C384 N383 1.307 . S
C384 C388 1.370 . S
C384 H395 0.948 . S
C385 N383 1.333 . S
C385 C386 1.379 . S
C385 H393 0.952 . S
C386 C385 1.379 . S
C386 C387 1.390 . S
C386 H406 0.949 . S
C387 C386 1.390 . S
C387 C388 1.357 . S
C388 C384 1.370 . S
C388 C387 1.357 . S
C388 H407 0.950 . S
Zn389 N383 2.020 . S
Zn389 O392 2.025 . S
Zn389 O397 2.024 . S
Zn389 O399 2.039 . S
Zn389 O401 2.034 . S
O390 C374 1.251 . S
O390 Zn381 2.039 . S
C391 O396 1.246 . S
C391 O397 1.249 . S
O392 C374 1.254 . S
O392 Zn389 2.025 . S
H393 C385 0.952 . S
H394 C376 0.952 . S
H395 C384 0.948 . S
O396 Zn381 2.034 . S
O396 C391 1.246 . S
O397 Zn389 2.024 . S
O397 C391 1.249 . S
H398 C380 0.948 . S
O399 Zn389 2.039 . S
O399 C403 1.251 . S
O400 Zn381 2.025 . S
O400 C403 1.254 . S
O401 C382 1.246 . S
O401 Zn389 2.034 . S
O402 Zn381 2.024 . S
O402 C382 1.249 . S
C403 O399 1.251 . S
C403 O400 1.254 . S
H404 C377 0.949 . S
H405 C379 0.950 . S
H406 C386 0.949 . S
H407 C388 0.950 . S
C408 C409 1.349 . S
C408 C410 1.327 . S
C408 H433 0.950 . S
C409 C408 1.349 . S
C409 C425 1.349 . S
C410 C408 1.327 . S
C410 C429 1.429 . S
C410 H434 0.950 . S
C411 C428 1.574 . S
C411 C430 1.368 . S
C411 H435 0.949 . S
H412 C416 0.949 . S
C413 C414 1.349 . S
C413 C415 1.327 . S
C413 H436 0.950 . S
C414 C413 1.349 . S
C414 C426 1.349 . S
C415 C413 1.327 . S
C415 C431 1.429 . S
C415 H437 0.950 . S
C416 H412 0.949 . S
C416 C424 1.574 . S
C416 C432 1.368 . S
H417 C425 0.950 . S
H418 C423 0.950 . S
H419 C424 0.949 . S
H420 C426 0.950 . S
H421 C427 0.950 . S
H422 C428 0.949 . S
C423 H418 0.950 . S
C423 C425 1.327 . S
C423 C429 1.429 . S
C424 C416 1.574 . S
C424 H419 0.949 . S
C424 C430 1.368 . S
C425 C409 1.349 . S
C425 H417 0.950 . S
C425 C423 1.327 . S
C426 C414 1.349 . S
C426 H420 0.950 . S
C426 C427 1.327 . S
C427 H421 0.950 . S
C427 C426 1.327 . S
C427 C431 1.429 . S
C428 C411 1.574 . S
C428 H422 0.949 . S
C428 C432 1.368 . S
C429 C410 1.429 . S
C429 C423 1.429 . S
C429 C430 1.523 . S
C430 C411 1.368 . S
C430 C424 1.368 . S
C430 C429 1.523 . S
C431 C415 1.429 . S
C431 C427 1.429 . S
C431 C432 1.523 . S
C432 C416 1.368 . S
C432 C428 1.368 . S
C432 C431 1.523 . S
H433 C408 0.950 . S
H434 C410 0.950 . S
H435 C411 0.949 . S
H436 C413 0.950 . S
H437 C415 0.950 . S
C438 C439 1.349 . S
C438 C440 1.327 . S
C438 H463 0.950 . S
C439 C438 1.349 . S
C439 C455 1.351 . S
C440 C438 1.327 . S
C440 C459 1.429 . S
C440 H464 0.950 . S
C441 C458 1.574 . S
C441 C460 1.368 . S
C441 H465 0.949 1_565 S
H442 C446 0.949 . S
C443 C444 1.349 . S
C443 C445 1.327 . S
C443 H466 0.950 1_565 S
C444 C443 1.349 . S
C444 C456 1.349 . S
C445 C443 1.327 . S
C445 C461 1.429 . S
C445 H467 0.950 1_565 S
C446 H442 0.949 . S
C446 C454 1.574 . S
C446 C462 1.368 . S
H447 C455 0.948 1_545 S
H448 C453 0.950 1_545 S
H449 C454 0.949 . S
H450 C456 0.950 . S
H451 C457 0.950 . S
H452 C458 0.949 1_545 S
C453 H448 0.950 1_565 S
C453 C455 1.327 . S
C453 C459 1.429 . S
C454 C446 1.574 . S
C454 H449 0.949 . S
C454 C460 1.368 . S
C455 C439 1.351 . S
C455 H447 0.948 1_565 S
C455 C453 1.327 . S
C456 C444 1.349 . S
C456 H450 0.950 . S
C456 C457 1.327 . S
C457 H451 0.950 . S
C457 C456 1.327 . S
C457 C461 1.429 . S
C458 C441 1.574 . S
C458 H452 0.949 1_565 S
C458 C462 1.368 . S
C459 C440 1.429 . S
C459 C453 1.429 . S
C459 C460 1.523 . S
C460 C441 1.368 . S
C460 C454 1.368 . S
C460 C459 1.523 . S
C461 C445 1.429 . S
C461 C457 1.429 . S
C461 C462 1.523 . S
C462 C446 1.368 . S
C462 C458 1.368 . S
C462 C461 1.523 . S
H463 C438 0.950 . S
H464 C440 0.950 . S
H465 C441 0.949 1_545 S
H466 C443 0.950 1_545 S
H467 C445 0.950 1_545 S
C468 C469 1.349 . S
C468 C470 1.327 . S
C468 H493 0.950 . S
C469 C468 1.349 . S
C469 C485 1.349 1_554 S
C470 C468 1.327 . S
C470 C489 1.429 . S
C470 H494 0.950 . S
C471 C488 1.574 . S
C471 C490 1.368 . S
C471 H495 0.949 . S
H472 C476 0.949 . S
C473 C474 1.349 . S
C473 C475 1.327 . S
C473 H496 0.950 . S
C474 C473 1.349 . S
C474 C486 1.349 . S
C475 C473 1.327 . S
C475 C491 1.429 . S
C475 H497 0.950 . S
C476 H472 0.949 . S
C476 C484 1.574 . S
C476 C492 1.368 . S
H477 C485 0.950 . S
H478 C483 0.950 1_556 S
H479 C484 0.949 . S
H480 C486 0.950 . S
H481 C487 0.950 . S
H482 C488 0.949 . S
C483 H478 0.950 1_554 S
C483 C485 1.327 1_554 S
C483 C489 1.429 . S
C484 C476 1.574 . S
C484 H479 0.949 . S
C484 C490 1.368 . S
C485 C469 1.349 1_556 S
C485 H477 0.950 . S
C485 C483 1.327 1_556 S
C486 C474 1.349 . S
C486 H480 0.950 . S
C486 C487 1.327 . S
C487 H481 0.950 . S
C487 C486 1.327 . S
C487 C491 1.429 . S
C488 C471 1.574 . S
C488 H482 0.949 . S
C488 C492 1.368 . S
C489 C470 1.429 . S
C489 C483 1.429 . S
C489 C490 1.523 . S
C490 C471 1.368 . S
C490 C484 1.368 . S
C490 C489 1.523 . S
C491 C475 1.429 . S
C491 C487 1.429 . S
C491 C492 1.523 . S
C492 C476 1.368 . S
C492 C488 1.368 . S
C492 C491 1.523 . S
H493 C468 0.950 . S
H494 C470 0.950 . S
H495 C471 0.949 . S
H496 C473 0.950 . S
H497 C475 0.950 . S
C498 C499 1.349 . S
C498 C500 1.327 . S
C498 H523 0.950 . S
C499 C498 1.349 . S
C499 C515 1.349 1_545 S
C500 C498 1.327 . S
C500 C519 1.429 1_545 S
C500 H524 0.950 . S
C501 C518 1.574 . S
C501 C520 1.368 . S
C501 H525 0.949 . S
H502 C506 0.949 1_545 S
C503 C504 1.349 . S
C503 C505 1.327 . S
C503 H526 0.950 . S
C504 C503 1.349 . S
C504 C516 1.349 . S
C505 C503 1.327 . S
C505 C521 1.429 . S
C505 H527 0.950 . S
C506 H502 0.949 1_565 S
C506 C514 1.574 1_565 S
C506 C522 1.368 . S
H507 C515 0.950 . S
H508 C513 0.950 . S
H509 C514 0.949 . S
H510 C516 0.950 . S
H511 C517 0.950 . S
H512 C518 0.949 . S
C513 H508 0.950 . S
C513 C515 1.327 . S
C513 C519 1.429 . S
C514 C506 1.574 1_545 S
C514 H509 0.949 . S
C514 C520 1.368 1_545 S
C515 C499 1.349 1_565 S
C515 H507 0.950 . S
C515 C513 1.327 . S
C516 C504 1.349 . S
C516 H510 0.950 . S
C516 C517 1.327 . S
C517 H511 0.950 . S
C517 C516 1.327 . S
C517 C521 1.429 . S
C518 C501 1.574 . S
C518 H512 0.949 . S
C518 C522 1.368 . S
C519 C500 1.429 1_565 S
C519 C513 1.429 . S
C519 C520 1.523 . S
C520 C501 1.368 . S
C520 C514 1.368 1_565 S
C520 C519 1.523 . S
C521 C505 1.429 . S
C521 C517 1.429 . S
C521 C522 1.523 . S
C522 C506 1.368 . S
C522 C518 1.368 . S
C522 C521 1.523 . S
H523 C498 0.950 . S
H524 C500 0.950 . S
H525 C501 0.949 . S
H526 C503 0.950 . S
H527 C505 0.950 . S
C528 C529 1.349 . S
C528 C530 1.327 . S
C528 H553 0.950 . S
C529 C528 1.349 . S
C529 C545 1.349 . S
C530 C528 1.327 . S
C530 C549 1.429 . S
C530 H554 0.950 . S
C531 C548 1.574 . S
C531 C550 1.368 . S
C531 H555 0.949 . S
H532 C536 0.949 . S
C533 C534 1.349 . S
C533 C535 1.327 . S
C533 H556 0.950 . S
C534 C533 1.349 . S
C534 C546 1.349 . S
C535 C533 1.327 . S
C535 C551 1.429 1_565 S
C535 H557 0.950 . S
C536 H532 0.949 . S
C536 C544 1.574 . S
C536 C552 1.368 . S
H537 C545 0.950 . S
H538 C543 0.950 . S
H539 C544 0.949 . S
H540 C546 0.950 . S
H541 C547 0.953 . S
H542 C548 0.949 . S
C543 H538 0.950 . S
C543 C545 1.327 . S
C543 C549 1.429 . S
C544 C536 1.574 . S
C544 H539 0.949 . S
C544 C550 1.368 . S
C545 C529 1.349 . S
C545 H537 0.950 . S
C545 C543 1.327 . S
C546 C534 1.349 . S
C546 H540 0.950 . S
C546 C547 1.323 1_565 S
C547 H541 0.953 . S
C547 C546 1.323 1_545 S
C547 C551 1.429 . S
C548 C531 1.574 . S
C548 H542 0.949 . S
C548 C552 1.368 . S
C549 C530 1.429 . S
C549 C543 1.429 . S
C549 C550 1.523 . S
C550 C531 1.368 . S
C550 C544 1.368 . S
C550 C549 1.523 . S
C551 C535 1.429 1_545 S
C551 C547 1.429 . S
C551 C552 1.523 . S
C552 C536 1.368 . S
C552 C548 1.368 . S
C552 C551 1.523 . S
H553 C528 0.950 . S
H554 C530 0.950 . S
H555 C531 0.949 . S
H556 C533 0.950 . S
H557 C535 0.950 . S
C558 C559 1.349 1_455 S
C558 C560 1.327 . S
C558 H583 0.934 1_455 S
C559 C558 1.349 1_655 S
C559 C575 1.349 1_655 S
C560 C558 1.327 . S
C560 C579 1.429 . S
C560 H584 0.950 . S
C561 C578 1.574 . S
C561 C580 1.368 . S
C561 H585 0.949 . S
H562 C566 0.949 . S
C563 C564 1.349 . S
C563 C565 1.327 . S
C563 H586 0.950 . S
C564 C563 1.349 . S
C564 C576 1.349 . S
C565 C563 1.327 . S
C565 C581 1.429 . S
C565 H587 0.950 . S
C566 H562 0.949 . S
C566 C574 1.574 . S
C566 C582 1.368 . S
H567 C575 0.950 1_655 S
H568 C573 0.950 . S
H569 C574 0.949 . S
H570 C576 0.950 . S
H571 C577 0.950 . S
H572 C578 0.949 . S
C573 H568 0.950 . S
C573 C575 1.327 . S
C573 C579 1.429 . S
C574 C566 1.574 . S
C574 H569 0.949 . S
C574 C580 1.368 . S
C575 C559 1.349 1_455 S
C575 H567 0.950 1_455 S
C575 C573 1.327 . S
C576 C564 1.349 . S
C576 H570 0.950 . S
C576 C577 1.327 . S
C577 H571 0.950 . S
C577 C576 1.327 . S
C577 C581 1.429 . S
C578 C561 1.574 . S
C578 H572 0.949 . S
C578 C582 1.368 . S
C579 C560 1.429 . S
C579 C573 1.429 . S
C579 C580 1.523 . S
C580 C561 1.368 . S
C580 C574 1.368 . S
C580 C579 1.523 . S
C581 C565 1.429 . S
C581 C577 1.429 . S
C581 C582 1.523 . S
C582 C566 1.368 . S
C582 C578 1.368 . S
C582 C581 1.523 . S
H583 C558 0.934 1_655 S
H584 C560 0.950 . S
H585 C561 0.949 . S
H586 C563 0.950 . S
H587 C565 0.950 . S
C588 C589 1.349 . S
C588 C590 1.327 . S
C588 H613 0.950 . S
C589 C588 1.349 . S
C589 C605 1.349 . S
C590 C588 1.327 . S
C590 C609 1.429 . S
C590 H614 0.950 . S
C591 C608 1.574 . S
C591 C610 1.368 . S
C591 H615 0.949 . S
H592 C596 0.949 . S
C593 C594 1.349 1_554 S
C593 C595 1.327 1_554 S
C593 H616 0.950 . S
C594 C593 1.349 1_556 S
C594 C606 1.349 . S
C595 C593 1.327 1_556 S
C595 C611 1.429 . S
C595 H617 0.950 1_556 S
C596 H592 0.949 . S
C596 C604 1.574 . S
C596 C612 1.368 . S
H597 C605 0.950 . S
H598 C603 0.950 . S
H599 C604 0.949 . S
H600 C606 0.950 . S
H601 C607 0.950 . S
H602 C608 0.977 . S
C603 H598 0.950 . S
C603 C605 1.327 . S
C603 C609 1.429 . S
C604 C596 1.574 . S
C604 H599 0.949 . S
C604 C610 1.368 . S
C605 C589 1.349 . S
C605 H597 0.950 . S
C605 C603 1.327 . S
C606 C594 1.349 . S
C606 H600 0.950 . S
C606 C607 1.327 . S
C607 H601 0.950 . S
C607 C606 1.327 . S
C607 C611 1.429 . S
C608 C591 1.574 . S
C608 H602 0.977 . S
C608 C612 1.368 . S
C609 C590 1.429 . S
C609 C603 1.429 . S
C609 C610 1.523 . S
C610 C591 1.368 . S
C610 C604 1.368 . S
C610 C609 1.523 . S
C611 C595 1.429 . S
C611 C607 1.429 . S
C611 C612 1.523 . S
C612 C596 1.368 . S
C612 C608 1.368 . S
C612 C611 1.523 . S
H613 C588 0.950 . S
H614 C590 0.950 . S
H615 C591 0.949 . S
H616 C593 0.950 . S
H617 C595 0.950 1_554 S
C618 C619 1.349 . S
C618 C620 1.327 . S
C618 H643 0.950 . S
C619 C618 1.349 . S
C619 C635 1.349 . S
C620 C618 1.327 . S
C620 C639 1.429 . S
C620 H644 0.950 . S
C621 C638 1.574 . S
C621 C640 1.368 . S
C621 H645 0.949 . S
H622 C626 0.949 . S
C623 C624 1.349 . S
C623 C625 1.327 . S
C623 H646 0.950 . S
C624 C623 1.349 . S
C624 C636 1.349 . S
C625 C623 1.327 . S
C625 C641 1.429 . S
C625 H647 0.950 . S
C626 H622 0.949 . S
C626 C634 1.574 . S
C626 C642 1.368 . S
H627 C635 0.950 . S
H628 C633 0.950 . S
H629 C634 0.949 . S
H630 C636 0.950 . S
H631 C637 0.950 . S
H632 C638 0.949 . S
C633 H628 0.950 . S
C633 C635 1.327 . S
C633 C639 1.429 . S
C634 C626 1.574 . S
C634 H629 0.949 . S
C634 C640 1.368 . S
C635 C619 1.349 . S
C635 H627 0.950 . S
C635 C633 1.327 . S
C636 C624 1.349 . S
C636 H630 0.950 . S
C636 C637 1.327 . S
C637 H631 0.950 . S
C637 C636 1.327 . S
C637 C641 1.429 . S
C638 C621 1.574 . S
C638 H632 0.949 . S
C638 C642 1.368 . S
C639 C620 1.429 . S
C639 C633 1.429 . S
C639 C640 1.523 . S
C640 C621 1.368 . S
C640 C634 1.368 . S
C640 C639 1.523 . S
C641 C625 1.429 . S
C641 C637 1.429 . S
C641 C642 1.523 . S
C642 C626 1.368 . S
C642 C638 1.368 . S
C642 C641 1.523 . S
H643 C618 0.950 . S
H644 C620 0.950 . S
H645 C621 0.949 . S
H646 C623 0.950 . S
H647 C625 0.950 . S
C648 C649 1.349 . S
C648 C650 1.327 . S
C648 H673 0.950 . S
C649 C648 1.349 . S
C649 C665 1.349 . S
C650 C648 1.327 . S
C650 C669 1.429 . S
C650 H674 0.950 . S
C651 C668 1.574 . S
C651 C670 1.368 . S
C651 H675 0.949 . S
H652 C656 0.949 . S
C653 C654 1.349 . S
C653 C655 1.327 . S
C653 H676 0.950 . S
C654 C653 1.349 . S
C654 C666 1.349 . S
C655 C653 1.327 . S
C655 C671 1.429 . S
C655 H677 0.950 . S
C656 H652 0.949 . S
C656 C664 1.574 . S
C656 C672 1.368 . S
H657 C665 0.950 . S
H658 C663 0.950 . S
H659 C664 0.949 . S
H660 C666 0.950 . S
H661 C667 0.950 . S
H662 C668 0.949 . S
C663 H658 0.950 . S
C663 C665 1.327 . S
C663 C669 1.429 . S
C664 C656 1.574 . S
C664 H659 0.949 . S
C664 C670 1.368 . S
C665 C649 1.349 . S
C665 H657 0.950 . S
C665 C663 1.327 . S
C666 C654 1.349 . S
C666 H660 0.950 . S
C666 C667 1.327 . S
C667 H661 0.950 . S
C667 C666 1.327 . S
C667 C671 1.429 . S
C668 C651 1.574 . S
C668 H662 0.949 . S
C668 C672 1.368 . S
C669 C650 1.429 . S
C669 C663 1.429 . S
C669 C670 1.523 . S
C670 C651 1.368 . S
C670 C664 1.368 . S
C670 C669 1.523 . S
C671 C655 1.429 . S
C671 C667 1.429 . S
C671 C672 1.523 . S
C672 C656 1.368 . S
C672 C668 1.368 . S
C672 C671 1.523 . S
H673 C648 0.950 . S
H674 C650 0.950 . S
H675 C651 0.949 . S
H676 C653 0.950 . S
H677 C655 0.950 . S
C678 C679 1.349 . S
C678 C680 1.327 . S
C678 H703 0.950 . S
C679 C678 1.349 . S
C679 C695 1.349 . S
C680 C678 1.327 . S
C680 C699 1.429 . S
C680 H704 0.950 . S
C681 C698 1.574 1_455 S
C681 C700 1.368 . S
C681 H705 0.949 . S
H682 C686 0.949 . S
C683 C684 1.349 . S
C683 C685 1.327 . S
C683 H706 0.950 . S
C684 C683 1.349 . S
C684 C696 1.349 . S
C685 C683 1.327 . S
C685 C701 1.429 . S
C685 H707 0.950 . S
C686 H682 0.949 . S
C686 C694 1.574 . S
C686 C702 1.368 . S
H687 C695 0.950 . S
H688 C693 0.950 . S
H689 C694 0.949 . S
H690 C696 0.950 . S
H691 C697 0.950 . S
H692 C698 0.949 . S
C693 H688 0.950 . S
C693 C695 1.327 . S
C693 C699 1.429 . S
C694 C686 1.574 . S
C694 H689 0.949 . S
C694 C700 1.368 1_655 S
C695 C679 1.349 . S
C695 H687 0.950 . S
C695 C693 1.327 . S
C696 C684 1.349 . S
C696 H690 0.950 . S
C696 C697 1.327 . S
C697 H691 0.950 . S
C697 C696 1.327 . S
C697 C701 1.429 . S
C698 C681 1.574 1_655 S
C698 H692 0.949 . S
C698 C702 1.368 . S
C699 C680 1.429 . S
C699 C693 1.429 . S
C699 C700 1.523 . S
C700 C681 1.368 . S
C700 C694 1.368 1_455 S
C700 C699 1.523 . S
C701 C685 1.429 . S
C701 C697 1.429 . S
C701 C702 1.523 . S
C702 C686 1.368 . S
C702 C698 1.368 . S
C702 C701 1.523 . S
H703 C678 0.950 . S
H704 C680 0.950 . S
H705 C681 0.949 . S
H706 C683 0.950 . S
H707 C685 0.950 . S
C708 C709 1.349 . S
C708 C710 1.327 . S
C708 H733 0.950 . S
C709 C708 1.349 . S
C709 C725 1.349 1_655 S
C710 C708 1.327 . S
C710 C729 1.429 . S
C710 H734 0.950 . S
C711 C728 1.574 . S
C711 C730 1.368 . S
C711 H735 0.949 . S
H712 C716 0.949 . S
C713 C714 1.349 . S
C713 C715 1.327 . S
C713 H736 0.950 . S
C714 C713 1.349 . S
C714 C726 1.349 . S
C715 C713 1.327 . S
C715 C731 1.429 . S
C715 H737 0.950 . S
C716 H712 0.949 . S
C716 C724 1.574 . S
C716 C732 1.368 . S
H717 C725 0.950 . S
H718 C723 0.950 . S
H719 C724 0.949 . S
H720 C726 0.950 . S
H721 C727 0.950 . S
H722 C728 0.949 . S
C723 H718 0.950 . S
C723 C725 1.327 1_655 S
C723 C729 1.429 . S
C724 C716 1.574 . S
C724 H719 0.949 . S
C724 C730 1.368 . S
C725 C709 1.349 1_455 S
C725 H717 0.950 . S
C725 C723 1.327 1_455 S
C726 C714 1.349 . S
C726 H720 0.950 . S
C726 C727 1.327 . S
C727 H721 0.950 . S
C727 C726 1.327 . S
C727 C731 1.429 . S
C728 C711 1.574 . S
C728 H722 0.949 . S
C728 C732 1.368 . S
C729 C710 1.429 . S
C729 C723 1.429 . S
C729 C730 1.523 . S
C730 C711 1.368 . S
C730 C724 1.368 . S
C730 C729 1.523 . S
C731 C715 1.429 . S
C731 C727 1.429 . S
C731 C732 1.523 . S
C732 C716 1.368 . S
C732 C728 1.368 . S
C732 C731 1.523 . S
H733 C708 0.950 . S
H734 C710 0.950 . S
H735 C711 0.949 . S
H736 C713 0.950 . S
H737 C715 0.950 . S
C738 C739 1.349 . S
C738 C740 1.327 . S
C738 H763 0.950 . S
C739 C738 1.349 . S
C739 C755 1.349 . S
C740 C738 1.327 . S
C740 C759 1.429 . S
C740 H764 0.950 . S
C741 C758 1.574 . S
C741 C760 1.368 . S
C741 H765 0.949 . S
H742 C746 0.949 . S
C743 C744 1.349 . S
C743 C745 1.327 . S
C743 H766 0.950 . S
C744 C743 1.349 . S
C744 C756 1.349 . S
C745 C743 1.327 . S
C745 C761 1.429 . S
C745 H767 0.950 . S
C746 H742 0.949 . S
C746 C754 1.574 . S
C746 C762 1.368 . S
H747 C755 0.950 . S
H748 C753 0.950 . S
H749 C754 0.949 . S
H750 C756 0.950 . S
H751 C757 0.950 . S
H752 C758 0.949 . S
C753 H748 0.950 . S
C753 C755 1.327 . S
C753 C759 1.429 . S
C754 C746 1.574 . S
C754 H749 0.949 . S
C754 C760 1.368 . S
C755 C739 1.349 . S
C755 H747 0.950 . S
C755 C753 1.327 . S
C756 C744 1.349 . S
C756 H750 0.950 . S
C756 C757 1.327 . S
C757 H751 0.950 . S
C757 C756 1.327 . S
C757 C761 1.429 . S
C758 C741 1.574 . S
C758 H752 0.949 . S
C758 C762 1.368 . S
C759 C740 1.429 . S
C759 C753 1.429 . S
C759 C760 1.523 . S
C760 C741 1.368 . S
C760 C754 1.368 . S
C760 C759 1.523 . S
C761 C745 1.429 . S
C761 C757 1.429 . S
C761 C762 1.523 . S
C762 C746 1.368 . S
C762 C758 1.368 . S
C762 C761 1.523 . S
H763 C738 0.950 . S
H764 C740 0.950 . S
H765 C741 0.949 . S
H766 C743 0.950 . S
H767 C745 0.950 . S
C768 C769 1.349 . S
C768 C770 1.327 . S
C768 H793 0.950 . S
C769 C768 1.349 . S
C769 C785 1.349 . S
C770 C768 1.327 . S
C770 C789 1.429 . S
C770 H794 0.950 . S
C771 C788 1.574 . S
C771 C790 1.368 . S
C771 H795 0.949 . S
H772 C776 0.949 . S
C773 C774 1.349 . S
C773 C775 1.327 . S
C773 H796 0.950 . S
C774 C773 1.349 . S
C774 C786 1.349 . S
C775 C773 1.327 . S
C775 C791 1.429 . S
C775 H797 0.950 . S
C776 H772 0.949 . S
C776 C784 1.574 . S
C776 C792 1.368 . S
H777 C785 0.950 . S
H778 C783 0.950 . S
H779 C784 0.949 . S
H780 C786 0.950 . S
H781 C787 0.950 . S
H782 C788 0.949 . S
C783 H778 0.950 . S
C783 C785 1.327 . S
C783 C789 1.429 . S
C784 C776 1.574 . S
C784 H779 0.949 . S
C784 C790 1.368 . S
C785 C769 1.349 . S
C785 H777 0.950 . S
C785 C783 1.327 . S
C786 C774 1.349 . S
C786 H780 0.950 . S
C786 C787 1.327 . S
C787 H781 0.950 . S
C787 C786 1.327 . S
C787 C791 1.429 . S
C788 C771 1.574 . S
C788 H782 0.949 . S
C788 C792 1.368 . S
C789 C770 1.429 . S
C789 C783 1.429 . S
C789 C790 1.523 . S
C790 C771 1.368 . S
C790 C784 1.368 . S
C790 C789 1.523 . S
C791 C775 1.429 . S
C791 C787 1.429 . S
C791 C792 1.523 . S
C792 C776 1.368 . S
C792 C788 1.368 . S
C792 C791 1.523 . S
H793 C768 0.950 . S
H794 C770 0.950 . S
H795 C771 0.949 . S
H796 C773 0.950 . S
H797 C775 0.950 . S
C798 C799 1.349 1_455 S
C798 C800 1.327 1_455 S
C798 H823 0.950 . S
C799 C798 1.349 1_655 S
C799 C815 1.349 . S
C800 C798 1.327 1_655 S
C800 C819 1.429 . S
C800 H824 0.950 . S
C801 C818 1.574 . S
C801 C820 1.368 . S
C801 H825 0.949 . S
H802 C806 0.949 . S
C803 C804 1.349 . S
C803 C805 1.327 . S
C803 H826 0.950 . S
C804 C803 1.349 . S
C804 C816 1.349 . S
C805 C803 1.327 . S
C805 C821 1.429 . S
C805 H827 0.950 . S
C806 H802 0.949 . S
C806 C814 1.574 . S
C806 C822 1.368 . S
H807 C815 0.950 . S
H808 C813 0.950 . S
H809 C814 0.949 . S
H810 C816 0.950 . S
H811 C817 0.950 . S
H812 C818 0.949 . S
C813 H808 0.950 . S
C813 C815 1.327 . S
C813 C819 1.429 . S
C814 C806 1.574 . S
C814 H809 0.949 . S
C814 C820 1.368 . S
C815 C799 1.349 . S
C815 H807 0.950 . S
C815 C813 1.327 . S
C816 C804 1.349 . S
C816 H810 0.950 . S
C816 C817 1.327 . S
C817 H811 0.950 . S
C817 C816 1.327 . S
C817 C821 1.429 . S
C818 C801 1.574 . S
C818 H812 0.949 . S
C818 C822 1.368 . S
C819 C800 1.429 . S
C819 C813 1.429 . S
C819 C820 1.523 . S
C820 C801 1.368 . S
C820 C814 1.368 . S
C820 C819 1.523 . S
C821 C805 1.429 . S
C821 C817 1.429 . S
C821 C822 1.523 . S
C822 C806 1.368 . S
C822 C818 1.368 . S
C822 C821 1.523 . S
H823 C798 0.950 . S
H824 C800 0.950 . S
H825 C801 0.949 . S
H826 C803 0.950 . S
H827 C805 0.950 . S
C828 C829 1.349 . S
C828 C830 1.327 . S
C828 H853 0.950 . S
C829 C828 1.349 . S
C829 C845 1.349 . S
C830 C828 1.327 . S
C830 C849 1.429 . S
C830 H854 0.950 . S
C831 C848 1.574 . S
C831 C850 1.368 . S
C831 H855 0.949 . S
H832 C836 0.949 . S
C833 C834 1.349 . S
C833 C835 1.327 . S
C833 H856 0.950 . S
C834 C833 1.349 . S
C834 C846 1.349 . S
C835 C833 1.327 . S
C835 C851 1.429 . S
C835 H857 0.950 . S
C836 H832 0.949 . S
C836 C844 1.574 . S
C836 C852 1.368 . S
H837 C845 0.950 . S
H838 C843 0.950 . S
H839 C844 0.949 . S
H840 C846 0.950 . S
H841 C847 0.950 . S
H842 C848 0.949 . S
C843 H838 0.950 . S
C843 C845 1.327 . S
C843 C849 1.429 . S
C844 C836 1.574 . S
C844 H839 0.949 . S
C844 C850 1.368 . S
C845 C829 1.349 . S
C845 H837 0.950 . S
C845 C843 1.327 . S
C846 C834 1.349 . S
C846 H840 0.950 . S
C846 C847 1.327 . S
C847 H841 0.950 . S
C847 C846 1.327 . S
C847 C851 1.429 . S
C848 C831 1.574 . S
C848 H842 0.949 . S
C848 C852 1.368 . S
C849 C830 1.429 . S
C849 C843 1.429 . S
C849 C850 1.523 . S
C850 C831 1.368 . S
C850 C844 1.368 . S
C850 C849 1.523 . S
C851 C835 1.429 . S
C851 C847 1.429 . S
C851 C852 1.523 . S
C852 C836 1.368 . S
C852 C848 1.368 . S
C852 C851 1.523 . S
H853 C828 0.950 . S
H854 C830 0.950 . S
H855 C831 0.949 . S
H856 C833 0.950 . S
H857 C835 0.950 . S
C858 C859 1.349 . S
C858 C860 1.327 . S
C858 H883 0.950 . S
C859 C858 1.349 . S
C859 C875 1.349 . S
C860 C858 1.327 . S
C860 C879 1.429 . S
C860 H884 0.950 . S
C861 C878 1.574 . S
C861 C880 1.368 . S
C861 H885 0.949 . S
H862 C866 0.949 . S
C863 C864 1.349 . S
C863 C865 1.327 1_556 S
C863 H886 0.950 . S
C864 C863 1.349 . S
C864 C876 1.349 . S
C865 C863 1.327 1_554 S
C865 C881 1.429 . S
C865 H887 0.950 . S
C866 H862 0.949 . S
C866 C874 1.574 . S
C866 C882 1.368 . S
H867 C875 0.950 . S
H868 C873 0.950 . S
H869 C874 0.949 . S
H870 C876 0.950 . S
H871 C877 0.950 . S
H872 C878 0.949 . S
C873 H868 0.950 . S
C873 C875 1.327 . S
C873 C879 1.429 . S
C874 C866 1.574 . S
C874 H869 0.949 . S
C874 C880 1.368 . S
C875 C859 1.349 . S
C875 H867 0.950 . S
C875 C873 1.327 . S
C876 C864 1.349 . S
C876 H870 0.950 . S
C876 C877 1.327 1_556 S
C877 H871 0.950 . S
C877 C876 1.327 1_554 S
C877 C881 1.429 . S
C878 C861 1.574 . S
C878 H872 0.949 . S
C878 C882 1.368 . S
C879 C860 1.429 . S
C879 C873 1.429 . S
C879 C880 1.523 . S
C880 C861 1.368 . S
C880 C874 1.368 . S
C880 C879 1.523 . S
C881 C865 1.429 . S
C881 C877 1.429 . S
C881 C882 1.523 . S
C882 C866 1.368 . S
C882 C878 1.368 . S
C882 C881 1.523 . S
H883 C858 0.950 . S
H884 C860 0.950 . S
H885 C861 0.949 . S
H886 C863 0.950 . S
H887 C865 0.950 . S
C888 C889 1.349 . S
C888 C890 1.327 . S
C888 H913 0.950 . S
C889 C888 1.349 . S
C889 C905 1.349 . S
C890 C888 1.327 . S
C890 C909 1.429 . S
C890 H914 0.950 . S
C891 C908 1.574 . S
C891 C910 1.368 . S
C891 H915 0.949 . S
H892 C896 0.949 . S
C893 C894 1.349 . S
C893 C895 1.327 . S
C893 H916 0.950 . S
C894 C893 1.349 . S
C894 C906 1.349 . S
C895 C893 1.327 . S
C895 C911 1.429 . S
C895 H917 0.950 . S
C896 H892 0.949 . S
C896 C904 1.574 . S
C896 C912 1.368 . S
H897 C905 0.950 . S
H898 C903 0.950 . S
H899 C904 0.949 . S
H900 C906 0.950 . S
H901 C907 0.950 . S
H902 C908 0.949 . S
C903 H898 0.950 . S
C903 C905 1.327 . S
C903 C909 1.429 . S
C904 C896 1.574 . S
C904 H899 0.949 . S
C904 C910 1.368 . S
C905 C889 1.349 . S
C905 H897 0.950 . S
C905 C903 1.327 . S
C906 C894 1.349 . S
C906 H900 0.950 . S
C906 C907 1.327 . S
C907 H901 0.950 . S
C907 C906 1.327 . S
C907 C911 1.429 . S
C908 C891 1.574 . S
C908 H902 0.949 . S
C908 C912 1.368 . S
C909 C890 1.429 . S
C909 C903 1.429 . S
C909 C910 1.523 . S
C910 C891 1.368 . S
C910 C904 1.368 . S
C910 C909 1.523 . S
C911 C895 1.429 . S
C911 C907 1.429 . S
C911 C912 1.523 . S
C912 C896 1.368 . S
C912 C908 1.368 . S
C912 C911 1.523 . S
H913 C888 0.950 . S
H914 C890 0.950 . S
H915 C891 0.949 . S
H916 C893 0.950 . S
H917 C895 0.950 . S
C918 C919 1.349 . S
C918 C920 1.327 . S
C918 H943 0.950 . S
C919 C918 1.349 . S
C919 C935 1.349 . S
C920 C918 1.327 . S
C920 C939 1.429 . S
C920 H944 0.950 . S
C921 C938 1.574 . S
C921 C940 1.368 . S
C921 H945 0.949 . S
H922 C926 0.949 . S
C923 C924 1.349 . S
C923 C925 1.327 . S
C923 H946 0.950 . S
C924 C923 1.349 . S
C924 C936 1.349 . S
C925 C923 1.327 . S
C925 C941 1.429 . S
C925 H947 0.950 . S
C926 H922 0.949 . S
C926 C934 1.574 1_655 S
C926 C942 1.368 . S
H927 C935 0.950 . S
H928 C933 0.950 1_556 S
H929 C934 0.984 . S
H930 C936 0.950 . S
H931 C937 0.950 . S
H932 C938 0.949 . S
C933 H928 0.950 1_554 S
C933 C935 1.327 . S
C933 C939 1.429 . S
C934 C926 1.574 1_455 S
C934 H929 0.984 . S
C934 C940 1.368 . S
C935 C919 1.349 . S
C935 H927 0.950 . S
C935 C933 1.327 . S
C936 C924 1.349 . S
C936 H930 0.950 . S
C936 C937 1.327 . S
C937 H931 0.950 . S
C937 C936 1.327 . S
C937 C941 1.429 . S
C938 C921 1.574 . S
C938 H932 0.949 . S
C938 C942 1.368 1_455 S
C939 C920 1.429 . S
C939 C933 1.429 . S
C939 C940 1.523 1_554 S
C940 C921 1.368 . S
C940 C934 1.368 . S
C940 C939 1.523 1_556 S
C941 C925 1.429 . S
C941 C937 1.429 . S
C941 C942 1.523 . S
C942 C926 1.368 . S
C942 C938 1.368 1_655 S
C942 C941 1.523 . S
H943 C918 0.950 . S
H944 C920 0.950 . S
H945 C921 0.949 . S
H946 C923 0.950 . S
H947 C925 0.950 . S
C948 C949 1.349 . S
C948 C950 1.327 . S
C948 H973 0.950 . S
C949 C948 1.349 . S
C949 C965 1.349 . S
C950 C948 1.327 . S
C950 C969 1.429 . S
C950 H974 0.950 . S
C951 C968 1.574 . S
C951 C970 1.368 . S
C951 H975 0.949 . S
H952 C956 0.949 . S
C953 C954 1.349 . S
C953 C955 1.327 . S
C953 H976 0.950 . S
C954 C953 1.349 . S
C954 C966 1.349 . S
C955 C953 1.327 . S
C955 C971 1.429 . S
C955 H977 0.950 . S
C956 H952 0.949 . S
C956 C964 1.574 . S
C956 C972 1.368 . S
H957 C965 0.950 . S
H958 C963 0.950 . S
H959 C964 0.949 . S
H960 C966 0.950 . S
H961 C967 0.950 . S
H962 C968 0.949 . S
C963 H958 0.950 . S
C963 C965 1.327 . S
C963 C969 1.429 . S
C964 C956 1.574 . S
C964 H959 0.949 . S
C964 C970 1.368 . S
C965 C949 1.349 . S
C965 H957 0.950 . S
C965 C963 1.327 . S
C966 C954 1.349 . S
C966 H960 0.950 . S
C966 C967 1.327 . S
C967 H961 0.950 . S
C967 C966 1.327 . S
C967 C971 1.429 . S
C968 C951 1.574 . S
C968 H962 0.949 . S
C968 C972 1.368 . S
C969 C950 1.429 . S
C969 C963 1.429 . S
C969 C970 1.523 . S
C970 C951 1.368 . S
C970 C964 1.368 . S
C970 C969 1.523 . S
C971 C955 1.429 . S
C971 C967 1.429 . S
C971 C972 1.523 . S
C972 C956 1.368 . S
C972 C968 1.368 . S
C972 C971 1.523 . S
H973 C948 0.950 . S
H974 C950 0.950 . S
H975 C951 0.949 . S
H976 C953 0.950 . S
H977 C955 0.950 . S
C978 C979 1.349 . S
C978 C980 1.327 . S
C978 H1003 0.950 . S
C979 C978 1.349 . S
C979 C995 1.349 . S
C980 C978 1.327 . S
C980 C999 1.429 . S
C980 H1004 0.950 . S
C981 C998 1.574 . S
C981 C1000 1.368 . S
C981 H1005 0.949 . S
H982 C986 0.949 . S
C983 C984 1.349 . S
C983 C985 1.327 . S
C983 H1006 0.950 . S
C984 C983 1.349 . S
C984 C996 1.349 . S
C985 C983 1.327 . S
C985 C1001 1.429 . S
C985 H1007 0.950 . S
C986 H982 0.949 . S
C986 C994 1.574 . S
C986 C1002 1.368 . S
H987 C995 0.950 . S
H988 C993 0.950 . S
H989 C994 0.949 . S
H990 C996 0.950 . S
H991 C997 0.950 . S
H992 C998 0.949 . S
C993 H988 0.950 . S
C993 C995 1.327 . S
C993 C999 1.429 . S
C994 C986 1.574 . S
C994 H989 0.949 . S
C994 C1000 1.368 . S
C995 C979 1.349 . S
C995 H987 0.950 . S
C995 C993 1.327 . S
C996 C984 1.349 . S
C996 H990 0.950 . S
C996 C997 1.327 . S
C997 H991 0.950 . S
C997 C996 1.327 . S
C997 C1001 1.429 . S
C998 C981 1.574 . S
C998 H992 0.949 . S
C998 C1002 1.368 . S
C999 C980 1.429 . S
C999 C993 1.429 . S
C999 C1000 1.523 . S
C1000 C981 1.368 . S
C1000 C994 1.368 . S
C1000 C999 1.523 . S
C1001 C985 1.429 . S
C1001 C997 1.429 . S
C1001 C1002 1.523 . S
C1002 C986 1.368 . S
C1002 C998 1.368 . S
C1002 C1001 1.523 . S
H1003 C978 0.950 . S
H1004 C980 0.950 . S
H1005 C981 0.949 . S
H1006 C983 0.950 . S
H1007 C985 0.950 . S
C1008 C1009 1.349 . S
C1008 C1010 1.327 . S
C1008 H1033 0.950 . S
C1009 C1008 1.349 . S
C1009 C1025 1.349 . S
C1010 C1008 1.327 . S
C1010 C1029 1.429 . S
C1010 H1034 0.950 . S
C1011 C1028 1.574 . S
C1011 C1030 1.368 . S
C1011 H1035 0.949 . S
H1012 C1016 0.949 . S
C1013 C1014 1.349 . S
C1013 C1015 1.327 . S
C1013 H1036 0.950 . S
C1014 C1013 1.349 . S
C1014 C1026 1.349 . S
C1015 C1013 1.327 . S
C1015 C1031 1.429 . S
C1015 H1037 0.950 . S
C1016 H1012 0.949 . S
C1016 C1024 1.574 . S
C1016 C1032 1.368 . S
H1017 C1025 0.950 . S
H1018 C1023 0.950 . S
H1019 C1024 0.949 . S
H1020 C1026 0.950 . S
H1021 C1027 0.950 . S
H1022 C1028 0.949 . S
C1023 H1018 0.950 . S
C1023 C1025 1.327 . S
C1023 C1029 1.429 . S
C1024 C1016 1.574 . S
C1024 H1019 0.949 . S
C1024 C1030 1.368 . S
C1025 C1009 1.349 . S
C1025 H1017 0.950 . S
C1025 C1023 1.327 . S
C1026 C1014 1.349 . S
C1026 H1020 0.950 . S
C1026 C1027 1.327 . S
C1027 H1021 0.950 . S
C1027 C1026 1.327 . S
C1027 C1031 1.429 . S
C1028 C1011 1.574 . S
C1028 H1022 0.949 . S
C1028 C1032 1.368 . S
C1029 C1010 1.429 . S
C1029 C1023 1.429 . S
C1029 C1030 1.523 . S
C1030 C1011 1.368 . S
C1030 C1024 1.368 . S
C1030 C1029 1.523 . S
C1031 C1015 1.429 . S
C1031 C1027 1.429 . S
C1031 C1032 1.523 . S
C1032 C1016 1.368 . S
C1032 C1028 1.368 . S
C1032 C1031 1.523 . S
H1033 C1008 0.950 . S
H1034 C1010 0.950 . S
H1035 C1011 0.949 . S
H1036 C1013 0.950 . S
H1037 C1015 0.950 . S
C1038 C1039 1.349 . S
C1038 C1040 1.327 . S
C1038 H1063 0.950 . S
C1039 C1038 1.349 . S
C1039 C1055 1.349 . S
C1040 C1038 1.327 . S
C1040 C1059 1.429 . S
C1040 H1064 0.950 . S
C1041 C1058 1.574 . S
C1041 C1060 1.368 . S
C1041 H1065 0.949 . S
H1042 C1046 0.949 . S
C1043 C1044 1.349 . S
C1043 C1045 1.327 . S
C1043 H1066 0.950 . S
C1044 C1043 1.349 . S
C1044 C1056 1.349 . S
C1045 C1043 1.327 . S
C1045 C1061 1.429 . S
C1045 H1067 0.950 . S
C1046 H1042 0.949 . S
C1046 C1054 1.574 . S
C1046 C1062 1.368 . S
H1047 C1055 0.950 . S
H1048 C1053 0.950 . S
H1049 C1054 0.949 . S
H1050 C1056 0.950 . S
H1051 C1057 0.950 . S
H1052 C1058 0.949 . S
C1053 H1048 0.950 . S
C1053 C1055 1.327 . S
C1053 C1059 1.429 . S
C1054 C1046 1.574 . S
C1054 H1049 0.949 . S
C1054 C1060 1.368 . S
C1055 C1039 1.349 . S
C1055 H1047 0.950 . S
C1055 C1053 1.327 . S
C1056 C1044 1.349 . S
C1056 H1050 0.950 . S
C1056 C1057 1.327 . S
C1057 H1051 0.950 . S
C1057 C1056 1.327 . S
C1057 C1061 1.429 . S
C1058 C1041 1.574 . S
C1058 H1052 0.949 . S
C1058 C1062 1.368 . S
C1059 C1040 1.429 . S
C1059 C1053 1.429 . S
C1059 C1060 1.523 . S
C1060 C1041 1.368 . S
C1060 C1054 1.368 . S
C1060 C1059 1.523 . S
C1061 C1045 1.429 . S
C1061 C1057 1.429 . S
C1061 C1062 1.523 1_565 S
C1062 C1046 1.368 . S
C1062 C1058 1.368 . S
C1062 C1061 1.523 1_545 S
H1063 C1038 0.950 . S
H1064 C1040 0.950 . S
H1065 C1041 0.949 . S
H1066 C1043 0.950 . S
H1067 C1045 0.950 . S
C1068 C1069 1.349 . S
C1068 C1070 1.327 . S
C1068 H1093 0.950 . S
C1069 C1068 1.349 . S
C1069 C1085 1.349 . S
C1070 C1068 1.327 . S
C1070 C1089 1.429 . S
C1070 H1094 0.950 . S
C1071 C1088 1.574 . S
C1071 C1090 1.368 . S
C1071 H1095 0.949 . S
H1072 C1076 0.949 . S
C1073 C1074 1.349 . S
C1073 C1075 1.327 . S
C1073 H1096 0.950 . S
C1074 C1073 1.349 . S
C1074 C1086 1.349 . S
C1075 C1073 1.327 . S
C1075 C1091 1.429 . S
C1075 H1097 0.950 . S
C1076 H1072 0.949 . S
C1076 C1084 1.574 . S
C1076 C1092 1.368 . S
H1077 C1085 0.950 . S
H1078 C1083 0.950 . S
H1079 C1084 0.949 . S
H1080 C1086 0.950 . S
H1081 C1087 0.950 . S
H1082 C1088 0.949 . S
C1083 H1078 0.950 . S
C1083 C1085 1.327 . S
C1083 C1089 1.429 . S
C1084 C1076 1.574 . S
C1084 H1079 0.949 . S
C1084 C1090 1.368 . S
C1085 C1069 1.349 . S
C1085 H1077 0.950 . S
C1085 C1083 1.327 . S
C1086 C1074 1.349 . S
C1086 H1080 0.950 . S
C1086 C1087 1.327 . S
C1087 H1081 0.950 . S
C1087 C1086 1.327 . S
C1087 C1091 1.429 . S
C1088 C1071 1.574 . S
C1088 H1082 0.949 . S
C1088 C1092 1.368 . S
C1089 C1070 1.429 . S
C1089 C1083 1.429 . S
C1089 C1090 1.523 . S
C1090 C1071 1.368 . S
C1090 C1084 1.368 . S
C1090 C1089 1.523 . S
C1091 C1075 1.429 . S
C1091 C1087 1.429 . S
C1091 C1092 1.523 . S
C1092 C1076 1.368 . S
C1092 C1088 1.368 . S
C1092 C1091 1.523 . S
H1093 C1068 0.950 . S
H1094 C1070 0.950 . S
H1095 C1071 0.949 . S
H1096 C1073 0.950 . S
H1097 C1075 0.950 . S
C1098 C1099 1.349 . S
C1098 C1100 1.327 . S
C1098 H1123 0.950 . S
C1099 C1098 1.349 . S
C1099 C1115 1.349 . S
C1100 C1098 1.327 . S
C1100 C1119 1.429 . S
C1100 H1124 0.950 1_545 S
C1101 C1118 1.574 . S
C1101 C1120 1.368 . S
C1101 H1125 0.949 1_565 S
H1102 C1106 0.949 . S
C1103 C1104 1.349 . S
C1103 C1105 1.327 . S
C1103 H1126 0.950 . S
C1104 C1103 1.349 . S
C1104 C1116 1.349 . S
C1105 C1103 1.327 . S
C1105 C1121 1.429 . S
C1105 H1127 0.950 . S
C1106 H1102 0.949 . S
C1106 C1114 1.574 . S
C1106 C1122 1.368 . S
H1107 C1115 0.950 . S
H1108 C1113 0.950 . S
H1109 C1114 0.949 . S
H1110 C1116 0.950 . S
H1111 C1117 0.950 . S
H1112 C1118 0.949 . S
C1113 H1108 0.950 . S
C1113 C1115 1.327 . S
C1113 C1119 1.429 . S
C1114 C1106 1.574 . S
C1114 H1109 0.949 . S
C1114 C1120 1.368 . S
C1115 C1099 1.349 . S
C1115 H1107 0.950 . S
C1115 C1113 1.327 . S
C1116 C1104 1.349 . S
C1116 H1110 0.950 . S
C1116 C1117 1.327 . S
C1117 H1111 0.950 . S
C1117 C1116 1.327 . S
C1117 C1121 1.429 . S
C1118 C1101 1.574 . S
C1118 H1112 0.949 . S
C1118 C1122 1.368 . S
C1119 C1100 1.429 . S
C1119 C1113 1.429 . S
C1119 C1120 1.523 1_545 S
C1120 C1101 1.368 . S
C1120 C1114 1.368 . S
C1120 C1119 1.523 1_565 S
C1121 C1105 1.429 . S
C1121 C1117 1.429 . S
C1121 C1122 1.523 . S
C1122 C1106 1.368 . S
C1122 C1118 1.368 . S
C1122 C1121 1.523 . S
H1123 C1098 0.950 . S
H1124 C1100 0.950 1_565 S
H1125 C1101 0.949 1_545 S
H1126 C1103 0.950 . S
H1127 C1105 0.950 . S
C1128 C1129 1.349 . S
C1128 C1130 1.327 . S
C1128 H1153 0.950 . S
C1129 C1128 1.349 . S
C1129 C1145 1.349 . S
C1130 C1128 1.327 . S
C1130 C1149 1.429 . S
C1130 H1154 0.950 . S
C1131 C1148 1.574 . S
C1131 C1150 1.368 . S
C1131 H1155 0.949 . S
H1132 C1136 0.949 . S
C1133 C1134 1.349 . S
C1133 C1135 1.327 . S
C1133 H1156 0.950 . S
C1134 C1133 1.349 . S
C1134 C1146 1.349 . S
C1135 C1133 1.327 . S
C1135 C1151 1.429 . S
C1135 H1157 0.950 . S
C1136 H1132 0.949 . S
C1136 C1144 1.574 . S
C1136 C1152 1.368 . S
H1137 C1145 0.950 . S
H1138 C1143 0.950 . S
H1139 C1144 0.949 . S
H1140 C1146 0.950 . S
H1141 C1147 0.950 . S
H1142 C1148 0.949 . S
C1143 H1138 0.950 . S
C1143 C1145 1.327 . S
C1143 C1149 1.429 . S
C1144 C1136 1.574 . S
C1144 H1139 0.949 . S
C1144 C1150 1.368 . S
C1145 C1129 1.349 . S
C1145 H1137 0.950 . S
C1145 C1143 1.327 . S
C1146 C1134 1.349 . S
C1146 H1140 0.950 . S
C1146 C1147 1.327 . S
C1147 H1141 0.950 . S
C1147 C1146 1.327 . S
C1147 C1151 1.429 . S
C1148 C1131 1.574 . S
C1148 H1142 0.949 . S
C1148 C1152 1.368 . S
C1149 C1130 1.429 . S
C1149 C1143 1.429 . S
C1149 C1150 1.523 . S
C1150 C1131 1.368 . S
C1150 C1144 1.368 . S
C1150 C1149 1.523 . S
C1151 C1135 1.429 . S
C1151 C1147 1.429 . S
C1151 C1152 1.523 . S
C1152 C1136 1.368 . S
C1152 C1148 1.368 . S
C1152 C1151 1.523 . S
H1153 C1128 0.950 . S
H1154 C1130 0.950 . S
H1155 C1131 0.949 . S
H1156 C1133 0.950 . S
H1157 C1135 0.950 . S
C1158 C1159 1.349 . S
C1158 C1160 1.327 . S
C1158 H1183 0.950 . S
C1159 C1158 1.349 . S
C1159 C1175 1.349 . S
C1160 C1158 1.327 . S
C1160 C1179 1.429 . S
C1160 H1184 0.950 . S
C1161 C1178 1.574 . S
C1161 C1180 1.368 . S
C1161 H1185 0.949 . S
H1162 C1166 0.949 . S
C1163 C1164 1.349 1_554 S
C1163 C1165 1.327 1_554 S
C1163 H1186 0.950 . S
C1164 C1163 1.349 1_556 S
C1164 C1176 1.349 . S
C1165 C1163 1.327 1_556 S
C1165 C1181 1.429 . S
C1165 H1187 0.950 . S
C1166 H1162 0.949 . S
C1166 C1174 1.574 . S
C1166 C1182 1.368 . S
H1167 C1175 0.950 . S
H1168 C1173 0.950 . S
H1169 C1174 0.949 . S
H1170 C1176 0.950 . S
H1171 C1177 0.950 . S
H1172 C1178 0.949 . S
C1173 H1168 0.950 . S
C1173 C1175 1.327 . S
C1173 C1179 1.429 . S
C1174 C1166 1.574 . S
C1174 H1169 0.949 . S
C1174 C1180 1.368 . S
C1175 C1159 1.349 . S
C1175 H1167 0.950 . S
C1175 C1173 1.327 . S
C1176 C1164 1.349 . S
C1176 H1170 0.950 . S
C1176 C1177 1.327 . S
C1177 H1171 0.950 . S
C1177 C1176 1.327 . S
C1177 C1181 1.429 . S
C1178 C1161 1.574 . S
C1178 H1172 0.949 . S
C1178 C1182 1.368 . S
C1179 C1160 1.429 . S
C1179 C1173 1.429 . S
C1179 C1180 1.523 . S
C1180 C1161 1.368 . S
C1180 C1174 1.368 . S
C1180 C1179 1.523 . S
C1181 C1165 1.429 . S
C1181 C1177 1.429 . S
C1181 C1182 1.523 . S
C1182 C1166 1.368 . S
C1182 C1178 1.368 . S
C1182 C1181 1.523 . S
H1183 C1158 0.950 . S
H1184 C1160 0.950 . S
H1185 C1161 0.949 . S
H1186 C1163 0.950 . S
H1187 C1165 0.950 . S
C1188 C1189 1.349 . S
C1188 C1190 1.327 . S
C1188 H1213 0.950 . S
C1189 C1188 1.349 . S
C1189 C1205 1.349 . S
C1190 C1188 1.327 . S
C1190 C1209 1.429 . S
C1190 H1214 0.950 . S
C1191 C1208 1.574 . S
C1191 C1210 1.368 . S
C1191 H1215 0.949 . S
H1192 C1196 0.949 . S
C1193 C1194 1.349 . S
C1193 C1195 1.327 . S
C1193 H1216 0.950 . S
C1194 C1193 1.349 . S
C1194 C1206 1.349 . S
C1195 C1193 1.327 . S
C1195 C1211 1.429 . S
C1195 H1217 0.950 . S
C1196 H1192 0.949 . S
C1196 C1204 1.574 . S
C1196 C1212 1.368 . S
H1197 C1205 0.950 . S
H1198 C1203 0.950 . S
H1199 C1204 0.949 . S
H1200 C1206 0.950 . S
H1201 C1207 0.950 . S
H1202 C1208 0.949 . S
C1203 H1198 0.950 . S
C1203 C1205 1.327 . S
C1203 C1209 1.429 . S
C1204 C1196 1.574 . S
C1204 H1199 0.949 . S
C1204 C1210 1.368 . S
C1205 C1189 1.349 . S
C1205 H1197 0.950 . S
C1205 C1203 1.327 . S
C1206 C1194 1.349 . S
C1206 H1200 0.950 . S
C1206 C1207 1.327 . S
C1207 H1201 0.950 . S
C1207 C1206 1.327 . S
C1207 C1211 1.429 . S
C1208 C1191 1.574 . S
C1208 H1202 0.949 . S
C1208 C1212 1.368 . S
C1209 C1190 1.429 . S
C1209 C1203 1.429 . S
C1209 C1210 1.523 . S
C1210 C1191 1.368 . S
C1210 C1204 1.368 . S
C1210 C1209 1.523 . S
C1211 C1195 1.429 . S
C1211 C1207 1.429 . S
C1211 C1212 1.523 . S
C1212 C1196 1.368 . S
C1212 C1208 1.368 . S
C1212 C1211 1.523 . S
H1213 C1188 0.950 . S
H1214 C1190 0.950 . S
H1215 C1191 0.949 . S
H1216 C1193 0.950 . S
H1217 C1195 0.950 . S
C1218 C1219 1.349 . S
C1218 C1220 1.327 . S
C1218 H1243 0.950 . S
C1219 C1218 1.349 . S
C1219 C1235 1.349 . S
C1220 C1218 1.327 . S
C1220 C1239 1.429 . S
C1220 H1244 0.950 . S
C1221 C1238 1.574 . S
C1221 C1240 1.368 . S
C1221 H1245 0.949 . S
H1222 C1226 0.949 . S
C1223 C1224 1.349 . S
C1223 C1225 1.327 . S
C1223 H1246 0.950 . S
C1224 C1223 1.349 . S
C1224 C1236 1.349 . S
C1225 C1223 1.327 . S
C1225 C1241 1.429 . S
C1225 H1247 0.950 . S
C1226 H1222 0.949 . S
C1226 C1234 1.574 . S
C1226 C1242 1.368 . S
H1227 C1235 0.950 . S
H1228 C1233 0.950 . S
H1229 C1234 0.949 . S
H1230 C1236 0.950 . S
H1231 C1237 0.950 . S
H1232 C1238 0.949 . S
C1233 H1228 0.950 . S
C1233 C1235 1.327 . S
C1233 C1239 1.429 . S
C1234 C1226 1.574 . S
C1234 H1229 0.949 . S
C1234 C1240 1.368 . S
C1235 C1219 1.349 . S
C1235 H1227 0.950 . S
C1235 C1233 1.327 . S
C1236 C1224 1.349 . S
C1236 H1230 0.950 . S
C1236 C1237 1.327 . S
C1237 H1231 0.950 . S
C1237 C1236 1.327 . S
C1237 C1241 1.429 . S
C1238 C1221 1.574 . S
C1238 H1232 0.949 . S
C1238 C1242 1.368 . S
C1239 C1220 1.429 . S
C1239 C1233 1.429 . S
C1239 C1240 1.523 . S
C1240 C1221 1.368 . S
C1240 C1234 1.368 . S
C1240 C1239 1.523 . S
C1241 C1225 1.429 . S
C1241 C1237 1.429 . S
C1241 C1242 1.523 . S
C1242 C1226 1.368 . S
C1242 C1238 1.368 . S
C1242 C1241 1.523 . S
H1243 C1218 0.950 . S
H1244 C1220 0.950 . S
H1245 C1221 0.949 . S
H1246 C1223 0.950 . S
H1247 C1225 0.950 . S
C1248 C1249 1.349 . S
C1248 C1250 1.327 . S
C1248 H1273 0.950 . S
C1249 C1248 1.349 . S
C1249 C1265 1.349 . S
C1250 C1248 1.327 . S
C1250 C1269 1.429 . S
C1250 H1274 0.950 . S
C1251 C1268 1.574 . S
C1251 C1270 1.368 . S
C1251 H1275 0.949 . S
H1252 C1256 0.949 . S
C1253 C1254 1.349 . S
C1253 C1255 1.327 . S
C1253 H1276 0.950 . S
C1254 C1253 1.349 . S
C1254 C1266 1.349 . S
C1255 C1253 1.327 . S
C1255 C1271 1.429 . S
C1255 H1277 0.950 . S
C1256 H1252 0.949 . S
C1256 C1264 1.574 . S
C1256 C1272 1.368 . S
H1257 C1265 0.950 . S
H1258 C1263 0.950 . S
H1259 C1264 0.949 . S
H1260 C1266 0.950 . S
H1261 C1267 0.950 . S
H1262 C1268 0.949 . S
C1263 H1258 0.950 . S
C1263 C1265 1.327 . S
C1263 C1269 1.429 . S
C1264 C1256 1.574 . S
C1264 H1259 0.949 . S
C1264 C1270 1.368 . S
C1265 C1249 1.349 . S
C1265 H1257 0.950 . S
C1265 C1263 1.327 . S
C1266 C1254 1.349 . S
C1266 H1260 0.950 . S
C1266 C1267 1.327 . S
C1267 H1261 0.950 . S
C1267 C1266 1.327 . S
C1267 C1271 1.429 . S
C1268 C1251 1.574 . S
C1268 H1262 0.949 . S
C1268 C1272 1.368 . S
C1269 C1250 1.429 . S
C1269 C1263 1.429 . S
C1269 C1270 1.523 . S
C1270 C1251 1.368 . S
C1270 C1264 1.368 . S
C1270 C1269 1.523 . S
C1271 C1255 1.429 . S
C1271 C1267 1.429 . S
C1271 C1272 1.523 . S
C1272 C1256 1.368 . S
C1272 C1268 1.368 . S
C1272 C1271 1.523 . S
H1273 C1248 0.950 . S
H1274 C1250 0.950 . S
H1275 C1251 0.949 . S
H1276 C1253 0.950 . S
H1277 C1255 0.950 . S
C1278 C1279 1.349 . S
C1278 C1280 1.327 . S
C1278 H1303 0.950 . S
C1279 C1278 1.349 . S
C1279 C1295 1.349 . S
C1280 C1278 1.327 . S
C1280 C1299 1.429 . S
C1280 H1304 0.950 . S
C1281 C1298 1.574 . S
C1281 C1300 1.368 . S
C1281 H1305 0.949 . S
H1282 C1286 0.949 . S
C1283 C1284 1.349 . S
C1283 C1285 1.327 . S
C1283 H1306 0.950 . S
C1284 C1283 1.349 . S
C1284 C1296 1.349 . S
C1285 C1283 1.327 . S
C1285 C1301 1.429 . S
C1285 H1307 0.950 . S
C1286 H1282 0.949 . S
C1286 C1294 1.574 . S
C1286 C1302 1.368 . S
H1287 C1295 0.950 . S
H1288 C1293 0.950 . S
H1289 C1294 0.949 . S
H1290 C1296 0.950 . S
H1291 C1297 0.950 . S
H1292 C1298 0.949 . S
C1293 H1288 0.950 . S
C1293 C1295 1.327 . S
C1293 C1299 1.429 . S
C1294 C1286 1.574 . S
C1294 H1289 0.949 . S
C1294 C1300 1.368 . S
C1295 C1279 1.349 . S
C1295 H1287 0.950 . S
C1295 C1293 1.327 . S
C1296 C1284 1.349 . S
C1296 H1290 0.950 . S
C1296 C1297 1.327 . S
C1297 H1291 0.950 . S
C1297 C1296 1.327 . S
C1297 C1301 1.429 . S
C1298 C1281 1.574 . S
C1298 H1292 0.949 . S
C1298 C1302 1.368 . S
C1299 C1280 1.429 . S
C1299 C1293 1.429 . S
C1299 C1300 1.523 . S
C1300 C1281 1.368 . S
C1300 C1294 1.368 . S
C1300 C1299 1.523 . S
C1301 C1285 1.429 . S
C1301 C1297 1.429 . S
C1301 C1302 1.523 . S
C1302 C1286 1.368 . S
C1302 C1298 1.368 . S
C1302 C1301 1.523 . S
H1303 C1278 0.950 . S
H1304 C1280 0.950 . S
H1305 C1281 0.949 . S
H1306 C1283 0.950 . S
H1307 C1285 0.950 . S
C1308 C1309 1.349 . S
C1308 C1310 1.327 . S
C1308 H1333 0.950 . S
C1309 C1308 1.349 . S
C1309 C1325 1.349 . S
C1310 C1308 1.327 . S
C1310 C1329 1.429 . S
C1310 H1334 0.950 . S
C1311 C1328 1.574 . S
C1311 C1330 1.368 . S
C1311 H1335 0.949 . S
H1312 C1316 0.949 . S
C1313 C1314 1.349 . S
C1313 C1315 1.327 . S
C1313 H1336 0.950 . S
C1314 C1313 1.349 . S
C1314 C1326 1.349 . S
C1315 C1313 1.327 . S
C1315 C1331 1.429 . S
C1315 H1337 0.950 . S
C1316 H1312 0.949 . S
C1316 C1324 1.574 . S
C1316 C1332 1.368 . S
H1317 C1325 0.950 . S
H1318 C1323 0.950 . S
H1319 C1324 0.949 . S
H1320 C1326 0.950 . S
H1321 C1327 0.950 . S
H1322 C1328 0.949 . S
C1323 H1318 0.950 . S
C1323 C1325 1.327 . S
C1323 C1329 1.429 . S
C1324 C1316 1.574 . S
C1324 H1319 0.949 . S
C1324 C1330 1.368 . S
C1325 C1309 1.349 . S
C1325 H1317 0.950 . S
C1325 C1323 1.327 . S
C1326 C1314 1.349 . S
C1326 H1320 0.950 . S
C1326 C1327 1.327 . S
C1327 H1321 0.950 . S
C1327 C1326 1.327 . S
C1327 C1331 1.429 . S
C1328 C1311 1.574 . S
C1328 H1322 0.949 . S
C1328 C1332 1.368 . S
C1329 C1310 1.429 . S
C1329 C1323 1.429 . S
C1329 C1330 1.523 . S
C1330 C1311 1.368 . S
C1330 C1324 1.368 . S
C1330 C1329 1.523 . S
C1331 C1315 1.429 . S
C1331 C1327 1.429 . S
C1331 C1332 1.523 1_655 S
C1332 C1316 1.368 . S
C1332 C1328 1.368 . S
C1332 C1331 1.523 1_455 S
H1333 C1308 0.950 . S
H1334 C1310 0.950 . S
H1335 C1311 0.949 . S
H1336 C1313 0.950 . S
H1337 C1315 0.950 . S
C1338 C1339 1.349 . S
C1338 C1340 1.327 . S
C1338 H1363 0.950 . S
C1339 C1338 1.349 . S
C1339 C1355 1.349 . S
C1340 C1338 1.327 . S
C1340 C1359 1.429 . S
C1340 H1364 0.950 . S
C1341 C1358 1.574 . S
C1341 C1360 1.368 . S
C1341 H1365 0.949 . S
H1342 C1346 0.949 . S
C1343 C1344 1.349 . S
C1343 C1345 1.327 . S
C1343 H1366 0.950 . S
C1344 C1343 1.349 . S
C1344 C1356 1.349 . S
C1345 C1343 1.327 . S
C1345 C1361 1.429 . S
C1345 H1367 0.950 . S
C1346 H1342 0.949 . S
C1346 C1354 1.574 . S
C1346 C1362 1.368 . S
H1347 C1355 0.950 . S
H1348 C1353 0.950 . S
H1349 C1354 0.949 . S
H1350 C1356 0.950 . S
H1351 C1357 0.950 . S
H1352 C1358 0.949 . S
C1353 H1348 0.950 . S
C1353 C1355 1.327 . S
C1353 C1359 1.429 . S
C1354 C1346 1.574 . S
C1354 H1349 0.949 . S
C1354 C1360 1.368 . S
C1355 C1339 1.349 . S
C1355 H1347 0.950 . S
C1355 C1353 1.327 . S
C1356 C1344 1.349 . S
C1356 H1350 0.950 . S
C1356 C1357 1.327 . S
C1357 H1351 0.950 . S
C1357 C1356 1.327 . S
C1357 C1361 1.429 . S
C1358 C1341 1.574 . S
C1358 H1352 0.949 . S
C1358 C1362 1.368 . S
C1359 C1340 1.429 . S
C1359 C1353 1.429 . S
C1359 C1360 1.523 . S
C1360 C1341 1.368 . S
C1360 C1354 1.368 . S
C1360 C1359 1.523 . S
C1361 C1345 1.429 . S
C1361 C1357 1.429 . S
C1361 C1362 1.523 . S
C1362 C1346 1.368 . S
C1362 C1358 1.368 . S
C1362 C1361 1.523 . S
H1363 C1338 0.950 . S
H1364 C1340 0.950 . S
H1365 C1341 0.949 . S
H1366 C1343 0.950 . S
H1367 C1345 0.950 . S
C1368 C1369 1.349 . S
C1368 C1370 1.327 . S
C1368 H1393 0.950 . S
C1369 C1368 1.349 . S
C1369 C1385 1.349 . S
C1370 C1368 1.327 . S
C1370 C1389 1.429 . S
C1370 H1394 0.950 . S
C1371 C1388 1.574 . S
C1371 C1390 1.368 . S
C1371 H1395 0.949 . S
H1372 C1376 0.949 . S
C1373 C1374 1.349 . S
C1373 C1375 1.327 . S
C1373 H1396 0.950 . S
C1374 C1373 1.349 . S
C1374 C1386 1.349 . S
C1375 C1373 1.327 . S
C1375 C1391 1.429 . S
C1375 H1397 0.950 . S
C1376 H1372 0.949 . S
C1376 C1384 1.574 . S
C1376 C1392 1.368 . S
H1377 C1385 0.950 . S
H1378 C1383 0.950 . S
H1379 C1384 0.949 . S
H1380 C1386 0.950 . S
H1381 C1387 0.950 . S
H1382 C1388 0.949 . S
C1383 H1378 0.950 . S
C1383 C1385 1.327 . S
C1383 C1389 1.429 . S
C1384 C1376 1.574 . S
C1384 H1379 0.949 . S
C1384 C1390 1.368 . S
C1385 C1369 1.349 . S
C1385 H1377 0.950 . S
C1385 C1383 1.327 . S
C1386 C1374 1.349 . S
C1386 H1380 0.950 . S
C1386 C1387 1.327 . S
C1387 H1381 0.950 . S
C1387 C1386 1.327 . S
C1387 C1391 1.429 . S
C1388 C1371 1.574 . S
C1388 H1382 0.949 . S
C1388 C1392 1.368 . S
C1389 C1370 1.429 . S
C1389 C1383 1.429 . S
C1389 C1390 1.523 . S
C1390 C1371 1.368 . S
C1390 C1384 1.368 . S
C1390 C1389 1.523 . S
C1391 C1375 1.429 . S
C1391 C1387 1.429 . S
C1391 C1392 1.523 . S
C1392 C1376 1.368 . S
C1392 C1388 1.368 . S
C1392 C1391 1.523 . S
H1393 C1368 0.950 . S
H1394 C1370 0.950 . S
H1395 C1371 0.949 . S
H1396 C1373 0.950 . S
H1397 C1375 0.950 . S
C1398 C1399 1.349 . S
C1398 C1400 1.327 . S
C1398 H1423 0.950 . S
C1399 C1398 1.349 . S
C1399 C1415 1.349 . S
C1400 C1398 1.327 . S
C1400 C1419 1.429 . S
C1400 H1424 0.950 . S
C1401 C1418 1.574 . S
C1401 C1420 1.368 . S
C1401 H1425 0.949 . S
H1402 C1406 0.949 . S
C1403 C1404 1.349 . S
C1403 C1405 1.327 . S
C1403 H1426 0.950 . S
C1404 C1403 1.349 . S
C1404 C1416 1.349 . S
C1405 C1403 1.327 . S
C1405 C1421 1.429 . S
C1405 H1427 0.950 . S
C1406 H1402 0.949 . S
C1406 C1414 1.574 . S
C1406 C1422 1.368 . S
H1407 C1415 0.950 . S
H1408 C1413 0.950 . S
H1409 C1414 0.949 . S
H1410 C1416 0.950 . S
H1411 C1417 0.950 . S
H1412 C1418 0.949 . S
C1413 H1408 0.950 . S
C1413 C1415 1.327 . S
C1413 C1419 1.429 . S
C1414 C1406 1.574 . S
C1414 H1409 0.949 . S
C1414 C1420 1.368 . S
C1415 C1399 1.349 . S
C1415 H1407 0.950 . S
C1415 C1413 1.327 . S
C1416 C1404 1.349 . S
C1416 H1410 0.950 . S
C1416 C1417 1.327 . S
C1417 H1411 0.950 . S
C1417 C1416 1.327 . S
C1417 C1421 1.429 . S
C1418 C1401 1.574 . S
C1418 H1412 0.949 . S
C1418 C1422 1.368 . S
C1419 C1400 1.429 . S
C1419 C1413 1.429 . S
C1419 C1420 1.523 . S
C1420 C1401 1.368 . S
C1420 C1414 1.368 . S
C1420 C1419 1.523 . S
C1421 C1405 1.429 . S
C1421 C1417 1.429 . S
C1421 C1422 1.523 . S
C1422 C1406 1.368 . S
C1422 C1418 1.368 . S
C1422 C1421 1.523 . S
H1423 C1398 0.950 . S
H1424 C1400 0.950 . S
H1425 C1401 0.949 . S
H1426 C1403 0.950 . S
H1427 C1405 0.950 . S
C1428 C1429 1.349 . S
C1428 C1430 1.327 . S
C1428 H1453 0.950 . S
C1429 C1428 1.349 . S
C1429 C1445 1.349 . S
C1430 C1428 1.327 . S
C1430 C1449 1.429 . S
C1430 H1454 0.950 . S
C1431 C1448 1.574 . S
C1431 C1450 1.368 . S
C1431 H1455 0.949 . S
H1432 C1436 0.949 . S
C1433 C1434 1.349 . S
C1433 C1435 1.327 . S
C1433 H1456 0.950 . S
C1434 C1433 1.349 . S
C1434 C1446 1.349 . S
C1435 C1433 1.327 . S
C1435 C1451 1.429 . S
C1435 H1457 0.950 . S
C1436 H1432 0.949 . S
C1436 C1444 1.574 . S
C1436 C1452 1.368 . S
H1437 C1445 0.950 . S
H1438 C1443 0.950 . S
H1439 C1444 0.949 . S
H1440 C1446 0.950 . S
H1441 C1447 0.950 . S
H1442 C1448 0.949 . S
C1443 H1438 0.950 . S
C1443 C1445 1.327 . S
C1443 C1449 1.429 . S
C1444 C1436 1.574 . S
C1444 H1439 0.949 . S
C1444 C1450 1.368 . S
C1445 C1429 1.349 . S
C1445 H1437 0.950 . S
C1445 C1443 1.327 . S
C1446 C1434 1.349 . S
C1446 H1440 0.950 . S
C1446 C1447 1.327 . S
C1447 H1441 0.950 . S
C1447 C1446 1.327 . S
C1447 C1451 1.429 . S
C1448 C1431 1.574 . S
C1448 H1442 0.949 . S
C1448 C1452 1.368 . S
C1449 C1430 1.429 . S
C1449 C1443 1.429 . S
C1449 C1450 1.523 . S
C1450 C1431 1.368 . S
C1450 C1444 1.368 . S
C1450 C1449 1.523 . S
C1451 C1435 1.429 . S
C1451 C1447 1.429 . S
C1451 C1452 1.523 . S
C1452 C1436 1.368 . S
C1452 C1448 1.368 . S
C1452 C1451 1.523 . S
H1453 C1428 0.950 . S
H1454 C1430 0.950 . S
H1455 C1431 0.949 . S
H1456 C1433 0.950 . S
H1457 C1435 0.950 . S
C1458 C1459 1.349 . S
C1458 C1460 1.327 . S
C1458 H1483 0.950 . S
C1459 C1458 1.349 . S
C1459 C1475 1.349 . S
C1460 C1458 1.327 . S
C1460 C1479 1.429 . S
C1460 H1484 0.950 1_565 S
C1461 C1478 1.574 . S
C1461 C1480 1.368 . S
C1461 H1485 0.949 1_545 S
H1462 C1466 0.949 . S
C1463 C1464 1.349 . S
C1463 C1465 1.327 1_455 S
C1463 H1486 0.950 . S
C1464 C1463 1.349 . S
C1464 C1476 1.349 1_455 S
C1465 C1463 1.327 1_655 S
C1465 C1481 1.429 . S
C1465 H1487 0.950 . S
C1466 H1462 0.949 . S
C1466 C1474 1.574 . S
C1466 C1482 1.368 . S
H1467 C1475 0.950 . S
H1468 C1473 0.950 . S
H1469 C1474 0.949 . S
H1470 C1476 0.950 . S
H1471 C1477 0.950 . S
H1472 C1478 0.949 . S
C1473 H1468 0.950 . S
C1473 C1475 1.327 . S
C1473 C1479 1.429 . S
C1474 C1466 1.574 . S
C1474 H1469 0.949 . S
C1474 C1480 1.368 . S
C1475 C1459 1.349 . S
C1475 H1467 0.950 . S
C1475 C1473 1.327 . S
C1476 C1464 1.349 1_655 S
C1476 H1470 0.950 . S
C1476 C1477 1.327 . S
C1477 H1471 0.950 . S
C1477 C1476 1.327 . S
C1477 C1481 1.429 . S
C1478 C1461 1.574 . S
C1478 H1472 0.949 . S
C1478 C1482 1.368 . S
C1479 C1460 1.429 . S
C1479 C1473 1.429 . S
C1479 C1480 1.523 1_565 S
C1480 C1461 1.368 . S
C1480 C1474 1.368 . S
C1480 C1479 1.523 1_545 S
C1481 C1465 1.429 . S
C1481 C1477 1.429 . S
C1481 C1482 1.523 . S
C1482 C1466 1.368 . S
C1482 C1478 1.368 . S
C1482 C1481 1.523 . S
H1483 C1458 0.950 . S
H1484 C1460 0.950 1_545 S
H1485 C1461 0.949 1_565 S
H1486 C1463 0.950 . S
H1487 C1465 0.950 . S
C409 C13 1.058 . S
C414 C382 1.056 . S
C439 C319 1.055 . S
C444 C47 1.072 . S
C469 C76 2.330 1_554 S
C474 C280 2.328 . S
C499 C115 1.248 . S
C504 C353 1.237 . S
C529 C149 1.294 . S
C534 C348 1.286 . S
C559 C183 0.849 . S
C564 C387 0.846 . S
C589 C314 1.542 1_565 S
C594 C217 1.549 . S
C619 C246 1.903 . S
C624 C285 1.882 . S
C649 C110 2.314 . S
C654 C144 2.341 . S
C679 C8 2.263 . S
C684 C178 2.238 . S
C709 C42 2.312 1_655 S
C714 C212 2.330 1_556 S
C739 C251 0.414 . S
C744 C81 0.330 . S
C769 C29 1.778 . S
C774 C289 1.773 . S
C799 C63 0.504 1_655 S
C804 C344 0.529 . S
C829 C391 1.187 . S
C834 C68 1.202 . S
C859 C131 0.390 . S
C864 C310 0.408 . S
C889 C165 1.271 . S
C894 C323 1.259 . S
C919 C276 0.972 . S
C924 C199 0.978 . S
C949 C357 1.071 . S
C954 C233 1.070 . S
C979 C378 0.540 . S
C984 C238 0.515 . S
C1009 C17 1.235 . S
C1014 C102 1.217 . S
C1039 C0 1.698 . S
C1044 C51 1.692 . S
C1069 C34 0.502 . S
C1074 C72 0.492 . S
C1099 C119 1.363 . S
C1104 C97 1.380 . S
C1129 C170 1.457 . S
C1134 C153 1.475 . S
C1159 C187 1.522 . S
C1164 C204 1.526 1_556 S
C1189 C221 1.093 . S
C1194 C267 1.086 . S
C1219 C136 0.935 . S
C1224 C242 0.928 . S
C1249 C301 0.618 . S
C1254 C106 0.613 . S
C1279 C174 0.304 . S
C1284 C335 0.273 . S
C1309 C272 0.919 . S
C1314 C208 0.931 . S
C1339 C369 0.537 . S
C1344 C255 0.546 . S
C1369 C140 0.918 . S
C1374 C374 0.922 . S
C1399 C403 0.636 . S
C1404 C38 0.644 . S
C1429 C85 0.865 . S
C1434 C306 0.863 . S
C1459 C340 0.606 . S
C1464 C4 0.603 . S
