# Generated by pormake.
# Topology tfs, (6)-cn, num edge types: 1
# Building blocks:
#     Node 0, Type 0, BuildingBlock: MIDCAF_clean_sbu_0, # of connection points: 6
#     Node 1, Type 0, BuildingBlock: MIDCAF_clean_sbu_0, # of connection points: 6
#     Node 2, Type 0, BuildingBlock: MIDCAF_clean_sbu_0, # of connection points: 6
#     Node 3, Type 0, BuildingBlock: MIDCAF_clean_sbu_0, # of connection points: 6
#     Node 4, Type 0, BuildingBlock: MIDCAF_clean_sbu_0, # of connection points: 6
#     Node 5, Type 0, BuildingBlock: MIDCAF_clean_sbu_0, # of connection points: 6
#     Edge 6, Type (0, 0), BuildingBlock: FUNLAD_clean_linker_1, # of connection points: 2
#     Edge 7, Type (0, 0), BuildingBlock: FUNLAD_clean_linker_1, # of connection points: 2
#     Edge 8, Type (0, 0), BuildingBlock: FUNLAD_clean_linker_1, # of connection points: 2
#     Edge 9, Type (0, 0), BuildingBlock: FUNLAD_clean_linker_1, # of connection points: 2
#     Edge 10, Type (0, 0), BuildingBlock: FUNLAD_clean_linker_1, # of connection points: 2
#     Edge 11, Type (0, 0), BuildingBlock: FUNLAD_clean_linker_1, # of connection points: 2
#     Edge 12, Type (0, 0), BuildingBlock: FUNLAD_clean_linker_1, # of connection points: 2
#     Edge 13, Type (0, 0), BuildingBlock: FUNLAD_clean_linker_1, # of connection points: 2
#     Edge 14, Type (0, 0), BuildingBlock: FUNLAD_clean_linker_1, # of connection points: 2
#     Edge 15, Type (0, 0), BuildingBlock: FUNLAD_clean_linker_1, # of connection points: 2
#     Edge 16, Type (0, 0), BuildingBlock: FUNLAD_clean_linker_1, # of connection points: 2
#     Edge 17, Type (0, 0), BuildingBlock: FUNLAD_clean_linker_1, # of connection points: 2
#     Edge 18, Type (0, 0), BuildingBlock: FUNLAD_clean_linker_1, # of connection points: 2
#     Edge 19, Type (0, 0), BuildingBlock: FUNLAD_clean_linker_1, # of connection points: 2
#     Edge 20, Type (0, 0), BuildingBlock: FUNLAD_clean_linker_1, # of connection points: 2
#     Edge 21, Type (0, 0), BuildingBlock: FUNLAD_clean_linker_1, # of connection points: 2
#     Edge 22, Type (0, 0), BuildingBlock: FUNLAD_clean_linker_1, # of connection points: 2
#     Edge 23, Type (0, 0), BuildingBlock: FUNLAD_clean_linker_1, # of connection points: 2
# Relax obj value: 0.134
# Max RMSD: 0.124
# Mean RMSD: 0.124
data_MOF--net-tfs--node1-MIDCAF_clean_sbu_0--edge1-FUNLAD_clean_linker_1
_symmetry_space_group_name_H-M    P1
_symmetry_Int_Tables_number       1
_symmetry_cell_setting            triclinic
loop_
_symmetry_equiv_pos_as_xyz
'x, y, z'
_cell_length_a     43.654047
_cell_length_b     43.685432
_cell_length_c     16.016312
_cell_angle_alpha  89.983187
_cell_angle_beta   90.001931
_cell_angle_gamma 120.00023
loop_
_atom_site_label
_atom_site_type_symbol
_atom_site_fract_x
_atom_site_fract_y
_atom_site_fract_z
_atom_type_partial_charge
Zn0 Zn 0.1629 0.4232 0.92269 0.0
Zn1 Zn 0.24497 0.40031 0.09572 0.0
Zn2 Zn 0.20097 0.40698 0.00691 0.0
C3 C 0.23515 0.35959 0.95643 0.0
C4 C 0.18376 0.37194 0.18928 0.0
O5 O 0.22173 0.466 0.00536 0.0
O6 O 0.18657 0.47465 0.92138 0.0
C7 C 0.17783 0.38198 0.81807 0.0
O8 O 0.21677 0.37376 0.93321 0.0
O9 O 0.25023 0.36685 0.02647 0.0
O10 O 0.21582 0.38024 0.19455 0.0
O11 O 0.17214 0.37891 0.12216 0.0
O12 O 0.16137 0.39884 0.81929 0.0
O13 O 0.1958 0.38236 0.88227 0.0
O14 O 0.14687 0.37741 0.06257 0.0
O15 O 0.11897 0.39788 0.98628 0.0
C16 C 0.11809 0.37692 0.04166 0.0
O17 O 0.24925 0.46008 0.03251 0.0
O18 O 0.28573 0.4481 0.10231 0.0
C19 C 0.21274 0.48697 0.96996 0.0
C20 C 0.2797 0.47026 0.06682 0.0
Zn21 Zn 0.73349 0.16425 0.88713 0.0
Zn22 Zn 0.8288 0.25771 0.06316 0.0
Zn23 Zn 0.7823 0.20503 0.98053 0.0
C24 C 0.8657 0.25028 0.93464 0.0
C25 C 0.80436 0.19613 0.16248 0.0
O26 O 0.73698 0.2164 0.97534 0.0
O27 O 0.69528 0.17459 0.89718 0.0
C28 C 0.79177 0.19196 0.7866 0.0
O29 O 0.83422 0.2258 0.91452 0.0
O30 O 0.87064 0.26945 0.99756 0.0
O31 O 0.82342 0.22941 0.16384 0.0
O32 O 0.78586 0.18036 0.09742 0.0
O33 O 0.75851 0.17479 0.78112 0.0
O34 O 0.80651 0.20488 0.8576 0.0
O35 O 0.7638 0.15256 0.04006 0.0
O36 O 0.72591 0.12101 0.94124 0.0
C37 C 0.74181 0.12232 0.00806 0.0
O38 O 0.76736 0.2473 0.99982 0.0
O39 O 0.81269 0.29234 0.06194 0.0
C40 C 0.70537 0.20096 0.94412 0.0
C41 C 0.78272 0.27936 0.02795 0.0
Zn42 Zn 0.57822 0.82728 0.10399 0.0
Zn43 Zn 0.57203 0.72989 0.92407 0.0
Zn44 Zn 0.58185 0.78145 0.01196 0.0
C45 C 0.62483 0.74073 0.03728 0.0
C46 C 0.60255 0.7886 0.81912 0.0
O47 O 0.52554 0.76745 0.03962 0.0
O48 O 0.52751 0.80728 0.12813 0.0
C49 C 0.61871 0.8047 0.19183 0.0
O50 O 0.61695 0.76331 0.06736 0.0
O51 O 0.60827 0.72241 0.97471 0.0
O52 O 0.58598 0.75524 0.81696 0.0
O53 O 0.60546 0.80469 0.88864 0.0
O54 O 0.60828 0.82691 0.19442 0.0
O55 O 0.61105 0.78392 0.12844 0.0
O56 O 0.61111 0.83282 0.94507 0.0
O57 O 0.60126 0.86762 0.02772 0.0
C58 C 0.61552 0.86348 0.9636 0.0
O59 O 0.52449 0.73834 0.00213 0.0
O60 O 0.52299 0.69274 0.93864 0.0
C61 C 0.50973 0.77987 0.08501 0.0
C62 C 0.50702 0.70601 0.97609 0.0
Zn63 Zn 0.75222 0.58186 0.05293 0.0
Zn64 Zn 0.84787 0.58129 0.87631 0.0
Zn65 Zn 0.80389 0.58874 0.96414 0.0
C66 C 0.88613 0.62512 0.00859 0.0
C67 C 0.82602 0.62007 0.77981 0.0
O68 O 0.75976 0.53264 0.97328 0.0
O69 O 0.7156 0.53223 0.04193 0.0
C70 C 0.81182 0.6134 0.15447 0.0
O71 O 0.85532 0.61964 0.02992 0.0
O72 O 0.8893 0.60955 0.94569 0.0
O73 O 0.84537 0.60623 0.77708 0.0
O74 O 0.80731 0.61639 0.84522 0.0
O75 O 0.7785 0.59816 0.15773 0.0
O76 O 0.82732 0.61405 0.08551 0.0
O77 O 0.78548 0.62202 0.9016 0.0
O78 O 0.74536 0.61708 0.99354 0.0
C79 C 0.76321 0.63092 0.92847 0.0
O80 O 0.7899 0.53142 0.94893 0.0
O81 O 0.83088 0.5305 0.86967 0.0
C82 C 0.72773 0.51592 0.00135 0.0
C83 C 0.80337 0.51421 0.91335 0.0
Zn84 Zn 0.18188 0.75236 0.08759 0.0
Zn85 Zn 0.27608 0.84402 0.90532 0.0
Zn86 Zn 0.22517 0.79987 0.99301 0.0
C87 C 0.27395 0.88212 0.03905 0.0
C88 C 0.21514 0.82449 0.81159 0.0
O89 O 0.23633 0.75534 0.00622 0.0
O90 O 0.19086 0.71313 0.07478 0.0
C91 C 0.21271 0.8106 0.18725 0.0
O92 O 0.24707 0.85173 0.0566 0.0
O93 O 0.29408 0.88497 0.97938 0.0
O94 O 0.24806 0.84565 0.81125 0.0
O95 O 0.20057 0.80347 0.87401 0.0
O96 O 0.19501 0.77741 0.19342 0.0
O97 O 0.22525 0.82494 0.11561 0.0
O98 O 0.17352 0.78189 0.93166 0.0
O99 O 0.13969 0.74885 0.03545 0.0
C100 C 0.14288 0.7635 0.96569 0.0
O101 O 0.26631 0.78347 0.97039 0.0
O102 O 0.30599 0.8231 0.88456 0.0
C103 C 0.21954 0.72365 0.03611 0.0
C104 C 0.29512 0.79537 0.92718 0.0
Zn105 Zn 0.4259 0.26649 0.9425 0.0
Zn106 Zn 0.41764 0.16643 0.11674 0.0
Zn107 Zn 0.41546 0.21387 0.02984 0.0
C108 C 0.37312 0.13177 0.98491 0.0
C109 C 0.38667 0.19649 0.21564 0.0
O110 O 0.47301 0.25571 0.0193 0.0
O111 O 0.47742 0.29594 0.9288 0.0
C112 C 0.38618 0.20723 0.84326 0.0
O113 O 0.38518 0.16372 0.95933 0.0
O114 O 0.38241 0.12567 0.05452 0.0
O115 O 0.40103 0.17762 0.21979 0.0
O116 O 0.38693 0.21156 0.14631 0.0
O117 O 0.39818 0.24016 0.84445 0.0
O118 O 0.39118 0.1918 0.9061 0.0
O119 O 0.38243 0.23391 0.08582 0.0
O120 O 0.40101 0.28335 0.01461 0.0
C121 C 0.38028 0.26155 0.06798 0.0
O122 O 0.47077 0.22618 0.05811 0.0
O123 O 0.46714 0.1777 0.11077 0.0
C124 C 0.49202 0.28441 0.9774 0.0
C125 C 0.48575 0.20892 0.08451 0.0
H126 H 0.3257 0.23975 0.1158 0.0
C127 C 0.3482 0.26325 0.09003 0.0
H128 H 0.36607 0.31207 0.02913 0.0
H129 H 0.23991 0.2791 0.80484 0.0
H130 H 0.27608 0.26794 0.7078 0.0
H131 H 0.32716 0.26354 0.7579 0.0
H132 H 0.34211 0.26962 0.90523 0.0
C133 C 0.34364 0.28912 0.05704 0.0
C134 C 0.30844 0.28354 0.0314 0.0
C135 C 0.29961 0.2792 0.94517 0.0
C136 C 0.27044 0.28214 0.91595 0.0
C137 C 0.26227 0.27777 0.82973 0.0
C138 C 0.28266 0.27116 0.77358 0.0
C139 C 0.31139 0.26861 0.80183 0.0
C140 C 0.31982 0.27242 0.88652 0.0
H141 H 0.26351 0.34426 0.87371 0.0
C142 C 0.23837 0.33328 0.90634 0.0
H143 H 0.19977 0.29011 0.97225 0.0
H144 H 0.31564 0.28835 0.20061 0.0
H145 H 0.27847 0.29739 0.29871 0.0
H146 H 0.22779 0.30265 0.24923 0.0
H147 H 0.21391 0.29894 0.10258 0.0
C148 C 0.22519 0.30102 0.94107 0.0
C149 C 0.25031 0.28976 0.97268 0.0
C150 C 0.2571 0.29072 0.06009 0.0
C151 C 0.28636 0.28772 0.08917 0.0
C152 C 0.29366 0.29035 0.17576 0.0
C153 C 0.27256 0.29553 0.23264 0.0
C154 C 0.24403 0.29847 0.20476 0.0
C155 C 0.23633 0.29622 0.11979 0.0
H156 H 0.08148 0.32425 0.09642 0.0
C157 C 0.08293 0.34713 0.0658 0.0
H158 H 0.05541 0.36776 0.9997 0.0
H159 H 0.94674 0.23875 0.80512 0.0
H160 H 0.9953 0.26075 0.70562 0.0
H161 H 0.0558 0.3057 0.74742 0.0
H162 H 0.06816 0.32886 0.88883 0.0
C163 C 0.05356 0.34506 0.03224 0.0
C164 C 0.02037 0.31121 0.01585 0.0
C165 C 0.01361 0.29745 0.93338 0.0
C166 C 0.97874 0.27167 0.90903 0.0
C167 C 0.97272 0.25871 0.8262 0.0
C168 C 1.00034 0.27099 0.76872 0.0
C169 C 0.03441 0.2963 0.79226 0.0
C170 C 0.04112 0.30949 0.87349 0.0
H171 H 0.91455 0.27794 0.86499 0.0
C172 C 0.89761 0.25311 0.89686 0.0
H173 H 0.89624 0.21405 0.97501 0.0
H174 H 0.02576 0.3285 0.1805 0.0
H175 H 0.9779 0.30536 0.28194 0.0
H176 H 0.91721 0.26101 0.24081 0.0
H177 H 0.90378 0.23936 0.09897 0.0
C178 C 0.91308 0.23778 0.93914 0.0
C179 C 0.95063 0.25968 0.96713 0.0
C180 C 0.95804 0.27115 0.05179 0.0
C181 C 0.99301 0.29699 0.07589 0.0
C182 C 0.99958 0.30903 0.15946 0.0
C183 C 0.97242 0.29593 0.21816 0.0
C184 C 0.93824 0.2709 0.19498 0.0
C185 C 0.93094 0.25864 0.11299 0.0
H186 H 0.75859 0.08882 0.07719 0.0
C187 C 0.73774 0.08855 0.03964 0.0
H188 H 0.69095 0.05844 0.97031 0.0
H189 H 0.70314 0.93875 0.81707 0.0
H190 H 0.72756 0.98132 0.70352 0.0
H191 H 0.74559 0.04398 0.72656 0.0
H192 H 0.73939 0.06447 0.86322 0.0
C193 C 0.71135 0.05793 0.00831 0.0
C194 C 0.71186 0.0242 0.00346 0.0
C195 C 0.7164 0.01272 0.92384 0.0
C196 C 0.706 0.97663 0.91036 0.0
C197 C 0.71029 0.96583 0.83004 0.0
C198 C 0.72439 0.99 0.76458 0.0
C199 C 0.73453 0.02528 0.77755 0.0
C200 C 0.73066 0.03665 0.85609 0.0
H201 H 0.63288 0.91115 0.88967 0.0
C202 C 0.6425 0.89596 0.92307 0.0
H203 H 0.68267 0.8984 0.99954 0.0
H204 H 0.70475 0.03883 0.16532 0.0
H205 H 0.68286 0.99707 0.28065 0.0
H206 H 0.66479 0.93438 0.25839 0.0
H207 H 0.66838 0.91303 0.1215 0.0
C208 C 0.67434 0.91333 0.96062 0.0
C209 C 0.69123 0.9521 0.97664 0.0
C210 C 0.68995 0.96429 0.05835 0.0
C211 C 0.70024 1.00044 0.07153 0.0
C212 C 0.69728 0.01167 0.15242 0.0
C213 C 0.6848 0.988 0.21902 0.0
C214 C 0.67466 0.95272 0.2065 0.0
C215 C 0.67697 0.94082 0.1273 0.0
H216 H 0.73619 0.65313 0.86022 0.0
C217 C 0.76065 0.66056 0.89336 0.0
H218 H 0.79912 0.6971 0.97445 0.0
H219 H 0.68079 0.7502 0.88966 0.0
H220 H 0.70511 0.76338 0.74922 0.0
H221 H 0.7522 0.75089 0.7075 0.0
H222 H 0.77535 0.72517 0.8064 0.0
C223 C 0.77561 0.69069 0.93821 0.0
C224 C 0.75341 0.70583 0.96707 0.0
C225 C 0.74088 0.72161 0.90948 0.0
C226 C 0.71382 0.72888 0.93364 0.0
C227 C 0.70113 0.74388 0.87422 0.0
C228 C 0.71495 0.75169 0.7936 0.0
C229 C 0.7415 0.74468 0.77016 0.0
C230 C 0.75443 0.72981 0.82723 0.0
H231 H 0.67775 0.76235 0.09689 0.0
C232 C 0.65708 0.73999 0.06313 0.0
H233 H 0.6426 0.6935 0.99444 0.0
H234 H 0.77535 0.6808 0.09897 0.0
H235 H 0.75317 0.67122 0.24042 0.0
H236 H 0.70658 0.68452 0.28118 0.0
H237 H 0.6817 0.70746 0.17946 0.0
C238 C 0.66346 0.71546 0.02897 0.0
C239 C 0.69931 0.72035 0.01528 0.0
C240 C 0.71452 0.70834 0.07545 0.0
C241 C 0.74166 0.70103 0.05162 0.0
C242 C 0.75507 0.68733 0.11279 0.0
C243 C 0.74252 0.68161 0.19461 0.0
C244 C 0.71622 0.68903 0.21755 0.0
C245 C 0.70214 0.70207 0.15874 0.0
H246 H 0.09601 0.73784 0.88712 0.0
C247 C 0.1105 0.76003 0.92916 0.0
H248 H 0.10785 0.7936 0.01847 0.0
H249 H 0.9427 0.68208 0.87442 0.0
H250 H 0.96231 0.7119 0.74062 0.0
H251 H 0.02399 0.75981 0.72068 0.0
H252 H 0.06646 0.77802 0.83446 0.0
C253 C 0.09286 0.77212 0.97491 0.0
C254 C 0.0542 0.74918 0.99065 0.0
C255 C 0.0296 0.73963 0.92453 0.0
C256 C 0.99404 0.71227 0.93638 0.0
C257 C 0.97013 0.70255 0.86857 0.0
C258 C 0.98099 0.71957 0.79165 0.0
C259 C 0.01572 0.74654 0.78041 0.0
C260 C 0.03985 0.7566 0.84593 0.0
H261 H 0.91745 0.67466 0.08097 0.0
C262 C 0.91893 0.65438 0.04488 0.0
H263 H 0.95142 0.63938 0.97993 0.0
H264 H 0.09305 0.76465 0.1364 0.0
H265 H 0.07198 0.73723 0.27106 0.0
H266 H 0.00996 0.69017 0.29052 0.0
H267 H 0.96859 0.67038 0.17433 0.0
C268 C 0.9504 0.65961 0.01737 0.0
C269 C 0.98311 0.6947 0.01448 0.0
C270 C 0.00657 0.7068 0.08301 0.0
C271 C 0.04227 0.73411 0.07138 0.0
C272 C 0.06556 0.74445 0.14075 0.0
C273 C 0.05381 0.7288 0.21881 0.0
C274 C 0.01891 0.70229 0.22979 0.0
C275 C 0.99549 0.69116 0.16273 0.0
H276 H 0.25385 0.91305 0.10501 0.0
C277 C 0.27654 0.91491 0.07236 0.0
H278 H 0.32407 0.94781 0.00823 0.0
H279 H 0.2897 0.05084 0.83237 0.0
H280 H 0.27494 0.00741 0.72198 0.0
H281 H 0.26931 0.94938 0.75215 0.0
H282 H 0.27833 0.93442 0.89254 0.0
C283 C 0.30197 0.94636 0.04295 0.0
C284 C 0.29639 0.97691 0.03077 0.0
C285 C 0.29042 0.98499 0.94857 0.0
C286 C 0.29377 0.01839 0.93094 0.0
C287 C 0.28799 0.02595 0.84842 0.0
C288 C 0.27933 0.00123 0.78476 0.0
C289 C 0.27616 0.96856 0.80175 0.0
C290 C 0.28159 0.96038 0.88253 0.0
H291 H 0.35787 0.08783 0.90137 0.0
C292 C 0.3469 0.10102 0.938 0.0
H293 H 0.30493 0.0948 0.01258 0.0
H294 H 0.30393 0.96714 0.19601 0.0
H295 H 0.31547 0.00904 0.308 0.0
H296 H 0.32118 0.06711 0.27863 0.0
H297 H 0.31551 0.08369 0.13816 0.0
C298 C 0.31521 0.0813 0.97477 0.0
C299 C 0.30317 0.04366 0.99538 0.0
C300 C 0.30542 0.0341 0.07934 0.0
C301 C 0.30214 0.00062 0.09676 0.0
C302 C 0.30608 0.99219 0.17991 0.0
C303 C 0.31269 0.01597 0.24465 0.0
C304 C 0.3159 0.04865 0.2281 0.0
C305 C 0.31252 0.05782 0.14667 0.0
H306 H 0.25055 0.70411 0.96854 0.0
C307 C 0.23188 0.69845 0.01905 0.0
H308 H 0.19806 0.66102 0.10775 0.0
H309 H 0.16635 0.52834 0.89556 0.0
H310 H 0.1128 0.53065 0.8738 0.0
H311 H 0.10844 0.58216 0.92012 0.0
H312 H 0.15763 0.63148 0.98945 0.0
C313 C 0.21755 0.66722 0.05879 0.0
C314 C 0.22182 0.63775 0.02679 0.0
C315 C 0.19309 0.60946 0.98471 0.0
C316 C 0.19597 0.58024 0.95624 0.0
C317 C 0.16624 0.55175 0.91692 0.0
C318 C 0.13512 0.5526 0.90422 0.0
C319 C 0.13263 0.58154 0.93042 0.0
C320 C 0.16113 0.60967 0.97031 0.0
H321 H 0.23611 0.53164 0.05877 0.0
C322 C 0.22928 0.52459 0.99363 0.0
H323 H 0.22301 0.5406 0.87438 0.0
H324 H 0.28072 0.68669 0.11026 0.0
H325 H 0.33583 0.68626 0.12623 0.0
H326 H 0.34314 0.63889 0.0642 0.0
H327 H 0.29422 0.5896 0.99106 0.0
C328 C 0.2297 0.54828 0.93935 0.0
C329 C 0.22796 0.57973 0.96839 0.0
C330 C 0.25706 0.6086 0.00842 0.0
C331 C 0.25364 0.63725 0.03958 0.0
C332 C 0.28227 0.66475 0.08363 0.0
C333 C 0.31396 0.66476 0.0935 0.0
C334 C 0.31796 0.63781 0.05905 0.0
C335 C 0.28986 0.60986 0.01728 0.0
H336 H 0.54074 0.2533 0.0724 0.0
C337 C 0.52453 0.22494 0.08016 0.0
H338 H 0.52338 0.17627 0.09017 0.0
H339 H 0.68124 0.27434 0.91881 0.0
H340 H 0.65263 0.28916 0.80795 0.0
H341 H 0.58871 0.26854 0.8145 0.0
H342 H 0.55365 0.23512 0.93332 0.0
C343 C 0.53966 0.20466 0.0813 0.0
C344 C 0.57851 0.2191 0.07565 0.0
C345 C 0.59756 0.23606 0.00198 0.0
C346 C 0.63357 0.24516 0.99442 0.0
C347 C 0.65326 0.26517 0.92461 0.0
C348 C 0.63722 0.2739 0.86106 0.0
C349 C 0.60127 0.26239 0.8649 0.0
C350 C 0.58145 0.24335 0.93396 0.0
H351 H 0.65635 0.20166 0.92323 0.0
C352 C 0.67952 0.21217 0.96339 0.0
H353 H 0.70197 0.23794 0.07664 0.0
H354 H 0.55196 0.19337 0.23083 0.0
H355 H 0.5813 0.17972 0.34132 0.0
H356 H 0.64187 0.1902 0.322 0.0
H357 H 0.67362 0.21485 0.19308 0.0
C358 C 0.68037 0.22987 0.03273 0.0
C359 C 0.64902 0.23338 0.0551 0.0
C360 C 0.63113 0.21927 0.13157 0.0
C361 C 0.59594 0.21253 0.14211 0.0
C362 C 0.57848 0.19836 0.21897 0.0
C363 C 0.59505 0.19052 0.283 0.0
C364 C 0.62915 0.19645 0.27213 0.0
C365 C 0.64708 0.21056 0.19743 0.0
H366 H 0.45436 0.69602 0.0187 0.0
C367 C 0.46859 0.68403 0.99152 0.0
H368 H 0.4657 0.63742 0.94568 0.0
H369 H 0.31777 0.56039 0.16077 0.0
H370 H 0.35121 0.59288 0.28287 0.0
H371 H 0.41389 0.63926 0.27034 0.0
H372 H 0.44303 0.65427 0.1358 0.0
C373 C 0.45146 0.64923 0.97422 0.0
C374 C 0.41266 0.62547 0.98425 0.0
C375 C 0.39691 0.61582 0.06442 0.0
C376 C 0.36159 0.5873 0.07261 0.0
C377 C 0.34531 0.58008 0.15218 0.0
C378 C 0.36405 0.59884 0.22248 0.0
C379 C 0.39928 0.62508 0.21533 0.0
C380 C 0.41569 0.63353 0.13744 0.0
H381 H 0.33243 0.51336 0.1002 0.0
C382 C 0.3091 0.50713 0.06331 0.0
H383 H 0.28813 0.5247 0.97016 0.0
H384 H 0.43209 0.64318 0.82165 0.0
H385 H 0.39768 0.61262 0.69906 0.0
H386 H 0.33811 0.56045 0.71323 0.0
H387 H 0.31249 0.53876 0.84897 0.0
C388 C 0.31011 0.5318 0.01164 0.0
C389 C 0.34313 0.56688 0.00159 0.0
C390 C 0.35756 0.57896 0.9208 0.0
C391 C 0.39224 0.60854 0.9124 0.0
C392 C 0.40617 0.62031 0.83135 0.0
C393 C 0.38665 0.60316 0.76051 0.0
C394 C 0.3531 0.57385 0.76852 0.0
C395 C 0.33866 0.56167 0.84739 0.0
H396 H 0.79917 0.46327 0.88453 0.0
C397 C 0.7887 0.47584 0.92506 0.0
H398 H 0.75929 0.47031 0.03333 0.0
H399 H 0.75494 0.32295 0.87774 0.0
H400 H 0.72678 0.33032 0.75564 0.0
H401 H 0.7115 0.37756 0.74937 0.0
H402 H 0.72598 0.41879 0.86507 0.0
C403 C 0.7676 0.4572 0.98902 0.0
C404 C 0.76095 0.42072 0.00724 0.0
C405 C 0.74962 0.39505 0.94292 0.0
C406 C 0.75586 0.36611 0.94958 0.0
C407 C 0.74865 0.34386 0.87932 0.0
C408 C 0.73275 0.34805 0.8081 0.0
C409 C 0.72429 0.37474 0.80437 0.0
C410 C 0.73286 0.39826 0.87062 0.0
H411 H 0.73877 0.28961 0.99942 0.0
C412 C 0.76613 0.30163 0.01834 0.0
H413 H 0.81256 0.34891 0.04849 0.0
H414 H 0.77506 0.45895 0.15265 0.0
H415 H 0.7922 0.44535 0.2849 0.0
H416 H 0.79817 0.39241 0.30098 0.0
H417 H 0.78745 0.35301 0.1839 0.0
C418 C 0.78505 0.33688 0.02922 0.0
C419 C 0.77019 0.36111 0.02465 0.0
C420 C 0.77498 0.38311 0.09442 0.0
C421 C 0.77079 0.41322 0.08559 0.0
C422 C 0.77764 0.43565 0.15537 0.0
C423 C 0.7874 0.42807 0.23206 0.0
C424 C 0.79079 0.3983 0.24111 0.0
C425 C 0.78477 0.37603 0.17331 0.0
H426 H 0.337 0.78627 0.87982 0.0
C427 C 0.31751 0.77892 0.92939 0.0
H428 H 0.30323 0.75742 0.0504 0.0
H429 H 0.41812 0.70754 0.92457 0.0
H430 H 0.36905 0.66273 0.84406 0.0
H431 H 0.31249 0.66243 0.83538 0.0
H432 H 0.30437 0.70651 0.90886 0.0
C433 C 0.32022 0.76214 0.99668 0.0
C434 C 0.35276 0.75955 0.00762 0.0
C435 C 0.35752 0.73431 0.96263 0.0
C436 C 0.39041 0.73486 0.96673 0.0
C437 C 0.39389 0.70854 0.92327 0.0
C438 C 0.36596 0.68273 0.87661 0.0
C439 C 0.33413 0.6826 0.87154 0.0
C440 C 0.32983 0.70809 0.91374 0.0
H441 H 0.45788 0.76155 0.14316 0.0
C442 C 0.47104 0.76426 0.08375 0.0
H443 H 0.4677 0.76762 0.95317 0.0
H444 H 0.35152 0.81012 0.10622 0.0
H445 H 0.4013 0.85761 0.17843 0.0
H446 H 0.46052 0.86377 0.17001 0.0
H447 H 0.46998 0.82208 0.09189 0.0
C448 C 0.45426 0.76354 0.01275 0.0
C449 C 0.419 0.76155 0.01325 0.0
C450 C 0.41447 0.78767 0.05582 0.0
C451 C 0.38087 0.78554 0.05617 0.0
C452 C 0.37664 0.81091 0.10224 0.0
C453 C 0.40501 0.83839 0.14396 0.0
C454 C 0.43828 0.84175 0.13955 0.0
C455 C 0.44318 0.81706 0.09549 0.0
H456 H 0.71135 0.46693 0.92911 0.0
C457 C 0.7042 0.47838 0.98044 0.0
H458 H 0.66528 0.47071 0.06934 0.0
H459 H 0.53794 0.36574 0.84688 0.0
H460 H 0.54407 0.42026 0.79418 0.0
H461 H 0.59667 0.47755 0.82776 0.0
H462 H 0.64341 0.48043 0.91489 0.0
C463 C 0.67296 0.45927 0.01896 0.0
C464 C 0.64545 0.42458 0.98634 0.0
C465 C 0.61873 0.42321 0.93379 0.0
C466 C 0.5888 0.39011 0.91332 0.0
C467 C 0.56182 0.38983 0.86322 0.0
C468 C 0.56486 0.42109 0.83268 0.0
C469 C 0.59442 0.45333 0.85169 0.0
C470 C 0.62103 0.45457 0.90192 0.0
H471 H 0.53926 0.31169 0.05706 0.0
C472 C 0.53029 0.3063 0.99267 0.0
H473 H 0.54276 0.31814 0.86615 0.0
H474 H 0.69435 0.41848 0.0801 0.0
H475 H 0.69079 0.36375 0.12618 0.0
H476 H 0.63909 0.3061 0.09053 0.0
H477 H 0.59087 0.30291 0.0076 0.0
C478 C 0.55244 0.3244 0.92994 0.0
C479 C 0.58582 0.35836 0.94527 0.0
C480 C 0.61385 0.35978 0.99339 0.0
C481 C 0.64373 0.39301 0.0139 0.0
C482 C 0.67119 0.39385 0.06263 0.0
C483 C 0.66948 0.36269 0.08939 0.0
C484 C 0.64038 0.33021 0.06914 0.0
C485 C 0.61283 0.32867 0.02181 0.0
H486 H 0.20075 0.36262 0.72224 0.0
C487 C 0.17748 0.36411 0.73972 0.0
H488 H 0.12769 0.35669 0.70355 0.0
H489 H 0.19405 0.41632 0.34655 0.0
H490 H 0.2072 0.47077 0.41412 0.0
H491 H 0.196 0.47225 0.56452 0.0
H492 H 0.17226 0.41911 0.64813 0.0
C493 C 0.15082 0.35509 0.68512 0.0
C494 C 0.15567 0.35297 0.59424 0.0
C495 C 0.16786 0.38396 0.54524 0.0
C496 C 0.17289 0.38276 0.45793 0.0
C497 C 0.18792 0.41487 0.41213 0.0
C498 C 0.19598 0.44664 0.45041 0.0
C499 C 0.18977 0.4475 0.53504 0.0
C500 C 0.17606 0.41669 0.58227 0.0
H501 H 0.13866 0.36142 0.27172 0.0
C502 C 0.16184 0.35849 0.26528 0.0
H503 H 0.19725 0.3455 0.32388 0.0
H504 H 0.1301 0.28889 0.67044 0.0
H505 H 0.11488 0.23323 0.60267 0.0
H506 H 0.12172 0.23047 0.45034 0.0
H507 H 0.14373 0.28329 0.36467 0.0
C508 C 0.17478 0.34956 0.3316 0.0
C509 C 0.16402 0.35004 0.41927 0.0
C510 C 0.15074 0.3189 0.46821 0.0
C511 C 0.14666 0.3204 0.55594 0.0
C512 C 0.13363 0.28904 0.60351 0.0
C513 C 0.12482 0.257 0.56542 0.0
C514 C 0.1287 0.25545 0.47963 0.0
C515 C 0.14148 0.28595 0.43125 0.0
H516 H 0.84146 0.21193 0.71274 0.0
C517 C 0.81277 0.19665 0.71023 0.0
H518 H 0.76725 0.16618 0.63664 0.0
H519 H 0.85981 0.256 0.31912 0.0
H520 H 0.87381 0.30918 0.39465 0.0
H521 H 0.85968 0.30699 0.54429 0.0
H522 H 0.8319 0.25167 0.61907 0.0
C523 C 0.79591 0.18247 0.63759 0.0
C524 C 0.81334 0.18605 0.5556 0.0
C525 C 0.83002 0.21895 0.51308 0.0
C526 C 0.83761 0.22009 0.42633 0.0
C527 C 0.85352 0.25324 0.38487 0.0
C528 C 0.86163 0.28416 0.42746 0.0
C529 C 0.8537 0.28293 0.51166 0.0
C530 C 0.83784 0.25081 0.55407 0.0
H531 H 0.776 0.15818 0.26387 0.0
C532 C 0.80207 0.17699 0.24007 0.0
H533 H 0.85654 0.20791 0.26317 0.0
H534 H 0.78642 0.1198 0.62138 0.0
H535 H 0.77343 0.06634 0.54607 0.0
H536 H 0.7858 0.0683 0.39516 0.0
H537 H 0.81124 0.12376 0.31867 0.0
C538 C 0.83084 0.18946 0.28946 0.0
C539 C 0.82769 0.18823 0.38205 0.0
C540 C 0.81341 0.15584 0.42578 0.0
C541 C 0.80635 0.15478 0.5127 0.0
C542 C 0.79183 0.12197 0.55501 0.0
C543 C 0.78446 0.09117 0.51266 0.0
C544 C 0.79143 0.09228 0.42771 0.0
C545 C 0.80584 0.12419 0.38447 0.0
H546 H 0.63296 0.83686 0.74097 0.0
C547 C 0.61863 0.80814 0.74075 0.0
H548 H 0.60187 0.76141 0.67082 0.0
H549 H 0.61473 0.85811 0.34831 0.0
H550 H 0.57597 0.87388 0.41961 0.0
H551 H 0.56029 0.85821 0.56744 0.0
H552 H 0.58371 0.82709 0.6447 0.0
C553 C 0.61521 0.79012 0.6695 0.0
C554 C 0.62992 0.80638 0.58668 0.0
C555 C 0.6159 0.82474 0.54235 0.0
C556 C 0.62441 0.83312 0.45642 0.0
C557 C 0.60952 0.85102 0.41345 0.0
C558 C 0.58699 0.86021 0.4536 0.0
C559 C 0.57821 0.85142 0.53679 0.0
C560 C 0.59214 0.83368 0.5807 0.0
H561 H 0.62562 0.7732 0.28966 0.0
C562 C 0.63458 0.80003 0.26876 0.0
H563 H 0.66007 0.85399 0.29897 0.0
H564 H 0.66448 0.77483 0.65551 0.0
H565 H 0.70401 0.75939 0.5841 0.0
H566 H 0.71789 0.77312 0.43471 0.0
H567 H 0.69229 0.80236 0.35571 0.0
C568 C 0.65096 0.82742 0.32224 0.0
C569 C 0.64607 0.82221 0.41433 0.0
C570 C 0.66149 0.80553 0.45967 0.0
C571 C 0.65349 0.79771 0.54587 0.0
C572 C 0.66928 0.78096 0.58968 0.0
C573 C 0.69215 0.77215 0.54959 0.0
C574 C 0.69997 0.77988 0.46546 0.0
C575 C 0.68498 0.79648 0.42075 0.0
H576 H 0.79707 0.63077 0.68184 0.0
C577 C 0.82324 0.6372 0.70323 0.0
H578 H 0.87723 0.65917 0.67522 0.0
H579 H 0.84291 0.58755 0.32192 0.0
H580 H 0.86711 0.55625 0.39494 0.0
H581 H 0.88317 0.5679 0.54373 0.0
H582 H 0.87453 0.61056 0.62017 0.0
C583 C 0.85134 0.65279 0.65162 0.0
C584 C 0.84674 0.65052 0.55946 0.0
C585 C 0.85381 0.6267 0.51433 0.0
C586 C 0.84545 0.62065 0.42789 0.0
C587 C 0.84997 0.59448 0.38645 0.0
C588 C 0.86366 0.57595 0.42793 0.0
C589 C 0.87264 0.58246 0.51165 0.0
C590 C 0.8676 0.60724 0.55477 0.0
H591 H 0.8606 0.64063 0.232 0.0
C592 C 0.83206 0.62934 0.23179 0.0
H593 H 0.78629 0.61775 0.30103 0.0
H594 H 0.83446 0.70102 0.62555 0.0
H595 H 0.81213 0.73439 0.5512 0.0
H596 H 0.79922 0.7253 0.40028 0.0
H597 H 0.80858 0.68284 0.32285 0.0
C598 C 0.81466 0.62791 0.30264 0.0
C599 C 0.83129 0.6395 0.38618 0.0
C600 C 0.82662 0.66508 0.43024 0.0
C601 C 0.83413 0.67043 0.51709 0.0
C602 C 0.82876 0.69573 0.55968 0.0
C603 C 0.81612 0.71514 0.51769 0.0
C604 C 0.80884 0.71002 0.43273 0.0
C605 C 0.81409 0.68541 0.38915 0.0
H606 H 0.23128 0.86053 0.25945 0.0
C607 C 0.21765 0.83187 0.26339 0.0
H608 H 0.19029 0.78652 0.33934 0.0
H609 H 0.2743 0.88469 0.65515 0.0
H610 H 0.3288 0.90354 0.5805 0.0
H611 H 0.32844 0.88977 0.43117 0.0
H612 H 0.2735 0.85735 0.3558 0.0
C613 C 0.20478 0.81524 0.33709 0.0
C614 C 0.20651 0.83264 0.41821 0.0
C615 C 0.23909 0.85215 0.46111 0.0
C616 C 0.2392 0.85969 0.54769 0.0
C617 C 0.27221 0.87833 0.58951 0.0
C618 C 0.30392 0.88927 0.54742 0.0
C619 C 0.30372 0.88153 0.46339 0.0
C620 C 0.27182 0.86296 0.42066 0.0
H621 H 0.1777 0.79537 0.71009 0.0
C622 C 0.19564 0.82166 0.73405 0.0
H623 H 0.22467 0.87621 0.71078 0.0
H624 H 0.14002 0.79983 0.35138 0.0
H625 H 0.08505 0.78227 0.42521 0.0
H626 H 0.08529 0.79508 0.57541 0.0
H627 H 0.14053 0.82543 0.6527 0.0
C628 C 0.20726 0.85026 0.68423 0.0
C629 C 0.20667 0.84709 0.59144 0.0
C630 C 0.17435 0.83011 0.54699 0.0
C631 C 0.17429 0.82293 0.46036 0.0
C632 C 0.14152 0.80552 0.41753 0.0
C633 C 0.10983 0.79551 0.45902 0.0
C634 C 0.10997 0.80272 0.54357 0.0
C635 C 0.14179 0.81994 0.58731 0.0
H636 H 0.37694 0.16934 0.74183 0.0
C637 C 0.36977 0.18827 0.76514 0.0
H638 H 0.3457 0.21867 0.74147 0.0
H639 H 0.40771 0.25752 0.37864 0.0
H640 H 0.43563 0.31394 0.44827 0.0
H641 H 0.42612 0.31831 0.59844 0.0
H642 H 0.389 0.26616 0.67966 0.0
C643 C 0.35295 0.20017 0.71573 0.0
C644 C 0.35331 0.19742 0.62314 0.0
C645 C 0.37394 0.22862 0.57546 0.0
C646 C 0.37888 0.22621 0.48833 0.0
C647 C 0.40187 0.25754 0.44401 0.0
C648 C 0.41839 0.29032 0.48346 0.0
C649 C 0.41307 0.29277 0.56795 0.0
C650 C 0.39143 0.26244 0.61383 0.0
H651 H 0.35786 0.21709 0.29088 0.0
C652 C 0.37094 0.2015 0.29272 0.0
H653 H 0.38691 0.17167 0.36589 0.0
H654 H 0.30747 0.13369 0.69376 0.0
H655 H 0.27721 0.07692 0.62297 0.0
H656 H 0.28492 0.07267 0.47153 0.0
H657 H 0.32291 0.12512 0.39 0.0
C658 C 0.37456 0.18798 0.36552 0.0
C659 C 0.36231 0.19264 0.44875 0.0
C660 C 0.33937 0.16191 0.49537 0.0
C661 C 0.33495 0.16428 0.58264 0.0
C662 C 0.31216 0.13316 0.62757 0.0
C663 C 0.2945 0.10048 0.58762 0.0
C664 C 0.29884 0.09809 0.50237 0.0
C665 C 0.32088 0.12835 0.45643 0.0
loop_
_geom_bond_atom_site_label_1
_geom_bond_atom_site_label_2
_geom_bond_distance
_geom_bond_site_symmetry_2
_ccdc_geom_bond_type
Zn0 O6 1.920 . S
Zn0 O12 1.898 . S
Zn0 O15 1.905 . S
Zn1 O9 1.905 . S
Zn1 O10 1.898 . S
Zn1 O18 1.920 . S
Zn2 O5 2.080 . S
Zn2 O8 2.114 . S
Zn2 O11 2.120 . S
Zn2 O13 2.120 1_554 S
Zn2 O14 2.114 1_554 S
Zn2 O17 2.080 1_554 S
C3 O8 1.166 . S
C3 O9 1.182 . S
C4 O10 1.167 . S
C4 O11 1.299 . S
O5 Zn2 2.080 . S
O5 C19 1.305 1_554 S
O6 Zn0 1.920 . S
O6 C19 1.234 . S
C7 O12 1.167 . S
C7 O13 1.299 . S
O8 Zn2 2.114 . S
O8 C3 1.166 . S
O9 Zn1 1.905 . S
O9 C3 1.182 . S
O10 Zn1 1.898 . S
O10 C4 1.167 . S
O11 Zn2 2.120 . S
O11 C4 1.299 . S
O12 Zn0 1.898 . S
O12 C7 1.167 . S
O13 Zn2 2.120 1_556 S
O13 C7 1.299 . S
O14 Zn2 2.114 1_556 S
O14 C16 1.166 . S
O15 Zn0 1.905 . S
O15 C16 1.182 . S
C16 O14 1.166 . S
C16 O15 1.182 . S
O17 Zn2 2.080 1_556 S
O17 C20 1.305 1_556 S
O18 Zn1 1.920 . S
O18 C20 1.234 . S
C19 O5 1.305 1_556 S
C19 O6 1.234 . S
C20 O17 1.305 1_554 S
C20 O18 1.234 . S
Zn21 O27 1.920 . S
Zn21 O33 1.898 . S
Zn21 O36 1.905 . S
Zn22 O30 1.905 . S
Zn22 O31 1.898 . S
Zn22 O39 1.920 . S
Zn23 O26 2.080 . S
Zn23 O29 2.114 . S
Zn23 O32 2.120 . S
Zn23 O34 2.120 1_554 S
Zn23 O35 2.114 1_554 S
Zn23 O38 2.080 1_554 S
C24 O29 1.166 . S
C24 O30 1.182 . S
C25 O31 1.167 . S
C25 O32 1.299 . S
O26 Zn23 2.080 . S
O26 C40 1.305 1_554 S
O27 Zn21 1.920 . S
O27 C40 1.234 . S
C28 O33 1.167 . S
C28 O34 1.299 . S
O29 Zn23 2.114 . S
O29 C24 1.166 . S
O30 Zn22 1.905 . S
O30 C24 1.182 . S
O31 Zn22 1.898 . S
O31 C25 1.167 . S
O32 Zn23 2.120 . S
O32 C25 1.299 . S
O33 Zn21 1.898 . S
O33 C28 1.167 . S
O34 Zn23 2.120 1_556 S
O34 C28 1.299 . S
O35 Zn23 2.114 1_556 S
O35 C37 1.166 . S
O36 Zn21 1.905 . S
O36 C37 1.182 . S
C37 O35 1.166 . S
C37 O36 1.182 . S
O38 Zn23 2.080 1_556 S
O38 C41 1.305 1_556 S
O39 Zn22 1.920 . S
O39 C41 1.234 . S
C40 O26 1.305 1_556 S
C40 O27 1.234 . S
C41 O38 1.305 1_554 S
C41 O39 1.234 . S
Zn42 O48 1.920 . S
Zn42 O54 1.898 . S
Zn42 O57 1.905 . S
Zn43 O51 1.905 . S
Zn43 O52 1.898 . S
Zn43 O60 1.920 . S
Zn44 O47 2.080 1_554 S
Zn44 O50 2.114 1_554 S
Zn44 O53 2.120 1_554 S
Zn44 O55 2.120 . S
Zn44 O56 2.114 . S
Zn44 O59 2.080 . S
C45 O50 1.166 . S
C45 O51 1.182 . S
C46 O52 1.167 . S
C46 O53 1.299 . S
O47 Zn44 2.080 1_556 S
O47 C61 1.305 1_556 S
O48 Zn42 1.920 . S
O48 C61 1.234 . S
C49 O54 1.167 . S
C49 O55 1.299 . S
O50 Zn44 2.114 1_556 S
O50 C45 1.166 . S
O51 Zn43 1.905 . S
O51 C45 1.182 . S
O52 Zn43 1.898 . S
O52 C46 1.167 . S
O53 Zn44 2.120 1_556 S
O53 C46 1.299 . S
O54 Zn42 1.898 . S
O54 C49 1.167 . S
O55 Zn44 2.120 . S
O55 C49 1.299 . S
O56 Zn44 2.114 . S
O56 C58 1.166 . S
O57 Zn42 1.905 . S
O57 C58 1.182 . S
C58 O56 1.166 . S
C58 O57 1.182 . S
O59 Zn44 2.080 . S
O59 C62 1.305 1_554 S
O60 Zn43 1.920 . S
O60 C62 1.234 . S
C61 O47 1.305 1_554 S
C61 O48 1.234 . S
C62 O59 1.305 1_556 S
C62 O60 1.234 . S
Zn63 O69 1.920 . S
Zn63 O75 1.898 . S
Zn63 O78 1.905 . S
Zn64 O72 1.905 . S
Zn64 O73 1.898 . S
Zn64 O81 1.920 . S
Zn65 O68 2.080 1_554 S
Zn65 O71 2.114 1_554 S
Zn65 O74 2.120 1_554 S
Zn65 O76 2.120 . S
Zn65 O77 2.114 . S
Zn65 O80 2.080 . S
C66 O71 1.166 . S
C66 O72 1.182 . S
C67 O73 1.167 . S
C67 O74 1.299 . S
O68 Zn65 2.080 1_556 S
O68 C82 1.305 1_556 S
O69 Zn63 1.920 . S
O69 C82 1.234 . S
C70 O75 1.167 . S
C70 O76 1.299 . S
O71 Zn65 2.114 1_556 S
O71 C66 1.166 . S
O72 Zn64 1.905 . S
O72 C66 1.182 . S
O73 Zn64 1.898 . S
O73 C67 1.167 . S
O74 Zn65 2.120 1_556 S
O74 C67 1.299 . S
O75 Zn63 1.898 . S
O75 C70 1.167 . S
O76 Zn65 2.120 . S
O76 C70 1.299 . S
O77 Zn65 2.114 . S
O77 C79 1.166 . S
O78 Zn63 1.905 . S
O78 C79 1.182 . S
C79 O77 1.166 . S
C79 O78 1.182 . S
O80 Zn65 2.080 . S
O80 C83 1.305 1_554 S
O81 Zn64 1.920 . S
O81 C83 1.234 . S
C82 O68 1.305 1_554 S
C82 O69 1.234 . S
C83 O80 1.305 1_556 S
C83 O81 1.234 . S
Zn84 O90 1.920 . S
Zn84 O96 1.898 . S
Zn84 O99 1.905 . S
Zn85 O93 1.905 . S
Zn85 O94 1.898 . S
Zn85 O102 1.920 . S
Zn86 O89 2.080 1_554 S
Zn86 O92 2.114 1_554 S
Zn86 O95 2.120 1_554 S
Zn86 O97 2.120 . S
Zn86 O98 2.114 . S
Zn86 O101 2.080 . S
C87 O92 1.166 . S
C87 O93 1.182 . S
C88 O94 1.167 . S
C88 O95 1.299 . S
O89 Zn86 2.080 1_556 S
O89 C103 1.305 1_556 S
O90 Zn84 1.920 . S
O90 C103 1.234 . S
C91 O96 1.167 . S
C91 O97 1.299 . S
O92 Zn86 2.114 1_556 S
O92 C87 1.166 . S
O93 Zn85 1.905 . S
O93 C87 1.182 . S
O94 Zn85 1.898 . S
O94 C88 1.167 . S
O95 Zn86 2.120 1_556 S
O95 C88 1.299 . S
O96 Zn84 1.898 . S
O96 C91 1.167 . S
O97 Zn86 2.120 . S
O97 C91 1.299 . S
O98 Zn86 2.114 . S
O98 C100 1.166 . S
O99 Zn84 1.905 . S
O99 C100 1.182 . S
C100 O98 1.166 . S
C100 O99 1.182 . S
O101 Zn86 2.080 . S
O101 C104 1.305 1_554 S
O102 Zn85 1.920 . S
O102 C104 1.234 . S
C103 O89 1.305 1_554 S
C103 O90 1.234 . S
C104 O101 1.305 1_556 S
C104 O102 1.234 . S
Zn105 O111 1.920 . S
Zn105 O117 1.898 . S
Zn105 O120 1.905 . S
Zn106 O114 1.905 . S
Zn106 O115 1.898 . S
Zn106 O123 1.920 . S
Zn107 O110 2.080 . S
Zn107 O113 2.114 . S
Zn107 O116 2.120 . S
Zn107 O118 2.120 1_554 S
Zn107 O119 2.114 1_554 S
Zn107 O122 2.080 1_554 S
C108 O113 1.166 . S
C108 O114 1.182 . S
C109 O115 1.167 . S
C109 O116 1.299 . S
O110 Zn107 2.080 . S
O110 C124 1.305 1_554 S
O111 Zn105 1.920 . S
O111 C124 1.234 . S
C112 O117 1.167 . S
C112 O118 1.299 . S
O113 Zn107 2.114 . S
O113 C108 1.166 . S
O114 Zn106 1.905 . S
O114 C108 1.182 . S
O115 Zn106 1.898 . S
O115 C109 1.167 . S
O116 Zn107 2.120 . S
O116 C109 1.299 . S
O117 Zn105 1.898 . S
O117 C112 1.167 . S
O118 Zn107 2.120 1_556 S
O118 C112 1.299 . S
O119 Zn107 2.114 1_556 S
O119 C121 1.166 . S
O120 Zn105 1.905 . S
O120 C121 1.182 . S
C121 O119 1.166 . S
C121 O120 1.182 . S
O122 Zn107 2.080 1_556 S
O122 C125 1.305 1_556 S
O123 Zn106 1.920 . S
O123 C125 1.234 . S
C124 O110 1.305 1_556 S
C124 O111 1.234 . S
C125 O122 1.305 1_554 S
C125 O123 1.234 . S
H126 C127 0.951 . S
C127 H126 0.951 . S
C127 C133 1.265 . S
H128 C133 0.950 . S
H129 C137 0.949 . S
H130 C138 0.950 . S
H131 C139 0.951 . S
H132 C140 0.951 . S
C133 C127 1.265 . S
C133 H128 0.950 . S
C133 C134 1.478 . S
C134 C133 1.478 . S
C134 C135 1.397 1_554 S
C134 C151 1.394 . S
C135 C134 1.397 1_556 S
C135 C136 1.438 . S
C135 C140 1.429 . S
C136 C135 1.438 . S
C136 C137 1.428 . S
C136 C149 1.394 . S
C137 H129 0.949 . S
C137 C136 1.428 . S
C137 C138 1.345 . S
C138 H130 0.950 . S
C138 C137 1.345 . S
C138 C139 1.424 . S
C139 H131 0.951 . S
C139 C138 1.424 . S
C139 C140 1.347 . S
C140 H132 0.951 . S
C140 C135 1.429 . S
C140 C139 1.347 . S
H141 C142 0.951 . S
C142 H141 0.951 . S
C142 C148 1.265 . S
H143 C148 0.950 . S
H144 C152 0.949 . S
H145 C153 0.950 . S
H146 C154 0.951 . S
H147 C155 0.951 . S
C148 C142 1.265 . S
C148 H143 0.950 . S
C148 C149 1.478 . S
C149 C136 1.394 . S
C149 C148 1.478 . S
C149 C150 1.397 1_556 S
C150 C149 1.397 1_554 S
C150 C151 1.438 . S
C150 C155 1.429 . S
C151 C134 1.394 . S
C151 C150 1.438 . S
C151 C152 1.428 . S
C152 H144 0.949 . S
C152 C151 1.428 . S
C152 C153 1.345 . S
C153 H145 0.950 . S
C153 C152 1.345 . S
C153 C154 1.424 . S
C154 H146 0.951 . S
C154 C153 1.424 . S
C154 C155 1.347 . S
C155 H147 0.951 . S
C155 C150 1.429 . S
C155 C154 1.347 . S
H156 C157 0.951 . S
C157 H156 0.951 . S
C157 C163 1.265 1_554 S
H158 C163 0.950 . S
H159 C167 0.949 . S
H160 C168 0.950 . S
H161 C169 0.951 . S
H162 C170 0.951 . S
C163 C157 1.265 1_556 S
C163 H158 0.950 . S
C163 C164 1.478 . S
C164 C163 1.478 . S
C164 C165 1.398 . S
C164 C181 1.393 1_556 S
C165 C164 1.398 . S
C165 C166 1.438 1_455 S
C165 C170 1.429 . S
C166 C165 1.438 1_655 S
C166 C167 1.428 . S
C166 C179 1.390 1_556 S
C167 H159 0.949 . S
C167 C166 1.428 . S
C167 C168 1.345 . S
C168 H160 0.950 . S
C168 C167 1.345 . S
C168 C169 1.424 1_655 S
C169 H161 0.951 . S
C169 C168 1.424 1_455 S
C169 C170 1.347 . S
C170 H162 0.951 . S
C170 C165 1.429 . S
C170 C169 1.347 . S
H171 C172 0.951 . S
C172 H171 0.951 . S
C172 C178 1.265 1_556 S
H173 C178 0.950 . S
H174 C182 0.949 . S
H175 C183 0.950 . S
H176 C184 0.951 . S
H177 C185 0.951 . S
C178 C172 1.265 1_554 S
C178 H173 0.950 . S
C178 C179 1.478 . S
C179 C166 1.390 1_554 S
C179 C178 1.478 . S
C179 C180 1.401 . S
C180 C179 1.401 . S
C180 C181 1.438 1_655 S
C180 C185 1.429 . S
C181 C164 1.393 1_554 S
C181 C180 1.438 1_455 S
C181 C182 1.428 . S
C182 H174 0.949 . S
C182 C181 1.428 . S
C182 C183 1.345 . S
C183 H175 0.950 . S
C183 C182 1.345 . S
C183 C184 1.424 1_455 S
C184 H176 0.951 . S
C184 C183 1.424 1_655 S
C184 C185 1.347 . S
C185 H177 0.951 . S
C185 C180 1.429 . S
C185 C184 1.347 . S
H186 C187 0.951 . S
C187 H186 0.951 . S
C187 C193 1.265 . S
H188 C193 0.950 . S
H189 C197 0.949 . S
H190 C198 0.950 . S
H191 C199 0.951 . S
H192 C200 0.951 . S
C193 C187 1.265 . S
C193 H188 0.950 . S
C193 C194 1.478 . S
C194 C193 1.478 . S
C194 C195 1.397 1_554 S
C194 C211 1.394 . S
C195 C194 1.397 1_556 S
C195 C196 1.438 1_545 S
C195 C200 1.429 . S
C196 C195 1.438 1_565 S
C196 C197 1.428 . S
C196 C209 1.394 . S
C197 H189 0.949 . S
C197 C196 1.428 . S
C197 C198 1.345 . S
C198 H190 0.950 . S
C198 C197 1.345 . S
C198 C199 1.424 1_565 S
C199 H191 0.951 . S
C199 C198 1.424 1_545 S
C199 C200 1.347 . S
C200 H192 0.951 . S
C200 C195 1.429 . S
C200 C199 1.347 . S
H201 C202 0.951 . S
C202 H201 0.951 . S
C202 C208 1.265 . S
H203 C208 0.950 . S
H204 C212 0.949 . S
H205 C213 0.950 . S
H206 C214 0.951 . S
H207 C215 0.951 . S
C208 C202 1.265 . S
C208 H203 0.950 . S
C208 C209 1.478 . S
C209 C196 1.394 . S
C209 C208 1.478 . S
C209 C210 1.397 1_556 S
C210 C209 1.397 1_554 S
C210 C211 1.438 1_565 S
C210 C215 1.429 . S
C211 C194 1.394 . S
C211 C210 1.438 1_545 S
C211 C212 1.428 . S
C212 H204 0.949 . S
C212 C211 1.428 . S
C212 C213 1.345 . S
C213 H205 0.950 . S
C213 C212 1.345 . S
C213 C214 1.424 1_545 S
C214 H206 0.951 . S
C214 C213 1.424 1_565 S
C214 C215 1.347 . S
C215 H207 0.951 . S
C215 C210 1.429 . S
C215 C214 1.347 . S
H216 C217 0.951 1_554 S
C217 H216 0.951 1_556 S
C217 C223 1.265 . S
H218 C223 0.950 . S
H219 C227 0.949 . S
H220 C228 0.950 . S
H221 C229 0.951 . S
H222 C230 0.951 . S
C223 C217 1.265 . S
C223 H218 0.950 . S
C223 C224 1.478 . S
C224 C223 1.478 . S
C224 C225 1.397 . S
C224 C241 1.394 1_556 S
C225 C224 1.397 . S
C225 C226 1.438 . S
C225 C230 1.429 . S
C226 C225 1.438 . S
C226 C227 1.428 . S
C226 C239 1.394 1_556 S
C227 H219 0.949 . S
C227 C226 1.428 . S
C227 C228 1.345 . S
C228 H220 0.950 . S
C228 C227 1.345 . S
C228 C229 1.424 . S
C229 H221 0.951 . S
C229 C228 1.424 . S
C229 C230 1.347 . S
C230 H222 0.951 . S
C230 C225 1.429 . S
C230 C229 1.347 . S
H231 C232 0.951 1_556 S
C232 H231 0.951 1_554 S
C232 C238 1.265 . S
H233 C238 0.950 . S
H234 C242 0.949 . S
H235 C243 0.950 . S
H236 C244 0.951 . S
H237 C245 0.951 . S
C238 C232 1.265 . S
C238 H233 0.950 . S
C238 C239 1.478 . S
C239 C226 1.394 1_554 S
C239 C238 1.478 . S
C239 C240 1.397 . S
C240 C239 1.397 . S
C240 C241 1.438 . S
C240 C245 1.429 . S
C241 C224 1.394 1_554 S
C241 C240 1.438 . S
C241 C242 1.428 . S
C242 H234 0.949 . S
C242 C241 1.428 . S
C242 C243 1.345 . S
C243 H235 0.950 . S
C243 C242 1.345 . S
C243 C244 1.424 . S
C244 H236 0.951 . S
C244 C243 1.424 . S
C244 C245 1.347 . S
C245 H237 0.951 . S
C245 C240 1.429 . S
C245 C244 1.347 . S
H246 C247 0.951 . S
C247 H246 0.951 . S
C247 C253 1.265 . S
H248 C253 0.950 . S
H249 C257 0.949 . S
H250 C258 0.950 . S
H251 C259 0.950 1_455 S
H252 C260 0.951 . S
C253 C247 1.265 . S
C253 H248 0.950 . S
C253 C254 1.478 . S
C254 C253 1.478 . S
C254 C255 1.397 . S
C254 C271 1.394 1_556 S
C255 C254 1.397 . S
C255 C256 1.438 1_455 S
C255 C260 1.429 . S
C256 C255 1.438 1_655 S
C256 C257 1.428 . S
C256 C269 1.394 1_556 S
C257 H249 0.949 . S
C257 C256 1.428 . S
C257 C258 1.345 . S
C258 H250 0.950 . S
C258 C257 1.345 . S
C258 C259 1.428 . S
C259 H251 0.950 1_655 S
C259 C258 1.428 . S
C259 C260 1.343 1_655 S
C260 H252 0.951 . S
C260 C255 1.429 . S
C260 C259 1.343 1_455 S
H261 C262 0.951 . S
C262 H261 0.951 . S
C262 C268 1.265 . S
H263 C268 0.950 . S
H264 C272 0.949 . S
H265 C273 0.950 . S
H266 C274 0.950 1_655 S
H267 C275 0.951 . S
C268 C262 1.265 . S
C268 H263 0.950 . S
C268 C269 1.478 . S
C269 C256 1.394 1_554 S
C269 C268 1.478 . S
C269 C270 1.397 . S
C270 C269 1.397 . S
C270 C271 1.438 1_655 S
C270 C275 1.429 . S
C271 C254 1.394 1_554 S
C271 C270 1.438 1_455 S
C271 C272 1.428 . S
C272 H264 0.949 . S
C272 C271 1.428 . S
C272 C273 1.345 . S
C273 H265 0.950 . S
C273 C272 1.345 . S
C273 C274 1.428 . S
C274 H266 0.950 1_455 S
C274 C273 1.428 . S
C274 C275 1.343 1_455 S
C275 H267 0.951 . S
C275 C270 1.429 . S
C275 C274 1.343 1_655 S
H276 C277 0.951 1_556 S
C277 H276 0.951 1_554 S
C277 C283 1.265 . S
H278 C283 0.950 . S
H279 C287 0.949 . S
H280 C288 0.950 . S
H281 C289 0.951 . S
H282 C290 0.951 . S
C283 C277 1.265 . S
C283 H278 0.950 . S
C283 C284 1.478 . S
C284 C283 1.478 . S
C284 C285 1.397 1_554 S
C284 C301 1.394 . S
C285 C284 1.397 1_556 S
C285 C286 1.438 1_565 S
C285 C290 1.429 . S
C286 C285 1.438 1_545 S
C286 C287 1.428 . S
C286 C299 1.394 . S
C287 H279 0.949 . S
C287 C286 1.428 . S
C287 C288 1.345 . S
C288 H280 0.950 . S
C288 C287 1.345 . S
C288 C289 1.424 1_545 S
C289 H281 0.951 . S
C289 C288 1.424 1_565 S
C289 C290 1.347 . S
C290 H282 0.951 . S
C290 C285 1.429 . S
C290 C289 1.347 . S
H291 C292 0.951 1_554 S
C292 H291 0.951 1_556 S
C292 C298 1.265 . S
H293 C298 0.950 . S
H294 C302 0.949 . S
H295 C303 0.950 . S
H296 C304 0.951 . S
H297 C305 0.951 . S
C298 C292 1.265 . S
C298 H293 0.950 . S
C298 C299 1.478 . S
C299 C286 1.394 . S
C299 C298 1.478 . S
C299 C300 1.397 1_556 S
C300 C299 1.397 1_554 S
C300 C301 1.438 1_545 S
C300 C305 1.429 . S
C301 C284 1.394 . S
C301 C300 1.438 1_565 S
C301 C302 1.428 . S
C302 H294 0.949 . S
C302 C301 1.428 . S
C302 C303 1.345 . S
C303 H295 0.950 . S
C303 C302 1.345 . S
C303 C304 1.424 1_565 S
C304 H296 0.951 . S
C304 C303 1.424 1_545 S
C304 C305 1.347 . S
C305 H297 0.951 . S
C305 C300 1.429 . S
C305 C304 1.347 . S
H306 C307 0.951 . S
C307 H306 0.951 . S
C307 C313 1.265 . S
H308 C313 0.950 1_556 S
H309 C317 0.949 . S
H310 C318 0.950 . S
H311 C319 0.951 . S
H312 C320 0.951 . S
C313 C307 1.265 . S
C313 H308 0.950 1_554 S
C313 C314 1.478 . S
C314 C313 1.478 . S
C314 C315 1.397 1_554 S
C314 C331 1.394 . S
C315 C314 1.397 1_556 S
C315 C316 1.438 . S
C315 C320 1.429 . S
C316 C315 1.438 . S
C316 C317 1.428 . S
C316 C329 1.394 . S
C317 H309 0.949 . S
C317 C316 1.428 . S
C317 C318 1.345 . S
C318 H310 0.950 . S
C318 C317 1.345 . S
C318 C319 1.424 . S
C319 H311 0.951 . S
C319 C318 1.424 . S
C319 C320 1.347 . S
C320 H312 0.951 . S
C320 C315 1.429 . S
C320 C319 1.347 . S
H321 C322 0.951 . S
C322 H321 0.951 . S
C322 C328 1.265 . S
H323 C328 0.950 1_554 S
H324 C332 0.949 . S
H325 C333 0.950 . S
H326 C334 0.951 . S
H327 C335 0.951 . S
C328 C322 1.265 . S
C328 H323 0.950 1_556 S
C328 C329 1.478 . S
C329 C316 1.394 . S
C329 C328 1.478 . S
C329 C330 1.397 1_556 S
C330 C329 1.397 1_554 S
C330 C331 1.438 . S
C330 C335 1.429 . S
C331 C314 1.394 . S
C331 C330 1.438 . S
C331 C332 1.428 . S
C332 H324 0.949 . S
C332 C331 1.428 . S
C332 C333 1.345 . S
C333 H325 0.950 . S
C333 C332 1.345 . S
C333 C334 1.424 . S
C334 H326 0.951 . S
C334 C333 1.424 . S
C334 C335 1.347 . S
C335 H327 0.951 . S
C335 C330 1.429 . S
C335 C334 1.347 . S
H336 C337 0.951 . S
C337 H336 0.951 . S
C337 C343 1.265 1_554 S
H338 C343 0.950 . S
H339 C347 0.949 . S
H340 C348 0.950 . S
H341 C349 0.951 . S
H342 C350 0.951 . S
C343 C337 1.265 1_556 S
C343 H338 0.950 . S
C343 C344 1.478 . S
C344 C343 1.478 . S
C344 C345 1.397 . S
C344 C361 1.394 1_556 S
C345 C344 1.397 . S
C345 C346 1.438 . S
C345 C350 1.429 . S
C346 C345 1.438 . S
C346 C347 1.428 . S
C346 C359 1.394 1_556 S
C347 H339 0.949 . S
C347 C346 1.428 . S
C347 C348 1.345 . S
C348 H340 0.950 . S
C348 C347 1.345 . S
C348 C349 1.424 . S
C349 H341 0.951 . S
C349 C348 1.424 . S
C349 C350 1.347 . S
C350 H342 0.951 . S
C350 C345 1.429 . S
C350 C349 1.347 . S
H351 C352 0.951 . S
C352 H351 0.951 . S
C352 C358 1.265 1_556 S
H353 C358 0.950 . S
H354 C362 0.949 . S
H355 C363 0.950 . S
H356 C364 0.951 . S
H357 C365 0.951 . S
C358 C352 1.265 1_554 S
C358 H353 0.950 . S
C358 C359 1.478 . S
C359 C346 1.394 1_554 S
C359 C358 1.478 . S
C359 C360 1.397 . S
C360 C359 1.397 . S
C360 C361 1.438 . S
C360 C365 1.429 . S
C361 C344 1.394 1_554 S
C361 C360 1.438 . S
C361 C362 1.428 . S
C362 H354 0.949 . S
C362 C361 1.428 . S
C362 C363 1.345 . S
C363 H355 0.950 . S
C363 C362 1.345 . S
C363 C364 1.424 . S
C364 H356 0.951 . S
C364 C363 1.424 . S
C364 C365 1.347 . S
C365 H357 0.951 . S
C365 C360 1.429 . S
C365 C364 1.347 . S
H366 C367 0.951 . S
C367 H366 0.951 . S
C367 C373 1.265 . S
H368 C373 0.950 1_554 S
H369 C377 0.949 . S
H370 C378 0.950 . S
H371 C379 0.951 . S
H372 C380 0.951 . S
C373 C367 1.265 . S
C373 H368 0.950 1_556 S
C373 C374 1.478 . S
C374 C373 1.478 . S
C374 C375 1.397 1_556 S
C374 C391 1.394 . S
C375 C374 1.397 1_554 S
C375 C376 1.438 . S
C375 C380 1.429 . S
C376 C375 1.438 . S
C376 C377 1.428 . S
C376 C389 1.394 . S
C377 H369 0.949 . S
C377 C376 1.428 . S
C377 C378 1.345 . S
C378 H370 0.950 . S
C378 C377 1.345 . S
C378 C379 1.424 . S
C379 H371 0.951 . S
C379 C378 1.424 . S
C379 C380 1.347 . S
C380 H372 0.951 . S
C380 C375 1.429 . S
C380 C379 1.347 . S
H381 C382 0.951 . S
C382 H381 0.951 . S
C382 C388 1.265 . S
H383 C388 0.950 1_556 S
H384 C392 0.949 . S
H385 C393 0.950 . S
H386 C394 0.951 . S
H387 C395 0.951 . S
C388 C382 1.265 . S
C388 H383 0.950 1_554 S
C388 C389 1.478 . S
C389 C376 1.394 . S
C389 C388 1.478 . S
C389 C390 1.397 1_554 S
C390 C389 1.397 1_556 S
C390 C391 1.438 . S
C390 C395 1.429 . S
C391 C374 1.394 . S
C391 C390 1.438 . S
C391 C392 1.428 . S
C392 H384 0.949 . S
C392 C391 1.428 . S
C392 C393 1.345 . S
C393 H385 0.950 . S
C393 C392 1.345 . S
C393 C394 1.424 . S
C394 H386 0.951 . S
C394 C393 1.424 . S
C394 C395 1.347 . S
C395 H387 0.951 . S
C395 C390 1.429 . S
C395 C394 1.347 . S
H396 C397 0.951 . S
C397 H396 0.951 . S
C397 C403 1.265 . S
H398 C403 0.950 . S
H399 C407 0.949 . S
H400 C408 0.950 . S
H401 C409 0.951 . S
H402 C410 0.951 . S
C403 C397 1.265 . S
C403 H398 0.950 . S
C403 C404 1.478 . S
C404 C403 1.478 . S
C404 C405 1.397 . S
C404 C421 1.394 1_556 S
C405 C404 1.397 . S
C405 C406 1.438 . S
C405 C410 1.429 . S
C406 C405 1.438 . S
C406 C407 1.428 . S
C406 C419 1.394 1_556 S
C407 H399 0.949 . S
C407 C406 1.428 . S
C407 C408 1.345 . S
C408 H400 0.950 . S
C408 C407 1.345 . S
C408 C409 1.424 . S
C409 H401 0.951 . S
C409 C408 1.424 . S
C409 C410 1.347 . S
C410 H402 0.951 . S
C410 C405 1.429 . S
C410 C409 1.347 . S
H411 C412 0.951 . S
C412 H411 0.951 . S
C412 C418 1.265 . S
H413 C418 0.950 . S
H414 C422 0.949 . S
H415 C423 0.950 . S
H416 C424 0.951 . S
H417 C425 0.951 . S
C418 C412 1.265 . S
C418 H413 0.950 . S
C418 C419 1.478 . S
C419 C406 1.394 1_554 S
C419 C418 1.478 . S
C419 C420 1.397 . S
C420 C419 1.397 . S
C420 C421 1.438 . S
C420 C425 1.429 . S
C421 C404 1.394 1_554 S
C421 C420 1.438 . S
C421 C422 1.428 . S
C422 H414 0.949 . S
C422 C421 1.428 . S
C422 C423 1.345 . S
C423 H415 0.950 . S
C423 C422 1.345 . S
C423 C424 1.424 . S
C424 H416 0.951 . S
C424 C423 1.424 . S
C424 C425 1.347 . S
C425 H417 0.951 . S
C425 C420 1.429 . S
C425 C424 1.347 . S
H426 C427 0.951 . S
C427 H426 0.951 . S
C427 C433 1.265 1_556 S
H428 C433 0.950 . S
H429 C437 0.949 . S
H430 C438 0.950 . S
H431 C439 0.951 . S
H432 C440 0.951 . S
C433 C427 1.265 1_554 S
C433 H428 0.950 . S
C433 C434 1.478 . S
C434 C433 1.478 . S
C434 C435 1.397 . S
C434 C451 1.394 1_554 S
C435 C434 1.397 . S
C435 C436 1.438 . S
C435 C440 1.429 . S
C436 C435 1.438 . S
C436 C437 1.428 . S
C436 C449 1.394 1_554 S
C437 H429 0.949 . S
C437 C436 1.428 . S
C437 C438 1.345 . S
C438 H430 0.950 . S
C438 C437 1.345 . S
C438 C439 1.424 . S
C439 H431 0.951 . S
C439 C438 1.424 . S
C439 C440 1.347 . S
C440 H432 0.951 . S
C440 C435 1.429 . S
C440 C439 1.347 . S
H441 C442 0.951 . S
C442 H441 0.951 . S
C442 C448 1.265 1_554 S
H443 C448 0.950 . S
H444 C452 0.949 . S
H445 C453 0.950 . S
H446 C454 0.951 . S
H447 C455 0.951 . S
C448 C442 1.265 1_556 S
C448 H443 0.950 . S
C448 C449 1.478 . S
C449 C436 1.394 1_556 S
C449 C448 1.478 . S
C449 C450 1.397 . S
C450 C449 1.397 . S
C450 C451 1.438 . S
C450 C455 1.429 . S
C451 C434 1.394 1_556 S
C451 C450 1.438 . S
C451 C452 1.428 . S
C452 H444 0.949 . S
C452 C451 1.428 . S
C452 C453 1.345 . S
C453 H445 0.950 . S
C453 C452 1.345 . S
C453 C454 1.424 . S
C454 H446 0.951 . S
C454 C453 1.424 . S
C454 C455 1.347 . S
C455 H447 0.951 . S
C455 C450 1.429 . S
C455 C454 1.347 . S
H456 C457 0.951 . S
C457 H456 0.951 . S
C457 C463 1.265 . S
H458 C463 0.950 . S
H459 C467 0.949 . S
H460 C468 0.950 . S
H461 C469 0.951 . S
H462 C470 0.951 . S
C463 C457 1.265 . S
C463 H458 0.950 . S
C463 C464 1.478 . S
C464 C463 1.478 . S
C464 C465 1.397 1_554 S
C464 C481 1.394 . S
C465 C464 1.397 1_556 S
C465 C466 1.438 . S
C465 C470 1.429 . S
C466 C465 1.438 . S
C466 C467 1.428 . S
C466 C479 1.394 . S
C467 H459 0.949 . S
C467 C466 1.428 . S
C467 C468 1.345 . S
C468 H460 0.950 . S
C468 C467 1.345 . S
C468 C469 1.424 . S
C469 H461 0.951 . S
C469 C468 1.424 . S
C469 C470 1.347 . S
C470 H462 0.951 . S
C470 C465 1.429 . S
C470 C469 1.347 . S
H471 C472 0.951 . S
C472 H471 0.951 . S
C472 C478 1.265 . S
H473 C478 0.950 . S
H474 C482 0.949 . S
H475 C483 0.950 . S
H476 C484 0.951 . S
H477 C485 0.951 . S
C478 C472 1.265 . S
C478 H473 0.950 . S
C478 C479 1.478 . S
C479 C466 1.394 . S
C479 C478 1.478 . S
C479 C480 1.397 1_556 S
C480 C479 1.397 1_554 S
C480 C481 1.438 . S
C480 C485 1.429 . S
C481 C464 1.394 . S
C481 C480 1.438 . S
C481 C482 1.428 . S
C482 H474 0.949 . S
C482 C481 1.428 . S
C482 C483 1.345 . S
C483 H475 0.950 . S
C483 C482 1.345 . S
C483 C484 1.424 . S
C484 H476 0.951 . S
C484 C483 1.424 . S
C484 C485 1.347 . S
C485 H477 0.951 . S
C485 C480 1.429 . S
C485 C484 1.347 . S
H486 C487 0.951 . S
C487 H486 0.951 . S
C487 C493 1.265 . S
H488 C493 0.950 . S
H489 C497 0.949 . S
H490 C498 0.950 . S
H491 C499 0.951 . S
H492 C500 0.951 . S
C493 C487 1.265 . S
C493 H488 0.950 . S
C493 C494 1.478 . S
C494 C493 1.478 . S
C494 C495 1.397 . S
C494 C511 1.394 . S
C495 C494 1.397 . S
C495 C496 1.438 . S
C495 C500 1.429 . S
C496 C495 1.438 . S
C496 C497 1.428 . S
C496 C509 1.394 . S
C497 H489 0.949 . S
C497 C496 1.428 . S
C497 C498 1.345 . S
C498 H490 0.950 . S
C498 C497 1.345 . S
C498 C499 1.424 . S
C499 H491 0.951 . S
C499 C498 1.424 . S
C499 C500 1.347 . S
C500 H492 0.951 . S
C500 C495 1.429 . S
C500 C499 1.347 . S
H501 C502 0.951 . S
C502 H501 0.951 . S
C502 C508 1.265 . S
H503 C508 0.950 . S
H504 C512 0.949 . S
H505 C513 0.950 . S
H506 C514 0.951 . S
H507 C515 0.951 . S
C508 C502 1.265 . S
C508 H503 0.950 . S
C508 C509 1.478 . S
C509 C496 1.394 . S
C509 C508 1.478 . S
C509 C510 1.397 . S
C510 C509 1.397 . S
C510 C511 1.438 . S
C510 C515 1.429 . S
C511 C494 1.394 . S
C511 C510 1.438 . S
C511 C512 1.428 . S
C512 H504 0.949 . S
C512 C511 1.428 . S
C512 C513 1.345 . S
C513 H505 0.950 . S
C513 C512 1.345 . S
C513 C514 1.424 . S
C514 H506 0.951 . S
C514 C513 1.424 . S
C514 C515 1.347 . S
C515 H507 0.951 . S
C515 C510 1.429 . S
C515 C514 1.347 . S
H516 C517 0.951 . S
C517 H516 0.951 . S
C517 C523 1.265 . S
H518 C523 0.950 . S
H519 C527 0.949 . S
H520 C528 0.950 . S
H521 C529 0.951 . S
H522 C530 0.951 . S
C523 C517 1.265 . S
C523 H518 0.950 . S
C523 C524 1.478 . S
C524 C523 1.478 . S
C524 C525 1.397 . S
C524 C541 1.394 . S
C525 C524 1.397 . S
C525 C526 1.438 . S
C525 C530 1.429 . S
C526 C525 1.438 . S
C526 C527 1.428 . S
C526 C539 1.394 . S
C527 H519 0.949 . S
C527 C526 1.428 . S
C527 C528 1.345 . S
C528 H520 0.950 . S
C528 C527 1.345 . S
C528 C529 1.424 . S
C529 H521 0.951 . S
C529 C528 1.424 . S
C529 C530 1.347 . S
C530 H522 0.951 . S
C530 C525 1.429 . S
C530 C529 1.347 . S
H531 C532 0.951 . S
C532 H531 0.951 . S
C532 C538 1.265 . S
H533 C538 0.950 . S
H534 C542 0.949 . S
H535 C543 0.950 . S
H536 C544 0.951 . S
H537 C545 0.951 . S
C538 C532 1.265 . S
C538 H533 0.950 . S
C538 C539 1.478 . S
C539 C526 1.394 . S
C539 C538 1.478 . S
C539 C540 1.397 . S
C540 C539 1.397 . S
C540 C541 1.438 . S
C540 C545 1.429 . S
C541 C524 1.394 . S
C541 C540 1.438 . S
C541 C542 1.428 . S
C542 H534 0.949 . S
C542 C541 1.428 . S
C542 C543 1.345 . S
C543 H535 0.950 . S
C543 C542 1.345 . S
C543 C544 1.424 . S
C544 H536 0.951 . S
C544 C543 1.424 . S
C544 C545 1.347 . S
C545 H537 0.951 . S
C545 C540 1.429 . S
C545 C544 1.347 . S
H546 C547 0.951 . S
C547 H546 0.951 . S
C547 C553 1.265 . S
H548 C553 0.950 . S
H549 C557 0.949 . S
H550 C558 0.950 . S
H551 C559 0.951 . S
H552 C560 0.951 . S
C553 C547 1.265 . S
C553 H548 0.950 . S
C553 C554 1.478 . S
C554 C553 1.478 . S
C554 C555 1.397 . S
C554 C571 1.394 . S
C555 C554 1.397 . S
C555 C556 1.438 . S
C555 C560 1.429 . S
C556 C555 1.438 . S
C556 C557 1.428 . S
C556 C569 1.394 . S
C557 H549 0.949 . S
C557 C556 1.428 . S
C557 C558 1.345 . S
C558 H550 0.950 . S
C558 C557 1.345 . S
C558 C559 1.424 . S
C559 H551 0.951 . S
C559 C558 1.424 . S
C559 C560 1.347 . S
C560 H552 0.951 . S
C560 C555 1.429 . S
C560 C559 1.347 . S
H561 C562 0.951 . S
C562 H561 0.951 . S
C562 C568 1.265 . S
H563 C568 0.950 . S
H564 C572 0.949 . S
H565 C573 0.950 . S
H566 C574 0.951 . S
H567 C575 0.951 . S
C568 C562 1.265 . S
C568 H563 0.950 . S
C568 C569 1.478 . S
C569 C556 1.394 . S
C569 C568 1.478 . S
C569 C570 1.397 . S
C570 C569 1.397 . S
C570 C571 1.438 . S
C570 C575 1.429 . S
C571 C554 1.394 . S
C571 C570 1.438 . S
C571 C572 1.428 . S
C572 H564 0.949 . S
C572 C571 1.428 . S
C572 C573 1.345 . S
C573 H565 0.950 . S
C573 C572 1.345 . S
C573 C574 1.424 . S
C574 H566 0.951 . S
C574 C573 1.424 . S
C574 C575 1.347 . S
C575 H567 0.951 . S
C575 C570 1.429 . S
C575 C574 1.347 . S
H576 C577 0.951 . S
C577 H576 0.951 . S
C577 C583 1.265 . S
H578 C583 0.950 . S
H579 C587 0.949 . S
H580 C588 0.950 . S
H581 C589 0.951 . S
H582 C590 0.951 . S
C583 C577 1.265 . S
C583 H578 0.950 . S
C583 C584 1.478 . S
C584 C583 1.478 . S
C584 C585 1.397 . S
C584 C601 1.394 . S
C585 C584 1.397 . S
C585 C586 1.438 . S
C585 C590 1.429 . S
C586 C585 1.438 . S
C586 C587 1.428 . S
C586 C599 1.394 . S
C587 H579 0.949 . S
C587 C586 1.428 . S
C587 C588 1.345 . S
C588 H580 0.950 . S
C588 C587 1.345 . S
C588 C589 1.424 . S
C589 H581 0.951 . S
C589 C588 1.424 . S
C589 C590 1.347 . S
C590 H582 0.951 . S
C590 C585 1.429 . S
C590 C589 1.347 . S
H591 C592 0.951 . S
C592 H591 0.951 . S
C592 C598 1.265 . S
H593 C598 0.950 . S
H594 C602 0.949 . S
H595 C603 0.950 . S
H596 C604 0.951 . S
H597 C605 0.951 . S
C598 C592 1.265 . S
C598 H593 0.950 . S
C598 C599 1.478 . S
C599 C586 1.394 . S
C599 C598 1.478 . S
C599 C600 1.397 . S
C600 C599 1.397 . S
C600 C601 1.438 . S
C600 C605 1.429 . S
C601 C584 1.394 . S
C601 C600 1.438 . S
C601 C602 1.428 . S
C602 H594 0.949 . S
C602 C601 1.428 . S
C602 C603 1.345 . S
C603 H595 0.950 . S
C603 C602 1.345 . S
C603 C604 1.424 . S
C604 H596 0.951 . S
C604 C603 1.424 . S
C604 C605 1.347 . S
C605 H597 0.951 . S
C605 C600 1.429 . S
C605 C604 1.347 . S
H606 C607 0.951 . S
C607 H606 0.951 . S
C607 C613 1.265 . S
H608 C613 0.950 . S
H609 C617 0.949 . S
H610 C618 0.950 . S
H611 C619 0.951 . S
H612 C620 0.951 . S
C613 C607 1.265 . S
C613 H608 0.950 . S
C613 C614 1.478 . S
C614 C613 1.478 . S
C614 C615 1.397 . S
C614 C631 1.394 . S
C615 C614 1.397 . S
C615 C616 1.438 . S
C615 C620 1.429 . S
C616 C615 1.438 . S
C616 C617 1.428 . S
C616 C629 1.394 . S
C617 H609 0.949 . S
C617 C616 1.428 . S
C617 C618 1.345 . S
C618 H610 0.950 . S
C618 C617 1.345 . S
C618 C619 1.424 . S
C619 H611 0.951 . S
C619 C618 1.424 . S
C619 C620 1.347 . S
C620 H612 0.951 . S
C620 C615 1.429 . S
C620 C619 1.347 . S
H621 C622 0.951 . S
C622 H621 0.951 . S
C622 C628 1.265 . S
H623 C628 0.950 . S
H624 C632 0.949 . S
H625 C633 0.950 . S
H626 C634 0.951 . S
H627 C635 0.951 . S
C628 C622 1.265 . S
C628 H623 0.950 . S
C628 C629 1.478 . S
C629 C616 1.394 . S
C629 C628 1.478 . S
C629 C630 1.397 . S
C630 C629 1.397 . S
C630 C631 1.438 . S
C630 C635 1.429 . S
C631 C614 1.394 . S
C631 C630 1.438 . S
C631 C632 1.428 . S
C632 H624 0.949 . S
C632 C631 1.428 . S
C632 C633 1.345 . S
C633 H625 0.950 . S
C633 C632 1.345 . S
C633 C634 1.424 . S
C634 H626 0.951 . S
C634 C633 1.424 . S
C634 C635 1.347 . S
C635 H627 0.951 . S
C635 C630 1.429 . S
C635 C634 1.347 . S
H636 C637 0.951 . S
C637 H636 0.951 . S
C637 C643 1.265 . S
H638 C643 0.950 . S
H639 C647 0.949 . S
H640 C648 0.950 . S
H641 C649 0.951 . S
H642 C650 0.951 . S
C643 C637 1.265 . S
C643 H638 0.950 . S
C643 C644 1.478 . S
C644 C643 1.478 . S
C644 C645 1.397 . S
C644 C661 1.394 . S
C645 C644 1.397 . S
C645 C646 1.438 . S
C645 C650 1.429 . S
C646 C645 1.438 . S
C646 C647 1.428 . S
C646 C659 1.394 . S
C647 H639 0.949 . S
C647 C646 1.428 . S
C647 C648 1.345 . S
C648 H640 0.950 . S
C648 C647 1.345 . S
C648 C649 1.424 . S
C649 H641 0.951 . S
C649 C648 1.424 . S
C649 C650 1.347 . S
C650 H642 0.951 . S
C650 C645 1.429 . S
C650 C649 1.347 . S
H651 C652 0.951 . S
C652 H651 0.951 . S
C652 C658 1.265 . S
H653 C658 0.950 . S
H654 C662 0.949 . S
H655 C663 0.950 . S
H656 C664 0.951 . S
H657 C665 0.951 . S
C658 C652 1.265 . S
C658 H653 0.950 . S
C658 C659 1.478 . S
C659 C646 1.394 . S
C659 C658 1.478 . S
C659 C660 1.397 . S
C660 C659 1.397 . S
C660 C661 1.438 . S
C660 C665 1.429 . S
C661 C644 1.394 . S
C661 C660 1.438 . S
C661 C662 1.428 . S
C662 H654 0.949 . S
C662 C661 1.428 . S
C662 C663 1.345 . S
C663 H655 0.950 . S
C663 C662 1.345 . S
C663 C664 1.424 . S
C664 H656 0.951 . S
C664 C663 1.424 . S
C664 C665 1.347 . S
C665 H657 0.951 . S
C665 C660 1.429 . S
C665 C664 1.347 . S
C127 C121 1.298 1_554 S
C142 C3 1.204 1_556 S
C157 C16 1.348 1_554 S
C172 C24 1.263 1_556 S
C187 C37 1.320 1_554 S
C202 C58 1.224 1_556 S
C217 C79 1.194 1_556 S
C232 C45 1.284 1_554 S
C247 C100 1.220 1_556 S
C262 C66 1.316 1_554 S
C277 C87 1.248 1_554 S
C292 C108 1.178 1_556 S
C307 C103 1.466 . S
C322 C19 1.370 . S
C337 C125 1.396 . S
C352 C40 1.403 . S
C367 C62 1.465 . S
C382 C20 1.369 . S
C397 C83 1.378 . S
C412 C41 1.474 . S
C427 C104 1.388 . S
C442 C61 1.412 . S
C457 C82 1.469 . S
C472 C124 1.372 . S
C487 C7 1.370 . S
C502 C4 1.360 . S
C517 C28 1.352 . S
C532 C25 1.302 . S
C547 C46 1.307 . S
C562 C49 1.248 . S
C577 C67 1.367 . S
C592 C70 1.365 . S
C607 C91 1.269 . S
C622 C88 1.218 . S
C637 C112 1.316 . S
C652 C109 1.360 . S
