# Generated by pormake.
# Topology fcu, (12)-cn, num edge types: 1
# Building blocks:
#     Node 0, Type 0, BuildingBlock: BOTCEU_clean_sbu_0, # of connection points: 12
#     Node 1, Type 0, BuildingBlock: BOTCEU_clean_sbu_0, # of connection points: 12
#     Node 2, Type 0, BuildingBlock: BOTCEU_clean_sbu_0, # of connection points: 12
#     Node 3, Type 0, BuildingBlock: BOTCEU_clean_sbu_0, # of connection points: 12
#     Edge 4, Type (0, 0), None
#     Edge 5, Type (0, 0), None
#     Edge 6, Type (0, 0), None
#     Edge 7, Type (0, 0), None
#     Edge 8, Type (0, 0), None
#     Edge 9, Type (0, 0), None
#     Edge 10, Type (0, 0), None
#     Edge 11, Type (0, 0), None
#     Edge 12, Type (0, 0), None
#     Edge 13, Type (0, 0), None
#     Edge 14, Type (0, 0), None
#     Edge 15, Type (0, 0), None
#     Edge 16, Type (0, 0), None
#     Edge 17, Type (0, 0), None
#     Edge 18, Type (0, 0), None
#     Edge 19, Type (0, 0), None
#     Edge 20, Type (0, 0), None
#     Edge 21, Type (0, 0), None
#     Edge 22, Type (0, 0), None
#     Edge 23, Type (0, 0), None
#     Edge 24, Type (0, 0), None
#     Edge 25, Type (0, 0), None
#     Edge 26, Type (0, 0), None
#     Edge 27, Type (0, 0), None
# Relax obj value: 0.062
# Max RMSD: 0.164
# Mean RMSD: 0.164
data_MOF--net-fcu--node1-BOTCEU_clean_sbu_0--edge1-none
_symmetry_space_group_name_H-M    P1
_symmetry_Int_Tables_number       1
_symmetry_cell_setting            triclinic
loop_
_symmetry_equiv_pos_as_xyz
'x, y, z'
_cell_length_a     24.772869
_cell_length_b     24.772008
_cell_length_c     24.772538
_cell_angle_alpha  105.48029
_cell_angle_beta   105.48163
_cell_angle_gamma 105.48166
loop_
_atom_site_label
_atom_site_type_symbol
_atom_site_fract_x
_atom_site_fract_y
_atom_site_fract_z
_atom_type_partial_charge
C0 C 0.19105 0.95635 0.16737 0.0
C1 C 0.19804 0.97183 0.22806 0.0
C2 C 0.14533 0.932 0.22756 0.0
N3 N 0.13886 0.91002 0.13479 0.0
N4 N 0.11038 0.89671 0.16998 0.0
C5 C 0.23034 0.98666 0.13947 0.0
H6 H 0.20196 0.98717 0.09674 0.0
H7 H 0.25836 0.96045 0.1281 0.0
H8 H 0.25941 0.03348 0.16993 0.0
C9 C 0.13171 0.92217 0.28027 0.0
H10 H 0.11086 0.87339 0.27021 0.0
H11 H 0.09887 0.94305 0.28869 0.0
H12 H 0.17306 0.94135 0.32112 0.0
C13 C 0.9382 0.18992 0.79539 0.0
C14 C 0.03343 0.20221 0.80952 0.0
C15 C -0.01362 0.21787 0.78051 0.0
N16 N 0.95747 0.16229 0.83209 0.0
N17 N 0.01274 0.16685 0.83776 0.0
H18 H 0.86295 0.18775 0.72492 0.0
H19 H 0.8449 0.13386 0.7595 0.0
H20 H 0.86065 0.21077 0.80038 0.0
C21 C 0.87311 0.18046 0.76819 0.0
H22 H 0.10794 0.19228 0.7851 0.0
H23 H 0.12683 0.23151 0.86305 0.0
H24 H 0.11093 0.26947 0.81143 0.0
C25 C 0.09842 0.2256 0.8174 0.0
C26 C 0.03122 0.7318 0.03128 0.0
C27 C 0.07462 0.94775 0.0148 0.0
C28 C 0.94927 0.15668 0.20882 0.0
N29 N 0.90296 0.1241 0.15662 0.0
N30 N 0.88967 0.15928 0.12813 0.0
C31 C 0.96478 0.21737 0.21579 0.0
C32 C 0.92497 0.21686 0.16307 0.0
H33 H 0.98007 0.08603 0.21975 0.0
H34 H 0.95336 0.11742 0.27614 0.0
H35 H 0.0264 0.15923 0.27719 0.0
C36 C 0.97957 0.12877 0.24812 0.0
H37 H 0.86637 0.25951 0.12858 0.0
H38 H 0.93603 0.27798 0.11659 0.0
H39 H 0.93432 0.31042 0.19079 0.0
C40 C 0.91515 0.26956 0.14944 0.0
C41 C 0.18289 0.78475 0.95595 0.0
C42 C 0.19512 0.79883 0.05117 0.0
N43 N 0.15525 0.82143 0.97521 0.0
N44 N 0.15978 0.82709 0.03047 0.0
C45 C 0.21081 0.76984 0.00413 0.0
H46 H 0.18069 0.71426 0.8807 0.0
H47 H 0.1268 0.74883 0.86265 0.0
H48 H 0.2037 0.78971 0.87837 0.0
C49 C 0.17341 0.75752 0.89085 0.0
C50 C 0.21851 0.80673 0.11616 0.0
H51 H 0.18519 0.77443 0.12569 0.0
H52 H 0.22442 0.85239 0.14456 0.0
H53 H 0.26238 0.80076 0.12867 0.0
C54 C 0.72475 0.02057 0.04893 0.0
C55 C 0.94071 0.00413 0.09243 0.0
C56 C 0.14965 0.19813 0.967 0.0
N57 N 0.11707 0.14593 0.92069 0.0
C58 C 0.21034 0.20512 0.9825 0.0
N59 N 0.15226 0.11745 0.90739 0.0
C60 C 0.20983 0.1524 0.94267 0.0
H61 H 0.07901 0.20904 0.99782 0.0
H62 H 0.11038 0.26545 0.97112 0.0
H63 H 0.15221 0.26649 0.04414 0.0
C64 C 0.12175 0.23742 0.99732 0.0
H65 H 0.25249 0.11793 0.88407 0.0
C66 C 0.26254 0.13878 0.93285 0.0
H67 H 0.3034 0.18013 0.95203 0.0
H68 H 0.27096 0.10593 0.95372 0.0
C69 C 0.77766 0.94524 0.20062 0.0
C70 C 0.79173 0.04045 0.21285 0.0
N71 N 0.81435 0.96451 0.173 0.0
N72 N 0.82 0.01977 0.17752 0.0
C73 C 0.76274 -0.00659 0.22853 0.0
H74 H 0.70717 0.86999 0.19843 0.0
C75 C 0.75044 0.88014 0.19116 0.0
H76 H 0.78263 0.86767 0.22146 0.0
H77 H 0.74176 0.85194 0.14456 0.0
H78 H 0.76732 0.11497 0.20289 0.0
H79 H 0.84527 0.13385 0.24215 0.0
C80 C 0.79961 0.10545 0.23622 0.0
H81 H 0.79362 0.11796 0.28008 0.0
C82 C 0.01358 0.03833 0.74247 0.0
C83 C -0.0029 0.08169 0.95841 0.0
C84 C 0.75225 0.0582 0.83318 0.0
N85 N 0.80994 0.09248 0.86807 0.0
C86 C 0.75126 0.01783 0.78064 0.0
C87 C 0.81215 0.03156 0.78816 0.0
N88 N 0.84518 0.07776 0.84041 0.0
C89 C 0.70016 0.06713 0.84881 0.0
H90 H 0.71053 0.11576 0.87142 0.0
H91 H 0.65872 0.0487 0.80813 0.0
H92 H 0.69271 0.04493 0.881 0.0
C93 C 0.83976 -0.00176 0.75081 0.0
H94 H 0.88191 -0.00225 0.78051 0.0
H95 H 0.80851 0.95137 0.72307 0.0
H96 H 0.85229 0.02221 0.72146 0.0
C97 C 0.01791 0.75911 0.20289 0.0
C98 C -0.01316 0.75518 0.24233 0.0
C99 C 0.9547 0.79333 0.23654 0.0
N100 N 0.00505 0.79783 0.17718 0.0
N101 N 0.96549 0.81617 0.19544 0.0
H102 H 0.10239 0.74889 0.21029 0.0
H103 H 0.04663 0.71268 0.13667 0.0
H104 H 0.0404 0.67942 0.19181 0.0
C105 C 0.05378 0.72262 0.18469 0.0
C106 C 0.91907 0.81275 0.27286 0.0
H107 H 0.93109 0.80503 0.31583 0.0
H108 H 0.92795 0.86114 0.28347 0.0
H109 H 0.87032 0.78876 0.24609 0.0
C110 C 0.95591 0.2462 0.96517 0.0
C111 C 0.84578 0.03245 0.96298 0.0
C112 C 0.05118 0.82251 0.76997 0.0
C113 C 0.01079 0.76998 0.76899 0.0
C114 C 0.02452 0.77751 0.82987 0.0
N115 N 0.08547 0.85739 0.82766 0.0
N116 N 0.07075 0.82974 0.86291 0.0
C117 C 0.06011 0.83813 0.71788 0.0
H118 H 0.10874 0.86076 0.72825 0.0
H119 H 0.04168 0.79746 0.67644 0.0
H120 H 0.0379 0.87032 0.71043 0.0
C121 C -0.00883 0.74018 0.8575 0.0
H122 H -0.00931 0.76991 0.89963 0.0
H123 H 0.9443 0.71246 0.82624 0.0
H124 H 0.01512 0.71082 0.87004 0.0
C125 C 0.75209 0.19219 0.03565 0.0
C126 C 0.74816 0.23162 0.00456 0.0
C127 C 0.78631 0.22583 0.97242 0.0
N128 N 0.79081 0.16648 0.02278 0.0
N129 N 0.80914 0.18473 0.98322 0.0
C130 C 0.71561 0.174 0.07152 0.0
H131 H 0.74189 0.19962 0.12014 0.0
H132 H 0.70568 0.12599 0.06439 0.0
H133 H 0.67241 0.18112 0.05813 0.0
C134 C 0.80572 0.26213 0.93677 0.0
H135 H 0.79801 0.30511 0.9488 0.0
H136 H 0.8541 0.27272 0.94563 0.0
H137 H 0.78171 0.23535 0.88802 0.0
C138 C 0.23915 0.95453 0.97366 0.0
C139 C 0.02541 0.95228 0.86344 0.0
C140 C 0.81544 0.75927 0.06893 0.0
N141 N 0.85033 0.81696 0.10321 0.0
N142 N 0.82267 0.85221 0.08849 0.0
C143 C 0.76291 0.75829 0.02856 0.0
C144 C 0.77042 0.81918 0.04229 0.0
H145 H 0.85367 0.71756 0.1265 0.0
H146 H 0.79038 0.66574 0.05944 0.0
H147 H 0.86325 0.69972 0.05567 0.0
C148 C 0.83106 0.70718 0.07787 0.0
H149 H 0.76282 0.88894 0.00845 0.0
H150 H 0.70537 0.81555 0.96208 0.0
H151 H 0.70375 0.85935 0.0329 0.0
C152 C 0.7331 0.8468 0.00895 0.0
C153 C 0.18517 0.02494 0.7698 0.0
N154 N 0.15947 0.01211 0.80854 0.0
N155 N 0.17775 0.97258 0.82691 0.0
C156 C 0.2246 -0.00615 0.76587 0.0
C157 C 0.21881 0.96173 0.80404 0.0
C158 C 0.16693 0.06074 0.73325 0.0
H159 H 0.19248 0.10938 0.75949 0.0
H160 H 0.1189 0.05353 0.72326 0.0
H161 H 0.1741 0.04736 0.69008 0.0
C162 C 0.25511 0.92608 0.82346 0.0
H163 H 0.29809 0.93811 0.81577 0.0
H164 H 0.26569 0.93494 0.87185 0.0
H165 H 0.22833 0.87733 0.79945 0.0
C166 C 0.94743 0.96293 0.25692 0.0
C167 C 0.94522 0.8528 0.04317 0.0
Cu168 Cu 0.10628 0.85681 0.05585 0.0
Cu169 Cu 0.03467 0.8352 0.12922 0.0
Cu170 Cu 0.84975 0.04516 0.12404 0.0
Cu171 Cu 0.82817 0.11852 0.05241 0.0
Cu172 Cu 0.03813 0.11335 0.86748 0.0
Cu173 Cu 0.11149 0.04174 0.84587 0.0
Cu174 Cu 0.85109 0.14336 0.94803 0.0
Cu175 Cu 0.92629 0.12541 0.87857 0.0
Cu176 Cu 0.13633 0.93736 0.86882 0.0
Cu177 Cu 0.11837 0.86791 0.94402 0.0
Cu178 Cu 0.9303 0.85812 0.15408 0.0
Cu179 Cu 0.86084 0.93332 0.13613 0.0
H180 H -0.0087 0.70511 0.03767 0.0
H181 H 0.07145 0.72288 0.05319 0.0
H182 H 0.02242 0.71887 0.98243 0.0
H183 H 0.08269 0.96425 0.06355 0.0
H184 H 0.02956 0.94608 0.98945 0.0
H185 H 0.10951 0.97896 0.00592 0.0
H186 H 0.69808 0.02698 0.00902 0.0
H187 H 0.71581 0.04245 0.08915 0.0
H188 H 0.71182 0.97171 0.0401 0.0
H189 H 0.95721 0.05288 0.1005 0.0
H190 H 0.93906 0.97879 0.04737 0.0
H191 H 0.97191 -0.00476 0.12732 0.0
H192 H 0.01989 -0.00163 0.71577 0.0
H193 H 0.03555 0.07854 0.73356 0.0
H194 H 0.96474 0.02961 0.72955 0.0
H195 H 0.04585 0.08977 0.97492 0.0
H196 H 0.97176 0.03663 0.95675 0.0
H197 H -0.01179 0.11657 0.98963 0.0
H198 H 0.00524 0.25888 0.97821 0.0
H199 H 0.93847 0.2588 0.92612 0.0
H200 H 0.94619 0.27016 0.00399 0.0
H201 H 0.86666 0.02557 0.92862 0.0
H202 H 0.86078 0.0109 0.99476 0.0
H203 H 0.79614 0.01166 0.94044 0.0
H204 H 0.25183 0.96758 0.02299 0.0
H205 H 0.25175 0.91547 0.95624 0.0
H206 H 0.26312 -0.00667 0.96392 0.0
H207 H 0.01852 0.91794 0.88435 0.0
H208 H 0.00384 0.98406 0.87838 0.0
H209 H 0.00465 0.92972 0.8138 0.0
H210 H 0.96043 0.01226 0.2696 0.0
H211 H 0.90837 0.94547 0.26951 0.0
H212 H -0.01375 0.95323 0.28089 0.0
H213 H 0.91086 0.87368 0.03629 0.0
H214 H 0.977 0.8678 0.02161 0.0
H215 H 0.92269 0.80316 0.02238 0.0
O216 O 0.04124 0.79176 0.05542 0.0
O217 O 0.07711 0.89129 0.99741 0.0
O218 O 0.78471 0.04472 0.05899 0.0
O219 O 0.88424 0.98672 0.09489 0.0
O220 O 0.03771 0.04833 0.80242 0.0
O221 O 0.9797 0.08417 0.90196 0.0
O222 O 0.9296 0.18541 0.94982 0.0
O223 O 0.86198 0.0928 0.99336 0.0
O224 O 0.17836 0.93917 0.94734 0.0
O225 O 0.08576 0.98267 0.87967 0.0
O226 O 0.93209 0.93663 0.19613 0.0
O227 O 0.97561 0.86901 0.10351 0.0
C228 C 0.19105 0.45636 0.66734 0.0
C229 C 0.19804 0.47184 0.72804 0.0
C230 C 0.14533 0.43201 0.72753 0.0
N231 N 0.13886 0.41003 0.63477 0.0
N232 N 0.11038 0.39672 0.66996 0.0
C233 C 0.23034 0.48667 0.63945 0.0
H234 H 0.20197 0.48718 0.59671 0.0
H235 H 0.25836 0.46046 0.62807 0.0
H236 H 0.25941 0.5335 0.66991 0.0
C237 C 0.13172 0.42218 0.78024 0.0
H238 H 0.11086 0.37341 0.77018 0.0
H239 H 0.09887 0.44307 0.78866 0.0
H240 H 0.17307 0.44136 0.82109 0.0
C241 C 0.9382 0.68992 0.29543 0.0
C242 C 0.03343 0.70222 0.30956 0.0
C243 C -0.01362 0.71788 0.28054 0.0
N244 N 0.95747 0.6623 0.33212 0.0
N245 N 0.01274 0.66686 0.33779 0.0
H246 H 0.86295 0.68776 0.22496 0.0
H247 H 0.84489 0.63388 0.25954 0.0
H248 H 0.86065 0.71078 0.30043 0.0
C249 C 0.87311 0.68048 0.26822 0.0
H250 H 0.10795 0.69229 0.28514 0.0
H251 H 0.12683 0.73153 0.3631 0.0
H252 H 0.11093 0.76948 0.31147 0.0
C253 C 0.09842 0.72561 0.31744 0.0
C254 C 0.03121 0.23181 0.53124 0.0
C255 C 0.07463 0.44775 0.51477 0.0
C256 C 0.94924 0.65668 0.70884 0.0
N257 N 0.90293 0.6241 0.65664 0.0
N258 N 0.88964 0.65928 0.62814 0.0
C259 C 0.96472 0.71737 0.71583 0.0
C260 C 0.92492 0.71686 0.6631 0.0
H261 H 0.98005 0.58605 0.71977 0.0
H262 H 0.95334 0.61743 0.77617 0.0
H263 H 0.02637 0.65925 0.77721 0.0
C264 C 0.97955 0.62879 0.74814 0.0
H265 H 0.86631 0.7595 0.62862 0.0
H266 H 0.93596 0.77798 0.61661 0.0
H267 H 0.93426 0.81043 0.69081 0.0
C268 C 0.91508 0.76956 0.64947 0.0
C269 C 0.1829 0.28475 0.45594 0.0
C270 C 0.19512 0.29884 0.55116 0.0
N271 N 0.15526 0.32144 0.4752 0.0
N272 N 0.15979 0.3271 0.53046 0.0
C273 C 0.21082 0.26985 0.50412 0.0
H274 H 0.1807 0.21425 0.3807 0.0
H275 H 0.12683 0.24884 0.36264 0.0
H276 H 0.20373 0.28971 0.37837 0.0
C277 C 0.17343 0.25752 0.39085 0.0
C278 C 0.2185 0.30674 0.61615 0.0
H279 H 0.18517 0.27445 0.62568 0.0
H280 H 0.22442 0.3524 0.64455 0.0
H281 H 0.26236 0.30076 0.62867 0.0
C282 C 0.72473 0.52059 0.54899 0.0
C283 C 0.94069 0.50414 0.59243 0.0
C284 C 0.14965 0.69811 0.46702 0.0
N285 N 0.11707 0.64592 0.4207 0.0
C286 C 0.21034 0.70511 0.4825 0.0
N287 N 0.15226 0.61745 0.40739 0.0
C288 C 0.20984 0.6524 0.44267 0.0
H289 H 0.07902 0.70901 0.49786 0.0
H290 H 0.11037 0.76542 0.47116 0.0
H291 H 0.15221 0.76646 0.54417 0.0
C292 C 0.12175 0.73739 0.49735 0.0
H293 H 0.25248 0.61796 0.38404 0.0
C294 C 0.26254 0.6388 0.43282 0.0
H295 H 0.30339 0.68015 0.452 0.0
H296 H 0.27097 0.60594 0.45369 0.0
C297 C 0.77766 0.44523 0.70065 0.0
C298 C 0.79173 0.54045 0.71288 0.0
N299 N 0.81435 0.4645 0.67302 0.0
N300 N 0.82 0.51977 0.67755 0.0
C301 C 0.76274 0.4934 0.72856 0.0
H302 H 0.70718 0.36997 0.69845 0.0
C303 C 0.75046 0.38014 0.69118 0.0
H304 H 0.78265 0.36767 0.72149 0.0
H305 H 0.74178 0.35193 0.64458 0.0
H306 H 0.76732 0.61496 0.70293 0.0
H307 H 0.84527 0.63385 0.74219 0.0
C308 C 0.79961 0.60544 0.73626 0.0
H309 H 0.79362 0.61795 0.78012 0.0
C310 C 0.01358 0.53836 0.24247 0.0
C311 C -0.00291 0.58164 0.45841 0.0
C312 C 0.75224 0.55818 0.3332 0.0
N313 N 0.80993 0.59247 0.36808 0.0
C314 C 0.75126 0.51781 0.28066 0.0
C315 C 0.81214 0.53155 0.28818 0.0
N316 N 0.84518 0.57775 0.34042 0.0
C317 C 0.70015 0.56712 0.34882 0.0
H318 H 0.71052 0.61574 0.37144 0.0
H319 H 0.65871 0.54868 0.30814 0.0
H320 H 0.6927 0.54491 0.38101 0.0
C321 C 0.83976 0.49823 0.25082 0.0
H322 H 0.88191 0.49774 0.28053 0.0
H323 H 0.80851 0.45136 0.22309 0.0
H324 H 0.85229 0.5222 0.22148 0.0
C325 C 0.01792 0.25911 0.70285 0.0
C326 C -0.01317 0.25516 0.74228 0.0
C327 C 0.9547 0.29333 0.73651 0.0
N328 N 0.00506 0.29784 0.67716 0.0
N329 N 0.9655 0.31617 0.69542 0.0
H330 H 0.1024 0.24889 0.71026 0.0
H331 H 0.04664 0.21269 0.63663 0.0
H332 H 0.0404 0.17942 0.69177 0.0
C333 C 0.05378 0.22262 0.68465 0.0
C334 C 0.91907 0.31274 0.77283 0.0
H335 H 0.9311 0.30501 0.8158 0.0
H336 H 0.92795 0.36113 0.78344 0.0
H337 H 0.87032 0.28875 0.74606 0.0
C338 C 0.95592 0.74618 0.46523 0.0
C339 C 0.84574 0.53243 0.463 0.0
C340 C 0.05123 0.32251 0.26995 0.0
C341 C 0.01085 0.26998 0.26896 0.0
C342 C 0.02456 0.2775 0.32984 0.0
N343 N 0.0855 0.3574 0.32764 0.0
N344 N 0.07077 0.32974 0.36288 0.0
C345 C 0.06017 0.33814 0.21786 0.0
H346 H 0.10879 0.36076 0.22824 0.0
H347 H 0.04175 0.29746 0.17642 0.0
H348 H 0.03796 0.37032 0.2104 0.0
C349 C -0.0088 0.24017 0.35746 0.0
H350 H -0.00929 0.2699 0.39959 0.0
H351 H 0.94433 0.21245 0.3262 0.0
H352 H 0.01515 0.21082 0.37001 0.0
C353 C 0.75207 0.69218 0.53564 0.0
C354 C 0.74815 0.73162 0.50455 0.0
C355 C 0.78631 0.72582 0.47242 0.0
N356 N 0.79079 0.66647 0.52278 0.0
N357 N 0.80913 0.68472 0.48323 0.0
C358 C 0.71557 0.674 0.57149 0.0
H359 H 0.74184 0.69959 0.62011 0.0
H360 H 0.70561 0.62597 0.56434 0.0
H361 H 0.67238 0.68114 0.55811 0.0
C362 C 0.80572 0.7621 0.43676 0.0
H363 H 0.79803 0.8051 0.44879 0.0
H364 H 0.8541 0.77267 0.4456 0.0
H365 H 0.78169 0.73532 0.38801 0.0
C366 C 0.23917 0.45453 0.47364 0.0
C367 C 0.02542 0.45227 0.3634 0.0
C368 C 0.81545 0.25928 0.56891 0.0
N369 N 0.85034 0.31697 0.6032 0.0
N370 N 0.82267 0.35222 0.58849 0.0
C371 C 0.76291 0.2583 0.52856 0.0
C372 C 0.77042 0.31918 0.5423 0.0
H373 H 0.8537 0.21755 0.62647 0.0
H374 H 0.7904 0.16574 0.55941 0.0
H375 H 0.86326 0.19974 0.55564 0.0
C376 C 0.83108 0.20718 0.57784 0.0
H377 H 0.7628 0.38895 0.50848 0.0
H378 H 0.70535 0.31556 0.4621 0.0
H379 H 0.70373 0.35934 0.53293 0.0
C380 C 0.73308 0.34681 0.50897 0.0
C381 C 0.18517 0.52496 0.26978 0.0
N382 N 0.15948 0.51212 0.30852 0.0
N383 N 0.17776 0.4726 0.32689 0.0
C384 C 0.2246 0.49387 0.26585 0.0
C385 C 0.21882 0.46175 0.30402 0.0
C386 C 0.16692 0.56075 0.23322 0.0
H387 H 0.19246 0.60939 0.25946 0.0
H388 H 0.11888 0.55353 0.22323 0.0
H389 H 0.17409 0.54737 0.19005 0.0
C390 C 0.25514 0.42612 0.32346 0.0
H391 H 0.29812 0.43815 0.31574 0.0
H392 H 0.26574 0.43501 0.37185 0.0
H393 H 0.22837 0.37737 0.29946 0.0
C394 C 0.94744 0.46293 0.75692 0.0
C395 C 0.94523 0.35282 0.54315 0.0
Cu396 Cu 0.10628 0.35682 0.55583 0.0
Cu397 Cu 0.03467 0.33521 0.6292 0.0
Cu398 Cu 0.84973 0.54516 0.62405 0.0
Cu399 Cu 0.82814 0.61851 0.55243 0.0
Cu400 Cu 0.03813 0.61334 0.36749 0.0
Cu401 Cu 0.1115 0.54174 0.34586 0.0
Cu402 Cu 0.85108 0.64334 0.44805 0.0
Cu403 Cu 0.92629 0.6254 0.37859 0.0
Cu404 Cu 0.13635 0.43737 0.3688 0.0
Cu405 Cu 0.11838 0.36791 0.444 0.0
Cu406 Cu 0.9303 0.35812 0.65406 0.0
Cu407 Cu 0.86083 0.43332 0.63614 0.0
H408 H -0.0087 0.20513 0.53764 0.0
H409 H 0.07144 0.22288 0.55314 0.0
H410 H 0.0224 0.21889 0.48239 0.0
H411 H 0.08269 0.46426 0.56351 0.0
H412 H 0.02957 0.44609 0.48942 0.0
H413 H 0.10952 0.47897 0.50589 0.0
H414 H 0.69804 0.52696 0.50906 0.0
H415 H 0.71581 0.54252 0.58921 0.0
H416 H 0.7118 0.47174 0.54022 0.0
H417 H 0.95719 0.55289 0.60051 0.0
H418 H 0.93905 0.47881 0.54738 0.0
H419 H 0.9719 0.49526 0.62733 0.0
H420 H 0.01988 0.49839 0.21576 0.0
H421 H 0.03557 0.57857 0.23357 0.0
H422 H 0.96475 0.52966 0.22956 0.0
H423 H 0.04584 0.58972 0.47492 0.0
H424 H 0.97175 0.53658 0.45673 0.0
H425 H -0.0118 0.61652 0.48964 0.0
H426 H 0.00525 0.75885 0.47832 0.0
H427 H 0.93853 0.75879 0.42618 0.0
H428 H 0.94616 0.77013 0.50402 0.0
H429 H 0.86665 0.52554 0.42866 0.0
H430 H 0.8607 0.51087 0.49478 0.0
H431 H 0.7961 0.51166 0.44043 0.0
H432 H 0.25184 0.46756 0.52296 0.0
H433 H 0.25176 0.41547 0.4562 0.0
H434 H 0.26314 0.49334 0.46392 0.0
H435 H 0.01852 0.41793 0.38431 0.0
H436 H 0.00384 0.48404 0.37835 0.0
H437 H 0.00467 0.42971 0.31376 0.0
H438 H 0.96046 0.51226 0.7696 0.0
H439 H 0.90839 0.44548 0.76952 0.0
H440 H -0.01373 0.45322 0.78088 0.0
H441 H 0.91085 0.37369 0.53628 0.0
H442 H 0.977 0.36784 0.5216 0.0
H443 H 0.9227 0.30318 0.52236 0.0
O444 O 0.04125 0.29177 0.5554 0.0
O445 O 0.07712 0.3913 0.49738 0.0
O446 O 0.78468 0.54472 0.55901 0.0
O447 O 0.88423 0.48673 0.5949 0.0
O448 O 0.03771 0.54834 0.30242 0.0
O449 O 0.97969 0.58415 0.40196 0.0
O450 O 0.9296 0.68538 0.44985 0.0
O451 O 0.86195 0.59278 0.49338 0.0
O452 O 0.17838 0.43918 0.44732 0.0
O453 O 0.08576 0.48267 0.37965 0.0
O454 O 0.93209 0.43664 0.69613 0.0
O455 O 0.97561 0.36902 0.6035 0.0
C456 C 0.69109 0.95631 0.66734 0.0
C457 C 0.6981 0.97176 0.72804 0.0
C458 C 0.64539 0.93194 0.72753 0.0
N459 N 0.6389 0.90999 0.63476 0.0
N460 N 0.61042 0.89667 0.66995 0.0
C461 C 0.73038 0.98664 0.63945 0.0
H462 H 0.702 0.98715 0.59672 0.0
H463 H 0.7584 0.96043 0.62807 0.0
H464 H 0.75945 0.03346 0.66992 0.0
C465 C 0.63177 0.92209 0.78023 0.0
H466 H 0.61093 0.87331 0.77017 0.0
H467 H 0.59892 0.94296 0.78866 0.0
H468 H 0.67312 0.94128 0.82109 0.0
C469 C 0.43817 0.18995 0.29546 0.0
C470 C 0.5334 0.20222 0.30958 0.0
C471 C 0.48635 0.21789 0.28056 0.0
N472 N 0.45744 0.16233 0.33216 0.0
N473 N 0.5127 0.16688 0.33783 0.0
H474 H 0.36292 0.18777 0.22497 0.0
H475 H 0.34486 0.13393 0.2596 0.0
H476 H 0.36064 0.21085 0.30045 0.0
C477 C 0.37308 0.18052 0.26826 0.0
H478 H 0.6079 0.19224 0.28517 0.0
H479 H 0.62679 0.23154 0.36311 0.0
H480 H 0.61089 0.26944 0.31142 0.0
C481 C 0.59839 0.22559 0.31744 0.0
C482 C 0.53136 0.73177 0.53128 0.0
C483 C 0.57463 0.94771 0.51478 0.0
C484 C 0.44929 0.15667 0.70881 0.0
N485 N 0.40296 0.12409 0.65662 0.0
N486 N 0.38964 0.15928 0.62815 0.0
C487 C 0.46476 0.21736 0.71581 0.0
C488 C 0.42492 0.21686 0.6631 0.0
H489 H 0.48015 0.08605 0.71969 0.0
H490 H 0.45344 0.11737 0.77611 0.0
H491 H 0.52645 0.15924 0.77714 0.0
C492 C 0.47963 0.12877 0.74808 0.0
H493 H 0.36627 0.25949 0.62868 0.0
H494 H 0.4359 0.278 0.61664 0.0
H495 H 0.43423 0.31041 0.69086 0.0
C496 C 0.41505 0.26956 0.64951 0.0
C497 C 0.68295 0.78476 0.45592 0.0
C498 C 0.69519 0.79885 0.55113 0.0
N499 N 0.65531 0.82144 0.47518 0.0
N500 N 0.65985 0.8271 0.53045 0.0
C501 C 0.71087 0.76985 0.50409 0.0
H502 H 0.68072 0.71425 0.38066 0.0
H503 H 0.62687 0.74887 0.36262 0.0
H504 H 0.70378 0.78971 0.37835 0.0
C505 C 0.67347 0.75754 0.39082 0.0
C506 C 0.71859 0.80676 0.61614 0.0
H507 H 0.68528 0.77447 0.62568 0.0
H508 H 0.72452 0.85242 0.64452 0.0
H509 H 0.76246 0.80078 0.62864 0.0
C510 C 0.22473 0.0206 0.54909 0.0
C511 C 0.44067 0.00411 0.59233 0.0
C512 C 0.64961 0.19813 0.46703 0.0
N513 N 0.61702 0.14593 0.42072 0.0
C514 C 0.7103 0.20514 0.48249 0.0
N515 N 0.65221 0.11746 0.4074 0.0
C516 C 0.70979 0.15242 0.44267 0.0
H517 H 0.57899 0.20904 0.49788 0.0
H518 H 0.61034 0.26545 0.47117 0.0
H519 H 0.65219 0.26648 0.54419 0.0
C520 C 0.62172 0.23742 0.49737 0.0
H521 H 0.75243 0.11797 0.38403 0.0
C522 C 0.76249 0.13881 0.43281 0.0
H523 H 0.80335 0.18016 0.452 0.0
H524 H 0.77092 0.10594 0.45367 0.0
C525 C 0.27775 0.94522 0.70068 0.0
C526 C 0.29182 0.04044 0.71291 0.0
N527 N 0.31443 0.9645 0.67304 0.0
N528 N 0.32008 0.01976 0.67758 0.0
C529 C 0.26283 -0.00661 0.72859 0.0
H530 H 0.20726 0.86996 0.69847 0.0
C531 C 0.25054 0.88013 0.69121 0.0
H532 H 0.28273 0.86767 0.72153 0.0
H533 H 0.24187 0.85192 0.64462 0.0
H534 H 0.26743 0.11497 0.70298 0.0
H535 H 0.34537 0.13384 0.74225 0.0
C536 C 0.29971 0.10544 0.73631 0.0
H537 H 0.29371 0.11793 0.78016 0.0
C538 C 0.5135 0.03835 0.2425 0.0
C539 C 0.49704 0.08167 0.45845 0.0
C540 C 0.2522 0.05825 0.33321 0.0
N541 N 0.30989 0.09251 0.36811 0.0
C542 C 0.25121 0.01789 0.28067 0.0
C543 C 0.31209 0.0316 0.2882 0.0
N544 N 0.34513 0.07779 0.34045 0.0
C545 C 0.20011 0.0672 0.34883 0.0
H546 H 0.21049 0.11583 0.37145 0.0
H547 H 0.15867 0.04877 0.30816 0.0
H548 H 0.19265 0.045 0.38102 0.0
C549 C 0.33971 -0.00173 0.25084 0.0
H550 H 0.38185 -0.00222 0.28055 0.0
H551 H 0.30845 0.9514 0.22311 0.0
H552 H 0.35224 0.02225 0.2215 0.0
C553 C 0.51792 0.75907 0.70285 0.0
C554 C 0.48684 0.75516 0.7423 0.0
C555 C 0.45473 0.79333 0.73651 0.0
N556 N 0.50508 0.7978 0.67715 0.0
N557 N 0.46554 0.81616 0.69541 0.0
H558 H 0.60237 0.74878 0.7102 0.0
H559 H 0.54654 0.71254 0.63661 0.0
H560 H 0.54036 0.67936 0.69181 0.0
C561 C 0.55374 0.72253 0.68464 0.0
C562 C 0.41909 0.81276 0.77281 0.0
H563 H 0.43112 0.80506 0.8158 0.0
H564 H 0.42797 0.86115 0.7834 0.0
H565 H 0.37034 0.78877 0.74604 0.0
C566 C 0.45588 0.2462 0.46527 0.0
C567 C 0.34565 0.03243 0.46298 0.0
C568 C 0.55118 0.82253 0.26995 0.0
C569 C 0.51081 0.76999 0.26897 0.0
C570 C 0.52456 0.77749 0.32985 0.0
N571 N 0.58547 0.85741 0.32764 0.0
N572 N 0.57077 0.82973 0.36288 0.0
C573 C 0.56007 0.83818 0.21786 0.0
H574 H 0.60869 0.86082 0.22822 0.0
H575 H 0.54164 0.79751 0.17641 0.0
H576 H 0.53785 0.87036 0.21043 0.0
C577 C 0.49125 0.74014 0.35747 0.0
H578 H 0.49076 0.76985 0.39962 0.0
H579 H 0.44437 0.71241 0.32623 0.0
H580 H 0.51522 0.71079 0.37 0.0
C581 C 0.25202 0.19218 0.53568 0.0
C582 C 0.24809 0.23161 0.50459 0.0
C583 C 0.28627 0.22584 0.47247 0.0
N584 N 0.29075 0.16648 0.52283 0.0
N585 N 0.3091 0.18474 0.48328 0.0
C586 C 0.21551 0.17398 0.57152 0.0
H587 H 0.24177 0.19957 0.62014 0.0
H588 H 0.20555 0.12595 0.56435 0.0
H589 H 0.17232 0.18112 0.55813 0.0
C590 C 0.30569 0.26214 0.43682 0.0
H591 H 0.29798 0.30512 0.44885 0.0
H592 H 0.35407 0.27273 0.4457 0.0
H593 H 0.28169 0.23536 0.38808 0.0
C594 C 0.73916 0.95457 0.47363 0.0
C595 C 0.52539 0.95228 0.36345 0.0
C596 C 0.31549 0.75926 0.56891 0.0
N597 N 0.35039 0.81695 0.60319 0.0
N598 N 0.32272 0.8522 0.58848 0.0
C599 C 0.26295 0.75828 0.52857 0.0
C600 C 0.27046 0.81916 0.5423 0.0
H601 H 0.35374 0.71755 0.62647 0.0
H602 H 0.29045 0.66573 0.55942 0.0
H603 H 0.36332 0.69973 0.55565 0.0
C604 C 0.33113 0.70717 0.57785 0.0
H605 H 0.26282 0.88893 0.50848 0.0
H606 H 0.20538 0.81553 0.4621 0.0
H607 H 0.20376 0.85931 0.53293 0.0
C608 C 0.23311 0.84678 0.50897 0.0
C609 C 0.68509 0.02497 0.26977 0.0
N610 N 0.65942 0.01214 0.30852 0.0
N611 N 0.67771 0.97261 0.32689 0.0
C612 C 0.72451 -0.00613 0.26582 0.0
C613 C 0.71875 0.96176 0.304 0.0
C614 C 0.66685 0.06078 0.23323 0.0
H615 H 0.6924 0.10941 0.25947 0.0
H616 H 0.61882 0.05357 0.22326 0.0
H617 H 0.674 0.04739 0.19004 0.0
C618 C 0.75507 0.92613 0.32342 0.0
H619 H 0.79805 0.93816 0.31571 0.0
H620 H 0.76567 0.93501 0.37181 0.0
H621 H 0.7283 0.87738 0.29943 0.0
C622 C 0.44758 0.96296 0.75688 0.0
C623 C 0.44526 0.85272 0.54311 0.0
Cu624 Cu 0.60632 0.85679 0.55582 0.0
Cu625 Cu 0.53472 0.83515 0.62918 0.0
Cu626 Cu 0.34976 0.04515 0.62405 0.0
Cu627 Cu 0.3281 0.11851 0.55245 0.0
Cu628 Cu 0.53808 0.11336 0.36752 0.0
Cu629 Cu 0.61145 0.04175 0.34587 0.0
Cu630 Cu 0.35104 0.14336 0.44808 0.0
Cu631 Cu 0.42624 0.12543 0.37862 0.0
Cu632 Cu 0.63631 0.93739 0.3688 0.0
Cu633 Cu 0.6184 0.86791 0.44399 0.0
Cu634 Cu 0.43036 0.8581 0.65403 0.0
Cu635 Cu 0.36089 0.93331 0.63612 0.0
H636 H 0.4914 0.70504 0.53759 0.0
H637 H 0.57158 0.72289 0.55329 0.0
H638 H 0.52266 0.71884 0.48245 0.0
H639 H 0.5827 0.96421 0.56353 0.0
H640 H 0.52957 0.94603 0.48944 0.0
H641 H 0.60951 0.97894 0.5059 0.0
H642 H 0.19801 0.02693 0.50914 0.0
H643 H 0.21585 0.04258 0.58932 0.0
H644 H 0.21181 0.97176 0.54036 0.0
H645 H 0.45717 0.05285 0.6004 0.0
H646 H 0.43898 0.97876 0.54726 0.0
H647 H 0.47191 -0.00478 0.6272 0.0
H648 H 0.51982 -0.00161 0.21579 0.0
H649 H 0.53547 0.07856 0.23359 0.0
H650 H 0.46467 0.02963 0.22959 0.0
H651 H 0.54579 0.08975 0.47495 0.0
H652 H 0.47169 0.03661 0.45677 0.0
H653 H 0.48815 0.11656 0.48967 0.0
H654 H 0.50521 0.25888 0.47833 0.0
H655 H 0.43847 0.25882 0.42622 0.0
H656 H 0.44614 0.27016 0.50408 0.0
H657 H 0.36659 0.02554 0.42867 0.0
H658 H 0.36056 0.01084 0.49475 0.0
H659 H 0.29601 0.01169 0.44039 0.0
H660 H 0.75184 0.96763 0.52296 0.0
H661 H 0.75178 0.91552 0.45621 0.0
H662 H 0.76311 -0.00662 0.46388 0.0
H663 H 0.51851 0.91791 0.38433 0.0
H664 H 0.50382 0.98405 0.37845 0.0
H665 H 0.50461 0.92975 0.31381 0.0
H666 H 0.46068 0.01229 0.76955 0.0
H667 H 0.40854 0.94559 0.76952 0.0
H668 H 0.48637 0.9532 0.78081 0.0
H669 H 0.41094 0.87366 0.53622 0.0
H670 H 0.47703 0.86764 0.52152 0.0
H671 H 0.42267 0.80308 0.52236 0.0
O672 O 0.54131 0.79171 0.55539 0.0
O673 O 0.57714 0.89126 0.49738 0.0
O674 O 0.28467 0.04472 0.55905 0.0
O675 O 0.38423 0.98671 0.59486 0.0
O676 O 0.53765 0.04834 0.30245 0.0
O677 O 0.47964 0.08417 0.40199 0.0
O678 O 0.42956 0.18541 0.44989 0.0
O679 O 0.3619 0.09278 0.49338 0.0
O680 O 0.67837 0.93919 0.44732 0.0
O681 O 0.58573 0.98268 0.37967 0.0
O682 O 0.43217 0.93663 0.69608 0.0
O683 O 0.47566 0.86896 0.60345 0.0
C684 C 0.69109 0.45629 0.16736 0.0
C685 C 0.6981 0.47174 0.22806 0.0
C686 C 0.64538 0.43192 0.22755 0.0
N687 N 0.63889 0.40997 0.13478 0.0
N688 N 0.61042 0.39665 0.16997 0.0
C689 C 0.73037 0.48662 0.13947 0.0
H690 H 0.70199 0.48713 0.09674 0.0
H691 H 0.7584 0.46041 0.12809 0.0
H692 H 0.75944 0.53344 0.16993 0.0
C693 C 0.63177 0.42208 0.28025 0.0
H694 H 0.61093 0.3733 0.27019 0.0
H695 H 0.59891 0.44294 0.28868 0.0
H696 H 0.67312 0.44126 0.32111 0.0
C697 C 0.43818 0.68994 0.79541 0.0
C698 C 0.53341 0.7022 0.80954 0.0
C699 C 0.48637 0.71787 0.78052 0.0
N700 N 0.45744 0.66232 0.83212 0.0
N701 N 0.51271 0.66686 0.83779 0.0
H702 H 0.36294 0.68777 0.72493 0.0
H703 H 0.34487 0.63392 0.75954 0.0
H704 H 0.36065 0.71084 0.8004 0.0
C705 C 0.3731 0.68051 0.76821 0.0
H706 H 0.60791 0.69222 0.78513 0.0
H707 H 0.6268 0.7315 0.86308 0.0
H708 H 0.61091 0.76942 0.81141 0.0
C709 C 0.5984 0.72557 0.81742 0.0
C710 C 0.53136 0.23175 0.03131 0.0
C711 C 0.57462 0.44769 0.01481 0.0
C712 C 0.44929 0.65668 0.2088 0.0
N713 N 0.40297 0.6241 0.1566 0.0
N714 N 0.38965 0.65929 0.12813 0.0
C715 C 0.46474 0.71738 0.21581 0.0
C716 C 0.42492 0.71687 0.16309 0.0
H717 H 0.48014 0.58606 0.21969 0.0
H718 H 0.45343 0.6174 0.27611 0.0
H719 H 0.52645 0.65926 0.27714 0.0
C720 C 0.47963 0.62879 0.24808 0.0
H721 H 0.36626 0.75949 0.12867 0.0
H722 H 0.43589 0.77801 0.11662 0.0
H723 H 0.43423 0.81042 0.19084 0.0
C724 C 0.41505 0.76957 0.14949 0.0
C725 C 0.68294 0.28475 0.95593 0.0
C726 C 0.69519 0.29883 0.05115 0.0
N727 N 0.65529 0.32142 0.9752 0.0
N728 N 0.65983 0.32708 0.03046 0.0
C729 C 0.71087 0.26984 0.00411 0.0
H730 H 0.68073 0.21425 0.88068 0.0
H731 H 0.62686 0.24884 0.86263 0.0
H732 H 0.70376 0.28971 0.87836 0.0
C733 C 0.67346 0.25752 0.89083 0.0
C734 C 0.7186 0.30675 0.11615 0.0
H735 H 0.68529 0.27445 0.1257 0.0
H736 H 0.72451 0.35241 0.14454 0.0
H737 H 0.76247 0.30079 0.12865 0.0
C738 C 0.22475 0.52058 0.04902 0.0
C739 C 0.4407 0.50412 0.09234 0.0
C740 C 0.64961 0.69814 0.96702 0.0
N741 N 0.61702 0.64593 0.92072 0.0
C742 C 0.7103 0.70513 0.98249 0.0
N743 N 0.65221 0.61745 0.90741 0.0
C744 C 0.70979 0.65241 0.94268 0.0
H745 H 0.57898 0.70906 0.99785 0.0
H746 H 0.61035 0.76546 0.97113 0.0
H747 H 0.65218 0.7665 0.04416 0.0
C748 C 0.62171 0.73743 0.99734 0.0
H749 H 0.75243 0.61794 0.88407 0.0
C750 C 0.76249 0.63879 0.93285 0.0
H751 H 0.80335 0.68013 0.95203 0.0
H752 H 0.77091 0.60593 0.95371 0.0
C753 C 0.27775 0.44524 0.20065 0.0
C754 C 0.29181 0.54045 0.21288 0.0
N755 N 0.31443 0.46451 0.17301 0.0
N756 N 0.32007 0.51977 0.17754 0.0
C757 C 0.26282 0.49341 0.22856 0.0
H758 H 0.20727 0.36998 0.19846 0.0
C759 C 0.25054 0.38014 0.19119 0.0
H760 H 0.28274 0.36768 0.2215 0.0
H761 H 0.24186 0.35193 0.14459 0.0
H762 H 0.26741 0.61497 0.20292 0.0
H763 H 0.34536 0.63385 0.2422 0.0
C764 C 0.29969 0.60545 0.23626 0.0
H765 H 0.29369 0.61795 0.28011 0.0
C766 C 0.5135 0.5383 0.7425 0.0
C767 C 0.49704 0.58171 0.95845 0.0
C768 C 0.2522 0.55826 0.83319 0.0
N769 N 0.30989 0.59252 0.86808 0.0
C770 C 0.25121 0.5179 0.78064 0.0
C771 C 0.31209 0.53161 0.78817 0.0
N772 N 0.34514 0.5778 0.84042 0.0
C773 C 0.20011 0.56722 0.84881 0.0
H774 H 0.2105 0.61584 0.87142 0.0
H775 H 0.15868 0.54879 0.80813 0.0
H776 H 0.19265 0.54502 0.881 0.0
C777 C 0.3397 0.49828 0.75082 0.0
H778 H 0.38184 0.49778 0.78052 0.0
H779 H 0.30845 0.45141 0.72308 0.0
H780 H 0.35224 0.52225 0.72147 0.0
C781 C 0.51789 0.25905 0.20287 0.0
C782 C 0.48681 0.25515 0.24231 0.0
C783 C 0.45471 0.29333 0.23652 0.0
N784 N 0.50507 0.29779 0.17717 0.0
N785 N 0.46553 0.31616 0.19543 0.0
H786 H 0.60234 0.24877 0.2102 0.0
H787 H 0.54649 0.2125 0.13662 0.0
H788 H 0.54033 0.17934 0.19185 0.0
C789 C 0.55371 0.22251 0.18466 0.0
C790 C 0.41906 0.31277 0.27282 0.0
H791 H 0.43109 0.30508 0.31581 0.0
H792 H 0.42792 0.36115 0.28338 0.0
H793 H 0.37031 0.28875 0.24604 0.0
C794 C 0.45587 0.74622 0.9652 0.0
C795 C 0.3457 0.53246 0.96296 0.0
C796 C 0.55118 0.32252 0.76997 0.0
C797 C 0.51082 0.26997 0.76898 0.0
C798 C 0.52456 0.27748 0.82986 0.0
N799 N 0.58546 0.3574 0.82766 0.0
N800 N 0.57076 0.32972 0.8629 0.0
C801 C 0.56008 0.33817 0.71788 0.0
H802 H 0.6087 0.36081 0.72824 0.0
H803 H 0.54165 0.29751 0.67643 0.0
H804 H 0.53786 0.37036 0.71046 0.0
C805 C 0.49124 0.24011 0.85747 0.0
H806 H 0.49075 0.26982 0.89962 0.0
H807 H 0.44437 0.21238 0.82622 0.0
H808 H 0.51521 0.21077 0.87 0.0
C809 C 0.25203 0.69218 0.03567 0.0
C810 C 0.24809 0.73162 0.00458 0.0
C811 C 0.28626 0.72585 0.97246 0.0
N812 N 0.29076 0.66648 0.02281 0.0
N813 N 0.3091 0.68475 0.98326 0.0
C814 C 0.21554 0.67398 0.07152 0.0
H815 H 0.24181 0.69958 0.12014 0.0
H816 H 0.2056 0.62596 0.06437 0.0
H817 H 0.17235 0.6811 0.05814 0.0
C818 C 0.30568 0.76216 0.93682 0.0
H819 H 0.29796 0.80514 0.94885 0.0
H820 H 0.35407 0.77277 0.94571 0.0
H821 H 0.28169 0.73539 0.88807 0.0
C822 C 0.73915 0.45454 0.97365 0.0
C823 C 0.52539 0.45229 0.86349 0.0
C824 C 0.31548 0.25927 0.06892 0.0
N825 N 0.35038 0.31696 0.10319 0.0
N826 N 0.32272 0.35221 0.08847 0.0
C827 C 0.26295 0.25828 0.02856 0.0
C828 C 0.27046 0.31917 0.04229 0.0
H829 H 0.35371 0.21756 0.1265 0.0
H830 H 0.29043 0.16574 0.05944 0.0
H831 H 0.3633 0.19972 0.05568 0.0
C832 C 0.33111 0.20718 0.07787 0.0
H833 H 0.26285 0.38893 0.00845 0.0
H834 H 0.20541 0.31553 0.96207 0.0
H835 H 0.20378 0.35933 0.03289 0.0
C836 C 0.23313 0.34679 0.00894 0.0
C837 C 0.6851 0.52495 0.76979 0.0
N838 N 0.65942 0.51212 0.80855 0.0
N839 N 0.67771 0.4726 0.82691 0.0
C840 C 0.72452 0.49386 0.76584 0.0
C841 C 0.71876 0.46175 0.80403 0.0
C842 C 0.66685 0.56076 0.73325 0.0
H843 H 0.6924 0.60939 0.7595 0.0
H844 H 0.61882 0.55355 0.72328 0.0
H845 H 0.674 0.54738 0.69007 0.0
C846 C 0.75507 0.42611 0.82345 0.0
H847 H 0.79805 0.43814 0.81574 0.0
H848 H 0.76567 0.43499 0.87184 0.0
H849 H 0.7283 0.37736 0.79945 0.0
C850 C 0.44757 0.46297 0.25688 0.0
C851 C 0.44526 0.35271 0.04312 0.0
Cu852 Cu 0.60631 0.35677 0.05584 0.0
Cu853 Cu 0.53471 0.33513 0.1292 0.0
Cu854 Cu 0.34977 0.54515 0.12403 0.0
Cu855 Cu 0.32813 0.61852 0.05242 0.0
Cu856 Cu 0.53809 0.61335 0.86751 0.0
Cu857 Cu 0.61145 0.54174 0.84589 0.0
Cu858 Cu 0.35105 0.64338 0.94805 0.0
Cu859 Cu 0.42625 0.62544 0.87859 0.0
Cu860 Cu 0.63631 0.43737 0.86883 0.0
Cu861 Cu 0.61839 0.36789 0.94401 0.0
Cu862 Cu 0.43035 0.35811 0.15404 0.0
Cu863 Cu 0.36089 0.43332 0.13611 0.0
H864 H 0.49139 0.20502 0.0376 0.0
H865 H 0.57158 0.22288 0.05334 0.0
H866 H 0.52268 0.21882 0.98248 0.0
H867 H 0.5827 0.46419 0.06355 0.0
H868 H 0.52956 0.44602 0.98947 0.0
H869 H 0.6095 0.47892 0.00592 0.0
H870 H 0.19805 0.52694 0.00909 0.0
H871 H 0.21585 0.54252 0.08925 0.0
H872 H 0.21183 0.47173 0.04025 0.0
H873 H 0.4572 0.55286 0.10041 0.0
H874 H 0.43902 0.47877 0.04728 0.0
H875 H 0.47193 0.49523 0.12722 0.0
H876 H 0.51983 0.49835 0.71581 0.0
H877 H 0.53544 0.57851 0.73357 0.0
H878 H 0.46466 0.52956 0.72959 0.0
H879 H 0.54579 0.58979 0.97496 0.0
H880 H 0.4717 0.53665 0.9568 0.0
H881 H 0.48815 0.6166 0.98966 0.0
H882 H 0.50519 0.7589 0.97821 0.0
H883 H 0.43841 0.75882 0.92614 0.0
H884 H 0.44616 0.77019 0.00402 0.0
H885 H 0.3666 0.52557 0.92861 0.0
H886 H 0.36067 0.51089 0.99473 0.0
H887 H 0.29606 0.51169 0.94041 0.0
H888 H 0.75183 0.46759 0.02298 0.0
H889 H 0.75177 0.41549 0.95623 0.0
H890 H 0.7631 0.49335 0.96391 0.0
H891 H 0.51851 0.41791 0.88436 0.0
H892 H 0.50384 0.48405 0.87851 0.0
H893 H 0.5046 0.42977 0.81385 0.0
H894 H 0.46066 0.5123 0.26954 0.0
H895 H 0.40852 0.4456 0.26951 0.0
H896 H 0.48635 0.4532 0.28082 0.0
H897 H 0.41096 0.37367 0.03623 0.0
H898 H 0.47704 0.3676 0.02153 0.0
H899 H 0.42265 0.30307 0.02238 0.0
O900 O 0.5413 0.29169 0.05541 0.0
O901 O 0.57713 0.39124 0.9974 0.0
O902 O 0.2847 0.54472 0.05901 0.0
O903 O 0.38425 0.48672 0.09485 0.0
O904 O 0.53765 0.54832 0.80246 0.0
O905 O 0.47964 0.58419 0.90199 0.0
O906 O 0.42956 0.68543 0.94985 0.0
O907 O 0.36193 0.59281 0.99336 0.0
O908 O 0.67836 0.43917 0.94734 0.0
O909 O 0.58573 0.48268 0.8797 0.0
O910 O 0.43216 0.43663 0.19608 0.0
O911 O 0.47566 0.36895 0.10347 0.0
loop_
_geom_bond_atom_site_label_1
_geom_bond_atom_site_label_2
_geom_bond_distance
_geom_bond_site_symmetry_2
_ccdc_geom_bond_type
C0 C1 1.388 . S
C0 N3 1.338 . S
C0 C5 1.503 . S
C1 C0 1.388 . S
C1 C2 1.396 . S
C2 C1 1.396 . S
C2 N4 1.348 . S
C2 C9 1.504 . S
N3 C0 1.338 . S
N3 N4 1.361 . S
N3 Cu168 1.924 . S
N4 C2 1.348 . S
N4 N3 1.361 . S
N4 Cu169 1.964 . S
C5 C0 1.503 . S
C5 H6 0.979 . S
C5 H7 0.979 . S
C5 H8 0.979 1_565 S
H6 C5 0.979 . S
H7 C5 0.979 . S
H8 C5 0.979 1_545 S
C9 C2 1.504 . S
C9 H10 0.981 . S
C9 H11 0.980 1_565 S
C9 H12 0.979 . S
H10 C9 0.981 . S
H11 C9 0.980 1_545 S
H12 C9 0.979 . S
C13 C15 1.402 . S
C13 N16 1.356 . S
C13 C21 1.481 . S
C14 C15 1.400 1_455 S
C14 N17 1.326 . S
C14 C25 1.503 . S
C15 C13 1.402 . S
C15 C14 1.400 1_655 S
N16 C13 1.356 . S
N16 N17 1.359 1_655 S
N16 Cu175 1.941 . S
N17 C14 1.326 . S
N17 N16 1.359 1_455 S
N17 Cu172 1.927 . S
H18 C21 0.980 . S
H19 C21 0.980 . S
H20 C21 0.980 . S
C21 C13 1.481 . S
C21 H18 0.980 . S
C21 H19 0.980 . S
C21 H20 0.980 . S
H22 C25 0.978 . S
H23 C25 0.978 . S
H24 C25 0.983 . S
C25 C14 1.503 . S
C25 H22 0.978 . S
C25 H23 0.978 . S
C25 H24 0.983 . S
C26 H180 0.979 . S
C26 H181 0.981 . S
C26 H182 0.961 1_554 S
C26 O216 1.438 . S
C27 H183 0.980 . S
C27 H184 0.979 . S
C27 H185 0.980 . S
C27 O217 1.533 . S
C28 N29 1.338 . S
C28 C31 1.388 . S
C28 C36 1.503 . S
N29 C28 1.338 . S
N29 N30 1.361 . S
N29 Cu170 1.924 . S
N30 N29 1.361 . S
N30 C32 1.348 . S
N30 Cu171 1.964 . S
C31 C28 1.388 . S
C31 C32 1.396 . S
C32 N30 1.348 . S
C32 C31 1.396 . S
C32 C40 1.504 . S
H33 C36 0.979 . S
H34 C36 0.979 . S
H35 C36 0.979 1_455 S
C36 C28 1.503 . S
C36 H33 0.979 . S
C36 H34 0.979 . S
C36 H35 0.979 1_655 S
H37 C40 0.981 . S
H38 C40 0.980 1_455 S
H39 C40 0.979 . S
C40 C32 1.504 . S
C40 H37 0.981 . S
C40 H38 0.980 1_655 S
C40 H39 0.979 . S
C41 N43 1.356 . S
C41 C45 1.402 . S
C41 C49 1.481 . S
C42 N44 1.326 . S
C42 C45 1.400 1_554 S
C42 C50 1.503 . S
N43 C41 1.356 . S
N43 N44 1.359 1_556 S
N43 Cu177 1.941 . S
N44 C42 1.326 . S
N44 N43 1.359 1_554 S
N44 Cu168 1.927 . S
C45 C41 1.402 . S
C45 C42 1.400 1_556 S
H46 C49 0.980 . S
H47 C49 0.980 . S
H48 C49 0.980 . S
C49 C41 1.481 . S
C49 H46 0.980 . S
C49 H47 0.980 . S
C49 H48 0.980 . S
C50 C42 1.503 . S
C50 H51 0.978 . S
C50 H52 0.978 . S
C50 H53 0.983 . S
H51 C50 0.978 . S
H52 C50 0.978 . S
H53 C50 0.983 . S
C54 H186 0.979 . S
C54 H187 0.981 . S
C54 H188 0.961 1_545 S
C54 O218 1.438 . S
C55 H189 0.980 . S
C55 H190 0.979 . S
C55 H191 0.980 . S
C55 O219 1.533 . S
C56 N57 1.338 . S
C56 C58 1.388 . S
C56 C64 1.503 . S
N57 C56 1.338 . S
N57 N59 1.361 . S
N57 Cu172 1.924 . S
C58 C56 1.388 . S
C58 C60 1.396 . S
N59 N57 1.361 . S
N59 C60 1.348 . S
N59 Cu173 1.964 . S
C60 C58 1.396 . S
C60 N59 1.348 . S
C60 C66 1.504 . S
H61 C64 0.979 . S
H62 C64 0.979 . S
H63 C64 0.979 1_554 S
C64 C56 1.503 . S
C64 H61 0.979 . S
C64 H62 0.979 . S
C64 H63 0.979 1_556 S
H65 C66 0.981 . S
C66 C60 1.504 . S
C66 H65 0.981 . S
C66 H67 0.979 . S
C66 H68 0.980 1_556 S
H67 C66 0.979 . S
H68 C66 0.980 1_554 S
C69 N71 1.356 . S
C69 C73 1.402 . S
C69 C75 1.481 . S
C70 N72 1.326 . S
C70 C73 1.400 1_545 S
C70 C80 1.503 . S
N71 C69 1.356 . S
N71 N72 1.359 1_565 S
N71 Cu179 1.941 . S
N72 C70 1.326 . S
N72 N71 1.359 1_545 S
N72 Cu170 1.927 . S
C73 C69 1.402 . S
C73 C70 1.400 1_565 S
H74 C75 0.980 . S
C75 C69 1.481 . S
C75 H74 0.980 . S
C75 H76 0.980 . S
C75 H77 0.980 . S
H76 C75 0.980 . S
H77 C75 0.980 . S
H78 C80 0.978 . S
H79 C80 0.978 . S
C80 C70 1.503 . S
C80 H78 0.978 . S
C80 H79 0.978 . S
C80 H81 0.983 . S
H81 C80 0.983 . S
C82 H192 0.979 . S
C82 H193 0.981 . S
C82 H194 0.961 1_455 S
C82 O220 1.438 . S
C83 H195 0.980 . S
C83 H196 0.979 . S
C83 H197 0.980 . S
C83 O221 1.533 . S
C84 N85 1.338 . S
C84 C86 1.388 . S
C84 C89 1.503 . S
N85 C84 1.338 . S
N85 N88 1.361 . S
N85 Cu174 1.924 . S
C86 C84 1.388 . S
C86 C87 1.396 . S
C87 C86 1.396 . S
C87 N88 1.348 . S
C87 C93 1.504 . S
N88 N85 1.361 . S
N88 C87 1.348 . S
N88 Cu175 1.964 . S
C89 C84 1.503 . S
C89 H90 0.979 . S
C89 H91 0.979 . S
C89 H92 0.979 1_545 S
H90 C89 0.979 . S
H91 C89 0.979 . S
H92 C89 0.979 1_565 S
C93 C87 1.504 . S
C93 H94 0.981 . S
C93 H95 0.980 1_545 S
C93 H96 0.979 . S
H94 C93 0.981 . S
H95 C93 0.980 1_565 S
H96 C93 0.979 . S
C97 C98 1.402 . S
C97 N100 1.356 . S
C97 C105 1.481 . S
C98 C97 1.402 . S
C98 C99 1.400 1_455 S
C99 C98 1.400 1_655 S
C99 N101 1.325 . S
C99 C106 1.503 . S
N100 C97 1.356 . S
N100 N101 1.364 1_455 S
N100 Cu169 1.941 . S
N101 C99 1.325 . S
N101 N100 1.364 1_655 S
N101 Cu178 1.924 . S
H102 C105 0.980 . S
H103 C105 0.980 . S
H104 C105 0.980 . S
C105 C97 1.481 . S
C105 H102 0.980 . S
C105 H103 0.980 . S
C105 H104 0.980 . S
C106 C99 1.503 . S
C106 H107 0.978 . S
C106 H108 0.978 . S
C106 H109 0.983 . S
H107 C106 0.978 . S
H108 C106 0.978 . S
H109 C106 0.983 . S
C110 H198 0.979 . S
C110 H199 0.981 . S
C110 H200 0.981 1_556 S
C110 O222 1.438 . S
C111 H201 0.980 . S
C111 H202 0.979 . S
C111 H203 0.980 . S
C111 O223 1.533 . S
C112 C113 1.388 . S
C112 N115 1.338 . S
C112 C117 1.503 . S
C113 C112 1.388 . S
C113 C114 1.396 . S
C114 C113 1.396 . S
C114 N116 1.348 . S
C114 C121 1.504 . S
N115 C112 1.338 . S
N115 N116 1.361 . S
N115 Cu176 1.924 . S
N116 C114 1.348 . S
N116 N115 1.361 . S
N116 Cu177 1.964 . S
C117 C112 1.503 . S
C117 H118 0.979 . S
C117 H119 0.979 . S
C117 H120 0.979 1_455 S
H118 C117 0.979 . S
H119 C117 0.979 . S
H120 C117 0.979 1_655 S
C121 C114 1.504 . S
C121 H122 0.981 . S
C121 H123 0.980 1_455 S
C121 H124 0.979 . S
H122 C121 0.981 . S
H123 C121 0.980 1_655 S
H124 C121 0.979 . S
C125 C126 1.402 . S
C125 N128 1.356 . S
C125 C130 1.481 . S
C126 C125 1.402 . S
C126 C127 1.400 1_554 S
C127 C126 1.400 1_556 S
C127 N129 1.325 . S
C127 C134 1.503 . S
N128 C125 1.356 . S
N128 N129 1.364 1_554 S
N128 Cu171 1.941 . S
N129 C127 1.325 . S
N129 N128 1.364 1_556 S
N129 Cu174 1.924 . S
C130 C125 1.481 . S
C130 H131 0.980 . S
C130 H132 0.980 . S
C130 H133 0.980 . S
H131 C130 0.980 . S
H132 C130 0.980 . S
H133 C130 0.980 . S
C134 C127 1.503 . S
C134 H135 0.978 . S
C134 H136 0.978 . S
C134 H137 0.983 . S
H135 C134 0.978 . S
H136 C134 0.978 . S
H137 C134 0.983 . S
C138 H204 0.979 . S
C138 H205 0.981 . S
C138 H206 0.981 1_565 S
C138 O224 1.438 . S
C139 H207 0.980 . S
C139 H208 0.979 . S
C139 H209 0.980 . S
C139 O225 1.533 . S
C140 N141 1.338 . S
C140 C143 1.388 . S
C140 C148 1.503 . S
N141 C140 1.338 . S
N141 N142 1.361 . S
N141 Cu178 1.924 . S
N142 N141 1.361 . S
N142 C144 1.348 . S
N142 Cu179 1.964 . S
C143 C140 1.388 . S
C143 C144 1.396 . S
C144 N142 1.348 . S
C144 C143 1.396 . S
C144 C152 1.504 . S
H145 C148 0.979 . S
H146 C148 0.979 . S
H147 C148 0.979 1_556 S
C148 C140 1.503 . S
C148 H145 0.979 . S
C148 H146 0.979 . S
C148 H147 0.979 1_554 S
H149 C152 0.981 . S
H150 C152 0.980 1_556 S
H151 C152 0.979 . S
C152 C144 1.504 . S
C152 H149 0.981 . S
C152 H150 0.980 1_554 S
C152 H151 0.979 . S
C153 N154 1.356 . S
C153 C156 1.402 . S
C153 C158 1.481 . S
N154 C153 1.356 . S
N154 N155 1.364 1_545 S
N154 Cu173 1.941 . S
N155 N154 1.364 1_565 S
N155 C157 1.325 . S
N155 Cu176 1.924 . S
C156 C153 1.402 . S
C156 C157 1.400 1_545 S
C157 N155 1.325 . S
C157 C156 1.400 1_565 S
C157 C162 1.503 . S
C158 C153 1.481 . S
C158 H159 0.980 . S
C158 H160 0.980 . S
C158 H161 0.980 . S
H159 C158 0.980 . S
H160 C158 0.980 . S
H161 C158 0.980 . S
C162 C157 1.503 . S
C162 H163 0.978 . S
C162 H164 0.978 . S
C162 H165 0.983 . S
H163 C162 0.978 . S
H164 C162 0.978 . S
H165 C162 0.983 . S
C166 H210 0.979 . S
C166 H211 0.981 . S
C166 H212 0.981 1_655 S
C166 O226 1.438 . S
C167 H213 0.980 . S
C167 H214 0.979 . S
C167 H215 0.980 . S
C167 O227 1.533 . S
Cu168 N3 1.924 . S
Cu168 N44 1.927 . S
Cu168 O216 1.923 . S
Cu168 O217 1.930 . S
Cu169 N4 1.964 . S
Cu169 N100 1.941 . S
Cu169 O216 1.905 . S
Cu169 O227 1.920 1_455 S
Cu170 N29 1.924 . S
Cu170 N72 1.927 . S
Cu170 O218 1.923 . S
Cu170 O219 1.930 . S
Cu171 N30 1.964 . S
Cu171 N128 1.941 . S
Cu171 O218 1.905 . S
Cu171 O223 1.920 1_554 S
Cu172 N17 1.927 . S
Cu172 N57 1.924 . S
Cu172 O220 1.923 . S
Cu172 O221 1.930 . S
Cu173 N59 1.964 . S
Cu173 N154 1.941 . S
Cu173 O220 1.905 . S
Cu173 O225 1.920 1_545 S
Cu174 N85 1.924 . S
Cu174 N129 1.924 . S
Cu174 O222 1.923 . S
Cu174 O223 1.930 . S
Cu175 N16 1.941 . S
Cu175 N88 1.964 . S
Cu175 O221 1.920 1_655 S
Cu175 O222 1.905 . S
Cu176 N115 1.924 . S
Cu176 N155 1.924 . S
Cu176 O224 1.923 . S
Cu176 O225 1.930 . S
Cu177 N43 1.941 . S
Cu177 N116 1.964 . S
Cu177 O217 1.920 1_556 S
Cu177 O224 1.905 . S
Cu178 N101 1.924 . S
Cu178 N141 1.924 . S
Cu178 O226 1.923 . S
Cu178 O227 1.930 . S
Cu179 N71 1.941 . S
Cu179 N142 1.964 . S
Cu179 O219 1.920 1_565 S
Cu179 O226 1.905 . S
H180 C26 0.979 . S
H181 C26 0.981 . S
H182 C26 0.961 1_556 S
H183 C27 0.980 . S
H184 C27 0.979 . S
H185 C27 0.980 . S
H186 C54 0.979 . S
H187 C54 0.981 . S
H188 C54 0.961 1_565 S
H189 C55 0.980 . S
H190 C55 0.979 . S
H191 C55 0.980 . S
H192 C82 0.979 . S
H193 C82 0.981 . S
H194 C82 0.961 1_655 S
H195 C83 0.980 . S
H196 C83 0.979 . S
H197 C83 0.980 . S
H198 C110 0.979 . S
H199 C110 0.981 . S
H200 C110 0.981 1_554 S
H201 C111 0.980 . S
H202 C111 0.979 . S
H203 C111 0.980 . S
H204 C138 0.979 . S
H205 C138 0.981 . S
H206 C138 0.981 1_545 S
H207 C139 0.980 . S
H208 C139 0.979 . S
H209 C139 0.980 . S
H210 C166 0.979 . S
H211 C166 0.981 . S
H212 C166 0.981 1_455 S
H213 C167 0.980 . S
H214 C167 0.979 . S
H215 C167 0.980 . S
O216 C26 1.438 . S
O216 Cu168 1.923 . S
O216 Cu169 1.905 . S
O217 C27 1.533 . S
O217 Cu168 1.930 . S
O217 Cu177 1.920 1_554 S
O218 C54 1.438 . S
O218 Cu170 1.923 . S
O218 Cu171 1.905 . S
O219 C55 1.533 . S
O219 Cu170 1.930 . S
O219 Cu179 1.920 1_545 S
O220 C82 1.438 . S
O220 Cu172 1.923 . S
O220 Cu173 1.905 . S
O221 C83 1.533 . S
O221 Cu172 1.930 . S
O221 Cu175 1.920 1_455 S
O222 C110 1.438 . S
O222 Cu174 1.923 . S
O222 Cu175 1.905 . S
O223 C111 1.533 . S
O223 Cu171 1.920 1_556 S
O223 Cu174 1.930 . S
O224 C138 1.438 . S
O224 Cu176 1.923 . S
O224 Cu177 1.905 . S
O225 C139 1.533 . S
O225 Cu173 1.920 1_565 S
O225 Cu176 1.930 . S
O226 C166 1.438 . S
O226 Cu178 1.923 . S
O226 Cu179 1.905 . S
O227 C167 1.533 . S
O227 Cu169 1.920 1_655 S
O227 Cu178 1.930 . S
C228 C229 1.388 . S
C228 N231 1.338 . S
C228 C233 1.503 . S
C229 C228 1.388 . S
C229 C230 1.396 . S
C230 C229 1.396 . S
C230 N232 1.348 . S
C230 C237 1.504 . S
N231 C228 1.338 . S
N231 N232 1.361 . S
N231 Cu396 1.924 . S
N232 C230 1.348 . S
N232 N231 1.361 . S
N232 Cu397 1.964 . S
C233 C228 1.503 . S
C233 H234 0.979 . S
C233 H235 0.979 . S
C233 H236 0.979 . S
H234 C233 0.979 . S
H235 C233 0.979 . S
H236 C233 0.979 . S
C237 C230 1.504 . S
C237 H238 0.981 . S
C237 H239 0.980 . S
C237 H240 0.979 . S
H238 C237 0.981 . S
H239 C237 0.980 . S
H240 C237 0.979 . S
C241 C243 1.402 . S
C241 N244 1.356 . S
C241 C249 1.481 . S
C242 C243 1.400 1_455 S
C242 N245 1.326 . S
C242 C253 1.503 . S
C243 C241 1.402 . S
C243 C242 1.400 1_655 S
N244 C241 1.356 . S
N244 N245 1.359 1_655 S
N244 Cu403 1.941 . S
N245 C242 1.326 . S
N245 N244 1.359 1_455 S
N245 Cu400 1.927 . S
H246 C249 0.980 . S
H247 C249 0.980 . S
H248 C249 0.980 . S
C249 C241 1.481 . S
C249 H246 0.980 . S
C249 H247 0.980 . S
C249 H248 0.980 . S
H250 C253 0.978 . S
H251 C253 0.978 . S
H252 C253 0.983 . S
C253 C242 1.503 . S
C253 H250 0.978 . S
C253 H251 0.978 . S
C253 H252 0.983 . S
C254 H408 0.979 . S
C254 H409 0.981 . S
C254 H410 0.981 . S
C254 O444 1.438 . S
C255 H411 0.980 . S
C255 H412 0.979 . S
C255 H413 0.980 . S
C255 O445 1.533 . S
C256 N257 1.338 . S
C256 C259 1.388 . S
C256 C264 1.503 . S
N257 C256 1.338 . S
N257 N258 1.361 . S
N257 Cu398 1.924 . S
N258 N257 1.361 . S
N258 C260 1.348 . S
N258 Cu399 1.964 . S
C259 C256 1.388 . S
C259 C260 1.396 . S
C260 N258 1.348 . S
C260 C259 1.396 . S
C260 C268 1.504 . S
H261 C264 0.979 . S
H262 C264 0.979 . S
H263 C264 0.979 1_455 S
C264 C256 1.503 . S
C264 H261 0.979 . S
C264 H262 0.979 . S
C264 H263 0.979 1_655 S
H265 C268 0.981 . S
H266 C268 0.980 1_455 S
H267 C268 0.979 . S
C268 C260 1.504 . S
C268 H265 0.981 . S
C268 H266 0.980 1_655 S
C268 H267 0.979 . S
C269 N271 1.356 . S
C269 C273 1.402 . S
C269 C277 1.481 . S
C270 N272 1.325 . S
C270 C273 1.400 . S
C270 C278 1.503 . S
N271 C269 1.356 . S
N271 N272 1.365 . S
N271 Cu405 1.941 . S
N272 C270 1.325 . S
N272 N271 1.365 . S
N272 Cu396 1.924 . S
C273 C269 1.402 . S
C273 C270 1.400 . S
H274 C277 0.980 . S
H275 C277 0.980 . S
H276 C277 0.980 . S
C277 C269 1.481 . S
C277 H274 0.980 . S
C277 H275 0.980 . S
C277 H276 0.980 . S
C278 C270 1.503 . S
C278 H279 0.978 . S
C278 H280 0.978 . S
C278 H281 0.983 . S
H279 C278 0.978 . S
H280 C278 0.978 . S
H281 C278 0.983 . S
C282 H414 0.979 . S
C282 H415 0.981 . S
C282 H416 0.981 . S
C282 O446 1.438 . S
C283 H417 0.980 . S
C283 H418 0.979 . S
C283 H419 0.980 . S
C283 O447 1.533 . S
C284 N285 1.338 . S
C284 C286 1.388 . S
C284 C292 1.503 . S
N285 C284 1.338 . S
N285 N287 1.361 . S
N285 Cu400 1.924 . S
C286 C284 1.388 . S
C286 C288 1.396 . S
N287 N285 1.361 . S
N287 C288 1.348 . S
N287 Cu401 1.964 . S
C288 C286 1.396 . S
C288 N287 1.348 . S
C288 C294 1.504 . S
H289 C292 0.979 . S
H290 C292 0.979 . S
H291 C292 0.979 . S
C292 C284 1.503 . S
C292 H289 0.979 . S
C292 H290 0.979 . S
C292 H291 0.979 . S
H293 C294 0.981 . S
C294 C288 1.504 . S
C294 H293 0.981 . S
C294 H295 0.979 . S
C294 H296 0.980 . S
H295 C294 0.979 . S
H296 C294 0.980 . S
C297 N299 1.356 . S
C297 C301 1.402 . S
C297 C303 1.481 . S
C298 N300 1.325 . S
C298 C301 1.400 . S
C298 C308 1.503 . S
N299 C297 1.356 . S
N299 N300 1.365 . S
N299 Cu407 1.941 . S
N300 C298 1.325 . S
N300 N299 1.365 . S
N300 Cu398 1.924 . S
C301 C297 1.402 . S
C301 C298 1.400 . S
H302 C303 0.980 . S
C303 C297 1.481 . S
C303 H302 0.980 . S
C303 H304 0.980 . S
C303 H305 0.980 . S
H304 C303 0.980 . S
H305 C303 0.980 . S
H306 C308 0.978 . S
H307 C308 0.978 . S
C308 C298 1.503 . S
C308 H306 0.978 . S
C308 H307 0.978 . S
C308 H309 0.983 . S
H309 C308 0.983 . S
C310 H420 0.979 . S
C310 H421 0.981 . S
C310 H422 0.961 1_455 S
C310 O448 1.438 . S
C311 H423 0.980 . S
C311 H424 0.979 . S
C311 H425 0.980 . S
C311 O449 1.533 . S
C312 N313 1.338 . S
C312 C314 1.388 . S
C312 C317 1.503 . S
N313 C312 1.338 . S
N313 N316 1.361 . S
N313 Cu402 1.924 . S
C314 C312 1.388 . S
C314 C315 1.396 . S
C315 C314 1.396 . S
C315 N316 1.348 . S
C315 C321 1.504 . S
N316 N313 1.361 . S
N316 C315 1.348 . S
N316 Cu403 1.964 . S
C317 C312 1.503 . S
C317 H318 0.979 . S
C317 H319 0.979 . S
C317 H320 0.979 . S
H318 C317 0.979 . S
H319 C317 0.979 . S
H320 C317 0.979 . S
C321 C315 1.504 . S
C321 H322 0.981 . S
C321 H323 0.980 . S
C321 H324 0.979 . S
H322 C321 0.981 . S
H323 C321 0.980 . S
H324 C321 0.979 . S
C325 C326 1.402 . S
C325 N328 1.356 . S
C325 C333 1.481 . S
C326 C325 1.402 . S
C326 C327 1.400 1_455 S
C327 C326 1.400 1_655 S
C327 N329 1.325 . S
C327 C334 1.503 . S
N328 C325 1.356 . S
N328 N329 1.364 1_455 S
N328 Cu397 1.941 . S
N329 C327 1.325 . S
N329 N328 1.364 1_655 S
N329 Cu406 1.924 . S
H330 C333 0.980 . S
H331 C333 0.980 . S
H332 C333 0.980 . S
C333 C325 1.481 . S
C333 H330 0.980 . S
C333 H331 0.980 . S
C333 H332 0.980 . S
C334 C327 1.503 . S
C334 H335 0.978 . S
C334 H336 0.978 . S
C334 H337 0.983 . S
H335 C334 0.978 . S
H336 C334 0.978 . S
H337 C334 0.983 . S
C338 H426 0.979 . S
C338 H427 0.981 . S
C338 H428 0.981 . S
C338 O450 1.438 . S
C339 H429 0.980 . S
C339 H430 0.979 . S
C339 H431 0.980 . S
C339 O451 1.533 . S
C340 C341 1.388 . S
C340 N343 1.338 . S
C340 C345 1.503 . S
C341 C340 1.388 . S
C341 C342 1.396 . S
C342 C341 1.396 . S
C342 N344 1.348 . S
C342 C349 1.504 . S
N343 C340 1.338 . S
N343 N344 1.361 . S
N343 Cu404 1.924 . S
N344 C342 1.348 . S
N344 N343 1.361 . S
N344 Cu405 1.964 . S
C345 C340 1.503 . S
C345 H346 0.979 . S
C345 H347 0.979 . S
C345 H348 0.979 1_455 S
H346 C345 0.979 . S
H347 C345 0.979 . S
H348 C345 0.979 1_655 S
C349 C342 1.504 . S
C349 H350 0.981 . S
C349 H351 0.980 1_455 S
C349 H352 0.979 . S
H350 C349 0.981 . S
H351 C349 0.980 1_655 S
H352 C349 0.979 . S
C353 C354 1.402 . S
C353 N356 1.356 . S
C353 C358 1.481 . S
C354 C353 1.402 . S
C354 C355 1.400 . S
C355 C354 1.400 . S
C355 N357 1.325 . S
C355 C362 1.503 . S
N356 C353 1.356 . S
N356 N357 1.365 . S
N356 Cu399 1.941 . S
N357 C355 1.325 . S
N357 N356 1.365 . S
N357 Cu402 1.924 . S
C358 C353 1.481 . S
C358 H359 0.980 . S
C358 H360 0.980 . S
C358 H361 0.980 . S
H359 C358 0.980 . S
H360 C358 0.980 . S
H361 C358 0.980 . S
C362 C355 1.503 . S
C362 H363 0.978 . S
C362 H364 0.978 . S
C362 H365 0.983 . S
H363 C362 0.978 . S
H364 C362 0.978 . S
H365 C362 0.983 . S
C366 H432 0.979 . S
C366 H433 0.981 . S
C366 H434 0.981 . S
C366 O452 1.438 . S
C367 H435 0.980 . S
C367 H436 0.979 . S
C367 H437 0.980 . S
C367 O453 1.533 . S
C368 N369 1.338 . S
C368 C371 1.388 . S
C368 C376 1.503 . S
N369 C368 1.338 . S
N369 N370 1.361 . S
N369 Cu406 1.924 . S
N370 N369 1.361 . S
N370 C372 1.348 . S
N370 Cu407 1.964 . S
C371 C368 1.388 . S
C371 C372 1.396 . S
C372 N370 1.348 . S
C372 C371 1.396 . S
C372 C380 1.504 . S
H373 C376 0.979 . S
H374 C376 0.979 . S
H375 C376 0.979 . S
C376 C368 1.503 . S
C376 H373 0.979 . S
C376 H374 0.979 . S
C376 H375 0.979 . S
H377 C380 0.981 . S
H378 C380 0.980 . S
H379 C380 0.979 . S
C380 C372 1.504 . S
C380 H377 0.981 . S
C380 H378 0.980 . S
C380 H379 0.979 . S
C381 N382 1.356 . S
C381 C384 1.402 . S
C381 C386 1.481 . S
N382 C381 1.356 . S
N382 N383 1.365 . S
N382 Cu401 1.941 . S
N383 N382 1.365 . S
N383 C385 1.325 . S
N383 Cu404 1.924 . S
C384 C381 1.402 . S
C384 C385 1.400 . S
C385 N383 1.325 . S
C385 C384 1.400 . S
C385 C390 1.503 . S
C386 C381 1.481 . S
C386 H387 0.980 . S
C386 H388 0.980 . S
C386 H389 0.980 . S
H387 C386 0.980 . S
H388 C386 0.980 . S
H389 C386 0.980 . S
C390 C385 1.503 . S
C390 H391 0.978 . S
C390 H392 0.978 . S
C390 H393 0.983 . S
H391 C390 0.978 . S
H392 C390 0.978 . S
H393 C390 0.983 . S
C394 H438 0.979 . S
C394 H439 0.981 . S
C394 H440 0.981 1_655 S
C394 O454 1.438 . S
C395 H441 0.980 . S
C395 H442 0.979 . S
C395 H443 0.980 . S
C395 O455 1.533 . S
Cu396 N231 1.924 . S
Cu396 N272 1.924 . S
Cu396 O444 1.923 . S
Cu396 O445 1.930 . S
Cu397 N232 1.964 . S
Cu397 N328 1.941 . S
Cu397 O444 1.905 . S
Cu397 O455 1.920 1_455 S
Cu398 N257 1.924 . S
Cu398 N300 1.924 . S
Cu398 O446 1.923 . S
Cu398 O447 1.930 . S
Cu399 N258 1.964 . S
Cu399 N356 1.941 . S
Cu399 O446 1.905 . S
Cu399 O451 1.920 . S
Cu400 N245 1.927 . S
Cu400 N285 1.924 . S
Cu400 O448 1.923 . S
Cu400 O449 1.930 . S
Cu401 N287 1.964 . S
Cu401 N382 1.941 . S
Cu401 O448 1.905 . S
Cu401 O453 1.920 . S
Cu402 N313 1.924 . S
Cu402 N357 1.924 . S
Cu402 O450 1.923 . S
Cu402 O451 1.930 . S
Cu403 N244 1.941 . S
Cu403 N316 1.964 . S
Cu403 O449 1.920 1_655 S
Cu403 O450 1.905 . S
Cu404 N343 1.924 . S
Cu404 N383 1.924 . S
Cu404 O452 1.923 . S
Cu404 O453 1.930 . S
Cu405 N271 1.941 . S
Cu405 N344 1.964 . S
Cu405 O445 1.920 . S
Cu405 O452 1.905 . S
Cu406 N329 1.924 . S
Cu406 N369 1.924 . S
Cu406 O454 1.923 . S
Cu406 O455 1.930 . S
Cu407 N299 1.941 . S
Cu407 N370 1.964 . S
Cu407 O447 1.920 . S
Cu407 O454 1.905 . S
H408 C254 0.979 . S
H409 C254 0.981 . S
H410 C254 0.981 . S
H411 C255 0.980 . S
H412 C255 0.979 . S
H413 C255 0.980 . S
H414 C282 0.979 . S
H415 C282 0.981 . S
H416 C282 0.981 . S
H417 C283 0.980 . S
H418 C283 0.979 . S
H419 C283 0.980 . S
H420 C310 0.979 . S
H421 C310 0.981 . S
H422 C310 0.961 1_655 S
H423 C311 0.980 . S
H424 C311 0.979 . S
H425 C311 0.980 . S
H426 C338 0.979 . S
H427 C338 0.981 . S
H428 C338 0.981 . S
H429 C339 0.980 . S
H430 C339 0.979 . S
H431 C339 0.980 . S
H432 C366 0.979 . S
H433 C366 0.981 . S
H434 C366 0.981 . S
H435 C367 0.980 . S
H436 C367 0.979 . S
H437 C367 0.980 . S
H438 C394 0.979 . S
H439 C394 0.981 . S
H440 C394 0.981 1_455 S
H441 C395 0.980 . S
H442 C395 0.979 . S
H443 C395 0.980 . S
O444 C254 1.438 . S
O444 Cu396 1.923 . S
O444 Cu397 1.905 . S
O445 C255 1.533 . S
O445 Cu396 1.930 . S
O445 Cu405 1.920 . S
O446 C282 1.438 . S
O446 Cu398 1.923 . S
O446 Cu399 1.905 . S
O447 C283 1.533 . S
O447 Cu398 1.930 . S
O447 Cu407 1.920 . S
O448 C310 1.438 . S
O448 Cu400 1.923 . S
O448 Cu401 1.905 . S
O449 C311 1.533 . S
O449 Cu400 1.930 . S
O449 Cu403 1.920 1_455 S
O450 C338 1.438 . S
O450 Cu402 1.923 . S
O450 Cu403 1.905 . S
O451 C339 1.533 . S
O451 Cu399 1.920 . S
O451 Cu402 1.930 . S
O452 C366 1.438 . S
O452 Cu404 1.923 . S
O452 Cu405 1.905 . S
O453 C367 1.533 . S
O453 Cu401 1.920 . S
O453 Cu404 1.930 . S
O454 C394 1.438 . S
O454 Cu406 1.923 . S
O454 Cu407 1.905 . S
O455 C395 1.533 . S
O455 Cu397 1.920 1_655 S
O455 Cu406 1.930 . S
C456 C457 1.388 . S
C456 N459 1.338 . S
C456 C461 1.503 . S
C457 C456 1.388 . S
C457 C458 1.396 . S
C458 C457 1.396 . S
C458 N460 1.348 . S
C458 C465 1.504 . S
N459 C456 1.338 . S
N459 N460 1.361 . S
N459 Cu624 1.924 . S
N460 C458 1.348 . S
N460 N459 1.361 . S
N460 Cu625 1.964 . S
C461 C456 1.503 . S
C461 H462 0.979 . S
C461 H463 0.979 . S
C461 H464 0.979 1_565 S
H462 C461 0.979 . S
H463 C461 0.979 . S
H464 C461 0.979 1_545 S
C465 C458 1.504 . S
C465 H466 0.981 . S
C465 H467 0.980 1_565 S
C465 H468 0.979 . S
H466 C465 0.981 . S
H467 C465 0.980 1_545 S
H468 C465 0.979 . S
C469 C471 1.402 . S
C469 N472 1.356 . S
C469 C477 1.481 . S
C470 C471 1.400 . S
C470 N473 1.325 . S
C470 C481 1.503 . S
C471 C469 1.402 . S
C471 C470 1.400 . S
N472 C469 1.356 . S
N472 N473 1.365 . S
N472 Cu631 1.941 . S
N473 C470 1.325 . S
N473 N472 1.365 . S
N473 Cu628 1.924 . S
H474 C477 0.980 . S
H475 C477 0.980 . S
H476 C477 0.980 . S
C477 C469 1.481 . S
C477 H474 0.980 . S
C477 H475 0.980 . S
C477 H476 0.980 . S
H478 C481 0.978 . S
H479 C481 0.978 . S
H480 C481 0.983 . S
C481 C470 1.503 . S
C481 H478 0.978 . S
C481 H479 0.978 . S
C481 H480 0.983 . S
C482 H636 0.979 . S
C482 H637 0.981 . S
C482 H638 0.981 . S
C482 O672 1.438 . S
C483 H639 0.980 . S
C483 H640 0.979 . S
C483 H641 0.980 . S
C483 O673 1.533 . S
C484 N485 1.338 . S
C484 C487 1.388 . S
C484 C492 1.503 . S
N485 C484 1.338 . S
N485 N486 1.361 . S
N485 Cu626 1.924 . S
N486 N485 1.361 . S
N486 C488 1.348 . S
N486 Cu627 1.964 . S
C487 C484 1.388 . S
C487 C488 1.396 . S
C488 N486 1.348 . S
C488 C487 1.396 . S
C488 C496 1.504 . S
H489 C492 0.979 . S
H490 C492 0.979 . S
H491 C492 0.979 . S
C492 C484 1.503 . S
C492 H489 0.979 . S
C492 H490 0.979 . S
C492 H491 0.979 . S
H493 C496 0.981 . S
H494 C496 0.980 . S
H495 C496 0.979 . S
C496 C488 1.504 . S
C496 H493 0.981 . S
C496 H494 0.980 . S
C496 H495 0.979 . S
C497 N499 1.356 . S
C497 C501 1.402 . S
C497 C505 1.481 . S
C498 N500 1.325 . S
C498 C501 1.400 . S
C498 C506 1.503 . S
N499 C497 1.356 . S
N499 N500 1.365 . S
N499 Cu633 1.941 . S
N500 C498 1.325 . S
N500 N499 1.365 . S
N500 Cu624 1.924 . S
C501 C497 1.402 . S
C501 C498 1.400 . S
H502 C505 0.980 . S
H503 C505 0.980 . S
H504 C505 0.980 . S
C505 C497 1.481 . S
C505 H502 0.980 . S
C505 H503 0.980 . S
C505 H504 0.980 . S
C506 C498 1.503 . S
C506 H507 0.978 . S
C506 H508 0.978 . S
C506 H509 0.983 . S
H507 C506 0.978 . S
H508 C506 0.978 . S
H509 C506 0.983 . S
C510 H642 0.979 . S
C510 H643 0.981 . S
C510 H644 0.961 1_545 S
C510 O674 1.438 . S
C511 H645 0.980 . S
C511 H646 0.979 . S
C511 H647 0.980 . S
C511 O675 1.533 . S
C512 N513 1.338 . S
C512 C514 1.388 . S
C512 C520 1.503 . S
N513 C512 1.338 . S
N513 N515 1.361 . S
N513 Cu628 1.924 . S
C514 C512 1.388 . S
C514 C516 1.396 . S
N515 N513 1.361 . S
N515 C516 1.348 . S
N515 Cu629 1.964 . S
C516 C514 1.396 . S
C516 N515 1.348 . S
C516 C522 1.504 . S
H517 C520 0.979 . S
H518 C520 0.979 . S
H519 C520 0.979 . S
C520 C512 1.503 . S
C520 H517 0.979 . S
C520 H518 0.979 . S
C520 H519 0.979 . S
H521 C522 0.981 . S
C522 C516 1.504 . S
C522 H521 0.981 . S
C522 H523 0.979 . S
C522 H524 0.980 . S
H523 C522 0.979 . S
H524 C522 0.980 . S
C525 N527 1.356 . S
C525 C529 1.402 . S
C525 C531 1.481 . S
C526 N528 1.326 . S
C526 C529 1.400 1_545 S
C526 C536 1.503 . S
N527 C525 1.356 . S
N527 N528 1.359 1_565 S
N527 Cu635 1.941 . S
N528 C526 1.326 . S
N528 N527 1.359 1_545 S
N528 Cu626 1.927 . S
C529 C525 1.402 . S
C529 C526 1.400 1_565 S
H530 C531 0.980 . S
C531 C525 1.481 . S
C531 H530 0.980 . S
C531 H532 0.980 . S
C531 H533 0.980 . S
H532 C531 0.980 . S
H533 C531 0.980 . S
H534 C536 0.978 . S
H535 C536 0.978 . S
C536 C526 1.503 . S
C536 H534 0.978 . S
C536 H535 0.978 . S
C536 H537 0.983 . S
H537 C536 0.983 . S
C538 H648 0.979 . S
C538 H649 0.981 . S
C538 H650 0.981 . S
C538 O676 1.438 . S
C539 H651 0.980 . S
C539 H652 0.979 . S
C539 H653 0.980 . S
C539 O677 1.533 . S
C540 N541 1.338 . S
C540 C542 1.388 . S
C540 C545 1.503 . S
N541 C540 1.338 . S
N541 N544 1.361 . S
N541 Cu630 1.924 . S
C542 C540 1.388 . S
C542 C543 1.396 . S
C543 C542 1.396 . S
C543 N544 1.348 . S
C543 C549 1.504 . S
N544 N541 1.361 . S
N544 C543 1.348 . S
N544 Cu631 1.964 . S
C545 C540 1.503 . S
C545 H546 0.979 . S
C545 H547 0.979 . S
C545 H548 0.979 1_545 S
H546 C545 0.979 . S
H547 C545 0.979 . S
H548 C545 0.979 1_565 S
C549 C543 1.504 . S
C549 H550 0.981 . S
C549 H551 0.980 1_545 S
C549 H552 0.979 . S
H550 C549 0.981 . S
H551 C549 0.980 1_565 S
H552 C549 0.979 . S
C553 C554 1.402 . S
C553 N556 1.356 . S
C553 C561 1.481 . S
C554 C553 1.402 . S
C554 C555 1.400 . S
C555 C554 1.400 . S
C555 N557 1.325 . S
C555 C562 1.503 . S
N556 C553 1.356 . S
N556 N557 1.365 . S
N556 Cu625 1.941 . S
N557 C555 1.325 . S
N557 N556 1.365 . S
N557 Cu634 1.924 . S
H558 C561 0.980 . S
H559 C561 0.980 . S
H560 C561 0.980 . S
C561 C553 1.481 . S
C561 H558 0.980 . S
C561 H559 0.980 . S
C561 H560 0.980 . S
C562 C555 1.503 . S
C562 H563 0.978 . S
C562 H564 0.978 . S
C562 H565 0.983 . S
H563 C562 0.978 . S
H564 C562 0.978 . S
H565 C562 0.983 . S
C566 H654 0.979 . S
C566 H655 0.981 . S
C566 H656 0.981 . S
C566 O678 1.438 . S
C567 H657 0.980 . S
C567 H658 0.979 . S
C567 H659 0.980 . S
C567 O679 1.533 . S
C568 C569 1.388 . S
C568 N571 1.338 . S
C568 C573 1.503 . S
C569 C568 1.388 . S
C569 C570 1.396 . S
C570 C569 1.396 . S
C570 N572 1.348 . S
C570 C577 1.504 . S
N571 C568 1.338 . S
N571 N572 1.361 . S
N571 Cu632 1.924 . S
N572 C570 1.348 . S
N572 N571 1.361 . S
N572 Cu633 1.964 . S
C573 C568 1.503 . S
C573 H574 0.979 . S
C573 H575 0.979 . S
C573 H576 0.979 . S
H574 C573 0.979 . S
H575 C573 0.979 . S
H576 C573 0.979 . S
C577 C570 1.504 . S
C577 H578 0.981 . S
C577 H579 0.980 . S
C577 H580 0.979 . S
H578 C577 0.981 . S
H579 C577 0.980 . S
H580 C577 0.979 . S
C581 C582 1.402 . S
C581 N584 1.356 . S
C581 C586 1.481 . S
C582 C581 1.402 . S
C582 C583 1.400 . S
C583 C582 1.400 . S
C583 N585 1.325 . S
C583 C590 1.503 . S
N584 C581 1.356 . S
N584 N585 1.365 . S
N584 Cu627 1.941 . S
N585 C583 1.325 . S
N585 N584 1.365 . S
N585 Cu630 1.924 . S
C586 C581 1.481 . S
C586 H587 0.980 . S
C586 H588 0.980 . S
C586 H589 0.980 . S
H587 C586 0.980 . S
H588 C586 0.980 . S
H589 C586 0.980 . S
C590 C583 1.503 . S
C590 H591 0.978 . S
C590 H592 0.978 . S
C590 H593 0.983 . S
H591 C590 0.978 . S
H592 C590 0.978 . S
H593 C590 0.983 . S
C594 H660 0.979 . S
C594 H661 0.981 . S
C594 H662 0.981 1_565 S
C594 O680 1.438 . S
C595 H663 0.980 . S
C595 H664 0.979 . S
C595 H665 0.980 . S
C595 O681 1.533 . S
C596 N597 1.338 . S
C596 C599 1.388 . S
C596 C604 1.503 . S
N597 C596 1.338 . S
N597 N598 1.361 . S
N597 Cu634 1.924 . S
N598 N597 1.361 . S
N598 C600 1.348 . S
N598 Cu635 1.964 . S
C599 C596 1.388 . S
C599 C600 1.396 . S
C600 N598 1.348 . S
C600 C599 1.396 . S
C600 C608 1.504 . S
H601 C604 0.979 . S
H602 C604 0.979 . S
H603 C604 0.979 . S
C604 C596 1.503 . S
C604 H601 0.979 . S
C604 H602 0.979 . S
C604 H603 0.979 . S
H605 C608 0.981 . S
H606 C608 0.980 . S
H607 C608 0.979 . S
C608 C600 1.504 . S
C608 H605 0.981 . S
C608 H606 0.980 . S
C608 H607 0.979 . S
C609 N610 1.356 . S
C609 C612 1.402 . S
C609 C614 1.481 . S
N610 C609 1.356 . S
N610 N611 1.364 1_545 S
N610 Cu629 1.941 . S
N611 N610 1.364 1_565 S
N611 C613 1.325 . S
N611 Cu632 1.924 . S
C612 C609 1.402 . S
C612 C613 1.400 1_545 S
C613 N611 1.325 . S
C613 C612 1.400 1_565 S
C613 C618 1.503 . S
C614 C609 1.481 . S
C614 H615 0.980 . S
C614 H616 0.980 . S
C614 H617 0.980 . S
H615 C614 0.980 . S
H616 C614 0.980 . S
H617 C614 0.980 . S
C618 C613 1.503 . S
C618 H619 0.978 . S
C618 H620 0.978 . S
C618 H621 0.983 . S
H619 C618 0.978 . S
H620 C618 0.978 . S
H621 C618 0.983 . S
C622 H666 0.979 . S
C622 H667 0.981 . S
C622 H668 0.981 . S
C622 O682 1.438 . S
C623 H669 0.980 . S
C623 H670 0.979 . S
C623 H671 0.980 . S
C623 O683 1.533 . S
Cu624 N459 1.924 . S
Cu624 N500 1.924 . S
Cu624 O672 1.923 . S
Cu624 O673 1.930 . S
Cu625 N460 1.964 . S
Cu625 N556 1.941 . S
Cu625 O672 1.905 . S
Cu625 O683 1.920 . S
Cu626 N485 1.924 . S
Cu626 N528 1.927 . S
Cu626 O674 1.923 . S
Cu626 O675 1.930 . S
Cu627 N486 1.964 . S
Cu627 N584 1.941 . S
Cu627 O674 1.905 . S
Cu627 O679 1.920 . S
Cu628 N473 1.924 . S
Cu628 N513 1.924 . S
Cu628 O676 1.923 . S
Cu628 O677 1.930 . S
Cu629 N515 1.964 . S
Cu629 N610 1.941 . S
Cu629 O676 1.905 . S
Cu629 O681 1.920 1_545 S
Cu630 N541 1.924 . S
Cu630 N585 1.924 . S
Cu630 O678 1.923 . S
Cu630 O679 1.930 . S
Cu631 N472 1.941 . S
Cu631 N544 1.964 . S
Cu631 O677 1.920 . S
Cu631 O678 1.905 . S
Cu632 N571 1.924 . S
Cu632 N611 1.924 . S
Cu632 O680 1.923 . S
Cu632 O681 1.930 . S
Cu633 N499 1.941 . S
Cu633 N572 1.964 . S
Cu633 O673 1.920 . S
Cu633 O680 1.905 . S
Cu634 N557 1.924 . S
Cu634 N597 1.924 . S
Cu634 O682 1.923 . S
Cu634 O683 1.930 . S
Cu635 N527 1.941 . S
Cu635 N598 1.964 . S
Cu635 O675 1.920 1_565 S
Cu635 O682 1.905 . S
H636 C482 0.979 . S
H637 C482 0.981 . S
H638 C482 0.981 . S
H639 C483 0.980 . S
H640 C483 0.979 . S
H641 C483 0.980 . S
H642 C510 0.979 . S
H643 C510 0.981 . S
H644 C510 0.961 1_565 S
H645 C511 0.980 . S
H646 C511 0.979 . S
H647 C511 0.980 . S
H648 C538 0.979 . S
H649 C538 0.981 . S
H650 C538 0.981 . S
H651 C539 0.980 . S
H652 C539 0.979 . S
H653 C539 0.980 . S
H654 C566 0.979 . S
H655 C566 0.981 . S
H656 C566 0.981 . S
H657 C567 0.980 . S
H658 C567 0.979 . S
H659 C567 0.980 . S
H660 C594 0.979 . S
H661 C594 0.981 . S
H662 C594 0.981 1_545 S
H663 C595 0.980 . S
H664 C595 0.979 . S
H665 C595 0.980 . S
H666 C622 0.979 . S
H667 C622 0.981 . S
H668 C622 0.981 . S
H669 C623 0.980 . S
H670 C623 0.979 . S
H671 C623 0.980 . S
O672 C482 1.438 . S
O672 Cu624 1.923 . S
O672 Cu625 1.905 . S
O673 C483 1.533 . S
O673 Cu624 1.930 . S
O673 Cu633 1.920 . S
O674 C510 1.438 . S
O674 Cu626 1.923 . S
O674 Cu627 1.905 . S
O675 C511 1.533 . S
O675 Cu626 1.930 . S
O675 Cu635 1.920 1_545 S
O676 C538 1.438 . S
O676 Cu628 1.923 . S
O676 Cu629 1.905 . S
O677 C539 1.533 . S
O677 Cu628 1.930 . S
O677 Cu631 1.920 . S
O678 C566 1.438 . S
O678 Cu630 1.923 . S
O678 Cu631 1.905 . S
O679 C567 1.533 . S
O679 Cu627 1.920 . S
O679 Cu630 1.930 . S
O680 C594 1.438 . S
O680 Cu632 1.923 . S
O680 Cu633 1.905 . S
O681 C595 1.533 . S
O681 Cu629 1.920 1_565 S
O681 Cu632 1.930 . S
O682 C622 1.438 . S
O682 Cu634 1.923 . S
O682 Cu635 1.905 . S
O683 C623 1.533 . S
O683 Cu625 1.920 . S
O683 Cu634 1.930 . S
C684 C685 1.388 . S
C684 N687 1.338 . S
C684 C689 1.503 . S
C685 C684 1.388 . S
C685 C686 1.396 . S
C686 C685 1.396 . S
C686 N688 1.348 . S
C686 C693 1.504 . S
N687 C684 1.338 . S
N687 N688 1.361 . S
N687 Cu852 1.924 . S
N688 C686 1.348 . S
N688 N687 1.361 . S
N688 Cu853 1.964 . S
C689 C684 1.503 . S
C689 H690 0.979 . S
C689 H691 0.979 . S
C689 H692 0.979 . S
H690 C689 0.979 . S
H691 C689 0.979 . S
H692 C689 0.979 . S
C693 C686 1.504 . S
C693 H694 0.981 . S
C693 H695 0.980 . S
C693 H696 0.979 . S
H694 C693 0.981 . S
H695 C693 0.980 . S
H696 C693 0.979 . S
C697 C699 1.402 . S
C697 N700 1.356 . S
C697 C705 1.481 . S
C698 C699 1.400 . S
C698 N701 1.325 . S
C698 C709 1.503 . S
C699 C697 1.402 . S
C699 C698 1.400 . S
N700 C697 1.356 . S
N700 N701 1.365 . S
N700 Cu859 1.941 . S
N701 C698 1.325 . S
N701 N700 1.365 . S
N701 Cu856 1.924 . S
H702 C705 0.980 . S
H703 C705 0.980 . S
H704 C705 0.980 . S
C705 C697 1.481 . S
C705 H702 0.980 . S
C705 H703 0.980 . S
C705 H704 0.980 . S
H706 C709 0.978 . S
H707 C709 0.978 . S
H708 C709 0.983 . S
C709 C698 1.503 . S
C709 H706 0.978 . S
C709 H707 0.978 . S
C709 H708 0.983 . S
C710 H864 0.979 . S
C710 H865 0.981 . S
C710 H866 0.961 1_554 S
C710 O900 1.438 . S
C711 H867 0.980 . S
C711 H868 0.979 . S
C711 H869 0.980 . S
C711 O901 1.533 . S
C712 N713 1.338 . S
C712 C715 1.388 . S
C712 C720 1.503 . S
N713 C712 1.338 . S
N713 N714 1.361 . S
N713 Cu854 1.924 . S
N714 N713 1.361 . S
N714 C716 1.348 . S
N714 Cu855 1.964 . S
C715 C712 1.388 . S
C715 C716 1.396 . S
C716 N714 1.348 . S
C716 C715 1.396 . S
C716 C724 1.504 . S
H717 C720 0.979 . S
H718 C720 0.979 . S
H719 C720 0.979 . S
C720 C712 1.503 . S
C720 H717 0.979 . S
C720 H718 0.979 . S
C720 H719 0.979 . S
H721 C724 0.981 . S
H722 C724 0.980 . S
H723 C724 0.979 . S
C724 C716 1.504 . S
C724 H721 0.981 . S
C724 H722 0.980 . S
C724 H723 0.979 . S
C725 N727 1.356 . S
C725 C729 1.402 . S
C725 C733 1.481 . S
C726 N728 1.326 . S
C726 C729 1.400 1_554 S
C726 C734 1.503 . S
N727 C725 1.356 . S
N727 N728 1.359 1_556 S
N727 Cu861 1.941 . S
N728 C726 1.326 . S
N728 N727 1.359 1_554 S
N728 Cu852 1.927 . S
C729 C725 1.402 . S
C729 C726 1.400 1_556 S
H730 C733 0.980 . S
H731 C733 0.980 . S
H732 C733 0.980 . S
C733 C725 1.481 . S
C733 H730 0.980 . S
C733 H731 0.980 . S
C733 H732 0.980 . S
C734 C726 1.503 . S
C734 H735 0.978 . S
C734 H736 0.978 . S
C734 H737 0.983 . S
H735 C734 0.978 . S
H736 C734 0.978 . S
H737 C734 0.983 . S
C738 H870 0.979 . S
C738 H871 0.981 . S
C738 H872 0.981 . S
C738 O902 1.438 . S
C739 H873 0.980 . S
C739 H874 0.979 . S
C739 H875 0.980 . S
C739 O903 1.533 . S
C740 N741 1.338 . S
C740 C742 1.388 . S
C740 C748 1.503 . S
N741 C740 1.338 . S
N741 N743 1.361 . S
N741 Cu856 1.924 . S
C742 C740 1.388 . S
C742 C744 1.396 . S
N743 N741 1.361 . S
N743 C744 1.348 . S
N743 Cu857 1.964 . S
C744 C742 1.396 . S
C744 N743 1.348 . S
C744 C750 1.504 . S
H745 C748 0.979 . S
H746 C748 0.979 . S
H747 C748 0.979 1_554 S
C748 C740 1.503 . S
C748 H745 0.979 . S
C748 H746 0.979 . S
C748 H747 0.979 1_556 S
H749 C750 0.981 . S
C750 C744 1.504 . S
C750 H749 0.981 . S
C750 H751 0.979 . S
C750 H752 0.980 1_556 S
H751 C750 0.979 . S
H752 C750 0.980 1_554 S
C753 N755 1.356 . S
C753 C757 1.402 . S
C753 C759 1.481 . S
C754 N756 1.325 . S
C754 C757 1.400 . S
C754 C764 1.503 . S
N755 C753 1.356 . S
N755 N756 1.365 . S
N755 Cu863 1.941 . S
N756 C754 1.325 . S
N756 N755 1.365 . S
N756 Cu854 1.924 . S
C757 C753 1.402 . S
C757 C754 1.400 . S
H758 C759 0.980 . S
C759 C753 1.481 . S
C759 H758 0.980 . S
C759 H760 0.980 . S
C759 H761 0.980 . S
H760 C759 0.980 . S
H761 C759 0.980 . S
H762 C764 0.978 . S
H763 C764 0.978 . S
C764 C754 1.503 . S
C764 H762 0.978 . S
C764 H763 0.978 . S
C764 H765 0.983 . S
H765 C764 0.983 . S
C766 H876 0.979 . S
C766 H877 0.981 . S
C766 H878 0.981 . S
C766 O904 1.438 . S
C767 H879 0.980 . S
C767 H880 0.979 . S
C767 H881 0.980 . S
C767 O905 1.533 . S
C768 N769 1.338 . S
C768 C770 1.388 . S
C768 C773 1.503 . S
N769 C768 1.338 . S
N769 N772 1.361 . S
N769 Cu858 1.924 . S
C770 C768 1.388 . S
C770 C771 1.396 . S
C771 C770 1.396 . S
C771 N772 1.348 . S
C771 C777 1.504 . S
N772 N769 1.361 . S
N772 C771 1.348 . S
N772 Cu859 1.964 . S
C773 C768 1.503 . S
C773 H774 0.979 . S
C773 H775 0.979 . S
C773 H776 0.979 . S
H774 C773 0.979 . S
H775 C773 0.979 . S
H776 C773 0.979 . S
C777 C771 1.504 . S
C777 H778 0.981 . S
C777 H779 0.980 . S
C777 H780 0.979 . S
H778 C777 0.981 . S
H779 C777 0.980 . S
H780 C777 0.979 . S
C781 C782 1.402 . S
C781 N784 1.356 . S
C781 C789 1.481 . S
C782 C781 1.402 . S
C782 C783 1.400 . S
C783 C782 1.400 . S
C783 N785 1.325 . S
C783 C790 1.503 . S
N784 C781 1.356 . S
N784 N785 1.365 . S
N784 Cu853 1.941 . S
N785 C783 1.325 . S
N785 N784 1.365 . S
N785 Cu862 1.924 . S
H786 C789 0.980 . S
H787 C789 0.980 . S
H788 C789 0.980 . S
C789 C781 1.481 . S
C789 H786 0.980 . S
C789 H787 0.980 . S
C789 H788 0.980 . S
C790 C783 1.503 . S
C790 H791 0.978 . S
C790 H792 0.978 . S
C790 H793 0.983 . S
H791 C790 0.978 . S
H792 C790 0.978 . S
H793 C790 0.983 . S
C794 H882 0.979 . S
C794 H883 0.981 . S
C794 H884 0.981 1_556 S
C794 O906 1.438 . S
C795 H885 0.980 . S
C795 H886 0.979 . S
C795 H887 0.980 . S
C795 O907 1.533 . S
C796 C797 1.388 . S
C796 N799 1.338 . S
C796 C801 1.503 . S
C797 C796 1.388 . S
C797 C798 1.396 . S
C798 C797 1.396 . S
C798 N800 1.348 . S
C798 C805 1.504 . S
N799 C796 1.338 . S
N799 N800 1.361 . S
N799 Cu860 1.924 . S
N800 C798 1.348 . S
N800 N799 1.361 . S
N800 Cu861 1.964 . S
C801 C796 1.503 . S
C801 H802 0.979 . S
C801 H803 0.979 . S
C801 H804 0.979 . S
H802 C801 0.979 . S
H803 C801 0.979 . S
H804 C801 0.979 . S
C805 C798 1.504 . S
C805 H806 0.981 . S
C805 H807 0.980 . S
C805 H808 0.979 . S
H806 C805 0.981 . S
H807 C805 0.980 . S
H808 C805 0.979 . S
C809 C810 1.402 . S
C809 N812 1.356 . S
C809 C814 1.481 . S
C810 C809 1.402 . S
C810 C811 1.400 1_554 S
C811 C810 1.400 1_556 S
C811 N813 1.325 . S
C811 C818 1.503 . S
N812 C809 1.356 . S
N812 N813 1.364 1_554 S
N812 Cu855 1.941 . S
N813 C811 1.325 . S
N813 N812 1.364 1_556 S
N813 Cu858 1.924 . S
C814 C809 1.481 . S
C814 H815 0.980 . S
C814 H816 0.980 . S
C814 H817 0.980 . S
H815 C814 0.980 . S
H816 C814 0.980 . S
H817 C814 0.980 . S
C818 C811 1.503 . S
C818 H819 0.978 . S
C818 H820 0.978 . S
C818 H821 0.983 . S
H819 C818 0.978 . S
H820 C818 0.978 . S
H821 C818 0.983 . S
C822 H888 0.979 . S
C822 H889 0.981 . S
C822 H890 0.981 . S
C822 O908 1.438 . S
C823 H891 0.980 . S
C823 H892 0.979 . S
C823 H893 0.980 . S
C823 O909 1.533 . S
C824 N825 1.338 . S
C824 C827 1.388 . S
C824 C832 1.503 . S
N825 C824 1.338 . S
N825 N826 1.361 . S
N825 Cu862 1.924 . S
N826 N825 1.361 . S
N826 C828 1.348 . S
N826 Cu863 1.964 . S
C827 C824 1.388 . S
C827 C828 1.396 . S
C828 N826 1.348 . S
C828 C827 1.396 . S
C828 C836 1.504 . S
H829 C832 0.979 . S
H830 C832 0.979 . S
H831 C832 0.979 1_556 S
C832 C824 1.503 . S
C832 H829 0.979 . S
C832 H830 0.979 . S
C832 H831 0.979 1_554 S
H833 C836 0.981 . S
H834 C836 0.980 1_556 S
H835 C836 0.979 . S
C836 C828 1.504 . S
C836 H833 0.981 . S
C836 H834 0.980 1_554 S
C836 H835 0.979 . S
C837 N838 1.356 . S
C837 C840 1.402 . S
C837 C842 1.481 . S
N838 C837 1.356 . S
N838 N839 1.365 . S
N838 Cu857 1.941 . S
N839 N838 1.365 . S
N839 C841 1.325 . S
N839 Cu860 1.924 . S
C840 C837 1.402 . S
C840 C841 1.400 . S
C841 N839 1.325 . S
C841 C840 1.400 . S
C841 C846 1.503 . S
C842 C837 1.481 . S
C842 H843 0.980 . S
C842 H844 0.980 . S
C842 H845 0.980 . S
H843 C842 0.980 . S
H844 C842 0.980 . S
H845 C842 0.980 . S
C846 C841 1.503 . S
C846 H847 0.978 . S
C846 H848 0.978 . S
C846 H849 0.983 . S
H847 C846 0.978 . S
H848 C846 0.978 . S
H849 C846 0.983 . S
C850 H894 0.979 . S
C850 H895 0.981 . S
C850 H896 0.981 . S
C850 O910 1.438 . S
C851 H897 0.980 . S
C851 H898 0.979 . S
C851 H899 0.980 . S
C851 O911 1.533 . S
Cu852 N687 1.924 . S
Cu852 N728 1.927 . S
Cu852 O900 1.923 . S
Cu852 O901 1.930 . S
Cu853 N688 1.964 . S
Cu853 N784 1.941 . S
Cu853 O900 1.905 . S
Cu853 O911 1.920 . S
Cu854 N713 1.924 . S
Cu854 N756 1.924 . S
Cu854 O902 1.923 . S
Cu854 O903 1.930 . S
Cu855 N714 1.964 . S
Cu855 N812 1.941 . S
Cu855 O902 1.905 . S
Cu855 O907 1.920 1_554 S
Cu856 N701 1.924 . S
Cu856 N741 1.924 . S
Cu856 O904 1.923 . S
Cu856 O905 1.930 . S
Cu857 N743 1.964 . S
Cu857 N838 1.941 . S
Cu857 O904 1.905 . S
Cu857 O909 1.920 . S
Cu858 N769 1.924 . S
Cu858 N813 1.924 . S
Cu858 O906 1.923 . S
Cu858 O907 1.930 . S
Cu859 N700 1.941 . S
Cu859 N772 1.964 . S
Cu859 O905 1.920 . S
Cu859 O906 1.905 . S
Cu860 N799 1.924 . S
Cu860 N839 1.924 . S
Cu860 O908 1.923 . S
Cu860 O909 1.930 . S
Cu861 N727 1.941 . S
Cu861 N800 1.964 . S
Cu861 O901 1.920 1_556 S
Cu861 O908 1.905 . S
Cu862 N785 1.924 . S
Cu862 N825 1.924 . S
Cu862 O910 1.923 . S
Cu862 O911 1.930 . S
Cu863 N755 1.941 . S
Cu863 N826 1.964 . S
Cu863 O903 1.920 . S
Cu863 O910 1.905 . S
H864 C710 0.979 . S
H865 C710 0.981 . S
H866 C710 0.961 1_556 S
H867 C711 0.980 . S
H868 C711 0.979 . S
H869 C711 0.980 . S
H870 C738 0.979 . S
H871 C738 0.981 . S
H872 C738 0.981 . S
H873 C739 0.980 . S
H874 C739 0.979 . S
H875 C739 0.980 . S
H876 C766 0.979 . S
H877 C766 0.981 . S
H878 C766 0.981 . S
H879 C767 0.980 . S
H880 C767 0.979 . S
H881 C767 0.980 . S
H882 C794 0.979 . S
H883 C794 0.981 . S
H884 C794 0.981 1_554 S
H885 C795 0.980 . S
H886 C795 0.979 . S
H887 C795 0.980 . S
H888 C822 0.979 . S
H889 C822 0.981 . S
H890 C822 0.981 . S
H891 C823 0.980 . S
H892 C823 0.979 . S
H893 C823 0.980 . S
H894 C850 0.979 . S
H895 C850 0.981 . S
H896 C850 0.981 . S
H897 C851 0.980 . S
H898 C851 0.979 . S
H899 C851 0.980 . S
O900 C710 1.438 . S
O900 Cu852 1.923 . S
O900 Cu853 1.905 . S
O901 C711 1.533 . S
O901 Cu852 1.930 . S
O901 Cu861 1.920 1_554 S
O902 C738 1.438 . S
O902 Cu854 1.923 . S
O902 Cu855 1.905 . S
O903 C739 1.533 . S
O903 Cu854 1.930 . S
O903 Cu863 1.920 . S
O904 C766 1.438 . S
O904 Cu856 1.923 . S
O904 Cu857 1.905 . S
O905 C767 1.533 . S
O905 Cu856 1.930 . S
O905 Cu859 1.920 . S
O906 C794 1.438 . S
O906 Cu858 1.923 . S
O906 Cu859 1.905 . S
O907 C795 1.533 . S
O907 Cu855 1.920 1_556 S
O907 Cu858 1.930 . S
O908 C822 1.438 . S
O908 Cu860 1.923 . S
O908 Cu861 1.905 . S
O909 C823 1.533 . S
O909 Cu857 1.920 . S
O909 Cu860 1.930 . S
O910 C850 1.438 . S
O910 Cu862 1.923 . S
O910 Cu863 1.905 . S
O911 C851 1.533 . S
O911 Cu853 1.920 . S
O911 Cu862 1.930 . S
C31 C341 1.742 1_655 S
C73 C612 3.614 1_565 S
C98 C243 3.618 1_455 S
C542 C1 1.742 1_545 S
C113 C259 1.748 1_455 S
C156 C529 3.618 1_545 S
C326 C15 3.614 1_455 S
C457 C86 1.748 1_565 S
C827 C58 1.742 1_554 S
C810 C45 3.614 1_554 S
C729 C126 3.618 1_556 S
C143 C742 1.748 1_554 S
C840 C301 3.617 . S
C229 C770 1.746 . S
C384 C757 3.615 . S
C685 C314 1.744 . S
C599 C286 1.744 . S
C273 C582 3.615 . S
C354 C501 3.617 . S
C514 C371 1.746 . S
C797 C487 1.744 . S
C554 C699 3.617 . S
C715 C569 1.746 . S
C471 C782 3.615 . S
