# Generated by pormake.
# Topology vby, (6)-cn, num edge types: 1
# Building blocks:
#     Node 0, Type 0, BuildingBlock: GEDQOX_clean_sbu_0, # of connection points: 6
#     Node 1, Type 0, BuildingBlock: GEDQOX_clean_sbu_0, # of connection points: 6
#     Node 2, Type 0, BuildingBlock: GEDQOX_clean_sbu_0, # of connection points: 6
#     Node 3, Type 0, BuildingBlock: GEDQOX_clean_sbu_0, # of connection points: 6
#     Node 4, Type 0, BuildingBlock: GEDQOX_clean_sbu_0, # of connection points: 6
#     Node 5, Type 0, BuildingBlock: GEDQOX_clean_sbu_0, # of connection points: 6
#     Node 6, Type 0, BuildingBlock: GEDQOX_clean_sbu_0, # of connection points: 6
#     Node 7, Type 0, BuildingBlock: GEDQOX_clean_sbu_0, # of connection points: 6
#     Edge 8, Type (0, 0), BuildingBlock: EZIPEK_clean_linker_0, # of connection points: 2
#     Edge 9, Type (0, 0), BuildingBlock: EZIPEK_clean_linker_0, # of connection points: 2
#     Edge 10, Type (0, 0), BuildingBlock: EZIPEK_clean_linker_0, # of connection points: 2
#     Edge 11, Type (0, 0), BuildingBlock: EZIPEK_clean_linker_0, # of connection points: 2
#     Edge 12, Type (0, 0), BuildingBlock: EZIPEK_clean_linker_0, # of connection points: 2
#     Edge 13, Type (0, 0), BuildingBlock: EZIPEK_clean_linker_0, # of connection points: 2
#     Edge 14, Type (0, 0), BuildingBlock: EZIPEK_clean_linker_0, # of connection points: 2
#     Edge 15, Type (0, 0), BuildingBlock: EZIPEK_clean_linker_0, # of connection points: 2
#     Edge 16, Type (0, 0), BuildingBlock: EZIPEK_clean_linker_0, # of connection points: 2
#     Edge 17, Type (0, 0), BuildingBlock: EZIPEK_clean_linker_0, # of connection points: 2
#     Edge 18, Type (0, 0), BuildingBlock: EZIPEK_clean_linker_0, # of connection points: 2
#     Edge 19, Type (0, 0), BuildingBlock: EZIPEK_clean_linker_0, # of connection points: 2
#     Edge 20, Type (0, 0), BuildingBlock: EZIPEK_clean_linker_0, # of connection points: 2
#     Edge 21, Type (0, 0), BuildingBlock: EZIPEK_clean_linker_0, # of connection points: 2
#     Edge 22, Type (0, 0), BuildingBlock: EZIPEK_clean_linker_0, # of connection points: 2
#     Edge 23, Type (0, 0), BuildingBlock: EZIPEK_clean_linker_0, # of connection points: 2
#     Edge 24, Type (0, 0), BuildingBlock: EZIPEK_clean_linker_0, # of connection points: 2
#     Edge 25, Type (0, 0), BuildingBlock: EZIPEK_clean_linker_0, # of connection points: 2
#     Edge 26, Type (0, 0), BuildingBlock: EZIPEK_clean_linker_0, # of connection points: 2
#     Edge 27, Type (0, 0), BuildingBlock: EZIPEK_clean_linker_0, # of connection points: 2
#     Edge 28, Type (0, 0), BuildingBlock: EZIPEK_clean_linker_0, # of connection points: 2
#     Edge 29, Type (0, 0), BuildingBlock: EZIPEK_clean_linker_0, # of connection points: 2
#     Edge 30, Type (0, 0), BuildingBlock: EZIPEK_clean_linker_0, # of connection points: 2
#     Edge 31, Type (0, 0), BuildingBlock: EZIPEK_clean_linker_0, # of connection points: 2
# Relax obj value: 0.135
# Max RMSD: 0.228
# Mean RMSD: 0.224
data_MOF--net-vby--node1-GEDQOX_clean_sbu_0--edge1-EZIPEK_clean_linker_0
_symmetry_space_group_name_H-M    P1
_symmetry_Int_Tables_number       1
_symmetry_cell_setting            triclinic
loop_
_symmetry_equiv_pos_as_xyz
'x, y, z'
_cell_length_a     21.365457
_cell_length_b     38.679651
_cell_length_c     20.978942
_cell_angle_alpha  93.677485
_cell_angle_beta   92.823676
_cell_angle_gamma 89.925566
loop_
_atom_site_label
_atom_site_type_symbol
_atom_site_fract_x
_atom_site_fract_y
_atom_site_fract_z
_atom_type_partial_charge
Nd0 Nd 0.16002 0.3718 0.03334 0.0
Nd1 Nd 0.04813 0.33571 0.02567 0.0
C2 C 0.27943 0.39171 0.03972 0.0
C3 C 0.34268 0.37764 0.02721 0.0
C4 C 0.38364 0.39651 0.99219 0.0
C5 C 0.44602 0.38605 0.98634 0.0
C6 C 0.46891 0.3567 0.01603 0.0
C7 C 0.42734 0.3369 0.04875 0.0
C8 C 0.36471 0.34715 0.05403 0.0
C9 C 0.10611 0.36515 0.1532 0.0
C10 C 0.17715 0.29279 0.01332 0.0
C11 C 0.93592 0.31099 0.04979 0.0
C12 C 0.86743 0.31599 0.03986 0.0
C13 C 0.82962 0.31463 0.09254 0.0
C14 C 0.76483 0.31967 0.08566 0.0
C15 C 0.73645 0.32624 0.02588 0.0
C16 C 0.77395 0.32707 0.97275 0.0
C17 C 0.83894 0.32182 0.97962 0.0
C18 C 0.07824 0.34437 0.9011 0.0
C19 C 0.05198 0.4233 0.02097 0.0
O20 O 0.24115 0.39669 0.99068 0.0
O21 O 0.25093 0.37983 0.08736 0.0
O22 O 0.12278 0.39386 0.13012 0.0
O23 O 0.11472 0.34132 0.11032 0.0
O24 O 0.19095 0.32105 0.98703 0.0
O25 O 0.12349 0.29197 0.04242 0.0
O26 O 0.96635 0.33426 0.08701 0.0
O27 O 0.96796 0.29975 1.00123 0.0
O28 O 0.05875 0.31569 0.92216 0.0
O29 O 0.08614 0.3673 0.9475 0.0
O30 O 1.01805 0.39539 0.03152 0.0
O31 O 0.11172 0.42072 0.0122 0.0
H32 H 0.36791 0.42005 0.97108 0.0
H33 H 0.47721 0.40167 0.96081 0.0
H34 H 0.44389 0.31411 0.07186 0.0
H35 H 0.33419 0.33182 0.08086 0.0
H36 H 0.85038 0.30989 0.13935 0.0
H37 H 0.73685 0.31899 0.12724 0.0
H38 H 0.75299 0.33217 0.92623 0.0
H39 H 0.8668 0.32255 0.93807 0.0
Nd40 Nd 0.90291 0.62049 0.99257 0.0
Nd41 Nd 1.01502 0.65508 1.00995 0.0
C42 C 0.78423 0.59978 0.97107 0.0
C43 C 0.71936 0.61237 0.98055 0.0
C44 C 0.70187 0.64698 0.97212 0.0
C45 C 0.63931 0.65755 0.97812 0.0
C46 C 0.5933 0.63373 0.99284 0.0
C47 C 0.61107 0.59942 1.00242 0.0
C48 C 0.67339 0.58886 0.99625 0.0
C49 C 0.94711 0.63051 0.12305 0.0
C50 C 0.88639 0.7 1.00248 0.0
C51 C 0.13043 0.67726 0.04628 0.0
C52 C 0.19704 0.6728 0.03034 0.0
C53 C 0.22049 0.64047 1.00803 0.0
C54 C 0.28484 0.636 0.9995 0.0
C55 C 0.32693 0.66373 0.01298 0.0
C56 C 0.30323 0.6963 0.0333 0.0
C57 C 0.23891 0.70075 0.04198 0.0
C58 C 0.99221 0.64535 0.87936 0.0
C59 C 1.00716 0.568 0.99567 0.0
O60 O 0.81656 0.61472 0.92933 0.0
O61 O 0.8184 0.59274 0.02181 0.0
O62 O 0.92782 0.60148 0.0946 0.0
O63 O 0.94323 0.65289 0.08199 0.0
O64 O 0.87119 0.67324 0.96458 0.0
O65 O 0.94084 0.69896 0.03565 0.0
O66 O 0.10312 0.65096 0.06936 0.0
O67 O 0.09314 0.69335 1.00694 0.0
O68 O 1.00631 0.67459 0.90983 0.0
O69 O 0.98202 0.6225 0.91928 0.0
O70 O 0.03759 0.59555 0.02314 0.0
O71 O 0.95397 0.57232 0.96423 0.0
H72 H 0.73629 0.66575 0.96022 0.0
H73 H 0.62671 0.68419 0.97082 0.0
H74 H 0.57643 0.58067 0.01396 0.0
H75 H 0.6856 0.56209 1.003 0.0
H76 H 0.18929 0.61849 0.99855 0.0
H77 H 0.30201 0.6107 0.98356 0.0
H78 H 0.33473 0.71808 0.0437 0.0
H79 H 0.22201 0.72589 0.05925 0.0
Nd80 Nd 0.05087 0.65672 0.51097 0.0
Nd81 Nd 0.16277 0.62327 0.50685 0.0
C82 C 0.9365 0.67861 0.53914 0.0
C83 C 0.86956 0.67104 0.52087 0.0
C84 C 0.83283 0.65417 0.56288 0.0
C85 C 0.77037 0.64559 0.5461 0.0
C86 C 0.74238 0.65221 0.48543 0.0
C87 C 0.7778 0.67318 0.44724 0.0
C88 C 0.84069 0.68162 0.46388 0.0
C89 C 0.07113 0.64504 0.38287 0.0
C90 C 0.05923 0.56928 0.50323 0.0
C91 C 0.28206 0.60336 0.50454 0.0
C92 C 0.34618 0.6144 0.49031 0.0
C93 C 0.37583 0.64317 0.5237 0.0
C94 C 0.43945 0.65005 0.5163 0.0
C95 C 0.47442 0.6283 0.47541 0.0
C96 C 0.44433 0.60045 0.44022 0.0
C97 C 0.3809 0.59354 0.44769 0.0
C98 C 0.11674 0.63317 0.63162 0.0
C99 C 0.17606 0.70178 0.49877 0.0
O100 O 0.9671 0.65475 0.56886 0.0
O101 O 0.97079 0.69317 0.49846 0.0
O102 O 0.05472 0.67435 0.41009 0.0
O103 O 0.08385 0.62311 0.42495 0.0
O104 O 1.02604 0.59727 0.52038 0.0
O105 O 0.11587 0.57266 0.48447 0.0
O106 O 0.24125 0.59655 0.45696 0.0
O107 O 0.25682 0.61845 0.55432 0.0
O108 O 0.134 0.60386 0.60466 0.0
O109 O 0.12169 0.65575 0.59125 0.0
O110 O 0.18904 0.67345 0.46563 0.0
O111 O 0.12549 0.70159 0.53304 0.0
H112 H 0.85247 0.64751 0.60911 0.0
H113 H 0.7442 0.63359 0.58162 0.0
H114 H 0.75861 0.68422 0.40496 0.0
H115 H 0.86647 0.69668 0.43213 0.0
H116 H 0.35057 0.65963 0.55723 0.0
H117 H 0.46187 0.6716 0.544 0.0
H118 H 0.47063 0.58329 0.40866 0.0
H119 H 0.35954 0.57106 0.42189 0.0
Nd120 Nd 0.90472 0.3727 0.50998 0.0
Nd121 Nd 1.01642 0.33688 0.50732 0.0
C122 C 0.78588 0.39335 0.51067 0.0
C123 C 0.72195 0.37971 0.51866 0.0
C124 C 0.68371 0.39629 0.56385 0.0
C125 C 0.62086 0.3865 0.56703 0.0
C126 C 0.59491 0.36012 0.52468 0.0
C127 C 0.63358 0.34262 0.48107 0.0
C128 C 0.69653 0.35225 0.47815 0.0
C129 C 0.95542 0.3658 0.38703 0.0
C130 C 0.88931 0.29308 0.51465 0.0
C131 C 0.12875 0.31257 0.47762 0.0
C132 C 0.19683 0.31891 0.48943 0.0
C133 C 0.23502 0.31907 0.43685 0.0
C134 C 0.29955 0.3249 0.44582 0.0
C135 C 0.32725 0.33065 0.50763 0.0
C136 C 0.28937 0.33023 0.56049 0.0
C137 C 0.22462 0.32432 0.5515 0.0
C138 C 0.98853 0.34639 0.6344 0.0
C139 C 1.01307 0.42452 0.52625 0.0
O140 O 0.82443 0.39676 0.56099 0.0
O141 O 0.81386 0.38248 0.45931 0.0
O142 O 0.93886 0.39449 0.41675 0.0
O143 O 0.94829 0.34199 0.42492 0.0
O144 O 0.87381 0.32181 0.54509 0.0
O145 O 0.94203 0.29239 0.48386 0.0
O146 O 0.0975 0.33493 0.44465 0.0
O147 O 0.09698 0.30153 0.5239 0.0
O148 O 1.00753 0.31763 0.60679 0.0
O149 O 0.98046 0.36922 0.59323 0.0
O150 O 0.04585 0.39626 0.50952 0.0
O151 O 0.95427 0.42193 0.53901 0.0
H152 H 0.70193 0.41758 0.5954 0.0
H153 H 0.59179 0.40033 0.60099 0.0
H154 H 0.6145 0.32222 0.44798 0.0
H155 H 0.72461 0.3389 0.44276 0.0
H156 H 0.21479 0.31478 0.3886 0.0
H157 H 0.32791 0.32522 0.40445 0.0
H158 H 0.30987 0.33474 0.60856 0.0
H159 H 0.19641 0.32411 0.59294 0.0
Nd160 Nd 0.66179 0.8738 0.04543 0.0
Nd161 Nd 0.54399 0.83931 0.03685 0.0
C162 C 0.78092 0.89432 0.05435 0.0
C163 C 0.84455 0.88086 0.04084 0.0
C164 C 0.88841 0.90255 0.01548 0.0
C165 C 0.95091 0.89203 1.00988 0.0
C166 C 0.97103 0.85967 0.03005 0.0
C167 C 0.9267 0.83739 0.05322 0.0
C168 C 0.86406 0.84779 0.05832 0.0
C169 C 0.60098 0.87277 0.16297 0.0
C170 C 0.67435 0.79232 0.0254 0.0
C171 C 0.43658 0.80795 0.05703 0.0
C172 C 0.3681 0.8127 0.04638 0.0
C173 C 0.32715 0.79749 0.08692 0.0
C174 C 0.26249 0.80364 0.08132 0.0
C175 C 0.23749 0.82503 0.03485 0.0
C176 C 0.2782 0.83968 0.99326 0.0
C177 C 0.34307 0.83366 0.99909 0.0
C178 C 0.56823 0.85873 0.91622 0.0
C179 C 0.55195 0.92437 0.02469 0.0
O180 O 0.74256 0.901 1.00609 0.0
O181 O 0.75248 0.88041 0.10009 0.0
O182 O 0.62302 0.90009 0.1392 0.0
O183 O 0.60869 0.84772 0.12255 0.0
O184 O 0.7022 0.82175 0.02086 0.0
O185 O 0.61316 0.79105 0.03493 0.0
O186 O 0.46486 0.83015 0.0984 0.0
O187 O 0.46962 0.80045 1.00708 0.0
O188 O 0.51549 0.86263 0.9435 0.0
O189 O 0.60939 0.8462 0.95513 0.0
O190 O 0.51966 0.89921 0.04898 0.0
O191 O 0.60881 0.91839 1.00669 0.0
H192 H 0.87479 0.92814 1.00185 0.0
H193 H 0.98419 0.90964 0.99186 0.0
H194 H 0.94098 0.81231 0.06898 0.0
H195 H 0.83141 0.83036 0.07784 0.0
H196 H 0.34538 0.78135 0.12387 0.0
H197 H 0.23203 0.79222 0.11403 0.0
H198 H 0.25991 0.85645 0.95737 0.0
H199 H 0.37375 0.84589 0.9676 0.0
Nd200 Nd 0.41087 0.12121 0.99845 0.0
Nd201 Nd 0.52288 0.15689 0.01576 0.0
C202 C 0.29232 0.10027 0.97766 0.0
C203 C 0.22759 0.11342 0.98724 0.0
C204 C 0.20517 0.14388 0.96053 0.0
C205 C 0.14252 0.15425 0.96659 0.0
C206 C 0.10116 0.13457 0.99993 0.0
C207 C 0.12404 0.10473 0.02801 0.0
C208 C 0.18638 0.09423 0.02153 0.0
C209 C 0.45424 0.13149 0.12898 0.0
C210 C 0.3941 0.20134 1.0072 0.0
C211 C 0.63728 0.18038 0.05303 0.0
C212 C 0.70495 0.17473 0.04164 0.0
C213 C 0.74611 0.16662 0.09294 0.0
C214 C 0.81026 0.16172 0.08427 0.0
C215 C 0.83491 0.16496 0.02411 0.0
C216 C 0.7941 0.17346 0.97278 0.0
C217 C 0.72975 0.1783 0.9814 0.0
C218 C 0.49595 0.14722 0.88423 0.0
C219 C 0.51827 0.0699 1.00238 0.0
O220 O 0.32486 0.11421 0.93487 0.0
O221 O 0.32666 0.09355 0.02849 0.0
O222 O 0.4361 0.10237 0.1001 0.0
O223 O 0.45082 0.15387 0.08765 0.0
O224 O 0.37781 0.17397 0.97129 0.0
O225 O 0.44894 0.20094 0.03976 0.0
O226 O 0.60827 0.15638 0.08117 0.0
O227 O 0.6018 0.19376 1.00855 0.0
O228 O 0.51237 0.1761 0.91511 0.0
O229 O 0.48908 0.12429 0.92484 0.0
O230 O 0.5479 0.09778 0.0294 0.0
O231 O 0.46442 0.07342 0.97153 0.0
H232 H 0.23565 0.15943 0.93408 0.0
H233 H 0.12605 0.17735 0.94452 0.0
H234 H 0.09313 0.08911 0.05387 0.0
H235 H 0.20218 0.07067 0.04252 0.0
H236 H 0.72854 0.16406 0.13999 0.0
H237 H 0.84073 0.15519 0.12453 0.0
H238 H 0.81204 0.17609 0.92594 0.0
H239 H 0.69955 0.18477 0.94093 0.0
Nd240 Nd 0.55005 0.15509 0.51656 0.0
Nd241 Nd 0.66181 0.11832 0.51022 0.0
C242 C 0.43725 0.17999 0.54417 0.0
C243 C 0.3689 0.17256 0.53357 0.0
C244 C 0.33988 0.14626 0.56511 0.0
C245 C 0.27485 0.14113 0.55824 0.0
C246 C 0.23735 0.16214 0.51983 0.0
C247 C 0.26601 0.1883 0.488 0.0
C248 C 0.33108 0.19351 0.49496 0.0
C249 C 0.57708 0.14451 0.38845 0.0
C250 C 0.55137 0.06796 0.50559 0.0
C251 C 0.77877 0.09489 0.50049 0.0
C252 C 0.84417 0.10777 0.50222 0.0
C253 C 0.85831 0.14267 0.49389 0.0
C254 C 0.92094 0.15395 0.49561 0.0
C255 C 0.97032 0.1305 0.50581 0.0
C256 C 0.95594 0.09573 0.51434 0.0
C257 C 0.89353 0.08451 0.51261 0.0
C258 C 0.61897 0.12965 0.63607 0.0
C259 C 0.67793 0.19889 0.51013 0.0
O260 O 0.47038 0.16003 0.58065 0.0
O261 O 0.46808 0.18916 0.49579 0.0
O262 O 0.56111 0.17369 0.41682 0.0
O263 O 0.58302 0.12168 0.42992 0.0
O264 O 0.52191 0.09639 0.5272 0.0
O265 O 0.60663 0.07037 0.48257 0.0
O266 O 0.742 0.10197 0.45155 0.0
O267 O 0.75012 0.09767 0.55396 0.0
O268 O 0.6348 0.10004 0.60917 0.0
O269 O 0.62332 0.15187 0.59469 0.0
O270 O 0.69441 0.17015 0.48019 0.0
O271 O 0.62445 0.19966 0.53977 0.0
H272 H 0.36721 0.12983 0.59577 0.0
H273 H 0.25366 0.12084 0.58326 0.0
H274 H 0.23791 0.20487 0.45829 0.0
H275 H 0.35176 0.21425 0.47069 0.0
H276 H 0.8211 0.16112 0.48587 0.0
H277 H 0.93092 0.18089 0.48889 0.0
H278 H 0.99319 0.07722 0.5222 0.0
H279 H 0.88378 0.05753 0.51925 0.0
Nd280 Nd 0.41146 0.87282 0.52369 0.0
Nd281 Nd 0.52311 0.83627 0.51267 0.0
C282 C 0.29382 0.89413 0.53587 0.0
C283 C 0.22935 0.8792 0.53329 0.0
C284 C 0.20097 0.87113 0.58969 0.0
C285 C 0.13854 0.85977 0.5878 0.0
C286 C 0.10302 0.85649 0.52958 0.0
C287 C 0.13156 0.86365 0.47303 0.0
C288 C 0.19397 0.87492 0.47482 0.0
C289 C 0.45423 0.8666 0.39726 0.0
C290 C 0.39388 0.79257 0.51406 0.0
C291 C 0.63496 0.81237 0.47964 0.0
C292 C 0.70351 0.81852 0.4918 0.0
C293 C 0.73512 0.84258 0.45724 0.0
C294 C 0.80009 0.84704 0.46589 0.0
C295 C 0.83514 0.82748 0.50898 0.0
C296 C 0.80399 0.80335 0.54351 0.0
C297 C 0.73888 0.79878 0.53474 0.0
C298 C 0.49759 0.84328 0.64185 0.0
C299 C 0.52169 0.92346 0.53347 0.0
O300 O 0.33171 0.88758 0.58437 0.0
O301 O 0.32267 0.8938 0.4825 0.0
O302 O 0.43745 0.89504 0.42784 0.0
O303 O 0.45025 0.84256 0.43519 0.0
O304 O 0.37888 0.82005 0.5486 0.0
O305 O 0.44704 0.79291 0.48389 0.0
O306 O 0.60299 0.83541 0.44896 0.0
O307 O 0.60339 0.79988 0.52472 0.0
O308 O 0.51619 0.81528 0.61124 0.0
O309 O 0.49057 0.86708 0.60245 0.0
O310 O 0.55116 0.89556 0.5093 0.0
O311 O 0.46624 0.92035 0.55583 0.0
H312 H 0.22655 0.87432 0.63555 0.0
H313 H 0.11733 0.85446 0.632 0.0
H314 H 0.10494 0.86138 0.42764 0.0
H315 H 0.21398 0.88105 0.43046 0.0
H316 H 0.70979 0.85785 0.423 0.0
H317 H 0.82315 0.86582 0.43883 0.0
H318 H 0.83014 0.788 0.57704 0.0
H319 H 0.7163 0.7796 0.56128 0.0
C320 C 0.55983 0.31812 0.98423 0.0
C321 C 0.53746 0.34853 0.01739 0.0
C322 C 0.6459 0.36611 0.04782 0.0
C323 C 0.66794 0.33417 0.02036 0.0
N324 N 0.64565 0.27746 0.96995 0.0
N325 N 0.55863 0.39779 0.09196 0.0
C326 C 0.62481 0.3095 0.99049 0.0
C327 C 0.58039 0.37154 0.05223 0.0
N328 N 0.51931 0.29801 0.9454 0.0
N329 N 0.6876 0.39173 0.0682 0.0
H330 H 0.51108 0.40226 0.09801 0.0
H331 H 0.58766 0.41301 0.12372 0.0
H332 H 0.73597 0.38891 0.06539 0.0
H333 H 0.67406 0.41686 0.08216 0.0
H334 H 0.53356 0.27749 0.91495 0.0
H335 H 0.47165 0.30355 0.93964 0.0
H336 H 0.61594 0.25713 0.95367 0.0
H337 H 0.69271 0.2703 0.97368 0.0
C338 C 0.43566 0.65632 0.06384 0.0
C339 C 0.39606 0.65826 1.00766 0.0
C340 C 0.48598 0.64448 0.94145 0.0
C341 C 0.52606 0.64425 0.99755 0.0
N342 N 0.54178 0.6562 0.11124 0.0
N343 N 0.38523 0.66056 0.8932 0.0
C344 C 0.50163 0.65212 0.0585 0.0
C345 C 0.42181 0.6542 0.94647 0.0
N346 N 0.4099 0.65701 0.1223 0.0
N347 N 0.50882 0.63433 0.88346 0.0
H348 H 0.33818 0.66762 0.89509 0.0
H349 H 0.40256 0.66171 0.84786 0.0
H350 H 0.55572 0.62789 0.87764 0.0
H351 H 0.48067 0.62995 0.84181 0.0
H352 H 0.43508 0.65182 0.16435 0.0
H353 H 0.36201 0.66008 0.12834 0.0
H354 H 0.52802 0.66562 0.156 0.0
H355 H 0.59014 0.65294 0.10914 0.0
C356 C 0.64975 0.61201 0.50037 0.0
C357 C 0.67554 0.63927 0.46753 0.0
C358 C 0.56913 0.65484 0.4299 0.0
C359 C 0.54366 0.63249 0.47301 0.0
N360 N 0.5602 0.58978 0.55114 0.0
N361 N 0.65639 0.66168 0.36389 0.0
C362 C 0.5841 0.61078 0.50833 0.0
C363 C 0.63487 0.65461 0.42168 0.0
N364 N 0.68721 0.58512 0.51721 0.0
N365 N 0.53077 0.67593 0.39585 0.0
H366 H 0.69847 0.65113 0.34859 0.0
H367 H 0.62785 0.67098 0.32706 0.0
H368 H 0.48217 0.67606 0.39894 0.0
H369 H 0.5481 0.69496 0.36835 0.0
H370 H 0.67035 0.56282 0.53588 0.0
H371 H 0.73383 0.58342 0.50456 0.0
H372 H 0.58834 0.57638 0.58319 0.0
H373 H 0.51238 0.58798 0.55832 0.0
C374 C 0.48325 0.37726 0.49846 0.0
C375 C 0.52618 0.35263 0.52266 0.0
C376 C 0.43867 0.31279 0.53578 0.0
C377 C 0.39567 0.33855 0.51613 0.0
N378 N 0.37597 0.39763 0.49091 0.0
N379 N 0.54471 0.29913 0.57339 0.0
C380 C 0.41773 0.3715 0.50114 0.0
C381 C 0.50384 0.32096 0.54393 0.0
N382 N 0.50503 0.40546 0.47014 0.0
N383 N 0.41743 0.28021 0.54465 0.0
H384 H 0.5926 0.30426 0.57997 0.0
H385 H 0.53074 0.27737 0.5958 0.0
H386 H 0.3701 0.27347 0.54007 0.0
H387 H 0.44687 0.25924 0.55208 0.0
H388 H 0.47606 0.42219 0.44529 0.0
H389 H 0.55258 0.41047 0.4662 0.0
H390 H 0.38937 0.42323 0.48673 0.0
H391 H 0.3276 0.39443 0.49247 0.0
C392 C 0.06126 0.82315 0.98894 0.0
C393 C 0.03927 0.85026 0.03112 0.0
C394 C 0.14775 0.86242 0.07146 0.0
C395 C 0.16915 0.83379 0.03273 0.0
N396 N 0.14576 0.78349 0.96191 0.0
N397 N 0.06008 0.89091 0.12179 0.0
C398 C 0.12567 0.81312 0.99361 0.0
C399 C 0.08218 0.86863 0.07487 0.0
N400 N 1.02106 0.80783 0.94288 0.0
N401 N 0.19023 0.88409 0.10442 0.0
H402 H 1.01249 0.8957 0.1269 0.0
H403 H 0.0883 0.90217 0.15935 0.0
H404 H 0.23849 0.8799 0.10481 0.0
H405 H 0.1781 0.90765 0.12732 0.0
H406 H 0.03534 0.79047 0.90648 0.0
H407 H 0.97387 0.81456 0.93786 0.0
H408 H 0.11557 0.76515 0.93859 0.0
H409 H 0.19266 0.77589 0.96293 0.0
C410 C 0.98705 0.122 0.97019 0.0
C411 C 1.03305 0.14396 1.00301 0.0
C412 C 0.94903 0.18264 0.04108 0.0
C413 C 0.90323 0.15841 0.01481 0.0
N414 N 0.87908 0.10236 0.96236 0.0
N415 N 0.05779 0.19327 0.07615 0.0
C416 C 0.92239 0.12739 0.98137 0.0
C417 C 1.01403 0.1739 0.04002 0.0
N418 N 1.00504 0.09658 0.92661 0.0
N419 N 0.93041 0.21437 0.06568 0.0
H420 H 0.10558 0.1877 0.07677 0.0
H421 H 0.04646 0.21318 0.10936 0.0
H422 H 0.88343 0.22166 0.06698 0.0
H423 H 0.96141 0.23451 0.07967 0.0
H424 H 0.97348 0.08215 0.89626 0.0
H425 H 0.05173 0.09215 0.91623 0.0
H426 H 0.89105 0.07762 0.94447 0.0
H427 H 0.83134 0.10518 0.96955 0.0
C428 C 0.12932 0.17086 0.5618 0.0
C429 C 0.1679 0.15668 0.51347 0.0
C430 C 0.07471 0.13132 0.45468 0.0
C431 C 0.03746 0.1418 0.50676 0.0
N432 N 1.0299 0.1689 0.61284 0.0
N433 N 0.17892 0.12093 0.41634 0.0
C434 C 0.06484 0.16112 0.56097 0.0
C435 C 0.14094 0.13636 0.46036 0.0
N436 N 0.1542 0.19414 0.60793 0.0
N437 N 0.04641 0.11732 0.39909 0.0
H438 H 0.22734 0.12466 0.41802 0.0
H439 H 0.16324 0.10254 0.38073 0.0
H440 H 0.9981 0.11345 0.39317 0.0
H441 H 0.06976 0.11243 0.35706 0.0
H442 H 0.1274 0.20834 0.64043 0.0
H443 H 0.20127 0.20149 0.61042 0.0
H444 H 0.0487 0.17938 0.65657 0.0
H445 H 0.98254 0.16257 0.61387 0.0
C446 C 0.94734 0.80845 0.4938 0.0
C447 C 0.90428 0.83326 0.51881 0.0
C448 C 0.99132 0.87331 0.54979 0.0
C449 C 0.03473 0.84785 0.52808 0.0
N450 N 0.05549 0.78902 0.49021 0.0
N451 N 0.8862 0.88586 0.58317 0.0
C452 C 1.01311 0.81471 0.50333 0.0
C453 C 0.92665 0.86466 0.55063 0.0
N454 N 0.92541 0.77956 0.45883 0.0
N455 N 1.01145 0.90628 0.56712 0.0
H456 H 0.83862 0.88027 0.5853 0.0
H457 H 0.90072 0.9072 0.613 0.0
H458 H 0.0583 0.91382 0.56717 0.0
H459 H 0.98116 0.92693 0.57624 0.0
H460 H 0.95404 0.7624 0.43345 0.0
H461 H 0.87779 0.77398 0.45116 0.0
H462 H 0.04294 0.76332 0.47836 0.0
H463 H 0.10381 0.79279 0.4964 0.0
C464 C 1.02641 0.50826 0.94928 0.0
C465 C 1.02591 0.53139 1.00473 0.0
C466 C 1.02739 0.48138 0.07221 0.0
C467 C 1.0257 0.45861 0.01648 0.0
N468 N 1.01228 0.44948 0.90255 0.0
N469 N 1.02207 0.54015 0.1196 0.0
C470 C 1.0215 0.47193 0.95518 0.0
C471 C 1.02568 0.518 0.0665 0.0
N472 N 1.03372 0.52123 0.89096 0.0
N473 N 1.03258 0.46773 0.1307 0.0
H474 H 1.0276 0.56679 0.11872 0.0
H475 H 1.0125 0.53235 0.16467 0.0
H476 H 1.02815 0.44121 0.13587 0.0
H477 H 0.04241 0.4822 0.17354 0.0
H478 H 0.04039 0.50596 0.8492 0.0
H479 H 0.03881 0.54765 0.88533 0.0
H480 H 1.00324 0.45718 0.85638 0.0
H481 H 1.00789 0.42284 0.90625 0.0
C482 C 1.02646 0.48429 0.57817 0.0
C483 C 0.03729 0.46054 0.52516 0.0
C484 C 0.04583 0.50909 0.45666 0.0
C485 C 0.0384 0.53305 0.50984 0.0
N486 N 1.02923 0.54362 0.62369 0.0
N487 N 0.07436 0.45124 0.41878 0.0
C488 C 1.0304 0.52072 0.57136 0.0
C489 C 0.05235 0.47319 0.46599 0.0
N490 N 1.01194 0.47177 0.63513 0.0
N491 N 0.04489 0.52073 0.39644 0.0
H492 H 0.07958 0.42471 0.42263 0.0
H493 H 0.09496 0.46021 0.37908 0.0
H494 H 0.03883 0.54682 0.38778 0.0
H495 H 0.04361 0.50427 0.35507 0.0
H496 H 0.99513 0.48706 0.67319 0.0
H497 H 1.01504 0.44548 0.64352 0.0
H498 H 1.03237 0.5363 0.67063 0.0
H499 H 1.02765 0.57034 0.62056 0.0
C500 C 0.53707 0.97534 0.95933 0.0
C501 C 0.529 0.96061 0.01844 0.0
C502 C 0.52754 0.01915 0.07147 0.0
C503 C 0.53817 0.03362 0.01242 0.0
N504 N 0.5691 0.02517 0.90451 0.0
N505 N 0.49556 0.96892 0.12565 0.0
C506 C 0.54727 0.01151 0.95751 0.0
C507 C 0.51847 0.98263 0.07333 0.0
N508 N 0.53074 0.95469 0.9043 0.0
N509 N 0.52926 0.04013 0.1263 0.0
H510 H 0.4849 0.94268 0.12636 0.0
H511 H 0.47991 0.98393 0.16466 0.0
H512 H 0.53927 0.06649 0.1266 0.0
H513 H 0.52833 0.03084 0.17173 0.0
H514 H 0.52989 0.96414 0.85888 0.0
H515 H 0.51842 0.92863 0.90488 0.0
H516 H 0.58212 0.01019 0.86428 0.0
H517 H 0.58107 0.05133 0.90447 0.0
C518 C 0.53801 0.01879 0.57585 0.0
C519 C 0.52978 0.03212 0.51469 0.0
C520 C 0.53445 0.97312 0.46458 0.0
C521 C 0.5423 0.95965 0.52558 0.0
N522 N 0.56912 0.9698 0.63705 0.0
N523 N 0.50114 0.02171 0.40369 0.0
C524 C 0.54853 0.98263 0.58076 0.0
C525 C 0.52286 0.0091 0.4598 0.0
N526 N 0.53315 0.0405 0.62917 0.0
N527 N 0.54117 0.95184 0.4111 0.0
H528 H 0.48768 0.04758 0.40152 0.0
H529 H 0.48929 0.00612 0.36254 0.0
H530 H 0.55268 0.92576 0.41298 0.0
H531 H 0.54351 0.96112 0.3659 0.0
H532 H 0.53193 0.03184 0.67504 0.0
H533 H 0.52296 0.06673 0.62664 0.0
H534 H 0.57989 0.9851 0.67879 0.0
H535 H 0.58272 0.94395 0.639 0.0
C536 C 0.25817 0.2575 0.95631 0.0
C537 C 0.22767 0.26558 0.01417 0.0
C538 C 0.31048 0.23311 0.07112 0.0
C539 C 0.34463 0.22885 0.01447 0.0
N540 N 0.35575 0.24349 0.90607 0.0
N541 N 0.23373 0.26674 0.12962 0.0
C542 C 0.31976 0.24316 0.95806 0.0
C543 C 0.2562 0.25491 0.07249 0.0
N544 N 0.2274 0.26283 0.89912 0.0
N545 N 0.32774 0.21511 0.12298 0.0
H546 H 0.19467 0.28269 0.13322 0.0
H547 H 0.25711 0.26303 0.17343 0.0
H548 H 0.36656 0.19891 0.12407 0.0
H549 H 0.30046 0.2141 0.16266 0.0
H550 H 0.24468 0.25463 0.8551 0.0
H551 H 0.1815 0.27209 0.89597 0.0
H552 H 0.34282 0.2563 0.86528 0.0
H553 H 0.4016 0.23411 0.90683 0.0
C554 C 0.74804 0.74993 0.07593 0.0
C555 C 0.71732 0.76174 0.01981 0.0
C556 C 0.80589 0.74015 0.9574 0.0
C557 C 0.83534 0.72648 0.01265 0.0
N558 N 0.8284 0.71385 0.12341 0.0
N559 N 0.71088 0.76217 0.90554 0.0
C560 C 0.80479 0.7302 0.07171 0.0
C561 C 0.74447 0.75473 0.96006 0.0
N562 N 0.72404 0.75878 0.13386 0.0
N563 N 0.83787 0.74012 0.90253 0.0
H564 H 0.66575 0.77253 0.90665 0.0
H565 H 0.7248 0.75508 0.85968 0.0
H566 H 0.8835 0.73065 0.89965 0.0
H567 H 0.82199 0.75241 0.8621 0.0
H568 H 0.74796 0.75535 0.17745 0.0
H569 H 0.68076 0.77103 0.13795 0.0
H570 H 0.80413 0.71161 0.16479 0.0
H571 H 0.87108 0.70093 0.12398 0.0
C572 C 0.27371 0.72675 0.55677 0.0
C573 C 0.22713 0.72872 0.50615 0.0
C574 C 0.29527 0.76933 0.45487 0.0
C575 C 0.34353 0.7654 0.5032 0.0
N576 N 0.38252 0.73633 0.59442 0.0
N577 N 0.1968 0.74862 0.40285 0.0
C578 C 0.33365 0.74285 0.55244 0.0
C579 C 0.23901 0.74911 0.45402 0.0
N580 N 0.26036 0.70964 0.60945 0.0
N581 N 0.30226 0.79344 0.4109 0.0
H582 H 0.15359 0.73602 0.40247 0.0
H583 H 0.20572 0.75921 0.35981 0.0
H584 H 0.34383 0.80716 0.40763 0.0
H585 H 0.26606 0.80109 0.37986 0.0
H586 H 0.28956 0.70965 0.65064 0.0
H587 H 0.21725 0.69781 0.61429 0.0
H588 H 0.38122 0.718 0.62853 0.0
H589 H 0.42691 0.74708 0.5908 0.0
C590 C 0.79314 0.26539 0.4596 0.0
C591 C 0.84065 0.26501 0.50953 0.0
C592 C 0.77631 0.2245 0.56506 0.0
C593 C 0.72702 0.22673 0.51725 0.0
N594 N 0.68484 0.25259 0.42361 0.0
N595 N 0.87483 0.24735 0.61338 0.0
C596 C 0.73455 0.24821 0.46584 0.0
C597 C 0.83137 0.24538 0.56323 0.0
N598 N 0.8045 0.28205 0.40582 0.0
N599 N 0.77147 0.20134 0.61112 0.0
H600 H 0.91733 0.26046 0.61179 0.0
H601 H 0.86769 0.23744 0.65744 0.0
H602 H 0.73078 0.18716 0.61632 0.0
H603 H 0.80861 0.19484 0.64206 0.0
H604 H 0.77466 0.28109 0.36503 0.0
H605 H 0.84667 0.29475 0.39999 0.0
H606 H 0.68438 0.27002 0.38783 0.0
H607 H 0.6415 0.24079 0.42815 0.0
C608 C 0.04684 0.33101 0.23695 0.0
C609 C 0.07125 0.3627 0.21578 0.0
C610 C 1.00589 0.39422 0.29443 0.0
C611 C 0.98884 0.36334 0.32308 0.0
N612 N 0.99316 0.3007 0.31658 0.0
N613 N 0.09088 0.42306 0.24834 0.0
C614 C 1.00946 0.3313 0.29287 0.0
C615 C 0.056 0.39378 0.25186 0.0
N616 N 0.05836 0.30026 0.204 0.0
N617 N 0.97257 0.42404 0.30451 0.0
H618 H 0.13472 0.42279 0.22873 0.0
H619 H 0.08098 0.44638 0.27336 0.0
H620 H 0.92983 0.42476 0.32631 0.0
H621 H 0.98172 0.44646 0.28144 0.0
H622 H 1.03285 0.27774 0.20892 0.0
H623 H 0.09292 0.29692 0.1712 0.0
H624 H 1.01578 0.27736 0.30552 0.0
H625 H 0.95676 0.29835 0.34708 0.0
C626 C 0.95873 0.61318 0.23995 0.0
C627 C 0.97752 0.63482 0.19124 0.0
C628 C 0.06605 0.65541 0.26545 0.0
C629 C 0.04433 0.63631 0.31537 0.0
N630 N 0.95958 0.60318 0.35313 0.0
N631 N 0.03848 0.68592 0.17173 0.0
C632 C 0.98823 0.61652 0.30327 0.0
C633 C 1.02813 0.65858 0.20784 0.0
N634 N 0.91037 0.59031 0.22736 0.0
N635 N 0.12357 0.67096 0.27306 0.0
H636 H 1.01049 0.6919 0.13238 0.0
H637 H 0.07053 0.70557 0.18575 0.0
H638 H 0.15236 0.66935 0.31444 0.0
H639 H 0.14519 0.68216 0.23593 0.0
H640 H 0.90201 0.56999 0.25615 0.0
H641 H 0.8788 0.59129 0.18814 0.0
H642 H 0.91477 0.59245 0.34912 0.0
H643 H 0.97784 0.60545 0.40007 0.0
C644 C 0.0764 0.61849 0.80762 0.0
C645 C 1.02054 0.63834 0.81463 0.0
C646 C 0.03885 0.66217 0.71021 0.0
C647 C 0.08757 0.6376 0.69732 0.0
N648 N 0.15269 0.59188 0.73842 0.0
N649 N 0.94374 0.67511 0.76588 0.0
C650 C 0.10543 0.61526 0.74704 0.0
C651 C 1.00031 0.6587 0.76356 0.0
N652 N 0.10567 0.60523 0.86008 0.0
N653 N 1.03116 0.69044 0.6749 0.0
H654 H 0.91446 0.67332 0.80393 0.0
H655 H 0.92336 0.68737 0.72719 0.0
H656 H 0.06057 0.69658 0.63942 0.0
H657 H 1.00016 0.71043 0.68649 0.0
H658 H 0.15021 0.59426 0.85976 0.0
H659 H 0.08877 0.60814 0.90575 0.0
H660 H 0.16024 0.57129 0.76759 0.0
H661 H 0.18413 0.59277 0.70222 0.0
C662 C 0.96741 0.35326 0.7529 0.0
C663 C 1.01015 0.35467 0.70348 0.0
C664 C 0.09852 0.35495 0.785 0.0
C665 C 0.05575 0.35299 0.83433 0.0
N666 N 0.94944 0.35921 0.86666 0.0
N667 N 0.11553 0.36525 0.67379 0.0
C668 C 0.99015 0.35502 0.81857 0.0
C669 C 0.07548 0.35829 0.72015 0.0
N670 N 0.90505 0.34877 0.73691 0.0
N671 N 0.16125 0.35217 0.79976 0.0
H672 H 0.10034 0.36781 0.62631 0.0
H673 H 0.16261 0.37147 0.6831 0.0
H674 H 0.17941 0.35104 0.84669 0.0
H675 H 0.19492 0.34911 0.76565 0.0
H676 H 0.87198 0.34306 0.76954 0.0
H677 H 0.88681 0.34896 0.68985 0.0
H678 H 0.90203 0.36463 0.85899 0.0
H679 H 0.96417 0.36062 0.9149 0.0
C680 C 0.56312 0.83968 0.25758 0.0
C681 C 0.56615 0.87117 0.22547 0.0
C682 C 0.48596 0.89552 0.29711 0.0
C683 C 0.48592 0.86535 0.33258 0.0
N684 N 0.50791 0.80405 0.32825 0.0
N685 N 0.54704 0.933 0.23709 0.0
C686 C 0.52007 0.83606 0.30783 0.0
C687 C 0.53239 0.90018 0.25153 0.0
N688 N 0.60568 0.81415 0.24433 0.0
N689 N 0.43865 0.9191 0.30328 0.0
H690 H 0.58568 0.93913 0.21194 0.0
H691 H 0.52587 0.95495 0.25775 0.0
H692 H 0.39953 0.91481 0.32952 0.0
H693 H 0.43339 0.94003 0.27456 0.0
H694 H 0.61113 0.79219 0.27024 0.0
H695 H 0.64159 0.81702 0.21327 0.0
H696 H 0.52653 0.78122 0.30819 0.0
H697 H 0.47216 0.79946 0.35848 0.0
C698 C 0.48857 0.10682 0.23667 0.0
C699 C 0.48599 0.13555 0.19674 0.0
C700 C 0.5582 0.16677 0.27783 0.0
C701 C 0.55876 0.13825 0.3173 0.0
N702 N 0.55021 0.07639 0.3151 0.0
N703 N 0.50601 0.19717 0.19339 0.0
C704 C 0.53162 0.10684 0.29119 0.0
C705 C 0.51812 0.16663 0.22072 0.0
N706 N 0.44568 0.08064 0.22703 0.0
N707 N 0.59905 0.19349 0.29345 0.0
H708 H 0.47085 0.20006 0.15848 0.0
H709 H 0.5236 0.22099 0.21202 0.0
H710 H 0.63113 0.19325 0.33259 0.0
H711 H 0.60699 0.21339 0.26364 0.0
H712 H 0.44305 0.06062 0.25782 0.0
H713 H 0.40704 0.08159 0.195 0.0
H714 H 0.53701 0.05241 0.29297 0.0
H715 H 0.58586 0.07513 0.35059 0.0
C716 C 0.5378 0.10826 0.79079 0.0
C717 C 0.51619 0.14088 0.81517 0.0
C718 C 0.56395 0.16748 0.72392 0.0
C719 C 0.58892 0.13482 0.70149 0.0
N720 N 0.61921 0.078 0.73457 0.0
N721 N 0.4879 0.19851 0.78852 0.0
C722 C 0.58099 0.10621 0.74049 0.0
C723 C 0.52335 0.16959 0.77679 0.0
N724 N 0.51371 0.07874 0.81191 0.0
N725 N 0.58378 0.19726 0.69956 0.0
H726 H 0.45449 0.19978 0.8232 0.0
H727 H 0.48526 0.21903 0.75871 0.0
H728 H 0.62034 0.19793 0.66879 0.0
H729 H 0.57144 0.22192 0.71749 0.0
H730 H 0.52313 0.05426 0.79085 0.0
H731 H 0.47745 0.0791 0.84336 0.0
H732 H 0.61831 0.05787 0.7653 0.0
H733 H 0.65788 0.07707 0.70625 0.0
C734 C 0.50895 0.81861 0.75239 0.0
C735 C 0.51133 0.84803 0.71439 0.0
C736 C 0.56977 0.8795 0.80502 0.0
C737 C 0.56371 0.85149 0.84436 0.0
N738 N 0.52504 0.79413 0.85642 0.0
N739 N 0.52147 0.91031 0.71928 0.0
C740 C 0.53312 0.82079 0.81785 0.0
C741 C 0.53572 0.87956 0.74454 0.0
N742 N 0.48105 0.78881 0.72658 0.0
N743 N 0.60866 0.9063 0.8254 0.0
H744 H 0.48971 0.9123 0.68053 0.0
H745 H 0.53323 0.93408 0.74306 0.0
H746 H 0.63442 0.90658 0.86907 0.0
H747 H 0.61931 0.92621 0.79642 0.0
H748 H 0.48546 0.76493 0.7465 0.0
H749 H 0.4526 0.78807 0.6847 0.0
H750 H 0.49672 0.77264 0.84416 0.0
H751 H 0.54594 0.79396 0.90238 0.0
loop_
_geom_bond_atom_site_label_1
_geom_bond_atom_site_label_2
_geom_bond_distance
_geom_bond_site_symmetry_2
_ccdc_geom_bond_type
Nd0 C2 2.836 . S
Nd0 O20 2.500 1_554 S
Nd0 O21 2.492 . S
Nd0 O22 2.487 . S
Nd0 O23 2.682 . S
Nd0 O24 2.410 . S
Nd0 O29 2.414 1_554 S
Nd0 O31 2.424 . S
Nd1 C11 2.836 . S
Nd1 O23 2.414 1_656 S
Nd1 O25 2.424 1_655 S
Nd1 O26 2.500 1_556 S
Nd1 O27 2.492 . S
Nd1 O28 2.486 1_655 S
Nd1 O29 2.682 1_655 S
Nd1 O30 2.410 . S
C2 Nd0 2.836 . S
C2 C3 1.498 . S
C2 O20 1.258 1_554 S
C2 O21 1.239 . S
C3 C2 1.498 . S
C3 C4 1.366 1_554 S
C3 C8 1.407 . S
C4 C3 1.366 1_556 S
C4 C5 1.392 . S
C4 H32 0.930 . S
C5 C4 1.392 . S
C5 C6 1.397 1_556 S
C5 H33 0.929 . S
C6 C5 1.397 1_554 S
C6 C7 1.354 . S
C7 C6 1.354 . S
C7 C8 1.384 . S
C7 H34 0.930 . S
C8 C3 1.407 . S
C8 C7 1.384 . S
C8 H35 0.929 . S
C9 O22 1.241 . S
C9 O23 1.273 . S
C10 O24 1.251 1_556 S
C10 O25 1.268 . S
C11 Nd1 2.836 . S
C11 C12 1.498 . S
C11 O26 1.258 1_556 S
C11 O27 1.239 . S
C12 C11 1.498 . S
C12 C13 1.366 1_556 S
C12 C17 1.407 . S
C13 C12 1.366 1_554 S
C13 C14 1.392 . S
C13 H36 0.930 . S
C14 C13 1.392 . S
C14 C15 1.398 . S
C14 H37 0.929 . S
C15 C14 1.398 . S
C15 C16 1.352 1_554 S
C16 C15 1.352 1_556 S
C16 C17 1.384 . S
C16 H38 0.930 . S
C17 C12 1.407 . S
C17 C16 1.384 . S
C17 H39 0.929 . S
C18 O28 1.246 . S
C18 O29 1.273 . S
C19 O30 1.251 1_554 S
C19 O31 1.268 1_655 S
O20 Nd0 2.500 1_556 S
O20 C2 1.258 1_556 S
O21 Nd0 2.492 . S
O21 C2 1.239 . S
O22 Nd0 2.487 . S
O22 C9 1.241 . S
O23 Nd0 2.682 . S
O23 Nd1 2.414 1_454 S
O23 C9 1.273 . S
O24 Nd0 2.410 . S
O24 C10 1.251 1_554 S
O25 Nd1 2.424 1_455 S
O25 C10 1.268 . S
O26 Nd1 2.500 1_554 S
O26 C11 1.258 1_554 S
O27 Nd1 2.492 . S
O27 C11 1.239 . S
O28 Nd1 2.486 1_455 S
O28 C18 1.246 . S
O29 Nd0 2.414 1_556 S
O29 Nd1 2.682 1_455 S
O29 C18 1.273 . S
O30 Nd1 2.410 . S
O30 C19 1.251 1_556 S
O31 Nd0 2.424 . S
O31 C19 1.268 1_455 S
H32 C4 0.930 . S
H33 C5 0.929 . S
H34 C7 0.930 . S
H35 C8 0.929 . S
H36 C13 0.930 . S
H37 C14 0.929 . S
H38 C16 0.930 . S
H39 C17 0.929 . S
Nd40 C42 2.836 1_554 S
Nd40 O60 2.500 1_554 S
Nd40 O61 2.492 . S
Nd40 O62 2.487 . S
Nd40 O63 2.682 . S
Nd40 O64 2.410 . S
Nd40 O69 2.414 1_554 S
Nd40 O71 2.424 . S
Nd41 C51 2.836 1_556 S
Nd41 O63 2.414 1_456 S
Nd41 O65 2.424 1_455 S
Nd41 O66 2.500 1_556 S
Nd41 O67 2.492 . S
Nd41 O68 2.487 1_455 S
Nd41 O69 2.682 1_455 S
Nd41 O70 2.410 . S
C42 Nd40 2.836 1_556 S
C42 C43 1.498 . S
C42 O60 1.258 . S
C42 O61 1.239 1_556 S
C43 C42 1.498 . S
C43 C44 1.366 . S
C43 C48 1.407 1_556 S
C44 C43 1.366 . S
C44 C45 1.392 . S
C44 H72 0.930 . S
C45 C44 1.392 . S
C45 C46 1.398 . S
C45 H73 0.929 . S
C46 C45 1.398 . S
C46 C47 1.352 1_556 S
C47 C46 1.352 1_554 S
C47 C48 1.384 . S
C47 H74 0.930 . S
C48 C43 1.407 1_554 S
C48 C47 1.384 . S
C48 H75 0.929 . S
C49 O62 1.241 . S
C49 O63 1.273 . S
C50 O64 1.251 . S
C50 O65 1.267 1_554 S
C51 Nd41 2.836 1_554 S
C51 C52 1.498 . S
C51 O66 1.258 . S
C51 O67 1.239 1_554 S
C52 C51 1.498 . S
C52 C53 1.366 . S
C52 C57 1.407 1_554 S
C53 C52 1.366 . S
C53 C54 1.392 . S
C53 H76 0.930 . S
C54 C53 1.392 . S
C54 C55 1.398 . S
C54 H77 0.929 . S
C55 C54 1.398 . S
C55 C56 1.352 1_554 S
C56 C55 1.352 1_556 S
C56 C57 1.384 . S
C56 H78 0.930 . S
C57 C52 1.407 1_556 S
C57 C56 1.384 . S
C57 H79 0.929 . S
C58 O68 1.241 . S
C58 O69 1.273 . S
C59 O70 1.244 1_554 S
C59 O71 1.271 1_455 S
O60 Nd40 2.500 1_556 S
O60 C42 1.258 . S
O61 Nd40 2.492 . S
O61 C42 1.239 1_554 S
O62 Nd40 2.487 . S
O62 C49 1.241 . S
O63 Nd40 2.682 . S
O63 Nd41 2.414 1_654 S
O63 C49 1.273 . S
O64 Nd40 2.410 . S
O64 C50 1.251 . S
O65 Nd41 2.424 1_655 S
O65 C50 1.267 1_556 S
O66 Nd41 2.500 1_554 S
O66 C51 1.258 . S
O67 Nd41 2.492 . S
O67 C51 1.239 1_556 S
O68 Nd41 2.487 1_655 S
O68 C58 1.241 . S
O69 Nd40 2.414 1_556 S
O69 Nd41 2.682 1_655 S
O69 C58 1.273 . S
O70 Nd41 2.410 . S
O70 C59 1.244 1_556 S
O71 Nd40 2.424 . S
O71 C59 1.271 1_655 S
H72 C44 0.930 . S
H73 C45 0.929 . S
H74 C47 0.930 . S
H75 C48 0.929 . S
H76 C53 0.930 . S
H77 C54 0.929 . S
H78 C56 0.930 . S
H79 C57 0.929 . S
Nd80 C82 2.836 . S
Nd80 O100 2.500 . S
Nd80 O101 2.492 . S
Nd80 O102 2.487 . S
Nd80 O103 2.682 1_655 S
Nd80 O104 2.410 . S
Nd80 O109 2.414 1_655 S
Nd80 O111 2.424 1_655 S
Nd81 C91 2.836 . S
Nd81 O103 2.414 . S
Nd81 O105 2.424 . S
Nd81 O106 2.500 . S
Nd81 O107 2.492 . S
Nd81 O108 2.487 . S
Nd81 O109 2.682 . S
Nd81 O110 2.410 . S
C82 Nd80 2.836 . S
C82 C83 1.498 . S
C82 O100 1.258 . S
C82 O101 1.239 . S
C83 C82 1.498 . S
C83 C84 1.366 . S
C83 C88 1.407 . S
C84 C83 1.366 . S
C84 C85 1.392 . S
C84 H112 0.930 . S
C85 C84 1.392 . S
C85 C86 1.398 . S
C85 H113 0.929 . S
C86 C85 1.398 . S
C86 C87 1.352 . S
C87 C86 1.352 . S
C87 C88 1.384 . S
C87 H114 0.930 . S
C88 C83 1.407 . S
C88 C87 1.384 . S
C88 H115 0.929 . S
C89 O102 1.241 1_455 S
C89 O103 1.273 . S
C90 O104 1.251 . S
C90 O105 1.268 1_655 S
C91 Nd81 2.836 . S
C91 C92 1.498 . S
C91 O106 1.258 . S
C91 O107 1.239 . S
C92 C91 1.498 . S
C92 C93 1.366 . S
C92 C97 1.407 . S
C93 C92 1.366 . S
C93 C94 1.392 . S
C93 H116 0.930 . S
C94 C93 1.392 . S
C94 C95 1.398 . S
C94 H117 0.929 . S
C95 C94 1.398 . S
C95 C96 1.352 . S
C96 C95 1.352 . S
C96 C97 1.384 . S
C96 H118 0.930 . S
C97 C92 1.407 . S
C97 C96 1.384 . S
C97 H119 0.929 . S
C98 O108 1.241 . S
C98 O109 1.273 . S
C99 O110 1.251 . S
C99 O111 1.268 . S
O100 Nd80 2.500 . S
O100 C82 1.258 . S
O101 Nd80 2.492 . S
O101 C82 1.239 . S
O102 Nd80 2.487 . S
O102 C89 1.241 1_655 S
O103 Nd80 2.682 1_455 S
O103 Nd81 2.414 . S
O103 C89 1.273 . S
O104 Nd80 2.410 . S
O104 C90 1.251 . S
O105 Nd81 2.424 . S
O105 C90 1.268 1_455 S
O106 Nd81 2.500 . S
O106 C91 1.258 . S
O107 Nd81 2.492 . S
O107 C91 1.239 . S
O108 Nd81 2.487 . S
O108 C98 1.241 . S
O109 Nd80 2.414 1_455 S
O109 Nd81 2.682 . S
O109 C98 1.273 . S
O110 Nd81 2.410 . S
O110 C99 1.251 . S
O111 Nd80 2.424 1_455 S
O111 C99 1.268 . S
H112 C84 0.930 . S
H113 C85 0.929 . S
H114 C87 0.930 . S
H115 C88 0.929 . S
H116 C93 0.930 . S
H117 C94 0.929 . S
H118 C96 0.930 . S
H119 C97 0.929 . S
Nd120 C122 2.836 . S
Nd120 O140 2.500 . S
Nd120 O141 2.492 . S
Nd120 O142 2.487 . S
Nd120 O143 2.682 . S
Nd120 O144 2.410 . S
Nd120 O149 2.414 . S
Nd120 O151 2.424 . S
Nd121 C131 2.836 . S
Nd121 O143 2.414 1_455 S
Nd121 O145 2.424 1_455 S
Nd121 O146 2.500 . S
Nd121 O147 2.492 . S
Nd121 O148 2.487 . S
Nd121 O149 2.682 1_455 S
Nd121 O150 2.410 . S
C122 Nd120 2.836 . S
C122 C123 1.498 . S
C122 O140 1.258 . S
C122 O141 1.239 . S
C123 C122 1.498 . S
C123 C124 1.366 . S
C123 C128 1.407 . S
C124 C123 1.366 . S
C124 C125 1.392 . S
C124 H152 0.930 . S
C125 C124 1.392 . S
C125 C126 1.398 . S
C125 H153 0.929 . S
C126 C125 1.398 . S
C126 C127 1.352 . S
C127 C126 1.352 . S
C127 C128 1.384 . S
C127 H154 0.930 . S
C128 C123 1.407 . S
C128 C127 1.384 . S
C128 H155 0.929 . S
C129 O142 1.241 . S
C129 O143 1.273 . S
C130 O144 1.251 . S
C130 O145 1.268 . S
C131 Nd121 2.836 . S
C131 C132 1.498 . S
C131 O146 1.258 . S
C131 O147 1.239 . S
C132 C131 1.498 . S
C132 C133 1.366 . S
C132 C137 1.407 . S
C133 C132 1.366 . S
C133 C134 1.392 . S
C133 H156 0.930 . S
C134 C133 1.392 . S
C134 C135 1.398 . S
C134 H157 0.929 . S
C135 C134 1.398 . S
C135 C136 1.352 . S
C136 C135 1.352 . S
C136 C137 1.384 . S
C136 H158 0.930 . S
C137 C132 1.407 . S
C137 C136 1.384 . S
C137 H159 0.929 . S
C138 O148 1.241 1_655 S
C138 O149 1.273 . S
C139 O150 1.251 . S
C139 O151 1.268 1_455 S
O140 Nd120 2.500 . S
O140 C122 1.258 . S
O141 Nd120 2.492 . S
O141 C122 1.239 . S
O142 Nd120 2.487 . S
O142 C129 1.241 . S
O143 Nd120 2.682 . S
O143 Nd121 2.414 1_655 S
O143 C129 1.273 . S
O144 Nd120 2.410 . S
O144 C130 1.251 . S
O145 Nd121 2.424 1_655 S
O145 C130 1.268 . S
O146 Nd121 2.500 . S
O146 C131 1.258 . S
O147 Nd121 2.492 . S
O147 C131 1.239 . S
O148 Nd121 2.487 . S
O148 C138 1.241 1_455 S
O149 Nd120 2.414 . S
O149 Nd121 2.682 1_655 S
O149 C138 1.273 . S
O150 Nd121 2.410 . S
O150 C139 1.251 . S
O151 Nd120 2.424 . S
O151 C139 1.268 1_655 S
H152 C124 0.930 . S
H153 C125 0.929 . S
H154 C127 0.930 . S
H155 C128 0.929 . S
H156 C133 0.930 . S
H157 C134 0.929 . S
H158 C136 0.930 . S
H159 C137 0.929 . S
Nd160 C162 2.836 . S
Nd160 O180 2.500 1_554 S
Nd160 O181 2.492 . S
Nd160 O182 2.487 . S
Nd160 O183 2.682 . S
Nd160 O184 2.410 . S
Nd160 O189 2.414 1_554 S
Nd160 O191 2.424 . S
Nd161 C171 2.836 . S
Nd161 O183 2.414 1_556 S
Nd161 O185 2.424 . S
Nd161 O186 2.500 1_556 S
Nd161 O187 2.492 . S
Nd161 O188 2.487 . S
Nd161 O189 2.682 . S
Nd161 O190 2.410 . S
C162 Nd160 2.836 . S
C162 C163 1.498 . S
C162 O180 1.258 1_554 S
C162 O181 1.239 . S
C163 C162 1.498 . S
C163 C164 1.366 1_554 S
C163 C168 1.407 . S
C164 C163 1.366 1_556 S
C164 C165 1.392 . S
C164 H192 0.930 . S
C165 C164 1.392 . S
C165 C166 1.397 1_556 S
C165 H193 0.929 . S
C166 C165 1.397 1_554 S
C166 C167 1.354 . S
C167 C166 1.354 . S
C167 C168 1.384 . S
C167 H194 0.930 . S
C168 C163 1.407 . S
C168 C167 1.384 . S
C168 H195 0.929 . S
C169 O182 1.241 . S
C169 O183 1.273 . S
C170 O184 1.251 1_556 S
C170 O185 1.268 . S
C171 Nd161 2.836 . S
C171 C172 1.498 . S
C171 O186 1.258 1_556 S
C171 O187 1.239 . S
C172 C171 1.498 . S
C172 C173 1.366 1_556 S
C172 C177 1.407 . S
C173 C172 1.366 1_554 S
C173 C174 1.392 . S
C173 H196 0.930 . S
C174 C173 1.392 . S
C174 C175 1.398 . S
C174 H197 0.929 . S
C175 C174 1.398 . S
C175 C176 1.352 1_554 S
C176 C175 1.352 1_556 S
C176 C177 1.384 . S
C176 H198 0.930 . S
C177 C172 1.407 . S
C177 C176 1.384 . S
C177 H199 0.929 . S
C178 O188 1.241 . S
C178 O189 1.273 . S
C179 O190 1.251 1_554 S
C179 O191 1.268 . S
O180 Nd160 2.500 1_556 S
O180 C162 1.258 1_556 S
O181 Nd160 2.492 . S
O181 C162 1.239 . S
O182 Nd160 2.487 . S
O182 C169 1.241 . S
O183 Nd160 2.682 . S
O183 Nd161 2.414 1_554 S
O183 C169 1.273 . S
O184 Nd160 2.410 . S
O184 C170 1.251 1_554 S
O185 Nd161 2.424 . S
O185 C170 1.268 . S
O186 Nd161 2.500 1_554 S
O186 C171 1.258 1_554 S
O187 Nd161 2.492 . S
O187 C171 1.239 . S
O188 Nd161 2.487 . S
O188 C178 1.241 . S
O189 Nd160 2.414 1_556 S
O189 Nd161 2.682 . S
O189 C178 1.273 . S
O190 Nd161 2.410 . S
O190 C179 1.251 1_556 S
O191 Nd160 2.424 . S
O191 C179 1.268 . S
H192 C164 0.930 . S
H193 C165 0.929 . S
H194 C167 0.930 . S
H195 C168 0.929 . S
H196 C173 0.930 . S
H197 C174 0.929 . S
H198 C176 0.930 . S
H199 C177 0.929 . S
Nd200 C202 2.836 1_554 S
Nd200 O220 2.500 1_554 S
Nd200 O221 2.492 . S
Nd200 O222 2.487 . S
Nd200 O223 2.682 . S
Nd200 O224 2.410 . S
Nd200 O229 2.414 1_554 S
Nd200 O231 2.424 . S
Nd201 C211 2.836 1_556 S
Nd201 O223 2.414 1_556 S
Nd201 O225 2.424 . S
Nd201 O226 2.500 1_556 S
Nd201 O227 2.492 . S
Nd201 O228 2.487 . S
Nd201 O229 2.682 . S
Nd201 O230 2.410 . S
C202 Nd200 2.836 1_556 S
C202 C203 1.498 . S
C202 O220 1.258 . S
C202 O221 1.239 1_556 S
C203 C202 1.498 . S
C203 C204 1.366 . S
C203 C208 1.407 1_556 S
C204 C203 1.366 . S
C204 C205 1.392 . S
C204 H232 0.930 . S
C205 C204 1.392 . S
C205 C206 1.398 . S
C205 H233 0.929 . S
C206 C205 1.398 . S
C206 C207 1.352 1_556 S
C207 C206 1.352 1_554 S
C207 C208 1.384 . S
C207 H234 0.930 . S
C208 C203 1.407 1_554 S
C208 C207 1.384 . S
C208 H235 0.929 . S
C209 O222 1.241 . S
C209 O223 1.273 . S
C210 O224 1.251 . S
C210 O225 1.267 1_554 S
C211 Nd201 2.836 1_554 S
C211 C212 1.498 . S
C211 O226 1.258 . S
C211 O227 1.239 1_554 S
C212 C211 1.498 . S
C212 C213 1.366 . S
C212 C217 1.407 1_554 S
C213 C212 1.366 . S
C213 C214 1.392 . S
C213 H236 0.930 . S
C214 C213 1.392 . S
C214 C215 1.398 . S
C214 H237 0.929 . S
C215 C214 1.398 . S
C215 C216 1.352 1_554 S
C216 C215 1.352 1_556 S
C216 C217 1.384 . S
C216 H238 0.930 . S
C217 C212 1.407 1_556 S
C217 C216 1.384 . S
C217 H239 0.929 . S
C218 O228 1.241 . S
C218 O229 1.273 . S
C219 O230 1.244 1_554 S
C219 O231 1.271 . S
O220 Nd200 2.500 1_556 S
O220 C202 1.258 . S
O221 Nd200 2.492 . S
O221 C202 1.239 1_554 S
O222 Nd200 2.487 . S
O222 C209 1.241 . S
O223 Nd200 2.682 . S
O223 Nd201 2.414 1_554 S
O223 C209 1.273 . S
O224 Nd200 2.410 . S
O224 C210 1.251 . S
O225 Nd201 2.424 . S
O225 C210 1.267 1_556 S
O226 Nd201 2.500 1_554 S
O226 C211 1.258 . S
O227 Nd201 2.492 . S
O227 C211 1.239 1_556 S
O228 Nd201 2.487 . S
O228 C218 1.241 . S
O229 Nd200 2.414 1_556 S
O229 Nd201 2.682 . S
O229 C218 1.273 . S
O230 Nd201 2.410 . S
O230 C219 1.244 1_556 S
O231 Nd200 2.424 . S
O231 C219 1.271 . S
H232 C204 0.930 . S
H233 C205 0.929 . S
H234 C207 0.930 . S
H235 C208 0.929 . S
H236 C213 0.930 . S
H237 C214 0.929 . S
H238 C216 0.930 . S
H239 C217 0.929 . S
Nd240 C242 2.836 . S
Nd240 O260 2.500 . S
Nd240 O261 2.492 . S
Nd240 O262 2.487 . S
Nd240 O263 2.682 . S
Nd240 O264 2.410 . S
Nd240 O269 2.414 . S
Nd240 O271 2.424 . S
Nd241 C251 2.836 . S
Nd241 O263 2.414 . S
Nd241 O265 2.424 . S
Nd241 O266 2.500 . S
Nd241 O267 2.492 . S
Nd241 O268 2.487 . S
Nd241 O269 2.682 . S
Nd241 O270 2.410 . S
C242 Nd240 2.836 . S
C242 C243 1.498 . S
C242 O260 1.258 . S
C242 O261 1.239 . S
C243 C242 1.498 . S
C243 C244 1.366 . S
C243 C248 1.407 . S
C244 C243 1.366 . S
C244 C245 1.392 . S
C244 H272 0.930 . S
C245 C244 1.392 . S
C245 C246 1.398 . S
C245 H273 0.929 . S
C246 C245 1.398 . S
C246 C247 1.352 . S
C247 C246 1.352 . S
C247 C248 1.384 . S
C247 H274 0.930 . S
C248 C243 1.407 . S
C248 C247 1.384 . S
C248 H275 0.929 . S
C249 O262 1.241 . S
C249 O263 1.273 . S
C250 O264 1.251 . S
C250 O265 1.268 . S
C251 Nd241 2.836 . S
C251 C252 1.498 . S
C251 O266 1.258 . S
C251 O267 1.239 . S
C252 C251 1.498 . S
C252 C253 1.366 . S
C252 C257 1.407 . S
C253 C252 1.366 . S
C253 C254 1.392 . S
C253 H276 0.930 . S
C254 C253 1.392 . S
C254 C255 1.398 . S
C254 H277 0.929 . S
C255 C254 1.398 . S
C255 C256 1.352 . S
C256 C255 1.352 . S
C256 C257 1.384 . S
C256 H278 0.930 . S
C257 C252 1.407 . S
C257 C256 1.384 . S
C257 H279 0.929 . S
C258 O268 1.241 . S
C258 O269 1.273 . S
C259 O270 1.251 . S
C259 O271 1.268 . S
O260 Nd240 2.500 . S
O260 C242 1.258 . S
O261 Nd240 2.492 . S
O261 C242 1.239 . S
O262 Nd240 2.487 . S
O262 C249 1.241 . S
O263 Nd240 2.682 . S
O263 Nd241 2.414 . S
O263 C249 1.273 . S
O264 Nd240 2.410 . S
O264 C250 1.251 . S
O265 Nd241 2.424 . S
O265 C250 1.268 . S
O266 Nd241 2.500 . S
O266 C251 1.258 . S
O267 Nd241 2.492 . S
O267 C251 1.239 . S
O268 Nd241 2.487 . S
O268 C258 1.241 . S
O269 Nd240 2.414 . S
O269 Nd241 2.682 . S
O269 C258 1.273 . S
O270 Nd241 2.410 . S
O270 C259 1.251 . S
O271 Nd240 2.424 . S
O271 C259 1.268 . S
H272 C244 0.930 . S
H273 C245 0.929 . S
H274 C247 0.930 . S
H275 C248 0.929 . S
H276 C253 0.930 . S
H277 C254 0.929 . S
H278 C256 0.930 . S
H279 C257 0.929 . S
Nd280 C282 2.836 . S
Nd280 O300 2.500 . S
Nd280 O301 2.492 . S
Nd280 O302 2.487 . S
Nd280 O303 2.682 . S
Nd280 O304 2.410 . S
Nd280 O309 2.414 . S
Nd280 O311 2.424 . S
Nd281 C291 2.836 . S
Nd281 O303 2.414 . S
Nd281 O305 2.424 . S
Nd281 O306 2.500 . S
Nd281 O307 2.492 . S
Nd281 O308 2.487 . S
Nd281 O309 2.682 . S
Nd281 O310 2.410 . S
C282 Nd280 2.836 . S
C282 C283 1.498 . S
C282 O300 1.258 . S
C282 O301 1.239 . S
C283 C282 1.498 . S
C283 C284 1.366 . S
C283 C288 1.407 . S
C284 C283 1.366 . S
C284 C285 1.392 . S
C284 H312 0.930 . S
C285 C284 1.392 . S
C285 C286 1.398 . S
C285 H313 0.929 . S
C286 C285 1.398 . S
C286 C287 1.352 . S
C287 C286 1.352 . S
C287 C288 1.384 . S
C287 H314 0.930 . S
C288 C283 1.407 . S
C288 C287 1.384 . S
C288 H315 0.929 . S
C289 O302 1.241 . S
C289 O303 1.273 . S
C290 O304 1.251 . S
C290 O305 1.268 . S
C291 Nd281 2.836 . S
C291 C292 1.498 . S
C291 O306 1.258 . S
C291 O307 1.239 . S
C292 C291 1.498 . S
C292 C293 1.366 . S
C292 C297 1.407 . S
C293 C292 1.366 . S
C293 C294 1.392 . S
C293 H316 0.930 . S
C294 C293 1.392 . S
C294 C295 1.398 . S
C294 H317 0.929 . S
C295 C294 1.398 . S
C295 C296 1.352 . S
C296 C295 1.352 . S
C296 C297 1.384 . S
C296 H318 0.930 . S
C297 C292 1.407 . S
C297 C296 1.384 . S
C297 H319 0.929 . S
C298 O308 1.241 . S
C298 O309 1.273 . S
C299 O310 1.251 . S
C299 O311 1.268 . S
O300 Nd280 2.500 . S
O300 C282 1.258 . S
O301 Nd280 2.492 . S
O301 C282 1.239 . S
O302 Nd280 2.487 . S
O302 C289 1.241 . S
O303 Nd280 2.682 . S
O303 Nd281 2.414 . S
O303 C289 1.273 . S
O304 Nd280 2.410 . S
O304 C290 1.251 . S
O305 Nd281 2.424 . S
O305 C290 1.268 . S
O306 Nd281 2.500 . S
O306 C291 1.258 . S
O307 Nd281 2.492 . S
O307 C291 1.239 . S
O308 Nd281 2.487 . S
O308 C298 1.241 . S
O309 Nd280 2.414 . S
O309 Nd281 2.682 . S
O309 C298 1.273 . S
O310 Nd281 2.410 . S
O310 C299 1.251 . S
O311 Nd280 2.424 . S
O311 C299 1.268 . S
H312 C284 0.930 . S
H313 C285 0.929 . S
H314 C287 0.930 . S
H315 C288 0.929 . S
H316 C293 0.930 . S
H317 C294 0.929 . S
H318 C296 0.930 . S
H319 C297 0.929 . S
C320 C321 1.369 . S
C320 C326 1.379 . S
C320 N328 1.356 . S
C321 C320 1.369 . S
C321 C327 1.357 1_556 S
C322 C323 1.363 . S
C322 C327 1.379 . S
C322 N329 1.356 . S
C323 C322 1.363 . S
C323 C326 1.363 1_554 S
N324 C326 1.356 . S
N324 H336 0.984 . S
N324 H337 0.985 . S
N325 C327 1.356 . S
N325 H330 0.984 . S
N325 H331 0.985 . S
C326 C320 1.379 . S
C326 C323 1.363 1_556 S
C326 N324 1.356 . S
C327 C321 1.357 1_554 S
C327 C322 1.379 . S
C327 N325 1.356 . S
N328 C320 1.356 . S
N328 H334 0.984 . S
N328 H335 0.984 . S
N329 C322 1.356 . S
N329 H332 0.984 . S
N329 H333 0.985 . S
H330 N325 0.984 . S
H331 N325 0.985 . S
H332 N329 0.984 . S
H333 N329 0.985 . S
H334 N328 0.984 . S
H335 N328 0.984 . S
H336 N324 0.984 . S
H337 N324 0.985 . S
C338 C339 1.363 . S
C338 C344 1.379 . S
C338 N346 1.356 . S
C339 C338 1.363 . S
C339 C345 1.363 1_554 S
C340 C341 1.363 . S
C340 C345 1.379 . S
C340 N347 1.356 . S
C341 C340 1.363 . S
C341 C344 1.363 1_556 S
N342 C344 1.356 . S
N342 H354 0.984 . S
N342 H355 0.985 . S
N343 C345 1.356 . S
N343 H348 0.984 . S
N343 H349 0.985 . S
C344 C338 1.379 . S
C344 C341 1.363 1_554 S
C344 N342 1.356 . S
C345 C339 1.363 1_556 S
C345 C340 1.379 . S
C345 N343 1.356 . S
N346 C338 1.356 . S
N346 H352 0.984 . S
N346 H353 0.984 . S
N347 C340 1.356 . S
N347 H350 0.984 . S
N347 H351 0.985 . S
H348 N343 0.984 . S
H349 N343 0.985 . S
H350 N347 0.984 . S
H351 N347 0.985 . S
H352 N346 0.984 . S
H353 N346 0.984 . S
H354 N342 0.984 . S
H355 N342 0.985 . S
C356 C357 1.363 . S
C356 C362 1.379 . S
C356 N364 1.356 . S
C357 C356 1.363 . S
C357 C363 1.363 . S
C358 C359 1.363 . S
C358 C363 1.379 . S
C358 N365 1.356 . S
C359 C358 1.363 . S
C359 C362 1.363 . S
N360 C362 1.356 . S
N360 H372 0.984 . S
N360 H373 0.985 . S
N361 C363 1.356 . S
N361 H366 0.984 . S
N361 H367 0.985 . S
C362 C356 1.379 . S
C362 C359 1.363 . S
C362 N360 1.356 . S
C363 C357 1.363 . S
C363 C358 1.379 . S
C363 N361 1.356 . S
N364 C356 1.356 . S
N364 H370 0.984 . S
N364 H371 0.984 . S
N365 C358 1.356 . S
N365 H368 0.984 . S
N365 H369 0.985 . S
H366 N361 0.984 . S
H367 N361 0.985 . S
H368 N365 0.984 . S
H369 N365 0.985 . S
H370 N364 0.984 . S
H371 N364 0.984 . S
H372 N360 0.984 . S
H373 N360 0.985 . S
C374 C375 1.363 . S
C374 C380 1.379 . S
C374 N382 1.356 . S
C375 C374 1.363 . S
C375 C381 1.363 . S
C376 C377 1.363 . S
C376 C381 1.379 . S
C376 N383 1.356 . S
C377 C376 1.363 . S
C377 C380 1.363 . S
N378 C380 1.356 . S
N378 H390 0.984 . S
N378 H391 0.985 . S
N379 C381 1.356 . S
N379 H384 0.984 . S
N379 H385 0.985 . S
C380 C374 1.379 . S
C380 C377 1.363 . S
C380 N378 1.356 . S
C381 C375 1.363 . S
C381 C376 1.379 . S
C381 N379 1.356 . S
N382 C374 1.356 . S
N382 H388 0.984 . S
N382 H389 0.984 . S
N383 C376 1.356 . S
N383 H386 0.984 . S
N383 H387 0.985 . S
H384 N379 0.984 . S
H385 N379 0.985 . S
H386 N383 0.984 . S
H387 N383 0.985 . S
H388 N382 0.984 . S
H389 N382 0.984 . S
H390 N378 0.984 . S
H391 N378 0.985 . S
C392 C393 1.370 . S
C392 C398 1.379 . S
C392 N400 1.357 . S
C393 C392 1.370 . S
C393 C399 1.357 1_556 S
C394 C395 1.363 . S
C394 C399 1.379 . S
C394 N401 1.356 . S
C395 C394 1.363 . S
C395 C398 1.363 1_554 S
N396 C398 1.356 . S
N396 H408 0.984 . S
N396 H409 0.985 . S
N397 C399 1.356 1_655 S
N397 H402 0.984 . S
N397 H403 0.985 . S
C398 C392 1.379 . S
C398 C395 1.363 1_556 S
C398 N396 1.356 . S
C399 C393 1.357 1_554 S
C399 C394 1.379 . S
C399 N397 1.356 1_455 S
N400 C392 1.357 . S
N400 H406 0.985 . S
N400 H407 0.984 1_455 S
N401 C394 1.356 . S
N401 H404 0.984 . S
N401 H405 0.985 . S
H402 N397 0.984 . S
H403 N397 0.985 . S
H404 N401 0.984 . S
H405 N401 0.985 . S
H406 N400 0.985 . S
H407 N400 0.984 1_655 S
H408 N396 0.984 . S
H409 N396 0.985 . S
C410 C411 1.363 . S
C410 C416 1.379 . S
C410 N418 1.356 1_655 S
C411 C410 1.363 . S
C411 C417 1.363 1_556 S
C412 C413 1.363 . S
C412 C417 1.379 . S
C412 N419 1.356 . S
C413 C412 1.363 . S
C413 C416 1.363 1_554 S
N414 C416 1.356 . S
N414 H426 0.984 . S
N414 H427 0.985 . S
N415 C417 1.356 1_455 S
N415 H420 0.984 . S
N415 H421 0.985 1_455 S
C416 C410 1.379 . S
C416 C413 1.363 1_556 S
C416 N414 1.356 . S
C417 C411 1.363 1_554 S
C417 C412 1.379 . S
C417 N415 1.356 1_655 S
N418 C410 1.356 1_455 S
N418 H424 0.984 1_455 S
N418 H425 0.984 . S
N419 C412 1.356 . S
N419 H422 0.984 . S
N419 H423 0.985 . S
H420 N415 0.984 . S
H421 N415 0.985 1_655 S
H422 N419 0.984 . S
H423 N419 0.985 . S
H424 N418 0.984 1_655 S
H425 N418 0.984 . S
H426 N414 0.984 . S
H427 N414 0.985 . S
C428 C429 1.363 . S
C428 C434 1.379 . S
C428 N436 1.356 . S
C429 C428 1.363 . S
C429 C435 1.363 . S
C430 C431 1.363 . S
C430 C435 1.379 . S
C430 N437 1.356 1_455 S
C431 C430 1.363 . S
C431 C434 1.363 . S
N432 C434 1.356 1_655 S
N432 H444 0.984 1_655 S
N432 H445 0.985 . S
N433 C435 1.356 . S
N433 H438 0.984 . S
N433 H439 0.985 . S
C434 C428 1.379 . S
C434 C431 1.363 . S
C434 N432 1.356 1_455 S
C435 C429 1.363 . S
C435 C430 1.379 . S
C435 N433 1.356 . S
N436 C428 1.356 . S
N436 H442 0.984 . S
N436 H443 0.984 . S
N437 C430 1.356 1_655 S
N437 H440 0.984 . S
N437 H441 0.985 . S
H438 N433 0.984 . S
H439 N433 0.985 . S
H440 N437 0.984 . S
H441 N437 0.985 . S
H442 N436 0.984 . S
H443 N436 0.984 . S
H444 N432 0.984 1_455 S
H445 N432 0.985 . S
C446 C447 1.363 . S
C446 C452 1.379 . S
C446 N454 1.356 . S
C447 C446 1.363 . S
C447 C453 1.363 . S
C448 C449 1.363 . S
C448 C453 1.379 . S
C448 N455 1.356 1_655 S
C449 C448 1.363 . S
C449 C452 1.363 . S
N450 C452 1.356 . S
N450 H462 0.984 . S
N450 H463 0.985 1_655 S
N451 C453 1.356 . S
N451 H456 0.984 . S
N451 H457 0.985 . S
C452 C446 1.379 . S
C452 C449 1.363 . S
C452 N450 1.356 . S
C453 C447 1.363 . S
C453 C448 1.379 . S
C453 N451 1.356 . S
N454 C446 1.356 . S
N454 H460 0.984 . S
N454 H461 0.984 . S
N455 C448 1.356 1_455 S
N455 H458 0.984 . S
N455 H459 0.985 . S
H456 N451 0.984 . S
H457 N451 0.985 . S
H458 N455 0.984 . S
H459 N455 0.985 . S
H460 N454 0.984 . S
H461 N454 0.984 . S
H462 N450 0.984 . S
H463 N450 0.985 1_455 S
C464 C465 1.363 1_656 S
C464 C470 1.379 . S
C464 N472 1.356 . S
C465 C464 1.363 1_454 S
C465 C471 1.363 . S
C466 C467 1.363 1_455 S
C466 C471 1.379 . S
C466 N473 1.356 . S
C467 C466 1.363 1_655 S
C467 C470 1.363 1_554 S
N468 C470 1.356 . S
N468 H480 0.984 . S
N468 H481 0.985 . S
N469 C471 1.356 . S
N469 H474 0.984 . S
N469 H475 0.985 . S
C470 C464 1.379 . S
C470 C467 1.363 1_556 S
C470 N468 1.356 . S
C471 C465 1.363 . S
C471 C466 1.379 . S
C471 N469 1.356 . S
N472 C464 1.356 . S
N472 H478 0.984 . S
N472 H479 0.984 . S
N473 C466 1.356 . S
N473 H476 0.984 . S
N473 H477 0.985 . S
H474 N469 0.984 . S
H475 N469 0.985 . S
H476 N473 0.984 . S
H477 N473 0.985 . S
H478 N472 0.984 . S
H479 N472 0.984 . S
H480 N468 0.984 . S
H481 N468 0.985 . S
C482 C483 1.363 1_655 S
C482 C488 1.379 . S
C482 N490 1.356 . S
C483 C482 1.363 1_455 S
C483 C489 1.363 . S
C484 C485 1.363 1_455 S
C484 C489 1.379 . S
C484 N491 1.356 . S
C485 C484 1.363 1_655 S
C485 C488 1.363 . S
N486 C488 1.356 . S
N486 H498 0.984 . S
N486 H499 0.985 . S
N487 C489 1.356 . S
N487 H492 0.984 . S
N487 H493 0.985 . S
C488 C482 1.379 . S
C488 C485 1.363 . S
C488 N486 1.356 . S
C489 C483 1.363 . S
C489 C484 1.379 . S
C489 N487 1.356 . S
N490 C482 1.356 . S
N490 H496 0.984 . S
N490 H497 0.984 . S
N491 C484 1.356 . S
N491 H494 0.984 . S
N491 H495 0.985 . S
H492 N487 0.984 . S
H493 N487 0.985 . S
H494 N491 0.984 . S
H495 N491 0.985 . S
H496 N490 0.984 . S
H497 N490 0.984 . S
H498 N486 0.984 . S
H499 N486 0.985 . S
C500 C501 1.363 1_556 S
C500 C506 1.379 1_565 S
C500 N508 1.356 . S
C501 C500 1.363 1_554 S
C501 C507 1.363 . S
C502 C503 1.363 . S
C502 C507 1.379 1_545 S
C502 N509 1.356 . S
C503 C502 1.363 . S
C503 C506 1.363 1_554 S
N504 C506 1.356 . S
N504 H516 0.984 . S
N504 H517 0.985 . S
N505 C507 1.356 . S
N505 H510 0.984 . S
N505 H511 0.985 . S
C506 C500 1.379 1_545 S
C506 C503 1.363 1_556 S
C506 N504 1.356 . S
C507 C501 1.363 . S
C507 C502 1.379 1_565 S
C507 N505 1.356 . S
N508 C500 1.356 . S
N508 H514 0.984 . S
N508 H515 0.984 . S
N509 C502 1.356 . S
N509 H512 0.984 . S
N509 H513 0.985 . S
H510 N505 0.984 . S
H511 N505 0.985 . S
H512 N509 0.984 . S
H513 N509 0.985 . S
H514 N508 0.984 . S
H515 N508 0.984 . S
H516 N504 0.984 . S
H517 N504 0.985 . S
C518 C519 1.363 . S
C518 C524 1.379 1_545 S
C518 N526 1.356 . S
C519 C518 1.363 . S
C519 C525 1.363 . S
C520 C521 1.363 . S
C520 C525 1.379 1_565 S
C520 N527 1.356 . S
C521 C520 1.363 . S
C521 C524 1.363 . S
N522 C524 1.356 . S
N522 H534 0.984 . S
N522 H535 0.985 . S
N523 C525 1.356 . S
N523 H528 0.984 . S
N523 H529 0.985 . S
C524 C518 1.379 1_565 S
C524 C521 1.363 . S
C524 N522 1.356 . S
C525 C519 1.363 . S
C525 C520 1.379 1_545 S
C525 N523 1.356 . S
N526 C518 1.356 . S
N526 H532 0.984 . S
N526 H533 0.984 . S
N527 C520 1.356 . S
N527 H530 0.984 . S
N527 H531 0.985 . S
H528 N523 0.984 . S
H529 N523 0.985 . S
H530 N527 0.984 . S
H531 N527 0.985 . S
H532 N526 0.984 . S
H533 N526 0.984 . S
H534 N522 0.984 . S
H535 N522 0.985 . S
C536 C537 1.363 . S
C536 C542 1.379 . S
C536 N544 1.356 . S
C537 C536 1.363 . S
C537 C543 1.363 1_556 S
C538 C539 1.363 1_554 S
C538 C543 1.379 . S
C538 N545 1.356 . S
C539 C538 1.363 1_556 S
C539 C542 1.363 . S
N540 C542 1.356 . S
N540 H552 0.984 . S
N540 H553 0.985 . S
N541 C543 1.356 . S
N541 H546 0.984 . S
N541 H547 0.985 . S
C542 C536 1.379 . S
C542 C539 1.363 . S
C542 N540 1.356 . S
C543 C537 1.363 1_554 S
C543 C538 1.379 . S
C543 N541 1.356 . S
N544 C536 1.356 . S
N544 H550 0.984 . S
N544 H551 0.984 . S
N545 C538 1.356 . S
N545 H548 0.984 . S
N545 H549 0.985 . S
H546 N541 0.984 . S
H547 N541 0.985 . S
H548 N545 0.984 . S
H549 N545 0.985 . S
H550 N544 0.984 . S
H551 N544 0.984 . S
H552 N540 0.984 . S
H553 N540 0.985 . S
C554 C555 1.363 1_554 S
C554 C560 1.379 . S
C554 N562 1.356 . S
C555 C554 1.363 1_556 S
C555 C561 1.363 . S
C556 C557 1.363 . S
C556 C561 1.379 . S
C556 N563 1.356 . S
C557 C556 1.363 . S
C557 C560 1.363 1_556 S
N558 C560 1.356 . S
N558 H570 0.984 . S
N558 H571 0.985 . S
N559 C561 1.356 . S
N559 H564 0.984 . S
N559 H565 0.985 . S
C560 C554 1.379 . S
C560 C557 1.363 1_554 S
C560 N558 1.356 . S
C561 C555 1.363 . S
C561 C556 1.379 . S
C561 N559 1.356 . S
N562 C554 1.356 . S
N562 H568 0.984 . S
N562 H569 0.984 . S
N563 C556 1.356 . S
N563 H566 0.984 . S
N563 H567 0.985 . S
H564 N559 0.984 . S
H565 N559 0.985 . S
H566 N563 0.984 . S
H567 N563 0.985 . S
H568 N562 0.984 . S
H569 N562 0.984 . S
H570 N558 0.984 . S
H571 N558 0.985 . S
C572 C573 1.363 . S
C572 C578 1.379 . S
C572 N580 1.356 . S
C573 C572 1.363 . S
C573 C579 1.363 . S
C574 C575 1.363 . S
C574 C579 1.379 . S
C574 N581 1.356 . S
C575 C574 1.363 . S
C575 C578 1.363 . S
N576 C578 1.356 . S
N576 H588 0.984 . S
N576 H589 0.985 . S
N577 C579 1.356 . S
N577 H582 0.984 . S
N577 H583 0.985 . S
C578 C572 1.379 . S
C578 C575 1.363 . S
C578 N576 1.356 . S
C579 C573 1.363 . S
C579 C574 1.379 . S
C579 N577 1.356 . S
N580 C572 1.356 . S
N580 H586 0.984 . S
N580 H587 0.984 . S
N581 C574 1.356 . S
N581 H584 0.984 . S
N581 H585 0.985 . S
H582 N577 0.984 . S
H583 N577 0.985 . S
H584 N581 0.984 . S
H585 N581 0.985 . S
H586 N580 0.984 . S
H587 N580 0.984 . S
H588 N576 0.984 . S
H589 N576 0.985 . S
C590 C591 1.363 . S
C590 C596 1.379 . S
C590 N598 1.356 . S
C591 C590 1.363 . S
C591 C597 1.363 . S
C592 C593 1.363 . S
C592 C597 1.379 . S
C592 N599 1.356 . S
C593 C592 1.363 . S
C593 C596 1.363 . S
N594 C596 1.356 . S
N594 H606 0.984 . S
N594 H607 0.985 . S
N595 C597 1.356 . S
N595 H600 0.984 . S
N595 H601 0.985 . S
C596 C590 1.379 . S
C596 C593 1.363 . S
C596 N594 1.356 . S
C597 C591 1.363 . S
C597 C592 1.379 . S
C597 N595 1.356 . S
N598 C590 1.356 . S
N598 H604 0.984 . S
N598 H605 0.984 . S
N599 C592 1.356 . S
N599 H602 0.984 . S
N599 H603 0.985 . S
H600 N595 0.984 . S
H601 N595 0.985 . S
H602 N599 0.984 . S
H603 N599 0.985 . S
H604 N598 0.984 . S
H605 N598 0.984 . S
H606 N594 0.984 . S
H607 N594 0.985 . S
C608 C609 1.363 1_655 S
C608 C614 1.379 . S
C608 N616 1.356 . S
C609 C608 1.363 1_455 S
C609 C615 1.363 . S
C610 C611 1.363 1_455 S
C610 C615 1.379 . S
C610 N617 1.356 . S
C611 C610 1.363 1_655 S
C611 C614 1.363 . S
N612 C614 1.356 . S
N612 H624 0.984 . S
N612 H625 0.985 . S
N613 C615 1.356 . S
N613 H618 0.984 . S
N613 H619 0.985 . S
C614 C608 1.379 . S
C614 C611 1.363 . S
C614 N612 1.356 . S
C615 C609 1.363 . S
C615 C610 1.379 . S
C615 N613 1.356 . S
N616 C608 1.356 . S
N616 H622 0.984 . S
N616 H623 0.984 1_655 S
N617 C610 1.356 . S
N617 H620 0.984 1_455 S
N617 H621 0.985 . S
H618 N613 0.984 . S
H619 N613 0.985 . S
H620 N617 0.984 1_655 S
H621 N617 0.985 . S
H622 N616 0.984 . S
H623 N616 0.984 1_455 S
H624 N612 0.984 . S
H625 N612 0.985 . S
C626 C627 1.363 . S
C626 C632 1.378 1_655 S
C626 N634 1.356 . S
C627 C626 1.363 . S
C627 C633 1.363 1_655 S
C628 C629 1.363 . S
C628 C633 1.379 . S
C628 N635 1.356 . S
C629 C628 1.363 . S
C629 C632 1.364 . S
N630 C632 1.356 . S
N630 H642 0.984 1_455 S
N630 H643 0.985 . S
N631 C633 1.356 . S
N631 H636 0.984 1_455 S
N631 H637 0.985 . S
C632 C626 1.378 1_455 S
C632 C629 1.364 . S
C632 N630 1.356 . S
C633 C627 1.363 1_455 S
C633 C628 1.379 . S
C633 N631 1.356 . S
N634 C626 1.356 . S
N634 H640 0.984 . S
N634 H641 0.984 . S
N635 C628 1.356 . S
N635 H638 0.984 . S
N635 H639 0.985 . S
H636 N631 0.984 1_655 S
H637 N631 0.985 . S
H638 N635 0.984 . S
H639 N635 0.985 . S
H640 N634 0.984 . S
H641 N634 0.984 . S
H642 N630 0.984 1_655 S
H643 N630 0.985 . S
C644 C645 1.369 . S
C644 C650 1.374 1_655 S
C644 N652 1.357 . S
C645 C644 1.369 . S
C645 C651 1.363 . S
C646 C647 1.363 1_655 S
C646 C651 1.379 . S
C646 N653 1.356 . S
C647 C646 1.363 1_455 S
C647 C650 1.363 . S
N648 C650 1.356 . S
N648 H660 0.984 . S
N648 H661 0.985 . S
N649 C651 1.356 . S
N649 H654 0.984 . S
N649 H655 0.985 . S
C650 C644 1.374 1_455 S
C650 C647 1.363 . S
C650 N648 1.356 . S
C651 C645 1.363 . S
C651 C646 1.379 . S
C651 N649 1.356 . S
N652 C644 1.357 . S
N652 H658 0.984 1_655 S
N652 H659 0.984 . S
N653 C646 1.356 . S
N653 H656 0.984 1_655 S
N653 H657 0.985 . S
H654 N649 0.984 . S
H655 N649 0.985 . S
H656 N653 0.984 1_455 S
H657 N653 0.985 . S
H658 N652 0.984 1_455 S
H659 N652 0.984 . S
H660 N648 0.984 . S
H661 N648 0.985 . S
C662 C663 1.363 . S
C662 C668 1.379 . S
C662 N670 1.356 . S
C663 C662 1.363 . S
C663 C669 1.363 1_655 S
C664 C665 1.363 . S
C664 C669 1.379 . S
C664 N671 1.356 . S
C665 C664 1.363 . S
C665 C668 1.363 1_455 S
N666 C668 1.356 . S
N666 H678 0.984 . S
N666 H679 0.985 1_655 S
N667 C669 1.356 . S
N667 H672 0.984 1_455 S
N667 H673 0.985 . S
C668 C662 1.379 . S
C668 C665 1.363 1_655 S
C668 N666 1.356 . S
C669 C663 1.363 1_455 S
C669 C664 1.379 . S
C669 N667 1.356 . S
N670 C662 1.356 . S
N670 H676 0.984 . S
N670 H677 0.984 . S
N671 C664 1.356 . S
N671 H674 0.984 . S
N671 H675 0.985 . S
H672 N667 0.984 1_655 S
H673 N667 0.985 . S
H674 N671 0.984 . S
H675 N671 0.985 . S
H676 N670 0.984 . S
H677 N670 0.984 . S
H678 N666 0.984 . S
H679 N666 0.985 1_455 S
C680 C681 1.363 . S
C680 C686 1.379 . S
C680 N688 1.356 . S
C681 C680 1.363 . S
C681 C687 1.363 . S
C682 C683 1.363 . S
C682 C687 1.379 . S
C682 N689 1.356 . S
C683 C682 1.363 . S
C683 C686 1.363 . S
N684 C686 1.356 . S
N684 H696 0.984 . S
N684 H697 0.985 . S
N685 C687 1.356 . S
N685 H690 0.984 . S
N685 H691 0.985 . S
C686 C680 1.379 . S
C686 C683 1.363 . S
C686 N684 1.356 . S
C687 C681 1.363 . S
C687 C682 1.379 . S
C687 N685 1.356 . S
N688 C680 1.356 . S
N688 H694 0.984 . S
N688 H695 0.984 . S
N689 C682 1.356 . S
N689 H692 0.984 . S
N689 H693 0.985 . S
H690 N685 0.984 . S
H691 N685 0.985 . S
H692 N689 0.984 . S
H693 N689 0.985 . S
H694 N688 0.984 . S
H695 N688 0.984 . S
H696 N684 0.984 . S
H697 N684 0.985 . S
C698 C699 1.363 . S
C698 C704 1.379 . S
C698 N706 1.356 . S
C699 C698 1.363 . S
C699 C705 1.363 . S
C700 C701 1.363 . S
C700 C705 1.379 . S
C700 N707 1.356 . S
C701 C700 1.363 . S
C701 C704 1.363 . S
N702 C704 1.356 . S
N702 H714 0.984 . S
N702 H715 0.985 . S
N703 C705 1.356 . S
N703 H708 0.984 . S
N703 H709 0.985 . S
C704 C698 1.379 . S
C704 C701 1.363 . S
C704 N702 1.356 . S
C705 C699 1.363 . S
C705 C700 1.379 . S
C705 N703 1.356 . S
N706 C698 1.356 . S
N706 H712 0.984 . S
N706 H713 0.984 . S
N707 C700 1.356 . S
N707 H710 0.984 . S
N707 H711 0.985 . S
H708 N703 0.984 . S
H709 N703 0.985 . S
H710 N707 0.984 . S
H711 N707 0.985 . S
H712 N706 0.984 . S
H713 N706 0.984 . S
H714 N702 0.984 . S
H715 N702 0.985 . S
C716 C717 1.363 . S
C716 C722 1.379 . S
C716 N724 1.356 . S
C717 C716 1.363 . S
C717 C723 1.363 . S
C718 C719 1.363 . S
C718 C723 1.379 . S
C718 N725 1.356 . S
C719 C718 1.363 . S
C719 C722 1.363 . S
N720 C722 1.356 . S
N720 H732 0.984 . S
N720 H733 0.985 . S
N721 C723 1.356 . S
N721 H726 0.984 . S
N721 H727 0.985 . S
C722 C716 1.379 . S
C722 C719 1.363 . S
C722 N720 1.356 . S
C723 C717 1.363 . S
C723 C718 1.379 . S
C723 N721 1.356 . S
N724 C716 1.356 . S
N724 H730 0.984 . S
N724 H731 0.984 . S
N725 C718 1.356 . S
N725 H728 0.984 . S
N725 H729 0.985 . S
H726 N721 0.984 . S
H727 N721 0.985 . S
H728 N725 0.984 . S
H729 N725 0.985 . S
H730 N724 0.984 . S
H731 N724 0.984 . S
H732 N720 0.984 . S
H733 N720 0.985 . S
C734 C735 1.363 . S
C734 C740 1.379 . S
C734 N742 1.356 . S
C735 C734 1.363 . S
C735 C741 1.363 . S
C736 C737 1.363 . S
C736 C741 1.379 . S
C736 N743 1.356 . S
C737 C736 1.363 . S
C737 C740 1.363 . S
N738 C740 1.356 . S
N738 H750 0.984 . S
N738 H751 0.985 . S
N739 C741 1.356 . S
N739 H744 0.984 . S
N739 H745 0.985 . S
C740 C734 1.379 . S
C740 C737 1.363 . S
C740 N738 1.356 . S
C741 C735 1.363 . S
C741 C736 1.379 . S
C741 N739 1.356 . S
N742 C734 1.356 . S
N742 H748 0.984 . S
N742 H749 0.984 . S
N743 C736 1.356 . S
N743 H746 0.984 . S
N743 H747 0.985 . S
H744 N739 0.984 . S
H745 N739 0.985 . S
H746 N743 0.984 . S
H747 N743 0.985 . S
H748 N742 0.984 . S
H749 N742 0.984 . S
H750 N738 0.984 . S
H751 N738 0.985 . S
C321 C6 1.395 1_556 S
C323 C15 1.396 . S
C339 C55 1.481 . S
C341 C46 1.481 . S
C357 C86 1.408 . S
C359 C95 1.408 . S
C375 C126 1.408 . S
C377 C135 1.408 . S
C393 C166 1.395 1_456 S
C395 C175 1.396 . S
C411 C206 1.481 1_655 S
C413 C215 1.481 . S
C429 C246 1.408 . S
C431 C255 1.408 1_455 S
C447 C295 1.408 . S
C449 C286 1.408 1_655 S
C465 C59 1.894 . S
C467 C19 1.873 . S
C483 C139 1.877 . S
C485 C90 1.877 . S
C501 C179 1.873 . S
C503 C219 1.894 . S
C519 C250 1.877 . S
C521 C299 1.877 . S
C537 C10 1.899 . S
C539 C210 1.906 1_556 S
C555 C170 1.899 . S
C557 C50 1.906 1_556 S
C573 C99 1.902 . S
C575 C290 1.902 . S
C591 C130 1.902 . S
C593 C259 1.902 . S
C609 C9 1.851 . S
C611 C129 1.841 . S
C627 C49 1.764 . S
C629 C89 1.537 . S
C645 C58 1.667 . S
C647 C98 1.952 . S
C663 C138 1.604 . S
C665 C18 1.607 . S
C681 C169 1.851 . S
C683 C289 1.841 . S
C699 C209 1.764 . S
C701 C249 1.537 . S
C717 C218 1.667 . S
C719 C258 1.952 . S
C735 C298 1.604 . S
C737 C178 1.607 . S
