# Generated by pormake.
# Topology ukb, (4)-cn, num edge types: 1
# Building blocks:
#     Node 0, Type 0, BuildingBlock: AZAVOO_clean_sbu_0, # of connection points: 4
#     Node 1, Type 0, BuildingBlock: AZAVOO_clean_sbu_0, # of connection points: 4
#     Node 2, Type 0, BuildingBlock: AZAVOO_clean_sbu_0, # of connection points: 4
#     Node 3, Type 0, BuildingBlock: AZAVOO_clean_sbu_0, # of connection points: 4
#     Node 4, Type 0, BuildingBlock: AZAVOO_clean_sbu_0, # of connection points: 4
#     Node 5, Type 0, BuildingBlock: AZAVOO_clean_sbu_0, # of connection points: 4
#     Node 6, Type 0, BuildingBlock: AZAVOO_clean_sbu_0, # of connection points: 4
#     Node 7, Type 0, BuildingBlock: AZAVOO_clean_sbu_0, # of connection points: 4
#     Node 8, Type 0, BuildingBlock: AZAVOO_clean_sbu_0, # of connection points: 4
#     Node 9, Type 0, BuildingBlock: AZAVOO_clean_sbu_0, # of connection points: 4
#     Node 10, Type 0, BuildingBlock: AZAVOO_clean_sbu_0, # of connection points: 4
#     Node 11, Type 0, BuildingBlock: AZAVOO_clean_sbu_0, # of connection points: 4
#     Node 12, Type 0, BuildingBlock: AZAVOO_clean_sbu_0, # of connection points: 4
#     Node 13, Type 0, BuildingBlock: AZAVOO_clean_sbu_0, # of connection points: 4
#     Node 14, Type 0, BuildingBlock: AZAVOO_clean_sbu_0, # of connection points: 4
#     Node 15, Type 0, BuildingBlock: AZAVOO_clean_sbu_0, # of connection points: 4
#     Edge 16, Type (0, 0), BuildingBlock: MIFKUJ_clean_linker_0, # of connection points: 2
#     Edge 17, Type (0, 0), BuildingBlock: MIFKUJ_clean_linker_0, # of connection points: 2
#     Edge 18, Type (0, 0), BuildingBlock: MIFKUJ_clean_linker_0, # of connection points: 2
#     Edge 19, Type (0, 0), BuildingBlock: MIFKUJ_clean_linker_0, # of connection points: 2
#     Edge 20, Type (0, 0), BuildingBlock: MIFKUJ_clean_linker_0, # of connection points: 2
#     Edge 21, Type (0, 0), BuildingBlock: MIFKUJ_clean_linker_0, # of connection points: 2
#     Edge 22, Type (0, 0), BuildingBlock: MIFKUJ_clean_linker_0, # of connection points: 2
#     Edge 23, Type (0, 0), BuildingBlock: MIFKUJ_clean_linker_0, # of connection points: 2
#     Edge 24, Type (0, 0), BuildingBlock: MIFKUJ_clean_linker_0, # of connection points: 2
#     Edge 25, Type (0, 0), BuildingBlock: MIFKUJ_clean_linker_0, # of connection points: 2
#     Edge 26, Type (0, 0), BuildingBlock: MIFKUJ_clean_linker_0, # of connection points: 2
#     Edge 27, Type (0, 0), BuildingBlock: MIFKUJ_clean_linker_0, # of connection points: 2
#     Edge 28, Type (0, 0), BuildingBlock: MIFKUJ_clean_linker_0, # of connection points: 2
#     Edge 29, Type (0, 0), BuildingBlock: MIFKUJ_clean_linker_0, # of connection points: 2
#     Edge 30, Type (0, 0), BuildingBlock: MIFKUJ_clean_linker_0, # of connection points: 2
#     Edge 31, Type (0, 0), BuildingBlock: MIFKUJ_clean_linker_0, # of connection points: 2
#     Edge 32, Type (0, 0), BuildingBlock: MIFKUJ_clean_linker_0, # of connection points: 2
#     Edge 33, Type (0, 0), BuildingBlock: MIFKUJ_clean_linker_0, # of connection points: 2
#     Edge 34, Type (0, 0), BuildingBlock: MIFKUJ_clean_linker_0, # of connection points: 2
#     Edge 35, Type (0, 0), BuildingBlock: MIFKUJ_clean_linker_0, # of connection points: 2
#     Edge 36, Type (0, 0), BuildingBlock: MIFKUJ_clean_linker_0, # of connection points: 2
#     Edge 37, Type (0, 0), BuildingBlock: MIFKUJ_clean_linker_0, # of connection points: 2
#     Edge 38, Type (0, 0), BuildingBlock: MIFKUJ_clean_linker_0, # of connection points: 2
#     Edge 39, Type (0, 0), BuildingBlock: MIFKUJ_clean_linker_0, # of connection points: 2
#     Edge 40, Type (0, 0), BuildingBlock: MIFKUJ_clean_linker_0, # of connection points: 2
#     Edge 41, Type (0, 0), BuildingBlock: MIFKUJ_clean_linker_0, # of connection points: 2
#     Edge 42, Type (0, 0), BuildingBlock: MIFKUJ_clean_linker_0, # of connection points: 2
#     Edge 43, Type (0, 0), BuildingBlock: MIFKUJ_clean_linker_0, # of connection points: 2
#     Edge 44, Type (0, 0), BuildingBlock: MIFKUJ_clean_linker_0, # of connection points: 2
#     Edge 45, Type (0, 0), BuildingBlock: MIFKUJ_clean_linker_0, # of connection points: 2
#     Edge 46, Type (0, 0), BuildingBlock: MIFKUJ_clean_linker_0, # of connection points: 2
#     Edge 47, Type (0, 0), BuildingBlock: MIFKUJ_clean_linker_0, # of connection points: 2
# Relax obj value: 0.173
# Max RMSD: 0.198
# Mean RMSD: 0.178
data_MOF--net-ukb--node1-AZAVOO_clean_sbu_0--edge1-MIFKUJ_clean_linker_0
_symmetry_space_group_name_H-M    P1
_symmetry_Int_Tables_number       1
_symmetry_cell_setting            triclinic
loop_
_symmetry_equiv_pos_as_xyz
'x, y, z'
_cell_length_a     52.368565
_cell_length_b     55.655524
_cell_length_c     52.500923
_cell_angle_alpha  90.000463
_cell_angle_beta   89.995142
_cell_angle_gamma 89.988172
loop_
_atom_site_label
_atom_site_type_symbol
_atom_site_fract_x
_atom_site_fract_y
_atom_site_fract_z
_atom_type_partial_charge
Mg0 Mg 0.51484 0.13626 0.16307 0.0
O1 O 0.52718 0.16532 0.1921 0.0
O2 O 0.53505 0.14644 0.22891 0.0
Mg3 Mg 0.52498 0.10701 0.22483 0.0
C4 C 0.53451 0.16547 0.21537 0.0
C5 C 0.49969 0.15695 0.11145 0.0
O6 O 0.50075 0.13365 0.10754 0.0
O7 O 0.47478 0.13516 0.18037 0.0
O8 O 0.48319 0.11784 0.21791 0.0
O9 O 0.55585 0.13001 0.15469 0.0
O10 O 0.53435 0.11031 0.18432 0.0
C11 C 0.46764 0.1274 0.20213 0.0
C12 C 0.55595 0.11538 0.17386 0.0
O13 O 0.50363 0.16482 0.13385 0.0
Mg14 Mg 0.27283 0.51436 0.68446 0.0
O15 O 0.23508 0.52741 0.70335 0.0
O16 O 0.24692 0.53925 0.74232 0.0
Mg17 Mg 0.28962 0.53517 0.7484 0.0
C18 C 0.2298 0.53609 0.72535 0.0
C19 C 0.26988 0.48877 0.63542 0.0
O20 O 0.29392 0.48963 0.64256 0.0
O21 O 0.27351 0.47985 0.70815 0.0
O22 O 0.28604 0.49413 0.74596 0.0
O23 O 0.28064 0.5512 0.6697 0.0
O24 O 0.29383 0.53783 0.707 0.0
C25 C 0.28004 0.47666 0.73136 0.0
C26 C 0.29237 0.55527 0.69095 0.0
O27 O 0.25301 0.4966 0.65076 0.0
Mg28 Mg 0.97803 0.33809 0.16399 0.0
O29 O 0.96618 0.30652 0.19016 0.0
O30 O 0.95767 0.32226 0.22845 0.0
Mg31 Mg 0.96621 0.3622 0.2279 0.0
C32 C 0.95882 0.30436 0.2133 0.0
C33 C 0.98918 0.32042 0.11023 0.0
O34 O 0.98159 0.34275 0.10718 0.0
O35 O 0.01775 0.3391 0.18201 0.0
O36 O 0.00858 0.35372 0.22064 0.0
O37 O 0.93707 0.3443 0.15509 0.0
O38 O 0.95723 0.36181 0.18704 0.0
C39 C 0.02454 0.34577 0.20427 0.0
C40 C 0.93606 0.35754 0.17534 0.0
O41 O 0.99078 0.3121 0.13274 0.0
Mg42 Mg 0.21946 0.96032 0.68221 0.0
O43 O 0.25379 0.94262 0.70315 0.0
O44 O 0.23954 0.93514 0.74251 0.0
Mg45 Mg 0.19852 0.94747 0.74736 0.0
C46 C 0.25708 0.93428 0.72566 0.0
C47 C 0.23522 0.98848 0.63454 0.0
O48 O 0.21654 0.00175 0.64357 0.0
O49 O 0.22503 0.99619 0.70278 0.0
O50 O 0.20992 0.98683 0.74137 0.0
O51 O 0.20492 0.92434 0.6705 0.0
O52 O 0.19394 0.94262 0.70618 0.0
C53 C 0.2191 0.00199 0.72558 0.0
C54 C 0.19243 0.92395 0.69175 0.0
O55 O 0.24346 0.97112 0.64798 0.0
Mg56 Mg 0.52636 0.33151 0.84032 0.0
O57 O 0.53519 0.29916 0.81445 0.0
O58 O 0.53911 0.31297 0.77455 0.0
Mg59 Mg 0.53394 0.35358 0.77495 0.0
C60 C 0.53922 0.29583 0.7907 0.0
C61 C 0.51448 0.31437 0.89515 0.0
O62 O 0.52067 0.33697 0.89891 0.0
O63 O 0.48544 0.33369 0.82515 0.0
O64 O 0.4919 0.34826 0.78602 0.0
O65 O 0.56815 0.3363 0.84586 0.0
O66 O 0.54621 0.3538 0.81507 0.0
C67 C 0.47699 0.34103 0.80369 0.0
C68 C 0.56805 0.34898 0.82518 0.0
O69 O 0.51442 0.30625 0.87251 0.0
Mg70 Mg 0.22783 0.52394 0.31707 0.0
O71 O 0.26614 0.53649 0.29912 0.0
O72 O 0.25661 0.54287 0.25804 0.0
Mg73 Mg 0.21398 0.53862 0.25062 0.0
C74 C 0.27262 0.54218 0.27637 0.0
C75 C 0.2277 0.50146 0.36751 0.0
O76 O 0.20424 0.50254 0.35869 0.0
O77 O 0.22903 0.48764 0.29665 0.0
O78 O 0.21645 0.49798 0.25749 0.0
O79 O 0.21795 0.56156 0.32804 0.0
O80 O 0.20768 0.54486 0.29136 0.0
C81 C 0.22237 0.48205 0.27399 0.0
C82 C 0.2072 0.56346 0.30593 0.0
O83 O 0.24575 0.50867 0.35319 0.0
Mg84 Mg 0.97924 0.14635 0.8393 0.0
O85 O 0.96806 0.17586 0.81045 0.0
O86 O 0.96023 0.15763 0.77326 0.0
Mg87 Mg 0.96945 0.11786 0.77711 0.0
C88 C 0.96103 0.17645 0.78712 0.0
C89 C 0.99759 0.167 0.89049 0.0
O90 O 0.99908 0.14369 0.8942 0.0
O91 O 0.01944 0.14453 0.82257 0.0
O92 O 0.01163 0.12701 0.78504 0.0
O93 O 0.93796 0.14045 0.8471 0.0
O94 O 0.95963 0.1208 0.81759 0.0
C95 C 0.02705 0.13622 0.80119 0.0
C96 C 0.93798 0.12573 0.82801 0.0
O97 O 0.99076 0.17463 0.86869 0.0
Mg98 Mg 0.2775 0.95146 0.31843 0.0
O99 O 0.24442 0.93235 0.29701 0.0
O100 O 0.26014 0.92424 0.25834 0.0
Mg101 Mg 0.3011 0.93721 0.25444 0.0
C102 C 0.24206 0.92346 0.27463 0.0
C103 C 0.24549 0.94732 0.36735 0.0
O104 O 0.24988 0.92469 0.36176 0.0
O105 O 0.27133 0.98639 0.29624 0.0
O106 O 0.28863 0.97649 0.25877 0.0
O107 O 0.29324 0.91603 0.33144 0.0
O108 O 0.30444 0.93409 0.29582 0.0
C109 C 0.27826 0.99185 0.27362 0.0
C110 C 0.30641 0.91578 0.31062 0.0
O111 O 0.25198 0.96335 0.35136 0.0
Mg112 Mg 0.50689 0.74023 0.79754 0.0
O113 O 0.47237 0.76555 0.79352 0.0
O114 O 0.43728 0.74603 0.80604 0.0
Mg115 Mg 0.44941 0.7084 0.81867 0.0
C116 C 0.44828 0.76472 0.7972 0.0
C117 C 0.55368 0.77727 0.8011 0.0
O118 O 0.56131 0.76429 0.82057 0.0
O119 O 0.50761 0.74525 0.84114 0.0
O120 O 0.47276 0.7242 0.85141 0.0
O121 O 0.49839 0.72665 0.75843 0.0
O122 O 0.48301 0.71064 0.79379 0.0
C123 C 0.49226 0.73661 0.85776 0.0
C124 C 0.48314 0.7115 0.7693 0.0
O125 O 0.53301 0.77195 0.78979 0.0
Mg126 Mg 0.65276 0.42452 0.33256 0.0
O127 O 0.68663 0.41499 0.30633 0.0
O128 O 0.67039 0.40605 0.2681 0.0
Mg129 Mg 0.6271 0.41025 0.26925 0.0
C130 C 0.68938 0.40848 0.28313 0.0
C131 C 0.67009 0.43795 0.3858 0.0
O132 O 0.6462 0.43116 0.38838 0.0
O133 O 0.64933 0.46145 0.31339 0.0
O134 O 0.63164 0.45055 0.27638 0.0
O135 O 0.64748 0.38557 0.3423 0.0
O136 O 0.6283 0.40377 0.31029 0.0
C137 C 0.63965 0.4667 0.29171 0.0
C138 C 0.63281 0.38422 0.32251 0.0
O139 O 0.67972 0.43827 0.36355 0.0
Mg140 Mg 0.98272 0.72574 0.80691 0.0
O141 O 0.01419 0.69765 0.79968 0.0
O142 O 0.05107 0.71222 0.81446 0.0
Mg143 Mg 0.04349 0.74973 0.83049 0.0
C144 C 0.03815 0.69566 0.80365 0.0
C145 C 0.93487 0.68979 0.81017 0.0
O146 O 0.93172 0.6982 0.83334 0.0
O147 O 0.98158 0.71718 0.84985 0.0
O148 O 0.01862 0.73366 0.86192 0.0
O149 O 0.99231 0.74266 0.76945 0.0
O150 O 0.00954 0.75315 0.80622 0.0
C151 C 0.9978 0.72275 0.86709 0.0
C152 C 0.00874 0.75549 0.78188 0.0
O153 O 0.95318 0.69748 0.79656 0.0
Mg154 Mg 0.83938 0.04471 0.32926 0.0
O155 O 0.80453 0.05541 0.30483 0.0
O156 O 0.81836 0.06173 0.26508 0.0
Mg157 Mg 0.86113 0.05484 0.26363 0.0
C158 C 0.80045 0.061 0.28155 0.0
C159 C 0.82275 0.02356 0.38153 0.0
O160 O 0.8472 0.01824 0.38137 0.0
O161 O 0.83886 0.00704 0.31164 0.0
O162 O 0.85253 0.01531 0.27218 0.0
O163 O 0.84771 0.08345 0.33681 0.0
O164 O 0.86359 0.06308 0.3044 0.0
C165 C 0.8448 0.00048 0.28907 0.0
C166 C 0.86101 0.0833 0.31601 0.0
O167 O 0.81313 0.03377 0.36209 0.0
Mg168 Mg 0.51844 0.73103 0.1881 0.0
O169 O 0.48354 0.7064 0.19295 0.0
O170 O 0.44848 0.72779 0.1847 0.0
Mg171 Mg 0.46104 0.76563 0.17271 0.0
C172 C 0.45929 0.70823 0.19147 0.0
C173 C 0.56241 0.69898 0.20709 0.0
O174 O 0.56742 0.71933 0.21877 0.0
O175 O 0.5162 0.72838 0.14441 0.0
O176 O 0.48178 0.75121 0.13743 0.0
O177 O 0.51256 0.74309 0.22848 0.0
O178 O 0.49629 0.76129 0.19474 0.0
C179 C 0.50044 0.73858 0.12924 0.0
C180 C 0.49785 0.75955 0.21909 0.0
O181 O 0.54372 0.69812 0.19167 0.0
Mg182 Mg 0.84438 0.4321 0.66367 0.0
O183 O 0.81124 0.41673 0.68767 0.0
O184 O 0.82671 0.40679 0.72595 0.0
Mg185 Mg 0.86834 0.41843 0.72777 0.0
C186 C 0.80838 0.4079 0.70998 0.0
C187 C 0.82579 0.44785 0.6106 0.0
O188 O 0.85074 0.4476 0.6079 0.0
O189 O 0.84074 0.46804 0.68452 0.0
O190 O 0.85532 0.45754 0.72307 0.0
O191 O 0.85591 0.39472 0.65304 0.0
O192 O 0.87092 0.41432 0.68641 0.0
C193 C 0.8461 0.47307 0.70767 0.0
C194 C 0.86966 0.39471 0.67353 0.0
O195 O 0.81638 0.44303 0.63235 0.0
Mg196 Mg 0.98369 0.74177 0.19521 0.0
O197 O 0.01972 0.76534 0.19863 0.0
O198 O 0.05333 0.74395 0.1855 0.0
Mg199 Mg 0.03876 0.70718 0.17273 0.0
C200 C 0.04366 0.7632 0.19455 0.0
C201 C 0.93584 0.77424 0.20645 0.0
O202 O 0.92402 0.75345 0.20523 0.0
O203 O 0.98226 0.74664 0.15174 0.0
O204 O 0.01615 0.72465 0.14038 0.0
O205 O 0.99238 0.7278 0.23417 0.0
O206 O 0.00586 0.71097 0.19845 0.0
C207 C 0.99705 0.73788 0.13472 0.0
C208 C 0.00646 0.71187 0.22293 0.0
O209 O 0.95974 0.77511 0.20237 0.0
Mg210 Mg 0.6613 0.04016 0.66882 0.0
O211 O 0.69522 0.04976 0.69503 0.0
O212 O 0.67941 0.05562 0.73415 0.0
Mg213 Mg 0.63651 0.04913 0.73352 0.0
C214 C 0.69814 0.05494 0.71859 0.0
C215 C 0.67994 0.03508 0.61444 0.0
O216 O 0.65761 0.04575 0.61277 0.0
O217 O 0.66021 0.00205 0.68535 0.0
O218 O 0.64519 0.00971 0.72451 0.0
O219 O 0.65443 0.07936 0.66243 0.0
O220 O 0.63616 0.05806 0.69294 0.0
C221 C 0.65336 0.99515 0.70756 0.0
C222 C 0.63988 0.07858 0.68235 0.0
O223 O 0.68824 0.02943 0.63642 0.0
H224 H 0.42673 0.11817 0.17144 0.0
H225 H 0.38328 0.10897 0.18544 0.0
H226 H 0.40355 0.12842 0.26246 0.0
H227 H 0.4473 0.13627 0.24868 0.0
H228 H 0.38619 0.08655 0.26303 0.0
H229 H 0.35498 0.15848 0.22612 0.0
H230 H 0.34909 0.18973 0.19337 0.0
H231 H 0.31395 0.13816 0.14368 0.0
H232 H 0.31995 0.10649 0.17597 0.0
H233 H 0.27782 0.0317 0.30433 0.0
H234 H 0.2974 0.07016 0.29338 0.0
H235 H 0.30268 0.04811 0.21485 0.0
H236 H 0.28284 0.00984 0.22549 0.0
H237 H 0.30248 0.09917 0.22085 0.0
H238 H 0.34672 0.02735 0.25313 0.0
H239 H 0.35262 0.99534 0.28512 0.0
H240 H 0.36372 0.0485 0.34338 0.0
H241 H 0.35748 0.08082 0.31172 0.0
C242 C 0.42164 0.12114 0.1912 0.0
C243 C 0.44035 0.12762 0.20906 0.0
C244 C 0.39671 0.11603 0.1992 0.0
C245 C 0.38999 0.11797 0.22509 0.0
C246 C 0.40823 0.12659 0.24245 0.0
C247 C 0.43323 0.13109 0.23458 0.0
C248 C 0.36582 0.10714 0.23468 0.0
C249 C 0.36779 0.09006 0.25427 0.0
C250 C 0.34177 0.11107 0.22298 0.0
C251 C 0.33805 0.13005 0.20346 0.0
C252 C 0.34616 0.15374 0.20814 0.0
C253 C 0.34277 0.17155 0.18967 0.0
C254 C 0.33119 0.16593 0.16645 0.0
C255 C 0.32292 0.14249 0.16168 0.0
C256 C 0.32627 0.12461 0.18009 0.0
C257 C 0.28189 0.03548 0.2845 0.0
C258 C 0.2796 0.01742 0.26591 0.0
C259 C 0.29311 0.05753 0.27827 0.0
C260 C 0.30217 0.06165 0.25345 0.0
C261 C 0.29605 0.04522 0.23416 0.0
C262 C 0.28486 0.02322 0.24035 0.0
C263 C 0.32325 0.07891 0.24892 0.0
C264 C 0.32079 0.0967 0.23013 0.0
C265 C 0.34701 0.0758 0.2613 0.0
C266 C 0.35136 0.05644 0.28018 0.0
C267 C 0.35032 0.03218 0.27279 0.0
C268 C 0.35371 0.01399 0.29084 0.0
C269 C 0.35848 0.01988 0.31628 0.0
C270 C 0.35997 0.04397 0.32368 0.0
C271 C 0.35649 0.06222 0.3057 0.0
H272 H 0.36109 0.00578 0.33024 0.0
H273 H 0.32859 0.17974 0.15217 0.0
H274 H 0.29847 0.43871 0.7043 0.0
H275 H 0.32045 0.40396 0.72201 0.0
H276 H 0.29602 0.42437 0.79753 0.0
H277 H 0.27515 0.45993 0.77988 0.0
H278 H 0.34365 0.42197 0.79771 0.0
H279 H 0.28129 0.36723 0.76885 0.0
H280 H 0.25062 0.34824 0.73949 0.0
H281 H 0.31181 0.32929 0.68891 0.0
H282 H 0.34285 0.34846 0.71776 0.0
H283 H 0.43861 0.34162 0.83938 0.0
H284 H 0.39389 0.35281 0.83228 0.0
H285 H 0.40783 0.3568 0.75143 0.0
H286 H 0.45226 0.34556 0.75828 0.0
H287 H 0.35848 0.34044 0.76262 0.0
H288 H 0.41666 0.40566 0.78688 0.0
H289 H 0.44729 0.42514 0.81601 0.0
H290 H 0.39153 0.42381 0.87598 0.0
H291 H 0.36068 0.40403 0.84723 0.0
C292 C 0.29691 0.43526 0.72455 0.0
C293 C 0.28537 0.45215 0.74076 0.0
C294 C 0.30946 0.41525 0.73473 0.0
C295 C 0.31009 0.41146 0.76122 0.0
C296 C 0.29606 0.42696 0.77708 0.0
C297 C 0.28403 0.44724 0.76697 0.0
C298 C 0.32909 0.39457 0.77246 0.0
C299 C 0.34622 0.40383 0.79058 0.0
C300 C 0.33298 0.371 0.76298 0.0
C301 C 0.31442 0.3594 0.74548 0.0
C302 C 0.28821 0.35916 0.75139 0.0
C303 C 0.27075 0.34834 0.73484 0.0
C304 C 0.27926 0.33759 0.71234 0.0
C305 C 0.30525 0.33761 0.70636 0.0
C306 C 0.3228 0.34842 0.72284 0.0
C307 C 0.43197 0.34426 0.82005 0.0
C308 C 0.44911 0.34316 0.79944 0.0
C309 C 0.40642 0.35064 0.81602 0.0
C310 C 0.39764 0.35592 0.79135 0.0
C311 C 0.41418 0.3528 0.77062 0.0
C312 C 0.43967 0.34659 0.77461 0.0
C313 C 0.37287 0.36824 0.7872 0.0
C314 C 0.355 0.35822 0.77033 0.0
C315 C 0.36807 0.39111 0.79787 0.0
C316 C 0.38653 0.40312 0.81505 0.0
C317 C 0.41102 0.40939 0.80633 0.0
C318 C 0.4284 0.42049 0.82275 0.0
C319 C 0.42139 0.42564 0.84785 0.0
C320 C 0.39695 0.41975 0.85655 0.0
C321 C 0.37952 0.4086 0.84021 0.0
H322 H 0.43487 0.43424 0.86054 0.0
H323 H 0.26571 0.32922 0.69955 0.0
H324 H 0.0459 0.33582 0.25022 0.0
H325 H 0.08929 0.34551 0.264 0.0
H326 H 0.10762 0.36914 0.18787 0.0
H327 H 0.06459 0.35816 0.17373 0.0
H328 H 0.14967 0.3526 0.21036 0.0
H329 H 0.08226 0.4081 0.23301 0.0
H330 H 0.04138 0.41992 0.25272 0.0
H331 H 0.06913 0.39758 0.32596 0.0
H332 H 0.11008 0.38535 0.30659 0.0
H333 H 0.21574 0.46218 0.2269 0.0
H334 H 0.19244 0.42539 0.21753 0.0
H335 H 0.19121 0.40773 0.29751 0.0
H336 H 0.2144 0.44473 0.30711 0.0
H337 H 0.14431 0.41409 0.27855 0.0
H338 H 0.21684 0.36838 0.25451 0.0
H339 H 0.25752 0.3597 0.23276 0.0
H340 H 0.2208 0.36715 0.16008 0.0
H341 H 0.17996 0.37624 0.18135 0.0
C342 C 0.05947 0.3424 0.23629 0.0
C343 C 0.05187 0.34659 0.21102 0.0
C344 C 0.08422 0.34799 0.24417 0.0
C345 C 0.10148 0.35876 0.22716 0.0
C346 C 0.09461 0.36099 0.20139 0.0
C347 C 0.07 0.35477 0.19332 0.0
C348 C 0.12491 0.3708 0.23683 0.0
C349 C 0.14858 0.36606 0.22526 0.0
C350 C 0.1236 0.38807 0.25662 0.0
C351 C 0.09907 0.39554 0.26832 0.0
C352 C 0.07957 0.40558 0.25329 0.0
C353 C 0.0564 0.41236 0.2644 0.0
C354 C 0.05263 0.40943 0.29057 0.0
C355 C 0.07206 0.39978 0.30569 0.0
C356 C 0.09524 0.39292 0.29466 0.0
C357 C 0.21137 0.45006 0.24244 0.0
C358 C 0.21645 0.45667 0.26781 0.0
C359 C 0.19816 0.42887 0.23701 0.0
C360 C 0.18987 0.41387 0.25683 0.0
C361 C 0.19738 0.41909 0.28192 0.0
C362 C 0.21073 0.44025 0.28737 0.0
C363 C 0.16918 0.39622 0.2519 0.0
C364 C 0.14578 0.40011 0.26421 0.0
C365 C 0.17079 0.3786 0.23251 0.0
C366 C 0.19532 0.37312 0.21957 0.0
C367 C 0.21746 0.36836 0.23389 0.0
C368 C 0.24055 0.36332 0.22164 0.0
C369 C 0.24175 0.3629 0.19506 0.0
C370 C 0.21984 0.36747 0.18067 0.0
C371 C 0.1967 0.37252 0.19282 0.0
H372 H 0.25965 0.359 0.18561 0.0
H373 H 0.03468 0.41469 0.29914 0.0
H374 H 0.23035 0.02257 0.77127 0.0
H375 H 0.21056 0.05924 0.78763 0.0
H376 H 0.1802 0.07429 0.71293 0.0
H377 H 0.20122 0.03845 0.69626 0.0
H378 H 0.18272 0.11507 0.73962 0.0
H379 H 0.14957 0.0349 0.75312 0.0
H380 H 0.15181 0.99291 0.76803 0.0
H381 H 0.16508 0.01733 0.84449 0.0
H382 H 0.16328 0.05949 0.82992 0.0
H383 H 0.04971 0.13295 0.75459 0.0
H384 H 0.09423 0.12326 0.74556 0.0
H385 H 0.11156 0.12633 0.82579 0.0
H386 H 0.0669 0.13629 0.83501 0.0
H387 H 0.12194 0.08248 0.80339 0.0
H388 H 0.14132 0.1645 0.78723 0.0
H389 H 0.13513 0.20478 0.76873 0.0
H390 H 0.1428 0.17553 0.69345 0.0
H391 H 0.14866 0.13499 0.71145 0.0
C392 C 0.22065 0.03445 0.75809 0.0
C393 C 0.21696 0.02755 0.73262 0.0
C394 C 0.20919 0.05532 0.76747 0.0
C395 C 0.19304 0.06897 0.75173 0.0
C396 C 0.19233 0.06392 0.72552 0.0
C397 C 0.20442 0.04339 0.71597 0.0
C398 C 0.17305 0.08466 0.76307 0.0
C399 C 0.16949 0.10806 0.75366 0.0
C400 C 0.15581 0.07558 0.78154 0.0
C401 C 0.15663 0.05029 0.7904 0.0
C402 C 0.1531 0.03129 0.77309 0.0
C403 C 0.15429 0.00748 0.78147 0.0
C404 C 0.15866 0.00246 0.80718 0.0
C405 C 0.16177 0.02125 0.82457 0.0
C406 C 0.16068 0.0451 0.81627 0.0
C407 C 0.06311 0.13217 0.77028 0.0
C408 C 0.05473 0.13509 0.79555 0.0
C409 C 0.08863 0.12683 0.76506 0.0
C410 C 0.10624 0.12414 0.78499 0.0
C411 C 0.09829 0.12848 0.81013 0.0
C412 C 0.07278 0.13416 0.81536 0.0
C413 C 0.13134 0.11284 0.77977 0.0
C414 C 0.13568 0.08999 0.7901 0.0
C415 C 0.14873 0.12226 0.76169 0.0
C416 C 0.14532 0.14664 0.75073 0.0
C417 C 0.14151 0.1666 0.76672 0.0
C418 C 0.13809 0.1895 0.75632 0.0
C419 C 0.13855 0.19271 0.72993 0.0
C420 C 0.14247 0.17302 0.71389 0.0
C421 C 0.14589 0.15008 0.72419 0.0
H422 H 0.13589 0.21045 0.72192 0.0
H423 H 0.15958 0.98401 0.81364 0.0
H424 H 0.59487 0.79893 0.82391 0.0
H425 H 0.61989 0.83289 0.80756 0.0
H426 H 0.57314 0.8346 0.73997 0.0
H427 H 0.54806 0.80098 0.75609 0.0
H428 H 0.62595 0.8398 0.7299 0.0
H429 H 0.56013 0.87234 0.78561 0.0
H430 H 0.53732 0.87588 0.82655 0.0
H431 H 0.60698 0.89675 0.86359 0.0
H432 H 0.63026 0.89301 0.82289 0.0
H433 H 0.63462 0.95791 0.67954 0.0
H434 H 0.62577 0.91729 0.69505 0.0
H435 H 0.66375 0.93406 0.7659 0.0
H436 H 0.67109 0.97504 0.75093 0.0
H437 H 0.621 0.91707 0.77664 0.0
H438 H 0.68637 0.89023 0.72043 0.0
H439 H 0.71007 0.88636 0.68006 0.0
H440 H 0.64449 0.85428 0.64469 0.0
H441 H 0.62026 0.85824 0.68475 0.0
C442 C 0.59001 0.80649 0.80553 0.0
C443 C 0.56936 0.7974 0.7914 0.0
C444 C 0.60433 0.82582 0.79621 0.0
C445 C 0.59831 0.8362 0.77257 0.0
C446 C 0.57815 0.82675 0.75819 0.0
C447 C 0.56371 0.80765 0.76756 0.0
C448 C 0.61185 0.85784 0.76331 0.0
C449 C 0.62492 0.85677 0.74 0.0
C450 C 0.61101 0.87971 0.77691 0.0
C451 C 0.59698 0.88212 0.80131 0.0
C452 C 0.57061 0.87749 0.80253 0.0
C453 C 0.55759 0.87957 0.82568 0.0
C454 C 0.57071 0.88646 0.84768 0.0
C455 C 0.59685 0.89136 0.84655 0.0
C456 C 0.60997 0.88928 0.82345 0.0
C457 C 0.64166 0.95262 0.69812 0.0
C458 C 0.65345 0.96947 0.71411 0.0
C459 C 0.6367 0.92937 0.70699 0.0
C460 C 0.64415 0.92245 0.7317 0.0
C461 C 0.65762 0.93892 0.74688 0.0
C462 C 0.66194 0.96228 0.73829 0.0
C463 C 0.63523 0.89936 0.74289 0.0
C464 C 0.62275 0.90012 0.7666 0.0
C465 C 0.63692 0.87718 0.72973 0.0
C466 C 0.65144 0.87469 0.70558 0.0
C467 C 0.67694 0.8825 0.704 0.0
C468 C 0.69048 0.88026 0.68117 0.0
C469 C 0.67878 0.87012 0.65981 0.0
C470 C 0.65353 0.86214 0.66125 0.0
C471 C 0.63989 0.86434 0.68403 0.0
H472 H 0.68929 0.86841 0.64215 0.0
H473 H 0.5606 0.88806 0.86558 0.0
H474 H 0.55375 0.65347 0.18968 0.0
H475 H 0.57179 0.61617 0.20617 0.0
H476 H 0.61921 0.65642 0.25801 0.0
H477 H 0.60136 0.694 0.24149 0.0
H478 H 0.64424 0.61628 0.23673 0.0
H479 H 0.56671 0.63452 0.28069 0.0
H480 H 0.52143 0.64622 0.28415 0.0
H481 H 0.49935 0.58277 0.24319 0.0
H482 H 0.54456 0.57087 0.23913 0.0
H483 H 0.65982 0.50751 0.31387 0.0
H484 H 0.65139 0.54946 0.30159 0.0
H485 H 0.60248 0.52497 0.24086 0.0
H486 H 0.61084 0.48352 0.25255 0.0
H487 H 0.58025 0.56006 0.27297 0.0
H488 H 0.65786 0.54421 0.22556 0.0
H489 H 0.70317 0.53295 0.22102 0.0
H490 H 0.72499 0.59199 0.26896 0.0
H491 H 0.67972 0.60339 0.27409 0.0
C492 C 0.56829 0.65447 0.20431 0.0
C493 C 0.57589 0.6767 0.2145 0.0
C494 C 0.57854 0.63312 0.21375 0.0
C495 C 0.59648 0.63358 0.2336 0.0
C496 C 0.60528 0.65573 0.24278 0.0
C497 C 0.595 0.67716 0.23335 0.0
C498 C 0.60454 0.61084 0.24581 0.0
C499 C 0.63036 0.60414 0.24509 0.0
C500 C 0.58635 0.59506 0.25664 0.0
C501 C 0.55907 0.6019 0.25944 0.0
C502 C 0.55222 0.62313 0.27228 0.0
C503 C 0.52656 0.6298 0.27436 0.0
C504 C 0.50752 0.61528 0.26384 0.0
C505 C 0.51412 0.59401 0.25131 0.0
C506 C 0.53976 0.58728 0.24914 0.0
C507 C 0.6474 0.51112 0.29782 0.0
C508 C 0.636 0.49214 0.28423 0.0
C509 C 0.64266 0.53503 0.29082 0.0
C510 C 0.62626 0.5402 0.27038 0.0
C511 C 0.61511 0.52132 0.25674 0.0
C512 C 0.62004 0.49759 0.26345 0.0
C513 C 0.61983 0.56517 0.26323 0.0
C514 C 0.59422 0.57235 0.26501 0.0
C515 C 0.63822 0.58134 0.25349 0.0
C516 C 0.66539 0.57444 0.25052 0.0
C517 C 0.67229 0.55463 0.23538 0.0
C518 C 0.69797 0.54826 0.23263 0.0
C519 C 0.71694 0.56169 0.24478 0.0
C520 C 0.71027 0.58156 0.25963 0.0
C521 C 0.68461 0.58799 0.26245 0.0
H522 H 0.73681 0.55674 0.24261 0.0
H523 H 0.48767 0.62048 0.26543 0.0
H524 H 0.90038 0.66204 0.83622 0.0
H525 H 0.87558 0.62816 0.81951 0.0
H526 H 0.90649 0.64083 0.74456 0.0
H527 H 0.93127 0.67456 0.76099 0.0
H528 H 0.8544 0.62835 0.74376 0.0
H529 H 0.93442 0.60067 0.78016 0.0
H530 H 0.96619 0.5966 0.81458 0.0
H531 H 0.91003 0.56279 0.86221 0.0
H532 H 0.87784 0.56693 0.82813 0.0
H533 H 0.85449 0.51471 0.68141 0.0
H534 H 0.85978 0.55481 0.69976 0.0
H535 H 0.83718 0.52752 0.77337 0.0
H536 H 0.83306 0.48729 0.7553 0.0
H537 H 0.87981 0.5488 0.77797 0.0
H538 H 0.80115 0.57072 0.73856 0.0
H539 H 0.76975 0.57465 0.70382 0.0
H540 H 0.82201 0.61897 0.66184 0.0
H541 H 0.85388 0.61505 0.69617 0.0
C542 C 0.90162 0.6578 0.81612 0.0
C543 C 0.91801 0.67078 0.79999 0.0
C544 C 0.88744 0.63848 0.80661 0.0
C545 C 0.88936 0.63196 0.78084 0.0
C546 C 0.9047 0.64564 0.76448 0.0
C547 C 0.919 0.66478 0.77398 0.0
C548 C 0.87744 0.60961 0.77128 0.0
C549 C 0.85987 0.61089 0.75114 0.0
C550 C 0.88431 0.58696 0.78131 0.0
C551 C 0.90367 0.58436 0.80174 0.0
C552 C 0.9288 0.59254 0.79805 0.0
C553 C 0.94689 0.59019 0.81747 0.0
C554 C 0.94011 0.57952 0.8406 0.0
C555 C 0.91524 0.5711 0.84431 0.0
C556 C 0.89707 0.57343 0.82494 0.0
C557 C 0.84998 0.51747 0.70133 0.0
C558 C 0.84361 0.49794 0.71701 0.0
C559 C 0.85291 0.54042 0.71183 0.0
C560 C 0.84888 0.54426 0.73802 0.0
C561 C 0.84059 0.52501 0.75319 0.0
C562 C 0.83819 0.50205 0.74284 0.0
C563 C 0.85654 0.56726 0.75022 0.0
C564 C 0.87364 0.56615 0.77082 0.0
C565 C 0.84913 0.58999 0.74058 0.0
C566 C 0.82999 0.59244 0.71989 0.0
C567 C 0.80603 0.58116 0.72184 0.0
C568 C 0.78813 0.58341 0.70223 0.0
C569 C 0.7939 0.59701 0.68062 0.0
C570 C 0.81757 0.60844 0.67859 0.0
C571 C 0.83554 0.60623 0.69814 0.0
H572 H 0.78002 0.59873 0.66546 0.0
H573 H 0.95414 0.57771 0.85561 0.0
H574 H 0.83203 0.98175 0.24324 0.0
H575 H 0.83838 0.94056 0.22868 0.0
H576 H 0.86451 0.92055 0.30375 0.0
H577 H 0.85699 0.96167 0.31865 0.0
H578 H 0.88134 0.92086 0.22411 0.0
H579 H 0.86132 0.8604 0.31266 0.0
H580 H 0.83047 0.85795 0.34805 0.0
H581 H 0.77524 0.89677 0.30377 0.0
H582 H 0.80562 0.89917 0.26798 0.0
H583 H 0.95619 0.81773 0.21893 0.0
H584 H 0.93368 0.85383 0.23242 0.0
H585 H 0.86157 0.81712 0.22436 0.0
H586 H 0.88413 0.78047 0.21149 0.0
H587 H 0.86137 0.84346 0.26645 0.0
H588 H 0.88126 0.85771 0.17937 0.0
H589 H 0.90833 0.8596 0.14099 0.0
H590 H 0.95588 0.91261 0.17677 0.0
H591 H 0.92929 0.91081 0.21551 0.0
C592 C 0.8385 0.96838 0.25679 0.0
C593 C 0.84419 0.97485 0.28201 0.0
C594 C 0.84219 0.94487 0.24844 0.0
C595 C 0.85208 0.9274 0.26502 0.0
C596 C 0.8565 0.93355 0.29065 0.0
C597 C 0.85228 0.95707 0.29916 0.0
C598 C 0.86061 0.90385 0.2547 0.0
C599 C 0.87673 0.90396 0.23331 0.0
C600 C 0.85434 0.88166 0.26633 0.0
C601 C 0.83586 0.88013 0.28771 0.0
C602 C 0.84256 0.86832 0.31042 0.0
C603 C 0.82516 0.86696 0.33057 0.0
C604 C 0.80094 0.87726 0.32819 0.0
C605 C 0.79404 0.88888 0.30563 0.0
C606 C 0.81136 0.89028 0.28542 0.0
C607 C 0.93553 0.8173 0.21991 0.0
C608 C 0.92193 0.79627 0.21394 0.0
C609 C 0.92267 0.838 0.2276 0.0
C610 C 0.8959 0.83831 0.22903 0.0
C611 C 0.88223 0.81729 0.22334 0.0
C612 C 0.89514 0.79642 0.21588 0.0
C613 C 0.88244 0.86074 0.23634 0.0
C614 C 0.86557 0.8604 0.25714 0.0
C615 C 0.88738 0.88272 0.22375 0.0
C616 C 0.90336 0.884 0.20041 0.0
C617 C 0.89758 0.86967 0.17912 0.0
C618 C 0.91283 0.87074 0.15729 0.0
C619 C 0.93383 0.88619 0.15646 0.0
C620 C 0.9396 0.90065 0.17744 0.0
C621 C 0.92443 0.89963 0.19933 0.0
H622 H 0.94562 0.88698 0.13955 0.0
H623 H 0.7875 0.8762 0.34381 0.0
H624 H 0.55463 0.17148 0.26284 0.0
H625 H 0.57222 0.20783 0.28147 0.0
H626 H 0.55221 0.24755 0.21376 0.0
H627 H 0.53563 0.21073 0.19432 0.0
H628 H 0.59785 0.26009 0.2287 0.0
H629 H 0.51713 0.25168 0.27046 0.0
H630 H 0.48332 0.23105 0.29475 0.0
H631 H 0.53461 0.22179 0.3578 0.0
H632 H 0.56885 0.2421 0.33374 0.0
H633 H 0.60066 0.3768 0.28243 0.0
H634 H 0.5857 0.33867 0.26538 0.0
H635 H 0.62594 0.30073 0.32464 0.0
H636 H 0.64194 0.33906 0.3415 0.0
H637 H 0.57179 0.28692 0.31505 0.0
H638 H 0.65203 0.29795 0.27199 0.0
H639 H 0.68355 0.32119 0.2473 0.0
H640 H 0.63009 0.32792 0.18571 0.0
H641 H 0.59805 0.3051 0.21024 0.0
C642 C 0.55398 0.18789 0.25179 0.0
C643 C 0.54376 0.18812 0.227 0.0
C644 C 0.56387 0.20876 0.26262 0.0
C645 C 0.56319 0.23054 0.24921 0.0
C646 C 0.55292 0.23094 0.22449 0.0
C647 C 0.54332 0.20991 0.21345 0.0
C648 C 0.57354 0.25278 0.26094 0.0
C649 C 0.59189 0.26607 0.24745 0.0
C650 C 0.56619 0.26038 0.28566 0.0
C651 C 0.54562 0.24821 0.3002 0.0
C652 C 0.52125 0.24509 0.28943 0.0
C653 C 0.502 0.23348 0.30317 0.0
C654 C 0.50683 0.22506 0.32778 0.0
C655 C 0.53091 0.2283 0.33872 0.0
C656 C 0.55024 0.23987 0.32506 0.0
C657 C 0.60674 0.36042 0.2917 0.0
C658 C 0.62297 0.36098 0.31303 0.0
C659 C 0.59799 0.33864 0.28198 0.0
C660 C 0.60496 0.31698 0.29362 0.0
C661 C 0.6205 0.31735 0.31538 0.0
C662 C 0.62962 0.33922 0.32493 0.0
C663 C 0.59588 0.29405 0.28276 0.0
C664 C 0.57778 0.28073 0.29638 0.0
C665 C 0.60315 0.28663 0.25805 0.0
C666 C 0.62255 0.29999 0.24306 0.0
C667 C 0.64691 0.30455 0.25326 0.0
C668 C 0.66489 0.31763 0.23929 0.0
C669 C 0.65881 0.32607 0.21497 0.0
C670 C 0.63476 0.32139 0.20456 0.0
C671 C 0.61669 0.30837 0.21848 0.0
H672 H 0.67275 0.33621 0.20419 0.0
H673 H 0.4919 0.21608 0.33838 0.0
H674 H 0.18845 0.54096 0.693 0.0
H675 H 0.14761 0.56069 0.70257 0.0
H676 H 0.17186 0.57143 0.78029 0.0
H677 H 0.21181 0.55124 0.77125 0.0
H678 H 0.12362 0.56208 0.78043 0.0
H679 H 0.17904 0.61524 0.73159 0.0
H680 H 0.20425 0.6269 0.69386 0.0
H681 H 0.13727 0.62161 0.64701 0.0
H682 H 0.11173 0.60965 0.68446 0.0
H683 H 0.08226 0.67651 0.82227 0.0
H684 H 0.10635 0.64235 0.80546 0.0
H685 H 0.04973 0.63227 0.74684 0.0
H686 H 0.02504 0.66616 0.764 0.0
H687 H 0.10521 0.63605 0.73099 0.0
H688 H 0.04877 0.5917 0.7848 0.0
H689 H 0.02557 0.5829 0.82458 0.0
H690 H 0.09671 0.57411 0.86417 0.0
H691 H 0.12036 0.58324 0.82471 0.0
C692 C 0.18482 0.54711 0.71223 0.0
C693 C 0.20361 0.54478 0.73123 0.0
C694 C 0.16153 0.55852 0.71765 0.0
C695 C 0.15679 0.56798 0.74207 0.0
C696 C 0.17496 0.56438 0.7613 0.0
C697 C 0.19799 0.5529 0.756 0.0
C698 C 0.13408 0.58322 0.74763 0.0
C699 C 0.11955 0.57819 0.76952 0.0
C700 C 0.12828 0.60403 0.73317 0.0
C701 C 0.14358 0.61126 0.71071 0.0
C702 C 0.16975 0.61641 0.7132 0.0
C703 C 0.18408 0.62309 0.69188 0.0
C704 C 0.17239 0.62491 0.66803 0.0
C705 C 0.14631 0.62013 0.66548 0.0
C706 C 0.1319 0.6134 0.68673 0.0
C707 C 0.07478 0.66689 0.80596 0.0
C708 C 0.05175 0.674 0.79447 0.0
C709 C 0.08853 0.64736 0.79642 0.0
C710 C 0.07976 0.63482 0.77496 0.0
C711 C 0.05673 0.64172 0.76347 0.0
C712 C 0.04263 0.66098 0.77336 0.0
C713 C 0.09555 0.61523 0.76415 0.0
C714 C 0.10878 0.61954 0.74139 0.0
C715 C 0.10046 0.59399 0.77803 0.0
C716 C 0.08634 0.58831 0.8018 0.0
C717 C 0.05948 0.58808 0.80203 0.0
C718 C 0.04624 0.583 0.82452 0.0
C719 C 0.05966 0.57798 0.8469 0.0
C720 C 0.08634 0.57799 0.84682 0.0
C721 C 0.09967 0.58309 0.82439 0.0
H722 H 0.04938 0.57405 0.86429 0.0
H723 H 0.18352 0.63009 0.65155 0.0
H724 H 0.89112 0.08801 0.2738 0.0
H725 H 0.90778 0.12487 0.25514 0.0
H726 H 0.87261 0.16618 0.3152 0.0
H727 H 0.85496 0.12929 0.33349 0.0
H728 H 0.86536 0.18753 0.27096 0.0
H729 H 0.93749 0.15415 0.31441 0.0
H730 H 0.96895 0.12301 0.32588 0.0
H731 H 0.9946 0.11992 0.24827 0.0
H732 H 0.96303 0.15083 0.23626 0.0
H733 H 0.93532 0.29485 0.25854 0.0
H734 H 0.91932 0.2565 0.27399 0.0
H735 H 0.9463 0.22164 0.20576 0.0
H736 H 0.9625 0.26023 0.18989 0.0
H737 H 0.95769 0.19663 0.25191 0.0
H738 H 0.88567 0.23231 0.20973 0.0
H739 H 0.85522 0.2649 0.20028 0.0
H740 H 0.83025 0.26493 0.27818 0.0
H741 H 0.86084 0.23256 0.2882 0.0
C742 C 0.88668 0.10491 0.28295 0.0
C743 C 0.87151 0.1057 0.30504 0.0
C744 C 0.89647 0.12599 0.27238 0.0
C745 C 0.89171 0.14829 0.28392 0.0
C746 C 0.87653 0.14917 0.30596 0.0
C747 C 0.86654 0.12807 0.31645 0.0
C748 C 0.90237 0.17069 0.27284 0.0
C749 C 0.88559 0.1896 0.26709 0.0
C750 C 0.92871 0.17322 0.26723 0.0
C751 C 0.94771 0.15462 0.27439 0.0
C752 C 0.94969 0.14668 0.29975 0.0
C753 C 0.96757 0.1291 0.30636 0.0
C754 C 0.98371 0.11944 0.2878 0.0
C755 C 0.98205 0.12739 0.26261 0.0
C756 C 0.96419 0.14496 0.2559 0.0
C757 C 0.93803 0.27908 0.24675 0.0
C758 C 0.95017 0.28067 0.22288 0.0
C759 C 0.92875 0.25717 0.25562 0.0
C760 C 0.93139 0.23634 0.24089 0.0
C761 C 0.94402 0.2376 0.21734 0.0
C762 C 0.95319 0.25965 0.2083 0.0
C763 C 0.92069 0.21337 0.25024 0.0
C764 C 0.93745 0.19441 0.25566 0.0
C765 C 0.89439 0.21088 0.25581 0.0
C766 C 0.87571 0.23013 0.24976 0.0
C767 C 0.87382 0.23937 0.22489 0.0
C768 C 0.85651 0.2578 0.21942 0.0
C769 C 0.84085 0.26702 0.23863 0.0
C770 C 0.84241 0.25778 0.26333 0.0
C771 C 0.85971 0.23937 0.2689 0.0
H772 H 0.82748 0.2813 0.23436 0.0
H773 H 0.99755 0.10583 0.29296 0.0
H774 H 0.30231 0.93173 0.69861 0.0
H775 H 0.34037 0.90807 0.70944 0.0
H776 H 0.3032 0.88319 0.77791 0.0
H777 H 0.26602 0.90726 0.76791 0.0
H778 H 0.34965 0.89133 0.78874 0.0
H779 H 0.30697 0.84949 0.71984 0.0
H780 H 0.28939 0.84528 0.67647 0.0
H781 H 0.36333 0.85977 0.64461 0.0
H782 H 0.38128 0.86434 0.68782 0.0
H783 H 0.39959 0.77495 0.81253 0.0
H784 H 0.37269 0.80857 0.79909 0.0
H785 H 0.43341 0.83498 0.75125 0.0
H786 H 0.46075 0.80161 0.76495 0.0
H787 H 0.38203 0.8306 0.72757 0.0
H788 H 0.42474 0.86564 0.79946 0.0
H789 H 0.44018 0.86672 0.84381 0.0
H790 H 0.36307 0.86176 0.87112 0.0
H791 H 0.34718 0.86028 0.82692 0.0
C792 C 0.30241 0.9214 0.71608 0.0
C793 C 0.28103 0.92141 0.73231 0.0
C794 C 0.32412 0.90776 0.7222 0.0
C795 C 0.3246 0.89353 0.74437 0.0
C796 C 0.30347 0.89403 0.76077 0.0
C797 C 0.28207 0.90784 0.75492 0.0
C798 C 0.34647 0.8774 0.75053 0.0
C799 C 0.35663 0.87804 0.77531 0.0
C800 C 0.35613 0.86032 0.73295 0.0
C801 C 0.34538 0.85756 0.70701 0.0
C802 C 0.31943 0.85194 0.70357 0.0
C803 C 0.3094 0.84947 0.67903 0.0
C804 C 0.32521 0.85234 0.6578 0.0
C805 C 0.35109 0.85761 0.66107 0.0
C806 C 0.3612 0.86014 0.68558 0.0
C807 C 0.40733 0.78799 0.79929 0.0
C808 C 0.43237 0.78566 0.78991 0.0
C809 C 0.39194 0.80718 0.79165 0.0
C810 C 0.40113 0.82425 0.77425 0.0
C811 C 0.42603 0.82198 0.76473 0.0
C812 C 0.44163 0.80299 0.77269 0.0
C813 C 0.38438 0.84419 0.76586 0.0
C814 C 0.37529 0.84423 0.74074 0.0
C815 C 0.37532 0.86159 0.78324 0.0
C816 C 0.38479 0.86268 0.80986 0.0
C817 C 0.41108 0.86459 0.81492 0.0
C818 C 0.41992 0.86531 0.84003 0.0
C819 C 0.40262 0.86426 0.86027 0.0
C820 C 0.37645 0.86256 0.85543 0.0
C821 C 0.36752 0.86181 0.83034 0.0
H822 H 0.4095 0.86482 0.8797 0.0
H823 H 0.31742 0.85041 0.63882 0.0
H824 H 0.52527 0.275 0.74604 0.0
H825 H 0.53965 0.23645 0.72897 0.0
H826 H 0.58507 0.22497 0.79659 0.0
H827 H 0.56919 0.26272 0.81436 0.0
H828 H 0.58213 0.2229 0.71437 0.0
H829 H 0.59842 0.16728 0.80666 0.0
H830 H 0.57939 0.16277 0.84939 0.0
H831 H 0.50726 0.18769 0.82085 0.0
H832 H 0.52577 0.19208 0.77791 0.0
H833 H 0.65969 0.12398 0.68165 0.0
H834 H 0.64174 0.15996 0.70165 0.0
H835 H 0.57688 0.11855 0.72731 0.0
H836 H 0.59574 0.08238 0.70893 0.0
H837 H 0.58778 0.14644 0.76249 0.0
H838 H 0.57612 0.15899 0.6731 0.0
H839 H 0.58883 0.16214 0.62798 0.0
H840 H 0.63948 0.22029 0.6463 0.0
H841 H 0.62729 0.2173 0.69159 0.0
C842 C 0.53791 0.26394 0.75742 0.0
C843 C 0.54598 0.27164 0.78156 0.0
C844 C 0.54626 0.24199 0.74762 0.0
C845 C 0.56337 0.22758 0.76149 0.0
C846 C 0.57136 0.23531 0.78573 0.0
C847 C 0.56237 0.25694 0.79587 0.0
C848 C 0.5738 0.20519 0.74996 0.0
C849 C 0.5832 0.20617 0.72491 0.0
C850 C 0.57499 0.18317 0.76344 0.0
C851 C 0.56357 0.18023 0.78913 0.0
C852 C 0.57847 0.1717 0.80949 0.0
C853 C 0.56778 0.16919 0.83375 0.0
C854 C 0.54215 0.17502 0.83785 0.0
C855 C 0.52713 0.18327 0.81767 0.0
C856 C 0.53772 0.1858 0.79337 0.0
C857 C 0.64161 0.12267 0.69157 0.0
C858 C 0.62899 0.10052 0.69366 0.0
C859 C 0.63126 0.14324 0.70289 0.0
C860 C 0.60763 0.14218 0.71562 0.0
C861 C 0.59513 0.11994 0.71769 0.0
C862 C 0.60584 0.09928 0.70707 0.0
C863 C 0.59586 0.16413 0.72683 0.0
C864 C 0.58647 0.16313 0.7519 0.0
C865 C 0.59363 0.18587 0.71298 0.0
C866 C 0.60096 0.18777 0.68576 0.0
C867 C 0.59008 0.17235 0.66752 0.0
C868 C 0.59718 0.17412 0.64192 0.0
C869 C 0.615 0.19136 0.63429 0.0
C870 C 0.62571 0.20692 0.65224 0.0
C871 C 0.61869 0.20521 0.67788 0.0
H872 H 0.62048 0.1927 0.61446 0.0
H873 H 0.53393 0.1731 0.85666 0.0
H874 H 0.47468 0.6627 0.20498 0.0
H875 H 0.44788 0.62923 0.21916 0.0
H876 H 0.38091 0.67378 0.21127 0.0
H877 H 0.40729 0.7068 0.19622 0.0
H878 H 0.4181 0.62208 0.25829 0.0
H879 H 0.3301 0.6428 0.19418 0.0
H880 H 0.32108 0.65934 0.15153 0.0
H881 H 0.39597 0.63878 0.12634 0.0
H882 H 0.40532 0.62183 0.16872 0.0
H883 H 0.30241 0.57134 0.30587 0.0
H884 H 0.33991 0.59398 0.29176 0.0
H885 H 0.33893 0.55567 0.22024 0.0
H886 H 0.30076 0.53402 0.23387 0.0
H887 H 0.34033 0.5994 0.21009 0.0
H888 H 0.38927 0.55096 0.2661 0.0
H889 H 0.40121 0.53082 0.30619 0.0
H890 H 0.40948 0.5993 0.34293 0.0
H891 H 0.39723 0.61987 0.30316 0.0
C892 C 0.45421 0.6653 0.20601 0.0
C893 C 0.44316 0.68749 0.19924 0.0
C894 C 0.43892 0.64616 0.21428 0.0
C895 C 0.41229 0.64881 0.21599 0.0
C896 C 0.40132 0.67104 0.20959 0.0
C897 C 0.4165 0.69003 0.20106 0.0
C898 C 0.3958 0.62852 0.22449 0.0
C899 C 0.40115 0.61701 0.24772 0.0
C900 C 0.37406 0.62135 0.21039 0.0
C901 C 0.36846 0.63121 0.18471 0.0
C902 C 0.34459 0.64169 0.1795 0.0
C903 C 0.33943 0.65117 0.15538 0.0
C904 C 0.35796 0.65016 0.13626 0.0
C905 C 0.38166 0.63961 0.14119 0.0
C906 C 0.38691 0.63009 0.16527 0.0
C907 C 0.31073 0.56726 0.28748 0.0
C908 C 0.29868 0.551 0.27092 0.0
C909 C 0.33221 0.58021 0.27938 0.0
C910 C 0.34236 0.57666 0.25482 0.0
C911 C 0.3314 0.55899 0.23914 0.0
C912 C 0.30967 0.54649 0.247 0.0
C913 C 0.36219 0.59318 0.24429 0.0
C914 C 0.35741 0.60414 0.22064 0.0
C915 C 0.3848 0.59923 0.25767 0.0
C916 C 0.39212 0.58695 0.28168 0.0
C917 C 0.39343 0.56173 0.28278 0.0
C918 C 0.4003 0.55023 0.30544 0.0
C919 C 0.40605 0.56377 0.32711 0.0
C920 C 0.405 0.58884 0.32614 0.0
C921 C 0.39813 0.60043 0.30353 0.0
H922 H 0.41136 0.55483 0.34463 0.0
H923 H 0.35394 0.65753 0.1176 0.0
H924 H 0.85912 0.34828 0.65993 0.0
H925 H 0.87605 0.31161 0.67951 0.0
H926 H 0.92297 0.35435 0.72957 0.0
H927 H 0.90625 0.39099 0.71009 0.0
H928 H 0.94888 0.31533 0.71086 0.0
H929 H 0.87089 0.33216 0.75306 0.0
H930 H 0.82527 0.34252 0.75623 0.0
H931 H 0.80532 0.27662 0.71867 0.0
H932 H 0.85096 0.26597 0.715 0.0
H933 H 0.97153 0.22225 0.80344 0.0
H934 H 0.95701 0.26006 0.7842 0.0
H935 H 0.91625 0.22032 0.72663 0.0
H936 H 0.93088 0.1826 0.74536 0.0
H937 H 0.88759 0.25867 0.75082 0.0
H938 H 0.96905 0.2433 0.70976 0.0
H939 H 0.01533 0.23513 0.70952 0.0
H940 H 0.02909 0.3011 0.74965 0.0
H941 H 0.98281 0.30948 0.75045 0.0
C942 C 0.87323 0.34983 0.67492 0.0
C943 C 0.88119 0.37248 0.68366 0.0
C944 C 0.8828 0.32891 0.68615 0.0
C945 C 0.90055 0.33032 0.70615 0.0
C946 C 0.90925 0.35289 0.7142 0.0
C947 C 0.89956 0.37378 0.70315 0.0
C948 C 0.90933 0.3083 0.71933 0.0
C949 C 0.93553 0.30306 0.71983 0.0
C950 C 0.89187 0.29238 0.73106 0.0
C951 C 0.86436 0.2984 0.7335 0.0
C952 C 0.85679 0.31995 0.7453 0.0
C953 C 0.83094 0.32587 0.74721 0.0
C954 C 0.81241 0.3103 0.73756 0.0
C955 C 0.81971 0.28869 0.72609 0.0
C956 C 0.84558 0.28268 0.72412 0.0
C957 C 0.95949 0.22159 0.78669 0.0
C958 C 0.95249 0.19945 0.77584 0.0
C959 C 0.95124 0.24316 0.77573 0.0
C960 C 0.93561 0.24289 0.75401 0.0
C961 C 0.92828 0.22085 0.74341 0.0
C962 C 0.93681 0.19934 0.75406 0.0
C963 C 0.9271 0.26554 0.74199 0.0
C964 C 0.90092 0.27093 0.74181 0.0
C965 C 0.94464 0.28184 0.73102 0.0
C966 C 0.97246 0.27688 0.73041 0.0
C967 C 0.98192 0.25595 0.71873 0.0
C968 C 0.00816 0.25131 0.71846 0.0
C969 C 0.02513 0.26755 0.72963 0.0
C970 C 0.01591 0.28851 0.74104 0.0
C971 C 0.98969 0.29323 0.74139 0.0
H972 H 0.04544 0.26393 0.72939 0.0
H973 H 0.79243 0.315 0.73904 0.0
H974 H 0.09262 0.77092 0.17866 0.0
H975 H 0.12296 0.80043 0.1949 0.0
H976 H 0.06493 0.82938 0.2445 0.0
H977 H 0.03427 0.79995 0.22809 0.0
H978 H 0.09296 0.86495 0.22507 0.0
H979 H 0.11139 0.79294 0.27015 0.0
H980 H 0.12071 0.75008 0.27749 0.0
H981 H 0.18735 0.75525 0.23014 0.0
H982 H 0.17854 0.79826 0.22272 0.0
H983 H 0.19568 0.92177 0.29972 0.0
H984 H 0.15816 0.89743 0.28819 0.0
H985 H 0.19818 0.87048 0.22239 0.0
H986 H 0.2352 0.8947 0.23328 0.0
H987 H 0.17638 0.83455 0.25623 0.0
H988 H 0.15507 0.90866 0.21177 0.0
H989 H 0.14576 0.95205 0.2097 0.0
H990 H 0.08283 0.94268 0.2612 0.0
H991 H 0.09202 0.89925 0.26385 0.0
C992 C 0.08623 0.78365 0.19291 0.0
C993 C 0.06111 0.78287 0.2023 0.0
C994 C 0.10364 0.80045 0.20229 0.0
C995 C 0.09641 0.81678 0.22138 0.0
C996 C 0.071 0.81685 0.22992 0.0
C997 C 0.05349 0.80004 0.22047 0.0
C998 C 0.11564 0.83338 0.23255 0.0
C999 C 0.11103 0.85827 0.23228 0.0
C1000 C 0.13922 0.82476 0.24207 0.0
C1001 C 0.14421 0.79876 0.24576 0.0
C1002 C 0.12793 0.78489 0.26116 0.0
C1003 C 0.1332 0.76061 0.26544 0.0
C1004 C 0.15461 0.74994 0.25428 0.0
C1005 C 0.1708 0.76355 0.23881 0.0
C1006 C 0.16574 0.7879 0.23466 0.0
C1007 C 0.19636 0.91083 0.28268 0.0
C1008 C 0.2185 0.91021 0.26748 0.0
C1009 C 0.17492 0.897 0.27611 0.0
C1010 C 0.1755 0.88217 0.25446 0.0
C1011 C 0.19739 0.88179 0.23918 0.0
C1012 C 0.21854 0.89576 0.24546 0.0
C1013 C 0.15397 0.86601 0.24802 0.0
C1014 C 0.15818 0.84117 0.24926 0.0
C1015 C 0.12995 0.87471 0.2399 0.0
C1016 C 0.12445 0.90078 0.23827 0.0
C1017 C 0.13943 0.91589 0.22287 0.0
C1018 C 0.13413 0.94048 0.22154 0.0
C1019 C 0.11377 0.95013 0.23538 0.0
C1020 C 0.09863 0.93519 0.25053 0.0
C1021 C 0.10386 0.91059 0.25194 0.0
H1022 H 0.10969 0.96917 0.23432 0.0
H1023 H 0.15863 0.73112 0.25758 0.0
H1024 H 0.30053 0.59199 0.65733 0.0
H1025 H 0.32794 0.62717 0.66366 0.0
H1026 H 0.34067 0.6059 0.74162 0.0
H1027 H 0.31364 0.57083 0.73547 0.0
H1028 H 0.336 0.65579 0.73572 0.0
H1029 H 0.38082 0.58737 0.69689 0.0
H1030 H 0.38737 0.55752 0.66276 0.0
H1031 H 0.39529 0.6143 0.60794 0.0
H1032 H 0.38846 0.64447 0.64175 0.0
H1033 H 0.45456 0.67411 0.78591 0.0
H1034 H 0.41805 0.65583 0.76483 0.0
H1035 H 0.43068 0.70021 0.69869 0.0
H1036 H 0.46742 0.71909 0.72 0.0
H1037 H 0.4182 0.64934 0.68903 0.0
H1038 H 0.38542 0.71762 0.73141 0.0
H1039 H 0.38174 0.74642 0.76688 0.0
H1040 H 0.35178 0.69082 0.81505 0.0
H1041 H 0.35577 0.66154 0.78002 0.0
C1042 C 0.30872 0.59511 0.67599 0.0
C1043 C 0.30511 0.57848 0.69586 0.0
C1044 C 0.32437 0.61519 0.67953 0.0
C1045 C 0.33645 0.61897 0.70303 0.0
C1046 C 0.33144 0.60332 0.72335 0.0
C1047 C 0.31604 0.58318 0.71977 0.0
C1048 C 0.35657 0.63738 0.70605 0.0
C1049 C 0.35387 0.65461 0.72535 0.0
C1050 C 0.37961 0.63623 0.69197 0.0
C1051 C 0.3838 0.61812 0.67173 0.0
C1052 C 0.38376 0.59346 0.67752 0.0
C1053 C 0.38755 0.57649 0.65825 0.0
C1054 C 0.39165 0.584 0.63318 0.0
C1055 C 0.39204 0.6085 0.62735 0.0
C1056 C 0.38821 0.62554 0.64655 0.0
C1057 C 0.4497 0.68 0.76686 0.0
C1058 C 0.46355 0.69833 0.75477 0.0
C1059 C 0.42885 0.66951 0.75484 0.0
C1060 C 0.42146 0.67707 0.73048 0.0
C1061 C 0.43607 0.69436 0.71762 0.0
C1062 C 0.45702 0.70503 0.72976 0.0
C1063 C 0.39791 0.66705 0.71933 0.0
C1064 C 0.39998 0.65131 0.69864 0.0
C1065 C 0.37425 0.66966 0.73205 0.0
C1066 C 0.37097 0.68734 0.75305 0.0
C1067 C 0.37815 0.71149 0.74959 0.0
C1068 C 0.37602 0.72791 0.76964 0.0
C1069 C 0.36655 0.72045 0.79321 0.0
C1070 C 0.3591 0.69657 0.79676 0.0
C1071 C 0.36125 0.68006 0.7768 0.0
H1072 H 0.36497 0.73318 0.80872 0.0
H1073 H 0.39459 0.57084 0.61829 0.0
H1074 H 0.8884 0.34692 0.15748 0.0
H1075 H 0.84733 0.35756 0.17648 0.0
H1076 H 0.88614 0.39551 0.23671 0.0
H1077 H 0.92733 0.38528 0.21764 0.0
H1078 H 0.8481 0.36443 0.25437 0.0
H1079 H 0.85761 0.42701 0.19215 0.0
H1080 H 0.86549 0.44361 0.14932 0.0
H1081 H 0.80024 0.40569 0.1204 0.0
H1082 H 0.79219 0.38858 0.16301 0.0
H1083 H 0.73559 0.4185 0.3055 0.0
H1084 H 0.77819 0.4113 0.28793 0.0
H1085 H 0.74448 0.37994 0.22072 0.0
H1086 H 0.70198 0.38749 0.23781 0.0
H1087 H 0.78119 0.40949 0.20753 0.0
H1088 H 0.77244 0.34518 0.26782 0.0
H1089 H 0.7644 0.32686 0.30982 0.0
H1090 H 0.82758 0.36592 0.34148 0.0
H1091 H 0.83581 0.38471 0.2997 0.0
C1092 C 0.88825 0.35768 0.17467 0.0
C1093 C 0.9112 0.36506 0.18616 0.0
C1094 C 0.86474 0.36375 0.18548 0.0
C1095 C 0.86372 0.37734 0.20797 0.0
C1096 C 0.88655 0.3849 0.21941 0.0
C1097 C 0.91008 0.37899 0.20849 0.0
C1098 C 0.83879 0.38325 0.21976 0.0
C1099 C 0.83358 0.37463 0.24433 0.0
C1100 C 0.81969 0.39601 0.20635 0.0
C1101 C 0.82444 0.40634 0.18073 0.0
C1102 C 0.84507 0.42205 0.17662 0.0
C1103 C 0.84954 0.43158 0.15239 0.0
C1104 C 0.83341 0.42566 0.13214 0.0
C1105 C 0.81274 0.41024 0.1361 0.0
C1106 C 0.80819 0.40064 0.16029 0.0
C1107 C 0.73724 0.40999 0.28702 0.0
C1108 C 0.71533 0.40362 0.27307 0.0
C1109 C 0.76162 0.40582 0.27703 0.0
C1110 C 0.76456 0.3949 0.25306 0.0
C1111 C 0.74271 0.38846 0.23919 0.0
C1112 C 0.71839 0.39276 0.24905 0.0
C1113 C 0.7903 0.39049 0.24213 0.0
C1114 C 0.7957 0.39941 0.21769 0.0
C1115 C 0.80948 0.3778 0.25557 0.0
C1116 C 0.80455 0.36656 0.28071 0.0
C1117 C 0.78449 0.35002 0.28379 0.0
C1118 C 0.77992 0.33952 0.30754 0.0
C1119 C 0.79542 0.34528 0.32833 0.0
C1120 C 0.81556 0.36151 0.32538 0.0
C1121 C 0.8202 0.37208 0.30166 0.0
H1122 H 0.79186 0.33712 0.3467 0.0
H1123 H 0.8369 0.43306 0.1134 0.0
H1124 H 0.02064 0.7572 0.73092 0.0
H1125 H 0.05184 0.78386 0.71025 0.0
H1126 H 0.06919 0.81597 0.78301 0.0
H1127 H 0.0383 0.78975 0.8036 0.0
H1128 H 0.06027 0.84934 0.74503 0.0
H1129 H 0.10846 0.77558 0.75817 0.0
H1130 H 0.11656 0.73227 0.75239 0.0
H1131 H 0.11996 0.74207 0.67133 0.0
H1132 H 0.11149 0.78541 0.67663 0.0
H1133 H 0.17269 0.91312 0.73852 0.0
H1134 H 0.14192 0.88192 0.74882 0.0
H1135 H 0.14351 0.85723 0.67094 0.0
H1136 H 0.17521 0.88813 0.66062 0.0
H1137 H 0.13956 0.81985 0.7037 0.0
H1138 H 0.09593 0.89411 0.69047 0.0
H1139 H 0.08786 0.93746 0.69587 0.0
H1140 H 0.07476 0.92687 0.77582 0.0
H1141 H 0.0831 0.88349 0.77097 0.0
C1142 C 0.03112 0.76999 0.74243 0.0
C1143 C 0.02714 0.77134 0.76888 0.0
C1144 C 0.04896 0.78509 0.73064 0.0
C1145 C 0.06282 0.80177 0.74518 0.0
C1146 C 0.05865 0.80321 0.77149 0.0
C1147 C 0.04108 0.78811 0.78323 0.0
C1148 C 0.08158 0.81814 0.73337 0.0
C1149 C 0.07764 0.84292 0.73604 0.0
C1150 C 0.10378 0.80968 0.72091 0.0
C1151 C 0.10902 0.78367 0.71777 0.0
C1152 C 0.1107 0.76846 0.7391 0.0
C1153 C 0.1154 0.74391 0.73591 0.0
C1154 C 0.11869 0.7344 0.7115 0.0
C1155 C 0.11736 0.74944 0.69022 0.0
C1156 C 0.11261 0.774 0.69331 0.0
C1157 C 0.16683 0.90094 0.72362 0.0
C1158 C 0.17619 0.9033 0.6987 0.0
C1159 C 0.14912 0.88313 0.72951 0.0
C1160 C 0.13993 0.86769 0.71048 0.0
C1161 C 0.15022 0.86911 0.68586 0.0
C1162 C 0.1683 0.88677 0.68001 0.0
C1163 C 0.11866 0.85105 0.71626 0.0
C1164 C 0.12202 0.8263 0.71231 0.0
C1165 C 0.09575 0.85951 0.72743 0.0
C1166 C 0.09027 0.88555 0.73036 0.0
C1167 C 0.09144 0.90104 0.70922 0.0
C1168 C 0.08682 0.92562 0.71218 0.0
C1169 C 0.08084 0.93492 0.73617 0.0
C1170 C 0.07939 0.91964 0.75724 0.0
C1171 C 0.08403 0.89505 0.75439 0.0
H1172 H 0.0773 0.95396 0.73843 0.0
H1173 H 0.12233 0.7154 0.70907 0.0
H1174 H 0.56335 0.0793 0.20839 0.0
H1175 H 0.60316 0.06872 0.23026 0.0
H1176 H 0.64288 0.12399 0.1885 0.0
H1177 H 0.6033 0.13457 0.16648 0.0
H1178 H 0.65068 0.05387 0.21003 0.0
H1179 H 0.68298 0.1511 0.23011 0.0
H1180 H 0.6638 0.1908 0.23876 0.0
H1181 H 0.59773 0.15668 0.27094 0.0
H1182 H 0.61641 0.11686 0.26233 0.0
H1183 H 0.78302 0.06307 0.23265 0.0
H1184 H 0.73957 0.07064 0.21809 0.0
H1185 H 0.71446 0.07822 0.29589 0.0
H1186 H 0.7581 0.07043 0.31082 0.0
H1187 H 0.69622 0.11479 0.2621 0.0
H1188 H 0.69974 0.02901 0.26831 0.0
H1189 H 0.7182 0.98882 0.26107 0.0
H1190 H 0.71087 0.99834 0.18024 0.0
H1191 H 0.69273 0.03876 0.18698 0.0
C1192 C 0.58059 0.08912 0.20381 0.0
C1193 C 0.5802 0.10779 0.18577 0.0
C1194 C 0.60329 0.08303 0.21627 0.0
C1195 C 0.62583 0.09576 0.21117 0.0
C1196 C 0.62559 0.11413 0.19288 0.0
C1197 C 0.603 0.12004 0.1802 0.0
C1198 C 0.64971 0.08991 0.2249 0.0
C1199 C 0.6606 0.06713 0.2215 0.0
C1200 C 0.66238 0.10712 0.24017 0.0
C1201 C 0.65102 0.13103 0.2454 0.0
C1202 C 0.66436 0.1521 0.23903 0.0
C1203 C 0.65352 0.17463 0.24384 0.0
C1204 C 0.62946 0.17628 0.25522 0.0
C1205 C 0.61621 0.15541 0.26185 0.0
C1206 C 0.62688 0.13286 0.25695 0.0
C1207 C 0.76835 0.06641 0.24675 0.0
C1208 C 0.77406 0.06611 0.27294 0.0
C1209 C 0.74349 0.07064 0.23836 0.0
C1210 C 0.72384 0.07481 0.25592 0.0
C1211 C 0.72943 0.07498 0.28206 0.0
C1212 C 0.75432 0.07045 0.29054 0.0
C1213 C 0.69749 0.07893 0.24671 0.0
C1214 C 0.68619 0.10144 0.25084 0.0
C1215 C 0.68434 0.06138 0.23229 0.0
C1216 C 0.69505 0.03699 0.22815 0.0
C1217 C 0.70224 0.02261 0.24898 0.0
C1218 C 0.71262 -0.00022 0.24497 0.0
C1219 C 0.71575 0.99105 0.22021 0.0
C1220 C 0.70845 0.00513 0.19941 0.0
C1221 C 0.69809 0.02799 0.20332 0.0
H1222 H 0.72379 0.97337 0.21715 0.0
H1223 H 0.62114 0.19373 0.25899 0.0
H1224 H 0.47693 0.74773 0.26544 0.0
H1225 H 0.4419 0.76908 0.28711 0.0
H1226 H 0.44488 0.82471 0.22996 0.0
H1227 H 0.47911 0.80341 0.20815 0.0
H1228 H 0.43418 0.81618 0.30677 0.0
H1229 H 0.38698 0.83653 0.20924 0.0
H1230 H 0.38459 0.81849 0.1664 0.0
H1231 H 0.39755 0.74857 0.19829 0.0
H1232 H 0.39973 0.76607 0.24136 0.0
H1233 H 0.33746 0.91179 0.26927 0.0
H1234 H 0.36732 0.87969 0.25945 0.0
H1235 H 0.34441 0.84176 0.32737 0.0
H1236 H 0.31413 0.87408 0.33742 0.0
H1237 H 0.35993 0.83222 0.25049 0.0
H1238 H 0.40048 0.81258 0.3493 0.0
H1239 H 0.40487 0.8318 0.39146 0.0
H1240 H 0.40646 0.90136 0.35609 0.0
H1241 H 0.40241 0.88252 0.31375 0.0
C1242 C 0.47038 0.76477 0.25789 0.0
C1243 C 0.48041 0.77384 0.235 0.0
C1244 C 0.4504 0.77687 0.27022 0.0
C1245 C 0.44047 0.79813 0.25975 0.0
C1246 C 0.4519 0.80803 0.238 0.0
C1247 C 0.47149 0.79589 0.22561 0.0
C1248 C 0.41716 0.80952 0.27011 0.0
C1249 C 0.41764 0.81922 0.29475 0.0
C1250 C 0.39566 0.8135 0.25432 0.0
C1251 C 0.39361 0.80265 0.22854 0.0
C1252 C 0.38912 0.81727 0.20714 0.0
C1253 C 0.38788 0.80714 0.18281 0.0
C1254 C 0.391 0.78239 0.17962 0.0
C1255 C 0.39526 0.76772 0.20078 0.0
C1256 C 0.39651 0.77773 0.22516 0.0
C1257 C 0.3384 0.89652 0.28199 0.0
C1258 C 0.32328 0.89543 0.30405 0.0
C1259 C 0.35555 0.87817 0.27635 0.0
C1260 C 0.35814 0.85841 0.29272 0.0
C1261 C 0.34281 0.85697 0.3146 0.0
C1262 C 0.32549 0.87539 0.32024 0.0
C1263 C 0.37744 0.83984 0.28669 0.0
C1264 C 0.37612 0.82865 0.26282 0.0
C1265 C 0.39811 0.83459 0.30317 0.0
C1266 C 0.40078 0.84615 0.32844 0.0
C1267 C 0.4018 0.83197 0.35056 0.0
C1268 C 0.40423 0.84279 0.37447 0.0
C1269 C 0.40582 0.86779 0.37646 0.0
C1270 C 0.4051 0.88201 0.35453 0.0
C1271 C 0.4027 0.87127 0.33058 0.0
H1272 H 0.40769 0.87614 0.39499 0.0
H1273 H 0.39009 0.77458 0.16076 0.0
H1274 H 0.79702 0.37909 0.75048 0.0
H1275 H 0.75489 0.36749 0.76601 0.0
H1276 H 0.71965 0.40617 0.70412 0.0
H1277 H 0.76191 0.41776 0.68823 0.0
H1278 H 0.69937 0.41781 0.75123 0.0
H1279 H 0.71757 0.34707 0.70349 0.0
H1280 H 0.74209 0.31186 0.6889 0.0
H1281 H 0.74156 0.28303 0.76474 0.0
H1282 H 0.71736 0.31828 0.77991 0.0
H1283 H 0.57437 0.37721 0.78292 0.0
H1284 H 0.61408 0.38606 0.76041 0.0
H1285 H 0.65619 0.34466 0.81574 0.0
H1286 H 0.61645 0.33519 0.83799 0.0
H1287 H 0.67155 0.33415 0.76838 0.0
H1288 H 0.65642 0.40622 0.8167 0.0
H1289 H 0.63164 0.44123 0.83146 0.0
H1290 H 0.62679 0.4675 0.75471 0.0
H1291 H 0.65127 0.43246 0.73944 0.0
C1292 C 0.78036 0.38494 0.73997 0.0
C1293 C 0.78284 0.39941 0.71814 0.0
C1294 C 0.75628 0.3782 0.74883 0.0
C1295 C 0.73416 0.38589 0.73616 0.0
C1296 C 0.73652 0.40002 0.71413 0.0
C1297 C 0.76067 0.40655 0.70505 0.0
C1298 C 0.70868 0.38033 0.74692 0.0
C1299 C 0.69304 0.39951 0.75455 0.0
C1300 C 0.70078 0.35646 0.7518 0.0
C1301 C 0.71579 0.33544 0.74287 0.0
C1302 C 0.72289 0.33336 0.71712 0.0
C1303 C 0.73667 0.31334 0.70873 0.0
C1304 C 0.7433 0.29519 0.72587 0.0
C1305 C 0.73632 0.29708 0.75147 0.0
C1306 C 0.72257 0.31707 0.75998 0.0
C1307 C 0.59204 0.3699 0.79027 0.0
C1308 C 0.5922 0.35538 0.81219 0.0
C1309 C 0.61477 0.37512 0.77746 0.0
C1310 C 0.63815 0.36615 0.78647 0.0
C1311 C 0.63837 0.35173 0.80841 0.0
C1312 C 0.61564 0.34645 0.82119 0.0
C1313 C 0.66238 0.37163 0.77299 0.0
C1314 C 0.67779 0.35244 0.76489 0.0
C1315 C 0.67013 0.39549 0.76775 0.0
C1316 C 0.65543 0.41658 0.77689 0.0
C1317 C 0.64988 0.41936 0.80294 0.0
C1318 C 0.63593 0.43923 0.81141 0.0
C1319 C 0.62758 0.45654 0.79403 0.0
C1320 C 0.63323 0.45405 0.76815 0.0
C1321 C 0.64716 0.4342 0.75958 0.0
H1322 H 0.61678 0.47192 0.80062 0.0
H1323 H 0.75393 0.27969 0.71933 0.0
H1324 H 0.19582 0.60225 0.33579 0.0
H1325 H 0.16501 0.63414 0.32635 0.0
H1326 H 0.15435 0.60516 0.2509 0.0
H1327 H 0.18495 0.57339 0.26011 0.0
H1328 H 0.15401 0.65471 0.25131 0.0
H1329 H 0.11559 0.58831 0.29847 0.0
H1330 H 0.1117 0.56128 0.33551 0.0
H1331 H 0.09983 0.62201 0.38457 0.0
H1332 H 0.10398 0.64942 0.34781 0.0
H1333 H 0.03226 0.67286 0.20587 0.0
H1334 H 0.06907 0.65357 0.22547 0.0
H1335 H 0.06165 0.69957 0.29116 0.0
H1336 H 0.02464 0.71937 0.27139 0.0
H1337 H 0.07416 0.64969 0.30207 0.0
H1338 H 0.10284 0.715 0.25256 0.0
H1339 H 0.10574 0.74161 0.21536 0.0
H1340 H 0.13556 0.68361 0.1704 0.0
H1341 H 0.13262 0.65648 0.20743 0.0
C1342 C 0.18736 0.60301 0.31699 0.0
C1343 C 0.19265 0.58515 0.29876 0.0
C1344 C 0.1697 0.62118 0.31169 0.0
C1345 C 0.15717 0.62176 0.28808 0.0
C1346 C 0.1638 0.60499 0.26927 0.0
C1347 C 0.18129 0.58679 0.27458 0.0
C1348 C 0.13549 0.63823 0.28346 0.0
C1349 C 0.13657 0.65368 0.26241 0.0
C1350 C 0.11301 0.63736 0.29846 0.0
C1351 C 0.11043 0.6209 0.32049 0.0
C1352 C 0.11235 0.59589 0.31719 0.0
C1353 C 0.11007 0.58051 0.33812 0.0
C1354 C 0.10561 0.58993 0.36239 0.0
C1355 C 0.10335 0.61475 0.36577 0.0
C1356 C 0.10566 0.63021 0.3449 0.0
C1357 C 0.03828 0.67881 0.22457 0.0
C1358 C 0.02586 0.69791 0.23691 0.0
C1359 C 0.05929 0.66774 0.23574 0.0
C1360 C 0.06829 0.6755 0.25949 0.0
C1361 C 0.055 0.69349 0.27272 0.0
C1362 C 0.03389 0.70471 0.26144 0.0
C1363 C 0.09244 0.66547 0.2694 0.0
C1364 C 0.09181 0.65124 0.29138 0.0
C1365 C 0.11535 0.66746 0.25524 0.0
C1366 C 0.11739 0.68366 0.23282 0.0
C1367 C 0.10983 0.70784 0.23471 0.0
C1368 C 0.11148 0.72304 0.21362 0.0
C1369 C 0.12073 0.71433 0.19045 0.0
C1370 C 0.12841 0.69036 0.18837 0.0
C1371 C 0.12681 0.67506 0.20945 0.0
H1372 H 0.12199 0.72616 0.17414 0.0
H1373 H 0.10384 0.57799 0.37857 0.0
H1374 H 0.88971 0.14192 0.83764 0.0
H1375 H 0.8499 0.12863 0.81775 0.0
H1376 H 0.89169 0.07703 0.77281 0.0
H1377 H 0.93161 0.09017 0.79265 0.0
H1378 H 0.8358 0.12906 0.76679 0.0
H1379 H 0.85269 0.02681 0.76731 0.0
H1380 H 0.87635 0.99631 0.79196 0.0
H1381 H 0.87232 0.04091 0.85858 0.0
H1382 H 0.84835 0.0715 0.83442 0.0
H1383 H 0.74061 0.06885 0.69172 0.0
H1384 H 0.78264 0.07962 0.709 0.0
H1385 H 0.75597 0.06386 0.78489 0.0
H1386 H 0.71404 0.05335 0.76795 0.0
H1387 H 0.80482 0.04509 0.77437 0.0
H1388 H 0.75739 0.11939 0.76775 0.0
H1389 H 0.73249 0.15028 0.74501 0.0
H1390 H 0.79554 0.16266 0.69438 0.0
H1391 H 0.82069 0.13155 0.71661 0.0
C1392 C 0.89043 0.12766 0.82362 0.0
C1393 C 0.9138 0.1171 0.8167 0.0
C1394 C 0.86769 0.1202 0.81216 0.0
C1395 C 0.86787 0.10184 0.79385 0.0
C1396 C 0.89115 0.09115 0.787 0.0
C1397 C 0.91393 0.09873 0.79831 0.0
C1398 C 0.84363 0.09387 0.78201 0.0
C1399 C 0.82909 0.11068 0.76834 0.0
C1400 C 0.83485 0.06992 0.78415 0.0
C1401 C 0.84899 0.05154 0.79896 0.0
C1402 C 0.8568 0.03006 0.78724 0.0
C1403 C 0.87026 0.01277 0.80112 0.0
C1404 C 0.87592 0.01671 0.82679 0.0
C1405 C 0.86803 0.03792 0.83867 0.0
C1406 C 0.85454 0.05526 0.82487 0.0
C1407 C 0.74378 0.06754 0.71206 0.0
C1408 C 0.72396 0.06039 0.72848 0.0
C1409 C 0.76774 0.07374 0.72188 0.0
C1410 C 0.77231 0.07259 0.74821 0.0
C1411 C 0.75281 0.06482 0.76451 0.0
C1412 C 0.72882 0.05896 0.75479 0.0
C1413 C 0.79709 0.08025 0.75908 0.0
C1414 C 0.81172 0.06339 0.77256 0.0
C1415 C 0.80585 0.1042 0.75695 0.0
C1416 C 0.7908 0.12295 0.74365 0.0
C1417 C 0.76586 0.12854 0.75162 0.0
C1418 C 0.75171 0.14612 0.73885 0.0
C1419 C 0.76239 0.15837 0.71821 0.0
C1420 C 0.78727 0.15312 0.71034 0.0
C1421 C 0.80148 0.13552 0.72302 0.0
H1422 H 0.75142 0.17198 0.70836 0.0
H1423 H 0.88636 0.00331 0.8375 0.0
H1424 H 0.50158 0.20628 0.11147 0.0
H1425 H 0.5001 0.23304 0.07449 0.0
H1426 H 0.48905 0.17199 0.02509 0.0
H1427 H 0.49082 0.14516 0.0618 0.0
H1428 H 0.52575 0.2002 0.00722 0.0
H1429 H 0.44041 0.21144 0.03752 0.0
H1430 H 0.40687 0.22064 0.06901 0.0
H1431 H 0.4377 0.29149 0.07909 0.0
H1432 H 0.47166 0.2826 0.0479 0.0
H1433 H 0.50238 0.26643 0.89442 0.0
H1434 H 0.49593 0.23984 0.93096 0.0
H1435 H 0.50833 0.29939 0.98207 0.0
H1436 H 0.5144 0.32615 0.94569 0.0
H1437 H 0.46953 0.27148 0.99851 0.0
H1438 H 0.55598 0.25928 0.96973 0.0
H1439 H 0.58931 0.25009 0.938 0.0
H1440 H 0.55589 0.18072 0.92499 0.0
H1441 H 0.52217 0.18962 0.95647 0.0
C1442 C 0.49853 0.19858 0.09277 0.0
C1443 C 0.4964 0.17356 0.0896 0.0
C1444 C 0.49761 0.21391 0.07164 0.0
C1445 C 0.49436 0.20454 0.04698 0.0
C1446 C 0.49164 0.17963 0.0439 0.0
C1447 C 0.49259 0.16432 0.06495 0.0
C1448 C 0.49513 0.22048 0.02426 0.0
C1449 C 0.51316 0.21556 0.00515 0.0
C1450 C 0.47913 0.24085 0.02179 0.0
C1451 C 0.45873 0.24627 0.04055 0.0
C1452 C 0.44017 0.22892 0.04661 0.0
C1453 C 0.42106 0.23408 0.06437 0.0
C1454 C 0.42019 0.25661 0.07609 0.0
C1455 C 0.43841 0.27403 0.07002 0.0
C1456 C 0.45758 0.26895 0.05228 0.0
C1457 C 0.50357 0.27392 0.91342 0.0
C1458 C 0.5091 0.2984 0.91712 0.0
C1459 C 0.49995 0.25867 0.9343 0.0
C1460 C 0.50199 0.26755 0.95927 0.0
C1461 C 0.50671 0.29212 0.96299 0.0
C1462 C 0.51027 0.30738 0.94214 0.0
C1463 C 0.50011 0.25115 0.98154 0.0
C1464 C 0.48198 0.25603 0.00057 0.0
C1465 C 0.516 0.2307 0.98397 0.0
C1466 C 0.53642 0.22521 0.96526 0.0
C1467 C 0.55565 0.24212 0.95998 0.0
C1468 C 0.57463 0.23696 0.94207 0.0
C1469 C 0.57468 0.21486 0.92944 0.0
C1470 C 0.5558 0.19784 0.93477 0.0
C1471 C 0.53677 0.20292 0.95267 0.0
H1472 H 0.58937 0.2109 0.91556 0.0
H1473 H 0.40538 0.26058 0.08983 0.0
H1474 H 0.27339 0.49643 0.393 0.0
H1475 H 0.27931 0.48828 0.43863 0.0
H1476 H 0.19774 0.48314 0.44827 0.0
H1477 H 0.19163 0.49094 0.40304 0.0
H1478 H 0.22136 0.5151 0.48206 0.0
H1479 H 0.23092 0.43395 0.45193 0.0
H1480 H 0.24958 0.40181 0.4255 0.0
H1481 H 0.32349 0.41562 0.45774 0.0
H1482 H 0.30533 0.4481 0.48411 0.0
H1483 H 0.22259 0.48668 0.61267 0.0
H1484 H 0.21362 0.48253 0.56707 0.0
H1485 H 0.29419 0.4745 0.55204 0.0
H1486 H 0.30314 0.47762 0.59737 0.0
H1487 H 0.26936 0.44739 0.5206 0.0
H1488 H 0.26261 0.52988 0.54722 0.0
H1489 H 0.24629 0.56364 0.57293 0.0
H1490 H 0.17019 0.54961 0.54635 0.0
H1491 H 0.18604 0.51555 0.52071 0.0
C1492 C 0.25676 0.49325 0.4048 0.0
C1493 C 0.23205 0.49445 0.39439 0.0
C1494 C 0.26017 0.48855 0.43082 0.0
C1495 C 0.23893 0.48513 0.44678 0.0
C1496 C 0.21435 0.48577 0.43629 0.0
C1497 C 0.21095 0.4902 0.41037 0.0
C1498 C 0.24204 0.4824 0.47468 0.0
C1499 C 0.23152 0.5001 0.49054 0.0
C1500 C 0.25586 0.46317 0.48561 0.0
C1501 C 0.26681 0.44363 0.46981 0.0
C1502 C 0.2512 0.43029 0.45322 0.0
C1503 C 0.26167 0.41197 0.43828 0.0
C1504 C 0.28772 0.40672 0.43989 0.0
C1505 C 0.30332 0.41973 0.45649 0.0
C1506 C 0.29294 0.43808 0.47145 0.0
C1507 C 0.23832 0.48357 0.59968 0.0
C1508 C 0.26359 0.48281 0.60864 0.0
C1509 C 0.2332 0.48135 0.5736 0.0
C1510 C 0.2533 0.4788 0.55601 0.0
C1511 C 0.27835 0.47657 0.56515 0.0
C1512 C 0.28344 0.47847 0.59115 0.0
C1513 C 0.24868 0.48015 0.52809 0.0
C1514 C 0.259 0.46229 0.51219 0.0
C1515 C 0.23502 0.49948 0.517 0.0
C1516 C 0.22546 0.52001 0.53229 0.0
C1517 C 0.24237 0.5339 0.54699 0.0
C1518 C 0.23321 0.5531 0.56154 0.0
C1519 C 0.20721 0.55872 0.56133 0.0
C1520 C 0.19032 0.5452 0.54652 0.0
C1521 C 0.19938 0.52596 0.53198 0.0
H1522 H 0.20015 0.57359 0.57261 0.0
H1523 H 0.29579 0.39253 0.42832 0.0
H1524 H 0.9863 0.33333 0.06021 0.0
H1525 H 0.99123 0.30774 0.02284 0.0
H1526 H 0.00757 0.24709 0.0713 0.0
H1527 H 0.00283 0.27273 0.10902 0.0
H1528 H 0.03902 0.24857 0.02898 0.0
H1529 H 0.9493 0.25303 0.04673 0.0
H1530 H 0.90833 0.27328 0.05539 0.0
H1531 H 0.91229 0.30883 0.9829 0.0
H1532 H 0.9535 0.28904 0.97397 0.0
H1533 H 0.01187 0.15603 0.93917 0.0
H1534 H 0.01424 0.18299 0.97574 0.0
H1535 H 0.9942 0.24292 0.92762 0.0
H1536 H 0.99145 0.21595 0.89089 0.0
H1537 H 0.96549 0.24211 0.96976 0.0
H1538 H 0.0548 0.23651 0.95137 0.0
H1539 H 0.09566 0.21602 0.94282 0.0
H1540 H 0.09247 0.18225 0.01629 0.0
H1541 H 0.05139 0.20228 0.02514 0.0
C1542 C 0.9911 0.31459 0.06301 0.0
C1543 C 0.99397 0.30504 0.08765 0.0
C1544 C 0.99385 0.29996 0.04158 0.0
C1545 C 0.9994 0.27544 0.04428 0.0
C1546 C 0.0032 0.26597 0.06879 0.0
C1547 C 0.00042 0.28063 0.09032 0.0
C1548 C 0.00035 0.25963 0.0215 0.0
C1549 C 0.02286 0.2469 0.01617 0.0
C1550 C 0.97943 0.25787 0.00451 0.0
C1551 C 0.95462 0.26974 0.0098 0.0
C1552 C 0.94154 0.26532 0.03273 0.0
C1553 C 0.91825 0.27668 0.03767 0.0
C1554 C 0.90774 0.29238 0.01974 0.0
C1555 C 0.92047 0.29669 0.99679 0.0
C1556 C 0.94379 0.2854 0.99177 0.0
C1557 C 0.00823 0.17498 0.93625 0.0
C1558 C 0.00139 0.18381 0.91208 0.0
C1559 C 0.00972 0.19041 0.95721 0.0
C1560 C 0.00456 0.21503 0.95443 0.0
C1561 C 0.99826 0.22399 0.93022 0.0
C1562 C 0.99678 0.20856 0.90922 0.0
C1563 C 0.00424 0.2311 0.97705 0.0
C1564 C 0.98175 0.24383 0.98244 0.0
C1565 C 0.02517 0.23279 0.99407 0.0
C1566 C 0.04989 0.22073 0.98882 0.0
C1567 C 0.0627 0.22456 0.96562 0.0
C1568 C 0.08592 0.21306 0.96074 0.0
C1569 C 0.09662 0.1978 0.97897 0.0
C1570 C 0.08415 0.19405 0.00217 0.0
C1571 C 0.0609 0.2055 0.00714 0.0
H1572 H 0.11461 0.18891 0.97516 0.0
H1573 H 0.88971 0.30115 0.02359 0.0
H1574 H 0.23517 0.9923 0.38635 0.0
H1575 H 0.23136 0.0037 0.43125 0.0
H1576 H 0.23881 0.92925 0.45306 0.0
H1577 H 0.2415 0.91772 0.40848 0.0
H1578 H 0.20699 0.94907 0.48319 0.0
H1579 H 0.29063 0.97068 0.45237 0.0
H1580 H 0.32138 0.99121 0.42422 0.0
H1581 H 0.29151 0.05972 0.44722 0.0
H1582 H 0.26035 0.03956 0.47529 0.0
H1583 H 0.25946 0.95453 0.60573 0.0
H1584 H 0.26061 0.95237 0.55928 0.0
H1585 H 0.22602 0.02248 0.55439 0.0
H1586 H 0.22429 0.02468 0.60101 0.0
H1587 H 0.2689 0.00909 0.51604 0.0
H1588 H 0.18641 0.9846 0.54956 0.0
H1589 H 0.15902 0.96173 0.5791 0.0
H1590 H 0.1909 0.89555 0.55154 0.0
H1591 H 0.21879 0.91809 0.52213 0.0
C1592 C 0.23548 0.97834 0.40072 0.0
C1593 C 0.23889 0.95412 0.39382 0.0
C1594 C 0.23354 0.9849 0.4264 0.0
C1595 C 0.23548 0.96741 0.44563 0.0
C1596 C 0.2374 0.94313 0.43865 0.0
C1597 C 0.23895 0.93654 0.41305 0.0
C1598 C 0.23665 0.97418 0.47304 0.0
C1599 C 0.22062 0.96214 0.49026 0.0
C1600 C 0.25421 0.99147 0.48245 0.0
C1601 C 0.27297 0.00361 0.46568 0.0
C1602 C 0.29051 0.99012 0.45128 0.0
C1603 C 0.30802 0.00169 0.43536 0.0
C1604 C 0.30834 0.02675 0.43387 0.0
C1605 C 0.2912 0.0403 0.44836 0.0
C1606 C 0.27361 0.02882 0.46428 0.0
C1607 C 0.25271 0.9698 0.59487 0.0
C1608 C 0.24152 0.98968 0.60708 0.0
C1609 C 0.25333 0.96849 0.56831 0.0
C1610 C 0.24315 0.98716 0.55353 0.0
C1611 C 0.23393 0.0079 0.56556 0.0
C1612 C 0.23294 0.00909 0.59216 0.0
C1613 C 0.23957 0.98368 0.52583 0.0
C1614 C 0.2551 0.99629 0.50872 0.0
C1615 C 0.22191 0.96663 0.51649 0.0
C1616 C 0.20484 0.95304 0.53383 0.0
C1617 C 0.18772 0.96518 0.54995 0.0
C1618 C 0.17208 0.95228 0.56665 0.0
C1619 C 0.17326 0.9272 0.56725 0.0
C1620 C 0.19002 0.91498 0.55108 0.0
C1621 C 0.20573 0.92781 0.53438 0.0
H1622 H 0.16115 0.91725 0.58019 0.0
H1623 H 0.32192 0.03567 0.42153 0.0
H1624 H 0.46071 0.72492 0.89696 0.0
H1625 H 0.46985 0.72533 0.94224 0.0
H1626 H 0.5447 0.75444 0.92738 0.0
H1627 H 0.53566 0.75411 0.88139 0.0
H1628 H 0.50632 0.70083 0.968 0.0
H1629 H 0.559 0.7899 0.98156 0.0
H1630 H 0.56333 0.82958 0.96096 0.0
H1631 H 0.48723 0.8236 0.93117 0.0
H1632 H 0.48236 0.78406 0.95184 0.0
H1633 H 0.53593 0.71209 0.10217 0.0
H1634 H 0.54244 0.71195 0.05579 0.0
H1635 H 0.4807 0.76255 0.04696 0.0
H1636 H 0.47403 0.76282 0.09268 0.0
H1637 H 0.52207 0.77505 0.01787 0.0
H1638 H 0.47061 0.70428 0.03649 0.0
H1639 H 0.46216 0.66526 0.05713 0.0
H1640 H 0.5294 0.6356 0.02243 0.0
H1641 H 0.5384 0.67457 0.00183 0.0
C1642 C 0.47914 0.73154 0.90314 0.0
C1643 C 0.49751 0.73937 0.88541 0.0
C1644 C 0.48437 0.73162 0.92912 0.0
C1645 C 0.50803 0.73965 0.9382 0.0
C1646 C 0.5263 0.74813 0.92075 0.0
C1647 C 0.52107 0.74802 0.89451 0.0
C1648 C 0.51294 0.73902 0.96604 0.0
C1649 C 0.51018 0.71702 0.97887 0.0
C1650 C 0.51792 0.76008 0.98025 0.0
C1651 C 0.52048 0.78392 0.96794 0.0
C1652 C 0.5432 0.7971 0.97064 0.0
C1653 C 0.54574 0.81955 0.95896 0.0
C1654 C 0.52561 0.82906 0.94468 0.0
C1655 C 0.50285 0.81617 0.94214 0.0
C1656 C 0.5002 0.79373 0.9538 0.0
C1657 C 0.52373 0.72314 0.09032 0.0
C1658 C 0.50438 0.73737 0.10124 0.0
C1659 C 0.52753 0.72309 0.06385 0.0
C1660 C 0.51213 0.73736 0.04795 0.0
C1661 C 0.49298 0.7516 0.05885 0.0
C1662 C 0.48906 0.75153 0.08509 0.0
C1663 C 0.51481 0.73697 0.01982 0.0
C1664 C 0.51904 0.75875 0.00694 0.0
C1665 C 0.51076 0.71577 0.00555 0.0
C1666 C 0.50536 0.69239 0.01792 0.0
C1667 C 0.48371 0.68949 0.03345 0.0
C1668 C 0.47879 0.66738 0.0451 0.0
C1669 C 0.49529 0.64799 0.04117 0.0
C1670 C 0.51668 0.65065 0.02551 0.0
C1671 C 0.5217 0.67274 0.01384 0.0
H1672 H 0.49145 0.63088 0.0502 0.0
H1673 H 0.52762 0.84643 0.93564 0.0
H1674 H 0.77351 0.44568 0.60838 0.0
H1675 H 0.74659 0.44784 0.57036 0.0
H1676 H 0.81331 0.45968 0.52385 0.0
H1677 H 0.84031 0.45787 0.56174 0.0
H1678 H 0.77385 0.48744 0.50809 0.0
H1679 H 0.78762 0.4043 0.52827 0.0
H1680 H 0.78772 0.36838 0.55577 0.0
H1681 H 0.70658 0.37447 0.5657 0.0
H1682 H 0.70606 0.41065 0.53852 0.0
H1683 H 0.72102 0.44979 0.38824 0.0
H1684 H 0.74697 0.4553 0.42666 0.0
H1685 H 0.68045 0.44339 0.47342 0.0
H1686 H 0.65453 0.4377 0.43533 0.0
H1687 H 0.71984 0.41644 0.48907 0.0
H1688 H 0.70615 0.49921 0.46724 0.0
H1689 H 0.70661 0.53482 0.43932 0.0
H1690 H 0.78802 0.52907 0.43168 0.0
H1691 H 0.78801 0.49319 0.4593 0.0
C1692 C 0.78244 0.44901 0.59011 0.0
C1693 C 0.8091 0.45138 0.58809 0.0
C1694 C 0.76703 0.45015 0.56837 0.0
C1695 C 0.77798 0.45356 0.5442 0.0
C1696 C 0.80445 0.45698 0.54228 0.0
C1697 C 0.81986 0.45584 0.56399 0.0
C1698 C 0.76205 0.45236 0.5208 0.0
C1699 C 0.76222 0.47183 0.50378 0.0
C1700 C 0.74661 0.43213 0.51534 0.0
C1701 C 0.74685 0.41032 0.53159 0.0
C1702 C 0.76983 0.39808 0.53648 0.0
C1703 C 0.76996 0.37766 0.55199 0.0
C1704 C 0.74718 0.36919 0.56254 0.0
C1705 C 0.72422 0.38108 0.55755 0.0
C1706 C 0.72399 0.40153 0.54209 0.0
C1707 C 0.71188 0.44859 0.40671 0.0
C1708 C 0.68571 0.44323 0.40869 0.0
C1709 C 0.72672 0.45182 0.42865 0.0
C1710 C 0.71563 0.44983 0.45294 0.0
C1711 C 0.68943 0.44494 0.4549 0.0
C1712 C 0.67462 0.44175 0.43305 0.0
C1713 C 0.73142 0.45161 0.47639 0.0
C1714 C 0.73134 0.43214 0.4934 0.0
C1715 C 0.74698 0.47179 0.48172 0.0
C1716 C 0.74704 0.49336 0.46513 0.0
C1717 C 0.72413 0.50541 0.45943 0.0
C1718 C 0.72431 0.52567 0.44369 0.0
C1719 C 0.74732 0.53416 0.43367 0.0
C1720 C 0.7702 0.52245 0.43943 0.0
C1721 C 0.77012 0.50216 0.45514 0.0
H1722 H 0.74742 0.54986 0.4215 0.0
H1723 H 0.74732 0.35337 0.57453 0.0
H1724 H 0.03118 0.73716 0.09599 0.0
H1725 H 0.02251 0.73752 0.05049 0.0
H1726 H 0.94206 0.74643 0.06539 0.0
H1727 H 0.9507 0.74611 0.11152 0.0
H1728 H 0.95323 0.70916 0.03017 0.0
H1729 H 0.97149 0.79204 0.03991 0.0
H1730 H 0.99464 0.82776 0.05532 0.0
H1731 H 0.06184 0.80517 0.01504 0.0
H1732 H 0.03924 0.76912 0.99968 0.0
H1733 H 0.95061 0.72098 0.89015 0.0
H1734 H 0.94213 0.72491 0.93607 0.0
H1735 H 0.023 0.72127 0.95116 0.0
H1736 H 0.03153 0.71749 0.90577 0.0
H1737 H 0.00066 0.76201 0.97062 0.0
H1738 H 0.98404 0.67597 0.96757 0.0
H1739 H 0.96116 0.63989 0.95267 0.0
H1740 H 0.89041 0.66901 0.98021 0.0
H1741 H 0.91286 0.70543 0.99498 0.0
C1742 C 0.01165 0.73954 0.08967 0.0
C1743 C 0.99162 0.74161 0.10735 0.0
C1744 C 0.00672 0.7398 0.06362 0.0
C1745 C 0.98165 0.74208 0.05455 0.0
C1746 C 0.96155 0.74469 0.07205 0.0
C1747 C 0.96653 0.74471 0.09833 0.0
C1748 C 0.97701 0.7406 0.02672 0.0
C1749 C 0.96303 0.72108 0.01706 0.0
C1750 C 0.98994 0.75604 0.00967 0.0
C1751 C 0.00365 0.7778 0.0187 0.0
C1752 C 0.99125 0.7946 0.03445 0.0
C1753 C 0.00428 0.81493 0.04317 0.0
C1754 C 0.0297 0.81872 0.03618 0.0
C1755 C 0.04214 0.80222 0.02042 0.0
C1756 C 0.02921 0.78185 0.01167 0.0
C1757 C 0.96647 0.72031 0.90337 0.0
C1758 C 0.99176 0.7192 0.89437 0.0
C1759 C 0.96161 0.72268 0.92956 0.0
C1760 C 0.98198 0.72376 0.94695 0.0
C1761 C 0.00703 0.72083 0.93804 0.0
C1762 C 0.01186 0.71857 0.91208 0.0
C1763 C 0.97798 0.72991 0.97416 0.0
C1764 C 0.9903 0.75044 0.98365 0.0
C1765 C 0.96349 0.71543 0.99093 0.0
C1766 C 0.95006 0.69355 0.98206 0.0
C1767 C 0.96356 0.67478 0.97022 0.0
C1768 C 0.95069 0.65425 0.96185 0.0
C1769 C 0.92433 0.65219 0.96541 0.0
C1770 C 0.91082 0.67065 0.97741 0.0
C1771 C 0.9236 0.69123 0.9858 0.0
H1772 H 0.9144 0.63628 0.95892 0.0
H1773 H 0.03975 0.83447 0.04295 0.0
H1774 H 0.66738 0.04695 0.56569 0.0
H1775 H 0.69209 0.0403 0.52706 0.0
H1776 H 0.75119 0.00571 0.571 0.0
H1777 H 0.72663 0.01275 0.61011 0.0
H1778 H 0.77127 0.03669 0.53772 0.0
H1779 H 0.71068 0.97284 0.53278 0.0
H1780 H 0.66802 0.95412 0.53362 0.0
H1781 H 0.64499 0.99703 0.46966 0.0
H1782 H 0.6874 0.01627 0.46864 0.0
H1783 H 0.83744 0.00169 0.42583 0.0
H1784 H 0.81351 0.99898 0.46569 0.0
H1785 H 0.7497 0.03504 0.4305 0.0
H1786 H 0.77333 0.03744 0.39041 0.0
H1787 H 0.73354 -0.00081 0.46067 0.0
H1788 H 0.79253 0.06547 0.46833 0.0
H1789 H 0.83496 0.08468 0.46761 0.0
H1790 H 0.86074 0.03715 0.52669 0.0
H1791 H 0.81853 0.01744 0.52752 0.0
C1792 C 0.68558 0.03781 0.56723 0.0
C1793 C 0.69499 0.03033 0.59104 0.0
C1794 C 0.69964 0.03389 0.54503 0.0
C1795 C 0.72333 0.02215 0.54601 0.0
C1796 C 0.73289 0.0147 0.56976 0.0
C1797 C 0.71882 0.01869 0.59208 0.0
C1798 C 0.73839 0.01857 0.52228 0.0
C1799 C 0.76319 0.02804 0.52104 0.0
C1800 C 0.7277 0.00774 0.5003 0.0
C1801 C 0.70219 0.99612 0.50076 0.0
C1802 C 0.69647 0.97841 0.519 0.0
C1803 C 0.67233 0.96768 0.51949 0.0
C1804 C 0.65379 0.97441 0.50173 0.0
C1805 C 0.65937 0.99184 0.48341 0.0
C1806 C 0.68347 0.00264 0.48285 0.0
C1807 C 0.81822 0.00886 0.42647 0.0
C1808 C 0.80738 0.01997 0.40496 0.0
C1809 C 0.8046 0.00738 0.44933 0.0
C1810 C 0.77997 0.01718 0.45125 0.0
C1811 C 0.76871 0.02742 0.42952 0.0
C1812 C 0.78228 0.02882 0.40661 0.0
C1813 C 0.76624 0.01759 0.47605 0.0
C1814 C 0.74169 0.00756 0.47746 0.0
C1815 C 0.77714 0.02792 0.49819 0.0
C1816 C 0.80247 0.03982 0.49779 0.0
C1817 C 0.80731 0.059 0.48103 0.0
C1818 C 0.8313 0.07 0.48063 0.0
C1819 C 0.85055 0.06209 0.49704 0.0
C1820 C 0.84582 0.04322 0.51395 0.0
C1821 C 0.82187 0.03214 0.51441 0.0
H1822 H 0.86912 0.07063 0.4967 0.0
H1823 H 0.63512 0.96609 0.50215 0.0
loop_
_geom_bond_atom_site_label_1
_geom_bond_atom_site_label_2
_geom_bond_distance
_geom_bond_site_symmetry_2
_ccdc_geom_bond_type
Mg0 O1 2.028 . S
Mg0 O7 1.986 . S
Mg0 O9 2.114 . S
Mg0 O10 2.251 . S
Mg0 O13 2.010 . S
O1 Mg0 2.028 . S
O1 C4 1.250 . S
O2 Mg3 2.028 . S
O2 C4 1.248 . S
Mg3 O2 2.028 . S
Mg3 O8 2.032 . S
Mg3 O10 2.079 . S
C4 O1 1.250 . S
C4 O2 1.248 . S
C5 O6 1.264 . S
C5 O13 1.249 . S
O6 C5 1.264 . S
O7 Mg0 1.986 . S
O7 C11 1.246 . S
O8 Mg3 2.032 . S
O8 C11 1.259 . S
O9 Mg0 2.114 . S
O9 C12 1.252 . S
O10 Mg0 2.251 . S
O10 Mg3 2.079 . S
O10 C12 1.273 . S
C11 O7 1.246 . S
C11 O8 1.259 . S
C12 O9 1.252 . S
C12 O10 1.273 . S
O13 Mg0 2.010 . S
O13 C5 1.249 . S
Mg14 O15 2.028 . S
Mg14 O21 1.986 . S
Mg14 O23 2.114 . S
Mg14 O24 2.251 . S
Mg14 O27 2.010 . S
O15 Mg14 2.028 . S
O15 C18 1.250 . S
O16 Mg17 2.028 . S
O16 C18 1.248 . S
Mg17 O16 2.028 . S
Mg17 O22 2.032 . S
Mg17 O24 2.079 . S
C18 O15 1.250 . S
C18 O16 1.248 . S
C19 O20 1.264 . S
C19 O27 1.249 . S
O20 C19 1.264 . S
O21 Mg14 1.986 . S
O21 C25 1.246 . S
O22 Mg17 2.032 . S
O22 C25 1.259 . S
O23 Mg14 2.114 . S
O23 C26 1.252 . S
O24 Mg14 2.251 . S
O24 Mg17 2.079 . S
O24 C26 1.273 . S
C25 O21 1.246 . S
C25 O22 1.259 . S
C26 O23 1.252 . S
C26 O24 1.273 . S
O27 Mg14 2.010 . S
O27 C19 1.249 . S
Mg28 O29 2.028 . S
Mg28 O35 1.986 1_655 S
Mg28 O37 2.114 . S
Mg28 O38 2.251 . S
Mg28 O41 2.010 . S
O29 Mg28 2.028 . S
O29 C32 1.250 . S
O30 Mg31 2.028 . S
O30 C32 1.248 . S
Mg31 O30 2.028 . S
Mg31 O36 2.032 1_655 S
Mg31 O38 2.079 . S
C32 O29 1.250 . S
C32 O30 1.248 . S
C33 O34 1.264 . S
C33 O41 1.249 . S
O34 C33 1.264 . S
O35 Mg28 1.986 1_455 S
O35 C39 1.246 . S
O36 Mg31 2.032 1_455 S
O36 C39 1.259 . S
O37 Mg28 2.114 . S
O37 C40 1.252 . S
O38 Mg28 2.251 . S
O38 Mg31 2.079 . S
O38 C40 1.273 . S
C39 O35 1.246 . S
C39 O36 1.259 . S
C40 O37 1.252 . S
C40 O38 1.273 . S
O41 Mg28 2.010 . S
O41 C33 1.249 . S
Mg42 O43 2.028 . S
Mg42 O49 1.986 . S
Mg42 O51 2.114 . S
Mg42 O52 2.251 . S
Mg42 O55 2.010 . S
O43 Mg42 2.028 . S
O43 C46 1.250 . S
O44 Mg45 2.028 . S
O44 C46 1.248 . S
Mg45 O44 2.028 . S
Mg45 O50 2.032 . S
Mg45 O52 2.079 . S
C46 O43 1.250 . S
C46 O44 1.248 . S
C47 O48 1.264 . S
C47 O55 1.249 . S
O48 C47 1.264 . S
O49 Mg42 1.986 . S
O49 C53 1.246 . S
O50 Mg45 2.032 . S
O50 C53 1.259 . S
O51 Mg42 2.114 . S
O51 C54 1.252 . S
O52 Mg42 2.251 . S
O52 Mg45 2.079 . S
O52 C54 1.273 . S
C53 O49 1.246 . S
C53 O50 1.259 . S
C54 O51 1.252 . S
C54 O52 1.273 . S
O55 Mg42 2.010 . S
O55 C47 1.249 . S
Mg56 O57 2.028 . S
Mg56 O63 1.986 . S
Mg56 O65 2.114 . S
Mg56 O66 2.251 . S
Mg56 O69 2.010 . S
O57 Mg56 2.028 . S
O57 C60 1.250 . S
O58 Mg59 2.028 . S
O58 C60 1.248 . S
Mg59 O58 2.028 . S
Mg59 O64 2.032 . S
Mg59 O66 2.079 . S
C60 O57 1.250 . S
C60 O58 1.248 . S
C61 O62 1.264 . S
C61 O69 1.249 . S
O62 C61 1.264 . S
O63 Mg56 1.986 . S
O63 C67 1.246 . S
O64 Mg59 2.032 . S
O64 C67 1.259 . S
O65 Mg56 2.114 . S
O65 C68 1.252 . S
O66 Mg56 2.251 . S
O66 Mg59 2.079 . S
O66 C68 1.273 . S
C67 O63 1.246 . S
C67 O64 1.259 . S
C68 O65 1.252 . S
C68 O66 1.273 . S
O69 Mg56 2.010 . S
O69 C61 1.249 . S
Mg70 O71 2.028 . S
Mg70 O77 1.986 . S
Mg70 O79 2.114 . S
Mg70 O80 2.251 . S
Mg70 O83 2.010 . S
O71 Mg70 2.028 . S
O71 C74 1.250 . S
O72 Mg73 2.028 . S
O72 C74 1.248 . S
Mg73 O72 2.028 . S
Mg73 O78 2.032 . S
Mg73 O80 2.079 . S
C74 O71 1.250 . S
C74 O72 1.248 . S
C75 O76 1.264 . S
C75 O83 1.249 . S
O76 C75 1.264 . S
O77 Mg70 1.986 . S
O77 C81 1.246 . S
O78 Mg73 2.032 . S
O78 C81 1.259 . S
O79 Mg70 2.114 . S
O79 C82 1.252 . S
O80 Mg70 2.251 . S
O80 Mg73 2.079 . S
O80 C82 1.273 . S
C81 O77 1.246 . S
C81 O78 1.259 . S
C82 O79 1.252 . S
C82 O80 1.273 . S
O83 Mg70 2.010 . S
O83 C75 1.249 . S
Mg84 O85 2.028 . S
Mg84 O91 1.986 1_655 S
Mg84 O93 2.114 . S
Mg84 O94 2.251 . S
Mg84 O97 2.010 . S
O85 Mg84 2.028 . S
O85 C88 1.250 . S
O86 Mg87 2.028 . S
O86 C88 1.248 . S
Mg87 O86 2.028 . S
Mg87 O92 2.032 1_655 S
Mg87 O94 2.079 . S
C88 O85 1.250 . S
C88 O86 1.248 . S
C89 O90 1.264 . S
C89 O97 1.249 . S
O90 C89 1.264 . S
O91 Mg84 1.986 1_455 S
O91 C95 1.246 . S
O92 Mg87 2.032 1_455 S
O92 C95 1.259 . S
O93 Mg84 2.114 . S
O93 C96 1.252 . S
O94 Mg84 2.251 . S
O94 Mg87 2.079 . S
O94 C96 1.273 . S
C95 O91 1.246 . S
C95 O92 1.259 . S
C96 O93 1.252 . S
C96 O94 1.273 . S
O97 Mg84 2.010 . S
O97 C89 1.249 . S
Mg98 O99 2.028 . S
Mg98 O105 1.986 . S
Mg98 O107 2.114 . S
Mg98 O108 2.251 . S
Mg98 O111 2.010 . S
O99 Mg98 2.028 . S
O99 C102 1.250 . S
O100 Mg101 2.028 . S
O100 C102 1.248 . S
Mg101 O100 2.028 . S
Mg101 O106 2.032 . S
Mg101 O108 2.079 . S
C102 O99 1.250 . S
C102 O100 1.248 . S
C103 O104 1.264 . S
C103 O111 1.249 . S
O104 C103 1.264 . S
O105 Mg98 1.986 . S
O105 C109 1.246 . S
O106 Mg101 2.032 . S
O106 C109 1.259 . S
O107 Mg98 2.114 . S
O107 C110 1.252 . S
O108 Mg98 2.251 . S
O108 Mg101 2.079 . S
O108 C110 1.273 . S
C109 O105 1.246 . S
C109 O106 1.259 . S
C110 O107 1.252 . S
C110 O108 1.273 . S
O111 Mg98 2.010 . S
O111 C103 1.249 . S
Mg112 O113 2.028 . S
Mg112 O119 1.986 . S
Mg112 O121 2.114 . S
Mg112 O122 2.251 . S
Mg112 O125 2.010 . S
O113 Mg112 2.028 . S
O113 C116 1.250 . S
O114 Mg115 2.028 . S
O114 C116 1.248 . S
Mg115 O114 2.028 . S
Mg115 O120 2.032 . S
Mg115 O122 2.079 . S
C116 O113 1.250 . S
C116 O114 1.248 . S
C117 O118 1.264 . S
C117 O125 1.249 . S
O118 C117 1.264 . S
O119 Mg112 1.986 . S
O119 C123 1.246 . S
O120 Mg115 2.032 . S
O120 C123 1.259 . S
O121 Mg112 2.114 . S
O121 C124 1.252 . S
O122 Mg112 2.251 . S
O122 Mg115 2.079 . S
O122 C124 1.273 . S
C123 O119 1.246 . S
C123 O120 1.259 . S
C124 O121 1.252 . S
C124 O122 1.273 . S
O125 Mg112 2.010 . S
O125 C117 1.249 . S
Mg126 O127 2.028 . S
Mg126 O133 1.986 . S
Mg126 O135 2.114 . S
Mg126 O136 2.251 . S
Mg126 O139 2.010 . S
O127 Mg126 2.028 . S
O127 C130 1.250 . S
O128 Mg129 2.028 . S
O128 C130 1.248 . S
Mg129 O128 2.028 . S
Mg129 O134 2.032 . S
Mg129 O136 2.079 . S
C130 O127 1.250 . S
C130 O128 1.248 . S
C131 O132 1.264 . S
C131 O139 1.249 . S
O132 C131 1.264 . S
O133 Mg126 1.986 . S
O133 C137 1.246 . S
O134 Mg129 2.032 . S
O134 C137 1.259 . S
O135 Mg126 2.114 . S
O135 C138 1.252 . S
O136 Mg126 2.251 . S
O136 Mg129 2.079 . S
O136 C138 1.273 . S
C137 O133 1.246 . S
C137 O134 1.259 . S
C138 O135 1.252 . S
C138 O136 1.273 . S
O139 Mg126 2.010 . S
O139 C131 1.249 . S
Mg140 O141 2.028 . S
Mg140 O147 1.986 . S
Mg140 O149 2.114 . S
Mg140 O150 2.251 . S
Mg140 O153 2.010 1_455 S
O141 Mg140 2.028 . S
O141 C144 1.250 . S
O142 Mg143 2.028 . S
O142 C144 1.248 . S
Mg143 O142 2.028 . S
Mg143 O148 2.032 . S
Mg143 O150 2.079 . S
C144 O141 1.250 . S
C144 O142 1.248 . S
C145 O146 1.264 . S
C145 O153 1.249 . S
O146 C145 1.264 . S
O147 Mg140 1.986 . S
O147 C151 1.246 . S
O148 Mg143 2.032 . S
O148 C151 1.259 . S
O149 Mg140 2.114 . S
O149 C152 1.252 . S
O150 Mg140 2.251 . S
O150 Mg143 2.079 . S
O150 C152 1.273 . S
C151 O147 1.246 . S
C151 O148 1.259 . S
C152 O149 1.252 . S
C152 O150 1.273 . S
O153 Mg140 2.010 1_655 S
O153 C145 1.249 . S
Mg154 O155 2.028 . S
Mg154 O161 1.986 . S
Mg154 O163 2.114 . S
Mg154 O164 2.251 . S
Mg154 O167 2.010 . S
O155 Mg154 2.028 . S
O155 C158 1.250 . S
O156 Mg157 2.028 . S
O156 C158 1.248 . S
Mg157 O156 2.028 . S
Mg157 O162 2.032 . S
Mg157 O164 2.079 . S
C158 O155 1.250 . S
C158 O156 1.248 . S
C159 O160 1.264 . S
C159 O167 1.249 . S
O160 C159 1.264 . S
O161 Mg154 1.986 . S
O161 C165 1.246 1_545 S
O162 Mg157 2.032 . S
O162 C165 1.259 1_545 S
O163 Mg154 2.114 . S
O163 C166 1.252 . S
O164 Mg154 2.251 . S
O164 Mg157 2.079 . S
O164 C166 1.273 . S
C165 O161 1.246 1_565 S
C165 O162 1.259 1_565 S
C166 O163 1.252 . S
C166 O164 1.273 . S
O167 Mg154 2.010 . S
O167 C159 1.249 . S
Mg168 O169 2.028 . S
Mg168 O175 1.986 . S
Mg168 O177 2.114 . S
Mg168 O178 2.251 . S
Mg168 O181 2.010 . S
O169 Mg168 2.028 . S
O169 C172 1.250 . S
O170 Mg171 2.028 . S
O170 C172 1.248 . S
Mg171 O170 2.028 . S
Mg171 O176 2.032 . S
Mg171 O178 2.079 . S
C172 O169 1.250 . S
C172 O170 1.248 . S
C173 O174 1.264 . S
C173 O181 1.249 . S
O174 C173 1.264 . S
O175 Mg168 1.986 . S
O175 C179 1.246 . S
O176 Mg171 2.032 . S
O176 C179 1.259 . S
O177 Mg168 2.114 . S
O177 C180 1.252 . S
O178 Mg168 2.251 . S
O178 Mg171 2.079 . S
O178 C180 1.273 . S
C179 O175 1.246 . S
C179 O176 1.259 . S
C180 O177 1.252 . S
C180 O178 1.273 . S
O181 Mg168 2.010 . S
O181 C173 1.249 . S
Mg182 O183 2.028 . S
Mg182 O189 1.986 . S
Mg182 O191 2.114 . S
Mg182 O192 2.251 . S
Mg182 O195 2.010 . S
O183 Mg182 2.028 . S
O183 C186 1.250 . S
O184 Mg185 2.028 . S
O184 C186 1.248 . S
Mg185 O184 2.028 . S
Mg185 O190 2.032 . S
Mg185 O192 2.079 . S
C186 O183 1.250 . S
C186 O184 1.248 . S
C187 O188 1.264 . S
C187 O195 1.249 . S
O188 C187 1.264 . S
O189 Mg182 1.986 . S
O189 C193 1.246 . S
O190 Mg185 2.032 . S
O190 C193 1.259 . S
O191 Mg182 2.114 . S
O191 C194 1.252 . S
O192 Mg182 2.251 . S
O192 Mg185 2.079 . S
O192 C194 1.273 . S
C193 O189 1.246 . S
C193 O190 1.259 . S
C194 O191 1.252 . S
C194 O192 1.273 . S
O195 Mg182 2.010 . S
O195 C187 1.249 . S
Mg196 O197 2.028 . S
Mg196 O203 1.986 . S
Mg196 O205 2.114 . S
Mg196 O206 2.251 . S
Mg196 O209 2.010 1_455 S
O197 Mg196 2.028 . S
O197 C200 1.250 . S
O198 Mg199 2.028 . S
O198 C200 1.248 . S
Mg199 O198 2.028 . S
Mg199 O204 2.032 . S
Mg199 O206 2.079 . S
C200 O197 1.250 . S
C200 O198 1.248 . S
C201 O202 1.264 . S
C201 O209 1.249 . S
O202 C201 1.264 . S
O203 Mg196 1.986 . S
O203 C207 1.246 . S
O204 Mg199 2.032 . S
O204 C207 1.259 . S
O205 Mg196 2.114 . S
O205 C208 1.252 . S
O206 Mg196 2.251 . S
O206 Mg199 2.079 . S
O206 C208 1.273 . S
C207 O203 1.246 . S
C207 O204 1.259 . S
C208 O205 1.252 . S
C208 O206 1.273 . S
O209 Mg196 2.010 1_655 S
O209 C201 1.249 . S
Mg210 O211 2.028 . S
Mg210 O217 1.986 . S
Mg210 O219 2.114 . S
Mg210 O220 2.251 . S
Mg210 O223 2.010 . S
O211 Mg210 2.028 . S
O211 C214 1.250 . S
O212 Mg213 2.028 . S
O212 C214 1.248 . S
Mg213 O212 2.028 . S
Mg213 O218 2.032 . S
Mg213 O220 2.079 . S
C214 O211 1.250 . S
C214 O212 1.248 . S
C215 O216 1.264 . S
C215 O223 1.249 . S
O216 C215 1.264 . S
O217 Mg210 1.986 . S
O217 C221 1.246 1_545 S
O218 Mg213 2.032 . S
O218 C221 1.259 1_545 S
O219 Mg210 2.114 . S
O219 C222 1.252 . S
O220 Mg210 2.251 . S
O220 Mg213 2.079 . S
O220 C222 1.273 . S
C221 O217 1.246 1_565 S
C221 O218 1.259 1_565 S
C222 O219 1.252 . S
C222 O220 1.273 . S
O223 Mg210 2.010 . S
O223 C215 1.249 . S
H224 C242 0.951 . S
H225 C244 0.951 . S
H226 C246 0.950 . S
H227 C247 0.950 . S
H228 C249 0.950 . S
H229 C252 0.950 . S
H230 C253 0.950 . S
H231 C255 0.950 . S
H232 C256 0.950 . S
H233 C257 0.951 1_565 S
H234 C259 0.951 . S
H235 C261 0.950 . S
H236 C262 0.950 . S
H237 C264 0.950 . S
H238 C267 0.950 . S
H239 C268 0.950 . S
H240 C270 0.957 . S
H241 C271 0.950 . S
C242 H224 0.951 . S
C242 C243 1.366 . S
C242 C244 1.388 . S
C243 C242 1.366 . S
C243 C247 1.385 . S
C244 H225 0.951 . S
C244 C242 1.388 . S
C244 C245 1.366 . S
C245 C244 1.366 . S
C245 C246 1.414 . S
C245 C248 1.499 . S
C246 H226 0.950 . S
C246 C245 1.414 . S
C246 C247 1.374 . S
C247 H227 0.950 . S
C247 C243 1.385 . S
C247 C246 1.374 . S
C248 C245 1.499 . S
C248 C249 1.373 . S
C248 C250 1.389 . S
C249 H228 0.950 . S
C249 C248 1.373 . S
C249 C265 1.377 . S
C250 C248 1.389 . S
C250 C251 1.524 . S
C250 C264 1.377 . S
C251 C250 1.524 . S
C251 C252 1.397 . S
C251 C256 1.363 . S
C252 H229 0.950 . S
C252 C251 1.397 . S
C252 C253 1.334 . S
C253 H230 0.950 . S
C253 C252 1.334 . S
C253 C254 1.287 . S
C254 C253 1.287 . S
C254 C255 1.524 . S
C254 H273 0.913 . S
C255 H231 0.950 . S
C255 C254 1.524 . S
C255 C256 1.415 . S
C256 H232 0.950 . S
C256 C251 1.363 . S
C256 C255 1.415 . S
C257 H233 0.951 1_545 S
C257 C258 1.366 . S
C257 C259 1.388 . S
C258 C257 1.366 . S
C258 C262 1.385 . S
C259 H234 0.951 . S
C259 C257 1.388 . S
C259 C260 1.366 . S
C260 C259 1.366 . S
C260 C261 1.414 . S
C260 C263 1.499 . S
C261 H235 0.950 . S
C261 C260 1.414 . S
C261 C262 1.374 . S
C262 H236 0.950 . S
C262 C258 1.385 . S
C262 C261 1.374 . S
C263 C260 1.499 . S
C263 C264 1.373 . S
C263 C265 1.389 . S
C264 H237 0.950 . S
C264 C250 1.377 . S
C264 C263 1.373 . S
C265 C249 1.377 . S
C265 C263 1.389 . S
C265 C266 1.524 . S
C266 C265 1.524 . S
C266 C267 1.397 . S
C266 C271 1.363 . S
C267 H238 0.950 . S
C267 C266 1.397 . S
C267 C268 1.334 1_545 S
C268 H239 0.950 . S
C268 C267 1.334 1_565 S
C268 C269 1.287 . S
C269 C268 1.287 . S
C269 C270 1.540 . S
C269 H272 0.999 . S
C270 H240 0.957 . S
C270 C269 1.540 . S
C270 C271 1.391 1_565 S
C271 H241 0.950 . S
C271 C266 1.363 . S
C271 C270 1.391 1_545 S
H272 C269 0.999 . S
H273 C254 0.913 . S
H274 C292 0.951 . S
H275 C294 0.951 . S
H276 C296 0.950 . S
H277 C297 0.950 . S
H278 C299 0.950 . S
H279 C302 0.950 . S
H280 C303 0.950 . S
H281 C305 0.950 . S
H282 C306 0.950 . S
H283 C307 0.951 . S
H284 C309 0.951 . S
H285 C311 0.950 . S
H286 C312 0.950 . S
H287 C314 0.950 . S
H288 C317 0.950 . S
H289 C318 0.950 . S
H290 C320 0.950 . S
H291 C321 0.950 . S
C292 H274 0.951 . S
C292 C293 1.366 . S
C292 C294 1.388 . S
C293 C292 1.366 . S
C293 C297 1.385 . S
C294 H275 0.951 . S
C294 C292 1.388 . S
C294 C295 1.366 . S
C295 C294 1.366 . S
C295 C296 1.414 . S
C295 C298 1.499 . S
C296 H276 0.950 . S
C296 C295 1.414 . S
C296 C297 1.374 . S
C297 H277 0.950 . S
C297 C293 1.385 . S
C297 C296 1.374 . S
C298 C295 1.499 . S
C298 C299 1.373 . S
C298 C300 1.389 . S
C299 H278 0.950 . S
C299 C298 1.373 . S
C299 C315 1.377 . S
C300 C298 1.389 . S
C300 C301 1.524 . S
C300 C314 1.377 . S
C301 C300 1.524 . S
C301 C302 1.397 . S
C301 C306 1.363 . S
C302 H279 0.950 . S
C302 C301 1.397 . S
C302 C303 1.334 . S
C303 H280 0.950 . S
C303 C302 1.334 . S
C303 C304 1.287 . S
C304 C303 1.287 . S
C304 C305 1.524 . S
C304 H323 0.913 . S
C305 H281 0.950 . S
C305 C304 1.524 . S
C305 C306 1.415 . S
C306 H282 0.950 . S
C306 C301 1.363 . S
C306 C305 1.415 . S
C307 H283 0.951 . S
C307 C308 1.366 . S
C307 C309 1.388 . S
C308 C307 1.366 . S
C308 C312 1.385 . S
C309 H284 0.951 . S
C309 C307 1.388 . S
C309 C310 1.366 . S
C310 C309 1.366 . S
C310 C311 1.414 . S
C310 C313 1.499 . S
C311 H285 0.950 . S
C311 C310 1.414 . S
C311 C312 1.374 . S
C312 H286 0.950 . S
C312 C308 1.385 . S
C312 C311 1.374 . S
C313 C310 1.499 . S
C313 C314 1.373 . S
C313 C315 1.389 . S
C314 H287 0.950 . S
C314 C300 1.377 . S
C314 C313 1.373 . S
C315 C299 1.377 . S
C315 C313 1.389 . S
C315 C316 1.524 . S
C316 C315 1.524 . S
C316 C317 1.397 . S
C316 C321 1.363 . S
C317 H288 0.950 . S
C317 C316 1.397 . S
C317 C318 1.334 . S
C318 H289 0.950 . S
C318 C317 1.334 . S
C318 C319 1.287 . S
C319 C318 1.287 . S
C319 C320 1.524 . S
C319 H322 0.999 . S
C320 H290 0.950 . S
C320 C319 1.524 . S
C320 C321 1.415 . S
C321 H291 0.950 . S
C321 C316 1.363 . S
C321 C320 1.415 . S
H322 C319 0.999 . S
H323 C304 0.913 . S
H324 C342 0.951 . S
H325 C344 0.951 . S
H326 C346 0.950 . S
H327 C347 0.950 . S
H328 C349 0.950 . S
H329 C352 0.950 . S
H330 C353 0.950 . S
H331 C355 0.950 . S
H332 C356 0.950 . S
H333 C357 0.951 . S
H334 C359 0.951 . S
H335 C361 0.950 . S
H336 C362 0.950 . S
H337 C364 0.950 . S
H338 C367 0.950 . S
H339 C368 0.950 . S
H340 C370 0.950 . S
H341 C371 0.950 . S
C342 H324 0.951 . S
C342 C343 1.366 . S
C342 C344 1.388 . S
C343 C342 1.366 . S
C343 C347 1.385 . S
C344 H325 0.951 . S
C344 C342 1.388 . S
C344 C345 1.366 . S
C345 C344 1.366 . S
C345 C346 1.414 . S
C345 C348 1.499 . S
C346 H326 0.950 . S
C346 C345 1.414 . S
C346 C347 1.374 . S
C347 H327 0.950 . S
C347 C343 1.385 . S
C347 C346 1.374 . S
C348 C345 1.499 . S
C348 C349 1.373 . S
C348 C350 1.389 . S
C349 H328 0.950 . S
C349 C348 1.373 . S
C349 C365 1.377 . S
C350 C348 1.389 . S
C350 C351 1.524 . S
C350 C364 1.377 . S
C351 C350 1.524 . S
C351 C352 1.397 . S
C351 C356 1.363 . S
C352 H329 0.950 . S
C352 C351 1.397 . S
C352 C353 1.334 . S
C353 H330 0.950 . S
C353 C352 1.334 . S
C353 C354 1.302 . S
C354 C353 1.302 . S
C354 C355 1.539 . S
C354 H373 0.879 1_455 S
C355 H331 0.950 . S
C355 C354 1.539 . S
C355 C356 1.415 . S
C356 H332 0.950 . S
C356 C351 1.363 . S
C356 C355 1.415 . S
C357 H333 0.951 . S
C357 C358 1.366 . S
C357 C359 1.388 . S
C358 C357 1.366 . S
C358 C362 1.385 . S
C359 H334 0.951 . S
C359 C357 1.388 . S
C359 C360 1.366 . S
C360 C359 1.366 . S
C360 C361 1.414 . S
C360 C363 1.499 . S
C361 H335 0.950 . S
C361 C360 1.414 . S
C361 C362 1.374 . S
C362 H336 0.950 . S
C362 C358 1.385 . S
C362 C361 1.374 . S
C363 C360 1.499 . S
C363 C364 1.373 . S
C363 C365 1.389 . S
C364 H337 0.950 . S
C364 C350 1.377 . S
C364 C363 1.373 . S
C365 C349 1.377 . S
C365 C363 1.389 . S
C365 C366 1.524 . S
C366 C365 1.524 . S
C366 C367 1.397 . S
C366 C371 1.363 . S
C367 H338 0.950 . S
C367 C366 1.397 . S
C367 C368 1.334 . S
C368 H339 0.950 . S
C368 C367 1.334 . S
C368 C369 1.287 . S
C369 C368 1.287 . S
C369 C370 1.524 . S
C369 H372 0.999 . S
C370 H340 0.950 . S
C370 C369 1.524 . S
C370 C371 1.415 . S
C371 H341 0.950 . S
C371 C366 1.363 . S
C371 C370 1.415 . S
H372 C369 0.999 . S
H373 C354 0.879 1_655 S
H374 C392 0.951 . S
H375 C394 0.951 . S
H376 C396 0.950 . S
H377 C397 0.950 1_565 S
H378 C399 0.950 . S
H379 C402 0.950 . S
H380 C403 0.950 1_565 S
H381 C405 0.950 . S
H382 C406 0.950 . S
H383 C407 0.951 . S
H384 C409 0.951 . S
H385 C411 0.950 . S
H386 C412 0.950 . S
H387 C414 0.950 . S
H388 C417 0.950 . S
H389 C418 0.950 . S
H390 C420 0.950 . S
H391 C421 0.950 . S
C392 H374 0.951 . S
C392 C393 1.366 . S
C392 C394 1.388 . S
C393 C392 1.366 . S
C393 C397 1.385 . S
C394 H375 0.951 . S
C394 C392 1.388 . S
C394 C395 1.366 . S
C395 C394 1.366 . S
C395 C396 1.414 . S
C395 C398 1.499 . S
C396 H376 0.950 . S
C396 C395 1.414 . S
C396 C397 1.374 . S
C397 H377 0.950 1_545 S
C397 C393 1.385 . S
C397 C396 1.374 . S
C398 C395 1.499 . S
C398 C399 1.373 . S
C398 C400 1.389 . S
C399 H378 0.950 . S
C399 C398 1.373 . S
C399 C415 1.377 . S
C400 C398 1.389 . S
C400 C401 1.524 . S
C400 C414 1.377 . S
C401 C400 1.524 . S
C401 C402 1.397 . S
C401 C406 1.363 . S
C402 H379 0.950 . S
C402 C401 1.397 . S
C402 C403 1.334 . S
C403 H380 0.950 1_545 S
C403 C402 1.334 . S
C403 C404 1.287 . S
C404 C403 1.287 . S
C404 C405 1.524 . S
C404 H423 0.913 . S
C405 H381 0.950 . S
C405 C404 1.524 . S
C405 C406 1.415 . S
C406 H382 0.950 . S
C406 C401 1.363 . S
C406 C405 1.415 . S
C407 H383 0.951 . S
C407 C408 1.366 . S
C407 C409 1.388 . S
C408 C407 1.366 . S
C408 C412 1.385 . S
C409 H384 0.951 . S
C409 C407 1.388 . S
C409 C410 1.366 . S
C410 C409 1.366 . S
C410 C411 1.414 . S
C410 C413 1.499 . S
C411 H385 0.950 . S
C411 C410 1.414 . S
C411 C412 1.374 . S
C412 H386 0.950 . S
C412 C408 1.385 . S
C412 C411 1.374 . S
C413 C410 1.499 . S
C413 C414 1.373 . S
C413 C415 1.389 . S
C414 H387 0.950 . S
C414 C400 1.377 . S
C414 C413 1.373 . S
C415 C399 1.377 . S
C415 C413 1.389 . S
C415 C416 1.524 . S
C416 C415 1.524 . S
C416 C417 1.397 . S
C416 C421 1.363 . S
C417 H388 0.950 . S
C417 C416 1.397 . S
C417 C418 1.334 . S
C418 H389 0.950 . S
C418 C417 1.334 . S
C418 C419 1.287 . S
C419 C418 1.287 . S
C419 C420 1.524 . S
C419 H422 0.999 . S
C420 H390 0.950 . S
C420 C419 1.524 . S
C420 C421 1.415 . S
C421 H391 0.950 . S
C421 C416 1.363 . S
C421 C420 1.415 . S
H422 C419 0.999 . S
H423 C404 0.913 . S
H424 C442 0.951 . S
H425 C444 0.951 . S
H426 C446 0.950 . S
H427 C447 0.950 . S
H428 C449 0.950 . S
H429 C452 0.950 . S
H430 C453 0.950 . S
H431 C455 0.950 . S
H432 C456 0.950 . S
H433 C457 0.951 . S
H434 C459 0.951 . S
H435 C461 0.950 . S
H436 C462 0.950 . S
H437 C464 0.950 . S
H438 C467 0.950 . S
H439 C468 0.950 . S
H440 C470 0.950 . S
H441 C471 0.950 . S
C442 H424 0.951 . S
C442 C443 1.366 . S
C442 C444 1.388 . S
C443 C442 1.366 . S
C443 C447 1.385 . S
C444 H425 0.951 . S
C444 C442 1.388 . S
C444 C445 1.366 . S
C445 C444 1.366 . S
C445 C446 1.414 . S
C445 C448 1.499 . S
C446 H426 0.950 . S
C446 C445 1.414 . S
C446 C447 1.374 . S
C447 H427 0.950 . S
C447 C443 1.385 . S
C447 C446 1.374 . S
C448 C445 1.499 . S
C448 C449 1.373 . S
C448 C450 1.389 . S
C449 H428 0.950 . S
C449 C448 1.373 . S
C449 C465 1.377 . S
C450 C448 1.389 . S
C450 C451 1.524 . S
C450 C464 1.377 . S
C451 C450 1.524 . S
C451 C452 1.397 . S
C451 C456 1.363 . S
C452 H429 0.950 . S
C452 C451 1.397 . S
C452 C453 1.334 . S
C453 H430 0.950 . S
C453 C452 1.334 . S
C453 C454 1.287 . S
C454 C453 1.287 . S
C454 C455 1.524 . S
C454 H473 0.913 . S
C455 H431 0.950 . S
C455 C454 1.524 . S
C455 C456 1.415 . S
C456 H432 0.950 . S
C456 C451 1.363 . S
C456 C455 1.415 . S
C457 H433 0.951 . S
C457 C458 1.366 . S
C457 C459 1.388 . S
C458 C457 1.366 . S
C458 C462 1.385 . S
C459 H434 0.951 . S
C459 C457 1.388 . S
C459 C460 1.366 . S
C460 C459 1.366 . S
C460 C461 1.414 . S
C460 C463 1.499 . S
C461 H435 0.950 . S
C461 C460 1.414 . S
C461 C462 1.374 . S
C462 H436 0.950 . S
C462 C458 1.385 . S
C462 C461 1.374 . S
C463 C460 1.499 . S
C463 C464 1.373 . S
C463 C465 1.389 . S
C464 H437 0.950 . S
C464 C450 1.377 . S
C464 C463 1.373 . S
C465 C449 1.377 . S
C465 C463 1.389 . S
C465 C466 1.524 . S
C466 C465 1.524 . S
C466 C467 1.397 . S
C466 C471 1.363 . S
C467 H438 0.950 . S
C467 C466 1.397 . S
C467 C468 1.334 . S
C468 H439 0.950 . S
C468 C467 1.334 . S
C468 C469 1.287 . S
C469 C468 1.287 . S
C469 C470 1.524 . S
C469 H472 0.999 . S
C470 H440 0.950 . S
C470 C469 1.524 . S
C470 C471 1.415 . S
C471 H441 0.950 . S
C471 C466 1.363 . S
C471 C470 1.415 . S
H472 C469 0.999 . S
H473 C454 0.913 . S
H474 C492 0.951 . S
H475 C494 0.951 . S
H476 C496 0.950 . S
H477 C497 0.950 . S
H478 C499 0.950 . S
H479 C502 0.950 . S
H480 C503 0.950 . S
H481 C505 0.950 . S
H482 C506 0.950 . S
H483 C507 0.951 . S
H484 C509 0.951 . S
H485 C511 0.950 . S
H486 C512 0.950 . S
H487 C514 0.950 . S
H488 C517 0.950 . S
H489 C518 0.950 . S
H490 C520 0.950 . S
H491 C521 0.950 . S
C492 H474 0.951 . S
C492 C493 1.366 . S
C492 C494 1.388 . S
C493 C492 1.366 . S
C493 C497 1.385 . S
C494 H475 0.951 . S
C494 C492 1.388 . S
C494 C495 1.366 . S
C495 C494 1.366 . S
C495 C496 1.414 . S
C495 C498 1.499 . S
C496 H476 0.950 . S
C496 C495 1.414 . S
C496 C497 1.374 . S
C497 H477 0.950 . S
C497 C493 1.385 . S
C497 C496 1.374 . S
C498 C495 1.499 . S
C498 C499 1.373 . S
C498 C500 1.389 . S
C499 H478 0.950 . S
C499 C498 1.373 . S
C499 C515 1.377 . S
C500 C498 1.389 . S
C500 C501 1.524 . S
C500 C514 1.377 . S
C501 C500 1.524 . S
C501 C502 1.397 . S
C501 C506 1.363 . S
C502 H479 0.950 . S
C502 C501 1.397 . S
C502 C503 1.334 . S
C503 H480 0.950 . S
C503 C502 1.334 . S
C503 C504 1.287 . S
C504 C503 1.287 . S
C504 C505 1.524 . S
C504 H523 0.913 . S
C505 H481 0.950 . S
C505 C504 1.524 . S
C505 C506 1.415 . S
C506 H482 0.950 . S
C506 C501 1.363 . S
C506 C505 1.415 . S
C507 H483 0.951 . S
C507 C508 1.366 . S
C507 C509 1.388 . S
C508 C507 1.366 . S
C508 C512 1.385 . S
C509 H484 0.951 . S
C509 C507 1.388 . S
C509 C510 1.366 . S
C510 C509 1.366 . S
C510 C511 1.414 . S
C510 C513 1.499 . S
C511 H485 0.950 . S
C511 C510 1.414 . S
C511 C512 1.374 . S
C512 H486 0.950 . S
C512 C508 1.385 . S
C512 C511 1.374 . S
C513 C510 1.499 . S
C513 C514 1.373 . S
C513 C515 1.389 . S
C514 H487 0.950 . S
C514 C500 1.377 . S
C514 C513 1.373 . S
C515 C499 1.377 . S
C515 C513 1.389 . S
C515 C516 1.524 . S
C516 C515 1.524 . S
C516 C517 1.397 . S
C516 C521 1.363 . S
C517 H488 0.950 . S
C517 C516 1.397 . S
C517 C518 1.334 . S
C518 H489 0.950 . S
C518 C517 1.334 . S
C518 C519 1.287 . S
C519 C518 1.287 . S
C519 C520 1.524 . S
C519 H522 0.999 . S
C520 H490 0.950 . S
C520 C519 1.524 . S
C520 C521 1.415 . S
C521 H491 0.950 . S
C521 C516 1.363 . S
C521 C520 1.415 . S
H522 C519 0.999 . S
H523 C504 0.913 . S
H524 C542 0.951 . S
H525 C544 0.951 . S
H526 C546 0.950 . S
H527 C547 0.950 . S
H528 C549 0.950 . S
H529 C552 0.950 . S
H530 C553 0.950 . S
H531 C555 0.950 . S
H532 C556 0.950 . S
H533 C557 0.951 . S
H534 C559 0.951 . S
H535 C561 0.950 . S
H536 C562 0.950 . S
H537 C564 0.950 . S
H538 C567 0.950 . S
H539 C568 0.950 . S
H540 C570 0.950 . S
H541 C571 0.950 . S
C542 H524 0.951 . S
C542 C543 1.366 . S
C542 C544 1.388 . S
C543 C542 1.366 . S
C543 C547 1.385 . S
C544 H525 0.951 . S
C544 C542 1.388 . S
C544 C545 1.366 . S
C545 C544 1.366 . S
C545 C546 1.414 . S
C545 C548 1.499 . S
C546 H526 0.950 . S
C546 C545 1.414 . S
C546 C547 1.374 . S
C547 H527 0.950 . S
C547 C543 1.385 . S
C547 C546 1.374 . S
C548 C545 1.499 . S
C548 C549 1.373 . S
C548 C550 1.389 . S
C549 H528 0.950 . S
C549 C548 1.373 . S
C549 C565 1.377 . S
C550 C548 1.389 . S
C550 C551 1.524 . S
C550 C564 1.377 . S
C551 C550 1.524 . S
C551 C552 1.397 . S
C551 C556 1.363 . S
C552 H529 0.950 . S
C552 C551 1.397 . S
C552 C553 1.334 . S
C553 H530 0.950 . S
C553 C552 1.334 . S
C553 C554 1.287 . S
C554 C553 1.287 . S
C554 C555 1.524 . S
C554 H573 0.913 . S
C555 H531 0.950 . S
C555 C554 1.524 . S
C555 C556 1.415 . S
C556 H532 0.950 . S
C556 C551 1.363 . S
C556 C555 1.415 . S
C557 H533 0.951 . S
C557 C558 1.366 . S
C557 C559 1.388 . S
C558 C557 1.366 . S
C558 C562 1.385 . S
C559 H534 0.951 . S
C559 C557 1.388 . S
C559 C560 1.366 . S
C560 C559 1.366 . S
C560 C561 1.414 . S
C560 C563 1.499 . S
C561 H535 0.950 . S
C561 C560 1.414 . S
C561 C562 1.374 . S
C562 H536 0.950 . S
C562 C558 1.385 . S
C562 C561 1.374 . S
C563 C560 1.499 . S
C563 C564 1.373 . S
C563 C565 1.389 . S
C564 H537 0.950 . S
C564 C550 1.377 . S
C564 C563 1.373 . S
C565 C549 1.377 . S
C565 C563 1.389 . S
C565 C566 1.524 . S
C566 C565 1.524 . S
C566 C567 1.397 . S
C566 C571 1.363 . S
C567 H538 0.950 . S
C567 C566 1.397 . S
C567 C568 1.334 . S
C568 H539 0.950 . S
C568 C567 1.334 . S
C568 C569 1.287 . S
C569 C568 1.287 . S
C569 C570 1.524 . S
C569 H572 0.999 . S
C570 H540 0.950 . S
C570 C569 1.524 . S
C570 C571 1.415 . S
C571 H541 0.950 . S
C571 C566 1.363 . S
C571 C570 1.415 . S
H572 C569 0.999 . S
H573 C554 0.913 . S
H574 C592 0.951 . S
H575 C594 0.951 . S
H576 C596 0.950 . S
H577 C597 0.950 . S
H578 C599 0.950 . S
H579 C602 0.950 . S
H580 C603 0.950 . S
H581 C605 0.950 . S
H582 C606 0.950 . S
H583 C607 0.951 . S
H584 C609 0.951 . S
H585 C611 0.950 . S
H586 C612 0.950 . S
H587 C614 0.950 . S
H588 C617 0.950 . S
H589 C618 0.950 . S
H590 C620 0.950 . S
H591 C621 0.950 . S
C592 H574 0.951 . S
C592 C593 1.366 . S
C592 C594 1.388 . S
C593 C592 1.366 . S
C593 C597 1.385 . S
C594 H575 0.951 . S
C594 C592 1.388 . S
C594 C595 1.366 . S
C595 C594 1.366 . S
C595 C596 1.414 . S
C595 C598 1.499 . S
C596 H576 0.950 . S
C596 C595 1.414 . S
C596 C597 1.374 . S
C597 H577 0.950 . S
C597 C593 1.385 . S
C597 C596 1.374 . S
C598 C595 1.499 . S
C598 C599 1.373 . S
C598 C600 1.389 . S
C599 H578 0.950 . S
C599 C598 1.373 . S
C599 C615 1.377 . S
C600 C598 1.389 . S
C600 C601 1.524 . S
C600 C614 1.377 . S
C601 C600 1.524 . S
C601 C602 1.397 . S
C601 C606 1.363 . S
C602 H579 0.950 . S
C602 C601 1.397 . S
C602 C603 1.334 . S
C603 H580 0.950 . S
C603 C602 1.334 . S
C603 C604 1.287 . S
C604 C603 1.287 . S
C604 C605 1.524 . S
C604 H623 0.913 . S
C605 H581 0.950 . S
C605 C604 1.524 . S
C605 C606 1.415 . S
C606 H582 0.950 . S
C606 C601 1.363 . S
C606 C605 1.415 . S
C607 H583 0.951 . S
C607 C608 1.366 . S
C607 C609 1.388 . S
C608 C607 1.366 . S
C608 C612 1.385 . S
C609 H584 0.951 . S
C609 C607 1.388 . S
C609 C610 1.366 . S
C610 C609 1.366 . S
C610 C611 1.414 . S
C610 C613 1.499 . S
C611 H585 0.950 . S
C611 C610 1.414 . S
C611 C612 1.374 . S
C612 H586 0.950 . S
C612 C608 1.385 . S
C612 C611 1.374 . S
C613 C610 1.499 . S
C613 C614 1.373 . S
C613 C615 1.389 . S
C614 H587 0.950 . S
C614 C600 1.377 . S
C614 C613 1.373 . S
C615 C599 1.377 . S
C615 C613 1.389 . S
C615 C616 1.524 . S
C616 C615 1.524 . S
C616 C617 1.397 . S
C616 C621 1.363 . S
C617 H588 0.950 . S
C617 C616 1.397 . S
C617 C618 1.334 . S
C618 H589 0.950 . S
C618 C617 1.334 . S
C618 C619 1.287 . S
C619 C618 1.287 . S
C619 C620 1.524 . S
C619 H622 0.999 . S
C620 H590 0.950 . S
C620 C619 1.524 . S
C620 C621 1.415 . S
C621 H591 0.950 . S
C621 C616 1.363 . S
C621 C620 1.415 . S
H622 C619 0.999 . S
H623 C604 0.913 . S
H624 C642 0.951 . S
H625 C644 0.951 . S
H626 C646 0.950 . S
H627 C647 0.950 . S
H628 C649 0.950 . S
H629 C652 0.950 . S
H630 C653 0.950 . S
H631 C655 0.950 . S
H632 C656 0.950 . S
H633 C657 0.951 . S
H634 C659 0.951 . S
H635 C661 0.950 . S
H636 C662 0.950 . S
H637 C664 0.950 . S
H638 C667 0.950 . S
H639 C668 0.950 . S
H640 C670 0.950 . S
H641 C671 0.950 . S
C642 H624 0.951 . S
C642 C643 1.366 . S
C642 C644 1.388 . S
C643 C642 1.366 . S
C643 C647 1.385 . S
C644 H625 0.951 . S
C644 C642 1.388 . S
C644 C645 1.366 . S
C645 C644 1.366 . S
C645 C646 1.414 . S
C645 C648 1.499 . S
C646 H626 0.950 . S
C646 C645 1.414 . S
C646 C647 1.374 . S
C647 H627 0.950 . S
C647 C643 1.385 . S
C647 C646 1.374 . S
C648 C645 1.499 . S
C648 C649 1.373 . S
C648 C650 1.389 . S
C649 H628 0.950 . S
C649 C648 1.373 . S
C649 C665 1.377 . S
C650 C648 1.389 . S
C650 C651 1.524 . S
C650 C664 1.377 . S
C651 C650 1.524 . S
C651 C652 1.397 . S
C651 C656 1.363 . S
C652 H629 0.950 . S
C652 C651 1.397 . S
C652 C653 1.334 . S
C653 H630 0.950 . S
C653 C652 1.334 . S
C653 C654 1.287 . S
C654 C653 1.287 . S
C654 C655 1.524 . S
C654 H673 0.913 . S
C655 H631 0.950 . S
C655 C654 1.524 . S
C655 C656 1.415 . S
C656 H632 0.950 . S
C656 C651 1.363 . S
C656 C655 1.415 . S
C657 H633 0.951 . S
C657 C658 1.366 . S
C657 C659 1.388 . S
C658 C657 1.366 . S
C658 C662 1.385 . S
C659 H634 0.951 . S
C659 C657 1.388 . S
C659 C660 1.366 . S
C660 C659 1.366 . S
C660 C661 1.414 . S
C660 C663 1.499 . S
C661 H635 0.950 . S
C661 C660 1.414 . S
C661 C662 1.374 . S
C662 H636 0.950 . S
C662 C658 1.385 . S
C662 C661 1.374 . S
C663 C660 1.499 . S
C663 C664 1.373 . S
C663 C665 1.389 . S
C664 H637 0.950 . S
C664 C650 1.377 . S
C664 C663 1.373 . S
C665 C649 1.377 . S
C665 C663 1.389 . S
C665 C666 1.524 . S
C666 C665 1.524 . S
C666 C667 1.397 . S
C666 C671 1.363 . S
C667 H638 0.950 . S
C667 C666 1.397 . S
C667 C668 1.334 . S
C668 H639 0.950 . S
C668 C667 1.334 . S
C668 C669 1.287 . S
C669 C668 1.287 . S
C669 C670 1.524 . S
C669 H672 0.999 . S
C670 H640 0.950 . S
C670 C669 1.524 . S
C670 C671 1.415 . S
C671 H641 0.950 . S
C671 C666 1.363 . S
C671 C670 1.415 . S
H672 C669 0.999 . S
H673 C654 0.913 . S
H674 C692 0.951 . S
H675 C694 0.951 . S
H676 C696 0.950 . S
H677 C697 0.950 . S
H678 C699 0.950 . S
H679 C702 0.950 . S
H680 C703 0.950 . S
H681 C705 0.950 . S
H682 C706 0.950 . S
H683 C707 0.951 . S
H684 C709 0.951 . S
H685 C711 0.950 . S
H686 C712 0.950 . S
H687 C714 0.950 . S
H688 C717 0.950 . S
H689 C718 0.950 . S
H690 C720 0.950 . S
H691 C721 0.950 . S
C692 H674 0.951 . S
C692 C693 1.366 . S
C692 C694 1.388 . S
C693 C692 1.366 . S
C693 C697 1.385 . S
C694 H675 0.951 . S
C694 C692 1.388 . S
C694 C695 1.366 . S
C695 C694 1.366 . S
C695 C696 1.414 . S
C695 C698 1.499 . S
C696 H676 0.950 . S
C696 C695 1.414 . S
C696 C697 1.374 . S
C697 H677 0.950 . S
C697 C693 1.385 . S
C697 C696 1.374 . S
C698 C695 1.499 . S
C698 C699 1.373 . S
C698 C700 1.389 . S
C699 H678 0.950 . S
C699 C698 1.373 . S
C699 C715 1.377 . S
C700 C698 1.389 . S
C700 C701 1.524 . S
C700 C714 1.377 . S
C701 C700 1.524 . S
C701 C702 1.397 . S
C701 C706 1.363 . S
C702 H679 0.950 . S
C702 C701 1.397 . S
C702 C703 1.334 . S
C703 H680 0.950 . S
C703 C702 1.334 . S
C703 C704 1.287 . S
C704 C703 1.287 . S
C704 C705 1.524 . S
C704 H723 0.913 . S
C705 H681 0.950 . S
C705 C704 1.524 . S
C705 C706 1.415 . S
C706 H682 0.950 . S
C706 C701 1.363 . S
C706 C705 1.415 . S
C707 H683 0.951 . S
C707 C708 1.366 . S
C707 C709 1.388 . S
C708 C707 1.366 . S
C708 C712 1.385 . S
C709 H684 0.951 . S
C709 C707 1.388 . S
C709 C710 1.366 . S
C710 C709 1.366 . S
C710 C711 1.414 . S
C710 C713 1.499 . S
C711 H685 0.950 . S
C711 C710 1.414 . S
C711 C712 1.374 . S
C712 H686 0.950 . S
C712 C708 1.385 . S
C712 C711 1.374 . S
C713 C710 1.499 . S
C713 C714 1.373 . S
C713 C715 1.389 . S
C714 H687 0.950 . S
C714 C700 1.377 . S
C714 C713 1.373 . S
C715 C699 1.377 . S
C715 C713 1.389 . S
C715 C716 1.524 . S
C716 C715 1.524 . S
C716 C717 1.397 . S
C716 C721 1.363 . S
C717 H688 0.950 . S
C717 C716 1.397 . S
C717 C718 1.334 . S
C718 H689 0.950 . S
C718 C717 1.334 . S
C718 C719 1.287 . S
C719 C718 1.287 . S
C719 C720 1.524 . S
C719 H722 0.999 . S
C720 H690 0.950 . S
C720 C719 1.524 . S
C720 C721 1.415 . S
C721 H691 0.950 . S
C721 C716 1.363 . S
C721 C720 1.415 . S
H722 C719 0.999 . S
H723 C704 0.913 . S
H724 C742 0.951 . S
H725 C744 0.951 . S
H726 C746 0.950 . S
H727 C747 0.950 . S
H728 C749 0.950 . S
H729 C752 0.950 . S
H730 C753 0.950 . S
H731 C755 0.950 . S
H732 C756 0.950 . S
H733 C757 0.951 . S
H734 C759 0.951 . S
H735 C761 0.950 . S
H736 C762 0.950 . S
H737 C764 0.950 . S
H738 C767 0.950 . S
H739 C768 0.950 . S
H740 C770 0.950 . S
H741 C771 0.950 . S
C742 H724 0.951 . S
C742 C743 1.366 . S
C742 C744 1.388 . S
C743 C742 1.366 . S
C743 C747 1.385 . S
C744 H725 0.951 . S
C744 C742 1.388 . S
C744 C745 1.366 . S
C745 C744 1.366 . S
C745 C746 1.414 . S
C745 C748 1.499 . S
C746 H726 0.950 . S
C746 C745 1.414 . S
C746 C747 1.374 . S
C747 H727 0.950 . S
C747 C743 1.385 . S
C747 C746 1.374 . S
C748 C745 1.499 . S
C748 C749 1.373 . S
C748 C750 1.389 . S
C749 H728 0.950 . S
C749 C748 1.373 . S
C749 C765 1.377 . S
C750 C748 1.389 . S
C750 C751 1.524 . S
C750 C764 1.377 . S
C751 C750 1.524 . S
C751 C752 1.397 . S
C751 C756 1.363 . S
C752 H729 0.950 . S
C752 C751 1.397 . S
C752 C753 1.334 . S
C753 H730 0.950 . S
C753 C752 1.334 . S
C753 C754 1.287 . S
C754 C753 1.287 . S
C754 C755 1.524 . S
C754 H773 0.913 . S
C755 H731 0.950 . S
C755 C754 1.524 . S
C755 C756 1.415 . S
C756 H732 0.950 . S
C756 C751 1.363 . S
C756 C755 1.415 . S
C757 H733 0.951 . S
C757 C758 1.366 . S
C757 C759 1.388 . S
C758 C757 1.366 . S
C758 C762 1.385 . S
C759 H734 0.951 . S
C759 C757 1.388 . S
C759 C760 1.366 . S
C760 C759 1.366 . S
C760 C761 1.414 . S
C760 C763 1.499 . S
C761 H735 0.950 . S
C761 C760 1.414 . S
C761 C762 1.374 . S
C762 H736 0.950 . S
C762 C758 1.385 . S
C762 C761 1.374 . S
C763 C760 1.499 . S
C763 C764 1.373 . S
C763 C765 1.389 . S
C764 H737 0.950 . S
C764 C750 1.377 . S
C764 C763 1.373 . S
C765 C749 1.377 . S
C765 C763 1.389 . S
C765 C766 1.524 . S
C766 C765 1.524 . S
C766 C767 1.397 . S
C766 C771 1.363 . S
C767 H738 0.950 . S
C767 C766 1.397 . S
C767 C768 1.334 . S
C768 H739 0.950 . S
C768 C767 1.334 . S
C768 C769 1.287 . S
C769 C768 1.287 . S
C769 C770 1.524 . S
C769 H772 0.999 . S
C770 H740 0.950 . S
C770 C769 1.524 . S
C770 C771 1.415 . S
C771 H741 0.950 . S
C771 C766 1.363 . S
C771 C770 1.415 . S
H772 C769 0.999 . S
H773 C754 0.913 . S
H774 C792 0.951 . S
H775 C794 0.951 . S
H776 C796 0.950 . S
H777 C797 0.950 . S
H778 C799 0.950 . S
H779 C802 0.950 . S
H780 C803 0.950 . S
H781 C805 0.950 . S
H782 C806 0.950 . S
H783 C807 0.951 . S
H784 C809 0.951 . S
H785 C811 0.950 . S
H786 C812 0.950 . S
H787 C814 0.950 . S
H788 C817 0.950 . S
H789 C818 0.950 . S
H790 C820 0.950 . S
H791 C821 0.950 . S
C792 H774 0.951 . S
C792 C793 1.366 . S
C792 C794 1.388 . S
C793 C792 1.366 . S
C793 C797 1.385 . S
C794 H775 0.951 . S
C794 C792 1.388 . S
C794 C795 1.366 . S
C795 C794 1.366 . S
C795 C796 1.414 . S
C795 C798 1.499 . S
C796 H776 0.950 . S
C796 C795 1.414 . S
C796 C797 1.374 . S
C797 H777 0.950 . S
C797 C793 1.385 . S
C797 C796 1.374 . S
C798 C795 1.499 . S
C798 C799 1.373 . S
C798 C800 1.389 . S
C799 H778 0.950 . S
C799 C798 1.373 . S
C799 C815 1.377 . S
C800 C798 1.389 . S
C800 C801 1.524 . S
C800 C814 1.377 . S
C801 C800 1.524 . S
C801 C802 1.397 . S
C801 C806 1.363 . S
C802 H779 0.950 . S
C802 C801 1.397 . S
C802 C803 1.334 . S
C803 H780 0.950 . S
C803 C802 1.334 . S
C803 C804 1.287 . S
C804 C803 1.287 . S
C804 C805 1.524 . S
C804 H823 0.913 . S
C805 H781 0.950 . S
C805 C804 1.524 . S
C805 C806 1.415 . S
C806 H782 0.950 . S
C806 C801 1.363 . S
C806 C805 1.415 . S
C807 H783 0.951 . S
C807 C808 1.366 . S
C807 C809 1.388 . S
C808 C807 1.366 . S
C808 C812 1.385 . S
C809 H784 0.951 . S
C809 C807 1.388 . S
C809 C810 1.366 . S
C810 C809 1.366 . S
C810 C811 1.414 . S
C810 C813 1.499 . S
C811 H785 0.950 . S
C811 C810 1.414 . S
C811 C812 1.374 . S
C812 H786 0.950 . S
C812 C808 1.385 . S
C812 C811 1.374 . S
C813 C810 1.499 . S
C813 C814 1.373 . S
C813 C815 1.389 . S
C814 H787 0.950 . S
C814 C800 1.377 . S
C814 C813 1.373 . S
C815 C799 1.377 . S
C815 C813 1.389 . S
C815 C816 1.524 . S
C816 C815 1.524 . S
C816 C817 1.397 . S
C816 C821 1.363 . S
C817 H788 0.950 . S
C817 C816 1.397 . S
C817 C818 1.334 . S
C818 H789 0.950 . S
C818 C817 1.334 . S
C818 C819 1.287 . S
C819 C818 1.287 . S
C819 C820 1.524 . S
C819 H822 0.999 . S
C820 H790 0.950 . S
C820 C819 1.524 . S
C820 C821 1.415 . S
C821 H791 0.950 . S
C821 C816 1.363 . S
C821 C820 1.415 . S
H822 C819 0.999 . S
H823 C804 0.913 . S
H824 C842 0.951 . S
H825 C844 0.951 . S
H826 C846 0.950 . S
H827 C847 0.950 . S
H828 C849 0.950 . S
H829 C852 0.950 . S
H830 C853 0.950 . S
H831 C855 0.950 . S
H832 C856 0.950 . S
H833 C857 0.951 . S
H834 C859 0.951 . S
H835 C861 0.950 . S
H836 C862 0.950 . S
H837 C864 0.950 . S
H838 C867 0.950 . S
H839 C868 0.950 . S
H840 C870 0.950 . S
H841 C871 0.950 . S
C842 H824 0.951 . S
C842 C843 1.366 . S
C842 C844 1.388 . S
C843 C842 1.366 . S
C843 C847 1.385 . S
C844 H825 0.951 . S
C844 C842 1.388 . S
C844 C845 1.366 . S
C845 C844 1.366 . S
C845 C846 1.414 . S
C845 C848 1.499 . S
C846 H826 0.950 . S
C846 C845 1.414 . S
C846 C847 1.374 . S
C847 H827 0.950 . S
C847 C843 1.385 . S
C847 C846 1.374 . S
C848 C845 1.499 . S
C848 C849 1.373 . S
C848 C850 1.389 . S
C849 H828 0.950 . S
C849 C848 1.373 . S
C849 C865 1.377 . S
C850 C848 1.389 . S
C850 C851 1.524 . S
C850 C864 1.377 . S
C851 C850 1.524 . S
C851 C852 1.397 . S
C851 C856 1.363 . S
C852 H829 0.950 . S
C852 C851 1.397 . S
C852 C853 1.334 . S
C853 H830 0.950 . S
C853 C852 1.334 . S
C853 C854 1.287 . S
C854 C853 1.287 . S
C854 C855 1.524 . S
C854 H873 0.913 . S
C855 H831 0.950 . S
C855 C854 1.524 . S
C855 C856 1.415 . S
C856 H832 0.950 . S
C856 C851 1.363 . S
C856 C855 1.415 . S
C857 H833 0.951 . S
C857 C858 1.366 . S
C857 C859 1.388 . S
C858 C857 1.366 . S
C858 C862 1.385 . S
C859 H834 0.951 . S
C859 C857 1.388 . S
C859 C860 1.366 . S
C860 C859 1.366 . S
C860 C861 1.414 . S
C860 C863 1.499 . S
C861 H835 0.950 . S
C861 C860 1.414 . S
C861 C862 1.374 . S
C862 H836 0.950 . S
C862 C858 1.385 . S
C862 C861 1.374 . S
C863 C860 1.499 . S
C863 C864 1.373 . S
C863 C865 1.389 . S
C864 H837 0.950 . S
C864 C850 1.377 . S
C864 C863 1.373 . S
C865 C849 1.377 . S
C865 C863 1.389 . S
C865 C866 1.524 . S
C866 C865 1.524 . S
C866 C867 1.397 . S
C866 C871 1.363 . S
C867 H838 0.950 . S
C867 C866 1.397 . S
C867 C868 1.334 . S
C868 H839 0.950 . S
C868 C867 1.334 . S
C868 C869 1.287 . S
C869 C868 1.287 . S
C869 C870 1.524 . S
C869 H872 0.999 . S
C870 H840 0.950 . S
C870 C869 1.524 . S
C870 C871 1.415 . S
C871 H841 0.950 . S
C871 C866 1.363 . S
C871 C870 1.415 . S
H872 C869 0.999 . S
H873 C854 0.913 . S
H874 C892 0.951 . S
H875 C894 0.951 . S
H876 C896 0.950 . S
H877 C897 0.950 . S
H878 C899 0.950 . S
H879 C902 0.950 . S
H880 C903 0.950 . S
H881 C905 0.950 . S
H882 C906 0.950 . S
H883 C907 0.951 . S
H884 C909 0.951 . S
H885 C911 0.950 . S
H886 C912 0.950 . S
H887 C914 0.950 . S
H888 C917 0.950 . S
H889 C918 0.950 . S
H890 C920 0.950 . S
H891 C921 0.950 . S
C892 H874 0.951 . S
C892 C893 1.366 . S
C892 C894 1.388 . S
C893 C892 1.366 . S
C893 C897 1.385 . S
C894 H875 0.951 . S
C894 C892 1.388 . S
C894 C895 1.366 . S
C895 C894 1.366 . S
C895 C896 1.414 . S
C895 C898 1.499 . S
C896 H876 0.950 . S
C896 C895 1.414 . S
C896 C897 1.374 . S
C897 H877 0.950 . S
C897 C893 1.385 . S
C897 C896 1.374 . S
C898 C895 1.499 . S
C898 C899 1.373 . S
C898 C900 1.389 . S
C899 H878 0.950 . S
C899 C898 1.373 . S
C899 C915 1.377 . S
C900 C898 1.389 . S
C900 C901 1.524 . S
C900 C914 1.377 . S
C901 C900 1.524 . S
C901 C902 1.397 . S
C901 C906 1.363 . S
C902 H879 0.950 . S
C902 C901 1.397 . S
C902 C903 1.334 . S
C903 H880 0.950 . S
C903 C902 1.334 . S
C903 C904 1.287 . S
C904 C903 1.287 . S
C904 C905 1.524 . S
C904 H923 0.913 . S
C905 H881 0.950 . S
C905 C904 1.524 . S
C905 C906 1.415 . S
C906 H882 0.950 . S
C906 C901 1.363 . S
C906 C905 1.415 . S
C907 H883 0.951 . S
C907 C908 1.366 . S
C907 C909 1.388 . S
C908 C907 1.366 . S
C908 C912 1.385 . S
C909 H884 0.951 . S
C909 C907 1.388 . S
C909 C910 1.366 . S
C910 C909 1.366 . S
C910 C911 1.414 . S
C910 C913 1.499 . S
C911 H885 0.950 . S
C911 C910 1.414 . S
C911 C912 1.374 . S
C912 H886 0.950 . S
C912 C908 1.385 . S
C912 C911 1.374 . S
C913 C910 1.499 . S
C913 C914 1.373 . S
C913 C915 1.389 . S
C914 H887 0.950 . S
C914 C900 1.377 . S
C914 C913 1.373 . S
C915 C899 1.377 . S
C915 C913 1.389 . S
C915 C916 1.524 . S
C916 C915 1.524 . S
C916 C917 1.397 . S
C916 C921 1.363 . S
C917 H888 0.950 . S
C917 C916 1.397 . S
C917 C918 1.334 . S
C918 H889 0.950 . S
C918 C917 1.334 . S
C918 C919 1.287 . S
C919 C918 1.287 . S
C919 C920 1.524 . S
C919 H922 0.999 . S
C920 H890 0.950 . S
C920 C919 1.524 . S
C920 C921 1.415 . S
C921 H891 0.950 . S
C921 C916 1.363 . S
C921 C920 1.415 . S
H922 C919 0.999 . S
H923 C904 0.913 . S
H924 C942 0.951 . S
H925 C944 0.951 . S
H926 C946 0.950 . S
H927 C947 0.950 . S
H928 C949 0.950 . S
H929 C952 0.950 . S
H930 C953 0.950 . S
H931 C955 0.950 . S
H932 C956 0.950 . S
H933 C957 0.951 . S
H934 C959 0.951 . S
H935 C961 0.950 . S
H936 C962 0.950 . S
H937 C964 0.950 . S
H938 C967 0.950 . S
H939 C968 0.950 . S
H940 C970 0.950 . S
H941 C971 0.950 . S
C942 H924 0.951 . S
C942 C943 1.366 . S
C942 C944 1.388 . S
C943 C942 1.366 . S
C943 C947 1.385 . S
C944 H925 0.951 . S
C944 C942 1.388 . S
C944 C945 1.366 . S
C945 C944 1.366 . S
C945 C946 1.414 . S
C945 C948 1.499 . S
C946 H926 0.950 . S
C946 C945 1.414 . S
C946 C947 1.374 . S
C947 H927 0.950 . S
C947 C943 1.385 . S
C947 C946 1.374 . S
C948 C945 1.499 . S
C948 C949 1.373 . S
C948 C950 1.389 . S
C949 H928 0.950 . S
C949 C948 1.373 . S
C949 C965 1.377 . S
C950 C948 1.389 . S
C950 C951 1.524 . S
C950 C964 1.377 . S
C951 C950 1.524 . S
C951 C952 1.397 . S
C951 C956 1.363 . S
C952 H929 0.950 . S
C952 C951 1.397 . S
C952 C953 1.334 . S
C953 H930 0.950 . S
C953 C952 1.334 . S
C953 C954 1.287 . S
C954 C953 1.287 . S
C954 C955 1.524 . S
C954 H973 0.913 . S
C955 H931 0.950 . S
C955 C954 1.524 . S
C955 C956 1.415 . S
C956 H932 0.950 . S
C956 C951 1.363 . S
C956 C955 1.415 . S
C957 H933 0.951 . S
C957 C958 1.366 . S
C957 C959 1.388 . S
C958 C957 1.366 . S
C958 C962 1.385 . S
C959 H934 0.951 . S
C959 C957 1.388 . S
C959 C960 1.366 . S
C960 C959 1.366 . S
C960 C961 1.414 . S
C960 C963 1.499 . S
C961 H935 0.950 . S
C961 C960 1.414 . S
C961 C962 1.374 . S
C962 H936 0.950 . S
C962 C958 1.385 . S
C962 C961 1.374 . S
C963 C960 1.499 . S
C963 C964 1.373 . S
C963 C965 1.389 . S
C964 H937 0.950 . S
C964 C950 1.377 . S
C964 C963 1.373 . S
C965 C949 1.377 . S
C965 C963 1.389 . S
C965 C966 1.524 . S
C966 C965 1.524 . S
C966 C967 1.397 . S
C966 C971 1.363 . S
C967 H938 0.950 . S
C967 C966 1.397 . S
C967 C968 1.334 . S
C968 H939 0.950 . S
C968 C967 1.334 . S
C968 C969 1.287 . S
C969 C968 1.287 . S
C969 C970 1.524 . S
C969 H972 0.999 . S
C970 H940 0.950 . S
C970 C969 1.524 . S
C970 C971 1.415 . S
C971 H941 0.950 . S
C971 C966 1.363 . S
C971 C970 1.415 . S
H972 C969 0.999 . S
H973 C954 0.913 . S
H974 C992 0.951 . S
H975 C994 0.951 . S
H976 C996 0.950 . S
H977 C997 0.950 . S
H978 C999 0.950 . S
H979 C1002 0.950 . S
H980 C1003 0.950 . S
H981 C1005 0.950 . S
H982 C1006 0.950 . S
H983 C1007 0.951 . S
H984 C1009 0.951 . S
H985 C1011 0.950 . S
H986 C1012 0.950 . S
H987 C1014 0.950 . S
H988 C1017 0.950 . S
H989 C1018 0.950 . S
H990 C1020 0.950 . S
H991 C1021 0.950 . S
C992 H974 0.951 . S
C992 C993 1.366 . S
C992 C994 1.388 . S
C993 C992 1.366 . S
C993 C997 1.385 . S
C994 H975 0.951 . S
C994 C992 1.388 . S
C994 C995 1.366 . S
C995 C994 1.366 . S
C995 C996 1.414 . S
C995 C998 1.499 . S
C996 H976 0.950 . S
C996 C995 1.414 . S
C996 C997 1.374 . S
C997 H977 0.950 . S
C997 C993 1.385 . S
C997 C996 1.374 . S
C998 C995 1.499 . S
C998 C999 1.373 . S
C998 C1000 1.389 . S
C999 H978 0.950 . S
C999 C998 1.373 . S
C999 C1015 1.377 . S
C1000 C998 1.389 . S
C1000 C1001 1.524 . S
C1000 C1014 1.377 . S
C1001 C1000 1.524 . S
C1001 C1002 1.397 . S
C1001 C1006 1.363 . S
C1002 H979 0.950 . S
C1002 C1001 1.397 . S
C1002 C1003 1.334 . S
C1003 H980 0.950 . S
C1003 C1002 1.334 . S
C1003 C1004 1.287 . S
C1004 C1003 1.287 . S
C1004 C1005 1.524 . S
C1004 H1023 0.913 . S
C1005 H981 0.950 . S
C1005 C1004 1.524 . S
C1005 C1006 1.415 . S
C1006 H982 0.950 . S
C1006 C1001 1.363 . S
C1006 C1005 1.415 . S
C1007 H983 0.951 . S
C1007 C1008 1.366 . S
C1007 C1009 1.388 . S
C1008 C1007 1.366 . S
C1008 C1012 1.385 . S
C1009 H984 0.951 . S
C1009 C1007 1.388 . S
C1009 C1010 1.366 . S
C1010 C1009 1.366 . S
C1010 C1011 1.414 . S
C1010 C1013 1.499 . S
C1011 H985 0.950 . S
C1011 C1010 1.414 . S
C1011 C1012 1.374 . S
C1012 H986 0.950 . S
C1012 C1008 1.385 . S
C1012 C1011 1.374 . S
C1013 C1010 1.499 . S
C1013 C1014 1.373 . S
C1013 C1015 1.389 . S
C1014 H987 0.950 . S
C1014 C1000 1.377 . S
C1014 C1013 1.373 . S
C1015 C999 1.377 . S
C1015 C1013 1.389 . S
C1015 C1016 1.524 . S
C1016 C1015 1.524 . S
C1016 C1017 1.397 . S
C1016 C1021 1.363 . S
C1017 H988 0.950 . S
C1017 C1016 1.397 . S
C1017 C1018 1.334 . S
C1018 H989 0.950 . S
C1018 C1017 1.334 . S
C1018 C1019 1.287 . S
C1019 C1018 1.287 . S
C1019 C1020 1.524 . S
C1019 H1022 0.999 . S
C1020 H990 0.950 . S
C1020 C1019 1.524 . S
C1020 C1021 1.415 . S
C1021 H991 0.950 . S
C1021 C1016 1.363 . S
C1021 C1020 1.415 . S
H1022 C1019 0.999 . S
H1023 C1004 0.913 . S
H1024 C1042 0.951 . S
H1025 C1044 0.951 . S
H1026 C1046 0.950 . S
H1027 C1047 0.950 . S
H1028 C1049 0.950 . S
H1029 C1052 0.950 . S
H1030 C1053 0.950 . S
H1031 C1055 0.950 . S
H1032 C1056 0.950 . S
H1033 C1057 0.951 . S
H1034 C1059 0.951 . S
H1035 C1061 0.950 . S
H1036 C1062 0.950 . S
H1037 C1064 0.950 . S
H1038 C1067 0.950 . S
H1039 C1068 0.950 . S
H1040 C1070 0.950 . S
H1041 C1071 0.950 . S
C1042 H1024 0.951 . S
C1042 C1043 1.366 . S
C1042 C1044 1.388 . S
C1043 C1042 1.366 . S
C1043 C1047 1.385 . S
C1044 H1025 0.951 . S
C1044 C1042 1.388 . S
C1044 C1045 1.366 . S
C1045 C1044 1.366 . S
C1045 C1046 1.414 . S
C1045 C1048 1.499 . S
C1046 H1026 0.950 . S
C1046 C1045 1.414 . S
C1046 C1047 1.374 . S
C1047 H1027 0.950 . S
C1047 C1043 1.385 . S
C1047 C1046 1.374 . S
C1048 C1045 1.499 . S
C1048 C1049 1.373 . S
C1048 C1050 1.389 . S
C1049 H1028 0.950 . S
C1049 C1048 1.373 . S
C1049 C1065 1.377 . S
C1050 C1048 1.389 . S
C1050 C1051 1.524 . S
C1050 C1064 1.377 . S
C1051 C1050 1.524 . S
C1051 C1052 1.397 . S
C1051 C1056 1.363 . S
C1052 H1029 0.950 . S
C1052 C1051 1.397 . S
C1052 C1053 1.334 . S
C1053 H1030 0.950 . S
C1053 C1052 1.334 . S
C1053 C1054 1.287 . S
C1054 C1053 1.287 . S
C1054 C1055 1.524 . S
C1054 H1073 0.913 . S
C1055 H1031 0.950 . S
C1055 C1054 1.524 . S
C1055 C1056 1.415 . S
C1056 H1032 0.950 . S
C1056 C1051 1.363 . S
C1056 C1055 1.415 . S
C1057 H1033 0.951 . S
C1057 C1058 1.366 . S
C1057 C1059 1.388 . S
C1058 C1057 1.366 . S
C1058 C1062 1.385 . S
C1059 H1034 0.951 . S
C1059 C1057 1.388 . S
C1059 C1060 1.366 . S
C1060 C1059 1.366 . S
C1060 C1061 1.414 . S
C1060 C1063 1.499 . S
C1061 H1035 0.950 . S
C1061 C1060 1.414 . S
C1061 C1062 1.374 . S
C1062 H1036 0.950 . S
C1062 C1058 1.385 . S
C1062 C1061 1.374 . S
C1063 C1060 1.499 . S
C1063 C1064 1.373 . S
C1063 C1065 1.389 . S
C1064 H1037 0.950 . S
C1064 C1050 1.377 . S
C1064 C1063 1.373 . S
C1065 C1049 1.377 . S
C1065 C1063 1.389 . S
C1065 C1066 1.524 . S
C1066 C1065 1.524 . S
C1066 C1067 1.397 . S
C1066 C1071 1.363 . S
C1067 H1038 0.950 . S
C1067 C1066 1.397 . S
C1067 C1068 1.334 . S
C1068 H1039 0.950 . S
C1068 C1067 1.334 . S
C1068 C1069 1.287 . S
C1069 C1068 1.287 . S
C1069 C1070 1.524 . S
C1069 H1072 0.999 . S
C1070 H1040 0.950 . S
C1070 C1069 1.524 . S
C1070 C1071 1.415 . S
C1071 H1041 0.950 . S
C1071 C1066 1.363 . S
C1071 C1070 1.415 . S
H1072 C1069 0.999 . S
H1073 C1054 0.913 . S
H1074 C1092 0.951 . S
H1075 C1094 0.951 . S
H1076 C1096 0.950 . S
H1077 C1097 0.950 . S
H1078 C1099 0.950 . S
H1079 C1102 0.950 . S
H1080 C1103 0.950 . S
H1081 C1105 0.950 . S
H1082 C1106 0.950 . S
H1083 C1107 0.951 . S
H1084 C1109 0.951 . S
H1085 C1111 0.950 . S
H1086 C1112 0.950 . S
H1087 C1114 0.950 . S
H1088 C1117 0.950 . S
H1089 C1118 0.950 . S
H1090 C1120 0.950 . S
H1091 C1121 0.950 . S
C1092 H1074 0.951 . S
C1092 C1093 1.366 . S
C1092 C1094 1.388 . S
C1093 C1092 1.366 . S
C1093 C1097 1.385 . S
C1094 H1075 0.951 . S
C1094 C1092 1.388 . S
C1094 C1095 1.366 . S
C1095 C1094 1.366 . S
C1095 C1096 1.414 . S
C1095 C1098 1.499 . S
C1096 H1076 0.950 . S
C1096 C1095 1.414 . S
C1096 C1097 1.374 . S
C1097 H1077 0.950 . S
C1097 C1093 1.385 . S
C1097 C1096 1.374 . S
C1098 C1095 1.499 . S
C1098 C1099 1.373 . S
C1098 C1100 1.389 . S
C1099 H1078 0.950 . S
C1099 C1098 1.373 . S
C1099 C1115 1.377 . S
C1100 C1098 1.389 . S
C1100 C1101 1.524 . S
C1100 C1114 1.377 . S
C1101 C1100 1.524 . S
C1101 C1102 1.397 . S
C1101 C1106 1.363 . S
C1102 H1079 0.950 . S
C1102 C1101 1.397 . S
C1102 C1103 1.334 . S
C1103 H1080 0.950 . S
C1103 C1102 1.334 . S
C1103 C1104 1.287 . S
C1104 C1103 1.287 . S
C1104 C1105 1.524 . S
C1104 H1123 0.913 . S
C1105 H1081 0.950 . S
C1105 C1104 1.524 . S
C1105 C1106 1.415 . S
C1106 H1082 0.950 . S
C1106 C1101 1.363 . S
C1106 C1105 1.415 . S
C1107 H1083 0.951 . S
C1107 C1108 1.366 . S
C1107 C1109 1.388 . S
C1108 C1107 1.366 . S
C1108 C1112 1.385 . S
C1109 H1084 0.951 . S
C1109 C1107 1.388 . S
C1109 C1110 1.366 . S
C1110 C1109 1.366 . S
C1110 C1111 1.414 . S
C1110 C1113 1.499 . S
C1111 H1085 0.950 . S
C1111 C1110 1.414 . S
C1111 C1112 1.374 . S
C1112 H1086 0.950 . S
C1112 C1108 1.385 . S
C1112 C1111 1.374 . S
C1113 C1110 1.499 . S
C1113 C1114 1.373 . S
C1113 C1115 1.389 . S
C1114 H1087 0.950 . S
C1114 C1100 1.377 . S
C1114 C1113 1.373 . S
C1115 C1099 1.377 . S
C1115 C1113 1.389 . S
C1115 C1116 1.524 . S
C1116 C1115 1.524 . S
C1116 C1117 1.397 . S
C1116 C1121 1.363 . S
C1117 H1088 0.950 . S
C1117 C1116 1.397 . S
C1117 C1118 1.334 . S
C1118 H1089 0.950 . S
C1118 C1117 1.334 . S
C1118 C1119 1.287 . S
C1119 C1118 1.287 . S
C1119 C1120 1.524 . S
C1119 H1122 0.999 . S
C1120 H1090 0.950 . S
C1120 C1119 1.524 . S
C1120 C1121 1.415 . S
C1121 H1091 0.950 . S
C1121 C1116 1.363 . S
C1121 C1120 1.415 . S
H1122 C1119 0.999 . S
H1123 C1104 0.913 . S
H1124 C1142 0.951 . S
H1125 C1144 0.951 . S
H1126 C1146 0.950 . S
H1127 C1147 0.950 . S
H1128 C1149 0.950 . S
H1129 C1152 0.950 . S
H1130 C1153 0.950 . S
H1131 C1155 0.950 . S
H1132 C1156 0.950 . S
H1133 C1157 0.951 . S
H1134 C1159 0.951 . S
H1135 C1161 0.950 . S
H1136 C1162 0.950 . S
H1137 C1164 0.950 . S
H1138 C1167 0.950 . S
H1139 C1168 0.950 . S
H1140 C1170 0.950 . S
H1141 C1171 0.950 . S
C1142 H1124 0.951 . S
C1142 C1143 1.366 . S
C1142 C1144 1.388 . S
C1143 C1142 1.366 . S
C1143 C1147 1.385 . S
C1144 H1125 0.951 . S
C1144 C1142 1.388 . S
C1144 C1145 1.366 . S
C1145 C1144 1.366 . S
C1145 C1146 1.414 . S
C1145 C1148 1.499 . S
C1146 H1126 0.950 . S
C1146 C1145 1.414 . S
C1146 C1147 1.374 . S
C1147 H1127 0.950 . S
C1147 C1143 1.385 . S
C1147 C1146 1.374 . S
C1148 C1145 1.499 . S
C1148 C1149 1.373 . S
C1148 C1150 1.389 . S
C1149 H1128 0.950 . S
C1149 C1148 1.373 . S
C1149 C1165 1.377 . S
C1150 C1148 1.389 . S
C1150 C1151 1.524 . S
C1150 C1164 1.377 . S
C1151 C1150 1.524 . S
C1151 C1152 1.397 . S
C1151 C1156 1.363 . S
C1152 H1129 0.950 . S
C1152 C1151 1.397 . S
C1152 C1153 1.334 . S
C1153 H1130 0.950 . S
C1153 C1152 1.334 . S
C1153 C1154 1.287 . S
C1154 C1153 1.287 . S
C1154 C1155 1.524 . S
C1154 H1173 0.913 . S
C1155 H1131 0.950 . S
C1155 C1154 1.524 . S
C1155 C1156 1.415 . S
C1156 H1132 0.950 . S
C1156 C1151 1.363 . S
C1156 C1155 1.415 . S
C1157 H1133 0.951 . S
C1157 C1158 1.366 . S
C1157 C1159 1.388 . S
C1158 C1157 1.366 . S
C1158 C1162 1.385 . S
C1159 H1134 0.951 . S
C1159 C1157 1.388 . S
C1159 C1160 1.366 . S
C1160 C1159 1.366 . S
C1160 C1161 1.414 . S
C1160 C1163 1.499 . S
C1161 H1135 0.950 . S
C1161 C1160 1.414 . S
C1161 C1162 1.374 . S
C1162 H1136 0.950 . S
C1162 C1158 1.385 . S
C1162 C1161 1.374 . S
C1163 C1160 1.499 . S
C1163 C1164 1.373 . S
C1163 C1165 1.389 . S
C1164 H1137 0.950 . S
C1164 C1150 1.377 . S
C1164 C1163 1.373 . S
C1165 C1149 1.377 . S
C1165 C1163 1.389 . S
C1165 C1166 1.524 . S
C1166 C1165 1.524 . S
C1166 C1167 1.397 . S
C1166 C1171 1.363 . S
C1167 H1138 0.950 . S
C1167 C1166 1.397 . S
C1167 C1168 1.334 . S
C1168 H1139 0.950 . S
C1168 C1167 1.334 . S
C1168 C1169 1.287 . S
C1169 C1168 1.287 . S
C1169 C1170 1.524 . S
C1169 H1172 0.999 . S
C1170 H1140 0.950 . S
C1170 C1169 1.524 . S
C1170 C1171 1.415 . S
C1171 H1141 0.950 . S
C1171 C1166 1.363 . S
C1171 C1170 1.415 . S
H1172 C1169 0.999 . S
H1173 C1154 0.913 . S
H1174 C1192 0.951 . S
H1175 C1194 0.951 . S
H1176 C1196 0.950 . S
H1177 C1197 0.950 . S
H1178 C1199 0.950 . S
H1179 C1202 0.950 . S
H1180 C1203 0.950 . S
H1181 C1205 0.950 . S
H1182 C1206 0.950 . S
H1183 C1207 0.951 . S
H1184 C1209 0.951 . S
H1185 C1211 0.950 . S
H1186 C1212 0.950 . S
H1187 C1214 0.950 . S
H1188 C1217 0.950 . S
H1189 C1218 0.950 1_565 S
H1190 C1220 0.950 . S
H1191 C1221 0.950 . S
C1192 H1174 0.951 . S
C1192 C1193 1.366 . S
C1192 C1194 1.388 . S
C1193 C1192 1.366 . S
C1193 C1197 1.385 . S
C1194 H1175 0.951 . S
C1194 C1192 1.388 . S
C1194 C1195 1.366 . S
C1195 C1194 1.366 . S
C1195 C1196 1.414 . S
C1195 C1198 1.499 . S
C1196 H1176 0.950 . S
C1196 C1195 1.414 . S
C1196 C1197 1.374 . S
C1197 H1177 0.950 . S
C1197 C1193 1.385 . S
C1197 C1196 1.374 . S
C1198 C1195 1.499 . S
C1198 C1199 1.373 . S
C1198 C1200 1.389 . S
C1199 H1178 0.950 . S
C1199 C1198 1.373 . S
C1199 C1215 1.377 . S
C1200 C1198 1.389 . S
C1200 C1201 1.524 . S
C1200 C1214 1.377 . S
C1201 C1200 1.524 . S
C1201 C1202 1.397 . S
C1201 C1206 1.363 . S
C1202 H1179 0.950 . S
C1202 C1201 1.397 . S
C1202 C1203 1.334 . S
C1203 H1180 0.950 . S
C1203 C1202 1.334 . S
C1203 C1204 1.287 . S
C1204 C1203 1.287 . S
C1204 C1205 1.524 . S
C1204 H1223 0.913 . S
C1205 H1181 0.950 . S
C1205 C1204 1.524 . S
C1205 C1206 1.415 . S
C1206 H1182 0.950 . S
C1206 C1201 1.363 . S
C1206 C1205 1.415 . S
C1207 H1183 0.951 . S
C1207 C1208 1.366 . S
C1207 C1209 1.388 . S
C1208 C1207 1.366 . S
C1208 C1212 1.385 . S
C1209 H1184 0.951 . S
C1209 C1207 1.388 . S
C1209 C1210 1.366 . S
C1210 C1209 1.366 . S
C1210 C1211 1.414 . S
C1210 C1213 1.499 . S
C1211 H1185 0.950 . S
C1211 C1210 1.414 . S
C1211 C1212 1.374 . S
C1212 H1186 0.950 . S
C1212 C1208 1.385 . S
C1212 C1211 1.374 . S
C1213 C1210 1.499 . S
C1213 C1214 1.373 . S
C1213 C1215 1.389 . S
C1214 H1187 0.950 . S
C1214 C1200 1.377 . S
C1214 C1213 1.373 . S
C1215 C1199 1.377 . S
C1215 C1213 1.389 . S
C1215 C1216 1.524 . S
C1216 C1215 1.524 . S
C1216 C1217 1.397 . S
C1216 C1221 1.363 . S
C1217 H1188 0.950 . S
C1217 C1216 1.397 . S
C1217 C1218 1.334 . S
C1218 H1189 0.950 1_545 S
C1218 C1217 1.334 . S
C1218 C1219 1.287 1_545 S
C1219 C1218 1.287 1_565 S
C1219 C1220 1.524 1_565 S
C1219 H1222 0.999 . S
C1220 H1190 0.950 . S
C1220 C1219 1.524 1_545 S
C1220 C1221 1.415 . S
C1221 H1191 0.950 . S
C1221 C1216 1.363 . S
C1221 C1220 1.415 . S
H1222 C1219 0.999 . S
H1223 C1204 0.913 . S
H1224 C1242 0.951 . S
H1225 C1244 0.951 . S
H1226 C1246 0.950 . S
H1227 C1247 0.950 . S
H1228 C1249 0.950 . S
H1229 C1252 0.950 . S
H1230 C1253 0.950 . S
H1231 C1255 0.950 . S
H1232 C1256 0.950 . S
H1233 C1257 0.951 . S
H1234 C1259 0.951 . S
H1235 C1261 0.950 . S
H1236 C1262 0.950 . S
H1237 C1264 0.950 . S
H1238 C1267 0.950 . S
H1239 C1268 0.950 . S
H1240 C1270 0.950 . S
H1241 C1271 0.950 . S
C1242 H1224 0.951 . S
C1242 C1243 1.366 . S
C1242 C1244 1.388 . S
C1243 C1242 1.366 . S
C1243 C1247 1.385 . S
C1244 H1225 0.951 . S
C1244 C1242 1.388 . S
C1244 C1245 1.366 . S
C1245 C1244 1.366 . S
C1245 C1246 1.414 . S
C1245 C1248 1.499 . S
C1246 H1226 0.950 . S
C1246 C1245 1.414 . S
C1246 C1247 1.374 . S
C1247 H1227 0.950 . S
C1247 C1243 1.385 . S
C1247 C1246 1.374 . S
C1248 C1245 1.499 . S
C1248 C1249 1.373 . S
C1248 C1250 1.389 . S
C1249 H1228 0.950 . S
C1249 C1248 1.373 . S
C1249 C1265 1.377 . S
C1250 C1248 1.389 . S
C1250 C1251 1.524 . S
C1250 C1264 1.377 . S
C1251 C1250 1.524 . S
C1251 C1252 1.397 . S
C1251 C1256 1.363 . S
C1252 H1229 0.950 . S
C1252 C1251 1.397 . S
C1252 C1253 1.334 . S
C1253 H1230 0.950 . S
C1253 C1252 1.334 . S
C1253 C1254 1.287 . S
C1254 C1253 1.287 . S
C1254 C1255 1.524 . S
C1254 H1273 0.913 . S
C1255 H1231 0.950 . S
C1255 C1254 1.524 . S
C1255 C1256 1.415 . S
C1256 H1232 0.950 . S
C1256 C1251 1.363 . S
C1256 C1255 1.415 . S
C1257 H1233 0.951 . S
C1257 C1258 1.366 . S
C1257 C1259 1.388 . S
C1258 C1257 1.366 . S
C1258 C1262 1.385 . S
C1259 H1234 0.951 . S
C1259 C1257 1.388 . S
C1259 C1260 1.366 . S
C1260 C1259 1.366 . S
C1260 C1261 1.414 . S
C1260 C1263 1.499 . S
C1261 H1235 0.950 . S
C1261 C1260 1.414 . S
C1261 C1262 1.374 . S
C1262 H1236 0.950 . S
C1262 C1258 1.385 . S
C1262 C1261 1.374 . S
C1263 C1260 1.499 . S
C1263 C1264 1.373 . S
C1263 C1265 1.389 . S
C1264 H1237 0.950 . S
C1264 C1250 1.377 . S
C1264 C1263 1.373 . S
C1265 C1249 1.377 . S
C1265 C1263 1.389 . S
C1265 C1266 1.524 . S
C1266 C1265 1.524 . S
C1266 C1267 1.397 . S
C1266 C1271 1.363 . S
C1267 H1238 0.950 . S
C1267 C1266 1.397 . S
C1267 C1268 1.334 . S
C1268 H1239 0.950 . S
C1268 C1267 1.334 . S
C1268 C1269 1.287 . S
C1269 C1268 1.287 . S
C1269 C1270 1.524 . S
C1269 H1272 0.999 . S
C1270 H1240 0.950 . S
C1270 C1269 1.524 . S
C1270 C1271 1.415 . S
C1271 H1241 0.950 . S
C1271 C1266 1.363 . S
C1271 C1270 1.415 . S
H1272 C1269 0.999 . S
H1273 C1254 0.913 . S
H1274 C1292 0.951 . S
H1275 C1294 0.951 . S
H1276 C1296 0.950 . S
H1277 C1297 0.950 . S
H1278 C1299 0.950 . S
H1279 C1302 0.950 . S
H1280 C1303 0.950 . S
H1281 C1305 0.950 . S
H1282 C1306 0.950 . S
H1283 C1307 0.951 . S
H1284 C1309 0.951 . S
H1285 C1311 0.950 . S
H1286 C1312 0.950 . S
H1287 C1314 0.950 . S
H1288 C1317 0.950 . S
H1289 C1318 0.950 . S
H1290 C1320 0.950 . S
H1291 C1321 0.950 . S
C1292 H1274 0.951 . S
C1292 C1293 1.366 . S
C1292 C1294 1.388 . S
C1293 C1292 1.366 . S
C1293 C1297 1.385 . S
C1294 H1275 0.951 . S
C1294 C1292 1.388 . S
C1294 C1295 1.366 . S
C1295 C1294 1.366 . S
C1295 C1296 1.414 . S
C1295 C1298 1.499 . S
C1296 H1276 0.950 . S
C1296 C1295 1.414 . S
C1296 C1297 1.374 . S
C1297 H1277 0.950 . S
C1297 C1293 1.385 . S
C1297 C1296 1.374 . S
C1298 C1295 1.499 . S
C1298 C1299 1.373 . S
C1298 C1300 1.389 . S
C1299 H1278 0.950 . S
C1299 C1298 1.373 . S
C1299 C1315 1.377 . S
C1300 C1298 1.389 . S
C1300 C1301 1.524 . S
C1300 C1314 1.377 . S
C1301 C1300 1.524 . S
C1301 C1302 1.397 . S
C1301 C1306 1.363 . S
C1302 H1279 0.950 . S
C1302 C1301 1.397 . S
C1302 C1303 1.334 . S
C1303 H1280 0.950 . S
C1303 C1302 1.334 . S
C1303 C1304 1.287 . S
C1304 C1303 1.287 . S
C1304 C1305 1.524 . S
C1304 H1323 0.913 . S
C1305 H1281 0.950 . S
C1305 C1304 1.524 . S
C1305 C1306 1.415 . S
C1306 H1282 0.950 . S
C1306 C1301 1.363 . S
C1306 C1305 1.415 . S
C1307 H1283 0.951 . S
C1307 C1308 1.366 . S
C1307 C1309 1.388 . S
C1308 C1307 1.366 . S
C1308 C1312 1.385 . S
C1309 H1284 0.951 . S
C1309 C1307 1.388 . S
C1309 C1310 1.366 . S
C1310 C1309 1.366 . S
C1310 C1311 1.414 . S
C1310 C1313 1.499 . S
C1311 H1285 0.950 . S
C1311 C1310 1.414 . S
C1311 C1312 1.374 . S
C1312 H1286 0.950 . S
C1312 C1308 1.385 . S
C1312 C1311 1.374 . S
C1313 C1310 1.499 . S
C1313 C1314 1.373 . S
C1313 C1315 1.389 . S
C1314 H1287 0.950 . S
C1314 C1300 1.377 . S
C1314 C1313 1.373 . S
C1315 C1299 1.377 . S
C1315 C1313 1.389 . S
C1315 C1316 1.524 . S
C1316 C1315 1.524 . S
C1316 C1317 1.397 . S
C1316 C1321 1.363 . S
C1317 H1288 0.950 . S
C1317 C1316 1.397 . S
C1317 C1318 1.334 . S
C1318 H1289 0.950 . S
C1318 C1317 1.334 . S
C1318 C1319 1.287 . S
C1319 C1318 1.287 . S
C1319 C1320 1.524 . S
C1319 H1322 0.999 . S
C1320 H1290 0.950 . S
C1320 C1319 1.524 . S
C1320 C1321 1.415 . S
C1321 H1291 0.950 . S
C1321 C1316 1.363 . S
C1321 C1320 1.415 . S
H1322 C1319 0.999 . S
H1323 C1304 0.913 . S
H1324 C1342 0.951 . S
H1325 C1344 0.951 . S
H1326 C1346 0.950 . S
H1327 C1347 0.950 . S
H1328 C1349 0.950 . S
H1329 C1352 0.950 . S
H1330 C1353 0.950 . S
H1331 C1355 0.950 . S
H1332 C1356 0.950 . S
H1333 C1357 0.951 . S
H1334 C1359 0.951 . S
H1335 C1361 0.950 . S
H1336 C1362 0.950 . S
H1337 C1364 0.950 . S
H1338 C1367 0.950 . S
H1339 C1368 0.950 . S
H1340 C1370 0.950 . S
H1341 C1371 0.950 . S
C1342 H1324 0.951 . S
C1342 C1343 1.366 . S
C1342 C1344 1.388 . S
C1343 C1342 1.366 . S
C1343 C1347 1.385 . S
C1344 H1325 0.951 . S
C1344 C1342 1.388 . S
C1344 C1345 1.366 . S
C1345 C1344 1.366 . S
C1345 C1346 1.414 . S
C1345 C1348 1.499 . S
C1346 H1326 0.950 . S
C1346 C1345 1.414 . S
C1346 C1347 1.374 . S
C1347 H1327 0.950 . S
C1347 C1343 1.385 . S
C1347 C1346 1.374 . S
C1348 C1345 1.499 . S
C1348 C1349 1.373 . S
C1348 C1350 1.389 . S
C1349 H1328 0.950 . S
C1349 C1348 1.373 . S
C1349 C1365 1.377 . S
C1350 C1348 1.389 . S
C1350 C1351 1.524 . S
C1350 C1364 1.377 . S
C1351 C1350 1.524 . S
C1351 C1352 1.397 . S
C1351 C1356 1.363 . S
C1352 H1329 0.950 . S
C1352 C1351 1.397 . S
C1352 C1353 1.334 . S
C1353 H1330 0.950 . S
C1353 C1352 1.334 . S
C1353 C1354 1.287 . S
C1354 C1353 1.287 . S
C1354 C1355 1.524 . S
C1354 H1373 0.913 . S
C1355 H1331 0.950 . S
C1355 C1354 1.524 . S
C1355 C1356 1.415 . S
C1356 H1332 0.950 . S
C1356 C1351 1.363 . S
C1356 C1355 1.415 . S
C1357 H1333 0.951 . S
C1357 C1358 1.366 . S
C1357 C1359 1.388 . S
C1358 C1357 1.366 . S
C1358 C1362 1.385 . S
C1359 H1334 0.951 . S
C1359 C1357 1.388 . S
C1359 C1360 1.366 . S
C1360 C1359 1.366 . S
C1360 C1361 1.414 . S
C1360 C1363 1.499 . S
C1361 H1335 0.950 . S
C1361 C1360 1.414 . S
C1361 C1362 1.374 . S
C1362 H1336 0.950 . S
C1362 C1358 1.385 . S
C1362 C1361 1.374 . S
C1363 C1360 1.499 . S
C1363 C1364 1.373 . S
C1363 C1365 1.389 . S
C1364 H1337 0.950 . S
C1364 C1350 1.377 . S
C1364 C1363 1.373 . S
C1365 C1349 1.377 . S
C1365 C1363 1.389 . S
C1365 C1366 1.524 . S
C1366 C1365 1.524 . S
C1366 C1367 1.397 . S
C1366 C1371 1.363 . S
C1367 H1338 0.950 . S
C1367 C1366 1.397 . S
C1367 C1368 1.334 . S
C1368 H1339 0.950 . S
C1368 C1367 1.334 . S
C1368 C1369 1.287 . S
C1369 C1368 1.287 . S
C1369 C1370 1.524 . S
C1369 H1372 0.999 . S
C1370 H1340 0.950 . S
C1370 C1369 1.524 . S
C1370 C1371 1.415 . S
C1371 H1341 0.950 . S
C1371 C1366 1.363 . S
C1371 C1370 1.415 . S
H1372 C1369 0.999 . S
H1373 C1354 0.913 . S
H1374 C1392 0.951 . S
H1375 C1394 0.951 . S
H1376 C1396 0.950 . S
H1377 C1397 0.950 . S
H1378 C1399 0.950 . S
H1379 C1402 0.950 . S
H1380 C1403 0.950 . S
H1381 C1405 0.950 . S
H1382 C1406 0.950 . S
H1383 C1407 0.951 . S
H1384 C1409 0.951 . S
H1385 C1411 0.950 . S
H1386 C1412 0.950 . S
H1387 C1414 0.950 . S
H1388 C1417 0.950 . S
H1389 C1418 0.950 . S
H1390 C1420 0.950 . S
H1391 C1421 0.950 . S
C1392 H1374 0.951 . S
C1392 C1393 1.366 . S
C1392 C1394 1.388 . S
C1393 C1392 1.366 . S
C1393 C1397 1.385 . S
C1394 H1375 0.951 . S
C1394 C1392 1.388 . S
C1394 C1395 1.366 . S
C1395 C1394 1.366 . S
C1395 C1396 1.414 . S
C1395 C1398 1.499 . S
C1396 H1376 0.950 . S
C1396 C1395 1.414 . S
C1396 C1397 1.374 . S
C1397 H1377 0.950 . S
C1397 C1393 1.385 . S
C1397 C1396 1.374 . S
C1398 C1395 1.499 . S
C1398 C1399 1.373 . S
C1398 C1400 1.389 . S
C1399 H1378 0.950 . S
C1399 C1398 1.373 . S
C1399 C1415 1.377 . S
C1400 C1398 1.389 . S
C1400 C1401 1.524 . S
C1400 C1414 1.377 . S
C1401 C1400 1.524 . S
C1401 C1402 1.397 . S
C1401 C1406 1.363 . S
C1402 H1379 0.950 . S
C1402 C1401 1.397 . S
C1402 C1403 1.334 . S
C1403 H1380 0.950 . S
C1403 C1402 1.334 . S
C1403 C1404 1.287 . S
C1404 C1403 1.287 . S
C1404 C1405 1.524 . S
C1404 H1423 0.913 . S
C1405 H1381 0.950 . S
C1405 C1404 1.524 . S
C1405 C1406 1.415 . S
C1406 H1382 0.950 . S
C1406 C1401 1.363 . S
C1406 C1405 1.415 . S
C1407 H1383 0.951 . S
C1407 C1408 1.366 . S
C1407 C1409 1.388 . S
C1408 C1407 1.366 . S
C1408 C1412 1.385 . S
C1409 H1384 0.951 . S
C1409 C1407 1.388 . S
C1409 C1410 1.366 . S
C1410 C1409 1.366 . S
C1410 C1411 1.414 . S
C1410 C1413 1.499 . S
C1411 H1385 0.950 . S
C1411 C1410 1.414 . S
C1411 C1412 1.374 . S
C1412 H1386 0.950 . S
C1412 C1408 1.385 . S
C1412 C1411 1.374 . S
C1413 C1410 1.499 . S
C1413 C1414 1.373 . S
C1413 C1415 1.389 . S
C1414 H1387 0.950 . S
C1414 C1400 1.377 . S
C1414 C1413 1.373 . S
C1415 C1399 1.377 . S
C1415 C1413 1.389 . S
C1415 C1416 1.524 . S
C1416 C1415 1.524 . S
C1416 C1417 1.397 . S
C1416 C1421 1.363 . S
C1417 H1388 0.950 . S
C1417 C1416 1.397 . S
C1417 C1418 1.334 . S
C1418 H1389 0.950 . S
C1418 C1417 1.334 . S
C1418 C1419 1.287 . S
C1419 C1418 1.287 . S
C1419 C1420 1.524 . S
C1419 H1422 0.999 . S
C1420 H1390 0.950 . S
C1420 C1419 1.524 . S
C1420 C1421 1.415 . S
C1421 H1391 0.950 . S
C1421 C1416 1.363 . S
C1421 C1420 1.415 . S
H1422 C1419 0.999 . S
H1423 C1404 0.913 . S
H1424 C1442 0.951 . S
H1425 C1444 0.951 . S
H1426 C1446 0.950 . S
H1427 C1447 0.950 . S
H1428 C1449 0.950 . S
H1429 C1452 0.950 . S
H1430 C1453 0.950 . S
H1431 C1455 0.950 . S
H1432 C1456 0.950 . S
H1433 C1457 0.951 . S
H1434 C1459 0.951 . S
H1435 C1461 0.950 . S
H1436 C1462 0.950 . S
H1437 C1464 0.950 . S
H1438 C1467 0.950 . S
H1439 C1468 0.950 . S
H1440 C1470 0.950 . S
H1441 C1471 0.950 . S
C1442 H1424 0.951 . S
C1442 C1443 1.366 . S
C1442 C1444 1.388 . S
C1443 C1442 1.366 . S
C1443 C1447 1.385 . S
C1444 H1425 0.951 . S
C1444 C1442 1.388 . S
C1444 C1445 1.366 . S
C1445 C1444 1.366 . S
C1445 C1446 1.414 . S
C1445 C1448 1.499 . S
C1446 H1426 0.950 . S
C1446 C1445 1.414 . S
C1446 C1447 1.374 . S
C1447 H1427 0.950 . S
C1447 C1443 1.385 . S
C1447 C1446 1.374 . S
C1448 C1445 1.499 . S
C1448 C1449 1.373 . S
C1448 C1450 1.389 . S
C1449 H1428 0.950 . S
C1449 C1448 1.373 . S
C1449 C1465 1.377 1_554 S
C1450 C1448 1.389 . S
C1450 C1451 1.524 . S
C1450 C1464 1.377 1_554 S
C1451 C1450 1.524 . S
C1451 C1452 1.397 . S
C1451 C1456 1.363 . S
C1452 H1429 0.950 . S
C1452 C1451 1.397 . S
C1452 C1453 1.334 . S
C1453 H1430 0.950 . S
C1453 C1452 1.334 . S
C1453 C1454 1.287 . S
C1454 C1453 1.287 . S
C1454 C1455 1.524 . S
C1454 H1473 0.913 . S
C1455 H1431 0.950 . S
C1455 C1454 1.524 . S
C1455 C1456 1.415 . S
C1456 H1432 0.950 . S
C1456 C1451 1.363 . S
C1456 C1455 1.415 . S
C1457 H1433 0.951 . S
C1457 C1458 1.366 . S
C1457 C1459 1.388 . S
C1458 C1457 1.366 . S
C1458 C1462 1.385 . S
C1459 H1434 0.951 . S
C1459 C1457 1.388 . S
C1459 C1460 1.366 . S
C1460 C1459 1.366 . S
C1460 C1461 1.414 . S
C1460 C1463 1.499 . S
C1461 H1435 0.950 . S
C1461 C1460 1.414 . S
C1461 C1462 1.374 . S
C1462 H1436 0.950 . S
C1462 C1458 1.385 . S
C1462 C1461 1.374 . S
C1463 C1460 1.499 . S
C1463 C1464 1.373 . S
C1463 C1465 1.389 . S
C1464 H1437 0.950 . S
C1464 C1450 1.377 1_556 S
C1464 C1463 1.373 . S
C1465 C1449 1.377 1_556 S
C1465 C1463 1.389 . S
C1465 C1466 1.524 . S
C1466 C1465 1.524 . S
C1466 C1467 1.397 . S
C1466 C1471 1.363 . S
C1467 H1438 0.950 . S
C1467 C1466 1.397 . S
C1467 C1468 1.334 . S
C1468 H1439 0.950 . S
C1468 C1467 1.334 . S
C1468 C1469 1.287 . S
C1469 C1468 1.287 . S
C1469 C1470 1.524 . S
C1469 H1472 0.999 . S
C1470 H1440 0.950 . S
C1470 C1469 1.524 . S
C1470 C1471 1.415 . S
C1471 H1441 0.950 . S
C1471 C1466 1.363 . S
C1471 C1470 1.415 . S
H1472 C1469 0.999 . S
H1473 C1454 0.913 . S
H1474 C1492 0.951 . S
H1475 C1494 0.951 . S
H1476 C1496 0.950 . S
H1477 C1497 0.950 . S
H1478 C1499 0.950 . S
H1479 C1502 0.950 . S
H1480 C1503 0.950 . S
H1481 C1505 0.950 . S
H1482 C1506 0.950 . S
H1483 C1507 0.951 . S
H1484 C1509 0.951 . S
H1485 C1511 0.950 . S
H1486 C1512 0.950 . S
H1487 C1514 0.950 . S
H1488 C1517 0.950 . S
H1489 C1518 0.950 . S
H1490 C1520 0.950 . S
H1491 C1521 0.950 . S
C1492 H1474 0.951 . S
C1492 C1493 1.366 . S
C1492 C1494 1.388 . S
C1493 C1492 1.366 . S
C1493 C1497 1.385 . S
C1494 H1475 0.951 . S
C1494 C1492 1.388 . S
C1494 C1495 1.366 . S
C1495 C1494 1.366 . S
C1495 C1496 1.414 . S
C1495 C1498 1.499 . S
C1496 H1476 0.950 . S
C1496 C1495 1.414 . S
C1496 C1497 1.374 . S
C1497 H1477 0.950 . S
C1497 C1493 1.385 . S
C1497 C1496 1.374 . S
C1498 C1495 1.499 . S
C1498 C1499 1.373 . S
C1498 C1500 1.389 . S
C1499 H1478 0.950 . S
C1499 C1498 1.373 . S
C1499 C1515 1.377 . S
C1500 C1498 1.389 . S
C1500 C1501 1.524 . S
C1500 C1514 1.377 . S
C1501 C1500 1.524 . S
C1501 C1502 1.397 . S
C1501 C1506 1.363 . S
C1502 H1479 0.950 . S
C1502 C1501 1.397 . S
C1502 C1503 1.334 . S
C1503 H1480 0.950 . S
C1503 C1502 1.334 . S
C1503 C1504 1.287 . S
C1504 C1503 1.287 . S
C1504 C1505 1.524 . S
C1504 H1523 0.913 . S
C1505 H1481 0.950 . S
C1505 C1504 1.524 . S
C1505 C1506 1.415 . S
C1506 H1482 0.950 . S
C1506 C1501 1.363 . S
C1506 C1505 1.415 . S
C1507 H1483 0.951 . S
C1507 C1508 1.366 . S
C1507 C1509 1.388 . S
C1508 C1507 1.366 . S
C1508 C1512 1.385 . S
C1509 H1484 0.951 . S
C1509 C1507 1.388 . S
C1509 C1510 1.366 . S
C1510 C1509 1.366 . S
C1510 C1511 1.414 . S
C1510 C1513 1.499 . S
C1511 H1485 0.950 . S
C1511 C1510 1.414 . S
C1511 C1512 1.374 . S
C1512 H1486 0.950 . S
C1512 C1508 1.385 . S
C1512 C1511 1.374 . S
C1513 C1510 1.499 . S
C1513 C1514 1.373 . S
C1513 C1515 1.389 . S
C1514 H1487 0.950 . S
C1514 C1500 1.377 . S
C1514 C1513 1.373 . S
C1515 C1499 1.377 . S
C1515 C1513 1.389 . S
C1515 C1516 1.524 . S
C1516 C1515 1.524 . S
C1516 C1517 1.397 . S
C1516 C1521 1.363 . S
C1517 H1488 0.950 . S
C1517 C1516 1.397 . S
C1517 C1518 1.334 . S
C1518 H1489 0.950 . S
C1518 C1517 1.334 . S
C1518 C1519 1.287 . S
C1519 C1518 1.287 . S
C1519 C1520 1.524 . S
C1519 H1522 0.999 . S
C1520 H1490 0.950 . S
C1520 C1519 1.524 . S
C1520 C1521 1.415 . S
C1521 H1491 0.950 . S
C1521 C1516 1.363 . S
C1521 C1520 1.415 . S
H1522 C1519 0.999 . S
H1523 C1504 0.913 . S
H1524 C1542 0.951 . S
H1525 C1544 0.951 . S
H1526 C1546 0.950 . S
H1527 C1547 0.950 . S
H1528 C1549 0.960 . S
H1529 C1552 0.950 . S
H1530 C1553 0.950 . S
H1531 C1555 0.950 . S
H1532 C1556 0.950 1_556 S
H1533 C1557 0.951 . S
H1534 C1559 0.951 . S
H1535 C1561 0.950 . S
H1536 C1562 0.950 . S
H1537 C1564 0.950 . S
H1538 C1567 0.950 . S
H1539 C1568 0.950 . S
H1540 C1570 0.950 . S
H1541 C1571 0.950 1_554 S
C1542 H1524 0.951 . S
C1542 C1543 1.366 . S
C1542 C1544 1.388 . S
C1543 C1542 1.366 . S
C1543 C1547 1.385 . S
C1544 H1525 0.951 . S
C1544 C1542 1.388 . S
C1544 C1545 1.366 . S
C1545 C1544 1.366 . S
C1545 C1546 1.414 . S
C1545 C1548 1.499 . S
C1546 H1526 0.950 . S
C1546 C1545 1.414 . S
C1546 C1547 1.374 . S
C1547 H1527 0.950 . S
C1547 C1543 1.385 . S
C1547 C1546 1.374 . S
C1548 C1545 1.499 . S
C1548 C1549 1.363 1_655 S
C1548 C1550 1.389 . S
C1549 H1528 0.960 . S
C1549 C1548 1.363 1_455 S
C1549 C1565 1.377 1_554 S
C1550 C1548 1.389 . S
C1550 C1551 1.524 . S
C1550 C1564 1.377 1_554 S
C1551 C1550 1.524 . S
C1551 C1552 1.397 . S
C1551 C1556 1.363 . S
C1552 H1529 0.950 . S
C1552 C1551 1.397 . S
C1552 C1553 1.334 . S
C1553 H1530 0.950 . S
C1553 C1552 1.334 . S
C1553 C1554 1.287 . S
C1554 C1553 1.287 . S
C1554 C1555 1.524 . S
C1554 H1573 0.913 . S
C1555 H1531 0.950 . S
C1555 C1554 1.524 . S
C1555 C1556 1.415 . S
C1556 H1532 0.950 1_554 S
C1556 C1551 1.363 . S
C1556 C1555 1.415 . S
C1557 H1533 0.951 . S
C1557 C1558 1.366 . S
C1557 C1559 1.388 . S
C1558 C1557 1.366 . S
C1558 C1562 1.385 . S
C1559 H1534 0.951 . S
C1559 C1557 1.388 . S
C1559 C1560 1.366 . S
C1560 C1559 1.366 . S
C1560 C1561 1.414 . S
C1560 C1563 1.499 . S
C1561 H1535 0.950 . S
C1561 C1560 1.414 . S
C1561 C1562 1.374 . S
C1562 H1536 0.950 . S
C1562 C1558 1.385 . S
C1562 C1561 1.374 . S
C1563 C1560 1.499 . S
C1563 C1564 1.373 . S
C1563 C1565 1.389 1_655 S
C1564 H1537 0.950 . S
C1564 C1550 1.377 1_556 S
C1564 C1563 1.373 . S
C1565 C1549 1.377 1_556 S
C1565 C1563 1.389 1_455 S
C1565 C1566 1.524 . S
C1566 C1565 1.524 . S
C1566 C1567 1.397 . S
C1566 C1571 1.363 . S
C1567 H1538 0.950 . S
C1567 C1566 1.397 . S
C1567 C1568 1.334 . S
C1568 H1539 0.950 . S
C1568 C1567 1.334 . S
C1568 C1569 1.287 . S
C1569 C1568 1.287 . S
C1569 C1570 1.524 . S
C1569 H1572 0.999 . S
C1570 H1540 0.950 . S
C1570 C1569 1.524 . S
C1570 C1571 1.415 . S
C1571 H1541 0.950 1_556 S
C1571 C1566 1.363 . S
C1571 C1570 1.415 . S
H1572 C1569 0.999 . S
H1573 C1554 0.913 . S
H1574 C1592 0.951 . S
H1575 C1594 0.951 . S
H1576 C1596 0.950 . S
H1577 C1597 0.950 . S
H1578 C1599 0.950 . S
H1579 C1602 0.950 . S
H1580 C1603 0.950 . S
H1581 C1605 0.950 . S
H1582 C1606 0.950 . S
H1583 C1607 0.951 . S
H1584 C1609 0.951 . S
H1585 C1611 0.950 . S
H1586 C1612 0.950 . S
H1587 C1614 0.950 . S
H1588 C1617 0.950 . S
H1589 C1618 0.950 . S
H1590 C1620 0.950 . S
H1591 C1621 0.950 . S
C1592 H1574 0.951 . S
C1592 C1593 1.366 . S
C1592 C1594 1.388 . S
C1593 C1592 1.366 . S
C1593 C1597 1.385 . S
C1594 H1575 0.951 . S
C1594 C1592 1.388 . S
C1594 C1595 1.366 . S
C1595 C1594 1.366 . S
C1595 C1596 1.414 . S
C1595 C1598 1.499 . S
C1596 H1576 0.950 . S
C1596 C1595 1.414 . S
C1596 C1597 1.374 . S
C1597 H1577 0.950 . S
C1597 C1593 1.385 . S
C1597 C1596 1.374 . S
C1598 C1595 1.499 . S
C1598 C1599 1.373 . S
C1598 C1600 1.389 . S
C1599 H1578 0.950 . S
C1599 C1598 1.373 . S
C1599 C1615 1.377 . S
C1600 C1598 1.389 . S
C1600 C1601 1.524 . S
C1600 C1614 1.377 . S
C1601 C1600 1.524 . S
C1601 C1602 1.397 . S
C1601 C1606 1.363 1_565 S
C1602 H1579 0.950 . S
C1602 C1601 1.397 . S
C1602 C1603 1.334 . S
C1603 H1580 0.950 . S
C1603 C1602 1.334 . S
C1603 C1604 1.287 . S
C1604 C1603 1.287 . S
C1604 C1605 1.524 1_565 S
C1604 H1623 0.913 1_565 S
C1605 H1581 0.950 . S
C1605 C1604 1.524 1_545 S
C1605 C1606 1.415 . S
C1606 H1582 0.950 . S
C1606 C1601 1.363 1_545 S
C1606 C1605 1.415 . S
C1607 H1583 0.951 . S
C1607 C1608 1.366 . S
C1607 C1609 1.388 . S
C1608 C1607 1.366 . S
C1608 C1612 1.385 . S
C1609 H1584 0.951 . S
C1609 C1607 1.388 . S
C1609 C1610 1.366 . S
C1610 C1609 1.366 . S
C1610 C1611 1.414 . S
C1610 C1613 1.499 . S
C1611 H1585 0.950 . S
C1611 C1610 1.414 . S
C1611 C1612 1.374 . S
C1612 H1586 0.950 . S
C1612 C1608 1.385 . S
C1612 C1611 1.374 . S
C1613 C1610 1.499 . S
C1613 C1614 1.373 . S
C1613 C1615 1.389 . S
C1614 H1587 0.950 . S
C1614 C1600 1.377 . S
C1614 C1613 1.373 . S
C1615 C1599 1.377 . S
C1615 C1613 1.389 . S
C1615 C1616 1.524 . S
C1616 C1615 1.524 . S
C1616 C1617 1.397 . S
C1616 C1621 1.363 . S
C1617 H1588 0.950 . S
C1617 C1616 1.397 . S
C1617 C1618 1.334 . S
C1618 H1589 0.950 . S
C1618 C1617 1.334 . S
C1618 C1619 1.287 . S
C1619 C1618 1.287 . S
C1619 C1620 1.524 . S
C1619 H1622 0.999 . S
C1620 H1590 0.950 . S
C1620 C1619 1.524 . S
C1620 C1621 1.415 . S
C1621 H1591 0.950 . S
C1621 C1616 1.363 . S
C1621 C1620 1.415 . S
H1622 C1619 0.999 . S
H1623 C1604 0.913 1_545 S
H1624 C1642 0.951 . S
H1625 C1644 0.951 . S
H1626 C1646 0.950 . S
H1627 C1647 0.950 . S
H1628 C1649 0.950 . S
H1629 C1652 0.950 . S
H1630 C1653 0.950 . S
H1631 C1655 0.950 . S
H1632 C1656 0.950 . S
H1633 C1657 0.951 . S
H1634 C1659 0.951 . S
H1635 C1661 0.950 . S
H1636 C1662 0.950 . S
H1637 C1664 0.950 . S
H1638 C1667 0.950 . S
H1639 C1668 0.950 . S
H1640 C1670 0.950 . S
H1641 C1671 0.950 . S
C1642 H1624 0.951 . S
C1642 C1643 1.366 . S
C1642 C1644 1.388 . S
C1643 C1642 1.366 . S
C1643 C1647 1.385 . S
C1644 H1625 0.951 . S
C1644 C1642 1.388 . S
C1644 C1645 1.366 . S
C1645 C1644 1.366 . S
C1645 C1646 1.414 . S
C1645 C1648 1.499 . S
C1646 H1626 0.950 . S
C1646 C1645 1.414 . S
C1646 C1647 1.374 . S
C1647 H1627 0.950 . S
C1647 C1643 1.385 . S
C1647 C1646 1.374 . S
C1648 C1645 1.499 . S
C1648 C1649 1.373 . S
C1648 C1650 1.389 . S
C1649 H1628 0.950 . S
C1649 C1648 1.373 . S
C1649 C1665 1.377 1_556 S
C1650 C1648 1.389 . S
C1650 C1651 1.524 . S
C1650 C1664 1.377 1_556 S
C1651 C1650 1.524 . S
C1651 C1652 1.397 . S
C1651 C1656 1.363 1_556 S
C1652 H1629 0.950 . S
C1652 C1651 1.397 . S
C1652 C1653 1.334 . S
C1653 H1630 0.950 . S
C1653 C1652 1.334 . S
C1653 C1654 1.287 . S
C1654 C1653 1.287 . S
C1654 C1655 1.524 1_556 S
C1654 H1673 0.913 . S
C1655 H1631 0.950 . S
C1655 C1654 1.524 1_554 S
C1655 C1656 1.415 . S
C1656 H1632 0.950 . S
C1656 C1651 1.363 1_554 S
C1656 C1655 1.415 . S
C1657 H1633 0.951 . S
C1657 C1658 1.366 . S
C1657 C1659 1.388 . S
C1658 C1657 1.366 . S
C1658 C1662 1.385 . S
C1659 H1634 0.951 . S
C1659 C1657 1.388 . S
C1659 C1660 1.366 . S
C1660 C1659 1.366 . S
C1660 C1661 1.414 . S
C1660 C1663 1.499 . S
C1661 H1635 0.950 . S
C1661 C1660 1.414 . S
C1661 C1662 1.374 . S
C1662 H1636 0.950 . S
C1662 C1658 1.385 . S
C1662 C1661 1.374 . S
C1663 C1660 1.499 . S
C1663 C1664 1.373 . S
C1663 C1665 1.389 . S
C1664 H1637 0.950 . S
C1664 C1650 1.377 1_554 S
C1664 C1663 1.373 . S
C1665 C1649 1.377 1_554 S
C1665 C1663 1.389 . S
C1665 C1666 1.524 . S
C1666 C1665 1.524 . S
C1666 C1667 1.397 . S
C1666 C1671 1.363 1_554 S
C1667 H1638 0.950 . S
C1667 C1666 1.397 . S
C1667 C1668 1.334 . S
C1668 H1639 0.950 . S
C1668 C1667 1.334 . S
C1668 C1669 1.287 . S
C1669 C1668 1.287 . S
C1669 C1670 1.524 1_554 S
C1669 H1672 0.999 . S
C1670 H1640 0.950 . S
C1670 C1669 1.524 1_556 S
C1670 C1671 1.415 . S
C1671 H1641 0.950 . S
C1671 C1666 1.363 1_556 S
C1671 C1670 1.415 . S
H1672 C1669 0.999 . S
H1673 C1654 0.913 . S
H1674 C1692 0.951 . S
H1675 C1694 0.951 . S
H1676 C1696 0.950 . S
H1677 C1697 0.950 . S
H1678 C1699 0.950 . S
H1679 C1702 0.950 . S
H1680 C1703 0.950 . S
H1681 C1705 0.950 . S
H1682 C1706 0.950 . S
H1683 C1707 0.951 . S
H1684 C1709 0.951 . S
H1685 C1711 0.950 . S
H1686 C1712 0.950 . S
H1687 C1714 0.950 . S
H1688 C1717 0.950 . S
H1689 C1718 0.950 . S
H1690 C1720 0.950 . S
H1691 C1721 0.950 . S
C1692 H1674 0.951 . S
C1692 C1693 1.366 . S
C1692 C1694 1.388 . S
C1693 C1692 1.366 . S
C1693 C1697 1.385 . S
C1694 H1675 0.951 . S
C1694 C1692 1.388 . S
C1694 C1695 1.366 . S
C1695 C1694 1.366 . S
C1695 C1696 1.414 . S
C1695 C1698 1.499 . S
C1696 H1676 0.950 . S
C1696 C1695 1.414 . S
C1696 C1697 1.374 . S
C1697 H1677 0.950 . S
C1697 C1693 1.385 . S
C1697 C1696 1.374 . S
C1698 C1695 1.499 . S
C1698 C1699 1.373 . S
C1698 C1700 1.389 . S
C1699 H1678 0.950 . S
C1699 C1698 1.373 . S
C1699 C1715 1.377 . S
C1700 C1698 1.389 . S
C1700 C1701 1.524 . S
C1700 C1714 1.377 . S
C1701 C1700 1.524 . S
C1701 C1702 1.397 . S
C1701 C1706 1.363 . S
C1702 H1679 0.950 . S
C1702 C1701 1.397 . S
C1702 C1703 1.334 . S
C1703 H1680 0.950 . S
C1703 C1702 1.334 . S
C1703 C1704 1.287 . S
C1704 C1703 1.287 . S
C1704 C1705 1.524 . S
C1704 H1723 0.913 . S
C1705 H1681 0.950 . S
C1705 C1704 1.524 . S
C1705 C1706 1.415 . S
C1706 H1682 0.950 . S
C1706 C1701 1.363 . S
C1706 C1705 1.415 . S
C1707 H1683 0.951 . S
C1707 C1708 1.366 . S
C1707 C1709 1.388 . S
C1708 C1707 1.366 . S
C1708 C1712 1.385 . S
C1709 H1684 0.951 . S
C1709 C1707 1.388 . S
C1709 C1710 1.366 . S
C1710 C1709 1.366 . S
C1710 C1711 1.414 . S
C1710 C1713 1.499 . S
C1711 H1685 0.950 . S
C1711 C1710 1.414 . S
C1711 C1712 1.374 . S
C1712 H1686 0.950 . S
C1712 C1708 1.385 . S
C1712 C1711 1.374 . S
C1713 C1710 1.499 . S
C1713 C1714 1.373 . S
C1713 C1715 1.389 . S
C1714 H1687 0.950 . S
C1714 C1700 1.377 . S
C1714 C1713 1.373 . S
C1715 C1699 1.377 . S
C1715 C1713 1.389 . S
C1715 C1716 1.524 . S
C1716 C1715 1.524 . S
C1716 C1717 1.397 . S
C1716 C1721 1.363 . S
C1717 H1688 0.950 . S
C1717 C1716 1.397 . S
C1717 C1718 1.334 . S
C1718 H1689 0.950 . S
C1718 C1717 1.334 . S
C1718 C1719 1.287 . S
C1719 C1718 1.287 . S
C1719 C1720 1.524 . S
C1719 H1722 0.999 . S
C1720 H1690 0.950 . S
C1720 C1719 1.524 . S
C1720 C1721 1.415 . S
C1721 H1691 0.950 . S
C1721 C1716 1.363 . S
C1721 C1720 1.415 . S
H1722 C1719 0.999 . S
H1723 C1704 0.913 . S
H1724 C1742 0.951 . S
H1725 C1744 0.951 . S
H1726 C1746 0.977 . S
H1727 C1747 0.974 . S
H1728 C1749 0.950 . S
H1729 C1752 0.950 . S
H1730 C1753 0.950 . S
H1731 C1755 0.950 . S
H1732 C1756 0.950 . S
H1733 C1757 0.964 . S
H1734 C1759 0.975 . S
H1735 C1761 0.950 . S
H1736 C1762 0.950 . S
H1737 C1764 0.950 . S
H1738 C1767 0.950 . S
H1739 C1768 0.950 . S
H1740 C1770 0.950 . S
H1741 C1771 0.950 . S
C1742 H1724 0.951 . S
C1742 C1743 1.366 . S
C1742 C1744 1.388 . S
C1743 C1742 1.366 . S
C1743 C1747 1.361 1_455 S
C1744 H1725 0.951 . S
C1744 C1742 1.388 . S
C1744 C1745 1.366 . S
C1745 C1744 1.366 . S
C1745 C1746 1.388 1_455 S
C1745 C1748 1.499 . S
C1746 H1726 0.977 . S
C1746 C1745 1.388 1_655 S
C1746 C1747 1.374 . S
C1747 H1727 0.974 . S
C1747 C1743 1.361 1_655 S
C1747 C1746 1.374 . S
C1748 C1745 1.499 . S
C1748 C1749 1.373 1_455 S
C1748 C1750 1.389 . S
C1749 H1728 0.950 . S
C1749 C1748 1.373 1_655 S
C1749 C1765 1.377 1_554 S
C1750 C1748 1.389 . S
C1750 C1751 1.524 . S
C1750 C1764 1.377 1_554 S
C1751 C1750 1.524 . S
C1751 C1752 1.397 . S
C1751 C1756 1.363 . S
C1752 H1729 0.950 . S
C1752 C1751 1.397 . S
C1752 C1753 1.334 . S
C1753 H1730 0.950 . S
C1753 C1752 1.334 . S
C1753 C1754 1.287 . S
C1754 C1753 1.287 . S
C1754 C1755 1.524 . S
C1754 H1773 0.913 . S
C1755 H1731 0.950 . S
C1755 C1754 1.524 . S
C1755 C1756 1.415 . S
C1756 H1732 0.950 . S
C1756 C1751 1.363 . S
C1756 C1755 1.415 . S
C1757 H1733 0.964 . S
C1757 C1758 1.353 1_655 S
C1757 C1759 1.388 . S
C1758 C1757 1.353 1_455 S
C1758 C1762 1.385 . S
C1759 H1734 0.975 . S
C1759 C1757 1.388 . S
C1759 C1760 1.343 1_655 S
C1760 C1759 1.343 1_455 S
C1760 C1761 1.414 . S
C1760 C1763 1.499 . S
C1761 H1735 0.950 . S
C1761 C1760 1.414 . S
C1761 C1762 1.374 . S
C1762 H1736 0.950 . S
C1762 C1758 1.385 . S
C1762 C1761 1.374 . S
C1763 C1760 1.499 . S
C1763 C1764 1.373 . S
C1763 C1765 1.389 1_455 S
C1764 H1737 0.950 . S
C1764 C1750 1.377 1_556 S
C1764 C1763 1.373 . S
C1765 C1749 1.377 1_556 S
C1765 C1763 1.389 1_655 S
C1765 C1766 1.524 . S
C1766 C1765 1.524 . S
C1766 C1767 1.397 . S
C1766 C1771 1.363 . S
C1767 H1738 0.950 . S
C1767 C1766 1.397 . S
C1767 C1768 1.334 . S
C1768 H1739 0.950 . S
C1768 C1767 1.334 . S
C1768 C1769 1.287 . S
C1769 C1768 1.287 . S
C1769 C1770 1.524 . S
C1769 H1772 0.999 . S
C1770 H1740 0.950 . S
C1770 C1769 1.524 . S
C1770 C1771 1.415 . S
C1771 H1741 0.950 . S
C1771 C1766 1.363 . S
C1771 C1770 1.415 . S
H1772 C1769 0.999 . S
H1773 C1754 0.913 . S
H1774 C1792 0.951 . S
H1775 C1794 0.951 . S
H1776 C1796 0.982 . S
H1777 C1797 0.950 . S
H1778 C1799 0.950 . S
H1779 C1802 0.954 . S
H1780 C1803 0.950 1_565 S
H1781 C1805 0.950 . S
H1782 C1806 0.950 . S
H1783 C1807 0.951 . S
H1784 C1809 0.951 . S
H1785 C1811 0.950 . S
H1786 C1812 0.950 . S
H1787 C1814 0.950 . S
H1788 C1817 0.950 . S
H1789 C1818 0.950 . S
H1790 C1820 0.950 . S
H1791 C1821 0.976 . S
C1792 H1774 0.951 . S
C1792 C1793 1.366 . S
C1792 C1794 1.388 . S
C1793 C1792 1.366 . S
C1793 C1797 1.385 . S
C1794 H1775 0.951 . S
C1794 C1792 1.388 . S
C1794 C1795 1.366 . S
C1795 C1794 1.366 . S
C1795 C1796 1.414 . S
C1795 C1798 1.499 . S
C1796 H1776 0.982 . S
C1796 C1795 1.414 . S
C1796 C1797 1.374 . S
C1797 H1777 0.950 . S
C1797 C1793 1.385 . S
C1797 C1796 1.374 . S
C1798 C1795 1.499 . S
C1798 C1799 1.373 . S
C1798 C1800 1.389 . S
C1799 H1778 0.950 . S
C1799 C1798 1.373 . S
C1799 C1815 1.377 . S
C1800 C1798 1.389 . S
C1800 C1801 1.524 . S
C1800 C1814 1.377 . S
C1801 C1800 1.524 . S
C1801 C1802 1.397 . S
C1801 C1806 1.363 . S
C1802 H1779 0.954 . S
C1802 C1801 1.397 . S
C1802 C1803 1.334 . S
C1803 H1780 0.950 1_545 S
C1803 C1802 1.334 . S
C1803 C1804 1.287 . S
C1804 C1803 1.287 . S
C1804 C1805 1.524 . S
C1804 H1823 0.913 . S
C1805 H1781 0.950 . S
C1805 C1804 1.524 . S
C1805 C1806 1.415 . S
C1806 H1782 0.950 . S
C1806 C1801 1.363 . S
C1806 C1805 1.415 . S
C1807 H1783 0.951 . S
C1807 C1808 1.366 . S
C1807 C1809 1.388 . S
C1808 C1807 1.366 . S
C1808 C1812 1.385 . S
C1809 H1784 0.951 . S
C1809 C1807 1.388 . S
C1809 C1810 1.366 . S
C1810 C1809 1.366 . S
C1810 C1811 1.414 . S
C1810 C1813 1.499 . S
C1811 H1785 0.950 . S
C1811 C1810 1.414 . S
C1811 C1812 1.374 . S
C1812 H1786 0.950 . S
C1812 C1808 1.385 . S
C1812 C1811 1.374 . S
C1813 C1810 1.499 . S
C1813 C1814 1.373 . S
C1813 C1815 1.389 . S
C1814 H1787 0.950 . S
C1814 C1800 1.377 . S
C1814 C1813 1.373 . S
C1815 C1799 1.377 . S
C1815 C1813 1.389 . S
C1815 C1816 1.524 . S
C1816 C1815 1.524 . S
C1816 C1817 1.397 . S
C1816 C1821 1.363 . S
C1817 H1788 0.950 . S
C1817 C1816 1.397 . S
C1817 C1818 1.334 . S
C1818 H1789 0.950 . S
C1818 C1817 1.334 . S
C1818 C1819 1.287 . S
C1819 C1818 1.287 . S
C1819 C1820 1.524 . S
C1819 H1822 0.999 . S
C1820 H1790 0.950 . S
C1820 C1819 1.524 . S
C1820 C1821 1.415 . S
C1821 H1791 0.976 . S
C1821 C1816 1.363 . S
C1821 C1820 1.415 . S
H1822 C1819 0.999 . S
H1823 C1804 0.913 . S
C243 C11 1.024 . S
C258 C109 1.028 1_545 S
C293 C25 1.027 . S
C308 C67 1.025 . S
C343 C39 1.025 . S
C358 C81 1.027 . S
C393 C53 1.028 1_545 S
C408 C95 1.024 . S
C443 C117 0.978 . S
C458 C221 1.034 . S
C493 C173 0.978 . S
C508 C137 1.035 . S
C543 C145 0.978 . S
C558 C193 1.034 . S
C593 C165 1.034 . S
C608 C201 0.978 . S
C643 C4 1.079 . S
C658 C138 1.127 . S
C693 C18 1.225 . S
C708 C144 1.256 . S
C743 C166 1.127 . S
C758 C32 1.079 . S
C793 C46 1.224 . S
C808 C116 1.256 . S
C843 C60 1.078 . S
C858 C222 1.127 . S
C893 C172 1.257 . S
C908 C74 1.224 . S
C943 C194 1.127 . S
C958 C88 1.080 . S
C993 C200 1.257 . S
C1008 C102 1.224 . S
C1043 C26 1.026 . S
C1058 C124 1.012 . S
C1093 C40 1.117 . S
C1108 C130 1.082 . S
C1143 C152 1.011 . S
C1158 C54 1.026 . S
C1193 C12 1.117 . S
C1208 C158 1.082 . S
C1243 C180 1.011 . S
C1258 C110 1.026 . S
C1293 C186 1.082 . S
C1308 C68 1.117 . S
C1343 C82 1.026 . S
C1358 C208 1.012 . S
C1393 C96 1.117 . S
C1408 C214 1.083 . S
C1443 C5 1.253 . S
C1458 C61 1.252 . S
C1493 C75 1.327 . S
C1508 C19 1.327 . S
C1543 C33 1.252 . S
C1558 C89 1.252 . S
C1593 C103 1.329 . S
C1608 C47 1.329 . S
C1643 C123 1.543 . S
C1658 C179 1.543 . S
C1693 C187 1.321 . S
C1708 C131 1.321 . S
C1743 C207 1.543 . S
C1758 C151 1.543 . S
C1793 C215 1.322 . S
C1808 C159 1.322 . S
