# Generated by pormake.
# Topology qtz-x, (6)-cn, num edge types: 1
# Building blocks:
#     Node 0, Type 0, BuildingBlock: KUMBOL_clean_sbu_1, # of connection points: 6
#     Node 1, Type 0, BuildingBlock: KUMBOL_clean_sbu_1, # of connection points: 6
#     Node 2, Type 0, BuildingBlock: KUMBOL_clean_sbu_1, # of connection points: 6
#     Edge 3, Type (0, 0), BuildingBlock: EZIPEK_clean_linker_0, # of connection points: 2
#     Edge 4, Type (0, 0), BuildingBlock: EZIPEK_clean_linker_0, # of connection points: 2
#     Edge 5, Type (0, 0), BuildingBlock: EZIPEK_clean_linker_0, # of connection points: 2
#     Edge 6, Type (0, 0), BuildingBlock: EZIPEK_clean_linker_0, # of connection points: 2
#     Edge 7, Type (0, 0), BuildingBlock: EZIPEK_clean_linker_0, # of connection points: 2
#     Edge 8, Type (0, 0), BuildingBlock: EZIPEK_clean_linker_0, # of connection points: 2
#     Edge 9, Type (0, 0), BuildingBlock: EZIPEK_clean_linker_0, # of connection points: 2
#     Edge 10, Type (0, 0), BuildingBlock: EZIPEK_clean_linker_0, # of connection points: 2
#     Edge 11, Type (0, 0), BuildingBlock: EZIPEK_clean_linker_0, # of connection points: 2
# Relax obj value: 0.202
# Max RMSD: 0.284
# Mean RMSD: 0.284
data_MOF--net-qtz-x--node1-KUMBOL_clean_sbu_1--edge1-EZIPEK_clean_linker_0
_symmetry_space_group_name_H-M    P1
_symmetry_Int_Tables_number       1
_symmetry_cell_setting            triclinic
loop_
_symmetry_equiv_pos_as_xyz
'x, y, z'
_cell_length_a     11.652207
_cell_length_b     11.680778
_cell_length_c     42.263365
_cell_angle_alpha  89.71146
_cell_angle_beta   90.728381
_cell_angle_gamma 119.93036
loop_
_atom_site_label
_atom_site_type_symbol
_atom_site_fract_x
_atom_site_fract_y
_atom_site_fract_z
_atom_type_partial_charge
C0 C 0.50466 0.53202 0.19152 0.0
C1 C 0.64082 0.71946 0.15777 0.0
C2 C 0.52015 0.63808 0.17298 0.0
C3 C 0.74269 0.69044 0.16052 0.0
C4 C 0.61108 0.50974 0.19622 0.0
C5 C 0.72846 0.5872 0.17988 0.0
N6 N 0.38717 0.45334 0.20578 0.0
C7 C 0.37173 0.35622 0.22637 0.0
C8 C 0.59465 0.40741 0.21638 0.0
C9 C 0.47633 0.33346 0.23245 0.0
Gd10 Gd 0.91136 0.35655 0.1389 0.0
Gd11 Gd 0.22451 0.50708 0.19488 0.0
N12 N 0.41907 0.66392 0.17055 0.0
C13 C 0.65603 0.82801 0.14032 0.0
C14 C 0.43766 0.77684 0.15626 0.0
C15 C 0.55446 0.85788 0.13998 0.0
H16 H 0.3634 0.80556 0.15695 0.0
H17 H 0.56697 0.94484 0.12776 0.0
H18 H 0.81073 0.09538 0.18707 0.0
H19 H 0.27822 0.29445 0.23761 0.0
H20 H 0.61237 0.95198 0.21869 0.0
H21 H 0.74743 0.89211 0.12812 0.0
H22 H 0.83127 0.74615 0.14722 0.0
H23 H 0.83808 0.54849 0.09414 0.0
H24 H 0.67006 0.38055 0.21873 0.0
H25 H 0.46343 0.2544 0.24812 0.0
H26 H 0.30895 0.0976 0.18987 0.0
H27 H 0.80684 0.5651 0.18128 0.0
H28 H 0.42995 0.42469 0.10902 0.0
H29 H 0.64054 0.56809 0.08159 0.0
N30 N 0.73761 0.39324 0.12735 0.0
C31 C 0.62217 0.30978 0.14153 0.0
C32 C 0.74576 0.48464 0.10585 0.0
C33 C 0.51555 0.41414 0.11397 0.0
C34 C 0.63428 0.49558 0.09858 0.0
C35 C 0.50911 0.32067 0.13584 0.0
H36 H 0.31495 0.26213 0.15202 0.0
N37 N 0.72717 0.20404 0.16666 0.0
C38 C 0.61731 0.21405 0.16215 0.0
C39 C 0.50055 0.03903 0.19998 0.0
C40 C 0.50109 0.1315 0.17867 0.0
C41 C 0.72496 0.10731 0.18529 0.0
C42 C 0.61286 0.02597 0.20308 0.0
O43 O 0.26278 0.4912 0.14222 0.0
O44 O 0.10059 0.52119 0.12118 0.0
O45 O 0.80375 0.18207 0.10924 0.0
O46 O 0.91008 0.37545 0.08774 0.0
O47 O 0.16304 0.66038 0.18053 0.0
O48 O -0.02162 0.57738 0.14712 0.0
O49 O 0.87784 0.39146 0.19028 0.0
O50 O 0.02783 0.34427 0.21119 0.0
O51 O 0.36411 0.59721 0.234 0.0
O52 O 0.17151 0.57758 0.23687 0.0
O53 O -0.00161 0.21717 0.14676 0.0
O54 O 0.14236 0.28202 0.18994 0.0
C55 C 0.20622 0.51299 0.11759 0.0
C56 C 0.07368 0.67602 0.16412 0.0
C57 C 0.71523 0.21859 0.06164 0.0
C58 C 0.64023 0.23709 0.00888 0.0
C59 C 0.48082 0.13162 0.05081 0.0
C60 C 0.58322 0.15289 0.07182 0.0
C61 C 0.50897 0.1738 0.01943 0.0
C62 C 0.74273 0.25897 0.03005 0.0
C63 C 0.82703 0.25048 0.08331 0.0
C64 C 0.39188 0.149 0.17467 0.0
C65 C 0.39576 0.24294 0.15336 0.0
H66 H 0.41338 0.97563 0.21363 0.0
C67 C 0.93071 0.36793 0.21535 0.0
C68 C 0.06981 0.19346 0.1678 0.0
C69 C 0.26644 0.54602 0.2836 0.0
C70 C 0.32484 0.56995 0.3396 0.0
C71 C 0.20803 0.35222 0.31587 0.0
C72 C 0.20421 0.40834 0.28691 0.0
C73 C 0.26786 0.43255 0.34224 0.0
C74 C 0.32605 0.62673 0.31012 0.0
C75 C 0.27992 0.6054 0.25214 0.0
H76 H 0.37945 0.08211 0.05886 0.0
H77 H 0.55894 0.11835 0.09589 0.0
H78 H 0.42874 0.1565 0.00334 0.0
H79 H 0.84425 0.30848 0.02192 0.0
H80 H 0.16262 0.24606 0.318 0.0
H81 H 0.15363 0.34438 0.26703 0.0
H82 H 0.2665 0.38776 0.36484 0.0
H83 H 0.37253 0.73318 0.30793 0.0
C84 C 0.29353 0.55453 0.52148 0.0
C85 C 0.37105 0.45825 0.48235 0.0
C86 C 0.3941 0.5647 0.50222 0.0
C87 C 0.24722 0.34358 0.48231 0.0
C88 C 0.17355 0.43561 0.52347 0.0
C89 C 0.1495 0.3334 0.50273 0.0
N90 N 0.30839 0.6633 0.53635 0.0
C91 C 0.21096 0.65945 0.55442 0.0
C92 C 0.07673 0.42775 0.54411 0.0
C93 C 0.09611 0.53995 0.56007 0.0
Gd94 Gd 0.66771 0.17349 0.47703 0.0
Gd95 Gd 0.50889 0.85248 0.53044 0.0
N96 N 0.5108 0.68057 0.50145 0.0
C97 C 0.47022 0.4728 0.4618 0.0
C98 C 0.60883 0.69315 0.48184 0.0
C99 C 0.58971 0.59105 0.46166 0.0
H100 H 0.70048 0.78205 0.4802 0.0
H101 H 0.6664 0.60607 0.44537 0.0
H102 H 0.43829 0.2167 0.52177 0.0
H103 H 0.22031 0.74957 0.56338 0.0
H104 H 0.43478 0.38653 0.55258 0.0
H105 H 0.4549 0.39424 0.44575 0.0
H106 H 0.22446 0.26503 0.46566 0.0
H107 H 0.96595 0.31595 0.44596 0.0
H108 H -0.01553 0.33797 0.54689 0.0
H109 H 0.01926 0.53617 0.5749 0.0
H110 H 0.87794 0.74634 0.54895 0.0
H111 H 0.05124 0.25233 0.50024 0.0
H112 H 0.18186 0.70758 0.48279 0.0
H113 H 0.17098 0.53129 0.44835 0.0
N114 N 0.86168 0.37455 0.47684 0.0
C115 C 0.86396 0.47241 0.49443 0.0
C116 C 0.9684 0.39502 0.45966 0.0
C117 C 0.09033 0.61643 0.47998 0.0
C118 C 0.08437 0.51698 0.46079 0.0
C119 C -0.02038 0.59541 0.4968 0.0
H120 H 0.07661 0.77736 0.52231 0.0
N121 N 0.64141 0.3283 0.50843 0.0
C122 C 0.75192 0.44901 0.51081 0.0
C123 C 0.63993 0.52641 0.54519 0.0
C124 C 0.75459 0.54974 0.52984 0.0
C125 C 0.52779 0.30795 0.52274 0.0
C126 C 0.52513 0.40587 0.54102 0.0
O127 O 0.42679 0.81785 0.4799 0.0
O128 O 0.62206 0.97098 0.46267 0.0
O129 O 0.58264 0.24564 0.44132 0.0
O130 O 0.73215 0.19842 0.42848 0.0
O131 O 0.73396 0.92998 0.52064 0.0
O132 O 0.81676 0.09613 0.48193 0.0
O133 O 0.76272 0.20958 0.52602 0.0
O134 O 0.56824 0.05885 0.54399 0.0
O135 O 0.51475 0.73097 0.56994 0.0
O136 O 0.50047 0.90467 0.57897 0.0
O137 O 0.44285 0.0814 0.4828 0.0
O138 O 0.348 0.90665 0.5185 0.0
C139 C 0.50276 0.87865 0.45572 0.0
C140 C 0.83045 0.01193 0.50117 0.0
C141 C 0.7189 0.35706 0.39755 0.0
C142 C 0.80639 0.4368 0.34508 0.0
C143 C 0.8559 0.59196 0.38841 0.0
C144 C 0.78417 0.48689 0.409 0.0
C145 C 0.87021 0.56716 0.35681 0.0
C146 C 0.72526 0.33301 0.36539 0.0
C147 C 0.65665 0.24365 0.41884 0.0
C148 C 0.8721 0.67002 0.53341 0.0
C149 C -0.01568 0.69091 0.51732 0.0
H150 H 0.63901 0.60093 0.56011 0.0
C151 C 0.69191 0.14313 0.55023 0.0
C152 C 0.34001 -0.00688 0.49919 0.0
C153 C 0.4208 0.74443 0.61961 0.0
C154 C 0.39413 0.64678 0.67217 0.0
C155 C 0.23025 0.69811 0.65173 0.0
C156 C 0.30782 0.75556 0.62517 0.0
C157 C 0.27149 0.64095 0.67485 0.0
C158 C 0.46597 0.69353 0.6439 0.0
C159 C 0.50422 0.80493 0.59141 0.0
H160 H 0.90649 0.69222 0.39732 0.0
H161 H 0.78294 0.50642 0.43388 0.0
H162 H 0.93311 0.64948 0.34167 0.0
H163 H 0.67402 0.23226 0.35659 0.0
H164 H 0.14232 0.70527 0.65536 0.0
H165 H 0.2819 0.81365 0.60998 0.0
H166 H 0.21499 0.60491 0.69631 0.0
H167 H 0.56018 0.69687 0.64159 0.0
C168 C 0.62516 0.85061 0.85232 0.0
C169 C 0.43342 0.80833 0.82076 0.0
C170 C 0.509 0.76341 0.83722 0.0
C171 C 0.48523 0.9437 0.817 0.0
C172 C 0.66651 -0.015 0.85287 0.0
C173 C 0.60096 0.03123 0.83323 0.0
N174 N 0.69331 0.80257 0.86804 0.0
C175 C 0.79353 0.88068 0.88856 0.0
C176 C 0.7702 0.06693 0.87343 0.0
C177 C 0.83274 0.01407 0.89181 0.0
Gd178 Gd 0.79734 0.4349 0.8038 0.0
Gd179 Gd 0.62286 0.57956 0.86026 0.0
N180 N 0.46921 0.63397 0.83892 0.0
C181 C 0.31182 0.71591 0.80759 0.0
C182 C 0.34528 0.54248 0.82867 0.0
C183 C 0.26657 0.5823 0.81231 0.0
H184 H 0.31272 0.43863 0.83084 0.0
H185 H 0.17185 0.50993 0.80326 0.0
H186 H 0.01729 0.53873 0.86575 0.0
H187 H 0.84357 0.84001 0.90224 0.0
H188 H 0.1457 0.45654 0.8947 0.0
H189 H 0.25166 0.74627 0.79429 0.0
H190 H 0.43825 0.98118 0.80132 0.0
H191 H 0.62679 0.20332 0.7474 0.0
H192 H 0.80135 0.17032 0.87581 0.0
H193 H 0.91209 0.07621 0.90804 0.0
H194 H 0.08831 0.0959 0.83268 0.0
H195 H 0.63799 0.13401 0.83057 0.0
H196 H 0.83169 -0.01089 0.73695 0.0
H197 H 0.67027 0.05152 0.71682 0.0
N198 N 0.77531 0.24218 0.78225 0.0
C199 C 0.86464 0.2101 0.7937 0.0
C200 C 0.69886 0.17929 0.75629 0.0
C201 C 0.81551 0.05929 0.75002 0.0
C202 C 0.7229 0.09248 0.73885 0.0
C203 C 0.88086 0.11177 0.77882 0.0
H204 H 0.97213 -0.00827 0.78229 0.0
N205 N 0.93792 0.38234 0.83193 0.0
C206 C 0.94235 0.27707 0.82008 0.0
C207 C 0.09276 0.29572 0.86231 0.0
C208 C 0.02352 0.23446 0.83438 0.0
C209 C 0.01468 0.45067 0.85749 0.0
C210 C 0.08888 0.40518 0.87383 0.0
O211 O 0.54142 0.51895 0.81039 0.0
O212 O 0.73687 0.58085 0.79012 0.0
O213 O -0.02098 0.52412 0.77739 0.0
O214 O 0.79149 0.44737 0.75233 0.0
O215 O 0.48898 0.35839 0.84905 0.0
O216 O 0.56767 0.28145 0.80844 0.0
O217 O 0.74266 0.34212 0.853 0.0
O218 O 0.77857 0.5322 0.87181 0.0
O219 O 0.45963 0.47357 0.89246 0.0
O220 O 0.65121 0.60827 0.91143 0.0
O221 O 0.95073 0.63484 0.82425 0.0
O222 O 0.83911 0.73888 0.84386 0.0
C223 C 0.61267 0.54005 0.78539 0.0
C224 C 0.47335 0.26265 0.82951 0.0
C225 C 0.96243 0.42935 0.72681 0.0
C226 C 0.94523 0.33254 0.67401 0.0
C227 C 0.07484 0.30711 0.71693 0.0
C228 C 0.05182 0.38816 0.73623 0.0
C229 C 0.01534 0.27262 0.68728 0.0
C230 C 0.90958 0.40161 0.69575 0.0
C231 C 0.91876 0.49429 0.74986 0.0
C232 C 0.03021 0.12963 0.82103 0.0
C233 C 0.96306 0.07071 0.79283 0.0
H234 H 0.15292 0.26211 0.87449 0.0
C235 C 0.746 0.41087 0.87759 0.0
C236 C 0.95002 0.7422 0.8337 0.0
C237 C 0.46695 0.59504 0.93708 0.0
C238 C 0.38566 0.61694 0.98815 0.0
C239 C 0.34118 0.70892 0.94097 0.0
C240 C 0.40929 0.66348 0.92283 0.0
C241 C 0.32811 0.68469 0.9734 0.0
C242 C 0.45927 0.5762 0.96997 0.0
C243 C 0.52665 0.53548 0.91748 0.0
H244 H 0.13353 0.26498 0.72567 0.0
H245 H 0.09581 0.40838 0.75944 0.0
H246 H 0.02259 0.19427 0.67601 0.0
H247 H 0.83593 0.42854 0.68975 0.0
H248 H 0.29595 0.76048 0.92975 0.0
H249 H 0.41381 0.67889 0.8976 0.0
H250 H 0.27133 0.71717 0.987 0.0
H251 H 0.50371 0.52361 0.98114 0.0
C252 C 0.07756 0.87842 0.13639 0.0
C253 C 0.08061 0.81275 0.16483 0.0
C254 C 0.05717 -0.0148 0.19443 0.0
C255 C 0.06803 0.05874 0.16649 0.0
N256 N 0.12993 0.08589 0.11166 0.0
N257 N 0.13078 0.85035 0.22112 0.0
C258 C 0.08732 0.00674 0.1376 0.0
C259 C 0.08553 0.87832 0.19392 0.0
N260 N 0.06672 0.8201 0.10777 0.0
N261 N 0.0236 0.01862 0.22222 0.0
H262 H 0.16564 0.78447 0.22238 0.0
H263 H 0.14968 0.90557 0.2418 0.0
H264 H 0.00871 0.09863 0.22422 0.0
H265 H 0.00026 0.95987 0.24243 0.0
H266 H 0.04559 0.85384 0.08683 0.0
H267 H 0.07035 0.73358 0.10502 0.0
H268 H 0.15762 0.06042 0.09067 0.0
H269 H 0.16012 0.18531 0.11339 0.0
C270 C 0.16117 0.02288 0.52746 0.0
C271 C 0.21298 0.00434 0.49875 0.0
C272 C 0.01056 0.9813 0.47164 0.0
C273 C 0.961 0.0048 0.50014 0.0
N274 N 0.03648 0.11317 0.55006 0.0
N275 N 0.20584 0.03 0.44189 0.0
C276 C 0.04755 0.04007 0.52693 0.0
C277 C 0.14324 0.00143 0.47029 0.0
N278 N 0.22163 0.02879 0.5558 0.0
N279 N 0.93164 0.93971 0.44542 0.0
H280 H 0.30578 0.06061 0.43966 0.0
H281 H 0.16322 0.04089 0.42109 0.0
H282 H 0.83638 0.92486 0.44569 0.0
H283 H 0.9565 0.9083 0.42489 0.0
H284 H 0.17863 0.02848 0.57735 0.0
H285 H 0.3111 0.0296 0.55801 0.0
H286 H 0.11653 0.1708 0.56498 0.0
H287 H 0.96487 0.14087 0.5487 0.0
C288 C 0.15177 0.92941 0.80406 0.0
C289 C 0.08521 0.87337 0.83313 0.0
C290 C 0.27255 0.06832 0.86085 0.0
C291 C 0.33852 0.12727 0.83137 0.0
N292 N 0.29867 0.1298 0.77565 0.0
N293 N 0.10292 0.87861 0.88968 0.0
C294 C 0.26764 0.06025 0.80318 0.0
C295 C 0.15206 0.94018 0.86152 0.0
N296 N 0.10172 0.86021 0.77659 0.0
N297 N 0.31558 0.13835 0.88845 0.0
H298 H 0.01325 0.79079 0.89119 0.0
H299 H 0.15537 0.90823 0.91102 0.0
H300 H 0.40312 0.22695 0.8912 0.0
H301 H 0.25912 0.11255 0.9089 0.0
H302 H 0.15419 0.88656 0.7555 0.0
H303 H 0.01137 0.7724 0.77529 0.0
H304 H 0.24605 0.09337 0.75452 0.0
H305 H 0.36092 0.23151 0.77572 0.0
C306 C 0.40366 0.69107 0.04411 0.0
C307 C 0.36134 0.5855 0.02242 0.0
C308 C 0.2236 0.43044 0.06359 0.0
C309 C 0.26432 0.53739 0.08518 0.0
N310 N 0.33917 0.77012 0.08887 0.0
N311 N 0.24235 0.35061 0.01218 0.0
C312 C 0.34102 0.66836 0.07376 0.0
C313 C 0.2759 0.45377 0.03245 0.0
N314 N 0.50387 0.81391 0.0363 0.0
N315 N 0.12084 0.3095 0.0713 0.0
H316 H 0.26472 0.36212 0.98821 0.0
H317 H 0.19871 0.25259 0.01946 0.0
H318 H 0.07346 0.29216 0.09284 0.0
H319 H 0.07317 0.23039 0.05569 0.0
H320 H 0.54642 0.89161 0.05251 0.0
H321 H 0.55354 0.83318 0.01484 0.0
H322 H 0.38242 0.86542 0.07969 0.0
H323 H 0.2793 0.7554 0.10823 0.0
C324 C 0.865 0.31408 0.30452 0.0
C325 C 0.82735 0.40957 0.31178 0.0
C326 C 0.86814 0.484 0.2572 0.0
C327 C 0.88852 0.37803 0.24847 0.0
N328 N 0.86322 0.16778 0.26416 0.0
N329 N 0.74635 0.54956 0.29119 0.0
C330 C 0.8737 0.28523 0.27225 0.0
C331 C 0.81352 0.48286 0.28689 0.0
N332 N 0.89791 0.25472 0.32805 0.0
N333 N 0.90572 0.58947 0.23794 0.0
H334 H 0.69791 0.54448 0.31218 0.0
H335 H 0.7256 0.59612 0.27268 0.0
H336 H 0.95696 0.59925 0.21743 0.0
H337 H 0.8986 0.67191 0.24423 0.0
H338 H 0.92988 0.18753 0.32364 0.0
H339 H 0.90762 0.28303 0.35172 0.0
H340 H 0.84186 0.09243 0.28038 0.0
H341 H 0.8581 0.13995 0.24071 0.0
C342 C 0.55956 0.68644 0.75289 0.0
C343 C 0.56627 0.5696 0.75494 0.0
C344 C 0.47236 0.50835 0.70099 0.0
C345 C 0.45399 0.61951 0.70046 0.0
N346 N 0.46662 0.80795 0.72734 0.0
N347 N 0.52063 0.36291 0.73208 0.0
C348 C 0.49239 0.70591 0.727 0.0
C349 C 0.52143 0.47925 0.72914 0.0
N350 N 0.62464 0.78266 0.775 0.0
N351 N 0.44105 0.42959 0.67478 0.0
H352 H 0.55387 0.33977 0.75263 0.0
H353 H 0.47766 0.2857 0.71584 0.0
H354 H 0.39369 0.44046 0.65485 0.0
H355 H 0.4676 0.35741 0.67196 0.0
H356 H 0.61972 0.86848 0.776 0.0
H357 H 0.68935 0.77959 0.79182 0.0
H358 H 0.46924 0.85815 0.74785 0.0
H359 H 0.43698 0.83986 0.70743 0.0
C360 C 0.79248 0.4515 0.93653 0.0
C361 C 0.72758 0.36036 0.91127 0.0
C362 C 0.63038 0.18365 0.95118 0.0
C363 C 0.67123 0.27926 0.97545 0.0
N364 N 0.77446 0.50911 0.99031 0.0
N365 N 0.56232 0.1361 0.89701 0.0
C366 C 0.74677 0.41483 0.96786 0.0
C367 C 0.64146 0.2249 0.91922 0.0
N368 N 0.90415 0.5694 0.93126 0.0
N369 N 0.58169 0.05351 0.95848 0.0
H370 H 0.55418 0.16479 0.8744 0.0
H371 H 0.49124 0.03883 0.90217 0.0
H372 H 0.57111 0.01927 0.98169 0.0
H373 H 0.56534 0.98253 0.94144 0.0
H374 H 0.95928 0.63477 0.9494 0.0
H375 H 0.95261 0.59129 0.90977 0.0
H376 H 0.81926 0.60939 0.98485 0.0
H377 H 0.74122 0.48623 0.01354 0.0
C378 C 0.28262 0.66878 0.38705 0.0
C379 C 0.37359 0.65415 0.36825 0.0
C380 C 0.55663 0.81628 0.40117 0.0
C381 C 0.46417 0.81849 0.4228 0.0
N382 N 0.24856 0.79579 0.42642 0.0
N383 N 0.59521 0.69757 0.35958 0.0
C384 C 0.32942 0.75759 0.413 0.0
C385 C 0.50997 0.72315 0.37592 0.0
N386 N 0.14992 0.59323 0.38104 0.0
N387 N 0.68653 0.9121 0.4018 0.0
H388 H 0.56487 0.63202 0.34052 0.0
H389 H 0.69297 0.73205 0.36677 0.0
H390 H 0.72376 -0.00532 0.41611 0.0
H391 H 0.75406 0.9211 0.38467 0.0
H392 H 0.07915 0.5831 0.39724 0.0
H393 H 0.11032 0.53166 0.36135 0.0
H394 H 0.15488 0.7705 0.41762 0.0
H395 H 0.28101 0.86245 0.44495 0.0
C396 C 0.92066 0.22106 0.62083 0.0
C397 C 0.89651 0.30663 0.63947 0.0
C398 C 0.72602 0.27835 0.60021 0.0
C399 C 0.74328 0.18272 0.58376 0.0
N400 N 0.81357 0.02177 0.59076 0.0
N401 N 0.83291 0.4732 0.6329 0.0
C402 C 0.82735 0.14128 0.59772 0.0
C403 C 0.81371 0.35136 0.62563 0.0
N404 N 0.04103 0.22868 0.62201 0.0
N405 N 0.61777 0.29004 0.59388 0.0
H406 H 0.91452 0.54042 0.64629 0.0
H407 H 0.78215 0.51424 0.62143 0.0
H408 H 0.54193 0.22244 0.5792 0.0
H409 H 0.59442 0.35102 0.60697 0.0
H410 H 0.05813 0.15669 0.61259 0.0
H411 H 0.12364 0.31011 0.63211 0.0
H412 H 0.86524 -0.01662 0.60299 0.0
H413 H 0.74391 0.95883 0.57456 0.0
loop_
_geom_bond_atom_site_label_1
_geom_bond_atom_site_label_2
_geom_bond_distance
_geom_bond_site_symmetry_2
_ccdc_geom_bond_type
C0 C2 1.422 . S
C0 C4 1.415 . S
C0 N6 1.369 . S
C1 C2 1.421 . S
C1 C3 1.417 . S
C1 C13 1.422 . S
C2 C0 1.422 . S
C2 C1 1.421 . S
C2 N12 1.359 . S
C3 C1 1.417 . S
C3 C5 1.329 . S
C3 H22 0.930 . S
C4 C0 1.415 . S
C4 C5 1.437 . S
C4 C8 1.413 . S
C5 C3 1.329 . S
C5 C4 1.437 . S
C5 H27 0.929 . S
N6 C0 1.369 . S
N6 C7 1.338 . S
N6 Gd11 2.622 . S
C7 N6 1.338 . S
C7 C9 1.378 . S
C7 H19 0.929 . S
C8 C4 1.413 . S
C8 C9 1.348 . S
C8 H24 0.931 . S
C9 C7 1.378 . S
C9 C8 1.348 . S
C9 H25 0.930 . S
Gd10 N30 2.622 . S
Gd10 N37 2.570 . S
Gd10 O44 2.353 1_655 S
Gd10 O45 2.468 . S
Gd10 O46 2.427 . S
Gd10 O48 2.388 . S
Gd10 O49 2.386 . S
Gd10 O53 2.307 . S
Gd10 C63 2.805 . S
Gd11 N6 2.622 . S
Gd11 N12 2.570 . S
Gd11 O43 2.386 . S
Gd11 O47 2.307 . S
Gd11 O50 2.353 1_455 S
Gd11 O51 2.468 . S
Gd11 O52 2.427 . S
Gd11 O54 2.388 . S
Gd11 C75 2.805 . S
N12 C2 1.359 . S
N12 Gd11 2.570 . S
N12 C14 1.343 . S
C13 C1 1.422 . S
C13 C15 1.321 . S
C13 H21 0.931 . S
C14 N12 1.343 . S
C14 C15 1.390 . S
C14 H16 0.931 . S
C15 C13 1.321 . S
C15 C14 1.390 . S
C15 H17 0.930 1_565 S
H16 C14 0.931 . S
H17 C15 0.930 1_545 S
H18 C41 0.931 . S
H19 C7 0.929 . S
H20 C42 0.930 . S
H21 C13 0.931 . S
H22 C3 0.930 . S
H23 C32 0.929 . S
H24 C8 0.931 . S
H25 C9 0.930 . S
H26 C64 0.930 . S
H27 C5 0.929 . S
H28 C33 0.931 . S
H29 C34 0.930 . S
N30 Gd10 2.622 . S
N30 C31 1.369 . S
N30 C32 1.338 . S
C31 N30 1.369 . S
C31 C35 1.415 . S
C31 C38 1.422 . S
C32 H23 0.929 . S
C32 N30 1.338 . S
C32 C34 1.378 . S
C33 H28 0.931 . S
C33 C34 1.348 . S
C33 C35 1.413 . S
C34 H29 0.930 . S
C34 C32 1.378 . S
C34 C33 1.348 . S
C35 C31 1.415 . S
C35 C33 1.413 . S
C35 C65 1.437 . S
H36 C65 0.929 . S
N37 Gd10 2.570 . S
N37 C38 1.359 . S
N37 C41 1.343 . S
C38 C31 1.422 . S
C38 N37 1.359 . S
C38 C40 1.421 . S
C39 C40 1.422 1_565 S
C39 C42 1.321 . S
C39 H66 0.931 . S
C40 C38 1.421 . S
C40 C39 1.422 1_545 S
C40 C64 1.417 . S
C41 H18 0.931 . S
C41 N37 1.343 . S
C41 C42 1.390 1_545 S
C42 H20 0.930 . S
C42 C39 1.321 . S
C42 C41 1.390 1_565 S
O43 Gd11 2.386 . S
O43 C55 1.265 . S
O44 Gd10 2.353 1_455 S
O44 C55 1.242 . S
O45 Gd10 2.468 . S
O45 C63 1.263 . S
O46 Gd10 2.427 . S
O46 C63 1.252 . S
O47 Gd11 2.307 . S
O47 C56 1.261 . S
O48 Gd10 2.388 . S
O48 C56 1.252 1_655 S
O49 Gd10 2.386 . S
O49 C67 1.265 . S
O50 Gd11 2.353 1_655 S
O50 C67 1.242 . S
O51 Gd11 2.468 . S
O51 C75 1.263 . S
O52 Gd11 2.427 . S
O52 C75 1.252 . S
O53 Gd10 2.307 . S
O53 C68 1.261 . S
O54 Gd11 2.388 . S
O54 C68 1.252 1_455 S
C55 O43 1.265 . S
C55 O44 1.242 . S
C56 O47 1.261 . S
C56 O48 1.252 1_455 S
C57 C60 1.394 . S
C57 C62 1.370 . S
C57 C63 1.500 . S
C58 C61 1.383 1_554 S
C58 C62 1.395 . S
C59 C60 1.396 . S
C59 C61 1.365 1_554 S
C59 H76 0.929 1_554 S
C60 C57 1.394 . S
C60 C59 1.396 . S
C60 H77 0.930 . S
C61 C58 1.383 1_556 S
C61 C59 1.365 1_556 S
C61 H78 0.931 . S
C62 C57 1.370 . S
C62 C58 1.395 . S
C62 H79 0.930 . S
C63 Gd10 2.805 . S
C63 O45 1.263 . S
C63 O46 1.252 . S
C63 C57 1.500 . S
C64 H26 0.930 . S
C64 C40 1.417 . S
C64 C65 1.329 . S
C65 C35 1.437 . S
C65 H36 0.929 . S
C65 C64 1.329 . S
H66 C39 0.931 . S
C67 O49 1.265 . S
C67 O50 1.242 . S
C68 O53 1.261 . S
C68 O54 1.252 1_655 S
C69 C72 1.394 . S
C69 C74 1.370 . S
C69 C75 1.500 . S
C70 C73 1.383 . S
C70 C74 1.395 . S
C71 C72 1.396 . S
C71 C73 1.365 . S
C71 H80 0.929 . S
C72 C69 1.394 . S
C72 C71 1.396 . S
C72 H81 0.930 . S
C73 C70 1.383 . S
C73 C71 1.365 . S
C73 H82 0.931 . S
C74 C69 1.370 . S
C74 C70 1.395 . S
C74 H83 0.930 . S
C75 Gd11 2.805 . S
C75 O51 1.263 . S
C75 O52 1.252 . S
C75 C69 1.500 . S
H76 C59 0.929 1_556 S
H77 C60 0.930 . S
H78 C61 0.931 . S
H79 C62 0.930 . S
H80 C71 0.929 . S
H81 C72 0.930 . S
H82 C73 0.931 . S
H83 C74 0.930 . S
C84 C86 1.422 . S
C84 C88 1.415 . S
C84 N90 1.369 . S
C85 C86 1.421 . S
C85 C87 1.417 . S
C85 C97 1.422 . S
C86 C84 1.422 . S
C86 C85 1.421 . S
C86 N96 1.359 . S
C87 C85 1.417 . S
C87 C89 1.329 . S
C87 H106 0.930 . S
C88 C84 1.415 . S
C88 C89 1.437 . S
C88 C92 1.413 . S
C89 C87 1.329 . S
C89 C88 1.437 . S
C89 H111 0.929 . S
N90 C84 1.369 . S
N90 C91 1.338 . S
N90 Gd95 2.622 . S
C91 N90 1.338 . S
C91 C93 1.378 . S
C91 H103 0.929 . S
C92 C88 1.413 . S
C92 C93 1.348 . S
C92 H108 0.931 1_455 S
C93 C91 1.378 . S
C93 C92 1.348 . S
C93 H109 0.930 . S
Gd94 N114 2.622 1_655 S
Gd94 N121 2.570 . S
Gd94 O128 2.353 . S
Gd94 O129 2.468 . S
Gd94 O130 2.427 . S
Gd94 O132 2.388 . S
Gd94 O133 2.386 . S
Gd94 O137 2.307 . S
Gd94 C147 2.805 . S
Gd95 N90 2.622 . S
Gd95 N96 2.570 . S
Gd95 O127 2.386 . S
Gd95 O131 2.307 1_565 S
Gd95 O134 2.353 1_565 S
Gd95 O135 2.468 . S
Gd95 O136 2.427 . S
Gd95 O138 2.388 1_565 S
Gd95 C159 2.805 . S
N96 C86 1.359 . S
N96 Gd95 2.570 . S
N96 C98 1.343 . S
C97 C85 1.422 . S
C97 C99 1.321 . S
C97 H105 0.931 . S
C98 N96 1.343 . S
C98 C99 1.390 . S
C98 H100 0.931 . S
C99 C97 1.321 . S
C99 C98 1.390 . S
C99 H101 0.930 . S
H100 C98 0.931 . S
H101 C99 0.930 . S
H102 C125 0.931 . S
H103 C91 0.929 . S
H104 C126 0.930 . S
H105 C97 0.931 . S
H106 C87 0.930 . S
H107 C116 0.929 . S
H108 C92 0.931 1_655 S
H109 C93 0.930 . S
H110 C148 0.930 . S
H111 C89 0.929 . S
H112 C117 0.931 . S
H113 C118 0.930 . S
N114 Gd94 2.622 1_455 S
N114 C115 1.369 . S
N114 C116 1.338 . S
C115 N114 1.369 . S
C115 C119 1.415 . S
C115 C122 1.422 1_455 S
C116 H107 0.929 . S
C116 N114 1.338 . S
C116 C118 1.378 . S
C117 H112 0.931 . S
C117 C118 1.348 . S
C117 C119 1.413 . S
C118 H113 0.930 . S
C118 C116 1.378 . S
C118 C117 1.348 . S
C119 C115 1.415 . S
C119 C117 1.413 . S
C119 C149 1.437 . S
H120 C149 0.929 . S
N121 Gd94 2.570 . S
N121 C122 1.359 . S
N121 C125 1.343 . S
C122 C115 1.422 1_655 S
C122 N121 1.359 . S
C122 C124 1.421 . S
C123 C124 1.422 . S
C123 C126 1.321 . S
C123 H150 0.931 . S
C124 C122 1.421 . S
C124 C123 1.422 . S
C124 C148 1.417 1_655 S
C125 H102 0.931 . S
C125 N121 1.343 . S
C125 C126 1.390 . S
C126 H104 0.930 . S
C126 C123 1.321 . S
C126 C125 1.390 . S
O127 Gd95 2.386 . S
O127 C139 1.265 . S
O128 Gd94 2.353 . S
O128 C139 1.242 1_545 S
O129 Gd94 2.468 . S
O129 C147 1.263 . S
O130 Gd94 2.427 . S
O130 C147 1.252 . S
O131 Gd95 2.307 1_545 S
O131 C140 1.261 . S
O132 Gd94 2.388 . S
O132 C140 1.252 . S
O133 Gd94 2.386 . S
O133 C151 1.265 . S
O134 Gd95 2.353 1_545 S
O134 C151 1.242 . S
O135 Gd95 2.468 . S
O135 C159 1.263 . S
O136 Gd95 2.427 . S
O136 C159 1.252 . S
O137 Gd94 2.307 . S
O137 C152 1.261 . S
O138 Gd95 2.388 1_545 S
O138 C152 1.252 . S
C139 O127 1.265 . S
C139 O128 1.242 1_565 S
C140 O131 1.261 . S
C140 O132 1.252 . S
C141 C144 1.394 . S
C141 C146 1.370 . S
C141 C147 1.500 . S
C142 C145 1.383 . S
C142 C146 1.395 . S
C143 C144 1.396 . S
C143 C145 1.365 . S
C143 H160 0.929 1_655 S
C144 C141 1.394 . S
C144 C143 1.396 . S
C144 H161 0.930 1_655 S
C145 C142 1.383 . S
C145 C143 1.365 . S
C145 H162 0.931 . S
C146 C141 1.370 . S
C146 C142 1.395 . S
C146 H163 0.930 . S
C147 Gd94 2.805 . S
C147 O129 1.263 . S
C147 O130 1.252 . S
C147 C141 1.500 . S
C148 H110 0.930 . S
C148 C124 1.417 1_455 S
C148 C149 1.329 . S
C149 C119 1.437 . S
C149 H120 0.929 . S
C149 C148 1.329 . S
H150 C123 0.931 . S
C151 O133 1.265 . S
C151 O134 1.242 . S
C152 O137 1.261 . S
C152 O138 1.252 . S
C153 C156 1.394 . S
C153 C158 1.370 . S
C153 C159 1.500 . S
C154 C157 1.383 . S
C154 C158 1.395 . S
C155 C156 1.396 . S
C155 C157 1.365 . S
C155 H164 0.929 . S
C156 C153 1.394 . S
C156 C155 1.396 . S
C156 H165 0.930 . S
C157 C154 1.383 . S
C157 C155 1.365 . S
C157 H166 0.931 . S
C158 C153 1.370 . S
C158 C154 1.395 . S
C158 H167 0.930 . S
C159 Gd95 2.805 . S
C159 O135 1.263 . S
C159 O136 1.252 . S
C159 C153 1.500 . S
H160 C143 0.929 1_455 S
H161 C144 0.930 1_455 S
H162 C145 0.931 . S
H163 C146 0.930 . S
H164 C155 0.929 . S
H165 C156 0.930 . S
H166 C157 0.931 . S
H167 C158 0.930 . S
C168 C170 1.422 . S
C168 C172 1.415 . S
C168 N174 1.369 . S
C169 C170 1.421 . S
C169 C171 1.417 . S
C169 C181 1.422 . S
C170 C168 1.422 . S
C170 C169 1.421 . S
C170 N180 1.359 . S
C171 C169 1.417 . S
C171 C173 1.329 . S
C171 H190 0.930 . S
C172 C168 1.415 . S
C172 C173 1.437 . S
C172 C176 1.413 1_565 S
C173 C171 1.329 . S
C173 C172 1.437 . S
C173 H195 0.929 1_565 S
N174 C168 1.369 . S
N174 C175 1.338 . S
N174 Gd179 2.622 . S
C175 N174 1.338 . S
C175 C177 1.378 1_565 S
C175 H187 0.929 . S
C176 C172 1.413 1_545 S
C176 C177 1.348 . S
C176 H192 0.931 . S
C177 C175 1.378 1_545 S
C177 C176 1.348 . S
C177 H193 0.930 . S
Gd178 N198 2.622 . S
Gd178 N205 2.570 . S
Gd178 O212 2.353 . S
Gd178 O213 2.468 . S
Gd178 O214 2.427 . S
Gd178 O216 2.388 . S
Gd178 O217 2.386 . S
Gd178 O221 2.307 . S
Gd178 C231 2.805 . S
Gd179 N174 2.622 . S
Gd179 N180 2.570 . S
Gd179 O211 2.386 . S
Gd179 O215 2.307 . S
Gd179 O218 2.353 . S
Gd179 O219 2.468 . S
Gd179 O220 2.427 . S
Gd179 O222 2.388 . S
Gd179 C243 2.805 . S
N180 C170 1.359 . S
N180 Gd179 2.570 . S
N180 C182 1.343 . S
C181 C169 1.422 . S
C181 C183 1.321 . S
C181 H189 0.931 . S
C182 N180 1.343 . S
C182 C183 1.390 . S
C182 H184 0.931 . S
C183 C181 1.321 . S
C183 C182 1.390 . S
C183 H185 0.930 . S
H184 C182 0.931 . S
H185 C183 0.930 . S
H186 C209 0.931 . S
H187 C175 0.929 . S
H188 C210 0.930 . S
H189 C181 0.931 . S
H190 C171 0.930 . S
H191 C200 0.929 . S
H192 C176 0.931 . S
H193 C177 0.930 . S
H194 C232 0.930 1_565 S
H195 C173 0.929 1_545 S
H196 C201 0.931 . S
H197 C202 0.930 . S
N198 Gd178 2.622 . S
N198 C199 1.369 . S
N198 C200 1.338 1_545 S
C199 N198 1.369 . S
C199 C203 1.415 1_545 S
C199 C206 1.422 . S
C200 H191 0.929 . S
C200 N198 1.338 1_565 S
C200 C202 1.378 . S
C201 H196 0.931 . S
C201 C202 1.348 . S
C201 C203 1.413 . S
C202 H197 0.930 . S
C202 C200 1.378 . S
C202 C201 1.348 . S
C203 C199 1.415 1_565 S
C203 C201 1.413 . S
C203 C233 1.437 . S
H204 C233 0.929 . S
N205 Gd178 2.570 . S
N205 C206 1.359 . S
N205 C209 1.343 1_655 S
C206 C199 1.422 . S
C206 N205 1.359 . S
C206 C208 1.421 1_655 S
C207 C208 1.422 . S
C207 C210 1.321 . S
C207 H234 0.931 . S
C208 C206 1.421 1_455 S
C208 C207 1.422 . S
C208 C232 1.417 . S
C209 H186 0.931 . S
C209 N205 1.343 1_455 S
C209 C210 1.390 . S
C210 H188 0.930 . S
C210 C207 1.321 . S
C210 C209 1.390 . S
O211 Gd179 2.386 . S
O211 C223 1.265 . S
O212 Gd178 2.353 . S
O212 C223 1.242 . S
O213 Gd178 2.468 . S
O213 C231 1.263 . S
O214 Gd178 2.427 . S
O214 C231 1.252 . S
O215 Gd179 2.307 . S
O215 C224 1.261 . S
O216 Gd178 2.388 . S
O216 C224 1.252 . S
O217 Gd178 2.386 . S
O217 C235 1.265 . S
O218 Gd179 2.353 . S
O218 C235 1.242 . S
O219 Gd179 2.468 . S
O219 C243 1.263 . S
O220 Gd179 2.427 . S
O220 C243 1.252 . S
O221 Gd178 2.307 . S
O221 C236 1.261 . S
O222 Gd179 2.388 . S
O222 C236 1.252 . S
C223 O211 1.265 . S
C223 O212 1.242 . S
C224 O215 1.261 . S
C224 O216 1.252 . S
C225 C228 1.394 . S
C225 C230 1.370 1_655 S
C225 C231 1.500 . S
C226 C229 1.383 1_455 S
C226 C230 1.395 . S
C227 C228 1.396 . S
C227 C229 1.365 . S
C227 H244 0.929 . S
C228 C225 1.394 . S
C228 C227 1.396 . S
C228 H245 0.930 . S
C229 C226 1.383 1_655 S
C229 C227 1.365 . S
C229 H246 0.931 1_655 S
C230 C225 1.370 1_455 S
C230 C226 1.395 . S
C230 H247 0.930 . S
C231 Gd178 2.805 . S
C231 O213 1.263 . S
C231 O214 1.252 . S
C231 C225 1.500 . S
C232 H194 0.930 1_545 S
C232 C208 1.417 . S
C232 C233 1.329 1_445 S
C233 C203 1.437 . S
C233 H204 0.929 . S
C233 C232 1.329 1_665 S
H234 C207 0.931 . S
C235 O217 1.265 . S
C235 O218 1.242 . S
C236 O221 1.261 . S
C236 O222 1.252 . S
C237 C240 1.394 . S
C237 C242 1.370 . S
C237 C243 1.500 . S
C238 C241 1.383 1_556 S
C238 C242 1.395 . S
C239 C240 1.396 . S
C239 C241 1.365 1_556 S
C239 H248 0.929 1_556 S
C240 C237 1.394 . S
C240 C239 1.396 . S
C240 H249 0.930 . S
C241 C238 1.383 1_554 S
C241 C239 1.365 1_554 S
C241 H250 0.931 . S
C242 C237 1.370 . S
C242 C238 1.395 . S
C242 H251 0.930 . S
C243 Gd179 2.805 . S
C243 O219 1.263 . S
C243 O220 1.252 . S
C243 C237 1.500 . S
H244 C227 0.929 . S
H245 C228 0.930 . S
H246 C229 0.931 1_455 S
H247 C230 0.930 . S
H248 C239 0.929 1_554 S
H249 C240 0.930 . S
H250 C241 0.931 . S
H251 C242 0.930 . S
C252 C253 1.363 . S
C252 C258 1.379 1_565 S
C252 N260 1.356 . S
C253 C252 1.363 . S
C253 C259 1.363 1_455 S
C254 C255 1.363 1_565 S
C254 C259 1.379 . S
C254 N261 1.356 1_565 S
C255 C254 1.363 1_545 S
C255 C258 1.363 1_655 S
N256 C258 1.356 . S
N256 H268 0.984 . S
N256 H269 0.985 . S
N257 C259 1.356 . S
N257 H262 0.984 . S
N257 H263 0.985 . S
C258 C252 1.379 1_545 S
C258 C255 1.363 1_455 S
C258 N256 1.356 . S
C259 C253 1.363 1_655 S
C259 C254 1.379 . S
C259 N257 1.356 . S
N260 C252 1.356 . S
N260 H266 0.984 . S
N260 H267 0.984 . S
N261 C254 1.356 1_545 S
N261 H264 0.984 . S
N261 H265 0.984 1_545 S
H262 N257 0.984 . S
H263 N257 0.985 . S
H264 N261 0.984 . S
H265 N261 0.984 1_565 S
H266 N260 0.984 . S
H267 N260 0.984 . S
H268 N256 0.984 . S
H269 N256 0.985 . S
C270 C271 1.363 . S
C270 C276 1.379 . S
C270 N278 1.356 . S
C271 C270 1.363 . S
C271 C277 1.363 . S
C272 C273 1.363 . S
C272 C277 1.379 . S
C272 N279 1.356 1_445 S
C273 C272 1.363 . S
C273 C276 1.363 . S
N274 C276 1.356 . S
N274 H286 0.984 . S
N274 H287 0.985 . S
N275 C277 1.356 . S
N275 H280 0.984 . S
N275 H281 0.985 1_545 S
C276 C270 1.379 . S
C276 C273 1.363 . S
C276 N274 1.356 . S
C277 C271 1.363 . S
C277 C272 1.379 . S
C277 N275 1.356 . S
N278 C270 1.356 . S
N278 H284 0.984 . S
N278 H285 0.984 . S
N279 C272 1.356 1_665 S
N279 H282 0.984 . S
N279 H283 0.985 . S
H280 N275 0.984 . S
H281 N275 0.985 1_565 S
H282 N279 0.984 . S
H283 N279 0.985 . S
H284 N278 0.984 . S
H285 N278 0.984 . S
H286 N274 0.984 . S
H287 N274 0.985 . S
C288 C289 1.363 . S
C288 C294 1.379 . S
C288 N296 1.356 . S
C289 C288 1.363 . S
C289 C295 1.363 . S
C290 C291 1.363 . S
C290 C295 1.379 1_545 S
C290 N297 1.356 . S
C291 C290 1.363 . S
C291 C294 1.363 1_545 S
N292 C294 1.356 1_545 S
N292 H304 0.984 . S
N292 H305 0.985 . S
N293 C295 1.356 1_655 S
N293 H298 0.984 . S
N293 H299 0.985 . S
C294 C288 1.379 . S
C294 C291 1.363 1_565 S
C294 N292 1.356 1_565 S
C295 C289 1.363 . S
C295 C290 1.379 1_565 S
C295 N293 1.356 1_455 S
N296 C288 1.356 . S
N296 H302 0.984 . S
N296 H303 0.984 . S
N297 C290 1.356 . S
N297 H300 0.984 . S
N297 H301 0.985 . S
H298 N293 0.984 . S
H299 N293 0.985 . S
H300 N297 0.984 . S
H301 N297 0.985 . S
H302 N296 0.984 . S
H303 N296 0.984 . S
H304 N292 0.984 . S
H305 N292 0.985 . S
C306 C307 1.363 . S
C306 C312 1.379 . S
C306 N314 1.356 . S
C307 C306 1.363 . S
C307 C313 1.363 . S
C308 C309 1.363 . S
C308 C313 1.379 . S
C308 N315 1.356 1_455 S
C309 C308 1.363 . S
C309 C312 1.363 . S
N310 C312 1.356 . S
N310 H322 0.984 . S
N310 H323 0.985 . S
N311 C313 1.356 . S
N311 H316 0.984 1_554 S
N311 H317 0.985 1_455 S
C312 C306 1.379 . S
C312 C309 1.363 . S
C312 N310 1.356 . S
C313 C307 1.363 . S
C313 C308 1.379 . S
C313 N311 1.356 . S
N314 C306 1.356 . S
N314 H320 0.984 . S
N314 H321 0.984 1_554 S
N315 C308 1.356 1_655 S
N315 H318 0.985 1_655 S
N315 H319 0.985 . S
H316 N311 0.984 1_556 S
H317 N311 0.985 1_655 S
H318 N315 0.985 1_455 S
H319 N315 0.985 . S
H320 N314 0.984 . S
H321 N314 0.984 1_556 S
H322 N310 0.984 . S
H323 N310 0.985 . S
C324 C325 1.363 . S
C324 C330 1.379 . S
C324 N332 1.356 . S
C325 C324 1.363 . S
C325 C331 1.363 . S
C326 C327 1.363 . S
C326 C331 1.379 . S
C326 N333 1.356 . S
C327 C326 1.363 . S
C327 C330 1.363 . S
N328 C330 1.356 . S
N328 H340 0.984 . S
N328 H341 0.985 . S
N329 C331 1.356 . S
N329 H334 0.984 . S
N329 H335 0.985 . S
C330 C324 1.379 . S
C330 C327 1.363 . S
C330 N328 1.356 . S
C331 C325 1.363 . S
C331 C326 1.379 . S
C331 N329 1.356 . S
N332 C324 1.356 . S
N332 H338 0.984 . S
N332 H339 0.984 . S
N333 C326 1.356 . S
N333 H336 0.984 . S
N333 H337 0.985 . S
H334 N329 0.984 . S
H335 N329 0.985 . S
H336 N333 0.984 . S
H337 N333 0.985 . S
H338 N332 0.984 . S
H339 N332 0.984 . S
H340 N328 0.984 . S
H341 N328 0.985 . S
C342 C343 1.363 . S
C342 C348 1.379 . S
C342 N350 1.356 . S
C343 C342 1.363 . S
C343 C349 1.363 . S
C344 C345 1.363 . S
C344 C349 1.379 . S
C344 N351 1.356 . S
C345 C344 1.363 . S
C345 C348 1.363 . S
N346 C348 1.356 . S
N346 H358 0.984 . S
N346 H359 0.985 . S
N347 C349 1.356 . S
N347 H352 0.984 . S
N347 H353 0.985 . S
C348 C342 1.379 . S
C348 C345 1.363 . S
C348 N346 1.356 . S
C349 C343 1.363 . S
C349 C344 1.379 . S
C349 N347 1.356 . S
N350 C342 1.356 . S
N350 H356 0.984 . S
N350 H357 0.984 . S
N351 C344 1.356 . S
N351 H354 0.984 . S
N351 H355 0.985 . S
H352 N347 0.984 . S
H353 N347 0.985 . S
H354 N351 0.984 . S
H355 N351 0.985 . S
H356 N350 0.984 . S
H357 N350 0.984 . S
H358 N346 0.984 . S
H359 N346 0.985 . S
C360 C361 1.363 . S
C360 C366 1.379 . S
C360 N368 1.356 . S
C361 C360 1.363 . S
C361 C367 1.363 . S
C362 C363 1.363 . S
C362 C367 1.379 . S
C362 N369 1.356 . S
C363 C362 1.363 . S
C363 C366 1.363 . S
N364 C366 1.356 1_554 S
N364 H376 0.984 . S
N364 H377 0.985 . S
N365 C367 1.356 . S
N365 H370 0.984 . S
N365 H371 0.985 . S
C366 C360 1.379 . S
C366 C363 1.363 . S
C366 N364 1.356 1_556 S
C367 C361 1.363 . S
C367 C362 1.379 . S
C367 N365 1.356 . S
N368 C360 1.356 . S
N368 H374 0.984 1_655 S
N368 H375 0.984 . S
N369 C362 1.356 . S
N369 H372 0.984 1_545 S
N369 H373 0.985 1_545 S
H370 N365 0.984 . S
H371 N365 0.985 . S
H372 N369 0.984 1_565 S
H373 N369 0.985 1_565 S
H374 N368 0.984 1_455 S
H375 N368 0.984 . S
H376 N364 0.984 . S
H377 N364 0.985 . S
C378 C379 1.363 . S
C378 C384 1.379 . S
C378 N386 1.356 . S
C379 C378 1.363 . S
C379 C385 1.363 . S
C380 C381 1.363 1_545 S
C380 C385 1.379 1_545 S
C380 N387 1.356 . S
C381 C380 1.363 1_565 S
C381 C384 1.363 . S
N382 C384 1.356 . S
N382 H394 0.984 . S
N382 H395 0.985 . S
N383 C385 1.356 1_545 S
N383 H388 0.984 1_545 S
N383 H389 0.985 . S
C384 C378 1.379 . S
C384 C381 1.363 . S
C384 N382 1.356 . S
C385 C379 1.363 . S
C385 C380 1.379 1_565 S
C385 N383 1.356 1_565 S
N386 C378 1.356 . S
N386 H392 0.984 . S
N386 H393 0.984 . S
N387 C380 1.356 . S
N387 H390 0.984 . S
N387 H391 0.985 . S
H388 N383 0.984 1_565 S
H389 N383 0.985 . S
H390 N387 0.984 . S
H391 N387 0.985 . S
H392 N386 0.984 . S
H393 N386 0.984 . S
H394 N382 0.984 . S
H395 N382 0.985 . S
C396 C397 1.363 . S
C396 C402 1.379 1_455 S
C396 N404 1.356 . S
C397 C396 1.363 . S
C397 C403 1.363 . S
C398 C399 1.363 . S
C398 C403 1.379 1_655 S
C398 N405 1.356 . S
C399 C398 1.363 . S
C399 C402 1.363 . S
N400 C402 1.356 . S
N400 H412 0.984 . S
N400 H413 0.985 . S
N401 C403 1.356 . S
N401 H406 0.984 . S
N401 H407 0.985 . S
C402 C396 1.379 1_655 S
C402 C399 1.363 . S
C402 N400 1.356 . S
C403 C397 1.363 . S
C403 C398 1.379 1_455 S
C403 N401 1.356 . S
N404 C396 1.356 . S
N404 H410 0.984 . S
N404 H411 0.984 . S
N405 C398 1.356 . S
N405 H408 0.984 . S
N405 H409 0.985 . S
H406 N401 0.984 . S
H407 N401 0.985 . S
H408 N405 0.984 . S
H409 N405 0.985 . S
H410 N404 0.984 . S
H411 N404 0.984 . S
H412 N400 0.984 . S
H413 N400 0.985 . S
C253 C56 1.658 . S
C255 C68 1.658 . S
C271 C152 1.658 . S
C273 C140 1.658 1_455 S
C289 C236 1.657 1_455 S
C291 C224 1.657 . S
C307 C238 1.332 1_554 S
C309 C55 1.506 . S
C325 C142 1.358 . S
C327 C67 1.849 . S
C343 C223 1.506 . S
C345 C154 1.332 . S
C361 C235 1.849 . S
C363 C58 1.358 1_556 S
C379 C70 1.332 . S
C381 C139 1.506 . S
C397 C226 1.358 . S
C399 C151 1.849 . S
