# Generated by pormake.
# Topology soi, (5)-cn, num edge types: 1
# Building blocks:
#     Node 0, Type 0, BuildingBlock: BEQFEK_clean_sbu_0, # of connection points: 5
#     Node 1, Type 0, BuildingBlock: BEQFEK_clean_sbu_0, # of connection points: 5
#     Node 2, Type 0, BuildingBlock: BEQFEK_clean_sbu_0, # of connection points: 5
#     Node 3, Type 0, BuildingBlock: BEQFEK_clean_sbu_0, # of connection points: 5
#     Node 4, Type 0, BuildingBlock: BEQFEK_clean_sbu_0, # of connection points: 5
#     Node 5, Type 0, BuildingBlock: BEQFEK_clean_sbu_0, # of connection points: 5
#     Node 6, Type 0, BuildingBlock: BEQFEK_clean_sbu_0, # of connection points: 5
#     Node 7, Type 0, BuildingBlock: BEQFEK_clean_sbu_0, # of connection points: 5
#     Node 8, Type 0, BuildingBlock: BEQFEK_clean_sbu_0, # of connection points: 5
#     Node 9, Type 0, BuildingBlock: BEQFEK_clean_sbu_0, # of connection points: 5
#     Node 10, Type 0, BuildingBlock: BEQFEK_clean_sbu_0, # of connection points: 5
#     Node 11, Type 0, BuildingBlock: BEQFEK_clean_sbu_0, # of connection points: 5
#     Node 12, Type 0, BuildingBlock: BEQFEK_clean_sbu_0, # of connection points: 5
#     Node 13, Type 0, BuildingBlock: BEQFEK_clean_sbu_0, # of connection points: 5
#     Node 14, Type 0, BuildingBlock: BEQFEK_clean_sbu_0, # of connection points: 5
#     Node 15, Type 0, BuildingBlock: BEQFEK_clean_sbu_0, # of connection points: 5
#     Edge 16, Type (0, 0), BuildingBlock: XUDNAN_clean_linker_2, # of connection points: 2
#     Edge 17, Type (0, 0), BuildingBlock: XUDNAN_clean_linker_2, # of connection points: 2
#     Edge 18, Type (0, 0), BuildingBlock: XUDNAN_clean_linker_2, # of connection points: 2
#     Edge 19, Type (0, 0), BuildingBlock: XUDNAN_clean_linker_2, # of connection points: 2
#     Edge 20, Type (0, 0), BuildingBlock: XUDNAN_clean_linker_2, # of connection points: 2
#     Edge 21, Type (0, 0), BuildingBlock: XUDNAN_clean_linker_2, # of connection points: 2
#     Edge 22, Type (0, 0), BuildingBlock: XUDNAN_clean_linker_2, # of connection points: 2
#     Edge 23, Type (0, 0), BuildingBlock: XUDNAN_clean_linker_2, # of connection points: 2
#     Edge 24, Type (0, 0), BuildingBlock: XUDNAN_clean_linker_2, # of connection points: 2
#     Edge 25, Type (0, 0), BuildingBlock: XUDNAN_clean_linker_2, # of connection points: 2
#     Edge 26, Type (0, 0), BuildingBlock: XUDNAN_clean_linker_2, # of connection points: 2
#     Edge 27, Type (0, 0), BuildingBlock: XUDNAN_clean_linker_2, # of connection points: 2
#     Edge 28, Type (0, 0), BuildingBlock: XUDNAN_clean_linker_2, # of connection points: 2
#     Edge 29, Type (0, 0), BuildingBlock: XUDNAN_clean_linker_2, # of connection points: 2
#     Edge 30, Type (0, 0), BuildingBlock: XUDNAN_clean_linker_2, # of connection points: 2
#     Edge 31, Type (0, 0), BuildingBlock: XUDNAN_clean_linker_2, # of connection points: 2
#     Edge 32, Type (0, 0), BuildingBlock: XUDNAN_clean_linker_2, # of connection points: 2
#     Edge 33, Type (0, 0), BuildingBlock: XUDNAN_clean_linker_2, # of connection points: 2
#     Edge 34, Type (0, 0), BuildingBlock: XUDNAN_clean_linker_2, # of connection points: 2
#     Edge 35, Type (0, 0), BuildingBlock: XUDNAN_clean_linker_2, # of connection points: 2
#     Edge 36, Type (0, 0), BuildingBlock: XUDNAN_clean_linker_2, # of connection points: 2
#     Edge 37, Type (0, 0), BuildingBlock: XUDNAN_clean_linker_2, # of connection points: 2
#     Edge 38, Type (0, 0), BuildingBlock: XUDNAN_clean_linker_2, # of connection points: 2
#     Edge 39, Type (0, 0), BuildingBlock: XUDNAN_clean_linker_2, # of connection points: 2
#     Edge 40, Type (0, 0), BuildingBlock: XUDNAN_clean_linker_2, # of connection points: 2
#     Edge 41, Type (0, 0), BuildingBlock: XUDNAN_clean_linker_2, # of connection points: 2
#     Edge 42, Type (0, 0), BuildingBlock: XUDNAN_clean_linker_2, # of connection points: 2
#     Edge 43, Type (0, 0), BuildingBlock: XUDNAN_clean_linker_2, # of connection points: 2
#     Edge 44, Type (0, 0), BuildingBlock: XUDNAN_clean_linker_2, # of connection points: 2
#     Edge 45, Type (0, 0), BuildingBlock: XUDNAN_clean_linker_2, # of connection points: 2
#     Edge 46, Type (0, 0), BuildingBlock: XUDNAN_clean_linker_2, # of connection points: 2
#     Edge 47, Type (0, 0), BuildingBlock: XUDNAN_clean_linker_2, # of connection points: 2
#     Edge 48, Type (0, 0), BuildingBlock: XUDNAN_clean_linker_2, # of connection points: 2
#     Edge 49, Type (0, 0), BuildingBlock: XUDNAN_clean_linker_2, # of connection points: 2
#     Edge 50, Type (0, 0), BuildingBlock: XUDNAN_clean_linker_2, # of connection points: 2
#     Edge 51, Type (0, 0), BuildingBlock: XUDNAN_clean_linker_2, # of connection points: 2
#     Edge 52, Type (0, 0), BuildingBlock: XUDNAN_clean_linker_2, # of connection points: 2
#     Edge 53, Type (0, 0), BuildingBlock: XUDNAN_clean_linker_2, # of connection points: 2
#     Edge 54, Type (0, 0), BuildingBlock: XUDNAN_clean_linker_2, # of connection points: 2
#     Edge 55, Type (0, 0), BuildingBlock: XUDNAN_clean_linker_2, # of connection points: 2
# Relax obj value: 0.120
# Max RMSD: 0.196
# Mean RMSD: 0.179
data_MOF--net-soi--node1-BEQFEK_clean_sbu_0--edge1-XUDNAN_clean_linker_2
_symmetry_space_group_name_H-M    P1
_symmetry_Int_Tables_number       1
_symmetry_cell_setting            triclinic
loop_
_symmetry_equiv_pos_as_xyz
'x, y, z'
_cell_length_a     35.769901
_cell_length_b     27.603554
_cell_length_c     74.715109
_cell_angle_alpha  90.003359
_cell_angle_beta   89.991204
_cell_angle_gamma 91.024886
loop_
_atom_site_label
_atom_site_type_symbol
_atom_site_fract_x
_atom_site_fract_y
_atom_site_fract_z
_atom_type_partial_charge
Co0 Co 0.3587 0.06936 0.14987 0.0
Co1 Co 0.33579 0.06676 0.10875 0.0
C2 C 0.29151 0.1216 0.13581 0.0
O3 O 0.31337 0.10884 0.14838 0.0
O4 O 0.29627 0.10738 0.11973 0.0
C5 C 0.35311 0.07065 0.18875 0.0
O6 O 0.32194 0.09371 0.18575 0.0
C7 C 0.29423 0.06166 0.07422 0.0
C8 C 0.34088 0.04805 0.05559 0.0
C9 C 0.30289 0.0567 0.05615 0.0
N10 N 0.3258 0.05607 0.0838 0.0
N11 N 0.3534 0.04748 0.07255 0.0
C12 C 0.25809 0.07764 0.08214 0.0
H13 H 0.25315 0.0589 0.09509 0.0
H14 H 0.23424 0.07054 0.07298 0.0
H15 H 0.25997 0.11715 0.08479 0.0
C16 C 0.34819 0.96397 0.14531 0.0
N17 N 0.34989 0.00908 0.13847 0.0
N18 N 0.34157 0.00747 0.12133 0.0
C19 C 0.33559 0.96093 0.11654 0.0
C20 C 0.33936 0.93166 0.13161 0.0
C21 C 0.34971 0.95357 0.16498 0.0
H22 H 0.3323 0.97994 0.17224 0.0
H23 H 0.33926 0.91666 0.16829 0.0
H24 H 0.37897 0.958 0.16972 0.0
O25 O 0.39953 0.10732 0.1381 0.0
O26 O 0.38254 0.10542 0.10951 0.0
H27 H 0.3278 0.90522 0.09628 0.0
H28 H 0.29851 0.95791 0.09409 0.0
C29 C 0.32669 0.94512 0.09782 0.0
H30 H 0.34725 0.96175 0.08849 0.0
H31 H 0.38116 0.04306 0.07643 0.0
O32 O 0.37312 0.05809 0.1755 0.0
C33 C 0.40483 0.11937 0.12181 0.0
Co34 Co 0.64205 0.42865 0.14353 0.0
Co35 Co 0.66475 0.42622 0.10227 0.0
C36 C 0.70551 0.36942 0.13045 0.0
O37 O 0.68511 0.3856 0.14299 0.0
O38 O 0.70087 0.3824 0.11423 0.0
C39 C 0.64489 0.42714 0.18232 0.0
O40 O 0.67322 0.39838 0.1797 0.0
C41 C 0.71461 0.4323 0.07072 0.0
C42 C 0.67542 0.45042 0.04901 0.0
C43 C 0.71274 0.44164 0.05247 0.0
N44 N 0.68003 0.43534 0.07772 0.0
N45 N 0.65674 0.44601 0.06462 0.0
C46 C 0.74895 0.42312 0.08152 0.0
H47 H 0.74609 0.43908 0.09508 0.0
H48 H 0.77421 0.43856 0.07486 0.0
H49 H 0.75236 0.38345 0.08297 0.0
C50 C 0.65809 0.5319 0.13816 0.0
N51 N 0.65397 0.48678 0.13161 0.0
N52 N 0.66211 0.48676 0.11443 0.0
C53 C 0.67059 0.53253 0.10937 0.0
C54 C 0.66841 0.56268 0.12427 0.0
C55 C 0.65748 0.54327 0.15778 0.0
H56 H 0.6729 0.51517 0.1652 0.0
H57 H 0.67059 0.57894 0.16087 0.0
H58 H 0.6281 0.54273 0.16256 0.0
O59 O 0.6006 0.39324 0.13166 0.0
O60 O 0.61561 0.39147 0.10276 0.0
H61 H 0.68104 0.58682 0.0889 0.0
H62 H 0.70841 0.5324 0.08721 0.0
C63 C 0.68058 0.54691 0.09063 0.0
H64 H 0.65974 0.53109 0.08125 0.0
H65 H 0.62806 0.45052 0.06635 0.0
O66 O 0.62714 0.44301 0.16884 0.0
C67 C 0.59368 0.38015 0.11562 0.0
Co68 Co 0.35227 0.92061 0.41027 0.0
Co69 Co 0.35828 0.93405 0.36825 0.0
C70 C 0.41951 0.88875 0.38773 0.0
O71 O 0.40214 0.89257 0.40266 0.0
O72 O 0.40597 0.90486 0.37318 0.0
C73 C 0.35453 0.94889 0.4492 0.0
O74 O 0.37041 0.9907 0.44516 0.0
C75 C 0.37423 0.96098 0.32983 0.0
C76 C 0.31603 0.96842 0.32044 0.0
C77 C 0.35285 0.97262 0.31484 0.0
N78 N 0.35082 0.95082 0.34355 0.0
N79 N 0.31618 0.95502 0.33771 0.0
C80 C 0.41588 0.9625 0.33156 0.0
H81 H 0.42415 0.96737 0.34577 0.0
H82 H 0.42806 0.99229 0.32332 0.0
H83 H 0.4272 0.92767 0.32676 0.0
C84 C 0.3273 0.0242 0.40586 0.0
N85 N 0.34327 0.98301 0.40004 0.0
N86 N 0.35202 0.98863 0.38305 0.0
C87 C 0.34549 0.0343 0.37803 0.0
C88 C 0.32843 0.05818 0.39206 0.0
C89 C 0.30486 0.02781 0.4227 0.0
H90 H 0.32053 0.05008 0.43263 0.0
H91 H 0.27808 0.04618 0.42001 0.0
H92 H 0.29879 0.99136 0.42833 0.0
O93 O 0.31328 0.87566 0.40205 0.0
O94 O 0.31902 0.88385 0.37271 0.0
H95 H 0.33424 0.04635 0.3502 0.0
H96 H 0.36013 0.09482 0.36093 0.0
C97 C 0.35632 0.05488 0.36017 0.0
H98 H 0.38277 0.03865 0.35558 0.0
H99 H 0.2925 0.94943 0.34566 0.0
O100 O 0.34678 0.9184 0.43693 0.0
C101 C 0.30355 0.86419 0.38627 0.0
Co102 Co 0.65544 0.57023 0.40363 0.0
Co103 Co 0.65112 0.56505 0.36139 0.0
C104 C 0.59779 0.62449 0.38129 0.0
O105 O 0.61181 0.61239 0.3964 0.0
O106 O 0.60952 0.60695 0.36658 0.0
C107 C 0.6422 0.53994 0.44166 0.0
O108 O 0.61363 0.51279 0.43652 0.0
C109 C 0.63373 0.54575 0.32255 0.0
C110 C 0.69077 0.52908 0.3133 0.0
C111 C 0.65405 0.53142 0.30755 0.0
N112 N 0.65758 0.55089 0.33644 0.0
N113 N 0.69158 0.54139 0.33067 0.0
C114 C 0.59233 0.55097 0.32412 0.0
H115 H 0.58351 0.54879 0.33834 0.0
H116 H 0.5776 0.5225 0.31618 0.0
H117 H 0.58442 0.58688 0.3188 0.0
C118 C 0.66483 0.46345 0.3973 0.0
N119 N 0.6556 0.50851 0.39203 0.0
N120 N 0.64787 0.50738 0.37484 0.0
C121 C 0.64864 0.46148 0.36898 0.0
C122 C 0.66082 0.43193 0.38276 0.0
C123 C 0.683 0.45274 0.41488 0.0
H124 H 0.69531 0.48625 0.42077 0.0
H125 H 0.66172 0.43754 0.42422 0.0
H126 H 0.70539 0.42578 0.41323 0.0
O127 O 0.70044 0.60706 0.39696 0.0
O128 O 0.6966 0.60375 0.36745 0.0
H129 H 0.65972 0.45239 0.34097 0.0
H130 H 0.6282 0.40731 0.35032 0.0
C131 C 0.63654 0.44623 0.35059 0.0
H132 H 0.61246 0.46807 0.3463 0.0
H133 H 0.71535 0.54215 0.33877 0.0
O134 O 0.66034 0.56476 0.43013 0.0
C135 C 0.71303 0.61826 0.38162 0.0
Co136 Co 0.6746 0.91265 0.92245 0.0
Co137 Co 0.64517 0.92393 0.88251 0.0
C138 C 0.59985 0.86912 0.90841 0.0
O139 O 0.62478 0.87727 0.92043 0.0
O140 O 0.60292 0.88632 0.89257 0.0
C141 C 0.68693 0.93625 0.96172 0.0
O142 O 0.66067 0.96888 0.96142 0.0
C143 C 0.6154 0.94812 0.84539 0.0
C144 C 0.66983 0.96936 0.83345 0.0
C145 C 0.63201 0.9658 0.82972 0.0
N146 N 0.64249 0.94234 0.85777 0.0
N147 N 0.67481 0.95466 0.85035 0.0
C148 C 0.57468 0.93996 0.84895 0.0
H149 H 0.56905 0.9406 0.86356 0.0
H150 H 0.55797 0.96785 0.84205 0.0
H151 H 0.56609 0.90388 0.84366 0.0
C152 C 0.68179 0.02067 0.9179 0.0
N153 N 0.67147 0.97585 0.91232 0.0
N154 N 0.65554 0.97954 0.89649 0.0
C155 C 0.65344 0.02654 0.89197 0.0
C156 C 0.67027 0.05408 0.90525 0.0
C157 C 0.70672 0.03105 0.93356 0.0
H158 H 0.72224 -0.00171 0.93742 0.0
H159 H 0.68961 0.0435 0.94499 0.0
H160 H 0.72702 0.06062 0.93027 0.0
O161 O 0.71147 0.87412 0.90943 0.0
O162 O 0.68779 0.88024 0.88226 0.0
H163 H 0.6547 0.04409 0.8641 0.0
H164 H 0.62555 0.08277 0.87729 0.0
C165 C 0.63474 0.0449 0.87545 0.0
H166 H 0.61011 0.02164 0.87217 0.0
H167 H 0.7004 0.95402 0.85704 0.0
O168 O 0.6942 0.91213 0.94766 0.0
C169 C 0.71194 0.8635 0.89292 0.0
Co170 Co 0.32704 0.5769 0.92604 0.0
Co171 Co 0.3458 0.57289 0.88446 0.0
C172 C 0.39687 0.62433 0.90979 0.0
O173 O 0.37589 0.61234 0.923 0.0
O174 O 0.38909 0.61146 0.89374 0.0
C175 C 0.31981 0.55115 0.96572 0.0
O176 O 0.34641 0.51903 0.96515 0.0
C177 C 0.37279 0.55401 0.84643 0.0
C178 C 0.31708 0.54406 0.83403 0.0
C179 C 0.35489 0.54443 0.83018 0.0
N180 N 0.34639 0.55896 0.85922 0.0
N181 N 0.31333 0.55282 0.85158 0.0
C182 C 0.41386 0.56001 0.84959 0.0
H183 H 0.41923 0.58078 0.86207 0.0
H184 H 0.42641 0.52375 0.85099 0.0
H185 H 0.42736 0.57855 0.83803 0.0
C186 C 0.32058 0.46986 0.91986 0.0
N187 N 0.32811 0.51558 0.91441 0.0
N188 N 0.33957 0.51445 0.89766 0.0
C189 C 0.34169 0.46805 0.89229 0.0
C190 C 0.32952 0.43817 0.90611 0.0
C191 C 0.3004 0.45709 0.93681 0.0
H192 H 0.28443 0.4884 0.94174 0.0
H193 H 0.32093 0.44608 0.94708 0.0
H194 H 0.28078 0.42607 0.93458 0.0
O195 O 0.28856 0.61723 0.91553 0.0
O196 O 0.30089 0.61373 0.88656 0.0
H197 H 0.33483 0.45655 0.86417 0.0
H198 H 0.3661 0.41467 0.8748 0.0
C199 C 0.35682 0.4528 0.87452 0.0
H200 H 0.38095 0.47648 0.87086 0.0
H201 H 0.28795 0.55456 0.85841 0.0
O202 O 0.31107 0.57454 0.95171 0.0
C203 C 0.28125 0.62872 0.89951 0.0
Co204 Co 0.64611 0.06337 0.60747 0.0
Co205 Co 0.6369 0.06703 0.6497 0.0
C206 C 0.57712 0.10275 0.62562 0.0
O207 O 0.59508 0.09206 0.61139 0.0
O208 O 0.59022 0.09472 0.64119 0.0
C209 C 0.65178 0.02661 0.56888 0.0
O210 O 0.63272 0.98644 0.57203 0.0
C211 C 0.61238 0.05295 0.6882 0.0
C212 C 0.66814 0.05446 0.70092 0.0
C213 C 0.6304 0.04929 0.70467 0.0
N214 N 0.63857 0.05951 0.67534 0.0
N215 N 0.6717 0.06048 0.68317 0.0
C216 C 0.57113 0.05218 0.6849 0.0
H217 H 0.56452 0.07159 0.67236 0.0
H218 H 0.56107 0.0141 0.6836 0.0
H219 H 0.55622 0.06888 0.69631 0.0
C220 C 0.66689 0.96074 0.61764 0.0
N221 N 0.65365 0.00533 0.62121 0.0
N222 N 0.64425 0.00689 0.63823 0.0
C223 C 0.64771 0.96281 0.64554 0.0
C224 C 0.66326 0.93199 0.63297 0.0
C225 C 0.68796 0.94842 0.601 0.0
H226 H 0.69784 0.98182 0.59411 0.0
H227 H 0.66951 0.92714 0.59191 0.0
H228 H 0.71244 0.92591 0.60429 0.0
O229 O 0.68256 0.11268 0.61476 0.0
O230 O 0.67919 0.11316 0.64439 0.0
H231 H 0.65432 0.96025 0.67402 0.0
H232 H 0.62664 0.91064 0.66487 0.0
C233 C 0.63322 0.94995 0.66377 0.0
H234 H 0.60734 0.97012 0.66642 0.0
H235 H 0.69695 0.06502 0.67631 0.0
O236 O 0.65753 0.05721 0.58136 0.0
C237 C 0.69357 0.12841 0.62983 0.0
Co238 Co 0.33252 0.41625 0.61039 0.0
Co239 Co 0.34237 0.41385 0.65257 0.0
C240 C 0.39069 0.35476 0.62971 0.0
O241 O 0.37528 0.37027 0.61538 0.0
O242 O 0.3815 0.37023 0.64514 0.0
C243 C 0.33693 0.45461 0.57273 0.0
O244 O 0.36246 0.48663 0.57771 0.0
C245 C 0.36653 0.43043 0.69088 0.0
C246 C 0.31085 0.44308 0.70261 0.0
C247 C 0.34859 0.44334 0.70671 0.0
N248 N 0.34035 0.42403 0.67802 0.0
N249 N 0.30721 0.43079 0.68532 0.0
C250 C 0.4077 0.42836 0.6876 0.0
H251 H 0.41376 0.42892 0.67303 0.0
H252 H 0.42226 0.45919 0.69434 0.0
H253 H 0.41847 0.39427 0.69333 0.0
C254 C 0.32385 0.52119 0.61963 0.0
N255 N 0.33526 0.47585 0.62334 0.0
N256 N 0.34543 0.47409 0.64024 0.0
C257 C 0.34435 0.51884 0.64727 0.0
C258 C 0.3293 0.55012 0.63475 0.0
C259 C 0.30101 0.53367 0.60353 0.0
H260 H 0.31892 0.55334 0.59372 0.0
H261 H 0.27768 0.55764 0.60727 0.0
H262 H 0.28922 0.50045 0.59722 0.0
O263 O 0.28713 0.38242 0.61785 0.0
O264 O 0.29445 0.37843 0.64725 0.0
H265 H 0.3646 0.5709 0.66674 0.0
H266 H 0.38353 0.51108 0.66866 0.0
C267 C 0.35797 0.53158 0.66566 0.0
H268 H 0.33628 0.52196 0.67568 0.0
H269 H 0.28205 0.42892 0.67827 0.0
O270 O 0.32385 0.42449 0.58408 0.0
C271 C 0.27572 0.36897 0.63315 0.0
Co272 Co 0.84309 0.56341 0.64628 0.0
Co273 Co 0.82912 0.5727 0.60445 0.0
C274 C 0.77828 0.61638 0.63281 0.0
O275 O 0.79582 0.59767 0.64584 0.0
O276 O 0.78856 0.60975 0.61665 0.0
C277 C 0.83844 0.55905 0.68498 0.0
O278 O 0.80995 0.58776 0.68269 0.0
C279 C 0.78359 0.55559 0.57183 0.0
C280 C 0.82435 0.57255 0.55045 0.0
C281 C 0.78746 0.55819 0.55329 0.0
N282 N 0.81667 0.56754 0.57945 0.0
N283 N 0.84088 0.5775 0.56655 0.0
C284 C 0.74866 0.54462 0.58223 0.0
H285 H 0.75149 0.5566 0.59629 0.0
H286 H 0.74326 0.50495 0.58233 0.0
H287 H 0.72436 0.56235 0.57592 0.0
C288 C 0.83738 0.46069 0.6374 0.0
N289 N 0.8393 0.50727 0.63223 0.0
N290 N 0.83533 0.51004 0.61477 0.0
C291 C 0.83241 0.46463 0.60814 0.0
C292 C 0.83344 0.43177 0.62228 0.0
C293 C 0.83333 0.44548 0.65658 0.0
H294 H 0.81638 0.47219 0.66392 0.0
H295 H 0.81939 0.40951 0.65794 0.0
H296 H 0.86142 0.44433 0.66285 0.0
O297 O 0.88052 0.61045 0.63697 0.0
O298 O 0.87498 0.61415 0.60731 0.0
H299 H 0.83795 0.41537 0.58591 0.0
H300 H 0.79917 0.45593 0.58457 0.0
C301 C 0.8288 0.45286 0.58867 0.0
H302 H 0.84588 0.47872 0.58062 0.0
H303 H 0.86863 0.58817 0.56874 0.0
O304 O 0.85697 0.54558 0.67138 0.0
C305 C 0.89066 0.62756 0.62185 0.0
Co306 Co 0.13799 0.92194 0.64972 0.0
Co307 Co 0.15777 0.91488 0.6083 0.0
C308 C 0.19768 0.85645 0.63575 0.0
O309 O 0.17841 0.87451 0.64834 0.0
O310 O 0.19294 0.86907 0.61953 0.0
C311 C 0.15507 0.93807 0.68675 0.0
O312 O 0.18916 0.92947 0.68118 0.0
C313 C 0.20365 0.9141 0.57532 0.0
C314 C 0.16488 0.94341 0.55522 0.0
C315 C 0.20091 0.92685 0.5574 0.0
N316 N 0.17072 0.92259 0.58339 0.0
N317 N 0.14764 0.93991 0.57124 0.0
C318 C 0.23789 0.8978 0.58492 0.0
H319 H 0.23903 0.9139 0.59852 0.0
H320 H 0.26365 0.90821 0.57748 0.0
H321 H 0.23662 0.85779 0.58623 0.0
C322 C 0.15092 0.02524 0.64255 0.0
N323 N 0.15037 0.97877 0.63717 0.0
N324 N 0.15956 0.97651 0.62012 0.0
C325 C 0.16721 0.02186 0.61425 0.0
C326 C 0.16171 0.05412 0.62825 0.0
C327 C 0.13878 0.04175 0.66071 0.0
H328 H 0.11333 0.02122 0.66488 0.0
H329 H 0.16133 0.03463 0.6705 0.0
H330 H 0.13262 0.08099 0.66085 0.0
O331 O 0.09304 0.89282 0.63907 0.0
O332 O 0.10617 0.88477 0.61005 0.0
H333 H 0.15813 0.03149 0.58624 0.0
H334 H 0.19424 0.07071 0.59538 0.0
C335 C 0.18158 0.03377 0.59593 0.0
H336 H 0.20299 0.00733 0.59196 0.0
H337 H 0.12025 0.95005 0.57394 0.0
O338 O 0.12834 0.93641 0.67551 0.0
C339 C 0.08402 0.87921 0.62334 0.0
Co340 Co 0.85065 0.42156 0.90538 0.0
Co341 Co 0.84275 0.41697 0.86313 0.0
C342 C 0.90689 0.37189 0.88097 0.0
O343 O 0.89586 0.38485 0.89654 0.0
O344 O 0.88875 0.3825 0.8669 0.0
C345 C 0.86296 0.45871 0.9435 0.0
O346 O 0.88051 0.4983 0.93819 0.0
C347 C 0.85417 0.43124 0.8237 0.0
C348 C 0.79555 0.44186 0.81548 0.0
C349 C 0.83183 0.44203 0.80898 0.0
N350 N 0.83191 0.42578 0.83817 0.0
N351 N 0.79693 0.43143 0.83302 0.0
C352 C 0.89596 0.43044 0.82444 0.0
H353 H 0.90598 0.43576 0.83836 0.0
H354 H 0.90823 0.45898 0.81565 0.0
H355 H 0.90557 0.39471 0.81966 0.0
C356 C 0.83292 0.5257 0.89697 0.0
N357 N 0.84291 0.48031 0.89245 0.0
N358 N 0.84572 0.47789 0.87491 0.0
C359 C 0.84173 0.52227 0.86792 0.0
C360 C 0.83219 0.55403 0.8815 0.0
C361 C 0.81723 0.53889 0.91485 0.0
H362 H 0.80942 0.5059 0.92254 0.0
H363 H 0.83831 0.56046 0.92245 0.0
H364 H 0.7921 0.56148 0.91321 0.0
O365 O 0.80675 0.38074 0.90182 0.0
O366 O 0.80047 0.37572 0.87238 0.0
H367 H 0.82466 0.52512 0.84044 0.0
H368 H 0.8564 0.5735 0.84704 0.0
C369 C 0.84947 0.53442 0.84872 0.0
H370 H 0.87346 0.51329 0.8439 0.0
H371 H 0.77402 0.42978 0.84166 0.0
O372 O 0.85121 0.42774 0.93213 0.0
C373 C 0.78949 0.36513 0.88813 0.0
Co374 Co 0.14965 0.07133 0.90789 0.0
Co375 Co 0.16602 0.07162 0.8662 0.0
C376 C 0.10058 0.1241 0.88308 0.0
O377 O 0.10761 0.11098 0.8991 0.0
O378 O 0.12066 0.11056 0.86992 0.0
C379 C 0.14051 0.05228 0.95015 0.0
O380 O 0.10813 0.03009 0.95262 0.0
C381 C 0.1509 0.04501 0.82836 0.0
C382 C 0.20584 0.06146 0.81606 0.0
C383 C 0.1703 0.04354 0.81217 0.0
N384 N 0.17411 0.06274 0.84106 0.0
N385 N 0.20677 0.0728 0.83355 0.0
C386 C 0.11208 0.02692 0.83221 0.0
H387 H 0.10862 0.01961 0.84674 0.0
H388 H 0.10576 0.99353 0.82442 0.0
H389 H 0.09189 0.05511 0.82833 0.0
C390 C 0.14935 0.96546 0.90127 0.0
N391 N 0.15221 0.01152 0.89549 0.0
N392 N 0.16178 0.01161 0.87848 0.0
C393 C 0.16675 0.96563 0.87307 0.0
C394 C 0.15855 0.93466 0.88728 0.0
C395 C 0.1374 0.9517 0.91979 0.0
H396 H 0.11421 0.97519 0.92403 0.0
H397 H 0.12794 0.91323 0.92047 0.0
H398 H 0.16116 0.95763 0.92913 0.0
O399 O 0.19619 0.10956 0.90415 0.0
O400 O 0.20866 0.11034 0.87511 0.0
H401 H 0.19958 0.91818 0.85649 0.0
H402 H 0.16128 0.94716 0.84539 0.0
C403 C 0.18377 0.95226 0.85547 0.0
H404 H 0.20317 0.98137 0.85085 0.0
H405 H 0.22995 0.08669 0.84045 0.0
O406 O 0.15107 0.06401 0.93445 0.0
C407 C 0.21667 0.12257 0.89106 0.0
Co408 Co 0.15986 0.42807 0.42635 0.0
Co409 Co 0.13135 0.42328 0.38611 0.0
C410 C 0.0846 0.3817 0.41455 0.0
O411 O 0.10902 0.39302 0.42651 0.0
O412 O 0.08878 0.39378 0.39817 0.0
C413 C 0.1893 0.41557 0.46221 0.0
O414 O 0.1857 0.36915 0.45858 0.0
C415 C 0.10152 0.4344 0.34821 0.0
C416 C 0.1555 0.42728 0.33414 0.0
C417 C 0.11787 0.4348 0.33125 0.0
N418 N 0.12865 0.42719 0.36046 0.0
N419 N 0.16064 0.42285 0.35182 0.0
C420 C 0.06098 0.439 0.35263 0.0
H421 H 0.05505 0.4244 0.3662 0.0
H422 H 0.05339 0.47776 0.35236 0.0
H423 H 0.04361 0.41964 0.3425 0.0
C424 C 0.1758 0.52955 0.41394 0.0
N425 N 0.1599 0.48519 0.41181 0.0
N426 N 0.14376 0.48339 0.39603 0.0
C427 C 0.14687 0.52677 0.38804 0.0
C428 C 0.16815 0.55739 0.39883 0.0
C429 C 0.20188 0.54229 0.42895 0.0
H430 H 0.21727 0.50975 0.43323 0.0
H431 H 0.18537 0.55541 0.4405 0.0
H432 H 0.22233 0.57098 0.42498 0.0
O433 O 0.1962 0.38125 0.41695 0.0
O434 O 0.17242 0.37838 0.38966 0.0
H435 H 0.14704 0.52505 0.35939 0.0
H436 H 0.12593 0.57823 0.36884 0.0
C437 C 0.12932 0.53857 0.37043 0.0
H438 H 0.10149 0.52054 0.36954 0.0
H439 H 0.18634 0.41752 0.35805 0.0
O440 O 0.17783 0.44634 0.45087 0.0
C441 C 0.19591 0.36414 0.40116 0.0
Co442 Co 0.82233 0.06785 0.42152 0.0
Co443 Co 0.85603 0.07052 0.38234 0.0
C444 C 0.89697 0.11929 0.41094 0.0
O445 O 0.87138 0.10665 0.42213 0.0
O446 O 0.89577 0.10609 0.39457 0.0
C447 C 0.80376 0.03044 0.4591 0.0
O448 O 0.82449 0.99191 0.45748 0.0
C449 C 0.88915 0.05947 0.34488 0.0
C450 C 0.83528 0.05109 0.33061 0.0
C451 C 0.8735 0.05292 0.32791 0.0
N452 N 0.86105 0.06146 0.35694 0.0
N453 N 0.82914 0.05625 0.34818 0.0
C454 C 0.92964 0.06542 0.34942 0.0
H455 H 0.93308 0.08328 0.36264 0.0
H456 H 0.9425 0.02918 0.35004 0.0
H457 H 0.94433 0.0868 0.33888 0.0
C458 C 0.81437 0.9621 0.41048 0.0
N459 N 0.82714 0.00823 0.4085 0.0
N460 N 0.84658 0.01074 0.39358 0.0
C461 C 0.84951 0.96648 0.38642 0.0
C462 C 0.82825 0.93403 0.39648 0.0
C463 C 0.78495 0.94707 0.42369 0.0
H464 H 0.77105 0.97922 0.42935 0.0
H465 H 0.79799 0.92623 0.43466 0.0
H466 H 0.7637 0.92314 0.41719 0.0
O467 O 0.78523 0.10918 0.40989 0.0
O468 O 0.81197 0.11206 0.3833 0.0
H469 H 0.85798 0.96219 0.35806 0.0
H470 H 0.88274 0.91741 0.37079 0.0
C471 C 0.87369 0.95566 0.3706 0.0
H472 H 0.89873 0.97992 0.3707 0.0
H473 H 0.80289 0.05615 0.35427 0.0
O474 O 0.80175 0.06073 0.44631 0.0
C475 C 0.78624 0.12468 0.39393 0.0
Co476 Co 0.15873 0.5664 0.11322 0.0
Co477 Co 0.14894 0.56392 0.15531 0.0
C478 C 0.09932 0.62346 0.13272 0.0
O479 O 0.11363 0.60812 0.11811 0.0
O480 O 0.10995 0.60807 0.14793 0.0
C481 C 0.16428 0.53454 0.07408 0.0
O482 O 0.14598 0.49353 0.07672 0.0
C483 C 0.12035 0.54617 0.19259 0.0
C484 C 0.17353 0.52651 0.20552 0.0
C485 C 0.13557 0.53041 0.20867 0.0
N486 N 0.14819 0.55054 0.18048 0.0
N487 N 0.17988 0.53948 0.18846 0.0
C488 C 0.07992 0.55292 0.18839 0.0
H489 H 0.07513 0.55116 0.17372 0.0
H490 H 0.0625 0.52497 0.1953 0.0
H491 H 0.07138 0.58902 0.19327 0.0
C492 C 0.17063 0.46018 0.12135 0.0
N493 N 0.15857 0.50512 0.12535 0.0
N494 N 0.14707 0.50516 0.14207 0.0
C495 C 0.14748 0.4598 0.14854 0.0
C496 C 0.16372 0.42967 0.13596 0.0
C497 C 0.19527 0.44935 0.10572 0.0
H498 H 0.20609 0.48332 0.09955 0.0
H499 H 0.17919 0.42802 0.09567 0.0
H500 H 0.21928 0.42725 0.11003 0.0
O501 O 0.20032 0.60553 0.12199 0.0
O502 O 0.19696 0.60099 0.15157 0.0
H503 H 0.15136 0.45181 0.17704 0.0
H504 H 0.12247 0.40641 0.16621 0.0
C505 C 0.1308 0.44534 0.16619 0.0
H506 H 0.10579 0.46727 0.16891 0.0
H507 H 0.20577 0.53915 0.18203 0.0
O508 O 0.16962 0.56404 0.08695 0.0
C509 C 0.21284 0.61634 0.13737 0.0
Co510 Co 0.85598 0.92752 0.10797 0.0
Co511 Co 0.86714 0.93183 0.15016 0.0
C512 C 0.9256 0.89087 0.12672 0.0
O513 O 0.90707 0.8991 0.1124 0.0
O514 O 0.91337 0.90231 0.14215 0.0
C515 C 0.84629 0.95842 0.06891 0.0
O516 O 0.86274 0.00076 0.07145 0.0
C517 C 0.89234 0.95392 0.18792 0.0
C518 C 0.83667 0.9608 0.2004 0.0
C519 C 0.87455 0.96503 0.20396 0.0
N520 N 0.86587 0.94436 0.17545 0.0
N521 N 0.8328 0.94785 0.18318 0.0
C522 C 0.93337 0.95615 0.18413 0.0
H523 H 0.93852 0.96083 0.16958 0.0
H524 H 0.9469 0.98626 0.19173 0.0
H525 H 0.94604 0.92171 0.18849 0.0
C526 C 0.83231 0.03033 0.11624 0.0
N527 N 0.84833 0.98769 0.12038 0.0
N528 N 0.85916 0.9896 0.13721 0.0
C529 C 0.85386 0.03428 0.1437 0.0
C530 C 0.83554 0.06139 0.13091 0.0
C531 C 0.80837 0.03809 0.10011 0.0
H532 H 0.80026 0.00298 0.09391 0.0
H533 H 0.82392 0.06083 0.09029 0.0
H534 H 0.78269 0.05769 0.10385 0.0
O535 O 0.82031 0.87966 0.1169 0.0
O536 O 0.8251 0.88447 0.14645 0.0
H537 H 0.84745 0.04116 0.17211 0.0
H538 H 0.87204 0.09126 0.1617 0.0
C539 C 0.86788 0.05132 0.16155 0.0
H540 H 0.89489 0.03412 0.16459 0.0
H541 H 0.80742 0.94287 0.17649 0.0
O542 O 0.84322 0.92839 0.08177 0.0
C543 C 0.81019 0.8666 0.13244 0.0
H544 H 0.27839 0.88474 0.11782 0.0
H545 H 0.37754 0.86161 0.14981 0.0
H546 H 0.35706 0.77641 0.15504 0.0
H547 H 0.21513 0.81349 0.14195 0.0
H548 H 0.19104 0.78959 0.12259 0.0
H549 H 0.21388 0.8481 0.1215 0.0
H550 H 0.25284 0.82026 0.09419 0.0
H551 H 0.22979 0.76175 0.09507 0.0
H552 H 0.2801 0.76615 0.09587 0.0
H553 H 0.32093 0.69535 0.15898 0.0
H554 H 0.27726 0.62397 0.15779 0.0
H555 H 0.20808 0.70016 0.11986 0.0
C556 C 0.29641 0.8615 0.1255 0.0
C557 C 0.3295 0.87962 0.13342 0.0
C558 C 0.35178 0.84834 0.1438 0.0
C559 C 0.34046 0.79999 0.14678 0.0
C560 C 0.30734 0.78339 0.13887 0.0
C561 C 0.28618 0.8131 0.12811 0.0
C562 C 0.25216 0.7869 0.12081 0.0
C563 C 0.21593 0.81095 0.1271 0.0
C564 C 0.25385 0.78356 0.10027 0.0
C565 C 0.25694 0.73799 0.1294 0.0
C566 C 0.28854 0.73646 0.14 0.0
C567 C 0.2966 0.69577 0.15038 0.0
C568 C 0.27177 0.6556 0.1497 0.0
C569 C 0.24012 0.65653 0.1384 0.0
C570 C 0.23283 0.69815 0.12818 0.0
H571 H 0.73226 0.60358 0.11081 0.0
H572 H 0.63336 0.6361 0.1418 0.0
H573 H 0.65891 0.71854 0.14787 0.0
H574 H 0.79818 0.66561 0.13661 0.0
H575 H 0.82535 0.68835 0.11801 0.0
H576 H 0.79881 0.63268 0.11578 0.0
H577 H 0.76405 0.667 0.08822 0.0
H578 H 0.79101 0.72251 0.09014 0.0
H579 H 0.74065 0.7241 0.09007 0.0
H580 H 0.69917 0.79441 0.15295 0.0
H581 H 0.74617 0.86198 0.15261 0.0
H582 H 0.81405 0.78113 0.11547 0.0
C583 C 0.71544 0.62847 0.11842 0.0
C584 C 0.68095 0.61371 0.12589 0.0
C585 C 0.66011 0.64689 0.13613 0.0
C586 C 0.67434 0.69362 0.13962 0.0
C587 C 0.70896 0.7067 0.13237 0.0
C588 C 0.72873 0.67542 0.12161 0.0
C589 C 0.76497 0.69816 0.11519 0.0
C590 C 0.79881 0.66949 0.1218 0.0
C591 C 0.76516 0.70326 0.09469 0.0
C592 C 0.76291 0.74684 0.12428 0.0
C593 C 0.73073 0.75105 0.13436 0.0
C594 C 0.72413 0.79191 0.14484 0.0
C595 C 0.7509 0.8298 0.14469 0.0
C596 C 0.78312 0.82647 0.13386 0.0
C597 C 0.78918 0.78455 0.12363 0.0
H598 H 0.32276 0.13167 0.41714 0.0
H599 H 0.28523 0.08694 0.3643 0.0
H600 H 0.25564 0.16526 0.35997 0.0
H601 H 0.2351 0.18776 0.42784 0.0
H602 H 0.25601 0.23583 0.44099 0.0
H603 H 0.27868 0.17828 0.43933 0.0
H604 H 0.33888 0.22191 0.42796 0.0
H605 H 0.31615 0.27955 0.42934 0.0
H606 H 0.33661 0.2604 0.40851 0.0
H607 H 0.23135 0.24668 0.36062 0.0
H608 H 0.20066 0.32222 0.36841 0.0
H609 H 0.24512 0.31323 0.4225 0.0
C610 C 0.30836 0.13856 0.40468 0.0
C611 C 0.30807 0.10419 0.39065 0.0
C612 C 0.28796 0.11383 0.37476 0.0
C613 C 0.27072 0.15811 0.37222 0.0
C614 C 0.27264 0.19188 0.38596 0.0
C615 C 0.2898 0.18236 0.40211 0.0
C616 C 0.28372 0.22339 0.41528 0.0
C617 C 0.26208 0.20523 0.43184 0.0
C618 C 0.32107 0.24775 0.42058 0.0
C619 C 0.26028 0.25694 0.40394 0.0
C620 C 0.25526 0.23825 0.38695 0.0
C621 C 0.23473 0.26172 0.37391 0.0
C622 C 0.21743 0.30475 0.37852 0.0
C623 C 0.22008 0.32351 0.39615 0.0
C624 C 0.24262 0.29986 0.40892 0.0
H625 H 0.73471 0.17452 0.41404 0.0
H626 H 0.77956 0.16064 0.36023 0.0
H627 H 0.74628 0.2334 0.35108 0.0
H628 H 0.64109 0.22517 0.39926 0.0
H629 H 0.63946 0.26497 0.41836 0.0
H630 H 0.66169 0.20705 0.42018 0.0
H631 H 0.72218 0.25022 0.43132 0.0
H632 H 0.70053 0.30827 0.4292 0.0
H633 H 0.74376 0.29682 0.41768 0.0
H634 H 0.72303 0.31533 0.34976 0.0
H635 H 0.69937 0.39666 0.35428 0.0
H636 H 0.65955 0.35606 0.40719 0.0
C637 C 0.73644 0.18586 0.40018 0.0
C638 C 0.76002 0.16206 0.3879 0.0
C639 C 0.76192 0.17835 0.36994 0.0
C640 C 0.74304 0.21965 0.36456 0.0
C641 C 0.72165 0.24369 0.37718 0.0
C642 C 0.71722 0.22691 0.39448 0.0
C643 C 0.69437 0.26186 0.40554 0.0
C644 C 0.65692 0.23835 0.41116 0.0
C645 C 0.71655 0.28037 0.4219 0.0
C646 C 0.68862 0.30196 0.39198 0.0
C647 C 0.70477 0.29043 0.37577 0.0
C648 C 0.70832 0.32388 0.36198 0.0
C649 C 0.69429 0.37008 0.36464 0.0
C650 C 0.67551 0.38225 0.38069 0.0
C651 C 0.67281 0.34758 0.39458 0.0
H652 H 0.7023 0.10424 0.87785 0.0
H653 H 0.65834 0.1208 0.9315 0.0
H654 H 0.67486 0.20834 0.93065 0.0
H655 H 0.77988 0.17762 0.88339 0.0
H656 H 0.77967 0.20289 0.86115 0.0
H657 H 0.75927 0.14393 0.8651 0.0
H658 H 0.6967 0.17231 0.85147 0.0
H659 H 0.71695 0.23168 0.84757 0.0
H660 H 0.67451 0.22519 0.86043 0.0
H661 H 0.7024 0.29023 0.92529 0.0
H662 H 0.74336 0.35936 0.91697 0.0
H663 H 0.76839 0.28999 0.86639 0.0
C664 C 0.69517 0.1267 0.88919 0.0
C665 C 0.67864 0.10642 0.90465 0.0
C666 C 0.67097 0.13611 0.91955 0.0
C667 C 0.67985 0.18576 0.91908 0.0
C668 C 0.69618 0.20478 0.90358 0.0
C669 C 0.70385 0.17612 0.88892 0.0
C670 C 0.72526 0.20406 0.8747 0.0
C671 C 0.76326 0.18075 0.87088 0.0
C672 C 0.70195 0.20858 0.85752 0.0
C673 C 0.72992 0.25248 0.88397 0.0
C674 C 0.71224 0.25239 0.90046 0.0
C675 C 0.71574 0.29114 0.91229 0.0
C676 C 0.73908 0.33016 0.90746 0.0
C677 C 0.7587 0.32998 0.89099 0.0
C678 C 0.75292 0.29153 0.87884 0.0
H679 H 0.29875 0.38435 0.87911 0.0
H680 H 0.34598 0.37261 0.93233 0.0
H681 H 0.33035 0.28497 0.93257 0.0
H682 H 0.22377 0.30908 0.88492 0.0
H683 H 0.22484 0.28173 0.86302 0.0
H684 H 0.2441 0.34159 0.86627 0.0
H685 H 0.30757 0.3141 0.85335 0.0
H686 H 0.28842 0.25389 0.85004 0.0
H687 H 0.33047 0.26268 0.86302 0.0
H688 H 0.30029 0.203 0.92883 0.0
H689 H 0.2598 0.13258 0.92105 0.0
H690 H 0.23832 0.19584 0.86904 0.0
C691 C 0.30709 0.36304 0.89054 0.0
C692 C 0.32365 0.38506 0.90568 0.0
C693 C 0.33288 0.35636 0.92067 0.0
C694 C 0.32454 0.30654 0.92083 0.0
C695 C 0.30776 0.28599 0.90573 0.0
C696 C 0.29965 0.31326 0.89076 0.0
C697 C 0.27904 0.28351 0.8768 0.0
C698 C 0.24068 0.30527 0.87252 0.0
C699 C 0.3028 0.27823 0.85979 0.0
C700 C 0.27507 0.23582 0.88662 0.0
C701 C 0.29211 0.23778 0.90323 0.0
C702 C 0.28786 0.2004 0.91566 0.0
C703 C 0.26482 0.16063 0.91115 0.0
C704 C 0.24671 0.15852 0.89432 0.0
C705 C 0.25296 0.19581 0.88173 0.0
H706 H 0.66607 0.85399 0.60946 0.0
H707 H 0.69509 0.89778 0.66361 0.0
H708 H 0.71356 0.81504 0.67047 0.0
H709 H 0.63984 0.7267 0.61741 0.0
H710 H 0.66473 0.70495 0.59812 0.0
H711 H 0.64554 0.76491 0.598 0.0
H712 H 0.71085 0.80203 0.59067 0.0
H713 H 0.72993 0.74217 0.59041 0.0
H714 H 0.74999 0.78805 0.60485 0.0
H715 H 0.73006 0.72945 0.67178 0.0
H716 H 0.76125 0.65302 0.66561 0.0
H717 H 0.73407 0.66689 0.60915 0.0
C718 C 0.67618 0.84626 0.62277 0.0
C719 C 0.67695 0.8822 0.63629 0.0
C720 C 0.69148 0.87046 0.65336 0.0
C721 C 0.70241 0.82344 0.65739 0.0
C722 C 0.70033 0.78869 0.64398 0.0
C723 C 0.68906 0.79981 0.62681 0.0
C724 C 0.69622 0.75795 0.61415 0.0
C725 C 0.65938 0.73742 0.60647 0.0
C726 C 0.72337 0.77347 0.59914 0.0
C727 C 0.71397 0.72222 0.62691 0.0
C728 C 0.71447 0.74017 0.64416 0.0
C729 C 0.73005 0.71492 0.65833 0.0
C730 C 0.74763 0.6713 0.65465 0.0
C731 C 0.75059 0.65407 0.63684 0.0
C732 C 0.7322 0.67899 0.6229 0.0
H733 H 0.24699 0.81065 0.61323 0.0
H734 H 0.20475 0.81022 0.66778 0.0
H735 H 0.23848 0.73533 0.67383 0.0
H736 H 0.23863 0.68816 0.60543 0.0
H737 H 0.28136 0.68151 0.59295 0.0
H738 H 0.25818 0.73884 0.59315 0.0
H739 H 0.31843 0.78155 0.60479 0.0
H740 H 0.34211 0.72444 0.60436 0.0
H741 H 0.34076 0.75937 0.62473 0.0
H742 H 0.26473 0.65425 0.67226 0.0
H743 H 0.2918 0.57609 0.66496 0.0
H744 H 0.32553 0.63074 0.6128 0.0
C745 C 0.2456 0.79549 0.62656 0.0
C746 C 0.22299 0.81628 0.63998 0.0
C747 C 0.22181 0.79513 0.65725 0.0
C748 C 0.24088 0.7525 0.66085 0.0
C749 C 0.26166 0.73198 0.64716 0.0
C750 C 0.26502 0.75319 0.63049 0.0
C751 C 0.28796 0.72209 0.618 0.0
C752 C 0.26516 0.70675 0.60141 0.0
C753 C 0.3245 0.74844 0.61266 0.0
C754 C 0.29545 0.67919 0.63007 0.0
C755 C 0.27983 0.68587 0.64679 0.0
C756 C 0.27875 0.64939 0.65957 0.0
C757 C 0.2947 0.60511 0.65533 0.0
C758 C 0.31271 0.5979 0.63866 0.0
C759 C 0.31287 0.63553 0.62583 0.0
H760 H 0.77748 0.3854 0.6038 0.0
H761 H 0.86815 0.36036 0.64095 0.0
H762 H 0.84422 0.27683 0.64602 0.0
H763 H 0.70836 0.32601 0.62602 0.0
H764 H 0.68557 0.29899 0.60686 0.0
H765 H 0.71226 0.35436 0.60434 0.0
H766 H 0.75332 0.3151 0.57994 0.0
H767 H 0.72614 0.25977 0.58203 0.0
H768 H 0.77622 0.25884 0.58463 0.0
H769 H 0.80318 0.20254 0.65119 0.0
H770 H 0.75475 0.1369 0.65174 0.0
H771 H 0.69573 0.20771 0.60868 0.0
C772 C 0.7933 0.36173 0.61238 0.0
C773 C 0.82448 0.37926 0.62209 0.0
C774 C 0.84389 0.34753 0.63355 0.0
C775 C 0.83056 0.30013 0.63649 0.0
C776 C 0.79854 0.28468 0.62737 0.0
C777 C 0.78092 0.31402 0.61509 0.0
C778 C 0.74628 0.2895 0.6075 0.0
C779 C 0.71106 0.31898 0.61143 0.0
C780 C 0.75077 0.28024 0.58733 0.0
C781 C 0.74628 0.24269 0.61798 0.0
C782 C 0.77646 0.24059 0.62949 0.0
C783 C 0.78006 0.20303 0.64186 0.0
C784 C 0.75239 0.16627 0.64221 0.0
C785 C 0.72213 0.16723 0.63007 0.0
C786 C 0.7192 0.20577 0.61781 0.0
H787 H 0.26469 0.29617 0.65712 0.0
H788 H 0.21717 0.36212 0.60986 0.0
H789 H 0.17454 0.29159 0.60619 0.0
H790 H 0.27262 0.1866 0.63962 0.0
H791 H 0.26157 0.15137 0.65929 0.0
H792 H 0.28041 0.21175 0.66161 0.0
H793 H 0.22356 0.23641 0.68083 0.0
H794 H 0.20477 0.17556 0.67894 0.0
H795 H 0.17686 0.2263 0.67238 0.0
H796 H 0.14717 0.20832 0.60393 0.0
H797 H 0.13461 0.11977 0.60438 0.0
H798 H 0.20236 0.10703 0.65214 0.0
C799 C 0.24392 0.29687 0.64659 0.0
C800 C 0.24378 0.33469 0.63391 0.0
C801 C 0.21735 0.33359 0.61981 0.0
C802 C 0.19303 0.29371 0.61763 0.0
C803 C 0.19551 0.25543 0.6297 0.0
C804 C 0.21992 0.25696 0.64407 0.0
C805 C 0.22141 0.20842 0.65344 0.0
C806 C 0.26136 0.18839 0.65347 0.0
C807 C 0.2057 0.21189 0.67253 0.0
C808 C 0.19568 0.17878 0.64151 0.0
C809 C 0.18036 0.2067 0.62812 0.0
C810 C 0.1583 0.18631 0.61459 0.0
C811 C 0.15166 0.13609 0.61481 0.0
C812 C 0.16745 0.10709 0.62833 0.0
C813 C 0.1894 0.12879 0.64188 0.0
H814 H 0.83887 0.63282 0.90432 0.0
H815 H 0.78857 0.58633 0.85415 0.0
H816 H 0.76559 0.66791 0.84914 0.0
H817 H 0.7578 0.69375 0.91715 0.0
H818 H 0.78186 0.7414 0.92927 0.0
H819 H 0.80289 0.68301 0.92702 0.0
H820 H 0.86192 0.72403 0.9132 0.0
H821 H 0.84072 0.78257 0.91518 0.0
H822 H 0.85729 0.76207 0.89374 0.0
H823 H 0.74463 0.75126 0.84989 0.0
H824 H 0.71348 0.82532 0.85935 0.0
H825 H 0.76673 0.81552 0.91151 0.0
C826 C 0.82335 0.6399 0.89221 0.0
C827 C 0.81747 0.60353 0.87915 0.0
C828 C 0.79596 0.61413 0.86376 0.0
C829 C 0.7824 0.66048 0.86083 0.0
C830 C 0.78916 0.69561 0.87378 0.0
C831 C 0.80799 0.68563 0.88946 0.0
C832 C 0.80495 0.72719 0.90262 0.0
C833 C 0.78572 0.71033 0.92004 0.0
C834 C 0.84353 0.75033 0.9064 0.0
C835 C 0.78053 0.76119 0.89201 0.0
C836 C 0.77318 0.74288 0.87515 0.0
C837 C 0.75015 0.76619 0.86304 0.0
C838 C 0.73257 0.80832 0.86858 0.0
C839 C 0.73732 0.82598 0.88625 0.0
C840 C 0.76267 0.803 0.8979 0.0
H841 H 0.19316 0.88379 0.91358 0.0
H842 H 0.13839 0.86695 0.86215 0.0
H843 H 0.15776 0.7814 0.86104 0.0
H844 H 0.2698 0.81884 0.90513 0.0
H845 H 0.27342 0.79044 0.92677 0.0
H846 H 0.25076 0.84769 0.92469 0.0
H847 H 0.19076 0.81167 0.93935 0.0
H848 H 0.21344 0.75421 0.94171 0.0
H849 H 0.16932 0.75756 0.93016 0.0
H850 H 0.19348 0.70383 0.86311 0.0
H851 H 0.23705 0.63736 0.86975 0.0
H852 H 0.26194 0.70249 0.92128 0.0
C853 C 0.18378 0.8616 0.90246 0.0
C854 C 0.16432 0.88181 0.88795 0.0
C855 C 0.15368 0.85205 0.87332 0.0
C856 C 0.1643 0.80344 0.87264 0.0
C857 C 0.18456 0.78496 0.88695 0.0
C858 C 0.19335 0.81286 0.90179 0.0
C859 C 0.21739 0.78563 0.91487 0.0
C860 C 0.25505 0.81223 0.91803 0.0
C861 C 0.19647 0.77673 0.93257 0.0
C862 C 0.22239 0.73896 0.90466 0.0
C863 C 0.2032 0.73907 0.88859 0.0
C864 C 0.20763 0.70253 0.8759 0.0
C865 C 0.2325 0.66514 0.87971 0.0
C866 C 0.25211 0.6645 0.89615 0.0
C867 C 0.24632 0.70133 0.90886 0.0
H868 H 0.17849 0.64024 0.41896 0.0
H869 H 0.19932 0.57878 0.36652 0.0
H870 H 0.22661 0.6562 0.35644 0.0
H871 H 0.16202 0.76612 0.40518 0.0
H872 H 0.18827 0.79156 0.42362 0.0
H873 H 0.16436 0.73392 0.42614 0.0
H874 H 0.22645 0.69414 0.43557 0.0
H875 H 0.25036 0.7517 0.43329 0.0
H876 H 0.26669 0.69976 0.42114 0.0
H877 H 0.25418 0.73766 0.35217 0.0
H878 H 0.28996 0.81415 0.35537 0.0
H879 H 0.25797 0.82112 0.41142 0.0
C880 C 0.18852 0.64337 0.40533 0.0
C881 C 0.18541 0.6041 0.39331 0.0
C882 C 0.19965 0.60908 0.3757 0.0
C883 C 0.21543 0.65288 0.36985 0.0
C884 C 0.21765 0.69111 0.38191 0.0
C885 C 0.20538 0.68663 0.39939 0.0
C886 C 0.21566 0.73132 0.4102 0.0
C887 C 0.18047 0.75726 0.41666 0.0
C888 C 0.24132 0.71845 0.42597 0.0
C889 C 0.23632 0.7609 0.39612 0.0
C890 C 0.23616 0.7375 0.37979 0.0
C891 C 0.25444 0.75659 0.36486 0.0
C892 C 0.27461 0.80012 0.36681 0.0
C893 C 0.27689 0.82345 0.38366 0.0
C894 C 0.25667 0.80414 0.39836 0.0
H895 H 0.81625 0.85348 0.41795 0.0
H896 H 0.81194 0.90231 0.36278 0.0
H897 H 0.79648 0.81993 0.35294 0.0
H898 H 0.84652 0.72729 0.41009 0.0
H899 H 0.81457 0.7024 0.42647 0.0
H900 H 0.83369 0.76281 0.42931 0.0
H901 H 0.76679 0.79708 0.43145 0.0
H902 H 0.74769 0.73677 0.42898 0.0
H903 H 0.73369 0.78395 0.41383 0.0
H904 H 0.7771 0.7353 0.34879 0.0
H905 H 0.74156 0.65859 0.35103 0.0
H906 H 0.75014 0.66497 0.40901 0.0
C907 C 0.81246 0.84666 0.4038 0.0
C908 C 0.8173 0.88407 0.39107 0.0
C909 C 0.81092 0.87388 0.37272 0.0
C910 C 0.80183 0.82707 0.36696 0.0
C911 C 0.79802 0.79082 0.37975 0.0
C912 C 0.80207 0.80018 0.39783 0.0
C913 C 0.79 0.75659 0.40888 0.0
C914 C 0.82318 0.73606 0.4193 0.0
C915 C 0.75761 0.76936 0.42152 0.0
C916 C 0.77733 0.72219 0.39415 0.0
C917 C 0.78357 0.74216 0.37745 0.0
C918 C 0.77223 0.71897 0.36177 0.0
C919 C 0.75208 0.67529 0.36319 0.0
C920 C 0.74278 0.65589 0.3802 0.0
C921 C 0.75704 0.67864 0.39581 0.0
H922 H 0.24623 0.1704 0.11211 0.0
H923 H 0.27464 0.15919 0.1685 0.0
H924 H 0.23976 0.2329 0.17468 0.0
H925 H 0.25718 0.29246 0.10801 0.0
H926 H 0.2178 0.30351 0.09363 0.0
H927 H 0.23946 0.24519 0.09349 0.0
H928 H 0.17611 0.20306 0.10086 0.0
H929 H 0.15393 0.26122 0.10063 0.0
H930 H 0.14971 0.22264 0.12002 0.0
H931 H 0.21684 0.31548 0.1737 0.0
H932 H 0.19438 0.39637 0.16699 0.0
H933 H 0.17044 0.35254 0.1123 0.0
C934 C 0.24399 0.18247 0.12584 0.0
C935 C 0.26353 0.15904 0.13978 0.0
C936 C 0.2602 0.17642 0.15755 0.0
C937 C 0.24039 0.21838 0.16123 0.0
C938 C 0.22324 0.24202 0.14709 0.0
C939 C 0.22371 0.22415 0.12983 0.0
C940 C 0.20452 0.2586 0.11705 0.0
C941 C 0.23135 0.27595 0.10217 0.0
C942 C 0.16894 0.23497 0.10918 0.0
C943 C 0.19512 0.29961 0.12972 0.0
C944 C 0.20641 0.28904 0.14694 0.0
C945 C 0.20585 0.32329 0.16054 0.0
C946 C 0.19252 0.36925 0.1566 0.0
C947 C 0.17844 0.38042 0.13938 0.0
C948 C 0.18006 0.34498 0.12572 0.0
H949 H 0.75243 0.32101 0.10744 0.0
H950 H 0.71571 0.32631 0.16287 0.0
H951 H 0.74788 0.25042 0.16891 0.0
H952 H 0.74055 0.19838 0.10102 0.0
H953 H 0.78196 0.18884 0.08783 0.0
H954 H 0.76032 0.24721 0.08785 0.0
H955 H 0.82244 0.2883 0.09793 0.0
H956 H 0.84462 0.23017 0.09756 0.0
H957 H 0.84594 0.26649 0.11761 0.0
H958 H 0.77168 0.168 0.16762 0.0
H959 H 0.79834 0.08899 0.1609 0.0
H960 H 0.82815 0.13861 0.10755 0.0
C961 C 0.7521 0.307 0.12096 0.0
C962 C 0.73126 0.32964 0.13463 0.0
C963 C 0.73132 0.30982 0.15213 0.0
C964 C 0.74948 0.26655 0.15572 0.0
C965 C 0.76817 0.24403 0.14179 0.0
C966 C 0.77069 0.26402 0.12489 0.0
C967 C 0.79173 0.23105 0.11228 0.0
C968 C 0.76716 0.21547 0.09631 0.0
C969 C 0.82837 0.25546 0.10598 0.0
C970 C 0.79918 0.18867 0.12462 0.0
C971 C 0.785 0.19708 0.14152 0.0
C972 C 0.78453 0.16173 0.15473 0.0
C973 C 0.80008 0.117 0.15081 0.0
C974 C 0.8171 0.10833 0.13401 0.0
C975 C 0.8161 0.1445 0.12064 0.0
H976 H 0.23388 0.01737 0.04694 0.0
H977 H 0.3211 0.11715 0.02902 0.0
H978 H 0.28662 0.13062 1.00093 0.0
H979 H 0.21788 0.9622 1.00501 0.0
H980 H 0.16792 0.95551 1.00747 0.0
H981 H 0.19742 0.95678 0.02699 0.0
H982 H 0.15992 0.02819 0.03989 0.0
H983 H 0.13013 0.02697 0.02043 0.0
H984 H 0.15437 0.08223 0.02668 0.0
H985 H 0.24593 0.12937 0.97425 0.0
H986 H 0.20085 0.11371 0.95003 0.0
H987 H 0.13842 0.01482 0.98458 0.0
C988 C 0.24506 0.04304 0.03728 0.0
C989 C 0.27979 0.067 0.04023 0.0
C990 C 0.29439 0.09883 0.02703 0.0
C991 C 0.27497 0.10679 0.01108 0.0
C992 C 0.241 0.08246 1.00846 0.0
C993 C 0.226 0.05129 0.02115 0.0
C994 C 0.19001 0.02766 0.01437 0.0
C995 C 0.19354 0.97225 0.0134 0.0
C996 C 0.15662 0.04214 0.02604 0.0
C997 C 0.18758 0.04985 0.9958 0.0
C998 C 0.21726 0.08155 0.9928 0.0
C999 C 0.22234 0.10501 0.97648 0.0
C1000 C 0.19657 0.0957 0.96277 0.0
C1001 C 0.16593 0.06315 0.96538 0.0
C1002 C 0.16125 0.04032 0.98223 0.0
H1003 H 0.81962 0.5198 0.96283 0.0
H1004 H 0.8762 0.38265 0.96552 0.0
H1005 H 0.84854 0.36713 0.99543 0.0
H1006 H 0.82182 0.55 0.0114 0.0
H1007 H 0.77523 0.57379 0.01096 0.0
H1008 H 0.80436 0.57779 0.99131 0.0
H1009 H 0.75279 0.53364 0.97284 0.0
H1010 H 0.72365 0.5292 0.99243 0.0
H1011 H 0.73535 0.47526 0.98019 0.0
H1012 H 0.8116 0.3643 0.02412 0.0
H1013 H 0.76464 0.37115 0.04826 0.0
H1014 H 0.72768 0.50677 0.02569 0.0
C1015 C 0.82713 0.48739 0.97007 0.0
C1016 C 0.85091 0.45302 0.96226 0.0
C1017 C 0.85872 0.40979 0.97157 0.0
C1018 C 0.84312 0.40074 0.98852 0.0
C1019 C 0.81919 0.43492 0.99579 0.0
C1020 C 0.81098 0.47725 0.9868 0.0
C1021 C 0.7811 0.50526 0.99657 0.0
C1022 C 0.79656 0.55464 1.00294 0.0
C1023 C 0.74616 0.51116 0.98481 0.0
C1024 C 0.7733 0.47171 0.01226 0.0
C1025 C 0.79617 0.43189 0.01177 0.0
C1026 C 0.79379 0.39554 0.02472 0.0
C1027 C 0.76718 0.39982 0.03842 0.0
C1028 C 0.7429 0.43971 0.03892 0.0
C1029 C 0.74609 0.47604 0.02565 0.0
H1030 H 0.31537 0.01052 0.47046 0.0
H1031 H 0.35858 0.86504 0.46811 0.0
H1032 H 0.32782 0.84559 0.49698 0.0
H1033 H 0.3181 0.02647 0.51967 0.0
H1034 H 0.27424 0.05759 0.52009 0.0
H1035 H 0.3041 0.06221 0.5007 0.0
H1036 H 0.24947 0.03177 0.48066 0.0
H1037 H 0.21956 0.02671 0.49996 0.0
H1038 H 0.22643 0.97481 0.48577 0.0
H1039 H 0.28993 0.84079 0.5253 0.0
H1040 H 0.24425 0.84908 0.54993 0.0
H1041 H 0.2212 0.99537 0.53259 0.0
C1042 C 0.31924 0.97512 0.47636 0.0
C1043 C 0.34007 0.93955 0.46739 0.0
C1044 C 0.34322 0.8929 0.47501 0.0
C1045 C 0.32588 0.8816 0.49137 0.0
C1046 C 0.30491 0.91713 0.49977 0.0
C1047 C 0.30126 0.96287 0.49247 0.0
C1048 C 0.27403 0.99273 0.50322 0.0
C1049 C 0.29381 0.03739 0.51141 0.0
C1050 C 0.24039 0.00734 0.49171 0.0
C1051 C 0.26261 0.9565 0.51756 0.0
C1052 C 0.28131 0.91345 0.51552 0.0
C1053 C 0.27531 0.87443 0.52708 0.0
C1054 C 0.24945 0.87949 0.54106 0.0
C1055 C 0.22953 0.92293 0.54319 0.0
C1056 C 0.23616 0.9618 0.53124 0.0
H1057 H 0.78414 0.60331 0.52087 0.0
H1058 H 0.72804 0.49227 0.5526 0.0
H1059 H 0.68224 0.47922 0.52839 0.0
H1060 H 0.70171 0.6524 0.49988 0.0
H1061 H 0.72456 0.66158 0.47861 0.0
H1062 H 0.7514 0.66431 0.49899 0.0
H1063 H 0.79528 0.59825 0.4868 0.0
H1064 H 0.76862 0.59544 0.46638 0.0
H1065 H 0.77554 0.54121 0.47931 0.0
H1066 H 0.6434 0.4764 0.49985 0.0
H1067 H 0.6168 0.48234 0.46936 0.0
H1068 H 0.69974 0.5935 0.45625 0.0
C1069 C 0.76205 0.57648 0.52282 0.0
C1070 C 0.75913 0.54998 0.53897 0.0
C1071 C 0.7301 0.51468 0.54079 0.0
C1072 C 0.7041 0.50656 0.52696 0.0
C1073 C 0.70762 0.53372 0.51131 0.0
C1074 C 0.73601 0.56784 0.50916 0.0
C1075 C 0.73471 0.59085 0.49078 0.0
C1076 C 0.72766 0.64553 0.49216 0.0
C1077 C 0.77066 0.58081 0.4802 0.0
C1078 C 0.70134 0.56408 0.48284 0.0
C1079 C 0.68589 0.53145 0.49488 0.0
C1080 C 0.65522 0.502 0.49035 0.0
C1081 C 0.64024 0.50568 0.473 0.0
C1082 C 0.65606 0.53841 0.46038 0.0
C1083 C 0.68682 0.56818 0.46555 0.0
H1084 H 0.7087 0.00547 0.98632 0.0
H1085 H 0.72021 0.85365 0.9728 0.0
H1086 H 0.76315 0.84338 0.99837 0.0
H1087 H 0.80529 0.02514 0.99824 0.0
H1088 H 0.79557 0.0665 0.01625 0.0
H1089 H 0.76406 0.06171 0.9975 0.0
H1090 H 0.70899 0.04227 0.019 0.0
H1091 H 0.74027 0.04742 0.03782 0.0
H1092 H 0.71275 0.99278 0.0346 0.0
H1093 H 0.8032 0.84882 0.02584 0.0
H1094 H 0.84003 0.87045 0.05276 0.0
H1095 H 0.80731 0.02021 0.04723 0.0
C1096 C 0.71989 0.96996 0.98893 0.0
C1097 C 0.71076 0.93012 0.97774 0.0
C1098 C 0.72668 0.88452 0.98128 0.0
C1099 C 0.75111 0.87836 0.99575 0.0
C1100 C 0.75992 0.91839 1.00641 0.0
C1101 C 0.74505 0.96341 1.00313 0.0
C1102 C 0.76035 0.0008 0.01626 0.0
C1103 C 0.78264 0.0409 1.00648 0.0
C1104 C 0.7287 0.02206 0.02759 0.0
C1105 C 0.78582 0.96965 0.02752 0.0
C1106 C 0.78486 0.92213 0.02166 0.0
C1107 C 0.80453 0.886 0.03042 0.0
C1108 C 0.82539 0.8986 0.04567 0.0
C1109 C 0.82704 0.94706 0.05185 0.0
C1110 C 0.8073 0.98311 0.04251 0.0
H1111 H 0.20081 0.47106 0.05211 0.0
H1112 H 0.17146 0.62201 0.05779 0.0
H1113 H 0.20794 0.64229 0.03063 0.0
H1114 H 0.29516 0.49481 0.03907 0.0
H1115 H 0.2976 0.44524 0.02343 0.0
H1116 H 0.26639 0.44124 0.04232 0.0
H1117 H 0.21042 0.42457 0.02107 0.0
H1118 H 0.24153 0.42793 1.00213 0.0
H1119 H 0.2013 0.46626 1.00309 0.0
H1120 H 0.24741 0.64645 1.00312 0.0
H1121 H 0.2893 0.63481 0.97726 0.0
H1122 H 0.29801 0.48245 0.99053 0.0
C1123 C 0.20145 0.50813 0.04735 0.0
C1124 C 0.18281 0.54494 0.0568 0.0
C1125 C 0.18524 0.59332 0.05059 0.0
C1126 C 0.20592 0.60515 0.03522 0.0
C1127 C 0.22458 0.56829 0.02638 0.0
C1128 C 0.22275 0.52078 0.03221 0.0
C1129 C 0.24731 0.48877 0.0208 0.0
C1130 C 0.27846 0.46619 0.03208 0.0
C1131 C 0.22373 0.44957 0.0112 0.0
C1132 C 0.26313 0.52571 1.00766 0.0
C1133 C 0.24928 0.57124 0.01104 0.0
C1134 C 0.25865 0.61106 1.0004 0.0
C1135 C 0.28249 0.60413 0.98578 0.0
C1136 C 0.29725 0.55796 0.98208 0.0
C1137 C 0.28772 0.51835 0.99329 0.0
H1138 H 0.68262 0.95966 0.54614 0.0
H1139 H 0.66388 0.11345 0.55275 0.0
H1140 H 0.69986 0.13043 0.52521 0.0
H1141 H 0.77703 0.97282 0.5317 0.0
H1142 H 0.77503 0.92378 0.51578 0.0
H1143 H 0.74489 0.9226 0.53509 0.0
H1144 H 0.68682 0.91344 0.51459 0.0
H1145 H 0.71681 0.91409 0.49521 0.0
H1146 H 0.67955 0.95693 0.49698 0.0
H1147 H 0.73846 0.13139 0.49757 0.0
H1148 H 0.77879 0.11661 0.47146 0.0
H1149 H 0.77668 0.96259 0.48327 0.0
C1150 C 0.68546 -0.00327 0.54152 0.0
C1151 C 0.67004 0.03527 0.5514 0.0
C1152 C 0.67525 0.08346 0.54529 0.0
C1153 C 0.69564 0.09344 0.52968 0.0
C1154 C 0.71112 0.05487 0.52042 0.0
C1155 C 0.70644 0.00747 0.52607 0.0
C1156 C 0.72793 0.9732 0.51412 0.0
C1157 C 0.75801 0.94654 0.52481 0.0
C1158 C 0.70118 0.9373 0.50466 0.0
C1159 C 0.74543 0.00882 0.50094 0.0
C1160 C 0.73499 0.05565 0.50478 0.0
C1161 C 0.74689 0.0949 0.49443 0.0
C1162 C 0.76982 0.08612 0.47963 0.0
C1163 C 0.78109 0.03853 0.47539 0.0
C1164 C 0.76892 -0.00057 0.48631 0.0
H1165 H 0.29525 0.38424 0.55566 0.0
H1166 H 0.33788 0.53143 0.5494 0.0
H1167 H 0.30331 0.53836 0.52086 0.0
H1168 H 0.30069 0.35182 0.5086 0.0
H1169 H 0.25864 0.31491 0.50932 0.0
H1170 H 0.28704 0.32184 0.52909 0.0
H1171 H 0.22942 0.35202 0.5466 0.0
H1172 H 0.20093 0.34572 0.52683 0.0
H1173 H 0.20406 0.40316 0.53826 0.0
H1174 H 0.2609 0.53049 0.49377 0.0
H1175 H 0.22017 0.50557 0.4686 0.0
H1176 H 0.2077 0.36215 0.49189 0.0
C1177 C 0.29757 0.41784 0.54822 0.0
C1178 C 0.31928 0.45735 0.55478 0.0
C1179 C 0.32166 0.50058 0.5446 0.0
C1180 C 0.30191 0.50495 0.52843 0.0
C1181 C 0.28025 0.46557 0.52251 0.0
C1182 C 0.27847 0.42258 0.53196 0.0
C1183 C 0.25378 0.38534 0.52255 0.0
C1184 C 0.27639 0.34086 0.51706 0.0
C1185 C 0.22005 0.37072 0.53426 0.0
C1186 C 0.24172 0.41415 0.50635 0.0
C1187 C 0.25694 0.46052 0.50667 0.0
C1188 C 0.2491 0.49414 0.49333 0.0
C1189 C 0.22573 0.4797 0.47911 0.0
C1190 C 0.2108 0.43183 0.4782 0.0
C1191 C 0.21877 0.39891 0.49213 0.0
H1192 H 0.31503 0.0899 0.21968 0.0
H1193 H 0.41328 0.01739 0.19971 0.0
H1194 H 0.42726 0.98906 0.23036 0.0
H1195 H 0.3544 0.12735 0.26285 0.0
H1196 H 0.3109 0.11663 0.27449 0.0
H1197 H 0.3106 0.13419 0.25127 0.0
H1198 H 0.27038 0.05796 0.24356 0.0
H1199 H 0.27056 0.04021 0.26672 0.0
H1200 H 0.2868 -0.00103 0.24983 0.0
H1201 H 0.42768 0.96383 0.26328 0.0
H1202 H 0.41388 0.94351 0.29486 0.0
H1203 H 0.31593 0.03376 0.29285 0.0
C1204 C 0.3398 0.06862 0.22173 0.0
C1205 C 0.36314 0.0561 0.20725 0.0
C1206 C 0.39507 0.02773 0.21058 0.0
C1207 C 0.40326 0.01148 0.22797 0.0
C1208 C 0.37937 0.02407 0.24191 0.0
C1209 C 0.34835 0.05215 0.23894 0.0
C1210 C 0.326 0.05878 0.25594 0.0
C1211 C 0.32546 0.11243 0.26146 0.0
C1212 C 0.28609 0.03771 0.25388 0.0
C1213 C 0.34881 0.02928 0.26888 0.0
C1214 C 0.3797 0.00984 0.26066 0.0
C1215 C 0.4039 0.97957 0.26991 0.0
C1216 C 0.39604 0.96855 0.28794 0.0
C1217 C 0.36422 0.98774 0.2965 0.0
C1218 C 0.34067 0.01878 0.28677 0.0
H1219 H 0.68014 0.40325 0.2135 0.0
H1220 H 0.59038 0.49062 0.19263 0.0
H1221 H 0.57914 0.52295 0.22302 0.0
H1222 H 0.63743 0.37531 0.25688 0.0
H1223 H 0.68155 0.37953 0.26848 0.0
H1224 H 0.68008 0.3605 0.24542 0.0
H1225 H 0.72741 0.4291 0.23709 0.0
H1226 H 0.72898 0.44833 0.26008 0.0
H1227 H 0.71697 0.49086 0.2428 0.0
H1228 H 0.58106 0.55005 0.25578 0.0
H1229 H 0.59668 0.5697 0.28726 0.0
H1230 H 0.68467 0.46365 0.28605 0.0
C1231 C 0.65771 0.42863 0.2153 0.0
C1232 C 0.63602 0.44416 0.20066 0.0
C1233 C 0.60725 0.47791 0.20365 0.0
C1234 C 0.60063 0.49647 0.22088 0.0
C1235 C 0.62293 0.4808 0.23498 0.0
C1236 C 0.65081 0.44749 0.23233 0.0
C1237 C 0.67229 0.4383 0.24939 0.0
C1238 C 0.66753 0.38526 0.25539 0.0
C1239 C 0.71386 0.45251 0.2472 0.0
C1240 C 0.65264 0.47225 0.26203 0.0
C1241 C 0.624 0.49621 0.2536 0.0
C1242 C 0.60306 0.53088 0.26257 0.0
C1243 C 0.61191 0.54155 0.28053 0.0
C1244 C 0.6415 0.51769 0.28927 0.0
C1245 C 0.66173 0.48238 0.27982 0.0
H1246 H 0.65574 0.04 0.80891 0.0
H1247 H 0.57379 0.92262 0.81065 0.0
H1248 H 0.55668 0.93968 0.77913 0.0
H1249 H 0.60485 0.12116 0.77753 0.0
H1250 H 0.64795 0.13935 0.76675 0.0
H1251 H 0.64774 0.12388 0.79019 0.0
H1252 H 0.69883 0.06031 0.7844 0.0
H1253 H 0.69903 0.07524 0.76101 0.0
H1254 H 0.69053 0.0135 0.76797 0.0
H1255 H 0.55634 0.96218 0.74571 0.0
H1256 H 0.57291 0.98675 0.71477 0.0
H1257 H 0.65582 0.0881 0.73568 0.0
C1258 C 0.63337 0.01873 0.80286 0.0
C1259 C 0.61575 0.98039 0.81231 0.0
C1260 C 0.58702 0.95296 0.80383 0.0
C1261 C 0.5773 0.96228 0.78588 0.0
C1262 C 0.59636 -0.00059 0.77672 0.0
C1263 C 0.62355 0.02748 0.7851 0.0
C1264 C 0.64303 0.06157 0.77214 0.0
C1265 C 0.63542 0.11464 0.77694 0.0
C1266 C 0.68533 0.05204 0.77133 0.0
C1267 C 0.62374 0.04713 0.75493 0.0
C1268 C 0.5964 0.01189 0.75776 0.0
C1269 C 0.57707 0.99056 0.74345 0.0
C1270 C 0.58646 0.00499 0.72589 0.0
C1271 C 0.61519 0.04 0.72284 0.0
C1272 C 0.63337 0.06176 0.73762 0.0
H1273 H 0.32158 0.51528 0.72717 0.0
H1274 H 0.40899 0.40869 0.72589 0.0
H1275 H 0.42757 0.43214 0.75676 0.0
H1276 H 0.37145 0.60697 0.75521 0.0
H1277 H 0.32889 0.62221 0.76666 0.0
H1278 H 0.32725 0.60232 0.74369 0.0
H1279 H 0.27984 0.5341 0.75236 0.0
H1280 H 0.28133 0.55372 0.77526 0.0
H1281 H 0.29184 0.49186 0.76975 0.0
H1282 H 0.42998 0.46042 0.78973 0.0
H1283 H 0.41511 0.48856 0.82042 0.0
H1284 H 0.32632 0.57607 0.79902 0.0
C1285 C 0.34522 0.49752 0.7332 0.0
C1286 C 0.36407 0.46049 0.72407 0.0
C1287 C 0.39464 0.43789 0.73248 0.0
C1288 C 0.40526 0.4509 0.75005 0.0
C1289 C 0.38531 0.48693 0.75886 0.0
C1290 C 0.3561 0.51013 0.75054 0.0
C1291 C 0.3366 0.54432 0.76309 0.0
C1292 C 0.34135 0.59708 0.75679 0.0
C1293 C 0.29497 0.53011 0.76524 0.0
C1294 C 0.35827 0.53552 0.78009 0.0
C1295 C 0.38671 0.50298 0.77746 0.0
C1296 C 0.40831 0.48672 0.79179 0.0
C1297 C 0.3999 0.50316 0.80919 0.0
C1298 C 0.36993 0.53507 0.81205 0.0
C1299 C 0.34972 0.55219 0.7972 0.0
H1300 H 0.79736 0.50783 0.78796 0.0
H1301 H 0.88923 0.40738 0.78792 0.0
H1302 H 0.90372 0.42998 0.75659 0.0
H1303 H 0.76595 0.4828 0.74417 0.0
H1304 H 0.75352 0.54442 0.73933 0.0
H1305 H 0.75249 0.52276 0.76204 0.0
H1306 H 0.79749 0.59274 0.77159 0.0
H1307 H 0.79863 0.61469 0.74889 0.0
H1308 H 0.84161 0.60075 0.76021 0.0
H1309 H 0.90527 0.46063 0.72433 0.0
H1310 H 0.89415 0.4966 0.69451 0.0
H1311 H 0.80106 0.57644 0.71624 0.0
C1312 C 0.82076 0.49079 0.78143 0.0
C1313 C 0.84254 0.45638 0.79051 0.0
C1314 C 0.87278 0.4348 0.78145 0.0
C1315 C 0.88102 0.44717 0.76359 0.0
C1316 C 0.85881 0.4812 0.75503 0.0
C1317 C 0.82937 0.50279 0.76373 0.0
C1318 C 0.80886 0.53703 0.75152 0.0
C1319 C 0.76778 0.52076 0.74913 0.0
C1320 C 0.81185 0.5894 0.75847 0.0
C1321 C 0.83089 0.53085 0.73443 0.0
C1322 C 0.8597 0.49869 0.73668 0.0
C1323 C 0.88298 0.48616 0.7225 0.0
C1324 C 0.87645 0.5068 0.7056 0.0
C1325 C 0.84684 0.53957 0.70302 0.0
C1326 C 0.8241 0.55185 0.71774 0.0
H1327 H 0.21435 0.00311 0.78676 0.0
H1328 H 0.09996 0.0457 0.79653 0.0
H1329 H 0.08261 0.01908 0.76605 0.0
H1330 H 0.21911 0.04552 0.74223 0.0
H1331 H 0.24782 -0.0031 0.73438 0.0
H1332 H 0.25029 0.01558 0.75743 0.0
H1333 H 0.23488 0.92769 0.7676 0.0
H1334 H 0.23247 0.90867 0.74456 0.0
H1335 H 0.19332 0.89744 0.75927 0.0
H1336 H 0.0788 0.9913 0.73355 0.0
H1337 H 0.08893 0.96526 0.70226 0.0
H1338 H 0.20624 0.94305 0.71398 0.0
C1339 C 0.18551 0.00644 0.7826 0.0
C1340 C 0.15836 0.0255 0.79428 0.0
C1341 C 0.12106 0.02967 0.78817 0.0
C1342 C 0.111 0.01507 0.77076 0.0
C1343 C 0.13859 -0.00345 0.7596 0.0
C1344 C 0.17508 0.99219 0.76533 0.0
C1345 C 0.1999 0.97307 0.75062 0.0
C1346 C 0.23111 0.00998 0.74589 0.0
C1347 C 0.21608 0.92379 0.75583 0.0
C1348 C 0.17181 0.96787 0.73558 0.0
C1349 C 0.13654 0.98132 0.741 0.0
C1350 C 0.10628 0.98043 0.72923 0.0
C1351 C 0.11231 0.96557 0.71147 0.0
C1352 C 0.14836 0.95198 0.70564 0.0
C1353 C 0.17831 0.95303 0.71797 0.0
H1354 H 0.13821 0.39296 0.30028 0.0
H1355 H 0.06529 0.50238 0.32163 0.0
H1356 H 0.0526 0.53108 0.29086 0.0
H1357 H 0.18266 0.46572 0.27118 0.0
H1358 H 0.18849 0.42167 0.25364 0.0
H1359 H 0.18394 0.40201 0.27643 0.0
H1360 H 0.12752 0.34653 0.26787 0.0
H1361 H 0.13216 0.36558 0.24488 0.0
H1362 H 0.08815 0.37185 0.25633 0.0
H1363 H 0.05763 0.55702 0.25797 0.0
H1364 H 0.0799 0.57677 0.2273 0.0
H1365 H 0.15119 0.45167 0.22849 0.0
C1366 C 0.11835 0.42172 0.29843 0.0
C1367 C 0.10217 0.44479 0.31331 0.0
C1368 C 0.07708 0.4831 0.31042 0.0
C1369 C 0.06996 0.49988 0.29296 0.0
C1370 C 0.08792 0.47766 0.27858 0.0
C1371 C 0.11127 0.43888 0.28122 0.0
C1372 C 0.13131 0.42515 0.2642 0.0
C1373 C 0.1741 0.42891 0.26652 0.0
C1374 C 0.11903 0.37426 0.25795 0.0
C1375 C 0.11715 0.46366 0.2517 0.0
C1376 C 0.09149 0.49308 0.25999 0.0
C1377 C 0.07705 0.53349 0.25127 0.0
C1378 C 0.08973 0.54441 0.23384 0.0
C1379 C 0.11699 0.51546 0.22553 0.0
C1380 C 0.13009 0.47417 0.2345 0.0
H1381 H 0.84829 0.09032 0.29703 0.0
H1382 H 0.93525 -0.00033 0.31831 0.0
H1383 H 0.95282 0.97628 0.2874 0.0
H1384 H 0.81605 0.01046 0.26663 0.0
H1385 H 0.80475 0.05387 0.24953 0.0
H1386 H 0.80536 0.07198 0.27259 0.0
H1387 H 0.85333 0.14073 0.26539 0.0
H1388 H 0.85258 0.12316 0.24215 0.0
H1389 H 0.89632 0.12655 0.2541 0.0
H1390 H 0.9528 0.95219 0.25404 0.0
H1391 H 0.93521 0.93081 0.22282 0.0
H1392 H 0.84722 0.03644 0.22452 0.0
C1393 C 0.87199 0.06695 0.29517 0.0
C1394 C 0.8908 0.04742 0.31002 0.0
C1395 C 0.92112 0.01613 0.3071 0.0
C1396 C 0.93109 0.00242 0.28957 0.0
C1397 C 0.91068 0.02078 0.27519 0.0
C1398 C 0.88203 0.05298 0.27791 0.0
C1399 C 0.86111 0.06322 0.26079 0.0
C1400 C 0.81939 0.049 0.2625 0.0
C1401 C 0.86616 0.11659 0.25528 0.0
C1402 C 0.8812 0.03014 0.24806 0.0
C1403 C 0.91023 0.00654 0.25637 0.0
C1404 C 0.93065 0.97133 0.24735 0.0
C1405 C 0.92061 0.9595 0.2296 0.0
C1406 C 0.89009 0.98232 0.22124 0.0
C1407 C 0.87088 0.01869 0.23054 0.0
H1408 H 0.54994 0.33472 0.14076 0.0
H1409 H 0.56767 0.34535 0.08336 0.0
H1410 H 0.52165 0.27868 0.07865 0.0
H1411 H 0.54467 0.20781 0.1427 0.0
H1412 H 0.50909 0.20528 0.15977 0.0
H1413 H 0.54082 0.25654 0.15862 0.0
H1414 H 0.48505 0.31494 0.15638 0.0
H1415 H 0.4531 0.26393 0.15789 0.0
H1416 H 0.45018 0.30523 0.13928 0.0
H1417 H 0.47591 0.20818 0.08044 0.0
H1418 H 0.43111 0.14259 0.0884 0.0
H1419 H 0.4456 0.17712 0.14471 0.0
C1420 C 0.54369 0.32385 0.12714 0.0
C1421 C 0.56234 0.34551 0.11241 0.0
C1422 C 0.55362 0.32951 0.09485 0.0
C1423 C 0.52765 0.29154 0.09205 0.0
C1424 C 0.51077 0.26998 0.10694 0.0
C1425 C 0.51821 0.28587 0.12413 0.0
C1426 C 0.49738 0.25566 0.13791 0.0
C1427 C 0.52463 0.2298 0.15048 0.0
C1428 C 0.46978 0.2868 0.14848 0.0
C1429 C 0.47713 0.22002 0.12581 0.0
C1430 C 0.48514 0.22891 0.108 0.0
C1431 C 0.46938 0.20095 0.09434 0.0
C1432 C 0.44409 0.16367 0.09901 0.0
C1433 C 0.43497 0.15454 0.11719 0.0
C1434 C 0.45227 0.18274 0.13072 0.0
H1435 H 0.44625 0.82028 0.41142 0.0
H1436 H 0.46963 0.89067 0.3605 0.0
H1437 H 0.51829 0.83156 0.35428 0.0
H1438 H 0.54652 0.78724 0.42065 0.0
H1439 H 0.53289 0.7303 0.43073 0.0
H1440 H 0.50262 0.78163 0.43239 0.0
H1441 H 0.44871 0.7302 0.41857 0.0
H1442 H 0.47896 0.67907 0.41649 0.0
H1443 H 0.45526 0.70204 0.39705 0.0
H1444 H 0.55573 0.75942 0.35095 0.0
H1445 H 0.59088 0.68444 0.35296 0.0
H1446 H 0.54889 0.66057 0.40692 0.0
C1447 C 0.46253 0.82419 0.39927 0.0
C1448 C 0.45394 0.86004 0.3864 0.0
C1449 C 0.47547 0.86346 0.37052 0.0
C1450 C 0.50319 0.82998 0.36682 0.0
C1451 C 0.5096 0.79366 0.37927 0.0
C1452 C 0.49082 0.79109 0.3954 0.0
C1453 C 0.50283 0.74698 0.40603 0.0
C1454 C 0.52239 0.76247 0.42348 0.0
C1455 C 0.46944 0.71255 0.40975 0.0
C1456 C 0.53022 0.72456 0.39301 0.0
C1457 C 0.53324 0.75222 0.37765 0.0
C1458 C 0.55434 0.73792 0.36305 0.0
C1459 C 0.57388 0.6948 0.36429 0.0
C1460 C 0.57276 0.6665 0.38013 0.0
C1461 C 0.55048 0.68159 0.3947 0.0
H1462 H 0.55166 0.82486 0.88466 0.0
H1463 H 0.57775 0.83506 0.94132 0.0
H1464 H 0.52941 0.77249 0.94776 0.0
H1465 H 0.45151 0.8053 0.88948 0.0
H1466 H 0.44883 0.76304 0.87111 0.0
H1467 H 0.48421 0.81028 0.87118 0.0
H1468 H 0.53534 0.74567 0.86757 0.0
H1469 H 0.50016 0.69817 0.86774 0.0
H1470 H 0.53808 0.69706 0.88361 0.0
H1471 H 0.4791 0.70766 0.94796 0.0
H1472 H 0.42904 0.64711 0.94205 0.0
H1473 H 0.43728 0.6775 0.88513 0.0
C1474 C 0.54689 0.81453 0.89846 0.0
C1475 C 0.56843 0.83515 0.9125 0.0
C1476 C 0.56158 0.81995 0.93034 0.0
C1477 C 0.53423 0.78434 0.93413 0.0
C1478 C 0.51409 0.76409 0.91994 0.0
C1479 C 0.51997 0.77875 0.90247 0.0
C1480 C 0.49515 0.75045 0.88962 0.0
C1481 C 0.46833 0.78429 0.87977 0.0
C1482 C 0.51859 0.7211 0.87636 0.0
C1483 C 0.47436 0.71756 0.9026 0.0
C1484 C 0.48566 0.72606 0.92002 0.0
C1485 C 0.47004 0.70067 0.93437 0.0
C1486 C 0.44166 0.66626 0.93086 0.0
C1487 C 0.42928 0.65732 0.91312 0.0
C1488 C 0.44633 0.68302 0.89883 0.0
H1489 H 0.44865 0.33034 0.60659 0.0
H1490 H 0.38291 0.27893 0.65182 0.0
H1491 H 0.4181 0.20347 0.6523 0.0
H1492 H 0.46224 0.21036 0.58508 0.0
H1493 H 0.51013 0.22362 0.57904 0.0
H1494 H 0.47695 0.2719 0.58044 0.0
H1495 H 0.51982 0.31746 0.60302 0.0
H1496 H 0.55319 0.26962 0.60153 0.0
H1497 H 0.53475 0.2868 0.62302 0.0
H1498 H 0.46182 0.13734 0.64995 0.0
H1499 H 0.51691 0.08599 0.6466 0.0
H1500 H 0.55749 0.17773 0.60338 0.0
C1501 C 0.44155 0.30279 0.61639 0.0
C1502 C 0.41312 0.31041 0.62919 0.0
C1503 C 0.40484 0.274 0.64201 0.0
C1504 C 0.42438 0.23074 0.64228 0.0
C1505 C 0.45243 0.22429 0.6297 0.0
C1506 C 0.46149 0.25928 0.61709 0.0
C1507 C 0.4956 0.2445 0.60638 0.0
C1508 C 0.48562 0.23716 0.58656 0.0
C1509 C 0.52774 0.28181 0.60864 0.0
C1510 C 0.50461 0.19656 0.61532 0.0
C1511 C 0.47872 0.18544 0.62848 0.0
C1512 C 0.48206 0.14516 0.63953 0.0
C1513 C 0.51341 0.11622 0.63754 0.0
C1514 C 0.54106 0.12761 0.62461 0.0
C1515 C 0.53613 0.16752 0.61301 0.0
H1516 H 0.95256 0.65089 0.60083 0.0
H1517 H 0.88147 0.70383 0.64336 0.0
H1518 H 0.91846 0.77961 0.64465 0.0
H1519 H 0.03689 0.69486 0.62013 0.0
H1520 H 0.05925 0.7111 0.5993 0.0
H1521 H 0.0243 0.66343 0.59979 0.0
H1522 H 0.98657 0.70819 0.57546 0.0
H1523 H 0.02133 0.75631 0.57506 0.0
H1524 H 0.97301 0.76995 0.57923 0.0
H1525 H 0.96393 0.84593 0.64331 0.0
H1526 H 0.02085 0.89699 0.64179 0.0
H1527 H 0.06605 0.80281 0.60094 0.0
C1528 C 0.94473 0.67886 0.6102 0.0
C1529 C 0.91426 0.67177 0.62201 0.0
C1530 C 0.90496 0.70858 0.63432 0.0
C1531 C 0.9255 0.75194 0.63502 0.0
C1532 C 0.95556 0.75793 0.62339 0.0
C1533 C 0.96565 0.7224 0.61136 0.0
C1534 C 0.00182 0.73659 0.60188 0.0
C1535 C 0.03237 0.69928 0.6055 0.0
C1536 C 0.99527 0.74315 0.58171 0.0
C1537 C 0.01076 0.78482 0.61088 0.0
C1538 C 0.98307 0.79666 0.62293 0.0
C1539 C 0.98567 0.83749 0.6338 0.0
C1540 C 0.01811 0.86623 0.63285 0.0
C1541 C 0.04763 0.85398 0.62118 0.0
C1542 C 0.04348 0.81355 0.60966 0.0
H1543 H 0.05378 0.16809 0.90745 0.0
H1544 H 0.08063 0.16144 0.85073 0.0
H1545 H 0.03672 0.22683 0.84481 0.0
H1546 H 0.95461 0.19111 0.90128 0.0
H1547 H 0.95206 0.23158 0.92016 0.0
H1548 H 0.98556 0.18363 0.92009 0.0
H1549 H 0.03882 0.24676 0.92553 0.0
H1550 H 0.00554 0.29499 0.92534 0.0
H1551 H 0.04482 0.29678 0.91022 0.0
H1552 H 0.99271 0.29411 0.84479 0.0
H1553 H 0.94429 0.35428 0.85006 0.0
H1554 H 0.94327 0.31776 0.90666 0.0
C1555 C 0.05013 0.18003 0.89376 0.0
C1556 C 0.0709 0.15962 0.87958 0.0
C1557 C 0.06524 0.1764 0.86187 0.0
C1558 C 0.04045 0.21376 0.85834 0.0
C1559 C 0.02125 0.23387 0.87263 0.0
C1560 C 0.02521 0.21728 0.88994 0.0
C1561 C 0.00036 0.24495 0.90271 0.0
C1562 C 0.97143 0.21078 0.91158 0.0
C1563 C 0.0238 0.2725 0.91678 0.0
C1564 C 0.98194 0.2796 0.88979 0.0
C1565 C 0.99482 0.27266 0.87256 0.0
C1566 C 0.98217 0.29977 0.85819 0.0
C1567 C 0.95466 0.33396 0.86137 0.0
C1568 C 0.93979 0.34068 0.87878 0.0
C1569 C 0.95424 0.31375 0.89325 0.0
H1570 H 0.04388 0.32887 0.39072 0.0
H1571 H 0.05702 0.3535 0.44777 0.0
H1572 H 0.01027 0.28772 0.45374 0.0
H1573 H 0.9458 0.29909 0.39009 0.0
H1574 H 0.95148 0.25325 0.37317 0.0
H1575 H 0.98318 0.30457 0.37398 0.0
H1576 H 0.0391 0.24621 0.37583 0.0
H1577 H 0.00754 0.19471 0.37535 0.0
H1578 H 0.04041 0.20176 0.39348 0.0
H1579 H 0.96111 0.21716 0.45274 0.0
H1580 H 0.91645 0.15051 0.44499 0.0
H1581 H 0.94245 0.17136 0.38874 0.0
C1582 C 0.03657 0.32143 0.40453 0.0
C1583 C 0.05375 0.34699 0.41879 0.0
C1584 C 0.04389 0.33479 0.43662 0.0
C1585 C 0.0175 0.29738 0.44012 0.0
C1586 C 0.00184 0.2722 0.42563 0.0
C1587 C 0.01127 0.2839 0.40821 0.0
C1588 C 0.99259 0.25037 0.39487 0.0
C1589 C 0.96672 0.2785 0.3823 0.0
C1590 C 0.02165 0.22157 0.38427 0.0
C1591 C 0.97063 0.21796 0.40742 0.0
C1592 C 0.97591 0.23094 0.42512 0.0
C1593 C 0.95708 0.2066 0.43891 0.0
C1594 C 0.93188 0.1687 0.4344 0.0
C1595 C 0.9262 0.15524 0.41627 0.0
C1596 C 0.94642 0.17999 0.40276 0.0
H1597 H 0.94325 0.81496 0.10444 0.0
H1598 H 0.98508 0.9022 0.14867 0.0
H1599 H 0.03635 0.84529 0.1531 0.0
H1600 H 0.95719 0.70421 0.12393 0.0
H1601 H 0.97247 0.67222 0.10429 0.0
H1602 H 0.94253 0.72357 0.10202 0.0
H1603 H 0.9905 0.76571 0.08098 0.0
H1604 H 0.02034 0.71398 0.08284 0.0
H1605 H 0.03831 0.77367 0.08819 0.0
H1606 H 0.07498 0.77441 0.15651 0.0
H1607 H 0.10653 0.69641 0.15624 0.0
H1608 H 0.0436 0.65277 0.10902 0.0
C1609 C 0.96422 0.82303 0.11451 0.0
C1610 C 0.96051 0.86323 0.12612 0.0
C1611 C 0.98762 0.87183 0.13959 0.0
C1612 C 0.01678 0.83966 0.14222 0.0
C1613 C 0.01865 0.79913 0.13121 0.0
C1614 C 0.99373 0.79095 0.11737 0.0
C1615 C 0.00083 0.7423 0.10849 0.0
C1616 C 0.96619 0.7086 0.10977 0.0
C1617 C 0.01324 0.74935 0.08896 0.0
C1618 C 0.03265 0.72389 0.11998 0.0
C1619 C 0.04221 0.75757 0.13297 0.0
C1620 C 0.06836 0.74811 0.14619 0.0
C1621 C 0.08577 0.70334 0.14603 0.0
C1622 C 0.07742 0.66839 0.13265 0.0
C1623 C 0.05065 0.67894 0.11932 0.0
loop_
_geom_bond_atom_site_label_1
_geom_bond_atom_site_label_2
_geom_bond_distance
_geom_bond_site_symmetry_2
_ccdc_geom_bond_type
Co0 O3 1.970 . S
Co0 N17 1.989 . S
Co0 O25 1.967 . S
Co0 O32 1.920 . S
Co1 O4 1.966 . S
Co1 N10 2.022 . S
Co1 N18 1.993 . S
Co1 O26 1.941 . S
C2 O3 1.258 . S
C2 O4 1.263 . S
O3 Co0 1.970 . S
O3 C2 1.258 . S
O4 Co1 1.966 . S
O4 C2 1.263 . S
C5 O6 1.235 . S
C5 O32 1.289 . S
O6 C5 1.235 . S
C7 C9 1.400 . S
C7 N10 1.351 . S
C7 C12 1.501 . S
C8 C9 1.387 . S
C8 N11 1.341 . S
C9 C7 1.400 . S
C9 C8 1.387 . S
N10 Co1 2.022 . S
N10 C7 1.351 . S
N10 N11 1.365 . S
N11 C8 1.341 . S
N11 N10 1.365 . S
N11 H31 0.862 . S
C12 C7 1.501 . S
C12 H13 0.961 . S
C12 H14 0.961 . S
C12 H15 0.960 . S
H13 C12 0.961 . S
H14 C12 0.961 . S
H15 C12 0.960 . S
C16 N17 1.342 1_565 S
C16 C20 1.401 . S
C16 C21 1.499 . S
N17 Co0 1.989 . S
N17 C16 1.342 1_545 S
N17 N18 1.388 . S
N18 Co1 1.993 . S
N18 N17 1.388 . S
N18 C19 1.346 . S
C19 N18 1.346 . S
C19 C20 1.396 1_545 S
C19 C29 1.510 1_545 S
C20 C16 1.401 . S
C20 C19 1.396 1_565 S
C21 C16 1.499 . S
C21 H22 0.959 1_565 S
C21 H23 0.960 . S
C21 H24 0.961 . S
H22 C21 0.959 1_545 S
H23 C21 0.960 . S
H24 C21 0.961 . S
O25 Co0 1.967 . S
O25 C33 1.258 . S
O26 Co1 1.941 . S
O26 C33 1.266 . S
H27 C29 0.959 . S
H28 C29 0.961 . S
C29 C19 1.510 1_565 S
C29 H27 0.959 . S
C29 H28 0.961 . S
C29 H30 0.960 1_565 S
H30 C29 0.960 1_545 S
H31 N11 0.862 . S
O32 Co0 1.920 . S
O32 C5 1.289 . S
C33 O25 1.258 . S
C33 O26 1.266 . S
Co34 O37 1.970 . S
Co34 N51 1.989 . S
Co34 O59 1.967 . S
Co34 O66 1.920 . S
Co35 O38 1.966 . S
Co35 N44 2.022 . S
Co35 N52 1.993 . S
Co35 O60 1.941 . S
C36 O37 1.258 . S
C36 O38 1.263 . S
O37 Co34 1.970 . S
O37 C36 1.258 . S
O38 Co35 1.966 . S
O38 C36 1.263 . S
C39 O40 1.235 . S
C39 O66 1.289 . S
O40 C39 1.235 . S
C41 C43 1.400 . S
C41 N44 1.351 . S
C41 C46 1.501 . S
C42 C43 1.387 . S
C42 N45 1.341 . S
C43 C41 1.400 . S
C43 C42 1.387 . S
N44 Co35 2.022 . S
N44 C41 1.351 . S
N44 N45 1.365 . S
N45 C42 1.341 . S
N45 N44 1.365 . S
N45 H65 0.862 . S
C46 C41 1.501 . S
C46 H47 0.961 . S
C46 H48 0.961 . S
C46 H49 0.960 . S
H47 C46 0.961 . S
H48 C46 0.961 . S
H49 C46 0.960 . S
C50 N51 1.342 . S
C50 C54 1.401 . S
C50 C55 1.499 . S
N51 Co34 1.989 . S
N51 C50 1.342 . S
N51 N52 1.388 . S
N52 Co35 1.993 . S
N52 N51 1.388 . S
N52 C53 1.346 . S
C53 N52 1.346 . S
C53 C54 1.396 . S
C53 C63 1.510 . S
C54 C50 1.401 . S
C54 C53 1.396 . S
C55 C50 1.499 . S
C55 H56 0.959 . S
C55 H57 0.960 . S
C55 H58 0.961 . S
H56 C55 0.959 . S
H57 C55 0.960 . S
H58 C55 0.961 . S
O59 Co34 1.967 . S
O59 C67 1.258 . S
O60 Co35 1.941 . S
O60 C67 1.266 . S
H61 C63 0.959 . S
H62 C63 0.961 . S
C63 C53 1.510 . S
C63 H61 0.959 . S
C63 H62 0.961 . S
C63 H64 0.960 . S
H64 C63 0.960 . S
H65 N45 0.862 . S
O66 Co34 1.920 . S
O66 C39 1.289 . S
C67 O59 1.258 . S
C67 O60 1.266 . S
Co68 O71 1.970 . S
Co68 N85 1.989 . S
Co68 O93 1.967 . S
Co68 O100 1.920 . S
Co69 O72 1.966 . S
Co69 N78 2.022 . S
Co69 N86 1.993 . S
Co69 O94 1.941 . S
C70 O71 1.258 . S
C70 O72 1.263 . S
O71 Co68 1.970 . S
O71 C70 1.258 . S
O72 Co69 1.966 . S
O72 C70 1.263 . S
C73 O74 1.235 . S
C73 O100 1.289 . S
O74 C73 1.235 . S
C75 C77 1.400 . S
C75 N78 1.351 . S
C75 C80 1.501 . S
C76 C77 1.387 . S
C76 N79 1.341 . S
C77 C75 1.400 . S
C77 C76 1.387 . S
N78 Co69 2.022 . S
N78 C75 1.351 . S
N78 N79 1.365 . S
N79 C76 1.341 . S
N79 N78 1.365 . S
N79 H99 0.862 . S
C80 C75 1.501 . S
C80 H81 0.961 . S
C80 H82 0.961 . S
C80 H83 0.960 . S
H81 C80 0.961 . S
H82 C80 0.961 . S
H83 C80 0.960 . S
C84 N85 1.342 1_545 S
C84 C88 1.401 . S
C84 C89 1.499 . S
N85 Co68 1.989 . S
N85 C84 1.342 1_565 S
N85 N86 1.388 . S
N86 Co69 1.993 . S
N86 N85 1.388 . S
N86 C87 1.346 1_565 S
C87 N86 1.346 1_545 S
C87 C88 1.396 . S
C87 C97 1.510 . S
C88 C84 1.401 . S
C88 C87 1.396 . S
C89 C84 1.499 . S
C89 H90 0.959 1_545 S
C89 H91 0.960 . S
C89 H92 0.961 . S
H90 C89 0.959 1_565 S
H91 C89 0.960 . S
H92 C89 0.961 . S
O93 Co68 1.967 . S
O93 C101 1.258 . S
O94 Co69 1.941 . S
O94 C101 1.266 . S
H95 C97 0.959 . S
H96 C97 0.961 . S
C97 C87 1.510 . S
C97 H95 0.959 . S
C97 H96 0.961 . S
C97 H98 0.960 . S
H98 C97 0.960 . S
H99 N79 0.862 . S
O100 Co68 1.920 . S
O100 C73 1.289 . S
C101 O93 1.258 . S
C101 O94 1.266 . S
Co102 O105 1.970 . S
Co102 N119 1.989 . S
Co102 O127 1.967 . S
Co102 O134 1.920 . S
Co103 O106 1.966 . S
Co103 N112 2.022 . S
Co103 N120 1.993 . S
Co103 O128 1.941 . S
C104 O105 1.258 . S
C104 O106 1.263 . S
O105 Co102 1.970 . S
O105 C104 1.258 . S
O106 Co103 1.966 . S
O106 C104 1.263 . S
C107 O108 1.235 . S
C107 O134 1.289 . S
O108 C107 1.235 . S
C109 C111 1.400 . S
C109 N112 1.351 . S
C109 C114 1.501 . S
C110 C111 1.387 . S
C110 N113 1.341 . S
C111 C109 1.400 . S
C111 C110 1.387 . S
N112 Co103 2.022 . S
N112 C109 1.351 . S
N112 N113 1.365 . S
N113 C110 1.341 . S
N113 N112 1.365 . S
N113 H133 0.862 . S
C114 C109 1.501 . S
C114 H115 0.961 . S
C114 H116 0.961 . S
C114 H117 0.960 . S
H115 C114 0.961 . S
H116 C114 0.961 . S
H117 C114 0.960 . S
C118 N119 1.342 . S
C118 C122 1.401 . S
C118 C123 1.499 . S
N119 Co102 1.989 . S
N119 C118 1.342 . S
N119 N120 1.388 . S
N120 Co103 1.993 . S
N120 N119 1.388 . S
N120 C121 1.346 . S
C121 N120 1.346 . S
C121 C122 1.396 . S
C121 C131 1.510 . S
C122 C118 1.401 . S
C122 C121 1.396 . S
C123 C118 1.499 . S
C123 H124 0.959 . S
C123 H125 0.960 . S
C123 H126 0.961 . S
H124 C123 0.959 . S
H125 C123 0.960 . S
H126 C123 0.961 . S
O127 Co102 1.967 . S
O127 C135 1.258 . S
O128 Co103 1.941 . S
O128 C135 1.266 . S
H129 C131 0.959 . S
H130 C131 0.961 . S
C131 C121 1.510 . S
C131 H129 0.959 . S
C131 H130 0.961 . S
C131 H132 0.960 . S
H132 C131 0.960 . S
H133 N113 0.862 . S
O134 Co102 1.920 . S
O134 C107 1.289 . S
C135 O127 1.258 . S
C135 O128 1.266 . S
Co136 O139 1.970 . S
Co136 N153 1.989 . S
Co136 O161 1.967 . S
Co136 O168 1.920 . S
Co137 O140 1.966 . S
Co137 N146 2.022 . S
Co137 N154 1.993 . S
Co137 O162 1.941 . S
C138 O139 1.258 . S
C138 O140 1.263 . S
O139 Co136 1.970 . S
O139 C138 1.258 . S
O140 Co137 1.966 . S
O140 C138 1.263 . S
C141 O142 1.235 . S
C141 O168 1.289 . S
O142 C141 1.235 . S
C143 C145 1.400 . S
C143 N146 1.351 . S
C143 C148 1.501 . S
C144 C145 1.387 . S
C144 N147 1.341 . S
C145 C143 1.400 . S
C145 C144 1.387 . S
N146 Co137 2.022 . S
N146 C143 1.351 . S
N146 N147 1.365 . S
N147 C144 1.341 . S
N147 N146 1.365 . S
N147 H167 0.862 . S
C148 C143 1.501 . S
C148 H149 0.961 . S
C148 H150 0.961 . S
C148 H151 0.960 . S
H149 C148 0.961 . S
H150 C148 0.961 . S
H151 C148 0.960 . S
C152 N153 1.342 1_545 S
C152 C156 1.401 . S
C152 C157 1.499 . S
N153 Co136 1.989 . S
N153 C152 1.342 1_565 S
N153 N154 1.388 . S
N154 Co137 1.993 . S
N154 N153 1.388 . S
N154 C155 1.346 1_565 S
C155 N154 1.346 1_545 S
C155 C156 1.396 . S
C155 C165 1.510 . S
C156 C152 1.401 . S
C156 C155 1.396 . S
C157 C152 1.499 . S
C157 H158 0.959 1_545 S
C157 H159 0.960 . S
C157 H160 0.961 . S
H158 C157 0.959 1_565 S
H159 C157 0.960 . S
H160 C157 0.961 . S
O161 Co136 1.967 . S
O161 C169 1.258 . S
O162 Co137 1.941 . S
O162 C169 1.266 . S
H163 C165 0.959 . S
H164 C165 0.961 . S
C165 C155 1.510 . S
C165 H163 0.959 . S
C165 H164 0.961 . S
C165 H166 0.960 . S
H166 C165 0.960 . S
H167 N147 0.862 . S
O168 Co136 1.920 . S
O168 C141 1.289 . S
C169 O161 1.258 . S
C169 O162 1.266 . S
Co170 O173 1.970 . S
Co170 N187 1.989 . S
Co170 O195 1.967 . S
Co170 O202 1.920 . S
Co171 O174 1.966 . S
Co171 N180 2.022 . S
Co171 N188 1.993 . S
Co171 O196 1.941 . S
C172 O173 1.258 . S
C172 O174 1.263 . S
O173 Co170 1.970 . S
O173 C172 1.258 . S
O174 Co171 1.966 . S
O174 C172 1.263 . S
C175 O176 1.235 . S
C175 O202 1.289 . S
O176 C175 1.235 . S
C177 C179 1.400 . S
C177 N180 1.351 . S
C177 C182 1.501 . S
C178 C179 1.387 . S
C178 N181 1.341 . S
C179 C177 1.400 . S
C179 C178 1.387 . S
N180 Co171 2.022 . S
N180 C177 1.351 . S
N180 N181 1.365 . S
N181 C178 1.341 . S
N181 N180 1.365 . S
N181 H201 0.862 . S
C182 C177 1.501 . S
C182 H183 0.961 . S
C182 H184 0.961 . S
C182 H185 0.960 . S
H183 C182 0.961 . S
H184 C182 0.961 . S
H185 C182 0.960 . S
C186 N187 1.342 . S
C186 C190 1.401 . S
C186 C191 1.499 . S
N187 Co170 1.989 . S
N187 C186 1.342 . S
N187 N188 1.388 . S
N188 Co171 1.993 . S
N188 N187 1.388 . S
N188 C189 1.346 . S
C189 N188 1.346 . S
C189 C190 1.396 . S
C189 C199 1.510 . S
C190 C186 1.401 . S
C190 C189 1.396 . S
C191 C186 1.499 . S
C191 H192 0.959 . S
C191 H193 0.960 . S
C191 H194 0.961 . S
H192 C191 0.959 . S
H193 C191 0.960 . S
H194 C191 0.961 . S
O195 Co170 1.967 . S
O195 C203 1.258 . S
O196 Co171 1.941 . S
O196 C203 1.266 . S
H197 C199 0.959 . S
H198 C199 0.961 . S
C199 C189 1.510 . S
C199 H197 0.959 . S
C199 H198 0.961 . S
C199 H200 0.960 . S
H200 C199 0.960 . S
H201 N181 0.862 . S
O202 Co170 1.920 . S
O202 C175 1.289 . S
C203 O195 1.258 . S
C203 O196 1.266 . S
Co204 O207 1.970 . S
Co204 N221 1.989 . S
Co204 O229 1.967 . S
Co204 O236 1.920 . S
Co205 O208 1.966 . S
Co205 N214 2.022 . S
Co205 N222 1.993 . S
Co205 O230 1.941 . S
C206 O207 1.258 . S
C206 O208 1.263 . S
O207 Co204 1.970 . S
O207 C206 1.258 . S
O208 Co205 1.966 . S
O208 C206 1.263 . S
C209 O210 1.235 . S
C209 O236 1.289 . S
O210 C209 1.235 . S
C211 C213 1.400 . S
C211 N214 1.351 . S
C211 C216 1.501 . S
C212 C213 1.387 . S
C212 N215 1.341 . S
C213 C211 1.400 . S
C213 C212 1.387 . S
N214 Co205 2.022 . S
N214 C211 1.351 . S
N214 N215 1.365 . S
N215 C212 1.341 . S
N215 N214 1.365 . S
N215 H235 0.862 . S
C216 C211 1.501 . S
C216 H217 0.961 . S
C216 H218 0.961 . S
C216 H219 0.960 . S
H217 C216 0.961 . S
H218 C216 0.961 . S
H219 C216 0.960 . S
C220 N221 1.342 . S
C220 C224 1.401 1_545 S
C220 C225 1.499 . S
N221 Co204 1.989 . S
N221 C220 1.342 . S
N221 N222 1.388 . S
N222 Co205 1.993 . S
N222 N221 1.388 . S
N222 C223 1.346 . S
C223 N222 1.346 . S
C223 C224 1.396 1_545 S
C223 C233 1.510 1_545 S
C224 C220 1.401 1_565 S
C224 C223 1.396 1_565 S
C225 C220 1.499 . S
C225 H226 0.959 . S
C225 H227 0.960 1_545 S
C225 H228 0.961 . S
H226 C225 0.959 . S
H227 C225 0.960 1_565 S
H228 C225 0.961 . S
O229 Co204 1.967 . S
O229 C237 1.258 . S
O230 Co205 1.941 . S
O230 C237 1.266 . S
H231 C233 0.959 . S
H232 C233 0.961 . S
C233 C223 1.510 1_565 S
C233 H231 0.959 . S
C233 H232 0.961 . S
C233 H234 0.960 1_565 S
H234 C233 0.960 1_545 S
H235 N215 0.862 . S
O236 Co204 1.920 . S
O236 C209 1.289 . S
C237 O229 1.258 . S
C237 O230 1.266 . S
Co238 O241 1.970 . S
Co238 N255 1.989 . S
Co238 O263 1.967 . S
Co238 O270 1.920 . S
Co239 O242 1.966 . S
Co239 N248 2.022 . S
Co239 N256 1.993 . S
Co239 O264 1.941 . S
C240 O241 1.258 . S
C240 O242 1.263 . S
O241 Co238 1.970 . S
O241 C240 1.258 . S
O242 Co239 1.966 . S
O242 C240 1.263 . S
C243 O244 1.235 . S
C243 O270 1.289 . S
O244 C243 1.235 . S
C245 C247 1.400 . S
C245 N248 1.351 . S
C245 C250 1.501 . S
C246 C247 1.387 . S
C246 N249 1.341 . S
C247 C245 1.400 . S
C247 C246 1.387 . S
N248 Co239 2.022 . S
N248 C245 1.351 . S
N248 N249 1.365 . S
N249 C246 1.341 . S
N249 N248 1.365 . S
N249 H269 0.862 . S
C250 C245 1.501 . S
C250 H251 0.961 . S
C250 H252 0.961 . S
C250 H253 0.960 . S
H251 C250 0.961 . S
H252 C250 0.961 . S
H253 C250 0.960 . S
C254 N255 1.342 . S
C254 C258 1.401 . S
C254 C259 1.499 . S
N255 Co238 1.989 . S
N255 C254 1.342 . S
N255 N256 1.388 . S
N256 Co239 1.993 . S
N256 N255 1.388 . S
N256 C257 1.346 . S
C257 N256 1.346 . S
C257 C258 1.396 . S
C257 C267 1.510 . S
C258 C254 1.401 . S
C258 C257 1.396 . S
C259 C254 1.499 . S
C259 H260 0.959 . S
C259 H261 0.960 . S
C259 H262 0.961 . S
H260 C259 0.959 . S
H261 C259 0.960 . S
H262 C259 0.961 . S
O263 Co238 1.967 . S
O263 C271 1.258 . S
O264 Co239 1.941 . S
O264 C271 1.266 . S
H265 C267 0.959 . S
H266 C267 0.961 . S
C267 C257 1.510 . S
C267 H265 0.959 . S
C267 H266 0.961 . S
C267 H268 0.960 . S
H268 C267 0.960 . S
H269 N249 0.862 . S
O270 Co238 1.920 . S
O270 C243 1.289 . S
C271 O263 1.258 . S
C271 O264 1.266 . S
Co272 O275 1.970 . S
Co272 N289 1.989 . S
Co272 O297 1.967 . S
Co272 O304 1.920 . S
Co273 O276 1.966 . S
Co273 N282 2.022 . S
Co273 N290 1.993 . S
Co273 O298 1.941 . S
C274 O275 1.258 . S
C274 O276 1.263 . S
O275 Co272 1.970 . S
O275 C274 1.258 . S
O276 Co273 1.966 . S
O276 C274 1.263 . S
C277 O278 1.235 . S
C277 O304 1.289 . S
O278 C277 1.235 . S
C279 C281 1.400 . S
C279 N282 1.351 . S
C279 C284 1.501 . S
C280 C281 1.387 . S
C280 N283 1.341 . S
C281 C279 1.400 . S
C281 C280 1.387 . S
N282 Co273 2.022 . S
N282 C279 1.351 . S
N282 N283 1.365 . S
N283 C280 1.341 . S
N283 N282 1.365 . S
N283 H303 0.862 . S
C284 C279 1.501 . S
C284 H285 0.961 . S
C284 H286 0.961 . S
C284 H287 0.960 . S
H285 C284 0.961 . S
H286 C284 0.961 . S
H287 C284 0.960 . S
C288 N289 1.342 . S
C288 C292 1.401 . S
C288 C293 1.499 . S
N289 Co272 1.989 . S
N289 C288 1.342 . S
N289 N290 1.388 . S
N290 Co273 1.993 . S
N290 N289 1.388 . S
N290 C291 1.346 . S
C291 N290 1.346 . S
C291 C292 1.396 . S
C291 C301 1.510 . S
C292 C288 1.401 . S
C292 C291 1.396 . S
C293 C288 1.499 . S
C293 H294 0.959 . S
C293 H295 0.960 . S
C293 H296 0.961 . S
H294 C293 0.959 . S
H295 C293 0.960 . S
H296 C293 0.961 . S
O297 Co272 1.967 . S
O297 C305 1.258 . S
O298 Co273 1.941 . S
O298 C305 1.266 . S
H299 C301 0.959 . S
H300 C301 0.961 . S
C301 C291 1.510 . S
C301 H299 0.959 . S
C301 H300 0.961 . S
C301 H302 0.960 . S
H302 C301 0.960 . S
H303 N283 0.862 . S
O304 Co272 1.920 . S
O304 C277 1.289 . S
C305 O297 1.258 . S
C305 O298 1.266 . S
Co306 O309 1.970 . S
Co306 N323 1.989 . S
Co306 O331 1.967 . S
Co306 O338 1.920 . S
Co307 O310 1.966 . S
Co307 N316 2.022 . S
Co307 N324 1.993 . S
Co307 O332 1.941 . S
C308 O309 1.258 . S
C308 O310 1.263 . S
O309 Co306 1.970 . S
O309 C308 1.258 . S
O310 Co307 1.966 . S
O310 C308 1.263 . S
C311 O312 1.235 . S
C311 O338 1.289 . S
O312 C311 1.235 . S
C313 C315 1.400 . S
C313 N316 1.351 . S
C313 C318 1.501 . S
C314 C315 1.387 . S
C314 N317 1.341 . S
C315 C313 1.400 . S
C315 C314 1.387 . S
N316 Co307 2.022 . S
N316 C313 1.351 . S
N316 N317 1.365 . S
N317 C314 1.341 . S
N317 N316 1.365 . S
N317 H337 0.862 . S
C318 C313 1.501 . S
C318 H319 0.961 . S
C318 H320 0.961 . S
C318 H321 0.960 . S
H319 C318 0.961 . S
H320 C318 0.961 . S
H321 C318 0.960 . S
C322 N323 1.342 1_545 S
C322 C326 1.401 . S
C322 C327 1.499 . S
N323 Co306 1.989 . S
N323 C322 1.342 1_565 S
N323 N324 1.388 . S
N324 Co307 1.993 . S
N324 N323 1.388 . S
N324 C325 1.346 . S
C325 N324 1.346 . S
C325 C326 1.396 1_565 S
C325 C335 1.510 1_565 S
C326 C322 1.401 . S
C326 C325 1.396 1_545 S
C327 C322 1.499 . S
C327 H328 0.959 1_545 S
C327 H329 0.960 . S
C327 H330 0.961 . S
H328 C327 0.959 1_565 S
H329 C327 0.960 . S
H330 C327 0.961 . S
O331 Co306 1.967 . S
O331 C339 1.258 . S
O332 Co307 1.941 . S
O332 C339 1.266 . S
H333 C335 0.959 . S
H334 C335 0.961 . S
C335 C325 1.510 1_545 S
C335 H333 0.959 . S
C335 H334 0.961 . S
C335 H336 0.960 1_545 S
H336 C335 0.960 1_565 S
H337 N317 0.862 . S
O338 Co306 1.920 . S
O338 C311 1.289 . S
C339 O331 1.258 . S
C339 O332 1.266 . S
Co340 O343 1.970 . S
Co340 N357 1.989 . S
Co340 O365 1.967 . S
Co340 O372 1.920 . S
Co341 O344 1.966 . S
Co341 N350 2.022 . S
Co341 N358 1.993 . S
Co341 O366 1.941 . S
C342 O343 1.258 . S
C342 O344 1.263 . S
O343 Co340 1.970 . S
O343 C342 1.258 . S
O344 Co341 1.966 . S
O344 C342 1.263 . S
C345 O346 1.235 . S
C345 O372 1.289 . S
O346 C345 1.235 . S
C347 C349 1.400 . S
C347 N350 1.351 . S
C347 C352 1.501 . S
C348 C349 1.387 . S
C348 N351 1.341 . S
C349 C347 1.400 . S
C349 C348 1.387 . S
N350 Co341 2.022 . S
N350 C347 1.351 . S
N350 N351 1.365 . S
N351 C348 1.341 . S
N351 N350 1.365 . S
N351 H371 0.862 . S
C352 C347 1.501 . S
C352 H353 0.961 . S
C352 H354 0.961 . S
C352 H355 0.960 . S
H353 C352 0.961 . S
H354 C352 0.961 . S
H355 C352 0.960 . S
C356 N357 1.342 . S
C356 C360 1.401 . S
C356 C361 1.499 . S
N357 Co340 1.989 . S
N357 C356 1.342 . S
N357 N358 1.388 . S
N358 Co341 1.993 . S
N358 N357 1.388 . S
N358 C359 1.346 . S
C359 N358 1.346 . S
C359 C360 1.396 . S
C359 C369 1.510 . S
C360 C356 1.401 . S
C360 C359 1.396 . S
C361 C356 1.499 . S
C361 H362 0.959 . S
C361 H363 0.960 . S
C361 H364 0.961 . S
H362 C361 0.959 . S
H363 C361 0.960 . S
H364 C361 0.961 . S
O365 Co340 1.967 . S
O365 C373 1.258 . S
O366 Co341 1.941 . S
O366 C373 1.266 . S
H367 C369 0.959 . S
H368 C369 0.961 . S
C369 C359 1.510 . S
C369 H367 0.959 . S
C369 H368 0.961 . S
C369 H370 0.960 . S
H370 C369 0.960 . S
H371 N351 0.862 . S
O372 Co340 1.920 . S
O372 C345 1.289 . S
C373 O365 1.258 . S
C373 O366 1.266 . S
Co374 O377 1.970 . S
Co374 N391 1.989 . S
Co374 O399 1.967 . S
Co374 O406 1.920 . S
Co375 O378 1.966 . S
Co375 N384 2.022 . S
Co375 N392 1.993 . S
Co375 O400 1.941 . S
C376 O377 1.258 . S
C376 O378 1.263 . S
O377 Co374 1.970 . S
O377 C376 1.258 . S
O378 Co375 1.966 . S
O378 C376 1.263 . S
C379 O380 1.235 . S
C379 O406 1.289 . S
O380 C379 1.235 . S
C381 C383 1.400 . S
C381 N384 1.351 . S
C381 C386 1.501 . S
C382 C383 1.387 . S
C382 N385 1.341 . S
C383 C381 1.400 . S
C383 C382 1.387 . S
N384 Co375 2.022 . S
N384 C381 1.351 . S
N384 N385 1.365 . S
N385 C382 1.341 . S
N385 N384 1.365 . S
N385 H405 0.862 . S
C386 C381 1.501 . S
C386 H387 0.961 . S
C386 H388 0.961 . S
C386 H389 0.960 . S
H387 C386 0.961 . S
H388 C386 0.961 . S
H389 C386 0.960 . S
C390 N391 1.342 1_565 S
C390 C394 1.401 . S
C390 C395 1.499 . S
N391 Co374 1.989 . S
N391 C390 1.342 1_545 S
N391 N392 1.388 . S
N392 Co375 1.993 . S
N392 N391 1.388 . S
N392 C393 1.346 1_545 S
C393 N392 1.346 1_565 S
C393 C394 1.396 . S
C393 C403 1.510 . S
C394 C390 1.401 . S
C394 C393 1.396 . S
C395 C390 1.499 . S
C395 H396 0.959 1_565 S
C395 H397 0.960 . S
C395 H398 0.961 . S
H396 C395 0.959 1_545 S
H397 C395 0.960 . S
H398 C395 0.961 . S
O399 Co374 1.967 . S
O399 C407 1.258 . S
O400 Co375 1.941 . S
O400 C407 1.266 . S
H401 C403 0.959 . S
H402 C403 0.961 . S
C403 C393 1.510 . S
C403 H401 0.959 . S
C403 H402 0.961 . S
C403 H404 0.960 . S
H404 C403 0.960 . S
H405 N385 0.862 . S
O406 Co374 1.920 . S
O406 C379 1.289 . S
C407 O399 1.258 . S
C407 O400 1.266 . S
Co408 O411 1.970 . S
Co408 N425 1.989 . S
Co408 O433 1.967 . S
Co408 O440 1.920 . S
Co409 O412 1.966 . S
Co409 N418 2.022 . S
Co409 N426 1.993 . S
Co409 O434 1.941 . S
C410 O411 1.258 . S
C410 O412 1.263 . S
O411 Co408 1.970 . S
O411 C410 1.258 . S
O412 Co409 1.966 . S
O412 C410 1.263 . S
C413 O414 1.235 . S
C413 O440 1.289 . S
O414 C413 1.235 . S
C415 C417 1.400 . S
C415 N418 1.351 . S
C415 C420 1.501 . S
C416 C417 1.387 . S
C416 N419 1.341 . S
C417 C415 1.400 . S
C417 C416 1.387 . S
N418 Co409 2.022 . S
N418 C415 1.351 . S
N418 N419 1.365 . S
N419 C416 1.341 . S
N419 N418 1.365 . S
N419 H439 0.862 . S
C420 C415 1.501 . S
C420 H421 0.961 . S
C420 H422 0.961 . S
C420 H423 0.960 . S
H421 C420 0.961 . S
H422 C420 0.961 . S
H423 C420 0.960 . S
C424 N425 1.342 . S
C424 C428 1.401 . S
C424 C429 1.499 . S
N425 Co408 1.989 . S
N425 C424 1.342 . S
N425 N426 1.388 . S
N426 Co409 1.993 . S
N426 N425 1.388 . S
N426 C427 1.346 . S
C427 N426 1.346 . S
C427 C428 1.396 . S
C427 C437 1.510 . S
C428 C424 1.401 . S
C428 C427 1.396 . S
C429 C424 1.499 . S
C429 H430 0.959 . S
C429 H431 0.960 . S
C429 H432 0.961 . S
H430 C429 0.959 . S
H431 C429 0.960 . S
H432 C429 0.961 . S
O433 Co408 1.967 . S
O433 C441 1.258 . S
O434 Co409 1.941 . S
O434 C441 1.266 . S
H435 C437 0.959 . S
H436 C437 0.961 . S
C437 C427 1.510 . S
C437 H435 0.959 . S
C437 H436 0.961 . S
C437 H438 0.960 . S
H438 C437 0.960 . S
H439 N419 0.862 . S
O440 Co408 1.920 . S
O440 C413 1.289 . S
C441 O433 1.258 . S
C441 O434 1.266 . S
Co442 O445 1.970 . S
Co442 N459 1.989 . S
Co442 O467 1.967 . S
Co442 O474 1.920 . S
Co443 O446 1.966 . S
Co443 N452 2.022 . S
Co443 N460 1.993 . S
Co443 O468 1.941 . S
C444 O445 1.258 . S
C444 O446 1.263 . S
O445 Co442 1.970 . S
O445 C444 1.258 . S
O446 Co443 1.966 . S
O446 C444 1.263 . S
C447 O448 1.235 . S
C447 O474 1.289 . S
O448 C447 1.235 . S
C449 C451 1.400 . S
C449 N452 1.351 . S
C449 C454 1.501 . S
C450 C451 1.387 . S
C450 N453 1.341 . S
C451 C449 1.400 . S
C451 C450 1.387 . S
N452 Co443 2.022 . S
N452 C449 1.351 . S
N452 N453 1.365 . S
N453 C450 1.341 . S
N453 N452 1.365 . S
N453 H473 0.862 . S
C454 C449 1.501 . S
C454 H455 0.961 . S
C454 H456 0.961 . S
C454 H457 0.960 . S
H455 C454 0.961 . S
H456 C454 0.961 . S
H457 C454 0.960 . S
C458 N459 1.342 1_565 S
C458 C462 1.401 . S
C458 C463 1.499 . S
N459 Co442 1.989 . S
N459 C458 1.342 1_545 S
N459 N460 1.388 . S
N460 Co443 1.993 . S
N460 N459 1.388 . S
N460 C461 1.346 1_545 S
C461 N460 1.346 1_565 S
C461 C462 1.396 . S
C461 C471 1.510 . S
C462 C458 1.401 . S
C462 C461 1.396 . S
C463 C458 1.499 . S
C463 H464 0.959 1_565 S
C463 H465 0.960 . S
C463 H466 0.961 . S
H464 C463 0.959 1_545 S
H465 C463 0.960 . S
H466 C463 0.961 . S
O467 Co442 1.967 . S
O467 C475 1.258 . S
O468 Co443 1.941 . S
O468 C475 1.266 . S
H469 C471 0.959 . S
H470 C471 0.961 . S
C471 C461 1.510 . S
C471 H469 0.959 . S
C471 H470 0.961 . S
C471 H472 0.960 . S
H472 C471 0.960 . S
H473 N453 0.862 . S
O474 Co442 1.920 . S
O474 C447 1.289 . S
C475 O467 1.258 . S
C475 O468 1.266 . S
Co476 O479 1.970 . S
Co476 N493 1.989 . S
Co476 O501 1.967 . S
Co476 O508 1.920 . S
Co477 O480 1.966 . S
Co477 N486 2.022 . S
Co477 N494 1.993 . S
Co477 O502 1.941 . S
C478 O479 1.258 . S
C478 O480 1.263 . S
O479 Co476 1.970 . S
O479 C478 1.258 . S
O480 Co477 1.966 . S
O480 C478 1.263 . S
C481 O482 1.235 . S
C481 O508 1.289 . S
O482 C481 1.235 . S
C483 C485 1.400 . S
C483 N486 1.351 . S
C483 C488 1.501 . S
C484 C485 1.387 . S
C484 N487 1.341 . S
C485 C483 1.400 . S
C485 C484 1.387 . S
N486 Co477 2.022 . S
N486 C483 1.351 . S
N486 N487 1.365 . S
N487 C484 1.341 . S
N487 N486 1.365 . S
N487 H507 0.862 . S
C488 C483 1.501 . S
C488 H489 0.961 . S
C488 H490 0.961 . S
C488 H491 0.960 . S
H489 C488 0.961 . S
H490 C488 0.961 . S
H491 C488 0.960 . S
C492 N493 1.342 . S
C492 C496 1.401 . S
C492 C497 1.499 . S
N493 Co476 1.989 . S
N493 C492 1.342 . S
N493 N494 1.388 . S
N494 Co477 1.993 . S
N494 N493 1.388 . S
N494 C495 1.346 . S
C495 N494 1.346 . S
C495 C496 1.396 . S
C495 C505 1.510 . S
C496 C492 1.401 . S
C496 C495 1.396 . S
C497 C492 1.499 . S
C497 H498 0.959 . S
C497 H499 0.960 . S
C497 H500 0.961 . S
H498 C497 0.959 . S
H499 C497 0.960 . S
H500 C497 0.961 . S
O501 Co476 1.967 . S
O501 C509 1.258 . S
O502 Co477 1.941 . S
O502 C509 1.266 . S
H503 C505 0.959 . S
H504 C505 0.961 . S
C505 C495 1.510 . S
C505 H503 0.959 . S
C505 H504 0.961 . S
C505 H506 0.960 . S
H506 C505 0.960 . S
H507 N487 0.862 . S
O508 Co476 1.920 . S
O508 C481 1.289 . S
C509 O501 1.258 . S
C509 O502 1.266 . S
Co510 O513 1.970 . S
Co510 N527 1.989 . S
Co510 O535 1.967 . S
Co510 O542 1.920 . S
Co511 O514 1.966 . S
Co511 N520 2.022 . S
Co511 N528 1.993 . S
Co511 O536 1.941 . S
C512 O513 1.258 . S
C512 O514 1.263 . S
O513 Co510 1.970 . S
O513 C512 1.258 . S
O514 Co511 1.966 . S
O514 C512 1.263 . S
C515 O516 1.235 . S
C515 O542 1.289 . S
O516 C515 1.235 . S
C517 C519 1.400 . S
C517 N520 1.351 . S
C517 C522 1.501 . S
C518 C519 1.387 . S
C518 N521 1.341 . S
C519 C517 1.400 . S
C519 C518 1.387 . S
N520 Co511 2.022 . S
N520 C517 1.351 . S
N520 N521 1.365 . S
N521 C518 1.341 . S
N521 N520 1.365 . S
N521 H541 0.862 . S
C522 C517 1.501 . S
C522 H523 0.961 . S
C522 H524 0.961 . S
C522 H525 0.960 . S
H523 C522 0.961 . S
H524 C522 0.961 . S
H525 C522 0.960 . S
C526 N527 1.342 . S
C526 C530 1.401 1_565 S
C526 C531 1.499 . S
N527 Co510 1.989 . S
N527 C526 1.342 . S
N527 N528 1.388 . S
N528 Co511 1.993 . S
N528 N527 1.388 . S
N528 C529 1.346 . S
C529 N528 1.346 . S
C529 C530 1.396 1_565 S
C529 C539 1.510 1_565 S
C530 C526 1.401 1_545 S
C530 C529 1.396 1_545 S
C531 C526 1.499 . S
C531 H532 0.959 . S
C531 H533 0.960 1_565 S
C531 H534 0.961 . S
H532 C531 0.959 . S
H533 C531 0.960 1_545 S
H534 C531 0.961 . S
O535 Co510 1.967 . S
O535 C543 1.258 . S
O536 Co511 1.941 . S
O536 C543 1.266 . S
H537 C539 0.959 . S
H538 C539 0.961 . S
C539 C529 1.510 1_545 S
C539 H537 0.959 . S
C539 H538 0.961 . S
C539 H540 0.960 1_545 S
H540 C539 0.960 1_565 S
H541 N521 0.862 . S
O542 Co510 1.920 . S
O542 C515 1.289 . S
C543 O535 1.258 . S
C543 O536 1.266 . S
H544 C556 0.930 . S
H545 C558 0.930 . S
H546 C559 0.930 . S
H547 C563 0.959 . S
H548 C563 0.959 . S
H549 C563 0.961 . S
H550 C564 0.960 . S
H551 C564 0.961 . S
H552 C564 0.959 . S
H553 C567 0.929 . S
H554 C568 0.931 . S
H555 C570 0.930 . S
C556 H544 0.930 . S
C556 C557 1.399 . S
C556 C561 1.399 . S
C557 C556 1.399 . S
C557 C558 1.376 . S
C558 H545 0.930 . S
C558 C557 1.376 . S
C558 C559 1.388 . S
C559 H546 0.930 . S
C559 C558 1.388 . S
C559 C560 1.390 . S
C560 C559 1.390 . S
C560 C561 1.394 . S
C560 C566 1.465 . S
C561 C556 1.399 . S
C561 C560 1.394 . S
C561 C562 1.516 . S
C562 C561 1.516 . S
C562 C563 1.502 . S
C562 C564 1.561 . S
C562 C565 1.526 . S
C563 H547 0.959 . S
C563 H548 0.959 . S
C563 H549 0.961 . S
C563 C562 1.502 . S
C564 H550 0.960 . S
C564 H551 0.961 . S
C564 H552 0.959 . S
C564 C562 1.561 . S
C565 C562 1.526 . S
C565 C566 1.396 . S
C565 C570 1.390 . S
C566 C560 1.465 . S
C566 C565 1.396 . S
C566 C567 1.399 . S
C567 H553 0.929 . S
C567 C566 1.399 . S
C567 C568 1.385 . S
C568 H554 0.931 . S
C568 C567 1.385 . S
C568 C569 1.389 . S
C569 C568 1.389 . S
C569 C570 1.387 . S
C570 H555 0.930 . S
C570 C565 1.390 . S
C570 C569 1.387 . S
H571 C583 0.930 . S
H572 C585 0.930 . S
H573 C586 0.930 . S
H574 C590 0.959 . S
H575 C590 0.959 . S
H576 C590 0.961 . S
H577 C591 0.960 . S
H578 C591 0.961 . S
H579 C591 0.959 . S
H580 C594 0.929 . S
H581 C595 0.931 . S
H582 C597 0.930 . S
C583 H571 0.930 . S
C583 C584 1.399 . S
C583 C588 1.399 . S
C584 C583 1.399 . S
C584 C585 1.376 . S
C585 H572 0.930 . S
C585 C584 1.376 . S
C585 C586 1.388 . S
C586 H573 0.930 . S
C586 C585 1.388 . S
C586 C587 1.390 . S
C587 C586 1.390 . S
C587 C588 1.394 . S
C587 C593 1.465 . S
C588 C583 1.399 . S
C588 C587 1.394 . S
C588 C589 1.516 . S
C589 C588 1.516 . S
C589 C590 1.502 . S
C589 C591 1.561 . S
C589 C592 1.526 . S
C590 H574 0.959 . S
C590 H575 0.959 . S
C590 H576 0.961 . S
C590 C589 1.502 . S
C591 H577 0.960 . S
C591 H578 0.961 . S
C591 H579 0.959 . S
C591 C589 1.561 . S
C592 C589 1.526 . S
C592 C593 1.396 . S
C592 C597 1.390 . S
C593 C587 1.465 . S
C593 C592 1.396 . S
C593 C594 1.399 . S
C594 H580 0.929 . S
C594 C593 1.399 . S
C594 C595 1.385 . S
C595 H581 0.931 . S
C595 C594 1.385 . S
C595 C596 1.389 . S
C596 C595 1.389 . S
C596 C597 1.387 . S
C597 H582 0.930 . S
C597 C592 1.390 . S
C597 C596 1.387 . S
H598 C610 0.930 . S
H599 C612 0.930 . S
H600 C613 0.930 . S
H601 C617 0.959 . S
H602 C617 0.959 . S
H603 C617 0.961 . S
H604 C618 0.960 . S
H605 C618 0.961 . S
H606 C618 0.959 . S
H607 C621 0.929 . S
H608 C622 0.931 . S
H609 C624 0.930 . S
C610 H598 0.930 . S
C610 C611 1.399 . S
C610 C615 1.399 . S
C611 C610 1.399 . S
C611 C612 1.376 . S
C612 H599 0.930 . S
C612 C611 1.376 . S
C612 C613 1.388 . S
C613 H600 0.930 . S
C613 C612 1.388 . S
C613 C614 1.390 . S
C614 C613 1.390 . S
C614 C615 1.394 . S
C614 C620 1.465 . S
C615 C610 1.399 . S
C615 C614 1.394 . S
C615 C616 1.516 . S
C616 C615 1.516 . S
C616 C617 1.502 . S
C616 C618 1.561 . S
C616 C619 1.526 . S
C617 H601 0.959 . S
C617 H602 0.959 . S
C617 H603 0.961 . S
C617 C616 1.502 . S
C618 H604 0.960 . S
C618 H605 0.961 . S
C618 H606 0.959 . S
C618 C616 1.561 . S
C619 C616 1.526 . S
C619 C620 1.396 . S
C619 C624 1.390 . S
C620 C614 1.465 . S
C620 C619 1.396 . S
C620 C621 1.399 . S
C621 H607 0.929 . S
C621 C620 1.399 . S
C621 C622 1.385 . S
C622 H608 0.931 . S
C622 C621 1.385 . S
C622 C623 1.389 . S
C623 C622 1.389 . S
C623 C624 1.387 . S
C624 H609 0.930 . S
C624 C619 1.390 . S
C624 C623 1.387 . S
H625 C637 0.930 . S
H626 C639 0.930 . S
H627 C640 0.930 . S
H628 C644 0.959 . S
H629 C644 0.959 . S
H630 C644 0.961 . S
H631 C645 0.960 . S
H632 C645 0.961 . S
H633 C645 0.959 . S
H634 C648 0.929 . S
H635 C649 0.931 . S
H636 C651 0.930 . S
C637 H625 0.930 . S
C637 C638 1.399 . S
C637 C642 1.399 . S
C638 C637 1.399 . S
C638 C639 1.376 . S
C639 H626 0.930 . S
C639 C638 1.376 . S
C639 C640 1.388 . S
C640 H627 0.930 . S
C640 C639 1.388 . S
C640 C641 1.390 . S
C641 C640 1.390 . S
C641 C642 1.394 . S
C641 C647 1.465 . S
C642 C637 1.399 . S
C642 C641 1.394 . S
C642 C643 1.516 . S
C643 C642 1.516 . S
C643 C644 1.502 . S
C643 C645 1.561 . S
C643 C646 1.526 . S
C644 H628 0.959 . S
C644 H629 0.959 . S
C644 H630 0.961 . S
C644 C643 1.502 . S
C645 H631 0.960 . S
C645 H632 0.961 . S
C645 H633 0.959 . S
C645 C643 1.561 . S
C646 C643 1.526 . S
C646 C647 1.396 . S
C646 C651 1.390 . S
C647 C641 1.465 . S
C647 C646 1.396 . S
C647 C648 1.399 . S
C648 H634 0.929 . S
C648 C647 1.399 . S
C648 C649 1.385 . S
C649 H635 0.931 . S
C649 C648 1.385 . S
C649 C650 1.389 . S
C650 C649 1.389 . S
C650 C651 1.387 . S
C651 H636 0.930 . S
C651 C646 1.390 . S
C651 C650 1.387 . S
H652 C664 0.930 . S
H653 C666 0.930 . S
H654 C667 0.930 . S
H655 C671 0.959 . S
H656 C671 0.959 . S
H657 C671 0.961 . S
H658 C672 0.960 . S
H659 C672 0.961 . S
H660 C672 0.959 . S
H661 C675 0.929 . S
H662 C676 0.931 . S
H663 C678 0.930 . S
C664 H652 0.930 . S
C664 C665 1.399 . S
C664 C669 1.399 . S
C665 C664 1.399 . S
C665 C666 1.376 . S
C666 H653 0.930 . S
C666 C665 1.376 . S
C666 C667 1.388 . S
C667 H654 0.930 . S
C667 C666 1.388 . S
C667 C668 1.390 . S
C668 C667 1.390 . S
C668 C669 1.394 . S
C668 C674 1.465 . S
C669 C664 1.399 . S
C669 C668 1.394 . S
C669 C670 1.516 . S
C670 C669 1.516 . S
C670 C671 1.502 . S
C670 C672 1.561 . S
C670 C673 1.526 . S
C671 H655 0.959 . S
C671 H656 0.959 . S
C671 H657 0.961 . S
C671 C670 1.502 . S
C672 H658 0.960 . S
C672 H659 0.961 . S
C672 H660 0.959 . S
C672 C670 1.561 . S
C673 C670 1.526 . S
C673 C674 1.396 . S
C673 C678 1.390 . S
C674 C668 1.465 . S
C674 C673 1.396 . S
C674 C675 1.399 . S
C675 H661 0.929 . S
C675 C674 1.399 . S
C675 C676 1.385 . S
C676 H662 0.931 . S
C676 C675 1.385 . S
C676 C677 1.389 . S
C677 C676 1.389 . S
C677 C678 1.387 . S
C678 H663 0.930 . S
C678 C673 1.390 . S
C678 C677 1.387 . S
H679 C691 0.930 . S
H680 C693 0.930 . S
H681 C694 0.930 . S
H682 C698 0.959 . S
H683 C698 0.959 . S
H684 C698 0.961 . S
H685 C699 0.960 . S
H686 C699 0.961 . S
H687 C699 0.959 . S
H688 C702 0.929 . S
H689 C703 0.931 . S
H690 C705 0.930 . S
C691 H679 0.930 . S
C691 C692 1.399 . S
C691 C696 1.399 . S
C692 C691 1.399 . S
C692 C693 1.376 . S
C693 H680 0.930 . S
C693 C692 1.376 . S
C693 C694 1.388 . S
C694 H681 0.930 . S
C694 C693 1.388 . S
C694 C695 1.390 . S
C695 C694 1.390 . S
C695 C696 1.394 . S
C695 C701 1.465 . S
C696 C691 1.399 . S
C696 C695 1.394 . S
C696 C697 1.516 . S
C697 C696 1.516 . S
C697 C698 1.502 . S
C697 C699 1.561 . S
C697 C700 1.526 . S
C698 H682 0.959 . S
C698 H683 0.959 . S
C698 H684 0.961 . S
C698 C697 1.502 . S
C699 H685 0.960 . S
C699 H686 0.961 . S
C699 H687 0.959 . S
C699 C697 1.561 . S
C700 C697 1.526 . S
C700 C701 1.396 . S
C700 C705 1.390 . S
C701 C695 1.465 . S
C701 C700 1.396 . S
C701 C702 1.399 . S
C702 H688 0.929 . S
C702 C701 1.399 . S
C702 C703 1.385 . S
C703 H689 0.931 . S
C703 C702 1.385 . S
C703 C704 1.389 . S
C704 C703 1.389 . S
C704 C705 1.387 . S
C705 H690 0.930 . S
C705 C700 1.390 . S
C705 C704 1.387 . S
H706 C718 0.930 . S
H707 C720 0.930 . S
H708 C721 0.930 . S
H709 C725 0.959 . S
H710 C725 0.959 . S
H711 C725 0.961 . S
H712 C726 0.960 . S
H713 C726 0.961 . S
H714 C726 0.959 . S
H715 C729 0.929 . S
H716 C730 0.931 . S
H717 C732 0.930 . S
C718 H706 0.930 . S
C718 C719 1.399 . S
C718 C723 1.399 . S
C719 C718 1.399 . S
C719 C720 1.376 . S
C720 H707 0.930 . S
C720 C719 1.376 . S
C720 C721 1.388 . S
C721 H708 0.930 . S
C721 C720 1.388 . S
C721 C722 1.390 . S
C722 C721 1.390 . S
C722 C723 1.394 . S
C722 C728 1.465 . S
C723 C718 1.399 . S
C723 C722 1.394 . S
C723 C724 1.516 . S
C724 C723 1.516 . S
C724 C725 1.502 . S
C724 C726 1.561 . S
C724 C727 1.526 . S
C725 H709 0.959 . S
C725 H710 0.959 . S
C725 H711 0.961 . S
C725 C724 1.502 . S
C726 H712 0.960 . S
C726 H713 0.961 . S
C726 H714 0.959 . S
C726 C724 1.561 . S
C727 C724 1.526 . S
C727 C728 1.396 . S
C727 C732 1.390 . S
C728 C722 1.465 . S
C728 C727 1.396 . S
C728 C729 1.399 . S
C729 H715 0.929 . S
C729 C728 1.399 . S
C729 C730 1.385 . S
C730 H716 0.931 . S
C730 C729 1.385 . S
C730 C731 1.389 . S
C731 C730 1.389 . S
C731 C732 1.387 . S
C732 H717 0.930 . S
C732 C727 1.390 . S
C732 C731 1.387 . S
H733 C745 0.930 . S
H734 C747 0.930 . S
H735 C748 0.930 . S
H736 C752 0.959 . S
H737 C752 0.959 . S
H738 C752 0.961 . S
H739 C753 0.960 . S
H740 C753 0.961 . S
H741 C753 0.959 . S
H742 C756 0.929 . S
H743 C757 0.931 . S
H744 C759 0.930 . S
C745 H733 0.930 . S
C745 C746 1.399 . S
C745 C750 1.399 . S
C746 C745 1.399 . S
C746 C747 1.376 . S
C747 H734 0.930 . S
C747 C746 1.376 . S
C747 C748 1.388 . S
C748 H735 0.930 . S
C748 C747 1.388 . S
C748 C749 1.390 . S
C749 C748 1.390 . S
C749 C750 1.394 . S
C749 C755 1.465 . S
C750 C745 1.399 . S
C750 C749 1.394 . S
C750 C751 1.516 . S
C751 C750 1.516 . S
C751 C752 1.502 . S
C751 C753 1.561 . S
C751 C754 1.526 . S
C752 H736 0.959 . S
C752 H737 0.959 . S
C752 H738 0.961 . S
C752 C751 1.502 . S
C753 H739 0.960 . S
C753 H740 0.961 . S
C753 H741 0.959 . S
C753 C751 1.561 . S
C754 C751 1.526 . S
C754 C755 1.396 . S
C754 C759 1.390 . S
C755 C749 1.465 . S
C755 C754 1.396 . S
C755 C756 1.399 . S
C756 H742 0.929 . S
C756 C755 1.399 . S
C756 C757 1.385 . S
C757 H743 0.931 . S
C757 C756 1.385 . S
C757 C758 1.389 . S
C758 C757 1.389 . S
C758 C759 1.387 . S
C759 H744 0.930 . S
C759 C754 1.390 . S
C759 C758 1.387 . S
H760 C772 0.930 . S
H761 C774 0.930 . S
H762 C775 0.930 . S
H763 C779 0.959 . S
H764 C779 0.959 . S
H765 C779 0.961 . S
H766 C780 0.960 . S
H767 C780 0.961 . S
H768 C780 0.959 . S
H769 C783 0.929 . S
H770 C784 0.931 . S
H771 C786 0.930 . S
C772 H760 0.930 . S
C772 C773 1.399 . S
C772 C777 1.399 . S
C773 C772 1.399 . S
C773 C774 1.376 . S
C774 H761 0.930 . S
C774 C773 1.376 . S
C774 C775 1.388 . S
C775 H762 0.930 . S
C775 C774 1.388 . S
C775 C776 1.390 . S
C776 C775 1.390 . S
C776 C777 1.394 . S
C776 C782 1.465 . S
C777 C772 1.399 . S
C777 C776 1.394 . S
C777 C778 1.516 . S
C778 C777 1.516 . S
C778 C779 1.502 . S
C778 C780 1.561 . S
C778 C781 1.526 . S
C779 H763 0.959 . S
C779 H764 0.959 . S
C779 H765 0.961 . S
C779 C778 1.502 . S
C780 H766 0.960 . S
C780 H767 0.961 . S
C780 H768 0.959 . S
C780 C778 1.561 . S
C781 C778 1.526 . S
C781 C782 1.396 . S
C781 C786 1.390 . S
C782 C776 1.465 . S
C782 C781 1.396 . S
C782 C783 1.399 . S
C783 H769 0.929 . S
C783 C782 1.399 . S
C783 C784 1.385 . S
C784 H770 0.931 . S
C784 C783 1.385 . S
C784 C785 1.389 . S
C785 C784 1.389 . S
C785 C786 1.387 . S
C786 H771 0.930 . S
C786 C781 1.390 . S
C786 C785 1.387 . S
H787 C799 0.930 . S
H788 C801 0.930 . S
H789 C802 0.930 . S
H790 C806 0.959 . S
H791 C806 0.959 . S
H792 C806 0.961 . S
H793 C807 0.960 . S
H794 C807 0.961 . S
H795 C807 0.959 . S
H796 C810 0.929 . S
H797 C811 0.931 . S
H798 C813 0.930 . S
C799 H787 0.930 . S
C799 C800 1.399 . S
C799 C804 1.399 . S
C800 C799 1.399 . S
C800 C801 1.376 . S
C801 H788 0.930 . S
C801 C800 1.376 . S
C801 C802 1.388 . S
C802 H789 0.930 . S
C802 C801 1.388 . S
C802 C803 1.390 . S
C803 C802 1.390 . S
C803 C804 1.394 . S
C803 C809 1.465 . S
C804 C799 1.399 . S
C804 C803 1.394 . S
C804 C805 1.516 . S
C805 C804 1.516 . S
C805 C806 1.502 . S
C805 C807 1.561 . S
C805 C808 1.526 . S
C806 H790 0.959 . S
C806 H791 0.959 . S
C806 H792 0.961 . S
C806 C805 1.502 . S
C807 H793 0.960 . S
C807 H794 0.961 . S
C807 H795 0.959 . S
C807 C805 1.561 . S
C808 C805 1.526 . S
C808 C809 1.396 . S
C808 C813 1.390 . S
C809 C803 1.465 . S
C809 C808 1.396 . S
C809 C810 1.399 . S
C810 H796 0.929 . S
C810 C809 1.399 . S
C810 C811 1.385 . S
C811 H797 0.931 . S
C811 C810 1.385 . S
C811 C812 1.389 . S
C812 C811 1.389 . S
C812 C813 1.387 . S
C813 H798 0.930 . S
C813 C808 1.390 . S
C813 C812 1.387 . S
H814 C826 0.930 . S
H815 C828 0.930 . S
H816 C829 0.930 . S
H817 C833 0.959 . S
H818 C833 0.959 . S
H819 C833 0.961 . S
H820 C834 0.960 . S
H821 C834 0.961 . S
H822 C834 0.959 . S
H823 C837 0.929 . S
H824 C838 0.931 . S
H825 C840 0.930 . S
C826 H814 0.930 . S
C826 C827 1.399 . S
C826 C831 1.399 . S
C827 C826 1.399 . S
C827 C828 1.376 . S
C828 H815 0.930 . S
C828 C827 1.376 . S
C828 C829 1.388 . S
C829 H816 0.930 . S
C829 C828 1.388 . S
C829 C830 1.390 . S
C830 C829 1.390 . S
C830 C831 1.394 . S
C830 C836 1.465 . S
C831 C826 1.399 . S
C831 C830 1.394 . S
C831 C832 1.516 . S
C832 C831 1.516 . S
C832 C833 1.502 . S
C832 C834 1.561 . S
C832 C835 1.526 . S
C833 H817 0.959 . S
C833 H818 0.959 . S
C833 H819 0.961 . S
C833 C832 1.502 . S
C834 H820 0.960 . S
C834 H821 0.961 . S
C834 H822 0.959 . S
C834 C832 1.561 . S
C835 C832 1.526 . S
C835 C836 1.396 . S
C835 C840 1.390 . S
C836 C830 1.465 . S
C836 C835 1.396 . S
C836 C837 1.399 . S
C837 H823 0.929 . S
C837 C836 1.399 . S
C837 C838 1.385 . S
C838 H824 0.931 . S
C838 C837 1.385 . S
C838 C839 1.389 . S
C839 C838 1.389 . S
C839 C840 1.387 . S
C840 H825 0.930 . S
C840 C835 1.390 . S
C840 C839 1.387 . S
H841 C853 0.930 . S
H842 C855 0.930 . S
H843 C856 0.930 . S
H844 C860 0.959 . S
H845 C860 0.959 . S
H846 C860 0.961 . S
H847 C861 0.960 . S
H848 C861 0.961 . S
H849 C861 0.959 . S
H850 C864 0.929 . S
H851 C865 0.931 . S
H852 C867 0.930 . S
C853 H841 0.930 . S
C853 C854 1.399 . S
C853 C858 1.399 . S
C854 C853 1.399 . S
C854 C855 1.376 . S
C855 H842 0.930 . S
C855 C854 1.376 . S
C855 C856 1.388 . S
C856 H843 0.930 . S
C856 C855 1.388 . S
C856 C857 1.390 . S
C857 C856 1.390 . S
C857 C858 1.394 . S
C857 C863 1.465 . S
C858 C853 1.399 . S
C858 C857 1.394 . S
C858 C859 1.516 . S
C859 C858 1.516 . S
C859 C860 1.502 . S
C859 C861 1.561 . S
C859 C862 1.526 . S
C860 H844 0.959 . S
C860 H845 0.959 . S
C860 H846 0.961 . S
C860 C859 1.502 . S
C861 H847 0.960 . S
C861 H848 0.961 . S
C861 H849 0.959 . S
C861 C859 1.561 . S
C862 C859 1.526 . S
C862 C863 1.396 . S
C862 C867 1.390 . S
C863 C857 1.465 . S
C863 C862 1.396 . S
C863 C864 1.399 . S
C864 H850 0.929 . S
C864 C863 1.399 . S
C864 C865 1.385 . S
C865 H851 0.931 . S
C865 C864 1.385 . S
C865 C866 1.389 . S
C866 C865 1.389 . S
C866 C867 1.387 . S
C867 H852 0.930 . S
C867 C862 1.390 . S
C867 C866 1.387 . S
H868 C880 0.930 . S
H869 C882 0.930 . S
H870 C883 0.930 . S
H871 C887 0.959 . S
H872 C887 0.959 . S
H873 C887 0.961 . S
H874 C888 0.960 . S
H875 C888 0.961 . S
H876 C888 0.959 . S
H877 C891 0.929 . S
H878 C892 0.931 . S
H879 C894 0.930 . S
C880 H868 0.930 . S
C880 C881 1.399 . S
C880 C885 1.399 . S
C881 C880 1.399 . S
C881 C882 1.376 . S
C882 H869 0.930 . S
C882 C881 1.376 . S
C882 C883 1.388 . S
C883 H870 0.930 . S
C883 C882 1.388 . S
C883 C884 1.390 . S
C884 C883 1.390 . S
C884 C885 1.394 . S
C884 C890 1.465 . S
C885 C880 1.399 . S
C885 C884 1.394 . S
C885 C886 1.516 . S
C886 C885 1.516 . S
C886 C887 1.502 . S
C886 C888 1.561 . S
C886 C889 1.526 . S
C887 H871 0.959 . S
C887 H872 0.959 . S
C887 H873 0.961 . S
C887 C886 1.502 . S
C888 H874 0.960 . S
C888 H875 0.961 . S
C888 H876 0.959 . S
C888 C886 1.561 . S
C889 C886 1.526 . S
C889 C890 1.396 . S
C889 C894 1.390 . S
C890 C884 1.465 . S
C890 C889 1.396 . S
C890 C891 1.399 . S
C891 H877 0.929 . S
C891 C890 1.399 . S
C891 C892 1.385 . S
C892 H878 0.931 . S
C892 C891 1.385 . S
C892 C893 1.389 . S
C893 C892 1.389 . S
C893 C894 1.387 . S
C894 H879 0.930 . S
C894 C889 1.390 . S
C894 C893 1.387 . S
H895 C907 0.930 . S
H896 C909 0.930 . S
H897 C910 0.930 . S
H898 C914 0.959 . S
H899 C914 0.959 . S
H900 C914 0.961 . S
H901 C915 0.960 . S
H902 C915 0.961 . S
H903 C915 0.959 . S
H904 C918 0.929 . S
H905 C919 0.931 . S
H906 C921 0.930 . S
C907 H895 0.930 . S
C907 C908 1.399 . S
C907 C912 1.399 . S
C908 C907 1.399 . S
C908 C909 1.376 . S
C909 H896 0.930 . S
C909 C908 1.376 . S
C909 C910 1.388 . S
C910 H897 0.930 . S
C910 C909 1.388 . S
C910 C911 1.390 . S
C911 C910 1.390 . S
C911 C912 1.394 . S
C911 C917 1.465 . S
C912 C907 1.399 . S
C912 C911 1.394 . S
C912 C913 1.516 . S
C913 C912 1.516 . S
C913 C914 1.502 . S
C913 C915 1.561 . S
C913 C916 1.526 . S
C914 H898 0.959 . S
C914 H899 0.959 . S
C914 H900 0.961 . S
C914 C913 1.502 . S
C915 H901 0.960 . S
C915 H902 0.961 . S
C915 H903 0.959 . S
C915 C913 1.561 . S
C916 C913 1.526 . S
C916 C917 1.396 . S
C916 C921 1.390 . S
C917 C911 1.465 . S
C917 C916 1.396 . S
C917 C918 1.399 . S
C918 H904 0.929 . S
C918 C917 1.399 . S
C918 C919 1.385 . S
C919 H905 0.931 . S
C919 C918 1.385 . S
C919 C920 1.389 . S
C920 C919 1.389 . S
C920 C921 1.387 . S
C921 H906 0.930 . S
C921 C916 1.390 . S
C921 C920 1.387 . S
H922 C934 0.930 . S
H923 C936 0.930 . S
H924 C937 0.930 . S
H925 C941 0.959 . S
H926 C941 0.959 . S
H927 C941 0.961 . S
H928 C942 0.960 . S
H929 C942 0.961 . S
H930 C942 0.959 . S
H931 C945 0.929 . S
H932 C946 0.931 . S
H933 C948 0.930 . S
C934 H922 0.930 . S
C934 C935 1.399 . S
C934 C939 1.399 . S
C935 C934 1.399 . S
C935 C936 1.376 . S
C936 H923 0.930 . S
C936 C935 1.376 . S
C936 C937 1.388 . S
C937 H924 0.930 . S
C937 C936 1.388 . S
C937 C938 1.390 . S
C938 C937 1.390 . S
C938 C939 1.394 . S
C938 C944 1.465 . S
C939 C934 1.399 . S
C939 C938 1.394 . S
C939 C940 1.516 . S
C940 C939 1.516 . S
C940 C941 1.502 . S
C940 C942 1.561 . S
C940 C943 1.526 . S
C941 H925 0.959 . S
C941 H926 0.959 . S
C941 H927 0.961 . S
C941 C940 1.502 . S
C942 H928 0.960 . S
C942 H929 0.961 . S
C942 H930 0.959 . S
C942 C940 1.561 . S
C943 C940 1.526 . S
C943 C944 1.396 . S
C943 C948 1.390 . S
C944 C938 1.465 . S
C944 C943 1.396 . S
C944 C945 1.399 . S
C945 H931 0.929 . S
C945 C944 1.399 . S
C945 C946 1.385 . S
C946 H932 0.931 . S
C946 C945 1.385 . S
C946 C947 1.389 . S
C947 C946 1.389 . S
C947 C948 1.387 . S
C948 H933 0.930 . S
C948 C943 1.390 . S
C948 C947 1.387 . S
H949 C961 0.930 . S
H950 C963 0.930 . S
H951 C964 0.930 . S
H952 C968 0.959 . S
H953 C968 0.959 . S
H954 C968 0.961 . S
H955 C969 0.960 . S
H956 C969 0.961 . S
H957 C969 0.959 . S
H958 C972 0.929 . S
H959 C973 0.931 . S
H960 C975 0.930 . S
C961 H949 0.930 . S
C961 C962 1.399 . S
C961 C966 1.399 . S
C962 C961 1.399 . S
C962 C963 1.376 . S
C963 H950 0.930 . S
C963 C962 1.376 . S
C963 C964 1.388 . S
C964 H951 0.930 . S
C964 C963 1.388 . S
C964 C965 1.390 . S
C965 C964 1.390 . S
C965 C966 1.394 . S
C965 C971 1.465 . S
C966 C961 1.399 . S
C966 C965 1.394 . S
C966 C967 1.516 . S
C967 C966 1.516 . S
C967 C968 1.502 . S
C967 C969 1.561 . S
C967 C970 1.526 . S
C968 H952 0.959 . S
C968 H953 0.959 . S
C968 H954 0.961 . S
C968 C967 1.502 . S
C969 H955 0.960 . S
C969 H956 0.961 . S
C969 H957 0.959 . S
C969 C967 1.561 . S
C970 C967 1.526 . S
C970 C971 1.396 . S
C970 C975 1.390 . S
C971 C965 1.465 . S
C971 C970 1.396 . S
C971 C972 1.399 . S
C972 H958 0.929 . S
C972 C971 1.399 . S
C972 C973 1.385 . S
C973 H959 0.931 . S
C973 C972 1.385 . S
C973 C974 1.389 . S
C974 C973 1.389 . S
C974 C975 1.387 . S
C975 H960 0.930 . S
C975 C970 1.390 . S
C975 C974 1.387 . S
H976 C988 0.930 . S
H977 C990 0.930 . S
H978 C991 0.930 1_556 S
H979 C995 0.959 . S
H980 C995 0.959 . S
H981 C995 0.961 1_554 S
H982 C996 0.960 . S
H983 C996 0.961 . S
H984 C996 0.959 . S
H985 C999 0.929 . S
H986 C1000 0.931 . S
H987 C1002 0.930 . S
C988 H976 0.930 . S
C988 C989 1.399 . S
C988 C993 1.399 . S
C989 C988 1.399 . S
C989 C990 1.376 . S
C990 H977 0.930 . S
C990 C989 1.376 . S
C990 C991 1.388 . S
C991 H978 0.930 1_554 S
C991 C990 1.388 . S
C991 C992 1.374 1_554 S
C992 C991 1.374 1_556 S
C992 C993 1.367 1_556 S
C992 C998 1.509 . S
C993 C988 1.399 . S
C993 C992 1.367 1_554 S
C993 C994 1.522 . S
C994 C993 1.522 . S
C994 C995 1.500 1_544 S
C994 C996 1.568 . S
C994 C997 1.515 1_554 S
C995 H979 0.959 . S
C995 H980 0.959 . S
C995 H981 0.961 1_556 S
C995 C994 1.500 1_566 S
C996 H982 0.960 . S
C996 H983 0.961 . S
C996 H984 0.959 . S
C996 C994 1.568 . S
C997 C994 1.515 1_556 S
C997 C998 1.396 . S
C997 C1002 1.390 . S
C998 C992 1.509 . S
C998 C997 1.396 . S
C998 C999 1.399 . S
C999 H985 0.929 . S
C999 C998 1.399 . S
C999 C1000 1.385 . S
C1000 H986 0.931 . S
C1000 C999 1.385 . S
C1000 C1001 1.389 . S
C1001 C1000 1.389 . S
C1001 C1002 1.387 . S
C1002 H987 0.930 . S
C1002 C997 1.390 . S
C1002 C1001 1.387 . S
H1003 C1015 0.930 . S
H1004 C1017 0.930 . S
H1005 C1018 0.930 . S
H1006 C1022 0.959 . S
H1007 C1022 0.959 . S
H1008 C1022 0.944 1_556 S
H1009 C1023 0.960 . S
H1010 C1023 0.933 1_554 S
H1011 C1023 0.959 . S
H1012 C1026 0.929 1_556 S
H1013 C1027 0.931 . S
H1014 C1029 0.930 . S
C1015 H1003 0.930 . S
C1015 C1016 1.399 . S
C1015 C1020 1.399 . S
C1016 C1015 1.399 . S
C1016 C1017 1.376 . S
C1017 H1004 0.930 . S
C1017 C1016 1.376 . S
C1017 C1018 1.388 . S
C1018 H1005 0.930 . S
C1018 C1017 1.388 . S
C1018 C1019 1.390 . S
C1019 C1018 1.390 . S
C1019 C1020 1.394 . S
C1019 C1025 1.465 . S
C1020 C1015 1.399 . S
C1020 C1019 1.394 . S
C1020 C1021 1.516 . S
C1021 C1020 1.516 . S
C1021 C1022 1.502 1_556 S
C1021 C1023 1.561 . S
C1021 C1024 1.526 1_556 S
C1022 H1006 0.959 . S
C1022 H1007 0.959 . S
C1022 H1008 0.944 1_554 S
C1022 C1021 1.502 1_554 S
C1023 H1009 0.960 . S
C1023 H1010 0.933 1_556 S
C1023 H1011 0.959 . S
C1023 C1021 1.561 . S
C1024 C1021 1.526 1_554 S
C1024 C1025 1.396 1_554 S
C1024 C1029 1.390 . S
C1025 C1019 1.465 . S
C1025 C1024 1.396 1_556 S
C1025 C1026 1.399 1_556 S
C1026 H1012 0.929 1_554 S
C1026 C1025 1.399 1_554 S
C1026 C1027 1.385 . S
C1027 H1013 0.931 . S
C1027 C1026 1.385 . S
C1027 C1028 1.389 . S
C1028 C1027 1.389 . S
C1028 C1029 1.387 . S
C1029 H1014 0.930 . S
C1029 C1024 1.390 . S
C1029 C1028 1.387 . S
H1030 C1042 0.930 . S
H1031 C1044 0.930 . S
H1032 C1045 0.930 . S
H1033 C1049 0.959 1_565 S
H1034 C1049 0.959 . S
H1035 C1049 0.961 . S
H1036 C1050 0.960 . S
H1037 C1050 0.961 . S
H1038 C1050 0.959 1_565 S
H1039 C1053 0.929 . S
H1040 C1054 0.931 . S
H1041 C1056 0.930 . S
C1042 H1030 0.930 . S
C1042 C1043 1.399 . S
C1042 C1047 1.399 . S
C1043 C1042 1.399 . S
C1043 C1044 1.376 . S
C1044 H1031 0.930 . S
C1044 C1043 1.376 . S
C1044 C1045 1.388 . S
C1045 H1032 0.930 . S
C1045 C1044 1.388 . S
C1045 C1046 1.390 . S
C1046 C1045 1.390 . S
C1046 C1047 1.394 . S
C1046 C1052 1.465 . S
C1047 C1042 1.399 . S
C1047 C1046 1.394 . S
C1047 C1048 1.516 . S
C1048 C1047 1.516 . S
C1048 C1049 1.502 1_565 S
C1048 C1050 1.561 1_565 S
C1048 C1051 1.526 . S
C1049 H1033 0.959 1_545 S
C1049 H1034 0.959 . S
C1049 H1035 0.961 . S
C1049 C1048 1.502 1_545 S
C1050 H1036 0.960 . S
C1050 H1037 0.961 . S
C1050 H1038 0.959 1_545 S
C1050 C1048 1.561 1_545 S
C1051 C1048 1.526 . S
C1051 C1052 1.396 . S
C1051 C1056 1.390 . S
C1052 C1046 1.465 . S
C1052 C1051 1.396 . S
C1052 C1053 1.399 . S
C1053 H1039 0.929 . S
C1053 C1052 1.399 . S
C1053 C1054 1.385 . S
C1054 H1040 0.931 . S
C1054 C1053 1.385 . S
C1054 C1055 1.389 . S
C1055 C1054 1.389 . S
C1055 C1056 1.387 . S
C1056 H1041 0.930 . S
C1056 C1051 1.390 . S
C1056 C1055 1.387 . S
H1057 C1069 0.930 . S
H1058 C1071 0.930 . S
H1059 C1072 0.930 . S
H1060 C1076 0.959 . S
H1061 C1076 0.959 . S
H1062 C1076 0.961 . S
H1063 C1077 0.960 . S
H1064 C1077 0.961 . S
H1065 C1077 0.959 . S
H1066 C1080 0.929 . S
H1067 C1081 0.931 . S
H1068 C1083 0.930 . S
C1069 H1057 0.930 . S
C1069 C1070 1.399 . S
C1069 C1074 1.399 . S
C1070 C1069 1.399 . S
C1070 C1071 1.376 . S
C1071 H1058 0.930 . S
C1071 C1070 1.376 . S
C1071 C1072 1.388 . S
C1072 H1059 0.930 . S
C1072 C1071 1.388 . S
C1072 C1073 1.390 . S
C1073 C1072 1.390 . S
C1073 C1074 1.394 . S
C1073 C1079 1.465 . S
C1074 C1069 1.399 . S
C1074 C1073 1.394 . S
C1074 C1075 1.516 . S
C1075 C1074 1.516 . S
C1075 C1076 1.502 . S
C1075 C1077 1.561 . S
C1075 C1078 1.526 . S
C1076 H1060 0.959 . S
C1076 H1061 0.959 . S
C1076 H1062 0.961 . S
C1076 C1075 1.502 . S
C1077 H1063 0.960 . S
C1077 H1064 0.961 . S
C1077 H1065 0.959 . S
C1077 C1075 1.561 . S
C1078 C1075 1.526 . S
C1078 C1079 1.396 . S
C1078 C1083 1.390 . S
C1079 C1073 1.465 . S
C1079 C1078 1.396 . S
C1079 C1080 1.399 . S
C1080 H1066 0.929 . S
C1080 C1079 1.399 . S
C1080 C1081 1.385 . S
C1081 H1067 0.931 . S
C1081 C1080 1.385 . S
C1081 C1082 1.389 . S
C1082 C1081 1.389 . S
C1082 C1083 1.387 . S
C1083 H1068 0.930 . S
C1083 C1078 1.390 . S
C1083 C1082 1.387 . S
H1084 C1096 0.930 . S
H1085 C1098 0.930 . S
H1086 C1099 0.930 . S
H1087 C1103 0.959 . S
H1088 C1103 0.959 1_545 S
H1089 C1103 0.961 . S
H1090 C1104 0.960 1_556 S
H1091 C1104 0.961 . S
H1092 C1104 0.959 . S
H1093 C1107 0.929 . S
H1094 C1108 0.931 . S
H1095 C1110 0.930 . S
C1096 H1084 0.930 . S
C1096 C1097 1.399 . S
C1096 C1101 1.399 . S
C1097 C1096 1.399 . S
C1097 C1098 1.376 . S
C1098 H1085 0.930 . S
C1098 C1097 1.376 . S
C1098 C1099 1.388 . S
C1099 H1086 0.930 . S
C1099 C1098 1.388 . S
C1099 C1100 1.390 . S
C1100 C1099 1.390 . S
C1100 C1101 1.394 . S
C1100 C1106 1.465 1_556 S
C1101 C1096 1.399 . S
C1101 C1100 1.394 . S
C1101 C1102 1.517 1_556 S
C1102 C1101 1.517 1_554 S
C1102 C1103 1.502 1_554 S
C1102 C1104 1.561 1_565 S
C1102 C1105 1.525 . S
C1103 H1087 0.959 . S
C1103 H1088 0.959 1_565 S
C1103 H1089 0.961 . S
C1103 C1102 1.502 1_556 S
C1104 H1090 0.960 1_554 S
C1104 H1091 0.961 . S
C1104 H1092 0.959 . S
C1104 C1102 1.561 1_545 S
C1105 C1102 1.525 . S
C1105 C1106 1.396 . S
C1105 C1110 1.390 . S
C1106 C1100 1.465 1_554 S
C1106 C1105 1.396 . S
C1106 C1107 1.399 . S
C1107 H1093 0.929 . S
C1107 C1106 1.399 . S
C1107 C1108 1.385 . S
C1108 H1094 0.931 . S
C1108 C1107 1.385 . S
C1108 C1109 1.389 . S
C1109 C1108 1.389 . S
C1109 C1110 1.387 . S
C1110 H1095 0.930 . S
C1110 C1105 1.390 . S
C1110 C1109 1.387 . S
H1111 C1123 0.930 . S
H1112 C1125 0.930 . S
H1113 C1126 0.930 . S
H1114 C1130 0.959 . S
H1115 C1130 0.959 . S
H1116 C1130 0.961 . S
H1117 C1131 0.960 . S
H1118 C1131 0.961 1_556 S
H1119 C1131 0.959 1_556 S
H1120 C1134 0.929 . S
H1121 C1135 0.931 . S
H1122 C1137 0.930 . S
C1123 H1111 0.930 . S
C1123 C1124 1.399 . S
C1123 C1128 1.399 . S
C1124 C1123 1.399 . S
C1124 C1125 1.376 . S
C1125 H1112 0.930 . S
C1125 C1124 1.376 . S
C1125 C1126 1.388 . S
C1126 H1113 0.930 . S
C1126 C1125 1.388 . S
C1126 C1127 1.390 . S
C1127 C1126 1.390 . S
C1127 C1128 1.394 . S
C1127 C1133 1.465 1_554 S
C1128 C1123 1.399 . S
C1128 C1127 1.394 . S
C1128 C1129 1.516 . S
C1129 C1128 1.516 . S
C1129 C1130 1.502 . S
C1129 C1131 1.561 . S
C1129 C1132 1.526 1_554 S
C1130 H1114 0.959 . S
C1130 H1115 0.959 . S
C1130 H1116 0.961 . S
C1130 C1129 1.502 . S
C1131 H1117 0.960 . S
C1131 H1118 0.961 1_554 S
C1131 H1119 0.959 1_554 S
C1131 C1129 1.561 . S
C1132 C1129 1.526 1_556 S
C1132 C1133 1.396 . S
C1132 C1137 1.390 . S
C1133 C1127 1.465 1_556 S
C1133 C1132 1.396 . S
C1133 C1134 1.399 . S
C1134 H1120 0.929 . S
C1134 C1133 1.399 . S
C1134 C1135 1.385 . S
C1135 H1121 0.931 . S
C1135 C1134 1.385 . S
C1135 C1136 1.389 . S
C1136 C1135 1.389 . S
C1136 C1137 1.387 . S
C1137 H1122 0.930 . S
C1137 C1132 1.390 . S
C1137 C1136 1.387 . S
H1138 C1150 0.930 . S
H1139 C1152 0.930 . S
H1140 C1153 0.930 . S
H1141 C1157 0.959 1_545 S
H1142 C1157 0.959 . S
H1143 C1157 0.961 . S
H1144 C1158 0.964 . S
H1145 C1158 0.966 . S
H1146 C1158 0.954 1_545 S
H1147 C1161 0.929 . S
H1148 C1162 0.931 . S
H1149 C1164 0.930 . S
C1150 H1138 0.930 . S
C1150 C1151 1.399 . S
C1150 C1155 1.399 . S
C1151 C1150 1.399 . S
C1151 C1152 1.376 . S
C1152 H1139 0.930 . S
C1152 C1151 1.376 . S
C1152 C1153 1.388 . S
C1153 H1140 0.930 . S
C1153 C1152 1.388 . S
C1153 C1154 1.390 . S
C1154 C1153 1.390 . S
C1154 C1155 1.394 . S
C1154 C1160 1.465 . S
C1155 C1150 1.399 . S
C1155 C1154 1.394 . S
C1155 C1156 1.516 . S
C1156 C1155 1.516 . S
C1156 C1157 1.502 1_545 S
C1156 C1158 1.557 1_545 S
C1156 C1159 1.526 . S
C1157 H1141 0.959 1_565 S
C1157 H1142 0.959 . S
C1157 H1143 0.961 . S
C1157 C1156 1.502 1_565 S
C1158 H1144 0.964 . S
C1158 H1145 0.966 . S
C1158 H1146 0.954 1_565 S
C1158 C1156 1.557 1_565 S
C1159 C1156 1.526 . S
C1159 C1160 1.396 . S
C1159 C1164 1.390 . S
C1160 C1154 1.465 . S
C1160 C1159 1.396 . S
C1160 C1161 1.399 . S
C1161 H1147 0.929 . S
C1161 C1160 1.399 . S
C1161 C1162 1.385 . S
C1162 H1148 0.931 . S
C1162 C1161 1.385 . S
C1162 C1163 1.389 . S
C1163 C1162 1.389 . S
C1163 C1164 1.387 . S
C1164 H1149 0.930 . S
C1164 C1159 1.390 . S
C1164 C1163 1.387 . S
H1165 C1177 0.930 . S
H1166 C1179 0.930 . S
H1167 C1180 0.930 . S
H1168 C1184 0.959 . S
H1169 C1184 0.959 . S
H1170 C1184 0.961 . S
H1171 C1185 0.960 . S
H1172 C1185 0.961 . S
H1173 C1185 0.959 . S
H1174 C1188 0.929 . S
H1175 C1189 0.931 . S
H1176 C1191 0.930 . S
C1177 H1165 0.930 . S
C1177 C1178 1.399 . S
C1177 C1182 1.399 . S
C1178 C1177 1.399 . S
C1178 C1179 1.376 . S
C1179 H1166 0.930 . S
C1179 C1178 1.376 . S
C1179 C1180 1.388 . S
C1180 H1167 0.930 . S
C1180 C1179 1.388 . S
C1180 C1181 1.390 . S
C1181 C1180 1.390 . S
C1181 C1182 1.394 . S
C1181 C1187 1.465 . S
C1182 C1177 1.399 . S
C1182 C1181 1.394 . S
C1182 C1183 1.516 . S
C1183 C1182 1.516 . S
C1183 C1184 1.502 . S
C1183 C1185 1.561 . S
C1183 C1186 1.526 . S
C1184 H1168 0.959 . S
C1184 H1169 0.959 . S
C1184 H1170 0.961 . S
C1184 C1183 1.502 . S
C1185 H1171 0.960 . S
C1185 H1172 0.961 . S
C1185 H1173 0.959 . S
C1185 C1183 1.561 . S
C1186 C1183 1.526 . S
C1186 C1187 1.396 . S
C1186 C1191 1.390 . S
C1187 C1181 1.465 . S
C1187 C1186 1.396 . S
C1187 C1188 1.399 . S
C1188 H1174 0.929 . S
C1188 C1187 1.399 . S
C1188 C1189 1.385 . S
C1189 H1175 0.931 . S
C1189 C1188 1.385 . S
C1189 C1190 1.389 . S
C1190 C1189 1.389 . S
C1190 C1191 1.387 . S
C1191 H1176 0.930 . S
C1191 C1186 1.390 . S
C1191 C1190 1.387 . S
H1192 C1204 0.930 . S
H1193 C1206 0.930 . S
H1194 C1207 0.930 . S
H1195 C1211 0.959 . S
H1196 C1211 0.959 . S
H1197 C1211 0.961 . S
H1198 C1212 0.960 . S
H1199 C1212 0.961 . S
H1200 C1212 0.959 . S
H1201 C1215 0.929 . S
H1202 C1216 0.931 . S
H1203 C1218 0.930 . S
C1204 H1192 0.930 . S
C1204 C1205 1.399 . S
C1204 C1209 1.399 . S
C1205 C1204 1.399 . S
C1205 C1206 1.376 . S
C1206 H1193 0.930 . S
C1206 C1205 1.376 . S
C1206 C1207 1.388 1_545 S
C1207 H1194 0.930 . S
C1207 C1206 1.388 1_565 S
C1207 C1208 1.390 1_565 S
C1208 C1207 1.390 1_545 S
C1208 C1209 1.394 . S
C1208 C1214 1.465 . S
C1209 C1204 1.399 . S
C1209 C1208 1.394 . S
C1209 C1210 1.516 . S
C1210 C1209 1.516 . S
C1210 C1211 1.502 . S
C1210 C1212 1.561 . S
C1210 C1213 1.526 . S
C1211 H1195 0.959 . S
C1211 H1196 0.959 . S
C1211 H1197 0.961 . S
C1211 C1210 1.502 . S
C1212 H1198 0.960 . S
C1212 H1199 0.961 . S
C1212 H1200 0.959 . S
C1212 C1210 1.561 . S
C1213 C1210 1.526 . S
C1213 C1214 1.396 . S
C1213 C1218 1.390 . S
C1214 C1208 1.465 . S
C1214 C1213 1.396 . S
C1214 C1215 1.399 1_545 S
C1215 H1201 0.929 . S
C1215 C1214 1.399 1_565 S
C1215 C1216 1.385 . S
C1216 H1202 0.931 . S
C1216 C1215 1.385 . S
C1216 C1217 1.389 . S
C1217 C1216 1.389 . S
C1217 C1218 1.387 1_565 S
C1218 H1203 0.930 . S
C1218 C1213 1.390 . S
C1218 C1217 1.387 1_545 S
H1219 C1231 0.930 . S
H1220 C1233 0.930 . S
H1221 C1234 0.930 . S
H1222 C1238 0.959 . S
H1223 C1238 0.959 . S
H1224 C1238 0.961 . S
H1225 C1239 0.960 . S
H1226 C1239 0.961 . S
H1227 C1239 0.959 . S
H1228 C1242 0.929 . S
H1229 C1243 0.931 . S
H1230 C1245 0.930 . S
C1231 H1219 0.930 . S
C1231 C1232 1.399 . S
C1231 C1236 1.399 . S
C1232 C1231 1.399 . S
C1232 C1233 1.376 . S
C1233 H1220 0.930 . S
C1233 C1232 1.376 . S
C1233 C1234 1.388 . S
C1234 H1221 0.930 . S
C1234 C1233 1.388 . S
C1234 C1235 1.390 . S
C1235 C1234 1.390 . S
C1235 C1236 1.394 . S
C1235 C1241 1.465 . S
C1236 C1231 1.399 . S
C1236 C1235 1.394 . S
C1236 C1237 1.516 . S
C1237 C1236 1.516 . S
C1237 C1238 1.502 . S
C1237 C1239 1.561 . S
C1237 C1240 1.526 . S
C1238 H1222 0.959 . S
C1238 H1223 0.959 . S
C1238 H1224 0.961 . S
C1238 C1237 1.502 . S
C1239 H1225 0.960 . S
C1239 H1226 0.961 . S
C1239 H1227 0.959 . S
C1239 C1237 1.561 . S
C1240 C1237 1.526 . S
C1240 C1241 1.396 . S
C1240 C1245 1.390 . S
C1241 C1235 1.465 . S
C1241 C1240 1.396 . S
C1241 C1242 1.399 . S
C1242 H1228 0.929 . S
C1242 C1241 1.399 . S
C1242 C1243 1.385 . S
C1243 H1229 0.931 . S
C1243 C1242 1.385 . S
C1243 C1244 1.389 . S
C1244 C1243 1.389 . S
C1244 C1245 1.387 . S
C1245 H1230 0.930 . S
C1245 C1240 1.390 . S
C1245 C1244 1.387 . S
H1246 C1258 0.930 . S
H1247 C1260 0.930 . S
H1248 C1261 0.930 . S
H1249 C1265 0.959 . S
H1250 C1265 0.959 . S
H1251 C1265 0.961 . S
H1252 C1266 0.960 . S
H1253 C1266 0.961 . S
H1254 C1266 0.959 . S
H1255 C1269 0.929 . S
H1256 C1270 0.931 . S
H1257 C1272 0.930 . S
C1258 H1246 0.930 . S
C1258 C1259 1.399 1_545 S
C1258 C1263 1.399 . S
C1259 C1258 1.399 1_565 S
C1259 C1260 1.376 . S
C1260 H1247 0.930 . S
C1260 C1259 1.376 . S
C1260 C1261 1.388 . S
C1261 H1248 0.930 . S
C1261 C1260 1.388 . S
C1261 C1262 1.390 . S
C1262 C1261 1.390 . S
C1262 C1263 1.394 1_565 S
C1262 C1268 1.465 . S
C1263 C1258 1.399 . S
C1263 C1262 1.394 1_545 S
C1263 C1264 1.516 . S
C1264 C1263 1.516 . S
C1264 C1265 1.502 . S
C1264 C1266 1.561 . S
C1264 C1267 1.526 . S
C1265 H1249 0.959 . S
C1265 H1250 0.959 . S
C1265 H1251 0.961 . S
C1265 C1264 1.502 . S
C1266 H1252 0.960 . S
C1266 H1253 0.961 . S
C1266 H1254 0.959 . S
C1266 C1264 1.561 . S
C1267 C1264 1.526 . S
C1267 C1268 1.396 1_545 S
C1267 C1272 1.390 . S
C1268 C1262 1.465 . S
C1268 C1267 1.396 1_565 S
C1268 C1269 1.399 . S
C1269 H1255 0.929 . S
C1269 C1268 1.399 . S
C1269 C1270 1.385 . S
C1270 H1256 0.931 . S
C1270 C1269 1.385 . S
C1270 C1271 1.389 1_565 S
C1271 C1270 1.389 1_545 S
C1271 C1272 1.387 . S
C1272 H1257 0.930 . S
C1272 C1267 1.390 . S
C1272 C1271 1.387 . S
H1273 C1285 0.930 . S
H1274 C1287 0.930 . S
H1275 C1288 0.930 . S
H1276 C1292 0.959 . S
H1277 C1292 0.959 . S
H1278 C1292 0.961 . S
H1279 C1293 0.960 . S
H1280 C1293 0.961 . S
H1281 C1293 0.959 . S
H1282 C1296 0.929 . S
H1283 C1297 0.931 . S
H1284 C1299 0.930 . S
C1285 H1273 0.930 . S
C1285 C1286 1.399 . S
C1285 C1290 1.399 . S
C1286 C1285 1.399 . S
C1286 C1287 1.376 . S
C1287 H1274 0.930 . S
C1287 C1286 1.376 . S
C1287 C1288 1.388 . S
C1288 H1275 0.930 . S
C1288 C1287 1.388 . S
C1288 C1289 1.390 . S
C1289 C1288 1.390 . S
C1289 C1290 1.394 . S
C1289 C1295 1.465 . S
C1290 C1285 1.399 . S
C1290 C1289 1.394 . S
C1290 C1291 1.516 . S
C1291 C1290 1.516 . S
C1291 C1292 1.502 . S
C1291 C1293 1.561 . S
C1291 C1294 1.526 . S
C1292 H1276 0.959 . S
C1292 H1277 0.959 . S
C1292 H1278 0.961 . S
C1292 C1291 1.502 . S
C1293 H1279 0.960 . S
C1293 H1280 0.961 . S
C1293 H1281 0.959 . S
C1293 C1291 1.561 . S
C1294 C1291 1.526 . S
C1294 C1295 1.396 . S
C1294 C1299 1.390 . S
C1295 C1289 1.465 . S
C1295 C1294 1.396 . S
C1295 C1296 1.399 . S
C1296 H1282 0.929 . S
C1296 C1295 1.399 . S
C1296 C1297 1.385 . S
C1297 H1283 0.931 . S
C1297 C1296 1.385 . S
C1297 C1298 1.389 . S
C1298 C1297 1.389 . S
C1298 C1299 1.387 . S
C1299 H1284 0.930 . S
C1299 C1294 1.390 . S
C1299 C1298 1.387 . S
H1300 C1312 0.930 . S
H1301 C1314 0.930 . S
H1302 C1315 0.930 . S
H1303 C1319 0.959 . S
H1304 C1319 0.959 . S
H1305 C1319 0.961 . S
H1306 C1320 0.960 . S
H1307 C1320 0.961 . S
H1308 C1320 0.959 . S
H1309 C1323 0.929 . S
H1310 C1324 0.931 . S
H1311 C1326 0.930 . S
C1312 H1300 0.930 . S
C1312 C1313 1.399 . S
C1312 C1317 1.399 . S
C1313 C1312 1.399 . S
C1313 C1314 1.376 . S
C1314 H1301 0.930 . S
C1314 C1313 1.376 . S
C1314 C1315 1.388 . S
C1315 H1302 0.930 . S
C1315 C1314 1.388 . S
C1315 C1316 1.390 . S
C1316 C1315 1.390 . S
C1316 C1317 1.394 . S
C1316 C1322 1.465 . S
C1317 C1312 1.399 . S
C1317 C1316 1.394 . S
C1317 C1318 1.516 . S
C1318 C1317 1.516 . S
C1318 C1319 1.502 . S
C1318 C1320 1.561 . S
C1318 C1321 1.526 . S
C1319 H1303 0.959 . S
C1319 H1304 0.959 . S
C1319 H1305 0.961 . S
C1319 C1318 1.502 . S
C1320 H1306 0.960 . S
C1320 H1307 0.961 . S
C1320 H1308 0.959 . S
C1320 C1318 1.561 . S
C1321 C1318 1.526 . S
C1321 C1322 1.396 . S
C1321 C1326 1.390 . S
C1322 C1316 1.465 . S
C1322 C1321 1.396 . S
C1322 C1323 1.399 . S
C1323 H1309 0.929 . S
C1323 C1322 1.399 . S
C1323 C1324 1.385 . S
C1324 H1310 0.931 . S
C1324 C1323 1.385 . S
C1324 C1325 1.389 . S
C1325 C1324 1.389 . S
C1325 C1326 1.387 . S
C1326 H1311 0.930 . S
C1326 C1321 1.390 . S
C1326 C1325 1.387 . S
H1327 C1339 0.930 . S
H1328 C1341 0.930 . S
H1329 C1342 0.930 . S
H1330 C1346 0.959 . S
H1331 C1346 0.959 . S
H1332 C1346 0.961 . S
H1333 C1347 0.960 . S
H1334 C1347 0.961 . S
H1335 C1347 0.959 . S
H1336 C1350 0.929 . S
H1337 C1351 0.931 . S
H1338 C1353 0.930 . S
C1339 H1327 0.930 . S
C1339 C1340 1.399 1_565 S
C1339 C1344 1.399 . S
C1340 C1339 1.399 1_545 S
C1340 C1341 1.376 . S
C1341 H1328 0.930 . S
C1341 C1340 1.376 . S
C1341 C1342 1.388 . S
C1342 H1329 0.930 . S
C1342 C1341 1.388 . S
C1342 C1343 1.390 1_545 S
C1343 C1342 1.390 1_565 S
C1343 C1344 1.394 . S
C1343 C1349 1.465 . S
C1344 C1339 1.399 . S
C1344 C1343 1.394 . S
C1344 C1345 1.516 . S
C1345 C1344 1.516 . S
C1345 C1346 1.502 . S
C1345 C1347 1.561 . S
C1345 C1348 1.526 . S
C1346 H1330 0.959 . S
C1346 H1331 0.959 . S
C1346 H1332 0.961 . S
C1346 C1345 1.502 . S
C1347 H1333 0.960 . S
C1347 H1334 0.961 . S
C1347 H1335 0.959 . S
C1347 C1345 1.561 . S
C1348 C1345 1.526 . S
C1348 C1349 1.396 . S
C1348 C1353 1.390 . S
C1349 C1343 1.465 . S
C1349 C1348 1.396 . S
C1349 C1350 1.399 1_565 S
C1350 H1336 0.929 . S
C1350 C1349 1.399 1_545 S
C1350 C1351 1.385 1_545 S
C1351 H1337 0.931 . S
C1351 C1350 1.385 1_565 S
C1351 C1352 1.389 . S
C1352 C1351 1.389 . S
C1352 C1353 1.387 . S
C1353 H1338 0.930 . S
C1353 C1348 1.390 . S
C1353 C1352 1.387 . S
H1354 C1366 0.930 . S
H1355 C1368 0.930 . S
H1356 C1369 0.930 . S
H1357 C1373 0.959 . S
H1358 C1373 0.959 . S
H1359 C1373 0.961 . S
H1360 C1374 0.960 . S
H1361 C1374 0.961 . S
H1362 C1374 0.959 . S
H1363 C1377 0.929 . S
H1364 C1378 0.931 . S
H1365 C1380 0.930 . S
C1366 H1354 0.930 . S
C1366 C1367 1.399 . S
C1366 C1371 1.399 . S
C1367 C1366 1.399 . S
C1367 C1368 1.376 . S
C1368 H1355 0.930 . S
C1368 C1367 1.376 . S
C1368 C1369 1.388 . S
C1369 H1356 0.930 . S
C1369 C1368 1.388 . S
C1369 C1370 1.390 . S
C1370 C1369 1.390 . S
C1370 C1371 1.394 . S
C1370 C1376 1.465 . S
C1371 C1366 1.399 . S
C1371 C1370 1.394 . S
C1371 C1372 1.516 . S
C1372 C1371 1.516 . S
C1372 C1373 1.502 . S
C1372 C1374 1.561 . S
C1372 C1375 1.526 . S
C1373 H1357 0.959 . S
C1373 H1358 0.959 . S
C1373 H1359 0.961 . S
C1373 C1372 1.502 . S
C1374 H1360 0.960 . S
C1374 H1361 0.961 . S
C1374 H1362 0.959 . S
C1374 C1372 1.561 . S
C1375 C1372 1.526 . S
C1375 C1376 1.396 . S
C1375 C1380 1.390 . S
C1376 C1370 1.465 . S
C1376 C1375 1.396 . S
C1376 C1377 1.399 . S
C1377 H1363 0.929 . S
C1377 C1376 1.399 . S
C1377 C1378 1.385 . S
C1378 H1364 0.931 . S
C1378 C1377 1.385 . S
C1378 C1379 1.389 . S
C1379 C1378 1.389 . S
C1379 C1380 1.387 . S
C1380 H1365 0.930 . S
C1380 C1375 1.390 . S
C1380 C1379 1.387 . S
H1381 C1393 0.930 . S
H1382 C1395 0.930 . S
H1383 C1396 0.930 . S
H1384 C1400 0.959 . S
H1385 C1400 0.959 . S
H1386 C1400 0.961 . S
H1387 C1401 0.960 . S
H1388 C1401 0.961 . S
H1389 C1401 0.959 . S
H1390 C1404 0.929 . S
H1391 C1405 0.931 . S
H1392 C1407 0.930 1_545 S
C1393 H1381 0.930 . S
C1393 C1394 1.399 . S
C1393 C1398 1.399 . S
C1394 C1393 1.399 . S
C1394 C1395 1.376 1_545 S
C1395 H1382 0.930 . S
C1395 C1394 1.376 1_565 S
C1395 C1396 1.388 . S
C1396 H1383 0.930 . S
C1396 C1395 1.388 . S
C1396 C1397 1.390 . S
C1397 C1396 1.390 . S
C1397 C1398 1.394 1_565 S
C1397 C1403 1.465 . S
C1398 C1393 1.399 . S
C1398 C1397 1.394 1_545 S
C1398 C1399 1.516 . S
C1399 C1398 1.516 . S
C1399 C1400 1.502 . S
C1399 C1401 1.561 . S
C1399 C1402 1.532 . S
C1400 H1384 0.959 . S
C1400 H1385 0.959 . S
C1400 H1386 0.961 . S
C1400 C1399 1.502 . S
C1401 H1387 0.960 . S
C1401 H1388 0.961 . S
C1401 H1389 0.959 . S
C1401 C1399 1.561 . S
C1402 C1399 1.532 . S
C1402 C1403 1.391 1_545 S
C1402 C1407 1.389 1_545 S
C1403 C1397 1.465 . S
C1403 C1402 1.391 1_565 S
C1403 C1404 1.399 . S
C1404 H1390 0.929 . S
C1404 C1403 1.399 . S
C1404 C1405 1.385 . S
C1405 H1391 0.931 . S
C1405 C1404 1.385 . S
C1405 C1406 1.389 . S
C1406 C1405 1.389 . S
C1406 C1407 1.387 . S
C1407 H1392 0.930 1_565 S
C1407 C1402 1.389 1_565 S
C1407 C1406 1.387 . S
H1408 C1420 0.930 . S
H1409 C1422 0.930 . S
H1410 C1423 0.930 . S
H1411 C1427 0.959 . S
H1412 C1427 0.959 . S
H1413 C1427 0.961 . S
H1414 C1428 0.960 . S
H1415 C1428 0.961 . S
H1416 C1428 0.959 . S
H1417 C1431 0.929 . S
H1418 C1432 0.931 . S
H1419 C1434 0.930 . S
C1420 H1408 0.930 . S
C1420 C1421 1.399 . S
C1420 C1425 1.399 . S
C1421 C1420 1.399 . S
C1421 C1422 1.376 . S
C1422 H1409 0.930 . S
C1422 C1421 1.376 . S
C1422 C1423 1.388 . S
C1423 H1410 0.930 . S
C1423 C1422 1.388 . S
C1423 C1424 1.390 . S
C1424 C1423 1.390 . S
C1424 C1425 1.394 . S
C1424 C1430 1.465 . S
C1425 C1420 1.399 . S
C1425 C1424 1.394 . S
C1425 C1426 1.516 . S
C1426 C1425 1.516 . S
C1426 C1427 1.502 . S
C1426 C1428 1.561 . S
C1426 C1429 1.526 . S
C1427 H1411 0.959 . S
C1427 H1412 0.959 . S
C1427 H1413 0.961 . S
C1427 C1426 1.502 . S
C1428 H1414 0.960 . S
C1428 H1415 0.961 . S
C1428 H1416 0.959 . S
C1428 C1426 1.561 . S
C1429 C1426 1.526 . S
C1429 C1430 1.396 . S
C1429 C1434 1.390 . S
C1430 C1424 1.465 . S
C1430 C1429 1.396 . S
C1430 C1431 1.399 . S
C1431 H1417 0.929 . S
C1431 C1430 1.399 . S
C1431 C1432 1.385 . S
C1432 H1418 0.931 . S
C1432 C1431 1.385 . S
C1432 C1433 1.389 . S
C1433 C1432 1.389 . S
C1433 C1434 1.387 . S
C1434 H1419 0.930 . S
C1434 C1429 1.390 . S
C1434 C1433 1.387 . S
H1435 C1447 0.930 . S
H1436 C1449 0.930 . S
H1437 C1450 0.930 . S
H1438 C1454 0.959 . S
H1439 C1454 0.959 . S
H1440 C1454 0.961 . S
H1441 C1455 0.960 . S
H1442 C1455 0.961 . S
H1443 C1455 0.959 . S
H1444 C1458 0.929 . S
H1445 C1459 0.931 . S
H1446 C1461 0.930 . S
C1447 H1435 0.930 . S
C1447 C1448 1.399 . S
C1447 C1452 1.399 . S
C1448 C1447 1.399 . S
C1448 C1449 1.376 . S
C1449 H1436 0.930 . S
C1449 C1448 1.376 . S
C1449 C1450 1.388 . S
C1450 H1437 0.930 . S
C1450 C1449 1.388 . S
C1450 C1451 1.390 . S
C1451 C1450 1.390 . S
C1451 C1452 1.394 . S
C1451 C1457 1.465 . S
C1452 C1447 1.399 . S
C1452 C1451 1.394 . S
C1452 C1453 1.516 . S
C1453 C1452 1.516 . S
C1453 C1454 1.502 . S
C1453 C1455 1.561 . S
C1453 C1456 1.526 . S
C1454 H1438 0.959 . S
C1454 H1439 0.959 . S
C1454 H1440 0.961 . S
C1454 C1453 1.502 . S
C1455 H1441 0.960 . S
C1455 H1442 0.961 . S
C1455 H1443 0.959 . S
C1455 C1453 1.561 . S
C1456 C1453 1.526 . S
C1456 C1457 1.396 . S
C1456 C1461 1.390 . S
C1457 C1451 1.465 . S
C1457 C1456 1.396 . S
C1457 C1458 1.399 . S
C1458 H1444 0.929 . S
C1458 C1457 1.399 . S
C1458 C1459 1.385 . S
C1459 H1445 0.931 . S
C1459 C1458 1.385 . S
C1459 C1460 1.389 . S
C1460 C1459 1.389 . S
C1460 C1461 1.387 . S
C1461 H1446 0.930 . S
C1461 C1456 1.390 . S
C1461 C1460 1.387 . S
H1462 C1474 0.930 . S
H1463 C1476 0.930 . S
H1464 C1477 0.930 . S
H1465 C1481 0.959 . S
H1466 C1481 0.959 . S
H1467 C1481 0.961 . S
H1468 C1482 0.960 . S
H1469 C1482 0.961 . S
H1470 C1482 0.959 . S
H1471 C1485 0.929 . S
H1472 C1486 0.931 . S
H1473 C1488 0.930 . S
C1474 H1462 0.930 . S
C1474 C1475 1.399 . S
C1474 C1479 1.399 . S
C1475 C1474 1.399 . S
C1475 C1476 1.376 . S
C1476 H1463 0.930 . S
C1476 C1475 1.376 . S
C1476 C1477 1.388 . S
C1477 H1464 0.930 . S
C1477 C1476 1.388 . S
C1477 C1478 1.390 . S
C1478 C1477 1.390 . S
C1478 C1479 1.394 . S
C1478 C1484 1.465 . S
C1479 C1474 1.399 . S
C1479 C1478 1.394 . S
C1479 C1480 1.516 . S
C1480 C1479 1.516 . S
C1480 C1481 1.502 . S
C1480 C1482 1.561 . S
C1480 C1483 1.526 . S
C1481 H1465 0.959 . S
C1481 H1466 0.959 . S
C1481 H1467 0.961 . S
C1481 C1480 1.502 . S
C1482 H1468 0.960 . S
C1482 H1469 0.961 . S
C1482 H1470 0.959 . S
C1482 C1480 1.561 . S
C1483 C1480 1.526 . S
C1483 C1484 1.396 . S
C1483 C1488 1.390 . S
C1484 C1478 1.465 . S
C1484 C1483 1.396 . S
C1484 C1485 1.399 . S
C1485 H1471 0.929 . S
C1485 C1484 1.399 . S
C1485 C1486 1.385 . S
C1486 H1472 0.931 . S
C1486 C1485 1.385 . S
C1486 C1487 1.389 . S
C1487 C1486 1.389 . S
C1487 C1488 1.387 . S
C1488 H1473 0.930 . S
C1488 C1483 1.390 . S
C1488 C1487 1.387 . S
H1489 C1501 0.930 . S
H1490 C1503 0.930 . S
H1491 C1504 0.930 . S
H1492 C1508 0.959 . S
H1493 C1508 0.959 . S
H1494 C1508 0.961 . S
H1495 C1509 0.960 . S
H1496 C1509 0.961 . S
H1497 C1509 0.959 . S
H1498 C1512 0.929 . S
H1499 C1513 0.931 . S
H1500 C1515 0.930 . S
C1501 H1489 0.930 . S
C1501 C1502 1.399 . S
C1501 C1506 1.399 . S
C1502 C1501 1.399 . S
C1502 C1503 1.376 . S
C1503 H1490 0.930 . S
C1503 C1502 1.376 . S
C1503 C1504 1.388 . S
C1504 H1491 0.930 . S
C1504 C1503 1.388 . S
C1504 C1505 1.390 . S
C1505 C1504 1.390 . S
C1505 C1506 1.394 . S
C1505 C1511 1.465 . S
C1506 C1501 1.399 . S
C1506 C1505 1.394 . S
C1506 C1507 1.516 . S
C1507 C1506 1.516 . S
C1507 C1508 1.502 . S
C1507 C1509 1.561 . S
C1507 C1510 1.526 . S
C1508 H1492 0.959 . S
C1508 H1493 0.959 . S
C1508 H1494 0.961 . S
C1508 C1507 1.502 . S
C1509 H1495 0.960 . S
C1509 H1496 0.961 . S
C1509 H1497 0.959 . S
C1509 C1507 1.561 . S
C1510 C1507 1.526 . S
C1510 C1511 1.396 . S
C1510 C1515 1.390 . S
C1511 C1505 1.465 . S
C1511 C1510 1.396 . S
C1511 C1512 1.399 . S
C1512 H1498 0.929 . S
C1512 C1511 1.399 . S
C1512 C1513 1.385 . S
C1513 H1499 0.931 . S
C1513 C1512 1.385 . S
C1513 C1514 1.389 . S
C1514 C1513 1.389 . S
C1514 C1515 1.387 . S
C1515 H1500 0.930 . S
C1515 C1510 1.390 . S
C1515 C1514 1.387 . S
H1516 C1528 0.930 . S
H1517 C1530 0.930 . S
H1518 C1531 0.930 . S
H1519 C1535 0.959 . S
H1520 C1535 0.959 . S
H1521 C1535 0.961 . S
H1522 C1536 0.960 . S
H1523 C1536 0.961 1_455 S
H1524 C1536 0.959 . S
H1525 C1539 0.929 . S
H1526 C1540 0.931 . S
H1527 C1542 0.930 . S
C1528 H1516 0.930 . S
C1528 C1529 1.399 . S
C1528 C1533 1.399 . S
C1529 C1528 1.399 . S
C1529 C1530 1.376 . S
C1530 H1517 0.930 . S
C1530 C1529 1.376 . S
C1530 C1531 1.388 . S
C1531 H1518 0.930 . S
C1531 C1530 1.388 . S
C1531 C1532 1.390 . S
C1532 C1531 1.390 . S
C1532 C1533 1.394 . S
C1532 C1538 1.465 1_655 S
C1533 C1528 1.399 . S
C1533 C1532 1.394 . S
C1533 C1534 1.516 1_655 S
C1534 C1533 1.516 1_455 S
C1534 C1535 1.502 . S
C1534 C1536 1.561 1_455 S
C1534 C1537 1.526 . S
C1535 H1519 0.959 . S
C1535 H1520 0.959 . S
C1535 H1521 0.961 . S
C1535 C1534 1.502 . S
C1536 H1522 0.960 . S
C1536 H1523 0.961 1_655 S
C1536 H1524 0.959 . S
C1536 C1534 1.561 1_655 S
C1537 C1534 1.526 . S
C1537 C1538 1.396 . S
C1537 C1542 1.390 . S
C1538 C1532 1.465 1_455 S
C1538 C1537 1.396 . S
C1538 C1539 1.399 . S
C1539 H1525 0.929 . S
C1539 C1538 1.399 . S
C1539 C1540 1.385 . S
C1540 H1526 0.931 . S
C1540 C1539 1.385 . S
C1540 C1541 1.389 . S
C1541 C1540 1.389 . S
C1541 C1542 1.387 . S
C1542 H1527 0.930 . S
C1542 C1537 1.390 . S
C1542 C1541 1.387 . S
H1543 C1555 0.930 . S
H1544 C1557 0.930 . S
H1545 C1558 0.930 . S
H1546 C1562 0.959 . S
H1547 C1562 0.959 . S
H1548 C1562 0.961 . S
H1549 C1563 0.960 . S
H1550 C1563 0.961 . S
H1551 C1563 0.959 1_455 S
H1552 C1566 0.929 . S
H1553 C1567 0.931 . S
H1554 C1569 0.930 . S
C1555 H1543 0.930 . S
C1555 C1556 1.399 . S
C1555 C1560 1.399 . S
C1556 C1555 1.399 . S
C1556 C1557 1.376 . S
C1557 H1544 0.930 . S
C1557 C1556 1.376 . S
C1557 C1558 1.388 . S
C1558 H1545 0.930 . S
C1558 C1557 1.388 . S
C1558 C1559 1.390 . S
C1559 C1558 1.390 . S
C1559 C1560 1.394 . S
C1559 C1565 1.465 . S
C1560 C1555 1.399 . S
C1560 C1559 1.394 . S
C1560 C1561 1.516 1_455 S
C1561 C1560 1.516 1_655 S
C1561 C1562 1.502 . S
C1561 C1563 1.561 . S
C1561 C1564 1.526 . S
C1562 H1546 0.959 . S
C1562 H1547 0.959 . S
C1562 H1548 0.961 . S
C1562 C1561 1.502 . S
C1563 H1549 0.960 . S
C1563 H1550 0.961 . S
C1563 H1551 0.959 1_655 S
C1563 C1561 1.561 . S
C1564 C1561 1.526 . S
C1564 C1565 1.396 1_655 S
C1564 C1569 1.390 . S
C1565 C1559 1.465 . S
C1565 C1564 1.396 1_455 S
C1565 C1566 1.399 . S
C1566 H1552 0.929 . S
C1566 C1565 1.399 . S
C1566 C1567 1.385 1_455 S
C1567 H1553 0.931 . S
C1567 C1566 1.385 1_655 S
C1567 C1568 1.389 . S
C1568 C1567 1.389 . S
C1568 C1569 1.387 . S
C1569 H1554 0.930 . S
C1569 C1564 1.390 . S
C1569 C1568 1.387 . S
H1570 C1582 0.930 . S
H1571 C1584 0.930 . S
H1572 C1585 0.930 . S
H1573 C1589 0.959 . S
H1574 C1589 0.959 1_655 S
H1575 C1589 0.961 . S
H1576 C1590 0.960 . S
H1577 C1590 0.961 . S
H1578 C1590 0.959 . S
H1579 C1593 0.929 . S
H1580 C1594 0.931 . S
H1581 C1596 0.930 . S
C1582 H1570 0.930 . S
C1582 C1583 1.399 . S
C1582 C1587 1.399 . S
C1583 C1582 1.399 . S
C1583 C1584 1.376 . S
C1584 H1571 0.930 . S
C1584 C1583 1.376 . S
C1584 C1585 1.388 . S
C1585 H1572 0.930 . S
C1585 C1584 1.388 . S
C1585 C1586 1.390 . S
C1586 C1585 1.390 . S
C1586 C1587 1.394 . S
C1586 C1592 1.465 1_455 S
C1587 C1582 1.399 . S
C1587 C1586 1.394 . S
C1587 C1588 1.516 1_455 S
C1588 C1587 1.516 1_655 S
C1588 C1589 1.502 1_655 S
C1588 C1590 1.561 . S
C1588 C1591 1.526 . S
C1589 H1573 0.959 . S
C1589 H1574 0.959 1_455 S
C1589 H1575 0.961 . S
C1589 C1588 1.502 1_455 S
C1590 H1576 0.960 . S
C1590 H1577 0.961 . S
C1590 H1578 0.959 . S
C1590 C1588 1.561 . S
C1591 C1588 1.526 . S
C1591 C1592 1.396 . S
C1591 C1596 1.390 . S
C1592 C1586 1.465 1_655 S
C1592 C1591 1.396 . S
C1592 C1593 1.399 . S
C1593 H1579 0.929 . S
C1593 C1592 1.399 . S
C1593 C1594 1.385 . S
C1594 H1580 0.931 . S
C1594 C1593 1.385 . S
C1594 C1595 1.389 . S
C1595 C1594 1.389 . S
C1595 C1596 1.387 . S
C1596 H1581 0.930 . S
C1596 C1591 1.390 . S
C1596 C1595 1.387 . S
H1597 C1609 0.930 . S
H1598 C1611 0.930 . S
H1599 C1612 0.930 . S
H1600 C1616 0.959 . S
H1601 C1616 0.959 . S
H1602 C1616 0.961 . S
H1603 C1617 0.960 1_655 S
H1604 C1617 0.961 . S
H1605 C1617 0.959 . S
H1606 C1620 0.929 . S
H1607 C1621 0.931 . S
H1608 C1623 0.930 . S
C1609 H1597 0.930 . S
C1609 C1610 1.399 . S
C1609 C1614 1.399 . S
C1610 C1609 1.399 . S
C1610 C1611 1.376 . S
C1611 H1598 0.930 . S
C1611 C1610 1.376 . S
C1611 C1612 1.388 . S
C1612 H1599 0.930 . S
C1612 C1611 1.388 . S
C1612 C1613 1.390 . S
C1613 C1612 1.390 . S
C1613 C1614 1.394 . S
C1613 C1619 1.465 1_655 S
C1614 C1609 1.399 . S
C1614 C1613 1.394 . S
C1614 C1615 1.516 . S
C1615 C1614 1.516 . S
C1615 C1616 1.502 . S
C1615 C1617 1.561 1_655 S
C1615 C1618 1.526 1_655 S
C1616 H1600 0.959 . S
C1616 H1601 0.959 . S
C1616 H1602 0.961 . S
C1616 C1615 1.502 . S
C1617 H1603 0.960 1_455 S
C1617 H1604 0.961 . S
C1617 H1605 0.959 . S
C1617 C1615 1.561 1_455 S
C1618 C1615 1.526 1_455 S
C1618 C1619 1.396 . S
C1618 C1623 1.390 . S
C1619 C1613 1.465 1_455 S
C1619 C1618 1.396 . S
C1619 C1620 1.399 . S
C1620 H1606 0.929 . S
C1620 C1619 1.399 . S
C1620 C1621 1.385 . S
C1621 H1607 0.931 . S
C1621 C1620 1.385 . S
C1621 C1622 1.389 . S
C1622 C1621 1.389 . S
C1622 C1623 1.387 . S
C1623 H1608 0.930 . S
C1623 C1618 1.390 . S
C1623 C1622 1.387 . S
C557 C20 0.776 . S
C569 C509 0.785 . S
C584 C54 0.789 . S
C596 C543 0.792 . S
C611 C88 0.879 . S
C623 C441 0.840 . S
C638 C475 0.833 . S
C650 C122 0.880 . S
C665 C156 1.096 . S
C677 C373 1.118 . S
C692 C190 1.114 . S
C704 C407 1.093 . S
C719 C224 0.948 . S
C731 C274 0.924 . S
C746 C308 0.906 . S
C758 C258 0.942 . S
C773 C292 0.796 . S
C785 C237 0.797 . S
C800 C271 0.786 . S
C812 C326 0.801 . S
C827 C360 0.868 . S
C839 C169 0.851 . S
C854 C394 0.852 . S
C866 C203 0.878 . S
C881 C428 1.122 . S
C893 C101 1.094 . S
C908 C462 1.121 . S
C920 C135 1.097 . S
C935 C2 0.944 . S
C947 C496 0.916 . S
C962 C36 0.945 . S
C974 C530 0.914 . S
C989 C9 1.692 . S
C1001 C379 1.684 . S
C1016 C345 1.675 . S
C1028 C43 1.684 . S
C1043 C73 1.677 . S
C1055 C315 1.686 . S
C1070 C281 1.661 . S
C1082 C107 1.670 . S
C1097 C141 2.074 . S
C1109 C515 2.044 . S
C1124 C481 2.067 . S
C1136 C175 2.052 . S
C1151 C209 2.064 . S
C1163 C447 2.060 . S
C1178 C243 2.049 . S
C1190 C413 2.038 . S
C1205 C5 1.922 . S
C1217 C77 1.761 . S
C1232 C39 1.925 . S
C1244 C111 1.734 . S
C1259 C145 1.358 . S
C1271 C213 1.423 . S
C1286 C247 1.450 . S
C1298 C179 1.457 . S
C1313 C349 1.796 . S
C1325 C277 1.926 . S
C1340 C383 1.790 . S
C1352 C311 1.925 . S
C1367 C417 1.458 . S
C1379 C485 1.460 . S
C1394 C451 1.458 . S
C1406 C519 1.448 . S
C1421 C67 1.292 . S
C1433 C33 1.263 . S
C1448 C70 1.451 . S
C1460 C104 1.496 . S
C1475 C138 1.663 . S
C1487 C172 1.688 . S
C1502 C240 1.704 . S
C1514 C206 1.702 . S
C1529 C305 1.240 . S
C1541 C339 1.294 . S
C1556 C376 1.444 . S
C1568 C342 1.505 . S
C1583 C410 1.685 . S
C1595 C444 1.677 . S
C1610 C512 1.712 . S
C1622 C478 1.693 . S
