# Generated by pormake.
# Topology tzs, (4)-cn, num edge types: 1
# Building blocks:
#     Node 0, Type 0, BuildingBlock: NAHDIM_clean_sbu_0, # of connection points: 4
#     Node 1, Type 0, BuildingBlock: NAHDIM_clean_sbu_0, # of connection points: 4
#     Node 2, Type 0, BuildingBlock: NAHDIM_clean_sbu_0, # of connection points: 4
#     Node 3, Type 0, BuildingBlock: NAHDIM_clean_sbu_0, # of connection points: 4
#     Node 4, Type 0, BuildingBlock: NAHDIM_clean_sbu_0, # of connection points: 4
#     Node 5, Type 0, BuildingBlock: NAHDIM_clean_sbu_0, # of connection points: 4
#     Node 6, Type 0, BuildingBlock: NAHDIM_clean_sbu_0, # of connection points: 4
#     Node 7, Type 0, BuildingBlock: NAHDIM_clean_sbu_0, # of connection points: 4
#     Node 8, Type 0, BuildingBlock: NAHDIM_clean_sbu_0, # of connection points: 4
#     Node 9, Type 0, BuildingBlock: NAHDIM_clean_sbu_0, # of connection points: 4
#     Node 10, Type 0, BuildingBlock: NAHDIM_clean_sbu_0, # of connection points: 4
#     Node 11, Type 0, BuildingBlock: NAHDIM_clean_sbu_0, # of connection points: 4
#     Node 12, Type 0, BuildingBlock: NAHDIM_clean_sbu_0, # of connection points: 4
#     Node 13, Type 0, BuildingBlock: NAHDIM_clean_sbu_0, # of connection points: 4
#     Node 14, Type 0, BuildingBlock: NAHDIM_clean_sbu_0, # of connection points: 4
#     Node 15, Type 0, BuildingBlock: NAHDIM_clean_sbu_0, # of connection points: 4
#     Edge 16, Type (0, 0), BuildingBlock: CIFDUS_clean_linker_0, # of connection points: 2
#     Edge 17, Type (0, 0), BuildingBlock: CIFDUS_clean_linker_0, # of connection points: 2
#     Edge 18, Type (0, 0), BuildingBlock: CIFDUS_clean_linker_0, # of connection points: 2
#     Edge 19, Type (0, 0), BuildingBlock: CIFDUS_clean_linker_0, # of connection points: 2
#     Edge 20, Type (0, 0), BuildingBlock: CIFDUS_clean_linker_0, # of connection points: 2
#     Edge 21, Type (0, 0), BuildingBlock: CIFDUS_clean_linker_0, # of connection points: 2
#     Edge 22, Type (0, 0), BuildingBlock: CIFDUS_clean_linker_0, # of connection points: 2
#     Edge 23, Type (0, 0), BuildingBlock: CIFDUS_clean_linker_0, # of connection points: 2
#     Edge 24, Type (0, 0), BuildingBlock: CIFDUS_clean_linker_0, # of connection points: 2
#     Edge 25, Type (0, 0), BuildingBlock: CIFDUS_clean_linker_0, # of connection points: 2
#     Edge 26, Type (0, 0), BuildingBlock: CIFDUS_clean_linker_0, # of connection points: 2
#     Edge 27, Type (0, 0), BuildingBlock: CIFDUS_clean_linker_0, # of connection points: 2
#     Edge 28, Type (0, 0), BuildingBlock: CIFDUS_clean_linker_0, # of connection points: 2
#     Edge 29, Type (0, 0), BuildingBlock: CIFDUS_clean_linker_0, # of connection points: 2
#     Edge 30, Type (0, 0), BuildingBlock: CIFDUS_clean_linker_0, # of connection points: 2
#     Edge 31, Type (0, 0), BuildingBlock: CIFDUS_clean_linker_0, # of connection points: 2
#     Edge 32, Type (0, 0), BuildingBlock: CIFDUS_clean_linker_0, # of connection points: 2
#     Edge 33, Type (0, 0), BuildingBlock: CIFDUS_clean_linker_0, # of connection points: 2
#     Edge 34, Type (0, 0), BuildingBlock: CIFDUS_clean_linker_0, # of connection points: 2
#     Edge 35, Type (0, 0), BuildingBlock: CIFDUS_clean_linker_0, # of connection points: 2
#     Edge 36, Type (0, 0), BuildingBlock: CIFDUS_clean_linker_0, # of connection points: 2
#     Edge 37, Type (0, 0), BuildingBlock: CIFDUS_clean_linker_0, # of connection points: 2
#     Edge 38, Type (0, 0), BuildingBlock: CIFDUS_clean_linker_0, # of connection points: 2
#     Edge 39, Type (0, 0), BuildingBlock: CIFDUS_clean_linker_0, # of connection points: 2
#     Edge 40, Type (0, 0), BuildingBlock: CIFDUS_clean_linker_0, # of connection points: 2
#     Edge 41, Type (0, 0), BuildingBlock: CIFDUS_clean_linker_0, # of connection points: 2
#     Edge 42, Type (0, 0), BuildingBlock: CIFDUS_clean_linker_0, # of connection points: 2
#     Edge 43, Type (0, 0), BuildingBlock: CIFDUS_clean_linker_0, # of connection points: 2
#     Edge 44, Type (0, 0), BuildingBlock: CIFDUS_clean_linker_0, # of connection points: 2
#     Edge 45, Type (0, 0), BuildingBlock: CIFDUS_clean_linker_0, # of connection points: 2
#     Edge 46, Type (0, 0), BuildingBlock: CIFDUS_clean_linker_0, # of connection points: 2
#     Edge 47, Type (0, 0), BuildingBlock: CIFDUS_clean_linker_0, # of connection points: 2
# Relax obj value: 0.068
# Max RMSD: 0.083
# Mean RMSD: 0.083
data_MOF--net-tzs--node1-NAHDIM_clean_sbu_0--edge1-CIFDUS_clean_linker_0
_symmetry_space_group_name_H-M    P1
_symmetry_Int_Tables_number       1
_symmetry_cell_setting            triclinic
loop_
_symmetry_equiv_pos_as_xyz
'x, y, z'
_cell_length_a     43.22612
_cell_length_b     43.210377
_cell_length_c     34.436865
_cell_angle_alpha  90.114603
_cell_angle_beta   90.094381
_cell_angle_gamma 89.954351
loop_
_atom_site_label
_atom_site_type_symbol
_atom_site_fract_x
_atom_site_fract_y
_atom_site_fract_z
_atom_type_partial_charge
C0 C 0.19363 0.31151 0.2097 0.0
O1 O 0.20373 0.33746 0.19445 0.0
O2 O 0.1533 0.38213 0.21707 0.0
Zn3 Zn 0.13867 0.34237 0.19239 0.0
O4 O 0.14268 0.34369 0.13427 0.0
C5 C 0.07802 0.31408 0.21239 0.0
O6 O 0.09107 0.28678 0.20849 0.0
O7 O 0.16462 0.30736 0.21258 0.0
C8 C 0.12374 0.35882 0.11338 0.0
O9 O 0.1012 0.37421 0.13021 0.0
C10 C 0.16164 0.40624 0.19879 0.0
O11 O 0.16237 0.4058 0.16067 0.0
O12 O 0.09392 0.33838 0.2069 0.0
C13 C 0.664 0.20239 0.18022 0.0
O14 O 0.63736 0.20863 0.16354 0.0
O15 O 0.59965 0.15077 0.19071 0.0
Zn16 Zn 0.64207 0.14055 0.17023 0.0
O17 O 0.64121 0.13667 0.11203 0.0
C18 C 0.65437 0.09858 0.2315 0.0
O19 O 0.64653 0.12324 0.25161 0.0
O20 O 0.67145 0.17431 0.18594 0.0
C21 C 0.62628 0.11504 0.0954 0.0
O22 O 0.61161 0.09464 0.11679 0.0
C23 C 0.57682 0.15956 0.17019 0.0
O24 O 0.58031 0.16308 0.13257 0.0
O25 O 0.65504 0.10032 0.19467 0.0
C26 C 0.81458 0.66318 0.2547 0.0
O27 O 0.81947 0.63733 0.27378 0.0
O28 O 0.83603 0.59131 0.21329 0.0
Zn29 Zn 0.85212 0.63318 0.19651 0.0
O30 O 0.84813 0.63729 0.13854 0.0
C31 C 0.91359 0.61231 0.20785 0.0
O32 O 0.90113 0.58774 0.19168 0.0
O33 O 0.82681 0.66673 0.22148 0.0
C34 C 0.86673 0.65289 0.11784 0.0
O35 O 0.88996 0.6673 0.13459 0.0
C36 C 0.83148 0.5694 0.18924 0.0
O37 O 0.8361 0.57439 0.15208 0.0
O38 O 0.89698 0.6363 0.21276 0.0
C39 C 0.33065 0.79678 0.22783 0.0
O40 O 0.35676 0.78441 0.21596 0.0
O41 O 0.40382 0.83402 0.23426 0.0
Zn42 Zn 0.36475 0.8496 0.2082 0.0
O43 O 0.36761 0.84189 0.15066 0.0
C44 C 0.38516 0.91141 0.21312 0.0
O45 O 0.40926 0.8979 0.19724 0.0
O46 O 0.32805 0.82606 0.22809 0.0
C47 C 0.35436 0.85843 0.12512 0.0
O48 O 0.33776 0.88236 0.13612 0.0
C49 C 0.42798 0.82844 0.2144 0.0
O50 O 0.42691 0.8316 0.1765 0.0
O51 O 0.36121 0.89529 0.21998 0.0
C52 C 0.20879 0.66531 0.28262 0.0
O53 O 0.21473 0.63704 0.29449 0.0
O54 O 0.16023 0.60192 0.26811 0.0
Zn55 Zn 0.1499 0.64174 0.29618 0.0
O56 O 0.15375 0.63577 0.35386 0.0
C57 C 0.08719 0.63012 0.28421 0.0
O58 O 0.09754 0.6034 0.29697 0.0
O59 O 0.18077 0.67408 0.28028 0.0
C60 C 0.13855 0.65186 0.37813 0.0
O61 O 0.11907 0.67288 0.36535 0.0
C62 C 0.1666 0.57688 0.28573 0.0
O63 O 0.16756 0.57675 0.32385 0.0
O64 O 0.10591 0.65272 0.28184 0.0
C65 C 0.33448 0.20501 0.27774 0.0
O66 O 0.36261 0.21386 0.28707 0.0
O67 O 0.40084 0.1589 0.28004 0.0
Zn68 Zn 0.35951 0.14854 0.30428 0.0
O69 O 0.36161 0.15632 0.36184 0.0
C70 C 0.37294 0.08517 0.29114 0.0
O71 O 0.40054 0.09566 0.30019 0.0
O72 O 0.32705 0.17679 0.28214 0.0
C73 C 0.34976 0.13907 0.38765 0.0
O74 O 0.33488 0.11392 0.37708 0.0
C75 C 0.42486 0.16366 0.30057 0.0
O76 O 0.4226 0.16292 0.33859 0.0
O77 O 0.35006 0.10367 0.29201 0.0
C78 C 0.79092 0.31873 0.2648 0.0
O79 O 0.78105 0.34748 0.26441 0.0
O80 O 0.83161 0.38827 0.28059 0.0
Zn81 Zn 0.84522 0.34622 0.29998 0.0
O82 O 0.84407 0.34468 0.35844 0.0
C83 C 0.90628 0.36173 0.27386 0.0
O84 O 0.89489 0.3898 0.27715 0.0
O85 O 0.81759 0.31281 0.2785 0.0
C86 C 0.86199 0.36161 0.37863 0.0
O87 O 0.88121 0.38037 0.36088 0.0
C88 C 0.8193 0.40923 0.30144 0.0
O89 O 0.813 0.40342 0.338 0.0
O90 O 0.88918 0.33871 0.28207 0.0
C91 C 0.69935 0.8022 0.30403 0.0
O92 O 0.6822 0.79594 0.33448 0.0
O93 O 0.62143 0.84435 0.27878 0.0
Zn94 Zn 0.66176 0.8568 0.30358 0.0
O95 O 0.65928 0.8557 0.36217 0.0
C96 C 0.66956 0.92418 0.30434 0.0
O97 O 0.66312 0.92189 0.34148 0.0
O98 O 0.69487 0.82737 0.28581 0.0
C99 C 0.63548 0.86334 0.38161 0.0
O100 O 0.61084 0.87358 0.3633 0.0
C101 C 0.60106 0.82611 0.29225 0.0
O102 O 0.60552 0.81264 0.32595 0.0
O103 O 0.67117 0.89975 0.28381 0.0
C104 C 0.80791 0.69995 0.79138 0.0
O105 O 0.8346 0.71119 0.80306 0.0
O106 O 0.87797 0.65928 0.78695 0.0
Zn107 Zn 0.83904 0.64576 0.81383 0.0
O108 O 0.8425 0.65205 0.87159 0.0
C109 C 0.85114 0.58178 0.82208 0.0
O110 O 0.86956 0.59322 0.84886 0.0
O111 O 0.80349 0.67091 0.7932 0.0
C112 C 0.8218 0.64052 0.89331 0.0
O113 O 0.79839 0.62592 0.87723 0.0
C114 C 0.90396 0.66064 0.80411 0.0
O115 O 0.90556 0.65411 0.8413 0.0
O116 O 0.83416 0.60017 0.80263 0.0
C117 C 0.29367 0.82112 0.78724 0.0
O118 O 0.28354 0.8496 0.79159 0.0
O119 O 0.33954 0.88912 0.78383 0.0
Zn120 Zn 0.35048 0.8494 0.81119 0.0
O121 O 0.34612 0.85627 0.86874 0.0
C122 C 0.41751 0.84954 0.81403 0.0
O123 O 0.41315 0.86751 0.84435 0.0
O124 O 0.32194 0.81526 0.79413 0.0
C125 C 0.3566 0.83798 0.89441 0.0
O126 O 0.37108 0.81267 0.88352 0.0
C127 C 0.34633 0.91472 0.79997 0.0
O128 O 0.35985 0.91447 0.83416 0.0
O129 O 0.39418 0.83854 0.79627 0.0
C130 C 0.17155 0.30398 0.78112 0.0
O131 O 0.14305 0.29346 0.78188 0.0
O132 O 0.10098 0.34827 0.78559 0.0
Zn133 Zn 0.14261 0.3607 0.80803 0.0
O134 O 0.14041 0.36112 0.86637 0.0
C135 C 0.14377 0.41322 0.757 0.0
O136 O 0.12985 0.39364 0.73356 0.0
O137 O 0.17669 0.33191 0.79079 0.0
C138 C 0.12344 0.38107 0.88321 0.0
O139 O 0.10786 0.40097 0.86199 0.0
C140 C 0.07931 0.33678 0.80594 0.0
O141 O 0.08423 0.33097 0.84285 0.0
O142 O 0.15216 0.40407 0.79044 0.0
C143 C 0.70709 0.16694 0.75925 0.0
O144 O 0.71268 0.13753 0.76578 0.0
O145 O 0.65249 0.10567 0.76706 0.0
Zn146 Zn 0.64638 0.14948 0.7858 0.0
O147 O 0.64733 0.15073 0.84421 0.0
C148 C 0.58443 0.17798 0.78477 0.0
O149 O 0.59181 0.18918 0.81906 0.0
O150 O 0.68 0.17745 0.76514 0.0
C151 C 0.63073 0.13274 0.86456 0.0
O152 O 0.6122 0.11306 0.84702 0.0
C153 C 0.66655 0.08433 0.78536 0.0
O154 O 0.67966 0.09061 0.8189 0.0
O155 O 0.60426 0.16216 0.76605 0.0
C156 C 0.82746 0.2993 0.70122 0.0
O157 O 0.85347 0.28778 0.68776 0.0
O158 O 0.89951 0.34579 0.70651 0.0
Zn159 Zn 0.85741 0.35764 0.68504 0.0
O160 O 0.85813 0.35803 0.62664 0.0
C161 C 0.85518 0.41005 0.73669 0.0
O162 O 0.87011 0.391 0.75978 0.0
O163 O 0.82424 0.32848 0.70318 0.0
C164 C 0.8729 0.37925 0.60915 0.0
O165 O 0.88754 0.40029 0.62976 0.0
C166 C 0.92173 0.33653 0.68524 0.0
O167 O 0.91714 0.33274 0.64783 0.0
O168 O 0.84697 0.40069 0.70323 0.0
C169 C 0.69806 0.83426 0.71127 0.0
O170 O 0.70534 0.86286 0.70225 0.0
O171 O 0.6492 0.89878 0.70146 0.0
Zn172 Zn 0.63786 0.85488 0.6872 0.0
O173 O 0.63473 0.85147 0.62885 0.0
C174 C 0.59414 0.85348 0.74827 0.0
O175 O 0.61808 0.86525 0.76664 0.0
O176 O 0.67024 0.82535 0.7071 0.0
C177 C 0.60909 0.85302 0.61078 0.0
O178 O 0.58334 0.85585 0.63069 0.0
C179 C 0.63648 0.92115 0.6836 0.0
O180 O 0.61687 0.91512 0.65543 0.0
O181 O 0.59704 0.84591 0.71277 0.0
C182 C 0.16033 0.70868 0.71015 0.0
O183 O 0.13282 0.7162 0.69687 0.0
O184 O 0.09639 0.65835 0.72188 0.0
Zn185 Zn 0.13534 0.65099 0.69144 0.0
O186 O 0.12833 0.65909 0.6345 0.0
C187 C 0.12979 0.58669 0.681 0.0
O188 O 0.10789 0.59706 0.65793 0.0
O189 O 0.16795 0.68026 0.71101 0.0
C190 C 0.14712 0.64804 0.60977 0.0
O191 O 0.171 0.63193 0.62203 0.0
C192 C 0.07076 0.66621 0.70672 0.0
O193 O 0.06916 0.67065 0.66904 0.0
O194 O 0.14651 0.60609 0.69926 0.0
C195 C 0.29138 0.17331 0.71419 0.0
O196 O 0.28543 0.14595 0.69922 0.0
O197 O 0.34756 0.1112 0.73115 0.0
Zn198 Zn 0.35194 0.15098 0.7012 0.0
O199 O 0.34592 0.14216 0.64425 0.0
C200 C 0.41703 0.15227 0.69341 0.0
O201 O 0.40977 0.12992 0.66914 0.0
O202 O 0.31943 0.18144 0.71858 0.0
C203 C 0.35407 0.16109 0.61804 0.0
O204 O 0.36668 0.18755 0.62824 0.0
C205 C 0.33719 0.08641 0.71604 0.0
O206 O 0.32765 0.0867 0.67981 0.0
O207 O 0.3954 0.16647 0.71102 0.0
H208 H 0.27214 0.19782 0.2698 0.0
H209 H 0.346 0.26371 0.25335 0.0
H210 H 0.30894 0.30216 0.23055 0.0
H211 H 0.25577 0.31734 0.2159 0.0
H212 H 0.18133 0.25241 0.23381 0.0
H213 H 0.21846 0.21333 0.25553 0.0
C214 C 0.28012 0.22055 0.26106 0.0
C215 C 0.3118 0.22785 0.2632 0.0
C216 C 0.25862 0.24275 0.24838 0.0
C217 C 0.32175 0.25749 0.25207 0.0
C218 C 0.30058 0.27951 0.239 0.0
C219 C 0.24761 0.29463 0.22447 0.0
C220 C 0.21584 0.28779 0.22316 0.0
C221 C 0.26899 0.27243 0.23716 0.0
C222 C 0.20568 0.25829 0.23461 0.0
C223 C 0.22689 0.23592 0.24697 0.0
H224 H 0.73475 0.32394 0.22977 0.0
H225 H 0.80249 0.25657 0.2666 0.0
H226 H 0.76938 0.21474 0.24328 0.0
H227 H 0.72097 0.19722 0.21327 0.0
H228 H 0.65335 0.26459 0.17608 0.0
H229 H 0.68674 0.30645 0.19867 0.0
C230 C 0.74231 0.30012 0.23269 0.0
C231 C 0.77103 0.29344 0.25001 0.0
C232 C 0.72319 0.27615 0.21917 0.0
C233 C 0.78049 0.26241 0.2534 0.0
C234 C 0.76157 0.23844 0.24009 0.0
C235 C 0.71353 0.22105 0.21003 0.0
C236 C 0.68465 0.22772 0.19308 0.0
C237 C 0.73283 0.24504 0.22305 0.0
C238 C 0.67545 0.25876 0.18903 0.0
C239 C 0.69452 0.28275 0.20197 0.0
H240 H 0.80013 0.71881 0.22265 0.0
H241 H 0.78161 0.66126 0.3223 0.0
H242 H 0.7448 0.69948 0.34668 0.0
H243 H 0.71673 0.74845 0.33872 0.0
H244 H 0.73531 0.80593 0.23903 0.0
H245 H 0.77328 0.76847 0.21573 0.0
C246 C 0.78816 0.71465 0.2498 0.0
C247 C 0.79356 0.68713 0.27051 0.0
C248 C 0.76695 0.73665 0.2636 0.0
C249 C 0.7779 0.68221 0.30571 0.0
C250 C 0.75678 0.70403 0.31966 0.0
C251 C 0.72911 0.75284 0.31194 0.0
C252 C 0.72305 0.77991 0.29059 0.0
C253 C 0.75093 0.7312 0.29867 0.0
C254 C 0.73946 0.78528 0.25604 0.0
C255 C 0.76118 0.76385 0.24265 0.0
H256 H 0.33191 0.73486 0.23927 0.0
H257 H 0.27064 0.81375 0.24208 0.0
H258 H 0.22726 0.78001 0.25873 0.0
H259 H 0.20669 0.72784 0.27187 0.0
H260 H 0.26885 0.64957 0.27047 0.0
H261 H 0.31186 0.68338 0.25377 0.0
C262 C 0.30908 0.74473 0.24354 0.0
C263 C 0.30451 0.77674 0.23931 0.0
C264 C 0.28435 0.72529 0.25326 0.0
C265 C 0.27481 0.78916 0.24522 0.0
C266 C 0.24996 0.76988 0.25464 0.0
C267 C 0.22963 0.71821 0.2678 0.0
C268 C 0.23451 0.68622 0.27228 0.0
C269 C 0.25445 0.73787 0.25858 0.0
C270 C 0.26444 0.67411 0.26726 0.0
C271 C 0.28908 0.69341 0.25767 0.0
H272 H 0.69215 0.77259 0.72604 0.0
H273 H 0.75773 0.84787 0.73045 0.0
H274 H 0.79723 0.81298 0.75578 0.0
H275 H 0.81322 0.76133 0.77672 0.0
H276 H 0.74824 0.68562 0.77149 0.0
H277 H 0.70844 0.72052 0.74641 0.0
C278 C 0.71507 0.78138 0.73257 0.0
C279 C 0.72192 0.81284 0.72639 0.0
C280 C 0.73779 0.76115 0.74697 0.0
C281 C 0.7518 0.82378 0.73486 0.0
C282 C 0.77443 0.80386 0.74939 0.0
C283 C 0.79035 0.75241 0.77017 0.0
C284 C 0.78372 0.72091 0.77608 0.0
C285 C 0.76768 0.77253 0.75558 0.0
C286 C 0.75399 0.70976 0.76721 0.0
C287 C 0.7312 0.72971 0.75288 0.0
H288 H 0.22 0.70189 0.73468 0.0
H289 H 0.14869 0.77042 0.71645 0.0
H290 H 0.18348 0.81101 0.73898 0.0
H291 H 0.23405 0.82724 0.76364 0.0
H292 H 0.30584 0.75916 0.78119 0.0
H293 H 0.27093 0.71828 0.75918 0.0
C294 C 0.21206 0.72569 0.73568 0.0
C295 C 0.18176 0.73305 0.72391 0.0
C296 C 0.23226 0.74905 0.74854 0.0
C297 C 0.17189 0.76405 0.72528 0.0
C298 C 0.19177 0.78733 0.7382 0.0
C299 C 0.24208 0.80346 0.76274 0.0
C300 C 0.2725 0.79631 0.77409 0.0
C301 C 0.22198 0.78011 0.74987 0.0
C302 C 0.28254 0.76535 0.77257 0.0
C303 C 0.26259 0.74194 0.76 0.0
H304 H 0.16808 0.24475 0.75462 0.0
H305 H 0.23344 0.3171 0.78203 0.0
H306 H 0.27624 0.2831 0.76406 0.0
H307 H 0.29521 0.23273 0.74071 0.0
H308 H 0.2296 0.16074 0.71268 0.0
H309 H 0.18693 0.19471 0.73077 0.0
C310 C 0.19167 0.25312 0.75668 0.0
C311 C 0.19748 0.28344 0.76972 0.0
C312 C 0.21621 0.23349 0.74621 0.0
C313 C 0.22824 0.29388 0.77206 0.0
C314 C 0.25278 0.27444 0.76183 0.0
C315 C 0.27158 0.22445 0.7386 0.0
C316 C 0.26568 0.19418 0.72542 0.0
C317 C 0.24704 0.24418 0.74891 0.0
C318 C 0.23488 0.1839 0.72274 0.0
C319 C 0.21041 0.20333 0.73308 0.0
H320 H 0.70607 0.22982 0.75387 0.0
H321 H 0.76519 0.15045 0.73635 0.0
H322 H 0.80752 0.18429 0.71684 0.0
H323 H 0.82798 0.2364 0.70517 0.0
H324 H 0.76919 0.31585 0.72387 0.0
H325 H 0.72664 0.28198 0.74256 0.0
C326 C 0.72817 0.21991 0.74564 0.0
C327 C 0.73239 0.18763 0.74652 0.0
C328 C 0.75256 0.23952 0.73476 0.0
C329 C 0.76127 0.17521 0.73598 0.0
C330 C 0.78553 0.19455 0.72481 0.0
C331 C 0.80587 0.24633 0.71332 0.0
C332 C 0.80184 0.27863 0.71307 0.0
C333 C 0.78148 0.22673 0.7242 0.0
C334 C 0.77301 0.29108 0.72385 0.0
C335 C 0.7486 0.27172 0.73449 0.0
H336 H 0.15509 0.34586 0.93521 0.0
H337 H 0.08436 0.41619 0.9273 0.0
H338 H 0.07809 0.41538 0.99771 0.0
H339 H 0.0924 0.39447 0.06151 0.0
H340 H 0.16372 0.32473 0.06936 0.0
H341 H 0.16998 0.32558 -0.00101 0.0
C342 C 0.13831 0.36104 0.94886 0.0
C343 C 0.12019 0.381 0.92597 0.0
C344 C 0.13488 0.36055 0.98937 0.0
C345 C 0.09864 0.4006 0.94419 0.0
C346 C 0.09499 0.40014 0.98448 0.0
C347 C 0.10929 0.37942 0.04784 0.0
C348 C 0.12748 0.35951 0.0707 0.0
C349 C 0.11293 0.38015 0.00734 0.0
C350 C 0.14939 0.3403 0.0525 0.0
C351 C 0.153 0.34075 0.01222 0.0
H352 H 0.60314 0.09391 0.91613 0.0
H353 H 0.66334 0.17342 0.9094 0.0
H354 H 0.66744 0.17472 0.98002 0.0
H355 H 0.65396 0.15347 0.04364 0.0
H356 H 0.59409 0.07375 0.0507 0.0
H357 H 0.58995 0.07235 0.97998 0.0
C358 C 0.61711 0.11157 0.93009 0.0
C359 C 0.63285 0.13355 0.90745 0.0
C360 C 0.6195 0.11212 0.97078 0.0
C361 C 0.65097 0.15619 0.92607 0.0
C362 C 0.65334 0.15697 0.96649 0.0
C363 C 0.64003 0.13573 0.02976 0.0
C364 C 0.62436 0.11376 0.05249 0.0
C365 C 0.63774 0.13505 0.98911 0.0
C366 C 0.60644 0.09094 0.03395 0.0
C367 C 0.60401 0.09014 0.99348 0.0
H368 H 0.86765 0.66793 0.93544 0.0
H369 H 0.78326 0.61538 0.94734 0.0
H370 H 0.78961 0.61493 0.0177 0.0
H371 H 0.81959 0.62832 0.07568 0.0
H372 H 0.90394 0.68095 0.06423 0.0
H373 H 0.89706 0.68248 0.99383 0.0
C374 C 0.85056 0.65649 0.95342 0.0
C375 C 0.82505 0.64166 0.93608 0.0
C376 C 0.85438 0.65623 0.99393 0.0
C377 C 0.80313 0.62698 0.95985 0.0
C378 C 0.80675 0.62666 0.00013 0.0
C379 C 0.83648 0.64019 0.05785 0.0
C380 C 0.8623 0.6544 0.07525 0.0
C381 C 0.83238 0.64102 0.01744 0.0
C382 C 0.88387 0.66977 0.05164 0.0
C383 C 0.87996 0.67065 0.01135 0.0
H384 H 0.33105 0.88965 0.063 0.0
H385 H 0.38484 0.80904 0.09365 0.0
H386 H 0.38996 0.79543 0.02521 0.0
H387 H 0.37935 0.80638 0.95656 0.0
H388 H 0.32601 0.88728 0.9259 0.0
H389 H 0.32057 0.90069 0.99436 0.0
C390 C 0.34389 0.8691 0.05474 0.0
C391 C 0.3575 0.85043 0.08348 0.0
C392 C 0.34684 0.8614 0.01527 0.0
C393 C 0.37411 0.82389 0.07218 0.0
C394 C 0.37706 0.81604 0.03301 0.0
C395 C 0.36648 0.82691 0.96483 0.0
C396 C 0.3531 0.84573 0.93608 0.0
C397 C 0.36353 0.83461 0.0043 0.0
C398 C 0.33657 0.87233 0.94737 0.0
C399 C 0.33343 0.88005 0.98656 0.0
H400 H 0.17759 0.62044 0.55018 0.0
H401 H 0.10412 0.68523 0.57491 0.0
H402 H 0.0949 0.69207 0.50545 0.0
H403 H 0.10777 0.6797 0.43768 0.0
H404 H 0.18069 0.61413 0.41334 0.0
H405 H 0.18993 0.60753 0.48269 0.0
C406 C 0.15961 0.63613 0.54042 0.0
C407 C 0.14167 0.65237 0.56771 0.0
C408 C 0.15426 0.63977 0.50049 0.0
C409 C 0.1183 0.67244 0.55452 0.0
C410 C 0.113 0.67637 0.5148 0.0
C411 C 0.12567 0.66395 0.44753 0.0
C412 C 0.14353 0.6475 0.4203 0.0
C413 C 0.13084 0.66015 0.48752 0.0
C414 C 0.16657 0.62709 0.43362 0.0
C415 C 0.17192 0.62331 0.4733 0.0
H416 H 0.37366 0.1936 0.5552 0.0
H417 H 0.3258 0.10993 0.58771 0.0
H418 H 0.32006 0.09581 0.51943 0.0
H419 H 0.32897 0.10697 0.45044 0.0
H420 H 0.37739 0.19042 0.41819 0.0
H421 H 0.38254 0.20475 0.48637 0.0
C422 C 0.3619 0.17231 0.54739 0.0
C423 C 0.35018 0.1529 0.57657 0.0
C424 C 0.35881 0.16422 0.50807 0.0
C425 C 0.33508 0.12533 0.56587 0.0
C426 C 0.33178 0.11721 0.5268 0.0
C427 C 0.34063 0.1283 0.4583 0.0
C428 C 0.35274 0.14755 0.42917 0.0
C429 C 0.34362 0.13643 0.49765 0.0
C430 C 0.36783 0.17511 0.43995 0.0
C431 C 0.37079 0.18338 0.47898 0.0
H432 H 0.89304 0.39848 0.4294 0.0
H433 H 0.82794 0.32284 0.42432 0.0
H434 H 0.82572 0.32154 0.49513 0.0
H435 H 0.84214 0.34192 0.55845 0.0
H436 H 0.90669 0.41804 0.5634 0.0
H437 H 0.9092 0.41905 0.49263 0.0
C438 C 0.87839 0.38166 0.44374 0.0
C439 C 0.86073 0.36077 0.42155 0.0
C440 C 0.87709 0.38113 0.48445 0.0
C441 C 0.84178 0.33921 0.44066 0.0
C442 C 0.84049 0.33843 0.48118 0.0
C443 C 0.85678 0.35873 0.54408 0.0
C444 C 0.87421 0.37985 0.56623 0.0
C445 C 0.85803 0.35929 0.50335 0.0
C446 C 0.89298 0.40153 0.54709 0.0
C447 C 0.89447 0.40213 0.5066 0.0
H448 H 0.65778 0.84664 0.56147 0.0
H449 H 0.55914 0.86237 0.56346 0.0
H450 H 0.55862 0.86716 0.49283 0.0
H451 H 0.58632 0.86786 0.43057 0.0
H452 H 0.68483 0.85138 0.42874 0.0
H453 H 0.68519 0.84601 0.49924 0.0
C454 C 0.63612 0.851 0.54649 0.0
C455 C 0.60857 0.85422 0.56781 0.0
C456 C 0.63597 0.85376 0.50588 0.0
C457 C 0.58072 0.85977 0.54783 0.0
C458 C 0.58039 0.8626 0.50742 0.0
C459 C 0.60788 0.86317 0.44559 0.0
C460 C 0.63552 0.86021 0.42439 0.0
C461 C 0.60791 0.85985 0.48617 0.0
C462 C 0.66321 0.85382 0.44432 0.0
C463 C 0.66346 0.85073 0.48466 0.0
H464 H 0.17176 0.51866 0.31469 0.0
H465 H 0.16857 0.56948 0.20693 0.0
H466 H 0.16932 0.52103 0.17039 0.0
H467 H 0.16715 0.46427 0.16913 0.0
H468 H 0.16837 0.4136 0.27706 0.0
H469 H 0.17238 0.46198 0.31334 0.0
C470 C 0.17154 0.51919 0.2832 0.0
C471 C 0.1699 0.54767 0.26362 0.0
C472 C 0.17149 0.49125 0.26236 0.0
C473 C 0.16965 0.54788 0.22278 0.0
C474 C 0.17005 0.52017 0.20183 0.0
C475 C 0.16866 0.46377 0.20056 0.0
C476 C 0.16726 0.43536 0.22033 0.0
C477 C 0.17041 0.49172 0.22133 0.0
C478 C 0.16919 0.43516 0.26109 0.0
C479 C 0.17145 0.46282 0.2819 0.0
H480 H 0.56408 0.16314 0.24715 0.0
H481 H 0.52076 0.16584 0.13417 0.0
H482 H 0.46982 0.16904 0.16461 0.0
H483 H 0.43753 0.16803 0.22331 0.0
H484 H 0.48123 0.16568 0.33613 0.0
H485 H 0.53208 0.16561 0.30564 0.0
C486 C 0.54351 0.16458 0.22914 0.0
C487 C 0.5462 0.16395 0.18846 0.0
C488 C 0.51436 0.16641 0.24679 0.0
C489 C 0.51934 0.16621 0.16557 0.0
C490 C 0.49019 0.16796 0.18295 0.0
C491 C 0.45817 0.16773 0.24124 0.0
C492 C 0.45553 0.16657 0.28194 0.0
C493 C 0.48741 0.16762 0.22353 0.0
C494 C 0.48254 0.16646 0.30474 0.0
C495 C 0.51167 0.16634 0.28734 0.0
H496 H 0.81703 0.55165 0.26288 0.0
H497 H 0.83167 0.51583 0.1472 0.0
H498 H 0.827 0.46306 0.17139 0.0
H499 H 0.82286 0.42705 0.22602 0.0
H500 H 0.80795 0.46259 0.34173 0.0
H501 H 0.80831 0.51546 0.31677 0.0
C502 C 0.81891 0.53231 0.24289 0.0
C503 C 0.82505 0.53772 0.20336 0.0
C504 C 0.81629 0.50195 0.257 0.0
C505 C 0.82709 0.51239 0.1778 0.0
C506 C 0.82451 0.48215 0.19161 0.0
C507 C 0.8194 0.44634 0.24575 0.0
C508 C 0.81572 0.44088 0.28573 0.0
C509 C 0.81975 0.47666 0.23126 0.0
C510 C 0.8109 0.46612 0.31083 0.0
C511 C 0.81123 0.49639 0.29661 0.0
H512 H 0.5448 0.81175 0.32261 0.0
H513 H 0.59091 0.83349 0.21503 0.0
H514 H 0.54144 0.83325 0.18083 0.0
H515 H 0.48504 0.83087 0.18234 0.0
H516 H 0.43806 0.81275 0.2904 0.0
H517 H 0.48789 0.80736 0.32353 0.0
C518 C 0.54399 0.81597 0.29158 0.0
C519 C 0.57141 0.82267 0.27136 0.0
C520 C 0.51532 0.81668 0.27227 0.0
C521 C 0.57006 0.82844 0.23125 0.0
C522 C 0.5418 0.82832 0.21168 0.0
C523 C 0.48563 0.82536 0.21305 0.0
C524 C 0.45788 0.82231 0.23389 0.0
C525 C 0.51426 0.82309 0.23203 0.0
C526 C 0.45912 0.81537 0.27373 0.0
C527 C 0.4876 0.8123 0.29269 0.0
H528 H 0.82504 0.55188 0.76039 0.0
H529 H 0.87962 0.53642 0.86367 0.0
H530 H 0.8845 0.48175 0.84722 0.0
H531 H 0.87532 0.43879 0.80222 0.0
H532 H 0.82205 0.45423 0.69788 0.0
H533 H 0.81455 0.50835 0.71615 0.0
C534 C 0.83776 0.5365 0.77947 0.0
C535 C 0.852 0.54828 0.81315 0.0
C536 C 0.84086 0.50508 0.76958 0.0
C537 C 0.86852 0.52803 0.83747 0.0
C538 C 0.87136 0.49672 0.82809 0.0
C539 C 0.8619 0.45391 0.78356 0.0
C540 C 0.84936 0.44245 0.74869 0.0
C541 C 0.85795 0.48508 0.794 0.0
C542 C 0.83207 0.46245 0.72485 0.0
C543 C 0.82776 0.49342 0.73526 0.0
H544 H 0.54076 0.82881 0.71972 0.0
H545 H 0.57904 0.87447 0.82055 0.0
H546 H 0.52805 0.87576 0.85068 0.0
H547 H 0.47211 0.86677 0.84685 0.0
H548 H 0.43376 0.821 0.74616 0.0
H549 H 0.48527 0.81674 0.71777 0.0
C550 C 0.538 0.83884 0.74841 0.0
C551 C 0.56367 0.85175 0.76767 0.0
C552 C 0.50856 0.83961 0.76559 0.0
C553 C 0.55969 0.86445 0.80496 0.0
C554 C 0.5305 0.86528 0.82223 0.0
C555 C 0.47502 0.85566 0.81881 0.0
C556 C 0.44905 0.84449 0.79855 0.0
C557 C 0.5047 0.85336 0.80256 0.0
C558 C 0.45331 0.82992 0.76238 0.0
C559 C 0.48277 0.82752 0.74604 0.0
H560 H 0.12059 0.44164 0.69302 0.0
H561 H 0.17467 0.45884 0.7963 0.0
H562 H 0.17715 0.51385 0.78038 0.0
H563 H 0.1612 0.55758 0.73918 0.0
H564 H 0.10531 0.54018 0.63746 0.0
H565 H 0.10651 0.48478 0.65062 0.0
C566 C 0.13317 0.45733 0.7119 0.0
C567 C 0.1473 0.44611 0.74588 0.0
C568 C 0.13409 0.48898 0.70293 0.0
C569 C 0.16346 0.46685 0.77003 0.0
C570 C 0.16488 0.49834 0.76097 0.0
C571 C 0.14959 0.54162 0.71967 0.0
C572 C 0.13309 0.55302 0.68749 0.0
C573 C 0.14988 0.50975 0.72779 0.0
C574 C 0.11803 0.53205 0.66259 0.0
C575 C 0.11868 0.50034 0.67008 0.0
H576 H 0.44072 0.18671 0.75312 0.0
H577 H 0.46743 0.13153 0.654 0.0
H578 H 0.52172 0.13686 0.67186 0.0
H579 H 0.56128 0.15369 0.71799 0.0
H580 H 0.53509 0.20737 0.81856 0.0
H581 H 0.48106 0.20637 0.79751 0.0
C582 C 0.45845 0.17618 0.73517 0.0
C583 C 0.44995 0.15855 0.70243 0.0
C584 C 0.48975 0.17891 0.74596 0.0
C585 C 0.47325 0.14502 0.67953 0.0
C586 C 0.50435 0.14804 0.68971 0.0
C587 C 0.54386 0.16547 0.73518 0.0
C588 C 0.55227 0.18038 0.76999 0.0
C589 C 0.51281 0.16438 0.72327 0.0
C590 C 0.5293 0.1956 0.79173 0.0
C591 C 0.49835 0.19498 0.77975 0.0
H592 H 0.64025 0.0642 0.71834 0.0
H593 H 0.69234 0.03249 0.81769 0.0
H594 H 0.68903 0.97925 0.79392 0.0
H595 H 0.66913 0.94146 0.7465 0.0
H596 H 0.61612 0.97362 0.64809 0.0
H597 H 0.62216 0.02695 0.66996 0.0
C598 C 0.65106 0.04571 0.73475 0.0
C599 C 0.66639 0.05235 0.76986 0.0
C600 C 0.64882 0.01519 0.72116 0.0
C601 C 0.68033 0.02805 0.79062 0.0
C602 C 0.67841 0.99758 0.77708 0.0
C603 C 0.6591 0.96015 0.72968 0.0
C604 C 0.64206 0.95351 0.69581 0.0
C605 C 0.66238 0.99084 0.74262 0.0
C606 C 0.6292 0.97802 0.67438 0.0
C607 C 0.63263 0.00856 0.68685 0.0
H608 H 0.96341 0.65867 0.82986 0.0
H609 H 0.90839 0.67587 0.72737 0.0
H610 H 0.95529 0.68105 0.68863 0.0
H611 H 0.01173 0.67735 0.68299 0.0
H612 H 0.06663 0.65901 0.78529 0.0
H613 H 0.01995 0.65783 0.82489 0.0
C614 C 0.96165 0.66383 0.79912 0.0
C615 C 0.93241 0.66662 0.78153 0.0
C616 C 0.98869 0.66642 0.77688 0.0
C617 C 0.93059 0.67341 0.74166 0.0
C618 C 0.95741 0.67635 0.71943 0.0
C619 C 0.01354 0.67334 0.71399 0.0
C620 C 0.04263 0.66802 0.73103 0.0
C621 C 0.98656 0.67236 0.7366 0.0
C622 C 0.04452 0.66298 0.77131 0.0
C623 C 0.01782 0.66227 0.79403 0.0
H624 H 0.32023 0.02909 0.69099 0.0
H625 H 0.35638 0.0778 0.79083 0.0
H626 H 0.36127 0.02908 0.82593 0.0
H627 H 0.35745 0.97258 0.82738 0.0
H628 H 0.32183 0.92359 0.7275 0.0
H629 H 0.31449 0.97257 0.6934 0.0
C630 C 0.32899 0.0291 0.72051 0.0
C631 C 0.33807 0.05708 0.73813 0.0
C632 C 0.33197 0.00096 0.74049 0.0
C633 C 0.34931 0.05663 0.77647 0.0
C634 C 0.35216 0.02876 0.79659 0.0
C635 C 0.34796 0.97257 0.79821 0.0
C636 C 0.34039 0.94442 0.77996 0.0
C637 C 0.34392 0.00077 0.77872 0.0
C638 C 0.32796 0.9449 0.74221 0.0
C639 C 0.32377 0.97291 0.72266 0.0
H640 H 0.06337 0.33469 0.72952 0.0
H641 H 0.02486 0.33035 0.84493 0.0
H642 H 0.97267 0.3287 0.81782 0.0
H643 H 0.93781 0.33146 0.76143 0.0
H644 H 0.97638 0.33406 0.64596 0.0
H645 H 0.0286 0.33319 0.67299 0.0
C646 C 0.04355 0.33317 0.74871 0.0
C647 C 0.048 0.33292 0.78917 0.0
C648 C 0.01358 0.33201 0.73293 0.0
C649 C 0.02211 0.33059 0.81366 0.0
C650 C 0.99222 0.32975 0.79819 0.0
C651 C 0.95765 0.33162 0.74219 0.0
C652 C 0.95318 0.3331 0.70177 0.0
C653 C 0.98766 0.33091 0.7579 0.0
C654 C 0.97913 0.33294 0.67719 0.0
C655 C 0.00904 0.33256 0.69262 0.0
H656 H 0.41801 0.04721 0.26527 0.0
H657 H 0.31972 0.05077 0.28629 0.0
H658 H 0.31455 0.99716 0.26374 0.0
H659 H 0.33838 0.94909 0.23845 0.0
H660 H 0.43658 0.94742 0.21547 0.0
H661 H 0.44126 0.00054 0.23822 0.0
C662 C 0.39543 0.03626 0.26511 0.0
C663 C 0.36933 0.05283 0.27774 0.0
C664 C 0.3926 0.00579 0.25159 0.0
C665 C 0.34019 0.03845 0.27676 0.0
C666 C 0.33723 0.00782 0.26389 0.0
C667 C 0.36076 0.96041 0.23835 0.0
C668 C 0.38709 0.94421 0.22538 0.0
C669 C 0.36333 0.99124 0.25125 0.0
C670 C 0.4159 0.95928 0.2252 0.0
C671 C 0.41866 0.98968 0.23833 0.0
H672 H 0.93771 0.30729 0.26391 0.0
H673 H 0.94788 0.40652 0.25559 0.0
H674 H 0.00146 0.40027 0.2356 0.0
H675 H 0.04546 0.36714 0.22101 0.0
H676 H 0.03649 0.26787 0.22901 0.0
H677 H 0.98234 0.2737 0.2485 0.0
C678 C 0.95165 0.32753 0.25768 0.0
C679 C 0.93872 0.35733 0.26132 0.0
C680 C 0.98264 0.32381 0.24614 0.0
C681 C 0.95714 0.3833 0.25309 0.0
C682 C 0.98784 0.37979 0.24163 0.0
C683 C 0.03175 0.34669 0.22697 0.0
C684 C 0.04509 0.3171 0.22361 0.0
C685 C 0.00081 0.3502 0.23816 0.0
C686 C 0.02684 0.29093 0.23138 0.0
C687 C 0.99587 0.29425 0.24255 0.0
H688 H 0.66274 0.98061 0.3385 0.0
H689 H 0.68081 0.93696 0.22793 0.0
H690 H 0.67938 0.98727 0.19595 0.0
H691 H 0.66982 0.04326 0.19869 0.0
H692 H 0.65108 0.08673 0.30919 0.0
H693 H 0.6561 0.03692 0.34177 0.0
C694 C 0.66665 0.98208 0.30746 0.0
C695 C 0.67165 0.95497 0.28567 0.0
C696 C 0.66551 0.01107 0.28914 0.0
C697 C 0.67677 0.9574 0.24546 0.0
C698 C 0.6759 0.98619 0.22708 0.0
C699 C 0.66706 0.0419 0.22993 0.0
C700 C 0.65987 0.0687 0.25137 0.0
C701 C 0.66977 0.01311 0.24853 0.0
C702 C 0.65651 0.06649 0.29189 0.0
C703 C 0.65934 0.03798 0.31059 0.0
H704 H 0.04868 0.5833 0.26573 0.0
H705 H 0.05317 0.68291 0.27191 0.0
H706 H -0.00055 0.68641 0.24931 0.0
H707 H 0.95118 0.66078 0.22761 0.0
H708 H 0.94874 0.56109 0.21906 0.0
H709 H 0.00173 0.55806 0.24273 0.0
C710 C 0.03792 0.60582 0.26233 0.0
C711 C 0.05479 0.63279 0.27075 0.0
C712 C 0.0074 0.60763 0.24878 0.0
C713 C 0.04062 0.66179 0.26564 0.0
C714 C 0.00993 0.66379 0.25275 0.0
C715 C 0.96229 0.63843 0.23099 0.0
C716 C 0.94598 0.6112 0.22166 0.0
C717 C 0.99308 0.63682 0.2442 0.0
C718 C 0.96075 0.58242 0.22587 0.0
C719 C 0.99106 0.58062 0.23952 0.0
loop_
_geom_bond_atom_site_label_1
_geom_bond_atom_site_label_2
_geom_bond_distance
_geom_bond_site_symmetry_2
_ccdc_geom_bond_type
C0 O1 1.160 . S
C0 O7 1.185 . S
O1 C0 1.160 . S
O2 Zn3 1.899 . S
O2 C10 1.284 . S
Zn3 O2 1.899 . S
Zn3 O4 2.032 . S
Zn3 O7 2.086 . S
Zn3 O12 1.977 . S
O4 Zn3 2.032 . S
O4 C8 1.278 . S
C5 O6 1.203 . S
C5 O12 1.267 . S
O6 C5 1.203 . S
O7 C0 1.185 . S
O7 Zn3 2.086 . S
C8 O4 1.278 . S
C8 O9 1.211 . S
O9 C8 1.211 . S
C10 O2 1.284 . S
C10 O11 1.273 . S
O11 C10 1.273 . S
O12 Zn3 1.977 . S
O12 C5 1.267 . S
C13 O14 1.160 . S
C13 O20 1.185 . S
O14 C13 1.160 . S
O15 Zn16 1.899 . S
O15 C23 1.284 . S
Zn16 O15 1.899 . S
Zn16 O17 2.032 . S
Zn16 O20 2.086 . S
Zn16 O25 1.977 . S
O17 Zn16 2.032 . S
O17 C21 1.278 . S
C18 O19 1.203 . S
C18 O25 1.267 . S
O19 C18 1.203 . S
O20 C13 1.185 . S
O20 Zn16 2.086 . S
C21 O17 1.278 . S
C21 O22 1.211 . S
O22 C21 1.211 . S
C23 O15 1.284 . S
C23 O24 1.273 . S
O24 C23 1.273 . S
O25 Zn16 1.977 . S
O25 C18 1.267 . S
C26 O27 1.160 . S
C26 O33 1.185 . S
O27 C26 1.160 . S
O28 Zn29 1.899 . S
O28 C36 1.284 . S
Zn29 O28 1.899 . S
Zn29 O30 2.032 . S
Zn29 O33 2.086 . S
Zn29 O38 1.977 . S
O30 Zn29 2.032 . S
O30 C34 1.278 . S
C31 O32 1.203 . S
C31 O38 1.267 . S
O32 C31 1.203 . S
O33 C26 1.185 . S
O33 Zn29 2.086 . S
C34 O30 1.278 . S
C34 O35 1.211 . S
O35 C34 1.211 . S
C36 O28 1.284 . S
C36 O37 1.273 . S
O37 C36 1.273 . S
O38 Zn29 1.977 . S
O38 C31 1.267 . S
C39 O40 1.160 . S
C39 O46 1.185 . S
O40 C39 1.160 . S
O41 Zn42 1.899 . S
O41 C49 1.284 . S
Zn42 O41 1.899 . S
Zn42 O43 2.032 . S
Zn42 O46 2.086 . S
Zn42 O51 1.977 . S
O43 Zn42 2.032 . S
O43 C47 1.278 . S
C44 O45 1.203 . S
C44 O51 1.267 . S
O45 C44 1.203 . S
O46 C39 1.185 . S
O46 Zn42 2.086 . S
C47 O43 1.278 . S
C47 O48 1.211 . S
O48 C47 1.211 . S
C49 O41 1.284 . S
C49 O50 1.273 . S
O50 C49 1.273 . S
O51 Zn42 1.977 . S
O51 C44 1.267 . S
C52 O53 1.160 . S
C52 O59 1.185 . S
O53 C52 1.160 . S
O54 Zn55 1.899 . S
O54 C62 1.284 . S
Zn55 O54 1.899 . S
Zn55 O56 2.032 . S
Zn55 O59 2.086 . S
Zn55 O64 1.977 . S
O56 Zn55 2.032 . S
O56 C60 1.278 . S
C57 O58 1.203 . S
C57 O64 1.267 . S
O58 C57 1.203 . S
O59 C52 1.185 . S
O59 Zn55 2.086 . S
C60 O56 1.278 . S
C60 O61 1.211 . S
O61 C60 1.211 . S
C62 O54 1.284 . S
C62 O63 1.273 . S
O63 C62 1.273 . S
O64 Zn55 1.977 . S
O64 C57 1.267 . S
C65 O66 1.160 . S
C65 O72 1.185 . S
O66 C65 1.160 . S
O67 Zn68 1.899 . S
O67 C75 1.284 . S
Zn68 O67 1.899 . S
Zn68 O69 2.032 . S
Zn68 O72 2.086 . S
Zn68 O77 1.977 . S
O69 Zn68 2.032 . S
O69 C73 1.278 . S
C70 O71 1.203 . S
C70 O77 1.267 . S
O71 C70 1.203 . S
O72 C65 1.185 . S
O72 Zn68 2.086 . S
C73 O69 1.278 . S
C73 O74 1.211 . S
O74 C73 1.211 . S
C75 O67 1.284 . S
C75 O76 1.273 . S
O76 C75 1.273 . S
O77 Zn68 1.977 . S
O77 C70 1.267 . S
C78 O79 1.160 . S
C78 O85 1.185 . S
O79 C78 1.160 . S
O80 Zn81 1.899 . S
O80 C88 1.284 . S
Zn81 O80 1.899 . S
Zn81 O82 2.032 . S
Zn81 O85 2.086 . S
Zn81 O90 1.977 . S
O82 Zn81 2.032 . S
O82 C86 1.278 . S
C83 O84 1.203 . S
C83 O90 1.267 . S
O84 C83 1.203 . S
O85 C78 1.185 . S
O85 Zn81 2.086 . S
C86 O82 1.278 . S
C86 O87 1.211 . S
O87 C86 1.211 . S
C88 O80 1.284 . S
C88 O89 1.273 . S
O89 C88 1.273 . S
O90 Zn81 1.977 . S
O90 C83 1.267 . S
C91 O92 1.160 . S
C91 O98 1.185 . S
O92 C91 1.160 . S
O93 Zn94 1.899 . S
O93 C101 1.284 . S
Zn94 O93 1.899 . S
Zn94 O95 2.032 . S
Zn94 O98 2.086 . S
Zn94 O103 1.977 . S
O95 Zn94 2.032 . S
O95 C99 1.278 . S
C96 O97 1.203 . S
C96 O103 1.267 . S
O97 C96 1.203 . S
O98 C91 1.185 . S
O98 Zn94 2.086 . S
C99 O95 1.278 . S
C99 O100 1.211 . S
O100 C99 1.211 . S
C101 O93 1.284 . S
C101 O102 1.273 . S
O102 C101 1.273 . S
O103 Zn94 1.977 . S
O103 C96 1.267 . S
C104 O105 1.160 . S
C104 O111 1.185 . S
O105 C104 1.160 . S
O106 Zn107 1.899 . S
O106 C114 1.284 . S
Zn107 O106 1.899 . S
Zn107 O108 2.032 . S
Zn107 O111 2.086 . S
Zn107 O116 1.977 . S
O108 Zn107 2.032 . S
O108 C112 1.278 . S
C109 O110 1.203 . S
C109 O116 1.267 . S
O110 C109 1.203 . S
O111 C104 1.185 . S
O111 Zn107 2.086 . S
C112 O108 1.278 . S
C112 O113 1.211 . S
O113 C112 1.211 . S
C114 O106 1.284 . S
C114 O115 1.273 . S
O115 C114 1.273 . S
O116 Zn107 1.977 . S
O116 C109 1.267 . S
C117 O118 1.160 . S
C117 O124 1.185 . S
O118 C117 1.160 . S
O119 Zn120 1.899 . S
O119 C127 1.284 . S
Zn120 O119 1.899 . S
Zn120 O121 2.032 . S
Zn120 O124 2.086 . S
Zn120 O129 1.977 . S
O121 Zn120 2.032 . S
O121 C125 1.278 . S
C122 O123 1.203 . S
C122 O129 1.267 . S
O123 C122 1.203 . S
O124 C117 1.185 . S
O124 Zn120 2.086 . S
C125 O121 1.278 . S
C125 O126 1.211 . S
O126 C125 1.211 . S
C127 O119 1.284 . S
C127 O128 1.273 . S
O128 C127 1.273 . S
O129 Zn120 1.977 . S
O129 C122 1.267 . S
C130 O131 1.160 . S
C130 O137 1.185 . S
O131 C130 1.160 . S
O132 Zn133 1.899 . S
O132 C140 1.284 . S
Zn133 O132 1.899 . S
Zn133 O134 2.032 . S
Zn133 O137 2.086 . S
Zn133 O142 1.977 . S
O134 Zn133 2.032 . S
O134 C138 1.278 . S
C135 O136 1.203 . S
C135 O142 1.267 . S
O136 C135 1.203 . S
O137 C130 1.185 . S
O137 Zn133 2.086 . S
C138 O134 1.278 . S
C138 O139 1.211 . S
O139 C138 1.211 . S
C140 O132 1.284 . S
C140 O141 1.273 . S
O141 C140 1.273 . S
O142 Zn133 1.977 . S
O142 C135 1.267 . S
C143 O144 1.160 . S
C143 O150 1.185 . S
O144 C143 1.160 . S
O145 Zn146 1.899 . S
O145 C153 1.284 . S
Zn146 O145 1.899 . S
Zn146 O147 2.032 . S
Zn146 O150 2.086 . S
Zn146 O155 1.977 . S
O147 Zn146 2.032 . S
O147 C151 1.278 . S
C148 O149 1.203 . S
C148 O155 1.267 . S
O149 C148 1.203 . S
O150 C143 1.185 . S
O150 Zn146 2.086 . S
C151 O147 1.278 . S
C151 O152 1.211 . S
O152 C151 1.211 . S
C153 O145 1.284 . S
C153 O154 1.273 . S
O154 C153 1.273 . S
O155 Zn146 1.977 . S
O155 C148 1.267 . S
C156 O157 1.160 . S
C156 O163 1.185 . S
O157 C156 1.160 . S
O158 Zn159 1.899 . S
O158 C166 1.284 . S
Zn159 O158 1.899 . S
Zn159 O160 2.032 . S
Zn159 O163 2.086 . S
Zn159 O168 1.977 . S
O160 Zn159 2.032 . S
O160 C164 1.278 . S
C161 O162 1.203 . S
C161 O168 1.267 . S
O162 C161 1.203 . S
O163 C156 1.185 . S
O163 Zn159 2.086 . S
C164 O160 1.278 . S
C164 O165 1.211 . S
O165 C164 1.211 . S
C166 O158 1.284 . S
C166 O167 1.273 . S
O167 C166 1.273 . S
O168 Zn159 1.977 . S
O168 C161 1.267 . S
C169 O170 1.160 . S
C169 O176 1.185 . S
O170 C169 1.160 . S
O171 Zn172 1.899 . S
O171 C179 1.284 . S
Zn172 O171 1.899 . S
Zn172 O173 2.032 . S
Zn172 O176 2.086 . S
Zn172 O181 1.977 . S
O173 Zn172 2.032 . S
O173 C177 1.278 . S
C174 O175 1.203 . S
C174 O181 1.267 . S
O175 C174 1.203 . S
O176 C169 1.185 . S
O176 Zn172 2.086 . S
C177 O173 1.278 . S
C177 O178 1.211 . S
O178 C177 1.211 . S
C179 O171 1.284 . S
C179 O180 1.273 . S
O180 C179 1.273 . S
O181 Zn172 1.977 . S
O181 C174 1.267 . S
C182 O183 1.160 . S
C182 O189 1.185 . S
O183 C182 1.160 . S
O184 Zn185 1.899 . S
O184 C192 1.284 . S
Zn185 O184 1.899 . S
Zn185 O186 2.032 . S
Zn185 O189 2.086 . S
Zn185 O194 1.977 . S
O186 Zn185 2.032 . S
O186 C190 1.278 . S
C187 O188 1.203 . S
C187 O194 1.267 . S
O188 C187 1.203 . S
O189 C182 1.185 . S
O189 Zn185 2.086 . S
C190 O186 1.278 . S
C190 O191 1.211 . S
O191 C190 1.211 . S
C192 O184 1.284 . S
C192 O193 1.273 . S
O193 C192 1.273 . S
O194 Zn185 1.977 . S
O194 C187 1.267 . S
C195 O196 1.160 . S
C195 O202 1.185 . S
O196 C195 1.160 . S
O197 Zn198 1.899 . S
O197 C205 1.284 . S
Zn198 O197 1.899 . S
Zn198 O199 2.032 . S
Zn198 O202 2.086 . S
Zn198 O207 1.977 . S
O199 Zn198 2.032 . S
O199 C203 1.278 . S
C200 O201 1.203 . S
C200 O207 1.267 . S
O201 C200 1.203 . S
O202 C195 1.185 . S
O202 Zn198 2.086 . S
C203 O199 1.278 . S
C203 O204 1.211 . S
O204 C203 1.211 . S
C205 O197 1.284 . S
C205 O206 1.273 . S
O206 C205 1.273 . S
O207 Zn198 1.977 . S
O207 C200 1.267 . S
H208 C214 0.930 . S
H209 C217 0.930 . S
H210 C218 0.930 . S
H211 C219 0.930 . S
H212 C222 0.930 . S
H213 C223 0.930 . S
C214 H208 0.930 . S
C214 C215 1.355 . S
C214 C216 1.415 . S
C215 C214 1.355 . S
C215 C217 1.419 . S
C216 C214 1.415 . S
C216 C221 1.425 . S
C216 C223 1.409 . S
C217 H209 0.930 . S
C217 C215 1.419 . S
C217 C218 1.362 . S
C218 H210 0.930 . S
C218 C217 1.362 . S
C218 C221 1.409 . S
C219 H211 0.930 . S
C219 C220 1.355 . S
C219 C221 1.415 . S
C220 C219 1.355 . S
C220 C222 1.419 . S
C221 C216 1.425 . S
C221 C218 1.409 . S
C221 C219 1.415 . S
C222 H212 0.930 . S
C222 C220 1.419 . S
C222 C223 1.362 . S
C223 H213 0.930 . S
C223 C216 1.409 . S
C223 C222 1.362 . S
H224 C230 0.930 . S
H225 C233 0.930 . S
H226 C234 0.930 . S
H227 C235 0.930 . S
H228 C238 0.930 . S
H229 C239 0.930 . S
C230 H224 0.930 . S
C230 C231 1.355 . S
C230 C232 1.415 . S
C231 C230 1.355 . S
C231 C233 1.419 . S
C232 C230 1.415 . S
C232 C237 1.425 . S
C232 C239 1.409 . S
C233 H225 0.930 . S
C233 C231 1.419 . S
C233 C234 1.362 . S
C234 H226 0.930 . S
C234 C233 1.362 . S
C234 C237 1.409 . S
C235 H227 0.930 . S
C235 C236 1.355 . S
C235 C237 1.415 . S
C236 C235 1.355 . S
C236 C238 1.419 . S
C237 C232 1.425 . S
C237 C234 1.409 . S
C237 C235 1.415 . S
C238 H228 0.930 . S
C238 C236 1.419 . S
C238 C239 1.362 . S
C239 H229 0.930 . S
C239 C232 1.409 . S
C239 C238 1.362 . S
H240 C246 0.930 . S
H241 C249 0.930 . S
H242 C250 0.930 . S
H243 C251 0.930 . S
H244 C254 0.930 . S
H245 C255 0.930 . S
C246 H240 0.930 . S
C246 C247 1.355 . S
C246 C248 1.415 . S
C247 C246 1.355 . S
C247 C249 1.419 . S
C248 C246 1.415 . S
C248 C253 1.425 . S
C248 C255 1.409 . S
C249 H241 0.930 . S
C249 C247 1.419 . S
C249 C250 1.362 . S
C250 H242 0.930 . S
C250 C249 1.362 . S
C250 C253 1.409 . S
C251 H243 0.930 . S
C251 C252 1.355 . S
C251 C253 1.415 . S
C252 C251 1.355 . S
C252 C254 1.419 . S
C253 C248 1.425 . S
C253 C250 1.409 . S
C253 C251 1.415 . S
C254 H244 0.930 . S
C254 C252 1.419 . S
C254 C255 1.362 . S
C255 H245 0.930 . S
C255 C248 1.409 . S
C255 C254 1.362 . S
H256 C262 0.930 . S
H257 C265 0.930 . S
H258 C266 0.930 . S
H259 C267 0.930 . S
H260 C270 0.930 . S
H261 C271 0.930 . S
C262 H256 0.930 . S
C262 C263 1.355 . S
C262 C264 1.415 . S
C263 C262 1.355 . S
C263 C265 1.419 . S
C264 C262 1.415 . S
C264 C269 1.425 . S
C264 C271 1.409 . S
C265 H257 0.930 . S
C265 C263 1.419 . S
C265 C266 1.362 . S
C266 H258 0.930 . S
C266 C265 1.362 . S
C266 C269 1.409 . S
C267 H259 0.930 . S
C267 C268 1.355 . S
C267 C269 1.415 . S
C268 C267 1.355 . S
C268 C270 1.419 . S
C269 C264 1.425 . S
C269 C266 1.409 . S
C269 C267 1.415 . S
C270 H260 0.930 . S
C270 C268 1.419 . S
C270 C271 1.362 . S
C271 H261 0.930 . S
C271 C264 1.409 . S
C271 C270 1.362 . S
H272 C278 0.930 . S
H273 C281 0.930 . S
H274 C282 0.930 . S
H275 C283 0.930 . S
H276 C286 0.930 . S
H277 C287 0.930 . S
C278 H272 0.930 . S
C278 C279 1.355 . S
C278 C280 1.415 . S
C279 C278 1.355 . S
C279 C281 1.419 . S
C280 C278 1.415 . S
C280 C285 1.425 . S
C280 C287 1.409 . S
C281 H273 0.930 . S
C281 C279 1.419 . S
C281 C282 1.362 . S
C282 H274 0.930 . S
C282 C281 1.362 . S
C282 C285 1.409 . S
C283 H275 0.930 . S
C283 C284 1.355 . S
C283 C285 1.415 . S
C284 C283 1.355 . S
C284 C286 1.419 . S
C285 C280 1.425 . S
C285 C282 1.409 . S
C285 C283 1.415 . S
C286 H276 0.930 . S
C286 C284 1.419 . S
C286 C287 1.362 . S
C287 H277 0.930 . S
C287 C280 1.409 . S
C287 C286 1.362 . S
H288 C294 0.930 . S
H289 C297 0.930 . S
H290 C298 0.930 . S
H291 C299 0.930 . S
H292 C302 0.930 . S
H293 C303 0.930 . S
C294 H288 0.930 . S
C294 C295 1.355 . S
C294 C296 1.415 . S
C295 C294 1.355 . S
C295 C297 1.419 . S
C296 C294 1.415 . S
C296 C301 1.425 . S
C296 C303 1.409 . S
C297 H289 0.930 . S
C297 C295 1.419 . S
C297 C298 1.362 . S
C298 H290 0.930 . S
C298 C297 1.362 . S
C298 C301 1.409 . S
C299 H291 0.930 . S
C299 C300 1.355 . S
C299 C301 1.415 . S
C300 C299 1.355 . S
C300 C302 1.419 . S
C301 C296 1.425 . S
C301 C298 1.409 . S
C301 C299 1.415 . S
C302 H292 0.930 . S
C302 C300 1.419 . S
C302 C303 1.362 . S
C303 H293 0.930 . S
C303 C296 1.409 . S
C303 C302 1.362 . S
H304 C310 0.930 . S
H305 C313 0.930 . S
H306 C314 0.930 . S
H307 C315 0.930 . S
H308 C318 0.930 . S
H309 C319 0.930 . S
C310 H304 0.930 . S
C310 C311 1.355 . S
C310 C312 1.415 . S
C311 C310 1.355 . S
C311 C313 1.419 . S
C312 C310 1.415 . S
C312 C317 1.425 . S
C312 C319 1.409 . S
C313 H305 0.930 . S
C313 C311 1.419 . S
C313 C314 1.362 . S
C314 H306 0.930 . S
C314 C313 1.362 . S
C314 C317 1.409 . S
C315 H307 0.930 . S
C315 C316 1.355 . S
C315 C317 1.415 . S
C316 C315 1.355 . S
C316 C318 1.419 . S
C317 C312 1.425 . S
C317 C314 1.409 . S
C317 C315 1.415 . S
C318 H308 0.930 . S
C318 C316 1.419 . S
C318 C319 1.362 . S
C319 H309 0.930 . S
C319 C312 1.409 . S
C319 C318 1.362 . S
H320 C326 0.930 . S
H321 C329 0.930 . S
H322 C330 0.930 . S
H323 C331 0.930 . S
H324 C334 0.930 . S
H325 C335 0.930 . S
C326 H320 0.930 . S
C326 C327 1.355 . S
C326 C328 1.415 . S
C327 C326 1.355 . S
C327 C329 1.419 . S
C328 C326 1.415 . S
C328 C333 1.425 . S
C328 C335 1.409 . S
C329 H321 0.930 . S
C329 C327 1.419 . S
C329 C330 1.362 . S
C330 H322 0.930 . S
C330 C329 1.362 . S
C330 C333 1.409 . S
C331 H323 0.930 . S
C331 C332 1.355 . S
C331 C333 1.415 . S
C332 C331 1.355 . S
C332 C334 1.419 . S
C333 C328 1.425 . S
C333 C330 1.409 . S
C333 C331 1.415 . S
C334 H324 0.930 . S
C334 C332 1.419 . S
C334 C335 1.362 . S
C335 H325 0.930 . S
C335 C328 1.409 . S
C335 C334 1.362 . S
H336 C342 0.930 . S
H337 C345 0.930 . S
H338 C346 0.930 . S
H339 C347 0.930 . S
H340 C350 0.930 . S
H341 C351 0.930 . S
C342 H336 0.930 . S
C342 C343 1.355 . S
C342 C344 1.415 . S
C343 C342 1.355 . S
C343 C345 1.419 . S
C344 C342 1.415 . S
C344 C349 1.425 1_556 S
C344 C351 1.409 1_556 S
C345 H337 0.930 . S
C345 C343 1.419 . S
C345 C346 1.362 . S
C346 H338 0.930 . S
C346 C345 1.362 . S
C346 C349 1.409 1_556 S
C347 H339 0.930 . S
C347 C348 1.355 . S
C347 C349 1.415 . S
C348 C347 1.355 . S
C348 C350 1.419 . S
C349 C344 1.425 1_554 S
C349 C346 1.409 1_554 S
C349 C347 1.415 . S
C350 H340 0.930 . S
C350 C348 1.419 . S
C350 C351 1.362 . S
C351 H341 0.930 . S
C351 C344 1.409 1_554 S
C351 C350 1.362 . S
H352 C358 0.930 . S
H353 C361 0.930 . S
H354 C362 0.930 . S
H355 C363 0.930 . S
H356 C366 0.930 . S
H357 C367 0.930 . S
C358 H352 0.930 . S
C358 C359 1.355 . S
C358 C360 1.415 . S
C359 C358 1.355 . S
C359 C361 1.419 . S
C360 C358 1.415 . S
C360 C365 1.425 1_556 S
C360 C367 1.409 1_556 S
C361 H353 0.930 . S
C361 C359 1.419 . S
C361 C362 1.362 . S
C362 H354 0.930 . S
C362 C361 1.362 . S
C362 C365 1.409 1_556 S
C363 H355 0.930 . S
C363 C364 1.355 . S
C363 C365 1.415 . S
C364 C363 1.355 . S
C364 C366 1.419 . S
C365 C360 1.425 1_554 S
C365 C362 1.409 1_554 S
C365 C363 1.415 . S
C366 H356 0.930 . S
C366 C364 1.419 . S
C366 C367 1.362 . S
C367 H357 0.930 . S
C367 C360 1.409 1_554 S
C367 C366 1.362 . S
H368 C374 0.930 . S
H369 C377 0.930 . S
H370 C378 0.930 . S
H371 C379 0.930 . S
H372 C382 0.930 . S
H373 C383 0.930 . S
C374 H368 0.930 . S
C374 C375 1.355 . S
C374 C376 1.415 . S
C375 C374 1.355 . S
C375 C377 1.419 . S
C376 C374 1.415 . S
C376 C381 1.425 1_556 S
C376 C383 1.409 1_556 S
C377 H369 0.930 . S
C377 C375 1.419 . S
C377 C378 1.362 . S
C378 H370 0.930 . S
C378 C377 1.362 . S
C378 C381 1.409 1_556 S
C379 H371 0.930 . S
C379 C380 1.355 . S
C379 C381 1.415 . S
C380 C379 1.355 . S
C380 C382 1.419 . S
C381 C376 1.425 1_554 S
C381 C378 1.409 1_554 S
C381 C379 1.415 . S
C382 H372 0.930 . S
C382 C380 1.419 . S
C382 C383 1.362 . S
C383 H373 0.930 . S
C383 C376 1.409 1_554 S
C383 C382 1.362 . S
H384 C390 0.930 . S
H385 C393 0.930 . S
H386 C394 0.930 . S
H387 C395 0.930 . S
H388 C398 0.930 . S
H389 C399 0.930 . S
C390 H384 0.930 . S
C390 C391 1.355 . S
C390 C392 1.415 . S
C391 C390 1.355 . S
C391 C393 1.419 . S
C392 C390 1.415 . S
C392 C397 1.425 1_554 S
C392 C399 1.409 1_554 S
C393 H385 0.930 . S
C393 C391 1.419 . S
C393 C394 1.362 . S
C394 H386 0.930 . S
C394 C393 1.362 . S
C394 C397 1.409 1_554 S
C395 H387 0.930 . S
C395 C396 1.355 . S
C395 C397 1.415 . S
C396 C395 1.355 . S
C396 C398 1.419 . S
C397 C392 1.425 1_556 S
C397 C394 1.409 1_556 S
C397 C395 1.415 . S
C398 H388 0.930 . S
C398 C396 1.419 . S
C398 C399 1.362 . S
C399 H389 0.930 . S
C399 C392 1.409 1_556 S
C399 C398 1.362 . S
H400 C406 0.930 . S
H401 C409 0.930 . S
H402 C410 0.930 . S
H403 C411 0.930 . S
H404 C414 0.930 . S
H405 C415 0.930 . S
C406 H400 0.930 . S
C406 C407 1.355 . S
C406 C408 1.415 . S
C407 C406 1.355 . S
C407 C409 1.419 . S
C408 C406 1.415 . S
C408 C413 1.425 . S
C408 C415 1.409 . S
C409 H401 0.930 . S
C409 C407 1.419 . S
C409 C410 1.362 . S
C410 H402 0.930 . S
C410 C409 1.362 . S
C410 C413 1.409 . S
C411 H403 0.930 . S
C411 C412 1.355 . S
C411 C413 1.415 . S
C412 C411 1.355 . S
C412 C414 1.419 . S
C413 C408 1.425 . S
C413 C410 1.409 . S
C413 C411 1.415 . S
C414 H404 0.930 . S
C414 C412 1.419 . S
C414 C415 1.362 . S
C415 H405 0.930 . S
C415 C408 1.409 . S
C415 C414 1.362 . S
H416 C422 0.930 . S
H417 C425 0.930 . S
H418 C426 0.930 . S
H419 C427 0.930 . S
H420 C430 0.930 . S
H421 C431 0.930 . S
C422 H416 0.930 . S
C422 C423 1.355 . S
C422 C424 1.415 . S
C423 C422 1.355 . S
C423 C425 1.419 . S
C424 C422 1.415 . S
C424 C429 1.425 . S
C424 C431 1.409 . S
C425 H417 0.930 . S
C425 C423 1.419 . S
C425 C426 1.362 . S
C426 H418 0.930 . S
C426 C425 1.362 . S
C426 C429 1.409 . S
C427 H419 0.930 . S
C427 C428 1.355 . S
C427 C429 1.415 . S
C428 C427 1.355 . S
C428 C430 1.419 . S
C429 C424 1.425 . S
C429 C426 1.409 . S
C429 C427 1.415 . S
C430 H420 0.930 . S
C430 C428 1.419 . S
C430 C431 1.362 . S
C431 H421 0.930 . S
C431 C424 1.409 . S
C431 C430 1.362 . S
H432 C438 0.930 . S
H433 C441 0.930 . S
H434 C442 0.930 . S
H435 C443 0.930 . S
H436 C446 0.930 . S
H437 C447 0.930 . S
C438 H432 0.930 . S
C438 C439 1.355 . S
C438 C440 1.415 . S
C439 C438 1.355 . S
C439 C441 1.419 . S
C440 C438 1.415 . S
C440 C445 1.425 . S
C440 C447 1.409 . S
C441 H433 0.930 . S
C441 C439 1.419 . S
C441 C442 1.362 . S
C442 H434 0.930 . S
C442 C441 1.362 . S
C442 C445 1.409 . S
C443 H435 0.930 . S
C443 C444 1.355 . S
C443 C445 1.415 . S
C444 C443 1.355 . S
C444 C446 1.419 . S
C445 C440 1.425 . S
C445 C442 1.409 . S
C445 C443 1.415 . S
C446 H436 0.930 . S
C446 C444 1.419 . S
C446 C447 1.362 . S
C447 H437 0.930 . S
C447 C440 1.409 . S
C447 C446 1.362 . S
H448 C454 0.930 . S
H449 C457 0.930 . S
H450 C458 0.930 . S
H451 C459 0.930 . S
H452 C462 0.930 . S
H453 C463 0.930 . S
C454 H448 0.930 . S
C454 C455 1.355 . S
C454 C456 1.415 . S
C455 C454 1.355 . S
C455 C457 1.419 . S
C456 C454 1.415 . S
C456 C461 1.425 . S
C456 C463 1.409 . S
C457 H449 0.930 . S
C457 C455 1.419 . S
C457 C458 1.362 . S
C458 H450 0.930 . S
C458 C457 1.362 . S
C458 C461 1.409 . S
C459 H451 0.930 . S
C459 C460 1.355 . S
C459 C461 1.415 . S
C460 C459 1.355 . S
C460 C462 1.419 . S
C461 C456 1.425 . S
C461 C458 1.409 . S
C461 C459 1.415 . S
C462 H452 0.930 . S
C462 C460 1.419 . S
C462 C463 1.362 . S
C463 H453 0.930 . S
C463 C456 1.409 . S
C463 C462 1.362 . S
H464 C470 0.930 . S
H465 C473 0.930 . S
H466 C474 0.930 . S
H467 C475 0.930 . S
H468 C478 0.930 . S
H469 C479 0.930 . S
C470 H464 0.930 . S
C470 C471 1.355 . S
C470 C472 1.415 . S
C471 C470 1.355 . S
C471 C473 1.419 . S
C472 C470 1.415 . S
C472 C477 1.425 . S
C472 C479 1.409 . S
C473 H465 0.930 . S
C473 C471 1.419 . S
C473 C474 1.362 . S
C474 H466 0.930 . S
C474 C473 1.362 . S
C474 C477 1.409 . S
C475 H467 0.930 . S
C475 C476 1.355 . S
C475 C477 1.415 . S
C476 C475 1.355 . S
C476 C478 1.419 . S
C477 C472 1.425 . S
C477 C474 1.409 . S
C477 C475 1.415 . S
C478 H468 0.930 . S
C478 C476 1.419 . S
C478 C479 1.362 . S
C479 H469 0.930 . S
C479 C472 1.409 . S
C479 C478 1.362 . S
H480 C486 0.930 . S
H481 C489 0.930 . S
H482 C490 0.930 . S
H483 C491 0.930 . S
H484 C494 0.930 . S
H485 C495 0.930 . S
C486 H480 0.930 . S
C486 C487 1.355 . S
C486 C488 1.415 . S
C487 C486 1.355 . S
C487 C489 1.419 . S
C488 C486 1.415 . S
C488 C493 1.425 . S
C488 C495 1.409 . S
C489 H481 0.930 . S
C489 C487 1.419 . S
C489 C490 1.362 . S
C490 H482 0.930 . S
C490 C489 1.362 . S
C490 C493 1.409 . S
C491 H483 0.930 . S
C491 C492 1.355 . S
C491 C493 1.415 . S
C492 C491 1.355 . S
C492 C494 1.419 . S
C493 C488 1.425 . S
C493 C490 1.409 . S
C493 C491 1.415 . S
C494 H484 0.930 . S
C494 C492 1.419 . S
C494 C495 1.362 . S
C495 H485 0.930 . S
C495 C488 1.409 . S
C495 C494 1.362 . S
H496 C502 0.930 . S
H497 C505 0.930 . S
H498 C506 0.930 . S
H499 C507 0.930 . S
H500 C510 0.930 . S
H501 C511 0.930 . S
C502 H496 0.930 . S
C502 C503 1.355 . S
C502 C504 1.415 . S
C503 C502 1.355 . S
C503 C505 1.419 . S
C504 C502 1.415 . S
C504 C509 1.425 . S
C504 C511 1.409 . S
C505 H497 0.930 . S
C505 C503 1.419 . S
C505 C506 1.362 . S
C506 H498 0.930 . S
C506 C505 1.362 . S
C506 C509 1.409 . S
C507 H499 0.930 . S
C507 C508 1.355 . S
C507 C509 1.415 . S
C508 C507 1.355 . S
C508 C510 1.419 . S
C509 C504 1.425 . S
C509 C506 1.409 . S
C509 C507 1.415 . S
C510 H500 0.930 . S
C510 C508 1.419 . S
C510 C511 1.362 . S
C511 H501 0.930 . S
C511 C504 1.409 . S
C511 C510 1.362 . S
H512 C518 0.930 . S
H513 C521 0.930 . S
H514 C522 0.930 . S
H515 C523 0.930 . S
H516 C526 0.930 . S
H517 C527 0.930 . S
C518 H512 0.930 . S
C518 C519 1.355 . S
C518 C520 1.415 . S
C519 C518 1.355 . S
C519 C521 1.419 . S
C520 C518 1.415 . S
C520 C525 1.425 . S
C520 C527 1.409 . S
C521 H513 0.930 . S
C521 C519 1.419 . S
C521 C522 1.362 . S
C522 H514 0.930 . S
C522 C521 1.362 . S
C522 C525 1.409 . S
C523 H515 0.930 . S
C523 C524 1.355 . S
C523 C525 1.415 . S
C524 C523 1.355 . S
C524 C526 1.419 . S
C525 C520 1.425 . S
C525 C522 1.409 . S
C525 C523 1.415 . S
C526 H516 0.930 . S
C526 C524 1.419 . S
C526 C527 1.362 . S
C527 H517 0.930 . S
C527 C520 1.409 . S
C527 C526 1.362 . S
H528 C534 0.930 . S
H529 C537 0.930 . S
H530 C538 0.930 . S
H531 C539 0.930 . S
H532 C542 0.930 . S
H533 C543 0.930 . S
C534 H528 0.930 . S
C534 C535 1.355 . S
C534 C536 1.415 . S
C535 C534 1.355 . S
C535 C537 1.419 . S
C536 C534 1.415 . S
C536 C541 1.425 . S
C536 C543 1.409 . S
C537 H529 0.930 . S
C537 C535 1.419 . S
C537 C538 1.362 . S
C538 H530 0.930 . S
C538 C537 1.362 . S
C538 C541 1.409 . S
C539 H531 0.930 . S
C539 C540 1.355 . S
C539 C541 1.415 . S
C540 C539 1.355 . S
C540 C542 1.419 . S
C541 C536 1.425 . S
C541 C538 1.409 . S
C541 C539 1.415 . S
C542 H532 0.930 . S
C542 C540 1.419 . S
C542 C543 1.362 . S
C543 H533 0.930 . S
C543 C536 1.409 . S
C543 C542 1.362 . S
H544 C550 0.930 . S
H545 C553 0.930 . S
H546 C554 0.930 . S
H547 C555 0.930 . S
H548 C558 0.930 . S
H549 C559 0.930 . S
C550 H544 0.930 . S
C550 C551 1.355 . S
C550 C552 1.415 . S
C551 C550 1.355 . S
C551 C553 1.419 . S
C552 C550 1.415 . S
C552 C557 1.425 . S
C552 C559 1.409 . S
C553 H545 0.930 . S
C553 C551 1.419 . S
C553 C554 1.362 . S
C554 H546 0.930 . S
C554 C553 1.362 . S
C554 C557 1.409 . S
C555 H547 0.930 . S
C555 C556 1.355 . S
C555 C557 1.415 . S
C556 C555 1.355 . S
C556 C558 1.419 . S
C557 C552 1.425 . S
C557 C554 1.409 . S
C557 C555 1.415 . S
C558 H548 0.930 . S
C558 C556 1.419 . S
C558 C559 1.362 . S
C559 H549 0.930 . S
C559 C552 1.409 . S
C559 C558 1.362 . S
H560 C566 0.930 . S
H561 C569 0.930 . S
H562 C570 0.930 . S
H563 C571 0.930 . S
H564 C574 0.930 . S
H565 C575 0.930 . S
C566 H560 0.930 . S
C566 C567 1.355 . S
C566 C568 1.415 . S
C567 C566 1.355 . S
C567 C569 1.419 . S
C568 C566 1.415 . S
C568 C573 1.425 . S
C568 C575 1.409 . S
C569 H561 0.930 . S
C569 C567 1.419 . S
C569 C570 1.362 . S
C570 H562 0.930 . S
C570 C569 1.362 . S
C570 C573 1.409 . S
C571 H563 0.930 . S
C571 C572 1.355 . S
C571 C573 1.415 . S
C572 C571 1.355 . S
C572 C574 1.419 . S
C573 C568 1.425 . S
C573 C570 1.409 . S
C573 C571 1.415 . S
C574 H564 0.930 . S
C574 C572 1.419 . S
C574 C575 1.362 . S
C575 H565 0.930 . S
C575 C568 1.409 . S
C575 C574 1.362 . S
H576 C582 0.930 . S
H577 C585 0.930 . S
H578 C586 0.930 . S
H579 C587 0.930 . S
H580 C590 0.930 . S
H581 C591 0.930 . S
C582 H576 0.930 . S
C582 C583 1.355 . S
C582 C584 1.415 . S
C583 C582 1.355 . S
C583 C585 1.419 . S
C584 C582 1.415 . S
C584 C589 1.425 . S
C584 C591 1.409 . S
C585 H577 0.930 . S
C585 C583 1.419 . S
C585 C586 1.362 . S
C586 H578 0.930 . S
C586 C585 1.362 . S
C586 C589 1.409 . S
C587 H579 0.930 . S
C587 C588 1.355 . S
C587 C589 1.415 . S
C588 C587 1.355 . S
C588 C590 1.419 . S
C589 C584 1.425 . S
C589 C586 1.409 . S
C589 C587 1.415 . S
C590 H580 0.930 . S
C590 C588 1.419 . S
C590 C591 1.362 . S
C591 H581 0.930 . S
C591 C584 1.409 . S
C591 C590 1.362 . S
H592 C598 0.930 . S
H593 C601 0.930 . S
H594 C602 0.930 . S
H595 C603 0.930 . S
H596 C606 0.930 . S
H597 C607 0.930 . S
C598 H592 0.930 . S
C598 C599 1.355 . S
C598 C600 1.415 . S
C599 C598 1.355 . S
C599 C601 1.419 . S
C600 C598 1.415 . S
C600 C605 1.425 1_545 S
C600 C607 1.409 1_545 S
C601 H593 0.930 . S
C601 C599 1.419 . S
C601 C602 1.362 . S
C602 H594 0.930 . S
C602 C601 1.362 . S
C602 C605 1.409 1_545 S
C603 H595 0.930 . S
C603 C604 1.355 . S
C603 C605 1.415 . S
C604 C603 1.355 . S
C604 C606 1.419 . S
C605 C600 1.425 1_565 S
C605 C602 1.409 1_565 S
C605 C603 1.415 . S
C606 H596 0.930 . S
C606 C604 1.419 . S
C606 C607 1.362 . S
C607 H597 0.930 . S
C607 C600 1.409 1_565 S
C607 C606 1.362 . S
H608 C614 0.930 . S
H609 C617 0.930 . S
H610 C618 0.930 . S
H611 C619 0.930 . S
H612 C622 0.930 . S
H613 C623 0.930 . S
C614 H608 0.930 . S
C614 C615 1.355 . S
C614 C616 1.415 . S
C615 C614 1.355 . S
C615 C617 1.419 . S
C616 C614 1.415 . S
C616 C621 1.425 1_655 S
C616 C623 1.409 1_655 S
C617 H609 0.930 . S
C617 C615 1.419 . S
C617 C618 1.362 . S
C618 H610 0.930 . S
C618 C617 1.362 . S
C618 C621 1.409 1_655 S
C619 H611 0.930 . S
C619 C620 1.355 . S
C619 C621 1.415 . S
C620 C619 1.355 . S
C620 C622 1.419 . S
C621 C616 1.425 1_455 S
C621 C618 1.409 1_455 S
C621 C619 1.415 . S
C622 H612 0.930 . S
C622 C620 1.419 . S
C622 C623 1.362 . S
C623 H613 0.930 . S
C623 C616 1.409 1_455 S
C623 C622 1.362 . S
H624 C630 0.930 . S
H625 C633 0.930 . S
H626 C634 0.930 . S
H627 C635 0.930 . S
H628 C638 0.930 . S
H629 C639 0.930 . S
C630 H624 0.930 . S
C630 C631 1.355 . S
C630 C632 1.415 . S
C631 C630 1.355 . S
C631 C633 1.419 . S
C632 C630 1.415 . S
C632 C637 1.425 1_545 S
C632 C639 1.409 1_545 S
C633 H625 0.930 . S
C633 C631 1.419 . S
C633 C634 1.362 . S
C634 H626 0.930 . S
C634 C633 1.362 . S
C634 C637 1.409 1_545 S
C635 H627 0.930 . S
C635 C636 1.355 . S
C635 C637 1.415 . S
C636 C635 1.355 . S
C636 C638 1.419 . S
C637 C632 1.425 1_565 S
C637 C634 1.409 1_565 S
C637 C635 1.415 . S
C638 H628 0.930 . S
C638 C636 1.419 . S
C638 C639 1.362 . S
C639 H629 0.930 . S
C639 C632 1.409 1_565 S
C639 C638 1.362 . S
H640 C646 0.930 . S
H641 C649 0.930 . S
H642 C650 0.930 . S
H643 C651 0.930 . S
H644 C654 0.930 . S
H645 C655 0.930 . S
C646 H640 0.930 . S
C646 C647 1.355 . S
C646 C648 1.415 . S
C647 C646 1.355 . S
C647 C649 1.419 . S
C648 C646 1.415 . S
C648 C653 1.425 1_455 S
C648 C655 1.409 1_455 S
C649 H641 0.930 . S
C649 C647 1.419 . S
C649 C650 1.362 . S
C650 H642 0.930 . S
C650 C649 1.362 . S
C650 C653 1.409 1_455 S
C651 H643 0.930 . S
C651 C652 1.355 . S
C651 C653 1.415 . S
C652 C651 1.355 . S
C652 C654 1.419 . S
C653 C648 1.425 1_655 S
C653 C650 1.409 1_655 S
C653 C651 1.415 . S
C654 H644 0.930 . S
C654 C652 1.419 . S
C654 C655 1.362 . S
C655 H645 0.930 . S
C655 C648 1.409 1_655 S
C655 C654 1.362 . S
H656 C662 0.930 . S
H657 C665 0.930 . S
H658 C666 0.930 . S
H659 C667 0.930 . S
H660 C670 0.930 . S
H661 C671 0.930 . S
C662 H656 0.930 . S
C662 C663 1.355 . S
C662 C664 1.415 . S
C663 C662 1.355 . S
C663 C665 1.419 . S
C664 C662 1.415 . S
C664 C669 1.425 1_545 S
C664 C671 1.409 1_545 S
C665 H657 0.930 . S
C665 C663 1.419 . S
C665 C666 1.362 . S
C666 H658 0.930 . S
C666 C665 1.362 . S
C666 C669 1.409 1_545 S
C667 H659 0.930 . S
C667 C668 1.355 . S
C667 C669 1.415 . S
C668 C667 1.355 . S
C668 C670 1.419 . S
C669 C664 1.425 1_565 S
C669 C666 1.409 1_565 S
C669 C667 1.415 . S
C670 H660 0.930 . S
C670 C668 1.419 . S
C670 C671 1.362 . S
C671 H661 0.930 . S
C671 C664 1.409 1_565 S
C671 C670 1.362 . S
H672 C678 0.930 . S
H673 C681 0.930 . S
H674 C682 0.930 1_455 S
H675 C683 0.930 . S
H676 C686 0.930 . S
H677 C687 0.930 1_655 S
C678 H672 0.930 . S
C678 C679 1.355 . S
C678 C680 1.415 . S
C679 C678 1.355 . S
C679 C681 1.419 . S
C680 C678 1.415 . S
C680 C685 1.425 1_655 S
C680 C687 1.409 1_655 S
C681 H673 0.930 . S
C681 C679 1.419 . S
C681 C682 1.362 . S
C682 H674 0.930 1_655 S
C682 C681 1.362 . S
C682 C685 1.409 1_655 S
C683 H675 0.930 . S
C683 C684 1.355 . S
C683 C685 1.415 . S
C684 C683 1.355 . S
C684 C686 1.419 . S
C685 C680 1.425 1_455 S
C685 C682 1.409 1_455 S
C685 C683 1.415 . S
C686 H676 0.930 . S
C686 C684 1.419 . S
C686 C687 1.362 . S
C687 H677 0.930 1_455 S
C687 C680 1.409 1_455 S
C687 C686 1.362 . S
H688 C694 0.930 . S
H689 C697 0.930 . S
H690 C698 0.930 . S
H691 C699 0.930 . S
H692 C702 0.930 . S
H693 C703 0.930 . S
C694 H688 0.930 . S
C694 C695 1.355 . S
C694 C696 1.415 . S
C695 C694 1.355 . S
C695 C697 1.419 . S
C696 C694 1.415 . S
C696 C701 1.425 1_565 S
C696 C703 1.409 1_565 S
C697 H689 0.930 . S
C697 C695 1.419 . S
C697 C698 1.362 . S
C698 H690 0.930 . S
C698 C697 1.362 . S
C698 C701 1.409 1_565 S
C699 H691 0.930 . S
C699 C700 1.355 . S
C699 C701 1.415 . S
C700 C699 1.355 . S
C700 C702 1.419 . S
C701 C696 1.425 1_545 S
C701 C698 1.409 1_545 S
C701 C699 1.415 . S
C702 H692 0.930 . S
C702 C700 1.419 . S
C702 C703 1.362 . S
C703 H693 0.930 . S
C703 C696 1.409 1_545 S
C703 C702 1.362 . S
H704 C710 0.930 . S
H705 C713 0.930 . S
H706 C714 0.930 . S
H707 C715 0.930 . S
H708 C718 0.930 . S
H709 C719 0.930 . S
C710 H704 0.930 . S
C710 C711 1.355 . S
C710 C712 1.415 . S
C711 C710 1.355 . S
C711 C713 1.419 . S
C712 C710 1.415 . S
C712 C717 1.425 1_455 S
C712 C719 1.409 1_455 S
C713 H705 0.930 . S
C713 C711 1.419 . S
C713 C714 1.362 . S
C714 H706 0.930 . S
C714 C713 1.362 . S
C714 C717 1.409 1_455 S
C715 H707 0.930 . S
C715 C716 1.355 . S
C715 C717 1.415 . S
C716 C715 1.355 . S
C716 C718 1.419 . S
C717 C712 1.425 1_655 S
C717 C714 1.409 1_655 S
C717 C715 1.415 . S
C718 H708 0.930 . S
C718 C716 1.419 . S
C718 C719 1.362 . S
C719 H709 0.930 . S
C719 C712 1.409 1_655 S
C719 C718 1.362 . S
C215 C65 1.250 . S
C220 C0 1.296 . S
C231 C78 1.299 . S
C236 C13 1.268 . S
C247 C26 1.251 . S
C252 C91 1.269 . S
C263 C39 1.298 . S
C268 C52 1.253 . S
C279 C169 1.248 . S
C284 C104 1.293 . S
C295 C182 1.261 . S
C300 C117 1.300 . S
C311 C130 1.288 . S
C316 C195 1.286 . S
C327 C143 1.249 . S
C332 C156 1.294 . S
C343 C138 1.436 . S
C348 C8 1.480 . S
C359 C151 1.471 . S
C364 C21 1.432 . S
C375 C112 1.444 . S
C380 C34 1.437 . S
C391 C47 1.487 . S
C396 C125 1.444 . S
C407 C190 1.485 . S
C412 C60 1.479 . S
C423 C203 1.487 . S
C428 C73 1.445 . S
C439 C86 1.487 . S
C444 C164 1.444 . S
C455 C177 1.450 . S
C460 C99 1.490 . S
C471 C62 1.374 . S
C476 C10 1.347 . S
C487 C23 1.349 . S
C492 C75 1.340 . S
C503 C36 1.341 . S
C508 C88 1.347 . S
C519 C101 1.381 . S
C524 C49 1.378 . S
C535 C109 1.386 . S
C540 C161 1.455 . S
C551 C174 1.401 . S
C556 C122 1.444 . S
C567 C135 1.456 . S
C572 C187 1.386 . S
C583 C200 1.433 . S
C588 C148 1.408 . S
C599 C153 1.366 . S
C604 C179 1.341 . S
C615 C114 1.380 . S
C620 C192 1.354 . S
C631 C205 1.358 . S
C636 C127 1.382 . S
C647 C140 1.362 . S
C652 C166 1.340 . S
C663 C70 1.434 . S
C668 C44 1.411 . S
C679 C83 1.427 . S
C684 C5 1.414 . S
C695 C96 1.441 . S
C700 C18 1.403 . S
C711 C57 1.456 . S
C716 C31 1.386 . S
