# Generated by pormake.
# Topology yfk, (5)-cn, num edge types: 1
# Building blocks:
#     Node 0, Type 0, BuildingBlock: XOMCOT_clean_sbu_1, # of connection points: 5
#     Node 1, Type 0, BuildingBlock: XOMCOT_clean_sbu_1, # of connection points: 5
#     Node 2, Type 0, BuildingBlock: XOMCOT_clean_sbu_1, # of connection points: 5
#     Node 3, Type 0, BuildingBlock: XOMCOT_clean_sbu_1, # of connection points: 5
#     Node 4, Type 0, BuildingBlock: XOMCOT_clean_sbu_1, # of connection points: 5
#     Node 5, Type 0, BuildingBlock: XOMCOT_clean_sbu_1, # of connection points: 5
#     Node 6, Type 0, BuildingBlock: XOMCOT_clean_sbu_1, # of connection points: 5
#     Node 7, Type 0, BuildingBlock: XOMCOT_clean_sbu_1, # of connection points: 5
#     Node 8, Type 0, BuildingBlock: XOMCOT_clean_sbu_1, # of connection points: 5
#     Node 9, Type 0, BuildingBlock: XOMCOT_clean_sbu_1, # of connection points: 5
#     Node 10, Type 0, BuildingBlock: XOMCOT_clean_sbu_1, # of connection points: 5
#     Node 11, Type 0, BuildingBlock: XOMCOT_clean_sbu_1, # of connection points: 5
#     Node 12, Type 0, BuildingBlock: XOMCOT_clean_sbu_1, # of connection points: 5
#     Node 13, Type 0, BuildingBlock: XOMCOT_clean_sbu_1, # of connection points: 5
#     Node 14, Type 0, BuildingBlock: XOMCOT_clean_sbu_1, # of connection points: 5
#     Node 15, Type 0, BuildingBlock: XOMCOT_clean_sbu_1, # of connection points: 5
#     Edge 16, Type (0, 0), BuildingBlock: CIFDUS_clean_linker_0, # of connection points: 2
#     Edge 17, Type (0, 0), BuildingBlock: CIFDUS_clean_linker_0, # of connection points: 2
#     Edge 18, Type (0, 0), BuildingBlock: CIFDUS_clean_linker_0, # of connection points: 2
#     Edge 19, Type (0, 0), BuildingBlock: CIFDUS_clean_linker_0, # of connection points: 2
#     Edge 20, Type (0, 0), BuildingBlock: CIFDUS_clean_linker_0, # of connection points: 2
#     Edge 21, Type (0, 0), BuildingBlock: CIFDUS_clean_linker_0, # of connection points: 2
#     Edge 22, Type (0, 0), BuildingBlock: CIFDUS_clean_linker_0, # of connection points: 2
#     Edge 23, Type (0, 0), BuildingBlock: CIFDUS_clean_linker_0, # of connection points: 2
#     Edge 24, Type (0, 0), BuildingBlock: CIFDUS_clean_linker_0, # of connection points: 2
#     Edge 25, Type (0, 0), BuildingBlock: CIFDUS_clean_linker_0, # of connection points: 2
#     Edge 26, Type (0, 0), BuildingBlock: CIFDUS_clean_linker_0, # of connection points: 2
#     Edge 27, Type (0, 0), BuildingBlock: CIFDUS_clean_linker_0, # of connection points: 2
#     Edge 28, Type (0, 0), BuildingBlock: CIFDUS_clean_linker_0, # of connection points: 2
#     Edge 29, Type (0, 0), BuildingBlock: CIFDUS_clean_linker_0, # of connection points: 2
#     Edge 30, Type (0, 0), BuildingBlock: CIFDUS_clean_linker_0, # of connection points: 2
#     Edge 31, Type (0, 0), BuildingBlock: CIFDUS_clean_linker_0, # of connection points: 2
#     Edge 32, Type (0, 0), BuildingBlock: CIFDUS_clean_linker_0, # of connection points: 2
#     Edge 33, Type (0, 0), BuildingBlock: CIFDUS_clean_linker_0, # of connection points: 2
#     Edge 34, Type (0, 0), BuildingBlock: CIFDUS_clean_linker_0, # of connection points: 2
#     Edge 35, Type (0, 0), BuildingBlock: CIFDUS_clean_linker_0, # of connection points: 2
#     Edge 36, Type (0, 0), BuildingBlock: CIFDUS_clean_linker_0, # of connection points: 2
#     Edge 37, Type (0, 0), BuildingBlock: CIFDUS_clean_linker_0, # of connection points: 2
#     Edge 38, Type (0, 0), BuildingBlock: CIFDUS_clean_linker_0, # of connection points: 2
#     Edge 39, Type (0, 0), BuildingBlock: CIFDUS_clean_linker_0, # of connection points: 2
#     Edge 40, Type (0, 0), BuildingBlock: CIFDUS_clean_linker_0, # of connection points: 2
#     Edge 41, Type (0, 0), BuildingBlock: CIFDUS_clean_linker_0, # of connection points: 2
#     Edge 42, Type (0, 0), BuildingBlock: CIFDUS_clean_linker_0, # of connection points: 2
#     Edge 43, Type (0, 0), BuildingBlock: CIFDUS_clean_linker_0, # of connection points: 2
#     Edge 44, Type (0, 0), BuildingBlock: CIFDUS_clean_linker_0, # of connection points: 2
#     Edge 45, Type (0, 0), BuildingBlock: CIFDUS_clean_linker_0, # of connection points: 2
#     Edge 46, Type (0, 0), BuildingBlock: CIFDUS_clean_linker_0, # of connection points: 2
#     Edge 47, Type (0, 0), BuildingBlock: CIFDUS_clean_linker_0, # of connection points: 2
#     Edge 48, Type (0, 0), BuildingBlock: CIFDUS_clean_linker_0, # of connection points: 2
#     Edge 49, Type (0, 0), BuildingBlock: CIFDUS_clean_linker_0, # of connection points: 2
#     Edge 50, Type (0, 0), BuildingBlock: CIFDUS_clean_linker_0, # of connection points: 2
#     Edge 51, Type (0, 0), BuildingBlock: CIFDUS_clean_linker_0, # of connection points: 2
#     Edge 52, Type (0, 0), BuildingBlock: CIFDUS_clean_linker_0, # of connection points: 2
#     Edge 53, Type (0, 0), BuildingBlock: CIFDUS_clean_linker_0, # of connection points: 2
#     Edge 54, Type (0, 0), BuildingBlock: CIFDUS_clean_linker_0, # of connection points: 2
#     Edge 55, Type (0, 0), BuildingBlock: CIFDUS_clean_linker_0, # of connection points: 2
# Relax obj value: 0.586
# Max RMSD: 0.277
# Mean RMSD: 0.277
data_MOF--net-yfk--node1-XOMCOT_clean_sbu_1--edge1-CIFDUS_clean_linker_0
_symmetry_space_group_name_H-M    P1
_symmetry_Int_Tables_number       1
_symmetry_cell_setting            triclinic
loop_
_symmetry_equiv_pos_as_xyz
'x, y, z'
_cell_length_a     43.200715
_cell_length_b     43.379915
_cell_length_c     25.18775
_cell_angle_alpha  90.08127
_cell_angle_beta   90.036513
_cell_angle_gamma 89.99213
loop_
_atom_site_label
_atom_site_type_symbol
_atom_site_fract_x
_atom_site_fract_y
_atom_site_fract_z
_atom_type_partial_charge
C0 C 0.13433 0.16396 0.39876 0.0
C1 C 0.14001 0.158 0.45097 0.0
N2 N 0.14774 0.12812 0.45536 0.0
N3 N 0.13785 0.1379 0.36999 0.0
C4 C 0.14628 0.11629 0.40562 0.0
H5 H 0.12985 0.18651 0.38228 0.0
Co6 Co 0.13929 0.14096 0.29671 0.0
C7 C 0.0944 0.09144 0.25903 0.0
O8 O 0.08056 0.11269 0.23045 0.0
N9 N 0.14286 0.14783 0.22373 0.0
C10 C 0.14077 0.15366 0.13612 0.0
C11 C 0.1367 0.13321 0.17763 0.0
C12 C 0.153 0.17589 0.20874 0.0
N13 N 0.1505 0.18091 0.15606 0.0
O14 O 0.18062 0.12223 0.29768 0.0
H15 H 0.12894 0.10964 0.17392 0.0
H16 H 0.16133 0.19272 0.23699 0.0
O17 O 0.11883 0.09867 0.28613 0.0
C18 C 0.20173 0.13771 0.32154 0.0
O19 O 0.19509 0.16541 0.33927 0.0
N20 N 0.0997 0.16077 0.29922 0.0
C21 C 0.04756 0.19291 0.33368 0.0
C22 C 0.04991 0.16117 0.34128 0.0
C23 C 0.0766 0.14596 0.32622 0.0
C24 C 0.09676 0.19162 0.28852 0.0
C25 C 0.07088 0.2083 0.30608 0.0
H26 H 0.07974 0.12294 0.34136 0.0
H27 H 0.11567 0.2045 0.27206 0.0
H28 H 0.15253 0.09293 0.39498 0.0
H29 H 0.14006 0.17478 0.48282 0.0
H30 H 0.13551 0.14904 0.09489 0.0
H31 H 0.03285 0.14887 0.36467 0.0
H32 H 0.07024 0.23312 0.30164 0.0
C33 C 0.12227 0.92327 0.59595 0.0
C34 C 0.1119 0.91077 0.54937 0.0
N35 N 0.08704 0.89318 0.56009 0.0
N36 N 0.1036 0.91445 0.63617 0.0
C37 C 0.08179 0.89671 0.61262 0.0
H38 H 0.14414 0.93508 0.60059 0.0
Co39 Co 0.11684 0.91256 0.70702 0.0
C40 C 0.07433 0.95739 0.7616 0.0
O41 O 0.09896 0.96849 0.78559 0.0
N42 N 0.13224 0.90803 0.77593 0.0
C43 C 0.14541 0.90195 0.86085 0.0
C44 C 0.12215 0.91107 0.82645 0.0
C45 C 0.16043 0.89506 0.78093 0.0
N46 N 0.16951 0.89184 0.83168 0.0
O47 O 0.09988 0.87123 0.71214 0.0
H48 H 0.0993 0.91863 0.838 0.0
H49 H 0.17438 0.88841 0.74723 0.0
O50 O 0.07711 0.93314 0.73207 0.0
C51 C 0.11809 0.85237 0.68862 0.0
O52 O 0.14372 0.86301 0.66752 0.0
N53 N 0.136 0.95182 0.69915 0.0
C54 C 0.16572 1.00535 0.66557 0.0
C55 C 0.13349 1.00275 0.66275 0.0
C56 C 0.11928 0.97563 0.67812 0.0
C57 C 0.1675 0.95437 0.7033 0.0
C58 C 0.18286 0.981 0.68668 0.0
H59 H 0.09503 0.97297 0.66881 0.0
H60 H 0.18145 0.93508 0.71496 0.0
H61 H 0.06499 0.88333 0.63454 0.0
H62 H 0.12341 0.91253 0.51135 0.0
H63 H 0.14449 0.90237 0.90378 0.0
H64 H 0.11952 1.02041 0.64397 0.0
H65 H 0.20792 0.98182 0.68737 0.0
C66 C 0.95629 0.87618 0.40708 0.0
C67 C 0.95243 0.88242 0.45996 0.0
N68 N 0.93931 0.91034 0.46406 0.0
N69 N 0.94637 0.90039 0.37786 0.0
C70 C 0.93644 0.92106 0.41401 0.0
H71 H 0.96269 0.85397 0.39125 0.0
Co72 Co 0.93547 0.89729 0.3066 0.0
C73 C 0.97698 0.94714 0.25735 0.0
O74 O 0.98748 0.92724 0.22234 0.0
N75 N 0.92241 0.89102 0.23688 0.0
C76 C 0.91348 0.88325 0.15098 0.0
C77 C 0.92505 0.90374 0.18828 0.0
C78 C 0.90728 0.86431 0.22828 0.0
N79 N 0.90275 0.85803 0.17646 0.0
O80 O 0.89636 0.91813 0.32236 0.0
H81 H 0.93548 0.92578 0.17975 0.0
H82 H 0.90172 0.84861 0.26013 0.0
O83 O 0.95594 0.93862 0.29063 0.0
C84 C 0.87518 0.90281 0.34618 0.0
O85 O 0.87966 0.87321 0.35408 0.0
N86 N 0.97301 0.87514 0.29386 0.0
C87 C 1.02366 0.83746 0.31618 0.0
C88 C 0.02665 0.86958 0.31659 0.0
C89 C 1.00069 0.88776 0.30878 0.0
C90 C 0.97112 0.84397 0.28554 0.0
C91 C 0.99611 0.82459 0.29733 0.0
H92 H 1.0022 0.91121 0.32252 0.0
H93 H 0.94924 0.83312 0.27793 0.0
H94 H 0.92455 0.94219 0.40368 0.0
H95 H 0.95582 0.86643 0.49239 0.0
H96 H 0.91414 0.88632 0.10838 0.0
H97 H 0.04712 0.88043 0.33314 0.0
H98 H 0.99261 0.79987 0.29836 0.0
C99 C 0.9092 0.12354 0.57995 0.0
C100 C 0.92442 0.13657 0.53801 0.0
N101 N 0.94774 0.15392 0.55722 0.0
N102 N 0.92323 0.1319 0.62562 0.0
C103 C 0.94699 0.15011 0.61043 0.0
H104 H 0.88764 0.11095 0.57748 0.0
Co105 Co 0.90302 0.13059 0.69088 0.0
C106 C 0.94344 0.09016 0.75708 0.0
O107 O 0.91769 0.0779 0.77506 0.0
N108 N 0.88042 0.13199 0.75378 0.0
C109 C 0.85865 0.1366 0.83361 0.0
C110 C 0.88622 0.13231 0.80652 0.0
C111 C 0.85004 0.13854 0.7501 0.0
N112 N 0.83591 0.14008 0.79751 0.0
O113 O 0.9138 0.17358 0.70197 0.0
H114 H 0.90887 0.13001 0.82435 0.0
H115 H 0.83838 0.14244 0.71266 0.0
O116 O 0.94181 0.1144 0.72734 0.0
C117 C 0.89823 0.19123 0.6713 0.0
O118 O 0.87724 0.1789 0.64005 0.0
N119 N 0.89103 0.08878 0.67691 0.0
C120 C 0.87746 0.02758 0.65171 0.0
C121 C 0.90768 0.03886 0.64778 0.0
C122 C 0.91377 0.06937 0.65923 0.0
C123 C 0.86109 0.07843 0.67886 0.0
C124 C 0.85382 0.04778 0.66673 0.0
H125 H 0.93713 0.07748 0.65311 0.0
H126 H 0.84225 0.09369 0.68746 0.0
H127 H 0.96123 0.16295 0.63805 0.0
H128 H 0.9178 0.13457 0.49671 0.0
H129 H 0.85552 0.1366 0.87624 0.0
H130 H 0.92646 0.02464 0.63314 0.0
H131 H 0.82992 0.04022 0.66743 0.0
C132 C 0.12814 0.37665 0.8099 0.0
C133 C 0.13795 0.38298 0.75961 0.0
N134 N 0.14908 0.41191 0.75905 0.0
N135 N 0.13238 0.40161 0.84118 0.0
C136 C 0.14533 0.42287 0.80904 0.0
H137 H 0.12061 0.35432 0.82383 0.0
Co138 Co 0.13135 0.39659 0.91442 0.0
C139 C 0.08622 0.44531 0.95264 0.0
O140 O 0.07182 0.42317 0.97822 0.0
N141 N 0.13288 0.38776 -0.01316 0.0
C142 C 0.13207 0.38108 0.0743 0.0
C143 C 0.12722 0.40187 0.03357 0.0
C144 C 0.14312 0.35949 0.00055 0.0
N145 N 0.14175 0.35407 0.05325 0.0
O146 O 0.17286 0.41415 0.91853 0.0
H147 H 0.11995 0.42554 0.03826 0.0
H148 H 0.15106 0.34301 0.97138 0.0
O149 O 0.11141 0.43899 0.92694 0.0
C150 C 0.19433 0.39831 0.89662 0.0
O151 O 0.1876 0.37094 0.87749 0.0
N152 N 0.09125 0.37834 0.90733 0.0
C153 C 0.03448 0.3523 0.87999 0.0
C154 C 0.04196 0.38219 0.86428 0.0
C155 C 0.07044 0.39443 0.87718 0.0
C156 C 0.08452 0.3487 0.92223 0.0
C157 C 0.05602 0.33515 0.90895 0.0
H158 H 0.07617 0.41671 0.86087 0.0
H159 H 0.10147 0.3346 0.94184 0.0
H160 H 0.15363 0.44501 0.82285 0.0
H161 H 0.13872 0.36679 0.72691 0.0
H162 H 0.12799 0.38552 0.11596 0.0
H163 H 0.02628 0.39565 0.8399 0.0
H164 H 0.05123 0.3115 0.91988 0.0
C165 C 0.4311 0.89904 0.1358 0.0
C166 C 0.45505 0.89399 0.17037 0.0
N167 N 0.48092 0.88918 0.14175 0.0
N168 N 0.44185 0.8975 0.08565 0.0
C169 C 0.4724 0.89161 0.09037 0.0
H170 H 0.40711 0.90273 0.1463 0.0
Co171 Co 0.41592 0.89753 0.02732 0.0
C172 C 0.44624 0.94187 0.95337 0.0
O173 O 0.4182 0.95171 0.94228 0.0
N174 N 0.38831 0.89521 0.96997 0.0
C175 C 0.36452 0.88997 0.89191 0.0
C176 C 0.39272 0.89386 0.91687 0.0
C177 C 0.35783 0.88944 0.97607 0.0
N178 N 0.34258 0.88759 0.9296 0.0
O179 O 0.42891 0.85562 0.01169 0.0
H180 H 0.41494 0.89545 0.89735 0.0
H181 H 0.34697 0.88526 0.01399 0.0
O182 O 0.4494 0.9174 0.98215 0.0
C183 C 0.41621 0.83712 0.04473 0.0
O184 O 0.39671 0.84841 0.07971 0.0
N185 N 0.40209 0.93782 0.04725 0.0
C186 C 0.38519 0.99649 0.08197 0.0
C187 C 0.41622 0.98911 0.0736 0.0
C188 C 0.42419 0.95952 0.05839 0.0
C189 C 0.37173 0.94437 0.05778 0.0
C190 C 0.36271 0.97372 0.07476 0.0
H191 H 0.44854 0.95399 0.05652 0.0
H192 H 0.35436 0.9268 0.05658 0.0
H193 H 0.48776 0.88801 0.05699 0.0
H194 H 0.45362 0.89392 0.21328 0.0
H195 H 0.3604 0.88955 0.84952 0.0
H196 H 0.43448 1.0055 0.08231 0.0
H197 H 0.33868 0.97817 0.08444 0.0
C198 C 0.95787 0.66052 0.81593 0.0
C199 C 0.95085 0.65527 0.76366 0.0
N200 N 0.93293 0.63001 0.76103 0.0
N201 N 0.945 0.63831 0.84639 0.0
C202 C 0.93054 0.6196 0.81144 0.0
H203 H 0.96845 0.68137 0.83092 0.0
Co204 Co 0.93551 0.64477 0.91801 0.0
C205 C 0.97202 0.59214 0.96888 0.0
O206 O 0.98441 0.61171 0.00257 0.0
N207 N 0.92408 0.6549 -0.01262 0.0
C208 C 0.91794 0.66982 0.07137 0.0
C209 C 0.92726 0.64589 0.03838 0.0
C210 C 0.91077 0.68295 -0.00925 0.0
N211 N 0.90826 0.69347 0.04086 0.0
O212 O 0.89345 0.62952 0.90571 0.0
H213 H 0.93716 0.62434 0.05133 0.0
H214 H 0.90568 0.69669 0.956 0.0
O215 O 0.95093 0.60165 0.9364 0.0
C216 C 0.87591 0.64645 0.87692 0.0
O217 O 0.88697 0.67262 0.8588 0.0
N218 N 0.97584 0.66154 0.92854 0.0
C219 C 0.03374 0.68982 0.92432 0.0
C220 C 0.03034 0.65853 0.91196 0.0
C221 C 1.00118 0.64534 0.91191 0.0
C222 C 0.97906 0.69185 0.94274 0.0
C223 C 1.00784 0.70652 0.94071 0.0
H224 H 0.99877 0.62276 0.89438 0.0
H225 H 0.95917 0.70587 0.95058 0.0
H226 H 0.91564 0.6008 0.82337 0.0
H227 H 0.95553 0.67083 0.73107 0.0
H228 H 0.9205 0.67061 0.1141 0.0
H229 H 0.04946 0.64533 0.89577 0.0
H230 H 1.00934 0.73114 0.94741 0.0
C231 C 0.59643 0.11989 0.11724 0.0
C232 C 0.58197 0.13146 0.16103 0.0
N233 N 0.55825 0.14907 0.1447 0.0
N234 N 0.58152 0.12934 0.07292 0.0
C235 C 0.5578 0.14677 0.09132 0.0
H236 H 0.61865 0.1086 0.11825 0.0
Co237 Co 0.60046 0.1313 0.00588 0.0
C238 C 0.56366 0.08627 0.94168 0.0
O239 O 0.59025 0.07673 0.92235 0.0
N240 N 0.62099 0.13575 0.94066 0.0
C241 C 0.63758 0.14162 0.85752 0.0
C242 C 0.61247 0.1344 0.88906 0.0
C243 C 0.65027 0.14655 0.93909 0.0
N244 N 0.66143 0.14918 0.88945 0.0
O245 O 0.58445 0.17299 -0.00276 0.0
H246 H 0.58947 0.1291 0.87485 0.0
H247 H 0.66321 0.15288 0.97409 0.0
O248 O 0.5633 0.11032 0.97208 0.0
C249 C 0.60164 0.19079 0.02532 0.0
O250 O 0.62525 0.17869 0.0507 0.0
N251 N 0.61891 0.092 0.01889 0.0
C252 C 0.64464 0.04736 0.08465 0.0
C253 C 0.61428 0.04414 0.06612 0.0
C254 C 0.60139 0.06754 0.03572 0.0
C255 C 0.65001 0.09208 0.02873 0.0
C256 C 0.66337 0.07003 0.06167 0.0
H257 H 0.5765 0.06808 0.03391 0.0
H258 H 0.66393 0.11171 0.0194 0.0
H259 H 0.54323 0.16088 0.0662 0.0
H260 H 0.5903 0.12984 0.2015 0.0
H261 H 0.63811 0.14163 0.81456 0.0
H262 H 0.59915 0.02641 0.08169 0.0
H263 H 0.68698 0.07365 0.07468 0.0
C264 C 0.64696 0.6393 0.88296 0.0
C265 C 0.65942 0.62421 0.92545 0.0
N266 N 0.67035 0.59679 0.90862 0.0
N267 N 0.64917 0.62131 0.83949 0.0
C268 C 0.66362 0.59547 0.85617 0.0
H269 H 0.63792 0.66256 0.88317 0.0
Co270 Co 0.64224 0.63756 0.77259 0.0
C271 C 0.59613 0.59628 0.72074 0.0
O272 O 0.58287 0.62202 0.70526 0.0
N273 N 0.63819 0.65654 0.7063 0.0
C274 C 0.63874 0.66988 0.62099 0.0
C275 C 0.63671 0.64558 0.65614 0.0
C276 C 0.64325 0.68702 0.70027 0.0
N277 N 0.64271 0.69606 0.64908 0.0
O278 O 0.68383 0.62506 0.75357 0.0
H279 H 0.63535 0.62148 0.64546 0.0
H280 H 0.6491 0.70206 0.73303 0.0
O281 O 0.6225 0.59764 0.74524 0.0
C282 C 0.70368 0.64365 0.77344 0.0
O283 O 0.69372 0.66845 0.79801 0.0
N284 N 0.60201 0.65071 0.79549 0.0
C285 C 0.54365 0.66455 0.83626 0.0
C286 C 0.55595 0.63497 0.84087 0.0
C287 C 0.58502 0.62872 0.82133 0.0
C288 C 0.59101 0.68031 0.79304 0.0
C289 C 0.56161 0.68776 0.81317 0.0
H290 H 0.59392 0.60573 0.82739 0.0
H291 H 0.60491 0.69862 0.77718 0.0
H292 H 0.6707 0.57706 0.82982 0.0
H293 H 0.66048 0.63301 0.96562 0.0
H294 H 0.63781 0.6682 0.57816 0.0
H295 H 0.5434 0.61671 0.86087 0.0
H296 H 0.5532 0.71125 0.81117 0.0
C297 C 0.65683 0.41143 0.07878 0.0
C298 C 0.64895 0.40175 0.02892 0.0
N299 N 0.61844 0.39571 0.02849 0.0
N300 N 0.63135 0.412 0.10988 0.0
C301 C 0.60819 0.40267 0.07775 0.0
H302 H 0.68032 0.4143 0.09215 0.0
Co303 Co 0.63182 0.41202 0.18377 0.0
C304 C 0.5673 0.43625 0.21038 0.0
O305 O 0.56244 0.41476 0.24612 0.0
N306 N 0.63501 0.41128 0.25701 0.0
C307 C 0.64552 0.43009 0.33702 0.0
C308 C 0.62559 0.43156 0.29432 0.0
C309 C 0.66039 0.39782 0.27794 0.0
N310 N 0.66791 0.40935 0.32608 0.0
O311 O 0.60909 0.37308 0.18264 0.0
H312 H 0.60863 0.44949 0.28819 0.0
H313 H 0.67525 0.38277 0.25504 0.0
O314 O 0.59269 0.43623 0.18425 0.0
C315 C 0.62446 0.35053 0.16313 0.0
O316 O 0.65396 0.35461 0.15265 0.0
N317 N 0.65548 0.44834 0.18375 0.0
C318 C 0.69295 0.49604 0.15028 0.0
C319 C 0.66232 0.50188 0.16529 0.0
C320 C 0.6437 0.47753 0.1816 0.0
C321 C 0.6866 0.44364 0.17946 0.0
C322 C 0.7058 0.4671 0.16071 0.0
H323 H 0.61953 0.48221 0.18824 0.0
H324 H 0.69581 0.42057 0.1835 0.0
H325 H 0.58484 0.39862 0.09161 0.0
H326 H 0.665 0.39689 -0.00298 0.0
H327 H 0.64577 0.44597 0.3702 0.0
H328 H 0.65178 0.52416 0.15797 0.0
H329 H 0.72942 0.46188 0.14948 0.0
C330 C 0.43714 0.41619 0.86803 0.0
C331 C 0.42522 0.42705 0.91483 0.0
N332 N 0.40711 0.4515 0.90385 0.0
N333 N 0.42714 0.43406 0.82768 0.0
C334 C 0.40969 0.45599 0.85107 0.0
H335 H 0.44924 0.39453 0.86334 0.0
Co336 Co 0.42353 0.4202 0.75792 0.0
C337 C 0.46426 0.46525 0.70028 0.0
O338 O 0.47575 0.44173 0.6739 0.0
N339 N 0.41769 0.40424 0.69008 0.0
C340 C 0.41195 0.38891 0.60639 0.0
C341 C 0.41939 0.41348 0.63902 0.0
C342 C 0.40673 0.37525 0.68725 0.0
N343 N 0.40441 0.36461 0.6372 0.0
O344 O 0.38057 0.43435 0.75657 0.0
H345 H 0.42545 0.43639 0.62589 0.0
H346 H 0.40087 0.36207 0.7222 0.0
O347 O 0.44077 0.46084 0.73112 0.0
C348 C 0.36315 0.41723 0.78528 0.0
O349 O 0.37553 0.39343 0.80952 0.0
N350 N 0.46448 0.40384 0.76194 0.0
C351 C 0.52255 0.37882 0.78347 0.0
C352 C 0.51723 0.41039 0.78936 0.0
C353 C 0.48789 0.42214 0.78058 0.0
C354 C 0.46954 0.37291 0.75536 0.0
C355 C 0.49847 0.3599 0.76598 0.0
H356 H 0.48363 0.44575 0.79201 0.0
H357 H 0.45088 0.35748 0.7462 0.0
H358 H 0.39557 0.47211 0.82898 0.0
H359 H 0.42755 0.41608 0.95318 0.0
H360 H 0.41291 0.38885 0.56348 0.0
H361 H 0.53476 0.42543 0.80612 0.0
H362 H 0.50139 0.33511 0.76414 0.0
C363 C 0.38064 0.58152 0.06219 0.0
C364 C 0.39234 0.58505 0.01221 0.0
N365 N 0.41973 0.59948 0.01621 0.0
N366 N 0.40065 0.59322 0.0983 0.0
C367 C 0.42469 0.60335 0.06879 0.0
H368 H 0.35745 0.57397 0.06995 0.0
Co369 Co 0.39119 0.60451 0.16857 0.0
C370 C 0.43823 0.57052 0.23655 0.0
O371 O 0.41824 0.57077 0.2758 0.0
N372 N 0.38003 0.61749 0.23741 0.0
C373 C 0.37695 0.64207 0.3153 0.0
C374 C 0.39665 0.63206 0.27545 0.0
C375 C 0.35046 0.62025 0.25417 0.0
N376 N 0.34782 0.63481 0.30106 0.0
O377 O 0.41235 0.64388 0.15867 0.0
H378 H 0.42134 0.63605 0.27353 0.0
H379 H 0.33065 0.61283 0.23203 0.0
O380 O 0.43083 0.58396 0.19284 0.0
C381 C 0.40037 0.66269 0.12533 0.0
O382 O 0.37527 0.65438 0.09954 0.0
N383 N 0.36808 0.56727 0.1761 0.0
C384 C 0.3337 0.51582 0.1461 0.0
C385 C 0.36335 0.51238 0.16789 0.0
C386 C 0.38059 0.53844 0.18054 0.0
C387 C 0.33745 0.57031 0.16336 0.0
C388 C 0.31956 0.54477 0.14934 0.0
H389 H 0.40485 0.53478 0.1862 0.0
H390 H 0.32817 0.59288 0.15464 0.0
H391 H 0.44413 0.61584 0.08528 0.0
H392 H 0.38008 0.58033 0.97561 0.0
H393 H 0.3834 0.65474 0.35067 0.0
H394 H 0.3754 0.4905 0.16569 0.0
H395 H 0.29691 0.54848 0.13198 0.0
C396 C 0.7182 0.9365 0.38858 0.0
C397 C 0.72839 0.95355 0.34657 0.0
N398 N 0.71527 0.98163 0.34953 0.0
N399 N 0.69936 0.95385 0.41891 0.0
C400 C 0.69835 0.98149 0.39476 0.0
H401 H 0.72219 0.91214 0.39447 0.0
Co402 Co 0.67786 0.93538 0.47318 0.0
C403 C 0.61627 0.96885 0.47877 0.0
O404 O 0.60305 0.9416 0.47598 0.0
N405 N 0.65855 0.91452 0.52943 0.0
C406 C 0.63306 0.89982 0.60195 0.0
C407 C 0.63961 0.92419 0.56877 0.0
C408 C 0.66492 0.88496 0.54218 0.0
N409 N 0.64884 0.87497 0.58471 0.0
O410 O 0.70419 0.95614 0.524 0.0
H411 H 0.63147 0.94752 0.57411 0.0
H412 H 0.68219 0.8713 0.52193 0.0
O413 O 0.64621 0.97053 0.47851 0.0
C414 C 0.73362 0.95933 0.5279 0.0
O415 O 0.74456 0.97766 0.56495 0.0
N416 N 0.65296 0.91506 0.42074 0.0
C417 C 0.6176 0.88849 0.33969 0.0
C418 C 0.62168 0.92038 0.3423 0.0
C419 C 0.63955 0.93307 0.38246 0.0
C420 C 0.6512 0.88369 0.41619 0.0
C421 C 0.63288 0.86991 0.37683 0.0
H422 H 0.642 0.95778 0.383 0.0
H423 H 0.66424 0.86891 0.44195 0.0
H424 H 0.68273 0.99977 0.40652 0.0
H425 H 0.74101 0.9446 0.31275 0.0
H426 H 0.61773 0.90043 0.63589 0.0
H427 H 0.61026 0.93568 0.31452 0.0
H428 H 0.63088 0.84504 0.37519 0.0
C429 C 0.8725 0.43205 0.6648 0.0
C430 C 0.87984 0.42143 0.71431 0.0
N431 N 0.90753 0.40737 0.71148 0.0
N432 N 0.89569 0.42538 0.63074 0.0
C433 C 0.91686 0.41032 0.66043 0.0
H434 H 0.85045 0.44181 0.65338 0.0
Co435 Co 0.88863 0.42613 0.55771 0.0
C436 C 0.93851 0.46755 0.51466 0.0
O437 O 0.91644 0.48172 0.48831 0.0
N438 N 0.87805 0.42431 0.48601 0.0
C439 C 0.87023 0.42174 0.39881 0.0
C440 C 0.89195 0.42685 0.43826 0.0
C441 C 0.84884 0.41567 0.47446 0.0
N442 N 0.84287 0.415 0.42192 0.0
O443 O 0.90334 0.38386 0.55342 0.0
H444 H 0.91621 0.4317 0.43205 0.0
H445 H 0.83222 0.40989 0.50495 0.0
O446 O 0.93179 0.44327 0.54213 0.0
C447 C 0.88667 0.36387 0.57726 0.0
O448 O 0.86042 0.37267 0.59877 0.0
N449 N 0.8733 0.46735 0.56446 0.0
C450 C 0.85444 0.52774 0.58393 0.0
C451 C 0.88286 0.51696 0.60266 0.0
C452 C 0.89153 0.48691 0.59342 0.0
C453 C 0.84472 0.47708 0.54768 0.0
C454 C 0.83479 0.50747 0.55697 0.0
H455 H 0.91318 0.47928 0.61038 0.0
H456 H 0.82887 0.46147 0.52868 0.0
H457 H 0.9375 0.39983 0.64408 0.0
H458 H 0.86491 0.42207 0.74878 0.0
H459 H 0.87434 0.4233 0.35654 0.0
H460 H 0.89808 0.5315 0.62605 0.0
H461 H 0.81203 0.51481 0.54415 0.0
C462 C 0.43363 0.15189 0.34672 0.0
C463 C 0.42432 0.13955 0.29931 0.0
N464 N 0.4168 0.1098 0.30749 0.0
N465 N 0.43244 0.12997 0.3846 0.0
C466 C 0.42263 0.10442 0.35935 0.0
H467 H 0.43763 0.1761 0.35401 0.0
Co468 Co 0.42984 0.13868 0.45635 0.0
C469 C 0.48126 0.09774 0.50014 0.0
O470 O 0.49214 0.1217 0.52613 0.0
N471 N 0.42496 0.14944 0.52751 0.0
C472 C 0.42592 0.16179 0.61308 0.0
C473 C 0.43401 0.13975 0.57593 0.0
C474 C 0.40909 0.17552 0.53718 0.0
N475 N 0.41072 0.18485 0.58817 0.0
O476 O 0.39071 0.11593 0.4593 0.0
H477 H 0.44634 0.11865 0.58418 0.0
H478 H 0.39752 0.18802 0.50597 0.0
O479 O 0.45583 0.10063 0.47347 0.0
C480 C 0.36936 0.13148 0.43611 0.0
O481 O 0.37613 0.15898 0.41774 0.0
N482 N 0.46573 0.16387 0.44968 0.0
C483 C 0.50663 0.20359 0.39867 0.0
C484 C 0.51347 0.17219 0.40335 0.0
C485 C 0.492 0.15259 0.42641 0.0
C486 C 0.46094 0.19508 0.45129 0.0
C487 C 0.48093 0.21537 0.42531 0.0
H488 H 0.49466 0.12836 0.41822 0.0
H489 H 0.43936 0.20439 0.46495 0.0
H490 H 0.41722 0.08321 0.37984 0.0
H491 H 0.42065 0.15234 0.26301 0.0
H492 H 0.4323 0.16137 0.65458 0.0
H493 H 0.53241 0.1621 0.38106 0.0
H494 H 0.47434 0.23931 0.4206 0.0
C495 C 0.15394 0.62675 0.64437 0.0
C496 C 0.14821 0.64044 0.69223 0.0
N497 N 0.11955 0.65261 0.69086 0.0
N498 N 0.12892 0.62975 0.6127 0.0
C499 C 0.10806 0.64512 0.64249 0.0
H500 H 0.1763 0.61847 0.63146 0.0
Co501 Co 0.13345 0.62884 0.53934 0.0
C502 C 0.0853 0.58193 0.50516 0.0
O503 O 0.10712 0.56768 0.47832 0.0
N504 N 0.14117 0.63049 0.46666 0.0
C505 C 0.14848 0.62783 0.37938 0.0
C506 C 0.12772 0.62259 0.42022 0.0
C507 C 0.16871 0.64249 0.4525 0.0
N508 N 0.17461 0.63988 0.40023 0.0
O509 O 0.11431 0.66931 0.53585 0.0
H510 H 0.10475 0.61311 0.41584 0.0
H511 H 0.18475 0.65206 0.48106 0.0
O512 O 0.09176 0.60742 0.52942 0.0
C513 C 0.1319 0.69049 0.55416 0.0
O514 O 0.16063 0.68335 0.56614 0.0
N515 N 0.15397 0.59014 0.54568 0.0
C516 C 0.18585 0.53689 0.57406 0.0
C517 C 0.15493 0.54096 0.58858 0.0
C518 C 0.13979 0.56792 0.57543 0.0
C519 C 0.18441 0.58656 0.53159 0.0
C520 C 0.20088 0.55995 0.54546 0.0
H521 H 0.11704 0.57159 0.592 0.0
H522 H 0.19705 0.60494 0.51309 0.0
H523 H 0.08632 0.65342 0.62677 0.0
H524 H 0.16515 0.64372 0.72336 0.0
H525 H 0.14505 0.62187 0.33807 0.0
H526 H 0.14307 0.52418 0.61313 0.0
H527 H 0.22523 0.55797 0.53586 0.0
H528 H 0.14695 0.29715 0.00782 0.0
H529 H 0.147 0.34374 0.15969 0.0
H530 H 0.15073 0.29425 0.2046 0.0
H531 H 0.15137 0.23804 0.20119 0.0
H532 H 0.15368 0.1914 0.04949 0.0
H533 H 0.15187 0.24104 0.00434 0.0
C534 C 0.14829 0.2969 0.05068 0.0
C535 C 0.14646 0.32474 0.07991 0.0
C536 C 0.15073 0.26824 0.0765 0.0
C537 C 0.14788 0.32309 0.13568 0.0
C538 C 0.15016 0.29465 0.16158 0.0
C539 C 0.1521 0.23836 0.15829 0.0
C540 C 0.15253 0.21045 0.12915 0.0
C541 C 0.15123 0.26707 0.13241 0.0
C542 C 0.15296 0.21213 0.07335 0.0
C543 C 0.15201 0.24064 0.04736 0.0
H544 H 0.19956 0.91088 0.91983 0.0
H545 H 0.20883 0.85288 0.78156 0.0
H546 H 0.26368 0.84561 0.80036 0.0
H547 H 0.3102 0.85927 0.85212 0.0
H548 H 0.30058 0.91597 -0.00827 0.0
H549 H 0.24487 0.9198 0.97702 0.0
C550 C 0.2134 0.89608 0.89455 0.0
C551 C 0.20015 0.88301 0.84877 0.0
C552 C 0.24505 0.89195 0.9056 0.0
C553 C 0.21855 0.86392 0.81632 0.0
C554 C 0.24997 0.85966 0.82709 0.0
C555 C 0.29579 0.87226 0.87936 0.0
C556 C 0.30948 0.88743 0.92269 0.0
C557 C 0.26368 0.87428 0.87077 0.0
C558 C 0.29054 0.90389 0.95825 0.0
C559 C 0.25869 0.90622 0.94973 0.0
H560 H 0.91669 0.83612 0.07839 0.0
H561 H 0.87221 0.81093 0.22547 0.0
H562 H 0.86967 0.75742 0.19663 0.0
H563 H 0.88393 0.71651 0.13202 0.0
H564 H 0.92551 0.74339 0.98341 0.0
H565 H 0.9248 0.79695 0.01019 0.0
C566 C 0.9058 0.81924 0.10388 0.0
C567 C 0.8955 0.82784 0.15479 0.0
C568 C 0.90407 0.78835 0.0869 0.0
C569 C 0.88134 0.80516 0.18675 0.0
C570 C 0.87974 0.77437 0.17022 0.0
C571 C 0.8926 0.73415 0.10549 0.0
C572 C 0.90498 0.72555 0.05594 0.0
C573 C 0.89184 0.76548 0.12092 0.0
C574 C 0.91575 0.74891 0.02171 0.0
C575 C 0.91547 0.7798 0.03706 0.0
H576 H 0.80533 0.16863 0.87722 0.0
H577 H 0.79232 0.11375 0.73616 0.0
H578 H 0.73652 0.11415 0.7494 0.0
H579 H 0.69153 0.12735 0.80378 0.0
H580 H 0.70365 0.18299 0.94425 0.0
H581 H 0.75934 0.18513 0.92858 0.0
C582 C 0.79018 0.15684 0.84954 0.0
C583 C 0.80295 0.14123 0.80583 0.0
C584 C 0.75789 0.15725 0.85726 0.0
C585 C 0.78306 0.12625 0.76981 0.0
C586 C 0.75112 0.12635 0.77743 0.0
C587 C 0.70621 0.14051 0.83033 0.0
C588 C 0.69336 0.15464 0.87542 0.0
C589 C 0.73827 0.14157 0.8212 0.0
C590 C 0.71293 0.17135 0.90974 0.0
C591 C 0.74484 0.17263 0.90079 0.0
H592 H 0.63171 0.74885 0.70295 0.0
H593 H 0.66105 0.71393 0.55049 0.0
H594 H 0.66583 0.76652 0.51726 0.0
H595 H 0.661 0.82233 0.53109 0.0
H596 H 0.63345 0.85716 0.68457 0.0
H597 H 0.6289 0.80457 0.71785 0.0
C598 C 0.63961 0.7526 0.66269 0.0
C599 C 0.64609 0.72721 0.62946 0.0
C600 C 0.6426 0.78294 0.64394 0.0
C601 C 0.65558 0.73281 0.57694 0.0
C602 C 0.6585 0.76296 0.55794 0.0
C603 C 0.65448 0.81854 0.57208 0.0
C604 C 0.64764 0.84388 0.60521 0.0
C605 C 0.65202 0.78819 0.59107 0.0
C606 C 0.63856 0.83826 0.65793 0.0
C607 C 0.63606 0.80813 0.67709 0.0
H608 H 0.78636 0.41968 0.46825 0.0
H609 H 0.83113 0.40018 0.31862 0.0
H610 H 0.78061 0.39517 0.27601 0.0
H611 H 0.72384 0.39862 0.28044 0.0
H612 H 0.67944 0.4168 0.43065 0.0
H613 H 0.73 0.4195 0.47404 0.0
C614 C 0.78538 0.41372 0.42656 0.0
C615 C 0.81295 0.41032 0.39698 0.0
C616 C 0.75623 0.41063 0.40234 0.0
C617 C 0.81059 0.4033 0.34255 0.0
C618 C 0.78161 0.40026 0.31811 0.0
C619 C 0.72505 0.40245 0.32287 0.0
C620 C 0.69766 0.40741 0.35228 0.0
C621 C 0.75426 0.40414 0.34753 0.0
C622 C 0.70004 0.41309 0.40706 0.0
C623 C 0.72897 0.41463 0.43186 0.0
H624 H 0.39295 0.23514 0.53045 0.0
H625 H 0.41415 0.20561 0.69045 0.0
H626 H 0.41227 0.25895 0.72014 0.0
H627 H 0.40994 0.31374 0.69912 0.0
H628 H 0.38809 0.34315 0.53957 0.0
H629 H 0.38527 0.2894 0.51135 0.0
C630 C 0.39681 0.23978 0.57205 0.0
C631 C 0.40443 0.21573 0.60767 0.0
C632 C 0.39598 0.2706 0.58891 0.0
C633 C 0.4089 0.22323 0.66153 0.0
C634 C 0.40781 0.25389 0.67868 0.0
C635 C 0.40383 0.30873 0.65838 0.0
C636 C 0.39944 0.33288 0.62152 0.0
C637 C 0.4022 0.27778 0.64241 0.0
C638 C 0.39208 0.3253 0.56873 0.0
C639 C 0.39032 0.2945 0.5526 0.0
H640 H 0.29276 0.64783 0.25609 0.0
H641 H 0.33798 0.63553 0.40719 0.0
H642 H 0.28774 0.63823 0.45222 0.0
H643 H 0.23112 0.63871 0.4472 0.0
H644 H 0.18574 0.64983 0.29559 0.0
H645 H 0.23617 0.65209 0.25177 0.0
C646 C 0.29166 0.64573 0.29891 0.0
C647 C 0.31906 0.64095 0.32826 0.0
C648 C 0.26272 0.64664 0.32418 0.0
C649 C 0.31729 0.63926 0.3838 0.0
C650 C 0.28854 0.64053 0.40941 0.0
C651 C 0.23201 0.64231 0.40472 0.0
C652 C 0.20436 0.64402 0.3748 0.0
C653 C 0.26108 0.64349 0.37982 0.0
C654 C 0.20645 0.64806 0.31958 0.0
C655 C 0.23532 0.64948 0.29454 0.0
H656 H 0.2256 0.12772 0.41914 0.0
H657 H 0.24757 0.12078 0.25282 0.0
H658 H 0.30241 0.11284 0.27474 0.0
H659 H 0.34474 0.11687 0.34091 0.0
H660 H 0.32267 0.12319 0.50719 0.0
H661 H 0.26723 0.1217 0.4861 0.0
C662 C 0.24233 0.12349 0.38784 0.0
C663 C 0.23264 0.12479 0.33438 0.0
C664 C 0.27379 0.11905 0.4009 0.0
C665 C 0.25444 0.11953 0.29414 0.0
C666 C 0.28583 0.11528 0.30675 0.0
C667 C 0.32774 0.11655 0.37258 0.0
C668 C 0.33776 0.11965 0.42566 0.0
C669 C 0.29591 0.11615 0.3599 0.0
C670 C 0.31556 0.12008 0.46628 0.0
C671 C 0.28385 0.11969 0.45406 0.0
H672 H 0.0905 0.82687 0.60276 0.0
H673 H 0.13292 0.80476 0.75256 0.0
H674 H 0.1387 0.75095 0.72469 0.0
H675 H 0.1399 0.7131 0.65221 0.0
H676 H 0.09625 0.73374 0.50267 0.0
H677 H 0.08296 0.78563 0.53526 0.0
C678 C 0.09976 0.80994 0.62997 0.0
C679 C 0.11079 0.81955 0.67999 0.0
C680 C 0.10369 0.77921 0.61294 0.0
C681 C 0.12363 0.79767 0.71448 0.0
C682 C 0.1274 0.76707 0.69814 0.0
C683 C 0.12683 0.72872 0.62718 0.0
C684 C 0.11928 0.71984 0.57499 0.0
C685 C 0.11881 0.758 0.64663 0.0
C686 C 0.10229 0.74015 0.54294 0.0
C687 C 0.09478 0.76977 0.5616 0.0
H688 H 0.82705 0.87574 0.39869 0.0
H689 H 0.86248 0.96485 0.35305 0.0
H690 H 0.82123 0.99001 0.40373 0.0
H691 H 0.77693 0.98677 0.46603 0.0
H692 H 0.74102 0.89779 0.51006 0.0
H693 H 0.78085 0.87248 0.45581 0.0
C694 C 0.82567 0.90069 0.39931 0.0
C695 C 0.84812 0.9183 0.37199 0.0
C696 C 0.80195 0.91502 0.42889 0.0
C697 C 0.84564 0.95062 0.37335 0.0
C698 C 0.82208 0.96505 0.4026 0.0
C699 C 0.77771 0.96183 0.46319 0.0
C700 C 0.75592 0.9441 0.49153 0.0
C701 C 0.80043 0.94751 0.43129 0.0
C702 C 0.7573 0.91185 0.48812 0.0
C703 C 0.78012 0.89743 0.45717 0.0
H704 H 0.8899 0.33531 0.67203 0.0
H705 H 0.90755 0.32148 0.50538 0.0
H706 H 0.91643 0.26631 0.52123 0.0
H707 H 0.91229 0.22132 0.58113 0.0
H708 H 0.89711 0.23551 0.7484 0.0
H709 H 0.89492 0.2915 0.73425 0.0
C710 C 0.89631 0.32024 0.63942 0.0
C711 C 0.89772 0.33217 0.58748 0.0
C712 C 0.90172 0.28875 0.64909 0.0
C713 C 0.90633 0.3127 0.54556 0.0
C714 C 0.91123 0.28119 0.55465 0.0
C715 C 0.90927 0.23682 0.61459 0.0
C716 C 0.90467 0.22451 0.66572 0.0
C717 C 0.90802 0.26884 0.60599 0.0
C718 C 0.9009 0.24458 0.70888 0.0
C719 C 0.89933 0.27651 0.70063 0.0
H720 H 0.33647 0.42667 0.88063 0.0
H721 H 0.31587 0.42073 0.71365 0.0
H722 H 0.26034 0.4173 0.73374 0.0
H723 H 0.21897 0.40783 0.79981 0.0
H724 H 0.23911 0.41652 0.9666 0.0
H725 H 0.29366 0.42728 0.94601 0.0
C726 C 0.31968 0.42567 0.84866 0.0
C727 C 0.33013 0.42403 0.7957 0.0
C728 C 0.2879 0.42368 0.86069 0.0
C729 C 0.30831 0.42242 0.75455 0.0
C730 C 0.27662 0.42009 0.76615 0.0
C731 C 0.23517 0.41305 0.83148 0.0
C732 C 0.22518 0.41143 0.88466 0.0
C733 C 0.26631 0.41952 0.81914 0.0
C734 C 0.2463 0.41788 0.92548 0.0
C735 C 0.27748 0.42381 0.91364 0.0
H736 H 0.4325 0.80383 0.13028 0.0
H737 H 0.41199 0.79532 0.96356 0.0
H738 H 0.40825 0.73906 0.97299 0.0
H739 H 0.40327 0.69355 0.03183 0.0
H740 H 0.42552 0.70212 0.19805 0.0
H741 H 0.43654 0.7571 0.18579 0.0
C742 C 0.4281 0.7895 0.09574 0.0
C743 C 0.42246 0.80358 0.04628 0.0
C744 C 0.42585 0.75732 0.10169 0.0
C745 C 0.41674 0.78494 0.00181 0.0
C746 C 0.41425 0.75284 0.00742 0.0
C747 C 0.41112 0.70739 0.06512 0.0
C748 C 0.41316 0.69396 0.11601 0.0
C749 C 0.41759 0.73893 0.05759 0.0
C750 C 0.42378 0.71194 0.15863 0.0
C751 C 0.42988 0.7434 0.15163 0.0
H752 H 0.8467 0.66026 0.78505 0.0
H753 H 0.83397 0.61114 0.93203 0.0
H754 H 0.7795 0.60168 0.90894 0.0
H755 H 0.73411 0.6132 0.85139 0.0
H756 H 0.74787 0.6618 0.70433 0.0
H757 H 0.80357 0.66486 0.722 0.0
C758 C 0.83211 0.64714 0.81181 0.0
C759 C 0.84424 0.63682 0.86063 0.0
C760 C 0.80108 0.6415 0.79786 0.0
C761 C 0.82519 0.6194 0.89435 0.0
C762 C 0.79404 0.61407 0.88115 0.0
C763 C 0.74957 0.62339 0.82238 0.0
C764 C 0.73711 0.63676 0.77606 0.0
C765 C 0.78153 0.62567 0.83356 0.0
C766 C 0.7571 0.65076 0.73952 0.0
C767 C 0.78885 0.65288 0.75004 0.0
H768 H 0.57804 0.21616 0.11419 0.0
H769 H 0.61436 0.23902 0.96028 0.0
H770 H 0.62182 0.29262 -0.01128 0.0
H771 H 0.62647 0.33003 0.06229 0.0
H772 H 0.58931 0.30786 0.21618 0.0
H773 H 0.57357 0.25683 0.1833 0.0
C774 C 0.58626 0.23324 0.08631 0.0
C775 C 0.5951 0.22381 0.0349 0.0
C776 C 0.59111 0.26382 0.10356 0.0
C777 C 0.60666 0.2459 -0.00052 0.0
C778 C 0.61141 0.27641 0.01612 0.0
C779 C 0.61415 0.31429 0.08819 0.0
C780 C 0.60916 0.32254 0.14167 0.0
C781 C 0.605 0.28522 0.06875 0.0
C782 C 0.59327 0.30203 0.1749 0.0
C783 C 0.58445 0.27282 0.1561 0.0
H784 H 0.03281 0.08256 0.27422 0.0
H785 H 0.11845 0.03257 0.25762 0.0
H786 H 0.0896 0.98369 0.25599 0.0
H787 H 0.03952 0.95539 0.25392 0.0
H788 H 0.95432 1.00519 0.27782 0.0
H789 H 0.98334 0.05386 0.28217 0.0
C790 C 0.04522 0.06091 0.27078 0.0
C791 C 0.07787 0.06131 0.26559 0.0
C792 C 0.02843 0.0329 0.27081 0.0
C793 C 0.0935 0.03302 0.26187 0.0
C794 C 0.07691 1.00507 0.26059 0.0
C795 C 0.02729 0.97692 0.2603 0.0
C796 C 0.99458 0.97663 0.26468 0.0
C797 C 0.04432 1.00475 0.26412 0.0
C798 C 0.9793 1.00467 0.27409 0.0
C799 C 0.99596 0.03252 0.27644 0.0
H800 H 0.07284 1.02009 0.76571 0.0
H801 H 1.01301 0.94108 0.74895 0.0
H802 H 0.96771 0.97536 0.74691 0.0
H803 H 0.94518 0.02762 0.75205 0.0
H804 H 1.00515 0.10693 0.76103 0.0
H805 H 0.05048 0.07265 0.76409 0.0
C806 C 0.04987 1.01025 0.76196 0.0
C807 C 0.04636 0.97779 0.75864 0.0
C808 C 1.02404 0.03022 0.75957 0.0
C809 C 1.01645 0.96575 0.75213 0.0
C810 C 0.99055 0.98541 0.75104 0.0
C811 C 0.96817 0.03753 0.75494 0.0
C812 C 0.97165 0.07002 0.75742 0.0
C813 C 0.99407 1.01765 0.75519 0.0
C814 C 1.0017 0.08222 0.75958 0.0
C815 C 0.0276 0.06254 0.76136 0.0
H816 H 1.02441 0.45571 0.94305 0.0
H817 H 0.11144 0.50376 0.95521 0.0
H818 H 0.08364 0.55314 0.96115 0.0
H819 H 0.03431 0.58236 0.96786 0.0
H820 H 0.9475 0.53465 0.94872 0.0
H821 H 0.97537 0.48546 0.94041 0.0
C822 C 0.03737 0.47703 0.94658 0.0
C823 C 0.07014 0.47591 0.94921 0.0
C824 C 1.02115 0.50535 0.94911 0.0
C825 C 0.08641 0.50384 0.95295 0.0
C826 C 0.07042 0.53207 0.95669 0.0
C827 C 1.02144 0.56117 0.96179 0.0
C828 C 0.98865 0.5622 0.9599 0.0
C829 C 0.03777 0.53307 0.95569 0.0
C830 C 0.97254 0.53461 0.95069 0.0
C831 C 0.98856 0.50646 0.94603 0.0
H832 H 0.44169 1.00443 0.95261 0.0
H833 H 0.50904 0.93114 0.94438 0.0
H834 H 0.55067 0.96954 0.93746 0.0
H835 H 0.5678 0.02379 0.93498 0.0
H836 H 0.50088 0.09699 0.95163 0.0
H837 H 0.45902 0.05863 0.95414 0.0
C838 C 0.46545 0.9967 0.94865 0.0
C839 C 0.4721 0.96468 0.94781 0.0
C840 C 0.48926 1.01896 0.94638 0.0
C841 C 0.50316 0.95541 0.94445 0.0
C842 C 0.52694 0.97744 0.94059 0.0
C843 C 0.54403 0.03152 0.9385 0.0
C844 C 0.53752 0.06352 0.94196 0.0
C845 C 0.52025 1.00926 0.9415 0.0
C846 C 0.5066 0.07275 0.94826 0.0
C847 C 0.48269 0.05075 0.94975 0.0
H848 H 0.52716 0.46774 0.69339 0.0
H849 H 0.44753 0.5251 0.72387 0.0
H850 H 0.48161 0.57008 0.73391 0.0
H851 H 0.53382 0.59319 0.73183 0.0
H852 H 0.61381 0.53542 0.70732 0.0
H853 H 0.57976 0.49027 0.6977 0.0
C854 C 0.51712 0.49013 0.70175 0.0
C855 C 0.48452 0.49309 0.70656 0.0
C856 C 0.53699 0.51569 0.7088 0.0
C857 C 0.47228 0.52215 0.71922 0.0
C858 C 0.49184 0.54785 0.72503 0.0
C859 C 0.54393 0.57071 0.72431 0.0
C860 C 0.5765 0.56783 0.71943 0.0
C861 C 0.52419 0.54492 0.71955 0.0
C862 C 0.58902 0.53838 0.71108 0.0
C863 C 0.56946 0.51262 0.70533 0.0
H864 H 0.47838 0.55004 0.15693 0.0
H865 H 0.45723 0.53861 0.32334 0.0
H866 H 0.49372 0.49625 0.32918 0.0
H867 H 0.53032 0.46044 0.28744 0.0
H868 H 0.55543 0.47281 0.12341 0.0
H869 H 0.5191 0.51623 0.11641 0.0
C870 C 0.4821 0.53862 0.19465 0.0
C871 C 0.46454 0.54776 0.23951 0.0
C872 C 0.5037 0.51391 0.19816 0.0
C873 C 0.46994 0.53234 0.28789 0.0
C874 C 0.49088 0.50784 0.29139 0.0
C875 C 0.52779 0.47252 0.25001 0.0
C876 C 0.54528 0.46286 0.20576 0.0
C877 C 0.50751 0.49803 0.24672 0.0
C878 C 0.54213 0.47945 0.15803 0.0
C879 C 0.52134 0.50438 0.15406 0.0
H880 H 0.5542 0.97225 0.45817 0.0
H881 H 0.63125 0.02822 0.50923 0.0
H882 H 0.5962 0.07219 0.52141 0.0
H883 H 0.54356 0.09453 0.51911 0.0
H884 H 0.46689 0.03927 0.46417 0.0
H885 H 0.5019 0.99523 0.45228 0.0
C886 C 0.56349 0.99406 0.47192 0.0
C887 C 0.5956 0.99665 0.48309 0.0
C888 C 0.54313 1.01936 0.47847 0.0
C889 C 0.6069 0.02536 0.50024 0.0
C890 C 0.58674 0.05052 0.50742 0.0
C891 C 0.5343 0.07282 0.50483 0.0
C892 C 0.50222 0.0703 0.49332 0.0
C893 C 0.55478 0.04774 0.49706 0.0
C894 C 0.49117 0.04201 0.47379 0.0
C895 C 0.5113 1.01679 0.4669 0.0
H896 H 0.94823 0.52924 0.52179 0.0
H897 H 0.99733 0.44276 0.51764 0.0
H898 H 0.04684 0.47072 0.51509 0.0
H899 H 0.07593 0.51988 0.50917 0.0
H900 H 0.02692 0.60629 0.51929 0.0
H901 H 0.97757 0.57829 0.52472 0.0
C902 C 0.9698 0.51644 0.52057 0.0
C903 C 0.969 0.48379 0.51915 0.0
C904 C 0.99813 0.53275 0.51996 0.0
C905 C 0.99719 0.46772 0.5187 0.0
C906 C 0.02549 0.48379 0.51698 0.0
C907 C 0.05445 0.53266 0.51265 0.0
C908 C 0.05519 0.56534 0.5129 0.0
C909 C 0.02622 0.5163 0.51674 0.0
C910 C 0.02713 0.58132 0.51871 0.0
C911 C 0.99889 0.56524 0.52166 0.0
H912 H 0.15466 0.06595 0.67605 0.0
H913 H 0.20797 1.00027 0.58611 0.0
H914 H 0.21115 0.03633 0.5119 0.0
H915 H 0.18737 0.08051 0.46586 0.0
H916 H 0.12819 0.14231 0.55386 0.0
H917 H 0.13839 0.11401 0.63508 0.0
C918 C 0.16809 0.06021 0.64098 0.0
C919 C 0.18041 0.03051 0.63571 0.0
C920 C 0.16761 0.07991 0.59723 0.0
C921 C 0.19817 0.02311 0.59076 0.0
C922 C 0.19939 0.04344 0.5479 0.0
C923 C 0.1769 0.08777 0.50291 0.0
C924 C 0.15648 0.11295 0.50364 0.0
C925 C 0.18218 0.07084 0.54938 0.0
C926 C 0.14386 0.12288 0.55219 0.0
C927 C 0.14965 0.1067 0.59872 0.0
H928 H 0.11489 0.86454 0.47774 0.0
H929 H 0.02939 0.86883 0.56603 0.0
H930 H 1.00482 0.83475 0.50126 0.0
H931 H 1.00407 0.81666 0.40964 0.0
H932 H 0.08596 0.82418 0.3136 0.0
H933 H 0.11633 0.83807 0.39191 0.0
C934 C 0.09083 0.85822 0.48283 0.0
C935 C 0.07356 0.87041 0.5254 0.0
C936 C 0.07648 0.84002 0.44411 0.0
C937 C 0.04296 0.8604 0.53295 0.0
C938 C 0.02894 0.84087 0.49597 0.0
C939 C 0.02892 0.81981 0.40649 0.0
C940 C 0.04256 0.8211 0.35586 0.0
C941 C 0.04496 0.83212 0.44991 0.0
C942 C 0.07487 0.8238 0.35216 0.0
C943 C 0.09197 0.83278 0.39669 0.0
H944 H 0.90719 0.97481 0.67573 0.0
H945 H 0.83485 1.01184 0.57674 0.0
H946 H 0.84524 0.97267 0.50974 0.0
H947 H 0.88445 0.93896 0.46972 0.0
H948 H 0.96174 0.90778 0.56355 0.0
H949 H 0.94061 0.9339 0.64174 0.0
C950 C 0.89285 0.97328 0.6404 0.0
C951 C 0.87124 0.99669 0.62992 0.0
C952 C 0.90104 0.95279 0.59998 0.0
C953 C 0.85201 0.9943 0.58517 0.0
C954 C 0.85844 0.97233 0.54626 0.0
C955 C 0.8965 0.93784 0.50738 0.0
C956 C 0.92514 0.92269 0.51082 0.0
C957 C 0.8846 0.95343 0.55143 0.0
C958 C 0.93997 0.92 0.56016 0.0
C959 C 0.92784 0.93477 0.60471 0.0
H960 H 0.93397 0.18092 0.46377 0.0
H961 H 1.00509 0.1741 0.58352 0.0
H962 H 0.04154 0.20019 0.52484 0.0
H963 H 0.05625 0.21104 0.43309 0.0
H964 H 0.9877 0.20678 0.30939 0.0
H965 H 0.94682 0.20065 0.37564 0.0
C966 C 0.9574 0.18523 0.47719 0.0
C967 C 0.96721 0.17437 0.5271 0.0
C968 C 0.97859 0.19871 0.44223 0.0
C969 C 0.99713 0.18167 0.54494 0.0
C970 C 1.018 0.19656 0.51132 0.0
C971 C 0.03209 0.21061 0.42115 0.0
C972 C 1.02478 0.20896 0.36686 0.0
C973 C 1.00946 0.20342 0.4589 0.0
C974 C 0.99367 0.20817 0.35111 0.0
C975 C 0.97047 0.20384 0.38897 0.0
H976 H 0.17793 0.47774 0.54785 0.0
H977 H 0.22739 0.53739 0.65468 0.0
H978 H 0.22412 0.49868 0.72486 0.0
H979 H 0.19329 0.45597 0.76145 0.0
H980 H 0.13764 0.40055 0.65562 0.0
H981 H 0.1567 0.42932 0.57987 0.0
C982 C 0.18958 0.48131 0.58557 0.0
C983 C 0.20204 0.51036 0.59702 0.0
C984 C 0.18486 0.46035 0.62684 0.0
C985 C 0.21742 0.5151 0.64545 0.0
C986 C 0.21475 0.49332 0.68599 0.0
C987 C 0.18563 0.45001 0.72179 0.0
C988 C 0.16344 0.42671 0.71441 0.0
C989 C 0.19608 0.46724 0.67831 0.0
C990 C 0.15449 0.41856 0.66255 0.0
C991 C 0.1654 0.43499 0.61907 0.0
H992 H 0.49466 0.85456 0.22627 0.0
H993 H 0.53498 0.91164 0.10486 0.0
H994 H 0.58468 0.91109 0.15178 0.0
H995 H 0.61316 0.90189 0.23481 0.0
H996 H 0.5714 0.84737 0.35862 0.0
H997 H 0.52601 0.83847 0.30275 0.0
C998 C 0.51454 0.86644 0.20985 0.0
C999 C 0.51122 0.88368 0.16303 0.0
C1000 C 0.54264 0.86647 0.23755 0.0
C1001 C 0.53714 0.89837 0.14105 0.0
C1002 C 0.56541 0.89819 0.16803 0.0
C1003 C 0.59438 0.88747 0.24894 0.0
C1004 C 0.59524 0.87576 0.30099 0.0
C1005 C 0.56796 0.88344 0.21741 0.0
C1006 C 0.57119 0.85662 0.31869 0.0
C1007 C 0.54509 0.85185 0.28701 0.0
H1008 H 0.87535 0.60608 0.76307 0.0
H1009 H 0.94838 0.63507 0.65771 0.0
H1010 H 0.91894 0.61632 0.58148 0.0
H1011 H 0.8794 0.58073 0.54945 0.0
H1012 H 0.81161 0.54473 0.65754 0.0
H1013 H 0.82958 0.57985 0.72685 0.0
C1014 C 0.88468 0.60859 0.72345 0.0
C1015 C 0.91442 0.62105 0.71613 0.0
C1016 C 0.86786 0.5973 0.68008 0.0
C1017 C 0.92577 0.62505 0.66434 0.0
C1018 C 0.90885 0.61454 0.62075 0.0
C1019 C 0.86739 0.58209 0.58725 0.0
C1020 C 0.84565 0.55917 0.59985 0.0
C1021 C 0.88061 0.5993 0.6285 0.0
C1022 C 0.8292 0.56158 0.64771 0.0
C1023 C 0.84024 0.5809 0.68793 0.0
H1024 H 0.5865 0.18696 0.21251 0.0
H1025 H 0.49745 0.16332 0.1475 0.0
H1026 H 0.4718 0.19325 0.21768 0.0
H1027 H 0.47553 0.21227 0.30898 0.0
H1028 H 0.56497 0.2257 0.38072 0.0
H1029 H 0.59004 0.21621 0.29532 0.0
C1030 C 0.56148 0.18892 0.21337 0.0
C1031 C 0.5436 0.17217 0.17669 0.0
C1032 C 0.54722 0.20488 0.25482 0.0
C1033 C 0.51139 0.17566 0.17626 0.0
C1034 C 0.49688 0.19271 0.21631 0.0
C1035 C 0.50041 0.21484 0.30499 0.0
C1036 C 0.51859 0.21882 0.35086 0.0
C1037 C 0.51457 0.20563 0.2576 0.0
C1038 C 0.55069 0.22245 0.34578 0.0
C1039 C 0.56497 0.21619 0.29728 0.0
H1040 H 0.70098 0.60664 0.00038 0.0
H1041 H 0.67401 0.53524 0.89018 0.0
H1042 H 0.68906 0.49596 0.95444 0.0
H1043 H 0.69769 0.48281 0.04778 0.0
H1044 H 0.71477 0.55475 0.16206 0.0
H1045 H 0.71628 0.59306 0.09069 0.0
C1046 C 0.69844 0.58251 -0.00976 0.0
C1047 C 0.68525 0.57393 0.94124 0.0
C1048 C 0.7054 0.56019 0.02846 0.0
C1049 C 0.68367 0.54253 0.92779 0.0
C1050 C 0.69211 0.52004 0.9647 0.0
C1051 C 0.70318 0.50672 0.05652 0.0
C1052 C 0.70639 0.51618 0.1096 0.0
C1053 C 0.70137 0.52869 0.01602 0.0
C1054 C 0.71268 0.54714 0.12123 0.0
C1055 C 0.71304 0.56898 0.08055 0.0
H1056 H 0.52115 0.3446 0.87083 0.0
H1057 H 0.58347 0.38763 0.76013 0.0
H1058 H 0.6227 0.39259 0.82958 0.0
H1059 H 0.63219 0.39792 0.9247 0.0
H1060 H 0.56732 0.35962 0.03697 0.0
H1061 H 0.53558 0.34028 0.96425 0.0
C1062 C 0.544 0.35344 0.8614 0.0
C1063 C 0.54953 0.36612 0.81111 0.0
C1064 C 0.56514 0.35864 0.90245 0.0
C1065 C 0.57897 0.37774 0.79884 0.0
C1066 C 0.60103 0.38122 0.83883 0.0
C1067 C 0.61155 0.38468 0.93337 0.0
C1068 C 0.6016 0.38116 -0.01387 0.0
C1069 C 0.59328 0.37398 0.89142 0.0
C1070 C 0.57483 0.36382 -0.00333 0.0
C1071 C 0.55688 0.35235 0.95511 0.0
H1072 H 0.37903 0.42414 -0.0128 0.0
H1073 H 0.38171 0.50822 0.89581 0.0
H1074 H 0.34527 0.53214 0.95721 0.0
H1075 H 0.32303 0.53275 0.04537 0.0
H1076 H 0.32931 0.45238 0.14517 0.0
H1077 H 0.34972 0.42252 0.07053 0.0
C1078 C 0.37185 0.44775 0.98081 0.0
C1079 C 0.38402 0.46479 0.93805 0.0
C1080 C 0.35189 0.46172 0.01737 0.0
C1081 C 0.37313 0.49481 0.92888 0.0
C1082 C 0.35223 0.50846 0.96389 0.0
C1083 C 0.32768 0.50837 0.05043 0.0
C1084 C 0.32602 0.49509 0.10129 0.0
C1085 C 0.34271 0.4926 0.00952 0.0
C1086 C 0.33097 0.46322 0.10655 0.0
C1087 C 0.34343 0.44642 0.06426 0.0
H1088 H 0.45358 0.65189 0.01904 0.0
H1089 H 0.42178 0.57919 0.91518 0.0
H1090 H 0.45007 0.60188 0.84142 0.0
H1091 H 0.49084 0.6362 0.81137 0.0
H1092 H 0.52992 0.70292 0.91877 0.0
H1093 H 0.49043 0.69042 -0.01486 0.0
C1094 C 0.45298 0.64093 0.98039 0.0
C1095 C 0.43618 0.61345 0.97292 0.0
C1096 C 0.47005 0.65361 0.93846 0.0
C1097 C 0.43471 0.6002 0.92204 0.0
C1098 C 0.45078 0.61321 0.87979 0.0
C1099 C 0.48971 0.64892 0.8485 0.0
C1100 C 0.51329 0.66996 0.86088 0.0
C1101 C 0.46929 0.63926 0.88804 0.0
C1102 C 0.51188 0.68659 0.90862 0.0
C1103 C 0.48984 0.67884 0.947 0.0
H1104 H 0.70228 0.02917 0.11814 0.0
H1105 H 0.60707 0.03712 0.16979 0.0
H1106 H 0.62146 1.02097 0.25802 0.0
H1107 H 0.66033 1.00406 0.32056 0.0
H1108 H 0.75585 0.99739 0.27299 0.0
H1109 H 0.74229 1.01553 0.18374 0.0
C1110 C 0.68468 0.02742 0.14865 0.0
C1111 C 0.65353 0.03369 0.13641 0.0
C1112 C 0.69324 1.01937 0.20051 0.0
C1113 C 0.63107 0.03123 0.17679 0.0
C1114 C 0.63931 1.02266 0.22792 0.0
C1115 C 0.67838 1.00757 0.29132 0.0
C1116 C 0.70906 0.99972 0.30324 0.0
C1117 C 0.67027 1.01687 0.24022 0.0
C1118 C 0.73208 1.0036 0.26445 0.0
C1119 C 0.72427 1.01351 0.21344 0.0
H1120 H 0.94561 0.35817 0.70247 0.0
H1121 H 0.90209 0.41867 0.81632 0.0
H1122 H 0.93135 0.395 0.88788 0.0
H1123 H 0.97779 0.36697 0.91354 0.0
H1124 H 0.0265 0.31236 0.79817 0.0
H1125 H 0.98575 0.32185 0.7328 0.0
C1126 C 0.94239 0.36597 0.74297 0.0
C1127 C 0.92237 0.39076 0.75381 0.0
C1128 C 0.95996 0.35279 0.78391 0.0
C1129 C 0.91758 0.39986 0.80677 0.0
C1130 C 0.93429 0.38631 0.84782 0.0
C1131 C 0.97837 0.35567 0.87506 0.0
C1132 C 1.00518 0.33975 0.8599 0.0
C1133 C 0.95662 0.36389 0.83644 0.0
C1134 C 1.006 0.3249 0.81037 0.0
C1135 C 0.98316 0.33112 0.77254 0.0
H1136 H 0.41768 0.1141 0.20105 0.0
H1137 H 0.37996 0.0607 0.33037 0.0
H1138 H 0.35871 0.02374 0.26755 0.0
H1139 H 0.35914 1.00225 0.17771 0.0
H1140 H 0.39863 0.05462 0.04931 0.0
H1141 H 0.40905 0.09756 0.10967 0.0
C1142 C 0.40423 0.09483 0.21562 0.0
C1143 C 0.40144 0.08969 0.27047 0.0
C1144 C 0.39192 0.07375 0.17931 0.0
C1145 C 0.38374 0.06457 0.28849 0.0
C1146 C 0.37113 0.04361 0.25254 0.0
C1147 C 0.36862 0.02368 0.16261 0.0
C1148 C 0.3784 0.02545 0.10968 0.0
C1149 C 0.37618 0.04735 0.19804 0.0
C1150 C 0.39096 0.05304 0.09018 0.0
C1151 C 0.39739 0.07728 0.12481 0.0
H1152 H 0.13728 0.65888 0.79306 0.0
H1153 H 0.07255 0.69388 0.6769 0.0
H1154 H 0.04611 0.72291 0.74573 0.0
H1155 H 0.03385 0.72657 0.83996 0.0
H1156 H 0.09444 0.68543 0.95531 0.0
H1157 H 0.1321 0.67372 0.88597 0.0
C1158 C 0.11796 0.67343 0.78216 0.0
C1159 C 0.10631 0.67304 0.72994 0.0
C1160 C 0.10256 0.68975 0.82209 0.0
C1161 C 0.08128 0.69241 0.71703 0.0
C1162 C 0.06638 0.70951 0.75631 0.0
C1163 C 0.0562 0.71677 0.8502 0.0
C1164 C 0.0609 0.7053 0.90166 0.0
C1165 C 0.07573 0.70683 0.80935 0.0
C1166 C 0.09015 0.69369 0.9154 0.0
C1167 C 0.11118 0.68608 0.87544 0.0
loop_
_geom_bond_atom_site_label_1
_geom_bond_atom_site_label_2
_geom_bond_distance
_geom_bond_site_symmetry_2
_ccdc_geom_bond_type
C0 C1 1.351 . S
C0 N3 1.368 . S
C0 H5 0.931 . S
C1 C0 1.351 . S
C1 N2 1.373 . S
C1 H29 0.930 . S
N2 C1 1.373 . S
N2 C4 1.340 . S
N3 C0 1.368 . S
N3 C4 1.321 . S
N3 Co6 2.135 . S
C4 N2 1.340 . S
C4 N3 1.321 . S
C4 H28 0.930 . S
H5 C0 0.931 . S
Co6 N3 2.135 . S
Co6 N9 2.121 . S
Co6 O14 2.055 . S
Co6 O17 2.039 . S
Co6 N20 2.140 . S
C7 O8 1.227 . S
C7 O17 1.265 . S
O8 C7 1.227 . S
N9 Co6 2.121 . S
N9 C11 1.375 . S
N9 C12 1.313 . S
C10 C11 1.338 . S
C10 N13 1.377 . S
C10 H30 0.930 . S
C11 N9 1.375 . S
C11 C10 1.338 . S
C11 H15 0.931 . S
C12 N9 1.313 . S
C12 N13 1.344 . S
C12 H16 0.930 . S
N13 C10 1.377 . S
N13 C12 1.344 . S
O14 Co6 2.055 . S
O14 C18 1.253 . S
H15 C11 0.931 . S
H16 C12 0.930 . S
O17 Co6 2.039 . S
O17 C7 1.265 . S
C18 O14 1.253 . S
C18 O19 1.227 . S
O19 C18 1.227 . S
N20 Co6 2.140 . S
N20 C23 1.346 . S
N20 C24 1.345 . S
C21 C22 1.387 . S
C21 C25 1.391 . S
C22 C21 1.387 . S
C22 C23 1.369 . S
C22 H31 0.929 . S
C23 N20 1.346 . S
C23 C22 1.369 . S
C23 H26 0.928 . S
C24 N20 1.345 . S
C24 C25 1.371 . S
C24 H27 0.931 . S
C25 C21 1.391 . S
C25 C24 1.371 . S
C25 H32 0.930 . S
H26 C23 0.928 . S
H27 C24 0.931 . S
H28 C4 0.930 . S
H29 C1 0.930 . S
H30 C10 0.930 . S
H31 C22 0.929 . S
H32 C25 0.930 . S
C33 C34 1.351 . S
C33 N36 1.368 . S
C33 H38 0.931 . S
C34 C33 1.351 . S
C34 N35 1.373 . S
C34 H62 0.930 . S
N35 C34 1.373 . S
N35 C37 1.340 . S
N36 C33 1.368 . S
N36 C37 1.321 . S
N36 Co39 2.135 . S
C37 N35 1.340 . S
C37 N36 1.321 . S
C37 H61 0.930 . S
H38 C33 0.931 . S
Co39 N36 2.135 . S
Co39 N42 2.121 . S
Co39 O47 2.055 . S
Co39 O50 2.039 . S
Co39 N53 2.140 . S
C40 O41 1.227 . S
C40 O50 1.265 . S
O41 C40 1.227 . S
N42 Co39 2.121 . S
N42 C44 1.375 . S
N42 C45 1.313 . S
C43 C44 1.338 . S
C43 N46 1.377 . S
C43 H63 0.930 . S
C44 N42 1.375 . S
C44 C43 1.338 . S
C44 H48 0.931 . S
C45 N42 1.313 . S
C45 N46 1.344 . S
C45 H49 0.930 . S
N46 C43 1.377 . S
N46 C45 1.344 . S
O47 Co39 2.055 . S
O47 C51 1.253 . S
H48 C44 0.931 . S
H49 C45 0.930 . S
O50 Co39 2.039 . S
O50 C40 1.265 . S
C51 O47 1.253 . S
C51 O52 1.227 . S
O52 C51 1.227 . S
N53 Co39 2.140 . S
N53 C56 1.346 . S
N53 C57 1.345 . S
C54 C55 1.387 . S
C54 C58 1.391 . S
C55 C54 1.387 . S
C55 C56 1.369 . S
C55 H64 0.929 . S
C56 N53 1.346 . S
C56 C55 1.369 . S
C56 H59 0.928 . S
C57 N53 1.345 . S
C57 C58 1.371 . S
C57 H60 0.931 . S
C58 C54 1.391 . S
C58 C57 1.371 . S
C58 H65 0.930 . S
H59 C56 0.928 . S
H60 C57 0.931 . S
H61 C37 0.930 . S
H62 C34 0.930 . S
H63 C43 0.930 . S
H64 C55 0.929 . S
H65 C58 0.930 . S
C66 C67 1.351 . S
C66 N69 1.368 . S
C66 H71 0.931 . S
C67 C66 1.351 . S
C67 N68 1.373 . S
C67 H95 0.930 . S
N68 C67 1.373 . S
N68 C70 1.340 . S
N69 C66 1.368 . S
N69 C70 1.321 . S
N69 Co72 2.135 . S
C70 N68 1.340 . S
C70 N69 1.321 . S
C70 H94 0.930 . S
H71 C66 0.931 . S
Co72 N69 2.135 . S
Co72 N75 2.121 . S
Co72 O80 2.055 . S
Co72 O83 2.039 . S
Co72 N86 2.140 . S
C73 O74 1.227 . S
C73 O83 1.265 . S
O74 C73 1.227 . S
N75 Co72 2.121 . S
N75 C77 1.375 . S
N75 C78 1.313 . S
C76 C77 1.338 . S
C76 N79 1.377 . S
C76 H96 0.930 . S
C77 N75 1.375 . S
C77 C76 1.338 . S
C77 H81 0.931 . S
C78 N75 1.313 . S
C78 N79 1.344 . S
C78 H82 0.930 . S
N79 C76 1.377 . S
N79 C78 1.344 . S
O80 Co72 2.055 . S
O80 C84 1.253 . S
H81 C77 0.931 . S
H82 C78 0.930 . S
O83 Co72 2.039 . S
O83 C73 1.265 . S
C84 O80 1.253 . S
C84 O85 1.227 . S
O85 C84 1.227 . S
N86 Co72 2.140 . S
N86 C89 1.346 . S
N86 C90 1.345 . S
C87 C88 1.387 . S
C87 C91 1.391 . S
C88 C87 1.387 . S
C88 C89 1.369 . S
C88 H97 0.929 . S
C89 N86 1.346 . S
C89 C88 1.369 . S
C89 H92 0.928 . S
C90 N86 1.345 . S
C90 C91 1.371 . S
C90 H93 0.931 . S
C91 C87 1.391 . S
C91 C90 1.371 . S
C91 H98 0.930 . S
H92 C89 0.928 . S
H93 C90 0.931 . S
H94 C70 0.930 . S
H95 C67 0.930 . S
H96 C76 0.930 . S
H97 C88 0.929 . S
H98 C91 0.930 . S
C99 C100 1.351 . S
C99 N102 1.368 . S
C99 H104 0.931 . S
C100 C99 1.351 . S
C100 N101 1.373 . S
C100 H128 0.930 . S
N101 C100 1.373 . S
N101 C103 1.340 . S
N102 C99 1.368 . S
N102 C103 1.321 . S
N102 Co105 2.135 . S
C103 N101 1.340 . S
C103 N102 1.321 . S
C103 H127 0.930 . S
H104 C99 0.931 . S
Co105 N102 2.135 . S
Co105 N108 2.121 . S
Co105 O113 2.055 . S
Co105 O116 2.039 . S
Co105 N119 2.140 . S
C106 O107 1.227 . S
C106 O116 1.265 . S
O107 C106 1.227 . S
N108 Co105 2.121 . S
N108 C110 1.375 . S
N108 C111 1.313 . S
C109 C110 1.338 . S
C109 N112 1.377 . S
C109 H129 0.930 . S
C110 N108 1.375 . S
C110 C109 1.338 . S
C110 H114 0.931 . S
C111 N108 1.313 . S
C111 N112 1.344 . S
C111 H115 0.930 . S
N112 C109 1.377 . S
N112 C111 1.344 . S
O113 Co105 2.055 . S
O113 C117 1.253 . S
H114 C110 0.931 . S
H115 C111 0.930 . S
O116 Co105 2.039 . S
O116 C106 1.265 . S
C117 O113 1.253 . S
C117 O118 1.227 . S
O118 C117 1.227 . S
N119 Co105 2.140 . S
N119 C122 1.346 . S
N119 C123 1.345 . S
C120 C121 1.387 . S
C120 C124 1.391 . S
C121 C120 1.387 . S
C121 C122 1.369 . S
C121 H130 0.929 . S
C122 N119 1.346 . S
C122 C121 1.369 . S
C122 H125 0.928 . S
C123 N119 1.345 . S
C123 C124 1.371 . S
C123 H126 0.931 . S
C124 C120 1.391 . S
C124 C123 1.371 . S
C124 H131 0.930 . S
H125 C122 0.928 . S
H126 C123 0.931 . S
H127 C103 0.930 . S
H128 C100 0.930 . S
H129 C109 0.930 . S
H130 C121 0.929 . S
H131 C124 0.930 . S
C132 C133 1.351 . S
C132 N135 1.368 . S
C132 H137 0.931 . S
C133 C132 1.351 . S
C133 N134 1.373 . S
C133 H161 0.930 . S
N134 C133 1.373 . S
N134 C136 1.340 . S
N135 C132 1.368 . S
N135 C136 1.321 . S
N135 Co138 2.135 . S
C136 N134 1.340 . S
C136 N135 1.321 . S
C136 H160 0.930 . S
H137 C132 0.931 . S
Co138 N135 2.135 . S
Co138 N141 2.121 1_556 S
Co138 O146 2.055 . S
Co138 O149 2.039 1_556 S
Co138 N152 2.140 . S
C139 O140 1.227 1_554 S
C139 O149 1.265 . S
O140 C139 1.227 1_556 S
N141 Co138 2.121 1_554 S
N141 C143 1.375 . S
N141 C144 1.313 . S
C142 C143 1.338 . S
C142 N145 1.377 . S
C142 H162 0.930 . S
C143 N141 1.375 . S
C143 C142 1.338 . S
C143 H147 0.931 . S
C144 N141 1.313 . S
C144 N145 1.344 . S
C144 H148 0.930 . S
N145 C142 1.377 . S
N145 C144 1.344 . S
O146 Co138 2.055 . S
O146 C150 1.253 . S
H147 C143 0.931 . S
H148 C144 0.930 . S
O149 Co138 2.039 1_554 S
O149 C139 1.265 . S
C150 O146 1.253 . S
C150 O151 1.227 . S
O151 C150 1.227 . S
N152 Co138 2.140 . S
N152 C155 1.346 . S
N152 C156 1.345 . S
C153 C154 1.387 . S
C153 C157 1.391 . S
C154 C153 1.387 . S
C154 C155 1.369 . S
C154 H163 0.929 . S
C155 N152 1.346 . S
C155 C154 1.369 . S
C155 H158 0.928 . S
C156 N152 1.345 . S
C156 C157 1.371 . S
C156 H159 0.931 . S
C157 C153 1.391 . S
C157 C156 1.371 . S
C157 H164 0.930 . S
H158 C155 0.928 . S
H159 C156 0.931 . S
H160 C136 0.930 . S
H161 C133 0.930 . S
H162 C142 0.930 . S
H163 C154 0.929 . S
H164 C157 0.930 . S
C165 C166 1.351 . S
C165 N168 1.368 . S
C165 H170 0.931 . S
C166 C165 1.351 . S
C166 N167 1.373 . S
C166 H194 0.930 . S
N167 C166 1.373 . S
N167 C169 1.340 . S
N168 C165 1.368 . S
N168 C169 1.321 . S
N168 Co171 2.135 . S
C169 N167 1.340 . S
C169 N168 1.321 . S
C169 H193 0.930 . S
H170 C165 0.931 . S
Co171 N168 2.135 . S
Co171 N174 2.121 1_554 S
Co171 O179 2.055 . S
Co171 O182 2.039 1_554 S
Co171 N185 2.140 . S
C172 O173 1.227 1_556 S
C172 O182 1.265 . S
O173 C172 1.227 1_554 S
N174 Co171 2.121 1_556 S
N174 C176 1.375 . S
N174 C177 1.313 . S
C175 C176 1.338 . S
C175 N178 1.377 . S
C175 H195 0.930 . S
C176 N174 1.375 . S
C176 C175 1.338 . S
C176 H180 0.931 . S
C177 N174 1.313 . S
C177 N178 1.344 . S
C177 H181 0.930 . S
N178 C175 1.377 . S
N178 C177 1.344 . S
O179 Co171 2.055 . S
O179 C183 1.253 . S
H180 C176 0.931 . S
H181 C177 0.930 . S
O182 Co171 2.039 1_556 S
O182 C172 1.265 . S
C183 O179 1.253 . S
C183 O184 1.227 . S
O184 C183 1.227 . S
N185 Co171 2.140 . S
N185 C188 1.346 . S
N185 C189 1.345 . S
C186 C187 1.387 . S
C186 C190 1.391 . S
C187 C186 1.387 . S
C187 C188 1.369 . S
C187 H196 0.929 . S
C188 N185 1.346 . S
C188 C187 1.369 . S
C188 H191 0.928 . S
C189 N185 1.345 . S
C189 C190 1.371 . S
C189 H192 0.931 . S
C190 C186 1.391 . S
C190 C189 1.371 . S
C190 H197 0.930 . S
H191 C188 0.928 . S
H192 C189 0.931 . S
H193 C169 0.930 . S
H194 C166 0.930 . S
H195 C175 0.930 . S
H196 C187 0.929 . S
H197 C190 0.930 . S
C198 C199 1.351 . S
C198 N201 1.368 . S
C198 H203 0.931 . S
C199 C198 1.351 . S
C199 N200 1.373 . S
C199 H227 0.930 . S
N200 C199 1.373 . S
N200 C202 1.340 . S
N201 C198 1.368 . S
N201 C202 1.321 . S
N201 Co204 2.135 . S
C202 N200 1.340 . S
C202 N201 1.321 . S
C202 H226 0.930 . S
H203 C198 0.931 . S
Co204 N201 2.135 . S
Co204 N207 2.121 1_556 S
Co204 O212 2.055 . S
Co204 O215 2.039 1_556 S
Co204 N218 2.140 . S
C205 O206 1.227 1_554 S
C205 O215 1.265 . S
O206 C205 1.227 1_556 S
N207 Co204 2.121 1_554 S
N207 C209 1.375 . S
N207 C210 1.313 . S
C208 C209 1.338 . S
C208 N211 1.377 . S
C208 H228 0.930 . S
C209 N207 1.375 . S
C209 C208 1.338 . S
C209 H213 0.931 . S
C210 N207 1.313 . S
C210 N211 1.344 . S
C210 H214 0.930 . S
N211 C208 1.377 . S
N211 C210 1.344 . S
O212 Co204 2.055 . S
O212 C216 1.253 . S
H213 C209 0.931 . S
H214 C210 0.930 . S
O215 Co204 2.039 1_554 S
O215 C205 1.265 . S
C216 O212 1.253 . S
C216 O217 1.227 . S
O217 C216 1.227 . S
N218 Co204 2.140 . S
N218 C221 1.346 . S
N218 C222 1.345 . S
C219 C220 1.387 . S
C219 C223 1.391 . S
C220 C219 1.387 . S
C220 C221 1.369 . S
C220 H229 0.929 . S
C221 N218 1.346 . S
C221 C220 1.369 . S
C221 H224 0.928 . S
C222 N218 1.345 . S
C222 C223 1.371 . S
C222 H225 0.931 . S
C223 C219 1.391 . S
C223 C222 1.371 . S
C223 H230 0.930 . S
H224 C221 0.928 . S
H225 C222 0.931 . S
H226 C202 0.930 . S
H227 C199 0.930 . S
H228 C208 0.930 . S
H229 C220 0.929 . S
H230 C223 0.930 . S
C231 C232 1.351 . S
C231 N234 1.368 . S
C231 H236 0.931 . S
C232 C231 1.351 . S
C232 N233 1.373 . S
C232 H260 0.930 . S
N233 C232 1.373 . S
N233 C235 1.340 . S
N234 C231 1.368 . S
N234 C235 1.321 . S
N234 Co237 2.135 . S
C235 N233 1.340 . S
C235 N234 1.321 . S
C235 H259 0.930 . S
H236 C231 0.931 . S
Co237 N234 2.135 . S
Co237 N240 2.121 1_554 S
Co237 O245 2.055 . S
Co237 O248 2.039 1_554 S
Co237 N251 2.140 . S
C238 O239 1.227 1_556 S
C238 O248 1.265 . S
O239 C238 1.227 1_554 S
N240 Co237 2.121 1_556 S
N240 C242 1.375 . S
N240 C243 1.313 . S
C241 C242 1.338 . S
C241 N244 1.377 . S
C241 H261 0.930 . S
C242 N240 1.375 . S
C242 C241 1.338 . S
C242 H246 0.931 . S
C243 N240 1.313 . S
C243 N244 1.344 . S
C243 H247 0.930 . S
N244 C241 1.377 . S
N244 C243 1.344 . S
O245 Co237 2.055 . S
O245 C249 1.253 . S
H246 C242 0.931 . S
H247 C243 0.930 . S
O248 Co237 2.039 1_556 S
O248 C238 1.265 . S
C249 O245 1.253 . S
C249 O250 1.227 . S
O250 C249 1.227 . S
N251 Co237 2.140 . S
N251 C254 1.346 . S
N251 C255 1.345 . S
C252 C253 1.387 . S
C252 C256 1.391 . S
C253 C252 1.387 . S
C253 C254 1.369 . S
C253 H262 0.929 . S
C254 N251 1.346 . S
C254 C253 1.369 . S
C254 H257 0.928 . S
C255 N251 1.345 . S
C255 C256 1.371 . S
C255 H258 0.931 . S
C256 C252 1.391 . S
C256 C255 1.371 . S
C256 H263 0.930 . S
H257 C254 0.928 . S
H258 C255 0.931 . S
H259 C235 0.930 . S
H260 C232 0.930 . S
H261 C241 0.930 . S
H262 C253 0.929 . S
H263 C256 0.930 . S
C264 C265 1.351 . S
C264 N267 1.368 . S
C264 H269 0.931 . S
C265 C264 1.351 . S
C265 N266 1.373 . S
C265 H293 0.930 . S
N266 C265 1.373 . S
N266 C268 1.340 . S
N267 C264 1.368 . S
N267 C268 1.321 . S
N267 Co270 2.135 . S
C268 N266 1.340 . S
C268 N267 1.321 . S
C268 H292 0.930 . S
H269 C264 0.931 . S
Co270 N267 2.135 . S
Co270 N273 2.121 . S
Co270 O278 2.055 . S
Co270 O281 2.039 . S
Co270 N284 2.140 . S
C271 O272 1.227 . S
C271 O281 1.265 . S
O272 C271 1.227 . S
N273 Co270 2.121 . S
N273 C275 1.375 . S
N273 C276 1.313 . S
C274 C275 1.338 . S
C274 N277 1.377 . S
C274 H294 0.930 . S
C275 N273 1.375 . S
C275 C274 1.338 . S
C275 H279 0.931 . S
C276 N273 1.313 . S
C276 N277 1.344 . S
C276 H280 0.930 . S
N277 C274 1.377 . S
N277 C276 1.344 . S
O278 Co270 2.055 . S
O278 C282 1.253 . S
H279 C275 0.931 . S
H280 C276 0.930 . S
O281 Co270 2.039 . S
O281 C271 1.265 . S
C282 O278 1.253 . S
C282 O283 1.227 . S
O283 C282 1.227 . S
N284 Co270 2.140 . S
N284 C287 1.346 . S
N284 C288 1.345 . S
C285 C286 1.387 . S
C285 C289 1.391 . S
C286 C285 1.387 . S
C286 C287 1.369 . S
C286 H295 0.929 . S
C287 N284 1.346 . S
C287 C286 1.369 . S
C287 H290 0.928 . S
C288 N284 1.345 . S
C288 C289 1.371 . S
C288 H291 0.931 . S
C289 C285 1.391 . S
C289 C288 1.371 . S
C289 H296 0.930 . S
H290 C287 0.928 . S
H291 C288 0.931 . S
H292 C268 0.930 . S
H293 C265 0.930 . S
H294 C274 0.930 . S
H295 C286 0.929 . S
H296 C289 0.930 . S
C297 C298 1.351 . S
C297 N300 1.368 . S
C297 H302 0.931 . S
C298 C297 1.351 . S
C298 N299 1.373 . S
C298 H326 0.930 . S
N299 C298 1.373 . S
N299 C301 1.340 . S
N300 C297 1.368 . S
N300 C301 1.321 . S
N300 Co303 2.135 . S
C301 N299 1.340 . S
C301 N300 1.321 . S
C301 H325 0.930 . S
H302 C297 0.931 . S
Co303 N300 2.135 . S
Co303 N306 2.121 . S
Co303 O311 2.055 . S
Co303 O314 2.039 . S
Co303 N317 2.140 . S
C304 O305 1.227 . S
C304 O314 1.265 . S
O305 C304 1.227 . S
N306 Co303 2.121 . S
N306 C308 1.375 . S
N306 C309 1.313 . S
C307 C308 1.338 . S
C307 N310 1.377 . S
C307 H327 0.930 . S
C308 N306 1.375 . S
C308 C307 1.338 . S
C308 H312 0.931 . S
C309 N306 1.313 . S
C309 N310 1.344 . S
C309 H313 0.930 . S
N310 C307 1.377 . S
N310 C309 1.344 . S
O311 Co303 2.055 . S
O311 C315 1.253 . S
H312 C308 0.931 . S
H313 C309 0.930 . S
O314 Co303 2.039 . S
O314 C304 1.265 . S
C315 O311 1.253 . S
C315 O316 1.227 . S
O316 C315 1.227 . S
N317 Co303 2.140 . S
N317 C320 1.346 . S
N317 C321 1.345 . S
C318 C319 1.387 . S
C318 C322 1.391 . S
C319 C318 1.387 . S
C319 C320 1.369 . S
C319 H328 0.929 . S
C320 N317 1.346 . S
C320 C319 1.369 . S
C320 H323 0.928 . S
C321 N317 1.345 . S
C321 C322 1.371 . S
C321 H324 0.931 . S
C322 C318 1.391 . S
C322 C321 1.371 . S
C322 H329 0.930 . S
H323 C320 0.928 . S
H324 C321 0.931 . S
H325 C301 0.930 . S
H326 C298 0.930 . S
H327 C307 0.930 . S
H328 C319 0.929 . S
H329 C322 0.930 . S
C330 C331 1.351 . S
C330 N333 1.368 . S
C330 H335 0.931 . S
C331 C330 1.351 . S
C331 N332 1.373 . S
C331 H359 0.930 . S
N332 C331 1.373 . S
N332 C334 1.340 . S
N333 C330 1.368 . S
N333 C334 1.321 . S
N333 Co336 2.135 . S
C334 N332 1.340 . S
C334 N333 1.321 . S
C334 H358 0.930 . S
H335 C330 0.931 . S
Co336 N333 2.135 . S
Co336 N339 2.121 . S
Co336 O344 2.055 . S
Co336 O347 2.039 . S
Co336 N350 2.140 . S
C337 O338 1.227 . S
C337 O347 1.265 . S
O338 C337 1.227 . S
N339 Co336 2.121 . S
N339 C341 1.375 . S
N339 C342 1.313 . S
C340 C341 1.338 . S
C340 N343 1.377 . S
C340 H360 0.930 . S
C341 N339 1.375 . S
C341 C340 1.338 . S
C341 H345 0.931 . S
C342 N339 1.313 . S
C342 N343 1.344 . S
C342 H346 0.930 . S
N343 C340 1.377 . S
N343 C342 1.344 . S
O344 Co336 2.055 . S
O344 C348 1.253 . S
H345 C341 0.931 . S
H346 C342 0.930 . S
O347 Co336 2.039 . S
O347 C337 1.265 . S
C348 O344 1.253 . S
C348 O349 1.227 . S
O349 C348 1.227 . S
N350 Co336 2.140 . S
N350 C353 1.346 . S
N350 C354 1.345 . S
C351 C352 1.387 . S
C351 C355 1.391 . S
C352 C351 1.387 . S
C352 C353 1.369 . S
C352 H361 0.929 . S
C353 N350 1.346 . S
C353 C352 1.369 . S
C353 H356 0.928 . S
C354 N350 1.345 . S
C354 C355 1.371 . S
C354 H357 0.931 . S
C355 C351 1.391 . S
C355 C354 1.371 . S
C355 H362 0.930 . S
H356 C353 0.928 . S
H357 C354 0.931 . S
H358 C334 0.930 . S
H359 C331 0.930 . S
H360 C340 0.930 . S
H361 C352 0.929 . S
H362 C355 0.930 . S
C363 C364 1.351 . S
C363 N366 1.368 . S
C363 H368 0.931 . S
C364 C363 1.351 . S
C364 N365 1.373 . S
C364 H392 0.930 . S
N365 C364 1.373 . S
N365 C367 1.340 . S
N366 C363 1.368 . S
N366 C367 1.321 . S
N366 Co369 2.135 . S
C367 N365 1.340 . S
C367 N366 1.321 . S
C367 H391 0.930 . S
H368 C363 0.931 . S
Co369 N366 2.135 . S
Co369 N372 2.121 . S
Co369 O377 2.055 . S
Co369 O380 2.039 . S
Co369 N383 2.140 . S
C370 O371 1.227 . S
C370 O380 1.265 . S
O371 C370 1.227 . S
N372 Co369 2.121 . S
N372 C374 1.375 . S
N372 C375 1.313 . S
C373 C374 1.338 . S
C373 N376 1.377 . S
C373 H393 0.930 . S
C374 N372 1.375 . S
C374 C373 1.338 . S
C374 H378 0.931 . S
C375 N372 1.313 . S
C375 N376 1.344 . S
C375 H379 0.930 . S
N376 C373 1.377 . S
N376 C375 1.344 . S
O377 Co369 2.055 . S
O377 C381 1.253 . S
H378 C374 0.931 . S
H379 C375 0.930 . S
O380 Co369 2.039 . S
O380 C370 1.265 . S
C381 O377 1.253 . S
C381 O382 1.227 . S
O382 C381 1.227 . S
N383 Co369 2.140 . S
N383 C386 1.346 . S
N383 C387 1.345 . S
C384 C385 1.387 . S
C384 C388 1.391 . S
C385 C384 1.387 . S
C385 C386 1.369 . S
C385 H394 0.929 . S
C386 N383 1.346 . S
C386 C385 1.369 . S
C386 H389 0.928 . S
C387 N383 1.345 . S
C387 C388 1.371 . S
C387 H390 0.931 . S
C388 C384 1.391 . S
C388 C387 1.371 . S
C388 H395 0.930 . S
H389 C386 0.928 . S
H390 C387 0.931 . S
H391 C367 0.930 . S
H392 C364 0.930 . S
H393 C373 0.930 . S
H394 C385 0.929 . S
H395 C388 0.930 . S
C396 C397 1.351 . S
C396 N399 1.368 . S
C396 H401 0.931 . S
C397 C396 1.351 . S
C397 N398 1.373 . S
C397 H425 0.930 . S
N398 C397 1.373 . S
N398 C400 1.340 . S
N399 C396 1.368 . S
N399 C400 1.321 . S
N399 Co402 2.135 . S
C400 N398 1.340 . S
C400 N399 1.321 . S
C400 H424 0.930 . S
H401 C396 0.931 . S
Co402 N399 2.135 . S
Co402 N405 2.121 . S
Co402 O410 2.055 . S
Co402 O413 2.039 . S
Co402 N416 2.140 . S
C403 O404 1.227 . S
C403 O413 1.265 . S
O404 C403 1.227 . S
N405 Co402 2.121 . S
N405 C407 1.375 . S
N405 C408 1.313 . S
C406 C407 1.338 . S
C406 N409 1.377 . S
C406 H426 0.930 . S
C407 N405 1.375 . S
C407 C406 1.338 . S
C407 H411 0.931 . S
C408 N405 1.313 . S
C408 N409 1.344 . S
C408 H412 0.930 . S
N409 C406 1.377 . S
N409 C408 1.344 . S
O410 Co402 2.055 . S
O410 C414 1.253 . S
H411 C407 0.931 . S
H412 C408 0.930 . S
O413 Co402 2.039 . S
O413 C403 1.265 . S
C414 O410 1.253 . S
C414 O415 1.227 . S
O415 C414 1.227 . S
N416 Co402 2.140 . S
N416 C419 1.346 . S
N416 C420 1.345 . S
C417 C418 1.387 . S
C417 C421 1.391 . S
C418 C417 1.387 . S
C418 C419 1.369 . S
C418 H427 0.929 . S
C419 N416 1.346 . S
C419 C418 1.369 . S
C419 H422 0.928 . S
C420 N416 1.345 . S
C420 C421 1.371 . S
C420 H423 0.931 . S
C421 C417 1.391 . S
C421 C420 1.371 . S
C421 H428 0.930 . S
H422 C419 0.928 . S
H423 C420 0.931 . S
H424 C400 0.930 . S
H425 C397 0.930 . S
H426 C406 0.930 . S
H427 C418 0.929 . S
H428 C421 0.930 . S
C429 C430 1.351 . S
C429 N432 1.368 . S
C429 H434 0.931 . S
C430 C429 1.351 . S
C430 N431 1.373 . S
C430 H458 0.930 . S
N431 C430 1.373 . S
N431 C433 1.340 . S
N432 C429 1.368 . S
N432 C433 1.321 . S
N432 Co435 2.135 . S
C433 N431 1.340 . S
C433 N432 1.321 . S
C433 H457 0.930 . S
H434 C429 0.931 . S
Co435 N432 2.135 . S
Co435 N438 2.121 . S
Co435 O443 2.055 . S
Co435 O446 2.039 . S
Co435 N449 2.140 . S
C436 O437 1.227 . S
C436 O446 1.265 . S
O437 C436 1.227 . S
N438 Co435 2.121 . S
N438 C440 1.375 . S
N438 C441 1.313 . S
C439 C440 1.338 . S
C439 N442 1.377 . S
C439 H459 0.930 . S
C440 N438 1.375 . S
C440 C439 1.338 . S
C440 H444 0.931 . S
C441 N438 1.313 . S
C441 N442 1.344 . S
C441 H445 0.930 . S
N442 C439 1.377 . S
N442 C441 1.344 . S
O443 Co435 2.055 . S
O443 C447 1.253 . S
H444 C440 0.931 . S
H445 C441 0.930 . S
O446 Co435 2.039 . S
O446 C436 1.265 . S
C447 O443 1.253 . S
C447 O448 1.227 . S
O448 C447 1.227 . S
N449 Co435 2.140 . S
N449 C452 1.346 . S
N449 C453 1.345 . S
C450 C451 1.387 . S
C450 C454 1.391 . S
C451 C450 1.387 . S
C451 C452 1.369 . S
C451 H460 0.929 . S
C452 N449 1.346 . S
C452 C451 1.369 . S
C452 H455 0.928 . S
C453 N449 1.345 . S
C453 C454 1.371 . S
C453 H456 0.931 . S
C454 C450 1.391 . S
C454 C453 1.371 . S
C454 H461 0.930 . S
H455 C452 0.928 . S
H456 C453 0.931 . S
H457 C433 0.930 . S
H458 C430 0.930 . S
H459 C439 0.930 . S
H460 C451 0.929 . S
H461 C454 0.930 . S
C462 C463 1.351 . S
C462 N465 1.368 . S
C462 H467 0.931 . S
C463 C462 1.351 . S
C463 N464 1.373 . S
C463 H491 0.930 . S
N464 C463 1.373 . S
N464 C466 1.340 . S
N465 C462 1.368 . S
N465 C466 1.321 . S
N465 Co468 2.135 . S
C466 N464 1.340 . S
C466 N465 1.321 . S
C466 H490 0.930 . S
H467 C462 0.931 . S
Co468 N465 2.135 . S
Co468 N471 2.121 . S
Co468 O476 2.055 . S
Co468 O479 2.039 . S
Co468 N482 2.140 . S
C469 O470 1.227 . S
C469 O479 1.265 . S
O470 C469 1.227 . S
N471 Co468 2.121 . S
N471 C473 1.375 . S
N471 C474 1.313 . S
C472 C473 1.338 . S
C472 N475 1.377 . S
C472 H492 0.930 . S
C473 N471 1.375 . S
C473 C472 1.338 . S
C473 H477 0.931 . S
C474 N471 1.313 . S
C474 N475 1.344 . S
C474 H478 0.930 . S
N475 C472 1.377 . S
N475 C474 1.344 . S
O476 Co468 2.055 . S
O476 C480 1.253 . S
H477 C473 0.931 . S
H478 C474 0.930 . S
O479 Co468 2.039 . S
O479 C469 1.265 . S
C480 O476 1.253 . S
C480 O481 1.227 . S
O481 C480 1.227 . S
N482 Co468 2.140 . S
N482 C485 1.346 . S
N482 C486 1.345 . S
C483 C484 1.387 . S
C483 C487 1.391 . S
C484 C483 1.387 . S
C484 C485 1.369 . S
C484 H493 0.929 . S
C485 N482 1.346 . S
C485 C484 1.369 . S
C485 H488 0.928 . S
C486 N482 1.345 . S
C486 C487 1.371 . S
C486 H489 0.931 . S
C487 C483 1.391 . S
C487 C486 1.371 . S
C487 H494 0.930 . S
H488 C485 0.928 . S
H489 C486 0.931 . S
H490 C466 0.930 . S
H491 C463 0.930 . S
H492 C472 0.930 . S
H493 C484 0.929 . S
H494 C487 0.930 . S
C495 C496 1.351 . S
C495 N498 1.368 . S
C495 H500 0.931 . S
C496 C495 1.351 . S
C496 N497 1.373 . S
C496 H524 0.930 . S
N497 C496 1.373 . S
N497 C499 1.340 . S
N498 C495 1.368 . S
N498 C499 1.321 . S
N498 Co501 2.135 . S
C499 N497 1.340 . S
C499 N498 1.321 . S
C499 H523 0.930 . S
H500 C495 0.931 . S
Co501 N498 2.135 . S
Co501 N504 2.121 . S
Co501 O509 2.055 . S
Co501 O512 2.039 . S
Co501 N515 2.140 . S
C502 O503 1.227 . S
C502 O512 1.265 . S
O503 C502 1.227 . S
N504 Co501 2.121 . S
N504 C506 1.375 . S
N504 C507 1.313 . S
C505 C506 1.338 . S
C505 N508 1.377 . S
C505 H525 0.930 . S
C506 N504 1.375 . S
C506 C505 1.338 . S
C506 H510 0.931 . S
C507 N504 1.313 . S
C507 N508 1.344 . S
C507 H511 0.930 . S
N508 C505 1.377 . S
N508 C507 1.344 . S
O509 Co501 2.055 . S
O509 C513 1.253 . S
H510 C506 0.931 . S
H511 C507 0.930 . S
O512 Co501 2.039 . S
O512 C502 1.265 . S
C513 O509 1.253 . S
C513 O514 1.227 . S
O514 C513 1.227 . S
N515 Co501 2.140 . S
N515 C518 1.346 . S
N515 C519 1.345 . S
C516 C517 1.387 . S
C516 C520 1.391 . S
C517 C516 1.387 . S
C517 C518 1.369 . S
C517 H526 0.929 . S
C518 N515 1.346 . S
C518 C517 1.369 . S
C518 H521 0.928 . S
C519 N515 1.345 . S
C519 C520 1.371 . S
C519 H522 0.931 . S
C520 C516 1.391 . S
C520 C519 1.371 . S
C520 H527 0.930 . S
H521 C518 0.928 . S
H522 C519 0.931 . S
H523 C499 0.930 . S
H524 C496 0.930 . S
H525 C505 0.930 . S
H526 C517 0.929 . S
H527 C520 0.930 . S
H528 C534 0.930 . S
H529 C537 0.930 . S
H530 C538 0.930 . S
H531 C539 0.930 . S
H532 C542 0.930 . S
H533 C543 0.930 . S
C534 H528 0.930 . S
C534 C535 1.355 . S
C534 C536 1.415 . S
C535 C534 1.355 . S
C535 C537 1.419 . S
C536 C534 1.415 . S
C536 C541 1.425 . S
C536 C543 1.409 . S
C537 H529 0.930 . S
C537 C535 1.419 . S
C537 C538 1.362 . S
C538 H530 0.930 . S
C538 C537 1.362 . S
C538 C541 1.409 . S
C539 H531 0.930 . S
C539 C540 1.355 . S
C539 C541 1.415 . S
C540 C539 1.355 . S
C540 C542 1.419 . S
C541 C536 1.425 . S
C541 C538 1.409 . S
C541 C539 1.415 . S
C542 H532 0.930 . S
C542 C540 1.419 . S
C542 C543 1.362 . S
C543 H533 0.930 . S
C543 C536 1.409 . S
C543 C542 1.362 . S
H544 C550 0.930 . S
H545 C553 0.930 . S
H546 C554 0.930 . S
H547 C555 0.930 . S
H548 C558 0.930 . S
H549 C559 0.930 . S
C550 H544 0.930 . S
C550 C551 1.355 . S
C550 C552 1.415 . S
C551 C550 1.355 . S
C551 C553 1.419 . S
C552 C550 1.415 . S
C552 C557 1.425 . S
C552 C559 1.409 . S
C553 H545 0.930 . S
C553 C551 1.419 . S
C553 C554 1.362 . S
C554 H546 0.930 . S
C554 C553 1.362 . S
C554 C557 1.409 . S
C555 H547 0.930 . S
C555 C556 1.355 . S
C555 C557 1.415 . S
C556 C555 1.355 . S
C556 C558 1.419 . S
C557 C552 1.425 . S
C557 C554 1.409 . S
C557 C555 1.415 . S
C558 H548 0.930 . S
C558 C556 1.419 . S
C558 C559 1.362 . S
C559 H549 0.930 . S
C559 C552 1.409 . S
C559 C558 1.362 . S
H560 C566 0.930 . S
H561 C569 0.930 . S
H562 C570 0.930 . S
H563 C571 0.930 . S
H564 C574 0.930 . S
H565 C575 0.930 . S
C566 H560 0.930 . S
C566 C567 1.355 . S
C566 C568 1.415 . S
C567 C566 1.355 . S
C567 C569 1.419 . S
C568 C566 1.415 . S
C568 C573 1.425 . S
C568 C575 1.409 . S
C569 H561 0.930 . S
C569 C567 1.419 . S
C569 C570 1.362 . S
C570 H562 0.930 . S
C570 C569 1.362 . S
C570 C573 1.409 . S
C571 H563 0.930 . S
C571 C572 1.355 . S
C571 C573 1.415 . S
C572 C571 1.355 . S
C572 C574 1.419 . S
C573 C568 1.425 . S
C573 C570 1.409 . S
C573 C571 1.415 . S
C574 H564 0.930 . S
C574 C572 1.419 . S
C574 C575 1.362 . S
C575 H565 0.930 . S
C575 C568 1.409 . S
C575 C574 1.362 . S
H576 C582 0.930 . S
H577 C585 0.930 . S
H578 C586 0.930 . S
H579 C587 0.930 . S
H580 C590 0.930 . S
H581 C591 0.930 . S
C582 H576 0.930 . S
C582 C583 1.355 . S
C582 C584 1.415 . S
C583 C582 1.355 . S
C583 C585 1.419 . S
C584 C582 1.415 . S
C584 C589 1.425 . S
C584 C591 1.409 . S
C585 H577 0.930 . S
C585 C583 1.419 . S
C585 C586 1.362 . S
C586 H578 0.930 . S
C586 C585 1.362 . S
C586 C589 1.409 . S
C587 H579 0.930 . S
C587 C588 1.355 . S
C587 C589 1.415 . S
C588 C587 1.355 . S
C588 C590 1.419 . S
C589 C584 1.425 . S
C589 C586 1.409 . S
C589 C587 1.415 . S
C590 H580 0.930 . S
C590 C588 1.419 . S
C590 C591 1.362 . S
C591 H581 0.930 . S
C591 C584 1.409 . S
C591 C590 1.362 . S
H592 C598 0.930 . S
H593 C601 0.930 . S
H594 C602 0.930 . S
H595 C603 0.930 . S
H596 C606 0.930 . S
H597 C607 0.930 . S
C598 H592 0.930 . S
C598 C599 1.355 . S
C598 C600 1.415 . S
C599 C598 1.355 . S
C599 C601 1.419 . S
C600 C598 1.415 . S
C600 C605 1.425 . S
C600 C607 1.409 . S
C601 H593 0.930 . S
C601 C599 1.419 . S
C601 C602 1.362 . S
C602 H594 0.930 . S
C602 C601 1.362 . S
C602 C605 1.409 . S
C603 H595 0.930 . S
C603 C604 1.355 . S
C603 C605 1.415 . S
C604 C603 1.355 . S
C604 C606 1.419 . S
C605 C600 1.425 . S
C605 C602 1.409 . S
C605 C603 1.415 . S
C606 H596 0.930 . S
C606 C604 1.419 . S
C606 C607 1.362 . S
C607 H597 0.930 . S
C607 C600 1.409 . S
C607 C606 1.362 . S
H608 C614 0.930 . S
H609 C617 0.930 . S
H610 C618 0.930 . S
H611 C619 0.930 . S
H612 C622 0.930 . S
H613 C623 0.930 . S
C614 H608 0.930 . S
C614 C615 1.355 . S
C614 C616 1.415 . S
C615 C614 1.355 . S
C615 C617 1.419 . S
C616 C614 1.415 . S
C616 C621 1.425 . S
C616 C623 1.409 . S
C617 H609 0.930 . S
C617 C615 1.419 . S
C617 C618 1.362 . S
C618 H610 0.930 . S
C618 C617 1.362 . S
C618 C621 1.409 . S
C619 H611 0.930 . S
C619 C620 1.355 . S
C619 C621 1.415 . S
C620 C619 1.355 . S
C620 C622 1.419 . S
C621 C616 1.425 . S
C621 C618 1.409 . S
C621 C619 1.415 . S
C622 H612 0.930 . S
C622 C620 1.419 . S
C622 C623 1.362 . S
C623 H613 0.930 . S
C623 C616 1.409 . S
C623 C622 1.362 . S
H624 C630 0.930 . S
H625 C633 0.930 . S
H626 C634 0.930 . S
H627 C635 0.930 . S
H628 C638 0.930 . S
H629 C639 0.930 . S
C630 H624 0.930 . S
C630 C631 1.355 . S
C630 C632 1.415 . S
C631 C630 1.355 . S
C631 C633 1.419 . S
C632 C630 1.415 . S
C632 C637 1.425 . S
C632 C639 1.409 . S
C633 H625 0.930 . S
C633 C631 1.419 . S
C633 C634 1.362 . S
C634 H626 0.930 . S
C634 C633 1.362 . S
C634 C637 1.409 . S
C635 H627 0.930 . S
C635 C636 1.355 . S
C635 C637 1.415 . S
C636 C635 1.355 . S
C636 C638 1.419 . S
C637 C632 1.425 . S
C637 C634 1.409 . S
C637 C635 1.415 . S
C638 H628 0.930 . S
C638 C636 1.419 . S
C638 C639 1.362 . S
C639 H629 0.930 . S
C639 C632 1.409 . S
C639 C638 1.362 . S
H640 C646 0.930 . S
H641 C649 0.930 . S
H642 C650 0.930 . S
H643 C651 0.930 . S
H644 C654 0.930 . S
H645 C655 0.930 . S
C646 H640 0.930 . S
C646 C647 1.355 . S
C646 C648 1.415 . S
C647 C646 1.355 . S
C647 C649 1.419 . S
C648 C646 1.415 . S
C648 C653 1.425 . S
C648 C655 1.409 . S
C649 H641 0.930 . S
C649 C647 1.419 . S
C649 C650 1.362 . S
C650 H642 0.930 . S
C650 C649 1.362 . S
C650 C653 1.409 . S
C651 H643 0.930 . S
C651 C652 1.355 . S
C651 C653 1.415 . S
C652 C651 1.355 . S
C652 C654 1.419 . S
C653 C648 1.425 . S
C653 C650 1.409 . S
C653 C651 1.415 . S
C654 H644 0.930 . S
C654 C652 1.419 . S
C654 C655 1.362 . S
C655 H645 0.930 . S
C655 C648 1.409 . S
C655 C654 1.362 . S
H656 C662 0.930 . S
H657 C665 0.930 . S
H658 C666 0.930 . S
H659 C667 0.930 . S
H660 C670 0.930 . S
H661 C671 0.930 . S
C662 H656 0.930 . S
C662 C663 1.355 . S
C662 C664 1.415 . S
C663 C662 1.355 . S
C663 C665 1.419 . S
C664 C662 1.415 . S
C664 C669 1.425 . S
C664 C671 1.409 . S
C665 H657 0.930 . S
C665 C663 1.419 . S
C665 C666 1.362 . S
C666 H658 0.930 . S
C666 C665 1.362 . S
C666 C669 1.409 . S
C667 H659 0.930 . S
C667 C668 1.355 . S
C667 C669 1.415 . S
C668 C667 1.355 . S
C668 C670 1.419 . S
C669 C664 1.425 . S
C669 C666 1.409 . S
C669 C667 1.415 . S
C670 H660 0.930 . S
C670 C668 1.419 . S
C670 C671 1.362 . S
C671 H661 0.930 . S
C671 C664 1.409 . S
C671 C670 1.362 . S
H672 C678 0.930 . S
H673 C681 0.930 . S
H674 C682 0.930 . S
H675 C683 0.930 . S
H676 C686 0.930 . S
H677 C687 0.930 . S
C678 H672 0.930 . S
C678 C679 1.355 . S
C678 C680 1.415 . S
C679 C678 1.355 . S
C679 C681 1.419 . S
C680 C678 1.415 . S
C680 C685 1.425 . S
C680 C687 1.409 . S
C681 H673 0.930 . S
C681 C679 1.419 . S
C681 C682 1.362 . S
C682 H674 0.930 . S
C682 C681 1.362 . S
C682 C685 1.409 . S
C683 H675 0.930 . S
C683 C684 1.355 . S
C683 C685 1.415 . S
C684 C683 1.355 . S
C684 C686 1.419 . S
C685 C680 1.425 . S
C685 C682 1.409 . S
C685 C683 1.415 . S
C686 H676 0.930 . S
C686 C684 1.419 . S
C686 C687 1.362 . S
C687 H677 0.930 . S
C687 C680 1.409 . S
C687 C686 1.362 . S
H688 C694 0.930 . S
H689 C697 0.930 . S
H690 C698 0.930 . S
H691 C699 0.930 . S
H692 C702 0.930 . S
H693 C703 0.930 . S
C694 H688 0.930 . S
C694 C695 1.355 . S
C694 C696 1.415 . S
C695 C694 1.355 . S
C695 C697 1.419 . S
C696 C694 1.415 . S
C696 C701 1.425 . S
C696 C703 1.409 . S
C697 H689 0.930 . S
C697 C695 1.419 . S
C697 C698 1.362 . S
C698 H690 0.930 . S
C698 C697 1.362 . S
C698 C701 1.409 . S
C699 H691 0.930 . S
C699 C700 1.355 . S
C699 C701 1.415 . S
C700 C699 1.355 . S
C700 C702 1.419 . S
C701 C696 1.425 . S
C701 C698 1.409 . S
C701 C699 1.415 . S
C702 H692 0.930 . S
C702 C700 1.419 . S
C702 C703 1.362 . S
C703 H693 0.930 . S
C703 C696 1.409 . S
C703 C702 1.362 . S
H704 C710 0.930 . S
H705 C713 0.930 . S
H706 C714 0.930 . S
H707 C715 0.930 . S
H708 C718 0.930 . S
H709 C719 0.930 . S
C710 H704 0.930 . S
C710 C711 1.355 . S
C710 C712 1.415 . S
C711 C710 1.355 . S
C711 C713 1.419 . S
C712 C710 1.415 . S
C712 C717 1.425 . S
C712 C719 1.409 . S
C713 H705 0.930 . S
C713 C711 1.419 . S
C713 C714 1.362 . S
C714 H706 0.930 . S
C714 C713 1.362 . S
C714 C717 1.409 . S
C715 H707 0.930 . S
C715 C716 1.355 . S
C715 C717 1.415 . S
C716 C715 1.355 . S
C716 C718 1.419 . S
C717 C712 1.425 . S
C717 C714 1.409 . S
C717 C715 1.415 . S
C718 H708 0.930 . S
C718 C716 1.419 . S
C718 C719 1.362 . S
C719 H709 0.930 . S
C719 C712 1.409 . S
C719 C718 1.362 . S
H720 C726 0.930 . S
H721 C729 0.930 . S
H722 C730 0.930 . S
H723 C731 0.930 . S
H724 C734 0.930 1_554 S
H725 C735 0.930 . S
C726 H720 0.930 . S
C726 C727 1.355 . S
C726 C728 1.415 . S
C727 C726 1.355 . S
C727 C729 1.419 . S
C728 C726 1.415 . S
C728 C733 1.425 . S
C728 C735 1.409 . S
C729 H721 0.930 . S
C729 C727 1.419 . S
C729 C730 1.362 . S
C730 H722 0.930 . S
C730 C729 1.362 . S
C730 C733 1.409 . S
C731 H723 0.930 . S
C731 C732 1.355 . S
C731 C733 1.415 . S
C732 C731 1.355 . S
C732 C734 1.419 . S
C733 C728 1.425 . S
C733 C730 1.409 . S
C733 C731 1.415 . S
C734 H724 0.930 1_556 S
C734 C732 1.419 . S
C734 C735 1.362 . S
C735 H725 0.930 . S
C735 C728 1.409 . S
C735 C734 1.362 . S
H736 C742 0.930 . S
H737 C745 0.930 . S
H738 C746 0.930 . S
H739 C747 0.930 . S
H740 C750 0.930 . S
H741 C751 0.930 . S
C742 H736 0.930 . S
C742 C743 1.355 . S
C742 C744 1.415 . S
C743 C742 1.355 . S
C743 C745 1.419 . S
C744 C742 1.415 . S
C744 C749 1.425 . S
C744 C751 1.409 . S
C745 H737 0.930 . S
C745 C743 1.419 . S
C745 C746 1.362 . S
C746 H738 0.930 . S
C746 C745 1.362 . S
C746 C749 1.409 . S
C747 H739 0.930 . S
C747 C748 1.355 . S
C747 C749 1.415 . S
C748 C747 1.355 . S
C748 C750 1.419 . S
C749 C744 1.425 . S
C749 C746 1.409 . S
C749 C747 1.415 . S
C750 H740 0.930 . S
C750 C748 1.419 . S
C750 C751 1.362 . S
C751 H741 0.930 . S
C751 C744 1.409 . S
C751 C750 1.362 . S
H752 C758 0.930 . S
H753 C761 0.930 1_554 S
H754 C762 0.930 . S
H755 C763 0.930 . S
H756 C766 0.930 . S
H757 C767 0.930 . S
C758 H752 0.930 . S
C758 C759 1.355 . S
C758 C760 1.415 . S
C759 C758 1.355 . S
C759 C761 1.419 . S
C760 C758 1.415 . S
C760 C765 1.425 . S
C760 C767 1.409 . S
C761 H753 0.930 1_556 S
C761 C759 1.419 . S
C761 C762 1.362 . S
C762 H754 0.930 . S
C762 C761 1.362 . S
C762 C765 1.409 . S
C763 H755 0.930 . S
C763 C764 1.355 . S
C763 C765 1.415 . S
C764 C763 1.355 . S
C764 C766 1.419 . S
C765 C760 1.425 . S
C765 C762 1.409 . S
C765 C763 1.415 . S
C766 H756 0.930 . S
C766 C764 1.419 . S
C766 C767 1.362 . S
C767 H757 0.930 . S
C767 C760 1.409 . S
C767 C766 1.362 . S
H768 C774 0.930 . S
H769 C777 0.930 1_556 S
H770 C778 0.930 . S
H771 C779 0.930 . S
H772 C782 0.930 . S
H773 C783 0.930 . S
C774 H768 0.930 . S
C774 C775 1.355 . S
C774 C776 1.415 . S
C775 C774 1.355 . S
C775 C777 1.419 . S
C776 C774 1.415 . S
C776 C781 1.425 . S
C776 C783 1.409 . S
C777 H769 0.930 1_554 S
C777 C775 1.419 . S
C777 C778 1.362 . S
C778 H770 0.930 . S
C778 C777 1.362 . S
C778 C781 1.409 . S
C779 H771 0.930 . S
C779 C780 1.355 . S
C779 C781 1.415 . S
C780 C779 1.355 . S
C780 C782 1.419 . S
C781 C776 1.425 . S
C781 C778 1.409 . S
C781 C779 1.415 . S
C782 H772 0.930 . S
C782 C780 1.419 . S
C782 C783 1.362 . S
C783 H773 0.930 . S
C783 C776 1.409 . S
C783 C782 1.362 . S
H784 C790 0.930 . S
H785 C793 0.930 . S
H786 C794 0.930 . S
H787 C795 0.930 . S
H788 C798 0.930 . S
H789 C799 0.930 . S
C790 H784 0.930 . S
C790 C791 1.355 . S
C790 C792 1.415 1_455 S
C791 C790 1.355 . S
C791 C793 1.419 1_545 S
C792 C790 1.415 1_655 S
C792 C797 1.425 1_645 S
C792 C799 1.409 . S
C793 H785 0.930 . S
C793 C791 1.419 1_565 S
C793 C794 1.362 . S
C794 H786 0.930 . S
C794 C793 1.362 . S
C794 C797 1.409 . S
C795 H787 0.930 . S
C795 C796 1.355 . S
C795 C797 1.415 1_655 S
C796 C795 1.355 . S
C796 C798 1.419 1_565 S
C797 C792 1.425 1_465 S
C797 C794 1.409 . S
C797 C795 1.415 1_455 S
C798 H788 0.930 . S
C798 C796 1.419 1_545 S
C798 C799 1.362 . S
C799 H789 0.930 . S
C799 C792 1.409 . S
C799 C798 1.362 . S
H800 C806 0.930 1_655 S
H801 C809 0.930 . S
H802 C810 0.930 1_545 S
H803 C811 0.930 1_455 S
H804 C814 0.930 . S
H805 C815 0.930 1_565 S
C806 H800 0.930 1_455 S
C806 C807 1.355 . S
C806 C808 1.415 1_455 S
C807 C806 1.355 . S
C807 C809 1.419 . S
C808 C806 1.415 1_655 S
C808 C813 1.425 1_665 S
C808 C815 1.409 1_565 S
C809 H801 0.930 . S
C809 C807 1.419 . S
C809 C810 1.362 . S
C810 H802 0.930 1_565 S
C810 C809 1.362 . S
C810 C813 1.409 1_565 S
C811 H803 0.930 1_655 S
C811 C812 1.355 . S
C811 C813 1.415 1_655 S
C812 C811 1.355 . S
C812 C814 1.419 . S
C813 C808 1.425 1_445 S
C813 C810 1.409 1_545 S
C813 C811 1.415 1_455 S
C814 H804 0.930 . S
C814 C812 1.419 . S
C814 C815 1.362 . S
C815 H805 0.930 1_545 S
C815 C808 1.409 1_545 S
C815 C814 1.362 . S
H816 C822 0.930 . S
H817 C825 0.930 . S
H818 C826 0.930 . S
H819 C827 0.930 . S
H820 C830 0.930 . S
H821 C831 0.930 . S
C822 H816 0.930 . S
C822 C823 1.355 . S
C822 C824 1.415 1_455 S
C823 C822 1.355 . S
C823 C825 1.419 . S
C824 C822 1.415 1_655 S
C824 C829 1.425 1_655 S
C824 C831 1.409 . S
C825 H817 0.930 . S
C825 C823 1.419 . S
C825 C826 1.362 . S
C826 H818 0.930 . S
C826 C825 1.362 . S
C826 C829 1.409 . S
C827 H819 0.930 . S
C827 C828 1.355 . S
C827 C829 1.415 1_655 S
C828 C827 1.355 . S
C828 C830 1.419 . S
C829 C824 1.425 1_455 S
C829 C826 1.409 . S
C829 C827 1.415 1_455 S
C830 H820 0.930 . S
C830 C828 1.419 . S
C830 C831 1.362 . S
C831 H821 0.930 . S
C831 C824 1.409 . S
C831 C830 1.362 . S
H832 C838 0.930 . S
H833 C841 0.930 . S
H834 C842 0.930 . S
H835 C843 0.930 . S
H836 C846 0.930 . S
H837 C847 0.930 . S
C838 H832 0.930 . S
C838 C839 1.355 . S
C838 C840 1.415 1_565 S
C839 C838 1.355 . S
C839 C841 1.419 . S
C840 C838 1.415 1_545 S
C840 C845 1.425 1_545 S
C840 C847 1.409 . S
C841 H833 0.930 . S
C841 C839 1.419 . S
C841 C842 1.362 . S
C842 H834 0.930 . S
C842 C841 1.362 . S
C842 C845 1.409 . S
C843 H835 0.930 . S
C843 C844 1.355 . S
C843 C845 1.415 1_545 S
C844 C843 1.355 . S
C844 C846 1.419 . S
C845 C840 1.425 1_565 S
C845 C842 1.409 . S
C845 C843 1.415 1_565 S
C846 H836 0.930 . S
C846 C844 1.419 . S
C846 C847 1.362 . S
C847 H837 0.930 . S
C847 C840 1.409 . S
C847 C846 1.362 . S
H848 C854 0.930 . S
H849 C857 0.930 . S
H850 C858 0.930 . S
H851 C859 0.930 . S
H852 C862 0.930 . S
H853 C863 0.930 . S
C854 H848 0.930 . S
C854 C855 1.355 . S
C854 C856 1.415 . S
C855 C854 1.355 . S
C855 C857 1.419 . S
C856 C854 1.415 . S
C856 C861 1.425 . S
C856 C863 1.409 . S
C857 H849 0.930 . S
C857 C855 1.419 . S
C857 C858 1.362 . S
C858 H850 0.930 . S
C858 C857 1.362 . S
C858 C861 1.409 . S
C859 H851 0.930 . S
C859 C860 1.355 . S
C859 C861 1.415 . S
C860 C859 1.355 . S
C860 C862 1.419 . S
C861 C856 1.425 . S
C861 C858 1.409 . S
C861 C859 1.415 . S
C862 H852 0.930 . S
C862 C860 1.419 . S
C862 C863 1.362 . S
C863 H853 0.930 . S
C863 C856 1.409 . S
C863 C862 1.362 . S
H864 C870 0.930 . S
H865 C873 0.930 . S
H866 C874 0.930 . S
H867 C875 0.930 . S
H868 C878 0.930 . S
H869 C879 0.930 . S
C870 H864 0.930 . S
C870 C871 1.355 . S
C870 C872 1.415 . S
C871 C870 1.355 . S
C871 C873 1.419 . S
C872 C870 1.415 . S
C872 C877 1.425 . S
C872 C879 1.409 . S
C873 H865 0.930 . S
C873 C871 1.419 . S
C873 C874 1.362 . S
C874 H866 0.930 . S
C874 C873 1.362 . S
C874 C877 1.409 . S
C875 H867 0.930 . S
C875 C876 1.355 . S
C875 C877 1.415 . S
C876 C875 1.355 . S
C876 C878 1.419 . S
C877 C872 1.425 . S
C877 C874 1.409 . S
C877 C875 1.415 . S
C878 H868 0.930 . S
C878 C876 1.419 . S
C878 C879 1.362 . S
C879 H869 0.930 . S
C879 C872 1.409 . S
C879 C878 1.362 . S
H880 C886 0.930 . S
H881 C889 0.930 . S
H882 C890 0.930 . S
H883 C891 0.930 . S
H884 C894 0.930 . S
H885 C895 0.930 . S
C886 H880 0.930 . S
C886 C887 1.355 . S
C886 C888 1.415 . S
C887 C886 1.355 . S
C887 C889 1.419 1_565 S
C888 C886 1.415 . S
C888 C893 1.425 1_565 S
C888 C895 1.409 . S
C889 H881 0.930 . S
C889 C887 1.419 1_545 S
C889 C890 1.362 . S
C890 H882 0.930 . S
C890 C889 1.362 . S
C890 C893 1.409 . S
C891 H883 0.930 . S
C891 C892 1.355 . S
C891 C893 1.415 . S
C892 C891 1.355 . S
C892 C894 1.419 1_545 S
C893 C888 1.425 1_545 S
C893 C890 1.409 . S
C893 C891 1.415 . S
C894 H884 0.930 . S
C894 C892 1.419 1_565 S
C894 C895 1.362 . S
C895 H885 0.930 . S
C895 C888 1.409 . S
C895 C894 1.362 . S
H896 C902 0.930 . S
H897 C905 0.930 . S
H898 C906 0.930 . S
H899 C907 0.930 . S
H900 C910 0.930 . S
H901 C911 0.930 . S
C902 H896 0.930 . S
C902 C903 1.355 . S
C902 C904 1.415 . S
C903 C902 1.355 . S
C903 C905 1.419 1_655 S
C904 C902 1.415 . S
C904 C909 1.425 1_655 S
C904 C911 1.409 . S
C905 H897 0.930 . S
C905 C903 1.419 1_455 S
C905 C906 1.362 . S
C906 H898 0.930 . S
C906 C905 1.362 . S
C906 C909 1.409 . S
C907 H899 0.930 . S
C907 C908 1.355 . S
C907 C909 1.415 . S
C908 C907 1.355 . S
C908 C910 1.419 1_455 S
C909 C904 1.425 1_455 S
C909 C906 1.409 . S
C909 C907 1.415 . S
C910 H900 0.930 . S
C910 C908 1.419 1_655 S
C910 C911 1.362 . S
C911 H901 0.930 . S
C911 C904 1.409 . S
C911 C910 1.362 . S
H912 C918 0.930 . S
H913 C921 0.930 . S
H914 C922 0.930 . S
H915 C923 0.930 . S
H916 C926 0.930 . S
H917 C927 0.930 . S
C918 H912 0.930 . S
C918 C919 1.355 . S
C918 C920 1.415 . S
C919 C918 1.355 . S
C919 C921 1.419 . S
C920 C918 1.415 . S
C920 C925 1.425 . S
C920 C927 1.409 1_565 S
C921 H913 0.930 . S
C921 C919 1.419 . S
C921 C922 1.362 . S
C922 H914 0.930 . S
C922 C921 1.362 . S
C922 C925 1.409 . S
C923 H915 0.930 . S
C923 C924 1.355 . S
C923 C925 1.415 . S
C924 C923 1.355 . S
C924 C926 1.419 1_565 S
C925 C920 1.425 . S
C925 C922 1.409 . S
C925 C923 1.415 . S
C926 H916 0.930 . S
C926 C924 1.419 1_545 S
C926 C927 1.362 . S
C927 H917 0.930 . S
C927 C920 1.409 1_545 S
C927 C926 1.362 . S
H928 C934 0.930 . S
H929 C937 0.930 . S
H930 C938 0.930 . S
H931 C939 0.930 . S
H932 C942 0.930 . S
H933 C943 0.930 1_455 S
C934 H928 0.930 . S
C934 C935 1.355 1_455 S
C934 C936 1.415 1_455 S
C935 C934 1.355 1_655 S
C935 C937 1.419 . S
C936 C934 1.415 1_655 S
C936 C941 1.425 . S
C936 C943 1.409 . S
C937 H929 0.930 . S
C937 C935 1.419 . S
C937 C938 1.362 . S
C938 H930 0.930 . S
C938 C937 1.362 . S
C938 C941 1.409 . S
C939 H931 0.930 . S
C939 C940 1.355 . S
C939 C941 1.415 . S
C940 C939 1.355 . S
C940 C942 1.419 . S
C941 C936 1.425 . S
C941 C938 1.409 . S
C941 C939 1.415 . S
C942 H932 0.930 . S
C942 C940 1.419 . S
C942 C943 1.362 . S
C943 H933 0.930 1_655 S
C943 C936 1.409 . S
C943 C942 1.362 . S
H944 C950 0.930 . S
H945 C953 0.930 . S
H946 C954 0.930 . S
H947 C955 0.930 . S
H948 C958 0.930 . S
H949 C959 0.930 . S
C950 H944 0.930 . S
C950 C951 1.355 . S
C950 C952 1.415 . S
C951 C950 1.355 . S
C951 C953 1.419 . S
C952 C950 1.415 . S
C952 C957 1.425 . S
C952 C959 1.409 1_545 S
C953 H945 0.930 . S
C953 C951 1.419 . S
C953 C954 1.362 . S
C954 H946 0.930 . S
C954 C953 1.362 . S
C954 C957 1.409 . S
C955 H947 0.930 . S
C955 C956 1.355 . S
C955 C957 1.415 . S
C956 C955 1.355 . S
C956 C958 1.419 1_545 S
C957 C952 1.425 . S
C957 C954 1.409 . S
C957 C955 1.415 . S
C958 H948 0.930 . S
C958 C956 1.419 1_565 S
C958 C959 1.362 . S
C959 H949 0.930 . S
C959 C952 1.409 1_565 S
C959 C958 1.362 . S
H960 C966 0.930 . S
H961 C969 0.930 1_655 S
H962 C970 0.930 . S
H963 C971 0.930 . S
H964 C974 0.930 . S
H965 C975 0.930 . S
C966 H960 0.930 . S
C966 C967 1.355 . S
C966 C968 1.415 . S
C967 C966 1.355 . S
C967 C969 1.419 . S
C968 C966 1.415 . S
C968 C973 1.425 . S
C968 C975 1.409 . S
C969 H961 0.930 1_455 S
C969 C967 1.419 . S
C969 C970 1.362 . S
C970 H962 0.930 . S
C970 C969 1.362 . S
C970 C973 1.409 . S
C971 H963 0.930 . S
C971 C972 1.355 . S
C971 C973 1.415 . S
C972 C971 1.355 . S
C972 C974 1.419 . S
C973 C968 1.425 . S
C973 C970 1.409 . S
C973 C971 1.415 . S
C974 H964 0.930 . S
C974 C972 1.419 . S
C974 C975 1.362 . S
C975 H965 0.930 . S
C975 C968 1.409 . S
C975 C974 1.362 . S
H976 C982 0.930 . S
H977 C985 0.930 . S
H978 C986 0.930 . S
H979 C987 0.930 . S
H980 C990 0.930 . S
H981 C991 0.930 . S
C982 H976 0.930 . S
C982 C983 1.355 . S
C982 C984 1.415 . S
C983 C982 1.355 . S
C983 C985 1.419 . S
C984 C982 1.415 . S
C984 C989 1.425 . S
C984 C991 1.409 . S
C985 H977 0.930 . S
C985 C983 1.419 . S
C985 C986 1.362 . S
C986 H978 0.930 . S
C986 C985 1.362 . S
C986 C989 1.409 . S
C987 H979 0.930 . S
C987 C988 1.355 . S
C987 C989 1.415 . S
C988 C987 1.355 . S
C988 C990 1.419 . S
C989 C984 1.425 . S
C989 C986 1.409 . S
C989 C987 1.415 . S
C990 H980 0.930 . S
C990 C988 1.419 . S
C990 C991 1.362 . S
C991 H981 0.930 . S
C991 C984 1.409 . S
C991 C990 1.362 . S
H992 C998 0.930 . S
H993 C1001 0.930 . S
H994 C1002 0.930 . S
H995 C1003 0.930 . S
H996 C1006 0.930 . S
H997 C1007 0.930 . S
C998 H992 0.930 . S
C998 C999 1.355 . S
C998 C1000 1.415 . S
C999 C998 1.355 . S
C999 C1001 1.419 . S
C1000 C998 1.415 . S
C1000 C1005 1.425 . S
C1000 C1007 1.409 . S
C1001 H993 0.930 . S
C1001 C999 1.419 . S
C1001 C1002 1.362 . S
C1002 H994 0.930 . S
C1002 C1001 1.362 . S
C1002 C1005 1.409 . S
C1003 H995 0.930 . S
C1003 C1004 1.355 . S
C1003 C1005 1.415 . S
C1004 C1003 1.355 . S
C1004 C1006 1.419 . S
C1005 C1000 1.425 . S
C1005 C1002 1.409 . S
C1005 C1003 1.415 . S
C1006 H996 0.930 . S
C1006 C1004 1.419 . S
C1006 C1007 1.362 . S
C1007 H997 0.930 . S
C1007 C1000 1.409 . S
C1007 C1006 1.362 . S
H1008 C1014 0.930 . S
H1009 C1017 0.930 . S
H1010 C1018 0.930 . S
H1011 C1019 0.930 . S
H1012 C1022 0.930 . S
H1013 C1023 0.930 . S
C1014 H1008 0.930 . S
C1014 C1015 1.355 . S
C1014 C1016 1.415 . S
C1015 C1014 1.355 . S
C1015 C1017 1.419 . S
C1016 C1014 1.415 . S
C1016 C1021 1.425 . S
C1016 C1023 1.409 . S
C1017 H1009 0.930 . S
C1017 C1015 1.419 . S
C1017 C1018 1.362 . S
C1018 H1010 0.930 . S
C1018 C1017 1.362 . S
C1018 C1021 1.409 . S
C1019 H1011 0.930 . S
C1019 C1020 1.355 . S
C1019 C1021 1.415 . S
C1020 C1019 1.355 . S
C1020 C1022 1.419 . S
C1021 C1016 1.425 . S
C1021 C1018 1.409 . S
C1021 C1019 1.415 . S
C1022 H1012 0.930 . S
C1022 C1020 1.419 . S
C1022 C1023 1.362 . S
C1023 H1013 0.930 . S
C1023 C1016 1.409 . S
C1023 C1022 1.362 . S
H1024 C1030 0.930 . S
H1025 C1033 0.930 . S
H1026 C1034 0.930 . S
H1027 C1035 0.930 . S
H1028 C1038 0.930 . S
H1029 C1039 0.930 . S
C1030 H1024 0.930 . S
C1030 C1031 1.355 . S
C1030 C1032 1.415 . S
C1031 C1030 1.355 . S
C1031 C1033 1.419 . S
C1032 C1030 1.415 . S
C1032 C1037 1.425 . S
C1032 C1039 1.409 . S
C1033 H1025 0.930 . S
C1033 C1031 1.419 . S
C1033 C1034 1.362 . S
C1034 H1026 0.930 . S
C1034 C1033 1.362 . S
C1034 C1037 1.409 . S
C1035 H1027 0.930 . S
C1035 C1036 1.355 . S
C1035 C1037 1.415 . S
C1036 C1035 1.355 . S
C1036 C1038 1.419 . S
C1037 C1032 1.425 . S
C1037 C1034 1.409 . S
C1037 C1035 1.415 . S
C1038 H1028 0.930 . S
C1038 C1036 1.419 . S
C1038 C1039 1.362 . S
C1039 H1029 0.930 . S
C1039 C1032 1.409 . S
C1039 C1038 1.362 . S
H1040 C1046 0.930 . S
H1041 C1049 0.930 . S
H1042 C1050 0.930 1_554 S
H1043 C1051 0.930 . S
H1044 C1054 0.930 . S
H1045 C1055 0.930 . S
C1046 H1040 0.930 . S
C1046 C1047 1.355 . S
C1046 C1048 1.415 . S
C1047 C1046 1.355 . S
C1047 C1049 1.419 . S
C1048 C1046 1.415 . S
C1048 C1053 1.425 1_556 S
C1048 C1055 1.409 . S
C1049 H1041 0.930 . S
C1049 C1047 1.419 . S
C1049 C1050 1.362 . S
C1050 H1042 0.930 1_556 S
C1050 C1049 1.362 . S
C1050 C1053 1.409 1_556 S
C1051 H1043 0.930 . S
C1051 C1052 1.355 . S
C1051 C1053 1.415 . S
C1052 C1051 1.355 . S
C1052 C1054 1.419 . S
C1053 C1048 1.425 1_554 S
C1053 C1050 1.409 1_554 S
C1053 C1051 1.415 . S
C1054 H1044 0.930 . S
C1054 C1052 1.419 . S
C1054 C1055 1.362 1_554 S
C1055 H1045 0.930 . S
C1055 C1048 1.409 . S
C1055 C1054 1.362 1_556 S
H1056 C1062 0.930 . S
H1057 C1065 0.930 . S
H1058 C1066 0.930 . S
H1059 C1067 0.930 . S
H1060 C1070 0.930 . S
H1061 C1071 0.930 . S
C1062 H1056 0.930 . S
C1062 C1063 1.355 . S
C1062 C1064 1.415 1_556 S
C1063 C1062 1.355 . S
C1063 C1065 1.419 . S
C1064 C1062 1.415 1_554 S
C1064 C1069 1.425 . S
C1064 C1071 1.409 . S
C1065 H1057 0.930 . S
C1065 C1063 1.419 . S
C1065 C1066 1.362 . S
C1066 H1058 0.930 . S
C1066 C1065 1.362 . S
C1066 C1069 1.409 1_556 S
C1067 H1059 0.930 . S
C1067 C1068 1.355 . S
C1067 C1069 1.415 . S
C1068 C1067 1.355 . S
C1068 C1070 1.419 . S
C1069 C1064 1.425 . S
C1069 C1066 1.409 1_554 S
C1069 C1067 1.415 . S
C1070 H1060 0.930 . S
C1070 C1068 1.419 . S
C1070 C1071 1.362 . S
C1071 H1061 0.930 . S
C1071 C1064 1.409 . S
C1071 C1070 1.362 . S
H1072 C1078 0.930 . S
H1073 C1081 0.930 . S
H1074 C1082 0.930 . S
H1075 C1083 0.930 . S
H1076 C1086 0.930 . S
H1077 C1087 0.930 . S
C1078 H1072 0.930 . S
C1078 C1079 1.355 . S
C1078 C1080 1.415 . S
C1079 C1078 1.355 . S
C1079 C1081 1.419 . S
C1080 C1078 1.415 . S
C1080 C1085 1.425 . S
C1080 C1087 1.409 . S
C1081 H1073 0.930 . S
C1081 C1079 1.419 . S
C1081 C1082 1.362 . S
C1082 H1074 0.930 . S
C1082 C1081 1.362 . S
C1082 C1085 1.409 . S
C1083 H1075 0.930 . S
C1083 C1084 1.355 . S
C1083 C1085 1.415 1_554 S
C1084 C1083 1.355 . S
C1084 C1086 1.419 . S
C1085 C1080 1.425 . S
C1085 C1082 1.409 . S
C1085 C1083 1.415 1_556 S
C1086 H1076 0.930 . S
C1086 C1084 1.419 . S
C1086 C1087 1.362 1_554 S
C1087 H1077 0.930 . S
C1087 C1080 1.409 . S
C1087 C1086 1.362 1_556 S
H1088 C1094 0.930 . S
H1089 C1097 0.930 . S
H1090 C1098 0.930 1_556 S
H1091 C1099 0.930 . S
H1092 C1102 0.930 . S
H1093 C1103 0.930 . S
C1094 H1088 0.930 . S
C1094 C1095 1.355 . S
C1094 C1096 1.415 . S
C1095 C1094 1.355 . S
C1095 C1097 1.419 . S
C1096 C1094 1.415 . S
C1096 C1101 1.425 1_554 S
C1096 C1103 1.409 . S
C1097 H1089 0.930 . S
C1097 C1095 1.419 . S
C1097 C1098 1.362 . S
C1098 H1090 0.930 1_554 S
C1098 C1097 1.362 . S
C1098 C1101 1.409 1_554 S
C1099 H1091 0.930 . S
C1099 C1100 1.355 . S
C1099 C1101 1.415 . S
C1100 C1099 1.355 . S
C1100 C1102 1.419 . S
C1101 C1096 1.425 1_556 S
C1101 C1098 1.409 1_556 S
C1101 C1099 1.415 . S
C1102 H1092 0.930 . S
C1102 C1100 1.419 . S
C1102 C1103 1.362 1_556 S
C1103 H1093 0.930 . S
C1103 C1096 1.409 . S
C1103 C1102 1.362 1_554 S
H1104 C1110 0.930 . S
H1105 C1113 0.930 . S
H1106 C1114 0.930 . S
H1107 C1115 0.930 . S
H1108 C1118 0.930 . S
H1109 C1119 0.930 1_565 S
C1110 H1104 0.930 . S
C1110 C1111 1.355 . S
C1110 C1112 1.415 . S
C1111 C1110 1.355 . S
C1111 C1113 1.419 . S
C1112 C1110 1.415 . S
C1112 C1117 1.425 . S
C1112 C1119 1.409 . S
C1113 H1105 0.930 . S
C1113 C1111 1.419 . S
C1113 C1114 1.362 . S
C1114 H1106 0.930 . S
C1114 C1113 1.362 . S
C1114 C1117 1.409 . S
C1115 H1107 0.930 . S
C1115 C1116 1.355 . S
C1115 C1117 1.415 . S
C1116 C1115 1.355 . S
C1116 C1118 1.419 1_545 S
C1117 C1112 1.425 . S
C1117 C1114 1.409 . S
C1117 C1115 1.415 . S
C1118 H1108 0.930 . S
C1118 C1116 1.419 1_565 S
C1118 C1119 1.362 1_565 S
C1119 H1109 0.930 1_545 S
C1119 C1112 1.409 . S
C1119 C1118 1.362 1_545 S
H1120 C1126 0.930 . S
H1121 C1129 0.930 . S
H1122 C1130 0.930 . S
H1123 C1131 0.930 . S
H1124 C1134 0.930 . S
H1125 C1135 0.930 . S
C1126 H1120 0.930 . S
C1126 C1127 1.355 . S
C1126 C1128 1.415 . S
C1127 C1126 1.355 . S
C1127 C1129 1.419 1_455 S
C1128 C1126 1.415 . S
C1128 C1133 1.425 . S
C1128 C1135 1.409 . S
C1129 H1121 0.930 . S
C1129 C1127 1.419 1_655 S
C1129 C1130 1.362 . S
C1130 H1122 0.930 . S
C1130 C1129 1.362 . S
C1130 C1133 1.409 1_655 S
C1131 H1123 0.930 . S
C1131 C1132 1.355 . S
C1131 C1133 1.415 . S
C1132 C1131 1.355 . S
C1132 C1134 1.419 . S
C1133 C1128 1.425 . S
C1133 C1130 1.409 1_455 S
C1133 C1131 1.415 . S
C1134 H1124 0.930 . S
C1134 C1132 1.419 . S
C1134 C1135 1.362 . S
C1135 H1125 0.930 . S
C1135 C1128 1.409 . S
C1135 C1134 1.362 . S
H1136 C1142 0.903 1_545 S
H1137 C1145 0.930 . S
H1138 C1146 0.930 . S
H1139 C1147 0.930 . S
H1140 C1150 0.930 . S
H1141 C1151 0.930 1_545 S
C1142 H1136 0.903 1_565 S
C1142 C1143 1.364 . S
C1142 C1144 1.432 . S
C1143 C1142 1.364 . S
C1143 C1145 1.419 . S
C1144 C1142 1.432 . S
C1144 C1149 1.425 . S
C1144 C1151 1.409 . S
C1145 H1137 0.930 . S
C1145 C1143 1.419 . S
C1145 C1146 1.362 . S
C1146 H1138 0.930 . S
C1146 C1145 1.362 . S
C1146 C1149 1.409 . S
C1147 H1139 0.930 . S
C1147 C1148 1.355 . S
C1147 C1149 1.415 . S
C1148 C1147 1.355 . S
C1148 C1150 1.419 . S
C1149 C1144 1.425 . S
C1149 C1146 1.409 . S
C1149 C1147 1.415 . S
C1150 H1140 0.930 . S
C1150 C1148 1.419 . S
C1150 C1151 1.362 . S
C1151 H1141 0.930 1_565 S
C1151 C1144 1.409 . S
C1151 C1150 1.362 . S
H1152 C1158 0.939 . S
H1153 C1161 0.930 . S
H1154 C1162 0.930 . S
H1155 C1163 0.930 . S
H1156 C1166 0.930 . S
H1157 C1167 0.930 1_455 S
C1158 H1152 0.939 . S
C1158 C1159 1.351 1_455 S
C1158 C1160 1.409 1_455 S
C1159 C1158 1.351 1_655 S
C1159 C1161 1.419 . S
C1160 C1158 1.409 1_655 S
C1160 C1165 1.425 . S
C1160 C1167 1.409 . S
C1161 H1153 0.930 . S
C1161 C1159 1.419 . S
C1161 C1162 1.362 . S
C1162 H1154 0.930 . S
C1162 C1161 1.362 . S
C1162 C1165 1.409 . S
C1163 H1155 0.930 . S
C1163 C1164 1.355 . S
C1163 C1165 1.415 . S
C1164 C1163 1.355 . S
C1164 C1166 1.419 . S
C1165 C1160 1.425 . S
C1165 C1162 1.409 . S
C1165 C1163 1.415 . S
C1166 H1156 0.930 . S
C1166 C1164 1.419 . S
C1166 C1167 1.362 . S
C1167 H1157 0.930 1_655 S
C1167 C1160 1.409 . S
C1167 C1166 1.362 . S
C535 N145 2.122 . S
C540 N13 2.158 . S
C551 N46 2.132 . S
C556 N178 2.122 . S
C567 N79 2.158 . S
C572 N211 2.122 . S
C583 N112 2.117 . S
C588 N244 2.149 . S
C599 N277 2.138 . S
C604 N409 2.159 . S
C615 N442 2.160 . S
C620 N310 2.135 . S
C631 N475 2.160 . S
C636 N343 2.132 . S
C647 N376 2.157 . S
C652 N508 2.142 . S
C663 C18 1.502 . S
C668 C480 1.500 . S
C679 C51 1.444 . S
C684 C513 1.458 . S
C695 C84 1.416 . S
C700 C414 1.428 . S
C711 C447 1.431 . S
C716 C117 1.420 . S
C727 C348 1.502 . S
C732 C150 1.498 . S
C743 C183 1.465 . S
C748 C381 1.477 . S
C759 C216 1.497 . S
C764 C282 1.489 . S
C775 C249 1.501 . S
C780 C315 1.502 . S
C791 C7 1.637 . S
C796 C73 1.656 . S
C807 C40 1.581 . S
C812 C106 1.669 . S
C823 C139 1.613 . S
C828 C205 1.671 . S
C839 C172 1.666 . S
C844 C238 1.623 . S
C855 C337 1.672 . S
C860 C271 1.582 . S
C871 C370 1.636 . S
C876 C304 1.594 . S
C887 C403 1.597 . S
C892 C469 1.677 . S
C903 C436 1.674 . S
C908 C502 1.609 . S
C919 C54 0.472 . S
C924 N2 0.486 1_565 S
C935 N35 0.724 1_655 S
C940 C87 0.646 . S
C951 C120 0.534 . S
C956 N68 0.506 1_545 S
C967 N101 0.645 1_455 S
C972 C21 0.658 . S
C983 C516 0.463 . S
C988 N134 0.504 . S
C999 N167 0.733 . S
C1004 C417 0.676 . S
C1015 N200 0.483 . S
C1020 C450 0.481 . S
C1031 N233 0.489 . S
C1036 C483 0.504 . S
C1047 N266 0.614 . S
C1052 C318 0.637 . S
C1063 C351 0.481 . S
C1068 N299 0.559 . S
C1079 N332 0.707 . S
C1084 C384 0.687 . S
C1095 N365 0.484 . S
C1100 C285 0.487 . S
C1111 C252 0.463 . S
C1116 N398 0.499 1_545 S
C1127 N431 0.484 1_455 S
C1132 C153 0.490 . S
C1143 N464 0.620 1_565 S
C1148 C186 0.525 . S
C1159 N497 0.711 1_655 S
C1164 C219 0.626 . S
