# Generated by pormake.
# Topology wkc, (5)-cn, num edge types: 1
# Building blocks:
#     Node 0, Type 0, BuildingBlock: XOMCOT_clean_sbu_0, # of connection points: 5
#     Node 1, Type 0, BuildingBlock: XOMCOT_clean_sbu_0, # of connection points: 5
#     Node 2, Type 0, BuildingBlock: XOMCOT_clean_sbu_0, # of connection points: 5
#     Node 3, Type 0, BuildingBlock: XOMCOT_clean_sbu_0, # of connection points: 5
#     Node 4, Type 0, BuildingBlock: XOMCOT_clean_sbu_0, # of connection points: 5
#     Node 5, Type 0, BuildingBlock: XOMCOT_clean_sbu_0, # of connection points: 5
#     Node 6, Type 0, BuildingBlock: XOMCOT_clean_sbu_0, # of connection points: 5
#     Node 7, Type 0, BuildingBlock: XOMCOT_clean_sbu_0, # of connection points: 5
#     Node 8, Type 0, BuildingBlock: XOMCOT_clean_sbu_0, # of connection points: 5
#     Node 9, Type 0, BuildingBlock: XOMCOT_clean_sbu_0, # of connection points: 5
#     Node 10, Type 0, BuildingBlock: XOMCOT_clean_sbu_0, # of connection points: 5
#     Node 11, Type 0, BuildingBlock: XOMCOT_clean_sbu_0, # of connection points: 5
#     Edge 12, Type (0, 0), BuildingBlock: KIFKEQ_clean_linker_1, # of connection points: 2
#     Edge 13, Type (0, 0), BuildingBlock: KIFKEQ_clean_linker_1, # of connection points: 2
#     Edge 14, Type (0, 0), BuildingBlock: KIFKEQ_clean_linker_1, # of connection points: 2
#     Edge 15, Type (0, 0), BuildingBlock: KIFKEQ_clean_linker_1, # of connection points: 2
#     Edge 16, Type (0, 0), BuildingBlock: KIFKEQ_clean_linker_1, # of connection points: 2
#     Edge 17, Type (0, 0), BuildingBlock: KIFKEQ_clean_linker_1, # of connection points: 2
#     Edge 18, Type (0, 0), BuildingBlock: KIFKEQ_clean_linker_1, # of connection points: 2
#     Edge 19, Type (0, 0), BuildingBlock: KIFKEQ_clean_linker_1, # of connection points: 2
#     Edge 20, Type (0, 0), BuildingBlock: KIFKEQ_clean_linker_1, # of connection points: 2
#     Edge 21, Type (0, 0), BuildingBlock: KIFKEQ_clean_linker_1, # of connection points: 2
#     Edge 22, Type (0, 0), BuildingBlock: KIFKEQ_clean_linker_1, # of connection points: 2
#     Edge 23, Type (0, 0), BuildingBlock: KIFKEQ_clean_linker_1, # of connection points: 2
#     Edge 24, Type (0, 0), BuildingBlock: KIFKEQ_clean_linker_1, # of connection points: 2
#     Edge 25, Type (0, 0), BuildingBlock: KIFKEQ_clean_linker_1, # of connection points: 2
#     Edge 26, Type (0, 0), BuildingBlock: KIFKEQ_clean_linker_1, # of connection points: 2
#     Edge 27, Type (0, 0), BuildingBlock: KIFKEQ_clean_linker_1, # of connection points: 2
#     Edge 28, Type (0, 0), BuildingBlock: KIFKEQ_clean_linker_1, # of connection points: 2
#     Edge 29, Type (0, 0), BuildingBlock: KIFKEQ_clean_linker_1, # of connection points: 2
#     Edge 30, Type (0, 0), BuildingBlock: KIFKEQ_clean_linker_1, # of connection points: 2
#     Edge 31, Type (0, 0), BuildingBlock: KIFKEQ_clean_linker_1, # of connection points: 2
#     Edge 32, Type (0, 0), BuildingBlock: KIFKEQ_clean_linker_1, # of connection points: 2
#     Edge 33, Type (0, 0), BuildingBlock: KIFKEQ_clean_linker_1, # of connection points: 2
#     Edge 34, Type (0, 0), BuildingBlock: KIFKEQ_clean_linker_1, # of connection points: 2
#     Edge 35, Type (0, 0), BuildingBlock: KIFKEQ_clean_linker_1, # of connection points: 2
#     Edge 36, Type (0, 0), BuildingBlock: KIFKEQ_clean_linker_1, # of connection points: 2
#     Edge 37, Type (0, 0), BuildingBlock: KIFKEQ_clean_linker_1, # of connection points: 2
#     Edge 38, Type (0, 0), BuildingBlock: KIFKEQ_clean_linker_1, # of connection points: 2
#     Edge 39, Type (0, 0), BuildingBlock: KIFKEQ_clean_linker_1, # of connection points: 2
#     Edge 40, Type (0, 0), BuildingBlock: KIFKEQ_clean_linker_1, # of connection points: 2
#     Edge 41, Type (0, 0), BuildingBlock: KIFKEQ_clean_linker_1, # of connection points: 2
# Relax obj value: 0.256
# Max RMSD: 0.220
# Mean RMSD: 0.220
data_MOF--net-wkc--node1-XOMCOT_clean_sbu_0--edge1-KIFKEQ_clean_linker_1
_symmetry_space_group_name_H-M    P1
_symmetry_Int_Tables_number       1
_symmetry_cell_setting            triclinic
loop_
_symmetry_equiv_pos_as_xyz
'x, y, z'
_cell_length_a     39.335138
_cell_length_b     39.225647
_cell_length_c     46.295248
_cell_angle_alpha  89.884169
_cell_angle_beta   90.089835
_cell_angle_gamma 119.98547
loop_
_atom_site_label
_atom_site_type_symbol
_atom_site_fract_x
_atom_site_fract_y
_atom_site_fract_z
_atom_type_partial_charge
Co0 Co 0.26892 0.43494 0.99507 0.0
C1 C 0.28796 0.38608 0.95652 0.0
C2 C 0.23767 0.3881 0.94128 0.0
C3 C 0.24654 0.36711 0.92168 0.0
N4 N 0.26303 0.39907 0.96367 0.0
N5 N 0.27842 0.36617 0.93128 0.0
H6 H 0.31367 0.39226 0.96871 0.0
H7 H 0.21497 0.39579 0.93891 0.0
C8 C 0.18318 0.37489 0.99721 0.0
O9 O 0.19308 0.34806 0.99208 0.0
N10 N 0.27622 0.47144 0.02567 0.0
C11 C 0.30372 0.48285 0.04643 0.0
C12 C 0.30188 0.51046 0.06342 0.0
C13 C 0.25814 0.4926 0.03006 0.0
N14 N 0.27323 0.5167 0.05326 0.0
C15 C 0.30088 0.39442 0.02721 0.0
C16 C 0.2438 0.36439 0.06953 0.0
C17 C 0.276 0.35854 0.07209 0.0
C18 C 0.3047 0.37378 0.0504 0.0
C19 C 0.24142 0.38565 0.04619 0.0
N20 N 0.26889 0.39915 0.02461 0.0
H21 H 0.3254 0.40926 0.01277 0.0
H22 H 0.21864 0.39325 0.04675 0.0
H23 H 0.32446 0.47254 0.04862 0.0
H24 H 0.23495 0.49074 0.01638 0.0
O25 O 0.3245 0.46464 0.98706 0.0
O26 O 0.27988 0.47579 0.96676 0.0
O27 O 0.2098 0.41129 0.99838 0.0
C28 C 0.3166 0.48541 0.96927 0.0
H29 H 0.23171 0.35498 0.90138 0.0
H30 H 0.32144 0.52595 0.08119 0.0
H31 H 0.22125 0.35399 0.08597 0.0
H32 H 0.33123 0.37203 0.05215 0.0
Co33 Co 0.8436 0.26316 0.1564 0.0
C34 C 0.9097 0.27868 0.11647 0.0
C35 C 0.85509 0.22987 0.10272 0.0
C36 C 0.88334 0.23639 0.08245 0.0
N37 N 0.87177 0.25568 0.12457 0.0
N38 N 0.91784 0.26725 0.09106 0.0
H39 H 0.93045 0.30478 0.12778 0.0
H40 H 0.82422 0.20823 0.10129 0.0
C41 C 0.81713 0.17721 0.15936 0.0
O42 O 0.85366 0.18696 0.15388 0.0
N43 N 0.81553 0.2715 0.18724 0.0
C44 C 0.83178 0.29785 0.20876 0.0
C45 C 0.8023 0.29694 0.22521 0.0
C46 C 0.77636 0.2552 0.19059 0.0
N47 N 0.76742 0.27019 0.21381 0.0
C48 C 0.91699 0.29438 0.1871 0.0
C49 C 0.8896 0.23865 0.23061 0.0
C50 C 0.92804 0.27036 0.23244 0.0
C51 C 0.94172 0.29832 0.2101 0.0
C52 C 0.86573 0.23618 0.20749 0.0
N53 N 0.87975 0.26301 0.1854 0.0
H54 H 0.92699 0.31836 0.17201 0.0
H55 H 0.83517 0.21392 0.20861 0.0
H56 H 0.86294 0.31724 0.21181 0.0
H57 H 0.75503 0.23343 0.17606 0.0
O58 O 0.87014 0.31878 0.1477 0.0
O59 O 0.81348 0.27419 0.12848 0.0
O60 O 0.80758 0.20401 0.16053 0.0
C61 C 0.84107 0.31089 0.1304 0.0
H62 H 0.87845 0.21979 0.06275 0.0
H63 H 0.80635 0.31588 0.24342 0.0
H64 H 0.87733 0.21661 0.24749 0.0
H65 H 0.97046 0.32443 0.2112 0.0
Co66 Co 0.59152 0.83951 0.32129 0.0
C67 C 0.64176 0.90455 0.28043 0.0
C68 C 0.63717 0.84989 0.26814 0.0
C69 C 0.65881 0.87778 0.24749 0.0
N70 N 0.62735 0.8669 0.28933 0.0
N71 N 0.6617 0.91229 0.25524 0.0
H72 H 0.63573 0.92535 0.29089 0.0
H73 H 0.62847 0.81903 0.26741 0.0
C74 C 0.65158 0.81414 0.32641 0.0
O75 O 0.67822 0.85049 0.31996 0.0
N76 N 0.55495 0.81218 0.35223 0.0
C77 C 0.54433 0.8288 0.37313 0.0
C78 C 0.51547 0.79946 0.38962 0.0
C79 C 0.53214 0.77297 0.35599 0.0
N80 N 0.50769 0.76433 0.37882 0.0
C81 C 0.63137 0.91428 0.35005 0.0
C82 C 0.65966 0.89043 0.39585 0.0
C83 C 0.66428 0.92816 0.39625 0.0
C84 C 0.65051 0.94024 0.37272 0.0
C85 C 0.6402 0.86529 0.37274 0.0
N86 N 0.627 0.87748 0.34972 0.0
H87 H 0.61715 0.92289 0.33416 0.0
H88 H 0.63311 0.83507 0.37478 0.0
H89 H 0.55585 0.86007 0.37568 0.0
H90 H 0.53293 0.75139 0.34191 0.0
O91 O 0.56202 0.86493 0.31101 0.0
O92 O 0.55086 0.80766 0.29347 0.0
O93 O 0.61526 0.80436 0.3274 0.0
C94 C 0.54138 0.83508 0.29424 0.0
H95 H 0.67098 0.87267 0.22814 0.0
H96 H 0.50008 0.80376 0.40733 0.0
H97 H 0.66837 0.87938 0.41421 0.0
H98 H 0.65262 0.96886 0.37252 0.0
Co99 Co 0.7618 0.59052 0.49253 0.0
C100 C 0.74769 0.63937 0.44972 0.0
C101 C 0.80428 0.64516 0.44404 0.0
C102 C 0.79933 0.66765 0.42334 0.0
N103 N 0.77262 0.62878 0.46159 0.0
N104 N 0.76366 0.6639 0.42696 0.0
H105 H 0.71779 0.62824 0.45658 0.0
H106 H 0.829 0.64038 0.44556 0.0
C107 C 0.84622 0.64893 0.50323 0.0
O108 O 0.8367 0.67633 0.49948 0.0
N109 N 0.75005 0.55136 0.5221 0.0
C110 C 0.72075 0.5386 0.54152 0.0
C111 C 0.72038 0.5089 0.55757 0.0
C112 C 0.76682 0.529 0.52623 0.0
N113 N 0.74929 0.50278 0.54794 0.0
C114 C 0.73384 0.63804 0.52047 0.0
C115 C 0.77574 0.64942 0.57094 0.0
C116 C 0.74909 0.66323 0.56945 0.0
C117 C 0.72873 0.65813 0.54341 0.0
C118 C 0.78068 0.63044 0.54728 0.0
N119 N 0.76008 0.62502 0.52222 0.0
H120 H 0.71474 0.63098 0.5022 0.0
H121 H 0.79938 0.61779 0.54992 0.0
H122 H 0.70053 0.5496 0.54343 0.0
H123 H 0.79087 0.53151 0.51331 0.0
O124 O 0.70725 0.56296 0.48136 0.0
O125 O 0.75279 0.55125 0.46353 0.0
O126 O 0.82014 0.61258 0.50006 0.0
C127 C 0.71614 0.54242 0.46415 0.0
H128 H 0.81983 0.68437 0.40633 0.0
H129 H 0.69933 0.49199 0.57422 0.0
H130 H 0.79112 0.651 0.59074 0.0
H131 H 0.70772 0.66811 0.54099 0.0
Co132 Co 0.17445 0.74261 0.67149 0.0
C133 C 0.11147 0.73219 0.63152 0.0
C134 C 0.16132 0.79049 0.62828 0.0
C135 C 0.13277 0.78729 0.60931 0.0
N136 N 0.14781 0.75597 0.64226 0.0
N137 N 0.10154 0.75057 0.6113 0.0
H138 H 0.09248 0.7022 0.63864 0.0
H139 H 0.18992 0.81614 0.63149 0.0
C140 C 0.22253 0.8145 0.70677 0.0
O141 O 0.21025 0.79058 0.72906 0.0
N142 N 0.20178 0.72855 0.70034 0.0
C143 C 0.1888 0.7078 0.72525 0.0
C144 C 0.21957 0.70735 0.73895 0.0
C145 C 0.2403 0.73952 0.69916 0.0
N146 N 0.25173 0.72718 0.7225 0.0
C147 C 0.10786 0.70139 0.7087 0.0
C148 C 0.10622 0.76667 0.72916 0.0
C149 C 0.0832 0.73025 0.74269 0.0
C150 C 0.08266 0.697 0.7313 0.0
C151 C 0.1314 0.7697 0.70677 0.0
N152 N 0.13484 0.73792 0.69898 0.0
H153 H 0.10782 0.67554 0.70068 0.0
H154 H 0.14889 0.79788 0.6964 0.0
H155 H 0.15961 0.69423 0.73386 0.0
H156 H 0.25984 0.75706 0.68193 0.0
O157 O 0.14841 0.68918 0.65771 0.0
O158 O 0.2058 0.73621 0.64165 0.0
O159 O 0.21042 0.8008 0.6813 0.0
C160 C 0.17816 0.69939 0.64071 0.0
H161 H 0.13509 0.81003 0.5948 0.0
H162 H 0.21842 0.69327 0.75936 0.0
H163 H 0.10612 0.79276 0.73667 0.0
H164 H 0.06395 0.66808 0.74048 0.0
Co165 Co 0.44306 0.17424 0.83539 0.0
C166 C 0.39123 0.10675 0.79919 0.0
C167 C 0.38543 0.15675 0.78815 0.0
C168 C 0.36194 0.12597 0.76983 0.0
N169 N 0.40364 0.14445 0.80653 0.0
N170 N 0.36588 0.09461 0.77671 0.0
H171 H 0.40089 0.08867 0.81011 0.0
H172 H 0.38961 0.18617 0.78763 0.0
C173 C 0.41551 0.22059 0.86855 0.0
O174 O 0.427 0.20892 0.89131 0.0
N175 N 0.48407 0.20429 0.86379 0.0
C176 C 0.50085 0.19119 0.88297 0.0
C177 C 0.5304 0.22269 0.89726 0.0
C178 C 0.50512 0.24403 0.866 0.0
N179 N 0.53303 0.25595 0.88673 0.0
C180 C 0.4203 0.11047 0.87542 0.0
C181 C 0.35106 0.10543 0.89348 0.0
C182 C 0.36578 0.08458 0.90853 0.0
C183 C 0.39982 0.0858 0.89839 0.0
C184 C 0.37292 0.13016 0.87069 0.0
N185 N 0.40914 0.13544 0.86398 0.0
H186 H 0.44552 0.10976 0.86717 0.0
H187 H 0.36108 0.14574 0.85901 0.0
H188 H 0.4941 0.1613 0.88589 0.0
H189 H 0.49995 0.26373 0.85272 0.0
O190 O 0.47193 0.14915 0.8233 0.0
O191 O 0.48049 0.20511 0.80516 0.0
O192 O 0.41864 0.20878 0.84331 0.0
C193 C 0.49079 0.17823 0.80553 0.0
H194 H 0.34431 0.12705 0.75228 0.0
H195 H 0.54963 0.22122 0.91334 0.0
H196 H 0.32381 0.10378 0.8999 0.0
H197 H 0.41078 0.06817 0.90839 0.0
Co198 Co 0.58915 0.74532 0.82891 0.0
C199 C 0.64323 0.7383 0.86883 0.0
C200 C 0.64599 0.79397 0.87415 0.0
C201 C 0.67034 0.79098 0.89431 0.0
N202 N 0.62913 0.76088 0.85826 0.0
N203 N 0.66849 0.75584 0.89097 0.0
H204 H 0.63396 0.70893 0.86107 0.0
H205 H 0.64038 0.81815 0.87171 0.0
C206 C 0.61141 0.81474 0.79044 0.0
O207 O 0.5983 0.78943 0.76905 0.0
N208 N 0.54782 0.72863 0.79993 0.0
C209 C 0.54008 0.70521 0.77656 0.0
C210 C 0.5087 0.70316 0.76183 0.0
C211 C 0.52022 0.73956 0.79933 0.0
N212 N 0.49633 0.72467 0.77624 0.0
C213 C 0.61542 0.70019 0.79705 0.0
C214 C 0.67695 0.7625 0.76885 0.0
C215 C 0.66499 0.72404 0.75963 0.0
C216 C 0.63558 0.6927 0.77557 0.0
C217 C 0.65669 0.76854 0.79119 0.0
N218 N 0.62355 0.73767 0.80262 0.0
H219 H 0.59138 0.67545 0.80775 0.0
H220 H 0.6672 0.79824 0.79847 0.0
H221 H 0.55585 0.69075 0.76991 0.0
H222 H 0.51829 0.7589 0.81506 0.0
O223 O 0.56168 0.69335 0.84579 0.0
O224 O 0.55174 0.74233 0.85776 0.0
O225 O 0.61145 0.80267 0.81627 0.0
C226 C 0.54257 0.70575 0.86123 0.0
H227 H 0.68787 0.81299 0.91024 0.0
H228 H 0.49567 0.6868 0.7422 0.0
H229 H 0.7005 0.78792 0.75824 0.0
H230 H 0.62692 0.66243 0.77076 0.0
Co231 Co 0.84452 0.5899 0.00223 0.0
C232 C 0.9104 0.64029 0.04243 0.0
C233 C 0.85587 0.63493 0.05571 0.0
C234 C 0.88393 0.65648 0.07616 0.0
N235 N 0.87263 0.62563 0.03405 0.0
N236 N 0.91837 0.65984 0.06786 0.0
H237 H 0.93111 0.63472 0.03133 0.0
H238 H 0.82504 0.62587 0.0569 0.0
C239 C 0.81887 0.64984 0.99854 0.0
O240 O 0.85547 0.67638 0.00424 0.0
N241 N 0.81642 0.5534 0.97142 0.0
C242 C 0.83252 0.54276 0.95017 0.0
C243 C 0.8029 0.51421 0.93371 0.0
C244 C 0.77724 0.53095 0.96789 0.0
N245 N 0.76811 0.50667 0.94485 0.0
C246 C 0.91805 0.63197 0.97164 0.0
C247 C 0.8906 0.65983 0.92785 0.0
C248 C 0.92897 0.66645 0.92602 0.0
C249 C 0.94269 0.65244 0.9485 0.0
C250 C 0.86677 0.63855 0.95097 0.0
N251 N 0.88081 0.62602 0.97322 0.0
H252 H 0.92808 0.61823 0.98692 0.0
H253 H 0.8362 0.63007 0.94972 0.0
H254 H 0.86364 0.55414 0.94732 0.0
H255 H 0.75604 0.53191 0.98222 0.0
O256 O 0.87079 0.5607 0.01115 0.0
O257 O 0.81415 0.54882 0.03016 0.0
O258 O 0.80885 0.61331 0.99778 0.0
C259 C 0.84162 0.5396 0.02838 0.0
H260 H 0.87895 0.66824 0.09579 0.0
H261 H 0.8068 0.49891 0.91573 0.0
H262 H 0.87829 0.66949 0.91095 0.0
H263 H 0.97138 0.655 0.94746 0.0
Co264 Co 0.26801 0.84056 0.16624 0.0
C265 C 0.28735 0.90994 0.20338 0.0
C266 C 0.23757 0.85785 0.21955 0.0
C267 C 0.24663 0.8883 0.23865 0.0
N268 N 0.26251 0.87167 0.19692 0.0
N269 N 0.27819 0.92102 0.22846 0.0
H270 H 0.31271 0.92925 0.1908 0.0
H271 H 0.21505 0.82743 0.22244 0.0
C272 C 0.18258 0.81578 0.16366 0.0
O273 O 0.19289 0.8527 0.1685 0.0
N274 N 0.2748 0.81005 0.13645 0.0
C275 C 0.30273 0.82498 0.11587 0.0
C276 C 0.30285 0.79445 0.1015 0.0
C277 C 0.25813 0.77054 0.13434 0.0
N278 N 0.27486 0.76036 0.11308 0.0
C279 C 0.30093 0.91238 0.13315 0.0
C280 C 0.24318 0.88541 0.09128 0.0
C281 C 0.27525 0.92362 0.08878 0.0
C282 C 0.30443 0.93694 0.11012 0.0
C283 C 0.24107 0.86173 0.11451 0.0
N284 N 0.26871 0.87582 0.136 0.0
H285 H 0.32563 0.92198 0.14743 0.0
H286 H 0.21815 0.83134 0.1141 0.0
H287 H 0.32303 0.85598 0.11254 0.0
H288 H 0.2362 0.74992 0.14917 0.0
O289 O 0.32352 0.86601 0.17454 0.0
O290 O 0.27808 0.81093 0.19527 0.0
O291 O 0.20886 0.8056 0.16281 0.0
C292 C 0.31498 0.83753 0.19268 0.0
H293 H 0.23217 0.88609 0.259 0.0
H294 H 0.32303 0.79702 0.08462 0.0
H295 H 0.2204 0.87332 0.07498 0.0
H296 H 0.33093 0.96532 0.10827 0.0
Co297 Co 0.44412 0.27707 0.32682 0.0
C298 C 0.39205 0.29139 0.36355 0.0
C299 C 0.38561 0.23495 0.37327 0.0
C300 C 0.36179 0.24158 0.39169 0.0
N301 N 0.40442 0.26628 0.35566 0.0
N302 N 0.36616 0.27729 0.38563 0.0
H303 H 0.40205 0.31959 0.35323 0.0
H304 H 0.38947 0.20953 0.37315 0.0
C305 C 0.41608 0.20444 0.29171 0.0
O306 O 0.42801 0.22846 0.26943 0.0
N307 N 0.48538 0.28918 0.29842 0.0
C308 C 0.50299 0.32031 0.28034 0.0
C309 C 0.53246 0.31876 0.26568 0.0
C310 C 0.50591 0.27012 0.29524 0.0
N311 N 0.53425 0.28712 0.2749 0.0
C312 C 0.42246 0.32032 0.28798 0.0
C313 C 0.35313 0.25703 0.26876 0.0
C314 C 0.36837 0.29314 0.25435 0.0
C315 C 0.40246 0.32551 0.2651 0.0
C316 C 0.37452 0.25318 0.29144 0.0
N317 N 0.41079 0.28369 0.29869 0.0
H318 H 0.44769 0.34584 0.29678 0.0
H319 H 0.3623 0.2253 0.30257 0.0
H320 H 0.4969 0.34403 0.27852 0.0
H321 H 0.5001 0.24429 0.30756 0.0
O322 O 0.47323 0.33045 0.34073 0.0
O323 O 0.48094 0.28138 0.35669 0.0
O324 O 0.41927 0.21848 0.31727 0.0
C325 C 0.49138 0.31856 0.35782 0.0
H326 H 0.34356 0.22208 0.40871 0.0
H327 H 0.55223 0.34037 0.25028 0.0
H328 H 0.32587 0.23172 0.26188 0.0
H329 H 0.41381 0.35448 0.25563 0.0
Co330 Co 0.17473 0.43903 0.48795 0.0
C331 C 0.10791 0.38638 0.52444 0.0
C332 C 0.15796 0.38036 0.53436 0.0
C333 C 0.12767 0.3566 0.55292 0.0
N334 N 0.14534 0.39887 0.51654 0.0
N335 N 0.09629 0.36068 0.54676 0.0
H336 H 0.0897 0.39628 0.5141 0.0
H337 H 0.18731 0.38457 0.53439 0.0
C338 C 0.22108 0.41242 0.45388 0.0
O339 O 0.20942 0.42439 0.43138 0.0
N340 N 0.20452 0.48081 0.45992 0.0
C341 C 0.19145 0.49815 0.44121 0.0
C342 C 0.22285 0.52804 0.42705 0.0
C343 C 0.24414 0.50189 0.45761 0.0
N344 N 0.256 0.53032 0.43722 0.0
C345 C 0.11129 0.41679 0.4478 0.0
C346 C 0.10657 0.34769 0.42924 0.0
C347 C 0.08595 0.36266 0.41422 0.0
C348 C 0.08702 0.39664 0.42458 0.0
C349 C 0.13095 0.36927 0.45223 0.0
N350 N 0.13609 0.40545 0.45921 0.0
H351 H 0.11041 0.44188 0.4563 0.0
H352 H 0.14644 0.35727 0.46382 0.0
H353 H 0.16165 0.49156 0.43856 0.0
H354 H 0.2638 0.49632 0.47055 0.0
O355 O 0.14953 0.46755 0.50076 0.0
O356 O 0.20549 0.47596 0.51845 0.0
O357 O 0.20931 0.41493 0.47928 0.0
C358 C 0.17859 0.48615 0.51854 0.0
H359 H 0.12914 0.33874 0.57019 0.0
H360 H 0.22139 0.54769 0.41129 0.0
H361 H 0.10503 0.32047 0.42264 0.0
H362 H 0.06955 0.40776 0.41459 0.0
Co363 Co 0.74664 0.17089 0.65508 0.0
C364 C 0.73265 0.10393 0.69145 0.0
C365 C 0.78839 0.15427 0.70164 0.0
C366 C 0.78175 0.12384 0.72021 0.0
N367 N 0.75752 0.14155 0.68365 0.0
N368 N 0.74648 0.09226 0.71388 0.0
H369 H 0.7047 0.08564 0.68097 0.0
H370 H 0.81339 0.1838 0.7018 0.0
C371 C 0.8187 0.21696 0.62011 0.0
O372 O 0.79455 0.20506 0.59797 0.0
N373 N 0.73448 0.20058 0.62707 0.0
C374 C 0.70481 0.18739 0.60774 0.0
C375 C 0.7062 0.21891 0.59374 0.0
C376 C 0.75247 0.24032 0.62519 0.0
N377 N 0.73623 0.2522 0.60459 0.0
C378 C 0.70429 0.10657 0.61591 0.0
C379 C 0.76803 0.10217 0.59572 0.0
C380 C 0.73204 0.08152 0.58137 0.0
C381 C 0.69945 0.08226 0.59257 0.0
C382 C 0.77153 0.12656 0.61891 0.0
N383 N 0.74076 0.13168 0.62657 0.0
H384 H 0.67868 0.10594 0.62481 0.0
H385 H 0.79935 0.14225 0.62998 0.0
H386 H 0.6823 0.15738 0.60442 0.0
H387 H 0.7771 0.26004 0.63856 0.0
O388 O 0.69327 0.14605 0.66843 0.0
O389 O 0.74129 0.20228 0.68549 0.0
O390 O 0.80511 0.20529 0.64571 0.0
C391 C 0.70417 0.17548 0.68594 0.0
H392 H 0.80085 0.12536 0.73762 0.0
H393 H 0.68559 0.21743 0.57757 0.0
H394 H 0.79347 0.10086 0.58834 0.0
H395 H 0.67068 0.06492 0.58289 0.0
H396 H 0.36685 0.23388 0.8325 0.0
H397 H 0.42308 0.26369 0.91612 0.0
H398 H 0.33429 0.27198 0.84389 0.0
H399 H 0.39072 0.30064 0.92745 0.0
H400 H 0.35642 0.3922 0.93384 0.0
H401 H 0.39087 0.36025 0.91455 0.0
H402 H 0.28272 0.26902 0.87741 0.0
H403 H 0.24809 0.30148 0.89673 0.0
C404 C 0.37257 0.2488 0.8531 0.0
C405 C 0.39755 0.24567 0.87338 0.0
C406 C 0.35371 0.27035 0.85973 0.0
C407 C 0.35998 0.28959 0.88657 0.0
C408 C 0.38558 0.28687 0.90641 0.0
C409 C 0.40399 0.26529 0.89995 0.0
C410 C 0.33988 0.36532 0.92161 0.0
C411 C 0.29928 0.34901 0.91737 0.0
C412 C 0.35969 0.34699 0.91044 0.0
C413 C 0.33952 0.31164 0.89478 0.0
C414 C 0.29925 0.29629 0.88925 0.0
C415 C 0.27936 0.31481 0.90039 0.0
H416 H 0.11783 0.30266 0.99055 0.0
H417 H 0.15683 0.41758 0.02715 0.0
H418 H 0.05312 0.27866 0.01186 0.0
H419 H 0.09185 0.39346 0.04847 0.0
H420 H 0.99056 0.31758 0.11294 0.0
H421 H 0.05316 0.34619 0.08788 0.0
H422 H 0.99388 0.28577 0.00978 0.0
H423 H 0.93104 0.2577 0.03447 0.0
C424 C 0.11245 0.32298 0.00282 0.0
C425 C 0.14259 0.36205 0.00713 0.0
C426 C 0.07526 0.30922 0.01496 0.0
C427 C 0.06731 0.33405 0.03202 0.0
C428 C 0.09713 0.37345 0.03571 0.0
C429 C 0.13426 0.38737 0.02326 0.0
C430 C 0.99049 0.31072 0.09033 0.0
C431 C 0.95519 0.28504 0.07595 0.0
C432 C 0.02661 0.32724 0.07593 0.0
C433 C 0.0286 0.3183 0.04681 0.0
C434 C 0.99345 0.29295 0.03231 0.0
C435 C 0.95728 0.2767 0.04661 0.0
H436 H 0.82378 0.11173 0.1525 0.0
H437 H 0.7484 0.15077 0.18963 0.0
H438 H 0.78341 0.04692 0.17407 0.0
H439 H 0.70779 0.08563 0.21117 0.0
H440 H 0.684 0.9854 0.27632 0.0
H441 H 0.71709 0.04768 0.25054 0.0
H442 H 0.7176 0.98713 0.17298 0.0
H443 H 0.68371 0.92447 0.1985 0.0
C444 C 0.79824 0.10632 0.16493 0.0
C445 C 0.78942 0.13653 0.16937 0.0
C446 C 0.77498 0.06906 0.17721 0.0
C447 C 0.74246 0.06109 0.1945 0.0
C448 C 0.73289 0.09093 0.19823 0.0
C449 C 0.75596 0.12816 0.18567 0.0
C450 C 0.69043 0.98498 0.25367 0.0
C451 C 0.68089 0.94941 0.23967 0.0
C452 C 0.70951 0.02091 0.23885 0.0
C453 C 0.71997 0.02247 0.20966 0.0
C454 C 0.71031 0.98704 0.19554 0.0
C455 C 0.69091 0.95101 0.21029 0.0
H456 H 0.68688 0.6338 0.41281 0.0
H457 H 0.80136 0.73665 0.40358 0.0
H458 H 0.65787 0.66636 0.38563 0.0
H459 H 0.77265 0.77008 0.37761 0.0
H460 H 0.7195 0.81491 0.31364 0.0
H461 H 0.74496 0.7756 0.33525 0.0
H462 H 0.64009 0.71468 0.3874 0.0
H463 H 0.61388 0.75269 0.36439 0.0
C464 C 0.7058 0.66353 0.40512 0.0
C465 C 0.74644 0.68264 0.41028 0.0
C466 C 0.68918 0.68236 0.3896 0.0
C467 C 0.71271 0.72109 0.3792 0.0
C468 C 0.75345 0.74002 0.38448 0.0
C469 C 0.77006 0.72094 0.39955 0.0
C470 C 0.70167 0.79268 0.32942 0.0
C471 C 0.66471 0.78697 0.3373 0.0
C472 C 0.71645 0.77033 0.34213 0.0
C473 C 0.69507 0.74216 0.36361 0.0
C474 C 0.65743 0.73564 0.37079 0.0
C475 C 0.64232 0.75754 0.35763 0.0
H476 H 0.05612 0.67536 0.59283 0.0
H477 H 0.06488 0.78937 0.59302 0.0
H478 H 0.99598 0.64885 0.5642 0.0
H479 H 1.0042 0.76299 0.56559 0.0
H480 H 0.91369 0.71871 0.4962 0.0
H481 H 0.9762 0.74168 0.52055 0.0
H482 H 0.92916 0.62934 0.56397 0.0
H483 H 0.86716 0.60585 0.53819 0.0
C484 C 0.0449 0.69464 0.587 0.0
C485 C 0.06537 0.73452 0.59507 0.0
C486 C 1.01031 0.67945 0.57062 0.0
C487 C 0.99499 0.70368 0.56219 0.0
C488 C 0.01535 0.74347 0.57079 0.0
C489 C 0.05016 0.7587 0.58675 0.0
C490 C 0.91695 0.69873 0.51062 0.0
C491 C 0.8855 0.6605 0.51528 0.0
C492 C 0.95273 0.71205 0.52492 0.0
C493 C 0.95788 0.6878 0.54485 0.0
C494 C 0.9267 0.64893 0.54869 0.0
C495 C 0.89103 0.63536 0.53391 0.0
H496 H 0.23215 0.87794 0.67408 0.0
H497 H 0.26929 0.84773 0.75316 0.0
H498 H 0.26921 0.94793 0.68774 0.0
H499 H 0.30545 0.91654 0.76676 0.0
H500 H 0.39419 0.04417 0.77459 0.0
H501 H 0.36272 0.97857 0.75378 0.0
H502 H 0.2657 0.99234 0.72531 0.0
H503 H 0.29735 0.05842 0.74631 0.0
C504 C 0.24861 0.88625 0.69411 0.0
C505 C 0.24775 0.85727 0.71253 0.0
C506 C 0.26951 0.92623 0.70207 0.0
C507 C 0.2904 0.93795 0.72837 0.0
C508 C 0.29024 0.90885 0.74621 0.0
C509 C 0.26921 0.86922 0.73846 0.0
C510 C 0.36607 0.03332 0.76407 0.0
C511 C 0.34807 0.05653 0.76266 0.0
C512 C 0.34805 0.99563 0.75198 0.0
C513 C 0.31142 0.97989 0.7381 0.0
C514 C 0.29404 1.00361 0.73563 0.0
C515 C 0.31215 0.04149 0.74778 0.0
H516 H 0.74839 0.60624 0.97043 0.0
H517 H 0.82935 0.72405 0.9999 0.0
H518 H 0.70947 0.63062 0.94614 0.0
H519 H 0.79098 0.7484 0.97531 0.0
H520 H 0.69665 0.77573 0.94581 0.0
H521 H 0.72928 0.74824 0.97442 0.0
H522 H 0.717 0.67108 0.90384 0.0
H523 H 0.68456 0.69861 0.87519 0.0
C524 C 0.7576 0.63721 0.9721 0.0
C525 C 0.7921 0.66317 0.98709 0.0
C526 C 0.73551 0.65127 0.95791 0.0
C527 C 0.74723 0.69158 0.95852 0.0
C528 C 0.78082 0.71717 0.97453 0.0
C529 C 0.80297 0.70317 0.98857 0.0
C530 C 0.7011 0.75312 0.93625 0.0
C531 C 0.6879 0.73956 0.90805 0.0
C532 C 0.71977 0.73724 0.95274 0.0
C533 C 0.72572 0.70731 0.94152 0.0
C534 C 0.71229 0.69356 0.91342 0.0
C535 C 0.6937 0.70948 0.89692 0.0
H536 H 0.15596 0.74656 0.13385 0.0
H537 H 0.11762 0.82329 0.16974 0.0
H538 H 0.09118 0.70608 0.11207 0.0
H539 H 0.05306 0.7829 0.14799 0.0
H540 H 0.93088 0.68203 0.12457 0.0
H541 H 0.99341 0.71637 0.1498 0.0
H542 H 0.05351 0.71556 0.07216 0.0
H543 H 0.99123 0.68203 0.04656 0.0
C544 C 0.13356 0.75445 0.1375 0.0
C545 C 0.14202 0.78823 0.15354 0.0
C546 C 0.09655 0.73144 0.12479 0.0
C547 C 0.06699 0.74137 0.12814 0.0
C548 C 0.07502 0.77424 0.14514 0.0
C549 C 0.11211 0.79748 0.15754 0.0
C550 C 0.95725 0.68927 0.11265 0.0
C551 C 0.9555 0.67909 0.08328 0.0
C552 C 0.99322 0.70893 0.12726 0.0
C553 C 0.02849 0.71868 0.11304 0.0
C554 C 0.02684 0.70798 0.08389 0.0
C555 C 0.99092 0.68865 0.06918 0.0
H556 H 0.42063 0.16974 0.2425 0.0
H557 H 0.36912 0.14175 0.3277 0.0
H558 H 0.388 0.10045 0.23058 0.0
H559 H 0.33628 0.07122 0.31567 0.0
H560 H 0.24857 0.95508 0.26395 0.0
H561 H 0.28314 0.02245 0.28284 0.0
H562 H 0.39002 0.04131 0.24239 0.0
H563 H 0.35573 0.97454 0.22368 0.0
C564 C 0.40249 0.14872 0.25886 0.0
C565 C 0.39752 0.16145 0.28609 0.0
C566 C 0.38393 0.10878 0.25203 0.0
C567 C 0.35962 0.08007 0.27217 0.0
C568 C 0.35468 0.09259 0.2996 0.0
C569 C 0.37369 0.13292 0.30657 0.0
C570 C 0.27956 0.97348 0.25945 0.0
C571 C 0.29911 0.95953 0.24178 0.0
C572 C 0.29942 0.01208 0.27033 0.0
C573 C 0.33927 0.03757 0.26381 0.0
C574 C 0.35912 0.02288 0.2473 0.0
C575 C 0.33937 0.98451 0.23644 0.0
H576 H 0.22935 0.3579 0.48675 0.0
H577 H 0.26903 0.42642 0.4083 0.0
H578 H 0.26668 0.32505 0.47375 0.0
H579 H 0.30556 0.39399 0.39541 0.0
H580 H 0.39489 0.356 0.38965 0.0
H581 H 0.36271 0.38948 0.41023 0.0
H582 H 0.26417 0.27764 0.43544 0.0
H583 H 0.29651 0.24383 0.41459 0.0
C584 C 0.2464 0.3663 0.46701 0.0
C585 C 0.2462 0.39472 0.44855 0.0
C586 C 0.26747 0.3473 0.45943 0.0
C587 C 0.28922 0.35693 0.43354 0.0
C588 C 0.28966 0.38613 0.41566 0.0
C589 C 0.26842 0.4046 0.423 0.0
C590 C 0.36631 0.33837 0.39942 0.0
C591 C 0.34804 0.29706 0.39989 0.0
C592 C 0.34789 0.35766 0.41139 0.0
C593 C 0.31061 0.33627 0.42423 0.0
C594 C 0.29298 0.29504 0.4259 0.0
C595 C 0.31149 0.27565 0.41385 0.0
H596 H 0.85117 0.26462 0.57405 0.0
H597 H 0.88243 0.22574 0.65182 0.0
H598 H 0.9195 0.3009 0.55978 0.0
H599 H 0.95202 0.26295 0.63746 0.0
H600 H 0.06073 0.29157 0.57672 0.0
H601 H 0.99543 0.25984 0.59876 0.0
H602 H 0.98167 0.35796 0.57262 0.0
H603 H 0.04648 0.38948 0.55075 0.0
C604 C 0.8728 0.26417 0.58833 0.0
C605 C 0.86129 0.24218 0.61407 0.0
C606 C 0.91217 0.28528 0.58019 0.0
C607 C 0.94143 0.28501 0.59745 0.0
C608 C 0.93017 0.26359 0.62358 0.0
C609 C 0.89043 0.2426 0.63195 0.0
C610 C 0.04396 0.30658 0.57599 0.0
C611 C 0.05874 0.34282 0.56142 0.0
C612 C 1.00655 0.28843 0.58874 0.0
C613 C 0.98305 0.30611 0.58722 0.0
C614 C 0.99857 0.34307 0.5737 0.0
C615 C 0.03578 0.36112 0.56099 0.0
H616 H 0.59779 0.84586 0.74264 0.0
H617 H 0.6659 0.87963 0.82132 0.0
H618 H 0.63023 0.91401 0.72716 0.0
H619 H 0.69861 0.94891 0.80573 0.0
H620 H 0.77962 0.05716 0.7449 0.0
H621 H 0.74593 0.99176 0.76714 0.0
H622 H 0.63462 0.97649 0.73867 0.0
H623 H 0.66797 0.04145 0.7167 0.0
C624 C 0.61952 0.86797 0.75683 0.0
C625 C 0.62926 0.85721 0.78323 0.0
C626 C 0.638 0.90723 0.74798 0.0
C627 C 0.66703 0.9371 0.76518 0.0
C628 C 0.67654 0.92658 0.79188 0.0
C629 C 0.65759 0.887 0.80094 0.0
C630 C 0.74793 0.04006 0.74368 0.0
C631 C 0.72669 0.05451 0.72849 0.0
C632 C 0.7286 1.00257 0.75653 0.0
C633 C 0.68757 0.97863 0.75446 0.0
C634 C 0.66631 0.99374 0.74019 0.0
C635 C 0.68554 0.03106 0.72743 0.0
H636 H 0.33118 0.7411 0.11067 0.0
H637 H 0.20655 0.69373 0.10129 0.0
H638 H 0.32367 0.67728 0.09769 0.0
H639 H 0.19893 0.62946 0.08735 0.0
H640 H 0.23945 0.55263 0.02386 0.0
H641 H 0.23341 0.60868 0.04057 0.0
H642 H 0.2816 0.60393 0.12317 0.0
H643 H 0.28619 0.54732 0.10725 0.0
C644 C 0.30217 0.71684 0.10582 0.0
C645 C 0.26943 0.72206 0.10695 0.0
C646 C 0.29784 0.68043 0.09848 0.0
C647 C 0.26075 0.64862 0.09151 0.0
C648 C 0.22781 0.65367 0.09259 0.0
C649 C 0.23208 0.69011 0.10068 0.0
C650 C 0.24777 0.5628 0.04582 0.0
C651 C 0.26417 0.54588 0.06395 0.0
C652 C 0.2443 0.59489 0.05535 0.0
C653 C 0.25742 0.61069 0.08302 0.0
C654 C 0.27165 0.59246 0.10163 0.0
C655 C 0.2746 0.56024 0.09234 0.0
H656 H 0.74636 0.27857 0.26784 0.0
H657 H 0.70178 0.24536 0.18102 0.0
H658 H 0.68551 0.27547 0.28236 0.0
H659 H 0.64004 0.24058 0.19585 0.0
H660 H 0.56826 0.29976 0.22238 0.0
H661 H 0.6209 0.28816 0.20787 0.0
H662 H 0.61584 0.23579 0.29111 0.0
H663 H 0.56379 0.24889 0.30602 0.0
C664 C 0.72338 0.27015 0.2519 0.0
C665 C 0.72931 0.26289 0.22312 0.0
C666 C 0.68819 0.26784 0.26035 0.0
C667 C 0.65789 0.25809 0.24024 0.0
C668 C 0.663 0.24878 0.2118 0.0
C669 C 0.69828 0.25112 0.20334 0.0
C670 C 0.57832 0.28574 0.23761 0.0
C671 C 0.56222 0.27584 0.26553 0.0
C672 C 0.6082 0.27855 0.22913 0.0
C673 C 0.62283 0.26116 0.24833 0.0
C674 C 0.6056 0.24968 0.27589 0.0
C675 C 0.57553 0.25685 0.28437 0.0
H676 H 0.47627 0.74382 0.43241 0.0
H677 H 0.46818 0.69813 0.34633 0.0
H678 H 0.41808 0.68284 0.44654 0.0
H679 H 0.41083 0.63635 0.36081 0.0
H680 H 0.2792 0.56448 0.3848 0.0
H681 H 0.3438 0.61745 0.37121 0.0
H682 H 0.38793 0.61287 0.45582 0.0
H683 H 0.32241 0.56046 0.46976 0.0
C684 C 0.46235 0.72058 0.41657 0.0
C685 C 0.47659 0.72621 0.38809 0.0
C686 C 0.42922 0.68534 0.4248 0.0
C687 C 0.40949 0.65473 0.40476 0.0
C688 C 0.42495 0.65955 0.37668 0.0
C689 C 0.45812 0.69487 0.36844 0.0
C690 C 0.30264 0.57472 0.40053 0.0
C691 C 0.29546 0.55864 0.42852 0.0
C692 C 0.33992 0.60478 0.3926 0.0
C693 C 0.37115 0.6196 0.41243 0.0
C694 C 0.36441 0.60245 0.44011 0.0
C695 C 0.32697 0.57219 0.44804 0.0
H696 H 0.73495 0.46865 0.60077 0.0
H697 H 0.78025 0.4666 0.51629 0.0
H698 H 0.73904 0.41096 0.61472 0.0
H699 H 0.78579 0.40969 0.53061 0.0
H700 H 0.72753 0.27664 0.55199 0.0
H701 H 0.73804 0.34125 0.53902 0.0
H702 H 0.78079 0.38303 0.62517 0.0
H703 H 0.76895 0.31753 0.63841 0.0
C704 C 0.74621 0.45615 0.58527 0.0
C705 C 0.75667 0.47193 0.55725 0.0
C706 C 0.74905 0.42334 0.5934 0.0
C707 C 0.76247 0.40546 0.57372 0.0
C708 C 0.77481 0.42242 0.54617 0.0
C709 C 0.77199 0.45531 0.53804 0.0
C710 C 0.73924 0.29961 0.56817 0.0
C711 C 0.74685 0.29178 0.59635 0.0
C712 C 0.74579 0.33687 0.56062 0.0
C713 C 0.76015 0.36738 0.58107 0.0
C714 C 0.7693 0.36004 0.60899 0.0
C715 C 0.76285 0.32265 0.61652 0.0
H716 H 0.29717 0.71226 0.68745 0.0
H717 H 0.29175 0.75466 0.772 0.0
H718 H 0.35836 0.71433 0.70035 0.0
H719 H 0.3544 0.75994 0.78465 0.0
H720 H 0.43949 0.71903 0.81149 0.0
H721 H 0.38161 0.72277 0.79778 0.0
H722 H 0.42418 0.7489 0.70972 0.0
H723 H 0.48037 0.74209 0.72355 0.0
C724 C 0.30986 0.723 0.70858 0.0
C725 C 0.29 0.7331 0.72884 0.0
C726 C 0.34505 0.72446 0.71605 0.0
C727 C 0.36161 0.73704 0.74376 0.0
C728 C 0.34228 0.74895 0.76345 0.0
C729 C 0.30661 0.74641 0.7562 0.0
C730 C 0.43629 0.72577 0.7893 0.0
C731 C 0.464 0.73008 0.76851 0.0
C732 C 0.40328 0.72823 0.78134 0.0
C733 C 0.39779 0.73614 0.75248 0.0
C734 C 0.42657 0.74178 0.73195 0.0
C735 C 0.45898 0.73824 0.73982 0.0
H736 H 0.70193 0.46797 0.97738 0.0
H737 H 0.7471 0.4754 0.89123 0.0
H738 H 0.63981 0.4112 0.96293 0.0
H739 H 0.68583 0.41767 0.87716 0.0
H740 H 0.56386 0.32241 0.85393 0.0
H741 H 0.61644 0.38796 0.86779 0.0
H742 H 0.61967 0.34391 0.95278 0.0
H743 H 0.56647 0.27936 0.93931 0.0
C744 C 0.69852 0.45789 0.95527 0.0
C745 C 0.72983 0.47599 0.93561 0.0
C746 C 0.66298 0.42503 0.94704 0.0
C747 C 0.65791 0.40946 0.91897 0.0
C748 C 0.6885 0.42888 0.8989 0.0
C749 C 0.72393 0.46174 0.90711 0.0
C750 C 0.57531 0.32702 0.87572 0.0
C751 C 0.56133 0.29552 0.89538 0.0
C752 C 0.60569 0.36447 0.8836 0.0
C753 C 0.62255 0.37124 0.91136 0.0
C754 C 0.60725 0.34005 0.93133 0.0
C755 C 0.57705 0.30277 0.92346 0.0
H756 H 0.29139 0.27152 0.24454 0.0
H757 H 0.40498 0.32317 0.20354 0.0
H758 H 0.26317 0.28063 0.19972 0.0
H759 H 0.37696 0.33188 0.15901 0.0
H760 H 0.25816 0.36638 0.12812 0.0
H761 H 0.27506 0.34358 0.17184 0.0
H762 H 0.32632 0.28925 0.12037 0.0
H763 H 0.30817 0.3107 0.07634 0.0
C764 C 0.31012 0.28447 0.22588 0.0
C765 C 0.35034 0.29699 0.22743 0.0
C766 C 0.29408 0.28973 0.20037 0.0
C767 C 0.31791 0.30675 0.17595 0.0
C768 C 0.35787 0.31827 0.17741 0.0
C769 C 0.37396 0.31366 0.20293 0.0
C770 C 0.2719 0.34851 0.12594 0.0
C771 C 0.28202 0.34063 0.09858 0.0
C772 C 0.28167 0.33557 0.15107 0.0
C773 C 0.30218 0.31492 0.14942 0.0
C774 C 0.31084 0.30552 0.12218 0.0
C775 C 0.30064 0.318 0.09701 0.0
H776 H 0.09515 0.39865 0.36271 0.0
H777 H 0.02947 0.28584 0.40491 0.0
H778 H 0.0586 0.3706 0.31814 0.0
H779 H 0.99228 0.2576 0.36011 0.0
H780 H 0.90313 0.25486 0.28874 0.0
H781 H 0.94314 0.27144 0.33214 0.0
H782 H 0.0478 0.31873 0.27991 0.0
H783 H 1.00777 0.30085 0.23615 0.0
C784 C 0.07293 0.36775 0.36231 0.0
C785 C 0.06479 0.34439 0.38717 0.0
C786 C 0.05232 0.35164 0.33679 0.0
C787 C 0.02275 0.31194 0.3357 0.0
C788 C 0.01496 0.28831 0.36045 0.0
C789 C 0.03617 0.30435 0.38596 0.0
C790 C 0.93454 0.26763 0.28632 0.0
C791 C 0.95218 0.27664 0.25881 0.0
C792 C 0.95745 0.27722 0.31129 0.0
C793 C 0.9985 0.29648 0.30934 0.0
C794 C 0.01616 0.30419 0.28195 0.0
C795 C 0.99324 0.29415 0.25694 0.0
H796 H 0.72863 0.94508 0.42961 0.0
H797 H 0.63053 0.96517 0.42296 0.0
H798 H 0.74995 0.98452 0.47393 0.0
H799 H 0.6509 1.00334 0.4671 0.0
H800 H 0.71172 0.09917 0.53048 0.0
H801 H 0.70046 0.06481 0.4847 0.0
H802 H 0.73167 0.98412 0.52413 0.0
H803 H 0.7447 0.0202 0.56988 0.0
C804 C 0.71173 0.95797 0.43764 0.0
C805 C 0.67835 0.95269 0.42262 0.0
C806 C 0.72377 0.98035 0.46302 0.0
C807 C 0.70242 0.99752 0.4739 0.0
C808 C 0.66875 0.9916 0.45895 0.0
C809 C 0.657 0.96965 0.43361 0.0
C810 C 0.71648 0.07428 0.52919 0.0
C811 C 0.72853 0.06186 0.55356 0.0
C812 C 0.70984 0.05444 0.50307 0.0
C813 C 0.71436 0.02118 0.50087 0.0
C814 C 0.72805 0.00971 0.52506 0.0
C815 C 0.73531 0.03011 0.55124 0.0
H816 H 0.67811 0.6555 0.58483 0.0
H817 H 0.79805 0.70558 0.61448 0.0
H818 H 0.6608 0.6745 0.62948 0.0
H819 H 0.77951 0.72076 0.66064 0.0
H820 H 0.73883 0.76772 0.73516 0.0
H821 H 0.76023 0.75822 0.68809 0.0
H822 H 0.64839 0.65194 0.67636 0.0
H823 H 0.62571 0.66349 0.7215 0.0
C824 C 0.70105 0.67088 0.60065 0.0
C825 C 0.73956 0.6786 0.59584 0.0
C826 C 0.6908 0.68103 0.62674 0.0
C827 C 0.71841 0.69821 0.64916 0.0
C828 C 0.75734 0.70753 0.64398 0.0
C829 C 0.76786 0.69822 0.61755 0.0
C830 C 0.71857 0.74262 0.72238 0.0
C831 C 0.68038 0.71649 0.73241 0.0
C832 C 0.73109 0.73687 0.69545 0.0
C833 C 0.70594 0.70455 0.67808 0.0
C834 C 0.66834 0.6778 0.68861 0.0
C835 C 0.65559 0.68395 0.7151 0.0
H836 H 0.09102 0.70046 0.79319 0.0
H837 H 0.02908 0.75323 0.75339 0.0
H838 H 0.05571 0.69249 0.83829 0.0
H839 H 0.993 0.74466 0.79871 0.0
H840 H 0.90322 0.65719 0.86988 0.0
H841 H 0.94247 0.68025 0.82621 0.0
H842 H 0.04819 0.73591 0.87747 0.0
H843 H 1.00895 0.71447 0.92161 0.0
C844 C 0.06982 0.7104 0.79422 0.0
C845 C 0.06235 0.72708 0.7699 0.0
C846 C 0.04996 0.70621 0.82004 0.0
C847 C 0.02182 0.71812 0.82192 0.0
C848 C 0.01463 0.7353 0.7977 0.0
C849 C 0.03515 0.74019 0.77192 0.0
C850 C 0.93472 0.67545 0.8721 0.0
C851 C 0.95284 0.68386 0.89946 0.0
C852 C 0.95718 0.68852 0.84695 0.0
C853 C 0.99824 0.70972 0.84854 0.0
C854 C 0.01648 0.71933 0.87575 0.0
C855 C 0.994 0.7068 0.90097 0.0
H856 H 0.30564 1.00345 0.08593 0.0
H857 H 0.25719 0.89921 0.03251 0.0
H858 H 0.32242 0.04426 0.04259 0.0
H859 H 0.27297 0.94005 0.98944 0.0
H860 H 0.28885 0.02839 0.91762 0.0
H861 H 0.26039 0.99035 0.96214 0.0
H862 H 0.3732 0.05523 0.00416 0.0
H863 H 0.40137 0.09268 0.95997 0.0
C864 C 0.29817 0.98919 0.06502 0.0
C865 C 0.28044 0.94805 0.06276 0.0
C866 C 0.30758 0.01256 0.04026 0.0
C867 C 0.29912 0.99526 0.01273 0.0
C868 C 0.27941 0.9541 0.01043 0.0
C869 C 0.27033 0.93072 0.03518 0.0
C870 C 0.30725 0.03462 0.93654 0.0
C871 C 0.34728 0.06308 0.93545 0.0
C872 C 0.2911 0.0129 0.96188 0.0
C873 C 0.31462 0.02002 0.98655 0.0
C874 C 0.35429 0.04946 0.98559 0.0
C875 C 0.37049 0.07059 0.96026 0.0
H876 H 0.32216 0.55556 0.95453 0.0
H877 H 0.3825 0.48958 0.94786 0.0
H878 H 0.37743 0.61189 0.93124 0.0
H879 H 0.43621 0.544 0.92255 0.0
H880 H 0.5444 0.65443 0.89931 0.0
H881 H 0.49013 0.60372 0.92695 0.0
H882 H 0.41283 0.64158 0.89063 0.0
H883 H 0.46854 0.69453 0.86508 0.0
C884 C 0.34705 0.55298 0.94754 0.0
C885 C 0.34828 0.51844 0.95308 0.0
C886 C 0.37879 0.58521 0.93405 0.0
C887 C 0.41203 0.5832 0.92509 0.0
C888 C 0.41218 0.54774 0.9299 0.0
C889 C 0.38108 0.51613 0.94412 0.0
C890 C 0.51586 0.65222 0.8978 0.0
C891 C 0.51055 0.67835 0.88032 0.0
C892 C 0.48441 0.6227 0.91328 0.0
C893 C 0.44634 0.61746 0.91074 0.0
C894 C 0.44148 0.64457 0.89362 0.0
C895 C 0.47338 0.67499 0.87886 0.0
H896 H 0.90128 0.53804 0.05635 0.0
H897 H 0.77831 0.46647 0.03641 0.0
H898 H 0.89999 0.48318 0.08172 0.0
H899 H 0.77722 0.4099 0.05932 0.0
H900 H 0.77774 0.32035 0.1216 0.0
H901 H 0.77686 0.37594 0.09872 0.0
H902 H 0.90021 0.42657 0.07798 0.0
H903 H 0.90121 0.37283 0.10332 0.0
C904 C 0.87399 0.5102 0.05723 0.0
C905 C 0.83989 0.50639 0.04461 0.0
C906 C 0.87323 0.47835 0.07146 0.0
C907 C 0.83862 0.44124 0.07245 0.0
C908 C 0.80437 0.43778 0.0597 0.0
C909 C 0.8049 0.47016 0.04635 0.0
C910 C 0.80452 0.34353 0.11204 0.0
C911 C 0.83956 0.34255 0.11425 0.0
C912 C 0.80411 0.37545 0.0987 0.0
C913 C 0.83856 0.40657 0.08643 0.0
C914 C 0.87326 0.40436 0.08788 0.0
C915 C 0.87388 0.37319 0.10209 0.0
H916 H 0.46733 0.77242 0.28846 0.0
H917 H 0.54166 0.8932 0.26275 0.0
H918 H 0.41121 0.77191 0.26541 0.0
H919 H 0.48712 0.89223 0.23738 0.0
H920 H 0.37898 0.89774 0.21771 0.0
H921 H 0.4323 0.89562 0.24255 0.0
H922 H 0.37637 0.77038 0.22589 0.0
H923 H 0.32138 0.7726 0.20339 0.0
C924 C 0.4717 0.79853 0.27717 0.0
C925 C 0.50857 0.83287 0.27736 0.0
C926 C 0.43958 0.79834 0.26379 0.0
C927 C 0.44395 0.83222 0.24959 0.0
C928 C 0.48169 0.86592 0.24885 0.0
C929 C 0.51332 0.86644 0.26304 0.0
C930 C 0.37809 0.86976 0.21973 0.0
C931 C 0.34618 0.83534 0.2088 0.0
C932 C 0.40898 0.86848 0.23364 0.0
C933 C 0.40958 0.83289 0.23601 0.0
C934 C 0.37715 0.79832 0.22508 0.0
C935 C 0.34556 0.79948 0.21201 0.0
H936 H 0.56464 0.32834 0.36448 0.0
H937 H 0.49027 0.37362 0.39203 0.0
H938 H 0.62048 0.38256 0.389 0.0
H939 H 0.54455 0.42577 0.41868 0.0
H940 H 0.65283 0.53943 0.43847 0.0
H941 H 0.5996 0.48442 0.41321 0.0
H942 H 0.65494 0.41455 0.42937 0.0
H943 H 0.7098 0.47127 0.45253 0.0
C944 C 0.56013 0.34936 0.37659 0.0
C945 C 0.52337 0.347 0.37646 0.0
C946 C 0.5921 0.38053 0.39074 0.0
C947 C 0.58768 0.40944 0.40567 0.0
C948 C 0.54997 0.40534 0.40666 0.0
C949 C 0.51849 0.37501 0.39177 0.0
C950 C 0.65367 0.51236 0.43626 0.0
C951 C 0.68535 0.50954 0.44731 0.0
C952 C 0.62281 0.48042 0.42211 0.0
C953 C 0.62205 0.4442 0.41952 0.0
C954 C 0.65431 0.44177 0.43043 0.0
C955 C 0.68583 0.47426 0.44383 0.0
H956 H 0.12295 0.50714 0.52425 0.0
H957 H 0.23895 0.53779 0.55396 0.0
H958 H 0.1253 0.55995 0.55287 0.0
H959 H 0.24107 0.59101 0.58329 0.0
H960 H 0.24012 0.70733 0.6078 0.0
H961 H 0.24246 0.65629 0.57857 0.0
H962 H 0.12359 0.57316 0.60405 0.0
H963 H 0.12106 0.62364 0.63258 0.0
C964 C 0.14898 0.52507 0.53704 0.0
C965 C 0.18068 0.51804 0.53695 0.0
C966 C 0.15024 0.55535 0.55356 0.0
C967 C 0.18325 0.57958 0.57054 0.0
C968 C 0.21531 0.57297 0.5703 0.0
C969 C 0.21397 0.54233 0.55373 0.0
C970 C 0.2145 0.67818 0.60695 0.0
C971 C 0.18031 0.66964 0.62231 0.0
C972 C 0.21596 0.6489 0.59045 0.0
C973 C 0.18314 0.61071 0.58886 0.0
C974 C 0.14919 0.60237 0.60442 0.0
C975 C 0.14781 0.63137 0.62089 0.0
H976 H 0.62822 0.11927 0.69354 0.0
H977 H 0.71302 0.23784 0.71914 0.0
H978 H 0.57804 0.12271 0.72158 0.0
H979 H 0.66216 0.24109 0.74789 0.0
H980 H 0.54333 0.23879 0.77048 0.0
H981 H 0.59702 0.24065 0.74201 0.0
H982 H 0.56486 0.12446 0.773 0.0
H983 H 0.51167 0.12236 0.80075 0.0
C984 C 0.63627 0.1461 0.70532 0.0
C985 C 0.67475 0.1782 0.70426 0.0
C986 C 0.60742 0.148 0.72149 0.0
C987 C 0.61612 0.18207 0.73712 0.0
C988 C 0.65453 0.21451 0.73593 0.0
C989 C 0.68369 0.21252 0.71972 0.0
C990 C 0.54776 0.21367 0.77102 0.0
C991 C 0.52303 0.18032 0.78767 0.0
C992 C 0.57865 0.21487 0.75496 0.0
C993 C 0.58504 0.18259 0.75512 0.0
C994 C 0.56043 0.14957 0.77203 0.0
C995 C 0.52993 0.14845 0.78804 0.0
loop_
_geom_bond_atom_site_label_1
_geom_bond_atom_site_label_2
_geom_bond_distance
_geom_bond_site_symmetry_2
_ccdc_geom_bond_type
Co0 N4 2.148 . S
Co0 N10 2.128 1_556 S
Co0 N20 2.194 1_556 S
Co0 O25 2.351 . S
Co0 O26 2.155 . S
Co0 O27 2.096 . S
C1 N4 1.301 . S
C1 N5 1.328 . S
C1 H6 0.930 . S
C2 C3 1.333 . S
C2 N4 1.317 . S
C2 H7 0.930 . S
C3 C2 1.333 . S
C3 N5 1.350 . S
C3 H29 0.931 . S
N4 Co0 2.148 . S
N4 C1 1.301 . S
N4 C2 1.317 . S
N5 C1 1.328 . S
N5 C3 1.350 . S
H6 C1 0.930 . S
H7 C2 0.930 . S
C8 O9 1.224 . S
C8 O27 1.247 1_554 S
O9 C8 1.224 . S
N10 Co0 2.128 1_554 S
N10 C11 1.355 . S
N10 C13 1.311 . S
C11 N10 1.355 . S
C11 C12 1.363 . S
C11 H23 0.929 . S
C12 C11 1.363 . S
C12 N14 1.375 . S
C12 H30 0.931 . S
C13 N10 1.311 . S
C13 N14 1.347 . S
C13 H24 0.929 . S
N14 C12 1.375 . S
N14 C13 1.347 . S
C15 C18 1.365 . S
C15 N20 1.328 . S
C15 H21 0.929 . S
C16 C17 1.362 . S
C16 C19 1.378 . S
C16 H31 0.929 . S
C17 C16 1.362 . S
C17 C18 1.366 . S
C18 C15 1.365 . S
C18 C17 1.366 . S
C18 H32 0.930 . S
C19 C16 1.378 . S
C19 N20 1.315 . S
C19 H22 0.930 . S
N20 Co0 2.194 1_554 S
N20 C15 1.328 . S
N20 C19 1.315 . S
H21 C15 0.929 . S
H22 C19 0.930 . S
H23 C11 0.929 . S
H24 C13 0.929 . S
O25 Co0 2.351 . S
O25 C28 1.244 . S
O26 Co0 2.155 . S
O26 C28 1.240 . S
O27 Co0 2.096 . S
O27 C8 1.247 1_556 S
C28 O25 1.244 . S
C28 O26 1.240 . S
H29 C3 0.931 . S
H30 C12 0.931 . S
H31 C16 0.929 . S
H32 C18 0.930 . S
Co33 N37 2.148 . S
Co33 N43 2.128 . S
Co33 N53 2.194 . S
Co33 O58 2.351 . S
Co33 O59 2.155 . S
Co33 O60 2.096 . S
C34 N37 1.301 . S
C34 N38 1.328 . S
C34 H39 0.930 . S
C35 C36 1.333 . S
C35 N37 1.317 . S
C35 H40 0.930 . S
C36 C35 1.333 . S
C36 N38 1.350 . S
C36 H62 0.931 . S
N37 Co33 2.148 . S
N37 C34 1.301 . S
N37 C35 1.317 . S
N38 C34 1.328 . S
N38 C36 1.350 . S
H39 C34 0.930 . S
H40 C35 0.930 . S
C41 O42 1.224 . S
C41 O60 1.247 . S
O42 C41 1.224 . S
N43 Co33 2.128 . S
N43 C44 1.355 . S
N43 C46 1.311 . S
C44 N43 1.355 . S
C44 C45 1.363 . S
C44 H56 0.929 . S
C45 C44 1.363 . S
C45 N47 1.375 . S
C45 H63 0.931 . S
C46 N43 1.311 . S
C46 N47 1.347 . S
C46 H57 0.929 . S
N47 C45 1.375 . S
N47 C46 1.347 . S
C48 C51 1.365 . S
C48 N53 1.328 . S
C48 H54 0.929 . S
C49 C50 1.362 . S
C49 C52 1.378 . S
C49 H64 0.929 . S
C50 C49 1.362 . S
C50 C51 1.366 . S
C51 C48 1.365 . S
C51 C50 1.366 . S
C51 H65 0.930 . S
C52 C49 1.378 . S
C52 N53 1.315 . S
C52 H55 0.930 . S
N53 Co33 2.194 . S
N53 C48 1.328 . S
N53 C52 1.315 . S
H54 C48 0.929 . S
H55 C52 0.930 . S
H56 C44 0.929 . S
H57 C46 0.929 . S
O58 Co33 2.351 . S
O58 C61 1.244 . S
O59 Co33 2.155 . S
O59 C61 1.240 . S
O60 Co33 2.096 . S
O60 C41 1.247 . S
C61 O58 1.244 . S
C61 O59 1.240 . S
H62 C36 0.931 . S
H63 C45 0.931 . S
H64 C49 0.929 . S
H65 C51 0.930 . S
Co66 N70 2.148 . S
Co66 N76 2.128 . S
Co66 N86 2.194 . S
Co66 O91 2.351 . S
Co66 O92 2.155 . S
Co66 O93 2.096 . S
C67 N70 1.301 . S
C67 N71 1.328 . S
C67 H72 0.930 . S
C68 C69 1.333 . S
C68 N70 1.317 . S
C68 H73 0.930 . S
C69 C68 1.333 . S
C69 N71 1.350 . S
C69 H95 0.931 . S
N70 Co66 2.148 . S
N70 C67 1.301 . S
N70 C68 1.317 . S
N71 C67 1.328 . S
N71 C69 1.350 . S
H72 C67 0.930 . S
H73 C68 0.930 . S
C74 O75 1.224 . S
C74 O93 1.247 . S
O75 C74 1.224 . S
N76 Co66 2.128 . S
N76 C77 1.355 . S
N76 C79 1.311 . S
C77 N76 1.355 . S
C77 C78 1.363 . S
C77 H89 0.929 . S
C78 C77 1.363 . S
C78 N80 1.375 . S
C78 H96 0.931 . S
C79 N76 1.311 . S
C79 N80 1.347 . S
C79 H90 0.929 . S
N80 C78 1.375 . S
N80 C79 1.347 . S
C81 C84 1.365 . S
C81 N86 1.328 . S
C81 H87 0.929 . S
C82 C83 1.362 . S
C82 C85 1.378 . S
C82 H97 0.929 . S
C83 C82 1.362 . S
C83 C84 1.366 . S
C84 C81 1.365 . S
C84 C83 1.366 . S
C84 H98 0.930 . S
C85 C82 1.378 . S
C85 N86 1.315 . S
C85 H88 0.930 . S
N86 Co66 2.194 . S
N86 C81 1.328 . S
N86 C85 1.315 . S
H87 C81 0.929 . S
H88 C85 0.930 . S
H89 C77 0.929 . S
H90 C79 0.929 . S
O91 Co66 2.351 . S
O91 C94 1.244 . S
O92 Co66 2.155 . S
O92 C94 1.240 . S
O93 Co66 2.096 . S
O93 C74 1.247 . S
C94 O91 1.244 . S
C94 O92 1.240 . S
H95 C69 0.931 . S
H96 C78 0.931 . S
H97 C82 0.929 . S
H98 C84 0.930 . S
Co99 N103 2.148 . S
Co99 N109 2.128 . S
Co99 N119 2.194 . S
Co99 O124 2.351 . S
Co99 O125 2.155 . S
Co99 O126 2.096 . S
C100 N103 1.301 . S
C100 N104 1.328 . S
C100 H105 0.930 . S
C101 C102 1.333 . S
C101 N103 1.317 . S
C101 H106 0.930 . S
C102 C101 1.333 . S
C102 N104 1.350 . S
C102 H128 0.931 . S
N103 Co99 2.148 . S
N103 C100 1.301 . S
N103 C101 1.317 . S
N104 C100 1.328 . S
N104 C102 1.350 . S
H105 C100 0.930 . S
H106 C101 0.930 . S
C107 O108 1.224 . S
C107 O126 1.247 . S
O108 C107 1.224 . S
N109 Co99 2.128 . S
N109 C110 1.355 . S
N109 C112 1.311 . S
C110 N109 1.355 . S
C110 C111 1.363 . S
C110 H122 0.929 . S
C111 C110 1.363 . S
C111 N113 1.375 . S
C111 H129 0.931 . S
C112 N109 1.311 . S
C112 N113 1.347 . S
C112 H123 0.929 . S
N113 C111 1.375 . S
N113 C112 1.347 . S
C114 C117 1.365 . S
C114 N119 1.328 . S
C114 H120 0.929 . S
C115 C116 1.362 . S
C115 C118 1.378 . S
C115 H130 0.929 . S
C116 C115 1.362 . S
C116 C117 1.366 . S
C117 C114 1.365 . S
C117 C116 1.366 . S
C117 H131 0.930 . S
C118 C115 1.378 . S
C118 N119 1.315 . S
C118 H121 0.930 . S
N119 Co99 2.194 . S
N119 C114 1.328 . S
N119 C118 1.315 . S
H120 C114 0.929 . S
H121 C118 0.930 . S
H122 C110 0.929 . S
H123 C112 0.929 . S
O124 Co99 2.351 . S
O124 C127 1.244 . S
O125 Co99 2.155 . S
O125 C127 1.240 . S
O126 Co99 2.096 . S
O126 C107 1.247 . S
C127 O124 1.244 . S
C127 O125 1.240 . S
H128 C102 0.931 . S
H129 C111 0.931 . S
H130 C115 0.929 . S
H131 C117 0.930 . S
Co132 N136 2.148 . S
Co132 N142 2.128 . S
Co132 N152 2.194 . S
Co132 O157 2.351 . S
Co132 O158 2.155 . S
Co132 O159 2.096 . S
C133 N136 1.301 . S
C133 N137 1.328 . S
C133 H138 0.930 . S
C134 C135 1.333 . S
C134 N136 1.317 . S
C134 H139 0.930 . S
C135 C134 1.333 . S
C135 N137 1.350 . S
C135 H161 0.931 . S
N136 Co132 2.148 . S
N136 C133 1.301 . S
N136 C134 1.317 . S
N137 C133 1.328 . S
N137 C135 1.350 . S
H138 C133 0.930 . S
H139 C134 0.930 . S
C140 O141 1.224 . S
C140 O159 1.247 . S
O141 C140 1.224 . S
N142 Co132 2.128 . S
N142 C143 1.355 . S
N142 C145 1.311 . S
C143 N142 1.355 . S
C143 C144 1.363 . S
C143 H155 0.929 . S
C144 C143 1.363 . S
C144 N146 1.375 . S
C144 H162 0.931 . S
C145 N142 1.311 . S
C145 N146 1.347 . S
C145 H156 0.929 . S
N146 C144 1.375 . S
N146 C145 1.347 . S
C147 C150 1.365 . S
C147 N152 1.328 . S
C147 H153 0.929 . S
C148 C149 1.362 . S
C148 C151 1.378 . S
C148 H163 0.929 . S
C149 C148 1.362 . S
C149 C150 1.366 . S
C150 C147 1.365 . S
C150 C149 1.366 . S
C150 H164 0.930 . S
C151 C148 1.378 . S
C151 N152 1.315 . S
C151 H154 0.930 . S
N152 Co132 2.194 . S
N152 C147 1.328 . S
N152 C151 1.315 . S
H153 C147 0.929 . S
H154 C151 0.930 . S
H155 C143 0.929 . S
H156 C145 0.929 . S
O157 Co132 2.351 . S
O157 C160 1.244 . S
O158 Co132 2.155 . S
O158 C160 1.240 . S
O159 Co132 2.096 . S
O159 C140 1.247 . S
C160 O157 1.244 . S
C160 O158 1.240 . S
H161 C135 0.931 . S
H162 C144 0.931 . S
H163 C148 0.929 . S
H164 C150 0.930 . S
Co165 N169 2.148 . S
Co165 N175 2.128 . S
Co165 N185 2.194 . S
Co165 O190 2.351 . S
Co165 O191 2.155 . S
Co165 O192 2.096 . S
C166 N169 1.301 . S
C166 N170 1.328 . S
C166 H171 0.930 . S
C167 C168 1.333 . S
C167 N169 1.317 . S
C167 H172 0.930 . S
C168 C167 1.333 . S
C168 N170 1.350 . S
C168 H194 0.931 . S
N169 Co165 2.148 . S
N169 C166 1.301 . S
N169 C167 1.317 . S
N170 C166 1.328 . S
N170 C168 1.350 . S
H171 C166 0.930 . S
H172 C167 0.930 . S
C173 O174 1.224 . S
C173 O192 1.247 . S
O174 C173 1.224 . S
N175 Co165 2.128 . S
N175 C176 1.355 . S
N175 C178 1.311 . S
C176 N175 1.355 . S
C176 C177 1.363 . S
C176 H188 0.929 . S
C177 C176 1.363 . S
C177 N179 1.375 . S
C177 H195 0.931 . S
C178 N175 1.311 . S
C178 N179 1.347 . S
C178 H189 0.929 . S
N179 C177 1.375 . S
N179 C178 1.347 . S
C180 C183 1.365 . S
C180 N185 1.328 . S
C180 H186 0.929 . S
C181 C182 1.362 . S
C181 C184 1.378 . S
C181 H196 0.929 . S
C182 C181 1.362 . S
C182 C183 1.366 . S
C183 C180 1.365 . S
C183 C182 1.366 . S
C183 H197 0.930 . S
C184 C181 1.378 . S
C184 N185 1.315 . S
C184 H187 0.930 . S
N185 Co165 2.194 . S
N185 C180 1.328 . S
N185 C184 1.315 . S
H186 C180 0.929 . S
H187 C184 0.930 . S
H188 C176 0.929 . S
H189 C178 0.929 . S
O190 Co165 2.351 . S
O190 C193 1.244 . S
O191 Co165 2.155 . S
O191 C193 1.240 . S
O192 Co165 2.096 . S
O192 C173 1.247 . S
C193 O190 1.244 . S
C193 O191 1.240 . S
H194 C168 0.931 . S
H195 C177 0.931 . S
H196 C181 0.929 . S
H197 C183 0.930 . S
Co198 N202 2.148 . S
Co198 N208 2.128 . S
Co198 N218 2.194 . S
Co198 O223 2.351 . S
Co198 O224 2.155 . S
Co198 O225 2.096 . S
C199 N202 1.301 . S
C199 N203 1.328 . S
C199 H204 0.930 . S
C200 C201 1.333 . S
C200 N202 1.317 . S
C200 H205 0.930 . S
C201 C200 1.333 . S
C201 N203 1.350 . S
C201 H227 0.931 . S
N202 Co198 2.148 . S
N202 C199 1.301 . S
N202 C200 1.317 . S
N203 C199 1.328 . S
N203 C201 1.350 . S
H204 C199 0.930 . S
H205 C200 0.930 . S
C206 O207 1.224 . S
C206 O225 1.247 . S
O207 C206 1.224 . S
N208 Co198 2.128 . S
N208 C209 1.355 . S
N208 C211 1.311 . S
C209 N208 1.355 . S
C209 C210 1.363 . S
C209 H221 0.929 . S
C210 C209 1.363 . S
C210 N212 1.375 . S
C210 H228 0.931 . S
C211 N208 1.311 . S
C211 N212 1.347 . S
C211 H222 0.929 . S
N212 C210 1.375 . S
N212 C211 1.347 . S
C213 C216 1.365 . S
C213 N218 1.328 . S
C213 H219 0.929 . S
C214 C215 1.362 . S
C214 C217 1.378 . S
C214 H229 0.929 . S
C215 C214 1.362 . S
C215 C216 1.366 . S
C216 C213 1.365 . S
C216 C215 1.366 . S
C216 H230 0.930 . S
C217 C214 1.378 . S
C217 N218 1.315 . S
C217 H220 0.930 . S
N218 Co198 2.194 . S
N218 C213 1.328 . S
N218 C217 1.315 . S
H219 C213 0.929 . S
H220 C217 0.930 . S
H221 C209 0.929 . S
H222 C211 0.929 . S
O223 Co198 2.351 . S
O223 C226 1.244 . S
O224 Co198 2.155 . S
O224 C226 1.240 . S
O225 Co198 2.096 . S
O225 C206 1.247 . S
C226 O223 1.244 . S
C226 O224 1.240 . S
H227 C201 0.931 . S
H228 C210 0.931 . S
H229 C214 0.929 . S
H230 C216 0.930 . S
Co231 N235 2.148 1_556 S
Co231 N241 2.128 . S
Co231 N251 2.194 . S
Co231 O256 2.351 1_556 S
Co231 O257 2.155 1_556 S
Co231 O258 2.096 1_556 S
C232 N235 1.301 . S
C232 N236 1.328 . S
C232 H237 0.930 . S
C233 C234 1.333 . S
C233 N235 1.317 . S
C233 H238 0.930 . S
C234 C233 1.333 . S
C234 N236 1.350 . S
C234 H260 0.931 . S
N235 Co231 2.148 1_554 S
N235 C232 1.301 . S
N235 C233 1.317 . S
N236 C232 1.328 . S
N236 C234 1.350 . S
H237 C232 0.930 . S
H238 C233 0.930 . S
C239 O240 1.224 . S
C239 O258 1.247 1_556 S
O240 C239 1.224 . S
N241 Co231 2.128 . S
N241 C242 1.355 . S
N241 C244 1.311 . S
C242 N241 1.355 . S
C242 C243 1.363 . S
C242 H254 0.929 . S
C243 C242 1.363 . S
C243 N245 1.375 . S
C243 H261 0.931 . S
C244 N241 1.311 . S
C244 N245 1.347 . S
C244 H255 0.929 . S
N245 C243 1.375 . S
N245 C244 1.347 . S
C246 C249 1.365 . S
C246 N251 1.328 . S
C246 H252 0.929 . S
C247 C248 1.362 . S
C247 C250 1.378 . S
C247 H262 0.929 . S
C248 C247 1.362 . S
C248 C249 1.366 . S
C249 C246 1.365 . S
C249 C248 1.366 . S
C249 H263 0.930 . S
C250 C247 1.378 . S
C250 N251 1.315 . S
C250 H253 0.930 . S
N251 Co231 2.194 . S
N251 C246 1.328 . S
N251 C250 1.315 . S
H252 C246 0.929 . S
H253 C250 0.930 . S
H254 C242 0.929 . S
H255 C244 0.929 . S
O256 Co231 2.351 1_554 S
O256 C259 1.244 . S
O257 Co231 2.155 1_554 S
O257 C259 1.240 . S
O258 Co231 2.096 1_554 S
O258 C239 1.247 1_554 S
C259 O256 1.244 . S
C259 O257 1.240 . S
H260 C234 0.931 . S
H261 C243 0.931 . S
H262 C247 0.929 . S
H263 C249 0.930 . S
Co264 N268 2.148 . S
Co264 N274 2.128 . S
Co264 N284 2.194 . S
Co264 O289 2.351 . S
Co264 O290 2.155 . S
Co264 O291 2.096 . S
C265 N268 1.301 . S
C265 N269 1.328 . S
C265 H270 0.930 . S
C266 C267 1.333 . S
C266 N268 1.317 . S
C266 H271 0.930 . S
C267 C266 1.333 . S
C267 N269 1.350 . S
C267 H293 0.931 . S
N268 Co264 2.148 . S
N268 C265 1.301 . S
N268 C266 1.317 . S
N269 C265 1.328 . S
N269 C267 1.350 . S
H270 C265 0.930 . S
H271 C266 0.930 . S
C272 O273 1.224 . S
C272 O291 1.247 . S
O273 C272 1.224 . S
N274 Co264 2.128 . S
N274 C275 1.355 . S
N274 C277 1.311 . S
C275 N274 1.355 . S
C275 C276 1.363 . S
C275 H287 0.929 . S
C276 C275 1.363 . S
C276 N278 1.375 . S
C276 H294 0.931 . S
C277 N274 1.311 . S
C277 N278 1.347 . S
C277 H288 0.929 . S
N278 C276 1.375 . S
N278 C277 1.347 . S
C279 C282 1.365 . S
C279 N284 1.328 . S
C279 H285 0.929 . S
C280 C281 1.362 . S
C280 C283 1.378 . S
C280 H295 0.929 . S
C281 C280 1.362 . S
C281 C282 1.366 . S
C282 C279 1.365 . S
C282 C281 1.366 . S
C282 H296 0.930 . S
C283 C280 1.378 . S
C283 N284 1.315 . S
C283 H286 0.930 . S
N284 Co264 2.194 . S
N284 C279 1.328 . S
N284 C283 1.315 . S
H285 C279 0.929 . S
H286 C283 0.930 . S
H287 C275 0.929 . S
H288 C277 0.929 . S
O289 Co264 2.351 . S
O289 C292 1.244 . S
O290 Co264 2.155 . S
O290 C292 1.240 . S
O291 Co264 2.096 . S
O291 C272 1.247 . S
C292 O289 1.244 . S
C292 O290 1.240 . S
H293 C267 0.931 . S
H294 C276 0.931 . S
H295 C280 0.929 . S
H296 C282 0.930 . S
Co297 N301 2.148 . S
Co297 N307 2.128 . S
Co297 N317 2.194 . S
Co297 O322 2.351 . S
Co297 O323 2.155 . S
Co297 O324 2.096 . S
C298 N301 1.301 . S
C298 N302 1.328 . S
C298 H303 0.930 . S
C299 C300 1.333 . S
C299 N301 1.317 . S
C299 H304 0.930 . S
C300 C299 1.333 . S
C300 N302 1.350 . S
C300 H326 0.931 . S
N301 Co297 2.148 . S
N301 C298 1.301 . S
N301 C299 1.317 . S
N302 C298 1.328 . S
N302 C300 1.350 . S
H303 C298 0.930 . S
H304 C299 0.930 . S
C305 O306 1.224 . S
C305 O324 1.247 . S
O306 C305 1.224 . S
N307 Co297 2.128 . S
N307 C308 1.355 . S
N307 C310 1.311 . S
C308 N307 1.355 . S
C308 C309 1.363 . S
C308 H320 0.929 . S
C309 C308 1.363 . S
C309 N311 1.375 . S
C309 H327 0.931 . S
C310 N307 1.311 . S
C310 N311 1.347 . S
C310 H321 0.929 . S
N311 C309 1.375 . S
N311 C310 1.347 . S
C312 C315 1.365 . S
C312 N317 1.328 . S
C312 H318 0.929 . S
C313 C314 1.362 . S
C313 C316 1.378 . S
C313 H328 0.929 . S
C314 C313 1.362 . S
C314 C315 1.366 . S
C315 C312 1.365 . S
C315 C314 1.366 . S
C315 H329 0.930 . S
C316 C313 1.378 . S
C316 N317 1.315 . S
C316 H319 0.930 . S
N317 Co297 2.194 . S
N317 C312 1.328 . S
N317 C316 1.315 . S
H318 C312 0.929 . S
H319 C316 0.930 . S
H320 C308 0.929 . S
H321 C310 0.929 . S
O322 Co297 2.351 . S
O322 C325 1.244 . S
O323 Co297 2.155 . S
O323 C325 1.240 . S
O324 Co297 2.096 . S
O324 C305 1.247 . S
C325 O322 1.244 . S
C325 O323 1.240 . S
H326 C300 0.931 . S
H327 C309 0.931 . S
H328 C313 0.929 . S
H329 C315 0.930 . S
Co330 N334 2.148 . S
Co330 N340 2.128 . S
Co330 N350 2.194 . S
Co330 O355 2.351 . S
Co330 O356 2.155 . S
Co330 O357 2.096 . S
C331 N334 1.301 . S
C331 N335 1.328 . S
C331 H336 0.930 . S
C332 C333 1.333 . S
C332 N334 1.317 . S
C332 H337 0.930 . S
C333 C332 1.333 . S
C333 N335 1.350 . S
C333 H359 0.931 . S
N334 Co330 2.148 . S
N334 C331 1.301 . S
N334 C332 1.317 . S
N335 C331 1.328 . S
N335 C333 1.350 . S
H336 C331 0.930 . S
H337 C332 0.930 . S
C338 O339 1.224 . S
C338 O357 1.247 . S
O339 C338 1.224 . S
N340 Co330 2.128 . S
N340 C341 1.355 . S
N340 C343 1.311 . S
C341 N340 1.355 . S
C341 C342 1.363 . S
C341 H353 0.929 . S
C342 C341 1.363 . S
C342 N344 1.375 . S
C342 H360 0.931 . S
C343 N340 1.311 . S
C343 N344 1.347 . S
C343 H354 0.929 . S
N344 C342 1.375 . S
N344 C343 1.347 . S
C345 C348 1.365 . S
C345 N350 1.328 . S
C345 H351 0.929 . S
C346 C347 1.362 . S
C346 C349 1.378 . S
C346 H361 0.929 . S
C347 C346 1.362 . S
C347 C348 1.366 . S
C348 C345 1.365 . S
C348 C347 1.366 . S
C348 H362 0.930 . S
C349 C346 1.378 . S
C349 N350 1.315 . S
C349 H352 0.930 . S
N350 Co330 2.194 . S
N350 C345 1.328 . S
N350 C349 1.315 . S
H351 C345 0.929 . S
H352 C349 0.930 . S
H353 C341 0.929 . S
H354 C343 0.929 . S
O355 Co330 2.351 . S
O355 C358 1.244 . S
O356 Co330 2.155 . S
O356 C358 1.240 . S
O357 Co330 2.096 . S
O357 C338 1.247 . S
C358 O355 1.244 . S
C358 O356 1.240 . S
H359 C333 0.931 . S
H360 C342 0.931 . S
H361 C346 0.929 . S
H362 C348 0.930 . S
Co363 N367 2.148 . S
Co363 N373 2.128 . S
Co363 N383 2.194 . S
Co363 O388 2.351 . S
Co363 O389 2.155 . S
Co363 O390 2.096 . S
C364 N367 1.301 . S
C364 N368 1.328 . S
C364 H369 0.930 . S
C365 C366 1.333 . S
C365 N367 1.317 . S
C365 H370 0.930 . S
C366 C365 1.333 . S
C366 N368 1.350 . S
C366 H392 0.931 . S
N367 Co363 2.148 . S
N367 C364 1.301 . S
N367 C365 1.317 . S
N368 C364 1.328 . S
N368 C366 1.350 . S
H369 C364 0.930 . S
H370 C365 0.930 . S
C371 O372 1.224 . S
C371 O390 1.247 . S
O372 C371 1.224 . S
N373 Co363 2.128 . S
N373 C374 1.355 . S
N373 C376 1.311 . S
C374 N373 1.355 . S
C374 C375 1.363 . S
C374 H386 0.929 . S
C375 C374 1.363 . S
C375 N377 1.375 . S
C375 H393 0.931 . S
C376 N373 1.311 . S
C376 N377 1.347 . S
C376 H387 0.929 . S
N377 C375 1.375 . S
N377 C376 1.347 . S
C378 C381 1.365 . S
C378 N383 1.328 . S
C378 H384 0.929 . S
C379 C380 1.362 . S
C379 C382 1.378 . S
C379 H394 0.929 . S
C380 C379 1.362 . S
C380 C381 1.366 . S
C381 C378 1.365 . S
C381 C380 1.366 . S
C381 H395 0.930 . S
C382 C379 1.378 . S
C382 N383 1.315 . S
C382 H385 0.930 . S
N383 Co363 2.194 . S
N383 C378 1.328 . S
N383 C382 1.315 . S
H384 C378 0.929 . S
H385 C382 0.930 . S
H386 C374 0.929 . S
H387 C376 0.929 . S
O388 Co363 2.351 . S
O388 C391 1.244 . S
O389 Co363 2.155 . S
O389 C391 1.240 . S
O390 Co363 2.096 . S
O390 C371 1.247 . S
C391 O388 1.244 . S
C391 O389 1.240 . S
H392 C366 0.931 . S
H393 C375 0.931 . S
H394 C379 0.929 . S
H395 C381 0.930 . S
H396 C404 0.950 . S
H397 C409 0.950 . S
H398 C406 0.950 . S
H399 C408 0.950 . S
H400 C410 0.950 . S
H401 C412 0.950 . S
H402 C414 0.950 . S
H403 C415 0.950 . S
C404 H396 0.950 . S
C404 C405 1.386 . S
C404 C406 1.391 . S
C405 C404 1.386 . S
C405 C409 1.393 . S
C406 H398 0.950 . S
C406 C404 1.391 . S
C406 C407 1.400 . S
C407 C406 1.400 . S
C407 C408 1.398 . S
C407 C413 1.491 . S
C408 H399 0.950 . S
C408 C407 1.398 . S
C408 C409 1.391 . S
C409 H397 0.950 . S
C409 C405 1.393 . S
C409 C408 1.391 . S
C410 H400 0.950 . S
C410 C411 1.386 . S
C410 C412 1.391 . S
C411 C410 1.386 . S
C411 C415 1.393 . S
C412 H401 0.950 . S
C412 C410 1.391 . S
C412 C413 1.400 . S
C413 C407 1.491 . S
C413 C412 1.400 . S
C413 C414 1.398 . S
C414 H402 0.950 . S
C414 C413 1.398 . S
C414 C415 1.391 . S
C415 H403 0.950 . S
C415 C411 1.393 . S
C415 C414 1.391 . S
H416 C424 0.950 1_556 S
H417 C429 0.950 . S
H418 C426 0.950 . S
H419 C428 0.950 . S
H420 C430 0.950 . S
H421 C432 0.950 . S
H422 C434 0.950 . S
H423 C435 0.950 . S
C424 H416 0.950 1_554 S
C424 C425 1.386 . S
C424 C426 1.391 . S
C425 C424 1.386 . S
C425 C429 1.393 . S
C426 H418 0.950 . S
C426 C424 1.391 . S
C426 C427 1.400 . S
C427 C426 1.400 . S
C427 C428 1.398 . S
C427 C433 1.491 . S
C428 H419 0.950 . S
C428 C427 1.398 . S
C428 C429 1.391 . S
C429 H417 0.950 . S
C429 C425 1.393 . S
C429 C428 1.391 . S
C430 H420 0.950 . S
C430 C431 1.386 1_455 S
C430 C432 1.391 . S
C431 C430 1.386 1_655 S
C431 C435 1.393 . S
C432 H421 0.950 . S
C432 C430 1.391 . S
C432 C433 1.400 . S
C433 C427 1.491 . S
C433 C432 1.400 . S
C433 C434 1.398 . S
C434 H422 0.950 . S
C434 C433 1.398 . S
C434 C435 1.391 1_455 S
C435 H423 0.950 . S
C435 C431 1.393 . S
C435 C434 1.391 1_655 S
H436 C444 0.950 . S
H437 C449 0.950 . S
H438 C446 0.950 . S
H439 C448 0.950 . S
H440 C450 0.950 . S
H441 C452 0.950 . S
H442 C454 0.950 . S
H443 C455 0.950 . S
C444 H436 0.950 . S
C444 C445 1.386 . S
C444 C446 1.391 . S
C445 C444 1.386 . S
C445 C449 1.393 . S
C446 H438 0.950 . S
C446 C444 1.391 . S
C446 C447 1.400 . S
C447 C446 1.400 . S
C447 C448 1.398 . S
C447 C453 1.491 . S
C448 H439 0.950 . S
C448 C447 1.398 . S
C448 C449 1.391 . S
C449 H437 0.950 . S
C449 C445 1.393 . S
C449 C448 1.391 . S
C450 H440 0.950 . S
C450 C451 1.386 1_545 S
C450 C452 1.391 . S
C451 C450 1.386 1_565 S
C451 C455 1.393 . S
C452 H441 0.950 . S
C452 C450 1.391 . S
C452 C453 1.400 . S
C453 C447 1.491 . S
C453 C452 1.400 . S
C453 C454 1.398 . S
C454 H442 0.950 . S
C454 C453 1.398 . S
C454 C455 1.391 1_545 S
C455 H443 0.950 . S
C455 C451 1.393 . S
C455 C454 1.391 1_565 S
H456 C464 0.950 . S
H457 C469 0.950 . S
H458 C466 0.950 . S
H459 C468 0.950 . S
H460 C470 0.950 . S
H461 C472 0.950 . S
H462 C474 0.950 . S
H463 C475 0.950 . S
C464 H456 0.950 . S
C464 C465 1.386 . S
C464 C466 1.391 . S
C465 C464 1.386 . S
C465 C469 1.393 . S
C466 H458 0.950 . S
C466 C464 1.391 . S
C466 C467 1.400 . S
C467 C466 1.400 . S
C467 C468 1.398 . S
C467 C473 1.491 . S
C468 H459 0.950 . S
C468 C467 1.398 . S
C468 C469 1.391 . S
C469 H457 0.950 . S
C469 C465 1.393 . S
C469 C468 1.391 . S
C470 H460 0.950 . S
C470 C471 1.386 . S
C470 C472 1.391 . S
C471 C470 1.386 . S
C471 C475 1.393 . S
C472 H461 0.950 . S
C472 C470 1.391 . S
C472 C473 1.400 . S
C473 C467 1.491 . S
C473 C472 1.400 . S
C473 C474 1.398 . S
C474 H462 0.950 . S
C474 C473 1.398 . S
C474 C475 1.391 . S
C475 H463 0.950 . S
C475 C471 1.393 . S
C475 C474 1.391 . S
H476 C484 0.950 . S
H477 C489 0.950 . S
H478 C486 0.950 . S
H479 C488 0.950 . S
H480 C490 0.950 . S
H481 C492 0.950 . S
H482 C494 0.950 . S
H483 C495 0.950 . S
C484 H476 0.950 . S
C484 C485 1.386 1_655 S
C484 C486 1.391 . S
C485 C484 1.386 1_455 S
C485 C489 1.393 . S
C486 H478 0.950 . S
C486 C484 1.391 . S
C486 C487 1.400 . S
C487 C486 1.400 . S
C487 C488 1.398 . S
C487 C493 1.491 . S
C488 H479 0.950 . S
C488 C487 1.398 . S
C488 C489 1.391 1_655 S
C489 H477 0.950 . S
C489 C485 1.393 . S
C489 C488 1.391 1_455 S
C490 H480 0.950 . S
C490 C491 1.386 . S
C490 C492 1.391 . S
C491 C490 1.386 . S
C491 C495 1.393 . S
C492 H481 0.950 . S
C492 C490 1.391 . S
C492 C493 1.400 . S
C493 C487 1.491 . S
C493 C492 1.400 . S
C493 C494 1.398 . S
C494 H482 0.950 . S
C494 C493 1.398 . S
C494 C495 1.391 . S
C495 H483 0.950 . S
C495 C491 1.393 . S
C495 C494 1.391 . S
H496 C504 0.950 . S
H497 C509 0.950 . S
H498 C506 0.950 . S
H499 C508 0.950 . S
H500 C510 0.950 . S
H501 C512 0.950 . S
H502 C514 0.950 . S
H503 C515 0.950 . S
C504 H496 0.950 . S
C504 C505 1.386 . S
C504 C506 1.391 . S
C505 C504 1.386 . S
C505 C509 1.393 . S
C506 H498 0.950 . S
C506 C504 1.391 . S
C506 C507 1.400 . S
C507 C506 1.400 . S
C507 C508 1.398 . S
C507 C513 1.491 . S
C508 H499 0.950 . S
C508 C507 1.398 . S
C508 C509 1.391 . S
C509 H497 0.950 . S
C509 C505 1.393 . S
C509 C508 1.391 . S
C510 H500 0.950 . S
C510 C511 1.386 . S
C510 C512 1.391 1_545 S
C511 C510 1.386 . S
C511 C515 1.393 . S
C512 H501 0.950 . S
C512 C510 1.391 1_565 S
C512 C513 1.400 . S
C513 C507 1.491 . S
C513 C512 1.400 . S
C513 C514 1.398 . S
C514 H502 0.950 . S
C514 C513 1.398 . S
C514 C515 1.391 1_565 S
C515 H503 0.950 . S
C515 C511 1.393 . S
C515 C514 1.391 1_545 S
H516 C524 0.950 . S
H517 C529 0.950 1_554 S
H518 C526 0.950 . S
H519 C528 0.950 . S
H520 C530 0.950 . S
H521 C532 0.950 . S
H522 C534 0.950 . S
H523 C535 0.950 . S
C524 H516 0.950 . S
C524 C525 1.386 . S
C524 C526 1.391 . S
C525 C524 1.386 . S
C525 C529 1.393 . S
C526 H518 0.950 . S
C526 C524 1.391 . S
C526 C527 1.400 . S
C527 C526 1.400 . S
C527 C528 1.398 . S
C527 C533 1.491 . S
C528 H519 0.950 . S
C528 C527 1.398 . S
C528 C529 1.391 . S
C529 H517 0.950 1_556 S
C529 C525 1.393 . S
C529 C528 1.391 . S
C530 H520 0.950 . S
C530 C531 1.386 . S
C530 C532 1.391 . S
C531 C530 1.386 . S
C531 C535 1.393 . S
C532 H521 0.950 . S
C532 C530 1.391 . S
C532 C533 1.400 . S
C533 C527 1.491 . S
C533 C532 1.400 . S
C533 C534 1.398 . S
C534 H522 0.950 . S
C534 C533 1.398 . S
C534 C535 1.391 . S
C535 H523 0.950 . S
C535 C531 1.393 . S
C535 C534 1.391 . S
H536 C544 0.950 . S
H537 C549 0.950 . S
H538 C546 0.950 . S
H539 C548 0.950 . S
H540 C550 0.950 . S
H541 C552 0.950 . S
H542 C554 0.950 . S
H543 C555 0.950 . S
C544 H536 0.950 . S
C544 C545 1.386 . S
C544 C546 1.391 . S
C545 C544 1.386 . S
C545 C549 1.393 . S
C546 H538 0.950 . S
C546 C544 1.391 . S
C546 C547 1.400 . S
C547 C546 1.400 . S
C547 C548 1.398 . S
C547 C553 1.491 . S
C548 H539 0.950 . S
C548 C547 1.398 . S
C548 C549 1.391 . S
C549 H537 0.950 . S
C549 C545 1.393 . S
C549 C548 1.391 . S
C550 H540 0.950 . S
C550 C551 1.386 . S
C550 C552 1.391 1_655 S
C551 C550 1.386 . S
C551 C555 1.393 1_655 S
C552 H541 0.950 . S
C552 C550 1.391 1_455 S
C552 C553 1.400 . S
C553 C547 1.491 . S
C553 C552 1.400 . S
C553 C554 1.398 . S
C554 H542 0.950 . S
C554 C553 1.398 . S
C554 C555 1.391 . S
C555 H543 0.950 . S
C555 C551 1.393 1_455 S
C555 C554 1.391 . S
H556 C564 0.950 . S
H557 C569 0.950 . S
H558 C566 0.950 . S
H559 C568 0.950 . S
H560 C570 0.950 . S
H561 C572 0.950 . S
H562 C574 0.950 . S
H563 C575 0.950 . S
C564 H556 0.950 . S
C564 C565 1.386 . S
C564 C566 1.391 . S
C565 C564 1.386 . S
C565 C569 1.393 . S
C566 H558 0.950 . S
C566 C564 1.391 . S
C566 C567 1.400 . S
C567 C566 1.400 . S
C567 C568 1.398 . S
C567 C573 1.491 . S
C568 H559 0.950 . S
C568 C567 1.398 . S
C568 C569 1.391 . S
C569 H557 0.950 . S
C569 C565 1.393 . S
C569 C568 1.391 . S
C570 H560 0.950 . S
C570 C571 1.386 1_545 S
C570 C572 1.391 . S
C571 C570 1.386 1_565 S
C571 C575 1.393 . S
C572 H561 0.950 . S
C572 C570 1.391 . S
C572 C573 1.400 . S
C573 C567 1.491 . S
C573 C572 1.400 . S
C573 C574 1.398 . S
C574 H562 0.950 . S
C574 C573 1.398 . S
C574 C575 1.391 1_545 S
C575 H563 0.950 . S
C575 C571 1.393 . S
C575 C574 1.391 1_565 S
H576 C584 0.950 . S
H577 C589 0.950 . S
H578 C586 0.950 . S
H579 C588 0.950 . S
H580 C590 0.950 . S
H581 C592 0.950 . S
H582 C594 0.950 . S
H583 C595 0.950 . S
C584 H576 0.950 . S
C584 C585 1.386 . S
C584 C586 1.391 . S
C585 C584 1.386 . S
C585 C589 1.393 . S
C586 H578 0.950 . S
C586 C584 1.391 . S
C586 C587 1.400 . S
C587 C586 1.400 . S
C587 C588 1.398 . S
C587 C593 1.491 . S
C588 H579 0.950 . S
C588 C587 1.398 . S
C588 C589 1.391 . S
C589 H577 0.950 . S
C589 C585 1.393 . S
C589 C588 1.391 . S
C590 H580 0.950 . S
C590 C591 1.386 . S
C590 C592 1.391 . S
C591 C590 1.386 . S
C591 C595 1.393 . S
C592 H581 0.950 . S
C592 C590 1.391 . S
C592 C593 1.400 . S
C593 C587 1.491 . S
C593 C592 1.400 . S
C593 C594 1.398 . S
C594 H582 0.950 . S
C594 C593 1.398 . S
C594 C595 1.391 . S
C595 H583 0.950 . S
C595 C591 1.393 . S
C595 C594 1.391 . S
H596 C604 0.950 . S
H597 C609 0.950 . S
H598 C606 0.950 . S
H599 C608 0.950 . S
H600 C610 0.950 . S
H601 C612 0.950 . S
H602 C614 0.950 . S
H603 C615 0.950 . S
C604 H596 0.950 . S
C604 C605 1.386 . S
C604 C606 1.391 . S
C605 C604 1.386 . S
C605 C609 1.393 . S
C606 H598 0.950 . S
C606 C604 1.391 . S
C606 C607 1.400 . S
C607 C606 1.400 . S
C607 C608 1.398 . S
C607 C613 1.491 . S
C608 H599 0.950 . S
C608 C607 1.398 . S
C608 C609 1.391 . S
C609 H597 0.950 . S
C609 C605 1.393 . S
C609 C608 1.391 . S
C610 H600 0.950 . S
C610 C611 1.386 . S
C610 C612 1.391 1_455 S
C611 C610 1.386 . S
C611 C615 1.393 . S
C612 H601 0.950 . S
C612 C610 1.391 1_655 S
C612 C613 1.400 . S
C613 C607 1.491 . S
C613 C612 1.400 . S
C613 C614 1.398 . S
C614 H602 0.950 . S
C614 C613 1.398 . S
C614 C615 1.391 1_655 S
C615 H603 0.950 . S
C615 C611 1.393 . S
C615 C614 1.391 1_455 S
H616 C624 0.950 . S
H617 C629 0.950 . S
H618 C626 0.950 . S
H619 C628 0.950 . S
H620 C630 0.950 1_545 S
H621 C632 0.950 . S
H622 C634 0.950 . S
H623 C635 0.950 . S
C624 H616 0.950 . S
C624 C625 1.386 . S
C624 C626 1.391 . S
C625 C624 1.386 . S
C625 C629 1.393 . S
C626 H618 0.950 . S
C626 C624 1.391 . S
C626 C627 1.400 . S
C627 C626 1.400 . S
C627 C628 1.398 . S
C627 C633 1.491 . S
C628 H619 0.950 . S
C628 C627 1.398 . S
C628 C629 1.391 . S
C629 H617 0.950 . S
C629 C625 1.393 . S
C629 C628 1.391 . S
C630 H620 0.950 1_565 S
C630 C631 1.386 1_565 S
C630 C632 1.391 . S
C631 C630 1.386 1_545 S
C631 C635 1.393 . S
C632 H621 0.950 . S
C632 C630 1.391 . S
C632 C633 1.400 . S
C633 C627 1.491 . S
C633 C632 1.400 . S
C633 C634 1.398 . S
C634 H622 0.950 . S
C634 C633 1.398 . S
C634 C635 1.391 1_565 S
C635 H623 0.950 . S
C635 C631 1.393 . S
C635 C634 1.391 1_545 S
H636 C644 0.950 . S
H637 C649 0.950 . S
H638 C646 0.950 . S
H639 C648 0.950 . S
H640 C650 0.950 . S
H641 C652 0.950 . S
H642 C654 0.950 . S
H643 C655 0.950 . S
C644 H636 0.950 . S
C644 C645 1.386 . S
C644 C646 1.391 . S
C645 C644 1.386 . S
C645 C649 1.393 . S
C646 H638 0.950 . S
C646 C644 1.391 . S
C646 C647 1.400 . S
C647 C646 1.400 . S
C647 C648 1.398 . S
C647 C653 1.491 . S
C648 H639 0.950 . S
C648 C647 1.398 . S
C648 C649 1.391 . S
C649 H637 0.950 . S
C649 C645 1.393 . S
C649 C648 1.391 . S
C650 H640 0.950 . S
C650 C651 1.386 . S
C650 C652 1.391 . S
C651 C650 1.386 . S
C651 C655 1.393 . S
C652 H641 0.950 . S
C652 C650 1.391 . S
C652 C653 1.400 . S
C653 C647 1.491 . S
C653 C652 1.400 . S
C653 C654 1.398 . S
C654 H642 0.950 . S
C654 C653 1.398 . S
C654 C655 1.391 . S
C655 H643 0.950 . S
C655 C651 1.393 . S
C655 C654 1.391 . S
H656 C664 0.950 . S
H657 C669 0.950 . S
H658 C666 0.950 . S
H659 C668 0.950 . S
H660 C670 0.950 . S
H661 C672 0.950 . S
H662 C674 0.950 . S
H663 C675 0.950 . S
C664 H656 0.950 . S
C664 C665 1.386 . S
C664 C666 1.391 . S
C665 C664 1.386 . S
C665 C669 1.393 . S
C666 H658 0.950 . S
C666 C664 1.391 . S
C666 C667 1.400 . S
C667 C666 1.400 . S
C667 C668 1.398 . S
C667 C673 1.491 . S
C668 H659 0.950 . S
C668 C667 1.398 . S
C668 C669 1.391 . S
C669 H657 0.950 . S
C669 C665 1.393 . S
C669 C668 1.391 . S
C670 H660 0.950 . S
C670 C671 1.386 . S
C670 C672 1.391 . S
C671 C670 1.386 . S
C671 C675 1.393 . S
C672 H661 0.950 . S
C672 C670 1.391 . S
C672 C673 1.400 . S
C673 C667 1.491 . S
C673 C672 1.400 . S
C673 C674 1.398 . S
C674 H662 0.950 . S
C674 C673 1.398 . S
C674 C675 1.391 . S
C675 H663 0.950 . S
C675 C671 1.393 . S
C675 C674 1.391 . S
H676 C684 0.950 . S
H677 C689 0.950 . S
H678 C686 0.950 . S
H679 C688 0.950 . S
H680 C690 0.950 . S
H681 C692 0.950 . S
H682 C694 0.950 . S
H683 C695 0.950 . S
C684 H676 0.950 . S
C684 C685 1.386 . S
C684 C686 1.391 . S
C685 C684 1.386 . S
C685 C689 1.393 . S
C686 H678 0.950 . S
C686 C684 1.391 . S
C686 C687 1.400 . S
C687 C686 1.400 . S
C687 C688 1.398 . S
C687 C693 1.491 . S
C688 H679 0.950 . S
C688 C687 1.398 . S
C688 C689 1.391 . S
C689 H677 0.950 . S
C689 C685 1.393 . S
C689 C688 1.391 . S
C690 H680 0.950 . S
C690 C691 1.386 . S
C690 C692 1.391 . S
C691 C690 1.386 . S
C691 C695 1.393 . S
C692 H681 0.950 . S
C692 C690 1.391 . S
C692 C693 1.400 . S
C693 C687 1.491 . S
C693 C692 1.400 . S
C693 C694 1.398 . S
C694 H682 0.950 . S
C694 C693 1.398 . S
C694 C695 1.391 . S
C695 H683 0.950 . S
C695 C691 1.393 . S
C695 C694 1.391 . S
H696 C704 0.950 . S
H697 C709 0.950 . S
H698 C706 0.950 . S
H699 C708 0.950 . S
H700 C710 0.950 . S
H701 C712 0.950 . S
H702 C714 0.950 . S
H703 C715 0.950 . S
C704 H696 0.950 . S
C704 C705 1.386 . S
C704 C706 1.391 . S
C705 C704 1.386 . S
C705 C709 1.393 . S
C706 H698 0.950 . S
C706 C704 1.391 . S
C706 C707 1.400 . S
C707 C706 1.400 . S
C707 C708 1.398 . S
C707 C713 1.491 . S
C708 H699 0.950 . S
C708 C707 1.398 . S
C708 C709 1.391 . S
C709 H697 0.950 . S
C709 C705 1.393 . S
C709 C708 1.391 . S
C710 H700 0.950 . S
C710 C711 1.386 . S
C710 C712 1.391 . S
C711 C710 1.386 . S
C711 C715 1.393 . S
C712 H701 0.950 . S
C712 C710 1.391 . S
C712 C713 1.400 . S
C713 C707 1.491 . S
C713 C712 1.400 . S
C713 C714 1.398 . S
C714 H702 0.950 . S
C714 C713 1.398 . S
C714 C715 1.391 . S
C715 H703 0.950 . S
C715 C711 1.393 . S
C715 C714 1.391 . S
H716 C724 0.950 . S
H717 C729 0.950 . S
H718 C726 0.950 . S
H719 C728 0.950 . S
H720 C730 0.950 . S
H721 C732 0.950 . S
H722 C734 0.950 . S
H723 C735 0.950 . S
C724 H716 0.950 . S
C724 C725 1.386 . S
C724 C726 1.391 . S
C725 C724 1.386 . S
C725 C729 1.393 . S
C726 H718 0.950 . S
C726 C724 1.391 . S
C726 C727 1.400 . S
C727 C726 1.400 . S
C727 C728 1.398 . S
C727 C733 1.491 . S
C728 H719 0.950 . S
C728 C727 1.398 . S
C728 C729 1.391 . S
C729 H717 0.950 . S
C729 C725 1.393 . S
C729 C728 1.391 . S
C730 H720 0.950 . S
C730 C731 1.386 . S
C730 C732 1.391 . S
C731 C730 1.386 . S
C731 C735 1.393 . S
C732 H721 0.950 . S
C732 C730 1.391 . S
C732 C733 1.400 . S
C733 C727 1.491 . S
C733 C732 1.400 . S
C733 C734 1.398 . S
C734 H722 0.950 . S
C734 C733 1.398 . S
C734 C735 1.391 . S
C735 H723 0.950 . S
C735 C731 1.393 . S
C735 C734 1.391 . S
H736 C744 0.950 . S
H737 C749 0.950 . S
H738 C746 0.950 . S
H739 C748 0.950 . S
H740 C750 0.950 . S
H741 C752 0.950 . S
H742 C754 0.950 . S
H743 C755 0.950 . S
C744 H736 0.950 . S
C744 C745 1.386 . S
C744 C746 1.391 . S
C745 C744 1.386 . S
C745 C749 1.393 . S
C746 H738 0.950 . S
C746 C744 1.391 . S
C746 C747 1.400 . S
C747 C746 1.400 . S
C747 C748 1.398 . S
C747 C753 1.491 . S
C748 H739 0.950 . S
C748 C747 1.398 . S
C748 C749 1.391 . S
C749 H737 0.950 . S
C749 C745 1.393 . S
C749 C748 1.391 . S
C750 H740 0.950 . S
C750 C751 1.386 . S
C750 C752 1.391 . S
C751 C750 1.386 . S
C751 C755 1.393 . S
C752 H741 0.950 . S
C752 C750 1.391 . S
C752 C753 1.400 . S
C753 C747 1.491 . S
C753 C752 1.400 . S
C753 C754 1.398 . S
C754 H742 0.950 . S
C754 C753 1.398 . S
C754 C755 1.391 . S
C755 H743 0.950 . S
C755 C751 1.393 . S
C755 C754 1.391 . S
H756 C764 0.950 . S
H757 C769 0.950 . S
H758 C766 0.950 . S
H759 C768 0.950 . S
H760 C770 0.950 . S
H761 C772 0.950 . S
H762 C774 0.950 . S
H763 C775 0.950 . S
C764 H756 0.950 . S
C764 C765 1.386 . S
C764 C766 1.391 . S
C765 C764 1.386 . S
C765 C769 1.393 . S
C766 H758 0.950 . S
C766 C764 1.391 . S
C766 C767 1.400 . S
C767 C766 1.400 . S
C767 C768 1.398 . S
C767 C773 1.491 . S
C768 H759 0.950 . S
C768 C767 1.398 . S
C768 C769 1.391 . S
C769 H757 0.950 . S
C769 C765 1.393 . S
C769 C768 1.391 . S
C770 H760 0.950 . S
C770 C771 1.386 . S
C770 C772 1.391 . S
C771 C770 1.386 . S
C771 C775 1.393 . S
C772 H761 0.950 . S
C772 C770 1.391 . S
C772 C773 1.400 . S
C773 C767 1.491 . S
C773 C772 1.400 . S
C773 C774 1.398 . S
C774 H762 0.950 . S
C774 C773 1.398 . S
C774 C775 1.391 . S
C775 H763 0.950 . S
C775 C771 1.393 . S
C775 C774 1.391 . S
H776 C784 0.950 . S
H777 C789 0.950 . S
H778 C786 0.950 . S
H779 C788 0.950 1_655 S
H780 C790 0.950 . S
H781 C792 0.950 . S
H782 C794 0.950 1_455 S
H783 C795 0.950 . S
C784 H776 0.950 . S
C784 C785 1.386 . S
C784 C786 1.391 . S
C785 C784 1.386 . S
C785 C789 1.393 . S
C786 H778 0.950 . S
C786 C784 1.391 . S
C786 C787 1.400 . S
C787 C786 1.400 . S
C787 C788 1.398 . S
C787 C793 1.491 1_455 S
C788 H779 0.950 1_455 S
C788 C787 1.398 . S
C788 C789 1.391 . S
C789 H777 0.950 . S
C789 C785 1.393 . S
C789 C788 1.391 . S
C790 H780 0.950 . S
C790 C791 1.386 . S
C790 C792 1.391 . S
C791 C790 1.386 . S
C791 C795 1.393 . S
C792 H781 0.950 . S
C792 C790 1.391 . S
C792 C793 1.400 . S
C793 C787 1.491 1_655 S
C793 C792 1.400 . S
C793 C794 1.398 . S
C794 H782 0.950 1_655 S
C794 C793 1.398 . S
C794 C795 1.391 . S
C795 H783 0.950 . S
C795 C791 1.393 . S
C795 C794 1.391 . S
H796 C804 0.950 . S
H797 C809 0.950 . S
H798 C806 0.950 . S
H799 C808 0.950 1_545 S
H800 C810 0.950 . S
H801 C812 0.950 . S
H802 C814 0.950 1_565 S
H803 C815 0.950 . S
C804 H796 0.950 . S
C804 C805 1.386 . S
C804 C806 1.391 . S
C805 C804 1.386 . S
C805 C809 1.393 . S
C806 H798 0.950 . S
C806 C804 1.391 . S
C806 C807 1.400 . S
C807 C806 1.400 . S
C807 C808 1.398 . S
C807 C813 1.491 1_565 S
C808 H799 0.950 1_565 S
C808 C807 1.398 . S
C808 C809 1.391 . S
C809 H797 0.950 . S
C809 C805 1.393 . S
C809 C808 1.391 . S
C810 H800 0.950 . S
C810 C811 1.386 . S
C810 C812 1.391 . S
C811 C810 1.386 . S
C811 C815 1.393 . S
C812 H801 0.950 . S
C812 C810 1.391 . S
C812 C813 1.400 . S
C813 C807 1.491 1_545 S
C813 C812 1.400 . S
C813 C814 1.398 . S
C814 H802 0.950 1_545 S
C814 C813 1.398 . S
C814 C815 1.391 . S
C815 H803 0.950 . S
C815 C811 1.393 . S
C815 C814 1.391 . S
H816 C824 0.950 . S
H817 C829 0.950 . S
H818 C826 0.950 . S
H819 C828 0.950 . S
H820 C830 0.950 . S
H821 C832 0.950 . S
H822 C834 0.950 . S
H823 C835 0.950 . S
C824 H816 0.950 . S
C824 C825 1.386 . S
C824 C826 1.391 . S
C825 C824 1.386 . S
C825 C829 1.393 . S
C826 H818 0.950 . S
C826 C824 1.391 . S
C826 C827 1.400 . S
C827 C826 1.400 . S
C827 C828 1.398 . S
C827 C833 1.491 . S
C828 H819 0.950 . S
C828 C827 1.398 . S
C828 C829 1.391 . S
C829 H817 0.950 . S
C829 C825 1.393 . S
C829 C828 1.391 . S
C830 H820 0.950 . S
C830 C831 1.386 . S
C830 C832 1.391 . S
C831 C830 1.386 . S
C831 C835 1.393 . S
C832 H821 0.950 . S
C832 C830 1.391 . S
C832 C833 1.400 . S
C833 C827 1.491 . S
C833 C832 1.400 . S
C833 C834 1.398 . S
C834 H822 0.950 . S
C834 C833 1.398 . S
C834 C835 1.391 . S
C835 H823 0.950 . S
C835 C831 1.393 . S
C835 C834 1.391 . S
H836 C844 0.950 . S
H837 C849 0.950 . S
H838 C846 0.950 . S
H839 C848 0.950 . S
H840 C850 0.950 . S
H841 C852 0.950 . S
H842 C854 0.950 . S
H843 C855 0.950 . S
C844 H836 0.950 . S
C844 C845 1.386 . S
C844 C846 1.391 . S
C845 C844 1.386 . S
C845 C849 1.393 . S
C846 H838 0.950 . S
C846 C844 1.391 . S
C846 C847 1.400 . S
C847 C846 1.400 . S
C847 C848 1.398 1_455 S
C847 C853 1.491 1_455 S
C848 H839 0.950 . S
C848 C847 1.398 1_655 S
C848 C849 1.391 1_655 S
C849 H837 0.950 . S
C849 C845 1.393 . S
C849 C848 1.391 1_455 S
C850 H840 0.950 . S
C850 C851 1.386 . S
C850 C852 1.391 . S
C851 C850 1.386 . S
C851 C855 1.393 . S
C852 H841 0.950 . S
C852 C850 1.391 . S
C852 C853 1.400 . S
C853 C847 1.491 1_655 S
C853 C852 1.400 . S
C853 C854 1.398 1_655 S
C854 H842 0.950 . S
C854 C853 1.398 1_455 S
C854 C855 1.391 1_455 S
C855 H843 0.950 . S
C855 C851 1.393 . S
C855 C854 1.391 1_655 S
H856 C864 0.950 . S
H857 C869 0.950 . S
H858 C866 0.963 . S
H859 C868 0.950 1_556 S
H860 C870 0.950 . S
H861 C872 0.964 . S
H862 C874 0.950 . S
H863 C875 0.950 . S
C864 H856 0.950 . S
C864 C865 1.386 . S
C864 C866 1.379 1_565 S
C865 C864 1.386 . S
C865 C869 1.393 . S
C866 H858 0.963 . S
C866 C864 1.379 1_545 S
C866 C867 1.400 1_545 S
C867 C866 1.400 1_565 S
C867 C868 1.398 . S
C867 C873 1.491 1_564 S
C868 H859 0.950 1_554 S
C868 C867 1.398 . S
C868 C869 1.391 . S
C869 H857 0.950 . S
C869 C865 1.393 . S
C869 C868 1.391 . S
C870 H860 0.950 . S
C870 C871 1.386 . S
C870 C872 1.379 1_545 S
C871 C870 1.386 . S
C871 C875 1.393 . S
C872 H861 0.964 . S
C872 C870 1.379 1_565 S
C872 C873 1.400 1_565 S
C873 C867 1.491 1_546 S
C873 C872 1.400 1_545 S
C873 C874 1.398 . S
C874 H862 0.950 . S
C874 C873 1.398 . S
C874 C875 1.391 . S
C875 H863 0.950 . S
C875 C871 1.393 . S
C875 C874 1.391 . S
H876 C884 0.950 . S
H877 C889 0.950 . S
H878 C886 0.950 . S
H879 C888 0.950 . S
H880 C890 0.950 . S
H881 C892 0.950 . S
H882 C894 0.950 . S
H883 C895 0.950 . S
C884 H876 0.950 . S
C884 C885 1.386 . S
C884 C886 1.391 . S
C885 C884 1.386 . S
C885 C889 1.393 . S
C886 H878 0.950 . S
C886 C884 1.391 . S
C886 C887 1.400 . S
C887 C886 1.400 . S
C887 C888 1.398 . S
C887 C893 1.491 . S
C888 H879 0.950 . S
C888 C887 1.398 . S
C888 C889 1.391 . S
C889 H877 0.950 . S
C889 C885 1.393 . S
C889 C888 1.391 . S
C890 H880 0.950 . S
C890 C891 1.386 . S
C890 C892 1.391 . S
C891 C890 1.386 . S
C891 C895 1.393 . S
C892 H881 0.950 . S
C892 C890 1.391 . S
C892 C893 1.400 . S
C893 C887 1.491 . S
C893 C892 1.400 . S
C893 C894 1.398 . S
C894 H882 0.950 . S
C894 C893 1.398 . S
C894 C895 1.391 . S
C895 H883 0.950 . S
C895 C891 1.393 . S
C895 C894 1.391 . S
H896 C904 0.950 . S
H897 C909 0.950 . S
H898 C906 0.950 . S
H899 C908 0.950 . S
H900 C910 0.950 . S
H901 C912 0.950 . S
H902 C914 0.950 . S
H903 C915 0.950 . S
C904 H896 0.950 . S
C904 C905 1.386 . S
C904 C906 1.391 . S
C905 C904 1.386 . S
C905 C909 1.393 . S
C906 H898 0.950 . S
C906 C904 1.391 . S
C906 C907 1.400 . S
C907 C906 1.400 . S
C907 C908 1.398 . S
C907 C913 1.491 . S
C908 H899 0.950 . S
C908 C907 1.398 . S
C908 C909 1.391 . S
C909 H897 0.950 . S
C909 C905 1.393 . S
C909 C908 1.391 . S
C910 H900 0.950 . S
C910 C911 1.386 . S
C910 C912 1.391 . S
C911 C910 1.386 . S
C911 C915 1.393 . S
C912 H901 0.950 . S
C912 C910 1.391 . S
C912 C913 1.400 . S
C913 C907 1.491 . S
C913 C912 1.400 . S
C913 C914 1.398 . S
C914 H902 0.950 . S
C914 C913 1.398 . S
C914 C915 1.391 . S
C915 H903 0.950 . S
C915 C911 1.393 . S
C915 C914 1.391 . S
H916 C924 0.950 . S
H917 C929 0.950 . S
H918 C926 0.950 . S
H919 C928 0.950 . S
H920 C930 0.950 . S
H921 C932 0.950 . S
H922 C934 0.950 . S
H923 C935 0.950 . S
C924 H916 0.950 . S
C924 C925 1.386 . S
C924 C926 1.391 . S
C925 C924 1.386 . S
C925 C929 1.393 . S
C926 H918 0.950 . S
C926 C924 1.391 . S
C926 C927 1.400 . S
C927 C926 1.400 . S
C927 C928 1.398 . S
C927 C933 1.491 . S
C928 H919 0.950 . S
C928 C927 1.398 . S
C928 C929 1.391 . S
C929 H917 0.950 . S
C929 C925 1.393 . S
C929 C928 1.391 . S
C930 H920 0.950 . S
C930 C931 1.386 . S
C930 C932 1.391 . S
C931 C930 1.386 . S
C931 C935 1.393 . S
C932 H921 0.950 . S
C932 C930 1.391 . S
C932 C933 1.400 . S
C933 C927 1.491 . S
C933 C932 1.400 . S
C933 C934 1.398 . S
C934 H922 0.950 . S
C934 C933 1.398 . S
C934 C935 1.391 . S
C935 H923 0.950 . S
C935 C931 1.393 . S
C935 C934 1.391 . S
H936 C944 0.950 . S
H937 C949 0.950 . S
H938 C946 0.950 . S
H939 C948 0.950 . S
H940 C950 0.950 . S
H941 C952 0.950 . S
H942 C954 0.950 . S
H943 C955 0.950 . S
C944 H936 0.950 . S
C944 C945 1.386 . S
C944 C946 1.391 . S
C945 C944 1.386 . S
C945 C949 1.393 . S
C946 H938 0.950 . S
C946 C944 1.391 . S
C946 C947 1.400 . S
C947 C946 1.400 . S
C947 C948 1.398 . S
C947 C953 1.491 . S
C948 H939 0.950 . S
C948 C947 1.398 . S
C948 C949 1.391 . S
C949 H937 0.950 . S
C949 C945 1.393 . S
C949 C948 1.391 . S
C950 H940 0.950 . S
C950 C951 1.386 . S
C950 C952 1.391 . S
C951 C950 1.386 . S
C951 C955 1.393 . S
C952 H941 0.950 . S
C952 C950 1.391 . S
C952 C953 1.400 . S
C953 C947 1.491 . S
C953 C952 1.400 . S
C953 C954 1.398 . S
C954 H942 0.950 . S
C954 C953 1.398 . S
C954 C955 1.391 . S
C955 H943 0.950 . S
C955 C951 1.393 . S
C955 C954 1.391 . S
H956 C964 0.950 . S
H957 C969 0.950 . S
H958 C966 0.950 . S
H959 C968 0.950 . S
H960 C970 0.950 . S
H961 C972 0.950 . S
H962 C974 0.950 . S
H963 C975 0.950 . S
C964 H956 0.950 . S
C964 C965 1.386 . S
C964 C966 1.391 . S
C965 C964 1.386 . S
C965 C969 1.393 . S
C966 H958 0.950 . S
C966 C964 1.391 . S
C966 C967 1.400 . S
C967 C966 1.400 . S
C967 C968 1.398 . S
C967 C973 1.491 . S
C968 H959 0.950 . S
C968 C967 1.398 . S
C968 C969 1.391 . S
C969 H957 0.950 . S
C969 C965 1.393 . S
C969 C968 1.391 . S
C970 H960 0.950 . S
C970 C971 1.386 . S
C970 C972 1.391 . S
C971 C970 1.386 . S
C971 C975 1.393 . S
C972 H961 0.950 . S
C972 C970 1.391 . S
C972 C973 1.400 . S
C973 C967 1.491 . S
C973 C972 1.400 . S
C973 C974 1.398 . S
C974 H962 0.950 . S
C974 C973 1.398 . S
C974 C975 1.391 . S
C975 H963 0.950 . S
C975 C971 1.393 . S
C975 C974 1.391 . S
H976 C984 0.950 . S
H977 C989 0.950 . S
H978 C986 0.950 . S
H979 C988 0.950 . S
H980 C990 0.950 . S
H981 C992 0.950 . S
H982 C994 0.950 . S
H983 C995 0.950 . S
C984 H976 0.950 . S
C984 C985 1.386 . S
C984 C986 1.391 . S
C985 C984 1.386 . S
C985 C989 1.393 . S
C986 H978 0.950 . S
C986 C984 1.391 . S
C986 C987 1.400 . S
C987 C986 1.400 . S
C987 C988 1.398 . S
C987 C993 1.491 . S
C988 H979 0.950 . S
C988 C987 1.398 . S
C988 C989 1.391 . S
C989 H977 0.950 . S
C989 C985 1.393 . S
C989 C988 1.391 . S
C990 H980 0.950 . S
C990 C991 1.386 . S
C990 C992 1.391 . S
C991 C990 1.386 . S
C991 C995 1.393 . S
C992 H981 0.950 . S
C992 C990 1.391 . S
C992 C993 1.400 . S
C993 C987 1.491 . S
C993 C992 1.400 . S
C993 C994 1.398 . S
C994 H982 0.950 . S
C994 C993 1.398 . S
C994 C995 1.391 . S
C995 H983 0.950 . S
C995 C991 1.393 . S
C995 C994 1.391 . S
C405 C173 1.627 . S
C411 N5 1.716 . S
C425 C8 1.628 . S
C431 N38 1.716 . S
C445 C41 1.635 . S
C451 N71 1.717 . S
C465 N104 1.719 . S
C471 C74 1.650 . S
C485 N137 1.719 . S
C491 C107 1.650 . S
C505 C140 1.626 . S
C511 N170 1.716 . S
C525 C239 1.643 . S
C531 N203 1.718 . S
C545 C272 1.644 . S
C551 N236 1.718 . S
C565 C305 1.646 . S
C571 N269 1.719 . S
C585 C338 1.627 . S
C591 N302 1.716 . S
C605 C371 1.650 . S
C611 N335 1.719 . S
C625 C206 1.647 . S
C631 N368 1.719 . S
C645 N278 1.305 . S
C651 N14 1.286 . S
C665 N47 1.285 . S
C671 N311 1.310 . S
C685 N80 1.285 . S
C691 N344 1.309 . S
C705 N113 1.287 . S
C711 N377 1.313 . S
C725 N146 1.307 . S
C731 N212 1.286 . S
C745 N245 1.312 . S
C751 N179 1.286 . S
C765 C314 1.087 . S
C771 C17 1.091 . S
C785 C347 1.085 . S
C791 C50 1.092 . S
C805 C83 1.087 . S
C811 C380 1.090 . S
C825 C116 1.084 . S
C831 C215 1.092 . S
C845 C149 1.083 . S
C851 C248 1.094 . S
C865 C281 1.093 . S
C871 C182 1.084 . S
C885 C28 0.906 . S
C891 C226 0.900 . S
C905 C259 0.928 . S
C911 C61 0.932 . S
C925 C94 0.896 . S
C931 C292 0.901 . S
C945 C325 0.899 . S
C951 C127 0.895 . S
C965 C358 0.908 . S
C971 C160 0.916 . S
C985 C391 0.920 . S
C991 C193 0.913 . S
