# Generated by pormake.
# Topology sod, (4)-cn, num edge types: 1
# Building blocks:
#     Node 0, Type 0, BuildingBlock: TATPOV_clean_sbu_0, # of connection points: 4
#     Node 1, Type 0, BuildingBlock: TATPOV_clean_sbu_0, # of connection points: 4
#     Node 2, Type 0, BuildingBlock: TATPOV_clean_sbu_0, # of connection points: 4
#     Node 3, Type 0, BuildingBlock: TATPOV_clean_sbu_0, # of connection points: 4
#     Node 4, Type 0, BuildingBlock: TATPOV_clean_sbu_0, # of connection points: 4
#     Node 5, Type 0, BuildingBlock: TATPOV_clean_sbu_0, # of connection points: 4
#     Node 6, Type 0, BuildingBlock: TATPOV_clean_sbu_0, # of connection points: 4
#     Node 7, Type 0, BuildingBlock: TATPOV_clean_sbu_0, # of connection points: 4
#     Node 8, Type 0, BuildingBlock: TATPOV_clean_sbu_0, # of connection points: 4
#     Node 9, Type 0, BuildingBlock: TATPOV_clean_sbu_0, # of connection points: 4
#     Node 10, Type 0, BuildingBlock: TATPOV_clean_sbu_0, # of connection points: 4
#     Node 11, Type 0, BuildingBlock: TATPOV_clean_sbu_0, # of connection points: 4
#     Edge 12, Type (0, 0), BuildingBlock: CIFDUS_clean_linker_0, # of connection points: 2
#     Edge 13, Type (0, 0), BuildingBlock: CIFDUS_clean_linker_0, # of connection points: 2
#     Edge 14, Type (0, 0), BuildingBlock: CIFDUS_clean_linker_0, # of connection points: 2
#     Edge 15, Type (0, 0), BuildingBlock: CIFDUS_clean_linker_0, # of connection points: 2
#     Edge 16, Type (0, 0), BuildingBlock: CIFDUS_clean_linker_0, # of connection points: 2
#     Edge 17, Type (0, 0), BuildingBlock: CIFDUS_clean_linker_0, # of connection points: 2
#     Edge 18, Type (0, 0), BuildingBlock: CIFDUS_clean_linker_0, # of connection points: 2
#     Edge 19, Type (0, 0), BuildingBlock: CIFDUS_clean_linker_0, # of connection points: 2
#     Edge 20, Type (0, 0), BuildingBlock: CIFDUS_clean_linker_0, # of connection points: 2
#     Edge 21, Type (0, 0), BuildingBlock: CIFDUS_clean_linker_0, # of connection points: 2
#     Edge 22, Type (0, 0), BuildingBlock: CIFDUS_clean_linker_0, # of connection points: 2
#     Edge 23, Type (0, 0), BuildingBlock: CIFDUS_clean_linker_0, # of connection points: 2
#     Edge 24, Type (0, 0), BuildingBlock: CIFDUS_clean_linker_0, # of connection points: 2
#     Edge 25, Type (0, 0), BuildingBlock: CIFDUS_clean_linker_0, # of connection points: 2
#     Edge 26, Type (0, 0), BuildingBlock: CIFDUS_clean_linker_0, # of connection points: 2
#     Edge 27, Type (0, 0), BuildingBlock: CIFDUS_clean_linker_0, # of connection points: 2
#     Edge 28, Type (0, 0), BuildingBlock: CIFDUS_clean_linker_0, # of connection points: 2
#     Edge 29, Type (0, 0), BuildingBlock: CIFDUS_clean_linker_0, # of connection points: 2
#     Edge 30, Type (0, 0), BuildingBlock: CIFDUS_clean_linker_0, # of connection points: 2
#     Edge 31, Type (0, 0), BuildingBlock: CIFDUS_clean_linker_0, # of connection points: 2
#     Edge 32, Type (0, 0), BuildingBlock: CIFDUS_clean_linker_0, # of connection points: 2
#     Edge 33, Type (0, 0), BuildingBlock: CIFDUS_clean_linker_0, # of connection points: 2
#     Edge 34, Type (0, 0), BuildingBlock: CIFDUS_clean_linker_0, # of connection points: 2
#     Edge 35, Type (0, 0), BuildingBlock: CIFDUS_clean_linker_0, # of connection points: 2
# Relax obj value: 0.090
# Max RMSD: 0.145
# Mean RMSD: 0.125
data_MOF--net-sod--node1-TATPOV_clean_sbu_0--edge1-CIFDUS_clean_linker_0
_symmetry_space_group_name_H-M    P1
_symmetry_Int_Tables_number       1
_symmetry_cell_setting            triclinic
loop_
_symmetry_equiv_pos_as_xyz
'x, y, z'
_cell_length_a     36.438999
_cell_length_b     36.796068
_cell_length_c     37.847696
_cell_angle_alpha  90.18354
_cell_angle_beta   90.672386
_cell_angle_gamma 92.448742
loop_
_atom_site_label
_atom_site_type_symbol
_atom_site_fract_x
_atom_site_fract_y
_atom_site_fract_z
_atom_type_partial_charge
Zn0 Zn 0.9835 0.24094 0.44726 0.0
Zn1 Zn 0.97505 0.27328 0.5106 0.0
O2 O 0.02502 0.25026 0.51486 0.0
O3 O 0.03364 0.22536 0.46283 0.0
O4 O 0.96925 0.29936 0.55755 0.0
O5 O 0.97769 0.28797 0.42216 0.0
O6 O 0.97153 0.31476 0.47369 0.0
C7 C 0.04467 0.23221 0.4941 0.0
C8 C 0.92361 0.20918 0.48709 0.0
O9 O 0.93396 0.23296 0.51014 0.0
O10 O 0.93954 0.20798 0.45757 0.0
C11 C -0.0034 0.30996 0.57677 0.0
O12 O 0.02996 0.30376 0.56617 0.0
C13 C 0.97297 0.31644 0.44005 0.0
Zn14 Zn 0.82008 0.94664 0.53567 0.0
Zn15 Zn 0.78141 0.94518 0.47432 0.0
O16 O 0.81862 0.9057 0.46454 0.0
O17 O 0.85006 0.9079 0.51482 0.0
O18 O 0.75157 0.95081 0.42949 0.0
O19 O 0.77535 0.93128 0.56242 0.0
O20 O 0.74287 0.93397 0.51307 0.0
C21 C 0.84428 0.89445 0.48433 0.0
C22 C 0.82391 0.01494 0.50065 0.0
O23 O 0.80517 0.99648 0.47778 0.0
O24 O 0.83364 0.00028 0.5293 0.0
C25 C 0.72632 0.93043 0.41546 0.0
O26 O 0.71725 0.89903 0.43007 0.0
C27 C 0.74473 0.92861 0.54635 0.0
Zn28 Zn 0.08944 0.76726 0.45991 0.0
Zn29 Zn 0.07515 0.73165 0.52087 0.0
O30 O 0.02792 0.75504 0.50552 0.0
O31 O 0.03695 0.78304 0.45499 0.0
O32 O 0.05666 0.70664 0.56471 0.0
O33 O 0.10416 0.72029 0.43946 0.0
O34 O 0.08996 0.6901 0.48795 0.0
C35 C 0.01583 0.77367 0.47998 0.0
C36 C 0.13329 0.79355 0.51951 0.0
O37 O 0.11566 0.76911 0.53703 0.0
O38 O 0.12686 0.79763 0.48685 0.0
C39 C 0.0729 0.69422 0.59169 0.0
O40 O 0.10894 0.69633 0.5938 0.0
C41 C 0.1014 0.69064 0.45625 0.0
Zn42 Zn 0.23157 0.0501 0.59315 0.0
Zn43 Zn 0.27083 0.05368 0.53058 0.0
O44 O 0.23013 0.08848 0.52088 0.0
O45 O 0.20055 0.08916 0.57139 0.0
O46 O 0.30262 0.05659 0.48714 0.0
O47 O 0.27789 0.06462 0.62025 0.0
O48 O 0.30662 0.0706 0.56946 0.0
C49 C 0.20488 0.10054 0.54006 0.0
C50 C 0.23444 0.98163 0.55578 0.0
O51 O 0.25376 0.00047 0.53415 0.0
O52 O 0.22095 0.9965 0.58265 0.0
C53 C 0.30197 0.0346 0.46107 0.0
O54 O 0.27797 0.00693 0.46042 0.0
C55 C 0.30654 0.07304 0.60301 0.0
Zn56 Zn 0.52178 0.05678 0.28751 0.0
Zn57 Zn 0.49731 0.00518 0.24544 0.0
O58 O 0.45409 0.00733 0.28105 0.0
O59 O 0.47677 0.0501 0.31688 0.0
O60 O 0.482 0.96575 0.20942 0.0
O61 O 0.52313 0.09481 0.25074 0.0
O62 O 0.5039 0.05185 0.2136 0.0
C63 C 0.45113 0.02729 0.30849 0.0
C64 C 0.56938 -0.00118 0.28955 0.0
O65 O 0.54442 0.98473 0.26916 0.0
O66 O 0.56717 0.03123 0.30024 0.0
C67 C 0.48128 0.93218 0.21751 0.0
O68 O 0.48913 0.92307 0.25019 0.0
C69 C 0.51371 0.08509 0.21979 0.0
Zn70 Zn 0.03512 0.59021 0.21753 0.0
Zn71 Zn 0.01264 0.5299 0.25111 0.0
O72 O 0.04042 0.51004 0.20885 0.0
O73 O 0.05133 0.55944 0.17722 0.0
O74 O -0.0042 0.48485 0.27721 0.0
O75 O 0.06995 0.60272 0.258 0.0
O76 O 0.04566 0.55653 0.28762 0.0
C77 C 0.05229 0.52533 0.18083 0.0
C78 C 0.95781 0.58529 0.22438 0.0
O79 O 0.96503 0.5544 0.23729 0.0
O80 O 0.98366 0.60753 0.21594 0.0
C81 C 0.98719 0.48577 0.30966 0.0
O82 O 0.98788 0.5172 0.32629 0.0
C83 C 0.06788 0.58405 0.286 0.0
Zn84 Zn 0.57443 0.0774 0.69012 0.0
Zn85 Zn 0.55859 0.02086 0.73201 0.0
O86 O 0.58589 0.99645 0.69125 0.0
O87 O 0.59324 0.04272 0.65469 0.0
O88 O 0.54789 0.98192 0.76828 0.0
O89 O 0.60673 0.1026 0.72686 0.0
O90 O 0.58664 0.0591 0.76216 0.0
C91 C 0.59586 0.00927 0.66141 0.0
C92 C 0.49741 0.06499 0.70033 0.0
O93 O 0.50781 0.03727 0.71717 0.0
O94 O 0.52084 0.08753 0.68756 0.0
C95 C 0.52062 0.95929 0.76608 0.0
O96 O 0.49924 0.95938 0.73788 0.0
C97 C 0.60453 0.08914 0.75751 0.0
Zn98 Zn 0.91262 0.51756 0.74257 0.0
Zn99 Zn 0.96766 0.50028 0.78444 0.0
O100 O 0.98906 0.54508 0.75768 0.0
O101 O 0.94299 0.5598 0.72332 0.0
O102 O 0.00924 0.48803 0.81809 0.0
O103 O 0.87882 0.52401 0.7828 0.0
O104 O 0.92382 0.50941 0.8186 0.0
C105 C 0.97583 0.5654 0.73392 0.0
C106 C 0.93863 0.44751 0.72593 0.0
O107 O 0.96179 0.45558 0.75063 0.0
O108 O 0.91369 0.46913 0.7182 0.0
C109 C 0.04279 0.49061 0.80898 0.0
O110 O 0.05074 0.50043 0.77651 0.0
C111 C 0.89065 0.51849 0.81378 0.0
Zn112 Zn 0.28946 0.46018 0.06364 0.0
Zn113 Zn 0.2511 0.4633 0.00225 0.0
O114 O 0.28447 0.41991 0.9932 0.0
O115 O 0.31433 0.41709 0.04413 0.0
O116 O 0.21624 0.46496 0.96016 0.0
O117 O 0.24435 0.45075 0.09219 0.0
O118 O 0.21363 0.45641 0.04224 0.0
C119 C 0.30762 0.40481 0.01335 0.0
C120 C 0.29976 0.52898 0.02656 0.0
O121 O 0.27865 0.51353 0.00336 0.0
O122 O 0.30817 0.51208 0.05445 0.0
C123 C 0.2239 0.47664 0.92943 0.0
O124 O 0.25776 0.48797 0.92262 0.0
C125 C 0.21412 0.45124 0.07552 0.0
Zn126 Zn 0.54393 0.28992 0.92603 0.0
Zn127 Zn 0.52817 0.24528 0.98089 0.0
O128 O 0.47863 0.26742 0.96909 0.0
O129 O 0.4902 0.30178 0.92265 0.0
O130 O 0.51702 0.20799 0.01881 0.0
O131 O 0.56478 0.24947 0.89846 0.0
O132 O 0.55086 0.21334 0.94299 0.0
C133 C 0.46781 0.28923 0.94538 0.0
C134 C 0.58171 0.31047 0.99123 0.0
O135 O 0.56417 0.28301 0.00412 0.0
O136 O 0.57787 0.31861 0.95895 0.0
C137 C 0.51596 0.21613 0.0514 0.0
O138 O 0.52082 0.25036 0.061 0.0
C139 C 0.56462 0.21834 0.91254 0.0
Zn140 Zn 0.69027 0.54622 0.10985 0.0
Zn141 Zn 0.74334 0.55111 0.05775 0.0
O142 O 0.70895 0.59021 0.04219 0.0
O143 O 0.66827 0.58976 0.08494 0.0
O144 O 0.78318 0.55085 0.02083 0.0
O145 O 0.73046 0.55354 0.14697 0.0
O146 O 0.7706 0.56187 0.10415 0.0
C147 C 0.6805 0.60278 0.05615 0.0
C148 C 0.69401 0.48159 0.06732 0.0
O149 O 0.71975 0.50026 0.05267 0.0
O150 O 0.67651 0.49489 0.09269 0.0
C151 C 0.77328 0.54392 0.98911 0.0
O152 O 0.73806 0.53885 0.9819 0.0
C153 C 0.76287 0.56116 0.13688 0.0
Zn154 Zn 0.47233 0.72721 0.92268 0.0
Zn155 Zn 0.45858 0.77199 0.97667 0.0
O156 O 0.50626 0.74868 0.99206 0.0
O157 O 0.51993 0.71426 0.94681 0.0
O158 O 0.45129 0.80887 0.01614 0.0
O159 O 0.47091 0.76692 0.88726 0.0
O160 O 0.46277 0.80471 0.93157 0.0
C161 C 0.52746 0.72663 0.97744 0.0
C162 C 0.40598 0.70636 0.95914 0.0
O163 O 0.4147 0.73371 0.9789 0.0
O164 O 0.42574 0.69861 0.93314 0.0
C165 C 0.45573 0.80096 0.04861 0.0
O166 O 0.46289 0.76736 0.05705 0.0
C167 C 0.46693 0.79882 0.89859 0.0
H168 H 0.96968 0.32689 0.36938 0.0
H169 H 0.97192 0.38518 0.46862 0.0
H170 H 0.97401 0.44307 0.43682 0.0
H171 H 0.97931 0.47685 0.38076 0.0
H172 H 0.97852 0.41744 0.28211 0.0
H173 H 0.97161 0.36018 0.31393 0.0
C174 C 0.97042 0.3522 0.3842 0.0
C175 C 0.97097 0.35165 0.42137 0.0
C176 C 0.97203 0.38519 0.36583 0.0
C177 C 0.97157 0.38478 0.44 0.0
C178 C 0.97287 0.41789 0.42183 0.0
C179 C 0.97726 0.4514 0.36621 0.0
C180 C 0.9797 0.45147 0.32909 0.0
C181 C 0.97371 0.4184 0.38473 0.0
C182 C 0.97698 0.41822 0.31066 0.0
C183 C 0.97304 0.38542 0.32883 0.0
H184 H 0.66738 0.89735 0.38039 0.0
H185 H 0.736 0.99608 0.38328 0.0
H186 H 0.69566 0.02409 0.34076 0.0
H187 H 0.63734 0.02356 0.30845 0.0
H188 H 0.56783 0.92586 0.30443 0.0
H189 H 0.61239 0.89424 0.34099 0.0
C190 C 0.67378 0.92479 0.37133 0.0
C191 C 0.70438 0.94473 0.38566 0.0
C192 C 0.65024 0.94102 0.34672 0.0
C193 C 0.71246 0.98014 0.37319 0.0
C194 C 0.68937 0.99629 0.34881 0.0
C195 C 0.63227 0.99511 0.31501 0.0
C196 C 0.59923 0.97717 0.30417 0.0
C197 C 0.65766 0.97742 0.33627 0.0
C198 C 0.59316 0.94022 0.31243 0.0
C199 C 0.61847 0.92227 0.33362 0.0
H200 H 0.05338 0.56745 0.35454 0.0
H201 H 0.12893 0.62909 0.28845 0.0
H202 H 0.15432 0.6613 0.34012 0.0
H203 H 0.1449 0.68138 0.40053 0.0
H204 H 0.06482 0.6249 0.46558 0.0
H205 H 0.05252 0.58014 0.4185 0.0
C206 C 0.07607 0.58723 0.35162 0.0
C207 C 0.0886 0.59669 0.31771 0.0
C208 C 0.08959 0.60668 0.38131 0.0
C209 C 0.11825 0.62203 0.31425 0.0
C210 C 0.13282 0.64042 0.34377 0.0
C211 C 0.12565 0.65852 0.4048 0.0
C212 C 0.10504 0.65687 0.43589 0.0
C213 C 0.1172 0.63443 0.37699 0.0
C214 C 0.0808 0.62684 0.44165 0.0
C215 C 0.07337 0.60158 0.41452 0.0
H216 H 0.31319 0.99001 0.4043 0.0
H217 H 0.35311 0.09006 0.45427 0.0
H218 H 0.40112 0.097 0.41047 0.0
H219 H 0.43345 0.07392 0.36005 0.0
H220 H 0.39555 0.97389 0.30916 0.0
H221 H 0.34478 0.96793 0.35111 0.0
C222 C 0.33225 0.01344 0.40545 0.0
C223 C 0.32958 0.03935 0.43277 0.0
C224 C 0.36018 0.01727 0.38011 0.0
C225 C 0.35451 0.06958 0.43376 0.0
C226 C 0.38206 0.07361 0.40869 0.0
C227 C 0.41411 0.05075 0.35792 0.0
C228 C 0.41855 0.0242 0.33163 0.0
C229 C 0.3854 0.04745 0.38209 0.0
C230 C 0.39284 0.9947 0.32915 0.0
C231 C 0.36388 0.99125 0.35321 0.0
H232 H 0.95422 0.61597 0.68732 0.0
H233 H 0.05088 0.57609 0.73857 0.0
H234 H 0.08998 0.61464 0.7006 0.0
H235 H 0.09648 0.65527 0.64875 0.0
H236 H -0.00135 0.69289 0.59741 0.0
H237 H 0.96044 0.65956 0.63947 0.0
C238 C 0.98384 0.61594 0.69056 0.0
C239 C -0.00045 0.59285 0.71551 0.0
C240 C 0.00604 0.6375 0.66826 0.0
C241 C 0.03801 0.59355 0.71953 0.0
C242 C 0.0604 0.61543 0.69765 0.0
C243 C 0.06683 0.65643 0.64701 0.0
C244 C 0.05055 0.6762 0.6196 0.0
C245 C 0.04472 0.6368 0.67126 0.0
C246 C 0.01204 0.67757 0.61789 0.0
C247 C 0.99005 0.65855 0.642 0.0
H248 H 0.46885 0.1078 0.65026 0.0
H249 H 0.43814 0.03037 0.7313 0.0
H250 H 0.3741 0.03058 0.71118 0.0
H251 H 0.32881 0.04695 0.66592 0.0
H252 H 0.36184 0.119 0.5813 0.0
H253 H 0.42314 0.12717 0.60774 0.0
C254 C 0.44809 0.09144 0.66398 0.0
C255 C 0.45819 0.0689 0.69204 0.0
C256 C 0.41185 0.09059 0.65143 0.0
C257 C 0.431 0.04774 0.70943 0.0
C258 C 0.39445 0.04781 0.69792 0.0
C259 C 0.34927 0.06503 0.65378 0.0
C260 C 0.34113 0.08232 0.62179 0.0
C261 C 0.38482 0.06827 0.66826 0.0
C262 C 0.36779 0.10531 0.60589 0.0
C263 C 0.40275 0.10991 0.62093 0.0
H264 H 0.93209 0.3313 0.60411 0.0
H265 H 0.04918 0.33627 0.62341 0.0
H266 H 0.04113 0.37555 0.67457 0.0
H267 H 0.0014 0.41333 0.71046 0.0
H268 H 0.88477 0.4103 0.68907 0.0
H269 H 0.89202 0.36504 0.64272 0.0
C270 C 0.95584 0.34066 0.61968 0.0
C271 C 0.9912 0.33114 0.6096 0.0
C272 C 0.9511 0.36366 0.64884 0.0
C273 C 0.02163 0.3434 0.63029 0.0
C274 C 0.01708 0.36589 0.65964 0.0
C275 C 0.97751 0.40209 0.69621 0.0
C276 C 0.94263 0.41521 0.70313 0.0
C277 C 0.98202 0.37683 0.66874 0.0
C278 C 0.91195 0.40073 0.68413 0.0
C279 C 0.91608 0.37496 0.6575 0.0
H280 H 0.64017 0.9524 0.6711 0.0
H281 H 0.58726 0.01521 0.59077 0.0
H282 H 0.6237 0.98746 0.54519 0.0
H283 H 0.67889 0.95568 0.53029 0.0
H284 H 0.73638 0.89789 0.61132 0.0
H285 H 0.68945 0.91217 0.65413 0.0
C286 C 0.63599 0.95911 0.6435 0.0
C287 C 0.61173 0.98618 0.63425 0.0
C288 C 0.65816 0.94415 0.61754 0.0
C289 C 0.60639 0.99482 0.59846 0.0
C290 C 0.62719 0.97899 0.57239 0.0
C291 C 0.6804 0.94509 0.55697 0.0
C292 C 0.71126 0.92636 0.56784 0.0
C293 C 0.65446 0.95509 0.58185 0.0
C294 C 0.71299 0.91282 0.60251 0.0
C295 C 0.68633 0.92121 0.62707 0.0
H296 H 0.41983 0.28256 0.99948 0.0
H297 H 0.43339 0.33138 0.89668 0.0
H298 H 0.37995 0.36785 0.90637 0.0
H299 H 0.33587 0.3931 0.94811 0.0
H300 H 0.32659 0.34727 0.05249 0.0
H301 H 0.37126 0.30221 0.03801 0.0
C302 C 0.41062 0.3005 0.97881 0.0
C303 C 0.43097 0.30461 0.94766 0.0
C304 C 0.38074 0.32237 0.98506 0.0
C305 C 0.4185 0.32797 0.92113 0.0
C306 C 0.38799 0.34899 0.9267 0.0
C307 C 0.34298 0.37258 0.96723 0.0
C308 C 0.32833 0.3736 0.00136 0.0
C309 C 0.36985 0.34755 0.95917 0.0
C310 C 0.33789 0.34715 0.02613 0.0
C311 C 0.36347 0.32144 0.01791 0.0
H312 H 0.29931 0.56899 0.96591 0.0
H313 H 0.3357 0.5732 0.07486 0.0
H314 H 0.36657 0.63231 0.06501 0.0
H315 H 0.38935 0.67956 0.02385 0.0
H316 H 0.35705 0.67285 0.91409 0.0
H317 H 0.31783 0.6188 0.92594 0.0
C318 C 0.3136 0.58303 0.98761 0.0
C319 C 0.31551 0.56637 0.02094 0.0
C320 C 0.33199 0.61682 0.98162 0.0
C321 C 0.33414 0.58508 0.04877 0.0
C322 C 0.35176 0.61901 0.04322 0.0
C323 C 0.37276 0.66687 0.00285 0.0
C324 C 0.37577 0.68021 0.96825 0.0
C325 C 0.35165 0.63476 0.00956 0.0
C326 C 0.3549 0.66309 0.941 0.0
C327 C 0.33276 0.63201 0.9477 0.0
H328 H 0.64209 0.3495 0.9718 0.0
H329 H 0.57259 0.32653 0.06109 0.0
H330 H 0.60401 0.37611 0.09453 0.0
H331 H 0.64605 0.43057 0.09511 0.0
H332 H 0.71553 0.4523 0.00521 0.0
H333 H 0.68952 0.39832 0.97543 0.0
C334 C 0.63424 0.35502 0.99881 0.0
C335 C 0.60482 0.33494 0.01387 0.0
C336 C 0.65217 0.3835 0.01759 0.0
C337 C 0.5952 0.34177 0.04901 0.0
C338 C 0.61296 0.37025 0.06798 0.0
C339 C 0.65584 0.4232 0.06922 0.0
C340 C 0.68221 0.44584 0.05218 0.0
C341 C 0.64067 0.39205 0.05207 0.0
C342 C 0.69505 0.43559 0.01886 0.0
C343 C 0.68012 0.40475 0.0017 0.0
H344 H 0.63169 0.64876 0.08356 0.0
H345 H 0.6822 0.61831 0.98584 0.0
H346 H 0.64128 0.65699 0.95287 0.0
H347 H 0.58693 0.6942 0.95128 0.0
H348 H 0.53725 0.72588 0.04899 0.0
H349 H 0.58243 0.69245 0.08249 0.0
C350 C 0.63401 0.65097 0.05509 0.0
C351 C 0.65954 0.6303 0.03713 0.0
C352 C 0.61047 0.67334 0.03627 0.0
C353 C 0.66269 0.63385 1.00031 0.0
C354 C 0.63919 0.65584 0.98139 0.0
C355 C 0.58634 0.69421 0.97993 0.0
C356 C 0.55849 0.71203 0.99759 0.0
C357 C 0.61234 0.67491 0.99901 0.0
C358 C 0.55836 0.7123 0.03474 0.0
C359 C 0.58405 0.693 0.05392 0.0
H360 H 0.50557 0.86341 0.90412 0.0
H361 H 0.43302 0.80005 0.83485 0.0
H362 H 0.44171 0.84515 0.7881 0.0
H363 H 0.47318 0.90031 0.76555 0.0
H364 H 0.54965 0.96154 0.83302 0.0
H365 H 0.53651 0.91961 0.88161 0.0
C366 C 0.49118 0.86001 0.879 0.0
C367 C 0.46843 0.82881 0.8729 0.0
C368 C 0.49752 0.88534 0.85172 0.0
C369 C 0.45053 0.82407 0.84005 0.0
C370 C 0.45563 0.84971 0.81329 0.0
C371 C 0.48686 0.90459 0.79091 0.0
C372 C 0.51245 0.93392 0.79555 0.0
C373 C 0.47964 0.88006 0.81857 0.0
C374 C 0.53003 0.93899 0.82861 0.0
C375 C 0.52243 0.91511 0.8565 0.0
H376 H 0.15045 0.46199 0.93726 0.0
H377 H 0.23085 0.49714 0.8603 0.0
H378 H 0.18216 0.50343 0.81612 0.0
H379 H 0.11662 0.50055 0.7997 0.0
H380 H 0.03617 0.46659 0.87706 0.0
H381 H 0.08504 0.45819 0.92059 0.0
C382 C 0.15742 0.47087 0.91078 0.0
C383 C 0.19438 0.4791 0.90221 0.0
C384 C 0.12922 0.47473 0.88554 0.0
C385 C 0.20273 0.49066 0.86773 0.0
C386 C 0.17485 0.49428 0.84241 0.0
C387 C 0.10972 0.49114 0.82602 0.0
C388 C 0.07266 0.48426 0.83501 0.0
C389 C 0.13799 0.48664 0.85107 0.0
C390 C 0.06437 0.47217 0.86934 0.0
C391 C 0.09234 0.46736 0.89429 0.0
H392 H 0.587 0.07667 0.82601 0.0
H393 H 0.64357 0.15427 0.75821 0.0
H394 H 0.64067 0.20083 0.80394 0.0
H395 H 0.61089 0.22221 0.85728 0.0
H396 H 0.55105 0.14564 0.92352 0.0
H397 H 0.56648 0.09586 0.88424 0.0
C398 C 0.5997 0.10344 0.82157 0.0
C399 C 0.61451 0.11231 0.78836 0.0
C400 C 0.59646 0.1305 0.84732 0.0
C401 C 0.63139 0.14693 0.78331 0.0
C402 C 0.62946 0.17368 0.80933 0.0
C403 C 0.60164 0.19455 0.86337 0.0
C404 C 0.57899 0.18767 0.89261 0.0
C405 C 0.6101 0.16628 0.84045 0.0
C406 C 0.56805 0.15165 0.90082 0.0
C407 C 0.57684 0.1232 0.87836 0.0
H408 H 0.90662 0.526 0.88485 0.0
H409 H 0.81645 0.51948 0.80964 0.0
H410 H 0.7729 0.52693 0.85685 0.0
H411 H 0.75974 0.53559 0.91907 0.0
H412 H 0.84855 0.54369 0.99544 0.0
H413 H 0.89305 0.53556 0.94834 0.0
C414 C 0.87744 0.52607 0.87889 0.0
C415 C 0.86498 0.52219 0.84364 0.0
C416 C 0.85218 0.53083 0.90635 0.0
C417 C 0.82701 0.52259 0.8364 0.0
C418 C 0.80193 0.52683 0.86342 0.0
C419 C 0.78882 0.53562 0.92553 0.0
C420 C 0.8007 0.5402 0.96077 0.0
C421 C 0.81416 0.53109 0.89842 0.0
C422 C 0.83858 0.5403 0.96851 0.0
C423 C 0.86407 0.53556 0.94158 0.0
H424 H 0.50282 0.07592 0.14813 0.0
H425 H 0.52436 0.15801 0.22851 0.0
H426 H 0.52535 0.20526 0.18401 0.0
H427 H 0.52168 0.22384 0.12248 0.0
H428 H 0.50169 0.14301 0.04089 0.0
H429 H 0.49833 0.09507 0.08553 0.0
C430 C 0.50765 0.10414 0.15585 0.0
C431 C 0.51366 0.11317 0.1917 0.0
C432 C 0.50845 0.13159 0.12991 0.0
C433 C 0.51987 0.15 0.20118 0.0
C434 C 0.52038 0.17723 0.17573 0.0
C435 C 0.51637 0.19578 0.11437 0.0
C436 C 0.51197 0.18712 0.07838 0.0
C437 C 0.51492 0.16837 0.14005 0.0
C438 C 0.50523 0.15051 0.06845 0.0
C439 C 0.50335 0.12303 0.09397 0.0
H440 H 0.89469 0.54771 0.24224 0.0
H441 H 0.93577 0.6393 0.18104 0.0
H442 H 0.87678 0.64224 0.15073 0.0
H443 H 0.81727 0.61269 0.13494 0.0
H444 H 0.77475 0.52258 0.19675 0.0
H445 H 0.83051 0.52524 0.2337 0.0
C446 C 0.89045 0.56881 0.22285 0.0
C447 C 0.91986 0.59263 0.21331 0.0
C448 C 0.85644 0.57027 0.20525 0.0
C449 C 0.91376 0.6203 0.18863 0.0
C450 C 0.88008 0.62191 0.17106 0.0
C451 C 0.82005 0.59414 0.15696 0.0
C452 C 0.79262 0.56711 0.16294 0.0
C453 C 0.85186 0.59604 0.17807 0.0
C454 C 0.79585 0.54351 0.19176 0.0
C455 C 0.82771 0.54493 0.21271 0.0
H456 H 0.46406 0.79264 0.11972 0.0
H457 H 0.44854 0.87433 0.03998 0.0
H458 H 0.45372 0.922 0.08512 0.0
H459 H 0.46545 0.94082 0.14707 0.0
H460 H 0.48104 0.85863 0.22638 0.0
H461 H 0.47294 0.8111 0.18165 0.0
C462 C 0.46156 0.82083 0.11216 0.0
C463 C 0.45607 0.82976 0.07637 0.0
C464 C 0.46474 0.84818 0.13824 0.0
C465 C 0.45279 0.86654 0.06725 0.0
C466 C 0.45585 0.89389 0.09308 0.0
C467 C 0.46686 0.91251 0.15463 0.0
C468 C 0.47406 0.90348 0.19016 0.0
C469 C 0.46226 0.88509 0.12863 0.0
C470 C 0.47566 0.86655 0.19934 0.0
C471 C 0.47106 0.83924 0.17372 0.0
H472 H 0.1506 0.48122 0.05626 0.0
H473 H 0.20122 0.42132 0.1402 0.0
H474 H 0.14974 0.43294 0.17884 0.0
H475 H 0.09681 0.46964 0.19189 0.0
H476 H 0.05107 0.53578 0.10999 0.0
H477 H 0.09355 0.51176 0.06717 0.0
C478 C 0.14984 0.46987 0.08268 0.0
C479 C 0.17974 0.45088 0.09559 0.0
C480 C 0.12115 0.4782 0.10523 0.0
C481 C 0.17859 0.43642 0.1299 0.0
C482 C 0.14925 0.44314 0.15201 0.0
C483 C 0.0955 0.47785 0.16441 0.0
C484 C 0.07125 0.5045 0.15397 0.0
C485 C 0.12129 0.46544 0.14048 0.0
C486 C 0.06987 0.51541 0.11849 0.0
C487 C 0.0942 0.50182 0.0941 0.0
H488 H 0.86642 0.83812 0.52199 0.0
H489 H 0.87843 0.88978 0.42059 0.0
H490 H 0.93167 0.85322 0.4081 0.0
H491 H 0.97984 0.81351 0.43052 0.0
H492 H 0.96666 0.76296 0.53279 0.0
H493 H 0.90857 0.79189 0.54029 0.0
C494 C 0.8802 0.84064 0.49678 0.0
C495 C 0.86906 0.86663 0.47235 0.0
C496 C 0.91085 0.82018 0.49024 0.0
C497 C 0.88665 0.86969 0.43966 0.0
C498 C 0.91725 0.84911 0.43275 0.0
C499 C 0.96397 0.8084 0.45418 0.0
C500 C 0.97806 0.78675 0.48138 0.0
C501 C 0.93047 0.82536 0.45852 0.0
C502 C 0.95684 0.77991 0.51163 0.0
C503 C 0.92356 0.79645 0.51601 0.0
H504 H 0.88488 0.16483 0.4418 0.0
H505 H 0.90413 0.18538 0.55292 0.0
H506 H 0.8726 0.12741 0.56729 0.0
H507 H 0.84645 0.0677 0.54767 0.0
H508 H 0.82713 0.04782 0.43638 0.0
H509 H 0.85189 0.10871 0.42272 0.0
C510 C 0.88156 0.15695 0.46922 0.0
C511 C 0.89724 0.17913 0.49622 0.0
C512 C 0.86397 0.12342 0.47722 0.0
C513 C 0.89231 0.16881 0.53163 0.0
C514 C 0.87461 0.13548 0.53985 0.0
C515 C 0.84742 0.07683 0.52047 0.0
C516 C 0.83559 0.05305 0.49304 0.0
C517 C 0.86152 0.11202 0.51277 0.0
C518 C 0.83632 0.06548 0.45797 0.0
C519 C 0.8505 0.1003 0.45011 0.0
H520 H 0.19117 0.82924 0.49057 0.0
H521 H 0.13029 0.81931 0.5873 0.0
H522 H 0.16028 0.87593 0.6094 0.0
H523 H 0.19574 0.93281 0.59652 0.0
H524 H 0.25454 0.94274 0.49827 0.0
H525 H 0.23342 0.88143 0.48149 0.0
C526 C 0.18512 0.83907 0.51684 0.0
C527 C 0.15819 0.82067 0.53707 0.0
C528 C 0.20151 0.87195 0.52875 0.0
C529 C 0.15095 0.83315 0.57127 0.0
C530 C 0.16776 0.86571 0.58369 0.0
C531 C 0.20433 0.9214 0.57164 0.0
C532 C 0.22592 0.94272 0.54829 0.0
C533 C 0.19176 0.88614 0.56192 0.0
C534 C 0.2374 0.92724 0.51648 0.0
C535 C 0.22538 0.89213 0.50685 0.0
H536 H 0.09534 0.197 0.45638 0.0
H537 H 0.06864 0.22895 0.56262 0.0
H538 H 0.11738 0.19222 0.58613 0.0
H539 H 0.16351 0.14663 0.57686 0.0
H540 H 0.19066 0.11504 0.47071 0.0
H541 H 0.14572 0.15613 0.44683 0.0
C542 C 0.10048 0.19633 0.48466 0.0
C543 C 0.07804 0.21529 0.50771 0.0
C544 C 0.12829 0.17489 0.49804 0.0
C545 C 0.08538 0.2145 0.54425 0.0
C546 C 0.11311 0.19332 0.55776 0.0
C547 C 0.15969 0.14887 0.54849 0.0
C548 C 0.1799 0.12744 0.52559 0.0
C549 C 0.13401 0.17263 0.53496 0.0
C550 C 0.17524 0.13112 0.48889 0.0
C551 C 0.14954 0.15456 0.47522 0.0
loop_
_geom_bond_atom_site_label_1
_geom_bond_atom_site_label_2
_geom_bond_distance
_geom_bond_site_symmetry_2
_ccdc_geom_bond_type
Zn0 O3 2.031 . S
Zn0 O5 2.049 . S
Zn0 O10 2.067 1_455 S
Zn1 O2 1.962 . S
Zn1 O4 1.986 . S
Zn1 O6 1.996 . S
Zn1 O9 1.943 1_455 S
O2 Zn1 1.962 . S
O2 C7 1.254 . S
O3 Zn0 2.031 . S
O3 C7 1.269 . S
O4 Zn1 1.986 . S
O4 C11 1.262 . S
O5 Zn0 2.049 . S
O5 C13 1.260 . S
O6 Zn1 1.996 . S
O6 C13 1.257 . S
C7 O2 1.254 . S
C7 O3 1.269 . S
C8 O9 1.249 . S
C8 O10 1.270 . S
O9 Zn1 1.943 1_655 S
O9 C8 1.249 . S
O10 Zn0 2.067 1_655 S
O10 C8 1.270 . S
C11 O4 1.262 . S
C11 O12 1.232 . S
O12 C11 1.232 . S
C13 O5 1.260 . S
C13 O6 1.257 . S
Zn14 O17 2.031 1_545 S
Zn14 O19 2.049 . S
Zn14 O24 2.067 . S
Zn15 O16 1.962 1_545 S
Zn15 O18 1.986 . S
Zn15 O20 1.996 . S
Zn15 O23 1.943 . S
O16 Zn15 1.962 1_565 S
O16 C21 1.254 . S
O17 Zn14 2.031 1_565 S
O17 C21 1.269 . S
O18 Zn15 1.986 . S
O18 C25 1.262 . S
O19 Zn14 2.049 . S
O19 C27 1.260 . S
O20 Zn15 1.996 . S
O20 C27 1.257 . S
C21 O16 1.254 . S
C21 O17 1.269 . S
C22 O23 1.249 . S
C22 O24 1.270 . S
O23 Zn15 1.943 . S
O23 C22 1.249 . S
O24 Zn14 2.067 . S
O24 C22 1.270 . S
C25 O18 1.262 . S
C25 O26 1.232 . S
O26 C25 1.232 . S
C27 O19 1.260 . S
C27 O20 1.257 . S
Zn28 O31 2.031 1_455 S
Zn28 O33 2.049 . S
Zn28 O38 2.067 . S
Zn29 O30 1.962 1_455 S
Zn29 O32 1.986 . S
Zn29 O34 1.996 . S
Zn29 O37 1.943 . S
O30 Zn29 1.962 1_655 S
O30 C35 1.254 . S
O31 Zn28 2.031 1_655 S
O31 C35 1.269 . S
O32 Zn29 1.986 . S
O32 C39 1.262 . S
O33 Zn28 2.049 . S
O33 C41 1.260 . S
O34 Zn29 1.996 . S
O34 C41 1.257 . S
C35 O30 1.254 . S
C35 O31 1.269 . S
C36 O37 1.249 . S
C36 O38 1.270 . S
O37 Zn29 1.943 . S
O37 C36 1.249 . S
O38 Zn28 2.067 . S
O38 C36 1.270 . S
C39 O32 1.262 . S
C39 O40 1.232 . S
O40 C39 1.232 . S
C41 O33 1.260 . S
C41 O34 1.257 . S
Zn42 O45 2.031 . S
Zn42 O47 2.049 . S
Zn42 O52 2.067 1_545 S
Zn43 O44 1.962 . S
Zn43 O46 1.986 . S
Zn43 O48 1.996 . S
Zn43 O51 1.943 1_545 S
O44 Zn43 1.962 . S
O44 C49 1.254 . S
O45 Zn42 2.031 . S
O45 C49 1.269 . S
O46 Zn43 1.986 . S
O46 C53 1.262 . S
O47 Zn42 2.049 . S
O47 C55 1.260 . S
O48 Zn43 1.996 . S
O48 C55 1.257 . S
C49 O44 1.254 . S
C49 O45 1.269 . S
C50 O51 1.249 . S
C50 O52 1.270 . S
O51 Zn43 1.943 1_565 S
O51 C50 1.249 . S
O52 Zn42 2.067 1_565 S
O52 C50 1.270 . S
C53 O46 1.262 . S
C53 O54 1.232 . S
O54 C53 1.232 . S
C55 O47 1.260 . S
C55 O48 1.257 . S
Zn56 O59 2.031 . S
Zn56 O61 2.049 . S
Zn56 O66 2.067 . S
Zn57 O58 1.962 1_545 S
Zn57 O60 1.986 1_545 S
Zn57 O62 1.996 . S
Zn57 O65 1.943 . S
O58 Zn57 1.962 1_565 S
O58 C63 1.253 1_565 S
O59 Zn56 2.031 . S
O59 C63 1.269 . S
O60 Zn57 1.986 1_565 S
O60 C67 1.262 . S
O61 Zn56 2.049 . S
O61 C69 1.260 . S
O62 Zn57 1.996 . S
O62 C69 1.257 . S
C63 O58 1.253 1_545 S
C63 O59 1.269 . S
C64 O65 1.249 . S
C64 O66 1.270 . S
O65 Zn57 1.943 . S
O65 C64 1.249 . S
O66 Zn56 2.067 . S
O66 C64 1.270 . S
C67 O60 1.262 . S
C67 O68 1.232 . S
O68 C67 1.232 . S
C69 O61 1.260 . S
C69 O62 1.257 . S
Zn70 O73 2.031 . S
Zn70 O75 2.049 . S
Zn70 O80 2.067 1_455 S
Zn71 O72 1.962 . S
Zn71 O74 1.986 . S
Zn71 O76 1.996 . S
Zn71 O79 1.943 1_455 S
O72 Zn71 1.962 . S
O72 C77 1.254 . S
O73 Zn70 2.031 . S
O73 C77 1.269 . S
O74 Zn71 1.986 . S
O74 C81 1.262 . S
O75 Zn70 2.049 . S
O75 C83 1.260 . S
O76 Zn71 1.996 . S
O76 C83 1.257 . S
C77 O72 1.254 . S
C77 O73 1.269 . S
C78 O79 1.249 . S
C78 O80 1.270 . S
O79 Zn71 1.943 1_655 S
O79 C78 1.249 . S
O80 Zn70 2.067 1_655 S
O80 C78 1.270 . S
C81 O74 1.262 . S
C81 O82 1.232 . S
O82 C81 1.232 . S
C83 O75 1.260 . S
C83 O76 1.257 . S
Zn84 O87 2.031 . S
Zn84 O89 2.049 . S
Zn84 O94 2.067 . S
Zn85 O86 1.963 . S
Zn85 O88 1.995 . S
Zn85 O90 1.978 1_565 S
Zn85 O93 1.943 . S
O86 Zn85 1.963 . S
O86 C91 1.254 1_565 S
O87 Zn84 2.031 . S
O87 C91 1.269 . S
O88 Zn85 1.995 . S
O88 C95 1.262 . S
O89 Zn84 2.049 . S
O89 C97 1.260 . S
O90 Zn85 1.978 1_545 S
O90 C97 1.257 . S
C91 O86 1.254 1_545 S
C91 O87 1.269 . S
C92 O93 1.249 1_545 S
C92 O94 1.270 . S
O93 Zn85 1.943 . S
O93 C92 1.249 1_565 S
O94 Zn84 2.067 . S
O94 C92 1.270 . S
C95 O88 1.262 . S
C95 O96 1.232 . S
O96 C95 1.232 . S
C97 O89 1.260 . S
C97 O90 1.257 . S
Zn98 O101 2.031 . S
Zn98 O103 2.049 . S
Zn98 O108 2.067 . S
Zn99 O100 1.962 . S
Zn99 O102 1.986 . S
Zn99 O104 1.996 1_455 S
Zn99 O107 1.943 . S
O100 Zn99 1.962 . S
O100 C105 1.254 . S
O101 Zn98 2.031 . S
O101 C105 1.269 1_655 S
O102 Zn99 1.986 . S
O102 C109 1.262 . S
O103 Zn98 2.049 . S
O103 C111 1.260 . S
O104 Zn99 1.996 1_655 S
O104 C111 1.257 . S
C105 O100 1.254 . S
C105 O101 1.269 1_455 S
C106 O107 1.249 . S
C106 O108 1.270 1_455 S
O107 Zn99 1.943 . S
O107 C106 1.249 . S
O108 Zn98 2.067 . S
O108 C106 1.270 1_655 S
C109 O102 1.262 . S
C109 O110 1.232 . S
O110 C109 1.232 . S
C111 O103 1.260 . S
C111 O104 1.257 . S
Zn112 O115 2.031 . S
Zn112 O117 2.049 . S
Zn112 O122 2.067 . S
Zn113 O114 1.962 . S
Zn113 O116 1.986 . S
Zn113 O118 1.996 1_556 S
Zn113 O121 1.943 . S
O114 Zn113 1.962 . S
O114 C119 1.254 1_556 S
O115 Zn112 2.031 . S
O115 C119 1.269 . S
O116 Zn113 1.986 . S
O116 C123 1.262 . S
O117 Zn112 2.049 . S
O117 C125 1.260 . S
O118 Zn113 1.996 1_554 S
O118 C125 1.257 . S
C119 O114 1.254 1_554 S
C119 O115 1.269 . S
C120 O121 1.249 1_554 S
C120 O122 1.270 . S
O121 Zn113 1.943 . S
O121 C120 1.249 1_556 S
O122 Zn112 2.067 . S
O122 C120 1.270 . S
C123 O116 1.262 . S
C123 O124 1.232 . S
O124 C123 1.232 . S
C125 O117 1.260 . S
C125 O118 1.257 . S
Zn126 O129 2.031 . S
Zn126 O131 2.049 . S
Zn126 O136 2.067 . S
Zn127 O128 1.962 . S
Zn127 O130 1.986 . S
Zn127 O132 1.996 1_554 S
Zn127 O135 1.943 . S
O128 Zn127 1.962 . S
O128 C133 1.254 . S
O129 Zn126 2.031 . S
O129 C133 1.269 1_556 S
O130 Zn127 1.986 . S
O130 C137 1.262 . S
O131 Zn126 2.049 . S
O131 C139 1.260 . S
O132 Zn127 1.996 1_556 S
O132 C139 1.257 . S
C133 O128 1.254 . S
C133 O129 1.269 1_554 S
C134 O135 1.249 1_556 S
C134 O136 1.270 . S
O135 Zn127 1.943 . S
O135 C134 1.249 1_554 S
O136 Zn126 2.067 . S
O136 C134 1.270 . S
C137 O130 1.262 . S
C137 O138 1.232 . S
O138 C137 1.232 . S
C139 O131 1.260 . S
C139 O132 1.257 . S
Zn140 O143 2.031 . S
Zn140 O145 2.049 . S
Zn140 O150 2.067 . S
Zn141 O142 1.962 . S
Zn141 O144 1.986 . S
Zn141 O146 1.996 1_556 S
Zn141 O149 1.943 . S
O142 Zn141 1.962 . S
O142 C147 1.254 1_556 S
O143 Zn140 2.031 . S
O143 C147 1.269 . S
O144 Zn141 1.986 . S
O144 C151 1.262 . S
O145 Zn140 2.049 . S
O145 C153 1.260 . S
O146 Zn141 1.996 1_554 S
O146 C153 1.257 . S
C147 O142 1.254 1_554 S
C147 O143 1.269 . S
C148 O149 1.249 1_554 S
C148 O150 1.270 . S
O149 Zn141 1.943 . S
O149 C148 1.249 1_556 S
O150 Zn140 2.067 . S
O150 C148 1.270 . S
C151 O144 1.262 . S
C151 O152 1.232 . S
O152 C151 1.232 . S
C153 O145 1.260 . S
C153 O146 1.257 . S
Zn154 O157 2.031 . S
Zn154 O159 2.049 . S
Zn154 O164 2.067 . S
Zn155 O156 1.962 . S
Zn155 O158 1.986 . S
Zn155 O160 1.996 1_554 S
Zn155 O163 1.943 . S
O156 Zn155 1.962 . S
O156 C161 1.254 . S
O157 Zn154 2.031 . S
O157 C161 1.269 1_556 S
O158 Zn155 1.986 . S
O158 C165 1.262 . S
O159 Zn154 2.049 . S
O159 C167 1.260 . S
O160 Zn155 1.996 1_556 S
O160 C167 1.257 . S
C161 O156 1.254 . S
C161 O157 1.269 1_554 S
C162 O163 1.249 1_556 S
C162 O164 1.270 . S
O163 Zn155 1.943 . S
O163 C162 1.249 1_554 S
O164 Zn154 2.067 . S
O164 C162 1.270 . S
C165 O158 1.262 . S
C165 O166 1.232 . S
O166 C165 1.232 . S
C167 O159 1.260 . S
C167 O160 1.257 . S
H168 C174 0.930 1_655 S
H169 C177 0.930 . S
H170 C178 0.930 . S
H171 C179 0.930 . S
H172 C182 0.930 . S
H173 C183 0.925 1_655 S
C174 H168 0.930 1_455 S
C174 C175 1.355 . S
C174 C176 1.415 . S
C175 C174 1.355 . S
C175 C177 1.419 . S
C176 C174 1.415 . S
C176 C181 1.425 . S
C176 C183 1.409 . S
C177 H169 0.930 . S
C177 C175 1.419 . S
C177 C178 1.362 . S
C178 H170 0.930 . S
C178 C177 1.362 . S
C178 C181 1.409 . S
C179 H171 0.930 . S
C179 C180 1.355 . S
C179 C181 1.415 . S
C180 C179 1.355 . S
C180 C182 1.419 . S
C181 C176 1.425 . S
C181 C178 1.409 . S
C181 C179 1.415 . S
C182 H172 0.930 . S
C182 C180 1.419 . S
C182 C183 1.362 . S
C183 H173 0.925 1_455 S
C183 C176 1.409 . S
C183 C182 1.362 . S
H184 C190 0.930 . S
H185 C193 0.930 . S
H186 C194 0.930 . S
H187 C195 0.930 . S
H188 C198 0.930 . S
H189 C199 0.930 . S
C190 H184 0.930 . S
C190 C191 1.355 . S
C190 C192 1.415 . S
C191 C190 1.355 . S
C191 C193 1.419 . S
C192 C190 1.415 . S
C192 C197 1.425 . S
C192 C199 1.409 . S
C193 H185 0.930 . S
C193 C191 1.419 . S
C193 C194 1.362 . S
C194 H186 0.930 . S
C194 C193 1.362 . S
C194 C197 1.409 . S
C195 H187 0.930 . S
C195 C196 1.355 . S
C195 C197 1.415 . S
C196 C195 1.355 . S
C196 C198 1.419 . S
C197 C192 1.425 . S
C197 C194 1.409 . S
C197 C195 1.415 . S
C198 H188 0.930 . S
C198 C196 1.419 . S
C198 C199 1.362 . S
C199 H189 0.930 . S
C199 C192 1.409 . S
C199 C198 1.362 . S
H200 C206 0.930 . S
H201 C209 0.930 . S
H202 C210 0.930 . S
H203 C211 0.930 . S
H204 C214 0.930 . S
H205 C215 0.930 . S
C206 H200 0.930 . S
C206 C207 1.355 . S
C206 C208 1.415 . S
C207 C206 1.355 . S
C207 C209 1.419 1_455 S
C208 C206 1.415 . S
C208 C213 1.434 . S
C208 C215 1.409 . S
C209 H201 0.930 . S
C209 C207 1.419 1_655 S
C209 C210 1.362 . S
C210 H202 0.930 . S
C210 C209 1.362 . S
C210 C213 1.402 1_655 S
C211 H203 0.930 . S
C211 C212 1.355 1_655 S
C211 C213 1.413 1_655 S
C212 C211 1.355 1_455 S
C212 C214 1.419 . S
C213 C208 1.434 . S
C213 C210 1.402 1_455 S
C213 C211 1.413 1_455 S
C214 H204 0.930 . S
C214 C212 1.419 . S
C214 C215 1.362 . S
C215 H205 0.930 . S
C215 C208 1.409 . S
C215 C214 1.362 . S
H216 C222 0.930 . S
H217 C225 0.930 . S
H218 C226 0.930 . S
H219 C227 0.930 . S
H220 C230 0.930 . S
H221 C231 0.930 . S
C222 H216 0.930 . S
C222 C223 1.355 1_565 S
C222 C224 1.415 . S
C223 C222 1.355 1_545 S
C223 C225 1.419 . S
C224 C222 1.415 . S
C224 C229 1.425 1_565 S
C224 C231 1.409 . S
C225 H217 0.930 . S
C225 C223 1.419 . S
C225 C226 1.362 . S
C226 H218 0.930 . S
C226 C225 1.362 . S
C226 C229 1.409 . S
C227 H219 0.930 . S
C227 C228 1.355 . S
C227 C229 1.415 . S
C228 C227 1.355 . S
C228 C230 1.419 1_545 S
C229 C224 1.425 1_545 S
C229 C226 1.409 . S
C229 C227 1.415 . S
C230 H220 0.930 . S
C230 C228 1.419 1_565 S
C230 C231 1.362 . S
C231 H221 0.930 . S
C231 C224 1.409 . S
C231 C230 1.362 . S
H232 C238 0.930 . S
H233 C241 0.930 . S
H234 C242 0.930 . S
H235 C243 0.930 . S
H236 C246 0.930 . S
H237 C247 0.930 . S
C238 H232 0.930 . S
C238 C239 1.355 1_655 S
C238 C240 1.415 . S
C239 C238 1.355 1_455 S
C239 C241 1.419 . S
C240 C238 1.415 . S
C240 C245 1.425 1_655 S
C240 C247 1.409 . S
C241 H233 0.930 . S
C241 C239 1.419 . S
C241 C242 1.362 . S
C242 H234 0.930 . S
C242 C241 1.362 . S
C242 C245 1.409 . S
C243 H235 0.930 . S
C243 C244 1.355 . S
C243 C245 1.415 . S
C244 C243 1.355 . S
C244 C246 1.419 1_455 S
C245 C240 1.425 1_455 S
C245 C242 1.409 . S
C245 C243 1.415 . S
C246 H236 0.930 . S
C246 C244 1.419 1_655 S
C246 C247 1.362 . S
C247 H237 0.930 . S
C247 C240 1.409 . S
C247 C246 1.362 . S
H248 C254 0.923 1_565 S
H249 C257 0.930 . S
H250 C258 0.930 . S
H251 C259 0.930 . S
H252 C262 0.930 . S
H253 C263 0.930 . S
C254 H248 0.923 1_545 S
C254 C255 1.355 . S
C254 C256 1.415 . S
C255 C254 1.355 . S
C255 C257 1.419 . S
C256 C254 1.415 . S
C256 C261 1.425 . S
C256 C263 1.409 1_545 S
C257 H249 0.930 . S
C257 C255 1.419 . S
C257 C258 1.362 . S
C258 H250 0.930 . S
C258 C257 1.362 . S
C258 C261 1.409 . S
C259 H251 0.930 . S
C259 C260 1.355 . S
C259 C261 1.415 . S
C260 C259 1.355 . S
C260 C262 1.419 1_545 S
C261 C256 1.425 . S
C261 C258 1.409 . S
C261 C259 1.415 . S
C262 H252 0.930 . S
C262 C260 1.419 1_565 S
C262 C263 1.362 . S
C263 H253 0.930 . S
C263 C256 1.409 1_565 S
C263 C262 1.362 . S
H264 C270 0.930 . S
H265 C273 0.930 . S
H266 C274 0.930 . S
H267 C275 0.930 . S
H268 C278 0.930 . S
H269 C279 0.930 . S
C270 H264 0.930 . S
C270 C271 1.355 1_655 S
C270 C272 1.415 . S
C271 C270 1.355 1_455 S
C271 C273 1.419 . S
C272 C270 1.415 . S
C272 C277 1.425 1_655 S
C272 C279 1.409 . S
C273 H265 0.930 . S
C273 C271 1.419 . S
C273 C274 1.362 . S
C274 H266 0.930 . S
C274 C273 1.362 . S
C274 C277 1.409 . S
C275 H267 0.930 . S
C275 C276 1.355 . S
C275 C277 1.415 . S
C276 C275 1.355 . S
C276 C278 1.419 1_455 S
C277 C272 1.425 1_455 S
C277 C274 1.409 . S
C277 C275 1.415 . S
C278 H268 0.930 . S
C278 C276 1.419 1_655 S
C278 C279 1.362 . S
C279 H269 0.930 . S
C279 C272 1.409 . S
C279 C278 1.362 . S
H280 C286 0.930 . S
H281 C289 0.930 . S
H282 C290 0.930 . S
H283 C291 0.930 . S
H284 C294 0.930 . S
H285 C295 0.930 . S
C286 H280 0.930 . S
C286 C287 1.355 . S
C286 C288 1.415 . S
C287 C286 1.355 . S
C287 C289 1.419 . S
C288 C286 1.415 . S
C288 C293 1.425 . S
C288 C295 1.409 . S
C289 H281 0.930 . S
C289 C287 1.419 . S
C289 C290 1.362 . S
C290 H282 0.930 . S
C290 C289 1.362 . S
C290 C293 1.409 . S
C291 H283 0.930 . S
C291 C292 1.355 . S
C291 C293 1.415 . S
C292 C291 1.355 . S
C292 C294 1.419 . S
C293 C288 1.425 . S
C293 C290 1.409 . S
C293 C291 1.415 . S
C294 H284 0.930 . S
C294 C292 1.419 . S
C294 C295 1.362 . S
C295 H285 0.930 . S
C295 C288 1.409 . S
C295 C294 1.362 . S
H296 C302 0.930 . S
H297 C305 0.930 . S
H298 C306 0.930 . S
H299 C307 0.930 . S
H300 C310 0.930 . S
H301 C311 0.930 . S
C302 H296 0.930 . S
C302 C303 1.355 . S
C302 C304 1.415 . S
C303 C302 1.355 . S
C303 C305 1.419 1_554 S
C304 C302 1.415 . S
C304 C309 1.425 1_554 S
C304 C311 1.409 . S
C305 H297 0.930 . S
C305 C303 1.419 1_556 S
C305 C306 1.362 . S
C306 H298 0.930 . S
C306 C305 1.362 . S
C306 C309 1.409 . S
C307 H299 0.930 . S
C307 C308 1.355 1_556 S
C307 C309 1.415 . S
C308 C307 1.355 1_554 S
C308 C310 1.419 . S
C309 C304 1.425 1_556 S
C309 C306 1.409 . S
C309 C307 1.415 . S
C310 H300 0.930 . S
C310 C308 1.419 . S
C310 C311 1.362 . S
C311 H301 0.930 . S
C311 C304 1.409 . S
C311 C310 1.362 . S
H312 C318 0.930 . S
H313 C321 0.930 . S
H314 C322 0.930 . S
H315 C323 0.930 . S
H316 C326 0.930 . S
H317 C327 0.930 . S
C318 H312 0.930 . S
C318 C319 1.355 1_556 S
C318 C320 1.415 . S
C319 C318 1.355 1_554 S
C319 C321 1.419 . S
C320 C318 1.415 . S
C320 C325 1.425 1_556 S
C320 C327 1.409 . S
C321 H313 0.930 . S
C321 C319 1.419 . S
C321 C322 1.362 . S
C322 H314 0.930 . S
C322 C321 1.362 . S
C322 C325 1.409 . S
C323 H315 0.930 . S
C323 C324 1.355 1_554 S
C323 C325 1.415 . S
C324 C323 1.355 1_556 S
C324 C326 1.419 . S
C325 C320 1.425 1_554 S
C325 C322 1.409 . S
C325 C323 1.415 . S
C326 H316 0.930 . S
C326 C324 1.419 . S
C326 C327 1.362 . S
C327 H317 0.930 . S
C327 C320 1.409 . S
C327 C326 1.362 . S
H328 C334 0.930 . S
H329 C337 0.930 . S
H330 C338 0.930 . S
H331 C339 0.930 . S
H332 C342 0.930 . S
H333 C343 0.930 . S
C334 H328 0.930 . S
C334 C335 1.355 . S
C334 C336 1.415 . S
C335 C334 1.355 . S
C335 C337 1.419 . S
C336 C334 1.415 . S
C336 C341 1.425 . S
C336 C343 1.409 . S
C337 H329 0.930 . S
C337 C335 1.419 . S
C337 C338 1.362 . S
C338 H330 0.930 . S
C338 C337 1.362 . S
C338 C341 1.409 . S
C339 H331 0.930 . S
C339 C340 1.355 . S
C339 C341 1.415 . S
C340 C339 1.355 . S
C340 C342 1.419 . S
C341 C336 1.425 . S
C341 C338 1.409 . S
C341 C339 1.415 . S
C342 H332 0.930 . S
C342 C340 1.419 . S
C342 C343 1.362 . S
C343 H333 0.930 . S
C343 C336 1.409 . S
C343 C342 1.362 . S
H344 C350 0.930 . S
H345 C353 0.930 . S
H346 C354 0.930 . S
H347 C355 0.930 . S
H348 C358 0.930 . S
H349 C359 0.930 . S
C350 H344 0.930 . S
C350 C351 1.355 . S
C350 C352 1.415 . S
C351 C350 1.355 . S
C351 C353 1.419 1_554 S
C352 C350 1.415 . S
C352 C357 1.425 1_554 S
C352 C359 1.409 . S
C353 H345 0.930 . S
C353 C351 1.419 1_556 S
C353 C354 1.362 . S
C354 H346 0.930 . S
C354 C353 1.362 . S
C354 C357 1.409 . S
C355 H347 0.930 . S
C355 C356 1.355 1_556 S
C355 C357 1.415 . S
C356 C355 1.355 1_554 S
C356 C358 1.419 . S
C357 C352 1.425 1_556 S
C357 C354 1.409 . S
C357 C355 1.415 . S
C358 H348 0.930 . S
C358 C356 1.419 . S
C358 C359 1.362 . S
C359 H349 0.930 . S
C359 C352 1.409 . S
C359 C358 1.362 . S
H360 C366 0.930 . S
H361 C369 0.930 . S
H362 C370 0.930 . S
H363 C371 0.930 . S
H364 C374 0.930 . S
H365 C375 0.930 . S
C366 H360 0.930 . S
C366 C367 1.355 . S
C366 C368 1.415 . S
C367 C366 1.355 . S
C367 C369 1.419 . S
C368 C366 1.415 . S
C368 C373 1.425 . S
C368 C375 1.409 . S
C369 H361 0.930 . S
C369 C367 1.419 . S
C369 C370 1.362 . S
C370 H362 0.930 . S
C370 C369 1.362 . S
C370 C373 1.409 . S
C371 H363 0.930 . S
C371 C372 1.355 . S
C371 C373 1.415 . S
C372 C371 1.355 . S
C372 C374 1.419 . S
C373 C368 1.425 . S
C373 C370 1.409 . S
C373 C371 1.415 . S
C374 H364 0.930 . S
C374 C372 1.419 . S
C374 C375 1.362 . S
C375 H365 0.930 . S
C375 C368 1.409 . S
C375 C374 1.362 . S
H376 C382 0.930 . S
H377 C385 0.930 . S
H378 C386 0.930 . S
H379 C387 0.930 . S
H380 C390 0.930 . S
H381 C391 0.930 . S
C382 H376 0.930 . S
C382 C383 1.355 . S
C382 C384 1.415 . S
C383 C382 1.355 . S
C383 C385 1.419 . S
C384 C382 1.415 . S
C384 C389 1.425 . S
C384 C391 1.409 . S
C385 H377 0.930 . S
C385 C383 1.419 . S
C385 C386 1.362 . S
C386 H378 0.930 . S
C386 C385 1.362 . S
C386 C389 1.409 . S
C387 H379 0.930 . S
C387 C388 1.355 . S
C387 C389 1.415 . S
C388 C387 1.355 . S
C388 C390 1.419 . S
C389 C384 1.425 . S
C389 C386 1.409 . S
C389 C387 1.415 . S
C390 H380 0.930 . S
C390 C388 1.419 . S
C390 C391 1.362 . S
C391 H381 0.930 . S
C391 C384 1.409 . S
C391 C390 1.362 . S
H392 C398 0.930 . S
H393 C401 0.930 . S
H394 C402 0.930 . S
H395 C403 0.930 . S
H396 C406 0.930 . S
H397 C407 0.930 . S
C398 H392 0.930 . S
C398 C399 1.355 . S
C398 C400 1.415 . S
C399 C398 1.355 . S
C399 C401 1.419 . S
C400 C398 1.415 . S
C400 C405 1.425 . S
C400 C407 1.409 . S
C401 H393 0.930 . S
C401 C399 1.419 . S
C401 C402 1.362 . S
C402 H394 0.930 . S
C402 C401 1.362 . S
C402 C405 1.409 . S
C403 H395 0.930 . S
C403 C404 1.355 . S
C403 C405 1.415 . S
C404 C403 1.355 . S
C404 C406 1.419 . S
C405 C400 1.425 . S
C405 C402 1.409 . S
C405 C403 1.415 . S
C406 H396 0.930 . S
C406 C404 1.419 . S
C406 C407 1.362 . S
C407 H397 0.930 . S
C407 C400 1.409 . S
C407 C406 1.362 . S
H408 C414 0.930 . S
H409 C417 0.930 . S
H410 C418 0.930 . S
H411 C419 0.930 . S
H412 C422 0.930 . S
H413 C423 0.930 . S
C414 H408 0.930 . S
C414 C415 1.355 . S
C414 C416 1.415 . S
C415 C414 1.355 . S
C415 C417 1.419 . S
C416 C414 1.415 . S
C416 C421 1.425 . S
C416 C423 1.409 . S
C417 H409 0.930 . S
C417 C415 1.419 . S
C417 C418 1.362 . S
C418 H410 0.930 . S
C418 C417 1.362 . S
C418 C421 1.409 . S
C419 H411 0.930 . S
C419 C420 1.355 . S
C419 C421 1.415 . S
C420 C419 1.355 . S
C420 C422 1.419 . S
C421 C416 1.425 . S
C421 C418 1.409 . S
C421 C419 1.415 . S
C422 H412 0.930 . S
C422 C420 1.419 . S
C422 C423 1.362 . S
C423 H413 0.930 . S
C423 C416 1.409 . S
C423 C422 1.362 . S
H424 C430 0.930 . S
H425 C433 0.930 . S
H426 C434 0.930 . S
H427 C435 0.930 . S
H428 C438 0.930 . S
H429 C439 0.930 . S
C430 H424 0.930 . S
C430 C431 1.355 . S
C430 C432 1.415 . S
C431 C430 1.355 . S
C431 C433 1.419 . S
C432 C430 1.415 . S
C432 C437 1.425 . S
C432 C439 1.409 . S
C433 H425 0.930 . S
C433 C431 1.419 . S
C433 C434 1.362 . S
C434 H426 0.930 . S
C434 C433 1.362 . S
C434 C437 1.409 . S
C435 H427 0.930 . S
C435 C436 1.355 . S
C435 C437 1.415 . S
C436 C435 1.355 . S
C436 C438 1.419 . S
C437 C432 1.425 . S
C437 C434 1.409 . S
C437 C435 1.415 . S
C438 H428 0.930 . S
C438 C436 1.419 . S
C438 C439 1.362 . S
C439 H429 0.930 . S
C439 C432 1.409 . S
C439 C438 1.362 . S
H440 C446 0.930 . S
H441 C449 0.930 . S
H442 C450 0.930 . S
H443 C451 0.930 . S
H444 C454 0.930 . S
H445 C455 0.930 . S
C446 H440 0.930 . S
C446 C447 1.355 . S
C446 C448 1.415 . S
C447 C446 1.355 . S
C447 C449 1.419 . S
C448 C446 1.415 . S
C448 C453 1.425 . S
C448 C455 1.409 . S
C449 H441 0.930 . S
C449 C447 1.419 . S
C449 C450 1.362 . S
C450 H442 0.930 . S
C450 C449 1.362 . S
C450 C453 1.409 . S
C451 H443 0.930 . S
C451 C452 1.355 . S
C451 C453 1.415 . S
C452 C451 1.355 . S
C452 C454 1.419 . S
C453 C448 1.425 . S
C453 C450 1.409 . S
C453 C451 1.415 . S
C454 H444 0.930 . S
C454 C452 1.419 . S
C454 C455 1.362 . S
C455 H445 0.930 . S
C455 C448 1.409 . S
C455 C454 1.362 . S
H456 C462 0.930 . S
H457 C465 0.930 . S
H458 C466 0.930 . S
H459 C467 0.930 . S
H460 C470 0.930 . S
H461 C471 0.930 . S
C462 H456 0.930 . S
C462 C463 1.355 . S
C462 C464 1.415 . S
C463 C462 1.355 . S
C463 C465 1.419 . S
C464 C462 1.415 . S
C464 C469 1.425 . S
C464 C471 1.409 . S
C465 H457 0.930 . S
C465 C463 1.419 . S
C465 C466 1.362 . S
C466 H458 0.930 . S
C466 C465 1.362 . S
C466 C469 1.409 . S
C467 H459 0.930 . S
C467 C468 1.355 . S
C467 C469 1.415 . S
C468 C467 1.355 . S
C468 C470 1.419 . S
C469 C464 1.425 . S
C469 C466 1.409 . S
C469 C467 1.415 . S
C470 H460 0.930 . S
C470 C468 1.419 . S
C470 C471 1.362 . S
C471 H461 0.930 . S
C471 C464 1.409 . S
C471 C470 1.362 . S
H472 C478 0.930 . S
H473 C481 0.930 . S
H474 C482 0.930 . S
H475 C483 0.930 . S
H476 C486 0.930 . S
H477 C487 0.930 . S
C478 H472 0.930 . S
C478 C479 1.355 . S
C478 C480 1.415 . S
C479 C478 1.355 . S
C479 C481 1.419 . S
C480 C478 1.415 . S
C480 C485 1.425 . S
C480 C487 1.409 . S
C481 H473 0.930 . S
C481 C479 1.419 . S
C481 C482 1.362 . S
C482 H474 0.930 . S
C482 C481 1.362 . S
C482 C485 1.409 . S
C483 H475 0.930 . S
C483 C484 1.355 . S
C483 C485 1.415 . S
C484 C483 1.355 . S
C484 C486 1.419 . S
C485 C480 1.425 . S
C485 C482 1.409 . S
C485 C483 1.415 . S
C486 H476 0.930 . S
C486 C484 1.419 . S
C486 C487 1.362 . S
C487 H477 0.930 . S
C487 C480 1.409 . S
C487 C486 1.362 . S
H488 C494 0.930 . S
H489 C497 0.930 . S
H490 C498 0.930 . S
H491 C499 0.930 . S
H492 C502 0.930 . S
H493 C503 0.930 . S
C494 H488 0.930 . S
C494 C495 1.355 . S
C494 C496 1.415 . S
C495 C494 1.355 . S
C495 C497 1.419 . S
C496 C494 1.415 . S
C496 C501 1.425 . S
C496 C503 1.409 . S
C497 H489 0.930 . S
C497 C495 1.419 . S
C497 C498 1.362 . S
C498 H490 0.930 . S
C498 C497 1.362 . S
C498 C501 1.409 . S
C499 H491 0.930 . S
C499 C500 1.355 . S
C499 C501 1.415 . S
C500 C499 1.355 . S
C500 C502 1.419 . S
C501 C496 1.425 . S
C501 C498 1.409 . S
C501 C499 1.415 . S
C502 H492 0.930 . S
C502 C500 1.419 . S
C502 C503 1.362 . S
C503 H493 0.930 . S
C503 C496 1.409 . S
C503 C502 1.362 . S
H504 C510 0.930 . S
H505 C513 0.930 . S
H506 C514 0.930 . S
H507 C515 0.930 . S
H508 C518 0.930 . S
H509 C519 0.930 . S
C510 H504 0.930 . S
C510 C511 1.355 . S
C510 C512 1.415 . S
C511 C510 1.355 . S
C511 C513 1.419 . S
C512 C510 1.415 . S
C512 C517 1.425 . S
C512 C519 1.409 . S
C513 H505 0.930 . S
C513 C511 1.419 . S
C513 C514 1.362 . S
C514 H506 0.930 . S
C514 C513 1.362 . S
C514 C517 1.409 . S
C515 H507 0.930 . S
C515 C516 1.355 . S
C515 C517 1.415 . S
C516 C515 1.355 . S
C516 C518 1.419 . S
C517 C512 1.425 . S
C517 C514 1.409 . S
C517 C515 1.415 . S
C518 H508 0.930 . S
C518 C516 1.419 . S
C518 C519 1.362 . S
C519 H509 0.930 . S
C519 C512 1.409 . S
C519 C518 1.362 . S
H520 C526 0.930 . S
H521 C529 0.930 . S
H522 C530 0.930 . S
H523 C531 0.930 . S
H524 C534 0.930 . S
H525 C535 0.930 . S
C526 H520 0.930 . S
C526 C527 1.355 . S
C526 C528 1.415 . S
C527 C526 1.355 . S
C527 C529 1.419 . S
C528 C526 1.415 . S
C528 C533 1.425 . S
C528 C535 1.409 . S
C529 H521 0.930 . S
C529 C527 1.419 . S
C529 C530 1.362 . S
C530 H522 0.930 . S
C530 C529 1.362 . S
C530 C533 1.409 . S
C531 H523 0.930 . S
C531 C532 1.355 . S
C531 C533 1.415 . S
C532 C531 1.355 . S
C532 C534 1.419 . S
C533 C528 1.425 . S
C533 C530 1.409 . S
C533 C531 1.415 . S
C534 H524 0.930 . S
C534 C532 1.419 . S
C534 C535 1.362 . S
C535 H525 0.930 . S
C535 C528 1.409 . S
C535 C534 1.362 . S
H536 C542 0.930 . S
H537 C545 0.930 . S
H538 C546 0.930 . S
H539 C547 0.930 . S
H540 C550 0.930 . S
H541 C551 0.930 . S
C542 H536 0.930 . S
C542 C543 1.355 . S
C542 C544 1.415 . S
C543 C542 1.355 . S
C543 C545 1.419 . S
C544 C542 1.415 . S
C544 C549 1.425 . S
C544 C551 1.409 . S
C545 H537 0.930 . S
C545 C543 1.419 . S
C545 C546 1.362 . S
C546 H538 0.930 . S
C546 C545 1.362 . S
C546 C549 1.409 . S
C547 H539 0.930 . S
C547 C548 1.355 . S
C547 C549 1.415 . S
C548 C547 1.355 . S
C548 C550 1.419 . S
C549 C544 1.425 . S
C549 C546 1.409 . S
C549 C547 1.415 . S
C550 H540 0.930 . S
C550 C548 1.419 . S
C550 C551 1.362 . S
C551 H541 0.930 . S
C551 C544 1.409 . S
C551 C550 1.362 . S
C175 C13 1.291 . S
C180 C81 1.389 . S
C191 C25 1.302 . S
C196 C64 1.295 . S
C207 C83 1.371 . S
C212 C41 1.324 . S
C223 C53 1.331 . S
C228 C63 1.346 . S
C239 C105 1.414 . S
C244 C39 1.402 . S
C255 C92 1.423 . S
C260 C55 1.439 . S
C271 C11 1.383 . S
C276 C106 1.350 . S
C287 C91 1.429 . S
C292 C27 1.347 . S
C303 C133 1.302 . S
C308 C119 1.295 . S
C319 C120 1.201 . S
C324 C162 1.200 . S
C335 C134 1.270 1_554 S
C340 C148 1.267 . S
C351 C147 1.323 . S
C356 C161 1.334 . S
C367 C167 1.354 . S
C372 C95 1.399 . S
C383 C123 1.173 . S
C388 C109 1.169 . S
C399 C97 1.358 . S
C404 C139 1.431 . S
C415 C111 1.188 . S
C420 C151 1.265 . S
C431 C69 1.247 . S
C436 C137 1.326 . S
C447 C78 1.503 . S
C452 C153 1.501 . S
C463 C165 1.255 . S
C468 C67 1.260 . S
C479 C125 1.392 . S
C484 C77 1.460 . S
C495 C21 1.405 . S
C500 C35 1.418 . S
C511 C8 1.351 . S
C516 C22 1.354 . S
C527 C36 1.422 . S
C532 C50 1.422 . S
C543 C7 1.428 . S
C548 C49 1.418 . S
