# Generated by pormake.
# Topology uku, (4)-cn, num edge types: 1
# Building blocks:
#     Node 0, Type 0, BuildingBlock: ESEHIV_clean_sbu_0, # of connection points: 4
#     Node 1, Type 0, BuildingBlock: ESEHIV_clean_sbu_0, # of connection points: 4
#     Node 2, Type 0, BuildingBlock: ESEHIV_clean_sbu_0, # of connection points: 4
#     Node 3, Type 0, BuildingBlock: ESEHIV_clean_sbu_0, # of connection points: 4
#     Node 4, Type 0, BuildingBlock: ESEHIV_clean_sbu_0, # of connection points: 4
#     Node 5, Type 0, BuildingBlock: ESEHIV_clean_sbu_0, # of connection points: 4
#     Node 6, Type 0, BuildingBlock: ESEHIV_clean_sbu_0, # of connection points: 4
#     Node 7, Type 0, BuildingBlock: ESEHIV_clean_sbu_0, # of connection points: 4
#     Node 8, Type 0, BuildingBlock: ESEHIV_clean_sbu_0, # of connection points: 4
#     Node 9, Type 0, BuildingBlock: ESEHIV_clean_sbu_0, # of connection points: 4
#     Node 10, Type 0, BuildingBlock: ESEHIV_clean_sbu_0, # of connection points: 4
#     Node 11, Type 0, BuildingBlock: ESEHIV_clean_sbu_0, # of connection points: 4
#     Edge 12, Type (0, 0), BuildingBlock: ZUJKAS_clean_linker_0, # of connection points: 2
#     Edge 13, Type (0, 0), BuildingBlock: ZUJKAS_clean_linker_0, # of connection points: 2
#     Edge 14, Type (0, 0), BuildingBlock: ZUJKAS_clean_linker_0, # of connection points: 2
#     Edge 15, Type (0, 0), BuildingBlock: ZUJKAS_clean_linker_0, # of connection points: 2
#     Edge 16, Type (0, 0), BuildingBlock: ZUJKAS_clean_linker_0, # of connection points: 2
#     Edge 17, Type (0, 0), BuildingBlock: ZUJKAS_clean_linker_0, # of connection points: 2
#     Edge 18, Type (0, 0), BuildingBlock: ZUJKAS_clean_linker_0, # of connection points: 2
#     Edge 19, Type (0, 0), BuildingBlock: ZUJKAS_clean_linker_0, # of connection points: 2
#     Edge 20, Type (0, 0), BuildingBlock: ZUJKAS_clean_linker_0, # of connection points: 2
#     Edge 21, Type (0, 0), BuildingBlock: ZUJKAS_clean_linker_0, # of connection points: 2
#     Edge 22, Type (0, 0), BuildingBlock: ZUJKAS_clean_linker_0, # of connection points: 2
#     Edge 23, Type (0, 0), BuildingBlock: ZUJKAS_clean_linker_0, # of connection points: 2
#     Edge 24, Type (0, 0), BuildingBlock: ZUJKAS_clean_linker_0, # of connection points: 2
#     Edge 25, Type (0, 0), BuildingBlock: ZUJKAS_clean_linker_0, # of connection points: 2
#     Edge 26, Type (0, 0), BuildingBlock: ZUJKAS_clean_linker_0, # of connection points: 2
#     Edge 27, Type (0, 0), BuildingBlock: ZUJKAS_clean_linker_0, # of connection points: 2
#     Edge 28, Type (0, 0), BuildingBlock: ZUJKAS_clean_linker_0, # of connection points: 2
#     Edge 29, Type (0, 0), BuildingBlock: ZUJKAS_clean_linker_0, # of connection points: 2
#     Edge 30, Type (0, 0), BuildingBlock: ZUJKAS_clean_linker_0, # of connection points: 2
#     Edge 31, Type (0, 0), BuildingBlock: ZUJKAS_clean_linker_0, # of connection points: 2
#     Edge 32, Type (0, 0), BuildingBlock: ZUJKAS_clean_linker_0, # of connection points: 2
#     Edge 33, Type (0, 0), BuildingBlock: ZUJKAS_clean_linker_0, # of connection points: 2
#     Edge 34, Type (0, 0), BuildingBlock: ZUJKAS_clean_linker_0, # of connection points: 2
#     Edge 35, Type (0, 0), BuildingBlock: ZUJKAS_clean_linker_0, # of connection points: 2
# Relax obj value: 0.122
# Max RMSD: 0.250
# Mean RMSD: 0.250
data_MOF--net-uku--node1-ESEHIV_clean_sbu_0--edge1-ZUJKAS_clean_linker_0
_symmetry_space_group_name_H-M    P1
_symmetry_Int_Tables_number       1
_symmetry_cell_setting            triclinic
loop_
_symmetry_equiv_pos_as_xyz
'x, y, z'
_cell_length_a     60.352584
_cell_length_b     60.363836
_cell_length_c     60.357889
_cell_angle_alpha  90.00542
_cell_angle_beta   89.995745
_cell_angle_gamma 89.99668
loop_
_atom_site_label
_atom_site_type_symbol
_atom_site_fract_x
_atom_site_fract_y
_atom_site_fract_z
_atom_type_partial_charge
Cu0 Cu 0.09778 0.12974 0.65151 0.0
N1 N 0.12625 0.11826 0.65449 0.0
N2 N 0.15817 0.1077 0.67003 0.0
C3 C 0.13807 0.11702 0.67334 0.0
C4 C 0.1589 0.10294 0.64816 0.0
C5 C 0.13919 0.10947 0.63864 0.0
O6 O 0.09371 0.15218 0.67419 0.0
C7 C 0.07583 0.09398 0.67228 0.0
O8 O 0.08925 0.09833 0.68886 0.0
H9 H 0.13183 0.12257 0.6892 0.0
H10 H 0.1346 0.10799 0.62138 0.0
N11 N 0.09441 0.14158 0.6232 0.0
N12 N 0.07981 0.14897 0.58997 0.0
C13 C 0.07701 0.13857 0.60961 0.0
C14 C 0.10878 0.1543 0.61191 0.0
C15 C 0.09982 0.15892 0.59141 0.0
C16 C 0.08405 0.17064 0.67101 0.0
O17 O 0.07535 0.17496 0.65154 0.0
H18 H 0.06252 0.12906 0.6142 0.0
H19 H 0.12473 0.15965 0.61811 0.0
O20 O 0.07662 0.10595 0.65498 0.0
H21 H 0.17276 0.09553 0.63954 0.0
H22 H 0.10768 0.16852 0.57847 0.0
Cu23 Cu 0.90091 0.87505 0.6539 0.0
N24 N 0.8717 0.8847 0.65583 0.0
N25 N 0.839 0.8939 0.67057 0.0
C26 C 0.85963 0.88615 0.67451 0.0
C27 C 0.83816 0.89747 0.64849 0.0
C28 C 0.85837 0.89177 0.63945 0.0
O29 O 0.90494 0.85236 0.67632 0.0
C30 C 0.94045 0.89826 0.66405 0.0
O31 O 0.94919 0.8784 0.6657 0.0
H32 H 0.86607 0.88189 0.69068 0.0
H33 H 0.86302 0.89269 0.62216 0.0
N34 N 0.90635 0.86387 0.6256 0.0
N35 N 0.92289 0.85687 0.59318 0.0
C36 C 0.92429 0.86752 0.61285 0.0
C37 C 0.89311 0.85051 0.6137 0.0
C38 C 0.90324 0.84616 0.59371 0.0
C39 C 0.91625 0.83477 0.6737 0.0
O40 O 0.92697 0.83158 0.65503 0.0
H41 H 0.93819 0.87755 0.61808 0.0
H42 H 0.87716 0.84445 0.61918 0.0
O43 O 0.92002 0.90019 0.65933 0.0
H44 H 0.82391 0.90349 0.63942 0.0
H45 H 0.89644 0.83613 0.5805 0.0
Cu46 Cu 0.09944 0.87335 0.35295 0.0
N47 N 0.1276 0.88567 0.35046 0.0
N48 N 0.15965 0.89602 0.33511 0.0
C49 C 0.14086 0.88413 0.33263 0.0
C50 C 0.15811 0.90534 0.3554 0.0
C51 C 0.1383 0.89889 0.36485 0.0
O52 O 0.09783 0.84901 0.33216 0.0
C53 C 0.0797 0.90943 0.33071 0.0
O54 O 0.09656 0.90715 0.31713 0.0
H55 H 0.13635 0.87513 0.31779 0.0
H56 H 0.13194 0.90379 0.38088 0.0
N57 N 0.09503 0.86276 0.38157 0.0
N58 N 0.07935 0.85627 0.41448 0.0
C59 C 0.07766 0.867 0.3949 0.0
C60 C 0.10822 0.84894 0.39302 0.0
C61 C 0.09859 0.84487 0.41333 0.0
C62 C 0.0805 0.84323 0.32167 0.0
O63 O 0.06189 0.85403 0.32493 0.0
H64 H 0.06386 0.8774 0.39011 0.0
H65 H 0.1237 0.84226 0.38695 0.0
O66 O 0.07756 0.89601 0.34681 0.0
H67 H 0.17034 0.91612 0.36287 0.0
H68 H 0.10534 0.83448 0.42629 0.0
Cu69 Cu 0.90591 0.12922 0.34774 0.0
N70 N 0.87662 0.11983 0.34586 0.0
N71 N 0.84388 0.11068 0.3312 0.0
C72 C 0.86464 0.11803 0.32716 0.0
C73 C 0.84287 0.10773 0.35337 0.0
C74 C 0.8631 0.11341 0.36236 0.0
O75 O 0.91039 0.15127 0.32471 0.0
C76 C 0.94352 0.10444 0.33392 0.0
O77 O 0.95072 0.12341 0.32605 0.0
H78 H 0.87121 0.12178 0.31091 0.0
H79 H 0.86764 0.11296 0.37969 0.0
N80 N 0.91113 0.14127 0.37567 0.0
N81 N 0.92752 0.14924 0.40789 0.0
C82 C 0.9286 0.13732 0.38897 0.0
C83 C 0.89852 0.1561 0.38649 0.0
C84 C 0.90858 0.16108 0.40637 0.0
C85 C 0.92141 0.16906 0.32734 0.0
O86 O 0.93148 0.17272 0.34628 0.0
H87 H 0.94203 0.12628 0.38458 0.0
H88 H 0.88313 0.16287 0.38026 0.0
O89 O 0.92482 0.10367 0.34358 0.0
H90 H 0.82848 0.1022 0.36252 0.0
H91 H 0.90231 0.17237 0.4188 0.0
Cu92 Cu 0.65182 0.10088 0.12854 0.0
N93 N 0.65336 0.13036 0.11981 0.0
N94 N 0.66801 0.1632 0.11107 0.0
C95 C 0.67197 0.14257 0.11876 0.0
C96 C 0.64599 0.16393 0.10713 0.0
C97 C 0.63699 0.14362 0.11257 0.0
O98 O 0.67532 0.09628 0.14996 0.0
C99 C 0.65923 0.062 0.10305 0.0
O100 O 0.65992 0.05187 0.1223 0.0
H101 H 0.68816 0.13618 0.12306 0.0
H102 H 0.61978 0.13878 0.1112 0.0
N103 N 0.62411 0.09509 0.14092 0.0
N104 N 0.5919 0.07856 0.14874 0.0
C105 C 0.61064 0.07787 0.1365 0.0
C106 C 0.61358 0.10716 0.15639 0.0
C107 C 0.59372 0.09701 0.16128 0.0
C108 C 0.67372 0.08448 0.16735 0.0
O109 O 0.65541 0.07333 0.1711 0.0
H110 H 0.61472 0.06491 0.12482 0.0
H111 H 0.61997 0.12227 0.16362 0.0
O112 O 0.65614 0.08282 0.10244 0.0
H113 H 0.63699 0.17812 0.10088 0.0
H114 H 0.5815 0.10293 0.17299 0.0
Cu115 Cu 0.35092 0.90347 0.1308 0.0
N116 N 0.34766 0.87552 0.11819 0.0
N117 N 0.33186 0.8438 0.10747 0.0
C118 C 0.32947 0.86268 0.11926 0.0
C119 C 0.35247 0.84484 0.09877 0.0
C120 C 0.36214 0.86446 0.10538 0.0
O121 O 0.33075 0.90543 0.15571 0.0
C122 C 0.3287 0.9245 0.09524 0.0
O123 O 0.31398 0.9087 0.098 0.0
H124 H 0.31479 0.86724 0.12847 0.0
H125 H 0.37843 0.87045 0.10089 0.0
N126 N 0.37987 0.90711 0.14073 0.0
N127 N 0.41295 0.92247 0.14715 0.0
C128 C 0.39264 0.9252 0.13813 0.0
C129 C 0.39243 0.89237 0.15173 0.0
C130 C 0.41285 0.9018 0.15575 0.0
C131 C 0.31787 0.92162 0.15965 0.0
O132 O 0.31797 0.93889 0.14641 0.0
H133 H 0.38698 0.94013 0.12999 0.0
H134 H 0.38711 0.8759 0.15637 0.0
O135 O 0.34524 0.92556 0.10824 0.0
H136 H 0.35985 0.83261 0.08794 0.0
H137 H 0.42663 0.89387 0.16404 0.0
Cu138 Cu 0.64857 0.89945 0.87446 0.0
N139 N 0.65057 0.86998 0.88318 0.0
N140 N 0.66564 0.83743 0.89228 0.0
C141 C 0.66942 0.85827 0.88507 0.0
C142 C 0.64346 0.83606 0.89504 0.0
C143 C 0.63421 0.85619 0.8894 0.0
O144 O 0.67164 0.90441 0.85263 0.0
C145 C 0.6567 0.93833 0.8996 0.0
O146 O 0.65743 0.94825 0.88023 0.0
H147 H 0.68562 0.86513 0.88162 0.0
H148 H 0.61682 0.86052 0.88986 0.0
N149 N 0.62055 0.90498 0.86264 0.0
N150 N 0.58801 0.92118 0.85543 0.0
C151 C 0.60718 0.92231 0.86698 0.0
C152 C 0.60954 0.89241 0.84792 0.0
C153 C 0.58948 0.90234 0.84343 0.0
C154 C 0.66958 0.91637 0.8354 0.0
O155 O 0.65101 0.92721 0.83202 0.0
H156 H 0.61161 0.9356 0.87814 0.0
H157 H 0.6157 0.87707 0.841 0.0
O158 O 0.65323 0.91759 0.90045 0.0
H159 H 0.63452 0.82153 0.90054 0.0
H160 H 0.57688 0.89597 0.83239 0.0
Cu161 Cu 0.34726 0.09779 0.87541 0.0
N162 N 0.34566 0.12699 0.8851 0.0
N163 N 0.33121 0.15983 0.89422 0.0
C164 C 0.32712 0.13926 0.8864 0.0
C165 C 0.35327 0.16042 0.89801 0.0
C166 C 0.36214 0.14012 0.89234 0.0
O167 O 0.32455 0.0941 0.85296 0.0
C168 C 0.33779 0.05811 0.89869 0.0
O169 O 0.33725 0.04912 0.87888 0.0
H170 H 0.3109 0.13302 0.88199 0.0
H171 H 0.37936 0.13526 0.8934 0.0
N172 N 0.37536 0.09222 0.86381 0.0
N173 N 0.40781 0.07589 0.85648 0.0
C174 C 0.38849 0.07463 0.86778 0.0
C175 C 0.38666 0.1051 0.84959 0.0
C176 C 0.40667 0.09509 0.84502 0.0
C177 C 0.32651 0.08218 0.83569 0.0
O178 O 0.34466 0.07058 0.83265 0.0
H179 H 0.3838 0.06107 0.8785 0.0
H180 H 0.38074 0.1207 0.84306 0.0
O181 O 0.34174 0.07871 0.90057 0.0
H182 H 0.36243 0.17455 0.90416 0.0
H183 H 0.41946 0.10166 0.83433 0.0
Cu184 Cu 0.12844 0.65204 0.09967 0.0
N185 N 0.11995 0.6549 0.12916 0.0
N186 N 0.11051 0.67084 0.1612 0.0
C187 C 0.11823 0.67404 0.14044 0.0
C188 C 0.10727 0.64877 0.16297 0.0
C189 C 0.11311 0.63898 0.14316 0.0
O190 O 0.15031 0.67491 0.09369 0.0
C191 C 0.10276 0.6597 0.06102 0.0
O192 O 0.12198 0.66078 0.05084 0.0
H193 H 0.12198 0.69004 0.13327 0.0
H194 H 0.11217 0.62154 0.13913 0.0
N195 N 0.13969 0.62365 0.09468 0.0
N196 N 0.14666 0.59101 0.07859 0.0
C197 C 0.13606 0.61067 0.0769 0.0
C198 C 0.15295 0.61186 0.10814 0.0
C199 C 0.15732 0.59174 0.09826 0.0
C200 C 0.16974 0.67136 0.0863 0.0
O201 O 0.17567 0.65112 0.081 0.0
H202 H 0.12605 0.61569 0.06292 0.0
H203 H 0.15896 0.61752 0.12404 0.0
O204 O 0.10224 0.65633 0.08179 0.0
H205 H 0.10115 0.64027 0.17753 0.0
H206 H 0.16729 0.57857 0.10523 0.0
Cu207 Cu 0.12816 0.3515 0.90175 0.0
N208 N 0.11657 0.34955 0.87327 0.0
N209 N 0.10636 0.33498 0.84084 0.0
C210 C 0.11767 0.33177 0.85988 0.0
C211 C 0.09785 0.35561 0.84237 0.0
C212 C 0.10423 0.36458 0.86242 0.0
O213 O 0.15085 0.32895 0.90452 0.0
C214 C 0.10242 0.33089 0.93579 0.0
O215 O 0.11801 0.31571 0.93621 0.0
H216 H 0.12598 0.31653 0.86436 0.0
H217 H 0.09987 0.38074 0.86881 0.0
N218 N 0.14005 0.37959 0.90636 0.0
N219 N 0.14728 0.41228 0.92219 0.0
C220 C 0.13614 0.39293 0.9238 0.0
C221 C 0.15411 0.39077 0.89321 0.0
C222 C 0.15863 0.41096 0.90293 0.0
C223 C 0.16735 0.33022 0.91756 0.0
O224 O 0.16931 0.34744 0.93072 0.0
H225 H 0.12554 0.38832 0.9375 0.0
H226 H 0.16052 0.38469 0.87762 0.0
O227 O 0.10406 0.34712 0.92247 0.0
H228 H 0.08773 0.36364 0.82993 0.0
H229 H 0.16918 0.42375 0.89614 0.0
Cu230 Cu 0.87178 0.65036 0.90132 0.0
N231 N 0.8798 0.65187 0.87162 0.0
N232 N 0.88835 0.66653 0.83873 0.0
C233 C 0.88209 0.67062 0.85982 0.0
C234 C 0.8901 0.64426 0.8373 0.0
C235 C 0.88478 0.63526 0.85764 0.0
O236 O 0.85038 0.67379 0.90643 0.0
C237 C 0.89781 0.65749 0.93976 0.0
O238 O 0.87868 0.65748 0.95015 0.0
H239 H 0.87954 0.68695 0.86677 0.0
H240 H 0.88456 0.61787 0.86196 0.0
N241 N 0.85942 0.62274 0.90751 0.0
N242 N 0.85193 0.59063 0.92431 0.0
C243 C 0.86534 0.60853 0.92366 0.0
C244 C 0.8418 0.61349 0.89749 0.0
C245 C 0.83709 0.59369 0.90785 0.0
C246 C 0.83377 0.67226 0.91932 0.0
O247 O 0.83098 0.65419 0.93112 0.0
H248 H 0.87879 0.61158 0.93512 0.0
H249 H 0.8328 0.62086 0.88386 0.0
O250 O 0.89821 0.65483 0.91888 0.0
H251 H 0.89463 0.63509 0.82258 0.0
H252 H 0.82377 0.58246 0.90361 0.0
Cu253 Cu 0.87544 0.34982 0.09814 0.0
N254 N 0.88814 0.3484 0.12617 0.0
N255 N 0.89915 0.33431 0.15855 0.0
C256 C 0.88623 0.33146 0.14052 0.0
C257 C 0.90954 0.35387 0.1554 0.0
C258 C 0.90268 0.36254 0.13539 0.0
O259 O 0.8531 0.32689 0.09626 0.0
C260 C 0.91137 0.32862 0.07757 0.0
O261 O 0.90848 0.31406 0.09349 0.0
H262 H 0.87632 0.31687 0.13728 0.0
H263 H 0.90832 0.37776 0.12779 0.0
N264 N 0.86264 0.37751 0.09362 0.0
N265 N 0.85444 0.41009 0.07813 0.0
C266 C 0.86792 0.39223 0.07773 0.0
C267 C 0.84533 0.38632 0.10453 0.0
C268 C 0.84019 0.40643 0.09498 0.0
C269 C 0.83731 0.32718 0.08231 0.0
O270 O 0.83615 0.34338 0.06783 0.0
H271 H 0.88091 0.38953 0.06566 0.0
H272 H 0.83681 0.37844 0.11819 0.0
O273 O 0.89838 0.34515 0.07629 0.0
H274 H 0.92142 0.36126 0.16662 0.0
H275 H 0.82697 0.41744 0.10002 0.0
H276 H 0.93537 0.18277 0.43679 0.0
H277 H 0.96197 0.18303 0.46732 0.0
H278 H 0.98218 0.11663 0.45046 0.0
H279 H 0.95556 0.1162 0.41992 0.0
H280 H 0.96423 0.15502 0.5037 0.0
H281 H 0.04116 0.14991 0.45353 0.0
H282 H 0.0146 0.15679 0.44161 0.0
H283 H 0.02137 0.12845 0.44778 0.0
C284 C 0.94538 0.16818 0.4396 0.0
C285 C 0.94334 0.14948 0.42583 0.0
C286 C 0.96066 0.1684 0.45701 0.0
C287 C 0.97428 0.14998 0.46096 0.0
C288 C 0.9722 0.13122 0.44738 0.0
H289 H 0.04742 0.11905 0.58067 0.0
H290 H 0.02164 0.1198 0.54953 0.0
C291 C 0.95695 0.131 0.42993 0.0
C292 C 0.99018 0.15022 0.4797 0.0
H293 H 0.04515 0.14583 0.4925 0.0
C294 C 0.98192 0.15307 0.50125 0.0
C295 C 0.01329 0.14791 0.47643 0.0
C296 C 0.02321 0.1458 0.45358 0.0
C297 C 0.99612 0.15331 0.51968 0.0
C298 C 0.01914 0.15037 0.51647 0.0
C299 C 0.02746 0.1479 0.4949 0.0
C300 C 0.03485 0.14992 0.53532 0.0
C301 C 0.98642 0.157 0.54243 0.0
C302 C 0.05109 0.1664 0.53745 0.0
C303 C 0.06581 0.16612 0.55534 0.0
C304 C 0.0647 0.14922 0.57139 0.0
C305 C 0.04855 0.13256 0.56896 0.0
C306 C 0.0338 0.13291 0.55111 0.0
H307 H 0.9694 0.16397 0.54158 0.0
H308 H 0.98556 0.14093 0.55131 0.0
H309 H 0.997 0.16838 0.55227 0.0
H310 H 0.05218 0.17965 0.52539 0.0
H311 H 0.07783 0.17933 0.55672 0.0
H312 H 0.07267 0.82415 0.44522 0.0
H313 H 0.04599 0.82462 0.47569 0.0
H314 H 0.02395 0.88952 0.45558 0.0
H315 H 0.05062 0.8892 0.42508 0.0
H316 H 0.04199 0.85406 0.51087 0.0
H317 H 0.96611 0.85441 0.45886 0.0
H318 H 0.99315 0.84799 0.44781 0.0
H319 H 0.98529 0.87629 0.4527 0.0
C320 C 0.06226 0.83858 0.44733 0.0
C321 C 0.06373 0.85659 0.43259 0.0
C322 C 0.04695 0.83879 0.46471 0.0
C323 C 0.03275 0.85695 0.46771 0.0
C324 C 0.03438 0.8751 0.45327 0.0
H325 H 0.95481 0.8877 0.58514 0.0
H326 H 0.9819 0.88758 0.55507 0.0
C327 C 0.04965 0.87489 0.43583 0.0
C328 C 0.01646 0.85697 0.48613 0.0
H329 H 0.96107 0.85956 0.49751 0.0
C330 C 0.0243 0.85524 0.50797 0.0
C331 C 0.99336 0.85826 0.48227 0.0
C332 C 0.9839 0.85914 0.45915 0.0
C333 C 0.00967 0.85503 0.52607 0.0
C334 C 0.98663 0.85687 0.52223 0.0
C335 C 0.97876 0.85834 0.5004 0.0
C336 C 0.97035 0.85688 0.54064 0.0
C337 C 0.01895 0.85245 0.54914 0.0
C338 C 0.95465 0.83985 0.5423 0.0
C339 C 0.93917 0.83979 0.55954 0.0
C340 C 0.93896 0.8569 0.57541 0.0
C341 C 0.95467 0.87405 0.57353 0.0
C342 C 0.97018 0.87405 0.5563 0.0
H343 H 0.03626 0.84619 0.54891 0.0
H344 H 0.0189 0.86879 0.55755 0.0
H345 H 0.00862 0.84091 0.55908 0.0
H346 H 0.9545 0.82645 0.53035 0.0
H347 H 0.92758 0.82617 0.56053 0.0
H348 H 0.44691 0.92453 0.17662 0.0
H349 H 0.47731 0.95128 0.17709 0.0
H350 H 0.45045 0.98303 0.11903 0.0
H351 H 0.42011 0.95627 0.11829 0.0
H352 H 0.50902 0.96008 0.14435 0.0
H353 H 0.45828 0.03455 0.16278 0.0
H354 H 0.44788 0.00672 0.16624 0.0
H355 H 0.44911 0.01899 0.13913 0.0
C356 C 0.44749 0.93709 0.16386 0.0
C357 C 0.43094 0.93826 0.14748 0.0
C358 C 0.46485 0.95244 0.16422 0.0
C359 C 0.46596 0.96933 0.1483 0.0
C360 C 0.44964 0.97043 0.13178 0.0
H361 H 0.57989 0.05102 0.1152 0.0
H362 H 0.54962 0.02415 0.11529 0.0
C363 C 0.43228 0.9551 0.1314 0.0
C364 C 0.48443 0.98554 0.14874 0.0
H365 H 0.496 0.04073 0.15344 0.0
C366 C 0.5062 0.97771 0.14639 0.0
C367 C 0.4807 0.00849 0.15166 0.0
C368 C 0.45776 0.01774 0.1553 0.0
C369 C 0.52435 0.99227 0.14654 0.0
C370 C 0.52058 0.0153 0.1488 0.0
C371 C 0.49883 0.02309 0.1515 0.0
C372 C 0.539 0.03157 0.14871 0.0
C373 C 0.54744 0.98286 0.14464 0.0
C374 C 0.54278 0.04501 0.16729 0.0
C375 C 0.56009 0.0604 0.1673 0.0
C376 C 0.57391 0.06277 0.14867 0.0
C377 C 0.56988 0.0494 0.12998 0.0
C378 C 0.55256 0.03401 0.12999 0.0
H379 H 0.54784 0.96489 0.14864 0.0
H380 H 0.55342 0.98496 0.12738 0.0
H381 H 0.55908 0.99166 0.15584 0.0
H382 H 0.53247 0.04341 0.1819 0.0
H383 H 0.56281 0.07021 0.18206 0.0
H384 H 0.55691 0.92757 0.82348 0.0
H385 H 0.52625 0.95395 0.8241 0.0
H386 H 0.5471 0.977 0.88839 0.0
H387 H 0.57764 0.95044 0.88812 0.0
H388 H 0.49146 0.95777 0.85568 0.0
H389 H 0.54259 0.03417 0.85084 0.0
H390 H 0.55343 0.00709 0.8442 0.0
H391 H 0.5501 0.0153 0.87261 0.0
C392 C 0.55495 0.93809 0.83785 0.0
C393 C 0.56989 0.93684 0.85573 0.0
C394 C 0.53744 0.95325 0.83811 0.0
C395 C 0.53457 0.96761 0.85615 0.0
C396 C 0.54927 0.96635 0.8741 0.0
H397 H 0.41759 0.04564 0.88844 0.0
H398 H 0.44802 0.01895 0.88833 0.0
C399 C 0.56677 0.95115 0.87389 0.0
C400 C 0.51597 0.98367 0.85628 0.0
H401 H 0.50408 0.03898 0.8568 0.0
C402 C 0.49419 0.97553 0.85592 0.0
C403 C 0.51962 0.00681 0.85636 0.0
C404 C 0.54268 0.01646 0.85583 0.0
C405 C 0.47592 0.98995 0.8559 0.0
C406 C 0.47956 0.01309 0.85646 0.0
C407 C 0.50135 0.02123 0.85655 0.0
C408 C 0.46098 0.02916 0.85652 0.0
C409 C 0.45287 0.98032 0.85487 0.0
C410 C 0.45837 0.04399 0.83884 0.0
C411 C 0.44093 0.05924 0.83879 0.0
C412 C 0.4258 0.06008 0.85653 0.0
C413 C 0.42862 0.04526 0.87432 0.0
C414 C 0.44605 0.02998 0.87432 0.0
H415 H 0.45302 0.96274 0.84943 0.0
H416 H 0.44525 0.98106 0.87159 0.0
H417 H 0.44225 0.98998 0.84336 0.0
H418 H 0.46973 0.04363 0.82494 0.0
H419 H 0.43919 0.07015 0.82468 0.0
H420 H 0.11492 0.42244 0.95182 0.0
H421 H 0.11465 0.45314 0.97818 0.0
H422 H 0.17852 0.47441 0.95433 0.0
H423 H 0.17907 0.44362 0.92804 0.0
H424 H 0.14503 0.46264 0.01204 0.0
H425 H 0.14067 0.53094 0.95058 0.0
H426 H 0.13485 0.50247 0.94347 0.0
H427 H 0.16301 0.51177 0.94618 0.0
C428 C 0.129 0.43352 0.95222 0.0
C429 C 0.14701 0.43052 0.9377 0.0
C430 C 0.12875 0.45114 0.96725 0.0
C431 C 0.14641 0.46623 0.968 0.0
C432 C 0.16449 0.46323 0.9537 0.0
H433 H 0.17786 0.55895 0.07354 0.0
H434 H 0.17749 0.52842 0.04697 0.0
C435 C 0.16477 0.4456 0.93865 0.0
C436 C 0.14611 0.48479 0.98411 0.0
H437 H 0.14675 0.54124 0.98806 0.0
C438 C 0.14536 0.47983 0.00682 0.0
C439 C 0.14627 0.50719 0.97722 0.0
C440 C 0.14604 0.51351 0.95304 0.0
C441 C 0.14513 0.49669 0.02286 0.0
C442 C 0.14594 0.51908 0.01599 0.0
C443 C 0.14633 0.52405 0.99327 0.0
C444 C 0.14619 0.53762 0.03213 0.0
C445 C 0.14366 0.4904 0.04701 0.0
C446 C 0.12894 0.55319 0.03231 0.0
C447 C 0.12908 0.57068 0.04752 0.0
C448 C 0.14655 0.57302 0.06279 0.0
C449 C 0.16394 0.55747 0.06235 0.0
C450 C 0.16377 0.54 0.04714 0.0
H451 H 0.13765 0.47314 0.04922 0.0
H452 H 0.16037 0.49161 0.05459 0.0
H453 H 0.13242 0.50178 0.0561 0.0
H454 H 0.11523 0.55168 0.02083 0.0
H455 H 0.1153 0.58214 0.04749 0.0
H456 H 0.81732 0.56632 0.93932 0.0
H457 H 0.81855 0.53596 0.9661 0.0
H458 H 0.88947 0.54323 0.97118 0.0
H459 H 0.88826 0.57385 0.94464 0.0
H460 H 0.83913 0.49648 0.96415 0.0
H461 H 0.87185 0.54418 0.03555 0.0
H462 H 0.86169 0.55741 0.01075 0.0
H463 H 0.88916 0.54582 0.01145 0.0
C464 C 0.83318 0.56141 0.94608 0.0
C465 C 0.85269 0.57256 0.93992 0.0
C466 C 0.83385 0.54411 0.96146 0.0
C467 C 0.85404 0.53755 0.97098 0.0
C468 C 0.87361 0.54839 0.96457 0.0
H469 H 0.89 0.42755 0.057 0.0
H470 H 0.89005 0.45854 0.03073 0.0
C471 C 0.87292 0.56585 0.94933 0.0
C472 C 0.85459 0.51899 0.98714 0.0
H473 H 0.87029 0.505 0.03974 0.0
C474 C 0.84585 0.4984 0.9807 0.0
C475 C 0.86334 0.5215 0.00878 0.0
C476 C 0.87184 0.54347 0.01716 0.0
C477 C 0.84584 0.48022 0.99521 0.0
C478 C 0.85475 0.48271 0.0167 0.0
C479 C 0.86357 0.5032 0.02317 0.0
C480 C 0.85474 0.46423 0.03279 0.0
C481 C 0.83651 0.45837 0.98747 0.0
C482 C 0.8349 0.45739 0.04275 0.0
C483 C 0.83483 0.43979 0.0578 0.0
C484 C 0.8546 0.42862 0.06305 0.0
C485 C 0.87448 0.43565 0.0531 0.0
C486 C 0.87456 0.45339 0.0382 0.0
H487 H 0.83336 0.45821 0.96933 0.0
H488 H 0.84805 0.44465 0.99163 0.0
H489 H 0.82062 0.45514 0.99615 0.0
H490 H 0.81946 0.46566 0.03882 0.0
H491 H 0.81923 0.43465 0.06499 0.0
H492 H 0.19169 0.07762 0.6679 0.0
H493 H 0.22031 0.07091 0.69577 0.0
H494 H 0.19192 0.12156 0.73734 0.0
H495 H 0.16352 0.12871 0.7095 0.0
H496 H 0.2514 0.10212 0.71372 0.0
H497 H 0.19636 0.0667 0.77834 0.0
H498 H 0.18819 0.06892 0.74964 0.0
H499 H 0.18733 0.09285 0.76734 0.0
C500 C 0.19157 0.08746 0.68287 0.0
C501 C 0.17514 0.10365 0.68642 0.0
C502 C 0.20789 0.0835 0.69884 0.0
C503 C 0.208 0.09549 0.71874 0.0
C504 C 0.19183 0.11179 0.72228 0.0
H505 H 0.28833 0.10654 0.83572 0.0
H506 H 0.26012 0.10842 0.80679 0.0
C507 C 0.17556 0.11582 0.70632 0.0
C508 C 0.22536 0.09144 0.7356 0.0
H509 H 0.23309 0.0757 0.78937 0.0
C510 C 0.24748 0.09615 0.73021 0.0
C511 C 0.22013 0.08366 0.75707 0.0
C512 C 0.19675 0.07754 0.76347 0.0
C513 C 0.26445 0.09402 0.74599 0.0
C514 C 0.25917 0.08653 0.76758 0.0
C515 C 0.23709 0.08145 0.77283 0.0
C516 C 0.27617 0.0847 0.78524 0.0
C517 C 0.28773 0.1006 0.73964 0.0
C518 C 0.29438 0.07042 0.78291 0.0
C519 C 0.31064 0.06935 0.79941 0.0
C520 C 0.30885 0.08242 0.81863 0.0
C521 C 0.29027 0.09628 0.82113 0.0
C522 C 0.2741 0.09738 0.80461 0.0
H523 H 0.28802 0.11094 0.72442 0.0
H524 H 0.29587 0.10992 0.75325 0.0
H525 H 0.29762 0.08545 0.73638 0.0
H526 H 0.29606 0.06014 0.7683 0.0
H527 H 0.32465 0.0584 0.79703 0.0
H528 H 0.70922 0.8945 0.83667 0.0
H529 H 0.73794 0.89363 0.80823 0.0
H530 H 0.69966 0.9384 0.76783 0.0
H531 H 0.67056 0.93915 0.79611 0.0
H532 H 0.71496 0.90184 0.74472 0.0
H533 H 0.78347 0.94061 0.79195 0.0
H534 H 0.77108 0.91761 0.80614 0.0
H535 H 0.75495 0.94211 0.80084 0.0
C536 C 0.70695 0.90436 0.82185 0.0
C537 C 0.68758 0.91695 0.8187 0.0
C538 C 0.72348 0.90393 0.80565 0.0
C539 C 0.72111 0.91622 0.78606 0.0
C540 C 0.70187 0.92891 0.7829 0.0
H541 H 0.8041 0.92218 0.66709 0.0
H542 H 0.77488 0.92845 0.69446 0.0
C543 C 0.68529 0.92934 0.7991 0.0
C544 C 0.7382 0.91484 0.76846 0.0
H545 H 0.79349 0.92178 0.75859 0.0
C546 C 0.73209 0.90644 0.74764 0.0
C547 C 0.76053 0.92085 0.77233 0.0
C548 C 0.7679 0.931 0.79395 0.0
C549 C 0.74786 0.90315 0.73084 0.0
C550 C 0.77026 0.90868 0.73491 0.0
C551 C 0.77631 0.91747 0.75557 0.0
C552 C 0.78781 0.90489 0.71817 0.0
C553 C 0.74058 0.89308 0.70915 0.0
C554 C 0.80493 0.88982 0.72256 0.0
C555 C 0.82162 0.88614 0.70694 0.0
C556 C 0.82163 0.89759 0.68662 0.0
C557 C 0.80446 0.9128 0.68236 0.0
C558 C 0.78774 0.91644 0.698 0.0
H559 H 0.72385 0.88548 0.71035 0.0
H560 H 0.73998 0.9062 0.69629 0.0
H561 H 0.75252 0.88023 0.7036 0.0
H562 H 0.80527 0.88073 0.73804 0.0
H563 H 0.83434 0.8741 0.71072 0.0
H564 H 0.31488 0.8891 0.191 0.0
H565 H 0.28855 0.88649 0.22163 0.0
H566 H 0.25963 0.9489 0.20238 0.0
H567 H 0.28586 0.95164 0.17152 0.0
H568 H 0.28092 0.91629 0.25742 0.0
H569 H 0.20663 0.90533 0.20406 0.0
H570 H 0.2345 0.902 0.19372 0.0
H571 H 0.22333 0.92924 0.19803 0.0
C572 C 0.30296 0.90232 0.19325 0.0
C573 C 0.3024 0.92053 0.17871 0.0
C574 C 0.28795 0.90081 0.21081 0.0
C575 C 0.272 0.91737 0.21411 0.0
C576 C 0.27163 0.93578 0.19991 0.0
H577 H 0.18726 0.93132 0.3308 0.0
H578 H 0.21528 0.93701 0.30205 0.0
C579 C 0.28669 0.93736 0.18235 0.0
C580 C 0.25565 0.91512 0.23229 0.0
H581 H 0.2005 0.90793 0.24262 0.0
C582 C 0.26332 0.91454 0.25424 0.0
C583 C 0.23276 0.91255 0.228 0.0
C584 C 0.22373 0.91211 0.20469 0.0
C585 C 0.24866 0.91151 0.27207 0.0
C586 C 0.22573 0.90926 0.2678 0.0
C587 C 0.21808 0.90981 0.24584 0.0
C588 C 0.20939 0.90561 0.28578 0.0
C589 C 0.25789 0.91019 0.29526 0.0
C590 C 0.19664 0.88619 0.28605 0.0
C591 C 0.18063 0.8829 0.30243 0.0
C592 C 0.17693 0.89903 0.31885 0.0
C593 C 0.18989 0.91841 0.31864 0.0
C594 C 0.20591 0.92171 0.3022 0.0
H595 H 0.27603 0.90703 0.29525 0.0
H596 H 0.2549 0.92615 0.30388 0.0
H597 H 0.24958 0.89688 0.30487 0.0
H598 H 0.19908 0.87355 0.27354 0.0
H599 H 0.17118 0.86767 0.30225 0.0
H600 H 0.67536 0.06286 0.20728 0.0
H601 H 0.70403 0.06598 0.23587 0.0
H602 H 0.7414 0.10996 0.19379 0.0
H603 H 0.71288 0.10712 0.16524 0.0
H604 H 0.75075 0.05695 0.23386 0.0
H605 H 0.73293 0.14539 0.25174 0.0
H606 H 0.71401 0.1279 0.23655 0.0
H607 H 0.73791 0.13941 0.22302 0.0
C608 C 0.68973 0.07311 0.20405 0.0
C609 C 0.69173 0.08488 0.18403 0.0
C610 C 0.70609 0.07486 0.22041 0.0
C611 C 0.72461 0.0885 0.21707 0.0
C612 C 0.727 0.09968 0.19684 0.0
H613 H 0.83957 0.12985 0.29073 0.0
H614 H 0.81049 0.12315 0.26348 0.0
C615 C 0.71072 0.09793 0.1805 0.0
C616 C 0.74137 0.09133 0.23478 0.0
H617 H 0.76533 0.13026 0.26808 0.0
C618 C 0.75387 0.07292 0.24149 0.0
C619 C 0.74532 0.11219 0.24469 0.0
C620 C 0.73172 0.13234 0.23882 0.0
C621 C 0.77077 0.07497 0.25738 0.0
C622 C 0.77492 0.09592 0.26707 0.0
C623 C 0.76217 0.11424 0.26057 0.0
C624 C 0.79276 0.09939 0.28361 0.0
C625 C 0.78446 0.05488 0.26316 0.0
C626 C 0.79235 0.0884 0.30409 0.0
C627 C 0.8091 0.09207 0.3197 0.0
C628 C 0.82652 0.1069 0.31517 0.0
C629 C 0.82669 0.11803 0.29468 0.0
C630 C 0.80997 0.11434 0.27911 0.0
H631 H 0.78282 0.04161 0.25051 0.0
H632 H 0.80225 0.05929 0.26481 0.0
H633 H 0.77875 0.0481 0.27926 0.0
H634 H 0.77899 0.07711 0.30809 0.0
H635 H 0.80847 0.08311 0.33521 0.0
H636 H 0.70706 0.16882 0.13249 0.0
H637 H 0.73495 0.19727 0.12543 0.0
H638 H 0.6937 0.22522 0.07424 0.0
H639 H 0.6657 0.19672 0.08115 0.0
H640 H 0.75756 0.20556 0.08596 0.0
H641 H 0.70894 0.27912 0.11253 0.0
H642 H 0.70076 0.25117 0.1193 0.0
H643 H 0.69576 0.26202 0.09204 0.0
C644 C 0.70391 0.18096 0.11968 0.0
C645 C 0.68412 0.18046 0.10738 0.0
C646 C 0.71984 0.19727 0.11573 0.0
C647 C 0.71629 0.2135 0.09949 0.0
C648 C 0.69657 0.21312 0.08717 0.0
H649 H 0.79978 0.32403 0.05693 0.0
H650 H 0.77051 0.29601 0.05945 0.0
C651 C 0.68058 0.19682 0.09115 0.0
C652 C 0.7336 0.23036 0.09511 0.0
H653 H 0.74421 0.28591 0.09689 0.0
C654 C 0.75465 0.22313 0.08834 0.0
C655 C 0.72971 0.25328 0.09811 0.0
C656 C 0.70764 0.26193 0.10607 0.0
C657 C 0.77195 0.23819 0.08454 0.0
C658 C 0.76817 0.26106 0.08794 0.0
C659 C 0.74702 0.26836 0.09429 0.0
C660 C 0.78621 0.27759 0.08588 0.0
C661 C 0.79407 0.22951 0.07677 0.0
C662 C 0.80464 0.27658 0.10001 0.0
C663 C 0.82136 0.29251 0.09863 0.0
C664 C 0.81993 0.30987 0.08314 0.0
C665 C 0.80144 0.31083 0.06897 0.0
C666 C 0.78468 0.29488 0.07041 0.0
H667 H 0.79252 0.21283 0.06914 0.0
H668 H 0.80173 0.24092 0.06453 0.0
H669 H 0.8054 0.22811 0.09117 0.0
H670 H 0.80593 0.26362 0.11236 0.0
H671 H 0.83529 0.29132 0.10988 0.0
H672 H 0.16292 0.71517 0.0958 0.0
H673 H 0.19052 0.74477 0.0971 0.0
H674 H 0.24126 0.69855 0.07721 0.0
H675 H 0.21372 0.66892 0.07546 0.0
H676 H 0.22713 0.74616 0.12399 0.0
H677 H 0.25266 0.75039 0.03578 0.0
H678 H 0.22789 0.73619 0.04468 0.0
H679 H 0.25452 0.72314 0.04754 0.0
C680 C 0.17989 0.71134 0.0914 0.0
C681 C 0.18609 0.68966 0.08549 0.0
C682 C 0.19565 0.72828 0.09219 0.0
C683 C 0.2179 0.72394 0.087 0.0
C684 C 0.22411 0.7024 0.08081 0.0
H685 H 0.33941 0.80071 0.09676 0.0
H686 H 0.31168 0.77158 0.09165 0.0
C687 C 0.20834 0.68544 0.07994 0.0
C688 C 0.2348 0.74164 0.08943 0.0
H689 H 0.27475 0.77046 0.06155 0.0
C690 C 0.23745 0.75157 0.1103 0.0
C691 C 0.24831 0.74859 0.07158 0.0
C692 C 0.24562 0.73919 0.04858 0.0
C693 C 0.25344 0.76806 0.11389 0.0
C694 C 0.26694 0.775 0.09605 0.0
C695 C 0.26438 0.76505 0.0752 0.0
C696 C 0.28367 0.79277 0.09872 0.0
C697 C 0.25605 0.77762 0.13685 0.0
C698 C 0.27706 0.8144 0.10404 0.0
C699 C 0.29283 0.8311 0.10686 0.0
C700 C 0.31557 0.82655 0.10434 0.0
C701 C 0.32208 0.80488 0.09867 0.0
C702 C 0.30626 0.78818 0.09582 0.0
H703 H 0.24833 0.76689 0.14966 0.0
H704 H 0.27382 0.77994 0.14101 0.0
H705 H 0.24785 0.79406 0.13752 0.0
H706 H 0.25966 0.81838 0.1059 0.0
H707 H 0.28712 0.84764 0.11073 0.0
H708 H 0.83421 0.71126 0.89631 0.0
H709 H 0.80525 0.73944 0.89485 0.0
H710 H 0.76609 0.70199 0.94142 0.0
H711 H 0.79493 0.67348 0.94282 0.0
H712 H 0.74257 0.71533 0.90395 0.0
H713 H 0.78801 0.7862 0.94063 0.0
H714 H 0.80254 0.7732 0.91817 0.0
H715 H 0.79746 0.75793 0.94325 0.0
C716 C 0.81957 0.70909 0.90646 0.0
C717 C 0.81692 0.6901 0.91972 0.0
C718 C 0.80307 0.7253 0.90569 0.0
C719 C 0.78366 0.72296 0.91826 0.0
C720 C 0.78102 0.70416 0.93169 0.0
H721 H 0.6623 0.80269 0.92071 0.0
H722 H 0.6903 0.77429 0.92796 0.0
C723 C 0.79754 0.68792 0.93249 0.0
C724 C 0.76564 0.73954 0.91635 0.0
H725 H 0.75435 0.79471 0.92167 0.0
C726 C 0.74503 0.73265 0.90806 0.0
C727 C 0.76893 0.76212 0.9217 0.0
C728 C 0.79036 0.77031 0.93163 0.0
C729 C 0.72786 0.74788 0.90421 0.0
C730 C 0.73132 0.77052 0.90913 0.0
C731 C 0.75178 0.77734 0.91783 0.0
C732 C 0.71417 0.78754 0.90474 0.0
C733 C 0.70645 0.73974 0.89419 0.0
C734 C 0.71845 0.80459 0.88956 0.0
C735 C 0.7025 0.82083 0.88537 0.0
C736 C 0.68195 0.82043 0.89639 0.0
C737 C 0.67776 0.80332 0.91167 0.0
C738 C 0.69376 0.78707 0.91586 0.0
H739 H 0.70824 0.72296 0.88683 0.0
H740 H 0.69358 0.73887 0.90729 0.0
H741 H 0.70052 0.75129 0.88116 0.0
H742 H 0.7341 0.80524 0.8808 0.0
H743 H 0.70621 0.83354 0.8733 0.0
H744 H 0.33458 0.19439 0.92292 0.0
H745 H 0.30723 0.22365 0.92924 0.0
H746 H 0.2644 0.19436 0.88016 0.0
H747 H 0.29165 0.16526 0.87355 0.0
H748 H 0.28924 0.25426 0.89865 0.0
H749 H 0.22402 0.20045 0.93466 0.0
H750 H 0.25249 0.19164 0.93191 0.0
H751 H 0.23426 0.19103 0.90836 0.0
C752 C 0.31942 0.19422 0.91336 0.0
C753 C 0.31529 0.17731 0.89784 0.0
C754 C 0.30376 0.21091 0.91709 0.0
C755 C 0.28363 0.21093 0.90546 0.0
C756 C 0.2796 0.19434 0.88971 0.0
H757 H 0.16807 0.2927 0.89224 0.0
H758 H 0.19694 0.2644 0.89066 0.0
C759 C 0.29522 0.17768 0.88597 0.0
C760 C 0.26698 0.22855 0.90937 0.0
H761 H 0.21318 0.23705 0.92467 0.0
C762 C 0.27267 0.25057 0.90455 0.0
C763 C 0.24541 0.22365 0.9171 0.0
C764 C 0.23868 0.20044 0.92352 0.0
C765 C 0.25708 0.26775 0.90648 0.0
C766 C 0.23537 0.26276 0.91378 0.0
C767 C 0.22982 0.2408 0.91902 0.0
C768 C 0.21787 0.27994 0.91525 0.0
C769 C 0.26373 0.29094 0.89991 0.0
C770 C 0.21991 0.29791 0.92987 0.0
C771 C 0.20342 0.31418 0.93082 0.0
C772 C 0.18454 0.31269 0.91723 0.0
C773 C 0.1824 0.29442 0.9029 0.0
C774 C 0.19888 0.2782 0.90198 0.0
H775 H 0.27929 0.29111 0.89007 0.0
H776 H 0.25044 0.29901 0.89008 0.0
H777 H 0.26647 0.30096 0.91507 0.0
H778 H 0.23426 0.29933 0.94056 0.0
H779 H 0.20553 0.32796 0.94211 0.0
H780 H 0.04721 0.82672 0.29546 0.0
H781 H 0.04958 0.79612 0.26884 0.0
H782 H 0.11867 0.78744 0.28482 0.0
H783 H 0.11646 0.81771 0.31151 0.0
H784 H 0.07693 0.79254 0.23162 0.0
H785 H 0.09362 0.72473 0.29122 0.0
H786 H 0.08318 0.75145 0.29972 0.0
H787 H 0.11222 0.74776 0.2941 0.0
C788 C 0.06287 0.8182 0.29341 0.0
C789 C 0.08161 0.8246 0.30571 0.0
C790 C 0.0642 0.80075 0.27818 0.0
C791 C 0.08421 0.78929 0.27513 0.0
C792 C 0.10294 0.79573 0.28727 0.0
H793 H 0.13036 0.71093 0.16517 0.0
H794 H 0.12235 0.73957 0.1926 0.0
C795 C 0.10166 0.81315 0.30244 0.0
C796 C 0.08585 0.7711 0.2587 0.0
H797 H 0.10042 0.71674 0.25305 0.0
C798 C 0.08187 0.77591 0.2363 0.0
C799 C 0.092 0.74935 0.26489 0.0
C800 C 0.09529 0.74291 0.28882 0.0
C801 C 0.08463 0.75971 0.21982 0.0
C802 C 0.0919 0.73827 0.22591 0.0
C803 C 0.09511 0.73326 0.24839 0.0
C804 C 0.09662 0.72089 0.20918 0.0
C805 C 0.07965 0.7657 0.19607 0.0
C806 C 0.08528 0.70061 0.20976 0.0
C807 C 0.08989 0.68414 0.19412 0.0
C808 C 0.10601 0.68761 0.17763 0.0
C809 C 0.11755 0.70786 0.17733 0.0
C810 C 0.11297 0.72428 0.193 0.0
H811 H 0.06841 0.78024 0.19497 0.0
H812 H 0.09534 0.77005 0.18753 0.0
H813 H 0.07195 0.75159 0.18713 0.0
H814 H 0.07268 0.69761 0.22219 0.0
H815 H 0.08055 0.66885 0.19473 0.0
H816 H 0.07006 0.2137 0.66812 0.0
H817 H 0.07223 0.24237 0.69675 0.0
H818 H 0.10004 0.19502 0.74238 0.0
H819 H 0.09804 0.16621 0.71391 0.0
H820 H 0.06358 0.22425 0.75925 0.0
H821 H 0.13356 0.26871 0.71876 0.0
H822 H 0.11009 0.26195 0.70164 0.0
H823 H 0.12702 0.24015 0.71265 0.0
C824 C 0.07652 0.20932 0.68428 0.0
C825 C 0.08399 0.18768 0.68869 0.0
C826 C 0.0778 0.22575 0.70057 0.0
C827 C 0.08648 0.22081 0.72155 0.0
C828 C 0.09335 0.19912 0.72624 0.0
H829 H 0.13483 0.30274 0.82813 0.0
H830 H 0.12914 0.27522 0.79888 0.0
C831 C 0.09221 0.18271 0.70993 0.0
C832 C 0.0889 0.23836 0.7385 0.0
H833 H 0.11897 0.28452 0.75141 0.0
C834 C 0.0756 0.23749 0.75754 0.0
C835 C 0.10476 0.25545 0.73622 0.0
C836 C 0.11984 0.25668 0.71632 0.0
C837 C 0.07768 0.25342 0.77438 0.0
C838 C 0.09345 0.27058 0.77203 0.0
C839 C 0.10681 0.27138 0.75303 0.0
C840 C 0.09681 0.28746 0.78949 0.0
C841 C 0.06337 0.2516 0.79478 0.0
C842 C 0.0806 0.30359 0.79365 0.0
C843 C 0.08384 0.31938 0.81031 0.0
C844 C 0.10329 0.31921 0.82316 0.0
C845 C 0.11956 0.30313 0.81874 0.0
C846 C 0.11639 0.28748 0.80197 0.0
H847 H 0.05455 0.23546 0.79563 0.0
H848 H 0.07355 0.25362 0.80997 0.0
H849 H 0.05082 0.26504 0.79462 0.0
H850 H 0.06545 0.30393 0.78403 0.0
H851 H 0.07093 0.33142 0.81342 0.0
H852 H 0.87083 0.70779 0.83554 0.0
H853 H 0.87833 0.7354 0.80698 0.0
H854 H 0.92247 0.68981 0.7742 0.0
H855 H 0.91522 0.66207 0.80287 0.0
H856 H 0.91967 0.75393 0.79501 0.0
H857 H 0.88019 0.70969 0.72447 0.0
H858 H 0.87522 0.70212 0.75297 0.0
H859 H 0.90059 0.69415 0.7396 0.0
C860 C 0.88224 0.70362 0.82237 0.0
C861 C 0.89242 0.68266 0.82155 0.0
C862 C 0.88643 0.71941 0.80598 0.0
C863 C 0.90077 0.71457 0.78836 0.0
C864 C 0.91102 0.69373 0.78744 0.0
H865 H 0.93749 0.79463 0.67329 0.0
H866 H 0.9358 0.76549 0.70147 0.0
C867 C 0.90683 0.67788 0.80384 0.0
C868 C 0.90522 0.7316 0.77124 0.0
H869 H 0.89821 0.74344 0.71636 0.0
C870 C 0.91502 0.75164 0.7778 0.0
C871 C 0.89924 0.72849 0.74879 0.0
C872 C 0.88807 0.70754 0.74097 0.0
C873 C 0.91895 0.76872 0.76252 0.0
C874 C 0.91251 0.76582 0.74017 0.0
C875 C 0.90313 0.7456 0.73351 0.0
C876 C 0.91446 0.78388 0.72363 0.0
C877 C 0.93011 0.78965 0.77041 0.0
C878 C 0.90295 0.80384 0.72671 0.0
C879 C 0.90391 0.82052 0.7107 0.0
C880 C 0.91626 0.81751 0.69116 0.0
C881 C 0.92787 0.79752 0.68816 0.0
C882 C 0.92691 0.78083 0.70422 0.0
H883 H 0.93973 0.78678 0.78584 0.0
H884 H 0.94141 0.79641 0.75757 0.0
H885 H 0.91729 0.80232 0.77406 0.0
H886 H 0.89285 0.80636 0.74133 0.0
H887 H 0.89464 0.83564 0.7135 0.0
H888 H 0.9387 0.21094 0.32934 0.0
H889 H 0.93668 0.23989 0.301 0.0
H890 H 0.90245 0.19498 0.25727 0.0
H891 H 0.90434 0.1659 0.28546 0.0
H892 H 0.93896 0.22116 0.23765 0.0
H893 H 0.87675 0.27131 0.28375 0.0
H894 H 0.90104 0.26295 0.29887 0.0
H895 H 0.88164 0.24239 0.28967 0.0
C896 C 0.93086 0.20714 0.31365 0.0
C897 C 0.92156 0.18613 0.30971 0.0
C898 C 0.92965 0.22374 0.29753 0.0
C899 C 0.9192 0.2196 0.27719 0.0
C900 C 0.91051 0.19848 0.27293 0.0
H901 H 0.869 0.30537 0.17474 0.0
H902 H 0.87478 0.27783 0.20396 0.0
C903 C 0.91159 0.18191 0.28907 0.0
C904 C 0.91689 0.23739 0.26048 0.0
H905 H 0.89001 0.28607 0.25004 0.0
C906 C 0.92835 0.23542 0.24036 0.0
C907 C 0.90287 0.25581 0.26406 0.0
C908 C 0.8897 0.25831 0.28517 0.0
C909 C 0.92621 0.25151 0.22369 0.0
C910 C 0.9123 0.27 0.22733 0.0
C911 C 0.90078 0.27193 0.24742 0.0
C912 C 0.90884 0.28709 0.21011 0.0
C913 C 0.93842 0.24844 0.2021 0.0
C914 C 0.926 0.30159 0.20418 0.0
C915 C 0.92273 0.31739 0.18753 0.0
C916 C 0.90226 0.31884 0.17647 0.0
C917 C 0.88502 0.30447 0.18274 0.0
C918 C 0.88826 0.28882 0.19949 0.0
H919 H 0.94558 0.23156 0.20053 0.0
H920 H 0.92716 0.25146 0.18786 0.0
H921 H 0.95214 0.26065 0.20109 0.0
H922 H 0.94195 0.30061 0.21235 0.0
H923 H 0.93637 0.32808 0.18297 0.0
H924 H 0.04683 0.08005 0.64042 0.0
H925 H 0.02341 0.04704 0.64099 0.0
H926 H 0.04774 0.03066 0.70613 0.0
H927 H 0.0711 0.0638 0.70584 0.0
H928 H 0.0377 0.00318 0.64509 0.0
H929 H 0.98007 0.02629 0.71305 0.0
H930 H 0.99752 0.04627 0.69921 0.0
H931 H 0.00898 0.02822 0.71992 0.0
C932 C 0.04708 0.06956 0.65498 0.0
C933 C 0.06082 0.07459 0.67312 0.0
C934 C 0.0337 0.05067 0.65524 0.0
C935 C 0.03369 0.03653 0.67368 0.0
C936 C 0.04723 0.04157 0.6919 0.0
H937 H 0.98488 0.90038 0.67312 0.0
H938 H 0.0079 0.93363 0.67628 0.0
C939 C 0.06064 0.06047 0.69165 0.0
C940 C 0.02016 0.01605 0.67336 0.0
H941 H 0.97733 0.98963 0.69921 0.0
C942 C 0.0245 1.00019 0.65692 0.0
C943 C 0.00285 0.01233 0.6887 0.0
C944 C 0.99687 0.02923 0.70612 0.0
C945 C 0.01203 0.98062 0.65544 0.0
C946 C 0.995 0.97669 0.67104 0.0
C947 C 0.99056 0.99261 0.68742 0.0
C948 C 0.98103 0.95654 0.67008 0.0
C949 C 0.01686 0.96458 0.63688 0.0
C950 C 0.9582 0.95845 0.66617 0.0
C951 C 0.945 0.93952 0.66446 0.0
C952 C 0.95436 0.9183 0.66673 0.0
C953 C 0.97717 0.91646 0.67115 0.0
C954 C 0.99037 0.93543 0.67286 0.0
H955 H 0.02678 0.97237 0.62347 0.0
H956 H 0.02644 0.95036 0.6435 0.0
H957 H 0.00125 0.95805 0.62963 0.0
H958 H 0.95067 0.9746 0.66405 0.0
H959 H 0.92748 0.94155 0.66112 0.0
H960 H 0.98251 0.09911 0.3113 0.0
H961 H 0.00481 0.06539 0.30806 0.0
H962 H 0.95793 0.03034 0.34905 0.0
H963 H 0.93533 0.06374 0.35198 0.0
H964 H 0.02501 0.0416 0.34055 0.0
H965 H 0.964 0.98855 0.29705 0.0
H966 H 0.96059 0.01814 0.29962 0.0
H967 H 0.95334 1.00015 0.32226 0.0
C968 C 0.97686 0.08419 0.3195 0.0
C969 C 0.95707 0.08409 0.33179 0.0
C970 C 0.98963 0.06493 0.31763 0.0
C971 C 0.98282 0.04524 0.32796 0.0
C972 C 0.9632 0.04517 0.34043 0.0
H973 H 0.0418 0.91768 0.35421 0.0
H974 H 0.01823 0.95065 0.35228 0.0
C975 C 0.95038 0.06435 0.34222 0.0
C976 C 0.99671 0.02501 0.32651 0.0
H977 H 0.9956 0.9702 0.31233 0.0
C978 C 0.01865 0.02605 0.33417 0.0
C979 C 0.98837 0.00472 0.31818 0.0
C980 C 0.96536 0.00282 0.3086 0.0
C981 C 0.0323 0.00723 0.33425 0.0
C982 C 0.02381 0.9869 0.32632 0.0
C983 C 0.00198 0.98585 0.31847 0.0
C984 C 0.03734 0.96648 0.32644 0.0
C985 C 0.05553 0.00902 0.34331 0.0
C986 C 0.05556 0.96434 0.3122 0.0
C987 C 0.06899 0.9455 0.31315 0.0
C988 C 0.06445 0.92851 0.32845 0.0
C989 C 0.0458 0.93049 0.3423 0.0
C990 C 0.03231 0.94928 0.34122 0.0
H991 H 0.05828 0.02489 0.35223 0.0
H992 H 0.05906 0.99508 0.35479 0.0
H993 H 0.06755 0.00805 0.32943 0.0
H994 H 0.05954 0.97739 0.30053 0.0
H995 H 0.0832 0.94449 0.30223 0.0
H996 H 0.66066 0.9833 0.90423 0.0
H997 H 0.66326 0.00445 0.93878 0.0
H998 H 0.66023 0.94377 0.97633 0.0
H999 H 0.65778 0.92249 0.942 0.0
H1000 H 0.63161 0.00425 0.97377 0.0
H1001 H 0.71441 0.97623 0.00253 0.0
H1002 H 0.70523 0.973 0.97423 0.0
H1003 H 0.6956 0.95432 0.99531 0.0
C1004 C 0.66074 0.97444 0.91983 0.0
C1005 C 0.65906 0.95121 0.92035 0.0
C1006 C 0.6622 0.98655 0.93954 0.0
C1007 C 0.66223 0.97564 0.96007 0.0
C1008 C 0.66066 0.95247 0.96064 0.0
H1009 H 0.66137 0.01695 0.0978 0.0
H1010 H 0.66225 0.99618 0.06294 0.0
C1011 C 0.65912 0.94036 0.94099 0.0
C1012 C 0.66279 0.98852 0.98094 0.0
H1013 H 0.69284 0.9969 0.02814 0.0
C1014 C 0.64506 0.00279 0.98561 0.0
C1015 C 0.68029 0.9864 0.99637 0.0
C1016 C 0.70008 0.97181 0.99185 0.0
C1017 C 0.64412 0.01473 0.00553 0.0
C1018 C 0.66166 0.01269 0.02096 0.0
C1019 C 0.67943 0.99843 0.01628 0.0
C1020 C 0.66186 0.02529 0.04203 0.0
C1021 C 0.62409 0.02898 0.01012 0.0
C1022 C 0.66182 0.04853 0.04181 0.0
C1023 C 0.66122 0.06042 0.06164 0.0
C1024 C 0.66088 0.0493 0.08213 0.0
C1025 C 0.66156 0.02602 0.08232 0.0
C1026 C 0.66208 0.01412 0.06242 0.0
H1027 H 0.60972 0.02411 0.99968 0.0
H1028 H 0.61912 0.02793 0.0278 0.0
H1029 H 0.62814 0.0465 0.00632 0.0
H1030 H 0.66217 0.05748 0.02626 0.0
H1031 H 0.66091 0.07835 0.06089 0.0
H1032 H 0.29674 0.92563 0.06304 0.0
H1033 H 0.29632 0.94846 0.0295 0.0
H1034 H 0.35678 0.98033 0.05026 0.0
H1035 H 0.35747 0.95754 0.08372 0.0
H1036 H 0.29683 0.99561 0.02392 0.0
H1037 H 0.37124 0.95497 0.98816 0.0
H1038 H 0.35587 0.94324 0.01099 0.0
H1039 H 0.37496 0.96559 0.01572 0.0
C1040 C 0.30987 0.9376 0.06056 0.0
C1041 C 0.32724 0.93962 0.07597 0.0
C1042 C 0.30959 0.95062 0.04139 0.0
C1043 C 0.32671 0.96578 0.03726 0.0
C1044 C 0.34363 0.96842 0.05297 0.0
H1045 H 0.33646 0.0719 0.94183 0.0
H1046 H 0.33229 0.04908 0.975 0.0
C1047 C 0.34392 0.95545 0.07214 0.0
C1048 C 0.32719 0.97852 0.0163 0.0
H1049 H 0.35789 0.98691 0.96954 0.0
C1050 C 0.31011 0.99368 0.01197 0.0
C1051 C 0.34437 0.97568 1.00061 0.0
C1052 C 0.36257 0.95885 0.00393 0.0
C1053 C 0.31008 0.00655 0.99257 0.0
C1054 C 0.32771 0.00429 0.97729 0.0
C1055 C 0.34448 0.98872 0.98137 0.0
C1056 C 0.32933 0.01816 0.95711 0.0
C1057 C 0.29112 0.02232 0.98851 0.0
C1058 C 0.32941 0.00829 0.93606 0.0
C1059 C 0.33187 0.02128 0.91703 0.0
C1060 C 0.3345 0.04436 0.91875 0.0
C1061 C 0.33439 0.05418 0.93989 0.0
C1062 C 0.33187 0.04118 0.95888 0.0
H1063 H 0.27636 0.01797 0.99861 0.0
H1064 H 0.29633 0.03933 0.99311 0.0
H1065 H 0.28633 0.02241 0.97075 0.0
H1066 H 0.32761 0.99051 0.93437 0.0
H1067 H 0.33194 0.01319 0.90101 0.0
H1068 H 0.90338 0.66001 0.98472 0.0
H1069 H 0.93833 0.66236 0.00519 0.0
H1070 H 0.97462 0.66184 0.94366 0.0
H1071 H 0.93985 0.65964 0.92304 0.0
H1072 H 0.97368 0.63124 0.00325 0.0
H1073 H 1.0008 0.71527 0.97732 0.0
H1074 H 0.97257 0.70581 0.97433 0.0
H1075 H 0.99342 0.69701 0.95499 0.0
C1076 C 0.91878 0.66059 0.97552 0.0
C1077 C 0.91882 0.65969 0.95224 0.0
C1078 C 0.93872 0.66191 0.98725 0.0
C1079 C 0.95901 0.66257 0.97592 0.0
C1080 C 0.95911 0.66177 0.9527 0.0
H1081 H 0.09733 0.66277 0.01602 0.0
H1082 H 0.06238 0.66352 0.99538 0.0
C1083 C 0.93921 0.66038 0.94096 0.0
C1084 C 0.98013 0.663 0.98839 0.0
H1085 H 0.02695 0.69356 0.9971 0.0
C1086 C 0.98528 0.64491 0.00204 0.0
C1087 C 0.99527 0.6808 0.98659 0.0
C1088 C 0.99023 0.70094 0.97267 0.0
C1089 C 0.00536 0.64397 0.01371 0.0
C1090 C 0.02046 0.66182 0.01203 0.0
C1091 C 0.01533 0.6799 0.99834 0.0
C1092 C 0.04158 0.66208 0.02455 0.0
C1093 C 0.01044 0.62361 0.02732 0.0
C1094 C 0.04144 0.6615 0.04777 0.0
C1095 C 0.06132 0.66099 0.05959 0.0
C1096 C 0.08177 0.66127 0.0484 0.0
C1097 C 0.08187 0.66248 0.02513 0.0
C1098 C 0.06193 0.66292 0.01332 0.0
H1099 H 1.00023 0.60921 0.02212 0.0
H1100 H 0.02821 0.61902 0.02598 0.0
H1101 H 0.00673 0.62708 0.04499 0.0
H1102 H 0.02592 0.66136 0.05678 0.0
H1103 H 0.06063 0.66026 0.07751 0.0
H1104 H 0.09387 0.29935 0.96735 0.0
H1105 H 0.06103 0.29639 0.99106 0.0
H1106 H 0.034 0.35538 0.96121 0.0
H1107 H 0.06655 0.35843 0.93741 0.0
H1108 H 0.04439 0.32813 0.02169 0.0
H1109 H 0.98355 0.30976 0.95527 0.0
H1110 H 0.01309 0.3071 0.95128 0.0
H1111 H 1.00017 0.33391 0.95018 0.0
C1112 C 0.08091 0.31165 0.96578 0.0
C1113 C 0.08279 0.32906 0.9504 0.0
C1114 C 0.06218 0.30993 0.97934 0.0
C1115 C 0.04496 0.32545 0.9776 0.0
C1116 C 0.04691 0.34297 0.96247 0.0
H1117 H 0.92224 0.35603 0.04316 0.0
H1118 H 0.95481 0.35386 0.01915 0.0
C1119 C 0.06561 0.34475 0.94898 0.0
C1120 C 0.02516 0.32378 0.99199 0.0
H1121 H 0.96879 0.31914 0.99065 0.0
C1122 C 0.02787 0.32593 0.01497 0.0
C1123 C 0.00366 0.32094 0.98311 0.0
C1124 C 0.99988 0.31759 0.95863 0.0
C1125 C 0.00954 0.32607 0.02929 0.0
C1126 C 0.988 0.3236 0.02037 0.0
C1127 C 0.98533 0.32107 0.99742 0.0
C1128 C 0.96797 0.32428 0.03452 0.0
C1129 C 0.01329 0.32962 0.05376 0.0
C1130 C 0.96438 0.3081 0.05082 0.0
C1131 C 0.94578 0.30928 0.06457 0.0
C1132 C 0.93039 0.32663 0.0622 0.0
C1133 C 0.93379 0.34249 0.04547 0.0
C1134 C 0.95238 0.34128 0.03173 0.0
H1135 H 0.03015 0.33613 0.05726 0.0
H1136 H 0.00089 0.34134 0.06064 0.0
H1137 H 0.01144 0.31358 0.06255 0.0
H1138 H 0.97603 0.29462 0.05295 0.0
H1139 H 0.94361 0.29673 0.07721 0.0
loop_
_geom_bond_atom_site_label_1
_geom_bond_atom_site_label_2
_geom_bond_distance
_geom_bond_site_symmetry_2
_ccdc_geom_bond_type
Cu0 N1 1.999 . S
Cu0 O6 1.974 . S
Cu0 N11 1.985 . S
Cu0 O20 1.959 . S
N1 Cu0 1.999 . S
N1 C3 1.263 . S
N1 C5 1.389 . S
N2 C3 1.358 . S
N2 C4 1.400 . S
C3 N1 1.263 . S
C3 N2 1.358 . S
C3 H9 0.930 . S
C4 N2 1.400 . S
C4 C5 1.351 . S
C4 H21 0.930 . S
C5 N1 1.389 . S
C5 C4 1.351 . S
C5 H10 0.930 . S
O6 Cu0 1.974 . S
O6 C16 1.282 . S
C7 O8 1.261 . S
C7 O20 1.251 . S
O8 C7 1.261 . S
H9 C3 0.930 . S
H10 C5 0.930 . S
N11 Cu0 1.985 . S
N11 C13 1.335 . S
N11 C14 1.390 . S
N12 C13 1.345 . S
N12 C15 1.336 . S
C13 N11 1.335 . S
C13 N12 1.345 . S
C13 H18 0.930 . S
C14 N11 1.390 . S
C14 C15 1.346 . S
C14 H19 0.930 . S
C15 N12 1.336 . S
C15 C14 1.346 . S
C15 H22 0.929 . S
C16 O6 1.282 . S
C16 O17 1.216 . S
O17 C16 1.216 . S
H18 C13 0.930 . S
H19 C14 0.930 . S
O20 Cu0 1.959 . S
O20 C7 1.251 . S
H21 C4 0.930 . S
H22 C15 0.929 . S
Cu23 N24 1.999 . S
Cu23 O29 1.974 . S
Cu23 N34 1.985 . S
Cu23 O43 1.959 . S
N24 Cu23 1.999 . S
N24 C26 1.263 . S
N24 C28 1.389 . S
N25 C26 1.358 . S
N25 C27 1.400 . S
C26 N24 1.263 . S
C26 N25 1.358 . S
C26 H32 0.930 . S
C27 N25 1.400 . S
C27 C28 1.351 . S
C27 H44 0.930 . S
C28 N24 1.389 . S
C28 C27 1.351 . S
C28 H33 0.930 . S
O29 Cu23 1.974 . S
O29 C39 1.282 . S
C30 O31 1.261 . S
C30 O43 1.251 . S
O31 C30 1.261 . S
H32 C26 0.930 . S
H33 C28 0.930 . S
N34 Cu23 1.985 . S
N34 C36 1.335 . S
N34 C37 1.390 . S
N35 C36 1.345 . S
N35 C38 1.336 . S
C36 N34 1.335 . S
C36 N35 1.345 . S
C36 H41 0.930 . S
C37 N34 1.390 . S
C37 C38 1.346 . S
C37 H42 0.930 . S
C38 N35 1.336 . S
C38 C37 1.346 . S
C38 H45 0.929 . S
C39 O29 1.282 . S
C39 O40 1.216 . S
O40 C39 1.216 . S
H41 C36 0.930 . S
H42 C37 0.930 . S
O43 Cu23 1.959 . S
O43 C30 1.251 . S
H44 C27 0.930 . S
H45 C38 0.929 . S
Cu46 N47 1.999 . S
Cu46 O52 1.974 . S
Cu46 N57 1.985 . S
Cu46 O66 1.959 . S
N47 Cu46 1.999 . S
N47 C49 1.263 . S
N47 C51 1.389 . S
N48 C49 1.358 . S
N48 C50 1.400 . S
C49 N47 1.263 . S
C49 N48 1.358 . S
C49 H55 0.930 . S
C50 N48 1.400 . S
C50 C51 1.351 . S
C50 H67 0.930 . S
C51 N47 1.389 . S
C51 C50 1.351 . S
C51 H56 0.930 . S
O52 Cu46 1.974 . S
O52 C62 1.282 . S
C53 O54 1.261 . S
C53 O66 1.251 . S
O54 C53 1.261 . S
H55 C49 0.930 . S
H56 C51 0.930 . S
N57 Cu46 1.985 . S
N57 C59 1.335 . S
N57 C60 1.390 . S
N58 C59 1.345 . S
N58 C61 1.336 . S
C59 N57 1.335 . S
C59 N58 1.345 . S
C59 H64 0.930 . S
C60 N57 1.390 . S
C60 C61 1.346 . S
C60 H65 0.930 . S
C61 N58 1.336 . S
C61 C60 1.346 . S
C61 H68 0.929 . S
C62 O52 1.282 . S
C62 O63 1.216 . S
O63 C62 1.216 . S
H64 C59 0.930 . S
H65 C60 0.930 . S
O66 Cu46 1.959 . S
O66 C53 1.251 . S
H67 C50 0.930 . S
H68 C61 0.929 . S
Cu69 N70 1.999 . S
Cu69 O75 1.974 . S
Cu69 N80 1.985 . S
Cu69 O89 1.959 . S
N70 Cu69 1.999 . S
N70 C72 1.263 . S
N70 C74 1.389 . S
N71 C72 1.358 . S
N71 C73 1.400 . S
C72 N70 1.263 . S
C72 N71 1.358 . S
C72 H78 0.930 . S
C73 N71 1.400 . S
C73 C74 1.351 . S
C73 H90 0.930 . S
C74 N70 1.389 . S
C74 C73 1.351 . S
C74 H79 0.930 . S
O75 Cu69 1.974 . S
O75 C85 1.282 . S
C76 O77 1.261 . S
C76 O89 1.251 . S
O77 C76 1.261 . S
H78 C72 0.930 . S
H79 C74 0.930 . S
N80 Cu69 1.985 . S
N80 C82 1.335 . S
N80 C83 1.390 . S
N81 C82 1.345 . S
N81 C84 1.336 . S
C82 N80 1.335 . S
C82 N81 1.345 . S
C82 H87 0.930 . S
C83 N80 1.390 . S
C83 C84 1.346 . S
C83 H88 0.930 . S
C84 N81 1.336 . S
C84 C83 1.346 . S
C84 H91 0.929 . S
C85 O75 1.282 . S
C85 O86 1.216 . S
O86 C85 1.216 . S
H87 C82 0.930 . S
H88 C83 0.930 . S
O89 Cu69 1.959 . S
O89 C76 1.251 . S
H90 C73 0.930 . S
H91 C84 0.929 . S
Cu92 N93 1.999 . S
Cu92 O98 1.974 . S
Cu92 N103 1.985 . S
Cu92 O112 1.959 . S
N93 Cu92 1.999 . S
N93 C95 1.263 . S
N93 C97 1.389 . S
N94 C95 1.358 . S
N94 C96 1.400 . S
C95 N93 1.263 . S
C95 N94 1.358 . S
C95 H101 0.930 . S
C96 N94 1.400 . S
C96 C97 1.351 . S
C96 H113 0.930 . S
C97 N93 1.389 . S
C97 C96 1.351 . S
C97 H102 0.930 . S
O98 Cu92 1.974 . S
O98 C108 1.282 . S
C99 O100 1.261 . S
C99 O112 1.251 . S
O100 C99 1.261 . S
H101 C95 0.930 . S
H102 C97 0.930 . S
N103 Cu92 1.985 . S
N103 C105 1.335 . S
N103 C106 1.390 . S
N104 C105 1.345 . S
N104 C107 1.336 . S
C105 N103 1.335 . S
C105 N104 1.345 . S
C105 H110 0.930 . S
C106 N103 1.390 . S
C106 C107 1.346 . S
C106 H111 0.930 . S
C107 N104 1.336 . S
C107 C106 1.346 . S
C107 H114 0.929 . S
C108 O98 1.282 . S
C108 O109 1.216 . S
O109 C108 1.216 . S
H110 C105 0.930 . S
H111 C106 0.930 . S
O112 Cu92 1.959 . S
O112 C99 1.251 . S
H113 C96 0.930 . S
H114 C107 0.929 . S
Cu115 N116 1.999 . S
Cu115 O121 1.974 . S
Cu115 N126 1.985 . S
Cu115 O135 1.959 . S
N116 Cu115 1.999 . S
N116 C118 1.263 . S
N116 C120 1.389 . S
N117 C118 1.358 . S
N117 C119 1.400 . S
C118 N116 1.263 . S
C118 N117 1.358 . S
C118 H124 0.930 . S
C119 N117 1.400 . S
C119 C120 1.351 . S
C119 H136 0.930 . S
C120 N116 1.389 . S
C120 C119 1.351 . S
C120 H125 0.930 . S
O121 Cu115 1.974 . S
O121 C131 1.282 . S
C122 O123 1.261 . S
C122 O135 1.251 . S
O123 C122 1.261 . S
H124 C118 0.930 . S
H125 C120 0.930 . S
N126 Cu115 1.985 . S
N126 C128 1.335 . S
N126 C129 1.390 . S
N127 C128 1.345 . S
N127 C130 1.336 . S
C128 N126 1.335 . S
C128 N127 1.345 . S
C128 H133 0.930 . S
C129 N126 1.390 . S
C129 C130 1.346 . S
C129 H134 0.930 . S
C130 N127 1.336 . S
C130 C129 1.346 . S
C130 H137 0.929 . S
C131 O121 1.282 . S
C131 O132 1.216 . S
O132 C131 1.216 . S
H133 C128 0.930 . S
H134 C129 0.930 . S
O135 Cu115 1.959 . S
O135 C122 1.251 . S
H136 C119 0.930 . S
H137 C130 0.929 . S
Cu138 N139 1.999 . S
Cu138 O144 1.974 . S
Cu138 N149 1.985 . S
Cu138 O158 1.959 . S
N139 Cu138 1.999 . S
N139 C141 1.263 . S
N139 C143 1.389 . S
N140 C141 1.358 . S
N140 C142 1.400 . S
C141 N139 1.263 . S
C141 N140 1.358 . S
C141 H147 0.930 . S
C142 N140 1.400 . S
C142 C143 1.351 . S
C142 H159 0.930 . S
C143 N139 1.389 . S
C143 C142 1.351 . S
C143 H148 0.930 . S
O144 Cu138 1.974 . S
O144 C154 1.282 . S
C145 O146 1.261 . S
C145 O158 1.251 . S
O146 C145 1.261 . S
H147 C141 0.930 . S
H148 C143 0.930 . S
N149 Cu138 1.985 . S
N149 C151 1.335 . S
N149 C152 1.390 . S
N150 C151 1.345 . S
N150 C153 1.336 . S
C151 N149 1.335 . S
C151 N150 1.345 . S
C151 H156 0.930 . S
C152 N149 1.390 . S
C152 C153 1.346 . S
C152 H157 0.930 . S
C153 N150 1.336 . S
C153 C152 1.346 . S
C153 H160 0.929 . S
C154 O144 1.282 . S
C154 O155 1.216 . S
O155 C154 1.216 . S
H156 C151 0.930 . S
H157 C152 0.930 . S
O158 Cu138 1.959 . S
O158 C145 1.251 . S
H159 C142 0.930 . S
H160 C153 0.929 . S
Cu161 N162 1.999 . S
Cu161 O167 1.974 . S
Cu161 N172 1.985 . S
Cu161 O181 1.959 . S
N162 Cu161 1.999 . S
N162 C164 1.263 . S
N162 C166 1.389 . S
N163 C164 1.358 . S
N163 C165 1.400 . S
C164 N162 1.263 . S
C164 N163 1.358 . S
C164 H170 0.930 . S
C165 N163 1.400 . S
C165 C166 1.351 . S
C165 H182 0.930 . S
C166 N162 1.389 . S
C166 C165 1.351 . S
C166 H171 0.930 . S
O167 Cu161 1.974 . S
O167 C177 1.282 . S
C168 O169 1.261 . S
C168 O181 1.251 . S
O169 C168 1.261 . S
H170 C164 0.930 . S
H171 C166 0.930 . S
N172 Cu161 1.985 . S
N172 C174 1.335 . S
N172 C175 1.390 . S
N173 C174 1.345 . S
N173 C176 1.336 . S
C174 N172 1.335 . S
C174 N173 1.345 . S
C174 H179 0.930 . S
C175 N172 1.390 . S
C175 C176 1.346 . S
C175 H180 0.930 . S
C176 N173 1.336 . S
C176 C175 1.346 . S
C176 H183 0.929 . S
C177 O167 1.282 . S
C177 O178 1.216 . S
O178 C177 1.216 . S
H179 C174 0.930 . S
H180 C175 0.930 . S
O181 Cu161 1.959 . S
O181 C168 1.251 . S
H182 C165 0.930 . S
H183 C176 0.929 . S
Cu184 N185 1.999 . S
Cu184 O190 1.974 . S
Cu184 N195 1.985 . S
Cu184 O204 1.959 . S
N185 Cu184 1.999 . S
N185 C187 1.263 . S
N185 C189 1.389 . S
N186 C187 1.358 . S
N186 C188 1.400 . S
C187 N185 1.263 . S
C187 N186 1.358 . S
C187 H193 0.930 . S
C188 N186 1.400 . S
C188 C189 1.351 . S
C188 H205 0.930 . S
C189 N185 1.389 . S
C189 C188 1.351 . S
C189 H194 0.930 . S
O190 Cu184 1.974 . S
O190 C200 1.282 . S
C191 O192 1.261 . S
C191 O204 1.251 . S
O192 C191 1.261 . S
H193 C187 0.930 . S
H194 C189 0.930 . S
N195 Cu184 1.985 . S
N195 C197 1.335 . S
N195 C198 1.390 . S
N196 C197 1.345 . S
N196 C199 1.336 . S
C197 N195 1.335 . S
C197 N196 1.345 . S
C197 H202 0.930 . S
C198 N195 1.390 . S
C198 C199 1.346 . S
C198 H203 0.930 . S
C199 N196 1.336 . S
C199 C198 1.346 . S
C199 H206 0.929 . S
C200 O190 1.282 . S
C200 O201 1.216 . S
O201 C200 1.216 . S
H202 C197 0.930 . S
H203 C198 0.930 . S
O204 Cu184 1.959 . S
O204 C191 1.251 . S
H205 C188 0.930 . S
H206 C199 0.929 . S
Cu207 N208 1.999 . S
Cu207 O213 1.974 . S
Cu207 N218 1.985 . S
Cu207 O227 1.959 . S
N208 Cu207 1.999 . S
N208 C210 1.263 . S
N208 C212 1.389 . S
N209 C210 1.358 . S
N209 C211 1.400 . S
C210 N208 1.263 . S
C210 N209 1.358 . S
C210 H216 0.930 . S
C211 N209 1.400 . S
C211 C212 1.351 . S
C211 H228 0.930 . S
C212 N208 1.389 . S
C212 C211 1.351 . S
C212 H217 0.930 . S
O213 Cu207 1.974 . S
O213 C223 1.282 . S
C214 O215 1.261 . S
C214 O227 1.251 . S
O215 C214 1.261 . S
H216 C210 0.930 . S
H217 C212 0.930 . S
N218 Cu207 1.985 . S
N218 C220 1.335 . S
N218 C221 1.390 . S
N219 C220 1.345 . S
N219 C222 1.336 . S
C220 N218 1.335 . S
C220 N219 1.345 . S
C220 H225 0.930 . S
C221 N218 1.390 . S
C221 C222 1.346 . S
C221 H226 0.930 . S
C222 N219 1.336 . S
C222 C221 1.346 . S
C222 H229 0.929 . S
C223 O213 1.282 . S
C223 O224 1.216 . S
O224 C223 1.216 . S
H225 C220 0.930 . S
H226 C221 0.930 . S
O227 Cu207 1.959 . S
O227 C214 1.251 . S
H228 C211 0.930 . S
H229 C222 0.929 . S
Cu230 N231 1.999 . S
Cu230 O236 1.974 . S
Cu230 N241 1.985 . S
Cu230 O250 1.959 . S
N231 Cu230 1.999 . S
N231 C233 1.263 . S
N231 C235 1.389 . S
N232 C233 1.358 . S
N232 C234 1.400 . S
C233 N231 1.263 . S
C233 N232 1.358 . S
C233 H239 0.930 . S
C234 N232 1.400 . S
C234 C235 1.351 . S
C234 H251 0.930 . S
C235 N231 1.389 . S
C235 C234 1.351 . S
C235 H240 0.930 . S
O236 Cu230 1.974 . S
O236 C246 1.282 . S
C237 O238 1.261 . S
C237 O250 1.251 . S
O238 C237 1.261 . S
H239 C233 0.930 . S
H240 C235 0.930 . S
N241 Cu230 1.985 . S
N241 C243 1.335 . S
N241 C244 1.390 . S
N242 C243 1.345 . S
N242 C245 1.336 . S
C243 N241 1.335 . S
C243 N242 1.345 . S
C243 H248 0.930 . S
C244 N241 1.390 . S
C244 C245 1.346 . S
C244 H249 0.930 . S
C245 N242 1.336 . S
C245 C244 1.346 . S
C245 H252 0.929 . S
C246 O236 1.282 . S
C246 O247 1.216 . S
O247 C246 1.216 . S
H248 C243 0.930 . S
H249 C244 0.930 . S
O250 Cu230 1.959 . S
O250 C237 1.251 . S
H251 C234 0.930 . S
H252 C245 0.929 . S
Cu253 N254 1.999 . S
Cu253 O259 1.974 . S
Cu253 N264 1.985 . S
Cu253 O273 1.959 . S
N254 Cu253 1.999 . S
N254 C256 1.263 . S
N254 C258 1.389 . S
N255 C256 1.358 . S
N255 C257 1.400 . S
C256 N254 1.263 . S
C256 N255 1.358 . S
C256 H262 0.930 . S
C257 N255 1.400 . S
C257 C258 1.351 . S
C257 H274 0.930 . S
C258 N254 1.389 . S
C258 C257 1.351 . S
C258 H263 0.930 . S
O259 Cu253 1.974 . S
O259 C269 1.282 . S
C260 O261 1.261 . S
C260 O273 1.251 . S
O261 C260 1.261 . S
H262 C256 0.930 . S
H263 C258 0.930 . S
N264 Cu253 1.985 . S
N264 C266 1.335 . S
N264 C267 1.390 . S
N265 C266 1.345 . S
N265 C268 1.336 . S
C266 N264 1.335 . S
C266 N265 1.345 . S
C266 H271 0.930 . S
C267 N264 1.390 . S
C267 C268 1.346 . S
C267 H272 0.930 . S
C268 N265 1.336 . S
C268 C267 1.346 . S
C268 H275 0.929 . S
C269 O259 1.282 . S
C269 O270 1.216 . S
O270 C269 1.216 . S
H271 C266 0.930 . S
H272 C267 0.930 . S
O273 Cu253 1.959 . S
O273 C260 1.251 . S
H274 C257 0.930 . S
H275 C268 0.929 . S
H276 C284 0.929 . S
H277 C286 0.930 . S
H278 C288 0.930 . S
H279 C291 0.929 . S
H280 C294 0.930 . S
H281 C296 0.960 . S
H282 C296 0.960 . S
H283 C296 0.960 1_655 S
C284 H276 0.929 . S
C284 C285 1.377 . S
C284 C286 1.384 . S
C285 C284 1.377 . S
C285 C291 1.390 . S
C286 H277 0.930 . S
C286 C284 1.384 . S
C286 C287 1.372 . S
C287 C286 1.372 . S
C287 C288 1.400 . S
C287 C292 1.490 . S
C288 H278 0.930 . S
C288 C287 1.400 . S
C288 C291 1.386 . S
H289 C305 0.930 . S
H290 C306 0.931 . S
C291 H279 0.929 . S
C291 C285 1.390 . S
C291 C288 1.386 . S
C292 C287 1.490 . S
C292 C294 1.395 . S
C292 C295 1.403 1_655 S
H293 C299 0.930 . S
C294 H280 0.930 . S
C294 C292 1.395 . S
C294 C297 1.430 . S
C295 C292 1.403 1_455 S
C295 C296 1.524 . S
C295 C299 1.400 . S
C296 H281 0.960 . S
C296 H282 0.960 . S
C296 H283 0.960 1_455 S
C296 C295 1.524 . S
C297 C294 1.430 . S
C297 C298 1.365 1_655 S
C297 C301 1.500 . S
C298 C297 1.365 1_455 S
C298 C299 1.385 . S
C298 C300 1.478 . S
C299 H293 0.930 . S
C299 C295 1.400 . S
C299 C298 1.385 . S
C300 C298 1.478 . S
C300 C302 1.381 . S
C300 C306 1.383 . S
C301 C297 1.500 . S
C301 H307 0.959 . S
C301 H308 0.961 . S
C301 H309 0.960 1_655 S
C302 C300 1.381 . S
C302 C303 1.394 . S
C302 H310 0.930 . S
C303 C302 1.394 . S
C303 C304 1.383 . S
C303 H311 0.929 . S
C304 C303 1.383 . S
C304 C305 1.377 . S
C305 H289 0.930 . S
C305 C304 1.377 . S
C305 C306 1.379 . S
C306 H290 0.931 . S
C306 C300 1.383 . S
C306 C305 1.379 . S
H307 C301 0.959 . S
H308 C301 0.961 . S
H309 C301 0.960 1_455 S
H310 C302 0.930 . S
H311 C303 0.929 . S
H312 C320 0.929 . S
H313 C322 0.930 . S
H314 C324 0.930 . S
H315 C327 0.929 . S
H316 C330 0.930 . S
H317 C332 0.960 . S
H318 C332 0.960 . S
H319 C332 0.960 1_455 S
C320 H312 0.929 . S
C320 C321 1.377 . S
C320 C322 1.384 . S
C321 C320 1.377 . S
C321 C327 1.390 . S
C322 H313 0.930 . S
C322 C320 1.384 . S
C322 C323 1.372 . S
C323 C322 1.372 . S
C323 C324 1.400 . S
C323 C328 1.490 . S
C324 H314 0.930 . S
C324 C323 1.400 . S
C324 C327 1.386 . S
H325 C341 0.930 . S
H326 C342 0.931 . S
C327 H315 0.929 . S
C327 C321 1.390 . S
C327 C324 1.386 . S
C328 C323 1.490 . S
C328 C330 1.395 . S
C328 C331 1.403 1_455 S
H329 C335 0.930 . S
C330 H316 0.930 . S
C330 C328 1.395 . S
C330 C333 1.403 . S
C331 C328 1.403 1_655 S
C331 C332 1.524 . S
C331 C335 1.400 . S
C332 H317 0.960 . S
C332 H318 0.960 . S
C332 H319 0.960 1_655 S
C332 C331 1.524 . S
C333 C330 1.403 . S
C333 C334 1.392 1_455 S
C333 C337 1.495 . S
C334 C333 1.392 1_655 S
C334 C335 1.385 . S
C334 C336 1.478 . S
C335 H329 0.930 . S
C335 C331 1.400 . S
C335 C334 1.385 . S
C336 C334 1.478 . S
C336 C338 1.381 . S
C336 C342 1.383 . S
C337 C333 1.495 . S
C337 H343 0.959 . S
C337 H344 0.961 . S
C337 H345 0.960 1_455 S
C338 C336 1.381 . S
C338 C339 1.394 . S
C338 H346 0.930 . S
C339 C338 1.394 . S
C339 C340 1.383 . S
C339 H347 0.929 . S
C340 C339 1.383 . S
C340 C341 1.377 . S
C341 H325 0.930 . S
C341 C340 1.377 . S
C341 C342 1.379 . S
C342 H326 0.931 . S
C342 C336 1.383 . S
C342 C341 1.379 . S
H343 C337 0.959 . S
H344 C337 0.961 . S
H345 C337 0.960 1_655 S
H346 C338 0.930 . S
H347 C339 0.929 . S
H348 C356 0.929 . S
H349 C358 0.930 . S
H350 C360 0.930 . S
H351 C363 0.929 . S
H352 C366 0.930 . S
H353 C368 0.960 . S
H354 C368 0.960 . S
H355 C368 0.960 . S
C356 H348 0.929 . S
C356 C357 1.377 . S
C356 C358 1.384 . S
C357 C356 1.377 . S
C357 C363 1.390 . S
C358 H349 0.930 . S
C358 C356 1.384 . S
C358 C359 1.372 . S
C359 C358 1.372 . S
C359 C360 1.400 . S
C359 C364 1.490 . S
C360 H350 0.930 . S
C360 C359 1.400 . S
C360 C363 1.386 . S
H361 C377 0.930 . S
H362 C378 0.931 . S
C363 H351 0.929 . S
C363 C357 1.390 . S
C363 C360 1.386 . S
C364 C359 1.490 . S
C364 C366 1.395 . S
C364 C367 1.403 1_565 S
H365 C371 0.930 . S
C366 H352 0.930 . S
C366 C364 1.395 . S
C366 C369 1.403 . S
C367 C364 1.403 1_545 S
C367 C368 1.524 . S
C367 C371 1.400 . S
C368 H353 0.960 . S
C368 H354 0.960 . S
C368 H355 0.960 . S
C368 C367 1.524 . S
C369 C366 1.403 . S
C369 C370 1.392 1_565 S
C369 C373 1.495 . S
C370 C369 1.392 1_545 S
C370 C371 1.385 . S
C370 C372 1.478 . S
C371 H365 0.930 . S
C371 C367 1.400 . S
C371 C370 1.385 . S
C372 C370 1.478 . S
C372 C374 1.381 . S
C372 C378 1.383 . S
C373 C369 1.495 . S
C373 H379 0.959 . S
C373 H380 0.961 . S
C373 H381 0.960 . S
C374 C372 1.381 . S
C374 C375 1.394 . S
C374 H382 0.930 . S
C375 C374 1.394 . S
C375 C376 1.383 . S
C375 H383 0.929 . S
C376 C375 1.383 . S
C376 C377 1.377 . S
C377 H361 0.930 . S
C377 C376 1.377 . S
C377 C378 1.379 . S
C378 H362 0.931 . S
C378 C372 1.383 . S
C378 C377 1.379 . S
H379 C373 0.959 . S
H380 C373 0.961 . S
H381 C373 0.960 . S
H382 C374 0.930 . S
H383 C375 0.929 . S
H384 C392 0.929 . S
H385 C394 0.930 . S
H386 C396 0.930 . S
H387 C399 0.929 . S
H388 C402 0.930 . S
H389 C404 0.960 . S
H390 C404 0.960 . S
H391 C404 0.960 . S
C392 H384 0.929 . S
C392 C393 1.377 . S
C392 C394 1.384 . S
C393 C392 1.377 . S
C393 C399 1.390 . S
C394 H385 0.930 . S
C394 C392 1.384 . S
C394 C395 1.372 . S
C395 C394 1.372 . S
C395 C396 1.400 . S
C395 C400 1.490 . S
C396 H386 0.930 . S
C396 C395 1.400 . S
C396 C399 1.386 . S
H397 C413 0.930 . S
H398 C414 0.931 . S
C399 H387 0.929 . S
C399 C393 1.390 . S
C399 C396 1.386 . S
C400 C395 1.490 . S
C400 C402 1.395 . S
C400 C403 1.403 1_565 S
H401 C407 0.930 . S
C402 H388 0.930 . S
C402 C400 1.395 . S
C402 C405 1.403 . S
C403 C400 1.403 1_545 S
C403 C404 1.524 . S
C403 C407 1.400 . S
C404 H389 0.960 . S
C404 H390 0.960 . S
C404 H391 0.960 . S
C404 C403 1.524 . S
C405 C402 1.403 . S
C405 C406 1.392 1_565 S
C405 C409 1.495 . S
C406 C405 1.392 1_545 S
C406 C407 1.385 . S
C406 C408 1.478 . S
C407 H401 0.930 . S
C407 C403 1.400 . S
C407 C406 1.385 . S
C408 C406 1.478 . S
C408 C410 1.381 . S
C408 C414 1.383 . S
C409 C405 1.495 . S
C409 H415 0.959 . S
C409 H416 0.961 . S
C409 H417 0.960 . S
C410 C408 1.381 . S
C410 C411 1.394 . S
C410 H418 0.930 . S
C411 C410 1.394 . S
C411 C412 1.383 . S
C411 H419 0.929 . S
C412 C411 1.383 . S
C412 C413 1.377 . S
C413 H397 0.930 . S
C413 C412 1.377 . S
C413 C414 1.379 . S
C414 H398 0.931 . S
C414 C408 1.383 . S
C414 C413 1.379 . S
H415 C409 0.959 . S
H416 C409 0.961 . S
H417 C409 0.960 . S
H418 C410 0.930 . S
H419 C411 0.929 . S
H420 C428 0.929 . S
H421 C430 0.930 . S
H422 C432 0.930 . S
H423 C435 0.929 . S
H424 C438 0.930 . S
H425 C440 0.960 . S
H426 C440 0.960 . S
H427 C440 0.960 . S
C428 H420 0.929 . S
C428 C429 1.377 . S
C428 C430 1.384 . S
C429 C428 1.377 . S
C429 C435 1.390 . S
C430 H421 0.930 . S
C430 C428 1.384 . S
C430 C431 1.372 . S
C431 C430 1.372 . S
C431 C432 1.400 . S
C431 C436 1.490 . S
C432 H422 0.930 . S
C432 C431 1.400 . S
C432 C435 1.386 . S
H433 C449 0.930 . S
H434 C450 0.931 . S
C435 H423 0.929 . S
C435 C429 1.390 . S
C435 C432 1.386 . S
C436 C431 1.490 . S
C436 C438 1.395 1_556 S
C436 C439 1.403 . S
H437 C443 0.930 . S
C438 H424 0.930 . S
C438 C436 1.395 1_554 S
C438 C441 1.403 . S
C439 C436 1.403 . S
C439 C440 1.524 . S
C439 C443 1.400 . S
C440 H425 0.960 . S
C440 H426 0.960 . S
C440 H427 0.960 . S
C440 C439 1.524 . S
C441 C438 1.403 . S
C441 C442 1.392 . S
C441 C445 1.495 . S
C442 C441 1.392 . S
C442 C443 1.385 1_554 S
C442 C444 1.478 . S
C443 H437 0.930 . S
C443 C439 1.400 . S
C443 C442 1.385 1_556 S
C444 C442 1.478 . S
C444 C446 1.381 . S
C444 C450 1.383 . S
C445 C441 1.495 . S
C445 H451 0.959 . S
C445 H452 0.961 . S
C445 H453 0.960 . S
C446 C444 1.381 . S
C446 C447 1.394 . S
C446 H454 0.930 . S
C447 C446 1.394 . S
C447 C448 1.383 . S
C447 H455 0.929 . S
C448 C447 1.383 . S
C448 C449 1.377 . S
C449 H433 0.930 . S
C449 C448 1.377 . S
C449 C450 1.379 . S
C450 H434 0.931 . S
C450 C444 1.383 . S
C450 C449 1.379 . S
H451 C445 0.959 . S
H452 C445 0.961 . S
H453 C445 0.960 . S
H454 C446 0.930 . S
H455 C447 0.929 . S
H456 C464 0.929 . S
H457 C466 0.930 . S
H458 C468 0.930 . S
H459 C471 0.929 . S
H460 C474 0.930 . S
H461 C476 0.960 . S
H462 C476 0.960 . S
H463 C476 0.960 . S
C464 H456 0.929 . S
C464 C465 1.377 . S
C464 C466 1.384 . S
C465 C464 1.377 . S
C465 C471 1.390 . S
C466 H457 0.930 . S
C466 C464 1.384 . S
C466 C467 1.372 . S
C467 C466 1.372 . S
C467 C468 1.400 . S
C467 C472 1.490 . S
C468 H458 0.930 . S
C468 C467 1.400 . S
C468 C471 1.386 . S
H469 C485 0.930 . S
H470 C486 0.931 . S
C471 H459 0.929 . S
C471 C465 1.390 . S
C471 C468 1.386 . S
C472 C467 1.490 . S
C472 C474 1.395 . S
C472 C475 1.403 1_556 S
H473 C479 0.930 . S
C474 H460 0.930 . S
C474 C472 1.395 . S
C474 C477 1.403 . S
C475 C472 1.403 1_554 S
C475 C476 1.524 . S
C475 C479 1.400 . S
C476 H461 0.960 . S
C476 H462 0.960 . S
C476 H463 0.960 . S
C476 C475 1.524 . S
C477 C474 1.403 . S
C477 C478 1.392 1_556 S
C477 C481 1.495 . S
C478 C477 1.392 1_554 S
C478 C479 1.385 . S
C478 C480 1.478 . S
C479 H473 0.930 . S
C479 C475 1.400 . S
C479 C478 1.385 . S
C480 C478 1.478 . S
C480 C482 1.381 . S
C480 C486 1.383 . S
C481 C477 1.495 . S
C481 H487 0.959 . S
C481 H488 0.961 . S
C481 H489 0.960 . S
C482 C480 1.381 . S
C482 C483 1.394 . S
C482 H490 0.930 . S
C483 C482 1.394 . S
C483 C484 1.383 . S
C483 H491 0.929 . S
C484 C483 1.383 . S
C484 C485 1.377 . S
C485 H469 0.930 . S
C485 C484 1.377 . S
C485 C486 1.379 . S
C486 H470 0.931 . S
C486 C480 1.383 . S
C486 C485 1.379 . S
H487 C481 0.959 . S
H488 C481 0.961 . S
H489 C481 0.960 . S
H490 C482 0.930 . S
H491 C483 0.929 . S
H492 C500 0.929 . S
H493 C502 0.930 . S
H494 C504 0.930 . S
H495 C507 0.929 . S
H496 C510 0.930 . S
H497 C512 0.960 . S
H498 C512 0.960 . S
H499 C512 0.960 . S
C500 H492 0.929 . S
C500 C501 1.377 . S
C500 C502 1.384 . S
C501 C500 1.377 . S
C501 C507 1.390 . S
C502 H493 0.930 . S
C502 C500 1.384 . S
C502 C503 1.372 . S
C503 C502 1.372 . S
C503 C504 1.400 . S
C503 C508 1.490 . S
C504 H494 0.930 . S
C504 C503 1.400 . S
C504 C507 1.386 . S
H505 C521 0.930 . S
H506 C522 0.931 . S
C507 H495 0.929 . S
C507 C501 1.390 . S
C507 C504 1.386 . S
C508 C503 1.490 . S
C508 C510 1.395 . S
C508 C511 1.403 . S
H509 C515 0.930 . S
C510 H496 0.930 . S
C510 C508 1.395 . S
C510 C513 1.403 . S
C511 C508 1.403 . S
C511 C512 1.524 . S
C511 C515 1.400 . S
C512 H497 0.960 . S
C512 H498 0.960 . S
C512 H499 0.960 . S
C512 C511 1.524 . S
C513 C510 1.403 . S
C513 C514 1.392 . S
C513 C517 1.495 . S
C514 C513 1.392 . S
C514 C515 1.385 . S
C514 C516 1.478 . S
C515 H509 0.930 . S
C515 C511 1.400 . S
C515 C514 1.385 . S
C516 C514 1.478 . S
C516 C518 1.381 . S
C516 C522 1.383 . S
C517 C513 1.495 . S
C517 H523 0.959 . S
C517 H524 0.961 . S
C517 H525 0.960 . S
C518 C516 1.381 . S
C518 C519 1.394 . S
C518 H526 0.930 . S
C519 C518 1.394 . S
C519 C520 1.383 . S
C519 H527 0.929 . S
C520 C519 1.383 . S
C520 C521 1.377 . S
C521 H505 0.930 . S
C521 C520 1.377 . S
C521 C522 1.379 . S
C522 H506 0.931 . S
C522 C516 1.383 . S
C522 C521 1.379 . S
H523 C517 0.959 . S
H524 C517 0.961 . S
H525 C517 0.960 . S
H526 C518 0.930 . S
H527 C519 0.929 . S
H528 C536 0.929 . S
H529 C538 0.930 . S
H530 C540 0.930 . S
H531 C543 0.929 . S
H532 C546 0.930 . S
H533 C548 0.960 . S
H534 C548 0.960 . S
H535 C548 0.960 . S
C536 H528 0.929 . S
C536 C537 1.377 . S
C536 C538 1.384 . S
C537 C536 1.377 . S
C537 C543 1.390 . S
C538 H529 0.930 . S
C538 C536 1.384 . S
C538 C539 1.372 . S
C539 C538 1.372 . S
C539 C540 1.400 . S
C539 C544 1.490 . S
C540 H530 0.930 . S
C540 C539 1.400 . S
C540 C543 1.386 . S
H541 C557 0.930 . S
H542 C558 0.931 . S
C543 H531 0.929 . S
C543 C537 1.390 . S
C543 C540 1.386 . S
C544 C539 1.490 . S
C544 C546 1.395 . S
C544 C547 1.403 . S
H545 C551 0.930 . S
C546 H532 0.930 . S
C546 C544 1.395 . S
C546 C549 1.403 . S
C547 C544 1.403 . S
C547 C548 1.524 . S
C547 C551 1.400 . S
C548 H533 0.960 . S
C548 H534 0.960 . S
C548 H535 0.960 . S
C548 C547 1.524 . S
C549 C546 1.403 . S
C549 C550 1.392 . S
C549 C553 1.495 . S
C550 C549 1.392 . S
C550 C551 1.385 . S
C550 C552 1.478 . S
C551 H545 0.930 . S
C551 C547 1.400 . S
C551 C550 1.385 . S
C552 C550 1.478 . S
C552 C554 1.381 . S
C552 C558 1.383 . S
C553 C549 1.495 . S
C553 H559 0.959 . S
C553 H560 0.961 . S
C553 H561 0.960 . S
C554 C552 1.381 . S
C554 C555 1.394 . S
C554 H562 0.930 . S
C555 C554 1.394 . S
C555 C556 1.383 . S
C555 H563 0.929 . S
C556 C555 1.383 . S
C556 C557 1.377 . S
C557 H541 0.930 . S
C557 C556 1.377 . S
C557 C558 1.379 . S
C558 H542 0.931 . S
C558 C552 1.383 . S
C558 C557 1.379 . S
H559 C553 0.959 . S
H560 C553 0.961 . S
H561 C553 0.960 . S
H562 C554 0.930 . S
H563 C555 0.929 . S
H564 C572 0.929 . S
H565 C574 0.930 . S
H566 C576 0.930 . S
H567 C579 0.929 . S
H568 C582 0.930 . S
H569 C584 0.960 . S
H570 C584 0.960 . S
H571 C584 0.960 . S
C572 H564 0.929 . S
C572 C573 1.377 . S
C572 C574 1.384 . S
C573 C572 1.377 . S
C573 C579 1.390 . S
C574 H565 0.930 . S
C574 C572 1.384 . S
C574 C575 1.372 . S
C575 C574 1.372 . S
C575 C576 1.400 . S
C575 C580 1.490 . S
C576 H566 0.930 . S
C576 C575 1.400 . S
C576 C579 1.386 . S
H577 C593 0.930 . S
H578 C594 0.931 . S
C579 H567 0.929 . S
C579 C573 1.390 . S
C579 C576 1.386 . S
C580 C575 1.490 . S
C580 C582 1.395 . S
C580 C583 1.403 . S
H581 C587 0.930 . S
C582 H568 0.930 . S
C582 C580 1.395 . S
C582 C585 1.403 . S
C583 C580 1.403 . S
C583 C584 1.524 . S
C583 C587 1.400 . S
C584 H569 0.960 . S
C584 H570 0.960 . S
C584 H571 0.960 . S
C584 C583 1.524 . S
C585 C582 1.403 . S
C585 C586 1.392 . S
C585 C589 1.495 . S
C586 C585 1.392 . S
C586 C587 1.385 . S
C586 C588 1.478 . S
C587 H581 0.930 . S
C587 C583 1.400 . S
C587 C586 1.385 . S
C588 C586 1.478 . S
C588 C590 1.381 . S
C588 C594 1.383 . S
C589 C585 1.495 . S
C589 H595 0.959 . S
C589 H596 0.961 . S
C589 H597 0.960 . S
C590 C588 1.381 . S
C590 C591 1.394 . S
C590 H598 0.930 . S
C591 C590 1.394 . S
C591 C592 1.383 . S
C591 H599 0.929 . S
C592 C591 1.383 . S
C592 C593 1.377 . S
C593 H577 0.930 . S
C593 C592 1.377 . S
C593 C594 1.379 . S
C594 H578 0.931 . S
C594 C588 1.383 . S
C594 C593 1.379 . S
H595 C589 0.959 . S
H596 C589 0.961 . S
H597 C589 0.960 . S
H598 C590 0.930 . S
H599 C591 0.929 . S
H600 C608 0.929 . S
H601 C610 0.930 . S
H602 C612 0.930 . S
H603 C615 0.929 . S
H604 C618 0.930 . S
H605 C620 0.960 . S
H606 C620 0.960 . S
H607 C620 0.960 . S
C608 H600 0.929 . S
C608 C609 1.377 . S
C608 C610 1.384 . S
C609 C608 1.377 . S
C609 C615 1.390 . S
C610 H601 0.930 . S
C610 C608 1.384 . S
C610 C611 1.372 . S
C611 C610 1.372 . S
C611 C612 1.400 . S
C611 C616 1.490 . S
C612 H602 0.930 . S
C612 C611 1.400 . S
C612 C615 1.386 . S
H613 C629 0.930 . S
H614 C630 0.931 . S
C615 H603 0.929 . S
C615 C609 1.390 . S
C615 C612 1.386 . S
C616 C611 1.490 . S
C616 C618 1.395 . S
C616 C619 1.403 . S
H617 C623 0.930 . S
C618 H604 0.930 . S
C618 C616 1.395 . S
C618 C621 1.403 . S
C619 C616 1.403 . S
C619 C620 1.524 . S
C619 C623 1.400 . S
C620 H605 0.960 . S
C620 H606 0.960 . S
C620 H607 0.960 . S
C620 C619 1.524 . S
C621 C618 1.403 . S
C621 C622 1.392 . S
C621 C625 1.495 . S
C622 C621 1.392 . S
C622 C623 1.385 . S
C622 C624 1.478 . S
C623 H617 0.930 . S
C623 C619 1.400 . S
C623 C622 1.385 . S
C624 C622 1.478 . S
C624 C626 1.381 . S
C624 C630 1.383 . S
C625 C621 1.495 . S
C625 H631 0.959 . S
C625 H632 0.961 . S
C625 H633 0.960 . S
C626 C624 1.381 . S
C626 C627 1.394 . S
C626 H634 0.930 . S
C627 C626 1.394 . S
C627 C628 1.383 . S
C627 H635 0.929 . S
C628 C627 1.383 . S
C628 C629 1.377 . S
C629 H613 0.930 . S
C629 C628 1.377 . S
C629 C630 1.379 . S
C630 H614 0.931 . S
C630 C624 1.383 . S
C630 C629 1.379 . S
H631 C625 0.959 . S
H632 C625 0.961 . S
H633 C625 0.960 . S
H634 C626 0.930 . S
H635 C627 0.929 . S
H636 C644 0.929 . S
H637 C646 0.930 . S
H638 C648 0.930 . S
H639 C651 0.929 . S
H640 C654 0.930 . S
H641 C656 0.960 . S
H642 C656 0.960 . S
H643 C656 0.960 . S
C644 H636 0.929 . S
C644 C645 1.377 . S
C644 C646 1.384 . S
C645 C644 1.377 . S
C645 C651 1.390 . S
C646 H637 0.930 . S
C646 C644 1.384 . S
C646 C647 1.372 . S
C647 C646 1.372 . S
C647 C648 1.400 . S
C647 C652 1.490 . S
C648 H638 0.930 . S
C648 C647 1.400 . S
C648 C651 1.386 . S
H649 C665 0.930 . S
H650 C666 0.931 . S
C651 H639 0.929 . S
C651 C645 1.390 . S
C651 C648 1.386 . S
C652 C647 1.490 . S
C652 C654 1.395 . S
C652 C655 1.403 . S
H653 C659 0.930 . S
C654 H640 0.930 . S
C654 C652 1.395 . S
C654 C657 1.403 . S
C655 C652 1.403 . S
C655 C656 1.524 . S
C655 C659 1.400 . S
C656 H641 0.960 . S
C656 H642 0.960 . S
C656 H643 0.960 . S
C656 C655 1.524 . S
C657 C654 1.403 . S
C657 C658 1.392 . S
C657 C661 1.495 . S
C658 C657 1.392 . S
C658 C659 1.385 . S
C658 C660 1.478 . S
C659 H653 0.930 . S
C659 C655 1.400 . S
C659 C658 1.385 . S
C660 C658 1.478 . S
C660 C662 1.381 . S
C660 C666 1.383 . S
C661 C657 1.495 . S
C661 H667 0.959 . S
C661 H668 0.961 . S
C661 H669 0.960 . S
C662 C660 1.381 . S
C662 C663 1.394 . S
C662 H670 0.930 . S
C663 C662 1.394 . S
C663 C664 1.383 . S
C663 H671 0.929 . S
C664 C663 1.383 . S
C664 C665 1.377 . S
C665 H649 0.930 . S
C665 C664 1.377 . S
C665 C666 1.379 . S
C666 H650 0.931 . S
C666 C660 1.383 . S
C666 C665 1.379 . S
H667 C661 0.959 . S
H668 C661 0.961 . S
H669 C661 0.960 . S
H670 C662 0.930 . S
H671 C663 0.929 . S
H672 C680 0.929 . S
H673 C682 0.930 . S
H674 C684 0.930 . S
H675 C687 0.929 . S
H676 C690 0.930 . S
H677 C692 0.960 . S
H678 C692 0.960 . S
H679 C692 0.960 . S
C680 H672 0.929 . S
C680 C681 1.377 . S
C680 C682 1.384 . S
C681 C680 1.377 . S
C681 C687 1.390 . S
C682 H673 0.930 . S
C682 C680 1.384 . S
C682 C683 1.372 . S
C683 C682 1.372 . S
C683 C684 1.400 . S
C683 C688 1.490 . S
C684 H674 0.930 . S
C684 C683 1.400 . S
C684 C687 1.386 . S
H685 C701 0.930 . S
H686 C702 0.931 . S
C687 H675 0.929 . S
C687 C681 1.390 . S
C687 C684 1.386 . S
C688 C683 1.490 . S
C688 C690 1.395 . S
C688 C691 1.403 . S
H689 C695 0.930 . S
C690 H676 0.930 . S
C690 C688 1.395 . S
C690 C693 1.403 . S
C691 C688 1.403 . S
C691 C692 1.524 . S
C691 C695 1.400 . S
C692 H677 0.960 . S
C692 H678 0.960 . S
C692 H679 0.960 . S
C692 C691 1.524 . S
C693 C690 1.403 . S
C693 C694 1.392 . S
C693 C697 1.495 . S
C694 C693 1.392 . S
C694 C695 1.385 . S
C694 C696 1.478 . S
C695 H689 0.930 . S
C695 C691 1.400 . S
C695 C694 1.385 . S
C696 C694 1.478 . S
C696 C698 1.381 . S
C696 C702 1.383 . S
C697 C693 1.495 . S
C697 H703 0.959 . S
C697 H704 0.961 . S
C697 H705 0.960 . S
C698 C696 1.381 . S
C698 C699 1.394 . S
C698 H706 0.930 . S
C699 C698 1.394 . S
C699 C700 1.383 . S
C699 H707 0.929 . S
C700 C699 1.383 . S
C700 C701 1.377 . S
C701 H685 0.930 . S
C701 C700 1.377 . S
C701 C702 1.379 . S
C702 H686 0.931 . S
C702 C696 1.383 . S
C702 C701 1.379 . S
H703 C697 0.959 . S
H704 C697 0.961 . S
H705 C697 0.960 . S
H706 C698 0.930 . S
H707 C699 0.929 . S
H708 C716 0.929 . S
H709 C718 0.930 . S
H710 C720 0.930 . S
H711 C723 0.929 . S
H712 C726 0.930 . S
H713 C728 0.960 . S
H714 C728 0.960 . S
H715 C728 0.960 . S
C716 H708 0.929 . S
C716 C717 1.377 . S
C716 C718 1.384 . S
C717 C716 1.377 . S
C717 C723 1.390 . S
C718 H709 0.930 . S
C718 C716 1.384 . S
C718 C719 1.372 . S
C719 C718 1.372 . S
C719 C720 1.400 . S
C719 C724 1.490 . S
C720 H710 0.930 . S
C720 C719 1.400 . S
C720 C723 1.386 . S
H721 C737 0.930 . S
H722 C738 0.931 . S
C723 H711 0.929 . S
C723 C717 1.390 . S
C723 C720 1.386 . S
C724 C719 1.490 . S
C724 C726 1.395 . S
C724 C727 1.403 . S
H725 C731 0.930 . S
C726 H712 0.930 . S
C726 C724 1.395 . S
C726 C729 1.403 . S
C727 C724 1.403 . S
C727 C728 1.524 . S
C727 C731 1.400 . S
C728 H713 0.960 . S
C728 H714 0.960 . S
C728 H715 0.960 . S
C728 C727 1.524 . S
C729 C726 1.403 . S
C729 C730 1.392 . S
C729 C733 1.495 . S
C730 C729 1.392 . S
C730 C731 1.385 . S
C730 C732 1.478 . S
C731 H725 0.930 . S
C731 C727 1.400 . S
C731 C730 1.385 . S
C732 C730 1.478 . S
C732 C734 1.381 . S
C732 C738 1.383 . S
C733 C729 1.495 . S
C733 H739 0.959 . S
C733 H740 0.961 . S
C733 H741 0.960 . S
C734 C732 1.381 . S
C734 C735 1.394 . S
C734 H742 0.930 . S
C735 C734 1.394 . S
C735 C736 1.383 . S
C735 H743 0.929 . S
C736 C735 1.383 . S
C736 C737 1.377 . S
C737 H721 0.930 . S
C737 C736 1.377 . S
C737 C738 1.379 . S
C738 H722 0.931 . S
C738 C732 1.383 . S
C738 C737 1.379 . S
H739 C733 0.959 . S
H740 C733 0.961 . S
H741 C733 0.960 . S
H742 C734 0.930 . S
H743 C735 0.929 . S
H744 C752 0.929 . S
H745 C754 0.930 . S
H746 C756 0.930 . S
H747 C759 0.929 . S
H748 C762 0.930 . S
H749 C764 0.960 . S
H750 C764 0.960 . S
H751 C764 0.960 . S
C752 H744 0.929 . S
C752 C753 1.377 . S
C752 C754 1.384 . S
C753 C752 1.377 . S
C753 C759 1.390 . S
C754 H745 0.930 . S
C754 C752 1.384 . S
C754 C755 1.372 . S
C755 C754 1.372 . S
C755 C756 1.400 . S
C755 C760 1.490 . S
C756 H746 0.930 . S
C756 C755 1.400 . S
C756 C759 1.386 . S
H757 C773 0.930 . S
H758 C774 0.931 . S
C759 H747 0.929 . S
C759 C753 1.390 . S
C759 C756 1.386 . S
C760 C755 1.490 . S
C760 C762 1.395 . S
C760 C763 1.403 . S
H761 C767 0.930 . S
C762 H748 0.930 . S
C762 C760 1.395 . S
C762 C765 1.403 . S
C763 C760 1.403 . S
C763 C764 1.524 . S
C763 C767 1.400 . S
C764 H749 0.960 . S
C764 H750 0.960 . S
C764 H751 0.960 . S
C764 C763 1.524 . S
C765 C762 1.403 . S
C765 C766 1.392 . S
C765 C769 1.495 . S
C766 C765 1.392 . S
C766 C767 1.385 . S
C766 C768 1.478 . S
C767 H761 0.930 . S
C767 C763 1.400 . S
C767 C766 1.385 . S
C768 C766 1.478 . S
C768 C770 1.381 . S
C768 C774 1.383 . S
C769 C765 1.495 . S
C769 H775 0.959 . S
C769 H776 0.961 . S
C769 H777 0.960 . S
C770 C768 1.381 . S
C770 C771 1.394 . S
C770 H778 0.930 . S
C771 C770 1.394 . S
C771 C772 1.383 . S
C771 H779 0.929 . S
C772 C771 1.383 . S
C772 C773 1.377 . S
C773 H757 0.930 . S
C773 C772 1.377 . S
C773 C774 1.379 . S
C774 H758 0.931 . S
C774 C768 1.383 . S
C774 C773 1.379 . S
H775 C769 0.959 . S
H776 C769 0.961 . S
H777 C769 0.960 . S
H778 C770 0.930 . S
H779 C771 0.929 . S
H780 C788 0.929 . S
H781 C790 0.930 . S
H782 C792 0.930 . S
H783 C795 0.929 . S
H784 C798 0.930 . S
H785 C800 0.960 . S
H786 C800 0.960 . S
H787 C800 0.960 . S
C788 H780 0.929 . S
C788 C789 1.377 . S
C788 C790 1.384 . S
C789 C788 1.377 . S
C789 C795 1.390 . S
C790 H781 0.930 . S
C790 C788 1.384 . S
C790 C791 1.372 . S
C791 C790 1.372 . S
C791 C792 1.400 . S
C791 C796 1.490 . S
C792 H782 0.930 . S
C792 C791 1.400 . S
C792 C795 1.386 . S
H793 C809 0.930 . S
H794 C810 0.931 . S
C795 H783 0.929 . S
C795 C789 1.390 . S
C795 C792 1.386 . S
C796 C791 1.490 . S
C796 C798 1.395 . S
C796 C799 1.403 . S
H797 C803 0.930 . S
C798 H784 0.930 . S
C798 C796 1.395 . S
C798 C801 1.403 . S
C799 C796 1.403 . S
C799 C800 1.524 . S
C799 C803 1.400 . S
C800 H785 0.960 . S
C800 H786 0.960 . S
C800 H787 0.960 . S
C800 C799 1.524 . S
C801 C798 1.403 . S
C801 C802 1.392 . S
C801 C805 1.495 . S
C802 C801 1.392 . S
C802 C803 1.385 . S
C802 C804 1.478 . S
C803 H797 0.930 . S
C803 C799 1.400 . S
C803 C802 1.385 . S
C804 C802 1.478 . S
C804 C806 1.381 . S
C804 C810 1.383 . S
C805 C801 1.495 . S
C805 H811 0.959 . S
C805 H812 0.961 . S
C805 H813 0.960 . S
C806 C804 1.381 . S
C806 C807 1.394 . S
C806 H814 0.930 . S
C807 C806 1.394 . S
C807 C808 1.383 . S
C807 H815 0.929 . S
C808 C807 1.383 . S
C808 C809 1.377 . S
C809 H793 0.930 . S
C809 C808 1.377 . S
C809 C810 1.379 . S
C810 H794 0.931 . S
C810 C804 1.383 . S
C810 C809 1.379 . S
H811 C805 0.959 . S
H812 C805 0.961 . S
H813 C805 0.960 . S
H814 C806 0.930 . S
H815 C807 0.929 . S
H816 C824 0.929 . S
H817 C826 0.930 . S
H818 C828 0.930 . S
H819 C831 0.929 . S
H820 C834 0.930 . S
H821 C836 0.960 . S
H822 C836 0.960 . S
H823 C836 0.960 . S
C824 H816 0.929 . S
C824 C825 1.377 . S
C824 C826 1.384 . S
C825 C824 1.377 . S
C825 C831 1.390 . S
C826 H817 0.930 . S
C826 C824 1.384 . S
C826 C827 1.372 . S
C827 C826 1.372 . S
C827 C828 1.400 . S
C827 C832 1.490 . S
C828 H818 0.930 . S
C828 C827 1.400 . S
C828 C831 1.386 . S
H829 C845 0.930 . S
H830 C846 0.931 . S
C831 H819 0.929 . S
C831 C825 1.390 . S
C831 C828 1.386 . S
C832 C827 1.490 . S
C832 C834 1.395 . S
C832 C835 1.403 . S
H833 C839 0.930 . S
C834 H820 0.930 . S
C834 C832 1.395 . S
C834 C837 1.403 . S
C835 C832 1.403 . S
C835 C836 1.524 . S
C835 C839 1.400 . S
C836 H821 0.960 . S
C836 H822 0.960 . S
C836 H823 0.960 . S
C836 C835 1.524 . S
C837 C834 1.403 . S
C837 C838 1.392 . S
C837 C841 1.495 . S
C838 C837 1.392 . S
C838 C839 1.385 . S
C838 C840 1.478 . S
C839 H833 0.930 . S
C839 C835 1.400 . S
C839 C838 1.385 . S
C840 C838 1.478 . S
C840 C842 1.381 . S
C840 C846 1.383 . S
C841 C837 1.495 . S
C841 H847 0.959 . S
C841 H848 0.961 . S
C841 H849 0.960 . S
C842 C840 1.381 . S
C842 C843 1.394 . S
C842 H850 0.930 . S
C843 C842 1.394 . S
C843 C844 1.383 . S
C843 H851 0.929 . S
C844 C843 1.383 . S
C844 C845 1.377 . S
C845 H829 0.930 . S
C845 C844 1.377 . S
C845 C846 1.379 . S
C846 H830 0.931 . S
C846 C840 1.383 . S
C846 C845 1.379 . S
H847 C841 0.959 . S
H848 C841 0.961 . S
H849 C841 0.960 . S
H850 C842 0.930 . S
H851 C843 0.929 . S
H852 C860 0.929 . S
H853 C862 0.930 . S
H854 C864 0.930 . S
H855 C867 0.929 . S
H856 C870 0.930 . S
H857 C872 0.960 . S
H858 C872 0.960 . S
H859 C872 0.960 . S
C860 H852 0.929 . S
C860 C861 1.377 . S
C860 C862 1.384 . S
C861 C860 1.377 . S
C861 C867 1.390 . S
C862 H853 0.930 . S
C862 C860 1.384 . S
C862 C863 1.372 . S
C863 C862 1.372 . S
C863 C864 1.400 . S
C863 C868 1.490 . S
C864 H854 0.930 . S
C864 C863 1.400 . S
C864 C867 1.386 . S
H865 C881 0.930 . S
H866 C882 0.931 . S
C867 H855 0.929 . S
C867 C861 1.390 . S
C867 C864 1.386 . S
C868 C863 1.490 . S
C868 C870 1.395 . S
C868 C871 1.403 . S
H869 C875 0.930 . S
C870 H856 0.930 . S
C870 C868 1.395 . S
C870 C873 1.403 . S
C871 C868 1.403 . S
C871 C872 1.524 . S
C871 C875 1.400 . S
C872 H857 0.960 . S
C872 H858 0.960 . S
C872 H859 0.960 . S
C872 C871 1.524 . S
C873 C870 1.403 . S
C873 C874 1.392 . S
C873 C877 1.495 . S
C874 C873 1.392 . S
C874 C875 1.385 . S
C874 C876 1.478 . S
C875 H869 0.930 . S
C875 C871 1.400 . S
C875 C874 1.385 . S
C876 C874 1.478 . S
C876 C878 1.381 . S
C876 C882 1.383 . S
C877 C873 1.495 . S
C877 H883 0.959 . S
C877 H884 0.961 . S
C877 H885 0.960 . S
C878 C876 1.381 . S
C878 C879 1.394 . S
C878 H886 0.930 . S
C879 C878 1.394 . S
C879 C880 1.383 . S
C879 H887 0.929 . S
C880 C879 1.383 . S
C880 C881 1.377 . S
C881 H865 0.930 . S
C881 C880 1.377 . S
C881 C882 1.379 . S
C882 H866 0.931 . S
C882 C876 1.383 . S
C882 C881 1.379 . S
H883 C877 0.959 . S
H884 C877 0.961 . S
H885 C877 0.960 . S
H886 C878 0.930 . S
H887 C879 0.929 . S
H888 C896 0.929 . S
H889 C898 0.930 . S
H890 C900 0.930 . S
H891 C903 0.929 . S
H892 C906 0.930 . S
H893 C908 0.960 . S
H894 C908 0.960 . S
H895 C908 0.960 . S
C896 H888 0.929 . S
C896 C897 1.377 . S
C896 C898 1.384 . S
C897 C896 1.377 . S
C897 C903 1.390 . S
C898 H889 0.930 . S
C898 C896 1.384 . S
C898 C899 1.372 . S
C899 C898 1.372 . S
C899 C900 1.400 . S
C899 C904 1.490 . S
C900 H890 0.930 . S
C900 C899 1.400 . S
C900 C903 1.386 . S
H901 C917 0.930 . S
H902 C918 0.931 . S
C903 H891 0.929 . S
C903 C897 1.390 . S
C903 C900 1.386 . S
C904 C899 1.490 . S
C904 C906 1.395 . S
C904 C907 1.403 . S
H905 C911 0.930 . S
C906 H892 0.930 . S
C906 C904 1.395 . S
C906 C909 1.403 . S
C907 C904 1.403 . S
C907 C908 1.524 . S
C907 C911 1.400 . S
C908 H893 0.960 . S
C908 H894 0.960 . S
C908 H895 0.960 . S
C908 C907 1.524 . S
C909 C906 1.403 . S
C909 C910 1.392 . S
C909 C913 1.495 . S
C910 C909 1.392 . S
C910 C911 1.385 . S
C910 C912 1.478 . S
C911 H905 0.930 . S
C911 C907 1.400 . S
C911 C910 1.385 . S
C912 C910 1.478 . S
C912 C914 1.381 . S
C912 C918 1.383 . S
C913 C909 1.495 . S
C913 H919 0.959 . S
C913 H920 0.961 . S
C913 H921 0.960 . S
C914 C912 1.381 . S
C914 C915 1.394 . S
C914 H922 0.930 . S
C915 C914 1.394 . S
C915 C916 1.383 . S
C915 H923 0.929 . S
C916 C915 1.383 . S
C916 C917 1.377 . S
C917 H901 0.930 . S
C917 C916 1.377 . S
C917 C918 1.379 . S
C918 H902 0.931 . S
C918 C912 1.383 . S
C918 C917 1.379 . S
H919 C913 0.959 . S
H920 C913 0.961 . S
H921 C913 0.960 . S
H922 C914 0.930 . S
H923 C915 0.929 . S
H924 C932 0.929 . S
H925 C934 0.930 . S
H926 C936 0.930 . S
H927 C939 0.929 . S
H928 C942 0.930 . S
H929 C944 0.960 . S
H930 C944 0.960 . S
H931 C944 0.960 . S
C932 H924 0.929 . S
C932 C933 1.377 . S
C932 C934 1.384 . S
C933 C932 1.377 . S
C933 C939 1.390 . S
C934 H925 0.930 . S
C934 C932 1.384 . S
C934 C935 1.372 . S
C935 C934 1.372 . S
C935 C936 1.400 . S
C935 C940 1.490 . S
C936 H926 0.930 . S
C936 C935 1.400 . S
C936 C939 1.386 . S
H937 C953 0.930 . S
H938 C954 0.931 . S
C939 H927 0.929 . S
C939 C933 1.390 . S
C939 C936 1.386 . S
C940 C935 1.490 . S
C940 C942 1.395 1_545 S
C940 C943 1.403 1_455 S
H941 C947 0.936 . S
C942 H928 0.930 . S
C942 C940 1.395 1_565 S
C942 C945 1.403 . S
C943 C940 1.403 1_655 S
C943 C944 1.524 . S
C943 C947 1.437 . S
C944 H929 0.960 . S
C944 H930 0.960 . S
C944 H931 0.960 . S
C944 C943 1.524 . S
C945 C942 1.403 . S
C945 C946 1.392 1_455 S
C945 C949 1.495 . S
C946 C945 1.392 1_655 S
C946 C947 1.344 1_565 S
C946 C948 1.478 . S
C947 H941 0.936 . S
C947 C943 1.437 . S
C947 C946 1.344 1_545 S
C948 C946 1.478 . S
C948 C950 1.381 . S
C948 C954 1.383 . S
C949 C945 1.495 . S
C949 H955 0.959 . S
C949 H956 0.961 . S
C949 H957 0.960 . S
C950 C948 1.381 . S
C950 C951 1.394 . S
C950 H958 0.930 . S
C951 C950 1.394 . S
C951 C952 1.383 . S
C951 H959 0.929 . S
C952 C951 1.383 . S
C952 C953 1.377 . S
C953 H937 0.930 . S
C953 C952 1.377 . S
C953 C954 1.379 . S
C954 H938 0.931 . S
C954 C948 1.383 . S
C954 C953 1.379 . S
H955 C949 0.959 . S
H956 C949 0.961 . S
H957 C949 0.960 . S
H958 C950 0.930 . S
H959 C951 0.929 . S
H960 C968 0.929 . S
H961 C970 0.930 . S
H962 C972 0.930 . S
H963 C975 0.929 . S
H964 C978 0.930 . S
H965 C980 0.960 . S
H966 C980 0.960 . S
H967 C980 0.960 . S
C968 H960 0.929 . S
C968 C969 1.377 . S
C968 C970 1.384 . S
C969 C968 1.377 . S
C969 C975 1.390 . S
C970 H961 0.930 . S
C970 C968 1.384 . S
C970 C971 1.372 . S
C971 C970 1.372 . S
C971 C972 1.400 . S
C971 C976 1.490 . S
C972 H962 0.930 . S
C972 C971 1.400 . S
C972 C975 1.386 . S
H973 C989 0.930 . S
H974 C990 0.931 . S
C975 H963 0.929 . S
C975 C969 1.390 . S
C975 C972 1.386 . S
C976 C971 1.490 . S
C976 C978 1.395 1_655 S
C976 C979 1.403 1_545 S
H977 C983 0.930 . S
C978 H964 0.930 . S
C978 C976 1.395 1_455 S
C978 C981 1.403 . S
C979 C976 1.403 1_565 S
C979 C980 1.524 . S
C979 C983 1.400 . S
C980 H965 0.960 . S
C980 H966 0.960 . S
C980 H967 0.960 . S
C980 C979 1.524 . S
C981 C978 1.403 . S
C981 C982 1.392 1_545 S
C981 C985 1.495 . S
C982 C981 1.392 1_565 S
C982 C983 1.385 1_455 S
C982 C984 1.478 . S
C983 H977 0.930 . S
C983 C979 1.400 . S
C983 C982 1.385 1_655 S
C984 C982 1.478 . S
C984 C986 1.381 . S
C984 C990 1.383 . S
C985 C981 1.495 . S
C985 H991 0.959 . S
C985 H992 0.961 . S
C985 H993 0.960 . S
C986 C984 1.381 . S
C986 C987 1.394 . S
C986 H994 0.930 . S
C987 C986 1.394 . S
C987 C988 1.383 . S
C987 H995 0.929 . S
C988 C987 1.383 . S
C988 C989 1.377 . S
C989 H973 0.930 . S
C989 C988 1.377 . S
C989 C990 1.379 . S
C990 H974 0.931 . S
C990 C984 1.383 . S
C990 C989 1.379 . S
H991 C985 0.959 . S
H992 C985 0.961 . S
H993 C985 0.960 . S
H994 C986 0.930 . S
H995 C987 0.929 . S
H996 C1004 0.929 . S
H997 C1006 0.930 . S
H998 C1008 0.930 . S
H999 C1011 0.929 . S
H1000 C1014 0.930 . S
H1001 C1016 0.960 . S
H1002 C1016 0.960 . S
H1003 C1016 0.960 . S
C1004 H996 0.929 . S
C1004 C1005 1.377 . S
C1004 C1006 1.384 . S
C1005 C1004 1.377 . S
C1005 C1011 1.390 . S
C1006 H997 0.930 . S
C1006 C1004 1.384 . S
C1006 C1007 1.372 . S
C1007 C1006 1.372 . S
C1007 C1008 1.400 . S
C1007 C1012 1.490 . S
C1008 H998 0.930 . S
C1008 C1007 1.400 . S
C1008 C1011 1.386 . S
H1009 C1025 0.930 . S
H1010 C1026 0.931 . S
C1011 H999 0.929 . S
C1011 C1005 1.390 . S
C1011 C1008 1.386 . S
C1012 C1007 1.490 . S
C1012 C1014 1.395 1_565 S
C1012 C1015 1.403 1_556 S
H1013 C1019 0.930 . S
C1014 H1000 0.930 . S
C1014 C1012 1.395 1_545 S
C1014 C1017 1.403 . S
C1015 C1012 1.403 1_554 S
C1015 C1016 1.524 . S
C1015 C1019 1.400 . S
C1016 H1001 0.960 . S
C1016 H1002 0.960 . S
C1016 H1003 0.960 . S
C1016 C1015 1.524 . S
C1017 C1014 1.403 . S
C1017 C1018 1.392 1_556 S
C1017 C1021 1.495 . S
C1018 C1017 1.392 1_554 S
C1018 C1019 1.385 1_545 S
C1018 C1020 1.478 . S
C1019 H1013 0.930 . S
C1019 C1015 1.400 . S
C1019 C1018 1.385 1_565 S
C1020 C1018 1.478 . S
C1020 C1022 1.381 . S
C1020 C1026 1.383 . S
C1021 C1017 1.495 . S
C1021 H1027 0.959 . S
C1021 H1028 0.961 . S
C1021 H1029 0.960 . S
C1022 C1020 1.381 . S
C1022 C1023 1.394 . S
C1022 H1030 0.930 . S
C1023 C1022 1.394 . S
C1023 C1024 1.383 . S
C1023 H1031 0.929 . S
C1024 C1023 1.383 . S
C1024 C1025 1.377 . S
C1025 H1009 0.930 . S
C1025 C1024 1.377 . S
C1025 C1026 1.379 . S
C1026 H1010 0.931 . S
C1026 C1020 1.383 . S
C1026 C1025 1.379 . S
H1027 C1021 0.959 . S
H1028 C1021 0.961 . S
H1029 C1021 0.960 . S
H1030 C1022 0.930 . S
H1031 C1023 0.929 . S
H1032 C1040 0.929 . S
H1033 C1042 0.930 . S
H1034 C1044 0.930 . S
H1035 C1047 0.929 . S
H1036 C1050 0.930 . S
H1037 C1052 0.937 1_556 S
H1038 C1052 0.954 1_556 S
H1039 C1052 0.990 . S
C1040 H1032 0.929 . S
C1040 C1041 1.377 . S
C1040 C1042 1.384 . S
C1041 C1040 1.377 . S
C1041 C1047 1.390 . S
C1042 H1033 0.930 . S
C1042 C1040 1.384 . S
C1042 C1043 1.372 . S
C1043 C1042 1.372 . S
C1043 C1044 1.400 . S
C1043 C1048 1.490 . S
C1044 H1034 0.930 . S
C1044 C1043 1.400 . S
C1044 C1047 1.386 . S
H1045 C1061 0.930 . S
H1046 C1062 0.931 . S
C1047 H1035 0.929 . S
C1047 C1041 1.390 . S
C1047 C1044 1.386 . S
C1048 C1043 1.490 . S
C1048 C1050 1.395 . S
C1048 C1051 1.403 . S
H1049 C1055 0.930 . S
C1050 H1036 0.930 . S
C1050 C1048 1.395 . S
C1050 C1053 1.403 1_564 S
C1051 C1048 1.403 . S
C1051 C1052 1.525 . S
C1051 C1055 1.400 1_564 S
C1052 H1037 0.937 1_554 S
C1052 H1038 0.954 1_554 S
C1052 H1039 0.990 . S
C1052 C1051 1.525 . S
C1053 C1050 1.403 1_546 S
C1053 C1054 1.392 . S
C1053 C1057 1.495 . S
C1054 C1053 1.392 . S
C1054 C1055 1.385 . S
C1054 C1056 1.478 . S
C1055 H1049 0.930 . S
C1055 C1051 1.400 1_546 S
C1055 C1054 1.385 . S
C1056 C1054 1.478 . S
C1056 C1058 1.381 . S
C1056 C1062 1.383 . S
C1057 C1053 1.495 . S
C1057 H1063 0.959 1_556 S
C1057 H1064 0.954 1_556 S
C1057 H1065 0.960 . S
C1058 C1056 1.381 . S
C1058 C1059 1.394 . S
C1058 H1066 0.930 . S
C1059 C1058 1.394 . S
C1059 C1060 1.383 . S
C1059 H1067 0.929 . S
C1060 C1059 1.383 . S
C1060 C1061 1.377 . S
C1061 H1045 0.930 . S
C1061 C1060 1.377 . S
C1061 C1062 1.379 . S
C1062 H1046 0.931 . S
C1062 C1056 1.383 . S
C1062 C1061 1.379 . S
H1063 C1057 0.959 1_554 S
H1064 C1057 0.954 1_554 S
H1065 C1057 0.960 . S
H1066 C1058 0.930 . S
H1067 C1059 0.929 . S
H1068 C1076 0.929 . S
H1069 C1078 0.930 . S
H1070 C1080 0.930 . S
H1071 C1083 0.929 . S
H1072 C1086 0.930 . S
H1073 C1088 0.960 . S
H1074 C1088 0.960 1_655 S
H1075 C1088 0.960 . S
C1076 H1068 0.929 . S
C1076 C1077 1.377 . S
C1076 C1078 1.384 . S
C1077 C1076 1.377 . S
C1077 C1083 1.390 . S
C1078 H1069 0.930 . S
C1078 C1076 1.384 . S
C1078 C1079 1.372 . S
C1079 C1078 1.372 . S
C1079 C1080 1.400 . S
C1079 C1084 1.490 . S
C1080 H1070 0.930 . S
C1080 C1079 1.400 . S
C1080 C1083 1.386 . S
H1081 C1097 0.930 . S
H1082 C1098 0.931 . S
C1083 H1071 0.929 . S
C1083 C1077 1.390 . S
C1083 C1080 1.386 . S
C1084 C1079 1.490 . S
C1084 C1086 1.395 1_556 S
C1084 C1087 1.403 1_655 S
H1085 C1091 0.933 . S
C1086 H1072 0.930 . S
C1086 C1084 1.395 1_554 S
C1086 C1089 1.403 . S
C1087 C1084 1.403 1_455 S
C1087 C1088 1.524 . S
C1087 C1091 1.400 1_556 S
C1088 H1073 0.960 . S
C1088 H1074 0.960 1_455 S
C1088 H1075 0.960 . S
C1088 C1087 1.524 . S
C1089 C1086 1.403 . S
C1089 C1090 1.392 1_655 S
C1089 C1093 1.495 . S
C1090 C1089 1.392 1_455 S
C1090 C1091 1.385 . S
C1090 C1092 1.478 . S
C1091 H1085 0.933 . S
C1091 C1087 1.400 1_554 S
C1091 C1090 1.385 . S
C1092 C1090 1.478 . S
C1092 C1094 1.381 . S
C1092 C1098 1.383 . S
C1093 C1089 1.495 . S
C1093 H1099 0.959 . S
C1093 H1100 0.961 1_655 S
C1093 H1101 0.960 . S
C1094 C1092 1.381 . S
C1094 C1095 1.394 . S
C1094 H1102 0.930 . S
C1095 C1094 1.394 . S
C1095 C1096 1.383 . S
C1095 H1103 0.929 . S
C1096 C1095 1.383 . S
C1096 C1097 1.377 . S
C1097 H1081 0.930 . S
C1097 C1096 1.377 . S
C1097 C1098 1.379 . S
C1098 H1082 0.931 . S
C1098 C1092 1.383 . S
C1098 C1097 1.379 . S
H1099 C1093 0.959 . S
H1100 C1093 0.961 1_455 S
H1101 C1093 0.960 . S
H1102 C1094 0.930 . S
H1103 C1095 0.929 . S
H1104 C1112 0.929 . S
H1105 C1114 0.930 . S
H1106 C1116 0.930 . S
H1107 C1119 0.929 . S
H1108 C1122 0.930 . S
H1109 C1124 0.960 . S
H1110 C1124 0.960 . S
H1111 C1124 0.960 . S
C1112 H1104 0.929 . S
C1112 C1113 1.377 . S
C1112 C1114 1.384 . S
C1113 C1112 1.377 . S
C1113 C1119 1.390 . S
C1114 H1105 0.930 . S
C1114 C1112 1.384 . S
C1114 C1115 1.372 . S
C1115 C1114 1.372 . S
C1115 C1116 1.400 . S
C1115 C1120 1.490 . S
C1116 H1106 0.930 . S
C1116 C1115 1.400 . S
C1116 C1119 1.386 . S
H1117 C1133 0.930 . S
H1118 C1134 0.931 . S
C1119 H1107 0.929 . S
C1119 C1113 1.390 . S
C1119 C1116 1.386 . S
C1120 C1115 1.490 . S
C1120 C1122 1.395 1_556 S
C1120 C1123 1.403 1_455 S
H1121 C1127 0.930 . S
C1122 H1108 0.930 . S
C1122 C1120 1.395 1_554 S
C1122 C1125 1.403 . S
C1123 C1120 1.403 1_655 S
C1123 C1124 1.524 . S
C1123 C1127 1.400 . S
C1124 H1109 0.960 . S
C1124 H1110 0.960 . S
C1124 H1111 0.960 . S
C1124 C1123 1.524 . S
C1125 C1122 1.403 . S
C1125 C1126 1.392 1_455 S
C1125 C1129 1.495 . S
C1126 C1125 1.392 1_655 S
C1126 C1127 1.385 1_554 S
C1126 C1128 1.478 . S
C1127 H1121 0.930 . S
C1127 C1123 1.400 . S
C1127 C1126 1.385 1_556 S
C1128 C1126 1.478 . S
C1128 C1130 1.381 . S
C1128 C1134 1.383 . S
C1129 C1125 1.495 . S
C1129 H1135 0.959 . S
C1129 H1136 0.961 . S
C1129 H1137 0.960 . S
C1130 C1128 1.381 . S
C1130 C1131 1.394 . S
C1130 H1138 0.930 . S
C1131 C1130 1.394 . S
C1131 C1132 1.383 . S
C1131 H1139 0.929 . S
C1132 C1131 1.383 . S
C1132 C1133 1.377 . S
C1133 H1117 0.930 . S
C1133 C1132 1.377 . S
C1133 C1134 1.379 . S
C1134 H1118 0.931 . S
C1134 C1128 1.383 . S
C1134 C1133 1.379 . S
H1135 C1129 0.959 . S
H1136 C1129 0.961 . S
H1137 C1129 0.960 . S
H1138 C1130 0.930 . S
H1139 C1131 0.929 . S
C285 N81 0.994 . S
C304 N12 0.979 . S
C321 N58 0.994 . S
C340 N35 0.981 . S
C357 N127 0.991 . S
C376 N104 0.999 . S
C393 N150 0.991 . S
C412 N173 0.995 . S
C429 N219 0.997 . S
C448 N196 0.988 . S
C465 N242 0.992 . S
C484 N265 0.990 . S
C501 N2 1.426 . S
C520 C177 1.394 . S
C537 C154 1.363 . S
C556 N25 1.397 . S
C573 C131 1.364 . S
C592 N48 1.396 . S
C609 C108 1.369 . S
C628 N71 1.422 . S
C645 N94 1.423 . S
C664 C269 1.342 . S
C681 C200 1.353 . S
C700 N117 1.435 . S
C717 C246 1.361 . S
C736 N140 1.399 . S
C753 N163 1.426 . S
C772 C223 1.394 . S
C789 C62 1.357 . S
C808 N186 1.450 . S
C825 C16 1.364 . S
C844 N209 1.441 . S
C861 N232 1.426 . S
C880 C39 1.322 . S
C897 C85 1.361 . S
C916 N255 1.448 . S
C933 C7 2.146 . S
C952 C30 2.135 . S
C969 C76 2.144 . S
C988 C53 2.157 . S
C1005 C145 2.143 . S
C1024 C99 2.159 . S
C1041 C122 2.149 . S
C1060 C168 2.137 . S
C1077 C237 2.143 . S
C1096 C191 2.160 . S
C1113 C214 2.145 . S
C1132 C260 2.154 . S
