# Generated by pormake.
# Topology uou, (4)-cn, num edge types: 1
# Building blocks:
#     Node 0, Type 0, BuildingBlock: UXUYUI_clean_sbu_0, # of connection points: 4
#     Node 1, Type 0, BuildingBlock: UXUYUI_clean_sbu_0, # of connection points: 4
#     Node 2, Type 0, BuildingBlock: UXUYUI_clean_sbu_0, # of connection points: 4
#     Node 3, Type 0, BuildingBlock: UXUYUI_clean_sbu_0, # of connection points: 4
#     Node 4, Type 0, BuildingBlock: UXUYUI_clean_sbu_0, # of connection points: 4
#     Node 5, Type 0, BuildingBlock: UXUYUI_clean_sbu_0, # of connection points: 4
#     Node 6, Type 0, BuildingBlock: UXUYUI_clean_sbu_0, # of connection points: 4
#     Node 7, Type 0, BuildingBlock: UXUYUI_clean_sbu_0, # of connection points: 4
#     Node 8, Type 0, BuildingBlock: UXUYUI_clean_sbu_0, # of connection points: 4
#     Node 9, Type 0, BuildingBlock: UXUYUI_clean_sbu_0, # of connection points: 4
#     Node 10, Type 0, BuildingBlock: UXUYUI_clean_sbu_0, # of connection points: 4
#     Node 11, Type 0, BuildingBlock: UXUYUI_clean_sbu_0, # of connection points: 4
#     Node 12, Type 0, BuildingBlock: UXUYUI_clean_sbu_0, # of connection points: 4
#     Node 13, Type 0, BuildingBlock: UXUYUI_clean_sbu_0, # of connection points: 4
#     Node 14, Type 0, BuildingBlock: UXUYUI_clean_sbu_0, # of connection points: 4
#     Node 15, Type 0, BuildingBlock: UXUYUI_clean_sbu_0, # of connection points: 4
#     Edge 16, Type (0, 0), BuildingBlock: XUDNAN_clean_linker_2, # of connection points: 2
#     Edge 17, Type (0, 0), BuildingBlock: XUDNAN_clean_linker_2, # of connection points: 2
#     Edge 18, Type (0, 0), BuildingBlock: XUDNAN_clean_linker_2, # of connection points: 2
#     Edge 19, Type (0, 0), BuildingBlock: XUDNAN_clean_linker_2, # of connection points: 2
#     Edge 20, Type (0, 0), BuildingBlock: XUDNAN_clean_linker_2, # of connection points: 2
#     Edge 21, Type (0, 0), BuildingBlock: XUDNAN_clean_linker_2, # of connection points: 2
#     Edge 22, Type (0, 0), BuildingBlock: XUDNAN_clean_linker_2, # of connection points: 2
#     Edge 23, Type (0, 0), BuildingBlock: XUDNAN_clean_linker_2, # of connection points: 2
#     Edge 24, Type (0, 0), BuildingBlock: XUDNAN_clean_linker_2, # of connection points: 2
#     Edge 25, Type (0, 0), BuildingBlock: XUDNAN_clean_linker_2, # of connection points: 2
#     Edge 26, Type (0, 0), BuildingBlock: XUDNAN_clean_linker_2, # of connection points: 2
#     Edge 27, Type (0, 0), BuildingBlock: XUDNAN_clean_linker_2, # of connection points: 2
#     Edge 28, Type (0, 0), BuildingBlock: XUDNAN_clean_linker_2, # of connection points: 2
#     Edge 29, Type (0, 0), BuildingBlock: XUDNAN_clean_linker_2, # of connection points: 2
#     Edge 30, Type (0, 0), BuildingBlock: XUDNAN_clean_linker_2, # of connection points: 2
#     Edge 31, Type (0, 0), BuildingBlock: XUDNAN_clean_linker_2, # of connection points: 2
#     Edge 32, Type (0, 0), BuildingBlock: XUDNAN_clean_linker_2, # of connection points: 2
#     Edge 33, Type (0, 0), BuildingBlock: XUDNAN_clean_linker_2, # of connection points: 2
#     Edge 34, Type (0, 0), BuildingBlock: XUDNAN_clean_linker_2, # of connection points: 2
#     Edge 35, Type (0, 0), BuildingBlock: XUDNAN_clean_linker_2, # of connection points: 2
#     Edge 36, Type (0, 0), BuildingBlock: XUDNAN_clean_linker_2, # of connection points: 2
#     Edge 37, Type (0, 0), BuildingBlock: XUDNAN_clean_linker_2, # of connection points: 2
#     Edge 38, Type (0, 0), BuildingBlock: XUDNAN_clean_linker_2, # of connection points: 2
#     Edge 39, Type (0, 0), BuildingBlock: XUDNAN_clean_linker_2, # of connection points: 2
#     Edge 40, Type (0, 0), BuildingBlock: XUDNAN_clean_linker_2, # of connection points: 2
#     Edge 41, Type (0, 0), BuildingBlock: XUDNAN_clean_linker_2, # of connection points: 2
#     Edge 42, Type (0, 0), BuildingBlock: XUDNAN_clean_linker_2, # of connection points: 2
#     Edge 43, Type (0, 0), BuildingBlock: XUDNAN_clean_linker_2, # of connection points: 2
#     Edge 44, Type (0, 0), BuildingBlock: XUDNAN_clean_linker_2, # of connection points: 2
#     Edge 45, Type (0, 0), BuildingBlock: XUDNAN_clean_linker_2, # of connection points: 2
#     Edge 46, Type (0, 0), BuildingBlock: XUDNAN_clean_linker_2, # of connection points: 2
#     Edge 47, Type (0, 0), BuildingBlock: XUDNAN_clean_linker_2, # of connection points: 2
# Relax obj value: 0.194
# Max RMSD: 0.198
# Mean RMSD: 0.197
data_MOF--net-uou--node1-UXUYUI_clean_sbu_0--edge1-XUDNAN_clean_linker_2
_symmetry_space_group_name_H-M    P1
_symmetry_Int_Tables_number       1
_symmetry_cell_setting            triclinic
loop_
_symmetry_equiv_pos_as_xyz
'x, y, z'
_cell_length_a     57.056206
_cell_length_b     55.359034
_cell_length_c     77.794335
_cell_angle_alpha  90.001129
_cell_angle_beta   89.995545
_cell_angle_gamma 90.002957
loop_
_atom_site_label
_atom_site_type_symbol
_atom_site_fract_x
_atom_site_fract_y
_atom_site_fract_z
_atom_type_partial_charge
Li0 Li 0.05906 0.05415 0.10527 0.0
Li1 Li 0.09438 0.05888 0.12421 0.0
Li2 Li 0.05624 0.05318 0.1362 0.0
Li3 Li 0.06448 0.09113 0.12315 0.0
C4 C 0.06694 0.00927 0.128 0.0
N5 N 0.05213 0.96686 0.1432 0.0
C6 C 0.08108 0.99774 0.14015 0.0
C7 C 0.04533 0.99921 0.1235 0.0
C8 C 0.07326 0.97631 0.14771 0.0
C9 C 0.03814 0.97776 0.13135 0.0
C10 C 0.09844 0.08529 0.09083 0.0
C11 C 0.12158 0.11482 0.07561 0.0
N12 N 0.12689 0.09792 0.06353 0.0
C13 C 0.10397 0.06827 0.0782 0.0
C14 C 0.10716 0.10881 0.08948 0.0
C15 C 0.11845 0.07499 0.06452 0.0
C16 C 0.03257 0.05308 0.07429 0.0
N17 N 0.0485 0.04123 0.08417 0.0
C18 C 0.04981 0.00839 0.06434 0.0
C19 C 0.05725 0.0194 0.07949 0.0
C20 C 0.03309 0.01993 0.05393 0.0
C21 C 0.0246 0.0427 0.05897 0.0
H22 H 0.02591 0.07044 0.07841 0.0
H23 H 0.07004 0.01051 0.08757 0.0
C24 C 0.13306 0.04457 0.14352 0.0
N25 N 0.12639 0.04984 0.12717 0.0
C26 C 0.15504 0.03454 0.14677 0.0
C27 C 0.16322 0.03597 0.11631 0.0
C28 C 0.14103 0.046 0.11365 0.0
C29 C 0.17029 0.02964 0.13303 0.0
H30 H 0.12091 0.04732 0.15401 0.0
H31 H 0.13522 0.04977 0.10075 0.0
C32 C 0.01697 0.08178 0.12765 0.0
N33 N 0.97906 0.10384 0.14319 0.0
C34 C 0.019 0.09104 0.1443 0.0
C35 C 0.99567 0.08373 0.1189 0.0
C36 C 0.99964 0.10214 0.15193 0.0
C37 C 0.9767 0.09494 0.12698 0.0
C38 C 0.09587 0.09245 0.15069 0.0
C39 C 0.09618 0.09639 0.16843 0.0
C40 C 0.11176 0.10469 0.14016 0.0
C41 C 0.11233 0.11268 0.17535 0.0
C42 C 0.12765 0.12082 0.14756 0.0
N43 N 0.1276 0.12446 0.16486 0.0
C44 C 0.05483 0.03545 0.16946 0.0
C45 C 0.01793 0.03322 0.15554 0.0
C46 C 0.04499 0.02753 0.18485 0.0
N47 N 0.04117 0.03862 0.15536 0.0
C48 C 0.00726 0.02553 0.17076 0.0
C49 C 0.02075 0.0232 0.1858 0.0
H50 H 0.07332 0.03968 0.16884 0.0
H51 H 0.00752 0.03576 0.14407 0.0
C52 C 0.05227 0.13677 0.10911 0.0
N53 N 0.05806 0.125 0.12386 0.0
C54 C 0.04577 0.16114 0.10958 0.0
C55 C 0.05146 0.16076 0.14036 0.0
C56 C 0.05763 0.13645 0.13931 0.0
C57 C 0.04535 0.17342 0.12539 0.0
H58 H 0.05239 0.1271 0.09702 0.0
H59 H 0.06147 0.12661 0.15095 0.0
O60 O 0.07398 0.03058 0.1208 0.0
O61 O 0.08399 0.07923 0.10418 0.0
O62 O 0.03564 0.07078 0.11987 0.0
O63 O 0.08004 0.07659 0.14381 0.0
H64 H 0.09782 0.00536 0.14381 0.0
H65 H 0.03411 0.00806 0.11421 0.0
H66 H 0.08396 0.96723 0.1572 0.0
H67 H 0.0214 0.96982 0.12807 0.0
H68 H 0.1285 0.13294 0.07443 0.0
H69 H 0.09742 0.04999 0.07906 0.0
H70 H 0.1028 0.12231 0.09902 0.0
H71 H 0.12299 0.06195 0.05471 0.0
H72 H 0.05714 0.99105 0.0608 0.0
H73 H 0.01156 0.05211 0.05139 0.0
H74 H 0.15984 0.03021 0.15988 0.0
H75 H 0.17425 0.0322 0.10531 0.0
H76 H 0.03531 0.08957 0.15131 0.0
H77 H 0.99384 0.07662 0.10601 0.0
H78 H 0.00095 0.10937 0.16481 0.0
H79 H 0.9601 0.09656 0.12036 0.0
H80 H 0.08398 0.08702 0.17675 0.0
H81 H 0.11193 0.1017 0.12646 0.0
H82 H 0.11272 0.11595 0.18905 0.0
H83 H 0.14005 0.13042 0.13956 0.0
H84 H 0.05618 0.02543 0.19599 0.0
H85 H 0.9885 0.02257 0.17089 0.0
H86 H 0.0412 0.17029 0.09774 0.0
H87 H 0.05088 0.16938 0.15285 0.0
Li88 Li 0.43732 0.90926 0.11769 0.0
Li89 Li 0.44625 0.94549 0.13325 0.0
Li90 Li 0.40731 0.94007 0.12308 0.0
Li91 Li 0.44006 0.94879 0.10253 0.0
C92 C 0.43165 0.90445 0.15266 0.0
N93 N 0.4477 0.87369 0.17803 0.0
C94 C 0.45552 0.8991 0.1539 0.0
C95 C 0.41592 0.89413 0.16431 0.0
C96 C 0.4633 0.88353 0.16682 0.0
C97 C 0.42438 0.87862 0.17705 0.0
C98 C 0.48804 0.93427 0.11341 0.0
C99 C 0.52099 0.95896 0.10511 0.0
N100 N 0.53584 0.94134 0.11059 0.0
C101 C 0.50362 0.91629 0.11877 0.0
C102 C 0.49678 0.95567 0.10635 0.0
C103 C 0.52772 0.92026 0.11731 0.0
C104 C 0.46137 0.87332 0.10126 0.0
N105 N 0.44541 0.87647 0.114 0.0
C106 C 0.44652 0.83438 0.12079 0.0
C107 C 0.43756 0.85758 0.12359 0.0
C108 C 0.46354 0.83072 0.10797 0.0
C109 C 0.47075 0.85055 0.09803 0.0
H110 H 0.46727 0.88871 0.09387 0.0
H111 H 0.4247 0.86055 0.13356 0.0
C112 C 0.45268 0.95503 0.16835 0.0
N113 N 0.46348 0.95737 0.15286 0.0
C114 C 0.46474 0.96 0.18353 0.0
C115 C 0.49816 0.97214 0.16658 0.0
C116 C 0.48556 0.96647 0.15172 0.0
C117 C 0.48805 0.96819 0.18284 0.0
H118 H 0.43486 0.94849 0.16897 0.0
H119 H 0.4936 0.9691 0.13934 0.0
C120 C 0.39809 0.90705 0.09657 0.0
N121 N 0.36388 0.87402 0.08768 0.0
C122 C 0.39119 0.9046 0.07943 0.0
C123 C 0.38759 0.89271 0.10921 0.0
C124 C 0.37385 0.8878 0.07519 0.0
C125 C 0.37033 0.87611 0.10445 0.0
C126 C 0.43105 0.98908 0.13114 0.0
C127 C 0.41676 0.99345 0.14539 0.0
C128 C 0.4504 0.00393 0.12804 0.0
C129 C 0.42219 0.01257 0.15642 0.0
C130 C 0.45524 0.02287 0.13937 0.0
N131 N 0.44117 0.02674 0.15321 0.0
C132 C 0.36595 0.94456 0.14294 0.0
C133 C 0.36183 0.9532 0.11325 0.0
C134 C 0.34253 0.95068 0.14589 0.0
N135 N 0.37507 0.94612 0.12685 0.0
C136 C 0.33832 0.95937 0.11558 0.0
C137 C 0.32842 0.95841 0.13212 0.0
H138 H 0.37703 0.93911 0.15354 0.0
H139 H 0.36964 0.95433 0.1006 0.0
C140 C 0.44862 0.94354 0.06822 0.0
N141 N 0.4476 0.96095 0.0805 0.0
C142 C 0.45286 0.94967 0.05115 0.0
C143 C 0.45572 0.99159 0.05968 0.0
C144 C 0.45102 0.98465 0.07665 0.0
C145 C 0.45636 0.97394 0.0467 0.0
H146 H 0.44586 0.92484 0.07173 0.0
H147 H 0.44992 0.99813 0.08667 0.0
O148 O 0.42351 0.91947 0.14003 0.0
O149 O 0.46438 0.93048 0.11439 0.0
O150 O 0.415 0.92347 0.10089 0.0
O151 O 0.42642 0.96999 0.12052 0.0
H152 H 0.4679 0.90699 0.14505 0.0
H153 H 0.39736 0.89801 0.16346 0.0
H154 H 0.48174 0.87928 0.16793 0.0
H155 H 0.4124 0.87049 0.18614 0.0
H156 H 0.52798 0.97552 0.0998 0.0
H157 H 0.49721 0.89937 0.1239 0.0
H158 H 0.48502 0.96973 0.10207 0.0
H159 H 0.53997 0.90654 0.12147 0.0
H160 H 0.44026 0.81952 0.12859 0.0
H161 H 0.48405 0.84869 0.08819 0.0
H162 H 0.45607 0.95646 0.19564 0.0
H163 H 0.51578 0.97917 0.1653 0.0
H164 H 0.39912 0.91561 0.0695 0.0
H165 H 0.39265 0.89436 0.12254 0.0
H166 H 0.36833 0.88572 0.06197 0.0
H167 H 0.36206 0.8649 0.11409 0.0
H168 H 0.40181 0.98203 0.14803 0.0
H169 H 0.46174 0.00069 0.11715 0.0
H170 H 0.41137 0.01608 0.16756 0.0
H171 H 0.47025 0.03441 0.1372 0.0
H172 H 0.33576 0.94996 0.15888 0.0
H173 H 0.32805 0.96484 0.10455 0.0
H174 H 0.45348 0.93555 0.04152 0.0
H175 H 0.45825 0.01051 0.05667 0.0
Li176 Li 0.59205 0.9408 0.37977 0.0
Li177 Li 0.5533 0.94782 0.38929 0.0
Li178 Li 0.56168 0.90811 0.37857 0.0
Li179 Li 0.56022 0.9452 0.3584 0.0
C180 C 0.57654 0.92775 0.41604 0.0
N181 N 0.57616 0.93683 0.45096 0.0
C182 C 0.5849 0.94973 0.42238 0.0
C183 C 0.56831 0.91022 0.42748 0.0
C184 C 0.58446 0.95404 0.44007 0.0
C185 C 0.56819 0.9152 0.44509 0.0
C186 C 0.57441 0.99324 0.37501 0.0
C187 C 0.56221 0.03258 0.36515 0.0
N188 N 0.57797 0.043 0.37597 0.0
C189 C 0.5906 0.00433 0.38595 0.0
C190 C 0.56019 0.00746 0.36444 0.0
C191 C 0.59209 0.02951 0.38628 0.0
C192 C 0.63316 0.96491 0.37113 0.0
N193 N 0.62408 0.94908 0.38269 0.0
C194 C 0.65947 0.94987 0.39907 0.0
C195 C 0.63677 0.94116 0.39635 0.0
C196 C 0.66909 0.96686 0.38762 0.0
C197 C 0.65573 0.97406 0.37334 0.0
H198 H 0.62252 0.97102 0.36047 0.0
H199 H 0.62907 0.92854 0.40533 0.0
C200 C 0.52325 0.94866 0.41803 0.0
N201 N 0.53479 0.96332 0.40683 0.0
C202 C 0.51106 0.9584 0.43196 0.0
C203 C 0.52192 0.99828 0.42221 0.0
C204 C 0.534 0.98776 0.40853 0.0
C205 C 0.51052 0.98354 0.43428 0.0
H206 H 0.52389 0.92929 0.41631 0.0
H207 H 0.54299 0.9992 0.39951 0.0
C208 C 0.60613 0.91117 0.35585 0.0
N209 N 0.65153 0.89735 0.34846 0.0
C210 C 0.61781 0.92111 0.34173 0.0
C211 C 0.61748 0.89415 0.36618 0.0
C212 C 0.64078 0.9139 0.33822 0.0
C213 C 0.64045 0.88741 0.36224 0.0
C214 C 0.51257 0.93656 0.37565 0.0
C215 C 0.49723 0.92112 0.38433 0.0
C216 C 0.50514 0.95972 0.37104 0.0
C217 C 0.47475 0.92927 0.38847 0.0
C218 C 0.48254 0.9672 0.37542 0.0
N219 N 0.46795 0.95196 0.38399 0.0
C220 C 0.53921 0.86619 0.39129 0.0
C221 C 0.56048 0.86101 0.36537 0.0
C222 C 0.52977 0.84297 0.38983 0.0
N223 N 0.55387 0.87483 0.37897 0.0
C224 C 0.55152 0.83771 0.36342 0.0
C225 C 0.5354 0.82867 0.37548 0.0
H226 H 0.53385 0.87779 0.40176 0.0
H227 H 0.57187 0.86848 0.35562 0.0
C228 C 0.56957 0.96823 0.32698 0.0
N229 N 0.55326 0.95531 0.33578 0.0
C230 C 0.5661 0.97365 0.30964 0.0
C231 C 0.5287 0.95317 0.31097 0.0
C232 C 0.53297 0.94799 0.32826 0.0
C233 C 0.5456 0.96576 0.30135 0.0
H234 H 0.58555 0.97376 0.33335 0.0
H235 H 0.52045 0.9375 0.33555 0.0
O236 O 0.5763 0.92344 0.39872 0.0
O237 O 0.57273 0.9686 0.3744 0.0
O238 O 0.58394 0.91856 0.35987 0.0
O239 O 0.53483 0.92917 0.37183 0.0
H240 H 0.59137 0.96342 0.4137 0.0
H241 H 0.56197 0.89302 0.4228 0.0
H242 H 0.59068 0.97107 0.44513 0.0
H243 H 0.56172 0.90186 0.45408 0.0
H244 H 0.55127 0.04381 0.35708 0.0
H245 H 0.60195 0.99367 0.39409 0.0
H246 H 0.54773 0.9992 0.35577 0.0
H247 H 0.6045 0.03833 0.39471 0.0
H248 H 0.66927 0.94358 0.41012 0.0
H249 H 0.66226 0.98733 0.3643 0.0
H250 H 0.50222 0.94639 0.44082 0.0
H251 H 0.52211 0.01775 0.42358 0.0
H252 H 0.60929 0.93437 0.33366 0.0
H253 H 0.6087 0.88645 0.37723 0.0
H254 H 0.65008 0.9215 0.32738 0.0
H255 H 0.6495 0.87434 0.37016 0.0
H256 H 0.50266 0.90311 0.38794 0.0
H257 H 0.5168 0.97184 0.36429 0.0
H258 H 0.46273 0.91757 0.39528 0.0
H259 H 0.47662 0.98515 0.37204 0.0
H260 H 0.51721 0.83685 0.39932 0.0
H261 H 0.55658 0.82719 0.35229 0.0
H262 H 0.57946 0.98358 0.30271 0.0
H263 H 0.51281 0.94648 0.30503 0.0
Li264 Li 0.94223 0.04922 0.39026 0.0
Li265 Li 0.90463 0.06064 0.37807 0.0
Li266 Li 0.93753 0.0531 0.35911 0.0
Li267 Li 0.93699 0.08937 0.37682 0.0
C268 C 0.92912 0.00635 0.37424 0.0
N269 N 0.94417 0.95891 0.37398 0.0
C270 C 0.91306 0.98757 0.37655 0.0
C271 C 0.95285 0.00101 0.37194 0.0
C272 C 0.92101 0.9637 0.37633 0.0
C273 C 0.96012 0.97692 0.3718 0.0
C274 C 0.91133 0.07046 0.41322 0.0
C275 C 0.90125 0.08104 0.44237 0.0
N276 N 0.89148 0.05884 0.44454 0.0
C277 C 0.9012 0.04774 0.41575 0.0
C278 C 0.91138 0.08726 0.42662 0.0
C279 C 0.89125 0.04221 0.43167 0.0
C280 C 0.97689 0.04409 0.41557 0.0
N281 N 0.95773 0.03323 0.40863 0.0
C282 C 0.9602 0.00101 0.42895 0.0
C283 C 0.94919 0.01216 0.41507 0.0
C284 C 0.98001 0.01179 0.43642 0.0
C285 C 0.98836 0.03364 0.42959 0.0
H286 H 0.98311 0.06099 0.41028 0.0
H287 H 0.9336 0.00417 0.40965 0.0
C288 C 0.86316 0.0365 0.37131 0.0
N289 N 0.87182 0.0556 0.38024 0.0
C290 C 0.84 0.02917 0.37362 0.0
C291 C 0.83473 0.06197 0.39377 0.0
C292 C 0.85808 0.06867 0.39108 0.0
C293 C 0.82553 0.04169 0.38521 0.0
H294 H 0.87455 0.02645 0.3628 0.0
H295 H 0.86542 0.08379 0.39803 0.0
C296 C 0.98431 0.06803 0.36659 0.0
N297 N 0.02819 0.07248 0.35187 0.0
C298 C 0.98907 0.08705 0.35531 0.0
C299 C 0.00202 0.05152 0.37062 0.0
C300 C 0.01131 0.08892 0.34792 0.0
C301 C 0.02405 0.05401 0.36299 0.0
C302 C 0.89917 0.09871 0.35532 0.0
C303 C 0.89087 0.1034 0.33876 0.0
C304 C 0.89128 0.11273 0.36911 0.0
C305 C 0.87477 0.12209 0.33625 0.0
C306 C 0.87518 0.13124 0.36607 0.0
N307 N 0.86732 0.1355 0.34984 0.0
C308 C 0.94334 0.01888 0.33127 0.0
C309 C 0.9542 0.05943 0.32582 0.0
C310 C 0.94972 0.01219 0.3146 0.0
N311 N 0.9462 0.04208 0.33668 0.0
C312 C 0.96071 0.05359 0.30905 0.0
C313 C 0.9587 0.02964 0.30326 0.0
H314 H 0.93581 0.00552 0.33969 0.0
H315 H 0.95513 0.07796 0.3301 0.0
C316 C 0.96043 0.12679 0.39298 0.0
N317 N 0.94827 0.12158 0.37844 0.0
C318 C 0.97258 0.14856 0.39442 0.0
C319 C 0.95876 0.15964 0.36612 0.0
C320 C 0.94692 0.13756 0.36519 0.0
C321 C 0.97227 0.1651 0.38072 0.0
H322 H 0.96139 0.11357 0.4032 0.0
H323 H 0.93759 0.13272 0.3536 0.0
O324 O 0.92171 0.02982 0.37495 0.0
O325 O 0.92128 0.07634 0.39778 0.0
O326 O 0.96272 0.06604 0.37414 0.0
O327 O 0.91491 0.08043 0.3579 0.0
H328 H 0.89467 0.99139 0.3786 0.0
H329 H 0.96545 0.01532 0.37016 0.0
H330 H 0.90877 0.94898 0.37809 0.0
H331 H 0.97842 0.97255 0.36997 0.0
H332 H 0.90116 0.09387 0.45286 0.0
H333 H 0.90095 0.03451 0.40553 0.0
H334 H 0.91918 0.10492 0.42486 0.0
H335 H 0.88334 0.0247 0.43379 0.0
H336 H 0.95293 0.98442 0.43406 0.0
H337 H 0.00362 0.04248 0.43497 0.0
H338 H 0.83381 0.01328 0.3669 0.0
H339 H 0.82412 0.07234 0.40265 0.0
H340 H 0.97571 0.10017 0.35219 0.0
H341 H 0.99887 0.03701 0.37965 0.0
H342 H 0.01517 0.10346 0.33907 0.0
H343 H 0.03787 0.04131 0.36595 0.0
H344 H 0.89683 0.0927 0.32796 0.0
H345 H 0.89755 0.10947 0.38201 0.0
H346 H 0.8682 0.12592 0.32349 0.0
H347 H 0.86893 0.14224 0.37661 0.0
H348 H 0.94774 0.99353 0.31068 0.0
H349 H 0.96681 0.06783 0.30061 0.0
H350 H 0.98253 0.15218 0.40599 0.0
H351 H 0.95828 0.17176 0.3552 0.0
Li352 Li 0.93779 0.90996 0.87076 0.0
Li353 Li 0.94556 0.94676 0.88729 0.0
Li354 Li 0.90564 0.93918 0.87482 0.0
Li355 Li 0.93819 0.95073 0.85619 0.0
C356 C 0.91653 0.90055 0.90185 0.0
N357 N 0.90381 0.86004 0.92038 0.0
C358 C 0.92906 0.89404 0.91657 0.0
C359 C 0.89732 0.88668 0.89671 0.0
C360 C 0.92242 0.87342 0.92572 0.0
C361 C 0.89121 0.86621 0.9062 0.0
C362 C 0.98739 0.93793 0.86972 0.0
C363 C 0.02037 0.9649 0.86684 0.0
N364 N 0.03473 0.94739 0.87313 0.0
C365 C 0.00254 0.92009 0.8759 0.0
C366 C 0.99641 0.96042 0.86495 0.0
C367 C 0.02638 0.92527 0.87764 0.0
C368 C 0.94586 0.86638 0.85278 0.0
N369 N 0.94786 0.87739 0.86832 0.0
C370 C 0.9702 0.84428 0.8793 0.0
C371 C 0.95962 0.86679 0.88152 0.0
C372 C 0.96898 0.83272 0.86325 0.0
C373 C 0.95626 0.84388 0.84996 0.0
H374 H 0.93693 0.87548 0.84237 0.0
H375 H 0.96181 0.87635 0.89351 0.0
C376 C 0.95491 0.97783 0.91565 0.0
N377 N 0.96156 0.95739 0.90729 0.0
C378 C 0.96424 0.98325 0.93182 0.0
C379 C 0.98732 0.9467 0.93023 0.0
C380 C 0.97758 0.94202 0.91416 0.0
C381 C 0.98025 0.96724 0.93947 0.0
H382 H 0.94155 0.98934 0.91017 0.0
H383 H 0.98185 0.92543 0.90757 0.0
C384 C 0.89718 0.91533 0.84401 0.0
N385 N 0.85906 0.89922 0.82534 0.0
C386 C 0.88791 0.92953 0.83081 0.0
C387 C 0.88738 0.89271 0.84747 0.0
C388 C 0.86853 0.92115 0.82159 0.0
C389 C 0.86803 0.88495 0.83795 0.0
C390 C 0.92632 0.99386 0.87227 0.0
C391 C 0.90691 0.00727 0.86686 0.0
C392 C 0.94781 0.00543 0.87477 0.0
C393 C 0.9095 0.03196 0.86364 0.0
C394 C 0.94969 0.03015 0.87143 0.0
N395 N 0.93066 0.04279 0.86595 0.0
C396 C 0.86381 0.94031 0.89442 0.0
C397 C 0.86064 0.95637 0.86629 0.0
C398 C 0.841 0.94771 0.89827 0.0
N399 N 0.87317 0.94484 0.87867 0.0
C400 C 0.83779 0.96409 0.86957 0.0
C401 C 0.82782 0.96017 0.88585 0.0
H402 H 0.87437 0.93181 0.90424 0.0
H403 H 0.86879 0.96074 0.85416 0.0
C404 C 0.96458 0.95678 0.8264 0.0
N405 N 0.94592 0.96596 0.83504 0.0
C406 C 0.96967 0.96465 0.80979 0.0
C407 C 0.93634 0.99152 0.81128 0.0
C408 C 0.93189 0.98309 0.8279 0.0
C409 C 0.95527 0.98202 0.8019 0.0
H410 H 0.97499 0.9426 0.83216 0.0
H411 H 0.91665 0.98944 0.83475 0.0
O412 O 0.92287 0.9206 0.89267 0.0
O413 O 0.96399 0.93311 0.86787 0.0
O414 O 0.91623 0.92321 0.85311 0.0
O415 O 0.9241 0.96966 0.87545 0.0
H416 H 0.94384 0.90469 0.92084 0.0
H417 H 0.88707 0.89182 0.88562 0.0
H418 H 0.93206 0.86808 0.93707 0.0
H419 H 0.8764 0.85528 0.90233 0.0
H420 H 0.02756 0.98226 0.86324 0.0
H421 H 0.99593 0.90247 0.87943 0.0
H422 H 0.98512 0.97418 0.85962 0.0
H423 H 0.03826 0.91169 0.88254 0.0
H424 H 0.98021 0.83658 0.88978 0.0
H425 H 0.95479 0.83553 0.83742 0.0
H426 H 0.95805 0.99908 0.93862 0.0
H427 H -0.00029 0.93395 0.93561 0.0
H428 H 0.89545 0.94695 0.82782 0.0
H429 H 0.89476 0.88115 0.85727 0.0
H430 H 0.86105 0.93206 0.81145 0.0
H431 H 0.86022 0.86752 0.84054 0.0
H432 H 0.89008 0.99869 0.86503 0.0
H433 H 0.96282 0.99551 0.87944 0.0
H434 H 0.89467 0.04251 0.85931 0.0
H435 H 0.96625 0.03931 0.87327 0.0
H436 H 0.83398 0.94423 0.91096 0.0
H437 H 0.82851 0.97411 0.85974 0.0
H438 H 0.98408 0.95633 0.80294 0.0
H439 H 0.92478 0.0049 0.8057 0.0
Li440 Li 0.56733 0.09229 0.87339 0.0
Li441 Li 0.55633 0.05407 0.88626 0.0
Li442 Li 0.59533 0.06084 0.87603 0.0
Li443 Li 0.56526 0.05653 0.85501 0.0
C444 C 0.56995 0.08919 0.90895 0.0
N445 N 0.55091 0.11222 0.9372 0.0
C446 C 0.54656 0.09675 0.90872 0.0
C447 C 0.58362 0.0933 0.92356 0.0
C448 C 0.53727 0.10838 0.92313 0.0
C449 C 0.57368 0.10498 0.93771 0.0
C450 C 0.51839 0.06259 0.86336 0.0
C451 C 0.49475 0.02763 0.85687 0.0
N452 N 0.47612 0.04231 0.85375 0.0
C453 C 0.49902 0.07733 0.86007 0.0
C454 C 0.51626 0.03752 0.86175 0.0
C455 C 0.47779 0.06673 0.85525 0.0
C456 C 0.54363 0.13465 0.86396 0.0
N457 N 0.56096 0.12604 0.87426 0.0
C458 C 0.56439 0.16423 0.88833 0.0
C459 C 0.57183 0.14045 0.88596 0.0
C460 C 0.54574 0.17328 0.87846 0.0
C461 C 0.53575 0.15839 0.86581 0.0
H462 H 0.53536 0.12277 0.85475 0.0
H463 H 0.58565 0.13322 0.89395 0.0
C464 C 0.55054 0.02979 0.91744 0.0
N465 N 0.53821 0.04017 0.90444 0.0
C466 C 0.539 0.02098 0.93198 0.0
C467 C 0.50225 0.03386 0.91957 0.0
C468 C 0.51451 0.04263 0.90537 0.0
C469 C 0.51452 0.02294 0.93314 0.0
H470 H 0.56944 0.02891 0.91668 0.0
H471 H 0.50506 0.05201 0.89541 0.0
C472 C 0.60701 0.09894 0.85389 0.0
N473 N 0.64104 0.13414 0.85051 0.0
C474 C 0.6133 0.10738 0.83761 0.0
C475 C 0.61803 0.1084 0.86847 0.0
C476 C 0.63055 0.12518 0.83616 0.0
C477 C 0.63519 0.12618 0.86649 0.0
C478 C 0.59168 0.01412 0.87111 0.0
C479 C 0.60578 0.01183 0.8565 0.0
C480 C 0.59513 0.99862 0.88505 0.0
C481 C 0.62331 0.99422 0.85618 0.0
C482 C 0.61286 0.98125 0.88424 0.0
N483 N 0.62649 0.97945 0.86995 0.0
C484 C 0.6323 0.04488 0.89696 0.0
C485 C 0.64346 0.05272 0.86814 0.0
C486 C 0.65465 0.03607 0.90072 0.0
N487 N 0.62711 0.05267 0.88085 0.0
C488 C 0.66604 0.04416 0.87134 0.0
C489 C 0.6718 0.03536 0.88776 0.0
H490 H 0.6188 0.04474 0.90673 0.0
H491 H 0.63876 0.05869 0.85536 0.0
C492 C 0.54936 0.06207 0.82123 0.0
N493 N 0.55648 0.04536 0.83288 0.0
C494 C 0.54184 0.05487 0.80494 0.0
C495 C 0.54938 0.01339 0.81291 0.0
C496 C 0.55647 0.02138 0.82912 0.0
C497 C 0.54181 0.0302 0.80054 0.0
H498 H 0.54922 0.08099 0.82471 0.0
H499 H 0.56178 0.00842 0.83875 0.0
O500 O 0.57955 0.07764 0.89507 0.0
O501 O 0.53936 0.0728 0.86785 0.0
O502 O 0.59008 0.08155 0.85541 0.0
O503 O 0.57487 0.03172 0.87184 0.0
H504 H 0.53566 0.09376 0.89757 0.0
H505 H 0.60174 0.08751 0.92394 0.0
H506 H 0.51922 0.11434 0.92312 0.0
H507 H 0.58407 0.10829 0.9491 0.0
H508 H 0.49286 0.00827 0.85557 0.0
H509 H 0.50035 0.09676 0.86127 0.0
H510 H 0.531 0.02579 0.86428 0.0
H511 H 0.46265 0.07792 0.85268 0.0
H512 H 0.57276 0.17524 0.89807 0.0
H513 H 0.52123 0.16463 0.85801 0.0
H514 H 0.54912 0.01273 0.94219 0.0
H515 H 0.48342 0.03623 0.92016 0.0
H516 H 0.60492 0.10024 0.82621 0.0
H517 H 0.61349 0.10209 0.88118 0.0
H518 H 0.63559 0.13188 0.82363 0.0
H519 H 0.64386 0.13365 0.87765 0.0
H520 H 0.60353 0.02387 0.84566 0.0
H521 H 0.58432 3e-05 0.89642 0.0
H522 H 0.6345 0.99241 0.84502 0.0
H523 H 0.61581 0.96922 0.89498 0.0
H524 H 0.6582 0.02918 0.91349 0.0
H525 H 0.67878 0.04424 0.86102 0.0
H526 H 0.53567 0.06849 0.79604 0.0
H527 H 0.54991 0.99424 0.81012 0.0
Li528 Li 0.40425 0.05918 0.62527 0.0
Li529 Li 0.44393 0.04978 0.63531 0.0
Li530 Li 0.43471 0.09128 0.62419 0.0
Li531 Li 0.43847 0.05677 0.60501 0.0
C532 C 0.40858 0.08469 0.65722 0.0
N533 N 0.38228 0.1062 0.68287 0.0
C534 C 0.40783 0.07456 0.67368 0.0
C535 C 0.39629 0.10604 0.65395 0.0
C536 C 0.39432 0.08561 0.68643 0.0
C537 C 0.38302 0.11658 0.66704 0.0
C538 C 0.42667 0.00763 0.62497 0.0
C539 C 0.44978 0.97139 0.62791 0.0
N540 N 0.43227 0.96116 0.63728 0.0
C541 C 0.4088 0.99667 0.63447 0.0
C542 C 0.44723 0.99482 0.62151 0.0
C543 C 0.412 0.9732 0.64064 0.0
C544 C 0.35762 0.05008 0.61465 0.0
N545 N 0.37197 0.05161 0.62856 0.0
C546 C 0.34065 0.04031 0.64729 0.0
C547 C 0.36402 0.04667 0.64465 0.0
C548 C 0.32534 0.03873 0.6332 0.0
C549 C 0.33409 0.04366 0.61668 0.0
H550 H 0.36451 0.05377 0.60196 0.0
H551 H 0.37593 0.04704 0.65541 0.0
C552 C 0.48368 0.03708 0.65517 0.0
N553 N 0.46028 0.03354 0.65316 0.0
C554 C 0.49498 0.02897 0.67002 0.0
C555 C 0.45803 0.013 0.6801 0.0
C556 C 0.44749 0.02134 0.66506 0.0
C557 C 0.48197 0.01737 0.68297 0.0
H558 H 0.49336 0.04721 0.64565 0.0
H559 H 0.42879 0.01934 0.66335 0.0
C560 C 0.39931 0.0996 0.59935 0.0
N561 N 0.37222 0.13672 0.58624 0.0
C562 C 0.40503 0.11018 0.58358 0.0
C563 C 0.37947 0.10758 0.60824 0.0
C564 C 0.39123 0.12902 0.57723 0.0
C565 C 0.36609 0.12644 0.60146 0.0
C566 C 0.48249 0.07103 0.61015 0.0
C567 C 0.49021 0.09248 0.60256 0.0
C568 C 0.49487 0.04963 0.6073 0.0
C569 C 0.50997 0.09206 0.59195 0.0
C570 C 0.51452 0.04993 0.5966 0.0
N571 N 0.52159 0.07096 0.58919 0.0
C572 C 0.44714 0.13177 0.64371 0.0
C573 C 0.4436 0.1401 0.61393 0.0
C574 C 0.45387 0.15555 0.64697 0.0
N575 N 0.44192 0.12459 0.62744 0.0
C576 C 0.45063 0.16399 0.61658 0.0
C577 C 0.45582 0.17194 0.63329 0.0
H578 H 0.44646 0.1189 0.65414 0.0
H579 H 0.4402 0.13376 0.60105 0.0
C580 C 0.44538 0.02516 0.57652 0.0
N581 N 0.44754 0.04825 0.58226 0.0
C582 C 0.45063 0.01951 0.55943 0.0
C583 C 0.46038 0.06147 0.5546 0.0
C584 C 0.45505 0.06625 0.57175 0.0
C585 C 0.45792 0.0379 0.54817 0.0
H586 H 0.4391 0.01123 0.58511 0.0
H587 H 0.45661 0.08443 0.57664 0.0
O588 O 0.42179 0.07408 0.64459 0.0
O589 O 0.42395 0.0307 0.61898 0.0
O590 O 0.41257 0.08095 0.60567 0.0
O591 O 0.46298 0.07102 0.62039 0.0
H592 H 0.41745 0.05826 0.67659 0.0
H593 H 0.39736 0.11471 0.64155 0.0
H594 H 0.39346 0.07783 0.69917 0.0
H595 H 0.37343 0.13309 0.66464 0.0
H596 H 0.46567 0.96132 0.6254 0.0
H597 H 0.39269 0.00621 0.63715 0.0
H598 H 0.46108 0.00286 0.61397 0.0
H599 H 0.39837 0.96456 0.6481 0.0
H600 H 0.33477 0.03611 0.66018 0.0
H601 H 0.32285 0.04272 0.60549 0.0
H602 H 0.51352 0.03253 0.67162 0.0
H603 H 0.44717 0.00456 0.68982 0.0
H604 H 0.42003 0.10405 0.57633 0.0
H605 H 0.37425 0.09919 0.62016 0.0
H606 H 0.3956 0.13749 0.56511 0.0
H607 H 0.35077 0.13283 0.60827 0.0
H608 H 0.48097 0.10924 0.60472 0.0
H609 H 0.48935 0.03296 0.61328 0.0
H610 H 0.51604 0.1085 0.58589 0.0
H611 H 0.52418 0.03346 0.5942 0.0
H612 H 0.45815 0.16088 0.66 0.0
H613 H 0.45203 0.17611 0.6057 0.0
H614 H 0.44832 0.00115 0.55494 0.0
H615 H 0.46629 0.0761 0.54644 0.0
Li616 Li 0.05264 0.94414 0.63744 0.0
Li617 Li 0.09121 0.9386 0.62706 0.0
Li618 Li 0.05635 0.94471 0.60662 0.0
Li619 Li 0.06096 0.90667 0.62434 0.0
C620 C 0.06683 0.98881 0.63104 0.0
N621 N 0.05799 0.03203 0.64752 0.0
C622 C 0.07751 0.99387 0.6468 0.0
C623 C 0.05187 0.00579 0.62355 0.0
C624 C 0.07273 0.0158 0.65497 0.0
C625 C 0.04759 0.02754 0.63211 0.0
C626 C 0.09141 0.90319 0.6521 0.0
C627 C 0.11802 0.86985 0.64775 0.0
N628 N 0.12367 0.87036 0.66472 0.0
C629 C 0.09747 0.90333 0.66953 0.0
C630 C 0.10178 0.88629 0.64115 0.0
C631 C 0.11382 0.88662 0.67565 0.0
C632 C 0.01882 0.97559 0.65417 0.0
N633 N 0.03531 0.95803 0.65613 0.0
C634 C 0.0288 0.95711 0.68643 0.0
C635 C 0.04032 0.9487 0.67184 0.0
C636 C 0.0118 0.9753 0.68489 0.0
C637 C 0.00674 0.98452 0.66848 0.0
H638 H 0.01493 0.98258 0.64153 0.0
H639 H 0.0531 0.93447 0.67305 0.0
C640 C 0.13563 0.95443 0.61589 0.0
N641 N 0.12308 0.94743 0.62988 0.0
C642 C 0.1579 0.96456 0.6179 0.0
C643 C 0.15404 0.95958 0.64864 0.0
C644 C 0.13186 0.94965 0.64604 0.0
C645 C 0.16719 0.9677 0.63449 0.0
H646 H 0.12793 0.95302 0.60322 0.0
H647 H 0.12125 0.94468 0.65697 0.0
C648 C 0.01127 0.92858 0.62689 0.0
N649 N 0.96694 0.93237 0.64085 0.0
C650 C 0.00471 0.91377 0.64062 0.0
C651 C 0.99528 0.94517 0.62016 0.0
C652 C 0.98222 0.91602 0.64753 0.0
C653 C 0.97294 0.94684 0.62742 0.0
C654 C 0.09283 0.9061 0.59405 0.0
C655 C 0.08101 0.9001 0.57891 0.0
C656 C 0.11593 0.89829 0.59642 0.0
C657 C 0.0923 0.88598 0.56654 0.0
C658 C 0.12661 0.8842 0.58375 0.0
N659 N 0.11466 0.87837 0.5692 0.0
C660 C 0.05797 0.9729 0.57595 0.0
C661 C 0.02899 0.94222 0.57742 0.0
C662 C 0.05205 0.97774 0.55884 0.0
N663 N 0.0466 0.95516 0.5847 0.0
C664 C 0.02271 0.94625 0.56037 0.0
C665 C 0.0346 0.96388 0.55077 0.0
H666 H 0.07209 0.98269 0.58208 0.0
H667 H 0.02048 0.92806 0.58469 0.0
C668 C 0.04942 0.85951 0.63733 0.0
N669 N 0.05151 0.87367 0.62311 0.0
C670 C 0.03745 0.83748 0.63639 0.0
C671 C 0.03042 0.84495 0.60622 0.0
C672 C 0.04256 0.8667 0.60772 0.0
C673 C 0.02717 0.83035 0.62078 0.0
H674 H 0.05579 0.8659 0.6496 0.0
H675 H 0.04356 0.87874 0.59683 0.0
O676 O 0.07108 0.96737 0.62294 0.0
O677 O 0.07564 0.91975 0.64593 0.0
O678 O 0.03331 0.92691 0.62013 0.0
O679 O 0.08222 0.9203 0.6062 0.0
H680 H 0.08912 0.98087 0.65275 0.0
H681 H 0.04353 0.0021 0.61133 0.0
H682 H 0.08071 0.0199 0.66724 0.0
H683 H 0.03594 0.04081 0.62652 0.0
H684 H 0.12608 0.85664 0.63938 0.0
H685 H 0.08987 0.91638 0.67823 0.0
H686 H 0.0971 0.88556 0.62776 0.0
H687 H 0.11871 0.88662 0.68908 0.0
H688 H 0.03285 0.94903 0.69876 0.0
H689 H 0.99372 0.99854 0.66674 0.0
H690 H 0.16723 0.97088 0.60664 0.0
H691 H 0.16058 0.96138 0.66164 0.0
H692 H 0.01696 0.90089 0.646 0.0
H693 H 0.00016 0.95681 0.60956 0.0
H694 H 0.97693 0.9048 0.65824 0.0
H695 H 0.96039 0.9597 0.62241 0.0
H696 H 0.06329 0.90622 0.57671 0.0
H697 H 0.12555 0.90307 0.60791 0.0
H698 H 0.08328 0.88111 0.55481 0.0
H699 H 0.14442 0.87796 0.58546 0.0
H700 H 0.06165 0.99142 0.5518 0.0
H701 H 0.00898 0.9354 0.55464 0.0
H702 H 0.03502 0.82692 0.64797 0.0
H703 H 0.02287 0.84007 0.59393 0.0
Li704 Li 0.55938 0.59062 0.12186 0.0
Li705 Li 0.55279 0.55302 0.13795 0.0
Li706 Li 0.58856 0.55808 0.12173 0.0
Li707 Li 0.5521 0.55305 0.10726 0.0
C708 C 0.57492 0.58873 0.15716 0.0
N709 N 0.5683 0.61015 0.18886 0.0
C710 C 0.55433 0.60152 0.16058 0.0
C711 C 0.59213 0.58679 0.16986 0.0
C712 C 0.55131 0.61223 0.17669 0.0
C713 C 0.58847 0.59777 0.1858 0.0
C714 C 0.50914 0.56191 0.11936 0.0
C715 C 0.48164 0.52886 0.11829 0.0
N716 N 0.46566 0.54365 0.11069 0.0
C717 C 0.49245 0.57679 0.11157 0.0
C718 C 0.50372 0.53775 0.12276 0.0
C719 C 0.47056 0.56721 0.10728 0.0
C720 C 0.53828 0.62806 0.10574 0.0
N721 N 0.55276 0.62405 0.11928 0.0
C722 C 0.5536 0.66627 0.12578 0.0
C723 C 0.56086 0.64255 0.12915 0.0
C724 C 0.53828 0.6708 0.11198 0.0
C725 C 0.53075 0.65131 0.10187 0.0
H726 H 0.53246 0.61302 0.098 0.0
H727 H 0.57283 0.63896 0.13961 0.0
C728 C 0.54851 0.5211 0.16639 0.0
N729 N 0.53942 0.54093 0.1585 0.0
C730 C 0.5395 0.51346 0.1822 0.0
C731 C 0.51203 0.54672 0.1813 0.0
C732 C 0.52121 0.55341 0.16541 0.0
C733 C 0.52136 0.52669 0.18993 0.0
H734 H 0.56302 0.51156 0.16055 0.0
H735 H 0.51416 0.56893 0.15874 0.0
C736 C 0.59253 0.59371 0.09639 0.0
N737 N 0.62495 0.62723 0.08513 0.0
C738 C 0.59519 0.5982 0.07883 0.0
C739 C 0.6063 0.60633 0.10825 0.0
C740 C 0.6117 0.6152 0.07339 0.0
C741 C 0.6226 0.62319 0.10229 0.0
C742 C 0.5776 0.51108 0.11282 0.0
C743 C 0.58654 0.51608 0.09646 0.0
C744 C 0.57895 0.4876 0.11933 0.0
C745 C 0.59669 0.49747 0.08689 0.0
C746 C 0.58924 0.46947 0.10936 0.0
N747 N 0.59782 0.47474 0.09349 0.0
C748 C 0.63144 0.54258 0.13613 0.0
C749 C 0.63333 0.55158 0.10637 0.0
C750 C 0.65519 0.53632 0.13628 0.0
N751 N 0.62111 0.55023 0.12135 0.0
C752 C 0.6571 0.54583 0.10598 0.0
C753 C 0.66834 0.5382 0.12108 0.0
H754 H 0.62118 0.54131 0.14779 0.0
H755 H 0.62464 0.55699 0.09466 0.0
C756 C 0.53131 0.56039 0.07608 0.0
N757 N 0.53633 0.54229 0.08727 0.0
C758 C 0.51878 0.55564 0.06113 0.0
C759 C 0.51722 0.51347 0.06923 0.0
C760 C 0.52953 0.51913 0.08425 0.0
C761 C 0.51158 0.53195 0.05757 0.0
H762 H 0.53693 0.5786 0.0789 0.0
H763 H 0.53348 0.50516 0.09353 0.0
O764 O 0.57812 0.57772 0.14159 0.0
O765 O 0.53095 0.5707 0.12313 0.0
O766 O 0.57632 0.57717 0.10182 0.0
O767 O 0.56762 0.52893 0.12254 0.0
H768 H 0.54074 0.60303 0.15095 0.0
H769 H 0.60815 0.57688 0.16742 0.0
H770 H 0.53543 0.62214 0.17952 0.0
H771 H 0.60164 0.59643 0.19576 0.0
H772 H 0.47724 0.51018 0.12077 0.0
H773 H 0.49633 0.59552 0.10884 0.0
H774 H 0.51656 0.52589 0.12856 0.0
H775 H 0.45748 0.57851 0.10122 0.0
H776 H 0.56001 0.68088 0.13376 0.0
H777 H 0.51875 0.6539 0.09123 0.0
H778 H 0.54713 0.49796 0.1886 0.0
H779 H 0.49791 0.55721 0.18688 0.0
H780 H 0.58461 0.58862 0.06951 0.0
H781 H 0.60449 0.60318 0.12189 0.0
H782 H 0.61397 0.61883 0.05983 0.0
H783 H 0.63339 0.63306 0.11131 0.0
H784 H 0.58561 0.53407 0.09113 0.0
H785 H 0.57212 0.48344 0.13197 0.0
H786 H 0.60366 0.50109 0.07422 0.0
H787 H 0.59039 0.45122 0.11425 0.0
H788 H 0.66328 0.5305 0.14817 0.0
H789 H 0.66657 0.5471 0.09394 0.0
H790 H 0.51498 0.57029 0.05233 0.0
H791 H 0.51181 0.495 0.0669 0.0
Li792 Li 0.93556 0.40918 0.12308 0.0
Li793 Li 0.941 0.44886 0.1367 0.0
Li794 Li 0.90378 0.43994 0.12341 0.0
Li795 Li 0.93919 0.44691 0.1061 0.0
C796 C 0.90401 0.40546 0.15019 0.0
N797 N 0.87615 0.36929 0.16368 0.0
C798 C 0.90668 0.39838 0.16732 0.0
C799 C 0.88722 0.39411 0.13993 0.0
C800 C 0.89242 0.38006 0.17391 0.0
C801 C 0.87328 0.37589 0.14698 0.0
C802 C 0.98245 0.43279 0.11138 0.0
C803 C 0.01188 0.45623 0.0966 0.0
N804 N 0.0215 0.43549 0.09043 0.0
C805 C 0.99271 0.41172 0.10495 0.0
C806 C 0.9922 0.45523 0.10726 0.0
C807 C 0.01242 0.41346 0.09437 0.0
C808 C 0.94727 0.36223 0.11032 0.0
N809 N 0.94484 0.37633 0.12453 0.0
C810 C 0.96371 0.34664 0.14195 0.0
C811 C 0.95241 0.36883 0.14019 0.0
C812 C 0.96765 0.33218 0.12739 0.0
C813 C 0.95864 0.33988 0.11148 0.0
H814 H 0.94166 0.36897 0.09793 0.0
H815 H 0.9507 0.38064 0.15119 0.0
C816 C 0.9461 0.45974 0.17179 0.0
N817 N 0.9558 0.46331 0.15604 0.0
C818 C 0.95824 0.46648 0.18661 0.0
C819 C 0.98937 0.48199 0.16865 0.0
C820 C 0.97675 0.47468 0.15421 0.0
C821 C 0.98054 0.47714 0.18517 0.0
H822 H 0.92938 0.45068 0.17285 0.0
H823 H 0.98405 0.47736 0.14156 0.0
C824 C 0.90178 0.41256 0.09101 0.0
N825 N 0.87293 0.3967 0.06479 0.0
C826 C 0.89674 0.42769 0.0771 0.0
C827 C 0.89245 0.38921 0.09142 0.0
C828 C 0.88203 0.41939 0.06402 0.0
C829 C 0.87782 0.38158 0.07809 0.0
C830 C 0.92321 0.49032 0.13087 0.0
C831 C 0.90641 0.494 0.14368 0.0
C832 C 0.94111 0.50726 0.12857 0.0
C833 C 0.90777 0.51463 0.15397 0.0
C834 C 0.94187 0.52766 0.13913 0.0
N835 N 0.92532 0.53089 0.1515 0.0
C836 C 0.85653 0.4463 0.13685 0.0
C837 C 0.8647 0.45961 0.10853 0.0
C838 C 0.83434 0.45715 0.13626 0.0
N839 N 0.87124 0.44796 0.12312 0.0
C840 C 0.84277 0.47046 0.10733 0.0
C841 C 0.82751 0.46999 0.12148 0.0
H842 H 0.86244 0.43781 0.14859 0.0
H843 H 0.87705 0.46165 0.09815 0.0
C844 C 0.95764 0.44507 0.07217 0.0
N845 N 0.94869 0.45972 0.08457 0.0
C846 C 0.96283 0.45437 0.0559 0.0
C847 C 0.94948 0.49354 0.06557 0.0
C848 C 0.94455 0.4835 0.08159 0.0
C849 C 0.95849 0.47888 0.0524 0.0
H850 H 0.96027 0.42608 0.07482 0.0
H851 H 0.93693 0.49459 0.09154 0.0
O852 O 0.91817 0.42308 0.1435 0.0
O853 O 0.96301 0.43145 0.12165 0.0
O854 O 0.91652 0.42018 0.10381 0.0
O855 O 0.92252 0.46989 0.12099 0.0
H856 H 0.91975 0.40681 0.17542 0.0
H857 H 0.88477 0.39951 0.12673 0.0
H858 H 0.89433 0.37437 0.18714 0.0
H859 H 0.86016 0.36703 0.13917 0.0
H860 H 0.01943 0.47349 0.09317 0.0
H861 H 0.9856 0.39419 0.10812 0.0
H862 H 0.98431 0.47176 0.11188 0.0
H863 H 0.0205 0.39729 0.08928 0.0
H864 H 0.97001 0.34127 0.15452 0.0
H865 H 0.96152 0.32945 0.0999 0.0
H866 H 0.95078 0.46211 0.19902 0.0
H867 H 0.00625 0.49059 0.1669 0.0
H868 H 0.904 0.4457 0.07642 0.0
H869 H 0.89654 0.37703 0.10188 0.0
H870 H 0.87787 0.43097 0.05325 0.0
H871 H 0.87042 0.36359 0.07828 0.0
H872 H 0.89264 0.48093 0.14581 0.0
H873 H 0.95449 0.50454 0.11891 0.0
H874 H 0.89492 0.51767 0.16397 0.0
H875 H 0.95567 0.54086 0.13754 0.0
H876 H 0.82324 0.45662 0.14754 0.0
H877 H 0.83818 0.47989 0.09561 0.0
H878 H 0.96948 0.44236 0.04606 0.0
H879 H 0.94612 0.51257 0.0635 0.0
Li880 Li 0.05244 0.44705 0.3877 0.0
Li881 Li 0.09265 0.44001 0.37792 0.0
Li882 Li 0.06041 0.44525 0.35747 0.0
Li883 Li 0.0636 0.40849 0.37485 0.0
C884 C 0.07437 0.48963 0.3652 0.0
N885 N 0.07763 0.53089 0.34536 0.0
C886 C 0.09631 0.49829 0.3601 0.0
C887 C 0.0541 0.50205 0.36032 0.0
C888 C 0.09759 0.51917 0.35005 0.0
C889 C 0.05612 0.52283 0.35025 0.0
C890 C 0.09116 0.42091 0.40923 0.0
C891 C 0.12676 0.40383 0.4207 0.0
N892 N 0.12465 0.41819 0.43481 0.0
C893 C 0.0893 0.43545 0.42386 0.0
C894 C 0.10997 0.40489 0.40766 0.0
C895 C 0.10643 0.43382 0.43664 0.0
C896 C 0.02568 0.44704 0.418 0.0
N897 N 0.03454 0.46147 0.40546 0.0
C898 C 0.02114 0.4968 0.42004 0.0
C899 C 0.03235 0.48589 0.40613 0.0
C900 C 0.01229 0.4824 0.43343 0.0
C901 C 0.01437 0.45718 0.43217 0.0
H902 H 0.02802 0.42769 0.41723 0.0
H903 H 0.03994 0.49693 0.39613 0.0
C904 C 0.14135 0.44054 0.37076 0.0
N905 N 0.12458 0.4478 0.38205 0.0
C906 C 0.16471 0.4473 0.37325 0.0
C907 C 0.15306 0.4685 0.39906 0.0
C908 C 0.1299 0.46185 0.39585 0.0
C909 C 0.1707 0.4613 0.38762 0.0
H910 H 0.13653 0.4298 0.3597 0.0
H911 H 0.1161 0.4681 0.40426 0.0
C912 C 0.01321 0.42909 0.37624 0.0
N913 N 0.96893 0.4317 0.39047 0.0
C914 C 0.00448 0.40981 0.38591 0.0
C915 C 0.99939 0.44962 0.3737 0.0
C916 C 0.98205 0.41149 0.39302 0.0
C917 C 0.97706 0.45062 0.38104 0.0
C918 C 0.09027 0.40057 0.34795 0.0
C919 C 0.07789 0.39616 0.33277 0.0
C920 C 0.10654 0.38362 0.35385 0.0
C921 C 0.08187 0.37469 0.3238 0.0
C922 C 0.10999 0.36235 0.34452 0.0
N923 N 0.09768 0.35836 0.32982 0.0
C924 C 0.0708 0.46629 0.32559 0.0
C925 C 0.03117 0.45423 0.32871 0.0
C926 C 0.06674 0.47344 0.30866 0.0
N927 N 0.05311 0.45694 0.33519 0.0
C928 C 0.02642 0.46073 0.31171 0.0
C929 C 0.04442 0.47023 0.30134 0.0
H930 H 0.0882 0.46774 0.33098 0.0
H931 H 0.01757 0.44625 0.33654 0.0
C932 C 0.06495 0.36125 0.3888 0.0
N933 N 0.05748 0.37467 0.37524 0.0
C934 C 0.05945 0.33673 0.3898 0.0
C935 C 0.0386 0.34024 0.36287 0.0
C936 C 0.04445 0.36474 0.36243 0.0
C937 C 0.04603 0.32589 0.37674 0.0
H938 H 0.07476 0.3697 0.39903 0.0
H939 H 0.03835 0.37596 0.35196 0.0
O940 O 0.07274 0.46908 0.37489 0.0
O941 O 0.0747 0.42242 0.39648 0.0
O942 O 0.03529 0.428 0.36947 0.0
O943 O 0.0863 0.42124 0.35711 0.0
H944 H 0.11218 0.48893 0.36375 0.0
H945 H 0.03699 0.49555 0.36411 0.0
H946 H 0.11444 0.52602 0.34595 0.0
H947 H 0.04057 0.53253 0.34628 0.0
H948 H 0.14148 0.39162 0.4196 0.0
H949 H 0.07497 0.44807 0.42526 0.0
H950 H 0.11173 0.39359 0.39639 0.0
H951 H 0.10527 0.44503 0.448 0.0
H952 H 0.02022 0.51632 0.42063 0.0
H953 H 0.00762 0.44542 0.44214 0.0
H954 H 0.17795 0.44154 0.36416 0.0
H955 H 0.1571 0.47961 0.41014 0.0
H956 H 0.01499 0.39384 0.38808 0.0
H957 H 0.00591 0.4647 0.36626 0.0
H958 H 0.9751 0.39677 0.40061 0.0
H959 H 0.96622 0.46645 0.37927 0.0
H960 H 0.06518 0.40905 0.32805 0.0
H961 H 0.11629 0.3868 0.36555 0.0
H962 H 0.07233 0.37097 0.31207 0.0
H963 H 0.12243 0.34901 0.34898 0.0
H964 H 0.08111 0.48099 0.30133 0.0
H965 H 0.00907 0.45741 0.3066 0.0
H966 H 0.06516 0.32653 0.40091 0.0
H967 H 0.02838 0.33265 0.35246 0.0
Li968 Li 0.44602 0.55121 0.3942 0.0
Li969 Li 0.40683 0.55641 0.38037 0.0
Li970 Li 0.4419 0.55195 0.36326 0.0
Li971 Li 0.43573 0.58909 0.37865 0.0
C972 C 0.43103 0.50723 0.37066 0.0
N973 N 0.4369 0.46572 0.35139 0.0
C974 C 0.41169 0.49603 0.36305 0.0
C975 C 0.45332 0.49715 0.36863 0.0
C976 C 0.41502 0.47509 0.35332 0.0
C977 C 0.45594 0.47622 0.35879 0.0
C978 C 0.40611 0.59241 0.40644 0.0
C979 C 0.37459 0.621 0.40293 0.0
N980 N 0.37622 0.6268 0.41988 0.0
C981 C 0.40753 0.59868 0.4238 0.0
C982 C 0.38956 0.60367 0.39588 0.0
C983 C 0.39223 0.6161 0.43036 0.0
C984 C 0.47175 0.55312 0.4251 0.0
N985 N 0.46154 0.53816 0.41345 0.0
C986 C 0.47301 0.50344 0.42953 0.0
C987 C 0.46186 0.51379 0.4154 0.0
C988 C 0.48369 0.51837 0.44183 0.0
C989 C 0.48293 0.54354 0.43955 0.0
H990 H 0.4711 0.57247 0.42317 0.0
H991 H 0.45331 0.50238 0.40604 0.0
C992 C 0.36199 0.54081 0.36926 0.0
N993 N 0.37489 0.54764 0.38311 0.0
C994 C 0.33955 0.53114 0.37152 0.0
C995 C 0.34363 0.5373 0.40213 0.0
C996 C 0.36613 0.54626 0.39931 0.0
C997 C 0.33018 0.52889 0.3882 0.0
H998 H 0.36955 0.54186 0.35653 0.0
H999 H 0.37687 0.55154 0.41013 0.0
C1000 C 0.48831 0.56949 0.37585 0.0
N1001 N 0.53649 0.56898 0.3721 0.0
C1002 C 0.49982 0.58905 0.3682 0.0
C1003 C 0.50136 0.54974 0.38166 0.0
C1004 C 0.52417 0.58842 0.3664 0.0
C1005 C 0.52569 0.54981 0.37964 0.0
C1006 C 0.41834 0.58797 0.34491 0.0
C1007 C 0.44052 0.59581 0.33973 0.0
C1008 C 0.39886 0.59289 0.33461 0.0
C1009 C 0.44285 0.60854 0.32432 0.0
C1010 C 0.40189 0.60569 0.3193 0.0
N1011 N 0.42364 0.61319 0.31451 0.0
C1012 C 0.43656 0.53084 0.33061 0.0
C1013 C 0.47605 0.54019 0.33733 0.0
C1014 C 0.44304 0.52315 0.31418 0.0
N1015 N 0.45301 0.53928 0.34177 0.0
C1016 C 0.48322 0.53313 0.32096 0.0
C1017 C 0.46658 0.52474 0.30914 0.0
H1018 H 0.41831 0.53064 0.33436 0.0
H1019 H 0.48889 0.54694 0.34622 0.0
C1020 C 0.46081 0.63031 0.38765 0.0
N1021 N 0.4416 0.6229 0.37878 0.0
C1022 C 0.46844 0.6542 0.3865 0.0
C1023 C 0.43549 0.66277 0.36793 0.0
C1024 C 0.42851 0.63868 0.36945 0.0
C1025 C 0.45607 0.67066 0.37617 0.0
H1026 H 0.47079 0.61735 0.39505 0.0
H1027 H 0.41307 0.63242 0.36273 0.0
O1028 O 0.42817 0.52803 0.37994 0.0
O1029 O 0.42111 0.57555 0.3998 0.0
O1030 O 0.46446 0.56985 0.37776 0.0
O1031 O 0.4156 0.57528 0.35986 0.0
H1032 H 0.3943 0.50344 0.36457 0.0
H1033 H 0.46848 0.50556 0.3744 0.0
H1034 H 0.40021 0.46631 0.34729 0.0
H1035 H 0.47312 0.46835 0.357 0.0
H1036 H 0.36169 0.62986 0.39493 0.0
H1037 H 0.42033 0.59017 0.4321 0.0
H1038 H 0.38828 0.59911 0.3824 0.0
H1039 H 0.3931 0.62112 0.44378 0.0
H1040 H 0.4729 0.48398 0.43098 0.0
H1041 H 0.49107 0.55561 0.44873 0.0
H1042 H 0.33013 0.52466 0.36037 0.0
H1043 H 0.33708 0.5366 0.41518 0.0
H1044 H 0.49008 0.60452 0.36362 0.0
H1045 H 0.49286 0.53449 0.38765 0.0
H1046 H 0.53328 0.6034 0.36047 0.0
H1047 H 0.53597 0.53462 0.38405 0.0
H1048 H 0.45578 0.59205 0.34748 0.0
H1049 H 0.38157 0.58686 0.33844 0.0
H1050 H 0.45992 0.6147 0.32016 0.0
H1051 H 0.38696 0.60965 0.31121 0.0
H1052 H 0.42971 0.517 0.30528 0.0
H1053 H 0.50155 0.53455 0.31747 0.0
H1054 H 0.48446 0.65939 0.39297 0.0
H1055 H 0.42518 0.67497 0.36011 0.0
Li1056 Li 0.43955 0.44862 0.8902 0.0
Li1057 Li 0.43853 0.41014 0.87635 0.0
Li1058 Li 0.44228 0.44814 0.85933 0.0
Li1059 Li 0.40493 0.4376 0.87452 0.0
C1060 C 0.48723 0.43948 0.87855 0.0
N1061 N 0.53381 0.45088 0.88391 0.0
C1062 C 0.50175 0.42363 0.88763 0.0
C1063 C 0.49652 0.46091 0.87192 0.0
C1064 C 0.52521 0.42979 0.89029 0.0
C1065 C 0.52008 0.46641 0.87485 0.0
C1066 C 0.42209 0.41038 0.91034 0.0
C1067 C 0.40853 0.39095 0.93623 0.0
N1068 N 0.43114 0.38772 0.94127 0.0
C1069 C 0.44518 0.40691 0.91578 0.0
C1070 C 0.40359 0.40239 0.92064 0.0
C1071 C 0.4494 0.39541 0.93145 0.0
C1072 C 0.42987 0.46854 0.92191 0.0
N1073 N 0.44816 0.46459 0.91106 0.0
C1074 C 0.47498 0.48088 0.9316 0.0
C1075 C 0.47044 0.47069 0.91552 0.0
C1076 C 0.45639 0.48501 0.94305 0.0
C1077 C 0.43357 0.47893 0.93798 0.0
H1078 H 0.41237 0.46327 0.91811 0.0
H1079 H 0.48476 0.46748 0.90681 0.0
C1080 C 0.46887 0.37206 0.86861 0.0
N1081 N 0.4489 0.37756 0.87729 0.0
C1082 C 0.47884 0.34911 0.87009 0.0
C1083 C 0.44717 0.33778 0.88911 0.0
C1084 C 0.43767 0.36084 0.88709 0.0
C1085 C 0.4682 0.33183 0.88074 0.0
H1086 H 0.47739 0.38575 0.8609 0.0
H1087 H 0.42163 0.36555 0.89367 0.0
C1088 C 0.42163 0.4907 0.88157 0.0
N1089 N 0.42197 0.53426 0.89891 0.0
C1090 C 0.40182 0.49826 0.89066 0.0
C1091 C 0.44149 0.50545 0.88109 0.0
C1092 C 0.40236 0.52031 0.89939 0.0
C1093 C 0.44136 0.52736 0.89 0.0
C1094 C 0.40785 0.40057 0.84965 0.0
C1095 C 0.40877 0.39365 0.8324 0.0
C1096 C 0.39374 0.38769 0.86114 0.0
C1097 C 0.39548 0.37391 0.82689 0.0
C1098 C 0.38073 0.36806 0.85513 0.0
N1099 N 0.38186 0.36163 0.83827 0.0
C1100 C 0.46945 0.44887 0.82925 0.0
C1101 C 0.44636 0.4839 0.83387 0.0
C1102 C 0.47681 0.45767 0.81333 0.0
N1103 N 0.4543 0.46191 0.839 0.0
C1104 C 0.45325 0.4934 0.81804 0.0
C1105 C 0.46837 0.48005 0.80741 0.0
H1106 H 0.47526 0.43132 0.83366 0.0
H1107 H 0.43419 0.49377 0.84189 0.0
C1108 C 0.35964 0.44379 0.88803 0.0
N1109 N 0.372 0.4407 0.87327 0.0
C1110 C 0.33559 0.44838 0.88738 0.0
C1111 C 0.33743 0.44565 0.85637 0.0
C1112 C 0.36147 0.44143 0.85761 0.0
C1113 C 0.32426 0.44951 0.87138 0.0
H1114 H 0.36861 0.44334 0.90028 0.0
H1115 H 0.37186 0.43924 0.84609 0.0
O1116 O 0.46427 0.43361 0.87568 0.0
O1117 O 0.41747 0.42172 0.89509 0.0
O1118 O 0.42163 0.46891 0.87327 0.0
O1119 O 0.42088 0.41977 0.85523 0.0
H1120 H 0.49503 0.40671 0.89254 0.0
H1121 H 0.48572 0.47315 0.86458 0.0
H1122 H 0.53661 0.41776 0.89737 0.0
H1123 H 0.52747 0.48299 0.86987 0.0
H1124 H 0.39438 0.38464 0.94433 0.0
H1125 H 0.45964 0.41313 0.90802 0.0
H1126 H 0.38561 0.40498 0.9166 0.0
H1127 H 0.4672 0.39262 0.93581 0.0
H1128 H 0.49282 0.48554 0.93504 0.0
H1129 H 0.4188 0.48159 0.94653 0.0
H1130 H 0.49514 0.34524 0.86351 0.0
H1131 H 0.4383 0.32481 0.89726 0.0
H1132 H 0.38626 0.48713 0.8911 0.0
H1133 H 0.4569 0.49999 0.87402 0.0
H1134 H 0.38721 0.52629 0.90658 0.0
H1135 H 0.45668 0.53887 0.88985 0.0
H1136 H 0.41966 0.40343 0.82337 0.0
H1137 H 0.39284 0.39275 0.87455 0.0
H1138 H 0.39601 0.36835 0.81356 0.0
H1139 H 0.36974 0.35792 0.86387 0.0
H1140 H 0.48819 0.4466 0.80545 0.0
H1141 H 0.44652 0.5108 0.81404 0.0
H1142 H 0.32598 0.45115 0.89923 0.0
H1143 H 0.32937 0.44668 0.84379 0.0
Li1144 Li 0.05579 0.55847 0.89044 0.0
Li1145 Li 0.06648 0.59374 0.8735 0.0
Li1146 Li 0.0562 0.55413 0.85952 0.0
Li1147 Li 0.09387 0.55895 0.87424 0.0
C1148 C 0.01484 0.57863 0.88087 0.0
N1149 N 0.97178 0.58381 0.89672 0.0
C1150 C 0.00903 0.6003 0.88905 0.0
C1151 C 0.99859 0.55975 0.8805 0.0
C1152 C 0.98721 0.60253 0.89705 0.0
C1153 C 0.97697 0.56267 0.88867 0.0
C1154 C 0.09734 0.59644 0.90211 0.0
C1155 C 0.13272 0.62016 0.90385 0.0
N1156 N 0.12542 0.62929 0.91917 0.0
C1157 C 0.09035 0.60579 0.91799 0.0
C1158 C 0.11882 0.60344 0.89507 0.0
C1159 C 0.10472 0.62249 0.92637 0.0
C1160 C 0.03857 0.52523 0.91524 0.0
N1161 N 0.04063 0.54899 0.91108 0.0
C1162 C 0.01967 0.56055 0.93634 0.0
C1163 C 0.03182 0.56659 0.9214 0.0
C1164 C 0.01692 0.53616 0.94084 0.0
C1165 C 0.02676 0.51836 0.93019 0.0
H1166 H 0.04602 0.51161 0.90693 0.0
H1167 H 0.03411 0.58534 0.91795 0.0
C1168 C 0.05588 0.63458 0.85456 0.0
N1169 N 0.06218 0.62761 0.87065 0.0
C1170 C 0.04936 0.65843 0.85131 0.0
C1171 C 0.05619 0.66769 0.88125 0.0
C1172 C 0.06263 0.64361 0.88392 0.0
C1173 C 0.04912 0.67529 0.8648 0.0
H1174 H 0.05516 0.62134 0.84434 0.0
H1175 H 0.06707 0.63756 0.89668 0.0
C1176 C 0.06631 0.50954 0.8709 0.0
N1177 N 0.05737 0.46377 0.85831 0.0
C1178 C 0.0847 0.4951 0.86495 0.0
C1179 C 0.04343 0.50055 0.87068 0.0
C1180 C 0.07981 0.47205 0.85857 0.0
C1181 C 0.03925 0.47741 0.8642 0.0
C1182 C 0.09748 0.58693 0.84286 0.0
C1183 C 0.1004 0.57715 0.82643 0.0
C1184 C 0.1101 0.60755 0.84754 0.0
C1185 C 0.11634 0.5878 0.81511 0.0
C1186 C 0.12585 0.6177 0.83584 0.0
N1187 N 0.12865 0.60768 0.82001 0.0
C1188 C 0.02128 0.54831 0.83428 0.0
C1189 C 0.05564 0.52499 0.82987 0.0
C1190 C 0.01235 0.54095 0.81842 0.0
N1191 N 0.04267 0.54048 0.83954 0.0
C1192 C 0.04726 0.51692 0.81404 0.0
C1193 C 0.02558 0.52534 0.808 0.0
H1194 H 0.01157 0.56098 0.8421 0.0
H1195 H 0.07292 0.5197 0.83412 0.0
C1196 C 0.13791 0.54351 0.88774 0.0
N1197 N 0.12513 0.5473 0.87324 0.0
C1198 C 0.15941 0.53139 0.88684 0.0
C1199 C 0.15425 0.52786 0.8561 0.0
C1200 C 0.13296 0.53997 0.8576 0.0
C1201 C 0.16754 0.52291 0.87087 0.0
H1202 H 0.13099 0.54905 0.90008 0.0
H1203 H 0.1221 0.54237 0.84638 0.0
O1204 O 0.03623 0.57601 0.87314 0.0
O1205 O 0.08351 0.57994 0.89382 0.0
O1206 O 0.07072 0.53227 0.87701 0.0
O1207 O 0.08177 0.57679 0.85404 0.0
H1208 H 0.02132 0.61514 0.88941 0.0
H1209 H 0.0026 0.54304 0.87396 0.0
H1210 H 0.98257 0.61913 0.90356 0.0
H1211 H 0.96428 0.54814 0.88857 0.0
H1212 H 0.14935 0.6258 0.89851 0.0
H1213 H 0.07393 0.60033 0.92375 0.0
H1214 H 0.12485 0.59588 0.88306 0.0
H1215 H 0.09944 0.63001 0.93861 0.0
H1216 H 0.01268 0.57482 0.94437 0.0
H1217 H 0.02497 0.49936 0.93323 0.0
H1218 H 0.04364 0.66332 0.8385 0.0
H1219 H 0.05639 0.6801 0.892 0.0
H1220 H 0.10255 0.5016 0.86522 0.0
H1221 H 0.02905 0.51134 0.87543 0.0
H1222 H 0.09387 0.46074 0.85385 0.0
H1223 H 0.0216 0.4703 0.86386 0.0
H1224 H 0.09056 0.56139 0.8225 0.0
H1225 H 0.10755 0.61586 0.85996 0.0
H1226 H 0.1189 0.58029 0.80241 0.0
H1227 H 0.13576 0.63363 0.83932 0.0
H1228 H 0.99555 0.54781 0.81415 0.0
H1229 H 0.05814 0.50524 0.80623 0.0
H1230 H 0.16899 0.52774 0.89857 0.0
H1231 H 0.15995 0.52188 0.84352 0.0
Li1232 Li 0.90725 0.55482 0.62053 0.0
Li1233 Li 0.94316 0.55056 0.63581 0.0
Li1234 Li 0.93179 0.59084 0.62235 0.0
Li1235 Li 0.94344 0.55482 0.60464 0.0
C1236 C 0.89839 0.57268 0.65253 0.0
N1237 N 0.86074 0.57224 0.67483 0.0
C1238 C 0.89076 0.55093 0.65972 0.0
C1239 C 0.88699 0.59423 0.65672 0.0
C1240 C 0.87164 0.55108 0.67094 0.0
C1241 C 0.86797 0.59362 0.66802 0.0
C1242 C 0.93798 0.50585 0.62255 0.0
C1243 C 0.96958 0.47715 0.62516 0.0
N1244 N 0.95431 0.46062 0.63162 0.0
C1245 C 0.92257 0.48854 0.62915 0.0
C1246 C 0.96165 0.50009 0.62047 0.0
C1247 C 0.93117 0.46579 0.63368 0.0
C1248 C 0.87378 0.5224 0.60943 0.0
N1249 N 0.87575 0.54326 0.61852 0.0
C1250 C 0.83421 0.54477 0.62251 0.0
C1251 C 0.8565 0.55478 0.62481 0.0
C1252 C 0.83179 0.52306 0.61333 0.0
C1253 C 0.85191 0.51194 0.60668 0.0
H1254 H 0.88926 0.51397 0.60414 0.0
H1255 H 0.85832 0.57183 0.6314 0.0
C1256 C 0.97672 0.55034 0.66195 0.0
N1257 N 0.95805 0.53786 0.65571 0.0
C1258 C 0.98658 0.54406 0.67774 0.0
C1259 C 0.95838 0.51164 0.68012 0.0
C1260 C 0.94886 0.51876 0.6644 0.0
C1261 C 0.97716 0.52469 0.68712 0.0
H1262 H 0.98338 0.56576 0.65495 0.0
H1263 H 0.93356 0.50962 0.65954 0.0
C1264 C 0.89663 0.57887 0.59264 0.0
N1265 N 0.85469 0.58042 0.57497 0.0
C1266 C 0.89245 0.56273 0.57917 0.0
C1267 C 0.87959 0.59589 0.59707 0.0
C1268 C 0.8711 0.56378 0.57041 0.0
C1269 C 0.85847 0.59636 0.58799 0.0
C1270 C 0.98399 0.57674 0.61466 0.0
C1271 C 0.98828 0.59755 0.605 0.0
C1272 C 0.0019 0.55985 0.61705 0.0
C1273 C 0.01032 0.60089 0.59756 0.0
C1274 C 0.02371 0.56384 0.60941 0.0
N1275 N 0.02743 0.58409 0.59988 0.0
C1276 C 0.9443 0.63498 0.63805 0.0
C1277 C 0.93064 0.63793 0.60934 0.0
C1278 C 0.94988 0.65957 0.63821 0.0
N1279 N 0.9351 0.62473 0.62368 0.0
C1280 C 0.93593 0.66252 0.60893 0.0
C1281 C 0.946 0.67361 0.62341 0.0
H1282 H 0.94796 0.62388 0.64917 0.0
H1283 H 0.92384 0.62913 0.59797 0.0
C1284 C 0.95778 0.52394 0.57729 0.0
N1285 N 0.95664 0.54712 0.58298 0.0
C1286 C 0.96381 0.5191 0.56023 0.0
C1287 C 0.96754 0.56205 0.55532 0.0
C1288 C 0.96142 0.56604 0.57243 0.0
C1289 C 0.96835 0.53834 0.54892 0.0
H1290 H 0.9529 0.50926 0.5857 0.0
H1291 H 0.95945 0.58431 0.57711 0.0
O1292 O 0.91704 0.57297 0.64153 0.0
O1293 O 0.92991 0.52829 0.61816 0.0
O1294 O 0.9171 0.57763 0.6017 0.0
O1295 O 0.9625 0.57313 0.62201 0.0
H1296 H 0.89923 0.53409 0.65643 0.0
H1297 H 0.89276 0.61121 0.65125 0.0
H1298 H 0.86543 0.53436 0.67652 0.0
H1299 H 0.85892 0.61014 0.67137 0.0
H1300 H 0.98787 0.47248 0.62364 0.0
H1301 H 0.90422 0.49273 0.63099 0.0
H1302 H 0.97374 0.51319 0.61522 0.0
H1303 H 0.91947 0.45227 0.6389 0.0
H1304 H 0.81902 0.55412 0.62757 0.0
H1305 H 0.8508 0.49516 0.59956 0.0
H1306 H 0.00109 0.55454 0.68276 0.0
H1307 H 0.95038 0.49687 0.68713 0.0
H1308 H 0.90546 0.54937 0.57566 0.0
H1309 H 0.88254 0.60837 0.60757 0.0
H1310 H 0.86754 0.55132 0.56002 0.0
H1311 H 0.84505 0.60933 0.59134 0.0
H1312 H 0.97467 0.61089 0.60314 0.0
H1313 H 0.99905 0.54392 0.62482 0.0
H1314 H 0.01383 0.61683 0.58994 0.0
H1315 H 0.03772 0.55088 0.6111 0.0
H1316 H 0.95742 0.66742 0.6497 0.0
H1317 H 0.93304 0.67249 0.59714 0.0
H1318 H 0.96378 0.50057 0.55576 0.0
H1319 H 0.97103 0.5774 0.54708 0.0
Li1320 Li 0.55845 0.45094 0.64159 0.0
Li1321 Li 0.59417 0.43847 0.62726 0.0
Li1322 Li 0.55789 0.44362 0.61137 0.0
Li1323 Li 0.56198 0.40881 0.62992 0.0
C1324 C 0.57736 0.49171 0.62952 0.0
N1325 N 0.57977 0.53846 0.64186 0.0
C1326 C 0.59853 0.50083 0.63582 0.0
C1327 C 0.5575 0.50649 0.62927 0.0
C1328 C 0.59937 0.52448 0.64206 0.0
C1329 C 0.55905 0.53003 0.63564 0.0
C1330 C 0.59518 0.42486 0.6624 0.0
C1331 C 0.61494 0.40427 0.68557 0.0
N1332 N 0.62523 0.42544 0.69026 0.0
C1333 C 0.60611 0.44632 0.66735 0.0
C1334 C 0.59976 0.40359 0.67149 0.0
C1335 C 0.62117 0.44629 0.6815 0.0
C1336 C 0.52222 0.46193 0.66416 0.0
N1337 N 0.54473 0.46808 0.66045 0.0
C1338 C 0.54653 0.49331 0.6854 0.0
C1339 C 0.55681 0.48385 0.67055 0.0
C1340 C 0.52352 0.48673 0.68969 0.0
C1341 C 0.51115 0.47125 0.67868 0.0
H1342 H 0.51307 0.44908 0.65615 0.0
H1343 H 0.57459 0.48871 0.66741 0.0
C1344 C 0.63203 0.45624 0.61038 0.0
N1345 N 0.62692 0.44304 0.6246 0.0
C1346 C 0.65514 0.46221 0.60653 0.0
C1347 C 0.66751 0.44059 0.63198 0.0
C1348 C 0.64407 0.43472 0.63522 0.0
C1349 C 0.67319 0.45458 0.61749 0.0
H1350 H 0.61799 0.46241 0.60213 0.0
H1351 H 0.63966 0.42364 0.64617 0.0
C1352 C 0.51499 0.43401 0.61929 0.0
N1353 N 0.47495 0.43942 0.59969 0.0
C1354 C 0.50584 0.41435 0.61025 0.0
C1355 C 0.50363 0.45635 0.61853 0.0
C1356 C 0.48561 0.41747 0.60037 0.0
C1357 C 0.48346 0.45875 0.60851 0.0
C1358 C 0.59614 0.39845 0.6058 0.0
C1359 C 0.60114 0.39231 0.58878 0.0
C1360 C 0.60712 0.38598 0.6192 0.0
C1361 C 0.61709 0.37376 0.58541 0.0
C1362 C 0.62297 0.36755 0.61531 0.0
N1363 N 0.62759 0.36187 0.59864 0.0
C1364 C 0.5451 0.47579 0.58436 0.0
C1365 C 0.54161 0.43389 0.57855 0.0
C1366 C 0.53916 0.48136 0.56739 0.0
N1367 N 0.54639 0.45237 0.58948 0.0
C1368 C 0.53552 0.43861 0.56154 0.0
C1369 C 0.53468 0.46259 0.55566 0.0
H1370 H 0.54944 0.49008 0.59326 0.0
H1371 H 0.5431 0.41543 0.58298 0.0
C1372 C 0.54743 0.36886 0.64941 0.0
N1373 N 0.55249 0.37637 0.63321 0.0
C1374 C 0.53722 0.34627 0.65212 0.0
C1375 C 0.53779 0.33953 0.62142 0.0
C1376 C 0.54831 0.36211 0.61933 0.0
C1377 C 0.53165 0.33148 0.63798 0.0
H1378 H 0.55054 0.3808 0.66017 0.0
H1379 H 0.5521 0.36879 0.60656 0.0
O1380 O 0.57617 0.46859 0.62334 0.0
O1381 O 0.58048 0.42444 0.6485 0.0
O1382 O 0.53511 0.43148 0.6287 0.0
O1383 O 0.58064 0.41668 0.60921 0.0
H1384 H 0.61415 0.48978 0.63598 0.0
H1385 H 0.54105 0.49984 0.62429 0.0
H1386 H 0.61561 0.53172 0.64707 0.0
H1387 H 0.54377 0.54161 0.63563 0.0
H1388 H 0.61861 0.38796 0.69274 0.0
H1389 H 0.6035 0.46264 0.66006 0.0
H1390 H 0.59178 0.3867 0.66766 0.0
H1391 H 0.6298 0.46279 0.68543 0.0
H1392 H 0.55657 0.50526 0.6936 0.0
H1393 H 0.49349 0.46546 0.68172 0.0
H1394 H 0.65879 0.47318 0.59532 0.0
H1395 H 0.68105 0.43415 0.64059 0.0
H1396 H 0.51436 0.39694 0.6107 0.0
H1397 H 0.51034 0.47168 0.62559 0.0
H1398 H 0.47843 0.40245 0.59321 0.0
H1399 H 0.47456 0.47597 0.60774 0.0
H1400 H 0.59279 0.40182 0.57827 0.0
H1401 H 0.60349 0.39044 0.63245 0.0
H1402 H 0.62114 0.36881 0.57229 0.0
H1403 H 0.6316 0.35776 0.62554 0.0
H1404 H 0.539 0.50008 0.56336 0.0
H1405 H 0.53183 0.4236 0.55303 0.0
H1406 H 0.53326 0.34074 0.66515 0.0
H1407 H 0.53354 0.32905 0.61009 0.0
H1408 H 0.30481 0.99628 0.11717 0.0
H1409 H 0.29597 0.93753 0.15359 0.0
H1410 H 0.25504 0.95023 0.1585 0.0
H1411 H 0.26943 0.03998 0.13937 0.0
H1412 H 0.25721 0.05254 0.11996 0.0
H1413 H 0.28602 0.03923 0.11965 0.0
H1414 H 0.27315 0.01041 0.09514 0.0
H1415 H 0.24434 0.02368 0.09535 0.0
H1416 H 0.24772 0.99154 0.09809 0.0
H1417 H 0.21486 0.96885 0.15901 0.0
H1418 H 0.17812 0.99152 0.15473 0.0
H1419 H 0.21312 0.03794 0.11778 0.0
C1420 C 0.29425 0.98592 0.12607 0.0
C1421 C 0.30368 0.96589 0.13501 0.0
C1422 C 0.28929 0.95312 0.14676 0.0
C1423 C 0.26597 0.96013 0.14958 0.0
C1424 C 0.25728 0.97992 0.14053 0.0
C1425 C 0.27096 0.9926 0.129 0.0
C1426 C 0.25729 0.013 0.12074 0.0
C1427 C 0.26814 0.03764 0.12521 0.0
C1428 C 0.25552 0.00943 0.10117 0.0
C1429 C 0.23372 0.00971 0.12936 0.0
C1430 C 0.23412 0.9906 0.14079 0.0
C1431 C 0.21438 0.98393 0.15017 0.0
C1432 C 0.19362 0.99705 0.14773 0.0
C1433 C 0.19273 0.01664 0.136 0.0
C1434 C 0.21316 0.023 0.12676 0.0
H1435 H 0.70354 0.97751 0.36408 0.0
H1436 H 0.68724 0.98165 0.41852 0.0
H1437 H 0.72517 0.0018 0.4238 0.0
H1438 H 0.76524 0.96603 0.3687 0.0
H1439 H 0.77331 0.98425 0.35043 0.0
H1440 H 0.74508 0.96973 0.35105 0.0
H1441 H 0.72482 0.01113 0.34641 0.0
H1442 H 0.75298 0.02579 0.34585 0.0
H1443 H 0.73102 0.03567 0.36095 0.0
H1444 H 0.76467 0.02211 0.42306 0.0
H1445 H 0.80356 0.03936 0.41653 0.0
H1446 H 0.79328 0.02321 0.36243 0.0
C1447 C 0.70788 0.98272 0.37711 0.0
C1448 C 0.69241 0.97792 0.39089 0.0
C1449 C 0.69894 0.98477 0.40778 0.0
C1450 C 0.72036 0.99642 0.4109 0.0
C1451 C 0.73506 0.0011 0.39699 0.0
C1452 C 0.72915 0.99438 0.38045 0.0
C1453 C 0.74806 0.00146 0.36776 0.0
C1454 C 0.75854 0.97903 0.35897 0.0
C1455 C 0.73865 0.01959 0.35446 0.0
C1456 C 0.76555 0.01322 0.37975 0.0
C1457 C 0.75771 0.0129 0.39655 0.0
C1458 C 0.77096 0.02254 0.40994 0.0
C1459 C 0.79295 0.0325 0.40607 0.0
C1460 C 0.80149 0.03274 0.38896 0.0
C1461 C 0.78739 0.02314 0.37566 0.0
H1462 H 0.78834 0.96187 0.8656 0.0
H1463 H 0.81496 0.98287 0.91569 0.0
H1464 H 0.77741 0.00301 0.92213 0.0
H1465 H 0.75855 0.01645 0.85679 0.0
H1466 H 0.73405 0.00233 0.84616 0.0
H1467 H 0.76234 0.98792 0.84596 0.0
H1468 H 0.74421 0.94921 0.85918 0.0
H1469 H 0.71582 0.96345 0.85932 0.0
H1470 H 0.72781 0.95132 0.87893 0.0
H1471 H 0.73788 0.02313 0.92239 0.0
H1472 H 0.69885 0.0407 0.91672 0.0
H1473 H 0.69803 0.00633 0.86655 0.0
C1474 C 0.78623 0.97058 0.87796 0.0
C1475 C 0.80458 0.97065 0.89017 0.0
C1476 C 0.80104 0.98217 0.90625 0.0
C1477 C 0.77982 0.99382 0.90998 0.0
C1478 C 0.76226 0.99372 0.89755 0.0
C1479 C 0.76517 0.98227 0.88191 0.0
C1480 C 0.74381 0.98539 0.87059 0.0
C1481 C 0.75007 0.99883 0.85389 0.0
C1482 C 0.73223 0.96088 0.86679 0.0
C1483 C 0.7286 0.00075 0.88219 0.0
C1484 C 0.7395 0.00528 0.89771 0.0
C1485 C 0.72907 0.01951 0.91034 0.0
C1486 C 0.70686 0.02934 0.90703 0.0
C1487 C 0.69533 0.02491 0.8912 0.0
C1488 C 0.70644 0.01033 0.87869 0.0
H1489 H 0.20766 0.9645 0.61523 0.0
H1490 H 0.17756 0.00075 0.65956 0.0
H1491 H 0.21454 0.02289 0.66389 0.0
H1492 H 0.26594 0.95822 0.63207 0.0
H1493 H 0.28008 0.96401 0.61176 0.0
H1494 H 0.25128 0.95071 0.61224 0.0
H1495 H 0.23568 0.98509 0.59273 0.0
H1496 H 0.26442 0.99854 0.59224 0.0
H1497 H 0.23958 0.01608 0.59926 0.0
H1498 H 0.25461 0.04122 0.66345 0.0
H1499 H 0.2954 0.05429 0.65833 0.0
H1500 H 0.29933 0.00677 0.61404 0.0
C1501 C 0.20879 0.97718 0.6258 0.0
C1502 C 0.18971 0.98069 0.63714 0.0
C1503 C 0.19204 0.99733 0.6509 0.0
C1504 C 0.21292 0.01017 0.65339 0.0
C1505 C 0.23132 0.00629 0.64198 0.0
C1506 C 0.2295 0.99023 0.62845 0.0
C1507 C 0.25195 0.98944 0.61806 0.0
C1508 C 0.26296 0.96409 0.61857 0.0
C1509 C 0.24764 0.99779 0.59947 0.0
C1510 C 0.26666 0.00756 0.62788 0.0
C1511 C 0.25442 0.01706 0.64163 0.0
C1512 C 0.26439 0.03391 0.65273 0.0
C1513 C 0.28758 0.04114 0.64976 0.0
C1514 C 0.30053 0.03155 0.6358 0.0
C1515 C 0.28979 0.01465 0.62468 0.0
H1516 H 0.78365 0.45773 0.13393 0.0
H1517 H 0.82183 0.51533 0.10837 0.0
H1518 H 0.78559 0.53918 0.10636 0.0
H1519 H 0.73108 0.46285 0.10966 0.0
H1520 H 0.71171 0.45726 0.12752 0.0
H1521 H 0.74083 0.44474 0.12754 0.0
H1522 H 0.74929 0.46531 0.1568 0.0
H1523 H 0.72015 0.47788 0.15689 0.0
H1524 H 0.74523 0.49747 0.15896 0.0
H1525 H 0.74538 0.55609 0.10572 0.0
H1526 H 0.70317 0.56564 0.10733 0.0
H1527 H 0.69064 0.49813 0.13414 0.0
C1528 C 0.78441 0.47546 0.1281 0.0
C1529 C 0.80556 0.48447 0.12109 0.0
C1530 C 0.80577 0.50775 0.11346 0.0
C1531 C 0.78531 0.52156 0.11238 0.0
C1532 C 0.76473 0.51203 0.11914 0.0
C1533 C 0.76407 0.48962 0.12696 0.0
C1534 C 0.73943 0.48358 0.1329 0.0
C1535 C 0.73023 0.46076 0.12386 0.0
C1536 C 0.73848 0.48091 0.15256 0.0
C1537 C 0.72639 0.50597 0.12698 0.0
C1538 C 0.74139 0.52212 0.11909 0.0
C1539 C 0.73345 0.5437 0.11198 0.0
C1540 C 0.70947 0.54891 0.11288 0.0
C1541 C 0.69373 0.53266 0.12088 0.0
C1542 C 0.70237 0.51101 0.12815 0.0
H1543 H 0.29084 0.52911 0.36732 0.0
H1544 H 0.31718 0.50062 0.4157 0.0
H1545 H 0.27924 0.48097 0.42089 0.0
H1546 H 0.23168 0.53952 0.38046 0.0
H1547 H 0.21907 0.52958 0.36043 0.0
H1548 H 0.24806 0.54245 0.36075 0.0
H1549 H 0.26453 0.50407 0.34598 0.0
H1550 H 0.23559 0.49108 0.34561 0.0
H1551 H 0.25939 0.47491 0.35558 0.0
H1552 H 0.23814 0.46513 0.42133 0.0
H1553 H 0.19724 0.45214 0.41591 0.0
H1554 H 0.19886 0.48754 0.36623 0.0
C1555 C 0.28882 0.5186 0.37895 0.0
C1556 C 0.30711 0.51687 0.3912 0.0
C1557 C 0.30338 0.50299 0.40631 0.0
C1558 C 0.28191 0.49149 0.40933 0.0
C1559 C 0.26436 0.49364 0.39702 0.0
C1560 C 0.26763 0.50661 0.38205 0.0
C1561 C 0.2461 0.50545 0.37067 0.0
C1562 C 0.23561 0.53076 0.36792 0.0
C1563 C 0.25175 0.49314 0.35344 0.0
C1564 C 0.23022 0.48987 0.38165 0.0
C1565 C 0.24102 0.48344 0.39687 0.0
C1566 C 0.22956 0.46984 0.40939 0.0
C1567 C 0.20641 0.46259 0.40624 0.0
C1568 C 0.1952 0.46869 0.39062 0.0
C1569 C 0.20728 0.48239 0.37816 0.0
H1570 H 0.20978 0.52933 0.88743 0.0
H1571 H 0.17365 0.48215 0.85157 0.0
H1572 H 0.20936 0.45746 0.84863 0.0
H1573 H 0.26506 0.52856 0.86637 0.0
H1574 H 0.28204 0.52837 0.88591 0.0
H1575 H 0.25338 0.54196 0.88568 0.0
H1576 H 0.24054 0.51429 0.91085 0.0
H1577 H 0.26918 0.50059 0.91115 0.0
H1578 H 0.24346 0.482 0.90876 0.0
H1579 H 0.24923 0.43884 0.84859 0.0
H1580 H 0.29086 0.42728 0.85177 0.0
H1581 H 0.30094 0.48584 0.88809 0.0
C1582 C 0.20931 0.51365 0.87912 0.0
C1583 C 0.18897 0.50781 0.86962 0.0
C1584 C 0.18915 0.48726 0.85874 0.0
C1585 C 0.20929 0.473 0.85708 0.0
C1586 C 0.22909 0.47939 0.86647 0.0
C1587 C 0.22928 0.49915 0.87733 0.0
C1588 C 0.25309 0.50236 0.88563 0.0
C1589 C 0.26404 0.52676 0.88059 0.0
C1590 C 0.25146 0.49964 0.90527 0.0
C1591 C 0.26627 0.48144 0.87762 0.0
C1592 C 0.25207 0.4684 0.86663 0.0
C1593 C 0.2605 0.4488 0.85725 0.0
C1594 C 0.28414 0.44243 0.85907 0.0
C1595 C 0.29903 0.45558 0.87023 0.0
C1596 C 0.28985 0.47521 0.8797 0.0
H1597 H 0.70497 0.47433 0.63982 0.0
H1598 H 0.69626 0.4516 0.58684 0.0
H1599 H 0.73604 0.46649 0.58007 0.0
H1600 H 0.73524 0.52889 0.63062 0.0
H1601 H 0.75471 0.52698 0.64882 0.0
H1602 H 0.72611 0.5133 0.64984 0.0
H1603 H 0.74488 0.47201 0.6574 0.0
H1604 H 0.77353 0.48563 0.65658 0.0
H1605 H 0.76711 0.45957 0.64351 0.0
H1606 H 0.77611 0.48467 0.57888 0.0
H1607 H 0.81429 0.50472 0.58339 0.0
H1608 H 0.79682 0.51626 0.63706 0.0
C1609 C 0.71164 0.47214 0.62688 0.0
C1610 C 0.69767 0.46175 0.61385 0.0
C1611 C 0.70672 0.4596 0.59697 0.0
C1612 C 0.72927 0.46795 0.59302 0.0
C1613 C 0.74245 0.47848 0.60609 0.0
C1614 C 0.73404 0.48057 0.62268 0.0
C1615 C 0.75152 0.49334 0.63419 0.0
C1616 C 0.74127 0.51703 0.64128 0.0
C1617 C 0.75975 0.47664 0.64878 0.0
C1618 C 0.77103 0.49816 0.62144 0.0
C1619 C 0.76546 0.48935 0.60533 0.0
C1620 C 0.78071 0.49157 0.59145 0.0
C1621 C 0.80235 0.50291 0.59414 0.0
C1622 C 0.80847 0.51198 0.61056 0.0
C1623 C 0.79248 0.5097 0.62433 0.0
H1624 H 0.99643 0.04636 0.28504 0.0
H1625 H 0.93643 0.99846 0.28105 0.0
H1626 H 0.94727 0.98915 0.25102 0.0
H1627 H 0.99092 0.07182 0.24367 0.0
H1628 H 0.02204 0.07413 0.24007 0.0
H1629 H 0.01064 0.07519 0.26162 0.0
H1630 H 0.03757 0.03944 0.27021 0.0
H1631 H 0.049 0.03821 0.24863 0.0
H1632 H 0.0362 0.01164 0.25818 0.0
H1633 H 0.96365 0.98695 0.22072 0.0
H1634 H 0.98388 0.99246 0.19286 0.0
H1635 H 0.03163 0.04335 0.2169 0.0
C1636 C 0.98553 0.0339 0.27789 0.0
C1637 C 0.9656 0.02313 0.28544 0.0
C1638 C 0.952 0.00668 0.27565 0.0
C1639 C 0.95795 0.00135 0.25855 0.0
C1640 C 0.97757 0.01256 0.25146 0.0
C1641 C 0.99114 0.02848 0.26086 0.0
C1642 C 0.01068 0.03903 0.25011 0.0
C1643 C 0.00842 0.06668 0.24879 0.0
C1644 C 0.03479 0.03163 0.25721 0.0
C1645 C 0.00575 0.02692 0.23308 0.0
C1646 C 0.98675 0.01153 0.2341 0.0
C1647 C 0.97862 0.99889 0.21979 0.0
C1648 C 0.99012 0.00225 0.20401 0.0
C1649 C 0.00945 0.01824 0.20266 0.0
C1650 C 0.01731 0.03055 0.2175 0.0
H1651 H 0.47273 0.98277 0.21494 0.0
H1652 H 0.53505 0.95922 0.1875 0.0
H1653 H 0.55744 0.96048 0.21448 0.0
H1654 H 0.50183 0.02119 0.24696 0.0
H1655 H 0.48251 0.01165 0.26399 0.0
H1656 H 0.47211 0.01245 0.24212 0.0
H1657 H 0.46013 0.96739 0.24432 0.0
H1658 H 0.47051 0.96644 0.26615 0.0
H1659 H 0.48174 0.9453 0.25056 0.0
H1660 H 0.57237 0.96076 0.24474 0.0
H1661 H 0.57824 0.95868 0.27615 0.0
H1662 H 0.50579 0.97973 0.28413 0.0
C1663 C 0.49111 0.97799 0.21449 0.0
C1664 C 0.50205 0.9711 0.1989 0.0
C1665 C 0.52625 0.96519 0.19907 0.0
C1666 C 0.53916 0.96568 0.2144 0.0
C1667 C 0.52766 0.97201 0.22953 0.0
C1668 C 0.50417 0.97802 0.2297 0.0
C1669 C 0.49549 0.98213 0.24788 0.0
C1670 C 0.48752 0.00842 0.25038 0.0
C1671 C 0.47581 0.96425 0.25249 0.0
C1672 C 0.51765 0.97691 0.25791 0.0
C1673 C 0.5361 0.9715 0.24707 0.0
C1674 C 0.55813 0.96524 0.25336 0.0
C1675 C 0.56132 0.96421 0.27121 0.0
C1676 C 0.54251 0.96916 0.28257 0.0
C1677 C 0.52048 0.97583 0.27576 0.0
H1678 H 0.03013 0.98496 0.7166 0.0
H1679 H 0.96463 0.98367 0.68834 0.0
H1680 H 0.94298 0.99177 0.71526 0.0
H1681 H 0.01095 0.95238 0.75102 0.0
H1682 H 0.02732 0.96859 0.76714 0.0
H1683 H 0.03784 0.96756 0.74538 0.0
H1684 H 0.03869 0.01435 0.74426 0.0
H1685 H 0.02827 0.01555 0.76613 0.0
H1686 H 0.01256 0.03118 0.74938 0.0
H1687 H 0.92831 0.99336 0.74574 0.0
H1688 H 0.92188 0.98849 0.77691 0.0
H1689 H 0.99709 0.98903 0.78522 0.0
C1690 C 0.01126 0.98687 0.71602 0.0
C1691 C 0.99904 0.98372 0.70039 0.0
C1692 C 0.97436 0.98638 0.70013 0.0
C1693 C 0.96193 0.99092 0.71537 0.0
C1694 C 0.97448 0.99306 0.73068 0.0
C1695 C 0.99865 0.99137 0.73106 0.0
C1696 C 0.00789 0.99185 0.74929 0.0
C1697 C 0.0218 0.96872 0.75344 0.0
C1698 C 0.02273 0.01459 0.75245 0.0
C1699 C 0.9851 0.99286 0.75918 0.0
C1700 C 0.96603 0.994 0.74825 0.0
C1701 C 0.94312 0.99304 0.75443 0.0
C1702 C 0.93964 0.99037 0.77219 0.0
C1703 C 0.95899 0.98849 0.78355 0.0
C1704 C 0.98194 0.9904 0.7769 0.0
H1705 H 0.51261 0.04566 0.70114 0.0
H1706 H 0.47448 0.9779 0.70378 0.0
H1707 H 0.48782 0.97238 0.73374 0.0
H1708 H 0.56302 0.02626 0.72802 0.0
H1709 H 0.5656 0.05567 0.73777 0.0
H1710 H 0.55496 0.05287 0.71605 0.0
H1711 H 0.5175 0.07653 0.7245 0.0
H1712 H 0.52782 0.07912 0.74627 0.0
H1713 H 0.49962 0.06573 0.742 0.0
H1714 H 0.50176 0.97662 0.7643 0.0
H1715 H 0.51666 0.98923 0.79265 0.0
H1716 H 0.54759 0.05306 0.76937 0.0
C1717 C 0.50766 0.02924 0.70777 0.0
C1718 C 0.49253 0.01217 0.70005 0.0
C1719 C 0.48591 0.99132 0.70945 0.0
C1720 C 0.4935 0.98797 0.72644 0.0
C1721 C 0.50789 0.00549 0.73379 0.0
C1722 C 0.51515 0.02556 0.72467 0.0
C1723 C 0.52955 0.0424 0.73579 0.0
C1724 C 0.55478 0.04441 0.729 0.0
C1725 C 0.51791 0.06741 0.73722 0.0
C1726 C 0.52872 0.029 0.75273 0.0
C1727 C 0.51626 0.0077 0.7513 0.0
C1728 C 0.51197 0.99301 0.76549 0.0
C1729 C 0.52063 0.0003 0.78156 0.0
C1730 C 0.53351 0.02209 0.78333 0.0
C1731 C 0.53771 0.0364 0.76859 0.0
H1732 H 0.52068 0.55616 0.21774 0.0
H1733 H 0.50321 0.48367 0.20112 0.0
H1734 H 0.48729 0.47464 0.23014 0.0
H1735 H 0.53924 0.53941 0.2607 0.0
H1736 H 0.5277 0.56656 0.27029 0.0
H1737 H 0.53765 0.56689 0.24832 0.0
H1738 H 0.4971 0.58298 0.23855 0.0
H1739 H 0.48701 0.58263 0.26047 0.0
H1740 H 0.471 0.56641 0.24417 0.0
H1741 H 0.47096 0.47493 0.26065 0.0
H1742 H 0.4589 0.48324 0.29076 0.0
H1743 H 0.48954 0.5547 0.2873 0.0
C1744 C 0.51352 0.53838 0.22027 0.0
C1745 C 0.51291 0.52061 0.20731 0.0
C1746 C 0.50376 0.49744 0.211 0.0
C1747 C 0.49466 0.49223 0.22738 0.0
C1748 C 0.49529 0.5103 0.23988 0.0
C1749 C 0.5048 0.53279 0.23655 0.0
C1750 C 0.50379 0.54899 0.25216 0.0
C1751 C 0.52857 0.55586 0.25823 0.0
C1752 C 0.48883 0.57158 0.24862 0.0
C1753 C 0.4919 0.53227 0.26478 0.0
C1754 C 0.48694 0.51008 0.25748 0.0
C1755 C 0.47503 0.49213 0.26656 0.0
C1756 C 0.46819 0.49699 0.28356 0.0
C1757 C 0.47361 0.51944 0.29128 0.0
C1758 C 0.48559 0.53722 0.28174 0.0
H1759 H 0.00435 0.48755 0.28563 0.0
H1760 H 0.0751 0.46286 0.27469 0.0
H1761 H 0.06777 0.46769 0.24379 0.0
H1762 H 0.97781 0.45484 0.25286 0.0
H1763 H 0.95617 0.47737 0.24755 0.0
H1764 H 0.96801 0.47599 0.26895 0.0
H1765 H 0.98068 0.52085 0.26676 0.0
H1766 H 0.96884 0.52236 0.2453 0.0
H1767 H 0.999 0.5304 0.24914 0.0
H1768 H 0.05174 0.47027 0.21425 0.0
H1769 H 0.02774 0.46934 0.18805 0.0
H1770 H 0.96693 0.49182 0.21762 0.0
C1771 C 0.01842 0.48339 0.27678 0.0
C1772 C 0.04043 0.47509 0.28274 0.0
C1773 C 0.0583 0.46988 0.27061 0.0
C1774 C 0.05428 0.47245 0.25296 0.0
C1775 C 0.03229 0.48023 0.24755 0.0
C1776 C 0.01464 0.48566 0.25908 0.0
C1777 C 0.99195 0.49147 0.24982 0.0
C1778 C 0.97234 0.47386 0.25511 0.0
C1779 C 0.9847 0.51784 0.25294 0.0
C1780 C 0.99942 0.48753 0.23134 0.0
C1781 C 0.02287 0.48149 0.23033 0.0
C1782 C 0.03347 0.47545 0.21481 0.0
C1783 C 0.01966 0.47513 0.19994 0.0
C1784 C 0.99542 0.48073 0.20066 0.0
C1785 C 0.98538 0.48746 0.21659 0.0
H1786 H 0.54304 0.48222 0.72145 0.0
H1787 H 0.48003 0.50593 0.69532 0.0
H1788 H 0.46058 0.51212 0.72341 0.0
H1789 H 0.51532 0.44757 0.75156 0.0
H1790 H 0.53484 0.45415 0.76916 0.0
H1791 H 0.54531 0.45604 0.74741 0.0
H1792 H 0.55827 0.50034 0.75244 0.0
H1793 H 0.54803 0.49854 0.77433 0.0
H1794 H 0.53733 0.52205 0.76035 0.0
H1795 H 0.44655 0.51064 0.75381 0.0
H1796 H 0.43851 0.50073 0.78414 0.0
H1797 H 0.51065 0.47754 0.79056 0.0
C1798 C 0.52546 0.48958 0.7217 0.0
C1799 C 0.51308 0.49397 0.70631 0.0
C1800 C 0.48979 0.50267 0.70704 0.0
C1801 C 0.47868 0.50632 0.7229 0.0
C1802 C 0.49114 0.50115 0.73788 0.0
C1803 C 0.51406 0.49306 0.73741 0.0
C1804 C 0.52264 0.48616 0.75517 0.0
C1805 C 0.52995 0.4594 0.75585 0.0
C1806 C 0.54276 0.50277 0.76091 0.0
C1807 C 0.50069 0.49074 0.76559 0.0
C1808 C 0.48287 0.49983 0.75544 0.0
C1809 C 0.4605 0.50398 0.76196 0.0
C1810 C 0.45612 0.49837 0.77923 0.0
C1811 C 0.47399 0.48849 0.78977 0.0
C1812 C 0.49664 0.48507 0.78285 0.0
H1813 H 0.01002 0.55696 0.78376 0.0
H1814 H 0.02457 0.48101 0.79226 0.0
H1815 H 0.01367 0.47218 0.76206 0.0
H1816 H 0.96026 0.54925 0.75543 0.0
H1817 H 0.96827 0.57453 0.74206 0.0
H1818 H 0.9762 0.57433 0.76447 0.0
H1819 H 0.01977 0.58073 0.75614 0.0
H1820 H 0.01201 0.58072 0.73371 0.0
H1821 H 0.03369 0.55981 0.74161 0.0
H1822 H 0.00097 0.47199 0.73079 0.0
H1823 H 0.98853 0.4806 0.70087 0.0
H1824 H 0.9839 0.55687 0.71312 0.0
C1825 C 0.01053 0.53841 0.77934 0.0
C1826 C 0.01785 0.51959 0.79032 0.0
C1827 C 0.01893 0.49564 0.78399 0.0
C1828 C 0.01276 0.49048 0.76691 0.0
C1829 C 0.00579 0.50954 0.75636 0.0
C1830 C 0.00472 0.53302 0.76234 0.0
C1831 C 0.99747 0.5504 0.74833 0.0
C1832 C 0.97417 0.56285 0.75284 0.0
C1833 C 0.0169 0.56901 0.74474 0.0
C1834 C 0.99461 0.53306 0.73349 0.0
C1835 C 0.99931 0.50954 0.73835 0.0
C1836 C 0.99733 0.49035 0.72683 0.0
C1837 C 0.99026 0.49538 0.70991 0.0
C1838 C 0.98554 0.5194 0.70471 0.0
C1839 C 0.98784 0.5384 0.71668 0.0
H1840 H 0.00786 0.19561 0.10968 0.0
H1841 H 0.06649 0.20922 0.14388 0.0
H1842 H 0.05332 0.25136 0.14754 0.0
H1843 H 0.00773 0.25505 0.08898 0.0
H1844 H 0.97621 0.25644 0.08777 0.0
H1845 H 0.99087 0.22762 0.08714 0.0
H1846 H 0.96602 0.21308 0.11302 0.0
H1847 H 0.95139 0.24187 0.1138 0.0
H1848 H 0.96608 0.23044 0.13263 0.0
H1849 H 0.03334 0.29131 0.14831 0.0
H1850 H 0.00803 0.32714 0.14591 0.0
H1851 H 0.96172 0.2879 0.11151 0.0
C1852 C 0.01813 0.2076 0.11769 0.0
C1853 C 0.03822 0.19916 0.1265 0.0
C1854 C 0.05095 0.21526 0.13713 0.0
C1855 C 0.04367 0.23924 0.13923 0.0
C1856 C 0.02361 0.24687 0.1306 0.0
C1857 C 0.01104 0.23162 0.12 0.0
C1858 C 0.98968 0.24428 0.11266 0.0
C1859 C 0.99123 0.24595 0.09297 0.0
C1860 C 0.96695 0.23166 0.11838 0.0
C1861 C 0.99214 0.26895 0.12094 0.0
C1862 C 0.01189 0.27001 0.13118 0.0
C1863 C 0.01781 0.29071 0.14035 0.0
C1864 C 0.00317 0.31091 0.13902 0.0
C1865 C 0.98271 0.31031 0.12867 0.0
C1866 C 0.97726 0.289 0.11945 0.0
H1867 H 0.47729 0.79758 0.13235 0.0
H1868 H 0.47437 0.8094 0.0772 0.0
H1869 H 0.49488 0.77077 0.07245 0.0
H1870 H 0.53405 0.77026 0.13359 0.0
H1871 H 0.52649 0.74845 0.14988 0.0
H1872 H 0.51157 0.77711 0.14913 0.0
H1873 H 0.47149 0.75523 0.14725 0.0
H1874 H 0.48627 0.72652 0.14822 0.0
H1875 H 0.46675 0.73308 0.13062 0.0
H1876 H 0.51599 0.73137 0.07358 0.0
H1877 H 0.53418 0.69211 0.08044 0.0
H1878 H 0.52244 0.70506 0.1348 0.0
C1879 C 0.48068 0.79191 0.11927 0.0
C1880 C 0.47434 0.80663 0.10515 0.0
C1881 C 0.47939 0.79864 0.08823 0.0
C1882 C 0.49097 0.7767 0.08539 0.0
C1883 C 0.49732 0.76287 0.09959 0.0
C1884 C 0.49219 0.77 0.11619 0.0
C1885 C 0.50071 0.75155 0.12915 0.0
C1886 C 0.51931 0.76251 0.14114 0.0
C1887 C 0.48008 0.74097 0.13941 0.0
C1888 C 0.51138 0.73291 0.11723 0.0
C1889 C 0.50932 0.7399 0.10024 0.0
C1890 C 0.51762 0.72563 0.08683 0.0
C1891 C 0.52786 0.70335 0.09085 0.0
C1892 C 0.52962 0.69548 0.10814 0.0
C1893 C 0.52158 0.7107 0.12149 0.0
H1894 H 0.47671 0.70162 0.39948 0.0
H1895 H 0.45745 0.69515 0.34567 0.0
H1896 H 0.47528 0.73487 0.33984 0.0
H1897 H 0.46688 0.76622 0.40315 0.0
H1898 H 0.49164 0.77093 0.41715 0.0
H1899 H 0.47648 0.74238 0.41727 0.0
H1900 H 0.51557 0.72027 0.41094 0.0
H1901 H 0.53082 0.74875 0.41071 0.0
H1902 H 0.53261 0.72887 0.3924 0.0
H1903 H 0.49641 0.77434 0.33952 0.0
H1904 H 0.518 0.81211 0.34496 0.0
H1905 H 0.52444 0.7929 0.39887 0.0
C1906 C 0.47619 0.70858 0.38648 0.0
C1907 C 0.46552 0.69529 0.37305 0.0
C1908 C 0.4651 0.70515 0.35623 0.0
C1909 C 0.47536 0.72762 0.35276 0.0
C1910 C 0.48595 0.74007 0.36623 0.0
C1911 C 0.48633 0.73102 0.38277 0.0
C1912 C 0.4991 0.748 0.39487 0.0
C1913 C 0.48253 0.75744 0.40894 0.0
C1914 C 0.52081 0.73573 0.40269 0.0
C1915 C 0.50598 0.76792 0.38249 0.0
C1916 C 0.49823 0.76292 0.36604 0.0
C1917 C 0.50259 0.77845 0.35234 0.0
C1918 C 0.51506 0.79977 0.35554 0.0
C1919 C 0.52309 0.80542 0.37232 0.0
C1920 C 0.51844 0.78918 0.38594 0.0
H1921 H 0.00385 0.30483 0.36822 0.0
H1922 H 0.07323 0.28814 0.38788 0.0
H1923 H 0.0618 0.24539 0.39102 0.0
H1924 H 0.97194 0.26505 0.39542 0.0
H1925 H 0.95114 0.2562 0.37915 0.0
H1926 H 0.9648 0.2855 0.37816 0.0
H1927 H 0.97966 0.27631 0.34737 0.0
H1928 H 0.96595 0.24702 0.34823 0.0
H1929 H 0.9968 0.24948 0.34355 0.0
H1930 H 0.04271 0.20475 0.39266 0.0
H1931 H 0.01755 0.16854 0.39187 0.0
H1932 H 0.96074 0.21134 0.37064 0.0
C1933 C 0.01678 0.29215 0.37295 0.0
C1934 C 0.03945 0.29993 0.37786 0.0
C1935 C 0.05566 0.28274 0.38427 0.0
C1936 C 0.04939 0.25838 0.38601 0.0
C1937 C 0.02687 0.25142 0.3812 0.0
C1938 C 0.01085 0.26774 0.37471 0.0
C1939 C 0.98772 0.25555 0.37061 0.0
C1940 C 0.96773 0.26621 0.38149 0.0
C1941 C 0.98222 0.25718 0.35129 0.0
C1942 C 0.99321 0.22983 0.37592 0.0
C1943 C 0.01588 0.22788 0.38201 0.0
C1944 C 0.02492 0.20604 0.38791 0.0
C1945 C 0.01043 0.18562 0.38752 0.0
C1946 C 0.98713 0.18712 0.38128 0.0
C1947 C 0.97851 0.20958 0.37537 0.0
H1948 H 0.02054 0.70228 0.88577 0.0
H1949 H 0.05744 0.70458 0.83699 0.0
H1950 H 0.04054 0.74481 0.83114 0.0
H1951 H 0.96821 0.7307 0.87159 0.0
H1952 H 0.96367 0.74752 0.89114 0.0
H1953 H 0.97906 0.71914 0.89174 0.0
H1954 H 0.0146 0.73991 0.9063 0.0
H1955 H 0.99924 0.76833 0.90588 0.0
H1956 H 0.02785 0.76586 0.89621 0.0
H1957 H 0.01883 0.78428 0.83026 0.0
H1958 H 0.99533 0.82112 0.83503 0.0
H1959 H 0.97291 0.79322 0.88452 0.0
C1960 C 0.02541 0.71139 0.87399 0.0
C1961 C 0.04033 0.70023 0.86183 0.0
C1962 C 0.04586 0.71263 0.84641 0.0
C1963 C 0.03642 0.73552 0.843 0.0
C1964 C 0.02153 0.74583 0.85515 0.0
C1965 C 0.01619 0.73425 0.87039 0.0
C1966 C 0.99957 0.7492 0.88124 0.0
C1967 C 0.97625 0.73584 0.88408 0.0
C1968 C 0.011 0.75624 0.89842 0.0
C1969 C 0.99637 0.77097 0.8697 0.0
C1970 C 0.00912 0.76863 0.85469 0.0
C1971 C 0.00877 0.78633 0.84197 0.0
C1972 C 0.99521 0.80709 0.84473 0.0
C1973 C 0.9822 0.81003 0.86012 0.0
C1974 C 0.9828 0.7916 0.87269 0.0
H1975 H 0.48656 0.3007 0.85677 0.0
H1976 H 0.47565 0.30975 0.91159 0.0
H1977 H 0.49547 0.27079 0.91698 0.0
H1978 H 0.47601 0.2367 0.85593 0.0
H1979 H 0.49799 0.23068 0.83985 0.0
H1980 H 0.48347 0.25955 0.84035 0.0
H1981 H 0.52373 0.28105 0.84236 0.0
H1982 H 0.53838 0.25223 0.84193 0.0
H1983 H 0.54374 0.27297 0.85935 0.0
H1984 H 0.51673 0.23128 0.91645 0.0
H1985 H 0.53577 0.1923 0.90997 0.0
H1986 H 0.53233 0.2084 0.85543 0.0
C1987 C 0.48846 0.29448 0.8699 0.0
C1988 C 0.47959 0.30817 0.88378 0.0
C1989 C 0.48212 0.29938 0.90078 0.0
C1990 C 0.49348 0.27739 0.90396 0.0
C1991 C 0.50207 0.26435 0.89 0.0
C1992 C 0.49954 0.27244 0.8733 0.0
C1993 C 0.50974 0.25455 0.86059 0.0
C1994 C 0.49066 0.2448 0.84847 0.0
C1995 C 0.53011 0.26588 0.85046 0.0
C1996 C 0.51838 0.23515 0.87277 0.0
C1997 C 0.51396 0.24129 0.88968 0.0
C1998 C 0.52033 0.22628 0.90327 0.0
C1999 C 0.53127 0.20427 0.89946 0.0
C2000 C 0.53561 0.19739 0.88221 0.0
C2001 C 0.52914 0.21315 0.86873 0.0
H2002 H 0.48982 0.19696 0.61593 0.0
H2003 H 0.4403 0.2031 0.65802 0.0
H2004 H 0.45458 0.24444 0.66399 0.0
H2005 H 0.53694 0.22838 0.63678 0.0
H2006 H 0.54703 0.24299 0.61744 0.0
H2007 H 0.53251 0.21415 0.61618 0.0
H2008 H 0.50205 0.23207 0.59501 0.0
H2009 H 0.51652 0.26094 0.59616 0.0
H2010 H 0.48574 0.25862 0.6011 0.0
H2011 H 0.47372 0.28516 0.66501 0.0
H2012 H 0.49678 0.32238 0.66147 0.0
H2013 H 0.53552 0.28887 0.61968 0.0
C2014 C 0.48184 0.20714 0.62628 0.0
C2015 C 0.46389 0.19696 0.63648 0.0
C2016 C 0.45414 0.2106 0.65012 0.0
C2017 C 0.46209 0.23406 0.65357 0.0
C2018 C 0.47992 0.24352 0.64334 0.0
C2019 C 0.48974 0.23048 0.63002 0.0
C2020 C 0.50903 0.24466 0.62123 0.0
C2021 C 0.53278 0.23178 0.62302 0.0
C2022 C 0.50296 0.24935 0.60225 0.0
C2023 C 0.5084 0.26778 0.63162 0.0
C2024 C 0.49145 0.26675 0.64427 0.0
C2025 C 0.48723 0.2861 0.65527 0.0
C2026 C 0.50063 0.30712 0.65324 0.0
C2027 C 0.51825 0.30863 0.6404 0.0
C2028 C 0.52214 0.28851 0.62954 0.0
H2029 H 0.03412 0.78501 0.63452 0.0
H2030 H 0.98434 0.82783 0.60535 0.0
H2031 H 0.95758 0.79292 0.60389 0.0
H2032 H 0.02508 0.72976 0.61153 0.0
H2033 H 0.02785 0.71075 0.63024 0.0
H2034 H 0.04285 0.73934 0.62944 0.0
H2035 H 0.02271 0.75215 0.65788 0.0
H2036 H 0.00755 0.72361 0.65871 0.0
H2037 H 0.99119 0.75145 0.65938 0.0
H2038 H 0.93633 0.75355 0.60533 0.0
H2039 H 0.92262 0.71153 0.60858 0.0
H2040 H 0.98638 0.69384 0.63635 0.0
C2041 C 0.01752 0.78704 0.62793 0.0
C2042 C 0.01138 0.80908 0.61995 0.0
C2043 C 0.98958 0.811 0.61131 0.0
C2044 C 0.97417 0.79134 0.61053 0.0
C2045 C 0.98077 0.76986 0.61846 0.0
C2046 C 0.00194 0.76752 0.62694 0.0
C2047 C 0.00502 0.74215 0.63392 0.0
C2048 C 0.02647 0.72977 0.62579 0.0
C2049 C 0.00671 0.74236 0.65365 0.0
C2050 C 0.98234 0.73063 0.62794 0.0
C2051 C 0.96855 0.747 0.61916 0.0
C2052 C 0.94697 0.74054 0.61217 0.0
C2053 C 0.93939 0.7166 0.61401 0.0
C2054 C 0.95341 0.69934 0.62269 0.0
C2055 C 0.97506 0.70664 0.62988 0.0
H2056 H 0.99399 0.00952 0.95531 0.0
H2057 H 0.98362 0.93289 0.9645 0.0
H2058 H 0.99582 0.93824 0.99463 0.0
H2059 H 0.04509 0.01619 0.98216 0.0
H2060 H 0.0369 0.04566 0.98995 0.0
H2061 H 0.02748 0.03588 0.96897 0.0
H2062 H 0.98428 0.04405 0.97744 0.0
H2063 H 0.99356 0.05379 0.99846 0.0
H2064 H 0.97232 0.02986 0.99637 0.0
H2065 H 0.00849 0.95164 0.02366 0.0
H2066 H 0.02184 0.97228 0.04996 0.0
H2067 H 0.02438 0.04032 0.02223 0.0
C2068 C 0.99423 0.9939 0.96369 0.0
C2069 C 0.98805 0.97074 0.9575 0.0
C2070 C 0.98872 0.95072 0.96885 0.0
C2071 C 0.99544 0.95359 0.98602 0.0
C2072 C 0.00144 0.97661 0.99169 0.0
C2073 C 0.00097 0.99643 0.98091 0.0
C2074 C 0.00841 0.01915 0.99033 0.0
C2075 C 0.0308 0.02984 0.98238 0.0
C2076 C 0.98845 0.03781 0.99067 0.0
C2077 C 0.01305 0.00895 0.00809 0.0
C2078 C 0.00888 0.98438 0.00855 0.0
C2079 C 0.01194 0.97086 0.02346 0.0
C2080 C 0.01966 0.98273 0.0383 0.0
C2081 C 0.02432 0.00788 0.03814 0.0
C2082 C 0.02079 0.02112 0.02281 0.0
H2083 H 0.52619 0.02953 0.96704 0.0
H2084 H 0.47417 0.99638 0.93388 0.0
H2085 H 0.45281 0.98159 0.95943 0.0
H2086 H 0.5277 0.9827 0.99876 0.0
H2087 H 0.53098 0.00314 0.01664 0.0
H2088 H 0.54188 0.0115 0.99575 0.0
H2089 H 0.51705 0.05068 0.99669 0.0
H2090 H 0.50599 0.04238 0.01757 0.0
H2091 H 0.48589 0.04866 0.00026 0.0
H2092 H 0.43807 0.96904 0.98838 0.0
H2093 H 0.43043 0.96015 0.019 0.0
H2094 H 0.49147 0.0022 0.03345 0.0
C2095 C 0.51037 0.01905 0.96517 0.0
C2096 C 0.50182 0.01404 0.9485 0.0
C2097 C 0.48089 0.00057 0.94656 0.0
C2098 C 0.46869 0.99205 0.96097 0.0
C2099 C 0.47757 0.99733 0.97723 0.0
C2100 C 0.49787 0.01058 0.97942 0.0
C2101 C 0.50368 0.01364 0.9983 0.0
C2102 C 0.52747 0.00205 0.00261 0.0
C2103 C 0.50311 0.04044 0.00351 0.0
C2104 C 0.48361 0.99979 0.00638 0.0
C2105 C 0.46878 0.99051 0.99397 0.0
C2106 C 0.44947 0.97633 0.99821 0.0
C2107 C 0.44531 0.97132 0.0156 0.0
C2108 C 0.46032 0.98058 0.02851 0.0
C2109 C 0.47955 0.99521 0.02382 0.0
H2110 H 0.4818 0.99953 0.53413 0.0
H2111 H 0.44401 0.06484 0.52056 0.0
H2112 H 0.45206 0.05721 0.48986 0.0
H2113 H 0.52695 0.00567 0.50292 0.0
H2114 H 0.52894 0.97381 0.49835 0.0
H2115 H 0.51938 0.98386 0.51921 0.0
H2116 H 0.48122 0.95886 0.51598 0.0
H2117 H 0.49067 0.94874 0.49508 0.0
H2118 H 0.46273 0.96356 0.49749 0.0
H2119 H 0.46509 0.04318 0.46078 0.0
H2120 H 0.48271 0.02388 0.43523 0.0
H2121 H 0.51219 0.96783 0.46772 0.0
C2122 C 0.47498 0.01205 0.52467 0.0
C2123 C 0.46232 0.03281 0.52973 0.0
C2124 C 0.45399 0.04898 0.51699 0.0
C2125 C 0.45833 0.04472 0.49952 0.0
C2126 C 0.471 0.02419 0.49499 0.0
C2127 C 0.47922 0.00811 0.50717 0.0
C2128 C 0.49304 0.98786 0.49889 0.0
C2129 C 0.51859 0.98781 0.50522 0.0
C2130 C 0.4812 0.9633 0.50205 0.0
C2131 C 0.49144 0.99517 0.48017 0.0
C2132 C 0.47857 0.01612 0.47819 0.0
C2133 C 0.47516 0.02673 0.46215 0.0
C2134 C 0.48533 0.01571 0.44774 0.0
C2135 C 0.49879 0.99435 0.44947 0.0
C2136 C 0.50168 0.98392 0.46593 0.0
H2137 H 0.02643 0.00602 0.5331 0.0
H2138 H 0.03081 0.92829 0.52679 0.0
H2139 H 0.02012 0.93249 0.49619 0.0
H2140 H 0.97652 0.01421 0.50706 0.0
H2141 H 0.98592 0.04254 0.49795 0.0
H2142 H 0.99594 0.03371 0.51897 0.0
H2143 H 0.03904 0.03846 0.50902 0.0
H2144 H 0.02914 0.04732 0.48794 0.0
H2145 H 0.04908 0.02229 0.4903 0.0
H2146 H 0.00663 0.94465 0.467 0.0
H2147 H 0.9906 0.96409 0.44097 0.0
H2148 H 0.99456 0.03395 0.46611 0.0
C2149 C 0.02552 0.98997 0.52517 0.0
C2150 C 0.0294 0.96683 0.53225 0.0
C2151 C 0.02768 0.94616 0.5216 0.0
C2152 C 0.02178 0.94837 0.5042 0.0
C2153 C 0.0177 0.97139 0.49766 0.0
C2154 C 0.0195 0.99185 0.50777 0.0
C2155 C 0.01283 0.01429 0.49775 0.0
C2156 C 0.99153 0.02692 0.50592 0.0
C2157 C 0.03378 0.03161 0.49616 0.0
C2158 C 0.00664 0.00318 0.48054 0.0
C2159 C 0.00977 0.97843 0.48074 0.0
C2160 C 0.00427 0.96404 0.46663 0.0
C2161 C 0.99506 0.9752 0.45195 0.0
C2162 C 0.99139 0.0005 0.45153 0.0
C2163 C 0.99756 0.01464 0.46596 0.0
H2164 H 0.52095 0.49709 0.03363 0.0
H2165 H 0.47322 0.55577 0.04538 0.0
H2166 H 0.45315 0.54949 0.01756 0.0
H2167 H 0.52779 0.51104 0.98961 0.0
H2168 H 0.52903 0.48009 0.98248 0.0
H2169 H 0.53849 0.48784 0.00386 0.0
H2170 H 0.50927 0.45687 0.01673 0.0
H2171 H 0.49988 0.44885 0.99536 0.0
H2172 H 0.47869 0.45866 0.01106 0.0
H2173 H 0.43921 0.53774 0.98819 0.0
H2174 H 0.43247 0.52142 0.95901 0.0
H2175 H 0.48995 0.4711 0.96614 0.0
C2176 C 0.50599 0.50827 0.03045 0.0
C2177 C 0.49848 0.52681 0.0416 0.0
C2178 C 0.4792 0.5415 0.03692 0.0
C2179 C 0.46769 0.53803 0.02121 0.0
C2180 C 0.47578 0.51987 0.01034 0.0
C2181 C 0.49446 0.50521 0.01474 0.0
C2182 C 0.50036 0.48777 0.00039 0.0
C2183 C 0.5254 0.49195 0.99369 0.0
C2184 C 0.49683 0.46148 0.00624 0.0
C2185 C 0.48223 0.49508 0.98718 0.0
C2186 C 0.4681 0.51348 0.99323 0.0
C2187 C 0.4501 0.52327 0.98333 0.0
C2188 C 0.44638 0.51389 0.96682 0.0
C2189 C 0.46074 0.4951 0.96036 0.0
C2190 C 0.4789 0.48567 0.9707 0.0
H2191 H 0.99575 0.47024 0.03079 0.0
H2192 H 0.93067 0.51054 0.0347 0.0
H2193 H 0.93815 0.52879 0.00632 0.0
H2194 H 0.02914 0.51626 0.01054 0.0
H2195 H 0.04502 0.49597 0.99665 0.0
H2196 H 0.03427 0.48547 0.01709 0.0
H2197 H 0.01189 0.45079 0.00187 0.0
H2198 H 0.02261 0.46116 0.98137 0.0
H2199 H 0.99154 0.45786 0.98487 0.0
H2200 H 0.95325 0.54381 0.97813 0.0
H2201 H 0.97478 0.55401 0.95155 0.0
H2202 H 0.02956 0.50333 0.96557 0.0
C2203 C 0.98292 0.48266 0.02558 0.0
C2204 C 0.9627 0.48908 0.03503 0.0
C2205 C 0.94649 0.50566 0.02784 0.0
C2206 C 0.95049 0.51599 0.01167 0.0
C2207 C 0.97069 0.50946 0.00279 0.0
C2208 C 0.9866 0.4931 0.00942 0.0
C2209 C 0.00714 0.48955 0.99735 0.0
C2210 C 0.03025 0.49728 0.00592 0.0
C2211 C 0.00836 0.46328 0.99099 0.0
C2212 C 0.00037 0.50662 0.98298 0.0
C2213 C 0.97928 0.51791 0.98638 0.0
C2214 C 0.96973 0.535 0.97527 0.0
C2215 C 0.98212 0.54077 0.96027 0.0
C2216 C 0.00378 0.52943 0.95653 0.0
C2217 C 0.01288 0.51203 0.96801 0.0
H2218 H 0.99502 0.50254 0.53418 0.0
H2219 H 0.95051 0.56367 0.52167 0.0
H2220 H 0.95648 0.55578 0.49077 0.0
H2221 H 0.0364 0.51077 0.49994 0.0
H2222 H 0.04007 0.47888 0.49611 0.0
H2223 H 0.0324 0.48951 0.51725 0.0
H2224 H 0.99593 0.46157 0.51726 0.0
H2225 H 0.00343 0.45095 0.49608 0.0
H2226 H 0.97493 0.46385 0.50002 0.0
H2227 H 0.9671 0.54113 0.46122 0.0
H2228 H 0.98232 0.5211 0.43511 0.0
H2229 H 0.01965 0.46951 0.467 0.0
C2230 C 0.98644 0.5142 0.52495 0.0
C2231 C 0.97242 0.53381 0.53036 0.0
C2232 C 0.96168 0.54879 0.51785 0.0
C2233 C 0.9648 0.54435 0.50026 0.0
C2234 C 0.97867 0.52483 0.49539 0.0
C2235 C 0.98935 0.51002 0.50735 0.0
C2236 C 0.00349 0.49033 0.49871 0.0
C2237 C 0.02964 0.49252 0.50327 0.0
C2238 C 0.99386 0.46519 0.50329 0.0
C2239 C 0.99908 0.4964 0.48002 0.0
C2240 C 0.9847 0.51633 0.47837 0.0
C2241 C 0.97839 0.5255 0.46235 0.0
C2242 C 0.98719 0.51408 0.4476 0.0
C2243 C 0.00211 0.49372 0.44901 0.0
C2244 C 0.00797 0.48478 0.46548 0.0
H2245 H 0.50797 0.49919 0.54188 0.0
H2246 H 0.55153 0.43799 0.52776 0.0
H2247 H 0.54399 0.44626 0.49713 0.0
H2248 H 0.46486 0.49156 0.50922 0.0
H2249 H 0.46106 0.52344 0.50543 0.0
H2250 H 0.47012 0.51291 0.52629 0.0
H2251 H 0.5067 0.54061 0.52489 0.0
H2252 H 0.49777 0.5512 0.504 0.0
H2253 H 0.52645 0.53818 0.50689 0.0
H2254 H 0.5311 0.46046 0.46815 0.0
H2255 H 0.5136 0.47987 0.44259 0.0
H2256 H 0.47925 0.53238 0.47546 0.0
C2257 C 0.51611 0.48767 0.53235 0.0
C2258 C 0.53021 0.46783 0.53725 0.0
C2259 C 0.54031 0.45302 0.52435 0.0
C2260 C 0.5363 0.45769 0.50691 0.0
C2261 C 0.52228 0.47731 0.50255 0.0
C2262 C 0.51237 0.49211 0.51487 0.0
C2263 C 0.49773 0.51183 0.50671 0.0
C2264 C 0.47191 0.5098 0.51224 0.0
C2265 C 0.50777 0.53694 0.51087 0.0
C2266 C 0.50082 0.50567 0.48789 0.0
C2267 C 0.51507 0.48571 0.48578 0.0
C2268 C 0.51999 0.47616 0.46962 0.0
C2269 C 0.50991 0.48722 0.45521 0.0
C2270 C 0.49515 0.50762 0.45708 0.0
C2271 C 0.49075 0.51703 0.47364 0.0
loop_
_geom_bond_atom_site_label_1
_geom_bond_atom_site_label_2
_geom_bond_distance
_geom_bond_site_symmetry_2
_ccdc_geom_bond_type
Li0 N17 1.990 . S
Li0 O60 1.956 . S
Li0 O61 1.970 . S
Li0 O62 1.961 . S
Li1 N25 1.990 . S
Li1 O60 1.970 . S
Li1 O61 1.956 . S
Li1 O63 1.961 . S
Li2 N47 1.990 . S
Li2 O60 1.961 . S
Li2 O62 1.956 . S
Li2 O63 1.970 . S
Li3 N53 1.990 . S
Li3 O61 1.961 . S
Li3 O62 1.970 . S
Li3 O63 1.956 . S
C4 C6 1.348 . S
C4 C7 1.356 . S
C4 O60 1.325 1_565 S
N5 C8 1.314 . S
N5 C9 1.279 . S
C6 C4 1.348 . S
C6 C8 1.353 . S
C6 H64 0.929 . S
C7 C4 1.356 . S
C7 C9 1.358 . S
C7 H65 0.930 . S
C8 N5 1.314 . S
C8 C6 1.353 . S
C8 H66 0.930 . S
C9 N5 1.279 . S
C9 C7 1.358 . S
C9 H67 0.930 . S
C10 C13 1.348 . S
C10 C14 1.356 . S
C10 O61 1.325 . S
C11 N12 1.279 . S
C11 C14 1.358 . S
C11 H68 0.930 . S
N12 C11 1.279 . S
N12 C15 1.314 . S
C13 C10 1.348 . S
C13 C15 1.353 . S
C13 H69 0.929 . S
C14 C10 1.356 . S
C14 C11 1.358 . S
C14 H70 0.930 . S
C15 N12 1.314 . S
C15 C13 1.353 . S
C15 H71 0.930 . S
C16 N17 1.314 . S
C16 C21 1.353 . S
C16 H22 0.930 . S
N17 Li0 1.990 . S
N17 C16 1.314 . S
N17 C19 1.237 1_545 S
C18 C19 1.380 . S
C18 C20 1.356 . S
C18 H72 0.930 . S
C19 N17 1.237 1_565 S
C19 C18 1.380 . S
C19 H23 0.954 . S
C20 C18 1.356 . S
C20 C21 1.348 1_565 S
C21 C16 1.353 . S
C21 C20 1.348 1_545 S
C21 H73 0.929 1_455 S
H22 C16 0.930 . S
H23 C19 0.954 . S
C24 N25 1.314 . S
C24 C26 1.353 . S
C24 H30 0.930 . S
N25 Li1 1.990 . S
N25 C24 1.314 . S
N25 C28 1.279 . S
C26 C24 1.353 . S
C26 C29 1.348 . S
C26 H74 0.929 . S
C27 C28 1.358 . S
C27 C29 1.356 . S
C27 H75 0.930 . S
C28 N25 1.279 . S
C28 C27 1.358 . S
C28 H31 0.930 . S
C29 C26 1.348 . S
C29 C27 1.356 . S
H30 C24 0.930 . S
H31 C28 0.930 . S
C32 C34 1.348 1_455 S
C32 C35 1.356 1_455 S
C32 O62 1.325 . S
N33 C36 1.314 . S
N33 C37 1.279 . S
C34 C32 1.348 1_655 S
C34 C36 1.353 . S
C34 H76 0.929 1_655 S
C35 C32 1.356 1_655 S
C35 C37 1.358 . S
C35 H77 0.930 . S
C36 N33 1.314 . S
C36 C34 1.353 . S
C36 H78 0.930 . S
C37 N33 1.279 . S
C37 C35 1.358 . S
C37 H79 0.930 . S
C38 C39 1.348 . S
C38 C40 1.356 . S
C38 O63 1.325 . S
C39 C38 1.348 . S
C39 C41 1.353 . S
C39 H80 0.929 . S
C40 C38 1.356 . S
C40 C42 1.358 . S
C40 H81 0.930 . S
C41 C39 1.353 . S
C41 N43 1.314 . S
C41 H82 0.930 . S
C42 C40 1.358 . S
C42 N43 1.279 . S
C42 H83 0.930 . S
N43 C41 1.314 . S
N43 C42 1.279 . S
C44 C46 1.353 . S
C44 N47 1.314 . S
C44 H50 0.930 . S
C45 N47 1.279 . S
C45 C48 1.359 . S
C45 H51 0.930 . S
C46 C44 1.353 . S
C46 C49 1.348 . S
C46 H84 0.929 1_545 S
N47 Li2 1.990 . S
N47 C44 1.314 . S
N47 C45 1.279 . S
C48 C45 1.359 . S
C48 C49 1.357 . S
C48 H85 0.928 1_455 S
C49 C46 1.348 . S
C49 C48 1.357 . S
H50 C44 0.930 . S
H51 C45 0.930 . S
C52 N53 1.314 . S
C52 C54 1.353 . S
C52 H58 0.930 . S
N53 Li3 1.990 . S
N53 C52 1.314 . S
N53 C56 1.279 . S
C54 C52 1.353 . S
C54 C57 1.348 . S
C54 H86 0.929 . S
C55 C56 1.358 . S
C55 C57 1.356 . S
C55 H87 0.930 . S
C56 N53 1.279 . S
C56 C55 1.358 . S
C56 H59 0.930 . S
C57 C54 1.348 . S
C57 C55 1.356 . S
H58 C52 0.930 . S
H59 C56 0.930 . S
O60 Li0 1.956 . S
O60 Li1 1.970 . S
O60 Li2 1.961 . S
O60 C4 1.325 1_545 S
O61 Li0 1.970 . S
O61 Li1 1.956 . S
O61 Li3 1.961 . S
O61 C10 1.325 . S
O62 Li0 1.961 . S
O62 Li2 1.956 . S
O62 Li3 1.970 . S
O62 C32 1.325 . S
O63 Li1 1.961 . S
O63 Li2 1.970 . S
O63 Li3 1.956 . S
O63 C38 1.325 . S
H64 C6 0.929 . S
H65 C7 0.930 . S
H66 C8 0.930 . S
H67 C9 0.930 . S
H68 C11 0.930 . S
H69 C13 0.929 . S
H70 C14 0.930 . S
H71 C15 0.930 . S
H72 C18 0.930 . S
H73 C21 0.929 1_655 S
H74 C26 0.929 . S
H75 C27 0.930 . S
H76 C34 0.929 1_455 S
H77 C35 0.930 . S
H78 C36 0.930 . S
H79 C37 0.930 . S
H80 C39 0.929 . S
H81 C40 0.930 . S
H82 C41 0.930 . S
H83 C42 0.930 . S
H84 C46 0.929 1_565 S
H85 C48 0.928 1_655 S
H86 C54 0.929 . S
H87 C55 0.930 . S
Li88 N105 1.990 . S
Li88 O148 1.956 . S
Li88 O149 1.970 . S
Li88 O150 1.961 . S
Li89 N113 1.990 . S
Li89 O148 1.970 . S
Li89 O149 1.956 . S
Li89 O151 1.961 . S
Li90 N135 1.990 . S
Li90 O148 1.961 . S
Li90 O150 1.956 . S
Li90 O151 1.970 . S
Li91 N141 1.990 . S
Li91 O149 1.961 . S
Li91 O150 1.970 . S
Li91 O151 1.956 . S
C92 C94 1.348 . S
C92 C95 1.356 . S
C92 O148 1.325 . S
N93 C96 1.314 . S
N93 C97 1.279 . S
C94 C92 1.348 . S
C94 C96 1.353 . S
C94 H152 0.929 . S
C95 C92 1.356 . S
C95 C97 1.358 . S
C95 H153 0.930 . S
C96 N93 1.314 . S
C96 C94 1.353 . S
C96 H154 0.930 . S
C97 N93 1.279 . S
C97 C95 1.358 . S
C97 H155 0.930 . S
C98 C101 1.348 . S
C98 C102 1.356 . S
C98 O149 1.325 . S
C99 N100 1.279 . S
C99 C102 1.358 . S
C99 H156 0.930 . S
N100 C99 1.279 . S
N100 C103 1.314 . S
C101 C98 1.348 . S
C101 C103 1.353 . S
C101 H157 0.929 . S
C102 C98 1.356 . S
C102 C99 1.358 . S
C102 H158 0.930 . S
C103 N100 1.314 . S
C103 C101 1.353 . S
C103 H159 0.930 . S
C104 N105 1.314 . S
C104 C109 1.353 . S
C104 H110 0.930 . S
N105 Li88 1.990 . S
N105 C104 1.314 . S
N105 C107 1.279 . S
C106 C107 1.358 . S
C106 C108 1.356 . S
C106 H160 0.930 . S
C107 N105 1.279 . S
C107 C106 1.358 . S
C107 H111 0.930 . S
C108 C106 1.356 . S
C108 C109 1.348 . S
C109 C104 1.353 . S
C109 C108 1.348 . S
C109 H161 0.929 . S
H110 C104 0.930 . S
H111 C107 0.930 . S
C112 N113 1.314 . S
C112 C114 1.353 . S
C112 H118 0.930 . S
N113 Li89 1.990 . S
N113 C112 1.314 . S
N113 C116 1.279 . S
C114 C112 1.353 . S
C114 C117 1.348 . S
C114 H162 0.929 1_565 S
C115 C116 1.358 . S
C115 C117 1.356 . S
C115 H163 0.930 . S
C116 N113 1.279 . S
C116 C115 1.358 . S
C116 H119 0.930 . S
C117 C114 1.348 . S
C117 C115 1.356 . S
H118 C112 0.930 . S
H119 C116 0.930 . S
C120 C122 1.348 . S
C120 C123 1.356 . S
C120 O150 1.325 . S
N121 C124 1.314 . S
N121 C125 1.279 . S
C122 C120 1.348 . S
C122 C124 1.353 . S
C122 H164 0.929 . S
C123 C120 1.356 . S
C123 C125 1.358 . S
C123 H165 0.930 . S
C124 N121 1.314 . S
C124 C122 1.353 . S
C124 H166 0.930 . S
C125 N121 1.279 . S
C125 C123 1.358 . S
C125 H167 0.930 . S
C126 C127 1.348 . S
C126 C128 1.356 . S
C126 O151 1.325 1_545 S
C127 C126 1.348 . S
C127 C129 1.353 . S
C127 H168 0.929 . S
C128 C126 1.356 . S
C128 C130 1.358 . S
C128 H169 0.930 . S
C129 C127 1.353 . S
C129 N131 1.314 . S
C129 H170 0.930 . S
C130 C128 1.358 . S
C130 N131 1.279 . S
C130 H171 0.930 . S
N131 C129 1.314 . S
N131 C130 1.279 . S
C132 C134 1.353 . S
C132 N135 1.314 . S
C132 H138 0.930 . S
C133 N135 1.279 . S
C133 C136 1.358 . S
C133 H139 0.930 . S
C134 C132 1.353 . S
C134 C137 1.348 . S
C134 H172 0.929 . S
N135 Li90 1.990 . S
N135 C132 1.314 . S
N135 C133 1.279 . S
C136 C133 1.358 . S
C136 C137 1.356 . S
C136 H173 0.930 . S
C137 C134 1.348 . S
C137 C136 1.356 . S
H138 C132 0.930 . S
H139 C133 0.930 . S
C140 N141 1.314 . S
C140 C142 1.353 . S
C140 H146 0.930 . S
N141 Li91 1.990 . S
N141 C140 1.314 . S
N141 C144 1.237 1_565 S
C142 C140 1.353 . S
C142 C145 1.348 1_565 S
C142 H174 0.929 . S
C143 C144 1.380 . S
C143 C145 1.356 . S
C143 H175 0.930 . S
C144 N141 1.237 1_545 S
C144 C143 1.380 . S
C144 H147 0.954 . S
C145 C142 1.348 1_545 S
C145 C143 1.356 . S
H146 C140 0.930 . S
H147 C144 0.954 . S
O148 Li88 1.956 . S
O148 Li89 1.970 . S
O148 Li90 1.961 . S
O148 C92 1.325 . S
O149 Li88 1.970 . S
O149 Li89 1.956 . S
O149 Li91 1.961 . S
O149 C98 1.325 . S
O150 Li88 1.961 . S
O150 Li90 1.956 . S
O150 Li91 1.970 . S
O150 C120 1.325 . S
O151 Li89 1.961 . S
O151 Li90 1.970 . S
O151 Li91 1.956 . S
O151 C126 1.325 1_565 S
H152 C94 0.929 . S
H153 C95 0.930 . S
H154 C96 0.930 . S
H155 C97 0.930 . S
H156 C99 0.930 . S
H157 C101 0.929 . S
H158 C102 0.930 . S
H159 C103 0.930 . S
H160 C106 0.930 . S
H161 C109 0.929 . S
H162 C114 0.929 1_545 S
H163 C115 0.930 . S
H164 C122 0.929 . S
H165 C123 0.930 . S
H166 C124 0.930 . S
H167 C125 0.930 . S
H168 C127 0.929 . S
H169 C128 0.930 . S
H170 C129 0.930 . S
H171 C130 0.930 . S
H172 C134 0.929 . S
H173 C136 0.930 . S
H174 C142 0.929 . S
H175 C143 0.930 . S
Li176 N193 1.990 . S
Li176 O236 1.956 . S
Li176 O237 1.970 . S
Li176 O238 1.961 . S
Li177 N201 1.990 . S
Li177 O236 1.970 . S
Li177 O237 1.956 . S
Li177 O239 1.961 . S
Li178 N223 1.990 . S
Li178 O236 1.961 . S
Li178 O238 1.956 . S
Li178 O239 1.970 . S
Li179 N229 1.990 . S
Li179 O237 1.961 . S
Li179 O238 1.970 . S
Li179 O239 1.956 . S
C180 C182 1.348 . S
C180 C183 1.356 . S
C180 O236 1.325 . S
N181 C184 1.314 . S
N181 C185 1.279 . S
C182 C180 1.348 . S
C182 C184 1.353 . S
C182 H240 0.929 . S
C183 C180 1.356 . S
C183 C185 1.358 . S
C183 H241 0.930 . S
C184 N181 1.314 . S
C184 C182 1.353 . S
C184 H242 0.930 . S
C185 N181 1.279 . S
C185 C183 1.358 . S
C185 H243 0.930 . S
C186 C189 1.348 . S
C186 C190 1.356 . S
C186 O237 1.325 1_545 S
C187 N188 1.279 . S
C187 C190 1.358 . S
C187 H244 0.930 . S
N188 C187 1.279 . S
N188 C191 1.314 . S
C189 C186 1.348 . S
C189 C191 1.353 . S
C189 H245 0.929 . S
C190 C186 1.356 . S
C190 C187 1.358 . S
C190 H246 0.930 . S
C191 N188 1.314 . S
C191 C189 1.353 . S
C191 H247 0.930 . S
C192 N193 1.314 . S
C192 C197 1.353 . S
C192 H198 0.930 . S
N193 Li176 1.990 . S
N193 C192 1.314 . S
N193 C195 1.279 . S
C194 C195 1.358 . S
C194 C196 1.356 . S
C194 H248 0.930 . S
C195 N193 1.279 . S
C195 C194 1.358 . S
C195 H199 0.930 . S
C196 C194 1.356 . S
C196 C197 1.348 . S
C197 C192 1.353 . S
C197 C196 1.348 . S
C197 H249 0.929 . S
H198 C192 0.930 . S
H199 C195 0.930 . S
C200 N201 1.314 . S
C200 C202 1.353 . S
C200 H206 0.930 . S
N201 Li177 1.990 . S
N201 C200 1.314 . S
N201 C204 1.237 1_565 S
C202 C200 1.353 . S
C202 C205 1.348 1_565 S
C202 H250 0.929 . S
C203 C204 1.380 . S
C203 C205 1.356 . S
C203 H251 0.930 . S
C204 N201 1.237 1_545 S
C204 C203 1.380 . S
C204 H207 0.954 . S
C205 C202 1.348 1_545 S
C205 C203 1.356 . S
H206 C200 0.930 . S
H207 C204 0.954 . S
C208 C210 1.348 . S
C208 C211 1.356 . S
C208 O238 1.325 . S
N209 C212 1.314 . S
N209 C213 1.279 . S
C210 C208 1.348 . S
C210 C212 1.353 . S
C210 H252 0.929 . S
C211 C208 1.356 . S
C211 C213 1.358 . S
C211 H253 0.930 . S
C212 N209 1.314 . S
C212 C210 1.353 . S
C212 H254 0.930 . S
C213 N209 1.279 . S
C213 C211 1.358 . S
C213 H255 0.930 . S
C214 C215 1.348 . S
C214 C216 1.356 . S
C214 O239 1.325 . S
C215 C214 1.348 . S
C215 C217 1.353 . S
C215 H256 0.929 . S
C216 C214 1.356 . S
C216 C218 1.358 . S
C216 H257 0.930 . S
C217 C215 1.353 . S
C217 N219 1.314 . S
C217 H258 0.930 . S
C218 C216 1.358 . S
C218 N219 1.279 . S
C218 H259 0.930 . S
N219 C217 1.314 . S
N219 C218 1.279 . S
C220 C222 1.353 . S
C220 N223 1.314 . S
C220 H226 0.930 . S
C221 N223 1.279 . S
C221 C224 1.358 . S
C221 H227 0.930 . S
C222 C220 1.353 . S
C222 C225 1.348 . S
C222 H260 0.929 . S
N223 Li178 1.990 . S
N223 C220 1.314 . S
N223 C221 1.279 . S
C224 C221 1.358 . S
C224 C225 1.356 . S
C224 H261 0.930 . S
C225 C222 1.348 . S
C225 C224 1.356 . S
H226 C220 0.930 . S
H227 C221 0.930 . S
C228 N229 1.314 . S
C228 C230 1.353 . S
C228 H234 0.930 . S
N229 Li179 1.990 . S
N229 C228 1.314 . S
N229 C232 1.279 . S
C230 C228 1.353 . S
C230 C233 1.348 . S
C230 H262 0.929 1_565 S
C231 C232 1.358 . S
C231 C233 1.356 . S
C231 H263 0.930 . S
C232 N229 1.279 . S
C232 C231 1.358 . S
C232 H235 0.930 . S
C233 C230 1.348 . S
C233 C231 1.356 . S
H234 C228 0.930 . S
H235 C232 0.930 . S
O236 Li176 1.956 . S
O236 Li177 1.970 . S
O236 Li178 1.961 . S
O236 C180 1.325 . S
O237 Li176 1.970 . S
O237 Li177 1.956 . S
O237 Li179 1.961 . S
O237 C186 1.325 1_565 S
O238 Li176 1.961 . S
O238 Li178 1.956 . S
O238 Li179 1.970 . S
O238 C208 1.325 . S
O239 Li177 1.961 . S
O239 Li178 1.970 . S
O239 Li179 1.956 . S
O239 C214 1.325 . S
H240 C182 0.929 . S
H241 C183 0.930 . S
H242 C184 0.930 . S
H243 C185 0.930 . S
H244 C187 0.930 . S
H245 C189 0.929 . S
H246 C190 0.930 . S
H247 C191 0.930 . S
H248 C194 0.930 . S
H249 C197 0.929 . S
H250 C202 0.929 . S
H251 C203 0.930 . S
H252 C210 0.929 . S
H253 C211 0.930 . S
H254 C212 0.930 . S
H255 C213 0.930 . S
H256 C215 0.929 . S
H257 C216 0.930 . S
H258 C217 0.930 . S
H259 C218 0.930 . S
H260 C222 0.929 . S
H261 C224 0.930 . S
H262 C230 0.929 1_545 S
H263 C231 0.930 . S
Li264 N281 1.990 . S
Li264 O324 1.956 . S
Li264 O325 1.970 . S
Li264 O326 1.961 . S
Li265 N289 1.990 . S
Li265 O324 1.970 . S
Li265 O325 1.956 . S
Li265 O327 1.961 . S
Li266 N311 1.990 . S
Li266 O324 1.961 . S
Li266 O326 1.956 . S
Li266 O327 1.970 . S
Li267 N317 1.990 . S
Li267 O325 1.961 . S
Li267 O326 1.970 . S
Li267 O327 1.956 . S
C268 C270 1.348 . S
C268 C271 1.356 . S
C268 O324 1.325 1_565 S
N269 C272 1.314 . S
N269 C273 1.279 . S
C270 C268 1.348 . S
C270 C272 1.353 . S
C270 H328 0.929 . S
C271 C268 1.356 . S
C271 C273 1.358 . S
C271 H329 0.930 . S
C272 N269 1.314 . S
C272 C270 1.353 . S
C272 H330 0.930 . S
C273 N269 1.279 . S
C273 C271 1.358 . S
C273 H331 0.930 . S
C274 C277 1.348 . S
C274 C278 1.356 . S
C274 O325 1.325 . S
C275 N276 1.279 . S
C275 C278 1.358 . S
C275 H332 0.930 . S
N276 C275 1.279 . S
N276 C279 1.314 . S
C277 C274 1.348 . S
C277 C279 1.353 . S
C277 H333 0.929 . S
C278 C274 1.356 . S
C278 C275 1.358 . S
C278 H334 0.930 . S
C279 N276 1.314 . S
C279 C277 1.353 . S
C279 H335 0.930 . S
C280 N281 1.314 . S
C280 C285 1.353 . S
C280 H286 0.930 . S
N281 Li264 1.990 . S
N281 C280 1.314 . S
N281 C283 1.237 1_545 S
C282 C283 1.380 . S
C282 C284 1.356 . S
C282 H336 0.930 . S
C283 N281 1.237 1_565 S
C283 C282 1.380 . S
C283 H287 0.954 . S
C284 C282 1.356 . S
C284 C285 1.348 1_565 S
C285 C280 1.353 . S
C285 C284 1.348 1_545 S
C285 H337 0.929 1_655 S
H286 C280 0.930 . S
H287 C283 0.954 . S
C288 N289 1.314 . S
C288 C290 1.353 . S
C288 H294 0.930 . S
N289 Li265 1.990 . S
N289 C288 1.314 . S
N289 C292 1.279 . S
C290 C288 1.353 . S
C290 C293 1.348 . S
C290 H338 0.929 . S
C291 C292 1.358 . S
C291 C293 1.356 . S
C291 H339 0.930 . S
C292 N289 1.279 . S
C292 C291 1.358 . S
C292 H295 0.930 . S
C293 C290 1.348 . S
C293 C291 1.356 . S
H294 C288 0.930 . S
H295 C292 0.930 . S
C296 C298 1.348 1_655 S
C296 C299 1.356 1_655 S
C296 O326 1.325 . S
N297 C300 1.314 . S
N297 C301 1.279 . S
C298 C296 1.348 1_455 S
C298 C300 1.353 . S
C298 H340 0.929 1_455 S
C299 C296 1.356 1_455 S
C299 C301 1.358 . S
C299 H341 0.930 . S
C300 N297 1.314 . S
C300 C298 1.353 . S
C300 H342 0.930 . S
C301 N297 1.279 . S
C301 C299 1.358 . S
C301 H343 0.930 . S
C302 C303 1.348 . S
C302 C304 1.356 . S
C302 O327 1.325 . S
C303 C302 1.348 . S
C303 C305 1.353 . S
C303 H344 0.929 . S
C304 C302 1.356 . S
C304 C306 1.358 . S
C304 H345 0.930 . S
C305 C303 1.353 . S
C305 N307 1.314 . S
C305 H346 0.930 . S
C306 C304 1.358 . S
C306 N307 1.279 . S
C306 H347 0.930 . S
N307 C305 1.314 . S
N307 C306 1.279 . S
C308 C310 1.353 . S
C308 N311 1.314 . S
C308 H314 0.930 . S
C309 N311 1.279 . S
C309 C312 1.359 . S
C309 H315 0.930 . S
C310 C308 1.353 . S
C310 C313 1.348 . S
C310 H348 0.929 1_545 S
N311 Li266 1.990 . S
N311 C308 1.314 . S
N311 C309 1.279 . S
C312 C309 1.359 . S
C312 C313 1.357 . S
C312 H349 0.928 1_655 S
C313 C310 1.348 . S
C313 C312 1.357 . S
H314 C308 0.930 . S
H315 C309 0.930 . S
C316 N317 1.314 . S
C316 C318 1.353 . S
C316 H322 0.930 . S
N317 Li267 1.990 . S
N317 C316 1.314 . S
N317 C320 1.279 . S
C318 C316 1.353 . S
C318 C321 1.348 . S
C318 H350 0.929 . S
C319 C320 1.358 . S
C319 C321 1.356 . S
C319 H351 0.930 . S
C320 N317 1.279 . S
C320 C319 1.358 . S
C320 H323 0.930 . S
C321 C318 1.348 . S
C321 C319 1.356 . S
H322 C316 0.930 . S
H323 C320 0.930 . S
O324 Li264 1.956 . S
O324 Li265 1.970 . S
O324 Li266 1.961 . S
O324 C268 1.325 1_545 S
O325 Li264 1.970 . S
O325 Li265 1.956 . S
O325 Li267 1.961 . S
O325 C274 1.325 . S
O326 Li264 1.961 . S
O326 Li266 1.956 . S
O326 Li267 1.970 . S
O326 C296 1.325 . S
O327 Li265 1.961 . S
O327 Li266 1.970 . S
O327 Li267 1.956 . S
O327 C302 1.325 . S
H328 C270 0.929 . S
H329 C271 0.930 . S
H330 C272 0.930 . S
H331 C273 0.930 . S
H332 C275 0.930 . S
H333 C277 0.929 . S
H334 C278 0.930 . S
H335 C279 0.930 . S
H336 C282 0.930 . S
H337 C285 0.929 1_455 S
H338 C290 0.929 . S
H339 C291 0.930 . S
H340 C298 0.929 1_655 S
H341 C299 0.930 . S
H342 C300 0.930 . S
H343 C301 0.930 . S
H344 C303 0.929 . S
H345 C304 0.930 . S
H346 C305 0.930 . S
H347 C306 0.930 . S
H348 C310 0.929 1_565 S
H349 C312 0.928 1_455 S
H350 C318 0.929 . S
H351 C319 0.930 . S
Li352 N369 1.990 . S
Li352 O412 1.956 . S
Li352 O413 1.970 . S
Li352 O414 1.961 . S
Li353 N377 1.990 . S
Li353 O412 1.970 . S
Li353 O413 1.956 . S
Li353 O415 1.961 . S
Li354 N399 1.990 . S
Li354 O412 1.961 . S
Li354 O414 1.956 . S
Li354 O415 1.970 . S
Li355 N405 1.990 . S
Li355 O413 1.961 . S
Li355 O414 1.970 . S
Li355 O415 1.956 . S
C356 C358 1.348 . S
C356 C359 1.356 . S
C356 O412 1.325 . S
N357 C360 1.314 . S
N357 C361 1.279 . S
C358 C356 1.348 . S
C358 C360 1.353 . S
C358 H416 0.929 . S
C359 C356 1.356 . S
C359 C361 1.358 . S
C359 H417 0.930 . S
C360 N357 1.314 . S
C360 C358 1.353 . S
C360 H418 0.930 . S
C361 N357 1.279 . S
C361 C359 1.358 . S
C361 H419 0.930 . S
C362 C365 1.348 1_655 S
C362 C366 1.356 1_655 S
C362 O413 1.325 . S
C363 N364 1.279 . S
C363 C366 1.358 . S
C363 H420 0.930 . S
N364 C363 1.279 . S
N364 C367 1.314 . S
C365 C362 1.348 1_455 S
C365 C367 1.353 . S
C365 H421 0.929 1_455 S
C366 C362 1.356 1_455 S
C366 C363 1.358 . S
C366 H422 0.930 . S
C367 N364 1.314 . S
C367 C365 1.353 . S
C367 H423 0.930 . S
C368 N369 1.314 . S
C368 C373 1.353 . S
C368 H374 0.930 . S
N369 Li352 1.990 . S
N369 C368 1.314 . S
N369 C371 1.279 . S
C370 C371 1.358 . S
C370 C372 1.356 . S
C370 H424 0.930 . S
C371 N369 1.279 . S
C371 C370 1.358 . S
C371 H375 0.930 . S
C372 C370 1.356 . S
C372 C373 1.348 . S
C373 C368 1.353 . S
C373 C372 1.348 . S
C373 H425 0.929 . S
H374 C368 0.930 . S
H375 C371 0.930 . S
C376 N377 1.314 . S
C376 C378 1.353 1_565 S
C376 H382 0.934 . S
N377 Li353 1.990 . S
N377 C376 1.314 . S
N377 C380 1.279 . S
C378 C376 1.353 1_545 S
C378 C381 1.360 . S
C378 H426 0.929 . S
C379 C380 1.358 1_455 S
C379 C381 1.326 1_465 S
C379 H427 0.930 . S
C380 N377 1.279 . S
C380 C379 1.358 1_655 S
C380 H383 0.913 1_655 S
C381 C378 1.360 . S
C381 C379 1.326 1_645 S
H382 C376 0.934 . S
H383 C380 0.913 1_455 S
C384 C386 1.348 . S
C384 C387 1.356 . S
C384 O414 1.325 . S
N385 C388 1.314 . S
N385 C389 1.279 . S
C386 C384 1.348 . S
C386 C388 1.353 . S
C386 H428 0.929 . S
C387 C384 1.356 . S
C387 C389 1.358 . S
C387 H429 0.930 . S
C388 N385 1.314 . S
C388 C386 1.353 . S
C388 H430 0.930 . S
C389 N385 1.279 . S
C389 C387 1.358 . S
C389 H431 0.930 . S
C390 C391 1.348 . S
C390 C392 1.356 . S
C390 O415 1.325 1_545 S
C391 C390 1.348 . S
C391 C393 1.353 . S
C391 H432 0.929 . S
C392 C390 1.356 . S
C392 C394 1.358 . S
C392 H433 0.930 . S
C393 C391 1.353 . S
C393 N395 1.314 . S
C393 H434 0.930 . S
C394 C392 1.358 . S
C394 N395 1.279 . S
C394 H435 0.930 . S
N395 C393 1.314 . S
N395 C394 1.279 . S
C396 C398 1.353 . S
C396 N399 1.314 . S
C396 H402 0.930 . S
C397 N399 1.279 . S
C397 C400 1.358 . S
C397 H403 0.930 . S
C398 C396 1.353 . S
C398 C401 1.348 . S
C398 H436 0.929 . S
N399 Li354 1.990 . S
N399 C396 1.314 . S
N399 C397 1.279 . S
C400 C397 1.358 . S
C400 C401 1.356 . S
C400 H437 0.930 . S
C401 C398 1.348 . S
C401 C400 1.356 . S
H402 C396 0.930 . S
H403 C397 0.930 . S
C404 N405 1.314 . S
C404 C406 1.353 . S
C404 H410 0.930 . S
N405 Li355 1.990 . S
N405 C404 1.314 . S
N405 C408 1.279 . S
C406 C404 1.353 . S
C406 C409 1.348 . S
C406 H438 0.929 1_655 S
C407 C408 1.358 . S
C407 C409 1.356 . S
C407 H439 0.930 1_565 S
C408 N405 1.279 . S
C408 C407 1.358 . S
C408 H411 0.944 . S
C409 C406 1.348 . S
C409 C407 1.356 . S
H410 C404 0.930 . S
H411 C408 0.944 . S
O412 Li352 1.956 . S
O412 Li353 1.970 . S
O412 Li354 1.961 . S
O412 C356 1.325 . S
O413 Li352 1.970 . S
O413 Li353 1.956 . S
O413 Li355 1.961 . S
O413 C362 1.325 . S
O414 Li352 1.961 . S
O414 Li354 1.956 . S
O414 Li355 1.970 . S
O414 C384 1.325 . S
O415 Li353 1.961 . S
O415 Li354 1.970 . S
O415 Li355 1.956 . S
O415 C390 1.325 1_565 S
H416 C358 0.929 . S
H417 C359 0.930 . S
H418 C360 0.930 . S
H419 C361 0.930 . S
H420 C363 0.930 . S
H421 C365 0.929 1_655 S
H422 C366 0.930 . S
H423 C367 0.930 . S
H424 C370 0.930 . S
H425 C373 0.929 . S
H426 C378 0.929 . S
H427 C379 0.930 . S
H428 C386 0.929 . S
H429 C387 0.930 . S
H430 C388 0.930 . S
H431 C389 0.930 . S
H432 C391 0.929 . S
H433 C392 0.930 . S
H434 C393 0.930 . S
H435 C394 0.930 . S
H436 C398 0.929 . S
H437 C400 0.930 . S
H438 C406 0.929 1_455 S
H439 C407 0.930 1_545 S
Li440 N457 1.990 . S
Li440 O500 1.956 . S
Li440 O501 1.970 . S
Li440 O502 1.961 . S
Li441 N465 1.990 . S
Li441 O500 1.970 . S
Li441 O501 1.956 . S
Li441 O503 1.961 . S
Li442 N487 1.990 . S
Li442 O500 1.961 . S
Li442 O502 1.956 . S
Li442 O503 1.970 . S
Li443 N493 1.990 . S
Li443 O501 1.961 . S
Li443 O502 1.970 . S
Li443 O503 1.956 . S
C444 C446 1.348 . S
C444 C447 1.356 . S
C444 O500 1.325 . S
N445 C448 1.314 . S
N445 C449 1.279 . S
C446 C444 1.348 . S
C446 C448 1.353 . S
C446 H504 0.929 . S
C447 C444 1.356 . S
C447 C449 1.358 . S
C447 H505 0.930 . S
C448 N445 1.314 . S
C448 C446 1.353 . S
C448 H506 0.930 . S
C449 N445 1.279 . S
C449 C447 1.358 . S
C449 H507 0.930 . S
C450 C453 1.348 . S
C450 C454 1.356 . S
C450 O501 1.325 . S
C451 N452 1.279 . S
C451 C454 1.358 . S
C451 H508 0.930 . S
N452 C451 1.279 . S
N452 C455 1.314 . S
C453 C450 1.348 . S
C453 C455 1.353 . S
C453 H509 0.929 . S
C454 C450 1.356 . S
C454 C451 1.358 . S
C454 H510 0.930 . S
C455 N452 1.314 . S
C455 C453 1.353 . S
C455 H511 0.930 . S
C456 N457 1.314 . S
C456 C461 1.353 . S
C456 H462 0.930 . S
N457 Li440 1.990 . S
N457 C456 1.314 . S
N457 C459 1.279 . S
C458 C459 1.358 . S
C458 C460 1.356 . S
C458 H512 0.930 . S
C459 N457 1.279 . S
C459 C458 1.358 . S
C459 H463 0.930 . S
C460 C458 1.356 . S
C460 C461 1.348 . S
C461 C456 1.353 . S
C461 C460 1.348 . S
C461 H513 0.929 . S
H462 C456 0.930 . S
H463 C459 0.930 . S
C464 N465 1.314 . S
C464 C466 1.353 1_545 S
C464 H470 0.934 . S
N465 Li441 1.990 . S
N465 C464 1.314 . S
N465 C468 1.279 . S
C466 C464 1.353 1_565 S
C466 C469 1.360 . S
C466 H514 0.929 . S
C467 C468 1.358 . S
C467 C469 1.326 1_545 S
C467 H515 0.930 . S
C468 N465 1.279 . S
C468 C467 1.358 . S
C468 H471 0.930 . S
C469 C466 1.360 . S
C469 C467 1.326 1_565 S
H470 C464 0.934 . S
H471 C468 0.930 . S
C472 C474 1.348 . S
C472 C475 1.356 . S
C472 O502 1.325 . S
N473 C476 1.314 . S
N473 C477 1.279 . S
C474 C472 1.348 . S
C474 C476 1.353 . S
C474 H516 0.929 . S
C475 C472 1.356 . S
C475 C477 1.358 . S
C475 H517 0.930 . S
C476 N473 1.314 . S
C476 C474 1.353 . S
C476 H518 0.930 . S
C477 N473 1.279 . S
C477 C475 1.358 . S
C477 H519 0.930 . S
C478 C479 1.348 . S
C478 C480 1.356 . S
C478 O503 1.325 1_565 S
C479 C478 1.348 . S
C479 C481 1.353 . S
C479 H520 0.929 . S
C480 C478 1.356 . S
C480 C482 1.358 . S
C480 H521 0.930 . S
C481 C479 1.353 . S
C481 N483 1.314 . S
C481 H522 0.930 . S
C482 C480 1.358 . S
C482 N483 1.279 . S
C482 H523 0.930 . S
N483 C481 1.314 . S
N483 C482 1.279 . S
C484 C486 1.353 . S
C484 N487 1.314 . S
C484 H490 0.930 . S
C485 N487 1.279 . S
C485 C488 1.358 . S
C485 H491 0.930 . S
C486 C484 1.353 . S
C486 C489 1.348 . S
C486 H524 0.929 . S
N487 Li442 1.990 . S
N487 C484 1.314 . S
N487 C485 1.279 . S
C488 C485 1.358 . S
C488 C489 1.356 . S
C488 H525 0.930 . S
C489 C486 1.348 . S
C489 C488 1.356 . S
H490 C484 0.930 . S
H491 C485 0.930 . S
C492 N493 1.314 . S
C492 C494 1.353 . S
C492 H498 0.930 . S
N493 Li443 1.990 . S
N493 C492 1.314 . S
N493 C496 1.279 . S
C494 C492 1.353 . S
C494 C497 1.348 . S
C494 H526 0.929 . S
C495 C496 1.358 . S
C495 C497 1.356 . S
C495 H527 0.930 1_545 S
C496 N493 1.279 . S
C496 C495 1.358 . S
C496 H499 0.944 . S
C497 C494 1.348 . S
C497 C495 1.356 . S
H498 C492 0.930 . S
H499 C496 0.944 . S
O500 Li440 1.956 . S
O500 Li441 1.970 . S
O500 Li442 1.961 . S
O500 C444 1.325 . S
O501 Li440 1.970 . S
O501 Li441 1.956 . S
O501 Li443 1.961 . S
O501 C450 1.325 . S
O502 Li440 1.961 . S
O502 Li442 1.956 . S
O502 Li443 1.970 . S
O502 C472 1.325 . S
O503 Li441 1.961 . S
O503 Li442 1.970 . S
O503 Li443 1.956 . S
O503 C478 1.325 1_545 S
H504 C446 0.929 . S
H505 C447 0.930 . S
H506 C448 0.930 . S
H507 C449 0.930 . S
H508 C451 0.930 . S
H509 C453 0.929 . S
H510 C454 0.930 . S
H511 C455 0.930 . S
H512 C458 0.930 . S
H513 C461 0.929 . S
H514 C466 0.929 . S
H515 C467 0.930 . S
H516 C474 0.929 . S
H517 C475 0.930 . S
H518 C476 0.930 . S
H519 C477 0.930 . S
H520 C479 0.929 . S
H521 C480 0.930 . S
H522 C481 0.930 . S
H523 C482 0.930 . S
H524 C486 0.929 . S
H525 C488 0.930 . S
H526 C494 0.929 . S
H527 C495 0.930 1_565 S
Li528 N545 1.990 . S
Li528 O588 1.956 . S
Li528 O589 1.970 . S
Li528 O590 1.961 . S
Li529 N553 1.990 . S
Li529 O588 1.970 . S
Li529 O589 1.956 . S
Li529 O591 1.961 . S
Li530 N575 1.990 . S
Li530 O588 1.961 . S
Li530 O590 1.956 . S
Li530 O591 1.970 . S
Li531 N581 1.990 . S
Li531 O589 1.961 . S
Li531 O590 1.970 . S
Li531 O591 1.956 . S
C532 C534 1.348 . S
C532 C535 1.356 . S
C532 O588 1.325 . S
N533 C536 1.314 . S
N533 C537 1.279 . S
C534 C532 1.348 . S
C534 C536 1.353 . S
C534 H592 0.929 . S
C535 C532 1.356 . S
C535 C537 1.358 . S
C535 H593 0.930 . S
C536 N533 1.314 . S
C536 C534 1.353 . S
C536 H594 0.930 . S
C537 N533 1.279 . S
C537 C535 1.358 . S
C537 H595 0.930 . S
C538 C541 1.348 . S
C538 C542 1.356 . S
C538 O589 1.325 1_565 S
C539 N540 1.279 . S
C539 C542 1.358 . S
C539 H596 0.930 . S
N540 C539 1.279 . S
N540 C543 1.314 . S
C541 C538 1.348 . S
C541 C543 1.353 . S
C541 H597 0.929 . S
C542 C538 1.356 . S
C542 C539 1.358 . S
C542 H598 0.930 . S
C543 N540 1.314 . S
C543 C541 1.353 . S
C543 H599 0.930 . S
C544 N545 1.314 . S
C544 C549 1.353 . S
C544 H550 0.930 . S
N545 Li528 1.990 . S
N545 C544 1.314 . S
N545 C547 1.279 . S
C546 C547 1.358 . S
C546 C548 1.356 . S
C546 H600 0.930 . S
C547 N545 1.279 . S
C547 C546 1.358 . S
C547 H551 0.930 . S
C548 C546 1.356 . S
C548 C549 1.348 . S
C549 C544 1.353 . S
C549 C548 1.348 . S
C549 H601 0.929 . S
H550 C544 0.930 . S
H551 C547 0.930 . S
C552 N553 1.314 . S
C552 C554 1.353 . S
C552 H558 0.930 . S
N553 Li529 1.990 . S
N553 C552 1.314 . S
N553 C556 1.279 . S
C554 C552 1.353 . S
C554 C557 1.348 . S
C554 H602 0.929 . S
C555 C556 1.358 . S
C555 C557 1.356 . S
C555 H603 0.930 1_545 S
C556 N553 1.279 . S
C556 C555 1.358 . S
C556 H559 0.944 . S
C557 C554 1.348 . S
C557 C555 1.356 . S
H558 C552 0.930 . S
H559 C556 0.944 . S
C560 C562 1.348 . S
C560 C563 1.356 . S
C560 O590 1.325 . S
N561 C564 1.314 . S
N561 C565 1.279 . S
C562 C560 1.348 . S
C562 C564 1.353 . S
C562 H604 0.929 . S
C563 C560 1.356 . S
C563 C565 1.358 . S
C563 H605 0.930 . S
C564 N561 1.314 . S
C564 C562 1.353 . S
C564 H606 0.930 . S
C565 N561 1.279 . S
C565 C563 1.358 . S
C565 H607 0.930 . S
C566 C567 1.348 . S
C566 C568 1.356 . S
C566 O591 1.325 . S
C567 C566 1.348 . S
C567 C569 1.353 . S
C567 H608 0.929 . S
C568 C566 1.356 . S
C568 C570 1.358 . S
C568 H609 0.930 . S
C569 C567 1.353 . S
C569 N571 1.314 . S
C569 H610 0.930 . S
C570 C568 1.358 . S
C570 N571 1.279 . S
C570 H611 0.930 . S
N571 C569 1.314 . S
N571 C570 1.279 . S
C572 C574 1.353 . S
C572 N575 1.314 . S
C572 H578 0.930 . S
C573 N575 1.279 . S
C573 C576 1.358 . S
C573 H579 0.930 . S
C574 C572 1.353 . S
C574 C577 1.348 . S
C574 H612 0.929 . S
N575 Li530 1.990 . S
N575 C572 1.314 . S
N575 C573 1.279 . S
C576 C573 1.358 . S
C576 C577 1.356 . S
C576 H613 0.930 . S
C577 C574 1.348 . S
C577 C576 1.356 . S
H578 C572 0.930 . S
H579 C573 0.930 . S
C580 N581 1.314 . S
C580 C582 1.353 1_545 S
C580 H586 0.934 . S
N581 Li531 1.990 . S
N581 C580 1.314 . S
N581 C584 1.279 . S
C582 C580 1.353 1_565 S
C582 C585 1.360 . S
C582 H614 0.929 . S
C583 C584 1.358 . S
C583 C585 1.326 1_545 S
C583 H615 0.930 . S
C584 N581 1.279 . S
C584 C583 1.358 . S
C584 H587 0.930 . S
C585 C582 1.360 . S
C585 C583 1.326 1_565 S
H586 C580 0.934 . S
H587 C584 0.930 . S
O588 Li528 1.956 . S
O588 Li529 1.970 . S
O588 Li530 1.961 . S
O588 C532 1.325 . S
O589 Li528 1.970 . S
O589 Li529 1.956 . S
O589 Li531 1.961 . S
O589 C538 1.325 1_545 S
O590 Li528 1.961 . S
O590 Li530 1.956 . S
O590 Li531 1.970 . S
O590 C560 1.325 . S
O591 Li529 1.961 . S
O591 Li530 1.970 . S
O591 Li531 1.956 . S
O591 C566 1.325 . S
H592 C534 0.929 . S
H593 C535 0.930 . S
H594 C536 0.930 . S
H595 C537 0.930 . S
H596 C539 0.930 . S
H597 C541 0.929 . S
H598 C542 0.930 . S
H599 C543 0.930 . S
H600 C546 0.930 . S
H601 C549 0.929 . S
H602 C554 0.929 . S
H603 C555 0.930 1_565 S
H604 C562 0.929 . S
H605 C563 0.930 . S
H606 C564 0.930 . S
H607 C565 0.930 . S
H608 C567 0.929 . S
H609 C568 0.930 . S
H610 C569 0.930 . S
H611 C570 0.930 . S
H612 C574 0.929 . S
H613 C576 0.930 . S
H614 C582 0.929 . S
H615 C583 0.930 . S
Li616 N633 1.990 . S
Li616 O676 1.956 . S
Li616 O677 1.970 . S
Li616 O678 1.961 . S
Li617 N641 1.990 . S
Li617 O676 1.970 . S
Li617 O677 1.956 . S
Li617 O679 1.961 . S
Li618 N663 1.990 . S
Li618 O676 1.961 . S
Li618 O678 1.956 . S
Li618 O679 1.970 . S
Li619 N669 1.990 . S
Li619 O677 1.961 . S
Li619 O678 1.970 . S
Li619 O679 1.956 . S
C620 C622 1.348 . S
C620 C623 1.356 . S
C620 O676 1.325 1_545 S
N621 C624 1.314 . S
N621 C625 1.279 . S
C622 C620 1.348 . S
C622 C624 1.353 . S
C622 H680 0.929 . S
C623 C620 1.356 . S
C623 C625 1.358 . S
C623 H681 0.930 . S
C624 N621 1.314 . S
C624 C622 1.353 . S
C624 H682 0.930 . S
C625 N621 1.279 . S
C625 C623 1.358 . S
C625 H683 0.930 . S
C626 C629 1.348 . S
C626 C630 1.356 . S
C626 O677 1.325 . S
C627 N628 1.279 . S
C627 C630 1.358 . S
C627 H684 0.930 . S
N628 C627 1.279 . S
N628 C631 1.314 . S
C629 C626 1.348 . S
C629 C631 1.353 . S
C629 H685 0.929 . S
C630 C626 1.356 . S
C630 C627 1.358 . S
C630 H686 0.930 . S
C631 N628 1.314 . S
C631 C629 1.353 . S
C631 H687 0.930 . S
C632 N633 1.314 . S
C632 C637 1.353 . S
C632 H638 0.930 . S
N633 Li616 1.990 . S
N633 C632 1.314 . S
N633 C635 1.279 . S
C634 C635 1.358 . S
C634 C636 1.356 . S
C634 H688 0.930 1_565 S
C635 N633 1.279 . S
C635 C634 1.358 . S
C635 H639 0.944 . S
C636 C634 1.356 . S
C636 C637 1.348 . S
C637 C632 1.353 . S
C637 C636 1.348 . S
C637 H689 0.929 1_455 S
H638 C632 0.930 . S
H639 C635 0.944 . S
C640 N641 1.314 . S
C640 C642 1.353 . S
C640 H646 0.930 . S
N641 Li617 1.990 . S
N641 C640 1.314 . S
N641 C644 1.279 . S
C642 C640 1.353 . S
C642 C645 1.348 . S
C642 H690 0.929 . S
C643 C644 1.358 . S
C643 C645 1.356 . S
C643 H691 0.930 . S
C644 N641 1.279 . S
C644 C643 1.358 . S
C644 H647 0.930 . S
C645 C642 1.348 . S
C645 C643 1.356 . S
H646 C640 0.930 . S
H647 C644 0.930 . S
C648 C650 1.348 1_455 S
C648 C651 1.356 1_455 S
C648 O678 1.325 . S
N649 C652 1.314 . S
N649 C653 1.279 . S
C650 C648 1.348 1_655 S
C650 C652 1.353 . S
C650 H692 0.929 1_655 S
C651 C648 1.356 1_655 S
C651 C653 1.358 . S
C651 H693 0.930 . S
C652 N649 1.314 . S
C652 C650 1.353 . S
C652 H694 0.930 . S
C653 N649 1.279 . S
C653 C651 1.358 . S
C653 H695 0.930 . S
C654 C655 1.348 . S
C654 C656 1.356 . S
C654 O679 1.325 . S
C655 C654 1.348 . S
C655 C657 1.353 . S
C655 H696 0.929 . S
C656 C654 1.356 . S
C656 C658 1.358 . S
C656 H697 0.930 . S
C657 C655 1.353 . S
C657 N659 1.314 . S
C657 H698 0.930 . S
C658 C656 1.358 . S
C658 N659 1.279 . S
C658 H699 0.930 . S
N659 C657 1.314 . S
N659 C658 1.279 . S
C660 C662 1.353 1_565 S
C660 N663 1.314 . S
C660 H666 0.934 . S
C661 N663 1.279 . S
C661 C664 1.358 1_455 S
C661 H667 0.913 1_455 S
C662 C660 1.353 1_545 S
C662 C665 1.360 . S
C662 H700 0.929 . S
N663 Li618 1.990 . S
N663 C660 1.314 . S
N663 C661 1.279 . S
C664 C661 1.358 1_655 S
C664 C665 1.326 1_665 S
C664 H701 0.930 . S
C665 C662 1.360 . S
C665 C664 1.326 1_445 S
H666 C660 0.934 . S
H667 C661 0.913 1_655 S
C668 N669 1.314 . S
C668 C670 1.353 . S
C668 H674 0.930 . S
N669 Li619 1.990 . S
N669 C668 1.314 . S
N669 C672 1.279 . S
C670 C668 1.353 . S
C670 C673 1.348 . S
C670 H702 0.929 . S
C671 C672 1.358 . S
C671 C673 1.356 . S
C671 H703 0.930 . S
C672 N669 1.279 . S
C672 C671 1.358 . S
C672 H675 0.930 . S
C673 C670 1.348 . S
C673 C671 1.356 . S
H674 C668 0.930 . S
H675 C672 0.930 . S
O676 Li616 1.956 . S
O676 Li617 1.970 . S
O676 Li618 1.961 . S
O676 C620 1.325 1_565 S
O677 Li616 1.970 . S
O677 Li617 1.956 . S
O677 Li619 1.961 . S
O677 C626 1.325 . S
O678 Li616 1.961 . S
O678 Li618 1.956 . S
O678 Li619 1.970 . S
O678 C648 1.325 . S
O679 Li617 1.961 . S
O679 Li618 1.970 . S
O679 Li619 1.956 . S
O679 C654 1.325 . S
H680 C622 0.929 . S
H681 C623 0.930 . S
H682 C624 0.930 . S
H683 C625 0.930 . S
H684 C627 0.930 . S
H685 C629 0.929 . S
H686 C630 0.930 . S
H687 C631 0.930 . S
H688 C634 0.930 1_545 S
H689 C637 0.929 1_655 S
H690 C642 0.929 . S
H691 C643 0.930 . S
H692 C650 0.929 1_455 S
H693 C651 0.930 . S
H694 C652 0.930 . S
H695 C653 0.930 . S
H696 C655 0.929 . S
H697 C656 0.930 . S
H698 C657 0.930 . S
H699 C658 0.930 . S
H700 C662 0.929 . S
H701 C664 0.930 . S
H702 C670 0.929 . S
H703 C671 0.930 . S
Li704 N721 1.990 . S
Li704 O764 1.956 . S
Li704 O765 1.970 . S
Li704 O766 1.961 . S
Li705 N729 1.990 . S
Li705 O764 1.970 . S
Li705 O765 1.956 . S
Li705 O767 1.961 . S
Li706 N751 1.990 . S
Li706 O764 1.961 . S
Li706 O766 1.956 . S
Li706 O767 1.970 . S
Li707 N757 1.990 . S
Li707 O765 1.961 . S
Li707 O766 1.970 . S
Li707 O767 1.956 . S
C708 C710 1.348 . S
C708 C711 1.356 . S
C708 O764 1.325 . S
N709 C712 1.314 . S
N709 C713 1.279 . S
C710 C708 1.348 . S
C710 C712 1.353 . S
C710 H768 0.929 . S
C711 C708 1.356 . S
C711 C713 1.358 . S
C711 H769 0.930 . S
C712 N709 1.314 . S
C712 C710 1.353 . S
C712 H770 0.930 . S
C713 N709 1.279 . S
C713 C711 1.358 . S
C713 H771 0.930 . S
C714 C717 1.348 . S
C714 C718 1.356 . S
C714 O765 1.325 . S
C715 N716 1.279 . S
C715 C718 1.358 . S
C715 H772 0.930 . S
N716 C715 1.279 . S
N716 C719 1.314 . S
C717 C714 1.348 . S
C717 C719 1.353 . S
C717 H773 0.929 . S
C718 C714 1.356 . S
C718 C715 1.358 . S
C718 H774 0.930 . S
C719 N716 1.314 . S
C719 C717 1.353 . S
C719 H775 0.930 . S
C720 N721 1.314 . S
C720 C725 1.353 . S
C720 H726 0.930 . S
N721 Li704 1.990 . S
N721 C720 1.314 . S
N721 C723 1.279 . S
C722 C723 1.358 . S
C722 C724 1.356 . S
C722 H776 0.930 . S
C723 N721 1.279 . S
C723 C722 1.358 . S
C723 H727 0.930 . S
C724 C722 1.356 . S
C724 C725 1.348 . S
C725 C720 1.353 . S
C725 C724 1.348 . S
C725 H777 0.929 . S
H726 C720 0.930 . S
H727 C723 0.930 . S
C728 N729 1.314 . S
C728 C730 1.353 . S
C728 H734 0.930 . S
N729 Li705 1.990 . S
N729 C728 1.314 . S
N729 C732 1.279 . S
C730 C728 1.353 . S
C730 C733 1.348 . S
C730 H778 0.929 . S
C731 C732 1.358 . S
C731 C733 1.356 . S
C731 H779 0.930 . S
C732 N729 1.279 . S
C732 C731 1.358 . S
C732 H735 0.930 . S
C733 C730 1.348 . S
C733 C731 1.356 . S
H734 C728 0.930 . S
H735 C732 0.930 . S
C736 C738 1.348 . S
C736 C739 1.356 . S
C736 O766 1.325 . S
N737 C740 1.314 . S
N737 C741 1.279 . S
C738 C736 1.348 . S
C738 C740 1.353 . S
C738 H780 0.929 . S
C739 C736 1.356 . S
C739 C741 1.358 . S
C739 H781 0.930 . S
C740 N737 1.314 . S
C740 C738 1.353 . S
C740 H782 0.930 . S
C741 N737 1.279 . S
C741 C739 1.358 . S
C741 H783 0.930 . S
C742 C743 1.348 . S
C742 C744 1.356 . S
C742 O767 1.325 . S
C743 C742 1.348 . S
C743 C745 1.353 . S
C743 H784 0.929 . S
C744 C742 1.356 . S
C744 C746 1.358 . S
C744 H785 0.930 . S
C745 C743 1.353 . S
C745 N747 1.314 . S
C745 H786 0.930 . S
C746 C744 1.358 . S
C746 N747 1.279 . S
C746 H787 0.930 . S
N747 C745 1.314 . S
N747 C746 1.279 . S
C748 C750 1.353 . S
C748 N751 1.314 . S
C748 H754 0.930 . S
C749 N751 1.279 . S
C749 C752 1.358 . S
C749 H755 0.930 . S
C750 C748 1.353 . S
C750 C753 1.348 . S
C750 H788 0.929 . S
N751 Li706 1.990 . S
N751 C748 1.314 . S
N751 C749 1.279 . S
C752 C749 1.358 . S
C752 C753 1.356 . S
C752 H789 0.930 . S
C753 C750 1.348 . S
C753 C752 1.356 . S
H754 C748 0.930 . S
H755 C749 0.930 . S
C756 N757 1.314 . S
C756 C758 1.353 . S
C756 H762 0.930 . S
N757 Li707 1.990 . S
N757 C756 1.314 . S
N757 C760 1.279 . S
C758 C756 1.353 . S
C758 C761 1.348 . S
C758 H790 0.929 . S
C759 C760 1.358 . S
C759 C761 1.356 . S
C759 H791 0.930 . S
C760 N757 1.279 . S
C760 C759 1.358 . S
C760 H763 0.930 . S
C761 C758 1.348 . S
C761 C759 1.356 . S
H762 C756 0.930 . S
H763 C760 0.930 . S
O764 Li704 1.956 . S
O764 Li705 1.970 . S
O764 Li706 1.961 . S
O764 C708 1.325 . S
O765 Li704 1.970 . S
O765 Li705 1.956 . S
O765 Li707 1.961 . S
O765 C714 1.325 . S
O766 Li704 1.961 . S
O766 Li706 1.956 . S
O766 Li707 1.970 . S
O766 C736 1.325 . S
O767 Li705 1.961 . S
O767 Li706 1.970 . S
O767 Li707 1.956 . S
O767 C742 1.325 . S
H768 C710 0.929 . S
H769 C711 0.930 . S
H770 C712 0.930 . S
H771 C713 0.930 . S
H772 C715 0.930 . S
H773 C717 0.929 . S
H774 C718 0.930 . S
H775 C719 0.930 . S
H776 C722 0.930 . S
H777 C725 0.929 . S
H778 C730 0.929 . S
H779 C731 0.930 . S
H780 C738 0.929 . S
H781 C739 0.930 . S
H782 C740 0.930 . S
H783 C741 0.930 . S
H784 C743 0.929 . S
H785 C744 0.930 . S
H786 C745 0.930 . S
H787 C746 0.930 . S
H788 C750 0.929 . S
H789 C752 0.930 . S
H790 C758 0.929 . S
H791 C759 0.930 . S
Li792 N809 1.990 . S
Li792 O852 1.956 . S
Li792 O853 1.970 . S
Li792 O854 1.961 . S
Li793 N817 1.990 . S
Li793 O852 1.970 . S
Li793 O853 1.956 . S
Li793 O855 1.961 . S
Li794 N839 1.990 . S
Li794 O852 1.961 . S
Li794 O854 1.956 . S
Li794 O855 1.970 . S
Li795 N845 1.990 . S
Li795 O853 1.961 . S
Li795 O854 1.970 . S
Li795 O855 1.956 . S
C796 C798 1.348 . S
C796 C799 1.356 . S
C796 O852 1.325 . S
N797 C800 1.314 . S
N797 C801 1.279 . S
C798 C796 1.348 . S
C798 C800 1.353 . S
C798 H856 0.929 . S
C799 C796 1.356 . S
C799 C801 1.358 . S
C799 H857 0.930 . S
C800 N797 1.314 . S
C800 C798 1.353 . S
C800 H858 0.930 . S
C801 N797 1.279 . S
C801 C799 1.358 . S
C801 H859 0.930 . S
C802 C805 1.348 1_655 S
C802 C806 1.356 1_655 S
C802 O853 1.325 . S
C803 N804 1.279 . S
C803 C806 1.358 . S
C803 H860 0.930 . S
N804 C803 1.279 . S
N804 C807 1.314 . S
C805 C802 1.348 1_455 S
C805 C807 1.353 . S
C805 H861 0.929 1_455 S
C806 C802 1.356 1_455 S
C806 C803 1.358 . S
C806 H862 0.930 . S
C807 N804 1.314 . S
C807 C805 1.353 . S
C807 H863 0.930 . S
C808 N809 1.314 . S
C808 C813 1.353 . S
C808 H814 0.930 . S
N809 Li792 1.990 . S
N809 C808 1.314 . S
N809 C811 1.279 . S
C810 C811 1.358 . S
C810 C812 1.356 . S
C810 H864 0.930 . S
C811 N809 1.279 . S
C811 C810 1.358 . S
C811 H815 0.930 . S
C812 C810 1.356 . S
C812 C813 1.348 . S
C813 C808 1.353 . S
C813 C812 1.348 . S
C813 H865 0.929 . S
H814 C808 0.930 . S
H815 C811 0.930 . S
C816 N817 1.314 . S
C816 C818 1.353 . S
C816 H822 0.930 . S
N817 Li793 1.990 . S
N817 C816 1.314 . S
N817 C820 1.279 . S
C818 C816 1.353 . S
C818 C821 1.348 . S
C818 H866 0.929 . S
C819 C820 1.359 . S
C819 C821 1.357 . S
C819 H867 0.928 1_655 S
C820 N817 1.279 . S
C820 C819 1.359 . S
C820 H823 0.930 . S
C821 C818 1.348 . S
C821 C819 1.357 . S
H822 C816 0.930 . S
H823 C820 0.930 . S
C824 C826 1.348 . S
C824 C827 1.356 . S
C824 O854 1.325 . S
N825 C828 1.314 . S
N825 C829 1.279 . S
C826 C824 1.348 . S
C826 C828 1.353 . S
C826 H868 0.929 . S
C827 C824 1.356 . S
C827 C829 1.358 . S
C827 H869 0.930 . S
C828 N825 1.314 . S
C828 C826 1.353 . S
C828 H870 0.930 . S
C829 N825 1.279 . S
C829 C827 1.358 . S
C829 H871 0.930 . S
C830 C831 1.348 . S
C830 C832 1.356 . S
C830 O855 1.325 . S
C831 C830 1.348 . S
C831 C833 1.353 . S
C831 H872 0.929 . S
C832 C830 1.356 . S
C832 C834 1.358 . S
C832 H873 0.930 . S
C833 C831 1.353 . S
C833 N835 1.314 . S
C833 H874 0.930 . S
C834 C832 1.358 . S
C834 N835 1.279 . S
C834 H875 0.930 . S
N835 C833 1.314 . S
N835 C834 1.279 . S
C836 C838 1.353 . S
C836 N839 1.314 . S
C836 H842 0.930 . S
C837 N839 1.279 . S
C837 C840 1.358 . S
C837 H843 0.930 . S
C838 C836 1.353 . S
C838 C841 1.348 . S
C838 H876 0.929 . S
N839 Li794 1.990 . S
N839 C836 1.314 . S
N839 C837 1.279 . S
C840 C837 1.358 . S
C840 C841 1.356 . S
C840 H877 0.930 . S
C841 C838 1.348 . S
C841 C840 1.356 . S
H842 C836 0.930 . S
H843 C837 0.930 . S
C844 N845 1.314 . S
C844 C846 1.353 . S
C844 H850 0.930 . S
N845 Li795 1.990 . S
N845 C844 1.314 . S
N845 C848 1.279 . S
C846 C844 1.353 . S
C846 C849 1.348 . S
C846 H878 0.929 1_655 S
C847 C848 1.358 . S
C847 C849 1.356 . S
C847 H879 0.930 . S
C848 N845 1.279 . S
C848 C847 1.358 . S
C848 H851 0.930 . S
C849 C846 1.348 . S
C849 C847 1.356 . S
H850 C844 0.930 . S
H851 C848 0.930 . S
O852 Li792 1.956 . S
O852 Li793 1.970 . S
O852 Li794 1.961 . S
O852 C796 1.325 . S
O853 Li792 1.970 . S
O853 Li793 1.956 . S
O853 Li795 1.961 . S
O853 C802 1.325 . S
O854 Li792 1.961 . S
O854 Li794 1.956 . S
O854 Li795 1.970 . S
O854 C824 1.325 . S
O855 Li793 1.961 . S
O855 Li794 1.970 . S
O855 Li795 1.956 . S
O855 C830 1.325 . S
H856 C798 0.929 . S
H857 C799 0.930 . S
H858 C800 0.930 . S
H859 C801 0.930 . S
H860 C803 0.930 . S
H861 C805 0.929 1_655 S
H862 C806 0.930 . S
H863 C807 0.930 . S
H864 C810 0.930 . S
H865 C813 0.929 . S
H866 C818 0.929 . S
H867 C819 0.928 1_455 S
H868 C826 0.929 . S
H869 C827 0.930 . S
H870 C828 0.930 . S
H871 C829 0.930 . S
H872 C831 0.929 . S
H873 C832 0.930 . S
H874 C833 0.930 . S
H875 C834 0.930 . S
H876 C838 0.929 . S
H877 C840 0.930 . S
H878 C846 0.929 1_455 S
H879 C847 0.930 . S
Li880 N897 1.990 . S
Li880 O940 1.956 . S
Li880 O941 1.970 . S
Li880 O942 1.961 . S
Li881 N905 1.990 . S
Li881 O940 1.970 . S
Li881 O941 1.956 . S
Li881 O943 1.961 . S
Li882 N927 1.990 . S
Li882 O940 1.961 . S
Li882 O942 1.956 . S
Li882 O943 1.970 . S
Li883 N933 1.990 . S
Li883 O941 1.961 . S
Li883 O942 1.970 . S
Li883 O943 1.956 . S
C884 C886 1.348 . S
C884 C887 1.356 . S
C884 O940 1.325 . S
N885 C888 1.314 . S
N885 C889 1.279 . S
C886 C884 1.348 . S
C886 C888 1.353 . S
C886 H944 0.929 . S
C887 C884 1.356 . S
C887 C889 1.358 . S
C887 H945 0.930 . S
C888 N885 1.314 . S
C888 C886 1.353 . S
C888 H946 0.930 . S
C889 N885 1.279 . S
C889 C887 1.358 . S
C889 H947 0.930 . S
C890 C893 1.348 . S
C890 C894 1.356 . S
C890 O941 1.325 . S
C891 N892 1.279 . S
C891 C894 1.358 . S
C891 H948 0.930 . S
N892 C891 1.279 . S
N892 C895 1.314 . S
C893 C890 1.348 . S
C893 C895 1.353 . S
C893 H949 0.929 . S
C894 C890 1.356 . S
C894 C891 1.358 . S
C894 H950 0.930 . S
C895 N892 1.314 . S
C895 C893 1.353 . S
C895 H951 0.930 . S
C896 N897 1.314 . S
C896 C901 1.353 . S
C896 H902 0.930 . S
N897 Li880 1.990 . S
N897 C896 1.314 . S
N897 C899 1.279 . S
C898 C899 1.358 . S
C898 C900 1.356 . S
C898 H952 0.930 . S
C899 N897 1.279 . S
C899 C898 1.358 . S
C899 H903 0.930 . S
C900 C898 1.356 . S
C900 C901 1.348 . S
C901 C896 1.353 . S
C901 C900 1.348 . S
C901 H953 0.929 1_455 S
H902 C896 0.930 . S
H903 C899 0.930 . S
C904 N905 1.314 . S
C904 C906 1.353 . S
C904 H910 0.930 . S
N905 Li881 1.990 . S
N905 C904 1.314 . S
N905 C908 1.279 . S
C906 C904 1.353 . S
C906 C909 1.348 . S
C906 H954 0.929 . S
C907 C908 1.358 . S
C907 C909 1.356 . S
C907 H955 0.930 . S
C908 N905 1.279 . S
C908 C907 1.358 . S
C908 H911 0.930 . S
C909 C906 1.348 . S
C909 C907 1.356 . S
H910 C904 0.930 . S
H911 C908 0.930 . S
C912 C914 1.348 1_455 S
C912 C915 1.356 1_455 S
C912 O942 1.325 . S
N913 C916 1.314 . S
N913 C917 1.279 . S
C914 C912 1.348 1_655 S
C914 C916 1.353 . S
C914 H956 0.929 1_655 S
C915 C912 1.356 1_655 S
C915 C917 1.358 . S
C915 H957 0.930 . S
C916 N913 1.314 . S
C916 C914 1.353 . S
C916 H958 0.930 . S
C917 N913 1.279 . S
C917 C915 1.358 . S
C917 H959 0.930 . S
C918 C919 1.348 . S
C918 C920 1.356 . S
C918 O943 1.325 . S
C919 C918 1.348 . S
C919 C921 1.353 . S
C919 H960 0.929 . S
C920 C918 1.356 . S
C920 C922 1.358 . S
C920 H961 0.930 . S
C921 C919 1.353 . S
C921 N923 1.314 . S
C921 H962 0.930 . S
C922 C920 1.358 . S
C922 N923 1.279 . S
C922 H963 0.930 . S
N923 C921 1.314 . S
N923 C922 1.279 . S
C924 C926 1.353 . S
C924 N927 1.314 . S
C924 H930 0.930 . S
C925 N927 1.279 . S
C925 C928 1.359 . S
C925 H931 0.930 . S
C926 C924 1.353 . S
C926 C929 1.348 . S
C926 H964 0.929 . S
N927 Li882 1.990 . S
N927 C924 1.314 . S
N927 C925 1.279 . S
C928 C925 1.359 . S
C928 C929 1.357 . S
C928 H965 0.928 1_455 S
C929 C926 1.348 . S
C929 C928 1.357 . S
H930 C924 0.930 . S
H931 C925 0.930 . S
C932 N933 1.314 . S
C932 C934 1.353 . S
C932 H938 0.930 . S
N933 Li883 1.990 . S
N933 C932 1.314 . S
N933 C936 1.279 . S
C934 C932 1.353 . S
C934 C937 1.348 . S
C934 H966 0.929 . S
C935 C936 1.358 . S
C935 C937 1.356 . S
C935 H967 0.930 . S
C936 N933 1.279 . S
C936 C935 1.358 . S
C936 H939 0.930 . S
C937 C934 1.348 . S
C937 C935 1.356 . S
H938 C932 0.930 . S
H939 C936 0.930 . S
O940 Li880 1.956 . S
O940 Li881 1.970 . S
O940 Li882 1.961 . S
O940 C884 1.325 . S
O941 Li880 1.970 . S
O941 Li881 1.956 . S
O941 Li883 1.961 . S
O941 C890 1.325 . S
O942 Li880 1.961 . S
O942 Li882 1.956 . S
O942 Li883 1.970 . S
O942 C912 1.325 . S
O943 Li881 1.961 . S
O943 Li882 1.970 . S
O943 Li883 1.956 . S
O943 C918 1.325 . S
H944 C886 0.929 . S
H945 C887 0.930 . S
H946 C888 0.930 . S
H947 C889 0.930 . S
H948 C891 0.930 . S
H949 C893 0.929 . S
H950 C894 0.930 . S
H951 C895 0.930 . S
H952 C898 0.930 . S
H953 C901 0.929 1_655 S
H954 C906 0.929 . S
H955 C907 0.930 . S
H956 C914 0.929 1_455 S
H957 C915 0.930 . S
H958 C916 0.930 . S
H959 C917 0.930 . S
H960 C919 0.929 . S
H961 C920 0.930 . S
H962 C921 0.930 . S
H963 C922 0.930 . S
H964 C926 0.929 . S
H965 C928 0.928 1_655 S
H966 C934 0.929 . S
H967 C935 0.930 . S
Li968 N985 1.990 . S
Li968 O1028 1.956 . S
Li968 O1029 1.970 . S
Li968 O1030 1.961 . S
Li969 N993 1.990 . S
Li969 O1028 1.970 . S
Li969 O1029 1.956 . S
Li969 O1031 1.961 . S
Li970 N1015 1.990 . S
Li970 O1028 1.961 . S
Li970 O1030 1.956 . S
Li970 O1031 1.970 . S
Li971 N1021 1.990 . S
Li971 O1029 1.961 . S
Li971 O1030 1.970 . S
Li971 O1031 1.956 . S
C972 C974 1.348 . S
C972 C975 1.356 . S
C972 O1028 1.325 . S
N973 C976 1.314 . S
N973 C977 1.279 . S
C974 C972 1.348 . S
C974 C976 1.353 . S
C974 H1032 0.929 . S
C975 C972 1.356 . S
C975 C977 1.358 . S
C975 H1033 0.930 . S
C976 N973 1.314 . S
C976 C974 1.353 . S
C976 H1034 0.930 . S
C977 N973 1.279 . S
C977 C975 1.358 . S
C977 H1035 0.930 . S
C978 C981 1.348 . S
C978 C982 1.356 . S
C978 O1029 1.325 . S
C979 N980 1.279 . S
C979 C982 1.358 . S
C979 H1036 0.930 . S
N980 C979 1.279 . S
N980 C983 1.314 . S
C981 C978 1.348 . S
C981 C983 1.353 . S
C981 H1037 0.929 . S
C982 C978 1.356 . S
C982 C979 1.358 . S
C982 H1038 0.930 . S
C983 N980 1.314 . S
C983 C981 1.353 . S
C983 H1039 0.930 . S
C984 N985 1.314 . S
C984 C989 1.353 . S
C984 H990 0.930 . S
N985 Li968 1.990 . S
N985 C984 1.314 . S
N985 C987 1.279 . S
C986 C987 1.358 . S
C986 C988 1.356 . S
C986 H1040 0.930 . S
C987 N985 1.279 . S
C987 C986 1.358 . S
C987 H991 0.930 . S
C988 C986 1.356 . S
C988 C989 1.348 . S
C989 C984 1.353 . S
C989 C988 1.348 . S
C989 H1041 0.929 . S
H990 C984 0.930 . S
H991 C987 0.930 . S
C992 N993 1.314 . S
C992 C994 1.353 . S
C992 H998 0.930 . S
N993 Li969 1.990 . S
N993 C992 1.314 . S
N993 C996 1.279 . S
C994 C992 1.353 . S
C994 C997 1.348 . S
C994 H1042 0.929 . S
C995 C996 1.358 . S
C995 C997 1.356 . S
C995 H1043 0.930 . S
C996 N993 1.279 . S
C996 C995 1.358 . S
C996 H999 0.930 . S
C997 C994 1.348 . S
C997 C995 1.356 . S
H998 C992 0.930 . S
H999 C996 0.930 . S
C1000 C1002 1.348 . S
C1000 C1003 1.356 . S
C1000 O1030 1.325 . S
N1001 C1004 1.314 . S
N1001 C1005 1.279 . S
C1002 C1000 1.348 . S
C1002 C1004 1.353 . S
C1002 H1044 0.929 . S
C1003 C1000 1.356 . S
C1003 C1005 1.358 . S
C1003 H1045 0.930 . S
C1004 N1001 1.314 . S
C1004 C1002 1.353 . S
C1004 H1046 0.930 . S
C1005 N1001 1.279 . S
C1005 C1003 1.358 . S
C1005 H1047 0.930 . S
C1006 C1007 1.348 . S
C1006 C1008 1.356 . S
C1006 O1031 1.325 . S
C1007 C1006 1.348 . S
C1007 C1009 1.353 . S
C1007 H1048 0.929 . S
C1008 C1006 1.356 . S
C1008 C1010 1.358 . S
C1008 H1049 0.930 . S
C1009 C1007 1.353 . S
C1009 N1011 1.314 . S
C1009 H1050 0.930 . S
C1010 C1008 1.358 . S
C1010 N1011 1.279 . S
C1010 H1051 0.930 . S
N1011 C1009 1.314 . S
N1011 C1010 1.279 . S
C1012 C1014 1.353 . S
C1012 N1015 1.314 . S
C1012 H1018 0.930 . S
C1013 N1015 1.279 . S
C1013 C1016 1.358 . S
C1013 H1019 0.930 . S
C1014 C1012 1.353 . S
C1014 C1017 1.348 . S
C1014 H1052 0.929 . S
N1015 Li970 1.990 . S
N1015 C1012 1.314 . S
N1015 C1013 1.279 . S
C1016 C1013 1.358 . S
C1016 C1017 1.356 . S
C1016 H1053 0.930 . S
C1017 C1014 1.348 . S
C1017 C1016 1.356 . S
H1018 C1012 0.930 . S
H1019 C1013 0.930 . S
C1020 N1021 1.314 . S
C1020 C1022 1.353 . S
C1020 H1026 0.930 . S
N1021 Li971 1.990 . S
N1021 C1020 1.314 . S
N1021 C1024 1.279 . S
C1022 C1020 1.353 . S
C1022 C1025 1.348 . S
C1022 H1054 0.929 . S
C1023 C1024 1.358 . S
C1023 C1025 1.356 . S
C1023 H1055 0.930 . S
C1024 N1021 1.279 . S
C1024 C1023 1.358 . S
C1024 H1027 0.930 . S
C1025 C1022 1.348 . S
C1025 C1023 1.356 . S
H1026 C1020 0.930 . S
H1027 C1024 0.930 . S
O1028 Li968 1.956 . S
O1028 Li969 1.970 . S
O1028 Li970 1.961 . S
O1028 C972 1.325 . S
O1029 Li968 1.970 . S
O1029 Li969 1.956 . S
O1029 Li971 1.961 . S
O1029 C978 1.325 . S
O1030 Li968 1.961 . S
O1030 Li970 1.956 . S
O1030 Li971 1.970 . S
O1030 C1000 1.325 . S
O1031 Li969 1.961 . S
O1031 Li970 1.970 . S
O1031 Li971 1.956 . S
O1031 C1006 1.325 . S
H1032 C974 0.929 . S
H1033 C975 0.930 . S
H1034 C976 0.930 . S
H1035 C977 0.930 . S
H1036 C979 0.930 . S
H1037 C981 0.929 . S
H1038 C982 0.930 . S
H1039 C983 0.930 . S
H1040 C986 0.930 . S
H1041 C989 0.929 . S
H1042 C994 0.929 . S
H1043 C995 0.930 . S
H1044 C1002 0.929 . S
H1045 C1003 0.930 . S
H1046 C1004 0.930 . S
H1047 C1005 0.930 . S
H1048 C1007 0.929 . S
H1049 C1008 0.930 . S
H1050 C1009 0.930 . S
H1051 C1010 0.930 . S
H1052 C1014 0.929 . S
H1053 C1016 0.930 . S
H1054 C1022 0.929 . S
H1055 C1023 0.930 . S
Li1056 N1073 1.990 . S
Li1056 O1116 1.956 . S
Li1056 O1117 1.970 . S
Li1056 O1118 1.961 . S
Li1057 N1081 1.990 . S
Li1057 O1116 1.970 . S
Li1057 O1117 1.956 . S
Li1057 O1119 1.961 . S
Li1058 N1103 1.990 . S
Li1058 O1116 1.961 . S
Li1058 O1118 1.956 . S
Li1058 O1119 1.970 . S
Li1059 N1109 1.990 . S
Li1059 O1117 1.961 . S
Li1059 O1118 1.970 . S
Li1059 O1119 1.956 . S
C1060 C1062 1.348 . S
C1060 C1063 1.356 . S
C1060 O1116 1.325 . S
N1061 C1064 1.314 . S
N1061 C1065 1.279 . S
C1062 C1060 1.348 . S
C1062 C1064 1.353 . S
C1062 H1120 0.929 . S
C1063 C1060 1.356 . S
C1063 C1065 1.358 . S
C1063 H1121 0.930 . S
C1064 N1061 1.314 . S
C1064 C1062 1.353 . S
C1064 H1122 0.930 . S
C1065 N1061 1.279 . S
C1065 C1063 1.358 . S
C1065 H1123 0.930 . S
C1066 C1069 1.348 . S
C1066 C1070 1.356 . S
C1066 O1117 1.325 . S
C1067 N1068 1.279 . S
C1067 C1070 1.358 . S
C1067 H1124 0.930 . S
N1068 C1067 1.279 . S
N1068 C1071 1.314 . S
C1069 C1066 1.348 . S
C1069 C1071 1.353 . S
C1069 H1125 0.929 . S
C1070 C1066 1.356 . S
C1070 C1067 1.358 . S
C1070 H1126 0.930 . S
C1071 N1068 1.314 . S
C1071 C1069 1.353 . S
C1071 H1127 0.930 . S
C1072 N1073 1.314 . S
C1072 C1077 1.353 . S
C1072 H1078 0.930 . S
N1073 Li1056 1.990 . S
N1073 C1072 1.314 . S
N1073 C1075 1.279 . S
C1074 C1075 1.358 . S
C1074 C1076 1.356 . S
C1074 H1128 0.930 . S
C1075 N1073 1.279 . S
C1075 C1074 1.358 . S
C1075 H1079 0.930 . S
C1076 C1074 1.356 . S
C1076 C1077 1.348 . S
C1077 C1072 1.353 . S
C1077 C1076 1.348 . S
C1077 H1129 0.929 . S
H1078 C1072 0.930 . S
H1079 C1075 0.930 . S
C1080 N1081 1.314 . S
C1080 C1082 1.353 . S
C1080 H1086 0.930 . S
N1081 Li1057 1.990 . S
N1081 C1080 1.314 . S
N1081 C1084 1.279 . S
C1082 C1080 1.353 . S
C1082 C1085 1.348 . S
C1082 H1130 0.929 . S
C1083 C1084 1.358 . S
C1083 C1085 1.356 . S
C1083 H1131 0.930 . S
C1084 N1081 1.279 . S
C1084 C1083 1.358 . S
C1084 H1087 0.930 . S
C1085 C1082 1.348 . S
C1085 C1083 1.356 . S
H1086 C1080 0.930 . S
H1087 C1084 0.930 . S
C1088 C1090 1.348 . S
C1088 C1091 1.356 . S
C1088 O1118 1.325 . S
N1089 C1092 1.314 . S
N1089 C1093 1.279 . S
C1090 C1088 1.348 . S
C1090 C1092 1.353 . S
C1090 H1132 0.929 . S
C1091 C1088 1.356 . S
C1091 C1093 1.358 . S
C1091 H1133 0.930 . S
C1092 N1089 1.314 . S
C1092 C1090 1.353 . S
C1092 H1134 0.930 . S
C1093 N1089 1.279 . S
C1093 C1091 1.358 . S
C1093 H1135 0.930 . S
C1094 C1095 1.348 . S
C1094 C1096 1.356 . S
C1094 O1119 1.325 . S
C1095 C1094 1.348 . S
C1095 C1097 1.353 . S
C1095 H1136 0.929 . S
C1096 C1094 1.356 . S
C1096 C1098 1.358 . S
C1096 H1137 0.930 . S
C1097 C1095 1.353 . S
C1097 N1099 1.314 . S
C1097 H1138 0.930 . S
C1098 C1096 1.358 . S
C1098 N1099 1.279 . S
C1098 H1139 0.930 . S
N1099 C1097 1.314 . S
N1099 C1098 1.279 . S
C1100 C1102 1.353 . S
C1100 N1103 1.314 . S
C1100 H1106 0.930 . S
C1101 N1103 1.279 . S
C1101 C1104 1.358 . S
C1101 H1107 0.930 . S
C1102 C1100 1.353 . S
C1102 C1105 1.348 . S
C1102 H1140 0.929 . S
N1103 Li1058 1.990 . S
N1103 C1100 1.314 . S
N1103 C1101 1.279 . S
C1104 C1101 1.358 . S
C1104 C1105 1.356 . S
C1104 H1141 0.930 . S
C1105 C1102 1.348 . S
C1105 C1104 1.356 . S
H1106 C1100 0.930 . S
H1107 C1101 0.930 . S
C1108 N1109 1.314 . S
C1108 C1110 1.353 . S
C1108 H1114 0.930 . S
N1109 Li1059 1.990 . S
N1109 C1108 1.314 . S
N1109 C1112 1.279 . S
C1110 C1108 1.353 . S
C1110 C1113 1.348 . S
C1110 H1142 0.929 . S
C1111 C1112 1.358 . S
C1111 C1113 1.356 . S
C1111 H1143 0.930 . S
C1112 N1109 1.279 . S
C1112 C1111 1.358 . S
C1112 H1115 0.930 . S
C1113 C1110 1.348 . S
C1113 C1111 1.356 . S
H1114 C1108 0.930 . S
H1115 C1112 0.930 . S
O1116 Li1056 1.956 . S
O1116 Li1057 1.970 . S
O1116 Li1058 1.961 . S
O1116 C1060 1.325 . S
O1117 Li1056 1.970 . S
O1117 Li1057 1.956 . S
O1117 Li1059 1.961 . S
O1117 C1066 1.325 . S
O1118 Li1056 1.961 . S
O1118 Li1058 1.956 . S
O1118 Li1059 1.970 . S
O1118 C1088 1.325 . S
O1119 Li1057 1.961 . S
O1119 Li1058 1.970 . S
O1119 Li1059 1.956 . S
O1119 C1094 1.325 . S
H1120 C1062 0.929 . S
H1121 C1063 0.930 . S
H1122 C1064 0.930 . S
H1123 C1065 0.930 . S
H1124 C1067 0.930 . S
H1125 C1069 0.929 . S
H1126 C1070 0.930 . S
H1127 C1071 0.930 . S
H1128 C1074 0.930 . S
H1129 C1077 0.929 . S
H1130 C1082 0.929 . S
H1131 C1083 0.930 . S
H1132 C1090 0.929 . S
H1133 C1091 0.930 . S
H1134 C1092 0.930 . S
H1135 C1093 0.930 . S
H1136 C1095 0.929 . S
H1137 C1096 0.930 . S
H1138 C1097 0.930 . S
H1139 C1098 0.930 . S
H1140 C1102 0.929 . S
H1141 C1104 0.930 . S
H1142 C1110 0.929 . S
H1143 C1111 0.930 . S
Li1144 N1161 1.990 . S
Li1144 O1204 1.956 . S
Li1144 O1205 1.970 . S
Li1144 O1206 1.961 . S
Li1145 N1169 1.990 . S
Li1145 O1204 1.970 . S
Li1145 O1205 1.956 . S
Li1145 O1207 1.961 . S
Li1146 N1191 1.990 . S
Li1146 O1204 1.961 . S
Li1146 O1206 1.956 . S
Li1146 O1207 1.970 . S
Li1147 N1197 1.990 . S
Li1147 O1205 1.961 . S
Li1147 O1206 1.970 . S
Li1147 O1207 1.956 . S
C1148 C1150 1.348 1_455 S
C1148 C1151 1.356 1_455 S
C1148 O1204 1.325 . S
N1149 C1152 1.314 . S
N1149 C1153 1.279 . S
C1150 C1148 1.348 1_655 S
C1150 C1152 1.353 . S
C1150 H1208 0.929 1_655 S
C1151 C1148 1.356 1_655 S
C1151 C1153 1.358 . S
C1151 H1209 0.930 . S
C1152 N1149 1.314 . S
C1152 C1150 1.353 . S
C1152 H1210 0.930 . S
C1153 N1149 1.279 . S
C1153 C1151 1.358 . S
C1153 H1211 0.930 . S
C1154 C1157 1.348 . S
C1154 C1158 1.356 . S
C1154 O1205 1.325 . S
C1155 N1156 1.279 . S
C1155 C1158 1.358 . S
C1155 H1212 0.930 . S
N1156 C1155 1.279 . S
N1156 C1159 1.314 . S
C1157 C1154 1.348 . S
C1157 C1159 1.353 . S
C1157 H1213 0.929 . S
C1158 C1154 1.356 . S
C1158 C1155 1.358 . S
C1158 H1214 0.930 . S
C1159 N1156 1.314 . S
C1159 C1157 1.353 . S
C1159 H1215 0.930 . S
C1160 N1161 1.314 . S
C1160 C1165 1.353 . S
C1160 H1166 0.930 . S
N1161 Li1144 1.990 . S
N1161 C1160 1.314 . S
N1161 C1163 1.279 . S
C1162 C1163 1.358 1_655 S
C1162 C1164 1.356 1_655 S
C1162 H1216 0.930 . S
C1163 N1161 1.279 . S
C1163 C1162 1.358 1_455 S
C1163 H1167 0.913 1_455 S
C1164 C1162 1.356 1_455 S
C1164 C1165 1.348 . S
C1165 C1160 1.353 . S
C1165 C1164 1.348 . S
C1165 H1217 0.929 . S
H1166 C1160 0.930 . S
H1167 C1163 0.913 1_655 S
C1168 N1169 1.314 . S
C1168 C1170 1.353 . S
C1168 H1174 0.930 . S
N1169 Li1145 1.990 . S
N1169 C1168 1.314 . S
N1169 C1172 1.279 . S
C1170 C1168 1.353 . S
C1170 C1173 1.348 . S
C1170 H1218 0.929 . S
C1171 C1172 1.358 . S
C1171 C1173 1.356 . S
C1171 H1219 0.930 . S
C1172 N1169 1.279 . S
C1172 C1171 1.358 . S
C1172 H1175 0.930 . S
C1173 C1170 1.348 . S
C1173 C1171 1.356 . S
H1174 C1168 0.930 . S
H1175 C1172 0.930 . S
C1176 C1178 1.348 . S
C1176 C1179 1.356 . S
C1176 O1206 1.325 . S
N1177 C1180 1.314 . S
N1177 C1181 1.279 . S
C1178 C1176 1.348 . S
C1178 C1180 1.353 . S
C1178 H1220 0.929 . S
C1179 C1176 1.356 . S
C1179 C1181 1.358 . S
C1179 H1221 0.930 . S
C1180 N1177 1.314 . S
C1180 C1178 1.353 . S
C1180 H1222 0.930 . S
C1181 N1177 1.279 . S
C1181 C1179 1.358 . S
C1181 H1223 0.930 . S
C1182 C1183 1.348 . S
C1182 C1184 1.356 . S
C1182 O1207 1.325 . S
C1183 C1182 1.348 . S
C1183 C1185 1.353 . S
C1183 H1224 0.929 . S
C1184 C1182 1.356 . S
C1184 C1186 1.358 . S
C1184 H1225 0.930 . S
C1185 C1183 1.353 . S
C1185 N1187 1.314 . S
C1185 H1226 0.930 . S
C1186 C1184 1.358 . S
C1186 N1187 1.279 . S
C1186 H1227 0.930 . S
N1187 C1185 1.314 . S
N1187 C1186 1.279 . S
C1188 C1190 1.353 . S
C1188 N1191 1.314 . S
C1188 H1194 0.930 . S
C1189 N1191 1.279 . S
C1189 C1192 1.358 . S
C1189 H1195 0.930 . S
C1190 C1188 1.353 . S
C1190 C1193 1.348 . S
C1190 H1228 0.929 1_455 S
N1191 Li1146 1.990 . S
N1191 C1188 1.314 . S
N1191 C1189 1.279 . S
C1192 C1189 1.358 . S
C1192 C1193 1.356 . S
C1192 H1229 0.930 . S
C1193 C1190 1.348 . S
C1193 C1192 1.356 . S
H1194 C1188 0.930 . S
H1195 C1189 0.930 . S
C1196 N1197 1.314 . S
C1196 C1198 1.353 . S
C1196 H1202 0.930 . S
N1197 Li1147 1.990 . S
N1197 C1196 1.314 . S
N1197 C1200 1.279 . S
C1198 C1196 1.353 . S
C1198 C1201 1.348 . S
C1198 H1230 0.929 . S
C1199 C1200 1.358 . S
C1199 C1201 1.356 . S
C1199 H1231 0.930 . S
C1200 N1197 1.279 . S
C1200 C1199 1.358 . S
C1200 H1203 0.930 . S
C1201 C1198 1.348 . S
C1201 C1199 1.356 . S
H1202 C1196 0.930 . S
H1203 C1200 0.930 . S
O1204 Li1144 1.956 . S
O1204 Li1145 1.970 . S
O1204 Li1146 1.961 . S
O1204 C1148 1.325 . S
O1205 Li1144 1.970 . S
O1205 Li1145 1.956 . S
O1205 Li1147 1.961 . S
O1205 C1154 1.325 . S
O1206 Li1144 1.961 . S
O1206 Li1146 1.956 . S
O1206 Li1147 1.970 . S
O1206 C1176 1.325 . S
O1207 Li1145 1.961 . S
O1207 Li1146 1.970 . S
O1207 Li1147 1.956 . S
O1207 C1182 1.325 . S
H1208 C1150 0.929 1_455 S
H1209 C1151 0.930 . S
H1210 C1152 0.930 . S
H1211 C1153 0.930 . S
H1212 C1155 0.930 . S
H1213 C1157 0.929 . S
H1214 C1158 0.930 . S
H1215 C1159 0.930 . S
H1216 C1162 0.930 . S
H1217 C1165 0.929 . S
H1218 C1170 0.929 . S
H1219 C1171 0.930 . S
H1220 C1178 0.929 . S
H1221 C1179 0.930 . S
H1222 C1180 0.930 . S
H1223 C1181 0.930 . S
H1224 C1183 0.929 . S
H1225 C1184 0.930 . S
H1226 C1185 0.930 . S
H1227 C1186 0.930 . S
H1228 C1190 0.929 1_655 S
H1229 C1192 0.930 . S
H1230 C1198 0.929 . S
H1231 C1199 0.930 . S
Li1232 N1249 1.990 . S
Li1232 O1292 1.956 . S
Li1232 O1293 1.970 . S
Li1232 O1294 1.961 . S
Li1233 N1257 1.990 . S
Li1233 O1292 1.970 . S
Li1233 O1293 1.956 . S
Li1233 O1295 1.961 . S
Li1234 N1279 1.990 . S
Li1234 O1292 1.961 . S
Li1234 O1294 1.956 . S
Li1234 O1295 1.970 . S
Li1235 N1285 1.990 . S
Li1235 O1293 1.961 . S
Li1235 O1294 1.970 . S
Li1235 O1295 1.956 . S
C1236 C1238 1.348 . S
C1236 C1239 1.356 . S
C1236 O1292 1.325 . S
N1237 C1240 1.314 . S
N1237 C1241 1.279 . S
C1238 C1236 1.348 . S
C1238 C1240 1.353 . S
C1238 H1296 0.929 . S
C1239 C1236 1.356 . S
C1239 C1241 1.358 . S
C1239 H1297 0.930 . S
C1240 N1237 1.314 . S
C1240 C1238 1.353 . S
C1240 H1298 0.930 . S
C1241 N1237 1.279 . S
C1241 C1239 1.358 . S
C1241 H1299 0.930 . S
C1242 C1245 1.348 . S
C1242 C1246 1.356 . S
C1242 O1293 1.325 . S
C1243 N1244 1.279 . S
C1243 C1246 1.358 . S
C1243 H1300 0.930 . S
N1244 C1243 1.279 . S
N1244 C1247 1.314 . S
C1245 C1242 1.348 . S
C1245 C1247 1.353 . S
C1245 H1301 0.929 . S
C1246 C1242 1.356 . S
C1246 C1243 1.358 . S
C1246 H1302 0.930 . S
C1247 N1244 1.314 . S
C1247 C1245 1.353 . S
C1247 H1303 0.930 . S
C1248 N1249 1.314 . S
C1248 C1253 1.353 . S
C1248 H1254 0.930 . S
N1249 Li1232 1.990 . S
N1249 C1248 1.314 . S
N1249 C1251 1.279 . S
C1250 C1251 1.358 . S
C1250 C1252 1.356 . S
C1250 H1304 0.930 . S
C1251 N1249 1.279 . S
C1251 C1250 1.358 . S
C1251 H1255 0.930 . S
C1252 C1250 1.356 . S
C1252 C1253 1.348 . S
C1253 C1248 1.353 . S
C1253 C1252 1.348 . S
C1253 H1305 0.929 . S
H1254 C1248 0.930 . S
H1255 C1251 0.930 . S
C1256 N1257 1.314 . S
C1256 C1258 1.353 . S
C1256 H1262 0.930 . S
N1257 Li1233 1.990 . S
N1257 C1256 1.314 . S
N1257 C1260 1.279 . S
C1258 C1256 1.353 . S
C1258 C1261 1.348 . S
C1258 H1306 0.929 1_655 S
C1259 C1260 1.358 . S
C1259 C1261 1.356 . S
C1259 H1307 0.930 . S
C1260 N1257 1.279 . S
C1260 C1259 1.358 . S
C1260 H1263 0.930 . S
C1261 C1258 1.348 . S
C1261 C1259 1.356 . S
H1262 C1256 0.930 . S
H1263 C1260 0.930 . S
C1264 C1266 1.348 . S
C1264 C1267 1.356 . S
C1264 O1294 1.325 . S
N1265 C1268 1.314 . S
N1265 C1269 1.279 . S
C1266 C1264 1.348 . S
C1266 C1268 1.353 . S
C1266 H1308 0.929 . S
C1267 C1264 1.356 . S
C1267 C1269 1.358 . S
C1267 H1309 0.930 . S
C1268 N1265 1.314 . S
C1268 C1266 1.353 . S
C1268 H1310 0.930 . S
C1269 N1265 1.279 . S
C1269 C1267 1.358 . S
C1269 H1311 0.930 . S
C1270 C1271 1.348 1_655 S
C1270 C1272 1.356 1_655 S
C1270 O1295 1.325 . S
C1271 C1270 1.348 1_455 S
C1271 C1273 1.353 . S
C1271 H1312 0.929 1_455 S
C1272 C1270 1.356 1_455 S
C1272 C1274 1.358 . S
C1272 H1313 0.930 . S
C1273 C1271 1.353 . S
C1273 N1275 1.314 . S
C1273 H1314 0.930 . S
C1274 C1272 1.358 . S
C1274 N1275 1.279 . S
C1274 H1315 0.930 . S
N1275 C1273 1.314 . S
N1275 C1274 1.279 . S
C1276 C1278 1.353 . S
C1276 N1279 1.314 . S
C1276 H1282 0.930 . S
C1277 N1279 1.279 . S
C1277 C1280 1.358 . S
C1277 H1283 0.930 . S
C1278 C1276 1.353 . S
C1278 C1281 1.348 . S
C1278 H1316 0.929 . S
N1279 Li1234 1.990 . S
N1279 C1276 1.314 . S
N1279 C1277 1.279 . S
C1280 C1277 1.358 . S
C1280 C1281 1.356 . S
C1280 H1317 0.930 . S
C1281 C1278 1.348 . S
C1281 C1280 1.356 . S
H1282 C1276 0.930 . S
H1283 C1277 0.930 . S
C1284 N1285 1.314 . S
C1284 C1286 1.353 . S
C1284 H1290 0.930 . S
N1285 Li1235 1.990 . S
N1285 C1284 1.314 . S
N1285 C1288 1.279 . S
C1286 C1284 1.353 . S
C1286 C1289 1.348 . S
C1286 H1318 0.929 . S
C1287 C1288 1.358 1_455 S
C1287 C1289 1.356 1_455 S
C1287 H1319 0.930 . S
C1288 N1285 1.279 . S
C1288 C1287 1.358 1_655 S
C1288 H1291 0.913 1_655 S
C1289 C1286 1.348 . S
C1289 C1287 1.356 1_655 S
H1290 C1284 0.930 . S
H1291 C1288 0.913 1_455 S
O1292 Li1232 1.956 . S
O1292 Li1233 1.970 . S
O1292 Li1234 1.961 . S
O1292 C1236 1.325 . S
O1293 Li1232 1.970 . S
O1293 Li1233 1.956 . S
O1293 Li1235 1.961 . S
O1293 C1242 1.325 . S
O1294 Li1232 1.961 . S
O1294 Li1234 1.956 . S
O1294 Li1235 1.970 . S
O1294 C1264 1.325 . S
O1295 Li1233 1.961 . S
O1295 Li1234 1.970 . S
O1295 Li1235 1.956 . S
O1295 C1270 1.325 . S
H1296 C1238 0.929 . S
H1297 C1239 0.930 . S
H1298 C1240 0.930 . S
H1299 C1241 0.930 . S
H1300 C1243 0.930 . S
H1301 C1245 0.929 . S
H1302 C1246 0.930 . S
H1303 C1247 0.930 . S
H1304 C1250 0.930 . S
H1305 C1253 0.929 . S
H1306 C1258 0.929 1_455 S
H1307 C1259 0.930 . S
H1308 C1266 0.929 . S
H1309 C1267 0.930 . S
H1310 C1268 0.930 . S
H1311 C1269 0.930 . S
H1312 C1271 0.929 1_655 S
H1313 C1272 0.930 . S
H1314 C1273 0.930 . S
H1315 C1274 0.930 . S
H1316 C1278 0.929 . S
H1317 C1280 0.930 . S
H1318 C1286 0.929 . S
H1319 C1287 0.930 . S
Li1320 N1337 1.990 . S
Li1320 O1380 1.956 . S
Li1320 O1381 1.970 . S
Li1320 O1382 1.961 . S
Li1321 N1345 1.990 . S
Li1321 O1380 1.970 . S
Li1321 O1381 1.956 . S
Li1321 O1383 1.961 . S
Li1322 N1367 1.990 . S
Li1322 O1380 1.961 . S
Li1322 O1382 1.956 . S
Li1322 O1383 1.970 . S
Li1323 N1373 1.990 . S
Li1323 O1381 1.961 . S
Li1323 O1382 1.970 . S
Li1323 O1383 1.956 . S
C1324 C1326 1.348 . S
C1324 C1327 1.356 . S
C1324 O1380 1.325 . S
N1325 C1328 1.314 . S
N1325 C1329 1.279 . S
C1326 C1324 1.348 . S
C1326 C1328 1.353 . S
C1326 H1384 0.929 . S
C1327 C1324 1.356 . S
C1327 C1329 1.358 . S
C1327 H1385 0.930 . S
C1328 N1325 1.314 . S
C1328 C1326 1.353 . S
C1328 H1386 0.930 . S
C1329 N1325 1.279 . S
C1329 C1327 1.358 . S
C1329 H1387 0.930 . S
C1330 C1333 1.348 . S
C1330 C1334 1.356 . S
C1330 O1381 1.325 . S
C1331 N1332 1.279 . S
C1331 C1334 1.358 . S
C1331 H1388 0.930 . S
N1332 C1331 1.279 . S
N1332 C1335 1.314 . S
C1333 C1330 1.348 . S
C1333 C1335 1.353 . S
C1333 H1389 0.929 . S
C1334 C1330 1.356 . S
C1334 C1331 1.358 . S
C1334 H1390 0.930 . S
C1335 N1332 1.314 . S
C1335 C1333 1.353 . S
C1335 H1391 0.930 . S
C1336 N1337 1.314 . S
C1336 C1341 1.353 . S
C1336 H1342 0.930 . S
N1337 Li1320 1.990 . S
N1337 C1336 1.314 . S
N1337 C1339 1.279 . S
C1338 C1339 1.358 . S
C1338 C1340 1.356 . S
C1338 H1392 0.930 . S
C1339 N1337 1.279 . S
C1339 C1338 1.358 . S
C1339 H1343 0.930 . S
C1340 C1338 1.356 . S
C1340 C1341 1.348 . S
C1341 C1336 1.353 . S
C1341 C1340 1.348 . S
C1341 H1393 0.929 . S
H1342 C1336 0.930 . S
H1343 C1339 0.930 . S
C1344 N1345 1.314 . S
C1344 C1346 1.353 . S
C1344 H1350 0.930 . S
N1345 Li1321 1.990 . S
N1345 C1344 1.314 . S
N1345 C1348 1.279 . S
C1346 C1344 1.353 . S
C1346 C1349 1.348 . S
C1346 H1394 0.929 . S
C1347 C1348 1.358 . S
C1347 C1349 1.356 . S
C1347 H1395 0.930 . S
C1348 N1345 1.279 . S
C1348 C1347 1.358 . S
C1348 H1351 0.930 . S
C1349 C1346 1.348 . S
C1349 C1347 1.356 . S
H1350 C1344 0.930 . S
H1351 C1348 0.930 . S
C1352 C1354 1.348 . S
C1352 C1355 1.356 . S
C1352 O1382 1.325 . S
N1353 C1356 1.314 . S
N1353 C1357 1.279 . S
C1354 C1352 1.348 . S
C1354 C1356 1.353 . S
C1354 H1396 0.929 . S
C1355 C1352 1.356 . S
C1355 C1357 1.358 . S
C1355 H1397 0.930 . S
C1356 N1353 1.314 . S
C1356 C1354 1.353 . S
C1356 H1398 0.930 . S
C1357 N1353 1.279 . S
C1357 C1355 1.358 . S
C1357 H1399 0.930 . S
C1358 C1359 1.348 . S
C1358 C1360 1.356 . S
C1358 O1383 1.325 . S
C1359 C1358 1.348 . S
C1359 C1361 1.353 . S
C1359 H1400 0.929 . S
C1360 C1358 1.356 . S
C1360 C1362 1.358 . S
C1360 H1401 0.930 . S
C1361 C1359 1.353 . S
C1361 N1363 1.314 . S
C1361 H1402 0.930 . S
C1362 C1360 1.358 . S
C1362 N1363 1.279 . S
C1362 H1403 0.930 . S
N1363 C1361 1.314 . S
N1363 C1362 1.279 . S
C1364 C1366 1.353 . S
C1364 N1367 1.314 . S
C1364 H1370 0.930 . S
C1365 N1367 1.279 . S
C1365 C1368 1.358 . S
C1365 H1371 0.930 . S
C1366 C1364 1.353 . S
C1366 C1369 1.348 . S
C1366 H1404 0.929 . S
N1367 Li1322 1.990 . S
N1367 C1364 1.314 . S
N1367 C1365 1.279 . S
C1368 C1365 1.358 . S
C1368 C1369 1.356 . S
C1368 H1405 0.930 . S
C1369 C1366 1.348 . S
C1369 C1368 1.356 . S
H1370 C1364 0.930 . S
H1371 C1365 0.930 . S
C1372 N1373 1.314 . S
C1372 C1374 1.353 . S
C1372 H1378 0.930 . S
N1373 Li1323 1.990 . S
N1373 C1372 1.314 . S
N1373 C1376 1.279 . S
C1374 C1372 1.353 . S
C1374 C1377 1.348 . S
C1374 H1406 0.929 . S
C1375 C1376 1.358 . S
C1375 C1377 1.356 . S
C1375 H1407 0.930 . S
C1376 N1373 1.279 . S
C1376 C1375 1.358 . S
C1376 H1379 0.930 . S
C1377 C1374 1.348 . S
C1377 C1375 1.356 . S
H1378 C1372 0.930 . S
H1379 C1376 0.930 . S
O1380 Li1320 1.956 . S
O1380 Li1321 1.970 . S
O1380 Li1322 1.961 . S
O1380 C1324 1.325 . S
O1381 Li1320 1.970 . S
O1381 Li1321 1.956 . S
O1381 Li1323 1.961 . S
O1381 C1330 1.325 . S
O1382 Li1320 1.961 . S
O1382 Li1322 1.956 . S
O1382 Li1323 1.970 . S
O1382 C1352 1.325 . S
O1383 Li1321 1.961 . S
O1383 Li1322 1.970 . S
O1383 Li1323 1.956 . S
O1383 C1358 1.325 . S
H1384 C1326 0.929 . S
H1385 C1327 0.930 . S
H1386 C1328 0.930 . S
H1387 C1329 0.930 . S
H1388 C1331 0.930 . S
H1389 C1333 0.929 . S
H1390 C1334 0.930 . S
H1391 C1335 0.930 . S
H1392 C1338 0.930 . S
H1393 C1341 0.929 . S
H1394 C1346 0.929 . S
H1395 C1347 0.930 . S
H1396 C1354 0.929 . S
H1397 C1355 0.930 . S
H1398 C1356 0.930 . S
H1399 C1357 0.930 . S
H1400 C1359 0.929 . S
H1401 C1360 0.930 . S
H1402 C1361 0.930 . S
H1403 C1362 0.930 . S
H1404 C1366 0.929 . S
H1405 C1368 0.930 . S
H1406 C1374 0.929 . S
H1407 C1375 0.930 . S
H1408 C1420 0.930 . S
H1409 C1422 0.930 . S
H1410 C1423 0.930 . S
H1411 C1427 0.959 . S
H1412 C1427 0.959 . S
H1413 C1427 0.961 . S
H1414 C1428 0.960 . S
H1415 C1428 0.961 . S
H1416 C1428 0.959 . S
H1417 C1431 0.929 . S
H1418 C1432 0.931 . S
H1419 C1434 0.930 . S
C1420 H1408 0.930 . S
C1420 C1421 1.399 . S
C1420 C1425 1.399 . S
C1421 C1420 1.399 . S
C1421 C1422 1.376 . S
C1422 H1409 0.930 . S
C1422 C1421 1.376 . S
C1422 C1423 1.388 . S
C1423 H1410 0.930 . S
C1423 C1422 1.388 . S
C1423 C1424 1.390 . S
C1424 C1423 1.390 . S
C1424 C1425 1.394 . S
C1424 C1430 1.465 . S
C1425 C1420 1.399 . S
C1425 C1424 1.394 . S
C1425 C1426 1.516 1_565 S
C1426 C1425 1.516 1_545 S
C1426 C1427 1.502 . S
C1426 C1428 1.561 1_545 S
C1426 C1429 1.526 . S
C1427 H1411 0.959 . S
C1427 H1412 0.959 . S
C1427 H1413 0.961 . S
C1427 C1426 1.502 . S
C1428 H1414 0.960 . S
C1428 H1415 0.961 . S
C1428 H1416 0.959 . S
C1428 C1426 1.561 1_565 S
C1429 C1426 1.526 . S
C1429 C1430 1.396 1_545 S
C1429 C1434 1.390 . S
C1430 C1424 1.465 . S
C1430 C1429 1.396 1_565 S
C1430 C1431 1.399 . S
C1431 H1417 0.929 . S
C1431 C1430 1.399 . S
C1431 C1432 1.385 1_565 S
C1432 H1418 0.931 . S
C1432 C1431 1.385 1_545 S
C1432 C1433 1.389 . S
C1433 C1432 1.389 . S
C1433 C1434 1.387 . S
C1434 H1419 0.930 . S
C1434 C1429 1.390 . S
C1434 C1433 1.387 . S
H1435 C1447 0.930 . S
H1436 C1449 0.930 . S
H1437 C1450 0.930 . S
H1438 C1454 0.959 . S
H1439 C1454 0.959 . S
H1440 C1454 0.961 . S
H1441 C1455 0.960 . S
H1442 C1455 0.961 . S
H1443 C1455 0.959 . S
H1444 C1458 0.929 . S
H1445 C1459 0.931 . S
H1446 C1461 0.930 . S
C1447 H1435 0.930 . S
C1447 C1448 1.399 . S
C1447 C1452 1.399 . S
C1448 C1447 1.399 . S
C1448 C1449 1.376 . S
C1449 H1436 0.930 . S
C1449 C1448 1.376 . S
C1449 C1450 1.388 . S
C1450 H1437 0.930 . S
C1450 C1449 1.388 . S
C1450 C1451 1.390 . S
C1451 C1450 1.390 . S
C1451 C1452 1.394 . S
C1451 C1457 1.465 1_565 S
C1452 C1447 1.399 . S
C1452 C1451 1.394 . S
C1452 C1453 1.516 1_565 S
C1453 C1452 1.516 1_545 S
C1453 C1454 1.502 1_545 S
C1453 C1455 1.561 . S
C1453 C1456 1.526 . S
C1454 H1438 0.959 . S
C1454 H1439 0.959 . S
C1454 H1440 0.961 . S
C1454 C1453 1.502 1_565 S
C1455 H1441 0.960 . S
C1455 H1442 0.961 . S
C1455 H1443 0.959 . S
C1455 C1453 1.561 . S
C1456 C1453 1.526 . S
C1456 C1457 1.396 . S
C1456 C1461 1.390 . S
C1457 C1451 1.465 1_545 S
C1457 C1456 1.396 . S
C1457 C1458 1.399 . S
C1458 H1444 0.929 . S
C1458 C1457 1.399 . S
C1458 C1459 1.385 . S
C1459 H1445 0.931 . S
C1459 C1458 1.385 . S
C1459 C1460 1.389 . S
C1460 C1459 1.389 . S
C1460 C1461 1.387 . S
C1461 H1446 0.930 . S
C1461 C1456 1.390 . S
C1461 C1460 1.387 . S
H1462 C1474 0.930 . S
H1463 C1476 0.930 . S
H1464 C1477 0.930 . S
H1465 C1481 0.959 1_545 S
H1466 C1481 0.959 . S
H1467 C1481 0.961 . S
H1468 C1482 0.960 . S
H1469 C1482 0.961 . S
H1470 C1482 0.959 . S
H1471 C1485 0.929 . S
H1472 C1486 0.931 . S
H1473 C1488 0.928 1_565 S
C1474 H1462 0.930 . S
C1474 C1475 1.399 . S
C1474 C1479 1.399 . S
C1475 C1474 1.399 . S
C1475 C1476 1.376 . S
C1476 H1463 0.930 . S
C1476 C1475 1.376 . S
C1476 C1477 1.388 1_565 S
C1477 H1464 0.930 . S
C1477 C1476 1.388 1_545 S
C1477 C1478 1.391 1_545 S
C1478 C1477 1.391 1_565 S
C1478 C1479 1.391 . S
C1478 C1484 1.467 1_565 S
C1479 C1474 1.399 . S
C1479 C1478 1.391 . S
C1479 C1480 1.516 . S
C1480 C1479 1.516 . S
C1480 C1481 1.502 . S
C1480 C1482 1.561 . S
C1480 C1483 1.530 . S
C1481 H1465 0.959 1_565 S
C1481 H1466 0.959 . S
C1481 H1467 0.961 . S
C1481 C1480 1.502 . S
C1482 H1468 0.960 . S
C1482 H1469 0.961 . S
C1482 H1470 0.959 . S
C1482 C1480 1.561 . S
C1483 C1480 1.530 . S
C1483 C1484 1.394 1_565 S
C1483 C1488 1.388 1_565 S
C1484 C1478 1.467 1_545 S
C1484 C1483 1.394 1_545 S
C1484 C1485 1.399 . S
C1485 H1471 0.929 . S
C1485 C1484 1.399 . S
C1485 C1486 1.385 . S
C1486 H1472 0.931 . S
C1486 C1485 1.385 . S
C1486 C1487 1.389 . S
C1487 C1486 1.389 . S
C1487 C1488 1.387 . S
C1488 H1473 0.928 1_545 S
C1488 C1483 1.388 1_545 S
C1488 C1487 1.387 . S
H1489 C1501 0.930 . S
H1490 C1503 0.930 . S
H1491 C1504 0.930 . S
H1492 C1508 0.959 . S
H1493 C1508 0.959 . S
H1494 C1508 0.961 . S
H1495 C1509 0.960 . S
H1496 C1509 0.961 . S
H1497 C1509 0.959 . S
H1498 C1512 0.929 . S
H1499 C1513 0.931 . S
H1500 C1515 0.930 . S
C1501 H1489 0.930 . S
C1501 C1502 1.399 . S
C1501 C1506 1.399 . S
C1502 C1501 1.399 . S
C1502 C1503 1.376 . S
C1503 H1490 0.930 . S
C1503 C1502 1.376 . S
C1503 C1504 1.388 1_565 S
C1504 H1491 0.930 . S
C1504 C1503 1.388 1_545 S
C1504 C1505 1.390 . S
C1505 C1504 1.390 . S
C1505 C1506 1.394 1_545 S
C1505 C1511 1.465 . S
C1506 C1501 1.399 . S
C1506 C1505 1.394 1_565 S
C1506 C1507 1.516 . S
C1507 C1506 1.516 . S
C1507 C1508 1.502 . S
C1507 C1509 1.561 1_565 S
C1507 C1510 1.526 1_565 S
C1508 H1492 0.959 . S
C1508 H1493 0.959 . S
C1508 H1494 0.961 . S
C1508 C1507 1.502 . S
C1509 H1495 0.960 . S
C1509 H1496 0.961 . S
C1509 H1497 0.959 . S
C1509 C1507 1.561 1_545 S
C1510 C1507 1.526 1_545 S
C1510 C1511 1.396 . S
C1510 C1515 1.390 . S
C1511 C1505 1.465 . S
C1511 C1510 1.396 . S
C1511 C1512 1.399 . S
C1512 H1498 0.929 . S
C1512 C1511 1.399 . S
C1512 C1513 1.385 . S
C1513 H1499 0.931 . S
C1513 C1512 1.385 . S
C1513 C1514 1.389 . S
C1514 C1513 1.389 . S
C1514 C1515 1.387 . S
C1515 H1500 0.930 . S
C1515 C1510 1.390 . S
C1515 C1514 1.387 . S
H1516 C1528 0.930 . S
H1517 C1530 0.930 . S
H1518 C1531 0.930 . S
H1519 C1535 0.959 . S
H1520 C1535 0.959 . S
H1521 C1535 0.961 . S
H1522 C1536 0.960 . S
H1523 C1536 0.961 . S
H1524 C1536 0.959 . S
H1525 C1539 0.929 . S
H1526 C1540 0.931 . S
H1527 C1542 0.930 . S
C1528 H1516 0.930 . S
C1528 C1529 1.399 . S
C1528 C1533 1.399 . S
C1529 C1528 1.399 . S
C1529 C1530 1.376 . S
C1530 H1517 0.930 . S
C1530 C1529 1.376 . S
C1530 C1531 1.388 . S
C1531 H1518 0.930 . S
C1531 C1530 1.388 . S
C1531 C1532 1.390 . S
C1532 C1531 1.390 . S
C1532 C1533 1.394 . S
C1532 C1538 1.465 . S
C1533 C1528 1.399 . S
C1533 C1532 1.394 . S
C1533 C1534 1.516 . S
C1534 C1533 1.516 . S
C1534 C1535 1.502 . S
C1534 C1536 1.561 . S
C1534 C1537 1.526 . S
C1535 H1519 0.959 . S
C1535 H1520 0.959 . S
C1535 H1521 0.961 . S
C1535 C1534 1.502 . S
C1536 H1522 0.960 . S
C1536 H1523 0.961 . S
C1536 H1524 0.959 . S
C1536 C1534 1.561 . S
C1537 C1534 1.526 . S
C1537 C1538 1.396 . S
C1537 C1542 1.390 . S
C1538 C1532 1.465 . S
C1538 C1537 1.396 . S
C1538 C1539 1.399 . S
C1539 H1525 0.929 . S
C1539 C1538 1.399 . S
C1539 C1540 1.385 . S
C1540 H1526 0.931 . S
C1540 C1539 1.385 . S
C1540 C1541 1.389 . S
C1541 C1540 1.389 . S
C1541 C1542 1.387 . S
C1542 H1527 0.930 . S
C1542 C1537 1.390 . S
C1542 C1541 1.387 . S
H1543 C1555 0.930 . S
H1544 C1557 0.930 . S
H1545 C1558 0.930 . S
H1546 C1562 0.959 . S
H1547 C1562 0.959 . S
H1548 C1562 0.961 . S
H1549 C1563 0.960 . S
H1550 C1563 0.961 . S
H1551 C1563 0.959 . S
H1552 C1566 0.929 . S
H1553 C1567 0.931 . S
H1554 C1569 0.930 . S
C1555 H1543 0.930 . S
C1555 C1556 1.399 . S
C1555 C1560 1.399 . S
C1556 C1555 1.399 . S
C1556 C1557 1.376 . S
C1557 H1544 0.930 . S
C1557 C1556 1.376 . S
C1557 C1558 1.388 . S
C1558 H1545 0.930 . S
C1558 C1557 1.388 . S
C1558 C1559 1.390 . S
C1559 C1558 1.390 . S
C1559 C1560 1.394 . S
C1559 C1565 1.465 . S
C1560 C1555 1.399 . S
C1560 C1559 1.394 . S
C1560 C1561 1.516 . S
C1561 C1560 1.516 . S
C1561 C1562 1.502 . S
C1561 C1563 1.561 . S
C1561 C1564 1.526 . S
C1562 H1546 0.959 . S
C1562 H1547 0.959 . S
C1562 H1548 0.961 . S
C1562 C1561 1.502 . S
C1563 H1549 0.960 . S
C1563 H1550 0.961 . S
C1563 H1551 0.959 . S
C1563 C1561 1.561 . S
C1564 C1561 1.526 . S
C1564 C1565 1.396 . S
C1564 C1569 1.390 . S
C1565 C1559 1.465 . S
C1565 C1564 1.396 . S
C1565 C1566 1.399 . S
C1566 H1552 0.929 . S
C1566 C1565 1.399 . S
C1566 C1567 1.385 . S
C1567 H1553 0.931 . S
C1567 C1566 1.385 . S
C1567 C1568 1.389 . S
C1568 C1567 1.389 . S
C1568 C1569 1.387 . S
C1569 H1554 0.930 . S
C1569 C1564 1.390 . S
C1569 C1568 1.387 . S
H1570 C1582 0.930 . S
H1571 C1584 0.930 . S
H1572 C1585 0.930 . S
H1573 C1589 0.959 . S
H1574 C1589 0.959 . S
H1575 C1589 0.961 . S
H1576 C1590 0.960 . S
H1577 C1590 0.961 . S
H1578 C1590 0.959 . S
H1579 C1593 0.929 . S
H1580 C1594 0.931 . S
H1581 C1596 0.930 . S
C1582 H1570 0.930 . S
C1582 C1583 1.399 . S
C1582 C1587 1.399 . S
C1583 C1582 1.399 . S
C1583 C1584 1.376 . S
C1584 H1571 0.930 . S
C1584 C1583 1.376 . S
C1584 C1585 1.388 . S
C1585 H1572 0.930 . S
C1585 C1584 1.388 . S
C1585 C1586 1.390 . S
C1586 C1585 1.390 . S
C1586 C1587 1.394 . S
C1586 C1592 1.465 . S
C1587 C1582 1.399 . S
C1587 C1586 1.394 . S
C1587 C1588 1.516 . S
C1588 C1587 1.516 . S
C1588 C1589 1.502 . S
C1588 C1590 1.561 . S
C1588 C1591 1.526 . S
C1589 H1573 0.959 . S
C1589 H1574 0.959 . S
C1589 H1575 0.961 . S
C1589 C1588 1.502 . S
C1590 H1576 0.960 . S
C1590 H1577 0.961 . S
C1590 H1578 0.959 . S
C1590 C1588 1.561 . S
C1591 C1588 1.526 . S
C1591 C1592 1.396 . S
C1591 C1596 1.390 . S
C1592 C1586 1.465 . S
C1592 C1591 1.396 . S
C1592 C1593 1.399 . S
C1593 H1579 0.929 . S
C1593 C1592 1.399 . S
C1593 C1594 1.385 . S
C1594 H1580 0.931 . S
C1594 C1593 1.385 . S
C1594 C1595 1.389 . S
C1595 C1594 1.389 . S
C1595 C1596 1.387 . S
C1596 H1581 0.930 . S
C1596 C1591 1.390 . S
C1596 C1595 1.387 . S
H1597 C1609 0.930 . S
H1598 C1611 0.930 . S
H1599 C1612 0.930 . S
H1600 C1616 0.959 . S
H1601 C1616 0.959 . S
H1602 C1616 0.961 . S
H1603 C1617 0.960 . S
H1604 C1617 0.961 . S
H1605 C1617 0.959 . S
H1606 C1620 0.929 . S
H1607 C1621 0.931 . S
H1608 C1623 0.930 . S
C1609 H1597 0.930 . S
C1609 C1610 1.399 . S
C1609 C1614 1.399 . S
C1610 C1609 1.399 . S
C1610 C1611 1.376 . S
C1611 H1598 0.930 . S
C1611 C1610 1.376 . S
C1611 C1612 1.388 . S
C1612 H1599 0.930 . S
C1612 C1611 1.388 . S
C1612 C1613 1.390 . S
C1613 C1612 1.390 . S
C1613 C1614 1.394 . S
C1613 C1619 1.465 . S
C1614 C1609 1.399 . S
C1614 C1613 1.394 . S
C1614 C1615 1.516 . S
C1615 C1614 1.516 . S
C1615 C1616 1.502 . S
C1615 C1617 1.561 . S
C1615 C1618 1.526 . S
C1616 H1600 0.959 . S
C1616 H1601 0.959 . S
C1616 H1602 0.961 . S
C1616 C1615 1.502 . S
C1617 H1603 0.960 . S
C1617 H1604 0.961 . S
C1617 H1605 0.959 . S
C1617 C1615 1.561 . S
C1618 C1615 1.526 . S
C1618 C1619 1.396 . S
C1618 C1623 1.390 . S
C1619 C1613 1.465 . S
C1619 C1618 1.396 . S
C1619 C1620 1.399 . S
C1620 H1606 0.929 . S
C1620 C1619 1.399 . S
C1620 C1621 1.385 . S
C1621 H1607 0.931 . S
C1621 C1620 1.385 . S
C1621 C1622 1.389 . S
C1622 C1621 1.389 . S
C1622 C1623 1.387 . S
C1623 H1608 0.930 . S
C1623 C1618 1.390 . S
C1623 C1622 1.387 . S
H1624 C1636 0.933 . S
H1625 C1638 0.930 . S
H1626 C1639 0.930 . S
H1627 C1643 0.959 . S
H1628 C1643 0.959 . S
H1629 C1643 0.961 . S
H1630 C1644 0.960 . S
H1631 C1644 0.961 . S
H1632 C1644 0.959 . S
H1633 C1647 0.929 . S
H1634 C1648 0.931 . S
H1635 C1650 0.924 1_565 S
C1636 H1624 0.933 . S
C1636 C1637 1.399 1_455 S
C1636 C1641 1.399 . S
C1637 C1636 1.399 1_655 S
C1637 C1638 1.376 . S
C1638 H1625 0.930 . S
C1638 C1637 1.376 . S
C1638 C1639 1.388 . S
C1639 H1626 0.930 . S
C1639 C1638 1.388 . S
C1639 C1640 1.390 . S
C1640 C1639 1.390 . S
C1640 C1641 1.394 1_655 S
C1640 C1646 1.465 . S
C1641 C1636 1.399 . S
C1641 C1640 1.394 1_455 S
C1641 C1642 1.516 1_545 S
C1642 C1641 1.516 1_565 S
C1642 C1643 1.502 1_565 S
C1642 C1644 1.561 . S
C1642 C1645 1.526 1_565 S
C1643 H1627 0.959 . S
C1643 H1628 0.959 . S
C1643 H1629 0.961 . S
C1643 C1642 1.502 1_545 S
C1644 H1630 0.960 . S
C1644 H1631 0.961 . S
C1644 H1632 0.959 . S
C1644 C1642 1.561 . S
C1645 C1642 1.526 1_545 S
C1645 C1646 1.396 1_455 S
C1645 C1650 1.390 . S
C1646 C1640 1.465 . S
C1646 C1645 1.396 1_655 S
C1646 C1647 1.399 . S
C1647 H1633 0.929 . S
C1647 C1646 1.399 . S
C1647 C1648 1.385 . S
C1648 H1634 0.931 . S
C1648 C1647 1.385 . S
C1648 C1649 1.389 1_655 S
C1649 C1648 1.389 1_455 S
C1649 C1650 1.387 . S
C1650 H1635 0.924 1_545 S
C1650 C1645 1.390 . S
C1650 C1649 1.387 . S
H1651 C1663 0.930 . S
H1652 C1665 0.930 . S
H1653 C1666 0.930 . S
H1654 C1670 0.959 . S
H1655 C1670 0.959 . S
H1656 C1670 0.961 . S
H1657 C1671 0.960 . S
H1658 C1671 0.961 . S
H1659 C1671 0.959 . S
H1660 C1674 0.929 . S
H1661 C1675 0.931 . S
H1662 C1677 0.930 . S
C1663 H1651 0.930 . S
C1663 C1664 1.399 1_545 S
C1663 C1668 1.399 1_545 S
C1664 C1663 1.399 1_565 S
C1664 C1665 1.376 . S
C1665 H1652 0.930 . S
C1665 C1664 1.376 . S
C1665 C1666 1.388 . S
C1666 H1653 0.930 . S
C1666 C1665 1.388 . S
C1666 C1667 1.390 . S
C1667 C1666 1.390 . S
C1667 C1668 1.394 . S
C1667 C1673 1.465 . S
C1668 C1663 1.399 1_565 S
C1668 C1667 1.394 . S
C1668 C1669 1.516 1_565 S
C1669 C1668 1.516 1_545 S
C1669 C1670 1.502 . S
C1669 C1671 1.561 . S
C1669 C1672 1.526 1_545 S
C1670 H1654 0.959 . S
C1670 H1655 0.959 . S
C1670 H1656 0.961 . S
C1670 C1669 1.502 . S
C1671 H1657 0.960 . S
C1671 H1658 0.961 . S
C1671 H1659 0.959 . S
C1671 C1669 1.561 . S
C1672 C1669 1.526 1_565 S
C1672 C1673 1.396 . S
C1672 C1677 1.390 1_565 S
C1673 C1667 1.465 . S
C1673 C1672 1.396 . S
C1673 C1674 1.399 . S
C1674 H1660 0.929 . S
C1674 C1673 1.399 . S
C1674 C1675 1.385 . S
C1675 H1661 0.931 . S
C1675 C1674 1.385 . S
C1675 C1676 1.389 . S
C1676 C1675 1.389 . S
C1676 C1677 1.387 1_565 S
C1677 H1662 0.930 . S
C1677 C1672 1.390 1_545 S
C1677 C1676 1.387 1_545 S
H1678 C1690 0.930 . S
H1679 C1692 0.930 . S
H1680 C1693 0.930 . S
H1681 C1697 0.959 . S
H1682 C1697 0.959 . S
H1683 C1697 0.961 . S
H1684 C1698 0.960 . S
H1685 C1698 0.961 . S
H1686 C1698 0.959 . S
H1687 C1701 0.929 . S
H1688 C1702 0.931 . S
H1689 C1704 0.928 1_455 S
C1690 H1678 0.930 . S
C1690 C1691 1.399 1_545 S
C1690 C1695 1.399 1_545 S
C1691 C1690 1.399 1_565 S
C1691 C1692 1.376 1_455 S
C1692 H1679 0.930 . S
C1692 C1691 1.376 1_655 S
C1692 C1693 1.388 . S
C1693 H1680 0.930 . S
C1693 C1692 1.388 . S
C1693 C1694 1.390 . S
C1694 C1693 1.390 . S
C1694 C1695 1.394 1_655 S
C1694 C1700 1.465 . S
C1695 C1690 1.399 1_565 S
C1695 C1694 1.394 1_455 S
C1695 C1696 1.516 1_565 S
C1696 C1695 1.516 1_545 S
C1696 C1697 1.502 . S
C1696 C1698 1.561 1_455 S
C1696 C1699 1.525 1_445 S
C1697 H1681 0.959 . S
C1697 H1682 0.959 . S
C1697 H1683 0.961 . S
C1697 C1696 1.502 . S
C1698 H1684 0.960 . S
C1698 H1685 0.961 . S
C1698 H1686 0.959 . S
C1698 C1696 1.561 1_655 S
C1699 C1696 1.525 1_665 S
C1699 C1700 1.397 . S
C1699 C1704 1.390 1_565 S
C1700 C1694 1.465 . S
C1700 C1699 1.397 . S
C1700 C1701 1.399 . S
C1701 H1687 0.929 . S
C1701 C1700 1.399 . S
C1701 C1702 1.385 . S
C1702 H1688 0.931 . S
C1702 C1701 1.385 . S
C1702 C1703 1.389 . S
C1703 C1702 1.389 . S
C1703 C1704 1.388 1_565 S
C1704 H1689 0.928 1_655 S
C1704 C1699 1.390 1_545 S
C1704 C1703 1.388 1_545 S
H1705 C1717 0.930 . S
H1706 C1719 0.930 . S
H1707 C1720 0.930 . S
H1708 C1724 0.959 . S
H1709 C1724 0.959 . S
H1710 C1724 0.961 . S
H1711 C1725 0.960 . S
H1712 C1725 0.961 . S
H1713 C1725 0.959 . S
H1714 C1728 0.929 . S
H1715 C1729 0.931 . S
H1716 C1731 0.930 . S
C1717 H1705 0.930 . S
C1717 C1718 1.399 . S
C1717 C1722 1.399 . S
C1718 C1717 1.399 . S
C1718 C1719 1.376 1_545 S
C1719 H1706 0.930 . S
C1719 C1718 1.376 1_565 S
C1719 C1720 1.388 . S
C1720 H1707 0.930 . S
C1720 C1719 1.388 . S
C1720 C1721 1.390 1_565 S
C1721 C1720 1.390 1_545 S
C1721 C1722 1.394 . S
C1721 C1727 1.465 . S
C1722 C1717 1.399 . S
C1722 C1721 1.394 . S
C1722 C1723 1.516 . S
C1723 C1722 1.516 . S
C1723 C1724 1.502 . S
C1723 C1725 1.561 . S
C1723 C1726 1.526 . S
C1724 H1708 0.959 . S
C1724 H1709 0.959 . S
C1724 H1710 0.961 . S
C1724 C1723 1.502 . S
C1725 H1711 0.960 . S
C1725 H1712 0.961 . S
C1725 H1713 0.959 . S
C1725 C1723 1.561 . S
C1726 C1723 1.526 . S
C1726 C1727 1.396 . S
C1726 C1731 1.390 . S
C1727 C1721 1.465 . S
C1727 C1726 1.396 . S
C1727 C1728 1.399 1_545 S
C1728 H1714 0.929 . S
C1728 C1727 1.399 1_565 S
C1728 C1729 1.385 . S
C1729 H1715 0.931 . S
C1729 C1728 1.385 . S
C1729 C1730 1.389 1_565 S
C1730 C1729 1.389 1_545 S
C1730 C1731 1.387 . S
C1731 H1716 0.930 . S
C1731 C1726 1.390 . S
C1731 C1730 1.387 . S
H1732 C1744 0.930 . S
H1733 C1746 0.930 . S
H1734 C1747 0.930 . S
H1735 C1751 0.959 . S
H1736 C1751 0.959 . S
H1737 C1751 0.961 . S
H1738 C1752 0.960 . S
H1739 C1752 0.961 . S
H1740 C1752 0.959 . S
H1741 C1755 0.929 . S
H1742 C1756 0.931 . S
H1743 C1758 0.930 . S
C1744 H1732 0.930 . S
C1744 C1745 1.399 . S
C1744 C1749 1.399 . S
C1745 C1744 1.399 . S
C1745 C1746 1.376 . S
C1746 H1733 0.930 . S
C1746 C1745 1.376 . S
C1746 C1747 1.388 . S
C1747 H1734 0.930 . S
C1747 C1746 1.388 . S
C1747 C1748 1.390 . S
C1748 C1747 1.390 . S
C1748 C1749 1.394 . S
C1748 C1754 1.465 . S
C1749 C1744 1.399 . S
C1749 C1748 1.394 . S
C1749 C1750 1.516 . S
C1750 C1749 1.516 . S
C1750 C1751 1.502 . S
C1750 C1752 1.561 . S
C1750 C1753 1.526 . S
C1751 H1735 0.959 . S
C1751 H1736 0.959 . S
C1751 H1737 0.961 . S
C1751 C1750 1.502 . S
C1752 H1738 0.960 . S
C1752 H1739 0.961 . S
C1752 H1740 0.959 . S
C1752 C1750 1.561 . S
C1753 C1750 1.526 . S
C1753 C1754 1.396 . S
C1753 C1758 1.390 . S
C1754 C1748 1.465 . S
C1754 C1753 1.396 . S
C1754 C1755 1.399 . S
C1755 H1741 0.929 . S
C1755 C1754 1.399 . S
C1755 C1756 1.385 . S
C1756 H1742 0.931 . S
C1756 C1755 1.385 . S
C1756 C1757 1.389 . S
C1757 C1756 1.389 . S
C1757 C1758 1.387 . S
C1758 H1743 0.930 . S
C1758 C1753 1.390 . S
C1758 C1757 1.387 . S
H1759 C1771 0.930 . S
H1760 C1773 0.930 . S
H1761 C1774 0.930 . S
H1762 C1778 0.959 . S
H1763 C1778 0.959 . S
H1764 C1778 0.961 . S
H1765 C1779 0.960 . S
H1766 C1779 0.966 . S
H1767 C1779 0.959 . S
H1768 C1782 0.929 . S
H1769 C1783 0.931 . S
H1770 C1785 0.930 . S
C1771 H1759 0.930 . S
C1771 C1772 1.399 1_655 S
C1771 C1776 1.399 . S
C1772 C1771 1.399 1_455 S
C1772 C1773 1.376 . S
C1773 H1760 0.930 . S
C1773 C1772 1.376 . S
C1773 C1774 1.388 . S
C1774 H1761 0.930 . S
C1774 C1773 1.388 . S
C1774 C1775 1.390 . S
C1775 C1774 1.390 . S
C1775 C1776 1.394 1_455 S
C1775 C1781 1.465 . S
C1776 C1771 1.399 . S
C1776 C1775 1.394 1_655 S
C1776 C1777 1.516 . S
C1777 C1776 1.516 . S
C1777 C1778 1.502 . S
C1777 C1779 1.561 1_655 S
C1777 C1780 1.526 . S
C1778 H1762 0.959 . S
C1778 H1763 0.959 . S
C1778 H1764 0.961 . S
C1778 C1777 1.502 . S
C1779 H1765 0.960 . S
C1779 H1766 0.966 . S
C1779 H1767 0.959 . S
C1779 C1777 1.561 1_455 S
C1780 C1777 1.526 . S
C1780 C1781 1.396 1_655 S
C1780 C1785 1.390 . S
C1781 C1775 1.465 . S
C1781 C1780 1.396 1_455 S
C1781 C1782 1.399 . S
C1782 H1768 0.929 . S
C1782 C1781 1.399 . S
C1782 C1783 1.385 . S
C1783 H1769 0.931 . S
C1783 C1782 1.385 . S
C1783 C1784 1.389 1_455 S
C1784 C1783 1.389 1_655 S
C1784 C1785 1.387 . S
C1785 H1770 0.930 . S
C1785 C1780 1.390 . S
C1785 C1784 1.387 . S
H1786 C1798 0.930 . S
H1787 C1800 0.930 . S
H1788 C1801 0.930 . S
H1789 C1805 0.959 . S
H1790 C1805 0.959 . S
H1791 C1805 0.961 . S
H1792 C1806 0.960 . S
H1793 C1806 0.961 . S
H1794 C1806 0.959 . S
H1795 C1809 0.929 . S
H1796 C1810 0.931 . S
H1797 C1812 0.930 . S
C1798 H1786 0.930 . S
C1798 C1799 1.399 . S
C1798 C1803 1.399 . S
C1799 C1798 1.399 . S
C1799 C1800 1.376 . S
C1800 H1787 0.930 . S
C1800 C1799 1.376 . S
C1800 C1801 1.388 . S
C1801 H1788 0.930 . S
C1801 C1800 1.388 . S
C1801 C1802 1.390 . S
C1802 C1801 1.390 . S
C1802 C1803 1.394 . S
C1802 C1808 1.465 . S
C1803 C1798 1.399 . S
C1803 C1802 1.394 . S
C1803 C1804 1.516 . S
C1804 C1803 1.516 . S
C1804 C1805 1.502 . S
C1804 C1806 1.561 . S
C1804 C1807 1.526 . S
C1805 H1789 0.959 . S
C1805 H1790 0.959 . S
C1805 H1791 0.961 . S
C1805 C1804 1.502 . S
C1806 H1792 0.960 . S
C1806 H1793 0.961 . S
C1806 H1794 0.959 . S
C1806 C1804 1.561 . S
C1807 C1804 1.526 . S
C1807 C1808 1.396 . S
C1807 C1812 1.390 . S
C1808 C1802 1.465 . S
C1808 C1807 1.396 . S
C1808 C1809 1.399 . S
C1809 H1795 0.929 . S
C1809 C1808 1.399 . S
C1809 C1810 1.385 . S
C1810 H1796 0.931 . S
C1810 C1809 1.385 . S
C1810 C1811 1.389 . S
C1811 C1810 1.389 . S
C1811 C1812 1.387 . S
C1812 H1797 0.930 . S
C1812 C1807 1.390 . S
C1812 C1811 1.387 . S
H1813 C1825 0.928 . S
H1814 C1827 0.930 . S
H1815 C1828 0.930 . S
H1816 C1832 0.959 . S
H1817 C1832 0.959 . S
H1818 C1832 0.961 . S
H1819 C1833 0.960 . S
H1820 C1833 0.961 . S
H1821 C1833 0.959 . S
H1822 C1836 0.929 . S
H1823 C1837 0.931 . S
H1824 C1839 0.930 . S
C1825 H1813 0.928 . S
C1825 C1826 1.401 1_655 S
C1825 C1830 1.399 1_655 S
C1826 C1825 1.401 1_455 S
C1826 C1827 1.376 . S
C1827 H1814 0.930 . S
C1827 C1826 1.376 . S
C1827 C1828 1.388 . S
C1828 H1815 0.930 . S
C1828 C1827 1.388 . S
C1828 C1829 1.390 . S
C1829 C1828 1.390 . S
C1829 C1830 1.395 . S
C1829 C1835 1.465 . S
C1830 C1825 1.399 1_455 S
C1830 C1829 1.395 . S
C1830 C1831 1.515 1_455 S
C1831 C1830 1.515 1_655 S
C1831 C1832 1.502 . S
C1831 C1833 1.561 1_655 S
C1831 C1834 1.526 . S
C1832 H1816 0.959 . S
C1832 H1817 0.959 . S
C1832 H1818 0.961 . S
C1832 C1831 1.502 . S
C1833 H1819 0.960 . S
C1833 H1820 0.961 . S
C1833 H1821 0.959 . S
C1833 C1831 1.561 1_455 S
C1834 C1831 1.526 . S
C1834 C1835 1.396 1_655 S
C1834 C1839 1.390 . S
C1835 C1829 1.465 . S
C1835 C1834 1.396 1_455 S
C1835 C1836 1.399 . S
C1836 H1822 0.929 . S
C1836 C1835 1.399 . S
C1836 C1837 1.385 . S
C1837 H1823 0.931 . S
C1837 C1836 1.385 . S
C1837 C1838 1.389 1_455 S
C1838 C1837 1.389 1_655 S
C1838 C1839 1.387 . S
C1839 H1824 0.930 . S
C1839 C1834 1.390 . S
C1839 C1838 1.387 . S
H1840 C1852 0.930 . S
H1841 C1854 0.930 . S
H1842 C1855 0.930 . S
H1843 C1859 0.959 . S
H1844 C1859 0.959 . S
H1845 C1859 0.961 . S
H1846 C1860 0.960 . S
H1847 C1860 0.961 . S
H1848 C1860 0.959 . S
H1849 C1863 0.929 . S
H1850 C1864 0.931 . S
H1851 C1866 0.930 . S
C1852 H1840 0.930 . S
C1852 C1853 1.399 . S
C1852 C1857 1.399 . S
C1853 C1852 1.399 . S
C1853 C1854 1.376 . S
C1854 H1841 0.930 . S
C1854 C1853 1.376 . S
C1854 C1855 1.388 . S
C1855 H1842 0.930 . S
C1855 C1854 1.388 . S
C1855 C1856 1.390 . S
C1856 C1855 1.390 . S
C1856 C1857 1.394 . S
C1856 C1862 1.465 . S
C1857 C1852 1.399 . S
C1857 C1856 1.394 . S
C1857 C1858 1.516 1_455 S
C1858 C1857 1.516 1_655 S
C1858 C1859 1.502 . S
C1858 C1860 1.561 . S
C1858 C1861 1.526 . S
C1859 H1843 0.959 . S
C1859 H1844 0.959 . S
C1859 H1845 0.961 . S
C1859 C1858 1.502 . S
C1860 H1846 0.960 . S
C1860 H1847 0.961 . S
C1860 H1848 0.959 . S
C1860 C1858 1.561 . S
C1861 C1858 1.526 . S
C1861 C1862 1.396 1_655 S
C1861 C1866 1.390 . S
C1862 C1856 1.465 . S
C1862 C1861 1.396 1_455 S
C1862 C1863 1.399 . S
C1863 H1849 0.929 . S
C1863 C1862 1.399 . S
C1863 C1864 1.385 1_455 S
C1864 H1850 0.931 . S
C1864 C1863 1.385 1_655 S
C1864 C1865 1.389 . S
C1865 C1864 1.389 . S
C1865 C1866 1.387 . S
C1866 H1851 0.930 . S
C1866 C1861 1.390 . S
C1866 C1865 1.387 . S
H1867 C1879 0.930 . S
H1868 C1881 0.930 . S
H1869 C1882 0.930 . S
H1870 C1886 0.959 . S
H1871 C1886 0.959 . S
H1872 C1886 0.961 . S
H1873 C1887 0.960 . S
H1874 C1887 0.961 . S
H1875 C1887 0.959 . S
H1876 C1890 0.929 . S
H1877 C1891 0.931 . S
H1878 C1893 0.930 . S
C1879 H1867 0.930 . S
C1879 C1880 1.399 . S
C1879 C1884 1.399 . S
C1880 C1879 1.399 . S
C1880 C1881 1.376 . S
C1881 H1868 0.930 . S
C1881 C1880 1.376 . S
C1881 C1882 1.388 . S
C1882 H1869 0.930 . S
C1882 C1881 1.388 . S
C1882 C1883 1.390 . S
C1883 C1882 1.390 . S
C1883 C1884 1.394 . S
C1883 C1889 1.465 . S
C1884 C1879 1.399 . S
C1884 C1883 1.394 . S
C1884 C1885 1.516 . S
C1885 C1884 1.516 . S
C1885 C1886 1.502 . S
C1885 C1887 1.561 . S
C1885 C1888 1.526 . S
C1886 H1870 0.959 . S
C1886 H1871 0.959 . S
C1886 H1872 0.961 . S
C1886 C1885 1.502 . S
C1887 H1873 0.960 . S
C1887 H1874 0.961 . S
C1887 H1875 0.959 . S
C1887 C1885 1.561 . S
C1888 C1885 1.526 . S
C1888 C1889 1.396 . S
C1888 C1893 1.390 . S
C1889 C1883 1.465 . S
C1889 C1888 1.396 . S
C1889 C1890 1.399 . S
C1890 H1876 0.929 . S
C1890 C1889 1.399 . S
C1890 C1891 1.385 . S
C1891 H1877 0.931 . S
C1891 C1890 1.385 . S
C1891 C1892 1.389 . S
C1892 C1891 1.389 . S
C1892 C1893 1.387 . S
C1893 H1878 0.930 . S
C1893 C1888 1.390 . S
C1893 C1892 1.387 . S
H1894 C1906 0.930 . S
H1895 C1908 0.930 . S
H1896 C1909 0.930 . S
H1897 C1913 0.959 . S
H1898 C1913 0.959 . S
H1899 C1913 0.961 . S
H1900 C1914 0.960 . S
H1901 C1914 0.961 . S
H1902 C1914 0.959 . S
H1903 C1917 0.929 . S
H1904 C1918 0.931 . S
H1905 C1920 0.930 . S
C1906 H1894 0.930 . S
C1906 C1907 1.399 . S
C1906 C1911 1.399 . S
C1907 C1906 1.399 . S
C1907 C1908 1.376 . S
C1908 H1895 0.930 . S
C1908 C1907 1.376 . S
C1908 C1909 1.388 . S
C1909 H1896 0.930 . S
C1909 C1908 1.388 . S
C1909 C1910 1.390 . S
C1910 C1909 1.390 . S
C1910 C1911 1.394 . S
C1910 C1916 1.465 . S
C1911 C1906 1.399 . S
C1911 C1910 1.394 . S
C1911 C1912 1.516 . S
C1912 C1911 1.516 . S
C1912 C1913 1.502 . S
C1912 C1914 1.561 . S
C1912 C1915 1.526 . S
C1913 H1897 0.959 . S
C1913 H1898 0.959 . S
C1913 H1899 0.961 . S
C1913 C1912 1.502 . S
C1914 H1900 0.960 . S
C1914 H1901 0.961 . S
C1914 H1902 0.959 . S
C1914 C1912 1.561 . S
C1915 C1912 1.526 . S
C1915 C1916 1.396 . S
C1915 C1920 1.390 . S
C1916 C1910 1.465 . S
C1916 C1915 1.396 . S
C1916 C1917 1.399 . S
C1917 H1903 0.929 . S
C1917 C1916 1.399 . S
C1917 C1918 1.385 . S
C1918 H1904 0.931 . S
C1918 C1917 1.385 . S
C1918 C1919 1.389 . S
C1919 C1918 1.389 . S
C1919 C1920 1.387 . S
C1920 H1905 0.930 . S
C1920 C1915 1.390 . S
C1920 C1919 1.387 . S
H1921 C1933 0.930 . S
H1922 C1935 0.930 . S
H1923 C1936 0.930 . S
H1924 C1940 0.959 . S
H1925 C1940 0.959 . S
H1926 C1940 0.961 . S
H1927 C1941 0.960 . S
H1928 C1941 0.948 1_655 S
H1929 C1941 0.959 . S
H1930 C1944 0.929 1_455 S
H1931 C1945 0.931 . S
H1932 C1947 0.930 . S
C1933 H1921 0.930 . S
C1933 C1934 1.399 . S
C1933 C1938 1.399 . S
C1934 C1933 1.399 . S
C1934 C1935 1.376 . S
C1935 H1922 0.930 . S
C1935 C1934 1.376 . S
C1935 C1936 1.388 . S
C1936 H1923 0.930 . S
C1936 C1935 1.388 . S
C1936 C1937 1.390 . S
C1937 C1936 1.390 . S
C1937 C1938 1.394 . S
C1937 C1943 1.465 1_455 S
C1938 C1933 1.399 . S
C1938 C1937 1.394 . S
C1938 C1939 1.516 1_455 S
C1939 C1938 1.516 1_655 S
C1939 C1940 1.502 . S
C1939 C1941 1.561 1_655 S
C1939 C1942 1.526 . S
C1940 H1924 0.959 . S
C1940 H1925 0.959 . S
C1940 H1926 0.961 . S
C1940 C1939 1.502 . S
C1941 H1927 0.960 . S
C1941 H1928 0.948 1_455 S
C1941 H1929 0.959 . S
C1941 C1939 1.561 1_455 S
C1942 C1939 1.526 . S
C1942 C1943 1.396 . S
C1942 C1947 1.390 . S
C1943 C1937 1.465 1_655 S
C1943 C1942 1.396 . S
C1943 C1944 1.399 . S
C1944 H1930 0.929 1_655 S
C1944 C1943 1.399 . S
C1944 C1945 1.385 . S
C1945 H1931 0.931 . S
C1945 C1944 1.385 . S
C1945 C1946 1.389 . S
C1946 C1945 1.389 . S
C1946 C1947 1.387 . S
C1947 H1932 0.930 . S
C1947 C1942 1.390 . S
C1947 C1946 1.387 . S
H1948 C1960 0.930 . S
H1949 C1962 0.930 . S
H1950 C1963 0.930 . S
H1951 C1967 0.959 . S
H1952 C1967 0.959 . S
H1953 C1967 0.961 . S
H1954 C1968 0.960 . S
H1955 C1968 0.961 . S
H1956 C1968 0.959 . S
H1957 C1971 0.929 1_455 S
H1958 C1972 0.931 . S
H1959 C1974 0.930 . S
C1960 H1948 0.930 . S
C1960 C1961 1.399 . S
C1960 C1965 1.399 . S
C1961 C1960 1.399 . S
C1961 C1962 1.376 . S
C1962 H1949 0.930 . S
C1962 C1961 1.376 . S
C1962 C1963 1.388 . S
C1963 H1950 0.930 . S
C1963 C1962 1.388 . S
C1963 C1964 1.390 . S
C1964 C1963 1.390 . S
C1964 C1965 1.394 . S
C1964 C1970 1.465 1_455 S
C1965 C1960 1.399 . S
C1965 C1964 1.394 . S
C1965 C1966 1.516 1_455 S
C1966 C1965 1.516 1_655 S
C1966 C1967 1.502 . S
C1966 C1968 1.561 1_655 S
C1966 C1969 1.526 . S
C1967 H1951 0.959 . S
C1967 H1952 0.959 . S
C1967 H1953 0.961 . S
C1967 C1966 1.502 . S
C1968 H1954 0.960 . S
C1968 H1955 0.961 . S
C1968 H1956 0.959 . S
C1968 C1966 1.561 1_455 S
C1969 C1966 1.526 . S
C1969 C1970 1.396 . S
C1969 C1974 1.390 . S
C1970 C1964 1.465 1_655 S
C1970 C1969 1.396 . S
C1970 C1971 1.399 . S
C1971 H1957 0.929 1_655 S
C1971 C1970 1.399 . S
C1971 C1972 1.385 . S
C1972 H1958 0.931 . S
C1972 C1971 1.385 . S
C1972 C1973 1.389 . S
C1973 C1972 1.389 . S
C1973 C1974 1.387 . S
C1974 H1959 0.930 . S
C1974 C1969 1.390 . S
C1974 C1973 1.387 . S
H1975 C1987 0.930 . S
H1976 C1989 0.930 . S
H1977 C1990 0.930 . S
H1978 C1994 0.959 . S
H1979 C1994 0.959 . S
H1980 C1994 0.961 . S
H1981 C1995 0.960 . S
H1982 C1995 0.961 . S
H1983 C1995 0.959 . S
H1984 C1998 0.929 . S
H1985 C1999 0.931 . S
H1986 C2001 0.930 . S
C1987 H1975 0.930 . S
C1987 C1988 1.399 . S
C1987 C1992 1.399 . S
C1988 C1987 1.399 . S
C1988 C1989 1.376 . S
C1989 H1976 0.930 . S
C1989 C1988 1.376 . S
C1989 C1990 1.388 . S
C1990 H1977 0.930 . S
C1990 C1989 1.388 . S
C1990 C1991 1.390 . S
C1991 C1990 1.390 . S
C1991 C1992 1.394 . S
C1991 C1997 1.465 . S
C1992 C1987 1.399 . S
C1992 C1991 1.394 . S
C1992 C1993 1.516 . S
C1993 C1992 1.516 . S
C1993 C1994 1.502 . S
C1993 C1995 1.561 . S
C1993 C1996 1.526 . S
C1994 H1978 0.959 . S
C1994 H1979 0.959 . S
C1994 H1980 0.961 . S
C1994 C1993 1.502 . S
C1995 H1981 0.960 . S
C1995 H1982 0.961 . S
C1995 H1983 0.959 . S
C1995 C1993 1.561 . S
C1996 C1993 1.526 . S
C1996 C1997 1.396 . S
C1996 C2001 1.390 . S
C1997 C1991 1.465 . S
C1997 C1996 1.396 . S
C1997 C1998 1.399 . S
C1998 H1984 0.929 . S
C1998 C1997 1.399 . S
C1998 C1999 1.385 . S
C1999 H1985 0.931 . S
C1999 C1998 1.385 . S
C1999 C2000 1.389 . S
C2000 C1999 1.389 . S
C2000 C2001 1.387 . S
C2001 H1986 0.930 . S
C2001 C1996 1.390 . S
C2001 C2000 1.387 . S
H2002 C2014 0.930 . S
H2003 C2016 0.930 . S
H2004 C2017 0.930 . S
H2005 C2021 0.959 . S
H2006 C2021 0.959 . S
H2007 C2021 0.961 . S
H2008 C2022 0.960 . S
H2009 C2022 0.961 . S
H2010 C2022 0.959 . S
H2011 C2025 0.929 . S
H2012 C2026 0.931 . S
H2013 C2028 0.930 . S
C2014 H2002 0.930 . S
C2014 C2015 1.399 . S
C2014 C2019 1.399 . S
C2015 C2014 1.399 . S
C2015 C2016 1.376 . S
C2016 H2003 0.930 . S
C2016 C2015 1.376 . S
C2016 C2017 1.388 . S
C2017 H2004 0.930 . S
C2017 C2016 1.388 . S
C2017 C2018 1.390 . S
C2018 C2017 1.390 . S
C2018 C2019 1.394 . S
C2018 C2024 1.465 . S
C2019 C2014 1.399 . S
C2019 C2018 1.394 . S
C2019 C2020 1.516 . S
C2020 C2019 1.516 . S
C2020 C2021 1.502 . S
C2020 C2022 1.561 . S
C2020 C2023 1.526 . S
C2021 H2005 0.959 . S
C2021 H2006 0.959 . S
C2021 H2007 0.961 . S
C2021 C2020 1.502 . S
C2022 H2008 0.960 . S
C2022 H2009 0.961 . S
C2022 H2010 0.959 . S
C2022 C2020 1.561 . S
C2023 C2020 1.526 . S
C2023 C2024 1.396 . S
C2023 C2028 1.390 . S
C2024 C2018 1.465 . S
C2024 C2023 1.396 . S
C2024 C2025 1.399 . S
C2025 H2011 0.929 . S
C2025 C2024 1.399 . S
C2025 C2026 1.385 . S
C2026 H2012 0.931 . S
C2026 C2025 1.385 . S
C2026 C2027 1.389 . S
C2027 C2026 1.389 . S
C2027 C2028 1.387 . S
C2028 H2013 0.930 . S
C2028 C2023 1.390 . S
C2028 C2027 1.387 . S
H2029 C2041 0.930 . S
H2030 C2043 0.930 . S
H2031 C2044 0.930 . S
H2032 C2048 0.959 . S
H2033 C2048 0.959 . S
H2034 C2048 0.961 . S
H2035 C2049 0.960 . S
H2036 C2049 0.961 . S
H2037 C2049 0.959 . S
H2038 C2052 0.929 . S
H2039 C2053 0.931 . S
H2040 C2055 0.930 . S
C2041 H2029 0.930 . S
C2041 C2042 1.399 . S
C2041 C2046 1.399 . S
C2042 C2041 1.399 . S
C2042 C2043 1.376 . S
C2043 H2030 0.930 . S
C2043 C2042 1.376 . S
C2043 C2044 1.388 1_455 S
C2044 H2031 0.930 . S
C2044 C2043 1.388 1_655 S
C2044 C2045 1.390 . S
C2045 C2044 1.390 . S
C2045 C2046 1.394 1_655 S
C2045 C2051 1.465 . S
C2046 C2041 1.399 . S
C2046 C2045 1.394 1_455 S
C2046 C2047 1.516 . S
C2047 C2046 1.516 . S
C2047 C2048 1.502 . S
C2047 C2049 1.561 . S
C2047 C2050 1.526 1_455 S
C2048 H2032 0.959 . S
C2048 H2033 0.959 . S
C2048 H2034 0.961 . S
C2048 C2047 1.502 . S
C2049 H2035 0.960 . S
C2049 H2036 0.961 . S
C2049 H2037 0.959 . S
C2049 C2047 1.561 . S
C2050 C2047 1.526 1_655 S
C2050 C2051 1.396 . S
C2050 C2055 1.390 . S
C2051 C2045 1.465 . S
C2051 C2050 1.396 . S
C2051 C2052 1.399 . S
C2052 H2038 0.929 . S
C2052 C2051 1.399 . S
C2052 C2053 1.385 . S
C2053 H2039 0.931 . S
C2053 C2052 1.385 . S
C2053 C2054 1.389 . S
C2054 C2053 1.389 . S
C2054 C2055 1.387 . S
C2055 H2040 0.930 . S
C2055 C2050 1.390 . S
C2055 C2054 1.387 . S
H2056 C2068 0.930 . S
H2057 C2070 0.930 . S
H2058 C2071 0.930 . S
H2059 C2075 0.959 . S
H2060 C2075 0.959 . S
H2061 C2075 0.961 1_556 S
H2062 C2076 0.960 1_556 S
H2063 C2076 0.961 . S
H2064 C2076 0.959 . S
H2065 C2079 0.929 . S
H2066 C2080 0.931 . S
H2067 C2082 0.930 . S
C2068 H2056 0.930 . S
C2068 C2069 1.399 1_455 S
C2068 C2073 1.402 . S
C2069 C2068 1.399 1_655 S
C2069 C2070 1.376 1_545 S
C2070 H2057 0.930 . S
C2070 C2069 1.376 1_565 S
C2070 C2071 1.388 . S
C2071 H2058 0.930 . S
C2071 C2070 1.388 . S
C2071 C2072 1.390 . S
C2072 C2071 1.390 . S
C2072 C2073 1.382 1_665 S
C2072 C2078 1.465 1_556 S
C2073 C2068 1.402 . S
C2073 C2072 1.382 1_445 S
C2073 C2074 1.524 1_556 S
C2074 C2073 1.524 1_554 S
C2074 C2075 1.502 . S
C2074 C2076 1.561 1_455 S
C2074 C2077 1.526 . S
C2075 H2059 0.959 . S
C2075 H2060 0.959 . S
C2075 H2061 0.961 1_554 S
C2075 C2074 1.502 . S
C2076 H2062 0.960 1_554 S
C2076 H2063 0.961 . S
C2076 H2064 0.959 . S
C2076 C2074 1.561 1_655 S
C2077 C2074 1.526 . S
C2077 C2078 1.396 1_445 S
C2077 C2082 1.390 . S
C2078 C2072 1.465 1_554 S
C2078 C2077 1.396 1_665 S
C2078 C2079 1.399 . S
C2079 H2065 0.929 . S
C2079 C2078 1.399 . S
C2079 C2080 1.385 . S
C2080 H2066 0.931 . S
C2080 C2079 1.385 . S
C2080 C2081 1.389 1_655 S
C2081 C2080 1.389 1_455 S
C2081 C2082 1.387 1_565 S
C2082 H2067 0.930 . S
C2082 C2077 1.390 . S
C2082 C2081 1.387 1_545 S
H2083 C2095 0.930 . S
H2084 C2097 0.930 . S
H2085 C2098 0.930 . S
H2086 C2102 0.963 . S
H2087 C2102 0.971 . S
H2088 C2102 0.947 1_556 S
H2089 C2103 0.960 . S
H2090 C2103 0.961 1_554 S
H2091 C2103 0.959 . S
H2092 C2106 0.929 . S
H2093 C2107 0.931 . S
H2094 C2109 0.930 . S
C2095 H2083 0.930 . S
C2095 C2096 1.399 1_545 S
C2095 C2100 1.399 . S
C2096 C2095 1.399 1_565 S
C2096 C2097 1.376 . S
C2097 H2084 0.930 . S
C2097 C2096 1.376 . S
C2097 C2098 1.388 . S
C2098 H2085 0.930 . S
C2098 C2097 1.388 . S
C2098 C2099 1.390 . S
C2099 C2098 1.390 . S
C2099 C2100 1.394 1_565 S
C2099 C2105 1.465 1_556 S
C2100 C2095 1.399 . S
C2100 C2099 1.394 1_545 S
C2100 C2101 1.566 . S
C2101 C2100 1.566 . S
C2101 C2102 1.499 1_556 S
C2101 C2103 1.570 . S
C2101 C2104 1.474 1_556 S
C2102 H2086 0.963 . S
C2102 H2087 0.971 . S
C2102 H2088 0.947 1_554 S
C2102 C2101 1.499 1_554 S
C2103 H2089 0.960 . S
C2103 H2090 0.961 1_556 S
C2103 H2091 0.959 . S
C2103 C2101 1.570 . S
C2104 C2101 1.474 1_554 S
C2104 C2105 1.396 1_545 S
C2104 C2109 1.390 . S
C2105 C2099 1.465 1_554 S
C2105 C2104 1.396 1_565 S
C2105 C2106 1.399 . S
C2106 H2092 0.929 . S
C2106 C2105 1.399 . S
C2106 C2107 1.385 . S
C2107 H2093 0.931 . S
C2107 C2106 1.385 . S
C2107 C2108 1.389 1_565 S
C2108 C2107 1.389 1_545 S
C2108 C2109 1.387 . S
C2109 H2094 0.930 . S
C2109 C2104 1.390 . S
C2109 C2108 1.387 . S
H2110 C2122 0.930 . S
H2111 C2124 0.930 . S
H2112 C2125 0.930 . S
H2113 C2129 0.959 . S
H2114 C2129 0.959 . S
H2115 C2129 0.961 . S
H2116 C2130 0.960 . S
H2117 C2130 0.961 . S
H2118 C2130 0.959 . S
H2119 C2133 0.929 . S
H2120 C2134 0.931 . S
H2121 C2136 0.930 . S
C2122 H2110 0.930 . S
C2122 C2123 1.399 . S
C2122 C2127 1.399 . S
C2123 C2122 1.399 . S
C2123 C2124 1.376 1_565 S
C2124 H2111 0.930 . S
C2124 C2123 1.376 1_545 S
C2124 C2125 1.388 . S
C2125 H2112 0.930 . S
C2125 C2124 1.388 . S
C2125 C2126 1.390 . S
C2126 C2125 1.390 . S
C2126 C2127 1.394 1_545 S
C2126 C2132 1.465 . S
C2127 C2122 1.399 . S
C2127 C2126 1.394 1_565 S
C2127 C2128 1.516 . S
C2128 C2127 1.516 . S
C2128 C2129 1.502 . S
C2128 C2130 1.561 . S
C2128 C2131 1.526 . S
C2129 H2113 0.959 . S
C2129 H2114 0.959 . S
C2129 H2115 0.961 . S
C2129 C2128 1.502 . S
C2130 H2116 0.960 . S
C2130 H2117 0.961 . S
C2130 H2118 0.959 . S
C2130 C2128 1.561 . S
C2131 C2128 1.526 . S
C2131 C2132 1.396 1_565 S
C2131 C2136 1.390 . S
C2132 C2126 1.465 . S
C2132 C2131 1.396 1_545 S
C2132 C2133 1.399 . S
C2133 H2119 0.929 . S
C2133 C2132 1.399 . S
C2133 C2134 1.385 . S
C2134 H2120 0.931 . S
C2134 C2133 1.385 . S
C2134 C2135 1.389 . S
C2135 C2134 1.389 . S
C2135 C2136 1.387 1_545 S
C2136 H2121 0.930 . S
C2136 C2131 1.390 . S
C2136 C2135 1.387 1_565 S
H2137 C2149 0.930 . S
H2138 C2151 0.930 . S
H2139 C2152 0.930 . S
H2140 C2156 0.959 . S
H2141 C2156 0.959 . S
H2142 C2156 0.961 . S
H2143 C2157 0.960 . S
H2144 C2157 0.961 . S
H2145 C2157 0.959 . S
H2146 C2160 0.929 . S
H2147 C2161 0.931 . S
H2148 C2163 0.930 . S
C2149 H2137 0.930 . S
C2149 C2150 1.399 1_655 S
C2149 C2154 1.399 . S
C2150 C2149 1.399 1_455 S
C2150 C2151 1.376 1_545 S
C2151 H2138 0.930 . S
C2151 C2150 1.376 1_565 S
C2151 C2152 1.388 . S
C2152 H2139 0.930 . S
C2152 C2151 1.388 . S
C2152 C2153 1.390 . S
C2153 C2152 1.390 . S
C2153 C2154 1.394 1_465 S
C2153 C2159 1.465 . S
C2154 C2149 1.399 . S
C2154 C2153 1.394 1_645 S
C2154 C2155 1.516 . S
C2155 C2154 1.516 . S
C2155 C2156 1.502 . S
C2155 C2157 1.561 1_655 S
C2155 C2158 1.526 . S
C2156 H2140 0.959 . S
C2156 H2141 0.959 . S
C2156 H2142 0.961 . S
C2156 C2155 1.502 . S
C2157 H2143 0.960 . S
C2157 H2144 0.961 . S
C2157 H2145 0.959 . S
C2157 C2155 1.561 1_455 S
C2158 C2155 1.526 . S
C2158 C2159 1.396 1_645 S
C2158 C2163 1.390 . S
C2159 C2153 1.465 . S
C2159 C2158 1.396 1_465 S
C2159 C2160 1.399 . S
C2160 H2146 0.929 . S
C2160 C2159 1.399 . S
C2160 C2161 1.385 . S
C2161 H2147 0.931 . S
C2161 C2160 1.385 . S
C2161 C2162 1.389 1_455 S
C2162 C2161 1.389 1_655 S
C2162 C2163 1.387 1_565 S
C2163 H2148 0.930 . S
C2163 C2158 1.390 . S
C2163 C2162 1.387 1_545 S
H2164 C2176 0.930 . S
H2165 C2178 0.930 . S
H2166 C2179 0.930 . S
H2167 C2183 0.959 . S
H2168 C2183 0.959 . S
H2169 C2183 0.961 1_554 S
H2170 C2184 0.960 1_554 S
H2171 C2184 0.961 . S
H2172 C2184 0.959 . S
H2173 C2187 0.929 . S
H2174 C2188 0.931 . S
H2175 C2190 0.930 . S
C2176 H2164 0.930 . S
C2176 C2177 1.399 . S
C2176 C2181 1.399 . S
C2177 C2176 1.399 . S
C2177 C2178 1.376 . S
C2178 H2165 0.930 . S
C2178 C2177 1.376 . S
C2178 C2179 1.388 . S
C2179 H2166 0.930 . S
C2179 C2178 1.388 . S
C2179 C2180 1.390 . S
C2180 C2179 1.390 . S
C2180 C2181 1.394 . S
C2180 C2186 1.465 1_554 S
C2181 C2176 1.399 . S
C2181 C2180 1.394 . S
C2181 C2182 1.516 1_554 S
C2182 C2181 1.516 1_556 S
C2182 C2183 1.502 . S
C2182 C2184 1.561 . S
C2182 C2185 1.526 . S
C2183 H2167 0.959 . S
C2183 H2168 0.959 . S
C2183 H2169 0.961 1_556 S
C2183 C2182 1.502 . S
C2184 H2170 0.960 1_556 S
C2184 H2171 0.961 . S
C2184 H2172 0.959 . S
C2184 C2182 1.561 . S
C2185 C2182 1.526 . S
C2185 C2186 1.396 . S
C2185 C2190 1.390 . S
C2186 C2180 1.465 1_556 S
C2186 C2185 1.396 . S
C2186 C2187 1.399 . S
C2187 H2173 0.929 . S
C2187 C2186 1.399 . S
C2187 C2188 1.385 . S
C2188 H2174 0.931 . S
C2188 C2187 1.385 . S
C2188 C2189 1.389 . S
C2189 C2188 1.389 . S
C2189 C2190 1.387 . S
C2190 H2175 0.930 . S
C2190 C2185 1.390 . S
C2190 C2189 1.387 . S
H2191 C2203 0.930 . S
H2192 C2205 0.930 . S
H2193 C2206 0.930 . S
H2194 C2210 0.953 1_556 S
H2195 C2210 0.932 1_556 S
H2196 C2210 0.994 . S
H2197 C2211 0.960 . S
H2198 C2211 0.961 1_556 S
H2199 C2211 0.959 . S
H2200 C2214 0.929 . S
H2201 C2215 0.931 . S
H2202 C2217 0.930 . S
C2203 H2191 0.930 . S
C2203 C2204 1.399 1_455 S
C2203 C2208 1.399 . S
C2204 C2203 1.399 1_655 S
C2204 C2205 1.376 . S
C2205 H2192 0.930 . S
C2205 C2204 1.376 . S
C2205 C2206 1.388 . S
C2206 H2193 0.930 . S
C2206 C2205 1.388 . S
C2206 C2207 1.390 . S
C2207 C2206 1.390 . S
C2207 C2208 1.394 1_655 S
C2207 C2213 1.465 1_554 S
C2208 C2203 1.399 . S
C2208 C2207 1.394 1_455 S
C2208 C2209 1.516 . S
C2209 C2208 1.516 . S
C2209 C2210 1.504 . S
C2209 C2211 1.561 . S
C2209 C2212 1.526 1_554 S
C2210 H2194 0.953 1_554 S
C2210 H2195 0.932 1_554 S
C2210 H2196 0.994 . S
C2210 C2209 1.504 . S
C2211 H2197 0.960 . S
C2211 H2198 0.961 1_554 S
C2211 H2199 0.959 . S
C2211 C2209 1.561 . S
C2212 C2209 1.526 1_556 S
C2212 C2213 1.396 1_455 S
C2212 C2217 1.390 . S
C2213 C2207 1.465 1_556 S
C2213 C2212 1.396 1_655 S
C2213 C2214 1.399 . S
C2214 H2200 0.929 . S
C2214 C2213 1.399 . S
C2214 C2215 1.385 . S
C2215 H2201 0.931 . S
C2215 C2214 1.385 . S
C2215 C2216 1.376 1_655 S
C2216 C2215 1.376 1_455 S
C2216 C2217 1.397 . S
C2217 H2202 0.930 . S
C2217 C2212 1.390 . S
C2217 C2216 1.397 . S
H2218 C2230 0.930 . S
H2219 C2232 0.930 . S
H2220 C2233 0.930 . S
H2221 C2237 0.959 . S
H2222 C2237 0.959 . S
H2223 C2237 0.961 . S
H2224 C2238 0.960 . S
H2225 C2238 0.961 . S
H2226 C2238 0.959 . S
H2227 C2241 0.929 . S
H2228 C2242 0.931 . S
H2229 C2244 0.930 . S
C2230 H2218 0.930 . S
C2230 C2231 1.399 1_455 S
C2230 C2235 1.399 . S
C2231 C2230 1.399 1_655 S
C2231 C2232 1.376 . S
C2232 H2219 0.930 . S
C2232 C2231 1.376 . S
C2232 C2233 1.388 . S
C2233 H2220 0.930 . S
C2233 C2232 1.388 . S
C2233 C2234 1.390 . S
C2234 C2233 1.390 . S
C2234 C2235 1.394 1_655 S
C2234 C2240 1.465 . S
C2235 C2230 1.399 . S
C2235 C2234 1.394 1_455 S
C2235 C2236 1.516 . S
C2236 C2235 1.516 . S
C2236 C2237 1.502 . S
C2236 C2238 1.561 1_455 S
C2236 C2239 1.526 . S
C2237 H2221 0.959 . S
C2237 H2222 0.959 . S
C2237 H2223 0.961 . S
C2237 C2236 1.502 . S
C2238 H2224 0.960 . S
C2238 H2225 0.961 . S
C2238 H2226 0.959 . S
C2238 C2236 1.561 1_655 S
C2239 C2236 1.526 . S
C2239 C2240 1.396 1_455 S
C2239 C2244 1.390 . S
C2240 C2234 1.465 . S
C2240 C2239 1.396 1_655 S
C2240 C2241 1.399 . S
C2241 H2227 0.929 . S
C2241 C2240 1.399 . S
C2241 C2242 1.385 . S
C2242 H2228 0.931 . S
C2242 C2241 1.385 . S
C2242 C2243 1.389 1_655 S
C2243 C2242 1.389 1_455 S
C2243 C2244 1.387 . S
C2244 H2229 0.930 . S
C2244 C2239 1.390 . S
C2244 C2243 1.387 . S
H2245 C2257 0.930 . S
H2246 C2259 0.930 . S
H2247 C2260 0.930 . S
H2248 C2264 0.959 . S
H2249 C2264 0.959 . S
H2250 C2264 0.961 . S
H2251 C2265 0.960 . S
H2252 C2265 0.961 . S
H2253 C2265 0.959 . S
H2254 C2268 0.929 . S
H2255 C2269 0.931 . S
H2256 C2271 0.930 . S
C2257 H2245 0.930 . S
C2257 C2258 1.399 . S
C2257 C2262 1.399 . S
C2258 C2257 1.399 . S
C2258 C2259 1.376 . S
C2259 H2246 0.930 . S
C2259 C2258 1.376 . S
C2259 C2260 1.388 . S
C2260 H2247 0.930 . S
C2260 C2259 1.388 . S
C2260 C2261 1.390 . S
C2261 C2260 1.390 . S
C2261 C2262 1.394 . S
C2261 C2267 1.465 . S
C2262 C2257 1.399 . S
C2262 C2261 1.394 . S
C2262 C2263 1.516 . S
C2263 C2262 1.516 . S
C2263 C2264 1.502 . S
C2263 C2265 1.561 . S
C2263 C2266 1.526 . S
C2264 H2248 0.959 . S
C2264 H2249 0.959 . S
C2264 H2250 0.961 . S
C2264 C2263 1.502 . S
C2265 H2251 0.960 . S
C2265 H2252 0.961 . S
C2265 H2253 0.959 . S
C2265 C2263 1.561 . S
C2266 C2263 1.526 . S
C2266 C2267 1.396 . S
C2266 C2271 1.390 . S
C2267 C2261 1.465 . S
C2267 C2266 1.396 . S
C2267 C2268 1.399 . S
C2268 H2254 0.929 . S
C2268 C2267 1.399 . S
C2268 C2269 1.385 . S
C2269 H2255 0.931 . S
C2269 C2268 1.385 . S
C2269 C2270 1.389 . S
C2270 C2269 1.389 . S
C2270 C2271 1.387 . S
C2271 H2256 0.930 . S
C2271 C2266 1.390 . S
C2271 C2270 1.387 . S
C1421 C137 1.516 . S
C1433 C29 1.506 . S
C1448 C196 1.503 . S
C1460 C293 1.509 . S
C1475 C401 1.500 . S
C1487 C489 1.506 . S
C1502 C645 1.494 . S
C1514 C548 1.505 . S
C1529 C841 1.501 . S
C1541 C753 1.512 . S
C1556 C997 1.500 . S
C1568 C909 1.513 . S
C1583 C1201 1.493 . S
C1595 C1113 1.508 . S
C1610 C1349 1.507 . S
C1622 C1252 1.499 . S
C1637 C313 1.093 . S
C1649 C49 1.138 . S
C1664 C117 1.081 . S
C1676 C233 1.094 . S
C1691 C636 1.121 . S
C1703 C409 1.082 . S
C1718 C557 1.118 . S
C1730 C497 1.156 . S
C1745 C733 1.157 . S
C1757 C1017 1.122 . S
C1772 C929 1.079 . S
C1784 C821 1.111 . S
C1799 C1340 1.136 . S
C1811 C1105 1.080 . S
C1826 C1193 1.118 . S
C1838 C1261 1.156 . S
C1853 C57 1.701 . S
C1865 C812 1.670 . S
C1880 C108 1.706 . S
C1892 C724 1.699 . S
C1907 C1025 1.679 . S
C1919 C225 1.685 . S
C1934 C937 1.714 . S
C1946 C321 1.688 . S
C1961 C1173 1.706 . S
C1973 C372 1.680 . S
C1988 C1085 1.685 . S
C2000 C460 1.705 . S
C2015 C577 1.713 . S
C2027 C1377 1.673 . S
C2042 C673 1.670 . S
C2054 C1281 1.717 . S
C2069 C381 1.103 . S
C2081 C20 1.217 . S
C2096 C469 1.219 . S
C2108 C145 1.100 . S
C2123 C585 1.103 . S
C2135 C205 1.217 . S
C2150 C665 1.105 . S
C2162 C284 1.218 . S
C2177 C761 1.156 . S
C2189 C1076 1.181 . S
C2204 C849 1.109 . S
C2216 C1164 1.196 . S
C2231 C1289 1.095 . S
C2243 C900 1.217 . S
C2258 C1369 1.096 . S
C2270 C988 1.218 . S
