# Generated by pormake.
# Topology qtz-x, (6)-cn, num edge types: 1
# Building blocks:
#     Node 0, Type 0, BuildingBlock: NUHQIS_clean_sbu_0, # of connection points: 6
#     Node 1, Type 0, BuildingBlock: NUHQIS_clean_sbu_0, # of connection points: 6
#     Node 2, Type 0, BuildingBlock: NUHQIS_clean_sbu_0, # of connection points: 6
#     Edge 3, Type (0, 0), BuildingBlock: MIFKUJ_clean_linker_0, # of connection points: 2
#     Edge 4, Type (0, 0), BuildingBlock: MIFKUJ_clean_linker_0, # of connection points: 2
#     Edge 5, Type (0, 0), BuildingBlock: MIFKUJ_clean_linker_0, # of connection points: 2
#     Edge 6, Type (0, 0), BuildingBlock: MIFKUJ_clean_linker_0, # of connection points: 2
#     Edge 7, Type (0, 0), BuildingBlock: MIFKUJ_clean_linker_0, # of connection points: 2
#     Edge 8, Type (0, 0), BuildingBlock: MIFKUJ_clean_linker_0, # of connection points: 2
#     Edge 9, Type (0, 0), BuildingBlock: MIFKUJ_clean_linker_0, # of connection points: 2
#     Edge 10, Type (0, 0), BuildingBlock: MIFKUJ_clean_linker_0, # of connection points: 2
#     Edge 11, Type (0, 0), BuildingBlock: MIFKUJ_clean_linker_0, # of connection points: 2
# Relax obj value: 0.185
# Max RMSD: 0.238
# Mean RMSD: 0.225
data_MOF--net-qtz-x--node1-NUHQIS_clean_sbu_0--edge1-MIFKUJ_clean_linker_0
_symmetry_space_group_name_H-M    P1
_symmetry_Int_Tables_number       1
_symmetry_cell_setting            triclinic
loop_
_symmetry_equiv_pos_as_xyz
'x, y, z'
_cell_length_a     19.6298
_cell_length_b     19.651941
_cell_length_c     65.401047
_cell_angle_alpha  73.964884
_cell_angle_beta   109.5205
_cell_angle_gamma 121.18429
loop_
_atom_site_label
_atom_site_type_symbol
_atom_site_fract_x
_atom_site_fract_y
_atom_site_fract_z
_atom_type_partial_charge
Tb0 Tb 0.95711 0.54276 0.19238 0.0
Eu1 Eu 0.13936 0.65176 0.18036 0.0
C2 C 0.03465 0.7309 0.18064 0.0
C3 C 0.96986 0.59307 0.14253 0.0
C4 C 0.82166 0.432 0.23101 0.0
C5 C 0.73729 0.38445 0.25713 0.0
C6 C 0.7473 0.40966 0.23556 0.0
C7 C 0.88622 0.42957 0.24846 0.0
C8 C 0.87634 0.40442 0.26999 0.0
C9 C 0.80157 0.381 0.27468 0.0
C10 C 0.83139 0.45621 0.20814 0.0
O11 O 0.98184 0.466 0.18097 0.0
O12 O 0.11962 0.52638 0.19466 0.0
O13 O 0.15759 0.67236 0.21422 0.0
O14 O 0.0517 0.55085 0.22252 0.0
C15 C 0.05106 0.46289 0.18824 0.0
O16 O 0.23679 0.65273 0.17112 0.0
O17 O 0.25109 0.76365 0.17656 0.0
O18 O 0.08009 0.73115 0.16977 0.0
O19 O 0.99591 0.66761 0.19378 0.0
O20 O 0.92376 0.57025 0.1565 0.0
O21 O 0.04834 0.61333 0.14884 0.0
C22 C 0.11829 0.61667 0.22852 0.0
O23 O 0.85603 0.53183 0.20054 0.0
O24 O 0.8701 0.42833 0.20301 0.0
C25 C 0.30815 0.76929 0.14909 0.0
C26 C 0.35573 0.82925 0.10888 0.0
C27 C 0.40599 0.80872 0.12776 0.0
C28 C 0.38235 0.77906 0.14765 0.0
C29 C 0.25835 0.79102 0.13048 0.0
C30 C 0.282 0.82092 0.11055 0.0
C31 C 0.28062 0.73051 0.16956 0.0
H32 H 0.67923 0.36816 0.26006 0.0
H33 H 0.69671 0.41129 0.22241 0.0
H34 H 0.94416 0.44601 0.24547 0.0
H35 H 0.92697 0.40167 0.28289 0.0
H36 H 0.46233 0.81281 0.12703 0.0
H37 H 0.42106 0.76169 0.1618 0.0
H38 H 0.20052 0.78343 0.13128 0.0
H39 H 0.2422 0.83681 0.09641 0.0
Tb40 Tb 0.77946 0.11331 0.54918 0.0
Eu41 Eu 0.66371 0.92889 0.5357 0.0
C42 C 0.85704 0.01449 0.54595 0.0
C43 C 0.72246 0.08482 0.49903 0.0
C44 C 0.87486 0.2891 0.57927 0.0
C45 C 0.96503 0.3764 0.60748 0.0
C46 C 0.95385 0.3403 0.59015 0.0
C47 C 0.80691 0.27445 0.58595 0.0
C48 C 0.81804 0.31121 0.60315 0.0
C49 C 0.89724 0.36238 0.61412 0.0
C50 C 0.86499 0.25119 0.56122 0.0
O51 O 0.65716 0.07001 0.55304 0.0
O52 O 0.58581 -0.00984 0.52586 0.0
O53 O 0.66432 0.91642 0.57119 0.0
O54 O 0.78043 0.03452 0.5802 0.0
C55 C 0.58901 0.03199 0.53895 0.0
O56 O 0.54813 0.81773 0.53187 0.0
O57 O 0.65187 0.83018 0.52325 0.0
O58 O 0.79262 0.94828 0.55056 0.0
O59 O 0.85544 0.08311 0.53976 0.0
O60 O 0.74969 0.13399 0.51342 0.0
O61 O 0.69478 0.00705 0.50435 0.0
C62 C 0.72242 0.96325 0.58584 0.0
O63 O 0.88994 0.19727 0.56672 0.0
O64 O 0.7952 0.229 0.54675 0.0
C65 C 0.52301 0.76474 0.50002 0.0
C66 C 0.44338 0.73268 0.45632 0.0
C67 C 0.43428 0.78424 0.46524 0.0
C68 C 0.47409 0.80054 0.48679 0.0
C69 C 0.53052 0.71164 0.49142 0.0
C70 C 0.49129 0.69585 0.46979 0.0
C71 C 0.57317 0.78878 0.52183 0.0
H72 H 0.02669 0.41599 0.61555 0.0
H73 H 1.007 0.35226 0.58526 0.0
H74 H 0.74529 0.23446 0.57797 0.0
H75 H 0.76477 0.29856 0.60811 0.0
H76 H 0.3969 0.8127 0.45551 0.0
H77 H 0.468 0.84258 0.4929 0.0
H78 H 0.56893 0.68432 0.50124 0.0
H79 H 0.50081 0.65682 0.46343 0.0
Tb80 Tb 0.68877 0.76447 0.85995 0.0
Eu81 Eu 0.81109 0.69155 0.86364 0.0
C82 C 0.87277 0.87464 0.86212 0.0
C83 C 0.72269 0.75411 0.81686 0.0
C84 C 0.57693 0.83561 0.87747 0.0
C85 C 0.62349 0.91706 0.90622 0.0
C86 C 0.63809 0.90013 0.88913 0.0
C87 C 0.50049 0.78962 0.88294 0.0
C88 C 0.48609 0.80613 0.90012 0.0
C89 C 0.54767 0.86957 0.91216 0.0
C90 C 0.59233 0.81263 0.86036 0.0
O91 O 0.61842 0.6471 0.84912 0.0
O92 O 0.69632 0.59303 0.87349 0.0
O93 O 0.83578 0.71624 0.89775 0.0
O94 O 0.71317 0.71253 0.89422 0.0
C95 C 0.6248 0.58533 0.8618 0.0
O96 O 0.82461 0.59225 0.86026 0.0
O97 O 0.93274 0.70281 0.86983 0.0
O98 O 0.87106 0.82317 0.85262 0.0
O99 O 0.81371 0.85444 0.87129 0.0
O100 O 0.70592 0.79286 0.82649 0.0
O101 O 0.74805 0.70132 0.82802 0.0
C102 C 0.78089 0.71015 0.90639 0.0
O103 O 0.66187 0.8596 0.85458 0.0
O104 O 0.57336 0.73732 0.86256 0.0
C105 C 0.93427 0.63739 0.84474 0.0
C106 C 0.96306 0.62734 0.80648 0.0
C107 C 0.95956 0.56847 0.82479 0.0
C108 C 0.94518 0.57348 0.84375 0.0
C109 C 0.94119 0.69805 0.82689 0.0
C110 C 0.95591 0.69332 0.80799 0.0
C111 C 0.90384 0.63458 0.86281 0.0
H112 H 0.67192 0.96719 0.91486 0.0
H113 H 0.69768 0.93689 0.88531 0.0
H114 H 0.45233 0.73943 0.87425 0.0
H115 H 0.42739 0.76743 0.90435 0.0
H116 H 0.96366 0.51628 0.82412 0.0
H117 H 0.93877 0.52553 0.85723 0.0
H118 H 0.93188 0.74747 0.82722 0.0
H119 H 0.95939 0.74026 0.79435 0.0
H120 H 0.14841 0.88391 0.17003 0.0
H121 H 0.15066 0.00858 0.1712 0.0
H122 H 0.91947 0.87246 0.18994 0.0
H123 H 0.91759 0.74724 0.18935 0.0
H124 H 0.94084 0.01292 0.1541 0.0
H125 H 0.06289 0.93512 0.22803 0.0
H126 H 0.16084 0.89352 0.25533 0.0
H127 H 0.36169 0.11359 0.23636 0.0
H128 H 0.26481 0.15576 0.20859 0.0
H129 H 0.92126 0.31284 0.18673 0.0
H130 H 0.91952 0.18902 0.18553 0.0
H131 H 0.17868 0.31885 0.1882 0.0
H132 H 0.18132 0.44282 0.19025 0.0
H133 H 0.14517 0.18124 0.21256 0.0
H134 H 0.03031 0.26279 0.13951 0.0
H135 H 0.93752 0.30543 0.11002 0.0
H136 H 0.73031 0.08301 0.12462 0.0
H137 H 0.82179 0.03954 0.15445 0.0
C138 C 0.09766 0.88049 0.17421 0.0
C139 C 0.03286 0.80591 0.17965 0.0
C140 C 0.09923 0.95166 0.17493 0.0
C141 C 0.03541 0.94933 0.18074 0.0
C142 C 0.96922 0.87514 0.18544 0.0
C143 C 0.96841 0.80388 0.18516 0.0
C144 C 0.03912 0.02446 0.18258 0.0
C145 C 0.98466 0.04943 0.16701 0.0
C146 C 0.09821 0.07275 0.19906 0.0
C147 C 0.15655 0.04819 0.21605 0.0
C148 C 0.12792 -0.02568 0.22953 0.0
C149 C 0.18325 0.95067 0.24511 0.0
C150 C 0.26744 0.00078 0.24754 0.0
C151 C 0.29645 0.07477 0.23443 0.0
C152 C 0.24135 0.09858 0.21877 0.0
C153 C 0.97797 0.31506 0.18712 0.0
C154 C 0.05134 0.38768 0.1884 0.0
C155 C 0.97683 0.24423 0.18633 0.0
C156 C 0.0486 0.24479 0.18627 0.0
C157 C 0.12243 0.31693 0.18812 0.0
C158 C 0.12387 0.38775 0.18926 0.0
C159 C 0.04619 0.17019 0.1841 0.0
C160 C 0.10113 0.14515 0.19959 0.0
C161 C 0.98818 0.1223 0.16732 0.0
C162 C 0.93291 0.14825 0.14937 0.0
C163 C 0.96491 0.22323 0.13656 0.0
C164 C 0.91255 0.24752 0.11976 0.0
C165 C 0.82806 0.19705 0.11549 0.0
C166 C 0.79577 0.1221 0.12797 0.0
C167 C 0.84785 0.09759 0.14482 0.0
H168 H 0.78763 0.21595 0.10247 0.0
H169 H 0.31018 -0.01765 0.25961 0.0
H170 H 0.44037 0.97291 0.50982 0.0
H171 H 0.31371 0.96505 0.51151 0.0
H172 H 0.43892 0.07657 0.57074 0.0
H173 H 0.56581 0.08516 0.56918 0.0
H174 H 0.2863 0.94048 0.57304 0.0
H175 H 0.40512 0.18677 0.5255 0.0
H176 H 0.46259 0.26853 0.49348 0.0
H177 H 0.23791 0.12619 0.45057 0.0
H178 H 0.17951 0.04284 0.48238 0.0
H179 H 1.00655 0.14141 0.54288 0.0
H180 H 0.12896 0.13859 0.54271 0.0
H181 H 0.99945 0.8799 0.55001 0.0
H182 H 0.87663 0.88211 0.55067 0.0
H183 H 0.15276 0.0849 0.51436 0.0
H184 H 0.13781 0.80925 0.57654 0.0
H185 H 0.0838 0.73156 0.60933 0.0
H186 H 0.10779 0.94255 0.62489 0.0
H187 H 0.16219 0.02153 0.59222 0.0
C188 C 0.44104 -0.00398 0.52317 0.0
C189 C 0.51317 0.02993 0.53933 0.0
C190 C 0.36866 -0.00863 0.52411 0.0
C191 C 0.36722 0.02017 0.54126 0.0
C192 C 0.43891 0.05372 0.55744 0.0
C193 C 0.51143 0.05908 0.55642 0.0
C194 C 0.29131 0.01678 0.54218 0.0
C195 C 0.2568 0.97181 0.56021 0.0
C196 C 0.25335 0.05789 0.52545 0.0
C197 C 0.2883 0.10806 0.50632 0.0
C198 C 0.36824 0.17248 0.50924 0.0
C199 C 0.40093 0.21919 0.49113 0.0
C200 C 0.35402 0.20242 0.47001 0.0
C201 C 0.27423 0.13902 0.46695 0.0
C202 C 0.24129 0.09207 0.48501 0.0
C203 C 1.00404 0.08379 0.54458 0.0
C204 C 0.93182 0.01195 0.54676 0.0
C205 C 0.07409 0.08233 0.54443 0.0
C206 C 0.07346 0.00911 0.54642 0.0
C207 C 1.00163 0.93709 0.54875 0.0
C208 C 0.93146 0.93847 0.54907 0.0
C209 C 0.14767 0.00911 0.54536 0.0
C210 C 0.18174 0.05309 0.52719 0.0
C211 C 0.18548 0.96757 0.56207 0.0
C212 C 0.15338 0.92105 0.58184 0.0
C213 C 0.13175 0.83908 0.587 0.0
C214 C 0.10104 0.79482 0.60555 0.0
C215 C 0.09236 0.83208 0.61919 0.0
C216 C 0.11434 0.91371 0.61428 0.0
C217 C 0.14491 0.9582 0.59571 0.0
H218 H 0.06871 0.79772 0.63356 0.0
H219 H 0.37942 0.23866 0.45601 0.0
H220 H 0.98677 0.94617 0.83804 0.0
H221 H 0.11591 0.06912 0.84365 0.0
H222 H 0.0543 0.10317 0.89624 0.0
H223 H 0.92339 -0.01986 0.89045 0.0
H224 H 0.12705 0.24245 0.87163 0.0
H225 H 0.17386 0.02321 0.90667 0.0
H226 H 0.17528 0.89447 0.91327 0.0
H227 H 0.32381 -0.01632 0.86697 0.0
H228 H 0.32203 0.11262 0.85969 0.0
H229 H 0.60842 0.4638 0.89545 0.0
H230 H 0.48123 0.34489 0.90184 0.0
H231 H 0.34695 0.41888 0.84104 0.0
H232 H 0.47307 0.53873 0.83491 0.0
H233 H 0.37832 0.22342 0.8808 0.0
H234 H 0.16093 0.37005 0.84421 0.0
H235 H 0.16878 0.50121 0.84192 0.0
H236 H 0.36856 0.55505 0.89871 0.0
H237 H 0.3609 0.42358 0.90164 0.0
C238 C 1.00032 -0.01992 0.8507 0.0
C239 C 0.94577 0.95327 0.86403 0.0
C240 C 0.07413 0.05009 0.85391 0.0
C241 C 0.09514 0.09376 0.8707 0.0
C242 C 0.03911 0.06958 0.88333 0.0
C243 C 0.96459 -0.00044 0.88 0.0
C244 C 0.17681 0.16341 0.87519 0.0
C245 C 0.18217 0.23843 0.87379 0.0
C246 C 0.2487 0.15699 0.87886 0.0
C247 C 0.24758 0.07807 0.88258 0.0
C248 C 0.20594 0.01528 0.89763 0.0
C249 C 0.20701 0.94217 0.90155 0.0
C250 C 0.24963 0.93088 0.89055 0.0
C251 C 0.29094 -0.00743 0.87552 0.0
C252 C 0.28999 0.06579 0.87151 0.0
C253 C 0.55174 0.45433 0.88341 0.0
C254 C 0.55023 0.51034 0.86471 0.0
C255 C 0.47928 0.38675 0.88714 0.0
C256 C 0.40466 0.37426 0.87216 0.0
C257 C 0.40365 0.42876 0.85311 0.0
C258 C 0.47575 0.49672 0.84952 0.0
C259 C 0.32775 0.30273 0.87585 0.0
C260 C 0.32335 0.22726 0.87893 0.0
C261 C 0.25725 0.30852 0.87433 0.0
C262 C 0.26058 0.38691 0.87306 0.0
C263 C 0.20607 0.40949 0.85634 0.0
C264 C 0.21058 0.484 0.8549 0.0
C265 C 0.26925 0.53649 0.87013 0.0
C266 C 0.32325 0.5144 0.8869 0.0
C267 C 0.31885 0.43988 0.88845 0.0
H268 H 0.27282 0.59424 0.86895 0.0
H269 H 0.25071 0.87436 0.89369 0.0
H270 H 0.40699 0.85648 0.9169 0.0
H271 H 0.38206 0.86853 0.94954 0.0
H272 H 0.63291 0.93034 0.98337 0.0
H273 H 0.65688 0.91364 0.95127 0.0
H274 H 0.54512 0.83007 1.00921 0.0
H275 H 0.55423 0.06467 0.9645 0.0
H276 H 0.52681 0.15936 0.93365 0.0
H277 H 0.28202 0.05494 0.94148 0.0
H278 H 0.30574 0.95595 0.97132 0.0
H279 H 0.50816 0.92795 0.10036 0.0
H280 H 0.54714 0.95543 0.06599 0.0
H281 H 0.29426 0.81724 0.03432 0.0
H282 H 0.25468 0.78767 0.06871 0.0
H283 H 0.3948 0.97031 1.00875 0.0
H284 H 0.39851 0.72017 0.05151 0.0
H285 H 0.44519 0.65496 0.08734 0.0
H286 H 0.69504 0.82914 0.08674 0.0
H287 H 0.6497 0.89508 0.05087 0.0
C288 C 0.45684 0.87224 0.9313 0.0
C289 C 0.53395 0.8837 0.93139 0.0
C290 C 0.44276 0.8802 0.94992 0.0
C291 C 0.50574 0.90103 0.96897 0.0
C292 C 0.58319 0.91419 0.96893 0.0
C293 C 0.5971 0.90548 0.95041 0.0
C294 C 0.48968 0.90461 0.98928 0.0
C295 C 0.5131 0.86178 1.00895 0.0
C296 C 0.44836 0.94632 0.98929 0.0
C297 C 0.43157 0.0018 0.97008 0.0
C298 C 0.49373 0.06022 0.95928 0.0
C299 C 0.47877 0.11471 0.9419 0.0
C300 C 0.40243 0.11266 0.93544 0.0
C301 C 0.3407 0.0557 0.94623 0.0
C302 C 0.35471 -1e-05 0.9633 0.0
C303 C 0.46069 0.90363 0.08608 0.0
C304 C 0.37835 0.85477 0.0874 0.0
C305 C 0.48306 0.91999 0.06642 0.0
C306 C 0.42358 0.88796 0.0477 0.0
C307 C 0.34095 0.84286 0.04859 0.0
C308 C 0.3185 0.82614 0.06828 0.0
C309 C 0.44819 0.89446 1.02788 0.0
C310 C 0.42656 0.93896 1.00854 0.0
C311 C 0.49338 0.85684 1.0282 0.0
C312 C 0.52079 0.81245 0.04859 0.0
C313 C 0.46342 0.74405 0.05897 0.0
C314 C 0.4896 0.70717 0.0793 0.0
C315 C 0.57301 0.73816 0.08936 0.0
C316 C 0.63046 0.80528 0.07894 0.0
C317 C 0.60461 0.84212 0.05856 0.0
H318 H 0.59317 0.7098 0.10516 0.0
H319 H 0.39139 0.15568 0.92222 0.0
H320 H 0.6075 0.02196 0.46261 0.0
H321 H 0.61326 0.07396 0.42434 0.0
H322 H 0.852 0.27125 0.4449 0.0
H323 H 0.84274 0.22261 0.48312 0.0
H324 H 0.77974 0.32623 0.41121 0.0
H325 H 0.80546 0.08273 0.42676 0.0
H326 H 0.75904 0.93802 0.43867 0.0
H327 H 0.53987 0.88259 0.38749 0.0
H328 H 0.5843 0.02689 0.37552 0.0
H329 H 0.91335 0.43616 0.3129 0.0
H330 H 0.89605 0.386 0.35037 0.0
H331 H 0.64718 0.21138 0.32634 0.0
H332 H 0.66501 0.25897 0.28887 0.0
H333 H 0.71887 0.1438 0.36086 0.0
H334 H 0.69707 0.38528 0.34345 0.0
H335 H 0.74099 0.5293 0.33132 0.0
H336 H 0.94989 0.58842 0.38574 0.0
H337 H 0.90741 0.44471 0.39814 0.0
C338 C 0.66085 0.07681 0.4589 0.0
C339 C 0.7248 0.11817 0.47583 0.0
C340 C 0.66464 0.10617 0.43697 0.0
C341 C 0.73432 0.17551 0.43147 0.0
C342 C 0.79757 0.21754 0.44849 0.0
C343 C 0.79242 0.18971 0.47039 0.0
C344 C 0.74184 0.20444 0.40814 0.0
C345 C 0.76766 0.28633 0.40036 0.0
C346 C 0.72349 0.15244 0.3935 0.0
C347 C 0.69791 0.06565 0.40038 0.0
C348 C 0.74724 0.03966 0.41811 0.0
C349 C 0.7212 0.9577 0.42489 0.0
C350 C 0.64634 0.90114 0.41392 0.0
C351 C 0.59763 0.92642 0.39604 0.0
C352 C 0.62325 0.00828 0.38924 0.0
C353 C 0.85503 0.38662 0.31552 0.0
C354 C 0.7905 0.35197 0.29767 0.0
C355 C 0.84497 0.35846 0.33703 0.0
C356 C 0.76988 0.29539 0.34129 0.0
C357 C 0.70562 0.26028 0.32356 0.0
C358 C 0.71568 0.28825 0.30205 0.0
C359 C 0.75836 0.26563 0.36418 0.0
C360 C 0.73142 0.18364 0.37179 0.0
C361 C 0.77566 0.31751 0.37865 0.0
C362 C 0.80009 0.40406 0.37146 0.0
C363 C 0.75284 0.42893 0.35272 0.0
C364 C 0.77731 0.51056 0.34583 0.0
C365 C 0.84849 0.56799 0.35766 0.0
C366 C 0.895 0.54389 0.37652 0.0
C367 C 0.87076 0.46234 0.38348 0.0
H368 H 0.86738 0.63116 0.35229 0.0
H369 H 0.62617 0.83774 0.41923 0.0
H370 H 0.78587 0.713 0.79366 0.0
H371 H 0.78411 0.74717 0.75487 0.0
H372 H 0.64391 0.86877 0.74619 0.0
H373 H 0.64837 0.83725 0.78546 0.0
H374 H 0.67695 0.71211 0.7196 0.0
H375 H 0.68216 0.0201 0.70379 0.0
H376 H 0.73352 0.13386 0.72362 0.0
H377 H 0.91729 0.0735 0.76835 0.0
H378 H 0.86782 0.96016 0.7486 0.0
H379 H 0.60039 0.83485 0.60447 0.0
H380 H 0.59772 0.79688 0.64322 0.0
H381 H 0.84136 -0.00768 0.65975 0.0
H382 H 0.84339 0.03196 0.62108 0.0
H383 H 0.75738 -0.00966 0.68244 0.0
H384 H 0.79784 0.78702 0.66972 0.0
H385 H 0.77006 0.67741 0.65168 0.0
H386 H 0.53336 0.53632 0.66666 0.0
H387 H 0.55958 0.6453 0.68469 0.0
C388 C 0.75438 0.74693 0.78357 0.0
C389 C 0.71734 0.77247 0.79282 0.0
C390 C 0.75328 0.76634 0.76125 0.0
C391 C 0.7146 0.81141 0.7474 0.0
C392 C 0.67575 0.83542 0.75648 0.0
C393 C 0.67787 0.81694 0.77897 0.0
C394 C 0.71586 0.83323 0.72361 0.0
C395 C 0.69428 0.77301 0.71151 0.0
C396 C 0.74017 0.9129 0.71292 0.0
C397 C 0.77055 -0.01895 0.72487 0.0
C398 C 0.73363 0.03123 0.71783 0.0
C399 C 0.76242 0.09564 0.72905 0.0
C400 C 0.82841 0.1107 0.74728 0.0
C401 C 0.86596 0.06157 0.75428 0.0
C402 C 0.83751 -0.00281 0.74309 0.0
C403 C 0.65371 0.86942 0.61635 0.0
C404 C 0.72218 0.93646 0.60954 0.0
C405 C 0.65223 0.84742 0.6386 0.0
C406 C 0.71965 0.8911 0.65465 0.0
C407 C 0.7883 0.95757 0.64784 0.0
C408 C 0.7895 -0.01996 0.62562 0.0
C409 C 0.71827 0.8692 0.67843 0.0
C410 C 0.73958 0.92937 0.6905 0.0
C411 C 0.69659 0.79006 0.68929 0.0
C412 C 0.68026 0.72471 0.6783 0.0
C413 C 0.73959 0.73289 0.66899 0.0
C414 C 0.72419 0.67083 0.65881 0.0
C415 C 0.64978 0.60017 0.6579 0.0
C416 C 0.59081 0.59125 0.66728 0.0
C417 C 0.60597 0.65305 0.67753 0.0
H418 H 0.63804 0.55212 0.65005 0.0
H419 H 0.85057 0.16057 0.75595 0.0
H420 H 0.92444 0.77265 0.9369 0.0
H421 H 0.94534 0.74768 0.9767 0.0
H422 H 0.68692 0.5848 0.97019 0.0
H423 H 0.66539 0.615 0.93033 0.0
H424 H 0.72919 0.65521 1.00174 0.0
H425 H 0.85074 0.52597 0.98512 0.0
H426 H 0.94082 0.5138 0.96915 0.0
H427 H 0.15223 0.69313 1.00649 0.0
H428 H 0.06341 0.70712 1.02247 0.0
H429 H 0.81202 0.50728 0.11824 0.0
H430 H 0.76637 0.51698 0.07799 0.0
H431 H 1.00734 0.70892 0.07267 0.0
H432 H 0.05288 0.69811 0.11217 0.0
H433 H 0.96088 0.60439 0.04722 0.0
H434 H 0.82829 0.73148 0.06285 0.0
H435 H 0.73178 0.73086 0.0793 0.0
H436 H 0.5323 0.53861 0.04383 0.0
H437 H 0.62794 0.53679 1.02757 0.0
C438 C 0.87217 0.73171 0.94401 0.0
C439 C 0.7934 0.69549 0.93053 0.0
C440 C 0.88416 0.71669 0.96683 0.0
C441 C 0.8182 0.66218 0.97676 0.0
C442 C 0.73917 0.6268 0.96317 0.0
C443 C 0.72682 0.64393 0.94033 0.0
C444 C 0.8315 0.64281 1.00119 0.0
C445 C 0.77928 0.64296 1.01159 0.0
C446 C 0.89667 0.62659 1.01438 0.0
C447 C 0.95029 0.61801 1.00485 0.0
C448 C 0.9164 0.56312 0.98983 0.0
C449 C 0.96726 0.55588 0.98078 0.0
C450 C 0.05216 0.60278 0.98676 0.0
C451 C 0.08645 0.65689 1.00185 0.0
C452 C 0.03588 0.66443 1.01093 0.0
C453 C 0.85466 0.55189 0.10839 0.0
C454 C 0.93629 0.60124 0.11845 0.0
C455 C 0.82863 0.55754 0.08539 0.0
C456 C 0.88347 0.6137 0.07213 0.0
C457 C 0.96389 0.66447 0.08234 0.0
C458 C 0.9899 0.65819 0.10506 0.0
C459 C 0.86027 0.61935 0.0477 0.0
C460 C 0.91052 0.61617 0.03729 0.0
C461 C 0.79255 0.63121 0.03457 0.0
C462 C 0.7354 0.63335 0.04421 0.0
C463 C 0.76395 0.68869 0.05869 0.0
C464 C 0.70934 0.68883 0.06796 0.0
C465 C 0.62595 0.63461 0.06263 0.0
C466 C 0.59692 0.58041 0.04797 0.0
C467 C 0.65129 0.57974 0.03875 0.0
H468 H 0.58368 0.63434 0.06985 0.0
H469 H 0.09141 0.59708 0.97973 0.0
H470 H 0.188 0.75595 0.24535 0.0
H471 H 0.23595 0.77601 0.28385 0.0
H472 H 0.16985 0.52463 0.30258 0.0
H473 H 0.11574 0.5036 0.264 0.0
H474 H 0.13368 0.56482 0.32896 0.0
H475 H 0.38037 0.69161 0.30211 0.0
H476 H 0.47117 0.78586 0.27731 0.0
H477 H 0.4793 -0.01584 0.29558 0.0
H478 H 0.388 0.89103 0.32034 0.0
H479 H 0.37388 0.59358 0.43829 0.0
H480 H 0.31616 0.5742 0.39975 0.0
H481 H 0.36546 0.82125 0.38281 0.0
H482 H 0.42798 0.8425 0.42108 0.0
H483 H 0.40841 0.78528 0.35564 0.0
H484 H 0.16858 0.65555 0.38494 0.0
H485 H 0.07931 0.55924 0.40987 0.0
H486 H 0.05818 0.36303 0.38689 0.0
H487 H 0.1489 0.4581 0.3622 0.0
C488 C 0.18413 0.70515 0.25774 0.0
C489 C 0.14945 0.62846 0.25179 0.0
C490 C 0.21201 0.71669 0.27977 0.0
C491 C 0.20912 0.6524 0.29628 0.0
C492 C 0.1734 0.57544 0.29025 0.0
C493 C 0.14288 0.56341 0.26821 0.0
C494 C 0.24255 0.66487 0.3198 0.0
C495 C 0.19431 0.61235 0.33481 0.0
C496 C 0.32076 0.72826 0.3275 0.0
C497 C 0.37689 0.7843 0.31293 0.0
C498 C 0.40135 0.75529 0.30078 0.0
C499 C 0.4529 0.80851 0.28674 0.0
C500 C 0.48085 0.89092 0.28484 0.0
C501 C 0.45759 0.92033 0.29706 0.0
C502 C 0.40607 0.86738 0.31112 0.0
C503 C 0.3731 0.64404 0.42637 0.0
C504 C 0.40527 0.71953 0.43291 0.0
C505 C 0.33897 0.63253 0.40432 0.0
C506 C 0.33492 0.69583 0.38835 0.0
C507 C 0.36713 0.77122 0.39482 0.0
C508 C 0.40213 0.78305 0.4168 0.0
C509 C 0.29996 0.68461 0.36481 0.0
C510 C 0.34786 0.7376 0.34979 0.0
C511 C 0.22173 0.62125 0.35716 0.0
C512 C 0.16653 0.56412 0.37192 0.0
C513 C 0.14559 0.59192 0.38535 0.0
C514 C 0.09473 0.53751 0.39945 0.0
C515 C 0.0636 0.45511 0.40007 0.0
C516 C 0.08272 0.42689 0.38648 0.0
C517 C 0.13392 0.48101 0.37245 0.0
H518 H 0.02442 0.41306 0.41103 0.0
H519 H 0.52062 0.932 0.27394 0.0
H520 H 0.88129 0.66022 0.76518 0.0
H521 H 0.87885 0.63177 0.73088 0.0
H522 H 0.04757 0.53706 0.76555 0.0
H523 H 0.05348 0.56884 0.79992 0.0
H524 H 0.08174 0.62342 0.72658 0.0
H525 H 0.84036 0.41249 0.75229 0.0
H526 H 0.71436 0.36117 0.76463 0.0
H527 H 0.61259 0.46517 0.70375 0.0
H528 H 0.73852 0.51788 0.69117 0.0
H529 H 1.00429 0.37086 0.65392 0.0
H530 H 0.02178 0.43029 0.68475 0.0
H531 H 0.8355 0.49981 0.64681 0.0
H532 H 0.81659 0.43869 0.61606 0.0
H533 H 0.81056 0.43672 0.68572 0.0
H534 H 0.04426 0.64025 0.65835 0.0
H535 H 0.17014 0.69657 0.64547 0.0
H536 H 0.28619 0.61408 0.70786 0.0
H537 H 0.16076 0.55645 0.72108 0.0
C538 C 0.91953 0.63514 0.76552 0.0
C539 C 0.96734 0.61644 0.78539 0.0
C540 C 0.9173 0.61809 0.74588 0.0
C541 C 0.96185 0.58095 0.74571 0.0
C542 C 0.01232 0.5653 0.76533 0.0
C543 C 0.01502 0.58281 0.78499 0.0
C544 C 0.95262 0.55456 0.72534 0.0
C545 C 0.02263 0.58206 0.71772 0.0
C546 C 0.87511 0.50251 0.71343 0.0
C547 C 0.79902 0.4697 0.72087 0.0
C548 C 0.79126 0.42474 0.74159 0.0
C549 C 0.71988 0.39539 0.74862 0.0
C550 C 0.65562 0.41012 0.735 0.0
C551 C 0.66248 0.45397 0.71429 0.0
C552 C 0.73376 0.4835 0.70719 0.0
C553 C 0.9677 0.39957 0.6521 0.0
C554 C 0.9092 0.40032 0.6326 0.0
C555 C 0.97793 0.4338 0.6697 0.0
C556 C 0.9309 0.47077 0.66801 0.0
C557 C 0.87258 0.47178 0.64849 0.0
C558 C 0.86169 0.43673 0.63097 0.0
C559 C 0.93992 0.50486 0.68698 0.0
C560 C 0.86976 0.4787 0.69438 0.0
C561 C 0.01723 0.55876 0.69854 0.0
C562 C 0.09283 0.59345 0.69065 0.0
C563 C 0.09641 0.6336 0.66928 0.0
C564 C 0.16771 0.66587 0.66193 0.0
C565 C 0.23599 0.65873 0.67581 0.0
C566 C 0.23322 0.61951 0.69712 0.0
C567 C 0.16209 0.58715 0.70456 0.0
H568 H 0.29111 0.68373 0.67008 0.0
H569 H 0.60043 0.38739 0.74048 0.0
loop_
_geom_bond_atom_site_label_1
_geom_bond_atom_site_label_2
_geom_bond_distance
_geom_bond_site_symmetry_2
_ccdc_geom_bond_type
Tb0 C10 2.825 . S
Tb0 O11 2.347 . S
Tb0 O14 2.366 1_655 S
Tb0 O19 2.418 . S
Tb0 O20 2.384 . S
Tb0 O23 2.479 . S
Tb0 O24 2.471 . S
Eu1 O12 2.418 . S
Eu1 O13 2.384 . S
Eu1 O16 2.479 . S
Eu1 O17 2.471 . S
Eu1 O18 2.347 . S
Eu1 O21 2.366 1_455 S
Eu1 C31 2.825 . S
C2 O18 1.259 1_655 S
C2 O19 1.265 . S
C3 O20 1.255 . S
C3 O21 1.265 . S
C4 C6 1.380 . S
C4 C7 1.374 . S
C4 C10 1.507 . S
C5 C6 1.384 . S
C5 C9 1.387 . S
C5 H32 0.930 . S
C6 C4 1.380 . S
C6 C5 1.384 . S
C6 H33 0.931 . S
C7 C4 1.374 . S
C7 C8 1.390 . S
C7 H34 0.930 . S
C8 C7 1.390 . S
C8 C9 1.391 . S
C8 H35 0.930 . S
C9 C5 1.387 . S
C9 C8 1.391 . S
C10 Tb0 2.825 . S
C10 C4 1.507 . S
C10 O23 1.238 . S
C10 O24 1.247 . S
O11 Tb0 2.347 . S
O11 C15 1.259 1_655 S
O12 Eu1 2.418 . S
O12 C15 1.265 . S
O13 Eu1 2.384 . S
O13 C22 1.255 . S
O14 Tb0 2.366 1_455 S
O14 C22 1.265 . S
C15 O11 1.259 1_455 S
C15 O12 1.265 . S
O16 Eu1 2.479 . S
O16 C31 1.238 . S
O17 Eu1 2.471 . S
O17 C31 1.247 . S
O18 Eu1 2.347 . S
O18 C2 1.259 1_455 S
O19 Tb0 2.418 . S
O19 C2 1.265 . S
O20 Tb0 2.384 . S
O20 C3 1.255 . S
O21 Eu1 2.366 1_655 S
O21 C3 1.265 . S
C22 O13 1.255 . S
C22 O14 1.265 . S
O23 Tb0 2.479 . S
O23 C10 1.238 . S
O24 Tb0 2.471 . S
O24 C10 1.247 . S
C25 C28 1.380 . S
C25 C29 1.374 . S
C25 C31 1.507 . S
C26 C27 1.387 . S
C26 C30 1.391 . S
C27 C26 1.387 . S
C27 C28 1.384 . S
C27 H36 0.930 . S
C28 C25 1.380 . S
C28 C27 1.384 . S
C28 H37 0.931 . S
C29 C25 1.374 . S
C29 C30 1.390 . S
C29 H38 0.930 . S
C30 C26 1.391 . S
C30 C29 1.390 . S
C30 H39 0.930 . S
C31 Eu1 2.825 . S
C31 O16 1.238 . S
C31 O17 1.247 . S
C31 C25 1.507 . S
H32 C5 0.930 . S
H33 C6 0.931 . S
H34 C7 0.930 . S
H35 C8 0.930 . S
H36 C27 0.930 . S
H37 C28 0.931 . S
H38 C29 0.930 . S
H39 C30 0.930 . S
Tb40 C50 2.825 . S
Tb40 O51 2.347 . S
Tb40 O54 2.366 . S
Tb40 O59 2.418 . S
Tb40 O60 2.384 . S
Tb40 O63 2.479 . S
Tb40 O64 2.471 . S
Eu41 O52 2.418 . S
Eu41 O53 2.384 . S
Eu41 O56 2.479 . S
Eu41 O57 2.471 . S
Eu41 O58 2.347 . S
Eu41 O61 2.366 1_565 S
Eu41 C71 2.825 . S
C42 O58 1.259 1_545 S
C42 O59 1.265 . S
C43 O60 1.255 . S
C43 O61 1.265 . S
C44 C46 1.380 . S
C44 C47 1.374 . S
C44 C50 1.507 . S
C45 C46 1.384 . S
C45 C49 1.387 . S
C45 H72 0.930 . S
C46 C44 1.380 . S
C46 C45 1.384 . S
C46 H73 0.931 . S
C47 C44 1.374 . S
C47 C48 1.390 . S
C47 H74 0.930 . S
C48 C47 1.390 . S
C48 C49 1.391 . S
C48 H75 0.930 . S
C49 C45 1.387 . S
C49 C48 1.391 . S
C50 Tb40 2.825 . S
C50 C44 1.507 . S
C50 O63 1.238 . S
C50 O64 1.247 . S
O51 Tb40 2.347 . S
O51 C55 1.259 1_545 S
O52 Eu41 2.418 . S
O52 C55 1.265 . S
O53 Eu41 2.384 . S
O53 C62 1.255 . S
O54 Tb40 2.366 . S
O54 C62 1.265 1_545 S
C55 O51 1.259 1_565 S
C55 O52 1.265 . S
O56 Eu41 2.479 . S
O56 C71 1.238 . S
O57 Eu41 2.471 . S
O57 C71 1.247 . S
O58 Eu41 2.347 . S
O58 C42 1.259 1_565 S
O59 Tb40 2.418 . S
O59 C42 1.265 . S
O60 Tb40 2.384 . S
O60 C43 1.255 . S
O61 Eu41 2.366 1_545 S
O61 C43 1.265 . S
C62 O53 1.255 . S
C62 O54 1.265 1_565 S
O63 Tb40 2.479 . S
O63 C50 1.238 . S
O64 Tb40 2.471 . S
O64 C50 1.247 . S
C65 C68 1.380 . S
C65 C69 1.374 . S
C65 C71 1.507 . S
C66 C67 1.387 . S
C66 C70 1.391 . S
C67 C66 1.387 . S
C67 C68 1.384 . S
C67 H76 0.930 . S
C68 C65 1.380 . S
C68 C67 1.384 . S
C68 H77 0.931 . S
C69 C65 1.374 . S
C69 C70 1.390 . S
C69 H78 0.930 . S
C70 C66 1.391 . S
C70 C69 1.390 . S
C70 H79 0.930 . S
C71 Eu41 2.825 . S
C71 O56 1.238 . S
C71 O57 1.247 . S
C71 C65 1.507 . S
H72 C45 0.930 . S
H73 C46 0.931 . S
H74 C47 0.930 . S
H75 C48 0.930 . S
H76 C67 0.930 . S
H77 C68 0.931 . S
H78 C69 0.930 . S
H79 C70 0.930 . S
Tb80 C90 2.825 . S
Tb80 O91 2.347 . S
Tb80 O94 2.366 . S
Tb80 O99 2.418 . S
Tb80 O100 2.384 . S
Tb80 O103 2.479 . S
Tb80 O104 2.471 . S
Eu81 O92 2.418 . S
Eu81 O93 2.384 . S
Eu81 O96 2.479 . S
Eu81 O97 2.471 . S
Eu81 O98 2.347 . S
Eu81 O101 2.366 . S
Eu81 C111 2.825 . S
C82 O98 1.259 . S
C82 O99 1.265 . S
C83 O100 1.255 . S
C83 O101 1.265 . S
C84 C86 1.380 . S
C84 C87 1.374 . S
C84 C90 1.507 . S
C85 C86 1.384 1_545 S
C85 C89 1.387 1_545 S
C85 H112 0.930 . S
C86 C84 1.380 . S
C86 C85 1.384 1_565 S
C86 H113 0.931 1_565 S
C87 C84 1.374 . S
C87 C88 1.390 . S
C87 H114 0.930 . S
C88 C87 1.390 . S
C88 C89 1.391 . S
C88 H115 0.930 . S
C89 C85 1.387 1_565 S
C89 C88 1.391 . S
C90 Tb80 2.825 . S
C90 C84 1.507 . S
C90 O103 1.238 . S
C90 O104 1.247 . S
O91 Tb80 2.347 . S
O91 C95 1.259 . S
O92 Eu81 2.418 . S
O92 C95 1.265 . S
O93 Eu81 2.384 . S
O93 C102 1.255 . S
O94 Tb80 2.366 . S
O94 C102 1.265 . S
C95 O91 1.259 . S
C95 O92 1.265 . S
O96 Eu81 2.479 . S
O96 C111 1.238 . S
O97 Eu81 2.471 . S
O97 C111 1.247 . S
O98 Eu81 2.347 . S
O98 C82 1.259 . S
O99 Tb80 2.418 . S
O99 C82 1.265 . S
O100 Tb80 2.384 . S
O100 C83 1.255 . S
O101 Eu81 2.366 . S
O101 C83 1.265 . S
C102 O93 1.255 . S
C102 O94 1.265 . S
O103 Tb80 2.479 . S
O103 C90 1.238 . S
O104 Tb80 2.471 . S
O104 C90 1.247 . S
C105 C108 1.380 . S
C105 C109 1.374 . S
C105 C111 1.507 . S
C106 C107 1.387 . S
C106 C110 1.391 . S
C107 C106 1.387 . S
C107 C108 1.384 . S
C107 H116 0.930 . S
C108 C105 1.380 . S
C108 C107 1.384 . S
C108 H117 0.931 . S
C109 C105 1.374 . S
C109 C110 1.390 . S
C109 H118 0.930 . S
C110 C106 1.391 . S
C110 C109 1.390 . S
C110 H119 0.930 1_655 S
C111 Eu81 2.825 . S
C111 O96 1.238 . S
C111 O97 1.247 . S
C111 C105 1.507 . S
H112 C85 0.930 . S
H113 C86 0.931 1_545 S
H114 C87 0.930 . S
H115 C88 0.930 . S
H116 C107 0.930 . S
H117 C108 0.931 . S
H118 C109 0.930 . S
H119 C110 0.930 1_455 S
H120 C138 0.951 . S
H121 C140 0.951 1_545 S
H122 C142 0.950 . S
H123 C143 0.950 . S
H124 C145 0.950 . S
H125 C148 0.950 1_565 S
H126 C149 0.950 . S
H127 C151 0.950 . S
H128 C152 0.950 . S
H129 C153 0.951 . S
H130 C155 0.951 . S
H131 C157 0.950 . S
H132 C158 0.950 . S
H133 C160 0.950 . S
H134 C163 0.950 . S
H135 C164 0.950 . S
H136 C166 0.950 . S
H137 C167 0.950 . S
C138 H120 0.951 . S
C138 C139 1.366 . S
C138 C140 1.388 . S
C139 C138 1.366 . S
C139 C143 1.385 1_455 S
C140 H121 0.951 1_565 S
C140 C138 1.388 . S
C140 C141 1.366 . S
C141 C140 1.366 . S
C141 C142 1.414 1_455 S
C141 C144 1.495 1_465 S
C142 H122 0.950 . S
C142 C141 1.414 1_655 S
C142 C143 1.374 . S
C143 H123 0.950 . S
C143 C139 1.385 1_655 S
C143 C142 1.374 . S
C144 C141 1.495 1_645 S
C144 C145 1.377 . S
C144 C146 1.389 1_655 S
C145 H124 0.950 . S
C145 C144 1.377 . S
C145 C161 1.377 . S
C146 C144 1.389 1_455 S
C146 C147 1.524 . S
C146 C160 1.377 . S
C147 C146 1.524 . S
C147 C148 1.397 . S
C147 C152 1.363 . S
C148 H125 0.950 1_545 S
C148 C147 1.397 . S
C148 C149 1.334 1_545 S
C149 H126 0.950 . S
C149 C148 1.334 1_565 S
C149 C150 1.287 1_565 S
C150 C149 1.287 1_545 S
C150 C151 1.524 . S
C150 H169 0.913 . S
C151 H127 0.950 . S
C151 C150 1.524 . S
C151 C152 1.415 . S
C152 H128 0.950 . S
C152 C147 1.363 . S
C152 C151 1.415 . S
C153 H129 0.951 . S
C153 C154 1.366 . S
C153 C155 1.388 . S
C154 C153 1.366 . S
C154 C158 1.385 1_655 S
C155 H130 0.951 . S
C155 C153 1.388 . S
C155 C156 1.366 . S
C156 C155 1.366 . S
C156 C157 1.414 1_655 S
C156 C159 1.493 1_655 S
C157 H131 0.950 . S
C157 C156 1.414 1_455 S
C157 C158 1.374 . S
C158 H132 0.950 . S
C158 C154 1.385 1_455 S
C158 C157 1.374 . S
C159 C156 1.493 1_455 S
C159 C160 1.380 . S
C159 C161 1.388 1_455 S
C160 H133 0.950 . S
C160 C146 1.377 . S
C160 C159 1.380 . S
C161 C145 1.377 . S
C161 C159 1.388 1_655 S
C161 C162 1.524 . S
C162 C161 1.524 . S
C162 C163 1.397 . S
C162 C167 1.363 . S
C163 H134 0.950 . S
C163 C162 1.397 . S
C163 C164 1.334 . S
C164 H135 0.950 . S
C164 C163 1.334 . S
C164 C165 1.287 . S
C165 C164 1.287 . S
C165 C166 1.524 . S
C165 H168 0.999 . S
C166 H136 0.950 . S
C166 C165 1.524 . S
C166 C167 1.415 . S
C167 H137 0.950 . S
C167 C162 1.363 . S
C167 C166 1.415 . S
H168 C165 0.999 . S
H169 C150 0.913 . S
H170 C188 0.952 . S
H171 C190 0.949 . S
H172 C192 0.950 . S
H173 C193 0.950 . S
H174 C195 0.950 . S
H175 C198 0.950 . S
H176 C199 0.950 . S
H177 C201 0.950 . S
H178 C202 0.950 . S
H179 C203 0.951 . S
H180 C205 0.951 . S
H181 C207 0.950 . S
H182 C208 0.950 . S
H183 C210 0.950 . S
H184 C213 0.950 1_655 S
H185 C214 0.950 . S
H186 C216 0.950 . S
H187 C217 0.950 . S
C188 H170 0.952 . S
C188 C189 1.366 . S
C188 C190 1.388 . S
C189 C188 1.366 . S
C189 C193 1.385 . S
C190 H171 0.949 . S
C190 C188 1.388 . S
C190 C191 1.366 . S
C191 C190 1.366 . S
C191 C192 1.414 . S
C191 C194 1.499 . S
C192 H172 0.950 . S
C192 C191 1.414 . S
C192 C193 1.374 . S
C193 H173 0.950 . S
C193 C189 1.385 . S
C193 C192 1.374 . S
C194 C191 1.499 . S
C194 C195 1.373 1_545 S
C194 C196 1.389 . S
C195 H174 0.950 . S
C195 C194 1.373 1_565 S
C195 C211 1.377 . S
C196 C194 1.389 . S
C196 C197 1.524 . S
C196 C210 1.377 . S
C197 C196 1.524 . S
C197 C198 1.397 . S
C197 C202 1.363 . S
C198 H175 0.950 . S
C198 C197 1.397 . S
C198 C199 1.334 . S
C199 H176 0.950 . S
C199 C198 1.334 . S
C199 C200 1.287 . S
C200 C199 1.287 . S
C200 C201 1.524 . S
C200 H219 0.913 . S
C201 H177 0.950 . S
C201 C200 1.524 . S
C201 C202 1.415 . S
C202 H178 0.950 . S
C202 C197 1.363 . S
C202 C201 1.415 . S
C203 H179 0.951 . S
C203 C204 1.366 1_545 S
C203 C205 1.388 1_655 S
C204 C203 1.366 1_565 S
C204 C208 1.385 . S
C205 H180 0.951 . S
C205 C203 1.388 1_455 S
C205 C206 1.366 1_545 S
C206 C205 1.366 1_565 S
C206 C207 1.414 1_455 S
C206 C209 1.499 . S
C207 H181 0.950 . S
C207 C206 1.414 1_655 S
C207 C208 1.374 . S
C208 H182 0.950 . S
C208 C204 1.385 . S
C208 C207 1.374 . S
C209 C206 1.499 . S
C209 C210 1.373 1_565 S
C209 C211 1.389 . S
C210 H183 0.950 . S
C210 C196 1.377 . S
C210 C209 1.373 1_545 S
C211 C195 1.377 . S
C211 C209 1.389 . S
C211 C212 1.524 . S
C212 C211 1.524 . S
C212 C213 1.397 . S
C212 C217 1.363 . S
C213 H184 0.950 1_455 S
C213 C212 1.397 . S
C213 C214 1.334 1_455 S
C214 H185 0.950 . S
C214 C213 1.334 1_655 S
C214 C215 1.287 1_655 S
C215 C214 1.287 1_455 S
C215 C216 1.524 . S
C215 H218 0.999 1_455 S
C216 H186 0.950 . S
C216 C215 1.524 . S
C216 C217 1.415 . S
C217 H187 0.950 . S
C217 C212 1.363 . S
C217 C216 1.415 . S
H218 C215 0.999 1_655 S
H219 C200 0.913 . S
H220 C238 0.951 . S
H221 C240 0.951 . S
H222 C242 0.950 . S
H223 C243 0.950 . S
H224 C245 0.950 . S
H225 C248 0.950 . S
H226 C249 0.950 . S
H227 C251 0.950 . S
H228 C252 0.950 . S
H229 C253 0.951 . S
H230 C255 0.951 . S
H231 C257 0.950 . S
H232 C258 0.950 . S
H233 C260 0.950 . S
H234 C263 0.950 . S
H235 C264 0.950 . S
H236 C266 0.950 . S
H237 C267 0.950 . S
C238 H220 0.951 . S
C238 C239 1.366 1_455 S
C238 C240 1.388 . S
C239 C238 1.366 1_655 S
C239 C243 1.385 1_655 S
C240 H221 0.951 . S
C240 C238 1.388 . S
C240 C241 1.366 . S
C241 C240 1.366 . S
C241 C242 1.414 . S
C241 C244 1.499 . S
C242 H222 0.950 . S
C242 C241 1.414 . S
C242 C243 1.374 . S
C243 H223 0.950 . S
C243 C239 1.385 1_455 S
C243 C242 1.374 . S
C244 C241 1.499 . S
C244 C245 1.373 . S
C244 C246 1.389 . S
C245 H224 0.950 . S
C245 C244 1.373 . S
C245 C261 1.377 . S
C246 C244 1.389 . S
C246 C247 1.524 . S
C246 C260 1.377 . S
C247 C246 1.524 . S
C247 C248 1.397 . S
C247 C252 1.363 . S
C248 H225 0.950 . S
C248 C247 1.397 . S
C248 C249 1.334 . S
C249 H226 0.950 . S
C249 C248 1.334 . S
C249 C250 1.287 . S
C250 C249 1.287 . S
C250 C251 1.524 . S
C250 H269 0.913 . S
C251 H227 0.950 . S
C251 C250 1.524 . S
C251 C252 1.415 . S
C252 H228 0.950 . S
C252 C247 1.363 . S
C252 C251 1.415 . S
C253 H229 0.951 . S
C253 C254 1.366 . S
C253 C255 1.388 . S
C254 C253 1.366 . S
C254 C258 1.385 . S
C255 H230 0.951 . S
C255 C253 1.388 . S
C255 C256 1.366 . S
C256 C255 1.366 . S
C256 C257 1.414 . S
C256 C259 1.499 . S
C257 H231 0.950 . S
C257 C256 1.414 . S
C257 C258 1.374 . S
C258 H232 0.950 . S
C258 C254 1.385 . S
C258 C257 1.374 . S
C259 C256 1.499 . S
C259 C260 1.373 . S
C259 C261 1.389 . S
C260 H233 0.950 . S
C260 C246 1.377 . S
C260 C259 1.373 . S
C261 C245 1.377 . S
C261 C259 1.389 . S
C261 C262 1.524 . S
C262 C261 1.524 . S
C262 C263 1.397 . S
C262 C267 1.363 . S
C263 H234 0.950 . S
C263 C262 1.397 . S
C263 C264 1.334 . S
C264 H235 0.950 . S
C264 C263 1.334 . S
C264 C265 1.287 . S
C265 C264 1.287 . S
C265 C266 1.524 . S
C265 H268 0.999 . S
C266 H236 0.950 . S
C266 C265 1.524 . S
C266 C267 1.415 . S
C267 H237 0.950 . S
C267 C262 1.363 . S
C267 C266 1.415 . S
H268 C265 0.999 . S
H269 C250 0.913 . S
H270 C288 0.951 . S
H271 C290 0.951 . S
H272 C292 0.950 . S
H273 C293 0.950 . S
H274 C295 0.950 . S
H275 C298 0.950 . S
H276 C299 0.950 . S
H277 C301 0.950 . S
H278 C302 0.950 1_565 S
H279 C303 0.951 . S
H280 C305 0.951 . S
H281 C307 0.950 1_556 S
H282 C308 0.950 . S
H283 C310 0.950 . S
H284 C313 0.950 . S
H285 C314 0.950 . S
H286 C316 0.950 . S
H287 C317 0.950 . S
C288 H270 0.951 . S
C288 C289 1.366 . S
C288 C290 1.388 . S
C289 C288 1.366 . S
C289 C293 1.385 . S
C290 H271 0.951 . S
C290 C288 1.388 . S
C290 C291 1.366 . S
C291 C290 1.366 . S
C291 C292 1.414 . S
C291 C294 1.499 . S
C292 H272 0.950 . S
C292 C291 1.414 . S
C292 C293 1.374 . S
C293 H273 0.950 . S
C293 C289 1.385 . S
C293 C292 1.374 . S
C294 C291 1.499 . S
C294 C295 1.373 . S
C294 C296 1.389 . S
C295 H274 0.950 . S
C295 C294 1.373 . S
C295 C311 1.377 1_556 S
C296 C294 1.389 . S
C296 C297 1.524 1_565 S
C296 C310 1.377 . S
C297 C296 1.524 1_545 S
C297 C298 1.397 . S
C297 C302 1.363 . S
C298 H275 0.950 . S
C298 C297 1.397 . S
C298 C299 1.334 . S
C299 H276 0.950 . S
C299 C298 1.334 . S
C299 C300 1.287 . S
C300 C299 1.287 . S
C300 C301 1.524 . S
C300 H319 0.913 . S
C301 H277 0.950 . S
C301 C300 1.524 . S
C301 C302 1.415 . S
C302 H278 0.950 1_545 S
C302 C297 1.363 . S
C302 C301 1.415 . S
C303 H279 0.951 . S
C303 C304 1.366 . S
C303 C305 1.388 . S
C304 C303 1.366 . S
C304 C308 1.385 . S
C305 H280 0.951 . S
C305 C303 1.388 . S
C305 C306 1.366 . S
C306 C305 1.366 . S
C306 C307 1.414 . S
C306 C309 1.446 1_554 S
C307 H281 0.950 1_554 S
C307 C306 1.414 . S
C307 C308 1.374 . S
C308 H282 0.950 . S
C308 C304 1.385 . S
C308 C307 1.374 . S
C309 C306 1.446 1_556 S
C309 C310 1.416 . S
C309 C311 1.401 1_556 S
C310 H283 0.950 . S
C310 C296 1.377 . S
C310 C309 1.416 . S
C311 C295 1.377 1_554 S
C311 C309 1.401 1_554 S
C311 C312 1.524 . S
C312 C311 1.524 . S
C312 C313 1.397 . S
C312 C317 1.363 . S
C313 H284 0.950 . S
C313 C312 1.397 . S
C313 C314 1.334 . S
C314 H285 0.950 . S
C314 C313 1.334 . S
C314 C315 1.287 . S
C315 C314 1.287 . S
C315 C316 1.524 . S
C315 H318 0.999 . S
C316 H286 0.950 . S
C316 C315 1.524 . S
C316 C317 1.415 . S
C317 H287 0.950 . S
C317 C312 1.363 . S
C317 C316 1.415 . S
H318 C315 0.999 . S
H319 C300 0.913 . S
H320 C338 0.951 . S
H321 C340 0.951 . S
H322 C342 0.950 . S
H323 C343 0.950 . S
H324 C345 0.950 . S
H325 C348 0.950 . S
H326 C349 0.950 . S
H327 C351 0.950 . S
H328 C352 0.950 . S
H329 C353 0.951 . S
H330 C355 0.951 . S
H331 C357 0.950 . S
H332 C358 0.950 . S
H333 C360 0.950 . S
H334 C363 0.950 . S
H335 C364 0.950 . S
H336 C366 0.950 1_455 S
H337 C367 0.950 . S
C338 H320 0.951 . S
C338 C339 1.366 . S
C338 C340 1.388 . S
C339 C338 1.366 . S
C339 C343 1.385 . S
C340 H321 0.951 . S
C340 C338 1.388 . S
C340 C341 1.366 . S
C341 C340 1.366 . S
C341 C342 1.414 . S
C341 C344 1.499 . S
C342 H322 0.950 . S
C342 C341 1.414 . S
C342 C343 1.374 . S
C343 H323 0.950 . S
C343 C339 1.385 . S
C343 C342 1.374 . S
C344 C341 1.499 . S
C344 C345 1.373 . S
C344 C346 1.389 . S
C345 H324 0.950 . S
C345 C344 1.373 . S
C345 C361 1.377 . S
C346 C344 1.389 . S
C346 C347 1.524 . S
C346 C360 1.377 . S
C347 C346 1.524 . S
C347 C348 1.397 . S
C347 C352 1.363 . S
C348 H325 0.950 . S
C348 C347 1.397 . S
C348 C349 1.334 1_545 S
C349 H326 0.950 . S
C349 C348 1.334 1_565 S
C349 C350 1.287 . S
C350 C349 1.287 . S
C350 C351 1.524 . S
C350 H369 0.913 . S
C351 H327 0.950 . S
C351 C350 1.524 . S
C351 C352 1.415 1_565 S
C352 H328 0.950 . S
C352 C347 1.363 . S
C352 C351 1.415 1_545 S
C353 H329 0.951 . S
C353 C354 1.366 . S
C353 C355 1.388 . S
C354 C353 1.366 . S
C354 C358 1.385 . S
C355 H330 0.951 . S
C355 C353 1.388 . S
C355 C356 1.366 . S
C356 C355 1.366 . S
C356 C357 1.414 . S
C356 C359 1.499 . S
C357 H331 0.950 . S
C357 C356 1.414 . S
C357 C358 1.374 . S
C358 H332 0.950 . S
C358 C354 1.385 . S
C358 C357 1.374 . S
C359 C356 1.499 . S
C359 C360 1.373 . S
C359 C361 1.389 . S
C360 H333 0.950 . S
C360 C346 1.377 . S
C360 C359 1.373 . S
C361 C345 1.377 . S
C361 C359 1.389 . S
C361 C362 1.524 . S
C362 C361 1.524 . S
C362 C363 1.397 . S
C362 C367 1.363 . S
C363 H334 0.950 . S
C363 C362 1.397 . S
C363 C364 1.334 . S
C364 H335 0.950 . S
C364 C363 1.334 . S
C364 C365 1.287 . S
C365 C364 1.287 . S
C365 C366 1.524 . S
C365 H368 0.999 . S
C366 H336 0.950 1_655 S
C366 C365 1.524 . S
C366 C367 1.415 . S
C367 H337 0.950 . S
C367 C362 1.363 . S
C367 C366 1.415 . S
H368 C365 0.999 . S
H369 C350 0.913 . S
H370 C388 0.951 . S
H371 C390 0.951 . S
H372 C392 0.950 . S
H373 C393 0.950 . S
H374 C395 0.950 . S
H375 C398 0.950 . S
H376 C399 0.950 . S
H377 C401 0.950 . S
H378 C402 0.950 . S
H379 C403 0.951 . S
H380 C405 0.951 . S
H381 C407 0.950 . S
H382 C408 0.950 . S
H383 C410 0.950 1_545 S
H384 C413 0.950 . S
H385 C414 0.950 . S
H386 C416 0.950 . S
H387 C417 0.950 . S
C388 H370 0.951 . S
C388 C389 1.366 . S
C388 C390 1.388 . S
C389 C388 1.366 . S
C389 C393 1.385 . S
C390 H371 0.951 . S
C390 C388 1.388 . S
C390 C391 1.366 . S
C391 C390 1.366 . S
C391 C392 1.414 . S
C391 C394 1.499 . S
C392 H372 0.950 . S
C392 C391 1.414 . S
C392 C393 1.374 . S
C393 H373 0.950 . S
C393 C389 1.385 . S
C393 C392 1.374 . S
C394 C391 1.499 . S
C394 C395 1.373 . S
C394 C396 1.389 . S
C395 H374 0.950 . S
C395 C394 1.373 . S
C395 C411 1.377 . S
C396 C394 1.389 . S
C396 C397 1.524 1_565 S
C396 C410 1.377 . S
C397 C396 1.524 1_545 S
C397 C398 1.397 . S
C397 C402 1.363 . S
C398 H375 0.950 . S
C398 C397 1.397 . S
C398 C399 1.334 . S
C399 H376 0.950 . S
C399 C398 1.334 . S
C399 C400 1.287 . S
C400 C399 1.287 . S
C400 C401 1.524 . S
C400 H419 0.913 . S
C401 H377 0.950 . S
C401 C400 1.524 . S
C401 C402 1.415 . S
C402 H378 0.950 . S
C402 C397 1.363 . S
C402 C401 1.415 . S
C403 H379 0.951 . S
C403 C404 1.366 . S
C403 C405 1.388 . S
C404 C403 1.366 . S
C404 C408 1.385 . S
C405 H380 0.951 . S
C405 C403 1.388 . S
C405 C406 1.366 . S
C406 C405 1.366 . S
C406 C407 1.414 . S
C406 C409 1.499 . S
C407 H381 0.950 . S
C407 C406 1.414 . S
C407 C408 1.374 . S
C408 H382 0.950 . S
C408 C404 1.385 . S
C408 C407 1.374 . S
C409 C406 1.499 . S
C409 C410 1.373 . S
C409 C411 1.389 . S
C410 H383 0.950 1_565 S
C410 C396 1.377 . S
C410 C409 1.373 . S
C411 C395 1.377 . S
C411 C409 1.389 . S
C411 C412 1.524 . S
C412 C411 1.524 . S
C412 C413 1.397 . S
C412 C417 1.363 . S
C413 H384 0.950 . S
C413 C412 1.397 . S
C413 C414 1.334 . S
C414 H385 0.950 . S
C414 C413 1.334 . S
C414 C415 1.287 . S
C415 C414 1.287 . S
C415 C416 1.524 . S
C415 H418 0.999 . S
C416 H386 0.950 . S
C416 C415 1.524 . S
C416 C417 1.415 . S
C417 H387 0.950 . S
C417 C412 1.363 . S
C417 C416 1.415 . S
H418 C415 0.999 . S
H419 C400 0.913 . S
H420 C438 0.951 . S
H421 C440 0.951 . S
H422 C442 0.950 . S
H423 C443 0.950 . S
H424 C445 0.950 . S
H425 C448 0.950 . S
H426 C449 0.950 1_655 S
H427 C451 0.950 . S
H428 C452 0.997 . S
H429 C453 0.951 . S
H430 C455 0.951 . S
H431 C457 0.950 1_455 S
H432 C458 0.950 1_455 S
H433 C460 0.950 . S
H434 C463 0.950 . S
H435 C464 0.950 . S
H436 C466 0.950 . S
H437 C467 0.931 1_556 S
C438 H420 0.951 . S
C438 C439 1.366 . S
C438 C440 1.388 . S
C439 C438 1.366 . S
C439 C443 1.385 . S
C440 H421 0.951 . S
C440 C438 1.388 . S
C440 C441 1.366 . S
C441 C440 1.366 . S
C441 C442 1.414 . S
C441 C444 1.499 . S
C442 H422 0.950 . S
C442 C441 1.414 . S
C442 C443 1.374 . S
C443 H423 0.950 . S
C443 C439 1.385 . S
C443 C442 1.374 . S
C444 C441 1.499 . S
C444 C445 1.373 . S
C444 C446 1.389 . S
C445 H424 0.950 . S
C445 C444 1.373 . S
C445 C461 1.377 1_556 S
C446 C444 1.389 . S
C446 C447 1.524 . S
C446 C460 1.377 1_556 S
C447 C446 1.524 . S
C447 C448 1.397 . S
C447 C452 1.363 1_655 S
C448 H425 0.950 . S
C448 C447 1.397 . S
C448 C449 1.334 1_655 S
C449 H426 0.950 1_455 S
C449 C448 1.334 1_455 S
C449 C450 1.287 . S
C450 C449 1.287 . S
C450 C451 1.524 . S
C450 H469 0.913 . S
C451 H427 0.950 . S
C451 C450 1.524 . S
C451 C452 1.415 . S
C452 H428 0.997 . S
C452 C447 1.363 1_455 S
C452 C451 1.415 . S
C453 H429 0.951 . S
C453 C454 1.366 . S
C453 C455 1.388 . S
C454 C453 1.366 . S
C454 C458 1.385 . S
C455 H430 0.951 . S
C455 C453 1.388 . S
C455 C456 1.366 . S
C456 C455 1.366 . S
C456 C457 1.414 . S
C456 C459 1.499 . S
C457 H431 0.950 1_655 S
C457 C456 1.414 . S
C457 C458 1.374 . S
C458 H432 0.950 1_655 S
C458 C454 1.385 . S
C458 C457 1.374 . S
C459 C456 1.499 . S
C459 C460 1.373 . S
C459 C461 1.389 . S
C460 H433 0.950 . S
C460 C446 1.377 1_554 S
C460 C459 1.373 . S
C461 C445 1.377 1_554 S
C461 C459 1.389 . S
C461 C462 1.524 . S
C462 C461 1.524 . S
C462 C463 1.397 . S
C462 C467 1.368 . S
C463 H434 0.950 . S
C463 C462 1.397 . S
C463 C464 1.334 . S
C464 H435 0.950 . S
C464 C463 1.334 . S
C464 C465 1.287 . S
C465 C464 1.287 . S
C465 C466 1.524 . S
C465 H468 0.999 . S
C466 H436 0.950 . S
C466 C465 1.524 . S
C466 C467 1.429 . S
C467 H437 0.931 1_554 S
C467 C462 1.368 . S
C467 C466 1.429 . S
H468 C465 0.999 . S
H469 C450 0.913 . S
H470 C488 0.951 . S
H471 C490 0.951 . S
H472 C492 0.950 . S
H473 C493 0.950 . S
H474 C495 0.950 . S
H475 C498 0.950 . S
H476 C499 0.950 . S
H477 C501 0.950 1_545 S
H478 C502 0.950 . S
H479 C503 0.951 . S
H480 C505 0.951 . S
H481 C507 0.950 . S
H482 C508 0.950 . S
H483 C510 0.950 . S
H484 C513 0.950 . S
H485 C514 0.950 . S
H486 C516 0.950 . S
H487 C517 0.950 . S
C488 H470 0.951 . S
C488 C489 1.366 . S
C488 C490 1.388 . S
C489 C488 1.366 . S
C489 C493 1.385 . S
C490 H471 0.951 . S
C490 C488 1.388 . S
C490 C491 1.366 . S
C491 C490 1.366 . S
C491 C492 1.414 . S
C491 C494 1.499 . S
C492 H472 0.950 . S
C492 C491 1.414 . S
C492 C493 1.374 . S
C493 H473 0.950 . S
C493 C489 1.385 . S
C493 C492 1.374 . S
C494 C491 1.499 . S
C494 C495 1.373 . S
C494 C496 1.389 . S
C495 H474 0.950 . S
C495 C494 1.373 . S
C495 C511 1.377 . S
C496 C494 1.389 . S
C496 C497 1.524 . S
C496 C510 1.377 . S
C497 C496 1.524 . S
C497 C498 1.397 . S
C497 C502 1.363 . S
C498 H475 0.950 . S
C498 C497 1.397 . S
C498 C499 1.334 . S
C499 H476 0.950 . S
C499 C498 1.334 . S
C499 C500 1.287 . S
C500 C499 1.287 . S
C500 C501 1.524 . S
C500 H519 0.913 1_565 S
C501 H477 0.950 1_565 S
C501 C500 1.524 . S
C501 C502 1.415 . S
C502 H478 0.950 . S
C502 C497 1.363 . S
C502 C501 1.415 . S
C503 H479 0.951 . S
C503 C504 1.366 . S
C503 C505 1.388 . S
C504 C503 1.366 . S
C504 C508 1.385 . S
C505 H480 0.951 . S
C505 C503 1.388 . S
C505 C506 1.366 . S
C506 C505 1.366 . S
C506 C507 1.414 . S
C506 C509 1.499 . S
C507 H481 0.950 . S
C507 C506 1.414 . S
C507 C508 1.374 . S
C508 H482 0.950 . S
C508 C504 1.385 . S
C508 C507 1.374 . S
C509 C506 1.499 . S
C509 C510 1.373 . S
C509 C511 1.389 . S
C510 H483 0.950 . S
C510 C496 1.377 . S
C510 C509 1.373 . S
C511 C495 1.377 . S
C511 C509 1.389 . S
C511 C512 1.524 . S
C512 C511 1.524 . S
C512 C513 1.397 . S
C512 C517 1.363 . S
C513 H484 0.950 . S
C513 C512 1.397 . S
C513 C514 1.334 . S
C514 H485 0.950 . S
C514 C513 1.334 . S
C514 C515 1.287 . S
C515 C514 1.287 . S
C515 C516 1.524 . S
C515 H518 0.999 . S
C516 H486 0.950 . S
C516 C515 1.524 . S
C516 C517 1.415 . S
C517 H487 0.950 . S
C517 C512 1.363 . S
C517 C516 1.415 . S
H518 C515 0.999 . S
H519 C500 0.913 1_545 S
H520 C538 0.951 . S
H521 C540 0.951 . S
H522 C542 0.950 . S
H523 C543 0.950 . S
H524 C545 0.953 . S
H525 C548 0.950 . S
H526 C549 0.950 . S
H527 C551 0.950 . S
H528 C552 0.950 . S
H529 C553 0.951 . S
H530 C555 0.951 . S
H531 C557 0.950 . S
H532 C558 0.950 . S
H533 C560 0.950 . S
H534 C563 0.950 . S
H535 C564 0.950 . S
H536 C566 0.950 . S
H537 C567 0.950 . S
C538 H520 0.951 . S
C538 C539 1.366 . S
C538 C540 1.388 . S
C539 C538 1.366 . S
C539 C543 1.385 1_655 S
C540 H521 0.951 . S
C540 C538 1.388 . S
C540 C541 1.366 . S
C541 C540 1.366 . S
C541 C542 1.414 1_655 S
C541 C544 1.499 . S
C542 H522 0.950 . S
C542 C541 1.414 1_455 S
C542 C543 1.374 . S
C543 H523 0.950 . S
C543 C539 1.385 1_455 S
C543 C542 1.374 . S
C544 C541 1.499 . S
C544 C545 1.369 1_655 S
C544 C546 1.389 . S
C545 H524 0.953 . S
C545 C544 1.369 1_455 S
C545 C561 1.378 1_455 S
C546 C544 1.389 . S
C546 C547 1.524 . S
C546 C560 1.377 . S
C547 C546 1.524 . S
C547 C548 1.397 . S
C547 C552 1.363 . S
C548 H525 0.950 . S
C548 C547 1.397 . S
C548 C549 1.334 . S
C549 H526 0.950 . S
C549 C548 1.334 . S
C549 C550 1.287 . S
C550 C549 1.287 . S
C550 C551 1.524 . S
C550 H569 0.913 . S
C551 H527 0.950 . S
C551 C550 1.524 . S
C551 C552 1.415 . S
C552 H528 0.950 . S
C552 C547 1.363 . S
C552 C551 1.415 . S
C553 H529 0.951 . S
C553 C554 1.366 . S
C553 C555 1.388 . S
C554 C553 1.366 . S
C554 C558 1.385 . S
C555 H530 0.951 . S
C555 C553 1.388 . S
C555 C556 1.366 . S
C556 C555 1.366 . S
C556 C557 1.414 . S
C556 C559 1.499 . S
C557 H531 0.950 . S
C557 C556 1.414 . S
C557 C558 1.374 . S
C558 H532 0.950 . S
C558 C554 1.385 . S
C558 C557 1.374 . S
C559 C556 1.499 . S
C559 C560 1.373 . S
C559 C561 1.389 . S
C560 H533 0.950 . S
C560 C546 1.377 . S
C560 C559 1.373 . S
C561 C545 1.378 1_655 S
C561 C559 1.389 . S
C561 C562 1.524 1_655 S
C562 C561 1.524 1_455 S
C562 C563 1.397 . S
C562 C567 1.363 . S
C563 H534 0.950 . S
C563 C562 1.397 . S
C563 C564 1.334 . S
C564 H535 0.950 . S
C564 C563 1.334 . S
C564 C565 1.287 . S
C565 C564 1.287 . S
C565 C566 1.524 . S
C565 H568 0.999 . S
C566 H536 0.950 . S
C566 C565 1.524 . S
C566 C567 1.415 . S
C567 H537 0.950 . S
C567 C562 1.363 . S
C567 C566 1.415 . S
H568 C565 0.999 . S
H569 C550 0.913 . S
C139 C2 1.340 1_455 S
C154 C15 1.340 1_655 S
C189 C55 1.409 1_545 S
C204 C42 1.409 1_565 S
C239 C82 1.198 1_545 S
C254 C95 1.198 . S
C289 C89 0.903 . S
C304 C26 0.891 . S
C339 C43 1.726 . S
C354 C9 1.712 . S
C389 C83 2.242 . S
C404 C62 2.229 . S
C439 C102 2.187 . S
C454 C3 2.159 . S
C489 C22 1.608 . S
C504 C66 1.542 . S
C539 C106 0.925 . S
C554 C49 0.942 . S
