# Generated by pormake.
# Topology wme, (6)-cn, num edge types: 1
# Building blocks:
#     Node 0, Type 0, BuildingBlock: KUMJIN_clean_sbu_1, # of connection points: 6
#     Node 1, Type 0, BuildingBlock: KUMJIN_clean_sbu_1, # of connection points: 6
#     Node 2, Type 0, BuildingBlock: KUMJIN_clean_sbu_1, # of connection points: 6
#     Node 3, Type 0, BuildingBlock: KUMJIN_clean_sbu_1, # of connection points: 6
#     Node 4, Type 0, BuildingBlock: KUMJIN_clean_sbu_1, # of connection points: 6
#     Node 5, Type 0, BuildingBlock: KUMJIN_clean_sbu_1, # of connection points: 6
#     Node 6, Type 0, BuildingBlock: KUMJIN_clean_sbu_1, # of connection points: 6
#     Node 7, Type 0, BuildingBlock: KUMJIN_clean_sbu_1, # of connection points: 6
#     Node 8, Type 0, BuildingBlock: KUMJIN_clean_sbu_1, # of connection points: 6
#     Node 9, Type 0, BuildingBlock: KUMJIN_clean_sbu_1, # of connection points: 6
#     Node 10, Type 0, BuildingBlock: KUMJIN_clean_sbu_1, # of connection points: 6
#     Node 11, Type 0, BuildingBlock: KUMJIN_clean_sbu_1, # of connection points: 6
#     Edge 12, Type (0, 0), BuildingBlock: XUDNAN_clean_linker_2, # of connection points: 2
#     Edge 13, Type (0, 0), BuildingBlock: XUDNAN_clean_linker_2, # of connection points: 2
#     Edge 14, Type (0, 0), BuildingBlock: XUDNAN_clean_linker_2, # of connection points: 2
#     Edge 15, Type (0, 0), BuildingBlock: XUDNAN_clean_linker_2, # of connection points: 2
#     Edge 16, Type (0, 0), BuildingBlock: XUDNAN_clean_linker_2, # of connection points: 2
#     Edge 17, Type (0, 0), BuildingBlock: XUDNAN_clean_linker_2, # of connection points: 2
#     Edge 18, Type (0, 0), BuildingBlock: XUDNAN_clean_linker_2, # of connection points: 2
#     Edge 19, Type (0, 0), BuildingBlock: XUDNAN_clean_linker_2, # of connection points: 2
#     Edge 20, Type (0, 0), BuildingBlock: XUDNAN_clean_linker_2, # of connection points: 2
#     Edge 21, Type (0, 0), BuildingBlock: XUDNAN_clean_linker_2, # of connection points: 2
#     Edge 22, Type (0, 0), BuildingBlock: XUDNAN_clean_linker_2, # of connection points: 2
#     Edge 23, Type (0, 0), BuildingBlock: XUDNAN_clean_linker_2, # of connection points: 2
#     Edge 24, Type (0, 0), BuildingBlock: XUDNAN_clean_linker_2, # of connection points: 2
#     Edge 25, Type (0, 0), BuildingBlock: XUDNAN_clean_linker_2, # of connection points: 2
#     Edge 26, Type (0, 0), BuildingBlock: XUDNAN_clean_linker_2, # of connection points: 2
#     Edge 27, Type (0, 0), BuildingBlock: XUDNAN_clean_linker_2, # of connection points: 2
#     Edge 28, Type (0, 0), BuildingBlock: XUDNAN_clean_linker_2, # of connection points: 2
#     Edge 29, Type (0, 0), BuildingBlock: XUDNAN_clean_linker_2, # of connection points: 2
#     Edge 30, Type (0, 0), BuildingBlock: XUDNAN_clean_linker_2, # of connection points: 2
#     Edge 31, Type (0, 0), BuildingBlock: XUDNAN_clean_linker_2, # of connection points: 2
#     Edge 32, Type (0, 0), BuildingBlock: XUDNAN_clean_linker_2, # of connection points: 2
#     Edge 33, Type (0, 0), BuildingBlock: XUDNAN_clean_linker_2, # of connection points: 2
#     Edge 34, Type (0, 0), BuildingBlock: XUDNAN_clean_linker_2, # of connection points: 2
#     Edge 35, Type (0, 0), BuildingBlock: XUDNAN_clean_linker_2, # of connection points: 2
#     Edge 36, Type (0, 0), BuildingBlock: XUDNAN_clean_linker_2, # of connection points: 2
#     Edge 37, Type (0, 0), BuildingBlock: XUDNAN_clean_linker_2, # of connection points: 2
#     Edge 38, Type (0, 0), BuildingBlock: XUDNAN_clean_linker_2, # of connection points: 2
#     Edge 39, Type (0, 0), BuildingBlock: XUDNAN_clean_linker_2, # of connection points: 2
#     Edge 40, Type (0, 0), BuildingBlock: XUDNAN_clean_linker_2, # of connection points: 2
#     Edge 41, Type (0, 0), BuildingBlock: XUDNAN_clean_linker_2, # of connection points: 2
#     Edge 42, Type (0, 0), BuildingBlock: XUDNAN_clean_linker_2, # of connection points: 2
#     Edge 43, Type (0, 0), BuildingBlock: XUDNAN_clean_linker_2, # of connection points: 2
#     Edge 44, Type (0, 0), BuildingBlock: XUDNAN_clean_linker_2, # of connection points: 2
#     Edge 45, Type (0, 0), BuildingBlock: XUDNAN_clean_linker_2, # of connection points: 2
#     Edge 46, Type (0, 0), BuildingBlock: XUDNAN_clean_linker_2, # of connection points: 2
#     Edge 47, Type (0, 0), BuildingBlock: XUDNAN_clean_linker_2, # of connection points: 2
# Relax obj value: 0.062
# Max RMSD: 0.171
# Mean RMSD: 0.171
data_MOF--net-wme--node1-KUMJIN_clean_sbu_1--edge1-XUDNAN_clean_linker_2
_symmetry_space_group_name_H-M    P1
_symmetry_Int_Tables_number       1
_symmetry_cell_setting            triclinic
loop_
_symmetry_equiv_pos_as_xyz
'x, y, z'
_cell_length_a     39.237271
_cell_length_b     39.142527
_cell_length_c     53.773401
_cell_angle_alpha  89.968315
_cell_angle_beta   89.944459
_cell_angle_gamma 120.00994
loop_
_atom_site_label
_atom_site_type_symbol
_atom_site_fract_x
_atom_site_fract_y
_atom_site_fract_z
_atom_type_partial_charge
Eu0 Eu 0.25841 0.30677 0.13212 0.0
C1 C 0.11988 0.32232 0.09402 0.0
N2 N 0.15664 0.33812 0.08422 0.0
C3 C 0.12966 0.31493 0.04369 0.0
C4 C 0.08634 0.30045 0.07906 0.0
C5 C 0.16206 0.33604 0.05931 0.0
C6 C 0.09164 0.2967 0.05365 0.0
C7 C 0.07815 0.31119 0.12991 0.0
C8 C 0.11597 0.32774 0.11915 0.0
C9 C 0.0447 0.288 0.11532 0.0
C10 C 0.04877 0.28283 0.08993 0.0
Eu11 Eu 0.20991 0.37321 0.11161 0.0
N12 N 0.14894 0.35043 0.13281 0.0
C13 C 0.075 0.31938 0.15485 0.0
C14 C 0.14558 0.36158 0.15636 0.0
C15 C 0.10883 0.34535 0.16796 0.0
H16 H 0.19147 0.35019 0.05164 0.0
H17 H 0.10657 0.35346 0.18688 0.0
H18 H 0.25235 0.30892 0.19518 0.0
H19 H 0.3878 0.34705 0.07537 0.0
H20 H 0.17099 0.38358 0.16627 0.0
H21 H 0.04652 0.30715 0.16381 0.0
H22 H 0.31653 0.31367 0.08521 0.0
H23 H 0.13401 0.31265 0.02402 0.0
H24 H 1.01549 0.27465 0.12338 0.0
H25 H 0.02266 0.26537 0.07883 0.0
H26 H 0.29607 0.34337 0.23044 0.0
H27 H 0.06661 0.28008 0.04155 0.0
H28 H 0.43668 0.38606 0.10784 0.0
N29 N 0.29787 0.33444 0.16806 0.0
C30 C 0.33744 0.35471 0.16421 0.0
C31 C 0.30806 0.34739 0.21184 0.0
C32 C 0.36384 0.37373 0.18398 0.0
C33 C 0.28315 0.32867 0.19166 0.0
C34 C 0.34855 0.37063 0.20792 0.0
N35 N 0.32555 0.33533 0.12214 0.0
C36 C 0.33786 0.33117 0.09923 0.0
C37 C 0.39254 0.37396 0.13603 0.0
C38 C 0.35174 0.3547 0.14062 0.0
C39 C 0.40555 0.37168 0.11213 0.0
C40 C 0.37806 0.34973 0.09374 0.0
H41 H 0.36783 0.3848 0.22362 0.0
H42 H 0.42528 0.40926 0.19428 0.0
H43 H 0.45038 0.40956 0.15226 0.0
O44 O 0.24943 0.25297 0.11345 0.0
O45 O 0.29769 0.37048 0.11899 0.0
O46 O 0.26544 0.40058 0.13481 0.0
O47 O 0.25833 0.25935 0.15325 0.0
O48 O 0.24343 0.30574 0.09137 0.0
O49 O 0.25048 0.3672 0.0827 0.0
O50 O 0.19301 0.41882 0.11305 0.0
O51 O 0.18113 0.30809 0.10158 0.0
O52 O 0.19236 0.281 0.13585 0.0
O53 O 0.23508 0.42291 0.08569 0.0
O54 O 0.22294 0.37349 0.1535 0.0
O55 O 0.21703 0.31216 0.15894 0.0
C56 C 0.29798 0.40226 0.12725 0.0
C57 C 0.27303 0.21444 0.13341 0.0
C58 C 0.26873 0.15025 0.13023 0.0
C59 C 0.30817 0.16748 0.13776 0.0
C60 C 0.3126 0.23148 0.14053 0.0
C61 C 0.33007 0.208 0.14261 0.0
C62 C 0.25144 0.174 0.12788 0.0
C63 C 0.25363 0.33601 0.07644 0.0
C64 C 0.25228 0.23694 0.13399 0.0
C65 C 0.40458 0.39418 0.17936 0.0
C66 C 0.41889 0.39428 0.15544 0.0
C67 C 0.16897 0.27969 0.11803 0.0
C68 C 0.23668 0.48307 0.09683 0.0
C69 C 0.23328 0.54359 0.10286 0.0
C70 C 0.27256 0.56571 0.0947 0.0
C71 C 0.27581 0.5061 0.08874 0.0
C72 C 0.21559 0.50207 0.10397 0.0
C73 C 0.29336 0.54704 0.0875 0.0
C74 C 0.21526 0.34269 0.16756 0.0
C75 C 0.21614 0.43943 0.09496 0.0
H76 H 0.32207 0.14967 0.13961 0.0
H77 H 0.32964 0.26262 0.14495 0.0
H78 H 0.36052 0.22115 0.14828 0.0
H79 H 0.22076 0.16071 0.12253 0.0
H80 H 0.28737 0.59761 0.09387 0.0
H81 H 0.29269 0.49251 0.08286 0.0
H82 H 0.18498 0.48445 0.10943 0.0
H83 H 0.32338 0.56449 0.08095 0.0
Eu84 Eu 0.94444 0.24004 0.62839 0.0
C85 C 0.81564 0.11391 0.5707 0.0
N86 N 0.83038 0.15341 0.56789 0.0
C87 C 0.84164 0.14807 0.52449 0.0
C88 C 0.81536 0.09039 0.55072 0.0
C89 C 0.84059 0.16996 0.54471 0.0
C90 C 0.82979 0.10829 0.52762 0.0
C91 C 0.78048 0.05517 0.59628 0.0
C92 C 0.79837 0.09636 0.59317 0.0
C93 C 0.78189 0.03201 0.57683 0.0
C94 C 0.7994 0.04959 0.55412 0.0
Eu95 Eu 0.83032 0.18811 0.60436 0.0
N96 N 0.7983 0.11954 0.6119 0.0
C97 C 0.76108 0.03844 0.61869 0.0
C98 C 0.77782 0.10332 0.63336 0.0
C99 C 0.75941 0.06258 0.63723 0.0
H100 H 0.84743 0.19991 0.54141 0.0
H101 H 0.74398 0.04983 0.65447 0.0
H102 H 0.93856 0.27078 0.6854 0.0
H103 H 0.05163 0.32217 0.55537 0.0
H104 H 0.7768 0.12221 0.64767 0.0
H105 H 0.74661 1.00686 0.62164 0.0
H106 H 1.00265 0.26261 0.57811 0.0
H107 H 0.85091 0.16175 0.50637 0.0
H108 H 0.76886 1.00038 0.579 0.0
H109 H 0.79942 0.03121 0.53907 0.0
H110 H 0.96173 0.33374 0.7079 0.0
H111 H 0.83016 0.09129 0.51183 0.0
H112 H 0.0713 0.38845 0.57185 0.0
N113 N 0.96775 0.29859 0.65177 0.0
C114 C 0.99312 0.33286 0.6402 0.0
C115 C 0.97059 0.33392 0.68882 0.0
C116 C 1.00727 0.36943 0.65229 0.0
C117 C 0.95751 0.29837 0.67606 0.0
C118 C 0.99516 0.36965 0.67677 0.0
N119 N 0.99308 0.29509 0.60611 0.0
C120 C 1.01035 0.2915 0.58502 0.0
C121 C 0.03398 0.36584 0.60442 0.0
C122 C 1.00592 0.33106 0.61653 0.0
C123 C 0.04953 0.36249 0.58171 0.0
C124 C 0.03842 0.3251 0.57231 0.0
H125 H 1.00527 0.39715 0.68668 0.0
H126 H 0.0442 0.43282 0.64855 0.0
H127 H 0.06795 0.42966 0.60667 0.0
O128 O 1.00022 0.24059 0.62752 0.0
O129 O 0.9125 0.27596 0.63305 0.0
O130 O 0.86684 0.25424 0.60125 0.0
O131 O 0.96044 0.21257 0.65845 0.0
O132 O 0.92818 0.22129 0.58823 0.0
O133 O 0.87867 0.23344 0.57812 0.0
O134 O 0.78079 0.19074 0.62127 0.0
O135 O 0.85479 0.1547 0.62529 0.0
O136 O 0.91451 0.18226 0.60714 0.0
O137 O 0.7782 0.17539 0.58264 0.0
O138 O 0.83952 0.20585 0.64545 0.0
O139 O 0.89781 0.20851 0.65818 0.0
C140 C 0.88634 0.27913 0.6192 0.0
C141 C 0.02777 0.22836 0.66312 0.0
C142 C 0.08507 0.2196 0.66783 0.0
C143 C 0.09629 0.2442 0.6889 0.0
C144 C 0.03946 0.25298 0.68399 0.0
C145 C 0.07349 0.26055 0.69693 0.0
C146 C 0.05018 0.2114 0.65544 0.0
C147 C 0.91333 0.23686 0.57327 0.0
C148 C 0.99353 0.22047 0.64791 0.0
C149 C 0.03341 0.40436 0.63972 0.0
C150 C 0.04681 0.40257 0.61584 0.0
C151 C 0.88458 0.15167 0.61733 0.0
C152 C 0.73658 0.19976 0.59578 0.0
C153 C 0.67325 0.19771 0.59804 0.0
C154 C 0.68978 0.23319 0.58443 0.0
C155 C 0.75239 0.23497 0.58216 0.0
C156 C 0.69716 0.18139 0.60381 0.0
C157 C 0.72908 0.25169 0.57668 0.0
C158 C 0.86364 0.20623 0.66284 0.0
C159 C 0.75988 0.18062 0.60108 0.0
H160 H 0.12309 0.25161 0.69884 0.0
H161 H 0.02258 0.26646 0.69008 0.0
H162 H 0.08262 0.27969 0.71302 0.0
H163 H 0.04029 0.19183 0.63951 0.0
H164 H 0.6724 0.24685 0.57996 0.0
H165 H 0.7826 0.24936 0.57572 0.0
H166 H 0.68485 0.15384 0.61404 0.0
H167 H 0.74144 0.279 0.56627 0.0
Eu168 Eu 0.72226 0.95429 0.12792 0.0
C169 C 0.70856 0.80052 0.08164 0.0
N170 N 0.68647 0.81736 0.07596 0.0
C171 C 0.69128 0.80688 0.03252 0.0
C172 C 0.72336 0.78659 0.06269 0.0
C173 C 0.67747 0.82055 0.05189 0.0
C174 C 0.71434 0.78985 0.03792 0.0
C175 C 0.74217 0.78305 0.11271 0.0
C176 C 0.71791 0.79887 0.10644 0.0
C177 C 0.75659 0.7688 0.09388 0.0
C178 C 0.7472 0.77054 0.06896 0.0
Eu179 Eu 0.66424 0.8392 0.10978 0.0
N180 N 0.70473 0.81425 0.12426 0.0
C181 C 0.75171 0.78253 0.1377 0.0
C182 C 0.71242 0.81196 0.14876 0.0
C183 C 0.73649 0.79673 0.15581 0.0
H184 H 0.6592 0.83319 0.04761 0.0
H185 H 0.74302 0.79566 0.17525 0.0
H186 H 0.68946 0.95237 0.186 0.0
H187 H 0.72205 0.04188 0.04859 0.0
H188 H 0.69972 0.82113 0.1631 0.0
H189 H 0.77049 0.77091 0.14324 0.0
H190 H 0.74539 1.00488 0.07367 0.0
H191 H 0.6841 0.80944 0.01343 0.0
H192 H 0.77537 0.75671 0.09837 0.0
H193 H 0.75889 0.75976 0.05464 0.0
H194 H 0.64515 0.97059 0.2077 0.0
H195 H 0.72517 0.77949 0.02285 0.0
H196 H 0.66881 0.05226 0.06457 0.0
N197 N 0.68225 0.9723 0.15077 0.0
C198 C 0.66679 0.99113 0.1377 0.0
C199 C 0.65082 0.97631 0.188 0.0
C200 C 0.64131 1.00195 0.14927 0.0
C201 C 0.67583 0.96601 0.17575 0.0
C202 C 0.63308 0.99388 0.17465 0.0
N203 N 0.70299 0.99084 0.10234 0.0
C204 C 0.721 1.00776 0.08037 0.0
C205 C 0.66329 0.02182 0.09929 0.0
C206 C 0.67709 1.00021 0.11278 0.0
C207 C 0.67844 0.03535 0.07546 0.0
C208 C 0.70838 0.02942 0.06632 0.0
H209 H 0.61364 1.00175 0.1842 0.0
H210 H 0.60549 0.02918 0.14385 0.0
H211 H 0.62517 0.04709 0.10022 0.0
O212 O 0.7796 1.00477 0.11779 0.0
O213 O 0.65527 0.91666 0.13548 0.0
O214 O 0.63095 0.87156 0.10379 0.0
O215 O 0.75754 0.99973 0.1551 0.0
O216 O 0.72457 0.93695 0.0878 0.0
O217 O 0.66428 0.88154 0.07997 0.0
O218 O 0.62087 0.78774 0.13057 0.0
O219 O 0.72959 0.87544 0.10073 0.0
O220 O 0.75549 0.92052 0.1323 0.0
O221 O 0.61647 0.78829 0.09064 0.0
O222 O 0.66252 0.85451 0.15124 0.0
O223 O 0.72142 0.91196 0.15626 0.0
C224 C 0.62688 0.89439 0.11984 0.0
C225 C 0.8263 0.02699 0.1503 0.0
C226 C 0.8982 0.06754 0.15047 0.0
C227 C 0.89955 0.0435 0.16945 0.0
C228 C 0.82859 1.00312 0.169 0.0
C229 C 0.86498 0.01159 0.1786 0.0
C230 C 0.86125 0.05903 0.14096 0.0
C231 C 0.69487 0.91551 0.07285 0.0
C232 C 0.78769 0.01841 0.14038 0.0
C233 C 0.62546 0.02103 0.13534 0.0
C234 C 0.63651 0.03104 0.11044 0.0
C235 C 0.75877 0.89775 0.11564 0.0
C236 C 0.55787 0.7474 0.11325 0.0
C237 C 0.49585 0.68468 0.11728 0.0
C238 C 0.47581 0.70603 0.1192 0.0
C239 C 0.53728 0.76797 0.11517 0.0
C240 C 0.53713 0.70589 0.11429 0.0
C241 C 0.49642 0.74729 0.11812 0.0
C242 C 0.69013 0.88161 0.16567 0.0
C243 C 0.60106 0.76853 0.111 0.0
H244 H 0.92744 0.04892 0.17693 0.0
H245 H 0.80227 0.9779 0.17622 0.0
H246 H 0.86639 0.99321 0.19314 0.0
H247 H 0.85962 0.07744 0.12648 0.0
H248 H 0.44409 0.69083 0.1211 0.0
H249 H 0.5528 0.79991 0.11451 0.0
H250 H 0.55332 0.69019 0.11314 0.0
H251 H 0.48062 0.76331 0.11956 0.0
Eu252 Eu 0.76093 0.70295 0.63804 0.0
C253 C 0.90201 0.70061 0.58672 0.0
N254 N 0.86363 0.67884 0.57984 0.0
C255 C 0.88156 0.69565 0.53708 0.0
C256 C 0.93175 0.72134 0.5689 0.0
C257 C 0.85308 0.67564 0.55541 0.0
C258 C 0.92104 0.71875 0.54385 0.0
C259 C 0.95104 0.72447 0.61946 0.0
C260 C 0.91142 0.70235 0.61175 0.0
C261 C 0.98066 0.74576 0.60183 0.0
C262 C 0.97106 0.74414 0.57661 0.0
Eu263 Eu 0.81704 0.64758 0.612 0.0
N264 N 0.88202 0.68176 0.62846 0.0
C265 C 0.95982 0.72383 0.64458 0.0
C266 C 0.8911 0.67793 0.65242 0.0
C267 C 0.92979 0.69979 0.66104 0.0
H268 H 0.8227 0.65746 0.54998 0.0
H269 H 0.93654 0.69737 0.68025 0.0
H270 H 0.76162 0.69316 0.70002 0.0
H271 H 0.63676 0.65016 0.57345 0.0
H272 H 0.86906 0.65705 0.66485 0.0
H273 H 0.98985 0.74047 0.65125 0.0
H274 H 0.70612 0.68859 0.58591 0.0
H275 H 0.87304 0.69321 0.51774 0.0
H276 H 1.01116 0.7632 0.60747 0.0
H277 H 0.99427 0.76054 0.56321 0.0
H278 H 0.71385 0.65851 0.73382 0.0
H279 H 0.94302 0.7343 0.52961 0.0
H280 H 0.58562 0.61137 0.60471 0.0
N281 N 0.71803 0.67269 0.67177 0.0
C282 C 0.67901 0.652 0.66612 0.0
C283 C 0.70371 0.65629 0.71486 0.0
C284 C 0.65074 0.63193 0.68486 0.0
C285 C 0.73072 0.67556 0.69567 0.0
C286 C 0.66357 0.63426 0.70943 0.0
N287 N 0.69532 0.66901 0.62349 0.0
C288 C 0.68462 0.67045 0.59956 0.0
C289 C 0.62712 0.62824 0.6351 0.0
C290 C 0.66739 0.64997 0.64137 0.0
C291 C 0.61624 0.62766 0.61026 0.0
C292 C 0.64506 0.64931 0.59251 0.0
H293 H 0.64273 0.61924 0.72434 0.0
H294 H 0.58862 0.59421 0.69267 0.0
H295 H 0.56796 0.59113 0.6492 0.0
O296 O 0.76623 0.75795 0.62351 0.0
O297 O 0.73147 0.63527 0.64195 0.0
O298 O 0.75123 0.61644 0.60712 0.0
O299 O 0.75175 0.74251 0.66205 0.0
O300 O 0.77356 0.70803 0.59692 0.0
O301 O 0.77659 0.65325 0.58303 0.0
O302 O 0.8178 0.59586 0.62737 0.0
O303 O 0.84403 0.71357 0.60536 0.0
O304 O 0.8281 0.73598 0.64029 0.0
O305 O 0.81922 0.60378 0.58779 0.0
O306 O 0.80423 0.64456 0.65459 0.0
O307 O 0.80649 0.7034 0.66287 0.0
C308 C 0.72538 0.60889 0.62472 0.0
C309 C 0.79523 0.80976 0.65312 0.0
C310 C 0.82943 0.88193 0.6506 0.0
C311 C 0.85503 0.88393 0.66951 0.0
C312 C 0.82192 0.81277 0.67164 0.0
C313 C 0.85138 0.84958 0.67982 0.0
C314 C 0.79953 0.8446 0.6423 0.0
C315 C 0.77174 0.68409 0.57918 0.0
C316 C 0.76309 0.7703 0.64544 0.0
C317 C 0.61073 0.60992 0.67852 0.0
C318 C 0.59897 0.60809 0.65374 0.0
C319 C 0.85266 0.74096 0.62213 0.0
C320 C 0.85363 0.57291 0.60371 0.0
C321 C 0.87647 0.52474 0.60793 0.0
C322 C 0.91263 0.55284 0.59727 0.0
C323 C 0.89019 0.60001 0.59342 0.0
C324 C 0.84705 0.53545 0.61124 0.0
C325 C 0.91942 0.59008 0.59036 0.0
C326 C 0.81038 0.67353 0.67002 0.0
C327 C 0.82207 0.58323 0.60586 0.0
H328 H 0.87827 0.91222 0.67611 0.0
H329 H 0.81986 0.7866 0.68 0.0
H330 H 0.87135 0.8515 0.69432 0.0
H331 H 0.77942 0.84272 0.62785 0.0
H332 H 0.93561 0.54594 0.59352 0.0
H333 H 0.89604 0.62869 0.58732 0.0
H334 H 0.81898 0.51485 0.61953 0.0
H335 H 0.94733 0.61117 0.5821 0.0
Eu336 Eu 0.08695 0.77586 0.13831 0.0
C337 C 0.23265 0.90401 0.08282 0.0
N338 N 0.20892 0.8666 0.07453 0.0
C339 C 0.20638 0.89106 0.03412 0.0
C340 C 0.2436 0.93665 0.06702 0.0
C341 C 0.19623 0.8596 0.05047 0.0
C342 C 0.22997 0.92976 0.04246 0.0
C343 C 0.27107 0.94801 0.11622 0.0
C344 C 0.24545 0.90956 0.10733 0.0
C345 C 0.28145 0.98065 0.10069 0.0
C346 C 0.26761 0.97499 0.07619 0.0
Eu347 Eu 0.19169 0.81521 0.1035 0.0
N348 N 0.23416 0.87741 0.12216 0.0
C349 C 0.28649 0.95248 0.14019 0.0
C350 C 0.25181 0.88167 0.14473 0.0
C351 C 0.27727 0.91912 0.15435 0.0
H352 H 0.17825 0.82974 0.04388 0.0
H353 H 0.29058 0.92219 0.17244 0.0
H354 H 0.09802 0.78815 0.19996 0.0
H355 H 1.00398 0.64067 0.0837 0.0
H356 H 0.24795 0.85647 0.15509 0.0
H357 H 0.30678 0.98143 0.14756 0.0
H358 H 0.04379 0.71216 0.09025 0.0
H359 H 0.19601 0.88544 0.01511 0.0
H360 H 0.30064 1.01039 0.10734 0.0
H361 H 0.27604 1.00045 0.0644 0.0
H362 H 0.08085 0.74686 0.23788 0.0
H363 H 0.23768 0.95407 0.02976 0.0
H364 H 0.98396 0.59514 0.11961 0.0
N365 N 0.07042 0.73933 0.17553 0.0
C366 C 0.04787 0.69951 0.17319 0.0
C367 C 0.07169 0.7332 0.21979 0.0
C368 C 0.03683 0.67484 0.19431 0.0
C369 C 0.0819 0.75648 0.19834 0.0
C370 C 0.04922 0.69219 0.21777 0.0
N371 N 0.04811 0.70771 0.1294 0.0
C372 C 0.0361 0.69293 0.10606 0.0
C373 C 1.01299 0.64201 0.14662 0.0
C374 C 0.03607 0.68326 0.14955 0.0
C375 C 1.0017 0.62666 0.12262 0.0
C376 C 1.01308 0.65225 0.1023 0.0
H377 H 0.04133 0.67424 0.23444 0.0
H378 H 1.00522 0.61437 0.20741 0.0
H379 H 0.98436 0.58567 0.16571 0.0
O380 O 0.04045 0.78511 0.12279 0.0
O381 O 0.11379 0.73512 0.13871 0.0
O382 O 0.14585 0.75117 0.10159 0.0
O383 O 0.04486 0.78086 0.16247 0.0
O384 O 0.08802 0.78411 0.09655 0.0
O385 O 0.13907 0.78013 0.07698 0.0
O386 O 0.24297 0.80872 0.11223 0.0
O387 O 0.1596 0.84975 0.10062 0.0
O388 O 0.13147 0.84188 0.139 0.0
O389 O 0.22589 0.80743 0.07418 0.0
O390 O 0.18609 0.79975 0.1455 0.0
O391 O 0.14139 0.81694 0.15975 0.0
C392 C 0.13289 0.7283 0.12103 0.0
C393 C 0.02364 0.8242 0.14799 0.0
C394 C 0.98458 0.85719 0.14455 0.0
C395 C 1.01539 0.89065 0.15606 0.0
C396 C 0.05408 0.85827 0.15913 0.0
C397 C 0.04989 0.8912 0.16312 0.0
C398 C 0.98905 0.82394 0.14046 0.0
C399 C 0.10492 0.77966 0.07656 0.0
C400 C 0.02789 0.78899 0.14447 0.0
C401 C 1.01392 0.63377 0.19139 0.0
C402 C 1.00202 0.61742 0.16764 0.0
C403 C 0.14813 0.86332 0.11908 0.0
C404 C 0.29477 0.83855 0.08247 0.0
C405 C 0.36594 0.86375 0.08661 0.0
C406 C 0.37285 0.8921 0.06829 0.0
C407 C 0.30302 0.86772 0.06441 0.0
C408 C 0.32662 0.83705 0.09384 0.0
C409 C 0.34169 0.89419 0.05745 0.0
C410 C 0.17056 0.81029 0.16376 0.0
C411 C 0.25311 0.8098 0.0891 0.0
H412 H 1.01313 0.9168 0.15913 0.0
H413 H 0.08106 0.85937 0.16489 0.0
H414 H 0.07355 0.91732 0.17171 0.0
H415 H 0.96554 0.79779 0.13174 0.0
H416 H 0.40261 0.91312 0.06254 0.0
H417 H 0.2796 0.87009 0.05546 0.0
H418 H 0.32083 0.81489 0.10787 0.0
H419 H 0.34755 0.91642 0.0435 0.0
Eu420 Eu 0.30276 0.06865 0.64582 0.0
C421 C 0.30367 0.19942 0.5801 0.0
N422 N 0.3231 0.17956 0.57502 0.0
C423 C 0.30328 0.17277 0.53234 0.0
C424 C 0.28262 0.20613 0.56132 0.0
C425 C 0.32375 0.16679 0.55153 0.0
C426 C 0.28251 0.19239 0.53727 0.0
C427 C 0.28368 0.23251 0.61009 0.0
C428 C 0.30406 0.21231 0.60433 0.0
C429 C 0.26278 0.23925 0.59139 0.0
C430 C 0.2622 0.22606 0.5671 0.0
Eu431 Eu 0.35695 0.17152 0.60857 0.0
N432 N 0.32344 0.20424 0.62235 0.0
C433 C 0.28468 0.24513 0.63455 0.0
C434 C 0.32614 0.21829 0.6459 0.0
C435 C 0.3063 0.2383 0.65246 0.0
H436 H 0.34065 0.15264 0.54743 0.0
H437 H 0.30806 0.24883 0.67129 0.0
H438 H 0.28725 0.0792 0.70592 0.0
H439 H 0.37622 0.9954 0.60328 0.0
H440 H 0.3442 0.21506 0.6596 0.0
H441 H 0.2693 0.26061 0.6397 0.0
H442 H 0.33862 0.03031 0.6037 0.0
H443 H 0.30375 0.16247 0.51374 0.0
H444 H 0.24676 0.25447 0.59555 0.0
H445 H 0.24579 0.23137 0.55292 0.0
H446 H 0.30585 0.06537 0.74713 0.0
H447 H 0.26666 0.19696 0.52234 0.0
H448 H 0.39853 0.98103 0.64289 0.0
N449 N 0.31838 0.05662 0.68591 0.0
C450 C 0.33987 0.03813 0.687 0.0
C451 C 0.31614 0.05828 0.73036 0.0
C452 C 0.35112 0.0298 0.71011 0.0
C453 C 0.3059 0.06624 0.70707 0.0
C454 C 0.3392 0.0404 0.73191 0.0
N455 N 0.33883 0.03513 0.64291 0.0
C456 C 0.34725 0.02338 0.621 0.0
C457 C 0.37202 1.00719 0.66564 0.0
C458 C 0.35001 0.02671 0.66498 0.0
C459 C 0.38157 0.99597 0.64315 0.0
C460 C 0.36898 1.00396 0.62076 0.0
H461 H 0.34703 0.03427 0.75002 0.0
H462 H 0.38236 1.00423 0.72837 0.0
H463 H 0.40082 0.98464 0.68946 0.0
O464 O 0.24795 0.0245 0.628 0.0
O465 O 0.36995 0.09777 0.64115 0.0
O466 O 0.38987 0.13829 0.60631 0.0
O467 O 0.2576 0.01856 0.66678 0.0
O468 O 0.29387 0.06955 0.6042 0.0
O469 O 0.34795 0.1189 0.58396 0.0
O470 O 0.40562 0.22931 0.62019 0.0
O471 O 0.2897 0.13392 0.61038 0.0
O472 O 0.27726 0.10899 0.64979 0.0
O473 O 0.3968 0.21445 0.58121 0.0
O474 O 0.37295 0.17073 0.64994 0.0
O475 O 0.3149 0.12286 0.66713 0.0
C476 C 0.39609 0.11862 0.62381 0.0
C477 C 0.19287 1.00022 0.65492 0.0
C478 C 0.12086 0.96135 0.65278 0.0
C479 C 0.11878 0.9894 0.66806 0.0
C480 C 0.18983 0.02791 0.66997 0.0
C481 C 0.15302 0.02248 0.67645 0.0
C482 C 0.15825 0.96712 0.64611 0.0
C483 C 0.31824 0.08192 0.58523 0.0
C484 C 0.23216 1.00599 0.64873 0.0
C485 C 0.37335 1.01072 0.71078 0.0
C486 C 0.3838 0.99949 0.68862 0.0
C487 C 0.26741 0.12241 0.63038 0.0
C488 C 0.46097 0.26598 0.5934 0.0
C489 C 0.52217 0.3305 0.59633 0.0
C490 C 0.54129 0.31463 0.58231 0.0
C491 C 0.48111 0.25147 0.57937 0.0
C492 C 0.4817 0.30557 0.60195 0.0
C493 C 0.52089 0.27581 0.57377 0.0
C494 C 0.35016 0.15369 0.66949 0.0
C495 C 0.4179 0.24129 0.59764 0.0
H496 H 0.09058 0.9861 0.67319 0.0
H497 H 0.21595 0.05368 0.67688 0.0
H498 H 0.15102 0.04399 0.68805 0.0
H499 H 0.16041 0.94572 0.63443 0.0
H500 H 0.57232 0.33215 0.57794 0.0
H501 H 0.46593 0.2215 0.57239 0.0
H502 H 0.46601 0.31716 0.61231 0.0
H503 H 0.53611 0.26476 0.56251 0.0
Eu504 Eu 0.7137 0.76848 0.37513 0.0
C505 C 0.69481 0.90435 0.41767 0.0
N506 N 0.68076 0.86772 0.42747 0.0
C507 C 0.70494 0.89542 0.46773 0.0
C508 C 0.71626 0.93827 0.43246 0.0
C509 C 0.68417 0.86265 0.45227 0.0
C510 C 0.72146 0.9334 0.45772 0.0
C511 C 0.70125 0.94547 0.38223 0.0
C512 C 0.68728 0.90778 0.39284 0.0
C513 C 0.72444 0.97937 0.39653 0.0
C514 C 0.73175 0.97578 0.42161 0.0
Eu515 Eu 0.64613 0.81395 0.40032 0.0
N516 N 0.66434 0.87441 0.37956 0.0
C517 C 0.69021 0.94799 0.35788 0.0
C518 C 0.65021 0.87696 0.35682 0.0
C519 C 0.6638 0.9136 0.34536 0.0
H520 H 0.67131 0.83328 0.45999 0.0
H521 H 0.65346 0.9153 0.327 0.0
H522 H 0.73014 0.79271 0.31424 0.0
H523 H 0.65229 0.62195 0.41624 0.0
H524 H 0.62812 0.8509 0.34742 0.0
H525 H 0.70039 0.97637 0.34904 0.0
H526 H 0.69192 0.69505 0.4151 0.0
H527 H 0.70829 0.89137 0.4873 0.0
H528 H 0.73585 1.00852 0.38856 0.0
H529 H 0.74892 1.00219 0.43256 0.0
H530 H 0.70506 0.76106 0.2736 0.0
H531 H 0.73778 0.95873 0.4697 0.0
H532 H 0.61824 0.58504 0.37818 0.0
N533 N 0.69469 0.74024 0.33498 0.0
C534 C 0.67046 0.70056 0.33401 0.0
C535 C 0.6945 0.74377 0.29045 0.0
C536 C 0.65578 0.68106 0.31115 0.0
C537 C 0.70839 0.76168 0.31358 0.0
C538 C 0.66739 0.70341 0.28924 0.0
N539 N 0.67928 0.6988 0.37712 0.0
C540 C 0.67733 0.67886 0.39844 0.0
C541 C 0.63999 0.63761 0.35545 0.0
C542 C 0.66276 0.6791 0.35576 0.0
C543 C 0.63556 0.61696 0.37763 0.0
C544 C 0.65482 0.63767 0.39914 0.0
H545 H 0.65686 0.68958 0.27128 0.0
H546 H 0.61941 0.62436 0.29348 0.0
H547 H 0.6055 0.58628 0.33233 0.0
O548 O 0.7598 0.76623 0.39651 0.0
O549 O 0.65077 0.72887 0.39003 0.0
O550 O 0.62 0.76064 0.37529 0.0
O551 O 0.76768 0.77622 0.35725 0.0
O552 O 0.71616 0.78096 0.41607 0.0
O553 O 0.65736 0.77638 0.42913 0.0
O554 O 0.60167 0.83172 0.40382 0.0
O555 O 0.71141 0.84376 0.40933 0.0
O556 O 0.73828 0.83499 0.37393 0.0
O557 O 0.59458 0.78134 0.4244 0.0
O558 O 0.64488 0.80225 0.3581 0.0
O559 O 0.70727 0.81242 0.35088 0.0
C560 C 0.6185 0.72813 0.38257 0.0
C561 C 0.82346 0.81244 0.38305 0.0
C562 C 0.89562 0.84826 0.38207 0.0
C563 C 0.8956 0.88049 0.39365 0.0
C564 C 0.82473 0.84458 0.3955 0.0
C565 C 0.86041 0.87855 0.40033 0.0
C566 C 0.85914 0.81434 0.3763 0.0
C567 C 0.68855 0.77206 0.43282 0.0
C568 C 0.78466 0.77702 0.37817 0.0
C569 C 0.63134 0.63984 0.31082 0.0
C570 C 0.62346 0.61814 0.33295 0.0
C571 C 0.73936 0.85727 0.39254 0.0
C572 C 0.53613 0.78359 0.41404 0.0
C573 C 0.47714 0.78929 0.40705 0.0
C574 C 0.45424 0.7478 0.40802 0.0
C575 C 0.51231 0.7424 0.41521 0.0
C576 C 0.51831 0.80687 0.41012 0.0
C577 C 0.47165 0.72479 0.41242 0.0
C578 C 0.67492 0.81116 0.34305 0.0
C579 C 0.57908 0.80301 0.41862 0.0
H580 H 0.92295 0.90725 0.39774 0.0
H581 H 0.79802 0.84311 0.40192 0.0
H582 H 0.86079 0.90327 0.40963 0.0
H583 H 0.85851 0.78925 0.36733 0.0
H584 H 0.42271 0.73285 0.40525 0.0
H585 H 0.52496 0.72375 0.41853 0.0
H586 H 0.53654 0.83872 0.41012 0.0
H587 H 0.45348 0.693 0.41353 0.0
Eu588 Eu 0.96106 0.71016 0.88153 0.0
C589 C 0.80002 0.69713 0.91039 0.0
N590 N 0.81693 0.67962 0.9231 0.0
C591 C 0.8046 0.70204 0.96173 0.0
C592 C 0.78518 0.7186 0.92296 0.0
C593 C 0.81867 0.68093 0.94844 0.0
C594 C 0.78807 0.72128 0.94891 0.0
C595 C 0.7762 0.70773 0.87132 0.0
C596 C 0.79606 0.69208 0.88488 0.0
C597 C 0.76268 0.73041 0.88359 0.0
C598 C 0.7674 0.73606 0.90933 0.0
Eu599 Eu 0.84197 0.64604 0.8999 0.0
N600 N 0.80843 0.66898 0.87374 0.0
C601 C 0.76871 0.69846 0.84608 0.0
C602 C 0.79664 0.65601 0.84999 0.0
C603 C 0.77816 0.67171 0.83552 0.0
H604 H 0.83131 0.66596 0.9584 0.0
H605 H 0.77028 0.66234 0.81642 0.0
H606 H 0.9656 0.7653 0.83255 0.0
H607 H 0.05259 0.64455 0.89856 0.0
H608 H 0.80058 0.63289 0.84212 0.0
H609 H 0.75372 0.71003 0.83498 0.0
H610 H 1.01074 0.67328 0.90965 0.0
H611 H 0.8065 0.70347 0.98181 0.0
H612 H 0.74752 0.74279 0.87345 0.0
H613 H 0.75628 0.75309 0.9186 0.0
H614 H 0.98428 0.77247 0.78803 0.0
H615 H 0.77715 0.73761 0.95923 0.0
H616 H 0.06929 0.64191 0.85441 0.0
N617 N 0.98353 0.72334 0.83982 0.0
C618 C 1.00331 0.70563 0.83128 0.0
C619 C 0.98945 0.75319 0.79992 0.0
C620 C 0.01571 0.70967 0.80631 0.0
C621 C 0.97845 0.74872 0.82501 0.0
C622 C 1.00751 0.73295 0.79039 0.0
N623 N 1.00387 0.68596 0.87224 0.0
C624 C 0.01827 0.67235 0.89041 0.0
C625 C 0.03771 0.6704 0.84087 0.0
C626 C 1.0141 0.68639 0.84818 0.0
C627 C 0.05103 0.65447 0.85922 0.0
C628 C 0.04181 0.65606 0.88417 0.0
H629 H 0.01641 0.73677 0.77104 0.0
H630 H 0.04671 0.69411 0.77926 0.0
H631 H 0.06606 0.65967 0.80961 0.0
O632 O 0.98353 0.74472 0.91536 0.0
O633 O 0.93683 0.64281 0.88147 0.0
O634 O 0.86837 0.60926 0.88721 0.0
O635 O 0.01772 0.76604 0.88184 0.0
O636 O 0.93955 0.6688 0.91476 0.0
O637 O 0.88611 0.668 0.93227 0.0
O638 O 0.7808 0.59932 0.89597 0.0
O639 O 0.88339 0.70868 0.91303 0.0
O640 O 0.92239 0.7385 0.87945 0.0
O641 O 0.81521 0.59672 0.92639 0.0
O642 O 0.86077 0.64435 0.85954 0.0
O643 O 0.913 0.70679 0.85686 0.0
C644 C 0.90176 0.61006 0.88244 0.0
C645 C 0.01944 0.81422 0.90995 0.0
C646 C 0.05976 0.88645 0.90798 0.0
C647 C 0.03119 0.88926 0.92219 0.0
C648 C 0.99157 0.81823 0.92428 0.0
C649 C 0.99732 0.85541 0.93012 0.0
C650 C 0.05352 0.84868 0.90164 0.0
C651 C 0.92179 0.67271 0.93423 0.0
C652 C 1.01355 0.77429 0.9047 0.0
C653 C 0.03727 0.69178 0.79844 0.0
C654 C 0.04831 0.6722 0.81572 0.0
C655 C 0.90023 0.73869 0.89775 0.0
C656 C 0.74495 0.56459 0.93155 0.0
C657 C 0.67365 0.52037 0.93579 0.0
C658 C 0.67643 0.53154 0.96089 0.0
C659 C 0.74686 0.57528 0.95663 0.0
C660 C 0.70818 0.5373 0.92121 0.0
C661 C 0.71272 0.5589 0.97113 0.0
C662 C 0.88552 0.67487 0.84605 0.0
C663 C 0.78067 0.58043 0.91584 0.0
H664 H 0.03499 0.91782 0.92705 0.0
H665 H 0.96534 0.79262 0.93124 0.0
H666 H 0.97553 0.85799 0.94105 0.0
H667 H 0.07548 0.84614 0.89084 0.0
H668 H 0.65042 0.51936 0.97255 0.0
H669 H 0.77466 0.59604 0.96509 0.0
H670 H 0.70662 0.52859 0.90192 0.0
H671 H 0.71441 0.56732 0.99046 0.0
Eu672 Eu 0.25637 0.94948 0.37264 0.0
C673 C 0.10226 0.80349 0.40389 0.0
N674 N 0.1355 0.82163 0.41783 0.0
C675 C 0.09797 0.8181 0.45386 0.0
C676 C 0.06533 0.79284 0.41444 0.0
C677 C 0.13396 0.82852 0.44255 0.0
C678 C 0.06351 0.80009 0.43977 0.0
C679 C 0.07092 0.77645 0.36423 0.0
C680 C 0.10515 0.79525 0.37907 0.0
C681 C 0.0343 0.76711 0.37446 0.0
C682 C 0.03148 0.77501 0.39952 0.0
Eu683 Eu 0.19428 0.83449 0.39824 0.0
N684 N 0.141 0.80439 0.36966 0.0
C685 C 0.07431 0.76675 0.33969 0.0
C686 C 0.14345 0.79105 0.34661 0.0
C687 C 0.11063 0.77345 0.33099 0.0
H688 H 0.16049 0.84176 0.45356 0.0
H689 H 0.11316 0.76401 0.3125 0.0
H690 H 0.22452 0.95228 0.31569 0.0
H691 H 0.40636 0.03152 0.40889 0.0
H692 H 0.17005 0.7922 0.3404 0.0
H693 H 0.0488 0.75255 0.32767 0.0
H694 H 0.3337 0.9936 0.41132 0.0
H695 H 0.09679 0.82364 0.47347 0.0
H696 H 1.00784 0.75302 0.36325 0.0
H697 H 1.0029 0.76692 0.40724 0.0
H698 H 0.25203 0.97435 0.27337 0.0
H699 H 0.03563 0.79168 0.44868 0.0
H700 H 0.43938 0.04786 0.36782 0.0
N701 N 0.28015 0.96987 0.33193 0.0
C702 C 0.31971 0.98858 0.3287 0.0
C703 C 0.2712 0.97753 0.28866 0.0
C704 C 0.33661 1.00118 0.30493 0.0
C705 C 0.2558 0.9652 0.31257 0.0
C706 C 0.3117 0.99481 0.28471 0.0
N707 N 0.32593 0.98761 0.37216 0.0
C708 C 0.34791 1.00073 0.39337 0.0
C709 C 0.38471 0.01963 0.34716 0.0
C710 C 0.34339 0.99781 0.3495 0.0
C711 C 0.40754 0.03112 0.36882 0.0
C712 C 0.38902 0.02206 0.39203 0.0
H713 H 0.32352 1.00444 0.26618 0.0
H714 H 0.3913 0.03082 0.28417 0.0
H715 H 0.43347 0.04683 0.32119 0.0
O716 O 0.22967 0.97611 0.39571 0.0
O717 O 0.29617 0.92403 0.38258 0.0
O718 O 0.25925 0.85779 0.39478 0.0
O719 O 0.26433 1.00756 0.36371 0.0
O720 O 0.2593 0.94261 0.41411 0.0
O721 O 0.22589 0.87812 0.43003 0.0
O722 O 0.17502 0.7714 0.3941 0.0
O723 O 0.17329 0.87933 0.40074 0.0
O724 O 0.1926 0.90825 0.36311 0.0
O725 O 0.19413 0.79912 0.4298 0.0
O726 O 0.22527 0.84575 0.36017 0.0
O727 O 0.22057 0.89868 0.34654 0.0
C728 C 0.29276 0.8901 0.38983 0.0
C729 C 0.20973 0.01512 0.37312 0.0
C730 C 0.17961 0.05707 0.37333 0.0
C731 C 0.15139 0.03111 0.35624 0.0
C732 C 0.18142 0.99016 0.35585 0.0
C733 C 0.15227 0.99792 0.34769 0.0
C734 C 0.20862 0.04853 0.38199 0.0
C735 C 0.24771 0.91706 0.43257 0.0
C736 C 0.24079 1.00659 0.38116 0.0
C737 C 0.37776 0.02122 0.30231 0.0
C738 C 0.40177 0.03038 0.3234 0.0
C739 C 0.16601 0.89355 0.38065 0.0
C740 C 0.19985 0.74169 0.42235 0.0
C741 C 0.19743 0.67754 0.41943 0.0
C742 C 0.22931 0.69187 0.43605 0.0
C743 C 0.23153 0.7547 0.439 0.0
C744 C 0.18297 0.70295 0.41253 0.0
C745 C 0.24594 0.72989 0.44579 0.0
C746 C 0.22696 0.86941 0.34207 0.0
C747 C 0.18196 0.76675 0.4171 0.0
H748 H 0.12831 0.03631 0.34961 0.0
H749 H 0.18201 0.96478 0.34847 0.0
H750 H 0.13039 0.97824 0.33452 0.0
H751 H 0.23066 0.06816 0.39513 0.0
H752 H 0.24179 0.67377 0.44143 0.0
H753 H 0.24497 0.78393 0.44706 0.0
H754 H 0.15792 0.69228 0.40015 0.0
H755 H 0.27027 0.7402 0.45868 0.0
Eu756 Eu 0.31747 0.24892 0.88148 0.0
C757 C 0.33073 0.1121 0.93124 0.0
N758 N 0.3487 0.15086 0.93787 0.0
C759 C 0.33581 0.13306 0.98087 0.0
C760 C 0.31461 0.08223 0.94948 0.0
C761 C 0.35181 0.16175 0.96221 0.0
C762 C 0.31723 0.09315 0.9745 0.0
C763 C 0.3081 0.0622 0.89879 0.0
C764 C 0.32756 0.10217 0.90604 0.0
C765 C 0.29287 0.03251 0.917 0.0
C766 C 0.29632 0.04249 0.94224 0.0
Eu767 Eu 0.37787 0.19593 0.905 0.0
N768 N 0.34258 0.13149 0.88866 0.0
C769 C 0.30462 0.05319 0.8734 0.0
C770 C 0.34066 0.12287 0.86396 0.0
C771 C 0.3211 0.08366 0.85593 0.0
H772 H 0.36725 0.19249 0.96739 0.0
H773 H 0.31924 0.07696 0.83629 0.0
H774 H 0.2835 0.22495 0.82329 0.0
H775 H 0.39432 0.39395 0.92544 0.0
H776 H 0.35481 0.14592 0.85038 0.0
H777 H 0.28967 0.02284 0.8671 0.0
H778 H 0.35618 0.32097 0.92397 0.0
H779 H 0.33824 0.14174 1.00019 0.0
H780 H 0.27807 1.00167 0.91175 0.0
H781 H 0.28407 0.01917 0.95604 0.0
H782 H 0.29093 0.25837 0.78282 0.0
H783 H 0.30506 0.07102 0.98904 0.0
H784 H 0.40998 0.43235 0.88631 0.0
N785 N 0.32126 0.27807 0.84243 0.0
C786 C 0.34287 0.31806 0.84137 0.0
C787 C 0.30618 0.27536 0.79907 0.0
C788 C 0.34781 0.33832 0.81877 0.0
C789 C 0.30221 0.25658 0.82191 0.0
C790 C 0.32951 0.31636 0.7974 0.0
N791 N 0.35263 0.31846 0.88469 0.0
C792 C 0.36347 0.33763 0.90696 0.0
C793 C 0.37986 0.3805 0.863 0.0
C794 C 0.35871 0.33891 0.86316 0.0
C795 C 0.39354 0.40041 0.88565 0.0
C796 C 0.3848 0.37885 0.90777 0.0
H797 H 0.33241 0.3308 0.7797 0.0
H798 H 0.37432 0.3958 0.80111 0.0
H799 H 0.40242 0.43273 0.83985 0.0
O800 O 0.27876 0.25336 0.90866 0.0
O801 O 0.38465 0.2894 0.88228 0.0
O802 O 0.41417 0.26224 0.90686 0.0
O803 O 0.26041 0.24133 0.87021 0.0
O804 O 0.31834 0.229 0.92078 0.0
O805 O 0.37738 0.23895 0.93377 0.0
O806 O 0.42031 0.18225 0.88839 0.0
O807 O 0.31046 0.16388 0.90822 0.0
O808 O 0.28998 0.18319 0.87373 0.0
O809 O 0.4238 0.19484 0.92766 0.0
O810 O 0.38659 0.2182 0.86461 0.0
O811 O 0.3267 0.2113 0.85357 0.0
C812 C 0.41481 0.29174 0.89469 0.0
C813 C 0.2117 0.20944 0.90105 0.0
C814 C 0.13984 0.17612 0.9018 0.0
C815 C 0.13925 0.14562 0.91603 0.0
C816 C 0.2103 0.17871 0.91532 0.0
C817 C 0.17427 0.14714 0.92279 0.0
C818 C 0.17646 0.2081 0.89437 0.0
C819 C 0.34781 0.24563 0.93624 0.0
C820 C 0.24981 0.24265 0.893 0.0
C821 C 0.36999 0.37974 0.81833 0.0
C822 C 0.38599 0.40078 0.8404 0.0
C823 C 0.28474 0.15633 0.89038 0.0
C824 C 0.48257 0.20797 0.90674 0.0
C825 C 0.54368 0.20631 0.90076 0.0
C826 C 0.56407 0.24779 0.89873 0.0
C827 C 0.50354 0.24918 0.90476 0.0
C828 C 0.50265 0.18668 0.90485 0.0
C829 C 0.54413 0.26891 0.9008 0.0
C830 C 0.36108 0.21553 0.84759 0.0
C831 C 0.43943 0.1864 0.90895 0.0
H832 H 0.11169 0.12027 0.92171 0.0
H833 H 0.23704 0.17909 0.92076 0.0
H834 H 0.17352 0.12375 0.93385 0.0
H835 H 0.1777 0.23215 0.88364 0.0
H836 H 0.59538 0.26403 0.895 0.0
H837 H 0.48847 0.26595 0.90586 0.0
H838 H 0.48616 0.15482 0.90652 0.0
H839 H 0.56017 0.30068 0.89891 0.0
Eu840 Eu 0.07166 0.30858 0.37881 0.0
C841 C 0.22094 0.32274 0.42432 0.0
N842 N 0.20067 0.34055 0.43216 0.0
C843 C 0.20229 0.32107 0.47416 0.0
C844 C 0.23131 0.30188 0.44121 0.0
C845 C 0.19228 0.34109 0.45672 0.0
C846 C 0.22157 0.30107 0.46635 0.0
C847 C 0.25095 0.30583 0.39061 0.0
C848 C 0.23062 0.32478 0.39925 0.0
C849 C 0.26013 0.28392 0.40723 0.0
C850 C 0.25057 0.28215 0.43248 0.0
Eu851 Eu 0.1847 0.37335 0.40163 0.0
N852 N 0.22132 0.3462 0.38351 0.0
C853 C 0.26236 0.31025 0.36564 0.0
C854 C 0.23592 0.35369 0.35981 0.0
C855 C 0.25552 0.33496 0.35031 0.0
H856 H 0.17769 0.3568 0.46284 0.0
H857 H 0.26601 0.34019 0.3313 0.0
H858 H 0.07891 0.29907 0.31651 0.0
H859 H 0.98957 0.36733 0.42672 0.0
H860 H 0.23353 0.37479 0.34816 0.0
H861 H 0.27787 0.29605 0.35827 0.0
H862 H 0.02171 0.32687 0.42206 0.0
H863 H 0.1951 0.32103 0.4936 0.0
H864 H 0.27532 0.26883 0.40082 0.0
H865 H 0.25828 0.26551 0.44511 0.0
H866 H 0.07526 0.33141 0.27805 0.0
H867 H 0.22899 0.28532 0.47988 0.0
H868 H 0.98675 0.40555 0.39084 0.0
N869 N 0.06378 0.33297 0.34019 0.0
C870 C 0.04832 0.35723 0.34138 0.0
C871 C 0.06821 0.33946 0.29578 0.0
C872 C 0.04422 0.3753 0.31977 0.0
C873 C 0.07116 0.32185 0.31769 0.0
C874 C 0.05545 0.36694 0.29687 0.0
N875 N 0.03754 0.34333 0.38437 0.0
C876 C 0.02037 0.34351 0.40642 0.0
C877 C 0.01634 0.38547 0.36577 0.0
C878 C 0.03426 0.36209 0.36403 0.0
C879 C 1.00075 0.38786 0.38874 0.0
C880 C 1.00226 0.36632 0.40905 0.0
H881 H 0.05283 0.38027 0.27985 0.0
H882 H 0.02495 0.41451 0.30523 0.0
H883 H 1.0007 0.42355 0.34552 0.0
O884 O 0.02863 0.25421 0.39777 0.0
O885 O 0.09703 0.37234 0.39247 0.0
O886 O 0.1592 0.4016 0.37686 0.0
O887 O 0.0181 0.2648 0.36012 0.0
O888 O 0.08178 0.30783 0.42002 0.0
O889 O 0.13744 0.36772 0.43017 0.0
O890 O 0.24821 0.41415 0.40191 0.0
O891 O 0.14685 0.30818 0.41192 0.0
O892 O 0.11083 0.28112 0.37685 0.0
O893 O 0.21045 0.42869 0.42281 0.0
O894 O 0.17449 0.37303 0.35934 0.0
O895 O 0.1193 0.31184 0.35363 0.0
C896 C 0.12807 0.40346 0.38331 0.0
C897 C 1.00065 0.19975 0.37047 0.0
C898 C 0.96071 0.12764 0.37072 0.0
C899 C 0.98853 0.12602 0.35497 0.0
C900 C 0.02801 0.19717 0.35486 0.0
C901 C 0.0219 0.16053 0.34718 0.0
C902 C 0.96714 0.16486 0.37858 0.0
C903 C 0.10211 0.33706 0.43554 0.0
C904 C 1.00741 0.23896 0.37793 0.0
C905 C 0.02789 0.40001 0.32158 0.0
C906 C 1.01399 0.40508 0.34452 0.0
C907 C 0.13134 0.27944 0.39562 0.0
C908 C 0.26974 0.48183 0.40563 0.0
C909 C 0.33435 0.54012 0.39687 0.0
C910 C 0.31486 0.55824 0.38585 0.0
C911 C 0.25132 0.50065 0.39433 0.0
C912 C 0.31129 0.50173 0.40689 0.0
C913 C 0.27378 0.53865 0.38464 0.0
C914 C 0.15154 0.34252 0.34512 0.0
C915 C 0.24628 0.44087 0.41509 0.0
H916 H 0.98473 0.09794 0.34891 0.0
H917 H 0.05403 0.22357 0.34841 0.0
H918 H 0.04304 0.15886 0.33507 0.0
H919 H 0.94594 0.16672 0.39061 0.0
H920 H 0.33135 0.58788 0.37841 0.0
H921 H 0.2196 0.48591 0.39282 0.0
H922 H 0.32558 0.48696 0.41522 0.0
H923 H 0.25925 0.55301 0.37611 0.0
Eu924 Eu 0.78432 0.07015 0.87138 0.0
C925 C 0.91953 0.21509 0.9187 0.0
N926 N 0.88257 0.19133 0.9277 0.0
C927 C 0.90856 0.18811 0.96732 0.0
C928 C 0.95271 0.2254 0.93371 0.0
C929 C 0.8765 0.17855 0.95176 0.0
C930 C 0.94681 0.2116 0.95827 0.0
C931 C 0.96226 0.25208 0.88427 0.0
C932 C 0.92412 0.22843 0.8942 0.0
C933 C 0.99534 0.262 0.89912 0.0
C934 C 0.99058 0.24909 0.92382 0.0
Eu935 Eu 0.83058 0.18041 0.90115 0.0
N936 N 0.89152 0.21867 0.88021 0.0
C937 C 0.9661 0.2657 0.85981 0.0
C938 C 0.89536 0.23442 0.85699 0.0
C939 C 0.93252 0.2572 0.84623 0.0
H940 H 0.8469 0.16103 0.95886 0.0
H941 H 0.93525 0.26897 0.82765 0.0
H942 H 0.79884 0.08235 0.80929 0.0
H943 H 0.65137 0.96726 0.92127 0.0
H944 H 0.87021 0.23091 0.84685 0.0
H945 H 0.99487 0.28377 0.8515 0.0
H946 H 0.72285 0.01286 0.91549 0.0
H947 H 0.90376 0.17761 0.98634 0.0
H948 H 0.02479 0.28016 0.89177 0.0
H949 H 0.01644 0.25765 0.93513 0.0
H950 H 0.75911 0.06907 0.77125 0.0
H951 H 0.97158 0.21897 0.97039 0.0
H952 H 0.60584 0.95272 0.88584 0.0
N953 N 0.74928 0.05561 0.83343 0.0
C954 C 0.70957 0.03241 0.83505 0.0
C955 C 0.74475 0.05902 0.78911 0.0
C956 C 0.68565 0.02266 0.81369 0.0
C957 C 0.76719 0.06725 0.81078 0.0
C958 C 0.70374 0.03711 0.79061 0.0
N959 N 0.717 0.02557 0.87793 0.0
C960 C 0.7029 1.00726 0.90023 0.0
C961 C 0.65218 0.99019 0.86013 0.0
C962 C 0.69299 0.01641 0.85792 0.0
C963 C 0.63704 0.973 0.88336 0.0
C964 C 0.66262 0.98119 0.90342 0.0
H965 H 0.68642 0.03037 0.77376 0.0
H966 H 0.62586 0.9903 0.79978 0.0
H967 H 0.59655 0.96184 0.84046 0.0
O968 O 0.80319 0.0323 0.88979 0.0
O969 O 0.73966 0.08758 0.8856 0.0
O970 O 0.77228 0.15554 0.88136 0.0
O971 O 0.78901 0.02471 0.85071 0.0
O972 O 0.7959 0.07859 0.91301 0.0
O973 O 0.78784 0.13016 0.92697 0.0
O974 O 0.85032 0.24356 0.90138 0.0
O975 O 0.85959 0.14258 0.90412 0.0
O976 O 0.84803 0.11597 0.86558 0.0
O977 O 0.81314 0.20662 0.93107 0.0
O978 O 0.81128 0.1742 0.86025 0.0
O979 O 0.82044 0.12345 0.84648 0.0
C980 C 0.74002 0.12154 0.88504 0.0
C981 C 0.7813 0.96879 0.8726 0.0
C982 C 0.78803 0.91088 0.88029 0.0
C983 C 0.74758 0.88656 0.87598 0.0
C984 C 0.74088 0.94398 0.8684 0.0
C985 C 0.72419 0.90307 0.87009 0.0
C986 C 0.80482 0.95209 0.87865 0.0
C987 C 0.78265 0.09414 0.92939 0.0
C988 C 0.79966 0.01192 0.86985 0.0
C989 C 0.64473 0.99786 0.81594 0.0
C990 C 0.62804 0.98159 0.8391 0.0
C991 C 0.87158 0.13171 0.88452 0.0
C992 C 0.8151 0.26859 0.92422 0.0
C993 C 0.8202 0.33338 0.91748 0.0
C994 C 0.78789 0.32163 0.9336 0.0
C995 C 0.78348 0.25842 0.9405 0.0
C996 C 0.83353 0.30635 0.91283 0.0
C997 C 0.76983 0.2846 0.94493 0.0
C998 C 0.81505 0.15351 0.8421 0.0
C999 C 0.83211 0.24224 0.92185 0.0
H1000 H 0.73408 0.85478 0.87738 0.0
H1001 H 0.72231 0.95618 0.86365 0.0
H1002 H 0.693 0.88408 0.86682 0.0
H1003 H 0.83603 0.97106 0.88205 0.0
H1004 H 0.77723 0.34155 0.93825 0.0
H1005 H 0.76973 0.23046 0.95024 0.0
H1006 H 0.85861 0.31487 0.90072 0.0
H1007 H 0.7455 0.27643 0.95761 0.0
H1008 H 0.17423 0.91886 0.15634 0.0
H1009 H 0.14501 0.90124 0.07792 0.0
H1010 H 0.16891 0.97235 0.07297 0.0
H1011 H 0.14988 0.99816 0.16605 0.0
H1012 H 0.19046 0.02531 0.18703 0.0
H1013 H 0.16733 0.97233 0.18526 0.0
H1014 H 0.23506 0.97741 0.17449 0.0
H1015 H 0.25693 0.02994 0.17838 0.0
H1016 H 0.26432 1.01062 0.14987 0.0
H1017 H 0.19936 0.04535 0.0757 0.0
H1018 H 0.2363 0.11655 0.08592 0.0
H1019 H 0.2492 0.08828 0.16201 0.0
C1020 C 0.17188 0.92997 0.13835 0.0
C1021 C 0.15729 0.90467 0.11755 0.0
C1022 C 0.15573 0.92022 0.09409 0.0
C1023 C 0.16924 0.96052 0.09111 0.0
C1024 C 0.18437 0.98497 0.11177 0.0
C1025 C 0.18581 0.97043 0.13496 0.0
C1026 C 0.20572 1.00365 0.15371 0.0
C1027 C 0.17661 0.99963 0.17423 0.0
C1028 C 0.24266 1.00541 0.16477 0.0
C1029 C 0.21643 0.0391 0.1372 0.0
C1030 C 0.20313 0.02752 0.11319 0.0
C1031 C 0.2098 0.05481 0.09445 0.0
C1032 C 0.23081 0.09508 0.10036 0.0
C1033 C 0.24558 0.1076 0.12464 0.0
C1034 C 0.23824 0.07927 0.14328 0.0
H1035 H 0.23528 0.13598 0.67222 0.0
H1036 H 0.22525 0.12713 0.59183 0.0
H1037 H 0.17701 0.14994 0.59303 0.0
H1038 H 0.13037 0.10292 0.68384 0.0
H1039 H 0.14094 0.1362 0.70959 0.0
H1040 H 0.17327 0.11712 0.70281 0.0
H1041 H 0.23291 0.1884 0.69933 0.0
H1042 H 0.20049 0.20701 0.70697 0.0
H1043 H 0.22946 0.22312 0.67895 0.0
H1044 H 0.13634 0.18058 0.60219 0.0
H1045 H 0.09821 0.20944 0.61899 0.0
H1046 H 0.12977 0.19454 0.69408 0.0
C1047 C 0.22222 0.13803 0.65496 0.0
C1048 C 0.23426 0.1302 0.63187 0.0
C1049 C 0.21672 0.13338 0.60966 0.0
C1050 C 0.1893 0.14631 0.61016 0.0
C1051 C 0.1793 0.15544 0.63306 0.0
C1052 C 0.19456 0.1508 0.65512 0.0
C1053 C 0.17885 0.16308 0.67713 0.0
C1054 C 0.15439 0.12772 0.69436 0.0
C1055 C 0.21244 0.19743 0.69143 0.0
C1056 C 0.15312 0.17618 0.66388 0.0
C1057 C 0.15408 0.17161 0.63847 0.0
C1058 C 0.13449 0.18339 0.6221 0.0
C1059 C 0.11263 0.19957 0.63192 0.0
C1060 C 0.10991 0.20351 0.65799 0.0
C1061 C 0.13092 0.1919 0.67411 0.0
H1062 H 0.96269 0.12182 0.17672 0.0
H1063 H 0.91834 0.08787 0.10159 0.0
H1064 H 0.98243 0.13953 0.08491 0.0
H1065 H 0.0223 0.22789 0.16413 0.0
H1066 H 0.06119 0.23451 0.18488 0.0
H1067 H 1.01116 0.19663 0.19107 0.0
H1068 H 0.03243 0.14378 0.19204 0.0
H1069 H 0.08256 0.18131 0.186 0.0
H1070 H 0.05842 0.13905 0.1658 0.0
H1071 H 0.05319 0.19224 0.07651 0.0
H1072 H 0.12361 0.244 0.07726 0.0
H1073 H 0.12114 0.24311 0.1578 0.0
C1074 C 0.96638 0.12538 0.15675 0.0
C1075 C 0.9355 0.10074 0.14044 0.0
C1076 C 0.9414 0.10665 0.11443 0.0
C1077 C 0.97777 0.13578 0.1048 0.0
C1078 C 1.00783 0.159 0.12141 0.0
C1079 C 1.00235 0.15441 0.14685 0.0
C1080 C 0.03951 0.1827 0.16073 0.0
C1081 C 0.03316 0.21218 0.17611 0.0
C1082 C 0.05408 0.16036 0.1771 0.0
C1083 C 0.06714 0.20303 0.13915 0.0
C1084 C 0.04829 0.18924 0.1166 0.0
C1085 C 0.0681 0.20338 0.09407 0.0
C1086 C 0.10802 0.23268 0.09465 0.0
C1087 C 0.12761 0.24746 0.11757 0.0
C1088 C 0.10692 0.23212 0.14004 0.0
H1089 H 0.82821 0.94227 0.67522 0.0
H1090 H 0.8443 0.90622 0.60205 0.0
H1091 H 0.86211 0.97231 0.58539 0.0
H1092 H 0.78387 0.99793 0.65465 0.0
H1093 H 0.80738 0.03697 0.67722 0.0
H1094 H 0.79722 0.98784 0.68458 0.0
H1095 H 0.86951 0.0118 0.69467 0.0
H1096 H 0.88107 0.06179 0.68884 0.0
H1097 H 0.90726 0.04175 0.67249 0.0
H1098 H 0.88485 0.04535 0.57807 0.0
H1099 H 0.89902 0.11469 0.57897 0.0
H1100 H 0.86152 0.10003 0.65592 0.0
C1101 C 0.835 0.94821 0.65562 0.0
C1102 C 0.83485 0.91928 0.63984 0.0
C1103 C 0.8439 0.92796 0.61432 0.0
C1104 C 0.85435 0.96547 0.6048 0.0
C1105 C 0.85506 0.9937 0.621 0.0
C1106 C 0.84481 0.98516 0.64578 0.0
C1107 C 0.84702 0.02021 0.65924 0.0
C1108 C 0.80647 1.01019 0.66951 0.0
C1109 C 0.87807 0.03473 0.68003 0.0
C1110 C 0.86002 0.04987 0.63819 0.0
C1111 C 0.8655 0.03446 0.61641 0.0
C1112 C 0.88016 0.05747 0.59496 0.0
C1113 C 0.88854 0.09688 0.59567 0.0
C1114 C 0.88128 0.11241 0.61749 0.0
C1115 C 0.86705 0.08862 0.63897 0.0
H1116 H 0.94076 0.88237 0.17075 0.0
H1117 H 0.94782 0.83474 0.09935 0.0
H1118 H 0.89219 0.84179 0.08404 0.0
H1119 H 0.8331 0.83472 0.17196 0.0
H1120 H 0.83333 0.87597 0.18699 0.0
H1121 H 0.87289 0.86609 0.1925 0.0
H1122 H 0.92347 0.93731 0.17846 0.0
H1123 H 0.88388 0.94702 0.17291 0.0
H1124 H 0.91814 0.95437 0.14833 0.0
H1125 H 0.83857 0.85784 0.0757 0.0
H1126 H 0.78579 0.87457 0.0762 0.0
H1127 H 0.81142 0.90982 0.15352 0.0
C1128 C 0.93045 0.87325 0.15192 0.0
C1129 C 0.94874 0.85805 0.13619 0.0
C1130 C 0.9341 0.8461 0.11178 0.0
C1131 C 0.9027 0.85028 0.10288 0.0
C1132 C 0.88589 0.86607 0.1187 0.0
C1133 C 0.89879 0.87676 0.14284 0.0
C1134 C 0.87514 0.89238 0.15612 0.0
C1135 C 0.85227 0.8657 0.1782 0.0
C1136 C 0.90178 0.93533 0.16443 0.0
C1137 C 0.84745 0.88959 0.13553 0.0
C1138 C 0.85429 0.87442 0.11408 0.0
C1139 C 0.83279 0.86939 0.09246 0.0
C1140 C 0.80284 0.87902 0.09294 0.0
C1141 C 0.79414 0.89313 0.11495 0.0
C1142 C 0.8174 0.89923 0.13638 0.0
H1143 H 0.89682 0.78611 0.66164 0.0
H1144 H 0.89905 0.77514 0.58152 0.0
H1145 H 0.96865 0.82826 0.58073 0.0
H1146 H 0.95766 0.89186 0.66403 0.0
H1147 H 0.98318 0.89222 0.69199 0.0
H1148 H 0.93362 0.85294 0.68668 0.0
H1149 H 0.95477 0.80065 0.69152 0.0
H1150 H 1.00445 0.83937 0.69753 0.0
H1151 H 0.99477 0.80446 0.67292 0.0
H1152 H 0.03923 0.88071 0.58893 0.0
H1153 H 0.1031 0.9337 0.605 0.0
H1154 H 0.05453 0.91176 0.67961 0.0
C1155 C 0.91182 0.79521 0.64393 0.0
C1156 C 0.89268 0.77612 0.62167 0.0
C1157 C 0.91335 0.78898 0.59884 0.0
C1158 C 0.95289 0.81912 0.5982 0.0
C1159 C 0.97138 0.8364 0.62056 0.0
C1160 C 0.95138 0.82529 0.64297 0.0
C1161 C 0.97802 0.84887 0.6643 0.0
C1162 C 0.96218 0.87294 0.67751 0.0
C1163 C 0.98331 0.82171 0.68265 0.0
C1164 C 0.01593 0.87533 0.65036 0.0
C1165 C 1.01166 0.86725 0.62519 0.0
C1166 C 0.04286 0.88744 0.6086 0.0
C1167 C 0.0791 0.91728 0.6179 0.0
C1168 C 0.08377 0.92696 0.6435 0.0
C1169 C 0.05175 0.90526 0.6599 0.0
H1170 H 0.11632 0.90163 0.41275 0.0
H1171 H 0.12564 0.86926 0.33705 0.0
H1172 H 0.05674 0.85217 0.32911 0.0
H1173 H 1.01398 0.83165 0.42598 0.0
H1174 H 1.0077 0.86825 0.44212 0.0
H1175 H 0.05562 0.87274 0.44085 0.0
H1176 H 0.08082 0.94374 0.42254 0.0
H1177 H 0.03148 0.93588 0.42229 0.0
H1178 H 0.05981 0.94882 0.39395 0.0
H1179 H 0.98448 0.83367 0.33077 0.0
H1180 H 0.91885 0.82577 0.33965 0.0
H1181 H 0.9594 0.87603 0.41293 0.0
C1182 C 0.10369 0.8909 0.39455 0.0
C1183 C 0.1258 0.88597 0.37564 0.0
C1184 C 0.10896 0.87304 0.35179 0.0
C1185 C 0.06983 0.86306 0.34717 0.0
C1186 C 0.04843 0.8675 0.36635 0.0
C1187 C 0.06513 0.88214 0.38936 0.0
C1188 C 0.03703 0.88758 0.40601 0.0
C1189 C 0.02816 0.86363 0.43017 0.0
C1190 C 0.05325 0.93161 0.41151 0.0
C1191 C 1.00112 0.87129 0.3894 0.0
C1192 C 1.00816 0.85985 0.36659 0.0
C1193 C 0.9788 0.84292 0.3485 0.0
C1194 C 0.94151 0.83819 0.35377 0.0
C1195 C 0.93402 0.85052 0.37688 0.0
C1196 C 0.96432 0.8669 0.39491 0.0
H1197 H 0.10969 0.94799 0.93759 0.0
H1198 H 0.09054 0.9087 0.86095 0.0
H1199 H 0.14621 0.97363 0.84786 0.0
H1200 H 0.13528 0.04853 0.92656 0.0
H1201 H 0.17152 0.0667 0.95112 0.0
H1202 H 0.13001 0.01754 0.95277 0.0
H1203 H 0.17927 0.99327 0.95865 0.0
H1204 H 0.22156 0.04151 0.9541 0.0
H1205 H 0.21391 1.0008 0.93444 0.0
H1206 H 0.20011 0.04578 0.84311 0.0
H1207 H 0.25341 0.11529 0.84745 0.0
H1208 H 0.24072 0.10521 0.92763 0.0
C1209 C 0.11744 0.95299 0.91806 0.0
C1210 C 0.0958 0.92341 0.90023 0.0
C1211 C 0.10695 0.93088 0.87489 0.0
C1212 C 0.13831 0.96776 0.86731 0.0
C1213 C 0.15852 0.99662 0.88536 0.0
C1214 C 0.14884 0.98933 0.91026 0.0
C1215 C 0.17546 0.0248 0.92609 0.0
C1216 C 0.15163 0.04033 0.93991 0.0
C1217 C 0.19904 0.01456 0.94441 0.0
C1218 C 0.20161 0.05358 0.90622 0.0
C1219 C 0.19093 0.03699 0.88279 0.0
C1220 C 0.20903 0.05881 0.86139 0.0
C1221 C 0.23902 0.09835 0.864 0.0
C1222 C 0.25124 0.11548 0.88784 0.0
C1223 C 0.23224 0.09267 0.90918 0.0
H1224 H 0.13793 0.23625 0.35772 0.0
H1225 H 0.14182 0.24702 0.43797 0.0
H1226 H 0.15856 0.19398 0.44123 0.0
H1227 H 0.09352 0.13193 0.35499 0.0
H1228 H 0.12191 0.13154 0.32871 0.0
H1229 H 0.11203 0.17144 0.3325 0.0
H1230 H 0.18622 0.22252 0.33116 0.0
H1231 H 0.19691 0.18317 0.32681 0.0
H1232 H 0.21923 0.21744 0.35213 0.0
H1233 H 0.17514 0.13909 0.43536 0.0
H1234 H 0.185 0.08439 0.42113 0.0
H1235 H 0.16955 0.10954 0.34475 0.0
C1236 C 0.14209 0.2273 0.37597 0.0
C1237 C 0.139 0.24604 0.3976 0.0
C1238 C 0.14461 0.2334 0.42115 0.0
C1239 C 0.15411 0.2033 0.42316 0.0
C1240 C 0.15781 0.18597 0.40142 0.0
C1241 C 0.15173 0.19742 0.37828 0.0
C1242 C 0.15687 0.17383 0.35778 0.0
C1243 C 0.1188 0.15079 0.34262 0.0
C1244 C 0.19189 0.20085 0.34098 0.0
C1245 C 0.16563 0.14646 0.37298 0.0
C1246 C 0.16672 0.15431 0.3981 0.0
C1247 C 0.17434 0.13274 0.41572 0.0
C1248 C 0.18017 0.10187 0.40747 0.0
C1249 C 0.17791 0.09252 0.38186 0.0
C1250 C 0.1711 0.11567 0.36448 0.0
H1251 H 0.07306 0.15015 0.93021 0.0
H1252 H 0.12133 0.1974 0.85728 0.0
H1253 H 0.05841 0.19279 0.84535 0.0
H1254 H 0.97569 0.07944 0.90766 0.0
H1255 H 0.95129 0.08462 0.93461 0.0
H1256 H 1.00038 0.09226 0.9373 0.0
H1257 H 0.02311 0.16052 0.95601 0.0
H1258 H 0.97501 0.15505 0.9525 0.0
H1259 H 0.01747 0.19661 0.93866 0.0
H1260 H 0.9889 0.17905 0.84046 0.0
H1261 H 0.91892 0.16094 0.84396 0.0
H1262 H 0.91693 0.12501 0.92046 0.0
C1263 C 0.07044 0.15934 0.91166 0.0
C1264 C 0.1023 0.17425 0.89471 0.0
C1265 C 0.09764 0.18646 0.87075 0.0
C1266 C 0.0619 0.18368 0.86373 0.0
C1267 C 0.03109 0.16857 0.88085 0.0
C1268 C 0.03499 0.15658 0.90431 0.0
C1269 C 0.99718 0.1407 0.91908 0.0
C1270 C 0.98014 0.09665 0.925 0.0
C1271 C 1.00353 0.16468 0.94297 0.0
C1272 C 0.97167 0.1467 0.9005 0.0
C1273 C 0.99152 0.16201 0.87836 0.0
C1274 C 0.97317 0.1674 0.85776 0.0
C1275 C 0.93347 0.15682 0.85984 0.0
C1276 C 0.91296 0.14187 0.88249 0.0
C1277 C 0.93233 0.13694 0.90307 0.0
H1278 H 0.9122 0.06354 0.34207 0.0
H1279 H 0.93031 0.1069 0.41788 0.0
H1280 H 0.87564 0.04226 0.43194 0.0
H1281 H 0.80498 1.00422 0.34554 0.0
H1282 H 0.80291 0.96578 0.32607 0.0
H1283 H 0.84213 0.01595 0.32208 0.0
H1284 H 0.89342 0.99311 0.32822 0.0
H1285 H 0.85418 0.94303 0.33242 0.0
H1286 H 0.8914 0.96633 0.35602 0.0
H1287 H 0.82203 0.97084 0.43796 0.0
H1288 H 0.76965 0.90089 0.43482 0.0
H1289 H 0.78573 0.90535 0.35493 0.0
C1290 C 0.90454 0.05951 0.36162 0.0
C1291 C 0.9256 0.09024 0.37892 0.0
C1292 C 0.91438 0.08391 0.4043 0.0
C1293 C 0.88356 0.04723 0.41245 0.0
C1294 C 0.86401 0.01731 0.39496 0.0
C1295 C 0.87374 0.02327 0.37001 0.0
C1296 C 0.84825 0.98638 0.35497 0.0
C1297 C 0.82308 0.99353 0.33604 0.0
C1298 C 0.87332 0.97134 0.34216 0.0
C1299 C 0.82299 0.95853 0.37535 0.0
C1300 C 0.83257 0.97682 0.39831 0.0
C1301 C 0.81389 0.95654 0.42 0.0
C1302 C 0.78403 0.91691 0.41803 0.0
C1303 C 0.77268 0.89819 0.39457 0.0
C1304 C 0.79315 0.91911 0.37307 0.0
H1305 H 0.89331 0.78319 0.86042 0.0
H1306 H 0.88612 0.76661 0.94036 0.0
H1307 H 0.86274 0.81427 0.94472 0.0
H1308 H 0.92502 0.89129 0.86392 0.0
H1309 H 0.898 0.88917 0.83633 0.0
H1310 H 0.91834 0.85703 0.83944 0.0
H1311 H 0.84888 0.79493 0.83276 0.0
H1312 H 0.83065 0.82848 0.82806 0.0
H1313 H 0.80829 0.79031 0.85104 0.0
H1314 H 0.83272 0.85694 0.94024 0.0
H1315 H 0.80027 0.89441 0.92718 0.0
H1316 H 0.82702 0.88483 0.85021 0.0
C1317 C 0.88758 0.79032 0.87884 0.0
C1318 C 0.89114 0.771 0.90009 0.0
C1319 C 0.88319 0.78082 0.92387 0.0
C1320 C 0.87008 0.808 0.92653 0.0
C1321 C 0.86536 0.82544 0.90521 0.0
C1322 C 0.87432 0.81746 0.88181 0.0
C1323 C 0.86562 0.8397 0.86194 0.0
C1324 C 0.90403 0.87117 0.84969 0.0
C1325 C 0.83667 0.81163 0.84232 0.0
C1326 C 0.84742 0.85873 0.87768 0.0
C1327 C 0.84857 0.8509 0.90265 0.0
C1328 C 0.83223 0.86386 0.92081 0.0
C1329 C 0.81389 0.88506 0.91327 0.0
C1330 C 0.81176 0.89281 0.88784 0.0
C1331 C 0.829 0.87978 0.86982 0.0
H1332 H 0.17748 0.71239 0.08939 0.0
H1333 H 0.10618 0.66838 0.15615 0.0
H1334 H 0.1216 0.61416 0.15829 0.0
H1335 H 0.15207 0.61818 0.06262 0.0
H1336 H 0.20097 0.63565 0.05064 0.0
H1337 H 0.18262 0.66935 0.05418 0.0
H1338 H 0.24288 0.71487 0.08151 0.0
H1339 H 0.26141 0.68134 0.0781 0.0
H1340 H 0.25344 0.69483 0.1087 0.0
H1341 H 0.14728 0.56503 0.15299 0.0
H1342 H 0.18123 0.52815 0.14166 0.0
H1343 H 0.23479 0.60597 0.07847 0.0
C1344 C 0.16465 0.69124 0.10441 0.0
C1345 C 0.14032 0.69461 0.12253 0.0
C1346 C 0.12472 0.66639 0.14197 0.0
C1347 C 0.13334 0.63548 0.14332 0.0
C1348 C 0.15769 0.63328 0.12512 0.0
C1349 C 0.17305 0.66059 0.10607 0.0
C1350 C 0.19937 0.65296 0.08916 0.0
C1351 C 0.18275 0.64346 0.06258 0.0
C1352 C 0.24177 0.68808 0.0894 0.0
C1353 C 0.19677 0.6171 0.10164 0.0
C1354 C 0.1725 0.60589 0.12229 0.0
C1355 C 0.1662 0.57361 0.1368 0.0
C1356 C 0.18546 0.55267 0.13015 0.0
C1357 C 0.21095 0.56418 0.10925 0.0
C1358 C 0.21607 0.59663 0.09478 0.0
H1359 H 0.60947 0.18559 0.57036 0.0
H1360 H 0.64187 0.16529 0.64364 0.0
H1361 H 0.57253 0.13611 0.65734 0.0
H1362 H 0.54401 0.2157 0.5892 0.0
H1363 H 0.50966 0.19162 0.56409 0.0
H1364 H 0.56074 0.20679 0.55995 0.0
H1365 H 0.54049 0.13492 0.54781 0.0
H1366 H 0.48939 0.11996 0.55243 0.0
H1367 H 0.51078 0.09519 0.56894 0.0
H1368 H 0.49972 0.11385 0.66377 0.0
H1369 H 0.43198 0.10313 0.66266 0.0
H1370 H 0.44849 0.13933 0.58525 0.0
C1371 C 0.60195 0.17473 0.58924 0.0
C1372 C 0.63116 0.17783 0.60594 0.0
C1373 C 0.61997 0.16292 0.63044 0.0
C1374 C 0.58063 0.1463 0.63838 0.0
C1375 C 0.55265 0.14424 0.62151 0.0
C1376 C 0.56287 0.15778 0.59737 0.0
C1377 C 0.52791 0.15413 0.58318 0.0
C1378 C 0.5361 0.19449 0.57356 0.0
C1379 C 0.51647 0.12427 0.56183 0.0
C1380 C 0.4969 0.13855 0.60342 0.0
C1381 C 0.51132 0.13203 0.62526 0.0
C1382 C 0.48814 0.11862 0.64669 0.0
C1383 C 0.44963 0.11255 0.64588 0.0
C1384 C 0.43488 0.12052 0.62391 0.0
C1385 C 0.45882 0.13305 0.60237 0.0
H1386 H 0.43255 0.63518 0.14696 0.0
H1387 H 0.5081 0.63398 0.08836 0.0
H1388 H 0.46913 0.56126 0.08726 0.0
H1389 H 0.41473 0.54142 0.17751 0.0
H1390 H 0.36465 0.52742 0.18509 0.0
H1391 H 0.40187 0.57885 0.18361 0.0
H1392 H 0.35864 0.58984 0.153 0.0
H1393 H 0.32183 0.53833 0.15164 0.0
H1394 H 0.34624 0.56469 0.12367 0.0
H1395 H 0.41989 0.48847 0.09108 0.0
H1396 H 0.36213 0.42228 0.09764 0.0
H1397 H 0.31597 0.47098 0.15172 0.0
C1398 C 0.44114 0.61965 0.13402 0.0
C1399 C 0.47363 0.64054 0.11779 0.0
C1400 C 0.48385 0.61885 0.10127 0.0
C1401 C 0.46179 0.57744 0.10046 0.0
C1402 C 0.4297 0.55789 0.11646 0.0
C1403 C 0.41956 0.57827 0.13307 0.0
C1404 C 0.38243 0.55031 0.14729 0.0
C1405 C 0.39147 0.54946 0.17502 0.0
C1406 C 0.3503 0.56138 0.14371 0.0
C1407 C 0.37184 0.51142 0.13487 0.0
C1408 C 0.40026 0.51623 0.11779 0.0
C1409 C 0.39744 0.48442 0.10438 0.0
C1410 C 0.36448 0.44686 0.10823 0.0
C1411 C 0.33423 0.44145 0.12493 0.0
C1412 C 0.33835 0.47423 0.13859 0.0
H1413 H 0.93067 0.50212 0.62249 0.0
H1414 H 0.8062 0.45394 0.60667 0.0
H1415 H 0.79524 0.3871 0.6133 0.0
H1416 H 0.93974 0.43042 0.58792 0.0
H1417 H 0.97465 0.4281 0.60862 0.0
H1418 H 0.97228 0.47275 0.60641 0.0
H1419 H 0.96127 0.47107 0.65401 0.0
H1420 H 0.9635 0.42627 0.65622 0.0
H1421 H 0.92123 0.42769 0.66806 0.0
H1422 H 0.7979 0.32508 0.61793 0.0
H1423 H 0.81467 0.27228 0.6184 0.0
H1424 H 0.9379 0.35901 0.62782 0.0
C1425 C 0.90097 0.47774 0.6204 0.0
C1426 C 0.86929 0.48409 0.61413 0.0
C1427 C 0.83099 0.4507 0.61205 0.0
C1428 C 0.82443 0.41231 0.61562 0.0
C1429 C 0.85639 0.40733 0.62116 0.0
C1430 C 0.89398 0.43908 0.62346 0.0
C1431 C 0.92369 0.42532 0.6274 0.0
C1432 C 0.95439 0.44002 0.60633 0.0
C1433 C 0.94359 0.43837 0.65295 0.0
C1434 C 0.89698 0.38084 0.62638 0.0
C1435 C 0.85819 0.37126 0.62316 0.0
C1436 C 0.82813 0.33231 0.62059 0.0
C1437 C 0.83796 0.3025 0.62074 0.0
C1438 C 0.87752 0.31145 0.62316 0.0
C1439 C 0.90737 0.35117 0.62653 0.0
H1440 H 0.57624 0.87872 0.08128 0.0
H1441 H 0.58918 0.90469 0.16015 0.0
H1442 H 0.52198 0.896 0.16116 0.0
H1443 H 0.52407 0.93004 0.06697 0.0
H1444 H 0.4936 0.89468 0.04378 0.0
H1445 H 0.54213 0.90264 0.04996 0.0
H1446 H 0.51242 0.82789 0.05875 0.0
H1447 H 0.46374 0.81978 0.05282 0.0
H1448 H 0.47444 0.80439 0.08196 0.0
H1449 H 0.45062 0.88124 0.15305 0.0
H1450 H 0.3874 0.87105 0.13586 0.0
H1451 H 0.4237 0.85743 0.0622 0.0
C1452 C 0.56501 0.88268 0.0988 0.0
C1453 C 0.588 0.89242 0.12067 0.0
C1454 C 0.5723 0.89766 0.14313 0.0
C1455 C 0.53398 0.89238 0.14388 0.0
C1456 C 0.51181 0.8821 0.12198 0.0
C1457 C 0.52719 0.87794 0.0998 0.0
C1458 C 0.4984 0.86825 0.07859 0.0
C1459 C 0.51557 0.90084 0.05865 0.0
C1460 C 0.48656 0.82767 0.06737 0.0
C1461 C 0.46419 0.86753 0.09216 0.0
C1462 C 0.47207 0.875 0.11725 0.0
C1463 C 0.44437 0.87551 0.13342 0.0
C1464 C 0.40838 0.86934 0.12357 0.0
C1465 C 0.40056 0.86328 0.09775 0.0
C1466 C 0.42878 0.86185 0.08204 0.0
H1467 H 0.6982 0.55371 0.58752 0.0
H1468 H 0.6705 0.57308 0.66244 0.0
H1469 H 0.61251 0.50555 0.66277 0.0
H1470 H 0.59711 0.49455 0.56577 0.0
H1471 H 0.60825 0.46297 0.54728 0.0
H1472 H 0.64562 0.51347 0.55274 0.0
H1473 H 0.69178 0.48999 0.57057 0.0
H1474 H 0.65459 0.43945 0.56525 0.0
H1475 H 0.6749 0.45515 0.59593 0.0
H1476 H 0.55902 0.43237 0.65522 0.0
H1477 H 0.51699 0.36349 0.64082 0.0
H1478 H 0.57996 0.39431 0.57056 0.0
C1479 C 0.67989 0.54403 0.60401 0.0
C1480 C 0.68906 0.56906 0.62496 0.0
C1481 C 0.66402 0.55485 0.64605 0.0
C1482 C 0.63102 0.51636 0.64642 0.0
C1483 C 0.6232 0.49232 0.6255 0.0
C1484 C 0.64696 0.50591 0.60465 0.0
C1485 C 0.63331 0.47435 0.58477 0.0
C1486 C 0.62029 0.4871 0.56125 0.0
C1487 C 0.66556 0.46414 0.57879 0.0
C1488 C 0.59855 0.44041 0.59775 0.0
C1489 C 0.59288 0.45118 0.62119 0.0
C1490 C 0.56315 0.42392 0.6368 0.0
C1491 C 0.53917 0.38478 0.62838 0.0
C1492 C 0.54499 0.37294 0.60455 0.0
C1493 C 0.5748 0.40176 0.58903 0.0
H1494 H 0.29898 0.83192 0.41365 0.0
H1495 H 0.36745 0.93823 0.37006 0.0
H1496 H 0.42402 0.92646 0.371 0.0
H1497 H 0.37798 0.83957 0.4526 0.0
H1498 H 0.35749 0.78681 0.45236 0.0
H1499 H 0.32574 0.8075 0.44917 0.0
H1500 H 0.29898 0.76827 0.40664 0.0
H1501 H 0.33082 0.74816 0.41184 0.0
H1502 H 0.33421 0.77392 0.38332 0.0
H1503 H 0.47181 0.89857 0.37461 0.0
H1504 H 0.50534 0.86008 0.38154 0.0
H1505 H 0.40442 0.77403 0.42394 0.0
C1506 C 0.32588 0.85312 0.4044 0.0
C1507 C 0.32859 0.88617 0.39181 0.0
C1508 C 0.36462 0.91296 0.38007 0.0
C1509 C 0.39686 0.90633 0.3804 0.0
C1510 C 0.39268 0.87286 0.39264 0.0
C1511 C 0.358 0.84695 0.40452 0.0
C1512 C 0.35987 0.81249 0.41574 0.0
C1513 C 0.35498 0.81152 0.44415 0.0
C1514 C 0.32916 0.77339 0.4037 0.0
C1515 C 0.40114 0.82281 0.40848 0.0
C1516 C 0.41974 0.85755 0.39502 0.0
C1517 C 0.45752 0.87162 0.38541 0.0
C1518 C 0.47648 0.84957 0.38958 0.0
C1519 C 0.45779 0.81374 0.40333 0.0
C1520 C 0.41969 0.8008 0.41304 0.0
H1521 H 0.61878 0.44953 0.95603 0.0
H1522 H 0.64097 0.52396 0.89134 0.0
H1523 H 0.57611 0.47493 0.87404 0.0
H1524 H 0.57326 0.35885 0.92353 0.0
H1525 H 0.5373 0.33126 0.94722 0.0
H1526 H 0.58406 0.37293 0.95569 0.0
H1527 H 0.54993 0.40634 0.97775 0.0
H1528 H 0.50267 0.36455 0.97023 0.0
H1529 H 0.51408 0.41347 0.96114 0.0
H1530 H 0.50695 0.41717 0.86439 0.0
H1531 H 0.4437 0.35401 0.86166 0.0
H1532 H 0.46926 0.31725 0.93197 0.0
C1533 C 0.60986 0.45571 0.93833 0.0
C1534 C 0.63487 0.49074 0.92511 0.0
C1535 C 0.62238 0.49728 0.90175 0.0
C1536 C 0.58548 0.4697 0.89186 0.0
C1537 C 0.56147 0.4355 0.90545 0.0
C1538 C 0.5734 0.42836 0.9281 0.0
C1539 C 0.54309 0.38868 0.93858 0.0
C1540 C 0.56044 0.36129 0.94142 0.0
C1541 C 0.52647 0.39357 0.96339 0.0
C1542 C 0.51228 0.37445 0.91828 0.0
C1543 C 0.52297 0.40199 0.89946 0.0
C1544 C 0.49849 0.39536 0.879 0.0
C1545 C 0.46253 0.35949 0.87764 0.0
C1546 C 0.45164 0.33052 0.89646 0.0
C1547 C 0.4769 0.33851 0.91707 0.0
H1548 H 0.18346 0.61035 0.4448 0.0
H1549 H 0.17255 0.65088 0.37171 0.0
H1550 H 0.14957 0.58396 0.35488 0.0
H1551 H 0.22159 0.55032 0.42434 0.0
H1552 H 0.196 0.51198 0.4471 0.0
H1553 H 0.20849 0.56192 0.454 0.0
H1554 H 0.1355 0.53906 0.46349 0.0
H1555 H 0.12256 0.48882 0.45699 0.0
H1556 H 0.09842 0.51095 0.44057 0.0
H1557 H 0.13336 0.51331 0.34532 0.0
H1558 H 0.12269 0.44521 0.34456 0.0
H1559 H 0.14238 0.45052 0.42399 0.0
C1560 C 0.17608 0.60524 0.42525 0.0
C1561 C 0.17998 0.63623 0.40959 0.0
C1562 C 0.16948 0.62779 0.38419 0.0
C1563 C 0.15659 0.58983 0.37443 0.0
C1564 C 0.15391 0.5603 0.39031 0.0
C1565 C 0.16306 0.56756 0.41525 0.0
C1566 C 0.1589 0.53122 0.4283 0.0
C1567 C 0.1986 0.53935 0.43907 0.0
C1568 C 0.12694 0.51666 0.44854 0.0
C1569 C 0.14629 0.50237 0.40681 0.0
C1570 C 0.14369 0.51969 0.38499 0.0
C1571 C 0.13477 0.49942 0.36239 0.0
C1572 C 0.12871 0.46079 0.3621 0.0
C1573 C 0.13106 0.44263 0.38426 0.0
C1574 C 0.13956 0.46355 0.4069 0.0
H1575 H 0.73167 0.17901 0.90733 0.0
H1576 H 0.66525 0.06781 0.86859 0.0
H1577 H 0.60596 0.07496 0.87005 0.0
H1578 H 0.64883 0.16694 0.94787 0.0
H1579 H 0.66787 0.21945 0.94672 0.0
H1580 H 0.70072 0.19993 0.94432 0.0
H1581 H 0.72646 0.23955 0.90137 0.0
H1582 H 0.69193 0.25664 0.90555 0.0
H1583 H 0.69069 0.23052 0.87765 0.0
H1584 H 0.55536 0.09863 0.87284 0.0
H1585 H 0.51835 0.13392 0.87831 0.0
H1586 H 0.61837 0.228 0.91697 0.0
C1587 C 0.70451 0.15588 0.89939 0.0
C1588 C 0.70302 0.12274 0.88785 0.0
C1589 C 0.66693 0.09309 0.8778 0.0
C1590 C 0.63318 0.09711 0.87844 0.0
C1591 C 0.63595 0.13069 0.88955 0.0
C1592 C 0.67066 0.15921 0.90017 0.0
C1593 C 0.66655 0.19285 0.91063 0.0
C1594 C 0.6713 0.19498 0.93906 0.0
C1595 C 0.69562 0.23222 0.89808 0.0
C1596 C 0.62456 0.17977 0.90348 0.0
C1597 C 0.60712 0.14373 0.8915 0.0
C1598 C 0.56869 0.12658 0.88254 0.0
C1599 C 0.54777 0.14682 0.88589 0.0
C1600 C 0.56521 0.1839 0.89815 0.0
C1601 C 0.60408 0.20007 0.90723 0.0
H1602 H 0.38778 0.5872 0.36092 0.0
H1603 H 0.38116 0.54273 0.43577 0.0
H1604 H 0.45365 0.58184 0.43892 0.0
H1605 H 0.4817 0.58976 0.34492 0.0
H1606 H 0.49867 0.63338 0.32606 0.0
H1607 H 0.44671 0.59868 0.32871 0.0
H1608 H 0.43511 0.65468 0.34303 0.0
H1609 H 0.48695 0.6897 0.34103 0.0
H1610 H 0.46088 0.68379 0.36967 0.0
H1611 H 0.52751 0.62806 0.43444 0.0
H1612 H 0.59522 0.6806 0.42371 0.0
H1613 H 0.55311 0.69818 0.35309 0.0
C1614 C 0.40151 0.58557 0.37799 0.0
C1615 C 0.37846 0.56173 0.39813 0.0
C1616 C 0.39793 0.56019 0.41995 0.0
C1617 C 0.43919 0.58247 0.42195 0.0
C1618 C 0.46087 0.60602 0.4019 0.0
C1619 C 0.44267 0.60754 0.38026 0.0
C1620 C 0.47266 0.63579 0.3616 0.0
C1621 C 0.47507 0.61304 0.33899 0.0
C1622 C 0.46336 0.6679 0.35339 0.0
C1623 C 0.51008 0.65245 0.37693 0.0
C1624 C 0.50297 0.63366 0.39971 0.0
C1625 C 0.53332 0.64298 0.41667 0.0
C1626 C 0.57172 0.67271 0.41041 0.0
C1627 C 0.57923 0.6935 0.38768 0.0
C1628 C 0.54802 0.68289 0.37069 0.0
H1629 H 0.83461 0.53748 0.88175 0.0
H1630 H 0.96185 0.59201 0.88198 0.0
H1631 H 0.95533 0.52614 0.88712 0.0
H1632 H 0.81674 0.47019 0.9288 0.0
H1633 H 0.7721 0.43101 0.91551 0.0
H1634 H 0.78703 0.48158 0.90868 0.0
H1635 H 0.78506 0.46751 0.86149 0.0
H1636 H 0.76978 0.41671 0.86813 0.0
H1637 H 0.81288 0.44594 0.84934 0.0
H1638 H 0.93369 0.45351 0.89711 0.0
H1639 H 0.90001 0.38343 0.90994 0.0
H1640 H 0.78715 0.37758 0.90184 0.0
C1641 C 0.86135 0.53586 0.88236 0.0
C1642 C 0.89894 0.57047 0.88149 0.0
C1643 C 0.93279 0.56632 0.88252 0.0
C1644 C 0.9293 0.52885 0.88548 0.0
C1645 C 0.89171 0.49561 0.88714 0.0
C1646 C 0.85837 0.49892 0.88533 0.0
C1647 C 0.82131 0.45944 0.8892 0.0
C1648 C 0.79794 0.46065 0.91189 0.0
C1649 C 0.79576 0.44665 0.86563 0.0
C1650 C 0.83883 0.43327 0.89401 0.0
C1651 C 0.87945 0.45444 0.89262 0.0
C1652 C 0.90188 0.43666 0.89783 0.0
C1653 C 0.88238 0.3966 0.90498 0.0
C1654 C 0.84073 0.37451 0.90696 0.0
C1655 C 0.81897 0.39332 0.90081 0.0
H1656 H 0.19309 0.40091 0.30917 0.0
H1657 H 0.13607 0.27475 0.323 0.0
H1658 H 0.14401 0.2632 0.27933 0.0
H1659 H 0.15275 0.395 0.24864 0.0
H1660 H 0.19682 0.43421 0.23469 0.0
H1661 H 0.18858 0.43461 0.26766 0.0
H1662 H 0.25522 0.43856 0.27694 0.0
H1663 H 0.26406 0.439 0.244 0.0
H1664 H 0.26542 0.40234 0.26361 0.0
H1665 H 0.15042 0.26284 0.2349 0.0
H1666 H 0.16849 0.27415 0.19112 0.0
H1667 H 0.22751 0.40099 0.20285 0.0
C1668 C 0.18309 0.37106 0.30298 0.0
C1669 C 0.16344 0.33865 0.31953 0.0
C1670 C 0.15072 0.3 0.31074 0.0
C1671 C 0.15492 0.29303 0.28587 0.0
C1672 C 0.1726 0.32505 0.26982 0.0
C1673 C 0.18756 0.36342 0.27785 0.0
C1674 C 0.20609 0.39194 0.25606 0.0
C1675 C 0.18479 0.41533 0.2515 0.0
C1676 C 0.25033 0.4196 0.26041 0.0
C1677 C 0.19881 0.36331 0.23477 0.0
C1678 C 0.17871 0.32495 0.24344 0.0
C1679 C 0.16688 0.29273 0.2279 0.0
C1680 C 0.17727 0.29962 0.2029 0.0
C1681 C 0.20011 0.3385 0.19343 0.0
C1682 C 0.21024 0.37096 0.20951 0.0
H1683 H 0.8901 0.18088 0.70191 0.0
H1684 H 0.80829 0.22119 0.68361 0.0
H1685 H 0.78855 0.21488 0.7279 0.0
H1686 H 0.82774 0.10811 0.74638 0.0
H1687 H 0.86774 0.11616 0.76654 0.0
H1688 H 0.87614 0.12517 0.73365 0.0
H1689 H 0.93171 0.19675 0.7425 0.0
H1690 H 0.92351 0.18804 0.77544 0.0
H1691 H 0.92127 0.2286 0.76126 0.0
H1692 H 0.77869 0.20484 0.77507 0.0
H1693 H 0.7759 0.1868 0.81963 0.0
H1694 H 0.86278 0.15151 0.80593 0.0
C1695 C 0.86815 0.1886 0.70716 0.0
C1696 C 0.85091 0.20177 0.68925 0.0
C1697 C 0.82188 0.21097 0.69696 0.0
C1698 C 0.81061 0.20765 0.72211 0.0
C1699 C 0.82838 0.19474 0.7393 0.0
C1700 C 0.85627 0.18501 0.73204 0.0
C1701 C 0.86995 0.17044 0.75383 0.0
C1702 C 0.85978 0.12743 0.74986 0.0
C1703 C 0.91424 0.19758 0.75853 0.0
C1704 C 0.84558 0.17361 0.77457 0.0
C1705 C 0.82196 0.18796 0.76596 0.0
C1706 C 0.797 0.19346 0.78194 0.0
C1707 C 0.79572 0.18336 0.8072 0.0
C1708 C 0.81884 0.16749 0.8161 0.0
C1709 C 0.84444 0.16319 0.79956 0.0
H1710 H 0.63782 0.81809 0.19603 0.0
H1711 H 0.7416 0.93508 0.19844 0.0
H1712 H 0.74436 0.93049 0.24346 0.0
H1713 H 0.59484 0.82666 0.25563 0.0
H1714 H 0.57804 0.77639 0.26479 0.0
H1715 H 0.5815 0.78905 0.23228 0.0
H1716 H 0.62535 0.75852 0.22512 0.0
H1717 H 0.62415 0.74686 0.25764 0.0
H1718 H 0.67064 0.77679 0.24212 0.0
H1719 H 0.73969 0.91417 0.2874 0.0
H1720 H 0.72827 0.88453 0.32913 0.0
H1721 H 0.62781 0.77757 0.30146 0.0
C1722 C 0.66079 0.84284 0.2061 0.0
C1723 C 0.68935 0.87707 0.19332 0.0
C1724 C 0.71927 0.90846 0.20737 0.0
C1725 C 0.72109 0.90633 0.23318 0.0
C1726 C 0.69288 0.87252 0.24514 0.0
C1727 C 0.66326 0.84116 0.23229 0.0
C1728 C 0.63818 0.80758 0.25021 0.0
C1729 C 0.59561 0.79945 0.25075 0.0
C1730 C 0.63967 0.77021 0.24339 0.0
C1731 C 0.65895 0.82501 0.27484 0.0
C1732 C 0.6902 0.86272 0.27125 0.0
C1733 C 0.71511 0.8848 0.29056 0.0
C1734 C 0.70847 0.86776 0.31418 0.0
C1735 C 0.67698 0.82917 0.31852 0.0
C1736 C 0.65149 0.80757 0.29868 0.0
H1737 H 0.80413 0.6155 0.70432 0.0
H1738 H 0.8558 0.74206 0.69368 0.0
H1739 H 0.87849 0.75371 0.73645 0.0
H1740 H 0.77156 0.61249 0.76713 0.0
H1741 H 0.78463 0.57732 0.77867 0.0
H1742 H 0.77255 0.57691 0.7463 0.0
H1743 H 0.8396 0.58433 0.73354 0.0
H1744 H 0.85166 0.58432 0.76589 0.0
H1745 H 0.88437 0.62458 0.74598 0.0
H1746 H 0.88899 0.7535 0.78043 0.0
H1747 H 0.89836 0.74216 0.82387 0.0
H1748 H 0.84785 0.6169 0.8092 0.0
C1749 C 0.82074 0.64556 0.71098 0.0
C1750 C 0.82752 0.67774 0.69541 0.0
C1751 C 0.84946 0.71667 0.70498 0.0
C1752 C 0.86262 0.72381 0.72945 0.0
C1753 C 0.85434 0.69185 0.7445 0.0
C1754 C 0.83479 0.65351 0.7358 0.0
C1755 C 0.83082 0.62526 0.75672 0.0
C1756 C 0.78729 0.59627 0.76254 0.0
C1757 C 0.85293 0.60331 0.75014 0.0
C1758 C 0.85072 0.65398 0.77825 0.0
C1759 C 0.86341 0.69208 0.77049 0.0
C1760 C 0.8804 0.72398 0.78664 0.0
C1761 C 0.88592 0.71719 0.81135 0.0
C1762 C 0.87564 0.67896 0.81986 0.0
C1763 C 0.85691 0.64662 0.80313 0.0
H1764 H 0.15904 0.85041 0.20113 0.0
H1765 H 0.21819 0.78445 0.18497 0.0
H1766 H 0.24059 0.79261 0.22894 0.0
H1767 H 0.22677 0.91931 0.24335 0.0
H1768 H 0.18909 0.91813 0.26333 0.0
H1769 H 0.17959 0.9075 0.23073 0.0
H1770 H 0.11802 0.83975 0.24158 0.0
H1771 H 0.1279 0.8516 0.2741 0.0
H1772 H 0.1236 0.80661 0.26229 0.0
H1773 H 0.254 0.80681 0.27649 0.0
H1774 H 0.25881 0.82736 0.32074 0.0
H1775 H 0.18844 0.88148 0.30395 0.0
C1776 C 0.17649 0.83731 0.20673 0.0
C1777 C 0.18646 0.81637 0.18957 0.0
C1778 C 0.21008 0.80057 0.19775 0.0
C1779 C 0.22274 0.80491 0.22274 0.0
C1780 C 0.21132 0.82491 0.23931 0.0
C1781 C 0.18849 0.84061 0.23148 0.0
C1782 C 0.17901 0.85995 0.2526 0.0
C1783 C 0.19461 0.90386 0.24719 0.0
C1784 C 0.13449 0.83817 0.25793 0.0
C1785 C 0.2012 0.85409 0.27358 0.0
C1786 C 0.21927 0.83333 0.26584 0.0
C1787 C 0.24015 0.82332 0.28258 0.0
C1788 C 0.24269 0.835 0.30768 0.0
C1789 C 0.22477 0.85676 0.31572 0.0
C1790 C 0.2036 0.866 0.29833 0.0
H1791 H 0.30735 0.18264 0.81 0.0
H1792 H 0.43259 0.23973 0.82477 0.0
H1793 H 0.4448 0.23375 0.78012 0.0
H1794 H 0.30363 0.11432 0.7694 0.0
H1795 H 0.26859 0.11383 0.74742 0.0
H1796 H 0.26719 0.12624 0.7795 0.0
H1797 H 0.27462 0.19272 0.76929 0.0
H1798 H 0.27336 0.18222 0.73663 0.0
H1799 H 0.31382 0.22679 0.74914 0.0
H1800 H 0.44237 0.22058 0.73277 0.0
H1801 H 0.42494 0.1973 0.68913 0.0
H1802 H 0.30152 0.14948 0.7069 0.0
C1803 C 0.3375 0.19487 0.80385 0.0
C1804 C 0.36908 0.21237 0.82088 0.0
C1805 C 0.40791 0.22636 0.81207 0.0
C1806 C 0.41513 0.2233 0.7867 0.0
C1807 C 0.3832 0.20617 0.77037 0.0
C1808 C 0.34515 0.19225 0.77872 0.0
C1809 C 0.31555 0.17297 0.75798 0.0
C1810 C 0.28705 0.12922 0.76386 0.0
C1811 C 0.29305 0.19505 0.75297 0.0
C1812 C 0.34273 0.17793 0.73659 0.0
C1813 C 0.38172 0.1975 0.74386 0.0
C1814 C 0.41189 0.20528 0.72696 0.0
C1815 C 0.40182 0.1922 0.70218 0.0
C1816 C 0.36192 0.1713 0.69468 0.0
C1817 C 0.3323 0.16485 0.71212 0.0
H1818 H 0.28019 0.22254 0.96232 0.0
H1819 H 0.4038 0.31159 0.96083 0.0
H1820 H 0.39193 0.3486 0.99409 0.0
H1821 H 0.24021 0.2845 0.97311 0.0
H1822 H 0.20254 0.25109 0.99426 0.0
H1823 H 0.22091 0.23209 0.97046 0.0
H1824 H 0.23922 0.19601 1.00369 0.0
H1825 H 0.21994 0.21399 0.02751 0.0
H1826 H 0.26978 0.2235 0.0296 0.0
H1827 H 0.36382 0.37829 0.02573 0.0
H1828 H 0.32653 0.38991 0.05878 0.0
H1829 H 0.22348 0.27766 0.0418 0.0
C1830 C 0.30491 0.24961 0.9692 0.0
C1831 C 0.34292 0.26439 0.95893 0.0
C1832 C 0.37455 0.29963 0.96863 0.0
C1833 C 0.3679 0.32104 0.98726 0.0
C1834 C 0.32965 0.30624 0.99642 0.0
C1835 C 0.299 0.27062 0.98818 0.0
C1836 C 0.26111 0.25961 1.00188 0.0
C1837 C 0.22932 0.25665 0.98385 0.0
C1838 C 0.24668 0.221 0.01655 0.0
C1839 C 0.27492 0.29471 0.0191 0.0
C1840 C 0.3143 0.32185 0.01533 0.0
C1841 C 0.33309 0.35702 0.02887 0.0
C1842 C 0.31158 0.3637 0.04738 0.0
C1843 C 0.27212 0.33487 0.05265 0.0
C1844 C 0.25351 0.30039 0.03795 0.0
H1845 H 0.06629 0.27285 0.46528 0.0
H1846 H 0.0886 0.39247 0.45807 0.0
H1847 H 0.03903 0.37914 0.49115 0.0
H1848 H 0.9645 0.22677 0.47305 0.0
H1849 H 0.96104 0.19088 0.49544 0.0
H1850 H 1.00042 0.21089 0.473 0.0
H1851 H 0.05225 0.23396 0.5082 0.0
H1852 H 1.01311 0.21302 0.53079 0.0
H1853 H 0.05075 0.26417 0.53297 0.0
H1854 H 0.9815 0.34911 0.52336 0.0
H1855 H 0.93146 0.30989 0.55558 0.0
H1856 H 0.9484 0.21068 0.54083 0.0
C1857 C 0.06168 0.29667 0.47125 0.0
C1858 C 0.08185 0.33396 0.45947 0.0
C1859 C 0.07436 0.36409 0.46736 0.0
C1860 C 0.04574 0.35648 0.48584 0.0
C1861 C 0.02512 0.31868 0.49634 0.0
C1862 C 0.03361 0.28964 0.48965 0.0
C1863 C 1.00756 0.25137 0.50334 0.0
C1864 C 0.98187 0.21802 0.48511 0.0
C1865 C 0.03239 0.23998 0.51981 0.0
C1866 C 0.98279 0.26305 0.51882 0.0
C1867 C 0.9928 0.3018 0.5144 0.0
C1868 C 0.97361 0.3188 0.52686 0.0
C1869 C 0.94486 0.2962 0.54492 0.0
C1870 C 0.93593 0.25724 0.55053 0.0
C1871 C 0.95445 0.24032 0.53676 0.0
H1872 H 0.75681 0.94816 0.04077 0.0
H1873 H 0.63703 0.92376 0.04978 0.0
H1874 H 0.64624 0.96801 0.01414 0.0
H1875 H 0.79981 0.04716 0.02749 0.0
H1876 H 0.83392 0.04891 1.00434 0.0
H1877 H 0.81669 0.01198 0.0284 0.0
H1878 H 0.79121 0.95616 0.99556 0.0
H1879 H 0.80965 0.99291 0.97133 0.0
H1880 H 0.75871 0.95452 0.97132 0.0
H1881 H 0.67338 0.02407 0.98126 0.0
H1882 H 0.71039 0.07438 0.94867 0.0
H1883 H 0.81047 0.05785 0.95979 0.0
C1884 C 0.73207 0.95103 0.03463 0.0
C1885 C 0.69608 0.9323 0.04786 0.0
C1886 C 0.66454 0.93717 0.03957 0.0
C1887 C 0.66975 0.96269 0.01953 0.0
C1888 C 0.70644 0.98247 0.00771 0.0
C1889 C 0.73659 0.97576 0.01449 0.0
C1890 C 0.77335 1.00075 0.99918 0.0
C1891 C 0.80798 0.02886 0.01585 0.0
C1892 C 0.78384 0.97452 0.98341 0.0
C1893 C 0.75969 0.02334 0.98305 0.0
C1894 C 0.72122 0.01298 0.98843 0.0
C1895 C 0.70327 0.03182 0.97671 0.0
C1896 C 0.72465 0.06079 0.9585 0.0
C1897 C 0.76331 0.07015 0.95188 0.0
C1898 C 0.78097 0.05132 0.96454 0.0
H1899 H 0.71202 0.64704 0.54384 0.0
H1900 H 0.82298 0.75324 0.55885 0.0
H1901 H 0.81014 0.78765 0.52503 0.0
H1902 H 0.71808 0.66293 0.47363 0.0
H1903 H 0.66568 0.6427 0.47098 0.0
H1904 H 0.68523 0.62499 0.49486 0.0
H1905 H 0.64747 0.64118 0.52772 0.0
H1906 H 0.62911 0.66069 0.50427 0.0
H1907 H 0.65638 0.69094 0.53034 0.0
H1908 H 0.78211 0.81377 0.49439 0.0
H1909 H 0.74829 0.82616 0.45994 0.0
H1910 H 0.65686 0.70311 0.46076 0.0
C1911 C 0.73437 0.67687 0.53911 0.0
C1912 C 0.76888 0.69737 0.55379 0.0
C1913 C 0.79673 0.73688 0.54764 0.0
C1914 C 0.78944 0.75685 0.52866 0.0
C1915 C 0.75431 0.73682 0.51551 0.0
C1916 C 0.72783 0.69731 0.51966 0.0
C1917 C 0.69256 0.6833 0.50228 0.0
C1918 C 0.69026 0.6516 0.48437 0.0
C1919 C 0.6541 0.66813 0.51705 0.0
C1920 C 0.70299 0.72136 0.48843 0.0
C1921 C 0.73855 0.75185 0.49678 0.0
C1922 C 0.75445 0.79005 0.48749 0.0
C1923 C 0.7347 0.79697 0.46819 0.0
C1924 C 0.69951 0.76593 0.45809 0.0
C1925 C 0.68301 0.72767 0.46867 0.0
H1926 H 0.98293 0.66466 0.95366 0.0
H1927 H 0.91518 0.72312 0.96609 0.0
H1928 H 0.9591 0.76049 1.0008 0.0
H1929 H 0.99913 0.65464 0.0196 0.0
H1930 H 0.04804 0.66251 0.01491 0.0
H1931 H 1.01196 0.64102 0.99052 0.0
H1932 H 0.05965 0.69577 0.96034 0.0
H1933 H 0.09562 0.71778 0.98479 0.0
H1934 H 0.0787 0.7468 0.96852 0.0
H1935 H 1.0112 0.79368 0.03259 0.0
H1936 H 0.06131 0.81289 0.06508 0.0
H1937 H 0.09458 0.73038 0.03569 0.0
C1938 C 0.97721 0.68509 0.96388 0.0
C1939 C 0.94542 0.69084 0.95714 0.0
C1940 C 0.93886 0.71774 0.97103 0.0
C1941 C 0.96399 0.73948 0.99062 0.0
C1942 C 0.99534 0.73364 0.99652 0.0
C1943 C 1.00159 0.70647 0.98403 0.0
C1944 C 0.03635 0.70463 0.99528 0.0
C1945 C 0.02307 0.66324 0.0057 0.0
C1946 C 0.06955 0.71698 0.97608 0.0
C1947 C 0.04858 0.73499 0.01608 0.0
C1948 C 0.02477 0.75174 0.01594 0.0
C1949 C 0.02973 0.78049 0.03302 0.0
C1950 C 0.05849 0.79127 0.05142 0.0
C1951 C 0.08194 0.77311 0.05316 0.0
C1952 C 0.07759 0.74523 0.03474 0.0
H1953 H 0.29588 0.99566 0.44559 0.0
H1954 H 0.22366 0.87919 0.47788 0.0
H1955 H 0.23627 0.90932 0.51961 0.0
H1956 H 0.36961 0.03452 0.49594 0.0
H1957 H 0.37598 0.08336 0.49399 0.0
H1958 H 0.36269 0.05268 0.46666 0.0
H1959 H 0.30187 0.06105 0.46054 0.0
H1960 H 0.31466 0.09137 0.48798 0.0
H1961 H 0.26673 0.04793 0.48548 0.0
H1962 H 0.25089 0.95189 0.55693 0.0
H1963 H 0.27138 1.00255 0.58876 0.0
H1964 H 0.3399 0.09329 0.53411 0.0
C1965 C 0.28322 0.97617 0.46138 0.0
C1966 C 0.25865 0.93463 0.45814 0.0
C1967 C 0.24252 0.91081 0.47957 0.0
C1968 C 0.24952 0.92776 0.50343 0.0
C1969 C 0.27326 0.96865 0.50578 0.0
C1970 C 0.29043 0.99257 0.48542 0.0
C1971 C 0.31452 0.0358 0.49324 0.0
C1972 C 0.3583 0.05258 0.48709 0.0
C1973 C 0.29848 0.06049 0.48108 0.0
C1974 C 0.3076 0.03255 0.52124 0.0
C1975 C 0.28341 0.9934 0.52781 0.0
C1976 C 0.27038 0.98248 0.55203 0.0
C1977 C 0.28225 0.01196 0.57007 0.0
C1978 C 0.30791 0.05255 0.56441 0.0
C1979 C 0.32091 0.06282 0.53943 0.0
loop_
_geom_bond_atom_site_label_1
_geom_bond_atom_site_label_2
_geom_bond_distance
_geom_bond_site_symmetry_2
_ccdc_geom_bond_type
Eu0 N29 2.600 . S
Eu0 N35 2.562 . S
Eu0 O44 2.462 . S
Eu0 O45 2.373 . S
Eu0 O47 2.432 . S
Eu0 O48 2.291 . S
Eu0 O52 2.335 . S
Eu0 O55 2.372 . S
Eu0 C64 2.787 . S
C1 N2 1.365 . S
C1 C4 1.405 . S
C1 C8 1.448 . S
N2 C1 1.365 . S
N2 C5 1.319 . S
N2 Eu11 2.600 . S
C3 C5 1.397 . S
C3 C6 1.367 . S
C3 H23 0.931 1_554 S
C4 C1 1.405 . S
C4 C6 1.403 . S
C4 C10 1.439 . S
C5 N2 1.319 . S
C5 C3 1.397 . S
C5 H16 0.930 . S
C6 C3 1.367 . S
C6 C4 1.403 . S
C6 H27 0.929 . S
C7 C8 1.430 . S
C7 C9 1.375 1_455 S
C7 C13 1.404 . S
C8 C1 1.448 . S
C8 C7 1.430 . S
C8 N12 1.351 . S
C9 C7 1.375 1_655 S
C9 C10 1.366 1_655 S
C9 H24 0.952 . S
C10 C4 1.439 . S
C10 C9 1.366 1_455 S
C10 H25 0.931 1_455 S
Eu11 N2 2.600 . S
Eu11 N12 2.562 . S
Eu11 O46 2.335 . S
Eu11 O49 2.372 . S
Eu11 O50 2.462 . S
Eu11 O51 2.373 . S
Eu11 O53 2.432 . S
Eu11 O54 2.291 . S
Eu11 C75 2.787 . S
N12 C8 1.351 . S
N12 Eu11 2.562 . S
N12 C14 1.325 . S
C13 C7 1.404 . S
C13 C15 1.366 . S
C13 H21 0.930 1_455 S
C14 N12 1.325 . S
C14 C15 1.416 . S
C14 H20 0.929 . S
C15 C13 1.366 . S
C15 C14 1.416 . S
C15 H17 0.930 . S
H16 C5 0.930 . S
H17 C15 0.930 . S
H18 C33 0.930 . S
H19 C40 0.930 . S
H20 C14 0.929 . S
H21 C13 0.930 1_655 S
H22 C36 0.929 . S
H23 C3 0.931 1_556 S
H24 C9 0.952 . S
H25 C10 0.931 1_655 S
H26 C31 0.931 . S
H27 C6 0.929 . S
H28 C39 0.930 . S
N29 Eu0 2.600 . S
N29 C30 1.365 . S
N29 C33 1.319 . S
C30 N29 1.365 . S
C30 C32 1.405 . S
C30 C38 1.448 . S
C31 H26 0.931 . S
C31 C33 1.397 . S
C31 C34 1.367 . S
C32 C30 1.405 . S
C32 C34 1.403 . S
C32 C65 1.439 . S
C33 H18 0.930 . S
C33 N29 1.319 . S
C33 C31 1.397 . S
C34 C31 1.367 . S
C34 C32 1.403 . S
C34 H41 0.929 . S
N35 Eu0 2.562 . S
N35 C36 1.325 . S
N35 C38 1.351 . S
C36 H22 0.929 . S
C36 N35 1.325 . S
C36 C40 1.416 . S
C37 C38 1.430 . S
C37 C39 1.404 . S
C37 C66 1.387 . S
C38 C30 1.448 . S
C38 N35 1.351 . S
C38 C37 1.430 . S
C39 H28 0.930 . S
C39 C37 1.404 . S
C39 C40 1.366 . S
C40 H19 0.930 . S
C40 C36 1.416 . S
C40 C39 1.366 . S
H41 C34 0.929 . S
H42 C65 0.931 . S
H43 C66 0.931 . S
O44 Eu0 2.462 . S
O44 C64 1.252 . S
O45 Eu0 2.373 . S
O45 C56 1.249 . S
O46 Eu11 2.335 . S
O46 C56 1.264 . S
O47 Eu0 2.432 . S
O47 C64 1.268 . S
O48 Eu0 2.291 . S
O48 C63 1.255 . S
O49 Eu11 2.372 . S
O49 C63 1.257 . S
O50 Eu11 2.462 . S
O50 C75 1.252 . S
O51 Eu11 2.373 . S
O51 C67 1.249 . S
O52 Eu0 2.335 . S
O52 C67 1.264 . S
O53 Eu11 2.432 . S
O53 C75 1.268 . S
O54 Eu11 2.291 . S
O54 C74 1.255 . S
O55 Eu0 2.372 . S
O55 C74 1.257 . S
C56 O45 1.249 . S
C56 O46 1.264 . S
C57 C60 1.382 . S
C57 C62 1.390 . S
C57 C64 1.506 . S
C58 C59 1.398 . S
C58 C62 1.392 . S
C59 C58 1.398 . S
C59 C61 1.372 . S
C59 H76 0.931 . S
C60 C57 1.382 . S
C60 C61 1.390 . S
C60 H77 0.931 . S
C61 C59 1.372 . S
C61 C60 1.390 . S
C61 H78 0.929 . S
C62 C57 1.390 . S
C62 C58 1.392 . S
C62 H79 0.930 . S
C63 O48 1.255 . S
C63 O49 1.257 . S
C64 Eu0 2.787 . S
C64 O44 1.252 . S
C64 O47 1.268 . S
C64 C57 1.506 . S
C65 C32 1.439 . S
C65 H42 0.931 . S
C65 C66 1.374 . S
C66 C37 1.387 . S
C66 H43 0.931 . S
C66 C65 1.374 . S
C67 O51 1.249 . S
C67 O52 1.264 . S
C68 C71 1.382 . S
C68 C72 1.390 . S
C68 C75 1.506 . S
C69 C70 1.398 . S
C69 C72 1.392 . S
C70 C69 1.398 . S
C70 C73 1.372 . S
C70 H80 0.931 . S
C71 C68 1.382 . S
C71 C73 1.390 . S
C71 H81 0.931 . S
C72 C68 1.390 . S
C72 C69 1.392 . S
C72 H82 0.930 . S
C73 C70 1.372 . S
C73 C71 1.390 . S
C73 H83 0.929 . S
C74 O54 1.255 . S
C74 O55 1.257 . S
C75 Eu11 2.787 . S
C75 O50 1.252 . S
C75 O53 1.268 . S
C75 C68 1.506 . S
H76 C59 0.931 . S
H77 C60 0.931 . S
H78 C61 0.929 . S
H79 C62 0.930 . S
H80 C70 0.931 . S
H81 C71 0.931 . S
H82 C72 0.930 . S
H83 C73 0.929 . S
Eu84 N113 2.600 . S
Eu84 N119 2.562 . S
Eu84 O128 2.462 . S
Eu84 O129 2.373 . S
Eu84 O131 2.432 . S
Eu84 O132 2.291 . S
Eu84 O136 2.335 . S
Eu84 O139 2.372 . S
Eu84 C148 2.787 . S
C85 N86 1.365 . S
C85 C88 1.405 . S
C85 C92 1.448 . S
N86 C85 1.365 . S
N86 C89 1.319 . S
N86 Eu95 2.600 . S
C87 C89 1.397 . S
C87 C90 1.367 . S
C87 H107 0.931 . S
C88 C85 1.405 . S
C88 C90 1.403 . S
C88 C94 1.439 . S
C89 N86 1.319 . S
C89 C87 1.397 . S
C89 H100 0.930 . S
C90 C87 1.367 . S
C90 C88 1.403 . S
C90 H111 0.929 . S
C91 C92 1.430 . S
C91 C93 1.374 1_545 S
C91 C97 1.404 . S
C92 C85 1.448 . S
C92 C91 1.430 . S
C92 N96 1.351 . S
C93 C91 1.374 1_565 S
C93 C94 1.371 1_565 S
C93 H108 0.948 . S
C94 C88 1.439 . S
C94 C93 1.371 1_545 S
C94 H109 0.931 1_545 S
Eu95 N86 2.600 . S
Eu95 N96 2.562 . S
Eu95 O130 2.335 . S
Eu95 O133 2.372 . S
Eu95 O134 2.462 . S
Eu95 O135 2.373 . S
Eu95 O137 2.432 . S
Eu95 O138 2.291 . S
Eu95 C159 2.787 . S
N96 C92 1.351 . S
N96 Eu95 2.562 . S
N96 C98 1.325 . S
C97 C91 1.404 . S
C97 C99 1.366 . S
C97 H105 0.930 1_545 S
C98 N96 1.325 . S
C98 C99 1.416 . S
C98 H104 0.929 . S
C99 C97 1.366 . S
C99 C98 1.416 . S
C99 H101 0.930 . S
H100 C89 0.930 . S
H101 C99 0.930 . S
H102 C117 0.930 . S
H103 C124 0.930 . S
H104 C98 0.929 . S
H105 C97 0.930 1_565 S
H106 C120 0.929 . S
H107 C87 0.931 . S
H108 C93 0.948 . S
H109 C94 0.931 1_565 S
H110 C115 0.931 . S
H111 C90 0.929 . S
H112 C123 0.930 . S
N113 Eu84 2.600 . S
N113 C114 1.365 . S
N113 C117 1.319 . S
C114 N113 1.365 . S
C114 C116 1.405 . S
C114 C122 1.448 . S
C115 H110 0.931 . S
C115 C117 1.397 . S
C115 C118 1.367 . S
C116 C114 1.405 . S
C116 C118 1.403 . S
C116 C149 1.439 . S
C117 H102 0.930 . S
C117 N113 1.319 . S
C117 C115 1.397 . S
C118 C115 1.367 . S
C118 C116 1.403 . S
C118 H125 0.929 . S
N119 Eu84 2.562 . S
N119 C120 1.325 . S
N119 C122 1.351 . S
C120 H106 0.929 . S
C120 N119 1.325 . S
C120 C124 1.416 1_655 S
C121 C122 1.430 1_455 S
C121 C123 1.405 . S
C121 C150 1.387 . S
C122 C114 1.448 . S
C122 N119 1.351 . S
C122 C121 1.430 1_655 S
C123 H112 0.930 . S
C123 C121 1.405 . S
C123 C124 1.366 . S
C124 H103 0.930 . S
C124 C120 1.416 1_455 S
C124 C123 1.366 . S
H125 C118 0.929 . S
H126 C149 0.931 1_455 S
H127 C150 0.931 . S
O128 Eu84 2.462 . S
O128 C148 1.252 . S
O129 Eu84 2.373 . S
O129 C140 1.249 . S
O130 Eu95 2.335 . S
O130 C140 1.264 . S
O131 Eu84 2.432 . S
O131 C148 1.268 . S
O132 Eu84 2.291 . S
O132 C147 1.255 . S
O133 Eu95 2.372 . S
O133 C147 1.257 . S
O134 Eu95 2.462 . S
O134 C159 1.252 . S
O135 Eu95 2.373 . S
O135 C151 1.249 . S
O136 Eu84 2.335 . S
O136 C151 1.264 . S
O137 Eu95 2.432 . S
O137 C159 1.268 . S
O138 Eu95 2.291 . S
O138 C158 1.255 . S
O139 Eu84 2.372 . S
O139 C158 1.257 . S
C140 O129 1.249 . S
C140 O130 1.264 . S
C141 C144 1.382 . S
C141 C146 1.390 . S
C141 C148 1.506 1_455 S
C142 C143 1.398 . S
C142 C146 1.392 . S
C143 C142 1.398 . S
C143 C145 1.372 . S
C143 H160 0.931 . S
C144 C141 1.382 . S
C144 C145 1.390 . S
C144 H161 0.931 . S
C145 C143 1.372 . S
C145 C144 1.390 . S
C145 H162 0.929 . S
C146 C141 1.390 . S
C146 C142 1.392 . S
C146 H163 0.930 . S
C147 O132 1.255 . S
C147 O133 1.257 . S
C148 Eu84 2.787 . S
C148 O128 1.252 . S
C148 O131 1.268 . S
C148 C141 1.506 1_655 S
C149 C116 1.439 . S
C149 H126 0.931 1_655 S
C149 C150 1.374 1_655 S
C150 C121 1.387 . S
C150 H127 0.931 . S
C150 C149 1.374 1_455 S
C151 O135 1.249 . S
C151 O136 1.264 . S
C152 C155 1.382 . S
C152 C156 1.390 . S
C152 C159 1.506 . S
C153 C154 1.398 . S
C153 C156 1.392 . S
C154 C153 1.398 . S
C154 C157 1.372 . S
C154 H164 0.931 . S
C155 C152 1.382 . S
C155 C157 1.390 . S
C155 H165 0.931 . S
C156 C152 1.390 . S
C156 C153 1.392 . S
C156 H166 0.930 . S
C157 C154 1.372 . S
C157 C155 1.390 . S
C157 H167 0.929 . S
C158 O138 1.255 . S
C158 O139 1.257 . S
C159 Eu95 2.787 . S
C159 O134 1.252 . S
C159 O137 1.268 . S
C159 C152 1.506 . S
H160 C143 0.931 . S
H161 C144 0.931 . S
H162 C145 0.929 . S
H163 C146 0.930 . S
H164 C154 0.931 . S
H165 C155 0.931 . S
H166 C156 0.930 . S
H167 C157 0.929 . S
Eu168 N197 2.600 . S
Eu168 N203 2.562 . S
Eu168 O212 2.462 . S
Eu168 O213 2.373 . S
Eu168 O215 2.432 . S
Eu168 O216 2.291 . S
Eu168 O220 2.335 . S
Eu168 O223 2.372 . S
Eu168 C232 2.787 . S
C169 N170 1.365 . S
C169 C172 1.405 . S
C169 C176 1.448 . S
N170 C169 1.365 . S
N170 C173 1.319 . S
N170 Eu179 2.600 . S
C171 C173 1.397 . S
C171 C174 1.367 . S
C171 H191 0.931 1_554 S
C172 C169 1.405 . S
C172 C174 1.403 . S
C172 C178 1.439 . S
C173 N170 1.319 . S
C173 C171 1.397 . S
C173 H184 0.930 . S
C174 C171 1.367 . S
C174 C172 1.403 . S
C174 H195 0.929 . S
C175 C176 1.430 . S
C175 C177 1.387 . S
C175 C181 1.404 . S
C176 C169 1.448 . S
C176 C175 1.430 . S
C176 N180 1.351 . S
C177 C175 1.387 . S
C177 C178 1.374 . S
C177 H192 0.931 . S
C178 C172 1.439 . S
C178 C177 1.374 . S
C178 H193 0.931 . S
Eu179 N170 2.600 . S
Eu179 N180 2.562 . S
Eu179 O214 2.335 . S
Eu179 O217 2.372 . S
Eu179 O218 2.462 . S
Eu179 O219 2.373 . S
Eu179 O221 2.432 . S
Eu179 O222 2.291 . S
Eu179 C243 2.787 . S
N180 C176 1.351 . S
N180 Eu179 2.562 . S
N180 C182 1.325 . S
C181 C175 1.404 . S
C181 C183 1.366 . S
C181 H189 0.930 . S
C182 N180 1.325 . S
C182 C183 1.416 . S
C182 H188 0.929 . S
C183 C181 1.366 . S
C183 C182 1.416 . S
C183 H185 0.930 . S
H184 C173 0.930 . S
H185 C183 0.930 . S
H186 C201 0.930 . S
H187 C208 0.930 . S
H188 C182 0.929 . S
H189 C181 0.930 . S
H190 C204 0.929 . S
H191 C171 0.931 1_556 S
H192 C177 0.931 . S
H193 C178 0.931 . S
H194 C199 0.931 . S
H195 C174 0.929 . S
H196 C207 0.930 . S
N197 Eu168 2.600 . S
N197 C198 1.365 . S
N197 C201 1.319 . S
C198 N197 1.365 . S
C198 C200 1.405 . S
C198 C206 1.448 . S
C199 H194 0.931 . S
C199 C201 1.397 . S
C199 C202 1.367 . S
C200 C198 1.405 . S
C200 C202 1.403 . S
C200 C233 1.439 . S
C201 H186 0.930 . S
C201 N197 1.319 . S
C201 C199 1.397 . S
C202 C199 1.367 . S
C202 C200 1.403 . S
C202 H209 0.929 . S
N203 Eu168 2.562 . S
N203 C204 1.325 . S
N203 C206 1.351 . S
C204 H190 0.929 . S
C204 N203 1.325 . S
C204 C208 1.416 1_565 S
C205 C206 1.428 1_545 S
C205 C207 1.405 . S
C205 C234 1.388 . S
C206 C198 1.448 . S
C206 N203 1.351 . S
C206 C205 1.428 1_565 S
C207 H196 0.930 . S
C207 C205 1.405 . S
C207 C208 1.366 . S
C208 H187 0.930 . S
C208 C204 1.416 1_545 S
C208 C207 1.366 . S
H209 C202 0.929 . S
H210 C233 0.931 1_545 S
H211 C234 0.931 . S
O212 Eu168 2.462 . S
O212 C232 1.252 . S
O213 Eu168 2.373 . S
O213 C224 1.249 . S
O214 Eu179 2.335 . S
O214 C224 1.264 . S
O215 Eu168 2.432 . S
O215 C232 1.268 . S
O216 Eu168 2.291 . S
O216 C231 1.255 . S
O217 Eu179 2.372 . S
O217 C231 1.257 . S
O218 Eu179 2.462 . S
O218 C243 1.252 . S
O219 Eu179 2.373 . S
O219 C235 1.249 . S
O220 Eu168 2.335 . S
O220 C235 1.264 . S
O221 Eu179 2.432 . S
O221 C243 1.268 . S
O222 Eu179 2.291 . S
O222 C242 1.255 . S
O223 Eu168 2.372 . S
O223 C242 1.257 . S
C224 O213 1.249 . S
C224 O214 1.264 . S
C225 C228 1.382 . S
C225 C230 1.390 . S
C225 C232 1.506 1_545 S
C226 C227 1.398 . S
C226 C230 1.392 . S
C227 C226 1.398 . S
C227 C229 1.372 . S
C227 H244 0.931 . S
C228 C225 1.382 . S
C228 C229 1.390 . S
C228 H245 0.931 . S
C229 C227 1.372 . S
C229 C228 1.390 . S
C229 H246 0.929 . S
C230 C225 1.390 . S
C230 C226 1.392 . S
C230 H247 0.930 . S
C231 O216 1.255 . S
C231 O217 1.257 . S
C232 Eu168 2.787 . S
C232 O212 1.252 . S
C232 O215 1.268 . S
C232 C225 1.506 1_565 S
C233 C200 1.439 . S
C233 H210 0.931 1_565 S
C233 C234 1.374 1_565 S
C234 C205 1.388 . S
C234 H211 0.931 . S
C234 C233 1.374 1_545 S
C235 O219 1.249 . S
C235 O220 1.264 . S
C236 C239 1.382 . S
C236 C240 1.390 . S
C236 C243 1.506 . S
C237 C238 1.398 . S
C237 C240 1.392 . S
C238 C237 1.398 . S
C238 C241 1.372 . S
C238 H248 0.931 . S
C239 C236 1.382 . S
C239 C241 1.390 . S
C239 H249 0.931 . S
C240 C236 1.390 . S
C240 C237 1.392 . S
C240 H250 0.930 . S
C241 C238 1.372 . S
C241 C239 1.390 . S
C241 H251 0.929 . S
C242 O222 1.255 . S
C242 O223 1.257 . S
C243 Eu179 2.787 . S
C243 O218 1.252 . S
C243 O221 1.268 . S
C243 C236 1.506 . S
H244 C227 0.931 . S
H245 C228 0.931 . S
H246 C229 0.929 . S
H247 C230 0.930 . S
H248 C238 0.931 . S
H249 C239 0.931 . S
H250 C240 0.930 . S
H251 C241 0.929 . S
Eu252 N281 2.600 . S
Eu252 N287 2.562 . S
Eu252 O296 2.462 . S
Eu252 O297 2.373 . S
Eu252 O299 2.432 . S
Eu252 O300 2.291 . S
Eu252 O304 2.335 . S
Eu252 O307 2.372 . S
Eu252 C316 2.787 . S
C253 N254 1.365 . S
C253 C256 1.405 . S
C253 C260 1.448 . S
N254 C253 1.365 . S
N254 C257 1.319 . S
N254 Eu263 2.600 . S
C255 C257 1.397 . S
C255 C258 1.367 . S
C255 H275 0.931 . S
C256 C253 1.405 . S
C256 C258 1.403 . S
C256 C262 1.439 . S
C257 N254 1.319 . S
C257 C255 1.397 . S
C257 H268 0.930 . S
C258 C255 1.367 . S
C258 C256 1.403 . S
C258 H279 0.929 . S
C259 C260 1.430 . S
C259 C261 1.375 1_655 S
C259 C265 1.404 . S
C260 C253 1.448 . S
C260 C259 1.430 . S
C260 N264 1.351 . S
C261 C259 1.375 1_455 S
C261 C262 1.366 1_455 S
C261 H276 0.952 . S
C262 C256 1.439 . S
C262 C261 1.366 1_655 S
C262 H277 0.931 1_655 S
Eu263 N254 2.600 . S
Eu263 N264 2.562 . S
Eu263 O298 2.335 . S
Eu263 O301 2.372 . S
Eu263 O302 2.462 . S
Eu263 O303 2.373 . S
Eu263 O305 2.432 . S
Eu263 O306 2.291 . S
Eu263 C327 2.787 . S
N264 C260 1.351 . S
N264 Eu263 2.562 . S
N264 C266 1.325 . S
C265 C259 1.404 . S
C265 C267 1.366 . S
C265 H273 0.930 1_655 S
C266 N264 1.325 . S
C266 C267 1.416 . S
C266 H272 0.929 . S
C267 C265 1.366 . S
C267 C266 1.416 . S
C267 H269 0.930 . S
H268 C257 0.930 . S
H269 C267 0.930 . S
H270 C285 0.930 . S
H271 C292 0.930 . S
H272 C266 0.929 . S
H273 C265 0.930 1_455 S
H274 C288 0.929 . S
H275 C255 0.931 . S
H276 C261 0.952 . S
H277 C262 0.931 1_455 S
H278 C283 0.931 . S
H279 C258 0.929 . S
H280 C291 0.930 . S
N281 Eu252 2.600 . S
N281 C282 1.365 . S
N281 C285 1.319 . S
C282 N281 1.365 . S
C282 C284 1.405 . S
C282 C290 1.448 . S
C283 H278 0.931 . S
C283 C285 1.397 . S
C283 C286 1.367 . S
C284 C282 1.405 . S
C284 C286 1.403 . S
C284 C317 1.439 . S
C285 H270 0.930 . S
C285 N281 1.319 . S
C285 C283 1.397 . S
C286 C283 1.367 . S
C286 C284 1.403 . S
C286 H293 0.929 . S
N287 Eu252 2.562 . S
N287 C288 1.325 . S
N287 C290 1.351 . S
C288 H274 0.929 . S
C288 N287 1.325 . S
C288 C292 1.416 . S
C289 C290 1.430 . S
C289 C291 1.404 . S
C289 C318 1.387 . S
C290 C282 1.448 . S
C290 N287 1.351 . S
C290 C289 1.430 . S
C291 H280 0.930 . S
C291 C289 1.404 . S
C291 C292 1.366 . S
C292 H271 0.930 . S
C292 C288 1.416 . S
C292 C291 1.366 . S
H293 C286 0.929 . S
H294 C317 0.931 . S
H295 C318 0.931 . S
O296 Eu252 2.462 . S
O296 C316 1.252 . S
O297 Eu252 2.373 . S
O297 C308 1.249 . S
O298 Eu263 2.335 . S
O298 C308 1.264 . S
O299 Eu252 2.432 . S
O299 C316 1.268 . S
O300 Eu252 2.291 . S
O300 C315 1.255 . S
O301 Eu263 2.372 . S
O301 C315 1.257 . S
O302 Eu263 2.462 . S
O302 C327 1.252 . S
O303 Eu263 2.373 . S
O303 C319 1.249 . S
O304 Eu252 2.335 . S
O304 C319 1.264 . S
O305 Eu263 2.432 . S
O305 C327 1.268 . S
O306 Eu263 2.291 . S
O306 C326 1.255 . S
O307 Eu252 2.372 . S
O307 C326 1.257 . S
C308 O297 1.249 . S
C308 O298 1.264 . S
C309 C312 1.382 . S
C309 C314 1.390 . S
C309 C316 1.506 . S
C310 C311 1.398 . S
C310 C314 1.392 . S
C311 C310 1.398 . S
C311 C313 1.372 . S
C311 H328 0.931 . S
C312 C309 1.382 . S
C312 C313 1.390 . S
C312 H329 0.931 . S
C313 C311 1.372 . S
C313 C312 1.390 . S
C313 H330 0.929 . S
C314 C309 1.390 . S
C314 C310 1.392 . S
C314 H331 0.930 . S
C315 O300 1.255 . S
C315 O301 1.257 . S
C316 Eu252 2.787 . S
C316 O296 1.252 . S
C316 O299 1.268 . S
C316 C309 1.506 . S
C317 C284 1.439 . S
C317 H294 0.931 . S
C317 C318 1.374 . S
C318 C289 1.387 . S
C318 H295 0.931 . S
C318 C317 1.374 . S
C319 O303 1.249 . S
C319 O304 1.264 . S
C320 C323 1.382 . S
C320 C324 1.390 . S
C320 C327 1.506 . S
C321 C322 1.398 . S
C321 C324 1.392 . S
C322 C321 1.398 . S
C322 C325 1.372 . S
C322 H332 0.931 . S
C323 C320 1.382 . S
C323 C325 1.390 . S
C323 H333 0.931 . S
C324 C320 1.390 . S
C324 C321 1.392 . S
C324 H334 0.930 . S
C325 C322 1.372 . S
C325 C323 1.390 . S
C325 H335 0.929 . S
C326 O306 1.255 . S
C326 O307 1.257 . S
C327 Eu263 2.787 . S
C327 O302 1.252 . S
C327 O305 1.268 . S
C327 C320 1.506 . S
H328 C311 0.931 . S
H329 C312 0.931 . S
H330 C313 0.929 . S
H331 C314 0.930 . S
H332 C322 0.931 . S
H333 C323 0.931 . S
H334 C324 0.930 . S
H335 C325 0.929 . S
Eu336 N365 2.600 . S
Eu336 N371 2.562 . S
Eu336 O380 2.462 . S
Eu336 O381 2.373 . S
Eu336 O383 2.432 . S
Eu336 O384 2.291 . S
Eu336 O388 2.335 . S
Eu336 O391 2.372 . S
Eu336 C400 2.787 . S
C337 N338 1.365 . S
C337 C340 1.405 . S
C337 C344 1.448 . S
N338 C337 1.365 . S
N338 C341 1.319 . S
N338 Eu347 2.600 . S
C339 C341 1.397 . S
C339 C342 1.367 . S
C339 H359 0.931 1_554 S
C340 C337 1.405 . S
C340 C342 1.403 . S
C340 C346 1.439 . S
C341 N338 1.319 . S
C341 C339 1.397 . S
C341 H352 0.930 . S
C342 C339 1.367 . S
C342 C340 1.403 . S
C342 H363 0.929 . S
C343 C344 1.430 . S
C343 C345 1.374 1_565 S
C343 C349 1.404 . S
C344 C337 1.448 . S
C344 C343 1.430 . S
C344 N348 1.351 . S
C345 C343 1.374 1_545 S
C345 C346 1.371 1_545 S
C345 H360 0.948 . S
C346 C340 1.439 . S
C346 C345 1.371 1_565 S
C346 H361 0.931 1_565 S
Eu347 N338 2.600 . S
Eu347 N348 2.562 . S
Eu347 O382 2.335 . S
Eu347 O385 2.372 . S
Eu347 O386 2.462 . S
Eu347 O387 2.373 . S
Eu347 O389 2.432 . S
Eu347 O390 2.291 . S
Eu347 C411 2.787 . S
N348 C344 1.351 . S
N348 Eu347 2.562 . S
N348 C350 1.325 . S
C349 C343 1.404 . S
C349 C351 1.366 . S
C349 H357 0.930 1_565 S
C350 N348 1.325 . S
C350 C351 1.416 . S
C350 H356 0.929 . S
C351 C349 1.366 . S
C351 C350 1.416 . S
C351 H353 0.930 . S
H352 C341 0.930 . S
H353 C351 0.930 . S
H354 C369 0.930 . S
H355 C376 0.930 . S
H356 C350 0.929 . S
H357 C349 0.930 1_545 S
H358 C372 0.929 . S
H359 C339 0.931 1_556 S
H360 C345 0.948 . S
H361 C346 0.931 1_545 S
H362 C367 0.931 . S
H363 C342 0.929 . S
H364 C375 0.930 . S
N365 Eu336 2.600 . S
N365 C366 1.365 . S
N365 C369 1.319 . S
C366 N365 1.365 . S
C366 C368 1.405 . S
C366 C374 1.448 . S
C367 H362 0.931 . S
C367 C369 1.397 . S
C367 C370 1.367 . S
C368 C366 1.405 . S
C368 C370 1.403 . S
C368 C401 1.439 . S
C369 H354 0.930 . S
C369 N365 1.319 . S
C369 C367 1.397 . S
C370 C367 1.367 . S
C370 C368 1.403 . S
C370 H377 0.929 . S
N371 Eu336 2.562 . S
N371 C372 1.325 . S
N371 C374 1.351 . S
C372 H358 0.929 . S
C372 N371 1.325 . S
C372 C376 1.416 1_455 S
C373 C374 1.430 1_655 S
C373 C375 1.405 . S
C373 C402 1.387 . S
C374 C366 1.448 . S
C374 N371 1.351 . S
C374 C373 1.430 1_455 S
C375 H364 0.930 . S
C375 C373 1.405 . S
C375 C376 1.366 . S
C376 H355 0.930 . S
C376 C372 1.416 1_655 S
C376 C375 1.366 . S
H377 C370 0.929 . S
H378 C401 0.931 1_655 S
H379 C402 0.931 . S
O380 Eu336 2.462 . S
O380 C400 1.252 . S
O381 Eu336 2.373 . S
O381 C392 1.249 . S
O382 Eu347 2.335 . S
O382 C392 1.264 . S
O383 Eu336 2.432 . S
O383 C400 1.268 . S
O384 Eu336 2.291 . S
O384 C399 1.255 . S
O385 Eu347 2.372 . S
O385 C399 1.257 . S
O386 Eu347 2.462 . S
O386 C411 1.252 . S
O387 Eu347 2.373 . S
O387 C403 1.249 . S
O388 Eu336 2.335 . S
O388 C403 1.264 . S
O389 Eu347 2.432 . S
O389 C411 1.268 . S
O390 Eu347 2.291 . S
O390 C410 1.255 . S
O391 Eu336 2.372 . S
O391 C410 1.257 . S
C392 O381 1.249 . S
C392 O382 1.264 . S
C393 C396 1.382 . S
C393 C398 1.390 . S
C393 C400 1.506 1_655 S
C394 C395 1.398 . S
C394 C398 1.392 . S
C395 C394 1.398 . S
C395 C397 1.372 . S
C395 H412 0.931 . S
C396 C393 1.382 . S
C396 C397 1.390 . S
C396 H413 0.931 . S
C397 C395 1.372 . S
C397 C396 1.390 . S
C397 H414 0.929 . S
C398 C393 1.390 . S
C398 C394 1.392 . S
C398 H415 0.930 . S
C399 O384 1.255 . S
C399 O385 1.257 . S
C400 Eu336 2.787 . S
C400 O380 1.252 . S
C400 O383 1.268 . S
C400 C393 1.506 1_455 S
C401 C368 1.439 . S
C401 H378 0.931 1_455 S
C401 C402 1.374 1_455 S
C402 C373 1.387 . S
C402 H379 0.931 . S
C402 C401 1.374 1_655 S
C403 O387 1.249 . S
C403 O388 1.264 . S
C404 C407 1.382 . S
C404 C408 1.390 . S
C404 C411 1.506 . S
C405 C406 1.398 . S
C405 C408 1.392 . S
C406 C405 1.398 . S
C406 C409 1.372 . S
C406 H416 0.931 . S
C407 C404 1.382 . S
C407 C409 1.390 . S
C407 H417 0.931 . S
C408 C404 1.390 . S
C408 C405 1.392 . S
C408 H418 0.930 . S
C409 C406 1.372 . S
C409 C407 1.390 . S
C409 H419 0.929 . S
C410 O390 1.255 . S
C410 O391 1.257 . S
C411 Eu347 2.787 . S
C411 O386 1.252 . S
C411 O389 1.268 . S
C411 C404 1.506 . S
H412 C395 0.931 . S
H413 C396 0.931 . S
H414 C397 0.929 . S
H415 C398 0.930 . S
H416 C406 0.931 . S
H417 C407 0.931 . S
H418 C408 0.930 . S
H419 C409 0.929 . S
Eu420 N449 2.600 . S
Eu420 N455 2.562 . S
Eu420 O464 2.462 . S
Eu420 O465 2.373 . S
Eu420 O467 2.432 . S
Eu420 O468 2.291 . S
Eu420 O472 2.335 . S
Eu420 O475 2.372 . S
Eu420 C484 2.787 . S
C421 N422 1.365 . S
C421 C424 1.405 . S
C421 C428 1.448 . S
N422 C421 1.365 . S
N422 C425 1.319 . S
N422 Eu431 2.600 . S
C423 C425 1.397 . S
C423 C426 1.367 . S
C423 H443 0.931 . S
C424 C421 1.405 . S
C424 C426 1.403 . S
C424 C430 1.439 . S
C425 N422 1.319 . S
C425 C423 1.397 . S
C425 H436 0.930 . S
C426 C423 1.367 . S
C426 C424 1.403 . S
C426 H447 0.929 . S
C427 C428 1.430 . S
C427 C429 1.387 . S
C427 C433 1.404 . S
C428 C421 1.448 . S
C428 C427 1.430 . S
C428 N432 1.351 . S
C429 C427 1.387 . S
C429 C430 1.374 . S
C429 H444 0.931 . S
C430 C424 1.439 . S
C430 C429 1.374 . S
C430 H445 0.931 . S
Eu431 N422 2.600 . S
Eu431 N432 2.562 . S
Eu431 O466 2.335 . S
Eu431 O469 2.372 . S
Eu431 O470 2.462 . S
Eu431 O471 2.373 . S
Eu431 O473 2.432 . S
Eu431 O474 2.291 . S
Eu431 C495 2.787 . S
N432 C428 1.351 . S
N432 Eu431 2.562 . S
N432 C434 1.325 . S
C433 C427 1.404 . S
C433 C435 1.366 . S
C433 H441 0.930 . S
C434 N432 1.325 . S
C434 C435 1.416 . S
C434 H440 0.929 . S
C435 C433 1.366 . S
C435 C434 1.416 . S
C435 H437 0.930 . S
H436 C425 0.930 . S
H437 C435 0.930 . S
H438 C453 0.930 . S
H439 C460 0.930 . S
H440 C434 0.929 . S
H441 C433 0.930 . S
H442 C456 0.929 . S
H443 C423 0.931 . S
H444 C429 0.931 . S
H445 C430 0.931 . S
H446 C451 0.931 . S
H447 C426 0.929 . S
H448 C459 0.930 . S
N449 Eu420 2.600 . S
N449 C450 1.365 . S
N449 C453 1.319 . S
C450 N449 1.365 . S
C450 C452 1.405 . S
C450 C458 1.448 . S
C451 H446 0.931 . S
C451 C453 1.397 . S
C451 C454 1.367 . S
C452 C450 1.405 . S
C452 C454 1.403 . S
C452 C485 1.439 . S
C453 H438 0.930 . S
C453 N449 1.319 . S
C453 C451 1.397 . S
C454 C451 1.367 . S
C454 C452 1.403 . S
C454 H461 0.929 . S
N455 Eu420 2.562 . S
N455 C456 1.325 . S
N455 C458 1.351 . S
C456 H442 0.929 . S
C456 N455 1.325 . S
C456 C460 1.416 1_545 S
C457 C458 1.428 1_565 S
C457 C459 1.405 . S
C457 C486 1.388 . S
C458 C450 1.448 . S
C458 N455 1.351 . S
C458 C457 1.428 1_545 S
C459 H448 0.930 . S
C459 C457 1.405 . S
C459 C460 1.366 . S
C460 H439 0.930 . S
C460 C456 1.416 1_565 S
C460 C459 1.366 . S
H461 C454 0.929 . S
H462 C485 0.931 1_565 S
H463 C486 0.931 . S
O464 Eu420 2.462 . S
O464 C484 1.252 . S
O465 Eu420 2.373 . S
O465 C476 1.249 . S
O466 Eu431 2.335 . S
O466 C476 1.264 . S
O467 Eu420 2.432 . S
O467 C484 1.268 . S
O468 Eu420 2.291 . S
O468 C483 1.255 . S
O469 Eu431 2.372 . S
O469 C483 1.257 . S
O470 Eu431 2.462 . S
O470 C495 1.252 . S
O471 Eu431 2.373 . S
O471 C487 1.249 . S
O472 Eu420 2.335 . S
O472 C487 1.264 . S
O473 Eu431 2.432 . S
O473 C495 1.268 . S
O474 Eu431 2.291 . S
O474 C494 1.255 . S
O475 Eu420 2.372 . S
O475 C494 1.257 . S
C476 O465 1.249 . S
C476 O466 1.264 . S
C477 C480 1.382 . S
C477 C482 1.390 . S
C477 C484 1.506 1_565 S
C478 C479 1.398 . S
C478 C482 1.392 . S
C479 C478 1.398 . S
C479 C481 1.372 . S
C479 H496 0.931 . S
C480 C477 1.382 . S
C480 C481 1.390 . S
C480 H497 0.931 . S
C481 C479 1.372 . S
C481 C480 1.390 . S
C481 H498 0.929 . S
C482 C477 1.390 . S
C482 C478 1.392 . S
C482 H499 0.930 . S
C483 O468 1.255 . S
C483 O469 1.257 . S
C484 Eu420 2.787 . S
C484 O464 1.252 . S
C484 O467 1.268 . S
C484 C477 1.506 1_545 S
C485 C452 1.439 . S
C485 H462 0.931 1_545 S
C485 C486 1.374 1_545 S
C486 C457 1.388 . S
C486 H463 0.931 . S
C486 C485 1.374 1_565 S
C487 O471 1.249 . S
C487 O472 1.264 . S
C488 C491 1.382 . S
C488 C492 1.390 . S
C488 C495 1.506 . S
C489 C490 1.398 . S
C489 C492 1.392 . S
C490 C489 1.398 . S
C490 C493 1.372 . S
C490 H500 0.931 . S
C491 C488 1.382 . S
C491 C493 1.390 . S
C491 H501 0.931 . S
C492 C488 1.390 . S
C492 C489 1.392 . S
C492 H502 0.930 . S
C493 C490 1.372 . S
C493 C491 1.390 . S
C493 H503 0.929 . S
C494 O474 1.255 . S
C494 O475 1.257 . S
C495 Eu431 2.787 . S
C495 O470 1.252 . S
C495 O473 1.268 . S
C495 C488 1.506 . S
H496 C479 0.931 . S
H497 C480 0.931 . S
H498 C481 0.929 . S
H499 C482 0.930 . S
H500 C490 0.931 . S
H501 C491 0.931 . S
H502 C492 0.930 . S
H503 C493 0.929 . S
Eu504 N533 2.600 . S
Eu504 N539 2.562 . S
Eu504 O548 2.462 . S
Eu504 O549 2.373 . S
Eu504 O551 2.432 . S
Eu504 O552 2.291 . S
Eu504 O556 2.335 . S
Eu504 O559 2.372 . S
Eu504 C568 2.787 . S
C505 N506 1.365 . S
C505 C508 1.405 . S
C505 C512 1.448 . S
N506 C505 1.365 . S
N506 C509 1.319 . S
N506 Eu515 2.600 . S
C507 C509 1.397 . S
C507 C510 1.367 . S
C507 H527 0.931 . S
C508 C505 1.405 . S
C508 C510 1.403 . S
C508 C514 1.439 . S
C509 N506 1.319 . S
C509 C507 1.397 . S
C509 H520 0.930 . S
C510 C507 1.367 . S
C510 C508 1.403 . S
C510 H531 0.929 . S
C511 C512 1.430 . S
C511 C513 1.375 1_565 S
C511 C517 1.404 . S
C512 C505 1.448 . S
C512 C511 1.430 . S
C512 N516 1.351 . S
C513 C511 1.375 1_545 S
C513 C514 1.366 1_545 S
C513 H528 0.952 . S
C514 C508 1.439 . S
C514 C513 1.366 1_565 S
C514 H529 0.931 1_565 S
Eu515 N506 2.600 . S
Eu515 N516 2.562 . S
Eu515 O550 2.335 . S
Eu515 O553 2.372 . S
Eu515 O554 2.462 . S
Eu515 O555 2.373 . S
Eu515 O557 2.432 . S
Eu515 O558 2.291 . S
Eu515 C579 2.787 . S
N516 C512 1.351 . S
N516 Eu515 2.562 . S
N516 C518 1.325 . S
C517 C511 1.404 . S
C517 C519 1.366 . S
C517 H525 0.930 1_565 S
C518 N516 1.325 . S
C518 C519 1.416 . S
C518 H524 0.929 . S
C519 C517 1.366 . S
C519 C518 1.416 . S
C519 H521 0.930 . S
H520 C509 0.930 . S
H521 C519 0.930 . S
H522 C537 0.930 . S
H523 C544 0.930 . S
H524 C518 0.929 . S
H525 C517 0.930 1_545 S
H526 C540 0.929 . S
H527 C507 0.931 . S
H528 C513 0.952 . S
H529 C514 0.931 1_545 S
H530 C535 0.931 . S
H531 C510 0.929 . S
H532 C543 0.930 . S
N533 Eu504 2.600 . S
N533 C534 1.365 . S
N533 C537 1.319 . S
C534 N533 1.365 . S
C534 C536 1.405 . S
C534 C542 1.448 . S
C535 H530 0.931 . S
C535 C537 1.397 . S
C535 C538 1.367 . S
C536 C534 1.405 . S
C536 C538 1.403 . S
C536 C569 1.439 . S
C537 H522 0.930 . S
C537 N533 1.319 . S
C537 C535 1.397 . S
C538 C535 1.367 . S
C538 C536 1.403 . S
C538 H545 0.929 . S
N539 Eu504 2.562 . S
N539 C540 1.325 . S
N539 C542 1.351 . S
C540 H526 0.929 . S
C540 N539 1.325 . S
C540 C544 1.416 . S
C541 C542 1.430 . S
C541 C543 1.404 . S
C541 C570 1.387 . S
C542 C534 1.448 . S
C542 N539 1.351 . S
C542 C541 1.430 . S
C543 H532 0.930 . S
C543 C541 1.404 . S
C543 C544 1.366 . S
C544 H523 0.930 . S
C544 C540 1.416 . S
C544 C543 1.366 . S
H545 C538 0.929 . S
H546 C569 0.931 . S
H547 C570 0.931 . S
O548 Eu504 2.462 . S
O548 C568 1.252 . S
O549 Eu504 2.373 . S
O549 C560 1.249 . S
O550 Eu515 2.335 . S
O550 C560 1.264 . S
O551 Eu504 2.432 . S
O551 C568 1.268 . S
O552 Eu504 2.291 . S
O552 C567 1.255 . S
O553 Eu515 2.372 . S
O553 C567 1.257 . S
O554 Eu515 2.462 . S
O554 C579 1.252 . S
O555 Eu515 2.373 . S
O555 C571 1.249 . S
O556 Eu504 2.335 . S
O556 C571 1.264 . S
O557 Eu515 2.432 . S
O557 C579 1.268 . S
O558 Eu515 2.291 . S
O558 C578 1.255 . S
O559 Eu504 2.372 . S
O559 C578 1.257 . S
C560 O549 1.249 . S
C560 O550 1.264 . S
C561 C564 1.382 . S
C561 C566 1.390 . S
C561 C568 1.506 . S
C562 C563 1.398 . S
C562 C566 1.392 . S
C563 C562 1.398 . S
C563 C565 1.372 . S
C563 H580 0.931 . S
C564 C561 1.382 . S
C564 C565 1.390 . S
C564 H581 0.931 . S
C565 C563 1.372 . S
C565 C564 1.390 . S
C565 H582 0.929 . S
C566 C561 1.390 . S
C566 C562 1.392 . S
C566 H583 0.930 . S
C567 O552 1.255 . S
C567 O553 1.257 . S
C568 Eu504 2.787 . S
C568 O548 1.252 . S
C568 O551 1.268 . S
C568 C561 1.506 . S
C569 C536 1.439 . S
C569 H546 0.931 . S
C569 C570 1.374 . S
C570 C541 1.387 . S
C570 H547 0.931 . S
C570 C569 1.374 . S
C571 O555 1.249 . S
C571 O556 1.264 . S
C572 C575 1.382 . S
C572 C576 1.390 . S
C572 C579 1.506 . S
C573 C574 1.398 . S
C573 C576 1.392 . S
C574 C573 1.398 . S
C574 C577 1.372 . S
C574 H584 0.931 . S
C575 C572 1.382 . S
C575 C577 1.390 . S
C575 H585 0.931 . S
C576 C572 1.390 . S
C576 C573 1.392 . S
C576 H586 0.930 . S
C577 C574 1.372 . S
C577 C575 1.390 . S
C577 H587 0.929 . S
C578 O558 1.255 . S
C578 O559 1.257 . S
C579 Eu515 2.787 . S
C579 O554 1.252 . S
C579 O557 1.268 . S
C579 C572 1.506 . S
H580 C563 0.931 . S
H581 C564 0.931 . S
H582 C565 0.929 . S
H583 C566 0.930 . S
H584 C574 0.931 . S
H585 C575 0.931 . S
H586 C576 0.930 . S
H587 C577 0.929 . S
Eu588 N617 2.600 . S
Eu588 N623 2.562 . S
Eu588 O632 2.462 . S
Eu588 O633 2.373 . S
Eu588 O635 2.432 . S
Eu588 O636 2.291 . S
Eu588 O640 2.335 . S
Eu588 O643 2.372 . S
Eu588 C652 2.787 . S
C589 N590 1.365 . S
C589 C592 1.405 . S
C589 C596 1.448 . S
N590 C589 1.365 . S
N590 C593 1.319 . S
N590 Eu599 2.600 . S
C591 C593 1.397 . S
C591 C594 1.367 . S
C591 H611 0.931 1_556 S
C592 C589 1.405 . S
C592 C594 1.403 . S
C592 C598 1.439 . S
C593 N590 1.319 . S
C593 C591 1.397 . S
C593 H604 0.930 . S
C594 C591 1.367 . S
C594 C592 1.403 . S
C594 H615 0.929 . S
C595 C596 1.430 . S
C595 C597 1.387 . S
C595 C601 1.404 . S
C596 C589 1.448 . S
C596 C595 1.430 . S
C596 N600 1.351 . S
C597 C595 1.387 . S
C597 C598 1.374 . S
C597 H612 0.931 . S
C598 C592 1.439 . S
C598 C597 1.374 . S
C598 H613 0.931 . S
Eu599 N590 2.600 . S
Eu599 N600 2.562 . S
Eu599 O634 2.335 . S
Eu599 O637 2.372 . S
Eu599 O638 2.462 . S
Eu599 O639 2.373 . S
Eu599 O641 2.432 . S
Eu599 O642 2.291 . S
Eu599 C663 2.787 . S
N600 C596 1.351 . S
N600 Eu599 2.562 . S
N600 C602 1.325 . S
C601 C595 1.404 . S
C601 C603 1.366 . S
C601 H609 0.930 . S
C602 N600 1.325 . S
C602 C603 1.416 . S
C602 H608 0.929 . S
C603 C601 1.366 . S
C603 C602 1.416 . S
C603 H605 0.930 . S
H604 C593 0.930 . S
H605 C603 0.930 . S
H606 C621 0.930 . S
H607 C628 0.930 . S
H608 C602 0.929 . S
H609 C601 0.930 . S
H610 C624 0.929 . S
H611 C591 0.931 1_554 S
H612 C597 0.931 . S
H613 C598 0.931 . S
H614 C619 0.931 . S
H615 C594 0.929 . S
H616 C627 0.930 . S
N617 Eu588 2.600 . S
N617 C618 1.365 . S
N617 C621 1.319 . S
C618 N617 1.365 . S
C618 C620 1.405 . S
C618 C626 1.448 . S
C619 H614 0.931 . S
C619 C621 1.397 . S
C619 C622 1.367 . S
C620 C618 1.405 . S
C620 C622 1.403 . S
C620 C653 1.439 . S
C621 H606 0.930 . S
C621 N617 1.319 . S
C621 C619 1.397 . S
C622 C619 1.367 . S
C622 C620 1.403 . S
C622 H629 0.929 . S
N623 Eu588 2.562 . S
N623 C624 1.325 . S
N623 C626 1.351 . S
C624 H610 0.929 . S
C624 N623 1.325 . S
C624 C628 1.416 1_655 S
C625 C626 1.428 1_455 S
C625 C627 1.405 . S
C625 C654 1.388 . S
C626 C618 1.448 . S
C626 N623 1.351 . S
C626 C625 1.428 1_655 S
C627 H616 0.930 . S
C627 C625 1.405 . S
C627 C628 1.366 . S
C628 H607 0.930 . S
C628 C624 1.416 1_455 S
C628 C627 1.366 . S
H629 C622 0.929 . S
H630 C653 0.931 1_455 S
H631 C654 0.931 . S
O632 Eu588 2.462 . S
O632 C652 1.252 . S
O633 Eu588 2.373 . S
O633 C644 1.249 . S
O634 Eu599 2.335 . S
O634 C644 1.264 . S
O635 Eu588 2.432 . S
O635 C652 1.268 . S
O636 Eu588 2.291 . S
O636 C651 1.255 . S
O637 Eu599 2.372 . S
O637 C651 1.257 . S
O638 Eu599 2.462 . S
O638 C663 1.252 . S
O639 Eu599 2.373 . S
O639 C655 1.249 . S
O640 Eu588 2.335 . S
O640 C655 1.264 . S
O641 Eu599 2.432 . S
O641 C663 1.268 . S
O642 Eu599 2.291 . S
O642 C662 1.255 . S
O643 Eu588 2.372 . S
O643 C662 1.257 . S
C644 O633 1.249 . S
C644 O634 1.264 . S
C645 C648 1.382 . S
C645 C650 1.390 . S
C645 C652 1.506 1_455 S
C646 C647 1.398 . S
C646 C650 1.392 . S
C647 C646 1.398 . S
C647 C649 1.372 . S
C647 H664 0.931 . S
C648 C645 1.382 . S
C648 C649 1.390 . S
C648 H665 0.931 . S
C649 C647 1.372 . S
C649 C648 1.390 . S
C649 H666 0.929 . S
C650 C645 1.390 . S
C650 C646 1.392 . S
C650 H667 0.930 . S
C651 O636 1.255 . S
C651 O637 1.257 . S
C652 Eu588 2.787 . S
C652 O632 1.252 . S
C652 O635 1.268 . S
C652 C645 1.506 1_655 S
C653 C620 1.439 . S
C653 H630 0.931 1_655 S
C653 C654 1.374 1_655 S
C654 C625 1.388 . S
C654 H631 0.931 . S
C654 C653 1.374 1_455 S
C655 O639 1.249 . S
C655 O640 1.264 . S
C656 C659 1.382 . S
C656 C660 1.390 . S
C656 C663 1.506 . S
C657 C658 1.398 . S
C657 C660 1.392 . S
C658 C657 1.398 . S
C658 C661 1.372 . S
C658 H668 0.931 . S
C659 C656 1.382 . S
C659 C661 1.390 . S
C659 H669 0.931 . S
C660 C656 1.390 . S
C660 C657 1.392 . S
C660 H670 0.930 . S
C661 C658 1.372 . S
C661 C659 1.390 . S
C661 H671 0.929 . S
C662 O642 1.255 . S
C662 O643 1.257 . S
C663 Eu599 2.787 . S
C663 O638 1.252 . S
C663 O641 1.268 . S
C663 C656 1.506 . S
H664 C647 0.931 . S
H665 C648 0.931 . S
H666 C649 0.929 . S
H667 C650 0.930 . S
H668 C658 0.931 . S
H669 C659 0.931 . S
H670 C660 0.930 . S
H671 C661 0.929 . S
Eu672 N701 2.600 . S
Eu672 N707 2.562 . S
Eu672 O716 2.462 . S
Eu672 O717 2.373 . S
Eu672 O719 2.432 . S
Eu672 O720 2.291 . S
Eu672 O724 2.335 . S
Eu672 O727 2.372 . S
Eu672 C736 2.787 . S
C673 N674 1.365 . S
C673 C676 1.405 . S
C673 C680 1.448 . S
N674 C673 1.365 . S
N674 C677 1.319 . S
N674 Eu683 2.600 . S
C675 C677 1.397 . S
C675 C678 1.367 . S
C675 H695 0.931 . S
C676 C673 1.405 . S
C676 C678 1.403 . S
C676 C682 1.439 . S
C677 N674 1.319 . S
C677 C675 1.397 . S
C677 H688 0.930 . S
C678 C675 1.367 . S
C678 C676 1.403 . S
C678 H699 0.929 . S
C679 C680 1.430 . S
C679 C681 1.374 1_455 S
C679 C685 1.404 . S
C680 C673 1.448 . S
C680 C679 1.430 . S
C680 N684 1.351 . S
C681 C679 1.374 1_655 S
C681 C682 1.371 1_655 S
C681 H696 0.948 . S
C682 C676 1.439 . S
C682 C681 1.371 1_455 S
C682 H697 0.931 1_455 S
Eu683 N674 2.600 . S
Eu683 N684 2.562 . S
Eu683 O718 2.335 . S
Eu683 O721 2.372 . S
Eu683 O722 2.462 . S
Eu683 O723 2.373 . S
Eu683 O725 2.432 . S
Eu683 O726 2.291 . S
Eu683 C747 2.787 . S
N684 C680 1.351 . S
N684 Eu683 2.562 . S
N684 C686 1.325 . S
C685 C679 1.404 . S
C685 C687 1.366 . S
C685 H693 0.930 1_455 S
C686 N684 1.325 . S
C686 C687 1.416 . S
C686 H692 0.929 . S
C687 C685 1.366 . S
C687 C686 1.416 . S
C687 H689 0.930 . S
H688 C677 0.930 . S
H689 C687 0.930 . S
H690 C705 0.930 . S
H691 C712 0.930 . S
H692 C686 0.929 . S
H693 C685 0.930 1_655 S
H694 C708 0.929 . S
H695 C675 0.931 . S
H696 C681 0.948 . S
H697 C682 0.931 1_655 S
H698 C703 0.931 . S
H699 C678 0.929 . S
H700 C711 0.930 . S
N701 Eu672 2.600 . S
N701 C702 1.365 . S
N701 C705 1.319 . S
C702 N701 1.365 . S
C702 C704 1.405 . S
C702 C710 1.448 . S
C703 H698 0.931 . S
C703 C705 1.397 . S
C703 C706 1.367 . S
C704 C702 1.405 . S
C704 C706 1.403 . S
C704 C737 1.439 . S
C705 H690 0.930 . S
C705 N701 1.319 . S
C705 C703 1.397 . S
C706 C703 1.367 . S
C706 C704 1.403 . S
C706 H713 0.929 . S
N707 Eu672 2.562 . S
N707 C708 1.325 . S
N707 C710 1.351 . S
C708 H694 0.929 . S
C708 N707 1.325 . S
C708 C712 1.416 1_565 S
C709 C710 1.430 1_545 S
C709 C711 1.405 . S
C709 C738 1.387 . S
C710 C702 1.448 . S
C710 N707 1.351 . S
C710 C709 1.430 1_565 S
C711 H700 0.930 . S
C711 C709 1.405 . S
C711 C712 1.366 . S
C712 H691 0.930 . S
C712 C708 1.416 1_545 S
C712 C711 1.366 . S
H713 C706 0.929 . S
H714 C737 0.931 1_545 S
H715 C738 0.931 . S
O716 Eu672 2.462 . S
O716 C736 1.252 . S
O717 Eu672 2.373 . S
O717 C728 1.249 . S
O718 Eu683 2.335 . S
O718 C728 1.264 . S
O719 Eu672 2.432 . S
O719 C736 1.268 . S
O720 Eu672 2.291 . S
O720 C735 1.255 . S
O721 Eu683 2.372 . S
O721 C735 1.257 . S
O722 Eu683 2.462 . S
O722 C747 1.252 . S
O723 Eu683 2.373 . S
O723 C739 1.249 . S
O724 Eu672 2.335 . S
O724 C739 1.264 . S
O725 Eu683 2.432 . S
O725 C747 1.268 . S
O726 Eu683 2.291 . S
O726 C746 1.255 . S
O727 Eu672 2.372 . S
O727 C746 1.257 . S
C728 O717 1.249 . S
C728 O718 1.264 . S
C729 C732 1.382 . S
C729 C734 1.390 . S
C729 C736 1.506 1_545 S
C730 C731 1.398 . S
C730 C734 1.392 . S
C731 C730 1.398 . S
C731 C733 1.372 . S
C731 H748 0.931 . S
C732 C729 1.382 . S
C732 C733 1.390 . S
C732 H749 0.931 . S
C733 C731 1.372 . S
C733 C732 1.390 . S
C733 H750 0.929 . S
C734 C729 1.390 . S
C734 C730 1.392 . S
C734 H751 0.930 . S
C735 O720 1.255 . S
C735 O721 1.257 . S
C736 Eu672 2.787 . S
C736 O716 1.252 . S
C736 O719 1.268 . S
C736 C729 1.506 1_565 S
C737 C704 1.439 . S
C737 H714 0.931 1_565 S
C737 C738 1.374 1_565 S
C738 C709 1.387 . S
C738 H715 0.931 . S
C738 C737 1.374 1_545 S
C739 O723 1.249 . S
C739 O724 1.264 . S
C740 C743 1.382 . S
C740 C744 1.390 . S
C740 C747 1.506 . S
C741 C742 1.398 . S
C741 C744 1.392 . S
C742 C741 1.398 . S
C742 C745 1.372 . S
C742 H752 0.931 . S
C743 C740 1.382 . S
C743 C745 1.390 . S
C743 H753 0.931 . S
C744 C740 1.390 . S
C744 C741 1.392 . S
C744 H754 0.930 . S
C745 C742 1.372 . S
C745 C743 1.390 . S
C745 H755 0.929 . S
C746 O726 1.255 . S
C746 O727 1.257 . S
C747 Eu683 2.787 . S
C747 O722 1.252 . S
C747 O725 1.268 . S
C747 C740 1.506 . S
H748 C731 0.931 . S
H749 C732 0.931 . S
H750 C733 0.929 . S
H751 C734 0.930 . S
H752 C742 0.931 . S
H753 C743 0.931 . S
H754 C744 0.930 . S
H755 C745 0.929 . S
Eu756 N785 2.600 . S
Eu756 N791 2.562 . S
Eu756 O800 2.462 . S
Eu756 O801 2.373 . S
Eu756 O803 2.432 . S
Eu756 O804 2.291 . S
Eu756 O808 2.335 . S
Eu756 O811 2.372 . S
Eu756 C820 2.787 . S
C757 N758 1.365 . S
C757 C760 1.405 . S
C757 C764 1.448 . S
N758 C757 1.365 . S
N758 C761 1.319 . S
N758 Eu767 2.600 . S
C759 C761 1.397 . S
C759 C762 1.367 . S
C759 H779 0.931 1_556 S
C760 C757 1.405 . S
C760 C762 1.403 . S
C760 C766 1.439 . S
C761 N758 1.319 . S
C761 C759 1.397 . S
C761 H772 0.930 . S
C762 C759 1.367 . S
C762 C760 1.403 . S
C762 H783 0.929 . S
C763 C764 1.430 . S
C763 C765 1.375 1_545 S
C763 C769 1.404 . S
C764 C757 1.448 . S
C764 C763 1.430 . S
C764 N768 1.351 . S
C765 C763 1.375 1_565 S
C765 C766 1.366 1_565 S
C765 H780 0.952 . S
C766 C760 1.439 . S
C766 C765 1.366 1_545 S
C766 H781 0.931 1_545 S
Eu767 N758 2.600 . S
Eu767 N768 2.562 . S
Eu767 O802 2.335 . S
Eu767 O805 2.372 . S
Eu767 O806 2.462 . S
Eu767 O807 2.373 . S
Eu767 O809 2.432 . S
Eu767 O810 2.291 . S
Eu767 C831 2.787 . S
N768 C764 1.351 . S
N768 Eu767 2.562 . S
N768 C770 1.325 . S
C769 C763 1.404 . S
C769 C771 1.366 . S
C769 H777 0.930 1_545 S
C770 N768 1.325 . S
C770 C771 1.416 . S
C770 H776 0.929 . S
C771 C769 1.366 . S
C771 C770 1.416 . S
C771 H773 0.930 . S
H772 C761 0.930 . S
H773 C771 0.930 . S
H774 C789 0.930 . S
H775 C796 0.930 . S
H776 C770 0.929 . S
H777 C769 0.930 1_565 S
H778 C792 0.929 . S
H779 C759 0.931 1_554 S
H780 C765 0.952 . S
H781 C766 0.931 1_565 S
H782 C787 0.931 . S
H783 C762 0.929 . S
H784 C795 0.930 . S
N785 Eu756 2.600 . S
N785 C786 1.365 . S
N785 C789 1.319 . S
C786 N785 1.365 . S
C786 C788 1.405 . S
C786 C794 1.448 . S
C787 H782 0.931 . S
C787 C789 1.397 . S
C787 C790 1.367 . S
C788 C786 1.405 . S
C788 C790 1.403 . S
C788 C821 1.439 . S
C789 H774 0.930 . S
C789 N785 1.319 . S
C789 C787 1.397 . S
C790 C787 1.367 . S
C790 C788 1.403 . S
C790 H797 0.929 . S
N791 Eu756 2.562 . S
N791 C792 1.325 . S
N791 C794 1.351 . S
C792 H778 0.929 . S
C792 N791 1.325 . S
C792 C796 1.416 . S
C793 C794 1.430 . S
C793 C795 1.404 . S
C793 C822 1.387 . S
C794 C786 1.448 . S
C794 N791 1.351 . S
C794 C793 1.430 . S
C795 H784 0.930 . S
C795 C793 1.404 . S
C795 C796 1.366 . S
C796 H775 0.930 . S
C796 C792 1.416 . S
C796 C795 1.366 . S
H797 C790 0.929 . S
H798 C821 0.931 . S
H799 C822 0.931 . S
O800 Eu756 2.462 . S
O800 C820 1.252 . S
O801 Eu756 2.373 . S
O801 C812 1.249 . S
O802 Eu767 2.335 . S
O802 C812 1.264 . S
O803 Eu756 2.432 . S
O803 C820 1.268 . S
O804 Eu756 2.291 . S
O804 C819 1.255 . S
O805 Eu767 2.372 . S
O805 C819 1.257 . S
O806 Eu767 2.462 . S
O806 C831 1.252 . S
O807 Eu767 2.373 . S
O807 C823 1.249 . S
O808 Eu756 2.335 . S
O808 C823 1.264 . S
O809 Eu767 2.432 . S
O809 C831 1.268 . S
O810 Eu767 2.291 . S
O810 C830 1.255 . S
O811 Eu756 2.372 . S
O811 C830 1.257 . S
C812 O801 1.249 . S
C812 O802 1.264 . S
C813 C816 1.382 . S
C813 C818 1.390 . S
C813 C820 1.506 . S
C814 C815 1.398 . S
C814 C818 1.392 . S
C815 C814 1.398 . S
C815 C817 1.372 . S
C815 H832 0.931 . S
C816 C813 1.382 . S
C816 C817 1.390 . S
C816 H833 0.931 . S
C817 C815 1.372 . S
C817 C816 1.390 . S
C817 H834 0.929 . S
C818 C813 1.390 . S
C818 C814 1.392 . S
C818 H835 0.930 . S
C819 O804 1.255 . S
C819 O805 1.257 . S
C820 Eu756 2.787 . S
C820 O800 1.252 . S
C820 O803 1.268 . S
C820 C813 1.506 . S
C821 C788 1.439 . S
C821 H798 0.931 . S
C821 C822 1.374 . S
C822 C793 1.387 . S
C822 H799 0.931 . S
C822 C821 1.374 . S
C823 O807 1.249 . S
C823 O808 1.264 . S
C824 C827 1.382 . S
C824 C828 1.390 . S
C824 C831 1.506 . S
C825 C826 1.398 . S
C825 C828 1.392 . S
C826 C825 1.398 . S
C826 C829 1.372 . S
C826 H836 0.931 . S
C827 C824 1.382 . S
C827 C829 1.390 . S
C827 H837 0.931 . S
C828 C824 1.390 . S
C828 C825 1.392 . S
C828 H838 0.930 . S
C829 C826 1.372 . S
C829 C827 1.390 . S
C829 H839 0.929 . S
C830 O810 1.255 . S
C830 O811 1.257 . S
C831 Eu767 2.787 . S
C831 O806 1.252 . S
C831 O809 1.268 . S
C831 C824 1.506 . S
H832 C815 0.931 . S
H833 C816 0.931 . S
H834 C817 0.929 . S
H835 C818 0.930 . S
H836 C826 0.931 . S
H837 C827 0.931 . S
H838 C828 0.930 . S
H839 C829 0.929 . S
Eu840 N869 2.600 . S
Eu840 N875 2.562 . S
Eu840 O884 2.462 . S
Eu840 O885 2.373 . S
Eu840 O887 2.432 . S
Eu840 O888 2.291 . S
Eu840 O892 2.335 . S
Eu840 O895 2.372 . S
Eu840 C904 2.787 . S
C841 N842 1.365 . S
C841 C844 1.405 . S
C841 C848 1.448 . S
N842 C841 1.365 . S
N842 C845 1.319 . S
N842 Eu851 2.600 . S
C843 C845 1.397 . S
C843 C846 1.367 . S
C843 H863 0.931 . S
C844 C841 1.405 . S
C844 C846 1.403 . S
C844 C850 1.439 . S
C845 N842 1.319 . S
C845 C843 1.397 . S
C845 H856 0.930 . S
C846 C843 1.367 . S
C846 C844 1.403 . S
C846 H867 0.929 . S
C847 C848 1.430 . S
C847 C849 1.387 . S
C847 C853 1.404 . S
C848 C841 1.448 . S
C848 C847 1.430 . S
C848 N852 1.351 . S
C849 C847 1.387 . S
C849 C850 1.374 . S
C849 H864 0.931 . S
C850 C844 1.439 . S
C850 C849 1.374 . S
C850 H865 0.931 . S
Eu851 N842 2.600 . S
Eu851 N852 2.562 . S
Eu851 O886 2.335 . S
Eu851 O889 2.372 . S
Eu851 O890 2.462 . S
Eu851 O891 2.373 . S
Eu851 O893 2.432 . S
Eu851 O894 2.291 . S
Eu851 C915 2.787 . S
N852 C848 1.351 . S
N852 Eu851 2.562 . S
N852 C854 1.325 . S
C853 C847 1.404 . S
C853 C855 1.366 . S
C853 H861 0.930 . S
C854 N852 1.325 . S
C854 C855 1.416 . S
C854 H860 0.929 . S
C855 C853 1.366 . S
C855 C854 1.416 . S
C855 H857 0.930 . S
H856 C845 0.930 . S
H857 C855 0.930 . S
H858 C873 0.930 . S
H859 C880 0.930 . S
H860 C854 0.929 . S
H861 C853 0.930 . S
H862 C876 0.929 . S
H863 C843 0.931 . S
H864 C849 0.931 . S
H865 C850 0.931 . S
H866 C871 0.931 . S
H867 C846 0.929 . S
H868 C879 0.930 . S
N869 Eu840 2.600 . S
N869 C870 1.365 . S
N869 C873 1.319 . S
C870 N869 1.365 . S
C870 C872 1.405 . S
C870 C878 1.448 . S
C871 H866 0.931 . S
C871 C873 1.397 . S
C871 C874 1.367 . S
C872 C870 1.405 . S
C872 C874 1.403 . S
C872 C905 1.439 . S
C873 H858 0.930 . S
C873 N869 1.319 . S
C873 C871 1.397 . S
C874 C871 1.367 . S
C874 C872 1.403 . S
C874 H881 0.929 . S
N875 Eu840 2.562 . S
N875 C876 1.325 . S
N875 C878 1.351 . S
C876 H862 0.929 . S
C876 N875 1.325 . S
C876 C880 1.416 1_455 S
C877 C878 1.428 1_655 S
C877 C879 1.405 . S
C877 C906 1.388 . S
C878 C870 1.448 . S
C878 N875 1.351 . S
C878 C877 1.428 1_455 S
C879 H868 0.930 . S
C879 C877 1.405 . S
C879 C880 1.366 . S
C880 H859 0.930 . S
C880 C876 1.416 1_655 S
C880 C879 1.366 . S
H881 C874 0.929 . S
H882 C905 0.931 1_655 S
H883 C906 0.931 . S
O884 Eu840 2.462 . S
O884 C904 1.252 . S
O885 Eu840 2.373 . S
O885 C896 1.249 . S
O886 Eu851 2.335 . S
O886 C896 1.264 . S
O887 Eu840 2.432 . S
O887 C904 1.268 . S
O888 Eu840 2.291 . S
O888 C903 1.255 . S
O889 Eu851 2.372 . S
O889 C903 1.257 . S
O890 Eu851 2.462 . S
O890 C915 1.252 . S
O891 Eu851 2.373 . S
O891 C907 1.249 . S
O892 Eu840 2.335 . S
O892 C907 1.264 . S
O893 Eu851 2.432 . S
O893 C915 1.268 . S
O894 Eu851 2.291 . S
O894 C914 1.255 . S
O895 Eu840 2.372 . S
O895 C914 1.257 . S
C896 O885 1.249 . S
C896 O886 1.264 . S
C897 C900 1.382 . S
C897 C902 1.390 . S
C897 C904 1.506 1_655 S
C898 C899 1.398 . S
C898 C902 1.392 . S
C899 C898 1.398 . S
C899 C901 1.372 . S
C899 H916 0.931 . S
C900 C897 1.382 . S
C900 C901 1.390 . S
C900 H917 0.931 . S
C901 C899 1.372 . S
C901 C900 1.390 . S
C901 H918 0.929 . S
C902 C897 1.390 . S
C902 C898 1.392 . S
C902 H919 0.930 . S
C903 O888 1.255 . S
C903 O889 1.257 . S
C904 Eu840 2.787 . S
C904 O884 1.252 . S
C904 O887 1.268 . S
C904 C897 1.506 1_455 S
C905 C872 1.439 . S
C905 H882 0.931 1_455 S
C905 C906 1.374 1_455 S
C906 C877 1.388 . S
C906 H883 0.931 . S
C906 C905 1.374 1_655 S
C907 O891 1.249 . S
C907 O892 1.264 . S
C908 C911 1.382 . S
C908 C912 1.390 . S
C908 C915 1.506 . S
C909 C910 1.398 . S
C909 C912 1.392 . S
C910 C909 1.398 . S
C910 C913 1.372 . S
C910 H920 0.931 . S
C911 C908 1.382 . S
C911 C913 1.390 . S
C911 H921 0.931 . S
C912 C908 1.390 . S
C912 C909 1.392 . S
C912 H922 0.930 . S
C913 C910 1.372 . S
C913 C911 1.390 . S
C913 H923 0.929 . S
C914 O894 1.255 . S
C914 O895 1.257 . S
C915 Eu851 2.787 . S
C915 O890 1.252 . S
C915 O893 1.268 . S
C915 C908 1.506 . S
H916 C899 0.931 . S
H917 C900 0.931 . S
H918 C901 0.929 . S
H919 C902 0.930 . S
H920 C910 0.931 . S
H921 C911 0.931 . S
H922 C912 0.930 . S
H923 C913 0.929 . S
Eu924 N953 2.600 . S
Eu924 N959 2.562 . S
Eu924 O968 2.462 . S
Eu924 O969 2.373 . S
Eu924 O971 2.432 . S
Eu924 O972 2.291 . S
Eu924 O976 2.335 . S
Eu924 O979 2.372 . S
Eu924 C988 2.787 . S
C925 N926 1.365 . S
C925 C928 1.405 . S
C925 C932 1.448 . S
N926 C925 1.365 . S
N926 C929 1.319 . S
N926 Eu935 2.600 . S
C927 C929 1.397 . S
C927 C930 1.367 . S
C927 H947 0.931 1_556 S
C928 C925 1.405 . S
C928 C930 1.403 . S
C928 C934 1.439 . S
C929 N926 1.319 . S
C929 C927 1.397 . S
C929 H940 0.930 . S
C930 C927 1.367 . S
C930 C928 1.403 . S
C930 H951 0.929 . S
C931 C932 1.430 . S
C931 C933 1.374 1_655 S
C931 C937 1.404 . S
C932 C925 1.448 . S
C932 C931 1.430 . S
C932 N936 1.351 . S
C933 C931 1.374 1_455 S
C933 C934 1.371 1_455 S
C933 H948 0.948 . S
C934 C928 1.439 . S
C934 C933 1.371 1_655 S
C934 H949 0.931 1_655 S
Eu935 N926 2.600 . S
Eu935 N936 2.562 . S
Eu935 O970 2.335 . S
Eu935 O973 2.372 . S
Eu935 O974 2.462 . S
Eu935 O975 2.373 . S
Eu935 O977 2.432 . S
Eu935 O978 2.291 . S
Eu935 C999 2.787 . S
N936 C932 1.351 . S
N936 Eu935 2.562 . S
N936 C938 1.325 . S
C937 C931 1.404 . S
C937 C939 1.366 . S
C937 H945 0.930 1_655 S
C938 N936 1.325 . S
C938 C939 1.416 . S
C938 H944 0.929 . S
C939 C937 1.366 . S
C939 C938 1.416 . S
C939 H941 0.930 . S
H940 C929 0.930 . S
H941 C939 0.930 . S
H942 C957 0.930 . S
H943 C964 0.930 . S
H944 C938 0.929 . S
H945 C937 0.930 1_455 S
H946 C960 0.929 . S
H947 C927 0.931 1_554 S
H948 C933 0.948 . S
H949 C934 0.931 1_455 S
H950 C955 0.931 . S
H951 C930 0.929 . S
H952 C963 0.930 . S
N953 Eu924 2.600 . S
N953 C954 1.365 . S
N953 C957 1.319 . S
C954 N953 1.365 . S
C954 C956 1.405 . S
C954 C962 1.448 . S
C955 H950 0.931 . S
C955 C957 1.397 . S
C955 C958 1.367 . S
C956 C954 1.405 . S
C956 C958 1.403 . S
C956 C989 1.439 . S
C957 H942 0.930 . S
C957 N953 1.319 . S
C957 C955 1.397 . S
C958 C955 1.367 . S
C958 C956 1.403 . S
C958 H965 0.929 . S
N959 Eu924 2.562 . S
N959 C960 1.325 . S
N959 C962 1.351 . S
C960 H946 0.929 . S
C960 N959 1.325 . S
C960 C964 1.416 1_545 S
C961 C962 1.430 1_565 S
C961 C963 1.405 . S
C961 C990 1.387 . S
C962 C954 1.448 . S
C962 N959 1.351 . S
C962 C961 1.430 1_545 S
C963 H952 0.930 . S
C963 C961 1.405 . S
C963 C964 1.366 . S
C964 H943 0.930 . S
C964 C960 1.416 1_565 S
C964 C963 1.366 . S
H965 C958 0.929 . S
H966 C989 0.931 1_565 S
H967 C990 0.931 . S
O968 Eu924 2.462 . S
O968 C988 1.252 . S
O969 Eu924 2.373 . S
O969 C980 1.249 . S
O970 Eu935 2.335 . S
O970 C980 1.264 . S
O971 Eu924 2.432 . S
O971 C988 1.268 . S
O972 Eu924 2.291 . S
O972 C987 1.255 . S
O973 Eu935 2.372 . S
O973 C987 1.257 . S
O974 Eu935 2.462 . S
O974 C999 1.252 . S
O975 Eu935 2.373 . S
O975 C991 1.249 . S
O976 Eu924 2.335 . S
O976 C991 1.264 . S
O977 Eu935 2.432 . S
O977 C999 1.268 . S
O978 Eu935 2.291 . S
O978 C998 1.255 . S
O979 Eu924 2.372 . S
O979 C998 1.257 . S
C980 O969 1.249 . S
C980 O970 1.264 . S
C981 C984 1.382 . S
C981 C986 1.390 . S
C981 C988 1.506 1_565 S
C982 C983 1.398 . S
C982 C986 1.392 . S
C983 C982 1.398 . S
C983 C985 1.372 . S
C983 H1000 0.931 . S
C984 C981 1.382 . S
C984 C985 1.390 . S
C984 H1001 0.931 . S
C985 C983 1.372 . S
C985 C984 1.390 . S
C985 H1002 0.929 . S
C986 C981 1.390 . S
C986 C982 1.392 . S
C986 H1003 0.930 . S
C987 O972 1.255 . S
C987 O973 1.257 . S
C988 Eu924 2.787 . S
C988 O968 1.252 . S
C988 O971 1.268 . S
C988 C981 1.506 1_545 S
C989 C956 1.439 . S
C989 H966 0.931 1_545 S
C989 C990 1.374 1_545 S
C990 C961 1.387 . S
C990 H967 0.931 . S
C990 C989 1.374 1_565 S
C991 O975 1.249 . S
C991 O976 1.264 . S
C992 C995 1.382 . S
C992 C996 1.390 . S
C992 C999 1.506 . S
C993 C994 1.398 . S
C993 C996 1.392 . S
C994 C993 1.398 . S
C994 C997 1.372 . S
C994 H1004 0.931 . S
C995 C992 1.382 . S
C995 C997 1.390 . S
C995 H1005 0.931 . S
C996 C992 1.390 . S
C996 C993 1.392 . S
C996 H1006 0.930 . S
C997 C994 1.372 . S
C997 C995 1.390 . S
C997 H1007 0.929 . S
C998 O978 1.255 . S
C998 O979 1.257 . S
C999 Eu935 2.787 . S
C999 O974 1.252 . S
C999 O977 1.268 . S
C999 C992 1.506 . S
H1000 C983 0.931 . S
H1001 C984 0.931 . S
H1002 C985 0.929 . S
H1003 C986 0.930 . S
H1004 C994 0.931 . S
H1005 C995 0.931 . S
H1006 C996 0.930 . S
H1007 C997 0.929 . S
H1008 C1020 0.930 . S
H1009 C1022 0.930 . S
H1010 C1023 0.930 . S
H1011 C1027 0.959 1_565 S
H1012 C1027 0.959 . S
H1013 C1027 0.961 1_565 S
H1014 C1028 0.965 . S
H1015 C1028 0.961 . S
H1016 C1028 0.959 . S
H1017 C1031 0.929 . S
H1018 C1032 0.931 . S
H1019 C1034 0.930 . S
C1020 H1008 0.930 . S
C1020 C1021 1.399 . S
C1020 C1025 1.399 . S
C1021 C1020 1.399 . S
C1021 C1022 1.376 . S
C1022 H1009 0.930 . S
C1022 C1021 1.376 . S
C1022 C1023 1.388 . S
C1023 H1010 0.930 . S
C1023 C1022 1.388 . S
C1023 C1024 1.390 . S
C1024 C1023 1.390 . S
C1024 C1025 1.394 . S
C1024 C1030 1.465 1_565 S
C1025 C1020 1.399 . S
C1025 C1024 1.394 . S
C1025 C1026 1.516 1_565 S
C1026 C1025 1.516 1_545 S
C1026 C1027 1.502 . S
C1026 C1028 1.561 . S
C1026 C1029 1.526 . S
C1027 H1011 0.959 1_545 S
C1027 H1012 0.959 . S
C1027 H1013 0.961 1_545 S
C1027 C1026 1.502 . S
C1028 H1014 0.965 . S
C1028 H1015 0.961 . S
C1028 H1016 0.959 . S
C1028 C1026 1.561 . S
C1029 C1026 1.526 . S
C1029 C1030 1.396 . S
C1029 C1034 1.390 . S
C1030 C1024 1.465 1_545 S
C1030 C1029 1.396 . S
C1030 C1031 1.399 . S
C1031 H1017 0.929 . S
C1031 C1030 1.399 . S
C1031 C1032 1.385 . S
C1032 H1018 0.931 . S
C1032 C1031 1.385 . S
C1032 C1033 1.389 . S
C1033 C1032 1.389 . S
C1033 C1034 1.387 . S
C1034 H1019 0.930 . S
C1034 C1029 1.390 . S
C1034 C1033 1.387 . S
H1035 C1047 0.930 . S
H1036 C1049 0.930 . S
H1037 C1050 0.930 . S
H1038 C1054 0.959 . S
H1039 C1054 0.959 . S
H1040 C1054 0.961 . S
H1041 C1055 0.960 . S
H1042 C1055 0.961 . S
H1043 C1055 0.959 . S
H1044 C1058 0.929 . S
H1045 C1059 0.931 . S
H1046 C1061 0.930 . S
C1047 H1035 0.930 . S
C1047 C1048 1.399 . S
C1047 C1052 1.399 . S
C1048 C1047 1.399 . S
C1048 C1049 1.376 . S
C1049 H1036 0.930 . S
C1049 C1048 1.376 . S
C1049 C1050 1.388 . S
C1050 H1037 0.930 . S
C1050 C1049 1.388 . S
C1050 C1051 1.390 . S
C1051 C1050 1.390 . S
C1051 C1052 1.394 . S
C1051 C1057 1.465 . S
C1052 C1047 1.399 . S
C1052 C1051 1.394 . S
C1052 C1053 1.516 . S
C1053 C1052 1.516 . S
C1053 C1054 1.502 . S
C1053 C1055 1.561 . S
C1053 C1056 1.526 . S
C1054 H1038 0.959 . S
C1054 H1039 0.959 . S
C1054 H1040 0.961 . S
C1054 C1053 1.502 . S
C1055 H1041 0.960 . S
C1055 H1042 0.961 . S
C1055 H1043 0.959 . S
C1055 C1053 1.561 . S
C1056 C1053 1.526 . S
C1056 C1057 1.396 . S
C1056 C1061 1.390 . S
C1057 C1051 1.465 . S
C1057 C1056 1.396 . S
C1057 C1058 1.399 . S
C1058 H1044 0.929 . S
C1058 C1057 1.399 . S
C1058 C1059 1.385 . S
C1059 H1045 0.931 . S
C1059 C1058 1.385 . S
C1059 C1060 1.389 . S
C1060 C1059 1.389 . S
C1060 C1061 1.387 . S
C1061 H1046 0.930 . S
C1061 C1056 1.390 . S
C1061 C1060 1.387 . S
H1062 C1074 0.930 . S
H1063 C1076 0.930 . S
H1064 C1077 0.930 . S
H1065 C1081 0.959 . S
H1066 C1081 0.959 . S
H1067 C1081 0.961 . S
H1068 C1082 0.960 . S
H1069 C1082 0.961 1_455 S
H1070 C1082 0.959 1_455 S
H1071 C1085 0.929 . S
H1072 C1086 0.931 . S
H1073 C1088 0.930 . S
C1074 H1062 0.930 . S
C1074 C1075 1.399 . S
C1074 C1079 1.399 . S
C1075 C1074 1.399 . S
C1075 C1076 1.376 . S
C1076 H1063 0.930 . S
C1076 C1075 1.376 . S
C1076 C1077 1.388 . S
C1077 H1064 0.930 . S
C1077 C1076 1.388 . S
C1077 C1078 1.390 . S
C1078 C1077 1.390 . S
C1078 C1079 1.394 . S
C1078 C1084 1.465 1_655 S
C1079 C1074 1.399 . S
C1079 C1078 1.394 . S
C1079 C1080 1.516 . S
C1080 C1079 1.516 . S
C1080 C1081 1.502 . S
C1080 C1082 1.561 . S
C1080 C1083 1.526 1_655 S
C1081 H1065 0.959 . S
C1081 H1066 0.959 . S
C1081 H1067 0.961 . S
C1081 C1080 1.502 . S
C1082 H1068 0.960 . S
C1082 H1069 0.961 1_655 S
C1082 H1070 0.959 1_655 S
C1082 C1080 1.561 . S
C1083 C1080 1.526 1_455 S
C1083 C1084 1.396 . S
C1083 C1088 1.390 . S
C1084 C1078 1.465 1_455 S
C1084 C1083 1.396 . S
C1084 C1085 1.399 . S
C1085 H1071 0.929 . S
C1085 C1084 1.399 . S
C1085 C1086 1.385 . S
C1086 H1072 0.931 . S
C1086 C1085 1.385 . S
C1086 C1087 1.389 . S
C1087 C1086 1.389 . S
C1087 C1088 1.387 . S
C1088 H1073 0.930 . S
C1088 C1083 1.390 . S
C1088 C1087 1.387 . S
H1089 C1101 0.930 . S
H1090 C1103 0.930 . S
H1091 C1104 0.930 . S
H1092 C1108 0.959 . S
H1093 C1108 0.959 . S
H1094 C1108 0.961 . S
H1095 C1109 0.960 . S
H1096 C1109 0.943 1_545 S
H1097 C1109 0.959 . S
H1098 C1112 0.929 . S
H1099 C1113 0.931 . S
H1100 C1115 0.930 . S
C1101 H1089 0.930 . S
C1101 C1102 1.399 . S
C1101 C1106 1.399 . S
C1102 C1101 1.399 . S
C1102 C1103 1.376 . S
C1103 H1090 0.930 . S
C1103 C1102 1.376 . S
C1103 C1104 1.388 . S
C1104 H1091 0.930 . S
C1104 C1103 1.388 . S
C1104 C1105 1.390 . S
C1105 C1104 1.390 . S
C1105 C1106 1.394 . S
C1105 C1111 1.465 1_565 S
C1106 C1101 1.399 . S
C1106 C1105 1.394 . S
C1106 C1107 1.516 . S
C1107 C1106 1.516 . S
C1107 C1108 1.502 . S
C1107 C1109 1.561 . S
C1107 C1110 1.526 1_565 S
C1108 H1092 0.959 . S
C1108 H1093 0.959 . S
C1108 H1094 0.961 . S
C1108 C1107 1.502 . S
C1109 H1095 0.960 . S
C1109 H1096 0.943 1_565 S
C1109 H1097 0.959 . S
C1109 C1107 1.561 . S
C1110 C1107 1.526 1_545 S
C1110 C1111 1.396 . S
C1110 C1115 1.390 . S
C1111 C1105 1.465 1_545 S
C1111 C1110 1.396 . S
C1111 C1112 1.399 . S
C1112 H1098 0.929 . S
C1112 C1111 1.399 . S
C1112 C1113 1.385 . S
C1113 H1099 0.931 . S
C1113 C1112 1.385 . S
C1113 C1114 1.389 . S
C1114 C1113 1.389 . S
C1114 C1115 1.387 . S
C1115 H1100 0.930 . S
C1115 C1110 1.390 . S
C1115 C1114 1.387 . S
H1116 C1128 0.930 . S
H1117 C1130 0.930 . S
H1118 C1131 0.930 . S
H1119 C1135 0.959 . S
H1120 C1135 0.959 . S
H1121 C1135 0.961 . S
H1122 C1136 0.960 . S
H1123 C1136 0.961 . S
H1124 C1136 0.959 . S
H1125 C1139 0.929 . S
H1126 C1140 0.931 . S
H1127 C1142 0.930 . S
C1128 H1116 0.930 . S
C1128 C1129 1.399 . S
C1128 C1133 1.399 . S
C1129 C1128 1.399 . S
C1129 C1130 1.376 . S
C1130 H1117 0.930 . S
C1130 C1129 1.376 . S
C1130 C1131 1.388 . S
C1131 H1118 0.930 . S
C1131 C1130 1.388 . S
C1131 C1132 1.390 . S
C1132 C1131 1.390 . S
C1132 C1133 1.394 . S
C1132 C1138 1.465 . S
C1133 C1128 1.399 . S
C1133 C1132 1.394 . S
C1133 C1134 1.516 . S
C1134 C1133 1.516 . S
C1134 C1135 1.502 . S
C1134 C1136 1.561 . S
C1134 C1137 1.526 . S
C1135 H1119 0.959 . S
C1135 H1120 0.959 . S
C1135 H1121 0.961 . S
C1135 C1134 1.502 . S
C1136 H1122 0.960 . S
C1136 H1123 0.961 . S
C1136 H1124 0.959 . S
C1136 C1134 1.561 . S
C1137 C1134 1.526 . S
C1137 C1138 1.396 . S
C1137 C1142 1.390 . S
C1138 C1132 1.465 . S
C1138 C1137 1.396 . S
C1138 C1139 1.399 . S
C1139 H1125 0.929 . S
C1139 C1138 1.399 . S
C1139 C1140 1.385 . S
C1140 H1126 0.931 . S
C1140 C1139 1.385 . S
C1140 C1141 1.389 . S
C1141 C1140 1.389 . S
C1141 C1142 1.387 . S
C1142 H1127 0.930 . S
C1142 C1137 1.390 . S
C1142 C1141 1.387 . S
H1143 C1155 0.930 . S
H1144 C1157 0.930 . S
H1145 C1158 0.930 . S
H1146 C1162 0.959 . S
H1147 C1162 0.959 . S
H1148 C1162 0.961 1_655 S
H1149 C1163 0.960 . S
H1150 C1163 0.961 . S
H1151 C1163 0.959 . S
H1152 C1166 0.929 . S
H1153 C1167 0.931 . S
H1154 C1169 0.930 . S
C1155 H1143 0.930 . S
C1155 C1156 1.399 . S
C1155 C1160 1.399 . S
C1156 C1155 1.399 . S
C1156 C1157 1.376 . S
C1157 H1144 0.930 . S
C1157 C1156 1.376 . S
C1157 C1158 1.388 . S
C1158 H1145 0.930 . S
C1158 C1157 1.388 . S
C1158 C1159 1.390 . S
C1159 C1158 1.390 . S
C1159 C1160 1.394 . S
C1159 C1165 1.465 1_655 S
C1160 C1155 1.399 . S
C1160 C1159 1.394 . S
C1160 C1161 1.516 1_655 S
C1161 C1160 1.516 1_455 S
C1161 C1162 1.502 . S
C1161 C1163 1.561 . S
C1161 C1164 1.526 . S
C1162 H1146 0.959 . S
C1162 H1147 0.959 . S
C1162 H1148 0.961 1_455 S
C1162 C1161 1.502 . S
C1163 H1149 0.960 . S
C1163 H1150 0.961 . S
C1163 H1151 0.959 . S
C1163 C1161 1.561 . S
C1164 C1161 1.526 . S
C1164 C1165 1.396 . S
C1164 C1169 1.390 . S
C1165 C1159 1.465 1_455 S
C1165 C1164 1.396 . S
C1165 C1166 1.399 . S
C1166 H1152 0.929 . S
C1166 C1165 1.399 . S
C1166 C1167 1.385 . S
C1167 H1153 0.931 . S
C1167 C1166 1.385 . S
C1167 C1168 1.389 . S
C1168 C1167 1.389 . S
C1168 C1169 1.387 . S
C1169 H1154 0.930 . S
C1169 C1164 1.390 . S
C1169 C1168 1.387 . S
H1170 C1182 0.930 . S
H1171 C1184 0.930 . S
H1172 C1185 0.930 . S
H1173 C1189 0.959 . S
H1174 C1189 0.959 . S
H1175 C1189 0.961 1_455 S
H1176 C1190 0.960 . S
H1177 C1190 0.961 1_655 S
H1178 C1190 0.959 . S
H1179 C1193 0.929 . S
H1180 C1194 0.931 . S
H1181 C1196 0.930 . S
C1182 H1170 0.930 . S
C1182 C1183 1.399 . S
C1182 C1187 1.399 . S
C1183 C1182 1.399 . S
C1183 C1184 1.376 . S
C1184 H1171 0.930 . S
C1184 C1183 1.376 . S
C1184 C1185 1.388 . S
C1185 H1172 0.930 . S
C1185 C1184 1.388 . S
C1185 C1186 1.390 . S
C1186 C1185 1.390 . S
C1186 C1187 1.394 . S
C1186 C1192 1.465 1_455 S
C1187 C1182 1.399 . S
C1187 C1186 1.394 . S
C1187 C1188 1.516 1_455 S
C1188 C1187 1.516 1_655 S
C1188 C1189 1.502 . S
C1188 C1190 1.561 1_655 S
C1188 C1191 1.526 . S
C1189 H1173 0.959 . S
C1189 H1174 0.959 . S
C1189 H1175 0.961 1_655 S
C1189 C1188 1.502 . S
C1190 H1176 0.960 . S
C1190 H1177 0.961 1_455 S
C1190 H1178 0.959 . S
C1190 C1188 1.561 1_455 S
C1191 C1188 1.526 . S
C1191 C1192 1.396 . S
C1191 C1196 1.390 . S
C1192 C1186 1.465 1_655 S
C1192 C1191 1.396 . S
C1192 C1193 1.399 . S
C1193 H1179 0.929 . S
C1193 C1192 1.399 . S
C1193 C1194 1.385 . S
C1194 H1180 0.931 . S
C1194 C1193 1.385 . S
C1194 C1195 1.389 . S
C1195 C1194 1.389 . S
C1195 C1196 1.387 . S
C1196 H1181 0.930 . S
C1196 C1191 1.390 . S
C1196 C1195 1.387 . S
H1197 C1209 0.930 . S
H1198 C1211 0.930 . S
H1199 C1212 0.930 . S
H1200 C1216 0.959 . S
H1201 C1216 0.959 . S
H1202 C1216 0.961 1_565 S
H1203 C1217 0.960 . S
H1204 C1217 0.961 1_545 S
H1205 C1217 0.959 . S
H1206 C1220 0.929 . S
H1207 C1221 0.931 . S
H1208 C1223 0.930 . S
C1209 H1197 0.930 . S
C1209 C1210 1.399 . S
C1209 C1214 1.399 . S
C1210 C1209 1.399 . S
C1210 C1211 1.376 . S
C1211 H1198 0.930 . S
C1211 C1210 1.376 . S
C1211 C1212 1.388 . S
C1212 H1199 0.930 . S
C1212 C1211 1.388 . S
C1212 C1213 1.390 . S
C1213 C1212 1.390 . S
C1213 C1214 1.394 . S
C1213 C1219 1.465 1_565 S
C1214 C1209 1.399 . S
C1214 C1213 1.394 . S
C1214 C1215 1.516 . S
C1215 C1214 1.516 . S
C1215 C1216 1.502 1_565 S
C1215 C1217 1.561 . S
C1215 C1218 1.526 1_565 S
C1216 H1200 0.959 . S
C1216 H1201 0.959 . S
C1216 H1202 0.961 1_545 S
C1216 C1215 1.502 1_545 S
C1217 H1203 0.960 . S
C1217 H1204 0.961 1_565 S
C1217 H1205 0.959 . S
C1217 C1215 1.561 . S
C1218 C1215 1.526 1_545 S
C1218 C1219 1.396 . S
C1218 C1223 1.390 . S
C1219 C1213 1.465 1_545 S
C1219 C1218 1.396 . S
C1219 C1220 1.399 . S
C1220 H1206 0.929 . S
C1220 C1219 1.399 . S
C1220 C1221 1.385 . S
C1221 H1207 0.931 . S
C1221 C1220 1.385 . S
C1221 C1222 1.389 . S
C1222 C1221 1.389 . S
C1222 C1223 1.387 . S
C1223 H1208 0.930 . S
C1223 C1218 1.390 . S
C1223 C1222 1.387 . S
H1224 C1236 0.930 . S
H1225 C1238 0.930 . S
H1226 C1239 0.930 . S
H1227 C1243 0.959 . S
H1228 C1243 0.959 . S
H1229 C1243 0.961 . S
H1230 C1244 0.960 . S
H1231 C1244 0.961 . S
H1232 C1244 0.959 . S
H1233 C1247 0.929 . S
H1234 C1248 0.931 . S
H1235 C1250 0.930 . S
C1236 H1224 0.930 . S
C1236 C1237 1.399 . S
C1236 C1241 1.399 . S
C1237 C1236 1.399 . S
C1237 C1238 1.376 . S
C1238 H1225 0.930 . S
C1238 C1237 1.376 . S
C1238 C1239 1.388 . S
C1239 H1226 0.930 . S
C1239 C1238 1.388 . S
C1239 C1240 1.390 . S
C1240 C1239 1.390 . S
C1240 C1241 1.394 . S
C1240 C1246 1.465 . S
C1241 C1236 1.399 . S
C1241 C1240 1.394 . S
C1241 C1242 1.516 . S
C1242 C1241 1.516 . S
C1242 C1243 1.502 . S
C1242 C1244 1.561 . S
C1242 C1245 1.526 . S
C1243 H1227 0.959 . S
C1243 H1228 0.959 . S
C1243 H1229 0.961 . S
C1243 C1242 1.502 . S
C1244 H1230 0.960 . S
C1244 H1231 0.961 . S
C1244 H1232 0.959 . S
C1244 C1242 1.561 . S
C1245 C1242 1.526 . S
C1245 C1246 1.396 . S
C1245 C1250 1.390 . S
C1246 C1240 1.465 . S
C1246 C1245 1.396 . S
C1246 C1247 1.399 . S
C1247 H1233 0.929 . S
C1247 C1246 1.399 . S
C1247 C1248 1.385 . S
C1248 H1234 0.931 . S
C1248 C1247 1.385 . S
C1248 C1249 1.389 . S
C1249 C1248 1.389 . S
C1249 C1250 1.387 . S
C1250 H1235 0.930 . S
C1250 C1245 1.390 . S
C1250 C1249 1.387 . S
H1251 C1263 0.930 . S
H1252 C1265 0.930 . S
H1253 C1266 0.930 . S
H1254 C1270 0.959 . S
H1255 C1270 0.959 . S
H1256 C1270 0.961 1_455 S
H1257 C1271 0.960 . S
H1258 C1271 0.961 1_655 S
H1259 C1271 0.959 . S
H1260 C1274 0.929 . S
H1261 C1275 0.931 . S
H1262 C1277 0.930 . S
C1263 H1251 0.930 . S
C1263 C1264 1.399 . S
C1263 C1268 1.399 . S
C1264 C1263 1.399 . S
C1264 C1265 1.376 . S
C1265 H1252 0.930 . S
C1265 C1264 1.376 . S
C1265 C1266 1.388 . S
C1266 H1253 0.930 . S
C1266 C1265 1.388 . S
C1266 C1267 1.390 . S
C1267 C1266 1.390 . S
C1267 C1268 1.394 . S
C1267 C1273 1.465 1_455 S
C1268 C1263 1.399 . S
C1268 C1267 1.394 . S
C1268 C1269 1.516 . S
C1269 C1268 1.516 . S
C1269 C1270 1.502 1_455 S
C1269 C1271 1.561 . S
C1269 C1272 1.526 1_455 S
C1270 H1254 0.959 . S
C1270 H1255 0.959 . S
C1270 H1256 0.961 1_655 S
C1270 C1269 1.502 1_655 S
C1271 H1257 0.960 . S
C1271 H1258 0.961 1_455 S
C1271 H1259 0.959 . S
C1271 C1269 1.561 . S
C1272 C1269 1.526 1_655 S
C1272 C1273 1.396 . S
C1272 C1277 1.390 . S
C1273 C1267 1.465 1_655 S
C1273 C1272 1.396 . S
C1273 C1274 1.399 . S
C1274 H1260 0.929 . S
C1274 C1273 1.399 . S
C1274 C1275 1.385 . S
C1275 H1261 0.931 . S
C1275 C1274 1.385 . S
C1275 C1276 1.389 . S
C1276 C1275 1.389 . S
C1276 C1277 1.387 . S
C1277 H1262 0.930 . S
C1277 C1272 1.390 . S
C1277 C1276 1.387 . S
H1278 C1290 0.930 . S
H1279 C1292 0.930 . S
H1280 C1293 0.930 . S
H1281 C1297 0.959 . S
H1282 C1297 0.959 . S
H1283 C1297 0.961 . S
H1284 C1298 0.960 . S
H1285 C1298 0.961 1_565 S
H1286 C1298 0.959 1_565 S
H1287 C1301 0.929 . S
H1288 C1302 0.931 . S
H1289 C1304 0.930 . S
C1290 H1278 0.930 . S
C1290 C1291 1.399 . S
C1290 C1295 1.399 . S
C1291 C1290 1.399 . S
C1291 C1292 1.376 . S
C1292 H1279 0.930 . S
C1292 C1291 1.376 . S
C1292 C1293 1.388 . S
C1293 H1280 0.930 . S
C1293 C1292 1.388 . S
C1293 C1294 1.390 . S
C1294 C1293 1.390 . S
C1294 C1295 1.394 . S
C1294 C1300 1.465 1_545 S
C1295 C1290 1.399 . S
C1295 C1294 1.394 . S
C1295 C1296 1.516 . S
C1296 C1295 1.516 . S
C1296 C1297 1.502 . S
C1296 C1298 1.561 . S
C1296 C1299 1.526 1_545 S
C1297 H1281 0.959 . S
C1297 H1282 0.959 . S
C1297 H1283 0.961 . S
C1297 C1296 1.502 . S
C1298 H1284 0.960 . S
C1298 H1285 0.961 1_545 S
C1298 H1286 0.959 1_545 S
C1298 C1296 1.561 . S
C1299 C1296 1.526 1_565 S
C1299 C1300 1.396 . S
C1299 C1304 1.390 . S
C1300 C1294 1.465 1_565 S
C1300 C1299 1.396 . S
C1300 C1301 1.399 . S
C1301 H1287 0.929 . S
C1301 C1300 1.399 . S
C1301 C1302 1.385 . S
C1302 H1288 0.931 . S
C1302 C1301 1.385 . S
C1302 C1303 1.389 . S
C1303 C1302 1.389 . S
C1303 C1304 1.387 . S
C1304 H1289 0.930 . S
C1304 C1299 1.390 . S
C1304 C1303 1.387 . S
H1305 C1317 0.930 . S
H1306 C1319 0.930 . S
H1307 C1320 0.930 . S
H1308 C1324 0.959 . S
H1309 C1324 0.959 . S
H1310 C1324 0.961 . S
H1311 C1325 0.960 . S
H1312 C1325 0.961 . S
H1313 C1325 0.959 . S
H1314 C1328 0.929 . S
H1315 C1329 0.931 . S
H1316 C1331 0.930 . S
C1317 H1305 0.930 . S
C1317 C1318 1.399 . S
C1317 C1322 1.399 . S
C1318 C1317 1.399 . S
C1318 C1319 1.376 . S
C1319 H1306 0.930 . S
C1319 C1318 1.376 . S
C1319 C1320 1.388 . S
C1320 H1307 0.930 . S
C1320 C1319 1.388 . S
C1320 C1321 1.390 . S
C1321 C1320 1.390 . S
C1321 C1322 1.394 . S
C1321 C1327 1.465 . S
C1322 C1317 1.399 . S
C1322 C1321 1.394 . S
C1322 C1323 1.516 . S
C1323 C1322 1.516 . S
C1323 C1324 1.502 . S
C1323 C1325 1.561 . S
C1323 C1326 1.526 . S
C1324 H1308 0.959 . S
C1324 H1309 0.959 . S
C1324 H1310 0.961 . S
C1324 C1323 1.502 . S
C1325 H1311 0.960 . S
C1325 H1312 0.961 . S
C1325 H1313 0.959 . S
C1325 C1323 1.561 . S
C1326 C1323 1.526 . S
C1326 C1327 1.396 . S
C1326 C1331 1.390 . S
C1327 C1321 1.465 . S
C1327 C1326 1.396 . S
C1327 C1328 1.399 . S
C1328 H1314 0.929 . S
C1328 C1327 1.399 . S
C1328 C1329 1.385 . S
C1329 H1315 0.931 . S
C1329 C1328 1.385 . S
C1329 C1330 1.389 . S
C1330 C1329 1.389 . S
C1330 C1331 1.387 . S
C1331 H1316 0.930 . S
C1331 C1326 1.390 . S
C1331 C1330 1.387 . S
H1332 C1344 0.930 . S
H1333 C1346 0.930 . S
H1334 C1347 0.930 . S
H1335 C1351 0.959 . S
H1336 C1351 0.959 . S
H1337 C1351 0.961 . S
H1338 C1352 0.960 . S
H1339 C1352 0.961 . S
H1340 C1352 0.959 . S
H1341 C1355 0.929 . S
H1342 C1356 0.931 . S
H1343 C1358 0.930 . S
C1344 H1332 0.930 . S
C1344 C1345 1.399 . S
C1344 C1349 1.399 . S
C1345 C1344 1.399 . S
C1345 C1346 1.376 . S
C1346 H1333 0.930 . S
C1346 C1345 1.376 . S
C1346 C1347 1.388 . S
C1347 H1334 0.930 . S
C1347 C1346 1.388 . S
C1347 C1348 1.390 . S
C1348 C1347 1.390 . S
C1348 C1349 1.394 . S
C1348 C1354 1.465 . S
C1349 C1344 1.399 . S
C1349 C1348 1.394 . S
C1349 C1350 1.516 . S
C1350 C1349 1.516 . S
C1350 C1351 1.502 . S
C1350 C1352 1.561 . S
C1350 C1353 1.526 . S
C1351 H1335 0.959 . S
C1351 H1336 0.959 . S
C1351 H1337 0.961 . S
C1351 C1350 1.502 . S
C1352 H1338 0.960 . S
C1352 H1339 0.961 . S
C1352 H1340 0.959 . S
C1352 C1350 1.561 . S
C1353 C1350 1.526 . S
C1353 C1354 1.396 . S
C1353 C1358 1.390 . S
C1354 C1348 1.465 . S
C1354 C1353 1.396 . S
C1354 C1355 1.399 . S
C1355 H1341 0.929 . S
C1355 C1354 1.399 . S
C1355 C1356 1.385 . S
C1356 H1342 0.931 . S
C1356 C1355 1.385 . S
C1356 C1357 1.389 . S
C1357 C1356 1.389 . S
C1357 C1358 1.387 . S
C1358 H1343 0.930 . S
C1358 C1353 1.390 . S
C1358 C1357 1.387 . S
H1359 C1371 0.930 . S
H1360 C1373 0.930 . S
H1361 C1374 0.930 . S
H1362 C1378 0.959 . S
H1363 C1378 0.959 . S
H1364 C1378 0.961 . S
H1365 C1379 0.960 . S
H1366 C1379 0.961 . S
H1367 C1379 0.959 . S
H1368 C1382 0.929 . S
H1369 C1383 0.931 . S
H1370 C1385 0.930 . S
C1371 H1359 0.930 . S
C1371 C1372 1.399 . S
C1371 C1376 1.399 . S
C1372 C1371 1.399 . S
C1372 C1373 1.376 . S
C1373 H1360 0.930 . S
C1373 C1372 1.376 . S
C1373 C1374 1.388 . S
C1374 H1361 0.930 . S
C1374 C1373 1.388 . S
C1374 C1375 1.390 . S
C1375 C1374 1.390 . S
C1375 C1376 1.394 . S
C1375 C1381 1.465 . S
C1376 C1371 1.399 . S
C1376 C1375 1.394 . S
C1376 C1377 1.516 . S
C1377 C1376 1.516 . S
C1377 C1378 1.502 . S
C1377 C1379 1.561 . S
C1377 C1380 1.526 . S
C1378 H1362 0.959 . S
C1378 H1363 0.959 . S
C1378 H1364 0.961 . S
C1378 C1377 1.502 . S
C1379 H1365 0.960 . S
C1379 H1366 0.961 . S
C1379 H1367 0.959 . S
C1379 C1377 1.561 . S
C1380 C1377 1.526 . S
C1380 C1381 1.396 . S
C1380 C1385 1.390 . S
C1381 C1375 1.465 . S
C1381 C1380 1.396 . S
C1381 C1382 1.399 . S
C1382 H1368 0.929 . S
C1382 C1381 1.399 . S
C1382 C1383 1.385 . S
C1383 H1369 0.931 . S
C1383 C1382 1.385 . S
C1383 C1384 1.389 . S
C1384 C1383 1.389 . S
C1384 C1385 1.387 . S
C1385 H1370 0.930 . S
C1385 C1380 1.390 . S
C1385 C1384 1.387 . S
H1386 C1398 0.930 . S
H1387 C1400 0.930 . S
H1388 C1401 0.930 . S
H1389 C1405 0.959 . S
H1390 C1405 0.959 . S
H1391 C1405 0.961 . S
H1392 C1406 0.960 . S
H1393 C1406 0.961 . S
H1394 C1406 0.959 . S
H1395 C1409 0.929 . S
H1396 C1410 0.931 . S
H1397 C1412 0.930 . S
C1398 H1386 0.930 . S
C1398 C1399 1.399 . S
C1398 C1403 1.399 . S
C1399 C1398 1.399 . S
C1399 C1400 1.376 . S
C1400 H1387 0.930 . S
C1400 C1399 1.376 . S
C1400 C1401 1.388 . S
C1401 H1388 0.930 . S
C1401 C1400 1.388 . S
C1401 C1402 1.390 . S
C1402 C1401 1.390 . S
C1402 C1403 1.394 . S
C1402 C1408 1.465 . S
C1403 C1398 1.399 . S
C1403 C1402 1.394 . S
C1403 C1404 1.516 . S
C1404 C1403 1.516 . S
C1404 C1405 1.502 . S
C1404 C1406 1.561 . S
C1404 C1407 1.526 . S
C1405 H1389 0.959 . S
C1405 H1390 0.959 . S
C1405 H1391 0.961 . S
C1405 C1404 1.502 . S
C1406 H1392 0.960 . S
C1406 H1393 0.961 . S
C1406 H1394 0.959 . S
C1406 C1404 1.561 . S
C1407 C1404 1.526 . S
C1407 C1408 1.396 . S
C1407 C1412 1.390 . S
C1408 C1402 1.465 . S
C1408 C1407 1.396 . S
C1408 C1409 1.399 . S
C1409 H1395 0.929 . S
C1409 C1408 1.399 . S
C1409 C1410 1.385 . S
C1410 H1396 0.931 . S
C1410 C1409 1.385 . S
C1410 C1411 1.389 . S
C1411 C1410 1.389 . S
C1411 C1412 1.387 . S
C1412 H1397 0.930 . S
C1412 C1407 1.390 . S
C1412 C1411 1.387 . S
H1413 C1425 0.930 . S
H1414 C1427 0.930 . S
H1415 C1428 0.930 . S
H1416 C1432 0.959 . S
H1417 C1432 0.959 . S
H1418 C1432 0.961 . S
H1419 C1433 0.960 . S
H1420 C1433 0.961 . S
H1421 C1433 0.959 . S
H1422 C1436 0.929 . S
H1423 C1437 0.931 . S
H1424 C1439 0.930 . S
C1425 H1413 0.930 . S
C1425 C1426 1.399 . S
C1425 C1430 1.399 . S
C1426 C1425 1.399 . S
C1426 C1427 1.376 . S
C1427 H1414 0.930 . S
C1427 C1426 1.376 . S
C1427 C1428 1.388 . S
C1428 H1415 0.930 . S
C1428 C1427 1.388 . S
C1428 C1429 1.390 . S
C1429 C1428 1.390 . S
C1429 C1430 1.394 . S
C1429 C1435 1.465 . S
C1430 C1425 1.399 . S
C1430 C1429 1.394 . S
C1430 C1431 1.516 . S
C1431 C1430 1.516 . S
C1431 C1432 1.502 . S
C1431 C1433 1.561 . S
C1431 C1434 1.526 . S
C1432 H1416 0.959 . S
C1432 H1417 0.959 . S
C1432 H1418 0.961 . S
C1432 C1431 1.502 . S
C1433 H1419 0.960 . S
C1433 H1420 0.961 . S
C1433 H1421 0.959 . S
C1433 C1431 1.561 . S
C1434 C1431 1.526 . S
C1434 C1435 1.396 . S
C1434 C1439 1.390 . S
C1435 C1429 1.465 . S
C1435 C1434 1.396 . S
C1435 C1436 1.399 . S
C1436 H1422 0.929 . S
C1436 C1435 1.399 . S
C1436 C1437 1.385 . S
C1437 H1423 0.931 . S
C1437 C1436 1.385 . S
C1437 C1438 1.389 . S
C1438 C1437 1.389 . S
C1438 C1439 1.387 . S
C1439 H1424 0.930 . S
C1439 C1434 1.390 . S
C1439 C1438 1.387 . S
H1440 C1452 0.930 . S
H1441 C1454 0.930 . S
H1442 C1455 0.930 . S
H1443 C1459 0.959 . S
H1444 C1459 0.959 . S
H1445 C1459 0.961 . S
H1446 C1460 0.960 . S
H1447 C1460 0.961 . S
H1448 C1460 0.959 . S
H1449 C1463 0.929 . S
H1450 C1464 0.931 . S
H1451 C1466 0.930 . S
C1452 H1440 0.930 . S
C1452 C1453 1.399 . S
C1452 C1457 1.399 . S
C1453 C1452 1.399 . S
C1453 C1454 1.376 . S
C1454 H1441 0.930 . S
C1454 C1453 1.376 . S
C1454 C1455 1.388 . S
C1455 H1442 0.930 . S
C1455 C1454 1.388 . S
C1455 C1456 1.390 . S
C1456 C1455 1.390 . S
C1456 C1457 1.394 . S
C1456 C1462 1.465 . S
C1457 C1452 1.399 . S
C1457 C1456 1.394 . S
C1457 C1458 1.516 . S
C1458 C1457 1.516 . S
C1458 C1459 1.502 . S
C1458 C1460 1.561 . S
C1458 C1461 1.526 . S
C1459 H1443 0.959 . S
C1459 H1444 0.959 . S
C1459 H1445 0.961 . S
C1459 C1458 1.502 . S
C1460 H1446 0.960 . S
C1460 H1447 0.961 . S
C1460 H1448 0.959 . S
C1460 C1458 1.561 . S
C1461 C1458 1.526 . S
C1461 C1462 1.396 . S
C1461 C1466 1.390 . S
C1462 C1456 1.465 . S
C1462 C1461 1.396 . S
C1462 C1463 1.399 . S
C1463 H1449 0.929 . S
C1463 C1462 1.399 . S
C1463 C1464 1.385 . S
C1464 H1450 0.931 . S
C1464 C1463 1.385 . S
C1464 C1465 1.389 . S
C1465 C1464 1.389 . S
C1465 C1466 1.387 . S
C1466 H1451 0.930 . S
C1466 C1461 1.390 . S
C1466 C1465 1.387 . S
H1467 C1479 0.930 . S
H1468 C1481 0.930 . S
H1469 C1482 0.930 . S
H1470 C1486 0.959 . S
H1471 C1486 0.959 . S
H1472 C1486 0.961 . S
H1473 C1487 0.960 . S
H1474 C1487 0.961 . S
H1475 C1487 0.959 . S
H1476 C1490 0.929 . S
H1477 C1491 0.931 . S
H1478 C1493 0.930 . S
C1479 H1467 0.930 . S
C1479 C1480 1.399 . S
C1479 C1484 1.399 . S
C1480 C1479 1.399 . S
C1480 C1481 1.376 . S
C1481 H1468 0.930 . S
C1481 C1480 1.376 . S
C1481 C1482 1.388 . S
C1482 H1469 0.930 . S
C1482 C1481 1.388 . S
C1482 C1483 1.390 . S
C1483 C1482 1.390 . S
C1483 C1484 1.394 . S
C1483 C1489 1.465 . S
C1484 C1479 1.399 . S
C1484 C1483 1.394 . S
C1484 C1485 1.516 . S
C1485 C1484 1.516 . S
C1485 C1486 1.502 . S
C1485 C1487 1.561 . S
C1485 C1488 1.526 . S
C1486 H1470 0.959 . S
C1486 H1471 0.959 . S
C1486 H1472 0.961 . S
C1486 C1485 1.502 . S
C1487 H1473 0.960 . S
C1487 H1474 0.961 . S
C1487 H1475 0.959 . S
C1487 C1485 1.561 . S
C1488 C1485 1.526 . S
C1488 C1489 1.396 . S
C1488 C1493 1.390 . S
C1489 C1483 1.465 . S
C1489 C1488 1.396 . S
C1489 C1490 1.399 . S
C1490 H1476 0.929 . S
C1490 C1489 1.399 . S
C1490 C1491 1.385 . S
C1491 H1477 0.931 . S
C1491 C1490 1.385 . S
C1491 C1492 1.389 . S
C1492 C1491 1.389 . S
C1492 C1493 1.387 . S
C1493 H1478 0.930 . S
C1493 C1488 1.390 . S
C1493 C1492 1.387 . S
H1494 C1506 0.930 . S
H1495 C1508 0.930 . S
H1496 C1509 0.930 . S
H1497 C1513 0.959 . S
H1498 C1513 0.959 . S
H1499 C1513 0.961 . S
H1500 C1514 0.960 . S
H1501 C1514 0.961 . S
H1502 C1514 0.959 . S
H1503 C1517 0.929 . S
H1504 C1518 0.931 . S
H1505 C1520 0.930 . S
C1506 H1494 0.930 . S
C1506 C1507 1.399 . S
C1506 C1511 1.399 . S
C1507 C1506 1.399 . S
C1507 C1508 1.376 . S
C1508 H1495 0.930 . S
C1508 C1507 1.376 . S
C1508 C1509 1.388 . S
C1509 H1496 0.930 . S
C1509 C1508 1.388 . S
C1509 C1510 1.390 . S
C1510 C1509 1.390 . S
C1510 C1511 1.394 . S
C1510 C1516 1.465 . S
C1511 C1506 1.399 . S
C1511 C1510 1.394 . S
C1511 C1512 1.516 . S
C1512 C1511 1.516 . S
C1512 C1513 1.502 . S
C1512 C1514 1.561 . S
C1512 C1515 1.526 . S
C1513 H1497 0.959 . S
C1513 H1498 0.959 . S
C1513 H1499 0.961 . S
C1513 C1512 1.502 . S
C1514 H1500 0.960 . S
C1514 H1501 0.961 . S
C1514 H1502 0.959 . S
C1514 C1512 1.561 . S
C1515 C1512 1.526 . S
C1515 C1516 1.396 . S
C1515 C1520 1.390 . S
C1516 C1510 1.465 . S
C1516 C1515 1.396 . S
C1516 C1517 1.399 . S
C1517 H1503 0.929 . S
C1517 C1516 1.399 . S
C1517 C1518 1.385 . S
C1518 H1504 0.931 . S
C1518 C1517 1.385 . S
C1518 C1519 1.389 . S
C1519 C1518 1.389 . S
C1519 C1520 1.387 . S
C1520 H1505 0.930 . S
C1520 C1515 1.390 . S
C1520 C1519 1.387 . S
H1521 C1533 0.930 . S
H1522 C1535 0.930 . S
H1523 C1536 0.930 . S
H1524 C1540 0.959 . S
H1525 C1540 0.959 . S
H1526 C1540 0.961 . S
H1527 C1541 0.960 . S
H1528 C1541 0.961 . S
H1529 C1541 0.959 . S
H1530 C1544 0.929 . S
H1531 C1545 0.931 . S
H1532 C1547 0.930 . S
C1533 H1521 0.930 . S
C1533 C1534 1.399 . S
C1533 C1538 1.399 . S
C1534 C1533 1.399 . S
C1534 C1535 1.376 . S
C1535 H1522 0.930 . S
C1535 C1534 1.376 . S
C1535 C1536 1.388 . S
C1536 H1523 0.930 . S
C1536 C1535 1.388 . S
C1536 C1537 1.390 . S
C1537 C1536 1.390 . S
C1537 C1538 1.394 . S
C1537 C1543 1.465 . S
C1538 C1533 1.399 . S
C1538 C1537 1.394 . S
C1538 C1539 1.516 . S
C1539 C1538 1.516 . S
C1539 C1540 1.502 . S
C1539 C1541 1.561 . S
C1539 C1542 1.526 . S
C1540 H1524 0.959 . S
C1540 H1525 0.959 . S
C1540 H1526 0.961 . S
C1540 C1539 1.502 . S
C1541 H1527 0.960 . S
C1541 H1528 0.961 . S
C1541 H1529 0.959 . S
C1541 C1539 1.561 . S
C1542 C1539 1.526 . S
C1542 C1543 1.396 . S
C1542 C1547 1.390 . S
C1543 C1537 1.465 . S
C1543 C1542 1.396 . S
C1543 C1544 1.399 . S
C1544 H1530 0.929 . S
C1544 C1543 1.399 . S
C1544 C1545 1.385 . S
C1545 H1531 0.931 . S
C1545 C1544 1.385 . S
C1545 C1546 1.389 . S
C1546 C1545 1.389 . S
C1546 C1547 1.387 . S
C1547 H1532 0.930 . S
C1547 C1542 1.390 . S
C1547 C1546 1.387 . S
H1548 C1560 0.930 . S
H1549 C1562 0.930 . S
H1550 C1563 0.930 . S
H1551 C1567 0.959 . S
H1552 C1567 0.959 . S
H1553 C1567 0.961 . S
H1554 C1568 0.960 . S
H1555 C1568 0.961 . S
H1556 C1568 0.959 . S
H1557 C1571 0.929 . S
H1558 C1572 0.931 . S
H1559 C1574 0.930 . S
C1560 H1548 0.930 . S
C1560 C1561 1.399 . S
C1560 C1565 1.399 . S
C1561 C1560 1.399 . S
C1561 C1562 1.376 . S
C1562 H1549 0.930 . S
C1562 C1561 1.376 . S
C1562 C1563 1.388 . S
C1563 H1550 0.930 . S
C1563 C1562 1.388 . S
C1563 C1564 1.390 . S
C1564 C1563 1.390 . S
C1564 C1565 1.394 . S
C1564 C1570 1.465 . S
C1565 C1560 1.399 . S
C1565 C1564 1.394 . S
C1565 C1566 1.516 . S
C1566 C1565 1.516 . S
C1566 C1567 1.502 . S
C1566 C1568 1.561 . S
C1566 C1569 1.526 . S
C1567 H1551 0.959 . S
C1567 H1552 0.959 . S
C1567 H1553 0.961 . S
C1567 C1566 1.502 . S
C1568 H1554 0.960 . S
C1568 H1555 0.961 . S
C1568 H1556 0.959 . S
C1568 C1566 1.561 . S
C1569 C1566 1.526 . S
C1569 C1570 1.396 . S
C1569 C1574 1.390 . S
C1570 C1564 1.465 . S
C1570 C1569 1.396 . S
C1570 C1571 1.399 . S
C1571 H1557 0.929 . S
C1571 C1570 1.399 . S
C1571 C1572 1.385 . S
C1572 H1558 0.931 . S
C1572 C1571 1.385 . S
C1572 C1573 1.389 . S
C1573 C1572 1.389 . S
C1573 C1574 1.387 . S
C1574 H1559 0.930 . S
C1574 C1569 1.390 . S
C1574 C1573 1.387 . S
H1575 C1587 0.930 . S
H1576 C1589 0.930 . S
H1577 C1590 0.930 . S
H1578 C1594 0.959 . S
H1579 C1594 0.959 . S
H1580 C1594 0.961 . S
H1581 C1595 0.960 . S
H1582 C1595 0.961 . S
H1583 C1595 0.959 . S
H1584 C1598 0.929 . S
H1585 C1599 0.931 . S
H1586 C1601 0.930 . S
C1587 H1575 0.930 . S
C1587 C1588 1.399 . S
C1587 C1592 1.399 . S
C1588 C1587 1.399 . S
C1588 C1589 1.376 . S
C1589 H1576 0.930 . S
C1589 C1588 1.376 . S
C1589 C1590 1.388 . S
C1590 H1577 0.930 . S
C1590 C1589 1.388 . S
C1590 C1591 1.390 . S
C1591 C1590 1.390 . S
C1591 C1592 1.394 . S
C1591 C1597 1.465 . S
C1592 C1587 1.399 . S
C1592 C1591 1.394 . S
C1592 C1593 1.516 . S
C1593 C1592 1.516 . S
C1593 C1594 1.502 . S
C1593 C1595 1.561 . S
C1593 C1596 1.526 . S
C1594 H1578 0.959 . S
C1594 H1579 0.959 . S
C1594 H1580 0.961 . S
C1594 C1593 1.502 . S
C1595 H1581 0.960 . S
C1595 H1582 0.961 . S
C1595 H1583 0.959 . S
C1595 C1593 1.561 . S
C1596 C1593 1.526 . S
C1596 C1597 1.396 . S
C1596 C1601 1.390 . S
C1597 C1591 1.465 . S
C1597 C1596 1.396 . S
C1597 C1598 1.399 . S
C1598 H1584 0.929 . S
C1598 C1597 1.399 . S
C1598 C1599 1.385 . S
C1599 H1585 0.931 . S
C1599 C1598 1.385 . S
C1599 C1600 1.389 . S
C1600 C1599 1.389 . S
C1600 C1601 1.387 . S
C1601 H1586 0.930 . S
C1601 C1596 1.390 . S
C1601 C1600 1.387 . S
H1602 C1614 0.930 . S
H1603 C1616 0.930 . S
H1604 C1617 0.930 . S
H1605 C1621 0.959 . S
H1606 C1621 0.959 . S
H1607 C1621 0.961 . S
H1608 C1622 0.960 . S
H1609 C1622 0.961 . S
H1610 C1622 0.959 . S
H1611 C1625 0.929 . S
H1612 C1626 0.931 . S
H1613 C1628 0.930 . S
C1614 H1602 0.930 . S
C1614 C1615 1.399 . S
C1614 C1619 1.399 . S
C1615 C1614 1.399 . S
C1615 C1616 1.376 . S
C1616 H1603 0.930 . S
C1616 C1615 1.376 . S
C1616 C1617 1.388 . S
C1617 H1604 0.930 . S
C1617 C1616 1.388 . S
C1617 C1618 1.390 . S
C1618 C1617 1.390 . S
C1618 C1619 1.394 . S
C1618 C1624 1.465 . S
C1619 C1614 1.399 . S
C1619 C1618 1.394 . S
C1619 C1620 1.516 . S
C1620 C1619 1.516 . S
C1620 C1621 1.502 . S
C1620 C1622 1.561 . S
C1620 C1623 1.526 . S
C1621 H1605 0.959 . S
C1621 H1606 0.959 . S
C1621 H1607 0.961 . S
C1621 C1620 1.502 . S
C1622 H1608 0.960 . S
C1622 H1609 0.961 . S
C1622 H1610 0.959 . S
C1622 C1620 1.561 . S
C1623 C1620 1.526 . S
C1623 C1624 1.396 . S
C1623 C1628 1.390 . S
C1624 C1618 1.465 . S
C1624 C1623 1.396 . S
C1624 C1625 1.399 . S
C1625 H1611 0.929 . S
C1625 C1624 1.399 . S
C1625 C1626 1.385 . S
C1626 H1612 0.931 . S
C1626 C1625 1.385 . S
C1626 C1627 1.389 . S
C1627 C1626 1.389 . S
C1627 C1628 1.387 . S
C1628 H1613 0.930 . S
C1628 C1623 1.390 . S
C1628 C1627 1.387 . S
H1629 C1641 0.930 . S
H1630 C1643 0.930 . S
H1631 C1644 0.930 . S
H1632 C1648 0.959 . S
H1633 C1648 0.959 . S
H1634 C1648 0.961 . S
H1635 C1649 0.960 . S
H1636 C1649 0.961 . S
H1637 C1649 0.959 . S
H1638 C1652 0.929 . S
H1639 C1653 0.931 . S
H1640 C1655 0.930 . S
C1641 H1629 0.930 . S
C1641 C1642 1.399 . S
C1641 C1646 1.399 . S
C1642 C1641 1.399 . S
C1642 C1643 1.376 . S
C1643 H1630 0.930 . S
C1643 C1642 1.376 . S
C1643 C1644 1.388 . S
C1644 H1631 0.930 . S
C1644 C1643 1.388 . S
C1644 C1645 1.390 . S
C1645 C1644 1.390 . S
C1645 C1646 1.394 . S
C1645 C1651 1.465 . S
C1646 C1641 1.399 . S
C1646 C1645 1.394 . S
C1646 C1647 1.516 . S
C1647 C1646 1.516 . S
C1647 C1648 1.502 . S
C1647 C1649 1.561 . S
C1647 C1650 1.526 . S
C1648 H1632 0.959 . S
C1648 H1633 0.959 . S
C1648 H1634 0.961 . S
C1648 C1647 1.502 . S
C1649 H1635 0.960 . S
C1649 H1636 0.961 . S
C1649 H1637 0.959 . S
C1649 C1647 1.561 . S
C1650 C1647 1.526 . S
C1650 C1651 1.396 . S
C1650 C1655 1.390 . S
C1651 C1645 1.465 . S
C1651 C1650 1.396 . S
C1651 C1652 1.399 . S
C1652 H1638 0.929 . S
C1652 C1651 1.399 . S
C1652 C1653 1.385 . S
C1653 H1639 0.931 . S
C1653 C1652 1.385 . S
C1653 C1654 1.389 . S
C1654 C1653 1.389 . S
C1654 C1655 1.387 . S
C1655 H1640 0.930 . S
C1655 C1650 1.390 . S
C1655 C1654 1.387 . S
H1656 C1668 0.930 . S
H1657 C1670 0.930 . S
H1658 C1671 0.930 . S
H1659 C1675 0.959 . S
H1660 C1675 0.959 . S
H1661 C1675 0.961 . S
H1662 C1676 0.960 . S
H1663 C1676 0.961 . S
H1664 C1676 0.959 . S
H1665 C1679 0.929 . S
H1666 C1680 0.931 . S
H1667 C1682 0.930 . S
C1668 H1656 0.930 . S
C1668 C1669 1.399 . S
C1668 C1673 1.399 . S
C1669 C1668 1.399 . S
C1669 C1670 1.376 . S
C1670 H1657 0.930 . S
C1670 C1669 1.376 . S
C1670 C1671 1.388 . S
C1671 H1658 0.930 . S
C1671 C1670 1.388 . S
C1671 C1672 1.390 . S
C1672 C1671 1.390 . S
C1672 C1673 1.394 . S
C1672 C1678 1.465 . S
C1673 C1668 1.399 . S
C1673 C1672 1.394 . S
C1673 C1674 1.516 . S
C1674 C1673 1.516 . S
C1674 C1675 1.502 . S
C1674 C1676 1.561 . S
C1674 C1677 1.526 . S
C1675 H1659 0.959 . S
C1675 H1660 0.959 . S
C1675 H1661 0.961 . S
C1675 C1674 1.502 . S
C1676 H1662 0.960 . S
C1676 H1663 0.961 . S
C1676 H1664 0.959 . S
C1676 C1674 1.561 . S
C1677 C1674 1.526 . S
C1677 C1678 1.396 . S
C1677 C1682 1.390 . S
C1678 C1672 1.465 . S
C1678 C1677 1.396 . S
C1678 C1679 1.399 . S
C1679 H1665 0.929 . S
C1679 C1678 1.399 . S
C1679 C1680 1.385 . S
C1680 H1666 0.931 . S
C1680 C1679 1.385 . S
C1680 C1681 1.389 . S
C1681 C1680 1.389 . S
C1681 C1682 1.387 . S
C1682 H1667 0.930 . S
C1682 C1677 1.390 . S
C1682 C1681 1.387 . S
H1683 C1695 0.930 . S
H1684 C1697 0.930 . S
H1685 C1698 0.930 . S
H1686 C1702 0.959 . S
H1687 C1702 0.959 . S
H1688 C1702 0.961 . S
H1689 C1703 0.960 . S
H1690 C1703 0.961 . S
H1691 C1703 0.959 . S
H1692 C1706 0.929 . S
H1693 C1707 0.931 . S
H1694 C1709 0.930 . S
C1695 H1683 0.930 . S
C1695 C1696 1.399 . S
C1695 C1700 1.399 . S
C1696 C1695 1.399 . S
C1696 C1697 1.376 . S
C1697 H1684 0.930 . S
C1697 C1696 1.376 . S
C1697 C1698 1.388 . S
C1698 H1685 0.930 . S
C1698 C1697 1.388 . S
C1698 C1699 1.390 . S
C1699 C1698 1.390 . S
C1699 C1700 1.394 . S
C1699 C1705 1.465 . S
C1700 C1695 1.399 . S
C1700 C1699 1.394 . S
C1700 C1701 1.516 . S
C1701 C1700 1.516 . S
C1701 C1702 1.502 . S
C1701 C1703 1.561 . S
C1701 C1704 1.526 . S
C1702 H1686 0.959 . S
C1702 H1687 0.959 . S
C1702 H1688 0.961 . S
C1702 C1701 1.502 . S
C1703 H1689 0.960 . S
C1703 H1690 0.961 . S
C1703 H1691 0.959 . S
C1703 C1701 1.561 . S
C1704 C1701 1.526 . S
C1704 C1705 1.396 . S
C1704 C1709 1.390 . S
C1705 C1699 1.465 . S
C1705 C1704 1.396 . S
C1705 C1706 1.399 . S
C1706 H1692 0.929 . S
C1706 C1705 1.399 . S
C1706 C1707 1.385 . S
C1707 H1693 0.931 . S
C1707 C1706 1.385 . S
C1707 C1708 1.389 . S
C1708 C1707 1.389 . S
C1708 C1709 1.387 . S
C1709 H1694 0.930 . S
C1709 C1704 1.390 . S
C1709 C1708 1.387 . S
H1710 C1722 0.930 . S
H1711 C1724 0.930 . S
H1712 C1725 0.930 . S
H1713 C1729 0.959 . S
H1714 C1729 0.959 . S
H1715 C1729 0.961 . S
H1716 C1730 0.960 . S
H1717 C1730 0.961 . S
H1718 C1730 0.959 . S
H1719 C1733 0.929 . S
H1720 C1734 0.931 . S
H1721 C1736 0.930 . S
C1722 H1710 0.930 . S
C1722 C1723 1.399 . S
C1722 C1727 1.399 . S
C1723 C1722 1.399 . S
C1723 C1724 1.376 . S
C1724 H1711 0.930 . S
C1724 C1723 1.376 . S
C1724 C1725 1.388 . S
C1725 H1712 0.930 . S
C1725 C1724 1.388 . S
C1725 C1726 1.390 . S
C1726 C1725 1.390 . S
C1726 C1727 1.394 . S
C1726 C1732 1.465 . S
C1727 C1722 1.399 . S
C1727 C1726 1.394 . S
C1727 C1728 1.516 . S
C1728 C1727 1.516 . S
C1728 C1729 1.502 . S
C1728 C1730 1.561 . S
C1728 C1731 1.526 . S
C1729 H1713 0.959 . S
C1729 H1714 0.959 . S
C1729 H1715 0.961 . S
C1729 C1728 1.502 . S
C1730 H1716 0.960 . S
C1730 H1717 0.961 . S
C1730 H1718 0.959 . S
C1730 C1728 1.561 . S
C1731 C1728 1.526 . S
C1731 C1732 1.396 . S
C1731 C1736 1.390 . S
C1732 C1726 1.465 . S
C1732 C1731 1.396 . S
C1732 C1733 1.399 . S
C1733 H1719 0.929 . S
C1733 C1732 1.399 . S
C1733 C1734 1.385 . S
C1734 H1720 0.931 . S
C1734 C1733 1.385 . S
C1734 C1735 1.389 . S
C1735 C1734 1.389 . S
C1735 C1736 1.387 . S
C1736 H1721 0.930 . S
C1736 C1731 1.390 . S
C1736 C1735 1.387 . S
H1737 C1749 0.930 . S
H1738 C1751 0.930 . S
H1739 C1752 0.930 . S
H1740 C1756 0.959 . S
H1741 C1756 0.959 . S
H1742 C1756 0.961 . S
H1743 C1757 0.960 . S
H1744 C1757 0.961 . S
H1745 C1757 0.959 . S
H1746 C1760 0.929 . S
H1747 C1761 0.931 . S
H1748 C1763 0.930 . S
C1749 H1737 0.930 . S
C1749 C1750 1.399 . S
C1749 C1754 1.399 . S
C1750 C1749 1.399 . S
C1750 C1751 1.376 . S
C1751 H1738 0.930 . S
C1751 C1750 1.376 . S
C1751 C1752 1.388 . S
C1752 H1739 0.930 . S
C1752 C1751 1.388 . S
C1752 C1753 1.390 . S
C1753 C1752 1.390 . S
C1753 C1754 1.394 . S
C1753 C1759 1.465 . S
C1754 C1749 1.399 . S
C1754 C1753 1.394 . S
C1754 C1755 1.516 . S
C1755 C1754 1.516 . S
C1755 C1756 1.502 . S
C1755 C1757 1.561 . S
C1755 C1758 1.526 . S
C1756 H1740 0.959 . S
C1756 H1741 0.959 . S
C1756 H1742 0.961 . S
C1756 C1755 1.502 . S
C1757 H1743 0.960 . S
C1757 H1744 0.961 . S
C1757 H1745 0.959 . S
C1757 C1755 1.561 . S
C1758 C1755 1.526 . S
C1758 C1759 1.396 . S
C1758 C1763 1.390 . S
C1759 C1753 1.465 . S
C1759 C1758 1.396 . S
C1759 C1760 1.399 . S
C1760 H1746 0.929 . S
C1760 C1759 1.399 . S
C1760 C1761 1.385 . S
C1761 H1747 0.931 . S
C1761 C1760 1.385 . S
C1761 C1762 1.389 . S
C1762 C1761 1.389 . S
C1762 C1763 1.387 . S
C1763 H1748 0.930 . S
C1763 C1758 1.390 . S
C1763 C1762 1.387 . S
H1764 C1776 0.930 . S
H1765 C1778 0.930 . S
H1766 C1779 0.930 . S
H1767 C1783 0.959 . S
H1768 C1783 0.959 . S
H1769 C1783 0.961 . S
H1770 C1784 0.960 . S
H1771 C1784 0.961 . S
H1772 C1784 0.959 . S
H1773 C1787 0.929 . S
H1774 C1788 0.931 . S
H1775 C1790 0.930 . S
C1776 H1764 0.930 . S
C1776 C1777 1.399 . S
C1776 C1781 1.399 . S
C1777 C1776 1.399 . S
C1777 C1778 1.376 . S
C1778 H1765 0.930 . S
C1778 C1777 1.376 . S
C1778 C1779 1.388 . S
C1779 H1766 0.930 . S
C1779 C1778 1.388 . S
C1779 C1780 1.390 . S
C1780 C1779 1.390 . S
C1780 C1781 1.394 . S
C1780 C1786 1.465 . S
C1781 C1776 1.399 . S
C1781 C1780 1.394 . S
C1781 C1782 1.516 . S
C1782 C1781 1.516 . S
C1782 C1783 1.502 . S
C1782 C1784 1.561 . S
C1782 C1785 1.526 . S
C1783 H1767 0.959 . S
C1783 H1768 0.959 . S
C1783 H1769 0.961 . S
C1783 C1782 1.502 . S
C1784 H1770 0.960 . S
C1784 H1771 0.961 . S
C1784 H1772 0.959 . S
C1784 C1782 1.561 . S
C1785 C1782 1.526 . S
C1785 C1786 1.396 . S
C1785 C1790 1.390 . S
C1786 C1780 1.465 . S
C1786 C1785 1.396 . S
C1786 C1787 1.399 . S
C1787 H1773 0.929 . S
C1787 C1786 1.399 . S
C1787 C1788 1.385 . S
C1788 H1774 0.931 . S
C1788 C1787 1.385 . S
C1788 C1789 1.389 . S
C1789 C1788 1.389 . S
C1789 C1790 1.387 . S
C1790 H1775 0.930 . S
C1790 C1785 1.390 . S
C1790 C1789 1.387 . S
H1791 C1803 0.930 . S
H1792 C1805 0.930 . S
H1793 C1806 0.930 . S
H1794 C1810 0.959 . S
H1795 C1810 0.959 . S
H1796 C1810 0.961 . S
H1797 C1811 0.960 . S
H1798 C1811 0.961 . S
H1799 C1811 0.959 . S
H1800 C1814 0.929 . S
H1801 C1815 0.931 . S
H1802 C1817 0.930 . S
C1803 H1791 0.930 . S
C1803 C1804 1.399 . S
C1803 C1808 1.399 . S
C1804 C1803 1.399 . S
C1804 C1805 1.376 . S
C1805 H1792 0.930 . S
C1805 C1804 1.376 . S
C1805 C1806 1.388 . S
C1806 H1793 0.930 . S
C1806 C1805 1.388 . S
C1806 C1807 1.390 . S
C1807 C1806 1.390 . S
C1807 C1808 1.394 . S
C1807 C1813 1.465 . S
C1808 C1803 1.399 . S
C1808 C1807 1.394 . S
C1808 C1809 1.516 . S
C1809 C1808 1.516 . S
C1809 C1810 1.502 . S
C1809 C1811 1.561 . S
C1809 C1812 1.526 . S
C1810 H1794 0.959 . S
C1810 H1795 0.959 . S
C1810 H1796 0.961 . S
C1810 C1809 1.502 . S
C1811 H1797 0.960 . S
C1811 H1798 0.961 . S
C1811 H1799 0.959 . S
C1811 C1809 1.561 . S
C1812 C1809 1.526 . S
C1812 C1813 1.396 . S
C1812 C1817 1.390 . S
C1813 C1807 1.465 . S
C1813 C1812 1.396 . S
C1813 C1814 1.399 . S
C1814 H1800 0.929 . S
C1814 C1813 1.399 . S
C1814 C1815 1.385 . S
C1815 H1801 0.931 . S
C1815 C1814 1.385 . S
C1815 C1816 1.389 . S
C1816 C1815 1.389 . S
C1816 C1817 1.387 . S
C1817 H1802 0.930 . S
C1817 C1812 1.390 . S
C1817 C1816 1.387 . S
H1818 C1830 0.930 . S
H1819 C1832 0.930 . S
H1820 C1833 0.930 . S
H1821 C1837 0.959 . S
H1822 C1837 0.959 . S
H1823 C1837 0.961 . S
H1824 C1838 0.960 . S
H1825 C1838 0.961 . S
H1826 C1838 0.959 . S
H1827 C1841 0.929 . S
H1828 C1842 0.931 . S
H1829 C1844 0.930 . S
C1830 H1818 0.930 . S
C1830 C1831 1.399 . S
C1830 C1835 1.399 . S
C1831 C1830 1.399 . S
C1831 C1832 1.376 . S
C1832 H1819 0.930 . S
C1832 C1831 1.376 . S
C1832 C1833 1.388 . S
C1833 H1820 0.930 . S
C1833 C1832 1.388 . S
C1833 C1834 1.390 . S
C1834 C1833 1.390 . S
C1834 C1835 1.394 . S
C1834 C1840 1.465 1_556 S
C1835 C1830 1.399 . S
C1835 C1834 1.394 . S
C1835 C1836 1.516 1_556 S
C1836 C1835 1.516 1_554 S
C1836 C1837 1.502 1_554 S
C1836 C1838 1.561 . S
C1836 C1839 1.526 . S
C1837 H1821 0.959 . S
C1837 H1822 0.959 . S
C1837 H1823 0.961 . S
C1837 C1836 1.502 1_556 S
C1838 H1824 0.960 . S
C1838 H1825 0.961 . S
C1838 H1826 0.959 . S
C1838 C1836 1.561 . S
C1839 C1836 1.526 . S
C1839 C1840 1.396 . S
C1839 C1844 1.390 . S
C1840 C1834 1.465 1_554 S
C1840 C1839 1.396 . S
C1840 C1841 1.399 . S
C1841 H1827 0.929 . S
C1841 C1840 1.399 . S
C1841 C1842 1.385 . S
C1842 H1828 0.931 . S
C1842 C1841 1.385 . S
C1842 C1843 1.389 . S
C1843 C1842 1.389 . S
C1843 C1844 1.387 . S
C1844 H1829 0.930 . S
C1844 C1839 1.390 . S
C1844 C1843 1.387 . S
H1845 C1857 0.930 . S
H1846 C1859 0.930 . S
H1847 C1860 0.930 1_655 S
H1848 C1864 0.959 . S
H1849 C1864 0.959 . S
H1850 C1864 0.961 . S
H1851 C1865 0.960 . S
H1852 C1865 0.961 . S
H1853 C1865 0.959 . S
H1854 C1868 0.929 . S
H1855 C1869 0.931 . S
H1856 C1871 0.930 . S
C1857 H1845 0.930 . S
C1857 C1858 1.399 . S
C1857 C1862 1.399 . S
C1858 C1857 1.399 . S
C1858 C1859 1.376 . S
C1859 H1846 0.930 . S
C1859 C1858 1.376 . S
C1859 C1860 1.388 . S
C1860 H1847 0.930 1_455 S
C1860 C1859 1.388 . S
C1860 C1861 1.390 . S
C1861 C1860 1.390 . S
C1861 C1862 1.394 . S
C1861 C1867 1.465 1_455 S
C1862 C1857 1.399 . S
C1862 C1861 1.394 . S
C1862 C1863 1.516 . S
C1863 C1862 1.516 . S
C1863 C1864 1.502 . S
C1863 C1865 1.561 . S
C1863 C1866 1.526 1_455 S
C1864 H1848 0.959 . S
C1864 H1849 0.959 . S
C1864 H1850 0.961 . S
C1864 C1863 1.502 . S
C1865 H1851 0.960 . S
C1865 H1852 0.961 . S
C1865 H1853 0.959 . S
C1865 C1863 1.561 . S
C1866 C1863 1.526 1_655 S
C1866 C1867 1.396 . S
C1866 C1871 1.390 . S
C1867 C1861 1.465 1_655 S
C1867 C1866 1.396 . S
C1867 C1868 1.399 . S
C1868 H1854 0.929 . S
C1868 C1867 1.399 . S
C1868 C1869 1.385 . S
C1869 H1855 0.931 . S
C1869 C1868 1.385 . S
C1869 C1870 1.389 . S
C1870 C1869 1.389 . S
C1870 C1871 1.387 . S
C1871 H1856 0.930 . S
C1871 C1866 1.390 . S
C1871 C1870 1.387 . S
H1872 C1884 0.930 . S
H1873 C1886 0.930 . S
H1874 C1887 0.930 1_545 S
H1875 C1891 0.959 . S
H1876 C1891 0.959 . S
H1877 C1891 0.961 . S
H1878 C1892 0.960 . S
H1879 C1892 0.961 . S
H1880 C1892 0.959 . S
H1881 C1895 0.929 . S
H1882 C1896 0.931 . S
H1883 C1898 0.930 . S
C1884 H1872 0.930 . S
C1884 C1885 1.399 . S
C1884 C1889 1.399 . S
C1885 C1884 1.399 . S
C1885 C1886 1.376 . S
C1886 H1873 0.930 . S
C1886 C1885 1.376 . S
C1886 C1887 1.388 . S
C1887 H1874 0.930 1_565 S
C1887 C1886 1.388 . S
C1887 C1888 1.390 . S
C1888 C1887 1.390 . S
C1888 C1889 1.394 . S
C1888 C1894 1.465 1_564 S
C1889 C1884 1.399 . S
C1889 C1888 1.394 . S
C1889 C1890 1.516 1_554 S
C1890 C1889 1.516 1_556 S
C1890 C1891 1.502 . S
C1890 C1892 1.561 . S
C1890 C1893 1.526 1_565 S
C1891 H1875 0.959 . S
C1891 H1876 0.959 . S
C1891 H1877 0.961 . S
C1891 C1890 1.502 . S
C1892 H1878 0.960 . S
C1892 H1879 0.961 . S
C1892 H1880 0.959 . S
C1892 C1890 1.561 . S
C1893 C1890 1.526 1_545 S
C1893 C1894 1.396 . S
C1893 C1898 1.390 . S
C1894 C1888 1.465 1_546 S
C1894 C1893 1.396 . S
C1894 C1895 1.399 1_556 S
C1895 H1881 0.929 . S
C1895 C1894 1.399 1_554 S
C1895 C1896 1.385 1_554 S
C1896 H1882 0.931 . S
C1896 C1895 1.385 1_556 S
C1896 C1897 1.389 . S
C1897 C1896 1.389 . S
C1897 C1898 1.387 . S
C1898 H1883 0.930 . S
C1898 C1893 1.390 . S
C1898 C1897 1.387 . S
H1899 C1911 0.930 . S
H1900 C1913 0.930 . S
H1901 C1914 0.930 . S
H1902 C1918 0.959 . S
H1903 C1918 0.959 . S
H1904 C1918 0.961 . S
H1905 C1919 0.960 . S
H1906 C1919 0.961 . S
H1907 C1919 0.959 . S
H1908 C1922 0.929 . S
H1909 C1923 0.931 . S
H1910 C1925 0.930 . S
C1911 H1899 0.930 . S
C1911 C1912 1.399 . S
C1911 C1916 1.399 . S
C1912 C1911 1.399 . S
C1912 C1913 1.376 . S
C1913 H1900 0.930 . S
C1913 C1912 1.376 . S
C1913 C1914 1.388 . S
C1914 H1901 0.930 . S
C1914 C1913 1.388 . S
C1914 C1915 1.390 . S
C1915 C1914 1.390 . S
C1915 C1916 1.394 . S
C1915 C1921 1.465 . S
C1916 C1911 1.399 . S
C1916 C1915 1.394 . S
C1916 C1917 1.516 . S
C1917 C1916 1.516 . S
C1917 C1918 1.502 . S
C1917 C1919 1.561 . S
C1917 C1920 1.526 . S
C1918 H1902 0.959 . S
C1918 H1903 0.959 . S
C1918 H1904 0.961 . S
C1918 C1917 1.502 . S
C1919 H1905 0.960 . S
C1919 H1906 0.961 . S
C1919 H1907 0.959 . S
C1919 C1917 1.561 . S
C1920 C1917 1.526 . S
C1920 C1921 1.396 . S
C1920 C1925 1.390 . S
C1921 C1915 1.465 . S
C1921 C1920 1.396 . S
C1921 C1922 1.399 . S
C1922 H1908 0.929 . S
C1922 C1921 1.399 . S
C1922 C1923 1.385 . S
C1923 H1909 0.931 . S
C1923 C1922 1.385 . S
C1923 C1924 1.389 . S
C1924 C1923 1.389 . S
C1924 C1925 1.387 . S
C1925 H1910 0.930 . S
C1925 C1920 1.390 . S
C1925 C1924 1.387 . S
H1926 C1938 0.930 . S
H1927 C1940 0.930 . S
H1928 C1941 0.930 1_455 S
H1929 C1945 0.959 . S
H1930 C1945 0.959 . S
H1931 C1945 0.961 . S
H1932 C1946 0.960 . S
H1933 C1946 0.961 . S
H1934 C1946 0.947 1_455 S
H1935 C1949 0.929 . S
H1936 C1950 0.931 . S
H1937 C1952 0.930 . S
C1938 H1926 0.930 . S
C1938 C1939 1.399 . S
C1938 C1943 1.399 . S
C1939 C1938 1.399 . S
C1939 C1940 1.376 . S
C1940 H1927 0.930 . S
C1940 C1939 1.376 . S
C1940 C1941 1.388 . S
C1941 H1928 0.930 1_655 S
C1941 C1940 1.388 . S
C1941 C1942 1.390 . S
C1942 C1941 1.390 . S
C1942 C1943 1.394 . S
C1942 C1948 1.476 1_655 S
C1943 C1938 1.399 . S
C1943 C1942 1.394 . S
C1943 C1944 1.516 1_556 S
C1944 C1943 1.516 1_554 S
C1944 C1945 1.502 . S
C1944 C1946 1.561 . S
C1944 C1947 1.526 1_655 S
C1945 H1929 0.959 . S
C1945 H1930 0.959 . S
C1945 H1931 0.961 . S
C1945 C1944 1.502 . S
C1946 H1932 0.960 . S
C1946 H1933 0.961 . S
C1946 H1934 0.947 1_655 S
C1946 C1944 1.561 . S
C1947 C1944 1.526 1_455 S
C1947 C1948 1.383 1_554 S
C1947 C1952 1.390 . S
C1948 C1942 1.476 1_455 S
C1948 C1947 1.383 1_556 S
C1948 C1949 1.400 . S
C1949 H1935 0.929 . S
C1949 C1948 1.400 . S
C1949 C1950 1.385 1_556 S
C1950 H1936 0.931 . S
C1950 C1949 1.385 1_554 S
C1950 C1951 1.389 . S
C1951 C1950 1.389 . S
C1951 C1952 1.387 . S
C1952 H1937 0.930 . S
C1952 C1947 1.390 . S
C1952 C1951 1.387 . S
H1953 C1965 0.930 . S
H1954 C1967 0.930 . S
H1955 C1968 0.930 . S
H1956 C1972 0.959 . S
H1957 C1972 0.959 . S
H1958 C1972 0.961 . S
H1959 C1973 0.960 . S
H1960 C1973 0.961 . S
H1961 C1973 0.959 . S
H1962 C1976 0.929 1_565 S
H1963 C1977 0.931 . S
H1964 C1979 0.930 . S
C1965 H1953 0.930 . S
C1965 C1966 1.399 . S
C1965 C1970 1.399 . S
C1966 C1965 1.399 . S
C1966 C1967 1.376 . S
C1967 H1954 0.930 . S
C1967 C1966 1.376 . S
C1967 C1968 1.388 . S
C1968 H1955 0.930 . S
C1968 C1967 1.388 . S
C1968 C1969 1.390 . S
C1969 C1968 1.390 . S
C1969 C1970 1.394 . S
C1969 C1975 1.465 1_565 S
C1970 C1965 1.399 . S
C1970 C1969 1.394 . S
C1970 C1971 1.516 1_565 S
C1971 C1970 1.516 1_545 S
C1971 C1972 1.502 . S
C1971 C1973 1.561 . S
C1971 C1974 1.526 . S
C1972 H1956 0.959 . S
C1972 H1957 0.959 . S
C1972 H1958 0.961 . S
C1972 C1971 1.502 . S
C1973 H1959 0.960 . S
C1973 H1960 0.961 . S
C1973 H1961 0.959 . S
C1973 C1971 1.561 . S
C1974 C1971 1.526 . S
C1974 C1975 1.396 . S
C1974 C1979 1.390 . S
C1975 C1969 1.465 1_545 S
C1975 C1974 1.396 . S
C1975 C1976 1.399 . S
C1976 H1962 0.929 1_545 S
C1976 C1975 1.399 . S
C1976 C1977 1.385 . S
C1977 H1963 0.931 . S
C1977 C1976 1.385 . S
C1977 C1978 1.389 . S
C1978 C1977 1.389 . S
C1978 C1979 1.387 . S
C1979 H1964 0.930 . S
C1979 C1974 1.390 . S
C1979 C1978 1.387 . S
C1021 C403 1.338 . S
C1033 C58 1.274 . S
C1048 C487 1.340 . S
C1060 C142 1.262 . S
C1075 C226 1.244 . S
C1087 C67 1.348 . S
C1102 C310 1.217 . S
C1114 C151 1.354 . S
C1129 C394 1.221 . S
C1141 C235 1.353 . S
C1156 C319 1.339 . S
C1168 C478 1.273 . S
C1183 C739 1.373 . S
C1195 C562 1.124 . S
C1210 C646 1.175 . S
C1222 C823 1.360 . S
C1237 C907 1.339 . S
C1249 C730 1.274 . S
C1264 C814 1.148 . S
C1276 C991 1.367 . S
C1291 C898 1.241 . S
C1303 C571 1.349 . S
C1318 C655 1.338 . S
C1330 C982 1.273 . S
C1345 C392 1.409 . S
C1357 C69 1.350 . S
C1372 C153 1.350 . S
C1384 C476 1.412 . S
C1399 C237 1.297 . S
C1411 C56 1.437 . S
C1426 C321 1.231 . S
C1438 C140 1.433 . S
C1453 C224 1.414 . S
C1465 C405 1.347 . S
C1480 C308 1.405 . S
C1492 C489 1.344 . S
C1507 C728 1.409 . S
C1519 C573 1.350 . S
C1534 C657 1.319 . S
C1546 C812 1.430 . S
C1561 C741 1.339 . S
C1573 C896 1.420 . S
C1588 C980 1.405 . S
C1600 C825 1.340 . S
C1615 C909 1.216 . S
C1627 C560 1.451 . S
C1642 C644 1.449 . S
C1654 C993 1.246 . S
C1669 C914 1.796 . S
C1681 C74 1.777 . S
C1696 C158 1.781 . S
C1708 C998 1.841 . S
C1723 C242 1.775 . S
C1735 C578 1.798 . S
C1750 C326 1.817 . S
C1762 C662 1.772 . S
C1777 C410 1.774 . S
C1789 C746 1.832 . S
C1804 C830 1.846 . S
C1816 C494 1.788 . S
C1831 C819 1.926 . S
C1843 C63 1.919 . S
C1858 C903 1.918 . S
C1870 C147 1.946 . S
C1885 C231 1.915 . S
C1897 C987 1.935 . S
C1912 C315 1.929 . S
C1924 C567 1.953 . S
C1939 C651 1.924 . S
C1951 C399 1.952 . S
C1966 C735 1.953 . S
C1978 C483 1.929 . S
