# Generated by pormake.
# Topology wna, (6)-cn, num edge types: 1
# Building blocks:
#     Node 0, Type 0, BuildingBlock: BETDEL_clean_sbu_0, # of connection points: 6
#     Node 1, Type 0, BuildingBlock: BETDEL_clean_sbu_0, # of connection points: 6
#     Node 2, Type 0, BuildingBlock: BETDEL_clean_sbu_0, # of connection points: 6
#     Node 3, Type 0, BuildingBlock: BETDEL_clean_sbu_0, # of connection points: 6
#     Node 4, Type 0, BuildingBlock: BETDEL_clean_sbu_0, # of connection points: 6
#     Node 5, Type 0, BuildingBlock: BETDEL_clean_sbu_0, # of connection points: 6
#     Node 6, Type 0, BuildingBlock: BETDEL_clean_sbu_0, # of connection points: 6
#     Node 7, Type 0, BuildingBlock: BETDEL_clean_sbu_0, # of connection points: 6
#     Node 8, Type 0, BuildingBlock: BETDEL_clean_sbu_0, # of connection points: 6
#     Node 9, Type 0, BuildingBlock: BETDEL_clean_sbu_0, # of connection points: 6
#     Node 10, Type 0, BuildingBlock: BETDEL_clean_sbu_0, # of connection points: 6
#     Node 11, Type 0, BuildingBlock: BETDEL_clean_sbu_0, # of connection points: 6
#     Node 12, Type 0, BuildingBlock: BETDEL_clean_sbu_0, # of connection points: 6
#     Node 13, Type 0, BuildingBlock: BETDEL_clean_sbu_0, # of connection points: 6
#     Node 14, Type 0, BuildingBlock: BETDEL_clean_sbu_0, # of connection points: 6
#     Node 15, Type 0, BuildingBlock: BETDEL_clean_sbu_0, # of connection points: 6
#     Node 16, Type 0, BuildingBlock: BETDEL_clean_sbu_0, # of connection points: 6
#     Node 17, Type 0, BuildingBlock: BETDEL_clean_sbu_0, # of connection points: 6
#     Node 18, Type 0, BuildingBlock: BETDEL_clean_sbu_0, # of connection points: 6
#     Node 19, Type 0, BuildingBlock: BETDEL_clean_sbu_0, # of connection points: 6
#     Node 20, Type 0, BuildingBlock: BETDEL_clean_sbu_0, # of connection points: 6
#     Node 21, Type 0, BuildingBlock: BETDEL_clean_sbu_0, # of connection points: 6
#     Node 22, Type 0, BuildingBlock: BETDEL_clean_sbu_0, # of connection points: 6
#     Node 23, Type 0, BuildingBlock: BETDEL_clean_sbu_0, # of connection points: 6
#     Node 24, Type 0, BuildingBlock: BETDEL_clean_sbu_0, # of connection points: 6
#     Node 25, Type 0, BuildingBlock: BETDEL_clean_sbu_0, # of connection points: 6
#     Node 26, Type 0, BuildingBlock: BETDEL_clean_sbu_0, # of connection points: 6
#     Node 27, Type 0, BuildingBlock: BETDEL_clean_sbu_0, # of connection points: 6
#     Node 28, Type 0, BuildingBlock: BETDEL_clean_sbu_0, # of connection points: 6
#     Node 29, Type 0, BuildingBlock: BETDEL_clean_sbu_0, # of connection points: 6
#     Node 30, Type 0, BuildingBlock: BETDEL_clean_sbu_0, # of connection points: 6
#     Node 31, Type 0, BuildingBlock: BETDEL_clean_sbu_0, # of connection points: 6
#     Node 32, Type 0, BuildingBlock: BETDEL_clean_sbu_0, # of connection points: 6
#     Node 33, Type 0, BuildingBlock: BETDEL_clean_sbu_0, # of connection points: 6
#     Node 34, Type 0, BuildingBlock: BETDEL_clean_sbu_0, # of connection points: 6
#     Node 35, Type 0, BuildingBlock: BETDEL_clean_sbu_0, # of connection points: 6
#     Edge 36, Type (0, 0), BuildingBlock: UVAHIK_clean_linker_0, # of connection points: 2
#     Edge 37, Type (0, 0), BuildingBlock: UVAHIK_clean_linker_0, # of connection points: 2
#     Edge 38, Type (0, 0), BuildingBlock: UVAHIK_clean_linker_0, # of connection points: 2
#     Edge 39, Type (0, 0), BuildingBlock: UVAHIK_clean_linker_0, # of connection points: 2
#     Edge 40, Type (0, 0), BuildingBlock: UVAHIK_clean_linker_0, # of connection points: 2
#     Edge 41, Type (0, 0), BuildingBlock: UVAHIK_clean_linker_0, # of connection points: 2
#     Edge 42, Type (0, 0), BuildingBlock: UVAHIK_clean_linker_0, # of connection points: 2
#     Edge 43, Type (0, 0), BuildingBlock: UVAHIK_clean_linker_0, # of connection points: 2
#     Edge 44, Type (0, 0), BuildingBlock: UVAHIK_clean_linker_0, # of connection points: 2
#     Edge 45, Type (0, 0), BuildingBlock: UVAHIK_clean_linker_0, # of connection points: 2
#     Edge 46, Type (0, 0), BuildingBlock: UVAHIK_clean_linker_0, # of connection points: 2
#     Edge 47, Type (0, 0), BuildingBlock: UVAHIK_clean_linker_0, # of connection points: 2
#     Edge 48, Type (0, 0), BuildingBlock: UVAHIK_clean_linker_0, # of connection points: 2
#     Edge 49, Type (0, 0), BuildingBlock: UVAHIK_clean_linker_0, # of connection points: 2
#     Edge 50, Type (0, 0), BuildingBlock: UVAHIK_clean_linker_0, # of connection points: 2
#     Edge 51, Type (0, 0), BuildingBlock: UVAHIK_clean_linker_0, # of connection points: 2
#     Edge 52, Type (0, 0), BuildingBlock: UVAHIK_clean_linker_0, # of connection points: 2
#     Edge 53, Type (0, 0), BuildingBlock: UVAHIK_clean_linker_0, # of connection points: 2
#     Edge 54, Type (0, 0), BuildingBlock: UVAHIK_clean_linker_0, # of connection points: 2
#     Edge 55, Type (0, 0), BuildingBlock: UVAHIK_clean_linker_0, # of connection points: 2
#     Edge 56, Type (0, 0), BuildingBlock: UVAHIK_clean_linker_0, # of connection points: 2
#     Edge 57, Type (0, 0), BuildingBlock: UVAHIK_clean_linker_0, # of connection points: 2
#     Edge 58, Type (0, 0), BuildingBlock: UVAHIK_clean_linker_0, # of connection points: 2
#     Edge 59, Type (0, 0), BuildingBlock: UVAHIK_clean_linker_0, # of connection points: 2
#     Edge 60, Type (0, 0), BuildingBlock: UVAHIK_clean_linker_0, # of connection points: 2
#     Edge 61, Type (0, 0), BuildingBlock: UVAHIK_clean_linker_0, # of connection points: 2
#     Edge 62, Type (0, 0), BuildingBlock: UVAHIK_clean_linker_0, # of connection points: 2
#     Edge 63, Type (0, 0), BuildingBlock: UVAHIK_clean_linker_0, # of connection points: 2
#     Edge 64, Type (0, 0), BuildingBlock: UVAHIK_clean_linker_0, # of connection points: 2
#     Edge 65, Type (0, 0), BuildingBlock: UVAHIK_clean_linker_0, # of connection points: 2
#     Edge 66, Type (0, 0), BuildingBlock: UVAHIK_clean_linker_0, # of connection points: 2
#     Edge 67, Type (0, 0), BuildingBlock: UVAHIK_clean_linker_0, # of connection points: 2
#     Edge 68, Type (0, 0), BuildingBlock: UVAHIK_clean_linker_0, # of connection points: 2
#     Edge 69, Type (0, 0), BuildingBlock: UVAHIK_clean_linker_0, # of connection points: 2
#     Edge 70, Type (0, 0), BuildingBlock: UVAHIK_clean_linker_0, # of connection points: 2
#     Edge 71, Type (0, 0), BuildingBlock: UVAHIK_clean_linker_0, # of connection points: 2
#     Edge 72, Type (0, 0), BuildingBlock: UVAHIK_clean_linker_0, # of connection points: 2
#     Edge 73, Type (0, 0), BuildingBlock: UVAHIK_clean_linker_0, # of connection points: 2
#     Edge 74, Type (0, 0), BuildingBlock: UVAHIK_clean_linker_0, # of connection points: 2
#     Edge 75, Type (0, 0), BuildingBlock: UVAHIK_clean_linker_0, # of connection points: 2
#     Edge 76, Type (0, 0), BuildingBlock: UVAHIK_clean_linker_0, # of connection points: 2
#     Edge 77, Type (0, 0), BuildingBlock: UVAHIK_clean_linker_0, # of connection points: 2
#     Edge 78, Type (0, 0), BuildingBlock: UVAHIK_clean_linker_0, # of connection points: 2
#     Edge 79, Type (0, 0), BuildingBlock: UVAHIK_clean_linker_0, # of connection points: 2
#     Edge 80, Type (0, 0), BuildingBlock: UVAHIK_clean_linker_0, # of connection points: 2
#     Edge 81, Type (0, 0), BuildingBlock: UVAHIK_clean_linker_0, # of connection points: 2
#     Edge 82, Type (0, 0), BuildingBlock: UVAHIK_clean_linker_0, # of connection points: 2
#     Edge 83, Type (0, 0), BuildingBlock: UVAHIK_clean_linker_0, # of connection points: 2
#     Edge 84, Type (0, 0), BuildingBlock: UVAHIK_clean_linker_0, # of connection points: 2
#     Edge 85, Type (0, 0), BuildingBlock: UVAHIK_clean_linker_0, # of connection points: 2
#     Edge 86, Type (0, 0), BuildingBlock: UVAHIK_clean_linker_0, # of connection points: 2
#     Edge 87, Type (0, 0), BuildingBlock: UVAHIK_clean_linker_0, # of connection points: 2
#     Edge 88, Type (0, 0), BuildingBlock: UVAHIK_clean_linker_0, # of connection points: 2
#     Edge 89, Type (0, 0), BuildingBlock: UVAHIK_clean_linker_0, # of connection points: 2
#     Edge 90, Type (0, 0), BuildingBlock: UVAHIK_clean_linker_0, # of connection points: 2
#     Edge 91, Type (0, 0), BuildingBlock: UVAHIK_clean_linker_0, # of connection points: 2
#     Edge 92, Type (0, 0), BuildingBlock: UVAHIK_clean_linker_0, # of connection points: 2
#     Edge 93, Type (0, 0), BuildingBlock: UVAHIK_clean_linker_0, # of connection points: 2
#     Edge 94, Type (0, 0), BuildingBlock: UVAHIK_clean_linker_0, # of connection points: 2
#     Edge 95, Type (0, 0), BuildingBlock: UVAHIK_clean_linker_0, # of connection points: 2
#     Edge 96, Type (0, 0), BuildingBlock: UVAHIK_clean_linker_0, # of connection points: 2
#     Edge 97, Type (0, 0), BuildingBlock: UVAHIK_clean_linker_0, # of connection points: 2
#     Edge 98, Type (0, 0), BuildingBlock: UVAHIK_clean_linker_0, # of connection points: 2
#     Edge 99, Type (0, 0), BuildingBlock: UVAHIK_clean_linker_0, # of connection points: 2
#     Edge 100, Type (0, 0), BuildingBlock: UVAHIK_clean_linker_0, # of connection points: 2
#     Edge 101, Type (0, 0), BuildingBlock: UVAHIK_clean_linker_0, # of connection points: 2
#     Edge 102, Type (0, 0), BuildingBlock: UVAHIK_clean_linker_0, # of connection points: 2
#     Edge 103, Type (0, 0), BuildingBlock: UVAHIK_clean_linker_0, # of connection points: 2
#     Edge 104, Type (0, 0), BuildingBlock: UVAHIK_clean_linker_0, # of connection points: 2
#     Edge 105, Type (0, 0), BuildingBlock: UVAHIK_clean_linker_0, # of connection points: 2
#     Edge 106, Type (0, 0), BuildingBlock: UVAHIK_clean_linker_0, # of connection points: 2
#     Edge 107, Type (0, 0), BuildingBlock: UVAHIK_clean_linker_0, # of connection points: 2
#     Edge 108, Type (0, 0), BuildingBlock: UVAHIK_clean_linker_0, # of connection points: 2
#     Edge 109, Type (0, 0), BuildingBlock: UVAHIK_clean_linker_0, # of connection points: 2
#     Edge 110, Type (0, 0), BuildingBlock: UVAHIK_clean_linker_0, # of connection points: 2
#     Edge 111, Type (0, 0), BuildingBlock: UVAHIK_clean_linker_0, # of connection points: 2
#     Edge 112, Type (0, 0), BuildingBlock: UVAHIK_clean_linker_0, # of connection points: 2
#     Edge 113, Type (0, 0), BuildingBlock: UVAHIK_clean_linker_0, # of connection points: 2
#     Edge 114, Type (0, 0), BuildingBlock: UVAHIK_clean_linker_0, # of connection points: 2
#     Edge 115, Type (0, 0), BuildingBlock: UVAHIK_clean_linker_0, # of connection points: 2
#     Edge 116, Type (0, 0), BuildingBlock: UVAHIK_clean_linker_0, # of connection points: 2
#     Edge 117, Type (0, 0), BuildingBlock: UVAHIK_clean_linker_0, # of connection points: 2
#     Edge 118, Type (0, 0), BuildingBlock: UVAHIK_clean_linker_0, # of connection points: 2
#     Edge 119, Type (0, 0), BuildingBlock: UVAHIK_clean_linker_0, # of connection points: 2
#     Edge 120, Type (0, 0), BuildingBlock: UVAHIK_clean_linker_0, # of connection points: 2
#     Edge 121, Type (0, 0), BuildingBlock: UVAHIK_clean_linker_0, # of connection points: 2
#     Edge 122, Type (0, 0), BuildingBlock: UVAHIK_clean_linker_0, # of connection points: 2
#     Edge 123, Type (0, 0), BuildingBlock: UVAHIK_clean_linker_0, # of connection points: 2
#     Edge 124, Type (0, 0), BuildingBlock: UVAHIK_clean_linker_0, # of connection points: 2
#     Edge 125, Type (0, 0), BuildingBlock: UVAHIK_clean_linker_0, # of connection points: 2
#     Edge 126, Type (0, 0), BuildingBlock: UVAHIK_clean_linker_0, # of connection points: 2
#     Edge 127, Type (0, 0), BuildingBlock: UVAHIK_clean_linker_0, # of connection points: 2
#     Edge 128, Type (0, 0), BuildingBlock: UVAHIK_clean_linker_0, # of connection points: 2
#     Edge 129, Type (0, 0), BuildingBlock: UVAHIK_clean_linker_0, # of connection points: 2
#     Edge 130, Type (0, 0), BuildingBlock: UVAHIK_clean_linker_0, # of connection points: 2
#     Edge 131, Type (0, 0), BuildingBlock: UVAHIK_clean_linker_0, # of connection points: 2
#     Edge 132, Type (0, 0), BuildingBlock: UVAHIK_clean_linker_0, # of connection points: 2
#     Edge 133, Type (0, 0), BuildingBlock: UVAHIK_clean_linker_0, # of connection points: 2
#     Edge 134, Type (0, 0), BuildingBlock: UVAHIK_clean_linker_0, # of connection points: 2
#     Edge 135, Type (0, 0), BuildingBlock: UVAHIK_clean_linker_0, # of connection points: 2
#     Edge 136, Type (0, 0), BuildingBlock: UVAHIK_clean_linker_0, # of connection points: 2
#     Edge 137, Type (0, 0), BuildingBlock: UVAHIK_clean_linker_0, # of connection points: 2
#     Edge 138, Type (0, 0), BuildingBlock: UVAHIK_clean_linker_0, # of connection points: 2
#     Edge 139, Type (0, 0), BuildingBlock: UVAHIK_clean_linker_0, # of connection points: 2
#     Edge 140, Type (0, 0), BuildingBlock: UVAHIK_clean_linker_0, # of connection points: 2
#     Edge 141, Type (0, 0), BuildingBlock: UVAHIK_clean_linker_0, # of connection points: 2
#     Edge 142, Type (0, 0), BuildingBlock: UVAHIK_clean_linker_0, # of connection points: 2
#     Edge 143, Type (0, 0), BuildingBlock: UVAHIK_clean_linker_0, # of connection points: 2
# Relax obj value: 0.174
# Max RMSD: 0.208
# Mean RMSD: 0.201
data_MOF--net-wna--node1-BETDEL_clean_sbu_0--edge1-UVAHIK_clean_linker_0
_symmetry_space_group_name_H-M    P1
_symmetry_Int_Tables_number       1
_symmetry_cell_setting            triclinic
loop_
_symmetry_equiv_pos_as_xyz
'x, y, z'
_cell_length_a     51.440473
_cell_length_b     51.429717
_cell_length_c     127.59226
_cell_angle_alpha  90.00137
_cell_angle_beta   90.013434
_cell_angle_gamma 120.00943
loop_
_atom_site_label
_atom_site_type_symbol
_atom_site_fract_x
_atom_site_fract_y
_atom_site_fract_z
_atom_type_partial_charge
Dy0 Dy 0.0694 0.24036 0.16095 0.0
C1 C 0.06176 0.20887 0.20434 0.0
C2 C 0.07424 0.26449 0.14142 0.0
Dy3 Dy 0.07042 0.23074 0.18429 0.0
O4 O 0.06706 0.23694 0.14335 0.0
O5 O 0.07867 0.27899 0.15018 0.0
O6 O 0.06178 0.19471 0.15746 0.0
O7 O 0.08714 0.21747 0.17071 0.0
C8 C 0.07522 0.19283 0.16579 0.0
C9 C 0.06425 0.27772 0.17875 0.0
O10 O 0.11956 0.25274 0.18131 0.0
O11 O 0.11796 0.2728 0.16522 0.0
O12 O 0.07647 0.23705 0.20177 0.0
O13 O 0.05254 0.19256 0.19592 0.0
O14 O 0.07843 0.2773 0.18707 0.0
O15 O 0.05199 0.25243 0.17438 0.0
O16 O 0.01984 0.21122 0.16342 0.0
O17 O 0.02388 0.19526 0.18004 0.0
C18 C 0.1332 0.27157 0.17345 0.0
C19 C 0.00805 0.19303 0.17157 0.0
Dy20 Dy 0.74612 0.83249 0.15987 0.0
C21 C 0.77993 0.83767 0.20296 0.0
C22 C 0.72716 0.81433 0.13979 0.0
Dy23 Dy 0.75901 0.83611 0.18317 0.0
O24 O 0.75194 0.83841 0.14238 0.0
O25 O 0.71285 0.79994 0.14818 0.0
O26 O 0.7569 0.88008 0.15944 0.0
O27 O 0.78016 0.86748 0.17006 0.0
C28 C 0.77616 0.88872 0.16707 0.0
C29 C 0.71078 0.7852 0.17669 0.0
O30 O 0.73136 0.85819 0.18276 0.0
O31 O 0.70796 0.83606 0.16707 0.0
O32 O 0.77023 0.81533 0.19649 0.0
O33 O 0.77818 0.85975 0.19866 0.0
O34 O 0.71207 0.79821 0.18551 0.0
O35 O 0.73561 0.79913 0.172 0.0
O36 O 0.78684 0.82704 0.1592 0.0
O37 O 0.79795 0.8332 0.17701 0.0
C38 C 0.7099 0.85129 0.17575 0.0
C39 C 0.80384 0.8288 0.1673 0.0
Dy40 Dy 0.16622 0.91928 0.15887 0.0
C41 C 0.15771 0.94145 0.20243 0.0
C42 C 0.18131 0.91057 0.13914 0.0
Dy43 Dy 0.16071 0.92443 0.18234 0.0
O44 O 0.15414 0.90011 0.14257 0.0
O45 O 0.20035 0.9258 0.14649 0.0
O46 O 0.12818 0.92699 0.15572 0.0
O47 O 0.12781 0.90446 0.16956 0.0
C48 C 0.11433 0.91539 0.16448 0.0
C49 C 0.21167 0.92741 0.17587 0.0
O50 O 0.13808 0.87469 0.1816 0.0
O51 O 0.15623 0.87397 0.16498 0.0
O52 O 0.18163 0.95196 0.19671 0.0
O53 O 0.13482 0.92092 0.19722 0.0
O54 O 0.19813 0.91444 0.18452 0.0
O55 O 0.19831 0.93936 0.17148 0.0
O56 O 0.18229 0.96842 0.15956 0.0
O57 O 0.16356 0.96652 0.17626 0.0
C58 C 0.14248 0.86027 0.17382 0.0
C59 C 0.17543 0.98084 0.16739 0.0
Dy60 Dy 0.24334 0.07745 0.34834 0.0
C61 C 0.20986 0.0652 0.30504 0.0
C62 C 0.26667 0.08467 0.36812 0.0
Dy63 Dy 0.23211 0.07492 0.32505 0.0
O64 O 0.24678 0.09163 0.36519 0.0
O65 O 0.27397 0.0737 0.36022 0.0
O66 O 0.19769 0.0706 0.35139 0.0
O67 O 0.22157 0.09553 0.33817 0.0
C68 C 0.19695 0.08468 0.34305 0.0
C69 C 0.27763 0.06651 0.33065 0.0
O70 O 0.25681 0.12445 0.32721 0.0
O71 O 0.27966 0.12288 0.34261 0.0
O72 O 0.23806 0.07976 0.30755 0.0
O73 O 0.19366 0.0566 0.31349 0.0
O74 O 0.27711 0.0794 0.322 0.0
O75 O 0.25293 0.05643 0.33532 0.0
O76 O 0.21035 0.02838 0.34732 0.0
O77 O 0.19513 0.02994 0.3303 0.0
C78 C 0.27796 0.13788 0.33442 0.0
C79 C 0.19193 0.01574 0.33928 0.0
Dy80 Dy 0.91259 0.16491 0.35032 0.0
C81 C 0.93847 0.15539 0.30719 0.0
C82 C 0.91259 0.18578 0.37002 0.0
Dy83 Dy 0.91944 0.15804 0.32695 0.0
O84 O 0.91927 0.16514 0.36778 0.0
O85 O 0.90626 0.19526 0.36147 0.0
O86 O 0.87803 0.11669 0.35201 0.0
O87 O 0.91202 0.12918 0.34066 0.0
C88 C 0.88787 0.10766 0.34427 0.0
C89 C 0.92129 0.20915 0.33278 0.0
O90 O 0.86985 0.13405 0.32797 0.0
O91 O 0.86918 0.15793 0.34331 0.0
O92 O 0.95058 0.17843 0.31338 0.0
O93 O 0.9153 0.1332 0.31175 0.0
O94 O 0.90879 0.1948 0.32422 0.0
O95 O 0.93323 0.19633 0.33752 0.0
O96 O 0.9604 0.17457 0.35039 0.0
O97 O 0.96175 0.162 0.33299 0.0
C98 C 0.85542 0.14114 0.33495 0.0
C99 C 0.97425 0.17034 0.34235 0.0
Dy100 Dy 0.82825 0.75107 0.34982 0.0
C101 C 0.84957 0.78423 0.30648 0.0
C102 C 0.81199 0.72631 0.36939 0.0
Dy103 Dy 0.8372 0.76238 0.32652 0.0
O104 O 0.83923 0.74105 0.36584 0.0
O105 O 0.7934 0.72513 0.36225 0.0
O106 O 0.86639 0.79668 0.35333 0.0
O107 O 0.86813 0.77438 0.33975 0.0
C108 C 0.8812 0.79875 0.34482 0.0
C109 C 0.78425 0.71509 0.33201 0.0
O110 O 0.86393 0.73985 0.32901 0.0
O111 O 0.83765 0.71512 0.34389 0.0
O112 O 0.83772 0.75621 0.30909 0.0
O113 O 0.85546 0.80054 0.31486 0.0
O114 O 0.79819 0.71639 0.32342 0.0
O115 O 0.79769 0.73992 0.33668 0.0
O116 O 0.81315 0.78498 0.34887 0.0
O117 O 0.82717 0.79809 0.33149 0.0
C118 C 0.85581 0.71813 0.336 0.0
C119 C 0.81726 0.80213 0.34057 0.0
Dy120 Dy 0.91772 0.75819 0.82385 0.0
C121 C 0.9117 0.7302 0.8676 0.0
C122 C 0.93595 0.7774 0.80381 0.0
Dy123 Dy 0.91102 0.74787 0.84743 0.0
O124 O 0.94894 0.7683 0.81036 0.0
O125 O 0.91231 0.77593 0.80816 0.0
O126 O 0.91022 0.71153 0.82209 0.0
O127 O 0.93331 0.73704 0.83523 0.0
C128 C 0.92295 0.71181 0.83088 0.0
C129 C 0.88354 0.77664 0.84009 0.0
O130 O 0.95747 0.78833 0.84729 0.0
O131 O 0.95935 0.7985 0.82945 0.0
O132 O 0.91436 0.7558 0.86488 0.0
O133 O 0.90903 0.71444 0.85928 0.0
O134 O 0.87404 0.75846 0.84804 0.0
O135 O 0.90851 0.78039 0.83691 0.0
O136 O 0.86809 0.73004 0.82491 0.0
O137 O 0.86924 0.70851 0.84075 0.0
C138 C 0.97123 0.80501 0.83895 0.0
C139 C 0.8547 0.70929 0.83224 0.0
Dy140 Dy 0.2342 0.16087 0.82452 0.0
C141 C 0.26535 0.18327 0.86806 0.0
C142 C 0.21234 0.157 0.80471 0.0
Dy143 Dy 0.24689 0.1652 0.84795 0.0
O144 O 0.22247 0.18015 0.81083 0.0
O145 O 0.2143 0.13548 0.80936 0.0
O146 O 0.28087 0.19951 0.82209 0.0
O147 O 0.25719 0.19796 0.83565 0.0
C148 C 0.28194 0.21229 0.83096 0.0
C149 C 0.21535 0.10864 0.8409 0.0
O150 O 0.2075 0.17273 0.84832 0.0
O151 O 0.19567 0.16475 0.83057 0.0
O152 O 0.23942 0.16077 0.86539 0.0
O153 O 0.28111 0.1961 0.85972 0.0
O154 O 0.23458 0.11706 0.84854 0.0
O155 O 0.21252 0.13049 0.83783 0.0
O156 O 0.26174 0.13861 0.82534 0.0
O157 O 0.2852 0.16185 0.84088 0.0
C158 C 0.19037 0.17043 0.8402 0.0
C159 C 0.28326 0.14608 0.83238 0.0
Dy160 Dy 0.83464 0.07178 0.82442 0.0
C161 C 0.80805 0.07822 0.86745 0.0
C162 C 0.83833 0.05796 0.80395 0.0
Dy163 Dy 0.82674 0.07205 0.84797 0.0
O164 O 0.8139 0.05028 0.80911 0.0
O165 O 0.86146 0.07405 0.80993 0.0
O166 O 0.79923 0.0846 0.82275 0.0
O167 O 0.79587 0.05544 0.83491 0.0
C168 C 0.7841 0.06949 0.83089 0.0
C169 C 0.87901 0.07651 0.84243 0.0
O170 O 0.80612 0.02248 0.84551 0.0
O171 O 0.82898 0.02768 0.82941 0.0
O172 O 0.82839 0.07091 0.86561 0.0
O173 O 0.79778 0.08205 0.85864 0.0
O174 O 0.86471 0.06394 0.85103 0.0
O175 O 0.86595 0.08839 0.8377 0.0
O176 O 0.85952 0.12137 0.82626 0.0
O177 O 0.84445 0.12081 0.84352 0.0
C178 C 0.81415 0.0113 0.83761 0.0
C179 C 0.85773 0.1354 0.83472 0.0
Dy180 Dy 0.76416 0.92391 0.68125 0.0
C181 C 0.72817 0.91653 0.63841 0.0
C182 C 0.78543 0.93296 0.7014 0.0
Dy183 Dy 0.75306 0.92241 0.65788 0.0
O184 O 0.75737 0.91947 0.69871 0.0
O185 O 0.80206 0.94083 0.69304 0.0
O186 O 0.71893 0.91912 0.68419 0.0
O187 O 0.74356 0.94284 0.67103 0.0
C188 C 0.71875 0.93253 0.67564 0.0
C189 C 0.7993 0.91449 0.66283 0.0
O190 O 0.78396 0.97194 0.65971 0.0
O191 O 0.80118 0.96899 0.67624 0.0
O192 O 0.75559 0.9231 0.64026 0.0
O193 O 0.71423 0.91325 0.64722 0.0
O194 O 0.7975 0.92712 0.65427 0.0
O195 O 0.77503 0.90414 0.66791 0.0
O196 O 0.73961 0.87433 0.67897 0.0
O197 O 0.71873 0.87536 0.663 0.0
C198 C 0.80328 0.98402 0.66756 0.0
C199 C 0.71967 0.86062 0.67141 0.0
Dy200 Dy 0.07588 0.84085 0.68114 0.0
C201 C 0.08676 0.81417 0.63837 0.0
C202 C 0.06537 0.85291 0.70112 0.0
Dy203 Dy 0.07896 0.83141 0.65789 0.0
O204 O 0.08197 0.84146 0.69862 0.0
O205 O 0.05524 0.85876 0.69266 0.0
O206 O 0.08123 0.80099 0.68455 0.0
O207 O 0.05843 0.8012 0.67103 0.0
C208 C 0.06882 0.78717 0.67591 0.0
C209 C 0.08456 0.88469 0.66269 0.0
O210 O 0.02997 0.8162 0.65866 0.0
O211 O 0.03071 0.83187 0.6758 0.0
O212 O 0.09805 0.84168 0.64155 0.0
O213 O 0.07111 0.79592 0.64586 0.0
O214 O 0.07178 0.86962 0.65422 0.0
O215 O 0.09567 0.8716 0.66786 0.0
O216 O 0.12538 0.86675 0.67889 0.0
O217 O 0.12397 0.8405 0.664 0.0
C218 C 0.01691 0.82128 0.66674 0.0
C219 C 0.13897 0.85843 0.67195 0.0
Dy220 Dy 0.15774 0.23389 0.68248 0.0
C221 C 0.18423 0.27551 0.64 0.0
C222 C 0.14268 0.20833 0.70198 0.0
Dy223 Dy 0.16779 0.24951 0.65943 0.0
O224 O 0.15396 0.23667 0.69997 0.0
O225 O 0.13883 0.19372 0.69329 0.0
O226 O 0.19842 0.2772 0.68696 0.0
O227 O 0.19791 0.25756 0.67256 0.0
C228 C 0.2121 0.28076 0.67812 0.0
C229 C 0.11367 0.20214 0.66372 0.0
O230 O 0.18114 0.21422 0.65942 0.0
O231 O 0.16586 0.19782 0.67648 0.0
O232 O 0.15812 0.26572 0.6443 0.0
O233 O 0.20147 0.27119 0.64633 0.0
O234 O 0.12851 0.20529 0.65514 0.0
O235 O 0.12738 0.22554 0.66926 0.0
O236 O 0.13351 0.25927 0.6807 0.0
O237 O 0.16192 0.28645 0.66653 0.0
C238 C 0.17596 0.19524 0.66723 0.0
C239 C 0.14347 0.28273 0.67438 0.0
Dy240 Dy 0.75316 0.58421 0.49367 0.0
C241 C 0.72404 0.54674 0.53655 0.0
C242 C 0.75431 0.60292 0.47354 0.0
Dy243 Dy 0.74326 0.57004 0.51698 0.0
O244 O 0.75021 0.57674 0.47621 0.0
O245 O 0.75766 0.61882 0.48187 0.0
O246 O 0.79034 0.57386 0.49326 0.0
O247 O 0.75439 0.55014 0.50372 0.0
C248 C 0.77978 0.55443 0.50083 0.0
C249 C 0.73853 0.61736 0.51077 0.0
O250 O 0.79306 0.59912 0.51665 0.0
O251 O 0.79341 0.62301 0.50119 0.0
O252 O 0.71093 0.55652 0.53033 0.0
O253 O 0.74831 0.54988 0.53214 0.0
O254 O 0.74945 0.61582 0.51975 0.0
O255 O 0.72914 0.59305 0.50584 0.0
O256 O 0.70667 0.54411 0.49286 0.0
O257 O 0.7021 0.53095 0.51049 0.0
C258 C 0.80705 0.62112 0.50976 0.0
C259 C 0.69169 0.52609 0.50078 0.0
Dy260 Dy 0.41872 0.16323 0.49164 0.0
C261 C 0.45404 0.18532 0.53482 0.0
C262 C 0.39462 0.1475 0.47195 0.0
Dy263 Dy 0.43071 0.17222 0.51496 0.0
O264 O 0.41256 0.17466 0.47516 0.0
O265 O 0.38972 0.12869 0.47952 0.0
O266 O 0.46449 0.20078 0.48816 0.0
O267 O 0.44241 0.20323 0.50172 0.0
C268 C 0.46676 0.21589 0.49659 0.0
C269 C 0.38407 0.11873 0.50948 0.0
O270 O 0.40721 0.19821 0.51273 0.0
O271 O 0.3831 0.17296 0.4976 0.0
O272 O 0.42573 0.17254 0.53249 0.0
O273 O 0.46973 0.19168 0.52627 0.0
O274 O 0.38521 0.13225 0.51817 0.0
O275 O 0.4087 0.13291 0.50475 0.0
O276 O 0.45157 0.14687 0.49254 0.0
O277 O 0.46636 0.16233 0.50972 0.0
C278 C 0.38575 0.19046 0.50565 0.0
C279 C 0.46951 0.15164 0.50066 0.0
Dy280 Dy 0.83484 0.25744 0.49367 0.0
C281 C 0.81411 0.26586 0.53743 0.0
C282 C 0.85414 0.25206 0.4742 0.0
Dy283 Dy 0.8255 0.25727 0.51711 0.0
O284 O 0.83342 0.25882 0.47603 0.0
O285 O 0.86452 0.24838 0.48301 0.0
O286 O 0.79582 0.26348 0.49032 0.0
O287 O 0.79467 0.23927 0.50374 0.0
C288 C 0.78119 0.25039 0.49881 0.0
C289 C 0.87903 0.26505 0.51119 0.0
O290 O 0.79916 0.20797 0.51439 0.0
O291 O 0.82028 0.20943 0.49822 0.0
O292 O 0.82663 0.25055 0.5345 0.0
O293 O 0.80688 0.27575 0.52921 0.0
O294 O 0.86537 0.25118 0.51967 0.0
O295 O 0.86493 0.27623 0.50688 0.0
O296 O 0.85413 0.30699 0.49596 0.0
O297 O 0.83461 0.30306 0.51266 0.0
C298 C 0.80453 0.19434 0.50658 0.0
C299 C 0.84761 0.31872 0.50411 0.0
Dy300 Dy 0.91745 0.41566 0.68465 0.0
C301 C 0.8852 0.38886 0.64127 0.0
C302 C 0.93663 0.41602 0.70468 0.0
Dy303 Dy 0.90513 0.40791 0.6612 0.0
O304 O 0.91047 0.41221 0.70213 0.0
O305 O 0.95221 0.41926 0.69625 0.0
O306 O 0.90443 0.45071 0.68566 0.0
O307 O 0.88284 0.41585 0.67455 0.0
C308 C 0.88559 0.44031 0.6779 0.0
C309 C 0.95447 0.40728 0.66763 0.0
O310 O 0.93063 0.45758 0.66205 0.0
O311 O 0.95426 0.45902 0.67772 0.0
O312 O 0.89589 0.37697 0.64767 0.0
O313 O 0.88541 0.41178 0.64573 0.0
O314 O 0.9529 0.41938 0.65894 0.0
O315 O 0.92943 0.39498 0.6722 0.0
O316 O 0.87817 0.36842 0.68483 0.0
O317 O 0.86699 0.36511 0.66705 0.0
C318 C 0.95171 0.47239 0.66917 0.0
C319 C 0.86145 0.35371 0.67661 0.0
Dy320 Dy 0.58841 0.50271 0.68368 0.0
C321 C 0.61003 0.49 0.64037 0.0
C322 C 0.59084 0.52445 0.7034 0.0
Dy323 Dy 0.5931 0.49418 0.6603 0.0
O324 O 0.59667 0.50333 0.70101 0.0
O325 O 0.58389 0.53392 0.69498 0.0
O326 O 0.55522 0.45436 0.68596 0.0
O327 O 0.58837 0.46695 0.67423 0.0
C328 C 0.56501 0.44526 0.67821 0.0
C329 C 0.59331 0.54467 0.66584 0.0
O330 O 0.54366 0.46825 0.66218 0.0
O331 O 0.5437 0.4937 0.67722 0.0
O332 O 0.62214 0.51381 0.6462 0.0
O333 O 0.58794 0.4679 0.64539 0.0
O334 O 0.58024 0.52936 0.65748 0.0
O335 O 0.60661 0.53311 0.67051 0.0
O336 O 0.63642 0.51319 0.6832 0.0
O337 O 0.6372 0.50113 0.66568 0.0
C338 C 0.52944 0.47537 0.66925 0.0
C339 C 0.65014 0.50973 0.67496 0.0
Dy340 Dy 0.49922 0.08259 0.68074 0.0
C341 C 0.50886 0.11877 0.63778 0.0
C342 C 0.47864 0.06205 0.70047 0.0
Dy343 Dy 0.50567 0.09677 0.65752 0.0
O344 O 0.5008 0.08862 0.69824 0.0
O345 O 0.46751 0.04679 0.69189 0.0
O346 O 0.54712 0.09532 0.68217 0.0
O347 O 0.53504 0.11807 0.67117 0.0
C348 C 0.55646 0.11505 0.67468 0.0
C349 C 0.45448 0.04763 0.66332 0.0
O350 O 0.52924 0.07064 0.65834 0.0
O351 O 0.50541 0.04585 0.67363 0.0
O352 O 0.48572 0.10793 0.64391 0.0
O353 O 0.53084 0.11754 0.64239 0.0
O354 O 0.46862 0.04944 0.65471 0.0
O355 O 0.46751 0.0723 0.6681 0.0
O356 O 0.4911 0.12166 0.68118 0.0
O357 O 0.50111 0.1348 0.6636 0.0
C358 C 0.52204 0.04888 0.66525 0.0
C359 C 0.49419 0.13934 0.67314 0.0
Dy360 Dy 0.58992 0.09435 0.15878 0.0
C361 C 0.58145 0.06234 0.20231 0.0
C362 C 0.60797 0.11537 0.13888 0.0
Dy363 Dy 0.58206 0.08221 0.18239 0.0
O364 O 0.62061 0.10495 0.14505 0.0
O365 O 0.58485 0.1142 0.14355 0.0
O366 O 0.58123 0.04735 0.15655 0.0
O367 O 0.60379 0.07141 0.17 0.0
C368 C 0.59297 0.04646 0.16543 0.0
C369 C 0.55641 0.11295 0.17534 0.0
O370 O 0.62918 0.12164 0.18251 0.0
O371 O 0.63223 0.13304 0.16473 0.0
O372 O 0.58747 0.08936 0.19988 0.0
O373 O 0.57612 0.04636 0.19385 0.0
O374 O 0.5465 0.09471 0.18327 0.0
O375 O 0.58107 0.11597 0.17212 0.0
O376 O 0.54026 0.06737 0.15962 0.0
O377 O 0.53952 0.04448 0.17538 0.0
C378 C 0.64366 0.13858 0.17429 0.0
C379 C 0.52588 0.04638 0.16679 0.0
Dy380 Dy 0.90384 0.4943 0.15828 0.0
C381 C 0.93606 0.52036 0.20151 0.0
C382 C 0.88363 0.49246 0.13832 0.0
Dy383 Dy 0.91646 0.50019 0.18166 0.0
O384 O 0.89346 0.51499 0.14471 0.0
O385 O 0.88482 0.47028 0.1428 0.0
O386 O 0.95132 0.53133 0.15584 0.0
O387 O 0.92771 0.53222 0.16907 0.0
C388 C 0.95263 0.54531 0.16444 0.0
C389 C 0.88416 0.44309 0.17531 0.0
O390 O 0.87771 0.50871 0.18168 0.0
O391 O 0.86502 0.49811 0.16408 0.0
O392 O 0.90902 0.49947 0.19908 0.0
O393 O 0.9523 0.53041 0.19308 0.0
O394 O 0.90308 0.45198 0.18305 0.0
O395 O 0.88167 0.46479 0.17181 0.0
O396 O 0.92954 0.47021 0.15944 0.0
O397 O 0.95354 0.49417 0.17482 0.0
C398 C 0.86013 0.50518 0.17356 0.0
C399 C 0.95084 0.47732 0.16654 0.0
Dy400 Dy 0.50541 0.40692 0.15771 0.0
C401 C 0.47911 0.4162 0.20069 0.0
C402 C 0.51919 0.39801 0.13778 0.0
Dy403 Dy 0.49565 0.40861 0.18102 0.0
O404 O 0.5062 0.41326 0.14023 0.0
O405 O 0.52542 0.38827 0.14626 0.0
O406 O 0.46518 0.41189 0.15443 0.0
O407 O 0.46565 0.38868 0.16778 0.0
C408 C 0.45135 0.39896 0.16302 0.0
C409 C 0.54884 0.41428 0.17615 0.0
O410 O 0.48076 0.35963 0.17988 0.0
O411 O 0.49588 0.3613 0.16259 0.0
O412 O 0.5064 0.42878 0.19718 0.0
O413 O 0.46063 0.39927 0.19344 0.0
O414 O 0.53365 0.40104 0.18454 0.0
O415 O 0.53595 0.42585 0.1711 0.0
O416 O 0.53098 0.4562 0.16026 0.0
O417 O 0.50444 0.45385 0.17516 0.0
C418 C 0.48548 0.34698 0.17158 0.0
C419 C 0.52252 0.46934 0.16731 0.0
Dy420 Dy 0.42904 0.26009 0.01483 0.0
C421 C 0.3889 0.24374 0.97228 0.0
C422 C 0.45121 0.27846 0.03462 0.0
Dy423 Dy 0.4154 0.2538 0.99159 0.0
O424 O 0.43862 0.28968 0.02882 0.0
O425 O 0.45162 0.25653 0.02965 0.0
O426 O 0.38165 0.24884 0.01787 0.0
O427 O 0.40394 0.27358 0.00447 0.0
C428 C 0.37933 0.26118 0.00932 0.0
C429 C 0.4648 0.25133 0.99631 0.0
O430 O 0.44861 0.30301 0.99185 0.0
O431 O 0.46736 0.30203 0.00829 0.0
O432 O 0.40355 0.23112 0.97583 0.0
O433 O 0.38866 0.26193 0.97929 0.0
O434 O 0.46098 0.26208 0.98759 0.0
O435 O 0.44105 0.24027 1.00176 0.0
O436 O 0.40332 0.21029 0.0143 0.0
O437 O 0.38138 0.20855 0.99821 0.0
C438 C 0.46869 0.31592 0.99942 0.0
C439 C 0.3834 0.19526 0.00687 0.0
Dy440 Dy 0.73807 0.17011 0.01437 0.0
C441 C 0.74742 0.14379 0.97138 0.0
C442 C 0.71902 0.17336 0.03407 0.0
Dy443 Dy 0.74665 0.16415 0.9911 0.0
O444 O 0.70625 0.15047 0.02783 0.0
O445 O 0.74277 0.19501 0.02958 0.0
O446 O 0.74773 0.13274 0.01723 0.0
O447 O 0.72462 0.13214 1.00363 0.0
C448 C 0.73587 0.1189 0.00853 0.0
C449 C 0.77203 0.22123 0.99747 0.0
O450 O 0.69979 0.15685 0.99048 0.0
O451 O 0.69607 0.16658 0.00805 0.0
O452 O 0.74157 0.16502 0.97358 0.0
O453 O 0.75254 0.13348 0.97996 0.0
O454 O 0.78231 0.2121 0.98988 0.0
O455 O 0.74728 0.19987 1.00077 0.0
O456 O 0.78787 0.19338 0.01376 0.0
O457 O 0.78901 0.16962 0.99846 0.0
C458 C 0.68509 0.16018 0.99843 0.0
C459 C 0.80248 0.1861 0.0069 0.0
Dy460 Dy 0.82456 0.56659 0.01436 0.0
C461 C 0.84925 0.6045 0.97164 0.0
C462 C 0.81353 0.54463 0.03443 0.0
Dy463 Dy 0.83279 0.57895 0.99113 0.0
O464 O 0.82442 0.57254 0.03182 0.0
O465 O 0.80776 0.52843 0.02602 0.0
O466 O 0.86426 0.61208 0.01758 0.0
O467 O 0.86381 0.58909 0.00406 0.0
C468 C 0.87789 0.61357 0.0089 0.0
C469 C 0.77998 0.53089 0.99605 0.0
O470 O 0.84763 0.54471 0.99167 0.0
O471 O 0.83363 0.53062 0.009 0.0
O472 O 0.82191 0.58899 0.97506 0.0
O473 O 0.86776 0.60604 0.97887 0.0
O474 O 0.79486 0.53343 0.98751 0.0
O475 O 0.79304 0.55506 1.00125 0.0
O476 O 0.79778 0.58918 0.01241 0.0
O477 O 0.8228 0.61428 0.9974 0.0
C478 C 0.84346 0.52705 0.99984 0.0
C479 C 0.80523 0.61099 0.00552 0.0
Dy480 Dy 0.41007 0.91548 0.82447 0.0
C481 C 0.38874 0.88574 0.86805 0.0
C482 C 0.41854 0.94005 0.80487 0.0
Dy483 Dy 0.40534 0.90455 0.84786 0.0
O484 O 0.43049 0.92469 0.80834 0.0
O485 O 0.40187 0.94203 0.81212 0.0
O486 O 0.40199 0.86978 0.82102 0.0
O487 O 0.42457 0.89118 0.83496 0.0
C488 C 0.41342 0.86697 0.82974 0.0
C489 C 0.40388 0.95352 0.84158 0.0
O490 O 0.45504 0.93031 0.84697 0.0
O491 O 0.45585 0.95017 0.83054 0.0
O492 O 0.37747 0.89795 0.86208 0.0
O493 O 0.40971 0.88375 0.86301 0.0
O494 O 0.41706 0.95246 0.85009 0.0
O495 O 0.39099 0.92821 0.83718 0.0
O496 O 0.36096 0.88186 0.82524 0.0
O497 O 0.36312 0.86527 0.84195 0.0
C498 C 0.4696 0.94935 0.83927 0.0
C499 C 0.34866 0.86269 0.8331 0.0
Dy500 Dy 0.08521 0.49753 0.82863 0.0
C501 C 0.11964 0.51959 0.87189 0.0
C502 C 0.06065 0.48075 0.809 0.0
Dy503 Dy 0.09706 0.50683 0.85191 0.0
O504 O 0.07599 0.50813 0.8124 0.0
O505 O 0.0587 0.46233 0.81634 0.0
O506 O 0.13056 0.53553 0.82502 0.0
O507 O 0.10852 0.53782 0.83861 0.0
C508 C 0.13274 0.55079 0.83341 0.0
C509 C 0.05108 0.4527 0.84645 0.0
O510 O 0.07352 0.53264 0.8496 0.0
O511 O 0.04918 0.50685 0.83459 0.0
O512 O 0.09148 0.50732 0.86941 0.0
O513 O 0.13562 0.52569 0.86342 0.0
O514 O 0.05188 0.46626 0.85509 0.0
O515 O 0.07567 0.46732 0.84174 0.0
O516 O 0.11932 0.48261 0.82964 0.0
O517 O 0.13384 0.4987 0.84676 0.0
C518 C 0.05197 0.5247 0.84256 0.0
C519 C 0.13744 0.48805 0.83778 0.0
Dy520 Dy 0.50334 0.58781 0.82537 0.0
C521 C 0.48252 0.60896 0.86888 0.0
C522 C 0.53124 0.58795 0.80717 0.0
Dy523 Dy 0.49097 0.59198 0.84951 0.0
O524 O 0.51498 0.60053 0.80848 0.0
O525 O 0.53262 0.5755 0.81588 0.0
O526 O 0.45647 0.56922 0.81917 0.0
O527 O 0.46529 0.57834 0.83509 0.0
C528 C 0.44482 0.5687 0.82827 0.0
C529 C 0.54379 0.59675 0.84439 0.0
O530 O 0.4667 0.5425 0.84747 0.0
O531 O 0.49034 0.54197 0.83187 0.0
O532 O 0.50303 0.62603 0.86223 0.0
O533 O 0.46619 0.58209 0.86498 0.0
O534 O 0.52985 0.58505 0.8531 0.0
O535 O 0.53023 0.60739 0.83935 0.0
O536 O 0.5139 0.63567 0.82658 0.0
O537 O 0.48994 0.63111 0.84256 0.0
C538 C 0.47308 0.52816 0.84016 0.0
C539 C 0.50323 0.64613 0.83392 0.0
Dy540 Dy 0.58336 0.75266 0.01579 0.0
C541 C 0.5432 0.72266 0.97323 0.0
C542 C 0.60331 0.75379 0.03574 0.0
Dy543 Dy 0.56786 0.74254 0.99258 0.0
O544 O 0.57861 0.75343 0.03331 0.0
O545 O 0.61703 0.75321 0.02726 0.0
O546 O 0.57412 0.79056 0.01633 0.0
O547 O 0.54915 0.75454 0.00598 0.0
C548 C 0.55414 0.78015 0.00892 0.0
C549 C 0.61497 0.73701 0.99848 0.0
O550 O 0.59713 0.79226 0.99282 0.0
O551 O 0.62196 0.79273 0.00805 0.0
O552 O 0.55107 0.74922 0.97693 0.0
O553 O 0.54905 0.70758 0.98003 0.0
O554 O 0.61319 0.74783 0.98952 0.0
O555 O 0.59092 0.728 1.00351 0.0
O556 O 0.54206 0.70699 0.01691 0.0
O557 O 0.52801 0.70265 0.99938 0.0
C558 C 0.61961 0.8063 0.99953 0.0
C559 C 0.52337 0.69232 0.0091 0.0
Dy560 Dy 0.25732 0.83517 0.01561 0.0
C561 C 0.26953 0.81706 0.97212 0.0
C562 C 0.24946 0.85073 0.03538 0.0
Dy563 Dy 0.25948 0.82744 0.99236 0.0
O564 O 0.24448 0.82442 0.03256 0.0
O565 O 0.25888 0.86879 0.02739 0.0
O566 O 0.26707 0.79836 0.01862 0.0
O567 O 0.24134 0.79554 0.0054 0.0
C568 C 0.25358 0.78304 0.01027 0.0
C569 C 0.26409 0.8797 0.9983 0.0
O570 O 0.21027 0.79936 0.99466 0.0
O571 O 0.21021 0.82194 0.01031 0.0
O572 O 0.25423 0.82967 0.97495 0.0
O573 O 0.27874 0.8093 0.98039 0.0
O574 O 0.25078 0.86559 0.9898 0.0
O575 O 0.27622 0.86659 1.0027 0.0
O576 O 0.30693 0.85368 0.01434 0.0
O577 O 0.30581 0.83883 0.99708 0.0
C578 C 0.1958 0.80506 1.00206 0.0
C579 C 0.32012 0.84985 0.00603 0.0
Dy580 Dy 0.15999 0.41976 0.0186 0.0
C581 C 0.17156 0.45208 0.97529 0.0
C582 C 0.14145 0.39381 0.03795 0.0
Dy583 Dy 0.16809 0.43145 0.99532 0.0
O584 O 0.16282 0.42107 0.03622 0.0
O585 O 0.13007 0.38058 0.02908 0.0
O586 O 0.198 0.465 0.02245 0.0
O587 O 0.19974 0.44416 0.0085 0.0
C588 C 0.21261 0.46816 0.01382 0.0
C589 C 0.11699 0.38258 1.00114 0.0
O590 O 0.1917 0.40528 0.99625 0.0
O591 O 0.17594 0.38814 0.01324 0.0
O592 O 0.1477 0.43926 0.98106 0.0
O593 O 0.19416 0.45354 0.98043 0.0
O594 O 0.13207 0.38375 0.99283 0.0
O595 O 0.12904 0.40778 0.00563 0.0
O596 O 0.14032 0.44973 0.01705 0.0
O597 O 0.16489 0.47036 1.00144 0.0
C598 C 0.18906 0.38778 0.00429 0.0
C599 C 0.14967 0.47072 0.00971 0.0
Dy600 Dy 0.25646 0.42746 0.49174 0.0
C601 C 0.24917 0.39583 0.53517 0.0
C602 C 0.27437 0.44867 0.47185 0.0
Dy603 Dy 0.24934 0.41485 0.51515 0.0
O604 O 0.2864 0.43722 0.47784 0.0
O605 O 0.2519 0.4484 0.47669 0.0
O606 O 0.24557 0.37992 0.48922 0.0
O607 O 0.26984 0.40312 0.50257 0.0
C608 C 0.25781 0.37825 0.49788 0.0
C609 C 0.22507 0.4474 0.50862 0.0
O610 O 0.29689 0.45338 0.51523 0.0
O611 O 0.29978 0.46507 0.49751 0.0
O612 O 0.25411 0.42237 0.53259 0.0
O613 O 0.24472 0.37976 0.52678 0.0
O614 O 0.2146 0.42837 0.51632 0.0
O615 O 0.24932 0.4498 0.50524 0.0
O616 O 0.20676 0.40177 0.4928 0.0
O617 O 0.206 0.37794 0.50832 0.0
C618 C 0.31149 0.4702 0.50702 0.0
C619 C 0.19226 0.38059 0.4999 0.0
Dy620 Dy 0.56716 0.82557 0.4912 0.0
C621 C 0.60252 0.85331 0.5343 0.0
C622 C 0.54489 0.82173 0.47145 0.0
Dy623 Dy 0.58129 0.83249 0.51462 0.0
O624 O 0.55556 0.84498 0.47754 0.0
O625 O 0.54647 0.80001 0.47612 0.0
O626 O 0.6143 0.86313 0.48837 0.0
O627 O 0.59141 0.86369 0.50184 0.0
C628 C 0.61601 0.87706 0.49703 0.0
C629 C 0.54863 0.77527 0.50855 0.0
O630 O 0.54261 0.84136 0.51478 0.0
O631 O 0.52911 0.83007 0.49725 0.0
O632 O 0.57517 0.83263 0.53211 0.0
O633 O 0.61813 0.86285 0.52572 0.0
O634 O 0.56773 0.7843 0.51623 0.0
O635 O 0.54602 0.79687 0.505 0.0
O636 O 0.59229 0.8011 0.49234 0.0
O637 O 0.6179 0.82607 0.50741 0.0
C638 C 0.52484 0.83778 0.5067 0.0
C639 C 0.61411 0.80853 0.49922 0.0
Dy640 Dy 0.16899 0.74043 0.49085 0.0
C641 C 0.14344 0.747 0.53417 0.0
C642 C 0.17187 0.72243 0.47093 0.0
Dy643 Dy 0.16354 0.74725 0.51433 0.0
O644 O 0.14872 0.71004 0.47706 0.0
O645 O 0.19399 0.74533 0.47564 0.0
O646 O 0.13178 0.75071 0.48851 0.0
O647 O 0.13149 0.72652 0.50175 0.0
C648 C 0.11822 0.73826 0.49719 0.0
C649 C 0.22039 0.77223 0.50779 0.0
O650 O 0.15559 0.70006 0.51436 0.0
O651 O 0.16454 0.69758 0.49661 0.0
O652 O 0.16565 0.74275 0.53183 0.0
O653 O 0.13201 0.75101 0.52565 0.0
O654 O 0.21164 0.7823 0.51556 0.0
O655 O 0.19869 0.74792 0.50434 0.0
O656 O 0.1927 0.79012 0.49195 0.0
O657 O 0.16975 0.79057 0.50755 0.0
C658 C 0.15822 0.68578 0.50612 0.0
C659 C 0.18602 0.80446 0.49912 0.0
Dy660 Dy 0.09725 0.5904 0.3482 0.0
C661 C 0.05826 0.58376 0.30585 0.0
C662 C 0.12081 0.59992 0.36803 0.0
Dy663 Dy 0.08425 0.58961 0.3251 0.0
O664 O 0.09255 0.58397 0.3657 0.0
O665 O 0.13639 0.60996 0.35949 0.0
O666 O 0.05147 0.58308 0.35188 0.0
O667 O 0.07424 0.60832 0.33869 0.0
C668 C 0.04976 0.59659 0.34358 0.0
C669 C 0.13253 0.58429 0.32921 0.0
O670 O 0.11359 0.63926 0.32704 0.0
O671 O 0.13256 0.63636 0.34322 0.0
O672 O 0.08556 0.58968 0.30747 0.0
O673 O 0.04498 0.58107 0.31477 0.0
O674 O 0.12959 0.59729 0.32094 0.0
O675 O 0.10847 0.57244 0.33445 0.0
O676 O 0.07462 0.54102 0.34557 0.0
O677 O 0.05164 0.54189 0.33007 0.0
C678 C 0.13336 0.65156 0.33475 0.0
C679 C 0.05411 0.52709 0.33819 0.0
Dy680 Dy 0.40641 0.50452 0.3479 0.0
C681 C 0.41621 0.47893 0.30473 0.0
C682 C 0.38713 0.50844 0.36748 0.0
Dy683 Dy 0.41555 0.49834 0.32463 0.0
O684 O 0.37417 0.48551 0.36126 0.0
O685 O 0.41122 0.52978 0.36303 0.0
O686 O 0.41509 0.46669 0.35099 0.0
O687 O 0.39286 0.46649 0.33719 0.0
C688 C 0.40359 0.45298 0.34224 0.0
C689 C 0.44147 0.5553 0.33116 0.0
O690 O 0.36895 0.49162 0.32383 0.0
O691 O 0.36472 0.50125 0.34137 0.0
O692 O 0.41314 0.50182 0.30711 0.0
O693 O 0.41863 0.4664 0.31325 0.0
O694 O 0.45204 0.54609 0.32368 0.0
O695 O 0.41637 0.53415 0.33427 0.0
O696 O 0.45622 0.5267 0.34738 0.0
O697 O 0.45711 0.50249 0.33215 0.0
C698 C 0.35406 0.49497 0.33171 0.0
C699 C 0.4706 0.51888 0.3406 0.0
Dy700 Dy 0.48815 0.89646 0.34873 0.0
C701 C 0.51836 0.93519 0.30614 0.0
C702 C 0.47466 0.87314 0.36858 0.0
Dy703 Dy 0.49844 0.90868 0.32534 0.0
O704 O 0.48766 0.90146 0.36625 0.0
O705 O 0.46821 0.85741 0.36003 0.0
O706 O 0.52805 0.94173 0.35209 0.0
O707 O 0.52792 0.91831 0.33867 0.0
C708 C 0.54188 0.94286 0.34348 0.0
C709 C 0.44431 0.86185 0.33004 0.0
O710 O 0.51768 0.8782 0.32709 0.0
O711 O 0.49771 0.86062 0.34363 0.0
O712 O 0.49815 0.90733 0.30769 0.0
O713 O 0.52788 0.94866 0.3151 0.0
O714 O 0.45883 0.86423 0.32144 0.0
O715 O 0.45818 0.88587 0.33524 0.0
O716 O 0.46231 0.92007 0.34648 0.0
O717 O 0.48402 0.94177 0.33055 0.0
C718 C 0.51104 0.85908 0.33498 0.0
C719 C 0.46806 0.9401 0.33899 0.0
C720 C 0.10499 0.17258 0.17461 0.0
C721 C 0.08588 0.17108 0.16649 0.0
C722 C 0.11728 0.15366 0.17454 0.0
C723 C 0.1086 0.08443 0.16178 0.0
H724 H 0.19034 0.11501 0.17141 0.0
C725 C 0.16804 0.01647 0.15625 0.0
C726 C 0.1766 0.00977 0.16587 0.0
C727 C 0.1614 0.03968 0.15562 0.0
C728 C 0.16754 0.10632 0.16865 0.0
H729 H 0.0641 0.1483 0.15206 0.0
H730 H 0.0861 0.11628 0.15172 0.0
H731 H 0.1679 0.14714 0.17224 0.0
H732 H 0.18755 0.02347 0.18208 0.0
H733 H 0.17684 0.06458 0.18088 0.0
H734 H 0.1085 0.04383 0.15805 0.0
C735 C 0.09122 0.13137 0.1583 0.0
C736 C 0.15453 0.12454 0.16923 0.0
C737 C 0.07869 0.14992 0.15846 0.0
C738 C 0.18098 0.02824 0.17458 0.0
C739 C 0.17491 0.05177 0.17389 0.0
C740 C 0.12177 0.06649 0.16104 0.0
C741 C 0.11087 0.13309 0.16629 0.0
C742 C 0.12481 0.11376 0.16584 0.0
C743 C 0.16383 0.05684 0.16453 0.0
C744 C 0.15129 0.0772 0.1645 0.0
H745 H 0.11081 0.18867 0.18092 0.0
H746 H 0.13185 0.15524 0.18093 0.0
H747 H 0.08547 0.07502 0.15932 0.0
H748 H 0.16421 0.00236 0.14946 0.0
H749 H 0.15303 0.04334 0.1483 0.0
C750 C 0.96136 0.15502 0.18044 0.0
C751 C 0.97721 0.16725 0.17109 0.0
C752 C 0.93554 0.12676 0.1805 0.0
C753 C 0.87999 0.06494 0.16349 0.0
H754 H 0.87821 0.01526 0.18668 0.0
C755 C 0.82432 0.93114 0.17406 0.0
C756 C 0.79586 0.92069 0.16961 0.0
C757 C 0.84421 0.96204 0.17506 0.0
C758 C 0.87844 0.02874 0.18012 0.0
H759 H 0.9776 0.16042 0.15436 0.0
H760 H 0.93275 0.11068 0.15445 0.0
H761 H 0.91605 0.0682 0.18631 0.0
H762 H 0.76497 0.93387 0.16338 0.0
H763 H 0.79914 0.98756 0.16543 0.0
H764 H 0.84333 0.02509 0.15704 0.0
C765 C 0.93993 0.12307 0.16174 0.0
C766 C 0.89988 0.05928 0.17998 0.0
C767 C 0.96561 0.15163 0.16166 0.0
C768 C 0.78699 0.94143 0.16671 0.0
C769 C 0.80666 0.9722 0.16781 0.0
C770 C 0.85865 0.03433 0.1636 0.0
C771 C 0.92525 0.10984 0.17123 0.0
C772 C 0.90107 0.07777 0.17163 0.0
C773 C 0.83582 0.98296 0.17173 0.0
C774 C 0.85772 0.01579 0.17189 0.0
H775 H 0.9697 0.16674 0.18782 0.0
H776 H 0.92433 0.11769 0.1879 0.0
H777 H 0.88007 0.07849 0.15698 0.0
H778 H 0.83168 0.91555 0.17633 0.0
H779 H 0.86655 0.96949 0.17805 0.0
C780 C 0.06465 0.88568 0.17362 0.0
C781 C 0.08235 0.90614 0.16581 0.0
C782 C 0.03359 0.87453 0.17389 0.0
C783 C 0.97099 0.86127 0.15655 0.0
H784 H 0.92891 0.85808 0.18211 0.0
C785 C 0.8503 0.84279 0.15689 0.0
C786 C 0.83223 0.82879 0.16566 0.0
C787 C 0.8799 0.84841 0.15656 0.0
C788 C 0.94012 0.8582 0.17491 0.0
H789 H 0.08182 0.93209 0.15249 0.0
H790 H 0.02791 0.91268 0.15296 0.0
H791 H 0.98258 0.876 0.18271 0.0
H792 H 0.82984 0.8074 0.18054 0.0
H793 H 0.88076 0.81591 0.17978 0.0
H794 H 0.92865 0.8434 0.14873 0.0
C795 C 0.0378 0.90484 0.15876 0.0
C796 C 0.97095 0.86862 0.17528 0.0
C797 C 0.0687 0.9161 0.15855 0.0
C798 C 0.84344 0.81854 0.17372 0.0
C799 C 0.87275 0.82372 0.17333 0.0
C800 C 0.9401 0.85057 0.15619 0.0
C801 C 0.01981 0.88354 0.1663 0.0
C802 C 0.98677 0.87067 0.16608 0.0
C803 C 0.89178 0.83976 0.16495 0.0
C804 C 0.92429 0.84921 0.16535 0.0
H805 H 0.07463 0.87764 0.17931 0.0
H806 H 0.02023 0.85816 0.17981 0.0
H807 H 0.98257 0.86219 0.14934 0.0
H808 H 0.84228 0.85117 0.15061 0.0
H809 H 0.8939 0.86098 0.15 0.0
C810 C 0.14736 0.08029 0.34633 0.0
C811 C 0.17663 0.09698 0.34241 0.0
C812 C 0.12899 0.09304 0.34698 0.0
C813 C 0.12241 0.15851 0.33786 0.0
H814 H 0.06193 0.13023 0.35968 0.0
C815 C 0.01958 0.17216 0.33473 0.0
C816 C 0.00384 0.17245 0.34369 0.0
C817 C 0.0449 0.16919 0.3356 0.0
C818 C 0.07908 0.13897 0.35368 0.0
H819 H 0.20992 0.13999 0.33608 0.0
H820 H 0.17851 0.16285 0.33762 0.0
H821 H 0.09754 0.11241 0.35918 0.0
H822 H 0.00374 0.17209 0.36067 0.0
H823 H 0.04894 0.1678 0.36225 0.0
H824 H 0.10482 0.18607 0.33264 0.0
C825 C 0.1691 0.13957 0.33988 0.0
C826 C 0.09918 0.12818 0.35323 0.0
C827 C 0.1872 0.12651 0.33899 0.0
C828 C 0.01529 0.17178 0.35362 0.0
C829 C 0.04101 0.16902 0.3545 0.0
C830 C 0.10278 0.1698 0.33845 0.0
C831 C 0.1398 0.12311 0.34399 0.0
C832 C 0.12046 0.13698 0.3451 0.0
C833 C 0.05564 0.16684 0.34547 0.0
C834 C 0.08009 0.15933 0.34612 0.0
H835 H 0.13877 0.05742 0.349 0.0
H836 H 0.10633 0.07923 0.34987 0.0
H837 H 0.13832 0.16592 0.33146 0.0
H838 H 0.01166 0.17296 0.32693 0.0
H839 H 0.05503 0.16714 0.32844 0.0
C840 C 0.80847 0.841 0.33241 0.0
C841 C 0.81397 0.82896 0.34147 0.0
C842 C 0.81183 0.86964 0.33256 0.0
C843 C 0.82285 0.93251 0.34992 0.0
H844 H 0.86432 0.98068 0.32557 0.0
C845 C 0.89446 0.06565 0.33734 0.0
C846 C 0.87658 0.07556 0.34225 0.0
C847 C 0.88458 0.03488 0.33671 0.0
C848 C 0.85292 0.96764 0.33245 0.0
H849 H 0.82571 0.83672 0.35792 0.0
H850 H 0.83209 0.88709 0.35817 0.0
H851 H 0.8501 0.92794 0.32604 0.0
H852 H 0.83378 0.06138 0.34977 0.0
H853 H 0.81618 0.00791 0.34841 0.0
H854 H 0.82686 0.97256 0.35651 0.0
C855 C 0.82475 0.87425 0.35097 0.0
C856 C 0.84432 0.93721 0.33267 0.0
C857 C 0.82103 0.84534 0.35085 0.0
C858 C 0.84816 0.0543 0.34606 0.0
C859 C 0.83819 0.02366 0.34535 0.0
C860 C 0.83158 0.96299 0.34972 0.0
C861 C 0.82118 0.88712 0.34172 0.0
C862 C 0.82919 0.91924 0.34141 0.0
C863 C 0.85653 0.01354 0.3409 0.0
C864 C 0.84678 0.98096 0.34099 0.0
H865 H 0.80273 0.82874 0.32508 0.0
H866 H 0.80802 0.87846 0.32537 0.0
H867 H 0.8111 0.91936 0.35674 0.0
H868 H 0.91651 0.08165 0.33437 0.0
H869 H 0.89939 0.02792 0.33329 0.0
C870 C 0.92981 0.82059 0.33501 0.0
C871 C 0.91342 0.82078 0.34377 0.0
C872 C 0.96091 0.83997 0.33456 0.0
C873 C 0.02266 0.90844 0.34725 0.0
H874 H 0.07337 0.88103 0.33467 0.0
C875 C 0.15052 0.97796 0.35049 0.0
C876 C 0.16445 0.98638 0.34064 0.0
C877 C 0.12098 0.95427 0.35133 0.0
C878 C 0.05939 0.88884 0.33824 0.0
H879 H 0.91645 0.84153 0.35885 0.0
H880 H 0.97038 0.87434 0.35828 0.0
H881 H 0.01888 0.84783 0.33486 0.0
H882 H 0.15959 0.97504 0.32411 0.0
H883 H 0.10825 0.93316 0.32565 0.0
H884 H 0.06324 0.94919 0.35078 0.0
C885 C 0.95948 0.85997 0.3516 0.0
C886 C 0.02819 0.87002 0.33826 0.0
C887 C 0.92848 0.84099 0.35197 0.0
C888 C 0.14933 0.96906 0.3318 0.0
C889 C 0.12 0.94507 0.33268 0.0
C890 C 0.05377 0.92696 0.34739 0.0
C891 C 0.9762 0.85967 0.34292 0.0
C892 C 0.00941 0.87964 0.34274 0.0
C893 C 0.10516 0.93832 0.34237 0.0
C894 C 0.07241 0.91739 0.34286 0.0
H895 H 0.91867 0.80525 0.32857 0.0
H896 H 0.97292 0.83948 0.32767 0.0
H897 H 0.00902 0.91699 0.35056 0.0
H898 H 0.16156 0.99103 0.35742 0.0
H899 H 0.11001 0.94928 0.35891 0.0
C900 C 0.88946 0.82492 0.83315 0.0
C901 C 0.87148 0.79663 0.83773 0.0
C902 C 0.87898 0.84529 0.83244 0.0
C903 C 0.84737 0.88076 0.82814 0.0
H904 H 0.80202 0.88369 0.85196 0.0
C905 C 0.8053 0.96468 0.82872 0.0
C906 C 0.80952 0.98064 0.83809 0.0
C907 C 0.80771 0.93886 0.82854 0.0
C908 C 0.81475 0.88327 0.84527 0.0
H909 H 0.82791 0.76654 0.84448 0.0
H910 H 0.80925 0.80155 0.84293 0.0
H911 H 0.81767 0.84619 0.85145 0.0
H912 H 0.81799 0.98139 0.85472 0.0
H913 H 0.82291 0.93649 0.85444 0.0
H914 H 0.84579 0.91874 0.8222 0.0
C915 C 0.83176 0.80857 0.84022 0.0
C916 C 0.82342 0.86149 0.8449 0.0
C917 C 0.84234 0.78841 0.84103 0.0
C918 C 0.8143 0.96926 0.84743 0.0
C919 C 0.81718 0.94356 0.84723 0.0
C920 C 0.83888 0.90264 0.82854 0.0
C921 C 0.85021 0.83758 0.83619 0.0
C922 C 0.83998 0.86004 0.83635 0.0
C923 C 0.81498 0.92869 0.83771 0.0
C924 C 0.82255 0.90428 0.83712 0.0
H925 H 0.91207 0.83181 0.83058 0.0
H926 H 0.89391 0.8675 0.82935 0.0
H927 H 0.85981 0.88016 0.82139 0.0
H928 H 0.80137 0.97292 0.82141 0.0
H929 H 0.80495 0.92751 0.82113 0.0
C930 C 0.19768 0.05442 0.84349 0.0
C931 C 0.19276 0.07679 0.83926 0.0
C932 C 0.17506 0.02434 0.84325 0.0
C933 C 0.11768 0.96671 0.8483 0.0
H934 H 0.06497 0.93196 0.82439 0.0
C935 C 0.00768 0.85049 0.84925 0.0
C936 C 0.00012 0.83332 0.84003 0.0
C937 C 0.03268 0.87958 0.84944 0.0
C938 C 0.07966 0.9412 0.83111 0.0
H939 H 0.16085 0.0853 0.83109 0.0
H940 H 0.12104 0.03264 0.83074 0.0
H941 H 0.10584 0.98371 0.82356 0.0
H942 H 0.01395 0.83211 0.82406 0.0
H943 H 0.05768 0.88211 0.82449 0.0
H944 H 0.09176 0.92392 0.85577 0.0
C945 C 0.14248 0.03829 0.83418 0.0
C946 C 0.10288 0.97103 0.83067 0.0
C947 C 0.16523 0.06845 0.83438 0.0
C948 C 0.01896 0.84498 0.83125 0.0
C949 C 0.04392 0.87377 0.83146 0.0
C950 C 0.09445 0.93681 0.84873 0.0
C951 C 0.14694 0.01595 0.83881 0.0
C952 C 0.12223 0.98415 0.83925 0.0
C953 C 0.05058 0.89182 0.84043 0.0
C954 C 0.07524 0.92365 0.84012 0.0
H955 H 0.21883 0.06024 0.84722 0.0
H956 H 0.17952 0.00767 0.84666 0.0
H957 H 0.13189 0.97625 0.85512 0.0
H958 H 0.99346 0.84211 0.85612 0.0
H959 H 0.03717 0.89293 0.85648 0.0
C960 C 0.92857 0.10728 0.83343 0.0
C961 C 0.9112 0.08665 0.84125 0.0
C962 C 0.95976 0.11946 0.83325 0.0
C963 C 0.02278 0.13578 0.85073 0.0
H964 H 0.0656 0.13916 0.82533 0.0
C965 C 0.1444 0.15738 0.85069 0.0
C966 C 0.16222 0.17083 0.84181 0.0
C967 C 0.11474 0.1515 0.85099 0.0
C968 C 0.05417 0.13904 0.83247 0.0
H969 H 0.9125 0.06156 0.85471 0.0
H970 H 0.96676 0.08284 0.8544 0.0
H971 H 0.01161 0.11932 0.82466 0.0
H972 H 0.16421 0.19119 0.82675 0.0
H973 H 0.11312 0.1823 0.82748 0.0
H974 H 0.06522 0.15556 0.85856 0.0
C975 C 0.95642 0.08993 0.84851 0.0
C976 C 0.02317 0.12749 0.83207 0.0
C977 C 0.92535 0.07759 0.84863 0.0
C978 C 0.15078 0.18049 0.83364 0.0
C979 C 0.1214 0.17509 0.83402 0.0
C980 C 0.05384 0.14764 0.85112 0.0
C981 C 0.974 0.11136 0.84094 0.0
C982 C 0.00712 0.12533 0.84122 0.0
C983 C 0.10257 0.15937 0.84249 0.0
C984 C 0.0699 0.14907 0.84202 0.0
H985 H 0.91819 0.11465 0.82765 0.0
H986 H 0.97282 0.13593 0.82731 0.0
H987 H 0.01096 0.13477 0.85788 0.0
H988 H 0.15263 0.14946 0.85704 0.0
H989 H 0.1009 0.13919 0.85762 0.0
C990 C 0.84176 0.90974 0.65585 0.0
C991 C 0.82079 0.90356 0.66387 0.0
C992 C 0.86068 0.89767 0.65614 0.0
C993 C 0.87011 0.83752 0.66857 0.0
H994 H 0.95018 0.88406 0.65693 0.0
C995 C 0.9694 0.81511 0.67422 0.0
C996 C 0.98737 0.81904 0.6654 0.0
C997 C 0.94526 0.82027 0.67356 0.0
C998 C 0.92772 0.87064 0.66007 0.0
H999 H 0.80367 0.88061 0.67865 0.0
H1000 H 0.83779 0.86033 0.67941 0.0
H1001 H 0.91772 0.90571 0.65763 0.0
H1002 H 0.99304 0.82952 0.64881 0.0
H1003 H 0.95101 0.83903 0.6477 0.0
H1004 H 0.88116 0.80301 0.67143 0.0
C1005 C 0.83898 0.87384 0.67273 0.0
C1006 C 0.90904 0.88301 0.66048 0.0
C1007 C 0.81964 0.88567 0.67236 0.0
C1008 C 0.97945 0.82611 0.65572 0.0
C1009 C 0.9556 0.8318 0.6551 0.0
C1010 C 0.8891 0.82533 0.66832 0.0
C1011 C 0.8596 0.87952 0.66455 0.0
C1012 C 0.87985 0.86656 0.66464 0.0
C1013 C 0.939 0.82995 0.6641 0.0
C1014 C 0.91797 0.84172 0.66397 0.0
H1015 H 0.8431 0.92335 0.64917 0.0
H1016 H 0.87571 0.9021 0.64958 0.0
H1017 H 0.84768 0.82402 0.67171 0.0
H1018 H 0.97501 0.80962 0.68178 0.0
H1019 H 0.93286 0.81877 0.68062 0.0
C1020 C 0.16964 0.15322 0.65571 0.0
C1021 C 0.17782 0.1679 0.66544 0.0
C1022 C 0.16387 0.12369 0.65478 0.0
C1023 C 0.17203 0.06357 0.66734 0.0
H1024 H 0.09139 0.0113 0.65696 0.0
C1025 C 0.11274 0.93426 0.67195 0.0
C1026 C 0.09469 0.91698 0.66357 0.0
C1027 C 0.1242 0.96537 0.67215 0.0
C1028 C 0.11415 0.02548 0.65972 0.0
H1029 H 0.18897 0.1644 0.68157 0.0
H1030 H 0.17964 0.11317 0.67987 0.0
H1031 H 0.11261 0.06541 0.65631 0.0
H1032 H 0.07407 0.91845 0.64892 0.0
H1033 H 0.09464 0.97232 0.64906 0.0
H1034 H 0.17379 0.02367 0.67063 0.0
C1035 C 0.17737 0.12427 0.67301 0.0
C1036 C 0.1263 0.05653 0.65933 0.0
C1037 C 0.18264 0.15355 0.67398 0.0
C1038 C 0.08784 0.93116 0.65552 0.0
C1039 C 0.09953 0.96214 0.65564 0.0
C1040 C 0.16004 0.03242 0.66758 0.0
C1041 C 0.16671 0.10864 0.66353 0.0
C1042 C 0.15528 0.07589 0.66317 0.0
C1043 C 0.11801 0.97975 0.66391 0.0
C1044 C 0.13087 0.01294 0.66381 0.0
H1045 H 0.16553 0.16367 0.64903 0.0
H1046 H 0.15589 0.11214 0.64736 0.0
H1047 H 0.19443 0.07806 0.67037 0.0
H1048 H 0.11828 0.92383 0.67828 0.0
H1049 H 0.1379 0.9781 0.67874 0.0
C1050 C 0.84518 0.03065 0.67531 0.0
C1051 C 0.83024 0.01387 0.66635 0.0
C1052 C 0.87433 0.05503 0.67457 0.0
C1053 C 0.94085 0.07523 0.65964 0.0
H1054 H 0.97515 0.15254 0.6735 0.0
C1055 C 0.06626 0.16164 0.656 0.0
C1056 C 0.0812 0.18059 0.6645 0.0
C1057 C 0.03521 0.14287 0.65615 0.0
C1058 C 0.966 0.13087 0.66972 0.0
H1059 H 0.83322 0.01059 0.64952 0.0
H1060 H 0.88452 0.05307 0.64824 0.0
H1061 H 0.92068 0.11914 0.67341 0.0
H1062 H 0.07559 0.19418 0.68001 0.0
H1063 H 0.02117 0.16027 0.68052 0.0
H1064 H 0.98574 0.08583 0.65636 0.0
C1065 C 0.87353 0.04736 0.65581 0.0
C1066 C 0.9348 0.11193 0.66958 0.0
C1067 C 0.84413 0.02325 0.65653 0.0
C1068 C 0.06456 0.17982 0.67333 0.0
C1069 C 0.03337 0.16062 0.67356 0.0
C1070 C 0.97195 0.09385 0.65992 0.0
C1071 C 0.88923 0.06275 0.66488 0.0
C1072 C 0.92198 0.084 0.66449 0.0
C1073 C 0.01826 0.14207 0.66492 0.0
C1074 C 0.98501 0.12201 0.66492 0.0
H1075 H 0.83495 0.0239 0.68298 0.0
H1076 H 0.88595 0.06645 0.68168 0.0
H1077 H 0.93158 0.05348 0.65588 0.0
H1078 H 0.07846 0.16184 0.64905 0.0
H1079 H 0.02449 0.12947 0.64926 0.0
C1080 C 0.84785 0.36086 0.49423 0.0
C1081 C 0.85238 0.34946 0.50362 0.0
C1082 C 0.84525 0.38671 0.49435 0.0
C1083 C 0.82369 0.42814 0.51281 0.0
H1084 H 0.84569 0.48439 0.4898 0.0
C1085 C 0.82087 0.54243 0.49994 0.0
C1086 C 0.79164 0.53424 0.50312 0.0
C1087 C 0.83136 0.52221 0.50083 0.0
C1088 C 0.83973 0.46915 0.49638 0.0
H1089 H 0.86044 0.35739 0.52029 0.0
H1090 H 0.85724 0.40301 0.52043 0.0
H1091 H 0.86114 0.44672 0.48951 0.0
H1092 H 0.75078 0.49903 0.51012 0.0
H1093 H 0.76878 0.46327 0.51149 0.0
H1094 H 0.8027 0.45082 0.51977 0.0
C1095 C 0.85449 0.39154 0.51305 0.0
C1096 C 0.84829 0.44728 0.49613 0.0
C1097 C 0.85665 0.36557 0.51295 0.0
C1098 C 0.77345 0.5059 0.50763 0.0
C1099 C 0.78385 0.48548 0.50843 0.0
C1100 C 0.8153 0.4501 0.51308 0.0
C1101 C 0.84749 0.40174 0.50383 0.0
C1102 C 0.84017 0.42633 0.50431 0.0
C1103 C 0.81274 0.49319 0.50483 0.0
C1104 C 0.82296 0.47073 0.50483 0.0
H1105 H 0.84417 0.34868 0.48695 0.0
H1106 H 0.83972 0.39381 0.4871 0.0
H1107 H 0.81655 0.4121 0.51918 0.0
H1108 H 0.83547 0.56433 0.49655 0.0
H1109 H 0.85396 0.5292 0.49822 0.0
C1110 C 0.48871 0.26589 0.50564 0.0
C1111 C 0.48996 0.2478 0.49765 0.0
C1112 C 0.50952 0.29674 0.50587 0.0
C1113 C 0.58318 0.35416 0.49468 0.0
H1114 H 0.55635 0.40981 0.50248 0.0
C1115 C 0.6594 0.48155 0.48952 0.0
C1116 C 0.66357 0.49768 0.49884 0.0
C1117 C 0.63584 0.45186 0.48869 0.0
C1118 C 0.56407 0.39447 0.50027 0.0
H1119 H 0.51425 0.24749 0.4838 0.0
H1120 H 0.54971 0.30091 0.48402 0.0
H1121 H 0.52102 0.35579 0.50307 0.0
H1122 H 0.64521 0.49645 0.51425 0.0
H1123 H 0.60382 0.44498 0.5127 0.0
H1124 H 0.62609 0.39288 0.49177 0.0
C1125 C 0.53325 0.29156 0.49024 0.0
C1126 C 0.54396 0.36353 0.5007 0.0
C1127 C 0.51273 0.26086 0.49007 0.0
C1128 C 0.64256 0.48445 0.50699 0.0
C1129 C 0.6188 0.45503 0.50609 0.0
C1130 C 0.6031 0.38502 0.49413 0.0
C1131 C 0.53183 0.31001 0.49809 0.0
C1132 C 0.55329 0.34296 0.49793 0.0
C1133 C 0.61583 0.43809 0.49709 0.0
C1134 C 0.5938 0.40549 0.49694 0.0
H1135 H 0.47141 0.25632 0.5116 0.0
H1136 H 0.50806 0.31017 0.51213 0.0
H1137 H 0.5914 0.33908 0.4927 0.0
H1138 H 0.67537 0.49115 0.48315 0.0
H1139 H 0.63384 0.43931 0.48162 0.0
C1140 C 0.51237 0.15743 0.48982 0.0
C1141 C 0.49675 0.14932 0.49937 0.0
C1142 C 0.54212 0.1637 0.48937 0.0
C1143 C 0.60224 0.15782 0.50273 0.0
H1144 H 0.65295 0.2399 0.49338 0.0
C1145 C 0.73164 0.22036 0.50796 0.0
C1146 C 0.74875 0.23941 0.49975 0.0
C1147 C 0.7004 0.20802 0.50812 0.0
C1148 C 0.63926 0.21677 0.49585 0.0
H1149 H 0.49876 0.13854 0.51567 0.0
H1150 H 0.55044 0.14865 0.51479 0.0
H1151 H 0.59875 0.21687 0.49216 0.0
H1152 H 0.7468 0.26091 0.48538 0.0
H1153 H 0.69282 0.23882 0.48544 0.0
H1154 H 0.64277 0.15746 0.50623 0.0
C1155 C 0.53988 0.15053 0.50771 0.0
C1156 C 0.60816 0.20361 0.49514 0.0
C1157 C 0.51035 0.14479 0.5082 0.0
C1158 C 0.73424 0.24638 0.49185 0.0
C1159 C 0.70317 0.23381 0.49192 0.0
C1160 C 0.6335 0.17083 0.50326 0.0
C1161 C 0.55644 0.16138 0.49842 0.0
C1162 C 0.58936 0.17405 0.49856 0.0
C1163 C 0.68573 0.21433 0.50002 0.0
C1164 C 0.65243 0.20052 0.49982 0.0
H1165 H 0.50254 0.16136 0.48291 0.0
H1166 H 0.55444 0.17186 0.4821 0.0
H1167 H 0.58813 0.13502 0.50547 0.0
H1168 H 0.74232 0.21468 0.51416 0.0
H1169 H 0.68779 0.19353 0.51458 0.0
C1170 C 0.8366 0.43289 0.67108 0.0
C1171 C 0.8646 0.45128 0.67579 0.0
C1172 C 0.8154 0.44237 0.67057 0.0
C1173 C 0.77929 0.47372 0.66656 0.0
H1174 H 0.77246 0.51382 0.69131 0.0
C1175 C 0.69833 0.5193 0.66718 0.0
C1176 C 0.6799 0.51239 0.67606 0.0
C1177 C 0.72341 0.51568 0.66732 0.0
C1178 C 0.77401 0.50256 0.68436 0.0
H1179 H 0.89333 0.49458 0.683 0.0
H1180 H 0.85679 0.51137 0.68189 0.0
H1181 H 0.81041 0.49867 0.69069 0.0
H1182 H 0.67423 0.49806 0.69227 0.0
H1183 H 0.71812 0.49137 0.69252 0.0
H1184 H 0.74227 0.47669 0.66037 0.0
C1185 C 0.85069 0.48934 0.67889 0.0
C1186 C 0.79597 0.49416 0.68395 0.0
C1187 C 0.8717 0.47982 0.67945 0.0
C1188 C 0.68819 0.50374 0.68534 0.0
C1189 C 0.71327 0.49985 0.68546 0.0
C1190 C 0.75733 0.48209 0.66698 0.0
C1191 C 0.82201 0.47044 0.6747 0.0
C1192 C 0.79886 0.47964 0.67504 0.0
C1193 C 0.73051 0.50477 0.67632 0.0
C1194 C 0.75444 0.49664 0.67588 0.0
H1195 H 0.83061 0.41075 0.66823 0.0
H1196 H 0.79346 0.42722 0.66732 0.0
H1197 H 0.78102 0.46277 0.65956 0.0
H1198 H 0.69265 0.52636 0.65995 0.0
H1199 H 0.7367 0.5205 0.66025 0.0
C1200 C 0.48499 0.17912 0.66624 0.0
C1201 C 0.49278 0.16699 0.67473 0.0
C1202 C 0.48922 0.20804 0.66679 0.0
C1203 C 0.50585 0.27138 0.6846 0.0
H1204 H 0.54116 0.31863 0.65948 0.0
C1205 C 0.57212 0.4038 0.67109 0.0
C1206 C 0.55442 0.41323 0.67641 0.0
C1207 C 0.56305 0.37322 0.67059 0.0
C1208 C 0.53152 0.30583 0.66658 0.0
H1209 H 0.50951 0.17484 0.69066 0.0
H1210 H 0.51738 0.22584 0.6916 0.0
H1211 H 0.52733 0.26595 0.65978 0.0
H1212 H 0.51272 0.39838 0.68481 0.0
H1213 H 0.49658 0.34518 0.68373 0.0
H1214 H 0.511 0.31158 0.6915 0.0
C1215 C 0.50768 0.21282 0.68455 0.0
C1216 C 0.52318 0.27549 0.66671 0.0
C1217 C 0.50313 0.18361 0.68404 0.0
C1218 C 0.52697 0.39167 0.68078 0.0
C1219 C 0.51784 0.36122 0.68023 0.0
C1220 C 0.51427 0.30177 0.68447 0.0
C1221 C 0.5017 0.22568 0.67579 0.0
C1222 C 0.51014 0.25786 0.67571 0.0
C1223 C 0.53605 0.35164 0.67534 0.0
C1224 C 0.52714 0.31934 0.67544 0.0
H1225 H 0.47661 0.16663 0.659 0.0
H1226 H 0.48354 0.21691 0.66001 0.0
H1227 H 0.49579 0.25843 0.69164 0.0
H1228 H 0.59341 0.42006 0.66767 0.0
H1229 H 0.57767 0.3666 0.66679 0.0
C1230 C 0.8231 0.30462 0.66934 0.0
C1231 C 0.8337 0.3245 0.67788 0.0
C1232 C 0.79405 0.2801 0.66933 0.0
C1233 C 0.72749 0.2326 0.68557 0.0
H1234 H 0.68517 0.22309 0.65937 0.0
C1235 C 0.59809 0.16544 0.66885 0.0
C1236 C 0.58857 0.13743 0.67355 0.0
C1237 C 0.62844 0.18776 0.66918 0.0
C1238 C 0.69659 0.22556 0.66676 0.0
H1239 H 0.82293 0.33331 0.69341 0.0
H1240 H 0.77169 0.29017 0.69341 0.0
H1241 H 0.73756 0.26226 0.661 0.0
H1242 H 0.60327 0.1101 0.68174 0.0
H1243 H 0.65603 0.14871 0.68217 0.0
H1244 H 0.68626 0.1962 0.69137 0.0
C1245 C 0.78603 0.29359 0.68672 0.0
C1246 C 0.72673 0.24776 0.66766 0.0
C1247 C 0.81537 0.31819 0.68676 0.0
C1248 C 0.60997 0.13164 0.67815 0.0
C1249 C 0.64016 0.15383 0.67848 0.0
C1250 C 0.69732 0.2103 0.68465 0.0
C1251 C 0.77476 0.27495 0.67783 0.0
C1252 C 0.7426 0.25141 0.67704 0.0
C1253 C 0.64969 0.18237 0.67421 0.0
C1254 C 0.68158 0.20643 0.67521 0.0
H1255 H 0.83689 0.30875 0.66243 0.0
H1256 H 0.78635 0.26569 0.66249 0.0
H1257 H 0.73909 0.23482 0.69289 0.0
H1258 H 0.582 0.17047 0.66528 0.0
H1259 H 0.63507 0.20956 0.66584 0.0
C1260 C 0.56303 0.16136 0.16823 0.0
C1261 C 0.54484 0.1333 0.17292 0.0
C1262 C 0.55292 0.18203 0.16745 0.0
C1263 C 0.52129 0.2176 0.16302 0.0
H1264 H 0.47787 0.22244 0.18712 0.0
C1265 C 0.47679 0.29964 0.16323 0.0
C1266 C 0.48205 0.31681 0.17236 0.0
C1267 C 0.48006 0.27432 0.16326 0.0
C1268 C 0.49005 0.22146 0.18035 0.0
H1269 H 0.50128 0.10386 0.17981 0.0
H1270 H 0.48333 0.13941 0.1782 0.0
H1271 H 0.49353 0.18492 0.18675 0.0
H1272 H 0.49322 0.32006 0.18885 0.0
H1273 H 0.4994 0.27592 0.18892 0.0
H1274 H 0.51894 0.25494 0.15681 0.0
C1275 C 0.5057 0.14602 0.17543 0.0
C1276 C 0.49874 0.1997 0.18007 0.0
C1277 C 0.51588 0.12556 0.17628 0.0
C1278 C 0.48874 0.30705 0.18173 0.0
C1279 C 0.49235 0.2818 0.18174 0.0
C1280 C 0.51271 0.23942 0.16332 0.0
C1281 C 0.52438 0.17482 0.17128 0.0
C1282 C 0.51453 0.19754 0.17141 0.0
C1283 C 0.48906 0.26577 0.17241 0.0
C1284 C 0.49702 0.24167 0.17199 0.0
H1285 H 0.5855 0.16784 0.1656 0.0
H1286 H 0.56796 0.20407 0.16426 0.0
H1287 H 0.5332 0.21644 0.1562 0.0
H1288 H 0.47133 0.30651 0.15591 0.0
H1289 H 0.4765 0.26202 0.15601 0.0
C1290 C 0.83432 0.40206 0.16884 0.0
C1291 C 0.8619 0.4111 0.1738 0.0
C1292 C 0.81196 0.37172 0.16879 0.0
C1293 C 0.77379 0.30395 0.16567 0.0
H1294 H 0.76293 0.25897 0.19131 0.0
C1295 C 0.6925 0.17753 0.16701 0.0
C1296 C 0.67282 0.1664 0.1756 0.0
C1297 C 0.71727 0.20643 0.1672 0.0
C1298 C 0.76558 0.27126 0.18412 0.0
H1299 H 0.88851 0.39564 0.18203 0.0
H1300 H 0.84988 0.34283 0.18175 0.0
H1301 H 0.80208 0.31168 0.19037 0.0
H1302 H 0.66455 0.17609 0.19136 0.0
H1303 H 0.70803 0.22709 0.19169 0.0
H1304 H 0.73687 0.26383 0.15949 0.0
C1305 C 0.84507 0.35906 0.17817 0.0
C1306 C 0.78821 0.30137 0.18353 0.0
C1307 C 0.86728 0.38927 0.17825 0.0
C1308 C 0.67949 0.18407 0.18467 0.0
C1309 C 0.70431 0.21327 0.18483 0.0
C1310 C 0.7512 0.27388 0.16625 0.0
C1311 C 0.8169 0.34997 0.17366 0.0
C1312 C 0.79266 0.31803 0.17428 0.0
C1313 C 0.72287 0.22507 0.17594 0.0
C1314 C 0.74692 0.25711 0.17546 0.0
H1315 H 0.8296 0.4185 0.16538 0.0
H1316 H 0.79045 0.36547 0.16527 0.0
H1317 H 0.77669 0.31606 0.15842 0.0
H1318 H 0.68813 0.16425 0.15995 0.0
H1319 H 0.7316 0.21449 0.16035 0.0
C1320 C 0.81574 0.49488 0.18454 0.0
C1321 C 0.83182 0.50536 0.17513 0.0
C1322 C 0.78598 0.48859 0.18513 0.0
C1323 C 0.72774 0.49971 0.1726 0.0
H1324 H 0.67387 0.41738 0.18104 0.0
C1325 C 0.5988 0.44307 0.16714 0.0
C1326 C 0.581 0.42395 0.17523 0.0
C1327 C 0.62982 0.45398 0.167 0.0
C1328 C 0.68849 0.44058 0.17882 0.0
H1329 H 0.83045 0.51988 0.15928 0.0
H1330 H 0.7788 0.50957 0.16042 0.0
H1331 H 0.72782 0.43784 0.18215 0.0
H1332 H 0.58144 0.40076 0.18937 0.0
H1333 H 0.63511 0.4203 0.18932 0.0
H1334 H 0.68843 0.50266 0.16942 0.0
C1335 C 0.78899 0.5059 0.16728 0.0
C1336 C 0.71945 0.45228 0.17947 0.0
C1337 C 0.8185 0.5117 0.16662 0.0
C1338 C 0.59456 0.41542 0.18301 0.0
C1339 C 0.62542 0.42651 0.18294 0.0
C1340 C 0.69668 0.48813 0.17209 0.0
C1341 C 0.77209 0.49321 0.1764 0.0
C1342 C 0.73937 0.48192 0.17636 0.0
C1343 C 0.64356 0.44608 0.17497 0.0
C1344 C 0.67664 0.45838 0.17519 0.0
H1345 H 0.8254 0.48964 0.19119 0.0
H1346 H 0.77344 0.47904 0.19229 0.0
H1347 H 0.74268 0.52263 0.17014 0.0
H1348 H 0.58885 0.44992 0.16104 0.0
H1349 H 0.64299 0.46861 0.16065 0.0
C1350 C 0.63622 0.15292 0.00481 0.0
C1351 C 0.65691 0.16042 0.99658 0.0
C1352 C 0.61287 0.15922 0.00409 0.0
C1353 C 0.59866 0.215 0.99247 0.0
H1354 H 0.51688 0.16419 1.00208 0.0
C1355 C 0.51038 0.25202 0.98953 0.0
C1356 C 0.48809 0.24271 0.99727 0.0
C1357 C 0.5305 0.24133 0.98948 0.0
C1358 C 0.53977 0.17883 0.99953 0.0
H1359 H 0.66847 0.17882 0.98089 0.0
H1360 H 0.62762 0.1902 0.97966 0.0
H1361 H 0.55082 0.14392 1.00102 0.0
H1362 H 0.47013 0.216 0.01133 0.0
H1363 H 0.50608 0.19793 0.01148 0.0
H1364 H 0.58827 0.25022 0.99131 0.0
C1365 C 0.62955 0.17939 0.98666 0.0
C1366 C 0.55908 0.1671 0.99883 0.0
C1367 C 0.65271 0.17262 0.98732 0.0
C1368 C 0.48707 0.22345 0.00525 0.0
C1369 C 0.50745 0.21287 0.00526 0.0
C1370 C 0.57953 0.22683 0.99329 0.0
C1371 C 0.60999 0.17357 0.99518 0.0
C1372 C 0.58869 0.18506 0.99526 0.0
C1373 C 0.52912 0.22132 0.99726 0.0
C1374 C 0.54978 0.2089 0.9968 0.0
H1375 H 0.63895 0.14345 0.01204 0.0
H1376 H 0.59823 0.15459 0.01078 0.0
H1377 H 0.62159 0.22957 0.98993 0.0
H1378 H 0.51173 0.26689 0.98327 0.0
H1379 H 0.54651 0.24807 0.98312 0.0
C1380 C 0.76505 0.26343 0.00395 0.0
C1381 C 0.78314 0.2534 0.99928 0.0
C1382 C 0.77474 0.29419 0.00431 0.0
C1383 C 0.80669 0.36174 0.00819 0.0
H1384 H 0.8473 0.40851 0.98348 0.0
C1385 C 0.85319 0.48853 0.00766 0.0
C1386 C 0.84671 0.50026 0.99874 0.0
C1387 C 0.84945 0.45975 0.00751 0.0
C1388 C 0.83591 0.39577 0.99042 0.0
H1389 H 0.8261 0.26742 0.9919 0.0
H1390 H 0.84326 0.32088 0.99274 0.0
H1391 H 0.83139 0.35521 0.98407 0.0
H1392 H 0.83295 0.49187 0.98247 0.0
H1393 H 0.82604 0.44121 0.98221 0.0
H1394 H 0.81025 0.40197 0.0144 0.0
C1395 C 0.82129 0.30519 0.99584 0.0
C1396 C 0.82706 0.36527 0.99082 0.0
C1397 C 0.81156 0.27457 0.99544 0.0
C1398 C 0.8384 0.48347 0.98943 0.0
C1399 C 0.83435 0.45441 0.98931 0.0
C1400 C 0.81549 0.3922 0.00779 0.0
C1401 C 0.80275 0.31538 1.00006 0.0
C1402 C 0.81235 0.34788 0.99971 0.0
C1403 C 0.83877 0.44184 0.99848 0.0
C1404 C 0.83025 0.40962 0.99891 0.0
H1405 H 0.743 0.24751 0.00694 0.0
H1406 H 0.75983 0.30125 0.00757 0.0
H1407 H 0.79562 0.34911 0.01518 0.0
H1408 H 0.85989 0.50112 0.01493 0.0
H1409 H 0.8539 0.45112 0.01462 0.0
C1410 C 0.51076 0.35138 0.9879 0.0
C1411 C 0.49606 0.345 0.99762 0.0
C1412 C 0.54044 0.37487 0.98702 0.0
C1413 C 0.60113 0.44249 0.99971 0.0
H1414 H 0.65235 0.41238 0.98978 0.0
C1415 C 0.73019 0.50997 0.00512 0.0
C1416 C 0.74763 0.50891 0.99685 0.0
C1417 C 0.69901 0.49079 0.00515 0.0
C1418 C 0.63849 0.42145 0.99241 0.0
H1419 H 0.49958 0.35947 0.01376 0.0
H1420 H 0.55104 0.401 0.01214 0.0
H1421 H 0.59815 0.38054 0.98881 0.0
H1422 H 0.74635 0.48664 0.98226 0.0
H1423 H 0.69239 0.45416 0.98212 0.0
H1424 H 0.64144 0.48359 1.0032 0.0
C1425 C 0.53988 0.38778 0.00525 0.0
C1426 C 0.60738 0.40315 0.99183 0.0
C1427 C 0.51048 0.36401 0.00618 0.0
C1428 C 0.73352 0.48793 0.98877 0.0
C1429 C 0.70247 0.46912 0.98872 0.0
C1430 C 0.63234 0.46105 1.00014 0.0
C1431 C 0.55556 0.39261 0.99579 0.0
C1432 C 0.5884 0.4134 0.99552 0.0
C1433 C 0.68471 0.47038 0.99686 0.0
C1434 C 0.65145 0.4507 0.99654 0.0
H1435 H 0.50022 0.33685 0.98122 0.0
H1436 H 0.55205 0.37832 0.97962 0.0
H1437 H 0.58692 0.45087 1.00263 0.0
H1438 H 0.74056 0.52591 0.01146 0.0
H1439 H 0.68614 0.49202 0.01165 0.0
C1440 C 0.44049 0.84474 0.83927 0.0
C1441 C 0.42263 0.84417 0.83086 0.0
C1442 C 0.45134 0.82459 0.83957 0.0
C1443 C 0.4403 0.75388 0.82715 0.0
H1444 H 0.5204 0.78076 0.8378 0.0
C1445 C 0.49645 0.68203 0.82264 0.0
C1446 C 0.50388 0.6748 0.83237 0.0
C1447 C 0.4904 0.70565 0.82187 0.0
C1448 C 0.49806 0.7731 0.83476 0.0
H1449 H 0.40153 0.82174 0.8163 0.0
H1450 H 0.42111 0.7877 0.81659 0.0
H1451 H 0.50021 0.81486 0.83819 0.0
H1452 H 0.51316 0.68772 0.84871 0.0
H1453 H 0.50354 0.7295 0.84728 0.0
H1454 H 0.43847 0.71235 0.82356 0.0
C1455 C 0.42632 0.80297 0.82312 0.0
C1456 C 0.48631 0.79245 0.83509 0.0
C1457 C 0.41522 0.82271 0.82291 0.0
C1458 C 0.50744 0.6929 0.84111 0.0
C1459 C 0.50203 0.71683 0.8403 0.0
C1460 C 0.45224 0.73481 0.82666 0.0
C1461 C 0.44472 0.8037 0.8314 0.0
C1462 C 0.4572 0.78305 0.83131 0.0
C1463 C 0.49236 0.7227 0.83077 0.0
C1464 C 0.48116 0.74417 0.83049 0.0
H1465 H 0.44646 0.86104 0.84552 0.0
H1466 H 0.46498 0.82548 0.84617 0.0
H1467 H 0.41757 0.7455 0.82439 0.0
H1468 H 0.49331 0.66821 0.81582 0.0
H1469 H 0.48309 0.70989 0.81442 0.0
C1470 C 0.15334 0.60128 0.84203 0.0
C1471 C 0.15484 0.58316 0.8341 0.0
C1472 C 0.17283 0.63245 0.84189 0.0
C1473 C 0.24345 0.69163 0.8293 0.0
H1474 H 0.21398 0.74465 0.83778 0.0
C1475 C 0.31313 0.81856 0.82235 0.0
C1476 C 0.31962 0.83493 0.83173 0.0
C1477 C 0.2898 0.78868 0.82202 0.0
C1478 C 0.22238 0.73002 0.83535 0.0
H1479 H 0.17824 0.58323 0.81995 0.0
H1480 H 0.2112 0.63706 0.81949 0.0
H1481 H 0.18103 0.69024 0.83907 0.0
H1482 H 0.30558 0.83405 0.84779 0.0
H1483 H 0.26424 0.78222 0.84709 0.0
H1484 H 0.28457 0.73142 0.82542 0.0
C1485 C 0.19567 0.62757 0.82598 0.0
C1486 C 0.20368 0.69888 0.8362 0.0
C1487 C 0.17656 0.59658 0.8262 0.0
C1488 C 0.30091 0.82186 0.84046 0.0
C1489 C 0.27727 0.79225 0.84006 0.0
C1490 C 0.26188 0.72263 0.8283 0.0
C1491 C 0.19401 0.64603 0.83376 0.0
C1492 C 0.21399 0.67925 0.83319 0.0
C1493 C 0.27232 0.775 0.83098 0.0
C1494 C 0.25157 0.74214 0.83132 0.0
H1495 H 0.13683 0.59147 0.84823 0.0
H1496 H 0.17122 0.64586 0.84812 0.0
H1497 H 0.25253 0.6774 0.82714 0.0
H1498 H 0.32747 0.82803 0.81556 0.0
H1499 H 0.28626 0.77583 0.8149 0.0
C1500 C 0.40014 0.55492 0.83989 0.0
C1501 C 0.41252 0.55718 0.8299 0.0
C1502 C 0.36917 0.54377 0.84099 0.0
C1503 C 0.304 0.53444 0.82586 0.0
H1504 H 0.25595 0.47616 0.84708 0.0
C1505 C 0.17647 0.4852 0.82681 0.0
C1506 C 0.16472 0.4855 0.83671 0.0
C1507 C 0.20537 0.48918 0.82592 0.0
C1508 C 0.2691 0.49253 0.84114 0.0
H1509 H 0.40248 0.54925 0.8133 0.0
H1510 H 0.34904 0.52997 0.81522 0.0
H1511 H 0.30995 0.49467 0.84617 0.0
H1512 H 0.17303 0.48761 0.85347 0.0
H1513 H 0.22318 0.49486 0.8519 0.0
H1514 H 0.26362 0.53294 0.82091 0.0
C1515 C 0.36295 0.53702 0.82219 0.0
C1516 C 0.30002 0.5032 0.84066 0.0
C1517 C 0.3936 0.54796 0.8211 0.0
C1518 C 0.1815 0.48755 0.8457 0.0
C1519 C 0.21028 0.49152 0.84481 0.0
C1520 C 0.27323 0.5239 0.82636 0.0
C1521 C 0.35036 0.53499 0.83211 0.0
C1522 C 0.31775 0.52423 0.83299 0.0
C1523 C 0.22301 0.49347 0.83491 0.0
C1524 C 0.25535 0.50281 0.834 0.0
H1525 H 0.41431 0.5618 0.84679 0.0
H1526 H 0.36005 0.54255 0.84874 0.0
H1527 H 0.31715 0.55101 0.81996 0.0
H1528 H 0.1641 0.4836 0.81974 0.0
H1529 H 0.21432 0.48996 0.81817 0.0
C1530 C 0.50605 0.77496 1.00216 0.0
C1531 C 0.53425 0.7925 0.00685 0.0
C1532 C 0.48594 0.78576 1.00149 0.0
C1533 C 0.45185 0.8187 0.9971 0.0
H1534 H 0.4468 0.86138 0.02139 0.0
C1535 C 0.36823 0.86104 0.99764 0.0
C1536 C 0.3509 0.85486 0.00678 0.0
C1537 C 0.39422 0.85894 0.99763 0.0
C1538 C 0.44787 0.84945 0.01456 0.0
H1539 H 0.5644 0.83561 0.01393 0.0
H1540 H 0.52971 0.85473 0.01254 0.0
H1541 H 0.48418 0.8455 0.02094 0.0
H1542 H 0.3481 0.84348 0.02324 0.0
H1543 H 0.39333 0.83924 0.02321 0.0
H1544 H 0.41469 0.82136 0.99091 0.0
C1545 C 0.52265 0.83235 0.00966 0.0
C1546 C 0.46954 0.84063 0.01424 0.0
C1547 C 0.5426 0.82149 0.01038 0.0
C1548 C 0.3612 0.84862 0.01611 0.0
C1549 C 0.3871 0.84614 0.01607 0.0
C1550 C 0.43013 0.8274 0.99743 0.0
C1551 C 0.4938 0.81437 0.00543 0.0
C1552 C 0.47165 0.82495 0.00553 0.0
C1553 C 0.40327 0.85017 0.00672 0.0
C1554 C 0.42773 0.84273 0.00619 0.0
H1555 H 0.49907 0.75249 0.9994 0.0
H1556 H 0.46383 0.7712 0.99826 0.0
H1557 H 0.45302 0.80694 0.99023 0.0
H1558 H 0.36094 0.8662 0.99036 0.0
H1559 H 0.4066 0.86306 0.99037 0.0
C1560 C 0.22327 0.7328 1.00164 0.0
C1561 C 0.24287 0.75058 0.00964 0.0
C1562 C 0.21049 0.70153 1.00188 0.0
C1563 C 0.21774 0.64047 0.015 0.0
H1564 H 0.13553 0.59056 0.00562 0.0
C1565 C 0.15592 0.51309 0.02091 0.0
C1566 C 0.14758 0.49792 0.01128 0.0
C1567 C 0.16286 0.54306 0.02152 0.0
C1568 C 0.15844 0.60432 0.00832 0.0
H1569 H 0.26513 0.7498 0.02397 0.0
H1570 H 0.24229 0.69569 0.02459 0.0
H1571 H 0.15921 0.64521 0.00451 0.0
H1572 H 0.13737 0.50087 0.995 0.0
H1573 H 0.14837 0.55281 0.99617 0.0
H1574 H 0.21669 0.59952 0.01895 0.0
C1575 C 0.23712 0.70555 0.01799 0.0
C1576 C 0.17218 0.63559 0.00757 0.0
C1577 C 0.25016 0.73669 0.01767 0.0
C1578 C 0.14359 0.51213 1.00253 0.0
C1579 C 0.14989 0.54181 1.0032 0.0
C1580 C 0.20384 0.60932 0.01591 0.0
C1581 C 0.21685 0.68745 0.01017 0.0
C1582 C 0.20211 0.6541 0.01085 0.0
C1583 C 0.16092 0.55795 0.01257 0.0
C1584 C 0.17414 0.59095 0.01253 0.0
H1585 H 0.21735 0.74298 0.99534 0.0
H1586 H 0.19549 0.68842 0.99559 0.0
H1587 H 0.24098 0.6538 0.01739 0.0
H1588 H 0.15958 0.50272 0.02771 0.0
H1589 H 0.17123 0.55507 0.02884 0.0
C1590 C 0.26255 0.49045 0.0047 0.0
C1591 C 0.24453 0.49138 0.01278 0.0
C1592 C 0.29342 0.51122 0.00449 0.0
C1593 C 0.35107 0.58441 0.01597 0.0
H1594 H 0.40644 0.55775 0.00763 0.0
C1595 C 0.4789 0.66071 0.02052 0.0
C1596 C 0.49467 0.66458 0.01114 0.0
C1597 C 0.44914 0.63733 0.02147 0.0
C1598 C 0.39119 0.56545 0.00999 0.0
H1599 H 0.24438 0.51512 0.02681 0.0
H1600 H 0.29782 0.55052 0.02663 0.0
H1601 H 0.35244 0.52249 0.00714 0.0
H1602 H 0.49266 0.64592 0.99572 0.0
H1603 H 0.44113 0.60491 0.99747 0.0
H1604 H 0.38987 0.62725 0.01891 0.0
C1605 C 0.2884 0.53432 0.02032 0.0
C1606 C 0.36025 0.54536 0.00962 0.0
C1607 C 0.25769 0.51383 0.02047 0.0
C1608 C 0.48096 0.64352 1.00303 0.0
C1609 C 0.4515 0.61995 0.00404 0.0
C1610 C 0.38195 0.60433 0.01646 0.0
C1611 C 0.30679 0.5332 0.01239 0.0
C1612 C 0.33976 0.55462 0.01257 0.0
C1613 C 0.43495 0.61719 0.01313 0.0
C1614 C 0.40234 0.59512 0.01343 0.0
H1615 H 0.25293 0.47339 0.99866 0.0
H1616 H 0.30679 0.51 0.99817 0.0
H1617 H 0.33605 0.59258 0.01811 0.0
H1618 H 0.48889 0.67673 0.02686 0.0
H1619 H 0.43692 0.63551 0.0286 0.0
C1620 C 0.23376 0.49705 0.50198 0.0
C1621 C 0.21511 0.46937 0.50686 0.0
C1622 C 0.22539 0.51912 0.5017 0.0
C1623 C 0.1954 0.55672 0.49808 0.0
H1624 H 0.15864 0.56639 0.52324 0.0
C1625 C 0.14945 0.63742 0.4987 0.0
C1626 C 0.15697 0.65666 0.50739 0.0
C1627 C 0.15374 0.61275 0.49896 0.0
C1628 C 0.16901 0.56408 0.51618 0.0
H1629 H 0.17244 0.44223 0.51468 0.0
H1630 H 0.15759 0.4803 0.514 0.0
H1631 H 0.17284 0.52771 0.52259 0.0
H1632 H 0.17329 0.66424 0.52338 0.0
H1633 H 0.18112 0.62101 0.52382 0.0
H1634 H 0.19234 0.59357 0.49176 0.0
C1635 C 0.17901 0.48545 0.51066 0.0
C1636 C 0.17686 0.5417 0.51576 0.0
C1637 C 0.18741 0.46356 0.51098 0.0
C1638 C 0.16712 0.64965 0.5166 0.0
C1639 C 0.17167 0.62495 0.51683 0.0
C1640 C 0.18756 0.57907 0.4985 0.0
C1641 C 0.19818 0.51375 0.50625 0.0
C1642 C 0.19005 0.53769 0.50668 0.0
C1643 C 0.16593 0.60684 0.50787 0.0
C1644 C 0.17414 0.58293 0.50753 0.0
H1645 H 0.25528 0.50208 0.49877 0.0
H1646 H 0.24073 0.54073 0.49827 0.0
H1647 H 0.20535 0.55414 0.49096 0.0
H1648 H 0.14121 0.64206 0.49153 0.0
H1649 H 0.14827 0.59877 0.49204 0.0
C1650 C 0.49927 0.73366 0.50198 0.0
C1651 C 0.52705 0.74321 0.50685 0.0
C1652 C 0.47756 0.7031 0.50179 0.0
C1653 C 0.44084 0.63531 0.49841 0.0
H1654 H 0.43151 0.59019 0.52389 0.0
C1655 C 0.36043 0.50875 0.49969 0.0
C1656 C 0.34092 0.49765 0.50832 0.0
C1657 C 0.38529 0.5376 0.49986 0.0
C1658 C 0.43376 0.6025 0.51674 0.0
H1659 H 0.55481 0.72851 0.51473 0.0
H1660 H 0.51731 0.67534 0.51422 0.0
H1661 H 0.46992 0.64317 0.52299 0.0
H1662 H 0.33307 0.50726 0.52415 0.0
H1663 H 0.37667 0.55813 0.52446 0.0
H1664 H 0.40422 0.59494 0.49225 0.0
C1665 C 0.51182 0.69131 0.51082 0.0
C1666 C 0.45596 0.63277 0.51617 0.0
C1667 C 0.53337 0.72173 0.51104 0.0
C1668 C 0.34789 0.51522 0.51743 0.0
C1669 C 0.37278 0.54435 0.51757 0.0
C1670 C 0.41869 0.60507 0.49897 0.0
C1671 C 0.4834 0.68167 0.50643 0.0
C1672 C 0.45979 0.6495 0.50699 0.0
C1673 C 0.3911 0.55618 0.50864 0.0
C1674 C 0.41495 0.58827 0.50813 0.0
H1675 H 0.49389 0.74984 0.49871 0.0
H1676 H 0.45584 0.6964 0.49836 0.0
H1677 H 0.4433 0.64749 0.49121 0.0
H1678 H 0.35579 0.49553 0.4926 0.0
H1679 H 0.39943 0.54571 0.49297 0.0
C1680 C 0.4799 0.82904 0.51718 0.0
C1681 C 0.49743 0.83977 0.50807 0.0
C1682 C 0.45073 0.82471 0.51734 0.0
C1683 C 0.39002 0.81004 0.49871 0.0
H1684 H 0.3519 0.82334 0.52267 0.0
C1685 C 0.2741 0.80981 0.51045 0.0
C1686 C 0.25239 0.78226 0.50616 0.0
C1687 C 0.30438 0.81813 0.51036 0.0
C1688 C 0.3623 0.81972 0.51588 0.0
H1689 H 0.4995 0.85688 0.49238 0.0
H1690 H 0.4493 0.85023 0.49277 0.0
H1691 H 0.40475 0.83748 0.52367 0.0
H1692 H 0.24527 0.74232 0.49799 0.0
H1693 H 0.29847 0.75678 0.49785 0.0
H1694 H 0.34777 0.79267 0.49086 0.0
C1695 C 0.45742 0.84415 0.49965 0.0
C1696 C 0.39249 0.82754 0.5165 0.0
C1697 C 0.48629 0.84822 0.49947 0.0
C1698 C 0.26162 0.76372 0.50132 0.0
C1699 C 0.29204 0.77203 0.50125 0.0
C1700 C 0.35986 0.80221 0.49809 0.0
C1701 C 0.43885 0.83124 0.50842 0.0
C1702 C 0.40675 0.82296 0.5079 0.0
C1703 C 0.31366 0.79904 0.50599 0.0
C1704 C 0.34567 0.80707 0.50665 0.0
H1705 H 0.4879 0.82214 0.52388 0.0
H1706 H 0.43695 0.81472 0.52422 0.0
H1707 H 0.40016 0.80569 0.492 0.0
H1708 H 0.26758 0.82468 0.51413 0.0
H1709 H 0.3205 0.83941 0.51383 0.0
C1710 C 0.17697 0.58376 0.32183 0.0
C1711 C 0.15526 0.57486 0.32976 0.0
C1712 C 0.19692 0.57287 0.3216 0.0
C1713 C 0.20726 0.51107 0.33179 0.0
H1714 H 0.28885 0.56235 0.32205 0.0
C1715 C 0.30505 0.48778 0.3379 0.0
C1716 C 0.32586 0.49505 0.32972 0.0
C1717 C 0.28137 0.49353 0.33695 0.0
C1718 C 0.26598 0.54762 0.32462 0.0
H1719 H 0.13802 0.54844 0.34391 0.0
H1720 H 0.17368 0.53005 0.34375 0.0
H1721 H 0.25487 0.58227 0.32317 0.0
H1722 H 0.33734 0.51248 0.31391 0.0
H1723 H 0.29594 0.52293 0.31227 0.0
H1724 H 0.21907 0.47679 0.33361 0.0
C1725 C 0.17472 0.54482 0.33752 0.0
C1726 C 0.24647 0.55902 0.32529 0.0
C1727 C 0.15449 0.55556 0.33769 0.0
C1728 C 0.32152 0.50651 0.32031 0.0
C1729 C 0.29803 0.51272 0.31941 0.0
C1730 C 0.22695 0.49977 0.33124 0.0
C1731 C 0.19596 0.55307 0.32939 0.0
C1732 C 0.21684 0.54093 0.32888 0.0
C1733 C 0.27828 0.50707 0.32785 0.0
C1734 C 0.2565 0.51796 0.32765 0.0
H1735 H 0.17807 0.59858 0.31559 0.0
H1736 H 0.21257 0.5794 0.31513 0.0
H1737 H 0.18447 0.49631 0.33441 0.0
H1738 H 0.30784 0.47884 0.34523 0.0
H1739 H 0.2666 0.48906 0.34358 0.0
C1740 C 0.4354 0.59775 0.33788 0.0
C1741 C 0.45333 0.58743 0.33328 0.0
C1742 C 0.4459 0.62861 0.33858 0.0
C1743 C 0.47828 0.69558 0.34315 0.0
H1744 H 0.52252 0.74421 0.31923 0.0
C1745 C 0.52152 0.82163 0.34325 0.0
C1746 C 0.51616 0.83344 0.33411 0.0
C1747 C 0.51918 0.79344 0.34314 0.0
C1748 C 0.51014 0.73095 0.32595 0.0
H1749 H 0.49679 0.60089 0.32642 0.0
H1750 H 0.51541 0.65457 0.3279 0.0
H1751 H 0.5064 0.69088 0.31948 0.0
H1752 H 0.50597 0.826 0.31755 0.0
H1753 H 0.50125 0.77627 0.31735 0.0
H1754 H 0.48074 0.73522 0.34942 0.0
C1755 C 0.49295 0.63907 0.33066 0.0
C1756 C 0.50118 0.70042 0.32616 0.0
C1757 C 0.48238 0.60833 0.32988 0.0
C1758 C 0.51052 0.81749 0.32467 0.0
C1759 C 0.50774 0.78897 0.32459 0.0
C1760 C 0.4871 0.72604 0.34292 0.0
C1761 C 0.47461 0.64962 0.33478 0.0
C1762 C 0.485 0.68232 0.33474 0.0
C1763 C 0.5109 0.77615 0.33392 0.0
C1764 C 0.50306 0.74411 0.33431 0.0
H1765 H 0.41288 0.58203 0.34053 0.0
H1766 H 0.43108 0.63592 0.34174 0.0
H1767 H 0.46613 0.68242 0.34992 0.0
H1768 H 0.52616 0.83363 0.35061 0.0
H1769 H 0.52267 0.78468 0.35039 0.0
C1770 C 0.17313 0.69102 0.3235 0.0
C1771 C 0.15984 0.68166 0.33342 0.0
C1772 C 0.20259 0.71488 0.32263 0.0
C1773 C 0.26577 0.77839 0.33607 0.0
H1774 H 0.31382 0.74872 0.32291 0.0
C1775 C 0.39547 0.84138 0.33969 0.0
C1776 C 0.4117 0.84106 0.3309 0.0
C1777 C 0.36415 0.82329 0.33994 0.0
C1778 C 0.30088 0.75775 0.32644 0.0
H1779 H 0.16554 0.69165 0.35004 0.0
H1780 H 0.21668 0.73386 0.34846 0.0
H1781 H 0.25947 0.71835 0.32254 0.0
H1782 H 0.40809 0.82149 0.31553 0.0
H1783 H 0.3539 0.79105 0.31578 0.0
H1784 H 0.30717 0.81805 0.33986 0.0
C1785 C 0.20455 0.72258 0.3414 0.0
C1786 C 0.26966 0.74027 0.32622 0.0
C1787 C 0.17532 0.69842 0.3423 0.0
C1788 C 0.39621 0.82208 0.32246 0.0
C1789 C 0.36502 0.80444 0.32263 0.0
C1790 C 0.29711 0.79622 0.33614 0.0
C1791 C 0.21893 0.73005 0.33162 0.0
C1792 C 0.25181 0.75032 0.33107 0.0
C1793 C 0.34848 0.80481 0.33135 0.0
C1794 C 0.3151 0.78604 0.33136 0.0
H1795 H 0.1618 0.67835 0.31654 0.0
H1796 H 0.2132 0.72042 0.31499 0.0
H1797 H 0.25243 0.78654 0.33991 0.0
H1798 H 0.40693 0.85581 0.34631 0.0
H1799 H 0.35227 0.82379 0.34687 0.0
C1800 C 0.18283 0.28574 0.18156 0.0
C1801 C 0.16643 0.2892 0.17339 0.0
C1802 C 0.21412 0.30046 0.1812 0.0
C1803 C 0.2811 0.36274 0.1688 0.0
H1804 H 0.3169 0.31362 0.17492 0.0
C1805 C 0.40417 0.39906 0.15852 0.0
C1806 C 0.41997 0.3904 0.1653 0.0
C1807 C 0.37377 0.38909 0.16023 0.0
C1808 C 0.3074 0.32787 0.17336 0.0
H1809 H 0.17019 0.31177 0.15863 0.0
H1810 H 0.22498 0.33749 0.15801 0.0
H1811 H 0.26292 0.29221 0.17658 0.0
H1812 H 0.41678 0.36538 0.17937 0.0
H1813 H 0.36398 0.34866 0.18255 0.0
H1814 H 0.32567 0.39843 0.16556 0.0
C1815 C 0.21351 0.32341 0.1647 0.0
C1816 C 0.27641 0.31553 0.17429 0.0
C1817 C 0.18212 0.30855 0.16503 0.0
C1818 C 0.40513 0.3724 0.17402 0.0
C1819 C 0.3748 0.3626 0.17577 0.0
C1820 C 0.3122 0.37518 0.16793 0.0
C1821 C 0.22979 0.31909 0.1727 0.0
C1822 C 0.26288 0.33277 0.17197 0.0
C1823 C 0.35859 0.37038 0.16879 0.0
C1824 C 0.32572 0.35782 0.17015 0.0
H1825 H 0.17154 0.27118 0.18816 0.0
H1826 H 0.22607 0.29706 0.18755 0.0
H1827 H 0.27132 0.37665 0.16706 0.0
H1828 H 0.41509 0.41294 0.15174 0.0
H1829 H 0.36196 0.39526 0.15463 0.0
C1830 C 0.6137 0.02412 0.17796 0.0
C1831 C 0.59801 0.02186 0.1687 0.0
C1832 C 0.62055 0.00185 0.18059 0.0
C1833 C 0.60411 0.92451 0.17375 0.0
H1834 H 0.68587 0.9546 0.18322 0.0
C1835 C 0.66924 0.8605 0.16918 0.0
C1836 C 0.68968 0.86376 0.17709 0.0
C1837 C 0.65346 0.87606 0.16977 0.0
C1838 C 0.66279 0.9457 0.18077 0.0
H1839 H 0.57621 0.99421 0.1551 0.0
H1840 H 0.58885 0.95576 0.1595 0.0
H1841 H 0.6668 0.98902 0.18136 0.0
H1842 H 0.708 0.88432 0.19218 0.0
H1843 H 0.68039 0.91125 0.19321 0.0
H1844 H 0.60072 0.88129 0.17278 0.0
C1845 C 0.59543 0.97434 0.16487 0.0
C1846 C 0.65181 0.96546 0.17971 0.0
C1847 C 0.58839 0.9965 0.16229 0.0
C1848 C 0.69266 0.88149 0.18589 0.0
C1849 C 0.67694 0.89706 0.18647 0.0
C1850 C 0.6152 0.90473 0.17476 0.0
C1851 C 0.61208 0.97701 0.17396 0.0
C1852 C 0.62248 0.95523 0.17605 0.0
C1853 C 0.65784 0.8952 0.17828 0.0
C1854 C 0.6448 0.91522 0.17814 0.0
H1855 H 0.62132 0.04343 0.18306 0.0
H1856 H 0.63296 0.00436 0.18774 0.0
H1857 H 0.58127 0.9158 0.17106 0.0
H1858 H 0.66635 0.84697 0.1623 0.0
H1859 H 0.63903 0.87431 0.1633 0.0
C1860 C 0.10861 0.81075 0.18239 0.0
C1861 C 0.12984 0.82742 0.17461 0.0
C1862 C 0.094 0.77938 0.18235 0.0
C1863 C 0.073 0.71722 0.16383 0.0
H1864 H 0.0467 0.66786 0.18886 0.0
C1865 C 0.00329 0.58907 0.16086 0.0
C1866 C 0.97746 0.57543 0.16714 0.0
C1867 C 0.02556 0.61876 0.16268 0.0
C1868 C 0.05385 0.6814 0.18181 0.0
H1869 H 0.15383 0.82433 0.16112 0.0
H1870 H 0.12884 0.76975 0.1612 0.0
H1871 H 0.07982 0.72217 0.19044 0.0
H1872 H 0.95522 0.58138 0.18058 0.0
H1873 H 0.99405 0.63348 0.18373 0.0
H1874 H 0.04672 0.67675 0.15519 0.0
C1875 C 0.12286 0.78083 0.16716 0.0
C1876 C 0.07278 0.71247 0.18271 0.0
C1877 C 0.1373 0.81215 0.16714 0.0
C1878 C 0.97491 0.59146 0.1756 0.0
C1879 C 0.99722 0.62121 0.17743 0.0
C1880 C 0.05423 0.68626 0.16293 0.0
C1881 C 0.10045 0.76404 0.17458 0.0
C1882 C 0.08231 0.73078 0.17372 0.0
C1883 C 0.02244 0.6354 0.17083 0.0
C1884 C 0.04417 0.668 0.1719 0.0
H1885 H 0.10232 0.82181 0.18825 0.0
H1886 H 0.07668 0.76717 0.18813 0.0
H1887 H 0.07934 0.73064 0.15675 0.0
H1888 H 0.00594 0.57708 0.15434 0.0
H1889 H 0.04498 0.62889 0.15758 0.0
C1890 C 0.32077 0.1859 0.34132 0.0
C1891 C 0.29807 0.17076 0.33383 0.0
C1892 C 0.33793 0.21723 0.34127 0.0
C1893 C 0.35737 0.28516 0.3253 0.0
H1894 H 0.36676 0.32244 0.3525 0.0
C1895 C 0.38019 0.40639 0.33128 0.0
C1896 C 0.39851 0.42286 0.33973 0.0
C1897 C 0.37291 0.37658 0.32969 0.0
C1898 C 0.36485 0.31249 0.34486 0.0
H1899 H 0.27638 0.17663 0.32015 0.0
H1900 H 0.30585 0.23112 0.3202 0.0
H1901 H 0.34536 0.26842 0.35136 0.0
H1902 H 0.42517 0.422 0.35274 0.0
H1903 H 0.41275 0.37016 0.34992 0.0
H1904 H 0.3761 0.3294 0.31882 0.0
C1905 C 0.31074 0.21885 0.32603 0.0
C1906 C 0.35259 0.28147 0.3442 0.0
C1907 C 0.29368 0.18756 0.32605 0.0
C1908 C 0.41068 0.40964 0.34624 0.0
C1909 C 0.40348 0.37994 0.34465 0.0
C1910 C 0.36959 0.31628 0.32596 0.0
C1911 C 0.33268 0.23409 0.33375 0.0
C1912 C 0.34834 0.26737 0.33441 0.0
C1913 C 0.38389 0.36283 0.33653 0.0
C1914 C 0.37314 0.33021 0.33575 0.0
H1915 H 0.32492 0.17362 0.34736 0.0
H1916 H 0.35501 0.22828 0.34723 0.0
H1917 H 0.35474 0.27502 0.31765 0.0
H1918 H 0.37061 0.41615 0.32613 0.0
H1919 H 0.35762 0.36394 0.32341 0.0
C1920 C 0.58645 0.9656 0.33161 0.0
C1921 C 0.57221 0.96717 0.34077 0.0
C1922 C 0.6159 0.98789 0.32939 0.0
C1923 C 0.67601 0.06461 0.33713 0.0
H1924 H 0.72868 0.0358 0.32762 0.0
C1925 C 0.80528 0.13018 0.34188 0.0
C1926 C 0.82256 0.1277 0.33383 0.0
C1927 C 0.77392 0.114 0.34136 0.0
C1928 C 0.71422 0.04434 0.3301 0.0
H1929 H 0.57703 0.99354 0.35463 0.0
H1930 H 0.62866 0.032 0.35095 0.0
H1931 H 0.67516 0.00088 0.32912 0.0
H1932 H 0.82045 0.10782 0.3186 0.0
H1933 H 0.76593 0.07985 0.31772 0.0
H1934 H 0.71554 0.10797 0.33845 0.0
C1935 C 0.61705 0.01396 0.34535 0.0
C1936 C 0.68348 0.0243 0.33095 0.0
C1937 C 0.58755 0.99178 0.34752 0.0
C1938 C 0.80786 0.11002 0.325 0.0
C1939 C 0.77659 0.09388 0.3245 0.0
C1940 C 0.70687 0.08467 0.33633 0.0
C1941 C 0.63174 0.01206 0.33634 0.0
C1942 C 0.66402 0.03409 0.33459 0.0
C1943 C 0.75929 0.09504 0.3328 0.0
C1944 C 0.72631 0.07464 0.33291 0.0
H1945 H 0.57501 0.94691 0.32624 0.0
H1946 H 0.62638 0.986 0.32229 0.0
H1947 H 0.66158 0.07298 0.33982 0.0
H1948 H 0.81589 0.14362 0.34878 0.0
H1949 H 0.76116 0.11521 0.34791 0.0
C1950 C 0.89108 0.70382 0.32785 0.0
C1951 C 0.86942 0.69874 0.33552 0.0
C1952 C 0.90605 0.68748 0.32792 0.0
C1953 C 0.92779 0.64655 0.34617 0.0
H1954 H 0.95377 0.62444 0.32083 0.0
C1955 C -0.00023 0.59013 0.34803 0.0
C1956 C 0.02505 0.6025 0.34148 0.0
C1957 C 0.97724 0.59737 0.34661 0.0
C1958 C 0.94675 0.63058 0.32797 0.0
H1959 H 0.84544 0.67144 0.34897 0.0
H1960 H 0.87135 0.64261 0.349 0.0
H1961 H 0.91975 0.64457 0.31959 0.0
H1962 H 0.04615 0.63108 0.32801 0.0
H1963 H 0.00686 0.64408 0.32556 0.0
H1964 H 0.95515 0.63316 0.35453 0.0
C1965 C 0.87713 0.65966 0.34305 0.0
C1966 C 0.92728 0.6421 0.32726 0.0
C1967 C 0.86219 0.67609 0.34301 0.0
C1968 C 0.0269 0.62134 0.3332 0.0
C1969 C 0.00433 0.6286 0.33177 0.0
C1970 C 0.94715 0.63499 0.34687 0.0
C1971 C 0.89966 0.66559 0.33563 0.0
C1972 C 0.91793 0.65063 0.33635 0.0
C1973 C 0.97953 0.61714 0.33859 0.0
C1974 C 0.95717 0.62725 0.33778 0.0
H1975 H 0.8972 0.72108 0.32196 0.0
H1976 H 0.92351 0.69288 0.32217 0.0
H1977 H 0.9215 0.65339 0.35331 0.0
H1978 H 0.99765 0.57528 0.35441 0.0
H1979 H 0.95817 0.58779 0.35188 0.0
C1980 C 0.58609 0.58751 0.84786 0.0
C1981 C 0.57313 0.60031 0.84153 0.0
C1982 C 0.61496 0.59282 0.84575 0.0
C1983 C 0.67566 0.62194 0.82582 0.0
H1984 H 0.72728 0.64494 0.85027 0.0
C1985 C 0.80486 0.693 0.82388 0.0
C1986 C 0.82194 0.68851 0.83152 0.0
C1987 C 0.77353 0.67649 0.82416 0.0
C1988 C 0.71314 0.63798 0.84336 0.0
H1989 H 0.57944 0.62756 0.82778 0.0
H1990 H 0.63021 0.63727 0.82416 0.0
H1991 H 0.67408 0.62672 0.85245 0.0
H1992 H 0.81951 0.66158 0.84497 0.0
H1993 H 0.76485 0.63241 0.84534 0.0
H1994 H 0.71512 0.63402 0.81672 0.0
C1995 C 0.61798 0.62288 0.83069 0.0
C1996 C 0.68256 0.62755 0.84462 0.0
C1997 C 0.58901 0.6175 0.83279 0.0
C1998 C 0.80703 0.66585 0.83904 0.0
C1999 C 0.77569 0.64923 0.83928 0.0
C2000 C 0.70635 0.63235 0.82456 0.0
C2001 C 0.63152 0.61113 0.83729 0.0
C2002 C 0.66351 0.61979 0.83586 0.0
C2003 C 0.75857 0.65501 0.83205 0.0
C2004 C 0.72551 0.6409 0.83331 0.0
H2005 H 0.57416 0.57388 0.85458 0.0
H2006 H 0.62454 0.583 0.85087 0.0
H2007 H 0.66149 0.61578 0.81893 0.0
H2008 H 0.81559 0.71028 0.81797 0.0
H2009 H 0.76108 0.68173 0.81852 0.0
C2010 C 0.32811 0.14296 0.83823 0.0
C2011 C 0.30393 0.13406 0.83128 0.0
C2012 C 0.34519 0.12872 0.83808 0.0
C2013 C 0.36027 0.07569 0.82289 0.0
H2014 H 0.37398 0.05338 0.8505 0.0
C2015 C 0.37944 0.9758 0.83072 0.0
C2016 C 0.39931 0.97874 0.83878 0.0
C2017 C 0.37304 0.99878 0.82879 0.0
C2018 C 0.37086 0.05984 0.84272 0.0
H2019 H 0.27967 0.10423 0.81836 0.0
H2020 H 0.30899 0.07905 0.81825 0.0
H2021 H 0.35384 0.08696 0.84889 0.0
H2022 H 0.42928 0.00843 0.85078 0.0
H2023 H 0.41823 0.04862 0.84739 0.0
H2024 H 0.3764 0.04753 0.81677 0.0
C2025 C 0.31511 0.09731 0.82372 0.0
C2026 C 0.35934 0.07918 0.84179 0.0
C2027 C 0.29816 0.11168 0.82383 0.0
C2028 C 0.41364 0.00549 0.84458 0.0
C2029 C 0.40725 0.02844 0.84266 0.0
C2030 C 0.37173 0.0562 0.82382 0.0
C2031 C 0.33834 0.10513 0.83103 0.0
C2032 C 0.35349 0.08703 0.83187 0.0
C2033 C 0.38637 0.02507 0.8349 0.0
C2034 C 0.37677 0.04776 0.83376 0.0
H2035 H 0.33337 0.16036 0.844 0.0
H2036 H 0.36332 0.13571 0.84368 0.0
H2037 H 0.3564 0.0816 0.81513 0.0
H2038 H 0.36804 0.95534 0.82615 0.0
H2039 H 0.35665 0.99537 0.82282 0.0
C2040 C 0.89245 0.18492 0.82632 0.0
C2041 C 0.87338 0.16865 0.83467 0.0
C2042 C 0.90932 0.21623 0.82666 0.0
C2043 C 0.91581 0.28345 0.83952 0.0
H2044 H 0.0005 0.31846 0.83314 0.0
C2045 C 0.00357 0.40537 0.85064 0.0
C2046 C 0.02824 0.42143 0.84397 0.0
C2047 C 0.98295 0.37515 0.8487 0.0
C2048 C 0.97683 0.30922 0.83477 0.0
H2049 H 0.85621 0.17268 0.84975 0.0
H2050 H 0.88564 0.22742 0.85031 0.0
H2051 H 0.9672 0.26468 0.8311 0.0
H2052 H 0.05038 0.41883 0.8299 0.0
H2053 H 0.0139 0.36641 0.82627 0.0
H2054 H 0.92543 0.32801 0.84318 0.0
C2055 C 0.88748 0.21587 0.8435 0.0
C2056 C 0.95775 0.27833 0.83362 0.0
C2057 C 0.87075 0.1845 0.8432 0.0
C2058 C 0.0315 0.407 0.83516 0.0
C2059 C 0.01075 0.37686 0.83315 0.0
C2060 C 0.93488 0.31444 0.84059 0.0
C2061 C 0.90734 0.23202 0.83532 0.0
C2062 C 0.9271 0.26507 0.83606 0.0
C2063 C 0.98646 0.36039 0.83999 0.0
C2064 C 0.9657 0.32769 0.83832 0.0
H2065 H 0.895 0.17349 0.81961 0.0
H2066 H 0.92417 0.22811 0.82018 0.0
H2067 H 0.89221 0.27387 0.84135 0.0
H2068 H 0.00056 0.41597 0.85751 0.0
H2069 H 0.96479 0.36314 0.85421 0.0
C2070 C 0.58559 0.58745 0.66133 0.0
C2071 C 0.59822 0.57494 0.66796 0.0
C2072 C 0.59287 0.61732 0.66256 0.0
C2073 C 0.62737 0.68252 0.68057 0.0
H2074 H 0.65198 0.72866 0.6548 0.0
C2075 C 0.70402 0.81101 0.67984 0.0
C2076 C 0.69998 0.82763 0.67191 0.0
C2077 C 0.68695 0.77971 0.67994 0.0
C2078 C 0.64465 0.71611 0.66205 0.0
H2079 H 0.62704 0.58315 0.68141 0.0
H2080 H 0.63995 0.63548 0.68354 0.0
H2081 H 0.62984 0.67444 0.65412 0.0
H2082 H 0.67388 0.82445 0.65812 0.0
H2083 H 0.64374 0.7698 0.65838 0.0
H2084 H 0.6427 0.72436 0.68852 0.0
C2085 C 0.62431 0.6222 0.67743 0.0
C2086 C 0.63197 0.68498 0.66166 0.0
C2087 C 0.61707 0.59231 0.67618 0.0
C2088 C 0.67776 0.8123 0.66428 0.0
C2089 C 0.66056 0.78097 0.66441 0.0
C2090 C 0.63995 0.71371 0.68096 0.0
C2091 C 0.61287 0.63523 0.67046 0.0
C2092 C 0.62363 0.66789 0.67092 0.0
C2093 C 0.66531 0.76427 0.67214 0.0
C2094 C 0.64921 0.73092 0.67172 0.0
H2095 H 0.57076 0.57443 0.65499 0.0
H2096 H 0.58334 0.6266 0.65718 0.0
H2097 H 0.62081 0.66988 0.68782 0.0
H2098 H 0.72095 0.82207 0.68585 0.0
H2099 H 0.69152 0.7676 0.68592 0.0
C2100 C 0.4108 0.99712 0.65945 0.0
C2101 C 0.42422 0.02278 0.66582 0.0
C2102 C 0.38103 0.97482 0.66111 0.0
C2103 C 0.31767 0.94654 0.67996 0.0
H2104 H 0.26923 0.92075 0.65471 0.0
C2105 C 0.18879 0.89363 0.68005 0.0
C2106 C 0.17192 0.87155 0.67253 0.0
C2107 C 0.22012 0.90805 0.68 0.0
C2108 C 0.28244 0.9272 0.66184 0.0
H2109 H 0.41773 0.04472 0.67925 0.0
H2110 H 0.3655 0.00593 0.68209 0.0
H2111 H 0.32324 0.95312 0.65334 0.0
H2112 H 0.17469 0.84623 0.6594 0.0
H2113 H 0.22933 0.87116 0.6594 0.0
H2114 H 0.27657 0.92106 0.68845 0.0
C2115 C 0.378 0.00286 0.67586 0.0
C2116 C 0.31347 0.94581 0.66105 0.0
C2117 C 0.40784 0.02515 0.6742 0.0
C2118 C 0.18701 0.86334 0.66524 0.0
C2119 C 0.21834 0.87772 0.66521 0.0
C2120 C 0.28655 0.92785 0.68075 0.0
C2121 C 0.36406 0.97778 0.66917 0.0
C2122 C 0.33142 0.95601 0.6701 0.0
C2123 C 0.23528 0.90067 0.67245 0.0
C2124 C 0.26855 0.9183 0.67169 0.0
H2125 H 0.42307 0.9946 0.653 0.0
H2126 H 0.3711 0.95552 0.65594 0.0
H2127 H 0.33094 0.95372 0.68707 0.0
H2128 H 0.1779 0.9005 0.68578 0.0
H2129 H 0.23246 0.92584 0.68562 0.0
C2130 C 0.00634 0.41725 0.66449 0.0
C2131 C 0.97987 0.40306 0.67044 0.0
C2132 C 0.02927 0.41077 0.66625 0.0
C2133 C 0.05728 0.3741 0.6845 0.0
H2134 H 0.08562 0.35596 0.65888 0.0
C2135 C 0.10927 0.29765 0.68302 0.0
C2136 C 0.13153 0.30343 0.67552 0.0
C2137 C 0.0956 0.31521 0.68342 0.0
C2138 C 0.07851 0.36152 0.66612 0.0
H2139 H 0.95715 0.37237 0.68327 0.0
H2140 H 0.99709 0.36058 0.68624 0.0
H2141 H 0.05287 0.37718 0.65789 0.0
H2142 H 0.15812 0.33329 0.66293 0.0
H2143 H 0.1345 0.36421 0.66371 0.0
H2144 H 0.08243 0.35759 0.69271 0.0
C2145 C 0.00028 0.37692 0.68029 0.0
C2146 C 0.05966 0.37368 0.66556 0.0
C2147 C 0.97733 0.3835 0.67855 0.0
C2148 C 0.14084 0.32805 0.66874 0.0
C2149 C 0.12722 0.3457 0.66916 0.0
C2150 C 0.07624 0.36195 0.68507 0.0
C2151 C 0.02614 0.38988 0.67395 0.0
C2152 C 0.04844 0.37968 0.67473 0.0
C2153 C 0.10395 0.33903 0.67634 0.0
C2154 C 0.08666 0.35505 0.67588 0.0
H2155 H 0.009 0.43274 0.65828 0.0
H2156 H 0.04917 0.42157 0.66138 0.0
H2157 H 0.04928 0.37882 0.6917 0.0
H2158 H 0.10159 0.2789 0.68838 0.0
H2159 H 0.07754 0.30922 0.68896 0.0
C2160 C 0.85465 0.66663 0.5041 0.0
C2161 C 0.83966 0.64207 0.51093 0.0
C2162 C 0.88596 0.68354 0.50403 0.0
C2163 C 0.95516 0.69756 0.51818 0.0
H2164 H 0.98786 0.70968 0.49007 0.0
C2165 C 0.07297 0.71543 0.50877 0.0
C2166 C 0.08886 0.73419 0.50033 0.0
C2167 C 0.04395 0.70949 0.51111 0.0
C2168 C 0.97927 0.70706 0.49799 0.0
H2169 H 0.84578 0.61714 0.52348 0.0
H2170 H 0.90036 0.64633 0.52324 0.0
H2171 H 0.93456 0.6905 0.49246 0.0
H2172 H 0.08777 0.76281 0.48809 0.0
H2173 H 0.03727 0.75277 0.49222 0.0
H2174 H 2e-05 0.71339 0.52366 0.0
C2175 C 0.88795 0.65277 0.51801 0.0
C2176 C 0.94862 0.69605 0.49936 0.0
C2177 C 0.8566 0.63594 0.51812 0.0
C2178 C 0.07584 0.74798 0.49457 0.0
C2179 C 0.04689 0.74213 0.49691 0.0
C2180 C 0.98593 0.70861 0.5168 0.0
C2181 C 0.90301 0.67617 0.51074 0.0
C2182 C 0.9361 0.69078 0.50946 0.0
C2183 C 0.03033 0.72226 0.50505 0.0
C2184 C 0.99825 0.71309 0.50668 0.0
H2185 H 0.84226 0.67219 0.49854 0.0
H2186 H 0.89687 0.70184 0.49848 0.0
H2187 H 0.94625 0.69404 0.52607 0.0
H2188 H 0.08256 0.70455 0.51335 0.0
H2189 H 0.03174 0.69388 0.51737 0.0
C2190 C 0.34255 0.19538 0.49901 0.0
C2191 C 0.36589 0.20353 0.50628 0.0
C2192 C 0.32539 0.20954 0.4991 0.0
C2193 C 0.30696 0.25894 0.51495 0.0
H2194 H 0.29453 0.28427 0.4877 0.0
C2195 C 0.2821 0.35584 0.50875 0.0
C2196 C 0.26311 0.35335 0.50043 0.0
C2197 C 0.28975 0.33359 0.51036 0.0
C2198 C 0.29728 0.27694 0.49537 0.0
H2199 H 0.38877 0.2322 0.51961 0.0
H2200 H 0.35926 0.25722 0.51963 0.0
H2201 H 0.31667 0.2523 0.48884 0.0
H2202 H 0.23567 0.32497 0.48771 0.0
H2203 H 0.24874 0.286 0.49058 0.0
H2204 H 0.28828 0.28445 0.52146 0.0
C2205 C 0.3539 0.23961 0.51394 0.0
C2206 C 0.30999 0.25855 0.49602 0.0
C2207 C 0.37098 0.22538 0.51388 0.0
C2208 C 0.25065 0.32758 0.49411 0.0
C2209 C 0.25824 0.30535 0.49572 0.0
C2210 C 0.29428 0.27743 0.5143 0.0
C2211 C 0.33126 0.23225 0.50644 0.0
C2212 C 0.31534 0.24963 0.50582 0.0
C2213 C 0.27848 0.30848 0.50369 0.0
C2214 C 0.28963 0.28691 0.50449 0.0
H2215 H 0.33783 0.17843 0.49311 0.0
H2216 H 0.30778 0.20299 0.49332 0.0
H2217 H 0.31042 0.25213 0.52262 0.0
H2218 H 0.29192 0.37547 0.51376 0.0
H2219 H 0.30555 0.33677 0.51653 0.0
C2220 C 0.66374 0.92371 0.49244 0.0
C2221 C 0.64006 0.90777 0.49951 0.0
C2222 C 0.68471 0.95392 0.49425 0.0
C2223 C 0.69101 0.01946 0.50825 0.0
H2224 H 0.77482 0.057 0.50022 0.0
C2225 C 0.77189 0.14489 0.51529 0.0
C2226 C 0.79003 0.16119 0.50676 0.0
C2227 C 0.75627 0.11357 0.51519 0.0
C2228 C 0.75143 0.0468 0.50245 0.0
H2229 H 0.6205 0.91026 0.51425 0.0
H2230 H 0.65752 0.9627 0.51756 0.0
H2231 H 0.74287 0.00248 0.49891 0.0
H2232 H 0.80691 0.15728 0.4916 0.0
H2233 H 0.7794 0.10244 0.49142 0.0
H2234 H 0.69939 0.06365 0.5117 0.0
C2235 C 0.65955 0.9522 0.51049 0.0
C2236 C 0.73312 0.01561 0.5017 0.0
C2237 C 0.63848 0.92209 0.50864 0.0
C2238 C 0.79305 0.14542 0.49829 0.0
C2239 C 0.77744 0.114 0.4982 0.0
C2240 C 0.70929 0.05053 0.50904 0.0
C2241 C 0.68247 0.96871 0.50319 0.0
C2242 C 0.70263 0.0016 0.50453 0.0
C2243 C 0.75845 0.09777 0.50658 0.0
C2244 C 0.73964 0.06458 0.5061 0.0
H2245 H 0.66546 0.91315 0.48534 0.0
H2246 H 0.70189 0.96598 0.48841 0.0
H2247 H 0.6675 0.00957 0.51027 0.0
H2248 H 0.76922 0.15627 0.52199 0.0
H2249 H 0.74219 0.10168 0.52183 0.0
C2250 C 0.04481 0.7413 0.66463 0.0
C2251 C 0.06218 0.75648 0.67342 0.0
C2252 C 0.03719 0.71158 0.66266 0.0
C2253 C 0.05467 0.65201 0.6704 0.0
H2254 H 0.97222 0.5988 0.66195 0.0
C2255 C 0.99104 0.52279 0.6759 0.0
C2256 C 0.97099 0.50526 0.66795 0.0
C2257 C 0.00614 0.55415 0.6753 0.0
C2258 C 0.99546 0.61341 0.66415 0.0
H2259 H 0.08582 0.75296 0.68692 0.0
H2260 H 0.07177 0.70088 0.6837 0.0
H2261 H 0.99099 0.65241 0.66316 0.0
H2262 H 0.95257 0.50693 0.6528 0.0
H2263 H 0.97889 0.56143 0.65178 0.0
H2264 H 0.05854 0.61251 0.67176 0.0
C2265 C 0.06454 0.71196 0.67817 0.0
C2266 C 0.00628 0.64421 0.66483 0.0
C2267 C 0.07237 0.74173 0.68008 0.0
C2268 C 0.9676 0.5197 0.65913 0.0
C2269 C 0.98259 0.55096 0.65854 0.0
C2270 C 0.04373 0.62109 0.6698 0.0
C2271 C 0.0465 0.69637 0.66952 0.0
C2272 C 0.03593 0.66389 0.66805 0.0
C2273 C 0.00139 0.56851 0.66674 0.0
C2274 C 0.01393 0.60147 0.66675 0.0
H2275 H 0.0366 0.75214 0.6594 0.0
H2276 H 0.02367 0.70043 0.65583 0.0
H2277 H 0.07776 0.66658 0.67276 0.0
H2278 H 0.9942 0.51238 0.68279 0.0
H2279 H 0.0204 0.56713 0.68176 0.0
C2280 C 0.26212 0.31946 0.68487 0.0
C2281 C 0.24346 0.30436 0.67632 0.0
C2282 C 0.29216 0.34113 0.68329 0.0
C2283 C 0.35232 0.36791 0.66297 0.0
H2284 H 0.39526 0.43014 0.68365 0.0
C2285 C 0.48062 0.43051 0.6648 0.0
C2286 C 0.49641 0.45979 0.66882 0.0
C2287 C 0.44936 0.41446 0.66494 0.0
C2288 C 0.38366 0.41335 0.67765 0.0
H2289 H 0.24107 0.3009 0.65946 0.0
H2290 H 0.29283 0.33996 0.65654 0.0
H2291 H 0.34136 0.39839 0.68508 0.0
H2292 H 0.49209 0.49567 0.6759 0.0
H2293 H 0.4372 0.46829 0.67563 0.0
H2294 H 0.39427 0.38397 0.65518 0.0
C2295 C 0.28492 0.33427 0.66453 0.0
C2296 C 0.35262 0.39459 0.6786 0.0
C2297 C 0.25508 0.31196 0.66616 0.0
C2298 C 0.48036 0.47305 0.67279 0.0
C2299 C 0.44891 0.45721 0.67269 0.0
C2300 C 0.38318 0.38715 0.66186 0.0
C2301 C 0.3041 0.34888 0.67309 0.0
C2302 C 0.33661 0.37101 0.67145 0.0
C2303 C 0.43295 0.42751 0.66887 0.0
C2304 C 0.3995 0.40955 0.66937 0.0
H2305 H 0.25373 0.31392 0.69282 0.0
H2306 H 0.30611 0.35117 0.69012 0.0
H2307 H 0.34113 0.34999 0.65731 0.0
H2308 H 0.49246 0.41951 0.66188 0.0
H2309 H 0.4382 0.39144 0.66223 0.0
C2310 C 0.69735 0.95513 0.66351 0.0
C2311 C 0.69484 0.93888 0.67265 0.0
C2312 C 0.67533 0.96245 0.661 0.0
C2313 C 0.59788 0.94546 0.66774 0.0
H2314 H 0.62757 0.02743 0.65859 0.0
C2315 C 0.53207 0.00891 0.67198 0.0
C2316 C 0.53537 0.02937 0.66407 0.0
C2317 C 0.54818 0.99366 0.67152 0.0
C2318 C 0.61879 0.0043 0.66096 0.0
H2319 H 0.66712 0.91677 0.6862 0.0
H2320 H 0.62911 0.93019 0.68202 0.0
H2321 H 0.66233 0.00876 0.66051 0.0
H2322 H 0.55664 0.0483 0.64912 0.0
H2323 H 0.58451 0.02161 0.64833 0.0
H2324 H 0.55442 0.94154 0.66853 0.0
C2325 C 0.64769 0.93686 0.67665 0.0
C2326 C 0.63874 0.99355 0.66205 0.0
C2327 C 0.6696 0.92938 0.67911 0.0
C2328 C 0.55378 0.03295 0.65541 0.0
C2329 C 0.56988 0.01776 0.65497 0.0
C2330 C 0.57791 0.95629 0.66669 0.0
C2331 C 0.65049 0.95384 0.66765 0.0
C2332 C 0.62863 0.96415 0.66559 0.0
C2333 C 0.5679 0.9986 0.66316 0.0
C2334 C 0.58824 0.98595 0.66341 0.0
H2335 H 0.71654 0.96257 0.65836 0.0
H2336 H 0.67795 0.97515 0.65392 0.0
H2337 H 0.58927 0.92254 0.67033 0.0
H2338 H 0.51804 0.00558 0.67875 0.0
H2339 H 0.54632 0.97917 0.67799 0.0
C2340 C 0.25676 0.95117 0.16425 0.0
C2341 C 0.24191 0.93336 0.17299 0.0
C2342 C 0.28629 0.95872 0.16201 0.0
C2343 C 0.3465 0.94128 0.16893 0.0
H2344 H 0.39875 0.02415 0.16071 0.0
C2345 C 0.47608 0.00609 0.17362 0.0
C2346 C 0.49304 0.02652 0.16567 0.0
C2347 C 0.44469 0.99057 0.17319 0.0
C2348 C 0.38441 0.0008 0.16285 0.0
H2349 H 0.24584 0.90876 0.1861 0.0
H2350 H 0.29772 0.92274 0.18243 0.0
H2351 H 0.34519 0.00494 0.16236 0.0
H2352 H 0.4903 0.04518 0.15071 0.0
H2353 H 0.43575 0.01815 0.15 0.0
H2354 H 0.38631 0.93778 0.16981 0.0
C2355 C 0.28646 0.93036 0.17713 0.0
C2356 C 0.35362 0.98972 0.16376 0.0
C2357 C 0.2568 0.92254 0.1793 0.0
C2358 C 0.47799 0.02983 0.15702 0.0
C2359 C 0.4467 0.01444 0.15662 0.0
C2360 C 0.37744 0.9525 0.1681 0.0
C2361 C 0.30177 0.94899 0.16856 0.0
C2362 C 0.33426 0.95989 0.1669 0.0
C2363 C 0.42972 0.99529 0.16483 0.0
C2364 C 0.39671 0.98244 0.16511 0.0
H2365 H 0.24584 0.95991 0.15928 0.0
H2366 H 0.29716 0.97264 0.15523 0.0
H2367 H 0.33221 0.91808 0.17122 0.0
H2368 H 0.48695 0.00294 0.18038 0.0
H2369 H 0.43217 0.97604 0.17966 0.0
C2370 C 0.99361 0.47148 0.17302 0.0
C2371 C 0.97014 0.46362 0.16583 0.0
C2372 C 0.00912 0.45563 0.17328 0.0
C2373 C 0.02171 0.39985 0.15888 0.0
H2374 H 0.03194 0.37713 0.1869 0.0
C2375 C 0.03942 0.29929 0.16771 0.0
C2376 C 0.05874 0.30237 0.17599 0.0
C2377 C 0.03275 0.32202 0.16562 0.0
C2378 C 0.02975 0.38364 0.17902 0.0
H2379 H 0.94557 0.43391 0.15292 0.0
H2380 H 0.97225 0.40602 0.1535 0.0
H2381 H 0.01368 0.41212 0.18465 0.0
H2382 H 0.08733 0.33201 0.18827 0.0
H2383 H 0.0759 0.37176 0.18458 0.0
H2384 H 0.03709 0.37055 0.15329 0.0
C2385 C 0.97897 0.42465 0.15885 0.0
C2386 C 0.01931 0.40378 0.17773 0.0
C2387 C 0.96356 0.44059 0.15856 0.0
C2388 C 0.07211 0.32895 0.1819 0.0
C2389 C 0.06547 0.35164 0.17982 0.0
C2390 C 0.03212 0.37959 0.16018 0.0
C2391 C 0.0014 0.43147 0.1664 0.0
C2392 C 0.01488 0.41194 0.16765 0.0
C2393 C 0.04529 0.34822 0.17178 0.0
C2394 C 0.036 0.37106 0.17027 0.0
H2395 H -0.00053 0.4893 0.17866 0.0
H2396 H 0.0267 0.46186 0.17905 0.0
H2397 H 0.01886 0.40593 0.15102 0.0
H2398 H 0.0289 0.27902 0.16302 0.0
H2399 H 0.01694 0.31859 0.15943 0.0
C2400 C 0.52777 0.51733 0.17433 0.0
C2401 C 0.53564 0.50233 0.16688 0.0
C2402 C 0.54221 0.54869 0.17442 0.0
C2403 C 0.59216 0.61707 0.15882 0.0
H2404 H 0.61763 0.65372 0.18623 0.0
C2405 C 0.68928 0.73879 0.1656 0.0
C2406 C 0.68631 0.75492 0.17394 0.0
C2407 C 0.66725 0.70885 0.16386 0.0
C2408 C 0.6103 0.64394 0.17852 0.0
H2409 H 0.56408 0.50852 0.15344 0.0
H2410 H 0.58952 0.563 0.15375 0.0
H2411 H 0.58523 0.5997 0.18485 0.0
H2412 H 0.65735 0.75325 0.18658 0.0
H2413 H 0.61887 0.70121 0.18348 0.0
H2414 H 0.61812 0.66148 0.15251 0.0
C2415 C 0.57194 0.55064 0.15942 0.0
C2416 C 0.59164 0.61291 0.17773 0.0
C2417 C 0.55745 0.51932 0.15931 0.0
C2418 C 0.66035 0.74118 0.18016 0.0
C2419 C 0.63839 0.71136 0.17842 0.0
C2420 C 0.61095 0.64818 0.15961 0.0
C2421 C 0.56489 0.56573 0.1671 0.0
C2422 C 0.5826 0.59902 0.16787 0.0
C2423 C 0.64194 0.6946 0.17043 0.0
C2424 C 0.62045 0.66191 0.16947 0.0
H2425 H 0.51089 0.50491 0.18022 0.0
H2426 H 0.53589 0.55962 0.18033 0.0
H2427 H 0.58527 0.60713 0.15111 0.0
H2428 H 0.70908 0.74894 0.16068 0.0
H2429 H 0.67072 0.69649 0.15766 0.0
C2430 C 0.29028 0.92685 0.00894 0.0
C2431 C 0.27034 0.91025 1.00085 0.0
C2432 C 0.29799 0.95673 0.01069 0.0
C2433 C 0.30305 0.02098 0.9964 0.0
H2434 H 0.31538 0.05741 0.0239 0.0
C2435 C 0.34121 0.14599 1.00058 0.0
C2436 C 0.36444 0.16225 0.00779 0.0
C2437 C 0.32564 0.11463 1.00067 0.0
C2438 C 0.31219 0.04759 0.01616 0.0
H2439 H 0.24165 0.91116 0.98859 0.0
H2440 H 0.25492 0.96316 0.99166 0.0
H2441 H 0.29578 0.00334 0.02239 0.0
H2442 H 0.38864 0.15827 0.02106 0.0
H2443 H 0.36193 0.10363 0.02107 0.0
H2444 H 0.32014 0.06503 0.99013 0.0
C2445 C 0.26502 0.95337 0.99655 0.0
C2446 C 0.30096 0.01664 0.01531 0.0
C2447 C 0.25733 0.92357 0.99481 0.0
C2448 C 0.37084 0.14645 0.01539 0.0
C2449 C 0.3554 0.11506 0.01543 0.0
C2450 C 0.31434 0.05183 0.99725 0.0
C2451 C 0.2859 0.97049 0.00436 0.0
C2452 C 0.29643 0.00304 0.00541 0.0
C2453 C 0.33309 0.09877 0.00791 0.0
C2454 C 0.31924 0.06559 0.00713 0.0
H2455 H 0.30061 0.91707 0.01371 0.0
H2456 H 0.3143 0.96939 0.01672 0.0
H2457 H 0.30038 0.01132 0.98866 0.0
H2458 H 0.33547 0.15745 0.99469 0.0
H2459 H 0.30814 0.10279 0.99491 0.0
C2460 C 0.06935 0.35968 0.01153 0.0
C2461 C 0.08682 0.35736 1.00354 0.0
C2462 C 0.03967 0.33676 0.01304 0.0
C2463 C 0.97738 0.27735 0.99811 0.0
H2464 H 0.93879 0.2522 0.02524 0.0
C2465 C 0.85158 0.19159 1.00114 0.0
C2466 C 0.83528 0.1991 0.00814 0.0
C2467 C 0.88294 0.20669 1.00152 0.0
C2468 C 0.94924 0.25909 0.01761 0.0
H2469 H 0.08775 0.32872 0.99126 0.0
H2470 H 0.0361 0.28868 0.99393 0.0
H2471 H 0.9929 0.28689 0.02427 0.0
H2472 H 0.83913 0.22744 0.02135 0.0
H2473 H 0.89363 0.25403 0.02188 0.0
H2474 H 0.93386 0.2505 0.99141 0.0
C2475 C 0.04504 0.30835 0.99891 0.0
C2476 C 0.98021 0.27894 0.01706 0.0
C2477 C 0.07464 0.33122 0.9974 0.0
C2478 C 0.85095 0.22104 0.01583 0.0
C2479 C 0.88228 0.23622 0.01618 0.0
C2480 C 0.94649 0.25765 0.99866 0.0
C2481 C 0.02699 0.31116 0.00658 0.0
C2482 C 0.99455 0.28852 0.0073 0.0
C2483 C 0.89869 0.22973 0.00887 0.0
C2484 C 0.93195 0.24852 0.0084 0.0
H2485 H 0.07829 0.37959 0.01639 0.0
H2486 H 0.02629 0.33968 0.01898 0.0
H2487 H 0.98763 0.2847 0.99047 0.0
H2488 H 0.84021 0.17462 0.99517 0.0
H2489 H 0.89487 0.20073 0.9959 0.0
C2490 C 0.77328 0.62691 0.01519 0.0
C2491 C 0.79137 0.6301 0.00647 0.0
C2492 C 0.75769 0.64258 0.01572 0.0
C2493 C 0.75196 0.70575 0.00444 0.0
H2494 H 0.66795 0.65685 0.01192 0.0
C2495 C 0.66299 0.73857 0.99431 0.0
C2496 C 0.63875 0.73016 1.00118 0.0
C2497 C 0.68426 0.7299 0.99628 0.0
C2498 C 0.69147 0.67106 0.01002 0.0
H2499 H 0.80832 0.65336 0.99169 0.0
H2500 H 0.78082 0.68064 0.99259 0.0
H2501 H 0.70067 0.63551 0.01285 0.0
H2502 H 0.61836 0.70728 0.01572 0.0
H2503 H 0.65591 0.69256 0.01929 0.0
H2504 H 0.74256 0.7412 1.00145 0.0
C2505 C 0.77889 0.66609 0.99904 0.0
C2506 C 0.71024 0.65878 0.01053 0.0
C2507 C 0.79454 0.65035 0.9985 0.0
C2508 C 0.63679 0.71396 0.01028 0.0
C2509 C 0.65818 0.70537 0.01228 0.0
C2510 C 0.73317 0.71811 0.00396 0.0
C2511 C 0.75979 0.66185 0.00756 0.0
C2512 C 0.74061 0.67584 0.00763 0.0
C2513 C 0.68182 0.71272 0.00518 0.0
C2514 C 0.70259 0.70076 0.00661 0.0
H2515 H 0.77057 0.61175 0.02153 0.0
H2516 H 0.74358 0.63925 0.02247 0.0
H2517 H 0.77535 0.71955 1.00228 0.0
H2518 H 0.66506 0.75114 0.98725 0.0
H2519 H 0.70192 0.73565 0.99058 0.0
C2520 C 0.74153 0.07858 0.82772 0.0
C2521 C 0.75408 0.06447 0.83358 0.0
C2522 C 0.71196 0.07162 0.82947 0.0
C2523 C 0.64424 0.03378 0.82899 0.0
H2524 H 0.60703 0.02065 0.85637 0.0
C2525 C 0.51828 0.99197 0.83276 0.0
C2526 C 0.50254 0.96889 0.84007 0.0
C2527 C 0.54963 0.00842 0.83289 0.0
C2528 C 0.61706 0.02406 0.84867 0.0
H2529 H 0.74626 0.03325 0.84622 0.0
H2530 H 0.69437 0.0209 0.84926 0.0
H2531 H 0.66118 0.04073 0.85504 0.0
H2532 H 0.50736 0.94574 0.8535 0.0
H2533 H 0.56192 0.97384 0.85355 0.0
H2534 H 0.60031 0.01619 0.82257 0.0
C2535 C 0.70743 0.03743 0.84335 0.0
C2536 C 0.64806 0.0356 0.84792 0.0
C2537 C 0.73704 0.04435 0.84157 0.0
C2538 C 0.51878 0.96342 0.84776 0.0
C2539 C 0.55013 0.97968 0.84783 0.0
C2540 C 0.61331 0.0221 0.82973 0.0
C2541 C 0.69436 0.05046 0.83714 0.0
C2542 C 0.66191 0.04031 0.83807 0.0
C2543 C 0.56597 0.00197 0.84026 0.0
C2544 C 0.59925 0.01678 0.83957 0.0
H2545 H 0.75429 0.09441 0.82158 0.0
H2546 H 0.70265 0.08236 0.82468 0.0
H2547 H 0.65415 0.03665 0.82129 0.0
H2548 H 0.50643 0.997 0.8268 0.0
H2549 H 0.56108 0.02586 0.82708 0.0
C2550 C 0.92139 0.66325 0.82764 0.0
C2551 C 0.93029 0.68862 0.83399 0.0
C2552 C 0.93064 0.64259 0.82998 0.0
C2553 C 0.99123 0.6384 0.84383 0.0
H2554 H 0.94274 0.55322 0.83794 0.0
C2555 C 0.03623 0.55808 0.85135 0.0
C2556 C 0.03271 0.5385 0.84308 0.0
C2557 C 0.0205 0.57367 0.85138 0.0
C2558 C 0.95655 0.57698 0.83959 0.0
H2559 H 0.95466 0.71167 0.84801 0.0
H2560 H 0.97029 0.67521 0.85227 0.0
H2561 H 0.92068 0.5855 0.83624 0.0
H2562 H 0.00878 0.51891 0.82859 0.0
H2563 H 0.98136 0.54632 0.82863 0.0
H2564 H 0.02715 0.63002 0.84706 0.0
C2565 C 0.9567 0.67158 0.84535 0.0
C2566 C 0.94395 0.59548 0.83861 0.0
C2567 C 0.94758 0.69235 0.84296 0.0
C2568 C 0.01206 0.53386 0.83507 0.0
C2569 C 0.99624 0.54946 0.83511 0.0
C2570 C 0.00374 0.61991 0.84486 0.0
C2571 C 0.94887 0.64678 0.83876 0.0
C2572 C 0.96126 0.6265 0.8406 0.0
C2573 C 0.00081 0.57003 0.84316 0.0
C2574 C 0.98666 0.58906 0.84265 0.0
H2575 H 0.90801 0.65982 0.82067 0.0
H2576 H 0.92446 0.62398 0.82466 0.0
H2577 H 0.00543 0.66224 0.84523 0.0
H2578 H 0.05174 0.56201 0.85771 0.0
H2579 H 0.02411 0.58897 0.85778 0.0
C2580 C 0.30341 0.25656 0.84298 0.0
C2581 C 0.30587 0.24268 0.83387 0.0
C2582 C 0.32476 0.28638 0.84521 0.0
C2583 C 0.40036 0.34894 0.83763 0.0
H2584 H 0.36738 0.39865 0.84648 0.0
C2585 C 0.46243 0.47824 0.83303 0.0
C2586 C 0.45883 0.49508 0.84099 0.0
C2587 C 0.44663 0.44684 0.8334 0.0
C2588 C 0.37708 0.38505 0.84418 0.0
H2589 H 0.33305 0.24848 0.82014 0.0
H2590 H 0.36993 0.30068 0.82387 0.0
H2591 H 0.33463 0.34467 0.84507 0.0
H2592 H 0.43685 0.49203 0.85585 0.0
H2593 H 0.40956 0.43747 0.85648 0.0
H2594 H 0.44271 0.38971 0.83644 0.0
C2595 C 0.35186 0.28856 0.8294 0.0
C2596 C 0.35828 0.35404 0.84338 0.0
C2597 C 0.3306 0.2587 0.82722 0.0
C2598 C 0.44001 0.47984 0.84952 0.0
C2599 C 0.42423 0.44852 0.84988 0.0
C2600 C 0.41917 0.38005 0.83838 0.0
C2601 C 0.34888 0.30295 0.83832 0.0
C2602 C 0.36959 0.33561 0.83999 0.0
C2603 C 0.42688 0.43166 0.84172 0.0
C2604 C 0.40765 0.39846 0.84157 0.0
H2605 H 0.28461 0.24465 0.84827 0.0
H2606 H 0.32207 0.29662 0.85223 0.0
H2607 H 0.40988 0.33534 0.83513 0.0
H2608 H 0.47677 0.48921 0.82635 0.0
H2609 H 0.44899 0.43448 0.82695 0.0
C2610 C 0.63466 0.85522 0.99063 0.0
C2611 C 0.64041 0.83892 0.99823 0.0
C2612 C 0.65123 0.88658 0.99049 0.0
C2613 C 0.69289 0.94894 0.00874 0.0
H2614 H 0.71158 0.99815 0.98378 0.0
C2615 C 0.74502 0.07651 0.01198 0.0
C2616 C 0.73172 0.08923 0.00578 0.0
C2617 C 0.73905 0.04732 0.01006 0.0
C2618 C 0.70639 0.98467 0.99082 0.0
H2619 H 0.6696 0.84275 0.01114 0.0
H2620 H 0.69882 0.89741 0.01076 0.0
H2621 H 0.6926 0.94422 0.98208 0.0
H2622 H 0.70293 0.08212 0.99241 0.0
H2623 H 0.69199 0.03077 0.98915 0.0
H2624 H 0.70581 0.98897 0.01749 0.0
C2625 C 0.68101 0.88595 0.00507 0.0
C2626 C 0.69556 0.95381 0.98985 0.0
C2627 C 0.66436 0.8546 0.00525 0.0
C2628 C 0.71338 0.07275 0.99733 0.0
C2629 C 0.70729 0.04343 0.99543 0.0
C2630 C 0.70369 0.97968 0.00971 0.0
C2631 C 0.674 0.90234 0.99791 0.0
C2632 C 0.68833 0.93553 0.99881 0.0
C2633 C 0.71953 0.03014 1.00193 0.0
C2634 C 0.71024 0.99788 1.00077 0.0
H2635 H 0.61637 0.84389 0.9851 0.0
H2636 H 0.64506 0.89845 0.98492 0.0
H2637 H 0.68696 0.93549 0.01581 0.0
H2638 H 0.75956 0.0889 0.01847 0.0
H2639 H 0.74931 0.03798 0.01508 0.0
C2640 C 0.92441 0.66126 0.01349 0.0
C2641 C 0.90908 0.63689 0.00663 0.0
C2642 C 0.95472 0.6821 0.01189 0.0
C2643 C 0.02184 0.68827 0.99916 0.0
H2644 H 0.05712 0.77271 0.00608 0.0
C2645 C 0.14734 0.77088 0.99304 0.0
C2646 C 0.16265 0.78994 1.00151 0.0
C2647 C 0.11605 0.75459 0.99282 0.0
C2648 C 0.04756 0.74915 0.00417 0.0
H2649 H 0.91296 0.61573 0.9925 0.0
H2650 H 0.96572 0.65255 0.98951 0.0
H2651 H 0.00266 0.73996 0.00687 0.0
H2652 H 0.15699 0.80771 0.01622 0.0
H2653 H 0.10214 0.77907 0.01584 0.0
H2654 H 0.06665 0.69736 0.99651 0.0
C2655 C 0.95455 0.65526 0.99626 0.0
C2656 C 0.0164 0.73038 0.00463 0.0
C2657 C 0.92426 0.63431 0.99791 0.0
C2658 C 0.1459 0.79317 0.00959 0.0
C2659 C 0.11449 0.77689 0.00935 0.0
C2660 C 0.0529 0.70703 0.99864 0.0
C2661 C 0.9703 0.67909 1.00335 0.0
C2662 C 0.00319 0.69964 1.00221 0.0
C2663 C 0.09928 0.75701 1.00105 0.0
C2664 C 0.06613 0.73761 1.00122 0.0
H2665 H 0.9132 0.66379 0.02027 0.0
H2666 H 0.96618 0.69994 0.01757 0.0
H2667 H 0.01256 0.66463 0.99745 0.0
H2668 H 0.15949 0.76801 0.98663 0.0
H2669 H 0.10496 0.73982 0.98624 0.0
C2670 C 0.19706 0.3468 0.01125 0.0
C2671 C 0.2029 0.36862 1.00356 0.0
C2672 C 0.2118 0.33021 0.01101 0.0
C2673 C 0.25873 0.3105 0.99423 0.0
H2674 H 0.28847 0.30091 0.02103 0.0
C2675 C 0.35631 0.28585 0.99898 0.0
C2676 C 0.35444 0.26687 0.00722 0.0
C2677 C 0.33414 0.29377 0.99773 0.0
C2678 C 0.27993 0.30293 0.0135 0.0
H2679 H 0.22817 0.38949 0.98941 0.0
H2680 H 0.25439 0.36111 0.98913 0.0
H2681 H 0.25645 0.32306 0.02038 0.0
H2682 H 0.32726 0.23995 0.02024 0.0
H2683 H 0.28852 0.2537 0.01805 0.0
H2684 H 0.28322 0.29116 0.98736 0.0
C2685 C 0.23803 0.35639 0.99525 0.0
C2686 C 0.2615 0.31561 0.01312 0.0
C2687 C 0.2231 0.37282 0.99544 0.0
C2688 C 0.32939 0.25486 0.01388 0.0
C2689 C 0.30729 0.26281 0.01265 0.0
C2690 C 0.27735 0.29792 0.99461 0.0
C2691 C 0.23292 0.33522 1.00313 0.0
C2692 C 0.25087 0.31982 1.00348 0.0
C2693 C 0.30977 0.2829 0.00472 0.0
C2694 C 0.28834 0.29424 0.00425 0.0
H2695 H 0.18135 0.34273 0.01754 0.0
H2696 H 0.20687 0.31366 0.01708 0.0
H2697 H 0.25059 0.31302 0.98669 0.0
H2698 H 0.37543 0.29545 0.99374 0.0
H2699 H 0.33681 0.30946 0.9916 0.0
C2700 C 0.14421 0.36524 0.49038 0.0
C2701 C 0.1593 0.36139 0.49891 0.0
C2702 C 0.11291 0.35036 0.49011 0.0
C2703 C 0.04364 0.289 0.50191 0.0
H2704 H 0.01201 0.34207 0.49634 0.0
C2705 C 0.92489 0.26146 0.51446 0.0
C2706 C 0.90932 0.27153 0.50817 0.0
C2707 C 0.95432 0.26909 0.512 0.0
C2708 C 0.02028 0.3267 0.49771 0.0
H2709 H 0.15324 0.33745 0.51353 0.0
H2710 H 0.09851 0.31152 0.51305 0.0
H2711 H 0.06537 0.36057 0.49427 0.0
H2712 H 0.91168 0.29646 0.49417 0.0
H2713 H 0.96286 0.30923 0.4897 0.0
H2714 H -0.00151 0.25521 0.50548 0.0
C2715 C 0.11097 0.32602 0.50657 0.0
C2716 C 0.05094 0.33736 0.49654 0.0
C2717 C 0.14235 0.34099 0.50686 0.0
C2718 C 0.92328 0.28854 0.49918 0.0
C2719 C 0.95265 0.29599 0.49666 0.0
C2720 C 0.01286 0.27825 0.50302 0.0
C2721 C 0.09597 0.33121 0.49833 0.0
C2722 C 0.06303 0.31877 0.49876 0.0
C2723 C 0.96871 0.28679 0.50315 0.0
C2724 C 0.00089 0.29713 0.50108 0.0
H2725 H 0.15653 0.38057 0.48407 0.0
H2726 H 0.10195 0.35442 0.48358 0.0
H2727 H 0.0523 0.27409 0.50357 0.0
H2728 H 0.9146 0.24827 0.52143 0.0
H2729 H 0.9661 0.26195 0.51724 0.0
C2730 C 0.61755 0.76307 0.49567 0.0
C2731 C 0.63193 0.79345 0.49849 0.0
C2732 C 0.63324 0.74751 0.49561 0.0
C2733 C 0.7039 0.75234 0.50552 0.0
H2734 H 0.67336 0.67987 0.48891 0.0
C2735 C 0.7345 0.66211 0.51556 0.0
C2736 C 0.73186 0.64122 0.50797 0.0
C2737 C 0.72641 0.68363 0.51323 0.0
C2738 C 0.68289 0.70033 0.49347 0.0
H2739 H 0.67406 0.83185 0.50319 0.0
H2740 H 0.70237 0.80533 0.50238 0.0
H2741 H 0.65347 0.71288 0.48626 0.0
H2742 H 0.71936 0.62679 0.49193 0.0
H2743 H 0.70799 0.66595 0.48748 0.0
H2744 H 0.73496 0.74099 0.51215 0.0
C2745 C 0.67861 0.79297 0.50063 0.0
C2746 C 0.67081 0.7191 0.49211 0.0
C2747 C 0.66254 0.80834 0.50102 0.0
C2748 C 0.72194 0.64284 0.49789 0.0
C2749 C 0.71488 0.66509 0.49542 0.0
C2750 C 0.71675 0.73412 0.50661 0.0
C2751 C 0.66408 0.76215 0.49806 0.0
C2752 C 0.68023 0.74475 0.49841 0.0
C2753 C 0.71634 0.68547 0.50312 0.0
C2754 C 0.70567 0.70718 0.50089 0.0
H2755 H 0.59375 0.75094 0.4939 0.0
H2756 H 0.62074 0.7237 0.49394 0.0
H2757 H 0.71193 0.77177 0.51057 0.0
H2758 H 0.74186 0.66122 0.52344 0.0
H2759 H 0.7272 0.69811 0.51952 0.0
C2760 C 0.21857 0.8527 0.48969 0.0
C2761 C 0.19972 0.83744 0.49821 0.0
C2762 C 0.23503 0.88401 0.4895 0.0
C2763 C 0.24325 0.95316 0.50149 0.0
H2764 H 0.32779 0.98475 0.49566 0.0
C2765 C 0.33486 0.07293 0.51323 0.0
C2766 C 0.36014 0.08816 0.50676 0.0
C2767 C 0.31303 0.04327 0.51104 0.0
C2768 C 0.30419 0.97649 0.49711 0.0
H2769 H 0.18204 0.84324 0.51292 0.0
H2770 H 0.2109 0.898 0.51258 0.0
H2771 H 0.29288 0.93135 0.4937 0.0
H2772 H 0.38215 0.08477 0.49278 0.0
H2773 H 0.34363 0.03334 0.48874 0.0
H2774 H 0.25469 0.99838 0.505 0.0
C2775 C 0.21285 0.88565 0.50604 0.0
C2776 C 0.28416 0.94581 0.496 0.0
C2777 C 0.1964 0.85426 0.50625 0.0
C2778 C 0.36282 0.07356 0.49788 0.0
C2779 C 0.34087 0.04399 0.49564 0.0
C2780 C 0.2633 0.98398 0.50254 0.0
C2781 C 0.23297 0.9008 0.4978 0.0
C2782 C 0.25354 0.93375 0.49828 0.0
C2783 C 0.31596 0.02829 0.50229 0.0
C2784 C 0.2941 0.99595 0.50048 0.0
H2785 H 0.2215 0.8405 0.48331 0.0
H2786 H 0.24998 0.89509 0.48296 0.0
H2787 H 0.21972 0.94451 0.50321 0.0
H2788 H 0.33227 0.0837 0.52013 0.0
H2789 H 0.29438 0.0318 0.51642 0.0
C2790 C 0.01264 0.47846 0.3311 0.0
C2791 C 0.03518 0.494 0.33861 0.0
C2792 C 0.99579 0.44711 0.33123 0.0
C2793 C 0.97578 0.38024 0.34782 0.0
H2794 H 0.96366 0.34025 0.32102 0.0
C2795 C 0.91626 0.25353 0.3283 0.0
C2796 C 0.92771 0.23993 0.33495 0.0
C2797 C 0.92508 0.28381 0.32952 0.0
C2798 C 0.96637 0.351 0.32856 0.0
H2799 H 0.05721 0.48877 0.35231 0.0
H2800 H 0.02826 0.43422 0.35241 0.0
H2801 H 0.98707 0.39461 0.32161 0.0
H2802 H 0.95598 0.24664 0.34845 0.0
H2803 H 0.97168 0.29975 0.35053 0.0
H2804 H 0.95571 0.33646 0.35476 0.0
C2805 C 0.02325 0.44621 0.34651 0.0
C2806 C 0.9798 0.38221 0.32889 0.0
C2807 C 0.04002 0.47754 0.3464 0.0
C2808 C 0.94692 0.25667 0.34319 0.0
C2809 C 0.95577 0.28701 0.34441 0.0
C2810 C 0.96239 0.34896 0.34748 0.0
C2811 C 0.00117 0.4306 0.33886 0.0
C2812 C 0.98496 0.39725 0.33853 0.0
C2813 C 0.94553 0.30108 0.33741 0.0
C2814 C 0.95779 0.33403 0.33785 0.0
H2815 H 0.00816 0.49045 0.32504 0.0
H2816 H 0.97864 0.43578 0.32532 0.0
H2817 H 0.97905 0.39112 0.35536 0.0
H2818 H 0.90116 0.24102 0.32195 0.0
H2819 H 0.91636 0.29387 0.32413 0.0
C2820 C 0.74132 0.66384 0.3287 0.0
C2821 C 0.75406 0.69032 0.33465 0.0
C2822 C 0.71189 0.64107 0.33055 0.0
C2823 C 0.64881 0.61283 0.34946 0.0
H2824 H 0.60026 0.58163 0.32438 0.0
C2825 C 0.51938 0.55408 0.34932 0.0
C2826 C 0.50335 0.53153 0.34184 0.0
C2827 C 0.55072 0.56927 0.34948 0.0
C2828 C 0.61353 0.58956 0.33147 0.0
H2829 H 0.74664 0.71344 0.34748 0.0
H2830 H 0.69489 0.67372 0.35067 0.0
H2831 H 0.65377 0.61623 0.32278 0.0
H2832 H 0.50764 0.50581 0.32917 0.0
H2833 H 0.56231 0.53194 0.32959 0.0
H2834 H 0.60821 0.58651 0.35814 0.0
C2835 C 0.70774 0.67041 0.34463 0.0
C2836 C 0.64427 0.6095 0.33055 0.0
C2837 C 0.73729 0.69321 0.34278 0.0
C2838 C 0.51929 0.52328 0.33495 0.0
C2839 C 0.55065 0.53838 0.33516 0.0
C2840 C 0.61796 0.59277 0.35038 0.0
C2841 C 0.69453 0.64435 0.33839 0.0
C2842 C 0.66223 0.62163 0.33952 0.0
C2843 C 0.56675 0.56216 0.34222 0.0
C2844 C 0.59991 0.58118 0.34139 0.0
H2845 H 0.75391 0.66091 0.32246 0.0
H2846 H 0.70256 0.62105 0.32574 0.0
H2847 H 0.66212 0.62153 0.35651 0.0
H2848 H 0.50782 0.56104 0.35474 0.0
H2849 H 0.56237 0.58762 0.35496 0.0
C2850 C 0.29756 0.04081 0.34198 0.0
C2851 C 0.30069 0.05856 0.3332 0.0
C2852 C 0.31855 0.03171 0.34394 0.0
C2853 C 0.39438 0.04556 0.3363 0.0
H2854 H 0.36134 0.96228 0.34445 0.0
C2855 C 0.45668 0.97846 0.33148 0.0
C2856 C 0.45342 0.95855 0.33959 0.0
C2857 C 0.44065 0.99383 0.33173 0.0
C2858 C 0.371 0.98571 0.34231 0.0
H2859 H 0.32849 0.08148 0.31974 0.0
H2860 H 0.36463 0.06495 0.32296 0.0
H2861 H 0.32846 0.98341 0.3432 0.0
H2862 H 0.43184 0.94026 0.35456 0.0
H2863 H 0.40404 0.96699 0.35495 0.0
H2864 H 0.43683 0.04734 0.3351 0.0
C2865 C 0.34639 0.05848 0.32847 0.0
C2866 C 0.35216 0.99788 0.34163 0.0
C2867 C 0.32555 0.06774 0.32657 0.0
C2868 C 0.43471 0.9552 0.34812 0.0
C2869 C 0.41866 0.97043 0.34835 0.0
C2870 C 0.41322 0.03329 0.33692 0.0
C2871 C 0.34291 0.03997 0.33709 0.0
C2872 C 0.36355 0.02788 0.33854 0.0
C2873 C 0.42102 0.98946 0.34007 0.0
C2874 C 0.40164 0.00318 0.33987 0.0
H2875 H 0.27859 0.03345 0.34722 0.0
H2876 H 0.31546 0.01787 0.35074 0.0
H2877 H 0.40396 0.06887 0.33404 0.0
H2878 H 0.47098 0.98162 0.32481 0.0
H2879 H 0.44276 0.00825 0.32521 0.0
C2880 C 0.14329 0.39789 0.05746 0.0
C2881 C 0.13207 0.38005 0.04843 0.0
C2882 C 0.13501 0.38501 0.06742 0.0
C2883 C 0.10927 0.31429 0.08144 0.0
H2884 H 0.08591 0.35132 0.10316 0.0
C2885 C 0.06953 0.25872 0.12198 0.0
C2886 C 0.0782 0.27746 0.13082 0.0
C2887 C 0.07434 0.27086 0.11189 0.0
C2888 C 0.09277 0.34087 0.09724 0.0
H2889 H 0.10338 0.33482 0.04269 0.0
H2890 H 0.08923 0.31211 0.06016 0.0
H2891 H 0.09776 0.3732 0.08563 0.0
H2892 H 0.0985 0.32356 0.13608 0.0
H2893 H 0.10781 0.34499 0.11848 0.0
H2894 H 0.10529 0.28253 0.09304 0.0
C2895 C 0.10436 0.33609 0.05951 0.0
C2896 C 0.09942 0.35337 0.08718 0.0
C2897 C 0.11235 0.34907 0.04953 0.0
C2898 C 0.09148 0.30859 0.12939 0.0
C2899 C 0.09664 0.32081 0.11929 0.0
C2900 C 0.10298 0.30199 0.09152 0.0
C2901 C 0.11563 0.35394 0.06856 0.0
C2902 C 0.10777 0.34023 0.07917 0.0
C2903 C 0.0883 0.30211 0.11038 0.0
C2904 C 0.09464 0.3151 0.09958 0.0
H2905 H 0.15855 0.42186 0.05682 0.0
H2906 H 0.14427 0.39929 0.07424 0.0
H2907 H 0.11606 0.30392 0.07547 0.0
H2908 H 0.05906 0.23459 0.12286 0.0
H2909 H 0.06701 0.25564 0.10527 0.0
C2910 C 0.6399 0.75316 0.04857 0.0
C2911 C 0.61508 0.75681 0.0465 0.0
C2912 C 0.6518 0.75748 0.05871 0.0
C2913 C 0.65972 0.79922 0.0827 0.0
H2914 H 0.67651 0.74189 0.09642 0.0
C2915 C 0.72929 0.82674 0.12078 0.0
C2916 C 0.71584 0.80596 0.12896 0.0
C2917 C 0.71742 0.81977 0.11064 0.0
C2918 C 0.67191 0.75806 0.09267 0.0
H2919 H 0.58308 0.76754 0.05338 0.0
H2920 H 0.60428 0.77572 0.07104 0.0
H2921 H 0.65437 0.73113 0.0788 0.0
H2922 H 0.68003 0.76132 0.13295 0.0
H2923 H 0.65964 0.74883 0.11511 0.0
H2924 H 0.67755 0.82633 0.09647 0.0
C2925 C 0.6144 0.76937 0.06485 0.0
C2926 C 0.65942 0.75199 0.08259 0.0
C2927 C 0.60221 0.76455 0.05476 0.0
C2928 C 0.69081 0.77774 0.12677 0.0
C2929 C 0.67923 0.77057 0.11658 0.0
C2930 C 0.67267 0.80552 0.09268 0.0
C2931 C 0.63942 0.76605 0.06692 0.0
C2932 C 0.65303 0.77244 0.07754 0.0
C2933 C 0.69216 0.7917 0.10845 0.0
C2934 C 0.67879 0.78497 0.09779 0.0
H2935 H 0.65023 0.74719 0.04233 0.0
H2936 H 0.67119 0.75492 0.06009 0.0
H2937 H 0.65522 0.81547 0.07895 0.0
H2938 H 0.7486 0.84868 0.12226 0.0
H2939 H 0.72796 0.83638 0.1045 0.0
C2940 C 0.21922 0.91676 0.12559 0.0
C2941 C 0.18916 0.90575 0.12846 0.0
C2942 C 0.22644 0.9118 0.11548 0.0
C2943 C 0.19308 0.86182 0.09251 0.0
H2944 H 0.26281 0.92353 0.07789 0.0
C2945 C 0.23458 0.83673 0.05402 0.0
C2946 C 0.24426 0.85837 0.04604 0.0
C2947 C 0.22872 0.8433 0.06407 0.0
C2948 C 0.24312 0.90614 0.08183 0.0
H2949 H 0.1431 0.88132 0.12304 0.0
H2950 H 0.1556 0.87302 0.10539 0.0
H2951 H 0.25054 0.9338 0.09533 0.0
H2952 H 0.25574 0.90395 0.04228 0.0
H2953 H 0.24512 0.91544 0.05985 0.0
H2954 H 0.18521 0.83439 0.07897 0.0
C2955 C 0.17365 0.88502 0.11095 0.0
C2956 C 0.23629 0.9119 0.09189 0.0
C2957 C 0.16647 0.88992 0.12105 0.0
C2958 C 0.24833 0.88688 0.04831 0.0
C2959 C 0.2424 0.89347 0.05839 0.0
C2960 C 0.19988 0.85609 0.08248 0.0
C2961 C 0.20371 0.89575 0.10805 0.0
C2962 C 0.21117 0.8898 0.09735 0.0
C2963 C 0.2323 0.87166 0.06637 0.0
C2964 C 0.22503 0.87812 0.07702 0.0
H2965 H 0.23715 0.929 0.13118 0.0
H2966 H 0.24978 0.92007 0.11356 0.0
H2967 H 0.17377 0.84414 0.09653 0.0
H2968 H 0.23141 0.8146 0.0525 0.0
H2969 H 0.22152 0.82615 0.07006 0.0
C2970 C 0.36114 0.10977 0.45858 0.0
C2971 C 0.38172 0.13961 0.4613 0.0
C2972 C 0.34866 0.10276 0.4485 0.0
C2973 C 0.33463 0.13782 0.42542 0.0
H2974 H 0.32163 0.06604 0.4109 0.0
C2975 C 0.26839 0.10018 0.38673 0.0
C2976 C 0.2792 0.08913 0.37881 0.0
C2977 C 0.28046 0.10516 0.39683 0.0
C2978 C 0.32532 0.08629 0.41482 0.0
H2979 H 0.40579 0.18544 0.45562 0.0
H2980 H 0.38448 0.17327 0.43805 0.0
H2981 H 0.34416 0.07722 0.42836 0.0
H2982 H 0.31086 0.07429 0.37522 0.0
H2983 H 0.3324 0.08342 0.39287 0.0
H2984 H 0.31655 0.14736 0.41183 0.0
C2985 C 0.37746 0.15527 0.4437 0.0
C2986 C 0.3379 0.09252 0.42488 0.0
C2987 C 0.38983 0.16224 0.45376 0.0
C2988 C 0.30211 0.08281 0.3812 0.0
C2989 C 0.3143 0.08788 0.39132 0.0
C2990 C 0.32212 0.13163 0.41538 0.0
C2991 C 0.35654 0.12548 0.44095 0.0
C2992 C 0.34279 0.11842 0.4303 0.0
C2993 C 0.30375 0.09933 0.39925 0.0
C2994 C 0.31725 0.10578 0.40994 0.0
H2995 H 0.35448 0.0919 0.46427 0.0
H2996 H 0.3324 0.07963 0.44669 0.0
H2997 H 0.33769 0.15776 0.42939 0.0
H2998 H 0.2506 0.10507 0.38513 0.0
H2999 H 0.27139 0.11346 0.40277 0.0
C3000 C 0.91969 0.18538 0.38942 0.0
C3001 C 0.91036 0.19542 0.38074 0.0
C3002 C 0.91618 0.19326 0.3996 0.0
C3003 C 0.90038 0.24634 0.41459 0.0
H3004 H 0.87745 0.18658 0.43652 0.0
C3005 C 0.85255 0.25512 0.45468 0.0
C3006 C 0.86339 0.24784 0.46365 0.0
C3007 C 0.86037 0.25023 0.44467 0.0
C3008 C 0.88417 0.20363 0.43051 0.0
H3009 H 0.89024 0.22173 0.37588 0.0
H3010 H 0.88327 0.23483 0.39361 0.0
H3011 H 0.88699 0.17522 0.41888 0.0
H3012 H 0.89105 0.22994 0.46924 0.0
H3013 H 0.90449 0.22101 0.45172 0.0
H3014 H 0.8966 0.27435 0.42623 0.0
C3015 C 0.89397 0.22145 0.39261 0.0
C3016 C 0.88975 0.19718 0.42038 0.0
C3017 C 0.89779 0.2138 0.38243 0.0
C3018 C 0.88238 0.23575 0.46245 0.0
C3019 C 0.88994 0.23052 0.45243 0.0
C3020 C 0.89448 0.25265 0.4247 0.0
C3021 C 0.90294 0.21114 0.40136 0.0
C3022 C 0.89785 0.2184 0.41225 0.0
C3023 C 0.87895 0.23763 0.44342 0.0
C3024 C 0.88621 0.23133 0.43277 0.0
H3025 H 0.92959 0.17128 0.38834 0.0
H3026 H 0.9239 0.18534 0.4061 0.0
H3027 H 0.90711 0.2635 0.40863 0.0
H3028 H 0.83783 0.26444 0.45538 0.0
H3029 H 0.85131 0.25567 0.43789 0.0
C3030 C 0.82603 0.71369 0.38655 0.0
C3031 C 0.80375 0.71256 0.3799 0.0
C3032 C 0.81858 0.70045 0.39647 0.0
C3033 C 0.76142 0.67567 0.41721 0.0
H3034 H 0.7987 0.6305 0.42687 0.0
C3035 C 0.7604 0.64219 0.46064 0.0
C3036 C 0.75639 0.61357 0.46266 0.0
C3037 C 0.76377 0.65283 0.45035 0.0
C3038 C 0.78787 0.6428 0.42426 0.0
H3039 H 0.75623 0.69688 0.37838 0.0
H3040 H 0.74312 0.67373 0.39581 0.0
H3041 H 0.80896 0.65142 0.40921 0.0
H3042 H 0.75213 0.57337 0.45555 0.0
H3043 H 0.758 0.59191 0.43757 0.0
H3044 H 0.74037 0.66704 0.4323 0.0
C3045 C 0.76638 0.68497 0.39335 0.0
C3046 C 0.794 0.65506 0.41418 0.0
C3047 C 0.77384 0.69809 0.38337 0.0
C3048 C 0.75529 0.59557 0.45421 0.0
C3049 C 0.75881 0.60625 0.44393 0.0
C3050 C 0.75543 0.66355 0.42733 0.0
C3051 C 0.78868 0.68589 0.39999 0.0
C3052 C 0.78103 0.67182 0.41056 0.0
C3053 C 0.76335 0.63511 0.44188 0.0
C3054 C 0.76872 0.64711 0.431 0.0
H3055 H 0.84929 0.72476 0.38409 0.0
H3056 H 0.83635 0.70193 0.40144 0.0
H3057 H 0.75123 0.68862 0.41467 0.0
H3058 H 0.76133 0.65653 0.46702 0.0
H3059 H 0.76753 0.67527 0.44906 0.0
C3060 C 0.90896 0.73686 0.88692 0.0
C3061 C 0.90949 0.71954 0.87851 0.0
C3062 C 0.90475 0.72586 0.89719 0.0
C3063 C 0.90868 0.66912 0.914 0.0
H3064 H 0.85209 0.67853 0.93139 0.0
C3065 C 0.8878 0.63362 0.95785 0.0
C3066 C 0.85771 0.61849 0.96114 0.0
C3067 C 0.89554 0.64685 0.94789 0.0
C3068 C 0.86789 0.67562 0.92663 0.0
H3069 H 0.90676 0.6775 0.87422 0.0
H3070 H 0.89945 0.65825 0.89214 0.0
H3071 H 0.86343 0.69996 0.91381 0.0
H3072 H 0.81215 0.60528 0.95663 0.0
H3073 H 0.82557 0.62831 0.93929 0.0
H3074 H 0.91269 0.64431 0.92679 0.0
C3075 C 0.90244 0.6804 0.89084 0.0
C3076 C 0.87464 0.68819 0.91658 0.0
C3077 C 0.90649 0.69135 0.88057 0.0
C3078 C 0.83554 0.61686 0.95431 0.0
C3079 C 0.84327 0.63021 0.9444 0.0
C3080 C 0.90206 0.6567 0.92409 0.0
C3081 C 0.90113 0.69736 0.89926 0.0
C3082 C 0.89496 0.68493 0.91011 0.0
C3083 C 0.87336 0.6454 0.94106 0.0
C3084 C 0.88138 0.65957 0.93049 0.0
H3085 H 0.91126 0.75871 0.88556 0.0
H3086 H 0.90425 0.73967 0.90351 0.0
H3087 H 0.92461 0.66641 0.90926 0.0
H3088 H 0.90536 0.63524 0.96297 0.0
H3089 H 0.91895 0.65858 0.9456 0.0
C3090 C 0.30479 0.21599 0.88101 0.0
C3091 C 0.2761 0.19156 0.87895 0.0
C3092 C 0.31564 0.22266 0.8913 0.0
C3093 C 0.30566 0.18692 0.91712 0.0
H3094 H 0.35218 0.26878 0.92725 0.0
C3095 C 0.37558 0.21692 0.95511 0.0
C3096 C 0.37489 0.23822 0.9618 0.0
C3097 C 0.36251 0.2116 0.94516 0.0
C3098 C 0.33904 0.24579 0.92457 0.0
H3099 H 0.23594 0.15536 0.88599 0.0
H3100 H 0.25478 0.16703 0.90395 0.0
H3101 H 0.33067 0.25926 0.90963 0.0
H3102 H 0.36006 0.27072 0.96339 0.0
H3103 H 0.33715 0.26144 0.94596 0.0
H3104 H 0.31392 0.1734 0.93204 0.0
C3105 C 0.26906 0.18086 0.89763 0.0
C3106 C 0.32697 0.24035 0.91444 0.0
C3107 C 0.25819 0.17429 0.88736 0.0
C3108 C 0.36092 0.25418 0.95837 0.0
C3109 C 0.34796 0.24897 0.94838 0.0
C3110 C 0.31785 0.19236 0.92722 0.0
C3111 C 0.29803 0.20493 0.89972 0.0
C3112 C 0.31021 0.21085 0.91058 0.0
C3113 C 0.34855 0.22756 0.94167 0.0
C3114 C 0.33482 0.22185 0.93104 0.0
H3115 H 0.31907 0.22965 0.87466 0.0
H3116 H 0.33814 0.24117 0.89262 0.0
H3117 H 0.29314 0.16395 0.91437 0.0
H3118 H 0.38628 0.20434 0.95755 0.0
H3119 H 0.36372 0.19525 0.94015 0.0
C3120 C 0.80924 0.07484 0.88697 0.0
C3121 C 0.7989 0.0826 0.87798 0.0
C3122 C 0.80131 0.07973 0.89696 0.0
C3123 C 0.77845 0.12702 0.91111 0.0
H3124 H 0.75289 0.06616 0.93274 0.0
C3125 C 0.74164 0.14511 0.95195 0.0
C3126 C 0.74997 0.13431 0.96068 0.0
C3127 C 0.74546 0.13735 0.94179 0.0
C3128 C 0.76036 0.08359 0.92685 0.0
H3129 H 0.77205 0.10139 0.87233 0.0
H3130 H 0.75849 0.11034 0.88982 0.0
H3131 H 0.76393 0.0555 0.91519 0.0
H3132 H 0.76862 0.10678 0.96566 0.0
H3133 H 0.77617 0.09391 0.94797 0.0
H3134 H 0.77586 0.15549 0.92276 0.0
C3135 C 0.77271 0.10045 0.88914 0.0
C3136 C 0.76657 0.07739 0.91677 0.0
C3137 C 0.78034 0.09521 0.87914 0.0
C3138 C 0.76185 0.11531 0.95907 0.0
C3139 C 0.766 0.10779 0.9489 0.0
C3140 C 0.77259 0.13335 0.92121 0.0
C3141 C 0.78316 0.09282 0.89816 0.0
C3142 C 0.77575 0.09906 0.9088 0.0
C3143 C 0.75804 0.11886 0.9401 0.0
C3144 C 0.76352 0.11176 0.92925 0.0
H3145 H 0.8236 0.06511 0.88629 0.0
H3146 H 0.80994 0.07388 0.90376 0.0
H3147 H 0.78587 0.14432 0.90516 0.0
H3148 H 0.73227 0.1597 0.95298 0.0
H3149 H 0.73849 0.14585 0.93525 0.0
C3150 C 0.59572 0.85216 0.55376 0.0
C3151 C 0.61473 0.8627 0.54499 0.0
C3152 C 0.60759 0.8596 0.56391 0.0
C3153 C 0.67658 0.88074 0.5786 0.0
H3154 H 0.64132 0.90631 0.60024 0.0
C3155 C 0.73321 0.91993 0.61894 0.0
C3156 C 0.71485 0.91232 0.62785 0.0
C3157 C 0.72077 0.91505 0.60889 0.0
C3158 C 0.65123 0.8988 0.59435 0.0
H3159 H 0.66092 0.88967 0.53991 0.0
H3160 H 0.6817 0.90242 0.55763 0.0
H3161 H 0.61982 0.89559 0.58263 0.0
H3162 H 0.6691 0.89382 0.63329 0.0
H3163 H 0.6471 0.8844 0.61574 0.0
H3164 H 0.70746 0.88305 0.59026 0.0
C3165 C 0.65764 0.88837 0.55667 0.0
C3166 C 0.63894 0.89278 0.58424 0.0
C3167 C 0.64575 0.88121 0.54653 0.0
C3168 C 0.68378 0.9 0.62654 0.0
C3169 C 0.67123 0.89477 0.61647 0.0
C3170 C 0.68865 0.88641 0.58871 0.0
C3171 C 0.63873 0.87743 0.56548 0.0
C3172 C 0.6516 0.88384 0.57624 0.0
C3173 C 0.68955 0.90205 0.6075 0.0
C3174 C 0.67629 0.89571 0.59673 0.0
H3175 H 0.57171 0.83782 0.55279 0.0
H3176 H 0.59248 0.85068 0.57054 0.0
H3177 H 0.68652 0.87338 0.57265 0.0
H3178 H 0.75728 0.92968 0.61972 0.0
H3179 H 0.73574 0.92162 0.60222 0.0
C3180 C 0.1498 0.74733 0.55361 0.0
C3181 C 0.13428 0.74953 0.54492 0.0
C3182 C 0.14255 0.7519 0.56376 0.0
C3183 C 0.10748 0.78931 0.57779 0.0
H3184 H 0.10951 0.74338 0.60157 0.0
C3185 C 0.10834 0.8273 0.62035 0.0
C3186 C 0.09102 0.80525 0.62779 0.0
C3187 C 0.11233 0.81916 0.61028 0.0
C3188 C 0.10858 0.75625 0.595 0.0
H3189 H 0.09845 0.75734 0.54 0.0
H3190 H 0.08551 0.765 0.55771 0.0
H3191 H 0.11759 0.73044 0.58392 0.0
H3192 H 0.06436 0.75739 0.63058 0.0
H3193 H 0.07111 0.74304 0.61293 0.0
H3194 H 0.0982 0.81493 0.58883 0.0
C3195 C 0.10361 0.76021 0.55671 0.0
C3196 C 0.11353 0.74904 0.58489 0.0
C3197 C 0.11087 0.75563 0.54656 0.0
C3198 C 0.07786 0.77485 0.62499 0.0
C3199 C 0.08186 0.76666 0.6149 0.0
C3200 C 0.10259 0.79654 0.58789 0.0
C3201 C 0.11961 0.75879 0.56543 0.0
C3202 C 0.1132 0.76558 0.57616 0.0
C3203 C 0.09907 0.78874 0.60741 0.0
C3204 C 0.10329 0.78026 0.59663 0.0
H3205 H 0.16801 0.74273 0.55256 0.0
H3206 H 0.15556 0.75095 0.57027 0.0
H3207 H 0.10739 0.80277 0.57128 0.0
H3208 H 0.11887 0.85093 0.62231 0.0
H3209 H 0.12612 0.83675 0.60478 0.0
C3210 C 0.24983 0.4037 0.55452 0.0
C3211 C 0.24641 0.38483 0.54604 0.0
C3212 C 0.24515 0.3928 0.56479 0.0
C3213 C 0.23965 0.33085 0.58132 0.0
H3214 H 0.19472 0.35376 0.59984 0.0
C3215 C 0.22137 0.29829 0.62535 0.0
C3216 C 0.19268 0.28895 0.62943 0.0
C3217 C 0.22909 0.31062 0.61527 0.0
C3218 C 0.20716 0.347 0.59476 0.0
H3219 H 0.23604 0.33996 0.54165 0.0
H3220 H 0.22766 0.32079 0.5596 0.0
H3221 H 0.2062 0.37372 0.58208 0.0
H3222 H 0.14956 0.28516 0.62622 0.0
H3223 H 0.16287 0.30646 0.60863 0.0
H3224 H 0.23998 0.30357 0.59396 0.0
C3225 C 0.23424 0.34411 0.55834 0.0
C3226 C 0.21407 0.35874 0.58461 0.0
C3227 C 0.2389 0.35503 0.54805 0.0
C3228 C 0.17189 0.29227 0.62328 0.0
C3229 C 0.1796 0.30463 0.61323 0.0
C3230 C 0.2328 0.31915 0.5915 0.0
C3231 C 0.23694 0.36276 0.56683 0.0
C3232 C 0.23031 0.35075 0.57774 0.0
C3233 C 0.20828 0.31394 0.60908 0.0
C3234 C 0.21632 0.32696 0.59833 0.0
H3235 H 0.25569 0.42681 0.5532 0.0
H3236 H 0.2479 0.40793 0.57115 0.0
H3237 H 0.25242 0.32442 0.57628 0.0
H3238 H 0.23786 0.29604 0.62994 0.0
H3239 H 0.25148 0.31786 0.61238 0.0
C3240 C 0.97647 0.42288 0.71752 0.0
C3241 C 0.94777 0.41873 0.71554 0.0
C3242 C 0.98765 0.42732 0.72778 0.0
C3243 C 0.979 0.4544 0.75354 0.0
H3244 H 0.02424 0.41793 0.76389 0.0
C3245 C 0.04901 0.49428 0.79153 0.0
C3246 C 0.04729 0.47218 0.79842 0.0
C3247 C 0.03623 0.4865 0.78153 0.0
C3248 C 0.01148 0.42813 0.76113 0.0
H3249 H 0.90802 0.41533 0.72271 0.0
H3250 H 0.92748 0.42308 0.7406 0.0
H3251 H 0.0026 0.4058 0.74626 0.0
H3252 H 0.03104 0.42463 0.80026 0.0
H3253 H 0.00873 0.41094 0.78272 0.0
H3254 H 0.98785 0.47675 0.76836 0.0
C3255 C 0.94148 0.42315 0.73424 0.0
C3256 C -0.00068 0.42139 0.751 0.0
C3257 C 0.93025 0.41853 0.72401 0.0
C3258 C 0.0327 0.44212 0.7951 0.0
C3259 C 0.02007 0.43433 0.78504 0.0
C3260 C 0.99134 0.46131 0.76361 0.0
C3261 C 0.97043 0.42791 0.73625 0.0
C3262 C 0.98296 0.43448 0.74708 0.0
C3263 C 0.02156 0.45643 0.77816 0.0
C3264 C 0.00782 0.44835 0.76753 0.0
H3265 H 0.99048 0.42318 0.71113 0.0
H3266 H 0.01013 0.43116 0.72903 0.0
H3267 H 0.96678 0.46512 0.75073 0.0
H3268 H 0.06019 0.51766 0.79387 0.0
H3269 H 0.03813 0.50412 0.77639 0.0
C3270 C 0.59763 0.5223 0.7227 0.0
C3271 C 0.59016 0.53457 0.71418 0.0
C3272 C 0.59525 0.5304 0.73297 0.0
C3273 C 0.58827 0.58745 0.74871 0.0
H3274 H 0.553 0.52364 0.76934 0.0
C3275 C 0.53979 0.59936 0.78807 0.0
C3276 C 0.54362 0.58566 0.797 0.0
C3277 C 0.5491 0.59524 0.77823 0.0
C3278 C 0.56333 0.54183 0.76373 0.0
H3279 H 0.57493 0.56532 0.70964 0.0
H3280 H 0.57035 0.57923 0.72757 0.0
H3281 H 0.56231 0.51252 0.75164 0.0
H3282 H 0.56097 0.55767 0.80273 0.0
H3283 H 0.57744 0.55051 0.7855 0.0
H3284 H 0.5887 0.61663 0.76077 0.0
C3285 C 0.57844 0.56365 0.72636 0.0
C3286 C 0.56867 0.53546 0.75356 0.0
C3287 C 0.58089 0.55558 0.71608 0.0
C3288 C 0.5577 0.56843 0.79596 0.0
C3289 C 0.56694 0.56419 0.78609 0.0
C3290 C 0.58286 0.59381 0.75887 0.0
C3291 C 0.58527 0.5509 0.73494 0.0
C3292 C 0.58097 0.55812 0.74589 0.0
C3293 C 0.56239 0.57724 0.77709 0.0
C3294 C 0.57007 0.57102 0.76648 0.0
H3295 H 0.60497 0.50614 0.72145 0.0
H3296 H 0.60116 0.52051 0.73937 0.0
H3297 H 0.59822 0.60555 0.74305 0.0
H3298 H 0.52894 0.61273 0.78864 0.0
H3299 H 0.54493 0.60533 0.77146 0.0
C3300 C 0.48393 0.06815 0.71992 0.0
C3301 C 0.46909 0.05024 0.71118 0.0
C3302 C 0.47625 0.05639 0.73005 0.0
C3303 C 0.44161 0.98422 0.74421 0.0
H3304 H 0.44091 0.03199 0.76761 0.0
C3305 C 0.44136 0.94878 0.78706 0.0
C3306 C 0.4231 0.95293 0.79424 0.0
C3307 C 0.44559 0.9606 0.77694 0.0
C3308 C 0.44075 0.01825 0.76115 0.0
H3309 H 0.43407 0.00628 0.70615 0.0
H3310 H 0.4204 0.98574 0.72386 0.0
H3311 H 0.44957 0.05261 0.74989 0.0
H3312 H 0.39503 0.9728 0.79654 0.0
H3313 H 0.40223 0.99338 0.7788 0.0
H3314 H 0.43256 0.94978 0.75542 0.0
C3315 C 0.43827 0.00876 0.7229 0.0
C3316 C 0.44603 0.03019 0.751 0.0
C3317 C 0.44595 0.02055 0.71276 0.0
C3318 C 0.40925 0.96929 0.79115 0.0
C3319 C 0.4135 0.98119 0.78101 0.0
C3320 C 0.43641 0.97232 0.75434 0.0
C3321 C 0.45356 0.02643 0.73167 0.0
C3322 C 0.4467 0.01338 0.74241 0.0
C3323 C 0.43164 0.97687 0.77377 0.0
C3324 C 0.43614 0.98926 0.76295 0.0
H3325 H 0.50191 0.09111 0.71892 0.0
H3326 H 0.48872 0.07052 0.73661 0.0
H3327 H 0.44229 0.97076 0.7378 0.0
H3328 H 0.45242 0.93636 0.78925 0.0
H3329 H 0.46009 0.95726 0.77163 0.0
C3330 C 0.56747 0.02002 0.21485 0.0
C3331 C 0.5789 0.05079 0.2131 0.0
C3332 C 0.5634 0.00868 0.22506 0.0
C3333 C 0.55603 0.02782 0.25265 0.0
H3334 H 0.56583 0.9594 0.25886 0.0
C3335 C 0.54629 0.9807 0.29476 0.0
C3336 C 0.52812 0.94942 0.29572 0.0
C3337 C 0.55445 0.9941 0.28483 0.0
C3338 C 0.56288 0.97844 0.25723 0.0
H3339 H 0.59577 0.09401 0.22063 0.0
H3340 H 0.5896 0.0745 0.23846 0.0
H3341 H 0.57723 0.98122 0.24134 0.0
H3342 H 0.50462 0.90757 0.28712 0.0
H3343 H 0.51919 0.93086 0.26983 0.0
H3344 H 0.54201 0.0251 0.26864 0.0
C3345 C 0.583 0.05888 0.23198 0.0
C3346 C 0.56929 0.99091 0.24717 0.0
C3347 C 0.58679 0.07015 0.22176 0.0
C3348 C 0.51868 0.93175 0.28661 0.0
C3349 C 0.52713 0.94507 0.27671 0.0
C3350 C 0.54994 0.01553 0.26276 0.0
C3351 C 0.57096 0.02791 0.23379 0.0
C3352 C 0.56562 0.01558 0.24468 0.0
C3353 C 0.54494 0.97641 0.2757 0.0
C3354 C 0.55297 0.99049 0.26513 0.0
H3355 H 0.56105 0.00454 0.20832 0.0
H3356 H 0.5536 0.98469 0.22608 0.0
H3357 H 0.55242 0.04644 0.25104 0.0
H3358 H 0.55387 0.99485 0.30166 0.0
H3359 H 0.56836 0.01828 0.2843 0.0
C3360 C 0.06237 0.58711 0.28636 0.0
C3361 C 0.04446 0.57981 0.29539 0.0
C3362 C 0.0495 0.58264 0.2764 0.0
C3363 C 0.97927 0.53689 0.26223 0.0
H3364 H 0.01636 0.59766 0.24065 0.0
C3365 C 0.92734 0.51925 0.22084 0.0
C3366 C 0.94722 0.52977 0.21231 0.0
C3367 C 0.93811 0.52699 0.2311 0.0
C3368 C 0.00588 0.58026 0.24653 0.0
H3369 H -0.00091 0.56226 0.30113 0.0
H3370 H 0.97639 0.55396 0.28365 0.0
H3371 H 0.03723 0.608 0.25831 0.0
H3372 H 0.99386 0.55676 0.20776 0.0
H3373 H 0.01284 0.56957 0.22563 0.0
H3374 H 0.94856 0.5087 0.25044 0.0
C3375 C 0.00043 0.56323 0.2843 0.0
C3376 C 0.0178 0.58629 0.25667 0.0
C3377 C 0.0134 0.56809 0.29429 0.0
C3378 C 0.97801 0.54846 0.2142 0.0
C3379 C 0.98884 0.55595 0.22446 0.0
C3380 C 0.96754 0.53071 0.25206 0.0
C3381 C 0.01837 0.57043 0.27525 0.0
C3382 C 0.00474 0.5646 0.26462 0.0
C3383 C 0.96907 0.54518 0.23307 0.0
C3384 C 0.9808 0.55224 0.24403 0.0
H3385 H 0.08639 0.59616 0.28698 0.0
H3386 H 0.06386 0.58812 0.26958 0.0
H3387 H 0.96895 0.5196 0.26817 0.0
H3388 H 0.90345 0.50491 0.21958 0.0
H3389 H 0.92211 0.5187 0.23748 0.0
C3390 C 0.44073 0.40543 0.2147 0.0
C3391 C 0.4707 0.42104 0.21129 0.0
C3392 C 0.43311 0.41047 0.22475 0.0
C3393 C 0.4604 0.46701 0.24592 0.0
H3394 H 0.40523 0.40087 0.26357 0.0
C3395 C 0.41863 0.48709 0.28537 0.0
C3396 C 0.41879 0.47002 0.29393 0.0
C3397 C 0.423 0.47999 0.27518 0.0
C3398 C 0.42074 0.41956 0.25874 0.0
H3399 H 0.5162 0.45398 0.21569 0.0
H3400 H 0.50297 0.46281 0.23316 0.0
H3401 H 0.41706 0.3907 0.24599 0.0
H3402 H 0.42288 0.4317 0.29856 0.0
H3403 H 0.43052 0.41922 0.28073 0.0
H3404 H 0.46448 0.49585 0.25866 0.0
C3405 C 0.48527 0.44686 0.22809 0.0
C3406 C 0.4273 0.41376 0.24864 0.0
C3407 C 0.49288 0.44168 0.2181 0.0
C3408 C 0.42264 0.44523 0.29209 0.0
C3409 C 0.42687 0.43801 0.28188 0.0
C3410 C 0.4537 0.47281 0.25597 0.0
C3411 C 0.45529 0.43141 0.23153 0.0
C3412 C 0.44739 0.43742 0.24214 0.0
C3413 C 0.4275 0.45557 0.27332 0.0
C3414 C 0.4339 0.44917 0.26253 0.0
H3415 H 0.42319 0.3894 0.2096 0.0
H3416 H 0.40978 0.39837 0.22713 0.0
H3417 H 0.47573 0.48577 0.24108 0.0
H3418 H 0.41562 0.50627 0.28655 0.0
H3419 H 0.42293 0.49371 0.26875 0.0
C3420 C 0.97662 0.18113 0.29328 0.0
C3421 C 0.95055 0.15529 0.29669 0.0
C3422 C 0.98895 0.18198 0.28348 0.0
C3423 C 0.97088 0.14802 0.25727 0.0
H3424 H 0.05761 0.19073 0.25448 0.0
C3425 C 0.02997 0.16775 0.21693 0.0
C3426 C 0.05245 0.19763 0.21513 0.0
C3427 C 0.01832 0.15826 0.22703 0.0
C3428 C 0.03336 0.17877 0.25512 0.0
H3429 H 0.91681 0.10996 0.29249 0.0
H3430 H 0.9385 0.11138 0.27516 0.0
H3431 H 0.03502 0.18144 0.27185 0.0
H3432 H 0.08113 0.24071 0.22246 0.0
H3433 H 0.06113 0.22418 0.24005 0.0
H3434 H 0.96935 0.14595 0.24048 0.0
C3435 C 0.94929 0.13104 0.28014 0.0
C3436 C 0.02039 0.17345 0.26508 0.0
C3437 C 0.93692 0.13017 0.29004 0.0
C3438 C 0.06391 0.21751 0.22364 0.0
C3439 C 0.05249 0.20798 0.23372 0.0
C3440 C 0.9839 0.15327 0.24729 0.0
C3441 C 0.97559 0.15697 0.27678 0.0
C3442 C 0.98901 0.15877 0.26627 0.0
C3443 C 0.02917 0.1784 0.23551 0.0
C3444 C 0.01531 0.1694 0.24609 0.0
H3445 H 0.98761 0.20092 0.29821 0.0
H3446 H 0.00879 0.20253 0.28109 0.0
H3447 H 0.94666 0.13683 0.2579 0.0
H3448 H 0.02064 0.15198 0.21049 0.0
H3449 H 0.00055 0.13527 0.22817 0.0
C3450 C 0.85522 0.82377 0.29372 0.0
C3451 C 0.85028 0.79475 0.29567 0.0
C3452 C 0.85073 0.83179 0.28366 0.0
C3453 C 0.80651 0.79537 0.26004 0.0
H3454 H 0.85567 0.87221 0.24641 0.0
C3455 C 0.79136 0.81102 0.21677 0.0
C3456 C 0.79068 0.83682 0.21362 0.0
C3457 C 0.80018 0.80869 0.22688 0.0
C3458 C 0.84157 0.8508 0.25019 0.0
H3459 H 0.83879 0.75207 0.28857 0.0
H3460 H 0.83159 0.76613 0.27104 0.0
H3461 H 0.86983 0.86307 0.26382 0.0
H3462 H 0.79949 0.88085 0.21846 0.0
H3463 H 0.81501 0.87673 0.23636 0.0
H3464 H 0.77833 0.7829 0.24652 0.0
C3465 C 0.83818 0.78252 0.27728 0.0
C3466 C 0.84969 0.84554 0.26013 0.0
C3467 C 0.84255 0.77452 0.2873 0.0
C3468 C 0.79973 0.86068 0.22073 0.0
C3469 C 0.8087 0.85836 0.23092 0.0
C3470 C 0.79845 0.80059 0.25017 0.0
C3471 C 0.84124 0.81087 0.27541 0.0
C3472 C 0.83252 0.81751 0.26507 0.0
C3473 C 0.80853 0.83207 0.23413 0.0
C3474 C 0.81614 0.82812 0.24503 0.0
H3475 H 0.86111 0.83977 0.30006 0.0
H3476 H 0.85324 0.85378 0.28248 0.0
H3477 H 0.79226 0.77386 0.26374 0.0
H3478 H 0.7848 0.79235 0.21144 0.0
H3479 H 0.8004 0.78842 0.22902 0.0
C3480 C 0.21855 0.0665 0.28579 0.0
C3481 C 0.19852 0.05571 0.29427 0.0
C3482 C 0.20895 0.05501 0.27573 0.0
C3483 C 0.15262 0.98708 0.26214 0.0
H3484 H 0.1848 0.0377 0.23758 0.0
C3485 C 0.1312 0.94114 0.21912 0.0
C3486 C 0.15736 0.95311 0.21298 0.0
C3487 C 0.13175 0.95346 0.229 0.0
C3488 C 0.17561 0.02324 0.24436 0.0
H3489 H 0.15254 0.02506 0.29886 0.0
H3490 H 0.13563 0.00492 0.28119 0.0
H3491 H 0.19357 0.06062 0.25489 0.0
H3492 H 0.20453 0.98707 0.21238 0.0
H3493 H 0.20547 0.00832 0.22944 0.0
H3494 H 0.13532 0.94964 0.25155 0.0
C3495 C 0.15882 0.02217 0.28235 0.0
C3496 C 0.18067 0.03638 0.25428 0.0
C3497 C 0.16842 0.03385 0.29244 0.0
C3498 C 0.18396 0.97738 0.2169 0.0
C3499 C 0.18446 0.98975 0.22666 0.0
C3500 C 0.14751 0.9739 0.25218 0.0
C3501 C 0.17911 0.03234 0.2739 0.0
C3502 C 0.16999 0.01846 0.26332 0.0
C3503 C 0.15839 0.97814 0.23281 0.0
C3504 C 0.15974 0.99184 0.24321 0.0
H3505 H 0.24192 0.08323 0.28699 0.0
H3506 H 0.2253 0.06309 0.26944 0.0
H3507 H 0.14424 0.97261 0.26894 0.0
H3508 H 0.1104 0.92242 0.21627 0.0
H3509 H 0.11132 0.94403 0.23359 0.0
C3510 C 0.93303 0.79746 0.78603 0.0
C3511 C 0.94734 0.78769 0.79308 0.0
C3512 C 0.94451 0.80659 0.77585 0.0
C3513 C 0.99229 0.79668 0.75649 0.0
H3514 H 0.00299 0.86957 0.74351 0.0
C3515 C 0.06616 0.84423 0.72028 0.0
C3516 C 0.05454 0.85277 0.71186 0.0
C3517 C 0.05274 0.83886 0.73015 0.0
C3518 C -0.00012 0.84902 0.74701 0.0
H3519 H 0.98512 0.78046 0.79514 0.0
H3520 H 0.00495 0.79631 0.77762 0.0
H3521 H 0.97844 0.85409 0.7607 0.0
H3522 H 0.02078 0.86398 0.70725 0.0
H3523 H 0.99716 0.8545 0.72458 0.0
H3524 H 0.01374 0.7915 0.74298 0.0
C3525 C 0.98471 0.79656 0.77978 0.0
C3526 C 0.98576 0.84012 0.75682 0.0
C3527 C 0.97339 0.78761 0.78986 0.0
C3528 C 0.03025 0.8575 0.71363 0.0
C3529 C 0.01673 0.85207 0.72355 0.0
C3530 C 0.00635 0.80554 0.74676 0.0
C3531 C 0.9703 0.80585 0.77259 0.0
C3532 C 0.98239 0.81415 0.76176 0.0
C3533 C 0.02728 0.84177 0.73183 0.0
C3534 C 0.0109 0.83211 0.74198 0.0
H3535 H 0.91296 0.79784 0.78834 0.0
H3536 H 0.9329 0.81361 0.77047 0.0
H3537 H 0.9894 0.77617 0.75996 0.0
H3538 H 0.08496 0.84057 0.71916 0.0
H3539 H 0.06186 0.83163 0.73643 0.0
C3540 C 0.1354 0.16677 0.71405 0.0
C3541 C 0.13993 0.19583 0.71261 0.0
C3542 C 0.13711 0.15667 0.72409 0.0
C3543 C 0.13677 0.17311 0.75242 0.0
H3544 H 0.18873 0.13902 0.7554 0.0
C3545 C 0.19707 0.18046 0.79083 0.0
C3546 C 0.19976 0.15594 0.7942 0.0
C3547 C 0.18521 0.18031 0.781 0.0
C3548 C 0.17371 0.14797 0.7547 0.0
H3549 H 0.14854 0.23665 0.72051 0.0
H3550 H 0.15131 0.21911 0.73799 0.0
H3551 H 0.17494 0.14744 0.73791 0.0
H3552 H 0.19217 0.11192 0.78994 0.0
H3553 H 0.17141 0.11168 0.77254 0.0
H3554 H 0.13622 0.17449 0.76917 0.0
C3555 C 0.14632 0.20397 0.73142 0.0
C3556 C 0.16579 0.1528 0.74468 0.0
C3557 C 0.14485 0.2141 0.7214 0.0
C3558 C 0.19035 0.13112 0.78751 0.0
C3559 C 0.17856 0.13104 0.77757 0.0
C3560 C 0.14465 0.16828 0.76241 0.0
C3561 C 0.14308 0.17537 0.73287 0.0
C3562 C 0.14791 0.16621 0.74343 0.0
C3563 C 0.17574 0.15564 0.77424 0.0
C3564 C 0.16393 0.15649 0.76367 0.0
H3565 H 0.13167 0.15226 0.70738 0.0
H3566 H 0.13424 0.13444 0.72496 0.0
H3567 H 0.12248 0.18291 0.75174 0.0
H3568 H 0.2042 0.19996 0.7958 0.0
H3569 H 0.18395 0.19987 0.77861 0.0
C3570 C 0.81105 0.02652 0.78859 0.0
C3571 C 0.83856 0.04682 0.79328 0.0
C3572 C 0.81021 0.0138 0.77887 0.0
C3573 C 0.85019 0.02366 0.75441 0.0
H3574 H 0.79562 0.93794 0.75173 0.0
C3575 C 0.82683 0.96207 0.71433 0.0
C3576 C 0.79632 0.9422 0.71224 0.0
C3577 C 0.83625 0.9736 0.72446 0.0
C3578 C 0.81088 0.9619 0.75231 0.0
H3579 H 0.88686 0.07037 0.79134 0.0
H3580 H 0.88536 0.04834 0.77403 0.0
H3581 H 0.80451 0.96164 0.76889 0.0
H3582 H 0.75191 0.91812 0.7191 0.0
H3583 H 0.7681 0.93814 0.73665 0.0
H3584 H 0.85556 0.02411 0.73773 0.0
C3585 C 0.86449 0.04221 0.77802 0.0
C3586 C 0.81604 0.97546 0.76215 0.0
C3587 C 0.86535 0.05478 0.78789 0.0
C3588 C 0.7756 0.93327 0.7205 0.0
C3589 C 0.78496 0.94468 0.73058 0.0
C3590 C 0.84485 0.01009 0.7445 0.0
C3591 C 0.83685 0.02118 0.77351 0.0
C3592 C 0.83509 0.00659 0.76328 0.0
C3593 C 0.81533 0.96533 0.73269 0.0
C3594 C 0.82445 0.97915 0.7433 0.0
H3595 H 0.79 0.01998 0.79252 0.0
H3596 H 0.78857 0.99811 0.77552 0.0
H3597 H 0.86491 0.04771 0.75504 0.0
H3598 H 0.84327 0.96941 0.70809 0.0
H3599 H 0.85984 0.98922 0.72582 0.0
C3600 C 0.64645 0.51482 0.62592 0.0
C3601 C 0.62109 0.48906 0.62978 0.0
C3602 C 0.65763 0.51497 0.61597 0.0
C3603 C 0.68645 0.50614 0.59681 0.0
H3604 H 0.63065 0.47569 0.57354 0.0
C3605 C 0.72749 0.52436 0.55369 0.0
C3606 C 0.71228 0.53399 0.54701 0.0
C3607 C 0.716 0.51309 0.56368 0.0
C3608 C 0.64656 0.48426 0.57996 0.0
H3609 H 0.58755 0.44308 0.62628 0.0
H3610 H 0.60715 0.44328 0.60867 0.0
H3611 H 0.61149 0.467 0.59145 0.0
H3612 H 0.673 0.53896 0.54544 0.0
H3613 H 0.65338 0.51993 0.56277 0.0
H3614 H 0.72146 0.52485 0.58535 0.0
C3615 C 0.61831 0.46342 0.61341 0.0
C3616 C 0.63555 0.47896 0.59023 0.0
C3617 C 0.60711 0.46325 0.62347 0.0
C3618 C 0.68525 0.53169 0.55041 0.0
C3619 C 0.6738 0.52046 0.56033 0.0
C3620 C 0.69745 0.51149 0.58655 0.0
C3621 C 0.64377 0.48934 0.60957 0.0
C3622 C 0.65535 0.49066 0.59877 0.0
C3623 C 0.68906 0.51117 0.56714 0.0
C3624 C 0.67761 0.50142 0.57799 0.0
H3625 H 0.6577 0.53511 0.63059 0.0
H3626 H 0.67683 0.53552 0.6132 0.0
H3627 H 0.70235 0.515 0.60323 0.0
H3628 H 0.74832 0.52579 0.55123 0.0
H3629 H 0.72822 0.50595 0.56871 0.0
C3630 C 0.53423 0.14171 0.62059 0.0
C3631 C 0.50926 0.13104 0.62727 0.0
C3632 C 0.53358 0.15309 0.61064 0.0
C3633 C 0.4926 0.18303 0.59542 0.0
H3634 H 0.51738 0.15621 0.57096 0.0
C3635 C 0.44665 0.18042 0.55418 0.0
C3636 C 0.46588 0.18763 0.54553 0.0
C3637 C 0.45666 0.17907 0.56424 0.0
C3638 C 0.51085 0.16436 0.57772 0.0
H3639 H 0.46417 0.12391 0.62883 0.0
H3640 H 0.46295 0.14334 0.61164 0.0
H3641 H 0.52673 0.14333 0.58847 0.0
H3642 H 0.51089 0.19988 0.5406 0.0
H3643 H 0.52845 0.19743 0.55824 0.0
H3644 H 0.47582 0.20318 0.5847 0.0
C3645 C 0.48321 0.14345 0.61403 0.0
C3646 C 0.51623 0.15699 0.58775 0.0
C3647 C 0.48382 0.13205 0.62387 0.0
C3648 C 0.49563 0.19436 0.54715 0.0
C3649 C 0.5056 0.19275 0.55722 0.0
C3650 C 0.48716 0.1903 0.58542 0.0
C3651 C 0.50804 0.15419 0.60728 0.0
C3652 C 0.50639 0.16553 0.59671 0.0
C3653 C 0.48609 0.18469 0.56586 0.0
C3654 C 0.4955 0.1804 0.57645 0.0
H3655 H 0.55413 0.14118 0.62303 0.0
H3656 H 0.55309 0.16126 0.60562 0.0
H3657 H 0.48533 0.19054 0.60216 0.0
H3658 H 0.42357 0.175 0.55315 0.0
H3659 H 0.44094 0.17245 0.57069 0.0
C3660 C 0.86392 0.39089 0.62364 0.0
C3661 C 0.87484 0.37731 0.63056 0.0
C3662 C 0.85502 0.37953 0.61344 0.0
C3663 C 0.86759 0.33436 0.59371 0.0
H3664 H 0.79391 0.32166 0.58079 0.0
C3665 C 0.82372 0.26403 0.55647 0.0
C3666 C 0.81407 0.27552 0.54833 0.0
C3667 C 0.82849 0.27634 0.56652 0.0
C3668 C 0.81469 0.32533 0.58426 0.0
H3669 H 0.88427 0.34089 0.63236 0.0
H3670 H 0.86877 0.32124 0.61479 0.0
H3671 H 0.80821 0.34492 0.59819 0.0
H3672 H 0.8004 0.30793 0.54441 0.0
H3673 H 0.80889 0.32965 0.56203 0.0
H3674 H 0.87427 0.3149 0.57992 0.0
C3675 C 0.86746 0.34084 0.61708 0.0
C3676 C 0.8229 0.33871 0.59421 0.0
C3677 C 0.87622 0.35205 0.62719 0.0
C3678 C 0.80776 0.29857 0.55056 0.0
C3679 C 0.81261 0.31099 0.56065 0.0
C3680 C 0.85944 0.32107 0.58383 0.0
C3681 C 0.8571 0.35459 0.61002 0.0
C3682 C 0.84921 0.34286 0.59912 0.0
C3683 C 0.82388 0.30058 0.56867 0.0
C3684 C 0.83264 0.31587 0.57905 0.0
H3685 H 0.86256 0.41035 0.62606 0.0
H3686 H 0.84717 0.39064 0.60816 0.0
H3687 H 0.88837 0.33788 0.59715 0.0
H3688 H 0.82862 0.24617 0.55499 0.0
H3689 H 0.8365 0.2673 0.57257 0.0
C3690 C 0.72295 0.1982 0.05149 0.0
C3691 C 0.70764 0.17367 0.04469 0.0
C3692 C 0.71196 0.19725 0.06164 0.0
C3693 C 0.69443 0.17928 0.08457 0.0
H3694 H 0.60864 0.13728 0.08981 0.0
C3695 C 0.64483 0.127 0.12452 0.0
C3696 C 0.61911 0.12694 0.12823 0.0
C3697 C 0.65583 0.13744 0.11448 0.0
C3698 C 0.63266 0.14949 0.08851 0.0
H3699 H 0.66871 0.12921 0.04307 0.0
H3700 H 0.64992 0.12737 0.06065 0.0
H3701 H 0.62717 0.14788 0.07185 0.0
H3702 H 0.58485 0.13811 0.12441 0.0
H3703 H 0.60418 0.15661 0.10674 0.0
H3704 H 0.69991 0.18082 0.10122 0.0
C3705 C 0.67006 0.14756 0.0582 0.0
C3706 C 0.64331 0.15527 0.07819 0.0
C3707 C 0.68101 0.1485 0.04813 0.0
C3708 C 0.60467 0.13782 0.12172 0.0
C3709 C 0.61571 0.14831 0.11161 0.0
C3710 C 0.68378 0.17356 0.09488 0.0
C3711 C 0.68541 0.17181 0.06513 0.0
C3712 C 0.67431 0.16949 0.07608 0.0
C3713 C 0.64145 0.1482 0.10787 0.0
C3714 C 0.65274 0.15785 0.09698 0.0
H3715 H 0.7435 0.21791 0.04902 0.0
H3716 H 0.72425 0.2164 0.06676 0.0
H3717 H 0.71841 0.19018 0.08326 0.0
H3718 H 0.65643 0.11869 0.12935 0.0
H3719 H 0.67528 0.13639 0.11183 0.0
C3720 C 0.87325 0.51923 0.12423 0.0
C3721 C 0.8733 0.49324 0.12757 0.0
C3722 C 0.86475 0.52148 0.11406 0.0
C3723 C 0.82319 0.47886 0.09078 0.0
H3724 H 0.8726 0.55557 0.07709 0.0
C3725 C 0.80897 0.50538 0.04718 0.0
C3726 C 0.81359 0.5343 0.04523 0.0
C3727 C 0.81386 0.49753 0.05721 0.0
C3728 C 0.85834 0.53411 0.08083 0.0
H3729 H 0.86376 0.44881 0.12293 0.0
H3730 H 0.84881 0.45278 0.10492 0.0
H3731 H 0.88648 0.54675 0.09437 0.0
H3732 H 0.82514 0.577 0.05233 0.0
H3733 H 0.83314 0.56324 0.06981 0.0
H3734 H 0.79497 0.46642 0.07713 0.0
C3735 C 0.85535 0.47138 0.11028 0.0
C3736 C 0.86636 0.52902 0.09073 0.0
C3737 C 0.864 0.46914 0.12054 0.0
C3738 C 0.82159 0.55462 0.05359 0.0
C3739 C 0.82641 0.5468 0.06358 0.0
C3740 C 0.81512 0.48398 0.0808 0.0
C3741 C 0.85609 0.49783 0.1069 0.0
C3742 C 0.8486 0.5016 0.09594 0.0
C3743 C 0.8235 0.5185 0.06546 0.0
C3744 C 0.83232 0.51193 0.07581 0.0
H3745 H 0.88003 0.53811 0.12948 0.0
H3746 H 0.86497 0.5419 0.11181 0.0
H3747 H 0.80902 0.45753 0.0946 0.0
H3748 H 0.8029 0.48932 0.04085 0.0
H3749 H 0.81146 0.47558 0.05839 0.0
C3750 C 0.52895 0.36643 0.1252 0.0
C3751 C 0.52165 0.38899 0.127 0.0
C3752 C 0.52738 0.35521 0.11507 0.0
C3753 C 0.52329 0.37152 0.08696 0.0
H3754 H 0.4787 0.28491 0.08374 0.0
C3755 C 0.46342 0.31584 0.0488 0.0
C3756 C 0.46372 0.29026 0.04512 0.0
C3757 C 0.47513 0.32786 0.05861 0.0
C3758 C 0.49168 0.30911 0.0845 0.0
H3759 H 0.50808 0.41826 0.11962 0.0
H3760 H 0.50551 0.39893 0.10199 0.0
H3761 H 0.49185 0.30691 0.10128 0.0
H3762 H 0.47648 0.25708 0.04883 0.0
H3763 H 0.497 0.27814 0.06622 0.0
H3764 H 0.52243 0.37381 0.07024 0.0
C3765 C 0.5126 0.38993 0.10834 0.0
C3766 C 0.49923 0.32174 0.09455 0.0
C3767 C 0.51395 0.40095 0.11846 0.0
C3768 C 0.47598 0.27682 0.0515 0.0
C3769 C 0.48762 0.28882 0.06143 0.0
C3770 C 0.51579 0.35894 0.07694 0.0
C3771 C 0.51876 0.36655 0.10654 0.0
C3772 C 0.5144 0.35311 0.0959 0.0
C3773 C 0.48745 0.31462 0.06506 0.0
C3774 C 0.49913 0.3276 0.0756 0.0
H3775 H 0.53486 0.35674 0.13167 0.0
H3776 H 0.53251 0.33739 0.11393 0.0
H3777 H 0.53552 0.39575 0.08771 0.0
H3778 H 0.45405 0.32668 0.04408 0.0
H3779 H 0.47405 0.34734 0.06123 0.0
C3780 C 0.35519 0.87982 0.88288 0.0
C3781 C 0.37846 0.87596 0.87889 0.0
C3782 C 0.34511 0.87152 0.89312 0.0
C3783 C 0.34109 0.82417 0.91526 0.0
H3784 H 0.32445 0.87928 0.93065 0.0
C3785 C 0.30173 0.8095 0.9591 0.0
C3786 C 0.27958 0.81713 0.96128 0.0
C3787 C 0.31448 0.81425 0.94908 0.0
C3788 C 0.32874 0.86351 0.92644 0.0
H3789 H 0.40912 0.85981 0.88241 0.0
H3790 H 0.39139 0.84521 0.90056 0.0
H3791 H 0.34709 0.89312 0.91336 0.0
H3792 H 0.25215 0.83398 0.95459 0.0
H3793 H 0.27404 0.84193 0.93714 0.0
H3794 H 0.32244 0.7945 0.92847 0.0
C3795 C 0.38098 0.85466 0.89567 0.0
C3796 C 0.34178 0.87147 0.91654 0.0
C3797 C 0.3912 0.8631 0.88533 0.0
C3798 C 0.2693 0.82806 0.95315 0.0
C3799 C 0.28201 0.83283 0.94318 0.0
C3800 C 0.32803 0.81618 0.92526 0.0
C3801 C 0.35805 0.85919 0.89969 0.0
C3802 C 0.34744 0.85164 0.91071 0.0
C3803 C 0.30535 0.82683 0.9411 0.0
C3804 C 0.32106 0.83553 0.93083 0.0
H3805 H 0.3447 0.88941 0.8781 0.0
H3806 H 0.32698 0.87471 0.89588 0.0
H3807 H 0.34514 0.8084 0.91095 0.0
H3808 H 0.3101 0.80111 0.96525 0.0
H3809 H 0.33242 0.80942 0.9477 0.0
C3810 C 0.19781 0.47653 0.95835 0.0
C3811 C 0.17207 0.46405 0.96471 0.0
C3812 C 0.19726 0.4878 0.94836 0.0
C3813 C 0.15481 0.51505 0.93274 0.0
H3814 H 0.1831 0.49126 0.90843 0.0
C3815 C 0.11126 0.5138 0.89121 0.0
C3816 C 0.13097 0.52154 0.88268 0.0
C3817 C 0.12079 0.51214 0.90132 0.0
C3818 C 0.17558 0.49859 0.91515 0.0
H3819 H 0.12571 0.45355 0.96564 0.0
H3820 H 0.12478 0.47298 0.94842 0.0
H3821 H 0.19209 0.47831 0.92599 0.0
H3822 H 0.17635 0.53442 0.87803 0.0
H3823 H 0.19313 0.5316 0.89575 0.0
H3824 H 0.13761 0.53463 0.92196 0.0
C3825 C 0.14548 0.47447 0.95109 0.0
C3826 C 0.18074 0.49116 0.92521 0.0
C3827 C 0.14596 0.46309 0.96095 0.0
C3828 C 0.16071 0.52849 0.88448 0.0
C3829 C 0.17024 0.52664 0.89461 0.0
C3830 C 0.14967 0.52247 0.92272 0.0
C3831 C 0.17108 0.48706 0.94467 0.0
C3832 C 0.16965 0.49857 0.9341 0.0
C3833 C 0.15025 0.51805 0.90313 0.0
C3834 C 0.15927 0.51364 0.91378 0.0
H3835 H 0.21823 0.47753 0.96108 0.0
H3836 H 0.21736 0.49739 0.94359 0.0
H3837 H 0.14651 0.52165 0.93945 0.0
H3838 H 0.08817 0.50818 0.89004 0.0
H3839 H 0.10467 0.50508 0.90766 0.0
C3840 C 0.4653 0.59814 0.88759 0.0
C3841 C 0.48024 0.61888 0.87952 0.0
C3842 C 0.46665 0.60814 0.89791 0.0
C3843 C 0.48388 0.67456 0.9141 0.0
H3844 H 0.51191 0.63835 0.9345 0.0
C3845 C 0.53366 0.72967 0.9544 0.0
C3846 C 0.53005 0.71068 0.96284 0.0
C3847 C 0.52358 0.71764 0.94437 0.0
C3848 C 0.50346 0.64841 0.92901 0.0
H3849 H 0.50692 0.66619 0.87573 0.0
H3850 H 0.50882 0.68359 0.89364 0.0
H3851 H 0.49958 0.61793 0.91688 0.0
H3852 H 0.51157 0.66434 0.96764 0.0
H3853 H 0.49284 0.64334 0.9504 0.0
H3854 H 0.48768 0.70505 0.92624 0.0
C3855 C 0.49621 0.6597 0.89207 0.0
C3856 C 0.49644 0.63665 0.91888 0.0
C3857 C 0.49525 0.64972 0.88183 0.0
C3858 C 0.515 0.67953 0.96122 0.0
C3859 C 0.50448 0.66751 0.95129 0.0
C3860 C 0.49053 0.68613 0.9243 0.0
C3861 C 0.48252 0.63903 0.90026 0.0
C3862 C 0.48693 0.64979 0.91127 0.0
C3863 C 0.5093 0.68637 0.94265 0.0
C3864 C 0.50073 0.67341 0.93188 0.0
H3865 H 0.45362 0.57425 0.88601 0.0
H3866 H 0.45575 0.59173 0.90408 0.0
H3867 H 0.47644 0.68505 0.9084 0.0
H3868 H 0.54529 0.75379 0.95546 0.0
H3869 H 0.52797 0.73296 0.93791 0.0
C3870 C 0.27204 0.47275 0.45494 0.0
C3871 C 0.28566 0.46057 0.46126 0.0
C3872 C 0.28335 0.48369 0.44489 0.0
C3873 C 0.35121 0.50794 0.42817 0.0
H3874 H 0.29512 0.48523 0.40506 0.0
C3875 C 0.34844 0.48438 0.38137 0.0
C3876 C 0.37562 0.50906 0.37804 0.0
C3877 C 0.33739 0.4836 0.39141 0.0
C3878 C 0.31111 0.49181 0.41143 0.0
H3879 H 0.32179 0.45046 0.46208 0.0
H3880 H 0.34109 0.46897 0.44467 0.0
H3881 H 0.27624 0.47414 0.42298 0.0
H3882 H 0.41235 0.55264 0.38253 0.0
H3883 H 0.39296 0.5514 0.40023 0.0
H3884 H 0.38599 0.52419 0.4166 0.0
C3885 C 0.32209 0.47068 0.44744 0.0
C3886 C 0.30028 0.48575 0.42172 0.0
C3887 C 0.31082 0.45976 0.45741 0.0
C3888 C 0.39137 0.53331 0.38492 0.0
C3889 C 0.3803 0.53252 0.39504 0.0
C3890 C 0.36204 0.51395 0.41788 0.0
C3891 C 0.30855 0.48277 0.44102 0.0
C3892 C 0.32015 0.49297 0.43021 0.0
C3893 C 0.35321 0.50752 0.39842 0.0
C3894 C 0.34208 0.5052 0.40937 0.0
H3895 H 0.25267 0.47372 0.45774 0.0
H3896 H 0.27247 0.493 0.44017 0.0
H3897 H 0.3672 0.51433 0.43453 0.0
H3898 H 0.33578 0.46531 0.37625 0.0
H3899 H 0.31682 0.46375 0.39377 0.0
C3900 C 0.47959 0.88065 0.38793 0.0
C3901 C 0.4725 0.86137 0.3793 0.0
C3902 C 0.48132 0.87087 0.39799 0.0
C3903 C 0.49748 0.81766 0.41146 0.0
H3904 H 0.47134 0.84301 0.43594 0.0
C3905 C 0.5219 0.79584 0.45432 0.0
C3906 C 0.53238 0.82093 0.46095 0.0
C3907 C 0.51021 0.79608 0.44439 0.0
C3908 C 0.47885 0.83579 0.42919 0.0
H3909 H 0.46085 0.81649 0.3744 0.0
H3910 H 0.46397 0.79932 0.39204 0.0
H3911 H 0.45787 0.85179 0.41852 0.0
H3912 H 0.53888 0.86581 0.46241 0.0
H3913 H 0.51889 0.86631 0.44525 0.0
H3914 H 0.51932 0.80255 0.42216 0.0
C3915 C 0.46825 0.82204 0.39101 0.0
C3916 C 0.4711 0.84081 0.41921 0.0
C3917 C 0.46624 0.83178 0.38094 0.0
C3918 C 0.53089 0.84608 0.4575 0.0
C3919 C 0.51917 0.84627 0.44768 0.0
C3920 C 0.50533 0.81269 0.42147 0.0
C3921 C 0.47622 0.84163 0.39963 0.0
C3922 C 0.48098 0.83254 0.41021 0.0
C3923 C 0.50859 0.82131 0.44099 0.0
C3924 C 0.49681 0.82249 0.43044 0.0
H3925 H 0.48467 0.90363 0.38688 0.0
H3926 H 0.48786 0.88666 0.40442 0.0
H3927 H 0.50563 0.8112 0.40468 0.0
H3928 H 0.52279 0.77616 0.4568 0.0
H3929 H 0.50218 0.77648 0.43942 0.0
C3930 C 0.14688 0.68444 0.4569 0.0
C3931 C 0.17232 0.71078 0.46037 0.0
C3932 C 0.1465 0.67243 0.44707 0.0
C3933 C 0.18035 0.69151 0.4209 0.0
H3934 H 0.14093 0.60487 0.41809 0.0
C3935 C 0.16189 0.63315 0.38045 0.0
C3936 C 0.13246 0.60953 0.37877 0.0
C3937 C 0.17141 0.64496 0.39053 0.0
C3938 C 0.15197 0.6291 0.41873 0.0
H3939 H 0.21738 0.74537 0.45627 0.0
H3940 H 0.21672 0.72432 0.43888 0.0
H3941 H 0.14938 0.62735 0.43547 0.0
H3942 H 0.09027 0.57902 0.3863 0.0
H3943 H 0.1068 0.59935 0.40384 0.0
H3944 H 0.18219 0.69312 0.40411 0.0
C3945 C 0.19704 0.71304 0.44383 0.0
C3946 C 0.15681 0.64199 0.42869 0.0
C3947 C 0.19747 0.72504 0.45377 0.0
C3948 C 0.11313 0.59713 0.38738 0.0
C3949 C 0.12267 0.60875 0.39744 0.0
C3950 C 0.17551 0.67857 0.41091 0.0
C3951 C 0.17155 0.68644 0.44041 0.0
C3952 C 0.1703 0.6733 0.42989 0.0
C3953 C 0.15173 0.63318 0.39912 0.0
C3954 C 0.16054 0.64715 0.4097 0.0
H3955 H 0.12709 0.67296 0.46179 0.0
H3956 H 0.12628 0.65231 0.44462 0.0
H3957 H 0.19064 0.71567 0.42155 0.0
H3958 H 0.17722 0.64321 0.37393 0.0
H3959 H 0.19401 0.66359 0.39158 0.0
loop_
_geom_bond_atom_site_label_1
_geom_bond_atom_site_label_2
_geom_bond_distance
_geom_bond_site_symmetry_2
_ccdc_geom_bond_type
Dy0 O4 2.398 . S
Dy0 O5 2.491 . S
Dy0 O6 2.403 . S
Dy0 O7 2.664 . S
Dy0 O11 2.326 . S
Dy0 O15 2.310 . S
Dy0 O16 2.351 . S
C1 O12 1.185 . S
C1 O13 1.355 . S
C2 O4 1.185 . S
C2 O5 1.355 . S
Dy3 O7 2.310 . S
Dy3 O10 2.351 . S
Dy3 O12 2.398 . S
Dy3 O13 2.491 . S
Dy3 O14 2.403 . S
Dy3 O15 2.664 . S
Dy3 O17 2.326 . S
O4 Dy0 2.398 . S
O4 C2 1.185 . S
O5 Dy0 2.491 . S
O5 C2 1.355 . S
O6 Dy0 2.403 . S
O6 C8 1.254 . S
O7 Dy0 2.664 . S
O7 Dy3 2.310 . S
O7 C8 1.268 . S
C8 O6 1.254 . S
C8 O7 1.268 . S
C9 O14 1.254 . S
C9 O15 1.268 . S
O10 Dy3 2.351 . S
O10 C18 1.249 . S
O11 Dy0 2.326 . S
O11 C18 1.267 . S
O12 C1 1.185 . S
O12 Dy3 2.398 . S
O13 C1 1.355 . S
O13 Dy3 2.491 . S
O14 Dy3 2.403 . S
O14 C9 1.254 . S
O15 Dy0 2.310 . S
O15 Dy3 2.664 . S
O15 C9 1.268 . S
O16 Dy0 2.351 . S
O16 C19 1.249 . S
O17 Dy3 2.326 . S
O17 C19 1.267 . S
C18 O10 1.249 . S
C18 O11 1.267 . S
C19 O16 1.249 . S
C19 O17 1.267 . S
Dy20 O24 2.398 . S
Dy20 O25 2.491 . S
Dy20 O26 2.403 . S
Dy20 O27 2.664 . S
Dy20 O31 2.326 . S
Dy20 O35 2.310 . S
Dy20 O36 2.351 . S
C21 O32 1.185 . S
C21 O33 1.355 . S
C22 O24 1.185 . S
C22 O25 1.355 . S
Dy23 O27 2.310 . S
Dy23 O30 2.351 . S
Dy23 O32 2.398 . S
Dy23 O33 2.491 . S
Dy23 O34 2.403 . S
Dy23 O35 2.664 . S
Dy23 O37 2.326 . S
O24 Dy20 2.398 . S
O24 C22 1.185 . S
O25 Dy20 2.491 . S
O25 C22 1.355 . S
O26 Dy20 2.403 . S
O26 C28 1.254 . S
O27 Dy20 2.664 . S
O27 Dy23 2.310 . S
O27 C28 1.268 . S
C28 O26 1.254 . S
C28 O27 1.268 . S
C29 O34 1.254 . S
C29 O35 1.268 . S
O30 Dy23 2.351 . S
O30 C38 1.249 . S
O31 Dy20 2.326 . S
O31 C38 1.267 . S
O32 C21 1.185 . S
O32 Dy23 2.398 . S
O33 C21 1.355 . S
O33 Dy23 2.491 . S
O34 Dy23 2.403 . S
O34 C29 1.254 . S
O35 Dy20 2.310 . S
O35 Dy23 2.664 . S
O35 C29 1.268 . S
O36 Dy20 2.351 . S
O36 C39 1.249 . S
O37 Dy23 2.326 . S
O37 C39 1.267 . S
C38 O30 1.249 . S
C38 O31 1.267 . S
C39 O36 1.249 . S
C39 O37 1.267 . S
Dy40 O44 2.398 . S
Dy40 O45 2.491 . S
Dy40 O46 2.403 . S
Dy40 O47 2.664 . S
Dy40 O51 2.326 . S
Dy40 O55 2.310 . S
Dy40 O56 2.351 . S
C41 O52 1.185 . S
C41 O53 1.355 . S
C42 O44 1.185 . S
C42 O45 1.355 . S
Dy43 O47 2.310 . S
Dy43 O50 2.351 . S
Dy43 O52 2.398 . S
Dy43 O53 2.491 . S
Dy43 O54 2.403 . S
Dy43 O55 2.664 . S
Dy43 O57 2.326 . S
O44 Dy40 2.398 . S
O44 C42 1.185 . S
O45 Dy40 2.491 . S
O45 C42 1.355 . S
O46 Dy40 2.403 . S
O46 C48 1.254 . S
O47 Dy40 2.664 . S
O47 Dy43 2.310 . S
O47 C48 1.268 . S
C48 O46 1.254 . S
C48 O47 1.268 . S
C49 O54 1.254 . S
C49 O55 1.268 . S
O50 Dy43 2.351 . S
O50 C58 1.249 . S
O51 Dy40 2.326 . S
O51 C58 1.267 . S
O52 C41 1.185 . S
O52 Dy43 2.398 . S
O53 C41 1.355 . S
O53 Dy43 2.491 . S
O54 Dy43 2.403 . S
O54 C49 1.254 . S
O55 Dy40 2.310 . S
O55 Dy43 2.664 . S
O55 C49 1.268 . S
O56 Dy40 2.351 . S
O56 C59 1.249 . S
O57 Dy43 2.326 . S
O57 C59 1.267 . S
C58 O50 1.249 . S
C58 O51 1.267 . S
C59 O56 1.249 . S
C59 O57 1.267 . S
Dy60 O64 2.398 . S
Dy60 O65 2.491 . S
Dy60 O66 2.403 . S
Dy60 O67 2.664 . S
Dy60 O71 2.326 . S
Dy60 O75 2.310 . S
Dy60 O76 2.351 . S
C61 O72 1.185 . S
C61 O73 1.355 . S
C62 O64 1.185 . S
C62 O65 1.355 . S
Dy63 O67 2.310 . S
Dy63 O70 2.351 . S
Dy63 O72 2.398 . S
Dy63 O73 2.491 . S
Dy63 O74 2.403 . S
Dy63 O75 2.664 . S
Dy63 O77 2.326 . S
O64 Dy60 2.398 . S
O64 C62 1.185 . S
O65 Dy60 2.491 . S
O65 C62 1.355 . S
O66 Dy60 2.403 . S
O66 C68 1.254 . S
O67 Dy60 2.664 . S
O67 Dy63 2.310 . S
O67 C68 1.268 . S
C68 O66 1.254 . S
C68 O67 1.268 . S
C69 O74 1.254 . S
C69 O75 1.268 . S
O70 Dy63 2.351 . S
O70 C78 1.249 . S
O71 Dy60 2.326 . S
O71 C78 1.267 . S
O72 C61 1.185 . S
O72 Dy63 2.398 . S
O73 C61 1.355 . S
O73 Dy63 2.491 . S
O74 Dy63 2.403 . S
O74 C69 1.254 . S
O75 Dy60 2.310 . S
O75 Dy63 2.664 . S
O75 C69 1.268 . S
O76 Dy60 2.351 . S
O76 C79 1.249 . S
O77 Dy63 2.326 . S
O77 C79 1.267 . S
C78 O70 1.249 . S
C78 O71 1.267 . S
C79 O76 1.249 . S
C79 O77 1.267 . S
Dy80 O84 2.398 . S
Dy80 O85 2.491 . S
Dy80 O86 2.403 . S
Dy80 O87 2.664 . S
Dy80 O91 2.326 . S
Dy80 O95 2.310 . S
Dy80 O96 2.351 . S
C81 O92 1.185 . S
C81 O93 1.355 . S
C82 O84 1.185 . S
C82 O85 1.355 . S
Dy83 O87 2.310 . S
Dy83 O90 2.351 . S
Dy83 O92 2.398 . S
Dy83 O93 2.491 . S
Dy83 O94 2.403 . S
Dy83 O95 2.664 . S
Dy83 O97 2.326 . S
O84 Dy80 2.398 . S
O84 C82 1.185 . S
O85 Dy80 2.491 . S
O85 C82 1.355 . S
O86 Dy80 2.403 . S
O86 C88 1.254 . S
O87 Dy80 2.664 . S
O87 Dy83 2.310 . S
O87 C88 1.268 . S
C88 O86 1.254 . S
C88 O87 1.268 . S
C89 O94 1.254 . S
C89 O95 1.268 . S
O90 Dy83 2.351 . S
O90 C98 1.249 . S
O91 Dy80 2.326 . S
O91 C98 1.267 . S
O92 C81 1.185 . S
O92 Dy83 2.398 . S
O93 C81 1.355 . S
O93 Dy83 2.491 . S
O94 Dy83 2.403 . S
O94 C89 1.254 . S
O95 Dy80 2.310 . S
O95 Dy83 2.664 . S
O95 C89 1.268 . S
O96 Dy80 2.351 . S
O96 C99 1.249 . S
O97 Dy83 2.326 . S
O97 C99 1.267 . S
C98 O90 1.249 . S
C98 O91 1.267 . S
C99 O96 1.249 . S
C99 O97 1.267 . S
Dy100 O104 2.398 . S
Dy100 O105 2.491 . S
Dy100 O106 2.403 . S
Dy100 O107 2.664 . S
Dy100 O111 2.326 . S
Dy100 O115 2.310 . S
Dy100 O116 2.351 . S
C101 O112 1.185 . S
C101 O113 1.355 . S
C102 O104 1.185 . S
C102 O105 1.355 . S
Dy103 O107 2.310 . S
Dy103 O110 2.351 . S
Dy103 O112 2.398 . S
Dy103 O113 2.491 . S
Dy103 O114 2.403 . S
Dy103 O115 2.664 . S
Dy103 O117 2.326 . S
O104 Dy100 2.398 . S
O104 C102 1.185 . S
O105 Dy100 2.491 . S
O105 C102 1.355 . S
O106 Dy100 2.403 . S
O106 C108 1.254 . S
O107 Dy100 2.664 . S
O107 Dy103 2.310 . S
O107 C108 1.268 . S
C108 O106 1.254 . S
C108 O107 1.268 . S
C109 O114 1.254 . S
C109 O115 1.268 . S
O110 Dy103 2.351 . S
O110 C118 1.249 . S
O111 Dy100 2.326 . S
O111 C118 1.267 . S
O112 C101 1.185 . S
O112 Dy103 2.398 . S
O113 C101 1.355 . S
O113 Dy103 2.491 . S
O114 Dy103 2.403 . S
O114 C109 1.254 . S
O115 Dy100 2.310 . S
O115 Dy103 2.664 . S
O115 C109 1.268 . S
O116 Dy100 2.351 . S
O116 C119 1.249 . S
O117 Dy103 2.326 . S
O117 C119 1.267 . S
C118 O110 1.249 . S
C118 O111 1.267 . S
C119 O116 1.249 . S
C119 O117 1.267 . S
Dy120 O124 2.398 . S
Dy120 O125 2.491 . S
Dy120 O126 2.403 . S
Dy120 O127 2.664 . S
Dy120 O131 2.326 . S
Dy120 O135 2.310 . S
Dy120 O136 2.351 . S
C121 O132 1.185 . S
C121 O133 1.355 . S
C122 O124 1.185 . S
C122 O125 1.355 . S
Dy123 O127 2.310 . S
Dy123 O130 2.351 . S
Dy123 O132 2.398 . S
Dy123 O133 2.491 . S
Dy123 O134 2.403 . S
Dy123 O135 2.664 . S
Dy123 O137 2.326 . S
O124 Dy120 2.398 . S
O124 C122 1.185 . S
O125 Dy120 2.491 . S
O125 C122 1.355 . S
O126 Dy120 2.403 . S
O126 C128 1.254 . S
O127 Dy120 2.664 . S
O127 Dy123 2.310 . S
O127 C128 1.268 . S
C128 O126 1.254 . S
C128 O127 1.268 . S
C129 O134 1.254 . S
C129 O135 1.268 . S
O130 Dy123 2.351 . S
O130 C138 1.249 . S
O131 Dy120 2.326 . S
O131 C138 1.267 . S
O132 C121 1.185 . S
O132 Dy123 2.398 . S
O133 C121 1.355 . S
O133 Dy123 2.491 . S
O134 Dy123 2.403 . S
O134 C129 1.254 . S
O135 Dy120 2.310 . S
O135 Dy123 2.664 . S
O135 C129 1.268 . S
O136 Dy120 2.351 . S
O136 C139 1.249 . S
O137 Dy123 2.326 . S
O137 C139 1.267 . S
C138 O130 1.249 . S
C138 O131 1.267 . S
C139 O136 1.249 . S
C139 O137 1.267 . S
Dy140 O144 2.398 . S
Dy140 O145 2.491 . S
Dy140 O146 2.403 . S
Dy140 O147 2.664 . S
Dy140 O151 2.326 . S
Dy140 O155 2.310 . S
Dy140 O156 2.351 . S
C141 O152 1.185 . S
C141 O153 1.355 . S
C142 O144 1.185 . S
C142 O145 1.355 . S
Dy143 O147 2.310 . S
Dy143 O150 2.351 . S
Dy143 O152 2.398 . S
Dy143 O153 2.491 . S
Dy143 O154 2.403 . S
Dy143 O155 2.664 . S
Dy143 O157 2.326 . S
O144 Dy140 2.398 . S
O144 C142 1.185 . S
O145 Dy140 2.491 . S
O145 C142 1.355 . S
O146 Dy140 2.403 . S
O146 C148 1.254 . S
O147 Dy140 2.664 . S
O147 Dy143 2.310 . S
O147 C148 1.268 . S
C148 O146 1.254 . S
C148 O147 1.268 . S
C149 O154 1.254 . S
C149 O155 1.268 . S
O150 Dy143 2.351 . S
O150 C158 1.249 . S
O151 Dy140 2.326 . S
O151 C158 1.267 . S
O152 C141 1.185 . S
O152 Dy143 2.398 . S
O153 C141 1.355 . S
O153 Dy143 2.491 . S
O154 Dy143 2.403 . S
O154 C149 1.254 . S
O155 Dy140 2.310 . S
O155 Dy143 2.664 . S
O155 C149 1.268 . S
O156 Dy140 2.351 . S
O156 C159 1.249 . S
O157 Dy143 2.326 . S
O157 C159 1.267 . S
C158 O150 1.249 . S
C158 O151 1.267 . S
C159 O156 1.249 . S
C159 O157 1.267 . S
Dy160 O164 2.398 . S
Dy160 O165 2.491 . S
Dy160 O166 2.403 . S
Dy160 O167 2.664 . S
Dy160 O171 2.326 . S
Dy160 O175 2.310 . S
Dy160 O176 2.351 . S
C161 O172 1.185 . S
C161 O173 1.355 . S
C162 O164 1.185 . S
C162 O165 1.355 . S
Dy163 O167 2.310 . S
Dy163 O170 2.351 . S
Dy163 O172 2.398 . S
Dy163 O173 2.491 . S
Dy163 O174 2.403 . S
Dy163 O175 2.664 . S
Dy163 O177 2.326 . S
O164 Dy160 2.398 . S
O164 C162 1.185 . S
O165 Dy160 2.491 . S
O165 C162 1.355 . S
O166 Dy160 2.403 . S
O166 C168 1.254 . S
O167 Dy160 2.664 . S
O167 Dy163 2.310 . S
O167 C168 1.268 . S
C168 O166 1.254 . S
C168 O167 1.268 . S
C169 O174 1.254 . S
C169 O175 1.268 . S
O170 Dy163 2.351 . S
O170 C178 1.249 . S
O171 Dy160 2.326 . S
O171 C178 1.267 . S
O172 C161 1.185 . S
O172 Dy163 2.398 . S
O173 C161 1.355 . S
O173 Dy163 2.491 . S
O174 Dy163 2.403 . S
O174 C169 1.254 . S
O175 Dy160 2.310 . S
O175 Dy163 2.664 . S
O175 C169 1.268 . S
O176 Dy160 2.351 . S
O176 C179 1.249 . S
O177 Dy163 2.326 . S
O177 C179 1.267 . S
C178 O170 1.249 . S
C178 O171 1.267 . S
C179 O176 1.249 . S
C179 O177 1.267 . S
Dy180 O184 2.398 . S
Dy180 O185 2.491 . S
Dy180 O186 2.403 . S
Dy180 O187 2.664 . S
Dy180 O191 2.326 . S
Dy180 O195 2.310 . S
Dy180 O196 2.351 . S
C181 O192 1.185 . S
C181 O193 1.355 . S
C182 O184 1.185 . S
C182 O185 1.355 . S
Dy183 O187 2.310 . S
Dy183 O190 2.351 . S
Dy183 O192 2.398 . S
Dy183 O193 2.491 . S
Dy183 O194 2.403 . S
Dy183 O195 2.664 . S
Dy183 O197 2.326 . S
O184 Dy180 2.398 . S
O184 C182 1.185 . S
O185 Dy180 2.491 . S
O185 C182 1.355 . S
O186 Dy180 2.403 . S
O186 C188 1.254 . S
O187 Dy180 2.664 . S
O187 Dy183 2.310 . S
O187 C188 1.268 . S
C188 O186 1.254 . S
C188 O187 1.268 . S
C189 O194 1.254 . S
C189 O195 1.268 . S
O190 Dy183 2.351 . S
O190 C198 1.249 . S
O191 Dy180 2.326 . S
O191 C198 1.267 . S
O192 C181 1.185 . S
O192 Dy183 2.398 . S
O193 C181 1.355 . S
O193 Dy183 2.491 . S
O194 Dy183 2.403 . S
O194 C189 1.254 . S
O195 Dy180 2.310 . S
O195 Dy183 2.664 . S
O195 C189 1.268 . S
O196 Dy180 2.351 . S
O196 C199 1.249 . S
O197 Dy183 2.326 . S
O197 C199 1.267 . S
C198 O190 1.249 . S
C198 O191 1.267 . S
C199 O196 1.249 . S
C199 O197 1.267 . S
Dy200 O204 2.398 . S
Dy200 O205 2.491 . S
Dy200 O206 2.403 . S
Dy200 O207 2.664 . S
Dy200 O211 2.326 . S
Dy200 O215 2.310 . S
Dy200 O216 2.351 . S
C201 O212 1.185 . S
C201 O213 1.355 . S
C202 O204 1.185 . S
C202 O205 1.355 . S
Dy203 O207 2.310 . S
Dy203 O210 2.351 . S
Dy203 O212 2.398 . S
Dy203 O213 2.491 . S
Dy203 O214 2.403 . S
Dy203 O215 2.664 . S
Dy203 O217 2.326 . S
O204 Dy200 2.398 . S
O204 C202 1.185 . S
O205 Dy200 2.491 . S
O205 C202 1.355 . S
O206 Dy200 2.403 . S
O206 C208 1.254 . S
O207 Dy200 2.664 . S
O207 Dy203 2.310 . S
O207 C208 1.268 . S
C208 O206 1.254 . S
C208 O207 1.268 . S
C209 O214 1.254 . S
C209 O215 1.268 . S
O210 Dy203 2.351 . S
O210 C218 1.249 . S
O211 Dy200 2.326 . S
O211 C218 1.267 . S
O212 C201 1.185 . S
O212 Dy203 2.398 . S
O213 C201 1.355 . S
O213 Dy203 2.491 . S
O214 Dy203 2.403 . S
O214 C209 1.254 . S
O215 Dy200 2.310 . S
O215 Dy203 2.664 . S
O215 C209 1.268 . S
O216 Dy200 2.351 . S
O216 C219 1.249 . S
O217 Dy203 2.326 . S
O217 C219 1.267 . S
C218 O210 1.249 . S
C218 O211 1.267 . S
C219 O216 1.249 . S
C219 O217 1.267 . S
Dy220 O224 2.398 . S
Dy220 O225 2.491 . S
Dy220 O226 2.403 . S
Dy220 O227 2.664 . S
Dy220 O231 2.326 . S
Dy220 O235 2.310 . S
Dy220 O236 2.351 . S
C221 O232 1.185 . S
C221 O233 1.355 . S
C222 O224 1.185 . S
C222 O225 1.355 . S
Dy223 O227 2.310 . S
Dy223 O230 2.351 . S
Dy223 O232 2.398 . S
Dy223 O233 2.491 . S
Dy223 O234 2.403 . S
Dy223 O235 2.664 . S
Dy223 O237 2.326 . S
O224 Dy220 2.398 . S
O224 C222 1.185 . S
O225 Dy220 2.491 . S
O225 C222 1.355 . S
O226 Dy220 2.403 . S
O226 C228 1.254 . S
O227 Dy220 2.664 . S
O227 Dy223 2.310 . S
O227 C228 1.268 . S
C228 O226 1.254 . S
C228 O227 1.268 . S
C229 O234 1.254 . S
C229 O235 1.268 . S
O230 Dy223 2.351 . S
O230 C238 1.249 . S
O231 Dy220 2.326 . S
O231 C238 1.267 . S
O232 C221 1.185 . S
O232 Dy223 2.398 . S
O233 C221 1.355 . S
O233 Dy223 2.491 . S
O234 Dy223 2.403 . S
O234 C229 1.254 . S
O235 Dy220 2.310 . S
O235 Dy223 2.664 . S
O235 C229 1.268 . S
O236 Dy220 2.351 . S
O236 C239 1.249 . S
O237 Dy223 2.326 . S
O237 C239 1.267 . S
C238 O230 1.249 . S
C238 O231 1.267 . S
C239 O236 1.249 . S
C239 O237 1.267 . S
Dy240 O244 2.398 . S
Dy240 O245 2.491 . S
Dy240 O246 2.403 . S
Dy240 O247 2.664 . S
Dy240 O251 2.326 . S
Dy240 O255 2.310 . S
Dy240 O256 2.351 . S
C241 O252 1.185 . S
C241 O253 1.355 . S
C242 O244 1.185 . S
C242 O245 1.355 . S
Dy243 O247 2.310 . S
Dy243 O250 2.351 . S
Dy243 O252 2.398 . S
Dy243 O253 2.491 . S
Dy243 O254 2.403 . S
Dy243 O255 2.664 . S
Dy243 O257 2.326 . S
O244 Dy240 2.398 . S
O244 C242 1.185 . S
O245 Dy240 2.491 . S
O245 C242 1.355 . S
O246 Dy240 2.403 . S
O246 C248 1.254 . S
O247 Dy240 2.664 . S
O247 Dy243 2.310 . S
O247 C248 1.268 . S
C248 O246 1.254 . S
C248 O247 1.268 . S
C249 O254 1.254 . S
C249 O255 1.268 . S
O250 Dy243 2.351 . S
O250 C258 1.249 . S
O251 Dy240 2.326 . S
O251 C258 1.267 . S
O252 C241 1.185 . S
O252 Dy243 2.398 . S
O253 C241 1.355 . S
O253 Dy243 2.491 . S
O254 Dy243 2.403 . S
O254 C249 1.254 . S
O255 Dy240 2.310 . S
O255 Dy243 2.664 . S
O255 C249 1.268 . S
O256 Dy240 2.351 . S
O256 C259 1.249 . S
O257 Dy243 2.326 . S
O257 C259 1.267 . S
C258 O250 1.249 . S
C258 O251 1.267 . S
C259 O256 1.249 . S
C259 O257 1.267 . S
Dy260 O264 2.398 . S
Dy260 O265 2.491 . S
Dy260 O266 2.403 . S
Dy260 O267 2.664 . S
Dy260 O271 2.326 . S
Dy260 O275 2.310 . S
Dy260 O276 2.351 . S
C261 O272 1.185 . S
C261 O273 1.355 . S
C262 O264 1.185 . S
C262 O265 1.355 . S
Dy263 O267 2.310 . S
Dy263 O270 2.351 . S
Dy263 O272 2.398 . S
Dy263 O273 2.491 . S
Dy263 O274 2.403 . S
Dy263 O275 2.664 . S
Dy263 O277 2.326 . S
O264 Dy260 2.398 . S
O264 C262 1.185 . S
O265 Dy260 2.491 . S
O265 C262 1.355 . S
O266 Dy260 2.403 . S
O266 C268 1.254 . S
O267 Dy260 2.664 . S
O267 Dy263 2.310 . S
O267 C268 1.268 . S
C268 O266 1.254 . S
C268 O267 1.268 . S
C269 O274 1.254 . S
C269 O275 1.268 . S
O270 Dy263 2.351 . S
O270 C278 1.249 . S
O271 Dy260 2.326 . S
O271 C278 1.267 . S
O272 C261 1.185 . S
O272 Dy263 2.398 . S
O273 C261 1.355 . S
O273 Dy263 2.491 . S
O274 Dy263 2.403 . S
O274 C269 1.254 . S
O275 Dy260 2.310 . S
O275 Dy263 2.664 . S
O275 C269 1.268 . S
O276 Dy260 2.351 . S
O276 C279 1.249 . S
O277 Dy263 2.326 . S
O277 C279 1.267 . S
C278 O270 1.249 . S
C278 O271 1.267 . S
C279 O276 1.249 . S
C279 O277 1.267 . S
Dy280 O284 2.398 . S
Dy280 O285 2.491 . S
Dy280 O286 2.403 . S
Dy280 O287 2.664 . S
Dy280 O291 2.326 . S
Dy280 O295 2.310 . S
Dy280 O296 2.351 . S
C281 O292 1.185 . S
C281 O293 1.355 . S
C282 O284 1.185 . S
C282 O285 1.355 . S
Dy283 O287 2.310 . S
Dy283 O290 2.351 . S
Dy283 O292 2.398 . S
Dy283 O293 2.491 . S
Dy283 O294 2.403 . S
Dy283 O295 2.664 . S
Dy283 O297 2.326 . S
O284 Dy280 2.398 . S
O284 C282 1.185 . S
O285 Dy280 2.491 . S
O285 C282 1.355 . S
O286 Dy280 2.403 . S
O286 C288 1.254 . S
O287 Dy280 2.664 . S
O287 Dy283 2.310 . S
O287 C288 1.268 . S
C288 O286 1.254 . S
C288 O287 1.268 . S
C289 O294 1.254 . S
C289 O295 1.268 . S
O290 Dy283 2.351 . S
O290 C298 1.249 . S
O291 Dy280 2.326 . S
O291 C298 1.267 . S
O292 C281 1.185 . S
O292 Dy283 2.398 . S
O293 C281 1.355 . S
O293 Dy283 2.491 . S
O294 Dy283 2.403 . S
O294 C289 1.254 . S
O295 Dy280 2.310 . S
O295 Dy283 2.664 . S
O295 C289 1.268 . S
O296 Dy280 2.351 . S
O296 C299 1.249 . S
O297 Dy283 2.326 . S
O297 C299 1.267 . S
C298 O290 1.249 . S
C298 O291 1.267 . S
C299 O296 1.249 . S
C299 O297 1.267 . S
Dy300 O304 2.398 . S
Dy300 O305 2.491 . S
Dy300 O306 2.403 . S
Dy300 O307 2.664 . S
Dy300 O311 2.326 . S
Dy300 O315 2.310 . S
Dy300 O316 2.351 . S
C301 O312 1.185 . S
C301 O313 1.355 . S
C302 O304 1.185 . S
C302 O305 1.355 . S
Dy303 O307 2.310 . S
Dy303 O310 2.351 . S
Dy303 O312 2.398 . S
Dy303 O313 2.491 . S
Dy303 O314 2.403 . S
Dy303 O315 2.664 . S
Dy303 O317 2.326 . S
O304 Dy300 2.398 . S
O304 C302 1.185 . S
O305 Dy300 2.491 . S
O305 C302 1.355 . S
O306 Dy300 2.403 . S
O306 C308 1.254 . S
O307 Dy300 2.664 . S
O307 Dy303 2.310 . S
O307 C308 1.268 . S
C308 O306 1.254 . S
C308 O307 1.268 . S
C309 O314 1.254 . S
C309 O315 1.268 . S
O310 Dy303 2.351 . S
O310 C318 1.249 . S
O311 Dy300 2.326 . S
O311 C318 1.267 . S
O312 C301 1.185 . S
O312 Dy303 2.398 . S
O313 C301 1.355 . S
O313 Dy303 2.491 . S
O314 Dy303 2.403 . S
O314 C309 1.254 . S
O315 Dy300 2.310 . S
O315 Dy303 2.664 . S
O315 C309 1.268 . S
O316 Dy300 2.351 . S
O316 C319 1.249 . S
O317 Dy303 2.326 . S
O317 C319 1.267 . S
C318 O310 1.249 . S
C318 O311 1.267 . S
C319 O316 1.249 . S
C319 O317 1.267 . S
Dy320 O324 2.398 . S
Dy320 O325 2.491 . S
Dy320 O326 2.403 . S
Dy320 O327 2.664 . S
Dy320 O331 2.326 . S
Dy320 O335 2.310 . S
Dy320 O336 2.351 . S
C321 O332 1.185 . S
C321 O333 1.355 . S
C322 O324 1.185 . S
C322 O325 1.355 . S
Dy323 O327 2.310 . S
Dy323 O330 2.351 . S
Dy323 O332 2.398 . S
Dy323 O333 2.491 . S
Dy323 O334 2.403 . S
Dy323 O335 2.664 . S
Dy323 O337 2.326 . S
O324 Dy320 2.398 . S
O324 C322 1.185 . S
O325 Dy320 2.491 . S
O325 C322 1.355 . S
O326 Dy320 2.403 . S
O326 C328 1.254 . S
O327 Dy320 2.664 . S
O327 Dy323 2.310 . S
O327 C328 1.268 . S
C328 O326 1.254 . S
C328 O327 1.268 . S
C329 O334 1.254 . S
C329 O335 1.268 . S
O330 Dy323 2.351 . S
O330 C338 1.249 . S
O331 Dy320 2.326 . S
O331 C338 1.267 . S
O332 C321 1.185 . S
O332 Dy323 2.398 . S
O333 C321 1.355 . S
O333 Dy323 2.491 . S
O334 Dy323 2.403 . S
O334 C329 1.254 . S
O335 Dy320 2.310 . S
O335 Dy323 2.664 . S
O335 C329 1.268 . S
O336 Dy320 2.351 . S
O336 C339 1.249 . S
O337 Dy323 2.326 . S
O337 C339 1.267 . S
C338 O330 1.249 . S
C338 O331 1.267 . S
C339 O336 1.249 . S
C339 O337 1.267 . S
Dy340 O344 2.398 . S
Dy340 O345 2.491 . S
Dy340 O346 2.403 . S
Dy340 O347 2.664 . S
Dy340 O351 2.326 . S
Dy340 O355 2.310 . S
Dy340 O356 2.351 . S
C341 O352 1.185 . S
C341 O353 1.355 . S
C342 O344 1.185 . S
C342 O345 1.355 . S
Dy343 O347 2.310 . S
Dy343 O350 2.351 . S
Dy343 O352 2.398 . S
Dy343 O353 2.491 . S
Dy343 O354 2.403 . S
Dy343 O355 2.664 . S
Dy343 O357 2.326 . S
O344 Dy340 2.398 . S
O344 C342 1.185 . S
O345 Dy340 2.491 . S
O345 C342 1.355 . S
O346 Dy340 2.403 . S
O346 C348 1.254 . S
O347 Dy340 2.664 . S
O347 Dy343 2.310 . S
O347 C348 1.268 . S
C348 O346 1.254 . S
C348 O347 1.268 . S
C349 O354 1.254 . S
C349 O355 1.268 . S
O350 Dy343 2.351 . S
O350 C358 1.249 . S
O351 Dy340 2.326 . S
O351 C358 1.267 . S
O352 C341 1.185 . S
O352 Dy343 2.398 . S
O353 C341 1.355 . S
O353 Dy343 2.491 . S
O354 Dy343 2.403 . S
O354 C349 1.254 . S
O355 Dy340 2.310 . S
O355 Dy343 2.664 . S
O355 C349 1.268 . S
O356 Dy340 2.351 . S
O356 C359 1.249 . S
O357 Dy343 2.326 . S
O357 C359 1.267 . S
C358 O350 1.249 . S
C358 O351 1.267 . S
C359 O356 1.249 . S
C359 O357 1.267 . S
Dy360 O364 2.398 . S
Dy360 O365 2.491 . S
Dy360 O366 2.403 . S
Dy360 O367 2.664 . S
Dy360 O371 2.326 . S
Dy360 O375 2.310 . S
Dy360 O376 2.351 . S
C361 O372 1.185 . S
C361 O373 1.355 . S
C362 O364 1.185 . S
C362 O365 1.355 . S
Dy363 O367 2.310 . S
Dy363 O370 2.351 . S
Dy363 O372 2.398 . S
Dy363 O373 2.491 . S
Dy363 O374 2.403 . S
Dy363 O375 2.664 . S
Dy363 O377 2.326 . S
O364 Dy360 2.398 . S
O364 C362 1.185 . S
O365 Dy360 2.491 . S
O365 C362 1.355 . S
O366 Dy360 2.403 . S
O366 C368 1.254 . S
O367 Dy360 2.664 . S
O367 Dy363 2.310 . S
O367 C368 1.268 . S
C368 O366 1.254 . S
C368 O367 1.268 . S
C369 O374 1.254 . S
C369 O375 1.268 . S
O370 Dy363 2.351 . S
O370 C378 1.249 . S
O371 Dy360 2.326 . S
O371 C378 1.267 . S
O372 C361 1.185 . S
O372 Dy363 2.398 . S
O373 C361 1.355 . S
O373 Dy363 2.491 . S
O374 Dy363 2.403 . S
O374 C369 1.254 . S
O375 Dy360 2.310 . S
O375 Dy363 2.664 . S
O375 C369 1.268 . S
O376 Dy360 2.351 . S
O376 C379 1.249 . S
O377 Dy363 2.326 . S
O377 C379 1.267 . S
C378 O370 1.249 . S
C378 O371 1.267 . S
C379 O376 1.249 . S
C379 O377 1.267 . S
Dy380 O384 2.398 . S
Dy380 O385 2.491 . S
Dy380 O386 2.403 . S
Dy380 O387 2.664 . S
Dy380 O391 2.326 . S
Dy380 O395 2.310 . S
Dy380 O396 2.351 . S
C381 O392 1.185 . S
C381 O393 1.355 . S
C382 O384 1.185 . S
C382 O385 1.355 . S
Dy383 O387 2.310 . S
Dy383 O390 2.351 . S
Dy383 O392 2.398 . S
Dy383 O393 2.491 . S
Dy383 O394 2.403 . S
Dy383 O395 2.664 . S
Dy383 O397 2.326 . S
O384 Dy380 2.398 . S
O384 C382 1.185 . S
O385 Dy380 2.491 . S
O385 C382 1.355 . S
O386 Dy380 2.403 . S
O386 C388 1.254 . S
O387 Dy380 2.664 . S
O387 Dy383 2.310 . S
O387 C388 1.268 . S
C388 O386 1.254 . S
C388 O387 1.268 . S
C389 O394 1.254 . S
C389 O395 1.268 . S
O390 Dy383 2.351 . S
O390 C398 1.249 . S
O391 Dy380 2.326 . S
O391 C398 1.267 . S
O392 C381 1.185 . S
O392 Dy383 2.398 . S
O393 C381 1.355 . S
O393 Dy383 2.491 . S
O394 Dy383 2.403 . S
O394 C389 1.254 . S
O395 Dy380 2.310 . S
O395 Dy383 2.664 . S
O395 C389 1.268 . S
O396 Dy380 2.351 . S
O396 C399 1.249 . S
O397 Dy383 2.326 . S
O397 C399 1.267 . S
C398 O390 1.249 . S
C398 O391 1.267 . S
C399 O396 1.249 . S
C399 O397 1.267 . S
Dy400 O404 2.398 . S
Dy400 O405 2.491 . S
Dy400 O406 2.403 . S
Dy400 O407 2.664 . S
Dy400 O411 2.326 . S
Dy400 O415 2.310 . S
Dy400 O416 2.351 . S
C401 O412 1.185 . S
C401 O413 1.355 . S
C402 O404 1.185 . S
C402 O405 1.355 . S
Dy403 O407 2.310 . S
Dy403 O410 2.351 . S
Dy403 O412 2.398 . S
Dy403 O413 2.491 . S
Dy403 O414 2.403 . S
Dy403 O415 2.664 . S
Dy403 O417 2.326 . S
O404 Dy400 2.398 . S
O404 C402 1.185 . S
O405 Dy400 2.491 . S
O405 C402 1.355 . S
O406 Dy400 2.403 . S
O406 C408 1.254 . S
O407 Dy400 2.664 . S
O407 Dy403 2.310 . S
O407 C408 1.268 . S
C408 O406 1.254 . S
C408 O407 1.268 . S
C409 O414 1.254 . S
C409 O415 1.268 . S
O410 Dy403 2.351 . S
O410 C418 1.249 . S
O411 Dy400 2.326 . S
O411 C418 1.267 . S
O412 C401 1.185 . S
O412 Dy403 2.398 . S
O413 C401 1.355 . S
O413 Dy403 2.491 . S
O414 Dy403 2.403 . S
O414 C409 1.254 . S
O415 Dy400 2.310 . S
O415 Dy403 2.664 . S
O415 C409 1.268 . S
O416 Dy400 2.351 . S
O416 C419 1.249 . S
O417 Dy403 2.326 . S
O417 C419 1.267 . S
C418 O410 1.249 . S
C418 O411 1.267 . S
C419 O416 1.249 . S
C419 O417 1.267 . S
Dy420 O424 2.398 . S
Dy420 O425 2.491 . S
Dy420 O426 2.403 . S
Dy420 O427 2.664 1_554 S
Dy420 O431 2.326 . S
Dy420 O435 2.310 . S
Dy420 O436 2.351 . S
C421 O432 1.185 . S
C421 O433 1.355 . S
C422 O424 1.185 . S
C422 O425 1.355 . S
Dy423 O427 2.310 . S
Dy423 O430 2.351 . S
Dy423 O432 2.398 . S
Dy423 O433 2.491 . S
Dy423 O434 2.403 . S
Dy423 O435 2.664 1_556 S
Dy423 O437 2.326 . S
O424 Dy420 2.398 . S
O424 C422 1.185 . S
O425 Dy420 2.491 . S
O425 C422 1.355 . S
O426 Dy420 2.403 . S
O426 C428 1.254 . S
O427 Dy420 2.664 1_556 S
O427 Dy423 2.310 . S
O427 C428 1.268 1_556 S
C428 O426 1.254 . S
C428 O427 1.268 1_554 S
C429 O434 1.254 . S
C429 O435 1.268 1_556 S
O430 Dy423 2.351 . S
O430 C438 1.249 1_556 S
O431 Dy420 2.326 . S
O431 C438 1.267 . S
O432 C421 1.185 . S
O432 Dy423 2.398 . S
O433 C421 1.355 . S
O433 Dy423 2.491 . S
O434 Dy423 2.403 . S
O434 C429 1.254 . S
O435 Dy420 2.310 . S
O435 Dy423 2.664 1_554 S
O435 C429 1.268 1_554 S
O436 Dy420 2.351 . S
O436 C439 1.249 1_554 S
O437 Dy423 2.326 . S
O437 C439 1.267 . S
C438 O430 1.249 1_554 S
C438 O431 1.267 . S
C439 O436 1.249 1_556 S
C439 O437 1.267 . S
Dy440 O444 2.398 . S
Dy440 O445 2.491 . S
Dy440 O446 2.403 . S
Dy440 O447 2.664 1_554 S
Dy440 O451 2.326 . S
Dy440 O455 2.310 . S
Dy440 O456 2.351 . S
C441 O452 1.185 . S
C441 O453 1.355 . S
C442 O444 1.185 . S
C442 O445 1.355 . S
Dy443 O447 2.310 . S
Dy443 O450 2.351 . S
Dy443 O452 2.398 . S
Dy443 O453 2.491 . S
Dy443 O454 2.403 . S
Dy443 O455 2.664 1_556 S
Dy443 O457 2.326 . S
O444 Dy440 2.398 . S
O444 C442 1.185 . S
O445 Dy440 2.491 . S
O445 C442 1.355 . S
O446 Dy440 2.403 . S
O446 C448 1.254 . S
O447 Dy440 2.664 1_556 S
O447 Dy443 2.310 . S
O447 C448 1.268 1_556 S
C448 O446 1.254 . S
C448 O447 1.268 1_554 S
C449 O454 1.254 . S
C449 O455 1.268 1_556 S
O450 Dy443 2.351 . S
O450 C458 1.249 1_556 S
O451 Dy440 2.326 . S
O451 C458 1.267 . S
O452 C441 1.185 . S
O452 Dy443 2.398 . S
O453 C441 1.355 . S
O453 Dy443 2.491 . S
O454 Dy443 2.403 . S
O454 C449 1.254 . S
O455 Dy440 2.310 . S
O455 Dy443 2.664 1_554 S
O455 C449 1.268 1_554 S
O456 Dy440 2.351 . S
O456 C459 1.249 1_554 S
O457 Dy443 2.326 . S
O457 C459 1.267 . S
C458 O450 1.249 1_554 S
C458 O451 1.267 . S
C459 O456 1.249 1_556 S
C459 O457 1.267 . S
Dy460 O464 2.398 . S
Dy460 O465 2.491 . S
Dy460 O466 2.403 . S
Dy460 O467 2.664 1_554 S
Dy460 O471 2.326 . S
Dy460 O475 2.310 . S
Dy460 O476 2.351 . S
C461 O472 1.185 . S
C461 O473 1.355 . S
C462 O464 1.185 . S
C462 O465 1.355 . S
Dy463 O467 2.310 . S
Dy463 O470 2.351 . S
Dy463 O472 2.398 . S
Dy463 O473 2.491 . S
Dy463 O474 2.403 . S
Dy463 O475 2.664 1_556 S
Dy463 O477 2.326 . S
O464 Dy460 2.398 . S
O464 C462 1.185 . S
O465 Dy460 2.491 . S
O465 C462 1.355 . S
O466 Dy460 2.403 . S
O466 C468 1.254 . S
O467 Dy460 2.664 1_556 S
O467 Dy463 2.310 . S
O467 C468 1.268 1_556 S
C468 O466 1.254 . S
C468 O467 1.268 1_554 S
C469 O474 1.254 . S
C469 O475 1.268 1_556 S
O470 Dy463 2.351 . S
O470 C478 1.249 1_556 S
O471 Dy460 2.326 . S
O471 C478 1.267 . S
O472 C461 1.185 . S
O472 Dy463 2.398 . S
O473 C461 1.355 . S
O473 Dy463 2.491 . S
O474 Dy463 2.403 . S
O474 C469 1.254 . S
O475 Dy460 2.310 . S
O475 Dy463 2.664 1_554 S
O475 C469 1.268 1_554 S
O476 Dy460 2.351 . S
O476 C479 1.249 1_554 S
O477 Dy463 2.326 . S
O477 C479 1.267 . S
C478 O470 1.249 1_554 S
C478 O471 1.267 . S
C479 O476 1.249 1_556 S
C479 O477 1.267 . S
Dy480 O484 2.398 . S
Dy480 O485 2.491 . S
Dy480 O486 2.403 . S
Dy480 O487 2.664 . S
Dy480 O491 2.326 . S
Dy480 O495 2.310 . S
Dy480 O496 2.351 . S
C481 O492 1.185 . S
C481 O493 1.355 . S
C482 O484 1.185 . S
C482 O485 1.355 . S
Dy483 O487 2.310 . S
Dy483 O490 2.351 . S
Dy483 O492 2.398 . S
Dy483 O493 2.491 . S
Dy483 O494 2.403 . S
Dy483 O495 2.664 . S
Dy483 O497 2.326 . S
O484 Dy480 2.398 . S
O484 C482 1.185 . S
O485 Dy480 2.491 . S
O485 C482 1.355 . S
O486 Dy480 2.403 . S
O486 C488 1.254 . S
O487 Dy480 2.664 . S
O487 Dy483 2.310 . S
O487 C488 1.268 . S
C488 O486 1.254 . S
C488 O487 1.268 . S
C489 O494 1.254 . S
C489 O495 1.268 . S
O490 Dy483 2.351 . S
O490 C498 1.249 . S
O491 Dy480 2.326 . S
O491 C498 1.267 . S
O492 C481 1.185 . S
O492 Dy483 2.398 . S
O493 C481 1.355 . S
O493 Dy483 2.491 . S
O494 Dy483 2.403 . S
O494 C489 1.254 . S
O495 Dy480 2.310 . S
O495 Dy483 2.664 . S
O495 C489 1.268 . S
O496 Dy480 2.351 . S
O496 C499 1.249 . S
O497 Dy483 2.326 . S
O497 C499 1.267 . S
C498 O490 1.249 . S
C498 O491 1.267 . S
C499 O496 1.249 . S
C499 O497 1.267 . S
Dy500 O504 2.398 . S
Dy500 O505 2.491 . S
Dy500 O506 2.403 . S
Dy500 O507 2.664 . S
Dy500 O511 2.326 . S
Dy500 O515 2.310 . S
Dy500 O516 2.351 . S
C501 O512 1.185 . S
C501 O513 1.355 . S
C502 O504 1.185 . S
C502 O505 1.355 . S
Dy503 O507 2.310 . S
Dy503 O510 2.351 . S
Dy503 O512 2.398 . S
Dy503 O513 2.491 . S
Dy503 O514 2.403 . S
Dy503 O515 2.664 . S
Dy503 O517 2.326 . S
O504 Dy500 2.398 . S
O504 C502 1.185 . S
O505 Dy500 2.491 . S
O505 C502 1.355 . S
O506 Dy500 2.403 . S
O506 C508 1.254 . S
O507 Dy500 2.664 . S
O507 Dy503 2.310 . S
O507 C508 1.268 . S
C508 O506 1.254 . S
C508 O507 1.268 . S
C509 O514 1.254 . S
C509 O515 1.268 . S
O510 Dy503 2.351 . S
O510 C518 1.249 . S
O511 Dy500 2.326 . S
O511 C518 1.267 . S
O512 C501 1.185 . S
O512 Dy503 2.398 . S
O513 C501 1.355 . S
O513 Dy503 2.491 . S
O514 Dy503 2.403 . S
O514 C509 1.254 . S
O515 Dy500 2.310 . S
O515 Dy503 2.664 . S
O515 C509 1.268 . S
O516 Dy500 2.351 . S
O516 C519 1.249 . S
O517 Dy503 2.326 . S
O517 C519 1.267 . S
C518 O510 1.249 . S
C518 O511 1.267 . S
C519 O516 1.249 . S
C519 O517 1.267 . S
Dy520 O524 2.398 . S
Dy520 O525 2.491 . S
Dy520 O526 2.403 . S
Dy520 O527 2.664 . S
Dy520 O531 2.326 . S
Dy520 O535 2.310 . S
Dy520 O536 2.351 . S
C521 O532 1.185 . S
C521 O533 1.355 . S
C522 O524 1.185 . S
C522 O525 1.355 . S
Dy523 O527 2.310 . S
Dy523 O530 2.351 . S
Dy523 O532 2.398 . S
Dy523 O533 2.491 . S
Dy523 O534 2.403 . S
Dy523 O535 2.664 . S
Dy523 O537 2.326 . S
O524 Dy520 2.398 . S
O524 C522 1.185 . S
O525 Dy520 2.491 . S
O525 C522 1.355 . S
O526 Dy520 2.403 . S
O526 C528 1.254 . S
O527 Dy520 2.664 . S
O527 Dy523 2.310 . S
O527 C528 1.268 . S
C528 O526 1.254 . S
C528 O527 1.268 . S
C529 O534 1.254 . S
C529 O535 1.268 . S
O530 Dy523 2.351 . S
O530 C538 1.249 . S
O531 Dy520 2.326 . S
O531 C538 1.267 . S
O532 C521 1.185 . S
O532 Dy523 2.398 . S
O533 C521 1.355 . S
O533 Dy523 2.491 . S
O534 Dy523 2.403 . S
O534 C529 1.254 . S
O535 Dy520 2.310 . S
O535 Dy523 2.664 . S
O535 C529 1.268 . S
O536 Dy520 2.351 . S
O536 C539 1.249 . S
O537 Dy523 2.326 . S
O537 C539 1.267 . S
C538 O530 1.249 . S
C538 O531 1.267 . S
C539 O536 1.249 . S
C539 O537 1.267 . S
Dy540 O544 2.398 . S
Dy540 O545 2.491 . S
Dy540 O546 2.403 . S
Dy540 O547 2.664 1_554 S
Dy540 O551 2.326 . S
Dy540 O555 2.310 . S
Dy540 O556 2.351 . S
C541 O552 1.185 . S
C541 O553 1.355 . S
C542 O544 1.185 . S
C542 O545 1.355 . S
Dy543 O547 2.310 . S
Dy543 O550 2.351 . S
Dy543 O552 2.398 . S
Dy543 O553 2.491 . S
Dy543 O554 2.403 . S
Dy543 O555 2.664 1_556 S
Dy543 O557 2.326 . S
O544 Dy540 2.398 . S
O544 C542 1.185 . S
O545 Dy540 2.491 . S
O545 C542 1.355 . S
O546 Dy540 2.403 . S
O546 C548 1.254 . S
O547 Dy540 2.664 1_556 S
O547 Dy543 2.310 . S
O547 C548 1.268 1_556 S
C548 O546 1.254 . S
C548 O547 1.268 1_554 S
C549 O554 1.254 . S
C549 O555 1.268 1_556 S
O550 Dy543 2.351 . S
O550 C558 1.249 1_556 S
O551 Dy540 2.326 . S
O551 C558 1.267 . S
O552 C541 1.185 . S
O552 Dy543 2.398 . S
O553 C541 1.355 . S
O553 Dy543 2.491 . S
O554 Dy543 2.403 . S
O554 C549 1.254 . S
O555 Dy540 2.310 . S
O555 Dy543 2.664 1_554 S
O555 C549 1.268 1_554 S
O556 Dy540 2.351 . S
O556 C559 1.249 1_554 S
O557 Dy543 2.326 . S
O557 C559 1.267 . S
C558 O550 1.249 1_554 S
C558 O551 1.267 . S
C559 O556 1.249 1_556 S
C559 O557 1.267 . S
Dy560 O564 2.398 . S
Dy560 O565 2.491 . S
Dy560 O566 2.403 . S
Dy560 O567 2.664 1_554 S
Dy560 O571 2.326 . S
Dy560 O575 2.310 . S
Dy560 O576 2.351 . S
C561 O572 1.185 . S
C561 O573 1.355 . S
C562 O564 1.185 . S
C562 O565 1.355 . S
Dy563 O567 2.310 . S
Dy563 O570 2.351 . S
Dy563 O572 2.398 . S
Dy563 O573 2.491 . S
Dy563 O574 2.403 . S
Dy563 O575 2.664 1_556 S
Dy563 O577 2.326 . S
O564 Dy560 2.398 . S
O564 C562 1.185 . S
O565 Dy560 2.491 . S
O565 C562 1.355 . S
O566 Dy560 2.403 . S
O566 C568 1.254 . S
O567 Dy560 2.664 1_556 S
O567 Dy563 2.310 . S
O567 C568 1.268 1_556 S
C568 O566 1.254 . S
C568 O567 1.268 1_554 S
C569 O574 1.254 . S
C569 O575 1.268 1_556 S
O570 Dy563 2.351 . S
O570 C578 1.249 1_556 S
O571 Dy560 2.326 . S
O571 C578 1.267 . S
O572 C561 1.185 . S
O572 Dy563 2.398 . S
O573 C561 1.355 . S
O573 Dy563 2.491 . S
O574 Dy563 2.403 . S
O574 C569 1.254 . S
O575 Dy560 2.310 . S
O575 Dy563 2.664 1_554 S
O575 C569 1.268 1_554 S
O576 Dy560 2.351 . S
O576 C579 1.249 1_554 S
O577 Dy563 2.326 . S
O577 C579 1.267 . S
C578 O570 1.249 1_554 S
C578 O571 1.267 . S
C579 O576 1.249 1_556 S
C579 O577 1.267 . S
Dy580 O584 2.398 . S
Dy580 O585 2.491 . S
Dy580 O586 2.403 . S
Dy580 O587 2.664 1_554 S
Dy580 O591 2.326 . S
Dy580 O595 2.310 . S
Dy580 O596 2.351 . S
C581 O592 1.185 . S
C581 O593 1.355 . S
C582 O584 1.185 . S
C582 O585 1.355 . S
Dy583 O587 2.310 . S
Dy583 O590 2.351 . S
Dy583 O592 2.398 . S
Dy583 O593 2.491 . S
Dy583 O594 2.403 . S
Dy583 O595 2.664 1_556 S
Dy583 O597 2.326 . S
O584 Dy580 2.398 . S
O584 C582 1.185 . S
O585 Dy580 2.491 . S
O585 C582 1.355 . S
O586 Dy580 2.403 . S
O586 C588 1.254 . S
O587 Dy580 2.664 1_556 S
O587 Dy583 2.310 . S
O587 C588 1.268 1_556 S
C588 O586 1.254 . S
C588 O587 1.268 1_554 S
C589 O594 1.254 . S
C589 O595 1.268 1_556 S
O590 Dy583 2.351 . S
O590 C598 1.249 1_556 S
O591 Dy580 2.326 . S
O591 C598 1.267 . S
O592 C581 1.185 . S
O592 Dy583 2.398 . S
O593 C581 1.355 . S
O593 Dy583 2.491 . S
O594 Dy583 2.403 . S
O594 C589 1.254 . S
O595 Dy580 2.310 . S
O595 Dy583 2.664 1_554 S
O595 C589 1.268 1_554 S
O596 Dy580 2.351 . S
O596 C599 1.249 1_554 S
O597 Dy583 2.326 . S
O597 C599 1.267 . S
C598 O590 1.249 1_554 S
C598 O591 1.267 . S
C599 O596 1.249 1_556 S
C599 O597 1.267 . S
Dy600 O604 2.398 . S
Dy600 O605 2.491 . S
Dy600 O606 2.403 . S
Dy600 O607 2.664 . S
Dy600 O611 2.326 . S
Dy600 O615 2.310 . S
Dy600 O616 2.351 . S
C601 O612 1.185 . S
C601 O613 1.355 . S
C602 O604 1.185 . S
C602 O605 1.355 . S
Dy603 O607 2.310 . S
Dy603 O610 2.351 . S
Dy603 O612 2.398 . S
Dy603 O613 2.491 . S
Dy603 O614 2.403 . S
Dy603 O615 2.664 . S
Dy603 O617 2.326 . S
O604 Dy600 2.398 . S
O604 C602 1.185 . S
O605 Dy600 2.491 . S
O605 C602 1.355 . S
O606 Dy600 2.403 . S
O606 C608 1.254 . S
O607 Dy600 2.664 . S
O607 Dy603 2.310 . S
O607 C608 1.268 . S
C608 O606 1.254 . S
C608 O607 1.268 . S
C609 O614 1.254 . S
C609 O615 1.268 . S
O610 Dy603 2.351 . S
O610 C618 1.249 . S
O611 Dy600 2.326 . S
O611 C618 1.267 . S
O612 C601 1.185 . S
O612 Dy603 2.398 . S
O613 C601 1.355 . S
O613 Dy603 2.491 . S
O614 Dy603 2.403 . S
O614 C609 1.254 . S
O615 Dy600 2.310 . S
O615 Dy603 2.664 . S
O615 C609 1.268 . S
O616 Dy600 2.351 . S
O616 C619 1.249 . S
O617 Dy603 2.326 . S
O617 C619 1.267 . S
C618 O610 1.249 . S
C618 O611 1.267 . S
C619 O616 1.249 . S
C619 O617 1.267 . S
Dy620 O624 2.398 . S
Dy620 O625 2.491 . S
Dy620 O626 2.403 . S
Dy620 O627 2.664 . S
Dy620 O631 2.326 . S
Dy620 O635 2.310 . S
Dy620 O636 2.351 . S
C621 O632 1.185 . S
C621 O633 1.355 . S
C622 O624 1.185 . S
C622 O625 1.355 . S
Dy623 O627 2.310 . S
Dy623 O630 2.351 . S
Dy623 O632 2.398 . S
Dy623 O633 2.491 . S
Dy623 O634 2.403 . S
Dy623 O635 2.664 . S
Dy623 O637 2.326 . S
O624 Dy620 2.398 . S
O624 C622 1.185 . S
O625 Dy620 2.491 . S
O625 C622 1.355 . S
O626 Dy620 2.403 . S
O626 C628 1.254 . S
O627 Dy620 2.664 . S
O627 Dy623 2.310 . S
O627 C628 1.268 . S
C628 O626 1.254 . S
C628 O627 1.268 . S
C629 O634 1.254 . S
C629 O635 1.268 . S
O630 Dy623 2.351 . S
O630 C638 1.249 . S
O631 Dy620 2.326 . S
O631 C638 1.267 . S
O632 C621 1.185 . S
O632 Dy623 2.398 . S
O633 C621 1.355 . S
O633 Dy623 2.491 . S
O634 Dy623 2.403 . S
O634 C629 1.254 . S
O635 Dy620 2.310 . S
O635 Dy623 2.664 . S
O635 C629 1.268 . S
O636 Dy620 2.351 . S
O636 C639 1.249 . S
O637 Dy623 2.326 . S
O637 C639 1.267 . S
C638 O630 1.249 . S
C638 O631 1.267 . S
C639 O636 1.249 . S
C639 O637 1.267 . S
Dy640 O644 2.398 . S
Dy640 O645 2.491 . S
Dy640 O646 2.403 . S
Dy640 O647 2.664 . S
Dy640 O651 2.326 . S
Dy640 O655 2.310 . S
Dy640 O656 2.351 . S
C641 O652 1.185 . S
C641 O653 1.355 . S
C642 O644 1.185 . S
C642 O645 1.355 . S
Dy643 O647 2.310 . S
Dy643 O650 2.351 . S
Dy643 O652 2.398 . S
Dy643 O653 2.491 . S
Dy643 O654 2.403 . S
Dy643 O655 2.664 . S
Dy643 O657 2.326 . S
O644 Dy640 2.398 . S
O644 C642 1.185 . S
O645 Dy640 2.491 . S
O645 C642 1.355 . S
O646 Dy640 2.403 . S
O646 C648 1.254 . S
O647 Dy640 2.664 . S
O647 Dy643 2.310 . S
O647 C648 1.268 . S
C648 O646 1.254 . S
C648 O647 1.268 . S
C649 O654 1.254 . S
C649 O655 1.268 . S
O650 Dy643 2.351 . S
O650 C658 1.249 . S
O651 Dy640 2.326 . S
O651 C658 1.267 . S
O652 C641 1.185 . S
O652 Dy643 2.398 . S
O653 C641 1.355 . S
O653 Dy643 2.491 . S
O654 Dy643 2.403 . S
O654 C649 1.254 . S
O655 Dy640 2.310 . S
O655 Dy643 2.664 . S
O655 C649 1.268 . S
O656 Dy640 2.351 . S
O656 C659 1.249 . S
O657 Dy643 2.326 . S
O657 C659 1.267 . S
C658 O650 1.249 . S
C658 O651 1.267 . S
C659 O656 1.249 . S
C659 O657 1.267 . S
Dy660 O664 2.398 . S
Dy660 O665 2.491 . S
Dy660 O666 2.403 . S
Dy660 O667 2.664 . S
Dy660 O671 2.326 . S
Dy660 O675 2.310 . S
Dy660 O676 2.351 . S
C661 O672 1.185 . S
C661 O673 1.355 . S
C662 O664 1.185 . S
C662 O665 1.355 . S
Dy663 O667 2.310 . S
Dy663 O670 2.351 . S
Dy663 O672 2.398 . S
Dy663 O673 2.491 . S
Dy663 O674 2.403 . S
Dy663 O675 2.664 . S
Dy663 O677 2.326 . S
O664 Dy660 2.398 . S
O664 C662 1.185 . S
O665 Dy660 2.491 . S
O665 C662 1.355 . S
O666 Dy660 2.403 . S
O666 C668 1.254 . S
O667 Dy660 2.664 . S
O667 Dy663 2.310 . S
O667 C668 1.268 . S
C668 O666 1.254 . S
C668 O667 1.268 . S
C669 O674 1.254 . S
C669 O675 1.268 . S
O670 Dy663 2.351 . S
O670 C678 1.249 . S
O671 Dy660 2.326 . S
O671 C678 1.267 . S
O672 C661 1.185 . S
O672 Dy663 2.398 . S
O673 C661 1.355 . S
O673 Dy663 2.491 . S
O674 Dy663 2.403 . S
O674 C669 1.254 . S
O675 Dy660 2.310 . S
O675 Dy663 2.664 . S
O675 C669 1.268 . S
O676 Dy660 2.351 . S
O676 C679 1.249 . S
O677 Dy663 2.326 . S
O677 C679 1.267 . S
C678 O670 1.249 . S
C678 O671 1.267 . S
C679 O676 1.249 . S
C679 O677 1.267 . S
Dy680 O684 2.398 . S
Dy680 O685 2.491 . S
Dy680 O686 2.403 . S
Dy680 O687 2.664 . S
Dy680 O691 2.326 . S
Dy680 O695 2.310 . S
Dy680 O696 2.351 . S
C681 O692 1.185 . S
C681 O693 1.355 . S
C682 O684 1.185 . S
C682 O685 1.355 . S
Dy683 O687 2.310 . S
Dy683 O690 2.351 . S
Dy683 O692 2.398 . S
Dy683 O693 2.491 . S
Dy683 O694 2.403 . S
Dy683 O695 2.664 . S
Dy683 O697 2.326 . S
O684 Dy680 2.398 . S
O684 C682 1.185 . S
O685 Dy680 2.491 . S
O685 C682 1.355 . S
O686 Dy680 2.403 . S
O686 C688 1.254 . S
O687 Dy680 2.664 . S
O687 Dy683 2.310 . S
O687 C688 1.268 . S
C688 O686 1.254 . S
C688 O687 1.268 . S
C689 O694 1.254 . S
C689 O695 1.268 . S
O690 Dy683 2.351 . S
O690 C698 1.249 . S
O691 Dy680 2.326 . S
O691 C698 1.267 . S
O692 C681 1.185 . S
O692 Dy683 2.398 . S
O693 C681 1.355 . S
O693 Dy683 2.491 . S
O694 Dy683 2.403 . S
O694 C689 1.254 . S
O695 Dy680 2.310 . S
O695 Dy683 2.664 . S
O695 C689 1.268 . S
O696 Dy680 2.351 . S
O696 C699 1.249 . S
O697 Dy683 2.326 . S
O697 C699 1.267 . S
C698 O690 1.249 . S
C698 O691 1.267 . S
C699 O696 1.249 . S
C699 O697 1.267 . S
Dy700 O704 2.398 . S
Dy700 O705 2.491 . S
Dy700 O706 2.403 . S
Dy700 O707 2.664 . S
Dy700 O711 2.326 . S
Dy700 O715 2.310 . S
Dy700 O716 2.351 . S
C701 O712 1.185 . S
C701 O713 1.355 . S
C702 O704 1.185 . S
C702 O705 1.355 . S
Dy703 O707 2.310 . S
Dy703 O710 2.351 . S
Dy703 O712 2.398 . S
Dy703 O713 2.491 . S
Dy703 O714 2.403 . S
Dy703 O715 2.664 . S
Dy703 O717 2.326 . S
O704 Dy700 2.398 . S
O704 C702 1.185 . S
O705 Dy700 2.491 . S
O705 C702 1.355 . S
O706 Dy700 2.403 . S
O706 C708 1.254 . S
O707 Dy700 2.664 . S
O707 Dy703 2.310 . S
O707 C708 1.268 . S
C708 O706 1.254 . S
C708 O707 1.268 . S
C709 O714 1.254 . S
C709 O715 1.268 . S
O710 Dy703 2.351 . S
O710 C718 1.249 . S
O711 Dy700 2.326 . S
O711 C718 1.267 . S
O712 C701 1.185 . S
O712 Dy703 2.398 . S
O713 C701 1.355 . S
O713 Dy703 2.491 . S
O714 Dy703 2.403 . S
O714 C709 1.254 . S
O715 Dy700 2.310 . S
O715 Dy703 2.664 . S
O715 C709 1.268 . S
O716 Dy700 2.351 . S
O716 C719 1.249 . S
O717 Dy703 2.326 . S
O717 C719 1.267 . S
C718 O710 1.249 . S
C718 O711 1.267 . S
C719 O716 1.249 . S
C719 O717 1.267 . S
C720 C721 1.349 . S
C720 C722 1.327 . S
C720 H745 0.950 . S
C721 C720 1.349 . S
C721 C737 1.349 . S
C722 C720 1.327 . S
C722 C741 1.429 . S
C722 H746 0.950 . S
C723 C740 1.574 . S
C723 C742 1.368 . S
C723 H747 0.949 . S
H724 C728 0.949 . S
C725 C726 1.349 . S
C725 C727 1.327 1_565 S
C725 H748 0.950 . S
C726 C725 1.349 . S
C726 C738 1.349 . S
C727 C725 1.327 1_545 S
C727 C743 1.429 . S
C727 H749 0.950 . S
C728 H724 0.949 . S
C728 C736 1.574 . S
C728 C744 1.368 . S
H729 C737 0.950 . S
H730 C735 0.950 . S
H731 C736 0.949 . S
H732 C738 0.950 . S
H733 C739 0.950 1_545 S
H734 C740 0.949 . S
C735 H730 0.950 . S
C735 C737 1.327 . S
C735 C741 1.429 . S
C736 C728 1.574 . S
C736 H731 0.949 . S
C736 C742 1.368 . S
C737 C721 1.349 . S
C737 H729 0.950 . S
C737 C735 1.327 . S
C738 C726 1.349 . S
C738 H732 0.950 . S
C738 C739 1.327 . S
C739 H733 0.950 1_565 S
C739 C738 1.327 . S
C739 C743 1.429 1_565 S
C740 C723 1.574 . S
C740 H734 0.949 . S
C740 C744 1.368 . S
C741 C722 1.429 . S
C741 C735 1.429 . S
C741 C742 1.523 . S
C742 C723 1.368 . S
C742 C736 1.368 . S
C742 C741 1.523 . S
C743 C727 1.429 . S
C743 C739 1.429 1_545 S
C743 C744 1.523 . S
C744 C728 1.368 . S
C744 C740 1.368 . S
C744 C743 1.523 . S
H745 C720 0.950 . S
H746 C722 0.950 . S
H747 C723 0.949 . S
H748 C725 0.950 . S
H749 C727 0.950 . S
C750 C751 1.349 . S
C750 C752 1.327 1_455 S
C750 H775 0.950 . S
C751 C750 1.349 . S
C751 C767 1.349 . S
C752 C750 1.327 1_655 S
C752 C771 1.429 . S
C752 H776 0.950 . S
C753 C770 1.574 . S
C753 C772 1.368 . S
C753 H777 0.949 . S
H754 C758 0.949 . S
C755 C756 1.349 . S
C755 C757 1.327 . S
C755 H778 0.950 . S
C756 C755 1.349 . S
C756 C768 1.349 . S
C757 C755 1.327 . S
C757 C773 1.429 1_565 S
C757 H779 0.950 . S
C758 H754 0.949 . S
C758 C766 1.574 . S
C758 C774 1.368 . S
H759 C767 0.950 . S
H760 C765 0.950 . S
H761 C766 0.949 . S
H762 C768 0.950 . S
H763 C769 0.950 . S
H764 C770 0.949 . S
C765 H760 0.950 . S
C765 C767 1.327 . S
C765 C771 1.429 1_455 S
C766 C758 1.574 . S
C766 H761 0.949 . S
C766 C772 1.368 . S
C767 C751 1.349 . S
C767 H759 0.950 . S
C767 C765 1.327 . S
C768 C756 1.349 . S
C768 H762 0.950 . S
C768 C769 1.327 1_565 S
C769 H763 0.950 . S
C769 C768 1.327 1_545 S
C769 C773 1.429 . S
C770 C753 1.574 . S
C770 H764 0.949 . S
C770 C774 1.368 . S
C771 C752 1.429 . S
C771 C765 1.429 1_655 S
C771 C772 1.523 . S
C772 C753 1.368 . S
C772 C766 1.368 . S
C772 C771 1.523 . S
C773 C757 1.429 1_545 S
C773 C769 1.429 . S
C773 C774 1.523 . S
C774 C758 1.368 . S
C774 C770 1.368 . S
C774 C773 1.523 . S
H775 C750 0.950 . S
H776 C752 0.950 . S
H777 C753 0.949 . S
H778 C755 0.950 . S
H779 C757 0.950 . S
C780 C781 1.349 . S
C780 C782 1.327 1_455 S
C780 H805 0.950 . S
C781 C780 1.349 . S
C781 C797 1.349 . S
C782 C780 1.327 1_655 S
C782 C801 1.429 . S
C782 H806 0.950 . S
C783 C800 1.574 . S
C783 C802 1.368 . S
C783 H807 0.949 . S
H784 C788 0.949 . S
C785 C786 1.349 . S
C785 C787 1.327 . S
C785 H808 0.950 . S
C786 C785 1.349 . S
C786 C798 1.349 . S
C787 C785 1.327 . S
C787 C803 1.429 . S
C787 H809 0.950 . S
C788 H784 0.949 . S
C788 C796 1.574 . S
C788 C804 1.368 . S
H789 C797 0.950 . S
H790 C795 0.950 . S
H791 C796 0.949 . S
H792 C798 0.950 . S
H793 C799 0.950 . S
H794 C800 0.949 . S
C795 H790 0.950 . S
C795 C797 1.327 . S
C795 C801 1.429 1_455 S
C796 C788 1.574 . S
C796 H791 0.949 . S
C796 C802 1.368 . S
C797 C781 1.349 . S
C797 H789 0.950 . S
C797 C795 1.327 . S
C798 C786 1.349 . S
C798 H792 0.950 . S
C798 C799 1.327 . S
C799 H793 0.950 . S
C799 C798 1.327 . S
C799 C803 1.429 . S
C800 C783 1.574 . S
C800 H794 0.949 . S
C800 C804 1.368 . S
C801 C782 1.429 . S
C801 C795 1.429 1_655 S
C801 C802 1.523 . S
C802 C783 1.368 . S
C802 C796 1.368 . S
C802 C801 1.523 . S
C803 C787 1.429 . S
C803 C799 1.429 . S
C803 C804 1.523 . S
C804 C788 1.368 . S
C804 C800 1.368 . S
C804 C803 1.523 . S
H805 C780 0.950 . S
H806 C782 0.950 . S
H807 C783 0.949 . S
H808 C785 0.950 . S
H809 C787 0.950 . S
C810 C811 1.349 . S
C810 C812 1.327 . S
C810 H835 0.950 . S
C811 C810 1.349 . S
C811 C827 1.349 . S
C812 C810 1.327 . S
C812 C831 1.429 . S
C812 H836 0.950 . S
C813 C830 1.574 . S
C813 C832 1.368 . S
C813 H837 0.949 . S
H814 C818 0.949 . S
C815 C816 1.349 . S
C815 C817 1.327 1_655 S
C815 H838 0.950 . S
C816 C815 1.349 . S
C816 C828 1.349 . S
C817 C815 1.327 1_455 S
C817 C833 1.429 . S
C817 H839 0.950 . S
C818 H814 0.949 . S
C818 C826 1.574 . S
C818 C834 1.368 . S
H819 C827 0.950 . S
H820 C825 0.950 . S
H821 C826 0.949 . S
H822 C828 0.950 . S
H823 C829 0.950 . S
H824 C830 0.949 . S
C825 H820 0.950 . S
C825 C827 1.327 . S
C825 C831 1.429 . S
C826 C818 1.574 . S
C826 H821 0.949 . S
C826 C832 1.368 . S
C827 C811 1.349 . S
C827 H819 0.950 . S
C827 C825 1.327 . S
C828 C816 1.349 . S
C828 H822 0.950 . S
C828 C829 1.327 . S
C829 H823 0.950 . S
C829 C828 1.327 . S
C829 C833 1.429 1_655 S
C830 C813 1.574 . S
C830 H824 0.949 . S
C830 C834 1.368 . S
C831 C812 1.429 . S
C831 C825 1.429 . S
C831 C832 1.523 . S
C832 C813 1.368 . S
C832 C826 1.368 . S
C832 C831 1.523 . S
C833 C817 1.429 . S
C833 C829 1.429 1_455 S
C833 C834 1.523 . S
C834 C818 1.368 . S
C834 C830 1.368 . S
C834 C833 1.523 . S
H835 C810 0.950 . S
H836 C812 0.950 . S
H837 C813 0.949 . S
H838 C815 0.950 . S
H839 C817 0.950 . S
C840 C841 1.349 . S
C840 C842 1.327 . S
C840 H865 0.950 . S
C841 C840 1.349 . S
C841 C857 1.349 . S
C842 C840 1.327 . S
C842 C861 1.429 . S
C842 H866 0.950 . S
C843 C860 1.574 . S
C843 C862 1.368 . S
C843 H867 0.949 . S
H844 C848 0.949 . S
C845 C846 1.349 . S
C845 C847 1.327 . S
C845 H868 0.950 . S
C846 C845 1.349 . S
C846 C858 1.349 . S
C847 C845 1.327 . S
C847 C863 1.429 1_545 S
C847 H869 0.950 . S
C848 H844 0.949 . S
C848 C856 1.574 . S
C848 C864 1.368 . S
H849 C857 0.950 . S
H850 C855 0.950 . S
H851 C856 0.949 . S
H852 C858 0.950 . S
H853 C859 0.950 . S
H854 C860 0.949 . S
C855 H850 0.950 . S
C855 C857 1.327 . S
C855 C861 1.429 . S
C856 C848 1.574 . S
C856 H851 0.949 . S
C856 C862 1.368 . S
C857 C841 1.349 . S
C857 H849 0.950 . S
C857 C855 1.327 . S
C858 C846 1.349 . S
C858 H852 0.950 . S
C858 C859 1.327 1_545 S
C859 H853 0.950 . S
C859 C858 1.327 1_565 S
C859 C863 1.429 . S
C860 C843 1.574 . S
C860 H854 0.949 . S
C860 C864 1.368 . S
C861 C842 1.429 . S
C861 C855 1.429 . S
C861 C862 1.523 . S
C862 C843 1.368 . S
C862 C856 1.368 . S
C862 C861 1.523 . S
C863 C847 1.429 1_565 S
C863 C859 1.429 . S
C863 C864 1.523 . S
C864 C848 1.368 . S
C864 C860 1.368 . S
C864 C863 1.523 . S
H865 C840 0.950 . S
H866 C842 0.950 . S
H867 C843 0.949 . S
H868 C845 0.950 . S
H869 C847 0.950 . S
C870 C871 1.349 . S
C870 C872 1.327 . S
C870 H895 0.950 . S
C871 C870 1.349 . S
C871 C887 1.349 . S
C872 C870 1.327 . S
C872 C891 1.429 1_655 S
C872 H896 0.950 . S
C873 C890 1.574 . S
C873 C892 1.368 . S
C873 H897 0.949 . S
H874 C878 0.949 . S
C875 C876 1.349 . S
C875 C877 1.327 1_545 S
C875 H898 0.950 . S
C876 C875 1.349 . S
C876 C888 1.349 . S
C877 C875 1.327 1_565 S
C877 C893 1.429 . S
C877 H899 0.950 . S
C878 H874 0.949 . S
C878 C886 1.574 . S
C878 C894 1.368 . S
H879 C887 0.950 . S
H880 C885 0.950 . S
H881 C886 0.949 . S
H882 C888 0.950 . S
H883 C889 0.946 . S
H884 C890 0.949 . S
C885 H880 0.950 . S
C885 C887 1.327 1_455 S
C885 C891 1.429 . S
C886 C878 1.574 . S
C886 H881 0.949 . S
C886 C892 1.368 . S
C887 C871 1.349 . S
C887 H879 0.950 . S
C887 C885 1.327 1_655 S
C888 C876 1.349 . S
C888 H882 0.950 . S
C888 C889 1.327 . S
C889 H883 0.946 . S
C889 C888 1.327 . S
C889 C893 1.429 1_545 S
C890 C873 1.574 . S
C890 H884 0.949 . S
C890 C894 1.368 . S
C891 C872 1.429 1_455 S
C891 C885 1.429 . S
C891 C892 1.523 . S
C892 C873 1.368 . S
C892 C886 1.368 . S
C892 C891 1.523 . S
C893 C877 1.429 . S
C893 C889 1.429 1_565 S
C893 C894 1.523 . S
C894 C878 1.368 . S
C894 C890 1.368 . S
C894 C893 1.523 . S
H895 C870 0.950 . S
H896 C872 0.950 . S
H897 C873 0.949 . S
H898 C875 0.950 . S
H899 C877 0.950 . S
C900 C901 1.349 . S
C900 C902 1.327 . S
C900 H925 0.950 . S
C901 C900 1.349 . S
C901 C917 1.349 . S
C902 C900 1.327 . S
C902 C921 1.429 . S
C902 H926 0.950 . S
C903 C920 1.574 . S
C903 C922 1.368 . S
C903 H927 0.949 . S
H904 C908 0.949 . S
C905 C906 1.349 . S
C905 C907 1.327 1_545 S
C905 H928 0.950 . S
C906 C905 1.349 . S
C906 C918 1.349 . S
C907 C905 1.327 1_565 S
C907 C923 1.429 . S
C907 H929 0.950 . S
C908 H904 0.949 . S
C908 C916 1.574 . S
C908 C924 1.368 . S
H909 C917 0.950 . S
H910 C915 0.950 . S
H911 C916 0.949 . S
H912 C918 0.950 . S
H913 C919 0.950 . S
H914 C920 0.949 . S
C915 H910 0.950 . S
C915 C917 1.327 . S
C915 C921 1.429 . S
C916 C908 1.574 . S
C916 H911 0.949 . S
C916 C922 1.368 . S
C917 C901 1.349 . S
C917 H909 0.950 . S
C917 C915 1.327 . S
C918 C906 1.349 . S
C918 H912 0.950 . S
C918 C919 1.327 . S
C919 H913 0.950 . S
C919 C918 1.327 . S
C919 C923 1.429 1_545 S
C920 C903 1.574 . S
C920 H914 0.949 . S
C920 C924 1.368 . S
C921 C902 1.429 . S
C921 C915 1.429 . S
C921 C922 1.523 . S
C922 C903 1.368 . S
C922 C916 1.368 . S
C922 C921 1.523 . S
C923 C907 1.429 . S
C923 C919 1.429 1_565 S
C923 C924 1.523 . S
C924 C908 1.368 . S
C924 C920 1.368 . S
C924 C923 1.523 . S
H925 C900 0.950 . S
H926 C902 0.950 . S
H927 C903 0.949 . S
H928 C905 0.950 . S
H929 C907 0.950 . S
C930 C931 1.349 . S
C930 C932 1.327 1_545 S
C930 H955 0.950 . S
C931 C930 1.349 . S
C931 C947 1.349 . S
C932 C930 1.327 1_565 S
C932 C951 1.429 . S
C932 H956 0.950 . S
C933 C950 1.574 . S
C933 C952 1.368 . S
C933 H957 0.949 . S
H934 C938 0.949 . S
C935 C936 1.349 . S
C935 C937 1.327 . S
C935 H958 0.950 . S
C936 C935 1.349 . S
C936 C948 1.349 . S
C937 C935 1.327 . S
C937 C953 1.429 1_655 S
C937 H959 0.950 . S
C938 H934 0.949 . S
C938 C946 1.574 . S
C938 C954 1.368 . S
H939 C947 0.950 . S
H940 C945 0.950 . S
H941 C946 0.949 . S
H942 C948 0.950 . S
H943 C949 0.950 . S
H944 C950 0.949 . S
C945 H940 0.950 . S
C945 C947 1.327 . S
C945 C951 1.429 1_545 S
C946 C938 1.574 . S
C946 H941 0.949 . S
C946 C952 1.368 . S
C947 C931 1.349 . S
C947 H939 0.950 . S
C947 C945 1.327 . S
C948 C936 1.349 . S
C948 H942 0.950 . S
C948 C949 1.327 1_655 S
C949 H943 0.950 . S
C949 C948 1.327 1_455 S
C949 C953 1.429 . S
C950 C933 1.574 . S
C950 H944 0.949 . S
C950 C954 1.368 . S
C951 C932 1.429 . S
C951 C945 1.429 1_565 S
C951 C952 1.523 . S
C952 C933 1.368 . S
C952 C946 1.368 . S
C952 C951 1.523 . S
C953 C937 1.429 1_455 S
C953 C949 1.429 . S
C953 C954 1.523 . S
C954 C938 1.368 . S
C954 C950 1.368 . S
C954 C953 1.523 . S
H955 C930 0.950 . S
H956 C932 0.950 . S
H957 C933 0.949 . S
H958 C935 0.950 . S
H959 C937 0.950 . S
C960 C961 1.349 . S
C960 C962 1.327 1_655 S
C960 H985 0.950 . S
C961 C960 1.349 . S
C961 C977 1.349 . S
C962 C960 1.327 1_455 S
C962 C981 1.429 . S
C962 H986 0.950 . S
C963 C980 1.574 . S
C963 C982 1.368 . S
C963 H987 0.949 . S
H964 C968 0.949 . S
C965 C966 1.349 . S
C965 C967 1.327 . S
C965 H988 0.950 . S
C966 C965 1.349 . S
C966 C978 1.349 . S
C967 C965 1.327 . S
C967 C983 1.429 . S
C967 H989 0.950 . S
C968 H964 0.949 . S
C968 C976 1.574 . S
C968 C984 1.368 . S
H969 C977 0.950 . S
H970 C975 0.950 . S
H971 C976 0.949 . S
H972 C978 0.950 . S
H973 C979 0.950 . S
H974 C980 0.949 . S
C975 H970 0.950 . S
C975 C977 1.327 . S
C975 C981 1.429 1_655 S
C976 C968 1.574 . S
C976 H971 0.949 . S
C976 C982 1.368 . S
C977 C961 1.349 . S
C977 H969 0.950 . S
C977 C975 1.327 . S
C978 C966 1.349 . S
C978 H972 0.950 . S
C978 C979 1.327 . S
C979 H973 0.950 . S
C979 C978 1.327 . S
C979 C983 1.429 . S
C980 C963 1.574 . S
C980 H974 0.949 . S
C980 C984 1.368 . S
C981 C962 1.429 . S
C981 C975 1.429 1_455 S
C981 C982 1.523 . S
C982 C963 1.368 . S
C982 C976 1.368 . S
C982 C981 1.523 . S
C983 C967 1.429 . S
C983 C979 1.429 . S
C983 C984 1.523 . S
C984 C968 1.368 . S
C984 C980 1.368 . S
C984 C983 1.523 . S
H985 C960 0.950 . S
H986 C962 0.950 . S
H987 C963 0.949 . S
H988 C965 0.950 . S
H989 C967 0.950 . S
C990 C991 1.349 . S
C990 C992 1.327 . S
C990 H1015 0.950 . S
C991 C990 1.349 . S
C991 C1007 1.349 . S
C992 C990 1.327 . S
C992 C1011 1.429 . S
C992 H1016 0.950 . S
C993 C1010 1.574 . S
C993 C1012 1.368 . S
C993 H1017 0.949 . S
H994 C998 0.949 . S
C995 C996 1.349 . S
C995 C997 1.327 1_455 S
C995 H1018 0.950 . S
C996 C995 1.349 . S
C996 C1008 1.349 . S
C997 C995 1.327 1_655 S
C997 C1013 1.429 . S
C997 H1019 0.950 . S
C998 H994 0.949 . S
C998 C1006 1.574 . S
C998 C1014 1.368 . S
H999 C1007 0.950 . S
H1000 C1005 0.950 . S
H1001 C1006 0.949 . S
H1002 C1008 0.950 . S
H1003 C1009 0.950 . S
H1004 C1010 0.949 . S
C1005 H1000 0.950 . S
C1005 C1007 1.327 . S
C1005 C1011 1.429 . S
C1006 C998 1.574 . S
C1006 H1001 0.949 . S
C1006 C1012 1.368 . S
C1007 C991 1.349 . S
C1007 H999 0.950 . S
C1007 C1005 1.327 . S
C1008 C996 1.349 . S
C1008 H1002 0.950 . S
C1008 C1009 1.327 . S
C1009 H1003 0.950 . S
C1009 C1008 1.327 . S
C1009 C1013 1.429 1_455 S
C1010 C993 1.574 . S
C1010 H1004 0.949 . S
C1010 C1014 1.368 . S
C1011 C992 1.429 . S
C1011 C1005 1.429 . S
C1011 C1012 1.523 . S
C1012 C993 1.368 . S
C1012 C1006 1.368 . S
C1012 C1011 1.523 . S
C1013 C997 1.429 . S
C1013 C1009 1.429 1_655 S
C1013 C1014 1.523 . S
C1014 C998 1.368 . S
C1014 C1010 1.368 . S
C1014 C1013 1.523 . S
H1015 C990 0.950 . S
H1016 C992 0.950 . S
H1017 C993 0.949 . S
H1018 C995 0.950 . S
H1019 C997 0.950 . S
C1020 C1021 1.349 . S
C1020 C1022 1.327 . S
C1020 H1045 0.950 . S
C1021 C1020 1.349 . S
C1021 C1037 1.349 . S
C1022 C1020 1.327 . S
C1022 C1041 1.429 . S
C1022 H1046 0.950 . S
C1023 C1040 1.574 . S
C1023 C1042 1.368 . S
C1023 H1047 0.949 . S
H1024 C1028 0.949 . S
C1025 C1026 1.349 . S
C1025 C1027 1.327 . S
C1025 H1048 0.950 . S
C1026 C1025 1.349 . S
C1026 C1038 1.349 . S
C1027 C1025 1.327 . S
C1027 C1043 1.429 1_565 S
C1027 H1049 0.950 . S
C1028 H1024 0.949 . S
C1028 C1036 1.574 . S
C1028 C1044 1.368 . S
H1029 C1037 0.950 . S
H1030 C1035 0.950 . S
H1031 C1036 0.949 . S
H1032 C1038 0.950 . S
H1033 C1039 0.950 . S
H1034 C1040 0.949 . S
C1035 H1030 0.950 . S
C1035 C1037 1.327 . S
C1035 C1041 1.429 . S
C1036 C1028 1.574 . S
C1036 H1031 0.949 . S
C1036 C1042 1.368 . S
C1037 C1021 1.349 . S
C1037 H1029 0.950 . S
C1037 C1035 1.327 . S
C1038 C1026 1.349 . S
C1038 H1032 0.950 . S
C1038 C1039 1.327 1_565 S
C1039 H1033 0.950 . S
C1039 C1038 1.327 1_545 S
C1039 C1043 1.429 . S
C1040 C1023 1.574 . S
C1040 H1034 0.949 . S
C1040 C1044 1.368 . S
C1041 C1022 1.429 . S
C1041 C1035 1.429 . S
C1041 C1042 1.523 . S
C1042 C1023 1.368 . S
C1042 C1036 1.368 . S
C1042 C1041 1.523 . S
C1043 C1027 1.429 1_545 S
C1043 C1039 1.429 . S
C1043 C1044 1.523 . S
C1044 C1028 1.368 . S
C1044 C1040 1.368 . S
C1044 C1043 1.523 . S
H1045 C1020 0.950 . S
H1046 C1022 0.950 . S
H1047 C1023 0.949 . S
H1048 C1025 0.950 . S
H1049 C1027 0.950 . S
C1050 C1051 1.349 . S
C1050 C1052 1.327 . S
C1050 H1075 0.950 . S
C1051 C1050 1.349 . S
C1051 C1067 1.349 . S
C1052 C1050 1.327 . S
C1052 C1071 1.429 1_565 S
C1052 H1076 0.950 . S
C1053 C1070 1.574 . S
C1053 C1072 1.368 . S
C1053 H1077 0.949 . S
H1054 C1058 0.949 . S
C1055 C1056 1.349 . S
C1055 C1057 1.327 1_455 S
C1055 H1078 0.950 . S
C1056 C1055 1.349 . S
C1056 C1068 1.349 . S
C1057 C1055 1.327 1_655 S
C1057 C1073 1.429 . S
C1057 H1079 0.950 . S
C1058 H1054 0.949 . S
C1058 C1066 1.574 . S
C1058 C1074 1.368 . S
H1059 C1067 0.950 . S
H1060 C1065 0.950 . S
H1061 C1066 0.949 . S
H1062 C1068 0.950 . S
H1063 C1069 0.950 . S
H1064 C1070 0.949 . S
C1065 H1060 0.950 . S
C1065 C1067 1.327 1_545 S
C1065 C1071 1.429 . S
C1066 C1058 1.574 . S
C1066 H1061 0.949 . S
C1066 C1072 1.368 . S
C1067 C1051 1.349 . S
C1067 H1059 0.950 . S
C1067 C1065 1.327 1_565 S
C1068 C1056 1.349 . S
C1068 H1062 0.950 . S
C1068 C1069 1.327 . S
C1069 H1063 0.950 . S
C1069 C1068 1.327 . S
C1069 C1073 1.429 1_455 S
C1070 C1053 1.574 . S
C1070 H1064 0.949 . S
C1070 C1074 1.368 . S
C1071 C1052 1.429 1_545 S
C1071 C1065 1.429 . S
C1071 C1072 1.523 . S
C1072 C1053 1.368 . S
C1072 C1066 1.368 . S
C1072 C1071 1.523 . S
C1073 C1057 1.429 . S
C1073 C1069 1.429 1_655 S
C1073 C1074 1.523 . S
C1074 C1058 1.368 . S
C1074 C1070 1.368 . S
C1074 C1073 1.523 . S
H1075 C1050 0.950 . S
H1076 C1052 0.950 . S
H1077 C1053 0.949 . S
H1078 C1055 0.950 . S
H1079 C1057 0.950 . S
C1080 C1081 1.349 . S
C1080 C1082 1.327 . S
C1080 H1105 0.950 . S
C1081 C1080 1.349 . S
C1081 C1097 1.349 . S
C1082 C1080 1.327 . S
C1082 C1101 1.429 . S
C1082 H1106 0.950 . S
C1083 C1100 1.574 . S
C1083 C1102 1.368 . S
C1083 H1107 0.949 . S
H1084 C1088 0.949 . S
C1085 C1086 1.349 . S
C1085 C1087 1.327 . S
C1085 H1108 0.950 . S
C1086 C1085 1.349 . S
C1086 C1098 1.349 . S
C1087 C1085 1.327 . S
C1087 C1103 1.429 . S
C1087 H1109 0.950 . S
C1088 H1084 0.949 . S
C1088 C1096 1.574 . S
C1088 C1104 1.368 . S
H1089 C1097 0.950 . S
H1090 C1095 0.950 . S
H1091 C1096 0.949 . S
H1092 C1098 0.950 . S
H1093 C1099 0.950 . S
H1094 C1100 0.949 . S
C1095 H1090 0.950 . S
C1095 C1097 1.327 . S
C1095 C1101 1.429 . S
C1096 C1088 1.574 . S
C1096 H1091 0.949 . S
C1096 C1102 1.368 . S
C1097 C1081 1.349 . S
C1097 H1089 0.950 . S
C1097 C1095 1.327 . S
C1098 C1086 1.349 . S
C1098 H1092 0.950 . S
C1098 C1099 1.327 . S
C1099 H1093 0.950 . S
C1099 C1098 1.327 . S
C1099 C1103 1.429 . S
C1100 C1083 1.574 . S
C1100 H1094 0.949 . S
C1100 C1104 1.368 . S
C1101 C1082 1.429 . S
C1101 C1095 1.429 . S
C1101 C1102 1.523 . S
C1102 C1083 1.368 . S
C1102 C1096 1.368 . S
C1102 C1101 1.523 . S
C1103 C1087 1.429 . S
C1103 C1099 1.429 . S
C1103 C1104 1.523 . S
C1104 C1088 1.368 . S
C1104 C1100 1.368 . S
C1104 C1103 1.523 . S
H1105 C1080 0.950 . S
H1106 C1082 0.950 . S
H1107 C1083 0.949 . S
H1108 C1085 0.950 . S
H1109 C1087 0.950 . S
C1110 C1111 1.349 . S
C1110 C1112 1.327 . S
C1110 H1135 0.950 . S
C1111 C1110 1.349 . S
C1111 C1127 1.349 . S
C1112 C1110 1.327 . S
C1112 C1131 1.429 . S
C1112 H1136 0.950 . S
C1113 C1130 1.574 . S
C1113 C1132 1.368 . S
C1113 H1137 0.949 . S
H1114 C1118 0.949 . S
C1115 C1116 1.349 . S
C1115 C1117 1.327 . S
C1115 H1138 0.950 . S
C1116 C1115 1.349 . S
C1116 C1128 1.349 . S
C1117 C1115 1.327 . S
C1117 C1133 1.429 . S
C1117 H1139 0.950 . S
C1118 H1114 0.949 . S
C1118 C1126 1.574 . S
C1118 C1134 1.368 . S
H1119 C1127 0.950 . S
H1120 C1125 0.950 . S
H1121 C1126 0.949 . S
H1122 C1128 0.950 . S
H1123 C1129 0.950 . S
H1124 C1130 0.949 . S
C1125 H1120 0.950 . S
C1125 C1127 1.327 . S
C1125 C1131 1.429 . S
C1126 C1118 1.574 . S
C1126 H1121 0.949 . S
C1126 C1132 1.368 . S
C1127 C1111 1.349 . S
C1127 H1119 0.950 . S
C1127 C1125 1.327 . S
C1128 C1116 1.349 . S
C1128 H1122 0.950 . S
C1128 C1129 1.327 . S
C1129 H1123 0.950 . S
C1129 C1128 1.327 . S
C1129 C1133 1.429 . S
C1130 C1113 1.574 . S
C1130 H1124 0.949 . S
C1130 C1134 1.368 . S
C1131 C1112 1.429 . S
C1131 C1125 1.429 . S
C1131 C1132 1.523 . S
C1132 C1113 1.368 . S
C1132 C1126 1.368 . S
C1132 C1131 1.523 . S
C1133 C1117 1.429 . S
C1133 C1129 1.429 . S
C1133 C1134 1.523 . S
C1134 C1118 1.368 . S
C1134 C1130 1.368 . S
C1134 C1133 1.523 . S
H1135 C1110 0.950 . S
H1136 C1112 0.950 . S
H1137 C1113 0.949 . S
H1138 C1115 0.950 . S
H1139 C1117 0.950 . S
C1140 C1141 1.349 . S
C1140 C1142 1.327 . S
C1140 H1165 0.950 . S
C1141 C1140 1.349 . S
C1141 C1157 1.349 . S
C1142 C1140 1.327 . S
C1142 C1161 1.429 . S
C1142 H1166 0.950 . S
C1143 C1160 1.574 . S
C1143 C1162 1.368 . S
C1143 H1167 0.949 . S
H1144 C1148 0.949 . S
C1145 C1146 1.349 . S
C1145 C1147 1.327 . S
C1145 H1168 0.950 . S
C1146 C1145 1.349 . S
C1146 C1158 1.349 . S
C1147 C1145 1.327 . S
C1147 C1163 1.429 . S
C1147 H1169 0.950 . S
C1148 H1144 0.949 . S
C1148 C1156 1.574 . S
C1148 C1164 1.368 . S
H1149 C1157 0.950 . S
H1150 C1155 0.950 . S
H1151 C1156 0.949 . S
H1152 C1158 0.950 . S
H1153 C1159 0.950 . S
H1154 C1160 0.949 . S
C1155 H1150 0.950 . S
C1155 C1157 1.327 . S
C1155 C1161 1.429 . S
C1156 C1148 1.574 . S
C1156 H1151 0.949 . S
C1156 C1162 1.368 . S
C1157 C1141 1.349 . S
C1157 H1149 0.950 . S
C1157 C1155 1.327 . S
C1158 C1146 1.349 . S
C1158 H1152 0.950 . S
C1158 C1159 1.327 . S
C1159 H1153 0.950 . S
C1159 C1158 1.327 . S
C1159 C1163 1.429 . S
C1160 C1143 1.574 . S
C1160 H1154 0.949 . S
C1160 C1164 1.368 . S
C1161 C1142 1.429 . S
C1161 C1155 1.429 . S
C1161 C1162 1.523 . S
C1162 C1143 1.368 . S
C1162 C1156 1.368 . S
C1162 C1161 1.523 . S
C1163 C1147 1.429 . S
C1163 C1159 1.429 . S
C1163 C1164 1.523 . S
C1164 C1148 1.368 . S
C1164 C1160 1.368 . S
C1164 C1163 1.523 . S
H1165 C1140 0.950 . S
H1166 C1142 0.950 . S
H1167 C1143 0.949 . S
H1168 C1145 0.950 . S
H1169 C1147 0.950 . S
C1170 C1171 1.349 . S
C1170 C1172 1.327 . S
C1170 H1195 0.950 . S
C1171 C1170 1.349 . S
C1171 C1187 1.349 . S
C1172 C1170 1.327 . S
C1172 C1191 1.429 . S
C1172 H1196 0.950 . S
C1173 C1190 1.574 . S
C1173 C1192 1.368 . S
C1173 H1197 0.949 . S
H1174 C1178 0.949 . S
C1175 C1176 1.349 . S
C1175 C1177 1.327 . S
C1175 H1198 0.950 . S
C1176 C1175 1.349 . S
C1176 C1188 1.349 . S
C1177 C1175 1.327 . S
C1177 C1193 1.429 . S
C1177 H1199 0.950 . S
C1178 H1174 0.949 . S
C1178 C1186 1.574 . S
C1178 C1194 1.368 . S
H1179 C1187 0.950 . S
H1180 C1185 0.950 . S
H1181 C1186 0.949 . S
H1182 C1188 0.950 . S
H1183 C1189 0.950 . S
H1184 C1190 0.949 . S
C1185 H1180 0.950 . S
C1185 C1187 1.327 . S
C1185 C1191 1.429 . S
C1186 C1178 1.574 . S
C1186 H1181 0.949 . S
C1186 C1192 1.368 . S
C1187 C1171 1.349 . S
C1187 H1179 0.950 . S
C1187 C1185 1.327 . S
C1188 C1176 1.349 . S
C1188 H1182 0.950 . S
C1188 C1189 1.327 . S
C1189 H1183 0.950 . S
C1189 C1188 1.327 . S
C1189 C1193 1.429 . S
C1190 C1173 1.574 . S
C1190 H1184 0.949 . S
C1190 C1194 1.368 . S
C1191 C1172 1.429 . S
C1191 C1185 1.429 . S
C1191 C1192 1.523 . S
C1192 C1173 1.368 . S
C1192 C1186 1.368 . S
C1192 C1191 1.523 . S
C1193 C1177 1.429 . S
C1193 C1189 1.429 . S
C1193 C1194 1.523 . S
C1194 C1178 1.368 . S
C1194 C1190 1.368 . S
C1194 C1193 1.523 . S
H1195 C1170 0.950 . S
H1196 C1172 0.950 . S
H1197 C1173 0.949 . S
H1198 C1175 0.950 . S
H1199 C1177 0.950 . S
C1200 C1201 1.349 . S
C1200 C1202 1.327 . S
C1200 H1225 0.950 . S
C1201 C1200 1.349 . S
C1201 C1217 1.349 . S
C1202 C1200 1.327 . S
C1202 C1221 1.429 . S
C1202 H1226 0.950 . S
C1203 C1220 1.574 . S
C1203 C1222 1.368 . S
C1203 H1227 0.949 . S
H1204 C1208 0.949 . S
C1205 C1206 1.349 . S
C1205 C1207 1.327 . S
C1205 H1228 0.950 . S
C1206 C1205 1.349 . S
C1206 C1218 1.349 . S
C1207 C1205 1.327 . S
C1207 C1223 1.429 . S
C1207 H1229 0.950 . S
C1208 H1204 0.949 . S
C1208 C1216 1.574 . S
C1208 C1224 1.368 . S
H1209 C1217 0.950 . S
H1210 C1215 0.950 . S
H1211 C1216 0.949 . S
H1212 C1218 0.950 . S
H1213 C1219 0.950 . S
H1214 C1220 0.949 . S
C1215 H1210 0.950 . S
C1215 C1217 1.327 . S
C1215 C1221 1.429 . S
C1216 C1208 1.574 . S
C1216 H1211 0.949 . S
C1216 C1222 1.368 . S
C1217 C1201 1.349 . S
C1217 H1209 0.950 . S
C1217 C1215 1.327 . S
C1218 C1206 1.349 . S
C1218 H1212 0.950 . S
C1218 C1219 1.327 . S
C1219 H1213 0.950 . S
C1219 C1218 1.327 . S
C1219 C1223 1.429 . S
C1220 C1203 1.574 . S
C1220 H1214 0.949 . S
C1220 C1224 1.368 . S
C1221 C1202 1.429 . S
C1221 C1215 1.429 . S
C1221 C1222 1.523 . S
C1222 C1203 1.368 . S
C1222 C1216 1.368 . S
C1222 C1221 1.523 . S
C1223 C1207 1.429 . S
C1223 C1219 1.429 . S
C1223 C1224 1.523 . S
C1224 C1208 1.368 . S
C1224 C1220 1.368 . S
C1224 C1223 1.523 . S
H1225 C1200 0.950 . S
H1226 C1202 0.950 . S
H1227 C1203 0.949 . S
H1228 C1205 0.950 . S
H1229 C1207 0.950 . S
C1230 C1231 1.349 . S
C1230 C1232 1.327 . S
C1230 H1255 0.950 . S
C1231 C1230 1.349 . S
C1231 C1247 1.349 . S
C1232 C1230 1.327 . S
C1232 C1251 1.429 . S
C1232 H1256 0.950 . S
C1233 C1250 1.574 . S
C1233 C1252 1.368 . S
C1233 H1257 0.949 . S
H1234 C1238 0.949 . S
C1235 C1236 1.349 . S
C1235 C1237 1.327 . S
C1235 H1258 0.950 . S
C1236 C1235 1.349 . S
C1236 C1248 1.349 . S
C1237 C1235 1.327 . S
C1237 C1253 1.429 . S
C1237 H1259 0.950 . S
C1238 H1234 0.949 . S
C1238 C1246 1.574 . S
C1238 C1254 1.368 . S
H1239 C1247 0.950 . S
H1240 C1245 0.950 . S
H1241 C1246 0.949 . S
H1242 C1248 0.950 . S
H1243 C1249 0.950 . S
H1244 C1250 0.949 . S
C1245 H1240 0.950 . S
C1245 C1247 1.327 . S
C1245 C1251 1.429 . S
C1246 C1238 1.574 . S
C1246 H1241 0.949 . S
C1246 C1252 1.368 . S
C1247 C1231 1.349 . S
C1247 H1239 0.950 . S
C1247 C1245 1.327 . S
C1248 C1236 1.349 . S
C1248 H1242 0.950 . S
C1248 C1249 1.327 . S
C1249 H1243 0.950 . S
C1249 C1248 1.327 . S
C1249 C1253 1.429 . S
C1250 C1233 1.574 . S
C1250 H1244 0.949 . S
C1250 C1254 1.368 . S
C1251 C1232 1.429 . S
C1251 C1245 1.429 . S
C1251 C1252 1.523 . S
C1252 C1233 1.368 . S
C1252 C1246 1.368 . S
C1252 C1251 1.523 . S
C1253 C1237 1.429 . S
C1253 C1249 1.429 . S
C1253 C1254 1.523 . S
C1254 C1238 1.368 . S
C1254 C1250 1.368 . S
C1254 C1253 1.523 . S
H1255 C1230 0.950 . S
H1256 C1232 0.950 . S
H1257 C1233 0.949 . S
H1258 C1235 0.950 . S
H1259 C1237 0.950 . S
C1260 C1261 1.349 . S
C1260 C1262 1.327 . S
C1260 H1285 0.950 . S
C1261 C1260 1.349 . S
C1261 C1277 1.349 . S
C1262 C1260 1.327 . S
C1262 C1281 1.429 . S
C1262 H1286 0.950 . S
C1263 C1280 1.574 . S
C1263 C1282 1.368 . S
C1263 H1287 0.949 . S
H1264 C1268 0.949 . S
C1265 C1266 1.349 . S
C1265 C1267 1.327 . S
C1265 H1288 0.950 . S
C1266 C1265 1.349 . S
C1266 C1278 1.349 . S
C1267 C1265 1.327 . S
C1267 C1283 1.429 . S
C1267 H1289 0.950 . S
C1268 H1264 0.949 . S
C1268 C1276 1.574 . S
C1268 C1284 1.368 . S
H1269 C1277 0.950 . S
H1270 C1275 0.950 . S
H1271 C1276 0.949 . S
H1272 C1278 0.950 . S
H1273 C1279 0.950 . S
H1274 C1280 0.949 . S
C1275 H1270 0.950 . S
C1275 C1277 1.327 . S
C1275 C1281 1.429 . S
C1276 C1268 1.574 . S
C1276 H1271 0.949 . S
C1276 C1282 1.368 . S
C1277 C1261 1.349 . S
C1277 H1269 0.950 . S
C1277 C1275 1.327 . S
C1278 C1266 1.349 . S
C1278 H1272 0.950 . S
C1278 C1279 1.327 . S
C1279 H1273 0.950 . S
C1279 C1278 1.327 . S
C1279 C1283 1.429 . S
C1280 C1263 1.574 . S
C1280 H1274 0.949 . S
C1280 C1284 1.368 . S
C1281 C1262 1.429 . S
C1281 C1275 1.429 . S
C1281 C1282 1.523 . S
C1282 C1263 1.368 . S
C1282 C1276 1.368 . S
C1282 C1281 1.523 . S
C1283 C1267 1.429 . S
C1283 C1279 1.429 . S
C1283 C1284 1.523 . S
C1284 C1268 1.368 . S
C1284 C1280 1.368 . S
C1284 C1283 1.523 . S
H1285 C1260 0.950 . S
H1286 C1262 0.950 . S
H1287 C1263 0.949 . S
H1288 C1265 0.950 . S
H1289 C1267 0.950 . S
C1290 C1291 1.349 . S
C1290 C1292 1.327 . S
C1290 H1315 0.950 . S
C1291 C1290 1.349 . S
C1291 C1307 1.349 . S
C1292 C1290 1.327 . S
C1292 C1311 1.429 . S
C1292 H1316 0.950 . S
C1293 C1310 1.574 . S
C1293 C1312 1.368 . S
C1293 H1317 0.949 . S
H1294 C1298 0.949 . S
C1295 C1296 1.349 . S
C1295 C1297 1.327 . S
C1295 H1318 0.950 . S
C1296 C1295 1.349 . S
C1296 C1308 1.349 . S
C1297 C1295 1.327 . S
C1297 C1313 1.429 . S
C1297 H1319 0.950 . S
C1298 H1294 0.949 . S
C1298 C1306 1.574 . S
C1298 C1314 1.368 . S
H1299 C1307 0.950 . S
H1300 C1305 0.950 . S
H1301 C1306 0.949 . S
H1302 C1308 0.950 . S
H1303 C1309 0.950 . S
H1304 C1310 0.949 . S
C1305 H1300 0.950 . S
C1305 C1307 1.327 . S
C1305 C1311 1.429 . S
C1306 C1298 1.574 . S
C1306 H1301 0.949 . S
C1306 C1312 1.368 . S
C1307 C1291 1.349 . S
C1307 H1299 0.950 . S
C1307 C1305 1.327 . S
C1308 C1296 1.349 . S
C1308 H1302 0.950 . S
C1308 C1309 1.327 . S
C1309 H1303 0.950 . S
C1309 C1308 1.327 . S
C1309 C1313 1.429 . S
C1310 C1293 1.574 . S
C1310 H1304 0.949 . S
C1310 C1314 1.368 . S
C1311 C1292 1.429 . S
C1311 C1305 1.429 . S
C1311 C1312 1.523 . S
C1312 C1293 1.368 . S
C1312 C1306 1.368 . S
C1312 C1311 1.523 . S
C1313 C1297 1.429 . S
C1313 C1309 1.429 . S
C1313 C1314 1.523 . S
C1314 C1298 1.368 . S
C1314 C1310 1.368 . S
C1314 C1313 1.523 . S
H1315 C1290 0.950 . S
H1316 C1292 0.950 . S
H1317 C1293 0.949 . S
H1318 C1295 0.950 . S
H1319 C1297 0.950 . S
C1320 C1321 1.349 . S
C1320 C1322 1.327 . S
C1320 H1345 0.950 . S
C1321 C1320 1.349 . S
C1321 C1337 1.349 . S
C1322 C1320 1.327 . S
C1322 C1341 1.429 . S
C1322 H1346 0.950 . S
C1323 C1340 1.574 . S
C1323 C1342 1.368 . S
C1323 H1347 0.949 . S
H1324 C1328 0.949 . S
C1325 C1326 1.349 . S
C1325 C1327 1.327 . S
C1325 H1348 0.950 . S
C1326 C1325 1.349 . S
C1326 C1338 1.349 . S
C1327 C1325 1.327 . S
C1327 C1343 1.429 . S
C1327 H1349 0.950 . S
C1328 H1324 0.949 . S
C1328 C1336 1.574 . S
C1328 C1344 1.368 . S
H1329 C1337 0.950 . S
H1330 C1335 0.950 . S
H1331 C1336 0.949 . S
H1332 C1338 0.950 . S
H1333 C1339 0.950 . S
H1334 C1340 0.949 . S
C1335 H1330 0.950 . S
C1335 C1337 1.327 . S
C1335 C1341 1.429 . S
C1336 C1328 1.574 . S
C1336 H1331 0.949 . S
C1336 C1342 1.368 . S
C1337 C1321 1.349 . S
C1337 H1329 0.950 . S
C1337 C1335 1.327 . S
C1338 C1326 1.349 . S
C1338 H1332 0.950 . S
C1338 C1339 1.327 . S
C1339 H1333 0.950 . S
C1339 C1338 1.327 . S
C1339 C1343 1.429 . S
C1340 C1323 1.574 . S
C1340 H1334 0.949 . S
C1340 C1344 1.368 . S
C1341 C1322 1.429 . S
C1341 C1335 1.429 . S
C1341 C1342 1.523 . S
C1342 C1323 1.368 . S
C1342 C1336 1.368 . S
C1342 C1341 1.523 . S
C1343 C1327 1.429 . S
C1343 C1339 1.429 . S
C1343 C1344 1.523 . S
C1344 C1328 1.368 . S
C1344 C1340 1.368 . S
C1344 C1343 1.523 . S
H1345 C1320 0.950 . S
H1346 C1322 0.950 . S
H1347 C1323 0.949 . S
H1348 C1325 0.950 . S
H1349 C1327 0.950 . S
C1350 C1351 1.349 . S
C1350 C1352 1.327 . S
C1350 H1375 0.950 . S
C1351 C1350 1.349 . S
C1351 C1367 1.349 . S
C1352 C1350 1.327 . S
C1352 C1371 1.429 . S
C1352 H1376 0.960 . S
C1353 C1370 1.574 . S
C1353 C1372 1.368 . S
C1353 H1377 0.949 . S
H1354 C1358 0.948 . S
C1355 C1356 1.347 . S
C1355 C1357 1.332 . S
C1355 H1378 0.957 . S
C1356 C1355 1.347 . S
C1356 C1368 1.348 1_554 S
C1357 C1355 1.332 . S
C1357 C1373 1.433 . S
C1357 H1379 0.950 . S
C1358 H1354 0.948 . S
C1358 C1366 1.573 . S
C1358 C1374 1.367 . S
H1359 C1367 0.950 . S
H1360 C1365 0.950 . S
H1361 C1366 0.949 . S
H1362 C1368 0.948 . S
H1363 C1369 0.949 1_556 S
H1364 C1370 0.949 . S
C1365 H1360 0.950 . S
C1365 C1367 1.327 . S
C1365 C1371 1.429 . S
C1366 C1358 1.573 . S
C1366 H1361 0.949 . S
C1366 C1372 1.376 . S
C1367 C1351 1.349 . S
C1367 H1359 0.950 . S
C1367 C1365 1.327 . S
C1368 C1356 1.348 1_556 S
C1368 H1362 0.948 . S
C1368 C1369 1.327 1_556 S
C1369 H1363 0.949 1_554 S
C1369 C1368 1.327 1_554 S
C1369 C1373 1.427 . S
C1370 C1353 1.574 . S
C1370 H1364 0.949 . S
C1370 C1374 1.378 . S
C1371 C1352 1.429 . S
C1371 C1365 1.429 . S
C1371 C1372 1.523 . S
C1372 C1353 1.368 . S
C1372 C1366 1.376 . S
C1372 C1371 1.523 . S
C1373 C1357 1.433 . S
C1373 C1369 1.427 . S
C1373 C1374 1.523 . S
C1374 C1358 1.367 . S
C1374 C1370 1.378 . S
C1374 C1373 1.523 . S
H1375 C1350 0.950 . S
H1376 C1352 0.960 . S
H1377 C1353 0.949 . S
H1378 C1355 0.957 . S
H1379 C1357 0.950 . S
C1380 C1381 1.332 1_556 S
C1380 C1382 1.327 . S
C1380 H1405 0.950 . S
C1381 C1380 1.332 1_554 S
C1381 C1397 1.366 . S
C1382 C1380 1.327 . S
C1382 C1401 1.374 1_556 S
C1382 H1406 0.950 . S
C1383 C1400 1.574 . S
C1383 C1402 1.454 . S
C1383 H1407 0.949 . S
H1384 C1388 0.949 . S
C1385 C1386 1.349 . S
C1385 C1387 1.327 . S
C1385 H1408 0.950 . S
C1386 C1385 1.349 . S
C1386 C1398 1.349 1_554 S
C1387 C1385 1.327 . S
C1387 C1403 1.429 . S
C1387 H1409 0.950 . S
C1388 H1384 0.949 . S
C1388 C1396 1.574 . S
C1388 C1404 1.368 1_556 S
H1389 C1397 0.950 . S
H1390 C1395 0.950 . S
H1391 C1396 0.949 . S
H1392 C1398 0.950 . S
H1393 C1399 0.950 . S
H1394 C1400 0.949 . S
C1395 H1390 0.950 . S
C1395 C1397 1.327 . S
C1395 C1401 1.484 . S
C1396 C1388 1.574 . S
C1396 H1391 0.949 . S
C1396 C1402 1.288 1_556 S
C1397 C1381 1.366 . S
C1397 H1389 0.950 . S
C1397 C1395 1.327 . S
C1398 C1386 1.349 1_556 S
C1398 H1392 0.950 . S
C1398 C1399 1.327 . S
C1399 H1393 0.950 . S
C1399 C1398 1.327 . S
C1399 C1403 1.429 1_556 S
C1400 C1383 1.574 . S
C1400 H1394 0.949 . S
C1400 C1404 1.368 . S
C1401 C1382 1.374 1_554 S
C1401 C1395 1.484 . S
C1401 C1402 1.523 . S
C1402 C1383 1.454 . S
C1402 C1396 1.288 1_554 S
C1402 C1401 1.523 . S
C1403 C1387 1.429 . S
C1403 C1399 1.429 1_554 S
C1403 C1404 1.523 . S
C1404 C1388 1.368 1_554 S
C1404 C1400 1.368 . S
C1404 C1403 1.523 . S
H1405 C1380 0.950 . S
H1406 C1382 0.950 . S
H1407 C1383 0.949 . S
H1408 C1385 0.950 . S
H1409 C1387 0.950 . S
C1410 C1411 1.349 1_556 S
C1410 C1412 1.327 . S
C1410 H1435 0.950 . S
C1411 C1410 1.349 1_554 S
C1411 C1427 1.349 . S
C1412 C1410 1.327 . S
C1412 C1431 1.429 1_556 S
C1412 H1436 0.950 . S
C1413 C1430 1.574 . S
C1413 C1432 1.368 . S
C1413 H1437 0.949 . S
H1414 C1418 0.949 . S
C1415 C1416 1.366 . S
C1415 C1417 1.327 . S
C1415 H1438 0.950 . S
C1416 C1415 1.366 . S
C1416 C1428 1.332 1_554 S
C1417 C1415 1.327 . S
C1417 C1433 1.483 . S
C1417 H1439 0.950 . S
C1418 H1414 0.949 . S
C1418 C1426 1.574 . S
C1418 C1434 1.289 1_556 S
H1419 C1427 0.950 . S
H1420 C1425 0.950 . S
H1421 C1426 0.949 . S
H1422 C1428 0.950 . S
H1423 C1429 0.950 . S
H1424 C1430 0.949 . S
C1425 H1420 0.950 . S
C1425 C1427 1.327 . S
C1425 C1431 1.429 . S
C1426 C1418 1.574 . S
C1426 H1421 0.949 . S
C1426 C1432 1.368 1_556 S
C1427 C1411 1.349 . S
C1427 H1419 0.950 . S
C1427 C1425 1.327 . S
C1428 C1416 1.332 1_556 S
C1428 H1422 0.950 . S
C1428 C1429 1.327 . S
C1429 H1423 0.950 . S
C1429 C1428 1.327 . S
C1429 C1433 1.375 1_556 S
C1430 C1413 1.574 . S
C1430 H1424 0.949 . S
C1430 C1434 1.453 . S
C1431 C1412 1.429 1_554 S
C1431 C1425 1.429 . S
C1431 C1432 1.523 . S
C1432 C1413 1.368 . S
C1432 C1426 1.368 1_554 S
C1432 C1431 1.523 . S
C1433 C1417 1.483 . S
C1433 C1429 1.375 1_554 S
C1433 C1434 1.523 . S
C1434 C1418 1.289 1_554 S
C1434 C1430 1.453 . S
C1434 C1433 1.523 . S
H1435 C1410 0.950 . S
H1436 C1412 0.950 . S
H1437 C1413 0.949 . S
H1438 C1415 0.950 . S
H1439 C1417 0.950 . S
C1440 C1441 1.349 . S
C1440 C1442 1.327 . S
C1440 H1465 0.950 . S
C1441 C1440 1.349 . S
C1441 C1457 1.349 . S
C1442 C1440 1.327 . S
C1442 C1461 1.429 . S
C1442 H1466 0.950 . S
C1443 C1460 1.574 . S
C1443 C1462 1.368 . S
C1443 H1467 0.949 . S
H1444 C1448 0.949 . S
C1445 C1446 1.349 . S
C1445 C1447 1.327 . S
C1445 H1468 0.950 . S
C1446 C1445 1.349 . S
C1446 C1458 1.349 . S
C1447 C1445 1.327 . S
C1447 C1463 1.429 . S
C1447 H1469 0.950 . S
C1448 H1444 0.949 . S
C1448 C1456 1.574 . S
C1448 C1464 1.368 . S
H1449 C1457 0.950 . S
H1450 C1455 0.950 . S
H1451 C1456 0.949 . S
H1452 C1458 0.950 . S
H1453 C1459 0.950 . S
H1454 C1460 0.949 . S
C1455 H1450 0.950 . S
C1455 C1457 1.327 . S
C1455 C1461 1.429 . S
C1456 C1448 1.574 . S
C1456 H1451 0.949 . S
C1456 C1462 1.368 . S
C1457 C1441 1.349 . S
C1457 H1449 0.950 . S
C1457 C1455 1.327 . S
C1458 C1446 1.349 . S
C1458 H1452 0.950 . S
C1458 C1459 1.327 . S
C1459 H1453 0.950 . S
C1459 C1458 1.327 . S
C1459 C1463 1.429 . S
C1460 C1443 1.574 . S
C1460 H1454 0.949 . S
C1460 C1464 1.368 . S
C1461 C1442 1.429 . S
C1461 C1455 1.429 . S
C1461 C1462 1.523 . S
C1462 C1443 1.368 . S
C1462 C1456 1.368 . S
C1462 C1461 1.523 . S
C1463 C1447 1.429 . S
C1463 C1459 1.429 . S
C1463 C1464 1.523 . S
C1464 C1448 1.368 . S
C1464 C1460 1.368 . S
C1464 C1463 1.523 . S
H1465 C1440 0.950 . S
H1466 C1442 0.950 . S
H1467 C1443 0.949 . S
H1468 C1445 0.950 . S
H1469 C1447 0.950 . S
C1470 C1471 1.349 . S
C1470 C1472 1.327 . S
C1470 H1495 0.950 . S
C1471 C1470 1.349 . S
C1471 C1487 1.349 . S
C1472 C1470 1.327 . S
C1472 C1491 1.429 . S
C1472 H1496 0.950 . S
C1473 C1490 1.574 . S
C1473 C1492 1.368 . S
C1473 H1497 0.949 . S
H1474 C1478 0.949 . S
C1475 C1476 1.349 . S
C1475 C1477 1.327 . S
C1475 H1498 0.950 . S
C1476 C1475 1.349 . S
C1476 C1488 1.349 . S
C1477 C1475 1.327 . S
C1477 C1493 1.429 . S
C1477 H1499 0.950 . S
C1478 H1474 0.949 . S
C1478 C1486 1.574 . S
C1478 C1494 1.368 . S
H1479 C1487 0.950 . S
H1480 C1485 0.950 . S
H1481 C1486 0.949 . S
H1482 C1488 0.950 . S
H1483 C1489 0.950 . S
H1484 C1490 0.949 . S
C1485 H1480 0.950 . S
C1485 C1487 1.327 . S
C1485 C1491 1.429 . S
C1486 C1478 1.574 . S
C1486 H1481 0.949 . S
C1486 C1492 1.368 . S
C1487 C1471 1.349 . S
C1487 H1479 0.950 . S
C1487 C1485 1.327 . S
C1488 C1476 1.349 . S
C1488 H1482 0.950 . S
C1488 C1489 1.327 . S
C1489 H1483 0.950 . S
C1489 C1488 1.327 . S
C1489 C1493 1.429 . S
C1490 C1473 1.574 . S
C1490 H1484 0.949 . S
C1490 C1494 1.368 . S
C1491 C1472 1.429 . S
C1491 C1485 1.429 . S
C1491 C1492 1.523 . S
C1492 C1473 1.368 . S
C1492 C1486 1.368 . S
C1492 C1491 1.523 . S
C1493 C1477 1.429 . S
C1493 C1489 1.429 . S
C1493 C1494 1.523 . S
C1494 C1478 1.368 . S
C1494 C1490 1.368 . S
C1494 C1493 1.523 . S
H1495 C1470 0.950 . S
H1496 C1472 0.950 . S
H1497 C1473 0.949 . S
H1498 C1475 0.950 . S
H1499 C1477 0.950 . S
C1500 C1501 1.349 . S
C1500 C1502 1.327 . S
C1500 H1525 0.950 . S
C1501 C1500 1.349 . S
C1501 C1517 1.349 . S
C1502 C1500 1.327 . S
C1502 C1521 1.429 . S
C1502 H1526 0.950 . S
C1503 C1520 1.574 . S
C1503 C1522 1.368 . S
C1503 H1527 0.949 . S
H1504 C1508 0.949 . S
C1505 C1506 1.349 . S
C1505 C1507 1.327 . S
C1505 H1528 0.950 . S
C1506 C1505 1.349 . S
C1506 C1518 1.349 . S
C1507 C1505 1.327 . S
C1507 C1523 1.429 . S
C1507 H1529 0.950 . S
C1508 H1504 0.949 . S
C1508 C1516 1.574 . S
C1508 C1524 1.368 . S
H1509 C1517 0.950 . S
H1510 C1515 0.950 . S
H1511 C1516 0.949 . S
H1512 C1518 0.950 . S
H1513 C1519 0.950 . S
H1514 C1520 0.949 . S
C1515 H1510 0.950 . S
C1515 C1517 1.327 . S
C1515 C1521 1.429 . S
C1516 C1508 1.574 . S
C1516 H1511 0.949 . S
C1516 C1522 1.368 . S
C1517 C1501 1.349 . S
C1517 H1509 0.950 . S
C1517 C1515 1.327 . S
C1518 C1506 1.349 . S
C1518 H1512 0.950 . S
C1518 C1519 1.327 . S
C1519 H1513 0.950 . S
C1519 C1518 1.327 . S
C1519 C1523 1.429 . S
C1520 C1503 1.574 . S
C1520 H1514 0.949 . S
C1520 C1524 1.368 . S
C1521 C1502 1.429 . S
C1521 C1515 1.429 . S
C1521 C1522 1.523 . S
C1522 C1503 1.368 . S
C1522 C1516 1.368 . S
C1522 C1521 1.523 . S
C1523 C1507 1.429 . S
C1523 C1519 1.429 . S
C1523 C1524 1.523 . S
C1524 C1508 1.368 . S
C1524 C1520 1.368 . S
C1524 C1523 1.523 . S
H1525 C1500 0.950 . S
H1526 C1502 0.950 . S
H1527 C1503 0.949 . S
H1528 C1505 0.950 . S
H1529 C1507 0.950 . S
C1530 C1531 1.332 1_554 S
C1530 C1532 1.327 . S
C1530 H1555 0.950 . S
C1531 C1530 1.332 1_556 S
C1531 C1547 1.367 . S
C1532 C1530 1.327 . S
C1532 C1551 1.372 1_554 S
C1532 H1556 0.950 . S
C1533 C1550 1.574 . S
C1533 C1552 1.456 . S
C1533 H1557 0.949 . S
H1534 C1538 0.949 . S
C1535 C1536 1.349 . S
C1535 C1537 1.327 . S
C1535 H1558 0.950 . S
C1536 C1535 1.349 . S
C1536 C1548 1.349 1_556 S
C1537 C1535 1.327 . S
C1537 C1553 1.429 . S
C1537 H1559 0.950 . S
C1538 H1534 0.949 . S
C1538 C1546 1.574 . S
C1538 C1554 1.368 1_554 S
H1539 C1547 0.950 . S
H1540 C1545 0.950 . S
H1541 C1546 0.949 . S
H1542 C1548 0.950 . S
H1543 C1549 0.950 . S
H1544 C1550 0.949 . S
C1545 H1540 0.950 . S
C1545 C1547 1.327 . S
C1545 C1551 1.485 . S
C1546 C1538 1.574 . S
C1546 H1541 0.949 . S
C1546 C1552 1.285 1_554 S
C1547 C1531 1.367 . S
C1547 H1539 0.950 . S
C1547 C1545 1.327 . S
C1548 C1536 1.349 1_554 S
C1548 H1542 0.950 . S
C1548 C1549 1.327 . S
C1549 H1543 0.950 . S
C1549 C1548 1.327 . S
C1549 C1553 1.429 1_554 S
C1550 C1533 1.574 . S
C1550 H1544 0.949 . S
C1550 C1554 1.368 . S
C1551 C1532 1.372 1_556 S
C1551 C1545 1.485 . S
C1551 C1552 1.523 . S
C1552 C1533 1.456 . S
C1552 C1546 1.285 1_556 S
C1552 C1551 1.523 . S
C1553 C1537 1.429 . S
C1553 C1549 1.429 1_556 S
C1553 C1554 1.523 . S
C1554 C1538 1.368 1_556 S
C1554 C1550 1.368 . S
C1554 C1553 1.523 . S
H1555 C1530 0.950 . S
H1556 C1532 0.950 . S
H1557 C1533 0.949 . S
H1558 C1535 0.950 . S
H1559 C1537 0.950 . S
C1560 C1561 1.332 1_554 S
C1560 C1562 1.327 . S
C1560 H1585 0.950 . S
C1561 C1560 1.332 1_556 S
C1561 C1577 1.366 . S
C1562 C1560 1.327 . S
C1562 C1581 1.375 1_554 S
C1562 H1586 0.950 . S
C1563 C1580 1.574 . S
C1563 C1582 1.452 . S
C1563 H1587 0.949 . S
H1564 C1568 0.949 . S
C1565 C1566 1.349 . S
C1565 C1567 1.327 . S
C1565 H1588 0.950 . S
C1566 C1565 1.349 . S
C1566 C1578 1.349 1_556 S
C1567 C1565 1.327 . S
C1567 C1583 1.429 . S
C1567 H1589 0.950 . S
C1568 H1564 0.949 . S
C1568 C1576 1.574 . S
C1568 C1584 1.368 1_554 S
H1569 C1577 0.950 . S
H1570 C1575 0.950 . S
H1571 C1576 0.949 . S
H1572 C1578 0.950 . S
H1573 C1579 0.950 . S
H1574 C1580 0.949 . S
C1575 H1570 0.950 . S
C1575 C1577 1.327 . S
C1575 C1581 1.482 . S
C1576 C1568 1.574 . S
C1576 H1571 0.949 . S
C1576 C1582 1.290 1_554 S
C1577 C1561 1.366 . S
C1577 H1569 0.950 . S
C1577 C1575 1.327 . S
C1578 C1566 1.349 1_554 S
C1578 H1572 0.950 . S
C1578 C1579 1.327 . S
C1579 H1573 0.950 . S
C1579 C1578 1.327 . S
C1579 C1583 1.429 1_554 S
C1580 C1563 1.574 . S
C1580 H1574 0.949 . S
C1580 C1584 1.368 . S
C1581 C1562 1.375 1_556 S
C1581 C1575 1.482 . S
C1581 C1582 1.523 . S
C1582 C1563 1.452 . S
C1582 C1576 1.290 1_556 S
C1582 C1581 1.523 . S
C1583 C1567 1.429 . S
C1583 C1579 1.429 1_556 S
C1583 C1584 1.523 . S
C1584 C1568 1.368 1_556 S
C1584 C1580 1.368 . S
C1584 C1583 1.523 . S
H1585 C1560 0.950 . S
H1586 C1562 0.950 . S
H1587 C1563 0.949 . S
H1588 C1565 0.950 . S
H1589 C1567 0.950 . S
C1590 C1591 1.367 . S
C1590 C1592 1.327 . S
C1590 H1615 0.950 . S
C1591 C1590 1.367 . S
C1591 C1607 1.331 1_556 S
C1592 C1590 1.327 . S
C1592 C1611 1.486 . S
C1592 H1616 0.950 . S
C1593 C1610 1.574 . S
C1593 C1612 1.285 1_554 S
C1593 H1617 0.949 . S
H1594 C1598 0.949 . S
C1595 C1596 1.349 1_554 S
C1595 C1597 1.327 . S
C1595 H1618 0.950 . S
C1596 C1595 1.349 1_556 S
C1596 C1608 1.349 . S
C1597 C1595 1.327 . S
C1597 C1613 1.429 1_554 S
C1597 H1619 0.950 . S
C1598 H1594 0.949 . S
C1598 C1606 1.574 . S
C1598 C1614 1.368 . S
H1599 C1607 0.950 . S
H1600 C1605 0.950 . S
H1601 C1606 0.949 . S
H1602 C1608 0.950 . S
H1603 C1609 0.950 . S
H1604 C1610 0.949 . S
C1605 H1600 0.950 . S
C1605 C1607 1.327 . S
C1605 C1611 1.372 1_554 S
C1606 C1598 1.574 . S
C1606 H1601 0.949 . S
C1606 C1612 1.457 . S
C1607 C1591 1.331 1_554 S
C1607 H1599 0.950 . S
C1607 C1605 1.327 . S
C1608 C1596 1.349 . S
C1608 H1602 0.950 . S
C1608 C1609 1.327 . S
C1609 H1603 0.950 . S
C1609 C1608 1.327 . S
C1609 C1613 1.429 . S
C1610 C1593 1.574 . S
C1610 H1604 0.949 . S
C1610 C1614 1.368 1_554 S
C1611 C1592 1.486 . S
C1611 C1605 1.372 1_556 S
C1611 C1612 1.523 . S
C1612 C1593 1.285 1_556 S
C1612 C1606 1.457 . S
C1612 C1611 1.523 . S
C1613 C1597 1.429 1_556 S
C1613 C1609 1.429 . S
C1613 C1614 1.523 . S
C1614 C1598 1.368 . S
C1614 C1610 1.368 1_556 S
C1614 C1613 1.523 . S
H1615 C1590 0.950 . S
H1616 C1592 0.950 . S
H1617 C1593 0.949 . S
H1618 C1595 0.950 . S
H1619 C1597 0.950 . S
C1620 C1621 1.349 . S
C1620 C1622 1.327 . S
C1620 H1645 0.950 . S
C1621 C1620 1.349 . S
C1621 C1637 1.349 . S
C1622 C1620 1.327 . S
C1622 C1641 1.429 . S
C1622 H1646 0.950 . S
C1623 C1640 1.574 . S
C1623 C1642 1.368 . S
C1623 H1647 0.949 . S
H1624 C1628 0.949 . S
C1625 C1626 1.349 . S
C1625 C1627 1.327 . S
C1625 H1648 0.950 . S
C1626 C1625 1.349 . S
C1626 C1638 1.349 . S
C1627 C1625 1.327 . S
C1627 C1643 1.429 . S
C1627 H1649 0.950 . S
C1628 H1624 0.949 . S
C1628 C1636 1.574 . S
C1628 C1644 1.368 . S
H1629 C1637 0.950 . S
H1630 C1635 0.950 . S
H1631 C1636 0.949 . S
H1632 C1638 0.950 . S
H1633 C1639 0.950 . S
H1634 C1640 0.949 . S
C1635 H1630 0.950 . S
C1635 C1637 1.327 . S
C1635 C1641 1.429 . S
C1636 C1628 1.574 . S
C1636 H1631 0.949 . S
C1636 C1642 1.368 . S
C1637 C1621 1.349 . S
C1637 H1629 0.950 . S
C1637 C1635 1.327 . S
C1638 C1626 1.349 . S
C1638 H1632 0.950 . S
C1638 C1639 1.327 . S
C1639 H1633 0.950 . S
C1639 C1638 1.327 . S
C1639 C1643 1.429 . S
C1640 C1623 1.574 . S
C1640 H1634 0.949 . S
C1640 C1644 1.368 . S
C1641 C1622 1.429 . S
C1641 C1635 1.429 . S
C1641 C1642 1.523 . S
C1642 C1623 1.368 . S
C1642 C1636 1.368 . S
C1642 C1641 1.523 . S
C1643 C1627 1.429 . S
C1643 C1639 1.429 . S
C1643 C1644 1.523 . S
C1644 C1628 1.368 . S
C1644 C1640 1.368 . S
C1644 C1643 1.523 . S
H1645 C1620 0.950 . S
H1646 C1622 0.950 . S
H1647 C1623 0.949 . S
H1648 C1625 0.950 . S
H1649 C1627 0.950 . S
C1650 C1651 1.349 . S
C1650 C1652 1.327 . S
C1650 H1675 0.950 . S
C1651 C1650 1.349 . S
C1651 C1667 1.349 . S
C1652 C1650 1.327 . S
C1652 C1671 1.429 . S
C1652 H1676 0.950 . S
C1653 C1670 1.574 . S
C1653 C1672 1.368 . S
C1653 H1677 0.949 . S
H1654 C1658 0.949 . S
C1655 C1656 1.349 . S
C1655 C1657 1.327 . S
C1655 H1678 0.950 . S
C1656 C1655 1.349 . S
C1656 C1668 1.349 . S
C1657 C1655 1.327 . S
C1657 C1673 1.429 . S
C1657 H1679 0.950 . S
C1658 H1654 0.949 . S
C1658 C1666 1.574 . S
C1658 C1674 1.368 . S
H1659 C1667 0.950 . S
H1660 C1665 0.950 . S
H1661 C1666 0.949 . S
H1662 C1668 0.950 . S
H1663 C1669 0.950 . S
H1664 C1670 0.949 . S
C1665 H1660 0.950 . S
C1665 C1667 1.327 . S
C1665 C1671 1.429 . S
C1666 C1658 1.574 . S
C1666 H1661 0.949 . S
C1666 C1672 1.368 . S
C1667 C1651 1.349 . S
C1667 H1659 0.950 . S
C1667 C1665 1.327 . S
C1668 C1656 1.349 . S
C1668 H1662 0.950 . S
C1668 C1669 1.327 . S
C1669 H1663 0.950 . S
C1669 C1668 1.327 . S
C1669 C1673 1.429 . S
C1670 C1653 1.574 . S
C1670 H1664 0.949 . S
C1670 C1674 1.368 . S
C1671 C1652 1.429 . S
C1671 C1665 1.429 . S
C1671 C1672 1.523 . S
C1672 C1653 1.368 . S
C1672 C1666 1.368 . S
C1672 C1671 1.523 . S
C1673 C1657 1.429 . S
C1673 C1669 1.429 . S
C1673 C1674 1.523 . S
C1674 C1658 1.368 . S
C1674 C1670 1.368 . S
C1674 C1673 1.523 . S
H1675 C1650 0.950 . S
H1676 C1652 0.950 . S
H1677 C1653 0.949 . S
H1678 C1655 0.950 . S
H1679 C1657 0.950 . S
C1680 C1681 1.349 . S
C1680 C1682 1.327 . S
C1680 H1705 0.950 . S
C1681 C1680 1.349 . S
C1681 C1697 1.349 . S
C1682 C1680 1.327 . S
C1682 C1701 1.429 . S
C1682 H1706 0.950 . S
C1683 C1700 1.574 . S
C1683 C1702 1.368 . S
C1683 H1707 0.949 . S
H1684 C1688 0.949 . S
C1685 C1686 1.349 . S
C1685 C1687 1.327 . S
C1685 H1708 0.950 . S
C1686 C1685 1.349 . S
C1686 C1698 1.349 . S
C1687 C1685 1.327 . S
C1687 C1703 1.429 . S
C1687 H1709 0.950 . S
C1688 H1684 0.949 . S
C1688 C1696 1.574 . S
C1688 C1704 1.368 . S
H1689 C1697 0.950 . S
H1690 C1695 0.950 . S
H1691 C1696 0.949 . S
H1692 C1698 0.950 . S
H1693 C1699 0.950 . S
H1694 C1700 0.949 . S
C1695 H1690 0.950 . S
C1695 C1697 1.327 . S
C1695 C1701 1.429 . S
C1696 C1688 1.574 . S
C1696 H1691 0.949 . S
C1696 C1702 1.368 . S
C1697 C1681 1.349 . S
C1697 H1689 0.950 . S
C1697 C1695 1.327 . S
C1698 C1686 1.349 . S
C1698 H1692 0.950 . S
C1698 C1699 1.327 . S
C1699 H1693 0.950 . S
C1699 C1698 1.327 . S
C1699 C1703 1.429 . S
C1700 C1683 1.574 . S
C1700 H1694 0.949 . S
C1700 C1704 1.368 . S
C1701 C1682 1.429 . S
C1701 C1695 1.429 . S
C1701 C1702 1.523 . S
C1702 C1683 1.368 . S
C1702 C1696 1.368 . S
C1702 C1701 1.523 . S
C1703 C1687 1.429 . S
C1703 C1699 1.429 . S
C1703 C1704 1.523 . S
C1704 C1688 1.368 . S
C1704 C1700 1.368 . S
C1704 C1703 1.523 . S
H1705 C1680 0.950 . S
H1706 C1682 0.950 . S
H1707 C1683 0.949 . S
H1708 C1685 0.950 . S
H1709 C1687 0.950 . S
C1710 C1711 1.349 . S
C1710 C1712 1.327 . S
C1710 H1735 0.950 . S
C1711 C1710 1.349 . S
C1711 C1727 1.349 . S
C1712 C1710 1.327 . S
C1712 C1731 1.429 . S
C1712 H1736 0.950 . S
C1713 C1730 1.574 . S
C1713 C1732 1.368 . S
C1713 H1737 0.949 . S
H1714 C1718 0.949 . S
C1715 C1716 1.349 . S
C1715 C1717 1.327 . S
C1715 H1738 0.950 . S
C1716 C1715 1.349 . S
C1716 C1728 1.349 . S
C1717 C1715 1.327 . S
C1717 C1733 1.429 . S
C1717 H1739 0.950 . S
C1718 H1714 0.949 . S
C1718 C1726 1.574 . S
C1718 C1734 1.368 . S
H1719 C1727 0.950 . S
H1720 C1725 0.950 . S
H1721 C1726 0.949 . S
H1722 C1728 0.950 . S
H1723 C1729 0.950 . S
H1724 C1730 0.949 . S
C1725 H1720 0.950 . S
C1725 C1727 1.327 . S
C1725 C1731 1.429 . S
C1726 C1718 1.574 . S
C1726 H1721 0.949 . S
C1726 C1732 1.368 . S
C1727 C1711 1.349 . S
C1727 H1719 0.950 . S
C1727 C1725 1.327 . S
C1728 C1716 1.349 . S
C1728 H1722 0.950 . S
C1728 C1729 1.327 . S
C1729 H1723 0.950 . S
C1729 C1728 1.327 . S
C1729 C1733 1.429 . S
C1730 C1713 1.574 . S
C1730 H1724 0.949 . S
C1730 C1734 1.368 . S
C1731 C1712 1.429 . S
C1731 C1725 1.429 . S
C1731 C1732 1.523 . S
C1732 C1713 1.368 . S
C1732 C1726 1.368 . S
C1732 C1731 1.523 . S
C1733 C1717 1.429 . S
C1733 C1729 1.429 . S
C1733 C1734 1.523 . S
C1734 C1718 1.368 . S
C1734 C1730 1.368 . S
C1734 C1733 1.523 . S
H1735 C1710 0.950 . S
H1736 C1712 0.950 . S
H1737 C1713 0.949 . S
H1738 C1715 0.950 . S
H1739 C1717 0.950 . S
C1740 C1741 1.349 . S
C1740 C1742 1.327 . S
C1740 H1765 0.950 . S
C1741 C1740 1.349 . S
C1741 C1757 1.349 . S
C1742 C1740 1.327 . S
C1742 C1761 1.429 . S
C1742 H1766 0.950 . S
C1743 C1760 1.574 . S
C1743 C1762 1.368 . S
C1743 H1767 0.949 . S
H1744 C1748 0.949 . S
C1745 C1746 1.349 . S
C1745 C1747 1.327 . S
C1745 H1768 0.950 . S
C1746 C1745 1.349 . S
C1746 C1758 1.349 . S
C1747 C1745 1.327 . S
C1747 C1763 1.429 . S
C1747 H1769 0.950 . S
C1748 H1744 0.949 . S
C1748 C1756 1.574 . S
C1748 C1764 1.368 . S
H1749 C1757 0.950 . S
H1750 C1755 0.950 . S
H1751 C1756 0.949 . S
H1752 C1758 0.950 . S
H1753 C1759 0.950 . S
H1754 C1760 0.949 . S
C1755 H1750 0.950 . S
C1755 C1757 1.327 . S
C1755 C1761 1.429 . S
C1756 C1748 1.574 . S
C1756 H1751 0.949 . S
C1756 C1762 1.368 . S
C1757 C1741 1.349 . S
C1757 H1749 0.950 . S
C1757 C1755 1.327 . S
C1758 C1746 1.349 . S
C1758 H1752 0.950 . S
C1758 C1759 1.327 . S
C1759 H1753 0.950 . S
C1759 C1758 1.327 . S
C1759 C1763 1.429 . S
C1760 C1743 1.574 . S
C1760 H1754 0.949 . S
C1760 C1764 1.368 . S
C1761 C1742 1.429 . S
C1761 C1755 1.429 . S
C1761 C1762 1.523 . S
C1762 C1743 1.368 . S
C1762 C1756 1.368 . S
C1762 C1761 1.523 . S
C1763 C1747 1.429 . S
C1763 C1759 1.429 . S
C1763 C1764 1.523 . S
C1764 C1748 1.368 . S
C1764 C1760 1.368 . S
C1764 C1763 1.523 . S
H1765 C1740 0.950 . S
H1766 C1742 0.950 . S
H1767 C1743 0.949 . S
H1768 C1745 0.950 . S
H1769 C1747 0.950 . S
C1770 C1771 1.349 . S
C1770 C1772 1.327 . S
C1770 H1795 0.950 . S
C1771 C1770 1.349 . S
C1771 C1787 1.349 . S
C1772 C1770 1.327 . S
C1772 C1791 1.429 . S
C1772 H1796 0.950 . S
C1773 C1790 1.574 . S
C1773 C1792 1.368 . S
C1773 H1797 0.949 . S
H1774 C1778 0.949 . S
C1775 C1776 1.349 . S
C1775 C1777 1.327 . S
C1775 H1798 0.950 . S
C1776 C1775 1.349 . S
C1776 C1788 1.349 . S
C1777 C1775 1.327 . S
C1777 C1793 1.429 . S
C1777 H1799 0.950 . S
C1778 H1774 0.949 . S
C1778 C1786 1.574 . S
C1778 C1794 1.368 . S
H1779 C1787 0.950 . S
H1780 C1785 0.950 . S
H1781 C1786 0.949 . S
H1782 C1788 0.950 . S
H1783 C1789 0.950 . S
H1784 C1790 0.949 . S
C1785 H1780 0.950 . S
C1785 C1787 1.327 . S
C1785 C1791 1.429 . S
C1786 C1778 1.574 . S
C1786 H1781 0.949 . S
C1786 C1792 1.368 . S
C1787 C1771 1.349 . S
C1787 H1779 0.950 . S
C1787 C1785 1.327 . S
C1788 C1776 1.349 . S
C1788 H1782 0.950 . S
C1788 C1789 1.327 . S
C1789 H1783 0.950 . S
C1789 C1788 1.327 . S
C1789 C1793 1.429 . S
C1790 C1773 1.574 . S
C1790 H1784 0.949 . S
C1790 C1794 1.368 . S
C1791 C1772 1.429 . S
C1791 C1785 1.429 . S
C1791 C1792 1.523 . S
C1792 C1773 1.368 . S
C1792 C1786 1.368 . S
C1792 C1791 1.523 . S
C1793 C1777 1.429 . S
C1793 C1789 1.429 . S
C1793 C1794 1.523 . S
C1794 C1778 1.368 . S
C1794 C1790 1.368 . S
C1794 C1793 1.523 . S
H1795 C1770 0.950 . S
H1796 C1772 0.950 . S
H1797 C1773 0.949 . S
H1798 C1775 0.950 . S
H1799 C1777 0.950 . S
C1800 C1801 1.349 . S
C1800 C1802 1.327 . S
C1800 H1825 0.950 . S
C1801 C1800 1.349 . S
C1801 C1817 1.349 . S
C1802 C1800 1.327 . S
C1802 C1821 1.429 . S
C1802 H1826 0.950 . S
C1803 C1820 1.574 . S
C1803 C1822 1.368 . S
C1803 H1827 0.949 . S
H1804 C1808 0.949 . S
C1805 C1806 1.349 . S
C1805 C1807 1.327 . S
C1805 H1828 0.950 . S
C1806 C1805 1.349 . S
C1806 C1818 1.349 . S
C1807 C1805 1.327 . S
C1807 C1823 1.429 . S
C1807 H1829 0.950 . S
C1808 H1804 0.949 . S
C1808 C1816 1.574 . S
C1808 C1824 1.368 . S
H1809 C1817 0.950 . S
H1810 C1815 0.950 . S
H1811 C1816 0.949 . S
H1812 C1818 0.950 . S
H1813 C1819 0.950 . S
H1814 C1820 0.949 . S
C1815 H1810 0.950 . S
C1815 C1817 1.327 . S
C1815 C1821 1.429 . S
C1816 C1808 1.574 . S
C1816 H1811 0.949 . S
C1816 C1822 1.368 . S
C1817 C1801 1.349 . S
C1817 H1809 0.950 . S
C1817 C1815 1.327 . S
C1818 C1806 1.349 . S
C1818 H1812 0.950 . S
C1818 C1819 1.327 . S
C1819 H1813 0.950 . S
C1819 C1818 1.327 . S
C1819 C1823 1.429 . S
C1820 C1803 1.574 . S
C1820 H1814 0.949 . S
C1820 C1824 1.368 . S
C1821 C1802 1.429 . S
C1821 C1815 1.429 . S
C1821 C1822 1.523 . S
C1822 C1803 1.368 . S
C1822 C1816 1.368 . S
C1822 C1821 1.523 . S
C1823 C1807 1.429 . S
C1823 C1819 1.429 . S
C1823 C1824 1.523 . S
C1824 C1808 1.368 . S
C1824 C1820 1.368 . S
C1824 C1823 1.523 . S
H1825 C1800 0.950 . S
H1826 C1802 0.950 . S
H1827 C1803 0.949 . S
H1828 C1805 0.950 . S
H1829 C1807 0.950 . S
C1830 C1831 1.349 . S
C1830 C1832 1.327 1_545 S
C1830 H1855 0.950 . S
C1831 C1830 1.349 . S
C1831 C1847 1.349 . S
C1832 C1830 1.327 1_565 S
C1832 C1851 1.429 . S
C1832 H1856 0.950 . S
C1833 C1850 1.574 . S
C1833 C1852 1.368 . S
C1833 H1857 0.952 . S
H1834 C1838 0.949 . S
C1835 C1836 1.349 . S
C1835 C1837 1.327 . S
C1835 H1858 0.950 . S
C1836 C1835 1.349 . S
C1836 C1848 1.349 . S
C1837 C1835 1.327 . S
C1837 C1853 1.429 . S
C1837 H1859 0.950 . S
C1838 H1834 0.949 . S
C1838 C1846 1.574 . S
C1838 C1854 1.368 . S
H1839 C1847 0.950 . S
H1840 C1845 0.950 . S
H1841 C1846 0.949 . S
H1842 C1848 0.950 . S
H1843 C1849 0.950 . S
H1844 C1850 0.949 . S
C1845 H1840 0.950 . S
C1845 C1847 1.327 . S
C1845 C1851 1.429 1_545 S
C1846 C1838 1.574 . S
C1846 H1841 0.949 . S
C1846 C1852 1.368 . S
C1847 C1831 1.349 . S
C1847 H1839 0.950 . S
C1847 C1845 1.327 . S
C1848 C1836 1.349 . S
C1848 H1842 0.950 . S
C1848 C1849 1.327 . S
C1849 H1843 0.950 . S
C1849 C1848 1.327 . S
C1849 C1853 1.429 . S
C1850 C1833 1.574 . S
C1850 H1844 0.949 . S
C1850 C1854 1.368 . S
C1851 C1832 1.429 . S
C1851 C1845 1.429 1_565 S
C1851 C1852 1.523 . S
C1852 C1833 1.368 . S
C1852 C1846 1.368 . S
C1852 C1851 1.523 . S
C1853 C1837 1.429 . S
C1853 C1849 1.429 . S
C1853 C1854 1.523 . S
C1854 C1838 1.368 . S
C1854 C1850 1.368 . S
C1854 C1853 1.523 . S
H1855 C1830 0.950 . S
H1856 C1832 0.950 . S
H1857 C1833 0.952 . S
H1858 C1835 0.950 . S
H1859 C1837 0.950 . S
C1860 C1861 1.349 . S
C1860 C1862 1.327 . S
C1860 H1885 0.950 . S
C1861 C1860 1.349 . S
C1861 C1877 1.349 . S
C1862 C1860 1.327 . S
C1862 C1881 1.429 . S
C1862 H1886 0.950 . S
C1863 C1880 1.574 . S
C1863 C1882 1.368 . S
C1863 H1887 0.949 . S
H1864 C1868 0.949 1_655 S
C1865 C1866 1.349 . S
C1865 C1867 1.327 1_655 S
C1865 H1888 0.971 . S
C1866 C1865 1.349 . S
C1866 C1878 1.349 . S
C1867 C1865 1.327 1_455 S
C1867 C1883 1.429 . S
C1867 H1889 0.950 . S
C1868 H1864 0.949 1_455 S
C1868 C1876 1.574 . S
C1868 C1884 1.368 . S
H1869 C1877 0.950 . S
H1870 C1875 0.950 . S
H1871 C1876 0.949 . S
H1872 C1878 0.950 . S
H1873 C1879 0.950 . S
H1874 C1880 0.949 . S
C1875 H1870 0.950 . S
C1875 C1877 1.327 . S
C1875 C1881 1.429 . S
C1876 C1868 1.574 . S
C1876 H1871 0.949 . S
C1876 C1882 1.368 . S
C1877 C1861 1.349 . S
C1877 H1869 0.950 . S
C1877 C1875 1.327 . S
C1878 C1866 1.349 . S
C1878 H1872 0.950 . S
C1878 C1879 1.327 . S
C1879 H1873 0.950 . S
C1879 C1878 1.327 . S
C1879 C1883 1.429 1_655 S
C1880 C1863 1.574 . S
C1880 H1874 0.949 . S
C1880 C1884 1.368 . S
C1881 C1862 1.429 . S
C1881 C1875 1.429 . S
C1881 C1882 1.523 . S
C1882 C1863 1.368 . S
C1882 C1876 1.368 . S
C1882 C1881 1.523 . S
C1883 C1867 1.429 . S
C1883 C1879 1.429 1_455 S
C1883 C1884 1.523 . S
C1884 C1868 1.368 . S
C1884 C1880 1.368 . S
C1884 C1883 1.523 . S
H1885 C1860 0.950 . S
H1886 C1862 0.950 . S
H1887 C1863 0.949 . S
H1888 C1865 0.971 . S
H1889 C1867 0.950 . S
C1890 C1891 1.349 . S
C1890 C1892 1.327 . S
C1890 H1915 0.950 . S
C1891 C1890 1.349 . S
C1891 C1907 1.349 . S
C1892 C1890 1.327 . S
C1892 C1911 1.429 . S
C1892 H1916 0.950 . S
C1893 C1910 1.574 . S
C1893 C1912 1.368 . S
C1893 H1917 0.949 . S
H1894 C1898 0.949 . S
C1895 C1896 1.349 . S
C1895 C1897 1.327 . S
C1895 H1918 0.950 . S
C1896 C1895 1.349 . S
C1896 C1908 1.349 . S
C1897 C1895 1.327 . S
C1897 C1913 1.429 . S
C1897 H1919 0.950 . S
C1898 H1894 0.949 . S
C1898 C1906 1.574 . S
C1898 C1914 1.368 . S
H1899 C1907 0.950 . S
H1900 C1905 0.950 . S
H1901 C1906 0.949 . S
H1902 C1908 0.950 . S
H1903 C1909 0.950 . S
H1904 C1910 0.949 . S
C1905 H1900 0.950 . S
C1905 C1907 1.327 . S
C1905 C1911 1.429 . S
C1906 C1898 1.574 . S
C1906 H1901 0.949 . S
C1906 C1912 1.368 . S
C1907 C1891 1.349 . S
C1907 H1899 0.950 . S
C1907 C1905 1.327 . S
C1908 C1896 1.349 . S
C1908 H1902 0.950 . S
C1908 C1909 1.327 . S
C1909 H1903 0.950 . S
C1909 C1908 1.327 . S
C1909 C1913 1.429 . S
C1910 C1893 1.574 . S
C1910 H1904 0.949 . S
C1910 C1914 1.368 . S
C1911 C1892 1.429 . S
C1911 C1905 1.429 . S
C1911 C1912 1.523 . S
C1912 C1893 1.368 . S
C1912 C1906 1.368 . S
C1912 C1911 1.523 . S
C1913 C1897 1.429 . S
C1913 C1909 1.429 . S
C1913 C1914 1.523 . S
C1914 C1898 1.368 . S
C1914 C1910 1.368 . S
C1914 C1913 1.523 . S
H1915 C1890 0.950 . S
H1916 C1892 0.950 . S
H1917 C1893 0.949 . S
H1918 C1895 0.950 . S
H1919 C1897 0.950 . S
C1920 C1921 1.349 . S
C1920 C1922 1.327 1_565 S
C1920 H1945 0.950 . S
C1921 C1920 1.349 . S
C1921 C1937 1.349 . S
C1922 C1920 1.327 1_545 S
C1922 C1941 1.429 . S
C1922 H1946 0.950 . S
C1923 C1940 1.574 . S
C1923 C1942 1.368 . S
C1923 H1947 0.949 . S
H1924 C1928 0.949 . S
C1925 C1926 1.349 . S
C1925 C1927 1.327 . S
C1925 H1948 0.950 . S
C1926 C1925 1.349 . S
C1926 C1938 1.349 . S
C1927 C1925 1.327 . S
C1927 C1943 1.429 . S
C1927 H1949 0.950 . S
C1928 H1924 0.949 . S
C1928 C1936 1.574 . S
C1928 C1944 1.368 . S
H1929 C1937 0.950 . S
H1930 C1935 0.950 . S
H1931 C1936 0.949 . S
H1932 C1938 0.950 . S
H1933 C1939 0.950 . S
H1934 C1940 0.949 . S
C1935 H1930 0.950 . S
C1935 C1937 1.327 . S
C1935 C1941 1.429 1_565 S
C1936 C1928 1.574 . S
C1936 H1931 0.949 . S
C1936 C1942 1.368 . S
C1937 C1921 1.349 . S
C1937 H1929 0.950 . S
C1937 C1935 1.327 . S
C1938 C1926 1.349 . S
C1938 H1932 0.950 . S
C1938 C1939 1.327 . S
C1939 H1933 0.950 . S
C1939 C1938 1.327 . S
C1939 C1943 1.429 . S
C1940 C1923 1.574 . S
C1940 H1934 0.949 . S
C1940 C1944 1.368 . S
C1941 C1922 1.429 . S
C1941 C1935 1.429 1_545 S
C1941 C1942 1.523 . S
C1942 C1923 1.368 . S
C1942 C1936 1.368 . S
C1942 C1941 1.523 . S
C1943 C1927 1.429 . S
C1943 C1939 1.429 . S
C1943 C1944 1.523 . S
C1944 C1928 1.368 . S
C1944 C1940 1.368 . S
C1944 C1943 1.523 . S
H1945 C1920 0.950 . S
H1946 C1922 0.950 . S
H1947 C1923 0.949 . S
H1948 C1925 0.950 . S
H1949 C1927 0.950 . S
C1950 C1951 1.349 . S
C1950 C1952 1.327 . S
C1950 H1975 0.950 . S
C1951 C1950 1.349 . S
C1951 C1967 1.349 . S
C1952 C1950 1.327 . S
C1952 C1971 1.429 . S
C1952 H1976 0.950 . S
C1953 C1970 1.574 . S
C1953 C1972 1.368 . S
C1953 H1977 0.949 . S
H1954 C1958 0.949 1_455 S
C1955 C1956 1.349 . S
C1955 C1957 1.327 1_455 S
C1955 H1978 0.950 1_455 S
C1956 C1955 1.349 . S
C1956 C1968 1.349 . S
C1957 C1955 1.327 1_655 S
C1957 C1973 1.429 . S
C1957 H1979 0.950 . S
C1958 H1954 0.949 1_655 S
C1958 C1966 1.574 . S
C1958 C1974 1.368 . S
H1959 C1967 0.950 . S
H1960 C1965 0.950 . S
H1961 C1966 0.949 . S
H1962 C1968 0.950 . S
H1963 C1969 0.950 . S
H1964 C1970 0.949 . S
C1965 H1960 0.950 . S
C1965 C1967 1.327 . S
C1965 C1971 1.429 . S
C1966 C1958 1.574 . S
C1966 H1961 0.949 . S
C1966 C1972 1.368 . S
C1967 C1951 1.349 . S
C1967 H1959 0.950 . S
C1967 C1965 1.327 . S
C1968 C1956 1.349 . S
C1968 H1962 0.950 . S
C1968 C1969 1.327 . S
C1969 H1963 0.950 . S
C1969 C1968 1.327 . S
C1969 C1973 1.429 1_455 S
C1970 C1953 1.574 . S
C1970 H1964 0.949 . S
C1970 C1974 1.368 . S
C1971 C1952 1.429 . S
C1971 C1965 1.429 . S
C1971 C1972 1.523 . S
C1972 C1953 1.368 . S
C1972 C1966 1.368 . S
C1972 C1971 1.523 . S
C1973 C1957 1.429 . S
C1973 C1969 1.429 1_655 S
C1973 C1974 1.523 . S
C1974 C1958 1.368 . S
C1974 C1970 1.368 . S
C1974 C1973 1.523 . S
H1975 C1950 0.950 . S
H1976 C1952 0.950 . S
H1977 C1953 0.949 . S
H1978 C1955 0.950 1_655 S
H1979 C1957 0.950 . S
C1980 C1981 1.349 . S
C1980 C1982 1.327 . S
C1980 H2005 0.950 . S
C1981 C1980 1.349 . S
C1981 C1997 1.349 . S
C1982 C1980 1.327 . S
C1982 C2001 1.429 . S
C1982 H2006 0.950 . S
C1983 C2000 1.574 . S
C1983 C2002 1.368 . S
C1983 H2007 0.949 . S
H1984 C1988 0.949 . S
C1985 C1986 1.349 . S
C1985 C1987 1.327 . S
C1985 H2008 0.950 . S
C1986 C1985 1.349 . S
C1986 C1998 1.349 . S
C1987 C1985 1.327 . S
C1987 C2003 1.429 . S
C1987 H2009 0.950 . S
C1988 H1984 0.949 . S
C1988 C1996 1.574 . S
C1988 C2004 1.368 . S
H1989 C1997 0.950 . S
H1990 C1995 0.950 . S
H1991 C1996 0.949 . S
H1992 C1998 0.950 . S
H1993 C1999 0.950 . S
H1994 C2000 0.949 . S
C1995 H1990 0.950 . S
C1995 C1997 1.327 . S
C1995 C2001 1.429 . S
C1996 C1988 1.574 . S
C1996 H1991 0.949 . S
C1996 C2002 1.368 . S
C1997 C1981 1.349 . S
C1997 H1989 0.950 . S
C1997 C1995 1.327 . S
C1998 C1986 1.349 . S
C1998 H1992 0.950 . S
C1998 C1999 1.327 . S
C1999 H1993 0.950 . S
C1999 C1998 1.327 . S
C1999 C2003 1.429 . S
C2000 C1983 1.574 . S
C2000 H1994 0.949 . S
C2000 C2004 1.368 . S
C2001 C1982 1.429 . S
C2001 C1995 1.429 . S
C2001 C2002 1.523 . S
C2002 C1983 1.368 . S
C2002 C1996 1.368 . S
C2002 C2001 1.523 . S
C2003 C1987 1.429 . S
C2003 C1999 1.429 . S
C2003 C2004 1.523 . S
C2004 C1988 1.368 . S
C2004 C2000 1.368 . S
C2004 C2003 1.523 . S
H2005 C1980 0.950 . S
H2006 C1982 0.950 . S
H2007 C1983 0.949 . S
H2008 C1985 0.950 . S
H2009 C1987 0.950 . S
C2010 C2011 1.349 . S
C2010 C2012 1.327 . S
C2010 H2035 0.950 . S
C2011 C2010 1.349 . S
C2011 C2027 1.349 . S
C2012 C2010 1.327 . S
C2012 C2031 1.429 . S
C2012 H2036 0.950 . S
C2013 C2030 1.574 . S
C2013 C2032 1.368 . S
C2013 H2037 0.949 . S
H2014 C2018 0.949 . S
C2015 C2016 1.349 . S
C2015 C2017 1.327 1_565 S
C2015 H2038 0.950 . S
C2016 C2015 1.349 . S
C2016 C2028 1.349 . S
C2017 C2015 1.327 1_545 S
C2017 C2033 1.429 . S
C2017 H2039 0.950 . S
C2018 H2014 0.949 . S
C2018 C2026 1.574 . S
C2018 C2034 1.368 . S
H2019 C2027 0.950 . S
H2020 C2025 0.950 . S
H2021 C2026 0.949 . S
H2022 C2028 0.950 . S
H2023 C2029 0.950 . S
H2024 C2030 0.949 . S
C2025 H2020 0.950 . S
C2025 C2027 1.327 . S
C2025 C2031 1.429 . S
C2026 C2018 1.574 . S
C2026 H2021 0.949 . S
C2026 C2032 1.368 . S
C2027 C2011 1.349 . S
C2027 H2019 0.950 . S
C2027 C2025 1.327 . S
C2028 C2016 1.349 . S
C2028 H2022 0.950 . S
C2028 C2029 1.327 . S
C2029 H2023 0.950 . S
C2029 C2028 1.327 . S
C2029 C2033 1.429 1_565 S
C2030 C2013 1.574 . S
C2030 H2024 0.949 . S
C2030 C2034 1.368 . S
C2031 C2012 1.429 . S
C2031 C2025 1.429 . S
C2031 C2032 1.523 . S
C2032 C2013 1.368 . S
C2032 C2026 1.368 . S
C2032 C2031 1.523 . S
C2033 C2017 1.429 . S
C2033 C2029 1.429 1_545 S
C2033 C2034 1.523 . S
C2034 C2018 1.368 . S
C2034 C2030 1.368 . S
C2034 C2033 1.523 . S
H2035 C2010 0.950 . S
H2036 C2012 0.950 . S
H2037 C2013 0.949 . S
H2038 C2015 0.950 . S
H2039 C2017 0.950 . S
C2040 C2041 1.349 . S
C2040 C2042 1.327 . S
C2040 H2065 0.950 . S
C2041 C2040 1.349 . S
C2041 C2057 1.349 . S
C2042 C2040 1.327 . S
C2042 C2061 1.429 . S
C2042 H2066 0.950 . S
C2043 C2060 1.574 . S
C2043 C2062 1.368 . S
C2043 H2067 0.949 . S
H2044 C2048 0.949 . S
C2045 C2046 1.349 . S
C2045 C2047 1.327 . S
C2045 H2068 0.950 . S
C2046 C2045 1.349 . S
C2046 C2058 1.349 . S
C2047 C2045 1.327 . S
C2047 C2063 1.429 1_455 S
C2047 H2069 0.950 . S
C2048 H2044 0.949 . S
C2048 C2056 1.574 . S
C2048 C2064 1.368 . S
H2049 C2057 0.950 . S
H2050 C2055 0.950 . S
H2051 C2056 0.949 . S
H2052 C2058 0.950 . S
H2053 C2059 0.950 . S
H2054 C2060 0.949 . S
C2055 H2050 0.950 . S
C2055 C2057 1.327 . S
C2055 C2061 1.429 . S
C2056 C2048 1.574 . S
C2056 H2051 0.949 . S
C2056 C2062 1.368 . S
C2057 C2041 1.349 . S
C2057 H2049 0.950 . S
C2057 C2055 1.327 . S
C2058 C2046 1.349 . S
C2058 H2052 0.950 . S
C2058 C2059 1.327 1_455 S
C2059 H2053 0.950 . S
C2059 C2058 1.327 1_655 S
C2059 C2063 1.429 . S
C2060 C2043 1.574 . S
C2060 H2054 0.949 . S
C2060 C2064 1.368 . S
C2061 C2042 1.429 . S
C2061 C2055 1.429 . S
C2061 C2062 1.523 . S
C2062 C2043 1.368 . S
C2062 C2056 1.368 . S
C2062 C2061 1.523 . S
C2063 C2047 1.429 1_655 S
C2063 C2059 1.429 . S
C2063 C2064 1.523 . S
C2064 C2048 1.368 . S
C2064 C2060 1.368 . S
C2064 C2063 1.523 . S
H2065 C2040 0.950 . S
H2066 C2042 0.950 . S
H2067 C2043 0.949 . S
H2068 C2045 0.950 . S
H2069 C2047 0.950 . S
C2070 C2071 1.349 . S
C2070 C2072 1.327 . S
C2070 H2095 0.950 . S
C2071 C2070 1.349 . S
C2071 C2087 1.349 . S
C2072 C2070 1.327 . S
C2072 C2091 1.429 . S
C2072 H2096 0.950 . S
C2073 C2090 1.574 . S
C2073 C2092 1.368 . S
C2073 H2097 0.949 . S
H2074 C2078 0.949 . S
C2075 C2076 1.349 . S
C2075 C2077 1.327 . S
C2075 H2098 0.950 . S
C2076 C2075 1.349 . S
C2076 C2088 1.349 . S
C2077 C2075 1.327 . S
C2077 C2093 1.429 . S
C2077 H2099 0.950 . S
C2078 H2074 0.949 . S
C2078 C2086 1.574 . S
C2078 C2094 1.368 . S
H2079 C2087 0.950 . S
H2080 C2085 0.950 . S
H2081 C2086 0.949 . S
H2082 C2088 0.950 . S
H2083 C2089 0.950 . S
H2084 C2090 0.949 . S
C2085 H2080 0.950 . S
C2085 C2087 1.327 . S
C2085 C2091 1.429 . S
C2086 C2078 1.574 . S
C2086 H2081 0.949 . S
C2086 C2092 1.368 . S
C2087 C2071 1.349 . S
C2087 H2079 0.950 . S
C2087 C2085 1.327 . S
C2088 C2076 1.349 . S
C2088 H2082 0.950 . S
C2088 C2089 1.327 . S
C2089 H2083 0.950 . S
C2089 C2088 1.327 . S
C2089 C2093 1.429 . S
C2090 C2073 1.574 . S
C2090 H2084 0.949 . S
C2090 C2094 1.368 . S
C2091 C2072 1.429 . S
C2091 C2085 1.429 . S
C2091 C2092 1.523 . S
C2092 C2073 1.368 . S
C2092 C2086 1.368 . S
C2092 C2091 1.523 . S
C2093 C2077 1.429 . S
C2093 C2089 1.429 . S
C2093 C2094 1.523 . S
C2094 C2078 1.368 . S
C2094 C2090 1.368 . S
C2094 C2093 1.523 . S
H2095 C2070 0.950 . S
H2096 C2072 0.950 . S
H2097 C2073 0.949 . S
H2098 C2075 0.950 . S
H2099 C2077 0.950 . S
C2100 C2101 1.349 . S
C2100 C2102 1.327 1_545 S
C2100 H2125 0.950 . S
C2101 C2100 1.349 . S
C2101 C2117 1.349 . S
C2102 C2100 1.327 1_565 S
C2102 C2121 1.429 . S
C2102 H2126 0.950 . S
C2103 C2120 1.574 . S
C2103 C2122 1.368 . S
C2103 H2127 0.949 . S
H2104 C2108 0.949 . S
C2105 C2106 1.349 . S
C2105 C2107 1.327 . S
C2105 H2128 0.950 . S
C2106 C2105 1.349 . S
C2106 C2118 1.349 . S
C2107 C2105 1.327 . S
C2107 C2123 1.429 . S
C2107 H2129 0.950 . S
C2108 H2104 0.949 . S
C2108 C2116 1.574 . S
C2108 C2124 1.368 . S
H2109 C2117 0.950 . S
H2110 C2115 0.950 . S
H2111 C2116 0.949 . S
H2112 C2118 0.950 . S
H2113 C2119 0.950 . S
H2114 C2120 0.949 . S
C2115 H2110 0.950 . S
C2115 C2117 1.327 . S
C2115 C2121 1.429 1_545 S
C2116 C2108 1.574 . S
C2116 H2111 0.949 . S
C2116 C2122 1.368 . S
C2117 C2101 1.349 . S
C2117 H2109 0.950 . S
C2117 C2115 1.327 . S
C2118 C2106 1.349 . S
C2118 H2112 0.950 . S
C2118 C2119 1.327 . S
C2119 H2113 0.950 . S
C2119 C2118 1.327 . S
C2119 C2123 1.429 . S
C2120 C2103 1.574 . S
C2120 H2114 0.949 . S
C2120 C2124 1.368 . S
C2121 C2102 1.429 . S
C2121 C2115 1.429 1_565 S
C2121 C2122 1.523 . S
C2122 C2103 1.368 . S
C2122 C2116 1.368 . S
C2122 C2121 1.523 . S
C2123 C2107 1.429 . S
C2123 C2119 1.429 . S
C2123 C2124 1.523 . S
C2124 C2108 1.368 . S
C2124 C2120 1.368 . S
C2124 C2123 1.523 . S
H2125 C2100 0.950 . S
H2126 C2102 0.950 . S
H2127 C2103 0.949 . S
H2128 C2105 0.950 . S
H2129 C2107 0.950 . S
C2130 C2131 1.349 . S
C2130 C2132 1.327 1_655 S
C2130 H2155 0.950 . S
C2131 C2130 1.349 . S
C2131 C2147 1.349 . S
C2132 C2130 1.327 1_455 S
C2132 C2151 1.429 . S
C2132 H2156 0.950 . S
C2133 C2150 1.574 . S
C2133 C2152 1.368 . S
C2133 H2157 0.949 . S
H2134 C2138 0.949 . S
C2135 C2136 1.349 . S
C2135 C2137 1.327 . S
C2135 H2158 0.950 . S
C2136 C2135 1.349 . S
C2136 C2148 1.349 . S
C2137 C2135 1.327 . S
C2137 C2153 1.429 . S
C2137 H2159 0.950 . S
C2138 H2134 0.949 . S
C2138 C2146 1.574 . S
C2138 C2154 1.368 . S
H2139 C2147 0.950 . S
H2140 C2145 0.950 . S
H2141 C2146 0.949 . S
H2142 C2148 0.950 . S
H2143 C2149 0.950 . S
H2144 C2150 0.949 . S
C2145 H2140 0.950 . S
C2145 C2147 1.327 . S
C2145 C2151 1.429 1_655 S
C2146 C2138 1.574 . S
C2146 H2141 0.949 . S
C2146 C2152 1.368 . S
C2147 C2131 1.349 . S
C2147 H2139 0.950 . S
C2147 C2145 1.327 . S
C2148 C2136 1.349 . S
C2148 H2142 0.950 . S
C2148 C2149 1.327 . S
C2149 H2143 0.950 . S
C2149 C2148 1.327 . S
C2149 C2153 1.429 . S
C2150 C2133 1.574 . S
C2150 H2144 0.949 . S
C2150 C2154 1.368 . S
C2151 C2132 1.429 . S
C2151 C2145 1.429 1_455 S
C2151 C2152 1.523 . S
C2152 C2133 1.368 . S
C2152 C2146 1.368 . S
C2152 C2151 1.523 . S
C2153 C2137 1.429 . S
C2153 C2149 1.429 . S
C2153 C2154 1.523 . S
C2154 C2138 1.368 . S
C2154 C2150 1.368 . S
C2154 C2153 1.523 . S
H2155 C2130 0.950 . S
H2156 C2132 0.950 . S
H2157 C2133 0.949 . S
H2158 C2135 0.950 . S
H2159 C2137 0.950 . S
C2160 C2161 1.349 . S
C2160 C2162 1.327 . S
C2160 H2185 0.950 . S
C2161 C2160 1.349 . S
C2161 C2177 1.349 . S
C2162 C2160 1.327 . S
C2162 C2181 1.429 . S
C2162 H2186 0.950 . S
C2163 C2180 1.574 1_655 S
C2163 C2182 1.368 . S
C2163 H2187 0.949 . S
H2164 C2168 0.949 . S
C2165 C2166 1.349 . S
C2165 C2167 1.327 . S
C2165 H2188 0.950 . S
C2166 C2165 1.349 . S
C2166 C2178 1.349 . S
C2167 C2165 1.327 . S
C2167 C2183 1.429 . S
C2167 H2189 0.950 . S
C2168 H2164 0.949 . S
C2168 C2176 1.574 1_455 S
C2168 C2184 1.368 . S
H2169 C2177 0.950 . S
H2170 C2175 0.950 . S
H2171 C2176 0.949 . S
H2172 C2178 0.950 . S
H2173 C2179 0.950 . S
H2174 C2180 0.949 . S
C2175 H2170 0.950 . S
C2175 C2177 1.327 . S
C2175 C2181 1.429 . S
C2176 C2168 1.574 1_655 S
C2176 H2171 0.949 . S
C2176 C2182 1.368 . S
C2177 C2161 1.349 . S
C2177 H2169 0.950 . S
C2177 C2175 1.327 . S
C2178 C2166 1.349 . S
C2178 H2172 0.950 . S
C2178 C2179 1.327 . S
C2179 H2173 0.950 . S
C2179 C2178 1.327 . S
C2179 C2183 1.429 . S
C2180 C2163 1.574 1_455 S
C2180 H2174 0.949 . S
C2180 C2184 1.368 . S
C2181 C2162 1.429 . S
C2181 C2175 1.429 . S
C2181 C2182 1.523 . S
C2182 C2163 1.368 . S
C2182 C2176 1.368 . S
C2182 C2181 1.523 . S
C2183 C2167 1.429 . S
C2183 C2179 1.429 . S
C2183 C2184 1.523 . S
C2184 C2168 1.368 . S
C2184 C2180 1.368 . S
C2184 C2183 1.523 . S
H2185 C2160 0.950 . S
H2186 C2162 0.950 . S
H2187 C2163 0.949 . S
H2188 C2165 0.950 . S
H2189 C2167 0.950 . S
C2190 C2191 1.349 . S
C2190 C2192 1.327 . S
C2190 H2215 0.950 . S
C2191 C2190 1.349 . S
C2191 C2207 1.349 . S
C2192 C2190 1.327 . S
C2192 C2211 1.429 . S
C2192 H2216 0.950 . S
C2193 C2210 1.574 . S
C2193 C2212 1.368 . S
C2193 H2217 0.949 . S
H2194 C2198 0.949 . S
C2195 C2196 1.349 . S
C2195 C2197 1.327 . S
C2195 H2218 0.950 . S
C2196 C2195 1.349 . S
C2196 C2208 1.349 . S
C2197 C2195 1.327 . S
C2197 C2213 1.429 . S
C2197 H2219 0.950 . S
C2198 H2194 0.949 . S
C2198 C2206 1.574 . S
C2198 C2214 1.368 . S
H2199 C2207 0.950 . S
H2200 C2205 0.950 . S
H2201 C2206 0.949 . S
H2202 C2208 0.950 . S
H2203 C2209 0.950 . S
H2204 C2210 0.949 . S
C2205 H2200 0.950 . S
C2205 C2207 1.327 . S
C2205 C2211 1.429 . S
C2206 C2198 1.574 . S
C2206 H2201 0.949 . S
C2206 C2212 1.368 . S
C2207 C2191 1.349 . S
C2207 H2199 0.950 . S
C2207 C2205 1.327 . S
C2208 C2196 1.349 . S
C2208 H2202 0.950 . S
C2208 C2209 1.327 . S
C2209 H2203 0.950 . S
C2209 C2208 1.327 . S
C2209 C2213 1.429 . S
C2210 C2193 1.574 . S
C2210 H2204 0.949 . S
C2210 C2214 1.368 . S
C2211 C2192 1.429 . S
C2211 C2205 1.429 . S
C2211 C2212 1.523 . S
C2212 C2193 1.368 . S
C2212 C2206 1.368 . S
C2212 C2211 1.523 . S
C2213 C2197 1.429 . S
C2213 C2209 1.429 . S
C2213 C2214 1.523 . S
C2214 C2198 1.368 . S
C2214 C2210 1.368 . S
C2214 C2213 1.523 . S
H2215 C2190 0.950 . S
H2216 C2192 0.950 . S
H2217 C2193 0.949 . S
H2218 C2195 0.950 . S
H2219 C2197 0.950 . S
C2220 C2221 1.349 . S
C2220 C2222 1.327 . S
C2220 H2245 0.950 . S
C2221 C2220 1.349 . S
C2221 C2237 1.349 . S
C2222 C2220 1.327 . S
C2222 C2241 1.429 . S
C2222 H2246 0.950 . S
C2223 C2240 1.574 1_565 S
C2223 C2242 1.368 . S
C2223 H2247 0.949 . S
H2224 C2228 0.949 . S
C2225 C2226 1.349 . S
C2225 C2227 1.327 . S
C2225 H2248 0.950 . S
C2226 C2225 1.349 . S
C2226 C2238 1.349 . S
C2227 C2225 1.327 . S
C2227 C2243 1.429 . S
C2227 H2249 0.950 . S
C2228 H2224 0.949 . S
C2228 C2236 1.574 1_545 S
C2228 C2244 1.368 . S
H2229 C2237 0.950 . S
H2230 C2235 0.950 . S
H2231 C2236 0.949 . S
H2232 C2238 0.950 . S
H2233 C2239 0.950 . S
H2234 C2240 0.949 . S
C2235 H2230 0.950 . S
C2235 C2237 1.327 . S
C2235 C2241 1.429 . S
C2236 C2228 1.574 1_565 S
C2236 H2231 0.949 . S
C2236 C2242 1.368 . S
C2237 C2221 1.349 . S
C2237 H2229 0.950 . S
C2237 C2235 1.327 . S
C2238 C2226 1.349 . S
C2238 H2232 0.950 . S
C2238 C2239 1.327 . S
C2239 H2233 0.950 . S
C2239 C2238 1.327 . S
C2239 C2243 1.429 . S
C2240 C2223 1.574 1_545 S
C2240 H2234 0.949 . S
C2240 C2244 1.368 . S
C2241 C2222 1.429 . S
C2241 C2235 1.429 . S
C2241 C2242 1.523 . S
C2242 C2223 1.368 . S
C2242 C2236 1.368 . S
C2242 C2241 1.523 . S
C2243 C2227 1.429 . S
C2243 C2239 1.429 . S
C2243 C2244 1.523 . S
C2244 C2228 1.368 . S
C2244 C2240 1.368 . S
C2244 C2243 1.523 . S
H2245 C2220 0.950 . S
H2246 C2222 0.950 . S
H2247 C2223 0.949 . S
H2248 C2225 0.950 . S
H2249 C2227 0.950 . S
C2250 C2251 1.349 . S
C2250 C2252 1.327 . S
C2250 H2275 0.950 . S
C2251 C2250 1.349 . S
C2251 C2267 1.349 . S
C2252 C2250 1.327 . S
C2252 C2271 1.429 . S
C2252 H2276 0.950 . S
C2253 C2270 1.574 . S
C2253 C2272 1.368 . S
C2253 H2277 0.949 . S
H2254 C2258 0.949 . S
C2255 C2256 1.349 . S
C2255 C2257 1.327 . S
C2255 H2278 0.950 . S
C2256 C2255 1.349 . S
C2256 C2268 1.349 . S
C2257 C2255 1.327 . S
C2257 C2273 1.429 1_655 S
C2257 H2279 0.950 . S
C2258 H2254 0.949 . S
C2258 C2266 1.574 . S
C2258 C2274 1.368 . S
H2259 C2267 0.950 . S
H2260 C2265 0.950 . S
H2261 C2266 0.949 . S
H2262 C2268 0.950 1_455 S
H2263 C2269 0.950 . S
H2264 C2270 0.949 . S
C2265 H2260 0.950 . S
C2265 C2267 1.327 . S
C2265 C2271 1.429 . S
C2266 C2258 1.574 . S
C2266 H2261 0.949 . S
C2266 C2272 1.368 . S
C2267 C2251 1.349 . S
C2267 H2259 0.950 . S
C2267 C2265 1.327 . S
C2268 C2256 1.349 . S
C2268 H2262 0.950 1_655 S
C2268 C2269 1.327 1_655 S
C2269 H2263 0.950 . S
C2269 C2268 1.327 1_455 S
C2269 C2273 1.429 . S
C2270 C2253 1.574 . S
C2270 H2264 0.949 . S
C2270 C2274 1.368 . S
C2271 C2252 1.429 . S
C2271 C2265 1.429 . S
C2271 C2272 1.523 . S
C2272 C2253 1.368 . S
C2272 C2266 1.368 . S
C2272 C2271 1.523 . S
C2273 C2257 1.429 1_455 S
C2273 C2269 1.429 . S
C2273 C2274 1.523 . S
C2274 C2258 1.368 . S
C2274 C2270 1.368 . S
C2274 C2273 1.523 . S
H2275 C2250 0.950 . S
H2276 C2252 0.950 . S
H2277 C2253 0.949 . S
H2278 C2255 0.950 . S
H2279 C2257 0.950 . S
C2280 C2281 1.349 . S
C2280 C2282 1.327 . S
C2280 H2305 0.950 . S
C2281 C2280 1.349 . S
C2281 C2297 1.349 . S
C2282 C2280 1.327 . S
C2282 C2301 1.429 . S
C2282 H2306 0.950 . S
C2283 C2300 1.574 . S
C2283 C2302 1.368 . S
C2283 H2307 0.949 . S
H2284 C2288 0.949 . S
C2285 C2286 1.349 . S
C2285 C2287 1.327 . S
C2285 H2308 0.950 . S
C2286 C2285 1.349 . S
C2286 C2298 1.349 . S
C2287 C2285 1.327 . S
C2287 C2303 1.429 . S
C2287 H2309 0.950 . S
C2288 H2284 0.949 . S
C2288 C2296 1.574 . S
C2288 C2304 1.368 . S
H2289 C2297 0.950 . S
H2290 C2295 0.950 . S
H2291 C2296 0.949 . S
H2292 C2298 0.950 . S
H2293 C2299 0.950 . S
H2294 C2300 0.949 . S
C2295 H2290 0.950 . S
C2295 C2297 1.327 . S
C2295 C2301 1.429 . S
C2296 C2288 1.574 . S
C2296 H2291 0.949 . S
C2296 C2302 1.368 . S
C2297 C2281 1.349 . S
C2297 H2289 0.950 . S
C2297 C2295 1.327 . S
C2298 C2286 1.349 . S
C2298 H2292 0.950 . S
C2298 C2299 1.327 . S
C2299 H2293 0.950 . S
C2299 C2298 1.327 . S
C2299 C2303 1.429 . S
C2300 C2283 1.574 . S
C2300 H2294 0.949 . S
C2300 C2304 1.368 . S
C2301 C2282 1.429 . S
C2301 C2295 1.429 . S
C2301 C2302 1.523 . S
C2302 C2283 1.368 . S
C2302 C2296 1.368 . S
C2302 C2301 1.523 . S
C2303 C2287 1.429 . S
C2303 C2299 1.429 . S
C2303 C2304 1.523 . S
C2304 C2288 1.368 . S
C2304 C2300 1.368 . S
C2304 C2303 1.523 . S
H2305 C2280 0.950 . S
H2306 C2282 0.950 . S
H2307 C2283 0.949 . S
H2308 C2285 0.950 . S
H2309 C2287 0.950 . S
C2310 C2311 1.349 . S
C2310 C2312 1.327 . S
C2310 H2335 0.950 . S
C2311 C2310 1.349 . S
C2311 C2327 1.349 . S
C2312 C2310 1.327 . S
C2312 C2331 1.429 . S
C2312 H2336 0.950 . S
C2313 C2330 1.574 . S
C2313 C2332 1.368 . S
C2313 H2337 0.949 . S
H2314 C2318 0.949 1_545 S
C2315 C2316 1.349 1_565 S
C2315 C2317 1.327 . S
C2315 H2338 0.950 . S
C2316 C2315 1.349 1_545 S
C2316 C2328 1.349 . S
C2317 C2315 1.327 . S
C2317 C2333 1.429 . S
C2317 H2339 0.950 . S
C2318 H2314 0.949 1_565 S
C2318 C2326 1.574 . S
C2318 C2334 1.368 . S
H2319 C2327 0.950 . S
H2320 C2325 0.950 . S
H2321 C2326 0.949 . S
H2322 C2328 0.950 . S
H2323 C2329 0.950 . S
H2324 C2330 0.949 . S
C2325 H2320 0.950 . S
C2325 C2327 1.327 . S
C2325 C2331 1.429 . S
C2326 C2318 1.574 . S
C2326 H2321 0.949 . S
C2326 C2332 1.368 . S
C2327 C2311 1.349 . S
C2327 H2319 0.950 . S
C2327 C2325 1.327 . S
C2328 C2316 1.349 . S
C2328 H2322 0.950 . S
C2328 C2329 1.327 . S
C2329 H2323 0.950 . S
C2329 C2328 1.327 . S
C2329 C2333 1.429 1_545 S
C2330 C2313 1.574 . S
C2330 H2324 0.949 . S
C2330 C2334 1.368 . S
C2331 C2312 1.429 . S
C2331 C2325 1.429 . S
C2331 C2332 1.523 . S
C2332 C2313 1.368 . S
C2332 C2326 1.368 . S
C2332 C2331 1.523 . S
C2333 C2317 1.429 . S
C2333 C2329 1.429 1_565 S
C2333 C2334 1.523 . S
C2334 C2318 1.368 . S
C2334 C2330 1.368 . S
C2334 C2333 1.523 . S
H2335 C2310 0.950 . S
H2336 C2312 0.950 . S
H2337 C2313 0.949 . S
H2338 C2315 0.950 . S
H2339 C2317 0.950 . S
C2340 C2341 1.349 . S
C2340 C2342 1.327 . S
C2340 H2365 0.950 . S
C2341 C2340 1.349 . S
C2341 C2357 1.349 . S
C2342 C2340 1.327 . S
C2342 C2361 1.429 . S
C2342 H2366 0.950 . S
C2343 C2360 1.574 . S
C2343 C2362 1.368 . S
C2343 H2367 0.949 . S
H2344 C2348 0.949 . S
C2345 C2346 1.349 . S
C2345 C2347 1.327 . S
C2345 H2368 0.950 . S
C2346 C2345 1.349 . S
C2346 C2358 1.352 . S
C2347 C2345 1.327 . S
C2347 C2363 1.429 1_545 S
C2347 H2369 0.950 . S
C2348 H2344 0.949 . S
C2348 C2356 1.574 . S
C2348 C2364 1.368 . S
H2349 C2357 0.950 . S
H2350 C2355 0.950 . S
H2351 C2356 0.949 . S
H2352 C2358 0.946 1_565 S
H2353 C2359 0.950 . S
H2354 C2360 0.949 1_545 S
C2355 H2350 0.950 . S
C2355 C2357 1.327 . S
C2355 C2361 1.429 . S
C2356 C2348 1.574 . S
C2356 H2351 0.949 . S
C2356 C2362 1.368 . S
C2357 C2341 1.349 . S
C2357 H2349 0.950 . S
C2357 C2355 1.327 . S
C2358 C2346 1.352 . S
C2358 H2352 0.946 1_545 S
C2358 C2359 1.327 1_545 S
C2359 H2353 0.950 . S
C2359 C2358 1.327 1_565 S
C2359 C2363 1.429 . S
C2360 C2343 1.574 . S
C2360 H2354 0.949 1_565 S
C2360 C2364 1.368 . S
C2361 C2342 1.429 . S
C2361 C2355 1.429 . S
C2361 C2362 1.523 . S
C2362 C2343 1.368 . S
C2362 C2356 1.368 . S
C2362 C2361 1.523 . S
C2363 C2347 1.429 1_565 S
C2363 C2359 1.429 . S
C2363 C2364 1.523 . S
C2364 C2348 1.368 . S
C2364 C2360 1.368 . S
C2364 C2363 1.523 . S
H2365 C2340 0.950 . S
H2366 C2342 0.950 . S
H2367 C2343 0.949 . S
H2368 C2345 0.950 . S
H2369 C2347 0.950 . S
C2370 C2371 1.349 . S
C2370 C2372 1.327 . S
C2370 H2395 0.950 . S
C2371 C2370 1.349 . S
C2371 C2387 1.349 . S
C2372 C2370 1.327 . S
C2372 C2391 1.429 1_655 S
C2372 H2396 0.961 . S
C2373 C2390 1.574 . S
C2373 C2392 1.368 . S
C2373 H2397 0.949 . S
H2374 C2378 0.949 . S
C2375 C2376 1.349 . S
C2375 C2377 1.327 . S
C2375 H2398 0.950 . S
C2376 C2375 1.349 . S
C2376 C2388 1.349 . S
C2377 C2375 1.327 . S
C2377 C2393 1.429 . S
C2377 H2399 0.950 . S
C2378 H2374 0.949 . S
C2378 C2386 1.574 . S
C2378 C2394 1.368 . S
H2379 C2387 0.950 . S
H2380 C2385 0.950 . S
H2381 C2386 0.949 . S
H2382 C2388 0.950 . S
H2383 C2389 0.950 . S
H2384 C2390 0.949 . S
C2385 H2380 0.950 . S
C2385 C2387 1.327 1_455 S
C2385 C2391 1.429 . S
C2386 C2378 1.574 . S
C2386 H2381 0.949 . S
C2386 C2392 1.368 . S
C2387 C2371 1.349 . S
C2387 H2379 0.950 . S
C2387 C2385 1.327 1_655 S
C2388 C2376 1.349 . S
C2388 H2382 0.950 . S
C2388 C2389 1.327 . S
C2389 H2383 0.950 . S
C2389 C2388 1.327 . S
C2389 C2393 1.429 . S
C2390 C2373 1.574 . S
C2390 H2384 0.949 . S
C2390 C2394 1.368 . S
C2391 C2372 1.429 1_455 S
C2391 C2385 1.429 . S
C2391 C2392 1.523 . S
C2392 C2373 1.368 . S
C2392 C2386 1.368 . S
C2392 C2391 1.523 . S
C2393 C2377 1.429 . S
C2393 C2389 1.429 . S
C2393 C2394 1.523 . S
C2394 C2378 1.368 . S
C2394 C2390 1.368 . S
C2394 C2393 1.523 . S
H2395 C2370 0.950 . S
H2396 C2372 0.961 . S
H2397 C2373 0.949 . S
H2398 C2375 0.950 . S
H2399 C2377 0.950 . S
C2400 C2401 1.349 . S
C2400 C2402 1.327 . S
C2400 H2425 0.950 . S
C2401 C2400 1.349 . S
C2401 C2417 1.349 . S
C2402 C2400 1.327 . S
C2402 C2421 1.429 . S
C2402 H2426 0.950 . S
C2403 C2420 1.574 . S
C2403 C2422 1.368 . S
C2403 H2427 0.949 . S
H2404 C2408 0.949 . S
C2405 C2406 1.349 . S
C2405 C2407 1.327 . S
C2405 H2428 0.950 . S
C2406 C2405 1.349 . S
C2406 C2418 1.349 . S
C2407 C2405 1.327 . S
C2407 C2423 1.429 . S
C2407 H2429 0.950 . S
C2408 H2404 0.949 . S
C2408 C2416 1.574 . S
C2408 C2424 1.368 . S
H2409 C2417 0.950 . S
H2410 C2415 0.950 . S
H2411 C2416 0.949 . S
H2412 C2418 0.950 . S
H2413 C2419 0.950 . S
H2414 C2420 0.949 . S
C2415 H2410 0.950 . S
C2415 C2417 1.327 . S
C2415 C2421 1.429 . S
C2416 C2408 1.574 . S
C2416 H2411 0.949 . S
C2416 C2422 1.368 . S
C2417 C2401 1.349 . S
C2417 H2409 0.950 . S
C2417 C2415 1.327 . S
C2418 C2406 1.349 . S
C2418 H2412 0.950 . S
C2418 C2419 1.327 . S
C2419 H2413 0.950 . S
C2419 C2418 1.327 . S
C2419 C2423 1.429 . S
C2420 C2403 1.574 . S
C2420 H2414 0.949 . S
C2420 C2424 1.368 . S
C2421 C2402 1.429 . S
C2421 C2415 1.429 . S
C2421 C2422 1.523 . S
C2422 C2403 1.368 . S
C2422 C2416 1.368 . S
C2422 C2421 1.523 . S
C2423 C2407 1.429 . S
C2423 C2419 1.429 . S
C2423 C2424 1.523 . S
C2424 C2408 1.368 . S
C2424 C2420 1.368 . S
C2424 C2423 1.523 . S
H2425 C2400 0.950 . S
H2426 C2402 0.950 . S
H2427 C2403 0.949 . S
H2428 C2405 0.950 . S
H2429 C2407 0.950 . S
C2430 C2431 1.364 . S
C2430 C2432 1.327 . S
C2430 H2455 0.950 . S
C2431 C2430 1.364 . S
C2431 C2447 1.333 1_554 S
C2432 C2430 1.327 . S
C2432 C2451 1.411 1_554 S
C2432 H2456 0.950 . S
C2433 C2450 1.574 1_565 S
C2433 C2452 1.418 . S
C2433 H2457 0.949 . S
H2434 C2438 0.949 . S
C2435 C2436 1.349 . S
C2435 C2437 1.327 . S
C2435 H2458 0.950 . S
C2436 C2435 1.349 . S
C2436 C2448 1.349 1_556 S
C2437 C2435 1.327 . S
C2437 C2453 1.429 . S
C2437 H2459 0.950 . S
C2438 H2434 0.949 . S
C2438 C2446 1.574 1_545 S
C2438 C2454 1.368 1_554 S
H2439 C2447 0.950 . S
H2440 C2445 0.950 . S
H2441 C2446 0.949 . S
H2442 C2448 0.950 . S
H2443 C2449 0.950 . S
H2444 C2450 0.949 . S
C2445 H2440 0.950 . S
C2445 C2447 1.327 . S
C2445 C2451 1.446 . S
C2446 C2438 1.574 1_565 S
C2446 H2441 0.949 . S
C2446 C2452 1.321 1_554 S
C2447 C2431 1.333 1_556 S
C2447 H2439 0.950 . S
C2447 C2445 1.327 . S
C2448 C2436 1.349 1_554 S
C2448 H2442 0.950 . S
C2448 C2449 1.327 . S
C2449 H2443 0.950 . S
C2449 C2448 1.327 . S
C2449 C2453 1.429 1_554 S
C2450 C2433 1.574 1_545 S
C2450 H2444 0.949 . S
C2450 C2454 1.368 . S
C2451 C2432 1.411 1_556 S
C2451 C2445 1.446 . S
C2451 C2452 1.522 . S
C2452 C2433 1.418 . S
C2452 C2446 1.321 1_556 S
C2452 C2451 1.522 . S
C2453 C2437 1.429 . S
C2453 C2449 1.429 1_556 S
C2453 C2454 1.523 . S
C2454 C2438 1.368 1_556 S
C2454 C2450 1.368 . S
C2454 C2453 1.523 . S
H2455 C2430 0.950 . S
H2456 C2432 0.950 . S
H2457 C2433 0.949 . S
H2458 C2435 0.950 . S
H2459 C2437 0.950 . S
C2460 C2461 1.364 . S
C2460 C2462 1.327 . S
C2460 H2485 0.950 . S
C2461 C2460 1.364 . S
C2461 C2477 1.333 1_554 S
C2462 C2460 1.327 . S
C2462 C2481 1.411 1_554 S
C2462 H2486 0.950 . S
C2463 C2480 1.574 1_455 S
C2463 C2482 1.418 . S
C2463 H2487 0.949 . S
H2464 C2468 0.949 . S
C2465 C2466 1.349 . S
C2465 C2467 1.327 . S
C2465 H2488 0.950 . S
C2466 C2465 1.349 . S
C2466 C2478 1.349 1_556 S
C2467 C2465 1.327 . S
C2467 C2483 1.429 . S
C2467 H2489 0.950 . S
C2468 H2464 0.949 . S
C2468 C2476 1.574 1_655 S
C2468 C2484 1.368 1_554 S
H2469 C2477 0.950 . S
H2470 C2475 0.950 . S
H2471 C2476 0.949 . S
H2472 C2478 0.950 . S
H2473 C2479 0.950 . S
H2474 C2480 0.949 . S
C2475 H2470 0.950 . S
C2475 C2477 1.327 . S
C2475 C2481 1.445 . S
C2476 C2468 1.574 1_455 S
C2476 H2471 0.949 . S
C2476 C2482 1.321 1_554 S
C2477 C2461 1.333 1_556 S
C2477 H2469 0.950 . S
C2477 C2475 1.327 . S
C2478 C2466 1.349 1_554 S
C2478 H2472 0.950 . S
C2478 C2479 1.327 . S
C2479 H2473 0.950 . S
C2479 C2478 1.327 . S
C2479 C2483 1.429 1_554 S
C2480 C2463 1.574 1_655 S
C2480 H2474 0.949 . S
C2480 C2484 1.368 . S
C2481 C2462 1.411 1_556 S
C2481 C2475 1.445 . S
C2481 C2482 1.522 . S
C2482 C2463 1.418 . S
C2482 C2476 1.321 1_556 S
C2482 C2481 1.522 . S
C2483 C2467 1.429 . S
C2483 C2479 1.429 1_556 S
C2483 C2484 1.523 . S
C2484 C2468 1.368 1_556 S
C2484 C2480 1.368 . S
C2484 C2483 1.523 . S
H2485 C2460 0.950 . S
H2486 C2462 0.950 . S
H2487 C2463 0.949 . S
H2488 C2465 0.950 . S
H2489 C2467 0.950 . S
C2490 C2491 1.349 1_554 S
C2490 C2492 1.327 . S
C2490 H2515 0.950 . S
C2491 C2490 1.349 1_556 S
C2491 C2507 1.349 . S
C2492 C2490 1.327 . S
C2492 C2511 1.429 1_554 S
C2492 H2516 0.950 . S
C2493 C2510 1.574 . S
C2493 C2512 1.368 . S
C2493 H2517 0.949 . S
H2494 C2498 0.949 . S
C2495 C2496 1.352 1_556 S
C2495 C2497 1.327 . S
C2495 H2518 0.950 . S
C2496 C2495 1.352 1_554 S
C2496 C2508 1.346 . S
C2497 C2495 1.327 . S
C2497 C2513 1.464 . S
C2497 H2519 0.950 . S
C2498 H2494 0.949 . S
C2498 C2506 1.574 . S
C2498 C2514 1.301 1_554 S
H2499 C2507 0.950 . S
H2500 C2505 0.950 . S
H2501 C2506 0.949 . S
H2502 C2508 0.950 . S
H2503 C2509 0.950 . S
H2504 C2510 0.949 . S
C2505 H2500 0.950 . S
C2505 C2507 1.327 . S
C2505 C2511 1.429 . S
C2506 C2498 1.574 . S
C2506 H2501 0.949 . S
C2506 C2512 1.368 1_554 S
C2507 C2491 1.349 . S
C2507 H2499 0.950 . S
C2507 C2505 1.327 . S
C2508 C2496 1.346 . S
C2508 H2502 0.950 . S
C2508 C2509 1.327 . S
C2509 H2503 0.950 . S
C2509 C2508 1.327 . S
C2509 C2513 1.393 1_554 S
C2510 C2493 1.574 . S
C2510 H2504 0.949 . S
C2510 C2514 1.440 . S
C2511 C2492 1.429 1_556 S
C2511 C2505 1.429 . S
C2511 C2512 1.523 . S
C2512 C2493 1.368 . S
C2512 C2506 1.368 1_556 S
C2512 C2511 1.523 . S
C2513 C2497 1.464 . S
C2513 C2509 1.393 1_556 S
C2513 C2514 1.522 . S
C2514 C2498 1.301 1_556 S
C2514 C2510 1.440 . S
C2514 C2513 1.522 . S
H2515 C2490 0.950 . S
H2516 C2492 0.950 . S
H2517 C2493 0.949 . S
H2518 C2495 0.950 . S
H2519 C2497 0.950 . S
C2520 C2521 1.349 . S
C2520 C2522 1.327 . S
C2520 H2545 0.950 . S
C2521 C2520 1.349 . S
C2521 C2537 1.349 . S
C2522 C2520 1.327 . S
C2522 C2541 1.429 . S
C2522 H2546 0.950 . S
C2523 C2540 1.574 . S
C2523 C2542 1.368 . S
C2523 H2547 0.949 . S
H2524 C2528 0.949 . S
C2525 C2526 1.349 . S
C2525 C2527 1.327 . S
C2525 H2548 0.950 . S
C2526 C2525 1.349 . S
C2526 C2538 1.349 . S
C2527 C2525 1.327 . S
C2527 C2543 1.429 1_565 S
C2527 H2549 0.950 . S
C2528 H2524 0.949 . S
C2528 C2536 1.574 . S
C2528 C2544 1.368 . S
H2529 C2537 0.950 . S
H2530 C2535 0.950 . S
H2531 C2536 0.949 . S
H2532 C2538 0.950 1_545 S
H2533 C2539 0.950 . S
H2534 C2540 0.949 . S
C2535 H2530 0.950 . S
C2535 C2537 1.327 . S
C2535 C2541 1.429 . S
C2536 C2528 1.574 . S
C2536 H2531 0.949 . S
C2536 C2542 1.368 . S
C2537 C2521 1.349 . S
C2537 H2529 0.950 . S
C2537 C2535 1.327 . S
C2538 C2526 1.349 . S
C2538 H2532 0.950 1_565 S
C2538 C2539 1.327 1_565 S
C2539 H2533 0.950 . S
C2539 C2538 1.327 1_545 S
C2539 C2543 1.429 . S
C2540 C2523 1.574 . S
C2540 H2534 0.949 . S
C2540 C2544 1.368 . S
C2541 C2522 1.429 . S
C2541 C2535 1.429 . S
C2541 C2542 1.523 . S
C2542 C2523 1.368 . S
C2542 C2536 1.368 . S
C2542 C2541 1.523 . S
C2543 C2527 1.429 1_545 S
C2543 C2539 1.429 . S
C2543 C2544 1.523 . S
C2544 C2528 1.368 . S
C2544 C2540 1.368 . S
C2544 C2543 1.523 . S
H2545 C2520 0.950 . S
H2546 C2522 0.950 . S
H2547 C2523 0.949 . S
H2548 C2525 0.950 . S
H2549 C2527 0.950 . S
C2550 C2551 1.349 . S
C2550 C2552 1.327 . S
C2550 H2575 0.950 . S
C2551 C2550 1.349 . S
C2551 C2567 1.349 . S
C2552 C2550 1.327 . S
C2552 C2571 1.429 . S
C2552 H2576 0.950 . S
C2553 C2570 1.574 . S
C2553 C2572 1.368 . S
C2553 H2577 0.949 . S
H2554 C2558 0.949 1_455 S
C2555 C2556 1.328 1_655 S
C2555 C2557 1.350 . S
C2555 H2578 0.948 . S
C2556 C2555 1.328 1_455 S
C2556 C2568 1.349 . S
C2557 C2555 1.350 . S
C2557 C2573 1.429 . S
C2557 H2579 0.950 . S
C2558 H2554 0.949 1_655 S
C2558 C2566 1.574 . S
C2558 C2574 1.368 . S
H2559 C2567 0.950 . S
H2560 C2565 0.950 . S
H2561 C2566 0.949 . S
H2562 C2568 0.950 . S
H2563 C2569 0.950 . S
H2564 C2570 0.949 . S
C2565 H2560 0.950 . S
C2565 C2567 1.327 . S
C2565 C2571 1.429 . S
C2566 C2558 1.574 . S
C2566 H2561 0.949 . S
C2566 C2572 1.368 . S
C2567 C2551 1.349 . S
C2567 H2559 0.950 . S
C2567 C2565 1.327 . S
C2568 C2556 1.349 . S
C2568 H2562 0.950 . S
C2568 C2569 1.327 . S
C2569 H2563 0.950 . S
C2569 C2568 1.327 . S
C2569 C2573 1.429 1_455 S
C2570 C2553 1.574 . S
C2570 H2564 0.949 . S
C2570 C2574 1.368 . S
C2571 C2552 1.429 . S
C2571 C2565 1.429 . S
C2571 C2572 1.523 . S
C2572 C2553 1.368 . S
C2572 C2566 1.368 . S
C2572 C2571 1.523 . S
C2573 C2557 1.429 . S
C2573 C2569 1.429 1_655 S
C2573 C2574 1.523 . S
C2574 C2558 1.368 . S
C2574 C2570 1.368 . S
C2574 C2573 1.523 . S
H2575 C2550 0.950 . S
H2576 C2552 0.950 . S
H2577 C2553 0.949 . S
H2578 C2555 0.948 . S
H2579 C2557 0.950 . S
C2580 C2581 1.349 . S
C2580 C2582 1.327 . S
C2580 H2605 0.950 . S
C2581 C2580 1.349 . S
C2581 C2597 1.349 . S
C2582 C2580 1.327 . S
C2582 C2601 1.429 . S
C2582 H2606 0.950 . S
C2583 C2600 1.574 . S
C2583 C2602 1.368 . S
C2583 H2607 0.949 . S
H2584 C2588 0.949 . S
C2585 C2586 1.349 . S
C2585 C2587 1.327 . S
C2585 H2608 0.950 . S
C2586 C2585 1.349 . S
C2586 C2598 1.349 . S
C2587 C2585 1.327 . S
C2587 C2603 1.429 . S
C2587 H2609 0.950 . S
C2588 H2584 0.949 . S
C2588 C2596 1.574 . S
C2588 C2604 1.368 . S
H2589 C2597 0.950 . S
H2590 C2595 0.950 . S
H2591 C2596 0.949 . S
H2592 C2598 0.950 . S
H2593 C2599 0.950 . S
H2594 C2600 0.949 . S
C2595 H2590 0.950 . S
C2595 C2597 1.327 . S
C2595 C2601 1.429 . S
C2596 C2588 1.574 . S
C2596 H2591 0.949 . S
C2596 C2602 1.368 . S
C2597 C2581 1.349 . S
C2597 H2589 0.950 . S
C2597 C2595 1.327 . S
C2598 C2586 1.349 . S
C2598 H2592 0.950 . S
C2598 C2599 1.327 . S
C2599 H2593 0.950 . S
C2599 C2598 1.327 . S
C2599 C2603 1.429 . S
C2600 C2583 1.574 . S
C2600 H2594 0.949 . S
C2600 C2604 1.368 . S
C2601 C2582 1.429 . S
C2601 C2595 1.429 . S
C2601 C2602 1.523 . S
C2602 C2583 1.368 . S
C2602 C2596 1.368 . S
C2602 C2601 1.523 . S
C2603 C2587 1.429 . S
C2603 C2599 1.429 . S
C2603 C2604 1.523 . S
C2604 C2588 1.368 . S
C2604 C2600 1.368 . S
C2604 C2603 1.523 . S
H2605 C2580 0.950 . S
H2606 C2582 0.950 . S
H2607 C2583 0.949 . S
H2608 C2585 0.950 . S
H2609 C2587 0.950 . S
C2610 C2611 1.349 1_556 S
C2610 C2612 1.327 . S
C2610 H2635 0.950 . S
C2611 C2610 1.349 1_554 S
C2611 C2627 1.349 . S
C2612 C2610 1.327 . S
C2612 C2631 1.429 1_556 S
C2612 H2636 0.950 . S
C2613 C2630 1.574 1_565 S
C2613 C2632 1.368 . S
C2613 H2637 0.949 . S
H2614 C2618 0.949 . S
C2615 C2616 1.352 1_554 S
C2615 C2617 1.327 . S
C2615 H2638 0.950 . S
C2616 C2615 1.352 1_556 S
C2616 C2628 1.346 . S
C2617 C2615 1.327 . S
C2617 C2633 1.463 . S
C2617 H2639 0.950 . S
C2618 H2614 0.949 . S
C2618 C2626 1.574 1_545 S
C2618 C2634 1.302 1_556 S
H2619 C2627 0.950 . S
H2620 C2625 0.950 . S
H2621 C2626 0.949 . S
H2622 C2628 0.950 . S
H2623 C2629 0.950 . S
H2624 C2630 0.949 . S
C2625 H2620 0.950 . S
C2625 C2627 1.327 . S
C2625 C2631 1.429 . S
C2626 C2618 1.574 1_565 S
C2626 H2621 0.949 . S
C2626 C2632 1.368 1_556 S
C2627 C2611 1.349 . S
C2627 H2619 0.950 . S
C2627 C2625 1.327 . S
C2628 C2616 1.346 . S
C2628 H2622 0.950 . S
C2628 C2629 1.327 . S
C2629 H2623 0.950 . S
C2629 C2628 1.327 . S
C2629 C2633 1.393 1_556 S
C2630 C2613 1.574 1_545 S
C2630 H2624 0.949 . S
C2630 C2634 1.439 . S
C2631 C2612 1.429 1_554 S
C2631 C2625 1.429 . S
C2631 C2632 1.523 . S
C2632 C2613 1.368 . S
C2632 C2626 1.368 1_554 S
C2632 C2631 1.523 . S
C2633 C2617 1.463 . S
C2633 C2629 1.393 1_554 S
C2633 C2634 1.522 . S
C2634 C2618 1.302 1_554 S
C2634 C2630 1.439 . S
C2634 C2633 1.522 . S
H2635 C2610 0.950 . S
H2636 C2612 0.950 . S
H2637 C2613 0.949 . S
H2638 C2615 0.950 . S
H2639 C2617 0.950 . S
C2640 C2641 1.333 1_554 S
C2640 C2642 1.327 . S
C2640 H2665 0.950 . S
C2641 C2640 1.333 1_556 S
C2641 C2657 1.364 . S
C2642 C2640 1.327 . S
C2642 C2661 1.446 . S
C2642 H2666 0.950 . S
C2643 C2660 1.574 1_655 S
C2643 C2662 1.320 1_556 S
C2643 H2667 0.949 . S
H2644 C2648 0.949 . S
C2645 C2646 1.349 1_556 S
C2645 C2647 1.327 . S
C2645 H2668 0.950 . S
C2646 C2645 1.349 1_554 S
C2646 C2658 1.349 . S
C2647 C2645 1.327 . S
C2647 C2663 1.429 1_556 S
C2647 H2669 0.950 . S
C2648 H2644 0.949 . S
C2648 C2656 1.574 1_455 S
C2648 C2664 1.368 . S
H2649 C2657 0.950 . S
H2650 C2655 0.950 . S
H2651 C2656 0.949 . S
H2652 C2658 0.950 . S
H2653 C2659 0.950 . S
H2654 C2660 0.949 . S
C2655 H2650 0.950 . S
C2655 C2657 1.327 . S
C2655 C2661 1.411 1_556 S
C2656 C2648 1.574 1_655 S
C2656 H2651 0.949 . S
C2656 C2662 1.419 . S
C2657 C2641 1.364 . S
C2657 H2649 0.950 . S
C2657 C2655 1.327 . S
C2658 C2646 1.349 . S
C2658 H2652 0.950 . S
C2658 C2659 1.327 . S
C2659 H2653 0.950 . S
C2659 C2658 1.327 . S
C2659 C2663 1.429 . S
C2660 C2643 1.574 1_455 S
C2660 H2654 0.949 . S
C2660 C2664 1.368 1_556 S
C2661 C2642 1.446 . S
C2661 C2655 1.411 1_554 S
C2661 C2662 1.522 . S
C2662 C2643 1.320 1_554 S
C2662 C2656 1.419 . S
C2662 C2661 1.522 . S
C2663 C2647 1.429 1_554 S
C2663 C2659 1.429 . S
C2663 C2664 1.523 . S
C2664 C2648 1.368 . S
C2664 C2660 1.368 1_554 S
C2664 C2663 1.523 . S
H2665 C2640 0.950 . S
H2666 C2642 0.950 . S
H2667 C2643 0.949 . S
H2668 C2645 0.950 . S
H2669 C2647 0.950 . S
C2670 C2671 1.349 . S
C2670 C2672 1.327 . S
C2670 H2695 0.950 . S
C2671 C2670 1.349 . S
C2671 C2687 1.349 1_554 S
C2672 C2670 1.327 . S
C2672 C2691 1.429 . S
C2672 H2696 0.950 . S
C2673 C2690 1.574 . S
C2673 C2692 1.368 1_556 S
C2673 H2697 0.949 . S
H2674 C2678 0.949 . S
C2675 C2676 1.346 . S
C2675 C2677 1.327 . S
C2675 H2698 0.950 . S
C2676 C2675 1.346 . S
C2676 C2688 1.352 1_556 S
C2677 C2675 1.327 . S
C2677 C2693 1.398 1_556 S
C2677 H2699 0.950 . S
C2678 H2674 0.949 . S
C2678 C2686 1.574 . S
C2678 C2694 1.430 . S
H2679 C2687 0.950 . S
H2680 C2685 0.950 . S
H2681 C2686 0.949 . S
H2682 C2688 0.950 . S
H2683 C2689 0.950 . S
H2684 C2690 0.949 . S
C2685 H2680 0.950 . S
C2685 C2687 1.327 . S
C2685 C2691 1.429 1_556 S
C2686 C2678 1.574 . S
C2686 H2681 0.949 . S
C2686 C2692 1.368 . S
C2687 C2671 1.349 1_556 S
C2687 H2679 0.950 . S
C2687 C2685 1.327 . S
C2688 C2676 1.352 1_554 S
C2688 H2682 0.950 . S
C2688 C2689 1.327 . S
C2689 H2683 0.950 . S
C2689 C2688 1.327 . S
C2689 C2693 1.459 . S
C2690 C2673 1.574 . S
C2690 H2684 0.949 . S
C2690 C2694 1.312 1_556 S
C2691 C2672 1.429 . S
C2691 C2685 1.429 1_554 S
C2691 C2692 1.523 . S
C2692 C2673 1.368 1_554 S
C2692 C2686 1.368 . S
C2692 C2691 1.523 . S
C2693 C2677 1.398 1_554 S
C2693 C2689 1.459 . S
C2693 C2694 1.522 . S
C2694 C2678 1.430 . S
C2694 C2690 1.312 1_554 S
C2694 C2693 1.522 . S
H2695 C2670 0.950 . S
H2696 C2672 0.950 . S
H2697 C2673 0.949 . S
H2698 C2675 0.950 . S
H2699 C2677 0.950 . S
C2700 C2701 1.349 . S
C2700 C2702 1.327 . S
C2700 H2725 0.950 . S
C2701 C2700 1.349 . S
C2701 C2717 1.349 . S
C2702 C2700 1.327 . S
C2702 C2721 1.429 . S
C2702 H2726 0.950 . S
C2703 C2720 1.574 1_455 S
C2703 C2722 1.368 . S
C2703 H2727 0.949 . S
H2704 C2708 0.949 . S
C2705 C2706 1.349 . S
C2705 C2707 1.327 . S
C2705 H2728 0.950 . S
C2706 C2705 1.349 . S
C2706 C2718 1.349 . S
C2707 C2705 1.327 . S
C2707 C2723 1.429 . S
C2707 H2729 0.950 . S
C2708 H2704 0.949 . S
C2708 C2716 1.574 1_655 S
C2708 C2724 1.368 . S
H2709 C2717 0.950 . S
H2710 C2715 0.950 . S
H2711 C2716 0.949 . S
H2712 C2718 0.950 . S
H2713 C2719 0.950 . S
H2714 C2720 0.949 . S
C2715 H2710 0.950 . S
C2715 C2717 1.327 . S
C2715 C2721 1.429 . S
C2716 C2708 1.574 1_455 S
C2716 H2711 0.949 . S
C2716 C2722 1.368 . S
C2717 C2701 1.349 . S
C2717 H2709 0.950 . S
C2717 C2715 1.327 . S
C2718 C2706 1.349 . S
C2718 H2712 0.950 . S
C2718 C2719 1.327 . S
C2719 H2713 0.950 . S
C2719 C2718 1.327 . S
C2719 C2723 1.429 . S
C2720 C2703 1.574 1_655 S
C2720 H2714 0.949 . S
C2720 C2724 1.368 . S
C2721 C2702 1.429 . S
C2721 C2715 1.429 . S
C2721 C2722 1.523 . S
C2722 C2703 1.368 . S
C2722 C2716 1.368 . S
C2722 C2721 1.523 . S
C2723 C2707 1.429 . S
C2723 C2719 1.429 . S
C2723 C2724 1.523 . S
C2724 C2708 1.368 . S
C2724 C2720 1.368 . S
C2724 C2723 1.523 . S
H2725 C2700 0.950 . S
H2726 C2702 0.950 . S
H2727 C2703 0.949 . S
H2728 C2705 0.950 . S
H2729 C2707 0.950 . S
C2730 C2731 1.349 . S
C2730 C2732 1.327 . S
C2730 H2755 0.950 . S
C2731 C2730 1.349 . S
C2731 C2747 1.349 . S
C2732 C2730 1.327 . S
C2732 C2751 1.429 . S
C2732 H2756 0.950 . S
C2733 C2750 1.574 . S
C2733 C2752 1.368 . S
C2733 H2757 0.949 . S
H2734 C2738 0.949 . S
C2735 C2736 1.349 . S
C2735 C2737 1.327 . S
C2735 H2758 0.950 . S
C2736 C2735 1.349 . S
C2736 C2748 1.349 . S
C2737 C2735 1.327 . S
C2737 C2753 1.429 . S
C2737 H2759 0.950 . S
C2738 H2734 0.949 . S
C2738 C2746 1.574 . S
C2738 C2754 1.368 . S
H2739 C2747 0.950 . S
H2740 C2745 0.950 . S
H2741 C2746 0.949 . S
H2742 C2748 0.950 . S
H2743 C2749 0.950 . S
H2744 C2750 0.949 . S
C2745 H2740 0.950 . S
C2745 C2747 1.327 . S
C2745 C2751 1.429 . S
C2746 C2738 1.574 . S
C2746 H2741 0.949 . S
C2746 C2752 1.368 . S
C2747 C2731 1.349 . S
C2747 H2739 0.950 . S
C2747 C2745 1.327 . S
C2748 C2736 1.349 . S
C2748 H2742 0.950 . S
C2748 C2749 1.327 . S
C2749 H2743 0.950 . S
C2749 C2748 1.327 . S
C2749 C2753 1.429 . S
C2750 C2733 1.574 . S
C2750 H2744 0.949 . S
C2750 C2754 1.368 . S
C2751 C2732 1.429 . S
C2751 C2745 1.429 . S
C2751 C2752 1.523 . S
C2752 C2733 1.368 . S
C2752 C2746 1.368 . S
C2752 C2751 1.523 . S
C2753 C2737 1.429 . S
C2753 C2749 1.429 . S
C2753 C2754 1.523 . S
C2754 C2738 1.368 . S
C2754 C2750 1.368 . S
C2754 C2753 1.523 . S
H2755 C2730 0.950 . S
H2756 C2732 0.950 . S
H2757 C2733 0.949 . S
H2758 C2735 0.950 . S
H2759 C2737 0.950 . S
C2760 C2761 1.349 . S
C2760 C2762 1.327 . S
C2760 H2785 0.950 . S
C2761 C2760 1.349 . S
C2761 C2777 1.349 . S
C2762 C2760 1.327 . S
C2762 C2781 1.429 . S
C2762 H2786 0.950 . S
C2763 C2780 1.574 1_565 S
C2763 C2782 1.368 . S
C2763 H2787 0.949 . S
H2764 C2768 0.949 . S
C2765 C2766 1.349 . S
C2765 C2767 1.327 . S
C2765 H2788 0.950 . S
C2766 C2765 1.349 . S
C2766 C2778 1.349 . S
C2767 C2765 1.327 . S
C2767 C2783 1.429 . S
C2767 H2789 0.950 . S
C2768 H2764 0.949 . S
C2768 C2776 1.574 1_545 S
C2768 C2784 1.368 . S
H2769 C2777 0.950 . S
H2770 C2775 0.950 . S
H2771 C2776 0.949 . S
H2772 C2778 0.950 . S
H2773 C2779 0.950 . S
H2774 C2780 0.949 . S
C2775 H2770 0.950 . S
C2775 C2777 1.327 . S
C2775 C2781 1.429 . S
C2776 C2768 1.574 1_565 S
C2776 H2771 0.949 . S
C2776 C2782 1.368 . S
C2777 C2761 1.349 . S
C2777 H2769 0.950 . S
C2777 C2775 1.327 . S
C2778 C2766 1.349 . S
C2778 H2772 0.950 . S
C2778 C2779 1.327 . S
C2779 H2773 0.950 . S
C2779 C2778 1.327 . S
C2779 C2783 1.429 . S
C2780 C2763 1.574 1_545 S
C2780 H2774 0.949 . S
C2780 C2784 1.368 . S
C2781 C2762 1.429 . S
C2781 C2775 1.429 . S
C2781 C2782 1.523 . S
C2782 C2763 1.368 . S
C2782 C2776 1.368 . S
C2782 C2781 1.523 . S
C2783 C2767 1.429 . S
C2783 C2779 1.429 . S
C2783 C2784 1.523 . S
C2784 C2768 1.368 . S
C2784 C2780 1.368 . S
C2784 C2783 1.523 . S
H2785 C2760 0.950 . S
H2786 C2762 0.950 . S
H2787 C2763 0.949 . S
H2788 C2765 0.950 . S
H2789 C2767 0.950 . S
C2790 C2791 1.349 . S
C2790 C2792 1.327 . S
C2790 H2815 0.950 . S
C2791 C2790 1.349 . S
C2791 C2807 1.349 . S
C2792 C2790 1.327 . S
C2792 C2811 1.429 1_455 S
C2792 H2816 0.950 . S
C2793 C2810 1.574 . S
C2793 C2812 1.368 . S
C2793 H2817 0.949 . S
H2794 C2798 0.949 . S
C2795 C2796 1.349 . S
C2795 C2797 1.327 . S
C2795 H2818 0.950 . S
C2796 C2795 1.349 . S
C2796 C2808 1.349 . S
C2797 C2795 1.327 . S
C2797 C2813 1.429 . S
C2797 H2819 0.950 . S
C2798 H2794 0.949 . S
C2798 C2806 1.574 . S
C2798 C2814 1.368 . S
H2799 C2807 0.947 1_655 S
H2800 C2805 0.950 . S
H2801 C2806 0.949 . S
H2802 C2808 0.950 . S
H2803 C2809 0.950 . S
H2804 C2810 0.949 . S
C2805 H2800 0.950 . S
C2805 C2807 1.327 1_655 S
C2805 C2811 1.429 . S
C2806 C2798 1.574 . S
C2806 H2801 0.949 . S
C2806 C2812 1.368 . S
C2807 C2791 1.349 . S
C2807 H2799 0.947 1_455 S
C2807 C2805 1.327 1_455 S
C2808 C2796 1.349 . S
C2808 H2802 0.950 . S
C2808 C2809 1.327 . S
C2809 H2803 0.950 . S
C2809 C2808 1.327 . S
C2809 C2813 1.429 . S
C2810 C2793 1.574 . S
C2810 H2804 0.949 . S
C2810 C2814 1.368 . S
C2811 C2792 1.429 1_655 S
C2811 C2805 1.429 . S
C2811 C2812 1.523 . S
C2812 C2793 1.368 . S
C2812 C2806 1.368 . S
C2812 C2811 1.523 . S
C2813 C2797 1.429 . S
C2813 C2809 1.429 . S
C2813 C2814 1.523 . S
C2814 C2798 1.368 . S
C2814 C2810 1.368 . S
C2814 C2813 1.523 . S
H2815 C2790 0.950 . S
H2816 C2792 0.950 . S
H2817 C2793 0.949 . S
H2818 C2795 0.950 . S
H2819 C2797 0.950 . S
C2820 C2821 1.349 . S
C2820 C2822 1.327 . S
C2820 H2845 0.950 . S
C2821 C2820 1.349 . S
C2821 C2837 1.349 . S
C2822 C2820 1.327 . S
C2822 C2841 1.429 . S
C2822 H2846 0.950 . S
C2823 C2840 1.574 . S
C2823 C2842 1.368 . S
C2823 H2847 0.949 . S
H2824 C2828 0.949 . S
C2825 C2826 1.349 . S
C2825 C2827 1.327 . S
C2825 H2848 0.950 . S
C2826 C2825 1.349 . S
C2826 C2838 1.349 . S
C2827 C2825 1.327 . S
C2827 C2843 1.429 . S
C2827 H2849 0.950 . S
C2828 H2824 0.949 . S
C2828 C2836 1.574 . S
C2828 C2844 1.368 . S
H2829 C2837 0.950 . S
H2830 C2835 0.950 . S
H2831 C2836 0.949 . S
H2832 C2838 0.950 . S
H2833 C2839 0.950 . S
H2834 C2840 0.949 . S
C2835 H2830 0.950 . S
C2835 C2837 1.327 . S
C2835 C2841 1.429 . S
C2836 C2828 1.574 . S
C2836 H2831 0.949 . S
C2836 C2842 1.368 . S
C2837 C2821 1.349 . S
C2837 H2829 0.950 . S
C2837 C2835 1.327 . S
C2838 C2826 1.349 . S
C2838 H2832 0.950 . S
C2838 C2839 1.327 . S
C2839 H2833 0.950 . S
C2839 C2838 1.327 . S
C2839 C2843 1.429 . S
C2840 C2823 1.574 . S
C2840 H2834 0.949 . S
C2840 C2844 1.368 . S
C2841 C2822 1.429 . S
C2841 C2835 1.429 . S
C2841 C2842 1.523 . S
C2842 C2823 1.368 . S
C2842 C2836 1.368 . S
C2842 C2841 1.523 . S
C2843 C2827 1.429 . S
C2843 C2839 1.429 . S
C2843 C2844 1.523 . S
C2844 C2828 1.368 . S
C2844 C2840 1.368 . S
C2844 C2843 1.523 . S
H2845 C2820 0.950 . S
H2846 C2822 0.950 . S
H2847 C2823 0.949 . S
H2848 C2825 0.950 . S
H2849 C2827 0.950 . S
C2850 C2851 1.349 . S
C2850 C2852 1.327 . S
C2850 H2875 0.950 . S
C2851 C2850 1.349 . S
C2851 C2867 1.349 . S
C2852 C2850 1.327 . S
C2852 C2871 1.429 . S
C2852 H2876 0.950 . S
C2853 C2870 1.574 . S
C2853 C2872 1.368 . S
C2853 H2877 0.949 . S
H2854 C2858 0.949 1_565 S
C2855 C2856 1.349 1_545 S
C2855 C2857 1.327 . S
C2855 H2878 0.950 . S
C2856 C2855 1.349 1_565 S
C2856 C2868 1.349 . S
C2857 C2855 1.327 . S
C2857 C2873 1.429 . S
C2857 H2879 0.950 . S
C2858 H2854 0.949 1_545 S
C2858 C2866 1.574 . S
C2858 C2874 1.368 . S
H2859 C2867 0.950 . S
H2860 C2865 0.950 . S
H2861 C2866 0.949 . S
H2862 C2868 0.950 . S
H2863 C2869 0.950 . S
H2864 C2870 0.949 . S
C2865 H2860 0.950 . S
C2865 C2867 1.327 . S
C2865 C2871 1.429 . S
C2866 C2858 1.574 . S
C2866 H2861 0.949 . S
C2866 C2872 1.368 . S
C2867 C2851 1.349 . S
C2867 H2859 0.950 . S
C2867 C2865 1.327 . S
C2868 C2856 1.349 . S
C2868 H2862 0.950 . S
C2868 C2869 1.327 . S
C2869 H2863 0.950 . S
C2869 C2868 1.327 . S
C2869 C2873 1.429 1_565 S
C2870 C2853 1.574 . S
C2870 H2864 0.949 . S
C2870 C2874 1.368 . S
C2871 C2852 1.429 . S
C2871 C2865 1.429 . S
C2871 C2872 1.523 . S
C2872 C2853 1.368 . S
C2872 C2866 1.368 . S
C2872 C2871 1.523 . S
C2873 C2857 1.429 . S
C2873 C2869 1.429 1_545 S
C2873 C2874 1.523 . S
C2874 C2858 1.368 . S
C2874 C2870 1.368 . S
C2874 C2873 1.523 . S
H2875 C2850 0.950 . S
H2876 C2852 0.950 . S
H2877 C2853 0.949 . S
H2878 C2855 0.950 . S
H2879 C2857 0.950 . S
C2880 C2881 1.349 . S
C2880 C2882 1.327 . S
C2880 H2905 0.950 . S
C2881 C2880 1.349 . S
C2881 C2897 1.349 . S
C2882 C2880 1.327 . S
C2882 C2901 1.429 . S
C2882 H2906 0.950 . S
C2883 C2900 1.574 . S
C2883 C2902 1.368 . S
C2883 H2907 0.949 . S
H2884 C2888 0.949 . S
C2885 C2886 1.349 . S
C2885 C2887 1.327 . S
C2885 H2908 0.950 . S
C2886 C2885 1.349 . S
C2886 C2898 1.349 . S
C2887 C2885 1.327 . S
C2887 C2903 1.429 . S
C2887 H2909 0.950 . S
C2888 H2884 0.949 . S
C2888 C2896 1.574 . S
C2888 C2904 1.368 . S
H2889 C2897 0.950 . S
H2890 C2895 0.950 . S
H2891 C2896 0.949 . S
H2892 C2898 0.950 . S
H2893 C2899 0.950 . S
H2894 C2900 0.949 . S
C2895 H2890 0.950 . S
C2895 C2897 1.327 . S
C2895 C2901 1.429 . S
C2896 C2888 1.574 . S
C2896 H2891 0.949 . S
C2896 C2902 1.368 . S
C2897 C2881 1.349 . S
C2897 H2889 0.950 . S
C2897 C2895 1.327 . S
C2898 C2886 1.349 . S
C2898 H2892 0.950 . S
C2898 C2899 1.327 . S
C2899 H2893 0.950 . S
C2899 C2898 1.327 . S
C2899 C2903 1.429 . S
C2900 C2883 1.574 . S
C2900 H2894 0.949 . S
C2900 C2904 1.368 . S
C2901 C2882 1.429 . S
C2901 C2895 1.429 . S
C2901 C2902 1.523 . S
C2902 C2883 1.368 . S
C2902 C2896 1.368 . S
C2902 C2901 1.523 . S
C2903 C2887 1.429 . S
C2903 C2899 1.429 . S
C2903 C2904 1.523 . S
C2904 C2888 1.368 . S
C2904 C2900 1.368 . S
C2904 C2903 1.523 . S
H2905 C2880 0.950 . S
H2906 C2882 0.950 . S
H2907 C2883 0.949 . S
H2908 C2885 0.950 . S
H2909 C2887 0.950 . S
C2910 C2911 1.349 . S
C2910 C2912 1.327 . S
C2910 H2935 0.950 . S
C2911 C2910 1.349 . S
C2911 C2927 1.349 . S
C2912 C2910 1.327 . S
C2912 C2931 1.429 . S
C2912 H2936 0.950 . S
C2913 C2930 1.574 . S
C2913 C2932 1.368 . S
C2913 H2937 0.949 . S
H2914 C2918 0.949 . S
C2915 C2916 1.349 . S
C2915 C2917 1.327 . S
C2915 H2938 0.950 . S
C2916 C2915 1.349 . S
C2916 C2928 1.349 . S
C2917 C2915 1.327 . S
C2917 C2933 1.429 . S
C2917 H2939 0.950 . S
C2918 H2914 0.949 . S
C2918 C2926 1.574 . S
C2918 C2934 1.368 . S
H2919 C2927 0.950 . S
H2920 C2925 0.950 . S
H2921 C2926 0.949 . S
H2922 C2928 0.950 . S
H2923 C2929 0.950 . S
H2924 C2930 0.949 . S
C2925 H2920 0.950 . S
C2925 C2927 1.327 . S
C2925 C2931 1.429 . S
C2926 C2918 1.574 . S
C2926 H2921 0.949 . S
C2926 C2932 1.368 . S
C2927 C2911 1.349 . S
C2927 H2919 0.950 . S
C2927 C2925 1.327 . S
C2928 C2916 1.349 . S
C2928 H2922 0.950 . S
C2928 C2929 1.327 . S
C2929 H2923 0.950 . S
C2929 C2928 1.327 . S
C2929 C2933 1.429 . S
C2930 C2913 1.574 . S
C2930 H2924 0.949 . S
C2930 C2934 1.368 . S
C2931 C2912 1.429 . S
C2931 C2925 1.429 . S
C2931 C2932 1.523 . S
C2932 C2913 1.368 . S
C2932 C2926 1.368 . S
C2932 C2931 1.523 . S
C2933 C2917 1.429 . S
C2933 C2929 1.429 . S
C2933 C2934 1.523 . S
C2934 C2918 1.368 . S
C2934 C2930 1.368 . S
C2934 C2933 1.523 . S
H2935 C2910 0.950 . S
H2936 C2912 0.950 . S
H2937 C2913 0.949 . S
H2938 C2915 0.950 . S
H2939 C2917 0.950 . S
C2940 C2941 1.349 . S
C2940 C2942 1.327 . S
C2940 H2965 0.950 . S
C2941 C2940 1.349 . S
C2941 C2957 1.349 . S
C2942 C2940 1.327 . S
C2942 C2961 1.429 . S
C2942 H2966 0.950 . S
C2943 C2960 1.574 . S
C2943 C2962 1.368 . S
C2943 H2967 0.949 . S
H2944 C2948 0.949 . S
C2945 C2946 1.349 . S
C2945 C2947 1.327 . S
C2945 H2968 0.950 . S
C2946 C2945 1.349 . S
C2946 C2958 1.349 . S
C2947 C2945 1.327 . S
C2947 C2963 1.429 . S
C2947 H2969 0.950 . S
C2948 H2944 0.949 . S
C2948 C2956 1.574 . S
C2948 C2964 1.368 . S
H2949 C2957 0.950 . S
H2950 C2955 0.950 . S
H2951 C2956 0.949 . S
H2952 C2958 0.950 . S
H2953 C2959 0.950 . S
H2954 C2960 0.949 . S
C2955 H2950 0.950 . S
C2955 C2957 1.327 . S
C2955 C2961 1.429 . S
C2956 C2948 1.574 . S
C2956 H2951 0.949 . S
C2956 C2962 1.368 . S
C2957 C2941 1.349 . S
C2957 H2949 0.950 . S
C2957 C2955 1.327 . S
C2958 C2946 1.349 . S
C2958 H2952 0.950 . S
C2958 C2959 1.327 . S
C2959 H2953 0.950 . S
C2959 C2958 1.327 . S
C2959 C2963 1.429 . S
C2960 C2943 1.574 . S
C2960 H2954 0.949 . S
C2960 C2964 1.368 . S
C2961 C2942 1.429 . S
C2961 C2955 1.429 . S
C2961 C2962 1.523 . S
C2962 C2943 1.368 . S
C2962 C2956 1.368 . S
C2962 C2961 1.523 . S
C2963 C2947 1.429 . S
C2963 C2959 1.429 . S
C2963 C2964 1.523 . S
C2964 C2948 1.368 . S
C2964 C2960 1.368 . S
C2964 C2963 1.523 . S
H2965 C2940 0.950 . S
H2966 C2942 0.950 . S
H2967 C2943 0.949 . S
H2968 C2945 0.950 . S
H2969 C2947 0.950 . S
C2970 C2971 1.349 . S
C2970 C2972 1.327 . S
C2970 H2995 0.950 . S
C2971 C2970 1.349 . S
C2971 C2987 1.349 . S
C2972 C2970 1.327 . S
C2972 C2991 1.429 . S
C2972 H2996 0.950 . S
C2973 C2990 1.574 . S
C2973 C2992 1.368 . S
C2973 H2997 0.949 . S
H2974 C2978 0.949 . S
C2975 C2976 1.349 . S
C2975 C2977 1.327 . S
C2975 H2998 0.950 . S
C2976 C2975 1.349 . S
C2976 C2988 1.349 . S
C2977 C2975 1.327 . S
C2977 C2993 1.429 . S
C2977 H2999 0.950 . S
C2978 H2974 0.949 . S
C2978 C2986 1.574 . S
C2978 C2994 1.368 . S
H2979 C2987 0.950 . S
H2980 C2985 0.950 . S
H2981 C2986 0.949 . S
H2982 C2988 0.950 . S
H2983 C2989 0.950 . S
H2984 C2990 0.949 . S
C2985 H2980 0.950 . S
C2985 C2987 1.327 . S
C2985 C2991 1.429 . S
C2986 C2978 1.574 . S
C2986 H2981 0.949 . S
C2986 C2992 1.368 . S
C2987 C2971 1.349 . S
C2987 H2979 0.950 . S
C2987 C2985 1.327 . S
C2988 C2976 1.349 . S
C2988 H2982 0.950 . S
C2988 C2989 1.327 . S
C2989 H2983 0.950 . S
C2989 C2988 1.327 . S
C2989 C2993 1.429 . S
C2990 C2973 1.574 . S
C2990 H2984 0.949 . S
C2990 C2994 1.368 . S
C2991 C2972 1.429 . S
C2991 C2985 1.429 . S
C2991 C2992 1.523 . S
C2992 C2973 1.368 . S
C2992 C2986 1.368 . S
C2992 C2991 1.523 . S
C2993 C2977 1.429 . S
C2993 C2989 1.429 . S
C2993 C2994 1.523 . S
C2994 C2978 1.368 . S
C2994 C2990 1.368 . S
C2994 C2993 1.523 . S
H2995 C2970 0.950 . S
H2996 C2972 0.950 . S
H2997 C2973 0.949 . S
H2998 C2975 0.950 . S
H2999 C2977 0.950 . S
C3000 C3001 1.349 . S
C3000 C3002 1.327 . S
C3000 H3025 0.950 . S
C3001 C3000 1.349 . S
C3001 C3017 1.349 . S
C3002 C3000 1.327 . S
C3002 C3021 1.429 . S
C3002 H3026 0.950 . S
C3003 C3020 1.574 . S
C3003 C3022 1.368 . S
C3003 H3027 0.949 . S
H3004 C3008 0.949 . S
C3005 C3006 1.349 . S
C3005 C3007 1.327 . S
C3005 H3028 0.950 . S
C3006 C3005 1.349 . S
C3006 C3018 1.349 . S
C3007 C3005 1.327 . S
C3007 C3023 1.429 . S
C3007 H3029 0.950 . S
C3008 H3004 0.949 . S
C3008 C3016 1.574 . S
C3008 C3024 1.368 . S
H3009 C3017 0.950 . S
H3010 C3015 0.950 . S
H3011 C3016 0.949 . S
H3012 C3018 0.950 . S
H3013 C3019 0.950 . S
H3014 C3020 0.949 . S
C3015 H3010 0.950 . S
C3015 C3017 1.327 . S
C3015 C3021 1.429 . S
C3016 C3008 1.574 . S
C3016 H3011 0.949 . S
C3016 C3022 1.368 . S
C3017 C3001 1.349 . S
C3017 H3009 0.950 . S
C3017 C3015 1.327 . S
C3018 C3006 1.349 . S
C3018 H3012 0.950 . S
C3018 C3019 1.327 . S
C3019 H3013 0.950 . S
C3019 C3018 1.327 . S
C3019 C3023 1.429 . S
C3020 C3003 1.574 . S
C3020 H3014 0.949 . S
C3020 C3024 1.368 . S
C3021 C3002 1.429 . S
C3021 C3015 1.429 . S
C3021 C3022 1.523 . S
C3022 C3003 1.368 . S
C3022 C3016 1.368 . S
C3022 C3021 1.523 . S
C3023 C3007 1.429 . S
C3023 C3019 1.429 . S
C3023 C3024 1.523 . S
C3024 C3008 1.368 . S
C3024 C3020 1.368 . S
C3024 C3023 1.523 . S
H3025 C3000 0.950 . S
H3026 C3002 0.950 . S
H3027 C3003 0.949 . S
H3028 C3005 0.950 . S
H3029 C3007 0.950 . S
C3030 C3031 1.349 . S
C3030 C3032 1.327 . S
C3030 H3055 0.950 . S
C3031 C3030 1.349 . S
C3031 C3047 1.349 . S
C3032 C3030 1.327 . S
C3032 C3051 1.429 . S
C3032 H3056 0.950 . S
C3033 C3050 1.574 . S
C3033 C3052 1.368 . S
C3033 H3057 0.949 . S
H3034 C3038 0.949 . S
C3035 C3036 1.349 . S
C3035 C3037 1.327 . S
C3035 H3058 0.950 . S
C3036 C3035 1.349 . S
C3036 C3048 1.349 . S
C3037 C3035 1.327 . S
C3037 C3053 1.429 . S
C3037 H3059 0.950 . S
C3038 H3034 0.949 . S
C3038 C3046 1.574 . S
C3038 C3054 1.368 . S
H3039 C3047 0.950 . S
H3040 C3045 0.950 . S
H3041 C3046 0.949 . S
H3042 C3048 0.950 . S
H3043 C3049 0.950 . S
H3044 C3050 0.949 . S
C3045 H3040 0.950 . S
C3045 C3047 1.327 . S
C3045 C3051 1.429 . S
C3046 C3038 1.574 . S
C3046 H3041 0.949 . S
C3046 C3052 1.368 . S
C3047 C3031 1.349 . S
C3047 H3039 0.950 . S
C3047 C3045 1.327 . S
C3048 C3036 1.349 . S
C3048 H3042 0.950 . S
C3048 C3049 1.327 . S
C3049 H3043 0.950 . S
C3049 C3048 1.327 . S
C3049 C3053 1.429 . S
C3050 C3033 1.574 . S
C3050 H3044 0.949 . S
C3050 C3054 1.368 . S
C3051 C3032 1.429 . S
C3051 C3045 1.429 . S
C3051 C3052 1.523 . S
C3052 C3033 1.368 . S
C3052 C3046 1.368 . S
C3052 C3051 1.523 . S
C3053 C3037 1.429 . S
C3053 C3049 1.429 . S
C3053 C3054 1.523 . S
C3054 C3038 1.368 . S
C3054 C3050 1.368 . S
C3054 C3053 1.523 . S
H3055 C3030 0.950 . S
H3056 C3032 0.950 . S
H3057 C3033 0.949 . S
H3058 C3035 0.950 . S
H3059 C3037 0.950 . S
C3060 C3061 1.349 . S
C3060 C3062 1.327 . S
C3060 H3085 0.950 . S
C3061 C3060 1.349 . S
C3061 C3077 1.349 . S
C3062 C3060 1.327 . S
C3062 C3081 1.429 . S
C3062 H3086 0.950 . S
C3063 C3080 1.574 . S
C3063 C3082 1.368 . S
C3063 H3087 0.949 . S
H3064 C3068 0.949 . S
C3065 C3066 1.349 . S
C3065 C3067 1.327 . S
C3065 H3088 0.950 . S
C3066 C3065 1.349 . S
C3066 C3078 1.349 . S
C3067 C3065 1.327 . S
C3067 C3083 1.429 . S
C3067 H3089 0.950 . S
C3068 H3064 0.949 . S
C3068 C3076 1.574 . S
C3068 C3084 1.368 . S
H3069 C3077 0.950 . S
H3070 C3075 0.950 . S
H3071 C3076 0.949 . S
H3072 C3078 0.950 . S
H3073 C3079 0.950 . S
H3074 C3080 0.949 . S
C3075 H3070 0.950 . S
C3075 C3077 1.327 . S
C3075 C3081 1.429 . S
C3076 C3068 1.574 . S
C3076 H3071 0.949 . S
C3076 C3082 1.368 . S
C3077 C3061 1.349 . S
C3077 H3069 0.950 . S
C3077 C3075 1.327 . S
C3078 C3066 1.349 . S
C3078 H3072 0.950 . S
C3078 C3079 1.327 . S
C3079 H3073 0.950 . S
C3079 C3078 1.327 . S
C3079 C3083 1.429 . S
C3080 C3063 1.574 . S
C3080 H3074 0.949 . S
C3080 C3084 1.368 . S
C3081 C3062 1.429 . S
C3081 C3075 1.429 . S
C3081 C3082 1.523 . S
C3082 C3063 1.368 . S
C3082 C3076 1.368 . S
C3082 C3081 1.523 . S
C3083 C3067 1.429 . S
C3083 C3079 1.429 . S
C3083 C3084 1.523 . S
C3084 C3068 1.368 . S
C3084 C3080 1.368 . S
C3084 C3083 1.523 . S
H3085 C3060 0.950 . S
H3086 C3062 0.950 . S
H3087 C3063 0.949 . S
H3088 C3065 0.950 . S
H3089 C3067 0.950 . S
C3090 C3091 1.349 . S
C3090 C3092 1.327 . S
C3090 H3115 0.950 . S
C3091 C3090 1.349 . S
C3091 C3107 1.349 . S
C3092 C3090 1.327 . S
C3092 C3111 1.429 . S
C3092 H3116 0.950 . S
C3093 C3110 1.574 . S
C3093 C3112 1.368 . S
C3093 H3117 0.949 . S
H3094 C3098 0.949 . S
C3095 C3096 1.349 . S
C3095 C3097 1.327 . S
C3095 H3118 0.950 . S
C3096 C3095 1.349 . S
C3096 C3108 1.349 . S
C3097 C3095 1.327 . S
C3097 C3113 1.429 . S
C3097 H3119 0.950 . S
C3098 H3094 0.949 . S
C3098 C3106 1.574 . S
C3098 C3114 1.368 . S
H3099 C3107 0.950 . S
H3100 C3105 0.950 . S
H3101 C3106 0.949 . S
H3102 C3108 0.950 . S
H3103 C3109 0.950 . S
H3104 C3110 0.949 . S
C3105 H3100 0.950 . S
C3105 C3107 1.327 . S
C3105 C3111 1.429 . S
C3106 C3098 1.574 . S
C3106 H3101 0.949 . S
C3106 C3112 1.368 . S
C3107 C3091 1.349 . S
C3107 H3099 0.950 . S
C3107 C3105 1.327 . S
C3108 C3096 1.349 . S
C3108 H3102 0.950 . S
C3108 C3109 1.327 . S
C3109 H3103 0.950 . S
C3109 C3108 1.327 . S
C3109 C3113 1.429 . S
C3110 C3093 1.574 . S
C3110 H3104 0.949 . S
C3110 C3114 1.368 . S
C3111 C3092 1.429 . S
C3111 C3105 1.429 . S
C3111 C3112 1.523 . S
C3112 C3093 1.368 . S
C3112 C3106 1.368 . S
C3112 C3111 1.523 . S
C3113 C3097 1.429 . S
C3113 C3109 1.429 . S
C3113 C3114 1.523 . S
C3114 C3098 1.368 . S
C3114 C3110 1.368 . S
C3114 C3113 1.523 . S
H3115 C3090 0.950 . S
H3116 C3092 0.950 . S
H3117 C3093 0.949 . S
H3118 C3095 0.950 . S
H3119 C3097 0.950 . S
C3120 C3121 1.349 . S
C3120 C3122 1.327 . S
C3120 H3145 0.950 . S
C3121 C3120 1.349 . S
C3121 C3137 1.349 . S
C3122 C3120 1.327 . S
C3122 C3141 1.429 . S
C3122 H3146 0.950 . S
C3123 C3140 1.574 . S
C3123 C3142 1.368 . S
C3123 H3147 0.949 . S
H3124 C3128 0.949 . S
C3125 C3126 1.349 . S
C3125 C3127 1.327 . S
C3125 H3148 0.950 . S
C3126 C3125 1.349 . S
C3126 C3138 1.349 . S
C3127 C3125 1.327 . S
C3127 C3143 1.429 . S
C3127 H3149 0.950 . S
C3128 H3124 0.949 . S
C3128 C3136 1.574 . S
C3128 C3144 1.368 . S
H3129 C3137 0.950 . S
H3130 C3135 0.950 . S
H3131 C3136 0.949 . S
H3132 C3138 0.950 . S
H3133 C3139 0.950 . S
H3134 C3140 0.949 . S
C3135 H3130 0.950 . S
C3135 C3137 1.327 . S
C3135 C3141 1.429 . S
C3136 C3128 1.574 . S
C3136 H3131 0.949 . S
C3136 C3142 1.368 . S
C3137 C3121 1.349 . S
C3137 H3129 0.950 . S
C3137 C3135 1.327 . S
C3138 C3126 1.349 . S
C3138 H3132 0.950 . S
C3138 C3139 1.327 . S
C3139 H3133 0.950 . S
C3139 C3138 1.327 . S
C3139 C3143 1.429 . S
C3140 C3123 1.574 . S
C3140 H3134 0.949 . S
C3140 C3144 1.368 . S
C3141 C3122 1.429 . S
C3141 C3135 1.429 . S
C3141 C3142 1.523 . S
C3142 C3123 1.368 . S
C3142 C3136 1.368 . S
C3142 C3141 1.523 . S
C3143 C3127 1.429 . S
C3143 C3139 1.429 . S
C3143 C3144 1.523 . S
C3144 C3128 1.368 . S
C3144 C3140 1.368 . S
C3144 C3143 1.523 . S
H3145 C3120 0.950 . S
H3146 C3122 0.950 . S
H3147 C3123 0.949 . S
H3148 C3125 0.950 . S
H3149 C3127 0.950 . S
C3150 C3151 1.349 . S
C3150 C3152 1.327 . S
C3150 H3175 0.950 . S
C3151 C3150 1.349 . S
C3151 C3167 1.349 . S
C3152 C3150 1.327 . S
C3152 C3171 1.429 . S
C3152 H3176 0.950 . S
C3153 C3170 1.574 . S
C3153 C3172 1.368 . S
C3153 H3177 0.949 . S
H3154 C3158 0.949 . S
C3155 C3156 1.349 . S
C3155 C3157 1.327 . S
C3155 H3178 0.950 . S
C3156 C3155 1.349 . S
C3156 C3168 1.349 . S
C3157 C3155 1.327 . S
C3157 C3173 1.429 . S
C3157 H3179 0.950 . S
C3158 H3154 0.949 . S
C3158 C3166 1.574 . S
C3158 C3174 1.368 . S
H3159 C3167 0.950 . S
H3160 C3165 0.950 . S
H3161 C3166 0.949 . S
H3162 C3168 0.950 . S
H3163 C3169 0.950 . S
H3164 C3170 0.949 . S
C3165 H3160 0.950 . S
C3165 C3167 1.327 . S
C3165 C3171 1.429 . S
C3166 C3158 1.574 . S
C3166 H3161 0.949 . S
C3166 C3172 1.368 . S
C3167 C3151 1.349 . S
C3167 H3159 0.950 . S
C3167 C3165 1.327 . S
C3168 C3156 1.349 . S
C3168 H3162 0.950 . S
C3168 C3169 1.327 . S
C3169 H3163 0.950 . S
C3169 C3168 1.327 . S
C3169 C3173 1.429 . S
C3170 C3153 1.574 . S
C3170 H3164 0.949 . S
C3170 C3174 1.368 . S
C3171 C3152 1.429 . S
C3171 C3165 1.429 . S
C3171 C3172 1.523 . S
C3172 C3153 1.368 . S
C3172 C3166 1.368 . S
C3172 C3171 1.523 . S
C3173 C3157 1.429 . S
C3173 C3169 1.429 . S
C3173 C3174 1.523 . S
C3174 C3158 1.368 . S
C3174 C3170 1.368 . S
C3174 C3173 1.523 . S
H3175 C3150 0.950 . S
H3176 C3152 0.950 . S
H3177 C3153 0.949 . S
H3178 C3155 0.950 . S
H3179 C3157 0.950 . S
C3180 C3181 1.349 . S
C3180 C3182 1.327 . S
C3180 H3205 0.950 . S
C3181 C3180 1.349 . S
C3181 C3197 1.349 . S
C3182 C3180 1.327 . S
C3182 C3201 1.429 . S
C3182 H3206 0.950 . S
C3183 C3200 1.574 . S
C3183 C3202 1.368 . S
C3183 H3207 0.949 . S
H3184 C3188 0.949 . S
C3185 C3186 1.349 . S
C3185 C3187 1.327 . S
C3185 H3208 0.950 . S
C3186 C3185 1.349 . S
C3186 C3198 1.349 . S
C3187 C3185 1.327 . S
C3187 C3203 1.429 . S
C3187 H3209 0.950 . S
C3188 H3184 0.949 . S
C3188 C3196 1.574 . S
C3188 C3204 1.368 . S
H3189 C3197 0.950 . S
H3190 C3195 0.950 . S
H3191 C3196 0.949 . S
H3192 C3198 0.950 . S
H3193 C3199 0.950 . S
H3194 C3200 0.949 . S
C3195 H3190 0.950 . S
C3195 C3197 1.327 . S
C3195 C3201 1.429 . S
C3196 C3188 1.574 . S
C3196 H3191 0.949 . S
C3196 C3202 1.368 . S
C3197 C3181 1.349 . S
C3197 H3189 0.950 . S
C3197 C3195 1.327 . S
C3198 C3186 1.349 . S
C3198 H3192 0.950 . S
C3198 C3199 1.327 . S
C3199 H3193 0.950 . S
C3199 C3198 1.327 . S
C3199 C3203 1.429 . S
C3200 C3183 1.574 . S
C3200 H3194 0.949 . S
C3200 C3204 1.368 . S
C3201 C3182 1.429 . S
C3201 C3195 1.429 . S
C3201 C3202 1.523 . S
C3202 C3183 1.368 . S
C3202 C3196 1.368 . S
C3202 C3201 1.523 . S
C3203 C3187 1.429 . S
C3203 C3199 1.429 . S
C3203 C3204 1.523 . S
C3204 C3188 1.368 . S
C3204 C3200 1.368 . S
C3204 C3203 1.523 . S
H3205 C3180 0.950 . S
H3206 C3182 0.950 . S
H3207 C3183 0.949 . S
H3208 C3185 0.950 . S
H3209 C3187 0.950 . S
C3210 C3211 1.349 . S
C3210 C3212 1.327 . S
C3210 H3235 0.950 . S
C3211 C3210 1.349 . S
C3211 C3227 1.349 . S
C3212 C3210 1.327 . S
C3212 C3231 1.429 . S
C3212 H3236 0.950 . S
C3213 C3230 1.574 . S
C3213 C3232 1.368 . S
C3213 H3237 0.949 . S
H3214 C3218 0.949 . S
C3215 C3216 1.349 . S
C3215 C3217 1.327 . S
C3215 H3238 0.950 . S
C3216 C3215 1.349 . S
C3216 C3228 1.349 . S
C3217 C3215 1.327 . S
C3217 C3233 1.429 . S
C3217 H3239 0.950 . S
C3218 H3214 0.949 . S
C3218 C3226 1.574 . S
C3218 C3234 1.368 . S
H3219 C3227 0.950 . S
H3220 C3225 0.950 . S
H3221 C3226 0.949 . S
H3222 C3228 0.950 . S
H3223 C3229 0.950 . S
H3224 C3230 0.949 . S
C3225 H3220 0.950 . S
C3225 C3227 1.327 . S
C3225 C3231 1.429 . S
C3226 C3218 1.574 . S
C3226 H3221 0.949 . S
C3226 C3232 1.368 . S
C3227 C3211 1.349 . S
C3227 H3219 0.950 . S
C3227 C3225 1.327 . S
C3228 C3216 1.349 . S
C3228 H3222 0.950 . S
C3228 C3229 1.327 . S
C3229 H3223 0.950 . S
C3229 C3228 1.327 . S
C3229 C3233 1.429 . S
C3230 C3213 1.574 . S
C3230 H3224 0.949 . S
C3230 C3234 1.368 . S
C3231 C3212 1.429 . S
C3231 C3225 1.429 . S
C3231 C3232 1.523 . S
C3232 C3213 1.368 . S
C3232 C3226 1.368 . S
C3232 C3231 1.523 . S
C3233 C3217 1.429 . S
C3233 C3229 1.429 . S
C3233 C3234 1.523 . S
C3234 C3218 1.368 . S
C3234 C3230 1.368 . S
C3234 C3233 1.523 . S
H3235 C3210 0.950 . S
H3236 C3212 0.950 . S
H3237 C3213 0.949 . S
H3238 C3215 0.950 . S
H3239 C3217 0.950 . S
C3240 C3241 1.349 . S
C3240 C3242 1.327 . S
C3240 H3265 0.950 . S
C3241 C3240 1.349 . S
C3241 C3257 1.349 . S
C3242 C3240 1.327 . S
C3242 C3261 1.429 . S
C3242 H3266 0.950 . S
C3243 C3260 1.574 1_655 S
C3243 C3262 1.368 . S
C3243 H3267 0.949 . S
H3244 C3248 0.949 . S
C3245 C3246 1.349 . S
C3245 C3247 1.327 . S
C3245 H3268 0.950 . S
C3246 C3245 1.349 . S
C3246 C3258 1.349 . S
C3247 C3245 1.327 . S
C3247 C3263 1.429 . S
C3247 H3269 0.950 . S
C3248 H3244 0.949 . S
C3248 C3256 1.574 1_455 S
C3248 C3264 1.368 . S
H3249 C3257 0.950 . S
H3250 C3255 0.950 . S
H3251 C3256 0.949 . S
H3252 C3258 0.950 . S
H3253 C3259 0.950 . S
H3254 C3260 0.949 . S
C3255 H3250 0.950 . S
C3255 C3257 1.327 . S
C3255 C3261 1.429 . S
C3256 C3248 1.574 1_655 S
C3256 H3251 0.949 . S
C3256 C3262 1.368 . S
C3257 C3241 1.349 . S
C3257 H3249 0.950 . S
C3257 C3255 1.327 . S
C3258 C3246 1.349 . S
C3258 H3252 0.950 . S
C3258 C3259 1.327 . S
C3259 H3253 0.950 . S
C3259 C3258 1.327 . S
C3259 C3263 1.429 . S
C3260 C3243 1.574 1_455 S
C3260 H3254 0.949 . S
C3260 C3264 1.368 . S
C3261 C3242 1.429 . S
C3261 C3255 1.429 . S
C3261 C3262 1.523 . S
C3262 C3243 1.368 . S
C3262 C3256 1.368 . S
C3262 C3261 1.523 . S
C3263 C3247 1.429 . S
C3263 C3259 1.429 . S
C3263 C3264 1.523 . S
C3264 C3248 1.368 . S
C3264 C3260 1.368 . S
C3264 C3263 1.523 . S
H3265 C3240 0.950 . S
H3266 C3242 0.950 . S
H3267 C3243 0.949 . S
H3268 C3245 0.950 . S
H3269 C3247 0.950 . S
C3270 C3271 1.349 . S
C3270 C3272 1.327 . S
C3270 H3295 0.950 . S
C3271 C3270 1.349 . S
C3271 C3287 1.349 . S
C3272 C3270 1.327 . S
C3272 C3291 1.429 . S
C3272 H3296 0.950 . S
C3273 C3290 1.574 . S
C3273 C3292 1.368 . S
C3273 H3297 0.949 . S
H3274 C3278 0.949 . S
C3275 C3276 1.349 . S
C3275 C3277 1.327 . S
C3275 H3298 0.950 . S
C3276 C3275 1.349 . S
C3276 C3288 1.349 . S
C3277 C3275 1.327 . S
C3277 C3293 1.429 . S
C3277 H3299 0.950 . S
C3278 H3274 0.949 . S
C3278 C3286 1.574 . S
C3278 C3294 1.368 . S
H3279 C3287 0.950 . S
H3280 C3285 0.950 . S
H3281 C3286 0.949 . S
H3282 C3288 0.950 . S
H3283 C3289 0.950 . S
H3284 C3290 0.949 . S
C3285 H3280 0.950 . S
C3285 C3287 1.327 . S
C3285 C3291 1.429 . S
C3286 C3278 1.574 . S
C3286 H3281 0.949 . S
C3286 C3292 1.368 . S
C3287 C3271 1.349 . S
C3287 H3279 0.950 . S
C3287 C3285 1.327 . S
C3288 C3276 1.349 . S
C3288 H3282 0.950 . S
C3288 C3289 1.327 . S
C3289 H3283 0.950 . S
C3289 C3288 1.327 . S
C3289 C3293 1.429 . S
C3290 C3273 1.574 . S
C3290 H3284 0.949 . S
C3290 C3294 1.368 . S
C3291 C3272 1.429 . S
C3291 C3285 1.429 . S
C3291 C3292 1.523 . S
C3292 C3273 1.368 . S
C3292 C3286 1.368 . S
C3292 C3291 1.523 . S
C3293 C3277 1.429 . S
C3293 C3289 1.429 . S
C3293 C3294 1.523 . S
C3294 C3278 1.368 . S
C3294 C3290 1.368 . S
C3294 C3293 1.523 . S
H3295 C3270 0.950 . S
H3296 C3272 0.950 . S
H3297 C3273 0.949 . S
H3298 C3275 0.950 . S
H3299 C3277 0.950 . S
C3300 C3301 1.349 . S
C3300 C3302 1.327 . S
C3300 H3325 0.950 . S
C3301 C3300 1.349 . S
C3301 C3317 1.349 . S
C3302 C3300 1.327 . S
C3302 C3321 1.429 . S
C3302 H3326 0.950 . S
C3303 C3320 1.574 . S
C3303 C3322 1.368 1_565 S
C3303 H3327 0.949 . S
H3304 C3308 0.949 . S
C3305 C3306 1.349 . S
C3305 C3307 1.327 . S
C3305 H3328 0.950 . S
C3306 C3305 1.349 . S
C3306 C3318 1.349 . S
C3307 C3305 1.327 . S
C3307 C3323 1.429 . S
C3307 H3329 0.950 . S
C3308 H3304 0.949 . S
C3308 C3316 1.574 . S
C3308 C3324 1.368 1_545 S
H3309 C3317 0.950 . S
H3310 C3315 0.950 1_565 S
H3311 C3316 0.949 . S
H3312 C3318 0.950 . S
H3313 C3319 0.950 1_545 S
H3314 C3320 0.949 . S
C3315 H3310 0.950 1_545 S
C3315 C3317 1.327 . S
C3315 C3321 1.429 . S
C3316 C3308 1.574 . S
C3316 H3311 0.949 . S
C3316 C3322 1.368 . S
C3317 C3301 1.349 . S
C3317 H3309 0.950 . S
C3317 C3315 1.327 . S
C3318 C3306 1.349 . S
C3318 H3312 0.950 . S
C3318 C3319 1.327 . S
C3319 H3313 0.950 1_565 S
C3319 C3318 1.327 . S
C3319 C3323 1.429 . S
C3320 C3303 1.574 . S
C3320 H3314 0.949 . S
C3320 C3324 1.368 . S
C3321 C3302 1.429 . S
C3321 C3315 1.429 . S
C3321 C3322 1.523 . S
C3322 C3303 1.368 1_545 S
C3322 C3316 1.368 . S
C3322 C3321 1.523 . S
C3323 C3307 1.429 . S
C3323 C3319 1.429 . S
C3323 C3324 1.523 . S
C3324 C3308 1.368 1_565 S
C3324 C3320 1.368 . S
C3324 C3323 1.523 . S
H3325 C3300 0.950 . S
H3326 C3302 0.950 . S
H3327 C3303 0.949 . S
H3328 C3305 0.950 . S
H3329 C3307 0.950 . S
C3330 C3331 1.349 . S
C3330 C3332 1.327 . S
C3330 H3355 0.951 1_545 S
C3331 C3330 1.349 . S
C3331 C3347 1.349 . S
C3332 C3330 1.327 . S
C3332 C3351 1.429 . S
C3332 H3356 0.950 1_545 S
C3333 C3350 1.574 . S
C3333 C3352 1.368 . S
C3333 H3357 0.949 . S
H3334 C3338 0.949 . S
C3335 C3336 1.349 . S
C3335 C3337 1.327 . S
C3335 H3358 0.950 1_565 S
C3336 C3335 1.349 . S
C3336 C3348 1.349 . S
C3337 C3335 1.327 . S
C3337 C3353 1.429 . S
C3337 H3359 0.948 1_565 S
C3338 H3334 0.949 . S
C3338 C3346 1.574 . S
C3338 C3354 1.368 . S
H3339 C3347 0.950 . S
H3340 C3345 0.950 . S
H3341 C3346 0.949 . S
H3342 C3348 0.950 . S
H3343 C3349 0.950 . S
H3344 C3350 0.949 . S
C3345 H3340 0.950 . S
C3345 C3347 1.327 . S
C3345 C3351 1.429 . S
C3346 C3338 1.574 . S
C3346 H3341 0.949 . S
C3346 C3352 1.368 1_565 S
C3347 C3331 1.349 . S
C3347 H3339 0.950 . S
C3347 C3345 1.327 . S
C3348 C3336 1.349 . S
C3348 H3342 0.950 . S
C3348 C3349 1.327 . S
C3349 H3343 0.950 . S
C3349 C3348 1.327 . S
C3349 C3353 1.429 . S
C3350 C3333 1.574 . S
C3350 H3344 0.949 . S
C3350 C3354 1.368 1_545 S
C3351 C3332 1.429 . S
C3351 C3345 1.429 . S
C3351 C3352 1.523 . S
C3352 C3333 1.368 . S
C3352 C3346 1.368 1_545 S
C3352 C3351 1.523 . S
C3353 C3337 1.429 . S
C3353 C3349 1.429 . S
C3353 C3354 1.523 . S
C3354 C3338 1.368 . S
C3354 C3350 1.368 1_565 S
C3354 C3353 1.523 . S
H3355 C3330 0.951 1_565 S
H3356 C3332 0.950 1_565 S
H3357 C3333 0.949 . S
H3358 C3335 0.950 1_545 S
H3359 C3337 0.948 1_545 S
C3360 C3361 1.349 . S
C3360 C3362 1.327 . S
C3360 H3385 0.950 . S
C3361 C3360 1.349 . S
C3361 C3377 1.349 . S
C3362 C3360 1.327 . S
C3362 C3381 1.429 . S
C3362 H3386 0.950 . S
C3363 C3380 1.574 . S
C3363 C3382 1.368 1_655 S
C3363 H3387 0.949 . S
H3364 C3368 0.949 . S
C3365 C3366 1.349 . S
C3365 C3367 1.327 . S
C3365 H3388 0.950 . S
C3366 C3365 1.349 . S
C3366 C3378 1.349 . S
C3367 C3365 1.327 . S
C3367 C3383 1.429 . S
C3367 H3389 0.950 . S
C3368 H3364 0.949 . S
C3368 C3376 1.574 . S
C3368 C3384 1.368 1_455 S
H3369 C3377 0.950 1_655 S
H3370 C3375 0.935 1_655 S
H3371 C3376 0.949 . S
H3372 C3378 0.961 . S
H3373 C3379 0.950 1_455 S
H3374 C3380 0.949 . S
C3375 H3370 0.935 1_455 S
C3375 C3377 1.335 . S
C3375 C3381 1.436 . S
C3376 C3368 1.574 . S
C3376 H3371 0.949 . S
C3376 C3382 1.368 . S
C3377 C3361 1.349 . S
C3377 H3369 0.950 1_455 S
C3377 C3375 1.335 . S
C3378 C3366 1.349 . S
C3378 H3372 0.961 . S
C3378 C3379 1.327 . S
C3379 H3373 0.950 1_655 S
C3379 C3378 1.327 . S
C3379 C3383 1.429 . S
C3380 C3363 1.574 . S
C3380 H3374 0.949 . S
C3380 C3384 1.368 . S
C3381 C3362 1.429 . S
C3381 C3375 1.436 . S
C3381 C3382 1.523 . S
C3382 C3363 1.368 1_455 S
C3382 C3376 1.368 . S
C3382 C3381 1.523 . S
C3383 C3367 1.429 . S
C3383 C3379 1.429 . S
C3383 C3384 1.523 . S
C3384 C3368 1.368 1_655 S
C3384 C3380 1.368 . S
C3384 C3383 1.523 . S
H3385 C3360 0.950 . S
H3386 C3362 0.950 . S
H3387 C3363 0.949 . S
H3388 C3365 0.950 . S
H3389 C3367 0.950 . S
C3390 C3391 1.349 . S
C3390 C3392 1.327 . S
C3390 H3415 0.950 . S
C3391 C3390 1.349 . S
C3391 C3407 1.349 . S
C3392 C3390 1.327 . S
C3392 C3411 1.429 . S
C3392 H3416 0.950 . S
C3393 C3410 1.574 . S
C3393 C3412 1.368 . S
C3393 H3417 0.949 . S
H3394 C3398 0.949 . S
C3395 C3396 1.349 . S
C3395 C3397 1.327 . S
C3395 H3418 0.950 . S
C3396 C3395 1.349 . S
C3396 C3408 1.349 . S
C3397 C3395 1.327 . S
C3397 C3413 1.429 . S
C3397 H3419 0.950 . S
C3398 H3394 0.949 . S
C3398 C3406 1.574 . S
C3398 C3414 1.368 . S
H3399 C3407 0.950 . S
H3400 C3405 0.950 . S
H3401 C3406 0.949 . S
H3402 C3408 0.950 . S
H3403 C3409 0.950 . S
H3404 C3410 0.949 . S
C3405 H3400 0.950 . S
C3405 C3407 1.327 . S
C3405 C3411 1.429 . S
C3406 C3398 1.574 . S
C3406 H3401 0.949 . S
C3406 C3412 1.368 . S
C3407 C3391 1.349 . S
C3407 H3399 0.950 . S
C3407 C3405 1.327 . S
C3408 C3396 1.349 . S
C3408 H3402 0.950 . S
C3408 C3409 1.327 . S
C3409 H3403 0.950 . S
C3409 C3408 1.327 . S
C3409 C3413 1.429 . S
C3410 C3393 1.574 . S
C3410 H3404 0.949 . S
C3410 C3414 1.368 . S
C3411 C3392 1.429 . S
C3411 C3405 1.429 . S
C3411 C3412 1.523 . S
C3412 C3393 1.368 . S
C3412 C3406 1.368 . S
C3412 C3411 1.523 . S
C3413 C3397 1.429 . S
C3413 C3409 1.429 . S
C3413 C3414 1.523 . S
C3414 C3398 1.368 . S
C3414 C3410 1.368 . S
C3414 C3413 1.523 . S
H3415 C3390 0.950 . S
H3416 C3392 0.950 . S
H3417 C3393 0.949 . S
H3418 C3395 0.950 . S
H3419 C3397 0.950 . S
C3420 C3421 1.349 . S
C3420 C3422 1.327 . S
C3420 H3445 0.950 . S
C3421 C3420 1.349 . S
C3421 C3437 1.349 . S
C3422 C3420 1.327 . S
C3422 C3441 1.429 . S
C3422 H3446 0.950 . S
C3423 C3440 1.574 . S
C3423 C3442 1.368 . S
C3423 H3447 0.949 . S
H3424 C3428 0.949 . S
C3425 C3426 1.349 . S
C3425 C3427 1.327 . S
C3425 H3448 0.950 . S
C3426 C3425 1.349 . S
C3426 C3438 1.349 . S
C3427 C3425 1.327 . S
C3427 C3443 1.429 . S
C3427 H3449 0.950 . S
C3428 H3424 0.949 . S
C3428 C3436 1.574 . S
C3428 C3444 1.368 . S
H3429 C3437 0.950 . S
H3430 C3435 0.950 . S
H3431 C3436 0.949 . S
H3432 C3438 0.950 . S
H3433 C3439 0.950 . S
H3434 C3440 0.949 . S
C3435 H3430 0.950 . S
C3435 C3437 1.327 . S
C3435 C3441 1.429 . S
C3436 C3428 1.574 . S
C3436 H3431 0.949 . S
C3436 C3442 1.368 1_455 S
C3437 C3421 1.349 . S
C3437 H3429 0.950 . S
C3437 C3435 1.327 . S
C3438 C3426 1.349 . S
C3438 H3432 0.950 . S
C3438 C3439 1.327 . S
C3439 H3433 0.950 . S
C3439 C3438 1.327 . S
C3439 C3443 1.429 . S
C3440 C3423 1.574 . S
C3440 H3434 0.949 . S
C3440 C3444 1.368 1_655 S
C3441 C3422 1.429 . S
C3441 C3435 1.429 . S
C3441 C3442 1.523 . S
C3442 C3423 1.368 . S
C3442 C3436 1.368 1_655 S
C3442 C3441 1.523 . S
C3443 C3427 1.429 . S
C3443 C3439 1.429 . S
C3443 C3444 1.523 . S
C3444 C3428 1.368 . S
C3444 C3440 1.368 1_455 S
C3444 C3443 1.523 . S
H3445 C3420 0.950 . S
H3446 C3422 0.950 . S
H3447 C3423 0.949 . S
H3448 C3425 0.950 . S
H3449 C3427 0.950 . S
C3450 C3451 1.349 . S
C3450 C3452 1.327 . S
C3450 H3475 0.950 . S
C3451 C3450 1.349 . S
C3451 C3467 1.349 . S
C3452 C3450 1.327 . S
C3452 C3471 1.429 . S
C3452 H3476 0.950 . S
C3453 C3470 1.574 . S
C3453 C3472 1.368 . S
C3453 H3477 0.949 . S
H3454 C3458 0.949 . S
C3455 C3456 1.349 . S
C3455 C3457 1.327 . S
C3455 H3478 0.950 . S
C3456 C3455 1.349 . S
C3456 C3468 1.349 . S
C3457 C3455 1.327 . S
C3457 C3473 1.429 . S
C3457 H3479 0.950 . S
C3458 H3454 0.949 . S
C3458 C3466 1.574 . S
C3458 C3474 1.368 . S
H3459 C3467 0.950 . S
H3460 C3465 0.950 . S
H3461 C3466 0.949 . S
H3462 C3468 0.950 . S
H3463 C3469 0.950 . S
H3464 C3470 0.949 . S
C3465 H3460 0.950 . S
C3465 C3467 1.327 . S
C3465 C3471 1.429 . S
C3466 C3458 1.574 . S
C3466 H3461 0.949 . S
C3466 C3472 1.368 . S
C3467 C3451 1.349 . S
C3467 H3459 0.950 . S
C3467 C3465 1.327 . S
C3468 C3456 1.349 . S
C3468 H3462 0.950 . S
C3468 C3469 1.327 . S
C3469 H3463 0.950 . S
C3469 C3468 1.327 . S
C3469 C3473 1.429 . S
C3470 C3453 1.574 . S
C3470 H3464 0.949 . S
C3470 C3474 1.368 . S
C3471 C3452 1.429 . S
C3471 C3465 1.429 . S
C3471 C3472 1.523 . S
C3472 C3453 1.368 . S
C3472 C3466 1.368 . S
C3472 C3471 1.523 . S
C3473 C3457 1.429 . S
C3473 C3469 1.429 . S
C3473 C3474 1.523 . S
C3474 C3458 1.368 . S
C3474 C3470 1.368 . S
C3474 C3473 1.523 . S
H3475 C3450 0.950 . S
H3476 C3452 0.950 . S
H3477 C3453 0.949 . S
H3478 C3455 0.950 . S
H3479 C3457 0.950 . S
C3480 C3481 1.349 . S
C3480 C3482 1.327 . S
C3480 H3505 0.950 . S
C3481 C3480 1.349 . S
C3481 C3497 1.349 . S
C3482 C3480 1.327 . S
C3482 C3501 1.429 . S
C3482 H3506 0.950 . S
C3483 C3500 1.574 . S
C3483 C3502 1.368 1_565 S
C3483 H3507 0.949 . S
H3484 C3488 0.949 . S
C3485 C3486 1.349 . S
C3485 C3487 1.327 . S
C3485 H3508 0.950 . S
C3486 C3485 1.349 . S
C3486 C3498 1.349 . S
C3487 C3485 1.327 . S
C3487 C3503 1.429 . S
C3487 H3509 0.950 . S
C3488 H3484 0.949 . S
C3488 C3496 1.574 . S
C3488 C3504 1.368 1_545 S
H3489 C3497 0.950 . S
H3490 C3495 0.950 . S
H3491 C3496 0.949 . S
H3492 C3498 0.950 . S
H3493 C3499 0.950 . S
H3494 C3500 0.949 . S
C3495 H3490 0.950 . S
C3495 C3497 1.327 . S
C3495 C3501 1.429 . S
C3496 C3488 1.574 . S
C3496 H3491 0.949 . S
C3496 C3502 1.368 . S
C3497 C3481 1.349 . S
C3497 H3489 0.950 . S
C3497 C3495 1.327 . S
C3498 C3486 1.349 . S
C3498 H3492 0.950 . S
C3498 C3499 1.327 . S
C3499 H3493 0.950 . S
C3499 C3498 1.327 . S
C3499 C3503 1.429 . S
C3500 C3483 1.574 . S
C3500 H3494 0.949 . S
C3500 C3504 1.368 . S
C3501 C3482 1.429 . S
C3501 C3495 1.429 . S
C3501 C3502 1.523 . S
C3502 C3483 1.368 1_545 S
C3502 C3496 1.368 . S
C3502 C3501 1.523 . S
C3503 C3487 1.429 . S
C3503 C3499 1.429 . S
C3503 C3504 1.523 . S
C3504 C3488 1.368 1_565 S
C3504 C3500 1.368 . S
C3504 C3503 1.523 . S
H3505 C3480 0.950 . S
H3506 C3482 0.950 . S
H3507 C3483 0.949 . S
H3508 C3485 0.950 . S
H3509 C3487 0.950 . S
C3510 C3511 1.349 . S
C3510 C3512 1.327 . S
C3510 H3535 0.950 . S
C3511 C3510 1.349 . S
C3511 C3527 1.349 . S
C3512 C3510 1.327 . S
C3512 C3531 1.429 . S
C3512 H3536 0.950 . S
C3513 C3530 1.574 . S
C3513 C3532 1.368 . S
C3513 H3537 0.949 . S
H3514 C3518 0.949 . S
C3515 C3516 1.349 . S
C3515 C3517 1.327 . S
C3515 H3538 0.950 . S
C3516 C3515 1.349 . S
C3516 C3528 1.349 . S
C3517 C3515 1.327 . S
C3517 C3533 1.429 . S
C3517 H3539 0.950 . S
C3518 H3514 0.949 . S
C3518 C3526 1.574 . S
C3518 C3534 1.368 . S
H3519 C3527 0.950 . S
H3520 C3525 0.950 . S
H3521 C3526 0.949 . S
H3522 C3528 0.950 . S
H3523 C3529 0.950 . S
H3524 C3530 0.949 . S
C3525 H3520 0.950 . S
C3525 C3527 1.327 . S
C3525 C3531 1.429 . S
C3526 C3518 1.574 . S
C3526 H3521 0.949 . S
C3526 C3532 1.368 1_455 S
C3527 C3511 1.349 . S
C3527 H3519 0.950 . S
C3527 C3525 1.327 . S
C3528 C3516 1.349 . S
C3528 H3522 0.950 . S
C3528 C3529 1.327 . S
C3529 H3523 0.950 . S
C3529 C3528 1.327 . S
C3529 C3533 1.429 . S
C3530 C3513 1.574 . S
C3530 H3524 0.949 . S
C3530 C3534 1.368 1_655 S
C3531 C3512 1.429 . S
C3531 C3525 1.429 . S
C3531 C3532 1.523 . S
C3532 C3513 1.368 . S
C3532 C3526 1.368 1_655 S
C3532 C3531 1.523 . S
C3533 C3517 1.429 . S
C3533 C3529 1.429 . S
C3533 C3534 1.523 . S
C3534 C3518 1.368 . S
C3534 C3530 1.368 1_455 S
C3534 C3533 1.523 . S
H3535 C3510 0.950 . S
H3536 C3512 0.950 . S
H3537 C3513 0.949 . S
H3538 C3515 0.950 . S
H3539 C3517 0.950 . S
C3540 C3541 1.349 . S
C3540 C3542 1.327 . S
C3540 H3565 0.950 . S
C3541 C3540 1.349 . S
C3541 C3557 1.349 . S
C3542 C3540 1.327 . S
C3542 C3561 1.429 . S
C3542 H3566 0.950 . S
C3543 C3560 1.574 . S
C3543 C3562 1.368 . S
C3543 H3567 0.949 . S
H3544 C3548 0.949 . S
C3545 C3546 1.349 . S
C3545 C3547 1.327 . S
C3545 H3568 0.950 . S
C3546 C3545 1.349 . S
C3546 C3558 1.349 . S
C3547 C3545 1.327 . S
C3547 C3563 1.429 . S
C3547 H3569 0.950 . S
C3548 H3544 0.949 . S
C3548 C3556 1.574 . S
C3548 C3564 1.368 . S
H3549 C3557 0.950 . S
H3550 C3555 0.950 . S
H3551 C3556 0.949 . S
H3552 C3558 0.950 . S
H3553 C3559 0.950 . S
H3554 C3560 0.949 . S
C3555 H3550 0.950 . S
C3555 C3557 1.327 . S
C3555 C3561 1.429 . S
C3556 C3548 1.574 . S
C3556 H3551 0.949 . S
C3556 C3562 1.368 . S
C3557 C3541 1.349 . S
C3557 H3549 0.950 . S
C3557 C3555 1.327 . S
C3558 C3546 1.349 . S
C3558 H3552 0.950 . S
C3558 C3559 1.327 . S
C3559 H3553 0.950 . S
C3559 C3558 1.327 . S
C3559 C3563 1.429 . S
C3560 C3543 1.574 . S
C3560 H3554 0.949 . S
C3560 C3564 1.368 . S
C3561 C3542 1.429 . S
C3561 C3555 1.429 . S
C3561 C3562 1.523 . S
C3562 C3543 1.368 . S
C3562 C3556 1.368 . S
C3562 C3561 1.523 . S
C3563 C3547 1.429 . S
C3563 C3559 1.429 . S
C3563 C3564 1.523 . S
C3564 C3548 1.368 . S
C3564 C3560 1.368 . S
C3564 C3563 1.523 . S
H3565 C3540 0.950 . S
H3566 C3542 0.950 . S
H3567 C3543 0.949 . S
H3568 C3545 0.950 . S
H3569 C3547 0.950 . S
C3570 C3571 1.349 . S
C3570 C3572 1.327 . S
C3570 H3595 0.950 . S
C3571 C3570 1.349 . S
C3571 C3587 1.349 . S
C3572 C3570 1.327 . S
C3572 C3591 1.429 . S
C3572 H3596 0.950 . S
C3573 C3590 1.574 1_545 S
C3573 C3592 1.368 . S
C3573 H3597 0.949 . S
H3574 C3578 0.949 . S
C3575 C3576 1.349 . S
C3575 C3577 1.327 . S
C3575 H3598 0.950 . S
C3576 C3575 1.349 . S
C3576 C3588 1.349 . S
C3577 C3575 1.327 . S
C3577 C3593 1.429 . S
C3577 H3599 0.950 . S
C3578 H3574 0.949 . S
C3578 C3586 1.574 1_565 S
C3578 C3594 1.368 . S
H3579 C3587 0.950 . S
H3580 C3585 0.950 . S
H3581 C3586 0.949 . S
H3582 C3588 0.950 . S
H3583 C3589 0.950 . S
H3584 C3590 0.949 . S
C3585 H3580 0.950 . S
C3585 C3587 1.327 . S
C3585 C3591 1.429 . S
C3586 C3578 1.574 1_545 S
C3586 H3581 0.949 . S
C3586 C3592 1.368 . S
C3587 C3571 1.349 . S
C3587 H3579 0.950 . S
C3587 C3585 1.327 . S
C3588 C3576 1.349 . S
C3588 H3582 0.950 . S
C3588 C3589 1.327 . S
C3589 H3583 0.950 . S
C3589 C3588 1.327 . S
C3589 C3593 1.429 . S
C3590 C3573 1.574 1_565 S
C3590 H3584 0.949 . S
C3590 C3594 1.368 . S
C3591 C3572 1.429 . S
C3591 C3585 1.429 . S
C3591 C3592 1.523 . S
C3592 C3573 1.368 . S
C3592 C3586 1.368 . S
C3592 C3591 1.523 . S
C3593 C3577 1.429 . S
C3593 C3589 1.429 . S
C3593 C3594 1.523 . S
C3594 C3578 1.368 . S
C3594 C3590 1.368 . S
C3594 C3593 1.523 . S
H3595 C3570 0.950 . S
H3596 C3572 0.950 . S
H3597 C3573 0.949 . S
H3598 C3575 0.950 . S
H3599 C3577 0.950 . S
C3600 C3601 1.349 . S
C3600 C3602 1.327 . S
C3600 H3625 0.950 . S
C3601 C3600 1.349 . S
C3601 C3617 1.349 . S
C3602 C3600 1.327 . S
C3602 C3621 1.429 . S
C3602 H3626 0.950 . S
C3603 C3620 1.574 . S
C3603 C3622 1.368 . S
C3603 H3627 0.949 . S
H3604 C3608 0.949 . S
C3605 C3606 1.349 . S
C3605 C3607 1.327 . S
C3605 H3628 0.950 . S
C3606 C3605 1.349 . S
C3606 C3618 1.349 . S
C3607 C3605 1.327 . S
C3607 C3623 1.429 . S
C3607 H3629 0.950 . S
C3608 H3604 0.949 . S
C3608 C3616 1.574 . S
C3608 C3624 1.368 . S
H3609 C3617 0.950 . S
H3610 C3615 0.950 . S
H3611 C3616 0.949 . S
H3612 C3618 0.950 . S
H3613 C3619 0.950 . S
H3614 C3620 0.949 . S
C3615 H3610 0.950 . S
C3615 C3617 1.327 . S
C3615 C3621 1.429 . S
C3616 C3608 1.574 . S
C3616 H3611 0.949 . S
C3616 C3622 1.368 . S
C3617 C3601 1.349 . S
C3617 H3609 0.950 . S
C3617 C3615 1.327 . S
C3618 C3606 1.349 . S
C3618 H3612 0.950 . S
C3618 C3619 1.327 . S
C3619 H3613 0.950 . S
C3619 C3618 1.327 . S
C3619 C3623 1.429 . S
C3620 C3603 1.574 . S
C3620 H3614 0.949 . S
C3620 C3624 1.368 . S
C3621 C3602 1.429 . S
C3621 C3615 1.429 . S
C3621 C3622 1.523 . S
C3622 C3603 1.368 . S
C3622 C3616 1.368 . S
C3622 C3621 1.523 . S
C3623 C3607 1.429 . S
C3623 C3619 1.429 . S
C3623 C3624 1.523 . S
C3624 C3608 1.368 . S
C3624 C3620 1.368 . S
C3624 C3623 1.523 . S
H3625 C3600 0.950 . S
H3626 C3602 0.950 . S
H3627 C3603 0.949 . S
H3628 C3605 0.950 . S
H3629 C3607 0.950 . S
C3630 C3631 1.349 . S
C3630 C3632 1.327 . S
C3630 H3655 0.950 . S
C3631 C3630 1.349 . S
C3631 C3647 1.349 . S
C3632 C3630 1.327 . S
C3632 C3651 1.429 . S
C3632 H3656 0.950 . S
C3633 C3650 1.574 . S
C3633 C3652 1.368 . S
C3633 H3657 0.949 . S
H3634 C3638 0.949 . S
C3635 C3636 1.349 . S
C3635 C3637 1.327 . S
C3635 H3658 0.950 . S
C3636 C3635 1.349 . S
C3636 C3648 1.349 . S
C3637 C3635 1.327 . S
C3637 C3653 1.429 . S
C3637 H3659 0.950 . S
C3638 H3634 0.949 . S
C3638 C3646 1.574 . S
C3638 C3654 1.368 . S
H3639 C3647 0.950 . S
H3640 C3645 0.950 . S
H3641 C3646 0.949 . S
H3642 C3648 0.950 . S
H3643 C3649 0.950 . S
H3644 C3650 0.949 . S
C3645 H3640 0.950 . S
C3645 C3647 1.327 . S
C3645 C3651 1.429 . S
C3646 C3638 1.574 . S
C3646 H3641 0.949 . S
C3646 C3652 1.368 . S
C3647 C3631 1.349 . S
C3647 H3639 0.950 . S
C3647 C3645 1.327 . S
C3648 C3636 1.349 . S
C3648 H3642 0.950 . S
C3648 C3649 1.327 . S
C3649 H3643 0.950 . S
C3649 C3648 1.327 . S
C3649 C3653 1.429 . S
C3650 C3633 1.574 . S
C3650 H3644 0.949 . S
C3650 C3654 1.368 . S
C3651 C3632 1.429 . S
C3651 C3645 1.429 . S
C3651 C3652 1.523 . S
C3652 C3633 1.368 . S
C3652 C3646 1.368 . S
C3652 C3651 1.523 . S
C3653 C3637 1.429 . S
C3653 C3649 1.429 . S
C3653 C3654 1.523 . S
C3654 C3638 1.368 . S
C3654 C3650 1.368 . S
C3654 C3653 1.523 . S
H3655 C3630 0.950 . S
H3656 C3632 0.950 . S
H3657 C3633 0.949 . S
H3658 C3635 0.950 . S
H3659 C3637 0.950 . S
C3660 C3661 1.349 . S
C3660 C3662 1.327 . S
C3660 H3685 0.950 . S
C3661 C3660 1.349 . S
C3661 C3677 1.349 . S
C3662 C3660 1.327 . S
C3662 C3681 1.429 . S
C3662 H3686 0.950 . S
C3663 C3680 1.574 . S
C3663 C3682 1.368 . S
C3663 H3687 0.949 . S
H3664 C3668 0.949 . S
C3665 C3666 1.349 . S
C3665 C3667 1.327 . S
C3665 H3688 0.950 . S
C3666 C3665 1.349 . S
C3666 C3678 1.349 . S
C3667 C3665 1.327 . S
C3667 C3683 1.429 . S
C3667 H3689 0.950 . S
C3668 H3664 0.949 . S
C3668 C3676 1.574 . S
C3668 C3684 1.368 . S
H3669 C3677 0.950 . S
H3670 C3675 0.950 . S
H3671 C3676 0.949 . S
H3672 C3678 0.950 . S
H3673 C3679 0.950 . S
H3674 C3680 0.949 . S
C3675 H3670 0.950 . S
C3675 C3677 1.327 . S
C3675 C3681 1.429 . S
C3676 C3668 1.574 . S
C3676 H3671 0.949 . S
C3676 C3682 1.368 . S
C3677 C3661 1.349 . S
C3677 H3669 0.950 . S
C3677 C3675 1.327 . S
C3678 C3666 1.349 . S
C3678 H3672 0.950 . S
C3678 C3679 1.327 . S
C3679 H3673 0.950 . S
C3679 C3678 1.327 . S
C3679 C3683 1.429 . S
C3680 C3663 1.574 . S
C3680 H3674 0.949 . S
C3680 C3684 1.368 . S
C3681 C3662 1.429 . S
C3681 C3675 1.429 . S
C3681 C3682 1.523 . S
C3682 C3663 1.368 . S
C3682 C3676 1.368 . S
C3682 C3681 1.523 . S
C3683 C3667 1.429 . S
C3683 C3679 1.429 . S
C3683 C3684 1.523 . S
C3684 C3668 1.368 . S
C3684 C3680 1.368 . S
C3684 C3683 1.523 . S
H3685 C3660 0.950 . S
H3686 C3662 0.950 . S
H3687 C3663 0.949 . S
H3688 C3665 0.950 . S
H3689 C3667 0.950 . S
C3690 C3691 1.349 . S
C3690 C3692 1.327 . S
C3690 H3715 0.950 . S
C3691 C3690 1.349 . S
C3691 C3707 1.349 . S
C3692 C3690 1.327 . S
C3692 C3711 1.429 . S
C3692 H3716 0.950 . S
C3693 C3710 1.574 . S
C3693 C3712 1.368 . S
C3693 H3717 0.949 . S
H3694 C3698 0.949 . S
C3695 C3696 1.349 . S
C3695 C3697 1.327 . S
C3695 H3718 0.950 . S
C3696 C3695 1.349 . S
C3696 C3708 1.349 . S
C3697 C3695 1.327 . S
C3697 C3713 1.429 . S
C3697 H3719 0.950 . S
C3698 H3694 0.949 . S
C3698 C3706 1.574 . S
C3698 C3714 1.368 . S
H3699 C3707 0.950 . S
H3700 C3705 0.950 . S
H3701 C3706 0.949 . S
H3702 C3708 0.950 . S
H3703 C3709 0.950 . S
H3704 C3710 0.949 . S
C3705 H3700 0.950 . S
C3705 C3707 1.327 . S
C3705 C3711 1.429 . S
C3706 C3698 1.574 . S
C3706 H3701 0.949 . S
C3706 C3712 1.368 . S
C3707 C3691 1.349 . S
C3707 H3699 0.950 . S
C3707 C3705 1.327 . S
C3708 C3696 1.349 . S
C3708 H3702 0.950 . S
C3708 C3709 1.327 . S
C3709 H3703 0.950 . S
C3709 C3708 1.327 . S
C3709 C3713 1.429 . S
C3710 C3693 1.574 . S
C3710 H3704 0.949 . S
C3710 C3714 1.368 . S
C3711 C3692 1.429 . S
C3711 C3705 1.429 . S
C3711 C3712 1.523 . S
C3712 C3693 1.368 . S
C3712 C3706 1.368 . S
C3712 C3711 1.523 . S
C3713 C3697 1.429 . S
C3713 C3709 1.429 . S
C3713 C3714 1.523 . S
C3714 C3698 1.368 . S
C3714 C3710 1.368 . S
C3714 C3713 1.523 . S
H3715 C3690 0.950 . S
H3716 C3692 0.950 . S
H3717 C3693 0.949 . S
H3718 C3695 0.950 . S
H3719 C3697 0.950 . S
C3720 C3721 1.349 . S
C3720 C3722 1.327 . S
C3720 H3745 0.950 . S
C3721 C3720 1.349 . S
C3721 C3737 1.349 . S
C3722 C3720 1.327 . S
C3722 C3741 1.429 . S
C3722 H3746 0.950 . S
C3723 C3740 1.574 . S
C3723 C3742 1.368 . S
C3723 H3747 0.949 . S
H3724 C3728 0.949 . S
C3725 C3726 1.349 . S
C3725 C3727 1.327 . S
C3725 H3748 0.950 . S
C3726 C3725 1.349 . S
C3726 C3738 1.349 . S
C3727 C3725 1.327 . S
C3727 C3743 1.429 . S
C3727 H3749 0.950 . S
C3728 H3724 0.949 . S
C3728 C3736 1.574 . S
C3728 C3744 1.368 . S
H3729 C3737 0.950 . S
H3730 C3735 0.950 . S
H3731 C3736 0.949 . S
H3732 C3738 0.950 . S
H3733 C3739 0.950 . S
H3734 C3740 0.949 . S
C3735 H3730 0.950 . S
C3735 C3737 1.327 . S
C3735 C3741 1.429 . S
C3736 C3728 1.574 . S
C3736 H3731 0.949 . S
C3736 C3742 1.368 . S
C3737 C3721 1.349 . S
C3737 H3729 0.950 . S
C3737 C3735 1.327 . S
C3738 C3726 1.349 . S
C3738 H3732 0.950 . S
C3738 C3739 1.327 . S
C3739 H3733 0.950 . S
C3739 C3738 1.327 . S
C3739 C3743 1.429 . S
C3740 C3723 1.574 . S
C3740 H3734 0.949 . S
C3740 C3744 1.368 . S
C3741 C3722 1.429 . S
C3741 C3735 1.429 . S
C3741 C3742 1.523 . S
C3742 C3723 1.368 . S
C3742 C3736 1.368 . S
C3742 C3741 1.523 . S
C3743 C3727 1.429 . S
C3743 C3739 1.429 . S
C3743 C3744 1.523 . S
C3744 C3728 1.368 . S
C3744 C3740 1.368 . S
C3744 C3743 1.523 . S
H3745 C3720 0.950 . S
H3746 C3722 0.950 . S
H3747 C3723 0.949 . S
H3748 C3725 0.950 . S
H3749 C3727 0.950 . S
C3750 C3751 1.349 . S
C3750 C3752 1.327 . S
C3750 H3775 0.950 . S
C3751 C3750 1.349 . S
C3751 C3767 1.349 . S
C3752 C3750 1.327 . S
C3752 C3771 1.429 . S
C3752 H3776 0.950 . S
C3753 C3770 1.574 . S
C3753 C3772 1.368 . S
C3753 H3777 0.949 . S
H3754 C3758 0.949 . S
C3755 C3756 1.349 . S
C3755 C3757 1.327 . S
C3755 H3778 0.950 . S
C3756 C3755 1.349 . S
C3756 C3768 1.349 . S
C3757 C3755 1.327 . S
C3757 C3773 1.429 . S
C3757 H3779 0.950 . S
C3758 H3754 0.949 . S
C3758 C3766 1.574 . S
C3758 C3774 1.368 . S
H3759 C3767 0.950 . S
H3760 C3765 0.950 . S
H3761 C3766 0.949 . S
H3762 C3768 0.950 . S
H3763 C3769 0.950 . S
H3764 C3770 0.949 . S
C3765 H3760 0.950 . S
C3765 C3767 1.327 . S
C3765 C3771 1.429 . S
C3766 C3758 1.574 . S
C3766 H3761 0.949 . S
C3766 C3772 1.368 . S
C3767 C3751 1.349 . S
C3767 H3759 0.950 . S
C3767 C3765 1.327 . S
C3768 C3756 1.349 . S
C3768 H3762 0.950 . S
C3768 C3769 1.327 . S
C3769 H3763 0.950 . S
C3769 C3768 1.327 . S
C3769 C3773 1.429 . S
C3770 C3753 1.574 . S
C3770 H3764 0.949 . S
C3770 C3774 1.368 . S
C3771 C3752 1.429 . S
C3771 C3765 1.429 . S
C3771 C3772 1.523 . S
C3772 C3753 1.368 . S
C3772 C3766 1.368 . S
C3772 C3771 1.523 . S
C3773 C3757 1.429 . S
C3773 C3769 1.429 . S
C3773 C3774 1.523 . S
C3774 C3758 1.368 . S
C3774 C3770 1.368 . S
C3774 C3773 1.523 . S
H3775 C3750 0.950 . S
H3776 C3752 0.950 . S
H3777 C3753 0.949 . S
H3778 C3755 0.950 . S
H3779 C3757 0.950 . S
C3780 C3781 1.349 . S
C3780 C3782 1.327 . S
C3780 H3805 0.950 . S
C3781 C3780 1.349 . S
C3781 C3797 1.349 . S
C3782 C3780 1.327 . S
C3782 C3801 1.429 . S
C3782 H3806 0.950 . S
C3783 C3800 1.574 . S
C3783 C3802 1.368 . S
C3783 H3807 0.949 . S
H3784 C3788 0.949 . S
C3785 C3786 1.349 . S
C3785 C3787 1.327 . S
C3785 H3808 0.950 . S
C3786 C3785 1.349 . S
C3786 C3798 1.349 . S
C3787 C3785 1.327 . S
C3787 C3803 1.429 . S
C3787 H3809 0.950 . S
C3788 H3784 0.949 . S
C3788 C3796 1.574 . S
C3788 C3804 1.368 . S
H3789 C3797 0.950 . S
H3790 C3795 0.950 . S
H3791 C3796 0.949 . S
H3792 C3798 0.950 . S
H3793 C3799 0.950 . S
H3794 C3800 0.949 . S
C3795 H3790 0.950 . S
C3795 C3797 1.327 . S
C3795 C3801 1.429 . S
C3796 C3788 1.574 . S
C3796 H3791 0.949 . S
C3796 C3802 1.368 . S
C3797 C3781 1.349 . S
C3797 H3789 0.950 . S
C3797 C3795 1.327 . S
C3798 C3786 1.349 . S
C3798 H3792 0.950 . S
C3798 C3799 1.327 . S
C3799 H3793 0.950 . S
C3799 C3798 1.327 . S
C3799 C3803 1.429 . S
C3800 C3783 1.574 . S
C3800 H3794 0.949 . S
C3800 C3804 1.368 . S
C3801 C3782 1.429 . S
C3801 C3795 1.429 . S
C3801 C3802 1.523 . S
C3802 C3783 1.368 . S
C3802 C3796 1.368 . S
C3802 C3801 1.523 . S
C3803 C3787 1.429 . S
C3803 C3799 1.429 . S
C3803 C3804 1.523 . S
C3804 C3788 1.368 . S
C3804 C3800 1.368 . S
C3804 C3803 1.523 . S
H3805 C3780 0.950 . S
H3806 C3782 0.950 . S
H3807 C3783 0.949 . S
H3808 C3785 0.950 . S
H3809 C3787 0.950 . S
C3810 C3811 1.349 . S
C3810 C3812 1.327 . S
C3810 H3835 0.950 . S
C3811 C3810 1.349 . S
C3811 C3827 1.349 . S
C3812 C3810 1.327 . S
C3812 C3831 1.429 . S
C3812 H3836 0.950 . S
C3813 C3830 1.574 . S
C3813 C3832 1.368 . S
C3813 H3837 0.949 . S
H3814 C3818 0.949 . S
C3815 C3816 1.349 . S
C3815 C3817 1.327 . S
C3815 H3838 0.950 . S
C3816 C3815 1.349 . S
C3816 C3828 1.349 . S
C3817 C3815 1.327 . S
C3817 C3833 1.429 . S
C3817 H3839 0.950 . S
C3818 H3814 0.949 . S
C3818 C3826 1.574 . S
C3818 C3834 1.368 . S
H3819 C3827 0.950 . S
H3820 C3825 0.950 . S
H3821 C3826 0.949 . S
H3822 C3828 0.950 . S
H3823 C3829 0.950 . S
H3824 C3830 0.949 . S
C3825 H3820 0.950 . S
C3825 C3827 1.327 . S
C3825 C3831 1.429 . S
C3826 C3818 1.574 . S
C3826 H3821 0.949 . S
C3826 C3832 1.368 . S
C3827 C3811 1.349 . S
C3827 H3819 0.950 . S
C3827 C3825 1.327 . S
C3828 C3816 1.349 . S
C3828 H3822 0.950 . S
C3828 C3829 1.327 . S
C3829 H3823 0.950 . S
C3829 C3828 1.327 . S
C3829 C3833 1.429 . S
C3830 C3813 1.574 . S
C3830 H3824 0.949 . S
C3830 C3834 1.368 . S
C3831 C3812 1.429 . S
C3831 C3825 1.429 . S
C3831 C3832 1.523 . S
C3832 C3813 1.368 . S
C3832 C3826 1.368 . S
C3832 C3831 1.523 . S
C3833 C3817 1.429 . S
C3833 C3829 1.429 . S
C3833 C3834 1.523 . S
C3834 C3818 1.368 . S
C3834 C3830 1.368 . S
C3834 C3833 1.523 . S
H3835 C3810 0.950 . S
H3836 C3812 0.950 . S
H3837 C3813 0.949 . S
H3838 C3815 0.950 . S
H3839 C3817 0.950 . S
C3840 C3841 1.349 . S
C3840 C3842 1.327 . S
C3840 H3865 0.950 . S
C3841 C3840 1.349 . S
C3841 C3857 1.349 . S
C3842 C3840 1.327 . S
C3842 C3861 1.429 . S
C3842 H3866 0.950 . S
C3843 C3860 1.574 . S
C3843 C3862 1.368 . S
C3843 H3867 0.949 . S
H3844 C3848 0.949 . S
C3845 C3846 1.349 . S
C3845 C3847 1.327 . S
C3845 H3868 0.950 . S
C3846 C3845 1.349 . S
C3846 C3858 1.349 . S
C3847 C3845 1.327 . S
C3847 C3863 1.429 . S
C3847 H3869 0.950 . S
C3848 H3844 0.949 . S
C3848 C3856 1.574 . S
C3848 C3864 1.368 . S
H3849 C3857 0.950 . S
H3850 C3855 0.950 . S
H3851 C3856 0.949 . S
H3852 C3858 0.950 . S
H3853 C3859 0.950 . S
H3854 C3860 0.949 . S
C3855 H3850 0.950 . S
C3855 C3857 1.327 . S
C3855 C3861 1.429 . S
C3856 C3848 1.574 . S
C3856 H3851 0.949 . S
C3856 C3862 1.368 . S
C3857 C3841 1.349 . S
C3857 H3849 0.950 . S
C3857 C3855 1.327 . S
C3858 C3846 1.349 . S
C3858 H3852 0.950 . S
C3858 C3859 1.327 . S
C3859 H3853 0.950 . S
C3859 C3858 1.327 . S
C3859 C3863 1.429 . S
C3860 C3843 1.574 . S
C3860 H3854 0.949 . S
C3860 C3864 1.368 . S
C3861 C3842 1.429 . S
C3861 C3855 1.429 . S
C3861 C3862 1.523 . S
C3862 C3843 1.368 . S
C3862 C3856 1.368 . S
C3862 C3861 1.523 . S
C3863 C3847 1.429 . S
C3863 C3859 1.429 . S
C3863 C3864 1.523 . S
C3864 C3848 1.368 . S
C3864 C3860 1.368 . S
C3864 C3863 1.523 . S
H3865 C3840 0.950 . S
H3866 C3842 0.950 . S
H3867 C3843 0.949 . S
H3868 C3845 0.950 . S
H3869 C3847 0.950 . S
C3870 C3871 1.349 . S
C3870 C3872 1.327 . S
C3870 H3895 0.950 . S
C3871 C3870 1.349 . S
C3871 C3887 1.349 . S
C3872 C3870 1.327 . S
C3872 C3891 1.429 . S
C3872 H3896 0.950 . S
C3873 C3890 1.574 . S
C3873 C3892 1.368 . S
C3873 H3897 0.949 . S
H3874 C3878 0.949 . S
C3875 C3876 1.349 . S
C3875 C3877 1.327 . S
C3875 H3898 0.950 . S
C3876 C3875 1.349 . S
C3876 C3888 1.349 . S
C3877 C3875 1.327 . S
C3877 C3893 1.429 . S
C3877 H3899 0.950 . S
C3878 H3874 0.949 . S
C3878 C3886 1.574 . S
C3878 C3894 1.368 . S
H3879 C3887 0.950 . S
H3880 C3885 0.950 . S
H3881 C3886 0.949 . S
H3882 C3888 0.950 . S
H3883 C3889 0.950 . S
H3884 C3890 0.949 . S
C3885 H3880 0.950 . S
C3885 C3887 1.327 . S
C3885 C3891 1.429 . S
C3886 C3878 1.574 . S
C3886 H3881 0.949 . S
C3886 C3892 1.368 . S
C3887 C3871 1.349 . S
C3887 H3879 0.950 . S
C3887 C3885 1.327 . S
C3888 C3876 1.349 . S
C3888 H3882 0.950 . S
C3888 C3889 1.327 . S
C3889 H3883 0.950 . S
C3889 C3888 1.327 . S
C3889 C3893 1.429 . S
C3890 C3873 1.574 . S
C3890 H3884 0.949 . S
C3890 C3894 1.368 . S
C3891 C3872 1.429 . S
C3891 C3885 1.429 . S
C3891 C3892 1.523 . S
C3892 C3873 1.368 . S
C3892 C3886 1.368 . S
C3892 C3891 1.523 . S
C3893 C3877 1.429 . S
C3893 C3889 1.429 . S
C3893 C3894 1.523 . S
C3894 C3878 1.368 . S
C3894 C3890 1.368 . S
C3894 C3893 1.523 . S
H3895 C3870 0.950 . S
H3896 C3872 0.950 . S
H3897 C3873 0.949 . S
H3898 C3875 0.950 . S
H3899 C3877 0.950 . S
C3900 C3901 1.349 . S
C3900 C3902 1.327 . S
C3900 H3925 0.950 . S
C3901 C3900 1.349 . S
C3901 C3917 1.349 . S
C3902 C3900 1.327 . S
C3902 C3921 1.429 . S
C3902 H3926 0.950 . S
C3903 C3920 1.574 . S
C3903 C3922 1.368 . S
C3903 H3927 0.949 . S
H3904 C3908 0.949 . S
C3905 C3906 1.349 . S
C3905 C3907 1.327 . S
C3905 H3928 0.950 . S
C3906 C3905 1.349 . S
C3906 C3918 1.349 . S
C3907 C3905 1.327 . S
C3907 C3923 1.429 . S
C3907 H3929 0.950 . S
C3908 H3904 0.949 . S
C3908 C3916 1.574 . S
C3908 C3924 1.368 . S
H3909 C3917 0.950 . S
H3910 C3915 0.950 . S
H3911 C3916 0.949 . S
H3912 C3918 0.950 . S
H3913 C3919 0.950 . S
H3914 C3920 0.949 . S
C3915 H3910 0.950 . S
C3915 C3917 1.327 . S
C3915 C3921 1.429 . S
C3916 C3908 1.574 . S
C3916 H3911 0.949 . S
C3916 C3922 1.368 . S
C3917 C3901 1.349 . S
C3917 H3909 0.950 . S
C3917 C3915 1.327 . S
C3918 C3906 1.349 . S
C3918 H3912 0.950 . S
C3918 C3919 1.327 . S
C3919 H3913 0.950 . S
C3919 C3918 1.327 . S
C3919 C3923 1.429 . S
C3920 C3903 1.574 . S
C3920 H3914 0.949 . S
C3920 C3924 1.368 . S
C3921 C3902 1.429 . S
C3921 C3915 1.429 . S
C3921 C3922 1.523 . S
C3922 C3903 1.368 . S
C3922 C3916 1.368 . S
C3922 C3921 1.523 . S
C3923 C3907 1.429 . S
C3923 C3919 1.429 . S
C3923 C3924 1.523 . S
C3924 C3908 1.368 . S
C3924 C3920 1.368 . S
C3924 C3923 1.523 . S
H3925 C3900 0.950 . S
H3926 C3902 0.950 . S
H3927 C3903 0.949 . S
H3928 C3905 0.950 . S
H3929 C3907 0.950 . S
C3930 C3931 1.349 . S
C3930 C3932 1.327 . S
C3930 H3955 0.950 . S
C3931 C3930 1.349 . S
C3931 C3947 1.349 . S
C3932 C3930 1.327 . S
C3932 C3951 1.429 . S
C3932 H3956 0.950 . S
C3933 C3950 1.574 . S
C3933 C3952 1.368 . S
C3933 H3957 0.949 . S
H3934 C3938 0.949 . S
C3935 C3936 1.349 . S
C3935 C3937 1.327 . S
C3935 H3958 0.950 . S
C3936 C3935 1.349 . S
C3936 C3948 1.349 . S
C3937 C3935 1.327 . S
C3937 C3953 1.429 . S
C3937 H3959 0.950 . S
C3938 H3934 0.949 . S
C3938 C3946 1.574 . S
C3938 C3954 1.368 . S
H3939 C3947 0.950 . S
H3940 C3945 0.950 . S
H3941 C3946 0.949 . S
H3942 C3948 0.950 . S
H3943 C3949 0.950 . S
H3944 C3950 0.949 . S
C3945 H3940 0.950 . S
C3945 C3947 1.327 . S
C3945 C3951 1.429 . S
C3946 C3938 1.574 . S
C3946 H3941 0.949 . S
C3946 C3952 1.368 . S
C3947 C3931 1.349 . S
C3947 H3939 0.950 . S
C3947 C3945 1.327 . S
C3948 C3936 1.349 . S
C3948 H3942 0.950 . S
C3948 C3949 1.327 . S
C3949 H3943 0.950 . S
C3949 C3948 1.327 . S
C3949 C3953 1.429 . S
C3950 C3933 1.574 . S
C3950 H3944 0.949 . S
C3950 C3954 1.368 . S
C3951 C3932 1.429 . S
C3951 C3945 1.429 . S
C3951 C3952 1.523 . S
C3952 C3933 1.368 . S
C3952 C3946 1.368 . S
C3952 C3951 1.523 . S
C3953 C3937 1.429 . S
C3953 C3949 1.429 . S
C3953 C3954 1.523 . S
C3954 C3938 1.368 . S
C3954 C3950 1.368 . S
C3954 C3953 1.523 . S
H3955 C3930 0.950 . S
H3956 C3932 0.950 . S
H3957 C3933 0.949 . S
H3958 C3935 0.950 . S
H3959 C3937 0.950 . S
C721 C8 1.410 . S
C726 C59 1.468 . S
C751 C19 1.468 . S
C756 C28 1.410 . S
C781 C48 1.410 . S
C786 C39 1.468 . S
C811 C68 1.458 . S
C816 C99 1.515 . S
C841 C119 1.515 . S
C846 C88 1.457 . S
C871 C108 1.457 . S
C876 C79 1.515 . S
C901 C129 1.410 . S
C906 C178 1.468 . S
C931 C149 1.410 . S
C936 C138 1.468 . S
C961 C169 1.410 . S
C966 C158 1.468 . S
C991 C189 1.458 . S
C996 C218 1.515 . S
C1021 C238 1.515 . S
C1026 C209 1.457 . S
C1051 C198 1.515 . S
C1056 C229 1.457 . S
C1081 C299 1.510 . S
C1086 C248 1.451 . S
C1111 C268 1.451 . S
C1116 C259 1.509 . S
C1141 C279 1.509 . S
C1146 C288 1.451 . S
C1171 C308 1.472 . S
C1176 C339 1.530 . S
C1201 C359 1.529 . S
C1206 C328 1.471 . S
C1231 C319 1.529 . S
C1236 C348 1.471 . S
C1261 C369 1.437 . S
C1266 C418 1.496 . S
C1291 C389 1.437 . S
C1296 C378 1.496 . S
C1321 C398 1.496 . S
C1326 C409 1.437 . S
C1351 C458 1.434 . S
C1356 C429 1.378 1_554 S
C1381 C449 1.378 1_554 S
C1386 C478 1.434 . S
C1411 C438 1.434 . S
C1416 C469 1.378 1_554 S
C1441 C488 1.437 . S
C1446 C539 1.496 . S
C1471 C508 1.437 . S
C1476 C499 1.496 . S
C1501 C528 1.437 . S
C1506 C519 1.496 . S
C1531 C548 1.378 1_556 S
C1536 C579 1.434 . S
C1561 C568 1.378 1_556 S
C1566 C599 1.434 . S
C1591 C588 1.378 1_556 S
C1596 C559 1.434 . S
C1621 C609 1.451 . S
C1626 C658 1.510 . S
C1651 C629 1.451 . S
C1656 C618 1.509 . S
C1681 C638 1.509 . S
C1686 C649 1.451 . S
C1711 C669 1.472 . S
C1716 C698 1.530 . S
C1741 C689 1.471 . S
C1746 C718 1.529 . S
C1771 C678 1.529 . S
C1776 C709 1.471 . S
C1801 C18 1.300 . S
C1806 C408 1.316 . S
C1831 C368 1.317 . S
C1836 C38 1.300 . S
C1861 C58 1.300 . S
C1866 C388 1.317 . S
C1891 C78 1.226 . S
C1896 C688 1.236 . S
C1921 C708 1.237 . S
C1926 C98 1.226 . S
C1951 C118 1.226 . S
C1956 C668 1.237 . S
C1981 C529 1.316 . S
C1986 C139 1.300 . S
C2011 C159 1.300 . S
C2016 C489 1.317 . S
C2041 C179 1.300 . S
C2046 C509 1.317 . S
C2071 C329 1.236 . S
C2076 C199 1.226 . S
C2101 C349 1.237 . S
C2106 C219 1.226 . S
C2131 C309 1.237 . S
C2136 C239 1.226 . S
C2161 C258 1.263 . S
C2166 C648 1.277 . S
C2191 C278 1.263 . S
C2196 C608 1.277 . S
C2221 C628 1.277 . S
C2226 C298 1.263 . S
C2251 C208 1.261 . S
C2256 C318 1.249 . S
C2281 C228 1.261 . S
C2286 C338 1.249 . S
C2311 C188 1.261 . S
C2316 C358 1.249 . S
C2341 C49 1.312 . S
C2346 C379 1.295 . S
C2371 C399 1.295 . S
C2376 C9 1.313 . S
C2401 C419 1.295 . S
C2406 C29 1.312 . S
C2431 C569 1.261 1_554 S
C2436 C439 1.260 . S
C2461 C589 1.261 1_554 S
C2466 C459 1.260 . S
C2491 C479 1.262 . S
C2496 C549 1.261 1_554 S
C2521 C168 1.312 . S
C2526 C498 1.295 . S
C2551 C128 1.313 . S
C2556 C518 1.295 . S
C2581 C148 1.312 . S
C2586 C538 1.295 . S
C2611 C558 1.262 . S
C2616 C448 1.261 1_556 S
C2641 C468 1.261 1_556 S
C2646 C578 1.260 . S
C2671 C598 1.262 . S
C2676 C428 1.261 1_556 S
C2701 C619 1.263 . S
C2706 C289 1.277 . S
C2731 C639 1.263 . S
C2736 C249 1.277 . S
C2761 C659 1.263 . S
C2766 C269 1.277 . S
C2791 C679 1.249 . S
C2796 C89 1.261 . S
C2821 C109 1.261 . S
C2826 C699 1.249 . S
C2851 C69 1.261 . S
C2856 C719 1.249 . S
C2881 C582 1.961 . S
C2886 C2 1.952 . S
C2911 C542 1.961 . S
C2916 C22 1.952 . S
C2941 C42 1.964 . S
C2946 C562 1.950 . S
C2971 C262 2.180 . S
C2976 C62 2.179 . S
C3001 C82 2.179 . S
C3006 C282 2.180 . S
C3031 C102 2.179 . S
C3036 C242 2.180 . S
C3061 C121 1.963 . S
C3066 C461 1.950 . S
C3091 C141 1.964 . S
C3096 C421 1.950 . S
C3121 C161 1.964 . S
C3126 C441 1.950 . S
C3151 C621 2.180 . S
C3156 C181 2.179 . S
C3181 C641 2.180 . S
C3186 C201 2.179 . S
C3211 C601 2.180 . S
C3216 C221 2.179 . S
C3241 C302 2.242 . S
C3246 C502 2.245 . S
C3271 C322 2.242 . S
C3276 C522 2.245 . S
C3301 C342 2.242 . S
C3306 C482 2.245 . S
C3331 C361 2.245 . S
C3336 C701 2.242 . S
C3361 C661 2.242 . S
C3366 C381 2.245 . S
C3391 C401 2.245 . S
C3396 C681 2.242 . S
C3421 C81 1.319 . S
C3426 C1 1.319 . S
C3451 C101 1.319 . S
C3456 C21 1.319 . S
C3481 C61 1.319 . S
C3486 C41 1.319 . S
C3511 C122 1.319 . S
C3516 C202 1.319 . S
C3541 C222 1.319 . S
C3546 C142 1.319 . S
C3571 C162 1.319 . S
C3576 C182 1.319 . S
C3601 C321 1.398 . S
C3606 C241 1.399 . S
C3631 C341 1.399 . S
C3636 C261 1.399 . S
C3661 C301 1.399 . S
C3666 C281 1.399 . S
C3691 C442 1.592 . S
C3696 C362 1.610 . S
C3721 C382 1.600 . S
C3726 C462 1.602 . S
C3751 C402 1.599 . S
C3756 C422 1.602 . S
C3781 C481 1.599 . S
C3786 C561 1.602 . S
C3811 C581 1.592 . S
C3816 C501 1.610 . S
C3841 C521 1.599 . S
C3846 C541 1.602 . S
C3871 C602 1.399 . S
C3876 C682 1.398 . S
C3901 C702 1.399 . S
C3906 C622 1.399 . S
C3931 C642 1.399 . S
C3936 C662 1.399 . S
