# Generated by pormake.
# Topology ukr, (4)-cn, num edge types: 1
# Building blocks:
#     Node 0, Type 0, BuildingBlock: NAHDIM_clean_sbu_0, # of connection points: 4
#     Node 1, Type 0, BuildingBlock: NAHDIM_clean_sbu_0, # of connection points: 4
#     Node 2, Type 0, BuildingBlock: NAHDIM_clean_sbu_0, # of connection points: 4
#     Node 3, Type 0, BuildingBlock: NAHDIM_clean_sbu_0, # of connection points: 4
#     Node 4, Type 0, BuildingBlock: NAHDIM_clean_sbu_0, # of connection points: 4
#     Node 5, Type 0, BuildingBlock: NAHDIM_clean_sbu_0, # of connection points: 4
#     Node 6, Type 0, BuildingBlock: NAHDIM_clean_sbu_0, # of connection points: 4
#     Node 7, Type 0, BuildingBlock: NAHDIM_clean_sbu_0, # of connection points: 4
#     Node 8, Type 0, BuildingBlock: NAHDIM_clean_sbu_0, # of connection points: 4
#     Node 9, Type 0, BuildingBlock: NAHDIM_clean_sbu_0, # of connection points: 4
#     Node 10, Type 0, BuildingBlock: NAHDIM_clean_sbu_0, # of connection points: 4
#     Node 11, Type 0, BuildingBlock: NAHDIM_clean_sbu_0, # of connection points: 4
#     Node 12, Type 0, BuildingBlock: NAHDIM_clean_sbu_0, # of connection points: 4
#     Node 13, Type 0, BuildingBlock: NAHDIM_clean_sbu_0, # of connection points: 4
#     Node 14, Type 0, BuildingBlock: NAHDIM_clean_sbu_0, # of connection points: 4
#     Node 15, Type 0, BuildingBlock: NAHDIM_clean_sbu_0, # of connection points: 4
#     Node 16, Type 0, BuildingBlock: NAHDIM_clean_sbu_0, # of connection points: 4
#     Node 17, Type 0, BuildingBlock: NAHDIM_clean_sbu_0, # of connection points: 4
#     Node 18, Type 0, BuildingBlock: NAHDIM_clean_sbu_0, # of connection points: 4
#     Node 19, Type 0, BuildingBlock: NAHDIM_clean_sbu_0, # of connection points: 4
#     Node 20, Type 0, BuildingBlock: NAHDIM_clean_sbu_0, # of connection points: 4
#     Node 21, Type 0, BuildingBlock: NAHDIM_clean_sbu_0, # of connection points: 4
#     Node 22, Type 0, BuildingBlock: NAHDIM_clean_sbu_0, # of connection points: 4
#     Node 23, Type 0, BuildingBlock: NAHDIM_clean_sbu_0, # of connection points: 4
#     Node 24, Type 0, BuildingBlock: NAHDIM_clean_sbu_0, # of connection points: 4
#     Node 25, Type 0, BuildingBlock: NAHDIM_clean_sbu_0, # of connection points: 4
#     Node 26, Type 0, BuildingBlock: NAHDIM_clean_sbu_0, # of connection points: 4
#     Node 27, Type 0, BuildingBlock: NAHDIM_clean_sbu_0, # of connection points: 4
#     Node 28, Type 0, BuildingBlock: NAHDIM_clean_sbu_0, # of connection points: 4
#     Node 29, Type 0, BuildingBlock: NAHDIM_clean_sbu_0, # of connection points: 4
#     Node 30, Type 0, BuildingBlock: NAHDIM_clean_sbu_0, # of connection points: 4
#     Node 31, Type 0, BuildingBlock: NAHDIM_clean_sbu_0, # of connection points: 4
#     Node 32, Type 0, BuildingBlock: NAHDIM_clean_sbu_0, # of connection points: 4
#     Node 33, Type 0, BuildingBlock: NAHDIM_clean_sbu_0, # of connection points: 4
#     Node 34, Type 0, BuildingBlock: NAHDIM_clean_sbu_0, # of connection points: 4
#     Node 35, Type 0, BuildingBlock: NAHDIM_clean_sbu_0, # of connection points: 4
#     Node 36, Type 0, BuildingBlock: NAHDIM_clean_sbu_0, # of connection points: 4
#     Node 37, Type 0, BuildingBlock: NAHDIM_clean_sbu_0, # of connection points: 4
#     Node 38, Type 0, BuildingBlock: NAHDIM_clean_sbu_0, # of connection points: 4
#     Node 39, Type 0, BuildingBlock: NAHDIM_clean_sbu_0, # of connection points: 4
#     Node 40, Type 0, BuildingBlock: NAHDIM_clean_sbu_0, # of connection points: 4
#     Node 41, Type 0, BuildingBlock: NAHDIM_clean_sbu_0, # of connection points: 4
#     Node 42, Type 0, BuildingBlock: NAHDIM_clean_sbu_0, # of connection points: 4
#     Node 43, Type 0, BuildingBlock: NAHDIM_clean_sbu_0, # of connection points: 4
#     Node 44, Type 0, BuildingBlock: NAHDIM_clean_sbu_0, # of connection points: 4
#     Node 45, Type 0, BuildingBlock: NAHDIM_clean_sbu_0, # of connection points: 4
#     Node 46, Type 0, BuildingBlock: NAHDIM_clean_sbu_0, # of connection points: 4
#     Node 47, Type 0, BuildingBlock: NAHDIM_clean_sbu_0, # of connection points: 4
#     Edge 48, Type (0, 0), BuildingBlock: KIFKEQ_clean_linker_1, # of connection points: 2
#     Edge 49, Type (0, 0), BuildingBlock: KIFKEQ_clean_linker_1, # of connection points: 2
#     Edge 50, Type (0, 0), BuildingBlock: KIFKEQ_clean_linker_1, # of connection points: 2
#     Edge 51, Type (0, 0), BuildingBlock: KIFKEQ_clean_linker_1, # of connection points: 2
#     Edge 52, Type (0, 0), BuildingBlock: KIFKEQ_clean_linker_1, # of connection points: 2
#     Edge 53, Type (0, 0), BuildingBlock: KIFKEQ_clean_linker_1, # of connection points: 2
#     Edge 54, Type (0, 0), BuildingBlock: KIFKEQ_clean_linker_1, # of connection points: 2
#     Edge 55, Type (0, 0), BuildingBlock: KIFKEQ_clean_linker_1, # of connection points: 2
#     Edge 56, Type (0, 0), BuildingBlock: KIFKEQ_clean_linker_1, # of connection points: 2
#     Edge 57, Type (0, 0), BuildingBlock: KIFKEQ_clean_linker_1, # of connection points: 2
#     Edge 58, Type (0, 0), BuildingBlock: KIFKEQ_clean_linker_1, # of connection points: 2
#     Edge 59, Type (0, 0), BuildingBlock: KIFKEQ_clean_linker_1, # of connection points: 2
#     Edge 60, Type (0, 0), BuildingBlock: KIFKEQ_clean_linker_1, # of connection points: 2
#     Edge 61, Type (0, 0), BuildingBlock: KIFKEQ_clean_linker_1, # of connection points: 2
#     Edge 62, Type (0, 0), BuildingBlock: KIFKEQ_clean_linker_1, # of connection points: 2
#     Edge 63, Type (0, 0), BuildingBlock: KIFKEQ_clean_linker_1, # of connection points: 2
#     Edge 64, Type (0, 0), BuildingBlock: KIFKEQ_clean_linker_1, # of connection points: 2
#     Edge 65, Type (0, 0), BuildingBlock: KIFKEQ_clean_linker_1, # of connection points: 2
#     Edge 66, Type (0, 0), BuildingBlock: KIFKEQ_clean_linker_1, # of connection points: 2
#     Edge 67, Type (0, 0), BuildingBlock: KIFKEQ_clean_linker_1, # of connection points: 2
#     Edge 68, Type (0, 0), BuildingBlock: KIFKEQ_clean_linker_1, # of connection points: 2
#     Edge 69, Type (0, 0), BuildingBlock: KIFKEQ_clean_linker_1, # of connection points: 2
#     Edge 70, Type (0, 0), BuildingBlock: KIFKEQ_clean_linker_1, # of connection points: 2
#     Edge 71, Type (0, 0), BuildingBlock: KIFKEQ_clean_linker_1, # of connection points: 2
#     Edge 72, Type (0, 0), BuildingBlock: KIFKEQ_clean_linker_1, # of connection points: 2
#     Edge 73, Type (0, 0), BuildingBlock: KIFKEQ_clean_linker_1, # of connection points: 2
#     Edge 74, Type (0, 0), BuildingBlock: KIFKEQ_clean_linker_1, # of connection points: 2
#     Edge 75, Type (0, 0), BuildingBlock: KIFKEQ_clean_linker_1, # of connection points: 2
#     Edge 76, Type (0, 0), BuildingBlock: KIFKEQ_clean_linker_1, # of connection points: 2
#     Edge 77, Type (0, 0), BuildingBlock: KIFKEQ_clean_linker_1, # of connection points: 2
#     Edge 78, Type (0, 0), BuildingBlock: KIFKEQ_clean_linker_1, # of connection points: 2
#     Edge 79, Type (0, 0), BuildingBlock: KIFKEQ_clean_linker_1, # of connection points: 2
#     Edge 80, Type (0, 0), BuildingBlock: KIFKEQ_clean_linker_1, # of connection points: 2
#     Edge 81, Type (0, 0), BuildingBlock: KIFKEQ_clean_linker_1, # of connection points: 2
#     Edge 82, Type (0, 0), BuildingBlock: KIFKEQ_clean_linker_1, # of connection points: 2
#     Edge 83, Type (0, 0), BuildingBlock: KIFKEQ_clean_linker_1, # of connection points: 2
#     Edge 84, Type (0, 0), BuildingBlock: KIFKEQ_clean_linker_1, # of connection points: 2
#     Edge 85, Type (0, 0), BuildingBlock: KIFKEQ_clean_linker_1, # of connection points: 2
#     Edge 86, Type (0, 0), BuildingBlock: KIFKEQ_clean_linker_1, # of connection points: 2
#     Edge 87, Type (0, 0), BuildingBlock: KIFKEQ_clean_linker_1, # of connection points: 2
#     Edge 88, Type (0, 0), BuildingBlock: KIFKEQ_clean_linker_1, # of connection points: 2
#     Edge 89, Type (0, 0), BuildingBlock: KIFKEQ_clean_linker_1, # of connection points: 2
#     Edge 90, Type (0, 0), BuildingBlock: KIFKEQ_clean_linker_1, # of connection points: 2
#     Edge 91, Type (0, 0), BuildingBlock: KIFKEQ_clean_linker_1, # of connection points: 2
#     Edge 92, Type (0, 0), BuildingBlock: KIFKEQ_clean_linker_1, # of connection points: 2
#     Edge 93, Type (0, 0), BuildingBlock: KIFKEQ_clean_linker_1, # of connection points: 2
#     Edge 94, Type (0, 0), BuildingBlock: KIFKEQ_clean_linker_1, # of connection points: 2
#     Edge 95, Type (0, 0), BuildingBlock: KIFKEQ_clean_linker_1, # of connection points: 2
#     Edge 96, Type (0, 0), BuildingBlock: KIFKEQ_clean_linker_1, # of connection points: 2
#     Edge 97, Type (0, 0), BuildingBlock: KIFKEQ_clean_linker_1, # of connection points: 2
#     Edge 98, Type (0, 0), BuildingBlock: KIFKEQ_clean_linker_1, # of connection points: 2
#     Edge 99, Type (0, 0), BuildingBlock: KIFKEQ_clean_linker_1, # of connection points: 2
#     Edge 100, Type (0, 0), BuildingBlock: KIFKEQ_clean_linker_1, # of connection points: 2
#     Edge 101, Type (0, 0), BuildingBlock: KIFKEQ_clean_linker_1, # of connection points: 2
#     Edge 102, Type (0, 0), BuildingBlock: KIFKEQ_clean_linker_1, # of connection points: 2
#     Edge 103, Type (0, 0), BuildingBlock: KIFKEQ_clean_linker_1, # of connection points: 2
#     Edge 104, Type (0, 0), BuildingBlock: KIFKEQ_clean_linker_1, # of connection points: 2
#     Edge 105, Type (0, 0), BuildingBlock: KIFKEQ_clean_linker_1, # of connection points: 2
#     Edge 106, Type (0, 0), BuildingBlock: KIFKEQ_clean_linker_1, # of connection points: 2
#     Edge 107, Type (0, 0), BuildingBlock: KIFKEQ_clean_linker_1, # of connection points: 2
#     Edge 108, Type (0, 0), BuildingBlock: KIFKEQ_clean_linker_1, # of connection points: 2
#     Edge 109, Type (0, 0), BuildingBlock: KIFKEQ_clean_linker_1, # of connection points: 2
#     Edge 110, Type (0, 0), BuildingBlock: KIFKEQ_clean_linker_1, # of connection points: 2
#     Edge 111, Type (0, 0), BuildingBlock: KIFKEQ_clean_linker_1, # of connection points: 2
#     Edge 112, Type (0, 0), BuildingBlock: KIFKEQ_clean_linker_1, # of connection points: 2
#     Edge 113, Type (0, 0), BuildingBlock: KIFKEQ_clean_linker_1, # of connection points: 2
#     Edge 114, Type (0, 0), BuildingBlock: KIFKEQ_clean_linker_1, # of connection points: 2
#     Edge 115, Type (0, 0), BuildingBlock: KIFKEQ_clean_linker_1, # of connection points: 2
#     Edge 116, Type (0, 0), BuildingBlock: KIFKEQ_clean_linker_1, # of connection points: 2
#     Edge 117, Type (0, 0), BuildingBlock: KIFKEQ_clean_linker_1, # of connection points: 2
#     Edge 118, Type (0, 0), BuildingBlock: KIFKEQ_clean_linker_1, # of connection points: 2
#     Edge 119, Type (0, 0), BuildingBlock: KIFKEQ_clean_linker_1, # of connection points: 2
#     Edge 120, Type (0, 0), BuildingBlock: KIFKEQ_clean_linker_1, # of connection points: 2
#     Edge 121, Type (0, 0), BuildingBlock: KIFKEQ_clean_linker_1, # of connection points: 2
#     Edge 122, Type (0, 0), BuildingBlock: KIFKEQ_clean_linker_1, # of connection points: 2
#     Edge 123, Type (0, 0), BuildingBlock: KIFKEQ_clean_linker_1, # of connection points: 2
#     Edge 124, Type (0, 0), BuildingBlock: KIFKEQ_clean_linker_1, # of connection points: 2
#     Edge 125, Type (0, 0), BuildingBlock: KIFKEQ_clean_linker_1, # of connection points: 2
#     Edge 126, Type (0, 0), BuildingBlock: KIFKEQ_clean_linker_1, # of connection points: 2
#     Edge 127, Type (0, 0), BuildingBlock: KIFKEQ_clean_linker_1, # of connection points: 2
#     Edge 128, Type (0, 0), BuildingBlock: KIFKEQ_clean_linker_1, # of connection points: 2
#     Edge 129, Type (0, 0), BuildingBlock: KIFKEQ_clean_linker_1, # of connection points: 2
#     Edge 130, Type (0, 0), BuildingBlock: KIFKEQ_clean_linker_1, # of connection points: 2
#     Edge 131, Type (0, 0), BuildingBlock: KIFKEQ_clean_linker_1, # of connection points: 2
#     Edge 132, Type (0, 0), BuildingBlock: KIFKEQ_clean_linker_1, # of connection points: 2
#     Edge 133, Type (0, 0), BuildingBlock: KIFKEQ_clean_linker_1, # of connection points: 2
#     Edge 134, Type (0, 0), BuildingBlock: KIFKEQ_clean_linker_1, # of connection points: 2
#     Edge 135, Type (0, 0), BuildingBlock: KIFKEQ_clean_linker_1, # of connection points: 2
#     Edge 136, Type (0, 0), BuildingBlock: KIFKEQ_clean_linker_1, # of connection points: 2
#     Edge 137, Type (0, 0), BuildingBlock: KIFKEQ_clean_linker_1, # of connection points: 2
#     Edge 138, Type (0, 0), BuildingBlock: KIFKEQ_clean_linker_1, # of connection points: 2
#     Edge 139, Type (0, 0), BuildingBlock: KIFKEQ_clean_linker_1, # of connection points: 2
#     Edge 140, Type (0, 0), BuildingBlock: KIFKEQ_clean_linker_1, # of connection points: 2
#     Edge 141, Type (0, 0), BuildingBlock: KIFKEQ_clean_linker_1, # of connection points: 2
#     Edge 142, Type (0, 0), BuildingBlock: KIFKEQ_clean_linker_1, # of connection points: 2
#     Edge 143, Type (0, 0), BuildingBlock: KIFKEQ_clean_linker_1, # of connection points: 2
# Relax obj value: 0.402
# Max RMSD: 0.185
# Mean RMSD: 0.185
data_MOF--net-ukr--node1-NAHDIM_clean_sbu_0--edge1-KIFKEQ_clean_linker_1
_symmetry_space_group_name_H-M    P1
_symmetry_Int_Tables_number       1
_symmetry_cell_setting            triclinic
loop_
_symmetry_equiv_pos_as_xyz
'x, y, z'
_cell_length_a     69.129136
_cell_length_b     69.138537
_cell_length_c     69.160763
_cell_angle_alpha  90.027807
_cell_angle_beta   90.039424
_cell_angle_gamma 89.971914
loop_
_atom_site_label
_atom_site_type_symbol
_atom_site_fract_x
_atom_site_fract_y
_atom_site_fract_z
_atom_type_partial_charge
C0 C 0.06661 0.29641 0.16926 0.0
O1 O 0.07404 0.3034 0.18529 0.0
O2 O 0.09889 0.2511 0.18459 0.0
Zn3 Zn 0.10234 0.27548 0.16888 0.0
O4 O 0.11568 0.29522 0.18567 0.0
C5 C 0.12054 0.25228 0.13961 0.0
O6 O 0.10695 0.23995 0.14454 0.0
O7 O 0.07647 0.28451 0.15931 0.0
C8 C 0.13215 0.28997 0.19196 0.0
O9 O 0.13897 0.27302 0.18668 0.0
C10 C 0.09866 0.25089 0.20298 0.0
O11 O 0.09948 0.26729 0.21253 0.0
O12 O 0.12052 0.26904 0.14715 0.0
C13 C 0.19635 0.56736 0.65782 0.0
O14 O 0.18092 0.57794 0.66119 0.0
O15 O 0.24263 0.6004 0.68675 0.0
Zn16 Zn 0.21753 0.6007 0.67207 0.0
O17 O 0.19741 0.60787 0.69168 0.0
C18 C 0.23504 0.62093 0.64108 0.0
O19 O 0.24695 0.60617 0.64247 0.0
O20 O 0.213 0.57443 0.661 0.0
C21 C 0.18449 0.62065 0.68906 0.0
O22 O 0.18285 0.62887 0.67202 0.0
C23 C 0.24983 0.6168 0.69087 0.0
O24 O 0.2407 0.63255 0.6854 0.0
O25 O 0.21992 0.62111 0.65152 0.0
C26 C 0.93618 0.71009 0.1783 0.0
O27 O 0.93092 0.71317 0.1963 0.0
O28 O 0.89853 0.7409 0.19117 0.0
Zn29 Zn 0.89685 0.71662 0.17498 0.0
O30 O 0.88697 0.69501 0.19182 0.0
C31 C 0.86045 0.72418 0.15885 0.0
O32 O 0.85595 0.72088 0.177 0.0
O33 O 0.92335 0.71034 0.16516 0.0
C34 C 0.87581 0.68154 0.18622 0.0
O35 O 0.87122 0.68026 0.16782 0.0
C36 C 0.89008 0.74221 0.20745 0.0
O37 O 0.88056 0.72722 0.21418 0.0
O38 O 0.878 0.72266 0.15361 0.0
C39 C 0.79897 0.42839 0.67129 0.0
O40 O 0.80749 0.421 0.68658 0.0
O41 O 0.74854 0.40128 0.68802 0.0
Zn42 Zn 0.7742 0.39522 0.67557 0.0
O43 O 0.79159 0.38443 0.69625 0.0
C44 C 0.7629 0.35881 0.66363 0.0
O45 O 0.76175 0.35783 0.68258 0.0
O46 O 0.78486 0.41942 0.66367 0.0
C47 C 0.80705 0.37491 0.69349 0.0
O48 O 0.81334 0.37225 0.67577 0.0
C49 C 0.74679 0.40273 0.70626 0.0
O50 O 0.76228 0.40164 0.71721 0.0
O51 O 0.76887 0.37441 0.65598 0.0
C52 C 0.06838 0.7048 0.82217 0.0
O53 O 0.07485 0.69558 0.80688 0.0
O54 O 0.10591 0.74554 0.8036 0.0
Zn55 Zn 0.10606 0.72165 0.82025 0.0
O56 O 0.11462 0.69961 0.8033 0.0
C57 C 0.12646 0.74304 0.84877 0.0
O58 O 0.11386 0.75618 0.8433 0.0
O59 O 0.07938 0.71679 0.83072 0.0
C60 C 0.1322 0.69456 0.80177 0.0
O61 O 0.14533 0.70318 0.81247 0.0
C62 C 0.10252 0.74497 0.78554 0.0
O63 O 0.09787 0.72839 0.77749 0.0
O64 O 0.1254 0.72617 0.84156 0.0
C65 C 0.79996 0.57286 0.32866 0.0
O66 O 0.81068 0.58079 0.31514 0.0
O67 O 0.75068 0.60348 0.30979 0.0
Zn68 Zn 0.77657 0.60697 0.32286 0.0
O69 O 0.79589 0.61641 0.30323 0.0
C70 C 0.76039 0.62491 0.35639 0.0
O71 O 0.75118 0.60832 0.35734 0.0
O72 O 0.78494 0.58168 0.33454 0.0
C73 C 0.79138 0.63029 0.29207 0.0
O74 O 0.7744 0.63862 0.29405 0.0
C75 C 0.74869 0.59957 0.29192 0.0
O76 O 0.76411 0.59657 0.28124 0.0
O77 O 0.77291 0.62737 0.34317 0.0
C78 C 0.92183 0.29631 0.83723 0.0
O79 O 0.91 0.31101 0.83492 0.0
O80 O 0.89155 0.24978 0.80602 0.0
Zn81 Zn 0.88972 0.27342 0.82291 0.0
O82 O 0.87987 0.29518 0.80643 0.0
C83 C 0.87085 0.25025 0.85086 0.0
O84 O 0.88396 0.23797 0.84464 0.0
O85 O 0.91598 0.27933 0.83338 0.0
C86 C 0.86222 0.29474 0.80135 0.0
O87 O 0.85108 0.28084 0.80794 0.0
C88 C 0.89374 0.25022 0.78777 0.0
O89 O 0.89557 0.26696 0.77899 0.0
O90 O 0.87087 0.2674 0.84425 0.0
C91 C 0.1921 0.42344 0.32633 0.0
O92 O 0.18533 0.41683 0.30985 0.0
O93 O 0.24137 0.39537 0.31108 0.0
Zn94 Zn 0.21583 0.38945 0.32377 0.0
O95 O 0.19835 0.37763 0.30365 0.0
C96 C 0.23635 0.37035 0.3542 0.0
O97 O 0.24713 0.38595 0.35309 0.0
O98 O 0.20489 0.41374 0.33527 0.0
C99 C 0.20602 0.36456 0.29324 0.0
O100 O 0.22409 0.35962 0.29652 0.0
C101 C 0.24301 0.40192 0.29399 0.0
O102 O 0.22734 0.40641 0.28422 0.0
O103 O 0.2212 0.36924 0.34384 0.0
C104 C 0.15984 0.07171 0.30516 0.0
O105 O 0.1703 0.07976 0.31883 0.0
O106 O 0.18762 0.10226 0.25947 0.0
Zn107 Zn 0.17109 0.10555 0.28325 0.0
O108 O 0.18922 0.11327 0.30474 0.0
C109 C 0.14461 0.12652 0.26025 0.0
O110 O 0.14902 0.1123 0.24844 0.0
O111 O 0.15782 0.08039 0.28909 0.0
C112 C 0.18875 0.12975 0.31284 0.0
O113 O 0.1751 0.14207 0.30802 0.0
C114 C 0.19937 0.11586 0.25563 0.0
O115 O 0.20037 0.13073 0.26742 0.0
O116 O 0.15177 0.12654 0.27719 0.0
C117 C 0.43318 0.67538 0.79144 0.0
O118 O 0.42665 0.69218 0.79747 0.0
O119 O 0.40484 0.69347 0.74481 0.0
Zn120 Zn 0.39902 0.67702 0.76805 0.0
O121 O 0.38505 0.69459 0.7865 0.0
C122 C 0.3676 0.6482 0.76724 0.0
O123 O 0.36545 0.65159 0.7858 0.0
O124 O 0.42347 0.66595 0.77902 0.0
C125 C 0.38133 0.69301 0.8044 0.0
O126 O 0.38675 0.67745 0.81386 0.0
C127 C 0.40746 0.71162 0.7462 0.0
O128 O 0.40878 0.71947 0.76345 0.0
O129 O 0.38112 0.65655 0.75805 0.0
C130 C 0.82834 0.92466 0.30535 0.0
O131 O 0.81419 0.91687 0.31534 0.0
O132 O 0.81047 0.89333 0.25722 0.0
Zn133 Zn 0.8244 0.88997 0.28254 0.0
O134 O 0.80497 0.87943 0.30137 0.0
C135 C 0.8542 0.87011 0.26228 0.0
O136 O 0.85108 0.88426 0.24999 0.0
O137 O 0.83533 0.91547 0.29105 0.0
C138 C 0.7963 0.86409 0.29615 0.0
O139 O 0.80109 0.85601 0.27963 0.0
C140 C 0.79351 0.90032 0.25603 0.0
O141 O 0.78498 0.90671 0.27176 0.0
O142 O 0.84511 0.87006 0.27824 0.0
C143 C 0.5727 0.33021 0.80317 0.0
O144 O 0.58391 0.32293 0.81669 0.0
O145 O 0.6023 0.3089 0.7524 0.0
Zn146 Zn 0.6055 0.32378 0.77734 0.0
O147 O 0.61895 0.30652 0.79661 0.0
C148 C 0.6217 0.35443 0.75506 0.0
O149 O 0.60875 0.34824 0.74261 0.0
O150 O 0.57922 0.33213 0.78612 0.0
C151 C 0.63509 0.2997 0.79103 0.0
O152 O 0.64179 0.30486 0.77401 0.0
C153 C 0.60165 0.29055 0.75128 0.0
O154 O 0.60244 0.28017 0.76716 0.0
O155 O 0.6225 0.3467 0.77171 0.0
C156 C 0.1774 0.93048 0.69744 0.0
O157 O 0.19478 0.92509 0.69198 0.0
O158 O 0.19218 0.89529 0.73969 0.0
Zn159 Zn 0.17822 0.89286 0.71423 0.0
O160 O 0.19812 0.88436 0.69474 0.0
C161 C 0.16018 0.85517 0.71327 0.0
O162 O 0.17607 0.8505 0.70399 0.0
O163 O 0.16705 0.91876 0.70709 0.0
C164 C 0.19616 0.88169 0.67668 0.0
O165 O 0.17922 0.88452 0.66854 0.0
C166 C 0.20495 0.88257 0.74335 0.0
O167 O 0.20834 0.86898 0.73051 0.0
O168 O 0.1575 0.8727 0.71817 0.0
C169 C 0.56713 0.67792 0.19979 0.0
O170 O 0.57388 0.69561 0.19816 0.0
O171 O 0.60148 0.69243 0.23619 0.0
Zn172 Zn 0.60462 0.67468 0.21315 0.0
O173 O 0.61473 0.69099 0.19131 0.0
C174 C 0.62395 0.6483 0.23806 0.0
O175 O 0.61117 0.65547 0.25015 0.0
O176 O 0.57833 0.66475 0.20604 0.0
C177 C 0.63147 0.68963 0.18389 0.0
O178 O 0.64306 0.67566 0.18951 0.0
C179 C 0.61179 0.70757 0.23778 0.0
O180 O 0.62441 0.71163 0.22419 0.0
O181 O 0.62348 0.6536 0.22046 0.0
C182 C 0.83347 0.06972 0.69296 0.0
O183 O 0.82156 0.07735 0.68028 0.0
O184 O 0.80492 0.09456 0.7416 0.0
Zn185 Zn 0.81982 0.10086 0.71737 0.0
O186 O 0.79986 0.10814 0.6975 0.0
C187 C 0.85093 0.13134 0.71712 0.0
O188 O 0.85773 0.12454 0.70074 0.0
O189 O 0.83549 0.07775 0.70937 0.0
C190 C 0.80198 0.11931 0.68309 0.0
O191 O 0.81912 0.12662 0.67937 0.0
C192 C 0.79158 0.10655 0.7457 0.0
O193 O 0.78843 0.12111 0.7339 0.0
O194 O 0.83625 0.12351 0.7249 0.0
C195 C 0.42288 0.33937 0.22493 0.0
O196 O 0.41773 0.33758 0.24313 0.0
O197 O 0.3863 0.31008 0.2436 0.0
Zn198 Zn 0.38455 0.32473 0.21856 0.0
O199 O 0.37689 0.30525 0.19835 0.0
C200 C 0.36591 0.35852 0.23436 0.0
O201 O 0.38213 0.35967 0.2442 0.0
O202 O 0.41067 0.33545 0.21176 0.0
C203 C 0.36123 0.30573 0.18876 0.0
O204 O 0.34919 0.32022 0.19129 0.0
C205 C 0.39522 0.29403 0.24451 0.0
O206 O 0.40388 0.28735 0.22898 0.0
O207 O 0.36406 0.34525 0.22177 0.0
C208 C 0.30108 0.15498 0.07095 0.0
O209 O 0.31476 0.16529 0.07918 0.0
O210 O 0.25288 0.18177 0.0999 0.0
Zn211 Zn 0.27823 0.16784 0.1036 0.0
O212 O 0.29805 0.18826 0.1099 0.0
C213 C 0.25919 0.13991 0.127 0.0
O214 O 0.24732 0.14002 0.11215 0.0
O215 O 0.28473 0.15354 0.0792 0.0
C216 C 0.30971 0.18681 0.12403 0.0
O217 O 0.31007 0.17073 0.13414 0.0
C218 C 0.24908 0.19525 0.11181 0.0
O219 O 0.26177 0.1994 0.12534 0.0
O220 O 0.2745 0.15003 0.12622 0.0
C221 C 0.29962 0.82341 0.92863 0.0
O222 O 0.30494 0.80595 0.92333 0.0
O223 O 0.25666 0.80777 0.89493 0.0
Zn224 Zn 0.28183 0.82222 0.89162 0.0
O225 O 0.30207 0.80398 0.88136 0.0
C226 C 0.2611 0.85202 0.87184 0.0
O227 O 0.24886 0.84913 0.88607 0.0
O228 O 0.28977 0.83364 0.91699 0.0
C229 C 0.30034 0.79858 0.86389 0.0
O230 O 0.28603 0.80555 0.85349 0.0
C231 C 0.25506 0.7895 0.89361 0.0
O232 O 0.27061 0.7789 0.89099 0.0
O233 O 0.27704 0.84287 0.87181 0.0
C234 C 0.67003 0.79551 0.42429 0.0
O235 O 0.68617 0.80078 0.41583 0.0
O236 O 0.67992 0.74702 0.395 0.0
Zn237 Zn 0.6667 0.7724 0.39004 0.0
O238 O 0.68615 0.78871 0.37566 0.0
C239 C 0.63753 0.77733 0.35974 0.0
O240 O 0.64347 0.79535 0.35921 0.0
O241 O 0.65878 0.78379 0.41567 0.0
C242 C 0.68625 0.80687 0.37277 0.0
O243 O 0.67215 0.81759 0.37966 0.0
C244 C 0.69753 0.74593 0.4002 0.0
O245 O 0.70719 0.76194 0.40359 0.0
O246 O 0.64441 0.766 0.37246 0.0
C247 C 0.69181 0.16237 0.92469 0.0
O248 O 0.67883 0.17106 0.91386 0.0
O249 O 0.7437 0.18075 0.89551 0.0
Zn250 Zn 0.7177 0.16802 0.89191 0.0
O251 O 0.69982 0.18753 0.87957 0.0
C252 C 0.73687 0.1361 0.87371 0.0
O253 O 0.74939 0.13914 0.88769 0.0
O254 O 0.70856 0.15918 0.91787 0.0
C255 C 0.70664 0.19585 0.86467 0.0
O256 O 0.72387 0.19081 0.85844 0.0
C257 C 0.74556 0.19872 0.8989 0.0
O258 O 0.73005 0.20951 0.90097 0.0
O259 O 0.72138 0.14601 0.87332 0.0
C260 C 0.32251 0.20426 0.4273 0.0
O261 O 0.30503 0.20741 0.4205 0.0
O262 O 0.3149 0.2416 0.3928 0.0
Zn263 Zn 0.32968 0.21667 0.38987 0.0
O264 O 0.31108 0.19846 0.37676 0.0
C265 C 0.35507 0.21444 0.35668 0.0
O266 O 0.34414 0.19958 0.3521 0.0
O267 O 0.33692 0.20706 0.41627 0.0
C268 C 0.30679 0.18106 0.38076 0.0
O269 O 0.31598 0.17205 0.39473 0.0
C270 C 0.30516 0.24667 0.37805 0.0
O271 O 0.30585 0.23586 0.36244 0.0
O272 O 0.3524 0.22286 0.3728 0.0
C273 C 0.70717 0.82309 0.07186 0.0
O274 O 0.70536 0.80535 0.07838 0.0
O275 O 0.75082 0.8126 0.10446 0.0
Zn276 Zn 0.72578 0.82716 0.10832 0.0
O277 O 0.70801 0.80825 0.12155 0.0
C278 C 0.72192 0.85328 0.14102 0.0
O279 O 0.70609 0.84333 0.14437 0.0
O280 O 0.71532 0.8357 0.08247 0.0
C281 C 0.68976 0.80664 0.12024 0.0
O282 O 0.67991 0.81912 0.10983 0.0
C283 C 0.75053 0.79448 0.10121 0.0
O284 O 0.73379 0.78578 0.09905 0.0
O285 O 0.73182 0.84954 0.12599 0.0
C286 C 0.65415 0.20009 0.5689 0.0
O287 O 0.65239 0.18427 0.57928 0.0
O288 O 0.68998 0.23726 0.60711 0.0
Zn289 Zn 0.6704 0.21604 0.60401 0.0
O290 O 0.68481 0.19181 0.61094 0.0
C291 C 0.64182 0.23828 0.62337 0.0
O292 O 0.64722 0.25076 0.61013 0.0
O293 O 0.66104 0.21524 0.57668 0.0
C294 C 0.68791 0.18877 0.62878 0.0
O295 O 0.68 0.20037 0.64158 0.0
C296 C 0.69163 0.25248 0.59695 0.0
O297 O 0.6797 0.25548 0.58246 0.0
O298 O 0.64893 0.22133 0.623 0.0
C299 C 0.34099 0.79552 0.56779 0.0
O300 O 0.34233 0.81073 0.5791 0.0
O301 O 0.30847 0.75134 0.60131 0.0
Zn302 Zn 0.32326 0.77645 0.60104 0.0
O303 O 0.30428 0.79769 0.60714 0.0
C304 C 0.3411 0.77714 0.63858 0.0
O305 O 0.32366 0.78259 0.64378 0.0
O306 O 0.33388 0.77993 0.57438 0.0
C307 C 0.308 0.81424 0.6142 0.0
O308 O 0.32603 0.81903 0.61784 0.0
C309 C 0.29416 0.7492 0.61265 0.0
O310 O 0.28926 0.7635 0.62416 0.0
O311 O 0.34463 0.77434 0.62076 0.0
C312 C 0.92527 0.70477 0.83797 0.0
O313 O 0.91468 0.6892 0.83552 0.0
O314 O 0.88832 0.74972 0.81174 0.0
Zn315 Zn 0.89028 0.725 0.82679 0.0
O316 O 0.88264 0.70452 0.80761 0.0
C317 C 0.8536 0.72562 0.84534 0.0
O318 O 0.84819 0.72054 0.82785 0.0
O319 O 0.91762 0.72131 0.83566 0.0
C320 C 0.87483 0.68811 0.81028 0.0
O321 O 0.8713 0.68216 0.82797 0.0
C322 C 0.9019 0.76148 0.80789 0.0
O323 O 0.9194 0.75818 0.81454 0.0
O324 O 0.87153 0.72749 0.84892 0.0
C325 C 0.80168 0.43035 0.33733 0.0
O326 O 0.81696 0.41986 0.33313 0.0
O327 O 0.75458 0.39963 0.30801 0.0
Zn328 Zn 0.77981 0.39753 0.32251 0.0
O329 O 0.80079 0.39083 0.30337 0.0
C330 C 0.77517 0.35924 0.33642 0.0
O331 O 0.77769 0.35575 0.31792 0.0
O332 O 0.78492 0.42333 0.33462 0.0
C333 C 0.81514 0.37985 0.30674 0.0
O334 O 0.81762 0.37281 0.32421 0.0
C335 C 0.75227 0.3918 0.29154 0.0
O336 O 0.76678 0.38246 0.2836 0.0
O337 O 0.77613 0.37658 0.34244 0.0
C338 C 0.06394 0.30321 0.82871 0.0
O339 O 0.07157 0.3152 0.81613 0.0
O340 O 0.09495 0.25704 0.8044 0.0
Zn341 Zn 0.09838 0.28092 0.82088 0.0
O342 O 0.10761 0.30223 0.80326 0.0
C343 C 0.11933 0.2579 0.8481 0.0
O344 O 0.10618 0.24515 0.84303 0.0
O345 O 0.07304 0.28788 0.83321 0.0
C346 C 0.12481 0.30864 0.80385 0.0
O347 O 0.13675 0.30201 0.81706 0.0
C348 C 0.10798 0.25345 0.79194 0.0
O349 O 0.12259 0.26546 0.79025 0.0
O350 O 0.11849 0.27485 0.84104 0.0
C351 C 0.19304 0.5651 0.33798 0.0
O352 O 0.17894 0.57631 0.33194 0.0
O353 O 0.24428 0.59528 0.31499 0.0
Zn354 Zn 0.21744 0.5969 0.32593 0.0
O355 O 0.20031 0.60335 0.30337 0.0
C356 C 0.2313 0.61977 0.35718 0.0
O357 O 0.244 0.60563 0.35782 0.0
O358 O 0.21033 0.5713 0.3374 0.0
C359 C 0.18569 0.61443 0.30416 0.0
O360 O 0.1804 0.62168 0.32091 0.0
C361 C 0.24755 0.58608 0.29941 0.0
O362 O 0.23333 0.57656 0.29114 0.0
O363 O 0.21739 0.61865 0.34521 0.0
C364 C 0.92322 0.29816 0.16343 0.0
O365 O 0.91277 0.31334 0.16805 0.0
O366 O 0.89092 0.25191 0.19205 0.0
Zn367 Zn 0.88975 0.27682 0.17691 0.0
O368 O 0.88332 0.2984 0.19552 0.0
C369 C 0.85156 0.27254 0.16208 0.0
O370 O 0.84757 0.27577 0.18036 0.0
O371 O 0.91598 0.28136 0.16529 0.0
C372 C 0.8726 0.31291 0.19204 0.0
O373 O 0.86513 0.31511 0.17471 0.0
C374 C 0.88189 0.25007 0.20795 0.0
O375 O 0.87218 0.26487 0.21486 0.0
O376 O 0.8691 0.27302 0.15656 0.0
C377 C 0.19998 0.42517 0.66858 0.0
O378 O 0.19069 0.41818 0.68358 0.0
O379 O 0.24611 0.39119 0.68634 0.0
Zn380 Zn 0.22071 0.38923 0.67193 0.0
O381 O 0.20094 0.38068 0.69153 0.0
C382 C 0.22103 0.35172 0.6534 0.0
O383 O 0.21332 0.34621 0.66985 0.0
O384 O 0.21344 0.41524 0.66093 0.0
C385 C 0.18408 0.37387 0.68899 0.0
O386 O 0.17737 0.37155 0.67136 0.0
C387 C 0.24922 0.37828 0.69907 0.0
O388 O 0.23603 0.36494 0.70199 0.0
O389 O 0.22465 0.36954 0.65074 0.0
C390 C 0.07908 0.70192 0.15652 0.0
O391 O 0.08777 0.68548 0.15264 0.0
O392 O 0.12221 0.73604 0.18971 0.0
Zn393 Zn 0.11676 0.7147 0.17063 0.0
O394 O 0.12262 0.69001 0.18468 0.0
C395 C 0.13385 0.73547 0.13999 0.0
O396 O 0.12051 0.7478 0.14555 0.0
O397 O 0.08882 0.71587 0.16342 0.0
C398 C 0.14016 0.68521 0.18731 0.0
O399 O 0.15384 0.69554 0.17913 0.0
C400 C 0.11189 0.75114 0.19164 0.0
O401 O 0.09645 0.75339 0.1808 0.0
O402 O 0.13446 0.7189 0.14792 0.0
C403 C 0.79931 0.57085 0.66537 0.0
O404 O 0.81447 0.58216 0.66713 0.0
O405 O 0.75527 0.60648 0.69542 0.0
Zn406 Zn 0.7787 0.60464 0.67832 0.0
O407 O 0.80096 0.6133 0.69481 0.0
C408 C 0.7581 0.62308 0.64805 0.0
O409 O 0.745 0.61054 0.65371 0.0
O410 O 0.78261 0.57751 0.66915 0.0
C411 C 0.80164 0.63114 0.69911 0.0
O412 O 0.78878 0.64292 0.69155 0.0
C413 C 0.74243 0.59363 0.69816 0.0
O414 O 0.74376 0.57695 0.68916 0.0
O415 O 0.77468 0.62283 0.656 0.0
C416 C 0.84112 0.92868 0.6995 0.0
O417 O 0.84013 0.91667 0.68481 0.0
O418 O 0.80889 0.89868 0.74641 0.0
Zn419 Zn 0.82354 0.89739 0.7214 0.0
O420 O 0.80456 0.88986 0.70074 0.0
C421 C 0.85642 0.87913 0.73798 0.0
O422 O 0.85694 0.89556 0.74753 0.0
O423 O 0.83523 0.92325 0.71602 0.0
C424 C 0.80882 0.87917 0.68643 0.0
O425 O 0.82673 0.87314 0.68434 0.0
C426 C 0.79198 0.90579 0.74761 0.0
O427 O 0.78395 0.91334 0.73212 0.0
O428 O 0.84374 0.87688 0.72487 0.0
C429 C 0.56484 0.33138 0.20226 0.0
O430 O 0.57093 0.31614 0.19267 0.0
O431 O 0.60661 0.31231 0.23647 0.0
Zn432 Zn 0.60422 0.33193 0.21519 0.0
O433 O 0.61411 0.31782 0.19174 0.0
C434 C 0.62243 0.36118 0.23847 0.0
O435 O 0.6092 0.35581 0.25098 0.0
O436 O 0.57676 0.34078 0.2126 0.0
C437 C 0.63233 0.31528 0.1917 0.0
O438 O 0.64274 0.32356 0.20527 0.0
C439 C 0.59667 0.31062 0.25182 0.0
O440 O 0.58245 0.32277 0.25524 0.0
O441 O 0.62218 0.35392 0.22159 0.0
C442 C 0.16073 0.07302 0.69774 0.0
O443 O 0.16412 0.08403 0.68264 0.0
O444 O 0.18353 0.11044 0.74433 0.0
Zn445 Zn 0.17037 0.10767 0.71862 0.0
O446 O 0.1898 0.11594 0.69866 0.0
C447 C 0.13746 0.12633 0.73411 0.0
O448 O 0.13965 0.11238 0.74682 0.0
O449 O 0.16201 0.08026 0.71457 0.0
C450 C 0.19755 0.13233 0.70169 0.0
O451 O 0.19178 0.14257 0.71662 0.0
C452 C 0.19994 0.10331 0.74854 0.0
O453 O 0.2087 0.09202 0.73601 0.0
O454 O 0.14821 0.12643 0.71921 0.0
C455 C 0.4242 0.67085 0.20596 0.0
O456 O 0.41542 0.68663 0.20009 0.0
O457 O 0.39466 0.68181 0.25421 0.0
Zn458 Zn 0.39008 0.66725 0.22951 0.0
O459 O 0.37484 0.68554 0.21266 0.0
C460 C 0.35972 0.63793 0.22714 0.0
O461 O 0.35569 0.64599 0.21043 0.0
O462 O 0.41587 0.65995 0.21818 0.0
C463 C 0.37183 0.68516 0.19454 0.0
O464 O 0.37894 0.67095 0.18411 0.0
C465 C 0.39841 0.69981 0.25424 0.0
O466 O 0.40068 0.70881 0.23767 0.0
O467 O 0.37409 0.64404 0.23684 0.0
C468 C 0.83185 0.06717 0.30111 0.0
O469 O 0.82827 0.07855 0.3159 0.0
O470 O 0.80136 0.09737 0.25382 0.0
Zn471 Zn 0.8166 0.09899 0.27859 0.0
O472 O 0.79792 0.10661 0.29963 0.0
C473 C 0.84541 0.12037 0.25853 0.0
O474 O 0.84231 0.10664 0.24575 0.0
O475 O 0.82845 0.07319 0.28409 0.0
C476 C 0.80079 0.12112 0.31053 0.0
O477 O 0.81708 0.13078 0.30902 0.0
C478 C 0.78931 0.11086 0.25053 0.0
O479 O 0.78716 0.12461 0.26347 0.0
O480 O 0.83667 0.11962 0.27467 0.0
C481 C 0.43062 0.31657 0.80165 0.0
O482 O 0.42481 0.29885 0.80528 0.0
O483 O 0.39758 0.30119 0.75937 0.0
Zn484 Zn 0.39395 0.31694 0.7837 0.0
O485 O 0.38352 0.29842 0.80349 0.0
C486 C 0.37475 0.34606 0.76169 0.0
O487 O 0.38952 0.34287 0.75017 0.0
O488 O 0.41945 0.32786 0.79238 0.0
C489 C 0.38106 0.30056 0.82156 0.0
O490 O 0.38552 0.31709 0.82981 0.0
C491 C 0.38421 0.28908 0.75582 0.0
O492 O 0.36945 0.28796 0.76773 0.0
O493 O 0.37407 0.33734 0.77786 0.0
C494 C 0.1586 0.93015 0.29549 0.0
O495 O 0.16122 0.91853 0.31029 0.0
O496 O 0.19497 0.90457 0.2493 0.0
Zn497 Zn 0.17907 0.90061 0.27345 0.0
O498 O 0.19706 0.89405 0.29537 0.0
C499 C 0.17088 0.86262 0.2633 0.0
O500 O 0.18987 0.86283 0.26408 0.0
O501 O 0.16443 0.92499 0.27885 0.0
C502 C 0.19298 0.88195 0.30855 0.0
O503 O 0.17562 0.87425 0.30903 0.0
C504 C 0.21299 0.90092 0.24864 0.0
O505 O 0.22198 0.89557 0.26449 0.0
O506 O 0.1617 0.87795 0.26768 0.0
C507 C 0.57473 0.66343 0.80176 0.0
O508 O 0.58494 0.66615 0.81756 0.0
O509 O 0.6105 0.69556 0.76023 0.0
Zn510 Zn 0.60903 0.67778 0.78309 0.0
O511 O 0.61518 0.69494 0.80567 0.0
C512 C 0.62617 0.64315 0.76767 0.0
O513 O 0.60914 0.64144 0.75942 0.0
O514 O 0.58233 0.66697 0.78543 0.0
C515 C 0.62968 0.69291 0.81676 0.0
O516 O 0.64089 0.6777 0.81474 0.0
C517 C 0.60405 0.6926 0.74329 0.0
O518 O 0.59488 0.67642 0.73941 0.0
O519 O 0.62911 0.65709 0.7793 0.0
C520 C 0.70031 0.83006 0.9297 0.0
O521 O 0.69294 0.81431 0.92208 0.0
O522 O 0.7465 0.81629 0.89734 0.0
Zn523 Zn 0.7216 0.83092 0.89386 0.0
O524 O 0.70363 0.81158 0.88146 0.0
C525 C 0.71835 0.85621 0.86028 0.0
O526 O 0.70314 0.8456 0.8562 0.0
O527 O 0.71253 0.83984 0.92008 0.0
C528 C 0.68534 0.81139 0.87964 0.0
O529 O 0.67506 0.82604 0.88603 0.0
C530 C 0.7461 0.79885 0.90317 0.0
O531 O 0.72946 0.79121 0.90823 0.0
O532 O 0.72755 0.85309 0.87589 0.0
C533 C 0.69453 0.17674 0.06689 0.0
O534 O 0.68873 0.19351 0.07369 0.0
O535 O 0.73939 0.19066 0.10116 0.0
Zn536 Zn 0.71413 0.17614 0.10313 0.0
O537 O 0.69474 0.19479 0.11411 0.0
C538 C 0.73403 0.14554 0.12258 0.0
O539 O 0.74667 0.14871 0.10875 0.0
O540 O 0.70563 0.16628 0.07716 0.0
C541 C 0.69882 0.20173 0.13062 0.0
O542 O 0.71434 0.19543 0.13962 0.0
C543 C 0.73979 0.20875 0.0979 0.0
O544 O 0.72355 0.21779 0.09389 0.0
O545 O 0.71814 0.15477 0.12238 0.0
C546 C 0.32523 0.19765 0.57026 0.0
O547 O 0.30934 0.19117 0.57838 0.0
O548 O 0.31186 0.24467 0.60046 0.0
Zn549 Zn 0.32691 0.22024 0.60507 0.0
O550 O 0.30818 0.20286 0.6191 0.0
C551 C 0.35576 0.21684 0.63573 0.0
O552 O 0.34999 0.19878 0.63664 0.0
O553 O 0.33565 0.20973 0.57939 0.0
C554 C 0.30803 0.18475 0.62226 0.0
O555 O 0.32229 0.17391 0.61593 0.0
C556 C 0.29417 0.24396 0.59546 0.0
O557 O 0.28632 0.22706 0.5917 0.0
O558 O 0.3488 0.2278 0.62273 0.0
C559 C 0.28642 0.84158 0.06915 0.0
O560 O 0.26932 0.84735 0.0751 0.0
O561 O 0.26056 0.80729 0.09984 0.0
Zn562 Zn 0.28542 0.82169 0.10518 0.0
O563 O 0.30373 0.80317 0.11804 0.0
C564 C 0.26256 0.85052 0.1243 0.0
O565 O 0.24938 0.84393 0.1123 0.0
O566 O 0.29653 0.83086 0.08012 0.0
C567 C 0.29847 0.79591 0.13407 0.0
O568 O 0.28203 0.80157 0.14175 0.0
C569 C 0.25975 0.78901 0.09808 0.0
O570 O 0.27577 0.77881 0.09881 0.0
O571 O 0.27962 0.8437 0.12345 0.0
C572 C 0.68416 0.79414 0.56593 0.0
O573 O 0.70233 0.79448 0.57151 0.0
O574 O 0.6951 0.75187 0.59803 0.0
Zn575 Zn 0.68186 0.77748 0.6026 0.0
O576 O 0.70151 0.79589 0.61368 0.0
C577 C 0.66777 0.76877 0.63911 0.0
O578 O 0.6865 0.77014 0.64201 0.0
O579 O 0.6715 0.78749 0.57745 0.0
C580 C 0.70018 0.81414 0.61518 0.0
O581 O 0.68442 0.82292 0.60921 0.0
C582 C 0.71336 0.74994 0.59926 0.0
O583 O 0.72414 0.76527 0.60235 0.0
O584 O 0.66115 0.77224 0.62231 0.0
C585 C 0.29341 0.15542 0.9293 0.0
O586 O 0.30832 0.15616 0.91756 0.0
O587 O 0.24817 0.1915 0.90051 0.0
Zn588 Zn 0.27325 0.17655 0.89892 0.0
O589 O 0.29493 0.19533 0.89399 0.0
C590 C 0.26752 0.16651 0.86026 0.0
O591 O 0.26889 0.18544 0.85937 0.0
O592 O 0.27736 0.16265 0.92399 0.0
C593 C 0.31012 0.19127 0.88451 0.0
O594 O 0.31264 0.17355 0.87811 0.0
C595 C 0.24681 0.20884 0.89452 0.0
O596 O 0.26236 0.21769 0.88817 0.0
O597 O 0.27004 0.15825 0.87648 0.0
C598 C 0.32886 0.79826 0.42601 0.0
O599 O 0.3194 0.81244 0.41763 0.0
O600 O 0.29605 0.75311 0.39905 0.0
Zn601 Zn 0.314 0.77549 0.39412 0.0
O602 O 0.29766 0.79804 0.38554 0.0
C603 C 0.34826 0.7723 0.36811 0.0
O604 O 0.35562 0.78763 0.37659 0.0
O605 O 0.32878 0.78157 0.41831 0.0
C606 C 0.3004 0.80746 0.37003 0.0
O607 O 0.31521 0.80305 0.35898 0.0
C608 C 0.28359 0.7497 0.38595 0.0
O609 O 0.28262 0.76137 0.371 0.0
O610 O 0.33177 0.76606 0.37325 0.0
C611 C 0.66228 0.20228 0.42567 0.0
O612 O 0.67083 0.1879 0.41665 0.0
O613 O 0.69126 0.24833 0.39489 0.0
Zn614 Zn 0.67491 0.22431 0.39246 0.0
O615 O 0.69273 0.20257 0.38476 0.0
C616 C 0.66328 0.23516 0.35547 0.0
O617 O 0.68224 0.23508 0.35397 0.0
O618 O 0.66188 0.21888 0.41781 0.0
C619 C 0.68917 0.18975 0.3721 0.0
O620 O 0.67224 0.18961 0.36345 0.0
C621 C 0.70945 0.24758 0.39749 0.0
O622 O 0.71775 0.23071 0.40026 0.0
O623 O 0.65569 0.23001 0.37137 0.0
H624 H 0.94853 0.26987 0.15257 0.0
H625 H 0.94505 0.33117 0.16441 0.0
H626 H 0.98352 0.27226 0.15031 0.0
H627 H 0.98019 0.33359 0.16182 0.0
H628 H 0.04096 0.31944 0.18853 0.0
H629 H 0.00631 0.32218 0.18296 0.0
H630 H 0.01134 0.28521 0.13283 0.0
H631 H 0.04602 0.28218 0.13858 0.0
C632 C 0.9552 0.28394 0.15431 0.0
C633 C 0.94402 0.30028 0.15893 0.0
C634 C 0.97528 0.28533 0.15287 0.0
C635 C 0.98465 0.30309 0.15604 0.0
C636 C 0.97339 0.31966 0.15958 0.0
C637 C 0.95326 0.31828 0.16096 0.0
C638 C 0.03475 0.31213 0.17614 0.0
C639 C 0.0462 0.30037 0.16417 0.0
C640 C 0.01488 0.31382 0.17286 0.0
C641 C 0.00605 0.30378 0.15754 0.0
C642 C 0.01769 0.29289 0.14492 0.0
C643 C 0.03757 0.29122 0.14819 0.0
H644 H 0.1634 0.54536 0.65643 0.0
H645 H 0.22538 0.54235 0.64873 0.0
H646 H 0.16149 0.51016 0.65396 0.0
H647 H 0.22354 0.50739 0.64677 0.0
H648 H 0.21659 0.44449 0.63828 0.0
H649 H 0.21294 0.47864 0.63019 0.0
H650 H 0.17127 0.48507 0.67632 0.0
H651 H 0.1745 0.45098 0.68402 0.0
C652 C 0.17656 0.53724 0.65389 0.0
C653 C 0.19457 0.5466 0.6531 0.0
C654 C 0.17548 0.51708 0.65258 0.0
C655 C 0.19238 0.50596 0.65041 0.0
C656 C 0.2102 0.51548 0.64827 0.0
C657 C 0.21128 0.53556 0.64958 0.0
C658 C 0.20642 0.45314 0.64647 0.0
C659 C 0.19607 0.44511 0.66199 0.0
C660 C 0.20435 0.47271 0.64186 0.0
C661 C 0.19196 0.48463 0.65273 0.0
C662 C 0.18079 0.47629 0.6675 0.0
C663 C 0.18279 0.45674 0.67205 0.0
H664 H 0.05717 0.73317 0.16619 0.0
H665 H 0.05275 0.67441 0.14514 0.0
H666 H 0.0222 0.73461 0.16956 0.0
H667 H 0.01748 0.67606 0.14845 0.0
H668 H 0.95217 0.69826 0.14394 0.0
H669 H 0.98672 0.69618 0.13598 0.0
H670 H 0.00109 0.71504 0.19373 0.0
H671 H 0.9669 0.71695 0.20177 0.0
C672 C 0.04874 0.72064 0.16201 0.0
C673 C 0.05777 0.70355 0.15567 0.0
C674 C 0.02872 0.72148 0.164 0.0
C675 C 0.01727 0.70536 0.15951 0.0
C676 C 0.02607 0.68867 0.152 0.0
C677 C 0.04622 0.68773 0.15017 0.0
C678 C 0.96275 0.70186 0.15493 0.0
C679 C 0.95685 0.70784 0.17346 0.0
C680 C 0.98244 0.70062 0.15038 0.0
C681 C 0.99644 0.70565 0.1642 0.0
C682 C 0.99052 0.71134 0.18275 0.0
C683 C 0.97095 0.71231 0.18737 0.0
H684 H 0.78323 0.44848 0.64109 0.0
H685 H 0.82471 0.45352 0.68763 0.0
H686 H 0.78614 0.48304 0.6348 0.0
H687 H 0.82731 0.48808 0.68156 0.0
H688 H 0.83293 0.54997 0.66333 0.0
H689 H 0.83613 0.51492 0.6599 0.0
H690 H 0.77407 0.50996 0.65428 0.0
H691 H 0.77089 0.54478 0.65744 0.0
C692 C 0.79321 0.45688 0.64977 0.0
C693 C 0.80346 0.44834 0.66511 0.0
C694 C 0.79483 0.47668 0.64619 0.0
C695 C 0.80671 0.48831 0.65788 0.0
C696 C 0.8181 0.4795 0.67223 0.0
C697 C 0.81651 0.45969 0.67579 0.0
C698 C 0.82002 0.5414 0.66102 0.0
C699 C 0.80164 0.5501 0.66089 0.0
C700 C 0.82186 0.52135 0.65912 0.0
C701 C 0.80536 0.50968 0.65689 0.0
C702 C 0.7871 0.51854 0.65573 0.0
C703 C 0.78526 0.53851 0.65773 0.0
H704 H 0.95097 0.73413 0.84381 0.0
H705 H 0.94744 0.67195 0.83818 0.0
H706 H 0.98606 0.73219 0.84346 0.0
H707 H 0.9827 0.67001 0.83818 0.0
H708 H 0.04116 0.68101 0.80639 0.0
H709 H 0.00692 0.67941 0.81419 0.0
H710 H 0.0153 0.72116 0.85994 0.0
H711 H 0.04962 0.72307 0.85189 0.0
C712 C 0.95768 0.72 0.84286 0.0
C713 C 0.94641 0.70321 0.84076 0.0
C714 C 0.97783 0.71888 0.84281 0.0
C715 C 0.98716 0.70095 0.84064 0.0
C716 C 0.9759 0.68405 0.83959 0.0
C717 C 0.95571 0.68516 0.83969 0.0
C718 C 0.03578 0.6897 0.81826 0.0
C719 C 0.04807 0.70234 0.82836 0.0
C720 C 0.01615 0.68865 0.82284 0.0
C721 C 0.00839 0.70021 0.83764 0.0
C722 C 0.02084 0.71225 0.8483 0.0
C723 C 0.04049 0.71329 0.84372 0.0
H724 H 0.78251 0.55311 0.35811 0.0
H725 H 0.82611 0.54733 0.31372 0.0
H726 H 0.78564 0.5188 0.36558 0.0
H727 H 0.82878 0.513 0.32072 0.0
H728 H 0.83492 0.45189 0.33934 0.0
H729 H 0.83733 0.48702 0.34225 0.0
H730 H 0.77522 0.49064 0.3485 0.0
H731 H 0.77289 0.45576 0.34619 0.0
C732 C 0.79291 0.54456 0.35009 0.0
C733 C 0.80384 0.55286 0.33511 0.0
C734 C 0.79466 0.52489 0.35433 0.0
C735 C 0.80726 0.51307 0.34358 0.0
C736 C 0.81906 0.52167 0.32943 0.0
C737 C 0.81742 0.54136 0.3253 0.0
C738 C 0.82184 0.46018 0.34176 0.0
C739 C 0.80368 0.45107 0.34224 0.0
C740 C 0.82321 0.48031 0.34331 0.0
C741 C 0.80645 0.49168 0.34538 0.0
C742 C 0.78846 0.48238 0.34712 0.0
C743 C 0.7871 0.46232 0.34561 0.0
H744 H 0.03726 0.32894 0.81509 0.0
H745 H 0.04528 0.28382 0.85758 0.0
H746 H 0.00281 0.32953 0.82214 0.0
H747 H 0.01087 0.28487 0.86512 0.0
H748 H 0.94916 0.26888 0.84424 0.0
H749 H 0.98379 0.27341 0.84689 0.0
H750 H 0.97606 0.33538 0.84386 0.0
H751 H 0.94115 0.33078 0.84067 0.0
C752 C 0.03175 0.31949 0.8263 0.0
C753 C 0.04389 0.30604 0.83549 0.0
C754 C 0.01199 0.31993 0.83046 0.0
C755 C 0.00403 0.30705 0.84401 0.0
C756 C 0.01649 0.29469 0.8543 0.0
C757 C 0.0362 0.29412 0.85002 0.0
C758 C 0.95477 0.28351 0.84442 0.0
C759 C 0.94243 0.29946 0.84194 0.0
C760 C 0.97467 0.28612 0.84614 0.0
C761 C 0.98273 0.30477 0.84548 0.0
C762 C 0.97029 0.32082 0.84415 0.0
C763 C 0.9503 0.31819 0.84242 0.0
H764 H 0.20364 0.44157 0.35955 0.0
H765 H 0.16955 0.45008 0.30783 0.0
H766 H 0.20008 0.47574 0.36749 0.0
H767 H 0.16642 0.48424 0.31551 0.0
H768 H 0.15905 0.54503 0.33448 0.0
H769 H 0.15479 0.51002 0.33639 0.0
H770 H 0.21482 0.50372 0.35273 0.0
H771 H 0.21895 0.53851 0.35125 0.0
C772 C 0.19515 0.45066 0.35002 0.0
C773 C 0.18717 0.44319 0.33287 0.0
C774 C 0.19316 0.47024 0.35455 0.0
C775 C 0.18321 0.48277 0.342 0.0
C776 C 0.17406 0.47499 0.32558 0.0
C777 C 0.17598 0.4554 0.32109 0.0
C778 C 0.17121 0.53618 0.3389 0.0
C779 C 0.18942 0.54451 0.34241 0.0
C780 C 0.16878 0.51613 0.3399 0.0
C781 C 0.18451 0.50406 0.34449 0.0
C782 C 0.20234 0.51256 0.34932 0.0
C783 C 0.20476 0.53255 0.34831 0.0
H784 H 0.14997 0.94835 0.32968 0.0
H785 H 0.15207 0.95744 0.26789 0.0
H786 H 0.14412 0.98287 0.33449 0.0
H787 H 0.1469 0.99172 0.27267 0.0
H788 H 0.13379 0.05259 0.28245 0.0
H789 H 0.12707 0.01799 0.28232 0.0
H790 H 0.16467 0.01063 0.33175 0.0
H791 H 0.17073 0.04524 0.33233 0.0
C792 C 0.14888 0.95764 0.31712 0.0
C793 C 0.1518 0.95021 0.29843 0.0
C794 C 0.14564 0.97743 0.31988 0.0
C795 C 0.14526 0.99014 0.304 0.0
C796 C 0.14687 0.98241 0.28526 0.0
C797 C 0.15004 0.9627 0.28251 0.0
C798 C 0.14028 0.04361 0.29354 0.0
C799 C 0.15307 0.05156 0.30718 0.0
C800 C 0.13648 0.02378 0.29342 0.0
C801 C 0.14562 0.01145 0.30678 0.0
C802 C 0.15726 0.01966 0.32132 0.0
C803 C 0.16087 0.03953 0.32157 0.0
H804 H 0.55062 0.65379 0.77214 0.0
H805 H 0.55161 0.66348 0.83388 0.0
H806 H 0.51553 0.65219 0.77289 0.0
H807 H 0.51631 0.66164 0.83464 0.0
H808 H 0.45804 0.69254 0.81686 0.0
H809 H 0.49194 0.68465 0.82212 0.0
H810 H 0.48642 0.63523 0.78426 0.0
H811 H 0.4525 0.64327 0.77875 0.0
C812 C 0.54336 0.65518 0.78595 0.0
C813 C 0.55385 0.65907 0.8029 0.0
C814 C 0.52323 0.65409 0.7864 0.0
C815 C 0.51316 0.65694 0.80382 0.0
C816 C 0.52371 0.65962 0.82099 0.0
C817 C 0.5439 0.66059 0.82055 0.0
C818 C 0.46394 0.6798 0.80992 0.0
C819 C 0.45269 0.66875 0.79711 0.0
C820 C 0.48335 0.67517 0.81306 0.0
C821 C 0.49187 0.65942 0.80345 0.0
C822 C 0.48028 0.64762 0.79165 0.0
C823 C 0.46085 0.65221 0.78854 0.0
H824 H 0.84151 0.04065 0.27364 0.0
H825 H 0.8342 0.04734 0.33535 0.0
H826 H 0.84518 0.00603 0.27774 0.0
H827 H 0.83834 0.01248 0.33952 0.0
H828 H 0.81185 0.95056 0.3302 0.0
H829 H 0.81757 0.98523 0.33165 0.0
H830 H 0.8639 0.97934 0.29013 0.0
H831 H 0.85782 0.94467 0.28828 0.0
C832 C 0.84108 0.03477 0.28815 0.0
C833 C 0.83726 0.04671 0.30414 0.0
C834 C 0.84337 0.01489 0.29052 0.0
C835 C 0.84193 0.00646 0.30895 0.0
C836 C 0.83926 0.01853 0.3251 0.0
C837 C 0.83699 0.0385 0.32272 0.0
C838 C 0.82349 0.95659 0.32164 0.0
C839 C 0.83412 0.94493 0.30884 0.0
C840 C 0.82687 0.97648 0.32258 0.0
C841 C 0.84103 0.98509 0.31081 0.0
C842 C 0.85263 0.97319 0.2991 0.0
C843 C 0.84918 0.95332 0.29809 0.0
H844 H 0.55201 0.32193 0.83594 0.0
H845 H 0.5463 0.346 0.77854 0.0
H846 H 0.51687 0.32272 0.83963 0.0
H847 H 0.5114 0.34636 0.78205 0.0
H848 H 0.44859 0.35094 0.79353 0.0
H849 H 0.48276 0.3587 0.79796 0.0
H850 H 0.49188 0.30301 0.82481 0.0
H851 H 0.45782 0.29547 0.82083 0.0
C852 C 0.54331 0.32768 0.82425 0.0
C853 C 0.55191 0.33359 0.80683 0.0
C854 C 0.52319 0.32805 0.82633 0.0
C855 C 0.51133 0.33439 0.81105 0.0
C856 C 0.52007 0.34154 0.79417 0.0
C857 C 0.54012 0.34117 0.7921 0.0
C858 C 0.45784 0.34051 0.80069 0.0
C859 C 0.45057 0.32246 0.80655 0.0
C860 C 0.47741 0.34494 0.80318 0.0
C861 C 0.49008 0.3314 0.81157 0.0
C862 C 0.48252 0.31385 0.81847 0.0
C863 C 0.46299 0.30944 0.816 0.0
H864 H 0.16346 0.05163 0.66455 0.0
H865 H 0.15192 0.04672 0.72577 0.0
H866 H 0.1635 0.01642 0.66178 0.0
H867 H 0.15221 0.01165 0.72302 0.0
H868 H 0.14504 0.94834 0.71173 0.0
H869 H 0.1367 0.98259 0.70931 0.0
H870 H 0.18694 0.9922 0.67347 0.0
H871 H 0.19514 0.95807 0.67566 0.0
C872 C 0.16063 0.04307 0.67735 0.0
C873 C 0.15795 0.05195 0.69543 0.0
C874 C 0.16073 0.02291 0.67576 0.0
C875 C 0.15803 0.01128 0.6922 0.0
C876 C 0.15418 0.0202 0.71005 0.0
C877 C 0.15416 0.04032 0.71165 0.0
C878 C 0.15412 0.95771 0.70307 0.0
C879 C 0.17089 0.95056 0.69408 0.0
C880 C 0.14937 0.97732 0.70175 0.0
C881 C 0.16122 0.9901 0.6913 0.0
C882 C 0.1774 0.98271 0.68147 0.0
C883 C 0.18219 0.96316 0.68286 0.0
H884 H 0.45039 0.64739 0.22398 0.0
H885 H 0.44399 0.68665 0.17582 0.0
H886 H 0.48515 0.64643 0.21867 0.0
H887 H 0.47869 0.68505 0.16993 0.0
H888 H 0.53968 0.70384 0.18888 0.0
H889 H 0.50511 0.69888 0.1867 0.0
H890 H 0.51288 0.6382 0.19973 0.0
H891 H 0.54773 0.64339 0.2026 0.0
C892 C 0.45635 0.6554 0.21192 0.0
C893 C 0.44454 0.6674 0.20054 0.0
C894 C 0.4763 0.65476 0.20878 0.0
C895 C 0.48479 0.66592 0.19406 0.0
C896 C 0.4727 0.67668 0.18172 0.0
C897 C 0.4528 0.67753 0.18502 0.0
C898 C 0.53409 0.68937 0.19107 0.0
C899 C 0.54643 0.67406 0.19615 0.0
C900 C 0.51421 0.68647 0.18963 0.0
C901 C 0.50614 0.66813 0.19307 0.0
C902 C 0.51859 0.65257 0.19725 0.0
C903 C 0.53856 0.65551 0.19881 0.0
H904 H 0.82326 0.04367 0.6651 0.0
H905 H 0.86171 0.05155 0.71375 0.0
H906 H 0.83096 0.00938 0.66453 0.0
H907 H 0.86999 0.01729 0.71275 0.0
H908 H 0.84668 0.95602 0.72722 0.0
H909 H 0.85063 0.99049 0.72271 0.0
H910 H 0.8527 0.98229 0.66077 0.0
H911 H 0.84819 0.94752 0.66532 0.0
C912 C 0.83383 0.0382 0.6753 0.0
C913 C 0.84153 0.0502 0.68977 0.0
C914 C 0.83836 0.01851 0.67489 0.0
C915 C 0.85082 0.01051 0.68884 0.0
C916 C 0.85996 0.02293 0.7021 0.0
C917 C 0.85528 0.04256 0.70264 0.0
C918 C 0.84827 0.96148 0.71263 0.0
C919 C 0.84678 0.94907 0.69662 0.0
C920 C 0.85076 0.98129 0.71004 0.0
C921 C 0.85188 0.98921 0.69135 0.0
C922 C 0.85162 0.97666 0.67534 0.0
C923 C 0.84913 0.95675 0.67795 0.0
H924 H 0.54737 0.3607 0.22223 0.0
H925 H 0.53527 0.31326 0.18333 0.0
H926 H 0.51278 0.36664 0.22573 0.0
H927 H 0.50073 0.31901 0.1871 0.0
H928 H 0.43937 0.33965 0.18896 0.0
H929 H 0.47377 0.34135 0.18127 0.0
H930 H 0.48694 0.34875 0.2419 0.0
H931 H 0.45265 0.34737 0.24957 0.0
C932 C 0.53735 0.35167 0.21427 0.0
C933 C 0.54406 0.33637 0.20266 0.0
C934 C 0.51754 0.35504 0.21633 0.0
C935 C 0.50403 0.34321 0.20681 0.0
C936 C 0.51077 0.32851 0.19448 0.0
C937 C 0.53058 0.32512 0.19243 0.0
C938 C 0.44959 0.34197 0.20061 0.0
C939 C 0.4433 0.34316 0.21991 0.0
C940 C 0.46929 0.34284 0.19621 0.0
C941 C 0.48307 0.345 0.21099 0.0
C942 C 0.47669 0.34724 0.23015 0.0
C943 C 0.45701 0.34633 0.23456 0.0
H944 H 0.32942 0.16455 0.04517 0.0
H945 H 0.27766 0.13006 0.05121 0.0
H946 H 0.32906 0.15897 0.01045 0.0
H947 H 0.27767 0.12392 0.01652 0.0
H948 H 0.26524 0.1512 0.95645 0.0
H949 H 0.26939 0.14544 0.99073 0.0
H950 H 0.33093 0.13828 0.98232 0.0
H951 H 0.32681 0.14459 0.9478 0.0
C952 C 0.31829 0.1553 0.03916 0.0
C953 C 0.30332 0.14811 0.05085 0.0
C954 C 0.31815 0.15198 0.01924 0.0
C955 C 0.30313 0.14127 0.01065 0.0
C956 C 0.28917 0.13262 0.02263 0.0
C957 C 0.28921 0.13608 0.04252 0.0
C958 C 0.27964 0.1481 0.96181 0.0
C959 C 0.29573 0.14867 0.94944 0.0
C960 C 0.28201 0.14459 0.9815 0.0
C961 C 0.30053 0.1415 0.98933 0.0
C962 C 0.31651 0.14087 0.97677 0.0
C963 C 0.31413 0.1444 0.95699 0.0
H964 H 0.321 0.83224 0.05239 0.0
H965 H 0.26522 0.8577 0.04004 0.0
H966 H 0.32851 0.83206 0.01795 0.0
H967 H 0.27246 0.85698 0.00571 0.0
H968 H 0.29029 0.85852 0.94436 0.0
H969 H 0.29124 0.86754 0.97844 0.0
H970 H 0.31645 0.81201 0.99227 0.0
H971 H 0.31602 0.80326 0.95829 0.0
C972 C 0.31046 0.83806 0.04236 0.0
C973 C 0.29238 0.84467 0.04889 0.0
C974 C 0.31473 0.83788 0.02263 0.0
C975 C 0.30098 0.84421 0.00905 0.0
C976 C 0.28347 0.85212 0.01575 0.0
C977 C 0.27924 0.85241 0.03547 0.0
C978 C 0.29636 0.84839 0.95465 0.0
C979 C 0.3028 0.83005 0.94868 0.0
C980 C 0.29684 0.85354 0.97418 0.0
C981 C 0.30371 0.84042 0.98811 0.0
C982 C 0.31125 0.82256 0.98193 0.0
C983 C 0.31085 0.81746 0.96243 0.0
H984 H 0.64839 0.79336 0.54871 0.0
H985 H 0.70842 0.80692 0.53779 0.0
H986 H 0.64102 0.79861 0.51455 0.0
H987 H 0.70127 0.81151 0.50385 0.0
H988 H 0.64697 0.77698 0.45044 0.0
H989 H 0.64742 0.781 0.48539 0.0
H990 H 0.68594 0.82987 0.47931 0.0
H991 H 0.68611 0.82527 0.44438 0.0
C992 C 0.65995 0.79765 0.53908 0.0
C993 C 0.67903 0.7995 0.5459 0.0
C994 C 0.65575 0.80058 0.5195 0.0
C995 C 0.67055 0.80538 0.5064 0.0
C996 C 0.68942 0.80813 0.5135 0.0
C997 C 0.69358 0.8053 0.53301 0.0
C998 C 0.65519 0.78885 0.45655 0.0
C999 C 0.66683 0.80057 0.44476 0.0
C1000 C 0.65538 0.79123 0.47661 0.0
C1001 C 0.66703 0.80554 0.48521 0.0
C1002 C 0.67723 0.81838 0.47319 0.0
C1003 C 0.67726 0.81581 0.45318 0.0
H1004 H 0.7028 0.14255 0.04871 0.0
H1005 H 0.67531 0.19799 0.0398 0.0
H1006 H 0.69802 0.13474 0.01464 0.0
H1007 H 0.6711 0.19049 0.00576 0.0
H1008 H 0.6595 0.17172 0.9457 0.0
H1009 H 0.65622 0.17133 0.98085 0.0
H1010 H 0.71324 0.14612 0.98579 0.0
H1011 H 0.71626 0.14596 0.9509 0.0
C1012 C 0.69559 0.153 0.03952 0.0
C1013 C 0.68969 0.17101 0.04688 0.0
C1014 C 0.6929 0.14855 0.02 0.0
C1015 C 0.68436 0.16206 0.00741 0.0
C1016 C 0.67753 0.17963 0.01505 0.0
C1017 C 0.68011 0.18402 0.03457 0.0
C1018 C 0.67114 0.16571 0.9543 0.0
C1019 C 0.68826 0.15917 0.94553 0.0
C1020 C 0.66931 0.16559 0.97444 0.0
C1021 C 0.68457 0.15895 0.98616 0.0
C1022 C 0.70112 0.15119 0.97726 0.0
C1023 C 0.70292 0.15125 0.95719 0.0
H1024 H 0.30749 0.1708 0.54745 0.0
H1025 H 0.35145 0.21521 0.54644 0.0
H1026 H 0.30951 0.16798 0.5124 0.0
H1027 H 0.35306 0.21277 0.51137 0.0
H1028 H 0.35649 0.20055 0.44752 0.0
H1029 H 0.36019 0.19435 0.48215 0.0
H1030 H 0.29809 0.18983 0.48775 0.0
H1031 H 0.29444 0.19558 0.45337 0.0
C1032 C 0.31778 0.17977 0.53978 0.0
C1033 C 0.32905 0.19347 0.54967 0.0
C1034 C 0.31888 0.1782 0.51969 0.0
C1035 C 0.33117 0.19041 0.50907 0.0
C1036 C 0.3435 0.20309 0.51911 0.0
C1037 C 0.3425 0.20457 0.53923 0.0
C1038 C 0.34367 0.19794 0.45614 0.0
C1039 C 0.32516 0.19873 0.44776 0.0
C1040 C 0.3458 0.19446 0.47596 0.0
C1041 C 0.32945 0.19162 0.48771 0.0
C1042 C 0.31102 0.19165 0.47911 0.0
C1043 C 0.30891 0.19515 0.45938 0.0
H1044 H 0.69105 0.79864 0.04566 0.0
H1045 H 0.71045 0.85766 0.05261 0.0
H1046 H 0.68559 0.80431 0.01159 0.0
H1047 H 0.70431 0.86361 0.01832 0.0
H1048 H 0.67041 0.8175 0.95196 0.0
H1049 H 0.66756 0.81985 0.98699 0.0
H1050 H 0.71988 0.85406 0.98889 0.0
H1051 H 0.72219 0.85239 0.95384 0.0
C1052 C 0.69379 0.81298 0.03998 0.0
C1053 C 0.70145 0.82761 0.05179 0.0
C1054 C 0.69045 0.81631 0.02041 0.0
C1055 C 0.69455 0.83443 0.01215 0.0
C1056 C 0.70126 0.84941 0.02418 0.0
C1057 C 0.7047 0.84603 0.04383 0.0
C1058 C 0.68105 0.82587 0.95986 0.0
C1059 C 0.69671 0.83447 0.95024 0.0
C1060 C 0.67948 0.82715 0.97993 0.0
C1061 C 0.69372 0.83678 0.99081 0.0
C1062 C 0.70858 0.84661 0.981 0.0
C1063 C 0.70998 0.84557 0.96088 0.0
H1064 H 0.64299 0.16939 0.54639 0.0
H1065 H 0.65648 0.23038 0.54388 0.0
H1066 H 0.64003 0.16865 0.51119 0.0
H1067 H 0.65404 0.22953 0.50894 0.0
H1068 H 0.6404 0.2274 0.44685 0.0
H1069 H 0.63345 0.22581 0.48133 0.0
H1070 H 0.66271 0.17065 0.48462 0.0
H1071 H 0.66909 0.17195 0.45004 0.0
C1072 C 0.64511 0.18266 0.53837 0.0
C1073 C 0.65015 0.1999 0.54791 0.0
C1074 C 0.64351 0.18222 0.51821 0.0
C1075 C 0.64688 0.199 0.50723 0.0
C1076 C 0.65107 0.21639 0.51691 0.0
C1077 C 0.65264 0.21684 0.53699 0.0
C1078 C 0.64505 0.21478 0.45488 0.0
C1079 C 0.65556 0.19994 0.4458 0.0
C1080 C 0.64113 0.2139 0.47465 0.0
C1081 C 0.6478 0.19826 0.4858 0.0
C1082 C 0.65724 0.18284 0.47646 0.0
C1083 C 0.66101 0.18364 0.45663 0.0
H1084 H 0.35408 0.77442 0.44475 0.0
H1085 H 0.32201 0.82764 0.4515 0.0
H1086 H 0.36299 0.77545 0.47882 0.0
H1087 H 0.33032 0.82832 0.48569 0.0
H1088 H 0.34125 0.76634 0.54142 0.0
H1089 H 0.34358 0.76902 0.50662 0.0
H1090 H 0.35349 0.83053 0.51185 0.0
H1091 H 0.35063 0.8279 0.54699 0.0
C1092 C 0.34914 0.78647 0.45346 0.0
C1093 C 0.33704 0.80075 0.44557 0.0
C1094 C 0.3542 0.78703 0.47299 0.0
C1095 C 0.34705 0.80175 0.48507 0.0
C1096 C 0.33617 0.81683 0.4768 0.0
C1097 C 0.33129 0.81638 0.4572 0.0
C1098 C 0.3442 0.78042 0.53522 0.0
C1099 C 0.34546 0.79696 0.54696 0.0
C1100 C 0.34574 0.78193 0.51521 0.0
C1101 C 0.34865 0.80002 0.5064 0.0
C1102 C 0.351 0.81643 0.5182 0.0
C1103 C 0.34946 0.81491 0.53831 0.0
H1104 H 0.22038 0.34221 0.26427 0.0
H1105 H 0.16691 0.36547 0.28674 0.0
H1106 H 0.2026 0.32561 0.23893 0.0
H1107 H 0.14891 0.3482 0.2617 0.0
H1108 H 0.12418 0.32698 0.20393 0.0
H1109 H 0.14207 0.3462 0.22762 0.0
H1110 H 0.18179 0.29861 0.23599 0.0
H1111 H 0.16443 0.27982 0.212 0.0
C1112 C 0.20478 0.34369 0.26386 0.0
C1113 C 0.19502 0.35501 0.2776 0.0
C1114 C 0.19456 0.33408 0.24936 0.0
C1115 C 0.17428 0.33536 0.24837 0.0
C1116 C 0.16453 0.34703 0.26191 0.0
C1117 C 0.17482 0.35683 0.27633 0.0
C1118 C 0.13681 0.32071 0.21077 0.0
C1119 C 0.14295 0.30192 0.20601 0.0
C1120 C 0.14699 0.33167 0.22444 0.0
C1121 C 0.16343 0.324 0.23367 0.0
C1122 C 0.16945 0.30517 0.22889 0.0
C1123 C 0.15941 0.29432 0.21518 0.0
H1124 H 0.1098 0.67949 0.77286 0.0
H1125 H 0.1678 0.67835 0.79625 0.0
H1126 H 0.12021 0.65898 0.74607 0.0
H1127 H 0.17816 0.65793 0.76943 0.0
H1128 H 0.18793 0.60973 0.72686 0.0
H1129 H 0.17342 0.62514 0.75501 0.0
H1130 H 0.14214 0.66421 0.71763 0.0
H1131 H 0.15658 0.64876 0.68936 0.0
C1132 C 0.12471 0.67469 0.77242 0.0
C1133 C 0.13802 0.68062 0.78663 0.0
C1134 C 0.13067 0.66303 0.75702 0.0
C1135 C 0.14999 0.65691 0.75564 0.0
C1136 C 0.16312 0.66227 0.77022 0.0
C1137 C 0.15721 0.67405 0.78552 0.0
C1138 C 0.17774 0.62142 0.72458 0.0
C1139 C 0.17356 0.62816 0.70585 0.0
C1140 C 0.16951 0.63029 0.74074 0.0
C1141 C 0.15682 0.64598 0.73852 0.0
C1142 C 0.15181 0.65206 0.71978 0.0
C1143 C 0.16014 0.64326 0.70359 0.0
H1144 H 0.78283 0.65291 0.26095 0.0
H1145 H 0.82946 0.62064 0.28732 0.0
H1146 H 0.80428 0.66232 0.23461 0.0
H1147 H 0.85096 0.6302 0.26091 0.0
H1148 H 0.88521 0.67673 0.22421 0.0
H1149 H 0.86529 0.66226 0.24946 0.0
H1150 H 0.82256 0.6464 0.20676 0.0
H1151 H 0.84249 0.66082 0.18141 0.0
C1152 C 0.79766 0.64784 0.26114 0.0
C1153 C 0.80449 0.63611 0.27626 0.0
C1154 C 0.80988 0.65308 0.24596 0.0
C1155 C 0.82923 0.64688 0.24568 0.0
C1156 C 0.8361 0.63519 0.26081 0.0
C1157 C 0.8238 0.62973 0.27589 0.0
C1158 C 0.87174 0.66984 0.22015 0.0
C1159 C 0.86536 0.67001 0.20084 0.0
C1160 C 0.86038 0.66151 0.23461 0.0
C1161 C 0.84232 0.6534 0.23006 0.0
C1162 C 0.83634 0.65277 0.21065 0.0
C1163 C 0.84782 0.66089 0.19614 0.0
H1164 H 0.88283 0.32026 0.77922 0.0
H1165 H 0.82471 0.30024 0.79056 0.0
H1166 H 0.87048 0.34142 0.75371 0.0
H1167 H 0.81247 0.32131 0.7651 0.0
H1168 H 0.79486 0.37423 0.73096 0.0
H1169 H 0.809 0.35659 0.75792 0.0
H1170 H 0.85503 0.33647 0.72082 0.0
H1171 H 0.8409 0.35423 0.69368 0.0
C1172 C 0.86742 0.32051 0.7764 0.0
C1173 C 0.85473 0.30858 0.78689 0.0
C1174 C 0.86039 0.33252 0.76172 0.0
C1175 C 0.84054 0.33298 0.75744 0.0
C1176 C 0.82782 0.32139 0.76823 0.0
C1177 C 0.83485 0.30926 0.78275 0.0
C1178 C 0.8081 0.36621 0.72853 0.0
C1179 C 0.81669 0.36552 0.71012 0.0
C1180 C 0.81613 0.35604 0.74398 0.0
C1181 C 0.83301 0.34506 0.74142 0.0
C1182 C 0.84205 0.34492 0.72321 0.0
C1183 C 0.83392 0.35501 0.70767 0.0
H1184 H 0.28487 0.19647 0.35191 0.0
H1185 H 0.29059 0.14539 0.38751 0.0
H1186 H 0.25588 0.18314 0.33728 0.0
H1187 H 0.26123 0.13207 0.37284 0.0
H1188 H 0.22028 0.10851 0.32396 0.0
H1189 H 0.24889 0.11999 0.34117 0.0
H1190 H 0.22248 0.17627 0.3474 0.0
H1191 H 0.19402 0.16495 0.32998 0.0
C1192 C 0.27998 0.18235 0.3566 0.0
C1193 C 0.29003 0.17203 0.37096 0.0
C1194 C 0.26324 0.17479 0.34831 0.0
C1195 C 0.25611 0.1567 0.35412 0.0
C1196 C 0.2664 0.14607 0.36808 0.0
C1197 C 0.2832 0.15369 0.37647 0.0
C1198 C 0.22048 0.12327 0.3292 0.0
C1199 C 0.20495 0.13589 0.32542 0.0
C1200 C 0.23685 0.12981 0.33912 0.0
C1201 C 0.23803 0.14909 0.3454 0.0
C1202 C 0.22214 0.16143 0.34239 0.0
C1203 C 0.20577 0.1549 0.33252 0.0
H1204 H 0.30065 0.7848 0.82702 0.0
H1205 H 0.32919 0.77849 0.88229 0.0
H1206 H 0.32095 0.75944 0.81362 0.0
H1207 H 0.34985 0.7532 0.86868 0.0
H1208 H 0.36633 0.69362 0.8412 0.0
H1209 H 0.34756 0.71962 0.85625 0.0
H1210 H 0.35452 0.75435 0.80482 0.0
H1211 H 0.37279 0.72848 0.78973 0.0
C1212 C 0.31136 0.7781 0.83629 0.0
C1213 C 0.31333 0.78369 0.85571 0.0
C1214 C 0.32308 0.76361 0.82857 0.0
C1215 C 0.33707 0.75436 0.84008 0.0
C1216 C 0.33909 0.75995 0.85951 0.0
C1217 C 0.32735 0.77452 0.86725 0.0
C1218 C 0.3639 0.70685 0.83318 0.0
C1219 C 0.37086 0.70889 0.81421 0.0
C1220 C 0.35324 0.72176 0.84182 0.0
C1221 C 0.3494 0.73896 0.83163 0.0
C1222 C 0.35689 0.74114 0.8129 0.0
C1223 C 0.36743 0.7263 0.80428 0.0
H1224 H 0.69201 0.84518 0.36421 0.0
H1225 H 0.71737 0.78844 0.35711 0.0
H1226 H 0.71885 0.85931 0.34605 0.0
H1227 H 0.74415 0.80256 0.33932 0.0
H1228 H 0.77587 0.83114 0.28917 0.0
H1229 H 0.74924 0.81788 0.30791 0.0
H1230 H 0.75423 0.86503 0.34861 0.0
H1231 H 0.78081 0.87855 0.32965 0.0
C1232 C 0.70331 0.83574 0.35884 0.0
C1233 C 0.70249 0.81568 0.36201 0.0
C1234 C 0.71873 0.84384 0.34855 0.0
C1235 C 0.73356 0.83203 0.34119 0.0
C1236 C 0.7328 0.81201 0.34454 0.0
C1237 C 0.71746 0.80394 0.35483 0.0
C1238 C 0.77135 0.83869 0.30213 0.0
C1239 C 0.78049 0.85587 0.30795 0.0
C1240 C 0.75613 0.83103 0.31292 0.0
C1241 C 0.74967 0.84038 0.32976 0.0
C1242 C 0.75877 0.8576 0.33559 0.0
C1243 C 0.77408 0.86526 0.32481 0.0
H1244 H 0.72111 0.22236 0.83961 0.0
H1245 H 0.66816 0.20504 0.86782 0.0
H1246 H 0.70397 0.24815 0.82309 0.0
H1247 H 0.65067 0.23046 0.85056 0.0
H1248 H 0.62852 0.28904 0.82867 0.0
H1249 H 0.64582 0.26455 0.84739 0.0
H1250 H 0.68177 0.25222 0.79775 0.0
H1251 H 0.6651 0.27708 0.77947 0.0
C1252 C 0.70573 0.22396 0.84214 0.0
C1253 C 0.69595 0.21157 0.85489 0.0
C1254 C 0.69585 0.23872 0.83258 0.0
C1255 C 0.67585 0.2413 0.83527 0.0
C1256 C 0.6661 0.22904 0.84827 0.0
C1257 C 0.67608 0.21439 0.85806 0.0
C1258 C 0.6402 0.28114 0.82185 0.0
C1259 C 0.64553 0.28509 0.80265 0.0
C1260 C 0.65004 0.26701 0.83252 0.0
C1261 C 0.66528 0.25642 0.82414 0.0
C1262 C 0.67043 0.26034 0.80486 0.0
C1263 C 0.66077 0.27457 0.79431 0.0
H1264 H 0.26935 0.80811 0.60897 0.0
H1265 H 0.31004 0.84911 0.63293 0.0
H1266 H 0.24265 0.82694 0.62195 0.0
H1267 H 0.28318 0.8682 0.64563 0.0
H1268 H 0.23312 0.87658 0.6893 0.0
H1269 H 0.26024 0.86285 0.67178 0.0
H1270 H 0.22458 0.85735 0.62073 0.0
H1271 H 0.19712 0.87088 0.63848 0.0
C1272 C 0.27261 0.82132 0.61674 0.0
C1273 C 0.29186 0.82699 0.62011 0.0
C1274 C 0.25726 0.8322 0.62406 0.0
C1275 C 0.26079 0.849 0.63493 0.0
C1276 C 0.28001 0.85516 0.63755 0.0
C1277 C 0.29539 0.84427 0.6302 0.0
C1278 C 0.23103 0.8726 0.67429 0.0
C1279 C 0.21289 0.87467 0.66533 0.0
C1280 C 0.24668 0.86488 0.66418 0.0
C1281 C 0.24459 0.85902 0.64485 0.0
C1282 C 0.22659 0.86158 0.63568 0.0
C1283 C 0.21089 0.86938 0.64582 0.0
H1284 H 0.70566 0.78039 0.14489 0.0
H1285 H 0.65242 0.79422 0.11515 0.0
H1286 H 0.69085 0.75148 0.15814 0.0
H1287 H 0.63766 0.76484 0.12808 0.0
H1288 H 0.61296 0.72322 0.17446 0.0
H1289 H 0.62644 0.75123 0.15809 0.0
H1290 H 0.67977 0.71999 0.14863 0.0
H1291 H 0.66647 0.69209 0.16559 0.0
C1292 C 0.69078 0.77723 0.14113 0.0
C1293 C 0.6802 0.78963 0.12897 0.0
C1294 C 0.68234 0.76052 0.14858 0.0
C1295 C 0.66314 0.7557 0.144 0.0
C1296 C 0.65246 0.7682 0.13199 0.0
C1297 C 0.6609 0.78503 0.12458 0.0
C1298 C 0.62748 0.72221 0.16868 0.0
C1299 C 0.63873 0.70548 0.17151 0.0
C1300 C 0.63518 0.73828 0.15921 0.0
C1301 C 0.65426 0.73796 0.15225 0.0
C1302 C 0.66516 0.72086 0.15421 0.0
C1303 C 0.65749 0.70481 0.16379 0.0
H1304 H 0.80035 0.14382 0.65197 0.0
H1305 H 0.76441 0.10935 0.68975 0.0
H1306 H 0.77134 0.1574 0.63699 0.0
H1307 H 0.73558 0.12287 0.67473 0.0
H1308 H 0.69493 0.17604 0.66535 0.0
H1309 H 0.72189 0.15623 0.67634 0.0
H1310 H 0.74136 0.14968 0.61738 0.0
H1311 H 0.71429 0.1696 0.60628 0.0
C1312 C 0.7863 0.13891 0.65686 0.0
C1313 C 0.7847 0.12569 0.6722 0.0
C1314 C 0.7697 0.1466 0.64821 0.0
C1315 C 0.75122 0.14129 0.65483 0.0
C1316 C 0.74964 0.12739 0.66952 0.0
C1317 C 0.76619 0.11962 0.67806 0.0
C1318 C 0.70476 0.17013 0.65468 0.0
C1319 C 0.70254 0.17447 0.63497 0.0
C1320 C 0.72016 0.1587 0.66097 0.0
C1321 C 0.73376 0.15149 0.64771 0.0
C1322 C 0.73116 0.1552 0.62791 0.0
C1323 C 0.7156 0.16649 0.62158 0.0
H1324 H 0.33384 0.18969 0.15522 0.0
H1325 H 0.30989 0.22298 0.10804 0.0
H1326 H 0.34812 0.21898 0.16861 0.0
H1327 H 0.32447 0.25223 0.12129 0.0
H1328 H 0.32815 0.30098 0.16754 0.0
H1329 H 0.31804 0.27232 0.1497 0.0
H1330 H 0.37216 0.24437 0.16376 0.0
H1331 H 0.38217 0.27289 0.18189 0.0
C1332 C 0.3319 0.20319 0.14751 0.0
C1333 C 0.32058 0.20402 0.13066 0.0
C1334 C 0.34017 0.21998 0.15514 0.0
C1335 C 0.33729 0.23796 0.14609 0.0
C1336 C 0.32669 0.23864 0.12876 0.0
C1337 C 0.31844 0.22185 0.12111 0.0
C1338 C 0.33799 0.28881 0.16666 0.0
C1339 C 0.35589 0.28917 0.17628 0.0
C1340 C 0.33224 0.27241 0.15633 0.0
C1341 C 0.34427 0.25602 0.15539 0.0
C1342 C 0.36246 0.25666 0.16444 0.0
C1343 C 0.36822 0.27305 0.17475 0.0
H1344 H 0.80959 0.6686 0.70823 0.0
H1345 H 0.82432 0.60984 0.72368 0.0
H1346 H 0.82975 0.68056 0.73449 0.0
H1347 H 0.84461 0.62192 0.75007 0.0
H1348 H 0.85362 0.65452 0.80983 0.0
H1349 H 0.83828 0.63936 0.78177 0.0
H1350 H 0.86436 0.68202 0.74443 0.0
H1351 H 0.87957 0.69721 0.77226 0.0
C1352 C 0.8173 0.65823 0.7171 0.0
C1353 C 0.81533 0.63828 0.7139 0.0
C1354 C 0.82893 0.66509 0.73209 0.0
C1355 C 0.83874 0.65215 0.74432 0.0
C1356 C 0.83709 0.63219 0.74093 0.0
C1357 C 0.82559 0.62531 0.72576 0.0
C1358 C 0.85631 0.66048 0.7956 0.0
C1359 C 0.86761 0.67722 0.79333 0.0
C1360 C 0.84759 0.65175 0.77954 0.0
C1361 C 0.84996 0.65967 0.76097 0.0
C1362 C 0.86203 0.6758 0.75862 0.0
C1363 C 0.87079 0.68445 0.77459 0.0
H1364 H 0.84195 0.33779 0.19346 0.0
H1365 H 0.89053 0.31718 0.22691 0.0
H1366 H 0.83047 0.356 0.22129 0.0
H1367 H 0.87958 0.33607 0.25455 0.0
H1368 H 0.83891 0.34833 0.30583 0.0
H1369 H 0.85481 0.33437 0.27775 0.0
H1370 H 0.83473 0.38213 0.2427 0.0
H1371 H 0.81811 0.3956 0.27068 0.0
C1372 C 0.85041 0.3375 0.20664 0.0
C1373 C 0.86702 0.32592 0.20806 0.0
C1374 C 0.84389 0.34804 0.22262 0.0
C1375 C 0.85401 0.34743 0.2403 0.0
C1376 C 0.87118 0.33656 0.24134 0.0
C1377 C 0.87753 0.32582 0.22545 0.0
C1378 C 0.83813 0.35599 0.29219 0.0
C1379 C 0.82712 0.37296 0.29043 0.0
C1380 C 0.84733 0.34803 0.27606 0.0
C1381 C 0.84596 0.35702 0.25783 0.0
C1382 C 0.83576 0.37457 0.25637 0.0
C1383 C 0.82635 0.38238 0.27245 0.0
H1384 H 0.16176 0.32118 0.79817 0.0
H1385 H 0.10415 0.3246 0.77407 0.0
H1386 H 0.17433 0.339 0.77067 0.0
H1387 H 0.11671 0.34295 0.74668 0.0
H1388 H 0.15226 0.35024 0.68984 0.0
H1389 H 0.13655 0.33674 0.71843 0.0
H1390 H 0.17484 0.36989 0.7551 0.0
H1391 H 0.19084 0.38286 0.72665 0.0
C1392 C 0.15171 0.32602 0.78716 0.0
C1393 C 0.13198 0.32137 0.78826 0.0
C1394 C 0.15891 0.33635 0.77141 0.0
C1395 C 0.14653 0.34238 0.75643 0.0
C1396 C 0.12667 0.33828 0.75784 0.0
C1397 C 0.11946 0.32788 0.7736 0.0
C1398 C 0.15714 0.35479 0.70401 0.0
C1399 C 0.17294 0.36739 0.706 0.0
C1400 C 0.14809 0.34714 0.7204 0.0
C1401 C 0.15459 0.35207 0.73906 0.0
C1402 C 0.16976 0.36545 0.74096 0.0
C1403 C 0.17887 0.37295 0.72463 0.0
H1404 H 0.15503 0.63917 0.30007 0.0
H1405 H 0.19515 0.60425 0.26719 0.0
H1406 H 0.1424 0.6528 0.27009 0.0
H1407 H 0.18236 0.61775 0.23726 0.0
H1408 H 0.17594 0.67076 0.19564 0.0
H1409 H 0.18494 0.65037 0.22289 0.0
H1410 H 0.12487 0.64585 0.23944 0.0
H1411 H 0.11581 0.66641 0.21221 0.0
C1412 C 0.16093 0.63416 0.28645 0.0
C1413 C 0.17625 0.62081 0.28604 0.0
C1414 C 0.15361 0.64188 0.26926 0.0
C1415 C 0.1615 0.63644 0.25133 0.0
C1416 C 0.17618 0.6224 0.25088 0.0
C1417 C 0.18344 0.61463 0.26804 0.0
C1418 C 0.1646 0.66516 0.20488 0.0
C1419 C 0.14519 0.67037 0.20187 0.0
C1420 C 0.16975 0.65339 0.22045 0.0
C1421 C 0.15561 0.64664 0.2334 0.0
C1422 C 0.13609 0.65105 0.22984 0.0
C1423 C 0.13092 0.66273 0.21417 0.0
H1424 H 0.7702 0.88741 0.68814 0.0
H1425 H 0.81239 0.85499 0.65531 0.0
H1426 H 0.74431 0.87311 0.66904 0.0
H1427 H 0.78645 0.84099 0.63592 0.0
H1428 H 0.73481 0.79994 0.6275 0.0
H1429 H 0.76124 0.81741 0.64254 0.0
H1430 H 0.72925 0.87083 0.63704 0.0
H1431 H 0.70242 0.85318 0.62215 0.0
C1432 C 0.77398 0.87746 0.67666 0.0
C1433 C 0.79336 0.87216 0.67339 0.0
C1434 C 0.75911 0.86936 0.66562 0.0
C1435 C 0.7633 0.8558 0.65107 0.0
C1436 C 0.78274 0.85116 0.64726 0.0
C1437 C 0.79761 0.85925 0.6583 0.0
C1438 C 0.73337 0.81542 0.62938 0.0
C1439 C 0.71644 0.82515 0.6237 0.0
C1440 C 0.74865 0.82547 0.63788 0.0
C1441 C 0.74741 0.84552 0.64091 0.0
C1442 C 0.73057 0.85534 0.63502 0.0
C1443 C 0.71525 0.84525 0.62645 0.0
H1444 H 0.61449 0.28785 0.16921 0.0
H1445 H 0.67074 0.3095 0.18584 0.0
H1446 H 0.62991 0.26032 0.15318 0.0
H1447 H 0.68605 0.28231 0.16962 0.0
H1448 H 0.70423 0.21958 0.16526 0.0
H1449 H 0.68759 0.24791 0.17774 0.0
H1450 H 0.65172 0.24965 0.1266 0.0
H1451 H 0.66826 0.22095 0.11412 0.0
C1452 C 0.63013 0.28697 0.16907 0.0
C1453 C 0.6414 0.30069 0.179 0.0
C1454 C 0.63895 0.27121 0.1599 0.0
C1455 C 0.65916 0.26897 0.1605 0.0
C1456 C 0.67042 0.28338 0.16935 0.0
C1457 C 0.66164 0.29904 0.17852 0.0
C1458 C 0.69273 0.2259 0.15669 0.0
C1459 C 0.68763 0.21806 0.13867 0.0
C1460 C 0.68331 0.24225 0.16377 0.0
C1461 C 0.66855 0.25119 0.153 0.0
C1462 C 0.66302 0.24306 0.13521 0.0
C1463 C 0.67251 0.22665 0.12809 0.0
H1464 H 0.30316 0.14713 0.63414 0.0
H1465 H 0.27542 0.20319 0.63436 0.0
H1466 H 0.27614 0.13386 0.65277 0.0
H1467 H 0.24852 0.18992 0.65251 0.0
H1468 H 0.21667 0.16658 0.70483 0.0
H1469 H 0.24329 0.17834 0.68521 0.0
H1470 H 0.24106 0.12632 0.65065 0.0
H1471 H 0.21445 0.11428 0.67062 0.0
C1472 C 0.29129 0.15657 0.63805 0.0
C1473 C 0.29155 0.17624 0.63292 0.0
C1474 C 0.27577 0.14896 0.64861 0.0
C1475 C 0.26027 0.16089 0.65424 0.0
C1476 C 0.2604 0.18043 0.64872 0.0
C1477 C 0.27583 0.18801 0.63823 0.0
C1478 C 0.22178 0.15763 0.69303 0.0
C1479 C 0.21339 0.13952 0.68925 0.0
C1480 C 0.23701 0.16443 0.68171 0.0
C1481 C 0.24422 0.15331 0.6663 0.0
C1482 C 0.2359 0.13515 0.66252 0.0
C1483 C 0.22059 0.12832 0.67387 0.0
H1484 H 0.29056 0.77691 0.16769 0.0
H1485 H 0.33171 0.77901 0.12071 0.0
H1486 H 0.30813 0.74988 0.18184 0.0
H1487 H 0.34951 0.75211 0.13511 0.0
H1488 H 0.36332 0.69026 0.15611 0.0
H1489 H 0.34575 0.7172 0.14139 0.0
H1490 H 0.3389 0.74348 0.19766 0.0
H1491 H 0.35605 0.71657 0.21237 0.0
C1492 C 0.30344 0.77171 0.16045 0.0
C1493 C 0.30976 0.78014 0.14309 0.0
C1494 C 0.31355 0.75625 0.16861 0.0
C1495 C 0.33021 0.74885 0.15959 0.0
C1496 C 0.33659 0.75734 0.14227 0.0
C1497 C 0.32648 0.77284 0.13412 0.0
C1498 C 0.358 0.70176 0.16532 0.0
C1499 C 0.36103 0.70122 0.18541 0.0
C1500 C 0.34806 0.71725 0.15688 0.0
C1501 C 0.34092 0.73245 0.16838 0.0
C1502 C 0.34398 0.73187 0.18844 0.0
C1503 C 0.3539 0.71645 0.19685 0.0
H1504 H 0.68909 0.16495 0.34125 0.0
H1505 H 0.72468 0.18482 0.38866 0.0
H1506 H 0.71624 0.14627 0.32876 0.0
H1507 H 0.75166 0.16575 0.37646 0.0
H1508 H 0.80054 0.15403 0.33237 0.0
H1509 H 0.77322 0.1683 0.34929 0.0
H1510 H 0.73782 0.11918 0.33375 0.0
H1511 H 0.76508 0.10509 0.31637 0.0
C1512 C 0.70259 0.16505 0.3492 0.0
C1513 C 0.70478 0.17653 0.36582 0.0
C1514 C 0.71815 0.15425 0.3421 0.0
C1515 C 0.73619 0.15463 0.35153 0.0
C1516 C 0.73807 0.16542 0.36865 0.0
C1517 C 0.72257 0.17627 0.3757 0.0
C1518 C 0.78701 0.14614 0.33276 0.0
C1519 C 0.78495 0.1285 0.32288 0.0
C1520 C 0.77135 0.15428 0.34256 0.0
C1521 C 0.75327 0.14494 0.34279 0.0
C1522 C 0.75145 0.1269 0.33359 0.0
C1523 C 0.76712 0.11877 0.32373 0.0
H1524 H 0.30673 0.22993 0.89203 0.0
H1525 H 0.3437 0.18809 0.86386 0.0
H1526 H 0.32621 0.25608 0.87885 0.0
H1527 H 0.36349 0.21431 0.85107 0.0
H1528 H 0.37221 0.26454 0.80845 0.0
H1529 H 0.35764 0.23807 0.82611 0.0
H1530 H 0.3574 0.27272 0.87813 0.0
H1531 H 0.37179 0.29964 0.86021 0.0
C1532 C 0.31923 0.22629 0.88332 0.0
C1533 C 0.32351 0.20692 0.87876 0.0
C1534 C 0.33048 0.24131 0.87587 0.0
C1535 C 0.34627 0.23729 0.86374 0.0
C1536 C 0.35118 0.21788 0.86008 0.0
C1537 C 0.3399 0.20285 0.86748 0.0
C1538 C 0.36918 0.26656 0.82368 0.0
C1539 C 0.37306 0.28428 0.83289 0.0
C1540 C 0.36098 0.25126 0.83387 0.0
C1541 C 0.35644 0.25322 0.85356 0.0
C1542 C 0.36061 0.27082 0.86292 0.0
C1543 C 0.36889 0.2862 0.85268 0.0
H1544 H 0.26777 0.81916 0.38906 0.0
H1545 H 0.29997 0.8279 0.33622 0.0
H1546 H 0.24212 0.84009 0.37691 0.0
H1547 H 0.27417 0.84849 0.32396 0.0
H1548 H 0.23049 0.89425 0.31054 0.0
H1549 H 0.25715 0.87902 0.32786 0.0
H1550 H 0.21755 0.8371 0.35186 0.0
H1551 H 0.19082 0.85254 0.33487 0.0
C1552 C 0.26946 0.82567 0.37492 0.0
C1553 C 0.28585 0.82173 0.36353 0.0
C1554 C 0.25471 0.83759 0.36794 0.0
C1555 C 0.25603 0.84585 0.34943 0.0
C1556 C 0.27278 0.84253 0.33837 0.0
C1557 C 0.28754 0.83062 0.34536 0.0
C1558 C 0.22741 0.88197 0.31976 0.0
C1559 C 0.20855 0.87448 0.32118 0.0
C1560 C 0.24272 0.87319 0.32959 0.0
C1561 C 0.23951 0.85673 0.34105 0.0
C1562 C 0.22049 0.84986 0.34327 0.0
C1563 C 0.20517 0.85866 0.33346 0.0
H1564 H 0.61251 0.72835 0.82009 0.0
H1565 H 0.66021 0.6943 0.84193 0.0
H1566 H 0.62499 0.75666 0.83678 0.0
H1567 H 0.67236 0.72254 0.8592 0.0
H1568 H 0.70286 0.78091 0.86198 0.0
H1569 H 0.68802 0.75176 0.84935 0.0
H1570 H 0.63177 0.77268 0.8669 0.0
H1571 H 0.64668 0.80232 0.87915 0.0
C1572 C 0.62546 0.72679 0.82879 0.0
C1573 C 0.63553 0.70912 0.82945 0.0
C1574 C 0.63256 0.74304 0.83845 0.0
C1575 C 0.64983 0.74196 0.84911 0.0
C1576 C 0.65926 0.72398 0.85073 0.0
C1577 C 0.65222 0.70775 0.84096 0.0
C1578 C 0.68731 0.77935 0.86316 0.0
C1579 C 0.67594 0.79398 0.87154 0.0
C1580 C 0.67881 0.7625 0.85608 0.0
C1581 C 0.65872 0.75975 0.8573 0.0
C1582 C 0.64729 0.7744 0.86563 0.0
C1583 C 0.65582 0.79138 0.87265 0.0
H1584 H 0.11358 0.24477 0.23893 0.0
H1585 H 0.08831 0.21504 0.19017 0.0
H1586 H 0.1215 0.21391 0.25375 0.0
H1587 H 0.09515 0.18405 0.20546 0.0
H1588 H 0.13655 0.13549 0.22284 0.0
H1589 H 0.12222 0.16491 0.21041 0.0
H1590 H 0.11274 0.18507 0.26887 0.0
H1591 H 0.12818 0.15585 0.28128 0.0
C1592 C 0.10923 0.2316 0.23163 0.0
C1593 C 0.10053 0.23229 0.2133 0.0
C1594 C 0.11368 0.21384 0.24019 0.0
C1595 C 0.10921 0.19635 0.23075 0.0
C1596 C 0.09933 0.19716 0.21295 0.0
C1597 C 0.09524 0.21492 0.20422 0.0
C1598 C 0.13121 0.14609 0.23307 0.0
C1599 C 0.13363 0.1434 0.25304 0.0
C1600 C 0.12281 0.16298 0.22593 0.0
C1601 C 0.11629 0.17753 0.23859 0.0
C1602 C 0.11792 0.17441 0.25865 0.0
C1603 C 0.12664 0.15759 0.26579 0.0
H1604 H 0.36612 0.64243 0.72828 0.0
H1605 H 0.33452 0.63108 0.78103 0.0
H1606 H 0.33844 0.63166 0.70938 0.0
H1607 H 0.30683 0.62003 0.76185 0.0
H1608 H 0.26607 0.59035 0.7155 0.0
H1609 H 0.2961 0.59406 0.7342 0.0
H1610 H 0.30493 0.65028 0.70858 0.0
H1611 H 0.27496 0.64683 0.69031 0.0
C1612 C 0.35345 0.63725 0.73588 0.0
C1613 C 0.3524 0.63795 0.75619 0.0
C1614 C 0.33762 0.63111 0.72502 0.0
C1615 C 0.32053 0.62528 0.73421 0.0
C1616 C 0.31993 0.62445 0.75448 0.0
C1617 C 0.33574 0.63083 0.76542 0.0
C1618 C 0.27453 0.60343 0.71383 0.0
C1619 C 0.26822 0.61834 0.70153 0.0
C1620 C 0.2916 0.60554 0.72454 0.0
C1621 C 0.30278 0.62238 0.72268 0.0
C1622 C 0.29663 0.63707 0.71009 0.0
C1623 C 0.27944 0.63515 0.69975 0.0
H1624 H 0.8683 0.86195 0.22635 0.0
H1625 H 0.86468 0.83897 0.28433 0.0
H1626 H 0.88077 0.83118 0.21489 0.0
H1627 H 0.87788 0.8083 0.27298 0.0
H1628 H 0.86899 0.75107 0.23953 0.0
H1629 H 0.86464 0.78259 0.25433 0.0
H1630 H 0.90557 0.80725 0.21404 0.0
H1631 H 0.90941 0.77567 0.19875 0.0
C1632 C 0.87064 0.85048 0.23676 0.0
C1633 C 0.8652 0.8528 0.25619 0.0
C1634 C 0.87792 0.83282 0.23019 0.0
C1635 C 0.88009 0.81713 0.24295 0.0
C1636 C 0.87596 0.81994 0.26267 0.0
C1637 C 0.86852 0.83756 0.26921 0.0
C1638 C 0.87725 0.76315 0.23395 0.0
C1639 C 0.88936 0.76091 0.21781 0.0
C1640 C 0.87488 0.78125 0.24256 0.0
C1641 C 0.88469 0.79754 0.23534 0.0
C1642 C 0.89754 0.79509 0.21977 0.0
C1643 C 0.89981 0.77697 0.21105 0.0
H1644 H 0.63207 0.36297 0.71812 0.0
H1645 H 0.64666 0.37534 0.77757 0.0
H1646 H 0.66103 0.37948 0.70747 0.0
H1647 H 0.67524 0.39301 0.76691 0.0
H1648 H 0.73747 0.39141 0.74275 0.0
H1649 H 0.7055 0.38451 0.75529 0.0
H1650 H 0.67999 0.40661 0.70258 0.0
H1651 H 0.71225 0.4124 0.68961 0.0
C1652 C 0.64119 0.36975 0.72891 0.0
C1653 C 0.63725 0.3676 0.74869 0.0
C1654 C 0.65782 0.3794 0.72279 0.0
C1655 C 0.67075 0.38746 0.73631 0.0
C1656 C 0.66595 0.38655 0.75608 0.0
C1657 C 0.64949 0.37655 0.76221 0.0
C1658 C 0.72502 0.39511 0.73397 0.0
C1659 C 0.72736 0.40215 0.71508 0.0
C1660 C 0.70658 0.39127 0.74122 0.0
C1661 C 0.69001 0.39473 0.72989 0.0
C1662 C 0.69238 0.40323 0.71154 0.0
C1663 C 0.71087 0.4067 0.70413 0.0
H1664 H 0.10227 0.74751 0.74604 0.0
H1665 H 0.11123 0.78152 0.79773 0.0
H1666 H 0.11224 0.77501 0.72629 0.0
H1667 H 0.12138 0.80883 0.77803 0.0
H1668 H 0.12955 0.85899 0.7381 0.0
H1669 H 0.11153 0.83308 0.75388 0.0
H1670 H 0.14381 0.79072 0.72121 0.0
H1671 H 0.16163 0.81653 0.70527 0.0
C1672 C 0.1061 0.76091 0.75318 0.0
C1673 C 0.10613 0.76226 0.77347 0.0
C1674 C 0.11189 0.77663 0.74186 0.0
C1675 C 0.11771 0.79405 0.75059 0.0
C1676 C 0.11679 0.79569 0.77083 0.0
C1677 C 0.1111 0.77997 0.78214 0.0
C1678 C 0.13255 0.84417 0.73401 0.0
C1679 C 0.14719 0.83981 0.72058 0.0
C1680 C 0.12229 0.82933 0.74314 0.0
C1681 C 0.12638 0.80986 0.73893 0.0
C1682 C 0.1402 0.80557 0.72467 0.0
C1683 C 0.15051 0.82039 0.71561 0.0
H1684 H 0.64988 0.62653 0.21739 0.0
H1685 H 0.63513 0.64399 0.2755 0.0
H1686 H 0.67867 0.61015 0.22964 0.0
H1687 H 0.66422 0.62878 0.28761 0.0
H1688 H 0.71346 0.59432 0.30876 0.0
H1689 H 0.68183 0.60146 0.29496 0.0
H1690 H 0.70924 0.61789 0.24118 0.0
H1691 H 0.7406 0.60951 0.25469 0.0
C1692 C 0.65275 0.62678 0.23279 0.0
C1693 C 0.64028 0.63661 0.24546 0.0
C1694 C 0.66934 0.61753 0.23982 0.0
C1695 C 0.674 0.6182 0.25965 0.0
C1696 C 0.66108 0.62753 0.27232 0.0
C1697 C 0.64437 0.63645 0.26534 0.0
C1698 C 0.71261 0.59911 0.29387 0.0
C1699 C 0.72946 0.60148 0.28284 0.0
C1700 C 0.69449 0.60338 0.28597 0.0
C1701 C 0.69286 0.61064 0.26701 0.0
C1702 C 0.70975 0.61214 0.25573 0.0
C1703 C 0.72782 0.60743 0.2635 0.0
H1704 H 0.89378 0.21332 0.80157 0.0
H1705 H 0.88982 0.24614 0.74854 0.0
H1706 H 0.88677 0.18376 0.7838 0.0
H1707 H 0.88236 0.21649 0.7308 0.0
H1708 H 0.87941 0.15559 0.70342 0.0
H1709 H 0.89338 0.18374 0.71996 0.0
H1710 H 0.8566 0.17283 0.76923 0.0
H1711 H 0.84296 0.14495 0.75307 0.0
C1712 C 0.89159 0.21421 0.78608 0.0
C1713 C 0.89206 0.23211 0.77651 0.0
C1714 C 0.88752 0.19727 0.77591 0.0
C1715 C 0.8837 0.19785 0.75596 0.0
C1716 C 0.88531 0.21558 0.74615 0.0
C1717 C 0.88949 0.23257 0.75634 0.0
C1718 C 0.87446 0.15918 0.71784 0.0
C1719 C 0.86006 0.14805 0.7269 0.0
C1720 C 0.88239 0.1753 0.72726 0.0
C1721 C 0.8762 0.1804 0.74595 0.0
C1722 C 0.86197 0.1691 0.755 0.0
C1723 C 0.85401 0.15317 0.74561 0.0
H1724 H 0.36422 0.38637 0.26239 0.0
H1725 H 0.32923 0.35723 0.21954 0.0
H1726 H 0.33532 0.40184 0.27542 0.0
H1727 H 0.30036 0.37241 0.23279 0.0
H1728 H 0.27811 0.39464 0.31048 0.0
H1729 H 0.3086 0.38862 0.29411 0.0
H1730 H 0.28185 0.40192 0.23922 0.0
H1731 H 0.2511 0.40768 0.25564 0.0
C1732 C 0.35042 0.38348 0.25555 0.0
C1733 C 0.34899 0.37034 0.24011 0.0
C1734 C 0.33385 0.39229 0.26308 0.0
C1735 C 0.31551 0.38817 0.25531 0.0
C1736 C 0.31426 0.37602 0.23904 0.0
C1737 C 0.33083 0.36721 0.23151 0.0
C1738 C 0.27877 0.39661 0.29495 0.0
C1739 C 0.26211 0.40142 0.28434 0.0
C1740 C 0.29632 0.39329 0.28556 0.0
C1741 C 0.29764 0.39468 0.26533 0.0
C1742 C 0.28123 0.40051 0.2548 0.0
C1743 C 0.26365 0.40391 0.26423 0.0
H1744 H 0.22518 0.12147 0.135 0.0
H1745 H 0.27938 0.13866 0.16102 0.0
H1746 H 0.21287 0.11238 0.16667 0.0
H1747 H 0.26719 0.12913 0.19267 0.0
H1748 H 0.22656 0.142 0.24439 0.0
H1749 H 0.24314 0.14388 0.21351 0.0
H1750 H 0.21485 0.09134 0.19493 0.0
H1751 H 0.19788 0.08964 0.22588 0.0
C1752 C 0.23464 0.12289 0.14741 0.0
C1753 C 0.25315 0.13108 0.14552 0.0
C1754 C 0.22761 0.11757 0.16558 0.0
C1755 C 0.23896 0.12027 0.18223 0.0
C1756 C 0.25796 0.12723 0.18015 0.0
C1757 C 0.26498 0.13259 0.162 0.0
C1758 C 0.22399 0.13072 0.23383 0.0
C1759 C 0.21077 0.11577 0.23754 0.0
C1760 C 0.23365 0.13171 0.21615 0.0
C1761 C 0.23033 0.11776 0.20174 0.0
C1762 C 0.21758 0.10241 0.20568 0.0
C1763 C 0.20792 0.1014 0.22343 0.0
H1764 H 0.33883 0.78308 0.67749 0.0
H1765 H 0.37595 0.75898 0.63336 0.0
H1766 H 0.35996 0.77001 0.70239 0.0
H1767 H 0.39727 0.74604 0.65839 0.0
H1768 H 0.4042 0.70016 0.70853 0.0
H1769 H 0.39238 0.71937 0.68154 0.0
H1770 H 0.39215 0.77029 0.71773 0.0
H1771 H 0.40378 0.75101 0.7449 0.0
C1772 C 0.35171 0.77531 0.67309 0.0
C1773 C 0.35556 0.77185 0.65345 0.0
C1774 C 0.36393 0.76795 0.68738 0.0
C1775 C 0.38024 0.75689 0.68236 0.0
C1776 C 0.38469 0.75433 0.66269 0.0
C1777 C 0.37251 0.76181 0.64837 0.0
C1778 C 0.40207 0.71554 0.71064 0.0
C1779 C 0.40462 0.72398 0.72896 0.0
C1780 C 0.39539 0.72659 0.69511 0.0
C1781 C 0.39108 0.7463 0.69758 0.0
C1782 C 0.39506 0.75506 0.71549 0.0
C1783 C 0.40183 0.74402 0.73102 0.0
H1784 H 0.80678 0.88687 0.22141 0.0
H1785 H 0.75575 0.9102 0.24897 0.0
H1786 H 0.78811 0.88013 0.19247 0.0
H1787 H 0.73706 0.90385 0.21967 0.0
H1788 H 0.70841 0.85893 0.17772 0.0
H1789 H 0.72512 0.87477 0.20431 0.0
H1790 H 0.77047 0.89265 0.16525 0.0
H1791 H 0.754 0.87631 0.13871 0.0
C1792 C 0.79164 0.89092 0.22117 0.0
C1793 C 0.78271 0.89887 0.2376 0.0
C1794 C 0.78093 0.88719 0.20447 0.0
C1795 C 0.76104 0.89137 0.20375 0.0
C1796 C 0.7523 0.90022 0.21985 0.0
C1797 C 0.76304 0.90395 0.2366 0.0
C1798 C 0.72175 0.86655 0.1747 0.0
C1799 C 0.73004 0.86606 0.15616 0.0
C1800 C 0.7313 0.87575 0.18996 0.0
C1801 C 0.74929 0.88476 0.18698 0.0
C1802 C 0.75684 0.88549 0.16811 0.0
C1803 C 0.74734 0.87621 0.15288 0.0
H1804 H 0.61543 0.25463 0.74269 0.0
H1805 H 0.58988 0.30533 0.7167 0.0
H1806 H 0.62121 0.24107 0.71078 0.0
H1807 H 0.59454 0.29135 0.68472 0.0
H1808 H 0.63368 0.27538 0.63365 0.0
H1809 H 0.62035 0.28671 0.66393 0.0
H1810 H 0.61054 0.22755 0.68176 0.0
H1811 H 0.62498 0.21621 0.65164 0.0
C1812 C 0.61057 0.26264 0.73013 0.0
C1813 C 0.60243 0.28113 0.73215 0.0
C1814 C 0.61377 0.25481 0.71177 0.0
C1815 C 0.60856 0.26517 0.69502 0.0
C1816 C 0.59925 0.28315 0.6972 0.0
C1817 C 0.59643 0.29114 0.71554 0.0
C1818 C 0.62841 0.26476 0.64388 0.0
C1819 C 0.63059 0.24489 0.64032 0.0
C1820 C 0.6206 0.27128 0.6613 0.0
C1821 C 0.61444 0.25809 0.67551 0.0
C1822 C 0.61552 0.23816 0.6714 0.0
C1823 C 0.62365 0.23163 0.65405 0.0
H1824 H 0.19853 0.90541 0.7752 0.0
H1825 H 0.23457 0.85895 0.75394 0.0
H1826 H 0.21409 0.90284 0.80689 0.0
H1827 H 0.24977 0.85621 0.78544 0.0
H1828 H 0.28261 0.86024 0.83974 0.0
H1829 H 0.27078 0.87202 0.80871 0.0
H1830 H 0.21363 0.87886 0.83303 0.0
H1831 H 0.22553 0.86753 0.86416 0.0
C1832 C 0.20987 0.89479 0.77723 0.0
C1833 C 0.21522 0.88228 0.76211 0.0
C1834 C 0.21873 0.89329 0.79537 0.0
C1835 C 0.23318 0.87934 0.79868 0.0
C1836 C 0.23892 0.86732 0.78333 0.0
C1837 C 0.23006 0.86877 0.76528 0.0
C1838 C 0.26762 0.86466 0.83859 0.0
C1839 C 0.25493 0.86264 0.85433 0.0
C1840 C 0.26082 0.87131 0.82078 0.0
C1841 C 0.24119 0.87603 0.81832 0.0
C1842 C 0.22885 0.87542 0.83445 0.0
C1843 C 0.23566 0.86882 0.8523 0.0
H1844 H 0.63126 0.74106 0.24493 0.0
H1845 H 0.58969 0.70184 0.27018 0.0
H1846 H 0.63203 0.75956 0.27476 0.0
H1847 H 0.59019 0.72069 0.30007 0.0
H1848 H 0.62583 0.79573 0.32668 0.0
H1849 H 0.61457 0.78051 0.29691 0.0
H1850 H 0.61413 0.72495 0.32549 0.0
H1851 H 0.62491 0.74015 0.35527 0.0
C1852 C 0.62205 0.73655 0.25676 0.0
C1853 C 0.6106 0.71984 0.25526 0.0
C1854 C 0.62234 0.74729 0.27383 0.0
C1855 C 0.61117 0.7416 0.28983 0.0
C1856 C 0.59909 0.72534 0.28806 0.0
C1857 C 0.59878 0.71457 0.27093 0.0
C1858 C 0.62284 0.78035 0.32676 0.0
C1859 C 0.62662 0.7691 0.34325 0.0
C1860 C 0.61652 0.77161 0.30965 0.0
C1861 C 0.61382 0.75147 0.30873 0.0
C1862 C 0.616 0.74051 0.32569 0.0
C1863 C 0.62231 0.74923 0.34278 0.0
H1864 H 0.79863 0.08287 0.77683 0.0
H1865 H 0.76038 0.12788 0.75636 0.0
H1866 H 0.78303 0.0842 0.80857 0.0
H1867 H 0.74518 0.12947 0.78787 0.0
H1868 H 0.71436 0.12631 0.84271 0.0
H1869 H 0.72538 0.11362 0.81174 0.0
H1870 H 0.78325 0.10794 0.83469 0.0
H1871 H 0.77214 0.12009 0.86577 0.0
C1872 C 0.78674 0.09283 0.77901 0.0
C1873 C 0.78087 0.10542 0.76416 0.0
C1874 C 0.77786 0.09365 0.79719 0.0
C1875 C 0.76289 0.10697 0.80078 0.0
C1876 C 0.75646 0.11883 0.78558 0.0
C1877 C 0.76533 0.11806 0.76751 0.0
C1878 C 0.72933 0.12191 0.84129 0.0
C1879 C 0.74246 0.12457 0.85658 0.0
C1880 C 0.73566 0.11472 0.82351 0.0
C1881 C 0.75527 0.11016 0.82062 0.0
C1882 C 0.76804 0.11125 0.83642 0.0
C1883 C 0.76167 0.11833 0.85425 0.0
H1884 H 0.4082 0.25699 0.24991 0.0
H1885 H 0.38009 0.30439 0.27944 0.0
H1886 H 0.40354 0.23656 0.27834 0.0
H1887 H 0.37524 0.28396 0.30762 0.0
H1888 H 0.37652 0.24751 0.36013 0.0
H1889 H 0.39089 0.26629 0.33402 0.0
H1890 H 0.37485 0.22177 0.29321 0.0
H1891 H 0.36076 0.20285 0.31931 0.0
C1892 C 0.40124 0.26313 0.26253 0.0
C1893 C 0.39434 0.28226 0.26235 0.0
C1894 C 0.39852 0.25139 0.27878 0.0
C1895 C 0.38898 0.25861 0.29521 0.0
C1896 C 0.38287 0.27801 0.29531 0.0
C1897 C 0.3855 0.28969 0.27907 0.0
C1898 C 0.37644 0.24151 0.34567 0.0
C1899 C 0.36721 0.22381 0.34176 0.0
C1900 C 0.38458 0.25234 0.33069 0.0
C1901 C 0.38372 0.24567 0.31151 0.0
C1902 C 0.37583 0.22729 0.30784 0.0
C1903 C 0.36766 0.21647 0.32281 0.0
H1904 H 0.21713 0.18673 0.08981 0.0
H1905 H 0.23845 0.22672 0.13287 0.0
H1906 H 0.18529 0.20215 0.09137 0.0
H1907 H 0.2068 0.24182 0.13461 0.0
H1908 H 0.152 0.27352 0.12856 0.0
H1909 H 0.18299 0.26116 0.11722 0.0
H1910 H 0.15948 0.2033 0.11585 0.0
H1911 H 0.12838 0.21567 0.12681 0.0
C1912 C 0.21509 0.19892 0.09944 0.0
C1913 C 0.23026 0.20542 0.11133 0.0
C1914 C 0.19685 0.2077 0.10038 0.0
C1915 C 0.19352 0.22321 0.1131 0.0
C1916 C 0.20893 0.23011 0.12443 0.0
C1917 C 0.22706 0.22131 0.12357 0.0
C1918 C 0.1533 0.25823 0.12542 0.0
C1919 C 0.13781 0.24553 0.12892 0.0
C1920 C 0.17109 0.25114 0.11902 0.0
C1921 C 0.17379 0.23121 0.11599 0.0
C1922 C 0.15787 0.21874 0.11799 0.0
C1923 C 0.14004 0.22583 0.12437 0.0
H1924 H 0.24557 0.75453 0.87806 0.0
H1925 H 0.2207 0.80463 0.90586 0.0
H1926 H 0.21337 0.74228 0.87118 0.0
H1927 H 0.18837 0.79191 0.89994 0.0
H1928 H 0.13778 0.77948 0.85854 0.0
H1929 H 0.16807 0.78925 0.87316 0.0
H1930 H 0.18374 0.72918 0.88101 0.0
H1931 H 0.15364 0.71943 0.86538 0.0
C1932 C 0.23319 0.76268 0.88317 0.0
C1933 C 0.23565 0.78066 0.89227 0.0
C1934 C 0.21466 0.75558 0.87933 0.0
C1935 C 0.19814 0.76618 0.88479 0.0
C1936 C 0.2007 0.78358 0.89506 0.0
C1937 C 0.21923 0.79083 0.89859 0.0
C1938 C 0.14754 0.76833 0.86363 0.0
C1939 C 0.1434 0.74868 0.86058 0.0
C1940 C 0.16494 0.77394 0.87219 0.0
C1941 C 0.17855 0.76003 0.87818 0.0
C1942 C 0.17384 0.74031 0.87619 0.0
C1943 C 0.15651 0.7347 0.86736 0.0
H1944 H 0.68184 0.71043 0.393 0.0
H1945 H 0.73607 0.73871 0.40599 0.0
H1946 H 0.69893 0.68032 0.38705 0.0
H1947 H 0.75319 0.70832 0.4004 0.0
H1948 H 0.77429 0.6619 0.35575 0.0
H1949 H 0.76022 0.69022 0.37112 0.0
H1950 H 0.71819 0.65392 0.39971 0.0
H1951 H 0.73203 0.62554 0.38396 0.0
C1952 C 0.69738 0.71014 0.39498 0.0
C1953 C 0.70761 0.72705 0.39969 0.0
C1954 C 0.70719 0.69279 0.39171 0.0
C1955 C 0.72746 0.69194 0.3931 0.0
C1956 C 0.73759 0.70859 0.39893 0.0
C1957 C 0.72776 0.72597 0.40222 0.0
C1958 C 0.76226 0.65988 0.36558 0.0
C1959 C 0.75408 0.64149 0.36838 0.0
C1960 C 0.75427 0.67614 0.37452 0.0
C1961 C 0.73793 0.67436 0.38649 0.0
C1962 C 0.73056 0.6558 0.3903 0.0
C1963 C 0.73856 0.63953 0.38134 0.0
H1964 H 0.75401 0.23554 0.88789 0.0
H1965 H 0.78052 0.18205 0.90616 0.0
H1966 H 0.78564 0.24864 0.88008 0.0
H1967 H 0.81241 0.19551 0.8996 0.0
H1968 H 0.85994 0.21302 0.85703 0.0
H1969 H 0.83071 0.2016 0.87246 0.0
H1970 H 0.81599 0.26039 0.88818 0.0
H1971 H 0.8449 0.27188 0.87156 0.0
C1972 C 0.7667 0.2268 0.89078 0.0
C1973 C 0.76484 0.20771 0.8974 0.0
C1974 C 0.78492 0.23435 0.88641 0.0
C1975 C 0.80172 0.22309 0.88893 0.0
C1976 C 0.79983 0.20444 0.8969 0.0
C1977 C 0.78157 0.19675 0.90083 0.0
C1978 C 0.85061 0.2235 0.86401 0.0
C1979 C 0.85462 0.24337 0.8629 0.0
C1980 C 0.83383 0.21693 0.87305 0.0
C1981 C 0.82077 0.23004 0.88156 0.0
C1982 C 0.82542 0.24987 0.88142 0.0
C1983 C 0.84207 0.25648 0.87202 0.0
H1984 H 0.27844 0.25748 0.35138 0.0
H1985 H 0.30491 0.27593 0.40494 0.0
H1986 H 0.25981 0.28722 0.35025 0.0
H1987 H 0.28601 0.30593 0.4038 0.0
H1988 H 0.271 0.3657 0.37279 0.0
H1989 H 0.28596 0.3352 0.38228 0.0
H1990 H 0.23357 0.30477 0.36709 0.0
H1991 H 0.21865 0.33516 0.35735 0.0
C1992 C 0.28018 0.26784 0.36301 0.0
C1993 C 0.29324 0.26441 0.37818 0.0
C1994 C 0.26933 0.28482 0.36246 0.0
C1995 C 0.27135 0.29886 0.37701 0.0
C1996 C 0.2842 0.29536 0.39238 0.0
C1997 C 0.29497 0.2782 0.39304 0.0
C1998 C 0.2625 0.35257 0.3719 0.0
C1999 C 0.24377 0.35281 0.36395 0.0
C2000 C 0.27107 0.3351 0.37742 0.0
C2001 C 0.26105 0.31757 0.37509 0.0
C2002 C 0.24176 0.31803 0.36868 0.0
C2003 C 0.2332 0.33546 0.36318 0.0
H2004 H 0.78753 0.80735 0.1073 0.0
H2005 H 0.75385 0.75519 0.09984 0.0
H2006 H 0.81548 0.78787 0.11662 0.0
H2007 H 0.78181 0.73583 0.10915 0.0
H2008 H 0.82174 0.71883 0.16173 0.0
H2009 H 0.79646 0.73418 0.14262 0.0
H2010 H 0.8398 0.76146 0.10693 0.0
H2011 H 0.86529 0.74586 0.12608 0.0
C2012 C 0.7862 0.79174 0.10722 0.0
C2013 C 0.76837 0.78284 0.10318 0.0
C2014 C 0.80225 0.78058 0.11244 0.0
C2015 C 0.80071 0.76037 0.11381 0.0
C2016 C 0.7833 0.75141 0.10842 0.0
C2017 C 0.76731 0.76253 0.10307 0.0
C2018 C 0.82588 0.72782 0.14959 0.0
C2019 C 0.84545 0.73127 0.14545 0.0
C2020 C 0.81141 0.7365 0.13856 0.0
C2021 C 0.81619 0.74902 0.12331 0.0
C2022 C 0.83576 0.75191 0.11866 0.0
C2023 C 0.8503 0.74293 0.12953 0.0
H2024 H 0.75112 0.32357 0.67627 0.0
H2025 H 0.75847 0.35725 0.62415 0.0
H2026 H 0.73664 0.2977 0.65762 0.0
H2027 H 0.74421 0.3309 0.60524 0.0
H2028 H 0.69195 0.29088 0.58716 0.0
H2029 H 0.71213 0.31624 0.60127 0.0
H2030 H 0.74332 0.27311 0.63405 0.0
H2031 H 0.72284 0.24794 0.62045 0.0
C2032 C 0.74989 0.32535 0.66075 0.0
C2033 C 0.75586 0.34252 0.65171 0.0
C2034 C 0.74171 0.31041 0.65001 0.0
C2035 C 0.73932 0.31218 0.6299 0.0
C2036 C 0.74573 0.32916 0.62073 0.0
C2037 C 0.75398 0.34419 0.63153 0.0
C2038 C 0.70333 0.28682 0.59714 0.0
C2039 C 0.7056 0.26748 0.60296 0.0
C2040 C 0.71495 0.30133 0.60516 0.0
C2041 C 0.72913 0.29671 0.61902 0.0
C2042 C 0.73222 0.27719 0.62377 0.0
C2043 C 0.72052 0.26277 0.61592 0.0
H2044 H 0.21449 0.6544 0.63613 0.0
H2045 H 0.26999 0.62819 0.62425 0.0
H2046 H 0.227 0.68562 0.62561 0.0
H2047 H 0.28265 0.65942 0.61435 0.0
H2048 H 0.29917 0.71726 0.58971 0.0
H2049 H 0.28267 0.68616 0.59223 0.0
H2050 H 0.24909 0.70805 0.64019 0.0
H2051 H 0.26512 0.73916 0.63733 0.0
C2052 C 0.22927 0.65523 0.63099 0.0
C2053 C 0.24132 0.63886 0.63126 0.0
C2054 C 0.23649 0.67316 0.62511 0.0
C2055 C 0.25593 0.67511 0.61947 0.0
C2056 C 0.26757 0.65846 0.61849 0.0
C2057 C 0.26032 0.64052 0.62426 0.0
C2058 C 0.28814 0.71546 0.60067 0.0
C2059 C 0.28355 0.73064 0.61341 0.0
C2060 C 0.27872 0.69762 0.60214 0.0
C2061 C 0.26456 0.69457 0.61642 0.0
C2062 C 0.25967 0.70995 0.62881 0.0
C2063 C 0.26901 0.72777 0.62728 0.0
H2064 H 0.88204 0.8778 0.76812 0.0
H2065 H 0.85636 0.84237 0.72344 0.0
H2066 H 0.89579 0.84896 0.78306 0.0
H2067 H 0.87033 0.81361 0.73828 0.0
H2068 H 0.86869 0.76943 0.78831 0.0
H2069 H 0.86123 0.79772 0.76894 0.0
H2070 H 0.91827 0.82064 0.78013 0.0
H2071 H 0.92581 0.79215 0.79981 0.0
C2072 C 0.87968 0.86393 0.76124 0.0
C2073 C 0.86781 0.86234 0.74479 0.0
C2074 C 0.88765 0.84741 0.76976 0.0
C2075 C 0.88387 0.82901 0.762 0.0
C2076 C 0.87317 0.82759 0.74477 0.0
C2077 C 0.86525 0.84408 0.73624 0.0
C2078 C 0.87972 0.78042 0.78662 0.0
C2079 C 0.89782 0.77857 0.79569 0.0
C2080 C 0.8755 0.79656 0.77534 0.0
C2081 C 0.88922 0.81133 0.77289 0.0
C2082 C 0.9074 0.80948 0.78182 0.0
C2083 C 0.91172 0.79318 0.79304 0.0
H2084 H 0.63167 0.37178 0.27537 0.0
H2085 H 0.6524 0.37469 0.2165 0.0
H2086 H 0.66285 0.38316 0.28695 0.0
H2087 H 0.68346 0.38669 0.22807 0.0
H2088 H 0.74178 0.37351 0.25821 0.0
H2089 H 0.70962 0.37081 0.24438 0.0
H2090 H 0.68704 0.40797 0.28931 0.0
H2091 H 0.71928 0.41022 0.30353 0.0
C2092 C 0.6427 0.37536 0.26485 0.0
C2093 C 0.63967 0.37201 0.24504 0.0
C2094 C 0.6606 0.38199 0.2715 0.0
C2095 C 0.67579 0.38554 0.25846 0.0
C2096 C 0.67221 0.38365 0.23853 0.0
C2097 C 0.65436 0.3769 0.23189 0.0
C2098 C 0.73002 0.38128 0.26505 0.0
C2099 C 0.73306 0.3919 0.2821 0.0
C2100 C 0.71156 0.37988 0.257 0.0
C2101 C 0.6957 0.38915 0.26575 0.0
C2102 C 0.69889 0.40044 0.28236 0.0
C2103 C 0.71738 0.40178 0.29047 0.0
H2104 H 0.13192 0.15896 0.71238 0.0
H2105 H 0.11801 0.13352 0.76772 0.0
H2106 H 0.11995 0.19012 0.72375 0.0
H2107 H 0.10657 0.16471 0.77921 0.0
H2108 H 0.08268 0.22299 0.79485 0.0
H2109 H 0.08442 0.192 0.77786 0.0
H2110 H 0.13458 0.21218 0.74655 0.0
H2111 H 0.13261 0.24304 0.76311 0.0
C2112 C 0.12596 0.15991 0.72683 0.0
C2113 C 0.12626 0.14384 0.73927 0.0
C2114 C 0.11921 0.1778 0.73338 0.0
C2115 C 0.11269 0.18 0.75252 0.0
C2116 C 0.11144 0.16354 0.76437 0.0
C2117 C 0.11811 0.14564 0.7578 0.0
C2118 C 0.09388 0.22088 0.78411 0.0
C2119 C 0.10763 0.2354 0.78046 0.0
C2120 C 0.09491 0.20312 0.77443 0.0
C2121 C 0.10965 0.19959 0.76086 0.0
C2122 C 0.12285 0.21447 0.75667 0.0
C2123 C 0.12185 0.23214 0.76634 0.0
H2124 H 0.36325 0.6192 0.2618 0.0
H2125 H 0.32455 0.62637 0.21321 0.0
H2126 H 0.33807 0.60179 0.27924 0.0
H2127 H 0.29929 0.60937 0.23081 0.0
H2128 H 0.25802 0.57221 0.26383 0.0
H2129 H 0.28735 0.57982 0.24571 0.0
H2130 H 0.3085 0.6132 0.29414 0.0
H2131 H 0.27951 0.60532 0.31232 0.0
C2132 C 0.34948 0.61681 0.25471 0.0
C2133 C 0.34581 0.62444 0.23623 0.0
C2134 C 0.33503 0.60691 0.26475 0.0
C2135 C 0.31659 0.60445 0.25655 0.0
C2136 C 0.31337 0.6109 0.23753 0.0
C2137 C 0.32784 0.62076 0.22746 0.0
C2138 C 0.2691 0.58088 0.27072 0.0
C2139 C 0.26634 0.58834 0.28944 0.0
C2140 C 0.28585 0.58531 0.2603 0.0
C2141 C 0.3002 0.59723 0.26841 0.0
C2142 C 0.29786 0.6038 0.28751 0.0
C2143 C 0.28114 0.59939 0.29791 0.0
H2144 H 0.85527 0.15106 0.2815 0.0
H2145 H 0.85951 0.12974 0.22291 0.0
H2146 H 0.86833 0.18212 0.27114 0.0
H2147 H 0.87188 0.16089 0.21245 0.0
H2148 H 0.90115 0.21674 0.19853 0.0
H2149 H 0.89686 0.18473 0.21274 0.0
H2150 H 0.85528 0.20839 0.25299 0.0
H2151 H 0.86004 0.24032 0.23926 0.0
C2152 C 0.8592 0.15292 0.26646 0.0
C2153 C 0.85614 0.13802 0.25299 0.0
C2154 C 0.86657 0.17077 0.26049 0.0
C2155 C 0.87089 0.17413 0.24091 0.0
C2156 C 0.86889 0.15881 0.22767 0.0
C2157 C 0.86167 0.14093 0.23366 0.0
C2158 C 0.8913 0.21512 0.21059 0.0
C2159 C 0.8808 0.23104 0.21765 0.0
C2160 C 0.88877 0.19676 0.21868 0.0
C2161 C 0.87563 0.19392 0.23393 0.0
C2162 C 0.86573 0.21003 0.24146 0.0
C2163 C 0.86834 0.22837 0.23346 0.0
H2164 H 0.28188 0.4004 0.69397 0.0
H2165 H 0.25815 0.35441 0.72897 0.0
H2166 H 0.31281 0.39722 0.71097 0.0
H2167 H 0.28885 0.35106 0.74557 0.0
H2168 H 0.34145 0.35448 0.7813 0.0
H2169 H 0.3112 0.36649 0.76774 0.0
H2170 H 0.33869 0.37291 0.71204 0.0
H2171 H 0.36904 0.36133 0.72567 0.0
C2172 C 0.2832 0.38975 0.70537 0.0
C2173 C 0.2676 0.37758 0.71003 0.0
C2174 C 0.30091 0.38789 0.71505 0.0
C2175 C 0.30329 0.37392 0.72966 0.0
C2176 C 0.28746 0.36219 0.73464 0.0
C2177 C 0.26987 0.36399 0.72496 0.0
C2178 C 0.34116 0.35883 0.76626 0.0
C2179 C 0.35758 0.35664 0.75449 0.0
C2180 C 0.32379 0.36562 0.75847 0.0
C2181 C 0.32245 0.37032 0.73873 0.0
C2182 C 0.33924 0.36949 0.72731 0.0
C2183 C 0.35663 0.36274 0.73512 0.0
H2184 H 0.18717 0.82926 0.25038 0.0
H2185 H 0.13177 0.85692 0.25906 0.0
H2186 H 0.17129 0.80195 0.23527 0.0
H2187 H 0.11567 0.82906 0.24437 0.0
H2188 H 0.09918 0.78858 0.19307 0.0
H2189 H 0.11206 0.81484 0.21278 0.0
H2190 H 0.15116 0.77471 0.24057 0.0
H2191 H 0.13879 0.74868 0.22038 0.0
C2192 C 0.17153 0.82938 0.24934 0.0
C2193 C 0.16074 0.84533 0.25583 0.0
C2194 C 0.16238 0.8136 0.24078 0.0
C2195 C 0.14217 0.81325 0.2386 0.0
C2196 C 0.13128 0.82897 0.2456 0.0
C2197 C 0.14049 0.84488 0.25412 0.0
C2198 C 0.1104 0.78535 0.20353 0.0
C2199 C 0.11815 0.76663 0.20499 0.0
C2200 C 0.1177 0.80039 0.21493 0.0
C2201 C 0.1328 0.79695 0.22814 0.0
C2202 C 0.13984 0.77797 0.23024 0.0
C2203 C 0.13269 0.76302 0.21872 0.0
H2204 H 0.73679 0.62597 0.71989 0.0
H2205 H 0.71032 0.57129 0.70513 0.0
H2206 H 0.70877 0.63445 0.73915 0.0
H2207 H 0.68219 0.57972 0.72487 0.0
H2208 H 0.62698 0.61763 0.73746 0.0
H2209 H 0.65545 0.60285 0.72288 0.0
H2210 H 0.69114 0.62675 0.76829 0.0
H2211 H 0.66275 0.64195 0.78261 0.0
C2212 C 0.72507 0.61563 0.72093 0.0
C2213 C 0.72576 0.59799 0.71086 0.0
C2214 C 0.70904 0.62043 0.73215 0.0
C2215 C 0.69325 0.60773 0.73364 0.0
C2216 C 0.69407 0.58987 0.7239 0.0
C2217 C 0.7102 0.58502 0.71266 0.0
C2218 C 0.64084 0.61943 0.74455 0.0
C2219 C 0.64266 0.63124 0.761 0.0
C2220 C 0.65717 0.61087 0.73622 0.0
C2221 C 0.67561 0.61388 0.74425 0.0
C2222 C 0.67718 0.62452 0.76152 0.0
C2223 C 0.6609 0.63315 0.76978 0.0
H2224 H 0.75021 0.87944 0.86356 0.0
H2225 H 0.70566 0.86202 0.82329 0.0
H2226 H 0.76715 0.89613 0.83757 0.0
H2227 H 0.72281 0.87831 0.79728 0.0
H2228 H 0.75404 0.91529 0.75414 0.0
H2229 H 0.73482 0.90811 0.78288 0.0
H2230 H 0.78535 0.88364 0.81039 0.0
H2231 H 0.80455 0.89112 0.78199 0.0
C2232 C 0.74387 0.87941 0.84924 0.0
C2233 C 0.72674 0.86914 0.84544 0.0
C2234 C 0.75364 0.8889 0.83432 0.0
C2235 C 0.7465 0.8883 0.81529 0.0
C2236 C 0.72867 0.87916 0.81178 0.0
C2237 C 0.71887 0.86972 0.8267 0.0
C2238 C 0.7611 0.90867 0.76646 0.0
C2239 C 0.78078 0.9036 0.7657 0.0
C2240 C 0.75006 0.90448 0.78288 0.0
C2241 C 0.75852 0.89522 0.79889 0.0
C2242 C 0.77841 0.891 0.79844 0.0
C2243 C 0.78941 0.89515 0.78205 0.0
H2244 H 0.58776 0.30985 0.29043 0.0
H2245 H 0.61927 0.27894 0.24621 0.0
H2246 H 0.60188 0.28882 0.31507 0.0
H2247 H 0.63285 0.25761 0.27065 0.0
H2248 H 0.67567 0.24689 0.32008 0.0
H2249 H 0.65707 0.26258 0.29486 0.0
H2250 H 0.60512 0.25654 0.32905 0.0
H2251 H 0.62398 0.24111 0.35472 0.0
C2252 C 0.59734 0.2983 0.28594 0.0
C2253 C 0.60265 0.29624 0.26644 0.0
C2254 C 0.60538 0.28618 0.30004 0.0
C2255 C 0.61874 0.27171 0.29486 0.0
C2256 C 0.62299 0.26891 0.27519 0.0
C2257 C 0.61513 0.28109 0.26117 0.0
C2258 C 0.66025 0.2487 0.3222 0.0
C2259 C 0.65134 0.24284 0.33946 0.0
C2260 C 0.64952 0.25759 0.30763 0.0
C2261 C 0.62956 0.2608 0.30989 0.0
C2262 C 0.6205 0.25445 0.32694 0.0
C2263 C 0.63128 0.24551 0.34159 0.0
H2264 H 0.18852 0.13177 0.77321 0.0
H2265 H 0.23436 0.09029 0.7636 0.0
H2266 H 0.2066 0.14555 0.80004 0.0
H2267 H 0.25241 0.10415 0.79088 0.0
H2268 H 0.2633 0.12714 0.85629 0.0
H2269 H 0.24769 0.10994 0.82943 0.0
H2270 H 0.23976 0.16408 0.79945 0.0
H2271 H 0.2554 0.18121 0.82588 0.0
C2272 C 0.20235 0.12541 0.77696 0.0
C2273 C 0.21007 0.11001 0.76616 0.0
C2274 C 0.21273 0.13339 0.79227 0.0
C2275 C 0.23096 0.12603 0.79732 0.0
C2276 C 0.23837 0.11006 0.7872 0.0
C2277 C 0.22806 0.10218 0.77162 0.0
C2278 C 0.25848 0.13531 0.84383 0.0
C2279 C 0.26042 0.15556 0.8433 0.0
C2280 C 0.2496 0.12546 0.82849 0.0
C2281 C 0.24234 0.13577 0.81258 0.0
C2282 C 0.24502 0.15586 0.81171 0.0
C2283 C 0.25406 0.16563 0.82684 0.0
H2284 H 0.38088 0.7839 0.34848 0.0
H2285 H 0.33961 0.73715 0.35293 0.0
H2286 H 0.39742 0.76654 0.32229 0.0
H2287 H 0.3559 0.72012 0.32703 0.0
H2288 H 0.39503 0.68556 0.29086 0.0
H2289 H 0.38661 0.70349 0.31998 0.0
H2290 H 0.38937 0.75705 0.28801 0.0
H2291 H 0.39813 0.73916 0.25886 0.0
C2292 C 0.37542 0.76992 0.34398 0.0
C2293 C 0.3589 0.76194 0.35273 0.0
C2294 C 0.38485 0.76003 0.32899 0.0
C2295 C 0.37805 0.74191 0.32274 0.0
C2296 C 0.36173 0.73388 0.33174 0.0
C2297 C 0.35226 0.74377 0.3465 0.0
C2298 C 0.39421 0.70119 0.2901 0.0
C2299 C 0.3969 0.71091 0.27246 0.0
C2300 C 0.38933 0.71145 0.30677 0.0
C2301 C 0.38698 0.73163 0.30617 0.0
C2302 C 0.39111 0.74151 0.28891 0.0
C2303 C 0.39605 0.73123 0.2722 0.0
H2304 H 0.71226 0.13823 0.15476 0.0
H2305 H 0.76885 0.12833 0.1301 0.0
H2306 H 0.72363 0.12575 0.18569 0.0
H2307 H 0.78027 0.11623 0.16112 0.0
H2308 H 0.79404 0.08802 0.21843 0.0
H2309 H 0.77845 0.09186 0.18691 0.0
H2310 H 0.74566 0.14021 0.20914 0.0
H2311 H 0.76092 0.13623 0.24052 0.0
C2312 C 0.72702 0.13309 0.15582 0.0
C2313 C 0.73974 0.13456 0.14004 0.0
C2314 C 0.73356 0.12604 0.17359 0.0
C2315 C 0.75293 0.12032 0.17595 0.0
C2316 C 0.76524 0.12044 0.15978 0.0
C2317 C 0.7587 0.12748 0.14199 0.0
C2318 C 0.78331 0.09929 0.21663 0.0
C2319 C 0.77881 0.11192 0.23193 0.0
C2320 C 0.77444 0.10152 0.19857 0.0
C2321 C 0.76082 0.11633 0.19552 0.0
C2322 C 0.75586 0.12847 0.21105 0.0
C2323 C 0.76476 0.1263 0.22903 0.0
H2324 H 0.36217 0.25742 0.74866 0.0
H2325 H 0.40721 0.29275 0.72366 0.0
H2326 H 0.36063 0.23834 0.71923 0.0
H2327 H 0.40571 0.27341 0.69397 0.0
H2328 H 0.36913 0.25394 0.63889 0.0
H2329 H 0.38058 0.26988 0.66814 0.0
H2330 H 0.37876 0.2154 0.69859 0.0
H2331 H 0.36707 0.19942 0.66939 0.0
C2332 C 0.37191 0.26098 0.73693 0.0
C2333 C 0.38469 0.27669 0.73842 0.0
C2334 C 0.37117 0.2499 0.72012 0.0
C2335 C 0.38311 0.25432 0.7043 0.0
C2336 C 0.3963 0.26972 0.70593 0.0
C2337 C 0.39719 0.28074 0.72291 0.0
C2338 C 0.37159 0.24525 0.65169 0.0
C2339 C 0.36681 0.22547 0.65192 0.0
C2340 C 0.37827 0.25439 0.66843 0.0
C2341 C 0.38026 0.24394 0.68573 0.0
C2342 C 0.37703 0.22387 0.68553 0.0
C2343 C 0.37042 0.21471 0.66877 0.0
H2344 H 0.20029 0.9141 0.21356 0.0
H2345 H 0.2479 0.88425 0.24095 0.0
H2346 H 0.21419 0.90717 0.18192 0.0
H2347 H 0.26132 0.8766 0.20946 0.0
H2348 H 0.286 0.86808 0.15104 0.0
H2349 H 0.27594 0.88566 0.17993 0.0
H2350 H 0.2161 0.87887 0.16299 0.0
H2351 H 0.22617 0.86213 0.13392 0.0
C2352 C 0.21383 0.90624 0.21283 0.0
C2353 C 0.22286 0.89949 0.22974 0.0
C2354 C 0.22175 0.90217 0.19469 0.0
C2355 C 0.23872 0.89104 0.19307 0.0
C2356 C 0.24835 0.88536 0.21008 0.0
C2357 C 0.24056 0.88964 0.2282 0.0
C2358 C 0.27072 0.87069 0.15334 0.0
C2359 C 0.25687 0.8635 0.14031 0.0
C2360 C 0.26494 0.88068 0.16995 0.0
C2361 C 0.24519 0.88351 0.17397 0.0
C2362 C 0.23144 0.87722 0.16034 0.0
C2363 C 0.23722 0.86744 0.14367 0.0
H2364 H 0.63014 0.75626 0.63642 0.0
H2365 H 0.6772 0.76382 0.67688 0.0
H2366 H 0.61113 0.74027 0.66165 0.0
H2367 H 0.6585 0.74772 0.70177 0.0
H2368 H 0.61819 0.72911 0.74747 0.0
H2369 H 0.63021 0.75048 0.72227 0.0
H2370 H 0.61318 0.70891 0.67883 0.0
H2371 H 0.6007 0.68763 0.70409 0.0
C2372 C 0.63631 0.75476 0.65074 0.0
C2373 C 0.6552 0.7612 0.65464 0.0
C2374 C 0.62549 0.7455 0.66513 0.0
C2375 C 0.63331 0.7427 0.68369 0.0
C2376 C 0.65191 0.74986 0.68772 0.0
C2377 C 0.66271 0.75899 0.67338 0.0
C2378 C 0.61675 0.72462 0.73253 0.0
C2379 C 0.60878 0.70653 0.72778 0.0
C2380 C 0.62369 0.73686 0.71809 0.0
C2381 C 0.62293 0.73126 0.69858 0.0
C2382 C 0.61388 0.71369 0.69372 0.0
C2383 C 0.60683 0.70145 0.7082 0.0
H2384 H 0.81489 0.71849 0.84474 0.0
H2385 H 0.85914 0.74821 0.87739 0.0
H2386 H 0.79002 0.7343 0.86402 0.0
H2387 H 0.83413 0.76409 0.89673 0.0
H2388 H 0.78313 0.81024 0.89538 0.0
H2389 H 0.81028 0.78966 0.88634 0.0
H2390 H 0.7755 0.7389 0.89697 0.0
H2391 H 0.74826 0.75948 0.90601 0.0
C2392 C 0.81931 0.72808 0.85632 0.0
C2393 C 0.83895 0.73229 0.85939 0.0
C2394 C 0.80506 0.73705 0.86745 0.0
C2395 C 0.81015 0.75054 0.88178 0.0
C2396 C 0.82982 0.75387 0.88566 0.0
C2397 C 0.84412 0.7447 0.87465 0.0
C2398 C 0.78138 0.7947 0.89618 0.0
C2399 C 0.76346 0.7865 0.90113 0.0
C2400 C 0.79699 0.78289 0.89114 0.0
C2401 C 0.79494 0.76267 0.89081 0.0
C2402 C 0.77741 0.75445 0.89692 0.0
C2403 C 0.76184 0.76626 0.90215 0.0
H2404 H 0.81285 0.2779 0.16656 0.0
H2405 H 0.85506 0.25305 0.12776 0.0
H2406 H 0.78684 0.26434 0.147 0.0
H2407 H 0.82888 0.23932 0.10819 0.0
H2408 H 0.77636 0.19481 0.10383 0.0
H2409 H 0.80435 0.21271 0.11582 0.0
H2410 H 0.77141 0.26573 0.11376 0.0
H2411 H 0.7434 0.24792 0.10171 0.0
C2412 C 0.81656 0.26977 0.15368 0.0
C2413 C 0.83599 0.26644 0.14875 0.0
C2414 C 0.80166 0.26211 0.14241 0.0
C2415 C 0.80585 0.25075 0.1261 0.0
C2416 C 0.82527 0.24796 0.12075 0.0
C2417 C 0.84021 0.25589 0.13189 0.0
C2418 C 0.7752 0.21035 0.10556 0.0
C2419 C 0.7576 0.21991 0.102 0.0
C2420 C 0.79126 0.2206 0.11233 0.0
C2421 C 0.78998 0.24058 0.11585 0.0
C2422 C 0.77272 0.2503 0.11133 0.0
C2423 C 0.75672 0.24009 0.10435 0.0
H2424 H 0.21357 0.31301 0.65349 0.0
H2425 H 0.24468 0.35719 0.62211 0.0
H2426 H 0.22941 0.28817 0.63426 0.0
H2427 H 0.26043 0.33222 0.6027 0.0
H2428 H 0.30573 0.28105 0.60266 0.0
H2429 H 0.28537 0.30823 0.61193 0.0
H2430 H 0.23436 0.27355 0.60202 0.0
H2431 H 0.25475 0.2462 0.59291 0.0
C2432 C 0.2235 0.31745 0.64221 0.0
C2433 C 0.22807 0.33705 0.63952 0.0
C2434 C 0.23247 0.3032 0.63108 0.0
C2435 C 0.24629 0.30824 0.61705 0.0
C2436 C 0.25001 0.32791 0.61356 0.0
C2437 C 0.24092 0.3422 0.62462 0.0
C2438 C 0.29017 0.27932 0.60207 0.0
C2439 C 0.28187 0.26137 0.59736 0.0
C2440 C 0.27848 0.29495 0.60726 0.0
C2441 C 0.25826 0.29296 0.6079 0.0
C2442 C 0.24992 0.27542 0.60191 0.0
C2443 C 0.26161 0.25979 0.59661 0.0
H2444 H 0.25164 0.7526 0.11058 0.0
H2445 H 0.22505 0.80356 0.08621 0.0
H2446 H 0.21994 0.73861 0.11612 0.0
H2447 H 0.19321 0.7891 0.09052 0.0
H2448 H 0.14307 0.77254 0.13076 0.0
H2449 H 0.17269 0.78409 0.11625 0.0
H2450 H 0.19091 0.72503 0.10626 0.0
H2451 H 0.16152 0.7135 0.12199 0.0
C2452 C 0.23898 0.76056 0.10587 0.0
C2453 C 0.24077 0.77927 0.09822 0.0
C2454 C 0.22072 0.75248 0.10891 0.0
C2455 C 0.20383 0.76277 0.10402 0.0
C2456 C 0.20579 0.78094 0.09501 0.0
C2457 C 0.22405 0.7892 0.09239 0.0
C2458 C 0.15323 0.76199 0.12518 0.0
C2459 C 0.15008 0.74211 0.12777 0.0
C2460 C 0.17026 0.76863 0.11667 0.0
C2461 C 0.18446 0.75554 0.11019 0.0
C2462 C 0.1806 0.73558 0.11152 0.0
C2463 C 0.16367 0.72893 0.12038 0.0
H2464 H 0.72177 0.63424 0.63774 0.0
H2465 H 0.78202 0.64847 0.62938 0.0
H2466 H 0.71239 0.66377 0.62141 0.0
H2467 H 0.77266 0.6777 0.61201 0.0
H2468 H 0.74868 0.74008 0.61364 0.0
H2469 H 0.76048 0.70788 0.62089 0.0
H2470 H 0.70961 0.6832 0.59404 0.0
H2471 H 0.69734 0.71566 0.58774 0.0
C2472 C 0.73303 0.64343 0.63192 0.0
C2473 C 0.75264 0.63918 0.63511 0.0
C2474 C 0.72764 0.66038 0.62238 0.0
C2475 C 0.74174 0.67336 0.61552 0.0
C2476 C 0.76139 0.66834 0.61751 0.0
C2477 C 0.76678 0.65151 0.62735 0.0
C2478 C 0.74016 0.72779 0.609 0.0
C2479 C 0.72194 0.73041 0.6004 0.0
C2480 C 0.747 0.70922 0.61304 0.0
C2481 C 0.73592 0.69281 0.60829 0.0
C2482 C 0.71832 0.69548 0.59838 0.0
C2483 C 0.71133 0.71408 0.59463 0.0
H2484 H 0.14768 0.28087 0.86343 0.0
H2485 H 0.12951 0.22128 0.85864 0.0
H2486 H 0.17762 0.27048 0.87893 0.0
H2487 H 0.15964 0.21084 0.87337 0.0
H2488 H 0.2119 0.19584 0.90795 0.0
H2489 H 0.17996 0.20912 0.90098 0.0
H2490 H 0.20646 0.25533 0.86828 0.0
H2491 H 0.23825 0.2425 0.87586 0.0
C2492 C 0.15001 0.26556 0.86583 0.0
C2493 C 0.1363 0.25189 0.85965 0.0
C2494 C 0.16722 0.25959 0.8746 0.0
C2495 C 0.17119 0.2398 0.87722 0.0
C2496 C 0.15703 0.22621 0.87184 0.0
C2497 C 0.13975 0.23219 0.86324 0.0
C2498 C 0.21089 0.20901 0.89953 0.0
C2499 C 0.2276 0.21802 0.89231 0.0
C2500 C 0.19257 0.21657 0.89543 0.0
C2501 C 0.19058 0.2332 0.88389 0.0
C2502 C 0.20738 0.24265 0.87742 0.0
C2503 C 0.22567 0.2352 0.88166 0.0
H2504 H 0.28457 0.72029 0.41259 0.0
H2505 H 0.25654 0.73828 0.3597 0.0
H2506 H 0.26845 0.68892 0.41036 0.0
H2507 H 0.24093 0.70698 0.35721 0.0
H2508 H 0.20862 0.65222 0.35832 0.0
H2509 H 0.21793 0.68426 0.36974 0.0
H2510 H 0.27258 0.66123 0.38957 0.0
H2511 H 0.26306 0.62919 0.37871 0.0
C2512 C 0.27479 0.71765 0.40063 0.0
C2513 C 0.27201 0.7317 0.3862 0.0
C2514 C 0.26563 0.69965 0.39931 0.0
C2515 C 0.2535 0.69536 0.38354 0.0
C2516 C 0.24997 0.70982 0.36969 0.0
C2517 C 0.25908 0.72777 0.37103 0.0
C2518 C 0.22244 0.65392 0.36551 0.0
C2519 C 0.23523 0.63822 0.36732 0.0
C2520 C 0.22782 0.67231 0.37196 0.0
C2521 C 0.24614 0.6754 0.38027 0.0
C2522 C 0.25832 0.6594 0.38335 0.0
C2523 C 0.25289 0.641 0.377 0.0
H2524 H 0.75742 0.36209 0.37169 0.0
H2525 H 0.77931 0.32059 0.33041 0.0
H2526 H 0.74374 0.33567 0.39087 0.0
H2527 H 0.76576 0.29433 0.34956 0.0
H2528 H 0.74867 0.24956 0.39289 0.0
H2529 H 0.76746 0.27735 0.38189 0.0
H2530 H 0.716 0.31273 0.3832 0.0
H2531 H 0.69716 0.28501 0.39416 0.0
C2532 C 0.75964 0.34733 0.36692 0.0
C2533 C 0.76928 0.34339 0.34947 0.0
C2534 C 0.75174 0.33225 0.37785 0.0
C2535 C 0.75365 0.31297 0.37167 0.0
C2536 C 0.76422 0.30902 0.35478 0.0
C2537 C 0.77186 0.32408 0.34374 0.0
C2538 C 0.74142 0.26336 0.39122 0.0
C2539 C 0.72137 0.26503 0.39416 0.0
C2540 C 0.75218 0.27923 0.38486 0.0
C2541 C 0.74315 0.29713 0.38155 0.0
C2542 C 0.72337 0.29914 0.38575 0.0
C2543 C 0.71256 0.28322 0.39192 0.0
loop_
_geom_bond_atom_site_label_1
_geom_bond_atom_site_label_2
_geom_bond_distance
_geom_bond_site_symmetry_2
_ccdc_geom_bond_type
C0 O1 1.160 . S
C0 O7 1.185 . S
O1 C0 1.160 . S
O2 Zn3 1.899 . S
O2 C10 1.284 . S
Zn3 O2 1.899 . S
Zn3 O4 2.032 . S
Zn3 O7 2.086 . S
Zn3 O12 1.977 . S
O4 Zn3 2.032 . S
O4 C8 1.278 . S
C5 O6 1.203 . S
C5 O12 1.267 . S
O6 C5 1.203 . S
O7 C0 1.185 . S
O7 Zn3 2.086 . S
C8 O4 1.278 . S
C8 O9 1.211 . S
O9 C8 1.211 . S
C10 O2 1.284 . S
C10 O11 1.273 . S
O11 C10 1.273 . S
O12 Zn3 1.977 . S
O12 C5 1.267 . S
C13 O14 1.160 . S
C13 O20 1.185 . S
O14 C13 1.160 . S
O15 Zn16 1.899 . S
O15 C23 1.284 . S
Zn16 O15 1.899 . S
Zn16 O17 2.032 . S
Zn16 O20 2.086 . S
Zn16 O25 1.977 . S
O17 Zn16 2.032 . S
O17 C21 1.278 . S
C18 O19 1.203 . S
C18 O25 1.267 . S
O19 C18 1.203 . S
O20 C13 1.185 . S
O20 Zn16 2.086 . S
C21 O17 1.278 . S
C21 O22 1.211 . S
O22 C21 1.211 . S
C23 O15 1.284 . S
C23 O24 1.273 . S
O24 C23 1.273 . S
O25 Zn16 1.977 . S
O25 C18 1.267 . S
C26 O27 1.160 . S
C26 O33 1.185 . S
O27 C26 1.160 . S
O28 Zn29 1.899 . S
O28 C36 1.284 . S
Zn29 O28 1.899 . S
Zn29 O30 2.032 . S
Zn29 O33 2.086 . S
Zn29 O38 1.977 . S
O30 Zn29 2.032 . S
O30 C34 1.278 . S
C31 O32 1.203 . S
C31 O38 1.267 . S
O32 C31 1.203 . S
O33 C26 1.185 . S
O33 Zn29 2.086 . S
C34 O30 1.278 . S
C34 O35 1.211 . S
O35 C34 1.211 . S
C36 O28 1.284 . S
C36 O37 1.273 . S
O37 C36 1.273 . S
O38 Zn29 1.977 . S
O38 C31 1.267 . S
C39 O40 1.160 . S
C39 O46 1.185 . S
O40 C39 1.160 . S
O41 Zn42 1.899 . S
O41 C49 1.284 . S
Zn42 O41 1.899 . S
Zn42 O43 2.032 . S
Zn42 O46 2.086 . S
Zn42 O51 1.977 . S
O43 Zn42 2.032 . S
O43 C47 1.278 . S
C44 O45 1.203 . S
C44 O51 1.267 . S
O45 C44 1.203 . S
O46 C39 1.185 . S
O46 Zn42 2.086 . S
C47 O43 1.278 . S
C47 O48 1.211 . S
O48 C47 1.211 . S
C49 O41 1.284 . S
C49 O50 1.273 . S
O50 C49 1.273 . S
O51 Zn42 1.977 . S
O51 C44 1.267 . S
C52 O53 1.160 . S
C52 O59 1.185 . S
O53 C52 1.160 . S
O54 Zn55 1.899 . S
O54 C62 1.284 . S
Zn55 O54 1.899 . S
Zn55 O56 2.032 . S
Zn55 O59 2.086 . S
Zn55 O64 1.977 . S
O56 Zn55 2.032 . S
O56 C60 1.278 . S
C57 O58 1.203 . S
C57 O64 1.267 . S
O58 C57 1.203 . S
O59 C52 1.185 . S
O59 Zn55 2.086 . S
C60 O56 1.278 . S
C60 O61 1.211 . S
O61 C60 1.211 . S
C62 O54 1.284 . S
C62 O63 1.273 . S
O63 C62 1.273 . S
O64 Zn55 1.977 . S
O64 C57 1.267 . S
C65 O66 1.160 . S
C65 O72 1.185 . S
O66 C65 1.160 . S
O67 Zn68 1.899 . S
O67 C75 1.284 . S
Zn68 O67 1.899 . S
Zn68 O69 2.032 . S
Zn68 O72 2.086 . S
Zn68 O77 1.977 . S
O69 Zn68 2.032 . S
O69 C73 1.278 . S
C70 O71 1.203 . S
C70 O77 1.267 . S
O71 C70 1.203 . S
O72 C65 1.185 . S
O72 Zn68 2.086 . S
C73 O69 1.278 . S
C73 O74 1.211 . S
O74 C73 1.211 . S
C75 O67 1.284 . S
C75 O76 1.273 . S
O76 C75 1.273 . S
O77 Zn68 1.977 . S
O77 C70 1.267 . S
C78 O79 1.160 . S
C78 O85 1.185 . S
O79 C78 1.160 . S
O80 Zn81 1.899 . S
O80 C88 1.284 . S
Zn81 O80 1.899 . S
Zn81 O82 2.032 . S
Zn81 O85 2.086 . S
Zn81 O90 1.977 . S
O82 Zn81 2.032 . S
O82 C86 1.278 . S
C83 O84 1.203 . S
C83 O90 1.267 . S
O84 C83 1.203 . S
O85 C78 1.185 . S
O85 Zn81 2.086 . S
C86 O82 1.278 . S
C86 O87 1.211 . S
O87 C86 1.211 . S
C88 O80 1.284 . S
C88 O89 1.273 . S
O89 C88 1.273 . S
O90 Zn81 1.977 . S
O90 C83 1.267 . S
C91 O92 1.160 . S
C91 O98 1.185 . S
O92 C91 1.160 . S
O93 Zn94 1.899 . S
O93 C101 1.284 . S
Zn94 O93 1.899 . S
Zn94 O95 2.032 . S
Zn94 O98 2.086 . S
Zn94 O103 1.977 . S
O95 Zn94 2.032 . S
O95 C99 1.278 . S
C96 O97 1.203 . S
C96 O103 1.267 . S
O97 C96 1.203 . S
O98 C91 1.185 . S
O98 Zn94 2.086 . S
C99 O95 1.278 . S
C99 O100 1.211 . S
O100 C99 1.211 . S
C101 O93 1.284 . S
C101 O102 1.273 . S
O102 C101 1.273 . S
O103 Zn94 1.977 . S
O103 C96 1.267 . S
C104 O105 1.160 . S
C104 O111 1.185 . S
O105 C104 1.160 . S
O106 Zn107 1.899 . S
O106 C114 1.284 . S
Zn107 O106 1.899 . S
Zn107 O108 2.032 . S
Zn107 O111 2.086 . S
Zn107 O116 1.977 . S
O108 Zn107 2.032 . S
O108 C112 1.278 . S
C109 O110 1.203 . S
C109 O116 1.267 . S
O110 C109 1.203 . S
O111 C104 1.185 . S
O111 Zn107 2.086 . S
C112 O108 1.278 . S
C112 O113 1.211 . S
O113 C112 1.211 . S
C114 O106 1.284 . S
C114 O115 1.273 . S
O115 C114 1.273 . S
O116 Zn107 1.977 . S
O116 C109 1.267 . S
C117 O118 1.160 . S
C117 O124 1.185 . S
O118 C117 1.160 . S
O119 Zn120 1.899 . S
O119 C127 1.284 . S
Zn120 O119 1.899 . S
Zn120 O121 2.032 . S
Zn120 O124 2.086 . S
Zn120 O129 1.977 . S
O121 Zn120 2.032 . S
O121 C125 1.278 . S
C122 O123 1.203 . S
C122 O129 1.267 . S
O123 C122 1.203 . S
O124 C117 1.185 . S
O124 Zn120 2.086 . S
C125 O121 1.278 . S
C125 O126 1.211 . S
O126 C125 1.211 . S
C127 O119 1.284 . S
C127 O128 1.273 . S
O128 C127 1.273 . S
O129 Zn120 1.977 . S
O129 C122 1.267 . S
C130 O131 1.160 . S
C130 O137 1.185 . S
O131 C130 1.160 . S
O132 Zn133 1.899 . S
O132 C140 1.284 . S
Zn133 O132 1.899 . S
Zn133 O134 2.032 . S
Zn133 O137 2.086 . S
Zn133 O142 1.977 . S
O134 Zn133 2.032 . S
O134 C138 1.278 . S
C135 O136 1.203 . S
C135 O142 1.267 . S
O136 C135 1.203 . S
O137 C130 1.185 . S
O137 Zn133 2.086 . S
C138 O134 1.278 . S
C138 O139 1.211 . S
O139 C138 1.211 . S
C140 O132 1.284 . S
C140 O141 1.273 . S
O141 C140 1.273 . S
O142 Zn133 1.977 . S
O142 C135 1.267 . S
C143 O144 1.160 . S
C143 O150 1.185 . S
O144 C143 1.160 . S
O145 Zn146 1.899 . S
O145 C153 1.284 . S
Zn146 O145 1.899 . S
Zn146 O147 2.032 . S
Zn146 O150 2.086 . S
Zn146 O155 1.977 . S
O147 Zn146 2.032 . S
O147 C151 1.278 . S
C148 O149 1.203 . S
C148 O155 1.267 . S
O149 C148 1.203 . S
O150 C143 1.185 . S
O150 Zn146 2.086 . S
C151 O147 1.278 . S
C151 O152 1.211 . S
O152 C151 1.211 . S
C153 O145 1.284 . S
C153 O154 1.273 . S
O154 C153 1.273 . S
O155 Zn146 1.977 . S
O155 C148 1.267 . S
C156 O157 1.160 . S
C156 O163 1.185 . S
O157 C156 1.160 . S
O158 Zn159 1.899 . S
O158 C166 1.284 . S
Zn159 O158 1.899 . S
Zn159 O160 2.032 . S
Zn159 O163 2.086 . S
Zn159 O168 1.977 . S
O160 Zn159 2.032 . S
O160 C164 1.278 . S
C161 O162 1.203 . S
C161 O168 1.267 . S
O162 C161 1.203 . S
O163 C156 1.185 . S
O163 Zn159 2.086 . S
C164 O160 1.278 . S
C164 O165 1.211 . S
O165 C164 1.211 . S
C166 O158 1.284 . S
C166 O167 1.273 . S
O167 C166 1.273 . S
O168 Zn159 1.977 . S
O168 C161 1.267 . S
C169 O170 1.160 . S
C169 O176 1.185 . S
O170 C169 1.160 . S
O171 Zn172 1.899 . S
O171 C179 1.284 . S
Zn172 O171 1.899 . S
Zn172 O173 2.032 . S
Zn172 O176 2.086 . S
Zn172 O181 1.977 . S
O173 Zn172 2.032 . S
O173 C177 1.278 . S
C174 O175 1.203 . S
C174 O181 1.267 . S
O175 C174 1.203 . S
O176 C169 1.185 . S
O176 Zn172 2.086 . S
C177 O173 1.278 . S
C177 O178 1.211 . S
O178 C177 1.211 . S
C179 O171 1.284 . S
C179 O180 1.273 . S
O180 C179 1.273 . S
O181 Zn172 1.977 . S
O181 C174 1.267 . S
C182 O183 1.160 . S
C182 O189 1.185 . S
O183 C182 1.160 . S
O184 Zn185 1.899 . S
O184 C192 1.284 . S
Zn185 O184 1.899 . S
Zn185 O186 2.032 . S
Zn185 O189 2.086 . S
Zn185 O194 1.977 . S
O186 Zn185 2.032 . S
O186 C190 1.278 . S
C187 O188 1.203 . S
C187 O194 1.267 . S
O188 C187 1.203 . S
O189 C182 1.185 . S
O189 Zn185 2.086 . S
C190 O186 1.278 . S
C190 O191 1.211 . S
O191 C190 1.211 . S
C192 O184 1.284 . S
C192 O193 1.273 . S
O193 C192 1.273 . S
O194 Zn185 1.977 . S
O194 C187 1.267 . S
C195 O196 1.160 . S
C195 O202 1.185 . S
O196 C195 1.160 . S
O197 Zn198 1.899 . S
O197 C205 1.284 . S
Zn198 O197 1.899 . S
Zn198 O199 2.032 . S
Zn198 O202 2.086 . S
Zn198 O207 1.977 . S
O199 Zn198 2.032 . S
O199 C203 1.278 . S
C200 O201 1.203 . S
C200 O207 1.267 . S
O201 C200 1.203 . S
O202 C195 1.185 . S
O202 Zn198 2.086 . S
C203 O199 1.278 . S
C203 O204 1.211 . S
O204 C203 1.211 . S
C205 O197 1.284 . S
C205 O206 1.273 . S
O206 C205 1.273 . S
O207 Zn198 1.977 . S
O207 C200 1.267 . S
C208 O209 1.160 . S
C208 O215 1.185 . S
O209 C208 1.160 . S
O210 Zn211 1.899 . S
O210 C218 1.284 . S
Zn211 O210 1.899 . S
Zn211 O212 2.032 . S
Zn211 O215 2.086 . S
Zn211 O220 1.977 . S
O212 Zn211 2.032 . S
O212 C216 1.278 . S
C213 O214 1.203 . S
C213 O220 1.267 . S
O214 C213 1.203 . S
O215 C208 1.185 . S
O215 Zn211 2.086 . S
C216 O212 1.278 . S
C216 O217 1.211 . S
O217 C216 1.211 . S
C218 O210 1.284 . S
C218 O219 1.273 . S
O219 C218 1.273 . S
O220 Zn211 1.977 . S
O220 C213 1.267 . S
C221 O222 1.160 . S
C221 O228 1.185 . S
O222 C221 1.160 . S
O223 Zn224 1.899 . S
O223 C231 1.284 . S
Zn224 O223 1.899 . S
Zn224 O225 2.032 . S
Zn224 O228 2.086 . S
Zn224 O233 1.977 . S
O225 Zn224 2.032 . S
O225 C229 1.278 . S
C226 O227 1.203 . S
C226 O233 1.267 . S
O227 C226 1.203 . S
O228 C221 1.185 . S
O228 Zn224 2.086 . S
C229 O225 1.278 . S
C229 O230 1.211 . S
O230 C229 1.211 . S
C231 O223 1.284 . S
C231 O232 1.273 . S
O232 C231 1.273 . S
O233 Zn224 1.977 . S
O233 C226 1.267 . S
C234 O235 1.160 . S
C234 O241 1.185 . S
O235 C234 1.160 . S
O236 Zn237 1.899 . S
O236 C244 1.284 . S
Zn237 O236 1.899 . S
Zn237 O238 2.032 . S
Zn237 O241 2.086 . S
Zn237 O246 1.977 . S
O238 Zn237 2.032 . S
O238 C242 1.278 . S
C239 O240 1.203 . S
C239 O246 1.267 . S
O240 C239 1.203 . S
O241 C234 1.185 . S
O241 Zn237 2.086 . S
C242 O238 1.278 . S
C242 O243 1.211 . S
O243 C242 1.211 . S
C244 O236 1.284 . S
C244 O245 1.273 . S
O245 C244 1.273 . S
O246 Zn237 1.977 . S
O246 C239 1.267 . S
C247 O248 1.160 . S
C247 O254 1.185 . S
O248 C247 1.160 . S
O249 Zn250 1.899 . S
O249 C257 1.284 . S
Zn250 O249 1.899 . S
Zn250 O251 2.032 . S
Zn250 O254 2.086 . S
Zn250 O259 1.977 . S
O251 Zn250 2.032 . S
O251 C255 1.278 . S
C252 O253 1.203 . S
C252 O259 1.267 . S
O253 C252 1.203 . S
O254 C247 1.185 . S
O254 Zn250 2.086 . S
C255 O251 1.278 . S
C255 O256 1.211 . S
O256 C255 1.211 . S
C257 O249 1.284 . S
C257 O258 1.273 . S
O258 C257 1.273 . S
O259 Zn250 1.977 . S
O259 C252 1.267 . S
C260 O261 1.160 . S
C260 O267 1.185 . S
O261 C260 1.160 . S
O262 Zn263 1.899 . S
O262 C270 1.284 . S
Zn263 O262 1.899 . S
Zn263 O264 2.032 . S
Zn263 O267 2.086 . S
Zn263 O272 1.977 . S
O264 Zn263 2.032 . S
O264 C268 1.278 . S
C265 O266 1.203 . S
C265 O272 1.267 . S
O266 C265 1.203 . S
O267 C260 1.185 . S
O267 Zn263 2.086 . S
C268 O264 1.278 . S
C268 O269 1.211 . S
O269 C268 1.211 . S
C270 O262 1.284 . S
C270 O271 1.273 . S
O271 C270 1.273 . S
O272 Zn263 1.977 . S
O272 C265 1.267 . S
C273 O274 1.160 . S
C273 O280 1.185 . S
O274 C273 1.160 . S
O275 Zn276 1.899 . S
O275 C283 1.284 . S
Zn276 O275 1.899 . S
Zn276 O277 2.032 . S
Zn276 O280 2.086 . S
Zn276 O285 1.977 . S
O277 Zn276 2.032 . S
O277 C281 1.278 . S
C278 O279 1.203 . S
C278 O285 1.267 . S
O279 C278 1.203 . S
O280 C273 1.185 . S
O280 Zn276 2.086 . S
C281 O277 1.278 . S
C281 O282 1.211 . S
O282 C281 1.211 . S
C283 O275 1.284 . S
C283 O284 1.273 . S
O284 C283 1.273 . S
O285 Zn276 1.977 . S
O285 C278 1.267 . S
C286 O287 1.160 . S
C286 O293 1.185 . S
O287 C286 1.160 . S
O288 Zn289 1.899 . S
O288 C296 1.284 . S
Zn289 O288 1.899 . S
Zn289 O290 2.032 . S
Zn289 O293 2.086 . S
Zn289 O298 1.977 . S
O290 Zn289 2.032 . S
O290 C294 1.278 . S
C291 O292 1.203 . S
C291 O298 1.267 . S
O292 C291 1.203 . S
O293 C286 1.185 . S
O293 Zn289 2.086 . S
C294 O290 1.278 . S
C294 O295 1.211 . S
O295 C294 1.211 . S
C296 O288 1.284 . S
C296 O297 1.273 . S
O297 C296 1.273 . S
O298 Zn289 1.977 . S
O298 C291 1.267 . S
C299 O300 1.160 . S
C299 O306 1.185 . S
O300 C299 1.160 . S
O301 Zn302 1.899 . S
O301 C309 1.284 . S
Zn302 O301 1.899 . S
Zn302 O303 2.032 . S
Zn302 O306 2.086 . S
Zn302 O311 1.977 . S
O303 Zn302 2.032 . S
O303 C307 1.278 . S
C304 O305 1.203 . S
C304 O311 1.267 . S
O305 C304 1.203 . S
O306 C299 1.185 . S
O306 Zn302 2.086 . S
C307 O303 1.278 . S
C307 O308 1.211 . S
O308 C307 1.211 . S
C309 O301 1.284 . S
C309 O310 1.273 . S
O310 C309 1.273 . S
O311 Zn302 1.977 . S
O311 C304 1.267 . S
C312 O313 1.160 . S
C312 O319 1.185 . S
O313 C312 1.160 . S
O314 Zn315 1.899 . S
O314 C322 1.284 . S
Zn315 O314 1.899 . S
Zn315 O316 2.032 . S
Zn315 O319 2.086 . S
Zn315 O324 1.977 . S
O316 Zn315 2.032 . S
O316 C320 1.278 . S
C317 O318 1.203 . S
C317 O324 1.267 . S
O318 C317 1.203 . S
O319 C312 1.185 . S
O319 Zn315 2.086 . S
C320 O316 1.278 . S
C320 O321 1.211 . S
O321 C320 1.211 . S
C322 O314 1.284 . S
C322 O323 1.273 . S
O323 C322 1.273 . S
O324 Zn315 1.977 . S
O324 C317 1.267 . S
C325 O326 1.160 . S
C325 O332 1.185 . S
O326 C325 1.160 . S
O327 Zn328 1.899 . S
O327 C335 1.284 . S
Zn328 O327 1.899 . S
Zn328 O329 2.032 . S
Zn328 O332 2.086 . S
Zn328 O337 1.977 . S
O329 Zn328 2.032 . S
O329 C333 1.278 . S
C330 O331 1.203 . S
C330 O337 1.267 . S
O331 C330 1.203 . S
O332 C325 1.185 . S
O332 Zn328 2.086 . S
C333 O329 1.278 . S
C333 O334 1.211 . S
O334 C333 1.211 . S
C335 O327 1.284 . S
C335 O336 1.273 . S
O336 C335 1.273 . S
O337 Zn328 1.977 . S
O337 C330 1.267 . S
C338 O339 1.160 . S
C338 O345 1.185 . S
O339 C338 1.160 . S
O340 Zn341 1.899 . S
O340 C348 1.284 . S
Zn341 O340 1.899 . S
Zn341 O342 2.032 . S
Zn341 O345 2.086 . S
Zn341 O350 1.977 . S
O342 Zn341 2.032 . S
O342 C346 1.278 . S
C343 O344 1.203 . S
C343 O350 1.267 . S
O344 C343 1.203 . S
O345 C338 1.185 . S
O345 Zn341 2.086 . S
C346 O342 1.278 . S
C346 O347 1.211 . S
O347 C346 1.211 . S
C348 O340 1.284 . S
C348 O349 1.273 . S
O349 C348 1.273 . S
O350 Zn341 1.977 . S
O350 C343 1.267 . S
C351 O352 1.160 . S
C351 O358 1.185 . S
O352 C351 1.160 . S
O353 Zn354 1.899 . S
O353 C361 1.284 . S
Zn354 O353 1.899 . S
Zn354 O355 2.032 . S
Zn354 O358 2.086 . S
Zn354 O363 1.977 . S
O355 Zn354 2.032 . S
O355 C359 1.278 . S
C356 O357 1.203 . S
C356 O363 1.267 . S
O357 C356 1.203 . S
O358 C351 1.185 . S
O358 Zn354 2.086 . S
C359 O355 1.278 . S
C359 O360 1.211 . S
O360 C359 1.211 . S
C361 O353 1.284 . S
C361 O362 1.273 . S
O362 C361 1.273 . S
O363 Zn354 1.977 . S
O363 C356 1.267 . S
C364 O365 1.160 . S
C364 O371 1.185 . S
O365 C364 1.160 . S
O366 Zn367 1.899 . S
O366 C374 1.284 . S
Zn367 O366 1.899 . S
Zn367 O368 2.032 . S
Zn367 O371 2.086 . S
Zn367 O376 1.977 . S
O368 Zn367 2.032 . S
O368 C372 1.278 . S
C369 O370 1.203 . S
C369 O376 1.267 . S
O370 C369 1.203 . S
O371 C364 1.185 . S
O371 Zn367 2.086 . S
C372 O368 1.278 . S
C372 O373 1.211 . S
O373 C372 1.211 . S
C374 O366 1.284 . S
C374 O375 1.273 . S
O375 C374 1.273 . S
O376 Zn367 1.977 . S
O376 C369 1.267 . S
C377 O378 1.160 . S
C377 O384 1.185 . S
O378 C377 1.160 . S
O379 Zn380 1.899 . S
O379 C387 1.284 . S
Zn380 O379 1.899 . S
Zn380 O381 2.032 . S
Zn380 O384 2.086 . S
Zn380 O389 1.977 . S
O381 Zn380 2.032 . S
O381 C385 1.278 . S
C382 O383 1.203 . S
C382 O389 1.267 . S
O383 C382 1.203 . S
O384 C377 1.185 . S
O384 Zn380 2.086 . S
C385 O381 1.278 . S
C385 O386 1.211 . S
O386 C385 1.211 . S
C387 O379 1.284 . S
C387 O388 1.273 . S
O388 C387 1.273 . S
O389 Zn380 1.977 . S
O389 C382 1.267 . S
C390 O391 1.160 . S
C390 O397 1.185 . S
O391 C390 1.160 . S
O392 Zn393 1.899 . S
O392 C400 1.284 . S
Zn393 O392 1.899 . S
Zn393 O394 2.032 . S
Zn393 O397 2.086 . S
Zn393 O402 1.977 . S
O394 Zn393 2.032 . S
O394 C398 1.278 . S
C395 O396 1.203 . S
C395 O402 1.267 . S
O396 C395 1.203 . S
O397 C390 1.185 . S
O397 Zn393 2.086 . S
C398 O394 1.278 . S
C398 O399 1.211 . S
O399 C398 1.211 . S
C400 O392 1.284 . S
C400 O401 1.273 . S
O401 C400 1.273 . S
O402 Zn393 1.977 . S
O402 C395 1.267 . S
C403 O404 1.160 . S
C403 O410 1.185 . S
O404 C403 1.160 . S
O405 Zn406 1.899 . S
O405 C413 1.284 . S
Zn406 O405 1.899 . S
Zn406 O407 2.032 . S
Zn406 O410 2.086 . S
Zn406 O415 1.977 . S
O407 Zn406 2.032 . S
O407 C411 1.278 . S
C408 O409 1.203 . S
C408 O415 1.267 . S
O409 C408 1.203 . S
O410 C403 1.185 . S
O410 Zn406 2.086 . S
C411 O407 1.278 . S
C411 O412 1.211 . S
O412 C411 1.211 . S
C413 O405 1.284 . S
C413 O414 1.273 . S
O414 C413 1.273 . S
O415 Zn406 1.977 . S
O415 C408 1.267 . S
C416 O417 1.160 . S
C416 O423 1.185 . S
O417 C416 1.160 . S
O418 Zn419 1.899 . S
O418 C426 1.284 . S
Zn419 O418 1.899 . S
Zn419 O420 2.032 . S
Zn419 O423 2.086 . S
Zn419 O428 1.977 . S
O420 Zn419 2.032 . S
O420 C424 1.278 . S
C421 O422 1.203 . S
C421 O428 1.267 . S
O422 C421 1.203 . S
O423 C416 1.185 . S
O423 Zn419 2.086 . S
C424 O420 1.278 . S
C424 O425 1.211 . S
O425 C424 1.211 . S
C426 O418 1.284 . S
C426 O427 1.273 . S
O427 C426 1.273 . S
O428 Zn419 1.977 . S
O428 C421 1.267 . S
C429 O430 1.160 . S
C429 O436 1.185 . S
O430 C429 1.160 . S
O431 Zn432 1.899 . S
O431 C439 1.284 . S
Zn432 O431 1.899 . S
Zn432 O433 2.032 . S
Zn432 O436 2.086 . S
Zn432 O441 1.977 . S
O433 Zn432 2.032 . S
O433 C437 1.278 . S
C434 O435 1.203 . S
C434 O441 1.267 . S
O435 C434 1.203 . S
O436 C429 1.185 . S
O436 Zn432 2.086 . S
C437 O433 1.278 . S
C437 O438 1.211 . S
O438 C437 1.211 . S
C439 O431 1.284 . S
C439 O440 1.273 . S
O440 C439 1.273 . S
O441 Zn432 1.977 . S
O441 C434 1.267 . S
C442 O443 1.160 . S
C442 O449 1.185 . S
O443 C442 1.160 . S
O444 Zn445 1.899 . S
O444 C452 1.284 . S
Zn445 O444 1.899 . S
Zn445 O446 2.032 . S
Zn445 O449 2.086 . S
Zn445 O454 1.977 . S
O446 Zn445 2.032 . S
O446 C450 1.278 . S
C447 O448 1.203 . S
C447 O454 1.267 . S
O448 C447 1.203 . S
O449 C442 1.185 . S
O449 Zn445 2.086 . S
C450 O446 1.278 . S
C450 O451 1.211 . S
O451 C450 1.211 . S
C452 O444 1.284 . S
C452 O453 1.273 . S
O453 C452 1.273 . S
O454 Zn445 1.977 . S
O454 C447 1.267 . S
C455 O456 1.160 . S
C455 O462 1.185 . S
O456 C455 1.160 . S
O457 Zn458 1.899 . S
O457 C465 1.284 . S
Zn458 O457 1.899 . S
Zn458 O459 2.032 . S
Zn458 O462 2.086 . S
Zn458 O467 1.977 . S
O459 Zn458 2.032 . S
O459 C463 1.278 . S
C460 O461 1.203 . S
C460 O467 1.267 . S
O461 C460 1.203 . S
O462 C455 1.185 . S
O462 Zn458 2.086 . S
C463 O459 1.278 . S
C463 O464 1.211 . S
O464 C463 1.211 . S
C465 O457 1.284 . S
C465 O466 1.273 . S
O466 C465 1.273 . S
O467 Zn458 1.977 . S
O467 C460 1.267 . S
C468 O469 1.160 . S
C468 O475 1.185 . S
O469 C468 1.160 . S
O470 Zn471 1.899 . S
O470 C478 1.284 . S
Zn471 O470 1.899 . S
Zn471 O472 2.032 . S
Zn471 O475 2.086 . S
Zn471 O480 1.977 . S
O472 Zn471 2.032 . S
O472 C476 1.278 . S
C473 O474 1.203 . S
C473 O480 1.267 . S
O474 C473 1.203 . S
O475 C468 1.185 . S
O475 Zn471 2.086 . S
C476 O472 1.278 . S
C476 O477 1.211 . S
O477 C476 1.211 . S
C478 O470 1.284 . S
C478 O479 1.273 . S
O479 C478 1.273 . S
O480 Zn471 1.977 . S
O480 C473 1.267 . S
C481 O482 1.160 . S
C481 O488 1.185 . S
O482 C481 1.160 . S
O483 Zn484 1.899 . S
O483 C491 1.284 . S
Zn484 O483 1.899 . S
Zn484 O485 2.032 . S
Zn484 O488 2.086 . S
Zn484 O493 1.977 . S
O485 Zn484 2.032 . S
O485 C489 1.278 . S
C486 O487 1.203 . S
C486 O493 1.267 . S
O487 C486 1.203 . S
O488 C481 1.185 . S
O488 Zn484 2.086 . S
C489 O485 1.278 . S
C489 O490 1.211 . S
O490 C489 1.211 . S
C491 O483 1.284 . S
C491 O492 1.273 . S
O492 C491 1.273 . S
O493 Zn484 1.977 . S
O493 C486 1.267 . S
C494 O495 1.160 . S
C494 O501 1.185 . S
O495 C494 1.160 . S
O496 Zn497 1.899 . S
O496 C504 1.284 . S
Zn497 O496 1.899 . S
Zn497 O498 2.032 . S
Zn497 O501 2.086 . S
Zn497 O506 1.977 . S
O498 Zn497 2.032 . S
O498 C502 1.278 . S
C499 O500 1.203 . S
C499 O506 1.267 . S
O500 C499 1.203 . S
O501 C494 1.185 . S
O501 Zn497 2.086 . S
C502 O498 1.278 . S
C502 O503 1.211 . S
O503 C502 1.211 . S
C504 O496 1.284 . S
C504 O505 1.273 . S
O505 C504 1.273 . S
O506 Zn497 1.977 . S
O506 C499 1.267 . S
C507 O508 1.160 . S
C507 O514 1.185 . S
O508 C507 1.160 . S
O509 Zn510 1.899 . S
O509 C517 1.284 . S
Zn510 O509 1.899 . S
Zn510 O511 2.032 . S
Zn510 O514 2.086 . S
Zn510 O519 1.977 . S
O511 Zn510 2.032 . S
O511 C515 1.278 . S
C512 O513 1.203 . S
C512 O519 1.267 . S
O513 C512 1.203 . S
O514 C507 1.185 . S
O514 Zn510 2.086 . S
C515 O511 1.278 . S
C515 O516 1.211 . S
O516 C515 1.211 . S
C517 O509 1.284 . S
C517 O518 1.273 . S
O518 C517 1.273 . S
O519 Zn510 1.977 . S
O519 C512 1.267 . S
C520 O521 1.160 . S
C520 O527 1.185 . S
O521 C520 1.160 . S
O522 Zn523 1.899 . S
O522 C530 1.284 . S
Zn523 O522 1.899 . S
Zn523 O524 2.032 . S
Zn523 O527 2.086 . S
Zn523 O532 1.977 . S
O524 Zn523 2.032 . S
O524 C528 1.278 . S
C525 O526 1.203 . S
C525 O532 1.267 . S
O526 C525 1.203 . S
O527 C520 1.185 . S
O527 Zn523 2.086 . S
C528 O524 1.278 . S
C528 O529 1.211 . S
O529 C528 1.211 . S
C530 O522 1.284 . S
C530 O531 1.273 . S
O531 C530 1.273 . S
O532 Zn523 1.977 . S
O532 C525 1.267 . S
C533 O534 1.160 . S
C533 O540 1.185 . S
O534 C533 1.160 . S
O535 Zn536 1.899 . S
O535 C543 1.284 . S
Zn536 O535 1.899 . S
Zn536 O537 2.032 . S
Zn536 O540 2.086 . S
Zn536 O545 1.977 . S
O537 Zn536 2.032 . S
O537 C541 1.278 . S
C538 O539 1.203 . S
C538 O545 1.267 . S
O539 C538 1.203 . S
O540 C533 1.185 . S
O540 Zn536 2.086 . S
C541 O537 1.278 . S
C541 O542 1.211 . S
O542 C541 1.211 . S
C543 O535 1.284 . S
C543 O544 1.273 . S
O544 C543 1.273 . S
O545 Zn536 1.977 . S
O545 C538 1.267 . S
C546 O547 1.160 . S
C546 O553 1.185 . S
O547 C546 1.160 . S
O548 Zn549 1.899 . S
O548 C556 1.284 . S
Zn549 O548 1.899 . S
Zn549 O550 2.032 . S
Zn549 O553 2.086 . S
Zn549 O558 1.977 . S
O550 Zn549 2.032 . S
O550 C554 1.278 . S
C551 O552 1.203 . S
C551 O558 1.267 . S
O552 C551 1.203 . S
O553 C546 1.185 . S
O553 Zn549 2.086 . S
C554 O550 1.278 . S
C554 O555 1.211 . S
O555 C554 1.211 . S
C556 O548 1.284 . S
C556 O557 1.273 . S
O557 C556 1.273 . S
O558 Zn549 1.977 . S
O558 C551 1.267 . S
C559 O560 1.160 . S
C559 O566 1.185 . S
O560 C559 1.160 . S
O561 Zn562 1.899 . S
O561 C569 1.284 . S
Zn562 O561 1.899 . S
Zn562 O563 2.032 . S
Zn562 O566 2.086 . S
Zn562 O571 1.977 . S
O563 Zn562 2.032 . S
O563 C567 1.278 . S
C564 O565 1.203 . S
C564 O571 1.267 . S
O565 C564 1.203 . S
O566 C559 1.185 . S
O566 Zn562 2.086 . S
C567 O563 1.278 . S
C567 O568 1.211 . S
O568 C567 1.211 . S
C569 O561 1.284 . S
C569 O570 1.273 . S
O570 C569 1.273 . S
O571 Zn562 1.977 . S
O571 C564 1.267 . S
C572 O573 1.160 . S
C572 O579 1.185 . S
O573 C572 1.160 . S
O574 Zn575 1.899 . S
O574 C582 1.284 . S
Zn575 O574 1.899 . S
Zn575 O576 2.032 . S
Zn575 O579 2.086 . S
Zn575 O584 1.977 . S
O576 Zn575 2.032 . S
O576 C580 1.278 . S
C577 O578 1.203 . S
C577 O584 1.267 . S
O578 C577 1.203 . S
O579 C572 1.185 . S
O579 Zn575 2.086 . S
C580 O576 1.278 . S
C580 O581 1.211 . S
O581 C580 1.211 . S
C582 O574 1.284 . S
C582 O583 1.273 . S
O583 C582 1.273 . S
O584 Zn575 1.977 . S
O584 C577 1.267 . S
C585 O586 1.160 . S
C585 O592 1.185 . S
O586 C585 1.160 . S
O587 Zn588 1.899 . S
O587 C595 1.284 . S
Zn588 O587 1.899 . S
Zn588 O589 2.032 . S
Zn588 O592 2.086 . S
Zn588 O597 1.977 . S
O589 Zn588 2.032 . S
O589 C593 1.278 . S
C590 O591 1.203 . S
C590 O597 1.267 . S
O591 C590 1.203 . S
O592 C585 1.185 . S
O592 Zn588 2.086 . S
C593 O589 1.278 . S
C593 O594 1.211 . S
O594 C593 1.211 . S
C595 O587 1.284 . S
C595 O596 1.273 . S
O596 C595 1.273 . S
O597 Zn588 1.977 . S
O597 C590 1.267 . S
C598 O599 1.160 . S
C598 O605 1.185 . S
O599 C598 1.160 . S
O600 Zn601 1.899 . S
O600 C608 1.284 . S
Zn601 O600 1.899 . S
Zn601 O602 2.032 . S
Zn601 O605 2.086 . S
Zn601 O610 1.977 . S
O602 Zn601 2.032 . S
O602 C606 1.278 . S
C603 O604 1.203 . S
C603 O610 1.267 . S
O604 C603 1.203 . S
O605 C598 1.185 . S
O605 Zn601 2.086 . S
C606 O602 1.278 . S
C606 O607 1.211 . S
O607 C606 1.211 . S
C608 O600 1.284 . S
C608 O609 1.273 . S
O609 C608 1.273 . S
O610 Zn601 1.977 . S
O610 C603 1.267 . S
C611 O612 1.160 . S
C611 O618 1.185 . S
O612 C611 1.160 . S
O613 Zn614 1.899 . S
O613 C621 1.284 . S
Zn614 O613 1.899 . S
Zn614 O615 2.032 . S
Zn614 O618 2.086 . S
Zn614 O623 1.977 . S
O615 Zn614 2.032 . S
O615 C619 1.278 . S
C616 O617 1.203 . S
C616 O623 1.267 . S
O617 C616 1.203 . S
O618 C611 1.185 . S
O618 Zn614 2.086 . S
C619 O615 1.278 . S
C619 O620 1.211 . S
O620 C619 1.211 . S
C621 O613 1.284 . S
C621 O622 1.273 . S
O622 C621 1.273 . S
O623 Zn614 1.977 . S
O623 C616 1.267 . S
H624 C632 0.950 . S
H625 C637 0.950 . S
H626 C634 0.950 . S
H627 C636 0.950 . S
H628 C638 0.950 . S
H629 C640 0.950 . S
H630 C642 0.950 . S
H631 C643 0.950 . S
C632 H624 0.950 . S
C632 C633 1.386 . S
C632 C634 1.391 . S
C633 C632 1.386 . S
C633 C637 1.393 . S
C634 H626 0.950 . S
C634 C632 1.391 . S
C634 C635 1.400 . S
C635 C634 1.400 . S
C635 C636 1.398 . S
C635 C641 1.491 1_655 S
C636 H627 0.950 . S
C636 C635 1.398 . S
C636 C637 1.391 . S
C637 H625 0.950 . S
C637 C633 1.393 . S
C637 C636 1.391 . S
C638 H628 0.950 . S
C638 C639 1.386 . S
C638 C640 1.391 . S
C639 C638 1.386 . S
C639 C643 1.393 . S
C640 H629 0.950 . S
C640 C638 1.391 . S
C640 C641 1.400 . S
C641 C635 1.491 1_455 S
C641 C640 1.400 . S
C641 C642 1.398 . S
C642 H630 0.950 . S
C642 C641 1.398 . S
C642 C643 1.391 . S
C643 H631 0.950 . S
C643 C639 1.393 . S
C643 C642 1.391 . S
H644 C652 0.950 . S
H645 C657 0.950 . S
H646 C654 0.950 . S
H647 C656 0.950 . S
H648 C658 0.950 . S
H649 C660 0.950 . S
H650 C662 0.950 . S
H651 C663 0.950 . S
C652 H644 0.950 . S
C652 C653 1.386 . S
C652 C654 1.391 . S
C653 C652 1.386 . S
C653 C657 1.393 . S
C654 H646 0.950 . S
C654 C652 1.391 . S
C654 C655 1.400 . S
C655 C654 1.400 . S
C655 C656 1.398 . S
C655 C661 1.491 . S
C656 H647 0.950 . S
C656 C655 1.398 . S
C656 C657 1.391 . S
C657 H645 0.950 . S
C657 C653 1.393 . S
C657 C656 1.391 . S
C658 H648 0.950 . S
C658 C659 1.386 . S
C658 C660 1.391 . S
C659 C658 1.386 . S
C659 C663 1.393 . S
C660 H649 0.950 . S
C660 C658 1.391 . S
C660 C661 1.400 . S
C661 C655 1.491 . S
C661 C660 1.400 . S
C661 C662 1.398 . S
C662 H650 0.950 . S
C662 C661 1.398 . S
C662 C663 1.391 . S
C663 H651 0.950 . S
C663 C659 1.393 . S
C663 C662 1.391 . S
H664 C672 0.950 . S
H665 C677 0.950 . S
H666 C674 0.950 . S
H667 C676 0.950 . S
H668 C678 0.950 . S
H669 C680 0.950 . S
H670 C682 0.950 . S
H671 C683 0.950 . S
C672 H664 0.950 . S
C672 C673 1.386 . S
C672 C674 1.391 . S
C673 C672 1.386 . S
C673 C677 1.393 . S
C674 H666 0.950 . S
C674 C672 1.391 . S
C674 C675 1.400 . S
C675 C674 1.400 . S
C675 C676 1.398 . S
C675 C681 1.491 1_455 S
C676 H667 0.950 . S
C676 C675 1.398 . S
C676 C677 1.391 . S
C677 H665 0.950 . S
C677 C673 1.393 . S
C677 C676 1.391 . S
C678 H668 0.950 . S
C678 C679 1.386 . S
C678 C680 1.391 . S
C679 C678 1.386 . S
C679 C683 1.393 . S
C680 H669 0.950 . S
C680 C678 1.391 . S
C680 C681 1.400 . S
C681 C675 1.491 1_655 S
C681 C680 1.400 . S
C681 C682 1.398 . S
C682 H670 0.950 . S
C682 C681 1.398 . S
C682 C683 1.391 . S
C683 H671 0.950 . S
C683 C679 1.393 . S
C683 C682 1.391 . S
H684 C692 0.950 . S
H685 C697 0.950 . S
H686 C694 0.950 . S
H687 C696 0.950 . S
H688 C698 0.950 . S
H689 C700 0.950 . S
H690 C702 0.950 . S
H691 C703 0.950 . S
C692 H684 0.950 . S
C692 C693 1.386 . S
C692 C694 1.391 . S
C693 C692 1.386 . S
C693 C697 1.393 . S
C694 H686 0.950 . S
C694 C692 1.391 . S
C694 C695 1.400 . S
C695 C694 1.400 . S
C695 C696 1.398 . S
C695 C701 1.491 . S
C696 H687 0.950 . S
C696 C695 1.398 . S
C696 C697 1.391 . S
C697 H685 0.950 . S
C697 C693 1.393 . S
C697 C696 1.391 . S
C698 H688 0.950 . S
C698 C699 1.386 . S
C698 C700 1.391 . S
C699 C698 1.386 . S
C699 C703 1.393 . S
C700 H689 0.950 . S
C700 C698 1.391 . S
C700 C701 1.400 . S
C701 C695 1.491 . S
C701 C700 1.400 . S
C701 C702 1.398 . S
C702 H690 0.950 . S
C702 C701 1.398 . S
C702 C703 1.391 . S
C703 H691 0.950 . S
C703 C699 1.393 . S
C703 C702 1.391 . S
H704 C712 0.950 . S
H705 C717 0.950 . S
H706 C714 0.950 . S
H707 C716 0.950 . S
H708 C718 0.950 . S
H709 C720 0.950 . S
H710 C722 0.950 . S
H711 C723 0.950 . S
C712 H704 0.950 . S
C712 C713 1.386 . S
C712 C714 1.391 . S
C713 C712 1.386 . S
C713 C717 1.393 . S
C714 H706 0.950 . S
C714 C712 1.391 . S
C714 C715 1.400 . S
C715 C714 1.400 . S
C715 C716 1.398 . S
C715 C721 1.491 1_655 S
C716 H707 0.950 . S
C716 C715 1.398 . S
C716 C717 1.391 . S
C717 H705 0.950 . S
C717 C713 1.393 . S
C717 C716 1.391 . S
C718 H708 0.950 . S
C718 C719 1.386 . S
C718 C720 1.391 . S
C719 C718 1.386 . S
C719 C723 1.393 . S
C720 H709 0.950 . S
C720 C718 1.391 . S
C720 C721 1.400 . S
C721 C715 1.491 1_455 S
C721 C720 1.400 . S
C721 C722 1.398 . S
C722 H710 0.950 . S
C722 C721 1.398 . S
C722 C723 1.391 . S
C723 H711 0.950 . S
C723 C719 1.393 . S
C723 C722 1.391 . S
H724 C732 0.950 . S
H725 C737 0.950 . S
H726 C734 0.950 . S
H727 C736 0.950 . S
H728 C738 0.950 . S
H729 C740 0.950 . S
H730 C742 0.950 . S
H731 C743 0.950 . S
C732 H724 0.950 . S
C732 C733 1.386 . S
C732 C734 1.391 . S
C733 C732 1.386 . S
C733 C737 1.393 . S
C734 H726 0.950 . S
C734 C732 1.391 . S
C734 C735 1.400 . S
C735 C734 1.400 . S
C735 C736 1.398 . S
C735 C741 1.491 . S
C736 H727 0.950 . S
C736 C735 1.398 . S
C736 C737 1.391 . S
C737 H725 0.950 . S
C737 C733 1.393 . S
C737 C736 1.391 . S
C738 H728 0.950 . S
C738 C739 1.386 . S
C738 C740 1.391 . S
C739 C738 1.386 . S
C739 C743 1.393 . S
C740 H729 0.950 . S
C740 C738 1.391 . S
C740 C741 1.400 . S
C741 C735 1.491 . S
C741 C740 1.400 . S
C741 C742 1.398 . S
C742 H730 0.950 . S
C742 C741 1.398 . S
C742 C743 1.391 . S
C743 H731 0.950 . S
C743 C739 1.393 . S
C743 C742 1.391 . S
H744 C752 0.950 . S
H745 C757 0.950 . S
H746 C754 0.950 . S
H747 C756 0.950 . S
H748 C758 0.950 . S
H749 C760 0.950 . S
H750 C762 0.950 . S
H751 C763 0.950 . S
C752 H744 0.950 . S
C752 C753 1.386 . S
C752 C754 1.391 . S
C753 C752 1.386 . S
C753 C757 1.393 . S
C754 H746 0.950 . S
C754 C752 1.391 . S
C754 C755 1.400 . S
C755 C754 1.400 . S
C755 C756 1.398 . S
C755 C761 1.491 1_455 S
C756 H747 0.950 . S
C756 C755 1.398 . S
C756 C757 1.391 . S
C757 H745 0.950 . S
C757 C753 1.393 . S
C757 C756 1.391 . S
C758 H748 0.950 . S
C758 C759 1.386 . S
C758 C760 1.391 . S
C759 C758 1.386 . S
C759 C763 1.393 . S
C760 H749 0.950 . S
C760 C758 1.391 . S
C760 C761 1.400 . S
C761 C755 1.491 1_655 S
C761 C760 1.400 . S
C761 C762 1.398 . S
C762 H750 0.950 . S
C762 C761 1.398 . S
C762 C763 1.391 . S
C763 H751 0.950 . S
C763 C759 1.393 . S
C763 C762 1.391 . S
H764 C772 0.950 . S
H765 C777 0.950 . S
H766 C774 0.950 . S
H767 C776 0.950 . S
H768 C778 0.950 . S
H769 C780 0.950 . S
H770 C782 0.950 . S
H771 C783 0.950 . S
C772 H764 0.950 . S
C772 C773 1.386 . S
C772 C774 1.391 . S
C773 C772 1.386 . S
C773 C777 1.393 . S
C774 H766 0.950 . S
C774 C772 1.391 . S
C774 C775 1.400 . S
C775 C774 1.400 . S
C775 C776 1.398 . S
C775 C781 1.491 . S
C776 H767 0.950 . S
C776 C775 1.398 . S
C776 C777 1.391 . S
C777 H765 0.950 . S
C777 C773 1.393 . S
C777 C776 1.391 . S
C778 H768 0.950 . S
C778 C779 1.386 . S
C778 C780 1.391 . S
C779 C778 1.386 . S
C779 C783 1.393 . S
C780 H769 0.950 . S
C780 C778 1.391 . S
C780 C781 1.400 . S
C781 C775 1.491 . S
C781 C780 1.400 . S
C781 C782 1.398 . S
C782 H770 0.950 . S
C782 C781 1.398 . S
C782 C783 1.391 . S
C783 H771 0.950 . S
C783 C779 1.393 . S
C783 C782 1.391 . S
H784 C792 0.950 . S
H785 C797 0.950 . S
H786 C794 0.950 . S
H787 C796 0.950 . S
H788 C798 0.950 . S
H789 C800 0.950 . S
H790 C802 0.950 . S
H791 C803 0.950 . S
C792 H784 0.950 . S
C792 C793 1.386 . S
C792 C794 1.391 . S
C793 C792 1.386 . S
C793 C797 1.393 . S
C794 H786 0.950 . S
C794 C792 1.391 . S
C794 C795 1.400 . S
C795 C794 1.400 . S
C795 C796 1.398 . S
C795 C801 1.491 1_565 S
C796 H787 0.950 . S
C796 C795 1.398 . S
C796 C797 1.391 . S
C797 H785 0.950 . S
C797 C793 1.393 . S
C797 C796 1.391 . S
C798 H788 0.950 . S
C798 C799 1.386 . S
C798 C800 1.391 . S
C799 C798 1.386 . S
C799 C803 1.393 . S
C800 H789 0.950 . S
C800 C798 1.391 . S
C800 C801 1.400 . S
C801 C795 1.491 1_545 S
C801 C800 1.400 . S
C801 C802 1.398 . S
C802 H790 0.950 . S
C802 C801 1.398 . S
C802 C803 1.391 . S
C803 H791 0.950 . S
C803 C799 1.393 . S
C803 C802 1.391 . S
H804 C812 0.950 . S
H805 C817 0.950 . S
H806 C814 0.950 . S
H807 C816 0.950 . S
H808 C818 0.950 . S
H809 C820 0.950 . S
H810 C822 0.950 . S
H811 C823 0.950 . S
C812 H804 0.950 . S
C812 C813 1.386 . S
C812 C814 1.391 . S
C813 C812 1.386 . S
C813 C817 1.393 . S
C814 H806 0.950 . S
C814 C812 1.391 . S
C814 C815 1.400 . S
C815 C814 1.400 . S
C815 C816 1.398 . S
C815 C821 1.491 . S
C816 H807 0.950 . S
C816 C815 1.398 . S
C816 C817 1.391 . S
C817 H805 0.950 . S
C817 C813 1.393 . S
C817 C816 1.391 . S
C818 H808 0.950 . S
C818 C819 1.386 . S
C818 C820 1.391 . S
C819 C818 1.386 . S
C819 C823 1.393 . S
C820 H809 0.950 . S
C820 C818 1.391 . S
C820 C821 1.400 . S
C821 C815 1.491 . S
C821 C820 1.400 . S
C821 C822 1.398 . S
C822 H810 0.950 . S
C822 C821 1.398 . S
C822 C823 1.391 . S
C823 H811 0.950 . S
C823 C819 1.393 . S
C823 C822 1.391 . S
H824 C832 0.950 . S
H825 C837 0.950 . S
H826 C834 0.950 . S
H827 C836 0.950 . S
H828 C838 0.950 . S
H829 C840 0.950 . S
H830 C842 0.950 . S
H831 C843 0.950 . S
C832 H824 0.950 . S
C832 C833 1.386 . S
C832 C834 1.391 . S
C833 C832 1.386 . S
C833 C837 1.393 . S
C834 H826 0.950 . S
C834 C832 1.391 . S
C834 C835 1.400 . S
C835 C834 1.400 . S
C835 C836 1.398 . S
C835 C841 1.491 1_545 S
C836 H827 0.950 . S
C836 C835 1.398 . S
C836 C837 1.391 . S
C837 H825 0.950 . S
C837 C833 1.393 . S
C837 C836 1.391 . S
C838 H828 0.950 . S
C838 C839 1.386 . S
C838 C840 1.391 . S
C839 C838 1.386 . S
C839 C843 1.393 . S
C840 H829 0.950 . S
C840 C838 1.391 . S
C840 C841 1.400 . S
C841 C835 1.491 1_565 S
C841 C840 1.400 . S
C841 C842 1.398 . S
C842 H830 0.950 . S
C842 C841 1.398 . S
C842 C843 1.391 . S
C843 H831 0.950 . S
C843 C839 1.393 . S
C843 C842 1.391 . S
H844 C852 0.950 . S
H845 C857 0.950 . S
H846 C854 0.950 . S
H847 C856 0.950 . S
H848 C858 0.950 . S
H849 C860 0.950 . S
H850 C862 0.950 . S
H851 C863 0.950 . S
C852 H844 0.950 . S
C852 C853 1.386 . S
C852 C854 1.391 . S
C853 C852 1.386 . S
C853 C857 1.393 . S
C854 H846 0.950 . S
C854 C852 1.391 . S
C854 C855 1.400 . S
C855 C854 1.400 . S
C855 C856 1.398 . S
C855 C861 1.491 . S
C856 H847 0.950 . S
C856 C855 1.398 . S
C856 C857 1.391 . S
C857 H845 0.950 . S
C857 C853 1.393 . S
C857 C856 1.391 . S
C858 H848 0.950 . S
C858 C859 1.386 . S
C858 C860 1.391 . S
C859 C858 1.386 . S
C859 C863 1.393 . S
C860 H849 0.950 . S
C860 C858 1.391 . S
C860 C861 1.400 . S
C861 C855 1.491 . S
C861 C860 1.400 . S
C861 C862 1.398 . S
C862 H850 0.950 . S
C862 C861 1.398 . S
C862 C863 1.391 . S
C863 H851 0.950 . S
C863 C859 1.393 . S
C863 C862 1.391 . S
H864 C872 0.950 . S
H865 C877 0.950 . S
H866 C874 0.950 . S
H867 C876 0.950 . S
H868 C878 0.950 . S
H869 C880 0.950 . S
H870 C882 0.950 . S
H871 C883 0.950 . S
C872 H864 0.950 . S
C872 C873 1.386 . S
C872 C874 1.391 . S
C873 C872 1.386 . S
C873 C877 1.393 . S
C874 H866 0.950 . S
C874 C872 1.391 . S
C874 C875 1.400 . S
C875 C874 1.400 . S
C875 C876 1.398 . S
C875 C881 1.491 1_545 S
C876 H867 0.950 . S
C876 C875 1.398 . S
C876 C877 1.391 . S
C877 H865 0.950 . S
C877 C873 1.393 . S
C877 C876 1.391 . S
C878 H868 0.950 . S
C878 C879 1.386 . S
C878 C880 1.391 . S
C879 C878 1.386 . S
C879 C883 1.393 . S
C880 H869 0.950 . S
C880 C878 1.391 . S
C880 C881 1.400 . S
C881 C875 1.491 1_565 S
C881 C880 1.400 . S
C881 C882 1.398 . S
C882 H870 0.950 . S
C882 C881 1.398 . S
C882 C883 1.391 . S
C883 H871 0.950 . S
C883 C879 1.393 . S
C883 C882 1.391 . S
H884 C892 0.950 . S
H885 C897 0.950 . S
H886 C894 0.950 . S
H887 C896 0.950 . S
H888 C898 0.950 . S
H889 C900 0.950 . S
H890 C902 0.950 . S
H891 C903 0.950 . S
C892 H884 0.950 . S
C892 C893 1.386 . S
C892 C894 1.391 . S
C893 C892 1.386 . S
C893 C897 1.393 . S
C894 H886 0.950 . S
C894 C892 1.391 . S
C894 C895 1.400 . S
C895 C894 1.400 . S
C895 C896 1.398 . S
C895 C901 1.491 . S
C896 H887 0.950 . S
C896 C895 1.398 . S
C896 C897 1.391 . S
C897 H885 0.950 . S
C897 C893 1.393 . S
C897 C896 1.391 . S
C898 H888 0.950 . S
C898 C899 1.386 . S
C898 C900 1.391 . S
C899 C898 1.386 . S
C899 C903 1.393 . S
C900 H889 0.950 . S
C900 C898 1.391 . S
C900 C901 1.400 . S
C901 C895 1.491 . S
C901 C900 1.400 . S
C901 C902 1.398 . S
C902 H890 0.950 . S
C902 C901 1.398 . S
C902 C903 1.391 . S
C903 H891 0.950 . S
C903 C899 1.393 . S
C903 C902 1.391 . S
H904 C912 0.950 . S
H905 C917 0.950 . S
H906 C914 0.950 . S
H907 C916 0.950 . S
H908 C918 0.950 . S
H909 C920 0.950 . S
H910 C922 0.950 . S
H911 C923 0.950 . S
C912 H904 0.950 . S
C912 C913 1.386 . S
C912 C914 1.391 . S
C913 C912 1.386 . S
C913 C917 1.393 . S
C914 H906 0.950 . S
C914 C912 1.391 . S
C914 C915 1.400 . S
C915 C914 1.400 . S
C915 C916 1.398 . S
C915 C921 1.491 1_545 S
C916 H907 0.950 . S
C916 C915 1.398 . S
C916 C917 1.391 . S
C917 H905 0.950 . S
C917 C913 1.393 . S
C917 C916 1.391 . S
C918 H908 0.950 . S
C918 C919 1.386 . S
C918 C920 1.391 . S
C919 C918 1.386 . S
C919 C923 1.393 . S
C920 H909 0.950 . S
C920 C918 1.391 . S
C920 C921 1.400 . S
C921 C915 1.491 1_565 S
C921 C920 1.400 . S
C921 C922 1.398 . S
C922 H910 0.950 . S
C922 C921 1.398 . S
C922 C923 1.391 . S
C923 H911 0.950 . S
C923 C919 1.393 . S
C923 C922 1.391 . S
H924 C932 0.950 . S
H925 C937 0.950 . S
H926 C934 0.950 . S
H927 C936 0.950 . S
H928 C938 0.950 . S
H929 C940 0.950 . S
H930 C942 0.950 . S
H931 C943 0.950 . S
C932 H924 0.950 . S
C932 C933 1.386 . S
C932 C934 1.391 . S
C933 C932 1.386 . S
C933 C937 1.393 . S
C934 H926 0.950 . S
C934 C932 1.391 . S
C934 C935 1.400 . S
C935 C934 1.400 . S
C935 C936 1.398 . S
C935 C941 1.491 . S
C936 H927 0.950 . S
C936 C935 1.398 . S
C936 C937 1.391 . S
C937 H925 0.950 . S
C937 C933 1.393 . S
C937 C936 1.391 . S
C938 H928 0.950 . S
C938 C939 1.386 . S
C938 C940 1.391 . S
C939 C938 1.386 . S
C939 C943 1.393 . S
C940 H929 0.950 . S
C940 C938 1.391 . S
C940 C941 1.400 . S
C941 C935 1.491 . S
C941 C940 1.400 . S
C941 C942 1.398 . S
C942 H930 0.950 . S
C942 C941 1.398 . S
C942 C943 1.391 . S
C943 H931 0.950 . S
C943 C939 1.393 . S
C943 C942 1.391 . S
H944 C952 0.950 . S
H945 C957 0.950 . S
H946 C954 0.950 . S
H947 C956 0.950 . S
H948 C958 0.950 . S
H949 C960 0.950 . S
H950 C962 0.950 . S
H951 C963 0.950 . S
C952 H944 0.950 . S
C952 C953 1.386 . S
C952 C954 1.391 . S
C953 C952 1.386 . S
C953 C957 1.393 . S
C954 H946 0.950 . S
C954 C952 1.391 . S
C954 C955 1.400 . S
C955 C954 1.400 . S
C955 C956 1.398 . S
C955 C961 1.491 1_554 S
C956 H947 0.950 . S
C956 C955 1.398 . S
C956 C957 1.391 . S
C957 H945 0.950 . S
C957 C953 1.393 . S
C957 C956 1.391 . S
C958 H948 0.950 . S
C958 C959 1.386 . S
C958 C960 1.391 . S
C959 C958 1.386 . S
C959 C963 1.393 . S
C960 H949 0.950 . S
C960 C958 1.391 . S
C960 C961 1.400 . S
C961 C955 1.491 1_556 S
C961 C960 1.400 . S
C961 C962 1.398 . S
C962 H950 0.950 . S
C962 C961 1.398 . S
C962 C963 1.391 . S
C963 H951 0.950 . S
C963 C959 1.393 . S
C963 C962 1.391 . S
H964 C972 0.950 . S
H965 C977 0.950 . S
H966 C974 0.950 . S
H967 C976 0.950 . S
H968 C978 0.950 . S
H969 C980 0.950 . S
H970 C982 0.950 . S
H971 C983 0.950 . S
C972 H964 0.950 . S
C972 C973 1.386 . S
C972 C974 1.391 . S
C973 C972 1.386 . S
C973 C977 1.393 . S
C974 H966 0.950 . S
C974 C972 1.391 . S
C974 C975 1.400 . S
C975 C974 1.400 . S
C975 C976 1.398 . S
C975 C981 1.491 1_554 S
C976 H967 0.950 . S
C976 C975 1.398 . S
C976 C977 1.391 . S
C977 H965 0.950 . S
C977 C973 1.393 . S
C977 C976 1.391 . S
C978 H968 0.950 . S
C978 C979 1.386 . S
C978 C980 1.391 . S
C979 C978 1.386 . S
C979 C983 1.393 . S
C980 H969 0.950 . S
C980 C978 1.391 . S
C980 C981 1.400 . S
C981 C975 1.491 1_556 S
C981 C980 1.400 . S
C981 C982 1.398 . S
C982 H970 0.950 . S
C982 C981 1.398 . S
C982 C983 1.391 . S
C983 H971 0.950 . S
C983 C979 1.393 . S
C983 C982 1.391 . S
H984 C992 0.950 . S
H985 C997 0.950 . S
H986 C994 0.950 . S
H987 C996 0.950 . S
H988 C998 0.950 . S
H989 C1000 0.950 . S
H990 C1002 0.950 . S
H991 C1003 0.950 . S
C992 H984 0.950 . S
C992 C993 1.386 . S
C992 C994 1.391 . S
C993 C992 1.386 . S
C993 C997 1.393 . S
C994 H986 0.950 . S
C994 C992 1.391 . S
C994 C995 1.400 . S
C995 C994 1.400 . S
C995 C996 1.398 . S
C995 C1001 1.491 . S
C996 H987 0.950 . S
C996 C995 1.398 . S
C996 C997 1.391 . S
C997 H985 0.950 . S
C997 C993 1.393 . S
C997 C996 1.391 . S
C998 H988 0.950 . S
C998 C999 1.386 . S
C998 C1000 1.391 . S
C999 C998 1.386 . S
C999 C1003 1.393 . S
C1000 H989 0.950 . S
C1000 C998 1.391 . S
C1000 C1001 1.400 . S
C1001 C995 1.491 . S
C1001 C1000 1.400 . S
C1001 C1002 1.398 . S
C1002 H990 0.950 . S
C1002 C1001 1.398 . S
C1002 C1003 1.391 . S
C1003 H991 0.950 . S
C1003 C999 1.393 . S
C1003 C1002 1.391 . S
H1004 C1012 0.950 . S
H1005 C1017 0.950 . S
H1006 C1014 0.950 . S
H1007 C1016 0.950 . S
H1008 C1018 0.950 . S
H1009 C1020 0.950 . S
H1010 C1022 0.950 . S
H1011 C1023 0.950 . S
C1012 H1004 0.950 . S
C1012 C1013 1.386 . S
C1012 C1014 1.391 . S
C1013 C1012 1.386 . S
C1013 C1017 1.393 . S
C1014 H1006 0.950 . S
C1014 C1012 1.391 . S
C1014 C1015 1.400 . S
C1015 C1014 1.400 . S
C1015 C1016 1.398 . S
C1015 C1021 1.491 1_554 S
C1016 H1007 0.950 . S
C1016 C1015 1.398 . S
C1016 C1017 1.391 . S
C1017 H1005 0.950 . S
C1017 C1013 1.393 . S
C1017 C1016 1.391 . S
C1018 H1008 0.950 . S
C1018 C1019 1.386 . S
C1018 C1020 1.391 . S
C1019 C1018 1.386 . S
C1019 C1023 1.393 . S
C1020 H1009 0.950 . S
C1020 C1018 1.391 . S
C1020 C1021 1.400 . S
C1021 C1015 1.491 1_556 S
C1021 C1020 1.400 . S
C1021 C1022 1.398 . S
C1022 H1010 0.950 . S
C1022 C1021 1.398 . S
C1022 C1023 1.391 . S
C1023 H1011 0.950 . S
C1023 C1019 1.393 . S
C1023 C1022 1.391 . S
H1024 C1032 0.950 . S
H1025 C1037 0.950 . S
H1026 C1034 0.950 . S
H1027 C1036 0.950 . S
H1028 C1038 0.950 . S
H1029 C1040 0.950 . S
H1030 C1042 0.950 . S
H1031 C1043 0.950 . S
C1032 H1024 0.950 . S
C1032 C1033 1.386 . S
C1032 C1034 1.391 . S
C1033 C1032 1.386 . S
C1033 C1037 1.393 . S
C1034 H1026 0.950 . S
C1034 C1032 1.391 . S
C1034 C1035 1.400 . S
C1035 C1034 1.400 . S
C1035 C1036 1.398 . S
C1035 C1041 1.491 . S
C1036 H1027 0.950 . S
C1036 C1035 1.398 . S
C1036 C1037 1.391 . S
C1037 H1025 0.950 . S
C1037 C1033 1.393 . S
C1037 C1036 1.391 . S
C1038 H1028 0.950 . S
C1038 C1039 1.386 . S
C1038 C1040 1.391 . S
C1039 C1038 1.386 . S
C1039 C1043 1.393 . S
C1040 H1029 0.950 . S
C1040 C1038 1.391 . S
C1040 C1041 1.400 . S
C1041 C1035 1.491 . S
C1041 C1040 1.400 . S
C1041 C1042 1.398 . S
C1042 H1030 0.950 . S
C1042 C1041 1.398 . S
C1042 C1043 1.391 . S
C1043 H1031 0.950 . S
C1043 C1039 1.393 . S
C1043 C1042 1.391 . S
H1044 C1052 0.950 . S
H1045 C1057 0.950 . S
H1046 C1054 0.950 . S
H1047 C1056 0.950 . S
H1048 C1058 0.950 . S
H1049 C1060 0.950 . S
H1050 C1062 0.950 . S
H1051 C1063 0.950 . S
C1052 H1044 0.950 . S
C1052 C1053 1.386 . S
C1052 C1054 1.391 . S
C1053 C1052 1.386 . S
C1053 C1057 1.393 . S
C1054 H1046 0.950 . S
C1054 C1052 1.391 . S
C1054 C1055 1.400 . S
C1055 C1054 1.400 . S
C1055 C1056 1.398 . S
C1055 C1061 1.491 1_554 S
C1056 H1047 0.950 . S
C1056 C1055 1.398 . S
C1056 C1057 1.391 . S
C1057 H1045 0.950 . S
C1057 C1053 1.393 . S
C1057 C1056 1.391 . S
C1058 H1048 0.950 . S
C1058 C1059 1.386 . S
C1058 C1060 1.391 . S
C1059 C1058 1.386 . S
C1059 C1063 1.393 . S
C1060 H1049 0.950 . S
C1060 C1058 1.391 . S
C1060 C1061 1.400 . S
C1061 C1055 1.491 1_556 S
C1061 C1060 1.400 . S
C1061 C1062 1.398 . S
C1062 H1050 0.950 . S
C1062 C1061 1.398 . S
C1062 C1063 1.391 . S
C1063 H1051 0.950 . S
C1063 C1059 1.393 . S
C1063 C1062 1.391 . S
H1064 C1072 0.950 . S
H1065 C1077 0.950 . S
H1066 C1074 0.950 . S
H1067 C1076 0.950 . S
H1068 C1078 0.950 . S
H1069 C1080 0.950 . S
H1070 C1082 0.950 . S
H1071 C1083 0.950 . S
C1072 H1064 0.950 . S
C1072 C1073 1.386 . S
C1072 C1074 1.391 . S
C1073 C1072 1.386 . S
C1073 C1077 1.393 . S
C1074 H1066 0.950 . S
C1074 C1072 1.391 . S
C1074 C1075 1.400 . S
C1075 C1074 1.400 . S
C1075 C1076 1.398 . S
C1075 C1081 1.491 . S
C1076 H1067 0.950 . S
C1076 C1075 1.398 . S
C1076 C1077 1.391 . S
C1077 H1065 0.950 . S
C1077 C1073 1.393 . S
C1077 C1076 1.391 . S
C1078 H1068 0.950 . S
C1078 C1079 1.386 . S
C1078 C1080 1.391 . S
C1079 C1078 1.386 . S
C1079 C1083 1.393 . S
C1080 H1069 0.950 . S
C1080 C1078 1.391 . S
C1080 C1081 1.400 . S
C1081 C1075 1.491 . S
C1081 C1080 1.400 . S
C1081 C1082 1.398 . S
C1082 H1070 0.950 . S
C1082 C1081 1.398 . S
C1082 C1083 1.391 . S
C1083 H1071 0.950 . S
C1083 C1079 1.393 . S
C1083 C1082 1.391 . S
H1084 C1092 0.950 . S
H1085 C1097 0.950 . S
H1086 C1094 0.950 . S
H1087 C1096 0.950 . S
H1088 C1098 0.950 . S
H1089 C1100 0.950 . S
H1090 C1102 0.950 . S
H1091 C1103 0.950 . S
C1092 H1084 0.950 . S
C1092 C1093 1.386 . S
C1092 C1094 1.391 . S
C1093 C1092 1.386 . S
C1093 C1097 1.393 . S
C1094 H1086 0.950 . S
C1094 C1092 1.391 . S
C1094 C1095 1.400 . S
C1095 C1094 1.400 . S
C1095 C1096 1.398 . S
C1095 C1101 1.491 . S
C1096 H1087 0.950 . S
C1096 C1095 1.398 . S
C1096 C1097 1.391 . S
C1097 H1085 0.950 . S
C1097 C1093 1.393 . S
C1097 C1096 1.391 . S
C1098 H1088 0.950 . S
C1098 C1099 1.386 . S
C1098 C1100 1.391 . S
C1099 C1098 1.386 . S
C1099 C1103 1.393 . S
C1100 H1089 0.950 . S
C1100 C1098 1.391 . S
C1100 C1101 1.400 . S
C1101 C1095 1.491 . S
C1101 C1100 1.400 . S
C1101 C1102 1.398 . S
C1102 H1090 0.950 . S
C1102 C1101 1.398 . S
C1102 C1103 1.391 . S
C1103 H1091 0.950 . S
C1103 C1099 1.393 . S
C1103 C1102 1.391 . S
H1104 C1112 0.950 . S
H1105 C1117 0.950 . S
H1106 C1114 0.950 . S
H1107 C1116 0.950 . S
H1108 C1118 0.950 . S
H1109 C1120 0.950 . S
H1110 C1122 0.950 . S
H1111 C1123 0.950 . S
C1112 H1104 0.950 . S
C1112 C1113 1.386 . S
C1112 C1114 1.391 . S
C1113 C1112 1.386 . S
C1113 C1117 1.393 . S
C1114 H1106 0.950 . S
C1114 C1112 1.391 . S
C1114 C1115 1.400 . S
C1115 C1114 1.400 . S
C1115 C1116 1.398 . S
C1115 C1121 1.491 . S
C1116 H1107 0.950 . S
C1116 C1115 1.398 . S
C1116 C1117 1.391 . S
C1117 H1105 0.950 . S
C1117 C1113 1.393 . S
C1117 C1116 1.391 . S
C1118 H1108 0.950 . S
C1118 C1119 1.386 . S
C1118 C1120 1.391 . S
C1119 C1118 1.386 . S
C1119 C1123 1.393 . S
C1120 H1109 0.950 . S
C1120 C1118 1.391 . S
C1120 C1121 1.400 . S
C1121 C1115 1.491 . S
C1121 C1120 1.400 . S
C1121 C1122 1.398 . S
C1122 H1110 0.950 . S
C1122 C1121 1.398 . S
C1122 C1123 1.391 . S
C1123 H1111 0.950 . S
C1123 C1119 1.393 . S
C1123 C1122 1.391 . S
H1124 C1132 0.950 . S
H1125 C1137 0.950 . S
H1126 C1134 0.950 . S
H1127 C1136 0.950 . S
H1128 C1138 0.950 . S
H1129 C1140 0.950 . S
H1130 C1142 0.950 . S
H1131 C1143 0.950 . S
C1132 H1124 0.950 . S
C1132 C1133 1.386 . S
C1132 C1134 1.391 . S
C1133 C1132 1.386 . S
C1133 C1137 1.393 . S
C1134 H1126 0.950 . S
C1134 C1132 1.391 . S
C1134 C1135 1.400 . S
C1135 C1134 1.400 . S
C1135 C1136 1.398 . S
C1135 C1141 1.491 . S
C1136 H1127 0.950 . S
C1136 C1135 1.398 . S
C1136 C1137 1.391 . S
C1137 H1125 0.950 . S
C1137 C1133 1.393 . S
C1137 C1136 1.391 . S
C1138 H1128 0.950 . S
C1138 C1139 1.386 . S
C1138 C1140 1.391 . S
C1139 C1138 1.386 . S
C1139 C1143 1.393 . S
C1140 H1129 0.950 . S
C1140 C1138 1.391 . S
C1140 C1141 1.400 . S
C1141 C1135 1.491 . S
C1141 C1140 1.400 . S
C1141 C1142 1.398 . S
C1142 H1130 0.950 . S
C1142 C1141 1.398 . S
C1142 C1143 1.391 . S
C1143 H1131 0.950 . S
C1143 C1139 1.393 . S
C1143 C1142 1.391 . S
H1144 C1152 0.950 . S
H1145 C1157 0.950 . S
H1146 C1154 0.950 . S
H1147 C1156 0.950 . S
H1148 C1158 0.950 . S
H1149 C1160 0.950 . S
H1150 C1162 0.950 . S
H1151 C1163 0.950 . S
C1152 H1144 0.950 . S
C1152 C1153 1.386 . S
C1152 C1154 1.391 . S
C1153 C1152 1.386 . S
C1153 C1157 1.393 . S
C1154 H1146 0.950 . S
C1154 C1152 1.391 . S
C1154 C1155 1.400 . S
C1155 C1154 1.400 . S
C1155 C1156 1.398 . S
C1155 C1161 1.491 . S
C1156 H1147 0.950 . S
C1156 C1155 1.398 . S
C1156 C1157 1.391 . S
C1157 H1145 0.950 . S
C1157 C1153 1.393 . S
C1157 C1156 1.391 . S
C1158 H1148 0.950 . S
C1158 C1159 1.386 . S
C1158 C1160 1.391 . S
C1159 C1158 1.386 . S
C1159 C1163 1.393 . S
C1160 H1149 0.950 . S
C1160 C1158 1.391 . S
C1160 C1161 1.400 . S
C1161 C1155 1.491 . S
C1161 C1160 1.400 . S
C1161 C1162 1.398 . S
C1162 H1150 0.950 . S
C1162 C1161 1.398 . S
C1162 C1163 1.391 . S
C1163 H1151 0.950 . S
C1163 C1159 1.393 . S
C1163 C1162 1.391 . S
H1164 C1172 0.950 . S
H1165 C1177 0.950 . S
H1166 C1174 0.950 . S
H1167 C1176 0.950 . S
H1168 C1178 0.950 . S
H1169 C1180 0.950 . S
H1170 C1182 0.950 . S
H1171 C1183 0.950 . S
C1172 H1164 0.950 . S
C1172 C1173 1.386 . S
C1172 C1174 1.391 . S
C1173 C1172 1.386 . S
C1173 C1177 1.393 . S
C1174 H1166 0.950 . S
C1174 C1172 1.391 . S
C1174 C1175 1.400 . S
C1175 C1174 1.400 . S
C1175 C1176 1.398 . S
C1175 C1181 1.491 . S
C1176 H1167 0.950 . S
C1176 C1175 1.398 . S
C1176 C1177 1.391 . S
C1177 H1165 0.950 . S
C1177 C1173 1.393 . S
C1177 C1176 1.391 . S
C1178 H1168 0.950 . S
C1178 C1179 1.386 . S
C1178 C1180 1.391 . S
C1179 C1178 1.386 . S
C1179 C1183 1.393 . S
C1180 H1169 0.950 . S
C1180 C1178 1.391 . S
C1180 C1181 1.400 . S
C1181 C1175 1.491 . S
C1181 C1180 1.400 . S
C1181 C1182 1.398 . S
C1182 H1170 0.950 . S
C1182 C1181 1.398 . S
C1182 C1183 1.391 . S
C1183 H1171 0.950 . S
C1183 C1179 1.393 . S
C1183 C1182 1.391 . S
H1184 C1192 0.950 . S
H1185 C1197 0.950 . S
H1186 C1194 0.950 . S
H1187 C1196 0.950 . S
H1188 C1198 0.950 . S
H1189 C1200 0.950 . S
H1190 C1202 0.950 . S
H1191 C1203 0.950 . S
C1192 H1184 0.950 . S
C1192 C1193 1.386 . S
C1192 C1194 1.391 . S
C1193 C1192 1.386 . S
C1193 C1197 1.393 . S
C1194 H1186 0.950 . S
C1194 C1192 1.391 . S
C1194 C1195 1.400 . S
C1195 C1194 1.400 . S
C1195 C1196 1.398 . S
C1195 C1201 1.491 . S
C1196 H1187 0.950 . S
C1196 C1195 1.398 . S
C1196 C1197 1.391 . S
C1197 H1185 0.950 . S
C1197 C1193 1.393 . S
C1197 C1196 1.391 . S
C1198 H1188 0.950 . S
C1198 C1199 1.386 . S
C1198 C1200 1.391 . S
C1199 C1198 1.386 . S
C1199 C1203 1.393 . S
C1200 H1189 0.950 . S
C1200 C1198 1.391 . S
C1200 C1201 1.400 . S
C1201 C1195 1.491 . S
C1201 C1200 1.400 . S
C1201 C1202 1.398 . S
C1202 H1190 0.950 . S
C1202 C1201 1.398 . S
C1202 C1203 1.391 . S
C1203 H1191 0.950 . S
C1203 C1199 1.393 . S
C1203 C1202 1.391 . S
H1204 C1212 0.950 . S
H1205 C1217 0.950 . S
H1206 C1214 0.950 . S
H1207 C1216 0.950 . S
H1208 C1218 0.950 . S
H1209 C1220 0.950 . S
H1210 C1222 0.950 . S
H1211 C1223 0.950 . S
C1212 H1204 0.950 . S
C1212 C1213 1.386 . S
C1212 C1214 1.391 . S
C1213 C1212 1.386 . S
C1213 C1217 1.393 . S
C1214 H1206 0.950 . S
C1214 C1212 1.391 . S
C1214 C1215 1.400 . S
C1215 C1214 1.400 . S
C1215 C1216 1.398 . S
C1215 C1221 1.491 . S
C1216 H1207 0.950 . S
C1216 C1215 1.398 . S
C1216 C1217 1.391 . S
C1217 H1205 0.950 . S
C1217 C1213 1.393 . S
C1217 C1216 1.391 . S
C1218 H1208 0.950 . S
C1218 C1219 1.386 . S
C1218 C1220 1.391 . S
C1219 C1218 1.386 . S
C1219 C1223 1.393 . S
C1220 H1209 0.950 . S
C1220 C1218 1.391 . S
C1220 C1221 1.400 . S
C1221 C1215 1.491 . S
C1221 C1220 1.400 . S
C1221 C1222 1.398 . S
C1222 H1210 0.950 . S
C1222 C1221 1.398 . S
C1222 C1223 1.391 . S
C1223 H1211 0.950 . S
C1223 C1219 1.393 . S
C1223 C1222 1.391 . S
H1224 C1232 0.950 . S
H1225 C1237 0.950 . S
H1226 C1234 0.950 . S
H1227 C1236 0.950 . S
H1228 C1238 0.950 . S
H1229 C1240 0.950 . S
H1230 C1242 0.950 . S
H1231 C1243 0.950 . S
C1232 H1224 0.950 . S
C1232 C1233 1.386 . S
C1232 C1234 1.391 . S
C1233 C1232 1.386 . S
C1233 C1237 1.393 . S
C1234 H1226 0.950 . S
C1234 C1232 1.391 . S
C1234 C1235 1.400 . S
C1235 C1234 1.400 . S
C1235 C1236 1.398 . S
C1235 C1241 1.491 . S
C1236 H1227 0.950 . S
C1236 C1235 1.398 . S
C1236 C1237 1.391 . S
C1237 H1225 0.950 . S
C1237 C1233 1.393 . S
C1237 C1236 1.391 . S
C1238 H1228 0.950 . S
C1238 C1239 1.386 . S
C1238 C1240 1.391 . S
C1239 C1238 1.386 . S
C1239 C1243 1.393 . S
C1240 H1229 0.950 . S
C1240 C1238 1.391 . S
C1240 C1241 1.400 . S
C1241 C1235 1.491 . S
C1241 C1240 1.400 . S
C1241 C1242 1.398 . S
C1242 H1230 0.950 . S
C1242 C1241 1.398 . S
C1242 C1243 1.391 . S
C1243 H1231 0.950 . S
C1243 C1239 1.393 . S
C1243 C1242 1.391 . S
H1244 C1252 0.950 . S
H1245 C1257 0.950 . S
H1246 C1254 0.950 . S
H1247 C1256 0.950 . S
H1248 C1258 0.950 . S
H1249 C1260 0.950 . S
H1250 C1262 0.950 . S
H1251 C1263 0.950 . S
C1252 H1244 0.950 . S
C1252 C1253 1.386 . S
C1252 C1254 1.391 . S
C1253 C1252 1.386 . S
C1253 C1257 1.393 . S
C1254 H1246 0.950 . S
C1254 C1252 1.391 . S
C1254 C1255 1.400 . S
C1255 C1254 1.400 . S
C1255 C1256 1.398 . S
C1255 C1261 1.491 . S
C1256 H1247 0.950 . S
C1256 C1255 1.398 . S
C1256 C1257 1.391 . S
C1257 H1245 0.950 . S
C1257 C1253 1.393 . S
C1257 C1256 1.391 . S
C1258 H1248 0.950 . S
C1258 C1259 1.386 . S
C1258 C1260 1.391 . S
C1259 C1258 1.386 . S
C1259 C1263 1.393 . S
C1260 H1249 0.950 . S
C1260 C1258 1.391 . S
C1260 C1261 1.400 . S
C1261 C1255 1.491 . S
C1261 C1260 1.400 . S
C1261 C1262 1.398 . S
C1262 H1250 0.950 . S
C1262 C1261 1.398 . S
C1262 C1263 1.391 . S
C1263 H1251 0.950 . S
C1263 C1259 1.393 . S
C1263 C1262 1.391 . S
H1264 C1272 0.950 . S
H1265 C1277 0.950 . S
H1266 C1274 0.950 . S
H1267 C1276 0.950 . S
H1268 C1278 0.950 . S
H1269 C1280 0.950 . S
H1270 C1282 0.950 . S
H1271 C1283 0.950 . S
C1272 H1264 0.950 . S
C1272 C1273 1.386 . S
C1272 C1274 1.391 . S
C1273 C1272 1.386 . S
C1273 C1277 1.393 . S
C1274 H1266 0.950 . S
C1274 C1272 1.391 . S
C1274 C1275 1.400 . S
C1275 C1274 1.400 . S
C1275 C1276 1.398 . S
C1275 C1281 1.491 . S
C1276 H1267 0.950 . S
C1276 C1275 1.398 . S
C1276 C1277 1.391 . S
C1277 H1265 0.950 . S
C1277 C1273 1.393 . S
C1277 C1276 1.391 . S
C1278 H1268 0.950 . S
C1278 C1279 1.386 . S
C1278 C1280 1.391 . S
C1279 C1278 1.386 . S
C1279 C1283 1.393 . S
C1280 H1269 0.950 . S
C1280 C1278 1.391 . S
C1280 C1281 1.400 . S
C1281 C1275 1.491 . S
C1281 C1280 1.400 . S
C1281 C1282 1.398 . S
C1282 H1270 0.950 . S
C1282 C1281 1.398 . S
C1282 C1283 1.391 . S
C1283 H1271 0.950 . S
C1283 C1279 1.393 . S
C1283 C1282 1.391 . S
H1284 C1292 0.950 . S
H1285 C1297 0.950 . S
H1286 C1294 0.950 . S
H1287 C1296 0.950 . S
H1288 C1298 0.950 . S
H1289 C1300 0.950 . S
H1290 C1302 0.950 . S
H1291 C1303 0.950 . S
C1292 H1284 0.950 . S
C1292 C1293 1.386 . S
C1292 C1294 1.391 . S
C1293 C1292 1.386 . S
C1293 C1297 1.393 . S
C1294 H1286 0.950 . S
C1294 C1292 1.391 . S
C1294 C1295 1.400 . S
C1295 C1294 1.400 . S
C1295 C1296 1.398 . S
C1295 C1301 1.491 . S
C1296 H1287 0.950 . S
C1296 C1295 1.398 . S
C1296 C1297 1.391 . S
C1297 H1285 0.950 . S
C1297 C1293 1.393 . S
C1297 C1296 1.391 . S
C1298 H1288 0.950 . S
C1298 C1299 1.386 . S
C1298 C1300 1.391 . S
C1299 C1298 1.386 . S
C1299 C1303 1.393 . S
C1300 H1289 0.950 . S
C1300 C1298 1.391 . S
C1300 C1301 1.400 . S
C1301 C1295 1.491 . S
C1301 C1300 1.400 . S
C1301 C1302 1.398 . S
C1302 H1290 0.950 . S
C1302 C1301 1.398 . S
C1302 C1303 1.391 . S
C1303 H1291 0.950 . S
C1303 C1299 1.393 . S
C1303 C1302 1.391 . S
H1304 C1312 0.950 . S
H1305 C1317 0.950 . S
H1306 C1314 0.950 . S
H1307 C1316 0.950 . S
H1308 C1318 0.950 . S
H1309 C1320 0.950 . S
H1310 C1322 0.950 . S
H1311 C1323 0.950 . S
C1312 H1304 0.950 . S
C1312 C1313 1.386 . S
C1312 C1314 1.391 . S
C1313 C1312 1.386 . S
C1313 C1317 1.393 . S
C1314 H1306 0.950 . S
C1314 C1312 1.391 . S
C1314 C1315 1.400 . S
C1315 C1314 1.400 . S
C1315 C1316 1.398 . S
C1315 C1321 1.491 . S
C1316 H1307 0.950 . S
C1316 C1315 1.398 . S
C1316 C1317 1.391 . S
C1317 H1305 0.950 . S
C1317 C1313 1.393 . S
C1317 C1316 1.391 . S
C1318 H1308 0.950 . S
C1318 C1319 1.386 . S
C1318 C1320 1.391 . S
C1319 C1318 1.386 . S
C1319 C1323 1.393 . S
C1320 H1309 0.950 . S
C1320 C1318 1.391 . S
C1320 C1321 1.400 . S
C1321 C1315 1.491 . S
C1321 C1320 1.400 . S
C1321 C1322 1.398 . S
C1322 H1310 0.950 . S
C1322 C1321 1.398 . S
C1322 C1323 1.391 . S
C1323 H1311 0.950 . S
C1323 C1319 1.393 . S
C1323 C1322 1.391 . S
H1324 C1332 0.950 . S
H1325 C1337 0.950 . S
H1326 C1334 0.950 . S
H1327 C1336 0.950 . S
H1328 C1338 0.950 . S
H1329 C1340 0.950 . S
H1330 C1342 0.950 . S
H1331 C1343 0.950 . S
C1332 H1324 0.950 . S
C1332 C1333 1.386 . S
C1332 C1334 1.391 . S
C1333 C1332 1.386 . S
C1333 C1337 1.393 . S
C1334 H1326 0.950 . S
C1334 C1332 1.391 . S
C1334 C1335 1.400 . S
C1335 C1334 1.400 . S
C1335 C1336 1.398 . S
C1335 C1341 1.491 . S
C1336 H1327 0.950 . S
C1336 C1335 1.398 . S
C1336 C1337 1.391 . S
C1337 H1325 0.950 . S
C1337 C1333 1.393 . S
C1337 C1336 1.391 . S
C1338 H1328 0.950 . S
C1338 C1339 1.386 . S
C1338 C1340 1.391 . S
C1339 C1338 1.386 . S
C1339 C1343 1.393 . S
C1340 H1329 0.950 . S
C1340 C1338 1.391 . S
C1340 C1341 1.400 . S
C1341 C1335 1.491 . S
C1341 C1340 1.400 . S
C1341 C1342 1.398 . S
C1342 H1330 0.950 . S
C1342 C1341 1.398 . S
C1342 C1343 1.391 . S
C1343 H1331 0.950 . S
C1343 C1339 1.393 . S
C1343 C1342 1.391 . S
H1344 C1352 0.950 . S
H1345 C1357 0.950 . S
H1346 C1354 0.950 . S
H1347 C1356 0.950 . S
H1348 C1358 0.950 . S
H1349 C1360 0.950 . S
H1350 C1362 0.950 . S
H1351 C1363 0.950 . S
C1352 H1344 0.950 . S
C1352 C1353 1.386 . S
C1352 C1354 1.391 . S
C1353 C1352 1.386 . S
C1353 C1357 1.393 . S
C1354 H1346 0.950 . S
C1354 C1352 1.391 . S
C1354 C1355 1.400 . S
C1355 C1354 1.400 . S
C1355 C1356 1.398 . S
C1355 C1361 1.491 . S
C1356 H1347 0.950 . S
C1356 C1355 1.398 . S
C1356 C1357 1.391 . S
C1357 H1345 0.950 . S
C1357 C1353 1.393 . S
C1357 C1356 1.391 . S
C1358 H1348 0.950 . S
C1358 C1359 1.386 . S
C1358 C1360 1.391 . S
C1359 C1358 1.386 . S
C1359 C1363 1.393 . S
C1360 H1349 0.950 . S
C1360 C1358 1.391 . S
C1360 C1361 1.400 . S
C1361 C1355 1.491 . S
C1361 C1360 1.400 . S
C1361 C1362 1.398 . S
C1362 H1350 0.950 . S
C1362 C1361 1.398 . S
C1362 C1363 1.391 . S
C1363 H1351 0.950 . S
C1363 C1359 1.393 . S
C1363 C1362 1.391 . S
H1364 C1372 0.950 . S
H1365 C1377 0.950 . S
H1366 C1374 0.950 . S
H1367 C1376 0.950 . S
H1368 C1378 0.950 . S
H1369 C1380 0.950 . S
H1370 C1382 0.950 . S
H1371 C1383 0.950 . S
C1372 H1364 0.950 . S
C1372 C1373 1.386 . S
C1372 C1374 1.391 . S
C1373 C1372 1.386 . S
C1373 C1377 1.393 . S
C1374 H1366 0.950 . S
C1374 C1372 1.391 . S
C1374 C1375 1.400 . S
C1375 C1374 1.400 . S
C1375 C1376 1.398 . S
C1375 C1381 1.491 . S
C1376 H1367 0.950 . S
C1376 C1375 1.398 . S
C1376 C1377 1.391 . S
C1377 H1365 0.950 . S
C1377 C1373 1.393 . S
C1377 C1376 1.391 . S
C1378 H1368 0.950 . S
C1378 C1379 1.386 . S
C1378 C1380 1.391 . S
C1379 C1378 1.386 . S
C1379 C1383 1.393 . S
C1380 H1369 0.950 . S
C1380 C1378 1.391 . S
C1380 C1381 1.400 . S
C1381 C1375 1.491 . S
C1381 C1380 1.400 . S
C1381 C1382 1.398 . S
C1382 H1370 0.950 . S
C1382 C1381 1.398 . S
C1382 C1383 1.391 . S
C1383 H1371 0.950 . S
C1383 C1379 1.393 . S
C1383 C1382 1.391 . S
H1384 C1392 0.950 . S
H1385 C1397 0.950 . S
H1386 C1394 0.950 . S
H1387 C1396 0.950 . S
H1388 C1398 0.950 . S
H1389 C1400 0.950 . S
H1390 C1402 0.950 . S
H1391 C1403 0.950 . S
C1392 H1384 0.950 . S
C1392 C1393 1.386 . S
C1392 C1394 1.391 . S
C1393 C1392 1.386 . S
C1393 C1397 1.393 . S
C1394 H1386 0.950 . S
C1394 C1392 1.391 . S
C1394 C1395 1.400 . S
C1395 C1394 1.400 . S
C1395 C1396 1.398 . S
C1395 C1401 1.491 . S
C1396 H1387 0.950 . S
C1396 C1395 1.398 . S
C1396 C1397 1.391 . S
C1397 H1385 0.950 . S
C1397 C1393 1.393 . S
C1397 C1396 1.391 . S
C1398 H1388 0.950 . S
C1398 C1399 1.386 . S
C1398 C1400 1.391 . S
C1399 C1398 1.386 . S
C1399 C1403 1.393 . S
C1400 H1389 0.950 . S
C1400 C1398 1.391 . S
C1400 C1401 1.400 . S
C1401 C1395 1.491 . S
C1401 C1400 1.400 . S
C1401 C1402 1.398 . S
C1402 H1390 0.950 . S
C1402 C1401 1.398 . S
C1402 C1403 1.391 . S
C1403 H1391 0.950 . S
C1403 C1399 1.393 . S
C1403 C1402 1.391 . S
H1404 C1412 0.950 . S
H1405 C1417 0.950 . S
H1406 C1414 0.950 . S
H1407 C1416 0.950 . S
H1408 C1418 0.950 . S
H1409 C1420 0.950 . S
H1410 C1422 0.950 . S
H1411 C1423 0.950 . S
C1412 H1404 0.950 . S
C1412 C1413 1.386 . S
C1412 C1414 1.391 . S
C1413 C1412 1.386 . S
C1413 C1417 1.393 . S
C1414 H1406 0.950 . S
C1414 C1412 1.391 . S
C1414 C1415 1.400 . S
C1415 C1414 1.400 . S
C1415 C1416 1.398 . S
C1415 C1421 1.491 . S
C1416 H1407 0.950 . S
C1416 C1415 1.398 . S
C1416 C1417 1.391 . S
C1417 H1405 0.950 . S
C1417 C1413 1.393 . S
C1417 C1416 1.391 . S
C1418 H1408 0.950 . S
C1418 C1419 1.386 . S
C1418 C1420 1.391 . S
C1419 C1418 1.386 . S
C1419 C1423 1.393 . S
C1420 H1409 0.950 . S
C1420 C1418 1.391 . S
C1420 C1421 1.400 . S
C1421 C1415 1.491 . S
C1421 C1420 1.400 . S
C1421 C1422 1.398 . S
C1422 H1410 0.950 . S
C1422 C1421 1.398 . S
C1422 C1423 1.391 . S
C1423 H1411 0.950 . S
C1423 C1419 1.393 . S
C1423 C1422 1.391 . S
H1424 C1432 0.950 . S
H1425 C1437 0.950 . S
H1426 C1434 0.950 . S
H1427 C1436 0.950 . S
H1428 C1438 0.950 . S
H1429 C1440 0.950 . S
H1430 C1442 0.950 . S
H1431 C1443 0.950 . S
C1432 H1424 0.950 . S
C1432 C1433 1.386 . S
C1432 C1434 1.391 . S
C1433 C1432 1.386 . S
C1433 C1437 1.393 . S
C1434 H1426 0.950 . S
C1434 C1432 1.391 . S
C1434 C1435 1.400 . S
C1435 C1434 1.400 . S
C1435 C1436 1.398 . S
C1435 C1441 1.491 . S
C1436 H1427 0.950 . S
C1436 C1435 1.398 . S
C1436 C1437 1.391 . S
C1437 H1425 0.950 . S
C1437 C1433 1.393 . S
C1437 C1436 1.391 . S
C1438 H1428 0.950 . S
C1438 C1439 1.386 . S
C1438 C1440 1.391 . S
C1439 C1438 1.386 . S
C1439 C1443 1.393 . S
C1440 H1429 0.950 . S
C1440 C1438 1.391 . S
C1440 C1441 1.400 . S
C1441 C1435 1.491 . S
C1441 C1440 1.400 . S
C1441 C1442 1.398 . S
C1442 H1430 0.950 . S
C1442 C1441 1.398 . S
C1442 C1443 1.391 . S
C1443 H1431 0.950 . S
C1443 C1439 1.393 . S
C1443 C1442 1.391 . S
H1444 C1452 0.950 . S
H1445 C1457 0.950 . S
H1446 C1454 0.950 . S
H1447 C1456 0.950 . S
H1448 C1458 0.950 . S
H1449 C1460 0.950 . S
H1450 C1462 0.950 . S
H1451 C1463 0.950 . S
C1452 H1444 0.950 . S
C1452 C1453 1.386 . S
C1452 C1454 1.391 . S
C1453 C1452 1.386 . S
C1453 C1457 1.393 . S
C1454 H1446 0.950 . S
C1454 C1452 1.391 . S
C1454 C1455 1.400 . S
C1455 C1454 1.400 . S
C1455 C1456 1.398 . S
C1455 C1461 1.491 . S
C1456 H1447 0.950 . S
C1456 C1455 1.398 . S
C1456 C1457 1.391 . S
C1457 H1445 0.950 . S
C1457 C1453 1.393 . S
C1457 C1456 1.391 . S
C1458 H1448 0.950 . S
C1458 C1459 1.386 . S
C1458 C1460 1.391 . S
C1459 C1458 1.386 . S
C1459 C1463 1.393 . S
C1460 H1449 0.950 . S
C1460 C1458 1.391 . S
C1460 C1461 1.400 . S
C1461 C1455 1.491 . S
C1461 C1460 1.400 . S
C1461 C1462 1.398 . S
C1462 H1450 0.950 . S
C1462 C1461 1.398 . S
C1462 C1463 1.391 . S
C1463 H1451 0.950 . S
C1463 C1459 1.393 . S
C1463 C1462 1.391 . S
H1464 C1472 0.950 . S
H1465 C1477 0.950 . S
H1466 C1474 0.950 . S
H1467 C1476 0.950 . S
H1468 C1478 0.950 . S
H1469 C1480 0.950 . S
H1470 C1482 0.950 . S
H1471 C1483 0.950 . S
C1472 H1464 0.950 . S
C1472 C1473 1.386 . S
C1472 C1474 1.391 . S
C1473 C1472 1.386 . S
C1473 C1477 1.393 . S
C1474 H1466 0.950 . S
C1474 C1472 1.391 . S
C1474 C1475 1.400 . S
C1475 C1474 1.400 . S
C1475 C1476 1.398 . S
C1475 C1481 1.491 . S
C1476 H1467 0.950 . S
C1476 C1475 1.398 . S
C1476 C1477 1.391 . S
C1477 H1465 0.950 . S
C1477 C1473 1.393 . S
C1477 C1476 1.391 . S
C1478 H1468 0.950 . S
C1478 C1479 1.386 . S
C1478 C1480 1.391 . S
C1479 C1478 1.386 . S
C1479 C1483 1.393 . S
C1480 H1469 0.950 . S
C1480 C1478 1.391 . S
C1480 C1481 1.400 . S
C1481 C1475 1.491 . S
C1481 C1480 1.400 . S
C1481 C1482 1.398 . S
C1482 H1470 0.950 . S
C1482 C1481 1.398 . S
C1482 C1483 1.391 . S
C1483 H1471 0.950 . S
C1483 C1479 1.393 . S
C1483 C1482 1.391 . S
H1484 C1492 0.950 . S
H1485 C1497 0.950 . S
H1486 C1494 0.950 . S
H1487 C1496 0.950 . S
H1488 C1498 0.950 . S
H1489 C1500 0.950 . S
H1490 C1502 0.950 . S
H1491 C1503 0.950 . S
C1492 H1484 0.950 . S
C1492 C1493 1.386 . S
C1492 C1494 1.391 . S
C1493 C1492 1.386 . S
C1493 C1497 1.393 . S
C1494 H1486 0.950 . S
C1494 C1492 1.391 . S
C1494 C1495 1.400 . S
C1495 C1494 1.400 . S
C1495 C1496 1.398 . S
C1495 C1501 1.491 . S
C1496 H1487 0.950 . S
C1496 C1495 1.398 . S
C1496 C1497 1.391 . S
C1497 H1485 0.950 . S
C1497 C1493 1.393 . S
C1497 C1496 1.391 . S
C1498 H1488 0.950 . S
C1498 C1499 1.386 . S
C1498 C1500 1.391 . S
C1499 C1498 1.386 . S
C1499 C1503 1.393 . S
C1500 H1489 0.950 . S
C1500 C1498 1.391 . S
C1500 C1501 1.400 . S
C1501 C1495 1.491 . S
C1501 C1500 1.400 . S
C1501 C1502 1.398 . S
C1502 H1490 0.950 . S
C1502 C1501 1.398 . S
C1502 C1503 1.391 . S
C1503 H1491 0.950 . S
C1503 C1499 1.393 . S
C1503 C1502 1.391 . S
H1504 C1512 0.950 . S
H1505 C1517 0.950 . S
H1506 C1514 0.950 . S
H1507 C1516 0.950 . S
H1508 C1518 0.950 . S
H1509 C1520 0.950 . S
H1510 C1522 0.950 . S
H1511 C1523 0.950 . S
C1512 H1504 0.950 . S
C1512 C1513 1.386 . S
C1512 C1514 1.391 . S
C1513 C1512 1.386 . S
C1513 C1517 1.393 . S
C1514 H1506 0.950 . S
C1514 C1512 1.391 . S
C1514 C1515 1.400 . S
C1515 C1514 1.400 . S
C1515 C1516 1.398 . S
C1515 C1521 1.491 . S
C1516 H1507 0.950 . S
C1516 C1515 1.398 . S
C1516 C1517 1.391 . S
C1517 H1505 0.950 . S
C1517 C1513 1.393 . S
C1517 C1516 1.391 . S
C1518 H1508 0.950 . S
C1518 C1519 1.386 . S
C1518 C1520 1.391 . S
C1519 C1518 1.386 . S
C1519 C1523 1.393 . S
C1520 H1509 0.950 . S
C1520 C1518 1.391 . S
C1520 C1521 1.400 . S
C1521 C1515 1.491 . S
C1521 C1520 1.400 . S
C1521 C1522 1.398 . S
C1522 H1510 0.950 . S
C1522 C1521 1.398 . S
C1522 C1523 1.391 . S
C1523 H1511 0.950 . S
C1523 C1519 1.393 . S
C1523 C1522 1.391 . S
H1524 C1532 0.950 . S
H1525 C1537 0.950 . S
H1526 C1534 0.950 . S
H1527 C1536 0.950 . S
H1528 C1538 0.950 . S
H1529 C1540 0.950 . S
H1530 C1542 0.950 . S
H1531 C1543 0.950 . S
C1532 H1524 0.950 . S
C1532 C1533 1.386 . S
C1532 C1534 1.391 . S
C1533 C1532 1.386 . S
C1533 C1537 1.393 . S
C1534 H1526 0.950 . S
C1534 C1532 1.391 . S
C1534 C1535 1.400 . S
C1535 C1534 1.400 . S
C1535 C1536 1.398 . S
C1535 C1541 1.491 . S
C1536 H1527 0.950 . S
C1536 C1535 1.398 . S
C1536 C1537 1.391 . S
C1537 H1525 0.950 . S
C1537 C1533 1.393 . S
C1537 C1536 1.391 . S
C1538 H1528 0.950 . S
C1538 C1539 1.386 . S
C1538 C1540 1.391 . S
C1539 C1538 1.386 . S
C1539 C1543 1.393 . S
C1540 H1529 0.950 . S
C1540 C1538 1.391 . S
C1540 C1541 1.400 . S
C1541 C1535 1.491 . S
C1541 C1540 1.400 . S
C1541 C1542 1.398 . S
C1542 H1530 0.950 . S
C1542 C1541 1.398 . S
C1542 C1543 1.391 . S
C1543 H1531 0.950 . S
C1543 C1539 1.393 . S
C1543 C1542 1.391 . S
H1544 C1552 0.950 . S
H1545 C1557 0.950 . S
H1546 C1554 0.950 . S
H1547 C1556 0.950 . S
H1548 C1558 0.950 . S
H1549 C1560 0.950 . S
H1550 C1562 0.950 . S
H1551 C1563 0.950 . S
C1552 H1544 0.950 . S
C1552 C1553 1.386 . S
C1552 C1554 1.391 . S
C1553 C1552 1.386 . S
C1553 C1557 1.393 . S
C1554 H1546 0.950 . S
C1554 C1552 1.391 . S
C1554 C1555 1.400 . S
C1555 C1554 1.400 . S
C1555 C1556 1.398 . S
C1555 C1561 1.491 . S
C1556 H1547 0.950 . S
C1556 C1555 1.398 . S
C1556 C1557 1.391 . S
C1557 H1545 0.950 . S
C1557 C1553 1.393 . S
C1557 C1556 1.391 . S
C1558 H1548 0.950 . S
C1558 C1559 1.386 . S
C1558 C1560 1.391 . S
C1559 C1558 1.386 . S
C1559 C1563 1.393 . S
C1560 H1549 0.950 . S
C1560 C1558 1.391 . S
C1560 C1561 1.400 . S
C1561 C1555 1.491 . S
C1561 C1560 1.400 . S
C1561 C1562 1.398 . S
C1562 H1550 0.950 . S
C1562 C1561 1.398 . S
C1562 C1563 1.391 . S
C1563 H1551 0.950 . S
C1563 C1559 1.393 . S
C1563 C1562 1.391 . S
H1564 C1572 0.950 . S
H1565 C1577 0.950 . S
H1566 C1574 0.950 . S
H1567 C1576 0.950 . S
H1568 C1578 0.950 . S
H1569 C1580 0.950 . S
H1570 C1582 0.950 . S
H1571 C1583 0.950 . S
C1572 H1564 0.950 . S
C1572 C1573 1.386 . S
C1572 C1574 1.391 . S
C1573 C1572 1.386 . S
C1573 C1577 1.393 . S
C1574 H1566 0.950 . S
C1574 C1572 1.391 . S
C1574 C1575 1.400 . S
C1575 C1574 1.400 . S
C1575 C1576 1.398 . S
C1575 C1581 1.491 . S
C1576 H1567 0.950 . S
C1576 C1575 1.398 . S
C1576 C1577 1.391 . S
C1577 H1565 0.950 . S
C1577 C1573 1.393 . S
C1577 C1576 1.391 . S
C1578 H1568 0.950 . S
C1578 C1579 1.386 . S
C1578 C1580 1.391 . S
C1579 C1578 1.386 . S
C1579 C1583 1.393 . S
C1580 H1569 0.950 . S
C1580 C1578 1.391 . S
C1580 C1581 1.400 . S
C1581 C1575 1.491 . S
C1581 C1580 1.400 . S
C1581 C1582 1.398 . S
C1582 H1570 0.950 . S
C1582 C1581 1.398 . S
C1582 C1583 1.391 . S
C1583 H1571 0.950 . S
C1583 C1579 1.393 . S
C1583 C1582 1.391 . S
H1584 C1592 0.950 . S
H1585 C1597 0.950 . S
H1586 C1594 0.950 . S
H1587 C1596 0.950 . S
H1588 C1598 0.950 . S
H1589 C1600 0.950 . S
H1590 C1602 0.950 . S
H1591 C1603 0.950 . S
C1592 H1584 0.950 . S
C1592 C1593 1.386 . S
C1592 C1594 1.391 . S
C1593 C1592 1.386 . S
C1593 C1597 1.393 . S
C1594 H1586 0.950 . S
C1594 C1592 1.391 . S
C1594 C1595 1.400 . S
C1595 C1594 1.400 . S
C1595 C1596 1.398 . S
C1595 C1601 1.491 . S
C1596 H1587 0.950 . S
C1596 C1595 1.398 . S
C1596 C1597 1.391 . S
C1597 H1585 0.950 . S
C1597 C1593 1.393 . S
C1597 C1596 1.391 . S
C1598 H1588 0.950 . S
C1598 C1599 1.386 . S
C1598 C1600 1.391 . S
C1599 C1598 1.386 . S
C1599 C1603 1.393 . S
C1600 H1589 0.950 . S
C1600 C1598 1.391 . S
C1600 C1601 1.400 . S
C1601 C1595 1.491 . S
C1601 C1600 1.400 . S
C1601 C1602 1.398 . S
C1602 H1590 0.950 . S
C1602 C1601 1.398 . S
C1602 C1603 1.391 . S
C1603 H1591 0.950 . S
C1603 C1599 1.393 . S
C1603 C1602 1.391 . S
H1604 C1612 0.950 . S
H1605 C1617 0.950 . S
H1606 C1614 0.950 . S
H1607 C1616 0.950 . S
H1608 C1618 0.950 . S
H1609 C1620 0.950 . S
H1610 C1622 0.950 . S
H1611 C1623 0.950 . S
C1612 H1604 0.950 . S
C1612 C1613 1.386 . S
C1612 C1614 1.391 . S
C1613 C1612 1.386 . S
C1613 C1617 1.393 . S
C1614 H1606 0.950 . S
C1614 C1612 1.391 . S
C1614 C1615 1.400 . S
C1615 C1614 1.400 . S
C1615 C1616 1.398 . S
C1615 C1621 1.491 . S
C1616 H1607 0.950 . S
C1616 C1615 1.398 . S
C1616 C1617 1.391 . S
C1617 H1605 0.950 . S
C1617 C1613 1.393 . S
C1617 C1616 1.391 . S
C1618 H1608 0.950 . S
C1618 C1619 1.386 . S
C1618 C1620 1.391 . S
C1619 C1618 1.386 . S
C1619 C1623 1.393 . S
C1620 H1609 0.950 . S
C1620 C1618 1.391 . S
C1620 C1621 1.400 . S
C1621 C1615 1.491 . S
C1621 C1620 1.400 . S
C1621 C1622 1.398 . S
C1622 H1610 0.950 . S
C1622 C1621 1.398 . S
C1622 C1623 1.391 . S
C1623 H1611 0.950 . S
C1623 C1619 1.393 . S
C1623 C1622 1.391 . S
H1624 C1632 0.950 . S
H1625 C1637 0.950 . S
H1626 C1634 0.950 . S
H1627 C1636 0.950 . S
H1628 C1638 0.950 . S
H1629 C1640 0.950 . S
H1630 C1642 0.950 . S
H1631 C1643 0.950 . S
C1632 H1624 0.950 . S
C1632 C1633 1.386 . S
C1632 C1634 1.391 . S
C1633 C1632 1.386 . S
C1633 C1637 1.393 . S
C1634 H1626 0.950 . S
C1634 C1632 1.391 . S
C1634 C1635 1.400 . S
C1635 C1634 1.400 . S
C1635 C1636 1.398 . S
C1635 C1641 1.491 . S
C1636 H1627 0.950 . S
C1636 C1635 1.398 . S
C1636 C1637 1.391 . S
C1637 H1625 0.950 . S
C1637 C1633 1.393 . S
C1637 C1636 1.391 . S
C1638 H1628 0.950 . S
C1638 C1639 1.386 . S
C1638 C1640 1.391 . S
C1639 C1638 1.386 . S
C1639 C1643 1.393 . S
C1640 H1629 0.950 . S
C1640 C1638 1.391 . S
C1640 C1641 1.400 . S
C1641 C1635 1.491 . S
C1641 C1640 1.400 . S
C1641 C1642 1.398 . S
C1642 H1630 0.950 . S
C1642 C1641 1.398 . S
C1642 C1643 1.391 . S
C1643 H1631 0.950 . S
C1643 C1639 1.393 . S
C1643 C1642 1.391 . S
H1644 C1652 0.950 . S
H1645 C1657 0.950 . S
H1646 C1654 0.950 . S
H1647 C1656 0.950 . S
H1648 C1658 0.950 . S
H1649 C1660 0.950 . S
H1650 C1662 0.950 . S
H1651 C1663 0.950 . S
C1652 H1644 0.950 . S
C1652 C1653 1.386 . S
C1652 C1654 1.391 . S
C1653 C1652 1.386 . S
C1653 C1657 1.393 . S
C1654 H1646 0.950 . S
C1654 C1652 1.391 . S
C1654 C1655 1.400 . S
C1655 C1654 1.400 . S
C1655 C1656 1.398 . S
C1655 C1661 1.491 . S
C1656 H1647 0.950 . S
C1656 C1655 1.398 . S
C1656 C1657 1.391 . S
C1657 H1645 0.950 . S
C1657 C1653 1.393 . S
C1657 C1656 1.391 . S
C1658 H1648 0.950 . S
C1658 C1659 1.386 . S
C1658 C1660 1.391 . S
C1659 C1658 1.386 . S
C1659 C1663 1.393 . S
C1660 H1649 0.950 . S
C1660 C1658 1.391 . S
C1660 C1661 1.400 . S
C1661 C1655 1.491 . S
C1661 C1660 1.400 . S
C1661 C1662 1.398 . S
C1662 H1650 0.950 . S
C1662 C1661 1.398 . S
C1662 C1663 1.391 . S
C1663 H1651 0.950 . S
C1663 C1659 1.393 . S
C1663 C1662 1.391 . S
H1664 C1672 0.950 . S
H1665 C1677 0.950 . S
H1666 C1674 0.950 . S
H1667 C1676 0.950 . S
H1668 C1678 0.950 . S
H1669 C1680 0.950 . S
H1670 C1682 0.950 . S
H1671 C1683 0.950 . S
C1672 H1664 0.950 . S
C1672 C1673 1.386 . S
C1672 C1674 1.391 . S
C1673 C1672 1.386 . S
C1673 C1677 1.393 . S
C1674 H1666 0.950 . S
C1674 C1672 1.391 . S
C1674 C1675 1.400 . S
C1675 C1674 1.400 . S
C1675 C1676 1.398 . S
C1675 C1681 1.491 . S
C1676 H1667 0.950 . S
C1676 C1675 1.398 . S
C1676 C1677 1.391 . S
C1677 H1665 0.950 . S
C1677 C1673 1.393 . S
C1677 C1676 1.391 . S
C1678 H1668 0.950 . S
C1678 C1679 1.386 . S
C1678 C1680 1.391 . S
C1679 C1678 1.386 . S
C1679 C1683 1.393 . S
C1680 H1669 0.950 . S
C1680 C1678 1.391 . S
C1680 C1681 1.400 . S
C1681 C1675 1.491 . S
C1681 C1680 1.400 . S
C1681 C1682 1.398 . S
C1682 H1670 0.950 . S
C1682 C1681 1.398 . S
C1682 C1683 1.391 . S
C1683 H1671 0.950 . S
C1683 C1679 1.393 . S
C1683 C1682 1.391 . S
H1684 C1692 0.950 . S
H1685 C1697 0.950 . S
H1686 C1694 0.950 . S
H1687 C1696 0.950 . S
H1688 C1698 0.950 . S
H1689 C1700 0.950 . S
H1690 C1702 0.950 . S
H1691 C1703 0.950 . S
C1692 H1684 0.950 . S
C1692 C1693 1.386 . S
C1692 C1694 1.391 . S
C1693 C1692 1.386 . S
C1693 C1697 1.393 . S
C1694 H1686 0.950 . S
C1694 C1692 1.391 . S
C1694 C1695 1.400 . S
C1695 C1694 1.400 . S
C1695 C1696 1.398 . S
C1695 C1701 1.491 . S
C1696 H1687 0.950 . S
C1696 C1695 1.398 . S
C1696 C1697 1.391 . S
C1697 H1685 0.950 . S
C1697 C1693 1.393 . S
C1697 C1696 1.391 . S
C1698 H1688 0.950 . S
C1698 C1699 1.386 . S
C1698 C1700 1.391 . S
C1699 C1698 1.386 . S
C1699 C1703 1.393 . S
C1700 H1689 0.950 . S
C1700 C1698 1.391 . S
C1700 C1701 1.400 . S
C1701 C1695 1.491 . S
C1701 C1700 1.400 . S
C1701 C1702 1.398 . S
C1702 H1690 0.950 . S
C1702 C1701 1.398 . S
C1702 C1703 1.391 . S
C1703 H1691 0.950 . S
C1703 C1699 1.393 . S
C1703 C1702 1.391 . S
H1704 C1712 0.950 . S
H1705 C1717 0.950 . S
H1706 C1714 0.950 . S
H1707 C1716 0.950 . S
H1708 C1718 0.950 . S
H1709 C1720 0.950 . S
H1710 C1722 0.950 . S
H1711 C1723 0.950 . S
C1712 H1704 0.950 . S
C1712 C1713 1.386 . S
C1712 C1714 1.391 . S
C1713 C1712 1.386 . S
C1713 C1717 1.393 . S
C1714 H1706 0.950 . S
C1714 C1712 1.391 . S
C1714 C1715 1.400 . S
C1715 C1714 1.400 . S
C1715 C1716 1.398 . S
C1715 C1721 1.491 . S
C1716 H1707 0.950 . S
C1716 C1715 1.398 . S
C1716 C1717 1.391 . S
C1717 H1705 0.950 . S
C1717 C1713 1.393 . S
C1717 C1716 1.391 . S
C1718 H1708 0.950 . S
C1718 C1719 1.386 . S
C1718 C1720 1.391 . S
C1719 C1718 1.386 . S
C1719 C1723 1.393 . S
C1720 H1709 0.950 . S
C1720 C1718 1.391 . S
C1720 C1721 1.400 . S
C1721 C1715 1.491 . S
C1721 C1720 1.400 . S
C1721 C1722 1.398 . S
C1722 H1710 0.950 . S
C1722 C1721 1.398 . S
C1722 C1723 1.391 . S
C1723 H1711 0.950 . S
C1723 C1719 1.393 . S
C1723 C1722 1.391 . S
H1724 C1732 0.950 . S
H1725 C1737 0.950 . S
H1726 C1734 0.950 . S
H1727 C1736 0.950 . S
H1728 C1738 0.950 . S
H1729 C1740 0.950 . S
H1730 C1742 0.950 . S
H1731 C1743 0.950 . S
C1732 H1724 0.950 . S
C1732 C1733 1.386 . S
C1732 C1734 1.391 . S
C1733 C1732 1.386 . S
C1733 C1737 1.393 . S
C1734 H1726 0.950 . S
C1734 C1732 1.391 . S
C1734 C1735 1.400 . S
C1735 C1734 1.400 . S
C1735 C1736 1.398 . S
C1735 C1741 1.491 . S
C1736 H1727 0.950 . S
C1736 C1735 1.398 . S
C1736 C1737 1.391 . S
C1737 H1725 0.950 . S
C1737 C1733 1.393 . S
C1737 C1736 1.391 . S
C1738 H1728 0.950 . S
C1738 C1739 1.386 . S
C1738 C1740 1.391 . S
C1739 C1738 1.386 . S
C1739 C1743 1.393 . S
C1740 H1729 0.950 . S
C1740 C1738 1.391 . S
C1740 C1741 1.400 . S
C1741 C1735 1.491 . S
C1741 C1740 1.400 . S
C1741 C1742 1.398 . S
C1742 H1730 0.950 . S
C1742 C1741 1.398 . S
C1742 C1743 1.391 . S
C1743 H1731 0.950 . S
C1743 C1739 1.393 . S
C1743 C1742 1.391 . S
H1744 C1752 0.950 . S
H1745 C1757 0.950 . S
H1746 C1754 0.950 . S
H1747 C1756 0.950 . S
H1748 C1758 0.950 . S
H1749 C1760 0.950 . S
H1750 C1762 0.950 . S
H1751 C1763 0.950 . S
C1752 H1744 0.950 . S
C1752 C1753 1.386 . S
C1752 C1754 1.391 . S
C1753 C1752 1.386 . S
C1753 C1757 1.393 . S
C1754 H1746 0.950 . S
C1754 C1752 1.391 . S
C1754 C1755 1.400 . S
C1755 C1754 1.400 . S
C1755 C1756 1.398 . S
C1755 C1761 1.491 . S
C1756 H1747 0.950 . S
C1756 C1755 1.398 . S
C1756 C1757 1.391 . S
C1757 H1745 0.950 . S
C1757 C1753 1.393 . S
C1757 C1756 1.391 . S
C1758 H1748 0.950 . S
C1758 C1759 1.386 . S
C1758 C1760 1.391 . S
C1759 C1758 1.386 . S
C1759 C1763 1.393 . S
C1760 H1749 0.950 . S
C1760 C1758 1.391 . S
C1760 C1761 1.400 . S
C1761 C1755 1.491 . S
C1761 C1760 1.400 . S
C1761 C1762 1.398 . S
C1762 H1750 0.950 . S
C1762 C1761 1.398 . S
C1762 C1763 1.391 . S
C1763 H1751 0.950 . S
C1763 C1759 1.393 . S
C1763 C1762 1.391 . S
H1764 C1772 0.950 . S
H1765 C1777 0.950 . S
H1766 C1774 0.950 . S
H1767 C1776 0.950 . S
H1768 C1778 0.950 . S
H1769 C1780 0.950 . S
H1770 C1782 0.950 . S
H1771 C1783 0.950 . S
C1772 H1764 0.950 . S
C1772 C1773 1.386 . S
C1772 C1774 1.391 . S
C1773 C1772 1.386 . S
C1773 C1777 1.393 . S
C1774 H1766 0.950 . S
C1774 C1772 1.391 . S
C1774 C1775 1.400 . S
C1775 C1774 1.400 . S
C1775 C1776 1.398 . S
C1775 C1781 1.491 . S
C1776 H1767 0.950 . S
C1776 C1775 1.398 . S
C1776 C1777 1.391 . S
C1777 H1765 0.950 . S
C1777 C1773 1.393 . S
C1777 C1776 1.391 . S
C1778 H1768 0.950 . S
C1778 C1779 1.386 . S
C1778 C1780 1.391 . S
C1779 C1778 1.386 . S
C1779 C1783 1.393 . S
C1780 H1769 0.950 . S
C1780 C1778 1.391 . S
C1780 C1781 1.400 . S
C1781 C1775 1.491 . S
C1781 C1780 1.400 . S
C1781 C1782 1.398 . S
C1782 H1770 0.950 . S
C1782 C1781 1.398 . S
C1782 C1783 1.391 . S
C1783 H1771 0.950 . S
C1783 C1779 1.393 . S
C1783 C1782 1.391 . S
H1784 C1792 0.950 . S
H1785 C1797 0.950 . S
H1786 C1794 0.950 . S
H1787 C1796 0.950 . S
H1788 C1798 0.950 . S
H1789 C1800 0.950 . S
H1790 C1802 0.950 . S
H1791 C1803 0.950 . S
C1792 H1784 0.950 . S
C1792 C1793 1.386 . S
C1792 C1794 1.391 . S
C1793 C1792 1.386 . S
C1793 C1797 1.393 . S
C1794 H1786 0.950 . S
C1794 C1792 1.391 . S
C1794 C1795 1.400 . S
C1795 C1794 1.400 . S
C1795 C1796 1.398 . S
C1795 C1801 1.491 . S
C1796 H1787 0.950 . S
C1796 C1795 1.398 . S
C1796 C1797 1.391 . S
C1797 H1785 0.950 . S
C1797 C1793 1.393 . S
C1797 C1796 1.391 . S
C1798 H1788 0.950 . S
C1798 C1799 1.386 . S
C1798 C1800 1.391 . S
C1799 C1798 1.386 . S
C1799 C1803 1.393 . S
C1800 H1789 0.950 . S
C1800 C1798 1.391 . S
C1800 C1801 1.400 . S
C1801 C1795 1.491 . S
C1801 C1800 1.400 . S
C1801 C1802 1.398 . S
C1802 H1790 0.950 . S
C1802 C1801 1.398 . S
C1802 C1803 1.391 . S
C1803 H1791 0.950 . S
C1803 C1799 1.393 . S
C1803 C1802 1.391 . S
H1804 C1812 0.950 . S
H1805 C1817 0.950 . S
H1806 C1814 0.950 . S
H1807 C1816 0.950 . S
H1808 C1818 0.950 . S
H1809 C1820 0.950 . S
H1810 C1822 0.950 . S
H1811 C1823 0.950 . S
C1812 H1804 0.950 . S
C1812 C1813 1.386 . S
C1812 C1814 1.391 . S
C1813 C1812 1.386 . S
C1813 C1817 1.393 . S
C1814 H1806 0.950 . S
C1814 C1812 1.391 . S
C1814 C1815 1.400 . S
C1815 C1814 1.400 . S
C1815 C1816 1.398 . S
C1815 C1821 1.491 . S
C1816 H1807 0.950 . S
C1816 C1815 1.398 . S
C1816 C1817 1.391 . S
C1817 H1805 0.950 . S
C1817 C1813 1.393 . S
C1817 C1816 1.391 . S
C1818 H1808 0.950 . S
C1818 C1819 1.386 . S
C1818 C1820 1.391 . S
C1819 C1818 1.386 . S
C1819 C1823 1.393 . S
C1820 H1809 0.950 . S
C1820 C1818 1.391 . S
C1820 C1821 1.400 . S
C1821 C1815 1.491 . S
C1821 C1820 1.400 . S
C1821 C1822 1.398 . S
C1822 H1810 0.950 . S
C1822 C1821 1.398 . S
C1822 C1823 1.391 . S
C1823 H1811 0.950 . S
C1823 C1819 1.393 . S
C1823 C1822 1.391 . S
H1824 C1832 0.950 . S
H1825 C1837 0.950 . S
H1826 C1834 0.950 . S
H1827 C1836 0.950 . S
H1828 C1838 0.950 . S
H1829 C1840 0.950 . S
H1830 C1842 0.950 . S
H1831 C1843 0.950 . S
C1832 H1824 0.950 . S
C1832 C1833 1.386 . S
C1832 C1834 1.391 . S
C1833 C1832 1.386 . S
C1833 C1837 1.393 . S
C1834 H1826 0.950 . S
C1834 C1832 1.391 . S
C1834 C1835 1.400 . S
C1835 C1834 1.400 . S
C1835 C1836 1.398 . S
C1835 C1841 1.491 . S
C1836 H1827 0.950 . S
C1836 C1835 1.398 . S
C1836 C1837 1.391 . S
C1837 H1825 0.950 . S
C1837 C1833 1.393 . S
C1837 C1836 1.391 . S
C1838 H1828 0.950 . S
C1838 C1839 1.386 . S
C1838 C1840 1.391 . S
C1839 C1838 1.386 . S
C1839 C1843 1.393 . S
C1840 H1829 0.950 . S
C1840 C1838 1.391 . S
C1840 C1841 1.400 . S
C1841 C1835 1.491 . S
C1841 C1840 1.400 . S
C1841 C1842 1.398 . S
C1842 H1830 0.950 . S
C1842 C1841 1.398 . S
C1842 C1843 1.391 . S
C1843 H1831 0.950 . S
C1843 C1839 1.393 . S
C1843 C1842 1.391 . S
H1844 C1852 0.950 . S
H1845 C1857 0.950 . S
H1846 C1854 0.950 . S
H1847 C1856 0.950 . S
H1848 C1858 0.950 . S
H1849 C1860 0.950 . S
H1850 C1862 0.950 . S
H1851 C1863 0.950 . S
C1852 H1844 0.950 . S
C1852 C1853 1.386 . S
C1852 C1854 1.391 . S
C1853 C1852 1.386 . S
C1853 C1857 1.393 . S
C1854 H1846 0.950 . S
C1854 C1852 1.391 . S
C1854 C1855 1.400 . S
C1855 C1854 1.400 . S
C1855 C1856 1.398 . S
C1855 C1861 1.491 . S
C1856 H1847 0.950 . S
C1856 C1855 1.398 . S
C1856 C1857 1.391 . S
C1857 H1845 0.950 . S
C1857 C1853 1.393 . S
C1857 C1856 1.391 . S
C1858 H1848 0.950 . S
C1858 C1859 1.386 . S
C1858 C1860 1.391 . S
C1859 C1858 1.386 . S
C1859 C1863 1.393 . S
C1860 H1849 0.950 . S
C1860 C1858 1.391 . S
C1860 C1861 1.400 . S
C1861 C1855 1.491 . S
C1861 C1860 1.400 . S
C1861 C1862 1.398 . S
C1862 H1850 0.950 . S
C1862 C1861 1.398 . S
C1862 C1863 1.391 . S
C1863 H1851 0.950 . S
C1863 C1859 1.393 . S
C1863 C1862 1.391 . S
H1864 C1872 0.950 . S
H1865 C1877 0.950 . S
H1866 C1874 0.950 . S
H1867 C1876 0.950 . S
H1868 C1878 0.950 . S
H1869 C1880 0.950 . S
H1870 C1882 0.950 . S
H1871 C1883 0.950 . S
C1872 H1864 0.950 . S
C1872 C1873 1.386 . S
C1872 C1874 1.391 . S
C1873 C1872 1.386 . S
C1873 C1877 1.393 . S
C1874 H1866 0.950 . S
C1874 C1872 1.391 . S
C1874 C1875 1.400 . S
C1875 C1874 1.400 . S
C1875 C1876 1.398 . S
C1875 C1881 1.491 . S
C1876 H1867 0.950 . S
C1876 C1875 1.398 . S
C1876 C1877 1.391 . S
C1877 H1865 0.950 . S
C1877 C1873 1.393 . S
C1877 C1876 1.391 . S
C1878 H1868 0.950 . S
C1878 C1879 1.386 . S
C1878 C1880 1.391 . S
C1879 C1878 1.386 . S
C1879 C1883 1.393 . S
C1880 H1869 0.950 . S
C1880 C1878 1.391 . S
C1880 C1881 1.400 . S
C1881 C1875 1.491 . S
C1881 C1880 1.400 . S
C1881 C1882 1.398 . S
C1882 H1870 0.950 . S
C1882 C1881 1.398 . S
C1882 C1883 1.391 . S
C1883 H1871 0.950 . S
C1883 C1879 1.393 . S
C1883 C1882 1.391 . S
H1884 C1892 0.950 . S
H1885 C1897 0.950 . S
H1886 C1894 0.950 . S
H1887 C1896 0.950 . S
H1888 C1898 0.950 . S
H1889 C1900 0.950 . S
H1890 C1902 0.950 . S
H1891 C1903 0.950 . S
C1892 H1884 0.950 . S
C1892 C1893 1.386 . S
C1892 C1894 1.391 . S
C1893 C1892 1.386 . S
C1893 C1897 1.393 . S
C1894 H1886 0.950 . S
C1894 C1892 1.391 . S
C1894 C1895 1.400 . S
C1895 C1894 1.400 . S
C1895 C1896 1.398 . S
C1895 C1901 1.491 . S
C1896 H1887 0.950 . S
C1896 C1895 1.398 . S
C1896 C1897 1.391 . S
C1897 H1885 0.950 . S
C1897 C1893 1.393 . S
C1897 C1896 1.391 . S
C1898 H1888 0.950 . S
C1898 C1899 1.386 . S
C1898 C1900 1.391 . S
C1899 C1898 1.386 . S
C1899 C1903 1.393 . S
C1900 H1889 0.950 . S
C1900 C1898 1.391 . S
C1900 C1901 1.400 . S
C1901 C1895 1.491 . S
C1901 C1900 1.400 . S
C1901 C1902 1.398 . S
C1902 H1890 0.950 . S
C1902 C1901 1.398 . S
C1902 C1903 1.391 . S
C1903 H1891 0.950 . S
C1903 C1899 1.393 . S
C1903 C1902 1.391 . S
H1904 C1912 0.950 . S
H1905 C1917 0.950 . S
H1906 C1914 0.950 . S
H1907 C1916 0.950 . S
H1908 C1918 0.950 . S
H1909 C1920 0.950 . S
H1910 C1922 0.950 . S
H1911 C1923 0.950 . S
C1912 H1904 0.950 . S
C1912 C1913 1.386 . S
C1912 C1914 1.391 . S
C1913 C1912 1.386 . S
C1913 C1917 1.393 . S
C1914 H1906 0.950 . S
C1914 C1912 1.391 . S
C1914 C1915 1.400 . S
C1915 C1914 1.400 . S
C1915 C1916 1.398 . S
C1915 C1921 1.491 . S
C1916 H1907 0.950 . S
C1916 C1915 1.398 . S
C1916 C1917 1.391 . S
C1917 H1905 0.950 . S
C1917 C1913 1.393 . S
C1917 C1916 1.391 . S
C1918 H1908 0.950 . S
C1918 C1919 1.386 . S
C1918 C1920 1.391 . S
C1919 C1918 1.386 . S
C1919 C1923 1.393 . S
C1920 H1909 0.950 . S
C1920 C1918 1.391 . S
C1920 C1921 1.400 . S
C1921 C1915 1.491 . S
C1921 C1920 1.400 . S
C1921 C1922 1.398 . S
C1922 H1910 0.950 . S
C1922 C1921 1.398 . S
C1922 C1923 1.391 . S
C1923 H1911 0.950 . S
C1923 C1919 1.393 . S
C1923 C1922 1.391 . S
H1924 C1932 0.950 . S
H1925 C1937 0.950 . S
H1926 C1934 0.950 . S
H1927 C1936 0.950 . S
H1928 C1938 0.950 . S
H1929 C1940 0.950 . S
H1930 C1942 0.950 . S
H1931 C1943 0.950 . S
C1932 H1924 0.950 . S
C1932 C1933 1.386 . S
C1932 C1934 1.391 . S
C1933 C1932 1.386 . S
C1933 C1937 1.393 . S
C1934 H1926 0.950 . S
C1934 C1932 1.391 . S
C1934 C1935 1.400 . S
C1935 C1934 1.400 . S
C1935 C1936 1.398 . S
C1935 C1941 1.491 . S
C1936 H1927 0.950 . S
C1936 C1935 1.398 . S
C1936 C1937 1.391 . S
C1937 H1925 0.950 . S
C1937 C1933 1.393 . S
C1937 C1936 1.391 . S
C1938 H1928 0.950 . S
C1938 C1939 1.386 . S
C1938 C1940 1.391 . S
C1939 C1938 1.386 . S
C1939 C1943 1.393 . S
C1940 H1929 0.950 . S
C1940 C1938 1.391 . S
C1940 C1941 1.400 . S
C1941 C1935 1.491 . S
C1941 C1940 1.400 . S
C1941 C1942 1.398 . S
C1942 H1930 0.950 . S
C1942 C1941 1.398 . S
C1942 C1943 1.391 . S
C1943 H1931 0.950 . S
C1943 C1939 1.393 . S
C1943 C1942 1.391 . S
H1944 C1952 0.950 . S
H1945 C1957 0.950 . S
H1946 C1954 0.950 . S
H1947 C1956 0.950 . S
H1948 C1958 0.950 . S
H1949 C1960 0.950 . S
H1950 C1962 0.950 . S
H1951 C1963 0.950 . S
C1952 H1944 0.950 . S
C1952 C1953 1.386 . S
C1952 C1954 1.391 . S
C1953 C1952 1.386 . S
C1953 C1957 1.393 . S
C1954 H1946 0.950 . S
C1954 C1952 1.391 . S
C1954 C1955 1.400 . S
C1955 C1954 1.400 . S
C1955 C1956 1.398 . S
C1955 C1961 1.491 . S
C1956 H1947 0.950 . S
C1956 C1955 1.398 . S
C1956 C1957 1.391 . S
C1957 H1945 0.950 . S
C1957 C1953 1.393 . S
C1957 C1956 1.391 . S
C1958 H1948 0.950 . S
C1958 C1959 1.386 . S
C1958 C1960 1.391 . S
C1959 C1958 1.386 . S
C1959 C1963 1.393 . S
C1960 H1949 0.950 . S
C1960 C1958 1.391 . S
C1960 C1961 1.400 . S
C1961 C1955 1.491 . S
C1961 C1960 1.400 . S
C1961 C1962 1.398 . S
C1962 H1950 0.950 . S
C1962 C1961 1.398 . S
C1962 C1963 1.391 . S
C1963 H1951 0.950 . S
C1963 C1959 1.393 . S
C1963 C1962 1.391 . S
H1964 C1972 0.950 . S
H1965 C1977 0.950 . S
H1966 C1974 0.950 . S
H1967 C1976 0.950 . S
H1968 C1978 0.950 . S
H1969 C1980 0.950 . S
H1970 C1982 0.950 . S
H1971 C1983 0.950 . S
C1972 H1964 0.950 . S
C1972 C1973 1.386 . S
C1972 C1974 1.391 . S
C1973 C1972 1.386 . S
C1973 C1977 1.393 . S
C1974 H1966 0.950 . S
C1974 C1972 1.391 . S
C1974 C1975 1.400 . S
C1975 C1974 1.400 . S
C1975 C1976 1.398 . S
C1975 C1981 1.491 . S
C1976 H1967 0.950 . S
C1976 C1975 1.398 . S
C1976 C1977 1.391 . S
C1977 H1965 0.950 . S
C1977 C1973 1.393 . S
C1977 C1976 1.391 . S
C1978 H1968 0.950 . S
C1978 C1979 1.386 . S
C1978 C1980 1.391 . S
C1979 C1978 1.386 . S
C1979 C1983 1.393 . S
C1980 H1969 0.950 . S
C1980 C1978 1.391 . S
C1980 C1981 1.400 . S
C1981 C1975 1.491 . S
C1981 C1980 1.400 . S
C1981 C1982 1.398 . S
C1982 H1970 0.950 . S
C1982 C1981 1.398 . S
C1982 C1983 1.391 . S
C1983 H1971 0.950 . S
C1983 C1979 1.393 . S
C1983 C1982 1.391 . S
H1984 C1992 0.950 . S
H1985 C1997 0.950 . S
H1986 C1994 0.950 . S
H1987 C1996 0.950 . S
H1988 C1998 0.950 . S
H1989 C2000 0.950 . S
H1990 C2002 0.950 . S
H1991 C2003 0.950 . S
C1992 H1984 0.950 . S
C1992 C1993 1.386 . S
C1992 C1994 1.391 . S
C1993 C1992 1.386 . S
C1993 C1997 1.393 . S
C1994 H1986 0.950 . S
C1994 C1992 1.391 . S
C1994 C1995 1.400 . S
C1995 C1994 1.400 . S
C1995 C1996 1.398 . S
C1995 C2001 1.491 . S
C1996 H1987 0.950 . S
C1996 C1995 1.398 . S
C1996 C1997 1.391 . S
C1997 H1985 0.950 . S
C1997 C1993 1.393 . S
C1997 C1996 1.391 . S
C1998 H1988 0.950 . S
C1998 C1999 1.386 . S
C1998 C2000 1.391 . S
C1999 C1998 1.386 . S
C1999 C2003 1.393 . S
C2000 H1989 0.950 . S
C2000 C1998 1.391 . S
C2000 C2001 1.400 . S
C2001 C1995 1.491 . S
C2001 C2000 1.400 . S
C2001 C2002 1.398 . S
C2002 H1990 0.950 . S
C2002 C2001 1.398 . S
C2002 C2003 1.391 . S
C2003 H1991 0.950 . S
C2003 C1999 1.393 . S
C2003 C2002 1.391 . S
H2004 C2012 0.950 . S
H2005 C2017 0.950 . S
H2006 C2014 0.950 . S
H2007 C2016 0.950 . S
H2008 C2018 0.950 . S
H2009 C2020 0.950 . S
H2010 C2022 0.950 . S
H2011 C2023 0.950 . S
C2012 H2004 0.950 . S
C2012 C2013 1.386 . S
C2012 C2014 1.391 . S
C2013 C2012 1.386 . S
C2013 C2017 1.393 . S
C2014 H2006 0.950 . S
C2014 C2012 1.391 . S
C2014 C2015 1.400 . S
C2015 C2014 1.400 . S
C2015 C2016 1.398 . S
C2015 C2021 1.491 . S
C2016 H2007 0.950 . S
C2016 C2015 1.398 . S
C2016 C2017 1.391 . S
C2017 H2005 0.950 . S
C2017 C2013 1.393 . S
C2017 C2016 1.391 . S
C2018 H2008 0.950 . S
C2018 C2019 1.386 . S
C2018 C2020 1.391 . S
C2019 C2018 1.386 . S
C2019 C2023 1.393 . S
C2020 H2009 0.950 . S
C2020 C2018 1.391 . S
C2020 C2021 1.400 . S
C2021 C2015 1.491 . S
C2021 C2020 1.400 . S
C2021 C2022 1.398 . S
C2022 H2010 0.950 . S
C2022 C2021 1.398 . S
C2022 C2023 1.391 . S
C2023 H2011 0.950 . S
C2023 C2019 1.393 . S
C2023 C2022 1.391 . S
H2024 C2032 0.950 . S
H2025 C2037 0.950 . S
H2026 C2034 0.950 . S
H2027 C2036 0.950 . S
H2028 C2038 0.950 . S
H2029 C2040 0.950 . S
H2030 C2042 0.950 . S
H2031 C2043 0.950 . S
C2032 H2024 0.950 . S
C2032 C2033 1.386 . S
C2032 C2034 1.391 . S
C2033 C2032 1.386 . S
C2033 C2037 1.393 . S
C2034 H2026 0.950 . S
C2034 C2032 1.391 . S
C2034 C2035 1.400 . S
C2035 C2034 1.400 . S
C2035 C2036 1.398 . S
C2035 C2041 1.491 . S
C2036 H2027 0.950 . S
C2036 C2035 1.398 . S
C2036 C2037 1.391 . S
C2037 H2025 0.950 . S
C2037 C2033 1.393 . S
C2037 C2036 1.391 . S
C2038 H2028 0.950 . S
C2038 C2039 1.386 . S
C2038 C2040 1.391 . S
C2039 C2038 1.386 . S
C2039 C2043 1.393 . S
C2040 H2029 0.950 . S
C2040 C2038 1.391 . S
C2040 C2041 1.400 . S
C2041 C2035 1.491 . S
C2041 C2040 1.400 . S
C2041 C2042 1.398 . S
C2042 H2030 0.950 . S
C2042 C2041 1.398 . S
C2042 C2043 1.391 . S
C2043 H2031 0.950 . S
C2043 C2039 1.393 . S
C2043 C2042 1.391 . S
H2044 C2052 0.950 . S
H2045 C2057 0.950 . S
H2046 C2054 0.950 . S
H2047 C2056 0.950 . S
H2048 C2058 0.950 . S
H2049 C2060 0.950 . S
H2050 C2062 0.950 . S
H2051 C2063 0.950 . S
C2052 H2044 0.950 . S
C2052 C2053 1.386 . S
C2052 C2054 1.391 . S
C2053 C2052 1.386 . S
C2053 C2057 1.393 . S
C2054 H2046 0.950 . S
C2054 C2052 1.391 . S
C2054 C2055 1.400 . S
C2055 C2054 1.400 . S
C2055 C2056 1.398 . S
C2055 C2061 1.491 . S
C2056 H2047 0.950 . S
C2056 C2055 1.398 . S
C2056 C2057 1.391 . S
C2057 H2045 0.950 . S
C2057 C2053 1.393 . S
C2057 C2056 1.391 . S
C2058 H2048 0.950 . S
C2058 C2059 1.386 . S
C2058 C2060 1.391 . S
C2059 C2058 1.386 . S
C2059 C2063 1.393 . S
C2060 H2049 0.950 . S
C2060 C2058 1.391 . S
C2060 C2061 1.400 . S
C2061 C2055 1.491 . S
C2061 C2060 1.400 . S
C2061 C2062 1.398 . S
C2062 H2050 0.950 . S
C2062 C2061 1.398 . S
C2062 C2063 1.391 . S
C2063 H2051 0.950 . S
C2063 C2059 1.393 . S
C2063 C2062 1.391 . S
H2064 C2072 0.950 . S
H2065 C2077 0.950 . S
H2066 C2074 0.950 . S
H2067 C2076 0.950 . S
H2068 C2078 0.950 . S
H2069 C2080 0.950 . S
H2070 C2082 0.950 . S
H2071 C2083 0.950 . S
C2072 H2064 0.950 . S
C2072 C2073 1.386 . S
C2072 C2074 1.391 . S
C2073 C2072 1.386 . S
C2073 C2077 1.393 . S
C2074 H2066 0.950 . S
C2074 C2072 1.391 . S
C2074 C2075 1.400 . S
C2075 C2074 1.400 . S
C2075 C2076 1.398 . S
C2075 C2081 1.491 . S
C2076 H2067 0.950 . S
C2076 C2075 1.398 . S
C2076 C2077 1.391 . S
C2077 H2065 0.950 . S
C2077 C2073 1.393 . S
C2077 C2076 1.391 . S
C2078 H2068 0.950 . S
C2078 C2079 1.386 . S
C2078 C2080 1.391 . S
C2079 C2078 1.386 . S
C2079 C2083 1.393 . S
C2080 H2069 0.950 . S
C2080 C2078 1.391 . S
C2080 C2081 1.400 . S
C2081 C2075 1.491 . S
C2081 C2080 1.400 . S
C2081 C2082 1.398 . S
C2082 H2070 0.950 . S
C2082 C2081 1.398 . S
C2082 C2083 1.391 . S
C2083 H2071 0.950 . S
C2083 C2079 1.393 . S
C2083 C2082 1.391 . S
H2084 C2092 0.950 . S
H2085 C2097 0.950 . S
H2086 C2094 0.950 . S
H2087 C2096 0.950 . S
H2088 C2098 0.950 . S
H2089 C2100 0.950 . S
H2090 C2102 0.950 . S
H2091 C2103 0.950 . S
C2092 H2084 0.950 . S
C2092 C2093 1.386 . S
C2092 C2094 1.391 . S
C2093 C2092 1.386 . S
C2093 C2097 1.393 . S
C2094 H2086 0.950 . S
C2094 C2092 1.391 . S
C2094 C2095 1.400 . S
C2095 C2094 1.400 . S
C2095 C2096 1.398 . S
C2095 C2101 1.491 . S
C2096 H2087 0.950 . S
C2096 C2095 1.398 . S
C2096 C2097 1.391 . S
C2097 H2085 0.950 . S
C2097 C2093 1.393 . S
C2097 C2096 1.391 . S
C2098 H2088 0.950 . S
C2098 C2099 1.386 . S
C2098 C2100 1.391 . S
C2099 C2098 1.386 . S
C2099 C2103 1.393 . S
C2100 H2089 0.950 . S
C2100 C2098 1.391 . S
C2100 C2101 1.400 . S
C2101 C2095 1.491 . S
C2101 C2100 1.400 . S
C2101 C2102 1.398 . S
C2102 H2090 0.950 . S
C2102 C2101 1.398 . S
C2102 C2103 1.391 . S
C2103 H2091 0.950 . S
C2103 C2099 1.393 . S
C2103 C2102 1.391 . S
H2104 C2112 0.950 . S
H2105 C2117 0.950 . S
H2106 C2114 0.950 . S
H2107 C2116 0.950 . S
H2108 C2118 0.950 . S
H2109 C2120 0.950 . S
H2110 C2122 0.950 . S
H2111 C2123 0.950 . S
C2112 H2104 0.950 . S
C2112 C2113 1.386 . S
C2112 C2114 1.391 . S
C2113 C2112 1.386 . S
C2113 C2117 1.393 . S
C2114 H2106 0.950 . S
C2114 C2112 1.391 . S
C2114 C2115 1.400 . S
C2115 C2114 1.400 . S
C2115 C2116 1.398 . S
C2115 C2121 1.491 . S
C2116 H2107 0.950 . S
C2116 C2115 1.398 . S
C2116 C2117 1.391 . S
C2117 H2105 0.950 . S
C2117 C2113 1.393 . S
C2117 C2116 1.391 . S
C2118 H2108 0.950 . S
C2118 C2119 1.386 . S
C2118 C2120 1.391 . S
C2119 C2118 1.386 . S
C2119 C2123 1.393 . S
C2120 H2109 0.950 . S
C2120 C2118 1.391 . S
C2120 C2121 1.400 . S
C2121 C2115 1.491 . S
C2121 C2120 1.400 . S
C2121 C2122 1.398 . S
C2122 H2110 0.950 . S
C2122 C2121 1.398 . S
C2122 C2123 1.391 . S
C2123 H2111 0.950 . S
C2123 C2119 1.393 . S
C2123 C2122 1.391 . S
H2124 C2132 0.950 . S
H2125 C2137 0.950 . S
H2126 C2134 0.950 . S
H2127 C2136 0.950 . S
H2128 C2138 0.950 . S
H2129 C2140 0.950 . S
H2130 C2142 0.950 . S
H2131 C2143 0.950 . S
C2132 H2124 0.950 . S
C2132 C2133 1.386 . S
C2132 C2134 1.391 . S
C2133 C2132 1.386 . S
C2133 C2137 1.393 . S
C2134 H2126 0.950 . S
C2134 C2132 1.391 . S
C2134 C2135 1.400 . S
C2135 C2134 1.400 . S
C2135 C2136 1.398 . S
C2135 C2141 1.491 . S
C2136 H2127 0.950 . S
C2136 C2135 1.398 . S
C2136 C2137 1.391 . S
C2137 H2125 0.950 . S
C2137 C2133 1.393 . S
C2137 C2136 1.391 . S
C2138 H2128 0.950 . S
C2138 C2139 1.386 . S
C2138 C2140 1.391 . S
C2139 C2138 1.386 . S
C2139 C2143 1.393 . S
C2140 H2129 0.950 . S
C2140 C2138 1.391 . S
C2140 C2141 1.400 . S
C2141 C2135 1.491 . S
C2141 C2140 1.400 . S
C2141 C2142 1.398 . S
C2142 H2130 0.950 . S
C2142 C2141 1.398 . S
C2142 C2143 1.391 . S
C2143 H2131 0.950 . S
C2143 C2139 1.393 . S
C2143 C2142 1.391 . S
H2144 C2152 0.950 . S
H2145 C2157 0.950 . S
H2146 C2154 0.950 . S
H2147 C2156 0.950 . S
H2148 C2158 0.950 . S
H2149 C2160 0.950 . S
H2150 C2162 0.950 . S
H2151 C2163 0.950 . S
C2152 H2144 0.950 . S
C2152 C2153 1.386 . S
C2152 C2154 1.391 . S
C2153 C2152 1.386 . S
C2153 C2157 1.393 . S
C2154 H2146 0.950 . S
C2154 C2152 1.391 . S
C2154 C2155 1.400 . S
C2155 C2154 1.400 . S
C2155 C2156 1.398 . S
C2155 C2161 1.491 . S
C2156 H2147 0.950 . S
C2156 C2155 1.398 . S
C2156 C2157 1.391 . S
C2157 H2145 0.950 . S
C2157 C2153 1.393 . S
C2157 C2156 1.391 . S
C2158 H2148 0.950 . S
C2158 C2159 1.386 . S
C2158 C2160 1.391 . S
C2159 C2158 1.386 . S
C2159 C2163 1.393 . S
C2160 H2149 0.950 . S
C2160 C2158 1.391 . S
C2160 C2161 1.400 . S
C2161 C2155 1.491 . S
C2161 C2160 1.400 . S
C2161 C2162 1.398 . S
C2162 H2150 0.950 . S
C2162 C2161 1.398 . S
C2162 C2163 1.391 . S
C2163 H2151 0.950 . S
C2163 C2159 1.393 . S
C2163 C2162 1.391 . S
H2164 C2172 0.950 . S
H2165 C2177 0.950 . S
H2166 C2174 0.950 . S
H2167 C2176 0.950 . S
H2168 C2178 0.950 . S
H2169 C2180 0.950 . S
H2170 C2182 0.950 . S
H2171 C2183 0.950 . S
C2172 H2164 0.950 . S
C2172 C2173 1.386 . S
C2172 C2174 1.391 . S
C2173 C2172 1.386 . S
C2173 C2177 1.393 . S
C2174 H2166 0.950 . S
C2174 C2172 1.391 . S
C2174 C2175 1.400 . S
C2175 C2174 1.400 . S
C2175 C2176 1.398 . S
C2175 C2181 1.491 . S
C2176 H2167 0.950 . S
C2176 C2175 1.398 . S
C2176 C2177 1.391 . S
C2177 H2165 0.950 . S
C2177 C2173 1.393 . S
C2177 C2176 1.391 . S
C2178 H2168 0.950 . S
C2178 C2179 1.386 . S
C2178 C2180 1.391 . S
C2179 C2178 1.386 . S
C2179 C2183 1.393 . S
C2180 H2169 0.950 . S
C2180 C2178 1.391 . S
C2180 C2181 1.400 . S
C2181 C2175 1.491 . S
C2181 C2180 1.400 . S
C2181 C2182 1.398 . S
C2182 H2170 0.950 . S
C2182 C2181 1.398 . S
C2182 C2183 1.391 . S
C2183 H2171 0.950 . S
C2183 C2179 1.393 . S
C2183 C2182 1.391 . S
H2184 C2192 0.950 . S
H2185 C2197 0.950 . S
H2186 C2194 0.950 . S
H2187 C2196 0.950 . S
H2188 C2198 0.950 . S
H2189 C2200 0.950 . S
H2190 C2202 0.950 . S
H2191 C2203 0.950 . S
C2192 H2184 0.950 . S
C2192 C2193 1.386 . S
C2192 C2194 1.391 . S
C2193 C2192 1.386 . S
C2193 C2197 1.393 . S
C2194 H2186 0.950 . S
C2194 C2192 1.391 . S
C2194 C2195 1.400 . S
C2195 C2194 1.400 . S
C2195 C2196 1.398 . S
C2195 C2201 1.491 . S
C2196 H2187 0.950 . S
C2196 C2195 1.398 . S
C2196 C2197 1.391 . S
C2197 H2185 0.950 . S
C2197 C2193 1.393 . S
C2197 C2196 1.391 . S
C2198 H2188 0.950 . S
C2198 C2199 1.386 . S
C2198 C2200 1.391 . S
C2199 C2198 1.386 . S
C2199 C2203 1.393 . S
C2200 H2189 0.950 . S
C2200 C2198 1.391 . S
C2200 C2201 1.400 . S
C2201 C2195 1.491 . S
C2201 C2200 1.400 . S
C2201 C2202 1.398 . S
C2202 H2190 0.950 . S
C2202 C2201 1.398 . S
C2202 C2203 1.391 . S
C2203 H2191 0.950 . S
C2203 C2199 1.393 . S
C2203 C2202 1.391 . S
H2204 C2212 0.950 . S
H2205 C2217 0.950 . S
H2206 C2214 0.950 . S
H2207 C2216 0.950 . S
H2208 C2218 0.950 . S
H2209 C2220 0.950 . S
H2210 C2222 0.950 . S
H2211 C2223 0.950 . S
C2212 H2204 0.950 . S
C2212 C2213 1.386 . S
C2212 C2214 1.391 . S
C2213 C2212 1.386 . S
C2213 C2217 1.393 . S
C2214 H2206 0.950 . S
C2214 C2212 1.391 . S
C2214 C2215 1.400 . S
C2215 C2214 1.400 . S
C2215 C2216 1.398 . S
C2215 C2221 1.491 . S
C2216 H2207 0.950 . S
C2216 C2215 1.398 . S
C2216 C2217 1.391 . S
C2217 H2205 0.950 . S
C2217 C2213 1.393 . S
C2217 C2216 1.391 . S
C2218 H2208 0.950 . S
C2218 C2219 1.386 . S
C2218 C2220 1.391 . S
C2219 C2218 1.386 . S
C2219 C2223 1.393 . S
C2220 H2209 0.950 . S
C2220 C2218 1.391 . S
C2220 C2221 1.400 . S
C2221 C2215 1.491 . S
C2221 C2220 1.400 . S
C2221 C2222 1.398 . S
C2222 H2210 0.950 . S
C2222 C2221 1.398 . S
C2222 C2223 1.391 . S
C2223 H2211 0.950 . S
C2223 C2219 1.393 . S
C2223 C2222 1.391 . S
H2224 C2232 0.950 . S
H2225 C2237 0.950 . S
H2226 C2234 0.950 . S
H2227 C2236 0.950 . S
H2228 C2238 0.950 . S
H2229 C2240 0.950 . S
H2230 C2242 0.950 . S
H2231 C2243 0.950 . S
C2232 H2224 0.950 . S
C2232 C2233 1.386 . S
C2232 C2234 1.391 . S
C2233 C2232 1.386 . S
C2233 C2237 1.393 . S
C2234 H2226 0.950 . S
C2234 C2232 1.391 . S
C2234 C2235 1.400 . S
C2235 C2234 1.400 . S
C2235 C2236 1.398 . S
C2235 C2241 1.491 . S
C2236 H2227 0.950 . S
C2236 C2235 1.398 . S
C2236 C2237 1.391 . S
C2237 H2225 0.950 . S
C2237 C2233 1.393 . S
C2237 C2236 1.391 . S
C2238 H2228 0.950 . S
C2238 C2239 1.386 . S
C2238 C2240 1.391 . S
C2239 C2238 1.386 . S
C2239 C2243 1.393 . S
C2240 H2229 0.950 . S
C2240 C2238 1.391 . S
C2240 C2241 1.400 . S
C2241 C2235 1.491 . S
C2241 C2240 1.400 . S
C2241 C2242 1.398 . S
C2242 H2230 0.950 . S
C2242 C2241 1.398 . S
C2242 C2243 1.391 . S
C2243 H2231 0.950 . S
C2243 C2239 1.393 . S
C2243 C2242 1.391 . S
H2244 C2252 0.950 . S
H2245 C2257 0.950 . S
H2246 C2254 0.950 . S
H2247 C2256 0.950 . S
H2248 C2258 0.950 . S
H2249 C2260 0.950 . S
H2250 C2262 0.950 . S
H2251 C2263 0.950 . S
C2252 H2244 0.950 . S
C2252 C2253 1.386 . S
C2252 C2254 1.391 . S
C2253 C2252 1.386 . S
C2253 C2257 1.393 . S
C2254 H2246 0.950 . S
C2254 C2252 1.391 . S
C2254 C2255 1.400 . S
C2255 C2254 1.400 . S
C2255 C2256 1.398 . S
C2255 C2261 1.491 . S
C2256 H2247 0.950 . S
C2256 C2255 1.398 . S
C2256 C2257 1.391 . S
C2257 H2245 0.950 . S
C2257 C2253 1.393 . S
C2257 C2256 1.391 . S
C2258 H2248 0.950 . S
C2258 C2259 1.386 . S
C2258 C2260 1.391 . S
C2259 C2258 1.386 . S
C2259 C2263 1.393 . S
C2260 H2249 0.950 . S
C2260 C2258 1.391 . S
C2260 C2261 1.400 . S
C2261 C2255 1.491 . S
C2261 C2260 1.400 . S
C2261 C2262 1.398 . S
C2262 H2250 0.950 . S
C2262 C2261 1.398 . S
C2262 C2263 1.391 . S
C2263 H2251 0.950 . S
C2263 C2259 1.393 . S
C2263 C2262 1.391 . S
H2264 C2272 0.950 . S
H2265 C2277 0.950 . S
H2266 C2274 0.950 . S
H2267 C2276 0.950 . S
H2268 C2278 0.950 . S
H2269 C2280 0.950 . S
H2270 C2282 0.950 . S
H2271 C2283 0.950 . S
C2272 H2264 0.950 . S
C2272 C2273 1.386 . S
C2272 C2274 1.391 . S
C2273 C2272 1.386 . S
C2273 C2277 1.393 . S
C2274 H2266 0.950 . S
C2274 C2272 1.391 . S
C2274 C2275 1.400 . S
C2275 C2274 1.400 . S
C2275 C2276 1.398 . S
C2275 C2281 1.491 . S
C2276 H2267 0.950 . S
C2276 C2275 1.398 . S
C2276 C2277 1.391 . S
C2277 H2265 0.950 . S
C2277 C2273 1.393 . S
C2277 C2276 1.391 . S
C2278 H2268 0.950 . S
C2278 C2279 1.386 . S
C2278 C2280 1.391 . S
C2279 C2278 1.386 . S
C2279 C2283 1.393 . S
C2280 H2269 0.950 . S
C2280 C2278 1.391 . S
C2280 C2281 1.400 . S
C2281 C2275 1.491 . S
C2281 C2280 1.400 . S
C2281 C2282 1.398 . S
C2282 H2270 0.950 . S
C2282 C2281 1.398 . S
C2282 C2283 1.391 . S
C2283 H2271 0.950 . S
C2283 C2279 1.393 . S
C2283 C2282 1.391 . S
H2284 C2292 0.950 . S
H2285 C2297 0.950 . S
H2286 C2294 0.950 . S
H2287 C2296 0.950 . S
H2288 C2298 0.950 . S
H2289 C2300 0.950 . S
H2290 C2302 0.950 . S
H2291 C2303 0.950 . S
C2292 H2284 0.950 . S
C2292 C2293 1.386 . S
C2292 C2294 1.391 . S
C2293 C2292 1.386 . S
C2293 C2297 1.393 . S
C2294 H2286 0.950 . S
C2294 C2292 1.391 . S
C2294 C2295 1.400 . S
C2295 C2294 1.400 . S
C2295 C2296 1.398 . S
C2295 C2301 1.491 . S
C2296 H2287 0.950 . S
C2296 C2295 1.398 . S
C2296 C2297 1.391 . S
C2297 H2285 0.950 . S
C2297 C2293 1.393 . S
C2297 C2296 1.391 . S
C2298 H2288 0.950 . S
C2298 C2299 1.386 . S
C2298 C2300 1.391 . S
C2299 C2298 1.386 . S
C2299 C2303 1.393 . S
C2300 H2289 0.950 . S
C2300 C2298 1.391 . S
C2300 C2301 1.400 . S
C2301 C2295 1.491 . S
C2301 C2300 1.400 . S
C2301 C2302 1.398 . S
C2302 H2290 0.950 . S
C2302 C2301 1.398 . S
C2302 C2303 1.391 . S
C2303 H2291 0.950 . S
C2303 C2299 1.393 . S
C2303 C2302 1.391 . S
H2304 C2312 0.950 . S
H2305 C2317 0.950 . S
H2306 C2314 0.950 . S
H2307 C2316 0.950 . S
H2308 C2318 0.950 . S
H2309 C2320 0.950 . S
H2310 C2322 0.950 . S
H2311 C2323 0.950 . S
C2312 H2304 0.950 . S
C2312 C2313 1.386 . S
C2312 C2314 1.391 . S
C2313 C2312 1.386 . S
C2313 C2317 1.393 . S
C2314 H2306 0.950 . S
C2314 C2312 1.391 . S
C2314 C2315 1.400 . S
C2315 C2314 1.400 . S
C2315 C2316 1.398 . S
C2315 C2321 1.491 . S
C2316 H2307 0.950 . S
C2316 C2315 1.398 . S
C2316 C2317 1.391 . S
C2317 H2305 0.950 . S
C2317 C2313 1.393 . S
C2317 C2316 1.391 . S
C2318 H2308 0.950 . S
C2318 C2319 1.386 . S
C2318 C2320 1.391 . S
C2319 C2318 1.386 . S
C2319 C2323 1.393 . S
C2320 H2309 0.950 . S
C2320 C2318 1.391 . S
C2320 C2321 1.400 . S
C2321 C2315 1.491 . S
C2321 C2320 1.400 . S
C2321 C2322 1.398 . S
C2322 H2310 0.950 . S
C2322 C2321 1.398 . S
C2322 C2323 1.391 . S
C2323 H2311 0.950 . S
C2323 C2319 1.393 . S
C2323 C2322 1.391 . S
H2324 C2332 0.950 . S
H2325 C2337 0.950 . S
H2326 C2334 0.950 . S
H2327 C2336 0.950 . S
H2328 C2338 0.950 . S
H2329 C2340 0.950 . S
H2330 C2342 0.950 . S
H2331 C2343 0.950 . S
C2332 H2324 0.950 . S
C2332 C2333 1.386 . S
C2332 C2334 1.391 . S
C2333 C2332 1.386 . S
C2333 C2337 1.393 . S
C2334 H2326 0.950 . S
C2334 C2332 1.391 . S
C2334 C2335 1.400 . S
C2335 C2334 1.400 . S
C2335 C2336 1.398 . S
C2335 C2341 1.491 . S
C2336 H2327 0.950 . S
C2336 C2335 1.398 . S
C2336 C2337 1.391 . S
C2337 H2325 0.950 . S
C2337 C2333 1.393 . S
C2337 C2336 1.391 . S
C2338 H2328 0.950 . S
C2338 C2339 1.386 . S
C2338 C2340 1.391 . S
C2339 C2338 1.386 . S
C2339 C2343 1.393 . S
C2340 H2329 0.950 . S
C2340 C2338 1.391 . S
C2340 C2341 1.400 . S
C2341 C2335 1.491 . S
C2341 C2340 1.400 . S
C2341 C2342 1.398 . S
C2342 H2330 0.950 . S
C2342 C2341 1.398 . S
C2342 C2343 1.391 . S
C2343 H2331 0.950 . S
C2343 C2339 1.393 . S
C2343 C2342 1.391 . S
H2344 C2352 0.950 . S
H2345 C2357 0.950 . S
H2346 C2354 0.950 . S
H2347 C2356 0.950 . S
H2348 C2358 0.950 . S
H2349 C2360 0.950 . S
H2350 C2362 0.950 . S
H2351 C2363 0.950 . S
C2352 H2344 0.950 . S
C2352 C2353 1.386 . S
C2352 C2354 1.391 . S
C2353 C2352 1.386 . S
C2353 C2357 1.393 . S
C2354 H2346 0.950 . S
C2354 C2352 1.391 . S
C2354 C2355 1.400 . S
C2355 C2354 1.400 . S
C2355 C2356 1.398 . S
C2355 C2361 1.491 . S
C2356 H2347 0.950 . S
C2356 C2355 1.398 . S
C2356 C2357 1.391 . S
C2357 H2345 0.950 . S
C2357 C2353 1.393 . S
C2357 C2356 1.391 . S
C2358 H2348 0.950 . S
C2358 C2359 1.386 . S
C2358 C2360 1.391 . S
C2359 C2358 1.386 . S
C2359 C2363 1.393 . S
C2360 H2349 0.950 . S
C2360 C2358 1.391 . S
C2360 C2361 1.400 . S
C2361 C2355 1.491 . S
C2361 C2360 1.400 . S
C2361 C2362 1.398 . S
C2362 H2350 0.950 . S
C2362 C2361 1.398 . S
C2362 C2363 1.391 . S
C2363 H2351 0.950 . S
C2363 C2359 1.393 . S
C2363 C2362 1.391 . S
H2364 C2372 0.950 . S
H2365 C2377 0.950 . S
H2366 C2374 0.950 . S
H2367 C2376 0.950 . S
H2368 C2378 0.950 . S
H2369 C2380 0.950 . S
H2370 C2382 0.950 . S
H2371 C2383 0.950 . S
C2372 H2364 0.950 . S
C2372 C2373 1.386 . S
C2372 C2374 1.391 . S
C2373 C2372 1.386 . S
C2373 C2377 1.393 . S
C2374 H2366 0.950 . S
C2374 C2372 1.391 . S
C2374 C2375 1.400 . S
C2375 C2374 1.400 . S
C2375 C2376 1.398 . S
C2375 C2381 1.491 . S
C2376 H2367 0.950 . S
C2376 C2375 1.398 . S
C2376 C2377 1.391 . S
C2377 H2365 0.950 . S
C2377 C2373 1.393 . S
C2377 C2376 1.391 . S
C2378 H2368 0.950 . S
C2378 C2379 1.386 . S
C2378 C2380 1.391 . S
C2379 C2378 1.386 . S
C2379 C2383 1.393 . S
C2380 H2369 0.950 . S
C2380 C2378 1.391 . S
C2380 C2381 1.400 . S
C2381 C2375 1.491 . S
C2381 C2380 1.400 . S
C2381 C2382 1.398 . S
C2382 H2370 0.950 . S
C2382 C2381 1.398 . S
C2382 C2383 1.391 . S
C2383 H2371 0.950 . S
C2383 C2379 1.393 . S
C2383 C2382 1.391 . S
H2384 C2392 0.950 . S
H2385 C2397 0.950 . S
H2386 C2394 0.950 . S
H2387 C2396 0.950 . S
H2388 C2398 0.950 . S
H2389 C2400 0.950 . S
H2390 C2402 0.950 . S
H2391 C2403 0.950 . S
C2392 H2384 0.950 . S
C2392 C2393 1.386 . S
C2392 C2394 1.391 . S
C2393 C2392 1.386 . S
C2393 C2397 1.393 . S
C2394 H2386 0.950 . S
C2394 C2392 1.391 . S
C2394 C2395 1.400 . S
C2395 C2394 1.400 . S
C2395 C2396 1.398 . S
C2395 C2401 1.491 . S
C2396 H2387 0.950 . S
C2396 C2395 1.398 . S
C2396 C2397 1.391 . S
C2397 H2385 0.950 . S
C2397 C2393 1.393 . S
C2397 C2396 1.391 . S
C2398 H2388 0.950 . S
C2398 C2399 1.386 . S
C2398 C2400 1.391 . S
C2399 C2398 1.386 . S
C2399 C2403 1.393 . S
C2400 H2389 0.950 . S
C2400 C2398 1.391 . S
C2400 C2401 1.400 . S
C2401 C2395 1.491 . S
C2401 C2400 1.400 . S
C2401 C2402 1.398 . S
C2402 H2390 0.950 . S
C2402 C2401 1.398 . S
C2402 C2403 1.391 . S
C2403 H2391 0.950 . S
C2403 C2399 1.393 . S
C2403 C2402 1.391 . S
H2404 C2412 0.950 . S
H2405 C2417 0.950 . S
H2406 C2414 0.950 . S
H2407 C2416 0.950 . S
H2408 C2418 0.950 . S
H2409 C2420 0.950 . S
H2410 C2422 0.950 . S
H2411 C2423 0.950 . S
C2412 H2404 0.950 . S
C2412 C2413 1.386 . S
C2412 C2414 1.391 . S
C2413 C2412 1.386 . S
C2413 C2417 1.393 . S
C2414 H2406 0.950 . S
C2414 C2412 1.391 . S
C2414 C2415 1.400 . S
C2415 C2414 1.400 . S
C2415 C2416 1.398 . S
C2415 C2421 1.491 . S
C2416 H2407 0.950 . S
C2416 C2415 1.398 . S
C2416 C2417 1.391 . S
C2417 H2405 0.950 . S
C2417 C2413 1.393 . S
C2417 C2416 1.391 . S
C2418 H2408 0.950 . S
C2418 C2419 1.386 . S
C2418 C2420 1.391 . S
C2419 C2418 1.386 . S
C2419 C2423 1.393 . S
C2420 H2409 0.950 . S
C2420 C2418 1.391 . S
C2420 C2421 1.400 . S
C2421 C2415 1.491 . S
C2421 C2420 1.400 . S
C2421 C2422 1.398 . S
C2422 H2410 0.950 . S
C2422 C2421 1.398 . S
C2422 C2423 1.391 . S
C2423 H2411 0.950 . S
C2423 C2419 1.393 . S
C2423 C2422 1.391 . S
H2424 C2432 0.950 . S
H2425 C2437 0.950 . S
H2426 C2434 0.950 . S
H2427 C2436 0.950 . S
H2428 C2438 0.950 . S
H2429 C2440 0.950 . S
H2430 C2442 0.950 . S
H2431 C2443 0.950 . S
C2432 H2424 0.950 . S
C2432 C2433 1.386 . S
C2432 C2434 1.391 . S
C2433 C2432 1.386 . S
C2433 C2437 1.393 . S
C2434 H2426 0.950 . S
C2434 C2432 1.391 . S
C2434 C2435 1.400 . S
C2435 C2434 1.400 . S
C2435 C2436 1.398 . S
C2435 C2441 1.491 . S
C2436 H2427 0.950 . S
C2436 C2435 1.398 . S
C2436 C2437 1.391 . S
C2437 H2425 0.950 . S
C2437 C2433 1.393 . S
C2437 C2436 1.391 . S
C2438 H2428 0.950 . S
C2438 C2439 1.386 . S
C2438 C2440 1.391 . S
C2439 C2438 1.386 . S
C2439 C2443 1.393 . S
C2440 H2429 0.950 . S
C2440 C2438 1.391 . S
C2440 C2441 1.400 . S
C2441 C2435 1.491 . S
C2441 C2440 1.400 . S
C2441 C2442 1.398 . S
C2442 H2430 0.950 . S
C2442 C2441 1.398 . S
C2442 C2443 1.391 . S
C2443 H2431 0.950 . S
C2443 C2439 1.393 . S
C2443 C2442 1.391 . S
H2444 C2452 0.950 . S
H2445 C2457 0.950 . S
H2446 C2454 0.950 . S
H2447 C2456 0.950 . S
H2448 C2458 0.950 . S
H2449 C2460 0.950 . S
H2450 C2462 0.950 . S
H2451 C2463 0.950 . S
C2452 H2444 0.950 . S
C2452 C2453 1.386 . S
C2452 C2454 1.391 . S
C2453 C2452 1.386 . S
C2453 C2457 1.393 . S
C2454 H2446 0.950 . S
C2454 C2452 1.391 . S
C2454 C2455 1.400 . S
C2455 C2454 1.400 . S
C2455 C2456 1.398 . S
C2455 C2461 1.491 . S
C2456 H2447 0.950 . S
C2456 C2455 1.398 . S
C2456 C2457 1.391 . S
C2457 H2445 0.950 . S
C2457 C2453 1.393 . S
C2457 C2456 1.391 . S
C2458 H2448 0.950 . S
C2458 C2459 1.386 . S
C2458 C2460 1.391 . S
C2459 C2458 1.386 . S
C2459 C2463 1.393 . S
C2460 H2449 0.950 . S
C2460 C2458 1.391 . S
C2460 C2461 1.400 . S
C2461 C2455 1.491 . S
C2461 C2460 1.400 . S
C2461 C2462 1.398 . S
C2462 H2450 0.950 . S
C2462 C2461 1.398 . S
C2462 C2463 1.391 . S
C2463 H2451 0.950 . S
C2463 C2459 1.393 . S
C2463 C2462 1.391 . S
H2464 C2472 0.950 . S
H2465 C2477 0.950 . S
H2466 C2474 0.950 . S
H2467 C2476 0.950 . S
H2468 C2478 0.950 . S
H2469 C2480 0.950 . S
H2470 C2482 0.950 . S
H2471 C2483 0.950 . S
C2472 H2464 0.950 . S
C2472 C2473 1.386 . S
C2472 C2474 1.391 . S
C2473 C2472 1.386 . S
C2473 C2477 1.393 . S
C2474 H2466 0.950 . S
C2474 C2472 1.391 . S
C2474 C2475 1.400 . S
C2475 C2474 1.400 . S
C2475 C2476 1.398 . S
C2475 C2481 1.491 . S
C2476 H2467 0.950 . S
C2476 C2475 1.398 . S
C2476 C2477 1.391 . S
C2477 H2465 0.950 . S
C2477 C2473 1.393 . S
C2477 C2476 1.391 . S
C2478 H2468 0.950 . S
C2478 C2479 1.386 . S
C2478 C2480 1.391 . S
C2479 C2478 1.386 . S
C2479 C2483 1.393 . S
C2480 H2469 0.950 . S
C2480 C2478 1.391 . S
C2480 C2481 1.400 . S
C2481 C2475 1.491 . S
C2481 C2480 1.400 . S
C2481 C2482 1.398 . S
C2482 H2470 0.950 . S
C2482 C2481 1.398 . S
C2482 C2483 1.391 . S
C2483 H2471 0.950 . S
C2483 C2479 1.393 . S
C2483 C2482 1.391 . S
H2484 C2492 0.950 . S
H2485 C2497 0.950 . S
H2486 C2494 0.950 . S
H2487 C2496 0.950 . S
H2488 C2498 0.950 . S
H2489 C2500 0.950 . S
H2490 C2502 0.950 . S
H2491 C2503 0.950 . S
C2492 H2484 0.950 . S
C2492 C2493 1.386 . S
C2492 C2494 1.391 . S
C2493 C2492 1.386 . S
C2493 C2497 1.393 . S
C2494 H2486 0.950 . S
C2494 C2492 1.391 . S
C2494 C2495 1.400 . S
C2495 C2494 1.400 . S
C2495 C2496 1.398 . S
C2495 C2501 1.491 . S
C2496 H2487 0.950 . S
C2496 C2495 1.398 . S
C2496 C2497 1.391 . S
C2497 H2485 0.950 . S
C2497 C2493 1.393 . S
C2497 C2496 1.391 . S
C2498 H2488 0.950 . S
C2498 C2499 1.386 . S
C2498 C2500 1.391 . S
C2499 C2498 1.386 . S
C2499 C2503 1.393 . S
C2500 H2489 0.950 . S
C2500 C2498 1.391 . S
C2500 C2501 1.400 . S
C2501 C2495 1.491 . S
C2501 C2500 1.400 . S
C2501 C2502 1.398 . S
C2502 H2490 0.950 . S
C2502 C2501 1.398 . S
C2502 C2503 1.391 . S
C2503 H2491 0.950 . S
C2503 C2499 1.393 . S
C2503 C2502 1.391 . S
H2504 C2512 0.950 . S
H2505 C2517 0.950 . S
H2506 C2514 0.950 . S
H2507 C2516 0.950 . S
H2508 C2518 0.950 . S
H2509 C2520 0.950 . S
H2510 C2522 0.950 . S
H2511 C2523 0.950 . S
C2512 H2504 0.950 . S
C2512 C2513 1.386 . S
C2512 C2514 1.391 . S
C2513 C2512 1.386 . S
C2513 C2517 1.393 . S
C2514 H2506 0.950 . S
C2514 C2512 1.391 . S
C2514 C2515 1.400 . S
C2515 C2514 1.400 . S
C2515 C2516 1.398 . S
C2515 C2521 1.491 . S
C2516 H2507 0.950 . S
C2516 C2515 1.398 . S
C2516 C2517 1.391 . S
C2517 H2505 0.950 . S
C2517 C2513 1.393 . S
C2517 C2516 1.391 . S
C2518 H2508 0.950 . S
C2518 C2519 1.386 . S
C2518 C2520 1.391 . S
C2519 C2518 1.386 . S
C2519 C2523 1.393 . S
C2520 H2509 0.950 . S
C2520 C2518 1.391 . S
C2520 C2521 1.400 . S
C2521 C2515 1.491 . S
C2521 C2520 1.400 . S
C2521 C2522 1.398 . S
C2522 H2510 0.950 . S
C2522 C2521 1.398 . S
C2522 C2523 1.391 . S
C2523 H2511 0.950 . S
C2523 C2519 1.393 . S
C2523 C2522 1.391 . S
H2524 C2532 0.950 . S
H2525 C2537 0.950 . S
H2526 C2534 0.950 . S
H2527 C2536 0.950 . S
H2528 C2538 0.950 . S
H2529 C2540 0.950 . S
H2530 C2542 0.950 . S
H2531 C2543 0.950 . S
C2532 H2524 0.950 . S
C2532 C2533 1.386 . S
C2532 C2534 1.391 . S
C2533 C2532 1.386 . S
C2533 C2537 1.393 . S
C2534 H2526 0.950 . S
C2534 C2532 1.391 . S
C2534 C2535 1.400 . S
C2535 C2534 1.400 . S
C2535 C2536 1.398 . S
C2535 C2541 1.491 . S
C2536 H2527 0.950 . S
C2536 C2535 1.398 . S
C2536 C2537 1.391 . S
C2537 H2525 0.950 . S
C2537 C2533 1.393 . S
C2537 C2536 1.391 . S
C2538 H2528 0.950 . S
C2538 C2539 1.386 . S
C2538 C2540 1.391 . S
C2539 C2538 1.386 . S
C2539 C2543 1.393 . S
C2540 H2529 0.950 . S
C2540 C2538 1.391 . S
C2540 C2541 1.400 . S
C2541 C2535 1.491 . S
C2541 C2540 1.400 . S
C2541 C2542 1.398 . S
C2542 H2530 0.950 . S
C2542 C2541 1.398 . S
C2542 C2543 1.391 . S
C2543 H2531 0.950 . S
C2543 C2539 1.393 . S
C2543 C2542 1.391 . S
C633 C364 1.040 . S
C639 C0 1.042 . S
C653 C13 1.059 . S
C659 C377 1.023 . S
C673 C390 1.050 . S
C679 C26 1.032 . S
C693 C39 1.035 . S
C699 C403 1.047 . S
C713 C312 1.044 . S
C719 C52 1.038 . S
C733 C65 1.032 . S
C739 C325 1.050 . S
C753 C338 1.020 . S
C759 C78 1.061 . S
C773 C91 1.022 . S
C779 C351 1.060 . S
C793 C494 1.023 . S
C799 C104 1.059 . S
C813 C507 1.039 . S
C819 C117 1.043 . S
C833 C468 1.060 . S
C839 C130 1.022 . S
C853 C143 1.061 . S
C859 C481 1.020 . S
C873 C442 1.021 . S
C879 C156 1.061 . S
C893 C455 1.060 . S
C899 C169 1.022 . S
C913 C182 1.058 . S
C919 C416 1.024 . S
C933 C429 1.056 . S
C939 C195 1.026 . S
C953 C208 1.058 . S
C959 C585 1.024 . S
C973 C559 1.024 . S
C979 C221 1.058 . S
C993 C572 1.026 . S
C999 C234 1.056 . S
C1013 C533 1.061 . S
C1019 C247 1.021 . S
C1033 C546 1.025 . S
C1039 C260 1.057 . S
C1053 C273 1.035 . S
C1059 C520 1.047 . S
C1073 C286 1.058 . S
C1079 C611 1.023 . S
C1093 C598 1.026 . S
C1099 C299 1.056 . S
C1113 C99 1.342 . S
C1119 C8 1.349 . S
C1133 C60 1.336 . S
C1139 C21 1.364 . S
C1153 C73 1.341 . S
C1159 C34 1.350 . S
C1173 C86 1.357 . S
C1179 C47 1.352 . S
C1193 C268 1.339 . S
C1199 C112 1.353 . S
C1213 C229 1.348 . S
C1219 C125 1.343 . S
C1233 C242 1.353 . S
C1239 C138 1.355 . S
C1253 C255 1.348 . S
C1259 C151 1.342 . S
C1273 C307 1.335 . S
C1279 C164 1.363 . S
C1293 C281 1.335 . S
C1299 C177 1.362 . S
C1313 C190 1.364 . S
C1319 C294 1.340 . S
C1333 C216 1.364 . S
C1339 C203 1.336 . S
C1353 C411 1.357 . S
C1359 C320 1.351 . S
C1373 C372 1.347 . S
C1379 C333 1.360 . S
C1393 C346 1.348 . S
C1399 C385 1.360 . S
C1413 C359 1.336 . S
C1419 C398 1.364 . S
C1433 C424 1.363 . S
C1439 C580 1.335 . S
C1453 C437 1.338 . S
C1459 C541 1.354 . S
C1473 C554 1.335 . S
C1479 C450 1.362 . S
C1493 C567 1.352 . S
C1499 C463 1.356 . S
C1513 C619 1.342 . S
C1519 C476 1.363 . S
C1533 C593 1.364 . S
C1539 C489 1.335 . S
C1553 C606 1.364 . S
C1559 C502 1.341 . S
C1573 C515 1.354 . S
C1579 C528 1.338 . S
C1593 C10 1.044 . S
C1599 C109 0.899 . S
C1613 C122 0.941 . S
C1619 C23 1.025 . S
C1633 C135 0.961 . S
C1639 C36 1.036 . S
C1653 C148 0.962 . S
C1659 C49 1.035 . S
C1673 C62 1.046 . S
C1679 C161 0.933 . S
C1693 C174 0.902 . S
C1699 C75 1.037 . S
C1713 C88 1.028 . S
C1719 C187 0.967 . S
C1733 C200 0.933 . S
C1739 C101 1.046 . S
C1753 C213 0.963 . S
C1759 C114 1.035 . S
C1773 C304 0.918 . S
C1779 C127 1.048 . S
C1793 C140 1.025 . S
C1799 C278 0.941 . S
C1813 C153 1.033 . S
C1819 C291 0.910 . S
C1833 C166 1.036 . S
C1839 C226 0.961 . S
C1853 C179 1.027 . S
C1859 C239 0.931 . S
C1873 C192 1.028 . S
C1879 C252 0.967 . S
C1893 C205 1.047 . S
C1899 C265 0.909 . S
C1913 C218 1.030 . S
C1919 C5 0.967 . S
C1933 C231 1.031 . S
C1939 C57 0.917 . S
C1953 C244 1.025 . S
C1959 C70 0.963 . S
C1973 C257 1.032 . S
C1979 C83 0.912 . S
C1993 C270 1.036 . S
C1999 C96 0.905 . S
C2013 C283 1.024 . S
C2019 C31 0.950 . S
C2033 C44 0.936 . S
C2039 C296 1.026 . S
C2053 C18 0.910 . S
C2059 C309 1.033 . S
C2073 C421 0.921 . S
C2079 C322 1.029 . S
C2093 C434 0.899 . S
C2099 C335 1.040 . S
C2113 C447 0.953 . S
C2119 C348 1.040 . S
C2133 C460 0.904 . S
C2139 C361 1.047 . S
C2153 C473 0.963 . S
C2159 C374 1.035 . S
C2173 C387 1.033 . S
C2179 C486 0.911 . S
C2193 C499 0.934 . S
C2199 C400 1.045 . S
C2213 C413 1.045 . S
C2219 C512 0.939 . S
C2233 C525 0.920 . S
C2239 C426 1.047 . S
C2253 C439 1.025 . S
C2259 C616 0.938 . S
C2273 C452 1.047 . S
C2279 C590 0.928 . S
C2293 C603 0.967 . S
C2299 C465 1.030 . S
C2313 C538 0.964 . S
C2319 C478 1.034 . S
C2333 C491 1.030 . S
C2339 C551 0.967 . S
C2353 C504 1.039 . S
C2359 C564 0.900 . S
C2373 C577 0.927 . S
C2379 C517 1.028 . S
C2393 C317 0.946 . S
C2399 C530 1.024 . S
C2413 C369 0.952 . S
C2419 C543 1.024 . S
C2433 C382 0.947 . S
C2439 C556 1.024 . S
C2453 C569 1.033 . S
C2459 C395 0.965 . S
C2473 C408 0.919 . S
C2479 C582 1.030 . S
C2493 C343 0.961 . S
C2499 C595 1.036 . S
C2513 C608 1.037 . S
C2519 C356 0.903 . S
C2533 C330 0.914 . S
C2539 C621 1.048 . S
