# Generated by pormake.
# Topology acs-a, (4)-cn, num edge types: 1
# Building blocks:
#     Node 0, Type 0, BuildingBlock: GALJAG_clean_sbu_0, # of connection points: 4
#     Node 1, Type 0, BuildingBlock: GALJAG_clean_sbu_0, # of connection points: 4
#     Node 2, Type 0, BuildingBlock: GALJAG_clean_sbu_0, # of connection points: 4
#     Node 3, Type 0, BuildingBlock: GALJAG_clean_sbu_0, # of connection points: 4
#     Node 4, Type 0, BuildingBlock: GALJAG_clean_sbu_0, # of connection points: 4
#     Node 5, Type 0, BuildingBlock: GALJAG_clean_sbu_0, # of connection points: 4
#     Node 6, Type 0, BuildingBlock: GALJAG_clean_sbu_0, # of connection points: 4
#     Node 7, Type 0, BuildingBlock: GALJAG_clean_sbu_0, # of connection points: 4
#     Node 8, Type 0, BuildingBlock: GALJAG_clean_sbu_0, # of connection points: 4
#     Node 9, Type 0, BuildingBlock: GALJAG_clean_sbu_0, # of connection points: 4
#     Node 10, Type 0, BuildingBlock: GALJAG_clean_sbu_0, # of connection points: 4
#     Node 11, Type 0, BuildingBlock: GALJAG_clean_sbu_0, # of connection points: 4
#     Edge 12, Type (0, 0), BuildingBlock: XIVTED_clean_linker_0, # of connection points: 2
#     Edge 13, Type (0, 0), BuildingBlock: XIVTED_clean_linker_0, # of connection points: 2
#     Edge 14, Type (0, 0), BuildingBlock: XIVTED_clean_linker_0, # of connection points: 2
#     Edge 15, Type (0, 0), BuildingBlock: XIVTED_clean_linker_0, # of connection points: 2
#     Edge 16, Type (0, 0), BuildingBlock: XIVTED_clean_linker_0, # of connection points: 2
#     Edge 17, Type (0, 0), BuildingBlock: XIVTED_clean_linker_0, # of connection points: 2
#     Edge 18, Type (0, 0), BuildingBlock: XIVTED_clean_linker_0, # of connection points: 2
#     Edge 19, Type (0, 0), BuildingBlock: XIVTED_clean_linker_0, # of connection points: 2
#     Edge 20, Type (0, 0), BuildingBlock: XIVTED_clean_linker_0, # of connection points: 2
#     Edge 21, Type (0, 0), BuildingBlock: XIVTED_clean_linker_0, # of connection points: 2
#     Edge 22, Type (0, 0), BuildingBlock: XIVTED_clean_linker_0, # of connection points: 2
#     Edge 23, Type (0, 0), BuildingBlock: XIVTED_clean_linker_0, # of connection points: 2
#     Edge 24, Type (0, 0), BuildingBlock: XIVTED_clean_linker_0, # of connection points: 2
#     Edge 25, Type (0, 0), BuildingBlock: XIVTED_clean_linker_0, # of connection points: 2
#     Edge 26, Type (0, 0), BuildingBlock: XIVTED_clean_linker_0, # of connection points: 2
#     Edge 27, Type (0, 0), BuildingBlock: XIVTED_clean_linker_0, # of connection points: 2
#     Edge 28, Type (0, 0), BuildingBlock: XIVTED_clean_linker_0, # of connection points: 2
#     Edge 29, Type (0, 0), BuildingBlock: XIVTED_clean_linker_0, # of connection points: 2
#     Edge 30, Type (0, 0), BuildingBlock: XIVTED_clean_linker_0, # of connection points: 2
#     Edge 31, Type (0, 0), BuildingBlock: XIVTED_clean_linker_0, # of connection points: 2
#     Edge 32, Type (0, 0), BuildingBlock: XIVTED_clean_linker_0, # of connection points: 2
#     Edge 33, Type (0, 0), BuildingBlock: XIVTED_clean_linker_0, # of connection points: 2
#     Edge 34, Type (0, 0), BuildingBlock: XIVTED_clean_linker_0, # of connection points: 2
#     Edge 35, Type (0, 0), BuildingBlock: XIVTED_clean_linker_0, # of connection points: 2
# Relax obj value: 0.468
# Max RMSD: 0.202
# Mean RMSD: 0.201
data_MOF--net-acs-a--node1-GALJAG_clean_sbu_0--edge1-XIVTED_clean_linker_0
_symmetry_space_group_name_H-M    P1
_symmetry_Int_Tables_number       1
_symmetry_cell_setting            triclinic
loop_
_symmetry_equiv_pos_as_xyz
'x, y, z'
_cell_length_a     52.307633
_cell_length_b     52.28433
_cell_length_c     29.668604
_cell_angle_alpha  89.91356
_cell_angle_beta   90.222578
_cell_angle_gamma 119.74716
loop_
_atom_site_label
_atom_site_type_symbol
_atom_site_fract_x
_atom_site_fract_y
_atom_site_fract_z
_atom_type_partial_charge
In0 In 0.62272 0.15506 0.03809 0.0
O1 O 0.61425 0.13248 0.10641 0.0
O2 O 0.6289 0.17839 0.10553 0.0
C3 C 0.67943 0.18865 0.01305 0.0
C4 C 0.5977 0.09918 0.00752 0.0
C5 C 0.59081 0.18017 0.01116 0.0
O6 O 0.67185 0.17965 0.05281 0.0
O7 O 0.65838 0.18001 0.98538 0.0
O8 O 0.6125 0.18274 0.989 0.0
O9 O 0.58527 0.16496 0.04651 0.0
C10 C 0.62092 0.15546 0.12885 0.0
O11 O 0.58448 0.11374 0.00879 0.0
O12 O 0.62418 0.11313 0.02024 0.0
In13 In 0.43158 0.60295 0.49042 0.0
O14 O 0.44181 0.59577 0.5621 0.0
O15 O 0.40717 0.60542 0.55271 0.0
C16 C 0.4551 0.65917 0.4625 0.0
C17 C 0.46572 0.57886 0.47493 0.0
C18 C 0.37785 0.57077 0.45257 0.0
O19 O 0.45042 0.65188 0.50346 0.0
O20 O 0.44874 0.63818 0.43561 0.0
O21 O 0.39805 0.59364 0.43423 0.0
O22 O 0.38498 0.56392 0.48936 0.0
C23 C 0.4218 0.59907 0.57994 0.0
O24 O 0.43855 0.56574 0.4663 0.0
O25 O 0.47611 0.60499 0.48857 0.0
In26 In 0.82762 0.43867 0.05187 0.0
O27 O 0.86476 0.46032 0.00111 0.0
O28 O 0.86644 0.48559 0.05793 0.0
C29 C 0.82259 0.38762 0.02179 0.0
C30 C 0.82368 0.4286 0.14145 0.0
C31 C 0.78334 0.44697 0.02273 0.0
O32 O 0.81625 0.40365 0.99785 0.0
O33 O 0.83224 0.39773 0.06054 0.0
O34 O 0.80275 0.46463 0.04976 0.0
O35 O 0.78603 0.42521 0.01166 0.0
C36 C 0.8785 0.48433 0.02204 0.0
O37 O 0.80128 0.42251 0.1176 0.0
O38 O 0.84767 0.44 0.12016 0.0
In39 In 0.37212 0.83106 0.45472 0.0
O40 O 0.40621 0.87469 0.42443 0.0
O41 O 0.3694 0.87312 0.45673 0.0
C42 C 0.40981 0.81268 0.42939 0.0
C43 C 0.37249 0.82312 0.54468 0.0
C44 C 0.31831 0.79956 0.4172 0.0
O45 O 0.38519 0.80373 0.41037 0.0
O46 O 0.41557 0.83131 0.46024 0.0
O47 O 0.32225 0.80445 0.45897 0.0
O48 O 0.34153 0.81108 0.39401 0.0
C49 C 0.39402 0.88879 0.43831 0.0
O50 O 0.36513 0.80217 0.51718 0.0
O51 O 0.37823 0.84724 0.52683 0.0
In52 In 0.5314 0.37542 0.0117 0.0
O53 O 0.55225 0.37138 0.07702 0.0
O54 O 0.52034 0.38512 0.08152 0.0
C55 C 0.51946 0.32077 0.98804 0.0
C56 C 0.49102 0.39042 0.98595 0.0
C57 C 0.58639 0.41391 0.98413 0.0
O58 O 0.51216 0.32645 0.02556 0.0
O59 O 0.53112 0.34231 0.96125 0.0
O60 O 0.56855 0.39255 0.96 0.0
O61 O 0.57592 0.41658 0.02085 0.0
C62 C 0.53827 0.37967 0.10198 0.0
O63 O 0.51836 0.40759 0.98313 0.0
O64 O 0.48383 0.36473 0.99877 0.0
In65 In 0.1442 0.55669 0.44612 0.0
O66 O 0.09686 0.53652 0.42057 0.0
O67 O 0.10822 0.50958 0.45914 0.0
C68 C 0.15974 0.60724 0.40095 0.0
C69 C 0.15394 0.57735 0.53139 0.0
C70 C 0.18108 0.53671 0.42528 0.0
O71 O 0.16364 0.58714 0.38473 0.0
O72 O 0.14724 0.60126 0.43871 0.0
O73 O 0.17211 0.53634 0.46484 0.0
O74 O 0.17087 0.54662 0.39563 0.0
C75 C 0.08812 0.51226 0.44032 0.0
O76 O 0.1743 0.57832 0.50744 0.0
O77 O 0.12911 0.56596 0.51243 0.0
In78 In 0.83199 0.3893 0.56097 0.0
O79 O 0.87666 0.42833 0.57922 0.0
O80 O 0.87387 0.38683 0.57122 0.0
C81 C 0.80939 0.42335 0.58714 0.0
C82 C 0.82498 0.3867 0.47054 0.0
C83 C 0.80103 0.3347 0.59567 0.0
O84 O 0.82334 0.42732 0.55091 0.0
O85 O 0.80756 0.40261 0.61131 0.0
O86 O 0.8078 0.33957 0.55458 0.0
O87 O 0.81006 0.35746 0.61976 0.0
C88 C 0.89021 0.41409 0.57707 0.0
O89 O 0.80383 0.38044 0.49704 0.0
O90 O 0.84897 0.39316 0.48972 0.0
In91 In 0.44025 0.82556 0.95519 0.0
O92 O 0.45354 0.86879 0.99004 0.0
O93 O 0.48748 0.86463 0.95809 0.0
C94 C 0.38635 0.81262 0.9843 0.0
C95 C 0.43036 0.81994 0.86548 0.0
C96 C 0.45518 0.78623 0.98665 0.0
O97 O 0.39824 0.82828 0.95006 0.0
O98 O 0.40175 0.80363 0.00422 0.0
O99 O 0.4579 0.79378 0.94577 0.0
O100 O 0.44609 0.7994 0.01183 0.0
C101 C 0.48032 0.88089 0.97958 0.0
O102 O 0.41707 0.79856 0.89226 0.0
O103 O 0.44926 0.84366 0.88381 0.0
In104 In 0.58539 0.42614 0.52111 0.0
O105 O 0.54871 0.43447 0.5438 0.0
O106 O 0.59065 0.4716 0.53102 0.0
C107 C 0.55341 0.36966 0.54898 0.0
C108 C 0.58281 0.42165 0.43064 0.0
C109 C 0.64076 0.44779 0.55236 0.0
O110 O 0.5696 0.39028 0.57548 0.0
O111 O 0.55271 0.37772 0.50925 0.0
O112 O 0.63514 0.45025 0.51172 0.0
O113 O 0.61848 0.43491 0.57738 0.0
C114 C 0.56405 0.46211 0.54097 0.0
O115 O 0.57047 0.43308 0.45274 0.0
O116 O 0.59723 0.41294 0.45416 0.0
In117 In 0.14845 0.62122 0.94497 0.0
O118 O 0.11033 0.61951 0.98577 0.0
O119 O 0.10027 0.59334 0.92697 0.0
C120 C 0.16278 0.58239 0.98111 0.0
C121 C 0.16247 0.62604 0.85691 0.0
C122 C 0.18284 0.67649 0.97559 0.0
O123 O 0.14222 0.57479 0.95284 0.0
O124 O 0.17575 0.6093 0.99135 0.0
O125 O 0.17471 0.67088 0.935 0.0
O126 O 0.17268 0.65427 0.00106 0.0
C127 C 0.09073 0.60151 0.95944 0.0
O128 O 0.14416 0.63269 0.87267 0.0
O129 O 0.17464 0.61783 0.8859 0.0
In130 In 0.56669 0.14474 0.54716 0.0
O131 O 0.58999 0.1721 0.48461 0.0
O132 O 0.5671 0.1254 0.47899 0.0
C133 C 0.54578 0.18169 0.56213 0.0
C134 C 0.52341 0.08864 0.55822 0.0
C135 C 0.61706 0.16286 0.59448 0.0
O136 O 0.54728 0.17268 0.52334 0.0
O137 O 0.55474 0.17192 0.5938 0.0
O138 O 0.5947 0.16225 0.61146 0.0
O139 O 0.61348 0.15336 0.55469 0.0
C140 C 0.58246 0.14986 0.45975 0.0
O141 O 0.55013 0.09667 0.56519 0.0
O142 O 0.51844 0.10932 0.54952 0.0
In143 In 0.35293 0.52521 0.98736 0.0
O144 O 0.37936 0.51021 0.02974 0.0
O145 O 0.34694 0.4788 0.98597 0.0
C146 C 0.39207 0.58019 0.01544 0.0
C147 C 0.36026 0.53675 0.89832 0.0
C148 C 0.29703 0.5088 0.01055 0.0
O149 O 0.36718 0.56511 0.03359 0.0
O150 O 0.39749 0.56714 0.98448 0.0
O151 O 0.30395 0.50436 0.97185 0.0
O152 O 0.3181 0.52003 0.03835 0.0
C153 C 0.36764 0.48467 0.01325 0.0
O154 O 0.34786 0.54678 0.9234 0.0
O155 O 0.36808 0.5203 0.91792 0.0
H156 H 0.612 0.19954 0.40789 0.0
H157 H 0.60211 0.10836 0.18534 0.0
H158 H 0.57154 0.10483 0.40268 0.0
H159 H 0.63339 0.20183 0.18485 0.0
H160 H 0.59495 0.10759 0.26666 0.0
H161 H 0.62395 0.20176 0.32762 0.0
C162 C 0.60573 0.17925 0.38988 0.0
C163 C 0.59065 0.15196 0.41182 0.0
C164 C 0.60348 0.12831 0.24885 0.0
C165 C 0.60426 0.1543 0.32036 0.0
C166 C 0.60763 0.12876 0.20243 0.0
C167 C 0.61823 0.15517 0.17835 0.0
C168 C 0.60999 0.15447 0.27144 0.0
C169 C 0.62508 0.18097 0.20218 0.0
C170 C 0.61252 0.18052 0.34412 0.0
C171 C 0.58307 0.12634 0.38701 0.0
N172 N 0.62074 0.17997 0.24745 0.0
N173 N 0.58992 0.12814 0.34264 0.0
H174 H 0.44719 0.5801 0.64174 0.0
H175 H 0.34384 0.56973 0.84658 0.0
H176 H 0.37937 0.60375 0.62747 0.0
H177 H 0.39389 0.52446 0.84251 0.0
H178 H 0.35955 0.58694 0.76923 0.0
H179 H 0.43183 0.56534 0.71935 0.0
C180 C 0.42921 0.58244 0.6551 0.0
C181 C 0.41443 0.59304 0.62812 0.0
C182 C 0.36693 0.57313 0.78529 0.0
C183 C 0.39658 0.57596 0.71691 0.0
C184 C 0.35795 0.56327 0.8293 0.0
C185 C 0.36756 0.54561 0.85084 0.0
C186 C 0.38589 0.56552 0.7631 0.0
C187 C 0.3859 0.53795 0.8271 0.0
C188 C 0.42033 0.57383 0.69934 0.0
C189 C 0.39129 0.59561 0.64719 0.0
N190 N 0.39459 0.54809 0.78462 0.0
N191 N 0.38299 0.58705 0.69052 0.0
H192 H 0.77527 0.40469 0.19696 0.0
H193 H 0.86795 0.39958 0.4089 0.0
H194 H 0.86873 0.43617 0.19605 0.0
H195 H 0.77775 0.37991 0.42013 0.0
H196 H 0.86659 0.4085 0.32867 0.0
H197 H 0.77395 0.39193 0.27702 0.0
C198 C 0.79548 0.40898 0.21362 0.0
C199 C 0.82216 0.42156 0.18992 0.0
C200 C 0.847 0.40212 0.34851 0.0
C201 C 0.82078 0.40682 0.28091 0.0
C202 C 0.84773 0.39688 0.39435 0.0
C203 C 0.82295 0.38909 0.42123 0.0
C204 C 0.8213 0.3996 0.32915 0.0
C205 C 0.79734 0.38589 0.40053 0.0
C206 C 0.79471 0.40167 0.2592 0.0
C207 C 0.84768 0.42658 0.213 0.0
N208 N 0.7972 0.3913 0.35564 0.0
N209 N 0.84633 0.41916 0.25708 0.0
H210 H 0.39274 0.77115 0.81594 0.0
H211 H 0.39391 0.8673 0.60638 0.0
H212 H 0.4492 0.86532 0.806 0.0
H213 H 0.36344 0.77434 0.59306 0.0
H214 H 0.40781 0.86541 0.68419 0.0
H215 H 0.37668 0.77042 0.73773 0.0
C216 C 0.40192 0.79159 0.7972 0.0
C217 C 0.42234 0.81835 0.8174 0.0
C218 C 0.398 0.84537 0.66436 0.0
C219 C 0.4037 0.81771 0.72877 0.0
C220 C 0.38984 0.84637 0.62 0.0
C221 C 0.3776 0.82094 0.59317 0.0
C222 C 0.39372 0.81871 0.68235 0.0
C223 C 0.37287 0.79446 0.61265 0.0
C224 C 0.39272 0.79115 0.75272 0.0
C225 C 0.43348 0.8442 0.79175 0.0
N226 N 0.38099 0.794 0.6562 0.0
N227 N 0.42384 0.84326 0.74894 0.0
H228 H 0.6052 0.39599 0.37452 0.0
H229 H 0.51364 0.401 0.16107 0.0
H230 H 0.55012 0.43591 0.37547 0.0
H231 H 0.57625 0.37016 0.1535 0.0
H232 H 0.52549 0.41199 0.24082 0.0
H233 H 0.5944 0.38519 0.29407 0.0
C234 C 0.59103 0.40265 0.35772 0.0
C235 C 0.57851 0.41682 0.38161 0.0
C236 C 0.53663 0.40277 0.2218 0.0
C237 C 0.56583 0.40432 0.29007 0.0
C238 C 0.52977 0.39638 0.17631 0.0
C239 C 0.54398 0.38465 0.15074 0.0
C240 C 0.55783 0.39734 0.24193 0.0
C241 C 0.56477 0.37917 0.17211 0.0
C242 C 0.5848 0.39643 0.3119 0.0
C243 C 0.56023 0.42493 0.35833 0.0
N244 N 0.5711 0.38559 0.21653 0.0
N245 N 0.55435 0.41845 0.31393 0.0
H246 H 0.11744 0.58965 0.57962 0.0
H247 H 0.19953 0.61126 0.81329 0.0
H248 H 0.20036 0.59081 0.58862 0.0
H249 H 0.13469 0.63794 0.78924 0.0
H250 H 0.20088 0.60338 0.732 0.0
H251 H 0.12332 0.60637 0.65748 0.0
C252 C 0.13697 0.59353 0.59804 0.0
C253 C 0.15838 0.58872 0.57784 0.0
C254 C 0.18669 0.61135 0.74456 0.0
C255 C 0.16522 0.60772 0.66719 0.0
C256 C 0.18591 0.61585 0.79086 0.0
C257 C 0.16678 0.62502 0.80798 0.0
C258 C 0.16793 0.61572 0.71551 0.0
C259 C 0.14963 0.63068 0.77752 0.0
C260 C 0.1404 0.60323 0.64244 0.0
C261 C 0.18335 0.59427 0.60311 0.0
N262 N 0.15036 0.6256 0.73287 0.0
N263 N 0.18596 0.60319 0.6468 0.0
H264 H 0.53941 0.06435 0.99045 0.0
H265 H 0.53951 0.91356 0.96099 0.0
H266 H 0.62036 0.06175 0.00289 0.0
H267 H 0.46624 0.92038 0.01344 0.0
H268 H 0.57009 0.96758 0.96508 0.0
H269 H 0.51233 0.01091 0.98405 0.0
C270 C 0.55154 0.05254 0.99129 0.0
C271 C 0.58213 0.06742 0.99755 0.0
C272 C 0.54737 0.95705 0.97599 0.0
C273 C 0.55121 0.00624 0.99057 0.0
C274 C 0.53 0.92637 0.97381 0.0
C275 C 0.50033 0.91258 0.9868 0.0
C276 C 0.53466 0.97377 0.99041 0.0
C277 C 0.48899 0.93008 0.00303 0.0
C278 C 0.53604 0.02203 0.988 0.0
C279 C 0.59673 0.051 0.99829 0.0
N280 N 0.50608 0.95977 0.00391 0.0
N281 N 0.58108 0.02111 0.99495 0.0
H282 H 0.44518 0.52055 0.46003 0.0
H283 H 0.59214 0.52217 0.53511 0.0
H284 H 0.5235 0.60088 0.4987 0.0
H285 H 0.50573 0.44504 0.5406 0.0
H286 H 0.56933 0.55199 0.5163 0.0
H287 H 0.46976 0.4928 0.4797 0.0
C288 C 0.46776 0.53241 0.47191 0.0
C289 C 0.48232 0.56302 0.47798 0.0
C290 C 0.55541 0.5286 0.52219 0.0
C291 C 0.51034 0.53138 0.50126 0.0
C292 C 0.56836 0.51163 0.53322 0.0
C293 C 0.55075 0.48112 0.53929 0.0
C294 C 0.52477 0.51478 0.51658 0.0
C295 C 0.5201 0.4685 0.53624 0.0
C296 C 0.48164 0.51652 0.48364 0.0
C297 C 0.51152 0.57726 0.4936 0.0
N298 N 0.50808 0.48535 0.52453 0.0
N299 N 0.5246 0.56127 0.50495 0.0
H300 H 0.06304 0.61001 0.03151 0.0
H301 H 0.90487 0.48955 0.94122 0.0
H302 H 0.04652 0.56727 0.90182 0.0
H303 H 0.91862 0.53177 0.0709 0.0
H304 H 0.95598 0.52368 0.92212 0.0
H305 H 0.00972 0.58699 0.04311 0.0
C306 C 0.04818 0.59601 0.00537 0.0
C307 C 0.05906 0.59011 0.96599 0.0
C308 C 0.94782 0.52578 0.9546 0.0
C309 C -0.00155 0.56392 0.97882 0.0
C310 C 0.91862 0.50629 0.96545 0.0
C311 C 0.90775 0.50765 0.00788 0.0
C312 C 0.96638 0.54649 0.98668 0.0
C313 C 0.92632 0.52992 0.0379 0.0
C314 C 0.01783 0.58294 0.01194 0.0
C315 C 0.03901 0.57204 0.93298 0.0
N316 N 0.95496 0.54826 0.02699 0.0
N317 N 0.00969 0.55941 0.94031 0.0
H318 H 0.46403 0.06502 0.54669 0.0
H319 H 0.45181 0.9259 0.41944 0.0
H320 H 0.53333 0.04294 0.54428 0.0
H321 H 0.37476 0.92426 0.47467 0.0
H322 H 0.48229 0.97494 0.45133 0.0
H323 H 0.43062 0.01728 0.51172 0.0
C324 C 0.47199 0.04986 0.53974 0.0
C325 C 0.50144 0.05786 0.54834 0.0
C326 C 0.45865 0.96395 0.45597 0.0
C327 C 0.46394 0.0042 0.50695 0.0
C328 C 0.4412 0.93618 0.43722 0.0
C329 C 0.41078 0.92089 0.44495 0.0
C330 C 0.44553 0.97659 0.48217 0.0
C331 C 0.3982 0.93528 0.46824 0.0
C332 C 0.45305 0.02285 0.51944 0.0
C333 C 0.51077 0.03759 0.5384 0.0
N334 N 0.41571 0.96233 0.48651 0.0
N335 N 0.49218 0.01185 0.51757 0.0
H336 H 0.41909 0.4985 0.0555 0.0
H337 H 0.43047 0.3585 0.98687 0.0
H338 H 0.34819 0.42917 0.97916 0.0
H339 H 0.50382 0.44738 0.98262 0.0
H340 H 0.39703 0.37855 0.99731 0.0
H341 H 0.44736 0.47315 0.04726 0.0
C342 C 0.40917 0.47759 0.03789 0.0
C343 C 0.38139 0.46606 0.01754 0.0
C344 C 0.42044 0.39348 0.9936 0.0
C345 C 0.41373 0.43719 0.00777 0.0
C346 C 0.43945 0.38215 0.9874 0.0
C347 C 0.46993 0.40134 0.98389 0.0
C348 C 0.43227 0.42403 0.99749 0.0
C349 C 0.4805 0.43177 0.98508 0.0
C350 C 0.42544 0.46334 0.03281 0.0
C351 C 0.36964 0.43886 0.99511 0.0
N352 N 0.46175 0.44216 0.99247 0.0
N353 N 0.38599 0.42532 0.99052 0.0
H354 H 0.92776 0.47276 0.56549 0.0
H355 H 0.0633 0.45793 0.47983 0.0
H356 H 0.92444 0.38858 0.56501 0.0
H357 H 0.04298 0.52369 0.43121 0.0
H358 H 0.01573 0.43329 0.51864 0.0
H359 H 0.97566 0.49469 0.52869 0.0
C360 C 0.93745 0.45904 0.55874 0.0
C361 C 0.92201 0.42875 0.56787 0.0
C362 C 0.02158 0.45286 0.49887 0.0
C363 C 0.9764 0.45357 0.52499 0.0
C364 C 0.04851 0.46673 0.47637 0.0
C365 C 0.05706 0.49291 0.45241 0.0
C366 C 0.00354 0.46566 0.49798 0.0
C367 C 0.03722 0.50353 0.44923 0.0
C368 C 0.96455 0.47148 0.53709 0.0
C369 C 0.93561 0.41202 0.55829 0.0
N370 N 0.01157 0.49013 0.47245 0.0
N371 N 0.96203 0.42462 0.53696 0.0
H372 H 0.60033 0.21702 0.93956 0.0
H373 H 0.49382 0.27065 0.03874 0.0
H374 H 0.54354 0.17743 0.05413 0.0
H375 H 0.54752 0.30871 0.92075 0.0
H376 H 0.50522 0.23073 0.03646 0.0
H377 H 0.57571 0.24562 0.92453 0.0
C378 C 0.58246 0.2141 0.96122 0.0
C379 C 0.57422 0.19516 0.99851 0.0
C380 C 0.51412 0.2475 0.01055 0.0
C381 C 0.54603 0.22778 0.98165 0.0
C382 C 0.50748 0.27023 0.01173 0.0
C383 C 0.52008 0.29321 0.98027 0.0
C384 C 0.53383 0.24798 0.97804 0.0
C385 C 0.53751 0.2915 0.94586 0.0
C386 C 0.56838 0.23039 0.9526 0.0
C387 C 0.55081 0.19205 0.02531 0.0
N388 N 0.54434 0.26957 0.94614 0.0
N389 N 0.53777 0.20843 0.01664 0.0
H390 H 0.33078 0.52205 0.4878 0.0
H391 H 0.21757 0.55307 0.35218 0.0
H392 H 0.35531 0.58511 0.3796 0.0
H393 H 0.19918 0.50626 0.47843 0.0
H394 H 0.2639 0.5522 0.34724 0.0
H395 H 0.279 0.50356 0.46948 0.0
C396 C 0.32527 0.53162 0.4596 0.0
C397 C 0.34728 0.55557 0.4358 0.0
C398 C 0.24938 0.54155 0.37549 0.0
C399 C 0.28816 0.53475 0.41499 0.0
C400 C 0.22291 0.54192 0.37822 0.0
C401 C 0.20493 0.53023 0.41624 0.0
C402 C 0.25766 0.5293 0.41094 0.0
C403 C 0.21276 0.51598 0.44896 0.0
C404 C 0.29571 0.52109 0.44921 0.0
C405 C 0.33895 0.5669 0.39924 0.0
N406 N 0.23876 0.51627 0.44588 0.0
N407 N 0.30997 0.55672 0.39042 0.0
H408 H 0.82997 0.34727 0.07032 0.0
H409 H 0.69947 0.21973 0.93449 0.0
H410 H 0.79595 0.3588 0.94384 0.0
H411 H 0.72808 0.21043 0.06706 0.0
H412 H 0.74539 0.26633 0.9255 0.0
H413 H 0.80439 0.29418 0.05727 0.0
C414 C 0.81771 0.33869 0.03925 0.0
C415 C 0.81432 0.35729 0.00872 0.0
C416 C 0.74195 0.25375 0.95613 0.0
C417 C 0.78465 0.29664 0.99393 0.0
C418 C 0.71577 0.22709 0.96121 0.0
C419 C 0.70967 0.21171 0.00211 0.0
C420 C 0.76191 0.26507 0.99236 0.0
C421 C 0.73166 0.22201 0.03538 0.0
C422 C 0.80305 0.30835 0.03183 0.0
C423 C 0.79859 0.3451 0.96872 0.0
N424 N 0.75656 0.24839 0.03018 0.0
N425 N 0.78375 0.31543 0.96293 0.0
H426 H 0.45905 0.82244 0.47551 0.0
H427 H 0.44817 0.67578 0.37809 0.0
H428 H 0.40229 0.77179 0.36551 0.0
H429 H 0.47758 0.70958 0.51227 0.0
H430 H 0.44794 0.72122 0.35876 0.0
H431 H 0.48213 0.79169 0.47355 0.0
C432 C 0.45193 0.8053 0.4502 0.0
C433 C 0.42825 0.79912 0.42133 0.0
C434 C 0.45516 0.71895 0.39205 0.0
C435 C 0.45448 0.76399 0.41904 0.0
C436 C 0.45543 0.69312 0.40305 0.0
C437 C 0.4623 0.68877 0.44712 0.0
C438 C 0.46204 0.74049 0.42531 0.0
C439 C 0.47163 0.71192 0.47814 0.0
C440 C 0.46508 0.78776 0.44919 0.0
C441 C 0.42013 0.77691 0.38891 0.0
N442 N 0.47081 0.73666 0.46684 0.0
N443 N 0.43291 0.75976 0.38911 0.0
H444 H 0.62889 0.46055 0.03127 0.0
H445 H 0.74668 0.41828 0.95269 0.0
H446 H 0.61657 0.40368 0.91823 0.0
H447 H 0.76409 0.48365 0.0548 0.0
H448 H 0.70246 0.41961 0.93068 0.0
H449 H 0.6815 0.47713 0.03052 0.0
C450 C 0.6374 0.45215 0.00549 0.0
C451 C 0.61831 0.43022 0.97541 0.0
C452 C 0.71609 0.43401 0.95749 0.0
C453 C 0.67828 0.44858 0.97498 0.0
C454 C 0.74129 0.43314 0.97022 0.0
C455 C 0.75869 0.45048 0.00618 0.0
C456 C 0.70792 0.45197 0.98141 0.0
C457 C 0.75101 0.46968 0.02723 0.0
C458 C 0.66744 0.46154 0.00519 0.0
C459 C 0.63049 0.42032 0.94245 0.0
N460 N 0.72585 0.46954 0.01506 0.0
N461 N 0.65964 0.42909 0.94375 0.0
H462 H 0.2004 0.63088 0.33314 0.0
H463 H 0.26442 0.78231 0.45329 0.0
H464 H 0.15168 0.65241 0.42807 0.0
H465 H 0.30654 0.76794 0.33916 0.0
H466 H 0.21824 0.73887 0.43206 0.0
H467 H 0.23385 0.68347 0.32105 0.0
C468 C 0.19619 0.64667 0.35035 0.0
C469 C 0.17383 0.63739 0.38265 0.0
C470 C 0.23734 0.74549 0.41093 0.0
C471 C 0.2122 0.6974 0.36974 0.0
C472 C 0.26372 0.77031 0.42314 0.0
C473 C 0.28935 0.77824 0.39847 0.0
C474 C 0.23686 0.72802 0.37458 0.0
C475 C 0.28726 0.76226 0.35937 0.0
C476 C 0.21536 0.67673 0.34358 0.0
C477 C 0.16915 0.6587 0.4037 0.0
N478 N 0.26161 0.73738 0.34927 0.0
N479 N 0.18861 0.68773 0.39769 0.0
H480 H 0.76985 0.41242 0.65495 0.0
H481 H 0.69261 0.47998 0.5076 0.0
H482 H 0.80967 0.46785 0.53894 0.0
H483 H 0.65662 0.43344 0.63221 0.0
H484 H 0.74003 0.48458 0.52735 0.0
H485 H 0.73332 0.42862 0.65692 0.0
C486 C 0.77135 0.42857 0.6306 0.0
C487 C 0.79232 0.43829 0.59607 0.0
C488 C 0.72195 0.47383 0.55085 0.0
C489 C 0.75044 0.45651 0.59761 0.0
C490 C 0.69487 0.47119 0.53952 0.0
C491 C 0.67058 0.4558 0.56791 0.0
C492 C 0.72458 0.46049 0.59044 0.0
C493 C 0.67475 0.44515 0.60911 0.0
C494 C 0.75044 0.43776 0.63163 0.0
C495 C 0.79347 0.45937 0.56562 0.0
N496 N 0.7011 0.44716 0.61874 0.0
N497 N 0.77243 0.46733 0.56654 0.0
H498 H 0.35562 0.77876 0.05629 0.0
H499 H 0.20737 0.72798 0.92811 0.0
H500 H 0.34699 0.82357 0.93996 0.0
H501 H 0.21369 0.69076 0.05472 0.0
H502 H 0.25565 0.77077 0.9422 0.0
H503 H 0.30236 0.75419 0.0667 0.0
C504 C 0.34255 0.78385 0.03346 0.0
C505 C 0.35555 0.80259 0.99654 0.0
C506 C 0.24624 0.75362 0.9675 0.0
C507 C 0.29466 0.77434 0.00779 0.0
C508 C 0.21861 0.7292 0.95947 0.0
C509 C 0.20697 0.7055 0.98972 0.0
C510 C 0.26247 0.75396 0.00558 0.0
C511 C 0.22218 0.70836 0.0301 0.0
C512 C 0.31213 0.76987 0.03943 0.0
C513 C 0.33772 0.80879 0.96837 0.0
N514 N 0.24954 0.73181 0.03635 0.0
N515 N 0.30808 0.79421 0.97401 0.0
H516 H 0.55284 0.21474 0.63756 0.0
H517 H 0.51506 0.32226 0.49916 0.0
H518 H 0.51812 0.19915 0.50202 0.0
H519 H 0.56276 0.34578 0.6252 0.0
H520 H 0.50334 0.27137 0.51027 0.0
H521 H 0.54462 0.25689 0.64308 0.0
C522 C 0.54298 0.21987 0.60931 0.0
C523 C 0.53664 0.20387 0.56897 0.0
C524 C 0.51592 0.28752 0.53594 0.0
C525 C 0.52721 0.2518 0.57501 0.0
C526 C 0.52254 0.31656 0.52968 0.0
C527 C 0.54041 0.3383 0.56087 0.0
C528 C 0.52756 0.28027 0.5734 0.0
C529 C 0.5492 0.32968 0.60007 0.0
C530 C 0.53834 0.24391 0.61245 0.0
C531 C 0.52378 0.21126 0.53347 0.0
N532 N 0.54318 0.30137 0.60483 0.0
N533 N 0.51979 0.23489 0.53714 0.0
H534 H 0.14926 0.5284 0.9474 0.0
H535 H 0.28133 0.52951 0.08376 0.0
H536 H 0.2005 0.59134 0.05065 0.0
H537 H 0.24822 0.48531 0.9564 0.0
H538 H 0.24019 0.53916 0.08717 0.0
H539 H 0.17419 0.50043 0.96551 0.0
C540 C 0.16528 0.53596 0.97453 0.0
C541 C 0.17328 0.56247 0.99704 0.0
C542 C 0.24157 0.52676 0.059 0.0
C543 C 0.2017 0.53069 0.01789 0.0
C544 C 0.26494 0.52107 0.05715 0.0
C545 C 0.2685 0.50716 0.01924 0.0
C546 C 0.22168 0.5184 0.02273 0.0
C547 C 0.24652 0.49656 0.98588 0.0
C548 C 0.17952 0.52005 0.98477 0.0
C549 C 0.19406 0.57125 0.03201 0.0
N550 N 0.22429 0.50286 0.98799 0.0
N551 N 0.20781 0.55558 0.04102 0.0
H552 H 0.63484 0.20033 0.66689 0.0
H553 H 0.79157 0.28296 0.55976 0.0
H554 H 0.66666 0.16268 0.56774 0.0
H555 H 0.76475 0.3186 0.66898 0.0
H556 H 0.75084 0.23404 0.57687 0.0
H557 H 0.6857 0.23784 0.68353 0.0
C558 C 0.65258 0.19938 0.64968 0.0
C559 C 0.6466 0.17897 0.61497 0.0
C560 C 0.75409 0.25237 0.59781 0.0
C561 C 0.70461 0.22196 0.63315 0.0
C562 C 0.77736 0.28031 0.58796 0.0
C563 C 0.78102 0.3048 0.61238 0.0
C564 C 0.73384 0.24907 0.63149 0.0
C565 C 0.76237 0.30022 0.64901 0.0
C566 C 0.68163 0.22089 0.65903 0.0
C567 C 0.67034 0.17852 0.59399 0.0
N568 N 0.73904 0.27294 0.65677 0.0
N569 N 0.69828 0.20014 0.60269 0.0
H570 H 0.44316 0.61824 0.97281 0.0
H571 H 0.4384 0.75817 0.0679 0.0
H572 H 0.38425 0.61449 0.07734 0.0
H573 H 0.47628 0.75551 0.94025 0.0
H574 H 0.43169 0.70956 0.08599 0.0
H575 H 0.46827 0.672 0.9758 0.0
C576 C 0.43592 0.62873 0.99713 0.0
C577 C 0.41122 0.61194 0.02426 0.0
C578 C 0.44203 0.7199 0.05445 0.0
C579 C 0.43974 0.67333 0.02761 0.0
C580 C 0.44598 0.74769 0.04415 0.0
C581 C 0.45741 0.76059 0.00213 0.0
C582 C 0.44969 0.70507 0.02256 0.0
C583 C 0.46698 0.74611 0.97274 0.0
C584 C 0.45022 0.6594 0.99869 0.0
C585 C 0.40296 0.62665 0.05539 0.0
N586 N 0.46253 0.71891 0.98325 0.0
N587 N 0.41692 0.65657 0.05575 0.0
loop_
_geom_bond_atom_site_label_1
_geom_bond_atom_site_label_2
_geom_bond_distance
_geom_bond_site_symmetry_2
_ccdc_geom_bond_type
In0 O1 2.296 . S
In0 O2 2.328 . S
In0 O6 2.266 1_554 S
In0 O7 2.324 1_554 S
In0 O8 2.265 1_554 S
In0 O9 2.326 . S
In0 O11 2.293 1_554 S
In0 O12 2.326 . S
O1 In0 2.296 . S
O1 C10 1.240 . S
O2 In0 2.328 . S
O2 C10 1.252 . S
C3 O6 1.252 . S
C3 O7 1.260 . S
C4 O11 1.240 . S
C4 O12 1.252 1_556 S
C5 O8 1.252 . S
C5 O9 1.260 1_556 S
O6 In0 2.266 1_556 S
O6 C3 1.252 . S
O7 In0 2.324 1_556 S
O7 C3 1.260 . S
O8 In0 2.265 1_556 S
O8 C5 1.252 . S
O9 In0 2.326 . S
O9 C5 1.260 1_554 S
C10 O1 1.240 . S
C10 O2 1.252 . S
O11 In0 2.293 1_556 S
O11 C4 1.240 . S
O12 In0 2.326 . S
O12 C4 1.252 1_554 S
In13 O14 2.294 . S
In13 O15 2.326 . S
In13 O19 2.266 . S
In13 O20 2.326 . S
In13 O21 2.266 . S
In13 O22 2.326 . S
In13 O24 2.294 . S
In13 O25 2.326 . S
O14 In13 2.294 . S
O14 C23 1.240 . S
O15 In13 2.326 . S
O15 C23 1.252 . S
C16 O19 1.252 . S
C16 O20 1.260 . S
C17 O24 1.240 . S
C17 O25 1.252 . S
C18 O21 1.252 . S
C18 O22 1.260 . S
O19 In13 2.266 . S
O19 C16 1.252 . S
O20 In13 2.326 . S
O20 C16 1.260 . S
O21 In13 2.266 . S
O21 C18 1.252 . S
O22 In13 2.326 . S
O22 C18 1.260 . S
C23 O14 1.240 . S
C23 O15 1.252 . S
O24 In13 2.294 . S
O24 C17 1.240 . S
O25 In13 2.326 . S
O25 C17 1.252 . S
In26 O27 2.293 1_554 S
In26 O28 2.326 . S
In26 O32 2.265 1_554 S
In26 O33 2.326 . S
In26 O34 2.266 1_554 S
In26 O35 2.324 1_554 S
In26 O37 2.296 . S
In26 O38 2.328 . S
O27 In26 2.293 1_556 S
O27 C36 1.240 . S
O28 In26 2.326 . S
O28 C36 1.252 1_554 S
C29 O32 1.252 . S
C29 O33 1.260 1_556 S
C30 O37 1.240 . S
C30 O38 1.252 . S
C31 O34 1.252 . S
C31 O35 1.260 . S
O32 In26 2.265 1_556 S
O32 C29 1.252 . S
O33 In26 2.326 . S
O33 C29 1.260 1_554 S
O34 In26 2.266 1_556 S
O34 C31 1.252 . S
O35 In26 2.324 1_556 S
O35 C31 1.260 . S
C36 O27 1.240 . S
C36 O28 1.252 1_556 S
O37 In26 2.296 . S
O37 C30 1.240 . S
O38 In26 2.328 . S
O38 C30 1.252 . S
In39 O40 2.294 . S
In39 O41 2.326 . S
In39 O45 2.266 . S
In39 O46 2.326 . S
In39 O47 2.266 . S
In39 O48 2.326 . S
In39 O50 2.294 . S
In39 O51 2.326 . S
O40 In39 2.294 . S
O40 C49 1.240 . S
O41 In39 2.326 . S
O41 C49 1.252 . S
C42 O45 1.252 . S
C42 O46 1.260 . S
C43 O50 1.240 . S
C43 O51 1.252 . S
C44 O47 1.252 . S
C44 O48 1.260 . S
O45 In39 2.266 . S
O45 C42 1.252 . S
O46 In39 2.326 . S
O46 C42 1.260 . S
O47 In39 2.266 . S
O47 C44 1.252 . S
O48 In39 2.326 . S
O48 C44 1.260 . S
C49 O40 1.240 . S
C49 O41 1.252 . S
O50 In39 2.294 . S
O50 C43 1.240 . S
O51 In39 2.326 . S
O51 C43 1.252 . S
In52 O53 2.296 . S
In52 O54 2.328 . S
In52 O58 2.266 1_554 S
In52 O59 2.324 1_554 S
In52 O60 2.265 1_554 S
In52 O61 2.326 . S
In52 O63 2.293 1_554 S
In52 O64 2.326 . S
O53 In52 2.296 . S
O53 C62 1.240 . S
O54 In52 2.328 . S
O54 C62 1.252 . S
C55 O58 1.252 . S
C55 O59 1.260 . S
C56 O63 1.240 . S
C56 O64 1.252 1_556 S
C57 O60 1.252 . S
C57 O61 1.260 1_556 S
O58 In52 2.266 1_556 S
O58 C55 1.252 . S
O59 In52 2.324 1_556 S
O59 C55 1.260 . S
O60 In52 2.265 1_556 S
O60 C57 1.252 . S
O61 In52 2.326 . S
O61 C57 1.260 1_554 S
C62 O53 1.240 . S
C62 O54 1.252 . S
O63 In52 2.293 1_556 S
O63 C56 1.240 . S
O64 In52 2.326 . S
O64 C56 1.252 1_554 S
In65 O66 2.294 . S
In65 O67 2.326 . S
In65 O71 2.266 . S
In65 O72 2.326 . S
In65 O73 2.266 . S
In65 O74 2.326 . S
In65 O76 2.294 . S
In65 O77 2.326 . S
O66 In65 2.294 . S
O66 C75 1.240 . S
O67 In65 2.326 . S
O67 C75 1.252 . S
C68 O71 1.252 . S
C68 O72 1.260 . S
C69 O76 1.240 . S
C69 O77 1.252 . S
C70 O73 1.252 . S
C70 O74 1.260 . S
O71 In65 2.266 . S
O71 C68 1.252 . S
O72 In65 2.326 . S
O72 C68 1.260 . S
O73 In65 2.266 . S
O73 C70 1.252 . S
O74 In65 2.326 . S
O74 C70 1.260 . S
C75 O66 1.240 . S
C75 O67 1.252 . S
O76 In65 2.294 . S
O76 C69 1.240 . S
O77 In65 2.326 . S
O77 C69 1.252 . S
In78 O79 2.294 . S
In78 O80 2.326 . S
In78 O84 2.266 . S
In78 O85 2.326 . S
In78 O86 2.266 . S
In78 O87 2.326 . S
In78 O89 2.294 . S
In78 O90 2.326 . S
O79 In78 2.294 . S
O79 C88 1.240 . S
O80 In78 2.326 . S
O80 C88 1.252 . S
C81 O84 1.252 . S
C81 O85 1.260 . S
C82 O89 1.240 . S
C82 O90 1.252 . S
C83 O86 1.252 . S
C83 O87 1.260 . S
O84 In78 2.266 . S
O84 C81 1.252 . S
O85 In78 2.326 . S
O85 C81 1.260 . S
O86 In78 2.266 . S
O86 C83 1.252 . S
O87 In78 2.326 . S
O87 C83 1.260 . S
C88 O79 1.240 . S
C88 O80 1.252 . S
O89 In78 2.294 . S
O89 C82 1.240 . S
O90 In78 2.326 . S
O90 C82 1.252 . S
In91 O92 2.293 1_556 S
In91 O93 2.326 . S
In91 O97 2.265 1_556 S
In91 O98 2.326 . S
In91 O99 2.266 1_556 S
In91 O100 2.324 1_556 S
In91 O102 2.296 . S
In91 O103 2.328 . S
O92 In91 2.293 1_554 S
O92 C101 1.240 . S
O93 In91 2.326 . S
O93 C101 1.252 1_556 S
C94 O97 1.252 . S
C94 O98 1.260 1_554 S
C95 O102 1.240 . S
C95 O103 1.252 . S
C96 O99 1.252 . S
C96 O100 1.260 . S
O97 In91 2.265 1_554 S
O97 C94 1.252 . S
O98 In91 2.326 . S
O98 C94 1.260 1_556 S
O99 In91 2.266 1_554 S
O99 C96 1.252 . S
O100 In91 2.324 1_554 S
O100 C96 1.260 . S
C101 O92 1.240 . S
C101 O93 1.252 1_554 S
O102 In91 2.296 . S
O102 C95 1.240 . S
O103 In91 2.328 . S
O103 C95 1.252 . S
In104 O105 2.294 . S
In104 O106 2.326 . S
In104 O110 2.266 . S
In104 O111 2.326 . S
In104 O112 2.266 . S
In104 O113 2.326 . S
In104 O115 2.294 . S
In104 O116 2.326 . S
O105 In104 2.294 . S
O105 C114 1.240 . S
O106 In104 2.326 . S
O106 C114 1.252 . S
C107 O110 1.252 . S
C107 O111 1.260 . S
C108 O115 1.240 . S
C108 O116 1.252 . S
C109 O112 1.252 . S
C109 O113 1.260 . S
O110 In104 2.266 . S
O110 C107 1.252 . S
O111 In104 2.326 . S
O111 C107 1.260 . S
O112 In104 2.266 . S
O112 C109 1.252 . S
O113 In104 2.326 . S
O113 C109 1.260 . S
C114 O105 1.240 . S
C114 O106 1.252 . S
O115 In104 2.294 . S
O115 C108 1.240 . S
O116 In104 2.326 . S
O116 C108 1.252 . S
In117 O118 2.293 1_556 S
In117 O119 2.326 . S
In117 O123 2.265 1_556 S
In117 O124 2.326 . S
In117 O125 2.266 1_556 S
In117 O126 2.324 1_556 S
In117 O128 2.296 . S
In117 O129 2.328 . S
O118 In117 2.293 1_554 S
O118 C127 1.240 . S
O119 In117 2.326 . S
O119 C127 1.252 1_556 S
C120 O123 1.252 . S
C120 O124 1.260 1_554 S
C121 O128 1.240 . S
C121 O129 1.252 . S
C122 O125 1.252 . S
C122 O126 1.260 . S
O123 In117 2.265 1_554 S
O123 C120 1.252 . S
O124 In117 2.326 . S
O124 C120 1.260 1_556 S
O125 In117 2.266 1_554 S
O125 C122 1.252 . S
O126 In117 2.324 1_554 S
O126 C122 1.260 . S
C127 O118 1.240 . S
C127 O119 1.252 1_554 S
O128 In117 2.296 . S
O128 C121 1.240 . S
O129 In117 2.328 . S
O129 C121 1.252 . S
In130 O131 2.294 . S
In130 O132 2.326 . S
In130 O136 2.266 . S
In130 O137 2.326 . S
In130 O138 2.266 . S
In130 O139 2.326 . S
In130 O141 2.294 . S
In130 O142 2.326 . S
O131 In130 2.294 . S
O131 C140 1.240 . S
O132 In130 2.326 . S
O132 C140 1.252 . S
C133 O136 1.252 . S
C133 O137 1.260 . S
C134 O141 1.240 . S
C134 O142 1.252 . S
C135 O138 1.252 . S
C135 O139 1.260 . S
O136 In130 2.266 . S
O136 C133 1.252 . S
O137 In130 2.326 . S
O137 C133 1.260 . S
O138 In130 2.266 . S
O138 C135 1.252 . S
O139 In130 2.326 . S
O139 C135 1.260 . S
C140 O131 1.240 . S
C140 O132 1.252 . S
O141 In130 2.294 . S
O141 C134 1.240 . S
O142 In130 2.326 . S
O142 C134 1.252 . S
In143 O144 2.293 1_556 S
In143 O145 2.326 . S
In143 O149 2.265 1_556 S
In143 O150 2.326 . S
In143 O151 2.266 1_556 S
In143 O152 2.324 1_556 S
In143 O154 2.296 . S
In143 O155 2.328 . S
O144 In143 2.293 1_554 S
O144 C153 1.240 . S
O145 In143 2.326 . S
O145 C153 1.252 1_556 S
C146 O149 1.252 . S
C146 O150 1.260 1_554 S
C147 O154 1.240 . S
C147 O155 1.252 . S
C148 O151 1.252 . S
C148 O152 1.260 . S
O149 In143 2.265 1_554 S
O149 C146 1.252 . S
O150 In143 2.326 . S
O150 C146 1.260 1_556 S
O151 In143 2.266 1_554 S
O151 C148 1.252 . S
O152 In143 2.324 1_554 S
O152 C148 1.260 . S
C153 O144 1.240 . S
C153 O145 1.252 1_554 S
O154 In143 2.296 . S
O154 C147 1.240 . S
O155 In143 2.328 . S
O155 C147 1.252 . S
H156 C162 0.930 . S
H157 C166 0.930 . S
H158 C171 0.929 . S
H159 C169 0.929 . S
H160 C164 0.929 . S
H161 C170 0.929 . S
C162 H156 0.930 . S
C162 C163 1.367 . S
C162 C170 1.378 . S
C163 C162 1.367 . S
C163 C171 1.433 . S
C164 H160 0.929 . S
C164 C166 1.378 . S
C164 C168 1.350 . S
C165 C168 1.463 . S
C165 C170 1.350 . S
C165 N173 1.427 . S
C166 H157 0.930 . S
C166 C164 1.378 . S
C166 C167 1.367 . S
C167 C166 1.367 . S
C167 C169 1.433 . S
C168 C164 1.350 . S
C168 C165 1.463 . S
C168 N172 1.427 . S
C169 H159 0.929 . S
C169 C167 1.433 . S
C169 N172 1.384 . S
C170 H161 0.929 . S
C170 C162 1.378 . S
C170 C165 1.350 . S
C171 H158 0.929 . S
C171 C163 1.433 . S
C171 N173 1.384 . S
N172 C168 1.427 . S
N172 C169 1.384 . S
N173 C165 1.427 . S
N173 C171 1.384 . S
H174 C180 0.930 . S
H175 C184 0.930 . S
H176 C189 0.929 . S
H177 C187 0.929 . S
H178 C182 0.929 . S
H179 C188 0.929 . S
C180 H174 0.930 . S
C180 C181 1.367 . S
C180 C188 1.378 . S
C181 C180 1.367 . S
C181 C189 1.433 . S
C182 H178 0.929 . S
C182 C184 1.378 . S
C182 C186 1.350 . S
C183 C186 1.463 . S
C183 C188 1.350 . S
C183 N191 1.427 . S
C184 H175 0.930 . S
C184 C182 1.378 . S
C184 C185 1.367 . S
C185 C184 1.367 . S
C185 C187 1.433 . S
C186 C182 1.350 . S
C186 C183 1.463 . S
C186 N190 1.427 . S
C187 H177 0.929 . S
C187 C185 1.433 . S
C187 N190 1.384 . S
C188 H179 0.929 . S
C188 C180 1.378 . S
C188 C183 1.350 . S
C189 H176 0.929 . S
C189 C181 1.433 . S
C189 N191 1.384 . S
N190 C186 1.427 . S
N190 C187 1.384 . S
N191 C183 1.427 . S
N191 C189 1.384 . S
H192 C198 0.930 . S
H193 C202 0.930 . S
H194 C207 0.929 . S
H195 C205 0.929 . S
H196 C200 0.929 . S
H197 C206 0.929 . S
C198 H192 0.930 . S
C198 C199 1.367 . S
C198 C206 1.378 . S
C199 C198 1.367 . S
C199 C207 1.433 . S
C200 H196 0.929 . S
C200 C202 1.378 . S
C200 C204 1.350 . S
C201 C204 1.463 . S
C201 C206 1.350 . S
C201 N209 1.427 . S
C202 H193 0.930 . S
C202 C200 1.378 . S
C202 C203 1.367 . S
C203 C202 1.367 . S
C203 C205 1.433 . S
C204 C200 1.350 . S
C204 C201 1.463 . S
C204 N208 1.427 . S
C205 H195 0.929 . S
C205 C203 1.433 . S
C205 N208 1.384 . S
C206 H197 0.929 . S
C206 C198 1.378 . S
C206 C201 1.350 . S
C207 H194 0.929 . S
C207 C199 1.433 . S
C207 N209 1.384 . S
N208 C204 1.427 . S
N208 C205 1.384 . S
N209 C201 1.427 . S
N209 C207 1.384 . S
H210 C216 0.930 . S
H211 C220 0.930 . S
H212 C225 0.929 . S
H213 C223 0.929 . S
H214 C218 0.929 . S
H215 C224 0.929 . S
C216 H210 0.930 . S
C216 C217 1.367 . S
C216 C224 1.378 . S
C217 C216 1.367 . S
C217 C225 1.433 . S
C218 H214 0.929 . S
C218 C220 1.378 . S
C218 C222 1.350 . S
C219 C222 1.463 . S
C219 C224 1.350 . S
C219 N227 1.427 . S
C220 H211 0.930 . S
C220 C218 1.378 . S
C220 C221 1.367 . S
C221 C220 1.367 . S
C221 C223 1.433 . S
C222 C218 1.350 . S
C222 C219 1.463 . S
C222 N226 1.427 . S
C223 H213 0.929 . S
C223 C221 1.433 . S
C223 N226 1.384 . S
C224 H215 0.929 . S
C224 C216 1.378 . S
C224 C219 1.350 . S
C225 H212 0.929 . S
C225 C217 1.433 . S
C225 N227 1.384 . S
N226 C222 1.427 . S
N226 C223 1.384 . S
N227 C219 1.427 . S
N227 C225 1.384 . S
H228 C234 0.930 . S
H229 C238 0.930 . S
H230 C243 0.929 . S
H231 C241 0.929 . S
H232 C236 0.929 . S
H233 C242 0.929 . S
C234 H228 0.930 . S
C234 C235 1.367 . S
C234 C242 1.378 . S
C235 C234 1.367 . S
C235 C243 1.433 . S
C236 H232 0.929 . S
C236 C238 1.378 . S
C236 C240 1.350 . S
C237 C240 1.463 . S
C237 C242 1.350 . S
C237 N245 1.427 . S
C238 H229 0.930 . S
C238 C236 1.378 . S
C238 C239 1.367 . S
C239 C238 1.367 . S
C239 C241 1.433 . S
C240 C236 1.350 . S
C240 C237 1.463 . S
C240 N244 1.427 . S
C241 H231 0.929 . S
C241 C239 1.433 . S
C241 N244 1.384 . S
C242 H233 0.929 . S
C242 C234 1.378 . S
C242 C237 1.350 . S
C243 H230 0.929 . S
C243 C235 1.433 . S
C243 N245 1.384 . S
N244 C240 1.427 . S
N244 C241 1.384 . S
N245 C237 1.427 . S
N245 C243 1.384 . S
H246 C252 0.930 . S
H247 C256 0.930 . S
H248 C261 0.929 . S
H249 C259 0.929 . S
H250 C254 0.929 . S
H251 C260 0.929 . S
C252 H246 0.930 . S
C252 C253 1.367 . S
C252 C260 1.378 . S
C253 C252 1.367 . S
C253 C261 1.433 . S
C254 H250 0.929 . S
C254 C256 1.378 . S
C254 C258 1.350 . S
C255 C258 1.463 . S
C255 C260 1.350 . S
C255 N263 1.427 . S
C256 H247 0.930 . S
C256 C254 1.378 . S
C256 C257 1.367 . S
C257 C256 1.367 . S
C257 C259 1.433 . S
C258 C254 1.350 . S
C258 C255 1.463 . S
C258 N262 1.427 . S
C259 H249 0.929 . S
C259 C257 1.433 . S
C259 N262 1.384 . S
C260 H251 0.929 . S
C260 C252 1.378 . S
C260 C255 1.350 . S
C261 H248 0.929 . S
C261 C253 1.433 . S
C261 N263 1.384 . S
N262 C258 1.427 . S
N262 C259 1.384 . S
N263 C255 1.427 . S
N263 C261 1.384 . S
H264 C270 0.930 . S
H265 C274 0.930 . S
H266 C279 0.929 . S
H267 C277 0.929 . S
H268 C272 0.929 . S
H269 C278 0.929 . S
C270 H264 0.930 . S
C270 C271 1.367 1_554 S
C270 C278 1.378 . S
C271 C270 1.367 1_556 S
C271 C279 1.433 . S
C272 H268 0.929 . S
C272 C274 1.378 . S
C272 C276 1.350 1_556 S
C273 C276 1.463 1_546 S
C273 C278 1.350 1_556 S
C273 N281 1.427 . S
C274 H265 0.930 . S
C274 C272 1.378 . S
C274 C275 1.367 1_556 S
C275 C274 1.367 1_554 S
C275 C277 1.433 . S
C276 C272 1.350 1_554 S
C276 C273 1.463 1_564 S
C276 N280 1.427 . S
C277 H267 0.929 . S
C277 C275 1.433 . S
C277 N280 1.384 . S
C278 H269 0.929 . S
C278 C270 1.378 . S
C278 C273 1.350 1_554 S
C279 H266 0.929 . S
C279 C271 1.433 . S
C279 N281 1.384 . S
N280 C276 1.427 . S
N280 C277 1.384 . S
N281 C273 1.427 . S
N281 C279 1.384 . S
H282 C288 0.930 . S
H283 C292 0.930 . S
H284 C297 0.929 . S
H285 C295 0.929 . S
H286 C290 0.929 . S
H287 C296 0.929 . S
C288 H282 0.930 . S
C288 C289 1.367 . S
C288 C296 1.378 . S
C289 C288 1.367 . S
C289 C297 1.433 . S
C290 H286 0.929 . S
C290 C292 1.378 . S
C290 C294 1.350 . S
C291 C294 1.463 . S
C291 C296 1.350 . S
C291 N299 1.427 . S
C292 H283 0.930 . S
C292 C290 1.378 . S
C292 C293 1.367 . S
C293 C292 1.367 . S
C293 C295 1.433 . S
C294 C290 1.350 . S
C294 C291 1.463 . S
C294 N298 1.427 . S
C295 H285 0.929 . S
C295 C293 1.433 . S
C295 N298 1.384 . S
C296 H287 0.929 . S
C296 C288 1.378 . S
C296 C291 1.350 . S
C297 H284 0.929 . S
C297 C289 1.433 . S
C297 N299 1.384 . S
N298 C294 1.427 . S
N298 C295 1.384 . S
N299 C291 1.427 . S
N299 C297 1.384 . S
H300 C306 0.930 . S
H301 C310 0.930 . S
H302 C315 0.929 . S
H303 C313 0.929 . S
H304 C308 0.929 . S
H305 C314 0.929 . S
C306 H300 0.930 . S
C306 C307 1.367 . S
C306 C314 1.378 . S
C307 C306 1.367 . S
C307 C315 1.433 1_554 S
C308 H304 0.929 . S
C308 C310 1.378 . S
C308 C312 1.350 . S
C309 C312 1.463 1_454 S
C309 C314 1.350 . S
C309 N317 1.427 1_554 S
C310 H301 0.930 . S
C310 C308 1.378 . S
C310 C311 1.367 . S
C311 C310 1.367 . S
C311 C313 1.433 1_556 S
C312 C308 1.350 . S
C312 C309 1.463 1_656 S
C312 N316 1.427 1_556 S
C313 H303 0.929 . S
C313 C311 1.433 1_554 S
C313 N316 1.384 . S
C314 H305 0.929 . S
C314 C306 1.378 . S
C314 C309 1.350 . S
C315 H302 0.929 . S
C315 C307 1.433 1_556 S
C315 N317 1.384 . S
N316 C312 1.427 1_554 S
N316 C313 1.384 . S
N317 C309 1.427 1_556 S
N317 C315 1.384 . S
H318 C324 0.930 . S
H319 C328 0.930 . S
H320 C333 0.929 . S
H321 C331 0.929 . S
H322 C326 0.929 . S
H323 C332 0.929 . S
C324 H318 0.930 . S
C324 C325 1.367 . S
C324 C332 1.378 . S
C325 C324 1.367 . S
C325 C333 1.433 . S
C326 H322 0.929 . S
C326 C328 1.378 . S
C326 C330 1.350 . S
C327 C330 1.463 1_545 S
C327 C332 1.350 . S
C327 N335 1.427 . S
C328 H319 0.930 . S
C328 C326 1.378 . S
C328 C329 1.367 . S
C329 C328 1.367 . S
C329 C331 1.433 . S
C330 C326 1.350 . S
C330 C327 1.463 1_565 S
C330 N334 1.427 . S
C331 H321 0.929 . S
C331 C329 1.433 . S
C331 N334 1.384 . S
C332 H323 0.929 . S
C332 C324 1.378 . S
C332 C327 1.350 . S
C333 H320 0.929 . S
C333 C325 1.433 . S
C333 N335 1.384 . S
N334 C330 1.427 . S
N334 C331 1.384 . S
N335 C327 1.427 . S
N335 C333 1.384 . S
H336 C342 0.930 . S
H337 C346 0.930 . S
H338 C351 0.929 . S
H339 C349 0.929 . S
H340 C344 0.929 . S
H341 C350 0.929 . S
C342 H336 0.930 . S
C342 C343 1.367 1_556 S
C342 C350 1.378 . S
C343 C342 1.367 1_554 S
C343 C351 1.433 . S
C344 H340 0.929 . S
C344 C346 1.378 . S
C344 C348 1.350 1_554 S
C345 C348 1.463 1_554 S
C345 C350 1.350 1_554 S
C345 N353 1.427 . S
C346 H337 0.930 . S
C346 C344 1.378 . S
C346 C347 1.367 1_554 S
C347 C346 1.367 1_556 S
C347 C349 1.433 . S
C348 C344 1.350 1_556 S
C348 C345 1.463 1_556 S
C348 N352 1.427 . S
C349 H339 0.929 . S
C349 C347 1.433 . S
C349 N352 1.384 . S
C350 H341 0.929 . S
C350 C342 1.378 . S
C350 C345 1.350 1_556 S
C351 H338 0.929 . S
C351 C343 1.433 . S
C351 N353 1.384 . S
N352 C348 1.427 . S
N352 C349 1.384 . S
N353 C345 1.427 . S
N353 C351 1.384 . S
H354 C360 0.930 . S
H355 C364 0.930 . S
H356 C369 0.929 . S
H357 C367 0.929 . S
H358 C362 0.929 . S
H359 C368 0.929 . S
C360 H354 0.930 . S
C360 C361 1.367 . S
C360 C368 1.378 . S
C361 C360 1.367 . S
C361 C369 1.433 . S
C362 H358 0.929 . S
C362 C364 1.378 . S
C362 C366 1.350 . S
C363 C366 1.463 1_655 S
C363 C368 1.350 . S
C363 N371 1.427 . S
C364 H355 0.930 . S
C364 C362 1.378 . S
C364 C365 1.367 . S
C365 C364 1.367 . S
C365 C367 1.433 . S
C366 C362 1.350 . S
C366 C363 1.463 1_455 S
C366 N370 1.427 . S
C367 H357 0.929 . S
C367 C365 1.433 . S
C367 N370 1.384 . S
C368 H359 0.929 . S
C368 C360 1.378 . S
C368 C363 1.350 . S
C369 H356 0.929 . S
C369 C361 1.433 . S
C369 N371 1.384 . S
N370 C366 1.427 . S
N370 C367 1.384 . S
N371 C363 1.427 . S
N371 C369 1.384 . S
H372 C378 0.930 . S
H373 C382 0.930 1_554 S
H374 C387 0.929 . S
H375 C385 0.929 . S
H376 C380 0.929 1_554 S
H377 C386 0.929 . S
C378 H372 0.930 . S
C378 C379 1.367 . S
C378 C386 1.378 . S
C379 C378 1.367 . S
C379 C387 1.433 1_556 S
C380 H376 0.929 1_556 S
C380 C382 1.378 . S
C380 C384 1.350 . S
C381 C384 1.463 . S
C381 C386 1.350 . S
C381 N389 1.427 1_556 S
C382 H373 0.930 1_556 S
C382 C380 1.378 . S
C382 C383 1.367 . S
C383 C382 1.367 . S
C383 C385 1.433 . S
C384 C380 1.350 . S
C384 C381 1.463 . S
C384 N388 1.427 . S
C385 H375 0.929 . S
C385 C383 1.433 . S
C385 N388 1.384 . S
C386 H377 0.929 . S
C386 C378 1.378 . S
C386 C381 1.350 . S
C387 H374 0.929 . S
C387 C379 1.433 1_554 S
C387 N389 1.384 . S
N388 C384 1.427 . S
N388 C385 1.384 . S
N389 C381 1.427 1_554 S
N389 C387 1.384 . S
H390 C396 0.930 . S
H391 C400 0.930 . S
H392 C405 0.929 . S
H393 C403 0.929 . S
H394 C398 0.929 . S
H395 C404 0.929 . S
C396 H390 0.930 . S
C396 C397 1.367 . S
C396 C404 1.378 . S
C397 C396 1.367 . S
C397 C405 1.433 . S
C398 H394 0.929 . S
C398 C400 1.378 . S
C398 C402 1.350 . S
C399 C402 1.463 . S
C399 C404 1.350 . S
C399 N407 1.427 . S
C400 H391 0.930 . S
C400 C398 1.378 . S
C400 C401 1.367 . S
C401 C400 1.367 . S
C401 C403 1.433 . S
C402 C398 1.350 . S
C402 C399 1.463 . S
C402 N406 1.427 . S
C403 H393 0.929 . S
C403 C401 1.433 . S
C403 N406 1.384 . S
C404 H395 0.929 . S
C404 C396 1.378 . S
C404 C399 1.350 . S
C405 H392 0.929 . S
C405 C397 1.433 . S
C405 N407 1.384 . S
N406 C402 1.427 . S
N406 C403 1.384 . S
N407 C399 1.427 . S
N407 C405 1.384 . S
H408 C414 0.930 . S
H409 C418 0.930 . S
H410 C423 0.929 . S
H411 C421 0.929 1_554 S
H412 C416 0.929 . S
H413 C422 0.929 . S
C414 H408 0.930 . S
C414 C415 1.367 1_554 S
C414 C422 1.378 . S
C415 C414 1.367 1_556 S
C415 C423 1.433 . S
C416 H412 0.929 . S
C416 C418 1.378 . S
C416 C420 1.350 . S
C417 C420 1.463 . S
C417 C422 1.350 1_556 S
C417 N425 1.427 . S
C418 H409 0.930 . S
C418 C416 1.378 . S
C418 C419 1.367 . S
C419 C418 1.367 . S
C419 C421 1.433 . S
C420 C416 1.350 . S
C420 C417 1.463 . S
C420 N424 1.427 . S
C421 H411 0.929 1_556 S
C421 C419 1.433 . S
C421 N424 1.384 . S
C422 H413 0.929 . S
C422 C414 1.378 . S
C422 C417 1.350 1_554 S
C423 H410 0.929 . S
C423 C415 1.433 . S
C423 N425 1.384 . S
N424 C420 1.427 . S
N424 C421 1.384 . S
N425 C417 1.427 . S
N425 C423 1.384 . S
H426 C432 0.930 . S
H427 C436 0.930 . S
H428 C441 0.929 . S
H429 C439 0.929 . S
H430 C434 0.929 . S
H431 C440 0.929 . S
C432 H426 0.930 . S
C432 C433 1.367 . S
C432 C440 1.378 . S
C433 C432 1.367 . S
C433 C441 1.433 . S
C434 H430 0.929 . S
C434 C436 1.378 . S
C434 C438 1.350 . S
C435 C438 1.463 . S
C435 C440 1.350 . S
C435 N443 1.427 . S
C436 H427 0.930 . S
C436 C434 1.378 . S
C436 C437 1.367 . S
C437 C436 1.367 . S
C437 C439 1.433 . S
C438 C434 1.350 . S
C438 C435 1.463 . S
C438 N442 1.427 . S
C439 H429 0.929 . S
C439 C437 1.433 . S
C439 N442 1.384 . S
C440 H431 0.929 . S
C440 C432 1.378 . S
C440 C435 1.350 . S
C441 H428 0.929 . S
C441 C433 1.433 . S
C441 N443 1.384 . S
N442 C438 1.427 . S
N442 C439 1.384 . S
N443 C435 1.427 . S
N443 C441 1.384 . S
H444 C450 0.930 . S
H445 C454 0.930 . S
H446 C459 0.929 . S
H447 C457 0.929 . S
H448 C452 0.929 . S
H449 C458 0.929 1_554 S
C450 H444 0.930 . S
C450 C451 1.367 1_554 S
C450 C458 1.378 1_554 S
C451 C450 1.367 1_556 S
C451 C459 1.433 . S
C452 H448 0.929 . S
C452 C454 1.378 . S
C452 C456 1.350 . S
C453 C456 1.463 . S
C453 C458 1.350 . S
C453 N461 1.427 . S
C454 H445 0.930 . S
C454 C452 1.378 . S
C454 C455 1.367 . S
C455 C454 1.367 . S
C455 C457 1.433 . S
C456 C452 1.350 . S
C456 C453 1.463 . S
C456 N460 1.427 . S
C457 H447 0.929 . S
C457 C455 1.433 . S
C457 N460 1.384 . S
C458 H449 0.929 1_556 S
C458 C450 1.378 1_556 S
C458 C453 1.350 . S
C459 H446 0.929 . S
C459 C451 1.433 . S
C459 N461 1.384 . S
N460 C456 1.427 . S
N460 C457 1.384 . S
N461 C453 1.427 . S
N461 C459 1.384 . S
H462 C468 0.930 . S
H463 C472 0.930 . S
H464 C477 0.929 . S
H465 C475 0.929 . S
H466 C470 0.929 . S
H467 C476 0.929 . S
C468 H462 0.930 . S
C468 C469 1.367 . S
C468 C476 1.378 . S
C469 C468 1.367 . S
C469 C477 1.433 . S
C470 H466 0.929 . S
C470 C472 1.378 . S
C470 C474 1.350 . S
C471 C474 1.463 . S
C471 C476 1.350 . S
C471 N479 1.427 . S
C472 H463 0.930 . S
C472 C470 1.378 . S
C472 C473 1.367 . S
C473 C472 1.367 . S
C473 C475 1.433 . S
C474 C470 1.350 . S
C474 C471 1.463 . S
C474 N478 1.427 . S
C475 H465 0.929 . S
C475 C473 1.433 . S
C475 N478 1.384 . S
C476 H467 0.929 . S
C476 C468 1.378 . S
C476 C471 1.350 . S
C477 H464 0.929 . S
C477 C469 1.433 . S
C477 N479 1.384 . S
N478 C474 1.427 . S
N478 C475 1.384 . S
N479 C471 1.427 . S
N479 C477 1.384 . S
H480 C486 0.930 . S
H481 C490 0.930 . S
H482 C495 0.929 . S
H483 C493 0.929 . S
H484 C488 0.929 . S
H485 C494 0.929 . S
C486 H480 0.930 . S
C486 C487 1.367 . S
C486 C494 1.378 . S
C487 C486 1.367 . S
C487 C495 1.433 . S
C488 H484 0.929 . S
C488 C490 1.378 . S
C488 C492 1.350 . S
C489 C492 1.463 . S
C489 C494 1.350 . S
C489 N497 1.427 . S
C490 H481 0.930 . S
C490 C488 1.378 . S
C490 C491 1.367 . S
C491 C490 1.367 . S
C491 C493 1.433 . S
C492 C488 1.350 . S
C492 C489 1.463 . S
C492 N496 1.427 . S
C493 H483 0.929 . S
C493 C491 1.433 . S
C493 N496 1.384 . S
C494 H485 0.929 . S
C494 C486 1.378 . S
C494 C489 1.350 . S
C495 H482 0.929 . S
C495 C487 1.433 . S
C495 N497 1.384 . S
N496 C492 1.427 . S
N496 C493 1.384 . S
N497 C489 1.427 . S
N497 C495 1.384 . S
H498 C504 0.926 1_556 S
H499 C508 0.930 . S
H500 C513 0.929 . S
H501 C511 0.929 . S
H502 C506 0.929 . S
H503 C512 0.929 1_556 S
C504 H498 0.926 1_554 S
C504 C505 1.370 . S
C504 C512 1.379 . S
C505 C504 1.370 . S
C505 C513 1.433 . S
C506 H502 0.929 . S
C506 C508 1.378 . S
C506 C510 1.350 . S
C507 C510 1.463 . S
C507 C512 1.350 . S
C507 N515 1.427 . S
C508 H499 0.930 . S
C508 C506 1.378 . S
C508 C509 1.367 . S
C509 C508 1.367 . S
C509 C511 1.433 . S
C510 C506 1.350 . S
C510 C507 1.463 . S
C510 N514 1.427 . S
C511 H501 0.929 . S
C511 C509 1.433 . S
C511 N514 1.384 . S
C512 H503 0.929 1_554 S
C512 C504 1.379 . S
C512 C507 1.350 . S
C513 H500 0.929 . S
C513 C505 1.433 . S
C513 N515 1.384 . S
N514 C510 1.427 . S
N514 C511 1.384 . S
N515 C507 1.427 . S
N515 C513 1.384 . S
H516 C522 0.930 . S
H517 C526 0.930 . S
H518 C531 0.929 . S
H519 C529 0.929 . S
H520 C524 0.929 . S
H521 C530 0.929 . S
C522 H516 0.930 . S
C522 C523 1.367 . S
C522 C530 1.378 . S
C523 C522 1.367 . S
C523 C531 1.433 . S
C524 H520 0.929 . S
C524 C526 1.378 . S
C524 C528 1.350 . S
C525 C528 1.463 . S
C525 C530 1.350 . S
C525 N533 1.427 . S
C526 H517 0.930 . S
C526 C524 1.378 . S
C526 C527 1.367 . S
C527 C526 1.367 . S
C527 C529 1.433 . S
C528 C524 1.350 . S
C528 C525 1.463 . S
C528 N532 1.427 . S
C529 H519 0.929 . S
C529 C527 1.433 . S
C529 N532 1.384 . S
C530 H521 0.929 . S
C530 C522 1.378 . S
C530 C525 1.350 . S
C531 H518 0.929 . S
C531 C523 1.433 . S
C531 N533 1.384 . S
N532 C528 1.427 . S
N532 C529 1.384 . S
N533 C525 1.427 . S
N533 C531 1.384 . S
H534 C540 0.930 . S
H535 C544 0.930 . S
H536 C549 0.929 . S
H537 C547 0.929 . S
H538 C542 0.929 . S
H539 C548 0.929 1_556 S
C540 H534 0.930 . S
C540 C541 1.367 1_556 S
C540 C548 1.378 1_556 S
C541 C540 1.367 1_554 S
C541 C549 1.433 . S
C542 H538 0.929 . S
C542 C544 1.378 . S
C542 C546 1.350 . S
C543 C546 1.463 . S
C543 C548 1.350 . S
C543 N551 1.427 . S
C544 H535 0.930 . S
C544 C542 1.378 . S
C544 C545 1.367 . S
C545 C544 1.367 . S
C545 C547 1.433 . S
C546 C542 1.350 . S
C546 C543 1.463 . S
C546 N550 1.427 . S
C547 H537 0.929 . S
C547 C545 1.433 . S
C547 N550 1.384 . S
C548 H539 0.929 1_554 S
C548 C540 1.378 1_554 S
C548 C543 1.350 . S
C549 H536 0.929 . S
C549 C541 1.433 . S
C549 N551 1.384 . S
N550 C546 1.427 . S
N550 C547 1.384 . S
N551 C543 1.427 . S
N551 C549 1.384 . S
H552 C558 0.930 . S
H553 C562 0.930 . S
H554 C567 0.929 . S
H555 C565 0.929 . S
H556 C560 0.929 . S
H557 C566 0.929 . S
C558 H552 0.930 . S
C558 C559 1.367 . S
C558 C566 1.378 . S
C559 C558 1.367 . S
C559 C567 1.433 . S
C560 H556 0.929 . S
C560 C562 1.378 . S
C560 C564 1.350 . S
C561 C564 1.463 . S
C561 C566 1.350 . S
C561 N569 1.427 . S
C562 H553 0.930 . S
C562 C560 1.378 . S
C562 C563 1.367 . S
C563 C562 1.367 . S
C563 C565 1.433 . S
C564 C560 1.350 . S
C564 C561 1.463 . S
C564 N568 1.427 . S
C565 H555 0.929 . S
C565 C563 1.433 . S
C565 N568 1.384 . S
C566 H557 0.929 . S
C566 C558 1.378 . S
C566 C561 1.350 . S
C567 H554 0.929 . S
C567 C559 1.433 . S
C567 N569 1.384 . S
N568 C564 1.427 . S
N568 C565 1.384 . S
N569 C561 1.427 . S
N569 C567 1.384 . S
H570 C576 0.930 . S
H571 C580 0.930 . S
H572 C585 0.929 . S
H573 C583 0.929 1_556 S
H574 C578 0.929 . S
H575 C584 0.929 . S
C576 H570 0.930 . S
C576 C577 1.367 1_556 S
C576 C584 1.378 . S
C577 C576 1.367 1_554 S
C577 C585 1.433 . S
C578 H574 0.929 . S
C578 C580 1.378 . S
C578 C582 1.350 . S
C579 C582 1.463 . S
C579 C584 1.350 1_554 S
C579 N587 1.427 . S
C580 H571 0.930 . S
C580 C578 1.378 . S
C580 C581 1.367 . S
C581 C580 1.367 . S
C581 C583 1.433 . S
C582 C578 1.350 . S
C582 C579 1.463 . S
C582 N586 1.427 . S
C583 H573 0.929 1_554 S
C583 C581 1.433 . S
C583 N586 1.384 . S
C584 H575 0.929 . S
C584 C576 1.378 . S
C584 C579 1.350 1_556 S
C585 H572 0.929 . S
C585 C577 1.433 . S
C585 N587 1.384 . S
N586 C582 1.427 . S
N586 C583 1.384 . S
N587 C579 1.427 . S
N587 C585 1.384 . S
C163 C140 1.679 . S
C167 C10 1.676 . S
C181 C23 1.680 . S
C185 C147 1.674 . S
C199 C30 1.677 . S
C203 C82 1.682 . S
C217 C95 1.679 . S
C221 C43 1.683 . S
C235 C108 1.685 . S
C239 C62 1.681 . S
C253 C69 1.686 . S
C257 C121 1.680 . S
C271 C4 1.042 . S
C275 C101 1.047 . S
C289 C17 1.092 . S
C293 C114 1.092 . S
C307 C127 1.062 . S
C311 C36 1.063 . S
C325 C134 1.087 . S
C329 C49 1.082 . S
C343 C153 1.041 . S
C347 C56 1.045 . S
C361 C88 1.076 . S
C365 C75 1.081 . S
C379 C5 1.195 . S
C383 C55 1.115 . S
C397 C18 1.231 . S
C401 C70 1.174 . S
C415 C29 1.192 . S
C419 C3 1.137 . S
C433 C42 1.231 . S
C437 C16 1.173 . S
C451 C57 1.194 . S
C455 C31 1.129 . S
C469 C68 1.237 . S
C473 C44 1.151 . S
C487 C81 1.232 . S
C491 C109 1.161 . S
C505 C94 1.189 . S
C509 C122 1.138 . S
C523 C133 1.170 . S
C527 C107 1.233 . S
C541 C120 1.194 . S
C545 C148 1.128 . S
C559 C135 1.237 . S
C563 C83 1.151 . S
C577 C146 1.192 . S
C581 C96 1.136 . S
