# Generated by pormake.
# Topology uot, (4)-cn, num edge types: 1
# Building blocks:
#     Node 0, Type 0, BuildingBlock: KUFVIS_clean_sbu_0, # of connection points: 4
#     Node 1, Type 0, BuildingBlock: KUFVIS_clean_sbu_0, # of connection points: 4
#     Node 2, Type 0, BuildingBlock: KUFVIS_clean_sbu_0, # of connection points: 4
#     Node 3, Type 0, BuildingBlock: KUFVIS_clean_sbu_0, # of connection points: 4
#     Node 4, Type 0, BuildingBlock: KUFVIS_clean_sbu_0, # of connection points: 4
#     Node 5, Type 0, BuildingBlock: KUFVIS_clean_sbu_0, # of connection points: 4
#     Node 6, Type 0, BuildingBlock: KUFVIS_clean_sbu_0, # of connection points: 4
#     Node 7, Type 0, BuildingBlock: KUFVIS_clean_sbu_0, # of connection points: 4
#     Node 8, Type 0, BuildingBlock: KUFVIS_clean_sbu_0, # of connection points: 4
#     Node 9, Type 0, BuildingBlock: KUFVIS_clean_sbu_0, # of connection points: 4
#     Node 10, Type 0, BuildingBlock: KUFVIS_clean_sbu_0, # of connection points: 4
#     Node 11, Type 0, BuildingBlock: KUFVIS_clean_sbu_0, # of connection points: 4
#     Node 12, Type 0, BuildingBlock: KUFVIS_clean_sbu_0, # of connection points: 4
#     Node 13, Type 0, BuildingBlock: KUFVIS_clean_sbu_0, # of connection points: 4
#     Node 14, Type 0, BuildingBlock: KUFVIS_clean_sbu_0, # of connection points: 4
#     Node 15, Type 0, BuildingBlock: KUFVIS_clean_sbu_0, # of connection points: 4
#     Edge 16, Type (0, 0), BuildingBlock: EZIPEK_clean_linker_0, # of connection points: 2
#     Edge 17, Type (0, 0), BuildingBlock: EZIPEK_clean_linker_0, # of connection points: 2
#     Edge 18, Type (0, 0), BuildingBlock: EZIPEK_clean_linker_0, # of connection points: 2
#     Edge 19, Type (0, 0), BuildingBlock: EZIPEK_clean_linker_0, # of connection points: 2
#     Edge 20, Type (0, 0), BuildingBlock: EZIPEK_clean_linker_0, # of connection points: 2
#     Edge 21, Type (0, 0), BuildingBlock: EZIPEK_clean_linker_0, # of connection points: 2
#     Edge 22, Type (0, 0), BuildingBlock: EZIPEK_clean_linker_0, # of connection points: 2
#     Edge 23, Type (0, 0), BuildingBlock: EZIPEK_clean_linker_0, # of connection points: 2
#     Edge 24, Type (0, 0), BuildingBlock: EZIPEK_clean_linker_0, # of connection points: 2
#     Edge 25, Type (0, 0), BuildingBlock: EZIPEK_clean_linker_0, # of connection points: 2
#     Edge 26, Type (0, 0), BuildingBlock: EZIPEK_clean_linker_0, # of connection points: 2
#     Edge 27, Type (0, 0), BuildingBlock: EZIPEK_clean_linker_0, # of connection points: 2
#     Edge 28, Type (0, 0), BuildingBlock: EZIPEK_clean_linker_0, # of connection points: 2
#     Edge 29, Type (0, 0), BuildingBlock: EZIPEK_clean_linker_0, # of connection points: 2
#     Edge 30, Type (0, 0), BuildingBlock: EZIPEK_clean_linker_0, # of connection points: 2
#     Edge 31, Type (0, 0), BuildingBlock: EZIPEK_clean_linker_0, # of connection points: 2
#     Edge 32, Type (0, 0), BuildingBlock: EZIPEK_clean_linker_0, # of connection points: 2
#     Edge 33, Type (0, 0), BuildingBlock: EZIPEK_clean_linker_0, # of connection points: 2
#     Edge 34, Type (0, 0), BuildingBlock: EZIPEK_clean_linker_0, # of connection points: 2
#     Edge 35, Type (0, 0), BuildingBlock: EZIPEK_clean_linker_0, # of connection points: 2
#     Edge 36, Type (0, 0), BuildingBlock: EZIPEK_clean_linker_0, # of connection points: 2
#     Edge 37, Type (0, 0), BuildingBlock: EZIPEK_clean_linker_0, # of connection points: 2
#     Edge 38, Type (0, 0), BuildingBlock: EZIPEK_clean_linker_0, # of connection points: 2
#     Edge 39, Type (0, 0), BuildingBlock: EZIPEK_clean_linker_0, # of connection points: 2
#     Edge 40, Type (0, 0), BuildingBlock: EZIPEK_clean_linker_0, # of connection points: 2
#     Edge 41, Type (0, 0), BuildingBlock: EZIPEK_clean_linker_0, # of connection points: 2
#     Edge 42, Type (0, 0), BuildingBlock: EZIPEK_clean_linker_0, # of connection points: 2
#     Edge 43, Type (0, 0), BuildingBlock: EZIPEK_clean_linker_0, # of connection points: 2
#     Edge 44, Type (0, 0), BuildingBlock: EZIPEK_clean_linker_0, # of connection points: 2
#     Edge 45, Type (0, 0), BuildingBlock: EZIPEK_clean_linker_0, # of connection points: 2
#     Edge 46, Type (0, 0), BuildingBlock: EZIPEK_clean_linker_0, # of connection points: 2
#     Edge 47, Type (0, 0), BuildingBlock: EZIPEK_clean_linker_0, # of connection points: 2
# Relax obj value: 0.078
# Max RMSD: 0.117
# Mean RMSD: 0.117
data_MOF--net-uot--node1-KUFVIS_clean_sbu_0--edge1-EZIPEK_clean_linker_0
_symmetry_space_group_name_H-M    P1
_symmetry_Int_Tables_number       1
_symmetry_cell_setting            triclinic
loop_
_symmetry_equiv_pos_as_xyz
'x, y, z'
_cell_length_a     32.493781
_cell_length_b     32.516938
_cell_length_c     29.510463
_cell_angle_alpha  90.0099
_cell_angle_beta   89.933825
_cell_angle_gamma 89.988941
loop_
_atom_site_label
_atom_site_type_symbol
_atom_site_fract_x
_atom_site_fract_y
_atom_site_fract_z
_atom_type_partial_charge
Mn0 Mn 0.20061 0.44719 0.31599 0.0
Mn1 Mn 0.16935 0.37008 0.38378 0.0
C2 C 0.15602 0.39718 0.28817 0.0
C3 C 0.18874 0.51318 0.28857 0.0
C4 C 0.25507 0.37587 0.34228 0.0
O5 O 0.2156 0.46728 0.37948 0.0
O6 O 0.18359 0.41889 0.42129 0.0
C7 C 0.09276 0.40596 0.42124 0.0
N8 N 0.1121 0.37564 0.39751 0.0
C9 C 0.04824 0.33971 0.38589 0.0
C10 C 0.02768 0.37044 0.4104 0.0
C11 C 0.05003 0.40375 0.42806 0.0
C12 C 0.09087 0.3435 0.38029 0.0
H13 H 0.10977 0.4317 0.43477 0.0
C14 C 0.20281 0.45319 0.41741 0.0
O15 O 0.22527 0.49701 0.28632 0.0
O16 O 0.16024 0.49203 0.30833 0.0
N17 N 0.15373 0.32177 0.35088 0.0
C18 C 0.17805 0.29494 0.32756 0.0
C19 C 0.16022 0.26036 0.30691 0.0
C20 C 0.11768 0.25354 0.31074 0.0
C21 C 0.09339 0.28116 0.33558 0.0
C22 C 0.1129 0.31496 0.35565 0.0
H23 H 0.21075 0.29995 0.32445 0.0
O24 O 0.17745 0.41963 0.26062 0.0
O25 O 0.1619 0.4046 0.33083 0.0
O26 O 0.24904 0.40744 0.31755 0.0
O27 O 0.22847 0.36128 0.36998 0.0
C28 C 0.05054 0.27664 0.34094 0.0
C29 C 0.02799 0.30584 0.36615 0.0
H30 H 0.9947 0.36896 0.41554 0.0
H31 H 0.03435 0.42769 0.44683 0.0
H32 H 0.17919 0.23914 0.28787 0.0
H33 H 0.10401 0.227 0.29446 0.0
H34 H 0.03457 0.25093 0.3256 0.0
H35 H 0.99501 0.30221 0.36972 0.0
Mn36 Mn 0.44519 0.80577 0.68247 0.0
Mn37 Mn 0.36592 0.83315 0.61443 0.0
C38 C 0.39234 0.8466 0.71042 0.0
C39 C 0.5099 0.82017 0.71245 0.0
C40 C 0.37613 0.74788 0.65474 0.0
O41 O 0.46785 0.79508 0.61931 0.0
O42 O 0.41576 0.82068 0.57674 0.0
C43 C 0.39475 0.91082 0.57255 0.0
N44 N 0.3681 0.8906 0.6003 0.0
C45 C 0.32975 0.95281 0.61385 0.0
C46 C 0.35795 0.97454 0.58702 0.0
C47 C 0.39039 0.95336 0.56594 0.0
C48 C 0.33585 0.91045 0.61937 0.0
H49 H 0.41851 0.89444 0.55485 0.0
C50 C 0.45195 0.80514 0.58133 0.0
O51 O 0.49566 0.78284 0.71233 0.0
O52 O 0.48757 0.84831 0.69366 0.0
N53 N 0.3171 0.84647 0.64794 0.0
C54 C 0.29129 0.82075 0.67086 0.0
C55 C 0.25627 0.83686 0.69241 0.0
C56 C 0.24798 0.87918 0.69 0.0
C57 C 0.27448 0.90492 0.66547 0.0
C58 C 0.30879 0.88708 0.64445 0.0
H59 H 0.29743 0.7882 0.67303 0.0
O60 O 0.41518 0.82531 0.73774 0.0
O61 O 0.4004 0.84217 0.6676 0.0
O62 O 0.40857 0.75476 0.67783 0.0
O63 O 0.35956 0.77423 0.6284 0.0
C64 C 0.26814 0.94759 0.661 0.0
C65 C 0.29571 0.97151 0.63515 0.0
H66 H 0.35459 0.00734 0.58174 0.0
H67 H 0.4117 0.96968 0.5442 0.0
H68 H 0.23587 0.81674 0.71109 0.0
H69 H 0.2211 0.89154 0.70695 0.0
H70 H 0.24206 0.96229 0.67717 0.0
H71 H 0.29042 0.00425 0.63178 0.0
Mn72 Mn 0.80178 0.54954 0.31891 0.0
Mn73 Mn 0.82998 0.62912 0.38521 0.0
C74 C 0.84613 0.59938 0.29104 0.0
C75 C 0.81398 0.48337 0.29231 0.0
C76 C 0.74672 0.62302 0.3397 0.0
O77 O 0.78631 0.52988 0.38211 0.0
O78 O 0.80898 0.58306 0.42326 0.0
C79 C 0.90086 0.5897 0.43078 0.0
N80 N 0.88543 0.62051 0.40454 0.0
C81 C 0.95234 0.6515 0.39696 0.0
C82 C 0.96893 0.62016 0.424 0.0
C83 C 0.94307 0.58912 0.44094 0.0
C84 C 0.91004 0.65048 0.388 0.0
H85 H 0.88112 0.56568 0.44368 0.0
C86 C 0.79102 0.54804 0.42008 0.0
O87 O 0.77747 0.49948 0.28977 0.0
O88 O 0.84244 0.50475 0.31187 0.0
N89 N 0.85111 0.67549 0.35275 0.0
C90 C 0.83013 0.70383 0.32781 0.0
C91 C 0.85153 0.73694 0.30831 0.0
C92 C 0.89415 0.74078 0.31507 0.0
C93 C 0.91485 0.71186 0.34193 0.0
C94 C 0.89183 0.67973 0.36081 0.0
H95 H 0.79737 0.70104 0.32249 0.0
O96 O 0.82513 0.57648 0.26358 0.0
O97 O 0.83982 0.59275 0.3339 0.0
O98 O 0.75261 0.58883 0.31948 0.0
O99 O 0.77315 0.64041 0.36539 0.0
C100 C 0.95744 0.7136 0.35066 0.0
C101 C 0.97618 0.68342 0.37812 0.0
H102 H 0.00149 0.61952 0.4318 0.0
H103 H 0.95567 0.56477 0.46172 0.0
H104 H 0.83525 0.75931 0.28793 0.0
H105 H 0.91061 0.76614 0.29965 0.0
H106 H 0.97611 0.73792 0.33626 0.0
H107 H 0.00899 0.68492 0.38432 0.0
Mn108 Mn 0.55502 0.19381 0.6849 0.0
Mn109 Mn 0.63435 0.16832 0.6159 0.0
C110 C 0.60833 0.15304 0.71169 0.0
C111 C 0.49029 0.1788 0.71445 0.0
C112 C 0.62316 0.25286 0.65775 0.0
O113 O 0.53221 0.2053 0.62208 0.0
O114 O 0.5842 0.1803 0.5788 0.0
C115 C 0.60714 0.09086 0.5724 0.0
N116 N 0.63329 0.11107 0.60066 0.0
C117 C 0.6737 0.04976 0.61149 0.0
C118 C 0.64607 0.02797 0.58406 0.0
C119 C 0.61279 0.04871 0.56417 0.0
C120 C 0.66623 0.09168 0.61874 0.0
H121 H 0.58288 0.10702 0.55535 0.0
C122 C 0.54793 0.19552 0.5839 0.0
O123 O 0.50448 0.21614 0.71515 0.0
O124 O 0.51281 0.15091 0.69537 0.0
N125 N 0.68344 0.15544 0.64902 0.0
C126 C 0.70852 0.18123 0.67277 0.0
C127 C 0.7439 0.16549 0.69382 0.0
C128 C 0.75339 0.12352 0.68993 0.0
C129 C 0.72764 0.09774 0.66456 0.0
C130 C 0.69277 0.11516 0.64434 0.0
H131 H 0.70151 0.21353 0.676 0.0
O132 O 0.58529 0.17358 0.73959 0.0
O133 O 0.60003 0.15795 0.66902 0.0
O134 O 0.59117 0.24516 0.68129 0.0
O135 O 0.63975 0.22718 0.63061 0.0
C136 C 0.73531 0.05547 0.65842 0.0
C137 C 0.70846 0.03153 0.63173 0.0
H138 H 0.65047 0.99549 0.57748 0.0
H139 H 0.5919 0.03239 0.542 0.0
H140 H 0.76369 0.18564 0.71319 0.0
H141 H 0.78063 0.11146 0.70636 0.0
H142 H 0.7619 0.0411 0.67386 0.0
H143 H 0.71482 0.99911 0.627 0.0
Mn144 Mn 0.19984 0.55271 0.68667 0.0
Mn145 Mn 0.16701 0.62901 0.61865 0.0
C146 C 0.15446 0.60205 0.7147 0.0
C147 C 0.18907 0.48664 0.7146 0.0
C148 C 0.25305 0.62467 0.65943 0.0
O149 O 0.21494 0.53262 0.62319 0.0
O150 O 0.18174 0.58015 0.58139 0.0
C151 C 0.09071 0.592 0.58202 0.0
N152 N 0.10976 0.62261 0.60554 0.0
C153 C 0.04537 0.65734 0.61832 0.0
C154 C 0.02508 0.62618 0.59426 0.0
C155 C 0.04786 0.59338 0.57604 0.0
C156 C 0.08814 0.65438 0.6231 0.0
H157 H 0.10805 0.5666 0.56815 0.0
C158 C 0.2017 0.54628 0.58528 0.0
O159 O 0.22536 0.50335 0.71646 0.0
O160 O 0.16022 0.50729 0.69485 0.0
N161 N 0.15095 0.67735 0.65128 0.0
C162 C 0.17514 0.70503 0.67347 0.0
C163 C 0.157 0.73956 0.69394 0.0
C164 C 0.11426 0.74544 0.69113 0.0
C165 C 0.09011 0.71704 0.66728 0.0
C166 C 0.10995 0.68341 0.64721 0.0
H167 H 0.208 0.70073 0.67582 0.0
O168 O 0.17648 0.5801 0.74209 0.0
O169 O 0.16038 0.59471 0.67198 0.0
O170 O 0.24761 0.59321 0.6845 0.0
O171 O 0.2261 0.63866 0.63181 0.0
C172 C 0.04709 0.72069 0.66281 0.0
C173 C 0.02474 0.69087 0.63834 0.0
H174 H 0.99201 0.62702 0.58977 0.0
H175 H 0.03241 0.56917 0.55751 0.0
H176 H 0.17589 0.76145 0.71208 0.0
H177 H 0.10034 0.77192 0.70732 0.0
H178 H 0.03087 0.74622 0.67823 0.0
H179 H 0.99165 0.69385 0.63543 0.0
Mn180 Mn 0.55366 0.80165 0.31426 0.0
Mn181 Mn 0.63286 0.82667 0.38312 0.0
C182 C 0.60707 0.84238 0.28737 0.0
C183 C 0.48902 0.81737 0.28525 0.0
C184 C 0.62117 0.74211 0.34127 0.0
O185 O 0.53087 0.79009 0.37733 0.0
O186 O 0.5824 0.81608 0.4204 0.0
C187 C 0.60691 0.90517 0.42542 0.0
N188 N 0.63271 0.88413 0.39743 0.0
C189 C 0.67339 0.94491 0.38436 0.0
C190 C 0.6461 0.96751 0.41149 0.0
C191 C 0.61289 0.94745 0.43241 0.0
C192 C 0.66566 0.90286 0.37847 0.0
H193 H 0.58264 0.88958 0.44315 0.0
C194 C 0.54617 0.80073 0.41544 0.0
O195 O 0.50289 0.77992 0.28408 0.0
O196 O 0.51175 0.84489 0.30454 0.0
N197 N 0.68214 0.83833 0.34963 0.0
C198 C 0.70684 0.81186 0.32626 0.0
C199 C 0.74225 0.82683 0.30451 0.0
C200 C 0.75208 0.86879 0.30719 0.0
C201 C 0.72667 0.89533 0.33211 0.0
C202 C 0.69184 0.87862 0.35323 0.0
H203 H 0.69961 0.77957 0.324 0.0
O204 O 0.58387 0.82213 0.25947 0.0
O205 O 0.59882 0.83715 0.33001 0.0
O206 O 0.58978 0.7502 0.31699 0.0
O207 O 0.6372 0.76743 0.36921 0.0
C208 C 0.73458 0.9377 0.33686 0.0
C209 C 0.70804 0.96245 0.36309 0.0
H210 H 0.65072 0.00011 0.41704 0.0
H211 H 0.59226 0.96443 0.45434 0.0
H212 H 0.76183 0.80607 0.28557 0.0
H213 H 0.7793 0.88027 0.29015 0.0
H214 H 0.76111 0.95154 0.32066 0.0
H215 H 0.71457 0.99495 0.36673 0.0
Mn216 Mn 0.8007 0.44701 0.68598 0.0
Mn217 Mn 0.83004 0.37027 0.61642 0.0
C218 C 0.84514 0.39646 0.7123 0.0
C219 C 0.81268 0.51256 0.71411 0.0
C220 C 0.74523 0.37613 0.66005 0.0
O221 O 0.78564 0.46819 0.62325 0.0
O222 O 0.81453 0.41911 0.57938 0.0
C223 C 0.90558 0.40682 0.57725 0.0
N224 N 0.88693 0.37619 0.60115 0.0
C225 C 0.9513 0.34077 0.61119 0.0
C226 C 0.97115 0.3718 0.58645 0.0
C227 C 0.94819 0.40501 0.56951 0.0
C228 C 0.90876 0.34419 0.61777 0.0
H229 H 0.8881 0.43251 0.56433 0.0
C230 C 0.79644 0.45384 0.58471 0.0
O231 O 0.7762 0.49635 0.7164 0.0
O232 O 0.84126 0.49158 0.69416 0.0
N233 N 0.84663 0.32178 0.64838 0.0
C234 C 0.82287 0.29431 0.67146 0.0
C235 C 0.84131 0.25964 0.69126 0.0
C236 C 0.88388 0.25336 0.68677 0.0
C237 C 0.90755 0.28151 0.66194 0.0
C238 C 0.88742 0.31535 0.64271 0.0
H239 H 0.79013 0.29891 0.67507 0.0
O240 O 0.82404 0.41861 0.74049 0.0
O241 O 0.83889 0.40436 0.66973 0.0
O242 O 0.75187 0.40775 0.68445 0.0
O243 O 0.77129 0.36121 0.63192 0.0
C244 C 0.95033 0.27738 0.65562 0.0
C245 C 0.97218 0.30695 0.63021 0.0
H246 H 0.00404 0.37062 0.58059 0.0
H247 H 0.96333 0.42919 0.55059 0.0
H248 H 0.82279 0.23795 0.71017 0.0
H249 H 0.89803 0.22675 0.70239 0.0
H250 H 0.96677 0.25165 0.6703 0.0
H251 H 0.00512 0.30359 0.62586 0.0
Mn252 Mn 0.44654 0.19431 0.31775 0.0
Mn253 Mn 0.36706 0.16849 0.38639 0.0
C254 C 0.39309 0.154 0.29054 0.0
C255 C 0.51111 0.17883 0.28783 0.0
C256 C 0.37836 0.25332 0.34529 0.0
O257 O 0.46943 0.20517 0.38064 0.0
O258 O 0.41715 0.18041 0.42366 0.0
C259 C 0.3944 0.09088 0.42951 0.0
N260 N 0.36826 0.11116 0.40129 0.0
C261 C 0.3281 0.04978 0.3899 0.0
C262 C 0.35573 0.02794 0.41728 0.0
C263 C 0.38887 0.04867 0.43745 0.0
C264 C 0.33544 0.09177 0.38296 0.0
H265 H 0.41854 0.10703 0.44676 0.0
C266 C 0.45352 0.19544 0.41873 0.0
O267 O 0.49728 0.21632 0.28745 0.0
O268 O 0.48841 0.15113 0.30693 0.0
N269 N 0.31805 0.15565 0.35313 0.0
C270 C 0.29292 0.18149 0.32953 0.0
C271 C 0.25763 0.16577 0.30829 0.0
C272 C 0.24829 0.12374 0.31182 0.0
C273 C 0.2741 0.09789 0.33704 0.0
C274 C 0.30887 0.11531 0.35748 0.0
H275 H 0.29982 0.21384 0.32655 0.0
O276 O 0.41611 0.17479 0.26289 0.0
O277 O 0.40141 0.15847 0.33326 0.0
O278 O 0.41059 0.24586 0.322 0.0
O279 O 0.36158 0.22736 0.37194 0.0
C280 C 0.26657 0.05556 0.34285 0.0
C281 C 0.29345 0.03156 0.36943 0.0
H282 H 0.35141 0.99541 0.42363 0.0
H283 H 0.40974 0.0323 0.45959 0.0
H284 H 0.23779 0.18597 0.28904 0.0
H285 H 0.22112 0.1117 0.29524 0.0
H286 H 0.24006 0.0412 0.32724 0.0
H287 H 0.28719 0.99909 0.37391 0.0
Mn288 Mn 0.69719 0.94471 0.81844 0.0
Mn289 Mn 0.67073 0.86794 0.88928 0.0
C290 C 0.65367 0.89292 0.79324 0.0
C291 C 0.68326 0.00997 0.7906 0.0
C292 C 0.75463 0.87511 0.8437 0.0
O293 O 0.71289 0.96669 0.88056 0.0
O294 O 0.68631 0.91728 0.9256 0.0
C295 C 0.59562 0.90371 0.93037 0.0
N296 N 0.61413 0.8732 0.90612 0.0
C297 C 0.55007 0.83676 0.89842 0.0
C298 C 0.53039 0.86765 0.92354 0.0
C299 C 0.55326 0.90131 0.9395 0.0
C300 C 0.59238 0.84075 0.89048 0.0
H301 H 0.61301 0.92975 0.94255 0.0
C302 C 0.70343 0.95239 0.91951 0.0
O303 O 0.72003 0.99452 0.78746 0.0
O304 O 0.65543 0.98829 0.8109 0.0
N305 N 0.65408 0.81899 0.85822 0.0
C306 C 0.67759 0.79187 0.83435 0.0
C307 C 0.65909 0.75697 0.81511 0.0
C308 C 0.61678 0.75004 0.82109 0.0
C309 C 0.59339 0.77786 0.84669 0.0
C310 C 0.61352 0.81204 0.86516 0.0
H311 H 0.71013 0.79699 0.82957 0.0
O312 O 0.67376 0.91548 0.76456 0.0
O313 O 0.66024 0.90129 0.8357 0.0
O314 O 0.74698 0.90656 0.81936 0.0
O315 O 0.72927 0.85967 0.87226 0.0
C316 C 0.55086 0.77312 0.85439 0.0
C317 C 0.52924 0.80249 0.88033 0.0
H318 H 0.49769 0.866 0.93049 0.0
H319 H 0.53825 0.92538 0.95873 0.0
H320 H 0.67729 0.73564 0.7954 0.0
H321 H 0.60259 0.72323 0.80592 0.0
H322 H 0.53444 0.74709 0.84036 0.0
H323 H 0.49648 0.79867 0.88575 0.0
Mn324 Mn 0.94574 0.30286 0.18589 0.0
Mn325 Mn 0.86314 0.32048 0.11933 0.0
C326 C 0.89111 0.34183 0.21312 0.0
C327 C 0.01046 0.32286 0.21111 0.0
C328 C 0.88095 0.23861 0.16524 0.0
O329 O 0.96688 0.28963 0.1224 0.0
O330 O 0.91245 0.31055 0.08046 0.0
C331 C 0.88554 0.39828 0.07319 0.0
N332 N 0.86034 0.37708 0.10174 0.0
C333 C 0.8168 0.4363 0.11187 0.0
C334 C 0.84282 0.45894 0.08331 0.0
C335 C 0.87728 0.4398 0.06379 0.0
C336 C 0.82668 0.39504 0.12009 0.0
H337 H 0.91143 0.38351 0.05726 0.0
C338 C 0.94961 0.29767 0.08453 0.0
O339 O 0.99839 0.28494 0.21483 0.0
O340 O 0.98579 0.34847 0.19139 0.0
N341 N 0.81433 0.33153 0.15378 0.0
C342 C 0.7915 0.30516 0.17943 0.0
C343 C 0.75588 0.31952 0.20126 0.0
C344 C 0.74376 0.3607 0.19606 0.0
C345 C 0.76714 0.38702 0.1686 0.0
C346 C 0.80235 0.37095 0.14765 0.0
H347 H 0.80043 0.27346 0.18347 0.0
O348 O 0.91641 0.32411 0.24091 0.0
O349 O 0.8982 0.33528 0.17041 0.0
O350 O 0.91247 0.24958 0.1878 0.0
O351 O 0.86234 0.26178 0.13692 0.0
C352 C 0.75685 0.42856 0.16116 0.0
C353 C 0.78158 0.45314 0.13269 0.0
H354 H 0.83654 0.49097 0.07599 0.0
H355 H 0.89727 0.45692 0.04131 0.0
H356 H 0.73795 0.29894 0.22224 0.0
H357 H 0.71636 0.37171 0.21312 0.0
H358 H 0.72993 0.44189 0.1771 0.0
H359 H 0.77333 0.48503 0.12721 0.0
Mn360 Mn 0.30214 0.0547 0.8194 0.0
Mn361 Mn 0.32677 0.13351 0.88831 0.0
C362 C 0.34548 0.10651 0.79388 0.0
C363 C 0.31712 0.98952 0.7913 0.0
C364 C 0.24448 0.12585 0.84094 0.0
O365 O 0.28611 0.03309 0.88173 0.0
O366 O 0.30639 0.08612 0.92459 0.0
C367 C 0.39775 0.09545 0.93507 0.0
N368 N 0.38203 0.12615 0.9089 0.0
C369 C 0.44799 0.15952 0.90432 0.0
C370 C 0.46487 0.12832 0.93135 0.0
C371 C 0.43964 0.09612 0.94673 0.0
C372 C 0.40605 0.15721 0.89381 0.0
H373 H 0.37847 0.0706 0.94688 0.0
C374 C 0.28955 0.05067 0.92021 0.0
O375 O 0.28016 0.0045 0.78822 0.0
O376 O 0.34439 0.01137 0.81224 0.0
N377 N 0.34721 0.18104 0.85739 0.0
C378 C 0.32606 0.20895 0.83205 0.0
C379 C 0.34697 0.24283 0.81355 0.0
C380 C 0.38923 0.24792 0.82179 0.0
C381 C 0.41009 0.21939 0.849 0.0
C382 C 0.38759 0.18634 0.86666 0.0
H383 H 0.29356 0.20519 0.82562 0.0
O384 O 0.32544 0.0838 0.7654 0.0
O385 O 0.33873 0.0986 0.8364 0.0
O386 O 0.25177 0.09245 0.81972 0.0
O387 O 0.26998 0.14351 0.86753 0.0
C388 C 0.45231 0.22243 0.85927 0.0
C389 C 0.47124 0.19255 0.88697 0.0
H390 H 0.49718 0.12869 0.94035 0.0
H391 H 0.45246 0.07189 0.9675 0.0
H392 H 0.33062 0.26484 0.7928 0.0
H393 H 0.4053 0.27394 0.80722 0.0
H394 H 0.47056 0.24755 0.84593 0.0
H395 H 0.50377 0.19509 0.89441 0.0
Mn396 Mn 0.0551 0.69468 0.18618 0.0
Mn397 Mn 0.1366 0.67593 0.11789 0.0
C398 C 0.10959 0.65494 0.2123 0.0
C399 C 0.99048 0.67531 0.21284 0.0
C400 C 0.12059 0.75813 0.16401 0.0
O401 O 0.03319 0.70809 0.12317 0.0
O402 O 0.08693 0.68699 0.08013 0.0
C403 C 0.11191 0.5988 0.07179 0.0
N404 N 0.13799 0.61936 0.0999 0.0
C405 C 0.18016 0.55907 0.10921 0.0
C406 C 0.15317 0.53706 0.08122 0.0
C407 C 0.11899 0.55709 0.06227 0.0
C408 C 0.17149 0.6006 0.1175 0.0
H409 H 0.08618 0.61421 0.05636 0.0
C410 C 0.04996 0.70019 0.08496 0.0
O411 O 0.00293 0.71314 0.21617 0.0
O412 O 0.01461 0.64949 0.19262 0.0
N413 N 0.18567 0.66371 0.15124 0.0
C414 C 0.20914 0.68935 0.17702 0.0
C415 C 0.2445 0.67401 0.19844 0.0
C416 C 0.25578 0.63267 0.19261 0.0
C417 C 0.2317 0.60707 0.16511 0.0
C418 C 0.19673 0.62407 0.14466 0.0
H419 H 0.20078 0.72116 0.18162 0.0
O420 O 0.08495 0.67303 0.2406 0.0
O421 O 0.10207 0.66174 0.16974 0.0
O422 O 0.08912 0.74764 0.18708 0.0
O423 O 0.13879 0.73455 0.13571 0.0
C424 C 0.24087 0.5653 0.15747 0.0
C425 C 0.21518 0.54134 0.12945 0.0
H426 H 0.1585 0.50486 0.07387 0.0
H427 H 0.09827 0.54046 0.04018 0.0
H428 H 0.26273 0.6939 0.21983 0.0
H429 H 0.28295 0.6209 0.20944 0.0
H430 H 0.26757 0.55126 0.17306 0.0
H431 H 0.22251 0.50923 0.12389 0.0
Mn432 Mn 0.69739 0.05164 0.18222 0.0
Mn433 Mn 0.67509 0.13291 0.11575 0.0
C434 C 0.65485 0.10353 0.20899 0.0
C435 C 0.6817 0.98608 0.20817 0.0
C436 C 0.75632 0.12269 0.1645 0.0
O437 O 0.71331 0.03127 0.11939 0.0
O438 O 0.69572 0.08632 0.07826 0.0
C439 C 0.60477 0.09675 0.06601 0.0
N440 N 0.62019 0.1266 0.09356 0.0
C441 C 0.55422 0.15997 0.09831 0.0
C442 C 0.53765 0.12966 0.06987 0.0
C443 C 0.56305 0.09791 0.05367 0.0
C444 C 0.59604 0.1573 0.10932 0.0
H445 H 0.62412 0.07218 0.05364 0.0
C446 C 0.71116 0.05015 0.08155 0.0
O447 O 0.71878 0.00059 0.2118 0.0
O448 O 0.65457 0.00875 0.188 0.0
N449 N 0.65439 0.1798 0.1477 0.0
C450 C 0.67527 0.20697 0.17425 0.0
C451 C 0.6542 0.24046 0.19343 0.0
C452 C 0.61208 0.24591 0.18467 0.0
C453 C 0.59152 0.21818 0.15622 0.0
C454 C 0.61418 0.18556 0.13782 0.0
H455 H 0.70765 0.2029 0.18116 0.0
O456 O 0.67419 0.07967 0.23693 0.0
O457 O 0.66175 0.09667 0.16626 0.0
O458 O 0.74834 0.08842 0.18354 0.0
O459 O 0.7315 0.14185 0.1384 0.0
C460 C 0.54941 0.22155 0.1455 0.0
C461 C 0.53077 0.19246 0.11658 0.0
H462 H 0.50546 0.13036 0.06039 0.0
H463 H 0.55047 0.07435 0.03179 0.0
H464 H 0.6703 0.26184 0.21518 0.0
H465 H 0.59587 0.27157 0.19984 0.0
H466 H 0.53103 0.2463 0.15947 0.0
H467 H 0.49831 0.19524 0.10882 0.0
Mn468 Mn 0.05505 0.30738 0.81984 0.0
Mn469 Mn 0.13491 0.32831 0.88965 0.0
C470 C 0.10973 0.34677 0.79401 0.0
C471 C 0.99086 0.325 0.79121 0.0
C472 C 0.12081 0.24533 0.8451 0.0
O473 O 0.03187 0.29506 0.88235 0.0
O474 O 0.08405 0.31792 0.92657 0.0
C475 C 0.11137 0.4061 0.93517 0.0
N476 N 0.13642 0.38528 0.90618 0.0
C477 C 0.17916 0.44509 0.89591 0.0
C478 C 0.15251 0.46762 0.92387 0.0
C479 C 0.11867 0.4479 0.94394 0.0
C480 C 0.17008 0.40356 0.88819 0.0
H481 H 0.08674 0.39063 0.95239 0.0
C482 C 0.04739 0.30382 0.92088 0.0
O483 O 0.00395 0.28731 0.78935 0.0
O484 O 0.01421 0.35185 0.8109 0.0
N485 N 0.18464 0.33955 0.85683 0.0
C486 C 0.20871 0.31306 0.83268 0.0
C487 C 0.24473 0.32758 0.81182 0.0
C488 C 0.25588 0.36909 0.81626 0.0
C489 C 0.23115 0.3956 0.84202 0.0
C490 C 0.19562 0.37935 0.86213 0.0
H491 H 0.20045 0.28111 0.82901 0.0
O492 O 0.08585 0.32787 0.76563 0.0
O493 O 0.10132 0.34113 0.83661 0.0
O494 O 0.08941 0.25484 0.82154 0.0
O495 O 0.13777 0.26954 0.87354 0.0
C496 C 0.24044 0.43748 0.84864 0.0
C497 C 0.21453 0.46218 0.87568 0.0
H498 H 0.15819 0.49983 0.93085 0.0
H499 H 0.09861 0.46472 0.96664 0.0
H500 H 0.26372 0.30686 0.79215 0.0
H501 H 0.28359 0.38022 0.79992 0.0
H502 H 0.26756 0.45095 0.83328 0.0
H503 H 0.22214 0.49428 0.88077 0.0
Mn504 Mn 0.30277 0.94624 0.18338 0.0
Mn505 Mn 0.32659 0.86813 0.11297 0.0
C506 C 0.34584 0.89393 0.20808 0.0
C507 C 0.31782 0.01147 0.21053 0.0
C508 C 0.24412 0.87677 0.16125 0.0
O509 O 0.28624 0.9679 0.12142 0.0
O510 O 0.31057 0.91724 0.07657 0.0
C511 C 0.40084 0.90297 0.06909 0.0
N512 N 0.38275 0.87277 0.09416 0.0
C513 C 0.44666 0.83574 0.09985 0.0
C514 C 0.4659 0.8663 0.07386 0.0
C515 C 0.44289 0.90011 0.05851 0.0
C516 C 0.40465 0.84021 0.10928 0.0
H517 H 0.38337 0.92912 0.05734 0.0
C518 C 0.29454 0.95288 0.08248 0.0
O519 O 0.28095 0.99644 0.21438 0.0
O520 O 0.34514 0.98941 0.18981 0.0
N521 N 0.34374 0.8193 0.14395 0.0
C522 C 0.32069 0.79249 0.16877 0.0
C523 C 0.33944 0.75753 0.18756 0.0
C524 C 0.38148 0.75014 0.1801 0.0
C525 C 0.40434 0.77759 0.1535 0.0
C526 C 0.384 0.81188 0.13557 0.0
H527 H 0.28835 0.79794 0.17467 0.0
O528 O 0.3267 0.91708 0.23699 0.0
O529 O 0.33876 0.90207 0.16569 0.0
O530 O 0.25255 0.90891 0.18405 0.0
O531 O 0.26851 0.8604 0.13227 0.0
C532 C 0.44656 0.77234 0.14426 0.0
C533 C 0.46769 0.80135 0.11736 0.0
H534 H 0.49836 0.86428 0.06576 0.0
H535 H 0.45757 0.92392 0.03861 0.0
H536 H 0.32166 0.73649 0.20806 0.0
H537 H 0.39585 0.72326 0.19492 0.0
H538 H 0.46314 0.7462 0.15783 0.0
H539 H 0.50022 0.79715 0.11077 0.0
Mn540 Mn 0.94385 0.69217 0.82165 0.0
Mn541 Mn 0.86365 0.67062 0.89087 0.0
C542 C 0.88946 0.65289 0.7953 0.0
C543 C 0.00813 0.67421 0.79311 0.0
C544 C 0.87779 0.75397 0.84713 0.0
O545 O 0.96661 0.70427 0.88423 0.0
O546 O 0.91424 0.68102 0.92812 0.0
C547 C 0.88669 0.59293 0.93677 0.0
N548 N 0.86214 0.6136 0.90721 0.0
C549 C 0.81934 0.55385 0.89689 0.0
C550 C 0.84555 0.53144 0.92537 0.0
C551 C 0.87918 0.5512 0.94574 0.0
C552 C 0.82865 0.5953 0.88895 0.0
H553 H 0.91094 0.6085 0.95443 0.0
C554 C 0.9509 0.69525 0.92263 0.0
O555 O 0.99522 0.71199 0.79117 0.0
O556 O 0.98464 0.64764 0.81305 0.0
N557 N 0.81432 0.65929 0.85749 0.0
C558 C 0.79079 0.6856 0.83257 0.0
C559 C 0.75532 0.67089 0.81086 0.0
C560 C 0.74402 0.62944 0.81541 0.0
C561 C 0.76821 0.60311 0.84193 0.0
C562 C 0.80339 0.61946 0.8626 0.0
H563 H 0.79917 0.71751 0.82876 0.0
O564 O 0.91343 0.67204 0.76719 0.0
O565 O 0.89765 0.65813 0.83801 0.0
O566 O 0.90932 0.74472 0.82352 0.0
O567 O 0.8607 0.72946 0.87516 0.0
C568 C 0.75875 0.56128 0.84867 0.0
C569 C 0.78417 0.53672 0.87634 0.0
H570 H 0.83968 0.4993 0.93254 0.0
H571 H 0.89884 0.5345 0.9689 0.0
H572 H 0.73696 0.69138 0.79031 0.0
H573 H 0.71669 0.61819 0.79848 0.0
H574 H 0.73187 0.54775 0.83294 0.0
H575 H 0.77641 0.50468 0.88158 0.0
C576 C 0.31981 0.34987 0.37699 0.0
C577 C 0.29455 0.35349 0.33821 0.0
C578 C 0.33675 0.30234 0.29844 0.0
C579 C 0.35674 0.29317 0.34006 0.0
N580 N 0.3691 0.30879 0.41873 0.0
N581 N 0.27865 0.33449 0.26119 0.0
C582 C 0.34922 0.31761 0.37913 0.0
C583 C 0.30357 0.33087 0.29827 0.0
N584 N 0.31564 0.37761 0.41152 0.0
N585 N 0.34862 0.28313 0.25931 0.0
H586 H 0.25553 0.35651 0.25868 0.0
H587 H 0.27937 0.31448 0.23367 0.0
H588 H 0.37126 0.26057 0.2579 0.0
H589 H 0.33839 0.29182 0.22731 0.0
H590 H 0.33525 0.37904 0.43932 0.0
H591 H 0.29463 0.40188 0.41016 0.0
H592 H 0.36152 0.32185 0.44984 0.0
H593 H 0.39229 0.28674 0.42079 0.0
C594 C 0.34613 0.68392 0.621 0.0
C595 C 0.35404 0.70829 0.66001 0.0
C596 C 0.30148 0.67031 0.70259 0.0
C597 C 0.29227 0.64755 0.66283 0.0
N598 N 0.31287 0.62353 0.58925 0.0
N599 N 0.34657 0.71831 0.7409 0.0
C600 C 0.31707 0.65139 0.62364 0.0
C601 C 0.33447 0.69903 0.70192 0.0
N602 N 0.36532 0.69297 0.581 0.0
N603 N 0.27691 0.66662 0.74 0.0
H604 H 0.36893 0.74115 0.74203 0.0
H605 H 0.33678 0.70946 0.77304 0.0
H606 H 0.25398 0.64447 0.74291 0.0
H607 H 0.27772 0.68674 0.76742 0.0
H608 H 0.35733 0.67992 0.55004 0.0
H609 H 0.38822 0.71527 0.57843 0.0
H610 H 0.33226 0.62224 0.56119 0.0
H611 H 0.29219 0.59901 0.59098 0.0
C612 C 0.64841 0.67684 0.37355 0.0
C613 C 0.64307 0.70251 0.33522 0.0
C614 C 0.69614 0.66374 0.29415 0.0
C615 C 0.70645 0.64367 0.33521 0.0
N616 N 0.69068 0.62647 0.41263 0.0
N617 N 0.66012 0.72006 0.25791 0.0
C618 C 0.68156 0.64838 0.37436 0.0
C619 C 0.66562 0.69511 0.2947 0.0
N620 N 0.62157 0.68004 0.40902 0.0
N621 N 0.71605 0.65335 0.25494 0.0
H622 H 0.63682 0.74192 0.2559 0.0
H623 H 0.67963 0.72049 0.22994 0.0
H624 H 0.73938 0.63141 0.25361 0.0
H625 H 0.70732 0.6638 0.22304 0.0
H626 H 0.62132 0.66051 0.43692 0.0
H627 H 0.59714 0.70076 0.40867 0.0
H628 H 0.67721 0.63163 0.4441 0.0
H629 H 0.71289 0.60328 0.4131 0.0
C630 C 0.66559 0.30107 0.70467 0.0
C631 C 0.64471 0.29265 0.66338 0.0
C632 C 0.67922 0.35125 0.62754 0.0
C633 C 0.70577 0.35395 0.66527 0.0
N634 N 0.72368 0.33391 0.74134 0.0
N635 N 0.63024 0.31011 0.58558 0.0
C636 C 0.69817 0.33028 0.70478 0.0
C637 C 0.6507 0.3183 0.62498 0.0
N638 N 0.65508 0.28057 0.74346 0.0
N639 N 0.68114 0.38071 0.59462 0.0
H640 H 0.60785 0.2873 0.58318 0.0
H641 H 0.63681 0.32443 0.55486 0.0
H642 H 0.70083 0.40597 0.59721 0.0
H643 H 0.66063 0.38258 0.56763 0.0
H644 H 0.66614 0.28836 0.7754 0.0
H645 H 0.63275 0.2577 0.74474 0.0
H646 H 0.72411 0.31336 0.76837 0.0
H647 H 0.74584 0.35687 0.74397 0.0
C648 C 0.80264 0.83022 0.79891 0.0
C649 C 0.79469 0.85404 0.83822 0.0
C650 C 0.85111 0.82033 0.87831 0.0
C651 C 0.85706 0.7941 0.84039 0.0
N652 N 0.84676 0.78122 0.76048 0.0
N653 N 0.81933 0.88234 0.90815 0.0
C654 C 0.83588 0.80174 0.79912 0.0
C655 C 0.82172 0.85254 0.87563 0.0
N656 N 0.77689 0.83303 0.76246 0.0
N657 N 0.87242 0.8133 0.91742 0.0
H658 H 0.79891 0.90701 0.90546 0.0
H659 H 0.84001 0.88507 0.93489 0.0
H660 H 0.89552 0.79118 0.91966 0.0
H661 H 0.86607 0.82797 0.948 0.0
H662 H 0.7768 0.81229 0.73561 0.0
H663 H 0.75429 0.85557 0.75976 0.0
H664 H 0.83522 0.78831 0.72854 0.0
H665 H 0.87 0.75926 0.75922 0.0
C666 C 0.80463 0.16336 0.21264 0.0
C667 C 0.79695 0.14161 0.1719 0.0
C668 C 0.85995 0.16948 0.13884 0.0
C669 C 0.86165 0.19829 0.17448 0.0
N670 N 0.84082 0.2197 0.24909 0.0
N671 N 0.81899 0.11949 0.09781 0.0
C672 C 0.83619 0.19364 0.21317 0.0
C673 C 0.82557 0.14281 0.13565 0.0
N674 N 0.78138 0.15543 0.25024 0.0
N675 N 0.89174 0.16769 0.10874 0.0
H676 H 0.79521 0.098 0.09568 0.0
H677 H 0.83612 0.12235 0.06815 0.0
H678 H 0.91814 0.1854 0.11356 0.0
H679 H 0.89408 0.14599 0.08293 0.0
H680 H 0.78704 0.16811 0.28199 0.0
H681 H 0.75826 0.13323 0.2506 0.0
H682 H 0.82 0.22203 0.27578 0.0
H683 H 0.86561 0.23987 0.25165 0.0
C684 C 0.14765 0.17921 0.87624 0.0
C685 C 0.14127 0.20511 0.83815 0.0
C686 C 0.19528 0.16876 0.79609 0.0
C687 C 0.20399 0.14574 0.83566 0.0
N688 N 0.18196 0.11918 0.9076 0.0
N689 N 0.15075 0.21751 0.75795 0.0
C690 C 0.17771 0.14763 0.87381 0.0
C691 C 0.16202 0.1972 0.79656 0.0
N692 N 0.12617 0.18623 0.91532 0.0
N693 N 0.2205 0.16528 0.75918 0.0
H694 H 0.12749 0.23944 0.75685 0.0
H695 H 0.16206 0.21036 0.72591 0.0
H696 H 0.24331 0.14286 0.75678 0.0
H697 H 0.21998 0.18524 0.73164 0.0
H698 H 0.13254 0.17197 0.94608 0.0
H699 H 0.10256 0.20784 0.91725 0.0
H700 H 0.16195 0.11657 0.935 0.0
H701 H 0.20374 0.0956 0.90603 0.0
C702 C 0.19796 0.83333 0.20966 0.0
C703 C 0.20419 0.85619 0.16923 0.0
C704 C 0.14078 0.82776 0.1376 0.0
C705 C 0.14039 0.79834 0.17271 0.0
N706 N 0.1631 0.77617 0.24622 0.0
N707 N 0.17868 0.88104 0.09781 0.0
C708 C 0.16677 0.80269 0.21058 0.0
C709 C 0.17437 0.85551 0.13425 0.0
N710 N 0.22194 0.84078 0.24678 0.0
N711 N 0.10827 0.82937 0.10851 0.0
H712 H 0.20099 0.90409 0.09677 0.0
H713 H 0.16081 0.87911 0.06865 0.0
H714 H 0.08229 0.81117 0.11385 0.0
H715 H 0.10497 0.85114 0.08293 0.0
H716 H 0.21722 0.82733 0.27833 0.0
H717 H 0.24469 0.86329 0.2473 0.0
H718 H 0.18465 0.77337 0.27209 0.0
H719 H 0.13825 0.75615 0.2494 0.0
C720 C 0.18514 0.59019 0.28156 0.0
C721 C 0.1771 0.5507 0.26344 0.0
C722 C 0.12612 0.57934 0.21172 0.0
C723 C 0.13471 0.61958 0.22816 0.0
N724 N 0.1752 0.66409 0.27594 0.0
N725 N 0.14552 0.50843 0.20603 0.0
C726 C 0.16514 0.62523 0.26235 0.0
C727 C 0.14988 0.54586 0.22654 0.0
N728 N 0.21048 0.5938 0.31827 0.0
N729 N 0.09424 0.57103 0.18319 0.0
H730 H 0.16423 0.48342 0.21387 0.0
H731 H 0.12528 0.50344 0.17912 0.0
H732 H 0.07287 0.59251 0.17171 0.0
H733 H 0.07287 0.59251 0.17171 0.0
H734 H 0.21417 0.62074 0.33685 0.0
H735 H 0.22682 0.56889 0.33141 0.0
H736 H 0.19958 0.67095 0.29745 0.0
H737 H 0.16096 0.69012 0.26274 0.0
C738 C 0.58696 0.82118 0.72207 0.0
C739 C 0.54727 0.8321 0.73788 0.0
C740 C 0.57718 0.8818 0.79063 0.0
C741 C 0.61732 0.86934 0.77715 0.0
N742 N 0.66087 0.82412 0.73359 0.0
N743 N 0.50499 0.86427 0.79483 0.0
C744 C 0.62231 0.83797 0.74394 0.0
C745 C 0.54262 0.85963 0.77469 0.0
N746 N 0.59077 0.7964 0.68488 0.0
N747 N 0.57157 0.91645 0.81619 0.0
H748 H 0.47921 0.84752 0.78488 0.0
H749 H 0.50041 0.88109 0.82446 0.0
H750 H 0.59551 0.93482 0.82784 0.0
H751 H 0.54276 0.92934 0.82239 0.0
H752 H 0.6185 0.79099 0.66824 0.0
H753 H 0.56553 0.78297 0.66886 0.0
H754 H 0.66667 0.79867 0.71318 0.0
H755 H 0.68719 0.83598 0.74882 0.0
C756 C 0.87463 0.41727 0.21304 0.0
C757 C 0.86604 0.37704 0.22947 0.0
C758 C 0.81838 0.40635 0.28581 0.0
C759 C 0.8255 0.44581 0.2672 0.0
N760 N 0.85086 0.48738 0.20584 0.0
N761 N 0.82648 0.33243 0.27812 0.0
C762 C 0.85044 0.45065 0.22833 0.0
C763 C 0.83678 0.37132 0.26486 0.0
N764 N 0.90757 0.42438 0.18522 0.0
N765 N 0.79541 0.40269 0.32441 0.0
H766 H 0.83963 0.30636 0.26362 0.0
H767 H 0.80266 0.3258 0.30056 0.0
H768 H 0.78043 0.4277 0.33924 0.0
H769 H 0.79275 0.37558 0.34292 0.0
H770 H 0.91765 0.45377 0.17663 0.0
H771 H 0.92757 0.40157 0.17406 0.0
H772 H 0.86597 0.4919 0.1751 0.0
H773 H 0.83202 0.5119 0.21517 0.0
C774 C 0.41312 0.17707 0.7223 0.0
C775 C 0.45257 0.16665 0.73912 0.0
C776 C 0.422 0.11759 0.79214 0.0
C777 C 0.38204 0.12969 0.77769 0.0
N778 N 0.33901 0.17399 0.73249 0.0
N779 N 0.49408 0.1354 0.79725 0.0
C780 C 0.37746 0.16045 0.74377 0.0
C781 C 0.45675 0.13965 0.77642 0.0
N782 N 0.40987 0.2013 0.68462 0.0
N783 N 0.42732 0.08337 0.81845 0.0
H784 H 0.52004 0.15193 0.7873 0.0
H785 H 0.49822 0.11911 0.82729 0.0
H786 H 0.40328 0.06502 0.82992 0.0
H787 H 0.45607 0.07073 0.82545 0.0
H788 H 0.38243 0.2063 0.66733 0.0
H789 H 0.43534 0.21466 0.66889 0.0
H790 H 0.33348 0.19906 0.71146 0.0
H791 H 0.31243 0.16234 0.7475 0.0
C792 C 0.18597 0.40967 0.72384 0.0
C793 C 0.17783 0.44959 0.74084 0.0
C794 C 0.12645 0.42221 0.79292 0.0
C795 C 0.13515 0.38162 0.77766 0.0
N796 N 0.17642 0.33583 0.73205 0.0
N797 N 0.14655 0.49293 0.79754 0.0
C798 C 0.166 0.37507 0.74408 0.0
C799 C 0.1506 0.4552 0.77765 0.0
N800 N 0.21133 0.40523 0.6872 0.0
N801 N 0.09416 0.43129 0.8207 0.0
H802 H 0.16585 0.51746 0.78961 0.0
H803 H 0.12621 0.49851 0.82427 0.0
H804 H 0.07244 0.4102 0.83228 0.0
H805 H 0.07244 0.4102 0.83228 0.0
H806 H 0.21508 0.37781 0.66949 0.0
H807 H 0.22752 0.42989 0.67325 0.0
H808 H 0.20108 0.32859 0.71099 0.0
H809 H 0.16232 0.31 0.74611 0.0
C810 C 0.42197 0.88093 0.20899 0.0
C811 C 0.38182 0.86956 0.22353 0.0
C812 C 0.41193 0.82041 0.2776 0.0
C813 C 0.45154 0.83023 0.26072 0.0
N814 N 0.49359 0.86151 0.20301 0.0
N815 N 0.33788 0.82568 0.26823 0.0
C816 C 0.45623 0.85777 0.22397 0.0
C817 C 0.37661 0.83834 0.25683 0.0
N818 N 0.42795 0.91545 0.18332 0.0
N819 N 0.40827 0.79551 0.3147 0.0
H820 H 0.31157 0.83831 0.25371 0.0
H821 H 0.33177 0.80044 0.28884 0.0
H822 H 0.43348 0.78118 0.32983 0.0
H823 H 0.3808 0.7908 0.3321 0.0
H824 H 0.45695 0.92752 0.17628 0.0
H825 H 0.40426 0.93453 0.17242 0.0
H826 H 0.49808 0.87832 0.17338 0.0
H827 H 0.51913 0.84407 0.21234 0.0
C828 C 0.84969 0.5442 0.77806 0.0
C829 C 0.82412 0.54969 0.73986 0.0
C830 C 0.83488 0.62417 0.74379 0.0
C831 C 0.86461 0.61787 0.77848 0.0
N832 N 0.90755 0.56991 0.82017 0.0
N833 N 0.79351 0.59369 0.68384 0.0
C834 C 0.87392 0.57739 0.79355 0.0
C835 C 0.81661 0.58944 0.72221 0.0
N836 N 0.85078 0.50701 0.79959 0.0
N837 N 0.82405 0.66328 0.73177 0.0
H838 H 0.77874 0.56887 0.66841 0.0
H839 H 0.79067 0.62115 0.666 0.0
H840 H 0.83702 0.68927 0.74674 0.0
H841 H 0.7999 0.67009 0.70988 0.0
H842 H 0.86648 0.50198 0.82984 0.0
H843 H 0.83197 0.48254 0.7901 0.0
H844 H 0.91796 0.5404 0.82774 0.0
H845 H 0.9278 0.59257 0.83109 0.0
C846 C 0.62377 0.15759 0.2599 0.0
C847 C 0.61877 0.1272 0.22561 0.0
C848 C 0.54441 0.13859 0.22624 0.0
C849 C 0.54869 0.16626 0.26304 0.0
N850 N 0.59167 0.20059 0.31753 0.0
N851 N 0.57277 0.0848 0.18058 0.0
C852 C 0.58827 0.17579 0.28032 0.0
C853 C 0.57878 0.11669 0.21007 0.0
N854 N 0.6625 0.16949 0.27226 0.0
N855 N 0.50737 0.13181 0.20599 0.0
H856 H 0.54367 0.07666 0.1686 0.0
H857 H 0.59606 0.06524 0.16957 0.0
H858 H 0.48042 0.1476 0.21411 0.0
H859 H 0.48042 0.1476 0.21411 0.0
H860 H 0.66868 0.19414 0.29365 0.0
H861 H 0.68893 0.15679 0.25793 0.0
H862 H 0.61894 0.20516 0.33527 0.0
H863 H 0.56642 0.21514 0.33238 0.0
C864 C 0.68045 0.08701 0.78316 0.0
C865 C 0.67086 0.04747 0.76605 0.0
C866 C 0.62018 0.0769 0.71444 0.0
C867 C 0.6317 0.11707 0.72871 0.0
N868 N 0.67531 0.16107 0.77365 0.0
N869 N 0.63976 0.00545 0.70832 0.0
C870 C 0.66268 0.12235 0.76223 0.0
C871 C 0.6434 0.04276 0.72931 0.0
N872 N 0.70506 0.09056 0.82048 0.0
N873 N 0.58554 0.07077 0.689 0.0
H874 H 0.65752 0.98007 0.71736 0.0
H875 H 0.6228 0.00089 0.67882 0.0
H876 H 0.5662 0.09428 0.67828 0.0
H877 H 0.57346 0.04175 0.68222 0.0
H878 H 0.70956 0.11796 0.83801 0.0
H879 H 0.71934 0.06528 0.83555 0.0
H880 H 0.70041 0.16708 0.79449 0.0
H881 H 0.66271 0.18748 0.75921 0.0
C882 C 0.12322 0.34322 0.23884 0.0
C883 C 0.11906 0.37536 0.27108 0.0
C884 C 0.04393 0.36849 0.26782 0.0
C885 C 0.0481 0.33821 0.23355 0.0
N886 N 0.09286 0.29643 0.18635 0.0
N887 N 0.07484 0.42534 0.30773 0.0
C888 C 0.08774 0.32534 0.21926 0.0
C889 C 0.07925 0.38981 0.28338 0.0
N890 N 0.1613 0.32983 0.22598 0.0
N891 N 0.00623 0.37587 0.28686 0.0
H892 H 0.09944 0.44263 0.31967 0.0
H893 H 0.04666 0.43992 0.31272 0.0
H894 H 0.97974 0.35997 0.27755 0.0
H895 H 0.00188 0.39443 0.31522 0.0
H896 H 0.16557 0.30633 0.20232 0.0
H897 H 0.18834 0.34155 0.23976 0.0
H898 H 0.0687 0.28189 0.16948 0.0
H899 H 0.0687 0.28189 0.16948 0.0
C900 C 0.35989 0.95696 0.73157 0.0
C901 C 0.33023 0.95229 0.76635 0.0
C902 C 0.33763 0.87713 0.76106 0.0
C903 C 0.3695 0.88257 0.7284 0.0
N904 N 0.41429 0.93081 0.68783 0.0
N905 N 0.2921 0.90857 0.81696 0.0
C906 C 0.38147 0.92291 0.7153 0.0
C907 C 0.31903 0.91244 0.7816 0.0
N908 N 0.36916 0.99423 0.71312 0.0
N909 N 0.32479 0.83828 0.77171 0.0
H910 H 0.27734 0.93377 0.83165 0.0
H911 H 0.2857 0.88095 0.83328 0.0
H912 H 0.33787 0.812 0.75745 0.0
H913 H 0.29933 0.83188 0.79189 0.0
H914 H 0.35381 0.02144 0.72099 0.0
H915 H 0.35381 0.02144 0.72099 0.0
H916 H 0.43429 0.9087 0.67491 0.0
H917 H 0.43429 0.9087 0.67491 0.0
C918 C 0.87765 0.65335 0.24054 0.0
C919 C 0.88261 0.62182 0.27355 0.0
C920 C 0.95745 0.63072 0.2707 0.0
C921 C 0.9529 0.66033 0.23591 0.0
N922 N 0.90969 0.69776 0.18416 0.0
N923 N 0.92959 0.5765 0.31453 0.0
C924 C 0.9132 0.67144 0.22008 0.0
C925 C 0.92277 0.60946 0.28703 0.0
N926 N 0.83896 0.66652 0.22957 0.0
N927 N 0.9954 0.62213 0.28832 0.0
H928 H 0.90678 0.55714 0.32723 0.0
H929 H 0.90678 0.55714 0.32723 0.0
H930 H 0.0219 0.63819 0.27927 0.0
H931 H -0.0001 0.60044 0.31393 0.0
H932 H 0.83293 0.69197 0.20929 0.0
H933 H 0.81244 0.65392 0.24384 0.0
H934 H 0.88218 0.7039 0.16749 0.0
H935 H 0.93503 0.71191 0.16906 0.0
C936 C 0.63995 0.95337 0.26853 0.0
C937 C 0.66831 0.9487 0.23245 0.0
C938 C 0.66137 0.87382 0.23729 0.0
C939 C 0.63012 0.87867 0.27058 0.0
N940 N 0.58301 0.92443 0.30986 0.0
N941 N 0.7076 0.90346 0.18344 0.0
C942 C 0.61767 0.91879 0.28423 0.0
C943 C 0.67967 0.90895 0.21733 0.0
N944 N 0.63519 0.99086 0.28885 0.0
N945 N 0.6734 0.83551 0.2238 0.0
H946 H 0.72256 0.9275 0.16677 0.0
H947 H 0.72256 0.9275 0.16677 0.0
H948 H 0.66143 0.8087 0.23793 0.0
H949 H 0.69614 0.83081 0.19931 0.0
H950 H 0.61802 0.9954 0.31825 0.0
H951 H 0.65234 0.01653 0.27953 0.0
H952 H 0.56997 0.95319 0.31583 0.0
H953 H 0.5647 0.90061 0.32182 0.0
C954 C 0.87797 0.34252 0.76169 0.0
C955 C 0.88215 0.37435 0.72894 0.0
C956 C 0.95716 0.36718 0.73174 0.0
C957 C 0.95315 0.33848 0.76753 0.0
N958 N 0.91059 0.30093 0.81995 0.0
N959 N 0.92642 0.42354 0.69102 0.0
C960 C 0.91375 0.32635 0.78321 0.0
C961 C 0.92192 0.38841 0.71604 0.0
N962 N 0.83979 0.32754 0.77182 0.0
N963 N 0.99473 0.37361 0.71204 0.0
H964 H 0.9019 0.44104 0.67923 0.0
H965 H 0.95475 0.43764 0.68537 0.0
H966 H 0.02118 0.35782 0.72185 0.0
H967 H 0.9989 0.39119 0.6829 0.0
H968 H 0.83467 0.30164 0.79174 0.0
H969 H 0.81313 0.33899 0.75694 0.0
H970 H 0.88301 0.29452 0.83645 0.0
H971 H 0.93615 0.28813 0.836 0.0
C972 C 0.38148 0.07788 0.28688 0.0
C973 C 0.36986 0.11814 0.27306 0.0
C974 C 0.32123 0.08849 0.21822 0.0
C975 C 0.33085 0.04882 0.23496 0.0
N976 N 0.36198 0.0064 0.29235 0.0
N977 N 0.32632 0.16248 0.22844 0.0
C978 C 0.35833 0.04383 0.27163 0.0
C979 C 0.33895 0.12367 0.23951 0.0
N980 N 0.41609 0.07157 0.3123 0.0
N981 N 0.29658 0.0923 0.18097 0.0
H982 H 0.33887 0.1888 0.24316 0.0
H983 H 0.30126 0.16865 0.2076 0.0
H984 H 0.28235 0.06713 0.16563 0.0
H985 H 0.292 0.11983 0.16373 0.0
H986 H 0.42826 0.0425 0.31867 0.0
H987 H 0.43532 0.09499 0.32343 0.0
H988 H 0.3789 0.00168 0.32185 0.0
H989 H 0.34426 0.98107 0.28312 0.0
C990 C 0.0776 0.60914 0.72009 0.0
C991 C 0.11738 0.6235 0.73228 0.0
C992 C 0.08537 0.67351 0.78442 0.0
C993 C 0.04594 0.6603 0.76968 0.0
N994 N 0.00553 0.61757 0.71853 0.0
N995 N 0.15959 0.67127 0.77392 0.0
C996 C 0.04247 0.6293 0.73614 0.0
C997 C 0.12138 0.65626 0.764 0.0
N998 N 0.07141 0.57537 0.69363 0.0
N999 N 0.08833 0.70084 0.81948 0.0
H1000 H 0.18635 0.65902 0.75997 0.0
H1001 H 0.16483 0.69769 0.79293 0.0
H1002 H 0.06269 0.71426 0.8348 0.0
H1003 H 0.1158 0.70849 0.83544 0.0
H1004 H 0.09472 0.55658 0.68093 0.0
H1005 H 0.09472 0.55658 0.68093 0.0
H1006 H 0.97748 0.63152 0.72633 0.0
H1007 H 0.97748 0.63152 0.72633 0.0
C1008 C 0.2069 0.4781 0.54269 0.0
C1009 C 0.20862 0.52185 0.54298 0.0
C1010 C 0.20616 0.5214 0.46006 0.0
C1011 C 0.20915 0.47772 0.45972 0.0
N1012 N 0.22886 0.4173 0.50253 0.0
N1013 N 0.22666 0.58274 0.50001 0.0
C1014 C 0.21501 0.45693 0.50161 0.0
C1015 C 0.21383 0.54277 0.50106 0.0
N1016 N 0.19478 0.45639 0.58 0.0
N1017 N 0.19319 0.54276 0.42288 0.0
H1018 H 0.23568 0.59861 0.52907 0.0
H1019 H 0.23336 0.59798 0.46978 0.0
H1020 H 0.18248 0.52884 0.39345 0.0
H1021 H 0.18795 0.5744 0.42368 0.0
H1022 H 0.19042 0.42462 0.57926 0.0
H1023 H 0.18389 0.47 0.60957 0.0
H1024 H 0.23607 0.40221 0.53269 0.0
H1025 H 0.23815 0.40167 0.47338 0.0
C1026 C 0.50861 0.76244 0.47775 0.0
C1027 C 0.51903 0.79994 0.45589 0.0
C1028 C 0.49202 0.83889 0.51989 0.0
C1029 C 0.47804 0.80213 0.54025 0.0
N1030 N 0.47167 0.72838 0.53899 0.0
N1031 N 0.50696 0.87278 0.44922 0.0
C1032 C 0.48602 0.76359 0.51933 0.0
C1033 C 0.50672 0.83789 0.47492 0.0
N1034 N 0.52063 0.72601 0.45896 0.0
N1035 N 0.49348 0.8745 0.54434 0.0
H1036 H 0.51545 0.87267 0.41508 0.0
H1037 H 0.49483 0.90062 0.46062 0.0
H1038 H 0.48531 0.87574 0.57855 0.0
H1039 H 0.5068 0.90141 0.5319 0.0
H1040 H 0.51846 0.69775 0.4753 0.0
H1041 H 0.5339 0.72435 0.42688 0.0
H1042 H 0.47221 0.69969 0.52339 0.0
H1043 H 0.45784 0.72817 0.57088 0.0
C1044 C 0.76544 0.48469 0.46427 0.0
C1045 C 0.7794 0.52629 0.46352 0.0
C1046 C 0.79945 0.52129 0.54306 0.0
C1047 C 0.78844 0.47908 0.5436 0.0
N1048 N 0.75032 0.42366 0.50892 0.0
N1049 N 0.78338 0.58714 0.51032 0.0
C1050 C 0.76838 0.46152 0.50531 0.0
C1051 C 0.78817 0.54567 0.50547 0.0
N1052 N 0.7479 0.46776 0.42664 0.0
N1053 N 0.82256 0.53803 0.57704 0.0
H1054 H 0.78695 0.60209 0.54135 0.0
H1055 H 0.76963 0.60518 0.48531 0.0
H1056 H 0.83428 0.52096 0.60397 0.0
H1057 H 0.83394 0.56799 0.57556 0.0
H1058 H 0.74456 0.43624 0.42172 0.0
H1059 H 0.73479 0.48558 0.40111 0.0
H1060 H 0.73185 0.41059 0.48401 0.0
H1061 H 0.75094 0.40625 0.53851 0.0
C1062 C 0.48907 0.23546 0.48077 0.0
C1063 C 0.48001 0.1974 0.4594 0.0
C1064 C 0.50803 0.16007 0.52382 0.0
C1065 C 0.52123 0.19745 0.54337 0.0
N1066 N 0.52528 0.27135 0.54117 0.0
N1067 N 0.49399 0.12479 0.45384 0.0
C1068 C 0.51193 0.2355 0.5221 0.0
C1069 C 0.49331 0.16004 0.47894 0.0
N1070 N 0.47547 0.27126 0.46179 0.0
N1071 N 0.50745 0.12482 0.54892 0.0
H1072 H 0.48556 0.12418 0.4197 0.0
H1073 H 0.50683 0.09744 0.46571 0.0
H1074 H 0.51592 0.12423 0.58305 0.0
H1075 H 0.49468 0.09744 0.53706 0.0
H1076 H 0.47684 0.29973 0.47784 0.0
H1077 H 0.46142 0.27219 0.43008 0.0
H1078 H 0.52376 0.29982 0.52517 0.0
H1079 H 0.53922 0.2723 0.57294 0.0
C1080 C 0.71192 0.04594 0.99611 0.0
C1081 C 0.72216 0.02777 0.0383 0.0
C1082 C 0.73297 0.9621 0.99814 0.0
C1083 C 0.7116 0.97841 0.96002 0.0
N1084 N 0.67518 0.03589 0.92638 0.0
N1085 N 0.75546 0.97081 0.07597 0.0
C1086 C 0.69978 0.02041 0.95982 0.0
C1087 C 0.73666 0.98638 0.03835 0.0
N1088 N 0.71623 0.08726 0.98959 0.0
N1089 N 0.75146 0.9244 0.99509 0.0
H1090 H 0.76803 0.98966 0.10096 0.0
H1091 H 0.76 0.93955 0.08163 0.0
H1092 H 0.75029 0.90623 0.96607 0.0
H1093 H 0.7707 0.91217 0.0198 0.0
H1094 H 0.71138 0.10123 0.95823 0.0
H1095 H 0.73101 0.10608 0.01314 0.0
H1096 H 0.66339 0.06571 0.92745 0.0
H1097 H 0.66271 0.0179 0.9006 0.0
C1098 C 0.00658 0.26247 0.97794 0.0
C1099 C 0.0202 0.30106 0.96116 0.0
C1100 C 0.9917 0.33552 0.02764 0.0
C1101 C 0.97544 0.29766 0.04316 0.0
N1102 N 0.96068 0.22626 0.02921 0.0
N1103 N 0.01093 0.37454 0.96149 0.0
C1104 C 0.98097 0.26133 0.0172 0.0
C1105 C 0.00861 0.33774 0.98357 0.0
N1106 N 0.0183 0.22705 0.95668 0.0
N1107 N 0.99178 0.36928 0.0552 0.0
H1108 H 0.02017 0.3768 0.92768 0.0
H1109 H 0.99938 0.40182 0.97505 0.0
H1110 H 0.98027 0.36875 0.08823 0.0
H1111 H 0.00668 0.39657 0.04654 0.0
H1112 H 0.01345 0.19787 0.97018 0.0
H1113 H 0.03478 0.227 0.92639 0.0
H1114 H 0.9601 0.19977 0.00941 0.0
H1115 H 0.94154 0.22502 0.05746 0.0
C1116 C 0.26393 0.98623 0.96254 0.0
C1117 C 0.27789 0.02782 0.96293 0.0
C1118 C 0.29859 0.02082 0.04195 0.0
C1119 C 0.28684 0.9788 0.04175 0.0
N1120 N 0.24738 0.92486 0.00594 0.0
N1121 N 0.28185 0.08741 0.01178 0.0
C1122 C 0.26638 0.96231 0.00312 0.0
C1123 C 0.2868 0.04613 0.0054 0.0
N1124 N 0.24684 0.96997 0.9243 0.0
N1125 N 0.32295 0.03653 0.07546 0.0
H1126 H 0.26757 0.10605 0.98768 0.0
H1127 H 0.2858 0.10141 0.04329 0.0
H1128 H 0.33574 0.01863 0.1011 0.0
H1129 H 0.33442 0.06648 0.07441 0.0
H1130 H 0.2435 0.93852 0.91879 0.0
H1131 H 0.23434 0.98823 0.89878 0.0
H1132 H 0.22861 0.91275 0.98071 0.0
H1133 H 0.24734 0.90706 0.03526 0.0
C1134 C 0.99228 0.73614 0.97942 0.0
C1135 C 0.978 0.69772 0.96287 0.0
C1136 C 0.00656 0.66297 0.02899 0.0
C1137 C 0.02364 0.70057 0.04411 0.0
N1138 N 0.03973 0.77157 0.02945 0.0
N1139 N 0.98663 0.62413 0.96305 0.0
C1140 C 0.01848 0.73691 0.01812 0.0
C1141 C 0.98933 0.66091 0.98513 0.0
N1142 N 0.98067 0.77172 0.95849 0.0
N1143 N 0.00617 0.62927 0.05662 0.0
H1144 H 0.97732 0.62197 0.92928 0.0
H1145 H 0.99797 0.59676 0.97655 0.0
H1146 H 0.018 0.62967 0.08949 0.0
H1147 H 0.99076 0.60221 0.04818 0.0
H1148 H 0.98616 0.80082 0.97194 0.0
H1149 H 0.96352 0.77205 0.92869 0.0
H1150 H 0.04049 0.79797 0.00949 0.0
H1151 H 0.05955 0.77244 0.05708 0.0
loop_
_geom_bond_atom_site_label_1
_geom_bond_atom_site_label_2
_geom_bond_distance
_geom_bond_site_symmetry_2
_ccdc_geom_bond_type
Mn0 O5 2.095 . S
Mn0 O15 2.162 . S
Mn0 O16 2.297 . S
Mn0 O24 2.385 . S
Mn0 O25 2.209 . S
Mn0 O26 2.094 . S
Mn1 O6 2.121 . S
Mn1 N8 2.257 . S
Mn1 N17 2.282 . S
Mn1 O25 2.215 . S
Mn1 O27 2.117 . S
C2 O24 1.234 . S
C2 O25 1.283 . S
C3 O15 1.281 . S
C3 O16 1.236 . S
C4 O26 1.240 . S
C4 O27 1.264 . S
O5 Mn0 2.095 . S
O5 C14 1.250 . S
O6 Mn1 2.121 . S
O6 C14 1.258 . S
C7 N8 1.326 . S
C7 C11 1.460 . S
C7 H13 0.929 . S
N8 Mn1 2.257 . S
N8 C7 1.326 . S
N8 C12 1.362 . S
C9 C10 1.258 . S
C9 C12 1.431 . S
C9 C29 1.449 . S
C10 C9 1.258 . S
C10 C11 1.477 . S
C10 H30 0.931 . S
C11 C7 1.460 . S
C11 C10 1.477 . S
C11 H31 0.930 . S
C12 N8 1.362 . S
C12 C9 1.431 . S
C12 C22 1.476 . S
H13 C7 0.929 . S
C14 O5 1.250 . S
C14 O6 1.258 . S
O15 Mn0 2.162 . S
O15 C3 1.281 . S
O16 Mn0 2.297 . S
O16 C3 1.236 . S
N17 Mn1 2.282 . S
N17 C18 1.328 . S
N17 C22 1.318 . S
C18 N17 1.328 . S
C18 C19 1.457 . S
C18 H23 0.929 . S
C19 C18 1.457 . S
C19 C20 1.291 . S
C19 H32 0.931 . S
C20 C19 1.291 . S
C20 C21 1.373 . S
C20 H33 0.929 . S
C21 C20 1.373 . S
C21 C22 1.396 . S
C21 C28 1.403 . S
C22 C12 1.476 . S
C22 N17 1.318 . S
C22 C21 1.396 . S
H23 C18 0.929 . S
O24 Mn0 2.385 . S
O24 C2 1.234 . S
O25 Mn0 2.209 . S
O25 Mn1 2.215 . S
O25 C2 1.283 . S
O26 Mn0 2.094 . S
O26 C4 1.240 . S
O27 Mn1 2.117 . S
O27 C4 1.264 . S
C28 C21 1.403 . S
C28 C29 1.399 . S
C28 H34 0.929 . S
C29 C9 1.449 . S
C29 C28 1.399 . S
C29 H35 0.930 . S
H30 C10 0.931 . S
H31 C11 0.930 . S
H32 C19 0.931 . S
H33 C20 0.929 . S
H34 C28 0.929 . S
H35 C29 0.930 . S
Mn36 O41 2.095 . S
Mn36 O51 2.162 . S
Mn36 O52 2.297 . S
Mn36 O60 2.385 . S
Mn36 O61 2.209 . S
Mn36 O62 2.094 . S
Mn37 O42 2.121 . S
Mn37 N44 2.257 . S
Mn37 N53 2.282 . S
Mn37 O61 2.215 . S
Mn37 O63 2.117 . S
C38 O60 1.234 . S
C38 O61 1.283 . S
C39 O51 1.281 . S
C39 O52 1.236 . S
C40 O62 1.240 . S
C40 O63 1.264 . S
O41 Mn36 2.095 . S
O41 C50 1.250 . S
O42 Mn37 2.121 . S
O42 C50 1.258 . S
C43 N44 1.326 . S
C43 C47 1.460 . S
C43 H49 0.929 . S
N44 Mn37 2.257 . S
N44 C43 1.326 . S
N44 C48 1.362 . S
C45 C46 1.258 . S
C45 C48 1.431 . S
C45 C65 1.449 . S
C46 C45 1.258 . S
C46 C47 1.477 . S
C46 H66 0.931 . S
C47 C43 1.460 . S
C47 C46 1.477 . S
C47 H67 0.930 . S
C48 N44 1.362 . S
C48 C45 1.431 . S
C48 C58 1.476 . S
H49 C43 0.929 . S
C50 O41 1.250 . S
C50 O42 1.258 . S
O51 Mn36 2.162 . S
O51 C39 1.281 . S
O52 Mn36 2.297 . S
O52 C39 1.236 . S
N53 Mn37 2.282 . S
N53 C54 1.328 . S
N53 C58 1.318 . S
C54 N53 1.328 . S
C54 C55 1.457 . S
C54 H59 0.929 . S
C55 C54 1.457 . S
C55 C56 1.291 . S
C55 H68 0.931 . S
C56 C55 1.291 . S
C56 C57 1.373 . S
C56 H69 0.929 . S
C57 C56 1.373 . S
C57 C58 1.396 . S
C57 C64 1.403 . S
C58 C48 1.476 . S
C58 N53 1.318 . S
C58 C57 1.396 . S
H59 C54 0.929 . S
O60 Mn36 2.385 . S
O60 C38 1.234 . S
O61 Mn36 2.209 . S
O61 Mn37 2.215 . S
O61 C38 1.283 . S
O62 Mn36 2.094 . S
O62 C40 1.240 . S
O63 Mn37 2.117 . S
O63 C40 1.264 . S
C64 C57 1.403 . S
C64 C65 1.399 . S
C64 H70 0.929 . S
C65 C45 1.449 . S
C65 C64 1.399 . S
C65 H71 0.930 . S
H66 C46 0.931 . S
H67 C47 0.930 . S
H68 C55 0.931 . S
H69 C56 0.929 . S
H70 C64 0.929 . S
H71 C65 0.930 . S
Mn72 O77 2.095 . S
Mn72 O87 2.162 . S
Mn72 O88 2.297 . S
Mn72 O96 2.385 . S
Mn72 O97 2.209 . S
Mn72 O98 2.094 . S
Mn73 O78 2.121 . S
Mn73 N80 2.257 . S
Mn73 N89 2.282 . S
Mn73 O97 2.215 . S
Mn73 O99 2.117 . S
C74 O96 1.234 . S
C74 O97 1.283 . S
C75 O87 1.281 . S
C75 O88 1.236 . S
C76 O98 1.240 . S
C76 O99 1.264 . S
O77 Mn72 2.095 . S
O77 C86 1.250 . S
O78 Mn73 2.121 . S
O78 C86 1.258 . S
C79 N80 1.326 . S
C79 C83 1.460 . S
C79 H85 0.929 . S
N80 Mn73 2.257 . S
N80 C79 1.326 . S
N80 C84 1.362 . S
C81 C82 1.258 . S
C81 C84 1.431 . S
C81 C101 1.449 . S
C82 C81 1.258 . S
C82 C83 1.477 . S
C82 H102 0.931 . S
C83 C79 1.460 . S
C83 C82 1.477 . S
C83 H103 0.930 . S
C84 N80 1.362 . S
C84 C81 1.431 . S
C84 C94 1.476 . S
H85 C79 0.929 . S
C86 O77 1.250 . S
C86 O78 1.258 . S
O87 Mn72 2.162 . S
O87 C75 1.281 . S
O88 Mn72 2.297 . S
O88 C75 1.236 . S
N89 Mn73 2.282 . S
N89 C90 1.328 . S
N89 C94 1.318 . S
C90 N89 1.328 . S
C90 C91 1.457 . S
C90 H95 0.929 . S
C91 C90 1.457 . S
C91 C92 1.291 . S
C91 H104 0.931 . S
C92 C91 1.291 . S
C92 C93 1.373 . S
C92 H105 0.929 . S
C93 C92 1.373 . S
C93 C94 1.396 . S
C93 C100 1.403 . S
C94 C84 1.476 . S
C94 N89 1.318 . S
C94 C93 1.396 . S
H95 C90 0.929 . S
O96 Mn72 2.385 . S
O96 C74 1.234 . S
O97 Mn72 2.209 . S
O97 Mn73 2.215 . S
O97 C74 1.283 . S
O98 Mn72 2.094 . S
O98 C76 1.240 . S
O99 Mn73 2.117 . S
O99 C76 1.264 . S
C100 C93 1.403 . S
C100 C101 1.399 . S
C100 H106 0.929 . S
C101 C81 1.449 . S
C101 C100 1.399 . S
C101 H107 0.930 . S
H102 C82 0.931 . S
H103 C83 0.930 . S
H104 C91 0.931 . S
H105 C92 0.929 . S
H106 C100 0.929 . S
H107 C101 0.930 . S
Mn108 O113 2.095 . S
Mn108 O123 2.162 . S
Mn108 O124 2.297 . S
Mn108 O132 2.385 . S
Mn108 O133 2.209 . S
Mn108 O134 2.094 . S
Mn109 O114 2.121 . S
Mn109 N116 2.257 . S
Mn109 N125 2.282 . S
Mn109 O133 2.215 . S
Mn109 O135 2.117 . S
C110 O132 1.234 . S
C110 O133 1.283 . S
C111 O123 1.281 . S
C111 O124 1.236 . S
C112 O134 1.240 . S
C112 O135 1.264 . S
O113 Mn108 2.095 . S
O113 C122 1.250 . S
O114 Mn109 2.121 . S
O114 C122 1.258 . S
C115 N116 1.326 . S
C115 C119 1.460 . S
C115 H121 0.929 . S
N116 Mn109 2.257 . S
N116 C115 1.326 . S
N116 C120 1.362 . S
C117 C118 1.258 . S
C117 C120 1.431 . S
C117 C137 1.449 . S
C118 C117 1.258 . S
C118 C119 1.477 . S
C118 H138 0.931 . S
C119 C115 1.460 . S
C119 C118 1.477 . S
C119 H139 0.930 . S
C120 N116 1.362 . S
C120 C117 1.431 . S
C120 C130 1.476 . S
H121 C115 0.929 . S
C122 O113 1.250 . S
C122 O114 1.258 . S
O123 Mn108 2.162 . S
O123 C111 1.281 . S
O124 Mn108 2.297 . S
O124 C111 1.236 . S
N125 Mn109 2.282 . S
N125 C126 1.328 . S
N125 C130 1.318 . S
C126 N125 1.328 . S
C126 C127 1.457 . S
C126 H131 0.929 . S
C127 C126 1.457 . S
C127 C128 1.291 . S
C127 H140 0.931 . S
C128 C127 1.291 . S
C128 C129 1.373 . S
C128 H141 0.929 . S
C129 C128 1.373 . S
C129 C130 1.396 . S
C129 C136 1.403 . S
C130 C120 1.476 . S
C130 N125 1.318 . S
C130 C129 1.396 . S
H131 C126 0.929 . S
O132 Mn108 2.385 . S
O132 C110 1.234 . S
O133 Mn108 2.209 . S
O133 Mn109 2.215 . S
O133 C110 1.283 . S
O134 Mn108 2.094 . S
O134 C112 1.240 . S
O135 Mn109 2.117 . S
O135 C112 1.264 . S
C136 C129 1.403 . S
C136 C137 1.399 . S
C136 H142 0.929 . S
C137 C117 1.449 . S
C137 C136 1.399 . S
C137 H143 0.930 . S
H138 C118 0.931 . S
H139 C119 0.930 . S
H140 C127 0.931 . S
H141 C128 0.929 . S
H142 C136 0.929 . S
H143 C137 0.930 . S
Mn144 O149 2.095 . S
Mn144 O159 2.162 . S
Mn144 O160 2.297 . S
Mn144 O168 2.385 . S
Mn144 O169 2.209 . S
Mn144 O170 2.094 . S
Mn145 O150 2.121 . S
Mn145 N152 2.257 . S
Mn145 N161 2.282 . S
Mn145 O169 2.215 . S
Mn145 O171 2.117 . S
C146 O168 1.234 . S
C146 O169 1.283 . S
C147 O159 1.281 . S
C147 O160 1.236 . S
C148 O170 1.240 . S
C148 O171 1.264 . S
O149 Mn144 2.095 . S
O149 C158 1.250 . S
O150 Mn145 2.121 . S
O150 C158 1.258 . S
C151 N152 1.326 . S
C151 C155 1.460 . S
C151 H157 0.929 . S
N152 Mn145 2.257 . S
N152 C151 1.326 . S
N152 C156 1.362 . S
C153 C154 1.258 . S
C153 C156 1.431 . S
C153 C173 1.449 . S
C154 C153 1.258 . S
C154 C155 1.477 . S
C154 H174 0.931 . S
C155 C151 1.460 . S
C155 C154 1.477 . S
C155 H175 0.930 . S
C156 N152 1.362 . S
C156 C153 1.431 . S
C156 C166 1.476 . S
H157 C151 0.929 . S
C158 O149 1.250 . S
C158 O150 1.258 . S
O159 Mn144 2.162 . S
O159 C147 1.281 . S
O160 Mn144 2.297 . S
O160 C147 1.236 . S
N161 Mn145 2.282 . S
N161 C162 1.328 . S
N161 C166 1.318 . S
C162 N161 1.328 . S
C162 C163 1.457 . S
C162 H167 0.929 . S
C163 C162 1.457 . S
C163 C164 1.291 . S
C163 H176 0.931 . S
C164 C163 1.291 . S
C164 C165 1.373 . S
C164 H177 0.929 . S
C165 C164 1.373 . S
C165 C166 1.396 . S
C165 C172 1.403 . S
C166 C156 1.476 . S
C166 N161 1.318 . S
C166 C165 1.396 . S
H167 C162 0.929 . S
O168 Mn144 2.385 . S
O168 C146 1.234 . S
O169 Mn144 2.209 . S
O169 Mn145 2.215 . S
O169 C146 1.283 . S
O170 Mn144 2.094 . S
O170 C148 1.240 . S
O171 Mn145 2.117 . S
O171 C148 1.264 . S
C172 C165 1.403 . S
C172 C173 1.399 . S
C172 H178 0.929 . S
C173 C153 1.449 . S
C173 C172 1.399 . S
C173 H179 0.930 . S
H174 C154 0.931 . S
H175 C155 0.930 . S
H176 C163 0.931 . S
H177 C164 0.929 . S
H178 C172 0.929 . S
H179 C173 0.930 . S
Mn180 O185 2.095 . S
Mn180 O195 2.162 . S
Mn180 O196 2.297 . S
Mn180 O204 2.385 . S
Mn180 O205 2.209 . S
Mn180 O206 2.094 . S
Mn181 O186 2.121 . S
Mn181 N188 2.257 . S
Mn181 N197 2.282 . S
Mn181 O205 2.215 . S
Mn181 O207 2.117 . S
C182 O204 1.234 . S
C182 O205 1.283 . S
C183 O195 1.281 . S
C183 O196 1.236 . S
C184 O206 1.240 . S
C184 O207 1.264 . S
O185 Mn180 2.095 . S
O185 C194 1.250 . S
O186 Mn181 2.121 . S
O186 C194 1.258 . S
C187 N188 1.326 . S
C187 C191 1.460 . S
C187 H193 0.929 . S
N188 Mn181 2.257 . S
N188 C187 1.326 . S
N188 C192 1.362 . S
C189 C190 1.258 . S
C189 C192 1.431 . S
C189 C209 1.449 . S
C190 C189 1.258 . S
C190 C191 1.477 . S
C190 H210 0.931 . S
C191 C187 1.460 . S
C191 C190 1.477 . S
C191 H211 0.930 . S
C192 N188 1.362 . S
C192 C189 1.431 . S
C192 C202 1.476 . S
H193 C187 0.929 . S
C194 O185 1.250 . S
C194 O186 1.258 . S
O195 Mn180 2.162 . S
O195 C183 1.281 . S
O196 Mn180 2.297 . S
O196 C183 1.236 . S
N197 Mn181 2.282 . S
N197 C198 1.328 . S
N197 C202 1.318 . S
C198 N197 1.328 . S
C198 C199 1.457 . S
C198 H203 0.929 . S
C199 C198 1.457 . S
C199 C200 1.291 . S
C199 H212 0.931 . S
C200 C199 1.291 . S
C200 C201 1.373 . S
C200 H213 0.929 . S
C201 C200 1.373 . S
C201 C202 1.396 . S
C201 C208 1.403 . S
C202 C192 1.476 . S
C202 N197 1.318 . S
C202 C201 1.396 . S
H203 C198 0.929 . S
O204 Mn180 2.385 . S
O204 C182 1.234 . S
O205 Mn180 2.209 . S
O205 Mn181 2.215 . S
O205 C182 1.283 . S
O206 Mn180 2.094 . S
O206 C184 1.240 . S
O207 Mn181 2.117 . S
O207 C184 1.264 . S
C208 C201 1.403 . S
C208 C209 1.399 . S
C208 H214 0.929 . S
C209 C189 1.449 . S
C209 C208 1.399 . S
C209 H215 0.930 . S
H210 C190 0.931 . S
H211 C191 0.930 . S
H212 C199 0.931 . S
H213 C200 0.929 . S
H214 C208 0.929 . S
H215 C209 0.930 . S
Mn216 O221 2.095 . S
Mn216 O231 2.162 . S
Mn216 O232 2.297 . S
Mn216 O240 2.385 . S
Mn216 O241 2.209 . S
Mn216 O242 2.094 . S
Mn217 O222 2.121 . S
Mn217 N224 2.257 . S
Mn217 N233 2.282 . S
Mn217 O241 2.215 . S
Mn217 O243 2.117 . S
C218 O240 1.234 . S
C218 O241 1.283 . S
C219 O231 1.281 . S
C219 O232 1.236 . S
C220 O242 1.240 . S
C220 O243 1.264 . S
O221 Mn216 2.095 . S
O221 C230 1.250 . S
O222 Mn217 2.121 . S
O222 C230 1.258 . S
C223 N224 1.326 . S
C223 C227 1.460 . S
C223 H229 0.929 . S
N224 Mn217 2.257 . S
N224 C223 1.326 . S
N224 C228 1.362 . S
C225 C226 1.258 . S
C225 C228 1.431 . S
C225 C245 1.449 . S
C226 C225 1.258 . S
C226 C227 1.477 . S
C226 H246 0.931 . S
C227 C223 1.460 . S
C227 C226 1.477 . S
C227 H247 0.930 . S
C228 N224 1.362 . S
C228 C225 1.431 . S
C228 C238 1.476 . S
H229 C223 0.929 . S
C230 O221 1.250 . S
C230 O222 1.258 . S
O231 Mn216 2.162 . S
O231 C219 1.281 . S
O232 Mn216 2.297 . S
O232 C219 1.236 . S
N233 Mn217 2.282 . S
N233 C234 1.328 . S
N233 C238 1.318 . S
C234 N233 1.328 . S
C234 C235 1.457 . S
C234 H239 0.929 . S
C235 C234 1.457 . S
C235 C236 1.291 . S
C235 H248 0.931 . S
C236 C235 1.291 . S
C236 C237 1.373 . S
C236 H249 0.929 . S
C237 C236 1.373 . S
C237 C238 1.396 . S
C237 C244 1.403 . S
C238 C228 1.476 . S
C238 N233 1.318 . S
C238 C237 1.396 . S
H239 C234 0.929 . S
O240 Mn216 2.385 . S
O240 C218 1.234 . S
O241 Mn216 2.209 . S
O241 Mn217 2.215 . S
O241 C218 1.283 . S
O242 Mn216 2.094 . S
O242 C220 1.240 . S
O243 Mn217 2.117 . S
O243 C220 1.264 . S
C244 C237 1.403 . S
C244 C245 1.399 . S
C244 H250 0.929 . S
C245 C225 1.449 . S
C245 C244 1.399 . S
C245 H251 0.930 . S
H246 C226 0.931 . S
H247 C227 0.930 . S
H248 C235 0.931 . S
H249 C236 0.929 . S
H250 C244 0.929 . S
H251 C245 0.930 . S
Mn252 O257 2.095 . S
Mn252 O267 2.162 . S
Mn252 O268 2.297 . S
Mn252 O276 2.385 . S
Mn252 O277 2.209 . S
Mn252 O278 2.094 . S
Mn253 O258 2.121 . S
Mn253 N260 2.257 . S
Mn253 N269 2.282 . S
Mn253 O277 2.215 . S
Mn253 O279 2.117 . S
C254 O276 1.234 . S
C254 O277 1.283 . S
C255 O267 1.281 . S
C255 O268 1.236 . S
C256 O278 1.240 . S
C256 O279 1.264 . S
O257 Mn252 2.095 . S
O257 C266 1.250 . S
O258 Mn253 2.121 . S
O258 C266 1.258 . S
C259 N260 1.326 . S
C259 C263 1.460 . S
C259 H265 0.929 . S
N260 Mn253 2.257 . S
N260 C259 1.326 . S
N260 C264 1.362 . S
C261 C262 1.258 . S
C261 C264 1.431 . S
C261 C281 1.449 . S
C262 C261 1.258 . S
C262 C263 1.477 . S
C262 H282 0.931 . S
C263 C259 1.460 . S
C263 C262 1.477 . S
C263 H283 0.930 . S
C264 N260 1.362 . S
C264 C261 1.431 . S
C264 C274 1.476 . S
H265 C259 0.929 . S
C266 O257 1.250 . S
C266 O258 1.258 . S
O267 Mn252 2.162 . S
O267 C255 1.281 . S
O268 Mn252 2.297 . S
O268 C255 1.236 . S
N269 Mn253 2.282 . S
N269 C270 1.328 . S
N269 C274 1.318 . S
C270 N269 1.328 . S
C270 C271 1.457 . S
C270 H275 0.929 . S
C271 C270 1.457 . S
C271 C272 1.291 . S
C271 H284 0.931 . S
C272 C271 1.291 . S
C272 C273 1.373 . S
C272 H285 0.929 . S
C273 C272 1.373 . S
C273 C274 1.396 . S
C273 C280 1.403 . S
C274 C264 1.476 . S
C274 N269 1.318 . S
C274 C273 1.396 . S
H275 C270 0.929 . S
O276 Mn252 2.385 . S
O276 C254 1.234 . S
O277 Mn252 2.209 . S
O277 Mn253 2.215 . S
O277 C254 1.283 . S
O278 Mn252 2.094 . S
O278 C256 1.240 . S
O279 Mn253 2.117 . S
O279 C256 1.264 . S
C280 C273 1.403 . S
C280 C281 1.399 . S
C280 H286 0.929 . S
C281 C261 1.449 . S
C281 C280 1.399 . S
C281 H287 0.930 . S
H282 C262 0.931 . S
H283 C263 0.930 . S
H284 C271 0.931 . S
H285 C272 0.929 . S
H286 C280 0.929 . S
H287 C281 0.930 . S
Mn288 O293 2.095 . S
Mn288 O303 2.162 1_565 S
Mn288 O304 2.297 1_565 S
Mn288 O312 2.385 . S
Mn288 O313 2.209 . S
Mn288 O314 2.094 . S
Mn289 O294 2.121 . S
Mn289 N296 2.257 . S
Mn289 N305 2.282 . S
Mn289 O313 2.215 . S
Mn289 O315 2.117 . S
C290 O312 1.234 . S
C290 O313 1.283 . S
C291 O303 1.281 . S
C291 O304 1.236 . S
C292 O314 1.240 . S
C292 O315 1.264 . S
O293 Mn288 2.095 . S
O293 C302 1.250 . S
O294 Mn289 2.121 . S
O294 C302 1.258 . S
C295 N296 1.326 . S
C295 C299 1.460 . S
C295 H301 0.929 . S
N296 Mn289 2.257 . S
N296 C295 1.326 . S
N296 C300 1.362 . S
C297 C298 1.258 . S
C297 C300 1.431 . S
C297 C317 1.449 . S
C298 C297 1.258 . S
C298 C299 1.477 . S
C298 H318 0.931 . S
C299 C295 1.460 . S
C299 C298 1.477 . S
C299 H319 0.930 . S
C300 N296 1.362 . S
C300 C297 1.431 . S
C300 C310 1.476 . S
H301 C295 0.929 . S
C302 O293 1.250 . S
C302 O294 1.258 . S
O303 Mn288 2.162 1_545 S
O303 C291 1.281 . S
O304 Mn288 2.297 1_545 S
O304 C291 1.236 . S
N305 Mn289 2.282 . S
N305 C306 1.328 . S
N305 C310 1.318 . S
C306 N305 1.328 . S
C306 C307 1.457 . S
C306 H311 0.929 . S
C307 C306 1.457 . S
C307 C308 1.291 . S
C307 H320 0.931 . S
C308 C307 1.291 . S
C308 C309 1.373 . S
C308 H321 0.929 . S
C309 C308 1.373 . S
C309 C310 1.396 . S
C309 C316 1.403 . S
C310 C300 1.476 . S
C310 N305 1.318 . S
C310 C309 1.396 . S
H311 C306 0.929 . S
O312 Mn288 2.385 . S
O312 C290 1.234 . S
O313 Mn288 2.209 . S
O313 Mn289 2.215 . S
O313 C290 1.283 . S
O314 Mn288 2.094 . S
O314 C292 1.240 . S
O315 Mn289 2.117 . S
O315 C292 1.264 . S
C316 C309 1.403 . S
C316 C317 1.399 . S
C316 H322 0.929 . S
C317 C297 1.449 . S
C317 C316 1.399 . S
C317 H323 0.930 . S
H318 C298 0.931 . S
H319 C299 0.930 . S
H320 C307 0.931 . S
H321 C308 0.929 . S
H322 C316 0.929 . S
H323 C317 0.930 . S
Mn324 O329 2.095 . S
Mn324 O339 2.162 1_655 S
Mn324 O340 2.297 1_655 S
Mn324 O348 2.385 . S
Mn324 O349 2.209 . S
Mn324 O350 2.094 . S
Mn325 O330 2.121 . S
Mn325 N332 2.257 . S
Mn325 N341 2.282 . S
Mn325 O349 2.215 . S
Mn325 O351 2.117 . S
C326 O348 1.234 . S
C326 O349 1.283 . S
C327 O339 1.281 . S
C327 O340 1.236 . S
C328 O350 1.240 . S
C328 O351 1.264 . S
O329 Mn324 2.095 . S
O329 C338 1.250 . S
O330 Mn325 2.121 . S
O330 C338 1.258 . S
C331 N332 1.326 . S
C331 C335 1.460 . S
C331 H337 0.929 . S
N332 Mn325 2.257 . S
N332 C331 1.326 . S
N332 C336 1.362 . S
C333 C334 1.258 . S
C333 C336 1.431 . S
C333 C353 1.449 . S
C334 C333 1.258 . S
C334 C335 1.477 . S
C334 H354 0.931 . S
C335 C331 1.460 . S
C335 C334 1.477 . S
C335 H355 0.930 . S
C336 N332 1.362 . S
C336 C333 1.431 . S
C336 C346 1.476 . S
H337 C331 0.929 . S
C338 O329 1.250 . S
C338 O330 1.258 . S
O339 Mn324 2.162 1_455 S
O339 C327 1.281 . S
O340 Mn324 2.297 1_455 S
O340 C327 1.236 . S
N341 Mn325 2.282 . S
N341 C342 1.328 . S
N341 C346 1.318 . S
C342 N341 1.328 . S
C342 C343 1.457 . S
C342 H347 0.929 . S
C343 C342 1.457 . S
C343 C344 1.291 . S
C343 H356 0.931 . S
C344 C343 1.291 . S
C344 C345 1.373 . S
C344 H357 0.929 . S
C345 C344 1.373 . S
C345 C346 1.396 . S
C345 C352 1.403 . S
C346 C336 1.476 . S
C346 N341 1.318 . S
C346 C345 1.396 . S
H347 C342 0.929 . S
O348 Mn324 2.385 . S
O348 C326 1.234 . S
O349 Mn324 2.209 . S
O349 Mn325 2.215 . S
O349 C326 1.283 . S
O350 Mn324 2.094 . S
O350 C328 1.240 . S
O351 Mn325 2.117 . S
O351 C328 1.264 . S
C352 C345 1.403 . S
C352 C353 1.399 . S
C352 H358 0.929 . S
C353 C333 1.449 . S
C353 C352 1.399 . S
C353 H359 0.930 . S
H354 C334 0.931 . S
H355 C335 0.930 . S
H356 C343 0.931 . S
H357 C344 0.929 . S
H358 C352 0.929 . S
H359 C353 0.930 . S
Mn360 O365 2.095 . S
Mn360 O375 2.162 1_545 S
Mn360 O376 2.297 1_545 S
Mn360 O384 2.385 . S
Mn360 O385 2.209 . S
Mn360 O386 2.094 . S
Mn361 O366 2.121 . S
Mn361 N368 2.257 . S
Mn361 N377 2.282 . S
Mn361 O385 2.215 . S
Mn361 O387 2.117 . S
C362 O384 1.234 . S
C362 O385 1.283 . S
C363 O375 1.281 . S
C363 O376 1.236 . S
C364 O386 1.240 . S
C364 O387 1.264 . S
O365 Mn360 2.095 . S
O365 C374 1.250 . S
O366 Mn361 2.121 . S
O366 C374 1.258 . S
C367 N368 1.326 . S
C367 C371 1.460 . S
C367 H373 0.929 . S
N368 Mn361 2.257 . S
N368 C367 1.326 . S
N368 C372 1.362 . S
C369 C370 1.258 . S
C369 C372 1.431 . S
C369 C389 1.449 . S
C370 C369 1.258 . S
C370 C371 1.477 . S
C370 H390 0.931 . S
C371 C367 1.460 . S
C371 C370 1.477 . S
C371 H391 0.930 . S
C372 N368 1.362 . S
C372 C369 1.431 . S
C372 C382 1.476 . S
H373 C367 0.929 . S
C374 O365 1.250 . S
C374 O366 1.258 . S
O375 Mn360 2.162 1_565 S
O375 C363 1.281 . S
O376 Mn360 2.297 1_565 S
O376 C363 1.236 . S
N377 Mn361 2.282 . S
N377 C378 1.328 . S
N377 C382 1.318 . S
C378 N377 1.328 . S
C378 C379 1.457 . S
C378 H383 0.929 . S
C379 C378 1.457 . S
C379 C380 1.291 . S
C379 H392 0.931 . S
C380 C379 1.291 . S
C380 C381 1.373 . S
C380 H393 0.929 . S
C381 C380 1.373 . S
C381 C382 1.396 . S
C381 C388 1.403 . S
C382 C372 1.476 . S
C382 N377 1.318 . S
C382 C381 1.396 . S
H383 C378 0.929 . S
O384 Mn360 2.385 . S
O384 C362 1.234 . S
O385 Mn360 2.209 . S
O385 Mn361 2.215 . S
O385 C362 1.283 . S
O386 Mn360 2.094 . S
O386 C364 1.240 . S
O387 Mn361 2.117 . S
O387 C364 1.264 . S
C388 C381 1.403 . S
C388 C389 1.399 . S
C388 H394 0.929 . S
C389 C369 1.449 . S
C389 C388 1.399 . S
C389 H395 0.930 . S
H390 C370 0.931 . S
H391 C371 0.930 . S
H392 C379 0.931 . S
H393 C380 0.929 . S
H394 C388 0.929 . S
H395 C389 0.930 . S
Mn396 O401 2.095 . S
Mn396 O411 2.162 1_455 S
Mn396 O412 2.297 1_455 S
Mn396 O420 2.385 . S
Mn396 O421 2.209 . S
Mn396 O422 2.094 . S
Mn397 O402 2.121 . S
Mn397 N404 2.257 . S
Mn397 N413 2.282 . S
Mn397 O421 2.215 . S
Mn397 O423 2.117 . S
C398 O420 1.234 . S
C398 O421 1.283 . S
C399 O411 1.281 . S
C399 O412 1.236 . S
C400 O422 1.240 . S
C400 O423 1.264 . S
O401 Mn396 2.095 . S
O401 C410 1.250 . S
O402 Mn397 2.121 . S
O402 C410 1.258 . S
C403 N404 1.326 . S
C403 C407 1.460 . S
C403 H409 0.929 . S
N404 Mn397 2.257 . S
N404 C403 1.326 . S
N404 C408 1.362 . S
C405 C406 1.258 . S
C405 C408 1.431 . S
C405 C425 1.449 . S
C406 C405 1.258 . S
C406 C407 1.477 . S
C406 H426 0.931 . S
C407 C403 1.460 . S
C407 C406 1.477 . S
C407 H427 0.930 . S
C408 N404 1.362 . S
C408 C405 1.431 . S
C408 C418 1.476 . S
H409 C403 0.929 . S
C410 O401 1.250 . S
C410 O402 1.258 . S
O411 Mn396 2.162 1_655 S
O411 C399 1.281 . S
O412 Mn396 2.297 1_655 S
O412 C399 1.236 . S
N413 Mn397 2.282 . S
N413 C414 1.328 . S
N413 C418 1.318 . S
C414 N413 1.328 . S
C414 C415 1.457 . S
C414 H419 0.929 . S
C415 C414 1.457 . S
C415 C416 1.291 . S
C415 H428 0.931 . S
C416 C415 1.291 . S
C416 C417 1.373 . S
C416 H429 0.929 . S
C417 C416 1.373 . S
C417 C418 1.396 . S
C417 C424 1.403 . S
C418 C408 1.476 . S
C418 N413 1.318 . S
C418 C417 1.396 . S
H419 C414 0.929 . S
O420 Mn396 2.385 . S
O420 C398 1.234 . S
O421 Mn396 2.209 . S
O421 Mn397 2.215 . S
O421 C398 1.283 . S
O422 Mn396 2.094 . S
O422 C400 1.240 . S
O423 Mn397 2.117 . S
O423 C400 1.264 . S
C424 C417 1.403 . S
C424 C425 1.399 . S
C424 H430 0.929 . S
C425 C405 1.449 . S
C425 C424 1.399 . S
C425 H431 0.930 . S
H426 C406 0.931 . S
H427 C407 0.930 . S
H428 C415 0.931 . S
H429 C416 0.929 . S
H430 C424 0.929 . S
H431 C425 0.930 . S
Mn432 O437 2.095 . S
Mn432 O447 2.162 1_545 S
Mn432 O448 2.297 1_545 S
Mn432 O456 2.385 . S
Mn432 O457 2.209 . S
Mn432 O458 2.094 . S
Mn433 O438 2.121 . S
Mn433 N440 2.257 . S
Mn433 N449 2.282 . S
Mn433 O457 2.215 . S
Mn433 O459 2.117 . S
C434 O456 1.234 . S
C434 O457 1.283 . S
C435 O447 1.281 . S
C435 O448 1.236 . S
C436 O458 1.240 . S
C436 O459 1.264 . S
O437 Mn432 2.095 . S
O437 C446 1.250 . S
O438 Mn433 2.121 . S
O438 C446 1.258 . S
C439 N440 1.326 . S
C439 C443 1.460 . S
C439 H445 0.929 . S
N440 Mn433 2.257 . S
N440 C439 1.326 . S
N440 C444 1.362 . S
C441 C442 1.258 . S
C441 C444 1.431 . S
C441 C461 1.449 . S
C442 C441 1.258 . S
C442 C443 1.477 . S
C442 H462 0.931 . S
C443 C439 1.460 . S
C443 C442 1.477 . S
C443 H463 0.930 . S
C444 N440 1.362 . S
C444 C441 1.431 . S
C444 C454 1.476 . S
H445 C439 0.929 . S
C446 O437 1.250 . S
C446 O438 1.258 . S
O447 Mn432 2.162 1_565 S
O447 C435 1.281 . S
O448 Mn432 2.297 1_565 S
O448 C435 1.236 . S
N449 Mn433 2.282 . S
N449 C450 1.328 . S
N449 C454 1.318 . S
C450 N449 1.328 . S
C450 C451 1.457 . S
C450 H455 0.929 . S
C451 C450 1.457 . S
C451 C452 1.291 . S
C451 H464 0.931 . S
C452 C451 1.291 . S
C452 C453 1.373 . S
C452 H465 0.929 . S
C453 C452 1.373 . S
C453 C454 1.396 . S
C453 C460 1.403 . S
C454 C444 1.476 . S
C454 N449 1.318 . S
C454 C453 1.396 . S
H455 C450 0.929 . S
O456 Mn432 2.385 . S
O456 C434 1.234 . S
O457 Mn432 2.209 . S
O457 Mn433 2.215 . S
O457 C434 1.283 . S
O458 Mn432 2.094 . S
O458 C436 1.240 . S
O459 Mn433 2.117 . S
O459 C436 1.264 . S
C460 C453 1.403 . S
C460 C461 1.399 . S
C460 H466 0.929 . S
C461 C441 1.449 . S
C461 C460 1.399 . S
C461 H467 0.930 . S
H462 C442 0.931 . S
H463 C443 0.930 . S
H464 C451 0.931 . S
H465 C452 0.929 . S
H466 C460 0.929 . S
H467 C461 0.930 . S
Mn468 O473 2.095 . S
Mn468 O483 2.162 1_455 S
Mn468 O484 2.297 1_455 S
Mn468 O492 2.385 . S
Mn468 O493 2.209 . S
Mn468 O494 2.094 . S
Mn469 O474 2.121 . S
Mn469 N476 2.257 . S
Mn469 N485 2.282 . S
Mn469 O493 2.215 . S
Mn469 O495 2.117 . S
C470 O492 1.234 . S
C470 O493 1.283 . S
C471 O483 1.281 . S
C471 O484 1.236 . S
C472 O494 1.240 . S
C472 O495 1.264 . S
O473 Mn468 2.095 . S
O473 C482 1.250 . S
O474 Mn469 2.121 . S
O474 C482 1.258 . S
C475 N476 1.326 . S
C475 C479 1.460 . S
C475 H481 0.929 . S
N476 Mn469 2.257 . S
N476 C475 1.326 . S
N476 C480 1.362 . S
C477 C478 1.258 . S
C477 C480 1.431 . S
C477 C497 1.449 . S
C478 C477 1.258 . S
C478 C479 1.477 . S
C478 H498 0.931 . S
C479 C475 1.460 . S
C479 C478 1.477 . S
C479 H499 0.930 . S
C480 N476 1.362 . S
C480 C477 1.431 . S
C480 C490 1.476 . S
H481 C475 0.929 . S
C482 O473 1.250 . S
C482 O474 1.258 . S
O483 Mn468 2.162 1_655 S
O483 C471 1.281 . S
O484 Mn468 2.297 1_655 S
O484 C471 1.236 . S
N485 Mn469 2.282 . S
N485 C486 1.328 . S
N485 C490 1.318 . S
C486 N485 1.328 . S
C486 C487 1.457 . S
C486 H491 0.929 . S
C487 C486 1.457 . S
C487 C488 1.291 . S
C487 H500 0.931 . S
C488 C487 1.291 . S
C488 C489 1.373 . S
C488 H501 0.929 . S
C489 C488 1.373 . S
C489 C490 1.396 . S
C489 C496 1.403 . S
C490 C480 1.476 . S
C490 N485 1.318 . S
C490 C489 1.396 . S
H491 C486 0.929 . S
O492 Mn468 2.385 . S
O492 C470 1.234 . S
O493 Mn468 2.209 . S
O493 Mn469 2.215 . S
O493 C470 1.283 . S
O494 Mn468 2.094 . S
O494 C472 1.240 . S
O495 Mn469 2.117 . S
O495 C472 1.264 . S
C496 C489 1.403 . S
C496 C497 1.399 . S
C496 H502 0.929 . S
C497 C477 1.449 . S
C497 C496 1.399 . S
C497 H503 0.930 . S
H498 C478 0.931 . S
H499 C479 0.930 . S
H500 C487 0.931 . S
H501 C488 0.929 . S
H502 C496 0.929 . S
H503 C497 0.930 . S
Mn504 O509 2.095 . S
Mn504 O519 2.162 1_565 S
Mn504 O520 2.297 1_565 S
Mn504 O528 2.385 . S
Mn504 O529 2.209 . S
Mn504 O530 2.094 . S
Mn505 O510 2.121 . S
Mn505 N512 2.257 . S
Mn505 N521 2.282 . S
Mn505 O529 2.215 . S
Mn505 O531 2.117 . S
C506 O528 1.234 . S
C506 O529 1.283 . S
C507 O519 1.281 . S
C507 O520 1.236 . S
C508 O530 1.240 . S
C508 O531 1.264 . S
O509 Mn504 2.095 . S
O509 C518 1.250 . S
O510 Mn505 2.121 . S
O510 C518 1.258 . S
C511 N512 1.326 . S
C511 C515 1.460 . S
C511 H517 0.929 . S
N512 Mn505 2.257 . S
N512 C511 1.326 . S
N512 C516 1.362 . S
C513 C514 1.258 . S
C513 C516 1.431 . S
C513 C533 1.449 . S
C514 C513 1.258 . S
C514 C515 1.477 . S
C514 H534 0.931 . S
C515 C511 1.460 . S
C515 C514 1.477 . S
C515 H535 0.930 . S
C516 N512 1.362 . S
C516 C513 1.431 . S
C516 C526 1.476 . S
H517 C511 0.929 . S
C518 O509 1.250 . S
C518 O510 1.258 . S
O519 Mn504 2.162 1_545 S
O519 C507 1.281 . S
O520 Mn504 2.297 1_545 S
O520 C507 1.236 . S
N521 Mn505 2.282 . S
N521 C522 1.328 . S
N521 C526 1.318 . S
C522 N521 1.328 . S
C522 C523 1.457 . S
C522 H527 0.929 . S
C523 C522 1.457 . S
C523 C524 1.291 . S
C523 H536 0.931 . S
C524 C523 1.291 . S
C524 C525 1.373 . S
C524 H537 0.929 . S
C525 C524 1.373 . S
C525 C526 1.396 . S
C525 C532 1.403 . S
C526 C516 1.476 . S
C526 N521 1.318 . S
C526 C525 1.396 . S
H527 C522 0.929 . S
O528 Mn504 2.385 . S
O528 C506 1.234 . S
O529 Mn504 2.209 . S
O529 Mn505 2.215 . S
O529 C506 1.283 . S
O530 Mn504 2.094 . S
O530 C508 1.240 . S
O531 Mn505 2.117 . S
O531 C508 1.264 . S
C532 C525 1.403 . S
C532 C533 1.399 . S
C532 H538 0.929 . S
C533 C513 1.449 . S
C533 C532 1.399 . S
C533 H539 0.930 . S
H534 C514 0.931 . S
H535 C515 0.930 . S
H536 C523 0.931 . S
H537 C524 0.929 . S
H538 C532 0.929 . S
H539 C533 0.930 . S
Mn540 O545 2.095 . S
Mn540 O555 2.162 1_655 S
Mn540 O556 2.297 1_655 S
Mn540 O564 2.385 . S
Mn540 O565 2.209 . S
Mn540 O566 2.094 . S
Mn541 O546 2.121 . S
Mn541 N548 2.257 . S
Mn541 N557 2.282 . S
Mn541 O565 2.215 . S
Mn541 O567 2.117 . S
C542 O564 1.234 . S
C542 O565 1.283 . S
C543 O555 1.281 . S
C543 O556 1.236 . S
C544 O566 1.240 . S
C544 O567 1.264 . S
O545 Mn540 2.095 . S
O545 C554 1.250 . S
O546 Mn541 2.121 . S
O546 C554 1.258 . S
C547 N548 1.326 . S
C547 C551 1.460 . S
C547 H553 0.929 . S
N548 Mn541 2.257 . S
N548 C547 1.326 . S
N548 C552 1.362 . S
C549 C550 1.258 . S
C549 C552 1.431 . S
C549 C569 1.449 . S
C550 C549 1.258 . S
C550 C551 1.477 . S
C550 H570 0.931 . S
C551 C547 1.460 . S
C551 C550 1.477 . S
C551 H571 0.930 . S
C552 N548 1.362 . S
C552 C549 1.431 . S
C552 C562 1.476 . S
H553 C547 0.929 . S
C554 O545 1.250 . S
C554 O546 1.258 . S
O555 Mn540 2.162 1_455 S
O555 C543 1.281 . S
O556 Mn540 2.297 1_455 S
O556 C543 1.236 . S
N557 Mn541 2.282 . S
N557 C558 1.328 . S
N557 C562 1.318 . S
C558 N557 1.328 . S
C558 C559 1.457 . S
C558 H563 0.929 . S
C559 C558 1.457 . S
C559 C560 1.291 . S
C559 H572 0.931 . S
C560 C559 1.291 . S
C560 C561 1.373 . S
C560 H573 0.929 . S
C561 C560 1.373 . S
C561 C562 1.396 . S
C561 C568 1.403 . S
C562 C552 1.476 . S
C562 N557 1.318 . S
C562 C561 1.396 . S
H563 C558 0.929 . S
O564 Mn540 2.385 . S
O564 C542 1.234 . S
O565 Mn540 2.209 . S
O565 Mn541 2.215 . S
O565 C542 1.283 . S
O566 Mn540 2.094 . S
O566 C544 1.240 . S
O567 Mn541 2.117 . S
O567 C544 1.264 . S
C568 C561 1.403 . S
C568 C569 1.399 . S
C568 H574 0.929 . S
C569 C549 1.449 . S
C569 C568 1.399 . S
C569 H575 0.930 . S
H570 C550 0.931 . S
H571 C551 0.930 . S
H572 C559 0.931 . S
H573 C560 0.929 . S
H574 C568 0.929 . S
H575 C569 0.930 . S
C576 C577 1.363 . S
C576 C582 1.379 . S
C576 N584 1.356 . S
C577 C576 1.363 . S
C577 C583 1.363 . S
C578 C579 1.363 . S
C578 C583 1.379 . S
C578 N585 1.356 . S
C579 C578 1.363 . S
C579 C582 1.363 . S
N580 C582 1.356 . S
N580 H592 0.984 . S
N580 H593 0.985 . S
N581 C583 1.356 . S
N581 H586 0.984 . S
N581 H587 0.985 . S
C582 C576 1.379 . S
C582 C579 1.363 . S
C582 N580 1.356 . S
C583 C577 1.363 . S
C583 C578 1.379 . S
C583 N581 1.356 . S
N584 C576 1.356 . S
N584 H590 0.984 . S
N584 H591 0.984 . S
N585 C578 1.356 . S
N585 H588 0.984 . S
N585 H589 0.985 . S
H586 N581 0.984 . S
H587 N581 0.985 . S
H588 N585 0.984 . S
H589 N585 0.985 . S
H590 N584 0.984 . S
H591 N584 0.984 . S
H592 N580 0.984 . S
H593 N580 0.985 . S
C594 C595 1.363 . S
C594 C600 1.379 . S
C594 N602 1.356 . S
C595 C594 1.363 . S
C595 C601 1.363 . S
C596 C597 1.363 . S
C596 C601 1.379 . S
C596 N603 1.356 . S
C597 C596 1.363 . S
C597 C600 1.363 . S
N598 C600 1.356 . S
N598 H610 0.984 . S
N598 H611 0.985 . S
N599 C601 1.356 . S
N599 H604 0.984 . S
N599 H605 0.985 . S
C600 C594 1.379 . S
C600 C597 1.363 . S
C600 N598 1.356 . S
C601 C595 1.363 . S
C601 C596 1.379 . S
C601 N599 1.356 . S
N602 C594 1.356 . S
N602 H608 0.984 . S
N602 H609 0.984 . S
N603 C596 1.356 . S
N603 H606 0.984 . S
N603 H607 0.985 . S
H604 N599 0.984 . S
H605 N599 0.985 . S
H606 N603 0.984 . S
H607 N603 0.985 . S
H608 N602 0.984 . S
H609 N602 0.984 . S
H610 N598 0.984 . S
H611 N598 0.985 . S
C612 C613 1.363 . S
C612 C618 1.379 . S
C612 N620 1.356 . S
C613 C612 1.363 . S
C613 C619 1.363 . S
C614 C615 1.363 . S
C614 C619 1.379 . S
C614 N621 1.356 . S
C615 C614 1.363 . S
C615 C618 1.363 . S
N616 C618 1.356 . S
N616 H628 0.984 . S
N616 H629 0.985 . S
N617 C619 1.356 . S
N617 H622 0.984 . S
N617 H623 0.985 . S
C618 C612 1.379 . S
C618 C615 1.363 . S
C618 N616 1.356 . S
C619 C613 1.363 . S
C619 C614 1.379 . S
C619 N617 1.356 . S
N620 C612 1.356 . S
N620 H626 0.984 . S
N620 H627 0.984 . S
N621 C614 1.356 . S
N621 H624 0.984 . S
N621 H625 0.985 . S
H622 N617 0.984 . S
H623 N617 0.985 . S
H624 N621 0.984 . S
H625 N621 0.985 . S
H626 N620 0.984 . S
H627 N620 0.984 . S
H628 N616 0.984 . S
H629 N616 0.985 . S
C630 C631 1.363 . S
C630 C636 1.379 . S
C630 N638 1.356 . S
C631 C630 1.363 . S
C631 C637 1.363 . S
C632 C633 1.363 . S
C632 C637 1.379 . S
C632 N639 1.356 . S
C633 C632 1.363 . S
C633 C636 1.363 . S
N634 C636 1.356 . S
N634 H646 0.984 . S
N634 H647 0.985 . S
N635 C637 1.356 . S
N635 H640 0.984 . S
N635 H641 0.985 . S
C636 C630 1.379 . S
C636 C633 1.363 . S
C636 N634 1.356 . S
C637 C631 1.363 . S
C637 C632 1.379 . S
C637 N635 1.356 . S
N638 C630 1.356 . S
N638 H644 0.984 . S
N638 H645 0.984 . S
N639 C632 1.356 . S
N639 H642 0.984 . S
N639 H643 0.985 . S
H640 N635 0.984 . S
H641 N635 0.985 . S
H642 N639 0.984 . S
H643 N639 0.985 . S
H644 N638 0.984 . S
H645 N638 0.984 . S
H646 N634 0.984 . S
H647 N634 0.985 . S
C648 C649 1.363 . S
C648 C654 1.379 . S
C648 N656 1.356 . S
C649 C648 1.363 . S
C649 C655 1.363 . S
C650 C651 1.363 . S
C650 C655 1.379 . S
C650 N657 1.356 . S
C651 C650 1.363 . S
C651 C654 1.363 . S
N652 C654 1.356 . S
N652 H664 0.984 . S
N652 H665 0.985 . S
N653 C655 1.356 . S
N653 H658 0.984 . S
N653 H659 0.985 . S
C654 C648 1.379 . S
C654 C651 1.363 . S
C654 N652 1.356 . S
C655 C649 1.363 . S
C655 C650 1.379 . S
C655 N653 1.356 . S
N656 C648 1.356 . S
N656 H662 0.984 . S
N656 H663 0.984 . S
N657 C650 1.356 . S
N657 H660 0.984 . S
N657 H661 0.985 . S
H658 N653 0.984 . S
H659 N653 0.985 . S
H660 N657 0.984 . S
H661 N657 0.985 . S
H662 N656 0.984 . S
H663 N656 0.984 . S
H664 N652 0.984 . S
H665 N652 0.985 . S
C666 C667 1.363 . S
C666 C672 1.379 . S
C666 N674 1.356 . S
C667 C666 1.363 . S
C667 C673 1.363 . S
C668 C669 1.363 . S
C668 C673 1.379 . S
C668 N675 1.356 . S
C669 C668 1.363 . S
C669 C672 1.363 . S
N670 C672 1.356 . S
N670 H682 0.984 . S
N670 H683 0.985 . S
N671 C673 1.356 . S
N671 H676 0.984 . S
N671 H677 0.985 . S
C672 C666 1.379 . S
C672 C669 1.363 . S
C672 N670 1.356 . S
C673 C667 1.363 . S
C673 C668 1.379 . S
C673 N671 1.356 . S
N674 C666 1.356 . S
N674 H680 0.984 . S
N674 H681 0.984 . S
N675 C668 1.356 . S
N675 H678 0.984 . S
N675 H679 0.985 . S
H676 N671 0.984 . S
H677 N671 0.985 . S
H678 N675 0.984 . S
H679 N675 0.985 . S
H680 N674 0.984 . S
H681 N674 0.984 . S
H682 N670 0.984 . S
H683 N670 0.985 . S
C684 C685 1.363 . S
C684 C690 1.379 . S
C684 N692 1.356 . S
C685 C684 1.363 . S
C685 C691 1.363 . S
C686 C687 1.363 . S
C686 C691 1.379 . S
C686 N693 1.356 . S
C687 C686 1.363 . S
C687 C690 1.363 . S
N688 C690 1.356 . S
N688 H700 0.984 . S
N688 H701 0.985 . S
N689 C691 1.356 . S
N689 H694 0.984 . S
N689 H695 0.985 . S
C690 C684 1.379 . S
C690 C687 1.363 . S
C690 N688 1.356 . S
C691 C685 1.363 . S
C691 C686 1.379 . S
C691 N689 1.356 . S
N692 C684 1.356 . S
N692 H698 0.984 . S
N692 H699 0.984 . S
N693 C686 1.356 . S
N693 H696 0.984 . S
N693 H697 0.985 . S
H694 N689 0.984 . S
H695 N689 0.985 . S
H696 N693 0.984 . S
H697 N693 0.985 . S
H698 N692 0.984 . S
H699 N692 0.984 . S
H700 N688 0.984 . S
H701 N688 0.985 . S
C702 C703 1.363 . S
C702 C708 1.379 . S
C702 N710 1.356 . S
C703 C702 1.363 . S
C703 C709 1.363 . S
C704 C705 1.363 . S
C704 C709 1.379 . S
C704 N711 1.356 . S
C705 C704 1.363 . S
C705 C708 1.363 . S
N706 C708 1.356 . S
N706 H718 0.984 . S
N706 H719 0.985 . S
N707 C709 1.356 . S
N707 H712 0.984 . S
N707 H713 0.985 . S
C708 C702 1.379 . S
C708 C705 1.363 . S
C708 N706 1.356 . S
C709 C703 1.363 . S
C709 C704 1.379 . S
C709 N707 1.356 . S
N710 C702 1.356 . S
N710 H716 0.984 . S
N710 H717 0.984 . S
N711 C704 1.356 . S
N711 H714 0.984 . S
N711 H715 0.985 . S
H712 N707 0.984 . S
H713 N707 0.985 . S
H714 N711 0.984 . S
H715 N711 0.985 . S
H716 N710 0.984 . S
H717 N710 0.984 . S
H718 N706 0.984 . S
H719 N706 0.985 . S
C720 C721 1.363 . S
C720 C726 1.379 . S
C720 N728 1.356 . S
C721 C720 1.363 . S
C721 C727 1.363 . S
C722 C723 1.363 . S
C722 C727 1.379 . S
C722 N729 1.356 . S
C723 C722 1.363 . S
C723 C726 1.363 . S
N724 C726 1.356 . S
N724 H736 0.984 . S
N724 H737 0.985 . S
N725 C727 1.356 . S
N725 H730 0.984 . S
N725 H731 0.985 . S
C726 C720 1.379 . S
C726 C723 1.363 . S
C726 N724 1.356 . S
C727 C721 1.363 . S
C727 C722 1.379 . S
C727 N725 1.356 . S
N728 C720 1.356 . S
N728 H734 0.984 . S
N728 H735 0.984 . S
N729 C722 1.356 . S
N729 H732 0.984 . S
N729 H733 0.985 . S
H730 N725 0.984 . S
H731 N725 0.985 . S
H732 N729 0.984 . S
H733 N729 0.985 . S
H734 N728 0.984 . S
H735 N728 0.984 . S
H736 N724 0.984 . S
H737 N724 0.985 . S
C738 C739 1.363 . S
C738 C744 1.379 . S
C738 N746 1.356 . S
C739 C738 1.363 . S
C739 C745 1.363 . S
C740 C741 1.363 . S
C740 C745 1.379 . S
C740 N747 1.356 . S
C741 C740 1.363 . S
C741 C744 1.363 . S
N742 C744 1.356 . S
N742 H754 0.984 . S
N742 H755 0.985 . S
N743 C745 1.356 . S
N743 H748 0.984 . S
N743 H749 0.985 . S
C744 C738 1.379 . S
C744 C741 1.363 . S
C744 N742 1.356 . S
C745 C739 1.363 . S
C745 C740 1.379 . S
C745 N743 1.356 . S
N746 C738 1.356 . S
N746 H752 0.984 . S
N746 H753 0.984 . S
N747 C740 1.356 . S
N747 H750 0.984 . S
N747 H751 0.985 . S
H748 N743 0.984 . S
H749 N743 0.985 . S
H750 N747 0.984 . S
H751 N747 0.985 . S
H752 N746 0.984 . S
H753 N746 0.984 . S
H754 N742 0.984 . S
H755 N742 0.985 . S
C756 C757 1.363 . S
C756 C762 1.379 . S
C756 N764 1.356 . S
C757 C756 1.363 . S
C757 C763 1.363 . S
C758 C759 1.363 . S
C758 C763 1.379 . S
C758 N765 1.356 . S
C759 C758 1.363 . S
C759 C762 1.363 . S
N760 C762 1.356 . S
N760 H772 0.984 . S
N760 H773 0.985 . S
N761 C763 1.356 . S
N761 H766 0.984 . S
N761 H767 0.985 . S
C762 C756 1.379 . S
C762 C759 1.363 . S
C762 N760 1.356 . S
C763 C757 1.363 . S
C763 C758 1.379 . S
C763 N761 1.356 . S
N764 C756 1.356 . S
N764 H770 0.984 . S
N764 H771 0.984 . S
N765 C758 1.356 . S
N765 H768 0.984 . S
N765 H769 0.985 . S
H766 N761 0.984 . S
H767 N761 0.985 . S
H768 N765 0.984 . S
H769 N765 0.985 . S
H770 N764 0.984 . S
H771 N764 0.984 . S
H772 N760 0.984 . S
H773 N760 0.985 . S
C774 C775 1.363 . S
C774 C780 1.379 . S
C774 N782 1.356 . S
C775 C774 1.363 . S
C775 C781 1.363 . S
C776 C777 1.363 . S
C776 C781 1.379 . S
C776 N783 1.356 . S
C777 C776 1.363 . S
C777 C780 1.363 . S
N778 C780 1.356 . S
N778 H790 0.984 . S
N778 H791 0.985 . S
N779 C781 1.356 . S
N779 H784 0.984 . S
N779 H785 0.985 . S
C780 C774 1.379 . S
C780 C777 1.363 . S
C780 N778 1.356 . S
C781 C775 1.363 . S
C781 C776 1.379 . S
C781 N779 1.356 . S
N782 C774 1.356 . S
N782 H788 0.984 . S
N782 H789 0.984 . S
N783 C776 1.356 . S
N783 H786 0.984 . S
N783 H787 0.985 . S
H784 N779 0.984 . S
H785 N779 0.985 . S
H786 N783 0.984 . S
H787 N783 0.985 . S
H788 N782 0.984 . S
H789 N782 0.984 . S
H790 N778 0.984 . S
H791 N778 0.985 . S
C792 C793 1.363 . S
C792 C798 1.379 . S
C792 N800 1.356 . S
C793 C792 1.363 . S
C793 C799 1.363 . S
C794 C795 1.363 . S
C794 C799 1.379 . S
C794 N801 1.356 . S
C795 C794 1.363 . S
C795 C798 1.363 . S
N796 C798 1.356 . S
N796 H808 0.984 . S
N796 H809 0.985 . S
N797 C799 1.356 . S
N797 H802 0.984 . S
N797 H803 0.985 . S
C798 C792 1.379 . S
C798 C795 1.363 . S
C798 N796 1.356 . S
C799 C793 1.363 . S
C799 C794 1.379 . S
C799 N797 1.356 . S
N800 C792 1.356 . S
N800 H806 0.984 . S
N800 H807 0.984 . S
N801 C794 1.356 . S
N801 H804 0.984 . S
N801 H805 0.985 . S
H802 N797 0.984 . S
H803 N797 0.985 . S
H804 N801 0.984 . S
H805 N801 0.985 . S
H806 N800 0.984 . S
H807 N800 0.984 . S
H808 N796 0.984 . S
H809 N796 0.985 . S
C810 C811 1.363 . S
C810 C816 1.379 . S
C810 N818 1.356 . S
C811 C810 1.363 . S
C811 C817 1.363 . S
C812 C813 1.363 . S
C812 C817 1.379 . S
C812 N819 1.356 . S
C813 C812 1.363 . S
C813 C816 1.363 . S
N814 C816 1.356 . S
N814 H826 0.984 . S
N814 H827 0.985 . S
N815 C817 1.356 . S
N815 H820 0.984 . S
N815 H821 0.985 . S
C816 C810 1.379 . S
C816 C813 1.363 . S
C816 N814 1.356 . S
C817 C811 1.363 . S
C817 C812 1.379 . S
C817 N815 1.356 . S
N818 C810 1.356 . S
N818 H824 0.984 . S
N818 H825 0.984 . S
N819 C812 1.356 . S
N819 H822 0.984 . S
N819 H823 0.985 . S
H820 N815 0.984 . S
H821 N815 0.985 . S
H822 N819 0.984 . S
H823 N819 0.985 . S
H824 N818 0.984 . S
H825 N818 0.984 . S
H826 N814 0.984 . S
H827 N814 0.985 . S
C828 C829 1.363 . S
C828 C834 1.379 . S
C828 N836 1.356 . S
C829 C828 1.363 . S
C829 C835 1.363 . S
C830 C831 1.363 . S
C830 C835 1.379 . S
C830 N837 1.356 . S
C831 C830 1.363 . S
C831 C834 1.363 . S
N832 C834 1.356 . S
N832 H844 0.984 . S
N832 H845 0.985 . S
N833 C835 1.356 . S
N833 H838 0.984 . S
N833 H839 0.985 . S
C834 C828 1.379 . S
C834 C831 1.363 . S
C834 N832 1.356 . S
C835 C829 1.363 . S
C835 C830 1.379 . S
C835 N833 1.356 . S
N836 C828 1.356 . S
N836 H842 0.984 . S
N836 H843 0.984 . S
N837 C830 1.356 . S
N837 H840 0.984 . S
N837 H841 0.985 . S
H838 N833 0.984 . S
H839 N833 0.985 . S
H840 N837 0.984 . S
H841 N837 0.985 . S
H842 N836 0.984 . S
H843 N836 0.984 . S
H844 N832 0.984 . S
H845 N832 0.985 . S
C846 C847 1.363 . S
C846 C852 1.379 . S
C846 N854 1.356 . S
C847 C846 1.363 . S
C847 C853 1.363 . S
C848 C849 1.363 . S
C848 C853 1.379 . S
C848 N855 1.356 . S
C849 C848 1.363 . S
C849 C852 1.363 . S
N850 C852 1.356 . S
N850 H862 0.984 . S
N850 H863 0.985 . S
N851 C853 1.356 . S
N851 H856 0.984 . S
N851 H857 0.985 . S
C852 C846 1.379 . S
C852 C849 1.363 . S
C852 N850 1.356 . S
C853 C847 1.363 . S
C853 C848 1.379 . S
C853 N851 1.356 . S
N854 C846 1.356 . S
N854 H860 0.984 . S
N854 H861 0.984 . S
N855 C848 1.356 . S
N855 H858 0.984 . S
N855 H859 0.985 . S
H856 N851 0.984 . S
H857 N851 0.985 . S
H858 N855 0.984 . S
H859 N855 0.985 . S
H860 N854 0.984 . S
H861 N854 0.984 . S
H862 N850 0.984 . S
H863 N850 0.985 . S
C864 C865 1.363 . S
C864 C870 1.379 . S
C864 N872 1.356 . S
C865 C864 1.363 . S
C865 C871 1.363 . S
C866 C867 1.363 . S
C866 C871 1.379 . S
C866 N873 1.356 . S
C867 C866 1.363 . S
C867 C870 1.363 . S
N868 C870 1.356 . S
N868 H880 0.984 . S
N868 H881 0.985 . S
N869 C871 1.356 . S
N869 H874 0.984 . S
N869 H875 0.985 . S
C870 C864 1.379 . S
C870 C867 1.363 . S
C870 N868 1.356 . S
C871 C865 1.363 . S
C871 C866 1.379 . S
C871 N869 1.356 . S
N872 C864 1.356 . S
N872 H878 0.984 . S
N872 H879 0.984 . S
N873 C866 1.356 . S
N873 H876 0.984 . S
N873 H877 0.985 . S
H874 N869 0.984 . S
H875 N869 0.985 . S
H876 N873 0.984 . S
H877 N873 0.985 . S
H878 N872 0.984 . S
H879 N872 0.984 . S
H880 N868 0.984 . S
H881 N868 0.985 . S
C882 C883 1.363 . S
C882 C888 1.379 . S
C882 N890 1.356 . S
C883 C882 1.363 . S
C883 C889 1.363 . S
C884 C885 1.363 . S
C884 C889 1.379 . S
C884 N891 1.356 . S
C885 C884 1.363 . S
C885 C888 1.363 . S
N886 C888 1.356 . S
N886 H898 0.984 . S
N886 H899 0.985 . S
N887 C889 1.356 . S
N887 H892 0.984 . S
N887 H893 0.985 . S
C888 C882 1.379 . S
C888 C885 1.363 . S
C888 N886 1.356 . S
C889 C883 1.363 . S
C889 C884 1.379 . S
C889 N887 1.356 . S
N890 C882 1.356 . S
N890 H896 0.984 . S
N890 H897 0.984 . S
N891 C884 1.356 . S
N891 H894 0.984 . S
N891 H895 0.985 . S
H892 N887 0.984 . S
H893 N887 0.985 . S
H894 N891 0.984 . S
H895 N891 0.985 . S
H896 N890 0.984 . S
H897 N890 0.984 . S
H898 N886 0.984 . S
H899 N886 0.985 . S
C900 C901 1.363 . S
C900 C906 1.379 . S
C900 N908 1.356 . S
C901 C900 1.363 . S
C901 C907 1.363 . S
C902 C903 1.363 . S
C902 C907 1.379 . S
C902 N909 1.356 . S
C903 C902 1.363 . S
C903 C906 1.363 . S
N904 C906 1.356 . S
N904 H916 0.984 . S
N904 H917 0.985 . S
N905 C907 1.356 . S
N905 H910 0.984 . S
N905 H911 0.985 . S
C906 C900 1.379 . S
C906 C903 1.363 . S
C906 N904 1.356 . S
C907 C901 1.363 . S
C907 C902 1.379 . S
C907 N905 1.356 . S
N908 C900 1.356 . S
N908 H914 0.984 . S
N908 H915 0.984 . S
N909 C902 1.356 . S
N909 H912 0.984 . S
N909 H913 0.985 . S
H910 N905 0.984 . S
H911 N905 0.985 . S
H912 N909 0.984 . S
H913 N909 0.985 . S
H914 N908 0.984 . S
H915 N908 0.984 . S
H916 N904 0.984 . S
H917 N904 0.985 . S
C918 C919 1.363 . S
C918 C924 1.379 . S
C918 N926 1.356 . S
C919 C918 1.363 . S
C919 C925 1.363 . S
C920 C921 1.363 . S
C920 C925 1.379 . S
C920 N927 1.356 . S
C921 C920 1.363 . S
C921 C924 1.363 . S
N922 C924 1.356 . S
N922 H934 0.984 . S
N922 H935 0.985 . S
N923 C925 1.356 . S
N923 H928 0.984 . S
N923 H929 0.985 . S
C924 C918 1.379 . S
C924 C921 1.363 . S
C924 N922 1.356 . S
C925 C919 1.363 . S
C925 C920 1.379 . S
C925 N923 1.356 . S
N926 C918 1.356 . S
N926 H932 0.984 . S
N926 H933 0.984 . S
N927 C920 1.356 . S
N927 H930 0.984 . S
N927 H931 0.985 . S
H928 N923 0.984 . S
H929 N923 0.985 . S
H930 N927 0.984 . S
H931 N927 0.985 . S
H932 N926 0.984 . S
H933 N926 0.984 . S
H934 N922 0.984 . S
H935 N922 0.985 . S
C936 C937 1.363 . S
C936 C942 1.379 . S
C936 N944 1.356 . S
C937 C936 1.363 . S
C937 C943 1.363 . S
C938 C939 1.363 . S
C938 C943 1.379 . S
C938 N945 1.356 . S
C939 C938 1.363 . S
C939 C942 1.363 . S
N940 C942 1.356 . S
N940 H952 0.984 . S
N940 H953 0.985 . S
N941 C943 1.356 . S
N941 H946 0.984 . S
N941 H947 0.985 . S
C942 C936 1.379 . S
C942 C939 1.363 . S
C942 N940 1.356 . S
C943 C937 1.363 . S
C943 C938 1.379 . S
C943 N941 1.356 . S
N944 C936 1.356 . S
N944 H950 0.984 . S
N944 H951 0.984 . S
N945 C938 1.356 . S
N945 H948 0.984 . S
N945 H949 0.985 . S
H946 N941 0.984 . S
H947 N941 0.985 . S
H948 N945 0.984 . S
H949 N945 0.985 . S
H950 N944 0.984 . S
H951 N944 0.984 . S
H952 N940 0.984 . S
H953 N940 0.985 . S
C954 C955 1.363 . S
C954 C960 1.379 . S
C954 N962 1.356 . S
C955 C954 1.363 . S
C955 C961 1.363 . S
C956 C957 1.363 . S
C956 C961 1.379 . S
C956 N963 1.356 . S
C957 C956 1.363 . S
C957 C960 1.363 . S
N958 C960 1.356 . S
N958 H970 0.984 . S
N958 H971 0.985 . S
N959 C961 1.356 . S
N959 H964 0.984 . S
N959 H965 0.985 . S
C960 C954 1.379 . S
C960 C957 1.363 . S
C960 N958 1.356 . S
C961 C955 1.363 . S
C961 C956 1.379 . S
C961 N959 1.356 . S
N962 C954 1.356 . S
N962 H968 0.984 . S
N962 H969 0.984 . S
N963 C956 1.356 . S
N963 H966 0.984 . S
N963 H967 0.985 . S
H964 N959 0.984 . S
H965 N959 0.985 . S
H966 N963 0.984 . S
H967 N963 0.985 . S
H968 N962 0.984 . S
H969 N962 0.984 . S
H970 N958 0.984 . S
H971 N958 0.985 . S
C972 C973 1.363 . S
C972 C978 1.379 . S
C972 N980 1.356 . S
C973 C972 1.363 . S
C973 C979 1.363 . S
C974 C975 1.363 . S
C974 C979 1.379 . S
C974 N981 1.356 . S
C975 C974 1.363 . S
C975 C978 1.363 . S
N976 C978 1.356 . S
N976 H988 0.984 . S
N976 H989 0.985 . S
N977 C979 1.356 . S
N977 H982 0.984 . S
N977 H983 0.985 . S
C978 C972 1.379 . S
C978 C975 1.363 . S
C978 N976 1.356 . S
C979 C973 1.363 . S
C979 C974 1.379 . S
C979 N977 1.356 . S
N980 C972 1.356 . S
N980 H986 0.984 . S
N980 H987 0.984 . S
N981 C974 1.356 . S
N981 H984 0.984 . S
N981 H985 0.985 . S
H982 N977 0.984 . S
H983 N977 0.985 . S
H984 N981 0.984 . S
H985 N981 0.985 . S
H986 N980 0.984 . S
H987 N980 0.984 . S
H988 N976 0.984 . S
H989 N976 0.985 . S
C990 C991 1.363 . S
C990 C996 1.379 . S
C990 N998 1.356 . S
C991 C990 1.363 . S
C991 C997 1.363 . S
C992 C993 1.363 . S
C992 C997 1.379 . S
C992 N999 1.356 . S
C993 C992 1.363 . S
C993 C996 1.363 . S
N994 C996 1.356 . S
N994 H1006 0.984 . S
N994 H1007 0.985 . S
N995 C997 1.356 . S
N995 H1000 0.984 . S
N995 H1001 0.985 . S
C996 C990 1.379 . S
C996 C993 1.363 . S
C996 N994 1.356 . S
C997 C991 1.363 . S
C997 C992 1.379 . S
C997 N995 1.356 . S
N998 C990 1.356 . S
N998 H1004 0.984 . S
N998 H1005 0.984 . S
N999 C992 1.356 . S
N999 H1002 0.984 . S
N999 H1003 0.985 . S
H1000 N995 0.984 . S
H1001 N995 0.985 . S
H1002 N999 0.984 . S
H1003 N999 0.985 . S
H1004 N998 0.984 . S
H1005 N998 0.984 . S
H1006 N994 0.984 . S
H1007 N994 0.985 . S
C1008 C1009 1.363 . S
C1008 C1014 1.379 . S
C1008 N1016 1.356 . S
C1009 C1008 1.363 . S
C1009 C1015 1.363 . S
C1010 C1011 1.363 . S
C1010 C1015 1.379 . S
C1010 N1017 1.356 . S
C1011 C1010 1.363 . S
C1011 C1014 1.363 . S
N1012 C1014 1.356 . S
N1012 H1024 0.984 . S
N1012 H1025 0.985 . S
N1013 C1015 1.356 . S
N1013 H1018 0.984 . S
N1013 H1019 0.985 . S
C1014 C1008 1.379 . S
C1014 C1011 1.363 . S
C1014 N1012 1.356 . S
C1015 C1009 1.363 . S
C1015 C1010 1.379 . S
C1015 N1013 1.356 . S
N1016 C1008 1.356 . S
N1016 H1022 0.984 . S
N1016 H1023 0.984 . S
N1017 C1010 1.356 . S
N1017 H1020 0.984 . S
N1017 H1021 0.985 . S
H1018 N1013 0.984 . S
H1019 N1013 0.985 . S
H1020 N1017 0.984 . S
H1021 N1017 0.985 . S
H1022 N1016 0.984 . S
H1023 N1016 0.984 . S
H1024 N1012 0.984 . S
H1025 N1012 0.985 . S
C1026 C1027 1.363 . S
C1026 C1032 1.379 . S
C1026 N1034 1.356 . S
C1027 C1026 1.363 . S
C1027 C1033 1.363 . S
C1028 C1029 1.363 . S
C1028 C1033 1.379 . S
C1028 N1035 1.356 . S
C1029 C1028 1.363 . S
C1029 C1032 1.363 . S
N1030 C1032 1.356 . S
N1030 H1042 0.984 . S
N1030 H1043 0.985 . S
N1031 C1033 1.356 . S
N1031 H1036 0.984 . S
N1031 H1037 0.985 . S
C1032 C1026 1.379 . S
C1032 C1029 1.363 . S
C1032 N1030 1.356 . S
C1033 C1027 1.363 . S
C1033 C1028 1.379 . S
C1033 N1031 1.356 . S
N1034 C1026 1.356 . S
N1034 H1040 0.984 . S
N1034 H1041 0.984 . S
N1035 C1028 1.356 . S
N1035 H1038 0.984 . S
N1035 H1039 0.985 . S
H1036 N1031 0.984 . S
H1037 N1031 0.985 . S
H1038 N1035 0.984 . S
H1039 N1035 0.985 . S
H1040 N1034 0.984 . S
H1041 N1034 0.984 . S
H1042 N1030 0.984 . S
H1043 N1030 0.985 . S
C1044 C1045 1.363 . S
C1044 C1050 1.379 . S
C1044 N1052 1.356 . S
C1045 C1044 1.363 . S
C1045 C1051 1.363 . S
C1046 C1047 1.363 . S
C1046 C1051 1.379 . S
C1046 N1053 1.356 . S
C1047 C1046 1.363 . S
C1047 C1050 1.363 . S
N1048 C1050 1.356 . S
N1048 H1060 0.984 . S
N1048 H1061 0.985 . S
N1049 C1051 1.356 . S
N1049 H1054 0.984 . S
N1049 H1055 0.985 . S
C1050 C1044 1.379 . S
C1050 C1047 1.363 . S
C1050 N1048 1.356 . S
C1051 C1045 1.363 . S
C1051 C1046 1.379 . S
C1051 N1049 1.356 . S
N1052 C1044 1.356 . S
N1052 H1058 0.984 . S
N1052 H1059 0.984 . S
N1053 C1046 1.356 . S
N1053 H1056 0.984 . S
N1053 H1057 0.985 . S
H1054 N1049 0.984 . S
H1055 N1049 0.985 . S
H1056 N1053 0.984 . S
H1057 N1053 0.985 . S
H1058 N1052 0.984 . S
H1059 N1052 0.984 . S
H1060 N1048 0.984 . S
H1061 N1048 0.985 . S
C1062 C1063 1.363 . S
C1062 C1068 1.379 . S
C1062 N1070 1.356 . S
C1063 C1062 1.363 . S
C1063 C1069 1.363 . S
C1064 C1065 1.363 . S
C1064 C1069 1.379 . S
C1064 N1071 1.356 . S
C1065 C1064 1.363 . S
C1065 C1068 1.363 . S
N1066 C1068 1.356 . S
N1066 H1078 0.984 . S
N1066 H1079 0.985 . S
N1067 C1069 1.356 . S
N1067 H1072 0.984 . S
N1067 H1073 0.985 . S
C1068 C1062 1.379 . S
C1068 C1065 1.363 . S
C1068 N1066 1.356 . S
C1069 C1063 1.363 . S
C1069 C1064 1.379 . S
C1069 N1067 1.356 . S
N1070 C1062 1.356 . S
N1070 H1076 0.984 . S
N1070 H1077 0.984 . S
N1071 C1064 1.356 . S
N1071 H1074 0.984 . S
N1071 H1075 0.985 . S
H1072 N1067 0.984 . S
H1073 N1067 0.985 . S
H1074 N1071 0.984 . S
H1075 N1071 0.985 . S
H1076 N1070 0.984 . S
H1077 N1070 0.984 . S
H1078 N1066 0.984 . S
H1079 N1066 0.985 . S
C1080 C1081 1.363 . S
C1080 C1086 1.379 1_554 S
C1080 N1088 1.356 . S
C1081 C1080 1.363 . S
C1081 C1087 1.363 1_545 S
C1082 C1083 1.363 . S
C1082 C1087 1.379 1_556 S
C1082 N1089 1.356 . S
C1083 C1082 1.363 . S
C1083 C1086 1.363 1_565 S
N1084 C1086 1.356 . S
N1084 H1096 0.984 . S
N1084 H1097 0.985 . S
N1085 C1087 1.356 . S
N1085 H1090 0.984 . S
N1085 H1091 0.985 . S
C1086 C1080 1.379 1_556 S
C1086 C1083 1.363 1_545 S
C1086 N1084 1.356 . S
C1087 C1081 1.363 1_565 S
C1087 C1082 1.379 1_554 S
C1087 N1085 1.356 . S
N1088 C1080 1.356 . S
N1088 H1094 0.984 . S
N1088 H1095 0.984 . S
N1089 C1082 1.356 . S
N1089 H1092 0.984 . S
N1089 H1093 0.985 . S
H1090 N1085 0.984 . S
H1091 N1085 0.985 . S
H1092 N1089 0.984 . S
H1093 N1089 0.985 . S
H1094 N1088 0.984 . S
H1095 N1088 0.984 . S
H1096 N1084 0.984 . S
H1097 N1084 0.985 . S
C1098 C1099 1.363 1_655 S
C1098 C1104 1.379 1_556 S
C1098 N1106 1.356 . S
C1099 C1098 1.363 1_455 S
C1099 C1105 1.363 . S
C1100 C1101 1.363 1_455 S
C1100 C1105 1.379 1_554 S
C1100 N1107 1.356 . S
C1101 C1100 1.363 1_655 S
C1101 C1104 1.363 . S
N1102 C1104 1.356 . S
N1102 H1114 0.984 . S
N1102 H1115 0.985 . S
N1103 C1105 1.356 . S
N1103 H1108 0.984 . S
N1103 H1109 0.985 . S
C1104 C1098 1.379 1_554 S
C1104 C1101 1.363 . S
C1104 N1102 1.356 . S
C1105 C1099 1.363 . S
C1105 C1100 1.379 1_556 S
C1105 N1103 1.356 . S
N1106 C1098 1.356 . S
N1106 H1112 0.984 . S
N1106 H1113 0.984 . S
N1107 C1100 1.356 . S
N1107 H1110 0.984 . S
N1107 H1111 0.985 . S
H1108 N1103 0.984 . S
H1109 N1103 0.985 . S
H1110 N1107 0.984 . S
H1111 N1107 0.985 . S
H1112 N1106 0.984 . S
H1113 N1106 0.984 . S
H1114 N1102 0.984 . S
H1115 N1102 0.985 . S
C1116 C1117 1.363 1_565 S
C1116 C1122 1.379 1_556 S
C1116 N1124 1.356 . S
C1117 C1116 1.363 1_545 S
C1117 C1123 1.363 . S
C1118 C1119 1.363 1_545 S
C1118 C1123 1.379 1_554 S
C1118 N1125 1.356 . S
C1119 C1118 1.363 1_565 S
C1119 C1122 1.363 . S
N1120 C1122 1.356 . S
N1120 H1132 0.984 . S
N1120 H1133 0.985 . S
N1121 C1123 1.356 . S
N1121 H1126 0.984 . S
N1121 H1127 0.985 . S
C1122 C1116 1.379 1_554 S
C1122 C1119 1.363 . S
C1122 N1120 1.356 . S
C1123 C1117 1.363 . S
C1123 C1118 1.379 1_556 S
C1123 N1121 1.356 . S
N1124 C1116 1.356 . S
N1124 H1130 0.984 . S
N1124 H1131 0.984 . S
N1125 C1118 1.356 . S
N1125 H1128 0.984 . S
N1125 H1129 0.985 . S
H1126 N1121 0.984 . S
H1127 N1121 0.985 . S
H1128 N1125 0.984 . S
H1129 N1125 0.985 . S
H1130 N1124 0.984 . S
H1131 N1124 0.984 . S
H1132 N1120 0.984 . S
H1133 N1120 0.985 . S
C1134 C1135 1.363 1_455 S
C1134 C1140 1.379 1_556 S
C1134 N1142 1.356 . S
C1135 C1134 1.363 1_655 S
C1135 C1141 1.363 . S
C1136 C1137 1.363 1_655 S
C1136 C1141 1.379 1_554 S
C1136 N1143 1.356 . S
C1137 C1136 1.363 1_455 S
C1137 C1140 1.363 . S
N1138 C1140 1.356 . S
N1138 H1150 0.984 . S
N1138 H1151 0.985 . S
N1139 C1141 1.356 . S
N1139 H1144 0.984 . S
N1139 H1145 0.985 . S
C1140 C1134 1.379 1_554 S
C1140 C1137 1.363 . S
C1140 N1138 1.356 . S
C1141 C1135 1.363 . S
C1141 C1136 1.379 1_556 S
C1141 N1139 1.356 . S
N1142 C1134 1.356 . S
N1142 H1148 0.984 . S
N1142 H1149 0.984 . S
N1143 C1136 1.356 . S
N1143 H1146 0.984 . S
N1143 H1147 0.985 . S
H1144 N1139 0.984 . S
H1145 N1139 0.985 . S
H1146 N1143 0.984 . S
H1147 N1143 0.985 . S
H1148 N1142 0.984 . S
H1149 N1142 0.984 . S
H1150 N1138 0.984 . S
H1151 N1138 0.985 . S
C577 C4 1.307 . S
C579 C256 1.307 . S
C595 C40 1.307 . S
C597 C148 1.307 . S
C613 C184 1.307 . S
C615 C76 1.307 . S
C631 C112 1.307 . S
C633 C220 1.307 . S
C649 C292 1.307 . S
C651 C544 1.307 . S
C667 C436 1.307 . S
C669 C328 1.307 . S
C685 C472 1.307 . S
C687 C364 1.307 . S
C703 C508 1.307 . S
C705 C400 1.307 . S
C721 C3 1.412 . S
C723 C398 1.434 . S
C739 C39 1.412 . S
C741 C290 1.434 . S
C757 C326 1.434 . S
C759 C75 1.412 . S
C775 C111 1.412 . S
C777 C362 1.434 . S
C793 C147 1.412 . S
C795 C470 1.434 . S
C811 C506 1.434 . S
C813 C183 1.412 . S
C829 C219 1.412 . S
C831 C542 1.434 . S
C847 C434 1.434 . S
C849 C255 1.412 . S
C865 C291 1.412 . S
C867 C110 1.434 . S
C883 C2 1.434 . S
C885 C327 1.412 . S
C901 C363 1.412 . S
C903 C38 1.434 . S
C919 C74 1.434 . S
C921 C399 1.412 . S
C937 C435 1.412 . S
C939 C182 1.434 . S
C955 C218 1.434 . S
C957 C471 1.412 . S
C973 C254 1.434 . S
C975 C507 1.412 . S
C991 C146 1.434 . S
C993 C543 1.412 . S
C1009 C158 1.535 . S
C1011 C14 1.535 . S
C1027 C194 1.535 . S
C1029 C50 1.535 . S
C1045 C86 1.535 . S
C1047 C230 1.535 . S
C1063 C266 1.535 . S
C1065 C122 1.535 . S
C1081 C446 1.535 . S
C1083 C302 1.535 . S
C1099 C482 1.535 . S
C1101 C338 1.535 . S
C1117 C374 1.535 . S
C1119 C518 1.535 . S
C1135 C554 1.535 . S
C1137 C410 1.535 . S
