# Generated by pormake.
# Topology bcs, (6)-cn, num edge types: 1
# Building blocks:
#     Node 0, Type 0, BuildingBlock: BETDEL_clean_sbu_0, # of connection points: 6
#     Node 1, Type 0, BuildingBlock: BETDEL_clean_sbu_0, # of connection points: 6
#     Node 2, Type 0, BuildingBlock: BETDEL_clean_sbu_0, # of connection points: 6
#     Node 3, Type 0, BuildingBlock: BETDEL_clean_sbu_0, # of connection points: 6
#     Node 4, Type 0, BuildingBlock: BETDEL_clean_sbu_0, # of connection points: 6
#     Node 5, Type 0, BuildingBlock: BETDEL_clean_sbu_0, # of connection points: 6
#     Node 6, Type 0, BuildingBlock: BETDEL_clean_sbu_0, # of connection points: 6
#     Node 7, Type 0, BuildingBlock: BETDEL_clean_sbu_0, # of connection points: 6
#     Node 8, Type 0, BuildingBlock: BETDEL_clean_sbu_0, # of connection points: 6
#     Node 9, Type 0, BuildingBlock: BETDEL_clean_sbu_0, # of connection points: 6
#     Node 10, Type 0, BuildingBlock: BETDEL_clean_sbu_0, # of connection points: 6
#     Node 11, Type 0, BuildingBlock: BETDEL_clean_sbu_0, # of connection points: 6
#     Node 12, Type 0, BuildingBlock: BETDEL_clean_sbu_0, # of connection points: 6
#     Node 13, Type 0, BuildingBlock: BETDEL_clean_sbu_0, # of connection points: 6
#     Node 14, Type 0, BuildingBlock: BETDEL_clean_sbu_0, # of connection points: 6
#     Node 15, Type 0, BuildingBlock: BETDEL_clean_sbu_0, # of connection points: 6
#     Edge 16, Type (0, 0), BuildingBlock: AJUNOK_clean_linker_0, # of connection points: 2
#     Edge 17, Type (0, 0), BuildingBlock: AJUNOK_clean_linker_0, # of connection points: 2
#     Edge 18, Type (0, 0), BuildingBlock: AJUNOK_clean_linker_0, # of connection points: 2
#     Edge 19, Type (0, 0), BuildingBlock: AJUNOK_clean_linker_0, # of connection points: 2
#     Edge 20, Type (0, 0), BuildingBlock: AJUNOK_clean_linker_0, # of connection points: 2
#     Edge 21, Type (0, 0), BuildingBlock: AJUNOK_clean_linker_0, # of connection points: 2
#     Edge 22, Type (0, 0), BuildingBlock: AJUNOK_clean_linker_0, # of connection points: 2
#     Edge 23, Type (0, 0), BuildingBlock: AJUNOK_clean_linker_0, # of connection points: 2
#     Edge 24, Type (0, 0), BuildingBlock: AJUNOK_clean_linker_0, # of connection points: 2
#     Edge 25, Type (0, 0), BuildingBlock: AJUNOK_clean_linker_0, # of connection points: 2
#     Edge 26, Type (0, 0), BuildingBlock: AJUNOK_clean_linker_0, # of connection points: 2
#     Edge 27, Type (0, 0), BuildingBlock: AJUNOK_clean_linker_0, # of connection points: 2
#     Edge 28, Type (0, 0), BuildingBlock: AJUNOK_clean_linker_0, # of connection points: 2
#     Edge 29, Type (0, 0), BuildingBlock: AJUNOK_clean_linker_0, # of connection points: 2
#     Edge 30, Type (0, 0), BuildingBlock: AJUNOK_clean_linker_0, # of connection points: 2
#     Edge 31, Type (0, 0), BuildingBlock: AJUNOK_clean_linker_0, # of connection points: 2
#     Edge 32, Type (0, 0), BuildingBlock: AJUNOK_clean_linker_0, # of connection points: 2
#     Edge 33, Type (0, 0), BuildingBlock: AJUNOK_clean_linker_0, # of connection points: 2
#     Edge 34, Type (0, 0), BuildingBlock: AJUNOK_clean_linker_0, # of connection points: 2
#     Edge 35, Type (0, 0), BuildingBlock: AJUNOK_clean_linker_0, # of connection points: 2
#     Edge 36, Type (0, 0), BuildingBlock: AJUNOK_clean_linker_0, # of connection points: 2
#     Edge 37, Type (0, 0), BuildingBlock: AJUNOK_clean_linker_0, # of connection points: 2
#     Edge 38, Type (0, 0), BuildingBlock: AJUNOK_clean_linker_0, # of connection points: 2
#     Edge 39, Type (0, 0), BuildingBlock: AJUNOK_clean_linker_0, # of connection points: 2
#     Edge 40, Type (0, 0), BuildingBlock: AJUNOK_clean_linker_0, # of connection points: 2
#     Edge 41, Type (0, 0), BuildingBlock: AJUNOK_clean_linker_0, # of connection points: 2
#     Edge 42, Type (0, 0), BuildingBlock: AJUNOK_clean_linker_0, # of connection points: 2
#     Edge 43, Type (0, 0), BuildingBlock: AJUNOK_clean_linker_0, # of connection points: 2
#     Edge 44, Type (0, 0), BuildingBlock: AJUNOK_clean_linker_0, # of connection points: 2
#     Edge 45, Type (0, 0), BuildingBlock: AJUNOK_clean_linker_0, # of connection points: 2
#     Edge 46, Type (0, 0), BuildingBlock: AJUNOK_clean_linker_0, # of connection points: 2
#     Edge 47, Type (0, 0), BuildingBlock: AJUNOK_clean_linker_0, # of connection points: 2
#     Edge 48, Type (0, 0), BuildingBlock: AJUNOK_clean_linker_0, # of connection points: 2
#     Edge 49, Type (0, 0), BuildingBlock: AJUNOK_clean_linker_0, # of connection points: 2
#     Edge 50, Type (0, 0), BuildingBlock: AJUNOK_clean_linker_0, # of connection points: 2
#     Edge 51, Type (0, 0), BuildingBlock: AJUNOK_clean_linker_0, # of connection points: 2
#     Edge 52, Type (0, 0), BuildingBlock: AJUNOK_clean_linker_0, # of connection points: 2
#     Edge 53, Type (0, 0), BuildingBlock: AJUNOK_clean_linker_0, # of connection points: 2
#     Edge 54, Type (0, 0), BuildingBlock: AJUNOK_clean_linker_0, # of connection points: 2
#     Edge 55, Type (0, 0), BuildingBlock: AJUNOK_clean_linker_0, # of connection points: 2
#     Edge 56, Type (0, 0), BuildingBlock: AJUNOK_clean_linker_0, # of connection points: 2
#     Edge 57, Type (0, 0), BuildingBlock: AJUNOK_clean_linker_0, # of connection points: 2
#     Edge 58, Type (0, 0), BuildingBlock: AJUNOK_clean_linker_0, # of connection points: 2
#     Edge 59, Type (0, 0), BuildingBlock: AJUNOK_clean_linker_0, # of connection points: 2
#     Edge 60, Type (0, 0), BuildingBlock: AJUNOK_clean_linker_0, # of connection points: 2
#     Edge 61, Type (0, 0), BuildingBlock: AJUNOK_clean_linker_0, # of connection points: 2
#     Edge 62, Type (0, 0), BuildingBlock: AJUNOK_clean_linker_0, # of connection points: 2
#     Edge 63, Type (0, 0), BuildingBlock: AJUNOK_clean_linker_0, # of connection points: 2
# Relax obj value: 0.146
# Max RMSD: 0.241
# Mean RMSD: 0.191
data_MOF--net-bcs--node1-BETDEL_clean_sbu_0--edge1-AJUNOK_clean_linker_0
_symmetry_space_group_name_H-M    P1
_symmetry_Int_Tables_number       1
_symmetry_cell_setting            triclinic
loop_
_symmetry_equiv_pos_as_xyz
'x, y, z'
_cell_length_a     27.173883
_cell_length_b     28.104317
_cell_length_c     25.985191
_cell_angle_alpha  90.456237
_cell_angle_beta   94.304664
_cell_angle_gamma 106.70639
loop_
_atom_site_label
_atom_site_type_symbol
_atom_site_fract_x
_atom_site_fract_y
_atom_site_fract_z
_atom_type_partial_charge
Dy0 Dy 0.02827 0.96302 0.95858 0.0
C1 C 0.94841 0.08835 0.07223 0.0
C2 C 0.08605 0.91668 0.90898 0.0
Dy3 Dy 1.00102 0.03478 0.02448 0.0
O4 O 0.03846 0.8962 0.91829 0.0
O5 O 0.1012 0.9626 0.92523 0.0
O6 O 0.9536 0.90511 0.96897 0.0
O7 O 0.98942 0.95526 0.02999 0.0
C8 C 0.94975 0.92048 0.01534 0.0
C9 C 0.08043 0.07499 0.96784 0.0
O10 O 0.04735 0.00808 0.08561 0.0
O11 O 0.08863 0.97654 0.02534 0.0
O12 O 0.99515 0.10586 0.05923 0.0
O13 O 0.93129 0.04111 0.06128 0.0
O14 O 0.07795 0.08988 0.01466 0.0
O15 O 0.0394 0.04228 0.95288 0.0
O16 O 0.98107 0.98884 0.8979 0.0
O17 O 0.93973 0.01963 0.95851 0.0
C18 C 0.08477 0.98982 0.07345 0.0
C19 C 0.9435 0.00669 0.91021 0.0
Dy20 Dy 0.2807 0.7249 0.2546 0.0
C21 C 0.18823 0.87352 0.19188 0.0
C22 C 0.32847 0.65672 0.28774 0.0
Dy23 Dy 0.22979 0.80226 0.22983 0.0
O24 O 0.27981 0.64658 0.27315 0.0
O25 O 0.35017 0.70418 0.287 0.0
O26 O 0.27107 0.70034 0.1717 0.0
O27 O 0.21346 0.72534 0.20147 0.0
C28 C 0.22768 0.7099 0.16111 0.0
C29 C 0.2852 0.81845 0.32212 0.0
O30 O 0.16507 0.74335 0.25672 0.0
O31 O 0.22006 0.71326 0.31014 0.0
O32 O 0.23262 0.86893 0.18183 0.0
O33 O 0.16571 0.83813 0.22119 0.0
O34 O 0.24349 0.83105 0.31189 0.0
O35 O 0.29739 0.80198 0.28144 0.0
O36 O 0.34436 0.77938 0.221 0.0
O37 O 0.28955 0.81438 0.17312 0.0
C38 C 0.17391 0.71803 0.29685 0.0
C39 C 0.33495 0.8068 0.18309 0.0
Dy40 Dy 0.49654 0.00459 0.53554 0.0
C41 C 0.56881 0.96639 0.34533 0.0
C42 C 0.46921 0.04102 0.62198 0.0
Dy43 Dy 0.54012 0.99839 0.43402 0.0
O44 O 0.44418 0.99887 0.59915 0.0
O45 O 0.51017 0.06176 0.59871 0.0
O46 O 0.44372 0.9274 0.5237 0.0
O47 O 0.46339 0.97258 0.45994 0.0
C48 C 0.44128 0.92929 0.47369 0.0
C49 C 0.59562 0.07291 0.49786 0.0
O50 O 0.48613 0.04205 0.40851 0.0
O51 O 0.47466 0.06564 0.49126 0.0
O52 O 0.59191 0.00832 0.36952 0.0
O53 O 0.52923 0.94263 0.36921 0.0
O54 O 0.59319 0.07593 0.44795 0.0
O55 O 0.57306 0.0293 0.50973 0.0
O56 O 0.55084 0.96192 0.56187 0.0
O57 O 0.56437 0.93864 0.47945 0.0
C58 C 0.46985 0.07014 0.44051 0.0
C59 C 0.56892 0.93476 0.53047 0.0
Dy60 Dy 0.29943 0.21263 0.74474 0.0
C61 C 0.19238 0.35554 0.76477 0.0
C62 C 0.35665 0.15196 0.72312 0.0
Dy63 Dy 0.24134 0.28634 0.7468 0.0
O64 O 0.37469 0.19705 0.74131 0.0
O65 O 0.30661 0.13921 0.71682 0.0
O66 O 0.32969 0.23276 0.82625 0.0
O67 O 0.3181 0.28782 0.77726 0.0
C68 C 0.33166 0.27922 0.82272 0.0
C69 C 0.20996 0.21916 0.66853 0.0
O70 O 0.30521 0.32902 0.70219 0.0
O71 O 0.32623 0.2593 0.67595 0.0
O72 O 0.17231 0.31445 0.73829 0.0
O73 O 0.23918 0.35863 0.78239 0.0
O74 O 0.21242 0.26575 0.6647 0.0
O75 O 0.22263 0.21092 0.71434 0.0
O76 O 0.24043 0.17086 0.79542 0.0
O77 O 0.20959 0.23782 0.81243 0.0
C78 C 0.33031 0.30729 0.67261 0.0
C79 C 0.21157 0.19189 0.82112 0.0
Dy80 Dy 0.06217 0.97897 0.50559 0.0
C81 C 0.90123 0.06702 0.43222 0.0
C82 C 0.13816 0.9418 0.55032 0.0
Dy83 Dy 0.97595 0.02767 0.47548 0.0
O84 O 0.11281 0.92773 0.50586 0.0
O85 O 0.12226 0.97683 0.57034 0.0
O86 O 0.03826 0.93017 0.43436 0.0
O87 O 0.9825 0.95256 0.47122 0.0
C88 C 0.99033 0.92987 0.43226 0.0
C89 C 0.04715 0.07579 0.54921 0.0
O90 O 0.9353 0.96991 0.52958 0.0
O91 O 1.00929 0.95715 0.57062 0.0
O92 O 0.92084 0.0741 0.47967 0.0
O93 O 0.92187 0.0375 0.40845 0.0
O94 O 0.99949 0.07614 0.54692 0.0
O95 O 0.05505 0.05375 0.50988 0.0
O96 O 0.10295 0.0355 0.45044 0.0
O97 O 0.02941 0.05059 0.41093 0.0
C98 C 0.959 0.95247 0.56854 0.0
C99 C 0.0795 0.05433 0.41241 0.0
Dy100 Dy 0.26122 0.76695 0.76159 0.0
C101 C 0.38727 0.71814 0.61857 0.0
C102 C 0.21586 0.80906 0.8306 0.0
Dy103 Dy 0.33036 0.75649 0.68115 0.0
O104 O 0.19674 0.76428 0.8111 0.0
O105 O 0.26035 0.82986 0.8136 0.0
O106 O 0.20862 0.69098 0.74379 0.0
O107 O 0.24654 0.73293 0.68378 0.0
C108 C 0.21795 0.69096 0.69551 0.0
C109 C 0.37146 0.83059 0.75159 0.0
O110 O 0.28994 0.80424 0.63541 0.0
O111 O 0.25253 0.82533 0.70615 0.0
O112 O 0.40572 0.74951 0.65689 0.0
O113 O 0.33753 0.70955 0.61274 0.0
O114 O 0.38028 0.83455 0.70304 0.0
O115 O 0.34376 0.78747 0.7595 0.0
O116 O 0.302 0.72179 0.80695 0.0
O117 O 0.32743 0.69163 0.73382 0.0
C118 C 0.26351 0.83093 0.65741 0.0
C119 C 0.32022 0.6892 0.78387 0.0
Dy120 Dy 0.55656 0.97092 0.97962 0.0
C121 C 0.42552 0.08889 0.05575 0.0
C122 C 0.61182 0.91812 0.92907 0.0
Dy123 Dy 0.48028 0.03517 0.00536 0.0
O124 O 0.57437 0.93369 0.9082 0.0
O125 O 0.61856 0.93099 0.97793 0.0
O126 O 0.59758 0.99113 0.05931 0.0
O127 O 0.56129 0.03929 0.02235 0.0
C128 C 0.58385 0.03157 0.06414 0.0
C129 C 0.45482 0.97593 0.91996 0.0
O130 O 0.53336 0.09 0.95918 0.0
O131 O 0.57727 0.03596 0.92851 0.0
O132 O 0.40634 0.05503 0.01935 0.0
O133 O 0.47452 0.09331 0.06396 0.0
O134 O 0.44229 0.01706 0.9246 0.0
O135 O 0.47528 0.9664 0.96224 0.0
O136 O 0.49866 0.91618 0.02047 0.0
O137 O 0.46932 0.97509 0.06318 0.0
C138 C 0.56618 0.07898 0.92933 0.0
C139 C 0.47498 0.92998 0.05797 0.0
Dy140 Dy 0.30725 0.2528 0.28604 0.0
C141 C 0.17428 0.29879 0.12471 0.0
C142 C 0.3544 0.19874 0.34943 0.0
Dy143 Dy 0.22973 0.25756 0.19486 0.0
O144 O 0.36516 0.24719 0.35205 0.0
O145 O 0.31699 0.18092 0.31425 0.0
O146 O 0.35841 0.32972 0.27274 0.0
O147 O 0.31308 0.28647 0.21102 0.0
C148 C 0.34222 0.32932 0.22406 0.0
C149 C 0.19636 0.18217 0.25945 0.0
O150 O 0.27259 0.21329 0.15158 0.0
O151 O 0.32557 0.20515 0.22342 0.0
O152 O 0.15469 0.26494 0.15711 0.0
O153 O 0.22405 0.30828 0.12906 0.0
O154 O 0.18214 0.17926 0.2101 0.0
O155 O 0.22414 0.22576 0.27111 0.0
O156 O 0.25911 0.29254 0.32763 0.0
O157 O 0.22253 0.31619 0.25226 0.0
C158 C 0.30977 0.19608 0.17365 0.0
C159 C 0.23084 0.31868 0.30348 0.0
Dy160 Dy 0.56001 0.48363 0.00907 0.0
C161 C 0.40072 0.55822 0.9142 0.0
C162 C 0.62885 0.44798 0.06713 0.0
Dy163 Dy 0.47225 0.52686 0.97306 0.0
O164 O 0.60501 0.47813 0.08422 0.0
O165 O 0.61698 0.43962 0.01792 0.0
O166 O 0.54014 0.43036 0.94138 0.0
O167 O 0.482 0.45309 0.97354 0.0
C168 C 0.49203 0.4293 0.93668 0.0
C169 C 0.5412 0.57997 0.04547 0.0
O170 O 0.43028 0.47197 0.02877 0.0
O171 O 0.50485 0.46352 0.0724 0.0
O172 O 0.41492 0.57044 0.96254 0.0
O173 O 0.42436 0.52727 0.89861 0.0
O174 O 0.49315 0.5794 0.04242 0.0
O175 O 0.55023 0.55695 0.00773 0.0
O176 O 0.60229 0.53781 0.95232 0.0
O177 O 0.52851 0.55099 0.91144 0.0
C178 C 0.45431 0.45731 0.06932 0.0
C179 C 0.57875 0.55549 0.91333 0.0
Dy180 Dy 0.70818 0.25212 0.30077 0.0
C181 C 0.82189 0.20108 0.14842 0.0
C182 C 0.65387 0.28914 0.36742 0.0
Dy183 Dy 0.7764 0.24246 0.21826 0.0
O184 O 0.63393 0.2558 0.3311 0.0
O185 O 0.70381 0.30087 0.36865 0.0
O186 O 0.66006 0.17303 0.28064 0.0
O187 O 0.69405 0.22038 0.22295 0.0
C188 C 0.66751 0.17714 0.2318 0.0
C189 C 0.81809 0.31947 0.2834 0.0
O190 O 0.73249 0.28493 0.17325 0.0
O191 O 0.70531 0.3145 0.2458 0.0
O192 O 0.84015 0.24616 0.16738 0.0
O193 O 0.77808 0.1794 0.16651 0.0
O194 O 0.82664 0.31992 0.23487 0.0
O195 O 0.79145 0.27696 0.29548 0.0
O196 O 0.75161 0.20664 0.34587 0.0
O197 O 0.7888 0.18618 0.2747 0.0
C198 C 0.71223 0.31637 0.19555 0.0
C199 C 0.77935 0.18126 0.32393 0.0
Dy200 Dy 0.0545 0.47713 0.46745 0.0
C201 C 0.92428 0.58409 0.56271 0.0
C202 C 0.11185 0.42697 0.41541 0.0
Dy203 Dy 0.981 0.53366 0.5107 0.0
O204 O 0.12129 0.44403 0.46279 0.0
O205 O 0.07054 0.43737 0.39612 0.0
O206 O 0.10689 0.50001 0.53967 0.0
O207 O 0.06464 0.54722 0.51139 0.0
C208 C 0.09436 0.5403 0.54821 0.0
C209 C 0.94128 0.47074 0.42975 0.0
O210 O 0.02677 0.59103 0.46194 0.0
O211 O 0.05483 0.53717 0.41068 0.0
O212 O 0.91495 0.56773 0.51509 0.0
O213 O 0.96501 0.5728 0.58218 0.0
O214 O 0.9287 0.51097 0.43855 0.0
O215 O 0.97094 0.46376 0.46664 0.0
O216 O 1.00907 0.42002 0.51738 0.0
O217 O 0.98036 0.47412 0.56759 0.0
C218 C 0.04615 0.58061 0.41955 0.0
C219 C 0.98951 0.43081 0.55963 0.0
Dy220 Dy 0.79487 0.70977 0.24043 0.0
C221 C 0.68355 0.85021 0.26082 0.0
C222 C 0.83882 0.63764 0.21686 0.0
Dy223 Dy 0.73911 0.78602 0.24594 0.0
O224 O 0.8625 0.67894 0.24179 0.0
O225 O 0.79132 0.63615 0.20401 0.0
O226 O 0.83108 0.73046 0.32037 0.0
O227 O 0.81637 0.78555 0.27304 0.0
C228 C 0.83197 0.77678 0.31778 0.0
C229 C 0.70355 0.71849 0.16903 0.0
O230 O 0.80071 0.82718 0.19771 0.0
O231 O 0.82132 0.75672 0.17185 0.0
O232 O 0.73348 0.86163 0.26801 0.0
O233 O 0.66438 0.80375 0.24752 0.0
O234 O 0.70813 0.76532 0.16429 0.0
O235 O 0.71735 0.71024 0.21448 0.0
O236 O 0.73366 0.67054 0.29021 0.0
O237 O 0.7158 0.74201 0.31696 0.0
C238 C 0.82397 0.80436 0.16709 0.0
C239 C 0.71149 0.69402 0.32137 0.0
Dy240 Dy 0.8105 0.19719 0.74327 0.0
C241 C 0.71253 0.34181 0.69268 0.0
C242 C 0.84823 0.12534 0.78566 0.0
Dy243 Dy 0.75899 0.27161 0.72198 0.0
O244 O 0.86363 0.14847 0.74421 0.0
O245 O 0.81422 0.14295 0.80466 0.0
O246 O 0.79599 0.16774 0.66199 0.0
O247 O 0.74039 0.19462 0.69337 0.0
C248 C 0.75282 0.17788 0.65272 0.0
C249 C 0.81545 0.28827 0.81425 0.0
O250 O 0.69553 0.22047 0.75946 0.0
O251 O 0.75025 0.18097 0.7995 0.0
O252 O 0.76113 0.35078 0.70672 0.0
O253 O 0.69011 0.29441 0.69148 0.0
O254 O 0.77032 0.29444 0.80528 0.0
O255 O 0.82895 0.27391 0.77287 0.0
O256 O 0.87494 0.25713 0.71672 0.0
O257 O 0.81794 0.28509 0.66433 0.0
C258 C 0.70556 0.19078 0.79471 0.0
C259 C 0.86499 0.28236 0.67683 0.0
Dy260 Dy 0.80798 0.75127 0.78788 0.0
C261 C 0.68542 0.8121 0.63205 0.0
C262 C 0.85741 0.70042 0.85271 0.0
Dy263 Dy 0.73064 0.75783 0.69746 0.0
O264 O 0.86808 0.7488 0.85317 0.0
O265 O 0.81942 0.68125 0.81872 0.0
O266 O 0.86023 0.82757 0.77191 0.0
O267 O 0.81387 0.78346 0.71192 0.0
C268 C 0.84385 0.82613 0.72326 0.0
C269 C 0.69593 0.6805 0.75909 0.0
O270 O 0.77659 0.71662 0.65422 0.0
O271 O 0.82132 0.69863 0.72752 0.0
O272 O 0.67235 0.76354 0.63175 0.0
O273 O 0.7236 0.8297 0.66646 0.0
O274 O 0.67856 0.68129 0.71096 0.0
O275 O 0.72456 0.72345 0.77248 0.0
O276 O 0.76089 0.78979 0.83243 0.0
O277 O 0.71489 0.80751 0.75992 0.0
C278 C 0.80845 0.69329 0.67699 0.0
C279 C 0.72795 0.81227 0.81053 0.0
Dy280 Dy 0.55551 0.50692 0.546 0.0
C281 C 0.43734 0.52171 0.36214 0.0
C282 C 0.60482 0.48114 0.63155 0.0
Dy283 Dy 0.48592 0.49616 0.4483 0.0
O284 O 0.62626 0.51446 0.5994 0.0
O285 O 0.55586 0.46437 0.61811 0.0
O286 O 0.60213 0.58221 0.52439 0.0
O287 O 0.56869 0.52687 0.46645 0.0
C288 C 0.59356 0.57213 0.475 0.0
C289 C 0.44808 0.43179 0.52064 0.0
O290 O 0.52773 0.44409 0.42306 0.0
O291 O 0.56792 0.44078 0.50447 0.0
O292 O 0.41531 0.48927 0.39485 0.0
O293 O 0.48638 0.53787 0.37545 0.0
O294 O 0.43918 0.42084 0.4714 0.0
O295 O 0.473 0.47705 0.5279 0.0
O296 O 0.51304 0.55883 0.57092 0.0
O297 O 0.47383 0.56259 0.48914 0.0
C298 C 0.55585 0.4247 0.45569 0.0
C299 C 0.48526 0.57842 0.53802 0.0
Dy300 Dy 0.99274 0.50063 0.03569 0.0
C301 C 0.08521 0.47839 0.8537 0.0
C302 C 0.94486 0.51875 0.11874 0.0
Dy303 Dy 0.04808 0.50659 0.93914 0.0
O304 O 0.92277 0.49085 0.07878 0.0
O305 O 0.99401 0.53594 0.11397 0.0
O306 O 0.9505 0.42077 0.01376 0.0
O307 O 0.96933 0.47376 0.95665 0.0
C308 C 0.94965 0.42843 0.96455 0.0
C309 C 0.09014 0.5818 0.0058 0.0
O310 O 0.99404 0.54914 0.91209 0.0
O311 O 0.97402 0.56498 -0.0055 0.0
O312 O 0.10996 0.51524 0.88485 0.0
O313 O 0.0394 0.45845 0.86832 0.0
O314 O 0.0926 0.58565 0.95616 0.0
O315 O 0.07132 0.53693 0.01741 0.0
O316 O 0.04482 0.45638 0.06403 0.0
O317 O 0.07336 0.44758 0.98359 0.0
C318 C 0.97338 0.57329 0.94424 0.0
C319 C 0.07058 0.43647 0.03305 0.0
C320 C 0.12832 0.16431 0.86222 0.0
C321 C 0.17938 0.16276 0.85984 0.0
C322 C 0.0963 0.13544 0.89726 0.0
C323 C 0.11485 0.10528 0.93193 0.0
H324 H 0.11264 0.18707 0.83602 0.0
H325 H 0.05685 0.1368 0.89739 0.0
S326 S 0.24585 0.08974 0.94296 0.0
N327 N 0.24705 0.1289 0.89563 0.0
N328 N 0.1872 0.07618 0.96288 0.0
C329 C 0.16591 0.10406 0.93072 0.0
C330 C 0.19815 0.13245 0.89423 0.0
C331 C 0.1656 0.97167 0.10339 0.0
C332 C 0.11587 0.97264 0.1136 0.0
C333 C 0.19022 0.94163 0.13138 0.0
C334 C 0.16548 0.91113 0.1699 0.0
H335 H 0.18419 0.99173 0.07129 0.0
H336 H 0.22746 0.94006 0.12051 0.0
S337 S 0.03813 0.90563 0.21612 0.0
N338 N 0.04513 0.94515 0.16865 0.0
N339 N 0.09131 0.88812 0.22118 0.0
C340 C 0.1176 0.9149 0.18342 0.0
C341 C 0.09279 0.94602 0.15529 0.0
C342 C 0.41239 0.86639 0.40204 0.0
C343 C 0.4002 0.89523 0.44062 0.0
C344 C 0.37414 0.83909 0.3653 0.0
C345 C 0.32281 0.84057 0.36582 0.0
H346 H 0.45186 0.86597 0.39944 0.0
H347 H 0.3853 0.81848 0.33507 0.0
S348 S 0.27201 0.90987 0.4607 0.0
N349 N 0.33405 0.92272 0.47893 0.0
N350 N 0.26174 0.8716 0.40991 0.0
C351 C 0.31004 0.86781 0.40575 0.0
C352 C 0.34896 0.89527 0.44318 0.0
C353 C 0.37003 0.07142 0.69888 0.0
C354 C 0.38891 0.12328 0.70424 0.0
C355 C 0.39822 0.04418 0.67522 0.0
C356 C 0.44601 0.06824 0.65645 0.0
H357 H 0.33272 0.05204 0.71169 0.0
H358 H 0.38151 0.00436 0.66969 0.0
S359 S 0.51153 0.20384 0.66085 0.0
N360 N 0.45785 0.19791 0.68923 0.0
N361 N 0.51123 0.14674 0.64535 0.0
C362 C 0.46605 0.12001 0.66332 0.0
C363 C 0.43728 0.14764 0.68712 0.0
C364 C 0.18536 0.87676 0.55166 0.0
C365 C 0.17567 0.91798 0.57576 0.0
C366 C 0.21717 0.85077 0.5766 0.0
C367 C 0.23983 0.86455 0.62699 0.0
H368 H 0.16706 0.86351 0.51369 0.0
H369 H 0.22166 0.81809 0.55738 0.0
S370 S 0.22937 0.97144 0.70603 0.0
N371 N 0.19397 0.97286 0.65188 0.0
N372 N 0.25272 0.92386 0.69898 0.0
C373 C 0.23195 0.90678 0.65074 0.0
C374 C 0.20009 0.93346 0.62516 0.0
C375 C 0.38532 0.85639 0.84509 0.0
C376 C 0.39431 0.86864 0.79343 0.0
C377 C 0.40591 0.89107 0.8859 0.0
C378 C 0.43546 0.9396 0.87654 0.0
H379 H 0.36215 0.81962 0.85424 0.0
H380 H 0.39779 0.88011 0.92499 0.0
S381 S 0.47489 0.98948 0.74992 0.0
N382 N 0.43834 0.93212 0.73603 0.0
N383 N 0.47566 0.99763 0.813 0.0
C384 C 0.44546 0.95236 0.82552 0.0
C385 C 0.42526 0.91678 0.78387 0.0
C386 C 0.34409 0.11355 0.07032 0.0
C387 C 0.39626 0.11709 0.08486 0.0
C388 C 0.31634 0.13969 0.09803 0.0
C389 C 0.33925 0.16974 0.14221 0.0
H390 H 0.32446 0.0903 0.03726 0.0
H391 H 0.27638 0.13546 0.08534 0.0
S392 S 0.47554 0.19315 0.1955 0.0
N393 N 0.46985 0.1547 0.14562 0.0
N394 N 0.41851 0.20255 0.19763 0.0
C395 C 0.39159 0.17376 0.15671 0.0
C396 C 0.41979 0.14786 0.12818 0.0
C397 C 0.09354 0.08037 0.32067 0.0
C398 C 0.11107 0.0849 0.37339 0.0
C399 C 0.12229 0.11045 0.28373 0.0
C400 C 0.16894 0.14733 0.29827 0.0
H401 H 0.05736 0.05328 0.30786 0.0
H402 H 0.10705 0.10568 0.24369 0.0
S403 S 0.23047 0.17533 0.43198 0.0
N404 N 0.17805 0.12892 0.43819 0.0
N405 N 0.23045 0.18689 0.36978 0.0
C406 C 0.18659 0.15224 0.35101 0.0
C407 C 0.15812 0.12071 0.38826 0.0
C408 C 0.83509 0.12196 0.11986 0.0
C409 C 0.85226 0.17414 0.12258 0.0
C410 C 0.86684 0.09452 0.10382 0.0
C411 C 0.91665 0.1184 0.0899 0.0
H412 H 0.79758 0.10202 0.13193 0.0
H413 H 0.85243 0.05432 0.10298 0.0
S414 S 0.97724 0.25436 0.08465 0.0
N415 N 0.92034 0.24886 0.10628 0.0
N416 N 0.98031 0.19708 0.07575 0.0
C417 C 0.93357 0.17059 0.09043 0.0
C418 C 0.90115 0.19856 0.10676 0.0
C419 C 0.06898 0.61007 0.33305 0.0
C420 C 0.06765 0.62095 0.38565 0.0
C421 C 0.10034 0.64455 0.30237 0.0
C422 C 0.13136 0.68998 0.32413 0.0
H423 H 0.04813 0.57373 0.31637 0.0
H424 H 0.10344 0.63413 0.26274 0.0
S425 S 0.13655 0.73886 0.45743 0.0
N426 N 0.09485 0.68287 0.45633 0.0
N427 N 0.15568 0.74687 0.39845 0.0
C428 C 0.12738 0.70299 0.37523 0.0
C429 C 0.09467 0.66851 0.40622 0.0
C430 C 0.59159 0.85385 0.53813 0.0
C431 C 0.60026 0.90391 0.55375 0.0
C432 C 0.61942 0.82401 0.5631 0.0
C433 C 0.65777 0.84374 0.60344 0.0
H434 H 0.56208 0.83731 0.50758 0.0
H435 H 0.61059 0.78529 0.55105 0.0
S436 S 0.69745 0.97404 0.65561 0.0
N437 N 0.65091 0.97226 0.61039 0.0
N438 N 0.70417 0.91752 0.65589 0.0
C439 C 0.66779 0.89432 0.61789 0.0
C440 C 0.6388 0.92406 0.59341 0.0
C441 C 0.4005 0.39289 0.90444 0.0
C442 C 0.45216 0.39226 0.90502 0.0
C443 C 0.36104 0.35572 0.87782 0.0
C444 C 0.37231 0.31662 0.85221 0.0
H445 H 0.39045 0.42206 0.92493 0.0
H446 H 0.32163 0.35726 0.87764 0.0
S447 S 0.501 0.29939 0.83913 0.0
N448 N 0.51249 0.35065 0.87517 0.0
N449 N 0.4379 0.28022 0.82603 0.0
C450 C 0.42364 0.31595 0.85155 0.0
C451 C 0.46383 0.35407 0.8778 0.0
C452 C 0.92219 0.81453 0.35153 0.0
C453 C 0.87065 0.81517 0.34872 0.0
C454 C 0.96094 0.85282 0.37736 0.0
C455 C 0.94912 0.89238 0.40202 0.0
H456 H 0.93275 0.78471 0.33279 0.0
H457 H 1.00025 0.85087 0.37866 0.0
S458 S 0.81935 0.9105 0.40527 0.0
N459 N 0.80931 0.85826 0.37112 0.0
N460 N 0.88195 0.9297 0.42194 0.0
C461 C 0.89746 0.8932 0.39955 0.0
C462 C 0.85818 0.85465 0.37221 0.0
C463 C 0.4157 0.62045 0.53408 0.0
C464 C 0.46352 0.61748 0.55643 0.0
C465 C 0.39222 0.65467 0.55301 0.0
C466 C 0.41616 0.68786 0.59428 0.0
H467 H 0.39526 0.5949 0.50291 0.0
H468 H 0.35442 0.65421 0.53603 0.0
S469 S 0.54424 0.6988 0.6626 0.0
N470 N 0.53568 0.65289 0.61969 0.0
N471 N 0.49224 0.71801 0.65459 0.0
C472 C 0.46523 0.68699 0.61528 0.0
C473 C 0.48869 0.65152 0.59659 0.0
C474 C 0.65183 0.13028 0.91385 0.0
C475 C 0.5987 0.11784 0.90093 0.0
C476 C 0.68613 0.15619 0.87984 0.0
C477 C 0.66807 0.17007 0.8319 0.0
H478 H 0.66694 0.11732 0.94913 0.0
H479 H 0.72703 0.16358 0.89043 0.0
S480 S 0.53161 0.1507 0.78412 0.0
N481 N 0.52871 0.12438 0.84076 0.0
N482 N 0.59349 0.17396 0.77559 0.0
C483 C 0.61473 0.16115 0.8204 0.0
C484 C 0.57978 0.13462 0.8554 0.0
C485 C 0.0778 0.3715 0.09649 0.0
C486 C 0.09663 0.40002 0.05407 0.0
C487 C 0.10176 0.33704 0.11739 0.0
C488 C 0.14612 0.33042 0.0974 0.0
H489 H 0.04413 0.37567 0.1137 0.0
H490 H 0.08632 0.31661 0.1506 0.0
S491 S 0.21124 0.3957 0.98672 0.0
N492 N 0.16215 0.4185 0.99227 0.0
N493 N 0.20792 0.35494 0.03275 0.0
C494 C 0.16533 0.35844 0.05494 0.0
C495 C 0.14037 0.39285 0.03293 0.0
C496 C 0.59024 0.62092 0.84619 0.0
C497 C 0.60927 0.58557 0.87307 0.0
C498 C 0.61823 0.65085 0.80894 0.0
C499 C 0.66617 0.6464 0.79653 0.0
H500 H 0.55375 0.62632 0.85462 0.0
H501 H 0.6025 0.67818 0.79013 0.0
S502 S 0.73137 0.5569 0.85144 0.0
N503 N 0.67849 0.5466 0.88234 0.0
N504 N 0.72988 0.60168 0.81108 0.0
C505 C 0.68509 0.61044 0.82177 0.0
C506 C 0.65699 0.58037 0.86035 0.0
C507 C 0.67078 0.38541 0.18452 0.0
C508 C 0.69508 0.35284 0.16288 0.0
C509 C 0.65136 0.41777 0.15362 0.0
C510 C 0.6554 0.41868 0.09995 0.0
H511 H 0.66568 0.38528 0.22545 0.0
H512 H 0.63165 0.44112 0.17174 0.0
S513 S 0.71942 0.34452 0.02444 0.0
N514 N 0.72507 0.32643 0.08427 0.0
N515 N 0.68816 0.38677 0.02683 0.0
C516 C 0.68107 0.3877 0.07802 0.0
C517 C 0.70107 0.35499 0.10934 0.0
C518 C 0.90139 0.38165 0.40244 0.0
C519 C 0.91194 0.43234 0.39139 0.0
C520 C 0.86957 0.34502 0.36791 0.0
C521 C 0.84867 0.35807 0.32081 0.0
H522 H 0.91672 0.3703 0.43846 0.0
H523 H 0.86202 0.30631 0.3777 0.0
S524 S 0.86495 0.4853 0.27409 0.0
N525 N 0.89863 0.49361 0.33069 0.0
N526 N 0.8405 0.4246 0.26492 0.0
C527 C 0.85952 0.40845 0.30913 0.0
C528 C 0.89079 0.44568 0.3447 0.0
C529 C 0.62393 0.58529 0.38645 0.0
C530 C 0.62112 0.605 0.43566 0.0
C531 C 0.65311 0.6146 0.34982 0.0
C532 C 0.67983 0.66496 0.36062 0.0
H533 H 0.60443 0.54661 0.37646 0.0
H534 H 0.65467 0.59759 0.31263 0.0
S535 S 0.68339 0.735 0.48307 0.0
N536 N 0.64661 0.67837 0.49298 0.0
N537 N 0.7007 0.73364 0.4236 0.0
C538 C 0.6762 0.68558 0.40913 0.0
C539 C 0.64706 0.65552 0.44679 0.0
C540 C 0.87624 0.3068 0.89402 0.0
C541 C 0.8527 0.32331 0.85056 0.0
C542 C 0.90818 0.34109 0.93092 0.0
C543 C 0.91797 0.39264 0.9247 0.0
H544 H 0.8689 0.26737 0.90013 0.0
H545 H 0.9251 0.32726 0.96455 0.0
S546 S 0.86393 0.45378 0.81752 0.0
N547 N 0.84027 0.39376 0.80358 0.0
N548 N 0.90089 0.45804 0.87174 0.0
C549 C 0.89517 0.40924 0.88072 0.0
C550 C 0.8623 0.37454 0.84392 0.0
C551 C 0.88599 0.88176 0.13923 0.0
C552 C 0.85421 0.83334 0.12711 0.0
C553 C 0.91596 0.90991 0.10241 0.0
C554 C 0.91452 0.89102 0.05181 0.0
H555 H 0.88861 0.89763 0.17784 0.0
H556 H 0.94084 0.94661 0.11388 0.0
S557 S 0.83263 0.76809 -0.00067 0.0
N558 N 0.82028 0.76869 0.06055 0.0
N559 N 0.87541 0.822 0.99059 0.0
C560 C 0.88123 0.84327 0.03866 0.0
C561 C 0.85146 0.81426 0.07655 0.0
C562 C 0.84492 0.06453 0.85418 0.0
C563 C 0.86718 0.0863 0.80984 0.0
C564 C 0.86692 0.03364 0.8837 0.0
C565 C 0.91205 0.02365 0.86998 0.0
H566 H 0.81184 0.07348 0.86788 0.0
H567 H 0.85051 0.02042 0.9195 0.0
S568 S 0.97883 0.06332 0.75133 0.0
N569 N 0.93162 0.08961 0.7488 0.0
N570 N 0.97359 0.03144 0.80477 0.0
C571 C 0.93146 0.04077 0.8227 0.0
C572 C 0.90893 0.07242 0.79252 0.0
C573 C 0.66886 0.16709 0.60092 0.0
C574 C 0.71538 0.15457 0.60912 0.0
C575 C 0.63073 0.14215 0.56266 0.0
C576 C 0.63828 0.10426 0.53153 0.0
H577 H 0.66135 0.19542 0.62507 0.0
H578 H 0.59458 0.15137 0.55855 0.0
S579 S 0.75197 0.05651 0.53748 0.0
N580 N 0.76621 0.1012 0.58255 0.0
N581 N 0.69445 0.05495 0.51077 0.0
C582 C 0.68469 0.09203 0.53845 0.0
C583 C 0.72342 0.11716 0.57722 0.0
C584 C 0.57065 0.89133 0.29651 0.0
C585 C 0.59361 0.94186 0.30956 0.0
C586 C 0.59954 0.8624 0.27732 0.0
C587 C 0.6522 0.88319 0.27099 0.0
H588 H 0.53129 0.8731 0.30481 0.0
H589 H 0.58131 0.82291 0.27081 0.0
S590 S 0.7265 0.01577 0.28728 0.0
N591 N 0.66913 0.0133 0.30594 0.0
N592 N 0.72365 0.95841 0.26985 0.0
C593 C 0.67404 0.93455 0.27844 0.0
C594 C 0.64451 0.96415 0.29762 0.0
C595 C 0.82341 0.11441 0.32813 0.0
C596 C 0.80495 0.14904 0.35452 0.0
C597 C 0.8524 0.08664 0.35401 0.0
C598 C 0.86564 0.09316 0.40736 0.0
H599 H 0.8161 0.10906 0.28664 0.0
H600 H 0.86592 0.06096 0.33155 0.0
S601 S 0.82995 0.1811 0.49466 0.0
N602 N 0.80287 0.18867 0.43746 0.0
N603 N 0.85905 0.13782 0.48601 0.0
C604 C 0.84746 0.1275 0.43461 0.0
C605 C 0.81683 0.15514 0.40824 0.0
C606 C 0.63433 0.08877 0.1981 0.0
C607 C 0.64238 0.13979 0.19037 0.0
C608 C 0.61502 0.05367 0.15714 0.0
C609 C 0.60191 0.06848 0.10756 0.0
H610 H 0.64455 0.07616 0.23552 0.0
H611 H 0.6105 0.01477 0.16428 0.0
S612 S 0.61253 0.19765 0.06857 0.0
N613 N 0.63373 0.20318 0.13014 0.0
N614 N 0.59668 0.13764 0.05387 0.0
C615 C 0.60813 0.1193 0.10003 0.0
C616 C 0.62859 0.15488 0.14128 0.0
C617 C 0.66187 0.859 0.81857 0.0
C618 C 0.70058 0.84023 0.84267 0.0
C619 C 0.63369 0.88368 0.84678 0.0
C620 C 0.6427 0.89131 0.90067 0.0
H621 H 0.65264 0.85436 0.77723 0.0
H622 H 0.60445 0.89697 0.82591 0.0
S623 S 0.74004 0.85096 0.98343 0.0
N624 N 0.74646 0.83195 0.92465 0.0
N625 N 0.6939 0.87856 0.97728 0.0
C626 C 0.68151 0.87331 0.92552 0.0
C627 C 0.71022 0.84783 0.89673 0.0
C628 C 0.94558 0.92762 0.66058 0.0
C629 C 0.92773 0.92238 0.60794 0.0
C630 C 0.91729 0.8978 0.69794 0.0
C631 C 0.87078 0.86056 0.68392 0.0
H632 H 0.98166 0.95504 0.673 0.0
H633 H 0.93275 0.90313 0.73791 0.0
S634 S 0.80847 0.83094 0.55057 0.0
N635 N 0.8606 0.87748 0.54373 0.0
N636 N 0.80896 0.82005 0.61291 0.0
C637 C 0.85273 0.85508 0.63124 0.0
C638 C 0.88078 0.88629 0.59356 0.0
C639 C 0.13496 0.81167 0.86646 0.0
C640 C 0.18584 0.83636 0.85624 0.0
C641 C 0.10254 0.83817 0.88302 0.0
C642 C 0.12017 0.89007 0.88981 0.0
H643 H 0.1196 0.77178 0.86034 0.0
H644 H 0.06345 0.81787 0.89034 0.0
S645 S 0.25077 0.97192 0.8696 0.0
N646 N 0.25301 0.91529 0.85536 0.0
N647 N 0.19181 0.96526 0.88633 0.0
C648 C 0.17131 0.91512 0.88079 0.0
C649 C 0.20437 0.88815 0.86415 0.0
C650 C 0.95066 0.34156 0.57555 0.0
C651 C 0.96888 0.39098 0.59481 0.0
C652 C 0.91948 0.30474 0.60428 0.0
C653 C 0.90688 0.31652 0.65304 0.0
H654 H 0.95706 0.33196 0.53665 0.0
H655 H 0.90273 0.26778 0.58715 0.0
S656 S 0.95055 0.43815 0.7234 0.0
N657 N 0.97709 0.4482 0.66792 0.0
N658 N 0.91766 0.37867 0.72156 0.0
C659 C 0.92798 0.36456 0.67437 0.0
C660 C 0.95957 0.402 0.64531 0.0
C661 C 0.40746 0.08946 0.37459 0.0
C662 C 0.4417 0.10452 0.41881 0.0
C663 C 0.37897 0.12008 0.35363 0.0
C664 C 0.38434 0.16766 0.37517 0.0
H665 H 0.40191 0.05326 0.35642 0.0
H666 H 0.35297 0.10641 0.31959 0.0
S667 S 0.47081 0.2258 0.48992 0.0
N668 N 0.48005 0.17049 0.48342 0.0
N669 N 0.42777 0.22896 0.44259 0.0
C670 C 0.4191 0.1837 0.41895 0.0
C671 C 0.44737 0.15187 0.44117 0.0
C672 C 0.58626 0.61197 0.13017 0.0
C673 C 0.5821 0.61578 0.07646 0.0
C674 C 0.62753 0.64413 0.16002 0.0
C675 C 0.66474 0.68146 0.13675 0.0
H676 H 0.55795 0.58365 0.14899 0.0
H677 H 0.62944 0.64072 0.20159 0.0
S678 S 0.67042 0.70581 -0.00277 0.0
N679 N 0.61849 0.65812 0.00076 0.0
N680 N 0.69508 0.72024 0.05736 0.0
C681 C 0.6608 0.6855 0.08306 0.0
C682 C 0.61958 0.65209 0.05266 0.0
C683 C 0.18017 0.15115 0.60211 0.0
C684 C 0.16889 0.18209 0.63907 0.0
C685 C 0.1403 0.11542 0.57405 0.0
C686 C 0.08838 0.10988 0.58255 0.0
H687 H 0.21978 0.15495 0.59455 0.0
H688 H 0.15019 0.09267 0.54498 0.0
S689 S 0.04037 0.18027 0.67886 0.0
N690 N 0.10367 0.20384 0.68535 0.0
N691 N 0.02842 0.13659 0.6329 0.0
C692 C 0.07709 0.13976 0.62088 0.0
C693 C 0.11757 0.17606 0.64912 0.0
C694 C 0.65036 0.35139 0.43499 0.0
C695 C 0.62506 0.31764 0.39458 0.0
C696 C 0.62669 0.38448 0.45606 0.0
C697 C 0.57735 0.38577 0.43662 0.0
H698 H 0.68935 0.35329 0.44944 0.0
H699 H 0.64819 0.41075 0.48621 0.0
S700 S 0.49278 0.30192 0.33443 0.0
N701 N 0.5461 0.28467 0.33887 0.0
N702 N 0.5023 0.34785 0.37753 0.0
C703 C 0.55076 0.35085 0.39771 0.0
C704 C 0.57442 0.31645 0.37698 0.0
C705 C 0.40997 0.85099 0.06995 0.0
C706 C 0.44777 0.8928 0.09174 0.0
C707 C 0.37412 0.82136 0.10062 0.0
C708 C 0.37669 0.83246 0.15353 0.0
H709 H 0.40574 0.84344 0.02862 0.0
H710 H 0.34317 0.79096 0.08273 0.0
S711 S 0.47166 0.93483 0.22899 0.0
N712 N 0.48808 0.94218 0.16898 0.0
N713 N 0.42143 0.88477 0.22739 0.0
C714 C 0.41652 0.87186 0.17632 0.0
C715 C 0.45216 0.90266 0.14501 0.0
C716 C 0.91576 0.59479 0.8753 0.0
C717 C 0.94547 0.60769 0.92257 0.0
C718 C 0.88717 0.62502 0.85403 0.0
C719 C 0.88846 0.67044 0.87815 0.0
H720 H 0.91383 0.56055 0.85485 0.0
H721 H 0.86435 0.61285 0.81777 0.0
S722 S 0.96332 0.72326 0.00092 0.0
N723 N 0.97557 0.6695 0.99271 0.0
N724 N 0.92407 0.72812 0.95075 0.0
C725 C 0.91931 0.68479 0.92468 0.0
C726 C 0.94719 0.65293 0.94743 0.0
C727 C 0.37915 0.38935 0.09577 0.0
C728 C 0.4238 0.4285 0.10984 0.0
C729 C 0.35279 0.35803 0.13302 0.0
C730 C 0.36892 0.36551 0.18608 0.0
H731 H 0.36574 0.38145 0.05541 0.0
H732 H 0.32032 0.32688 0.11983 0.0
S733 S 0.4817 0.46561 0.24325 0.0
N734 N 0.48228 0.47424 0.18045 0.0
N735 N 0.43146 0.41716 0.25067 0.0
C736 C 0.41251 0.40586 0.20076 0.0
C737 C 0.44021 0.43687 0.16263 0.0
C738 C 0.35501 0.62265 0.90132 0.0
C739 C 0.37242 0.58494 0.88001 0.0
C740 C 0.33657 0.65492 0.86979 0.0
C741 C 0.33496 0.65098 0.81557 0.0
H742 H 0.35756 0.62868 0.94278 0.0
H743 H 0.32529 0.68436 0.8884 0.0
S744 S 0.3698 0.5541 0.74053 0.0
N745 N 0.38231 0.54214 0.80144 0.0
N746 N 0.34759 0.6029 0.74194 0.0
C747 C 0.34944 0.6115 0.79368 0.0
C748 C 0.3681 0.57842 0.82597 0.0
C749 C 0.14587 0.62783 0.571 0.0
C750 C 0.12387 0.5789 0.58616 0.0
C751 C 0.17758 0.66393 0.60621 0.0
C752 C 0.18723 0.65225 0.65785 0.0
H753 H 0.13966 0.63787 0.53144 0.0
H754 H 0.19398 0.70124 0.59312 0.0
S755 S 0.13762 0.52935 0.71605 0.0
N756 N 0.1138 0.52042 0.65529 0.0
N757 N 0.17198 0.58832 0.72214 0.0
C758 C 0.16496 0.60345 0.67331 0.0
C759 C 0.13363 0.56669 0.63724 0.0
C760 C 0.3664 0.31894 0.58599 0.0
C761 C 0.36378 0.3379 0.63561 0.0
C762 C 0.39455 0.34938 0.5492 0.0
C763 C 0.42165 0.39952 0.5611 0.0
H764 H 0.34519 0.28089 0.57497 0.0
H765 H 0.39446 0.33368 0.51096 0.0
S766 S 0.43184 0.46494 0.68786 0.0
N767 N 0.39388 0.4085 0.69614 0.0
N768 N 0.44686 0.46546 0.62746 0.0
C769 C 0.42109 0.41812 0.6114 0.0
C770 C 0.39209 0.38736 0.64852 0.0
C771 C 0.21094 0.66157 0.07813 0.0
C772 C 0.19181 0.6841 0.11756 0.0
C773 C 0.17752 0.6296 0.04089 0.0
C774 C 0.12399 0.61899 0.04216 0.0
H775 H 0.25201 0.66721 0.07707 0.0
H776 H 0.19357 0.61165 0.01208 0.0
S777 S 0.05427 0.67378 0.13192 0.0
N778 N 0.11575 0.69777 0.1518 0.0
N779 N 0.053 0.63693 0.08169 0.0
C780 C 0.10423 0.64323 0.07924 0.0
C781 C 0.13822 0.67623 0.11696 0.0
C782 C 0.71293 0.42788 0.67094 0.0
C783 C 0.68574 0.37993 0.68496 0.0
C784 C 0.68698 0.46326 0.65883 0.0
C785 C 0.63328 0.45174 0.66106 0.0
H786 H 0.75394 0.43726 0.66666 0.0
H787 H 0.70859 0.49851 0.64427 0.0
S788 S 0.547 0.3352 0.70749 0.0
N789 N 0.60408 0.32527 0.70854 0.0
N790 N 0.55548 0.39219 0.68697 0.0
C791 C 0.60678 0.40573 0.68043 0.0
C792 C 0.63298 0.3695 0.69182 0.0
C793 C 0.91743 0.61013 0.21042 0.0
C794 C 0.86387 0.60086 0.20039 0.0
C795 C 0.94342 0.58014 0.18755 0.0
C796 C 0.91654 0.54021 0.15395 0.0
H797 H 0.93983 0.64223 0.23381 0.0
H798 H 0.98505 0.59019 0.1937 0.0
S799 S 0.77518 0.49534 0.12319 0.0
N800 N 0.78409 0.54515 0.16074 0.0
N801 N 0.83289 0.48859 0.11787 0.0
C802 C 0.8625 0.52787 0.14763 0.0
C803 C 0.83613 0.55842 0.17076 0.0
C804 C 0.90351 0.62174 0.64375 0.0
C805 C 0.89319 0.61116 0.5904 0.0
C806 C 0.87533 0.64724 0.67089 0.0
C807 C 0.83547 0.66408 0.6461 0.0
H808 H 0.93377 0.61018 0.66498 0.0
H809 H 0.88563 0.65426 0.71189 0.0
S810 S 0.79231 0.6453 0.50642 0.0
N811 N 0.83934 0.61887 0.51358 0.0
N812 N 0.78705 0.66724 0.56427 0.0
C813 C 0.82451 0.65348 0.59263 0.0
C814 C 0.85306 0.62702 0.56496 0.0
C815 C 0.35545 0.53787 0.33008 0.0
C816 C 0.40946 0.55027 0.33052 0.0
C817 C 0.32905 0.57201 0.31433 0.0
C818 C 0.35601 0.61965 0.29925 0.0
H819 H 0.33373 0.50284 0.345 0.0
H820 H 0.28768 0.56194 0.3165 0.0
S821 S 0.49628 0.66667 0.28416 0.0
N822 N 0.48797 0.6105 0.30701 0.0
N823 N 0.43844 0.67507 0.27859 0.0
C824 C 0.40941 0.631 0.29554 0.0
C825 C 0.43614 0.596 0.31066 0.0
C826 C 0.19131 0.43691 0.80115 0.0
C827 C 0.16428 0.39063 0.77791 0.0
C828 C 0.16493 0.46759 0.82174 0.0
C829 C 0.11079 0.45259 0.82002 0.0
H830 H 0.23307 0.44856 0.80549 0.0
H831 H 0.18723 0.50184 0.84179 0.0
S832 S 0.02247 0.33645 0.75921 0.0
N833 N 0.08079 0.33295 0.75016 0.0
N834 N 0.03107 0.39014 0.79008 0.0
C835 C 0.08334 0.40783 0.79386 0.0
C836 C 0.11021 0.37688 0.77242 0.0
C837 C 0.16276 0.36388 0.30799 0.0
C838 C 0.20295 0.34793 0.33337 0.0
C839 C 0.13371 0.38903 0.33461 0.0
C840 C 0.14354 0.40015 0.38797 0.0
H841 H 0.15281 0.35622 0.26702 0.0
H842 H 0.1032 0.39986 0.313 0.0
S843 S 0.24501 0.36833 0.4732 0.0
N844 N 0.25103 0.34615 0.41569 0.0
N845 N 0.19733 0.39382 0.46527 0.0
C846 C 0.18398 0.38513 0.41388 0.0
C847 C 0.21331 0.359 0.38682 0.0
loop_
_geom_bond_atom_site_label_1
_geom_bond_atom_site_label_2
_geom_bond_distance
_geom_bond_site_symmetry_2
_ccdc_geom_bond_type
Dy0 O4 2.406 . S
Dy0 O5 2.491 1_655 S
Dy0 O6 2.403 . S
Dy0 O7 2.664 1_556 S
Dy0 O11 2.326 1_656 S
Dy0 O15 2.310 1_665 S
Dy0 O16 2.351 . S
C1 O12 1.164 1_655 S
C1 O13 1.355 . S
C2 O4 1.169 1_455 S
C2 O5 1.355 . S
Dy3 O7 2.310 1_445 S
Dy3 O10 2.351 . S
Dy3 O12 2.409 . S
Dy3 O13 2.491 1_455 S
Dy3 O14 2.403 . S
Dy3 O15 2.664 1_554 S
Dy3 O17 2.326 1_454 S
O4 Dy0 2.406 . S
O4 C2 1.169 1_655 S
O5 Dy0 2.491 1_455 S
O5 C2 1.355 . S
O6 Dy0 2.403 . S
O6 C8 1.254 1_556 S
O7 Dy0 2.664 1_554 S
O7 Dy3 2.310 1_665 S
O7 C8 1.268 . S
C8 O6 1.254 1_554 S
C8 O7 1.268 . S
C9 O14 1.254 1_556 S
C9 O15 1.268 . S
O10 Dy3 2.351 . S
O10 C18 1.249 1_545 S
O11 Dy0 2.326 1_454 S
O11 C18 1.267 . S
O12 C1 1.164 1_455 S
O12 Dy3 2.409 . S
O13 C1 1.355 . S
O13 Dy3 2.491 1_655 S
O14 Dy3 2.403 . S
O14 C9 1.254 1_554 S
O15 Dy0 2.310 1_445 S
O15 Dy3 2.664 1_556 S
O15 C9 1.268 . S
O16 Dy0 2.351 . S
O16 C19 1.249 1_565 S
O17 Dy3 2.326 1_656 S
O17 C19 1.267 . S
C18 O10 1.249 1_565 S
C18 O11 1.267 . S
C19 O16 1.249 1_545 S
C19 O17 1.267 . S
Dy20 O24 2.398 . S
Dy20 O25 2.491 . S
Dy20 O26 2.403 . S
Dy20 O27 2.664 . S
Dy20 O31 2.326 . S
Dy20 O35 2.310 . S
Dy20 O36 2.351 . S
C21 O32 1.185 . S
C21 O33 1.355 . S
C22 O24 1.185 . S
C22 O25 1.355 . S
Dy23 O27 2.310 . S
Dy23 O30 2.351 . S
Dy23 O32 2.398 . S
Dy23 O33 2.491 . S
Dy23 O34 2.403 . S
Dy23 O35 2.664 . S
Dy23 O37 2.326 . S
O24 Dy20 2.398 . S
O24 C22 1.185 . S
O25 Dy20 2.491 . S
O25 C22 1.355 . S
O26 Dy20 2.403 . S
O26 C28 1.254 . S
O27 Dy20 2.664 . S
O27 Dy23 2.310 . S
O27 C28 1.268 . S
C28 O26 1.254 . S
C28 O27 1.268 . S
C29 O34 1.254 . S
C29 O35 1.268 . S
O30 Dy23 2.351 . S
O30 C38 1.249 . S
O31 Dy20 2.326 . S
O31 C38 1.267 . S
O32 C21 1.185 . S
O32 Dy23 2.398 . S
O33 C21 1.355 . S
O33 Dy23 2.491 . S
O34 Dy23 2.403 . S
O34 C29 1.254 . S
O35 Dy20 2.310 . S
O35 Dy23 2.664 . S
O35 C29 1.268 . S
O36 Dy20 2.351 . S
O36 C39 1.249 . S
O37 Dy23 2.326 . S
O37 C39 1.267 . S
C38 O30 1.249 . S
C38 O31 1.267 . S
C39 O36 1.249 . S
C39 O37 1.267 . S
Dy40 O44 2.398 1_565 S
Dy40 O45 2.491 1_565 S
Dy40 O46 2.403 . S
Dy40 O47 2.664 . S
Dy40 O51 2.326 1_565 S
Dy40 O55 2.310 1_565 S
Dy40 O56 2.351 . S
C41 O52 1.185 . S
C41 O53 1.355 . S
C42 O44 1.185 . S
C42 O45 1.355 . S
Dy43 O47 2.310 1_545 S
Dy43 O50 2.351 . S
Dy43 O52 2.398 1_545 S
Dy43 O53 2.491 1_545 S
Dy43 O54 2.403 . S
Dy43 O55 2.664 . S
Dy43 O57 2.326 1_545 S
O44 Dy40 2.398 1_545 S
O44 C42 1.185 . S
O45 Dy40 2.491 1_545 S
O45 C42 1.355 . S
O46 Dy40 2.403 . S
O46 C48 1.254 . S
O47 Dy40 2.664 . S
O47 Dy43 2.310 1_565 S
O47 C48 1.268 . S
C48 O46 1.254 . S
C48 O47 1.268 . S
C49 O54 1.254 . S
C49 O55 1.268 . S
O50 Dy43 2.351 . S
O50 C58 1.249 . S
O51 Dy40 2.326 1_545 S
O51 C58 1.267 . S
O52 C41 1.185 . S
O52 Dy43 2.398 1_565 S
O53 C41 1.355 . S
O53 Dy43 2.491 1_565 S
O54 Dy43 2.403 . S
O54 C49 1.254 . S
O55 Dy40 2.310 1_545 S
O55 Dy43 2.664 . S
O55 C49 1.268 . S
O56 Dy40 2.351 . S
O56 C59 1.249 . S
O57 Dy43 2.326 1_565 S
O57 C59 1.267 . S
C58 O50 1.249 . S
C58 O51 1.267 . S
C59 O56 1.249 . S
C59 O57 1.267 . S
Dy60 O64 2.398 . S
Dy60 O65 2.491 . S
Dy60 O66 2.403 . S
Dy60 O67 2.664 . S
Dy60 O71 2.326 . S
Dy60 O75 2.310 . S
Dy60 O76 2.351 . S
C61 O72 1.185 . S
C61 O73 1.355 . S
C62 O64 1.185 . S
C62 O65 1.355 . S
Dy63 O67 2.310 . S
Dy63 O70 2.351 . S
Dy63 O72 2.398 . S
Dy63 O73 2.491 . S
Dy63 O74 2.403 . S
Dy63 O75 2.664 . S
Dy63 O77 2.326 . S
O64 Dy60 2.398 . S
O64 C62 1.185 . S
O65 Dy60 2.491 . S
O65 C62 1.355 . S
O66 Dy60 2.403 . S
O66 C68 1.254 . S
O67 Dy60 2.664 . S
O67 Dy63 2.310 . S
O67 C68 1.268 . S
C68 O66 1.254 . S
C68 O67 1.268 . S
C69 O74 1.254 . S
C69 O75 1.268 . S
O70 Dy63 2.351 . S
O70 C78 1.249 . S
O71 Dy60 2.326 . S
O71 C78 1.267 . S
O72 C61 1.185 . S
O72 Dy63 2.398 . S
O73 C61 1.355 . S
O73 Dy63 2.491 . S
O74 Dy63 2.403 . S
O74 C69 1.254 . S
O75 Dy60 2.310 . S
O75 Dy63 2.664 . S
O75 C69 1.268 . S
O76 Dy60 2.351 . S
O76 C79 1.249 . S
O77 Dy63 2.326 . S
O77 C79 1.267 . S
C78 O70 1.249 . S
C78 O71 1.267 . S
C79 O76 1.249 . S
C79 O77 1.267 . S
Dy80 O84 2.398 . S
Dy80 O85 2.491 . S
Dy80 O86 2.403 1_455 S
Dy80 O87 2.664 1_455 S
Dy80 O91 2.326 1_455 S
Dy80 O95 2.310 1_565 S
Dy80 O96 2.351 1_565 S
C81 O92 1.185 . S
C81 O93 1.355 . S
C82 O84 1.185 . S
C82 O85 1.355 . S
Dy83 O87 2.310 1_545 S
Dy83 O90 2.351 1_545 S
Dy83 O92 2.398 . S
Dy83 O93 2.491 . S
Dy83 O94 2.403 1_655 S
Dy83 O95 2.664 1_655 S
Dy83 O97 2.326 1_655 S
O84 Dy80 2.398 . S
O84 C82 1.185 . S
O85 Dy80 2.491 . S
O85 C82 1.355 . S
O86 Dy80 2.403 1_655 S
O86 C88 1.254 . S
O87 Dy80 2.664 1_655 S
O87 Dy83 2.310 1_565 S
O87 C88 1.268 . S
C88 O86 1.254 . S
C88 O87 1.268 . S
C89 O94 1.254 . S
C89 O95 1.268 . S
O90 Dy83 2.351 1_565 S
O90 C98 1.249 . S
O91 Dy80 2.326 1_655 S
O91 C98 1.267 . S
O92 C81 1.185 . S
O92 Dy83 2.398 . S
O93 C81 1.355 . S
O93 Dy83 2.491 . S
O94 Dy83 2.403 1_455 S
O94 C89 1.254 . S
O95 Dy80 2.310 1_545 S
O95 Dy83 2.664 1_455 S
O95 C89 1.268 . S
O96 Dy80 2.351 1_545 S
O96 C99 1.249 . S
O97 Dy83 2.326 1_455 S
O97 C99 1.267 . S
C98 O90 1.249 . S
C98 O91 1.267 . S
C99 O96 1.249 . S
C99 O97 1.267 . S
Dy100 O104 2.398 . S
Dy100 O105 2.491 . S
Dy100 O106 2.403 . S
Dy100 O107 2.664 . S
Dy100 O111 2.326 . S
Dy100 O115 2.310 . S
Dy100 O116 2.351 . S
C101 O112 1.185 . S
C101 O113 1.355 . S
C102 O104 1.185 . S
C102 O105 1.355 . S
Dy103 O107 2.310 . S
Dy103 O110 2.351 . S
Dy103 O112 2.398 . S
Dy103 O113 2.491 . S
Dy103 O114 2.403 . S
Dy103 O115 2.664 . S
Dy103 O117 2.326 . S
O104 Dy100 2.398 . S
O104 C102 1.185 . S
O105 Dy100 2.491 . S
O105 C102 1.355 . S
O106 Dy100 2.403 . S
O106 C108 1.254 . S
O107 Dy100 2.664 . S
O107 Dy103 2.310 . S
O107 C108 1.268 . S
C108 O106 1.254 . S
C108 O107 1.268 . S
C109 O114 1.254 . S
C109 O115 1.268 . S
O110 Dy103 2.351 . S
O110 C118 1.249 . S
O111 Dy100 2.326 . S
O111 C118 1.267 . S
O112 C101 1.185 . S
O112 Dy103 2.398 . S
O113 C101 1.355 . S
O113 Dy103 2.491 . S
O114 Dy103 2.403 . S
O114 C109 1.254 . S
O115 Dy100 2.310 . S
O115 Dy103 2.664 . S
O115 C109 1.268 . S
O116 Dy100 2.351 . S
O116 C119 1.249 . S
O117 Dy103 2.326 . S
O117 C119 1.267 . S
C118 O110 1.249 . S
C118 O111 1.267 . S
C119 O116 1.249 . S
C119 O117 1.267 . S
Dy120 O124 2.398 1_554 S
Dy120 O125 2.491 1_554 S
Dy120 O126 2.403 1_565 S
Dy120 O127 2.664 1_565 S
Dy120 O131 2.326 1_564 S
Dy120 O135 2.310 1_554 S
Dy120 O136 2.351 . S
C121 O132 1.185 . S
C121 O133 1.355 . S
C122 O124 1.185 . S
C122 O125 1.355 . S
Dy123 O127 2.310 1_556 S
Dy123 O130 2.351 . S
Dy123 O132 2.398 1_556 S
Dy123 O133 2.491 1_556 S
Dy123 O134 2.403 1_545 S
Dy123 O135 2.664 1_545 S
Dy123 O137 2.326 1_546 S
O124 Dy120 2.398 1_556 S
O124 C122 1.185 . S
O125 Dy120 2.491 1_556 S
O125 C122 1.355 . S
O126 Dy120 2.403 1_545 S
O126 C128 1.254 . S
O127 Dy120 2.664 1_545 S
O127 Dy123 2.310 1_554 S
O127 C128 1.268 . S
C128 O126 1.254 . S
C128 O127 1.268 . S
C129 O134 1.254 . S
C129 O135 1.268 . S
O130 Dy123 2.351 . S
O130 C138 1.249 . S
O131 Dy120 2.326 1_546 S
O131 C138 1.267 . S
O132 C121 1.185 . S
O132 Dy123 2.398 1_554 S
O133 C121 1.355 . S
O133 Dy123 2.491 1_554 S
O134 Dy123 2.403 1_565 S
O134 C129 1.254 . S
O135 Dy120 2.310 1_556 S
O135 Dy123 2.664 1_565 S
O135 C129 1.268 . S
O136 Dy120 2.351 . S
O136 C139 1.249 . S
O137 Dy123 2.326 1_564 S
O137 C139 1.267 . S
C138 O130 1.249 . S
C138 O131 1.267 . S
C139 O136 1.249 . S
C139 O137 1.267 . S
Dy140 O144 2.398 . S
Dy140 O145 2.491 . S
Dy140 O146 2.403 . S
Dy140 O147 2.664 . S
Dy140 O151 2.326 . S
Dy140 O155 2.310 . S
Dy140 O156 2.351 . S
C141 O152 1.185 . S
C141 O153 1.355 . S
C142 O144 1.185 . S
C142 O145 1.355 . S
Dy143 O147 2.310 . S
Dy143 O150 2.351 . S
Dy143 O152 2.398 . S
Dy143 O153 2.491 . S
Dy143 O154 2.403 . S
Dy143 O155 2.664 . S
Dy143 O157 2.326 . S
O144 Dy140 2.398 . S
O144 C142 1.185 . S
O145 Dy140 2.491 . S
O145 C142 1.355 . S
O146 Dy140 2.403 . S
O146 C148 1.254 . S
O147 Dy140 2.664 . S
O147 Dy143 2.310 . S
O147 C148 1.268 . S
C148 O146 1.254 . S
C148 O147 1.268 . S
C149 O154 1.254 . S
C149 O155 1.268 . S
O150 Dy143 2.351 . S
O150 C158 1.249 . S
O151 Dy140 2.326 . S
O151 C158 1.267 . S
O152 C141 1.185 . S
O152 Dy143 2.398 . S
O153 C141 1.355 . S
O153 Dy143 2.491 . S
O154 Dy143 2.403 . S
O154 C149 1.254 . S
O155 Dy140 2.310 . S
O155 Dy143 2.664 . S
O155 C149 1.268 . S
O156 Dy140 2.351 . S
O156 C159 1.249 . S
O157 Dy143 2.326 . S
O157 C159 1.267 . S
C158 O150 1.249 . S
C158 O151 1.267 . S
C159 O156 1.249 . S
C159 O157 1.267 . S
Dy160 O164 2.398 . S
Dy160 O165 2.491 . S
Dy160 O166 2.403 1_554 S
Dy160 O167 2.664 1_554 S
Dy160 O171 2.326 . S
Dy160 O175 2.310 . S
Dy160 O176 2.351 1_554 S
C161 O172 1.185 . S
C161 O173 1.355 . S
C162 O164 1.185 . S
C162 O165 1.355 . S
Dy163 O167 2.310 . S
Dy163 O170 2.351 1_556 S
Dy163 O172 2.398 . S
Dy163 O173 2.491 . S
Dy163 O174 2.403 1_556 S
Dy163 O175 2.664 1_556 S
Dy163 O177 2.326 . S
O164 Dy160 2.398 . S
O164 C162 1.185 . S
O165 Dy160 2.491 . S
O165 C162 1.355 . S
O166 Dy160 2.403 1_556 S
O166 C168 1.254 . S
O167 Dy160 2.664 1_556 S
O167 Dy163 2.310 . S
O167 C168 1.268 . S
C168 O166 1.254 . S
C168 O167 1.268 . S
C169 O174 1.254 . S
C169 O175 1.268 . S
O170 Dy163 2.351 1_554 S
O170 C178 1.249 . S
O171 Dy160 2.326 . S
O171 C178 1.267 . S
O172 C161 1.185 . S
O172 Dy163 2.398 . S
O173 C161 1.355 . S
O173 Dy163 2.491 . S
O174 Dy163 2.403 1_554 S
O174 C169 1.254 . S
O175 Dy160 2.310 . S
O175 Dy163 2.664 1_554 S
O175 C169 1.268 . S
O176 Dy160 2.351 1_556 S
O176 C179 1.249 . S
O177 Dy163 2.326 . S
O177 C179 1.267 . S
C178 O170 1.249 . S
C178 O171 1.267 . S
C179 O176 1.249 . S
C179 O177 1.267 . S
Dy180 O184 2.398 . S
Dy180 O185 2.491 . S
Dy180 O186 2.403 . S
Dy180 O187 2.664 . S
Dy180 O191 2.326 . S
Dy180 O195 2.310 . S
Dy180 O196 2.351 . S
C181 O192 1.185 . S
C181 O193 1.355 . S
C182 O184 1.185 . S
C182 O185 1.355 . S
Dy183 O187 2.310 . S
Dy183 O190 2.351 . S
Dy183 O192 2.398 . S
Dy183 O193 2.491 . S
Dy183 O194 2.403 . S
Dy183 O195 2.664 . S
Dy183 O197 2.326 . S
O184 Dy180 2.398 . S
O184 C182 1.185 . S
O185 Dy180 2.491 . S
O185 C182 1.355 . S
O186 Dy180 2.403 . S
O186 C188 1.254 . S
O187 Dy180 2.664 . S
O187 Dy183 2.310 . S
O187 C188 1.268 . S
C188 O186 1.254 . S
C188 O187 1.268 . S
C189 O194 1.254 . S
C189 O195 1.268 . S
O190 Dy183 2.351 . S
O190 C198 1.249 . S
O191 Dy180 2.326 . S
O191 C198 1.267 . S
O192 C181 1.185 . S
O192 Dy183 2.398 . S
O193 C181 1.355 . S
O193 Dy183 2.491 . S
O194 Dy183 2.403 . S
O194 C189 1.254 . S
O195 Dy180 2.310 . S
O195 Dy183 2.664 . S
O195 C189 1.268 . S
O196 Dy180 2.351 . S
O196 C199 1.249 . S
O197 Dy183 2.326 . S
O197 C199 1.267 . S
C198 O190 1.249 . S
C198 O191 1.267 . S
C199 O196 1.249 . S
C199 O197 1.267 . S
Dy200 O204 2.398 . S
Dy200 O205 2.491 . S
Dy200 O206 2.403 . S
Dy200 O207 2.664 . S
Dy200 O211 2.326 . S
Dy200 O215 2.310 1_455 S
Dy200 O216 2.351 1_455 S
C201 O212 1.185 . S
C201 O213 1.355 . S
C202 O204 1.185 . S
C202 O205 1.355 . S
Dy203 O207 2.310 1_655 S
Dy203 O210 2.351 1_655 S
Dy203 O212 2.398 . S
Dy203 O213 2.491 . S
Dy203 O214 2.403 . S
Dy203 O215 2.664 . S
Dy203 O217 2.326 . S
O204 Dy200 2.398 . S
O204 C202 1.185 . S
O205 Dy200 2.491 . S
O205 C202 1.355 . S
O206 Dy200 2.403 . S
O206 C208 1.254 . S
O207 Dy200 2.664 . S
O207 Dy203 2.310 1_455 S
O207 C208 1.268 . S
C208 O206 1.254 . S
C208 O207 1.268 . S
C209 O214 1.254 . S
C209 O215 1.268 . S
O210 Dy203 2.351 1_455 S
O210 C218 1.249 . S
O211 Dy200 2.326 . S
O211 C218 1.267 . S
O212 C201 1.185 . S
O212 Dy203 2.398 . S
O213 C201 1.355 . S
O213 Dy203 2.491 . S
O214 Dy203 2.403 . S
O214 C209 1.254 . S
O215 Dy200 2.310 1_655 S
O215 Dy203 2.664 . S
O215 C209 1.268 . S
O216 Dy200 2.351 1_655 S
O216 C219 1.249 . S
O217 Dy203 2.326 . S
O217 C219 1.267 . S
C218 O210 1.249 . S
C218 O211 1.267 . S
C219 O216 1.249 . S
C219 O217 1.267 . S
Dy220 O224 2.398 . S
Dy220 O225 2.491 . S
Dy220 O226 2.403 . S
Dy220 O227 2.664 . S
Dy220 O231 2.326 . S
Dy220 O235 2.310 . S
Dy220 O236 2.351 . S
C221 O232 1.185 . S
C221 O233 1.355 . S
C222 O224 1.185 . S
C222 O225 1.355 . S
Dy223 O227 2.310 . S
Dy223 O230 2.351 . S
Dy223 O232 2.398 . S
Dy223 O233 2.491 . S
Dy223 O234 2.403 . S
Dy223 O235 2.664 . S
Dy223 O237 2.326 . S
O224 Dy220 2.398 . S
O224 C222 1.185 . S
O225 Dy220 2.491 . S
O225 C222 1.355 . S
O226 Dy220 2.403 . S
O226 C228 1.254 . S
O227 Dy220 2.664 . S
O227 Dy223 2.310 . S
O227 C228 1.268 . S
C228 O226 1.254 . S
C228 O227 1.268 . S
C229 O234 1.254 . S
C229 O235 1.268 . S
O230 Dy223 2.351 . S
O230 C238 1.249 . S
O231 Dy220 2.326 . S
O231 C238 1.267 . S
O232 C221 1.185 . S
O232 Dy223 2.398 . S
O233 C221 1.355 . S
O233 Dy223 2.491 . S
O234 Dy223 2.403 . S
O234 C229 1.254 . S
O235 Dy220 2.310 . S
O235 Dy223 2.664 . S
O235 C229 1.268 . S
O236 Dy220 2.351 . S
O236 C239 1.249 . S
O237 Dy223 2.326 . S
O237 C239 1.267 . S
C238 O230 1.249 . S
C238 O231 1.267 . S
C239 O236 1.249 . S
C239 O237 1.267 . S
Dy240 O244 2.398 . S
Dy240 O245 2.491 . S
Dy240 O246 2.403 . S
Dy240 O247 2.664 . S
Dy240 O251 2.326 . S
Dy240 O255 2.310 . S
Dy240 O256 2.351 . S
C241 O252 1.185 . S
C241 O253 1.355 . S
C242 O244 1.185 . S
C242 O245 1.355 . S
Dy243 O247 2.310 . S
Dy243 O250 2.351 . S
Dy243 O252 2.398 . S
Dy243 O253 2.491 . S
Dy243 O254 2.403 . S
Dy243 O255 2.664 . S
Dy243 O257 2.326 . S
O244 Dy240 2.398 . S
O244 C242 1.185 . S
O245 Dy240 2.491 . S
O245 C242 1.355 . S
O246 Dy240 2.403 . S
O246 C248 1.254 . S
O247 Dy240 2.664 . S
O247 Dy243 2.310 . S
O247 C248 1.268 . S
C248 O246 1.254 . S
C248 O247 1.268 . S
C249 O254 1.254 . S
C249 O255 1.268 . S
O250 Dy243 2.351 . S
O250 C258 1.249 . S
O251 Dy240 2.326 . S
O251 C258 1.267 . S
O252 C241 1.185 . S
O252 Dy243 2.398 . S
O253 C241 1.355 . S
O253 Dy243 2.491 . S
O254 Dy243 2.403 . S
O254 C249 1.254 . S
O255 Dy240 2.310 . S
O255 Dy243 2.664 . S
O255 C249 1.268 . S
O256 Dy240 2.351 . S
O256 C259 1.249 . S
O257 Dy243 2.326 . S
O257 C259 1.267 . S
C258 O250 1.249 . S
C258 O251 1.267 . S
C259 O256 1.249 . S
C259 O257 1.267 . S
Dy260 O264 2.398 . S
Dy260 O265 2.491 . S
Dy260 O266 2.403 . S
Dy260 O267 2.664 . S
Dy260 O271 2.326 . S
Dy260 O275 2.310 . S
Dy260 O276 2.351 . S
C261 O272 1.185 . S
C261 O273 1.355 . S
C262 O264 1.185 . S
C262 O265 1.355 . S
Dy263 O267 2.310 . S
Dy263 O270 2.351 . S
Dy263 O272 2.398 . S
Dy263 O273 2.491 . S
Dy263 O274 2.403 . S
Dy263 O275 2.664 . S
Dy263 O277 2.326 . S
O264 Dy260 2.398 . S
O264 C262 1.185 . S
O265 Dy260 2.491 . S
O265 C262 1.355 . S
O266 Dy260 2.403 . S
O266 C268 1.254 . S
O267 Dy260 2.664 . S
O267 Dy263 2.310 . S
O267 C268 1.268 . S
C268 O266 1.254 . S
C268 O267 1.268 . S
C269 O274 1.254 . S
C269 O275 1.268 . S
O270 Dy263 2.351 . S
O270 C278 1.249 . S
O271 Dy260 2.326 . S
O271 C278 1.267 . S
O272 C261 1.185 . S
O272 Dy263 2.398 . S
O273 C261 1.355 . S
O273 Dy263 2.491 . S
O274 Dy263 2.403 . S
O274 C269 1.254 . S
O275 Dy260 2.310 . S
O275 Dy263 2.664 . S
O275 C269 1.268 . S
O276 Dy260 2.351 . S
O276 C279 1.249 . S
O277 Dy263 2.326 . S
O277 C279 1.267 . S
C278 O270 1.249 . S
C278 O271 1.267 . S
C279 O276 1.249 . S
C279 O277 1.267 . S
Dy280 O284 2.398 . S
Dy280 O285 2.491 . S
Dy280 O286 2.403 . S
Dy280 O287 2.664 . S
Dy280 O291 2.326 . S
Dy280 O295 2.310 . S
Dy280 O296 2.351 . S
C281 O292 1.185 . S
C281 O293 1.355 . S
C282 O284 1.185 . S
C282 O285 1.355 . S
Dy283 O287 2.310 . S
Dy283 O290 2.351 . S
Dy283 O292 2.398 . S
Dy283 O293 2.491 . S
Dy283 O294 2.403 . S
Dy283 O295 2.664 . S
Dy283 O297 2.326 . S
O284 Dy280 2.398 . S
O284 C282 1.185 . S
O285 Dy280 2.491 . S
O285 C282 1.355 . S
O286 Dy280 2.403 . S
O286 C288 1.254 . S
O287 Dy280 2.664 . S
O287 Dy283 2.310 . S
O287 C288 1.268 . S
C288 O286 1.254 . S
C288 O287 1.268 . S
C289 O294 1.254 . S
C289 O295 1.268 . S
O290 Dy283 2.351 . S
O290 C298 1.249 . S
O291 Dy280 2.326 . S
O291 C298 1.267 . S
O292 C281 1.185 . S
O292 Dy283 2.398 . S
O293 C281 1.355 . S
O293 Dy283 2.491 . S
O294 Dy283 2.403 . S
O294 C289 1.254 . S
O295 Dy280 2.310 . S
O295 Dy283 2.664 . S
O295 C289 1.268 . S
O296 Dy280 2.351 . S
O296 C299 1.249 . S
O297 Dy283 2.326 . S
O297 C299 1.267 . S
C298 O290 1.249 . S
C298 O291 1.267 . S
C299 O296 1.249 . S
C299 O297 1.267 . S
Dy300 O304 2.398 . S
Dy300 O305 2.491 . S
Dy300 O306 2.403 1_554 S
Dy300 O307 2.664 1_554 S
Dy300 O311 2.326 1_554 S
Dy300 O315 2.310 1_655 S
Dy300 O316 2.351 1_655 S
C301 O312 1.185 . S
C301 O313 1.355 . S
C302 O304 1.185 . S
C302 O305 1.355 . S
Dy303 O307 2.310 1_455 S
Dy303 O310 2.351 1_455 S
Dy303 O312 2.398 . S
Dy303 O313 2.491 . S
Dy303 O314 2.403 1_556 S
Dy303 O315 2.664 1_556 S
Dy303 O317 2.326 1_556 S
O304 Dy300 2.398 . S
O304 C302 1.185 . S
O305 Dy300 2.491 . S
O305 C302 1.355 . S
O306 Dy300 2.403 1_556 S
O306 C308 1.254 . S
O307 Dy300 2.664 1_556 S
O307 Dy303 2.310 1_655 S
O307 C308 1.268 . S
C308 O306 1.254 . S
C308 O307 1.268 . S
C309 O314 1.254 . S
C309 O315 1.268 . S
O310 Dy303 2.351 1_655 S
O310 C318 1.249 . S
O311 Dy300 2.326 1_556 S
O311 C318 1.267 . S
O312 C301 1.185 . S
O312 Dy303 2.398 . S
O313 C301 1.355 . S
O313 Dy303 2.491 . S
O314 Dy303 2.403 1_554 S
O314 C309 1.254 . S
O315 Dy300 2.310 1_455 S
O315 Dy303 2.664 1_554 S
O315 C309 1.268 . S
O316 Dy300 2.351 1_455 S
O316 C319 1.249 . S
O317 Dy303 2.326 1_554 S
O317 C319 1.267 . S
C318 O310 1.249 . S
C318 O311 1.267 . S
C319 O316 1.249 . S
C319 O317 1.267 . S
C320 C321 1.369 . S
C320 C322 1.419 . S
C320 H324 0.930 . S
C321 C320 1.369 . S
C321 C330 1.429 . S
C322 C320 1.419 . S
C322 C323 1.363 . S
C322 H325 0.929 . S
C323 C322 1.363 . S
C323 C329 1.428 . S
H324 C320 0.930 . S
H325 C322 0.929 . S
S326 N327 1.613 . S
S326 N328 1.610 . S
N327 S326 1.613 . S
N327 C330 1.350 . S
N328 S326 1.610 . S
N328 C329 1.351 . S
C329 C323 1.428 . S
C329 N328 1.351 . S
C329 C330 1.434 . S
C330 C321 1.429 . S
C330 N327 1.350 . S
C330 C329 1.434 . S
C331 C332 1.369 . S
C331 C333 1.419 . S
C331 H335 0.930 . S
C332 C331 1.369 . S
C332 C341 1.429 . S
C333 C331 1.419 . S
C333 C334 1.363 . S
C333 H336 0.929 . S
C334 C333 1.363 . S
C334 C340 1.428 . S
H335 C331 0.930 . S
H336 C333 0.929 . S
S337 N338 1.613 . S
S337 N339 1.610 . S
N338 S337 1.613 . S
N338 C341 1.350 . S
N339 S337 1.610 . S
N339 C340 1.351 . S
C340 C334 1.428 . S
C340 N339 1.351 . S
C340 C341 1.434 . S
C341 C332 1.429 . S
C341 N338 1.350 . S
C341 C340 1.434 . S
C342 C343 1.369 . S
C342 C344 1.419 . S
C342 H346 0.930 . S
C343 C342 1.369 . S
C343 C352 1.429 . S
C344 C342 1.419 . S
C344 C345 1.363 . S
C344 H347 0.929 . S
C345 C344 1.363 . S
C345 C351 1.428 . S
H346 C342 0.930 . S
H347 C344 0.929 . S
S348 N349 1.613 . S
S348 N350 1.610 . S
N349 S348 1.613 . S
N349 C352 1.350 . S
N350 S348 1.610 . S
N350 C351 1.351 . S
C351 C345 1.428 . S
C351 N350 1.351 . S
C351 C352 1.434 . S
C352 C343 1.429 . S
C352 N349 1.350 . S
C352 C351 1.434 . S
C353 C354 1.369 . S
C353 C355 1.419 . S
C353 H357 0.930 . S
C354 C353 1.369 . S
C354 C363 1.429 . S
C355 C353 1.419 . S
C355 C356 1.363 . S
C355 H358 0.929 . S
C356 C355 1.363 . S
C356 C362 1.428 . S
H357 C353 0.930 . S
H358 C355 0.929 . S
S359 N360 1.613 . S
S359 N361 1.610 . S
N360 S359 1.613 . S
N360 C363 1.350 . S
N361 S359 1.610 . S
N361 C362 1.351 . S
C362 C356 1.428 . S
C362 N361 1.351 . S
C362 C363 1.434 . S
C363 C354 1.429 . S
C363 N360 1.350 . S
C363 C362 1.434 . S
C364 C365 1.369 . S
C364 C366 1.419 . S
C364 H368 0.930 . S
C365 C364 1.369 . S
C365 C374 1.429 . S
C366 C364 1.419 . S
C366 C367 1.363 . S
C366 H369 0.929 . S
C367 C366 1.363 . S
C367 C373 1.428 . S
H368 C364 0.930 . S
H369 C366 0.929 . S
S370 N371 1.613 . S
S370 N372 1.610 . S
N371 S370 1.613 . S
N371 C374 1.350 . S
N372 S370 1.610 . S
N372 C373 1.351 . S
C373 C367 1.428 . S
C373 N372 1.351 . S
C373 C374 1.434 . S
C374 C365 1.429 . S
C374 N371 1.350 . S
C374 C373 1.434 . S
C375 C376 1.369 . S
C375 C377 1.419 . S
C375 H379 0.930 . S
C376 C375 1.369 . S
C376 C385 1.429 . S
C377 C375 1.419 . S
C377 C378 1.363 . S
C377 H380 0.929 . S
C378 C377 1.363 . S
C378 C384 1.428 . S
H379 C375 0.930 . S
H380 C377 0.929 . S
S381 N382 1.613 . S
S381 N383 1.610 . S
N382 S381 1.613 . S
N382 C385 1.350 . S
N383 S381 1.610 . S
N383 C384 1.351 . S
C384 C378 1.428 . S
C384 N383 1.351 . S
C384 C385 1.434 . S
C385 C376 1.429 . S
C385 N382 1.350 . S
C385 C384 1.434 . S
C386 C387 1.369 . S
C386 C388 1.419 . S
C386 H390 0.930 . S
C387 C386 1.369 . S
C387 C396 1.429 . S
C388 C386 1.419 . S
C388 C389 1.363 . S
C388 H391 0.929 . S
C389 C388 1.363 . S
C389 C395 1.428 . S
H390 C386 0.930 . S
H391 C388 0.929 . S
S392 N393 1.613 . S
S392 N394 1.610 . S
N393 S392 1.613 . S
N393 C396 1.350 . S
N394 S392 1.610 . S
N394 C395 1.351 . S
C395 C389 1.428 . S
C395 N394 1.351 . S
C395 C396 1.434 . S
C396 C387 1.429 . S
C396 N393 1.350 . S
C396 C395 1.434 . S
C397 C398 1.369 . S
C397 C399 1.419 . S
C397 H401 0.930 . S
C398 C397 1.369 . S
C398 C407 1.429 . S
C399 C397 1.419 . S
C399 C400 1.363 . S
C399 H402 0.929 . S
C400 C399 1.363 . S
C400 C406 1.428 . S
H401 C397 0.930 . S
H402 C399 0.929 . S
S403 N404 1.613 . S
S403 N405 1.610 . S
N404 S403 1.613 . S
N404 C407 1.350 . S
N405 S403 1.610 . S
N405 C406 1.351 . S
C406 C400 1.428 . S
C406 N405 1.351 . S
C406 C407 1.434 . S
C407 C398 1.429 . S
C407 N404 1.350 . S
C407 C406 1.434 . S
C408 C409 1.369 . S
C408 C410 1.419 . S
C408 H412 0.930 . S
C409 C408 1.369 . S
C409 C418 1.429 . S
C410 C408 1.419 . S
C410 C411 1.363 . S
C410 H413 0.929 . S
C411 C410 1.363 . S
C411 C417 1.428 . S
H412 C408 0.930 . S
H413 C410 0.929 . S
S414 N415 1.613 . S
S414 N416 1.610 . S
N415 S414 1.613 . S
N415 C418 1.350 . S
N416 S414 1.610 . S
N416 C417 1.351 . S
C417 C411 1.428 . S
C417 N416 1.351 . S
C417 C418 1.434 . S
C418 C409 1.429 . S
C418 N415 1.350 . S
C418 C417 1.434 . S
C419 C420 1.369 . S
C419 C421 1.419 . S
C419 H423 0.930 . S
C420 C419 1.369 . S
C420 C429 1.429 . S
C421 C419 1.419 . S
C421 C422 1.363 . S
C421 H424 0.929 . S
C422 C421 1.363 . S
C422 C428 1.428 . S
H423 C419 0.930 . S
H424 C421 0.929 . S
S425 N426 1.613 . S
S425 N427 1.610 . S
N426 S425 1.613 . S
N426 C429 1.350 . S
N427 S425 1.610 . S
N427 C428 1.351 . S
C428 C422 1.428 . S
C428 N427 1.351 . S
C428 C429 1.434 . S
C429 C420 1.429 . S
C429 N426 1.350 . S
C429 C428 1.434 . S
C430 C431 1.369 . S
C430 C432 1.419 . S
C430 H434 0.930 . S
C431 C430 1.369 . S
C431 C440 1.429 . S
C432 C430 1.419 . S
C432 C433 1.363 . S
C432 H435 0.929 . S
C433 C432 1.363 . S
C433 C439 1.428 . S
H434 C430 0.930 . S
H435 C432 0.929 . S
S436 N437 1.613 . S
S436 N438 1.610 . S
N437 S436 1.613 . S
N437 C440 1.350 . S
N438 S436 1.610 . S
N438 C439 1.351 . S
C439 C433 1.428 . S
C439 N438 1.351 . S
C439 C440 1.434 . S
C440 C431 1.429 . S
C440 N437 1.350 . S
C440 C439 1.434 . S
C441 C442 1.369 . S
C441 C443 1.419 . S
C441 H445 0.930 . S
C442 C441 1.369 . S
C442 C451 1.429 . S
C443 C441 1.419 . S
C443 C444 1.363 . S
C443 H446 0.929 . S
C444 C443 1.363 . S
C444 C450 1.428 . S
H445 C441 0.930 . S
H446 C443 0.929 . S
S447 N448 1.613 . S
S447 N449 1.610 . S
N448 S447 1.613 . S
N448 C451 1.350 . S
N449 S447 1.610 . S
N449 C450 1.351 . S
C450 C444 1.428 . S
C450 N449 1.351 . S
C450 C451 1.434 . S
C451 C442 1.429 . S
C451 N448 1.350 . S
C451 C450 1.434 . S
C452 C453 1.369 . S
C452 C454 1.419 . S
C452 H456 0.930 . S
C453 C452 1.369 . S
C453 C462 1.429 . S
C454 C452 1.419 . S
C454 C455 1.363 . S
C454 H457 0.929 . S
C455 C454 1.363 . S
C455 C461 1.428 . S
H456 C452 0.930 . S
H457 C454 0.929 . S
S458 N459 1.613 . S
S458 N460 1.610 . S
N459 S458 1.613 . S
N459 C462 1.350 . S
N460 S458 1.610 . S
N460 C461 1.351 . S
C461 C455 1.428 . S
C461 N460 1.351 . S
C461 C462 1.434 . S
C462 C453 1.429 . S
C462 N459 1.350 . S
C462 C461 1.434 . S
C463 C464 1.369 . S
C463 C465 1.419 . S
C463 H467 0.930 . S
C464 C463 1.369 . S
C464 C473 1.429 . S
C465 C463 1.419 . S
C465 C466 1.363 . S
C465 H468 0.929 . S
C466 C465 1.363 . S
C466 C472 1.428 . S
H467 C463 0.930 . S
H468 C465 0.929 . S
S469 N470 1.613 . S
S469 N471 1.610 . S
N470 S469 1.613 . S
N470 C473 1.350 . S
N471 S469 1.610 . S
N471 C472 1.351 . S
C472 C466 1.428 . S
C472 N471 1.351 . S
C472 C473 1.434 . S
C473 C464 1.429 . S
C473 N470 1.350 . S
C473 C472 1.434 . S
C474 C475 1.369 . S
C474 C476 1.419 . S
C474 H478 0.930 . S
C475 C474 1.369 . S
C475 C484 1.429 . S
C476 C474 1.419 . S
C476 C477 1.363 . S
C476 H479 0.929 . S
C477 C476 1.363 . S
C477 C483 1.428 . S
H478 C474 0.930 . S
H479 C476 0.929 . S
S480 N481 1.613 . S
S480 N482 1.610 . S
N481 S480 1.613 . S
N481 C484 1.350 . S
N482 S480 1.610 . S
N482 C483 1.351 . S
C483 C477 1.428 . S
C483 N482 1.351 . S
C483 C484 1.434 . S
C484 C475 1.429 . S
C484 N481 1.350 . S
C484 C483 1.434 . S
C485 C486 1.369 . S
C485 C487 1.419 . S
C485 H489 0.930 1_455 S
C486 C485 1.369 . S
C486 C495 1.429 . S
C487 C485 1.419 . S
C487 C488 1.363 . S
C487 H490 0.929 . S
C488 C487 1.363 . S
C488 C494 1.428 . S
H489 C485 0.930 1_655 S
H490 C487 0.929 . S
S491 N492 1.613 . S
S491 N493 1.610 . S
N492 S491 1.613 . S
N492 C495 1.350 . S
N493 S491 1.610 . S
N493 C494 1.351 . S
C494 C488 1.428 . S
C494 N493 1.351 . S
C494 C495 1.434 . S
C495 C486 1.429 . S
C495 N492 1.350 . S
C495 C494 1.434 . S
C496 C497 1.369 . S
C496 C498 1.419 . S
C496 H500 0.930 . S
C497 C496 1.369 . S
C497 C506 1.429 . S
C498 C496 1.419 . S
C498 C499 1.363 . S
C498 H501 0.929 . S
C499 C498 1.363 . S
C499 C505 1.428 . S
H500 C496 0.930 . S
H501 C498 0.929 . S
S502 N503 1.613 . S
S502 N504 1.610 . S
N503 S502 1.613 . S
N503 C506 1.350 . S
N504 S502 1.610 . S
N504 C505 1.351 . S
C505 C499 1.428 . S
C505 N504 1.351 . S
C505 C506 1.434 . S
C506 C497 1.429 . S
C506 N503 1.350 . S
C506 C505 1.434 . S
C507 C508 1.369 . S
C507 C509 1.419 . S
C507 H511 0.930 . S
C508 C507 1.369 . S
C508 C517 1.429 . S
C509 C507 1.419 . S
C509 C510 1.363 . S
C509 H512 0.929 . S
C510 C509 1.363 . S
C510 C516 1.428 . S
H511 C507 0.930 . S
H512 C509 0.929 . S
S513 N514 1.613 . S
S513 N515 1.610 . S
N514 S513 1.613 . S
N514 C517 1.350 . S
N515 S513 1.610 . S
N515 C516 1.351 . S
C516 C510 1.428 . S
C516 N515 1.351 . S
C516 C517 1.434 . S
C517 C508 1.429 . S
C517 N514 1.350 . S
C517 C516 1.434 . S
C518 C519 1.369 . S
C518 C520 1.419 . S
C518 H522 0.930 . S
C519 C518 1.369 . S
C519 C528 1.429 . S
C520 C518 1.419 . S
C520 C521 1.363 . S
C520 H523 0.929 . S
C521 C520 1.363 . S
C521 C527 1.428 . S
H522 C518 0.930 . S
H523 C520 0.929 . S
S524 N525 1.613 . S
S524 N526 1.610 . S
N525 S524 1.613 . S
N525 C528 1.350 . S
N526 S524 1.610 . S
N526 C527 1.351 . S
C527 C521 1.428 . S
C527 N526 1.351 . S
C527 C528 1.434 . S
C528 C519 1.429 . S
C528 N525 1.350 . S
C528 C527 1.434 . S
C529 C530 1.369 . S
C529 C531 1.419 . S
C529 H533 0.930 . S
C530 C529 1.369 . S
C530 C539 1.429 . S
C531 C529 1.419 . S
C531 C532 1.363 . S
C531 H534 0.929 . S
C532 C531 1.363 . S
C532 C538 1.428 . S
H533 C529 0.930 . S
H534 C531 0.929 . S
S535 N536 1.613 . S
S535 N537 1.610 . S
N536 S535 1.613 . S
N536 C539 1.350 . S
N537 S535 1.610 . S
N537 C538 1.351 . S
C538 C532 1.428 . S
C538 N537 1.351 . S
C538 C539 1.434 . S
C539 C530 1.429 . S
C539 N536 1.350 . S
C539 C538 1.434 . S
C540 C541 1.369 . S
C540 C542 1.419 . S
C540 H544 0.930 . S
C541 C540 1.369 . S
C541 C550 1.429 . S
C542 C540 1.419 . S
C542 C543 1.363 . S
C542 H545 0.929 . S
C543 C542 1.363 . S
C543 C549 1.428 . S
H544 C540 0.930 . S
H545 C542 0.929 . S
S546 N547 1.613 . S
S546 N548 1.610 . S
N547 S546 1.613 . S
N547 C550 1.350 . S
N548 S546 1.610 . S
N548 C549 1.351 . S
C549 C543 1.428 . S
C549 N548 1.351 . S
C549 C550 1.434 . S
C550 C541 1.429 . S
C550 N547 1.350 . S
C550 C549 1.434 . S
C551 C552 1.369 . S
C551 C553 1.419 . S
C551 H555 0.930 . S
C552 C551 1.369 . S
C552 C561 1.429 . S
C553 C551 1.419 . S
C553 C554 1.363 . S
C553 H556 0.929 . S
C554 C553 1.363 . S
C554 C560 1.428 . S
H555 C551 0.930 . S
H556 C553 0.929 . S
S557 N558 1.613 1_556 S
S557 N559 1.610 . S
N558 S557 1.613 1_554 S
N558 C561 1.350 . S
N559 S557 1.610 . S
N559 C560 1.351 1_556 S
C560 C554 1.428 . S
C560 N559 1.351 1_554 S
C560 C561 1.434 . S
C561 C552 1.429 . S
C561 N558 1.350 . S
C561 C560 1.434 . S
C562 C563 1.369 . S
C562 C564 1.419 . S
C562 H566 0.930 . S
C563 C562 1.369 . S
C563 C572 1.429 . S
C564 C562 1.419 . S
C564 C565 1.363 . S
C564 H567 0.929 . S
C565 C564 1.363 . S
C565 C571 1.428 . S
H566 C562 0.930 . S
H567 C564 0.929 . S
S568 N569 1.613 . S
S568 N570 1.610 . S
N569 S568 1.613 . S
N569 C572 1.350 . S
N570 S568 1.610 . S
N570 C571 1.351 . S
C571 C565 1.428 . S
C571 N570 1.351 . S
C571 C572 1.434 . S
C572 C563 1.429 . S
C572 N569 1.350 . S
C572 C571 1.434 . S
C573 C574 1.369 . S
C573 C575 1.419 . S
C573 H577 0.930 . S
C574 C573 1.369 . S
C574 C583 1.429 . S
C575 C573 1.419 . S
C575 C576 1.363 . S
C575 H578 0.929 . S
C576 C575 1.363 . S
C576 C582 1.428 . S
H577 C573 0.930 . S
H578 C575 0.929 . S
S579 N580 1.613 . S
S579 N581 1.610 . S
N580 S579 1.613 . S
N580 C583 1.350 . S
N581 S579 1.610 . S
N581 C582 1.351 . S
C582 C576 1.428 . S
C582 N581 1.351 . S
C582 C583 1.434 . S
C583 C574 1.429 . S
C583 N580 1.350 . S
C583 C582 1.434 . S
C584 C585 1.369 . S
C584 C586 1.419 . S
C584 H588 0.930 . S
C585 C584 1.369 . S
C585 C594 1.429 . S
C586 C584 1.419 . S
C586 C587 1.363 . S
C586 H589 0.929 . S
C587 C586 1.363 . S
C587 C593 1.428 . S
H588 C584 0.930 . S
H589 C586 0.929 . S
S590 N591 1.613 . S
S590 N592 1.610 . S
N591 S590 1.613 . S
N591 C594 1.350 . S
N592 S590 1.610 . S
N592 C593 1.351 . S
C593 C587 1.428 . S
C593 N592 1.351 . S
C593 C594 1.434 . S
C594 C585 1.429 . S
C594 N591 1.350 . S
C594 C593 1.434 . S
C595 C596 1.369 . S
C595 C597 1.419 . S
C595 H599 0.930 . S
C596 C595 1.369 . S
C596 C605 1.429 . S
C597 C595 1.419 . S
C597 C598 1.363 . S
C597 H600 0.929 . S
C598 C597 1.363 . S
C598 C604 1.428 . S
H599 C595 0.930 . S
H600 C597 0.929 . S
S601 N602 1.613 . S
S601 N603 1.610 . S
N602 S601 1.613 . S
N602 C605 1.350 . S
N603 S601 1.610 . S
N603 C604 1.351 . S
C604 C598 1.428 . S
C604 N603 1.351 . S
C604 C605 1.434 . S
C605 C596 1.429 . S
C605 N602 1.350 . S
C605 C604 1.434 . S
C606 C607 1.369 . S
C606 C608 1.419 . S
C606 H610 0.930 . S
C607 C606 1.369 . S
C607 C616 1.429 . S
C608 C606 1.419 . S
C608 C609 1.363 . S
C608 H611 0.929 . S
C609 C608 1.363 . S
C609 C615 1.428 . S
H610 C606 0.930 . S
H611 C608 0.929 . S
S612 N613 1.613 . S
S612 N614 1.610 . S
N613 S612 1.613 . S
N613 C616 1.350 . S
N614 S612 1.610 . S
N614 C615 1.351 . S
C615 C609 1.428 . S
C615 N614 1.351 . S
C615 C616 1.434 . S
C616 C607 1.429 . S
C616 N613 1.350 . S
C616 C615 1.434 . S
C617 C618 1.369 . S
C617 C619 1.419 . S
C617 H621 0.930 . S
C618 C617 1.369 . S
C618 C627 1.429 . S
C619 C617 1.419 . S
C619 C620 1.363 . S
C619 H622 0.929 . S
C620 C619 1.363 . S
C620 C626 1.428 . S
H621 C617 0.930 . S
H622 C619 0.929 . S
S623 N624 1.613 . S
S623 N625 1.610 . S
N624 S623 1.613 . S
N624 C627 1.350 . S
N625 S623 1.610 . S
N625 C626 1.351 . S
C626 C620 1.428 . S
C626 N625 1.351 . S
C626 C627 1.434 . S
C627 C618 1.429 . S
C627 N624 1.350 . S
C627 C626 1.434 . S
C628 C629 1.369 . S
C628 C630 1.419 . S
C628 H632 0.930 . S
C629 C628 1.369 . S
C629 C638 1.429 . S
C630 C628 1.419 . S
C630 C631 1.363 . S
C630 H633 0.929 . S
C631 C630 1.363 . S
C631 C637 1.428 . S
H632 C628 0.930 . S
H633 C630 0.929 . S
S634 N635 1.613 . S
S634 N636 1.610 . S
N635 S634 1.613 . S
N635 C638 1.350 . S
N636 S634 1.610 . S
N636 C637 1.351 . S
C637 C631 1.428 . S
C637 N636 1.351 . S
C637 C638 1.434 . S
C638 C629 1.429 . S
C638 N635 1.350 . S
C638 C637 1.434 . S
C639 C640 1.369 . S
C639 C641 1.419 . S
C639 H643 0.930 . S
C640 C639 1.369 . S
C640 C649 1.429 . S
C641 C639 1.419 . S
C641 C642 1.363 . S
C641 H644 0.929 . S
C642 C641 1.363 . S
C642 C648 1.428 . S
H643 C639 0.930 . S
H644 C641 0.929 . S
S645 N646 1.613 . S
S645 N647 1.610 . S
N646 S645 1.613 . S
N646 C649 1.350 . S
N647 S645 1.610 . S
N647 C648 1.351 . S
C648 C642 1.428 . S
C648 N647 1.351 . S
C648 C649 1.434 . S
C649 C640 1.429 . S
C649 N646 1.350 . S
C649 C648 1.434 . S
C650 C651 1.369 . S
C650 C652 1.419 . S
C650 H654 0.930 . S
C651 C650 1.369 . S
C651 C660 1.429 . S
C652 C650 1.419 . S
C652 C653 1.363 . S
C652 H655 0.929 . S
C653 C652 1.363 . S
C653 C659 1.428 . S
H654 C650 0.930 . S
H655 C652 0.929 . S
S656 N657 1.613 . S
S656 N658 1.610 . S
N657 S656 1.613 . S
N657 C660 1.350 . S
N658 S656 1.610 . S
N658 C659 1.351 . S
C659 C653 1.428 . S
C659 N658 1.351 . S
C659 C660 1.434 . S
C660 C651 1.429 . S
C660 N657 1.350 . S
C660 C659 1.434 . S
C661 C662 1.369 . S
C661 C663 1.419 . S
C661 H665 0.930 . S
C662 C661 1.369 . S
C662 C671 1.429 . S
C663 C661 1.419 . S
C663 C664 1.363 . S
C663 H666 0.929 . S
C664 C663 1.363 . S
C664 C670 1.428 . S
H665 C661 0.930 . S
H666 C663 0.929 . S
S667 N668 1.613 . S
S667 N669 1.610 . S
N668 S667 1.613 . S
N668 C671 1.350 . S
N669 S667 1.610 . S
N669 C670 1.351 . S
C670 C664 1.428 . S
C670 N669 1.351 . S
C670 C671 1.434 . S
C671 C662 1.429 . S
C671 N668 1.350 . S
C671 C670 1.434 . S
C672 C673 1.369 . S
C672 C674 1.419 . S
C672 H676 0.930 . S
C673 C672 1.369 . S
C673 C682 1.429 . S
C674 C672 1.419 . S
C674 C675 1.363 . S
C674 H677 0.929 . S
C675 C674 1.363 . S
C675 C681 1.428 . S
H676 C672 0.930 . S
H677 C674 0.929 . S
S678 N679 1.613 . S
S678 N680 1.610 . S
N679 S678 1.613 . S
N679 C682 1.350 . S
N680 S678 1.610 . S
N680 C681 1.351 . S
C681 C675 1.428 . S
C681 N680 1.351 . S
C681 C682 1.434 . S
C682 C673 1.429 . S
C682 N679 1.350 . S
C682 C681 1.434 . S
C683 C684 1.369 . S
C683 C685 1.419 . S
C683 H687 0.930 . S
C684 C683 1.369 . S
C684 C693 1.429 . S
C685 C683 1.419 . S
C685 C686 1.363 . S
C685 H688 0.929 . S
C686 C685 1.363 . S
C686 C692 1.428 . S
H687 C683 0.930 . S
H688 C685 0.929 . S
S689 N690 1.613 . S
S689 N691 1.610 . S
N690 S689 1.613 . S
N690 C693 1.350 . S
N691 S689 1.610 . S
N691 C692 1.351 . S
C692 C686 1.428 . S
C692 N691 1.351 . S
C692 C693 1.434 . S
C693 C684 1.429 . S
C693 N690 1.350 . S
C693 C692 1.434 . S
C694 C695 1.369 . S
C694 C696 1.419 . S
C694 H698 0.930 . S
C695 C694 1.369 . S
C695 C704 1.429 . S
C696 C694 1.419 . S
C696 C697 1.363 . S
C696 H699 0.929 . S
C697 C696 1.363 . S
C697 C703 1.428 . S
H698 C694 0.930 . S
H699 C696 0.929 . S
S700 N701 1.613 . S
S700 N702 1.610 . S
N701 S700 1.613 . S
N701 C704 1.350 . S
N702 S700 1.610 . S
N702 C703 1.351 . S
C703 C697 1.428 . S
C703 N702 1.351 . S
C703 C704 1.434 . S
C704 C695 1.429 . S
C704 N701 1.350 . S
C704 C703 1.434 . S
C705 C706 1.369 . S
C705 C707 1.419 . S
C705 H709 0.930 . S
C706 C705 1.369 . S
C706 C715 1.429 . S
C707 C705 1.419 . S
C707 C708 1.363 . S
C707 H710 0.929 . S
C708 C707 1.363 . S
C708 C714 1.428 . S
H709 C705 0.930 . S
H710 C707 0.929 . S
S711 N712 1.613 . S
S711 N713 1.610 . S
N712 S711 1.613 . S
N712 C715 1.350 . S
N713 S711 1.610 . S
N713 C714 1.351 . S
C714 C708 1.428 . S
C714 N713 1.351 . S
C714 C715 1.434 . S
C715 C706 1.429 . S
C715 N712 1.350 . S
C715 C714 1.434 . S
C716 C717 1.369 . S
C716 C718 1.419 . S
C716 H720 0.930 . S
C717 C716 1.369 . S
C717 C726 1.429 . S
C718 C716 1.419 . S
C718 C719 1.363 . S
C718 H721 0.929 . S
C719 C718 1.363 . S
C719 C725 1.428 . S
H720 C716 0.930 . S
H721 C718 0.929 . S
S722 N723 1.613 . S
S722 N724 1.610 . S
N723 S722 1.613 . S
N723 C726 1.350 . S
N724 S722 1.610 . S
N724 C725 1.351 . S
C725 C719 1.428 . S
C725 N724 1.351 . S
C725 C726 1.434 . S
C726 C717 1.429 . S
C726 N723 1.350 . S
C726 C725 1.434 . S
C727 C728 1.369 . S
C727 C729 1.419 . S
C727 H731 0.930 . S
C728 C727 1.369 . S
C728 C737 1.429 . S
C729 C727 1.419 . S
C729 C730 1.363 . S
C729 H732 0.929 . S
C730 C729 1.363 . S
C730 C736 1.428 . S
H731 C727 0.930 . S
H732 C729 0.929 . S
S733 N734 1.613 . S
S733 N735 1.610 . S
N734 S733 1.613 . S
N734 C737 1.350 . S
N735 S733 1.610 . S
N735 C736 1.351 . S
C736 C730 1.428 . S
C736 N735 1.351 . S
C736 C737 1.434 . S
C737 C728 1.429 . S
C737 N734 1.350 . S
C737 C736 1.434 . S
C738 C739 1.369 . S
C738 C740 1.419 . S
C738 H742 0.930 . S
C739 C738 1.369 . S
C739 C748 1.429 . S
C740 C738 1.419 . S
C740 C741 1.363 . S
C740 H743 0.929 . S
C741 C740 1.363 . S
C741 C747 1.428 . S
H742 C738 0.930 . S
H743 C740 0.929 . S
S744 N745 1.613 . S
S744 N746 1.610 . S
N745 S744 1.613 . S
N745 C748 1.350 . S
N746 S744 1.610 . S
N746 C747 1.351 . S
C747 C741 1.428 . S
C747 N746 1.351 . S
C747 C748 1.434 . S
C748 C739 1.429 . S
C748 N745 1.350 . S
C748 C747 1.434 . S
C749 C750 1.369 . S
C749 C751 1.419 . S
C749 H753 0.930 . S
C750 C749 1.369 . S
C750 C759 1.429 . S
C751 C749 1.419 . S
C751 C752 1.363 . S
C751 H754 0.929 . S
C752 C751 1.363 . S
C752 C758 1.428 . S
H753 C749 0.930 . S
H754 C751 0.929 . S
S755 N756 1.613 . S
S755 N757 1.610 . S
N756 S755 1.613 . S
N756 C759 1.350 . S
N757 S755 1.610 . S
N757 C758 1.351 . S
C758 C752 1.428 . S
C758 N757 1.351 . S
C758 C759 1.434 . S
C759 C750 1.429 . S
C759 N756 1.350 . S
C759 C758 1.434 . S
C760 C761 1.369 . S
C760 C762 1.419 . S
C760 H764 0.930 . S
C761 C760 1.369 . S
C761 C770 1.429 . S
C762 C760 1.419 . S
C762 C763 1.363 . S
C762 H765 0.929 . S
C763 C762 1.363 . S
C763 C769 1.428 . S
H764 C760 0.930 . S
H765 C762 0.929 . S
S766 N767 1.613 . S
S766 N768 1.610 . S
N767 S766 1.613 . S
N767 C770 1.350 . S
N768 S766 1.610 . S
N768 C769 1.351 . S
C769 C763 1.428 . S
C769 N768 1.351 . S
C769 C770 1.434 . S
C770 C761 1.429 . S
C770 N767 1.350 . S
C770 C769 1.434 . S
C771 C772 1.369 . S
C771 C773 1.419 . S
C771 H775 0.930 . S
C772 C771 1.369 . S
C772 C781 1.429 . S
C773 C771 1.419 . S
C773 C774 1.363 . S
C773 H776 0.929 . S
C774 C773 1.363 . S
C774 C780 1.428 . S
H775 C771 0.930 . S
H776 C773 0.929 . S
S777 N778 1.613 . S
S777 N779 1.610 . S
N778 S777 1.613 . S
N778 C781 1.350 . S
N779 S777 1.610 . S
N779 C780 1.351 . S
C780 C774 1.428 . S
C780 N779 1.351 . S
C780 C781 1.434 . S
C781 C772 1.429 . S
C781 N778 1.350 . S
C781 C780 1.434 . S
C782 C783 1.369 . S
C782 C784 1.419 . S
C782 H786 0.930 . S
C783 C782 1.369 . S
C783 C792 1.429 . S
C784 C782 1.419 . S
C784 C785 1.363 . S
C784 H787 0.929 . S
C785 C784 1.363 . S
C785 C791 1.428 . S
H786 C782 0.930 . S
H787 C784 0.929 . S
S788 N789 1.613 . S
S788 N790 1.610 . S
N789 S788 1.613 . S
N789 C792 1.350 . S
N790 S788 1.610 . S
N790 C791 1.351 . S
C791 C785 1.428 . S
C791 N790 1.351 . S
C791 C792 1.434 . S
C792 C783 1.429 . S
C792 N789 1.350 . S
C792 C791 1.434 . S
C793 C794 1.369 . S
C793 C795 1.419 . S
C793 H797 0.930 . S
C794 C793 1.369 . S
C794 C803 1.429 . S
C795 C793 1.419 . S
C795 C796 1.363 . S
C795 H798 0.929 . S
C796 C795 1.363 . S
C796 C802 1.428 . S
H797 C793 0.930 . S
H798 C795 0.929 . S
S799 N800 1.613 . S
S799 N801 1.610 . S
N800 S799 1.613 . S
N800 C803 1.350 . S
N801 S799 1.610 . S
N801 C802 1.351 . S
C802 C796 1.428 . S
C802 N801 1.351 . S
C802 C803 1.434 . S
C803 C794 1.429 . S
C803 N800 1.350 . S
C803 C802 1.434 . S
C804 C805 1.369 . S
C804 C806 1.419 . S
C804 H808 0.930 . S
C805 C804 1.369 . S
C805 C814 1.429 . S
C806 C804 1.419 . S
C806 C807 1.363 . S
C806 H809 0.929 . S
C807 C806 1.363 . S
C807 C813 1.428 . S
H808 C804 0.930 . S
H809 C806 0.929 . S
S810 N811 1.613 . S
S810 N812 1.610 . S
N811 S810 1.613 . S
N811 C814 1.350 . S
N812 S810 1.610 . S
N812 C813 1.351 . S
C813 C807 1.428 . S
C813 N812 1.351 . S
C813 C814 1.434 . S
C814 C805 1.429 . S
C814 N811 1.350 . S
C814 C813 1.434 . S
C815 C816 1.369 . S
C815 C817 1.419 . S
C815 H819 0.930 . S
C816 C815 1.369 . S
C816 C825 1.429 . S
C817 C815 1.419 . S
C817 C818 1.363 . S
C817 H820 0.929 . S
C818 C817 1.363 . S
C818 C824 1.428 . S
H819 C815 0.930 . S
H820 C817 0.929 . S
S821 N822 1.613 . S
S821 N823 1.610 . S
N822 S821 1.613 . S
N822 C825 1.350 . S
N823 S821 1.610 . S
N823 C824 1.351 . S
C824 C818 1.428 . S
C824 N823 1.351 . S
C824 C825 1.434 . S
C825 C816 1.429 . S
C825 N822 1.350 . S
C825 C824 1.434 . S
C826 C827 1.369 . S
C826 C828 1.419 . S
C826 H830 0.930 . S
C827 C826 1.369 . S
C827 C836 1.429 . S
C828 C826 1.419 . S
C828 C829 1.363 . S
C828 H831 0.929 . S
C829 C828 1.363 . S
C829 C835 1.428 . S
H830 C826 0.930 . S
H831 C828 0.929 . S
S832 N833 1.613 . S
S832 N834 1.610 . S
N833 S832 1.613 . S
N833 C836 1.350 . S
N834 S832 1.610 . S
N834 C835 1.351 . S
C835 C829 1.428 . S
C835 N834 1.351 . S
C835 C836 1.434 . S
C836 C827 1.429 . S
C836 N833 1.350 . S
C836 C835 1.434 . S
C837 C838 1.369 . S
C837 C839 1.419 . S
C837 H841 0.930 . S
C838 C837 1.369 . S
C838 C847 1.429 . S
C839 C837 1.419 . S
C839 C840 1.363 . S
C839 H842 0.929 . S
C840 C839 1.363 . S
C840 C846 1.428 . S
H841 C837 0.930 . S
H842 C839 0.929 . S
S843 N844 1.613 . S
S843 N845 1.610 . S
N844 S843 1.613 . S
N844 C847 1.350 . S
N845 S843 1.610 . S
N845 C846 1.351 . S
C846 C840 1.428 . S
C846 N845 1.351 . S
C846 C847 1.434 . S
C847 C838 1.429 . S
C847 N844 1.350 . S
C847 C846 1.434 . S
C321 C79 1.465 . S
C323 C9 1.478 . S
C332 C18 1.377 . S
C334 C21 1.406 . S
C343 C48 1.097 . S
C345 C29 1.117 . S
C354 C62 1.188 . S
C356 C42 1.226 . S
C365 C82 1.771 . S
C367 C118 1.768 . S
C376 C109 1.105 . S
C378 C129 1.105 . S
C387 C121 1.966 . S
C389 C158 1.935 . S
C398 C99 1.503 . S
C400 C149 1.513 . S
C409 C181 1.345 . S
C411 C1 1.351 . S
C420 C218 1.492 . S
C422 C38 1.506 . S
C431 C59 1.730 . S
C433 C261 1.741 . S
C442 C168 0.976 . S
C444 C68 0.985 . S
C453 C228 1.039 . S
C455 C88 1.034 . S
C464 C299 1.677 . S
C466 C101 1.697 . S
C475 C138 1.318 . S
C477 C258 1.297 . S
C486 C319 1.685 . S
C488 C141 1.680 . S
C497 C179 1.463 . S
C499 C269 1.470 . S
C508 C198 1.616 . S
C510 C162 1.639 . S
C519 C209 0.955 . S
C521 C189 0.960 . S
C530 C288 1.515 . S
C532 C239 1.500 . S
C541 C249 0.908 . S
C543 C308 0.918 . S
C552 C238 1.470 . S
C554 C8 1.474 . S
C563 C242 1.407 . S
C565 C19 1.381 . S
C574 C248 1.116 . S
C576 C49 1.096 . S
C585 C41 1.228 . S
C587 C221 1.179 . S
C596 C199 1.762 . S
C598 C81 1.776 . S
C607 C188 1.106 . S
C609 C128 1.100 . S
C618 C279 1.937 . S
C620 C122 1.969 . S
C629 C98 1.503 . S
C631 C268 1.516 . S
C640 C102 1.351 . S
C642 C2 1.347 . S
C651 C219 1.497 . S
C653 C259 1.505 . S
C662 C58 1.733 . S
C664 C142 1.739 . S
C673 C169 0.974 . S
C675 C229 0.988 . S
C684 C69 1.032 . S
C686 C89 1.026 . S
C695 C182 1.697 . S
C697 C298 1.675 . S
C706 C139 1.319 . S
C708 C39 1.297 . S
C717 C318 1.687 . S
C719 C262 1.686 . S
C728 C178 1.463 . S
C730 C148 1.463 . S
C739 C161 1.648 . S
C741 C119 1.611 . S
C750 C208 0.963 . S
C752 C108 0.954 . S
C761 C78 1.499 . S
C763 C289 1.512 . S
C772 C28 0.914 . S
C774 C309 0.916 . S
C783 C241 1.105 . S
C785 C282 1.100 . S
C794 C222 1.212 . S
C796 C302 1.269 . S
C805 C201 1.924 . S
C807 C278 1.905 . S
C816 C281 1.096 . S
C818 C22 1.101 . S
C827 C61 1.226 . S
C829 C301 1.263 . S
C838 C159 1.901 . S
C840 C202 1.922 . S
