# Generated by pormake.
# Topology wkr, (6)-cn, num edge types: 1
# Building blocks:
#     Node 0, Type 0, BuildingBlock: VOLQOD_clean_sbu_1, # of connection points: 6
#     Node 1, Type 0, BuildingBlock: VOLQOD_clean_sbu_1, # of connection points: 6
#     Node 2, Type 0, BuildingBlock: VOLQOD_clean_sbu_1, # of connection points: 6
#     Node 3, Type 0, BuildingBlock: VOLQOD_clean_sbu_1, # of connection points: 6
#     Node 4, Type 0, BuildingBlock: VOLQOD_clean_sbu_1, # of connection points: 6
#     Node 5, Type 0, BuildingBlock: VOLQOD_clean_sbu_1, # of connection points: 6
#     Node 6, Type 0, BuildingBlock: VOLQOD_clean_sbu_1, # of connection points: 6
#     Node 7, Type 0, BuildingBlock: VOLQOD_clean_sbu_1, # of connection points: 6
#     Node 8, Type 0, BuildingBlock: VOLQOD_clean_sbu_1, # of connection points: 6
#     Node 9, Type 0, BuildingBlock: VOLQOD_clean_sbu_1, # of connection points: 6
#     Node 10, Type 0, BuildingBlock: VOLQOD_clean_sbu_1, # of connection points: 6
#     Node 11, Type 0, BuildingBlock: VOLQOD_clean_sbu_1, # of connection points: 6
#     Node 12, Type 0, BuildingBlock: VOLQOD_clean_sbu_1, # of connection points: 6
#     Node 13, Type 0, BuildingBlock: VOLQOD_clean_sbu_1, # of connection points: 6
#     Node 14, Type 0, BuildingBlock: VOLQOD_clean_sbu_1, # of connection points: 6
#     Node 15, Type 0, BuildingBlock: VOLQOD_clean_sbu_1, # of connection points: 6
#     Node 16, Type 0, BuildingBlock: VOLQOD_clean_sbu_1, # of connection points: 6
#     Node 17, Type 0, BuildingBlock: VOLQOD_clean_sbu_1, # of connection points: 6
#     Node 18, Type 0, BuildingBlock: VOLQOD_clean_sbu_1, # of connection points: 6
#     Node 19, Type 0, BuildingBlock: VOLQOD_clean_sbu_1, # of connection points: 6
#     Node 20, Type 0, BuildingBlock: VOLQOD_clean_sbu_1, # of connection points: 6
#     Node 21, Type 0, BuildingBlock: VOLQOD_clean_sbu_1, # of connection points: 6
#     Node 22, Type 0, BuildingBlock: VOLQOD_clean_sbu_1, # of connection points: 6
#     Node 23, Type 0, BuildingBlock: VOLQOD_clean_sbu_1, # of connection points: 6
#     Edge 24, Type (0, 0), BuildingBlock: KIFKEQ_clean_linker_1, # of connection points: 2
#     Edge 25, Type (0, 0), BuildingBlock: KIFKEQ_clean_linker_1, # of connection points: 2
#     Edge 26, Type (0, 0), BuildingBlock: KIFKEQ_clean_linker_1, # of connection points: 2
#     Edge 27, Type (0, 0), BuildingBlock: KIFKEQ_clean_linker_1, # of connection points: 2
#     Edge 28, Type (0, 0), BuildingBlock: KIFKEQ_clean_linker_1, # of connection points: 2
#     Edge 29, Type (0, 0), BuildingBlock: KIFKEQ_clean_linker_1, # of connection points: 2
#     Edge 30, Type (0, 0), BuildingBlock: KIFKEQ_clean_linker_1, # of connection points: 2
#     Edge 31, Type (0, 0), BuildingBlock: KIFKEQ_clean_linker_1, # of connection points: 2
#     Edge 32, Type (0, 0), BuildingBlock: KIFKEQ_clean_linker_1, # of connection points: 2
#     Edge 33, Type (0, 0), BuildingBlock: KIFKEQ_clean_linker_1, # of connection points: 2
#     Edge 34, Type (0, 0), BuildingBlock: KIFKEQ_clean_linker_1, # of connection points: 2
#     Edge 35, Type (0, 0), BuildingBlock: KIFKEQ_clean_linker_1, # of connection points: 2
#     Edge 36, Type (0, 0), BuildingBlock: KIFKEQ_clean_linker_1, # of connection points: 2
#     Edge 37, Type (0, 0), BuildingBlock: KIFKEQ_clean_linker_1, # of connection points: 2
#     Edge 38, Type (0, 0), BuildingBlock: KIFKEQ_clean_linker_1, # of connection points: 2
#     Edge 39, Type (0, 0), BuildingBlock: KIFKEQ_clean_linker_1, # of connection points: 2
#     Edge 40, Type (0, 0), BuildingBlock: KIFKEQ_clean_linker_1, # of connection points: 2
#     Edge 41, Type (0, 0), BuildingBlock: KIFKEQ_clean_linker_1, # of connection points: 2
#     Edge 42, Type (0, 0), BuildingBlock: KIFKEQ_clean_linker_1, # of connection points: 2
#     Edge 43, Type (0, 0), BuildingBlock: KIFKEQ_clean_linker_1, # of connection points: 2
#     Edge 44, Type (0, 0), BuildingBlock: KIFKEQ_clean_linker_1, # of connection points: 2
#     Edge 45, Type (0, 0), BuildingBlock: KIFKEQ_clean_linker_1, # of connection points: 2
#     Edge 46, Type (0, 0), BuildingBlock: KIFKEQ_clean_linker_1, # of connection points: 2
#     Edge 47, Type (0, 0), BuildingBlock: KIFKEQ_clean_linker_1, # of connection points: 2
#     Edge 48, Type (0, 0), BuildingBlock: KIFKEQ_clean_linker_1, # of connection points: 2
#     Edge 49, Type (0, 0), BuildingBlock: KIFKEQ_clean_linker_1, # of connection points: 2
#     Edge 50, Type (0, 0), BuildingBlock: KIFKEQ_clean_linker_1, # of connection points: 2
#     Edge 51, Type (0, 0), BuildingBlock: KIFKEQ_clean_linker_1, # of connection points: 2
#     Edge 52, Type (0, 0), BuildingBlock: KIFKEQ_clean_linker_1, # of connection points: 2
#     Edge 53, Type (0, 0), BuildingBlock: KIFKEQ_clean_linker_1, # of connection points: 2
#     Edge 54, Type (0, 0), BuildingBlock: KIFKEQ_clean_linker_1, # of connection points: 2
#     Edge 55, Type (0, 0), BuildingBlock: KIFKEQ_clean_linker_1, # of connection points: 2
#     Edge 56, Type (0, 0), BuildingBlock: KIFKEQ_clean_linker_1, # of connection points: 2
#     Edge 57, Type (0, 0), BuildingBlock: KIFKEQ_clean_linker_1, # of connection points: 2
#     Edge 58, Type (0, 0), BuildingBlock: KIFKEQ_clean_linker_1, # of connection points: 2
#     Edge 59, Type (0, 0), BuildingBlock: KIFKEQ_clean_linker_1, # of connection points: 2
#     Edge 60, Type (0, 0), BuildingBlock: KIFKEQ_clean_linker_1, # of connection points: 2
#     Edge 61, Type (0, 0), BuildingBlock: KIFKEQ_clean_linker_1, # of connection points: 2
#     Edge 62, Type (0, 0), BuildingBlock: KIFKEQ_clean_linker_1, # of connection points: 2
#     Edge 63, Type (0, 0), BuildingBlock: KIFKEQ_clean_linker_1, # of connection points: 2
#     Edge 64, Type (0, 0), BuildingBlock: KIFKEQ_clean_linker_1, # of connection points: 2
#     Edge 65, Type (0, 0), BuildingBlock: KIFKEQ_clean_linker_1, # of connection points: 2
#     Edge 66, Type (0, 0), BuildingBlock: KIFKEQ_clean_linker_1, # of connection points: 2
#     Edge 67, Type (0, 0), BuildingBlock: KIFKEQ_clean_linker_1, # of connection points: 2
#     Edge 68, Type (0, 0), BuildingBlock: KIFKEQ_clean_linker_1, # of connection points: 2
#     Edge 69, Type (0, 0), BuildingBlock: KIFKEQ_clean_linker_1, # of connection points: 2
#     Edge 70, Type (0, 0), BuildingBlock: KIFKEQ_clean_linker_1, # of connection points: 2
#     Edge 71, Type (0, 0), BuildingBlock: KIFKEQ_clean_linker_1, # of connection points: 2
#     Edge 72, Type (0, 0), BuildingBlock: KIFKEQ_clean_linker_1, # of connection points: 2
#     Edge 73, Type (0, 0), BuildingBlock: KIFKEQ_clean_linker_1, # of connection points: 2
#     Edge 74, Type (0, 0), BuildingBlock: KIFKEQ_clean_linker_1, # of connection points: 2
#     Edge 75, Type (0, 0), BuildingBlock: KIFKEQ_clean_linker_1, # of connection points: 2
#     Edge 76, Type (0, 0), BuildingBlock: KIFKEQ_clean_linker_1, # of connection points: 2
#     Edge 77, Type (0, 0), BuildingBlock: KIFKEQ_clean_linker_1, # of connection points: 2
#     Edge 78, Type (0, 0), BuildingBlock: KIFKEQ_clean_linker_1, # of connection points: 2
#     Edge 79, Type (0, 0), BuildingBlock: KIFKEQ_clean_linker_1, # of connection points: 2
#     Edge 80, Type (0, 0), BuildingBlock: KIFKEQ_clean_linker_1, # of connection points: 2
#     Edge 81, Type (0, 0), BuildingBlock: KIFKEQ_clean_linker_1, # of connection points: 2
#     Edge 82, Type (0, 0), BuildingBlock: KIFKEQ_clean_linker_1, # of connection points: 2
#     Edge 83, Type (0, 0), BuildingBlock: KIFKEQ_clean_linker_1, # of connection points: 2
#     Edge 84, Type (0, 0), BuildingBlock: KIFKEQ_clean_linker_1, # of connection points: 2
#     Edge 85, Type (0, 0), BuildingBlock: KIFKEQ_clean_linker_1, # of connection points: 2
#     Edge 86, Type (0, 0), BuildingBlock: KIFKEQ_clean_linker_1, # of connection points: 2
#     Edge 87, Type (0, 0), BuildingBlock: KIFKEQ_clean_linker_1, # of connection points: 2
#     Edge 88, Type (0, 0), BuildingBlock: KIFKEQ_clean_linker_1, # of connection points: 2
#     Edge 89, Type (0, 0), BuildingBlock: KIFKEQ_clean_linker_1, # of connection points: 2
#     Edge 90, Type (0, 0), BuildingBlock: KIFKEQ_clean_linker_1, # of connection points: 2
#     Edge 91, Type (0, 0), BuildingBlock: KIFKEQ_clean_linker_1, # of connection points: 2
#     Edge 92, Type (0, 0), BuildingBlock: KIFKEQ_clean_linker_1, # of connection points: 2
#     Edge 93, Type (0, 0), BuildingBlock: KIFKEQ_clean_linker_1, # of connection points: 2
#     Edge 94, Type (0, 0), BuildingBlock: KIFKEQ_clean_linker_1, # of connection points: 2
#     Edge 95, Type (0, 0), BuildingBlock: KIFKEQ_clean_linker_1, # of connection points: 2
# Relax obj value: 0.731
# Max RMSD: 0.278
# Mean RMSD: 0.278
data_MOF--net-wkr--node1-VOLQOD_clean_sbu_1--edge1-KIFKEQ_clean_linker_1
_symmetry_space_group_name_H-M    P1
_symmetry_Int_Tables_number       1
_symmetry_cell_setting            triclinic
loop_
_symmetry_equiv_pos_as_xyz
'x, y, z'
_cell_length_a     52.619315
_cell_length_b     52.654362
_cell_length_c     53.713325
_cell_angle_alpha  89.931145
_cell_angle_beta   90.168097
_cell_angle_gamma 119.79104
loop_
_atom_site_label
_atom_site_type_symbol
_atom_site_fract_x
_atom_site_fract_y
_atom_site_fract_z
_atom_type_partial_charge
O0 O 0.484 0.10495 0.17279 0.0
Zn1 Zn 0.47654 0.13981 0.16265 0.0
O2 O 0.51426 0.17465 0.15365 0.0
Zn3 Zn 0.51797 0.21043 0.16729 0.0
Zn4 Zn 0.54511 0.17025 0.16804 0.0
Zn5 Zn 0.52164 0.18065 0.11802 0.0
O6 O 0.52209 0.23901 0.14113 0.0
O7 O 0.5257 0.21908 0.10597 0.0
O8 O 0.45786 0.1531 0.19193 0.0
O9 O 0.48355 0.20168 0.18804 0.0
O10 O 0.55155 0.23026 0.19153 0.0
O11 O 0.55952 0.19332 0.19928 0.0
O12 O 0.57832 0.18284 0.14468 0.0
O13 O 0.45201 0.12591 0.12946 0.0
O14 O 0.55922 0.18184 0.10758 0.0
O15 O 0.48731 0.14853 0.10094 0.0
C16 C 0.50825 0.10491 0.17559 0.0
C17 C 0.52519 0.23986 0.11764 0.0
C18 C 0.56299 0.21838 0.20456 0.0
C19 C 0.46296 0.17893 0.19807 0.0
C20 C 0.5803 0.1844 0.12108 0.0
C21 C 0.46105 0.12996 0.10679 0.0
O22 O 0.53249 0.12865 0.17439 0.0
O23 O 0.38633 0.48626 0.16107 0.0
Zn24 Zn 0.34468 0.47993 0.15049 0.0
O25 O 0.34837 0.51829 0.14087 0.0
Zn26 Zn 0.31822 0.52393 0.15684 0.0
Zn27 Zn 0.38647 0.54963 0.15113 0.0
Zn28 Zn 0.34512 0.52292 0.10493 0.0
O29 O 0.29264 0.52988 0.13245 0.0
O30 O 0.31109 0.52835 0.09587 0.0
O31 O 0.31223 0.4609 0.17926 0.0
O32 O 0.29239 0.48971 0.1778 0.0
O33 O 0.33567 0.55799 0.18057 0.0
O34 O 0.38317 0.57274 0.17911 0.0
O35 O 0.40678 0.57808 0.12387 0.0
O36 O 0.33297 0.45432 0.11804 0.0
O37 O 0.37981 0.55879 0.09003 0.0
O38 O 0.33814 0.48647 0.08839 0.0
C39 C 0.41125 0.5098 0.16325 0.0
C40 C 0.29239 0.53101 0.1088 0.0
C41 C 0.3618 0.57467 0.188 0.0
C42 C 0.29276 0.46741 0.18639 0.0
C43 C 0.40241 0.57897 0.10073 0.0
C44 C 0.33273 0.46106 0.09507 0.0
O45 O 0.4133 0.53469 0.16025 0.0
O46 O 0.9151 0.38191 0.17073 0.0
Zn47 Zn 0.88152 0.34041 0.15918 0.0
O48 O 0.84713 0.34395 0.14887 0.0
Zn49 Zn 0.81145 0.31106 0.16178 0.0
Zn50 Zn 0.85112 0.38015 0.16177 0.0
Zn51 Zn 0.84198 0.3443 0.11277 0.0
O52 O 0.78455 0.28549 0.13511 0.0
O53 O 0.80435 0.30998 0.1003 0.0
O54 O 0.86806 0.30849 0.18853 0.0
O55 O 0.81964 0.28618 0.18411 0.0
O56 O 0.78982 0.3245 0.1839 0.0
O57 O 0.82126 0.37214 0.18811 0.0
O58 O 0.84504 0.40323 0.13539 0.0
O59 O 0.89724 0.3304 0.12672 0.0
O60 O 0.84075 0.37979 0.10003 0.0
O61 O 0.87449 0.34177 0.09709 0.0
C62 C 0.91515 0.40583 0.17554 0.0
C63 C 0.78423 0.28802 0.11161 0.0
C64 C 0.79728 0.34926 0.19354 0.0
C65 C 0.84214 0.28813 0.1946 0.0
C66 C 0.84194 0.40121 0.11191 0.0
C67 C 0.8934 0.33475 0.10377 0.0
O68 O 0.89169 0.40707 0.17391 0.0
O69 O 0.55085 0.92065 0.17398 0.0
Zn70 Zn 0.55852 0.8859 0.16492 0.0
O71 O 0.52129 0.8509 0.15669 0.0
Zn72 Zn 0.5229 0.81726 0.16948 0.0
Zn73 Zn 0.49116 0.85438 0.17336 0.0
Zn74 Zn 0.51184 0.84432 0.12167 0.0
O75 O 0.51127 0.78575 0.14435 0.0
O76 O 0.50525 0.80484 0.10959 0.0
O77 O 0.5748 0.87223 0.19572 0.0
O78 O 0.56321 0.82866 0.18086 0.0
O79 O 0.49781 0.80092 0.19998 0.0
O80 O 0.48098 0.83193 0.20519 0.0
O81 O 0.45637 0.84126 0.15149 0.0
O82 O 0.58249 0.89817 0.13147 0.0
O83 O 0.47436 0.8444 0.11344 0.0
O84 O 0.54599 0.87548 0.10372 0.0
C85 C 0.52671 0.92015 0.17877 0.0
C86 C 0.50546 0.78385 0.12122 0.0
C87 C 0.484 0.81059 0.21258 0.0
C88 C 0.57558 0.84822 0.19743 0.0
C89 C 0.45382 0.84111 0.12792 0.0
C90 C 0.57262 0.89366 0.10897 0.0
O91 O 0.50289 0.89595 0.17974 0.0
O92 O 0.63153 0.53483 0.16372 0.0
Zn93 Zn 0.67363 0.54173 0.15399 0.0
O94 O 0.67042 0.5037 0.14399 0.0
Zn95 Zn 0.69863 0.49688 0.16171 0.0
Zn96 Zn 0.63157 0.47193 0.15185 0.0
Zn97 Zn 0.67719 0.50064 0.10842 0.0
O98 O 0.72742 0.49466 0.13941 0.0
O99 O 0.71484 0.50029 0.10133 0.0
O100 O 0.70515 0.56032 0.18378 0.0
O101 O 0.72186 0.52891 0.18512 0.0
O102 O 0.67967 0.46094 0.18277 0.0
O103 O 0.63253 0.44727 0.17987 0.0
O104 O 0.61348 0.4448 0.1233 0.0
O105 O 0.68505 0.56754 0.12163 0.0
O106 O 0.64537 0.46335 0.0924 0.0
O107 O 0.67965 0.53543 0.09184 0.0
C108 C 0.6064 0.51132 0.164 0.0
C109 C 0.73194 0.49704 0.11611 0.0
C110 C 0.65321 0.44431 0.18913 0.0
C111 C 0.72254 0.55195 0.19285 0.0
C112 C 0.62103 0.44364 0.1011 0.0
C113 C 0.68408 0.56049 0.09859 0.0
O114 O 0.60434 0.48662 0.15982 0.0
O115 O 0.10746 0.62726 0.17045 0.0
Zn116 Zn 0.1425 0.66905 0.15928 0.0
O117 O 0.17569 0.66479 0.14623 0.0
Zn118 Zn 0.2104 0.68473 0.16668 0.0
Zn119 Zn 0.16444 0.624 0.14422 0.0
Zn120 Zn 0.18821 0.67953 0.11251 0.0
O121 O 0.24365 0.71637 0.14806 0.0
O122 O 0.2259 0.71793 0.11101 0.0
O123 O 0.15946 0.701 0.18901 0.0
O124 O 0.20406 0.70647 0.1935 0.0
O125 O 0.22364 0.65793 0.18093 0.0
O126 O 0.19148 0.61551 0.16409 0.0
O127 O 0.16559 0.61008 0.11011 0.0
O128 O 0.12638 0.68121 0.12819 0.0
O129 O 0.19541 0.65176 0.09146 0.0
O130 O 0.1566 0.68427 0.09754 0.0
C131 C 0.10414 0.60167 0.1665 0.0
C132 C 0.24648 0.7284 0.12696 0.0
C133 C 0.214 0.63076 0.17747 0.0
C134 C 0.18462 0.71267 0.20007 0.0
C135 C 0.18239 0.62395 0.09215 0.0
C136 C 0.1342 0.68515 0.10519 0.0
O137 O 0.12449 0.59893 0.15657 0.0
O138 O 0.91064 0.52766 0.36172 0.0
Zn139 Zn 0.87722 0.53676 0.37278 0.0
O140 O 0.84229 0.49976 0.38435 0.0
Zn141 Zn 0.80661 0.49526 0.36916 0.0
Zn142 Zn 0.84671 0.46657 0.3751 0.0
Zn143 Zn 0.83597 0.49732 0.42055 0.0
O144 O 0.77748 0.49302 0.39409 0.0
O145 O 0.79784 0.49483 0.43064 0.0
O146 O 0.86353 0.55519 0.3434 0.0
O147 O 0.81502 0.52809 0.34653 0.0
O148 O 0.7871 0.45972 0.34739 0.0
O149 O 0.81667 0.44097 0.35005 0.0
O150 O 0.84222 0.44122 0.40397 0.0
O151 O 0.89394 0.56393 0.40426 0.0
O152 O 0.83527 0.46225 0.43689 0.0
O153 O 0.86805 0.53339 0.43512 0.0
C154 C 0.91038 0.50321 0.35949 0.0
C155 C 0.77678 0.49316 0.41774 0.0
C156 C 0.79386 0.44047 0.3415 0.0
C157 C 0.83754 0.5492 0.33676 0.0
C158 C 0.83832 0.44195 0.42718 0.0
C159 C 0.88846 0.55798 0.42752 0.0
O160 O 0.88695 0.47914 0.36322 0.0
O161 O 0.39151 0.9089 0.37152 0.0
Zn162 Zn 0.35003 0.87307 0.3825 0.0
O163 O 0.35527 0.83992 0.39494 0.0
Zn164 Zn 0.33237 0.80435 0.37573 0.0
Zn165 Zn 0.39601 0.85052 0.39274 0.0
Zn166 Zn 0.34427 0.82902 0.42989 0.0
O167 O 0.30242 0.77181 0.39629 0.0
O168 O 0.30827 0.78978 0.43449 0.0
O169 O 0.31778 0.85651 0.35286 0.0
O170 O 0.30893 0.8106 0.35045 0.0
O171 O 0.35687 0.79006 0.35866 0.0
O172 O 0.40158 0.82354 0.37039 0.0
O173 O 0.41315 0.84796 0.42487 0.0
O174 O 0.33662 0.88782 0.41364 0.0
O175 O 0.37548 0.82677 0.45043 0.0
O176 O 0.33573 0.8583 0.44409 0.0
C177 C 0.41728 0.91189 0.37314 0.0
C178 C 0.29472 0.76927 0.41892 0.0
C179 C 0.38442 0.80024 0.35867 0.0
C180 C 0.30405 0.83068 0.3431 0.0
C181 C 0.40246 0.83666 0.44582 0.0
C182 C 0.33271 0.87953 0.43653 0.0
O183 O 0.42056 0.89092 0.38087 0.0
O184 O 0.48347 0.38439 0.37319 0.0
Zn185 Zn 0.47721 0.34251 0.38289 0.0
O186 O 0.51545 0.34603 0.39294 0.0
Zn187 Zn 0.52145 0.3166 0.37624 0.0
Zn188 Zn 0.54683 0.38451 0.38369 0.0
Zn189 Zn 0.51965 0.3412 0.42875 0.0
O190 O 0.52715 0.29025 0.39957 0.0
O191 O 0.52573 0.30714 0.43691 0.0
O192 O 0.4591 0.3112 0.35308 0.0
O193 O 0.488 0.29147 0.35439 0.0
O194 O 0.55573 0.33484 0.35319 0.0
O195 O 0.57074 0.38229 0.3558 0.0
O196 O 0.57418 0.40425 0.41177 0.0
O197 O 0.45102 0.32962 0.41499 0.0
O198 O 0.55452 0.37602 0.44483 0.0
O199 O 0.48255 0.33301 0.44469 0.0
C200 C 0.50702 0.40938 0.37169 0.0
C201 C 0.52836 0.28899 0.42314 0.0
C202 C 0.57261 0.3611 0.3464 0.0
C203 C 0.46594 0.2921 0.34555 0.0
C204 C 0.57452 0.3993 0.43486 0.0
C205 C 0.45732 0.3281 0.43789 0.0
O206 O 0.53188 0.41139 0.37492 0.0
O207 O 0.09565 0.4625 0.35882 0.0
Zn208 Zn 0.13013 0.45448 0.36785 0.0
O209 O 0.1656 0.49152 0.37485 0.0
Zn210 Zn 0.19853 0.48857 0.36224 0.0
Zn211 Zn 0.16229 0.52094 0.35698 0.0
Zn212 Zn 0.17284 0.50264 0.40932 0.0
O213 O 0.2308 0.50142 0.38695 0.0
O214 O 0.21253 0.50935 0.42128 0.0
O215 O 0.14297 0.43761 0.3372 0.0
O216 O 0.18561 0.44732 0.35296 0.0
O217 O 0.21394 0.51149 0.33049 0.0
O218 O 0.18229 0.52739 0.32418 0.0
O219 O 0.17948 0.55766 0.37674 0.0
O220 O 0.11859 0.43189 0.40202 0.0
O221 O 0.17384 0.54101 0.41554 0.0
O222 O 0.14167 0.46967 0.42847 0.0
C223 C 0.09619 0.48666 0.35402 0.0
C224 C 0.23324 0.50845 0.40983 0.0
C225 C 0.20332 0.52379 0.31693 0.0
C226 C 0.16659 0.43605 0.3358 0.0
C227 C 0.17954 0.56159 0.40014 0.0
C228 C 0.1234 0.44282 0.42414 0.0
O229 O 0.12048 0.51039 0.35251 0.0
O230 O 0.63629 0.10474 0.36911 0.0
Zn231 Zn 0.67834 0.13875 0.38003 0.0
O232 O 0.6755 0.17344 0.39127 0.0
Zn233 Zn 0.70408 0.20898 0.37425 0.0
Zn234 Zn 0.63653 0.16684 0.38414 0.0
Zn235 Zn 0.68198 0.18164 0.42717 0.0
O236 O 0.73319 0.23861 0.39765 0.0
O237 O 0.71898 0.21928 0.43516 0.0
O238 O 0.70986 0.15231 0.35035 0.0
O239 O 0.72676 0.20041 0.34973 0.0
O240 O 0.68517 0.22804 0.35511 0.0
O241 O 0.63783 0.19641 0.36021 0.0
O242 O 0.61718 0.17167 0.41388 0.0
O243 O 0.68919 0.12258 0.41176 0.0
O244 O 0.64981 0.18576 0.44429 0.0
O245 O 0.68518 0.14918 0.44243 0.0
C246 C 0.61144 0.10381 0.36767 0.0
C247 C 0.73676 0.23989 0.42112 0.0
C248 C 0.65839 0.22002 0.35116 0.0
C249 C 0.72718 0.17805 0.34151 0.0
C250 C 0.62475 0.17986 0.43617 0.0
C251 C 0.68901 0.12839 0.43499 0.0
O252 O 0.60952 0.12644 0.37232 0.0
O253 O 0.53254 0.62971 0.37203 0.0
Zn254 Zn 0.53884 0.67146 0.38219 0.0
O255 O 0.50054 0.66764 0.39205 0.0
Zn256 Zn 0.49468 0.69789 0.3765 0.0
Zn257 Zn 0.46924 0.62976 0.38149 0.0
Zn258 Zn 0.49604 0.6703 0.42805 0.0
O259 O 0.49014 0.72388 0.4013 0.0
O260 O 0.49197 0.70494 0.43762 0.0
O261 O 0.5573 0.70375 0.35313 0.0
O262 O 0.52837 0.72343 0.35498 0.0
O263 O 0.45997 0.6807 0.35332 0.0
O264 O 0.44633 0.63344 0.35345 0.0
O265 O 0.44047 0.60945 0.40845 0.0
O266 O 0.56484 0.68362 0.41447 0.0
O267 O 0.45956 0.63579 0.4426 0.0
O268 O 0.53248 0.67662 0.44444 0.0
C269 C 0.50897 0.60479 0.36993 0.0
C270 C 0.48971 0.72411 0.42498 0.0
C271 C 0.44376 0.65477 0.3453 0.0
C272 C 0.55054 0.72311 0.3461 0.0
C273 C 0.43931 0.61351 0.43159 0.0
C274 C 0.55809 0.68297 0.43753 0.0
O275 O 0.48407 0.60281 0.37269 0.0
O276 O 0.53841 0.9091 0.87293 0.0
Zn277 Zn 0.54566 0.87416 0.88288 0.0
O278 O 0.50768 0.83942 0.89276 0.0
Zn279 Zn 0.50191 0.80402 0.87614 0.0
Zn280 Zn 0.47578 0.84604 0.88346 0.0
Zn281 Zn 0.50397 0.83069 0.92862 0.0
O282 O 0.4998 0.77367 0.89965 0.0
O283 O 0.49979 0.79148 0.93691 0.0
O284 O 0.56395 0.86119 0.85297 0.0
O285 O 0.53413 0.81287 0.85268 0.0
O286 O 0.46535 0.78549 0.85541 0.0
O287 O 0.45011 0.81788 0.85731 0.0
O288 O 0.44952 0.83996 0.91198 0.0
O289 O 0.57202 0.88794 0.91512 0.0
O290 O 0.46858 0.82967 0.94463 0.0
O291 O 0.54064 0.86008 0.94475 0.0
C292 C 0.51463 0.91008 0.8702 0.0
C293 C 0.49883 0.77137 0.92322 0.0
C294 C 0.44755 0.79407 0.84905 0.0
C295 C 0.55646 0.8355 0.84441 0.0
C296 C 0.44894 0.83391 0.9349 0.0
C297 C 0.56576 0.88039 0.93805 0.0
O298 O 0.48989 0.88713 0.87296 0.0
O299 O 0.64001 0.54748 0.86346 0.0
Zn300 Zn 0.68225 0.55419 0.87294 0.0
O301 O 0.67951 0.51648 0.8825 0.0
Zn302 Zn 0.71077 0.51209 0.86765 0.0
Zn303 Zn 0.64302 0.48565 0.86999 0.0
Zn304 Zn 0.68091 0.51009 0.91808 0.0
O305 O 0.73549 0.50586 0.89228 0.0
O306 O 0.71466 0.50419 0.92841 0.0
O307 O 0.71291 0.57141 0.84265 0.0
O308 O 0.73685 0.5467 0.84742 0.0
O309 O 0.69567 0.47971 0.84243 0.0
O310 O 0.64972 0.47021 0.83845 0.0
O311 O 0.62313 0.45364 0.89469 0.0
O312 O 0.69471 0.57958 0.90566 0.0
O313 O 0.64487 0.4738 0.93059 0.0
O314 O 0.68707 0.54602 0.93487 0.0
C315 C 0.61542 0.52352 0.86166 0.0
C316 C 0.73452 0.50311 0.91581 0.0
C317 C 0.67134 0.46782 0.83092 0.0
C318 C 0.73387 0.56655 0.83669 0.0
C319 C 0.6248 0.45271 0.91825 0.0
C320 C 0.69357 0.57187 0.92856 0.0
O321 O 0.61446 0.49906 0.86383 0.0
O322 O 0.1052 0.63061 0.87035 0.0
Zn323 Zn 0.14067 0.67238 0.88019 0.0
O324 O 0.17528 0.66857 0.89 0.0
Zn325 Zn 0.21068 0.69821 0.87365 0.0
Zn326 Zn 0.16845 0.63035 0.88005 0.0
Zn327 Zn 0.18413 0.67269 0.92584 0.0
O328 O 0.24193 0.72478 0.89725 0.0
O329 O 0.22388 0.70693 0.93441 0.0
O330 O 0.15382 0.70349 0.85014 0.0
O331 O 0.20231 0.72299 0.85146 0.0
O332 O 0.22757 0.68049 0.85085 0.0
O333 O 0.19502 0.63308 0.85241 0.0
O334 O 0.17538 0.60978 0.90784 0.0
O335 O 0.12753 0.68523 0.91259 0.0
O336 O 0.18419 0.6375 0.94131 0.0
O337 O 0.15504 0.68039 0.94208 0.0
C338 C 0.10403 0.60575 0.868 0.0
C339 C 0.24433 0.72569 0.92081 0.0
C340 C 0.21829 0.65438 0.8436 0.0
C341 C 0.17969 0.72235 0.84249 0.0
C342 C 0.18061 0.61423 0.93097 0.0
C343 C 0.135 0.68586 0.93551 0.0
O344 O 0.12697 0.60378 0.87069 0.0
O345 O 0.48645 0.104 0.87262 0.0
Zn346 Zn 0.48036 0.14007 0.88177 0.0
O347 O 0.51874 0.17434 0.89243 0.0
Zn348 Zn 0.52783 0.20927 0.87368 0.0
Zn349 Zn 0.54996 0.16565 0.88657 0.0
Zn350 Zn 0.52091 0.18576 0.92764 0.0
O351 O 0.53118 0.24188 0.8944 0.0
O352 O 0.52522 0.22575 0.93312 0.0
O353 O 0.46315 0.1539 0.8512 0.0
O354 O 0.49661 0.20121 0.84974 0.0
O355 O 0.56438 0.22429 0.85379 0.0
O356 O 0.57762 0.19087 0.85985 0.0
O357 O 0.57413 0.17233 0.91676 0.0
O358 O 0.45355 0.12704 0.91373 0.0
O359 O 0.55507 0.18698 0.94632 0.0
O360 O 0.48366 0.15718 0.94315 0.0
C361 C 0.50974 0.10181 0.87322 0.0
C362 C 0.52938 0.24558 0.91751 0.0
C363 C 0.58141 0.21422 0.84946 0.0
C364 C 0.47297 0.17974 0.8419 0.0
C365 C 0.5741 0.18053 0.93895 0.0
C366 C 0.459 0.13601 0.93643 0.0
O367 O 0.53441 0.12398 0.87817 0.0
O368 O 0.39043 0.48603 0.86134 0.0
Zn369 Zn 0.34777 0.47682 0.8721 0.0
O370 O 0.34949 0.51372 0.88395 0.0
Zn371 Zn 0.31982 0.51985 0.86753 0.0
Zn372 Zn 0.3878 0.54681 0.8768 0.0
Zn373 Zn 0.34337 0.51483 0.91995 0.0
O374 O 0.29139 0.52104 0.89147 0.0
O375 O 0.30701 0.51648 0.92861 0.0
O376 O 0.31583 0.45862 0.84256 0.0
O377 O 0.29661 0.48798 0.84372 0.0
O378 O 0.3375 0.55695 0.84749 0.0
O379 O 0.38521 0.57468 0.85312 0.0
O380 O 0.40735 0.57021 0.90689 0.0
O381 O 0.33719 0.44921 0.9033 0.0
O382 O 0.37616 0.54949 0.9379 0.0
O383 O 0.33941 0.47867 0.93427 0.0
C384 C 0.41472 0.51038 0.85991 0.0
C385 C 0.28875 0.51928 0.91502 0.0
C386 C 0.36395 0.57644 0.84366 0.0
C387 C 0.29711 0.46594 0.83478 0.0
C388 C 0.40069 0.56926 0.92966 0.0
C389 C 0.33638 0.45452 0.92655 0.0
O390 O 0.41549 0.53441 0.86452 0.0
O391 O 0.91118 0.38517 0.8691 0.0
Zn392 Zn 0.87616 0.34328 0.87925 0.0
O393 O 0.84174 0.347 0.88979 0.0
Zn394 Zn 0.80571 0.31748 0.87379 0.0
Zn395 Zn 0.84822 0.38534 0.88057 0.0
Zn396 Zn 0.83446 0.34297 0.92581 0.0
O397 O 0.77555 0.29049 0.89816 0.0
O398 O 0.79572 0.30836 0.93486 0.0
O399 O 0.86216 0.31163 0.84957 0.0
O400 O 0.81374 0.29288 0.85082 0.0
O401 O 0.78768 0.33566 0.85224 0.0
O402 O 0.82066 0.38295 0.85384 0.0
O403 O 0.84167 0.40554 0.90886 0.0
O404 O 0.89059 0.33071 0.91114 0.0
O405 O 0.83351 0.37734 0.94189 0.0
O406 O 0.86436 0.33591 0.94141 0.0
C407 C 0.91228 0.41006 0.86733 0.0
C408 C 0.7746 0.28953 0.92181 0.0
C409 C 0.79682 0.36195 0.84545 0.0
C410 C 0.83614 0.29305 0.84191 0.0
C411 C 0.8366 0.40062 0.93195 0.0
C412 C 0.8841 0.33034 0.93425 0.0
O413 O 0.88943 0.412 0.87072 0.0
O414 O 0.10425 0.47787 0.66087 0.0
Zn415 Zn 0.13972 0.47092 0.65172 0.0
O416 O 0.17481 0.50912 0.64246 0.0
Zn417 Zn 0.20904 0.51617 0.66156 0.0
Zn418 Zn 0.16718 0.54086 0.64945 0.0
Zn419 Zn 0.18668 0.51243 0.60732 0.0
O420 O 0.24103 0.51809 0.64093 0.0
O421 O 0.22572 0.5145 0.60207 0.0
O422 O 0.15199 0.45203 0.68193 0.0
O423 O 0.19953 0.48446 0.68536 0.0
O424 O 0.22531 0.55243 0.68198 0.0
O425 O 0.19231 0.56654 0.67729 0.0
O426 O 0.176 0.56712 0.62035 0.0
O427 O 0.12696 0.44531 0.61904 0.0
O428 O 0.19068 0.54873 0.59022 0.0
O429 O 0.15732 0.4764 0.59034 0.0
C430 C 0.10267 0.50148 0.66108 0.0
C431 C 0.24485 0.5168 0.61777 0.0
C432 C 0.2156 0.56952 0.6873 0.0
C433 C 0.17726 0.46093 0.69219 0.0
C434 C 0.18511 0.56813 0.59833 0.0
C435 C 0.13593 0.4516 0.59642 0.0
O436 O 0.12531 0.52612 0.65707 0.0
O437 O 0.63491 0.09819 0.66912 0.0
Zn438 Zn 0.67663 0.13321 0.65887 0.0
O439 O 0.67234 0.16681 0.6475 0.0
Zn440 Zn 0.70407 0.20322 0.66095 0.0
Zn441 Zn 0.63528 0.16155 0.65893 0.0
Zn442 Zn 0.67267 0.17155 0.6114 0.0
O443 O 0.72805 0.23232 0.63468 0.0
O444 O 0.7046 0.211 0.59974 0.0
O445 O 0.70761 0.14844 0.68914 0.0
O446 O 0.73086 0.19652 0.68236 0.0
O447 O 0.6886 0.22183 0.68452 0.0
O448 O 0.64106 0.18933 0.68639 0.0
O449 O 0.61355 0.16869 0.63212 0.0
O450 O 0.68999 0.11911 0.62732 0.0
O451 O 0.63578 0.16886 0.59715 0.0
O452 O 0.681 0.14232 0.59649 0.0
C453 C 0.6102 0.09733 0.67167 0.0
C454 C 0.72524 0.23244 0.61118 0.0
C455 C 0.66326 0.213 0.69359 0.0
C456 C 0.72842 0.17455 0.6942 0.0
C457 C 0.61497 0.16956 0.60852 0.0
C458 C 0.68865 0.12419 0.60405 0.0
O459 O 0.60842 0.12037 0.66896 0.0
O460 O 0.54595 0.63315 0.67291 0.0
Zn461 Zn 0.55247 0.67457 0.66187 0.0
O462 O 0.51437 0.67031 0.65167 0.0
Zn463 Zn 0.51045 0.7031 0.66339 0.0
Zn464 Zn 0.48353 0.63489 0.66612 0.0
Zn465 Zn 0.50797 0.66796 0.61585 0.0
O466 O 0.5081 0.72746 0.63586 0.0
O467 O 0.50307 0.70105 0.60216 0.0
O468 O 0.56962 0.70656 0.6912 0.0
O469 O 0.54344 0.72883 0.68556 0.0
O470 O 0.47542 0.68975 0.68569 0.0
O471 O 0.46569 0.64451 0.69471 0.0
O472 O 0.45216 0.6117 0.64134 0.0
O473 O 0.57802 0.68535 0.62937 0.0
O474 O 0.47153 0.63149 0.60482 0.0
O475 O 0.54304 0.67072 0.60012 0.0
C476 C 0.52236 0.60895 0.67738 0.0
C477 C 0.50458 0.72345 0.6125 0.0
C478 C 0.46219 0.66643 0.69848 0.0
C479 C 0.56378 0.72697 0.69668 0.0
C480 C 0.45095 0.6118 0.61771 0.0
C481 C 0.56939 0.67943 0.6066 0.0
O482 O 0.49761 0.60762 0.67626 0.0
O483 O 0.91055 0.53155 0.66255 0.0
Zn484 Zn 0.87519 0.5381 0.65244 0.0
O485 O 0.84055 0.49981 0.64337 0.0
Zn486 Zn 0.80479 0.4954 0.65836 0.0
Zn487 Zn 0.84672 0.4688 0.65559 0.0
Zn488 Zn 0.83343 0.49364 0.60738 0.0
O489 O 0.77447 0.49021 0.63297 0.0
O490 O 0.794 0.48776 0.59722 0.0
O491 O 0.86208 0.55728 0.68142 0.0
O492 O 0.81345 0.52989 0.6792 0.0
O493 O 0.78667 0.4614 0.68224 0.0
O494 O 0.81969 0.44686 0.68338 0.0
O495 O 0.83881 0.43936 0.62954 0.0
O496 O 0.88837 0.56316 0.61971 0.0
O497 O 0.83372 0.45762 0.59398 0.0
O498 O 0.86264 0.52983 0.59044 0.0
C499 C 0.91148 0.50789 0.66622 0.0
C500 C 0.77308 0.48722 0.60942 0.0
C501 C 0.79592 0.44497 0.69092 0.0
C502 C 0.83626 0.55154 0.68822 0.0
C503 C 0.83505 0.43755 0.60614 0.0
C504 C 0.88186 0.55565 0.5968 0.0
O505 O 0.88824 0.48315 0.6649 0.0
O506 O 0.38934 0.90579 0.67162 0.0
Zn507 Zn 0.34772 0.87121 0.66058 0.0
O508 O 0.35145 0.83673 0.65074 0.0
Zn509 Zn 0.32024 0.80092 0.66533 0.0
Zn510 Zn 0.38852 0.84219 0.66267 0.0
Zn511 Zn 0.35043 0.83044 0.6146 0.0
O512 O 0.29477 0.77199 0.63964 0.0
O513 O 0.31546 0.7922 0.60365 0.0
O514 O 0.31528 0.85771 0.68941 0.0
O515 O 0.29486 0.80921 0.68703 0.0
O516 O 0.33583 0.78145 0.68809 0.0
O517 O 0.38327 0.81412 0.68972 0.0
O518 O 0.4102 0.83497 0.63622 0.0
O519 O 0.33735 0.88636 0.62801 0.0
O520 O 0.38578 0.82895 0.60113 0.0
O521 O 0.34743 0.86268 0.59846 0.0
C522 C 0.41387 0.90649 0.67501 0.0
C523 C 0.29536 0.77124 0.61599 0.0
C524 C 0.36137 0.79014 0.69671 0.0
C525 C 0.29565 0.83177 0.69624 0.0
C526 C 0.40761 0.83071 0.61289 0.0
C527 C 0.34091 0.88195 0.60506 0.0
O528 O 0.41549 0.88331 0.67288 0.0
O529 O 0.49404 0.38714 0.66976 0.0
Zn530 Zn 0.48665 0.34528 0.65756 0.0
O531 O 0.5234 0.34949 0.64261 0.0
Zn532 Zn 0.53657 0.32521 0.65886 0.0
Zn533 Zn 0.55444 0.38965 0.64504 0.0
Zn534 Zn 0.52002 0.33885 0.60735 0.0
O535 O 0.54325 0.30022 0.63472 0.0
O536 O 0.51995 0.30119 0.60059 0.0
O537 O 0.47254 0.31242 0.68642 0.0
O538 O 0.50658 0.29918 0.68316 0.0
O539 O 0.57417 0.34834 0.67757 0.0
O540 O 0.58649 0.39383 0.66754 0.0
O541 O 0.57389 0.40609 0.61289 0.0
O542 O 0.45647 0.33368 0.62807 0.0
O543 O 0.55387 0.36899 0.58651 0.0
O544 O 0.48297 0.33479 0.5951 0.0
C545 C 0.51658 0.41267 0.66659 0.0
C546 C 0.53355 0.29106 0.61294 0.0
C547 C 0.59183 0.3757 0.67872 0.0
C548 C 0.48324 0.29603 0.69306 0.0
C549 C 0.57266 0.39542 0.59149 0.0
C550 C 0.45962 0.33211 0.60449 0.0
O551 O 0.53983 0.41527 0.65716 0.0
H552 H 0.46187 0.30459 0.29659 0.0
H553 H 0.43972 0.23281 0.34672 0.0
H554 H 0.45376 0.27241 0.26115 0.0
H555 H 0.43013 0.20003 0.31153 0.0
H556 H 0.46181 0.16372 0.24706 0.0
H557 H 0.45522 0.18844 0.28278 0.0
H558 H 0.42736 0.23489 0.23344 0.0
H559 H 0.43543 0.21104 0.19789 0.0
C560 C 0.45372 0.28153 0.30001 0.0
C561 C 0.4508 0.27125 0.32458 0.0
C562 C 0.44925 0.26288 0.27958 0.0
C563 C 0.44157 0.23323 0.28305 0.0
C564 C 0.43668 0.22264 0.30772 0.0
C565 C 0.44153 0.24137 0.32806 0.0
C566 C 0.45303 0.17822 0.24396 0.0
C567 C 0.44853 0.18479 0.21953 0.0
C568 C 0.44946 0.1928 0.26455 0.0
C569 C 0.44108 0.21437 0.26141 0.0
C570 C 0.43452 0.21918 0.23697 0.0
C571 C 0.4385 0.20493 0.21645 0.0
H572 H 0.23421 0.44657 0.18406 0.0
H573 H 0.30158 0.45425 0.23426 0.0
H574 H 0.19975 0.43249 0.21844 0.0
H575 H 0.26763 0.44147 0.26919 0.0
H576 H 0.19996 0.41007 0.32984 0.0
H577 H 0.22739 0.4107 0.29311 0.0
H578 H 0.18793 0.45254 0.25144 0.0
H579 H 0.15956 0.45046 0.28799 0.0
C580 C 0.24145 0.44447 0.20247 0.0
C581 C 0.2706 0.45099 0.20621 0.0
C582 C 0.22176 0.43693 0.22242 0.0
C583 C 0.23059 0.43621 0.24709 0.0
C584 C 0.25947 0.44133 0.25065 0.0
C585 C 0.27912 0.44851 0.23051 0.0
C586 C 0.19637 0.41845 0.31255 0.0
C587 C 0.17697 0.42963 0.31188 0.0
C588 C 0.21262 0.41935 0.29145 0.0
C589 C 0.21054 0.43201 0.26893 0.0
C590 C 0.1901 0.44209 0.26803 0.0
C591 C 0.1735 0.44077 0.28909 0.0
H592 H 0.85701 0.30187 0.24376 0.0
H593 H 0.80952 0.22878 0.19441 0.0
H594 H 0.83175 0.27065 0.27937 0.0
H595 H 0.78509 0.197 0.22983 0.0
H596 H 0.71478 0.1626 0.29235 0.0
H597 H 0.74731 0.18663 0.25717 0.0
H598 H 0.81961 0.2336 0.30809 0.0
H599 H 0.7865 0.21034 0.34304 0.0
C600 C 0.84233 0.27874 0.24061 0.0
C601 C 0.83588 0.26782 0.21616 0.0
C602 C 0.82744 0.26065 0.26113 0.0
C603 C 0.80567 0.23095 0.25788 0.0
C604 C 0.80095 0.2197 0.23343 0.0
C605 C 0.81554 0.23785 0.213 0.0
C606 C 0.73788 0.17709 0.29594 0.0
C607 C 0.74808 0.18386 0.32059 0.0
C608 C 0.75673 0.19125 0.27567 0.0
C609 C 0.78649 0.21268 0.27937 0.0
C610 C 0.79694 0.2179 0.30411 0.0
C611 C 0.77802 0.204 0.3243 0.0
H612 H 0.60234 0.81542 0.2021 0.0
H613 H 0.56393 0.85612 0.24584 0.0
H614 H 0.60347 0.78833 0.23852 0.0
H615 H 0.56369 0.82814 0.28218 0.0
H616 H 0.5721 0.78171 0.34865 0.0
H617 H 0.58503 0.81619 0.31432 0.0
H618 H 0.57347 0.74817 0.26289 0.0
H619 H 0.56182 0.71418 0.29772 0.0
C620 C 0.59483 0.81919 0.21974 0.0
C621 C 0.58361 0.83854 0.22101 0.0
C622 C 0.59494 0.80313 0.24067 0.0
C623 C 0.5833 0.80534 0.26366 0.0
C624 C 0.57334 0.82583 0.26518 0.0
C625 C 0.57362 0.84223 0.24425 0.0
C626 C 0.57343 0.77444 0.33008 0.0
C627 C 0.56651 0.74524 0.32612 0.0
C628 C 0.58029 0.79415 0.31017 0.0
C629 C 0.57992 0.78529 0.28535 0.0
C630 C 0.57445 0.75635 0.28154 0.0
C631 C 0.56792 0.73669 0.30162 0.0
H632 H 0.71032 0.5534 0.24214 0.0
H633 H 0.78191 0.58012 0.19099 0.0
H634 H 0.74307 0.56017 0.2769 0.0
H635 H 0.81522 0.5881 0.22562 0.0
H636 H 0.85196 0.55224 0.28728 0.0
H637 H 0.82688 0.5607 0.2526 0.0
H638 H 0.78124 0.58635 0.30462 0.0
H639 H 0.80553 0.57664 0.33902 0.0
C640 C 0.73345 0.56235 0.23843 0.0
C641 C 0.74353 0.56705 0.21373 0.0
C642 C 0.75242 0.566 0.25845 0.0
C643 C 0.78218 0.57443 0.25444 0.0
C644 C 0.79255 0.58103 0.22976 0.0
C645 C 0.77352 0.57713 0.20981 0.0
C646 C 0.83755 0.56091 0.2912 0.0
C647 C 0.83135 0.56436 0.31601 0.0
C648 C 0.82279 0.56557 0.27124 0.0
C649 C 0.80135 0.57389 0.27544 0.0
C650 C 0.79687 0.57932 0.30029 0.0
C651 C 0.81135 0.57436 0.32015 0.0
H652 H 0.25159 0.78126 0.34354 0.0
H653 H 0.30353 0.85715 0.29812 0.0
H654 H 0.21861 0.7572 0.30904 0.0
H655 H 0.26952 0.83344 0.26322 0.0
H656 H 0.15842 0.71389 0.24488 0.0
H657 H 0.18263 0.74776 0.27974 0.0
H658 H 0.25939 0.79717 0.23415 0.0
H659 H 0.23485 0.76432 0.1997 0.0
C660 C 0.25539 0.79332 0.32629 0.0
C661 C 0.28036 0.82129 0.32378 0.0
C662 C 0.23621 0.77941 0.3063 0.0
C663 C 0.24113 0.79284 0.28278 0.0
C664 C 0.26504 0.82183 0.28073 0.0
C665 C 0.28442 0.83584 0.30093 0.0
C666 C 0.17998 0.73266 0.24212 0.0
C667 C 0.19451 0.73636 0.21935 0.0
C668 C 0.19426 0.75195 0.26228 0.0
C669 C 0.22351 0.77538 0.26028 0.0
C670 C 0.23699 0.77995 0.23684 0.0
C671 C 0.2228 0.76086 0.21688 0.0
H672 H 0.56522 0.71328 0.74584 0.0
H673 H 0.58861 0.78623 0.69676 0.0
H674 H 0.57046 0.74414 0.7816 0.0
H675 H 0.59533 0.81769 0.73232 0.0
H676 H 0.5592 0.85123 0.79538 0.0
H677 H 0.56801 0.82763 0.75998 0.0
H678 H 0.59458 0.78103 0.81041 0.0
H679 H 0.58433 0.8038 0.84558 0.0
C680 C 0.573 0.73633 0.74277 0.0
C681 C 0.57706 0.74729 0.71835 0.0
C682 C 0.57581 0.75421 0.76338 0.0
C683 C 0.58297 0.78376 0.76026 0.0
C684 C 0.58907 0.79509 0.73584 0.0
C685 C 0.58584 0.77712 0.71531 0.0
C686 C 0.56813 0.83692 0.79882 0.0
C687 C 0.57177 0.83009 0.8234 0.0
C688 C 0.57302 0.82301 0.77841 0.0
C689 C 0.58179 0.80179 0.7819 0.0
C690 C 0.58724 0.79655 0.80658 0.0
C691 C 0.582 0.81018 0.8269 0.0
H692 H 0.80169 0.57629 0.68622 0.0
H693 H 0.85537 0.55979 0.73684 0.0
H694 H 0.78043 0.5889 0.72099 0.0
H695 H 0.83319 0.57088 0.77202 0.0
H696 H 0.79338 0.59448 0.83456 0.0
H697 H 0.82311 0.59931 0.79822 0.0
H698 H 0.74604 0.56702 0.75169 0.0
H699 H 0.71697 0.56376 0.78806 0.0
C700 C 0.80962 0.57622 0.70485 0.0
C701 C 0.83079 0.56764 0.70859 0.0
C702 C 0.79691 0.58288 0.725 0.0
C703 C 0.80435 0.58053 0.74982 0.0
C704 C 0.82682 0.57346 0.75343 0.0
C705 C 0.83988 0.56722 0.73314 0.0
C706 C 0.78312 0.58979 0.81635 0.0
C707 C 0.75284 0.5795 0.81428 0.0
C708 C 0.8001 0.59187 0.79542 0.0
C709 C 0.7873 0.58305 0.7716 0.0
C710 C 0.75724 0.57447 0.76936 0.0
C711 C 0.74037 0.57283 0.79033 0.0
H712 H 0.2364 0.79843 0.69412 0.0
H713 H 0.30692 0.84837 0.74533 0.0
H714 H 0.20283 0.77553 0.7288 0.0
H715 H 0.27394 0.82458 0.78031 0.0
H716 H 0.21109 0.78177 0.84263 0.0
H717 H 0.23568 0.81348 0.80717 0.0
H718 H 0.19074 0.73923 0.75791 0.0
H719 H 0.1653 0.70817 0.79348 0.0
C720 C 0.24453 0.80526 0.71289 0.0
C721 C 0.27429 0.82587 0.71682 0.0
C722 C 0.22534 0.79158 0.73295 0.0
C723 C 0.23533 0.79745 0.75782 0.0
C724 C 0.26486 0.81941 0.7617 0.0
C725 C 0.28398 0.83342 0.74153 0.0
C726 C 0.2054 0.77258 0.82406 0.0
C727 C 0.18545 0.7425 0.82095 0.0
C728 C 0.22012 0.79068 0.80361 0.0
C729 C 0.21597 0.77925 0.77925 0.0
C730 C 0.19459 0.74941 0.77606 0.0
C731 C 0.17958 0.73139 0.79655 0.0
H732 H 0.4622 0.22474 0.84043 0.0
H733 H 0.45457 0.15362 0.79548 0.0
H734 H 0.45699 0.24866 0.80378 0.0
H735 H 0.44789 0.17689 0.75838 0.0
H736 H 0.44859 0.29168 0.73421 0.0
H737 H 0.43569 0.25764 0.76945 0.0
H738 H 0.47754 0.21519 0.73267 0.0
H739 H 0.48899 0.24783 0.69775 0.0
C740 C 0.45803 0.21348 0.82273 0.0
C741 C 0.45866 0.18706 0.82109 0.0
C742 C 0.45506 0.22736 0.80147 0.0
C743 C 0.45258 0.21538 0.77757 0.0
C744 C 0.45055 0.1875 0.7762 0.0
C745 C 0.4537 0.17362 0.79762 0.0
C746 C 0.45428 0.27456 0.73344 0.0
C747 C 0.4701 0.2729 0.71303 0.0
C748 C 0.44722 0.25511 0.75386 0.0
C749 C 0.45572 0.2334 0.75445 0.0
C750 C 0.47007 0.23097 0.73328 0.0
C751 C 0.477 0.25017 0.71309 0.0
H752 H 0.20702 0.43115 0.69035 0.0
H753 H 0.16459 0.46086 0.7415 0.0
H754 H 0.23306 0.42383 0.72483 0.0
H755 H 0.19111 0.45453 0.77609 0.0
H756 H 0.23795 0.43862 0.83793 0.0
H757 H 0.20323 0.42819 0.804 0.0
H758 H 0.27312 0.4526 0.75092 0.0
H759 H 0.30746 0.46196 0.78515 0.0
C760 C 0.2022 0.43483 0.70917 0.0
C761 C 0.18279 0.4456 0.71313 0.0
C762 C 0.21776 0.43133 0.72902 0.0
C763 C 0.21485 0.43892 0.7536 0.0
C764 C 0.19396 0.44796 0.7577 0.0
C765 C 0.17829 0.45131 0.7378 0.0
C766 C 0.24561 0.44048 0.81895 0.0
C767 C 0.27544 0.45039 0.81436 0.0
C768 C 0.22574 0.43508 0.79936 0.0
C769 C 0.23504 0.43992 0.77435 0.0
C770 C 0.26465 0.44818 0.76972 0.0
C771 C 0.28452 0.45335 0.78942 0.0
H772 H 0.78778 0.20819 0.69511 0.0
H773 H 0.71371 0.16097 0.74338 0.0
H774 H 0.81867 0.23353 0.73084 0.0
H775 H 0.74395 0.18723 0.77925 0.0
H776 H 0.80252 0.23387 0.8437 0.0
H777 H 0.77988 0.20029 0.8089 0.0
H778 H 0.82902 0.27145 0.75768 0.0
H779 H 0.85257 0.30442 0.7928 0.0
C780 C 0.77829 0.20249 0.71355 0.0
C781 C 0.74832 0.1819 0.7163 0.0
C782 C 0.79593 0.21761 0.73416 0.0
C783 C 0.78413 0.21324 0.75837 0.0
C784 C 0.75441 0.19131 0.76124 0.0
C785 C 0.73686 0.17585 0.74057 0.0
C786 C 0.8094 0.24201 0.82497 0.0
C787 C 0.83005 0.27176 0.82117 0.0
C788 C 0.79586 0.22281 0.80483 0.0
C789 C 0.80189 0.23277 0.77999 0.0
C790 C 0.82375 0.26236 0.77625 0.0
C791 C 0.83762 0.28148 0.7965 0.0
H792 H 0.5546 0.09771 0.16453 0.0
H793 H 0.4659 0.04929 0.19167 0.0
H794 H 0.55914 0.05444 0.16678 0.0
H795 H 0.47092 1.00559 0.19542 0.0
H796 H 0.47757 0.92493 0.17522 0.0
H797 H 0.47274 0.96817 0.17573 0.0
H798 H 0.56586 0.02143 0.18886 0.0
H799 H 0.57082 0.97769 0.18679 0.0
C800 C 0.53604 0.07781 0.17143 0.0
C801 C 0.50981 0.07727 0.17799 0.0
C802 C 0.5388 0.05275 0.17295 0.0
C803 C 0.51563 0.02599 0.18151 0.0
C804 C 0.48932 0.02543 0.18833 0.0
C805 C 0.48636 0.05061 0.18636 0.0
C806 C 0.49716 0.94582 0.17836 0.0
C807 C 0.5247 0.94757 0.18094 0.0
C808 C 0.49428 0.97089 0.17884 0.0
C809 C 0.51877 0.99888 0.18233 0.0
C810 C 0.54635 1.00059 0.18555 0.0
C811 C 0.5493 0.97538 0.1846 0.0
H812 H 0.59695 0.55628 0.18026 0.0
H813 H 0.55117 0.4668 0.1545 0.0
H814 H 0.55006 0.55528 0.18381 0.0
H815 H 0.50515 0.46621 0.15667 0.0
H816 H 0.42004 0.46306 0.17473 0.0
H817 H 0.46675 0.46376 0.1785 0.0
H818 H 0.51296 0.55644 0.1624 0.0
H819 H 0.46696 0.55594 0.16008 0.0
C820 C 0.577 0.53645 0.1753 0.0
C821 C 0.57818 0.51168 0.16718 0.0
C822 C 0.54992 0.53583 0.17714 0.0
C823 C 0.52321 0.51058 0.17052 0.0
C824 C 0.52467 0.4859 0.16256 0.0
C825 C 0.55147 0.48638 0.1611 0.0
C826 C 0.4402 0.4836 0.17232 0.0
C827 C 0.43936 0.50935 0.16712 0.0
C828 C 0.46721 0.48407 0.17424 0.0
C829 C 0.49423 0.51021 0.17063 0.0
C830 C 0.49313 0.53592 0.16583 0.0
C831 C 0.46635 0.53552 0.16428 0.0
H832 H 0.92206 0.46064 0.18084 0.0
H833 H 0.97189 0.41571 0.18021 0.0
H834 H 0.9669 0.50741 0.1818 0.0
H835 H 0.01713 0.46279 0.18255 0.0
H836 H 0.09013 0.54717 0.15102 0.0
H837 H 0.04607 0.50132 0.15693 0.0
H838 H 1.00956 0.54455 0.20027 0.0
H839 H 0.05431 0.59178 0.19329 0.0
C840 C 0.94261 0.46061 0.18144 0.0
C841 C 0.94309 0.43404 0.18014 0.0
C842 C 0.96857 0.48774 0.18218 0.0
C843 C 0.99609 0.48942 0.18189 0.0
C844 C 0.99655 0.46275 0.18206 0.0
C845 C 0.97049 0.43553 0.181 0.0
C846 C 0.07297 0.54728 0.16203 0.0
C847 C 0.07619 0.57365 0.17172 0.0
C848 C 0.04746 0.52049 0.16565 0.0
C849 C 0.02392 0.51858 0.17941 0.0
C850 C 0.027 0.5449 0.18937 0.0
C851 C 0.05275 0.5721 0.18549 0.0
H852 H 0.9173 0.45569 0.36596 0.0
H853 H 0.966 0.54655 0.34429 0.0
H854 H 0.96083 0.4518 0.36318 0.0
H855 H 1.01003 0.54224 0.33987 0.0
H856 H 0.09071 0.53513 0.36002 0.0
H857 H 0.04707 0.53946 0.35938 0.0
H858 H 0.99522 0.44738 0.34166 0.0
H859 H 0.03919 0.44287 0.34398 0.0
C860 C 0.93727 0.47489 0.36004 0.0
C861 C 0.93779 0.50154 0.35534 0.0
C862 C 0.96255 0.47252 0.35823 0.0
C863 C 0.98957 0.49655 0.35117 0.0
C864 C 0.99003 0.52317 0.34584 0.0
C865 C 0.96461 0.5257 0.34812 0.0
C866 C 0.07002 0.5157 0.35589 0.0
C867 C 0.06868 0.48855 0.35211 0.0
C868 C 0.04473 0.51828 0.35531 0.0
C869 C 0.01699 0.49389 0.35047 0.0
C870 C 0.01578 0.46676 0.34606 0.0
C871 C 0.04114 0.46407 0.34717 0.0
H872 H 0.42507 0.96503 0.35446 0.0
H873 H 0.47326 0.92337 0.38021 0.0
H874 H 0.47154 0.0107 0.34844 0.0
H875 H 0.5186 0.96837 0.3756 0.0
H876 H 0.60232 0.04851 0.35536 0.0
H877 H 0.55554 1.00294 0.35198 0.0
H878 H 0.50967 0.04996 0.36835 0.0
H879 H 0.55581 0.09513 0.37022 0.0
C880 C 0.44539 0.96548 0.35881 0.0
C881 C 0.44498 0.94019 0.36783 0.0
C882 C 0.47223 0.99182 0.35555 0.0
C883 C 0.49942 0.99372 0.36149 0.0
C884 C 0.49869 0.96819 0.37016 0.0
C885 C 0.4722 0.94207 0.37309 0.0
C886 C 0.58223 0.04914 0.35784 0.0
C887 C 0.58322 0.07575 0.36317 0.0
C888 C 0.55518 0.02285 0.35617 0.0
C889 C 0.52825 0.02221 0.36022 0.0
C890 C 0.52944 0.04908 0.36475 0.0
C891 C 0.55629 0.07526 0.36603 0.0
H892 H 0.55187 0.46466 0.38025 0.0
H893 H 0.46172 0.41872 0.35594 0.0
H894 H 0.55258 0.51071 0.37763 0.0
H895 H 0.4628 0.46558 0.35187 0.0
H896 H 0.46282 0.54922 0.37397 0.0
H897 H 0.46219 0.50318 0.37243 0.0
H898 H 0.55474 0.54888 0.3557 0.0
H899 H 0.55558 0.59567 0.35873 0.0
C900 C 0.53216 0.46433 0.37386 0.0
C901 C 0.50665 0.43757 0.36832 0.0
C902 C 0.53269 0.49115 0.37214 0.0
C903 C 0.50786 0.49257 0.36443 0.0
C904 C 0.48238 0.46579 0.35835 0.0
C905 C 0.48172 0.4387 0.36048 0.0
C906 C 0.48318 0.5497 0.3698 0.0
C907 C 0.50936 0.5766 0.36655 0.0
C908 C 0.48271 0.52288 0.3687 0.0
C909 C 0.50833 0.52161 0.36395 0.0
C910 C 0.53449 0.54853 0.35995 0.0
C911 C 0.53503 0.57559 0.36144 0.0
H912 H 0.46708 0.04909 0.85208 0.0
H913 H 0.55187 0.08939 0.88775 0.0
H914 H 0.46899 1.00369 0.84747 0.0
H915 H 0.55323 0.04451 0.88435 0.0
H916 H 0.56148 0.9665 0.86346 0.0
H917 H 0.5599 0.01207 0.86081 0.0
H918 H 0.4656 0.96317 0.86717 0.0
H919 H 0.46715 0.91813 0.86841 0.0
C920 C 0.48601 0.04831 0.85904 0.0
C921 C 0.50932 0.07321 0.87011 0.0
C922 C 0.48716 0.02215 0.85653 0.0
C923 C 0.51146 0.02001 0.86536 0.0
C924 C 0.53449 0.045 0.87658 0.0
C925 C 0.53352 0.07099 0.87875 0.0
C926 C 0.54042 0.96548 0.86391 0.0
C927 C 0.51456 0.93836 0.86624 0.0
C928 C 0.53942 0.99175 0.86267 0.0
C929 C 0.51255 0.99181 0.86408 0.0
C930 C 0.48674 0.96452 0.86567 0.0
C931 C 0.48772 0.9384 0.86658 0.0
H932 H 0.56123 0.47763 0.87136 0.0
H933 H 0.60349 0.56702 0.84558 0.0
H934 H 0.51401 0.47437 0.86826 0.0
H935 H 0.55541 0.56336 0.84108 0.0
H936 H 0.46915 0.55878 0.86222 0.0
H937 H 0.5165 0.56222 0.86082 0.0
H938 H 0.47503 0.46946 0.84567 0.0
H939 H 0.4269 0.46578 0.84863 0.0
C940 C 0.56049 0.49664 0.8646 0.0
C941 C 0.58657 0.52269 0.85872 0.0
C942 C 0.533 0.49461 0.86257 0.0
C943 C 0.53015 0.51841 0.85422 0.0
C944 C 0.55628 0.5445 0.84799 0.0
C945 C 0.58406 0.54668 0.85042 0.0
C946 C 0.46985 0.53895 0.8584 0.0
C947 C 0.44371 0.51185 0.85569 0.0
C948 C 0.49745 0.54105 0.85739 0.0
C949 C 0.5003 0.51622 0.85325 0.0
C950 C 0.47416 0.48918 0.84951 0.0
C951 C 0.44632 0.48699 0.85092 0.0
H952 H 0.9674 0.41954 0.85341 0.0
H953 H 0.92157 0.4654 0.87363 0.0
H954 H 0.01285 0.4665 0.84984 0.0
H955 H 0.96652 0.51152 0.87158 0.0
H956 H 0.04879 0.59653 0.85456 0.0
H957 H 1.0033 0.54966 0.85059 0.0
H958 H 0.04969 0.50424 0.87128 0.0
H959 H 0.09468 0.55032 0.87375 0.0
C960 C 0.96694 0.43952 0.85711 0.0
C961 C 0.94054 0.43832 0.86374 0.0
C962 C 0.99317 0.46666 0.8553 0.0
C963 C 0.99392 0.49344 0.86051 0.0
C964 C 0.9673 0.49196 0.86684 0.0
C965 C 0.94123 0.46508 0.86823 0.0
C966 C 0.04924 0.57649 0.85798 0.0
C967 C 0.07568 0.57757 0.86441 0.0
C968 C 0.023 0.54939 0.85592 0.0
C969 C 0.02226 0.52252 0.86068 0.0
C970 C 0.0489 0.52388 0.86687 0.0
C971 C 0.07499 0.55073 0.86851 0.0
H972 H 0.09126 0.54474 0.64801 0.0
H973 H 0.04947 0.45864 0.68098 0.0
H974 H 0.04656 0.54658 0.65155 0.0
H975 H 1.00438 0.46101 0.68586 0.0
H976 H 0.91942 0.46042 0.66631 0.0
H977 H 0.96432 0.45863 0.66673 0.0
H978 H 0.0137 0.55273 0.67469 0.0
H979 H 0.96818 0.55456 0.67277 0.0
C980 C 0.07255 0.5262 0.65644 0.0
C981 C 0.07428 0.50148 0.66424 0.0
C982 C 0.04668 0.52742 0.6587 0.0
C983 C 0.02134 0.50415 0.66922 0.0
C984 C 0.02305 0.47938 0.67729 0.0
C985 C 0.04905 0.47796 0.67464 0.0
C986 C 0.93976 0.4809 0.66833 0.0
C987 C 0.93984 0.50775 0.6694 0.0
C988 C 0.96583 0.47978 0.66877 0.0
C989 C 0.99323 0.50545 0.67063 0.0
C990 C 0.99331 0.53234 0.67263 0.0
C991 C 0.96707 0.53349 0.6718 0.0
H992 H 0.55515 0.08732 0.66226 0.0
H993 H 0.60052 0.04323 0.68894 0.0
H994 H 0.5089 0.04261 0.66546 0.0
H995 H 0.55344 0.99814 0.69372 0.0
H996 H 0.46925 0.9146 0.67309 0.0
H997 H 0.51558 0.95945 0.67428 0.0
H998 H 0.47051 0.00799 0.68752 0.0
H999 H 0.42348 0.9626 0.68469 0.0
C1000 C 0.55529 0.06811 0.66932 0.0
C1001 C 0.58193 0.06918 0.67536 0.0
C1002 C 0.52836 0.0422 0.67138 0.0
C1003 C 0.5267 0.01617 0.68 0.0
C1004 C 0.55339 0.01732 0.68654 0.0
C1005 C 0.5806 0.04334 0.684 0.0
C1006 C 0.46898 0.93475 0.67644 0.0
C1007 C 0.4422 0.93467 0.67869 0.0
C1008 C 0.49597 0.96079 0.67733 0.0
C1009 C 0.4975 0.98798 0.68092 0.0
C1010 C 0.47068 0.98784 0.6841 0.0
C1011 C 0.44347 0.96164 0.68276 0.0
H1012 H 0.55859 0.46765 0.6537 0.0
H1013 H 0.47537 0.42238 0.69152 0.0
H1014 H 0.56018 0.51357 0.65956 0.0
H1015 H 0.47763 0.46955 0.69862 0.0
H1016 H 0.47487 0.55384 0.68027 0.0
H1017 H 0.47331 0.50719 0.68061 0.0
H1018 H 0.56783 0.55193 0.6843 0.0
H1019 H 0.56935 0.59904 0.68249 0.0
C1020 C 0.54064 0.4674 0.66373 0.0
C1021 C 0.51675 0.4408 0.67211 0.0
C1022 C 0.54179 0.49423 0.66735 0.0
C1023 C 0.51927 0.49597 0.67983 0.0
C1024 C 0.49539 0.46942 0.68863 0.0
C1025 C 0.49408 0.44221 0.68472 0.0
C1026 C 0.49548 0.55395 0.68136 0.0
C1027 C 0.52234 0.58061 0.68111 0.0
C1028 C 0.4945 0.52683 0.68174 0.0
C1029 C 0.52036 0.52517 0.6822 0.0
C1030 C 0.54729 0.5519 0.68324 0.0
C1031 C 0.54827 0.57916 0.68248 0.0
H1032 H 0.54319 0.19592 0.24948 0.0
H1033 H 0.614 0.26977 0.21245 0.0
H1034 H 0.56943 0.21111 0.28861 0.0
H1035 H 0.64102 0.28549 0.25213 0.0
H1036 H 0.68601 0.24759 0.30843 0.0
H1037 H 0.66409 0.26117 0.27465 0.0
H1038 H 0.59172 0.24525 0.32248 0.0
H1039 H 0.61298 0.23018 0.35577 0.0
C1040 C 0.56417 0.21597 0.25004 0.0
C1041 C 0.57691 0.23157 0.22823 0.0
C1042 C 0.57914 0.22496 0.2725 0.0
C1043 C 0.60741 0.24957 0.27351 0.0
C1044 C 0.61931 0.26643 0.25186 0.0
C1045 C 0.60397 0.25752 0.22927 0.0
C1046 C 0.66595 0.24802 0.31193 0.0
C1047 C 0.65055 0.23692 0.33422 0.0
C1048 C 0.65349 0.25605 0.29266 0.0
C1049 C 0.62571 0.25338 0.29572 0.0
C1050 C 0.61275 0.24671 0.31942 0.0
C1051 C 0.62483 0.23802 0.33842 0.0
H1052 H 0.39493 0.60361 0.33366 0.0
H1053 H 0.44639 0.69374 0.31024 0.0
H1054 H 0.36778 0.59161 0.29475 0.0
H1055 H 0.41911 0.6816 0.27099 0.0
H1056 H 0.41306 0.62356 0.1995 0.0
H1057 H 0.42551 0.65024 0.23861 0.0
H1058 H 0.33586 0.5983 0.26303 0.0
H1059 H 0.32325 0.57149 0.22362 0.0
C1060 C 0.39988 0.62101 0.32044 0.0
C1061 C 0.42321 0.6494 0.32465 0.0
C1062 C 0.38407 0.61422 0.29827 0.0
C1063 C 0.39157 0.63564 0.27976 0.0
C1064 C 0.41306 0.66468 0.28494 0.0
C1065 C 0.42865 0.67158 0.30735 0.0
C1066 C 0.39582 0.61837 0.21292 0.0
C1067 C 0.3674 0.59498 0.20884 0.0
C1068 C 0.40286 0.63391 0.23521 0.0
C1069 C 0.38169 0.62609 0.25394 0.0
C1070 C 0.35259 0.60459 0.24891 0.0
C1071 C 0.34543 0.58925 0.2264 0.0
H1072 H 0.79548 0.32893 0.23949 0.0
H1073 H 0.76234 0.37374 0.19432 0.0
H1074 H 0.78016 0.34309 0.27673 0.0
H1075 H 0.74398 0.3859 0.23154 0.0
H1076 H 0.77093 0.38147 0.34262 0.0
H1077 H 0.75408 0.3487 0.30681 0.0
H1078 H 0.76665 0.42125 0.26007 0.0
H1079 H 0.78019 0.45245 0.29631 0.0
C1080 C 0.78359 0.34076 0.23765 0.0
C1081 C 0.78042 0.35077 0.2144 0.0
C1082 C 0.77443 0.34876 0.25905 0.0
C1083 C 0.76139 0.36653 0.2575 0.0
C1084 C 0.75501 0.37331 0.23369 0.0
C1085 C 0.76515 0.36612 0.21231 0.0
C1086 C 0.76891 0.38982 0.32472 0.0
C1087 C 0.77728 0.41939 0.32188 0.0
C1088 C 0.7596 0.37124 0.3041 0.0
C1089 C 0.76023 0.38241 0.28009 0.0
C1090 C 0.76576 0.41144 0.27798 0.0
C1091 C 0.77384 0.42962 0.29879 0.0
H1092 H 0.44349 0.75467 0.22554 0.0
H1093 H 0.50109 0.84077 0.2551 0.0
H1094 H 0.41962 0.73901 0.26644 0.0
H1095 H 0.478 0.82552 0.29553 0.0
H1096 H 0.3606 0.76615 0.31744 0.0
H1097 H 0.38762 0.75697 0.28535 0.0
H1098 H 0.46424 0.79382 0.33268 0.0
H1099 H 0.43744 0.80375 0.36454 0.0
C1100 C 0.45153 0.76985 0.24104 0.0
C1101 C 0.47357 0.79896 0.23744 0.0
C1102 C 0.43801 0.76095 0.26431 0.0
C1103 C 0.44688 0.78104 0.28414 0.0
C1104 C 0.47085 0.80936 0.28081 0.0
C1105 C 0.48387 0.81828 0.2576 0.0
C1106 C 0.38288 0.77133 0.32134 0.0
C1107 C 0.39734 0.78669 0.34298 0.0
C1108 C 0.3983 0.7658 0.30304 0.0
C1109 C 0.42826 0.77542 0.30632 0.0
C1110 C 0.44133 0.78678 0.32952 0.0
C1111 C 0.42606 0.79263 0.34765 0.0
H1112 H 0.62149 0.41242 0.33493 0.0
H1113 H 0.56848 0.32294 0.31014 0.0
H1114 H 0.64744 0.42502 0.29545 0.0
H1115 H 0.59441 0.33575 0.2704 0.0
H1116 H 0.60046 0.39717 0.20079 0.0
H1117 H 0.58768 0.36963 0.23954 0.0
H1118 H 0.67828 0.4167 0.26272 0.0
H1119 H 0.69124 0.44423 0.22377 0.0
C1120 C 0.61596 0.39529 0.3213 0.0
C1121 C 0.59258 0.36691 0.32533 0.0
C1122 C 0.63102 0.40242 0.2988 0.0
C1123 C 0.62268 0.38136 0.27987 0.0
C1124 C 0.60111 0.35233 0.28473 0.0
C1125 C 0.58631 0.34508 0.30744 0.0
C1126 C 0.61778 0.40106 0.21382 0.0
C1127 C 0.64669 0.42329 0.20956 0.0
C1128 C 0.61053 0.38505 0.23588 0.0
C1129 C 0.63202 0.39129 0.25413 0.0
C1130 C 0.66136 0.41163 0.24891 0.0
C1131 C 0.6687 0.42738 0.22666 0.0
H1132 H 0.17191 0.50827 0.27478 0.0
H1133 H 0.25978 0.56097 0.30301 0.0
H1134 H 0.18706 0.5321 0.23461 0.0
H1135 H 0.27533 0.58561 0.26244 0.0
H1136 H 0.25004 0.65047 0.21811 0.0
H1137 H 0.25897 0.62033 0.24715 0.0
H1138 H 0.21724 0.54712 0.19651 0.0
H1139 H 0.2077 0.57712 0.16759 0.0
C1140 C 0.19474 0.52444 0.27199 0.0
C1141 C 0.21462 0.53334 0.29181 0.0
C1142 C 0.20359 0.53789 0.24892 0.0
C1143 C 0.23238 0.56096 0.24543 0.0
C1144 C 0.25299 0.56799 0.2647 0.0
C1145 C 0.24416 0.554 0.28781 0.0
C1146 C 0.24367 0.62825 0.21277 0.0
C1147 C 0.22707 0.61574 0.19113 0.0
C1148 C 0.2491 0.61103 0.22931 0.0
C1149 C 0.23808 0.58115 0.22434 0.0
C1150 C 0.2254 0.56994 0.20099 0.0
C1151 C 0.21975 0.58707 0.18456 0.0
H1152 H 0.44553 0.75327 0.81636 0.0
H1153 H 0.39865 0.79745 0.83886 0.0
H1154 H 0.41515 0.73547 0.77895 0.0
H1155 H 0.36852 0.77977 0.80168 0.0
H1156 H 0.32217 0.75631 0.73238 0.0
H1157 H 0.33415 0.74084 0.77159 0.0
H1158 H 0.42225 0.77175 0.74526 0.0
H1159 H 0.41039 0.78726 0.70648 0.0
C1160 C 0.42816 0.75841 0.81373 0.0
C1161 C 0.42504 0.77754 0.83005 0.0
C1162 C 0.41073 0.74811 0.79239 0.0
C1163 C 0.3898 0.75659 0.78726 0.0
C1164 C 0.38438 0.77275 0.80515 0.0
C1165 C 0.40195 0.78327 0.8263 0.0
C1166 C 0.34374 0.75877 0.7347 0.0
C1167 C 0.36566 0.77367 0.71682 0.0
C1168 C 0.35055 0.74989 0.75707 0.0
C1169 C 0.37921 0.75548 0.76157 0.0
C1170 C 0.39994 0.76702 0.74232 0.0
C1171 C 0.39328 0.77626 0.72022 0.0
H1172 H 0.69312 0.43243 0.81603 0.0
H1173 H 0.64599 0.47531 0.79053 0.0
H1174 H 0.68706 0.40993 0.77452 0.0
H1175 H 0.64088 0.45403 0.74959 0.0
H1176 H 0.64075 0.42945 0.67739 0.0
H1177 H 0.67388 0.45335 0.71223 0.0
H1178 H 0.63353 0.37191 0.75286 0.0
H1179 H 0.60054 0.34774 0.71793 0.0
C1180 C 0.68188 0.43728 0.80147 0.0
C1181 C 0.66941 0.45495 0.80638 0.0
C1182 C 0.67867 0.4247 0.77786 0.0
C1183 C 0.66398 0.43073 0.75892 0.0
C1184 C 0.65284 0.44952 0.76375 0.0
C1185 C 0.65529 0.46128 0.78727 0.0
C1186 C 0.63971 0.41637 0.69335 0.0
C1187 C 0.61732 0.3871 0.6955 0.0
C1188 C 0.65891 0.42997 0.71312 0.0
C1189 C 0.65563 0.41453 0.73529 0.0
C1190 C 0.63639 0.38422 0.7359 0.0
C1191 C 0.61727 0.37049 0.71601 0.0
H1192 H 0.21779 0.60382 0.83253 0.0
H1193 H 0.25084 0.69259 0.80697 0.0
H1194 H 0.23111 0.59129 0.79295 0.0
H1195 H 0.26388 0.67985 0.76708 0.0
H1196 H 0.25538 0.572 0.72137 0.0
H1197 H 0.27012 0.60053 0.75975 0.0
H1198 H 0.223 0.64437 0.73691 0.0
H1199 H 0.20804 0.61583 0.69865 0.0
C1200 C 0.22868 0.62083 0.81869 0.0
C1201 C 0.23275 0.64895 0.82254 0.0
C1202 C 0.23659 0.61377 0.79613 0.0
C1203 C 0.24826 0.6346 0.77696 0.0
C1204 C 0.25481 0.66345 0.78161 0.0
C1205 C 0.24734 0.67067 0.8044 0.0
C1206 C 0.24886 0.58834 0.72418 0.0
C1207 C 0.2299 0.59118 0.70734 0.0
C1208 C 0.25742 0.60469 0.74611 0.0
C1209 C 0.24748 0.62438 0.7513 0.0
C1210 C 0.23113 0.62945 0.73325 0.0
C1211 C 0.22227 0.61285 0.71149 0.0
H1212 H 0.62562 0.20317 0.83828 0.0
H1213 H 0.58812 0.25671 0.81656 0.0
H1214 H 0.65482 0.21747 0.80046 0.0
H1215 H 0.61737 0.27086 0.77867 0.0
H1216 H 0.6156 0.21757 0.70497 0.0
H1217 H 0.60512 0.23205 0.7449 0.0
H1218 H 0.69227 0.2568 0.77063 0.0
H1219 H 0.70296 0.24264 0.73027 0.0
C1220 C 0.62421 0.21863 0.82579 0.0
C1221 C 0.60394 0.22813 0.83001 0.0
C1222 C 0.64123 0.2271 0.80428 0.0
C1223 C 0.63803 0.24499 0.78658 0.0
C1224 C 0.62003 0.25689 0.79202 0.0
C1225 C 0.60321 0.24866 0.81366 0.0
C1226 C 0.63283 0.22705 0.71885 0.0
C1227 C 0.65985 0.22858 0.71481 0.0
C1228 C 0.62697 0.23561 0.74162 0.0
C1229 C 0.64787 0.24532 0.76085 0.0
C1230 C 0.67584 0.24932 0.75605 0.0
C1231 C 0.68191 0.24126 0.73301 0.0
H1232 H 0.4076 0.66032 0.70177 0.0
H1233 H 0.48166 0.67172 0.74503 0.0
H1234 H 0.37859 0.65002 0.74006 0.0
H1235 H 0.45333 0.66111 0.78284 0.0
H1236 H 0.33723 0.57245 0.79941 0.0
H1237 H 0.35847 0.60652 0.76493 0.0
H1238 H 0.42625 0.66862 0.81392 0.0
H1239 H 0.40595 0.63344 0.84795 0.0
C1240 C 0.41778 0.66141 0.7196 0.0
C1241 C 0.44649 0.66637 0.72081 0.0
C1242 C 0.40129 0.6555 0.74143 0.0
C1243 C 0.41347 0.65448 0.76455 0.0
C1244 C 0.44317 0.66208 0.76558 0.0
C1245 C 0.45943 0.66783 0.74389 0.0
C1246 C 0.35608 0.5938 0.80293 0.0
C1247 C 0.37063 0.60011 0.82592 0.0
C1248 C 0.36818 0.61351 0.78321 0.0
C1249 C 0.39471 0.63992 0.78647 0.0
C1250 C 0.4064 0.648 0.81063 0.0
C1251 C 0.39481 0.62796 0.8301 0.0
H1252 H 0.79495 0.39423 0.70159 0.0
H1253 H 0.76175 0.45014 0.7266 0.0
H1254 H 0.77965 0.36715 0.74039 0.0
H1255 H 0.74643 0.42293 0.76584 0.0
H1256 H 0.80004 0.41406 0.83524 0.0
H1257 H 0.78423 0.42718 0.79724 0.0
H1258 H 0.74228 0.33714 0.77286 0.0
H1259 H 0.7582 0.3239 0.81111 0.0
C1260 C 0.78359 0.40016 0.71516 0.0
C1261 C 0.78019 0.42468 0.71144 0.0
C1262 C 0.77446 0.38441 0.73728 0.0
C1263 C 0.76215 0.39317 0.75625 0.0
C1264 C 0.75606 0.41589 0.75154 0.0
C1265 C 0.76484 0.43144 0.72914 0.0
C1266 C 0.78673 0.39689 0.82212 0.0
C1267 C 0.78108 0.36815 0.82576 0.0
C1268 C 0.7773 0.40434 0.80047 0.0
C1269 C 0.76236 0.38322 0.78196 0.0
C1270 C 0.75399 0.35385 0.78679 0.0
C1271 C 0.76317 0.34632 0.80864 0.0
H1272 H 0.51034 0.27976 0.13284 0.0
H1273 H 0.55319 0.26112 0.07294 0.0
H1274 H 0.52844 0.32864 0.11699 0.0
H1275 H 0.57111 0.31054 0.05643 0.0
H1276 H 0.63928 0.40976 0.07804 0.0
H1277 H 0.60908 0.35718 0.07181 0.0
H1278 H 0.53153 0.36301 0.08717 0.0
H1279 H 0.56215 0.41533 0.09487 0.0
C1280 C 0.52303 0.28591 0.11582 0.0
C1281 C 0.53081 0.2668 0.10443 0.0
C1282 C 0.53319 0.31397 0.10647 0.0
C1283 C 0.55149 0.32376 0.08543 0.0
C1284 C 0.55734 0.30381 0.07282 0.0
C1285 C 0.54696 0.27548 0.08219 0.0
C1286 C 0.61568 0.39995 0.07894 0.0
C1287 C 0.60298 0.41631 0.08734 0.0
C1288 C 0.59827 0.36974 0.07537 0.0
C1289 C 0.5679 0.35567 0.07983 0.0
C1290 C 0.55494 0.37302 0.0844 0.0
C1291 C 0.57239 0.40302 0.08857 0.0
H1292 H 0.15262 0.56598 0.08046 0.0
H1293 H 0.23573 0.64483 0.06993 0.0
H1294 H 0.17607 0.53664 0.07388 0.0
H1295 H 0.25915 0.61548 0.06357 0.0
H1296 H 0.24013 0.52154 0.12667 0.0
H1297 H 0.20904 0.5392 0.10944 0.0
H1298 H 0.26615 0.57411 0.04577 0.0
H1299 H 0.29738 0.55602 0.06302 0.0
C1300 C 0.17561 0.57701 0.07551 0.0
C1301 C 0.19257 0.60769 0.07658 0.0
C1302 C 0.18903 0.56019 0.07184 0.0
C1303 C 0.21955 0.57385 0.06914 0.0
C1304 C 0.2356 0.60436 0.06584 0.0
C1305 C 0.22213 0.62123 0.06946 0.0
C1306 C 0.24573 0.53238 0.10873 0.0
C1307 C 0.27132 0.53767 0.09634 0.0
C1308 C 0.22773 0.54222 0.09868 0.0
C1309 C 0.23511 0.55793 0.07616 0.0
C1310 C 0.25993 0.56197 0.06309 0.0
C1311 C 0.27774 0.55162 0.07299 0.0
H1312 H 0.75883 0.22892 0.1119 0.0
H1313 H 0.74957 0.30011 0.08252 0.0
H1314 H 0.70755 0.19481 0.10236 0.0
H1315 H 0.69782 0.26673 0.07473 0.0
H1316 H 0.60261 0.20829 0.07516 0.0
H1317 H 0.65288 0.22619 0.06085 0.0
H1318 H 0.67079 0.19232 0.12805 0.0
H1319 H 0.62118 0.17403 0.1416 0.0
C1320 C 0.74594 0.23701 0.10263 0.0
C1321 C 0.75773 0.267 0.09825 0.0
C1322 C 0.71654 0.21761 0.09735 0.0
C1323 C 0.69821 0.22819 0.08879 0.0
C1324 C 0.71111 0.2577 0.08142 0.0
C1325 C 0.7408 0.27696 0.08596 0.0
C1326 C 0.61721 0.20403 0.08641 0.0
C1327 C 0.60826 0.19041 0.10976 0.0
C1328 C 0.646 0.21435 0.07828 0.0
C1329 C 0.66612 0.21103 0.09335 0.0
C1330 C 0.65609 0.19509 0.11565 0.0
C1331 C 0.62759 0.18492 0.12371 0.0
H1332 H 0.38663 0.61439 0.07702 0.0
H1333 H 0.46151 0.6061 0.09717 0.0
H1334 H 0.41804 0.66708 0.07261 0.0
H1335 H 0.49347 0.65854 0.09112 0.0
H1336 H 0.51608 0.74117 0.13716 0.0
H1337 H 0.49627 0.69231 0.12096 0.0
H1338 H 0.45711 0.71389 0.0595 0.0
H1339 H 0.47663 0.76336 0.07646 0.0
C1340 C 0.41009 0.62368 0.079 0.0
C1341 C 0.42173 0.60646 0.08774 0.0
C1342 C 0.42819 0.65396 0.07649 0.0
C1343 C 0.45821 0.66724 0.08238 0.0
C1344 C 0.4703 0.64915 0.08731 0.0
C1345 C 0.45211 0.61907 0.09047 0.0
C1346 C 0.50365 0.73577 0.11996 0.0
C1347 C 0.49746 0.756 0.10839 0.0
C1348 C 0.49255 0.70769 0.11038 0.0
C1349 C 0.47495 0.69894 0.08884 0.0
C1350 C 0.47034 0.7198 0.07625 0.0
C1351 C 0.4816 0.74815 0.0859 0.0
H1352 H 0.79723 0.3895 0.08019 0.0
H1353 H 0.87234 0.46024 0.11623 0.0
H1354 H 0.77732 0.42177 0.07226 0.0
H1355 H 0.85365 0.49328 0.10685 0.0
H1356 H 0.73776 0.47818 0.06985 0.0
H1357 H 0.77308 0.46277 0.05823 0.0
H1358 H 0.81544 0.49224 0.1299 0.0
H1359 H 0.78111 0.50803 0.14092 0.0
C1360 C 0.8102 0.41241 0.08519 0.0
C1361 C 0.83592 0.42238 0.09923 0.0
C1362 C 0.79887 0.43102 0.08058 0.0
C1363 C 0.81343 0.45996 0.08966 0.0
C1364 C 0.84138 0.47087 0.10038 0.0
C1365 C 0.85225 0.45207 0.10559 0.0
C1366 C 0.75527 0.48215 0.08269 0.0
C1367 C 0.75639 0.49374 0.10648 0.0
C1368 C 0.77538 0.47319 0.07611 0.0
C1369 C 0.79697 0.4759 0.09318 0.0
C1370 C 0.79947 0.49001 0.11604 0.0
C1371 C 0.77946 0.49879 0.12257 0.0
H1372 H 0.42112 0.80212 0.09189 0.0
H1373 H 0.42318 0.86733 0.14167 0.0
H1374 H 0.3688 0.78289 0.08496 0.0
H1375 H 0.37134 0.84934 0.13378 0.0
H1376 H 0.28446 0.76827 0.15946 0.0
H1377 H 0.33497 0.80455 0.15205 0.0
H1378 H 0.32382 0.7834 0.07355 0.0
H1379 H 0.27259 0.74629 0.08126 0.0
C1380 C 0.41059 0.81314 0.10039 0.0
C1381 C 0.42569 0.83563 0.11772 0.0
C1382 C 0.38067 0.80228 0.09634 0.0
C1383 C 0.36578 0.81414 0.10936 0.0
C1384 C 0.38205 0.83926 0.12403 0.0
C1385 C 0.41167 0.8496 0.12851 0.0
C1386 C 0.29257 0.77178 0.14052 0.0
C1387 C 0.27486 0.75419 0.12101 0.0
C1388 C 0.32151 0.79289 0.13616 0.0
C1389 C 0.33353 0.79684 0.11217 0.0
C1390 C 0.31519 0.78068 0.09225 0.0
C1391 C 0.28592 0.75959 0.09663 0.0
H1392 H 0.75697 0.4724 0.46483 0.0
H1393 H 0.73558 0.50404 0.39825 0.0
H1394 H 0.70799 0.45676 0.4813 0.0
H1395 H 0.68715 0.48828 0.41423 0.0
H1396 H 0.60828 0.38456 0.46276 0.0
H1397 H 0.66086 0.41594 0.46847 0.0
H1398 H 0.65407 0.49036 0.44332 0.0
H1399 H 0.60174 0.45846 0.43637 0.0
C1400 C 0.7421 0.47669 0.45401 0.0
C1401 C 0.74987 0.48896 0.43005 0.0
C1402 C 0.71405 0.46765 0.4634 0.0
C1403 C 0.69351 0.47108 0.44909 0.0
C1404 C 0.70236 0.48558 0.42604 0.0
C1405 C 0.73013 0.49434 0.41664 0.0
C1406 C 0.61785 0.40788 0.45966 0.0
C1407 C 0.60128 0.4191 0.44868 0.0
C1408 C 0.64806 0.42595 0.46292 0.0
C1409 C 0.66183 0.45548 0.45546 0.0
C1410 C 0.64424 0.4675 0.44846 0.0
C1411 C 0.61424 0.44934 0.44469 0.0
H1412 H 0.19504 0.58356 0.44762 0.0
H1413 H 0.18246 0.60643 0.37308 0.0
H1414 H 0.21508 0.63461 0.46045 0.0
H1415 H 0.20297 0.65684 0.38547 0.0
H1416 H 0.23812 0.74547 0.40518 0.0
H1417 H 0.20094 0.69388 0.40846 0.0
H1418 H 0.26115 0.67791 0.45162 0.0
H1419 H 0.2974 0.72989 0.44954 0.0
C1420 C 0.19609 0.59934 0.43411 0.0
C1421 C 0.18769 0.59112 0.40923 0.0
C1422 C 0.20763 0.62855 0.44143 0.0
C1423 C 0.21076 0.64989 0.42401 0.0
C1424 C 0.2005 0.64107 0.39958 0.0
C1425 C 0.18908 0.6121 0.39232 0.0
C1426 C 0.24273 0.73101 0.41627 0.0
C1427 C 0.27039 0.74122 0.427 0.0
C1428 C 0.22164 0.7015 0.418 0.0
C1429 C 0.22838 0.68161 0.42965 0.0
C1430 C 0.25513 0.69256 0.44256 0.0
C1431 C 0.27599 0.72229 0.44132 0.0
H1432 H 0.51958 0.23842 0.40218 0.0
H1433 H 0.55212 0.29039 0.46908 0.0
H1434 H 0.53723 0.20649 0.41684 0.0
H1435 H 0.56987 0.25794 0.48405 0.0
H1436 H 0.56562 0.14915 0.43982 0.0
H1437 H 0.53478 0.17089 0.44687 0.0
H1438 H 0.61102 0.2518 0.46903 0.0
H1439 H 0.64157 0.22953 0.46292 0.0
C1440 C 0.52999 0.24265 0.42032 0.0
C1441 C 0.5348 0.26713 0.4343 0.0
C1442 C 0.53983 0.22409 0.42892 0.0
C1443 C 0.55495 0.2296 0.4517 0.0
C1444 C 0.55836 0.25318 0.46641 0.0
C1445 C 0.54815 0.27167 0.45786 0.0
C1446 C 0.57547 0.17105 0.44749 0.0
C1447 C 0.60595 0.18788 0.45043 0.0
C1448 C 0.55789 0.18361 0.45132 0.0
C1449 C 0.57063 0.21338 0.45759 0.0
C1450 C 0.60052 0.22886 0.46406 0.0
C1451 C 0.61808 0.21608 0.46062 0.0
H1452 H 0.25399 0.53821 0.45413 0.0
H1453 H 0.27653 0.49868 0.39399 0.0
H1454 H 0.30369 0.55859 0.47096 0.0
H1455 H 0.32565 0.51936 0.41008 0.0
H1456 H 0.41206 0.55447 0.43507 0.0
H1457 H 0.35946 0.52249 0.44022 0.0
H1458 H 0.35048 0.59775 0.45785 0.0
H1459 H 0.40332 0.6292 0.45428 0.0
C1460 C 0.26933 0.53343 0.44477 0.0
C1461 C 0.26145 0.51721 0.42251 0.0
C1462 C 0.29783 0.54519 0.45435 0.0
C1463 C 0.31884 0.54076 0.4419 0.0
C1464 C 0.31015 0.52294 0.42054 0.0
C1465 C 0.28191 0.51133 0.41103 0.0
C1466 C 0.39894 0.56383 0.44139 0.0
C1467 C 0.41152 0.59418 0.44417 0.0
C1468 C 0.36876 0.54563 0.44401 0.0
C1469 C 0.35055 0.55766 0.44849 0.0
C1470 C 0.36371 0.58765 0.45433 0.0
C1471 C 0.39406 0.60576 0.45233 0.0
H1472 H 0.87264 0.41716 0.42827 0.0
H1473 H 0.79254 0.40858 0.45754 0.0
H1474 H 0.85578 0.36604 0.43819 0.0
H1475 H 0.77479 0.35705 0.46625 0.0
H1476 H 0.73933 0.26216 0.4678 0.0
H1477 H 0.77257 0.31245 0.48142 0.0
H1478 H 0.81965 0.32934 0.41196 0.0
H1479 H 0.78706 0.27962 0.39878 0.0
C1480 C 0.8519 0.40455 0.43779 0.0
C1481 C 0.83361 0.41643 0.44182 0.0
C1482 C 0.84213 0.37524 0.4433 0.0
C1483 C 0.81349 0.35718 0.45211 0.0
C1484 C 0.79691 0.37024 0.45938 0.0
C1485 C 0.80703 0.39981 0.45438 0.0
C1486 C 0.75744 0.27645 0.45589 0.0
C1487 C 0.76033 0.26723 0.43203 0.0
C1488 C 0.77637 0.30525 0.46364 0.0
C1489 C 0.79862 0.32508 0.44773 0.0
C1490 C 0.80305 0.31476 0.42491 0.0
C1491 C 0.7841 0.28623 0.41715 0.0
H1492 H 0.46924 0.72164 0.47232 0.0
H1493 H 0.49902 0.77617 0.40668 0.0
H1494 H 0.45461 0.7549 0.49095 0.0
H1495 H 0.48465 0.80911 0.42512 0.0
H1496 H 0.38376 0.78645 0.47239 0.0
H1497 H 0.41318 0.76294 0.47768 0.0
H1498 H 0.49099 0.84399 0.45895 0.0
H1499 H 0.46138 0.86732 0.45307 0.0
C1500 C 0.47329 0.74106 0.46213 0.0
C1501 C 0.48488 0.74613 0.43788 0.0
C1502 C 0.46496 0.76006 0.47282 0.0
C1503 C 0.46859 0.78469 0.4596 0.0
C1504 C 0.48201 0.79065 0.43605 0.0
C1505 C 0.48991 0.77154 0.42528 0.0
C1506 C 0.40734 0.79973 0.47085 0.0
C1507 C 0.42022 0.82839 0.46149 0.0
C1508 C 0.42427 0.7862 0.47382 0.0
C1509 C 0.4542 0.80138 0.4677 0.0
C1510 C 0.4678 0.83159 0.46307 0.0
C1511 C 0.45088 0.845 0.45988 0.0
H1512 H 0.51012 0.73118 0.90235 0.0
H1513 H 0.47612 0.74884 0.9692 0.0
H1514 H 0.49291 0.68162 0.91618 0.0
H1515 H 0.45899 0.69873 0.98347 0.0
H1516 H 0.38569 0.60181 0.95873 0.0
H1517 H 0.41801 0.65348 0.96765 0.0
H1518 H 0.49235 0.64582 0.94393 0.0
H1519 H 0.4596 0.59448 0.93379 0.0
C1520 C 0.49961 0.72464 0.92037 0.0
C1521 C 0.49394 0.74369 0.93443 0.0
C1522 C 0.49001 0.69622 0.92853 0.0
C1523 C 0.47436 0.68604 0.95095 0.0
C1524 C 0.47076 0.70584 0.96603 0.0
C1525 C 0.48063 0.73453 0.95789 0.0
C1526 C 0.4091 0.61087 0.95663 0.0
C1527 C 0.42021 0.59455 0.9451 0.0
C1528 C 0.42772 0.64055 0.96175 0.0
C1529 C 0.45765 0.654 0.95563 0.0
C1530 C 0.46925 0.63627 0.94809 0.0
C1531 C 0.45058 0.60684 0.94247 0.0
H1532 H 0.78718 0.38604 0.95791 0.0
H1533 H 0.86942 0.45958 0.9352 0.0
H1534 H 0.76692 0.41835 0.96368 0.0
H1535 H 0.84995 0.49239 0.94238 0.0
H1536 H 0.78668 0.5131 0.89763 0.0
H1537 H 0.81702 0.49409 0.91315 0.0
H1538 H 0.76116 0.4589 0.97765 0.0
H1539 H 0.73009 0.47773 0.96155 0.0
C1540 C 0.80145 0.40941 0.95566 0.0
C1541 C 0.82963 0.42039 0.94577 0.0
C1542 C 0.78986 0.42802 0.95894 0.0
C1543 C 0.80652 0.45786 0.95264 0.0
C1544 C 0.83625 0.46936 0.9466 0.0
C1545 C 0.84755 0.45068 0.94275 0.0
C1546 C 0.78112 0.50183 0.91538 0.0
C1547 C 0.75569 0.49644 0.92811 0.0
C1548 C 0.79881 0.49119 0.92453 0.0
C1549 C 0.79154 0.4748 0.94669 0.0
C1550 C 0.76722 0.47121 0.96042 0.0
C1551 C 0.7495 0.48208 0.95125 0.0
H1552 H 0.42077 0.86517 0.93604 0.0
H1553 H 0.41576 0.78557 0.9628 0.0
H1554 H 0.36839 0.84441 0.94298 0.0
H1555 H 0.36313 0.76408 0.96855 0.0
H1556 H 0.2855 0.77636 0.8998 0.0
H1557 H 0.33473 0.80863 0.91443 0.0
H1558 H 0.31624 0.75813 0.9822 0.0
H1559 H 0.26643 0.72517 0.96713 0.0
C1560 C 0.40861 0.84367 0.94442 0.0
C1561 C 0.42204 0.82675 0.94856 0.0
C1562 C 0.37858 0.83164 0.94817 0.0
C1563 C 0.36141 0.8022 0.95539 0.0
C1564 C 0.37562 0.78677 0.96286 0.0
C1565 C 0.40585 0.79908 0.9596 0.0
C1566 C 0.29167 0.77239 0.91804 0.0
C1567 C 0.27225 0.74794 0.9321 0.0
C1568 C 0.3199 0.79119 0.92665 0.0
C1569 C 0.32956 0.78601 0.94955 0.0
C1570 C 0.30952 0.76261 0.96442 0.0
C1571 C 0.28101 0.7438 0.95582 0.0
H1572 H 0.54896 0.27217 0.96306 0.0
H1573 H 0.52038 0.28378 0.8906 0.0
H1574 H 0.56505 0.32341 0.97312 0.0
H1575 H 0.53671 0.33432 0.90018 0.0
H1576 H 0.56591 0.42288 0.91348 0.0
H1577 H 0.53389 0.37121 0.92293 0.0
H1578 H 0.60649 0.36837 0.95805 0.0
H1579 H 0.63785 0.42053 0.94988 0.0
C1580 C 0.54547 0.28544 0.94956 0.0
C1581 C 0.53391 0.27421 0.92589 0.0
C1582 C 0.55479 0.31477 0.95526 0.0
C1583 C 0.55236 0.3331 0.93745 0.0
C1584 C 0.53862 0.32094 0.91458 0.0
C1585 C 0.52955 0.29193 0.90889 0.0
C1586 C 0.57455 0.41139 0.9242 0.0
C1587 C 0.60427 0.4253 0.9307 0.0
C1588 C 0.55634 0.38181 0.92948 0.0
C1589 C 0.56787 0.36542 0.94048 0.0
C1590 C 0.59684 0.38026 0.94954 0.0
C1591 C 0.61489 0.41014 0.94481 0.0
H1592 H 0.1485 0.55512 0.93049 0.0
H1593 H 0.22775 0.62725 0.96016 0.0
H1594 H 0.16829 0.52248 0.93712 0.0
H1595 H 0.24827 0.59509 0.96572 0.0
H1596 H 0.28676 0.53727 0.96256 0.0
H1597 H 0.25291 0.55276 0.97826 0.0
H1598 H 0.20511 0.526 0.90873 0.0
H1599 H 0.23837 0.51046 0.89341 0.0
C1600 C 0.16967 0.56365 0.93946 0.0
C1601 C 0.18688 0.59367 0.94444 0.0
C1602 C 0.18112 0.54506 0.94307 0.0
C1603 C 0.21026 0.55643 0.95102 0.0
C1604 C 0.2258 0.5856 0.95943 0.0
C1605 C 0.21407 0.60412 0.95627 0.0
C1606 C 0.26847 0.53396 0.95099 0.0
C1607 C 0.26545 0.52313 0.92659 0.0
C1608 C 0.24917 0.5429 0.95996 0.0
C1609 C 0.22637 0.54077 0.94476 0.0
C1610 C 0.22211 0.52765 0.92116 0.0
C1611 C 0.24144 0.51902 0.91218 0.0
H1612 H 0.7555 0.29094 0.96896 0.0
H1613 H 0.73267 0.23797 0.90242 0.0
H1614 H 0.707 0.25785 0.98625 0.0
H1615 H 0.68472 0.20527 0.91945 0.0
H1616 H 0.60639 0.22976 0.96622 0.0
H1617 H 0.65899 0.25159 0.97242 0.0
H1618 H 0.65384 0.17005 0.95119 0.0
H1619 H 0.60138 0.14867 0.94412 0.0
C1620 C 0.74042 0.27185 0.95831 0.0
C1621 C 0.74763 0.26725 0.93415 0.0
C1622 C 0.71271 0.25296 0.96822 0.0
C1623 C 0.69202 0.22893 0.95428 0.0
C1624 C 0.70022 0.22326 0.93093 0.0
C1625 C 0.72763 0.24225 0.92095 0.0
C1626 C 0.61624 0.21604 0.96425 0.0
C1627 C 0.60016 0.18786 0.95409 0.0
C1628 C 0.64646 0.22856 0.96776 0.0
C1629 C 0.66065 0.2128 0.96136 0.0
C1630 C 0.64355 0.18293 0.95557 0.0
C1631 C 0.6135 0.17061 0.9517 0.0
H1632 H 0.27123 0.53441 0.57199 0.0
H1633 H 0.28217 0.50666 0.64501 0.0
H1634 H 0.32211 0.54905 0.5621 0.0
H1635 H 0.33244 0.52186 0.63572 0.0
H1636 H 0.42164 0.55318 0.62483 0.0
H1637 H 0.37026 0.51999 0.61491 0.0
H1638 H 0.36668 0.59012 0.57595 0.0
H1639 H 0.41856 0.62238 0.58438 0.0
C1640 C 0.28427 0.53081 0.58567 0.0
C1641 C 0.273 0.52003 0.60946 0.0
C1642 C 0.31342 0.53931 0.58008 0.0
C1643 C 0.33161 0.53702 0.59817 0.0
C1644 C 0.31927 0.52375 0.6211 0.0
C1645 C 0.29038 0.51535 0.62664 0.0
C1646 C 0.41003 0.56096 0.61323 0.0
C1647 C 0.42363 0.59027 0.60567 0.0
C1648 C 0.3806 0.5421 0.60767 0.0
C1649 C 0.36401 0.55266 0.59545 0.0
C1650 C 0.37864 0.58114 0.58543 0.0
C1651 C 0.40838 0.59976 0.59035 0.0
H1652 H 0.85394 0.40081 0.62111 0.0
H1653 H 0.80117 0.4112 0.56476 0.0
H1654 H 0.8314 0.34948 0.61179 0.0
H1655 H 0.77917 0.35929 0.55419 0.0
H1656 H 0.7102 0.26815 0.58726 0.0
H1657 H 0.74316 0.31855 0.575 0.0
H1658 H 0.81742 0.30685 0.591 0.0
H1659 H 0.78398 0.25717 0.60531 0.0
C1660 C 0.83822 0.39221 0.60597 0.0
C1661 C 0.82868 0.40978 0.59417 0.0
C1662 C 0.82536 0.36258 0.60035 0.0
C1663 C 0.8027 0.34973 0.5826 0.0
C1664 C 0.79588 0.3682 0.56851 0.0
C1665 C 0.80873 0.39804 0.57432 0.0
C1666 C 0.73359 0.2763 0.58751 0.0
C1667 C 0.74476 0.25928 0.59756 0.0
C1668 C 0.75262 0.30517 0.58027 0.0
C1669 C 0.78319 0.31729 0.58259 0.0
C1670 C 0.79409 0.29874 0.58981 0.0
C1671 C 0.77504 0.27021 0.59782 0.0
H1672 H 0.46287 0.84831 0.62811 0.0
H1673 H 0.40099 0.7995 0.56988 0.0
H1674 H 0.49257 0.82739 0.61653 0.0
H1675 H 0.43187 0.7792 0.55706 0.0
H1676 H 0.45546 0.70903 0.58616 0.0
H1677 H 0.43769 0.74217 0.57492 0.0
H1678 H 0.52217 0.81601 0.59411 0.0
H1679 H 0.53867 0.78228 0.60749 0.0
C1680 C 0.45614 0.83377 0.61218 0.0
C1681 C 0.42914 0.82481 0.60043 0.0
C1682 C 0.47348 0.82191 0.60522 0.0
C1683 C 0.46443 0.80086 0.58613 0.0
C1684 C 0.43913 0.79466 0.57233 0.0
C1685 C 0.42155 0.8065 0.57948 0.0
C1686 C 0.47042 0.73241 0.58719 0.0
C1687 C 0.49812 0.74326 0.59809 0.0
C1688 C 0.46034 0.75156 0.5806 0.0
C1689 C 0.47811 0.78194 0.58441 0.0
C1690 C 0.5074 0.79275 0.59192 0.0
C1691 C 0.51706 0.77353 0.59935 0.0
H1692 H 0.73082 0.49827 0.62602 0.0
H1693 H 0.75362 0.46211 0.56346 0.0
H1694 H 0.68276 0.48154 0.60818 0.0
H1695 H 0.70501 0.44522 0.54536 0.0
H1696 H 0.59954 0.45359 0.58167 0.0
H1697 H 0.65204 0.48342 0.57458 0.0
H1698 H 0.65673 0.40517 0.56025 0.0
H1699 H 0.60413 0.37555 0.56652 0.0
C1700 C 0.72575 0.48726 0.60816 0.0
C1701 C 0.74584 0.48113 0.59637 0.0
C1702 C 0.69826 0.47796 0.5977 0.0
C1703 C 0.69003 0.46206 0.57525 0.0
C1704 C 0.71073 0.45739 0.56267 0.0
C1705 C 0.73852 0.46706 0.57304 0.0
C1706 C 0.61154 0.44296 0.57549 0.0
C1707 C 0.59804 0.41231 0.57521 0.0
C1708 C 0.64165 0.46001 0.57167 0.0
C1709 C 0.65864 0.44654 0.56792 0.0
C1710 C 0.6443 0.41622 0.56335 0.0
C1711 C 0.61404 0.39917 0.56685 0.0
H1712 H 0.23645 0.60117 0.57404 0.0
H1713 H 0.15489 0.59708 0.59285 0.0
H1714 H 0.25925 0.65391 0.56836 0.0
H1715 H 0.17714 0.64963 0.586 0.0
H1716 H 0.2997 0.75046 0.57024 0.0
H1717 H 0.26741 0.70135 0.55353 0.0
H1718 H 0.21014 0.68239 0.61681 0.0
H1719 H 0.24186 0.73094 0.63307 0.0
C1720 C 0.22295 0.61132 0.57547 0.0
C1721 C 0.19415 0.59532 0.58434 0.0
C1722 C 0.23601 0.64163 0.57224 0.0
C1723 C 0.22024 0.65612 0.57758 0.0
C1724 C 0.19009 0.63921 0.5825 0.0
C1725 C 0.17725 0.60909 0.58619 0.0
C1726 C 0.27973 0.73598 0.58012 0.0
C1727 C 0.27351 0.74432 0.60316 0.0
C1728 C 0.26132 0.70786 0.5706 0.0
C1729 C 0.23623 0.68783 0.58383 0.0
C1730 C 0.22898 0.69723 0.60584 0.0
C1731 C 0.2474 0.72505 0.6154 0.0
H1732 H 0.497 0.23777 0.59172 0.0
H1733 H 0.58764 0.29904 0.6079 0.0
H1734 H 0.51078 0.20154 0.57809 0.0
H1735 H 0.60149 0.26376 0.59369 0.0
H1736 H 0.55836 0.15187 0.61984 0.0
H1737 H 0.53281 0.17823 0.60895 0.0
H1738 H 0.60143 0.23115 0.55701 0.0
H1739 H 0.62694 0.20446 0.56772 0.0
C1740 C 0.51987 0.24368 0.59162 0.0
C1741 C 0.54132 0.2708 0.60108 0.0
C1742 C 0.52774 0.22314 0.58375 0.0
C1743 C 0.55721 0.23 0.58459 0.0
C1744 C 0.5787 0.25804 0.59237 0.0
C1745 C 0.57078 0.27809 0.60081 0.0
C1746 C 0.56724 0.16814 0.60518 0.0
C1747 C 0.59489 0.17665 0.59503 0.0
C1748 C 0.5525 0.18311 0.59882 0.0
C1749 C 0.5655 0.20707 0.58253 0.0
C1750 C 0.59112 0.21285 0.56977 0.0
C1751 C 0.60567 0.19753 0.57587 0.0
H1752 H 0.43647 0.08025 0.95428 0.0
H1753 H 0.43687 0.1613 0.96614 0.0
H1754 H 0.42155 0.06626 0.99756 0.0
H1755 H 0.42311 0.14826 1.00921 0.0
H1756 H 0.4143 0.13351 0.0884 0.0
H1757 H 0.39751 0.12362 0.04506 0.0
H1758 H 0.45123 0.08382 0.03303 0.0
H1759 H 0.46684 0.09291 0.07613 0.0
C1760 C 0.43184 0.09436 0.96576 0.0
C1761 C 0.43769 0.1218 0.95681 0.0
C1762 C 0.42385 0.08667 0.99078 0.0
C1763 C 0.42188 0.10644 1.00736 0.0
C1764 C 0.42421 0.13224 0.99734 0.0
C1765 C 0.43205 0.13979 0.97244 0.0
C1766 C 0.42109 0.12116 0.07677 0.0
C1767 C 0.44169 0.11377 0.08566 0.0
C1768 C 0.41193 0.11592 0.05175 0.0
C1769 C 0.42348 0.1035 0.03509 0.0
C1770 C 0.44153 0.09322 0.04498 0.0
C1771 C 0.45054 0.09838 0.06988 0.0
H1772 H 0.28601 0.4094 0.94509 0.0
H1773 H 0.37962 0.45621 0.95449 0.0
H1774 H 0.28006 0.39463 0.98877 0.0
H1775 H 0.3741 0.44308 0.99817 0.0
H1776 H 0.36429 0.43594 0.0783 0.0
H1777 H 0.36179 0.41769 0.03588 0.0
H1778 H 0.28407 0.42405 0.0223 0.0
H1779 H 0.28633 0.44107 0.06448 0.0
C1780 C 0.30537 0.41514 0.95617 0.0
C1781 C 0.33328 0.43375 0.94635 0.0
C1782 C 0.30203 0.40728 0.98143 0.0
C1783 C 0.32652 0.4185 0.99751 0.0
C1784 C 0.35458 0.43386 0.98672 0.0
C1785 C 0.35786 0.44132 0.96144 0.0
C1786 C 0.34584 0.43181 0.06657 0.0
C1787 C 0.32536 0.43967 0.07469 0.0
C1788 C 0.34463 0.42184 0.04206 0.0
C1789 C 0.32308 0.41989 0.02517 0.0
C1790 C 0.3009 0.42485 0.03445 0.0
C1791 C 0.30211 0.43467 0.05881 0.0
H1792 H 0.93275 0.37773 0.07465 0.0
H1793 H 0.88845 0.28433 0.08479 0.0
H1794 H 0.94067 0.37195 0.03117 0.0
H1795 H 0.89739 0.27813 0.04114 0.0
H1796 H 0.85861 0.28304 0.9638 0.0
H1797 H 0.87264 0.28102 1.00637 0.0
H1798 H 0.95542 0.36004 0.99434 0.0
H1799 H 0.94034 0.36236 0.95161 0.0
C1800 C 0.92635 0.35598 0.06786 0.0
C1801 C 0.91012 0.33152 0.08317 0.0
C1802 C 0.93077 0.35254 0.0427 0.0
C1803 C 0.919 0.32445 0.03211 0.0
C1804 C 0.9061 0.30011 0.04832 0.0
C1805 C 0.90148 0.30361 0.07356 0.0
C1806 C 0.88043 0.29915 0.96989 0.0
C1807 C 0.89842 0.32274 0.95434 0.0
C1808 C 0.88859 0.2981 0.99451 0.0
C1809 C 0.91502 0.32076 1.00434 0.0
C1810 C 0.93457 0.34254 0.98775 0.0
C1811 C 0.92625 0.34364 0.96304 0.0
H1812 H 0.59039 0.93682 0.95499 0.0
H1813 H 0.58627 0.85426 0.96863 0.0
H1814 H 0.60763 0.95216 0.99771 0.0
H1815 H 0.60233 0.86867 1.01115 0.0
H1816 H 0.61688 0.88691 0.08943 0.0
H1817 H 0.63098 0.89425 0.04548 0.0
H1818 H 0.58049 0.93779 0.03458 0.0
H1819 H 0.56765 0.93129 0.0783 0.0
C1820 C 0.59458 0.92256 0.96674 0.0
C1821 C 0.5872 0.89444 0.95846 0.0
C1822 C 0.60395 0.93106 0.99143 0.0
C1823 C 0.60578 0.91146 1.00836 0.0
C1824 C 0.60151 0.88464 0.99897 0.0
C1825 C 0.59228 0.87627 0.97441 0.0
C1826 C 0.61034 0.89957 0.07787 0.0
C1827 C 0.59138 0.90875 0.08731 0.0
C1828 C 0.61791 0.90331 0.0525 0.0
C1829 C 0.6063 0.91595 0.03604 0.0
C1830 C 0.59013 0.9281 0.04635 0.0
C1831 C 0.58275 0.92447 0.07161 0.0
H1832 H 0.65918 0.59227 0.94778 0.0
H1833 H 0.74112 0.59389 0.9581 0.0
H1834 H 0.65939 0.60456 0.99172 0.0
H1835 H 0.74109 0.60487 1.00186 0.0
H1836 H 0.7338 0.60838 0.08166 0.0
H1837 H 0.74073 0.62752 0.03912 0.0
H1838 H 0.64784 0.57296 0.02559 0.0
H1839 H 0.64127 0.5551 0.06799 0.0
C1840 C 0.67804 0.59685 0.95914 0.0
C1841 C 0.70027 0.5924 0.94949 0.0
C1842 C 0.67792 0.60328 0.98452 0.0
C1843 C 0.6998 0.60488 1.00079 0.0
C1844 C 0.72383 0.60399 0.99025 0.0
C1845 C 0.72401 0.59781 0.96494 0.0
C1846 C 0.71477 0.60187 0.06992 0.0
C1847 C 0.68696 0.58054 0.07817 0.0
C1848 C 0.71873 0.61239 0.04535 0.0
C1849 C 0.69498 0.60141 0.02845 0.0
C1850 C 0.66675 0.58234 0.03777 0.0
C1851 C 0.66286 0.57201 0.06225 0.0
H1852 H 0.13859 0.73503 0.0858 0.0
H1853 H 0.09258 0.64131 0.07805 0.0
H1854 H 0.12714 0.73995 0.04259 0.0
H1855 H 0.08258 0.64579 0.0347 0.0
H1856 H 0.07984 0.65346 0.95472 0.0
H1857 H 0.06683 0.6564 0.99794 0.0
H1858 H 0.14953 0.73645 1.00722 0.0
H1859 H 0.16136 0.73383 0.96421 0.0
C1860 C 0.12471 0.71542 0.07519 0.0
C1861 C 0.11615 0.68778 0.08538 0.0
C1862 C 0.11869 0.71817 0.05015 0.0
C1863 C 0.10476 0.69335 0.03454 0.0
C1864 C 0.09325 0.66556 0.04575 0.0
C1865 C 0.09882 0.66287 0.07086 0.0
C1866 C 0.0943 0.67252 0.9657 0.0
C1867 C 0.12147 0.69358 0.95605 0.0
C1868 C 0.0872 0.67396 0.9907 0.0
C1869 C 0.10738 0.69626 1.00664 0.0
C1870 C 0.1331 0.71898 0.99592 0.0
C1871 C 0.13999 0.7176 0.97102 0.0
H1872 H 0.93788 0.58017 0.57905 0.0
H1873 H 0.85466 0.57514 0.56645 0.0
H1874 H 0.95233 0.59709 0.53618 0.0
H1875 H 0.86813 0.5908 0.52381 0.0
H1876 H 0.88305 0.60327 0.44589 0.0
H1877 H 0.89251 0.61899 0.48937 0.0
H1878 H 0.93805 0.57028 0.49922 0.0
H1879 H 0.92969 0.55611 0.45579 0.0
C1880 C 0.92327 0.58408 0.56747 0.0
C1881 C 0.89527 0.57664 0.5761 0.0
C1882 C 0.93127 0.59326 0.54271 0.0
C1883 C 0.91123 0.59477 0.52605 0.0
C1884 C 0.88446 0.59029 0.53576 0.0
C1885 C 0.87661 0.58128 0.5604 0.0
C1886 C 0.89674 0.59762 0.45702 0.0
C1887 C 0.90588 0.57871 0.44741 0.0
C1888 C 0.90164 0.60605 0.48216 0.0
C1889 C 0.91522 0.59516 0.49831 0.0
C1890 C 0.92758 0.57932 0.4877 0.0
C1891 C 0.92295 0.57123 0.46256 0.0
H1892 H 0.29139 0.88095 0.5877 0.0
H1893 H 0.38392 0.91891 0.57476 0.0
H1894 H 0.28476 0.89295 0.54496 0.0
H1895 H 0.37765 0.92992 0.53221 0.0
H1896 H 0.36717 0.93507 0.45416 0.0
H1897 H 0.36657 0.94901 0.49749 0.0
H1898 H 0.28411 0.86926 0.50824 0.0
H1899 H 0.28445 0.85645 0.46507 0.0
C1900 C 0.31049 0.89315 0.57608 0.0
C1901 C 0.33819 0.89919 0.58456 0.0
C1902 C 0.30671 0.89959 0.55138 0.0
C1903 C 0.33052 0.91181 0.53462 0.0
C1904 C 0.35867 0.92075 0.54423 0.0
C1905 C 0.36239 0.91445 0.56881 0.0
C1906 C 0.34807 0.92159 0.46544 0.0
C1907 C 0.32583 0.89471 0.45624 0.0
C1908 C 0.34797 0.92919 0.4905 0.0
C1909 C 0.32581 0.90982 0.5069 0.0
C1910 C 0.30164 0.88492 0.49657 0.0
C1911 C 0.30169 0.87752 0.47158 0.0
H1912 H 0.43646 0.28074 0.46726 0.0
H1913 H 0.43282 0.35978 0.45565 0.0
H1914 H 0.42102 0.27845 0.50989 0.0
H1915 H 0.41597 0.3572 0.49852 0.0
H1916 H 0.45921 0.37512 0.57798 0.0
H1917 H 0.44288 0.3693 0.53515 0.0
H1918 H 0.39467 0.27539 0.54501 0.0
H1919 H 0.41282 0.28166 0.58774 0.0
C1920 C 0.43061 0.29673 0.47352 0.0
C1921 C 0.43577 0.32036 0.45813 0.0
C1922 C 0.42171 0.29552 0.49818 0.0
C1923 C 0.4178 0.31806 0.50822 0.0
C1924 C 0.41947 0.33981 0.49178 0.0
C1925 C 0.42859 0.34106 0.467 0.0
C1926 C 0.44373 0.35333 0.57141 0.0
C1927 C 0.43726 0.32888 0.58621 0.0
C1928 C 0.43439 0.34986 0.54659 0.0
C1929 C 0.41817 0.32174 0.53601 0.0
C1930 C 0.40798 0.2974 0.55211 0.0
C1931 C 0.41779 0.30093 0.57687 0.0
H1932 H 0.07982 0.42777 0.57851 0.0
H1933 H 0.1623 0.43127 0.56606 0.0
H1934 H 0.06494 0.41071 0.53567 0.0
H1935 H 0.14828 0.41525 0.52347 0.0
H1936 H 0.1296 0.39877 0.44513 0.0
H1937 H 0.12229 0.38579 0.48937 0.0
H1938 H 0.08032 0.43793 0.49854 0.0
H1939 H 0.08689 0.4498 0.45458 0.0
C1940 C 0.09416 0.42351 0.567 0.0
C1941 C 0.12213 0.43066 0.57565 0.0
C1942 C 0.08591 0.41422 0.54226 0.0
C1943 C 0.1056 0.41213 0.52567 0.0
C1944 C 0.13227 0.41626 0.5354 0.0
C1945 C 0.14041 0.42548 0.55999 0.0
C1946 C 0.11733 0.40598 0.4564 0.0
C1947 C 0.10859 0.42508 0.44639 0.0
C1948 C 0.11358 0.39903 0.48191 0.0
C1949 C 0.10131 0.41134 0.49793 0.0
C1950 C 0.08968 0.42776 0.48711 0.0
C1951 C 0.09337 0.43459 0.46172 0.0
H1952 H 0.64509 0.08787 0.46256 0.0
H1953 H 0.73872 0.13166 0.45412 0.0
H1954 H 0.64961 0.07624 0.50536 0.0
H1955 H 0.74368 0.11882 0.49694 0.0
H1956 H 0.73809 0.15017 0.57719 0.0
H1957 H 0.74105 0.13981 0.53377 0.0
H1958 H 0.65976 0.0579 0.54067 0.0
H1959 H 0.65642 0.06952 0.58417 0.0
C1960 C 0.6666 0.09339 0.46948 0.0
C1961 C 0.69149 0.11041 0.45492 0.0
C1962 C 0.66933 0.08681 0.49426 0.0
C1963 C 0.69714 0.09713 0.5052 0.0
C1964 C 0.7219 0.11113 0.48956 0.0
C1965 C 0.71911 0.11801 0.46476 0.0
C1966 C 0.72171 0.12919 0.56978 0.0
C1967 C 0.69715 0.1106 0.58414 0.0
C1968 C 0.72325 0.12319 0.54462 0.0
C1969 C 0.70019 0.0983 0.53312 0.0
C1970 C 0.67754 0.07774 0.5485 0.0
C1971 C 0.67588 0.084 0.57369 0.0
H1972 H 0.61263 0.73074 0.58728 0.0
H1973 H 0.56803 0.63726 0.57756 0.0
H1974 H 0.62613 0.73733 0.54325 0.0
H1975 H 0.58013 0.64338 0.53371 0.0
H1976 H 0.58556 0.65328 0.45374 0.0
H1977 H 0.60515 0.65665 0.49583 0.0
H1978 H 0.5952 0.73207 0.51013 0.0
H1979 H 0.57685 0.729 0.46825 0.0
C1980 C 0.60714 0.71161 0.57604 0.0
C1981 C 0.58941 0.68349 0.58585 0.0
C1982 C 0.61429 0.7153 0.5506 0.0
C1983 C 0.60342 0.69092 0.53447 0.0
C1984 C 0.58905 0.66281 0.5452 0.0
C1985 C 0.58215 0.6592 0.57056 0.0
C1986 C 0.58915 0.67145 0.46554 0.0
C1987 C 0.5799 0.691 0.45773 0.0
C1988 C 0.59991 0.67317 0.48985 0.0
C1989 C 0.60127 0.69427 0.50686 0.0
C1990 C 0.59488 0.71563 0.49787 0.0
C1991 C 0.58427 0.71392 0.47369 0.0
loop_
_geom_bond_atom_site_label_1
_geom_bond_atom_site_label_2
_geom_bond_distance
_geom_bond_site_symmetry_2
_ccdc_geom_bond_type
O0 Zn1 1.953 . S
O0 C16 1.225 . S
Zn1 O0 1.953 . S
Zn1 O2 1.949 . S
Zn1 O8 1.919 . S
Zn1 O13 1.924 . S
O2 Zn1 1.949 . S
O2 Zn3 1.923 . S
O2 Zn4 1.950 . S
O2 Zn5 1.945 . S
Zn3 O2 1.923 . S
Zn3 O6 1.933 . S
Zn3 O9 1.941 . S
Zn3 O10 1.965 . S
Zn4 O2 1.950 . S
Zn4 O11 1.938 . S
Zn4 O12 1.906 . S
Zn4 O22 1.953 . S
Zn5 O2 1.945 . S
Zn5 O7 1.932 . S
Zn5 O14 1.977 . S
Zn5 O15 1.910 . S
O6 Zn3 1.933 . S
O6 C17 1.226 . S
O7 Zn5 1.932 . S
O7 C17 1.307 . S
O8 Zn1 1.919 . S
O8 C19 1.253 . S
O9 Zn3 1.941 . S
O9 C19 1.283 . S
O10 Zn3 1.965 . S
O10 C18 1.303 . S
O11 Zn4 1.938 . S
O11 C18 1.247 . S
O12 Zn4 1.906 . S
O12 C20 1.304 . S
O13 Zn1 1.924 . S
O13 C21 1.311 . S
O14 Zn5 1.977 . S
O14 C20 1.272 . S
O15 Zn5 1.910 . S
O15 C21 1.231 . S
C16 O0 1.225 . S
C16 O22 1.298 . S
C17 O6 1.226 . S
C17 O7 1.307 . S
C18 O10 1.303 . S
C18 O11 1.247 . S
C19 O8 1.253 . S
C19 O9 1.283 . S
C20 O12 1.304 . S
C20 O14 1.272 . S
C21 O13 1.311 . S
C21 O15 1.231 . S
O22 Zn4 1.953 . S
O22 C16 1.298 . S
O23 Zn24 1.953 . S
O23 C39 1.225 . S
Zn24 O23 1.953 . S
Zn24 O25 1.949 . S
Zn24 O31 1.919 . S
Zn24 O36 1.924 . S
O25 Zn24 1.949 . S
O25 Zn26 1.923 . S
O25 Zn27 1.950 . S
O25 Zn28 1.945 . S
Zn26 O25 1.923 . S
Zn26 O29 1.933 . S
Zn26 O32 1.941 . S
Zn26 O33 1.965 . S
Zn27 O25 1.950 . S
Zn27 O34 1.938 . S
Zn27 O35 1.906 . S
Zn27 O45 1.953 . S
Zn28 O25 1.945 . S
Zn28 O30 1.932 . S
Zn28 O37 1.977 . S
Zn28 O38 1.910 . S
O29 Zn26 1.933 . S
O29 C40 1.226 . S
O30 Zn28 1.932 . S
O30 C40 1.307 . S
O31 Zn24 1.919 . S
O31 C42 1.253 . S
O32 Zn26 1.941 . S
O32 C42 1.283 . S
O33 Zn26 1.965 . S
O33 C41 1.303 . S
O34 Zn27 1.938 . S
O34 C41 1.247 . S
O35 Zn27 1.906 . S
O35 C43 1.304 . S
O36 Zn24 1.924 . S
O36 C44 1.311 . S
O37 Zn28 1.977 . S
O37 C43 1.272 . S
O38 Zn28 1.910 . S
O38 C44 1.231 . S
C39 O23 1.225 . S
C39 O45 1.298 . S
C40 O29 1.226 . S
C40 O30 1.307 . S
C41 O33 1.303 . S
C41 O34 1.247 . S
C42 O31 1.253 . S
C42 O32 1.283 . S
C43 O35 1.304 . S
C43 O37 1.272 . S
C44 O36 1.311 . S
C44 O38 1.231 . S
O45 Zn27 1.953 . S
O45 C39 1.298 . S
O46 Zn47 1.953 . S
O46 C62 1.225 . S
Zn47 O46 1.953 . S
Zn47 O48 1.949 . S
Zn47 O54 1.919 . S
Zn47 O59 1.924 . S
O48 Zn47 1.949 . S
O48 Zn49 1.923 . S
O48 Zn50 1.950 . S
O48 Zn51 1.945 . S
Zn49 O48 1.923 . S
Zn49 O52 1.933 . S
Zn49 O55 1.941 . S
Zn49 O56 1.965 . S
Zn50 O48 1.950 . S
Zn50 O57 1.938 . S
Zn50 O58 1.906 . S
Zn50 O68 1.953 . S
Zn51 O48 1.945 . S
Zn51 O53 1.932 . S
Zn51 O60 1.977 . S
Zn51 O61 1.910 . S
O52 Zn49 1.933 . S
O52 C63 1.226 . S
O53 Zn51 1.932 . S
O53 C63 1.307 . S
O54 Zn47 1.919 . S
O54 C65 1.253 . S
O55 Zn49 1.941 . S
O55 C65 1.283 . S
O56 Zn49 1.965 . S
O56 C64 1.303 . S
O57 Zn50 1.938 . S
O57 C64 1.247 . S
O58 Zn50 1.906 . S
O58 C66 1.304 . S
O59 Zn47 1.924 . S
O59 C67 1.311 . S
O60 Zn51 1.977 . S
O60 C66 1.272 . S
O61 Zn51 1.910 . S
O61 C67 1.231 . S
C62 O46 1.225 . S
C62 O68 1.298 . S
C63 O52 1.226 . S
C63 O53 1.307 . S
C64 O56 1.303 . S
C64 O57 1.247 . S
C65 O54 1.253 . S
C65 O55 1.283 . S
C66 O58 1.304 . S
C66 O60 1.272 . S
C67 O59 1.311 . S
C67 O61 1.231 . S
O68 Zn50 1.953 . S
O68 C62 1.298 . S
O69 Zn70 1.953 . S
O69 C85 1.225 . S
Zn70 O69 1.953 . S
Zn70 O71 1.949 . S
Zn70 O77 1.919 . S
Zn70 O82 1.924 . S
O71 Zn70 1.949 . S
O71 Zn72 1.923 . S
O71 Zn73 1.950 . S
O71 Zn74 1.945 . S
Zn72 O71 1.923 . S
Zn72 O75 1.933 . S
Zn72 O78 1.941 . S
Zn72 O79 1.965 . S
Zn73 O71 1.950 . S
Zn73 O80 1.938 . S
Zn73 O81 1.906 . S
Zn73 O91 1.953 . S
Zn74 O71 1.945 . S
Zn74 O76 1.932 . S
Zn74 O83 1.977 . S
Zn74 O84 1.910 . S
O75 Zn72 1.933 . S
O75 C86 1.226 . S
O76 Zn74 1.932 . S
O76 C86 1.307 . S
O77 Zn70 1.919 . S
O77 C88 1.253 . S
O78 Zn72 1.941 . S
O78 C88 1.283 . S
O79 Zn72 1.965 . S
O79 C87 1.303 . S
O80 Zn73 1.938 . S
O80 C87 1.247 . S
O81 Zn73 1.906 . S
O81 C89 1.304 . S
O82 Zn70 1.924 . S
O82 C90 1.311 . S
O83 Zn74 1.977 . S
O83 C89 1.272 . S
O84 Zn74 1.910 . S
O84 C90 1.231 . S
C85 O69 1.225 . S
C85 O91 1.298 . S
C86 O75 1.226 . S
C86 O76 1.307 . S
C87 O79 1.303 . S
C87 O80 1.247 . S
C88 O77 1.253 . S
C88 O78 1.283 . S
C89 O81 1.304 . S
C89 O83 1.272 . S
C90 O82 1.311 . S
C90 O84 1.231 . S
O91 Zn73 1.953 . S
O91 C85 1.298 . S
O92 Zn93 1.953 . S
O92 C108 1.225 . S
Zn93 O92 1.953 . S
Zn93 O94 1.949 . S
Zn93 O100 1.919 . S
Zn93 O105 1.924 . S
O94 Zn93 1.949 . S
O94 Zn95 1.923 . S
O94 Zn96 1.950 . S
O94 Zn97 1.945 . S
Zn95 O94 1.923 . S
Zn95 O98 1.933 . S
Zn95 O101 1.941 . S
Zn95 O102 1.965 . S
Zn96 O94 1.950 . S
Zn96 O103 1.938 . S
Zn96 O104 1.906 . S
Zn96 O114 1.953 . S
Zn97 O94 1.945 . S
Zn97 O99 1.932 . S
Zn97 O106 1.977 . S
Zn97 O107 1.910 . S
O98 Zn95 1.933 . S
O98 C109 1.226 . S
O99 Zn97 1.932 . S
O99 C109 1.307 . S
O100 Zn93 1.919 . S
O100 C111 1.253 . S
O101 Zn95 1.941 . S
O101 C111 1.283 . S
O102 Zn95 1.965 . S
O102 C110 1.303 . S
O103 Zn96 1.938 . S
O103 C110 1.247 . S
O104 Zn96 1.906 . S
O104 C112 1.304 . S
O105 Zn93 1.924 . S
O105 C113 1.311 . S
O106 Zn97 1.977 . S
O106 C112 1.272 . S
O107 Zn97 1.910 . S
O107 C113 1.231 . S
C108 O92 1.225 . S
C108 O114 1.298 . S
C109 O98 1.226 . S
C109 O99 1.307 . S
C110 O102 1.303 . S
C110 O103 1.247 . S
C111 O100 1.253 . S
C111 O101 1.283 . S
C112 O104 1.304 . S
C112 O106 1.272 . S
C113 O105 1.311 . S
C113 O107 1.231 . S
O114 Zn96 1.953 . S
O114 C108 1.298 . S
O115 Zn116 1.953 . S
O115 C131 1.225 . S
Zn116 O115 1.953 . S
Zn116 O117 1.949 . S
Zn116 O123 1.919 . S
Zn116 O128 1.924 . S
O117 Zn116 1.949 . S
O117 Zn118 1.923 . S
O117 Zn119 1.950 . S
O117 Zn120 1.945 . S
Zn118 O117 1.923 . S
Zn118 O121 1.933 . S
Zn118 O124 1.941 . S
Zn118 O125 1.965 . S
Zn119 O117 1.950 . S
Zn119 O126 1.938 . S
Zn119 O127 1.906 . S
Zn119 O137 1.953 . S
Zn120 O117 1.945 . S
Zn120 O122 1.932 . S
Zn120 O129 1.977 . S
Zn120 O130 1.910 . S
O121 Zn118 1.933 . S
O121 C132 1.226 . S
O122 Zn120 1.932 . S
O122 C132 1.307 . S
O123 Zn116 1.919 . S
O123 C134 1.253 . S
O124 Zn118 1.941 . S
O124 C134 1.283 . S
O125 Zn118 1.965 . S
O125 C133 1.303 . S
O126 Zn119 1.938 . S
O126 C133 1.247 . S
O127 Zn119 1.906 . S
O127 C135 1.304 . S
O128 Zn116 1.924 . S
O128 C136 1.311 . S
O129 Zn120 1.977 . S
O129 C135 1.272 . S
O130 Zn120 1.910 . S
O130 C136 1.231 . S
C131 O115 1.225 . S
C131 O137 1.298 . S
C132 O121 1.226 . S
C132 O122 1.307 . S
C133 O125 1.303 . S
C133 O126 1.247 . S
C134 O123 1.253 . S
C134 O124 1.283 . S
C135 O127 1.304 . S
C135 O129 1.272 . S
C136 O128 1.311 . S
C136 O130 1.231 . S
O137 Zn119 1.953 . S
O137 C131 1.298 . S
O138 Zn139 1.953 . S
O138 C154 1.225 . S
Zn139 O138 1.953 . S
Zn139 O140 1.949 . S
Zn139 O146 1.919 . S
Zn139 O151 1.924 . S
O140 Zn139 1.949 . S
O140 Zn141 1.923 . S
O140 Zn142 1.950 . S
O140 Zn143 1.945 . S
Zn141 O140 1.923 . S
Zn141 O144 1.933 . S
Zn141 O147 1.941 . S
Zn141 O148 1.965 . S
Zn142 O140 1.950 . S
Zn142 O149 1.938 . S
Zn142 O150 1.906 . S
Zn142 O160 1.953 . S
Zn143 O140 1.945 . S
Zn143 O145 1.932 . S
Zn143 O152 1.977 . S
Zn143 O153 1.910 . S
O144 Zn141 1.933 . S
O144 C155 1.226 . S
O145 Zn143 1.932 . S
O145 C155 1.307 . S
O146 Zn139 1.919 . S
O146 C157 1.253 . S
O147 Zn141 1.941 . S
O147 C157 1.283 . S
O148 Zn141 1.965 . S
O148 C156 1.303 . S
O149 Zn142 1.938 . S
O149 C156 1.247 . S
O150 Zn142 1.906 . S
O150 C158 1.304 . S
O151 Zn139 1.924 . S
O151 C159 1.311 . S
O152 Zn143 1.977 . S
O152 C158 1.272 . S
O153 Zn143 1.910 . S
O153 C159 1.231 . S
C154 O138 1.225 . S
C154 O160 1.298 . S
C155 O144 1.226 . S
C155 O145 1.307 . S
C156 O148 1.303 . S
C156 O149 1.247 . S
C157 O146 1.253 . S
C157 O147 1.283 . S
C158 O150 1.304 . S
C158 O152 1.272 . S
C159 O151 1.311 . S
C159 O153 1.231 . S
O160 Zn142 1.953 . S
O160 C154 1.298 . S
O161 Zn162 1.953 . S
O161 C177 1.225 . S
Zn162 O161 1.953 . S
Zn162 O163 1.949 . S
Zn162 O169 1.919 . S
Zn162 O174 1.924 . S
O163 Zn162 1.949 . S
O163 Zn164 1.923 . S
O163 Zn165 1.950 . S
O163 Zn166 1.945 . S
Zn164 O163 1.923 . S
Zn164 O167 1.933 . S
Zn164 O170 1.941 . S
Zn164 O171 1.965 . S
Zn165 O163 1.950 . S
Zn165 O172 1.938 . S
Zn165 O173 1.906 . S
Zn165 O183 1.953 . S
Zn166 O163 1.945 . S
Zn166 O168 1.932 . S
Zn166 O175 1.977 . S
Zn166 O176 1.910 . S
O167 Zn164 1.933 . S
O167 C178 1.226 . S
O168 Zn166 1.932 . S
O168 C178 1.307 . S
O169 Zn162 1.919 . S
O169 C180 1.253 . S
O170 Zn164 1.941 . S
O170 C180 1.283 . S
O171 Zn164 1.965 . S
O171 C179 1.303 . S
O172 Zn165 1.938 . S
O172 C179 1.247 . S
O173 Zn165 1.906 . S
O173 C181 1.304 . S
O174 Zn162 1.924 . S
O174 C182 1.311 . S
O175 Zn166 1.977 . S
O175 C181 1.272 . S
O176 Zn166 1.910 . S
O176 C182 1.231 . S
C177 O161 1.225 . S
C177 O183 1.298 . S
C178 O167 1.226 . S
C178 O168 1.307 . S
C179 O171 1.303 . S
C179 O172 1.247 . S
C180 O169 1.253 . S
C180 O170 1.283 . S
C181 O173 1.304 . S
C181 O175 1.272 . S
C182 O174 1.311 . S
C182 O176 1.231 . S
O183 Zn165 1.953 . S
O183 C177 1.298 . S
O184 Zn185 1.953 . S
O184 C200 1.225 . S
Zn185 O184 1.953 . S
Zn185 O186 1.949 . S
Zn185 O192 1.919 . S
Zn185 O197 1.924 . S
O186 Zn185 1.949 . S
O186 Zn187 1.923 . S
O186 Zn188 1.950 . S
O186 Zn189 1.945 . S
Zn187 O186 1.923 . S
Zn187 O190 1.933 . S
Zn187 O193 1.941 . S
Zn187 O194 1.965 . S
Zn188 O186 1.950 . S
Zn188 O195 1.938 . S
Zn188 O196 1.906 . S
Zn188 O206 1.953 . S
Zn189 O186 1.945 . S
Zn189 O191 1.932 . S
Zn189 O198 1.977 . S
Zn189 O199 1.910 . S
O190 Zn187 1.933 . S
O190 C201 1.226 . S
O191 Zn189 1.932 . S
O191 C201 1.307 . S
O192 Zn185 1.919 . S
O192 C203 1.253 . S
O193 Zn187 1.941 . S
O193 C203 1.283 . S
O194 Zn187 1.965 . S
O194 C202 1.303 . S
O195 Zn188 1.938 . S
O195 C202 1.247 . S
O196 Zn188 1.906 . S
O196 C204 1.304 . S
O197 Zn185 1.924 . S
O197 C205 1.311 . S
O198 Zn189 1.977 . S
O198 C204 1.272 . S
O199 Zn189 1.910 . S
O199 C205 1.231 . S
C200 O184 1.225 . S
C200 O206 1.298 . S
C201 O190 1.226 . S
C201 O191 1.307 . S
C202 O194 1.303 . S
C202 O195 1.247 . S
C203 O192 1.253 . S
C203 O193 1.283 . S
C204 O196 1.304 . S
C204 O198 1.272 . S
C205 O197 1.311 . S
C205 O199 1.231 . S
O206 Zn188 1.953 . S
O206 C200 1.298 . S
O207 Zn208 1.953 . S
O207 C223 1.225 . S
Zn208 O207 1.953 . S
Zn208 O209 1.949 . S
Zn208 O215 1.919 . S
Zn208 O220 1.924 . S
O209 Zn208 1.949 . S
O209 Zn210 1.923 . S
O209 Zn211 1.950 . S
O209 Zn212 1.945 . S
Zn210 O209 1.923 . S
Zn210 O213 1.933 . S
Zn210 O216 1.941 . S
Zn210 O217 1.965 . S
Zn211 O209 1.950 . S
Zn211 O218 1.938 . S
Zn211 O219 1.906 . S
Zn211 O229 1.953 . S
Zn212 O209 1.945 . S
Zn212 O214 1.932 . S
Zn212 O221 1.977 . S
Zn212 O222 1.910 . S
O213 Zn210 1.933 . S
O213 C224 1.226 . S
O214 Zn212 1.932 . S
O214 C224 1.307 . S
O215 Zn208 1.919 . S
O215 C226 1.253 . S
O216 Zn210 1.941 . S
O216 C226 1.283 . S
O217 Zn210 1.965 . S
O217 C225 1.303 . S
O218 Zn211 1.938 . S
O218 C225 1.247 . S
O219 Zn211 1.906 . S
O219 C227 1.304 . S
O220 Zn208 1.924 . S
O220 C228 1.311 . S
O221 Zn212 1.977 . S
O221 C227 1.272 . S
O222 Zn212 1.910 . S
O222 C228 1.231 . S
C223 O207 1.225 . S
C223 O229 1.298 . S
C224 O213 1.226 . S
C224 O214 1.307 . S
C225 O217 1.303 . S
C225 O218 1.247 . S
C226 O215 1.253 . S
C226 O216 1.283 . S
C227 O219 1.304 . S
C227 O221 1.272 . S
C228 O220 1.311 . S
C228 O222 1.231 . S
O229 Zn211 1.953 . S
O229 C223 1.298 . S
O230 Zn231 1.953 . S
O230 C246 1.225 . S
Zn231 O230 1.953 . S
Zn231 O232 1.949 . S
Zn231 O238 1.919 . S
Zn231 O243 1.924 . S
O232 Zn231 1.949 . S
O232 Zn233 1.923 . S
O232 Zn234 1.950 . S
O232 Zn235 1.945 . S
Zn233 O232 1.923 . S
Zn233 O236 1.933 . S
Zn233 O239 1.941 . S
Zn233 O240 1.965 . S
Zn234 O232 1.950 . S
Zn234 O241 1.938 . S
Zn234 O242 1.906 . S
Zn234 O252 1.953 . S
Zn235 O232 1.945 . S
Zn235 O237 1.932 . S
Zn235 O244 1.977 . S
Zn235 O245 1.910 . S
O236 Zn233 1.933 . S
O236 C247 1.226 . S
O237 Zn235 1.932 . S
O237 C247 1.307 . S
O238 Zn231 1.919 . S
O238 C249 1.253 . S
O239 Zn233 1.941 . S
O239 C249 1.283 . S
O240 Zn233 1.965 . S
O240 C248 1.303 . S
O241 Zn234 1.938 . S
O241 C248 1.247 . S
O242 Zn234 1.906 . S
O242 C250 1.304 . S
O243 Zn231 1.924 . S
O243 C251 1.311 . S
O244 Zn235 1.977 . S
O244 C250 1.272 . S
O245 Zn235 1.910 . S
O245 C251 1.231 . S
C246 O230 1.225 . S
C246 O252 1.298 . S
C247 O236 1.226 . S
C247 O237 1.307 . S
C248 O240 1.303 . S
C248 O241 1.247 . S
C249 O238 1.253 . S
C249 O239 1.283 . S
C250 O242 1.304 . S
C250 O244 1.272 . S
C251 O243 1.311 . S
C251 O245 1.231 . S
O252 Zn234 1.953 . S
O252 C246 1.298 . S
O253 Zn254 1.953 . S
O253 C269 1.225 . S
Zn254 O253 1.953 . S
Zn254 O255 1.949 . S
Zn254 O261 1.919 . S
Zn254 O266 1.924 . S
O255 Zn254 1.949 . S
O255 Zn256 1.923 . S
O255 Zn257 1.950 . S
O255 Zn258 1.945 . S
Zn256 O255 1.923 . S
Zn256 O259 1.933 . S
Zn256 O262 1.941 . S
Zn256 O263 1.965 . S
Zn257 O255 1.950 . S
Zn257 O264 1.938 . S
Zn257 O265 1.906 . S
Zn257 O275 1.953 . S
Zn258 O255 1.945 . S
Zn258 O260 1.932 . S
Zn258 O267 1.977 . S
Zn258 O268 1.910 . S
O259 Zn256 1.933 . S
O259 C270 1.226 . S
O260 Zn258 1.932 . S
O260 C270 1.307 . S
O261 Zn254 1.919 . S
O261 C272 1.253 . S
O262 Zn256 1.941 . S
O262 C272 1.283 . S
O263 Zn256 1.965 . S
O263 C271 1.303 . S
O264 Zn257 1.938 . S
O264 C271 1.247 . S
O265 Zn257 1.906 . S
O265 C273 1.304 . S
O266 Zn254 1.924 . S
O266 C274 1.311 . S
O267 Zn258 1.977 . S
O267 C273 1.272 . S
O268 Zn258 1.910 . S
O268 C274 1.231 . S
C269 O253 1.225 . S
C269 O275 1.298 . S
C270 O259 1.226 . S
C270 O260 1.307 . S
C271 O263 1.303 . S
C271 O264 1.247 . S
C272 O261 1.253 . S
C272 O262 1.283 . S
C273 O265 1.304 . S
C273 O267 1.272 . S
C274 O266 1.311 . S
C274 O268 1.231 . S
O275 Zn257 1.953 . S
O275 C269 1.298 . S
O276 Zn277 1.953 . S
O276 C292 1.225 . S
Zn277 O276 1.953 . S
Zn277 O278 1.949 . S
Zn277 O284 1.919 . S
Zn277 O289 1.924 . S
O278 Zn277 1.949 . S
O278 Zn279 1.923 . S
O278 Zn280 1.950 . S
O278 Zn281 1.945 . S
Zn279 O278 1.923 . S
Zn279 O282 1.933 . S
Zn279 O285 1.941 . S
Zn279 O286 1.965 . S
Zn280 O278 1.950 . S
Zn280 O287 1.938 . S
Zn280 O288 1.906 . S
Zn280 O298 1.953 . S
Zn281 O278 1.945 . S
Zn281 O283 1.932 . S
Zn281 O290 1.977 . S
Zn281 O291 1.910 . S
O282 Zn279 1.933 . S
O282 C293 1.226 . S
O283 Zn281 1.932 . S
O283 C293 1.307 . S
O284 Zn277 1.919 . S
O284 C295 1.253 . S
O285 Zn279 1.941 . S
O285 C295 1.283 . S
O286 Zn279 1.965 . S
O286 C294 1.303 . S
O287 Zn280 1.938 . S
O287 C294 1.247 . S
O288 Zn280 1.906 . S
O288 C296 1.304 . S
O289 Zn277 1.924 . S
O289 C297 1.311 . S
O290 Zn281 1.977 . S
O290 C296 1.272 . S
O291 Zn281 1.910 . S
O291 C297 1.231 . S
C292 O276 1.225 . S
C292 O298 1.298 . S
C293 O282 1.226 . S
C293 O283 1.307 . S
C294 O286 1.303 . S
C294 O287 1.247 . S
C295 O284 1.253 . S
C295 O285 1.283 . S
C296 O288 1.304 . S
C296 O290 1.272 . S
C297 O289 1.311 . S
C297 O291 1.231 . S
O298 Zn280 1.953 . S
O298 C292 1.298 . S
O299 Zn300 1.953 . S
O299 C315 1.225 . S
Zn300 O299 1.953 . S
Zn300 O301 1.949 . S
Zn300 O307 1.919 . S
Zn300 O312 1.924 . S
O301 Zn300 1.949 . S
O301 Zn302 1.923 . S
O301 Zn303 1.950 . S
O301 Zn304 1.945 . S
Zn302 O301 1.923 . S
Zn302 O305 1.933 . S
Zn302 O308 1.941 . S
Zn302 O309 1.965 . S
Zn303 O301 1.950 . S
Zn303 O310 1.938 . S
Zn303 O311 1.906 . S
Zn303 O321 1.953 . S
Zn304 O301 1.945 . S
Zn304 O306 1.932 . S
Zn304 O313 1.977 . S
Zn304 O314 1.910 . S
O305 Zn302 1.933 . S
O305 C316 1.226 . S
O306 Zn304 1.932 . S
O306 C316 1.307 . S
O307 Zn300 1.919 . S
O307 C318 1.253 . S
O308 Zn302 1.941 . S
O308 C318 1.283 . S
O309 Zn302 1.965 . S
O309 C317 1.303 . S
O310 Zn303 1.938 . S
O310 C317 1.247 . S
O311 Zn303 1.906 . S
O311 C319 1.304 . S
O312 Zn300 1.924 . S
O312 C320 1.311 . S
O313 Zn304 1.977 . S
O313 C319 1.272 . S
O314 Zn304 1.910 . S
O314 C320 1.231 . S
C315 O299 1.225 . S
C315 O321 1.298 . S
C316 O305 1.226 . S
C316 O306 1.307 . S
C317 O309 1.303 . S
C317 O310 1.247 . S
C318 O307 1.253 . S
C318 O308 1.283 . S
C319 O311 1.304 . S
C319 O313 1.272 . S
C320 O312 1.311 . S
C320 O314 1.231 . S
O321 Zn303 1.953 . S
O321 C315 1.298 . S
O322 Zn323 1.953 . S
O322 C338 1.225 . S
Zn323 O322 1.953 . S
Zn323 O324 1.949 . S
Zn323 O330 1.919 . S
Zn323 O335 1.924 . S
O324 Zn323 1.949 . S
O324 Zn325 1.923 . S
O324 Zn326 1.950 . S
O324 Zn327 1.945 . S
Zn325 O324 1.923 . S
Zn325 O328 1.933 . S
Zn325 O331 1.941 . S
Zn325 O332 1.965 . S
Zn326 O324 1.950 . S
Zn326 O333 1.938 . S
Zn326 O334 1.906 . S
Zn326 O344 1.953 . S
Zn327 O324 1.945 . S
Zn327 O329 1.932 . S
Zn327 O336 1.977 . S
Zn327 O337 1.910 . S
O328 Zn325 1.933 . S
O328 C339 1.226 . S
O329 Zn327 1.932 . S
O329 C339 1.307 . S
O330 Zn323 1.919 . S
O330 C341 1.253 . S
O331 Zn325 1.941 . S
O331 C341 1.283 . S
O332 Zn325 1.965 . S
O332 C340 1.303 . S
O333 Zn326 1.938 . S
O333 C340 1.247 . S
O334 Zn326 1.906 . S
O334 C342 1.304 . S
O335 Zn323 1.924 . S
O335 C343 1.311 . S
O336 Zn327 1.977 . S
O336 C342 1.272 . S
O337 Zn327 1.910 . S
O337 C343 1.231 . S
C338 O322 1.225 . S
C338 O344 1.298 . S
C339 O328 1.226 . S
C339 O329 1.307 . S
C340 O332 1.303 . S
C340 O333 1.247 . S
C341 O330 1.253 . S
C341 O331 1.283 . S
C342 O334 1.304 . S
C342 O336 1.272 . S
C343 O335 1.311 . S
C343 O337 1.231 . S
O344 Zn326 1.953 . S
O344 C338 1.298 . S
O345 Zn346 1.953 . S
O345 C361 1.225 . S
Zn346 O345 1.953 . S
Zn346 O347 1.949 . S
Zn346 O353 1.919 . S
Zn346 O358 1.924 . S
O347 Zn346 1.949 . S
O347 Zn348 1.923 . S
O347 Zn349 1.950 . S
O347 Zn350 1.945 . S
Zn348 O347 1.923 . S
Zn348 O351 1.933 . S
Zn348 O354 1.941 . S
Zn348 O355 1.965 . S
Zn349 O347 1.950 . S
Zn349 O356 1.938 . S
Zn349 O357 1.906 . S
Zn349 O367 1.953 . S
Zn350 O347 1.945 . S
Zn350 O352 1.932 . S
Zn350 O359 1.977 . S
Zn350 O360 1.910 . S
O351 Zn348 1.933 . S
O351 C362 1.226 . S
O352 Zn350 1.932 . S
O352 C362 1.307 . S
O353 Zn346 1.919 . S
O353 C364 1.253 . S
O354 Zn348 1.941 . S
O354 C364 1.283 . S
O355 Zn348 1.965 . S
O355 C363 1.303 . S
O356 Zn349 1.938 . S
O356 C363 1.247 . S
O357 Zn349 1.906 . S
O357 C365 1.304 . S
O358 Zn346 1.924 . S
O358 C366 1.311 . S
O359 Zn350 1.977 . S
O359 C365 1.272 . S
O360 Zn350 1.910 . S
O360 C366 1.231 . S
C361 O345 1.225 . S
C361 O367 1.298 . S
C362 O351 1.226 . S
C362 O352 1.307 . S
C363 O355 1.303 . S
C363 O356 1.247 . S
C364 O353 1.253 . S
C364 O354 1.283 . S
C365 O357 1.304 . S
C365 O359 1.272 . S
C366 O358 1.311 . S
C366 O360 1.231 . S
O367 Zn349 1.953 . S
O367 C361 1.298 . S
O368 Zn369 1.953 . S
O368 C384 1.225 . S
Zn369 O368 1.953 . S
Zn369 O370 1.949 . S
Zn369 O376 1.919 . S
Zn369 O381 1.924 . S
O370 Zn369 1.949 . S
O370 Zn371 1.923 . S
O370 Zn372 1.950 . S
O370 Zn373 1.945 . S
Zn371 O370 1.923 . S
Zn371 O374 1.933 . S
Zn371 O377 1.941 . S
Zn371 O378 1.965 . S
Zn372 O370 1.950 . S
Zn372 O379 1.938 . S
Zn372 O380 1.906 . S
Zn372 O390 1.953 . S
Zn373 O370 1.945 . S
Zn373 O375 1.932 . S
Zn373 O382 1.977 . S
Zn373 O383 1.910 . S
O374 Zn371 1.933 . S
O374 C385 1.226 . S
O375 Zn373 1.932 . S
O375 C385 1.307 . S
O376 Zn369 1.919 . S
O376 C387 1.253 . S
O377 Zn371 1.941 . S
O377 C387 1.283 . S
O378 Zn371 1.965 . S
O378 C386 1.303 . S
O379 Zn372 1.938 . S
O379 C386 1.247 . S
O380 Zn372 1.906 . S
O380 C388 1.304 . S
O381 Zn369 1.924 . S
O381 C389 1.311 . S
O382 Zn373 1.977 . S
O382 C388 1.272 . S
O383 Zn373 1.910 . S
O383 C389 1.231 . S
C384 O368 1.225 . S
C384 O390 1.298 . S
C385 O374 1.226 . S
C385 O375 1.307 . S
C386 O378 1.303 . S
C386 O379 1.247 . S
C387 O376 1.253 . S
C387 O377 1.283 . S
C388 O380 1.304 . S
C388 O382 1.272 . S
C389 O381 1.311 . S
C389 O383 1.231 . S
O390 Zn372 1.953 . S
O390 C384 1.298 . S
O391 Zn392 1.953 . S
O391 C407 1.225 . S
Zn392 O391 1.953 . S
Zn392 O393 1.949 . S
Zn392 O399 1.919 . S
Zn392 O404 1.924 . S
O393 Zn392 1.949 . S
O393 Zn394 1.923 . S
O393 Zn395 1.950 . S
O393 Zn396 1.945 . S
Zn394 O393 1.923 . S
Zn394 O397 1.933 . S
Zn394 O400 1.941 . S
Zn394 O401 1.965 . S
Zn395 O393 1.950 . S
Zn395 O402 1.938 . S
Zn395 O403 1.906 . S
Zn395 O413 1.953 . S
Zn396 O393 1.945 . S
Zn396 O398 1.932 . S
Zn396 O405 1.977 . S
Zn396 O406 1.910 . S
O397 Zn394 1.933 . S
O397 C408 1.226 . S
O398 Zn396 1.932 . S
O398 C408 1.307 . S
O399 Zn392 1.919 . S
O399 C410 1.253 . S
O400 Zn394 1.941 . S
O400 C410 1.283 . S
O401 Zn394 1.965 . S
O401 C409 1.303 . S
O402 Zn395 1.938 . S
O402 C409 1.247 . S
O403 Zn395 1.906 . S
O403 C411 1.304 . S
O404 Zn392 1.924 . S
O404 C412 1.311 . S
O405 Zn396 1.977 . S
O405 C411 1.272 . S
O406 Zn396 1.910 . S
O406 C412 1.231 . S
C407 O391 1.225 . S
C407 O413 1.298 . S
C408 O397 1.226 . S
C408 O398 1.307 . S
C409 O401 1.303 . S
C409 O402 1.247 . S
C410 O399 1.253 . S
C410 O400 1.283 . S
C411 O403 1.304 . S
C411 O405 1.272 . S
C412 O404 1.311 . S
C412 O406 1.231 . S
O413 Zn395 1.953 . S
O413 C407 1.298 . S
O414 Zn415 1.953 . S
O414 C430 1.225 . S
Zn415 O414 1.953 . S
Zn415 O416 1.949 . S
Zn415 O422 1.919 . S
Zn415 O427 1.924 . S
O416 Zn415 1.949 . S
O416 Zn417 1.923 . S
O416 Zn418 1.950 . S
O416 Zn419 1.945 . S
Zn417 O416 1.923 . S
Zn417 O420 1.933 . S
Zn417 O423 1.941 . S
Zn417 O424 1.965 . S
Zn418 O416 1.950 . S
Zn418 O425 1.938 . S
Zn418 O426 1.906 . S
Zn418 O436 1.953 . S
Zn419 O416 1.945 . S
Zn419 O421 1.932 . S
Zn419 O428 1.977 . S
Zn419 O429 1.910 . S
O420 Zn417 1.933 . S
O420 C431 1.226 . S
O421 Zn419 1.932 . S
O421 C431 1.307 . S
O422 Zn415 1.919 . S
O422 C433 1.253 . S
O423 Zn417 1.941 . S
O423 C433 1.283 . S
O424 Zn417 1.965 . S
O424 C432 1.303 . S
O425 Zn418 1.938 . S
O425 C432 1.247 . S
O426 Zn418 1.906 . S
O426 C434 1.304 . S
O427 Zn415 1.924 . S
O427 C435 1.311 . S
O428 Zn419 1.977 . S
O428 C434 1.272 . S
O429 Zn419 1.910 . S
O429 C435 1.231 . S
C430 O414 1.225 . S
C430 O436 1.298 . S
C431 O420 1.226 . S
C431 O421 1.307 . S
C432 O424 1.303 . S
C432 O425 1.247 . S
C433 O422 1.253 . S
C433 O423 1.283 . S
C434 O426 1.304 . S
C434 O428 1.272 . S
C435 O427 1.311 . S
C435 O429 1.231 . S
O436 Zn418 1.953 . S
O436 C430 1.298 . S
O437 Zn438 1.953 . S
O437 C453 1.225 . S
Zn438 O437 1.953 . S
Zn438 O439 1.949 . S
Zn438 O445 1.919 . S
Zn438 O450 1.924 . S
O439 Zn438 1.949 . S
O439 Zn440 1.923 . S
O439 Zn441 1.950 . S
O439 Zn442 1.945 . S
Zn440 O439 1.923 . S
Zn440 O443 1.933 . S
Zn440 O446 1.941 . S
Zn440 O447 1.965 . S
Zn441 O439 1.950 . S
Zn441 O448 1.938 . S
Zn441 O449 1.906 . S
Zn441 O459 1.953 . S
Zn442 O439 1.945 . S
Zn442 O444 1.932 . S
Zn442 O451 1.977 . S
Zn442 O452 1.910 . S
O443 Zn440 1.933 . S
O443 C454 1.226 . S
O444 Zn442 1.932 . S
O444 C454 1.307 . S
O445 Zn438 1.919 . S
O445 C456 1.253 . S
O446 Zn440 1.941 . S
O446 C456 1.283 . S
O447 Zn440 1.965 . S
O447 C455 1.303 . S
O448 Zn441 1.938 . S
O448 C455 1.247 . S
O449 Zn441 1.906 . S
O449 C457 1.304 . S
O450 Zn438 1.924 . S
O450 C458 1.311 . S
O451 Zn442 1.977 . S
O451 C457 1.272 . S
O452 Zn442 1.910 . S
O452 C458 1.231 . S
C453 O437 1.225 . S
C453 O459 1.298 . S
C454 O443 1.226 . S
C454 O444 1.307 . S
C455 O447 1.303 . S
C455 O448 1.247 . S
C456 O445 1.253 . S
C456 O446 1.283 . S
C457 O449 1.304 . S
C457 O451 1.272 . S
C458 O450 1.311 . S
C458 O452 1.231 . S
O459 Zn441 1.953 . S
O459 C453 1.298 . S
O460 Zn461 1.953 . S
O460 C476 1.225 . S
Zn461 O460 1.953 . S
Zn461 O462 1.949 . S
Zn461 O468 1.919 . S
Zn461 O473 1.924 . S
O462 Zn461 1.949 . S
O462 Zn463 1.923 . S
O462 Zn464 1.950 . S
O462 Zn465 1.945 . S
Zn463 O462 1.923 . S
Zn463 O466 1.933 . S
Zn463 O469 1.941 . S
Zn463 O470 1.965 . S
Zn464 O462 1.950 . S
Zn464 O471 1.938 . S
Zn464 O472 1.906 . S
Zn464 O482 1.953 . S
Zn465 O462 1.945 . S
Zn465 O467 1.932 . S
Zn465 O474 1.977 . S
Zn465 O475 1.910 . S
O466 Zn463 1.933 . S
O466 C477 1.226 . S
O467 Zn465 1.932 . S
O467 C477 1.307 . S
O468 Zn461 1.919 . S
O468 C479 1.253 . S
O469 Zn463 1.941 . S
O469 C479 1.283 . S
O470 Zn463 1.965 . S
O470 C478 1.303 . S
O471 Zn464 1.938 . S
O471 C478 1.247 . S
O472 Zn464 1.906 . S
O472 C480 1.304 . S
O473 Zn461 1.924 . S
O473 C481 1.311 . S
O474 Zn465 1.977 . S
O474 C480 1.272 . S
O475 Zn465 1.910 . S
O475 C481 1.231 . S
C476 O460 1.225 . S
C476 O482 1.298 . S
C477 O466 1.226 . S
C477 O467 1.307 . S
C478 O470 1.303 . S
C478 O471 1.247 . S
C479 O468 1.253 . S
C479 O469 1.283 . S
C480 O472 1.304 . S
C480 O474 1.272 . S
C481 O473 1.311 . S
C481 O475 1.231 . S
O482 Zn464 1.953 . S
O482 C476 1.298 . S
O483 Zn484 1.953 . S
O483 C499 1.225 . S
Zn484 O483 1.953 . S
Zn484 O485 1.949 . S
Zn484 O491 1.919 . S
Zn484 O496 1.924 . S
O485 Zn484 1.949 . S
O485 Zn486 1.923 . S
O485 Zn487 1.950 . S
O485 Zn488 1.945 . S
Zn486 O485 1.923 . S
Zn486 O489 1.933 . S
Zn486 O492 1.941 . S
Zn486 O493 1.965 . S
Zn487 O485 1.950 . S
Zn487 O494 1.938 . S
Zn487 O495 1.906 . S
Zn487 O505 1.953 . S
Zn488 O485 1.945 . S
Zn488 O490 1.932 . S
Zn488 O497 1.977 . S
Zn488 O498 1.910 . S
O489 Zn486 1.933 . S
O489 C500 1.226 . S
O490 Zn488 1.932 . S
O490 C500 1.307 . S
O491 Zn484 1.919 . S
O491 C502 1.253 . S
O492 Zn486 1.941 . S
O492 C502 1.283 . S
O493 Zn486 1.965 . S
O493 C501 1.303 . S
O494 Zn487 1.938 . S
O494 C501 1.247 . S
O495 Zn487 1.906 . S
O495 C503 1.304 . S
O496 Zn484 1.924 . S
O496 C504 1.311 . S
O497 Zn488 1.977 . S
O497 C503 1.272 . S
O498 Zn488 1.910 . S
O498 C504 1.231 . S
C499 O483 1.225 . S
C499 O505 1.298 . S
C500 O489 1.226 . S
C500 O490 1.307 . S
C501 O493 1.303 . S
C501 O494 1.247 . S
C502 O491 1.253 . S
C502 O492 1.283 . S
C503 O495 1.304 . S
C503 O497 1.272 . S
C504 O496 1.311 . S
C504 O498 1.231 . S
O505 Zn487 1.953 . S
O505 C499 1.298 . S
O506 Zn507 1.953 . S
O506 C522 1.225 . S
Zn507 O506 1.953 . S
Zn507 O508 1.949 . S
Zn507 O514 1.919 . S
Zn507 O519 1.924 . S
O508 Zn507 1.949 . S
O508 Zn509 1.923 . S
O508 Zn510 1.950 . S
O508 Zn511 1.945 . S
Zn509 O508 1.923 . S
Zn509 O512 1.933 . S
Zn509 O515 1.941 . S
Zn509 O516 1.965 . S
Zn510 O508 1.950 . S
Zn510 O517 1.938 . S
Zn510 O518 1.906 . S
Zn510 O528 1.953 . S
Zn511 O508 1.945 . S
Zn511 O513 1.932 . S
Zn511 O520 1.977 . S
Zn511 O521 1.910 . S
O512 Zn509 1.933 . S
O512 C523 1.226 . S
O513 Zn511 1.932 . S
O513 C523 1.307 . S
O514 Zn507 1.919 . S
O514 C525 1.253 . S
O515 Zn509 1.941 . S
O515 C525 1.283 . S
O516 Zn509 1.965 . S
O516 C524 1.303 . S
O517 Zn510 1.938 . S
O517 C524 1.247 . S
O518 Zn510 1.906 . S
O518 C526 1.304 . S
O519 Zn507 1.924 . S
O519 C527 1.311 . S
O520 Zn511 1.977 . S
O520 C526 1.272 . S
O521 Zn511 1.910 . S
O521 C527 1.231 . S
C522 O506 1.225 . S
C522 O528 1.298 . S
C523 O512 1.226 . S
C523 O513 1.307 . S
C524 O516 1.303 . S
C524 O517 1.247 . S
C525 O514 1.253 . S
C525 O515 1.283 . S
C526 O518 1.304 . S
C526 O520 1.272 . S
C527 O519 1.311 . S
C527 O521 1.231 . S
O528 Zn510 1.953 . S
O528 C522 1.298 . S
O529 Zn530 1.953 . S
O529 C545 1.225 . S
Zn530 O529 1.953 . S
Zn530 O531 1.949 . S
Zn530 O537 1.919 . S
Zn530 O542 1.924 . S
O531 Zn530 1.949 . S
O531 Zn532 1.923 . S
O531 Zn533 1.950 . S
O531 Zn534 1.945 . S
Zn532 O531 1.923 . S
Zn532 O535 1.933 . S
Zn532 O538 1.941 . S
Zn532 O539 1.965 . S
Zn533 O531 1.950 . S
Zn533 O540 1.938 . S
Zn533 O541 1.906 . S
Zn533 O551 1.953 . S
Zn534 O531 1.945 . S
Zn534 O536 1.932 . S
Zn534 O543 1.977 . S
Zn534 O544 1.910 . S
O535 Zn532 1.933 . S
O535 C546 1.226 . S
O536 Zn534 1.932 . S
O536 C546 1.307 . S
O537 Zn530 1.919 . S
O537 C548 1.253 . S
O538 Zn532 1.941 . S
O538 C548 1.283 . S
O539 Zn532 1.965 . S
O539 C547 1.303 . S
O540 Zn533 1.938 . S
O540 C547 1.247 . S
O541 Zn533 1.906 . S
O541 C549 1.304 . S
O542 Zn530 1.924 . S
O542 C550 1.311 . S
O543 Zn534 1.977 . S
O543 C549 1.272 . S
O544 Zn534 1.910 . S
O544 C550 1.231 . S
C545 O529 1.225 . S
C545 O551 1.298 . S
C546 O535 1.226 . S
C546 O536 1.307 . S
C547 O539 1.303 . S
C547 O540 1.247 . S
C548 O537 1.253 . S
C548 O538 1.283 . S
C549 O541 1.304 . S
C549 O543 1.272 . S
C550 O542 1.311 . S
C550 O544 1.231 . S
O551 Zn533 1.953 . S
O551 C545 1.298 . S
H552 C560 0.950 . S
H553 C565 0.950 . S
H554 C562 0.950 . S
H555 C564 0.950 . S
H556 C566 0.950 . S
H557 C568 0.950 . S
H558 C570 0.950 . S
H559 C571 0.950 . S
C560 H552 0.950 . S
C560 C561 1.386 . S
C560 C562 1.391 . S
C561 C560 1.386 . S
C561 C565 1.393 . S
C562 H554 0.950 . S
C562 C560 1.391 . S
C562 C563 1.400 . S
C563 C562 1.400 . S
C563 C564 1.398 . S
C563 C569 1.491 . S
C564 H555 0.950 . S
C564 C563 1.398 . S
C564 C565 1.391 . S
C565 H553 0.950 . S
C565 C561 1.393 . S
C565 C564 1.391 . S
C566 H556 0.950 . S
C566 C567 1.386 . S
C566 C568 1.391 . S
C567 C566 1.386 . S
C567 C571 1.393 . S
C568 H557 0.950 . S
C568 C566 1.391 . S
C568 C569 1.400 . S
C569 C563 1.491 . S
C569 C568 1.400 . S
C569 C570 1.398 . S
C570 H558 0.950 . S
C570 C569 1.398 . S
C570 C571 1.391 . S
C571 H559 0.950 . S
C571 C567 1.393 . S
C571 C570 1.391 . S
H572 C580 0.950 . S
H573 C585 0.950 . S
H574 C582 0.950 . S
H575 C584 0.950 . S
H576 C586 0.950 . S
H577 C588 0.950 . S
H578 C590 0.950 . S
H579 C591 0.950 . S
C580 H572 0.950 . S
C580 C581 1.386 . S
C580 C582 1.391 . S
C581 C580 1.386 . S
C581 C585 1.393 . S
C582 H574 0.950 . S
C582 C580 1.391 . S
C582 C583 1.400 . S
C583 C582 1.400 . S
C583 C584 1.398 . S
C583 C589 1.491 . S
C584 H575 0.950 . S
C584 C583 1.398 . S
C584 C585 1.391 . S
C585 H573 0.950 . S
C585 C581 1.393 . S
C585 C584 1.391 . S
C586 H576 0.950 . S
C586 C587 1.386 . S
C586 C588 1.391 . S
C587 C586 1.386 . S
C587 C591 1.393 . S
C588 H577 0.950 . S
C588 C586 1.391 . S
C588 C589 1.400 . S
C589 C583 1.491 . S
C589 C588 1.400 . S
C589 C590 1.398 . S
C590 H578 0.950 . S
C590 C589 1.398 . S
C590 C591 1.391 . S
C591 H579 0.950 . S
C591 C587 1.393 . S
C591 C590 1.391 . S
H592 C600 0.950 . S
H593 C605 0.950 . S
H594 C602 0.950 . S
H595 C604 0.950 . S
H596 C606 0.950 . S
H597 C608 0.950 . S
H598 C610 0.950 . S
H599 C611 0.950 . S
C600 H592 0.950 . S
C600 C601 1.386 . S
C600 C602 1.391 . S
C601 C600 1.386 . S
C601 C605 1.393 . S
C602 H594 0.950 . S
C602 C600 1.391 . S
C602 C603 1.400 . S
C603 C602 1.400 . S
C603 C604 1.398 . S
C603 C609 1.491 . S
C604 H595 0.950 . S
C604 C603 1.398 . S
C604 C605 1.391 . S
C605 H593 0.950 . S
C605 C601 1.393 . S
C605 C604 1.391 . S
C606 H596 0.950 . S
C606 C607 1.386 . S
C606 C608 1.391 . S
C607 C606 1.386 . S
C607 C611 1.393 . S
C608 H597 0.950 . S
C608 C606 1.391 . S
C608 C609 1.400 . S
C609 C603 1.491 . S
C609 C608 1.400 . S
C609 C610 1.398 . S
C610 H598 0.950 . S
C610 C609 1.398 . S
C610 C611 1.391 . S
C611 H599 0.950 . S
C611 C607 1.393 . S
C611 C610 1.391 . S
H612 C620 0.950 . S
H613 C625 0.950 . S
H614 C622 0.950 . S
H615 C624 0.950 . S
H616 C626 0.950 . S
H617 C628 0.950 . S
H618 C630 0.950 . S
H619 C631 0.950 . S
C620 H612 0.950 . S
C620 C621 1.386 . S
C620 C622 1.391 . S
C621 C620 1.386 . S
C621 C625 1.393 . S
C622 H614 0.950 . S
C622 C620 1.391 . S
C622 C623 1.400 . S
C623 C622 1.400 . S
C623 C624 1.398 . S
C623 C629 1.491 . S
C624 H615 0.950 . S
C624 C623 1.398 . S
C624 C625 1.391 . S
C625 H613 0.950 . S
C625 C621 1.393 . S
C625 C624 1.391 . S
C626 H616 0.950 . S
C626 C627 1.386 . S
C626 C628 1.391 . S
C627 C626 1.386 . S
C627 C631 1.393 . S
C628 H617 0.950 . S
C628 C626 1.391 . S
C628 C629 1.400 . S
C629 C623 1.491 . S
C629 C628 1.400 . S
C629 C630 1.398 . S
C630 H618 0.950 . S
C630 C629 1.398 . S
C630 C631 1.391 . S
C631 H619 0.950 . S
C631 C627 1.393 . S
C631 C630 1.391 . S
H632 C640 0.950 . S
H633 C645 0.950 . S
H634 C642 0.950 . S
H635 C644 0.950 . S
H636 C646 0.950 . S
H637 C648 0.950 . S
H638 C650 0.950 . S
H639 C651 0.950 . S
C640 H632 0.950 . S
C640 C641 1.386 . S
C640 C642 1.391 . S
C641 C640 1.386 . S
C641 C645 1.393 . S
C642 H634 0.950 . S
C642 C640 1.391 . S
C642 C643 1.400 . S
C643 C642 1.400 . S
C643 C644 1.398 . S
C643 C649 1.491 . S
C644 H635 0.950 . S
C644 C643 1.398 . S
C644 C645 1.391 . S
C645 H633 0.950 . S
C645 C641 1.393 . S
C645 C644 1.391 . S
C646 H636 0.950 . S
C646 C647 1.386 . S
C646 C648 1.391 . S
C647 C646 1.386 . S
C647 C651 1.393 . S
C648 H637 0.950 . S
C648 C646 1.391 . S
C648 C649 1.400 . S
C649 C643 1.491 . S
C649 C648 1.400 . S
C649 C650 1.398 . S
C650 H638 0.950 . S
C650 C649 1.398 . S
C650 C651 1.391 . S
C651 H639 0.950 . S
C651 C647 1.393 . S
C651 C650 1.391 . S
H652 C660 0.950 . S
H653 C665 0.950 . S
H654 C662 0.950 . S
H655 C664 0.950 . S
H656 C666 0.950 . S
H657 C668 0.950 . S
H658 C670 0.950 . S
H659 C671 0.950 . S
C660 H652 0.950 . S
C660 C661 1.386 . S
C660 C662 1.391 . S
C661 C660 1.386 . S
C661 C665 1.393 . S
C662 H654 0.950 . S
C662 C660 1.391 . S
C662 C663 1.400 . S
C663 C662 1.400 . S
C663 C664 1.398 . S
C663 C669 1.491 . S
C664 H655 0.950 . S
C664 C663 1.398 . S
C664 C665 1.391 . S
C665 H653 0.950 . S
C665 C661 1.393 . S
C665 C664 1.391 . S
C666 H656 0.950 . S
C666 C667 1.386 . S
C666 C668 1.391 . S
C667 C666 1.386 . S
C667 C671 1.393 . S
C668 H657 0.950 . S
C668 C666 1.391 . S
C668 C669 1.400 . S
C669 C663 1.491 . S
C669 C668 1.400 . S
C669 C670 1.398 . S
C670 H658 0.950 . S
C670 C669 1.398 . S
C670 C671 1.391 . S
C671 H659 0.950 . S
C671 C667 1.393 . S
C671 C670 1.391 . S
H672 C680 0.950 . S
H673 C685 0.950 . S
H674 C682 0.950 . S
H675 C684 0.950 . S
H676 C686 0.950 . S
H677 C688 0.950 . S
H678 C690 0.950 . S
H679 C691 0.950 . S
C680 H672 0.950 . S
C680 C681 1.386 . S
C680 C682 1.391 . S
C681 C680 1.386 . S
C681 C685 1.393 . S
C682 H674 0.950 . S
C682 C680 1.391 . S
C682 C683 1.400 . S
C683 C682 1.400 . S
C683 C684 1.398 . S
C683 C689 1.491 . S
C684 H675 0.950 . S
C684 C683 1.398 . S
C684 C685 1.391 . S
C685 H673 0.950 . S
C685 C681 1.393 . S
C685 C684 1.391 . S
C686 H676 0.950 . S
C686 C687 1.386 . S
C686 C688 1.391 . S
C687 C686 1.386 . S
C687 C691 1.393 . S
C688 H677 0.950 . S
C688 C686 1.391 . S
C688 C689 1.400 . S
C689 C683 1.491 . S
C689 C688 1.400 . S
C689 C690 1.398 . S
C690 H678 0.950 . S
C690 C689 1.398 . S
C690 C691 1.391 . S
C691 H679 0.950 . S
C691 C687 1.393 . S
C691 C690 1.391 . S
H692 C700 0.950 . S
H693 C705 0.950 . S
H694 C702 0.950 . S
H695 C704 0.950 . S
H696 C706 0.950 . S
H697 C708 0.950 . S
H698 C710 0.950 . S
H699 C711 0.950 . S
C700 H692 0.950 . S
C700 C701 1.386 . S
C700 C702 1.391 . S
C701 C700 1.386 . S
C701 C705 1.393 . S
C702 H694 0.950 . S
C702 C700 1.391 . S
C702 C703 1.400 . S
C703 C702 1.400 . S
C703 C704 1.398 . S
C703 C709 1.491 . S
C704 H695 0.950 . S
C704 C703 1.398 . S
C704 C705 1.391 . S
C705 H693 0.950 . S
C705 C701 1.393 . S
C705 C704 1.391 . S
C706 H696 0.950 . S
C706 C707 1.386 . S
C706 C708 1.391 . S
C707 C706 1.386 . S
C707 C711 1.393 . S
C708 H697 0.950 . S
C708 C706 1.391 . S
C708 C709 1.400 . S
C709 C703 1.491 . S
C709 C708 1.400 . S
C709 C710 1.398 . S
C710 H698 0.950 . S
C710 C709 1.398 . S
C710 C711 1.391 . S
C711 H699 0.950 . S
C711 C707 1.393 . S
C711 C710 1.391 . S
H712 C720 0.950 . S
H713 C725 0.950 . S
H714 C722 0.950 . S
H715 C724 0.950 . S
H716 C726 0.950 . S
H717 C728 0.950 . S
H718 C730 0.950 . S
H719 C731 0.950 . S
C720 H712 0.950 . S
C720 C721 1.386 . S
C720 C722 1.391 . S
C721 C720 1.386 . S
C721 C725 1.393 . S
C722 H714 0.950 . S
C722 C720 1.391 . S
C722 C723 1.400 . S
C723 C722 1.400 . S
C723 C724 1.398 . S
C723 C729 1.491 . S
C724 H715 0.950 . S
C724 C723 1.398 . S
C724 C725 1.391 . S
C725 H713 0.950 . S
C725 C721 1.393 . S
C725 C724 1.391 . S
C726 H716 0.950 . S
C726 C727 1.386 . S
C726 C728 1.391 . S
C727 C726 1.386 . S
C727 C731 1.393 . S
C728 H717 0.950 . S
C728 C726 1.391 . S
C728 C729 1.400 . S
C729 C723 1.491 . S
C729 C728 1.400 . S
C729 C730 1.398 . S
C730 H718 0.950 . S
C730 C729 1.398 . S
C730 C731 1.391 . S
C731 H719 0.950 . S
C731 C727 1.393 . S
C731 C730 1.391 . S
H732 C740 0.950 . S
H733 C745 0.950 . S
H734 C742 0.950 . S
H735 C744 0.950 . S
H736 C746 0.950 . S
H737 C748 0.950 . S
H738 C750 0.950 . S
H739 C751 0.950 . S
C740 H732 0.950 . S
C740 C741 1.386 . S
C740 C742 1.391 . S
C741 C740 1.386 . S
C741 C745 1.393 . S
C742 H734 0.950 . S
C742 C740 1.391 . S
C742 C743 1.400 . S
C743 C742 1.400 . S
C743 C744 1.398 . S
C743 C749 1.491 . S
C744 H735 0.950 . S
C744 C743 1.398 . S
C744 C745 1.391 . S
C745 H733 0.950 . S
C745 C741 1.393 . S
C745 C744 1.391 . S
C746 H736 0.950 . S
C746 C747 1.386 . S
C746 C748 1.391 . S
C747 C746 1.386 . S
C747 C751 1.393 . S
C748 H737 0.950 . S
C748 C746 1.391 . S
C748 C749 1.400 . S
C749 C743 1.491 . S
C749 C748 1.400 . S
C749 C750 1.398 . S
C750 H738 0.950 . S
C750 C749 1.398 . S
C750 C751 1.391 . S
C751 H739 0.950 . S
C751 C747 1.393 . S
C751 C750 1.391 . S
H752 C760 0.950 . S
H753 C765 0.950 . S
H754 C762 0.950 . S
H755 C764 0.950 . S
H756 C766 0.950 . S
H757 C768 0.950 . S
H758 C770 0.950 . S
H759 C771 0.950 . S
C760 H752 0.950 . S
C760 C761 1.386 . S
C760 C762 1.391 . S
C761 C760 1.386 . S
C761 C765 1.393 . S
C762 H754 0.950 . S
C762 C760 1.391 . S
C762 C763 1.400 . S
C763 C762 1.400 . S
C763 C764 1.398 . S
C763 C769 1.491 . S
C764 H755 0.950 . S
C764 C763 1.398 . S
C764 C765 1.391 . S
C765 H753 0.950 . S
C765 C761 1.393 . S
C765 C764 1.391 . S
C766 H756 0.950 . S
C766 C767 1.386 . S
C766 C768 1.391 . S
C767 C766 1.386 . S
C767 C771 1.393 . S
C768 H757 0.950 . S
C768 C766 1.391 . S
C768 C769 1.400 . S
C769 C763 1.491 . S
C769 C768 1.400 . S
C769 C770 1.398 . S
C770 H758 0.950 . S
C770 C769 1.398 . S
C770 C771 1.391 . S
C771 H759 0.950 . S
C771 C767 1.393 . S
C771 C770 1.391 . S
H772 C780 0.950 . S
H773 C785 0.950 . S
H774 C782 0.950 . S
H775 C784 0.950 . S
H776 C786 0.950 . S
H777 C788 0.950 . S
H778 C790 0.950 . S
H779 C791 0.950 . S
C780 H772 0.950 . S
C780 C781 1.386 . S
C780 C782 1.391 . S
C781 C780 1.386 . S
C781 C785 1.393 . S
C782 H774 0.950 . S
C782 C780 1.391 . S
C782 C783 1.400 . S
C783 C782 1.400 . S
C783 C784 1.398 . S
C783 C789 1.491 . S
C784 H775 0.950 . S
C784 C783 1.398 . S
C784 C785 1.391 . S
C785 H773 0.950 . S
C785 C781 1.393 . S
C785 C784 1.391 . S
C786 H776 0.950 . S
C786 C787 1.386 . S
C786 C788 1.391 . S
C787 C786 1.386 . S
C787 C791 1.393 . S
C788 H777 0.950 . S
C788 C786 1.391 . S
C788 C789 1.400 . S
C789 C783 1.491 . S
C789 C788 1.400 . S
C789 C790 1.398 . S
C790 H778 0.950 . S
C790 C789 1.398 . S
C790 C791 1.391 . S
C791 H779 0.950 . S
C791 C787 1.393 . S
C791 C790 1.391 . S
H792 C800 0.950 . S
H793 C805 0.950 . S
H794 C802 0.950 . S
H795 C804 0.950 1_565 S
H796 C806 0.950 . S
H797 C808 0.950 . S
H798 C810 0.950 1_545 S
H799 C811 0.950 . S
C800 H792 0.950 . S
C800 C801 1.386 . S
C800 C802 1.391 . S
C801 C800 1.386 . S
C801 C805 1.393 . S
C802 H794 0.950 . S
C802 C800 1.391 . S
C802 C803 1.400 . S
C803 C802 1.400 . S
C803 C804 1.398 . S
C803 C809 1.491 1_545 S
C804 H795 0.950 1_545 S
C804 C803 1.398 . S
C804 C805 1.391 . S
C805 H793 0.950 . S
C805 C801 1.393 . S
C805 C804 1.391 . S
C806 H796 0.950 . S
C806 C807 1.386 . S
C806 C808 1.391 . S
C807 C806 1.386 . S
C807 C811 1.393 . S
C808 H797 0.950 . S
C808 C806 1.391 . S
C808 C809 1.400 . S
C809 C803 1.491 1_565 S
C809 C808 1.400 . S
C809 C810 1.398 . S
C810 H798 0.950 1_565 S
C810 C809 1.398 . S
C810 C811 1.391 . S
C811 H799 0.950 . S
C811 C807 1.393 . S
C811 C810 1.391 . S
H812 C820 0.950 . S
H813 C825 0.950 . S
H814 C822 0.950 . S
H815 C824 0.950 . S
H816 C826 0.950 . S
H817 C828 0.950 . S
H818 C830 0.950 . S
H819 C831 0.950 . S
C820 H812 0.950 . S
C820 C821 1.386 . S
C820 C822 1.391 . S
C821 C820 1.386 . S
C821 C825 1.393 . S
C822 H814 0.950 . S
C822 C820 1.391 . S
C822 C823 1.400 . S
C823 C822 1.400 . S
C823 C824 1.398 . S
C823 C829 1.491 . S
C824 H815 0.950 . S
C824 C823 1.398 . S
C824 C825 1.391 . S
C825 H813 0.950 . S
C825 C821 1.393 . S
C825 C824 1.391 . S
C826 H816 0.950 . S
C826 C827 1.386 . S
C826 C828 1.391 . S
C827 C826 1.386 . S
C827 C831 1.393 . S
C828 H817 0.950 . S
C828 C826 1.391 . S
C828 C829 1.400 . S
C829 C823 1.491 . S
C829 C828 1.400 . S
C829 C830 1.398 . S
C830 H818 0.950 . S
C830 C829 1.398 . S
C830 C831 1.391 . S
C831 H819 0.950 . S
C831 C827 1.393 . S
C831 C830 1.391 . S
H832 C840 0.950 . S
H833 C845 0.950 . S
H834 C842 0.950 . S
H835 C844 0.950 1_455 S
H836 C846 0.950 . S
H837 C848 0.950 . S
H838 C850 0.950 1_655 S
H839 C851 0.950 . S
C840 H832 0.950 . S
C840 C841 1.386 . S
C840 C842 1.391 . S
C841 C840 1.386 . S
C841 C845 1.393 . S
C842 H834 0.950 . S
C842 C840 1.391 . S
C842 C843 1.400 . S
C843 C842 1.400 . S
C843 C844 1.398 . S
C843 C849 1.491 1_655 S
C844 H835 0.950 1_655 S
C844 C843 1.398 . S
C844 C845 1.391 . S
C845 H833 0.950 . S
C845 C841 1.393 . S
C845 C844 1.391 . S
C846 H836 0.950 . S
C846 C847 1.386 . S
C846 C848 1.391 . S
C847 C846 1.386 . S
C847 C851 1.393 . S
C848 H837 0.950 . S
C848 C846 1.391 . S
C848 C849 1.400 . S
C849 C843 1.491 1_455 S
C849 C848 1.400 . S
C849 C850 1.398 . S
C850 H838 0.950 1_455 S
C850 C849 1.398 . S
C850 C851 1.391 . S
C851 H839 0.950 . S
C851 C847 1.393 . S
C851 C850 1.391 . S
H852 C860 0.950 . S
H853 C865 0.950 . S
H854 C862 0.950 . S
H855 C864 0.950 1_455 S
H856 C866 0.950 . S
H857 C868 0.950 . S
H858 C870 0.950 1_655 S
H859 C871 0.950 . S
C860 H852 0.950 . S
C860 C861 1.386 . S
C860 C862 1.391 . S
C861 C860 1.386 . S
C861 C865 1.393 . S
C862 H854 0.950 . S
C862 C860 1.391 . S
C862 C863 1.400 . S
C863 C862 1.400 . S
C863 C864 1.398 . S
C863 C869 1.491 1_655 S
C864 H855 0.950 1_655 S
C864 C863 1.398 . S
C864 C865 1.391 . S
C865 H853 0.950 . S
C865 C861 1.393 . S
C865 C864 1.391 . S
C866 H856 0.950 . S
C866 C867 1.386 . S
C866 C868 1.391 . S
C867 C866 1.386 . S
C867 C871 1.393 . S
C868 H857 0.950 . S
C868 C866 1.391 . S
C868 C869 1.400 . S
C869 C863 1.491 1_455 S
C869 C868 1.400 . S
C869 C870 1.398 . S
C870 H858 0.950 1_455 S
C870 C869 1.398 . S
C870 C871 1.391 . S
C871 H859 0.950 . S
C871 C867 1.393 . S
C871 C870 1.391 . S
H872 C880 0.950 . S
H873 C885 0.950 . S
H874 C882 0.950 1_545 S
H875 C884 0.950 . S
H876 C886 0.950 . S
H877 C888 0.950 1_565 S
H878 C890 0.950 . S
H879 C891 0.950 . S
C880 H872 0.950 . S
C880 C881 1.386 . S
C880 C882 1.391 . S
C881 C880 1.386 . S
C881 C885 1.393 . S
C882 H874 0.950 1_565 S
C882 C880 1.391 . S
C882 C883 1.400 . S
C883 C882 1.400 . S
C883 C884 1.398 . S
C883 C889 1.491 1_565 S
C884 H875 0.950 . S
C884 C883 1.398 . S
C884 C885 1.391 . S
C885 H873 0.950 . S
C885 C881 1.393 . S
C885 C884 1.391 . S
C886 H876 0.950 . S
C886 C887 1.386 . S
C886 C888 1.391 . S
C887 C886 1.386 . S
C887 C891 1.393 . S
C888 H877 0.950 1_545 S
C888 C886 1.391 . S
C888 C889 1.400 . S
C889 C883 1.491 1_545 S
C889 C888 1.400 . S
C889 C890 1.398 . S
C890 H878 0.950 . S
C890 C889 1.398 . S
C890 C891 1.391 . S
C891 H879 0.950 . S
C891 C887 1.393 . S
C891 C890 1.391 . S
H892 C900 0.950 . S
H893 C905 0.950 . S
H894 C902 0.950 . S
H895 C904 0.950 . S
H896 C906 0.950 . S
H897 C908 0.950 . S
H898 C910 0.950 . S
H899 C911 0.950 . S
C900 H892 0.950 . S
C900 C901 1.386 . S
C900 C902 1.391 . S
C901 C900 1.386 . S
C901 C905 1.393 . S
C902 H894 0.950 . S
C902 C900 1.391 . S
C902 C903 1.400 . S
C903 C902 1.400 . S
C903 C904 1.398 . S
C903 C909 1.491 . S
C904 H895 0.950 . S
C904 C903 1.398 . S
C904 C905 1.391 . S
C905 H893 0.950 . S
C905 C901 1.393 . S
C905 C904 1.391 . S
C906 H896 0.950 . S
C906 C907 1.386 . S
C906 C908 1.391 . S
C907 C906 1.386 . S
C907 C911 1.393 . S
C908 H897 0.950 . S
C908 C906 1.391 . S
C908 C909 1.400 . S
C909 C903 1.491 . S
C909 C908 1.400 . S
C909 C910 1.398 . S
C910 H898 0.950 . S
C910 C909 1.398 . S
C910 C911 1.391 . S
C911 H899 0.950 . S
C911 C907 1.393 . S
C911 C910 1.391 . S
H912 C920 0.950 . S
H913 C925 0.950 . S
H914 C922 0.950 . S
H915 C924 0.950 . S
H916 C926 0.950 . S
H917 C928 0.950 . S
H918 C930 0.950 . S
H919 C931 0.950 . S
C920 H912 0.950 . S
C920 C921 1.386 . S
C920 C922 1.391 . S
C921 C920 1.386 . S
C921 C925 1.393 . S
C922 H914 0.950 . S
C922 C920 1.391 . S
C922 C923 1.400 . S
C923 C922 1.400 . S
C923 C924 1.398 . S
C923 C929 1.491 1_545 S
C924 H915 0.950 . S
C924 C923 1.398 . S
C924 C925 1.391 . S
C925 H913 0.950 . S
C925 C921 1.393 . S
C925 C924 1.391 . S
C926 H916 0.950 . S
C926 C927 1.386 . S
C926 C928 1.391 . S
C927 C926 1.386 . S
C927 C931 1.393 . S
C928 H917 0.950 . S
C928 C926 1.391 . S
C928 C929 1.400 . S
C929 C923 1.491 1_565 S
C929 C928 1.400 . S
C929 C930 1.398 . S
C930 H918 0.950 . S
C930 C929 1.398 . S
C930 C931 1.391 . S
C931 H919 0.950 . S
C931 C927 1.393 . S
C931 C930 1.391 . S
H932 C940 0.950 . S
H933 C945 0.950 . S
H934 C942 0.950 . S
H935 C944 0.950 . S
H936 C946 0.950 . S
H937 C948 0.950 . S
H938 C950 0.950 . S
H939 C951 0.950 . S
C940 H932 0.950 . S
C940 C941 1.386 . S
C940 C942 1.391 . S
C941 C940 1.386 . S
C941 C945 1.393 . S
C942 H934 0.950 . S
C942 C940 1.391 . S
C942 C943 1.400 . S
C943 C942 1.400 . S
C943 C944 1.398 . S
C943 C949 1.491 . S
C944 H935 0.950 . S
C944 C943 1.398 . S
C944 C945 1.391 . S
C945 H933 0.950 . S
C945 C941 1.393 . S
C945 C944 1.391 . S
C946 H936 0.950 . S
C946 C947 1.386 . S
C946 C948 1.391 . S
C947 C946 1.386 . S
C947 C951 1.393 . S
C948 H937 0.950 . S
C948 C946 1.391 . S
C948 C949 1.400 . S
C949 C943 1.491 . S
C949 C948 1.400 . S
C949 C950 1.398 . S
C950 H938 0.950 . S
C950 C949 1.398 . S
C950 C951 1.391 . S
C951 H939 0.950 . S
C951 C947 1.393 . S
C951 C950 1.391 . S
H952 C960 0.950 . S
H953 C965 0.950 . S
H954 C962 0.950 1_455 S
H955 C964 0.950 . S
H956 C966 0.950 . S
H957 C968 0.950 1_655 S
H958 C970 0.950 . S
H959 C971 0.950 . S
C960 H952 0.950 . S
C960 C961 1.386 . S
C960 C962 1.391 . S
C961 C960 1.386 . S
C961 C965 1.393 . S
C962 H954 0.950 1_655 S
C962 C960 1.391 . S
C962 C963 1.400 . S
C963 C962 1.400 . S
C963 C964 1.398 . S
C963 C969 1.491 1_655 S
C964 H955 0.950 . S
C964 C963 1.398 . S
C964 C965 1.391 . S
C965 H953 0.950 . S
C965 C961 1.393 . S
C965 C964 1.391 . S
C966 H956 0.950 . S
C966 C967 1.386 . S
C966 C968 1.391 . S
C967 C966 1.386 . S
C967 C971 1.393 . S
C968 H957 0.950 1_455 S
C968 C966 1.391 . S
C968 C969 1.400 . S
C969 C963 1.491 1_455 S
C969 C968 1.400 . S
C969 C970 1.398 . S
C970 H958 0.950 . S
C970 C969 1.398 . S
C970 C971 1.391 . S
C971 H959 0.950 . S
C971 C967 1.393 . S
C971 C970 1.391 . S
H972 C980 0.950 . S
H973 C985 0.950 . S
H974 C982 0.950 . S
H975 C984 0.950 1_655 S
H976 C986 0.950 . S
H977 C988 0.950 . S
H978 C990 0.950 1_455 S
H979 C991 0.950 . S
C980 H972 0.950 . S
C980 C981 1.386 . S
C980 C982 1.391 . S
C981 C980 1.386 . S
C981 C985 1.393 . S
C982 H974 0.950 . S
C982 C980 1.391 . S
C982 C983 1.400 . S
C983 C982 1.400 . S
C983 C984 1.398 . S
C983 C989 1.491 1_455 S
C984 H975 0.950 1_455 S
C984 C983 1.398 . S
C984 C985 1.391 . S
C985 H973 0.950 . S
C985 C981 1.393 . S
C985 C984 1.391 . S
C986 H976 0.950 . S
C986 C987 1.386 . S
C986 C988 1.391 . S
C987 C986 1.386 . S
C987 C991 1.393 . S
C988 H977 0.950 . S
C988 C986 1.391 . S
C988 C989 1.400 . S
C989 C983 1.491 1_655 S
C989 C988 1.400 . S
C989 C990 1.398 . S
C990 H978 0.950 1_655 S
C990 C989 1.398 . S
C990 C991 1.391 . S
C991 H979 0.950 . S
C991 C987 1.393 . S
C991 C990 1.391 . S
H992 C1000 0.950 . S
H993 C1005 0.950 . S
H994 C1002 0.950 . S
H995 C1004 0.950 . S
H996 C1006 0.950 . S
H997 C1008 0.950 . S
H998 C1010 0.950 . S
H999 C1011 0.950 . S
C1000 H992 0.950 . S
C1000 C1001 1.386 . S
C1000 C1002 1.391 . S
C1001 C1000 1.386 . S
C1001 C1005 1.393 . S
C1002 H994 0.950 . S
C1002 C1000 1.391 . S
C1002 C1003 1.400 . S
C1003 C1002 1.400 . S
C1003 C1004 1.398 . S
C1003 C1009 1.491 1_545 S
C1004 H995 0.950 . S
C1004 C1003 1.398 . S
C1004 C1005 1.391 . S
C1005 H993 0.950 . S
C1005 C1001 1.393 . S
C1005 C1004 1.391 . S
C1006 H996 0.950 . S
C1006 C1007 1.386 . S
C1006 C1008 1.391 . S
C1007 C1006 1.386 . S
C1007 C1011 1.393 . S
C1008 H997 0.950 . S
C1008 C1006 1.391 . S
C1008 C1009 1.400 . S
C1009 C1003 1.491 1_565 S
C1009 C1008 1.400 . S
C1009 C1010 1.398 . S
C1010 H998 0.950 . S
C1010 C1009 1.398 . S
C1010 C1011 1.391 . S
C1011 H999 0.950 . S
C1011 C1007 1.393 . S
C1011 C1010 1.391 . S
H1012 C1020 0.950 . S
H1013 C1025 0.950 . S
H1014 C1022 0.950 . S
H1015 C1024 0.950 . S
H1016 C1026 0.950 . S
H1017 C1028 0.950 . S
H1018 C1030 0.950 . S
H1019 C1031 0.950 . S
C1020 H1012 0.950 . S
C1020 C1021 1.386 . S
C1020 C1022 1.391 . S
C1021 C1020 1.386 . S
C1021 C1025 1.393 . S
C1022 H1014 0.950 . S
C1022 C1020 1.391 . S
C1022 C1023 1.400 . S
C1023 C1022 1.400 . S
C1023 C1024 1.398 . S
C1023 C1029 1.491 . S
C1024 H1015 0.950 . S
C1024 C1023 1.398 . S
C1024 C1025 1.391 . S
C1025 H1013 0.950 . S
C1025 C1021 1.393 . S
C1025 C1024 1.391 . S
C1026 H1016 0.950 . S
C1026 C1027 1.386 . S
C1026 C1028 1.391 . S
C1027 C1026 1.386 . S
C1027 C1031 1.393 . S
C1028 H1017 0.950 . S
C1028 C1026 1.391 . S
C1028 C1029 1.400 . S
C1029 C1023 1.491 . S
C1029 C1028 1.400 . S
C1029 C1030 1.398 . S
C1030 H1018 0.950 . S
C1030 C1029 1.398 . S
C1030 C1031 1.391 . S
C1031 H1019 0.950 . S
C1031 C1027 1.393 . S
C1031 C1030 1.391 . S
H1032 C1040 0.950 . S
H1033 C1045 0.950 . S
H1034 C1042 0.950 . S
H1035 C1044 0.950 . S
H1036 C1046 0.950 . S
H1037 C1048 0.950 . S
H1038 C1050 0.950 . S
H1039 C1051 0.950 . S
C1040 H1032 0.950 . S
C1040 C1041 1.386 . S
C1040 C1042 1.391 . S
C1041 C1040 1.386 . S
C1041 C1045 1.393 . S
C1042 H1034 0.950 . S
C1042 C1040 1.391 . S
C1042 C1043 1.400 . S
C1043 C1042 1.400 . S
C1043 C1044 1.398 . S
C1043 C1049 1.491 . S
C1044 H1035 0.950 . S
C1044 C1043 1.398 . S
C1044 C1045 1.391 . S
C1045 H1033 0.950 . S
C1045 C1041 1.393 . S
C1045 C1044 1.391 . S
C1046 H1036 0.950 . S
C1046 C1047 1.386 . S
C1046 C1048 1.391 . S
C1047 C1046 1.386 . S
C1047 C1051 1.393 . S
C1048 H1037 0.950 . S
C1048 C1046 1.391 . S
C1048 C1049 1.400 . S
C1049 C1043 1.491 . S
C1049 C1048 1.400 . S
C1049 C1050 1.398 . S
C1050 H1038 0.950 . S
C1050 C1049 1.398 . S
C1050 C1051 1.391 . S
C1051 H1039 0.950 . S
C1051 C1047 1.393 . S
C1051 C1050 1.391 . S
H1052 C1060 0.950 . S
H1053 C1065 0.950 . S
H1054 C1062 0.950 . S
H1055 C1064 0.950 . S
H1056 C1066 0.950 . S
H1057 C1068 0.950 . S
H1058 C1070 0.950 . S
H1059 C1071 0.950 . S
C1060 H1052 0.950 . S
C1060 C1061 1.386 . S
C1060 C1062 1.391 . S
C1061 C1060 1.386 . S
C1061 C1065 1.393 . S
C1062 H1054 0.950 . S
C1062 C1060 1.391 . S
C1062 C1063 1.400 . S
C1063 C1062 1.400 . S
C1063 C1064 1.398 . S
C1063 C1069 1.491 . S
C1064 H1055 0.950 . S
C1064 C1063 1.398 . S
C1064 C1065 1.391 . S
C1065 H1053 0.950 . S
C1065 C1061 1.393 . S
C1065 C1064 1.391 . S
C1066 H1056 0.950 . S
C1066 C1067 1.386 . S
C1066 C1068 1.391 . S
C1067 C1066 1.386 . S
C1067 C1071 1.393 . S
C1068 H1057 0.950 . S
C1068 C1066 1.391 . S
C1068 C1069 1.400 . S
C1069 C1063 1.491 . S
C1069 C1068 1.400 . S
C1069 C1070 1.398 . S
C1070 H1058 0.950 . S
C1070 C1069 1.398 . S
C1070 C1071 1.391 . S
C1071 H1059 0.950 . S
C1071 C1067 1.393 . S
C1071 C1070 1.391 . S
H1072 C1080 0.950 . S
H1073 C1085 0.950 . S
H1074 C1082 0.950 . S
H1075 C1084 0.950 . S
H1076 C1086 0.950 . S
H1077 C1088 0.950 . S
H1078 C1090 0.950 . S
H1079 C1091 0.950 . S
C1080 H1072 0.950 . S
C1080 C1081 1.386 . S
C1080 C1082 1.391 . S
C1081 C1080 1.386 . S
C1081 C1085 1.393 . S
C1082 H1074 0.950 . S
C1082 C1080 1.391 . S
C1082 C1083 1.400 . S
C1083 C1082 1.400 . S
C1083 C1084 1.398 . S
C1083 C1089 1.491 . S
C1084 H1075 0.950 . S
C1084 C1083 1.398 . S
C1084 C1085 1.391 . S
C1085 H1073 0.950 . S
C1085 C1081 1.393 . S
C1085 C1084 1.391 . S
C1086 H1076 0.950 . S
C1086 C1087 1.386 . S
C1086 C1088 1.391 . S
C1087 C1086 1.386 . S
C1087 C1091 1.393 . S
C1088 H1077 0.950 . S
C1088 C1086 1.391 . S
C1088 C1089 1.400 . S
C1089 C1083 1.491 . S
C1089 C1088 1.400 . S
C1089 C1090 1.398 . S
C1090 H1078 0.950 . S
C1090 C1089 1.398 . S
C1090 C1091 1.391 . S
C1091 H1079 0.950 . S
C1091 C1087 1.393 . S
C1091 C1090 1.391 . S
H1092 C1100 0.950 . S
H1093 C1105 0.950 . S
H1094 C1102 0.950 . S
H1095 C1104 0.950 . S
H1096 C1106 0.950 . S
H1097 C1108 0.950 . S
H1098 C1110 0.950 . S
H1099 C1111 0.950 . S
C1100 H1092 0.950 . S
C1100 C1101 1.386 . S
C1100 C1102 1.391 . S
C1101 C1100 1.386 . S
C1101 C1105 1.393 . S
C1102 H1094 0.950 . S
C1102 C1100 1.391 . S
C1102 C1103 1.400 . S
C1103 C1102 1.400 . S
C1103 C1104 1.398 . S
C1103 C1109 1.491 . S
C1104 H1095 0.950 . S
C1104 C1103 1.398 . S
C1104 C1105 1.391 . S
C1105 H1093 0.950 . S
C1105 C1101 1.393 . S
C1105 C1104 1.391 . S
C1106 H1096 0.950 . S
C1106 C1107 1.386 . S
C1106 C1108 1.391 . S
C1107 C1106 1.386 . S
C1107 C1111 1.393 . S
C1108 H1097 0.950 . S
C1108 C1106 1.391 . S
C1108 C1109 1.400 . S
C1109 C1103 1.491 . S
C1109 C1108 1.400 . S
C1109 C1110 1.398 . S
C1110 H1098 0.950 . S
C1110 C1109 1.398 . S
C1110 C1111 1.391 . S
C1111 H1099 0.950 . S
C1111 C1107 1.393 . S
C1111 C1110 1.391 . S
H1112 C1120 0.950 . S
H1113 C1125 0.950 . S
H1114 C1122 0.950 . S
H1115 C1124 0.950 . S
H1116 C1126 0.950 . S
H1117 C1128 0.950 . S
H1118 C1130 0.950 . S
H1119 C1131 0.950 . S
C1120 H1112 0.950 . S
C1120 C1121 1.386 . S
C1120 C1122 1.391 . S
C1121 C1120 1.386 . S
C1121 C1125 1.393 . S
C1122 H1114 0.950 . S
C1122 C1120 1.391 . S
C1122 C1123 1.400 . S
C1123 C1122 1.400 . S
C1123 C1124 1.398 . S
C1123 C1129 1.491 . S
C1124 H1115 0.950 . S
C1124 C1123 1.398 . S
C1124 C1125 1.391 . S
C1125 H1113 0.950 . S
C1125 C1121 1.393 . S
C1125 C1124 1.391 . S
C1126 H1116 0.950 . S
C1126 C1127 1.386 . S
C1126 C1128 1.391 . S
C1127 C1126 1.386 . S
C1127 C1131 1.393 . S
C1128 H1117 0.950 . S
C1128 C1126 1.391 . S
C1128 C1129 1.400 . S
C1129 C1123 1.491 . S
C1129 C1128 1.400 . S
C1129 C1130 1.398 . S
C1130 H1118 0.950 . S
C1130 C1129 1.398 . S
C1130 C1131 1.391 . S
C1131 H1119 0.950 . S
C1131 C1127 1.393 . S
C1131 C1130 1.391 . S
H1132 C1140 0.950 . S
H1133 C1145 0.950 . S
H1134 C1142 0.950 . S
H1135 C1144 0.950 . S
H1136 C1146 0.950 . S
H1137 C1148 0.950 . S
H1138 C1150 0.950 . S
H1139 C1151 0.950 . S
C1140 H1132 0.950 . S
C1140 C1141 1.386 . S
C1140 C1142 1.391 . S
C1141 C1140 1.386 . S
C1141 C1145 1.393 . S
C1142 H1134 0.950 . S
C1142 C1140 1.391 . S
C1142 C1143 1.400 . S
C1143 C1142 1.400 . S
C1143 C1144 1.398 . S
C1143 C1149 1.491 . S
C1144 H1135 0.950 . S
C1144 C1143 1.398 . S
C1144 C1145 1.391 . S
C1145 H1133 0.950 . S
C1145 C1141 1.393 . S
C1145 C1144 1.391 . S
C1146 H1136 0.950 . S
C1146 C1147 1.386 . S
C1146 C1148 1.391 . S
C1147 C1146 1.386 . S
C1147 C1151 1.393 . S
C1148 H1137 0.950 . S
C1148 C1146 1.391 . S
C1148 C1149 1.400 . S
C1149 C1143 1.491 . S
C1149 C1148 1.400 . S
C1149 C1150 1.398 . S
C1150 H1138 0.950 . S
C1150 C1149 1.398 . S
C1150 C1151 1.391 . S
C1151 H1139 0.950 . S
C1151 C1147 1.393 . S
C1151 C1150 1.391 . S
H1152 C1160 0.950 . S
H1153 C1165 0.950 . S
H1154 C1162 0.950 . S
H1155 C1164 0.950 . S
H1156 C1166 0.950 . S
H1157 C1168 0.950 . S
H1158 C1170 0.950 . S
H1159 C1171 0.950 . S
C1160 H1152 0.950 . S
C1160 C1161 1.386 . S
C1160 C1162 1.391 . S
C1161 C1160 1.386 . S
C1161 C1165 1.393 . S
C1162 H1154 0.950 . S
C1162 C1160 1.391 . S
C1162 C1163 1.400 . S
C1163 C1162 1.400 . S
C1163 C1164 1.398 . S
C1163 C1169 1.491 . S
C1164 H1155 0.950 . S
C1164 C1163 1.398 . S
C1164 C1165 1.391 . S
C1165 H1153 0.950 . S
C1165 C1161 1.393 . S
C1165 C1164 1.391 . S
C1166 H1156 0.950 . S
C1166 C1167 1.386 . S
C1166 C1168 1.391 . S
C1167 C1166 1.386 . S
C1167 C1171 1.393 . S
C1168 H1157 0.950 . S
C1168 C1166 1.391 . S
C1168 C1169 1.400 . S
C1169 C1163 1.491 . S
C1169 C1168 1.400 . S
C1169 C1170 1.398 . S
C1170 H1158 0.950 . S
C1170 C1169 1.398 . S
C1170 C1171 1.391 . S
C1171 H1159 0.950 . S
C1171 C1167 1.393 . S
C1171 C1170 1.391 . S
H1172 C1180 0.950 . S
H1173 C1185 0.950 . S
H1174 C1182 0.950 . S
H1175 C1184 0.950 . S
H1176 C1186 0.950 . S
H1177 C1188 0.950 . S
H1178 C1190 0.950 . S
H1179 C1191 0.950 . S
C1180 H1172 0.950 . S
C1180 C1181 1.386 . S
C1180 C1182 1.391 . S
C1181 C1180 1.386 . S
C1181 C1185 1.393 . S
C1182 H1174 0.950 . S
C1182 C1180 1.391 . S
C1182 C1183 1.400 . S
C1183 C1182 1.400 . S
C1183 C1184 1.398 . S
C1183 C1189 1.491 . S
C1184 H1175 0.950 . S
C1184 C1183 1.398 . S
C1184 C1185 1.391 . S
C1185 H1173 0.950 . S
C1185 C1181 1.393 . S
C1185 C1184 1.391 . S
C1186 H1176 0.950 . S
C1186 C1187 1.386 . S
C1186 C1188 1.391 . S
C1187 C1186 1.386 . S
C1187 C1191 1.393 . S
C1188 H1177 0.950 . S
C1188 C1186 1.391 . S
C1188 C1189 1.400 . S
C1189 C1183 1.491 . S
C1189 C1188 1.400 . S
C1189 C1190 1.398 . S
C1190 H1178 0.950 . S
C1190 C1189 1.398 . S
C1190 C1191 1.391 . S
C1191 H1179 0.950 . S
C1191 C1187 1.393 . S
C1191 C1190 1.391 . S
H1192 C1200 0.950 . S
H1193 C1205 0.950 . S
H1194 C1202 0.950 . S
H1195 C1204 0.950 . S
H1196 C1206 0.950 . S
H1197 C1208 0.950 . S
H1198 C1210 0.950 . S
H1199 C1211 0.950 . S
C1200 H1192 0.950 . S
C1200 C1201 1.386 . S
C1200 C1202 1.391 . S
C1201 C1200 1.386 . S
C1201 C1205 1.393 . S
C1202 H1194 0.950 . S
C1202 C1200 1.391 . S
C1202 C1203 1.400 . S
C1203 C1202 1.400 . S
C1203 C1204 1.398 . S
C1203 C1209 1.491 . S
C1204 H1195 0.950 . S
C1204 C1203 1.398 . S
C1204 C1205 1.391 . S
C1205 H1193 0.950 . S
C1205 C1201 1.393 . S
C1205 C1204 1.391 . S
C1206 H1196 0.950 . S
C1206 C1207 1.386 . S
C1206 C1208 1.391 . S
C1207 C1206 1.386 . S
C1207 C1211 1.393 . S
C1208 H1197 0.950 . S
C1208 C1206 1.391 . S
C1208 C1209 1.400 . S
C1209 C1203 1.491 . S
C1209 C1208 1.400 . S
C1209 C1210 1.398 . S
C1210 H1198 0.950 . S
C1210 C1209 1.398 . S
C1210 C1211 1.391 . S
C1211 H1199 0.950 . S
C1211 C1207 1.393 . S
C1211 C1210 1.391 . S
H1212 C1220 0.950 . S
H1213 C1225 0.950 . S
H1214 C1222 0.950 . S
H1215 C1224 0.950 . S
H1216 C1226 0.950 . S
H1217 C1228 0.950 . S
H1218 C1230 0.950 . S
H1219 C1231 0.950 . S
C1220 H1212 0.950 . S
C1220 C1221 1.386 . S
C1220 C1222 1.391 . S
C1221 C1220 1.386 . S
C1221 C1225 1.393 . S
C1222 H1214 0.950 . S
C1222 C1220 1.391 . S
C1222 C1223 1.400 . S
C1223 C1222 1.400 . S
C1223 C1224 1.398 . S
C1223 C1229 1.491 . S
C1224 H1215 0.950 . S
C1224 C1223 1.398 . S
C1224 C1225 1.391 . S
C1225 H1213 0.950 . S
C1225 C1221 1.393 . S
C1225 C1224 1.391 . S
C1226 H1216 0.950 . S
C1226 C1227 1.386 . S
C1226 C1228 1.391 . S
C1227 C1226 1.386 . S
C1227 C1231 1.393 . S
C1228 H1217 0.950 . S
C1228 C1226 1.391 . S
C1228 C1229 1.400 . S
C1229 C1223 1.491 . S
C1229 C1228 1.400 . S
C1229 C1230 1.398 . S
C1230 H1218 0.950 . S
C1230 C1229 1.398 . S
C1230 C1231 1.391 . S
C1231 H1219 0.950 . S
C1231 C1227 1.393 . S
C1231 C1230 1.391 . S
H1232 C1240 0.950 . S
H1233 C1245 0.950 . S
H1234 C1242 0.950 . S
H1235 C1244 0.950 . S
H1236 C1246 0.950 . S
H1237 C1248 0.950 . S
H1238 C1250 0.950 . S
H1239 C1251 0.950 . S
C1240 H1232 0.950 . S
C1240 C1241 1.386 . S
C1240 C1242 1.391 . S
C1241 C1240 1.386 . S
C1241 C1245 1.393 . S
C1242 H1234 0.950 . S
C1242 C1240 1.391 . S
C1242 C1243 1.400 . S
C1243 C1242 1.400 . S
C1243 C1244 1.398 . S
C1243 C1249 1.491 . S
C1244 H1235 0.950 . S
C1244 C1243 1.398 . S
C1244 C1245 1.391 . S
C1245 H1233 0.950 . S
C1245 C1241 1.393 . S
C1245 C1244 1.391 . S
C1246 H1236 0.950 . S
C1246 C1247 1.386 . S
C1246 C1248 1.391 . S
C1247 C1246 1.386 . S
C1247 C1251 1.393 . S
C1248 H1237 0.950 . S
C1248 C1246 1.391 . S
C1248 C1249 1.400 . S
C1249 C1243 1.491 . S
C1249 C1248 1.400 . S
C1249 C1250 1.398 . S
C1250 H1238 0.950 . S
C1250 C1249 1.398 . S
C1250 C1251 1.391 . S
C1251 H1239 0.950 . S
C1251 C1247 1.393 . S
C1251 C1250 1.391 . S
H1252 C1260 0.950 . S
H1253 C1265 0.950 . S
H1254 C1262 0.950 . S
H1255 C1264 0.950 . S
H1256 C1266 0.950 . S
H1257 C1268 0.950 . S
H1258 C1270 0.950 . S
H1259 C1271 0.950 . S
C1260 H1252 0.950 . S
C1260 C1261 1.386 . S
C1260 C1262 1.391 . S
C1261 C1260 1.386 . S
C1261 C1265 1.393 . S
C1262 H1254 0.950 . S
C1262 C1260 1.391 . S
C1262 C1263 1.400 . S
C1263 C1262 1.400 . S
C1263 C1264 1.398 . S
C1263 C1269 1.491 . S
C1264 H1255 0.950 . S
C1264 C1263 1.398 . S
C1264 C1265 1.391 . S
C1265 H1253 0.950 . S
C1265 C1261 1.393 . S
C1265 C1264 1.391 . S
C1266 H1256 0.950 . S
C1266 C1267 1.386 . S
C1266 C1268 1.391 . S
C1267 C1266 1.386 . S
C1267 C1271 1.393 . S
C1268 H1257 0.950 . S
C1268 C1266 1.391 . S
C1268 C1269 1.400 . S
C1269 C1263 1.491 . S
C1269 C1268 1.400 . S
C1269 C1270 1.398 . S
C1270 H1258 0.950 . S
C1270 C1269 1.398 . S
C1270 C1271 1.391 . S
C1271 H1259 0.950 . S
C1271 C1267 1.393 . S
C1271 C1270 1.391 . S
H1272 C1280 0.950 . S
H1273 C1285 0.950 . S
H1274 C1282 0.950 . S
H1275 C1284 0.950 . S
H1276 C1286 0.950 . S
H1277 C1288 0.950 . S
H1278 C1290 0.950 . S
H1279 C1291 0.950 . S
C1280 H1272 0.950 . S
C1280 C1281 1.386 . S
C1280 C1282 1.391 . S
C1281 C1280 1.386 . S
C1281 C1285 1.393 . S
C1282 H1274 0.950 . S
C1282 C1280 1.391 . S
C1282 C1283 1.400 . S
C1283 C1282 1.400 . S
C1283 C1284 1.398 . S
C1283 C1289 1.491 . S
C1284 H1275 0.950 . S
C1284 C1283 1.398 . S
C1284 C1285 1.391 . S
C1285 H1273 0.950 . S
C1285 C1281 1.393 . S
C1285 C1284 1.391 . S
C1286 H1276 0.950 . S
C1286 C1287 1.386 . S
C1286 C1288 1.391 . S
C1287 C1286 1.386 . S
C1287 C1291 1.393 . S
C1288 H1277 0.950 . S
C1288 C1286 1.391 . S
C1288 C1289 1.400 . S
C1289 C1283 1.491 . S
C1289 C1288 1.400 . S
C1289 C1290 1.398 . S
C1290 H1278 0.950 . S
C1290 C1289 1.398 . S
C1290 C1291 1.391 . S
C1291 H1279 0.950 . S
C1291 C1287 1.393 . S
C1291 C1290 1.391 . S
H1292 C1300 0.950 . S
H1293 C1305 0.950 . S
H1294 C1302 0.950 . S
H1295 C1304 0.950 . S
H1296 C1306 0.950 . S
H1297 C1308 0.950 . S
H1298 C1310 0.950 . S
H1299 C1311 0.950 . S
C1300 H1292 0.950 . S
C1300 C1301 1.386 . S
C1300 C1302 1.391 . S
C1301 C1300 1.386 . S
C1301 C1305 1.393 . S
C1302 H1294 0.950 . S
C1302 C1300 1.391 . S
C1302 C1303 1.400 . S
C1303 C1302 1.400 . S
C1303 C1304 1.398 . S
C1303 C1309 1.491 . S
C1304 H1295 0.950 . S
C1304 C1303 1.398 . S
C1304 C1305 1.391 . S
C1305 H1293 0.950 . S
C1305 C1301 1.393 . S
C1305 C1304 1.391 . S
C1306 H1296 0.950 . S
C1306 C1307 1.386 . S
C1306 C1308 1.391 . S
C1307 C1306 1.386 . S
C1307 C1311 1.393 . S
C1308 H1297 0.950 . S
C1308 C1306 1.391 . S
C1308 C1309 1.400 . S
C1309 C1303 1.491 . S
C1309 C1308 1.400 . S
C1309 C1310 1.398 . S
C1310 H1298 0.950 . S
C1310 C1309 1.398 . S
C1310 C1311 1.391 . S
C1311 H1299 0.950 . S
C1311 C1307 1.393 . S
C1311 C1310 1.391 . S
H1312 C1320 0.950 . S
H1313 C1325 0.950 . S
H1314 C1322 0.950 . S
H1315 C1324 0.950 . S
H1316 C1326 0.950 . S
H1317 C1328 0.950 . S
H1318 C1330 0.950 . S
H1319 C1331 0.950 . S
C1320 H1312 0.950 . S
C1320 C1321 1.386 . S
C1320 C1322 1.391 . S
C1321 C1320 1.386 . S
C1321 C1325 1.393 . S
C1322 H1314 0.950 . S
C1322 C1320 1.391 . S
C1322 C1323 1.400 . S
C1323 C1322 1.400 . S
C1323 C1324 1.398 . S
C1323 C1329 1.491 . S
C1324 H1315 0.950 . S
C1324 C1323 1.398 . S
C1324 C1325 1.391 . S
C1325 H1313 0.950 . S
C1325 C1321 1.393 . S
C1325 C1324 1.391 . S
C1326 H1316 0.950 . S
C1326 C1327 1.386 . S
C1326 C1328 1.391 . S
C1327 C1326 1.386 . S
C1327 C1331 1.393 . S
C1328 H1317 0.950 . S
C1328 C1326 1.391 . S
C1328 C1329 1.400 . S
C1329 C1323 1.491 . S
C1329 C1328 1.400 . S
C1329 C1330 1.398 . S
C1330 H1318 0.950 . S
C1330 C1329 1.398 . S
C1330 C1331 1.391 . S
C1331 H1319 0.950 . S
C1331 C1327 1.393 . S
C1331 C1330 1.391 . S
H1332 C1340 0.950 . S
H1333 C1345 0.950 . S
H1334 C1342 0.950 . S
H1335 C1344 0.950 . S
H1336 C1346 0.950 . S
H1337 C1348 0.950 . S
H1338 C1350 0.950 . S
H1339 C1351 0.950 . S
C1340 H1332 0.950 . S
C1340 C1341 1.386 . S
C1340 C1342 1.391 . S
C1341 C1340 1.386 . S
C1341 C1345 1.393 . S
C1342 H1334 0.950 . S
C1342 C1340 1.391 . S
C1342 C1343 1.400 . S
C1343 C1342 1.400 . S
C1343 C1344 1.398 . S
C1343 C1349 1.491 . S
C1344 H1335 0.950 . S
C1344 C1343 1.398 . S
C1344 C1345 1.391 . S
C1345 H1333 0.950 . S
C1345 C1341 1.393 . S
C1345 C1344 1.391 . S
C1346 H1336 0.950 . S
C1346 C1347 1.386 . S
C1346 C1348 1.391 . S
C1347 C1346 1.386 . S
C1347 C1351 1.393 . S
C1348 H1337 0.950 . S
C1348 C1346 1.391 . S
C1348 C1349 1.400 . S
C1349 C1343 1.491 . S
C1349 C1348 1.400 . S
C1349 C1350 1.398 . S
C1350 H1338 0.950 . S
C1350 C1349 1.398 . S
C1350 C1351 1.391 . S
C1351 H1339 0.950 . S
C1351 C1347 1.393 . S
C1351 C1350 1.391 . S
H1352 C1360 0.950 . S
H1353 C1365 0.950 . S
H1354 C1362 0.950 . S
H1355 C1364 0.950 . S
H1356 C1366 0.950 . S
H1357 C1368 0.950 . S
H1358 C1370 0.950 . S
H1359 C1371 0.950 . S
C1360 H1352 0.950 . S
C1360 C1361 1.386 . S
C1360 C1362 1.391 . S
C1361 C1360 1.386 . S
C1361 C1365 1.393 . S
C1362 H1354 0.950 . S
C1362 C1360 1.391 . S
C1362 C1363 1.400 . S
C1363 C1362 1.400 . S
C1363 C1364 1.398 . S
C1363 C1369 1.491 . S
C1364 H1355 0.950 . S
C1364 C1363 1.398 . S
C1364 C1365 1.391 . S
C1365 H1353 0.950 . S
C1365 C1361 1.393 . S
C1365 C1364 1.391 . S
C1366 H1356 0.950 . S
C1366 C1367 1.386 . S
C1366 C1368 1.391 . S
C1367 C1366 1.386 . S
C1367 C1371 1.393 . S
C1368 H1357 0.950 . S
C1368 C1366 1.391 . S
C1368 C1369 1.400 . S
C1369 C1363 1.491 . S
C1369 C1368 1.400 . S
C1369 C1370 1.398 . S
C1370 H1358 0.950 . S
C1370 C1369 1.398 . S
C1370 C1371 1.391 . S
C1371 H1359 0.950 . S
C1371 C1367 1.393 . S
C1371 C1370 1.391 . S
H1372 C1380 0.950 . S
H1373 C1385 0.950 . S
H1374 C1382 0.950 . S
H1375 C1384 0.950 . S
H1376 C1386 0.950 . S
H1377 C1388 0.950 . S
H1378 C1390 0.950 . S
H1379 C1391 0.950 . S
C1380 H1372 0.950 . S
C1380 C1381 1.386 . S
C1380 C1382 1.391 . S
C1381 C1380 1.386 . S
C1381 C1385 1.393 . S
C1382 H1374 0.950 . S
C1382 C1380 1.391 . S
C1382 C1383 1.400 . S
C1383 C1382 1.400 . S
C1383 C1384 1.398 . S
C1383 C1389 1.491 . S
C1384 H1375 0.950 . S
C1384 C1383 1.398 . S
C1384 C1385 1.391 . S
C1385 H1373 0.950 . S
C1385 C1381 1.393 . S
C1385 C1384 1.391 . S
C1386 H1376 0.950 . S
C1386 C1387 1.386 . S
C1386 C1388 1.391 . S
C1387 C1386 1.386 . S
C1387 C1391 1.393 . S
C1388 H1377 0.950 . S
C1388 C1386 1.391 . S
C1388 C1389 1.400 . S
C1389 C1383 1.491 . S
C1389 C1388 1.400 . S
C1389 C1390 1.398 . S
C1390 H1378 0.950 . S
C1390 C1389 1.398 . S
C1390 C1391 1.391 . S
C1391 H1379 0.950 . S
C1391 C1387 1.393 . S
C1391 C1390 1.391 . S
H1392 C1400 0.950 . S
H1393 C1405 0.950 . S
H1394 C1402 0.950 . S
H1395 C1404 0.950 . S
H1396 C1406 0.950 . S
H1397 C1408 0.950 . S
H1398 C1410 0.950 . S
H1399 C1411 0.950 . S
C1400 H1392 0.950 . S
C1400 C1401 1.386 . S
C1400 C1402 1.391 . S
C1401 C1400 1.386 . S
C1401 C1405 1.393 . S
C1402 H1394 0.950 . S
C1402 C1400 1.391 . S
C1402 C1403 1.400 . S
C1403 C1402 1.400 . S
C1403 C1404 1.398 . S
C1403 C1409 1.491 . S
C1404 H1395 0.950 . S
C1404 C1403 1.398 . S
C1404 C1405 1.391 . S
C1405 H1393 0.950 . S
C1405 C1401 1.393 . S
C1405 C1404 1.391 . S
C1406 H1396 0.950 . S
C1406 C1407 1.386 . S
C1406 C1408 1.391 . S
C1407 C1406 1.386 . S
C1407 C1411 1.393 . S
C1408 H1397 0.950 . S
C1408 C1406 1.391 . S
C1408 C1409 1.400 . S
C1409 C1403 1.491 . S
C1409 C1408 1.400 . S
C1409 C1410 1.398 . S
C1410 H1398 0.950 . S
C1410 C1409 1.398 . S
C1410 C1411 1.391 . S
C1411 H1399 0.950 . S
C1411 C1407 1.393 . S
C1411 C1410 1.391 . S
H1412 C1420 0.950 . S
H1413 C1425 0.950 . S
H1414 C1422 0.950 . S
H1415 C1424 0.950 . S
H1416 C1426 0.950 . S
H1417 C1428 0.950 . S
H1418 C1430 0.950 . S
H1419 C1431 0.950 . S
C1420 H1412 0.950 . S
C1420 C1421 1.386 . S
C1420 C1422 1.391 . S
C1421 C1420 1.386 . S
C1421 C1425 1.393 . S
C1422 H1414 0.950 . S
C1422 C1420 1.391 . S
C1422 C1423 1.400 . S
C1423 C1422 1.400 . S
C1423 C1424 1.398 . S
C1423 C1429 1.491 . S
C1424 H1415 0.950 . S
C1424 C1423 1.398 . S
C1424 C1425 1.391 . S
C1425 H1413 0.950 . S
C1425 C1421 1.393 . S
C1425 C1424 1.391 . S
C1426 H1416 0.950 . S
C1426 C1427 1.386 . S
C1426 C1428 1.391 . S
C1427 C1426 1.386 . S
C1427 C1431 1.393 . S
C1428 H1417 0.950 . S
C1428 C1426 1.391 . S
C1428 C1429 1.400 . S
C1429 C1423 1.491 . S
C1429 C1428 1.400 . S
C1429 C1430 1.398 . S
C1430 H1418 0.950 . S
C1430 C1429 1.398 . S
C1430 C1431 1.391 . S
C1431 H1419 0.950 . S
C1431 C1427 1.393 . S
C1431 C1430 1.391 . S
H1432 C1440 0.950 . S
H1433 C1445 0.950 . S
H1434 C1442 0.950 . S
H1435 C1444 0.950 . S
H1436 C1446 0.950 . S
H1437 C1448 0.950 . S
H1438 C1450 0.950 . S
H1439 C1451 0.950 . S
C1440 H1432 0.950 . S
C1440 C1441 1.386 . S
C1440 C1442 1.391 . S
C1441 C1440 1.386 . S
C1441 C1445 1.393 . S
C1442 H1434 0.950 . S
C1442 C1440 1.391 . S
C1442 C1443 1.400 . S
C1443 C1442 1.400 . S
C1443 C1444 1.398 . S
C1443 C1449 1.491 . S
C1444 H1435 0.950 . S
C1444 C1443 1.398 . S
C1444 C1445 1.391 . S
C1445 H1433 0.950 . S
C1445 C1441 1.393 . S
C1445 C1444 1.391 . S
C1446 H1436 0.950 . S
C1446 C1447 1.386 . S
C1446 C1448 1.391 . S
C1447 C1446 1.386 . S
C1447 C1451 1.393 . S
C1448 H1437 0.950 . S
C1448 C1446 1.391 . S
C1448 C1449 1.400 . S
C1449 C1443 1.491 . S
C1449 C1448 1.400 . S
C1449 C1450 1.398 . S
C1450 H1438 0.950 . S
C1450 C1449 1.398 . S
C1450 C1451 1.391 . S
C1451 H1439 0.950 . S
C1451 C1447 1.393 . S
C1451 C1450 1.391 . S
H1452 C1460 0.950 . S
H1453 C1465 0.950 . S
H1454 C1462 0.950 . S
H1455 C1464 0.950 . S
H1456 C1466 0.950 . S
H1457 C1468 0.950 . S
H1458 C1470 0.950 . S
H1459 C1471 0.950 . S
C1460 H1452 0.950 . S
C1460 C1461 1.386 . S
C1460 C1462 1.391 . S
C1461 C1460 1.386 . S
C1461 C1465 1.393 . S
C1462 H1454 0.950 . S
C1462 C1460 1.391 . S
C1462 C1463 1.400 . S
C1463 C1462 1.400 . S
C1463 C1464 1.398 . S
C1463 C1469 1.491 . S
C1464 H1455 0.950 . S
C1464 C1463 1.398 . S
C1464 C1465 1.391 . S
C1465 H1453 0.950 . S
C1465 C1461 1.393 . S
C1465 C1464 1.391 . S
C1466 H1456 0.950 . S
C1466 C1467 1.386 . S
C1466 C1468 1.391 . S
C1467 C1466 1.386 . S
C1467 C1471 1.393 . S
C1468 H1457 0.950 . S
C1468 C1466 1.391 . S
C1468 C1469 1.400 . S
C1469 C1463 1.491 . S
C1469 C1468 1.400 . S
C1469 C1470 1.398 . S
C1470 H1458 0.950 . S
C1470 C1469 1.398 . S
C1470 C1471 1.391 . S
C1471 H1459 0.950 . S
C1471 C1467 1.393 . S
C1471 C1470 1.391 . S
H1472 C1480 0.950 . S
H1473 C1485 0.950 . S
H1474 C1482 0.950 . S
H1475 C1484 0.950 . S
H1476 C1486 0.950 . S
H1477 C1488 0.950 . S
H1478 C1490 0.950 . S
H1479 C1491 0.950 . S
C1480 H1472 0.950 . S
C1480 C1481 1.386 . S
C1480 C1482 1.391 . S
C1481 C1480 1.386 . S
C1481 C1485 1.393 . S
C1482 H1474 0.950 . S
C1482 C1480 1.391 . S
C1482 C1483 1.400 . S
C1483 C1482 1.400 . S
C1483 C1484 1.398 . S
C1483 C1489 1.491 . S
C1484 H1475 0.950 . S
C1484 C1483 1.398 . S
C1484 C1485 1.391 . S
C1485 H1473 0.950 . S
C1485 C1481 1.393 . S
C1485 C1484 1.391 . S
C1486 H1476 0.950 . S
C1486 C1487 1.386 . S
C1486 C1488 1.391 . S
C1487 C1486 1.386 . S
C1487 C1491 1.393 . S
C1488 H1477 0.950 . S
C1488 C1486 1.391 . S
C1488 C1489 1.400 . S
C1489 C1483 1.491 . S
C1489 C1488 1.400 . S
C1489 C1490 1.398 . S
C1490 H1478 0.950 . S
C1490 C1489 1.398 . S
C1490 C1491 1.391 . S
C1491 H1479 0.950 . S
C1491 C1487 1.393 . S
C1491 C1490 1.391 . S
H1492 C1500 0.950 . S
H1493 C1505 0.950 . S
H1494 C1502 0.950 . S
H1495 C1504 0.950 . S
H1496 C1506 0.950 . S
H1497 C1508 0.950 . S
H1498 C1510 0.950 . S
H1499 C1511 0.950 . S
C1500 H1492 0.950 . S
C1500 C1501 1.386 . S
C1500 C1502 1.391 . S
C1501 C1500 1.386 . S
C1501 C1505 1.393 . S
C1502 H1494 0.950 . S
C1502 C1500 1.391 . S
C1502 C1503 1.400 . S
C1503 C1502 1.400 . S
C1503 C1504 1.398 . S
C1503 C1509 1.491 . S
C1504 H1495 0.950 . S
C1504 C1503 1.398 . S
C1504 C1505 1.391 . S
C1505 H1493 0.950 . S
C1505 C1501 1.393 . S
C1505 C1504 1.391 . S
C1506 H1496 0.950 . S
C1506 C1507 1.386 . S
C1506 C1508 1.391 . S
C1507 C1506 1.386 . S
C1507 C1511 1.393 . S
C1508 H1497 0.950 . S
C1508 C1506 1.391 . S
C1508 C1509 1.400 . S
C1509 C1503 1.491 . S
C1509 C1508 1.400 . S
C1509 C1510 1.398 . S
C1510 H1498 0.950 . S
C1510 C1509 1.398 . S
C1510 C1511 1.391 . S
C1511 H1499 0.950 . S
C1511 C1507 1.393 . S
C1511 C1510 1.391 . S
H1512 C1520 0.950 . S
H1513 C1525 0.950 . S
H1514 C1522 0.950 . S
H1515 C1524 0.950 . S
H1516 C1526 0.950 . S
H1517 C1528 0.950 . S
H1518 C1530 0.950 . S
H1519 C1531 0.950 . S
C1520 H1512 0.950 . S
C1520 C1521 1.386 . S
C1520 C1522 1.391 . S
C1521 C1520 1.386 . S
C1521 C1525 1.393 . S
C1522 H1514 0.950 . S
C1522 C1520 1.391 . S
C1522 C1523 1.400 . S
C1523 C1522 1.400 . S
C1523 C1524 1.398 . S
C1523 C1529 1.491 . S
C1524 H1515 0.950 . S
C1524 C1523 1.398 . S
C1524 C1525 1.391 . S
C1525 H1513 0.950 . S
C1525 C1521 1.393 . S
C1525 C1524 1.391 . S
C1526 H1516 0.950 . S
C1526 C1527 1.386 . S
C1526 C1528 1.391 . S
C1527 C1526 1.386 . S
C1527 C1531 1.393 . S
C1528 H1517 0.950 . S
C1528 C1526 1.391 . S
C1528 C1529 1.400 . S
C1529 C1523 1.491 . S
C1529 C1528 1.400 . S
C1529 C1530 1.398 . S
C1530 H1518 0.950 . S
C1530 C1529 1.398 . S
C1530 C1531 1.391 . S
C1531 H1519 0.950 . S
C1531 C1527 1.393 . S
C1531 C1530 1.391 . S
H1532 C1540 0.950 . S
H1533 C1545 0.950 . S
H1534 C1542 0.950 . S
H1535 C1544 0.950 . S
H1536 C1546 0.950 . S
H1537 C1548 0.950 . S
H1538 C1550 0.950 . S
H1539 C1551 0.950 . S
C1540 H1532 0.950 . S
C1540 C1541 1.386 . S
C1540 C1542 1.391 . S
C1541 C1540 1.386 . S
C1541 C1545 1.393 . S
C1542 H1534 0.950 . S
C1542 C1540 1.391 . S
C1542 C1543 1.400 . S
C1543 C1542 1.400 . S
C1543 C1544 1.398 . S
C1543 C1549 1.491 . S
C1544 H1535 0.950 . S
C1544 C1543 1.398 . S
C1544 C1545 1.391 . S
C1545 H1533 0.950 . S
C1545 C1541 1.393 . S
C1545 C1544 1.391 . S
C1546 H1536 0.950 . S
C1546 C1547 1.386 . S
C1546 C1548 1.391 . S
C1547 C1546 1.386 . S
C1547 C1551 1.393 . S
C1548 H1537 0.950 . S
C1548 C1546 1.391 . S
C1548 C1549 1.400 . S
C1549 C1543 1.491 . S
C1549 C1548 1.400 . S
C1549 C1550 1.398 . S
C1550 H1538 0.950 . S
C1550 C1549 1.398 . S
C1550 C1551 1.391 . S
C1551 H1539 0.950 . S
C1551 C1547 1.393 . S
C1551 C1550 1.391 . S
H1552 C1560 0.950 . S
H1553 C1565 0.950 . S
H1554 C1562 0.950 . S
H1555 C1564 0.950 . S
H1556 C1566 0.950 . S
H1557 C1568 0.950 . S
H1558 C1570 0.950 . S
H1559 C1571 0.950 . S
C1560 H1552 0.950 . S
C1560 C1561 1.386 . S
C1560 C1562 1.391 . S
C1561 C1560 1.386 . S
C1561 C1565 1.393 . S
C1562 H1554 0.950 . S
C1562 C1560 1.391 . S
C1562 C1563 1.400 . S
C1563 C1562 1.400 . S
C1563 C1564 1.398 . S
C1563 C1569 1.491 . S
C1564 H1555 0.950 . S
C1564 C1563 1.398 . S
C1564 C1565 1.391 . S
C1565 H1553 0.950 . S
C1565 C1561 1.393 . S
C1565 C1564 1.391 . S
C1566 H1556 0.950 . S
C1566 C1567 1.386 . S
C1566 C1568 1.391 . S
C1567 C1566 1.386 . S
C1567 C1571 1.393 . S
C1568 H1557 0.950 . S
C1568 C1566 1.391 . S
C1568 C1569 1.400 . S
C1569 C1563 1.491 . S
C1569 C1568 1.400 . S
C1569 C1570 1.398 . S
C1570 H1558 0.950 . S
C1570 C1569 1.398 . S
C1570 C1571 1.391 . S
C1571 H1559 0.950 . S
C1571 C1567 1.393 . S
C1571 C1570 1.391 . S
H1572 C1580 0.950 . S
H1573 C1585 0.950 . S
H1574 C1582 0.950 . S
H1575 C1584 0.950 . S
H1576 C1586 0.950 . S
H1577 C1588 0.950 . S
H1578 C1590 0.950 . S
H1579 C1591 0.950 . S
C1580 H1572 0.950 . S
C1580 C1581 1.386 . S
C1580 C1582 1.391 . S
C1581 C1580 1.386 . S
C1581 C1585 1.393 . S
C1582 H1574 0.950 . S
C1582 C1580 1.391 . S
C1582 C1583 1.400 . S
C1583 C1582 1.400 . S
C1583 C1584 1.398 . S
C1583 C1589 1.491 . S
C1584 H1575 0.950 . S
C1584 C1583 1.398 . S
C1584 C1585 1.391 . S
C1585 H1573 0.950 . S
C1585 C1581 1.393 . S
C1585 C1584 1.391 . S
C1586 H1576 0.950 . S
C1586 C1587 1.386 . S
C1586 C1588 1.391 . S
C1587 C1586 1.386 . S
C1587 C1591 1.393 . S
C1588 H1577 0.950 . S
C1588 C1586 1.391 . S
C1588 C1589 1.400 . S
C1589 C1583 1.491 . S
C1589 C1588 1.400 . S
C1589 C1590 1.398 . S
C1590 H1578 0.950 . S
C1590 C1589 1.398 . S
C1590 C1591 1.391 . S
C1591 H1579 0.950 . S
C1591 C1587 1.393 . S
C1591 C1590 1.391 . S
H1592 C1600 0.950 . S
H1593 C1605 0.950 . S
H1594 C1602 0.950 . S
H1595 C1604 0.950 . S
H1596 C1606 0.950 . S
H1597 C1608 0.950 . S
H1598 C1610 0.950 . S
H1599 C1611 0.950 . S
C1600 H1592 0.950 . S
C1600 C1601 1.386 . S
C1600 C1602 1.391 . S
C1601 C1600 1.386 . S
C1601 C1605 1.393 . S
C1602 H1594 0.950 . S
C1602 C1600 1.391 . S
C1602 C1603 1.400 . S
C1603 C1602 1.400 . S
C1603 C1604 1.398 . S
C1603 C1609 1.491 . S
C1604 H1595 0.950 . S
C1604 C1603 1.398 . S
C1604 C1605 1.391 . S
C1605 H1593 0.950 . S
C1605 C1601 1.393 . S
C1605 C1604 1.391 . S
C1606 H1596 0.950 . S
C1606 C1607 1.386 . S
C1606 C1608 1.391 . S
C1607 C1606 1.386 . S
C1607 C1611 1.393 . S
C1608 H1597 0.950 . S
C1608 C1606 1.391 . S
C1608 C1609 1.400 . S
C1609 C1603 1.491 . S
C1609 C1608 1.400 . S
C1609 C1610 1.398 . S
C1610 H1598 0.950 . S
C1610 C1609 1.398 . S
C1610 C1611 1.391 . S
C1611 H1599 0.950 . S
C1611 C1607 1.393 . S
C1611 C1610 1.391 . S
H1612 C1620 0.950 . S
H1613 C1625 0.950 . S
H1614 C1622 0.950 . S
H1615 C1624 0.950 . S
H1616 C1626 0.950 . S
H1617 C1628 0.950 . S
H1618 C1630 0.950 . S
H1619 C1631 0.950 . S
C1620 H1612 0.950 . S
C1620 C1621 1.386 . S
C1620 C1622 1.391 . S
C1621 C1620 1.386 . S
C1621 C1625 1.393 . S
C1622 H1614 0.950 . S
C1622 C1620 1.391 . S
C1622 C1623 1.400 . S
C1623 C1622 1.400 . S
C1623 C1624 1.398 . S
C1623 C1629 1.491 . S
C1624 H1615 0.950 . S
C1624 C1623 1.398 . S
C1624 C1625 1.391 . S
C1625 H1613 0.950 . S
C1625 C1621 1.393 . S
C1625 C1624 1.391 . S
C1626 H1616 0.950 . S
C1626 C1627 1.386 . S
C1626 C1628 1.391 . S
C1627 C1626 1.386 . S
C1627 C1631 1.393 . S
C1628 H1617 0.950 . S
C1628 C1626 1.391 . S
C1628 C1629 1.400 . S
C1629 C1623 1.491 . S
C1629 C1628 1.400 . S
C1629 C1630 1.398 . S
C1630 H1618 0.950 . S
C1630 C1629 1.398 . S
C1630 C1631 1.391 . S
C1631 H1619 0.950 . S
C1631 C1627 1.393 . S
C1631 C1630 1.391 . S
H1632 C1640 0.950 . S
H1633 C1645 0.950 . S
H1634 C1642 0.950 . S
H1635 C1644 0.950 . S
H1636 C1646 0.950 . S
H1637 C1648 0.950 . S
H1638 C1650 0.950 . S
H1639 C1651 0.950 . S
C1640 H1632 0.950 . S
C1640 C1641 1.386 . S
C1640 C1642 1.391 . S
C1641 C1640 1.386 . S
C1641 C1645 1.393 . S
C1642 H1634 0.950 . S
C1642 C1640 1.391 . S
C1642 C1643 1.400 . S
C1643 C1642 1.400 . S
C1643 C1644 1.398 . S
C1643 C1649 1.491 . S
C1644 H1635 0.950 . S
C1644 C1643 1.398 . S
C1644 C1645 1.391 . S
C1645 H1633 0.950 . S
C1645 C1641 1.393 . S
C1645 C1644 1.391 . S
C1646 H1636 0.950 . S
C1646 C1647 1.386 . S
C1646 C1648 1.391 . S
C1647 C1646 1.386 . S
C1647 C1651 1.393 . S
C1648 H1637 0.950 . S
C1648 C1646 1.391 . S
C1648 C1649 1.400 . S
C1649 C1643 1.491 . S
C1649 C1648 1.400 . S
C1649 C1650 1.398 . S
C1650 H1638 0.950 . S
C1650 C1649 1.398 . S
C1650 C1651 1.391 . S
C1651 H1639 0.950 . S
C1651 C1647 1.393 . S
C1651 C1650 1.391 . S
H1652 C1660 0.950 . S
H1653 C1665 0.950 . S
H1654 C1662 0.950 . S
H1655 C1664 0.950 . S
H1656 C1666 0.950 . S
H1657 C1668 0.950 . S
H1658 C1670 0.950 . S
H1659 C1671 0.950 . S
C1660 H1652 0.950 . S
C1660 C1661 1.386 . S
C1660 C1662 1.391 . S
C1661 C1660 1.386 . S
C1661 C1665 1.393 . S
C1662 H1654 0.950 . S
C1662 C1660 1.391 . S
C1662 C1663 1.400 . S
C1663 C1662 1.400 . S
C1663 C1664 1.398 . S
C1663 C1669 1.491 . S
C1664 H1655 0.950 . S
C1664 C1663 1.398 . S
C1664 C1665 1.391 . S
C1665 H1653 0.950 . S
C1665 C1661 1.393 . S
C1665 C1664 1.391 . S
C1666 H1656 0.950 . S
C1666 C1667 1.386 . S
C1666 C1668 1.391 . S
C1667 C1666 1.386 . S
C1667 C1671 1.393 . S
C1668 H1657 0.950 . S
C1668 C1666 1.391 . S
C1668 C1669 1.400 . S
C1669 C1663 1.491 . S
C1669 C1668 1.400 . S
C1669 C1670 1.398 . S
C1670 H1658 0.950 . S
C1670 C1669 1.398 . S
C1670 C1671 1.391 . S
C1671 H1659 0.950 . S
C1671 C1667 1.393 . S
C1671 C1670 1.391 . S
H1672 C1680 0.950 . S
H1673 C1685 0.950 . S
H1674 C1682 0.950 . S
H1675 C1684 0.950 . S
H1676 C1686 0.950 . S
H1677 C1688 0.950 . S
H1678 C1690 0.950 . S
H1679 C1691 0.950 . S
C1680 H1672 0.950 . S
C1680 C1681 1.386 . S
C1680 C1682 1.391 . S
C1681 C1680 1.386 . S
C1681 C1685 1.393 . S
C1682 H1674 0.950 . S
C1682 C1680 1.391 . S
C1682 C1683 1.400 . S
C1683 C1682 1.400 . S
C1683 C1684 1.398 . S
C1683 C1689 1.491 . S
C1684 H1675 0.950 . S
C1684 C1683 1.398 . S
C1684 C1685 1.391 . S
C1685 H1673 0.950 . S
C1685 C1681 1.393 . S
C1685 C1684 1.391 . S
C1686 H1676 0.950 . S
C1686 C1687 1.386 . S
C1686 C1688 1.391 . S
C1687 C1686 1.386 . S
C1687 C1691 1.393 . S
C1688 H1677 0.950 . S
C1688 C1686 1.391 . S
C1688 C1689 1.400 . S
C1689 C1683 1.491 . S
C1689 C1688 1.400 . S
C1689 C1690 1.398 . S
C1690 H1678 0.950 . S
C1690 C1689 1.398 . S
C1690 C1691 1.391 . S
C1691 H1679 0.950 . S
C1691 C1687 1.393 . S
C1691 C1690 1.391 . S
H1692 C1700 0.950 . S
H1693 C1705 0.950 . S
H1694 C1702 0.950 . S
H1695 C1704 0.950 . S
H1696 C1706 0.950 . S
H1697 C1708 0.950 . S
H1698 C1710 0.950 . S
H1699 C1711 0.950 . S
C1700 H1692 0.950 . S
C1700 C1701 1.386 . S
C1700 C1702 1.391 . S
C1701 C1700 1.386 . S
C1701 C1705 1.393 . S
C1702 H1694 0.950 . S
C1702 C1700 1.391 . S
C1702 C1703 1.400 . S
C1703 C1702 1.400 . S
C1703 C1704 1.398 . S
C1703 C1709 1.491 . S
C1704 H1695 0.950 . S
C1704 C1703 1.398 . S
C1704 C1705 1.391 . S
C1705 H1693 0.950 . S
C1705 C1701 1.393 . S
C1705 C1704 1.391 . S
C1706 H1696 0.950 . S
C1706 C1707 1.386 . S
C1706 C1708 1.391 . S
C1707 C1706 1.386 . S
C1707 C1711 1.393 . S
C1708 H1697 0.950 . S
C1708 C1706 1.391 . S
C1708 C1709 1.400 . S
C1709 C1703 1.491 . S
C1709 C1708 1.400 . S
C1709 C1710 1.398 . S
C1710 H1698 0.950 . S
C1710 C1709 1.398 . S
C1710 C1711 1.391 . S
C1711 H1699 0.950 . S
C1711 C1707 1.393 . S
C1711 C1710 1.391 . S
H1712 C1720 0.950 . S
H1713 C1725 0.950 . S
H1714 C1722 0.950 . S
H1715 C1724 0.950 . S
H1716 C1726 0.950 . S
H1717 C1728 0.950 . S
H1718 C1730 0.950 . S
H1719 C1731 0.950 . S
C1720 H1712 0.950 . S
C1720 C1721 1.386 . S
C1720 C1722 1.391 . S
C1721 C1720 1.386 . S
C1721 C1725 1.393 . S
C1722 H1714 0.950 . S
C1722 C1720 1.391 . S
C1722 C1723 1.400 . S
C1723 C1722 1.400 . S
C1723 C1724 1.398 . S
C1723 C1729 1.491 . S
C1724 H1715 0.950 . S
C1724 C1723 1.398 . S
C1724 C1725 1.391 . S
C1725 H1713 0.950 . S
C1725 C1721 1.393 . S
C1725 C1724 1.391 . S
C1726 H1716 0.950 . S
C1726 C1727 1.386 . S
C1726 C1728 1.391 . S
C1727 C1726 1.386 . S
C1727 C1731 1.393 . S
C1728 H1717 0.950 . S
C1728 C1726 1.391 . S
C1728 C1729 1.400 . S
C1729 C1723 1.491 . S
C1729 C1728 1.400 . S
C1729 C1730 1.398 . S
C1730 H1718 0.950 . S
C1730 C1729 1.398 . S
C1730 C1731 1.391 . S
C1731 H1719 0.950 . S
C1731 C1727 1.393 . S
C1731 C1730 1.391 . S
H1732 C1740 0.950 . S
H1733 C1745 0.950 . S
H1734 C1742 0.950 . S
H1735 C1744 0.950 . S
H1736 C1746 0.950 . S
H1737 C1748 0.950 . S
H1738 C1750 0.950 . S
H1739 C1751 0.950 . S
C1740 H1732 0.950 . S
C1740 C1741 1.386 . S
C1740 C1742 1.391 . S
C1741 C1740 1.386 . S
C1741 C1745 1.393 . S
C1742 H1734 0.950 . S
C1742 C1740 1.391 . S
C1742 C1743 1.400 . S
C1743 C1742 1.400 . S
C1743 C1744 1.398 . S
C1743 C1749 1.491 . S
C1744 H1735 0.950 . S
C1744 C1743 1.398 . S
C1744 C1745 1.391 . S
C1745 H1733 0.950 . S
C1745 C1741 1.393 . S
C1745 C1744 1.391 . S
C1746 H1736 0.950 . S
C1746 C1747 1.386 . S
C1746 C1748 1.391 . S
C1747 C1746 1.386 . S
C1747 C1751 1.393 . S
C1748 H1737 0.950 . S
C1748 C1746 1.391 . S
C1748 C1749 1.400 . S
C1749 C1743 1.491 . S
C1749 C1748 1.400 . S
C1749 C1750 1.398 . S
C1750 H1738 0.950 . S
C1750 C1749 1.398 . S
C1750 C1751 1.391 . S
C1751 H1739 0.950 . S
C1751 C1747 1.393 . S
C1751 C1750 1.391 . S
H1752 C1760 0.950 . S
H1753 C1765 0.950 . S
H1754 C1762 0.950 . S
H1755 C1764 0.950 . S
H1756 C1766 0.950 . S
H1757 C1768 0.950 . S
H1758 C1770 0.950 . S
H1759 C1771 0.950 . S
C1760 H1752 0.950 . S
C1760 C1761 1.386 . S
C1760 C1762 1.391 . S
C1761 C1760 1.386 . S
C1761 C1765 1.393 . S
C1762 H1754 0.950 . S
C1762 C1760 1.391 . S
C1762 C1763 1.400 . S
C1763 C1762 1.400 . S
C1763 C1764 1.398 . S
C1763 C1769 1.491 1_556 S
C1764 H1755 0.950 . S
C1764 C1763 1.398 . S
C1764 C1765 1.391 . S
C1765 H1753 0.950 . S
C1765 C1761 1.393 . S
C1765 C1764 1.391 . S
C1766 H1756 0.950 . S
C1766 C1767 1.386 . S
C1766 C1768 1.391 . S
C1767 C1766 1.386 . S
C1767 C1771 1.393 . S
C1768 H1757 0.950 . S
C1768 C1766 1.391 . S
C1768 C1769 1.400 . S
C1769 C1763 1.491 1_554 S
C1769 C1768 1.400 . S
C1769 C1770 1.398 . S
C1770 H1758 0.950 . S
C1770 C1769 1.398 . S
C1770 C1771 1.391 . S
C1771 H1759 0.950 . S
C1771 C1767 1.393 . S
C1771 C1770 1.391 . S
H1772 C1780 0.950 . S
H1773 C1785 0.950 . S
H1774 C1782 0.950 . S
H1775 C1784 0.950 . S
H1776 C1786 0.950 . S
H1777 C1788 0.950 . S
H1778 C1790 0.950 . S
H1779 C1791 0.950 . S
C1780 H1772 0.950 . S
C1780 C1781 1.386 . S
C1780 C1782 1.391 . S
C1781 C1780 1.386 . S
C1781 C1785 1.393 . S
C1782 H1774 0.950 . S
C1782 C1780 1.391 . S
C1782 C1783 1.400 . S
C1783 C1782 1.400 . S
C1783 C1784 1.398 . S
C1783 C1789 1.491 1_556 S
C1784 H1775 0.950 . S
C1784 C1783 1.398 . S
C1784 C1785 1.391 . S
C1785 H1773 0.950 . S
C1785 C1781 1.393 . S
C1785 C1784 1.391 . S
C1786 H1776 0.950 . S
C1786 C1787 1.386 . S
C1786 C1788 1.391 . S
C1787 C1786 1.386 . S
C1787 C1791 1.393 . S
C1788 H1777 0.950 . S
C1788 C1786 1.391 . S
C1788 C1789 1.400 . S
C1789 C1783 1.491 1_554 S
C1789 C1788 1.400 . S
C1789 C1790 1.398 . S
C1790 H1778 0.950 . S
C1790 C1789 1.398 . S
C1790 C1791 1.391 . S
C1791 H1779 0.950 . S
C1791 C1787 1.393 . S
C1791 C1790 1.391 . S
H1792 C1800 0.950 . S
H1793 C1805 0.950 . S
H1794 C1802 0.950 . S
H1795 C1804 0.950 . S
H1796 C1806 0.950 . S
H1797 C1808 0.950 . S
H1798 C1810 0.950 . S
H1799 C1811 0.950 . S
C1800 H1792 0.950 . S
C1800 C1801 1.386 . S
C1800 C1802 1.391 . S
C1801 C1800 1.386 . S
C1801 C1805 1.393 . S
C1802 H1794 0.950 . S
C1802 C1800 1.391 . S
C1802 C1803 1.400 . S
C1803 C1802 1.400 . S
C1803 C1804 1.398 . S
C1803 C1809 1.491 1_554 S
C1804 H1795 0.950 . S
C1804 C1803 1.398 . S
C1804 C1805 1.391 . S
C1805 H1793 0.950 . S
C1805 C1801 1.393 . S
C1805 C1804 1.391 . S
C1806 H1796 0.950 . S
C1806 C1807 1.386 . S
C1806 C1808 1.391 . S
C1807 C1806 1.386 . S
C1807 C1811 1.393 . S
C1808 H1797 0.950 . S
C1808 C1806 1.391 . S
C1808 C1809 1.400 . S
C1809 C1803 1.491 1_556 S
C1809 C1808 1.400 . S
C1809 C1810 1.398 . S
C1810 H1798 0.950 . S
C1810 C1809 1.398 . S
C1810 C1811 1.391 . S
C1811 H1799 0.950 . S
C1811 C1807 1.393 . S
C1811 C1810 1.391 . S
H1812 C1820 0.950 . S
H1813 C1825 0.950 . S
H1814 C1822 0.950 . S
H1815 C1824 0.950 . S
H1816 C1826 0.950 . S
H1817 C1828 0.950 . S
H1818 C1830 0.950 . S
H1819 C1831 0.950 . S
C1820 H1812 0.950 . S
C1820 C1821 1.386 . S
C1820 C1822 1.391 . S
C1821 C1820 1.386 . S
C1821 C1825 1.393 . S
C1822 H1814 0.950 . S
C1822 C1820 1.391 . S
C1822 C1823 1.400 . S
C1823 C1822 1.400 . S
C1823 C1824 1.398 . S
C1823 C1829 1.491 1_556 S
C1824 H1815 0.950 . S
C1824 C1823 1.398 . S
C1824 C1825 1.391 . S
C1825 H1813 0.950 . S
C1825 C1821 1.393 . S
C1825 C1824 1.391 . S
C1826 H1816 0.950 . S
C1826 C1827 1.386 . S
C1826 C1828 1.391 . S
C1827 C1826 1.386 . S
C1827 C1831 1.393 . S
C1828 H1817 0.950 . S
C1828 C1826 1.391 . S
C1828 C1829 1.400 . S
C1829 C1823 1.491 1_554 S
C1829 C1828 1.400 . S
C1829 C1830 1.398 . S
C1830 H1818 0.950 . S
C1830 C1829 1.398 . S
C1830 C1831 1.391 . S
C1831 H1819 0.950 . S
C1831 C1827 1.393 . S
C1831 C1830 1.391 . S
H1832 C1840 0.950 . S
H1833 C1845 0.950 . S
H1834 C1842 0.950 . S
H1835 C1844 0.950 . S
H1836 C1846 0.950 . S
H1837 C1848 0.950 . S
H1838 C1850 0.950 . S
H1839 C1851 0.950 . S
C1840 H1832 0.950 . S
C1840 C1841 1.386 . S
C1840 C1842 1.391 . S
C1841 C1840 1.386 . S
C1841 C1845 1.393 . S
C1842 H1834 0.950 . S
C1842 C1840 1.391 . S
C1842 C1843 1.400 . S
C1843 C1842 1.400 . S
C1843 C1844 1.398 . S
C1843 C1849 1.491 1_556 S
C1844 H1835 0.950 . S
C1844 C1843 1.398 . S
C1844 C1845 1.391 . S
C1845 H1833 0.950 . S
C1845 C1841 1.393 . S
C1845 C1844 1.391 . S
C1846 H1836 0.950 . S
C1846 C1847 1.386 . S
C1846 C1848 1.391 . S
C1847 C1846 1.386 . S
C1847 C1851 1.393 . S
C1848 H1837 0.950 . S
C1848 C1846 1.391 . S
C1848 C1849 1.400 . S
C1849 C1843 1.491 1_554 S
C1849 C1848 1.400 . S
C1849 C1850 1.398 . S
C1850 H1838 0.950 . S
C1850 C1849 1.398 . S
C1850 C1851 1.391 . S
C1851 H1839 0.950 . S
C1851 C1847 1.393 . S
C1851 C1850 1.391 . S
H1852 C1860 0.950 . S
H1853 C1865 0.950 . S
H1854 C1862 0.950 . S
H1855 C1864 0.950 . S
H1856 C1866 0.950 . S
H1857 C1868 0.950 . S
H1858 C1870 0.950 . S
H1859 C1871 0.950 . S
C1860 H1852 0.950 . S
C1860 C1861 1.386 . S
C1860 C1862 1.391 . S
C1861 C1860 1.386 . S
C1861 C1865 1.393 . S
C1862 H1854 0.950 . S
C1862 C1860 1.391 . S
C1862 C1863 1.400 . S
C1863 C1862 1.400 . S
C1863 C1864 1.398 . S
C1863 C1869 1.491 1_554 S
C1864 H1855 0.950 . S
C1864 C1863 1.398 . S
C1864 C1865 1.391 . S
C1865 H1853 0.950 . S
C1865 C1861 1.393 . S
C1865 C1864 1.391 . S
C1866 H1856 0.950 . S
C1866 C1867 1.386 . S
C1866 C1868 1.391 . S
C1867 C1866 1.386 . S
C1867 C1871 1.393 . S
C1868 H1857 0.950 . S
C1868 C1866 1.391 . S
C1868 C1869 1.400 . S
C1869 C1863 1.491 1_556 S
C1869 C1868 1.400 . S
C1869 C1870 1.398 . S
C1870 H1858 0.950 . S
C1870 C1869 1.398 . S
C1870 C1871 1.391 . S
C1871 H1859 0.950 . S
C1871 C1867 1.393 . S
C1871 C1870 1.391 . S
H1872 C1880 0.950 . S
H1873 C1885 0.950 . S
H1874 C1882 0.950 . S
H1875 C1884 0.950 . S
H1876 C1886 0.950 . S
H1877 C1888 0.950 . S
H1878 C1890 0.950 . S
H1879 C1891 0.950 . S
C1880 H1872 0.950 . S
C1880 C1881 1.386 . S
C1880 C1882 1.391 . S
C1881 C1880 1.386 . S
C1881 C1885 1.393 . S
C1882 H1874 0.950 . S
C1882 C1880 1.391 . S
C1882 C1883 1.400 . S
C1883 C1882 1.400 . S
C1883 C1884 1.398 . S
C1883 C1889 1.491 . S
C1884 H1875 0.950 . S
C1884 C1883 1.398 . S
C1884 C1885 1.391 . S
C1885 H1873 0.950 . S
C1885 C1881 1.393 . S
C1885 C1884 1.391 . S
C1886 H1876 0.950 . S
C1886 C1887 1.386 . S
C1886 C1888 1.391 . S
C1887 C1886 1.386 . S
C1887 C1891 1.393 . S
C1888 H1877 0.950 . S
C1888 C1886 1.391 . S
C1888 C1889 1.400 . S
C1889 C1883 1.491 . S
C1889 C1888 1.400 . S
C1889 C1890 1.398 . S
C1890 H1878 0.950 . S
C1890 C1889 1.398 . S
C1890 C1891 1.391 . S
C1891 H1879 0.950 . S
C1891 C1887 1.393 . S
C1891 C1890 1.391 . S
H1892 C1900 0.950 . S
H1893 C1905 0.950 . S
H1894 C1902 0.950 . S
H1895 C1904 0.950 . S
H1896 C1906 0.950 . S
H1897 C1908 0.950 . S
H1898 C1910 0.950 . S
H1899 C1911 0.950 . S
C1900 H1892 0.950 . S
C1900 C1901 1.386 . S
C1900 C1902 1.391 . S
C1901 C1900 1.386 . S
C1901 C1905 1.393 . S
C1902 H1894 0.950 . S
C1902 C1900 1.391 . S
C1902 C1903 1.400 . S
C1903 C1902 1.400 . S
C1903 C1904 1.398 . S
C1903 C1909 1.491 . S
C1904 H1895 0.950 . S
C1904 C1903 1.398 . S
C1904 C1905 1.391 . S
C1905 H1893 0.950 . S
C1905 C1901 1.393 . S
C1905 C1904 1.391 . S
C1906 H1896 0.950 . S
C1906 C1907 1.386 . S
C1906 C1908 1.391 . S
C1907 C1906 1.386 . S
C1907 C1911 1.393 . S
C1908 H1897 0.950 . S
C1908 C1906 1.391 . S
C1908 C1909 1.400 . S
C1909 C1903 1.491 . S
C1909 C1908 1.400 . S
C1909 C1910 1.398 . S
C1910 H1898 0.950 . S
C1910 C1909 1.398 . S
C1910 C1911 1.391 . S
C1911 H1899 0.950 . S
C1911 C1907 1.393 . S
C1911 C1910 1.391 . S
H1912 C1920 0.950 . S
H1913 C1925 0.950 . S
H1914 C1922 0.950 . S
H1915 C1924 0.950 . S
H1916 C1926 0.950 . S
H1917 C1928 0.950 . S
H1918 C1930 0.950 . S
H1919 C1931 0.950 . S
C1920 H1912 0.950 . S
C1920 C1921 1.386 . S
C1920 C1922 1.391 . S
C1921 C1920 1.386 . S
C1921 C1925 1.393 . S
C1922 H1914 0.950 . S
C1922 C1920 1.391 . S
C1922 C1923 1.400 . S
C1923 C1922 1.400 . S
C1923 C1924 1.398 . S
C1923 C1929 1.491 . S
C1924 H1915 0.950 . S
C1924 C1923 1.398 . S
C1924 C1925 1.391 . S
C1925 H1913 0.950 . S
C1925 C1921 1.393 . S
C1925 C1924 1.391 . S
C1926 H1916 0.950 . S
C1926 C1927 1.386 . S
C1926 C1928 1.391 . S
C1927 C1926 1.386 . S
C1927 C1931 1.393 . S
C1928 H1917 0.950 . S
C1928 C1926 1.391 . S
C1928 C1929 1.400 . S
C1929 C1923 1.491 . S
C1929 C1928 1.400 . S
C1929 C1930 1.398 . S
C1930 H1918 0.950 . S
C1930 C1929 1.398 . S
C1930 C1931 1.391 . S
C1931 H1919 0.950 . S
C1931 C1927 1.393 . S
C1931 C1930 1.391 . S
H1932 C1940 0.950 . S
H1933 C1945 0.950 . S
H1934 C1942 0.950 . S
H1935 C1944 0.950 . S
H1936 C1946 0.950 . S
H1937 C1948 0.950 . S
H1938 C1950 0.950 . S
H1939 C1951 0.950 . S
C1940 H1932 0.950 . S
C1940 C1941 1.386 . S
C1940 C1942 1.391 . S
C1941 C1940 1.386 . S
C1941 C1945 1.393 . S
C1942 H1934 0.950 . S
C1942 C1940 1.391 . S
C1942 C1943 1.400 . S
C1943 C1942 1.400 . S
C1943 C1944 1.398 . S
C1943 C1949 1.491 . S
C1944 H1935 0.950 . S
C1944 C1943 1.398 . S
C1944 C1945 1.391 . S
C1945 H1933 0.950 . S
C1945 C1941 1.393 . S
C1945 C1944 1.391 . S
C1946 H1936 0.950 . S
C1946 C1947 1.386 . S
C1946 C1948 1.391 . S
C1947 C1946 1.386 . S
C1947 C1951 1.393 . S
C1948 H1937 0.950 . S
C1948 C1946 1.391 . S
C1948 C1949 1.400 . S
C1949 C1943 1.491 . S
C1949 C1948 1.400 . S
C1949 C1950 1.398 . S
C1950 H1938 0.950 . S
C1950 C1949 1.398 . S
C1950 C1951 1.391 . S
C1951 H1939 0.950 . S
C1951 C1947 1.393 . S
C1951 C1950 1.391 . S
H1952 C1960 0.950 . S
H1953 C1965 0.950 . S
H1954 C1962 0.950 . S
H1955 C1964 0.950 . S
H1956 C1966 0.950 . S
H1957 C1968 0.950 . S
H1958 C1970 0.950 . S
H1959 C1971 0.950 . S
C1960 H1952 0.950 . S
C1960 C1961 1.386 . S
C1960 C1962 1.391 . S
C1961 C1960 1.386 . S
C1961 C1965 1.393 . S
C1962 H1954 0.950 . S
C1962 C1960 1.391 . S
C1962 C1963 1.400 . S
C1963 C1962 1.400 . S
C1963 C1964 1.398 . S
C1963 C1969 1.491 . S
C1964 H1955 0.950 . S
C1964 C1963 1.398 . S
C1964 C1965 1.391 . S
C1965 H1953 0.950 . S
C1965 C1961 1.393 . S
C1965 C1964 1.391 . S
C1966 H1956 0.950 . S
C1966 C1967 1.386 . S
C1966 C1968 1.391 . S
C1967 C1966 1.386 . S
C1967 C1971 1.393 . S
C1968 H1957 0.950 . S
C1968 C1966 1.391 . S
C1968 C1969 1.400 . S
C1969 C1963 1.491 . S
C1969 C1968 1.400 . S
C1969 C1970 1.398 . S
C1970 H1958 0.950 . S
C1970 C1969 1.398 . S
C1970 C1971 1.391 . S
C1971 H1959 0.950 . S
C1971 C1967 1.393 . S
C1971 C1970 1.391 . S
H1972 C1980 0.950 . S
H1973 C1985 0.950 . S
H1974 C1982 0.950 . S
H1975 C1984 0.950 . S
H1976 C1986 0.950 . S
H1977 C1988 0.950 . S
H1978 C1990 0.950 . S
H1979 C1991 0.950 . S
C1980 H1972 0.950 . S
C1980 C1981 1.386 . S
C1980 C1982 1.391 . S
C1981 C1980 1.386 . S
C1981 C1985 1.393 . S
C1982 H1974 0.950 . S
C1982 C1980 1.391 . S
C1982 C1983 1.400 . S
C1983 C1982 1.400 . S
C1983 C1984 1.398 . S
C1983 C1989 1.491 . S
C1984 H1975 0.950 . S
C1984 C1983 1.398 . S
C1984 C1985 1.391 . S
C1985 H1973 0.950 . S
C1985 C1981 1.393 . S
C1985 C1984 1.391 . S
C1986 H1976 0.950 . S
C1986 C1987 1.386 . S
C1986 C1988 1.391 . S
C1987 C1986 1.386 . S
C1987 C1991 1.393 . S
C1988 H1977 0.950 . S
C1988 C1986 1.391 . S
C1988 C1989 1.400 . S
C1989 C1983 1.491 . S
C1989 C1988 1.400 . S
C1989 C1990 1.398 . S
C1990 H1978 0.950 . S
C1990 C1989 1.398 . S
C1990 C1991 1.391 . S
C1991 H1979 0.950 . S
C1991 C1987 1.393 . S
C1991 C1990 1.391 . S
C561 C203 1.838 . S
C567 C19 1.859 . S
C581 C42 1.870 . S
C587 C226 1.847 . S
C601 C65 1.840 . S
C607 C249 1.853 . S
C621 C88 1.870 . S
C627 C272 1.852 . S
C641 C111 1.852 . S
C647 C157 1.870 . S
C661 C180 1.862 . S
C667 C134 1.864 . S
C681 C479 1.870 . S
C687 C295 1.848 . S
C701 C502 1.839 . S
C707 C318 1.856 . S
C721 C525 1.854 . S
C727 C341 1.869 . S
C741 C364 1.847 . S
C747 C548 1.844 . S
C761 C433 1.838 . S
C767 C387 1.859 . S
C781 C456 1.854 . S
C787 C410 1.869 . S
C801 C16 2.093 . S
C807 C85 2.094 . S
C821 C108 2.097 . S
C827 C39 2.097 . S
C841 C62 2.095 . S
C847 C131 2.096 . S
C861 C154 2.096 . S
C867 C223 2.097 . S
C881 C177 2.086 . S
C887 C246 2.084 . S
C901 C200 2.079 . S
C907 C269 2.080 . S
C921 C361 2.079 . S
C927 C292 2.079 . S
C941 C315 2.098 . S
C947 C384 2.097 . S
C961 C407 2.082 . S
C967 C338 2.083 . S
C981 C430 2.097 . S
C987 C499 2.096 . S
C1001 C453 2.099 . S
C1007 C522 2.099 . S
C1021 C545 2.098 . S
C1027 C476 2.098 . S
C1041 C18 0.625 . S
C1047 C248 0.604 . S
C1061 C271 0.621 . S
C1067 C41 0.666 . S
C1081 C64 0.639 . S
C1087 C156 0.605 . S
C1101 C87 0.674 . S
C1107 C179 0.630 . S
C1121 C202 0.624 . S
C1127 C110 0.669 . S
C1141 C225 0.619 . S
C1147 C133 0.606 . S
C1161 C294 0.612 . S
C1167 C524 0.654 . S
C1181 C317 0.608 . S
C1187 C547 0.615 . S
C1201 C340 0.668 . S
C1207 C432 0.691 . S
C1221 C363 0.676 . S
C1227 C455 0.632 . S
C1241 C478 0.646 . S
C1247 C386 0.608 . S
C1261 C501 0.680 . S
C1267 C409 0.638 . S
C1281 C17 0.934 . S
C1287 C112 0.940 . S
C1301 C135 0.938 . S
C1307 C40 0.945 . S
C1321 C63 0.921 . S
C1327 C20 0.925 . S
C1341 C43 0.913 . S
C1347 C86 0.925 . S
C1361 C66 0.912 . S
C1367 C109 0.921 . S
C1381 C89 0.912 . S
C1387 C132 0.923 . S
C1401 C155 0.940 . S
C1407 C204 0.944 . S
C1421 C227 0.913 . S
C1427 C178 0.919 . S
C1441 C201 0.923 . S
C1447 C250 0.928 . S
C1461 C224 0.938 . S
C1467 C273 0.925 . S
C1481 C158 0.943 . S
C1487 C247 0.938 . S
C1501 C270 0.944 . S
C1507 C181 0.944 . S
C1521 C293 0.929 . S
C1527 C388 0.916 . S
C1541 C411 0.930 . S
C1547 C316 0.924 . S
C1561 C296 0.914 . S
C1567 C339 0.926 . S
C1581 C362 0.941 . S
C1587 C319 0.944 . S
C1601 C342 0.938 . S
C1607 C385 0.945 . S
C1621 C408 0.918 . S
C1627 C365 0.916 . S
C1641 C431 0.936 . S
C1647 C480 0.942 . S
C1661 C503 0.914 . S
C1667 C454 0.919 . S
C1681 C526 0.928 . S
C1687 C477 0.941 . S
C1701 C500 0.945 . S
C1707 C549 0.943 . S
C1721 C434 0.940 . S
C1727 C523 0.945 . S
C1741 C546 0.929 . S
C1747 C457 0.936 . S
C1761 C366 1.364 . S
C1767 C21 1.366 . S
C1781 C389 1.371 . S
C1787 C44 1.359 . S
C1801 C67 1.368 . S
C1807 C412 1.363 . S
C1821 C297 1.355 . S
C1827 C90 1.375 . S
C1841 C320 1.355 . S
C1847 C113 1.375 . S
C1861 C136 1.356 . S
C1867 C343 1.374 . S
C1881 C504 1.360 . S
C1887 C159 1.370 . S
C1901 C527 1.369 . S
C1907 C182 1.361 . S
C1921 C205 1.355 . S
C1927 C550 1.375 . S
C1941 C435 1.355 . S
C1947 C228 1.375 . S
C1961 C251 1.376 . S
C1967 C458 1.354 . S
C1981 C481 1.369 . S
C1987 C274 1.361 . S
