# Generated by pormake.
# Topology upd, (4)-cn, num edge types: 1
# Building blocks:
#     Node 0, Type 0, BuildingBlock: MUDLON_clean_sbu_0, # of connection points: 4
#     Node 1, Type 0, BuildingBlock: MUDLON_clean_sbu_0, # of connection points: 4
#     Node 2, Type 0, BuildingBlock: MUDLON_clean_sbu_0, # of connection points: 4
#     Node 3, Type 0, BuildingBlock: MUDLON_clean_sbu_0, # of connection points: 4
#     Node 4, Type 0, BuildingBlock: MUDLON_clean_sbu_0, # of connection points: 4
#     Node 5, Type 0, BuildingBlock: MUDLON_clean_sbu_0, # of connection points: 4
#     Node 6, Type 0, BuildingBlock: MUDLON_clean_sbu_0, # of connection points: 4
#     Node 7, Type 0, BuildingBlock: MUDLON_clean_sbu_0, # of connection points: 4
#     Node 8, Type 0, BuildingBlock: MUDLON_clean_sbu_0, # of connection points: 4
#     Node 9, Type 0, BuildingBlock: MUDLON_clean_sbu_0, # of connection points: 4
#     Node 10, Type 0, BuildingBlock: MUDLON_clean_sbu_0, # of connection points: 4
#     Node 11, Type 0, BuildingBlock: MUDLON_clean_sbu_0, # of connection points: 4
#     Node 12, Type 0, BuildingBlock: MUDLON_clean_sbu_0, # of connection points: 4
#     Node 13, Type 0, BuildingBlock: MUDLON_clean_sbu_0, # of connection points: 4
#     Node 14, Type 0, BuildingBlock: MUDLON_clean_sbu_0, # of connection points: 4
#     Node 15, Type 0, BuildingBlock: MUDLON_clean_sbu_0, # of connection points: 4
#     Node 16, Type 0, BuildingBlock: MUDLON_clean_sbu_0, # of connection points: 4
#     Node 17, Type 0, BuildingBlock: MUDLON_clean_sbu_0, # of connection points: 4
#     Node 18, Type 0, BuildingBlock: MUDLON_clean_sbu_0, # of connection points: 4
#     Node 19, Type 0, BuildingBlock: MUDLON_clean_sbu_0, # of connection points: 4
#     Node 20, Type 0, BuildingBlock: MUDLON_clean_sbu_0, # of connection points: 4
#     Node 21, Type 0, BuildingBlock: MUDLON_clean_sbu_0, # of connection points: 4
#     Node 22, Type 0, BuildingBlock: MUDLON_clean_sbu_0, # of connection points: 4
#     Node 23, Type 0, BuildingBlock: MUDLON_clean_sbu_0, # of connection points: 4
#     Node 24, Type 0, BuildingBlock: MUDLON_clean_sbu_0, # of connection points: 4
#     Node 25, Type 0, BuildingBlock: MUDLON_clean_sbu_0, # of connection points: 4
#     Node 26, Type 0, BuildingBlock: MUDLON_clean_sbu_0, # of connection points: 4
#     Node 27, Type 0, BuildingBlock: MUDLON_clean_sbu_0, # of connection points: 4
#     Node 28, Type 0, BuildingBlock: MUDLON_clean_sbu_0, # of connection points: 4
#     Node 29, Type 0, BuildingBlock: MUDLON_clean_sbu_0, # of connection points: 4
#     Node 30, Type 0, BuildingBlock: MUDLON_clean_sbu_0, # of connection points: 4
#     Node 31, Type 0, BuildingBlock: MUDLON_clean_sbu_0, # of connection points: 4
#     Edge 32, Type (0, 0), None
#     Edge 33, Type (0, 0), None
#     Edge 34, Type (0, 0), None
#     Edge 35, Type (0, 0), None
#     Edge 36, Type (0, 0), None
#     Edge 37, Type (0, 0), None
#     Edge 38, Type (0, 0), None
#     Edge 39, Type (0, 0), None
#     Edge 40, Type (0, 0), None
#     Edge 41, Type (0, 0), None
#     Edge 42, Type (0, 0), None
#     Edge 43, Type (0, 0), None
#     Edge 44, Type (0, 0), None
#     Edge 45, Type (0, 0), None
#     Edge 46, Type (0, 0), None
#     Edge 47, Type (0, 0), None
#     Edge 48, Type (0, 0), None
#     Edge 49, Type (0, 0), None
#     Edge 50, Type (0, 0), None
#     Edge 51, Type (0, 0), None
#     Edge 52, Type (0, 0), None
#     Edge 53, Type (0, 0), None
#     Edge 54, Type (0, 0), None
#     Edge 55, Type (0, 0), None
#     Edge 56, Type (0, 0), None
#     Edge 57, Type (0, 0), None
#     Edge 58, Type (0, 0), None
#     Edge 59, Type (0, 0), None
#     Edge 60, Type (0, 0), None
#     Edge 61, Type (0, 0), None
#     Edge 62, Type (0, 0), None
#     Edge 63, Type (0, 0), None
#     Edge 64, Type (0, 0), None
#     Edge 65, Type (0, 0), None
#     Edge 66, Type (0, 0), None
#     Edge 67, Type (0, 0), None
#     Edge 68, Type (0, 0), None
#     Edge 69, Type (0, 0), None
#     Edge 70, Type (0, 0), None
#     Edge 71, Type (0, 0), None
#     Edge 72, Type (0, 0), None
#     Edge 73, Type (0, 0), None
#     Edge 74, Type (0, 0), None
#     Edge 75, Type (0, 0), None
#     Edge 76, Type (0, 0), None
#     Edge 77, Type (0, 0), None
#     Edge 78, Type (0, 0), None
#     Edge 79, Type (0, 0), None
#     Edge 80, Type (0, 0), None
#     Edge 81, Type (0, 0), None
#     Edge 82, Type (0, 0), None
#     Edge 83, Type (0, 0), None
#     Edge 84, Type (0, 0), None
#     Edge 85, Type (0, 0), None
#     Edge 86, Type (0, 0), None
#     Edge 87, Type (0, 0), None
#     Edge 88, Type (0, 0), None
#     Edge 89, Type (0, 0), None
#     Edge 90, Type (0, 0), None
#     Edge 91, Type (0, 0), None
#     Edge 92, Type (0, 0), None
#     Edge 93, Type (0, 0), None
#     Edge 94, Type (0, 0), None
#     Edge 95, Type (0, 0), None
# Relax obj value: 0.062
# Max RMSD: 0.095
# Mean RMSD: 0.095
data_MOF--net-upd--node1-MUDLON_clean_sbu_0--edge1-none
_symmetry_space_group_name_H-M    P1
_symmetry_Int_Tables_number       1
_symmetry_cell_setting            triclinic
loop_
_symmetry_equiv_pos_as_xyz
'x, y, z'
_cell_length_a     21.262027
_cell_length_b     20.869898
_cell_length_c     29.023315
_cell_angle_alpha  89.999999
_cell_angle_beta   89.999955
_cell_angle_gamma 89.993774
loop_
_atom_site_label
_atom_site_type_symbol
_atom_site_fract_x
_atom_site_fract_y
_atom_site_fract_z
_atom_type_partial_charge
Mg0 Mg 0.16491 0.16543 0.37217 0.0
C1 C 0.03253 0.12092 0.38221 0.0
O2 O 0.06327 0.06701 0.38827 0.0
C3 C 0.21102 0.27512 0.31088 0.0
O4 O 0.16016 0.30433 0.32562 0.0
C5 C 0.19327 0.05321 0.31541 0.0
O6 O 0.18641 0.09891 0.28473 0.0
O7 O 0.18988 0.06684 0.35816 0.0
O8 O 0.06261 0.17009 0.36827 0.0
O9 O 0.18794 0.21338 0.43738 0.0
C10 C 0.1446 0.23436 0.46382 0.0
O11 O 0.0869 0.21343 0.4583 0.0
O12 O 0.2215 0.21778 0.32278 0.0
Mg13 Mg 0.11415 0.87059 0.61343 0.0
C14 C 0.14092 0.72008 0.61032 0.0
O15 O 0.14071 0.66519 0.58819 0.0
C16 C 0.03095 0.97903 0.57763 0.0
O17 O 0.04695 1.00568 0.6169 0.0
C18 C 0.22542 0.91561 0.56398 0.0
O19 O 0.18419 0.90944 0.53057 0.0
O20 O 0.20796 0.90689 0.60533 0.0
O21 O 0.12095 0.77021 0.58972 0.0
O22 O 0.07652 0.88584 0.68217 0.0
C23 C 0.03558 0.84552 0.69502 0.0
O24 O 0.02345 0.797 0.66785 0.0
O25 O 0.052 0.9237 0.56735 0.0
Mg26 Mg 0.35611 0.87478 0.87217 0.0
C27 C 0.48849 0.91929 0.88221 0.0
O28 O 0.45775 0.9732 0.88827 0.0
C29 C 0.30999 0.76508 0.81088 0.0
O30 O 0.36085 0.73587 0.82562 0.0
C31 C 0.32775 0.98699 0.81541 0.0
O32 O 0.33461 0.94129 0.78473 0.0
O33 O 0.33114 0.97336 0.85816 0.0
O34 O 0.45841 0.87012 0.86827 0.0
O35 O 0.33308 0.82683 0.93738 0.0
C36 C 0.37642 0.80585 0.96382 0.0
O37 O 0.43412 0.82677 0.9583 0.0
O38 O 0.29952 0.82243 0.82278 0.0
Mg39 Mg 0.40687 0.16962 0.11343 0.0
C40 C 0.38009 0.32012 0.11032 0.0
O41 O 0.38031 0.37501 0.08819 0.0
C42 C 0.49007 0.06117 0.07763 0.0
O43 O 0.47407 0.03453 0.1169 0.0
C44 C 0.2956 0.12459 0.06398 0.0
O45 O 0.33683 0.13076 1.03057 0.0
O46 O 0.31306 0.13332 0.10533 0.0
O47 O 0.40006 0.26999 0.08971 0.0
O48 O 0.4445 0.15437 0.18217 0.0
C49 C 0.48544 0.19469 0.19502 0.0
O50 O 0.49756 0.24321 0.16785 0.0
O51 O 0.46902 0.11651 0.06735 0.0
Mg52 Mg 0.1647 0.87441 0.24323 0.0
C53 C 0.0326 0.91968 0.23267 0.0
O54 O 0.0636 0.9735 0.22694 0.0
C55 C 0.2087 0.76466 0.30538 0.0
O56 O 0.15722 0.73628 0.29096 0.0
C57 C 0.19318 0.98641 0.30022 0.0
O58 O 0.18585 0.94074 0.33086 0.0
O59 O 0.19007 0.97282 0.25745 0.0
O60 O 0.06237 0.8703 0.24659 0.0
O61 O 0.18811 0.82653 0.17806 0.0
C62 C 0.14493 0.80589 0.15136 0.0
O63 O 0.0873 0.82718 0.15658 0.0
O64 O 0.22035 0.82152 0.29289 0.0
Mg65 Mg 0.40317 0.86853 0.5036 0.0
C66 C 0.3757 0.7182 0.50688 0.0
O67 O 0.37578 0.66333 0.52903 0.0
C68 C 0.48757 0.97677 0.53819 0.0
O69 O 0.47139 1.00295 0.4988 0.0
C70 C 0.29244 0.91519 0.55311 0.0
O71 O 0.33363 0.90901 0.58654 0.0
O72 O 0.30975 0.90578 0.5118 0.0
O73 O 0.39571 0.76831 0.52749 0.0
O74 O 0.44014 0.88253 0.43462 0.0
C75 C 0.48054 0.84167 0.42173 0.0
O76 O 0.49271 0.79337 0.4491 0.0
O77 O 0.4662 0.92175 0.549 0.0
Mg78 Mg 0.35631 0.16579 0.74323 0.0
C79 C 0.48841 0.12053 0.73267 0.0
O80 O 0.45742 0.0667 0.72694 0.0
C81 C 0.31232 0.27555 0.80538 0.0
O82 O 0.3638 0.30393 0.79097 0.0
C83 C 0.32784 0.0538 0.80022 0.0
O84 O 0.33517 0.09947 0.83086 0.0
O85 O 0.33094 0.06739 0.75745 0.0
O86 O 0.45865 0.16991 0.74659 0.0
O87 O 0.3329 0.21368 0.67806 0.0
C88 C 0.37609 0.23431 0.65136 0.0
O89 O 0.43371 0.21302 0.65658 0.0
O90 O 0.30067 0.21869 0.79289 0.0
Mg91 Mg 0.11785 0.17168 1.0036 0.0
C92 C 0.14533 0.322 1.00688 0.0
O93 O 0.14525 0.37687 1.02904 0.0
C94 C 0.03345 0.06344 1.03819 0.0
O95 O 0.04963 0.03725 0.9988 0.0
C96 C 0.22857 0.12501 1.05311 0.0
O97 O 0.18739 0.1312 0.08654 0.0
O98 O 0.21127 0.13442 1.0118 0.0
O99 O 0.12532 0.2719 1.02749 0.0
O100 O 0.08088 0.15768 0.93462 0.0
C101 C 0.04048 0.19854 0.92173 0.0
O102 O 0.02831 0.24684 0.9491 0.0
O103 O 0.05482 0.11845 1.04901 0.0
Mg104 Mg 0.85424 0.86263 0.7445 0.0
C105 C 0.99066 0.86214 0.7314 0.0
O106 O 0.98133 0.92307 0.7403 0.0
C107 C 0.72877 0.81879 0.77654 0.0
O108 O 0.71785 0.88019 0.77071 0.0
C109 C 0.86064 0.99893 0.78667 0.0
O110 O 0.87287 1.01816 0.74453 0.0
O111 O 0.85159 0.93995 0.79469 0.0
O112 O 0.94747 0.82219 0.74105 0.0
O113 O 0.84699 0.88267 0.67131 0.0
C114 C 0.85771 0.83239 0.64758 0.0
O115 O 0.85846 0.77669 0.66844 0.0
O116 O 0.78246 0.79603 0.76621 0.0
Mg117 Mg 0.91158 0.11509 0.50138 0.0
C118 C 0.97299 0.13017 0.40706 0.0
O119 O 0.94968 0.1882 0.41005 0.0
C120 C 0.79383 0.08104 0.55242 0.0
O121 O 0.83345 0.08618 0.58693 0.0
C122 C 0.98955 1.01311 0.54529 0.0
O123 O 0.97298 0.98528 0.50657 0.0
O124 O 0.97008 0.06962 0.55387 0.0
O125 O 0.95667 0.08804 0.43652 0.0
O126 O 0.91509 0.21946 0.50071 0.0
C127 C 0.86773 0.24966 0.48488 0.0
O128 O 0.8149 0.2184 0.47828 0.0
O129 O 0.81399 0.08704 0.51134 0.0
Mg130 Mg 0.66676 0.17758 0.24451 0.0
C131 C 0.53036 0.17807 0.2314 0.0
O132 O 0.53969 0.11714 0.24031 0.0
C133 C 0.79224 0.22141 0.27655 0.0
O134 O 0.80315 0.16001 0.27072 0.0
C135 C 0.66038 0.04129 0.28667 0.0
O136 O 0.64817 0.02205 0.24453 0.0
O137 O 0.66941 0.10027 0.2947 0.0
O138 O 0.57354 0.21802 0.24105 0.0
O139 O 0.67402 0.15754 0.17131 0.0
C140 C 0.6633 0.20782 0.14758 0.0
O141 O 0.66256 0.26351 0.16844 0.0
O142 O 0.73855 0.24418 0.26622 0.0
Mg143 Mg 0.60944 0.92512 1.00137 0.0
C144 C 0.54803 0.91003 0.90706 0.0
O145 O 0.57134 0.85201 0.91005 0.0
C146 C 0.72719 0.95917 1.05241 0.0
O147 O 0.68757 0.95402 0.08693 0.0
C148 C 0.53147 0.02709 1.04529 0.0
O149 O 0.54804 0.05492 1.00657 0.0
O150 O 0.55093 0.97059 1.05387 0.0
O151 O 0.56435 0.95217 0.93652 0.0
O152 O 0.60593 0.82074 1.00071 0.0
C153 C 0.65329 0.79054 0.98488 0.0
O154 O 0.70612 0.8218 0.97827 0.0
O155 O 0.70703 0.95317 1.01134 0.0
Mg156 Mg 0.86191 0.17992 0.86805 0.0
C157 C 0.9962 0.18278 0.88478 0.0
O158 O 0.98705 0.12205 0.87501 0.0
C159 C 0.73539 0.21945 0.83465 0.0
O160 O 0.72635 0.15766 0.84009 0.0
C161 C 0.85685 0.04528 0.82464 0.0
O162 O 0.84078 0.02657 0.8662 0.0
O163 O 0.86851 0.1039 0.8171 0.0
O164 O 0.95334 0.22299 0.87489 0.0
O165 O 0.85238 0.15776 0.9408 0.0
C166 C 0.86069 0.2078 0.96531 0.0
O167 O 0.86019 0.264 0.94514 0.0
O168 O 0.78825 0.24383 0.84534 0.0
Mg169 Mg 0.60819 0.11338 0.61294 0.0
C170 C 0.54772 0.12941 0.70747 0.0
O171 O 0.57102 0.18738 0.704 0.0
C172 C 0.72589 0.08092 0.5615 0.0
O173 O 0.68629 0.08746 0.5271 0.0
C174 C 0.52946 1.01107 0.57008 0.0
O175 O 0.54618 0.98371 0.60894 0.0
O176 O 0.54915 0.06734 0.561 0.0
O177 O 0.56373 0.08694 0.67816 0.0
O178 O 0.60478 0.21779 0.61323 0.0
C179 C 0.65243 0.24801 0.62856 0.0
O180 O 0.70536 0.21674 0.63471 0.0
O181 O 0.70573 0.08539 0.60267 0.0
Mg182 Mg 0.65912 0.86029 0.36805 0.0
C183 C 0.52483 0.85744 0.38478 0.0
O184 O 0.53398 0.91816 0.37501 0.0
C185 C 0.78564 0.82076 0.33465 0.0
O186 O 0.79467 0.88254 0.3401 0.0
C187 C 0.66415 0.99493 0.32465 0.0
O188 O 0.68019 1.01365 0.36622 0.0
O189 O 0.65253 0.93631 0.31711 0.0
O190 O 0.56768 0.81722 0.37489 0.0
O191 O 0.66864 0.88245 0.44081 0.0
C192 C 0.66033 0.83241 0.46531 0.0
O193 O 0.66083 0.77621 0.44514 0.0
O194 O 0.73277 0.79638 0.34534 0.0
Mg195 Mg 0.91283 0.92683 0.11294 0.0
C196 C 0.9733 0.9108 0.20747 0.0
O197 O 0.94999 0.85283 0.20401 0.0
C198 C 0.79512 0.95929 0.0615 0.0
O199 O 0.83473 0.95274 1.0271 0.0
C200 C 0.99156 0.02914 0.07008 0.0
O201 O 0.97484 0.0565 0.10894 0.0
O202 O 0.97187 0.97286 0.061 0.0
O203 O 0.95729 0.95327 0.17816 0.0
O204 O 0.91624 0.82242 0.11324 0.0
C205 C 0.86859 0.79219 0.12857 0.0
O206 O 0.81566 0.82347 0.13471 0.0
O207 O 0.81529 0.95482 0.10267 0.0
Mg208 Mg 0.6534 0.66697 0.86555 0.0
C209 C 0.52332 0.61706 0.87946 0.0
O210 O 0.55581 0.56382 0.88323 0.0
C211 C 0.68408 0.77953 0.80253 0.0
O212 O 0.63524 0.80617 0.8225 0.0
C213 C 0.68961 0.55301 0.81288 0.0
O214 O 0.68317 0.59609 0.78026 0.0
O215 O 0.68338 0.5696 0.85479 0.0
O216 O 0.55123 0.66784 0.86633 0.0
O217 O 0.68272 0.71426 0.92898 0.0
C218 C 0.64255 0.73076 0.95929 0.0
O219 O 0.58533 0.70734 0.95719 0.0
O220 O 0.69865 0.72221 0.8121 0.0
Mg221 Mg 0.60952 0.34973 0.1065 0.0
C222 C 0.64176 0.20327 0.09957 0.0
O223 O 0.64291 0.14761 0.07849 0.0
C224 C 0.52997 0.46491 0.07387 0.0
O225 O 0.54673 0.4893 0.11372 0.0
C226 C 0.72679 0.39055 0.06125 0.0
O227 O 0.68839 0.38376 1.02615 0.0
O228 O 0.70548 0.38399 0.102 0.0
O229 O 0.61726 0.25149 0.07915 0.0
O230 O 0.56453 0.34679 0.17418 0.0
C231 C 0.56952 0.38421 0.20846 0.0
O232 O 0.60875 0.43271 0.20648 0.0
O233 O 0.54928 0.40926 0.06238 0.0
Mg234 Mg 0.86762 0.37323 0.36555 0.0
C235 C 0.9977 0.42314 0.37946 0.0
O236 O 0.96521 0.47639 0.38323 0.0
C237 C 0.83693 0.26067 0.30253 0.0
O238 O 0.88577 0.23403 0.32251 0.0
C239 C 0.83141 0.4872 0.31288 0.0
O240 O 0.83785 0.44411 0.28026 0.0
O241 O 0.83764 0.47061 0.35479 0.0
O242 O 0.96979 0.37236 0.36634 0.0
O243 O 0.8383 0.32595 0.42899 0.0
C244 C 0.87847 0.30945 0.45929 0.0
O245 O 0.93569 0.33287 0.45719 0.0
O246 O 0.82237 0.318 0.3121 0.0
Mg247 Mg 0.9115 0.69047 0.6065 0.0
C248 C 0.87926 0.83693 0.59956 0.0
O249 O 0.87811 0.89259 0.57848 0.0
C250 C 0.99105 0.57529 0.57387 0.0
O251 O 0.97429 0.5509 0.61372 0.0
C252 C 0.79423 0.64965 0.56125 0.0
O253 O 0.83263 0.65644 0.52615 0.0
O254 O 0.81554 0.65621 0.60199 0.0
O255 O 0.90376 0.78871 0.57915 0.0
O256 O 0.95648 0.69342 0.67418 0.0
C257 C 0.9515 0.656 0.70846 0.0
O258 O 0.91227 0.6075 0.70648 0.0
O259 O 0.97174 0.63094 0.56238 0.0
Mg260 Mg 0.65469 0.37119 0.74804 0.0
C261 C 0.52446 0.42146 0.73552 0.0
O262 O 0.55697 0.4747 0.73189 0.0
C263 C 0.68943 0.25769 0.80904 0.0
O264 O 0.64215 0.22968 0.78807 0.0
C265 C 0.68979 0.48521 0.8007 0.0
O266 O 0.68262 0.44213 0.83325 0.0
O267 O 0.68453 0.46859 0.75873 0.0
O268 O 0.55247 0.37047 0.74814 0.0
O269 O 0.68287 0.32422 0.6842 0.0
C270 C 0.64216 0.30781 0.65425 0.0
O271 O 0.58499 0.33124 0.65692 0.0
O272 O 0.70141 0.31608 0.80094 0.0
Mg273 Mg 0.91224 0.34975 1.00799 0.0
C274 C 0.88113 0.20284 1.01356 0.0
O275 O 0.88018 0.14687 1.03422 0.0
C276 C 0.9912 0.46487 1.04132 0.0
O277 O 0.97441 0.48947 1.00155 0.0
C278 C 0.7949 0.39057 1.0532 0.0
O279 O 0.8333 0.38395 0.08832 0.0
O280 O 0.81622 0.38388 1.01246 0.0
O281 O 0.90461 0.25106 1.03461 0.0
O282 O 0.95777 0.3478 0.9405 0.0
C283 C 0.95362 0.38603 0.90662 0.0
O284 O 0.9146 0.4347 0.90878 0.0
O285 O 0.97212 0.40904 1.05258 0.0
Mg286 Mg 0.86633 0.66902 0.24804 0.0
C287 C 0.99656 0.61874 0.23552 0.0
O288 O 0.96405 0.5655 0.23189 0.0
C289 C 0.83159 0.78251 0.30904 0.0
O290 O 0.87888 0.81052 0.28808 0.0
C291 C 0.83123 0.555 0.30071 0.0
O292 O 0.8384 0.59808 0.33325 0.0
O293 O 0.83649 0.57161 0.25873 0.0
O294 O 0.96855 0.66974 0.24814 0.0
O295 O 0.83815 0.71598 0.1842 0.0
C296 C 0.87886 0.7324 0.15425 0.0
O297 O 0.93603 0.70897 0.15692 0.0
O298 O 0.81961 0.72413 0.30094 0.0
Mg299 Mg 0.60878 0.69045 0.50799 0.0
C300 C 0.63989 0.83737 0.51356 0.0
O301 O 0.64085 0.89334 0.53422 0.0
C302 C 0.52982 0.57533 0.54132 0.0
O303 O 0.54661 0.55074 0.50155 0.0
C304 C 0.72612 0.64964 0.5532 0.0
O305 O 0.68772 0.65626 0.58832 0.0
O306 O 0.7048 0.65632 0.51246 0.0
O307 O 0.61641 0.78914 0.53461 0.0
O308 O 0.56324 0.69241 0.4405 0.0
C309 C 0.5674 0.65418 0.40662 0.0
O310 O 0.60642 0.6055 0.40878 0.0
O311 O 0.5489 0.63116 0.55258 0.0
Mg312 Mg 0.38189 0.35696 0.25437 0.0
C313 C 0.51918 0.38329 0.24332 0.0
O314 O 0.50185 0.43797 0.26169 0.0
C315 C 0.25963 0.31103 0.28602 0.0
O316 O 0.24859 0.37056 0.27379 0.0
C317 C 0.36715 0.4938 0.29096 0.0
O318 O 0.36297 0.50951 0.24725 0.0
O319 O 0.37484 0.43581 0.30225 0.0
O320 O 0.48126 0.33592 0.24449 0.0
O321 O 0.3611 0.37116 0.18222 0.0
C322 C 0.36376 0.31904 0.15942 0.0
O323 O 0.36336 0.26439 0.18169 0.0
O324 O 0.31471 0.28797 0.28074 0.0
Mg325 Mg 0.41103 0.60755 1.00176 0.0
C326 C 0.46466 0.62335 0.90566 0.0
O327 O 0.43845 0.68006 0.90899 0.0
C328 C 0.29419 0.5743 1.05311 0.0
O329 O 0.33426 0.57971 0.08732 0.0
C330 C 0.48899 0.50158 1.04247 0.0
O331 O 0.47104 0.4756 1.00343 0.0
O332 O 0.47071 0.5582 1.05237 0.0
O333 O 0.45248 0.58095 0.93589 0.0
O334 O 0.41466 0.71264 1.00123 0.0
C335 C 0.36669 0.74457 0.9881 0.0
O336 O 0.3126 0.71491 0.98339 0.0
O337 O 0.31377 0.58 1.01191 0.0
Mg338 Mg 0.13912 0.68325 0.75437 0.0
C339 C 1.00183 0.65693 0.74332 0.0
O340 O 0.01916 0.60225 0.76169 0.0
C341 C 0.26138 0.72917 0.78602 0.0
O342 O 0.27242 0.66964 0.77379 0.0
C343 C 0.15387 0.54641 0.79097 0.0
O344 O 0.15807 0.5307 0.74726 0.0
O345 O 0.14617 0.60441 0.80226 0.0
O346 O 0.03975 0.70429 0.74449 0.0
O347 O 0.15991 0.66905 0.68222 0.0
C348 C 0.15725 0.72116 0.65942 0.0
O349 O 0.15765 0.77582 0.68169 0.0
O350 O 0.2063 0.75224 0.78074 0.0
Mg351 Mg 0.10999 0.43265 0.50176 0.0
C352 C 0.05635 0.41685 0.40566 0.0
O353 O 0.08256 0.36014 0.40899 0.0
C354 C 0.22683 0.46591 0.55311 0.0
O355 O 0.18676 0.4605 0.58732 0.0
C356 C 0.03203 0.53862 0.54247 0.0
O357 O 0.04998 0.56461 0.50343 0.0
O358 O 0.05031 0.482 0.55237 0.0
O359 O 0.06854 0.45925 0.43589 0.0
O360 O 0.10636 0.32756 0.50123 0.0
C361 C 0.15433 0.29564 0.4881 0.0
O362 O 0.20842 0.32529 0.48339 0.0
O363 O 0.20725 0.46021 0.51191 0.0
Mg364 Mg 0.37822 0.68079 0.3626 0.0
C365 C 0.51639 0.65461 0.37227 0.0
O366 O 0.49953 0.59988 0.35376 0.0
C367 C 0.2566 0.7282 0.33056 0.0
O368 O 0.24464 0.66894 0.34298 0.0
C369 C 0.36761 0.5432 0.32675 0.0
O370 O 0.37056 0.52739 0.3705 0.0
O371 O 0.36944 0.60158 0.31515 0.0
O372 O 0.47787 0.70148 0.37169 0.0
O373 O 0.3576 0.66714 0.43488 0.0
C374 C 0.35949 0.71923 0.45774 0.0
O375 O 0.35823 0.77394 0.43556 0.0
O376 O 0.31197 0.75049 0.33594 0.0
Mg377 Mg 0.10967 0.60774 0.11373 0.0
C378 C 0.05547 0.62459 0.20958 0.0
O379 O 0.08186 0.68119 0.20609 0.0
C380 C 0.22648 0.57436 0.06257 0.0
O381 O 0.18646 0.58015 1.02836 0.0
C382 C 0.03196 0.50154 0.07287 0.0
O383 O 0.04987 0.47547 0.1119 0.0
O384 O 0.05013 0.55824 0.06309 0.0
O385 O 0.0678 0.58187 0.1796 0.0
O386 O 0.10649 0.71284 0.11387 0.0
C387 C 0.15453 0.74455 0.12713 0.0
O388 O 0.20843 0.71461 0.13208 0.0
O389 O 0.20688 0.57983 0.10377 0.0
Mg390 Mg 0.1428 0.35943 0.8626 0.0
C391 C 1.00463 0.3856 0.87227 0.0
O392 O 0.02149 0.44033 0.85376 0.0
C393 C 0.26442 0.312 0.83057 0.0
O394 O 0.27638 0.37127 0.84299 0.0
C395 C 0.15341 0.49701 0.82675 0.0
O396 O 0.15043 0.51282 0.8705 0.0
O397 O 0.15159 0.43863 0.81516 0.0
O398 O 0.04316 0.33873 0.87169 0.0
O399 O 0.16343 0.37307 0.93488 0.0
C400 C 0.16153 0.32097 0.95775 0.0
O401 O 0.16279 0.26627 0.93557 0.0
O402 O 0.20905 0.28972 0.83595 0.0
Mg403 Mg 0.41135 0.43247 0.61373 0.0
C404 C 0.46554 0.41561 0.70958 0.0
O405 O 0.43916 0.35901 0.70609 0.0
C406 C 0.29454 0.46584 0.56257 0.0
O407 O 0.33456 0.46006 0.52836 0.0
C408 C 0.48906 0.53866 0.57287 0.0
O409 O 0.47114 0.56473 0.6119 0.0
O410 O 0.47089 0.48197 0.56309 0.0
O411 O 0.45322 0.45834 0.6796 0.0
O412 O 0.41452 0.32736 0.61387 0.0
C413 C 0.36649 0.29566 0.62713 0.0
O414 O 0.31259 0.3256 0.63208 0.0
O415 O 0.31413 0.46037 0.60378 0.0
loop_
_geom_bond_atom_site_label_1
_geom_bond_atom_site_label_2
_geom_bond_distance
_geom_bond_site_symmetry_2
_ccdc_geom_bond_type
Mg0 O7 2.141 . S
Mg0 O8 2.048 . S
Mg0 O9 2.048 . S
Mg0 O12 2.141 . S
C1 O2 1.313 . S
C1 O8 1.195 . S
O2 C1 1.313 . S
C3 O4 1.245 . S
C3 O12 1.289 . S
O4 C3 1.245 . S
C5 O6 1.245 . S
C5 O7 1.289 . S
O6 C5 1.245 . S
O7 Mg0 2.141 . S
O7 C5 1.289 . S
O8 Mg0 2.048 . S
O8 C1 1.195 . S
O9 Mg0 2.048 . S
O9 C10 1.195 . S
C10 O9 1.195 . S
C10 O11 1.313 . S
O11 C10 1.313 . S
O12 Mg0 2.141 . S
O12 C3 1.289 . S
Mg13 O20 2.141 . S
Mg13 O21 2.048 . S
Mg13 O22 2.048 . S
Mg13 O25 2.141 1_565 S
C14 O15 1.313 . S
C14 O21 1.195 . S
O15 C14 1.313 . S
C16 O17 1.245 1_545 S
C16 O25 1.289 . S
O17 C16 1.245 1_565 S
C18 O19 1.245 . S
C18 O20 1.289 . S
O19 C18 1.245 . S
O20 Mg13 2.141 . S
O20 C18 1.289 . S
O21 Mg13 2.048 . S
O21 C14 1.195 . S
O22 Mg13 2.048 . S
O22 C23 1.195 1_455 S
C23 O22 1.195 1_655 S
C23 O24 1.313 . S
O24 C23 1.313 . S
O25 Mg13 2.141 1_545 S
O25 C16 1.289 . S
Mg26 O33 2.141 . S
Mg26 O34 2.048 . S
Mg26 O35 2.048 . S
Mg26 O38 2.141 . S
C27 O28 1.313 . S
C27 O34 1.195 . S
O28 C27 1.313 . S
C29 O30 1.245 . S
C29 O38 1.289 . S
O30 C29 1.245 . S
C31 O32 1.245 . S
C31 O33 1.289 . S
O32 C31 1.245 . S
O33 Mg26 2.141 . S
O33 C31 1.289 . S
O34 Mg26 2.048 . S
O34 C27 1.195 . S
O35 Mg26 2.048 . S
O35 C36 1.195 . S
C36 O35 1.195 . S
C36 O37 1.313 . S
O37 C36 1.313 . S
O38 Mg26 2.141 . S
O38 C29 1.289 . S
Mg39 O46 2.141 . S
Mg39 O47 2.048 . S
Mg39 O48 2.048 . S
Mg39 O51 2.141 1_545 S
C40 O41 1.313 . S
C40 O47 1.195 . S
O41 C40 1.313 . S
C42 O43 1.245 1_565 S
C42 O51 1.289 . S
O43 C42 1.245 1_545 S
C44 O45 1.245 . S
C44 O46 1.289 . S
O45 C44 1.245 . S
O46 Mg39 2.141 . S
O46 C44 1.289 . S
O47 Mg39 2.048 . S
O47 C40 1.195 . S
O48 Mg39 2.048 . S
O48 C49 1.195 . S
C49 O48 1.195 . S
C49 O50 1.313 . S
O50 C49 1.313 . S
O51 Mg39 2.141 1_565 S
O51 C42 1.289 . S
Mg52 O59 2.141 . S
Mg52 O60 2.048 . S
Mg52 O61 2.048 . S
Mg52 O64 2.141 . S
C53 O54 1.313 . S
C53 O60 1.195 . S
O54 C53 1.313 . S
C55 O56 1.245 . S
C55 O64 1.289 . S
O56 C55 1.245 . S
C57 O58 1.245 . S
C57 O59 1.289 . S
O58 C57 1.245 . S
O59 Mg52 2.141 . S
O59 C57 1.289 . S
O60 Mg52 2.048 . S
O60 C53 1.195 . S
O61 Mg52 2.048 . S
O61 C62 1.195 . S
C62 O61 1.195 . S
C62 O63 1.313 . S
O63 C62 1.313 . S
O64 Mg52 2.141 . S
O64 C55 1.289 . S
Mg65 O72 2.141 . S
Mg65 O73 2.048 . S
Mg65 O74 2.048 . S
Mg65 O77 2.141 1_565 S
C66 O67 1.313 . S
C66 O73 1.195 . S
O67 C66 1.313 . S
C68 O69 1.245 1_545 S
C68 O77 1.289 . S
O69 C68 1.245 1_565 S
C70 O71 1.245 . S
C70 O72 1.289 . S
O71 C70 1.245 . S
O72 Mg65 2.141 . S
O72 C70 1.289 . S
O73 Mg65 2.048 . S
O73 C66 1.195 . S
O74 Mg65 2.048 . S
O74 C75 1.195 . S
C75 O74 1.195 . S
C75 O76 1.313 . S
O76 C75 1.313 . S
O77 Mg65 2.141 1_545 S
O77 C68 1.289 . S
Mg78 O85 2.141 . S
Mg78 O86 2.048 . S
Mg78 O87 2.048 . S
Mg78 O90 2.141 . S
C79 O80 1.313 . S
C79 O86 1.195 . S
O80 C79 1.313 . S
C81 O82 1.245 . S
C81 O90 1.289 . S
O82 C81 1.245 . S
C83 O84 1.245 . S
C83 O85 1.289 . S
O84 C83 1.245 . S
O85 Mg78 2.141 . S
O85 C83 1.289 . S
O86 Mg78 2.048 . S
O86 C79 1.195 . S
O87 Mg78 2.048 . S
O87 C88 1.195 . S
C88 O87 1.195 . S
C88 O89 1.313 . S
O89 C88 1.313 . S
O90 Mg78 2.141 . S
O90 C81 1.289 . S
Mg91 O98 2.141 . S
Mg91 O99 2.048 . S
Mg91 O100 2.048 . S
Mg91 O103 2.141 1_545 S
C92 O93 1.313 . S
C92 O99 1.195 . S
O93 C92 1.313 . S
C94 O95 1.245 1_565 S
C94 O103 1.289 . S
O95 C94 1.245 1_545 S
C96 O97 1.245 . S
C96 O98 1.289 . S
O97 C96 1.245 . S
O98 Mg91 2.141 . S
O98 C96 1.289 . S
O99 Mg91 2.048 . S
O99 C92 1.195 . S
O100 Mg91 2.048 . S
O100 C101 1.195 1_455 S
C101 O100 1.195 1_655 S
C101 O102 1.313 . S
O102 C101 1.313 . S
O103 Mg91 2.141 1_565 S
O103 C94 1.289 . S
Mg104 O111 2.141 . S
Mg104 O112 2.048 . S
Mg104 O113 2.048 . S
Mg104 O116 2.141 . S
C105 O106 1.313 . S
C105 O112 1.195 . S
O106 C105 1.313 . S
C107 O108 1.245 . S
C107 O116 1.289 . S
O108 C107 1.245 . S
C109 O110 1.245 . S
C109 O111 1.289 . S
O110 C109 1.245 . S
O111 Mg104 2.141 . S
O111 C109 1.289 . S
O112 Mg104 2.048 . S
O112 C105 1.195 . S
O113 Mg104 2.048 . S
O113 C114 1.195 . S
C114 O113 1.195 . S
C114 O115 1.313 . S
O115 C114 1.313 . S
O116 Mg104 2.141 . S
O116 C107 1.289 . S
Mg117 O124 2.141 1_545 S
Mg117 O125 2.048 . S
Mg117 O126 2.048 . S
Mg117 O129 2.141 . S
C118 O119 1.313 . S
C118 O125 1.195 1_455 S
O119 C118 1.313 . S
C120 O121 1.245 . S
C120 O129 1.289 . S
O121 C120 1.245 . S
C122 O123 1.245 1_565 S
C122 O124 1.289 . S
O123 C122 1.245 1_545 S
O124 Mg117 2.141 1_565 S
O124 C122 1.289 . S
O125 Mg117 2.048 . S
O125 C118 1.195 1_655 S
O126 Mg117 2.048 . S
O126 C127 1.195 . S
C127 O126 1.195 . S
C127 O128 1.313 . S
O128 C127 1.313 . S
O129 Mg117 2.141 . S
O129 C120 1.289 . S
Mg130 O137 2.141 . S
Mg130 O138 2.048 . S
Mg130 O139 2.048 . S
Mg130 O142 2.141 . S
C131 O132 1.313 . S
C131 O138 1.195 . S
O132 C131 1.313 . S
C133 O134 1.245 . S
C133 O142 1.289 . S
O134 C133 1.245 . S
C135 O136 1.245 . S
C135 O137 1.289 . S
O136 C135 1.245 . S
O137 Mg130 2.141 . S
O137 C135 1.289 . S
O138 Mg130 2.048 . S
O138 C131 1.195 . S
O139 Mg130 2.048 . S
O139 C140 1.195 . S
C140 O139 1.195 . S
C140 O141 1.313 . S
O141 C140 1.313 . S
O142 Mg130 2.141 . S
O142 C133 1.289 . S
Mg143 O150 2.141 1_565 S
Mg143 O151 2.048 . S
Mg143 O152 2.048 . S
Mg143 O155 2.141 . S
C144 O145 1.313 . S
C144 O151 1.195 . S
O145 C144 1.313 . S
C146 O147 1.245 . S
C146 O155 1.289 . S
O147 C146 1.245 . S
C148 O149 1.245 1_545 S
C148 O150 1.289 . S
O149 C148 1.245 1_565 S
O150 Mg143 2.141 1_545 S
O150 C148 1.289 . S
O151 Mg143 2.048 . S
O151 C144 1.195 . S
O152 Mg143 2.048 . S
O152 C153 1.195 . S
C153 O152 1.195 . S
C153 O154 1.313 . S
O154 C153 1.313 . S
O155 Mg143 2.141 . S
O155 C146 1.289 . S
Mg156 O163 2.141 . S
Mg156 O164 2.048 . S
Mg156 O165 2.048 . S
Mg156 O168 2.141 . S
C157 O158 1.313 . S
C157 O164 1.195 . S
O158 C157 1.313 . S
C159 O160 1.245 . S
C159 O168 1.289 . S
O160 C159 1.245 . S
C161 O162 1.245 . S
C161 O163 1.289 . S
O162 C161 1.245 . S
O163 Mg156 2.141 . S
O163 C161 1.289 . S
O164 Mg156 2.048 . S
O164 C157 1.195 . S
O165 Mg156 2.048 . S
O165 C166 1.195 . S
C166 O165 1.195 . S
C166 O167 1.313 . S
O167 C166 1.313 . S
O168 Mg156 2.141 . S
O168 C159 1.289 . S
Mg169 O176 2.141 1_545 S
Mg169 O177 2.048 . S
Mg169 O178 2.048 . S
Mg169 O181 2.141 . S
C170 O171 1.313 . S
C170 O177 1.195 . S
O171 C170 1.313 . S
C172 O173 1.245 . S
C172 O181 1.289 . S
O173 C172 1.245 . S
C174 O175 1.245 1_565 S
C174 O176 1.289 . S
O175 C174 1.245 1_545 S
O176 Mg169 2.141 1_565 S
O176 C174 1.289 . S
O177 Mg169 2.048 . S
O177 C170 1.195 . S
O178 Mg169 2.048 . S
O178 C179 1.195 . S
C179 O178 1.195 . S
C179 O180 1.313 . S
O180 C179 1.313 . S
O181 Mg169 2.141 . S
O181 C172 1.289 . S
Mg182 O189 2.141 . S
Mg182 O190 2.048 . S
Mg182 O191 2.048 . S
Mg182 O194 2.141 . S
C183 O184 1.313 . S
C183 O190 1.195 . S
O184 C183 1.313 . S
C185 O186 1.245 . S
C185 O194 1.289 . S
O186 C185 1.245 . S
C187 O188 1.245 . S
C187 O189 1.289 . S
O188 C187 1.245 . S
O189 Mg182 2.141 . S
O189 C187 1.289 . S
O190 Mg182 2.048 . S
O190 C183 1.195 . S
O191 Mg182 2.048 . S
O191 C192 1.195 . S
C192 O191 1.195 . S
C192 O193 1.313 . S
O193 C192 1.313 . S
O194 Mg182 2.141 . S
O194 C185 1.289 . S
Mg195 O202 2.141 1_565 S
Mg195 O203 2.048 . S
Mg195 O204 2.048 . S
Mg195 O207 2.141 . S
C196 O197 1.313 . S
C196 O203 1.195 1_455 S
O197 C196 1.313 . S
C198 O199 1.245 . S
C198 O207 1.289 . S
O199 C198 1.245 . S
C200 O201 1.245 1_545 S
C200 O202 1.289 . S
O201 C200 1.245 1_565 S
O202 Mg195 2.141 1_545 S
O202 C200 1.289 . S
O203 Mg195 2.048 . S
O203 C196 1.195 1_655 S
O204 Mg195 2.048 . S
O204 C205 1.195 . S
C205 O204 1.195 . S
C205 O206 1.313 . S
O206 C205 1.313 . S
O207 Mg195 2.141 . S
O207 C198 1.289 . S
Mg208 O215 2.141 . S
Mg208 O216 2.048 . S
Mg208 O217 2.048 . S
Mg208 O220 2.141 . S
C209 O210 1.313 . S
C209 O216 1.195 . S
O210 C209 1.313 . S
C211 O212 1.245 . S
C211 O220 1.289 . S
O212 C211 1.245 . S
C213 O214 1.245 . S
C213 O215 1.289 . S
O214 C213 1.245 . S
O215 Mg208 2.141 . S
O215 C213 1.289 . S
O216 Mg208 2.048 . S
O216 C209 1.195 . S
O217 Mg208 2.048 . S
O217 C218 1.195 . S
C218 O217 1.195 . S
C218 O219 1.313 . S
O219 C218 1.313 . S
O220 Mg208 2.141 . S
O220 C211 1.289 . S
Mg221 O228 2.141 . S
Mg221 O229 2.048 . S
Mg221 O230 2.048 . S
Mg221 O233 2.141 . S
C222 O223 1.313 . S
C222 O229 1.195 . S
O223 C222 1.313 . S
C224 O225 1.245 . S
C224 O233 1.289 . S
O225 C224 1.245 . S
C226 O227 1.245 . S
C226 O228 1.289 . S
O227 C226 1.245 . S
O228 Mg221 2.141 . S
O228 C226 1.289 . S
O229 Mg221 2.048 . S
O229 C222 1.195 . S
O230 Mg221 2.048 . S
O230 C231 1.195 . S
C231 O230 1.195 . S
C231 O232 1.313 . S
O232 C231 1.313 . S
O233 Mg221 2.141 . S
O233 C224 1.289 . S
Mg234 O241 2.141 . S
Mg234 O242 2.048 . S
Mg234 O243 2.048 . S
Mg234 O246 2.141 . S
C235 O236 1.313 . S
C235 O242 1.195 . S
O236 C235 1.313 . S
C237 O238 1.245 . S
C237 O246 1.289 . S
O238 C237 1.245 . S
C239 O240 1.245 . S
C239 O241 1.289 . S
O240 C239 1.245 . S
O241 Mg234 2.141 . S
O241 C239 1.289 . S
O242 Mg234 2.048 . S
O242 C235 1.195 . S
O243 Mg234 2.048 . S
O243 C244 1.195 . S
C244 O243 1.195 . S
C244 O245 1.313 . S
O245 C244 1.313 . S
O246 Mg234 2.141 . S
O246 C237 1.289 . S
Mg247 O254 2.141 . S
Mg247 O255 2.048 . S
Mg247 O256 2.048 . S
Mg247 O259 2.141 . S
C248 O249 1.313 . S
C248 O255 1.195 . S
O249 C248 1.313 . S
C250 O251 1.245 . S
C250 O259 1.289 . S
O251 C250 1.245 . S
C252 O253 1.245 . S
C252 O254 1.289 . S
O253 C252 1.245 . S
O254 Mg247 2.141 . S
O254 C252 1.289 . S
O255 Mg247 2.048 . S
O255 C248 1.195 . S
O256 Mg247 2.048 . S
O256 C257 1.195 1_655 S
C257 O256 1.195 1_455 S
C257 O258 1.313 . S
O258 C257 1.313 . S
O259 Mg247 2.141 . S
O259 C250 1.289 . S
Mg260 O267 2.141 . S
Mg260 O268 2.048 . S
Mg260 O269 2.048 . S
Mg260 O272 2.141 . S
C261 O262 1.313 . S
C261 O268 1.195 . S
O262 C261 1.313 . S
C263 O264 1.245 . S
C263 O272 1.289 . S
O264 C263 1.245 . S
C265 O266 1.245 . S
C265 O267 1.289 . S
O266 C265 1.245 . S
O267 Mg260 2.141 . S
O267 C265 1.289 . S
O268 Mg260 2.048 . S
O268 C261 1.195 . S
O269 Mg260 2.048 . S
O269 C270 1.195 . S
C270 O269 1.195 . S
C270 O271 1.313 . S
O271 C270 1.313 . S
O272 Mg260 2.141 . S
O272 C263 1.289 . S
Mg273 O280 2.141 . S
Mg273 O281 2.048 . S
Mg273 O282 2.048 . S
Mg273 O285 2.141 . S
C274 O275 1.313 . S
C274 O281 1.195 . S
O275 C274 1.313 . S
C276 O277 1.245 . S
C276 O285 1.289 . S
O277 C276 1.245 . S
C278 O279 1.245 . S
C278 O280 1.289 . S
O279 C278 1.245 . S
O280 Mg273 2.141 . S
O280 C278 1.289 . S
O281 Mg273 2.048 . S
O281 C274 1.195 . S
O282 Mg273 2.048 . S
O282 C283 1.195 1_655 S
C283 O282 1.195 1_455 S
C283 O284 1.313 . S
O284 C283 1.313 . S
O285 Mg273 2.141 . S
O285 C276 1.289 . S
Mg286 O293 2.141 . S
Mg286 O294 2.048 . S
Mg286 O295 2.048 . S
Mg286 O298 2.141 . S
C287 O288 1.313 . S
C287 O294 1.195 . S
O288 C287 1.313 . S
C289 O290 1.245 . S
C289 O298 1.289 . S
O290 C289 1.245 . S
C291 O292 1.245 . S
C291 O293 1.289 . S
O292 C291 1.245 . S
O293 Mg286 2.141 . S
O293 C291 1.289 . S
O294 Mg286 2.048 . S
O294 C287 1.195 . S
O295 Mg286 2.048 . S
O295 C296 1.195 . S
C296 O295 1.195 . S
C296 O297 1.313 . S
O297 C296 1.313 . S
O298 Mg286 2.141 . S
O298 C289 1.289 . S
Mg299 O306 2.141 . S
Mg299 O307 2.048 . S
Mg299 O308 2.048 . S
Mg299 O311 2.141 . S
C300 O301 1.313 . S
C300 O307 1.195 . S
O301 C300 1.313 . S
C302 O303 1.245 . S
C302 O311 1.289 . S
O303 C302 1.245 . S
C304 O305 1.245 . S
C304 O306 1.289 . S
O305 C304 1.245 . S
O306 Mg299 2.141 . S
O306 C304 1.289 . S
O307 Mg299 2.048 . S
O307 C300 1.195 . S
O308 Mg299 2.048 . S
O308 C309 1.195 . S
C309 O308 1.195 . S
C309 O310 1.313 . S
O310 C309 1.313 . S
O311 Mg299 2.141 . S
O311 C302 1.289 . S
Mg312 O319 2.141 . S
Mg312 O320 2.048 . S
Mg312 O321 2.048 . S
Mg312 O324 2.141 . S
C313 O314 1.313 . S
C313 O320 1.195 . S
O314 C313 1.313 . S
C315 O316 1.245 . S
C315 O324 1.289 . S
O316 C315 1.245 . S
C317 O318 1.245 . S
C317 O319 1.289 . S
O318 C317 1.245 . S
O319 Mg312 2.141 . S
O319 C317 1.289 . S
O320 Mg312 2.048 . S
O320 C313 1.195 . S
O321 Mg312 2.048 . S
O321 C322 1.195 . S
C322 O321 1.195 . S
C322 O323 1.313 . S
O323 C322 1.313 . S
O324 Mg312 2.141 . S
O324 C315 1.289 . S
Mg325 O332 2.141 . S
Mg325 O333 2.048 . S
Mg325 O334 2.048 . S
Mg325 O337 2.141 . S
C326 O327 1.313 . S
C326 O333 1.195 . S
O327 C326 1.313 . S
C328 O329 1.245 . S
C328 O337 1.289 . S
O329 C328 1.245 . S
C330 O331 1.245 . S
C330 O332 1.289 . S
O331 C330 1.245 . S
O332 Mg325 2.141 . S
O332 C330 1.289 . S
O333 Mg325 2.048 . S
O333 C326 1.195 . S
O334 Mg325 2.048 . S
O334 C335 1.195 . S
C335 O334 1.195 . S
C335 O336 1.313 . S
O336 C335 1.313 . S
O337 Mg325 2.141 . S
O337 C328 1.289 . S
Mg338 O345 2.141 . S
Mg338 O346 2.048 . S
Mg338 O347 2.048 . S
Mg338 O350 2.141 . S
C339 O340 1.313 . S
C339 O346 1.195 . S
O340 C339 1.313 . S
C341 O342 1.245 . S
C341 O350 1.289 . S
O342 C341 1.245 . S
C343 O344 1.245 . S
C343 O345 1.289 . S
O344 C343 1.245 . S
O345 Mg338 2.141 . S
O345 C343 1.289 . S
O346 Mg338 2.048 . S
O346 C339 1.195 . S
O347 Mg338 2.048 . S
O347 C348 1.195 . S
C348 O347 1.195 . S
C348 O349 1.313 . S
O349 C348 1.313 . S
O350 Mg338 2.141 . S
O350 C341 1.289 . S
Mg351 O358 2.141 . S
Mg351 O359 2.048 . S
Mg351 O360 2.048 . S
Mg351 O363 2.141 . S
C352 O353 1.313 . S
C352 O359 1.195 1_655 S
O353 C352 1.313 . S
C354 O355 1.245 . S
C354 O363 1.289 . S
O355 C354 1.245 . S
C356 O357 1.245 . S
C356 O358 1.289 . S
O357 C356 1.245 . S
O358 Mg351 2.141 . S
O358 C356 1.289 . S
O359 Mg351 2.048 . S
O359 C352 1.195 1_455 S
O360 Mg351 2.048 . S
O360 C361 1.195 . S
C361 O360 1.195 . S
C361 O362 1.313 . S
O362 C361 1.313 . S
O363 Mg351 2.141 . S
O363 C354 1.289 . S
Mg364 O371 2.141 . S
Mg364 O372 2.048 . S
Mg364 O373 2.048 . S
Mg364 O376 2.141 . S
C365 O366 1.313 . S
C365 O372 1.195 . S
O366 C365 1.313 . S
C367 O368 1.245 . S
C367 O376 1.289 . S
O368 C367 1.245 . S
C369 O370 1.245 . S
C369 O371 1.289 . S
O370 C369 1.245 . S
O371 Mg364 2.141 . S
O371 C369 1.289 . S
O372 Mg364 2.048 . S
O372 C365 1.195 . S
O373 Mg364 2.048 . S
O373 C374 1.195 . S
C374 O373 1.195 . S
C374 O375 1.313 . S
O375 C374 1.313 . S
O376 Mg364 2.141 . S
O376 C367 1.289 . S
Mg377 O384 2.141 . S
Mg377 O385 2.048 . S
Mg377 O386 2.048 . S
Mg377 O389 2.141 . S
C378 O379 1.313 . S
C378 O385 1.195 1_655 S
O379 C378 1.313 . S
C380 O381 1.245 . S
C380 O389 1.289 . S
O381 C380 1.245 . S
C382 O383 1.245 . S
C382 O384 1.289 . S
O383 C382 1.245 . S
O384 Mg377 2.141 . S
O384 C382 1.289 . S
O385 Mg377 2.048 . S
O385 C378 1.195 1_455 S
O386 Mg377 2.048 . S
O386 C387 1.195 . S
C387 O386 1.195 . S
C387 O388 1.313 . S
O388 C387 1.313 . S
O389 Mg377 2.141 . S
O389 C380 1.289 . S
Mg390 O397 2.141 . S
Mg390 O398 2.048 . S
Mg390 O399 2.048 . S
Mg390 O402 2.141 . S
C391 O392 1.313 . S
C391 O398 1.195 . S
O392 C391 1.313 . S
C393 O394 1.245 . S
C393 O402 1.289 . S
O394 C393 1.245 . S
C395 O396 1.245 . S
C395 O397 1.289 . S
O396 C395 1.245 . S
O397 Mg390 2.141 . S
O397 C395 1.289 . S
O398 Mg390 2.048 . S
O398 C391 1.195 . S
O399 Mg390 2.048 . S
O399 C400 1.195 . S
C400 O399 1.195 . S
C400 O401 1.313 . S
O401 C400 1.313 . S
O402 Mg390 2.141 . S
O402 C393 1.289 . S
Mg403 O410 2.141 . S
Mg403 O411 2.048 . S
Mg403 O412 2.048 . S
Mg403 O415 2.141 . S
C404 O405 1.313 . S
C404 O411 1.195 . S
O405 C404 1.313 . S
C406 O407 1.245 . S
C406 O415 1.289 . S
O407 C406 1.245 . S
C408 O409 1.245 . S
C408 O410 1.289 . S
O409 C408 1.245 . S
O410 Mg403 2.141 . S
O410 C408 1.289 . S
O411 Mg403 2.048 . S
O411 C404 1.195 . S
O412 Mg403 2.048 . S
O412 C413 1.195 . S
C413 O412 1.195 . S
C413 O414 1.313 . S
O414 C413 1.313 . S
O415 Mg403 2.141 . S
O415 C406 1.289 . S
C361 C10 1.698 . S
C23 C105 1.894 . S
C335 C36 1.698 . S
C49 C131 1.894 . S
C62 C387 1.698 . S
C75 C183 1.894 . S
C88 C413 1.698 . S
C101 C157 1.894 . S
C248 C114 1.777 . S
C1 C118 1.698 . S
C222 C140 1.777 . S
C144 C27 1.698 . S
C274 C166 1.777 . S
C79 C170 1.698 . S
C192 C300 1.777 . S
C53 C196 1.698 . S
C218 C153 1.698 . S
C231 C313 1.894 . S
C127 C244 1.698 . S
C339 C257 1.894 . S
C179 C270 1.698 . S
C391 C283 1.894 . S
C205 C296 1.698 . S
C309 C365 1.894 . S
C40 C322 1.777 . S
C326 C209 1.698 . S
C348 C14 1.777 . S
C352 C235 1.698 . S
C374 C66 1.777 . S
C378 C287 1.698 . S
C400 C92 1.777 . S
C404 C261 1.698 . S
C315 C3 2.440 . S
C16 C122 2.156 1_445 S
C341 C29 2.440 . S
C42 C148 2.156 1_564 S
C367 C55 2.440 . S
C68 C174 2.156 1_545 S
C393 C81 2.440 . S
C94 C200 2.156 1_466 S
C107 C211 2.440 . S
C133 C237 2.440 . S
C159 C263 2.440 . S
C185 C289 2.440 . S
C224 C330 2.156 1_554 S
C356 C250 2.156 1_455 S
C382 C276 2.156 1_454 S
C302 C408 2.156 . S
C5 C57 1.908 1_545 S
C18 C70 1.908 . S
C83 C31 1.908 1_545 S
C44 C96 1.908 1_554 S
C161 C109 2.127 1_545 S
C172 C120 1.908 . S
C135 C187 2.127 1_545 S
C146 C198 1.908 1_556 S
C265 C213 1.908 . S
C278 C226 1.908 1_556 S
C239 C291 1.908 . S
C304 C252 1.908 . S
C369 C317 2.127 . S
C328 C380 1.908 1_556 S
C395 C343 2.127 . S
C354 C406 1.908 . S
