# Generated by pormake.
# Topology zfa, (5)-cn, num edge types: 1
# Building blocks:
#     Node 0, Type 0, BuildingBlock: XOMCOT_clean_sbu_0, # of connection points: 5
#     Node 1, Type 0, BuildingBlock: XOMCOT_clean_sbu_0, # of connection points: 5
#     Node 2, Type 0, BuildingBlock: XOMCOT_clean_sbu_0, # of connection points: 5
#     Node 3, Type 0, BuildingBlock: XOMCOT_clean_sbu_0, # of connection points: 5
#     Node 4, Type 0, BuildingBlock: XOMCOT_clean_sbu_0, # of connection points: 5
#     Node 5, Type 0, BuildingBlock: XOMCOT_clean_sbu_0, # of connection points: 5
#     Node 6, Type 0, BuildingBlock: XOMCOT_clean_sbu_0, # of connection points: 5
#     Node 7, Type 0, BuildingBlock: XOMCOT_clean_sbu_0, # of connection points: 5
#     Edge 8, Type (0, 0), BuildingBlock: MIFKUJ_clean_linker_0, # of connection points: 2
#     Edge 9, Type (0, 0), BuildingBlock: MIFKUJ_clean_linker_0, # of connection points: 2
#     Edge 10, Type (0, 0), BuildingBlock: MIFKUJ_clean_linker_0, # of connection points: 2
#     Edge 11, Type (0, 0), BuildingBlock: MIFKUJ_clean_linker_0, # of connection points: 2
#     Edge 12, Type (0, 0), BuildingBlock: MIFKUJ_clean_linker_0, # of connection points: 2
#     Edge 13, Type (0, 0), BuildingBlock: MIFKUJ_clean_linker_0, # of connection points: 2
#     Edge 14, Type (0, 0), BuildingBlock: MIFKUJ_clean_linker_0, # of connection points: 2
#     Edge 15, Type (0, 0), BuildingBlock: MIFKUJ_clean_linker_0, # of connection points: 2
#     Edge 16, Type (0, 0), BuildingBlock: MIFKUJ_clean_linker_0, # of connection points: 2
#     Edge 17, Type (0, 0), BuildingBlock: MIFKUJ_clean_linker_0, # of connection points: 2
#     Edge 18, Type (0, 0), BuildingBlock: MIFKUJ_clean_linker_0, # of connection points: 2
#     Edge 19, Type (0, 0), BuildingBlock: MIFKUJ_clean_linker_0, # of connection points: 2
#     Edge 20, Type (0, 0), BuildingBlock: MIFKUJ_clean_linker_0, # of connection points: 2
#     Edge 21, Type (0, 0), BuildingBlock: MIFKUJ_clean_linker_0, # of connection points: 2
#     Edge 22, Type (0, 0), BuildingBlock: MIFKUJ_clean_linker_0, # of connection points: 2
#     Edge 23, Type (0, 0), BuildingBlock: MIFKUJ_clean_linker_0, # of connection points: 2
#     Edge 24, Type (0, 0), BuildingBlock: MIFKUJ_clean_linker_0, # of connection points: 2
#     Edge 25, Type (0, 0), BuildingBlock: MIFKUJ_clean_linker_0, # of connection points: 2
#     Edge 26, Type (0, 0), BuildingBlock: MIFKUJ_clean_linker_0, # of connection points: 2
#     Edge 27, Type (0, 0), BuildingBlock: MIFKUJ_clean_linker_0, # of connection points: 2
# Relax obj value: 0.192
# Max RMSD: 0.186
# Mean RMSD: 0.186
data_MOF--net-zfa--node1-XOMCOT_clean_sbu_0--edge1-MIFKUJ_clean_linker_0
_symmetry_space_group_name_H-M    P1
_symmetry_Int_Tables_number       1
_symmetry_cell_setting            triclinic
loop_
_symmetry_equiv_pos_as_xyz
'x, y, z'
_cell_length_a     39.279378
_cell_length_b     39.306316
_cell_length_c     54.375009
_cell_angle_alpha  89.859468
_cell_angle_beta   90.315947
_cell_angle_gamma 89.993854
loop_
_atom_site_label
_atom_site_type_symbol
_atom_site_fract_x
_atom_site_fract_y
_atom_site_fract_z
_atom_type_partial_charge
Co0 Co 0.13168 0.25399 0.34475 0.0
C1 C 0.11948 0.32845 0.3441 0.0
C2 C 0.122 0.30893 0.38081 0.0
C3 C 0.11144 0.34219 0.38179 0.0
N4 N 0.12814 0.30033 0.3572 0.0
N5 N 0.10951 0.35434 0.35868 0.0
H6 H 0.11762 0.3292 0.32428 0.0
H7 H 0.12163 0.29149 0.39618 0.0
C8 C 0.1741 0.25036 0.39055 0.0
O9 O 0.19028 0.27743 0.38251 0.0
N10 N 0.13319 0.20819 0.33232 0.0
C11 C 0.14178 0.19929 0.30925 0.0
C12 C 0.13084 0.16658 0.30506 0.0
C13 C 0.11726 0.1809 0.34191 0.0
N14 N 0.11536 0.15522 0.32556 0.0
C15 C 0.18504 0.28704 0.31632 0.0
C16 C 0.235 0.23988 0.32773 0.0
C17 C 0.24321 0.26662 0.31171 0.0
C18 C 0.21759 0.29042 0.30604 0.0
C19 C 0.20238 0.23753 0.33762 0.0
N20 N 0.17787 0.26121 0.33231 0.0
H21 H 0.16549 0.30469 0.31081 0.0
H22 H 0.19654 0.21591 0.34917 0.0
H23 H 0.15273 0.21632 0.2958 0.0
H24 H 0.10436 0.18107 0.35946 0.0
O25 O 0.10494 0.26678 0.31599 0.0
O26 O 0.08373 0.24838 0.35127 0.0
O27 O 0.15005 0.23739 0.37763 0.0
C28 C 0.07819 0.25871 0.32886 0.0
H29 H 0.10261 0.35531 0.39804 0.0
H30 H 0.13213 0.15299 0.2878 0.0
H31 H 0.25329 0.22012 0.33208 0.0
H32 H 0.22249 0.31143 0.29364 0.0
Co33 Co 0.25903 0.63118 0.84926 0.0
C34 C 0.18464 0.61613 0.84683 0.0
C35 C 0.20312 0.62022 0.88378 0.0
C36 C 0.17065 0.60784 0.88448 0.0
N37 N 0.21204 0.62642 0.86024 0.0
N38 N 0.15916 0.60441 0.86126 0.0
H39 H 0.18469 0.61363 0.82703 0.0
H40 H 0.22004 0.6206 0.89946 0.0
C41 C 0.25979 0.67247 0.89567 0.0
O42 O 0.23307 0.68882 0.88702 0.0
N43 N 0.30566 0.634 0.83859 0.0
C44 C 0.31704 0.64682 0.81717 0.0
C45 C 0.35061 0.6377 0.81445 0.0
C46 C 0.33218 0.617 0.84847 0.0
N47 N 0.36002 0.61857 0.83402 0.0
C48 C 0.22884 0.68323 0.81816 0.0
C49 C 0.27104 0.73531 0.83365 0.0
C50 C 0.24866 0.74196 0.81393 0.0
C51 C 0.22717 0.7151 0.80638 0.0
C52 C 0.27297 0.70291 0.84401 0.0
N53 N 0.25155 0.67739 0.83678 0.0
H54 H 0.21303 0.66276 0.81146 0.0
H55 H 0.29274 0.69814 0.85746 0.0
H56 H 0.30156 0.66024 0.8038 0.0
H57 H 0.33015 0.60161 0.86492 0.0
O58 O 0.24879 0.6053 0.81977 0.0
O59 O 0.26506 0.58306 0.85541 0.0
O60 O 0.2734 0.64874 0.88293 0.0
C61 C 0.25656 0.57825 0.83252 0.0
H62 H 0.15763 0.59936 0.90088 0.0
H63 H 0.36631 0.6436 0.79873 0.0
H64 H 0.28775 0.75461 0.84104 0.0
H65 H 0.20994 0.71794 0.79095 0.0
Co66 Co 0.89552 0.75419 0.34779 0.0
C67 C 0.90652 0.67938 0.34863 0.0
C68 C 0.90179 0.69982 0.38485 0.0
C69 C 0.91278 0.66682 0.3868 0.0
N70 N 0.89706 0.70787 0.3609 0.0
N71 N 0.91636 0.65409 0.364 0.0
H72 H 0.91005 0.67836 0.32894 0.0
H73 H 0.9014 0.71751 0.39998 0.0
C74 C 0.85261 0.76119 0.39273 0.0
O75 O 0.83453 0.73555 0.38432 0.0
N76 N 0.8961 0.79993 0.33485 0.0
C77 C 0.88735 0.80927 0.31183 0.0
C78 C 0.89753 0.84232 0.30811 0.0
C79 C 0.91185 0.82714 0.34475 0.0
N80 N 0.91314 0.85353 0.32876 0.0
C81 C 0.84026 0.72179 0.32065 0.0
C82 C 0.79343 0.77314 0.32872 0.0
C83 C 0.78385 0.74563 0.31392 0.0
C84 C 0.80759 0.71948 0.31014 0.0
C85 C 0.82596 0.77425 0.33908 0.0
N86 N 0.84903 0.74875 0.33518 0.0
H87 H 0.85867 0.70236 0.31651 0.0
H88 H 0.83288 0.79616 0.34998 0.0
H89 H 0.8761 0.79257 0.29826 0.0
H90 H 0.92346 0.82691 0.36283 0.0
O91 O 0.92112 0.74003 0.31919 0.0
O92 O 0.94377 0.75768 0.35435 0.0
O93 O 0.87808 0.77209 0.38039 0.0
C94 C 0.9484 0.74707 0.33196 0.0
H95 H 0.92042 0.65424 0.40367 0.0
H96 H 0.89553 0.85617 0.29094 0.0
H97 H 0.7759 0.79382 0.33223 0.0
H98 H 0.80138 0.69802 0.29849 0.0
Co99 Co 0.75632 0.3928 0.8443 0.0
C100 C 0.83115 0.40353 0.84007 0.0
C101 C 0.81535 0.39963 0.87754 0.0
C102 C 0.84901 0.40882 0.87722 0.0
N103 N 0.8041 0.39514 0.85426 0.0
N104 N 0.85895 0.41156 0.85366 0.0
H105 H 0.82994 0.40638 0.82031 0.0
H106 H 0.79964 0.39986 0.89375 0.0
C107 C 0.7556 0.35028 0.8902 0.0
O108 O 0.78073 0.33248 0.88088 0.0
N109 N 0.70907 0.39241 0.83466 0.0
C110 C 0.69608 0.38322 0.81269 0.0
C111 C 0.66243 0.39298 0.81172 0.0
C112 C 0.68349 0.40781 0.84665 0.0
N113 N 0.65465 0.40872 0.83302 0.0
C114 C 0.78535 0.33878 0.81459 0.0
C115 C 0.73842 0.28971 0.82792 0.0
C116 C 0.76367 0.28097 0.81092 0.0
C117 C 0.78733 0.30615 0.80426 0.0
C118 C 0.73741 0.32244 0.8378 0.0
N119 N 0.76104 0.34647 0.83154 0.0
H120 H 0.80289 0.35798 0.80844 0.0
H121 H 0.717 0.32869 0.85025 0.0
H122 H 0.71058 0.37204 0.79791 0.0
H123 H 0.68659 0.41967 0.86446 0.0
O124 O 0.76624 0.41887 0.81482 0.0
O125 O 0.7527 0.4409 0.85095 0.0
O126 O 0.74294 0.37518 0.878 0.0
C127 C 0.76027 0.44592 0.82796 0.0
H128 H 0.86401 0.41628 0.89309 0.0
H129 H 0.64576 0.39084 0.79589 0.0
H130 H 0.71885 0.2717 0.83311 0.0
H131 H 0.80721 0.30082 0.79111 0.0
Co132 Co 0.63031 0.26197 0.18587 0.0
C133 C 0.6169 0.18759 0.18638 0.0
C134 C 0.62424 0.20633 0.14988 0.0
C135 C 0.61287 0.17347 0.14844 0.0
N136 N 0.62772 0.2153 0.17371 0.0
N137 N 0.60744 0.16174 0.1714 0.0
H138 H 0.61267 0.18754 0.206 0.0
H139 H 0.62599 0.22324 0.1343 0.0
C140 C 0.67397 0.26701 0.14101 0.0
O141 O 0.69152 0.24121 0.14986 0.0
N142 N 0.63076 0.30804 0.19784 0.0
C143 C 0.63994 0.31827 0.22055 0.0
C144 C 0.62925 0.35128 0.22374 0.0
C145 C 0.61431 0.33462 0.18762 0.0
N146 N 0.61284 0.36138 0.2031 0.0
C147 C 0.68454 0.22926 0.214 0.0
C148 C 0.7329 0.27872 0.20448 0.0
C149 C 0.74196 0.25141 0.2198 0.0
C150 C 0.71717 0.22644 0.22454 0.0
C151 C 0.70028 0.2805 0.19432 0.0
N152 N 0.67655 0.2558 0.19878 0.0
H153 H 0.66558 0.21046 0.2185 0.0
H154 H 0.69387 0.30233 0.1831 0.0
H155 H 0.65155 0.30212 0.23438 0.0
H156 H 0.60196 0.33355 0.1698 0.0
O157 O 0.60409 0.24936 0.21462 0.0
O158 O 0.5822 0.26658 0.17905 0.0
O159 O 0.64846 0.27851 0.15301 0.0
C160 C 0.5771 0.25689 0.20164 0.0
H161 H 0.60672 0.16036 0.13154 0.0
H162 H 0.63116 0.36574 0.2406 0.0
H163 H 0.75055 0.29924 0.2008 0.0
H164 H 0.72282 0.2049 0.23632 0.0
Co165 Co 0.26025 0.13218 0.68935 0.0
C166 C 0.33242 0.1091 0.69067 0.0
C167 C 0.32495 0.15075 0.6657 0.0
C168 C 0.35876 0.1415 0.66528 0.0
N169 N 0.30836 0.13033 0.68155 0.0
N170 N 0.36342 0.11523 0.68098 0.0
H171 H 0.32744 0.08912 0.7038 0.0
H172 H 0.31338 0.17102 0.6551 0.0
C173 C 0.22454 0.16423 0.64554 0.0
O174 O 0.20082 0.17607 0.6601 0.0
N175 N 0.21214 0.13373 0.69753 0.0
C176 C 0.19546 0.15587 0.71218 0.0
C177 C 0.1621 0.14548 0.7144 0.0
C178 C 0.18866 0.11017 0.69127 0.0
N179 N 0.1582 0.11664 0.70142 0.0
C180 C 0.27441 0.18124 0.72719 0.0
C181 C 0.26767 0.23926 0.69887 0.0
C182 C 0.27315 0.24303 0.72427 0.0
C183 C 0.27741 0.21323 0.7383 0.0
C184 C 0.26556 0.20683 0.68843 0.0
N185 N 0.26728 0.17813 0.70266 0.0
H186 H 0.27707 0.15894 0.73862 0.0
H187 H 0.26265 0.20548 0.66884 0.0
H188 H 0.20643 0.17783 0.72105 0.0
H189 H 0.19366 0.08832 0.6798 0.0
O190 O 0.26768 0.10499 0.71896 0.0
O191 O 0.2559 0.08416 0.68215 0.0
O192 O 0.25044 0.14864 0.65452 0.0
C193 C 0.26137 0.07845 0.70537 0.0
H194 H 0.37835 0.15345 0.65434 0.0
H195 H 0.14262 0.15734 0.72548 0.0
H196 H 0.26434 0.26112 0.68697 0.0
H197 H 0.28294 0.21438 0.75779 0.0
Co198 Co 0.39357 0.76134 0.19059 0.0
C199 C 0.40411 0.83636 0.1944 0.0
C200 C 0.40421 0.81902 0.15714 0.0
C201 C 0.41306 0.85273 0.1573 0.0
N202 N 0.39736 0.80873 0.18029 0.0
N203 N 0.41321 0.86367 0.18073 0.0
H204 H 0.40506 0.83593 0.21425 0.0
H205 H 0.40596 0.80259 0.14131 0.0
C206 C 0.35256 0.76188 0.14397 0.0
O207 O 0.33617 0.78827 0.15282 0.0
N208 N 0.39164 0.71434 0.20058 0.0
C209 C 0.37988 0.70191 0.22203 0.0
C210 C 0.38868 0.66807 0.2237 0.0
C211 C 0.40773 0.68825 0.18965 0.0
N212 N 0.40643 0.65966 0.20343 0.0
C213 C 0.3403 0.79061 0.2207 0.0
C214 C 0.28939 0.74698 0.20506 0.0
C215 C 0.28172 0.771 0.2232 0.0
C216 C 0.30777 0.79295 0.23109 0.0
C217 C 0.32218 0.74529 0.19538 0.0
N218 N 0.34709 0.76746 0.20269 0.0
H219 H 0.36025 0.80661 0.22784 0.0
H220 H 0.32779 0.72527 0.18244 0.0
H221 H 0.36749 0.71684 0.23607 0.0
H222 H 0.42155 0.69069 0.17258 0.0
O223 O 0.41914 0.77115 0.22038 0.0
O224 O 0.4418 0.75641 0.18473 0.0
O225 O 0.3763 0.7479 0.15669 0.0
C226 C 0.44639 0.76427 0.20774 0.0
H227 H 0.42191 0.86715 0.14159 0.0
H228 H 0.38443 0.65163 0.23938 0.0
H229 H 0.27053 0.72869 0.19899 0.0
H230 H 0.30316 0.81159 0.24532 0.0
Co231 Co 0.76136 0.89264 0.68635 0.0
C232 C 0.68685 0.90563 0.68532 0.0
C233 C 0.7076 0.9019 0.64916 0.0
C234 C 0.67492 0.91377 0.64721 0.0
N235 N 0.7152 0.89592 0.67305 0.0
N236 N 0.66201 0.91679 0.66997 0.0
H237 H 0.68574 0.90851 0.70507 0.0
H238 H 0.72552 0.90169 0.6342 0.0
C239 C 0.7662 0.85014 0.64098 0.0
O240 O 0.73929 0.8337 0.649 0.0
N241 N 0.80713 0.89144 0.69938 0.0
C242 C 0.8172 0.87954 0.72154 0.0
C243 C 0.85041 0.88936 0.72561 0.0
C244 C 0.83396 0.90879 0.6905 0.0
N245 N 0.86069 0.90801 0.70618 0.0
C246 C 0.72793 0.83958 0.71455 0.0
C247 C 0.77444 0.78902 0.70355 0.0
C248 C 0.74753 0.78125 0.7194 0.0
C249 C 0.72415 0.80712 0.72499 0.0
C250 C 0.77748 0.82172 0.69378 0.0
N251 N 0.75402 0.84646 0.6988 0.0
H252 H 0.71039 0.85937 0.71968 0.0
H253 H 0.79933 0.82738 0.68249 0.0
H254 H 0.80096 0.8664 0.73444 0.0
H255 H 0.83325 0.92323 0.67352 0.0
O256 O 0.74788 0.91872 0.71493 0.0
O257 O 0.76656 0.94077 0.67998 0.0
O258 O 0.77867 0.8746 0.65371 0.0
C259 C 0.75569 0.94576 0.70225 0.0
H260 H 0.66276 0.92235 0.63039 0.0
H261 H 0.86502 0.88521 0.74229 0.0
H262 H 0.79371 0.77026 0.69931 0.0
H263 H 0.70318 0.80236 0.73737 0.0
H264 H 0.9075 0.61424 0.32368 0.0
H265 H 0.94065 0.56323 0.31283 0.0
H266 H 1.00073 0.57521 0.37888 0.0
H267 H 0.96842 0.62572 0.38951 0.0
H268 H 0.04011 0.5634 0.33817 0.0
H269 H 0.93642 0.51874 0.37551 0.0
H270 H 0.87449 0.5091 0.37774 0.0
H271 H 0.87598 0.46121 0.30685 0.0
H272 H 0.93789 0.47107 0.30403 0.0
H273 H 0.11285 0.41403 0.38264 0.0
H274 H 0.08088 0.46579 0.37335 0.0
H275 H 0.03748 0.41787 0.30913 0.0
H276 H 0.069 0.36557 0.31874 0.0
H277 H 0.98908 0.448 0.33609 0.0
H278 H 0.09353 0.48257 0.30192 0.0
H279 H 0.15557 0.49097 0.29903 0.0
H280 H 0.15326 0.55709 0.36173 0.0
H281 H 0.09128 0.5487 0.36526 0.0
C282 C 0.9278 0.60586 0.3358 0.0
C283 C 0.935 0.62376 0.3576 0.0
C284 C 0.94663 0.57675 0.32964 0.0
C285 C 0.97311 0.56539 0.3451 0.0
C286 C 0.98044 0.58348 0.36667 0.0
C287 C 0.9616 0.6122 0.37289 0.0
C288 C 0.99352 0.53463 0.33941 0.0
C289 C 0.029 0.53814 0.3377 0.0
C290 C 0.97888 0.50181 0.3377 0.0
C291 C 0.94166 0.49621 0.33936 0.0
C292 C 0.92347 0.50655 0.36026 0.0
C293 C 0.88839 0.50096 0.36166 0.0
C294 C 0.87128 0.48472 0.34239 0.0
C295 C 0.88924 0.47393 0.32171 0.0
C296 C 0.92432 0.47953 0.3202 0.0
C297 C 0.09676 0.41467 0.36641 0.0
C298 C 0.09356 0.38583 0.35141 0.0
C299 C 0.07869 0.44433 0.36099 0.0
C300 C 0.05704 0.44589 0.34037 0.0
C301 C 0.05419 0.41731 0.32504 0.0
C302 C 0.07246 0.38757 0.33042 0.0
C303 C 0.03584 0.47669 0.33616 0.0
C304 C 1.00025 0.47325 0.33591 0.0
C305 C 0.05035 0.50964 0.3359 0.0
C306 C 0.0877 0.51487 0.3339 0.0
C307 C 0.10627 0.49872 0.3152 0.0
C308 C 0.14143 0.50351 0.31344 0.0
C309 C 0.15835 0.52452 0.3302 0.0
C310 C 0.14012 0.54083 0.34875 0.0
C311 C 0.10495 0.53611 0.35062 0.0
H312 H 0.18558 0.5282 0.3288 0.0
H313 H 0.84412 0.48037 0.34353 0.0
H314 H 0.92028 0.40558 0.87549 0.0
H315 H 0.97072 0.44007 0.8674 0.0
H316 H 0.91968 0.48739 0.80585 0.0
H317 H 0.86864 0.45314 0.81412 0.0
H318 H 0.99751 0.47164 0.80149 0.0
H319 H 0.91395 0.53141 0.84986 0.0
H320 H 0.87159 0.53558 0.88302 0.0
H321 H 0.94887 0.51236 0.93666 0.0
H322 H 0.99158 0.50746 0.90374 0.0
H323 H 0.1209 0.61169 0.81955 0.0
H324 H 0.06837 0.58024 0.80913 0.0
H325 H 0.07845 0.52218 0.87615 0.0
H326 H 0.13039 0.55235 0.88623 0.0
H327 H 0.01501 0.552 0.87069 0.0
H328 H 0.09648 0.48634 0.82367 0.0
H329 H 0.13986 0.47832 0.79158 0.0
H330 H 0.06835 0.51091 0.73633 0.0
H331 H 0.02467 0.51959 0.76819 0.0
C332 C 0.91998 0.42287 0.85996 0.0
C333 C 0.89035 0.42694 0.84567 0.0
C334 C 0.94886 0.4424 0.85527 0.0
C335 C 0.94878 0.46642 0.83616 0.0
C336 C 0.92024 0.46884 0.82061 0.0
C337 C 0.89114 0.44923 0.82535 0.0
C338 C 0.9767 0.49174 0.83501 0.0
C339 C 1.00105 0.48983 0.81626 0.0
C340 C 0.98135 0.51519 0.85441 0.0
C341 C 0.9559 0.51886 0.87432 0.0
C342 C 0.92186 0.52698 0.86871 0.0
C343 C 0.89779 0.52949 0.88746 0.0
C344 C 0.90752 0.52418 0.91193 0.0
C345 C 0.94137 0.51645 0.9177 0.0
C346 C 0.96552 0.51385 0.899 0.0
C347 C 0.11194 0.592 0.83187 0.0
C348 C 0.12942 0.58519 0.85401 0.0
C349 C 0.08201 0.5741 0.82593 0.0
C350 C 0.06934 0.54916 0.84205 0.0
C351 C 0.08745 0.54167 0.86364 0.0
C352 C 0.11711 0.55925 0.86948 0.0
C353 C 0.03657 0.53137 0.83758 0.0
C354 C 0.01116 0.53463 0.85545 0.0
C355 C 0.03121 0.50921 0.81744 0.0
C356 C 0.05747 0.50409 0.79834 0.0
C357 C 0.09012 0.49216 0.80471 0.0
C358 C 0.11473 0.4874 0.78656 0.0
C359 C 0.1069 0.49422 0.76194 0.0
C360 C 0.07441 0.50572 0.75542 0.0
C361 C 0.04971 0.51056 0.77351 0.0
H362 H 0.12598 0.49049 0.74791 0.0
H363 H 0.88885 0.52612 0.92642 0.0
H364 H 0.40918 0.92368 0.15696 0.0
H365 H 0.44246 0.97474 0.16568 0.0
H366 H 0.48226 0.928 0.23159 0.0
H367 H 0.44953 0.87618 0.22262 0.0
H368 H 0.46171 0.01146 0.22724 0.0
H369 H 0.53503 0.9183 0.19952 0.0
H370 H 0.54594 0.86859 0.1731 0.0
H371 H 0.53139 0.93044 0.10868 0.0
H372 H 0.51979 0.98038 0.13477 0.0
H373 H 0.60439 0.13073 0.21643 0.0
H374 H 0.57123 0.07999 0.22727 0.0
H375 H 0.53552 0.07265 0.15238 0.0
H376 H 0.56721 0.12307 0.14155 0.0
H377 H 0.55973 0.01206 0.17 0.0
H378 H 0.4858 0.10391 0.1956 0.0
H379 H 0.46973 0.15431 0.21986 0.0
H380 H 0.482 0.0971 0.28668 0.0
H381 H 0.4988 0.0465 0.26283 0.0
C382 C 0.42452 0.92445 0.17355 0.0
C383 C 0.42711 0.89571 0.18887 0.0
C384 C 0.44326 0.95374 0.17863 0.0
C385 C 0.46481 0.95502 0.19922 0.0
C386 C 0.4655 0.9275 0.21571 0.0
C387 C 0.44678 0.89795 0.21055 0.0
C388 C 0.49025 0.9827 0.20077 0.0
C389 C 0.48375 0.0114 0.2153 0.0
C390 C 0.51848 0.98269 0.1848 0.0
C391 C 0.5263 0.95296 0.16908 0.0
C392 C 0.53392 0.92121 0.17972 0.0
C393 C 0.54026 0.89301 0.16481 0.0
C394 C 0.53929 0.89633 0.13923 0.0
C395 C 0.5321 0.9279 0.1285 0.0
C396 C 0.52568 0.95616 0.14334 0.0
C397 C 0.58933 0.11848 0.20229 0.0
C398 C 0.58894 0.1312 0.17801 0.0
C399 C 0.57042 0.08944 0.20855 0.0
C400 C 0.55096 0.07256 0.19061 0.0
C401 C 0.55059 0.08511 0.16648 0.0
C402 C 0.56912 0.11404 0.16028 0.0
C403 C 0.53122 0.04136 0.19627 0.0
C404 C 0.53857 0.01193 0.18275 0.0
C405 C 0.50381 0.04097 0.21313 0.0
C406 C 0.49411 0.07155 0.22744 0.0
C407 C 0.48553 0.10218 0.21547 0.0
C408 C 0.47618 0.13077 0.22915 0.0
C409 C 0.47498 0.12894 0.25479 0.0
C410 C 0.48306 0.09851 0.26681 0.0
C411 C 0.49252 0.06988 0.25323 0.0
H412 H 0.46768 0.15105 0.26535 0.0
H413 H 0.54418 0.87447 0.12771 0.0
H414 H 0.63397 0.96923 0.64463 0.0
H415 H 0.58433 1.00239 0.65566 0.0
H416 H 0.57262 0.94296 0.72186 0.0
H417 H 0.62259 0.90866 0.71049 0.0
H418 H 0.51154 0.95325 0.69794 0.0
H419 H 0.60131 0.02151 0.72703 0.0
H420 H 0.6565 0.05141 0.72719 0.0
H421 H 0.62287 0.11458 0.6673 0.0
H422 H 0.56775 0.08464 0.66639 0.0
H423 H 0.37911 0.07634 0.72109 0.0
H424 H 0.43057 0.04248 0.72761 0.0
H425 H 0.47019 0.07791 0.65835 0.0
H426 H 0.41877 0.11123 0.6514 0.0
H427 H 0.51825 0.0793 0.69574 0.0
H428 H 0.43189 1.00039 0.66373 0.0
H429 H 0.37667 0.97065 0.66599 0.0
H430 H 0.40475 0.92831 0.73609 0.0
H431 H 0.46 0.95813 0.73436 0.0
C432 C 0.62073 0.96271 0.66138 0.0
C433 C 0.63211 0.93597 0.67657 0.0
C434 C 0.59253 0.9821 0.66785 0.0
C435 C 0.57504 0.97551 0.68975 0.0
C436 C 0.58592 0.94861 0.70494 0.0
C437 C 0.61445 0.92914 0.69849 0.0
C438 C 0.54498 0.99662 0.69598 0.0
C439 C 0.51308 0.98081 0.69808 0.0
C440 C 0.54702 0.03259 0.69626 0.0
C441 C 0.58033 0.05065 0.69658 0.0
C442 C 0.60575 0.04157 0.71373 0.0
C443 C 0.63704 0.05856 0.71398 0.0
C444 C 0.64317 0.08487 0.69726 0.0
C445 C 0.61806 0.09421 0.68025 0.0
C446 C 0.58677 0.07724 0.67987 0.0
C447 C 0.3986 0.07683 0.70713 0.0
C448 C 0.3945 0.09649 0.68559 0.0
C449 C 0.42811 0.05754 0.71099 0.0
C450 C 0.4541 0.05751 0.6934 0.0
C451 C 0.45048 0.07767 0.67222 0.0
C452 C 0.42102 0.09685 0.6683 0.0
C453 C 0.48484 0.03594 0.69641 0.0
C454 C 0.51686 0.05174 0.69616 0.0
C455 C 0.48292 1.00004 0.69824 0.0
C456 C 0.44989 0.9818 0.69905 0.0
C457 C 0.42618 0.98492 0.6797 0.0
C458 C 0.3949 0.96801 0.68087 0.0
C459 C 0.38716 0.94767 0.70121 0.0
C460 C 0.41075 0.94409 0.72036 0.0
C461 C 0.44205 0.96098 0.71929 0.0
H462 H 0.36292 0.93463 0.7021 0.0
H463 H 0.66734 0.09807 0.6975 0.0
H464 H 0.5177 0.27787 0.18011 0.0
H465 H 0.4611 0.28021 0.19851 0.0
H466 H 0.50145 0.23771 0.26582 0.0
H467 H 0.55818 0.23502 0.24742 0.0
H468 H 0.44164 0.20904 0.254 0.0
H469 H 0.48523 0.32238 0.26013 0.0
H470 H 0.51025 0.37594 0.24492 0.0
H471 H 0.42319 0.39208 0.19827 0.0
H472 H 0.39793 0.33824 0.2128 0.0
H473 H 0.30486 0.25091 0.33304 0.0
H474 H 0.3608 0.24945 0.31376 0.0
H475 H 0.31692 0.28594 0.24583 0.0
H476 H 0.26051 0.28658 0.26474 0.0
H477 H 0.3781 0.31802 0.25734 0.0
H478 H 0.33469 0.20423 0.25222 0.0
H479 H 0.31085 0.15021 0.26746 0.0
H480 H 0.39922 0.13492 0.31298 0.0
H481 H 0.42331 0.18923 0.29841 0.0
C482 C 0.51452 0.26882 0.19879 0.0
C483 C 0.54248 0.25637 0.21235 0.0
C484 C 0.48215 0.27038 0.20934 0.0
C485 C 0.47707 0.25967 0.2337 0.0
C486 C 0.50477 0.24631 0.24705 0.0
C487 C 0.5372 0.24483 0.23652 0.0
C488 C 0.4429 0.26243 0.24529 0.0
C489 C 0.42798 0.23297 0.25507 0.0
C490 C 0.42469 0.29355 0.24613 0.0
C491 C 0.43981 0.32604 0.23739 0.0
C492 C 0.47154 0.33717 0.24645 0.0
C493 C 0.48576 0.36761 0.23798 0.0
C494 C 0.46833 0.38738 0.22063 0.0
C495 C 0.43667 0.37673 0.2117 0.0
C496 C 0.42239 0.34624 0.22005 0.0
C497 C 0.30691 0.25841 0.31393 0.0
C498 C 0.27786 0.26852 0.30044 0.0
C499 C 0.33904 0.25769 0.30296 0.0
C500 C 0.34305 0.26717 0.27825 0.0
C501 C 0.31445 0.27848 0.26493 0.0
C502 C 0.28219 0.27899 0.27585 0.0
C503 C 0.37698 0.26462 0.26624 0.0
C504 C 0.39182 0.29411 0.25633 0.0
C505 C 0.39528 0.23357 0.26542 0.0
C506 C 0.38059 0.20109 0.27447 0.0
C507 C 0.34886 0.18959 0.26572 0.0
C508 C 0.33533 0.15886 0.2742 0.0
C509 C 0.35344 0.13921 0.29126 0.0
C510 C 0.38516 0.15022 0.29984 0.0
C511 C 0.39875 0.18099 0.29149 0.0
H512 H 0.34295 0.11539 0.29776 0.0
H513 H 0.47929 0.41102 0.21418 0.0
H514 H 0.22658 0.02438 0.68681 0.0
H515 H 0.22291 0.96666 0.70379 0.0
H516 H 0.28914 0.99572 0.76362 0.0
H517 H 0.2922 0.05391 0.74705 0.0
H518 H 0.30476 0.93033 0.73447 0.0
H519 H 0.21393 0.99031 0.77842 0.0
H520 H 0.16175 0.02523 0.77862 0.0
H521 H 0.10976 0.94979 0.73552 0.0
H522 H 0.1618 0.91459 0.73483 0.0
H523 H 0.30079 0.78975 0.81196 0.0
H524 H 0.30042 0.84531 0.7936 0.0
H525 H 0.19995 0.82703 0.76406 0.0
H526 H 0.19775 0.77298 0.78576 0.0
H527 H 0.19986 0.88685 0.77404 0.0
H528 H 0.282 0.82496 0.72947 0.0
H529 H 0.33192 0.78883 0.72114 0.0
H530 H 0.39763 0.86362 0.75381 0.0
H531 H 0.34808 0.89998 0.7627 0.0
C532 C 0.24042 0.01845 0.70356 0.0
C533 C 0.25974 0.04359 0.71561 0.0
C534 C 0.2382 0.98553 0.71326 0.0
C535 C 0.25573 0.97698 0.73495 0.0
C536 C 0.27542 1.00188 0.74686 0.0
C537 C 0.27707 0.03506 0.73744 0.0
C538 C 0.25358 0.942 0.74517 0.0
C539 C 0.28208 0.92078 0.74347 0.0
C540 C 0.22327 0.92912 0.75551 0.0
C541 C 0.1918 0.94992 0.75647 0.0
C542 C 0.19143 0.98125 0.7689 0.0
C543 C 0.16186 1.00106 0.76912 0.0
C544 C 0.13245 0.9897 0.75714 0.0
C545 C 0.13253 0.95849 0.74488 0.0
C546 C 0.16204 0.93859 0.74459 0.0
C547 C 0.2779 0.7974 0.80233 0.0
C548 C 0.24903 0.77603 0.80099 0.0
C549 C 0.27825 0.82934 0.79101 0.0
C550 C 0.25064 0.8405 0.77659 0.0
C551 C 0.22185 0.81929 0.77489 0.0
C552 C 0.22087 0.78778 0.78713 0.0
C553 C 0.25163 0.87458 0.76405 0.0
C554 C 0.22278 0.89584 0.7651 0.0
C555 C 0.28129 0.88701 0.75208 0.0
C556 C 0.31121 0.86504 0.747 0.0
C557 C 0.30705 0.83358 0.73509 0.0
C558 C 0.3353 0.81307 0.73023 0.0
C559 C 0.36791 0.82388 0.73701 0.0
C560 C 0.37235 0.85525 0.74862 0.0
C561 C 0.34418 0.87582 0.75356 0.0
H562 H 0.38975 0.80798 0.73321 0.0
H563 H 0.1096 1.00509 0.75733 0.0
H564 H 0.50764 0.75724 0.18477 0.0
H565 H 0.56403 0.75269 0.20371 0.0
H566 H 0.51926 0.76363 0.27555 0.0
H567 H 0.46284 0.7692 0.2566 0.0
H568 H 0.5752 0.79811 0.27442 0.0
H569 H 0.54405 0.68599 0.25209 0.0
H570 H 0.52412 0.64013 0.2248 0.0
H571 H 0.61297 0.65212 0.17998 0.0
H572 H 0.63289 0.69895 0.2065 0.0
H573 H 0.73784 0.69306 0.31201 0.0
H574 H 0.6797 0.69439 0.2952 0.0
H575 H 0.69501 0.79814 0.27162 0.0
H576 H 0.75246 0.79716 0.28896 0.0
H577 H 0.65122 0.70217 0.25247 0.0
H578 H 0.62393 0.84417 0.27559 0.0
H579 H 0.64028 0.88655 0.3069 0.0
H580 H 0.66274 0.80641 0.35829 0.0
H581 H 0.64607 0.76358 0.32743 0.0
C582 C 0.50981 0.75889 0.2046 0.0
C583 C 0.48073 0.76347 0.21919 0.0
C584 C 0.54209 0.75606 0.21544 0.0
C585 C 0.54598 0.75717 0.24114 0.0
C586 C 0.51702 0.76258 0.2557 0.0
C587 C 0.48473 0.76574 0.24484 0.0
C588 C 0.58019 0.7526 0.25278 0.0
C589 C 0.59178 0.77712 0.26958 0.0
C590 C 0.6016 0.72464 0.24712 0.0
C591 C 0.58985 0.69624 0.23121 0.0
C592 C 0.55923 0.67907 0.2363 0.0
C593 C 0.54793 0.65286 0.22097 0.0
C594 C 0.56732 0.64312 0.20071 0.0
C595 C 0.59798 0.65968 0.19569 0.0
C596 C 0.60926 0.68613 0.21084 0.0
C597 C 0.72878 0.71604 0.3031 0.0
C598 C 0.74955 0.74514 0.3021 0.0
C599 C 0.69555 0.71681 0.2935 0.0
C600 C 0.68254 0.74662 0.28257 0.0
C601 C 0.70393 0.77514 0.28058 0.0
C602 C 0.73686 0.77453 0.29044 0.0
C603 C 0.64658 0.74827 0.27351 0.0
C604 C 0.63462 0.72315 0.25728 0.0
C605 C 0.62436 0.77506 0.2803 0.0
C606 C 0.63404 0.80067 0.2991 0.0
C607 C 0.63221 0.8356 0.29361 0.0
C608 C 0.64156 0.8597 0.31127 0.0
C609 C 0.65264 0.84918 0.33454 0.0
C610 C 0.65427 0.81453 0.34023 0.0
C611 C 0.6449 0.79033 0.32265 0.0
H612 H 0.6599 0.86787 0.34817 0.0
H613 H 0.55863 0.62272 0.18893 0.0
H614 H 0.77907 0.26299 0.76331 0.0
H615 H 0.77764 0.20633 0.74495 0.0
H616 H 0.74677 0.16351 0.81444 0.0
H617 H 0.74976 0.21976 0.83323 0.0
H618 H 0.79073 0.12285 0.79418 0.0
H619 H 0.68945 0.17874 0.76621 0.0
H620 H 0.65481 0.22367 0.74662 0.0
H621 H 0.70604 0.20719 0.67811 0.0
H622 H 0.74135 0.16248 0.6974 0.0
H623 H 0.73239 0.96413 0.74771 0.0
H624 H 0.7318 0.02114 0.7658 0.0
H625 H 0.77336 0.06266 0.69889 0.0
H626 H 0.77362 1.00588 0.6806 0.0
H627 H 0.72372 0.10347 0.7179 0.0
H628 H 0.82208 0.0429 0.7473 0.0
H629 H 0.85026 0.99423 0.76744 0.0
H630 H 0.80066 0.01821 0.83539 0.0
H631 H 0.77064 0.06596 0.81531 0.0
C632 C 0.77249 0.2415 0.77484 0.0
C633 C 0.76431 0.24619 0.79978 0.0
C634 C 0.77126 0.20908 0.7642 0.0
C635 C 0.76146 0.18056 0.77815 0.0
C636 C 0.75419 0.18502 0.80319 0.0
C637 C 0.7556 0.21737 0.81387 0.0
C638 C 0.75855 0.14617 0.76669 0.0
C639 C 0.7757 0.11859 0.77767 0.0
C640 C 0.73932 0.14046 0.74493 0.0
C641 C 0.71834 0.16756 0.73334 0.0
C642 C 0.69357 0.18493 0.74703 0.0
C643 C 0.67376 0.21031 0.73597 0.0
C644 C 0.67829 0.21836 0.71116 0.0
C645 C 0.7026 0.20098 0.69735 0.0
C646 C 0.72252 0.17562 0.70833 0.0
C647 C 0.74119 0.98543 0.73679 0.0
C648 C 0.75334 0.98043 0.7128 0.0
C649 C 0.74087 0.01801 0.74717 0.0
C650 C 0.75299 0.04615 0.73383 0.0
C651 C 0.76396 0.04136 0.70956 0.0
C652 C 0.76422 1.00883 0.69916 0.0
C653 C 0.75569 0.08032 0.74545 0.0
C654 C 0.73863 0.10781 0.73444 0.0
C655 C 0.77462 0.0858 0.76735 0.0
C656 C 0.79373 0.05785 0.77968 0.0
C657 C 0.81681 0.03761 0.76646 0.0
C658 C 0.83306 0.01009 0.77786 0.0
C659 C 0.82733 1.00318 0.80269 0.0
C660 C 0.8051 0.02361 0.81614 0.0
C661 C 0.7883 0.0508 0.80472 0.0
H662 H 0.84012 0.98199 0.81152 0.0
H663 H 0.66291 0.238 0.70262 0.0
H664 H 0.05776 0.28333 0.28389 0.0
H665 H 1.00009 0.28308 0.26641 0.0
H666 H 0.96208 0.23664 0.33276 0.0
H667 H 0.01953 0.23662 0.35023 0.0
H668 H 0.9376 0.20473 0.29319 0.0
H669 H 0.9468 0.3195 0.32022 0.0
H670 H 0.97149 0.37692 0.32426 0.0
H671 H 0.96101 0.39252 0.24642 0.0
H672 H 0.93682 0.33495 0.24182 0.0
H673 H 0.76022 0.23006 0.26638 0.0
H674 H 0.81685 0.23122 0.2854 0.0
H675 H 0.85898 0.27181 0.21844 0.0
H676 H 0.80283 0.26991 0.19906 0.0
H677 H 0.8805 0.30742 0.25947 0.0
H678 H 0.8723 0.19053 0.23342 0.0
H679 H 0.8461 0.13362 0.23092 0.0
H680 H 0.85324 0.12312 0.3094 0.0
H681 H 0.87905 0.18021 0.31241 0.0
C682 C 0.03707 0.27323 0.29479 0.0
C683 C 0.04323 0.26002 0.31845 0.0
C684 C 1.00408 0.27323 0.28482 0.0
C685 C 0.97662 0.26002 0.29832 0.0
C686 C 0.98279 0.24694 0.32198 0.0
C687 C 0.01567 0.24708 0.33198 0.0
C688 C 0.94167 0.25885 0.28754 0.0
C689 C 0.92495 0.2273 0.28614 0.0
C690 C 0.92528 0.28819 0.27799 0.0
C691 C 0.9403 0.3227 0.28063 0.0
C692 C 0.9501 0.335 0.30391 0.0
C693 C 0.96393 0.36762 0.30632 0.0
C694 C 0.96784 0.38833 0.28562 0.0
C695 C 0.95798 0.37644 0.26245 0.0
C696 C 0.9442 0.34381 0.25993 0.0
C697 C 0.78158 0.23869 0.25552 0.0
C698 C 0.77673 0.25002 0.23115 0.0
C699 C 0.81396 0.23954 0.2665 0.0
C700 C 0.84221 0.25169 0.25337 0.0
C701 C 0.83755 0.26263 0.22902 0.0
C702 C 0.80531 0.26159 0.21799 0.0
C703 C 0.87662 0.25329 0.265 0.0
C704 C 0.8932 0.28491 0.26657 0.0
C705 C 0.89277 0.22411 0.27494 0.0
C706 C 0.87725 0.1898 0.27316 0.0
C707 C 0.868 0.17622 0.25017 0.0
C708 C 0.85327 0.1439 0.24866 0.0
C709 C 0.84791 0.12481 0.27 0.0
C710 C 0.85735 0.13796 0.29289 0.0
C711 C 0.87204 0.17029 0.29451 0.0
H712 H 0.83653 0.09979 0.26879 0.0
H713 H 0.97839 0.41363 0.28753 0.0
H714 H 0.26318 0.5171 0.85603 0.0
H715 H 0.26694 0.4606 0.83761 0.0
H716 H 0.25679 0.50514 0.76531 0.0
H717 H 0.25183 0.56165 0.78377 0.0
H718 H 0.22144 0.4504 0.76628 0.0
H719 H 0.33488 0.47707 0.79005 0.0
H720 H 0.38193 0.49468 0.81743 0.0
H721 H 0.36456 0.40747 0.86335 0.0
H722 H 0.31693 0.38968 0.83656 0.0
H723 H 0.29432 0.3043 0.70426 0.0
H724 H 0.2913 0.36084 0.72257 0.0
H725 H 0.25278 0.31751 0.78966 0.0
H726 H 0.25324 0.26103 0.77113 0.0
H727 H 0.31447 0.37128 0.79012 0.0
H728 H 0.19695 0.34888 0.76446 0.0
H729 H 0.1534 0.33272 0.73381 0.0
H730 H 0.18496 0.41485 0.68697 0.0
H731 H 0.2291 0.43113 0.7172 0.0
C732 C 0.26161 0.51485 0.83621 0.0
C733 C 0.25732 0.54388 0.82135 0.0
C734 C 0.26402 0.48251 0.82566 0.0
C735 C 0.26287 0.47848 0.79998 0.0
C736 C 0.25789 0.50745 0.78515 0.0
C737 C 0.25507 0.53979 0.79572 0.0
C738 C 0.26656 0.44411 0.78863 0.0
C739 C 0.24208 0.43339 0.77137 0.0
C740 C 0.2934 0.42156 0.79519 0.0
C741 C 0.32202 0.43224 0.81142 0.0
C742 C 0.34086 0.46181 0.80612 0.0
C743 C 0.36766 0.47181 0.82152 0.0
C744 C 0.37612 0.45226 0.84216 0.0
C745 C 0.35789 0.42263 0.84739 0.0
C746 C 0.33098 0.41258 0.83211 0.0
C747 C 0.28466 0.30654 0.72278 0.0
C748 C 0.27377 0.2776 0.736 0.0
C749 C 0.28334 0.33901 0.7333 0.0
C750 C 0.27182 0.3433 0.75744 0.0
C751 C 0.26193 0.31465 0.77102 0.0
C752 C 0.2625 0.28225 0.76036 0.0
C753 C 0.26919 0.37785 0.76824 0.0
C754 C 0.29394 0.38853 0.78523 0.0
C755 C 0.24315 0.40067 0.76105 0.0
C756 C 0.21661 0.39091 0.74293 0.0
C757 C 0.19487 0.36323 0.7475 0.0
C758 C 0.17002 0.35411 0.73023 0.0
C759 C 0.16649 0.37266 0.70841 0.0
C760 C 0.18776 0.40044 0.70385 0.0
C761 C 0.21269 0.40963 0.72104 0.0
H762 H 0.14722 0.36558 0.69508 0.0
H763 H 0.39683 0.46004 0.85408 0.0
H764 H 1.00947 0.75103 0.35598 0.0
H765 H 0.06629 0.75308 0.33788 0.0
H766 H 0.02219 0.74212 0.26549 0.0
H767 H 0.96532 0.73901 0.2836 0.0
H768 H 0.08016 0.7067 0.26901 0.0
H769 H 0.04272 0.81835 0.29043 0.0
H770 H 0.02029 0.86071 0.31935 0.0
H771 H 0.11224 0.85455 0.36217 0.0
H772 H 0.13445 0.81046 0.33432 0.0
H773 H 0.21994 0.76586 0.19995 0.0
H774 H 0.16362 0.76196 0.21862 0.0
H775 H 0.20877 0.77319 0.29062 0.0
H776 H 0.26527 0.77738 0.272 0.0
H777 H 0.15037 0.80856 0.2875 0.0
H778 H 0.18566 0.69451 0.26821 0.0
H779 H 0.20648 0.64868 0.24128 0.0
H780 H 0.1188 0.6606 0.19454 0.0
H781 H 0.09768 0.70683 0.22101 0.0
C782 C 0.0119 0.74867 0.33623 0.0
C783 C 0.98289 0.74516 0.32119 0.0
C784 C 0.04441 0.74994 0.32589 0.0
C785 C 0.04854 0.74846 0.30025 0.0
C786 C 0.01969 0.74346 0.28529 0.0
C787 C 0.98717 0.74177 0.29566 0.0
C788 C 0.08261 0.75387 0.28897 0.0
C789 C 0.09531 0.72917 0.27284 0.0
C790 C 0.10272 0.78297 0.29427 0.0
C791 C 0.09013 0.81073 0.31039 0.0
C792 C 0.05809 0.82575 0.30612 0.0
C793 C 0.04534 0.85001 0.32239 0.0
C794 C 0.06488 0.86047 0.34253 0.0
C795 C 0.09713 0.84645 0.34654 0.0
C796 C 0.10973 0.82162 0.33061 0.0
C797 C 0.2179 0.76756 0.21977 0.0
C798 C 0.2472 0.77165 0.23448 0.0
C799 C 0.18565 0.7653 0.23043 0.0
C800 C 0.18192 0.76662 0.2561 0.0
C801 C 0.21096 0.77201 0.27079 0.0
C802 C 0.24326 0.77449 0.26011 0.0
C803 C 0.14793 0.76132 0.26759 0.0
C804 C 0.13521 0.7861 0.2837 0.0
C805 C 0.12774 0.73232 0.26229 0.0
C806 C 0.14025 0.70433 0.24647 0.0
C807 C 0.17093 0.6875 0.2521 0.0
C808 C 0.18277 0.66144 0.23693 0.0
C809 C 0.16402 0.65179 0.21618 0.0
C810 C 0.13332 0.66812 0.2106 0.0
C811 C 0.12139 0.69423 0.22569 0.0
H812 H 0.17323 0.63161 0.20445 0.0
H813 H 0.05502 0.87943 0.35501 0.0
H814 H 0.73368 0.76451 0.76736 0.0
H815 H 0.73415 0.70778 0.78619 0.0
H816 H 0.75704 0.66322 0.7158 0.0
H817 H 0.75614 0.71973 0.69683 0.0
H818 H 0.7094 0.62594 0.74104 0.0
H819 H 0.81944 0.67563 0.75711 0.0
H820 H 0.85889 0.71958 0.77252 0.0
H821 H 0.81955 0.70686 0.84549 0.0
H822 H 0.77949 0.66315 0.83043 0.0
H823 H 0.76967 0.46409 0.77979 0.0
H824 H 0.76631 0.52126 0.76187 0.0
H825 H 0.74718 0.56324 0.83369 0.0
H826 H 0.75072 0.50627 0.85172 0.0
H827 H 0.79166 0.60224 0.80853 0.0
H828 H 0.68251 0.55264 0.79362 0.0
H829 H 0.6423 0.50881 0.77911 0.0
H830 H 0.67827 0.5217 0.70523 0.0
H831 H 0.71908 0.56528 0.71938 0.0
C832 C 0.7383 0.74259 0.75583 0.0
C833 C 0.74505 0.74669 0.73061 0.0
C834 C 0.73884 0.71019 0.76665 0.0
C835 C 0.74605 0.68123 0.75247 0.0
C836 C 0.75156 0.68515 0.72714 0.0
C837 C 0.75124 0.71751 0.71635 0.0
C838 C 0.74885 0.64696 0.76407 0.0
C839 C 0.72764 0.62066 0.75561 0.0
C840 C 0.77209 0.64021 0.78349 0.0
C841 C 0.79622 0.66639 0.79259 0.0
C842 C 0.819 0.68241 0.7764 0.0
C843 C 0.84151 0.70724 0.78508 0.0
C844 C 0.84166 0.71607 0.80995 0.0
C845 C 0.81936 0.70003 0.82622 0.0
C846 C 0.79677 0.67521 0.81762 0.0
C847 C 0.76496 0.48552 0.79178 0.0
C848 C 0.76034 0.48061 0.81716 0.0
C849 C 0.76287 0.51818 0.78151 0.0
C850 C 0.75606 0.54656 0.79639 0.0
C851 C 0.75238 0.54178 0.82183 0.0
C852 C 0.75435 0.50915 0.83209 0.0
C853 C 0.75233 0.58114 0.78541 0.0
C854 C 0.77335 0.6075 0.794 0.0
C855 C 0.72876 0.58801 0.76622 0.0
C856 C 0.70409 0.56199 0.7576 0.0
C857 C 0.68204 0.54594 0.77431 0.0
C858 C 0.6591 0.52117 0.76615 0.0
C859 C 0.65779 0.51241 0.74127 0.0
C860 C 0.67935 0.52848 0.7245 0.0
C861 C 0.70237 0.55324 0.73258 0.0
H862 H 0.64002 0.49323 0.73499 0.0
H863 H 0.85911 0.7353 0.81664 0.0
H864 H 0.21255 0.28027 0.42643 0.0
H865 H 0.22299 0.26014 0.46819 0.0
H866 H 0.16426 0.16969 0.45317 0.0
H867 H 0.15264 0.19043 0.41142 0.0
H868 H 0.1477 0.19131 0.49569 0.0
H869 H 0.25393 0.16887 0.45844 0.0
H870 H 0.30539 0.18039 0.43404 0.0
H871 H 0.33565 0.25782 0.48525 0.0
H872 H 0.2841 0.24711 0.50979 0.0
H873 H 0.26189 0.13536 0.60848 0.0
H874 H 0.25492 0.14392 0.56407 0.0
H875 H 0.17513 0.21688 0.57755 0.0
H876 H 0.18114 0.2076 0.62168 0.0
H877 H 0.26253 0.19415 0.5341 0.0
H878 H 0.11568 0.21612 0.5337 0.0
H879 H 0.06533 0.19676 0.55676 0.0
H880 H 0.11828 0.10574 0.57821 0.0
H881 H 0.16876 0.1243 0.555 0.0
C882 C 0.20203 0.25595 0.43189 0.0
C883 C 0.18182 0.23692 0.41551 0.0
C884 C 0.2082 0.24434 0.45582 0.0
C885 C 0.19493 0.21306 0.46386 0.0
C886 C 0.17487 0.19387 0.44748 0.0
C887 C 0.16831 0.20571 0.42357 0.0
C888 C 0.20095 0.20122 0.48964 0.0
C889 C 0.17285 0.19181 0.50401 0.0
C890 C 0.23386 0.20085 0.5005 0.0
C891 C 0.265 0.20734 0.48586 0.0
C892 C 0.27144 0.18851 0.46442 0.0
C893 C 0.30064 0.19488 0.45057 0.0
C894 C 0.32374 0.21986 0.45806 0.0
C895 C 0.31772 0.23849 0.47946 0.0
C896 C 0.28853 0.23225 0.49336 0.0
C897 C 0.24286 0.15323 0.60195 0.0
C898 C 0.22188 0.17057 0.61866 0.0
C899 C 0.23892 0.15813 0.57655 0.0
C900 C 0.21403 0.18058 0.56732 0.0
C901 C 0.19387 0.19872 0.58406 0.0
C902 C 0.1975 0.19353 0.60938 0.0
C903 C 0.20914 0.18536 0.54029 0.0
C904 C 0.23743 0.19343 0.5257 0.0
C905 C 0.17656 0.18336 0.52902 0.0
C906 C 0.14611 0.17178 0.54276 0.0
C907 C 0.11652 0.1919 0.54323 0.0
C908 C 0.08797 0.18108 0.55635 0.0
C909 C 0.08864 0.15009 0.569 0.0
C910 C 0.11783 0.12979 0.56848 0.0
C911 C 0.14643 0.14047 0.55536 0.0
H912 H 0.06652 0.14178 0.57916 0.0
H913 H 0.34634 0.22476 0.44731 0.0
H914 H 0.306 0.78803 0.11162 0.0
H915 H 0.29284 0.76868 0.07012 0.0
H916 H 0.36697 0.6883 0.07753 0.0
H917 H 0.38078 0.70794 0.1192 0.0
H918 H 0.37158 0.71854 0.03303 0.0
H919 H 0.28233 0.67068 0.08099 0.0
H920 H 0.23592 0.67037 0.11134 0.0
H921 H 0.17946 0.74169 0.06723 0.0
H922 H 0.22576 0.74282 0.03677 0.0
H923 H 0.30952 0.63922 0.92222 0.0
H924 H 0.32753 0.65038 0.96467 0.0
H925 H 0.25657 0.73394 0.96851 0.0
H926 H 0.2381 0.72264 0.92645 0.0
H927 H 0.25201 0.69538 1.00845 0.0
H928 H 0.34389 0.74589 0.96204 0.0
H929 H 0.39054 0.74561 0.93186 0.0
H930 H 0.44202 0.66771 0.97323 0.0
H931 H 0.39543 0.66723 1.0035 0.0
C932 C 0.31951 0.76616 0.10454 0.0
C933 C 0.34436 0.74946 0.11885 0.0
C934 C 0.31184 0.75503 0.08077 0.0
C935 C 0.32856 0.72671 0.07076 0.0
C936 C 0.35366 0.71014 0.08487 0.0
C937 C 0.36143 0.72133 0.10872 0.0
C938 C 0.31976 0.71482 0.04552 0.0
C939 C 0.34551 0.7129 0.02775 0.0
C940 C 0.2857 0.70781 0.03849 0.0
C941 C 0.25765 0.70702 0.05668 0.0
C942 C 0.26012 0.68648 0.07784 0.0
C943 C 0.23382 0.68613 0.09505 0.0
C944 C 0.20479 0.70605 0.09124 0.0
C945 C 0.20197 0.72629 0.07017 0.0
C946 C 0.22822 0.72676 0.0529 0.0
C947 C 0.2979 0.6601 0.93207 0.0
C948 C 0.27232 0.68001 0.9209 0.0
C949 C 0.30829 0.6665 0.95633 0.0
C950 C 0.29354 0.69314 0.96981 0.0
C951 C 0.26826 0.71318 0.95857 0.0
C952 C 0.25779 0.70673 0.93443 0.0
C953 C 0.30367 0.69996 0.99579 0.0
C954 C 0.27812 0.70078 1.01375 0.0
C955 C 0.3379 0.7058 1.00296 0.0
C956 C 0.36601 0.70627 0.98488 0.0
C957 C 0.36504 0.72853 0.9646 0.0
C958 C 0.39149 0.72854 0.9475 0.0
C959 C 0.41918 0.70659 0.95059 0.0
C960 C 0.42053 0.68466 0.97084 0.0
C961 C 0.39412 0.68453 0.98798 0.0
H962 H 0.43962 0.70662 0.93732 0.0
H963 H 0.18446 0.70575 0.10459 0.0
H964 H 0.81939 0.88061 0.61656 0.0
H965 H 0.83957 0.86821 0.57492 0.0
H966 H 0.76356 0.78959 0.56778 0.0
H967 H 0.74378 0.80132 0.60925 0.0
H968 H 0.82225 0.76805 0.55018 0.0
H969 H 0.75393 0.86991 0.54165 0.0
H970 H 0.73822 0.92936 0.5505 0.0
H971 H 0.83631 0.96306 0.5259 0.0
H972 H 0.85277 0.90371 0.5172 0.0
H973 H 0.80207 0.74169 0.42396 0.0
H974 H 0.7929 0.7599 0.4662 0.0
H975 H 0.87809 0.82866 0.46099 0.0
H976 H 0.88744 0.81065 0.41835 0.0
H977 H 0.82306 0.8573 0.48548 0.0
H978 H 0.88898 0.75543 0.49017 0.0
H979 H 0.9037 0.69594 0.48067 0.0
H980 H 0.8097 0.66213 0.51241 0.0
H981 H 0.79414 0.7215 0.52175 0.0
C982 C 0.80712 0.86056 0.60615 0.0
C983 C 0.77987 0.84206 0.61626 0.0
C984 C 0.81857 0.85361 0.58229 0.0
C985 C 0.80285 0.82819 0.56805 0.0
C986 C 0.77614 0.80931 0.57835 0.0
C987 C 0.76477 0.81615 0.60212 0.0
C988 C 0.81368 0.82111 0.54234 0.0
C989 C 0.82219 0.78756 0.53603 0.0
C990 C 0.81464 0.8467 0.52393 0.0
C991 C 0.80471 0.88236 0.52905 0.0
C992 C 0.77224 0.88998 0.53831 0.0
C993 C 0.76318 0.92366 0.54327 0.0
C994 C 0.78629 0.94997 0.53884 0.0
C995 C 0.81847 0.94265 0.52937 0.0
C996 C 0.82766 0.909 0.52441 0.0
C997 C 0.81882 0.76085 0.43165 0.0
C998 C 0.84571 0.77447 0.41777 0.0
C999 C 0.81358 0.77116 0.45589 0.0
C1000 C 0.83514 0.79523 0.46692 0.0
C1001 C 0.86124 0.80992 0.45288 0.0
C1002 C 0.86657 0.79955 0.42853 0.0
C1003 C 0.83068 0.80411 0.4933 0.0
C1004 C 0.82349 0.83792 0.49971 0.0
C1005 C 0.83086 0.77877 0.51185 0.0
C1006 C 0.84029 0.74296 0.5065 0.0
C1007 C 0.87133 0.73534 0.49498 0.0
C1008 C 0.87984 0.70163 0.48964 0.0
C1009 C 0.85763 0.67528 0.49589 0.0
C1010 C 0.82688 0.68258 0.50756 0.0
C1011 C 0.81821 0.71625 0.51291 0.0
H1012 H 0.86426 0.6492 0.49174 0.0
H1013 H 0.77923 0.97603 0.54268 0.0
H1014 H 0.64066 0.31697 0.11473 0.0
H1015 H 0.65243 0.33595 0.07264 0.0
H1016 H 0.73617 0.26521 0.06861 0.0
H1017 H 0.72501 0.2466 0.11057 0.0
H1018 H 0.75375 0.32451 0.04904 0.0
H1019 H 0.65749 0.24842 0.04223 0.0
H1020 H 0.59935 0.22855 0.05137 0.0
H1021 H 0.5582 0.32243 0.02368 0.0
H1022 H 0.61618 0.34304 1.01469 0.0
H1023 H 0.78121 0.30338 0.92255 0.0
H1024 H 0.76494 0.29405 0.96527 0.0
H1025 H 0.68834 0.37221 0.95887 0.0
H1026 H 0.70436 0.38166 0.91586 0.0
H1027 H 0.66493 0.31599 0.9841 0.0
H1028 H 0.76108 0.39004 0.98768 0.0
H1029 H 0.81922 0.40946 0.97816 0.0
H1030 H 0.86064 0.31957 1.01192 0.0
H1031 H 0.8027 0.29932 0.0213 0.0
C1032 C 0.66171 0.30561 0.10492 0.0
C1033 C 0.68178 0.28012 0.11603 0.0
C1034 C 0.6683 0.31637 0.0808 0.0
C1035 C 0.69495 0.30172 0.06729 0.0
C1036 C 0.71546 0.2769 0.0786 0.0
C1037 C 0.70895 0.2662 0.10264 0.0
C1038 C 0.7015 0.31164 0.04127 0.0
C1039 C 0.73437 0.32238 0.03484 0.0
C1040 C 0.67601 0.30985 0.02277 0.0
C1041 C 0.64117 0.29741 0.02805 0.0
C1042 C 0.63605 0.26492 0.03827 0.0
C1043 C 0.60313 0.25351 0.04339 0.0
C1044 C 0.5751 0.27425 0.03817 0.0
C1045 C 0.57994 0.30642 0.02775 0.0
C1046 C 0.61282 0.31797 0.02263 0.0
C1047 C 0.76078 0.31854 0.93011 0.0
C1048 C 0.74426 0.34345 0.91576 0.0
C1049 C 0.7516 0.31325 0.95462 0.0
C1050 C 0.72576 0.33277 0.96541 0.0
C1051 C 0.70846 0.35695 0.95097 0.0
C1052 C 0.71772 0.36236 0.9264 0.0
C1053 C 0.71736 0.32807 0.99186 0.0
C1054 C 0.68419 0.31842 0.99837 0.0
C1055 C 0.74257 0.33084 1.01047 0.0
C1056 C 0.77751 0.34303 1.00502 0.0
C1057 C 0.78257 0.37428 0.99291 0.0
C1058 C 0.8155 0.38546 0.98756 0.0
C1059 C 0.84361 0.36573 0.99438 0.0
C1060 C 0.83884 0.33481 1.00663 0.0
C1061 C 0.80596 0.32349 1.01199 0.0
H1062 H 0.86908 0.37443 0.99023 0.0
H1063 H 0.54963 0.26537 0.04215 0.0
H1064 H 0.90202 0.91213 0.30358 0.0
H1065 H 0.93606 0.96399 0.30526 0.0
H1066 H 0.99899 0.91984 0.36212 0.0
H1067 H 0.9658 0.8673 0.36009 0.0
H1068 H 0.97665 0.99164 0.36955 0.0
H1069 H 0.03539 0.92029 0.30901 0.0
H1070 H 0.03591 0.88345 0.27215 0.0
H1071 H 0.99 0.96343 0.22952 0.0
H1072 H 0.98903 1.00044 0.26615 0.0
H1073 H 0.11242 0.11151 0.36376 0.0
H1074 H 0.07682 0.06031 0.36669 0.0
H1075 H 0.03369 0.08278 0.2952 0.0
H1076 H 0.07058 0.13255 0.29188 0.0
H1077 H 0.04572 0.02061 0.29629 0.0
H1078 H 0.99014 0.09496 0.35223 0.0
H1079 H 0.98466 0.13413 0.38733 0.0
H1080 H 0.01613 0.05475 0.43686 0.0
H1081 H 0.02226 0.01519 0.40199 0.0
C1082 C 0.92313 0.91327 0.31641 0.0
C1083 C 0.93126 0.88527 0.33152 0.0
C1084 C 0.94243 0.94303 0.31743 0.0
C1085 C 0.9701 0.94555 0.33369 0.0
C1086 C 0.97761 0.91832 0.3495 0.0
C1087 C 0.95846 0.88835 0.34837 0.0
C1088 C 0.99196 0.97617 0.33334 0.0
C1089 C 0.99219 0.99791 0.35374 0.0
C1090 C 0.01108 0.98481 0.31233 0.0
C1091 C 0.01177 0.96278 0.2903 0.0
C1092 C 0.02512 0.92972 0.29179 0.0
C1093 C 0.02558 0.90891 0.27097 0.0
C1094 C 0.01284 0.92103 0.24856 0.0
C1095 C 0.99978 0.95404 0.2469 0.0
C1096 C 0.99934 0.97495 0.26766 0.0
C1097 C 0.09531 0.10523 0.34876 0.0
C1098 C 0.09437 0.1255 0.32751 0.0
C1099 C 0.07478 0.07624 0.35048 0.0
C1100 C 0.05217 0.06778 0.33128 0.0
C1101 C 0.05101 0.08851 0.3102 0.0
C1102 C 0.07209 0.11689 0.30826 0.0
C1103 C 0.03058 0.03676 0.33255 0.0
C1104 C 0.03034 0.01473 0.31226 0.0
C1105 C 0.01067 0.02854 0.35342 0.0
C1106 C 1.00702 0.05222 0.37446 0.0
C1107 C 0.99616 0.08592 0.37058 0.0
C1108 C 0.99289 0.10819 0.39044 0.0
C1109 C 1.00014 0.09696 0.4143 0.0
C1110 C 0.01059 0.06342 0.41836 0.0
C1111 C 0.01394 0.04106 0.39855 0.0
H1112 H 0.99758 0.11424 0.42965 0.0
H1113 H 0.01319 0.90489 0.23247 0.0
H1114 H 0.38607 0.5923 0.87644 0.0
H1115 H 0.43672 0.55663 0.88084 0.0
H1116 H 0.45559 0.56574 0.80308 0.0
H1117 H 0.40474 0.60047 0.79829 0.0
H1118 H 0.4509 0.49465 0.85835 0.0
H1119 H 0.54238 0.57034 0.79553 0.0
H1120 H 0.55267 0.62968 0.78271 0.0
H1121 H 0.50846 0.66566 0.84985 0.0
H1122 H 0.49839 0.60656 0.86324 0.0
H1123 H 0.59131 0.39652 0.81515 0.0
H1124 H 0.54083 0.43219 0.82034 0.0
H1125 H 0.598 0.49931 0.86771 0.0
H1126 H 0.64867 0.46451 0.86199 0.0
H1127 H 0.56544 0.53412 0.83301 0.0
H1128 H 0.53664 0.44642 0.89062 0.0
H1129 H 0.52597 0.38792 0.90512 0.0
H1130 H 0.44532 0.37708 0.85208 0.0
H1131 H 0.45598 0.43525 0.83691 0.0
C1132 C 0.40084 0.58665 0.86023 0.0
C1133 C 0.39114 0.59941 0.837 0.0
C1134 C 0.42983 0.56632 0.86281 0.0
C1135 C 0.44993 0.55878 0.84231 0.0
C1136 C 0.44062 0.57168 0.81919 0.0
C1137 C 0.41155 0.59176 0.81654 0.0
C1138 C 0.48033 0.53685 0.84486 0.0
C1139 C 0.476 0.50321 0.85289 0.0
C1140 C 0.51305 0.54832 0.83802 0.0
C1141 C 0.51934 0.584 0.83027 0.0
C1142 C 0.53498 0.59091 0.8076 0.0
C1143 C 0.54076 0.62451 0.80023 0.0
C1144 C 0.53112 0.65143 0.81542 0.0
C1145 C 0.51579 0.6448 0.83806 0.0
C1146 C 0.51 0.61125 0.84553 0.0
C1147 C 0.59306 0.41878 0.82676 0.0
C1148 C 0.62407 0.42764 0.8381 0.0
C1149 C 0.56412 0.43896 0.8299 0.0
C1150 C 0.56562 0.46829 0.84454 0.0
C1151 C 0.59628 0.47672 0.85639 0.0
C1152 C 0.62518 0.45658 0.85326 0.0
C1153 C 0.53601 0.49154 0.84608 0.0
C1154 C 0.54044 0.52548 0.83866 0.0
C1155 C 0.50344 0.48033 0.85362 0.0
C1156 C 0.49731 0.44514 0.8625 0.0
C1157 C 0.51687 0.43145 0.88187 0.0
C1158 C 0.51079 0.39835 0.89023 0.0
C1159 C 0.48504 0.37876 0.87949 0.0
C1160 C 0.4653 0.39224 0.86036 0.0
C1161 C 0.47135 0.42528 0.85188 0.0
H1162 H 0.48034 0.35317 0.88602 0.0
H1163 H 0.5356 0.67742 0.80967 0.0
H1164 H 0.38831 0.5966 0.21827 0.0
H1165 H 0.42237 0.54463 0.21524 0.0
H1166 H 0.50079 0.6005 0.17732 0.0
H1167 H 0.4669 0.65236 0.18026 0.0
H1168 H 0.49359 0.5393 0.15754 0.0
H1169 H 0.50737 0.58413 0.23933 0.0
H1170 H 0.48752 0.60531 0.27945 0.0
H1171 H 0.43938 0.50923 0.29379 0.0
H1172 H 0.45859 0.48774 0.25356 0.0
H1173 H 0.62452 0.42219 0.22464 0.0
H1174 H 0.58873 0.47298 0.22206 0.0
H1175 H 0.52043 0.4208 0.17253 0.0
H1176 H 0.55577 0.36982 0.17529 0.0
H1177 H 0.52312 0.48028 0.23559 0.0
H1178 H 0.48742 0.48047 0.1323 0.0
H1179 H 0.51189 0.46255 0.09268 0.0
H1180 H 0.61278 0.4738 0.12237 0.0
H1181 H 0.58893 0.49222 0.16202 0.0
C1182 C 0.41274 0.59769 0.2092 0.0
C1183 C 0.42497 0.62855 0.19961 0.0
C1184 C 0.43217 0.56804 0.20747 0.0
C1185 C 0.46439 0.56885 0.19642 0.0
C1186 C 0.47604 0.59932 0.18596 0.0
C1187 C 0.45655 0.62893 0.18756 0.0
C1188 C 0.4867 0.53844 0.19683 0.0
C1189 C 0.49994 0.52631 0.17458 0.0
C1190 C 0.49546 0.52181 0.21911 0.0
C1191 C 0.48406 0.53453 0.24335 0.0
C1192 C 0.49231 0.56768 0.25098 0.0
C1193 C 0.48122 0.5797 0.27374 0.0
C1194 C 0.4621 0.55866 0.28914 0.0
C1195 C 0.45413 0.52552 0.28183 0.0
C1196 C 0.46513 0.51341 0.25905 0.0
C1197 C 0.60191 0.42155 0.21319 0.0
C1198 C 0.5931 0.392 0.20013 0.0
C1199 C 0.58152 0.45056 0.21171 0.0
C1200 C 0.55205 0.45065 0.19703 0.0
C1201 C 0.54336 0.42139 0.18369 0.0
C1202 C 0.56371 0.39232 0.1852 0.0
C1203 C 0.52991 0.4811 0.19631 0.0
C1204 C 0.5166 0.49314 0.21852 0.0
C1205 C 0.52171 0.498 0.17406 0.0
C1206 C 0.53634 0.48736 0.1502 0.0
C1207 C 0.51482 0.47922 0.13033 0.0
C1208 C 0.52859 0.46897 0.10788 0.0
C1209 C 0.56386 0.46692 0.10504 0.0
C1210 C 0.58546 0.47525 0.12462 0.0
C1211 C 0.57182 0.48556 0.1471 0.0
H1212 H 0.57447 0.45895 0.08765 0.0
H1213 H 0.45353 0.568 0.30676 0.0
H1214 H 0.1573 0.04871 0.70734 0.0
H1215 H 0.10721 0.01186 0.70761 0.0
H1216 H 0.04293 0.099 0.69345 0.0
H1217 H 0.09316 0.13604 0.69454 0.0
H1218 H 0.01442 0.06347 0.7256 0.0
H1219 H 0.06478 0.03345 0.64792 0.0
H1220 H 0.11143 0.01501 0.62084 0.0
H1221 H 0.12065 0.92165 0.66153 0.0
H1222 H 0.07424 0.93969 0.68899 0.0
H1223 H 0.86724 0.97156 0.68782 0.0
H1224 H 0.91906 1.00619 0.6871 0.0
H1225 H 0.97534 0.92399 0.72076 0.0
H1226 H 0.92333 0.88927 0.72166 0.0
H1227 H 1.00796 0.95514 0.6792 0.0
H1228 H 0.95763 0.98641 0.75665 0.0
H1229 H 0.9137 1.00711 0.7852 0.0
H1230 H 0.90431 0.09954 0.74346 0.0
H1231 H 0.94828 0.0794 0.71469 0.0
C1232 C 0.13242 0.0598 0.70412 0.0
C1233 C 0.12883 0.09503 0.70077 0.0
C1234 C 0.10382 0.03877 0.70416 0.0
C1235 C 0.0712 0.05244 0.7001 0.0
C1236 C 0.06775 0.08776 0.69662 0.0
C1237 C 0.09632 0.10891 0.6972 0.0
C1238 C 0.04054 0.03026 0.70045 0.0
C1239 C 0.01287 0.04014 0.71503 0.0
C1240 C 0.03874 0.99917 0.68734 0.0
C1241 C 0.06617 0.98799 0.67056 0.0
C1242 C 0.07682 1.00903 0.65112 0.0
C1243 C 0.10322 0.99865 0.6357 0.0
C1244 C 0.11902 0.9672 0.63948 0.0
C1245 C 0.10837 0.946 0.65862 0.0
C1246 C 0.08198 0.95625 0.67407 0.0
C1247 C 0.89075 0.96076 0.69479 0.0
C1248 C 0.89144 0.9277 0.70466 0.0
C1249 C 0.92021 0.98063 0.69457 0.0
C1250 C 0.95089 0.96765 0.704 0.0
C1251 C 0.95184 0.93442 0.71345 0.0
C1252 C 0.92223 0.9147 0.71401 0.0
C1253 C 0.98195 0.98888 0.70392 0.0
C1254 C 1.00962 0.97869 0.68951 0.0
C1255 C 0.98366 0.0199 0.71693 0.0
C1256 C 0.956 0.03127 0.73342 0.0
C1257 C 0.9459 0.01097 0.75341 0.0
C1258 C 0.92116 0.0227 0.76971 0.0
C1259 C 0.90627 0.05464 0.76616 0.0
C1260 C 0.91592 0.07483 0.74621 0.0
C1261 C 0.94081 0.06332 0.72994 0.0
H1262 H 0.88732 0.06381 0.77891 0.0
H1263 H 0.13948 0.95924 0.62755 0.0
loop_
_geom_bond_atom_site_label_1
_geom_bond_atom_site_label_2
_geom_bond_distance
_geom_bond_site_symmetry_2
_ccdc_geom_bond_type
Co0 N4 2.148 . S
Co0 N10 2.128 . S
Co0 N20 2.194 . S
Co0 O25 2.351 . S
Co0 O26 2.155 1_455 S
Co0 O27 2.096 . S
C1 N4 1.301 . S
C1 N5 1.328 . S
C1 H6 0.930 . S
C2 C3 1.333 . S
C2 N4 1.317 . S
C2 H7 0.930 . S
C3 C2 1.333 . S
C3 N5 1.350 . S
C3 H29 0.931 . S
N4 Co0 2.148 . S
N4 C1 1.301 . S
N4 C2 1.317 . S
N5 C1 1.328 . S
N5 C3 1.350 . S
H6 C1 0.930 . S
H7 C2 0.930 . S
C8 O9 1.224 . S
C8 O27 1.247 . S
O9 C8 1.224 . S
N10 Co0 2.128 . S
N10 C11 1.355 . S
N10 C13 1.311 . S
C11 N10 1.355 . S
C11 C12 1.363 . S
C11 H23 0.929 . S
C12 C11 1.363 . S
C12 N14 1.375 . S
C12 H30 0.931 . S
C13 N10 1.311 . S
C13 N14 1.347 . S
C13 H24 0.929 . S
N14 C12 1.375 . S
N14 C13 1.347 . S
C15 C18 1.365 . S
C15 N20 1.328 . S
C15 H21 0.929 . S
C16 C17 1.362 . S
C16 C19 1.378 . S
C16 H31 0.929 . S
C17 C16 1.362 . S
C17 C18 1.366 . S
C18 C15 1.365 . S
C18 C17 1.366 . S
C18 H32 0.930 . S
C19 C16 1.378 . S
C19 N20 1.315 . S
C19 H22 0.930 . S
N20 Co0 2.194 . S
N20 C15 1.328 . S
N20 C19 1.315 . S
H21 C15 0.929 . S
H22 C19 0.930 . S
H23 C11 0.929 . S
H24 C13 0.929 . S
O25 Co0 2.351 . S
O25 C28 1.244 1_455 S
O26 Co0 2.155 1_655 S
O26 C28 1.240 . S
O27 Co0 2.096 . S
O27 C8 1.247 . S
C28 O25 1.244 1_655 S
C28 O26 1.240 . S
H29 C3 0.931 . S
H30 C12 0.931 . S
H31 C16 0.929 . S
H32 C18 0.930 . S
Co33 N37 2.148 . S
Co33 N43 2.128 . S
Co33 N53 2.194 . S
Co33 O58 2.351 . S
Co33 O59 2.155 . S
Co33 O60 2.096 . S
C34 N37 1.301 . S
C34 N38 1.328 . S
C34 H39 0.930 . S
C35 C36 1.333 . S
C35 N37 1.317 . S
C35 H40 0.930 . S
C36 C35 1.333 . S
C36 N38 1.350 . S
C36 H62 0.931 . S
N37 Co33 2.148 . S
N37 C34 1.301 . S
N37 C35 1.317 . S
N38 C34 1.328 . S
N38 C36 1.350 . S
H39 C34 0.930 . S
H40 C35 0.930 . S
C41 O42 1.224 . S
C41 O60 1.247 . S
O42 C41 1.224 . S
N43 Co33 2.128 . S
N43 C44 1.355 . S
N43 C46 1.311 . S
C44 N43 1.355 . S
C44 C45 1.363 . S
C44 H56 0.929 . S
C45 C44 1.363 . S
C45 N47 1.375 . S
C45 H63 0.931 . S
C46 N43 1.311 . S
C46 N47 1.347 . S
C46 H57 0.929 . S
N47 C45 1.375 . S
N47 C46 1.347 . S
C48 C51 1.365 . S
C48 N53 1.328 . S
C48 H54 0.929 . S
C49 C50 1.362 . S
C49 C52 1.378 . S
C49 H64 0.929 . S
C50 C49 1.362 . S
C50 C51 1.366 . S
C51 C48 1.365 . S
C51 C50 1.366 . S
C51 H65 0.930 . S
C52 C49 1.378 . S
C52 N53 1.315 . S
C52 H55 0.930 . S
N53 Co33 2.194 . S
N53 C48 1.328 . S
N53 C52 1.315 . S
H54 C48 0.929 . S
H55 C52 0.930 . S
H56 C44 0.929 . S
H57 C46 0.929 . S
O58 Co33 2.351 . S
O58 C61 1.244 . S
O59 Co33 2.155 . S
O59 C61 1.240 . S
O60 Co33 2.096 . S
O60 C41 1.247 . S
C61 O58 1.244 . S
C61 O59 1.240 . S
H62 C36 0.931 . S
H63 C45 0.931 . S
H64 C49 0.929 . S
H65 C51 0.930 . S
Co66 N70 2.148 . S
Co66 N76 2.128 . S
Co66 N86 2.194 . S
Co66 O91 2.351 . S
Co66 O92 2.155 1_655 S
Co66 O93 2.096 . S
C67 N70 1.301 . S
C67 N71 1.328 . S
C67 H72 0.930 . S
C68 C69 1.333 . S
C68 N70 1.317 . S
C68 H73 0.930 . S
C69 C68 1.333 . S
C69 N71 1.350 . S
C69 H95 0.931 . S
N70 Co66 2.148 . S
N70 C67 1.301 . S
N70 C68 1.317 . S
N71 C67 1.328 . S
N71 C69 1.350 . S
H72 C67 0.930 . S
H73 C68 0.930 . S
C74 O75 1.224 . S
C74 O93 1.247 . S
O75 C74 1.224 . S
N76 Co66 2.128 . S
N76 C77 1.355 . S
N76 C79 1.311 . S
C77 N76 1.355 . S
C77 C78 1.363 . S
C77 H89 0.929 . S
C78 C77 1.363 . S
C78 N80 1.375 . S
C78 H96 0.931 . S
C79 N76 1.311 . S
C79 N80 1.347 . S
C79 H90 0.929 . S
N80 C78 1.375 . S
N80 C79 1.347 . S
C81 C84 1.365 . S
C81 N86 1.328 . S
C81 H87 0.929 . S
C82 C83 1.362 . S
C82 C85 1.378 . S
C82 H97 0.929 . S
C83 C82 1.362 . S
C83 C84 1.366 . S
C84 C81 1.365 . S
C84 C83 1.366 . S
C84 H98 0.930 . S
C85 C82 1.378 . S
C85 N86 1.315 . S
C85 H88 0.930 . S
N86 Co66 2.194 . S
N86 C81 1.328 . S
N86 C85 1.315 . S
H87 C81 0.929 . S
H88 C85 0.930 . S
H89 C77 0.929 . S
H90 C79 0.929 . S
O91 Co66 2.351 . S
O91 C94 1.244 1_655 S
O92 Co66 2.155 1_455 S
O92 C94 1.240 . S
O93 Co66 2.096 . S
O93 C74 1.247 . S
C94 O91 1.244 1_455 S
C94 O92 1.240 . S
H95 C69 0.931 . S
H96 C78 0.931 . S
H97 C82 0.929 . S
H98 C84 0.930 . S
Co99 N103 2.148 . S
Co99 N109 2.128 . S
Co99 N119 2.194 . S
Co99 O124 2.351 . S
Co99 O125 2.155 . S
Co99 O126 2.096 . S
C100 N103 1.301 . S
C100 N104 1.328 . S
C100 H105 0.930 . S
C101 C102 1.333 . S
C101 N103 1.317 . S
C101 H106 0.930 . S
C102 C101 1.333 . S
C102 N104 1.350 . S
C102 H128 0.931 . S
N103 Co99 2.148 . S
N103 C100 1.301 . S
N103 C101 1.317 . S
N104 C100 1.328 . S
N104 C102 1.350 . S
H105 C100 0.930 . S
H106 C101 0.930 . S
C107 O108 1.224 . S
C107 O126 1.247 . S
O108 C107 1.224 . S
N109 Co99 2.128 . S
N109 C110 1.355 . S
N109 C112 1.311 . S
C110 N109 1.355 . S
C110 C111 1.363 . S
C110 H122 0.929 . S
C111 C110 1.363 . S
C111 N113 1.375 . S
C111 H129 0.931 . S
C112 N109 1.311 . S
C112 N113 1.347 . S
C112 H123 0.929 . S
N113 C111 1.375 . S
N113 C112 1.347 . S
C114 C117 1.365 . S
C114 N119 1.328 . S
C114 H120 0.929 . S
C115 C116 1.362 . S
C115 C118 1.378 . S
C115 H130 0.929 . S
C116 C115 1.362 . S
C116 C117 1.366 . S
C117 C114 1.365 . S
C117 C116 1.366 . S
C117 H131 0.930 . S
C118 C115 1.378 . S
C118 N119 1.315 . S
C118 H121 0.930 . S
N119 Co99 2.194 . S
N119 C114 1.328 . S
N119 C118 1.315 . S
H120 C114 0.929 . S
H121 C118 0.930 . S
H122 C110 0.929 . S
H123 C112 0.929 . S
O124 Co99 2.351 . S
O124 C127 1.244 . S
O125 Co99 2.155 . S
O125 C127 1.240 . S
O126 Co99 2.096 . S
O126 C107 1.247 . S
C127 O124 1.244 . S
C127 O125 1.240 . S
H128 C102 0.931 . S
H129 C111 0.931 . S
H130 C115 0.929 . S
H131 C117 0.930 . S
Co132 N136 2.148 . S
Co132 N142 2.128 . S
Co132 N152 2.194 . S
Co132 O157 2.351 . S
Co132 O158 2.155 . S
Co132 O159 2.096 . S
C133 N136 1.301 . S
C133 N137 1.328 . S
C133 H138 0.930 . S
C134 C135 1.333 . S
C134 N136 1.317 . S
C134 H139 0.930 . S
C135 C134 1.333 . S
C135 N137 1.350 . S
C135 H161 0.931 . S
N136 Co132 2.148 . S
N136 C133 1.301 . S
N136 C134 1.317 . S
N137 C133 1.328 . S
N137 C135 1.350 . S
H138 C133 0.930 . S
H139 C134 0.930 . S
C140 O141 1.224 . S
C140 O159 1.247 . S
O141 C140 1.224 . S
N142 Co132 2.128 . S
N142 C143 1.355 . S
N142 C145 1.311 . S
C143 N142 1.355 . S
C143 C144 1.363 . S
C143 H155 0.929 . S
C144 C143 1.363 . S
C144 N146 1.375 . S
C144 H162 0.931 . S
C145 N142 1.311 . S
C145 N146 1.347 . S
C145 H156 0.929 . S
N146 C144 1.375 . S
N146 C145 1.347 . S
C147 C150 1.365 . S
C147 N152 1.328 . S
C147 H153 0.929 . S
C148 C149 1.362 . S
C148 C151 1.378 . S
C148 H163 0.929 . S
C149 C148 1.362 . S
C149 C150 1.366 . S
C150 C147 1.365 . S
C150 C149 1.366 . S
C150 H164 0.930 . S
C151 C148 1.378 . S
C151 N152 1.315 . S
C151 H154 0.930 . S
N152 Co132 2.194 . S
N152 C147 1.328 . S
N152 C151 1.315 . S
H153 C147 0.929 . S
H154 C151 0.930 . S
H155 C143 0.929 . S
H156 C145 0.929 . S
O157 Co132 2.351 . S
O157 C160 1.244 . S
O158 Co132 2.155 . S
O158 C160 1.240 . S
O159 Co132 2.096 . S
O159 C140 1.247 . S
C160 O157 1.244 . S
C160 O158 1.240 . S
H161 C135 0.931 . S
H162 C144 0.931 . S
H163 C148 0.929 . S
H164 C150 0.930 . S
Co165 N169 2.148 . S
Co165 N175 2.128 . S
Co165 N185 2.194 . S
Co165 O190 2.351 . S
Co165 O191 2.155 1_545 S
Co165 O192 2.096 . S
C166 N169 1.301 . S
C166 N170 1.328 . S
C166 H171 0.930 . S
C167 C168 1.333 . S
C167 N169 1.317 . S
C167 H172 0.930 . S
C168 C167 1.333 . S
C168 N170 1.350 . S
C168 H194 0.931 . S
N169 Co165 2.148 . S
N169 C166 1.301 . S
N169 C167 1.317 . S
N170 C166 1.328 . S
N170 C168 1.350 . S
H171 C166 0.930 . S
H172 C167 0.930 . S
C173 O174 1.224 . S
C173 O192 1.247 . S
O174 C173 1.224 . S
N175 Co165 2.128 . S
N175 C176 1.355 . S
N175 C178 1.311 . S
C176 N175 1.355 . S
C176 C177 1.363 . S
C176 H188 0.929 . S
C177 C176 1.363 . S
C177 N179 1.375 . S
C177 H195 0.931 . S
C178 N175 1.311 . S
C178 N179 1.347 . S
C178 H189 0.929 . S
N179 C177 1.375 . S
N179 C178 1.347 . S
C180 C183 1.365 . S
C180 N185 1.328 . S
C180 H186 0.929 . S
C181 C182 1.362 . S
C181 C184 1.378 . S
C181 H196 0.929 . S
C182 C181 1.362 . S
C182 C183 1.366 . S
C183 C180 1.365 . S
C183 C182 1.366 . S
C183 H197 0.930 . S
C184 C181 1.378 . S
C184 N185 1.315 . S
C184 H187 0.930 . S
N185 Co165 2.194 . S
N185 C180 1.328 . S
N185 C184 1.315 . S
H186 C180 0.929 . S
H187 C184 0.930 . S
H188 C176 0.929 . S
H189 C178 0.929 . S
O190 Co165 2.351 . S
O190 C193 1.244 1_545 S
O191 Co165 2.155 1_565 S
O191 C193 1.240 . S
O192 Co165 2.096 . S
O192 C173 1.247 . S
C193 O190 1.244 1_565 S
C193 O191 1.240 . S
H194 C168 0.931 . S
H195 C177 0.931 . S
H196 C181 0.929 . S
H197 C183 0.930 . S
Co198 N202 2.148 . S
Co198 N208 2.128 . S
Co198 N218 2.194 . S
Co198 O223 2.351 . S
Co198 O224 2.155 . S
Co198 O225 2.096 . S
C199 N202 1.301 . S
C199 N203 1.328 . S
C199 H204 0.930 . S
C200 C201 1.333 . S
C200 N202 1.317 . S
C200 H205 0.930 . S
C201 C200 1.333 . S
C201 N203 1.350 . S
C201 H227 0.931 . S
N202 Co198 2.148 . S
N202 C199 1.301 . S
N202 C200 1.317 . S
N203 C199 1.328 . S
N203 C201 1.350 . S
H204 C199 0.930 . S
H205 C200 0.930 . S
C206 O207 1.224 . S
C206 O225 1.247 . S
O207 C206 1.224 . S
N208 Co198 2.128 . S
N208 C209 1.355 . S
N208 C211 1.311 . S
C209 N208 1.355 . S
C209 C210 1.363 . S
C209 H221 0.929 . S
C210 C209 1.363 . S
C210 N212 1.375 . S
C210 H228 0.931 . S
C211 N208 1.311 . S
C211 N212 1.347 . S
C211 H222 0.929 . S
N212 C210 1.375 . S
N212 C211 1.347 . S
C213 C216 1.365 . S
C213 N218 1.328 . S
C213 H219 0.929 . S
C214 C215 1.362 . S
C214 C217 1.378 . S
C214 H229 0.929 . S
C215 C214 1.362 . S
C215 C216 1.366 . S
C216 C213 1.365 . S
C216 C215 1.366 . S
C216 H230 0.930 . S
C217 C214 1.378 . S
C217 N218 1.315 . S
C217 H220 0.930 . S
N218 Co198 2.194 . S
N218 C213 1.328 . S
N218 C217 1.315 . S
H219 C213 0.929 . S
H220 C217 0.930 . S
H221 C209 0.929 . S
H222 C211 0.929 . S
O223 Co198 2.351 . S
O223 C226 1.244 . S
O224 Co198 2.155 . S
O224 C226 1.240 . S
O225 Co198 2.096 . S
O225 C206 1.247 . S
C226 O223 1.244 . S
C226 O224 1.240 . S
H227 C201 0.931 . S
H228 C210 0.931 . S
H229 C214 0.929 . S
H230 C216 0.930 . S
Co231 N235 2.148 . S
Co231 N241 2.128 . S
Co231 N251 2.194 . S
Co231 O256 2.351 . S
Co231 O257 2.155 1_565 S
Co231 O258 2.096 . S
C232 N235 1.301 . S
C232 N236 1.328 . S
C232 H237 0.930 . S
C233 C234 1.333 . S
C233 N235 1.317 . S
C233 H238 0.930 . S
C234 C233 1.333 . S
C234 N236 1.350 . S
C234 H260 0.931 . S
N235 Co231 2.148 . S
N235 C232 1.301 . S
N235 C233 1.317 . S
N236 C232 1.328 . S
N236 C234 1.350 . S
H237 C232 0.930 . S
H238 C233 0.930 . S
C239 O240 1.224 . S
C239 O258 1.247 . S
O240 C239 1.224 . S
N241 Co231 2.128 . S
N241 C242 1.355 . S
N241 C244 1.311 . S
C242 N241 1.355 . S
C242 C243 1.363 . S
C242 H254 0.929 . S
C243 C242 1.363 . S
C243 N245 1.375 . S
C243 H261 0.931 . S
C244 N241 1.311 . S
C244 N245 1.347 . S
C244 H255 0.929 . S
N245 C243 1.375 . S
N245 C244 1.347 . S
C246 C249 1.365 . S
C246 N251 1.328 . S
C246 H252 0.929 . S
C247 C248 1.362 . S
C247 C250 1.378 . S
C247 H262 0.929 . S
C248 C247 1.362 . S
C248 C249 1.366 . S
C249 C246 1.365 . S
C249 C248 1.366 . S
C249 H263 0.930 . S
C250 C247 1.378 . S
C250 N251 1.315 . S
C250 H253 0.930 . S
N251 Co231 2.194 . S
N251 C246 1.328 . S
N251 C250 1.315 . S
H252 C246 0.929 . S
H253 C250 0.930 . S
H254 C242 0.929 . S
H255 C244 0.929 . S
O256 Co231 2.351 . S
O256 C259 1.244 1_565 S
O257 Co231 2.155 1_545 S
O257 C259 1.240 . S
O258 Co231 2.096 . S
O258 C239 1.247 . S
C259 O256 1.244 1_545 S
C259 O257 1.240 . S
H260 C234 0.931 . S
H261 C243 0.931 . S
H262 C247 0.929 . S
H263 C249 0.930 . S
H264 C282 0.951 . S
H265 C284 0.951 . S
H266 C286 0.950 . S
H267 C287 0.950 1_455 S
H268 C289 0.950 . S
H269 C292 0.950 . S
H270 C293 0.950 . S
H271 C295 0.950 . S
H272 C296 0.950 . S
H273 C297 0.951 . S
H274 C299 0.951 . S
H275 C301 0.950 . S
H276 C302 0.950 1_655 S
H277 C304 0.950 . S
H278 C307 0.950 . S
H279 C308 0.950 . S
H280 C310 0.950 . S
H281 C311 0.950 . S
C282 H264 0.951 . S
C282 C283 1.366 . S
C282 C284 1.388 . S
C283 C282 1.366 . S
C283 C287 1.385 . S
C284 H265 0.951 . S
C284 C282 1.388 . S
C284 C285 1.366 . S
C285 C284 1.366 . S
C285 C286 1.414 1_655 S
C285 C288 1.499 . S
C286 H266 0.950 . S
C286 C285 1.414 1_455 S
C286 C287 1.374 1_455 S
C287 H267 0.950 1_655 S
C287 C283 1.385 . S
C287 C286 1.374 1_655 S
C288 C285 1.499 . S
C288 C289 1.373 1_655 S
C288 C290 1.389 . S
C289 H268 0.950 . S
C289 C288 1.373 1_455 S
C289 C305 1.377 . S
C290 C288 1.389 . S
C290 C291 1.524 . S
C290 C304 1.377 . S
C291 C290 1.524 . S
C291 C292 1.397 . S
C291 C296 1.363 . S
C292 H269 0.950 . S
C292 C291 1.397 . S
C292 C293 1.334 . S
C293 H270 0.950 . S
C293 C292 1.334 . S
C293 C294 1.287 . S
C294 C293 1.287 . S
C294 C295 1.524 . S
C294 H313 0.913 . S
C295 H271 0.950 . S
C295 C294 1.524 . S
C295 C296 1.415 . S
C296 H272 0.950 . S
C296 C291 1.363 . S
C296 C295 1.415 . S
C297 H273 0.951 . S
C297 C298 1.366 . S
C297 C299 1.388 . S
C298 C297 1.366 . S
C298 C302 1.385 . S
C299 H274 0.951 . S
C299 C297 1.388 . S
C299 C300 1.366 . S
C300 C299 1.366 . S
C300 C301 1.414 1_455 S
C300 C303 1.499 . S
C301 H275 0.950 . S
C301 C300 1.414 1_655 S
C301 C302 1.374 1_655 S
C302 H276 0.950 1_455 S
C302 C298 1.385 . S
C302 C301 1.374 1_455 S
C303 C300 1.499 . S
C303 C304 1.373 1_455 S
C303 C305 1.389 . S
C304 H277 0.950 . S
C304 C290 1.377 . S
C304 C303 1.373 1_655 S
C305 C289 1.377 . S
C305 C303 1.389 . S
C305 C306 1.524 . S
C306 C305 1.524 . S
C306 C307 1.397 . S
C306 C311 1.363 . S
C307 H278 0.950 . S
C307 C306 1.397 . S
C307 C308 1.334 . S
C308 H279 0.950 . S
C308 C307 1.334 . S
C308 C309 1.287 . S
C309 C308 1.287 . S
C309 C310 1.524 . S
C309 H312 0.999 . S
C310 H280 0.950 . S
C310 C309 1.524 . S
C310 C311 1.415 . S
C311 H281 0.950 . S
C311 C306 1.363 . S
C311 C310 1.415 . S
H312 C309 0.999 . S
H313 C294 0.913 . S
H314 C332 0.951 . S
H315 C334 0.951 . S
H316 C336 0.950 . S
H317 C337 0.950 . S
H318 C339 0.950 . S
H319 C342 0.950 . S
H320 C343 0.950 . S
H321 C345 0.950 . S
H322 C346 0.922 1_455 S
H323 C347 0.951 . S
H324 C349 0.951 . S
H325 C351 0.950 . S
H326 C352 0.950 . S
H327 C354 0.950 . S
H328 C357 0.950 . S
H329 C358 0.950 . S
H330 C360 0.950 . S
H331 C361 0.922 1_655 S
C332 H314 0.951 . S
C332 C333 1.366 . S
C332 C334 1.388 . S
C333 C332 1.366 . S
C333 C337 1.385 . S
C334 H315 0.951 . S
C334 C332 1.388 . S
C334 C335 1.366 . S
C335 C334 1.366 . S
C335 C336 1.414 . S
C335 C338 1.499 . S
C336 H316 0.950 . S
C336 C335 1.414 . S
C336 C337 1.374 . S
C337 H317 0.950 . S
C337 C333 1.385 . S
C337 C336 1.374 . S
C338 C335 1.499 . S
C338 C339 1.373 . S
C338 C340 1.389 . S
C339 H318 0.950 . S
C339 C338 1.373 . S
C339 C355 1.377 1_655 S
C340 C338 1.389 . S
C340 C341 1.524 . S
C340 C354 1.377 1_655 S
C341 C340 1.524 . S
C341 C342 1.397 . S
C341 C346 1.363 . S
C342 H319 0.950 . S
C342 C341 1.397 . S
C342 C343 1.334 . S
C343 H320 0.950 . S
C343 C342 1.334 . S
C343 C344 1.287 . S
C344 C343 1.287 . S
C344 C345 1.524 . S
C344 H363 0.913 . S
C345 H321 0.950 . S
C345 C344 1.524 . S
C345 C346 1.415 . S
C346 H322 0.922 1_655 S
C346 C341 1.363 . S
C346 C345 1.415 . S
C347 H323 0.951 . S
C347 C348 1.366 . S
C347 C349 1.388 . S
C348 C347 1.366 . S
C348 C352 1.385 . S
C349 H324 0.951 . S
C349 C347 1.388 . S
C349 C350 1.366 . S
C350 C349 1.366 . S
C350 C351 1.414 . S
C350 C353 1.499 . S
C351 H325 0.950 . S
C351 C350 1.414 . S
C351 C352 1.374 . S
C352 H326 0.950 . S
C352 C348 1.385 . S
C352 C351 1.374 . S
C353 C350 1.499 . S
C353 C354 1.373 . S
C353 C355 1.389 . S
C354 H327 0.950 . S
C354 C340 1.377 1_455 S
C354 C353 1.373 . S
C355 C339 1.377 1_455 S
C355 C353 1.389 . S
C355 C356 1.524 . S
C356 C355 1.524 . S
C356 C357 1.397 . S
C356 C361 1.363 . S
C357 H328 0.950 . S
C357 C356 1.397 . S
C357 C358 1.334 . S
C358 H329 0.950 . S
C358 C357 1.334 . S
C358 C359 1.287 . S
C359 C358 1.287 . S
C359 C360 1.524 . S
C359 H362 0.999 . S
C360 H330 0.950 . S
C360 C359 1.524 . S
C360 C361 1.415 . S
C361 H331 0.922 1_455 S
C361 C356 1.363 . S
C361 C360 1.415 . S
H362 C359 0.999 . S
H363 C344 0.913 . S
H364 C382 0.951 . S
H365 C384 0.951 . S
H366 C386 0.950 . S
H367 C387 0.950 . S
H368 C389 0.950 . S
H369 C392 0.950 . S
H370 C393 0.950 . S
H371 C395 0.950 . S
H372 C396 0.950 1_545 S
H373 C397 0.951 . S
H374 C399 0.951 . S
H375 C401 0.950 . S
H376 C402 0.950 . S
H377 C404 0.950 . S
H378 C407 0.950 . S
H379 C408 0.950 . S
H380 C410 0.950 . S
H381 C411 0.950 1_565 S
C382 H364 0.951 . S
C382 C383 1.366 . S
C382 C384 1.388 . S
C383 C382 1.366 . S
C383 C387 1.385 . S
C384 H365 0.951 . S
C384 C382 1.388 . S
C384 C385 1.366 . S
C385 C384 1.366 . S
C385 C386 1.414 . S
C385 C388 1.499 . S
C386 H366 0.950 . S
C386 C385 1.414 . S
C386 C387 1.374 . S
C387 H367 0.950 . S
C387 C383 1.385 . S
C387 C386 1.374 . S
C388 C385 1.499 . S
C388 C389 1.373 . S
C388 C390 1.389 . S
C389 H368 0.950 . S
C389 C388 1.373 . S
C389 C405 1.377 1_565 S
C390 C388 1.389 . S
C390 C391 1.524 . S
C390 C404 1.377 1_565 S
C391 C390 1.524 . S
C391 C392 1.397 . S
C391 C396 1.363 . S
C392 H369 0.950 . S
C392 C391 1.397 . S
C392 C393 1.334 . S
C393 H370 0.950 . S
C393 C392 1.334 . S
C393 C394 1.287 . S
C394 C393 1.287 . S
C394 C395 1.524 . S
C394 H413 0.913 . S
C395 H371 0.950 . S
C395 C394 1.524 . S
C395 C396 1.415 . S
C396 H372 0.950 1_565 S
C396 C391 1.363 . S
C396 C395 1.415 . S
C397 H373 0.951 . S
C397 C398 1.366 . S
C397 C399 1.388 . S
C398 C397 1.366 . S
C398 C402 1.385 . S
C399 H374 0.951 . S
C399 C397 1.388 . S
C399 C400 1.366 . S
C400 C399 1.366 . S
C400 C401 1.414 . S
C400 C403 1.499 . S
C401 H375 0.950 . S
C401 C400 1.414 . S
C401 C402 1.374 . S
C402 H376 0.950 . S
C402 C398 1.385 . S
C402 C401 1.374 . S
C403 C400 1.499 . S
C403 C404 1.373 . S
C403 C405 1.389 . S
C404 H377 0.950 . S
C404 C390 1.377 1_545 S
C404 C403 1.373 . S
C405 C389 1.377 1_545 S
C405 C403 1.389 . S
C405 C406 1.524 . S
C406 C405 1.524 . S
C406 C407 1.397 . S
C406 C411 1.363 . S
C407 H378 0.950 . S
C407 C406 1.397 . S
C407 C408 1.334 . S
C408 H379 0.950 . S
C408 C407 1.334 . S
C408 C409 1.287 . S
C409 C408 1.287 . S
C409 C410 1.524 . S
C409 H412 0.999 . S
C410 H380 0.950 . S
C410 C409 1.524 . S
C410 C411 1.415 . S
C411 H381 0.950 1_545 S
C411 C406 1.363 . S
C411 C410 1.415 . S
H412 C409 0.999 . S
H413 C394 0.913 . S
H414 C432 0.951 1_545 S
H415 C434 0.951 . S
H416 C436 0.950 . S
H417 C437 0.950 . S
H418 C439 0.950 . S
H419 C442 0.950 1_565 S
H420 C443 0.950 . S
H421 C445 0.950 . S
H422 C446 0.950 . S
H423 C447 0.951 1_565 S
H424 C449 0.951 . S
H425 C451 0.950 . S
H426 C452 0.950 . S
H427 C454 0.950 . S
H428 C457 0.950 1_545 S
H429 C458 0.950 . S
H430 C460 0.950 . S
H431 C461 0.950 . S
C432 H414 0.951 1_565 S
C432 C433 1.366 . S
C432 C434 1.388 1_565 S
C433 C432 1.366 . S
C433 C437 1.385 . S
C434 H415 0.951 . S
C434 C432 1.388 1_545 S
C434 C435 1.366 1_545 S
C435 C434 1.366 1_565 S
C435 C436 1.414 . S
C435 C438 1.499 . S
C436 H416 0.950 . S
C436 C435 1.414 . S
C436 C437 1.374 . S
C437 H417 0.950 . S
C437 C433 1.385 . S
C437 C436 1.374 . S
C438 C435 1.499 . S
C438 C439 1.373 . S
C438 C440 1.389 1_565 S
C439 H418 0.950 . S
C439 C438 1.373 . S
C439 C455 1.377 . S
C440 C438 1.389 1_545 S
C440 C441 1.524 . S
C440 C454 1.377 . S
C441 C440 1.524 . S
C441 C442 1.397 . S
C441 C446 1.363 . S
C442 H419 0.950 1_545 S
C442 C441 1.397 . S
C442 C443 1.334 . S
C443 H420 0.950 . S
C443 C442 1.334 . S
C443 C444 1.287 . S
C444 C443 1.287 . S
C444 C445 1.524 . S
C444 H463 0.913 . S
C445 H421 0.950 . S
C445 C444 1.524 . S
C445 C446 1.415 . S
C446 H422 0.950 . S
C446 C441 1.363 . S
C446 C445 1.415 . S
C447 H423 0.951 1_545 S
C447 C448 1.366 . S
C447 C449 1.388 1_545 S
C448 C447 1.366 . S
C448 C452 1.385 . S
C449 H424 0.951 . S
C449 C447 1.388 1_565 S
C449 C450 1.366 1_565 S
C450 C449 1.366 1_545 S
C450 C451 1.414 . S
C450 C453 1.499 . S
C451 H425 0.950 . S
C451 C450 1.414 . S
C451 C452 1.374 . S
C452 H426 0.950 . S
C452 C448 1.385 . S
C452 C451 1.374 . S
C453 C450 1.499 . S
C453 C454 1.373 . S
C453 C455 1.389 1_545 S
C454 H427 0.950 . S
C454 C440 1.377 . S
C454 C453 1.373 . S
C455 C439 1.377 . S
C455 C453 1.389 1_565 S
C455 C456 1.524 . S
C456 C455 1.524 . S
C456 C457 1.397 . S
C456 C461 1.363 . S
C457 H428 0.950 1_565 S
C457 C456 1.397 . S
C457 C458 1.334 . S
C458 H429 0.950 . S
C458 C457 1.334 . S
C458 C459 1.287 . S
C459 C458 1.287 . S
C459 C460 1.524 . S
C459 H462 0.999 . S
C460 H430 0.950 . S
C460 C459 1.524 . S
C460 C461 1.415 . S
C461 H431 0.950 . S
C461 C456 1.363 . S
C461 C460 1.415 . S
H462 C459 0.999 . S
H463 C444 0.913 . S
H464 C482 0.951 . S
H465 C484 0.951 . S
H466 C486 0.950 . S
H467 C487 0.950 . S
H468 C489 0.950 . S
H469 C492 0.950 . S
H470 C493 0.950 . S
H471 C495 0.950 . S
H472 C496 0.950 . S
H473 C497 0.951 . S
H474 C499 0.951 . S
H475 C501 0.950 . S
H476 C502 0.950 . S
H477 C504 0.950 . S
H478 C507 0.950 . S
H479 C508 0.950 . S
H480 C510 0.950 . S
H481 C511 0.950 . S
C482 H464 0.951 . S
C482 C483 1.366 . S
C482 C484 1.388 . S
C483 C482 1.366 . S
C483 C487 1.385 . S
C484 H465 0.951 . S
C484 C482 1.388 . S
C484 C485 1.366 . S
C485 C484 1.366 . S
C485 C486 1.414 . S
C485 C488 1.499 . S
C486 H466 0.950 . S
C486 C485 1.414 . S
C486 C487 1.374 . S
C487 H467 0.950 . S
C487 C483 1.385 . S
C487 C486 1.374 . S
C488 C485 1.499 . S
C488 C489 1.373 . S
C488 C490 1.389 . S
C489 H468 0.950 . S
C489 C488 1.373 . S
C489 C505 1.377 . S
C490 C488 1.389 . S
C490 C491 1.524 . S
C490 C504 1.377 . S
C491 C490 1.524 . S
C491 C492 1.397 . S
C491 C496 1.363 . S
C492 H469 0.950 . S
C492 C491 1.397 . S
C492 C493 1.334 . S
C493 H470 0.950 . S
C493 C492 1.334 . S
C493 C494 1.287 . S
C494 C493 1.287 . S
C494 C495 1.524 . S
C494 H513 0.913 . S
C495 H471 0.950 . S
C495 C494 1.524 . S
C495 C496 1.415 . S
C496 H472 0.950 . S
C496 C491 1.363 . S
C496 C495 1.415 . S
C497 H473 0.951 . S
C497 C498 1.366 . S
C497 C499 1.388 . S
C498 C497 1.366 . S
C498 C502 1.385 . S
C499 H474 0.951 . S
C499 C497 1.388 . S
C499 C500 1.366 . S
C500 C499 1.366 . S
C500 C501 1.414 . S
C500 C503 1.499 . S
C501 H475 0.950 . S
C501 C500 1.414 . S
C501 C502 1.374 . S
C502 H476 0.950 . S
C502 C498 1.385 . S
C502 C501 1.374 . S
C503 C500 1.499 . S
C503 C504 1.373 . S
C503 C505 1.389 . S
C504 H477 0.950 . S
C504 C490 1.377 . S
C504 C503 1.373 . S
C505 C489 1.377 . S
C505 C503 1.389 . S
C505 C506 1.524 . S
C506 C505 1.524 . S
C506 C507 1.397 . S
C506 C511 1.363 . S
C507 H478 0.950 . S
C507 C506 1.397 . S
C507 C508 1.334 . S
C508 H479 0.950 . S
C508 C507 1.334 . S
C508 C509 1.287 . S
C509 C508 1.287 . S
C509 C510 1.524 . S
C509 H512 0.999 . S
C510 H480 0.950 . S
C510 C509 1.524 . S
C510 C511 1.415 . S
C511 H481 0.950 . S
C511 C506 1.363 . S
C511 C510 1.415 . S
H512 C509 0.999 . S
H513 C494 0.913 . S
H514 C532 0.951 . S
H515 C534 0.951 . S
H516 C536 0.950 . S
H517 C537 0.950 . S
H518 C539 0.950 . S
H519 C542 0.950 . S
H520 C543 0.950 . S
H521 C545 0.950 . S
H522 C546 0.950 . S
H523 C547 0.951 . S
H524 C549 0.951 . S
H525 C551 0.950 . S
H526 C552 0.950 . S
H527 C554 0.950 . S
H528 C557 0.950 . S
H529 C558 0.950 . S
H530 C560 0.950 . S
H531 C561 0.950 . S
C532 H514 0.951 . S
C532 C533 1.366 . S
C532 C534 1.388 . S
C533 C532 1.366 . S
C533 C537 1.385 . S
C534 H515 0.951 . S
C534 C532 1.388 . S
C534 C535 1.366 . S
C535 C534 1.366 . S
C535 C536 1.414 . S
C535 C538 1.499 . S
C536 H516 0.950 . S
C536 C535 1.414 . S
C536 C537 1.374 . S
C537 H517 0.950 . S
C537 C533 1.385 . S
C537 C536 1.374 . S
C538 C535 1.499 . S
C538 C539 1.373 . S
C538 C540 1.389 . S
C539 H518 0.950 . S
C539 C538 1.373 . S
C539 C555 1.377 . S
C540 C538 1.389 . S
C540 C541 1.524 . S
C540 C554 1.377 . S
C541 C540 1.524 . S
C541 C542 1.397 . S
C541 C546 1.363 . S
C542 H519 0.950 . S
C542 C541 1.397 . S
C542 C543 1.334 . S
C543 H520 0.950 . S
C543 C542 1.334 . S
C543 C544 1.287 . S
C544 C543 1.287 . S
C544 C545 1.524 . S
C544 H563 0.913 . S
C545 H521 0.950 . S
C545 C544 1.524 . S
C545 C546 1.415 . S
C546 H522 0.950 . S
C546 C541 1.363 . S
C546 C545 1.415 . S
C547 H523 0.951 . S
C547 C548 1.366 . S
C547 C549 1.388 . S
C548 C547 1.366 . S
C548 C552 1.385 . S
C549 H524 0.951 . S
C549 C547 1.388 . S
C549 C550 1.366 . S
C550 C549 1.366 . S
C550 C551 1.414 . S
C550 C553 1.499 . S
C551 H525 0.950 . S
C551 C550 1.414 . S
C551 C552 1.374 . S
C552 H526 0.950 . S
C552 C548 1.385 . S
C552 C551 1.374 . S
C553 C550 1.499 . S
C553 C554 1.373 . S
C553 C555 1.389 . S
C554 H527 0.950 . S
C554 C540 1.377 . S
C554 C553 1.373 . S
C555 C539 1.377 . S
C555 C553 1.389 . S
C555 C556 1.524 . S
C556 C555 1.524 . S
C556 C557 1.397 . S
C556 C561 1.363 . S
C557 H528 0.950 . S
C557 C556 1.397 . S
C557 C558 1.334 . S
C558 H529 0.950 . S
C558 C557 1.334 . S
C558 C559 1.287 . S
C559 C558 1.287 . S
C559 C560 1.524 . S
C559 H562 0.999 . S
C560 H530 0.950 . S
C560 C559 1.524 . S
C560 C561 1.415 . S
C561 H531 0.950 . S
C561 C556 1.363 . S
C561 C560 1.415 . S
H562 C559 0.999 . S
H563 C544 0.913 . S
H564 C582 0.951 . S
H565 C584 0.951 . S
H566 C586 0.950 . S
H567 C587 0.950 . S
H568 C589 0.950 . S
H569 C592 0.950 . S
H570 C593 0.950 . S
H571 C595 0.950 . S
H572 C596 0.950 . S
H573 C597 0.951 . S
H574 C599 0.951 . S
H575 C601 0.950 . S
H576 C602 0.950 . S
H577 C604 0.950 . S
H578 C607 0.950 . S
H579 C608 0.950 . S
H580 C610 0.950 . S
H581 C611 0.950 . S
C582 H564 0.951 . S
C582 C583 1.366 . S
C582 C584 1.388 . S
C583 C582 1.366 . S
C583 C587 1.385 . S
C584 H565 0.951 . S
C584 C582 1.388 . S
C584 C585 1.366 . S
C585 C584 1.366 . S
C585 C586 1.414 . S
C585 C588 1.499 . S
C586 H566 0.950 . S
C586 C585 1.414 . S
C586 C587 1.374 . S
C587 H567 0.950 . S
C587 C583 1.385 . S
C587 C586 1.374 . S
C588 C585 1.499 . S
C588 C589 1.373 . S
C588 C590 1.389 . S
C589 H568 0.950 . S
C589 C588 1.373 . S
C589 C605 1.377 . S
C590 C588 1.389 . S
C590 C591 1.524 . S
C590 C604 1.377 . S
C591 C590 1.524 . S
C591 C592 1.397 . S
C591 C596 1.363 . S
C592 H569 0.950 . S
C592 C591 1.397 . S
C592 C593 1.334 . S
C593 H570 0.950 . S
C593 C592 1.334 . S
C593 C594 1.287 . S
C594 C593 1.287 . S
C594 C595 1.524 . S
C594 H613 0.913 . S
C595 H571 0.950 . S
C595 C594 1.524 . S
C595 C596 1.415 . S
C596 H572 0.950 . S
C596 C591 1.363 . S
C596 C595 1.415 . S
C597 H573 0.951 . S
C597 C598 1.366 . S
C597 C599 1.388 . S
C598 C597 1.366 . S
C598 C602 1.385 . S
C599 H574 0.951 . S
C599 C597 1.388 . S
C599 C600 1.366 . S
C600 C599 1.366 . S
C600 C601 1.414 . S
C600 C603 1.499 . S
C601 H575 0.950 . S
C601 C600 1.414 . S
C601 C602 1.374 . S
C602 H576 0.950 . S
C602 C598 1.385 . S
C602 C601 1.374 . S
C603 C600 1.499 . S
C603 C604 1.373 . S
C603 C605 1.389 . S
C604 H577 0.950 . S
C604 C590 1.377 . S
C604 C603 1.373 . S
C605 C589 1.377 . S
C605 C603 1.389 . S
C605 C606 1.524 . S
C606 C605 1.524 . S
C606 C607 1.397 . S
C606 C611 1.363 . S
C607 H578 0.950 . S
C607 C606 1.397 . S
C607 C608 1.334 . S
C608 H579 0.950 . S
C608 C607 1.334 . S
C608 C609 1.287 . S
C609 C608 1.287 . S
C609 C610 1.524 . S
C609 H612 0.999 . S
C610 H580 0.950 . S
C610 C609 1.524 . S
C610 C611 1.415 . S
C611 H581 0.950 . S
C611 C606 1.363 . S
C611 C610 1.415 . S
H612 C609 0.999 . S
H613 C594 0.913 . S
H614 C632 0.951 . S
H615 C634 0.951 . S
H616 C636 0.950 . S
H617 C637 0.950 . S
H618 C639 0.950 . S
H619 C642 0.950 . S
H620 C643 0.950 . S
H621 C645 0.950 . S
H622 C646 0.950 . S
H623 C647 0.951 . S
H624 C649 0.951 . S
H625 C651 0.950 . S
H626 C652 0.950 . S
H627 C654 0.950 . S
H628 C657 0.950 . S
H629 C658 0.950 . S
H630 C660 0.950 . S
H631 C661 0.950 . S
C632 H614 0.951 . S
C632 C633 1.366 . S
C632 C634 1.388 . S
C633 C632 1.366 . S
C633 C637 1.385 . S
C634 H615 0.951 . S
C634 C632 1.388 . S
C634 C635 1.366 . S
C635 C634 1.366 . S
C635 C636 1.414 . S
C635 C638 1.499 . S
C636 H616 0.950 . S
C636 C635 1.414 . S
C636 C637 1.374 . S
C637 H617 0.950 . S
C637 C633 1.385 . S
C637 C636 1.374 . S
C638 C635 1.499 . S
C638 C639 1.373 . S
C638 C640 1.389 . S
C639 H618 0.950 . S
C639 C638 1.373 . S
C639 C655 1.377 . S
C640 C638 1.389 . S
C640 C641 1.524 . S
C640 C654 1.377 . S
C641 C640 1.524 . S
C641 C642 1.397 . S
C641 C646 1.363 . S
C642 H619 0.950 . S
C642 C641 1.397 . S
C642 C643 1.334 . S
C643 H620 0.950 . S
C643 C642 1.334 . S
C643 C644 1.287 . S
C644 C643 1.287 . S
C644 C645 1.524 . S
C644 H663 0.913 . S
C645 H621 0.950 . S
C645 C644 1.524 . S
C645 C646 1.415 . S
C646 H622 0.950 . S
C646 C641 1.363 . S
C646 C645 1.415 . S
C647 H623 0.951 . S
C647 C648 1.366 . S
C647 C649 1.388 . S
C648 C647 1.366 . S
C648 C652 1.385 . S
C649 H624 0.951 . S
C649 C647 1.388 . S
C649 C650 1.366 . S
C650 C649 1.366 . S
C650 C651 1.414 . S
C650 C653 1.499 . S
C651 H625 0.950 . S
C651 C650 1.414 . S
C651 C652 1.374 . S
C652 H626 0.950 . S
C652 C648 1.385 . S
C652 C651 1.374 . S
C653 C650 1.499 . S
C653 C654 1.373 . S
C653 C655 1.389 . S
C654 H627 0.950 . S
C654 C640 1.377 . S
C654 C653 1.373 . S
C655 C639 1.377 . S
C655 C653 1.389 . S
C655 C656 1.524 . S
C656 C655 1.524 . S
C656 C657 1.397 . S
C656 C661 1.363 . S
C657 H628 0.950 . S
C657 C656 1.397 . S
C657 C658 1.334 . S
C658 H629 0.950 . S
C658 C657 1.334 . S
C658 C659 1.287 . S
C659 C658 1.287 . S
C659 C660 1.524 . S
C659 H662 0.999 . S
C660 H630 0.950 . S
C660 C659 1.524 . S
C660 C661 1.415 . S
C661 H631 0.950 . S
C661 C656 1.363 . S
C661 C660 1.415 . S
H662 C659 0.999 . S
H663 C644 0.913 . S
H664 C682 0.951 . S
H665 C684 0.951 . S
H666 C686 0.950 . S
H667 C687 0.950 . S
H668 C689 0.950 . S
H669 C692 0.950 . S
H670 C693 0.950 . S
H671 C695 0.950 . S
H672 C696 0.950 . S
H673 C697 0.951 . S
H674 C699 0.951 . S
H675 C701 0.950 . S
H676 C702 0.950 . S
H677 C704 0.950 . S
H678 C707 0.950 . S
H679 C708 0.950 . S
H680 C710 0.950 . S
H681 C711 0.950 . S
C682 H664 0.951 . S
C682 C683 1.366 . S
C682 C684 1.388 . S
C683 C682 1.366 . S
C683 C687 1.385 . S
C684 H665 0.951 . S
C684 C682 1.388 . S
C684 C685 1.366 . S
C685 C684 1.366 . S
C685 C686 1.414 . S
C685 C688 1.499 . S
C686 H666 0.950 . S
C686 C685 1.414 . S
C686 C687 1.374 . S
C687 H667 0.950 . S
C687 C683 1.385 . S
C687 C686 1.374 . S
C688 C685 1.499 . S
C688 C689 1.373 . S
C688 C690 1.389 . S
C689 H668 0.950 . S
C689 C688 1.373 . S
C689 C705 1.377 . S
C690 C688 1.389 . S
C690 C691 1.524 . S
C690 C704 1.377 . S
C691 C690 1.524 . S
C691 C692 1.397 . S
C691 C696 1.363 . S
C692 H669 0.950 . S
C692 C691 1.397 . S
C692 C693 1.334 . S
C693 H670 0.950 . S
C693 C692 1.334 . S
C693 C694 1.287 . S
C694 C693 1.287 . S
C694 C695 1.524 . S
C694 H713 0.913 . S
C695 H671 0.950 . S
C695 C694 1.524 . S
C695 C696 1.415 . S
C696 H672 0.950 . S
C696 C691 1.363 . S
C696 C695 1.415 . S
C697 H673 0.951 . S
C697 C698 1.366 . S
C697 C699 1.388 . S
C698 C697 1.366 . S
C698 C702 1.385 . S
C699 H674 0.951 . S
C699 C697 1.388 . S
C699 C700 1.366 . S
C700 C699 1.366 . S
C700 C701 1.414 . S
C700 C703 1.499 . S
C701 H675 0.950 . S
C701 C700 1.414 . S
C701 C702 1.374 . S
C702 H676 0.950 . S
C702 C698 1.385 . S
C702 C701 1.374 . S
C703 C700 1.499 . S
C703 C704 1.373 . S
C703 C705 1.389 . S
C704 H677 0.950 . S
C704 C690 1.377 . S
C704 C703 1.373 . S
C705 C689 1.377 . S
C705 C703 1.389 . S
C705 C706 1.524 . S
C706 C705 1.524 . S
C706 C707 1.397 . S
C706 C711 1.363 . S
C707 H678 0.950 . S
C707 C706 1.397 . S
C707 C708 1.334 . S
C708 H679 0.950 . S
C708 C707 1.334 . S
C708 C709 1.287 . S
C709 C708 1.287 . S
C709 C710 1.524 . S
C709 H712 0.999 . S
C710 H680 0.950 . S
C710 C709 1.524 . S
C710 C711 1.415 . S
C711 H681 0.950 . S
C711 C706 1.363 . S
C711 C710 1.415 . S
H712 C709 0.999 . S
H713 C694 0.913 . S
H714 C732 0.951 . S
H715 C734 0.951 . S
H716 C736 0.950 . S
H717 C737 0.950 . S
H718 C739 0.950 . S
H719 C742 0.950 . S
H720 C743 0.950 . S
H721 C745 0.950 . S
H722 C746 0.950 . S
H723 C747 0.951 . S
H724 C749 0.951 . S
H725 C751 0.950 . S
H726 C752 0.950 . S
H727 C754 0.950 . S
H728 C757 0.950 . S
H729 C758 0.950 . S
H730 C760 0.950 . S
H731 C761 0.950 . S
C732 H714 0.951 . S
C732 C733 1.366 . S
C732 C734 1.388 . S
C733 C732 1.366 . S
C733 C737 1.385 . S
C734 H715 0.951 . S
C734 C732 1.388 . S
C734 C735 1.366 . S
C735 C734 1.366 . S
C735 C736 1.414 . S
C735 C738 1.499 . S
C736 H716 0.950 . S
C736 C735 1.414 . S
C736 C737 1.374 . S
C737 H717 0.950 . S
C737 C733 1.385 . S
C737 C736 1.374 . S
C738 C735 1.499 . S
C738 C739 1.373 . S
C738 C740 1.389 . S
C739 H718 0.950 . S
C739 C738 1.373 . S
C739 C755 1.377 . S
C740 C738 1.389 . S
C740 C741 1.524 . S
C740 C754 1.377 . S
C741 C740 1.524 . S
C741 C742 1.397 . S
C741 C746 1.363 . S
C742 H719 0.950 . S
C742 C741 1.397 . S
C742 C743 1.334 . S
C743 H720 0.950 . S
C743 C742 1.334 . S
C743 C744 1.287 . S
C744 C743 1.287 . S
C744 C745 1.524 . S
C744 H763 0.913 . S
C745 H721 0.950 . S
C745 C744 1.524 . S
C745 C746 1.415 . S
C746 H722 0.950 . S
C746 C741 1.363 . S
C746 C745 1.415 . S
C747 H723 0.951 . S
C747 C748 1.366 . S
C747 C749 1.388 . S
C748 C747 1.366 . S
C748 C752 1.385 . S
C749 H724 0.951 . S
C749 C747 1.388 . S
C749 C750 1.366 . S
C750 C749 1.366 . S
C750 C751 1.414 . S
C750 C753 1.499 . S
C751 H725 0.950 . S
C751 C750 1.414 . S
C751 C752 1.374 . S
C752 H726 0.950 . S
C752 C748 1.385 . S
C752 C751 1.374 . S
C753 C750 1.499 . S
C753 C754 1.373 . S
C753 C755 1.389 . S
C754 H727 0.950 . S
C754 C740 1.377 . S
C754 C753 1.373 . S
C755 C739 1.377 . S
C755 C753 1.389 . S
C755 C756 1.524 . S
C756 C755 1.524 . S
C756 C757 1.397 . S
C756 C761 1.363 . S
C757 H728 0.950 . S
C757 C756 1.397 . S
C757 C758 1.334 . S
C758 H729 0.950 . S
C758 C757 1.334 . S
C758 C759 1.287 . S
C759 C758 1.287 . S
C759 C760 1.524 . S
C759 H762 0.999 . S
C760 H730 0.950 . S
C760 C759 1.524 . S
C760 C761 1.415 . S
C761 H731 0.950 . S
C761 C756 1.363 . S
C761 C760 1.415 . S
H762 C759 0.999 . S
H763 C744 0.913 . S
H764 C782 0.951 . S
H765 C784 0.951 . S
H766 C786 0.950 . S
H767 C787 0.950 . S
H768 C789 0.950 . S
H769 C792 0.950 . S
H770 C793 0.950 . S
H771 C795 0.950 . S
H772 C796 0.950 . S
H773 C797 0.951 . S
H774 C799 0.951 . S
H775 C801 0.950 . S
H776 C802 0.950 . S
H777 C804 0.950 . S
H778 C807 0.950 . S
H779 C808 0.950 . S
H780 C810 0.950 . S
H781 C811 0.950 . S
C782 H764 0.951 . S
C782 C783 1.366 . S
C782 C784 1.388 . S
C783 C782 1.366 . S
C783 C787 1.385 . S
C784 H765 0.951 . S
C784 C782 1.388 . S
C784 C785 1.366 . S
C785 C784 1.366 . S
C785 C786 1.414 . S
C785 C788 1.499 . S
C786 H766 0.950 . S
C786 C785 1.414 . S
C786 C787 1.374 . S
C787 H767 0.950 . S
C787 C783 1.385 . S
C787 C786 1.374 . S
C788 C785 1.499 . S
C788 C789 1.373 . S
C788 C790 1.389 . S
C789 H768 0.950 . S
C789 C788 1.373 . S
C789 C805 1.377 . S
C790 C788 1.389 . S
C790 C791 1.524 . S
C790 C804 1.377 . S
C791 C790 1.524 . S
C791 C792 1.397 . S
C791 C796 1.363 . S
C792 H769 0.950 . S
C792 C791 1.397 . S
C792 C793 1.334 . S
C793 H770 0.950 . S
C793 C792 1.334 . S
C793 C794 1.287 . S
C794 C793 1.287 . S
C794 C795 1.524 . S
C794 H813 0.913 . S
C795 H771 0.950 . S
C795 C794 1.524 . S
C795 C796 1.415 . S
C796 H772 0.950 . S
C796 C791 1.363 . S
C796 C795 1.415 . S
C797 H773 0.951 . S
C797 C798 1.366 . S
C797 C799 1.388 . S
C798 C797 1.366 . S
C798 C802 1.385 . S
C799 H774 0.951 . S
C799 C797 1.388 . S
C799 C800 1.366 . S
C800 C799 1.366 . S
C800 C801 1.414 . S
C800 C803 1.499 . S
C801 H775 0.950 . S
C801 C800 1.414 . S
C801 C802 1.374 . S
C802 H776 0.950 . S
C802 C798 1.385 . S
C802 C801 1.374 . S
C803 C800 1.499 . S
C803 C804 1.373 . S
C803 C805 1.389 . S
C804 H777 0.950 . S
C804 C790 1.377 . S
C804 C803 1.373 . S
C805 C789 1.377 . S
C805 C803 1.389 . S
C805 C806 1.524 . S
C806 C805 1.524 . S
C806 C807 1.397 . S
C806 C811 1.363 . S
C807 H778 0.950 . S
C807 C806 1.397 . S
C807 C808 1.334 . S
C808 H779 0.950 . S
C808 C807 1.334 . S
C808 C809 1.287 . S
C809 C808 1.287 . S
C809 C810 1.524 . S
C809 H812 0.999 . S
C810 H780 0.950 . S
C810 C809 1.524 . S
C810 C811 1.415 . S
C811 H781 0.950 . S
C811 C806 1.363 . S
C811 C810 1.415 . S
H812 C809 0.999 . S
H813 C794 0.913 . S
H814 C832 0.951 . S
H815 C834 0.951 . S
H816 C836 0.950 . S
H817 C837 0.950 . S
H818 C839 0.950 . S
H819 C842 0.950 . S
H820 C843 0.950 . S
H821 C845 0.950 . S
H822 C846 0.950 . S
H823 C847 0.951 . S
H824 C849 0.951 . S
H825 C851 0.950 . S
H826 C852 0.950 . S
H827 C854 0.950 . S
H828 C857 0.950 . S
H829 C858 0.950 . S
H830 C860 0.950 . S
H831 C861 0.950 . S
C832 H814 0.951 . S
C832 C833 1.366 . S
C832 C834 1.388 . S
C833 C832 1.366 . S
C833 C837 1.385 . S
C834 H815 0.951 . S
C834 C832 1.388 . S
C834 C835 1.366 . S
C835 C834 1.366 . S
C835 C836 1.414 . S
C835 C838 1.499 . S
C836 H816 0.950 . S
C836 C835 1.414 . S
C836 C837 1.374 . S
C837 H817 0.950 . S
C837 C833 1.385 . S
C837 C836 1.374 . S
C838 C835 1.499 . S
C838 C839 1.373 . S
C838 C840 1.389 . S
C839 H818 0.950 . S
C839 C838 1.373 . S
C839 C855 1.377 . S
C840 C838 1.389 . S
C840 C841 1.524 . S
C840 C854 1.377 . S
C841 C840 1.524 . S
C841 C842 1.397 . S
C841 C846 1.363 . S
C842 H819 0.950 . S
C842 C841 1.397 . S
C842 C843 1.334 . S
C843 H820 0.950 . S
C843 C842 1.334 . S
C843 C844 1.287 . S
C844 C843 1.287 . S
C844 C845 1.524 . S
C844 H863 0.913 . S
C845 H821 0.950 . S
C845 C844 1.524 . S
C845 C846 1.415 . S
C846 H822 0.950 . S
C846 C841 1.363 . S
C846 C845 1.415 . S
C847 H823 0.951 . S
C847 C848 1.366 . S
C847 C849 1.388 . S
C848 C847 1.366 . S
C848 C852 1.385 . S
C849 H824 0.951 . S
C849 C847 1.388 . S
C849 C850 1.366 . S
C850 C849 1.366 . S
C850 C851 1.414 . S
C850 C853 1.499 . S
C851 H825 0.950 . S
C851 C850 1.414 . S
C851 C852 1.374 . S
C852 H826 0.950 . S
C852 C848 1.385 . S
C852 C851 1.374 . S
C853 C850 1.499 . S
C853 C854 1.373 . S
C853 C855 1.389 . S
C854 H827 0.950 . S
C854 C840 1.377 . S
C854 C853 1.373 . S
C855 C839 1.377 . S
C855 C853 1.389 . S
C855 C856 1.524 . S
C856 C855 1.524 . S
C856 C857 1.397 . S
C856 C861 1.363 . S
C857 H828 0.950 . S
C857 C856 1.397 . S
C857 C858 1.334 . S
C858 H829 0.950 . S
C858 C857 1.334 . S
C858 C859 1.287 . S
C859 C858 1.287 . S
C859 C860 1.524 . S
C859 H862 0.999 . S
C860 H830 0.950 . S
C860 C859 1.524 . S
C860 C861 1.415 . S
C861 H831 0.950 . S
C861 C856 1.363 . S
C861 C860 1.415 . S
H862 C859 0.999 . S
H863 C844 0.913 . S
H864 C882 0.951 . S
H865 C884 0.951 . S
H866 C886 0.950 . S
H867 C887 0.950 . S
H868 C889 0.950 . S
H869 C892 0.950 . S
H870 C893 0.950 . S
H871 C895 0.950 . S
H872 C896 0.950 . S
H873 C897 0.951 . S
H874 C899 0.951 . S
H875 C901 0.950 . S
H876 C902 0.950 . S
H877 C904 0.950 . S
H878 C907 0.950 . S
H879 C908 0.950 . S
H880 C910 0.950 . S
H881 C911 0.950 . S
C882 H864 0.951 . S
C882 C883 1.366 . S
C882 C884 1.388 . S
C883 C882 1.366 . S
C883 C887 1.385 . S
C884 H865 0.951 . S
C884 C882 1.388 . S
C884 C885 1.366 . S
C885 C884 1.366 . S
C885 C886 1.414 . S
C885 C888 1.499 . S
C886 H866 0.950 . S
C886 C885 1.414 . S
C886 C887 1.374 . S
C887 H867 0.950 . S
C887 C883 1.385 . S
C887 C886 1.374 . S
C888 C885 1.499 . S
C888 C889 1.373 . S
C888 C890 1.389 . S
C889 H868 0.950 . S
C889 C888 1.373 . S
C889 C905 1.377 . S
C890 C888 1.389 . S
C890 C891 1.524 . S
C890 C904 1.377 . S
C891 C890 1.524 . S
C891 C892 1.397 . S
C891 C896 1.363 . S
C892 H869 0.950 . S
C892 C891 1.397 . S
C892 C893 1.334 . S
C893 H870 0.950 . S
C893 C892 1.334 . S
C893 C894 1.287 . S
C894 C893 1.287 . S
C894 C895 1.524 . S
C894 H913 0.913 . S
C895 H871 0.950 . S
C895 C894 1.524 . S
C895 C896 1.415 . S
C896 H872 0.950 . S
C896 C891 1.363 . S
C896 C895 1.415 . S
C897 H873 0.951 . S
C897 C898 1.366 . S
C897 C899 1.388 . S
C898 C897 1.366 . S
C898 C902 1.385 . S
C899 H874 0.951 . S
C899 C897 1.388 . S
C899 C900 1.366 . S
C900 C899 1.366 . S
C900 C901 1.414 . S
C900 C903 1.499 . S
C901 H875 0.950 . S
C901 C900 1.414 . S
C901 C902 1.374 . S
C902 H876 0.950 . S
C902 C898 1.385 . S
C902 C901 1.374 . S
C903 C900 1.499 . S
C903 C904 1.373 . S
C903 C905 1.389 . S
C904 H877 0.950 . S
C904 C890 1.377 . S
C904 C903 1.373 . S
C905 C889 1.377 . S
C905 C903 1.389 . S
C905 C906 1.524 . S
C906 C905 1.524 . S
C906 C907 1.397 . S
C906 C911 1.363 . S
C907 H878 0.950 . S
C907 C906 1.397 . S
C907 C908 1.334 . S
C908 H879 0.950 . S
C908 C907 1.334 . S
C908 C909 1.287 . S
C909 C908 1.287 . S
C909 C910 1.524 . S
C909 H912 0.999 . S
C910 H880 0.950 . S
C910 C909 1.524 . S
C910 C911 1.415 . S
C911 H881 0.950 . S
C911 C906 1.363 . S
C911 C910 1.415 . S
H912 C909 0.999 . S
H913 C894 0.913 . S
H914 C932 0.951 . S
H915 C934 0.951 . S
H916 C936 0.950 . S
H917 C937 0.950 . S
H918 C939 0.950 . S
H919 C942 0.950 . S
H920 C943 0.950 . S
H921 C945 0.950 . S
H922 C946 0.950 1_556 S
H923 C947 0.951 . S
H924 C949 0.951 . S
H925 C951 0.950 . S
H926 C952 0.950 . S
H927 C954 0.950 . S
H928 C957 0.950 . S
H929 C958 0.950 . S
H930 C960 0.950 . S
H931 C961 0.950 1_554 S
C932 H914 0.951 . S
C932 C933 1.366 . S
C932 C934 1.388 . S
C933 C932 1.366 . S
C933 C937 1.385 . S
C934 H915 0.951 . S
C934 C932 1.388 . S
C934 C935 1.366 . S
C935 C934 1.366 . S
C935 C936 1.414 . S
C935 C938 1.499 . S
C936 H916 0.950 . S
C936 C935 1.414 . S
C936 C937 1.374 . S
C937 H917 0.950 . S
C937 C933 1.385 . S
C937 C936 1.374 . S
C938 C935 1.499 . S
C938 C939 1.373 . S
C938 C940 1.389 . S
C939 H918 0.950 . S
C939 C938 1.373 . S
C939 C955 1.377 1_554 S
C940 C938 1.389 . S
C940 C941 1.524 . S
C940 C954 1.377 1_554 S
C941 C940 1.524 . S
C941 C942 1.397 . S
C941 C946 1.363 . S
C942 H919 0.950 . S
C942 C941 1.397 . S
C942 C943 1.334 . S
C943 H920 0.950 . S
C943 C942 1.334 . S
C943 C944 1.287 . S
C944 C943 1.287 . S
C944 C945 1.524 . S
C944 H963 0.913 . S
C945 H921 0.950 . S
C945 C944 1.524 . S
C945 C946 1.415 . S
C946 H922 0.950 1_554 S
C946 C941 1.363 . S
C946 C945 1.415 . S
C947 H923 0.951 . S
C947 C948 1.366 . S
C947 C949 1.388 . S
C948 C947 1.366 . S
C948 C952 1.385 . S
C949 H924 0.951 . S
C949 C947 1.388 . S
C949 C950 1.366 . S
C950 C949 1.366 . S
C950 C951 1.414 . S
C950 C953 1.499 . S
C951 H925 0.950 . S
C951 C950 1.414 . S
C951 C952 1.374 . S
C952 H926 0.950 . S
C952 C948 1.385 . S
C952 C951 1.374 . S
C953 C950 1.499 . S
C953 C954 1.373 . S
C953 C955 1.389 . S
C954 H927 0.950 . S
C954 C940 1.377 1_556 S
C954 C953 1.373 . S
C955 C939 1.377 1_556 S
C955 C953 1.389 . S
C955 C956 1.524 . S
C956 C955 1.524 . S
C956 C957 1.397 . S
C956 C961 1.363 . S
C957 H928 0.950 . S
C957 C956 1.397 . S
C957 C958 1.334 . S
C958 H929 0.950 . S
C958 C957 1.334 . S
C958 C959 1.287 . S
C959 C958 1.287 . S
C959 C960 1.524 . S
C959 H962 0.999 . S
C960 H930 0.950 . S
C960 C959 1.524 . S
C960 C961 1.415 . S
C961 H931 0.950 1_556 S
C961 C956 1.363 . S
C961 C960 1.415 . S
H962 C959 0.999 . S
H963 C944 0.913 . S
H964 C982 0.951 . S
H965 C984 0.951 . S
H966 C986 0.950 . S
H967 C987 0.950 . S
H968 C989 0.950 . S
H969 C992 0.950 . S
H970 C993 0.950 1_545 S
H971 C995 0.950 . S
H972 C996 0.950 . S
H973 C997 0.951 . S
H974 C999 0.951 . S
H975 C1001 0.950 . S
H976 C1002 0.950 . S
H977 C1004 0.950 . S
H978 C1007 0.950 . S
H979 C1008 0.950 . S
H980 C1010 0.950 . S
H981 C1011 0.950 . S
C982 H964 0.951 . S
C982 C983 1.366 . S
C982 C984 1.388 . S
C983 C982 1.366 . S
C983 C987 1.385 . S
C984 H965 0.951 . S
C984 C982 1.388 . S
C984 C985 1.366 . S
C985 C984 1.366 . S
C985 C986 1.414 . S
C985 C988 1.499 . S
C986 H966 0.950 . S
C986 C985 1.414 . S
C986 C987 1.374 . S
C987 H967 0.950 . S
C987 C983 1.385 . S
C987 C986 1.374 . S
C988 C985 1.499 . S
C988 C989 1.373 . S
C988 C990 1.389 . S
C989 H968 0.950 . S
C989 C988 1.373 . S
C989 C1005 1.377 . S
C990 C988 1.389 . S
C990 C991 1.524 . S
C990 C1004 1.377 . S
C991 C990 1.524 . S
C991 C992 1.397 . S
C991 C996 1.363 . S
C992 H969 0.950 . S
C992 C991 1.397 . S
C992 C993 1.334 . S
C993 H970 0.950 1_565 S
C993 C992 1.334 . S
C993 C994 1.287 . S
C994 C993 1.287 . S
C994 C995 1.524 . S
C994 H1013 0.913 1_565 S
C995 H971 0.950 . S
C995 C994 1.524 . S
C995 C996 1.415 . S
C996 H972 0.950 . S
C996 C991 1.363 . S
C996 C995 1.415 . S
C997 H973 0.951 . S
C997 C998 1.366 . S
C997 C999 1.388 . S
C998 C997 1.366 . S
C998 C1002 1.385 . S
C999 H974 0.951 . S
C999 C997 1.388 . S
C999 C1000 1.366 . S
C1000 C999 1.366 . S
C1000 C1001 1.414 . S
C1000 C1003 1.499 . S
C1001 H975 0.950 . S
C1001 C1000 1.414 . S
C1001 C1002 1.374 . S
C1002 H976 0.950 . S
C1002 C998 1.385 . S
C1002 C1001 1.374 . S
C1003 C1000 1.499 . S
C1003 C1004 1.373 . S
C1003 C1005 1.389 . S
C1004 H977 0.950 . S
C1004 C990 1.377 . S
C1004 C1003 1.373 . S
C1005 C989 1.377 . S
C1005 C1003 1.389 . S
C1005 C1006 1.524 . S
C1006 C1005 1.524 . S
C1006 C1007 1.397 . S
C1006 C1011 1.363 . S
C1007 H978 0.950 . S
C1007 C1006 1.397 . S
C1007 C1008 1.334 . S
C1008 H979 0.950 . S
C1008 C1007 1.334 . S
C1008 C1009 1.287 . S
C1009 C1008 1.287 . S
C1009 C1010 1.524 . S
C1009 H1012 0.999 . S
C1010 H980 0.950 . S
C1010 C1009 1.524 . S
C1010 C1011 1.415 . S
C1011 H981 0.950 . S
C1011 C1006 1.363 . S
C1011 C1010 1.415 . S
H1012 C1009 0.999 . S
H1013 C994 0.913 1_545 S
H1014 C1032 0.951 . S
H1015 C1034 0.951 . S
H1016 C1036 0.950 . S
H1017 C1037 0.950 . S
H1018 C1039 0.950 . S
H1019 C1042 0.950 . S
H1020 C1043 0.950 . S
H1021 C1045 0.950 . S
H1022 C1046 0.950 . S
H1023 C1047 0.951 . S
H1024 C1049 0.951 . S
H1025 C1051 0.950 . S
H1026 C1052 0.950 . S
H1027 C1054 0.950 . S
H1028 C1057 0.950 . S
H1029 C1058 0.950 . S
H1030 C1060 0.950 . S
H1031 C1061 0.950 . S
C1032 H1014 0.951 . S
C1032 C1033 1.366 . S
C1032 C1034 1.388 . S
C1033 C1032 1.366 . S
C1033 C1037 1.385 . S
C1034 H1015 0.951 . S
C1034 C1032 1.388 . S
C1034 C1035 1.366 . S
C1035 C1034 1.366 . S
C1035 C1036 1.414 . S
C1035 C1038 1.499 . S
C1036 H1016 0.950 . S
C1036 C1035 1.414 . S
C1036 C1037 1.374 . S
C1037 H1017 0.950 . S
C1037 C1033 1.385 . S
C1037 C1036 1.374 . S
C1038 C1035 1.499 . S
C1038 C1039 1.373 . S
C1038 C1040 1.389 1_554 S
C1039 H1018 0.950 . S
C1039 C1038 1.373 . S
C1039 C1055 1.377 . S
C1040 C1038 1.389 1_556 S
C1040 C1041 1.524 . S
C1040 C1054 1.377 . S
C1041 C1040 1.524 . S
C1041 C1042 1.397 1_556 S
C1041 C1046 1.363 . S
C1042 H1019 0.950 . S
C1042 C1041 1.397 1_554 S
C1042 C1043 1.334 . S
C1043 H1020 0.950 . S
C1043 C1042 1.334 . S
C1043 C1044 1.287 1_554 S
C1044 C1043 1.287 1_556 S
C1044 C1045 1.524 . S
C1044 H1063 0.913 . S
C1045 H1021 0.950 . S
C1045 C1044 1.524 . S
C1045 C1046 1.415 . S
C1046 H1022 0.950 . S
C1046 C1041 1.363 . S
C1046 C1045 1.415 . S
C1047 H1023 0.951 . S
C1047 C1048 1.366 . S
C1047 C1049 1.388 . S
C1048 C1047 1.366 . S
C1048 C1052 1.385 . S
C1049 H1024 0.951 . S
C1049 C1047 1.388 . S
C1049 C1050 1.366 . S
C1050 C1049 1.366 . S
C1050 C1051 1.414 . S
C1050 C1053 1.499 . S
C1051 H1025 0.950 . S
C1051 C1050 1.414 . S
C1051 C1052 1.374 . S
C1052 H1026 0.950 . S
C1052 C1048 1.385 . S
C1052 C1051 1.374 . S
C1053 C1050 1.499 . S
C1053 C1054 1.373 . S
C1053 C1055 1.389 1_556 S
C1054 H1027 0.950 . S
C1054 C1040 1.377 . S
C1054 C1053 1.373 . S
C1055 C1039 1.377 . S
C1055 C1053 1.389 1_554 S
C1055 C1056 1.524 . S
C1056 C1055 1.524 . S
C1056 C1057 1.397 1_554 S
C1056 C1061 1.363 . S
C1057 H1028 0.950 . S
C1057 C1056 1.397 1_556 S
C1057 C1058 1.334 . S
C1058 H1029 0.950 . S
C1058 C1057 1.334 . S
C1058 C1059 1.287 1_556 S
C1059 C1058 1.287 1_554 S
C1059 C1060 1.524 . S
C1059 H1062 0.999 . S
C1060 H1030 0.950 . S
C1060 C1059 1.524 . S
C1060 C1061 1.415 . S
C1061 H1031 0.950 . S
C1061 C1056 1.363 . S
C1061 C1060 1.415 . S
H1062 C1059 0.999 . S
H1063 C1044 0.913 . S
H1064 C1082 0.951 . S
H1065 C1084 0.951 . S
H1066 C1086 0.954 . S
H1067 C1087 0.950 . S
H1068 C1089 0.950 . S
H1069 C1092 0.950 . S
H1070 C1093 0.950 . S
H1071 C1095 0.950 . S
H1072 C1096 0.950 1_545 S
H1073 C1097 0.951 . S
H1074 C1099 0.951 . S
H1075 C1101 0.954 . S
H1076 C1102 0.950 . S
H1077 C1104 0.950 . S
H1078 C1107 0.950 . S
H1079 C1108 0.950 . S
H1080 C1110 0.950 . S
H1081 C1111 0.950 1_565 S
C1082 H1064 0.951 . S
C1082 C1083 1.366 . S
C1082 C1084 1.388 . S
C1083 C1082 1.366 . S
C1083 C1087 1.385 . S
C1084 H1065 0.951 . S
C1084 C1082 1.388 . S
C1084 C1085 1.366 . S
C1085 C1084 1.366 . S
C1085 C1086 1.414 . S
C1085 C1088 1.499 . S
C1086 H1066 0.954 . S
C1086 C1085 1.414 . S
C1086 C1087 1.374 . S
C1087 H1067 0.950 . S
C1087 C1083 1.385 . S
C1087 C1086 1.374 . S
C1088 C1085 1.499 . S
C1088 C1089 1.373 . S
C1088 C1090 1.389 . S
C1089 H1068 0.950 . S
C1089 C1088 1.373 . S
C1089 C1105 1.377 1_665 S
C1090 C1088 1.389 . S
C1090 C1091 1.524 . S
C1090 C1104 1.377 1_665 S
C1091 C1090 1.524 . S
C1091 C1092 1.397 1_655 S
C1091 C1096 1.363 . S
C1092 H1069 0.950 . S
C1092 C1091 1.397 1_455 S
C1092 C1093 1.334 . S
C1093 H1070 0.950 . S
C1093 C1092 1.334 . S
C1093 C1094 1.287 1_455 S
C1094 C1093 1.287 1_655 S
C1094 C1095 1.524 . S
C1094 H1113 0.913 . S
C1095 H1071 0.950 . S
C1095 C1094 1.524 . S
C1095 C1096 1.415 . S
C1096 H1072 0.950 1_565 S
C1096 C1091 1.363 . S
C1096 C1095 1.415 . S
C1097 H1073 0.951 . S
C1097 C1098 1.366 . S
C1097 C1099 1.388 . S
C1098 C1097 1.366 . S
C1098 C1102 1.385 . S
C1099 H1074 0.951 . S
C1099 C1097 1.388 . S
C1099 C1100 1.366 . S
C1100 C1099 1.366 . S
C1100 C1101 1.414 . S
C1100 C1103 1.499 . S
C1101 H1075 0.954 . S
C1101 C1100 1.414 . S
C1101 C1102 1.374 . S
C1102 H1076 0.950 . S
C1102 C1098 1.385 . S
C1102 C1101 1.374 . S
C1103 C1100 1.499 . S
C1103 C1104 1.373 . S
C1103 C1105 1.389 . S
C1104 H1077 0.950 . S
C1104 C1090 1.377 1_445 S
C1104 C1103 1.373 . S
C1105 C1089 1.377 1_445 S
C1105 C1103 1.389 . S
C1105 C1106 1.524 . S
C1106 C1105 1.524 . S
C1106 C1107 1.397 1_455 S
C1106 C1111 1.363 . S
C1107 H1078 0.950 . S
C1107 C1106 1.397 1_655 S
C1107 C1108 1.334 . S
C1108 H1079 0.950 . S
C1108 C1107 1.334 . S
C1108 C1109 1.287 1_655 S
C1109 C1108 1.287 1_455 S
C1109 C1110 1.524 . S
C1109 H1112 0.999 . S
C1110 H1080 0.950 . S
C1110 C1109 1.524 . S
C1110 C1111 1.415 . S
C1111 H1081 0.950 1_545 S
C1111 C1106 1.363 . S
C1111 C1110 1.415 . S
H1112 C1109 0.999 . S
H1113 C1094 0.913 . S
H1114 C1132 0.951 . S
H1115 C1134 0.951 . S
H1116 C1136 0.950 . S
H1117 C1137 0.950 . S
H1118 C1139 0.950 . S
H1119 C1142 0.950 . S
H1120 C1143 0.950 . S
H1121 C1145 0.950 . S
H1122 C1146 0.950 . S
H1123 C1147 0.951 . S
H1124 C1149 0.951 . S
H1125 C1151 0.950 . S
H1126 C1152 0.950 . S
H1127 C1154 0.950 . S
H1128 C1157 0.950 . S
H1129 C1158 0.950 . S
H1130 C1160 0.950 . S
H1131 C1161 0.950 . S
C1132 H1114 0.951 . S
C1132 C1133 1.366 . S
C1132 C1134 1.388 . S
C1133 C1132 1.366 . S
C1133 C1137 1.385 . S
C1134 H1115 0.951 . S
C1134 C1132 1.388 . S
C1134 C1135 1.366 . S
C1135 C1134 1.366 . S
C1135 C1136 1.414 . S
C1135 C1138 1.499 . S
C1136 H1116 0.950 . S
C1136 C1135 1.414 . S
C1136 C1137 1.374 . S
C1137 H1117 0.950 . S
C1137 C1133 1.385 . S
C1137 C1136 1.374 . S
C1138 C1135 1.499 . S
C1138 C1139 1.373 . S
C1138 C1140 1.389 . S
C1139 H1118 0.950 . S
C1139 C1138 1.373 . S
C1139 C1155 1.377 . S
C1140 C1138 1.389 . S
C1140 C1141 1.524 . S
C1140 C1154 1.377 . S
C1141 C1140 1.524 . S
C1141 C1142 1.397 . S
C1141 C1146 1.363 . S
C1142 H1119 0.950 . S
C1142 C1141 1.397 . S
C1142 C1143 1.334 . S
C1143 H1120 0.950 . S
C1143 C1142 1.334 . S
C1143 C1144 1.287 . S
C1144 C1143 1.287 . S
C1144 C1145 1.524 . S
C1144 H1163 0.913 . S
C1145 H1121 0.950 . S
C1145 C1144 1.524 . S
C1145 C1146 1.415 . S
C1146 H1122 0.950 . S
C1146 C1141 1.363 . S
C1146 C1145 1.415 . S
C1147 H1123 0.951 . S
C1147 C1148 1.366 . S
C1147 C1149 1.388 . S
C1148 C1147 1.366 . S
C1148 C1152 1.385 . S
C1149 H1124 0.951 . S
C1149 C1147 1.388 . S
C1149 C1150 1.366 . S
C1150 C1149 1.366 . S
C1150 C1151 1.414 . S
C1150 C1153 1.499 . S
C1151 H1125 0.950 . S
C1151 C1150 1.414 . S
C1151 C1152 1.374 . S
C1152 H1126 0.950 . S
C1152 C1148 1.385 . S
C1152 C1151 1.374 . S
C1153 C1150 1.499 . S
C1153 C1154 1.373 . S
C1153 C1155 1.389 . S
C1154 H1127 0.950 . S
C1154 C1140 1.377 . S
C1154 C1153 1.373 . S
C1155 C1139 1.377 . S
C1155 C1153 1.389 . S
C1155 C1156 1.524 . S
C1156 C1155 1.524 . S
C1156 C1157 1.397 . S
C1156 C1161 1.363 . S
C1157 H1128 0.950 . S
C1157 C1156 1.397 . S
C1157 C1158 1.334 . S
C1158 H1129 0.950 . S
C1158 C1157 1.334 . S
C1158 C1159 1.287 . S
C1159 C1158 1.287 . S
C1159 C1160 1.524 . S
C1159 H1162 0.999 . S
C1160 H1130 0.950 . S
C1160 C1159 1.524 . S
C1160 C1161 1.415 . S
C1161 H1131 0.950 . S
C1161 C1156 1.363 . S
C1161 C1160 1.415 . S
H1162 C1159 0.999 . S
H1163 C1144 0.913 . S
H1164 C1182 0.951 . S
H1165 C1184 0.951 . S
H1166 C1186 0.950 . S
H1167 C1187 0.950 . S
H1168 C1189 0.950 . S
H1169 C1192 0.950 . S
H1170 C1193 0.950 . S
H1171 C1195 0.950 . S
H1172 C1196 0.950 . S
H1173 C1197 0.951 . S
H1174 C1199 0.951 . S
H1175 C1201 0.950 . S
H1176 C1202 0.950 . S
H1177 C1204 0.950 . S
H1178 C1207 0.950 . S
H1179 C1208 0.950 . S
H1180 C1210 0.950 . S
H1181 C1211 0.950 . S
C1182 H1164 0.951 . S
C1182 C1183 1.366 . S
C1182 C1184 1.388 . S
C1183 C1182 1.366 . S
C1183 C1187 1.385 . S
C1184 H1165 0.951 . S
C1184 C1182 1.388 . S
C1184 C1185 1.366 . S
C1185 C1184 1.366 . S
C1185 C1186 1.414 . S
C1185 C1188 1.499 . S
C1186 H1166 0.950 . S
C1186 C1185 1.414 . S
C1186 C1187 1.374 . S
C1187 H1167 0.950 . S
C1187 C1183 1.385 . S
C1187 C1186 1.374 . S
C1188 C1185 1.499 . S
C1188 C1189 1.373 . S
C1188 C1190 1.389 . S
C1189 H1168 0.950 . S
C1189 C1188 1.373 . S
C1189 C1205 1.377 . S
C1190 C1188 1.389 . S
C1190 C1191 1.524 . S
C1190 C1204 1.377 . S
C1191 C1190 1.524 . S
C1191 C1192 1.397 . S
C1191 C1196 1.363 . S
C1192 H1169 0.950 . S
C1192 C1191 1.397 . S
C1192 C1193 1.334 . S
C1193 H1170 0.950 . S
C1193 C1192 1.334 . S
C1193 C1194 1.287 . S
C1194 C1193 1.287 . S
C1194 C1195 1.524 . S
C1194 H1213 0.913 . S
C1195 H1171 0.950 . S
C1195 C1194 1.524 . S
C1195 C1196 1.415 . S
C1196 H1172 0.950 . S
C1196 C1191 1.363 . S
C1196 C1195 1.415 . S
C1197 H1173 0.951 . S
C1197 C1198 1.366 . S
C1197 C1199 1.388 . S
C1198 C1197 1.366 . S
C1198 C1202 1.385 . S
C1199 H1174 0.951 . S
C1199 C1197 1.388 . S
C1199 C1200 1.366 . S
C1200 C1199 1.366 . S
C1200 C1201 1.414 . S
C1200 C1203 1.499 . S
C1201 H1175 0.950 . S
C1201 C1200 1.414 . S
C1201 C1202 1.374 . S
C1202 H1176 0.950 . S
C1202 C1198 1.385 . S
C1202 C1201 1.374 . S
C1203 C1200 1.499 . S
C1203 C1204 1.373 . S
C1203 C1205 1.389 . S
C1204 H1177 0.950 . S
C1204 C1190 1.377 . S
C1204 C1203 1.373 . S
C1205 C1189 1.377 . S
C1205 C1203 1.389 . S
C1205 C1206 1.524 . S
C1206 C1205 1.524 . S
C1206 C1207 1.397 . S
C1206 C1211 1.363 . S
C1207 H1178 0.950 . S
C1207 C1206 1.397 . S
C1207 C1208 1.334 . S
C1208 H1179 0.950 . S
C1208 C1207 1.334 . S
C1208 C1209 1.287 . S
C1209 C1208 1.287 . S
C1209 C1210 1.524 . S
C1209 H1212 0.999 . S
C1210 H1180 0.950 . S
C1210 C1209 1.524 . S
C1210 C1211 1.415 . S
C1211 H1181 0.950 . S
C1211 C1206 1.363 . S
C1211 C1210 1.415 . S
H1212 C1209 0.999 . S
H1213 C1194 0.913 . S
H1214 C1232 0.951 . S
H1215 C1234 0.951 1_565 S
H1216 C1236 0.950 . S
H1217 C1237 0.950 . S
H1218 C1239 0.950 . S
H1219 C1242 0.950 . S
H1220 C1243 0.950 . S
H1221 C1245 0.950 . S
H1222 C1246 0.950 . S
H1223 C1247 0.951 . S
H1224 C1249 0.951 1_545 S
H1225 C1251 0.950 . S
H1226 C1252 0.950 . S
H1227 C1254 0.950 . S
H1228 C1257 0.950 . S
H1229 C1258 0.950 . S
H1230 C1260 0.950 . S
H1231 C1261 0.950 . S
C1232 H1214 0.951 . S
C1232 C1233 1.366 . S
C1232 C1234 1.388 . S
C1233 C1232 1.366 . S
C1233 C1237 1.385 . S
C1234 H1215 0.951 1_545 S
C1234 C1232 1.388 . S
C1234 C1235 1.366 . S
C1235 C1234 1.366 . S
C1235 C1236 1.414 . S
C1235 C1238 1.499 . S
C1236 H1216 0.950 . S
C1236 C1235 1.414 . S
C1236 C1237 1.374 . S
C1237 H1217 0.950 . S
C1237 C1233 1.385 . S
C1237 C1236 1.374 . S
C1238 C1235 1.499 . S
C1238 C1239 1.373 . S
C1238 C1240 1.389 1_545 S
C1239 H1218 0.950 . S
C1239 C1238 1.373 . S
C1239 C1255 1.377 1_455 S
C1240 C1238 1.389 1_565 S
C1240 C1241 1.524 . S
C1240 C1254 1.377 1_455 S
C1241 C1240 1.524 . S
C1241 C1242 1.397 1_565 S
C1241 C1246 1.363 . S
C1242 H1219 0.950 . S
C1242 C1241 1.397 1_545 S
C1242 C1243 1.334 . S
C1243 H1220 0.950 . S
C1243 C1242 1.334 . S
C1243 C1244 1.287 1_545 S
C1244 C1243 1.287 1_565 S
C1244 C1245 1.524 . S
C1244 H1263 0.913 . S
C1245 H1221 0.950 . S
C1245 C1244 1.524 . S
C1245 C1246 1.415 . S
C1246 H1222 0.950 . S
C1246 C1241 1.363 . S
C1246 C1245 1.415 . S
C1247 H1223 0.951 . S
C1247 C1248 1.366 . S
C1247 C1249 1.388 . S
C1248 C1247 1.366 . S
C1248 C1252 1.385 . S
C1249 H1224 0.951 1_565 S
C1249 C1247 1.388 . S
C1249 C1250 1.366 . S
C1250 C1249 1.366 . S
C1250 C1251 1.414 . S
C1250 C1253 1.499 . S
C1251 H1225 0.950 . S
C1251 C1250 1.414 . S
C1251 C1252 1.374 . S
C1252 H1226 0.950 . S
C1252 C1248 1.385 . S
C1252 C1251 1.374 . S
C1253 C1250 1.499 . S
C1253 C1254 1.373 . S
C1253 C1255 1.389 1_565 S
C1254 H1227 0.950 . S
C1254 C1240 1.377 1_655 S
C1254 C1253 1.373 . S
C1255 C1239 1.377 1_655 S
C1255 C1253 1.389 1_545 S
C1255 C1256 1.524 . S
C1256 C1255 1.524 . S
C1256 C1257 1.397 1_545 S
C1256 C1261 1.363 . S
C1257 H1228 0.950 . S
C1257 C1256 1.397 1_565 S
C1257 C1258 1.334 . S
C1258 H1229 0.950 . S
C1258 C1257 1.334 . S
C1258 C1259 1.287 1_565 S
C1259 C1258 1.287 1_545 S
C1259 C1260 1.524 . S
C1259 H1262 0.999 . S
C1260 H1230 0.950 . S
C1260 C1259 1.524 . S
C1260 C1261 1.415 . S
C1261 H1231 0.950 . S
C1261 C1256 1.363 . S
C1261 C1260 1.415 . S
H1262 C1259 0.999 . S
H1263 C1244 0.913 . S
C283 N71 1.137 . S
C298 N5 1.136 . S
C333 N104 1.137 . S
C348 N38 1.136 . S
C383 N203 1.137 . S
C398 N137 1.136 . S
C433 N236 1.136 . S
C448 N170 1.137 . S
C483 C160 1.957 . S
C498 C17 1.956 . S
C533 C193 1.957 . S
C548 C50 1.956 . S
C583 C226 1.957 . S
C598 C83 1.956 . S
C633 C116 1.956 . S
C648 C259 1.957 . S
C683 C28 1.957 . S
C698 C149 1.956 . S
C733 C61 1.957 . S
C748 C182 1.956 . S
C783 C94 1.957 . S
C798 C215 1.956 . S
C833 C248 1.956 . S
C848 C127 1.957 . S
C883 C8 1.806 . S
C898 C173 1.806 . S
C933 C206 1.806 . S
C948 C41 1.806 . S
C983 C239 1.806 . S
C998 C74 1.806 . S
C1033 C140 1.806 . S
C1048 C107 1.805 . S
C1083 N80 0.557 . S
C1098 N14 0.555 . S
C1133 N47 0.556 . S
C1148 N113 0.554 . S
C1183 N212 0.556 . S
C1198 N146 0.554 . S
C1233 N179 0.555 . S
C1248 N245 0.557 . S
