# Generated by pormake.
# Topology wfa, (4)-cn, num edge types: 1
# Building blocks:
#     Node 0, Type 0, BuildingBlock: KOZSID_clean_sbu_0, # of connection points: 4
#     Node 1, Type 0, BuildingBlock: KOZSID_clean_sbu_0, # of connection points: 4
#     Node 2, Type 0, BuildingBlock: KOZSID_clean_sbu_0, # of connection points: 4
#     Node 3, Type 0, BuildingBlock: KOZSID_clean_sbu_0, # of connection points: 4
#     Node 4, Type 0, BuildingBlock: KOZSID_clean_sbu_0, # of connection points: 4
#     Node 5, Type 0, BuildingBlock: KOZSID_clean_sbu_0, # of connection points: 4
#     Node 6, Type 0, BuildingBlock: KOZSID_clean_sbu_0, # of connection points: 4
#     Node 7, Type 0, BuildingBlock: KOZSID_clean_sbu_0, # of connection points: 4
#     Node 8, Type 0, BuildingBlock: KOZSID_clean_sbu_0, # of connection points: 4
#     Node 9, Type 0, BuildingBlock: KOZSID_clean_sbu_0, # of connection points: 4
#     Node 10, Type 0, BuildingBlock: KOZSID_clean_sbu_0, # of connection points: 4
#     Node 11, Type 0, BuildingBlock: KOZSID_clean_sbu_0, # of connection points: 4
#     Node 12, Type 0, BuildingBlock: KOZSID_clean_sbu_0, # of connection points: 4
#     Node 13, Type 0, BuildingBlock: KOZSID_clean_sbu_0, # of connection points: 4
#     Node 14, Type 0, BuildingBlock: KOZSID_clean_sbu_0, # of connection points: 4
#     Node 15, Type 0, BuildingBlock: KOZSID_clean_sbu_0, # of connection points: 4
#     Edge 16, Type (0, 0), BuildingBlock: KIFKEQ_clean_linker_1, # of connection points: 2
#     Edge 17, Type (0, 0), BuildingBlock: KIFKEQ_clean_linker_1, # of connection points: 2
#     Edge 18, Type (0, 0), BuildingBlock: KIFKEQ_clean_linker_1, # of connection points: 2
#     Edge 19, Type (0, 0), BuildingBlock: KIFKEQ_clean_linker_1, # of connection points: 2
#     Edge 20, Type (0, 0), BuildingBlock: KIFKEQ_clean_linker_1, # of connection points: 2
#     Edge 21, Type (0, 0), BuildingBlock: KIFKEQ_clean_linker_1, # of connection points: 2
#     Edge 22, Type (0, 0), BuildingBlock: KIFKEQ_clean_linker_1, # of connection points: 2
#     Edge 23, Type (0, 0), BuildingBlock: KIFKEQ_clean_linker_1, # of connection points: 2
#     Edge 24, Type (0, 0), BuildingBlock: KIFKEQ_clean_linker_1, # of connection points: 2
#     Edge 25, Type (0, 0), BuildingBlock: KIFKEQ_clean_linker_1, # of connection points: 2
#     Edge 26, Type (0, 0), BuildingBlock: KIFKEQ_clean_linker_1, # of connection points: 2
#     Edge 27, Type (0, 0), BuildingBlock: KIFKEQ_clean_linker_1, # of connection points: 2
#     Edge 28, Type (0, 0), BuildingBlock: KIFKEQ_clean_linker_1, # of connection points: 2
#     Edge 29, Type (0, 0), BuildingBlock: KIFKEQ_clean_linker_1, # of connection points: 2
#     Edge 30, Type (0, 0), BuildingBlock: KIFKEQ_clean_linker_1, # of connection points: 2
#     Edge 31, Type (0, 0), BuildingBlock: KIFKEQ_clean_linker_1, # of connection points: 2
#     Edge 32, Type (0, 0), BuildingBlock: KIFKEQ_clean_linker_1, # of connection points: 2
#     Edge 33, Type (0, 0), BuildingBlock: KIFKEQ_clean_linker_1, # of connection points: 2
#     Edge 34, Type (0, 0), BuildingBlock: KIFKEQ_clean_linker_1, # of connection points: 2
#     Edge 35, Type (0, 0), BuildingBlock: KIFKEQ_clean_linker_1, # of connection points: 2
#     Edge 36, Type (0, 0), BuildingBlock: KIFKEQ_clean_linker_1, # of connection points: 2
#     Edge 37, Type (0, 0), BuildingBlock: KIFKEQ_clean_linker_1, # of connection points: 2
#     Edge 38, Type (0, 0), BuildingBlock: KIFKEQ_clean_linker_1, # of connection points: 2
#     Edge 39, Type (0, 0), BuildingBlock: KIFKEQ_clean_linker_1, # of connection points: 2
#     Edge 40, Type (0, 0), BuildingBlock: KIFKEQ_clean_linker_1, # of connection points: 2
#     Edge 41, Type (0, 0), BuildingBlock: KIFKEQ_clean_linker_1, # of connection points: 2
#     Edge 42, Type (0, 0), BuildingBlock: KIFKEQ_clean_linker_1, # of connection points: 2
#     Edge 43, Type (0, 0), BuildingBlock: KIFKEQ_clean_linker_1, # of connection points: 2
#     Edge 44, Type (0, 0), BuildingBlock: KIFKEQ_clean_linker_1, # of connection points: 2
#     Edge 45, Type (0, 0), BuildingBlock: KIFKEQ_clean_linker_1, # of connection points: 2
#     Edge 46, Type (0, 0), BuildingBlock: KIFKEQ_clean_linker_1, # of connection points: 2
#     Edge 47, Type (0, 0), BuildingBlock: KIFKEQ_clean_linker_1, # of connection points: 2
# Relax obj value: 0.123
# Max RMSD: 0.263
# Mean RMSD: 0.210
data_MOF--net-wfa--node1-KOZSID_clean_sbu_0--edge1-KIFKEQ_clean_linker_1
_symmetry_space_group_name_H-M    P1
_symmetry_Int_Tables_number       1
_symmetry_cell_setting            triclinic
loop_
_symmetry_equiv_pos_as_xyz
'x, y, z'
_cell_length_a     60.137665
_cell_length_b     62.665362
_cell_length_c     25.347129
_cell_angle_alpha  88.427071
_cell_angle_beta   88.348287
_cell_angle_gamma 89.018281
loop_
_atom_site_label
_atom_site_type_symbol
_atom_site_fract_x
_atom_site_fract_y
_atom_site_fract_z
_atom_type_partial_charge
C0 C 0.55474 0.02777 0.99904 0.0
C1 C 0.54896 0.04558 0.96847 0.0
C2 C 0.56799 0.05737 0.96105 0.0
C3 C 0.58434 0.04623 0.98758 0.0
N4 N 0.57669 0.02817 0.01074 0.0
Co5 Co 0.59364 1.00858 0.05822 0.0
N6 N 0.61581 0.03054 0.0731 0.0
C7 C 0.61934 0.04838 0.04338 0.0
C8 C 0.63612 0.06047 0.0619 0.0
C9 C 0.64382 0.04936 0.10534 0.0
C10 C 0.6314 0.03091 0.11087 0.0
N11 N 0.60986 0.98868 0.10636 0.0
C12 C 0.62554 0.99254 0.14228 0.0
C13 C 0.63311 0.97351 0.16549 0.0
C14 C 0.62196 0.95734 0.14289 0.0
C15 C 0.60826 0.96725 0.10711 0.0
N16 N 0.57151 0.98678 0.04272 0.0
C17 C 0.57421 0.96555 0.04892 0.0
C18 C 0.55534 0.95466 0.0375 0.0
C19 C 0.53985 0.97008 0.02383 0.0
C20 C 0.55015 0.98956 0.02789 0.0
N21 N 0.61312 0.99958 0.99836 0.0
C22 C 0.64371 0.99463 0.91273 0.0
C23 C 0.65073 0.99403 0.96485 0.0
C24 C 0.63539 0.9966 0.00654 0.0
C25 C 0.62073 0.99681 0.90444 0.0
C26 C 0.60568 0.99893 0.94785 0.0
N27 N 0.5749 0.01817 0.11737 0.0
C28 C 0.55124 0.0115 0.19423 0.0
C29 C 0.54681 0.03342 0.19773 0.0
C30 C 0.55691 0.04747 0.16122 0.0
C31 C 0.57099 0.03959 0.12187 0.0
C32 C 0.5653 1.00413 0.15319 0.0
H33 H 0.57853 0.05095 0.09465 0.0
H34 H 0.56832 0.98718 0.15014 0.0
H35 H 0.64201 0.99728 0.0453 0.0
H36 H 0.58815 1.00087 0.94042 0.0
C37 C 0.60464 0.05454 1.00321 0.0
C38 C 0.53955 1.01041 0.0161 0.0
C39 C 0.63602 0.01335 0.14941 0.0
C40 C 0.59199 0.9573 0.07815 0.0
H41 H 0.53271 0.04994 0.95414 0.0
H42 H 0.56927 0.07299 0.94199 0.0
H43 H 0.64174 0.0758 0.04654 0.0
H44 H 0.65725 0.05418 0.12965 0.0
H45 H 0.64593 0.9714 0.19435 0.0
H46 H 0.62354 0.94041 0.1519 0.0
H47 H 0.55261 0.93768 0.04226 0.0
H48 H 0.52284 0.96738 0.0132 0.0
H49 H 0.66823 0.99267 0.97357 0.0
H50 H 0.61446 0.99713 0.8648 0.0
H51 H 0.54378 1.00025 0.2224 0.0
H52 H 0.55408 0.06456 0.16341 0.0
C53 C 0.55185 0.65652 0.08385 0.0
C54 C 0.57297 0.64865 0.09516 0.0
C55 C 0.58743 0.65847 0.06032 0.0
C56 C 0.57438 0.6715 0.02945 0.0
N57 N 0.55253 0.67117 0.04349 0.0
Co58 Co 0.52732 0.68459 1.00339 0.0
N59 N 0.548 0.69558 0.94563 0.0
C60 C 0.57038 0.69314 0.94339 0.0
C61 C 0.58052 0.70436 0.90258 0.0
C62 C 0.56371 0.71512 0.87793 0.0
C63 C 0.54411 0.7097 0.90496 0.0
N64 N 0.5021 0.69745 0.96229 0.0
C65 C 0.50243 0.71072 0.91896 0.0
C66 C 0.48109 0.71652 0.90412 0.0
C67 C 0.4668 0.70731 0.94051 0.0
C68 C 0.48015 0.69628 0.97515 0.0
N69 N 0.50668 0.6744 0.06134 0.0
C70 C 0.4846 0.67843 0.06626 0.0
C71 C 0.47488 0.66871 0.11005 0.0
C72 C 0.49169 0.65735 0.13349 0.0
C73 C 0.51069 0.6607 0.1022 0.0
N74 N 0.5305 0.71203 0.04138 0.0
C75 C 0.53379 0.74711 0.10925 0.0
C76 C 0.51351 0.74188 0.08785 0.0
C77 C 0.51222 0.72444 0.0546 0.0
C78 C 0.55264 0.73525 0.09353 0.0
C79 C 0.55071 0.71822 0.05909 0.0
N80 N 0.52401 0.65647 0.96833 0.0
C81 C 0.50216 0.62428 0.96465 0.0
C82 C 0.52121 0.61147 0.95591 0.0
C83 C 0.54138 0.62223 0.94743 0.0
C84 C 0.54231 0.64456 0.95285 0.0
C85 C 0.50388 0.64645 0.97019 0.0
H86 H 0.55826 0.65172 0.94732 0.0
H87 H 0.48879 0.655 0.97897 0.0
H88 H 0.49606 0.72105 0.04126 0.0
H89 H 0.56578 0.71007 0.04817 0.0
C90 C 0.58162 0.68198 0.98307 0.0
C91 C 0.53134 0.64844 0.10855 0.0
C92 C 0.52245 0.71955 0.89312 0.0
C93 C 0.47302 0.688 0.02454 0.0
H94 H 0.57759 0.63632 0.12351 0.0
H95 H 0.60513 0.65537 0.05572 0.0
H96 H 0.59817 0.70549 0.89354 0.0
H97 H 0.56592 0.72639 0.84523 0.0
H98 H 0.47641 0.72716 0.87179 0.0
H99 H 0.44893 0.70955 0.94333 0.0
H100 H 0.45739 0.66862 0.12144 0.0
H101 H 0.48994 0.64674 0.16772 0.0
H102 H 0.49843 0.75063 0.09851 0.0
H103 H 0.56885 0.73902 0.108 0.0
H104 H 0.48588 0.6172 0.96884 0.0
H105 H 0.55668 0.61346 0.93923 0.0
C106 C 0.96626 0.50207 0.94169 0.0
C107 C 0.97103 0.48597 0.90625 0.0
C108 C 0.9522 0.47373 0.90436 0.0
C109 C 0.93663 0.48343 0.93685 0.0
N110 N 0.94452 0.50105 0.95793 0.0
Co111 Co 0.92712 0.52089 1.00272 0.0
N112 N 0.90597 0.4986 0.02647 0.0
C113 C 0.90264 0.48044 1.00076 0.0
C114 C 0.88632 0.46822 0.02483 0.0
C115 C 0.87874 0.47963 0.06754 0.0
C116 C 0.89074 0.49839 0.06708 0.0
N117 N 0.91043 0.54122 0.04785 0.0
C118 C 0.89521 0.53759 0.08748 0.0
C119 C 0.88686 0.55683 0.10643 0.0
C120 C 0.89701 0.57284 0.07705 0.0
C121 C 0.91097 0.56264 0.04177 0.0
N122 N 0.94829 0.54288 0.97806 0.0
C123 C 0.94418 0.56397 0.97594 0.0
C124 C 0.96183 0.57514 0.95409 0.0
C125 C 0.97799 0.55997 0.94255 0.0
C126 C 0.96951 0.54042 0.95948 0.0
N127 N 0.90704 0.52817 0.94383 0.0
C128 C 0.87593 0.53257 0.86223 0.0
C129 C 0.86915 0.53274 0.91544 0.0
C130 C 0.88471 0.53046 0.95504 0.0
C131 C 0.89894 0.53075 0.85066 0.0
C132 C 0.91423 0.52887 0.89201 0.0
N133 N 0.94629 0.51306 0.06114 0.0
C134 C 0.96822 0.52186 0.13531 0.0
C135 C 0.97335 0.50019 0.14399 0.0
C136 C 0.96477 0.48522 0.11073 0.0
C137 C 0.95115 0.49192 0.07006 0.0
C138 C 0.95478 0.52803 0.09298 0.0
H139 H 0.94448 0.47987 0.04579 0.0
H140 H 0.95112 0.54478 0.08608 0.0
H141 H 0.87826 0.5297 0.99496 0.0
H142 H 0.93177 0.52735 0.88208 0.0
C143 C 0.91672 0.47459 0.95771 0.0
C144 C 0.98128 0.51954 0.9562 0.0
C145 C 0.88573 0.51655 0.10193 0.0
C146 C 0.92625 0.57244 0.00594 0.0
H147 H 0.98608 0.48352 0.88279 0.0
H148 H 0.95043 0.45913 0.88314 0.0
H149 H 0.88077 0.45274 0.01323 0.0
H150 H 0.86552 0.4749 0.09501 0.0
H151 H 0.87409 0.55912 0.1368 0.0
H152 H 0.89452 0.58987 0.08113 0.0
H153 H 0.96335 0.59229 0.94991 0.0
H154 H 0.9943 0.56299 0.92505 0.0
H155 H 0.85167 0.53374 0.92682 0.0
H156 H 0.90508 0.53071 0.81009 0.0
H157 H 0.97454 0.53381 0.1608 0.0
H158 H 0.96819 0.4683 0.11689 0.0
C159 C 0.98153 0.87677 0.09828 0.0
C160 C 0.96092 0.88285 0.11936 0.0
C161 C 0.94535 0.87395 0.08894 0.0
C162 C 0.95733 0.86304 0.05119 0.0
N163 N 0.9796 0.86394 0.05658 0.0
Co164 Co 1.00326 0.85247 0.00712 0.0
N165 N 0.98059 0.84137 0.95874 0.0
C166 C 0.95825 0.84382 0.9634 0.0
C167 C 0.94693 0.83275 0.92703 0.0
C168 C 0.96295 0.82201 0.89858 0.0
C169 C 0.98318 0.82709 0.91947 0.0
N170 N 0.02682 0.841 0.95707 0.0
C171 C 0.02504 0.82688 0.91759 0.0
C172 C 0.04578 0.82125 0.89631 0.0
C173 C 0.06115 0.83178 0.92383 0.0
C174 C 0.04908 0.84311 0.96054 0.0
N175 N 0.02608 0.86301 0.05563 0.0
C176 C 0.04842 0.86092 0.05007 0.0
C177 C 0.05979 0.87085 0.08831 0.0
C178 C 0.04373 0.8803 0.11935 0.0
C179 C 0.02347 0.87559 0.09797 0.0
N180 N 1.00304 0.82451 0.04668 0.0
C181 C 1.0031 0.78762 0.11413 0.0
C182 C 0.02286 0.79554 0.09104 0.0
C183 C 0.02247 0.81383 0.05804 0.0
C184 C 0.98319 0.79791 0.09995 0.0
C185 C 0.98352 0.81595 0.06603 0.0
N186 N 1.00347 0.88124 0.96997 0.0
C187 C 0.02322 0.91464 0.95838 0.0
C188 C 1.00329 0.92663 0.95909 0.0
C189 C 0.98352 0.91507 0.95843 0.0
C190 C 0.98403 0.89261 0.96271 0.0
C191 C 0.02293 0.89223 0.963 0.0
H192 H 0.96838 0.88487 0.96319 0.0
H193 H 0.0387 0.88419 0.96374 0.0
H194 H 0.03817 0.81925 0.04283 0.0
H195 H 0.9678 0.82301 0.05692 0.0
C196 C 0.94837 0.85375 0.00714 0.0
C197 C 1.00242 0.8851 0.11581 0.0
C198 C 1.00427 0.81695 0.90292 0.0
C199 C 0.05816 0.85205 0.00486 0.0
H200 H 0.95754 0.89337 0.15188 0.0
H201 H 0.92747 0.87612 0.09224 0.0
H202 H 0.92909 0.83152 0.92385 0.0
H203 H 0.96004 0.81093 0.8676 0.0
H204 H 0.04968 0.80977 0.86626 0.0
H205 H 0.07906 0.82994 0.92043 0.0
H206 H 0.07762 0.87212 0.09144 0.0
H207 H 0.04662 0.89038 0.1524 0.0
H208 H 0.03875 0.78787 0.09876 0.0
H209 H 0.96732 0.79262 0.11627 0.0
H210 H 0.03913 0.92248 0.95575 0.0
H211 H 0.96751 0.92321 0.95748 0.0
C212 C 0.05322 0.99853 0.55634 0.0
C213 C 0.04694 0.98094 0.58717 0.0
C214 C 0.06596 0.9687 0.5944 0.0
C215 C 0.08279 0.97941 0.56752 0.0
N216 N 0.07542 0.99765 0.5446 0.0
Co217 Co 0.09277 0.01658 0.49561 0.0
N218 N 0.11473 0.99375 0.47841 0.0
C219 C 0.1182 0.976 0.50848 0.0
C220 C 0.1355 0.96359 0.48937 0.0
C221 C 0.14355 0.97439 0.44512 0.0
C222 C 0.13063 0.99286 0.43933 0.0
N223 N 0.10932 0.03592 0.44597 0.0
C224 C 0.12471 0.03138 0.40752 0.0
C225 C 0.13107 0.04997 0.38035 0.0
C226 C 0.12008 0.06661 0.40432 0.0
C227 C 0.10733 0.05738 0.44416 0.0
N228 N 0.07065 0.03912 0.51342 0.0
C229 C 0.07326 0.06027 0.5069 0.0
C230 C 0.05398 0.07157 0.51862 0.0
C231 C 0.03834 0.05649 0.53242 0.0
C232 C 0.04896 0.03682 0.52818 0.0
N233 N 0.11221 0.02478 0.55344 0.0
C234 C 0.1432 0.0273 0.63486 0.0
C235 C 0.15004 0.02789 0.58173 0.0
C236 C 0.13453 0.02668 0.54221 0.0
C237 C 0.12014 0.02703 0.64644 0.0
C238 C 0.1049 0.02577 0.60508 0.0
N239 N 0.07431 1.00778 0.43818 0.0
C240 C 0.05218 0.01552 0.362 0.0
C241 C 0.04742 0.99383 0.35862 0.0
C242 C 0.05648 0.97934 0.39511 0.0
C243 C 0.07005 0.98656 0.43398 0.0
C244 C 0.06553 0.02224 0.4027 0.0
H245 H 0.07702 0.97486 0.46088 0.0
H246 H 0.06872 0.03905 0.40555 0.0
H247 H 0.14109 0.02606 0.50249 0.0
H248 H 0.08734 0.02466 0.61493 0.0
C249 C 0.10326 0.97042 0.55033 0.0
C250 C 0.03831 0.01612 0.53845 0.0
C251 C 0.13563 1.01027 0.40044 0.0
C252 C 0.09099 0.06792 0.47504 0.0
H253 H 0.03038 0.977 0.60159 0.0
H254 H 0.06694 0.95302 0.61322 0.0
H255 H 0.14141 0.94839 0.50526 0.0
H256 H 0.15771 0.96947 0.42085 0.0
H257 H 0.14275 0.0515 0.34726 0.0
H258 H 0.12083 0.08336 0.39297 0.0
H259 H 0.05105 0.08857 0.51315 0.0
H260 H 0.02099 0.05952 0.54261 0.0
H261 H 0.16753 0.02865 0.57048 0.0
H262 H 0.114 0.02679 0.68702 0.0
H263 H 0.04552 0.02711 0.33391 0.0
H264 H 0.05342 0.96239 0.39297 0.0
C265 C 0.47869 0.16006 0.43813 0.0
C266 C 0.45818 0.15367 0.42119 0.0
C267 C 0.44252 0.16269 0.45413 0.0
C268 C 0.45437 0.17397 0.48911 0.0
N269 N 0.4766 0.17322 0.47952 0.0
Co270 Co 0.50024 0.18506 0.52415 0.0
N271 N 0.4776 0.19605 0.57691 0.0
C272 C 0.4553 0.1937 0.57597 0.0
C273 C 0.44387 0.20452 0.61477 0.0
C274 C 0.45972 0.21493 0.64116 0.0
C275 C 0.47999 0.2099 0.61674 0.0
N276 N 0.5238 0.19673 0.56965 0.0
C277 C 0.52186 0.21016 0.61093 0.0
C278 C 0.54256 0.21574 0.62857 0.0
C279 C 0.55806 0.2059 0.5968 0.0
C280 C 0.54608 0.19494 0.56151 0.0
N281 N 0.52294 0.1747 0.47115 0.0
C282 C 0.54519 0.17728 0.47184 0.0
C283 C 0.55655 0.16729 0.43155 0.0
C284 C 0.54062 0.15731 0.40434 0.0
C285 C 0.52044 0.16181 0.42984 0.0
N286 N 0.49843 0.21296 0.48422 0.0
C287 C 0.49653 0.24904 0.41389 0.0
C288 C 0.51665 0.24189 0.4354 0.0
C289 C 0.51723 0.22401 0.46985 0.0
C290 C 0.47721 0.23843 0.43129 0.0
C291 C 0.47849 0.22087 0.46667 0.0
N292 N 0.50209 0.15635 0.56133 0.0
C293 C 0.52325 0.123 0.56798 0.0
C294 C 0.50378 0.11096 0.57169 0.0
C295 C 0.48362 0.12245 0.57695 0.0
C296 C 0.48322 0.14491 0.57285 0.0
C297 C 0.52204 0.14543 0.56373 0.0
H298 H 0.4673 0.15265 0.57609 0.0
H299 H 0.53746 0.15353 0.55893 0.0
H300 H 0.53318 0.21921 0.48361 0.0
H301 H 0.46314 0.21364 0.47832 0.0
C302 C 0.44545 0.18351 0.53439 0.0
C303 C 0.49973 0.1517 0.41716 0.0
C304 C 0.50092 0.21952 0.63122 0.0
C305 C 0.55502 0.18628 0.5151 0.0
H306 H 0.45499 0.14286 0.3898 0.0
H307 H 0.42472 0.16036 0.45432 0.0
H308 H 0.42602 0.20564 0.62129 0.0
H309 H 0.45667 0.22564 0.67345 0.0
H310 H 0.54617 0.22667 0.65932 0.0
H311 H 0.57592 0.2078 0.59698 0.0
H312 H 0.57438 0.16625 0.42478 0.0
H313 H 0.54359 0.147 0.37121 0.0
H314 H 0.53209 0.24987 0.42545 0.0
H315 H 0.46108 0.24307 0.41656 0.0
H316 H 0.53943 0.11522 0.565 0.0
H317 H 0.46806 0.11415 0.5827 0.0
C318 C 0.4641 0.52723 0.52054 0.0
C319 C 0.469 0.54519 0.54837 0.0
C320 C 0.44925 0.55642 0.55529 0.0
C321 C 0.43337 0.54476 0.53129 0.0
N322 N 0.442 0.52689 0.51035 0.0
Co323 Co 0.42607 0.50681 0.4662 0.0
N324 N 0.40247 0.52812 0.44899 0.0
C325 C 0.39781 0.54576 0.47676 0.0
C326 C 0.38019 0.55737 0.45704 0.0
C327 C 0.37317 0.54614 0.41496 0.0
C328 C 0.38685 0.52811 0.41135 0.0
N329 N 0.41106 0.48651 0.4209 0.0
C330 C 0.39522 0.49002 0.38438 0.0
C331 C 0.38889 0.47087 0.36341 0.0
C332 C 0.40103 0.45496 0.38809 0.0
C333 C 0.41406 0.46515 0.42281 0.0
N334 N 0.44961 0.48566 0.48445 0.0
C335 C 0.44829 0.46437 0.48113 0.0
C336 C 0.46806 0.45412 0.4927 0.0
C337 C 0.48266 0.47004 0.50319 0.0
C338 C 0.47097 0.48915 0.49728 0.0
N339 N 0.40722 0.4974 0.52762 0.0
C340 C 0.37668 0.4923 0.61385 0.0
C341 C 0.36993 0.49087 0.56177 0.0
C342 C 0.38521 0.49354 0.51981 0.0
C343 C 0.39946 0.49537 0.62196 0.0
C344 C 0.41451 0.49754 0.57834 0.0
N345 N 0.44408 0.51677 0.40557 0.0
C346 C 0.47159 0.51076 0.33631 0.0
C347 C 0.47472 0.53282 0.33071 0.0
C348 C 0.46109 0.54655 0.36028 0.0
C349 C 0.44597 0.53827 0.39722 0.0
C350 C 0.45606 0.50301 0.37427 0.0
H351 H 0.43655 0.54941 0.42075 0.0
H352 H 0.45435 0.48597 0.37977 0.0
H353 H 0.37863 0.49365 0.48091 0.0
H354 H 0.43185 0.50018 0.58561 0.0
C355 C 0.41237 0.55242 0.51551 0.0
C356 C 0.48029 0.51039 0.50464 0.0
C357 C 0.38351 0.51059 0.37463 0.0
C358 C 0.431 0.45565 0.45301 0.0
H359 H 0.48514 0.54994 0.56117 0.0
H360 H 0.44712 0.57201 0.57225 0.0
H361 H 0.37361 0.57251 0.47058 0.0
H362 H 0.35941 0.55063 0.39019 0.0
H363 H 0.37629 0.46853 0.3346 0.0
H364 H 0.40056 0.43802 0.38106 0.0
H365 H 0.47197 0.43727 0.48962 0.0
H366 H 0.50002 0.46793 0.5126 0.0
H367 H 0.35257 0.48884 0.55306 0.0
H368 H 0.40557 0.49634 0.66158 0.0
H369 H 0.48163 0.49968 0.31338 0.0
H370 H 0.4625 0.56373 0.3559 0.0
C371 C 0.03831 0.37953 0.41499 0.0
C372 C 0.05896 0.3855 0.39434 0.0
C373 C 0.07447 0.37515 0.42442 0.0
C374 C 0.06242 0.36356 0.46158 0.0
N375 N 0.04016 0.36542 0.45614 0.0
Co376 Co 0.01639 0.3533 0.50485 0.0
N377 N 0.03898 0.3405 0.55374 0.0
C378 C 0.06134 0.34217 0.54892 0.0
C379 C 0.07262 0.33049 0.58639 0.0
C380 C 0.05656 0.32029 0.61617 0.0
C381 C 0.03632 0.3263 0.59493 0.0
N382 N 0.99267 0.34126 0.55413 0.0
C383 C 0.99437 0.32723 0.5958 0.0
C384 C 0.97359 0.32177 0.61673 0.0
C385 C 0.95824 0.33239 0.58686 0.0
C386 C 0.9704 0.34364 0.54936 0.0
N387 N 0.99372 0.3657 0.45597 0.0
C388 C 0.97139 0.36382 0.46043 0.0
C389 C 0.96013 0.3751 0.42222 0.0
C390 C 0.97623 0.38522 0.39239 0.0
C391 C 0.99641 0.37953 0.41443 0.0
N392 N 0.01703 0.32627 0.46449 0.0
C393 C 0.01765 0.29113 0.39572 0.0
C394 C 0.99769 0.29911 0.41802 0.0
C395 C 0.99776 0.31647 0.4518 0.0
C396 C 0.03738 0.30044 0.41119 0.0
C397 C 0.03671 0.31761 0.44564 0.0
N398 N 0.01576 0.38104 0.54278 0.0
C399 C 0.9955 0.41424 0.55856 0.0
C400 C 0.01526 0.42578 0.56017 0.0
C401 C 0.03522 0.41383 0.55893 0.0
C402 C 0.03506 0.39167 0.55124 0.0
C403 C 0.99613 0.39212 0.55056 0.0
H404 H 0.05084 0.38366 0.5494 0.0
H405 H 0.98047 0.3845 0.54814 0.0
H406 H 0.98193 0.32188 0.46656 0.0
H407 H 0.05233 0.32389 0.45563 0.0
C408 C 0.07129 0.35282 0.50543 0.0
C409 C 0.01744 0.38907 0.39764 0.0
C410 C 0.01514 0.31732 0.61382 0.0
C411 C 0.96147 0.35385 0.50486 0.0
H412 H 0.06243 0.39687 0.36239 0.0
H413 H 0.09235 0.37681 0.42138 0.0
H414 H 0.09046 0.32877 0.59006 0.0
H415 H 0.05942 0.30914 0.64872 0.0
H416 H 0.96978 0.31051 0.64866 0.0
H417 H 0.94033 0.331 0.59006 0.0
H418 H 0.9423 0.37677 0.41837 0.0
H419 H 0.9734 0.39631 0.35967 0.0
H420 H 0.98191 0.29216 0.40929 0.0
H421 H 0.05339 0.29504 0.3956 0.0
H422 H 0.97947 0.42227 0.56214 0.0
H423 H 0.0511 0.42158 0.56117 0.0
C424 C 0.35567 0.03626 0.03114 0.0
C425 C 0.36375 0.05496 0.05085 0.0
C426 C 0.34669 0.06982 0.04863 0.0
C427 C 0.32918 0.05955 0.02733 0.0
N428 N 0.33419 0.03911 0.01668 0.0
Co429 Co 0.31497 0.01928 0.9796 0.0
N430 N 0.29689 0.04297 0.94828 0.0
C431 C 0.29624 0.06317 0.96512 0.0
C432 C 0.28179 0.07612 0.93745 0.0
C433 C 0.27249 0.06317 0.90156 0.0
C434 C 0.28174 0.04292 0.90944 0.0
N435 N 0.29579 0.99905 0.94366 0.0
C436 C 0.28051 1.00254 0.90579 0.0
C437 C 0.26991 0.98371 0.89484 0.0
C438 C 0.27862 0.96808 0.92754 0.0
C439 C 0.29402 0.97813 0.95669 0.0
N440 N 0.33359 0.99595 0.01012 0.0
C441 C 0.32794 0.97537 0.01607 0.0
C442 C 0.34516 0.96276 0.03454 0.0
C443 C 0.36268 0.97632 0.03995 0.0
C444 C 0.35519 0.99647 0.02428 0.0
N445 N 0.29416 0.01787 0.04128 0.0
C446 C 0.26296 0.01301 0.1263 0.0
C447 C 0.28603 0.01118 0.1343 0.0
C448 C 0.30132 0.01384 0.09143 0.0
C449 C 0.25621 0.01806 0.07491 0.0
C450 C 0.27181 0.02008 0.03348 0.0
N451 N 0.33546 0.02045 0.91848 0.0
C452 C 0.3598 1.00117 0.85941 0.0
C453 C 0.37205 0.01961 0.84847 0.0
C454 C 0.36466 0.03886 0.87001 0.0
C455 C 0.34592 0.03902 0.90401 0.0
C456 C 0.34166 1.00189 0.89467 0.0
H457 H 0.34074 0.05393 0.92111 0.0
H458 H 0.33363 0.98711 0.90527 0.0
H459 H 0.3189 0.01224 0.09863 0.0
H460 H 0.26548 0.02314 0.99481 0.0
C461 C 0.31102 0.06974 1.00317 0.0
C462 C 0.36846 0.01603 0.02546 0.0
C463 C 0.27369 0.02367 0.8842 0.0
C464 C 0.30892 0.9681 0.99167 0.0
H465 H 0.38036 0.05801 0.06356 0.0
H466 H 0.34767 0.08661 0.05708 0.0
H467 H 0.27854 0.093 0.94236 0.0
H468 H 0.25986 0.06795 0.87387 0.0
H469 H 0.25681 0.98159 0.86714 0.0
H470 H 0.27442 0.95135 0.92928 0.0
H471 H 0.34548 0.94557 0.03994 0.0
H472 H 0.37914 0.9719 0.05305 0.0
H473 H 0.29231 1.0073 0.17303 0.0
H474 H 0.23883 0.02049 0.06611 0.0
H475 H 0.36509 0.98595 0.84359 0.0
H476 H 0.37365 0.05347 0.86186 0.0
C477 C 0.48668 0.43912 0.97292 0.0
C478 C 0.46714 0.45061 0.98254 0.0
C479 C 0.45001 0.43654 0.97823 0.0
C480 C 0.45999 0.41729 0.96622 0.0
N481 N 0.48228 0.41845 0.96314 0.0
Co482 Co 0.50312 0.39496 0.94361 0.0
N483 N 0.47959 0.37907 0.90895 0.0
C484 C 0.45755 0.38228 0.91644 0.0
C485 C 0.44515 0.36869 0.88801 0.0
C486 C 0.46036 0.35602 0.86148 0.0
C487 C 0.4813 0.36257 0.87524 0.0
N488 N 0.52409 0.37134 0.92533 0.0
C489 C 0.52207 0.35523 0.89112 0.0
C490 C 0.54059 0.34171 0.89256 0.0
C491 C 0.55443 0.34955 0.92937 0.0
C492 C 0.54369 0.36739 0.94844 0.0
N493 N 0.52656 0.41134 0.97708 0.0
C494 C 0.54603 0.4034 0.99418 0.0
C495 C 0.55934 0.41903 0.01277 0.0
C496 C 0.54743 0.43787 0.00665 0.0
C497 C 0.52749 0.43269 0.98453 0.0
N498 N 0.49623 0.37982 0.01114 0.0
C499 C 0.49183 0.35637 0.10705 0.0
C500 C 0.49575 0.37839 0.10653 0.0
C501 C 0.49752 0.38989 0.05821 0.0
C502 C 0.4894 0.34657 0.05869 0.0
C503 C 0.49185 0.35844 0.01149 0.0
N504 N 0.51036 0.40983 0.87694 0.0
C505 C 0.53873 0.42337 0.81743 0.0
C506 C 0.52303 0.43612 0.79131 0.0
C507 C 0.50062 0.43487 0.80727 0.0
C508 C 0.49455 0.42119 0.84972 0.0
C509 C 0.53212 0.41052 0.8602 0.0
H510 H 0.47724 0.42044 0.86185 0.0
H511 H 0.54488 0.40192 0.88122 0.0
H512 H 0.50056 0.40681 0.05888 0.0
H513 H 0.49094 0.35 0.97524 0.0
C514 C 0.44937 0.39982 0.94494 0.0
C515 C 0.50918 0.44797 0.9736 0.0
C516 C 0.50219 0.35131 0.86031 0.0
C517 C 0.55284 0.38256 0.98121 0.0
H518 H 0.46543 0.46743 0.9906 0.0
H519 H 0.43238 0.44032 0.97993 0.0
H520 H 0.42721 0.3683 0.88591 0.0
H521 H 0.45648 0.34315 0.83586 0.0
H522 H 0.54365 0.32752 0.86986 0.0
H523 H 0.57067 0.34333 0.93975 0.0
H524 H 0.57619 0.41718 0.0263 0.0
H525 H 0.55281 0.45359 0.01684 0.0
H526 H 0.49754 0.38663 0.14314 0.0
H527 H 0.48654 0.32957 0.05718 0.0
H528 H 0.55627 0.42414 0.80649 0.0
H529 H 0.48807 0.44454 0.78767 0.0
C530 C 0.16353 0.48948 0.03435 0.0
C531 C 0.15678 0.47194 0.06507 0.0
C532 C 0.17348 0.45667 0.06063 0.0
C533 C 0.18989 0.46599 0.0294 0.0
N534 N 0.18454 0.48612 0.01508 0.0
Co535 Co 0.20431 0.50612 0.97601 0.0
N536 N 0.22126 0.48268 0.942 0.0
C537 C 0.22166 0.46225 0.96008 0.0
C538 C 0.23581 0.44953 0.93078 0.0
C539 C 0.24515 0.46288 0.89267 0.0
C540 C 0.23622 0.48317 0.9008 0.0
N541 N 0.22416 0.52663 0.93813 0.0
C542 C 0.23912 0.52365 0.89776 0.0
C543 C 0.25025 0.54248 0.88553 0.0
C544 C 0.24242 0.55739 0.92054 0.0
C545 C 0.22687 0.54701 0.95206 0.0
N546 N 0.18667 0.52906 0.00986 0.0
C547 C 0.19367 0.54882 0.01834 0.0
C548 C 0.17755 0.561 0.04348 0.0
C549 C 0.15933 0.548 0.05022 0.0
C550 C 0.16509 0.52875 0.02728 0.0
N551 N 0.22538 0.50515 0.03478 0.0
C552 C 0.25689 0.50717 0.11523 0.0
C553 C 0.23388 0.50817 0.12715 0.0
C554 C 0.21842 0.5072 0.08639 0.0
C555 C 0.26352 0.50437 0.06246 0.0
C556 C 0.24772 0.50338 0.02339 0.0
N557 N 0.18365 0.50743 0.91794 0.0
C558 C 0.15987 0.52974 0.86485 0.0
C559 C 0.14606 0.51248 0.85654 0.0
C560 C 0.15249 0.4922 0.87581 0.0
C561 C 0.17176 0.48993 0.90543 0.0
C562 C 0.17845 0.52692 0.89574 0.0
H563 H 0.17611 0.47433 0.92147 0.0
H564 H 0.18751 0.54092 0.90509 0.0
H565 H 0.20087 0.50848 0.09641 0.0
H566 H 0.25388 0.50156 0.98357 0.0
C567 C 0.20759 0.45553 1.00268 0.0
C568 C 0.15078 0.50969 0.02537 0.0
C569 C 0.24508 0.50279 0.87483 0.0
C570 C 0.21285 0.55631 0.99108 0.0
H571 H 0.14146 0.47024 0.08806 0.0
H572 H 0.17315 0.44042 0.07623 0.0
H573 H 0.23911 0.43261 0.9366 0.0
H574 H 0.25788 0.45837 0.86385 0.0
H575 H 0.26314 0.54503 0.85548 0.0
H576 H 0.24734 0.57388 0.92236 0.0
H577 H 0.17842 0.57767 0.05317 0.0
H578 H 0.14363 0.55228 0.06932 0.0
H579 H 0.22786 0.51027 0.16737 0.0
H580 H 0.28097 0.50295 0.05106 0.0
H581 H 0.15541 0.54573 0.85111 0.0
H582 H 0.14231 0.47844 0.86977 0.0
C583 C 0.03001 0.09837 0.98208 0.0
C584 C 0.04986 0.08719 0.98901 0.0
C585 C 0.06664 0.10135 0.97753 0.0
C586 C 0.05616 0.12033 0.96409 0.0
N587 N 0.03388 0.11891 0.96696 0.0
Co588 Co 0.01228 0.14179 0.94743 0.0
N589 N 0.03479 0.15723 0.90303 0.0
C590 C 0.05697 0.15427 0.90526 0.0
C591 C 0.06855 0.16747 0.87062 0.0
C592 C 0.05267 0.17966 0.84555 0.0
C593 C 0.03217 0.17325 0.86641 0.0
N594 N 0.99064 0.1649 0.92948 0.0
C595 C 0.9918 0.1807 0.89183 0.0
C596 C 0.97324 0.19413 0.89536 0.0
C597 C 0.96028 0.18657 0.93709 0.0
C598 C 0.97155 0.16899 0.95683 0.0
N599 N 0.98991 0.12572 0.99049 0.0
C600 C 0.97067 0.13359 0.01066 0.0
C601 C 0.95793 0.11794 0.03508 0.0
C602 C 0.96995 0.09917 0.02943 0.0
C603 C 0.98937 0.10442 1.00174 0.0
N604 N 0.02029 0.15816 0.00937 0.0
C605 C 0.02322 0.18417 0.0981 0.0
C606 C 0.02077 0.16192 0.10408 0.0
C607 C 0.01955 0.14921 0.05928 0.0
C608 C 0.02584 0.19264 0.04656 0.0
C609 C 0.02418 0.17955 1.00323 0.0
N610 N 1.00365 0.12574 0.88637 0.0
C611 C 0.97378 0.11135 0.83851 0.0
C612 C 0.98854 0.09756 0.81223 0.0
C613 C 0.0113 0.09876 0.82191 0.0
C614 C 0.0186 0.11338 0.85846 0.0
C615 C 0.98157 0.12509 0.87544 0.0
H616 H 0.03615 0.11403 0.86584 0.0
H617 H 0.9694 0.13431 0.8972 0.0
H618 H 0.017 0.13227 0.06506 0.0
H619 H 0.02503 0.18714 0.9647 0.0
C620 C 0.06602 0.13741 0.93581 0.0
C621 C 1.00768 0.08932 0.98913 0.0
C622 C 0.011 0.1845 0.85552 0.0
C623 C 0.9633 0.15417 0.99506 0.0
H624 H 0.05205 0.07047 0.99961 0.0
H625 H 0.0843 0.09774 0.97521 0.0
H626 H 0.08639 0.16797 0.86377 0.0
H627 H 0.05584 0.19224 0.81632 0.0
H628 H 0.9696 0.20809 0.87083 0.0
H629 H 0.94427 0.19283 0.95047 0.0
H630 H 0.9413 0.11969 0.05208 0.0
H631 H 0.96499 0.08345 0.04353 0.0
H632 H 0.01884 0.15444 0.1429 0.0
H633 H 0.02861 0.20951 0.03933 0.0
H634 H 0.95601 0.11069 0.83281 0.0
H635 H 0.0232 0.0883 0.8022 0.0
C636 C 0.85789 0.98827 0.49947 0.0
C637 C 0.86771 0.96908 0.48462 0.0
C638 C 0.85166 0.95379 0.49141 0.0
C639 C 0.83298 0.96434 0.51035 0.0
N640 N 0.83632 0.98533 0.51511 0.0
Co641 Co 0.81506 1.0061 0.54704 0.0
N642 N 0.79849 0.98338 0.58635 0.0
C643 C 0.79942 0.96249 0.5752 0.0
C644 C 0.78561 0.95041 0.60754 0.0
C645 C 0.7751 0.96464 0.64051 0.0
C646 C 0.78311 0.98474 0.62649 0.0
N647 N 0.79382 0.02722 0.57781 0.0
C648 C 0.77849 0.02502 0.61789 0.0
C649 C 0.76654 0.04397 0.62456 0.0
C650 C 0.77433 0.05821 0.58652 0.0
C651 C 0.79065 0.04732 0.55882 0.0
N652 N 0.83235 0.02846 0.50858 0.0
C653 C 0.82531 0.04843 0.49689 0.0
C654 C 0.8421 0.06076 0.47489 0.0
C655 C 0.86077 0.04769 0.47341 0.0
C656 C 0.85435 0.0281 0.49476 0.0
N657 N 0.79489 1.00371 0.48714 0.0
C658 C 0.76404 1.00382 0.4048 0.0
C659 C 0.78704 1.00578 0.39384 0.0
C660 C 0.8022 1.00553 0.43553 0.0
C661 C 0.75713 1.00161 0.45782 0.0
C662 C 0.77257 1.00157 0.49777 0.0
N663 N 0.83465 1.00887 0.60659 0.0
C664 C 0.85561 0.03223 0.65884 0.0
C665 C 0.86906 0.01512 0.67609 0.0
C666 C 0.86392 0.99451 0.66068 0.0
C667 C 0.8463 0.99168 0.62664 0.0
C668 C 0.83865 0.0288 0.62419 0.0
H669 H 0.8429 0.97576 0.61427 0.0
H670 H 0.82976 0.04257 0.60904 0.0
H671 H 0.81975 1.00713 0.42617 0.0
H672 H 0.76609 1.00036 0.5376 0.0
C673 C 0.81516 0.95467 0.53818 0.0
C674 C 0.86906 1.00909 0.49972 0.0
C675 C 0.77338 1.00481 0.64662 0.0
C676 C 0.80534 0.05615 0.52013 0.0
H677 H 0.88478 0.9661 0.47222 0.0
H678 H 0.85402 0.93673 0.48763 0.0
H679 H 0.78355 0.93329 0.60756 0.0
H680 H 0.76243 0.96074 0.67023 0.0
H681 H 0.7533 0.04709 0.65327 0.0
H682 H 0.76906 0.07468 0.58063 0.0
H683 H 0.84134 0.07765 0.46489 0.0
H684 H 0.87727 0.05213 0.45936 0.0
H685 H 0.79331 1.00741 0.35349 0.0
H686 H 0.73965 1.00052 0.46894 0.0
H687 H 0.85912 0.04849 0.66899 0.0
H688 H 0.8738 0.98083 0.67355 0.0
C689 C 0.53574 0.93854 0.52572 0.0
C690 C 0.5557 0.94884 0.51596 0.0
C691 C 0.57229 0.93382 0.52418 0.0
C692 C 0.56155 0.91521 0.53828 0.0
N693 N 0.53932 0.91767 0.53874 0.0
Co694 Co 0.5174 0.89566 0.55994 0.0
N695 N 0.53952 0.87909 0.60151 0.0
C696 C 0.56175 0.88096 0.59608 0.0
C697 C 0.57313 0.86693 0.62836 0.0
C698 C 0.55706 0.85533 0.6552 0.0
C699 C 0.53662 0.86297 0.63791 0.0
N700 N 0.49537 0.87348 0.5799 0.0
C701 C 0.49603 0.85765 0.61753 0.0
C702 C 0.47673 0.84577 0.61735 0.0
C703 C 0.46409 0.85404 0.57718 0.0
C704 C 0.47613 0.87062 0.55527 0.0
N705 N 0.49551 0.91302 0.51946 0.0
C706 C 0.47615 0.90612 0.50171 0.0
C707 C 0.4634 0.92252 0.4808 0.0
C708 C 0.47548 0.94076 0.48621 0.0
C709 C 0.49515 0.93451 0.50984 0.0
N710 N 0.52552 0.87911 0.49669 0.0
C711 C 0.53037 0.85317 0.40715 0.0
C712 C 0.52725 0.87547 0.40179 0.0
C713 C 0.52514 0.88813 0.44689 0.0
C714 C 0.53233 0.84462 0.45859 0.0
C715 C 0.52955 0.85762 0.50222 0.0
N716 N 0.50875 0.91185 0.62228 0.0
C717 C 0.47898 0.93024 0.66772 0.0
C718 C 0.49416 0.94357 0.69035 0.0
C719 C 0.51694 0.93933 0.68311 0.0
C720 C 0.52395 0.92311 0.64899 0.0
C721 C 0.48658 0.91445 0.6341 0.0
H722 H 0.54155 0.92074 0.64125 0.0
H723 H 0.47429 0.90563 0.61432 0.0
H724 H 0.5224 0.90513 0.44149 0.0
H725 H 0.52993 0.8499 0.54057 0.0
C726 C 0.57112 0.8975 0.5646 0.0
C727 C 0.51361 0.94877 0.52222 0.0
C728 C 0.51526 0.8525 0.65098 0.0
C729 C 0.46835 0.88595 0.51827 0.0
H730 H 0.55798 0.96553 0.50546 0.0
H731 H 0.59001 0.9366 0.52392 0.0
H732 H 0.59096 0.8654 0.6323 0.0
H733 H 0.56013 0.84225 0.68291 0.0
H734 H 0.47222 0.83244 0.64325 0.0
H735 H 0.44771 0.84903 0.56658 0.0
H736 H 0.44655 0.92164 0.46718 0.0
H737 H 0.46998 0.95673 0.47535 0.0
H738 H 0.52568 0.88312 0.36326 0.0
H739 H 0.53565 0.82779 0.46576 0.0
H740 H 0.46122 0.93299 0.6731 0.0
H741 H 0.5291 0.94931 0.70063 0.0
C742 C 0.66251 0.5413 0.46933 0.0
C743 C 0.65304 0.56025 0.45065 0.0
C744 C 0.66874 0.57574 0.45558 0.0
C745 C 0.68694 0.5654 0.47667 0.0
N746 N 0.68366 0.5444 0.4845 0.0
Co747 Co 0.70474 0.52376 0.51748 0.0
N748 N 0.72059 0.54657 0.55327 0.0
C749 C 0.71945 0.5675 0.53983 0.0
C750 C 0.73281 0.57968 0.56958 0.0
C751 C 0.74329 0.56549 0.60319 0.0
C752 C 0.73573 0.54531 0.59213 0.0
N753 N 0.72587 0.50282 0.54956 0.0
C754 C 0.74091 0.50511 0.58793 0.0
C755 C 0.75294 0.48624 0.59603 0.0
C756 C 0.74557 0.47197 0.56059 0.0
C757 C 0.72941 0.48278 0.53297 0.0
N758 N 0.68807 0.50134 0.48222 0.0
C759 C 0.6955 0.48136 0.47352 0.0
C760 C 0.67912 0.46861 0.45566 0.0
C761 C 0.66027 0.48132 0.45351 0.0
C762 C 0.66616 0.50142 0.46949 0.0
N763 N 0.72556 0.52659 0.45596 0.0
C764 C 0.75709 0.52668 0.37099 0.0
C765 C 0.73421 0.52465 0.36227 0.0
C766 C 0.71871 0.52481 0.40521 0.0
C767 C 0.76356 0.529 0.42309 0.0
C768 C 0.74776 0.52892 0.46443 0.0
N769 N 0.68432 0.52052 0.57832 0.0
C770 C 0.65936 0.4963 0.62311 0.0
C771 C 0.64462 0.51318 0.63371 0.0
C772 C 0.6516 0.53412 0.62355 0.0
C773 C 0.6718 0.53747 0.59586 0.0
C774 C 0.67931 0.50033 0.59603 0.0
H775 H 0.67612 0.55358 0.58405 0.0
H776 H 0.68933 0.48681 0.58431 0.0
H777 H 0.70126 0.52312 0.39753 0.0
H778 H 0.75386 0.53016 0.50358 0.0
C779 C 0.70419 0.57523 0.5026 0.0
C780 C 0.65119 0.52056 0.47202 0.0
C781 C 0.74581 0.52534 0.61343 0.0
C782 C 0.71521 0.47392 0.49663 0.0
H783 H 0.63636 0.56269 0.43646 0.0
H784 H 0.66645 0.59274 0.44856 0.0
H785 H 0.73468 0.59683 0.56729 0.0
H786 H 0.75571 0.56947 0.63121 0.0
H787 H 0.766 0.48321 0.62389 0.0
H788 H 0.75104 0.45555 0.5563 0.0
H789 H 0.68015 0.45158 0.44957 0.0
H790 H 0.64408 0.47584 0.4434 0.0
H791 H 0.72829 0.52298 0.32268 0.0
H792 H 0.78095 0.53022 0.43244 0.0
H793 H 0.65466 0.47992 0.63169 0.0
H794 H 0.64068 0.54757 0.6322 0.0
C795 C 0.98697 0.59925 0.56318 0.0
C796 C 0.96718 0.58872 0.55634 0.0
C797 C 0.95034 0.60371 0.56163 0.0
C798 C 0.96071 0.62249 0.57167 0.0
N799 N 0.98292 0.62014 0.57306 0.0
Co800 Co 1.00398 0.64296 0.58795 0.0
N801 N 0.98066 0.66016 0.62497 0.0
C802 C 0.9588 0.65886 0.61575 0.0
C803 C 0.9466 0.67553 0.63597 0.0
C804 C 0.96176 0.68809 0.65929 0.0
C805 C 0.98247 0.6779 0.65437 0.0
N806 N 0.02509 0.66607 0.60062 0.0
C807 C 0.02238 0.68384 0.6299 0.0
C808 C 0.03747 0.69924 0.61205 0.0
C809 C 0.05111 0.69005 0.57443 0.0
C810 C 0.04301 0.66998 0.5689 0.0
N811 N 0.02713 0.62536 0.55208 0.0
C812 C 0.04617 0.63262 0.52997 0.0
C813 C 0.05924 0.61649 0.50926 0.0
C814 C 0.04752 0.59802 0.51909 0.0
C815 C 0.02791 0.60394 0.54527 0.0
N816 N 0.99692 0.65768 0.52033 0.0
C817 C 0.99569 0.68136 0.42426 0.0
C818 C 0.99841 0.65901 0.42479 0.0
C819 C 0.99876 0.64745 0.47326 0.0
C820 C 0.9917 0.69113 0.47266 0.0
C821 C 0.99254 0.67919 0.51967 0.0
N822 N 0.01152 0.62852 0.65437 0.0
C823 C 0.04054 0.61363 0.70762 0.0
C824 C 0.02538 0.60013 0.73405 0.0
C825 C 1.00279 0.6022 0.72253 0.0
C826 C 0.99611 0.61697 0.68328 0.0
C827 C 0.03335 0.62753 0.66778 0.0
H828 H 0.97871 0.61811 0.67409 0.0
H829 H 0.04579 0.63633 0.64532 0.0
H830 H 1.00157 0.63039 0.4727 0.0
H831 H 0.99079 0.68787 0.55546 0.0
C832 C 0.95041 0.64126 0.58993 0.0
C833 C 1.00938 0.58945 0.55849 0.0
C834 C 1.00391 0.68728 0.66931 0.0
C835 C 0.05218 0.65395 0.53653 0.0
H836 H 0.96505 0.57199 0.54879 0.0
H837 H 0.93264 0.60096 0.56098 0.0
H838 H 0.92892 0.67859 0.63274 0.0
H839 H 0.95798 0.70369 0.67468 0.0
H840 H 0.03795 0.71582 0.62246 0.0
H841 H 0.06486 0.69739 0.5527 0.0
H842 H 0.07561 0.61785 0.49071 0.0
H843 H 0.05261 0.58211 0.50765 0.0
H844 H 1.00126 0.65063 0.38837 0.0
H845 H 0.98864 0.70817 0.47462 0.0
H846 H 0.05819 0.61235 0.71487 0.0
H847 H 0.99059 0.59205 0.7424 0.0
H848 H 0.49665 0.14567 0.31197 0.0
H849 H 0.50511 0.11211 0.4606 0.0
H850 H 0.50231 0.11228 0.26546 0.0
H851 H 0.51022 0.07835 0.41489 0.0
H852 H 0.55663 0.03741 0.30057 0.0
H853 H 0.53987 0.06364 0.35978 0.0
H854 H 0.48871 0.07746 0.24684 0.0
H855 H 0.50603 0.05161 0.18728 0.0
C856 C 0.49924 0.13095 0.33455 0.0
C857 C 0.50051 0.13121 0.38952 0.0
C858 C 0.5023 0.1118 0.30819 0.0
C859 C 0.50667 0.09256 0.33646 0.0
C860 C 0.50706 0.09285 0.3919 0.0
C861 C 0.50405 0.11206 0.41812 0.0
C862 C 0.54124 0.0454 0.28969 0.0
C863 C 0.53253 0.04259 0.23973 0.0
C864 C 0.53165 0.0605 0.32342 0.0
C865 C 0.51321 0.073 0.3075 0.0
C866 C 0.50319 0.06845 0.25972 0.0
C867 C 0.51287 0.05347 0.22596 0.0
H868 H 0.48363 0.52581 0.22554 0.0
H869 H 0.50505 0.5614 0.35753 0.0
H870 H 0.5054 0.54899 0.1653 0.0
H871 H 0.52484 0.58554 0.29875 0.0
H872 H 0.55331 0.6336 0.19577 0.0
H873 H 0.54934 0.59926 0.24122 0.0
H874 H 0.49989 0.58206 0.12944 0.0
H875 H 0.50655 0.61519 0.08037 0.0
C876 C 0.4934 0.53832 0.24164 0.0
C877 C 0.49222 0.54229 0.29581 0.0
C878 C 0.50559 0.55189 0.20718 0.0
C879 C 0.51635 0.56985 0.22641 0.0
C880 C 0.517 0.57211 0.28148 0.0
C881 C 0.50534 0.55834 0.31562 0.0
C882 C 0.54244 0.62198 0.17966 0.0
C883 C 0.53047 0.62687 0.13421 0.0
C884 C 0.53968 0.6024 0.20642 0.0
C885 C 0.52377 0.5878 0.19034 0.0
C886 C 0.5125 0.59248 0.14329 0.0
C887 C 0.51602 0.61168 0.11534 0.0
H888 H 0.95992 0.49761 0.24672 0.0
H889 H 0.01511 0.48334 0.14063 0.0
H890 H 0.97562 0.47358 0.31379 0.0
H891 H 0.03149 0.45987 0.20817 0.0
H892 H 0.02544 0.39324 0.2921 0.0
H893 H 0.01993 0.42511 0.23624 0.0
H894 H 1.00317 0.46157 0.37478 0.0
H895 H 1.00817 0.42924 0.43017 0.0
C896 C 0.97601 0.49011 0.23893 0.0
C897 C 0.9864 0.49226 0.18892 0.0
C898 C 0.98503 0.47628 0.27722 0.0
C899 C 1.00464 0.46443 0.26602 0.0
C900 C 0.01612 0.46836 0.21765 0.0
C901 C 1.00696 0.482 0.17925 0.0
C902 C 0.02103 0.40822 0.31036 0.0
C903 C 0.01724 0.409 0.36497 0.0
C904 C 0.01801 0.42654 0.27861 0.0
C905 C 0.01114 0.44601 0.30096 0.0
C906 C 1.00827 0.44685 0.3562 0.0
C907 C 0.01122 0.42845 0.38791 0.0
H908 H 1.0089 0.92589 0.08112 0.0
H909 H 0.99723 0.8873 0.22209 0.0
H910 H 0.01405 0.95731 0.13475 0.0
H911 H 1.00295 0.91824 0.2762 0.0
H912 H 1.00711 0.97534 0.36882 0.0
H913 H 0.99042 0.95235 0.30499 0.0
H914 H 0.04269 0.9687 0.19099 0.0
H915 H 0.05869 0.99225 0.25446 0.0
C916 C 1.00711 0.92435 0.12369 0.0
C917 C 1.00263 0.90444 0.14792 0.0
C918 C 1.01017 0.94221 0.1544 0.0
C919 C 1.00893 0.94036 0.20988 0.0
C920 C 1.00359 0.92043 0.23367 0.0
C921 C 1.00046 0.90265 0.20292 0.0
C922 C 0.01442 0.97458 0.32931 0.0
C923 C 0.03409 0.98546 0.31621 0.0
C924 C 1.00507 0.96126 0.29299 0.0
C925 C 0.01548 0.95827 0.24324 0.0
C926 C 0.03412 0.97067 0.22874 0.0
C927 C 0.04332 0.9842 0.26498 0.0
H928 H 0.37936 1.00367 0.75102 0.0
H929 H 0.413 0.03056 0.88107 0.0
H930 H 0.41506 0.99249 0.71205 0.0
H931 H 0.44897 0.0186 0.84299 0.0
H932 H 0.47862 0.97849 0.63913 0.0
H933 H 0.45299 1.00527 0.6752 0.0
H934 H 0.46213 0.97827 0.83177 0.0
H935 H 0.48817 0.95154 0.79526 0.0
C936 C 0.3945 1.00769 0.77041 0.0
C937 C 0.39352 0.01779 0.81907 0.0
C938 C 0.41494 1.00135 0.74818 0.0
C939 C 0.43477 1.00463 0.77469 0.0
C940 C 0.43392 0.01589 0.82187 0.0
C941 C 0.41341 0.02274 0.84348 0.0
C942 C 0.47609 0.97906 0.68154 0.0
C943 C 0.48544 0.96319 0.71463 0.0
C944 C 0.46128 0.99423 0.7021 0.0
C945 C 0.45541 0.99365 0.75609 0.0
C946 C 0.46653 0.97915 0.79003 0.0
C947 C 0.48141 0.96388 0.76929 0.0
H948 H 0.61687 0.49211 0.57322 0.0
H949 H 0.61987 0.52303 0.72264 0.0
H950 H 0.57968 0.47973 0.59595 0.0
H951 H 0.58327 0.50887 0.74821 0.0
H952 H 0.51949 0.47955 0.79209 0.0
H953 H 0.54393 0.50422 0.74239 0.0
H954 H 0.57045 0.45131 0.65265 0.0
H955 H 0.54587 0.42726 0.70128 0.0
C956 C 0.60933 0.49645 0.61085 0.0
C957 C 0.62114 0.50834 0.64646 0.0
C958 C 0.5881 0.48922 0.62409 0.0
C959 C 0.57864 0.49278 0.67446 0.0
C960 C 0.58992 0.50592 0.70889 0.0
C961 C 0.61098 0.51384 0.69469 0.0
C962 C 0.52989 0.47353 0.76006 0.0
C963 C 0.53108 0.45157 0.7506 0.0
C964 C 0.54408 0.48757 0.73206 0.0
C965 C 0.55953 0.47976 0.69421 0.0
C966 C 0.55875 0.45809 0.68108 0.0
C967 C 0.54467 0.44417 0.709 0.0
H968 H 0.0527 0.60301 0.81695 0.0
H969 H 0.01891 0.5574 0.72461 0.0
H970 H 0.07784 0.57473 0.8486 0.0
H971 H 0.04476 0.52918 0.75494 0.0
H972 H 0.10551 0.50038 0.89702 0.0
H973 H 0.06948 0.51716 0.87539 0.0
H974 H 0.10097 0.55149 0.74482 0.0
H975 H 0.13683 0.53509 0.76647 0.0
C976 C 0.0501 0.58677 0.80515 0.0
C977 C 0.03421 0.58243 0.76757 0.0
C978 C 0.06448 0.57065 0.8231 0.0
C979 C 0.06325 0.55 0.80354 0.0
C980 C 0.04587 0.54504 0.77053 0.0
C981 C 0.03117 0.56117 0.7532 0.0
C982 C 0.10451 0.51091 0.86261 0.0
C983 C 0.12395 0.51675 0.8339 0.0
C984 C 0.08399 0.52049 0.85047 0.0
C985 C 0.08273 0.53565 0.80896 0.0
C986 C 0.10169 0.5398 0.77706 0.0
C987 C 0.12214 0.53044 0.78941 0.0
H988 H 0.99368 0.05413 0.82198 0.0
H989 H 0.96116 0.10388 0.73018 0.0
H990 H 0.96697 0.02815 0.79159 0.0
H991 H 0.93493 0.07803 0.69936 0.0
H992 H 0.87328 0.04183 0.75797 0.0
H993 H 0.90764 0.05781 0.78531 0.0
H994 H 0.94591 0.0152 0.68624 0.0
H995 H 0.91133 0.99931 0.65742 0.0
C996 C 0.98144 0.0593 0.7937 0.0
C997 C 0.9791 0.08104 0.77926 0.0
C998 C 0.96619 0.04448 0.77646 0.0
C999 C 0.94876 0.05133 0.74416 0.0
C1000 C 0.94815 0.07251 0.7248 0.0
C1001 C 0.96321 0.08724 0.74211 0.0
C1002 C 0.88901 0.03548 0.7429 0.0
C1003 C 0.88959 0.0197 0.70457 0.0
C1004 C 0.90863 0.04461 0.75856 0.0
C1005 C 0.92921 0.03796 0.73677 0.0
C1006 C 0.93012 0.02061 0.703 0.0
C1007 C 0.91037 0.01149 0.68693 0.0
H1008 H 0.68064 0.96862 0.90367 0.0
H1009 H 0.64588 0.01985 0.82208 0.0
H1010 H 0.71118 0.97094 0.83873 0.0
H1011 H 0.67667 0.02244 0.75711 0.0
H1012 H 0.72932 1.00975 0.62481 0.0
H1013 H 0.69709 1.00623 0.6856 0.0
H1014 H 0.74136 0.99353 0.8145 0.0
H1015 H 0.77338 0.99665 0.75305 0.0
C1016 C 0.67947 0.98036 0.87166 0.0
C1017 C 0.66077 0.99413 0.86843 0.0
C1018 C 0.69712 0.98181 0.83449 0.0
C1019 C 0.69675 0.99713 0.79284 0.0
C1020 C 0.67762 1.01034 0.78831 0.0
C1021 C 0.65986 1.00883 0.82554 0.0
C1022 C 0.73204 1.00638 0.6663 0.0
C1023 C 0.75381 1.00372 0.68446 0.0
C1024 C 0.71359 1.00439 0.70123 0.0
C1025 C 0.71643 0.99954 0.75528 0.0
C1026 C 0.73836 0.99694 0.77319 0.0
C1027 C 0.75678 0.99892 0.73818 0.0
H1028 H 0.50924 0.81082 0.62546 0.0
H1029 H 0.52212 0.85023 0.75736 0.0
H1030 H 0.50957 0.77913 0.68334 0.0
H1031 H 0.52395 0.81843 0.81537 0.0
H1032 H 0.50774 0.75959 0.91822 0.0
H1033 H 0.50482 0.79141 0.86068 0.0
H1034 H 0.53132 0.75512 0.72975 0.0
H1035 H 0.53277 0.72321 0.78699 0.0
C1036 C 0.51202 0.81267 0.66711 0.0
C1037 C 0.5151 0.83308 0.68711 0.0
C1038 C 0.51259 0.79441 0.70039 0.0
C1039 C 0.51681 0.7959 0.75464 0.0
C1040 C 0.52018 0.81644 0.77434 0.0
C1041 C 0.51928 0.83474 0.74105 0.0
C1042 C 0.5128 0.7585 0.87699 0.0
C1043 C 0.52076 0.73899 0.85727 0.0
C1044 C 0.51136 0.77681 0.84392 0.0
C1045 C 0.51797 0.77618 0.79008 0.0
C1046 C 0.52574 0.75645 0.77051 0.0
C1047 C 0.52687 0.7381 0.80347 0.0
H1048 H 0.83863 0.55826 0.85751 0.0
H1049 H 0.87362 0.50863 0.77274 0.0
H1050 H 0.80807 0.55688 0.7969 0.0
H1051 H 0.84277 0.50694 0.71211 0.0
H1052 H 0.79002 0.5209 0.5864 0.0
H1053 H 0.82219 0.5237 0.64282 0.0
H1054 H 0.77779 0.53534 0.77644 0.0
H1055 H 0.74583 0.53297 0.71926 0.0
C1056 C 0.83984 0.54703 0.82579 0.0
C1057 C 0.85865 0.53345 0.82046 0.0
C1058 C 0.82215 0.54612 0.79105 0.0
C1059 C 0.82254 0.53154 0.74969 0.0
C1060 C 0.84176 0.5185 0.74309 0.0
C1061 C 0.85956 0.51948 0.77787 0.0
C1062 C 0.78724 0.52395 0.62795 0.0
C1063 C 0.76543 0.52651 0.64861 0.0
C1064 C 0.80568 0.52549 0.66046 0.0
C1065 C 0.80283 0.52977 0.7146 0.0
C1066 C 0.78086 0.53236 0.73498 0.0
C1067 C 0.76245 0.53084 0.70239 0.0
H1068 H 0.9884 0.77791 0.93519 0.0
H1069 H 0.01975 0.81036 0.80147 0.0
H1070 H 0.98905 0.74451 0.88649 0.0
H1071 H 0.02105 0.77698 0.75331 0.0
H1072 H 0.04118 0.70897 0.70727 0.0
H1073 H 0.04063 0.74016 0.7611 0.0
H1074 H 0.97262 0.72792 0.80782 0.0
H1075 H 0.97305 0.69697 0.75253 0.0
C1076 C 0.9955 0.77785 0.89543 0.0
C1077 C 1.00443 0.79666 0.87253 0.0
C1078 C 0.99587 0.75874 0.86751 0.0
C1079 C 1.00538 0.75793 0.81614 0.0
C1080 C 0.01401 0.77687 0.79313 0.0
C1081 C 0.01328 0.79602 0.82068 0.0
C1082 C 0.02539 0.71375 0.72465 0.0
C1083 C 1.0056 0.70277 0.71507 0.0
C1084 C 0.02538 0.7314 0.7576 0.0
C1085 C 1.00604 0.73767 0.7858 0.0
C1086 C 0.98746 0.72444 0.78419 0.0
C1087 C 0.98747 0.70698 0.75042 0.0
H1088 H 0.17964 1.00092 0.63726 0.0
H1089 H 0.14635 0.05036 0.72613 0.0
H1090 H 0.21019 1.00034 0.6979 0.0
H1091 H 0.17742 0.05022 0.78693 0.0
H1092 H 0.22999 0.03144 0.91159 0.0
H1093 H 0.19764 0.03194 0.85479 0.0
H1094 H 0.24125 0.01998 0.7199 0.0
H1095 H 0.27325 0.01888 0.7774 0.0
C1096 C 0.17888 0.01177 0.66984 0.0
C1097 C 0.16057 0.02587 0.67631 0.0
C1098 C 0.19657 0.01155 0.70461 0.0
C1099 C 0.19676 0.02553 0.74715 0.0
C1100 C 0.17801 0.03913 0.75488 0.0
C1101 C 0.16011 0.03924 0.72003 0.0
C1102 C 0.23254 0.02906 0.86966 0.0
C1103 C 0.25412 0.02525 0.84875 0.0
C1104 C 0.21402 0.02942 0.83695 0.0
C1105 C 0.21657 0.0259 0.78237 0.0
C1106 C 0.23836 0.02235 0.76168 0.0
C1107 C 0.25682 0.02192 0.79446 0.0
H1108 H 0.48635 0.26001 0.60631 0.0
H1109 H 0.51474 0.22251 0.73312 0.0
H1110 H 0.48608 0.29169 0.66092 0.0
H1111 H 0.51519 0.25416 0.78758 0.0
H1112 H 0.49361 0.3101 0.89108 0.0
H1113 H 0.4927 0.2785 0.83651 0.0
H1114 H 0.5091 0.31764 0.69829 0.0
H1115 H 0.50944 0.34922 0.75336 0.0
C1116 C 0.49264 0.25862 0.64591 0.0
C1117 C 0.50076 0.23884 0.66526 0.0
C1118 C 0.49266 0.27681 0.67722 0.0
C1119 C 0.50071 0.27574 0.729 0.0
C1120 C 0.50861 0.25575 0.74835 0.0
C1121 C 0.50855 0.23758 0.717 0.0
C1122 C 0.49697 0.31185 0.84898 0.0
C1123 C 0.50159 0.33207 0.8264 0.0
C1124 C 0.49661 0.29372 0.81759 0.0
C1125 C 0.50089 0.29527 0.76258 0.0
C1126 C 0.50542 0.31568 0.74018 0.0
C1127 C 0.50577 0.33382 0.7717 0.0
H1128 H 0.37246 0.51833 0.6996 0.0
H1129 H 0.3414 0.46535 0.62736 0.0
H1130 H 0.34124 0.52069 0.76337 0.0
H1131 H 0.31044 0.46745 0.69115 0.0
H1132 H 0.24617 0.49246 0.77059 0.0
H1133 H 0.27868 0.48915 0.71068 0.0
H1134 H 0.32149 0.50492 0.83752 0.0
H1135 H 0.28878 0.5086 0.89664 0.0
C1136 C 0.35922 0.50688 0.698 0.0
C1137 C 0.35946 0.49175 0.65796 0.0
C1138 C 0.34121 0.50826 0.73455 0.0
C1139 C 0.32295 0.49448 0.73226 0.0
C1140 C 0.32377 0.47875 0.69358 0.0
C1141 C 0.34168 0.47744 0.65707 0.0
C1142 C 0.26256 0.49529 0.78535 0.0
C1143 C 0.26495 0.50104 0.83795 0.0
C1144 C 0.28127 0.49323 0.75125 0.0
C1145 C 0.30294 0.49672 0.76896 0.0
C1146 C 0.3052 0.5024 0.82195 0.0
C1147 C 0.28647 0.50445 0.85597 0.0
H1148 H 0.02832 0.27664 0.59083 0.0
H1149 H 1.00149 0.31432 0.7179 0.0
H1150 H 0.02752 0.24467 0.64864 0.0
H1151 H 0.99988 0.2824 0.77561 0.0
H1152 H 1.00269 0.18745 0.74992 0.0
H1153 H 1.00356 0.21938 0.69175 0.0
H1154 H 0.02162 0.25719 0.82357 0.0
H1155 H 0.02009 0.22528 0.88132 0.0
C1156 C 0.02216 0.278 0.63121 0.0
C1157 C 0.01481 0.29789 0.64979 0.0
C1158 C 0.0215 0.25966 0.66433 0.0
C1159 C 0.01351 0.26072 0.71709 0.0
C1160 C 1.00638 0.28082 0.73562 0.0
C1161 C 1.00712 0.29914 0.70249 0.0
C1162 C 1.00673 0.20266 0.76619 0.0
C1163 C 0.0112 0.20399 0.82 0.0
C1164 C 1.00742 0.22097 0.73289 0.0
C1165 C 0.01267 0.24108 0.75262 0.0
C1166 C 0.01715 0.24221 0.80679 0.0
C1167 C 0.01641 0.22392 0.83997 0.0
H1168 H 0.14233 0.98297 0.31876 0.0
H1169 H 0.17444 0.03249 0.40137 0.0
H1170 H 0.17433 0.98048 0.25774 0.0
H1171 H 0.2055 0.03174 0.33794 0.0
H1172 H 0.26577 0.02113 0.23307 0.0
H1173 H 0.23699 0.01743 0.30185 0.0
H1174 H 0.1915 0.99555 0.18657 0.0
H1175 H 0.22076 0.99693 0.11996 0.0
C1176 C 0.15619 0.99351 0.32336 0.0
C1177 C 0.1556 1.00831 0.3639 0.0
C1178 C 0.17455 0.99232 0.28796 0.0
C1179 C 0.1927 1.00623 0.29146 0.0
C1180 C 0.19223 0.02056 0.33346 0.0
C1181 C 0.17416 0.02129 0.36958 0.0
C1182 C 0.2498 0.01506 0.22257 0.0
C1183 C 0.24576 1.00975 0.17011 0.0
C1184 C 0.23298 0.01328 0.26213 0.0
C1185 C 0.21143 1.00647 0.25045 0.0
C1186 C 0.20769 1.00064 0.19822 0.0
C1187 C 0.22458 1.00193 0.15916 0.0
H1188 H 0.52883 0.26024 0.33886 0.0
H1189 H 0.46256 0.27842 0.39371 0.0
H1190 H 0.52727 0.28807 0.27021 0.0
H1191 H 0.46075 0.30539 0.32269 0.0
H1192 H 0.46002 0.32823 0.14186 0.0
H1193 H 0.46093 0.30398 0.21933 0.0
H1194 H 0.52391 0.32976 0.2612 0.0
H1195 H 0.52276 0.35434 0.18417 0.0
C1196 C 0.51401 0.27024 0.33709 0.0
C1197 C 0.49583 0.2668 0.37262 0.0
C1198 C 0.51311 0.28617 0.29725 0.0
C1199 C 0.49388 0.29891 0.29092 0.0
C1200 C 0.47574 0.29569 0.32627 0.0
C1201 C 0.47677 0.28003 0.36686 0.0
C1202 C 0.4739 0.32891 0.16806 0.0
C1203 C 0.49129 0.34323 0.15704 0.0
C1204 C 0.47439 0.31508 0.21247 0.0
C1205 C 0.49253 0.3149 0.2463 0.0
C1206 C 0.50976 0.32946 0.23573 0.0
C1207 C 0.50903 0.34363 0.19191 0.0
H1208 H 0.38525 0.51006 0.26688 0.0
H1209 H 0.33881 0.51194 0.39923 0.0
H1210 H 0.35431 0.50961 0.2063 0.0
H1211 H 0.30766 0.51212 0.33898 0.0
H1212 H 0.25765 0.48961 0.21656 0.0
H1213 H 0.28766 0.49087 0.27966 0.0
H1214 H 0.32532 0.53104 0.16993 0.0
H1215 H 0.29561 0.52958 0.1072 0.0
C1216 C 0.36836 0.51069 0.28286 0.0
C1217 C 0.36444 0.51145 0.33762 0.0
C1218 C 0.35055 0.51051 0.24821 0.0
C1219 C 0.32826 0.511 0.26737 0.0
C1220 C 0.32446 0.51158 0.32247 0.0
C1221 C 0.3423 0.51173 0.35708 0.0
C1222 C 0.27224 0.49889 0.20618 0.0
C1223 C 0.27421 0.50925 0.15632 0.0
C1224 C 0.28952 0.49963 0.24243 0.0
C1225 C 0.30924 0.51085 0.22996 0.0
C1226 C 0.31079 0.52175 0.18073 0.0
C1227 C 0.29362 0.52096 0.14463 0.0
H1228 H 1.00479 0.22447 0.10211 0.0
H1229 H 0.03851 0.17722 0.19956 0.0
H1230 H 1.0039 0.24901 0.17402 0.0
H1231 H 0.03626 0.20151 0.27343 0.0
H1232 H 0.04926 0.25921 0.37751 0.0
H1233 H 0.05048 0.23319 0.30782 0.0
H1234 H 0.98685 0.25684 0.25448 0.0
H1235 H 0.9864 0.28374 0.32125 0.0
C1236 C 0.01211 0.21923 0.13888 0.0
C1237 C 0.02204 0.19878 0.14425 0.0
C1238 C 0.01121 0.2333 0.18083 0.0
C1239 C 0.01988 0.22741 0.23021 0.0
C1240 C 0.0296 0.20684 0.23601 0.0
C1241 C 0.03065 0.19274 0.19367 0.0
C1242 C 0.03561 0.25908 0.35061 0.0
C1243 C 0.01779 0.27391 0.35537 0.0
C1244 C 0.03616 0.24384 0.31089 0.0
C1245 C 0.01886 0.24282 0.27477 0.0
C1246 C 1.00077 0.25725 0.28054 0.0
C1247 C 1.00032 0.27258 0.3198 0.0
H1248 H 0.68045 0.01681 0.12299 0.0
H1249 H 0.63517 0.01086 0.25717 0.0
H1250 H 0.71214 0.01469 0.18181 0.0
H1251 H 0.6667 1.00873 0.31626 0.0
H1252 H 0.72644 0.97984 0.39984 0.0
H1253 H 0.69629 0.98346 0.33826 0.0
H1254 H 0.7321 0.0328 0.25141 0.0
H1255 H 0.76243 0.02933 0.3139 0.0
C1256 C 0.6773 0.01549 0.16524 0.0
C1257 C 0.65531 0.01436 0.1856 0.0
C1258 C 0.69546 0.01422 0.199 0.0
C1259 C 0.69212 0.01142 0.25399 0.0
C1260 C 0.67003 0.01059 0.27419 0.0
C1261 C 0.65191 0.01202 0.24046 0.0
C1262 C 0.72796 0.99157 0.36783 0.0
C1263 C 0.7469 1.00449 0.3626 0.0
C1264 C 0.71054 0.99369 0.33242 0.0
C1265 C 0.71143 1.0087 0.29016 0.0
C1266 C 0.73077 0.02104 0.2834 0.0
C1267 C 0.74825 0.01899 0.31917 0.0
H1268 H 0.51671 0.8114 0.40372 0.0
H1269 H 0.54478 0.86159 0.30324 0.0
H1270 H 0.51944 0.7871 0.33094 0.0
H1271 H 0.54602 0.83721 0.2292 0.0
H1272 H 0.51607 0.78792 0.10585 0.0
H1273 H 0.51604 0.81457 0.17526 0.0
H1274 H 0.5533 0.77076 0.27426 0.0
H1275 H 0.55378 0.74437 0.20472 0.0
C1276 C 0.52371 0.81736 0.3665 0.0
C1277 C 0.53099 0.83863 0.36052 0.0
C1278 C 0.52505 0.80333 0.32445 0.0
C1279 C 0.53312 0.81013 0.27441 0.0
C1280 C 0.53971 0.83149 0.26737 0.0
C1281 C 0.53885 0.84551 0.30994 0.0
C1282 C 0.52444 0.78409 0.14225 0.0
C1283 C 0.53496 0.76401 0.14968 0.0
C1284 C 0.52451 0.79938 0.18185 0.0
C1285 C 0.53462 0.79476 0.23029 0.0
C1286 C 0.54532 0.77478 0.23745 0.0
C1287 C 0.54569 0.75971 0.19749 0.0
H1288 H 0.79457 0.55085 0.35834 0.0
H1289 H 0.75939 0.50068 0.28458 0.0
H1290 H 0.825 0.54723 0.29377 0.0
H1291 H 0.79 0.49711 0.21935 0.0
H1292 H 0.8415 0.5122 0.0822 0.0
H1293 H 0.80975 0.5146 0.1447 0.0
H1294 H 0.85496 0.52264 0.27175 0.0
H1295 H 0.88656 0.52036 0.20886 0.0
C1296 C 0.7933 0.53897 0.32838 0.0
C1297 C 0.7745 0.5259 0.32732 0.0
C1298 C 0.81088 0.53684 0.2913 0.0
C1299 C 0.81026 0.52162 0.25161 0.0
C1300 C 0.7911 0.50906 0.24917 0.0
C1301 C 0.77346 0.51116 0.28653 0.0
C1302 C 0.84458 0.51405 0.12371 0.0
C1303 C 0.8665 0.51571 0.1409 0.0
C1304 C 0.82639 0.51548 0.15957 0.0
C1305 C 0.82965 0.51891 0.21348 0.0
C1306 C 0.8517 0.52029 0.23055 0.0
C1307 C 0.86986 0.51877 0.1947 0.0
H1308 H 0.03524 0.77769 0.18635 0.0
H1309 H 0.97158 0.75645 0.13476 0.0
H1310 H 0.03511 0.75002 0.25471 0.0
H1311 H 0.97066 0.72975 0.20639 0.0
H1312 H 0.98149 0.67366 0.32347 0.0
H1313 H 0.98469 0.69721 0.24487 0.0
H1314 H 0.01785 0.7437 0.33635 0.0
H1315 H 0.01593 0.71991 0.41278 0.0
C1316 C 0.02123 0.76707 0.18906 0.0
C1317 C 1.00338 0.76961 0.15456 0.0
C1318 C 0.02097 0.75131 0.22925 0.0
C1319 C 1.00268 0.73773 0.23712 0.0
C1320 C 0.98511 0.73977 0.20171 0.0
C1321 C 0.98549 0.75541 0.16093 0.0
C1322 C 0.98975 0.68878 0.32643 0.0
C1323 C 0.99816 0.69492 0.37489 0.0
C1324 C 0.99137 0.70243 0.28147 0.0
C1325 C 1.00152 0.72251 0.28385 0.0
C1326 C 1.01023 0.72834 0.33221 0.0
C1327 C 1.00876 0.71474 0.37667 0.0
H1328 H 0.3971 0.02747 0.10306 0.0
H1329 H 0.39683 1.00091 0.94832 0.0
H1330 H 0.43773 0.02732 0.09983 0.0
H1331 H 0.4376 0.99977 0.94548 0.0
H1332 H 0.51121 0.01857 0.93334 0.0
H1333 H 0.47046 0.02005 0.93598 0.0
H1334 H 0.4704 1.00643 0.104 0.0
H1335 H 0.51107 1.00576 0.10107 0.0
C1336 C 0.40575 0.0218 0.06798 0.0
C1337 C 0.3936 0.01495 0.02511 0.0
C1338 C 0.4292 0.02136 0.06637 0.0
C1339 C 0.44141 0.01375 0.02209 0.0
C1340 C 0.42911 1.00627 0.97985 0.0
C1341 C 0.40564 1.00676 0.98153 0.0
C1342 C 0.50246 0.0164 0.97099 0.0
C1343 C 0.51449 0.01262 0.01724 0.0
C1344 C 0.47897 0.01687 0.97249 0.0
C1345 C 0.46669 0.01344 0.0203 0.0
C1346 C 0.47891 1.00958 0.06647 0.0
C1347 C 0.50235 1.0091 0.06487 0.0
H1348 H 0.52182 0.47327 0.88893 0.0
H1349 H 0.50405 0.47619 0.05415 0.0
H1350 H 0.52502 0.51224 0.88371 0.0
H1351 H 0.50787 0.51505 0.05021 0.0
H1352 H 0.49352 0.58568 0.01758 0.0
H1353 H 0.49128 0.54705 0.0212 0.0
H1354 H 0.54483 0.5429 0.90458 0.0
H1355 H 0.54634 0.58177 0.89907 0.0
C1356 C 0.51883 0.48233 0.92429 0.0
C1357 C 0.51262 0.47171 0.97184 0.0
C1358 C 0.52077 0.50472 0.92154 0.0
C1359 C 0.5166 0.51723 0.96646 0.0
C1360 C 0.5108 0.50633 0.01434 0.0
C1361 C 0.5088 0.48395 0.01691 0.0
C1362 C 0.50467 0.57668 0.99196 0.0
C1363 C 0.52002 0.58729 0.95766 0.0
C1364 C 0.50361 0.55426 0.9947 0.0
C1365 C 0.5179 0.5414 0.96337 0.0
C1366 C 0.5333 0.55198 0.92905 0.0
C1367 C 0.53435 0.57447 0.92631 0.0
H1368 H 0.01148 0.48462 0.94091 0.0
H1369 H 1.00872 0.54731 0.00752 0.0
H1370 H 0.05092 0.48286 0.95309 0.0
H1371 H 0.04824 0.54515 0.02119 0.0
H1372 H 0.12388 0.54477 0.99447 0.0
H1373 H 0.08427 0.54661 0.98119 0.0
H1374 H 0.0803 0.47859 0.00868 0.0
H1375 H 0.11976 0.4765 0.0191 0.0
C1376 C 0.01892 0.49849 0.95635 0.0
C1377 C 1.00617 0.51704 0.96803 0.0
C1378 C 0.04201 0.49719 0.96485 0.0
C1379 C 0.05345 0.51409 0.98707 0.0
C1380 C 0.0406 0.53207 1.00184 0.0
C1381 C 0.01755 0.53338 0.99319 0.0
C1382 C 0.11476 0.53018 1.00023 0.0
C1383 C 0.12577 0.51074 0.01394 0.0
C1384 C 0.09165 0.53127 0.99186 0.0
C1385 C 0.07839 0.51289 0.99559 0.0
C1386 C 0.08946 0.49332 0.00619 0.0
C1387 C 0.11257 0.49222 0.01402 0.0
H1388 H 0.01851 0.05854 0.06369 0.0
H1389 H 0.98943 0.06679 0.91139 0.0
H1390 H 0.01633 0.01977 0.05733 0.0
H1391 H 0.98797 0.02796 0.90311 0.0
H1392 H 0.97352 0.95662 0.91744 0.0
H1393 H 0.97263 0.99515 0.92759 0.0
H1394 H 0.03256 0.99032 0.01738 0.0
H1395 H 0.03263 0.95183 0.01009 0.0
C1396 C 0.01162 0.05196 0.02875 0.0
C1397 C 1.00433 0.06565 0.98775 0.0
C1398 C 0.01057 0.02965 0.02465 0.0
C1399 C 1.00231 0.0203 0.97919 0.0
C1400 C 0.99434 0.03423 0.93894 0.0
C1401 C 0.99525 0.05656 0.94337 0.0
C1402 C 0.98642 0.96367 0.93987 0.0
C1403 C 1.00319 0.95071 0.9627 0.0
C1404 C 0.98606 0.986 0.94519 0.0
C1405 C 1.0025 0.99628 0.97347 0.0
C1406 C 0.01932 0.9833 0.996 0.0
C1407 C 0.01961 0.96101 0.99091 0.0
H1408 H 0.01486 0.02016 0.44814 0.0
H1409 H 1.00565 1.00835 0.61539 0.0
H1410 H 0.97456 0.01913 0.43727 0.0
H1411 H 0.96531 1.00682 0.60473 0.0
H1412 H 0.89257 0.02781 0.57632 0.0
H1413 H 0.93299 0.02937 0.58543 0.0
H1414 H 0.94253 0.99639 0.43907 0.0
H1415 H 0.90216 0.99558 0.42945 0.0
C1416 C 1.00419 0.01706 0.48255 0.0
C1417 C 0.01358 0.01393 0.53246 0.0
C1418 C 0.981 0.01641 0.47636 0.0
C1419 C 0.96633 0.01291 0.5201 0.0
C1420 C 0.97584 1.00982 0.57012 0.0
C1421 C 0.99907 1.01034 0.57621 0.0
C1422 C 0.90332 0.02084 0.54623 0.0
C1423 C 0.89401 0.01094 0.5031 0.0
C1424 C 0.92658 0.02157 0.55161 0.0
C1425 C 0.94135 0.0126 0.51366 0.0
C1426 C 0.93193 1.00341 0.46941 0.0
C1427 C 0.90867 1.00268 0.46415 0.0
H1428 H 0.52544 0.97152 0.60673 0.0
H1429 H 0.49785 0.98028 0.4527 0.0
H1430 H 0.52229 1.00981 0.62055 0.0
H1431 H 0.4948 0.01874 0.46582 0.0
H1432 H 0.47425 0.08536 0.52243 0.0
H1433 H 0.47591 0.04685 0.51137 0.0
H1434 H 0.53723 0.04329 0.59586 0.0
H1435 H 0.53508 0.08166 0.60877 0.0
C1436 C 0.51839 0.98161 0.576 0.0
C1437 C 0.51094 0.97253 0.52967 0.0
C1438 C 0.51681 1.00374 0.58361 0.0
C1439 C 0.50808 0.01773 0.5446 0.0
C1440 C 0.50102 1.00864 0.49762 0.0
C1441 C 0.50257 0.98644 0.49016 0.0
C1442 C 0.48791 0.07638 0.5396 0.0
C1443 C 0.50443 0.08693 0.56697 0.0
C1444 C 0.48906 0.05417 0.53247 0.0
C1445 C 0.50673 0.0416 0.55255 0.0
C1446 C 0.52316 0.05214 0.58024 0.0
C1447 C 0.52205 0.07436 0.58724 0.0
H1448 H 0.62182 0.5002 0.40692 0.0
H1449 H 0.62244 0.54139 0.53987 0.0
H1450 H 0.58158 0.49749 0.4167 0.0
H1451 H 0.58196 0.54007 0.54772 0.0
H1452 H 0.5103 0.5171 0.5831 0.0
H1453 H 0.55086 0.51983 0.57459 0.0
H1454 H 0.54699 0.51356 0.40575 0.0
H1455 H 0.50667 0.51011 0.41522 0.0
C1456 C 0.61353 0.50818 0.43943 0.0
C1457 C 0.62589 0.51976 0.475 0.0
C1458 C 0.59011 0.50718 0.44415 0.0
C1459 C 0.57798 0.51825 0.48376 0.0
C1460 C 0.59034 0.53074 0.5176 0.0
C1461 C 0.61376 0.53158 0.51299 0.0
C1462 C 0.51816 0.51658 0.54416 0.0
C1463 C 0.50512 0.51372 0.49974 0.0
C1464 C 0.54154 0.51816 0.53909 0.0
C1465 C 0.55274 0.51696 0.48932 0.0
C1466 C 0.53945 0.51423 0.44496 0.0
C1467 C 0.51615 0.51248 0.4502 0.0
H1468 H 0.99873 0.5627 0.47949 0.0
H1469 H 0.02706 0.5626 0.63325 0.0
H1470 H 1.00116 0.52372 0.47943 0.0
H1471 H 0.02863 0.52346 0.63528 0.0
H1472 H 0.04441 0.45279 0.60778 0.0
H1473 H 0.04465 0.49167 0.60507 0.0
H1474 H 0.98508 0.49282 0.51376 0.0
H1475 H 0.98569 0.45412 0.51354 0.0
C1476 C 1.00541 0.55422 0.51348 0.0
C1477 C 0.01237 0.56563 0.55681 0.0
C1478 C 1.00662 0.53179 0.51385 0.0
C1479 C 0.01475 0.52 0.55776 0.0
C1480 C 0.02236 0.53165 0.60047 0.0
C1481 C 0.02132 0.55413 0.59973 0.0
C1482 C 0.03146 0.46126 0.58658 0.0
C1483 C 0.01499 0.44992 0.56104 0.0
C1484 C 0.03143 0.48376 0.58558 0.0
C1485 C 0.0149 0.49581 0.55911 0.0
C1486 C 0.99837 0.48443 0.53391 0.0
C1487 C 0.99848 0.46199 0.53464 0.0
loop_
_geom_bond_atom_site_label_1
_geom_bond_atom_site_label_2
_geom_bond_distance
_geom_bond_site_symmetry_2
_ccdc_geom_bond_type
C0 C1 1.443 . S
C0 N4 1.376 . S
C0 C38 1.390 . S
C1 C0 1.443 . S
C1 C2 1.340 . S
C1 H41 0.951 . S
C2 C1 1.340 . S
C2 C3 1.439 . S
C2 H42 0.950 . S
C3 C2 1.439 . S
C3 N4 1.374 . S
C3 C37 1.395 . S
N4 C0 1.376 . S
N4 C3 1.374 . S
N4 Co5 2.008 . S
Co5 N4 2.008 . S
Co5 N6 1.995 . S
Co5 N11 2.008 1_545 S
Co5 N16 1.995 1_545 S
Co5 N21 2.282 1_545 S
Co5 N27 2.282 . S
N6 Co5 1.995 . S
N6 C7 1.376 . S
N6 C10 1.383 . S
C7 N6 1.376 . S
C7 C8 1.446 . S
C7 C37 1.391 . S
C8 C7 1.446 . S
C8 C9 1.339 . S
C8 H43 0.949 . S
C9 C8 1.339 . S
C9 C10 1.439 . S
C9 H44 0.950 . S
C10 N6 1.383 . S
C10 C9 1.439 . S
C10 C39 1.390 . S
N11 Co5 2.008 1_565 S
N11 C12 1.376 . S
N11 C15 1.374 . S
C12 N11 1.376 . S
C12 C13 1.443 . S
C12 C39 1.390 1_565 S
C13 C12 1.443 . S
C13 C14 1.340 . S
C13 H45 0.951 . S
C14 C13 1.340 . S
C14 C15 1.439 . S
C14 H46 0.950 . S
C15 N11 1.374 . S
C15 C14 1.439 . S
C15 C40 1.395 . S
N16 Co5 1.995 1_565 S
N16 C17 1.376 . S
N16 C20 1.383 . S
C17 N16 1.376 . S
C17 C18 1.446 . S
C17 C40 1.391 . S
C18 C17 1.446 . S
C18 C19 1.339 . S
C18 H47 0.949 . S
C19 C18 1.339 . S
C19 C20 1.439 . S
C19 H48 0.950 . S
C20 N16 1.383 . S
C20 C19 1.439 . S
C20 C38 1.390 1_565 S
N21 Co5 2.282 1_565 S
N21 C24 1.332 . S
N21 C26 1.315 1_565 S
C22 C23 1.386 . S
C22 C25 1.388 . S
C23 C22 1.386 . S
C23 C24 1.382 1_556 S
C23 H49 0.950 . S
C24 N21 1.332 . S
C24 C23 1.382 1_554 S
C24 H35 0.952 . S
C25 C22 1.388 . S
C25 C26 1.372 1_566 S
C25 H50 0.950 1_565 S
C26 N21 1.315 1_545 S
C26 C25 1.372 1_544 S
C26 H36 0.978 . S
N27 Co5 2.282 . S
N27 C31 1.332 . S
N27 C32 1.322 1_545 S
C28 C29 1.388 . S
C28 C32 1.376 1_545 S
C28 H51 0.950 1_545 S
C29 C28 1.388 . S
C29 C30 1.386 . S
C30 C29 1.386 . S
C30 C31 1.382 . S
C30 H52 0.950 . S
C31 N27 1.332 . S
C31 C30 1.382 . S
C31 H33 0.952 . S
C32 N27 1.322 1_565 S
C32 C28 1.376 1_565 S
C32 H34 0.965 . S
H33 C31 0.952 . S
H34 C32 0.965 . S
H35 C24 0.952 . S
H36 C26 0.978 . S
C37 C3 1.395 . S
C37 C7 1.391 . S
C38 C0 1.390 . S
C38 C20 1.390 1_545 S
C39 C10 1.390 . S
C39 C12 1.390 1_545 S
C40 C15 1.395 . S
C40 C17 1.391 . S
H41 C1 0.951 . S
H42 C2 0.950 . S
H43 C8 0.949 . S
H44 C9 0.950 . S
H45 C13 0.951 . S
H46 C14 0.950 . S
H47 C18 0.949 . S
H48 C19 0.950 . S
H49 C23 0.950 . S
H50 C25 0.950 1_545 S
H51 C28 0.950 1_565 S
H52 C30 0.950 . S
C53 C54 1.443 . S
C53 N57 1.376 . S
C53 C91 1.389 . S
C54 C53 1.443 . S
C54 C55 1.340 . S
C54 H94 0.951 . S
C55 C54 1.340 . S
C55 C56 1.439 . S
C55 H95 0.950 . S
C56 C55 1.439 . S
C56 N57 1.374 . S
C56 C90 1.395 . S
N57 C53 1.376 . S
N57 C56 1.374 . S
N57 Co58 2.008 . S
Co58 N57 2.008 . S
Co58 N59 1.995 . S
Co58 N64 2.008 . S
Co58 N69 1.995 . S
Co58 N74 2.282 . S
Co58 N80 2.284 . S
N59 Co58 1.995 . S
N59 C60 1.376 . S
N59 C63 1.383 1_554 S
C60 N59 1.376 . S
C60 C61 1.446 1_554 S
C60 C90 1.391 . S
C61 C60 1.446 1_556 S
C61 C62 1.339 . S
C61 H96 0.949 . S
C62 C61 1.339 . S
C62 C63 1.439 . S
C62 H97 0.950 . S
C63 N59 1.383 1_556 S
C63 C62 1.439 . S
C63 C92 1.392 . S
N64 Co58 2.008 . S
N64 C65 1.376 1_554 S
N64 C68 1.374 . S
C65 N64 1.376 1_556 S
C65 C66 1.443 . S
C65 C92 1.389 . S
C66 C65 1.443 . S
C66 C67 1.340 1_556 S
C66 H98 0.951 . S
C67 C66 1.340 1_554 S
C67 C68 1.439 . S
C67 H99 0.950 . S
C68 N64 1.374 . S
C68 C67 1.439 . S
C68 C93 1.395 . S
N69 Co58 1.995 . S
N69 C70 1.376 . S
N69 C73 1.383 . S
C70 N69 1.376 . S
C70 C71 1.446 . S
C70 C93 1.391 . S
C71 C70 1.446 . S
C71 C72 1.339 . S
C71 H100 0.949 . S
C72 C71 1.339 . S
C72 C73 1.439 . S
C72 H101 0.950 . S
C73 N69 1.383 . S
C73 C72 1.439 . S
C73 C91 1.392 . S
N74 Co58 2.282 . S
N74 C77 1.332 . S
N74 C79 1.332 . S
C75 C76 1.386 . S
C75 C78 1.388 . S
C76 C75 1.386 . S
C76 C77 1.382 . S
C76 H102 0.950 . S
C77 N74 1.332 . S
C77 C76 1.382 . S
C77 H88 0.952 . S
C78 C75 1.388 . S
C78 C79 1.382 . S
C78 H103 0.950 . S
C79 N74 1.332 . S
C79 C78 1.382 . S
C79 H89 0.948 . S
N80 Co58 2.284 . S
N80 C84 1.331 1_554 S
N80 C85 1.332 1_554 S
C81 C82 1.388 . S
C81 C85 1.382 . S
C81 H104 0.950 . S
C82 C81 1.388 . S
C82 C83 1.386 . S
C83 C82 1.386 . S
C83 C84 1.382 . S
C83 H105 0.950 . S
C84 N80 1.331 1_556 S
C84 C83 1.382 . S
C84 H86 0.952 . S
C85 N80 1.332 1_556 S
C85 C81 1.382 . S
C85 H87 0.948 1_556 S
H86 C84 0.952 . S
H87 C85 0.948 1_554 S
H88 C77 0.952 . S
H89 C79 0.948 . S
C90 C56 1.395 . S
C90 C60 1.391 . S
C91 C53 1.389 . S
C91 C73 1.392 . S
C92 C63 1.392 . S
C92 C65 1.389 . S
C93 C68 1.395 . S
C93 C70 1.391 . S
H94 C54 0.951 . S
H95 C55 0.950 . S
H96 C61 0.949 . S
H97 C62 0.950 . S
H98 C66 0.951 . S
H99 C67 0.950 . S
H100 C71 0.949 . S
H101 C72 0.950 . S
H102 C76 0.950 . S
H103 C78 0.950 . S
H104 C81 0.950 . S
H105 C83 0.950 . S
C106 C107 1.443 . S
C106 N110 1.376 . S
C106 C144 1.389 . S
C107 C106 1.443 . S
C107 C108 1.340 . S
C107 H147 0.951 1_554 S
C108 C107 1.340 . S
C108 C109 1.439 . S
C108 H148 0.950 . S
C109 C108 1.439 . S
C109 N110 1.374 . S
C109 C143 1.395 . S
N110 C106 1.376 . S
N110 C109 1.374 . S
N110 Co111 2.008 . S
Co111 N110 2.008 . S
Co111 N112 1.995 . S
Co111 N117 2.008 . S
Co111 N122 1.995 . S
Co111 N127 2.282 . S
Co111 N133 2.282 . S
N112 Co111 1.995 . S
N112 C113 1.376 . S
N112 C116 1.383 . S
C113 N112 1.376 . S
C113 C114 1.446 . S
C113 C143 1.391 . S
C114 C113 1.446 . S
C114 C115 1.339 . S
C114 H149 0.949 . S
C115 C114 1.339 . S
C115 C116 1.439 . S
C115 H150 0.950 . S
C116 N112 1.383 . S
C116 C115 1.439 . S
C116 C145 1.392 . S
N117 Co111 2.008 . S
N117 C118 1.376 . S
N117 C121 1.374 . S
C118 N117 1.376 . S
C118 C119 1.443 . S
C118 C145 1.389 . S
C119 C118 1.443 . S
C119 C120 1.340 . S
C119 H151 0.951 . S
C120 C119 1.340 . S
C120 C121 1.439 . S
C120 H152 0.950 . S
C121 N117 1.374 . S
C121 C120 1.439 . S
C121 C146 1.395 . S
N122 Co111 1.995 . S
N122 C123 1.376 . S
N122 C126 1.383 . S
C123 N122 1.376 . S
C123 C124 1.446 . S
C123 C146 1.391 . S
C124 C123 1.446 . S
C124 C125 1.339 . S
C124 H153 0.949 . S
C125 C124 1.339 . S
C125 C126 1.439 . S
C125 H154 0.950 1_655 S
C126 N122 1.383 . S
C126 C125 1.439 . S
C126 C144 1.392 . S
N127 Co111 2.282 . S
N127 C130 1.332 1_554 S
N127 C132 1.332 1_554 S
C128 C129 1.386 . S
C128 C131 1.388 . S
C129 C128 1.386 . S
C129 C130 1.382 . S
C129 H155 0.950 . S
C130 N127 1.332 1_556 S
C130 C129 1.382 . S
C130 H141 0.952 1_556 S
C131 C128 1.388 . S
C131 C132 1.382 . S
C131 H156 0.950 . S
C132 N127 1.332 1_556 S
C132 C131 1.382 . S
C132 H142 0.948 1_556 S
N133 Co111 2.282 . S
N133 C137 1.332 . S
N133 C138 1.332 . S
C134 C135 1.388 . S
C134 C138 1.382 . S
C134 H157 0.950 . S
C135 C134 1.388 . S
C135 C136 1.386 . S
C136 C135 1.386 . S
C136 C137 1.382 . S
C136 H158 0.950 . S
C137 N133 1.332 . S
C137 C136 1.382 . S
C137 H139 0.952 . S
C138 N133 1.332 . S
C138 C134 1.382 . S
C138 H140 0.948 . S
H139 C137 0.952 . S
H140 C138 0.948 . S
H141 C130 0.952 1_554 S
H142 C132 0.948 1_554 S
C143 C109 1.395 . S
C143 C113 1.391 . S
C144 C106 1.389 . S
C144 C126 1.392 . S
C145 C116 1.392 . S
C145 C118 1.389 . S
C146 C121 1.395 . S
C146 C123 1.391 . S
H147 C107 0.951 1_556 S
H148 C108 0.950 . S
H149 C114 0.949 . S
H150 C115 0.950 . S
H151 C119 0.951 . S
H152 C120 0.950 . S
H153 C124 0.949 . S
H154 C125 0.950 1_455 S
H155 C129 0.950 . S
H156 C131 0.950 . S
H157 C134 0.950 . S
H158 C136 0.950 . S
C159 C160 1.443 . S
C159 N163 1.376 . S
C159 C197 1.389 1_655 S
C160 C159 1.443 . S
C160 C161 1.340 . S
C160 H200 0.951 . S
C161 C160 1.340 . S
C161 C162 1.439 . S
C161 H201 0.950 . S
C162 C161 1.439 . S
C162 N163 1.374 . S
C162 C196 1.395 . S
N163 C159 1.376 . S
N163 C162 1.374 . S
N163 Co164 2.008 1_655 S
Co164 N163 2.008 1_455 S
Co164 N165 1.995 1_455 S
Co164 N170 2.000 1_554 S
Co164 N175 1.995 . S
Co164 N180 2.282 1_455 S
Co164 N186 2.282 1_554 S
N165 Co164 1.995 1_655 S
N165 C166 1.376 . S
N165 C169 1.383 1_554 S
C166 N165 1.376 . S
C166 C167 1.446 1_554 S
C166 C196 1.391 . S
C167 C166 1.446 1_556 S
C167 C168 1.339 . S
C167 H202 0.949 . S
C168 C167 1.339 . S
C168 C169 1.439 . S
C168 H203 0.950 . S
C169 N165 1.383 1_556 S
C169 C168 1.439 . S
C169 C198 1.392 . S
N170 Co164 2.000 1_556 S
N170 C171 1.385 . S
N170 C174 1.373 . S
C171 N170 1.385 . S
C171 C172 1.443 . S
C171 C198 1.389 1_455 S
C172 C171 1.443 . S
C172 C173 1.340 . S
C172 H204 0.951 . S
C173 C172 1.340 . S
C173 C174 1.439 . S
C173 H205 0.950 . S
C174 N170 1.373 . S
C174 C173 1.439 . S
C174 C199 1.395 1_556 S
N175 Co164 1.995 . S
N175 C176 1.376 . S
N175 C179 1.383 . S
C176 N175 1.376 . S
C176 C177 1.446 . S
C176 C199 1.391 . S
C177 C176 1.446 . S
C177 C178 1.339 . S
C177 H206 0.949 . S
C178 C177 1.339 . S
C178 C179 1.439 . S
C178 H207 0.950 . S
C179 N175 1.383 . S
C179 C178 1.439 . S
C179 C197 1.392 . S
N180 Co164 2.282 1_655 S
N180 C183 1.297 1_655 S
N180 C185 1.367 . S
C181 C182 1.388 . S
C181 C184 1.386 1_455 S
C182 C181 1.388 . S
C182 C183 1.382 . S
C182 H208 0.950 . S
C183 N180 1.297 1_455 S
C183 C182 1.382 . S
C183 H194 0.952 . S
C184 C181 1.386 1_655 S
C184 C185 1.382 . S
C184 H209 0.950 . S
C185 N180 1.367 . S
C185 C184 1.382 . S
C185 H195 0.948 . S
N186 Co164 2.282 1_556 S
N186 C190 1.286 1_455 S
N186 C191 1.377 . S
C187 C188 1.386 . S
C187 C191 1.382 . S
C187 H210 0.950 . S
C188 C187 1.386 . S
C188 C189 1.388 1_455 S
C189 C188 1.388 1_655 S
C189 C190 1.382 . S
C189 H211 0.950 . S
C190 N186 1.286 1_655 S
C190 C189 1.382 . S
C190 H192 0.952 . S
C191 N186 1.377 . S
C191 C187 1.382 . S
C191 H193 0.948 . S
H192 C190 0.952 . S
H193 C191 0.948 . S
H194 C183 0.952 . S
H195 C185 0.948 . S
C196 C162 1.395 . S
C196 C166 1.391 . S
C197 C159 1.389 1_455 S
C197 C179 1.392 . S
C198 C169 1.392 . S
C198 C171 1.389 1_655 S
C199 C174 1.395 1_554 S
C199 C176 1.391 . S
H200 C160 0.951 . S
H201 C161 0.950 . S
H202 C167 0.949 . S
H203 C168 0.950 . S
H204 C172 0.951 . S
H205 C173 0.950 . S
H206 C177 0.949 . S
H207 C178 0.950 . S
H208 C182 0.950 . S
H209 C184 0.950 . S
H210 C187 0.950 . S
H211 C189 0.950 . S
C212 C213 1.443 . S
C212 N216 1.376 . S
C212 C250 1.389 . S
C213 C212 1.443 . S
C213 C214 1.340 . S
C213 H253 0.951 . S
C214 C213 1.340 . S
C214 C215 1.439 . S
C214 H254 0.950 . S
C215 C214 1.439 . S
C215 N216 1.374 . S
C215 C249 1.395 . S
N216 C212 1.376 . S
N216 C215 1.374 . S
N216 Co217 2.008 . S
Co217 N216 2.008 . S
Co217 N218 1.995 . S
Co217 N223 2.008 1_565 S
Co217 N228 1.995 1_565 S
Co217 N233 2.282 1_565 S
Co217 N239 2.282 . S
N218 Co217 1.995 . S
N218 C219 1.376 . S
N218 C222 1.383 . S
C219 N218 1.376 . S
C219 C220 1.446 . S
C219 C249 1.391 . S
C220 C219 1.446 . S
C220 C221 1.339 . S
C220 H255 0.949 . S
C221 C220 1.339 . S
C221 C222 1.439 . S
C221 H256 0.950 . S
C222 N218 1.383 . S
C222 C221 1.439 . S
C222 C251 1.392 1_565 S
N223 Co217 2.008 1_545 S
N223 C224 1.376 . S
N223 C227 1.374 . S
C224 N223 1.376 . S
C224 C225 1.443 . S
C224 C251 1.389 . S
C225 C224 1.443 . S
C225 C226 1.340 . S
C225 H257 0.951 . S
C226 C225 1.340 . S
C226 C227 1.439 . S
C226 H258 0.950 . S
C227 N223 1.374 . S
C227 C226 1.439 . S
C227 C252 1.395 . S
N228 Co217 1.995 1_545 S
N228 C229 1.376 . S
N228 C232 1.383 . S
C229 N228 1.376 . S
C229 C230 1.446 . S
C229 C252 1.391 . S
C230 C229 1.446 . S
C230 C231 1.339 . S
C230 H259 0.949 . S
C231 C230 1.339 . S
C231 C232 1.439 . S
C231 H260 0.950 . S
C232 N228 1.383 . S
C232 C231 1.439 . S
C232 C250 1.392 1_545 S
N233 Co217 2.282 1_545 S
N233 C236 1.332 . S
N233 C238 1.332 1_545 S
C234 C235 1.386 . S
C234 C237 1.388 . S
C235 C234 1.386 . S
C235 C236 1.382 . S
C235 H261 0.950 . S
C236 N233 1.332 . S
C236 C235 1.382 . S
C236 H247 0.952 . S
C237 C234 1.388 . S
C237 C238 1.382 1_545 S
C237 H262 0.950 1_545 S
C238 N233 1.332 1_565 S
C238 C237 1.382 1_565 S
C238 H248 0.948 . S
N239 Co217 2.282 . S
N239 C243 1.332 . S
N239 C244 1.306 1_565 S
C240 C241 1.388 . S
C240 C244 1.365 1_565 S
C240 H263 0.950 1_565 S
C241 C240 1.388 . S
C241 C242 1.386 . S
C242 C241 1.386 . S
C242 C243 1.382 . S
C242 H264 0.950 . S
C243 N239 1.332 . S
C243 C242 1.382 . S
C243 H245 0.952 . S
C244 N239 1.306 1_545 S
C244 C240 1.365 1_545 S
C244 H246 0.995 . S
H245 C243 0.952 . S
H246 C244 0.995 . S
H247 C236 0.952 . S
H248 C238 0.948 . S
C249 C215 1.395 . S
C249 C219 1.391 . S
C250 C212 1.389 . S
C250 C232 1.392 1_565 S
C251 C222 1.392 1_545 S
C251 C224 1.389 . S
C252 C227 1.395 . S
C252 C229 1.391 . S
H253 C213 0.951 . S
H254 C214 0.950 . S
H255 C220 0.949 . S
H256 C221 0.950 . S
H257 C225 0.951 . S
H258 C226 0.950 . S
H259 C230 0.949 . S
H260 C231 0.950 . S
H261 C235 0.950 . S
H262 C237 0.950 1_565 S
H263 C240 0.950 1_545 S
H264 C242 0.950 . S
C265 C266 1.443 . S
C265 N269 1.376 . S
C265 C303 1.389 . S
C266 C265 1.443 . S
C266 C267 1.340 . S
C266 H306 0.951 . S
C267 C266 1.340 . S
C267 C268 1.439 . S
C267 H307 0.950 . S
C268 C267 1.439 . S
C268 N269 1.374 . S
C268 C302 1.395 . S
N269 C265 1.376 . S
N269 C268 1.374 . S
N269 Co270 2.008 . S
Co270 N269 2.008 . S
Co270 N271 1.995 . S
Co270 N276 2.008 . S
Co270 N281 1.995 . S
Co270 N286 2.282 . S
Co270 N292 2.282 . S
N271 Co270 1.995 . S
N271 C272 1.376 . S
N271 C275 1.383 . S
C272 N271 1.376 . S
C272 C273 1.446 . S
C272 C302 1.391 . S
C273 C272 1.446 . S
C273 C274 1.339 . S
C273 H308 0.949 . S
C274 C273 1.339 . S
C274 C275 1.439 . S
C274 H309 0.950 . S
C275 N271 1.383 . S
C275 C274 1.439 . S
C275 C304 1.392 . S
N276 Co270 2.008 . S
N276 C277 1.376 . S
N276 C280 1.374 . S
C277 N276 1.376 . S
C277 C278 1.443 . S
C277 C304 1.389 . S
C278 C277 1.443 . S
C278 C279 1.340 . S
C278 H310 0.951 . S
C279 C278 1.340 . S
C279 C280 1.439 . S
C279 H311 0.950 . S
C280 N276 1.374 . S
C280 C279 1.439 . S
C280 C305 1.395 . S
N281 Co270 1.995 . S
N281 C282 1.376 . S
N281 C285 1.383 . S
C282 N281 1.376 . S
C282 C283 1.446 . S
C282 C305 1.391 . S
C283 C282 1.446 . S
C283 C284 1.339 . S
C283 H312 0.949 . S
C284 C283 1.339 . S
C284 C285 1.439 . S
C284 H313 0.950 . S
C285 N281 1.383 . S
C285 C284 1.439 . S
C285 C303 1.392 . S
N286 Co270 2.282 . S
N286 C289 1.332 . S
N286 C291 1.332 . S
C287 C288 1.386 . S
C287 C290 1.388 . S
C288 C287 1.386 . S
C288 C289 1.382 . S
C288 H314 0.950 . S
C289 N286 1.332 . S
C289 C288 1.382 . S
C289 H300 0.952 . S
C290 C287 1.388 . S
C290 C291 1.382 . S
C290 H315 0.950 . S
C291 N286 1.332 . S
C291 C290 1.382 . S
C291 H301 0.948 . S
N292 Co270 2.282 . S
N292 C296 1.332 . S
N292 C297 1.332 . S
C293 C294 1.388 . S
C293 C297 1.382 . S
C293 H316 0.950 . S
C294 C293 1.388 . S
C294 C295 1.386 . S
C295 C294 1.386 . S
C295 C296 1.382 . S
C295 H317 0.950 . S
C296 N292 1.332 . S
C296 C295 1.382 . S
C296 H298 0.952 . S
C297 N292 1.332 . S
C297 C293 1.382 . S
C297 H299 0.948 . S
H298 C296 0.952 . S
H299 C297 0.948 . S
H300 C289 0.952 . S
H301 C291 0.948 . S
C302 C268 1.395 . S
C302 C272 1.391 . S
C303 C265 1.389 . S
C303 C285 1.392 . S
C304 C275 1.392 . S
C304 C277 1.389 . S
C305 C280 1.395 . S
C305 C282 1.391 . S
H306 C266 0.951 . S
H307 C267 0.950 . S
H308 C273 0.949 . S
H309 C274 0.950 . S
H310 C278 0.951 . S
H311 C279 0.950 . S
H312 C283 0.949 . S
H313 C284 0.950 . S
H314 C288 0.950 . S
H315 C290 0.950 . S
H316 C293 0.950 . S
H317 C295 0.950 . S
C318 C319 1.443 . S
C318 N322 1.376 . S
C318 C356 1.389 . S
C319 C318 1.443 . S
C319 C320 1.340 . S
C319 H359 0.951 . S
C320 C319 1.340 . S
C320 C321 1.439 . S
C320 H360 0.950 . S
C321 C320 1.439 . S
C321 N322 1.374 . S
C321 C355 1.395 . S
N322 C318 1.376 . S
N322 C321 1.374 . S
N322 Co323 2.008 . S
Co323 N322 2.008 . S
Co323 N324 1.995 . S
Co323 N329 2.008 . S
Co323 N334 1.995 . S
Co323 N339 2.282 . S
Co323 N345 2.282 . S
N324 Co323 1.995 . S
N324 C325 1.376 . S
N324 C328 1.383 . S
C325 N324 1.376 . S
C325 C326 1.446 . S
C325 C355 1.391 . S
C326 C325 1.446 . S
C326 C327 1.339 . S
C326 H361 0.949 . S
C327 C326 1.339 . S
C327 C328 1.439 . S
C327 H362 0.950 . S
C328 N324 1.383 . S
C328 C327 1.439 . S
C328 C357 1.392 . S
N329 Co323 2.008 . S
N329 C330 1.376 . S
N329 C333 1.374 . S
C330 N329 1.376 . S
C330 C331 1.443 . S
C330 C357 1.389 . S
C331 C330 1.443 . S
C331 C332 1.340 . S
C331 H363 0.951 . S
C332 C331 1.340 . S
C332 C333 1.439 . S
C332 H364 0.950 . S
C333 N329 1.374 . S
C333 C332 1.439 . S
C333 C358 1.395 . S
N334 Co323 1.995 . S
N334 C335 1.376 . S
N334 C338 1.383 . S
C335 N334 1.376 . S
C335 C336 1.446 . S
C335 C358 1.391 . S
C336 C335 1.446 . S
C336 C337 1.339 . S
C336 H365 0.949 . S
C337 C336 1.339 . S
C337 C338 1.439 . S
C337 H366 0.950 . S
C338 N334 1.383 . S
C338 C337 1.439 . S
C338 C356 1.392 . S
N339 Co323 2.282 . S
N339 C342 1.332 . S
N339 C344 1.332 . S
C340 C341 1.386 . S
C340 C343 1.388 . S
C341 C340 1.386 . S
C341 C342 1.382 . S
C341 H367 0.950 . S
C342 N339 1.332 . S
C342 C341 1.382 . S
C342 H353 0.952 . S
C343 C340 1.388 . S
C343 C344 1.382 . S
C343 H368 0.950 . S
C344 N339 1.332 . S
C344 C343 1.382 . S
C344 H354 0.948 . S
N345 Co323 2.282 . S
N345 C349 1.332 . S
N345 C350 1.332 . S
C346 C347 1.388 . S
C346 C350 1.382 . S
C346 H369 0.950 . S
C347 C346 1.388 . S
C347 C348 1.386 . S
C348 C347 1.386 . S
C348 C349 1.382 . S
C348 H370 0.950 . S
C349 N345 1.332 . S
C349 C348 1.382 . S
C349 H351 0.952 . S
C350 N345 1.332 . S
C350 C346 1.382 . S
C350 H352 0.948 . S
H351 C349 0.952 . S
H352 C350 0.948 . S
H353 C342 0.952 . S
H354 C344 0.948 . S
C355 C321 1.395 . S
C355 C325 1.391 . S
C356 C318 1.389 . S
C356 C338 1.392 . S
C357 C328 1.392 . S
C357 C330 1.389 . S
C358 C333 1.395 . S
C358 C335 1.391 . S
H359 C319 0.951 . S
H360 C320 0.950 . S
H361 C326 0.949 . S
H362 C327 0.950 . S
H363 C331 0.951 . S
H364 C332 0.950 . S
H365 C336 0.949 . S
H366 C337 0.950 . S
H367 C341 0.950 . S
H368 C343 0.950 . S
H369 C346 0.950 . S
H370 C348 0.950 . S
C371 C372 1.443 . S
C371 N375 1.376 . S
C371 C409 1.389 1_455 S
C372 C371 1.443 . S
C372 C373 1.340 . S
C372 H412 0.951 . S
C373 C372 1.340 . S
C373 C374 1.439 . S
C373 H413 0.950 . S
C374 C373 1.439 . S
C374 N375 1.374 . S
C374 C408 1.395 . S
N375 C371 1.376 . S
N375 C374 1.374 . S
N375 Co376 2.008 1_455 S
Co376 N375 2.008 1_655 S
Co376 N377 1.995 1_655 S
Co376 N382 2.008 . S
Co376 N387 1.995 . S
Co376 N392 2.283 1_655 S
Co376 N398 2.284 . S
N377 Co376 1.995 1_455 S
N377 C378 1.376 . S
N377 C381 1.383 . S
C378 N377 1.376 . S
C378 C379 1.446 . S
C378 C408 1.391 . S
C379 C378 1.446 . S
C379 C380 1.339 . S
C379 H414 0.949 . S
C380 C379 1.339 . S
C380 C381 1.439 . S
C380 H415 0.950 . S
C381 N377 1.383 . S
C381 C380 1.439 . S
C381 C410 1.392 . S
N382 Co376 2.008 . S
N382 C383 1.376 . S
N382 C386 1.374 . S
C383 N382 1.376 . S
C383 C384 1.443 . S
C383 C410 1.389 1_655 S
C384 C383 1.443 . S
C384 C385 1.340 . S
C384 H416 0.951 . S
C385 C384 1.340 . S
C385 C386 1.439 . S
C385 H417 0.950 . S
C386 N382 1.374 . S
C386 C385 1.439 . S
C386 C411 1.395 . S
N387 Co376 1.995 . S
N387 C388 1.376 . S
N387 C391 1.383 . S
C388 N387 1.376 . S
C388 C389 1.446 . S
C388 C411 1.391 . S
C389 C388 1.446 . S
C389 C390 1.339 . S
C389 H418 0.949 . S
C390 C389 1.339 . S
C390 C391 1.439 . S
C390 H419 0.950 . S
C391 N387 1.383 . S
C391 C390 1.439 . S
C391 C409 1.392 . S
N392 Co376 2.283 1_455 S
N392 C395 1.303 1_455 S
N392 C397 1.360 . S
C393 C394 1.408 . S
C393 C396 1.364 1_655 S
C394 C393 1.408 . S
C394 C395 1.382 . S
C394 H420 0.950 . S
C395 N392 1.303 1_655 S
C395 C394 1.382 . S
C395 H406 0.952 . S
C396 C393 1.364 1_455 S
C396 C397 1.382 . S
C396 H421 0.950 . S
C397 N392 1.360 . S
C397 C396 1.382 . S
C397 H407 0.948 . S
N398 Co376 2.284 . S
N398 C402 1.292 1_655 S
N398 C403 1.370 . S
C399 C400 1.375 1_655 S
C399 C403 1.382 . S
C399 H422 0.950 . S
C400 C399 1.375 1_455 S
C400 C401 1.398 . S
C401 C400 1.398 . S
C401 C402 1.382 . S
C401 H423 0.950 . S
C402 N398 1.292 1_455 S
C402 C401 1.382 . S
C402 H404 0.952 . S
C403 N398 1.370 . S
C403 C399 1.382 . S
C403 H405 0.948 . S
H404 C402 0.952 . S
H405 C403 0.948 . S
H406 C395 0.952 . S
H407 C397 0.948 . S
C408 C374 1.395 . S
C408 C378 1.391 . S
C409 C371 1.389 1_655 S
C409 C391 1.392 . S
C410 C381 1.392 . S
C410 C383 1.389 1_455 S
C411 C386 1.395 . S
C411 C388 1.391 . S
H412 C372 0.951 . S
H413 C373 0.950 . S
H414 C379 0.949 . S
H415 C380 0.950 . S
H416 C384 0.951 . S
H417 C385 0.950 . S
H418 C389 0.949 . S
H419 C390 0.950 . S
H420 C394 0.950 . S
H421 C396 0.950 . S
H422 C399 0.950 . S
H423 C401 0.950 . S
C424 C425 1.443 . S
C424 N428 1.376 1_554 S
C424 C462 1.389 . S
C425 C424 1.443 . S
C425 C426 1.340 1_554 S
C425 H465 0.951 . S
C426 C425 1.340 1_556 S
C426 C427 1.439 . S
C426 H466 0.950 . S
C427 C426 1.439 . S
C427 N428 1.374 . S
C427 C461 1.395 . S
N428 C424 1.376 1_556 S
N428 C427 1.374 . S
N428 Co429 2.008 1_545 S
Co429 N428 2.008 1_565 S
Co429 N430 1.995 1_565 S
Co429 N435 2.008 . S
Co429 N440 1.995 1_556 S
Co429 N445 2.282 1_566 S
Co429 N451 2.282 . S
N430 Co429 1.995 1_545 S
N430 C431 1.376 . S
N430 C434 1.383 . S
C431 N430 1.376 . S
C431 C432 1.446 . S
C431 C461 1.391 . S
C432 C431 1.446 . S
C432 C433 1.339 . S
C432 H467 0.949 . S
C433 C432 1.339 . S
C433 C434 1.439 . S
C433 H468 0.950 . S
C434 N430 1.383 . S
C434 C433 1.439 . S
C434 C463 1.392 1_545 S
N435 Co429 2.008 . S
N435 C436 1.376 . S
N435 C439 1.374 . S
C436 N435 1.376 . S
C436 C437 1.443 . S
C436 C463 1.389 . S
C437 C436 1.443 . S
C437 C438 1.340 . S
C437 H469 0.951 . S
C438 C437 1.340 . S
C438 C439 1.439 . S
C438 H470 0.950 . S
C439 N435 1.374 . S
C439 C438 1.439 . S
C439 C464 1.395 1_556 S
N440 Co429 1.995 1_554 S
N440 C441 1.376 . S
N440 C444 1.383 . S
C441 N440 1.376 . S
C441 C442 1.446 . S
C441 C464 1.391 . S
C442 C441 1.446 . S
C442 C443 1.339 . S
C442 H471 0.949 . S
C443 C442 1.339 . S
C443 C444 1.439 . S
C443 H472 0.950 . S
C444 N440 1.383 . S
C444 C443 1.439 . S
C444 C462 1.392 1_565 S
N445 Co429 2.282 1_544 S
N445 C448 1.332 1_545 S
N445 C450 1.332 . S
C446 C447 1.386 1_545 S
C446 C449 1.388 . S
C447 C446 1.386 1_565 S
C447 C448 1.382 . S
C447 H473 0.950 . S
C448 N445 1.332 1_565 S
C448 C447 1.382 . S
C448 H459 0.952 . S
C449 C446 1.388 . S
C449 C450 1.382 . S
C449 H474 0.950 . S
C450 N445 1.332 . S
C450 C449 1.382 . S
C450 H460 0.948 . S
N451 Co429 2.282 . S
N451 C455 1.332 1_565 S
N451 C456 1.332 . S
C452 C453 1.388 . S
C452 C456 1.382 . S
C452 H475 0.950 . S
C453 C452 1.388 . S
C453 C454 1.386 1_565 S
C454 C453 1.386 1_545 S
C454 C455 1.382 . S
C454 H476 0.950 . S
C455 N451 1.332 1_545 S
C455 C454 1.382 . S
C455 H457 0.952 . S
C456 N451 1.332 . S
C456 C452 1.382 . S
C456 H458 0.948 . S
H457 C455 0.952 . S
H458 C456 0.948 . S
H459 C448 0.952 . S
H460 C450 0.948 . S
C461 C427 1.395 . S
C461 C431 1.391 . S
C462 C424 1.389 . S
C462 C444 1.392 1_545 S
C463 C434 1.392 1_565 S
C463 C436 1.389 . S
C464 C439 1.395 1_554 S
C464 C441 1.391 . S
H465 C425 0.951 . S
H466 C426 0.950 . S
H467 C432 0.949 . S
H468 C433 0.950 . S
H469 C437 0.951 . S
H470 C438 0.950 . S
H471 C442 0.949 . S
H472 C443 0.950 . S
H473 C447 0.950 . S
H474 C449 0.950 . S
H475 C452 0.950 . S
H476 C454 0.950 . S
C477 C478 1.443 . S
C477 N481 1.376 . S
C477 C515 1.389 . S
C478 C477 1.443 . S
C478 C479 1.340 . S
C478 H518 0.951 . S
C479 C478 1.340 . S
C479 C480 1.439 . S
C479 H519 0.950 . S
C480 C479 1.439 . S
C480 N481 1.374 . S
C480 C514 1.395 . S
N481 C477 1.376 . S
N481 C480 1.374 . S
N481 Co482 2.008 . S
Co482 N481 2.008 . S
Co482 N483 1.995 . S
Co482 N488 2.008 . S
Co482 N493 1.995 . S
Co482 N498 2.282 . S
Co482 N504 2.282 . S
N483 Co482 1.995 . S
N483 C484 1.376 . S
N483 C487 1.383 . S
C484 N483 1.376 . S
C484 C485 1.446 . S
C484 C514 1.391 . S
C485 C484 1.446 . S
C485 C486 1.339 . S
C485 H520 0.949 . S
C486 C485 1.339 . S
C486 C487 1.439 . S
C486 H521 0.950 . S
C487 N483 1.383 . S
C487 C486 1.439 . S
C487 C516 1.392 . S
N488 Co482 2.008 . S
N488 C489 1.376 . S
N488 C492 1.374 . S
C489 N488 1.376 . S
C489 C490 1.443 . S
C489 C516 1.389 . S
C490 C489 1.443 . S
C490 C491 1.340 . S
C490 H522 0.951 . S
C491 C490 1.340 . S
C491 C492 1.439 . S
C491 H523 0.950 . S
C492 N488 1.374 . S
C492 C491 1.439 . S
C492 C517 1.395 . S
N493 Co482 1.995 . S
N493 C494 1.376 . S
N493 C497 1.383 . S
C494 N493 1.376 . S
C494 C495 1.446 . S
C494 C517 1.391 . S
C495 C494 1.446 . S
C495 C496 1.339 . S
C495 H524 0.949 . S
C496 C495 1.339 . S
C496 C497 1.439 . S
C496 H525 0.950 . S
C497 N493 1.383 . S
C497 C496 1.439 . S
C497 C515 1.392 . S
N498 Co482 2.282 . S
N498 C501 1.332 . S
N498 C503 1.332 . S
C499 C500 1.386 . S
C499 C502 1.388 . S
C500 C499 1.386 . S
C500 C501 1.382 . S
C500 H526 0.950 1_556 S
C501 N498 1.332 . S
C501 C500 1.382 . S
C501 H512 0.952 . S
C502 C499 1.388 . S
C502 C503 1.382 . S
C502 H527 0.950 . S
C503 N498 1.332 . S
C503 C502 1.382 . S
C503 H513 0.948 . S
N504 Co482 2.282 . S
N504 C508 1.332 . S
N504 C509 1.332 . S
C505 C506 1.388 . S
C505 C509 1.382 . S
C505 H528 0.950 . S
C506 C505 1.388 . S
C506 C507 1.386 . S
C507 C506 1.386 . S
C507 C508 1.382 . S
C507 H529 0.950 . S
C508 N504 1.332 . S
C508 C507 1.382 . S
C508 H510 0.952 . S
C509 N504 1.332 . S
C509 C505 1.382 . S
C509 H511 0.948 . S
H510 C508 0.952 . S
H511 C509 0.948 . S
H512 C501 0.952 . S
H513 C503 0.948 . S
C514 C480 1.395 . S
C514 C484 1.391 . S
C515 C477 1.389 . S
C515 C497 1.392 . S
C516 C487 1.392 . S
C516 C489 1.389 . S
C517 C492 1.395 . S
C517 C494 1.391 . S
H518 C478 0.951 . S
H519 C479 0.950 . S
H520 C485 0.949 . S
H521 C486 0.950 . S
H522 C490 0.951 . S
H523 C491 0.950 . S
H524 C495 0.949 . S
H525 C496 0.950 . S
H526 C500 0.950 1_554 S
H527 C502 0.950 . S
H528 C505 0.950 . S
H529 C507 0.950 . S
C530 C531 1.443 . S
C530 N534 1.376 . S
C530 C568 1.389 1_556 S
C531 C530 1.443 . S
C531 C532 1.340 . S
C531 H571 0.951 1_556 S
C532 C531 1.340 . S
C532 C533 1.439 . S
C532 H572 0.950 . S
C533 C532 1.439 . S
C533 N534 1.374 . S
C533 C567 1.395 . S
N534 C530 1.376 . S
N534 C533 1.374 . S
N534 Co535 2.008 . S
Co535 N534 2.008 . S
Co535 N536 1.995 . S
Co535 N541 2.008 . S
Co535 N546 1.995 . S
Co535 N551 2.282 . S
Co535 N557 2.282 . S
N536 Co535 1.995 . S
N536 C537 1.376 . S
N536 C540 1.383 . S
C537 N536 1.376 . S
C537 C538 1.446 . S
C537 C567 1.391 . S
C538 C537 1.446 . S
C538 C539 1.339 . S
C538 H573 0.949 . S
C539 C538 1.339 . S
C539 C540 1.439 . S
C539 H574 0.950 . S
C540 N536 1.383 . S
C540 C539 1.439 . S
C540 C569 1.392 . S
N541 Co535 2.008 . S
N541 C542 1.376 . S
N541 C545 1.374 . S
C542 N541 1.376 . S
C542 C543 1.443 . S
C542 C569 1.389 . S
C543 C542 1.443 . S
C543 C544 1.340 . S
C543 H575 0.951 . S
C544 C543 1.340 . S
C544 C545 1.439 . S
C544 H576 0.950 . S
C545 N541 1.374 . S
C545 C544 1.439 . S
C545 C570 1.395 . S
N546 Co535 1.995 . S
N546 C547 1.376 . S
N546 C550 1.383 1_556 S
C547 N546 1.376 . S
C547 C548 1.446 1_556 S
C547 C570 1.391 . S
C548 C547 1.446 1_554 S
C548 C549 1.339 . S
C548 H577 0.949 . S
C549 C548 1.339 . S
C549 C550 1.439 . S
C549 H578 0.950 . S
C550 N546 1.383 1_554 S
C550 C549 1.439 . S
C550 C568 1.392 . S
N551 Co535 2.282 . S
N551 C554 1.332 1_556 S
N551 C556 1.332 . S
C552 C553 1.386 . S
C552 C555 1.388 . S
C553 C552 1.386 . S
C553 C554 1.382 . S
C553 H579 0.950 . S
C554 N551 1.332 1_554 S
C554 C553 1.382 . S
C554 H565 0.952 . S
C555 C552 1.388 . S
C555 C556 1.382 1_554 S
C555 H580 0.950 . S
C556 N551 1.332 . S
C556 C555 1.382 1_556 S
C556 H566 0.948 . S
N557 Co535 2.282 . S
N557 C561 1.332 . S
N557 C562 1.332 . S
C558 C559 1.388 . S
C558 C562 1.382 . S
C558 H581 0.950 . S
C559 C558 1.388 . S
C559 C560 1.386 . S
C560 C559 1.386 . S
C560 C561 1.382 . S
C560 H582 0.950 . S
C561 N557 1.332 . S
C561 C560 1.382 . S
C561 H563 0.952 . S
C562 N557 1.332 . S
C562 C558 1.382 . S
C562 H564 0.948 . S
H563 C561 0.952 . S
H564 C562 0.948 . S
H565 C554 0.952 . S
H566 C556 0.948 . S
C567 C533 1.395 . S
C567 C537 1.391 . S
C568 C530 1.389 1_554 S
C568 C550 1.392 . S
C569 C540 1.392 . S
C569 C542 1.389 . S
C570 C545 1.395 . S
C570 C547 1.391 . S
H571 C531 0.951 1_554 S
H572 C532 0.950 . S
H573 C538 0.949 . S
H574 C539 0.950 . S
H575 C543 0.951 . S
H576 C544 0.950 . S
H577 C548 0.949 . S
H578 C549 0.950 . S
H579 C553 0.950 . S
H580 C555 0.950 . S
H581 C558 0.950 . S
H582 C560 0.950 . S
C583 C584 1.443 . S
C583 N587 1.376 . S
C583 C621 1.386 . S
C584 C583 1.443 . S
C584 C585 1.340 . S
C584 H624 0.951 . S
C585 C584 1.340 . S
C585 C586 1.439 . S
C585 H625 0.950 . S
C586 C585 1.439 . S
C586 N587 1.374 . S
C586 C620 1.395 . S
N587 C583 1.376 . S
N587 C586 1.374 . S
N587 Co588 2.008 1_455 S
Co588 N587 2.008 1_655 S
Co588 N589 1.995 1_655 S
Co588 N594 2.008 . S
Co588 N599 1.995 . S
Co588 N604 2.282 1_655 S
Co588 N610 2.282 . S
N589 Co588 1.995 1_455 S
N589 C590 1.376 . S
N589 C593 1.383 . S
C590 N589 1.376 . S
C590 C591 1.446 . S
C590 C620 1.391 . S
C591 C590 1.446 . S
C591 C592 1.339 . S
C591 H626 0.949 . S
C592 C591 1.339 . S
C592 C593 1.439 . S
C592 H627 0.950 . S
C593 N589 1.383 . S
C593 C592 1.439 . S
C593 C622 1.386 1_455 S
N594 Co588 2.008 . S
N594 C595 1.376 . S
N594 C598 1.374 . S
C595 N594 1.376 . S
C595 C596 1.443 . S
C595 C622 1.395 . S
C596 C595 1.443 . S
C596 C597 1.340 . S
C596 H628 0.951 . S
C597 C596 1.340 . S
C597 C598 1.439 . S
C597 H629 0.950 . S
C598 N594 1.374 . S
C598 C597 1.439 . S
C598 C623 1.395 . S
N599 Co588 1.995 . S
N599 C600 1.376 . S
N599 C603 1.383 . S
C600 N599 1.376 . S
C600 C601 1.446 . S
C600 C623 1.391 . S
C601 C600 1.446 . S
C601 C602 1.339 . S
C601 H630 0.949 1_556 S
C602 C601 1.339 . S
C602 C603 1.439 . S
C602 H631 0.950 1_556 S
C603 N599 1.383 . S
C603 C602 1.439 . S
C603 C621 1.395 1_655 S
N604 Co588 2.282 1_455 S
N604 C607 1.332 . S
N604 C609 1.332 . S
C605 C606 1.386 . S
C605 C608 1.388 1_554 S
C606 C605 1.386 . S
C606 C607 1.382 1_554 S
C606 H632 0.950 . S
C607 N604 1.332 . S
C607 C606 1.382 1_556 S
C607 H618 0.952 1_455 S
C608 C605 1.388 1_556 S
C608 C609 1.382 . S
C608 H633 0.950 . S
C609 N604 1.332 . S
C609 C608 1.382 . S
C609 H619 0.948 . S
N610 Co588 2.282 . S
N610 C614 1.332 . S
N610 C615 1.332 . S
C611 C612 1.388 . S
C611 C615 1.382 . S
C611 H634 0.950 . S
C612 C611 1.388 . S
C612 C613 1.386 . S
C613 C612 1.386 . S
C613 C614 1.382 . S
C613 H635 0.950 . S
C614 N610 1.332 . S
C614 C613 1.382 . S
C614 H616 0.952 1_655 S
C615 N610 1.332 . S
C615 C611 1.382 . S
C615 H617 0.948 . S
H616 C614 0.952 1_455 S
H617 C615 0.948 . S
H618 C607 0.952 1_655 S
H619 C609 0.948 . S
C620 C586 1.395 . S
C620 C590 1.391 . S
C621 C583 1.386 . S
C621 C603 1.395 1_455 S
C622 C593 1.386 1_655 S
C622 C595 1.395 . S
C623 C598 1.395 . S
C623 C600 1.391 . S
H624 C584 0.951 . S
H625 C585 0.950 . S
H626 C591 0.949 . S
H627 C592 0.950 . S
H628 C596 0.951 . S
H629 C597 0.950 . S
H630 C601 0.949 1_554 S
H631 C602 0.950 1_554 S
H632 C606 0.950 . S
H633 C608 0.950 . S
H634 C611 0.950 . S
H635 C613 0.950 . S
C636 C637 1.443 . S
C636 N640 1.376 . S
C636 C674 1.389 . S
C637 C636 1.443 . S
C637 C638 1.340 . S
C637 H677 0.951 . S
C638 C637 1.340 . S
C638 C639 1.439 . S
C638 H678 0.950 . S
C639 C638 1.439 . S
C639 N640 1.374 . S
C639 C673 1.395 . S
N640 C636 1.376 . S
N640 C639 1.374 . S
N640 Co641 2.008 1_565 S
Co641 N640 2.008 1_545 S
Co641 N642 1.995 1_545 S
Co641 N647 2.008 . S
Co641 N652 1.995 . S
Co641 N657 2.282 1_545 S
Co641 N663 2.282 . S
N642 Co641 1.995 1_565 S
N642 C643 1.376 . S
N642 C646 1.383 . S
C643 N642 1.376 . S
C643 C644 1.446 . S
C643 C673 1.391 . S
C644 C643 1.446 . S
C644 C645 1.339 . S
C644 H679 0.949 . S
C645 C644 1.339 . S
C645 C646 1.439 . S
C645 H680 0.950 . S
C646 N642 1.383 . S
C646 C645 1.439 . S
C646 C675 1.392 1_565 S
N647 Co641 2.008 . S
N647 C648 1.376 . S
N647 C651 1.374 . S
C648 N647 1.376 . S
C648 C649 1.443 . S
C648 C675 1.389 . S
C649 C648 1.443 . S
C649 C650 1.340 . S
C649 H681 0.951 . S
C650 C649 1.340 . S
C650 C651 1.439 . S
C650 H682 0.950 . S
C651 N647 1.374 . S
C651 C650 1.439 . S
C651 C676 1.395 . S
N652 Co641 1.995 . S
N652 C653 1.376 . S
N652 C656 1.383 . S
C653 N652 1.376 . S
C653 C654 1.446 . S
C653 C676 1.391 . S
C654 C653 1.446 . S
C654 C655 1.339 . S
C654 H683 0.949 . S
C655 C654 1.339 . S
C655 C656 1.439 . S
C655 H684 0.950 . S
C656 N652 1.383 . S
C656 C655 1.439 . S
C656 C674 1.392 1_545 S
N657 Co641 2.282 1_565 S
N657 C660 1.332 1_565 S
N657 C662 1.332 . S
C658 C659 1.386 . S
C658 C661 1.388 . S
C659 C658 1.386 . S
C659 C660 1.382 1_565 S
C659 H685 0.950 1_565 S
C660 N657 1.332 1_545 S
C660 C659 1.382 1_545 S
C660 H671 0.952 . S
C661 C658 1.388 . S
C661 C662 1.382 . S
C661 H686 0.950 . S
C662 N657 1.332 . S
C662 C661 1.382 . S
C662 H672 0.948 . S
N663 Co641 2.282 . S
N663 C667 1.332 1_545 S
N663 C668 1.332 . S
C664 C665 1.388 . S
C664 C668 1.382 . S
C664 H687 0.950 . S
C665 C664 1.388 . S
C665 C666 1.386 . S
C666 C665 1.386 . S
C666 C667 1.382 1_545 S
C666 H688 0.950 1_545 S
C667 N663 1.332 1_565 S
C667 C666 1.382 1_565 S
C667 H669 0.952 . S
C668 N663 1.332 . S
C668 C664 1.382 . S
C668 H670 0.948 . S
H669 C667 0.952 . S
H670 C668 0.948 . S
H671 C660 0.952 . S
H672 C662 0.948 . S
C673 C639 1.395 . S
C673 C643 1.391 . S
C674 C636 1.389 . S
C674 C656 1.392 1_565 S
C675 C646 1.392 1_545 S
C675 C648 1.389 . S
C676 C651 1.395 . S
C676 C653 1.391 . S
H677 C637 0.951 . S
H678 C638 0.950 . S
H679 C644 0.949 . S
H680 C645 0.950 . S
H681 C649 0.951 . S
H682 C650 0.950 . S
H683 C654 0.949 . S
H684 C655 0.950 . S
H685 C659 0.950 1_545 S
H686 C661 0.950 . S
H687 C664 0.950 . S
H688 C666 0.950 1_565 S
C689 C690 1.443 . S
C689 N693 1.376 . S
C689 C727 1.389 . S
C690 C689 1.443 . S
C690 C691 1.340 . S
C690 H730 0.951 . S
C691 C690 1.340 . S
C691 C692 1.439 . S
C691 H731 0.950 . S
C692 C691 1.439 . S
C692 N693 1.374 . S
C692 C726 1.395 . S
N693 C689 1.376 . S
N693 C692 1.374 . S
N693 Co694 2.008 . S
Co694 N693 2.008 . S
Co694 N695 1.995 . S
Co694 N700 2.008 . S
Co694 N705 1.995 . S
Co694 N710 2.282 . S
Co694 N716 2.282 . S
N695 Co694 1.995 . S
N695 C696 1.376 . S
N695 C699 1.383 . S
C696 N695 1.376 . S
C696 C697 1.446 . S
C696 C726 1.391 . S
C697 C696 1.446 . S
C697 C698 1.339 . S
C697 H732 0.949 . S
C698 C697 1.339 . S
C698 C699 1.439 . S
C698 H733 0.950 . S
C699 N695 1.383 . S
C699 C698 1.439 . S
C699 C728 1.392 . S
N700 Co694 2.008 . S
N700 C701 1.376 . S
N700 C704 1.374 . S
C701 N700 1.376 . S
C701 C702 1.443 . S
C701 C728 1.389 . S
C702 C701 1.443 . S
C702 C703 1.340 . S
C702 H734 0.951 . S
C703 C702 1.340 . S
C703 C704 1.439 . S
C703 H735 0.950 . S
C704 N700 1.374 . S
C704 C703 1.439 . S
C704 C729 1.395 . S
N705 Co694 1.995 . S
N705 C706 1.376 . S
N705 C709 1.383 . S
C706 N705 1.376 . S
C706 C707 1.446 . S
C706 C729 1.391 . S
C707 C706 1.446 . S
C707 C708 1.339 . S
C707 H736 0.949 . S
C708 C707 1.339 . S
C708 C709 1.439 . S
C708 H737 0.950 . S
C709 N705 1.383 . S
C709 C708 1.439 . S
C709 C727 1.392 . S
N710 Co694 2.282 . S
N710 C713 1.332 . S
N710 C715 1.332 . S
C711 C712 1.386 . S
C711 C714 1.388 . S
C712 C711 1.386 . S
C712 C713 1.382 . S
C712 H738 0.950 . S
C713 N710 1.332 . S
C713 C712 1.382 . S
C713 H724 0.952 . S
C714 C711 1.388 . S
C714 C715 1.382 . S
C714 H739 0.950 . S
C715 N710 1.332 . S
C715 C714 1.382 . S
C715 H725 0.948 . S
N716 Co694 2.282 . S
N716 C720 1.332 . S
N716 C721 1.332 . S
C717 C718 1.388 . S
C717 C721 1.382 . S
C717 H740 0.950 . S
C718 C717 1.388 . S
C718 C719 1.386 . S
C719 C718 1.386 . S
C719 C720 1.382 . S
C719 H741 0.950 . S
C720 N716 1.332 . S
C720 C719 1.382 . S
C720 H722 0.952 . S
C721 N716 1.332 . S
C721 C717 1.382 . S
C721 H723 0.948 . S
H722 C720 0.952 . S
H723 C721 0.948 . S
H724 C713 0.952 . S
H725 C715 0.948 . S
C726 C692 1.395 . S
C726 C696 1.391 . S
C727 C689 1.389 . S
C727 C709 1.392 . S
C728 C699 1.392 . S
C728 C701 1.389 . S
C729 C704 1.395 . S
C729 C706 1.391 . S
H730 C690 0.951 . S
H731 C691 0.950 . S
H732 C697 0.949 . S
H733 C698 0.950 . S
H734 C702 0.951 . S
H735 C703 0.950 . S
H736 C707 0.949 . S
H737 C708 0.950 . S
H738 C712 0.950 . S
H739 C714 0.950 . S
H740 C717 0.950 . S
H741 C719 0.950 . S
C742 C743 1.443 . S
C742 N746 1.376 . S
C742 C780 1.389 . S
C743 C742 1.443 . S
C743 C744 1.340 . S
C743 H783 0.951 . S
C744 C743 1.340 . S
C744 C745 1.439 . S
C744 H784 0.950 . S
C745 C744 1.439 . S
C745 N746 1.374 . S
C745 C779 1.395 . S
N746 C742 1.376 . S
N746 C745 1.374 . S
N746 Co747 2.008 . S
Co747 N746 2.008 . S
Co747 N748 1.995 . S
Co747 N753 2.008 . S
Co747 N758 1.995 . S
Co747 N763 2.282 . S
Co747 N769 2.282 . S
N748 Co747 1.995 . S
N748 C749 1.376 . S
N748 C752 1.383 . S
C749 N748 1.376 . S
C749 C750 1.446 . S
C749 C779 1.391 . S
C750 C749 1.446 . S
C750 C751 1.339 . S
C750 H785 0.949 . S
C751 C750 1.339 . S
C751 C752 1.439 . S
C751 H786 0.950 . S
C752 N748 1.383 . S
C752 C751 1.439 . S
C752 C781 1.392 . S
N753 Co747 2.008 . S
N753 C754 1.376 . S
N753 C757 1.374 . S
C754 N753 1.376 . S
C754 C755 1.443 . S
C754 C781 1.389 . S
C755 C754 1.443 . S
C755 C756 1.340 . S
C755 H787 0.951 . S
C756 C755 1.340 . S
C756 C757 1.439 . S
C756 H788 0.950 . S
C757 N753 1.374 . S
C757 C756 1.439 . S
C757 C782 1.395 . S
N758 Co747 1.995 . S
N758 C759 1.376 . S
N758 C762 1.383 . S
C759 N758 1.376 . S
C759 C760 1.446 . S
C759 C782 1.391 . S
C760 C759 1.446 . S
C760 C761 1.339 . S
C760 H789 0.949 . S
C761 C760 1.339 . S
C761 C762 1.439 . S
C761 H790 0.950 . S
C762 N758 1.383 . S
C762 C761 1.439 . S
C762 C780 1.392 . S
N763 Co747 2.282 . S
N763 C766 1.332 . S
N763 C768 1.332 . S
C764 C765 1.386 . S
C764 C767 1.388 . S
C765 C764 1.386 . S
C765 C766 1.382 . S
C765 H791 0.950 . S
C766 N763 1.332 . S
C766 C765 1.382 . S
C766 H777 0.952 . S
C767 C764 1.388 . S
C767 C768 1.382 . S
C767 H792 0.950 . S
C768 N763 1.332 . S
C768 C767 1.382 . S
C768 H778 0.948 . S
N769 Co747 2.282 . S
N769 C773 1.332 . S
N769 C774 1.332 . S
C770 C771 1.388 . S
C770 C774 1.382 . S
C770 H793 0.950 . S
C771 C770 1.388 . S
C771 C772 1.386 . S
C772 C771 1.386 . S
C772 C773 1.382 . S
C772 H794 0.950 . S
C773 N769 1.332 . S
C773 C772 1.382 . S
C773 H775 0.952 . S
C774 N769 1.332 . S
C774 C770 1.382 . S
C774 H776 0.948 . S
H775 C773 0.952 . S
H776 C774 0.948 . S
H777 C766 0.952 . S
H778 C768 0.948 . S
C779 C745 1.395 . S
C779 C749 1.391 . S
C780 C742 1.389 . S
C780 C762 1.392 . S
C781 C752 1.392 . S
C781 C754 1.389 . S
C782 C757 1.395 . S
C782 C759 1.391 . S
H783 C743 0.951 . S
H784 C744 0.950 . S
H785 C750 0.949 . S
H786 C751 0.950 . S
H787 C755 0.951 . S
H788 C756 0.950 . S
H789 C760 0.949 . S
H790 C761 0.950 . S
H791 C765 0.950 . S
H792 C767 0.950 . S
H793 C770 0.950 . S
H794 C772 0.950 . S
C795 C796 1.443 . S
C795 N799 1.376 . S
C795 C833 1.389 . S
C796 C795 1.443 . S
C796 C797 1.340 . S
C796 H836 0.951 . S
C797 C796 1.340 . S
C797 C798 1.439 . S
C797 H837 0.950 . S
C798 C797 1.439 . S
C798 N799 1.374 . S
C798 C832 1.395 . S
N799 C795 1.376 . S
N799 C798 1.374 . S
N799 Co800 2.008 1_655 S
Co800 N799 2.008 1_455 S
Co800 N801 1.995 1_455 S
Co800 N806 2.008 . S
Co800 N811 1.995 . S
Co800 N816 2.282 1_455 S
Co800 N822 2.282 . S
N801 Co800 1.995 1_655 S
N801 C802 1.376 . S
N801 C805 1.383 . S
C802 N801 1.376 . S
C802 C803 1.446 . S
C802 C832 1.391 . S
C803 C802 1.446 . S
C803 C804 1.339 . S
C803 H838 0.949 . S
C804 C803 1.339 . S
C804 C805 1.439 . S
C804 H839 0.950 . S
C805 N801 1.383 . S
C805 C804 1.439 . S
C805 C834 1.392 1_655 S
N806 Co800 2.008 . S
N806 C807 1.376 . S
N806 C810 1.374 . S
C807 N806 1.376 . S
C807 C808 1.443 . S
C807 C834 1.389 . S
C808 C807 1.443 . S
C808 C809 1.340 . S
C808 H840 0.951 . S
C809 C808 1.340 . S
C809 C810 1.439 . S
C809 H841 0.950 . S
C810 N806 1.374 . S
C810 C809 1.439 . S
C810 C835 1.395 . S
N811 Co800 1.995 . S
N811 C812 1.376 . S
N811 C815 1.383 . S
C812 N811 1.376 . S
C812 C813 1.446 . S
C812 C835 1.391 . S
C813 C812 1.446 . S
C813 C814 1.339 . S
C813 H842 0.949 . S
C814 C813 1.339 . S
C814 C815 1.439 . S
C814 H843 0.950 . S
C815 N811 1.383 . S
C815 C814 1.439 . S
C815 C833 1.392 1_455 S
N816 Co800 2.282 1_655 S
N816 C819 1.332 . S
N816 C821 1.332 . S
C817 C818 1.386 . S
C817 C820 1.388 . S
C818 C817 1.386 . S
C818 C819 1.382 . S
C818 H844 0.954 1_655 S
C819 N816 1.332 . S
C819 C818 1.382 . S
C819 H830 0.952 1_655 S
C820 C817 1.388 . S
C820 C821 1.382 . S
C820 H845 0.950 . S
C821 N816 1.332 . S
C821 C820 1.382 . S
C821 H831 0.948 . S
N822 Co800 2.282 . S
N822 C826 1.332 . S
N822 C827 1.332 . S
C823 C824 1.388 . S
C823 C827 1.382 . S
C823 H846 0.950 . S
C824 C823 1.388 . S
C824 C825 1.386 . S
C825 C824 1.386 . S
C825 C826 1.382 . S
C825 H847 0.954 . S
C826 N822 1.332 . S
C826 C825 1.382 . S
C826 H828 0.952 1_455 S
C827 N822 1.332 . S
C827 C823 1.382 . S
C827 H829 0.948 . S
H828 C826 0.952 1_655 S
H829 C827 0.948 . S
H830 C819 0.952 1_455 S
H831 C821 0.948 . S
C832 C798 1.395 . S
C832 C802 1.391 . S
C833 C795 1.389 . S
C833 C815 1.392 1_655 S
C834 C805 1.392 1_455 S
C834 C807 1.389 . S
C835 C810 1.395 . S
C835 C812 1.391 . S
H836 C796 0.951 . S
H837 C797 0.950 . S
H838 C803 0.949 . S
H839 C804 0.950 . S
H840 C808 0.951 . S
H841 C809 0.950 . S
H842 C813 0.949 . S
H843 C814 0.950 . S
H844 C818 0.954 1_455 S
H845 C820 0.950 . S
H846 C823 0.950 . S
H847 C825 0.954 . S
H848 C856 0.950 . S
H849 C861 0.950 . S
H850 C858 0.950 . S
H851 C860 0.950 . S
H852 C862 0.950 . S
H853 C864 0.950 . S
H854 C866 0.950 . S
H855 C867 0.950 . S
C856 H848 0.950 . S
C856 C857 1.386 . S
C856 C858 1.391 . S
C857 C856 1.386 . S
C857 C861 1.393 . S
C858 H850 0.950 . S
C858 C856 1.391 . S
C858 C859 1.400 . S
C859 C858 1.400 . S
C859 C860 1.398 . S
C859 C865 1.491 . S
C860 H851 0.950 . S
C860 C859 1.398 . S
C860 C861 1.391 . S
C861 H849 0.950 . S
C861 C857 1.393 . S
C861 C860 1.391 . S
C862 H852 0.950 . S
C862 C863 1.386 . S
C862 C864 1.391 . S
C863 C862 1.386 . S
C863 C867 1.393 . S
C864 H853 0.950 . S
C864 C862 1.391 . S
C864 C865 1.400 . S
C865 C859 1.491 . S
C865 C864 1.400 . S
C865 C866 1.398 . S
C866 H854 0.950 . S
C866 C865 1.398 . S
C866 C867 1.391 . S
C867 H855 0.950 . S
C867 C863 1.393 . S
C867 C866 1.391 . S
H868 C876 0.950 . S
H869 C881 0.950 . S
H870 C878 0.950 . S
H871 C880 0.950 . S
H872 C882 0.950 . S
H873 C884 0.950 . S
H874 C886 0.950 . S
H875 C887 0.950 . S
C876 H868 0.950 . S
C876 C877 1.386 . S
C876 C878 1.391 . S
C877 C876 1.386 . S
C877 C881 1.393 . S
C878 H870 0.950 . S
C878 C876 1.391 . S
C878 C879 1.400 . S
C879 C878 1.400 . S
C879 C880 1.398 . S
C879 C885 1.491 . S
C880 H871 0.950 . S
C880 C879 1.398 . S
C880 C881 1.391 . S
C881 H869 0.950 . S
C881 C877 1.393 . S
C881 C880 1.391 . S
C882 H872 0.950 . S
C882 C883 1.386 . S
C882 C884 1.391 . S
C883 C882 1.386 . S
C883 C887 1.393 . S
C884 H873 0.950 . S
C884 C882 1.391 . S
C884 C885 1.400 . S
C885 C879 1.491 . S
C885 C884 1.400 . S
C885 C886 1.398 . S
C886 H874 0.950 . S
C886 C885 1.398 . S
C886 C887 1.391 . S
C887 H875 0.950 . S
C887 C883 1.393 . S
C887 C886 1.391 . S
H888 C896 0.950 . S
H889 C901 0.950 . S
H890 C898 0.950 . S
H891 C900 0.950 . S
H892 C902 0.950 . S
H893 C904 0.950 . S
H894 C906 0.950 . S
H895 C907 0.950 . S
C896 H888 0.950 . S
C896 C897 1.386 . S
C896 C898 1.391 . S
C897 C896 1.386 . S
C897 C901 1.393 . S
C898 H890 0.950 . S
C898 C896 1.391 . S
C898 C899 1.400 . S
C899 C898 1.400 . S
C899 C900 1.398 . S
C899 C905 1.491 . S
C900 H891 0.950 . S
C900 C899 1.398 . S
C900 C901 1.391 . S
C901 H889 0.950 . S
C901 C897 1.393 . S
C901 C900 1.391 . S
C902 H892 0.950 . S
C902 C903 1.386 . S
C902 C904 1.391 . S
C903 C902 1.386 . S
C903 C907 1.393 . S
C904 H893 0.950 . S
C904 C902 1.391 . S
C904 C905 1.400 . S
C905 C899 1.491 . S
C905 C904 1.400 . S
C905 C906 1.398 . S
C906 H894 0.950 . S
C906 C905 1.398 . S
C906 C907 1.391 . S
C907 H895 0.950 . S
C907 C903 1.393 . S
C907 C906 1.391 . S
H908 C916 0.950 . S
H909 C921 0.950 1_655 S
H910 C918 0.950 . S
H911 C920 0.950 1_655 S
H912 C922 0.950 . S
H913 C924 0.950 . S
H914 C926 0.950 . S
H915 C927 0.950 . S
C916 H908 0.950 . S
C916 C917 1.386 . S
C916 C918 1.391 . S
C917 C916 1.386 . S
C917 C921 1.393 . S
C918 H910 0.950 . S
C918 C916 1.391 . S
C918 C919 1.400 . S
C919 C918 1.400 . S
C919 C920 1.398 . S
C919 C925 1.491 . S
C920 H911 0.950 1_455 S
C920 C919 1.398 . S
C920 C921 1.391 . S
C921 H909 0.950 1_455 S
C921 C917 1.393 . S
C921 C920 1.391 . S
C922 H912 0.950 . S
C922 C923 1.386 . S
C922 C924 1.391 . S
C923 C922 1.386 . S
C923 C927 1.393 . S
C924 H913 0.950 . S
C924 C922 1.391 . S
C924 C925 1.400 . S
C925 C919 1.491 . S
C925 C924 1.400 . S
C925 C926 1.398 . S
C926 H914 0.950 . S
C926 C925 1.398 . S
C926 C927 1.391 . S
C927 H915 0.950 . S
C927 C923 1.393 . S
C927 C926 1.391 . S
H928 C936 0.950 . S
H929 C941 0.950 1_545 S
H930 C938 0.950 . S
H931 C940 0.950 . S
H932 C942 0.950 . S
H933 C944 0.950 . S
H934 C946 0.950 . S
H935 C947 0.950 . S
C936 H928 0.950 . S
C936 C937 1.386 . S
C936 C938 1.391 . S
C937 C936 1.386 . S
C937 C941 1.393 . S
C938 H930 0.950 . S
C938 C936 1.391 . S
C938 C939 1.400 . S
C939 C938 1.400 . S
C939 C940 1.398 . S
C939 C945 1.491 . S
C940 H931 0.950 . S
C940 C939 1.398 . S
C940 C941 1.391 . S
C941 H929 0.950 1_565 S
C941 C937 1.393 . S
C941 C940 1.391 . S
C942 H932 0.950 . S
C942 C943 1.386 . S
C942 C944 1.391 . S
C943 C942 1.386 . S
C943 C947 1.393 . S
C944 H933 0.950 . S
C944 C942 1.391 . S
C944 C945 1.400 . S
C945 C939 1.491 . S
C945 C944 1.400 . S
C945 C946 1.398 . S
C946 H934 0.950 . S
C946 C945 1.398 . S
C946 C947 1.391 . S
C947 H935 0.950 . S
C947 C943 1.393 . S
C947 C946 1.391 . S
H948 C956 0.950 . S
H949 C961 0.950 . S
H950 C958 0.950 . S
H951 C960 0.950 . S
H952 C962 0.950 . S
H953 C964 0.950 . S
H954 C966 0.950 . S
H955 C967 0.950 . S
C956 H948 0.950 . S
C956 C957 1.386 . S
C956 C958 1.391 . S
C957 C956 1.386 . S
C957 C961 1.393 . S
C958 H950 0.950 . S
C958 C956 1.391 . S
C958 C959 1.400 . S
C959 C958 1.400 . S
C959 C960 1.398 . S
C959 C965 1.491 . S
C960 H951 0.950 . S
C960 C959 1.398 . S
C960 C961 1.391 . S
C961 H949 0.950 . S
C961 C957 1.393 . S
C961 C960 1.391 . S
C962 H952 0.950 . S
C962 C963 1.386 . S
C962 C964 1.391 . S
C963 C962 1.386 . S
C963 C967 1.393 . S
C964 H953 0.950 . S
C964 C962 1.391 . S
C964 C965 1.400 . S
C965 C959 1.491 . S
C965 C964 1.400 . S
C965 C966 1.398 . S
C966 H954 0.950 . S
C966 C965 1.398 . S
C966 C967 1.391 . S
C967 H955 0.950 . S
C967 C963 1.393 . S
C967 C966 1.391 . S
H968 C976 0.950 . S
H969 C981 0.950 . S
H970 C978 0.950 . S
H971 C980 0.950 . S
H972 C982 0.950 . S
H973 C984 0.950 . S
H974 C986 0.950 . S
H975 C987 0.950 . S
C976 H968 0.950 . S
C976 C977 1.386 . S
C976 C978 1.391 . S
C977 C976 1.386 . S
C977 C981 1.393 . S
C978 H970 0.950 . S
C978 C976 1.391 . S
C978 C979 1.400 . S
C979 C978 1.400 . S
C979 C980 1.398 . S
C979 C985 1.491 . S
C980 H971 0.950 . S
C980 C979 1.398 . S
C980 C981 1.391 . S
C981 H969 0.950 . S
C981 C977 1.393 . S
C981 C980 1.391 . S
C982 H972 0.950 . S
C982 C983 1.386 . S
C982 C984 1.391 . S
C983 C982 1.386 . S
C983 C987 1.393 . S
C984 H973 0.950 . S
C984 C982 1.391 . S
C984 C985 1.400 . S
C985 C979 1.491 . S
C985 C984 1.400 . S
C985 C986 1.398 . S
C986 H974 0.950 . S
C986 C985 1.398 . S
C986 C987 1.391 . S
C987 H975 0.950 . S
C987 C983 1.393 . S
C987 C986 1.391 . S
H988 C996 0.950 . S
H989 C1001 0.950 . S
H990 C998 0.950 . S
H991 C1000 0.950 . S
H992 C1002 0.950 . S
H993 C1004 0.950 . S
H994 C1006 0.950 . S
H995 C1007 0.950 1_565 S
C996 H988 0.950 . S
C996 C997 1.386 . S
C996 C998 1.391 . S
C997 C996 1.386 . S
C997 C1001 1.393 . S
C998 H990 0.950 . S
C998 C996 1.391 . S
C998 C999 1.400 . S
C999 C998 1.400 . S
C999 C1000 1.398 . S
C999 C1005 1.491 . S
C1000 H991 0.950 . S
C1000 C999 1.398 . S
C1000 C1001 1.391 . S
C1001 H989 0.950 . S
C1001 C997 1.393 . S
C1001 C1000 1.391 . S
C1002 H992 0.950 . S
C1002 C1003 1.386 . S
C1002 C1004 1.391 . S
C1003 C1002 1.386 . S
C1003 C1007 1.393 . S
C1004 H993 0.950 . S
C1004 C1002 1.391 . S
C1004 C1005 1.400 . S
C1005 C999 1.491 . S
C1005 C1004 1.400 . S
C1005 C1006 1.398 . S
C1006 H994 0.950 . S
C1006 C1005 1.398 . S
C1006 C1007 1.391 . S
C1007 H995 0.950 1_545 S
C1007 C1003 1.393 . S
C1007 C1006 1.391 . S
H1008 C1016 0.950 . S
H1009 C1021 0.950 . S
H1010 C1018 0.950 . S
H1011 C1020 0.950 . S
H1012 C1022 0.950 . S
H1013 C1024 0.950 1_545 S
H1014 C1026 0.950 . S
H1015 C1027 0.950 . S
C1016 H1008 0.950 . S
C1016 C1017 1.386 . S
C1016 C1018 1.391 . S
C1017 C1016 1.386 . S
C1017 C1021 1.393 . S
C1018 H1010 0.950 . S
C1018 C1016 1.391 . S
C1018 C1019 1.400 . S
C1019 C1018 1.400 . S
C1019 C1020 1.398 . S
C1019 C1025 1.491 . S
C1020 H1011 0.950 . S
C1020 C1019 1.398 . S
C1020 C1021 1.391 . S
C1021 H1009 0.950 . S
C1021 C1017 1.393 . S
C1021 C1020 1.391 . S
C1022 H1012 0.950 . S
C1022 C1023 1.386 1_545 S
C1022 C1024 1.391 1_545 S
C1023 C1022 1.386 1_565 S
C1023 C1027 1.393 . S
C1024 H1013 0.950 1_565 S
C1024 C1022 1.391 1_565 S
C1024 C1025 1.400 . S
C1025 C1019 1.491 . S
C1025 C1024 1.400 . S
C1025 C1026 1.398 . S
C1026 H1014 0.950 . S
C1026 C1025 1.398 . S
C1026 C1027 1.391 . S
C1027 H1015 0.950 . S
C1027 C1023 1.393 . S
C1027 C1026 1.391 . S
H1028 C1036 0.950 . S
H1029 C1041 0.950 . S
H1030 C1038 0.950 . S
H1031 C1040 0.950 . S
H1032 C1042 0.950 . S
H1033 C1044 0.950 . S
H1034 C1046 0.950 . S
H1035 C1047 0.950 . S
C1036 H1028 0.950 . S
C1036 C1037 1.386 . S
C1036 C1038 1.391 . S
C1037 C1036 1.386 . S
C1037 C1041 1.393 . S
C1038 H1030 0.950 . S
C1038 C1036 1.391 . S
C1038 C1039 1.400 . S
C1039 C1038 1.400 . S
C1039 C1040 1.398 . S
C1039 C1045 1.491 . S
C1040 H1031 0.950 . S
C1040 C1039 1.398 . S
C1040 C1041 1.391 . S
C1041 H1029 0.950 . S
C1041 C1037 1.393 . S
C1041 C1040 1.391 . S
C1042 H1032 0.950 . S
C1042 C1043 1.386 . S
C1042 C1044 1.391 . S
C1043 C1042 1.386 . S
C1043 C1047 1.393 . S
C1044 H1033 0.950 . S
C1044 C1042 1.391 . S
C1044 C1045 1.400 . S
C1045 C1039 1.491 . S
C1045 C1044 1.400 . S
C1045 C1046 1.398 . S
C1046 H1034 0.950 . S
C1046 C1045 1.398 . S
C1046 C1047 1.391 . S
C1047 H1035 0.950 . S
C1047 C1043 1.393 . S
C1047 C1046 1.391 . S
H1048 C1056 0.950 . S
H1049 C1061 0.950 . S
H1050 C1058 0.950 . S
H1051 C1060 0.950 . S
H1052 C1062 0.950 . S
H1053 C1064 0.950 . S
H1054 C1066 0.950 . S
H1055 C1067 0.950 . S
C1056 H1048 0.950 . S
C1056 C1057 1.386 . S
C1056 C1058 1.391 . S
C1057 C1056 1.386 . S
C1057 C1061 1.393 . S
C1058 H1050 0.950 . S
C1058 C1056 1.391 . S
C1058 C1059 1.400 . S
C1059 C1058 1.400 . S
C1059 C1060 1.398 . S
C1059 C1065 1.491 . S
C1060 H1051 0.950 . S
C1060 C1059 1.398 . S
C1060 C1061 1.391 . S
C1061 H1049 0.950 . S
C1061 C1057 1.393 . S
C1061 C1060 1.391 . S
C1062 H1052 0.950 . S
C1062 C1063 1.386 . S
C1062 C1064 1.391 . S
C1063 C1062 1.386 . S
C1063 C1067 1.393 . S
C1064 H1053 0.950 . S
C1064 C1062 1.391 . S
C1064 C1065 1.400 . S
C1065 C1059 1.491 . S
C1065 C1064 1.400 . S
C1065 C1066 1.398 . S
C1066 H1054 0.950 . S
C1066 C1065 1.398 . S
C1066 C1067 1.391 . S
C1067 H1055 0.950 . S
C1067 C1063 1.393 . S
C1067 C1066 1.391 . S
H1068 C1076 0.950 . S
H1069 C1081 0.950 . S
H1070 C1078 0.950 . S
H1071 C1080 0.950 . S
H1072 C1082 0.950 . S
H1073 C1084 0.950 . S
H1074 C1086 0.950 . S
H1075 C1087 0.950 . S
C1076 H1068 0.950 . S
C1076 C1077 1.386 . S
C1076 C1078 1.391 . S
C1077 C1076 1.386 . S
C1077 C1081 1.393 1_655 S
C1078 H1070 0.950 . S
C1078 C1076 1.391 . S
C1078 C1079 1.400 . S
C1079 C1078 1.400 . S
C1079 C1080 1.398 1_655 S
C1079 C1085 1.491 . S
C1080 H1071 0.950 . S
C1080 C1079 1.398 1_455 S
C1080 C1081 1.391 . S
C1081 H1069 0.950 . S
C1081 C1077 1.393 1_455 S
C1081 C1080 1.391 . S
C1082 H1072 0.950 . S
C1082 C1083 1.375 1_455 S
C1082 C1084 1.391 . S
C1083 C1082 1.375 1_655 S
C1083 C1087 1.404 . S
C1084 H1073 0.950 . S
C1084 C1082 1.391 . S
C1084 C1085 1.400 1_455 S
C1085 C1079 1.491 . S
C1085 C1084 1.400 1_655 S
C1085 C1086 1.398 . S
C1086 H1074 0.950 . S
C1086 C1085 1.398 . S
C1086 C1087 1.391 . S
C1087 H1075 0.950 . S
C1087 C1083 1.404 . S
C1087 C1086 1.391 . S
H1088 C1096 0.950 . S
H1089 C1101 0.950 . S
H1090 C1098 0.950 . S
H1091 C1100 0.950 . S
H1092 C1102 0.950 . S
H1093 C1104 0.950 . S
H1094 C1106 0.950 . S
H1095 C1107 0.943 1_565 S
C1096 H1088 0.950 . S
C1096 C1097 1.386 . S
C1096 C1098 1.391 . S
C1097 C1096 1.386 . S
C1097 C1101 1.393 . S
C1098 H1090 0.950 . S
C1098 C1096 1.391 . S
C1098 C1099 1.400 . S
C1099 C1098 1.400 . S
C1099 C1100 1.398 . S
C1099 C1105 1.491 . S
C1100 H1091 0.950 . S
C1100 C1099 1.398 . S
C1100 C1101 1.391 . S
C1101 H1089 0.950 . S
C1101 C1097 1.393 . S
C1101 C1100 1.391 . S
C1102 H1092 0.950 . S
C1102 C1103 1.386 . S
C1102 C1104 1.391 . S
C1103 C1102 1.386 . S
C1103 C1107 1.397 . S
C1104 H1093 0.950 . S
C1104 C1102 1.391 . S
C1104 C1105 1.400 . S
C1105 C1099 1.491 . S
C1105 C1104 1.400 . S
C1105 C1106 1.398 . S
C1106 H1094 0.950 . S
C1106 C1105 1.398 . S
C1106 C1107 1.395 . S
C1107 H1095 0.943 1_545 S
C1107 C1103 1.397 . S
C1107 C1106 1.395 . S
H1108 C1116 0.950 . S
H1109 C1121 0.950 . S
H1110 C1118 0.950 . S
H1111 C1120 0.950 . S
H1112 C1122 0.950 . S
H1113 C1124 0.950 . S
H1114 C1126 0.950 . S
H1115 C1127 0.950 . S
C1116 H1108 0.950 . S
C1116 C1117 1.386 . S
C1116 C1118 1.391 . S
C1117 C1116 1.386 . S
C1117 C1121 1.393 . S
C1118 H1110 0.950 . S
C1118 C1116 1.391 . S
C1118 C1119 1.400 . S
C1119 C1118 1.400 . S
C1119 C1120 1.398 . S
C1119 C1125 1.491 . S
C1120 H1111 0.950 . S
C1120 C1119 1.398 . S
C1120 C1121 1.391 . S
C1121 H1109 0.950 . S
C1121 C1117 1.393 . S
C1121 C1120 1.391 . S
C1122 H1112 0.950 . S
C1122 C1123 1.386 . S
C1122 C1124 1.391 . S
C1123 C1122 1.386 . S
C1123 C1127 1.393 . S
C1124 H1113 0.950 . S
C1124 C1122 1.391 . S
C1124 C1125 1.400 . S
C1125 C1119 1.491 . S
C1125 C1124 1.400 . S
C1125 C1126 1.398 . S
C1126 H1114 0.950 . S
C1126 C1125 1.398 . S
C1126 C1127 1.391 . S
C1127 H1115 0.950 . S
C1127 C1123 1.393 . S
C1127 C1126 1.391 . S
H1128 C1136 0.950 . S
H1129 C1141 0.950 . S
H1130 C1138 0.950 . S
H1131 C1140 0.950 . S
H1132 C1142 0.950 . S
H1133 C1144 0.950 . S
H1134 C1146 0.950 . S
H1135 C1147 0.950 . S
C1136 H1128 0.950 . S
C1136 C1137 1.386 . S
C1136 C1138 1.391 . S
C1137 C1136 1.386 . S
C1137 C1141 1.393 . S
C1138 H1130 0.950 . S
C1138 C1136 1.391 . S
C1138 C1139 1.400 . S
C1139 C1138 1.400 . S
C1139 C1140 1.398 . S
C1139 C1145 1.491 . S
C1140 H1131 0.950 . S
C1140 C1139 1.398 . S
C1140 C1141 1.391 . S
C1141 H1129 0.950 . S
C1141 C1137 1.393 . S
C1141 C1140 1.391 . S
C1142 H1132 0.950 . S
C1142 C1143 1.386 . S
C1142 C1144 1.391 . S
C1143 C1142 1.386 . S
C1143 C1147 1.393 . S
C1144 H1133 0.950 . S
C1144 C1142 1.391 . S
C1144 C1145 1.400 . S
C1145 C1139 1.491 . S
C1145 C1144 1.400 . S
C1145 C1146 1.398 . S
C1146 H1134 0.950 . S
C1146 C1145 1.398 . S
C1146 C1147 1.391 . S
C1147 H1135 0.950 . S
C1147 C1143 1.393 . S
C1147 C1146 1.391 . S
H1148 C1156 0.950 . S
H1149 C1161 0.950 . S
H1150 C1158 0.950 . S
H1151 C1160 0.950 . S
H1152 C1162 0.950 . S
H1153 C1164 0.950 . S
H1154 C1166 0.950 . S
H1155 C1167 0.950 . S
C1156 H1148 0.950 . S
C1156 C1157 1.386 . S
C1156 C1158 1.391 . S
C1157 C1156 1.386 . S
C1157 C1161 1.393 1_455 S
C1158 H1150 0.950 . S
C1158 C1156 1.391 . S
C1158 C1159 1.400 . S
C1159 C1158 1.400 . S
C1159 C1160 1.398 1_455 S
C1159 C1165 1.491 . S
C1160 H1151 0.950 . S
C1160 C1159 1.398 1_655 S
C1160 C1161 1.391 . S
C1161 H1149 0.950 . S
C1161 C1157 1.393 1_655 S
C1161 C1160 1.391 . S
C1162 H1152 0.950 . S
C1162 C1163 1.386 1_655 S
C1162 C1164 1.391 . S
C1163 C1162 1.386 1_455 S
C1163 C1167 1.393 . S
C1164 H1153 0.950 . S
C1164 C1162 1.391 . S
C1164 C1165 1.400 1_655 S
C1165 C1159 1.491 . S
C1165 C1164 1.400 1_455 S
C1165 C1166 1.398 . S
C1166 H1154 0.950 . S
C1166 C1165 1.398 . S
C1166 C1167 1.391 . S
C1167 H1155 0.950 . S
C1167 C1163 1.393 . S
C1167 C1166 1.391 . S
H1168 C1176 0.950 1_565 S
H1169 C1181 0.950 . S
H1170 C1178 0.950 . S
H1171 C1180 0.950 . S
H1172 C1182 0.950 . S
H1173 C1184 0.950 . S
H1174 C1186 0.950 . S
H1175 C1187 0.950 . S
C1176 H1168 0.950 1_545 S
C1176 C1177 1.386 . S
C1176 C1178 1.391 . S
C1177 C1176 1.386 . S
C1177 C1181 1.393 . S
C1178 H1170 0.950 . S
C1178 C1176 1.391 . S
C1178 C1179 1.400 . S
C1179 C1178 1.400 . S
C1179 C1180 1.398 . S
C1179 C1185 1.491 . S
C1180 H1171 0.950 . S
C1180 C1179 1.398 . S
C1180 C1181 1.391 . S
C1181 H1169 0.950 . S
C1181 C1177 1.393 . S
C1181 C1180 1.391 . S
C1182 H1172 0.950 . S
C1182 C1183 1.386 . S
C1182 C1184 1.391 . S
C1183 C1182 1.386 . S
C1183 C1187 1.393 . S
C1184 H1173 0.950 . S
C1184 C1182 1.391 . S
C1184 C1185 1.400 . S
C1185 C1179 1.491 . S
C1185 C1184 1.400 . S
C1185 C1186 1.398 . S
C1186 H1174 0.950 . S
C1186 C1185 1.398 . S
C1186 C1187 1.391 . S
C1187 H1175 0.950 . S
C1187 C1183 1.393 . S
C1187 C1186 1.391 . S
H1188 C1196 0.950 . S
H1189 C1201 0.950 . S
H1190 C1198 0.950 . S
H1191 C1200 0.950 . S
H1192 C1202 0.950 . S
H1193 C1204 0.950 . S
H1194 C1206 0.950 . S
H1195 C1207 0.950 . S
C1196 H1188 0.950 . S
C1196 C1197 1.386 . S
C1196 C1198 1.391 . S
C1197 C1196 1.386 . S
C1197 C1201 1.393 . S
C1198 H1190 0.950 . S
C1198 C1196 1.391 . S
C1198 C1199 1.400 . S
C1199 C1198 1.400 . S
C1199 C1200 1.398 . S
C1199 C1205 1.491 . S
C1200 H1191 0.950 . S
C1200 C1199 1.398 . S
C1200 C1201 1.391 . S
C1201 H1189 0.950 . S
C1201 C1197 1.393 . S
C1201 C1200 1.391 . S
C1202 H1192 0.950 . S
C1202 C1203 1.386 . S
C1202 C1204 1.391 . S
C1203 C1202 1.386 . S
C1203 C1207 1.393 . S
C1204 H1193 0.950 . S
C1204 C1202 1.391 . S
C1204 C1205 1.400 . S
C1205 C1199 1.491 . S
C1205 C1204 1.400 . S
C1205 C1206 1.398 . S
C1206 H1194 0.950 . S
C1206 C1205 1.398 . S
C1206 C1207 1.391 . S
C1207 H1195 0.950 . S
C1207 C1203 1.393 . S
C1207 C1206 1.391 . S
H1208 C1216 0.950 . S
H1209 C1221 0.950 . S
H1210 C1218 0.950 . S
H1211 C1220 0.950 . S
H1212 C1222 0.950 . S
H1213 C1224 0.950 . S
H1214 C1226 0.950 . S
H1215 C1227 0.950 . S
C1216 H1208 0.950 . S
C1216 C1217 1.386 . S
C1216 C1218 1.391 . S
C1217 C1216 1.386 . S
C1217 C1221 1.393 . S
C1218 H1210 0.950 . S
C1218 C1216 1.391 . S
C1218 C1219 1.400 . S
C1219 C1218 1.400 . S
C1219 C1220 1.398 . S
C1219 C1225 1.491 . S
C1220 H1211 0.950 . S
C1220 C1219 1.398 . S
C1220 C1221 1.391 . S
C1221 H1209 0.950 . S
C1221 C1217 1.393 . S
C1221 C1220 1.391 . S
C1222 H1212 0.950 . S
C1222 C1223 1.386 . S
C1222 C1224 1.391 . S
C1223 C1222 1.386 . S
C1223 C1227 1.393 . S
C1224 H1213 0.950 . S
C1224 C1222 1.391 . S
C1224 C1225 1.400 . S
C1225 C1219 1.491 . S
C1225 C1224 1.400 . S
C1225 C1226 1.398 . S
C1226 H1214 0.950 . S
C1226 C1225 1.398 . S
C1226 C1227 1.391 . S
C1227 H1215 0.950 . S
C1227 C1223 1.393 . S
C1227 C1226 1.391 . S
H1228 C1236 0.950 . S
H1229 C1241 0.950 . S
H1230 C1238 0.950 1_655 S
H1231 C1240 0.950 . S
H1232 C1242 0.950 . S
H1233 C1244 0.950 . S
H1234 C1246 0.950 . S
H1235 C1247 0.950 . S
C1236 H1228 0.950 . S
C1236 C1237 1.386 . S
C1236 C1238 1.391 . S
C1237 C1236 1.386 . S
C1237 C1241 1.393 . S
C1238 H1230 0.950 1_455 S
C1238 C1236 1.391 . S
C1238 C1239 1.400 . S
C1239 C1238 1.400 . S
C1239 C1240 1.398 . S
C1239 C1245 1.491 . S
C1240 H1231 0.950 . S
C1240 C1239 1.398 . S
C1240 C1241 1.391 . S
C1241 H1229 0.950 . S
C1241 C1237 1.393 . S
C1241 C1240 1.391 . S
C1242 H1232 0.950 . S
C1242 C1243 1.386 . S
C1242 C1244 1.391 . S
C1243 C1242 1.386 . S
C1243 C1247 1.393 1_455 S
C1244 H1233 0.950 . S
C1244 C1242 1.391 . S
C1244 C1245 1.400 . S
C1245 C1239 1.491 . S
C1245 C1244 1.400 . S
C1245 C1246 1.398 1_455 S
C1246 H1234 0.950 . S
C1246 C1245 1.398 1_655 S
C1246 C1247 1.391 . S
C1247 H1235 0.950 . S
C1247 C1243 1.393 1_655 S
C1247 C1246 1.391 . S
H1248 C1256 0.950 . S
H1249 C1261 0.950 . S
H1250 C1258 0.950 . S
H1251 C1260 0.950 . S
H1252 C1262 0.950 . S
H1253 C1264 0.950 . S
H1254 C1266 0.950 1_545 S
H1255 C1267 0.950 1_545 S
C1256 H1248 0.950 . S
C1256 C1257 1.386 1_545 S
C1256 C1258 1.391 . S
C1257 C1256 1.386 1_565 S
C1257 C1261 1.393 . S
C1258 H1250 0.950 . S
C1258 C1256 1.391 . S
C1258 C1259 1.400 1_545 S
C1259 C1258 1.400 1_565 S
C1259 C1260 1.398 . S
C1259 C1265 1.491 . S
C1260 H1251 0.950 . S
C1260 C1259 1.398 . S
C1260 C1261 1.391 . S
C1261 H1249 0.950 . S
C1261 C1257 1.393 . S
C1261 C1260 1.391 . S
C1262 H1252 0.950 . S
C1262 C1263 1.386 . S
C1262 C1264 1.391 . S
C1263 C1262 1.386 . S
C1263 C1267 1.393 . S
C1264 H1253 0.950 . S
C1264 C1262 1.391 . S
C1264 C1265 1.400 . S
C1265 C1259 1.491 . S
C1265 C1264 1.400 . S
C1265 C1266 1.398 . S
C1266 H1254 0.950 1_565 S
C1266 C1265 1.398 . S
C1266 C1267 1.391 . S
C1267 H1255 0.950 1_565 S
C1267 C1263 1.393 . S
C1267 C1266 1.391 . S
H1268 C1276 0.950 . S
H1269 C1281 0.950 . S
H1270 C1278 0.950 . S
H1271 C1280 0.950 . S
H1272 C1282 0.950 . S
H1273 C1284 0.950 . S
H1274 C1286 0.950 . S
H1275 C1287 0.950 . S
C1276 H1268 0.950 . S
C1276 C1277 1.386 . S
C1276 C1278 1.391 . S
C1277 C1276 1.386 . S
C1277 C1281 1.393 . S
C1278 H1270 0.950 . S
C1278 C1276 1.391 . S
C1278 C1279 1.400 . S
C1279 C1278 1.400 . S
C1279 C1280 1.398 . S
C1279 C1285 1.491 . S
C1280 H1271 0.950 . S
C1280 C1279 1.398 . S
C1280 C1281 1.391 . S
C1281 H1269 0.950 . S
C1281 C1277 1.393 . S
C1281 C1280 1.391 . S
C1282 H1272 0.950 . S
C1282 C1283 1.386 . S
C1282 C1284 1.391 . S
C1283 C1282 1.386 . S
C1283 C1287 1.393 . S
C1284 H1273 0.950 . S
C1284 C1282 1.391 . S
C1284 C1285 1.400 . S
C1285 C1279 1.491 . S
C1285 C1284 1.400 . S
C1285 C1286 1.398 . S
C1286 H1274 0.950 . S
C1286 C1285 1.398 . S
C1286 C1287 1.391 . S
C1287 H1275 0.950 . S
C1287 C1283 1.393 . S
C1287 C1286 1.391 . S
H1288 C1296 0.950 . S
H1289 C1301 0.950 . S
H1290 C1298 0.950 . S
H1291 C1300 0.950 . S
H1292 C1302 0.950 . S
H1293 C1304 0.950 . S
H1294 C1306 0.950 . S
H1295 C1307 0.950 . S
C1296 H1288 0.950 . S
C1296 C1297 1.386 . S
C1296 C1298 1.391 . S
C1297 C1296 1.386 . S
C1297 C1301 1.393 . S
C1298 H1290 0.950 . S
C1298 C1296 1.391 . S
C1298 C1299 1.400 . S
C1299 C1298 1.400 . S
C1299 C1300 1.398 . S
C1299 C1305 1.491 . S
C1300 H1291 0.950 . S
C1300 C1299 1.398 . S
C1300 C1301 1.391 . S
C1301 H1289 0.950 . S
C1301 C1297 1.393 . S
C1301 C1300 1.391 . S
C1302 H1292 0.950 . S
C1302 C1303 1.386 . S
C1302 C1304 1.391 . S
C1303 C1302 1.386 . S
C1303 C1307 1.393 . S
C1304 H1293 0.950 . S
C1304 C1302 1.391 . S
C1304 C1305 1.400 . S
C1305 C1299 1.491 . S
C1305 C1304 1.400 . S
C1305 C1306 1.398 . S
C1306 H1294 0.950 . S
C1306 C1305 1.398 . S
C1306 C1307 1.391 . S
C1307 H1295 0.950 . S
C1307 C1303 1.393 . S
C1307 C1306 1.391 . S
H1308 C1316 0.961 . S
H1309 C1321 0.950 . S
H1310 C1318 0.950 . S
H1311 C1320 0.950 . S
H1312 C1322 0.950 . S
H1313 C1324 0.950 . S
H1314 C1326 0.950 . S
H1315 C1327 0.950 . S
C1316 H1308 0.961 . S
C1316 C1317 1.386 . S
C1316 C1318 1.391 . S
C1317 C1316 1.386 . S
C1317 C1321 1.393 . S
C1318 H1310 0.950 . S
C1318 C1316 1.391 . S
C1318 C1319 1.400 . S
C1319 C1318 1.400 . S
C1319 C1320 1.398 . S
C1319 C1325 1.491 . S
C1320 H1311 0.950 . S
C1320 C1319 1.398 . S
C1320 C1321 1.391 . S
C1321 H1309 0.950 . S
C1321 C1317 1.393 . S
C1321 C1320 1.391 . S
C1322 H1312 0.950 . S
C1322 C1323 1.386 . S
C1322 C1324 1.391 . S
C1323 C1322 1.386 . S
C1323 C1327 1.393 . S
C1324 H1313 0.950 . S
C1324 C1322 1.391 . S
C1324 C1325 1.400 . S
C1325 C1319 1.491 . S
C1325 C1324 1.400 . S
C1325 C1326 1.398 . S
C1326 H1314 0.950 . S
C1326 C1325 1.398 . S
C1326 C1327 1.391 . S
C1327 H1315 0.950 . S
C1327 C1323 1.393 . S
C1327 C1326 1.391 . S
H1328 C1336 0.950 . S
H1329 C1341 0.950 1_556 S
H1330 C1338 0.950 . S
H1331 C1340 0.950 1_556 S
H1332 C1342 0.950 . S
H1333 C1344 0.950 1_556 S
H1334 C1346 0.950 . S
H1335 C1347 0.950 . S
C1336 H1328 0.950 . S
C1336 C1337 1.396 . S
C1336 C1338 1.391 . S
C1337 C1336 1.396 . S
C1337 C1341 1.382 1_545 S
C1338 H1330 0.950 . S
C1338 C1336 1.391 . S
C1338 C1339 1.408 . S
C1339 C1338 1.408 . S
C1339 C1340 1.390 1_545 S
C1339 C1345 1.490 . S
C1340 H1331 0.950 1_554 S
C1340 C1339 1.390 1_565 S
C1340 C1341 1.391 . S
C1341 H1329 0.950 1_554 S
C1341 C1337 1.382 1_565 S
C1341 C1340 1.391 . S
C1342 H1332 0.950 . S
C1342 C1343 1.368 1_566 S
C1342 C1344 1.391 1_556 S
C1343 C1342 1.368 1_544 S
C1343 C1347 1.412 . S
C1344 H1333 0.950 1_554 S
C1344 C1342 1.391 1_554 S
C1344 C1345 1.381 1_565 S
C1345 C1339 1.490 . S
C1345 C1344 1.381 1_545 S
C1345 C1346 1.421 . S
C1346 H1334 0.950 . S
C1346 C1345 1.421 . S
C1346 C1347 1.391 . S
C1347 H1335 0.950 . S
C1347 C1343 1.412 . S
C1347 C1346 1.391 . S
H1348 C1356 0.950 . S
H1349 C1361 0.950 1_554 S
H1350 C1358 0.950 . S
H1351 C1360 0.950 . S
H1352 C1362 0.950 . S
H1353 C1364 0.950 . S
H1354 C1366 0.950 . S
H1355 C1367 0.950 . S
C1356 H1348 0.950 . S
C1356 C1357 1.386 . S
C1356 C1358 1.391 . S
C1357 C1356 1.386 . S
C1357 C1361 1.393 . S
C1358 H1350 0.950 . S
C1358 C1356 1.391 . S
C1358 C1359 1.400 . S
C1359 C1358 1.400 . S
C1359 C1360 1.398 . S
C1359 C1365 1.491 . S
C1360 H1351 0.950 . S
C1360 C1359 1.398 . S
C1360 C1361 1.391 . S
C1361 H1349 0.950 1_556 S
C1361 C1357 1.393 . S
C1361 C1360 1.391 . S
C1362 H1352 0.950 . S
C1362 C1363 1.386 . S
C1362 C1364 1.391 . S
C1363 C1362 1.386 . S
C1363 C1367 1.393 . S
C1364 H1353 0.950 . S
C1364 C1362 1.391 . S
C1364 C1365 1.400 . S
C1365 C1359 1.491 . S
C1365 C1364 1.400 . S
C1365 C1366 1.398 . S
C1366 H1354 0.950 . S
C1366 C1365 1.398 . S
C1366 C1367 1.391 . S
C1367 H1355 0.950 . S
C1367 C1363 1.393 . S
C1367 C1366 1.391 . S
H1368 C1376 0.912 1_656 S
H1369 C1381 0.950 . S
H1370 C1378 0.950 . S
H1371 C1380 0.950 . S
H1372 C1382 0.950 . S
H1373 C1384 0.950 . S
H1374 C1386 0.950 . S
H1375 C1387 0.950 . S
C1376 H1368 0.912 1_454 S
C1376 C1377 1.386 . S
C1376 C1378 1.391 . S
C1377 C1376 1.386 . S
C1377 C1381 1.393 . S
C1378 H1370 0.950 . S
C1378 C1376 1.391 . S
C1378 C1379 1.400 . S
C1379 C1378 1.400 . S
C1379 C1380 1.398 . S
C1379 C1385 1.491 . S
C1380 H1371 0.950 . S
C1380 C1379 1.398 . S
C1380 C1381 1.391 . S
C1381 H1369 0.950 . S
C1381 C1377 1.393 . S
C1381 C1380 1.391 . S
C1382 H1372 0.950 . S
C1382 C1383 1.386 . S
C1382 C1384 1.391 . S
C1383 C1382 1.386 . S
C1383 C1387 1.393 . S
C1384 H1373 0.950 . S
C1384 C1382 1.391 . S
C1384 C1385 1.400 . S
C1385 C1379 1.491 . S
C1385 C1384 1.400 . S
C1385 C1386 1.398 . S
C1386 H1374 0.950 . S
C1386 C1385 1.398 . S
C1386 C1387 1.391 . S
C1387 H1375 0.950 . S
C1387 C1383 1.393 . S
C1387 C1386 1.391 . S
H1388 C1396 0.950 . S
H1389 C1401 0.950 . S
H1390 C1398 0.950 . S
H1391 C1400 0.950 . S
H1392 C1402 0.950 . S
H1393 C1404 0.950 . S
H1394 C1406 0.950 . S
H1395 C1407 0.950 . S
C1396 H1388 0.950 . S
C1396 C1397 1.347 1_455 S
C1396 C1398 1.391 . S
C1397 C1396 1.347 1_655 S
C1397 C1401 1.433 . S
C1398 H1390 0.950 . S
C1398 C1396 1.391 . S
C1398 C1399 1.374 1_455 S
C1399 C1398 1.374 1_655 S
C1399 C1400 1.425 . S
C1399 C1405 1.491 1_545 S
C1400 H1391 0.950 . S
C1400 C1399 1.425 . S
C1400 C1401 1.391 . S
C1401 H1389 0.950 . S
C1401 C1397 1.433 . S
C1401 C1400 1.391 . S
C1402 H1392 0.950 . S
C1402 C1403 1.381 . S
C1402 C1404 1.391 . S
C1403 C1402 1.381 . S
C1403 C1407 1.398 1_655 S
C1404 H1393 0.950 . S
C1404 C1402 1.391 . S
C1404 C1405 1.408 . S
C1405 C1399 1.491 1_565 S
C1405 C1404 1.408 . S
C1405 C1406 1.391 1_655 S
C1406 H1394 0.950 . S
C1406 C1405 1.391 1_455 S
C1406 C1407 1.391 . S
C1407 H1395 0.950 . S
C1407 C1403 1.398 1_455 S
C1407 C1406 1.391 . S
H1408 C1416 0.950 . S
H1409 C1421 0.950 . S
H1410 C1418 0.950 . S
H1411 C1420 0.950 . S
H1412 C1422 0.950 . S
H1413 C1424 0.950 . S
H1414 C1426 0.950 . S
H1415 C1427 0.950 . S
C1416 H1408 0.950 . S
C1416 C1417 1.386 . S
C1416 C1418 1.391 . S
C1417 C1416 1.386 . S
C1417 C1421 1.393 1_565 S
C1418 H1410 0.950 . S
C1418 C1416 1.391 . S
C1418 C1419 1.400 . S
C1419 C1418 1.400 . S
C1419 C1420 1.398 1_565 S
C1419 C1425 1.491 . S
C1420 H1411 0.950 . S
C1420 C1419 1.398 1_545 S
C1420 C1421 1.391 . S
C1421 H1409 0.950 . S
C1421 C1417 1.393 1_545 S
C1421 C1420 1.391 . S
C1422 H1412 0.950 . S
C1422 C1423 1.386 1_545 S
C1422 C1424 1.391 . S
C1423 C1422 1.386 1_565 S
C1423 C1427 1.393 . S
C1424 H1413 0.950 . S
C1424 C1422 1.391 . S
C1424 C1425 1.400 1_545 S
C1425 C1419 1.491 . S
C1425 C1424 1.400 1_565 S
C1425 C1426 1.398 . S
C1426 H1414 0.950 . S
C1426 C1425 1.398 . S
C1426 C1427 1.391 . S
C1427 H1415 0.950 . S
C1427 C1423 1.393 . S
C1427 C1426 1.391 . S
H1428 C1436 0.950 . S
H1429 C1441 0.950 . S
H1430 C1438 0.950 . S
H1431 C1440 0.950 . S
H1432 C1442 0.950 . S
H1433 C1444 0.950 . S
H1434 C1446 0.950 . S
H1435 C1447 0.950 . S
C1436 H1428 0.950 . S
C1436 C1437 1.386 . S
C1436 C1438 1.391 1_565 S
C1437 C1436 1.386 . S
C1437 C1441 1.393 . S
C1438 H1430 0.950 . S
C1438 C1436 1.391 1_545 S
C1438 C1439 1.400 . S
C1439 C1438 1.400 . S
C1439 C1440 1.398 . S
C1439 C1445 1.491 . S
C1440 H1431 0.950 . S
C1440 C1439 1.398 . S
C1440 C1441 1.391 1_545 S
C1441 H1429 0.950 . S
C1441 C1437 1.393 . S
C1441 C1440 1.391 1_565 S
C1442 H1432 0.950 . S
C1442 C1443 1.386 . S
C1442 C1444 1.391 . S
C1443 C1442 1.386 . S
C1443 C1447 1.393 . S
C1444 H1433 0.950 . S
C1444 C1442 1.391 . S
C1444 C1445 1.400 . S
C1445 C1439 1.491 . S
C1445 C1444 1.400 . S
C1445 C1446 1.398 . S
C1446 H1434 0.950 . S
C1446 C1445 1.398 . S
C1446 C1447 1.391 . S
C1447 H1435 0.950 . S
C1447 C1443 1.393 . S
C1447 C1446 1.391 . S
H1448 C1456 0.950 . S
H1449 C1461 0.950 . S
H1450 C1458 0.950 . S
H1451 C1460 0.950 . S
H1452 C1462 0.950 . S
H1453 C1464 0.950 . S
H1454 C1466 0.950 . S
H1455 C1467 0.950 . S
C1456 H1448 0.950 . S
C1456 C1457 1.386 . S
C1456 C1458 1.391 . S
C1457 C1456 1.386 . S
C1457 C1461 1.393 . S
C1458 H1450 0.950 . S
C1458 C1456 1.391 . S
C1458 C1459 1.400 . S
C1459 C1458 1.400 . S
C1459 C1460 1.398 . S
C1459 C1465 1.491 . S
C1460 H1451 0.950 . S
C1460 C1459 1.398 . S
C1460 C1461 1.391 . S
C1461 H1449 0.950 . S
C1461 C1457 1.393 . S
C1461 C1460 1.391 . S
C1462 H1452 0.950 . S
C1462 C1463 1.386 . S
C1462 C1464 1.391 . S
C1463 C1462 1.386 . S
C1463 C1467 1.393 . S
C1464 H1453 0.950 . S
C1464 C1462 1.391 . S
C1464 C1465 1.400 . S
C1465 C1459 1.491 . S
C1465 C1464 1.400 . S
C1465 C1466 1.398 . S
C1466 H1454 0.950 . S
C1466 C1465 1.398 . S
C1466 C1467 1.391 . S
C1467 H1455 0.950 . S
C1467 C1463 1.393 . S
C1467 C1466 1.391 . S
H1468 C1476 0.950 . S
H1469 C1481 0.950 . S
H1470 C1478 0.950 . S
H1471 C1480 0.950 . S
H1472 C1482 0.950 . S
H1473 C1484 0.950 . S
H1474 C1486 0.950 . S
H1475 C1487 0.950 . S
C1476 H1468 0.950 . S
C1476 C1477 1.389 1_655 S
C1476 C1478 1.391 . S
C1477 C1476 1.389 1_455 S
C1477 C1481 1.390 . S
C1478 H1470 0.950 . S
C1478 C1476 1.391 . S
C1478 C1479 1.398 1_655 S
C1479 C1478 1.398 1_455 S
C1479 C1480 1.401 . S
C1479 C1485 1.490 1_455 S
C1480 H1471 0.950 . S
C1480 C1479 1.401 . S
C1480 C1481 1.391 . S
C1481 H1469 0.950 . S
C1481 C1477 1.390 . S
C1481 C1480 1.391 . S
C1482 H1472 0.950 . S
C1482 C1483 1.386 1_455 S
C1482 C1484 1.391 . S
C1483 C1482 1.386 1_655 S
C1483 C1487 1.392 . S
C1484 H1473 0.950 . S
C1484 C1482 1.391 . S
C1484 C1485 1.395 1_455 S
C1485 C1479 1.490 1_655 S
C1485 C1484 1.395 1_655 S
C1485 C1486 1.404 . S
C1486 H1474 0.950 . S
C1486 C1485 1.404 . S
C1486 C1487 1.391 . S
C1487 H1475 0.950 . S
C1487 C1483 1.392 . S
C1487 C1486 1.391 . S
C857 C303 0.893 . S
C863 C29 0.906 . S
C877 C347 1.199 . S
C883 C91 1.240 . S
C897 C135 0.814 . S
C903 C409 0.860 . S
C917 C197 0.398 . S
C923 C241 0.485 . S
C937 C453 1.009 . S
C943 C718 0.964 . S
C957 C771 1.392 . S
C963 C506 1.388 . S
C977 C824 1.172 . S
C983 C559 1.147 . S
C997 C612 0.618 . S
C1003 C665 0.610 . S
C1017 C22 2.334 . S
C1023 C675 2.377 1_565 S
C1037 C728 2.308 . S
C1043 C92 2.280 . S
C1057 C128 2.713 . S
C1063 C781 2.786 . S
C1077 C198 2.089 . S
C1083 C834 2.085 1_655 S
C1097 C234 2.429 . S
C1103 C463 2.480 1_545 S
C1117 C304 2.592 . S
C1123 C516 2.628 . S
C1137 C340 2.490 . S
C1143 C569 2.547 . S
C1157 C410 1.826 . S
C1163 C622 1.809 1_455 S
C1177 C251 1.446 . S
C1183 C446 1.464 . S
C1197 C287 2.142 . S
C1203 C499 2.126 1_554 S
C1217 C357 2.328 . S
C1223 C552 2.270 . S
C1237 C605 2.044 . S
C1243 C393 2.081 1_455 S
C1257 C39 1.762 1_565 S
C1263 C658 1.764 . S
C1277 C711 2.321 . S
C1283 C75 2.381 . S
C1297 C764 1.906 . S
C1303 C145 1.936 . S
C1317 C181 1.973 1_655 S
C1323 C817 1.947 . S
C1337 C462 1.557 . S
C1343 C38 1.581 . S
C1357 C515 2.096 . S
C1363 C82 2.048 . S
C1377 C144 2.492 1_455 S
C1383 C568 2.448 . S
C1397 C621 2.005 1_655 S
C1403 C188 1.981 1_655 S
C1417 C250 2.012 1_655 S
C1423 C674 1.976 . S
C1437 C727 2.541 . S
C1443 C294 2.484 . S
C1457 C780 1.951 . S
C1463 C356 1.982 . S
C1477 C833 1.590 1_455 S
C1483 C400 1.568 1_655 S
