# Generated by pormake.
# Topology upb, (4)-cn, num edge types: 1
# Building blocks:
#     Node 0, Type 0, BuildingBlock: CEKHIL_clean_sbu_0, # of connection points: 4
#     Node 1, Type 0, BuildingBlock: CEKHIL_clean_sbu_0, # of connection points: 4
#     Node 2, Type 0, BuildingBlock: CEKHIL_clean_sbu_0, # of connection points: 4
#     Node 3, Type 0, BuildingBlock: CEKHIL_clean_sbu_0, # of connection points: 4
#     Node 4, Type 0, BuildingBlock: CEKHIL_clean_sbu_0, # of connection points: 4
#     Node 5, Type 0, BuildingBlock: CEKHIL_clean_sbu_0, # of connection points: 4
#     Node 6, Type 0, BuildingBlock: CEKHIL_clean_sbu_0, # of connection points: 4
#     Node 7, Type 0, BuildingBlock: CEKHIL_clean_sbu_0, # of connection points: 4
#     Node 8, Type 0, BuildingBlock: CEKHIL_clean_sbu_0, # of connection points: 4
#     Node 9, Type 0, BuildingBlock: CEKHIL_clean_sbu_0, # of connection points: 4
#     Node 10, Type 0, BuildingBlock: CEKHIL_clean_sbu_0, # of connection points: 4
#     Node 11, Type 0, BuildingBlock: CEKHIL_clean_sbu_0, # of connection points: 4
#     Node 12, Type 0, BuildingBlock: CEKHIL_clean_sbu_0, # of connection points: 4
#     Node 13, Type 0, BuildingBlock: CEKHIL_clean_sbu_0, # of connection points: 4
#     Node 14, Type 0, BuildingBlock: CEKHIL_clean_sbu_0, # of connection points: 4
#     Node 15, Type 0, BuildingBlock: CEKHIL_clean_sbu_0, # of connection points: 4
#     Edge 16, Type (0, 0), BuildingBlock: EZIPEK_clean_linker_0, # of connection points: 2
#     Edge 17, Type (0, 0), BuildingBlock: EZIPEK_clean_linker_0, # of connection points: 2
#     Edge 18, Type (0, 0), BuildingBlock: EZIPEK_clean_linker_0, # of connection points: 2
#     Edge 19, Type (0, 0), BuildingBlock: EZIPEK_clean_linker_0, # of connection points: 2
#     Edge 20, Type (0, 0), BuildingBlock: EZIPEK_clean_linker_0, # of connection points: 2
#     Edge 21, Type (0, 0), BuildingBlock: EZIPEK_clean_linker_0, # of connection points: 2
#     Edge 22, Type (0, 0), BuildingBlock: EZIPEK_clean_linker_0, # of connection points: 2
#     Edge 23, Type (0, 0), BuildingBlock: EZIPEK_clean_linker_0, # of connection points: 2
#     Edge 24, Type (0, 0), BuildingBlock: EZIPEK_clean_linker_0, # of connection points: 2
#     Edge 25, Type (0, 0), BuildingBlock: EZIPEK_clean_linker_0, # of connection points: 2
#     Edge 26, Type (0, 0), BuildingBlock: EZIPEK_clean_linker_0, # of connection points: 2
#     Edge 27, Type (0, 0), BuildingBlock: EZIPEK_clean_linker_0, # of connection points: 2
#     Edge 28, Type (0, 0), BuildingBlock: EZIPEK_clean_linker_0, # of connection points: 2
#     Edge 29, Type (0, 0), BuildingBlock: EZIPEK_clean_linker_0, # of connection points: 2
#     Edge 30, Type (0, 0), BuildingBlock: EZIPEK_clean_linker_0, # of connection points: 2
#     Edge 31, Type (0, 0), BuildingBlock: EZIPEK_clean_linker_0, # of connection points: 2
#     Edge 32, Type (0, 0), BuildingBlock: EZIPEK_clean_linker_0, # of connection points: 2
#     Edge 33, Type (0, 0), BuildingBlock: EZIPEK_clean_linker_0, # of connection points: 2
#     Edge 34, Type (0, 0), BuildingBlock: EZIPEK_clean_linker_0, # of connection points: 2
#     Edge 35, Type (0, 0), BuildingBlock: EZIPEK_clean_linker_0, # of connection points: 2
#     Edge 36, Type (0, 0), BuildingBlock: EZIPEK_clean_linker_0, # of connection points: 2
#     Edge 37, Type (0, 0), BuildingBlock: EZIPEK_clean_linker_0, # of connection points: 2
#     Edge 38, Type (0, 0), BuildingBlock: EZIPEK_clean_linker_0, # of connection points: 2
#     Edge 39, Type (0, 0), BuildingBlock: EZIPEK_clean_linker_0, # of connection points: 2
#     Edge 40, Type (0, 0), BuildingBlock: EZIPEK_clean_linker_0, # of connection points: 2
#     Edge 41, Type (0, 0), BuildingBlock: EZIPEK_clean_linker_0, # of connection points: 2
#     Edge 42, Type (0, 0), BuildingBlock: EZIPEK_clean_linker_0, # of connection points: 2
#     Edge 43, Type (0, 0), BuildingBlock: EZIPEK_clean_linker_0, # of connection points: 2
#     Edge 44, Type (0, 0), BuildingBlock: EZIPEK_clean_linker_0, # of connection points: 2
#     Edge 45, Type (0, 0), BuildingBlock: EZIPEK_clean_linker_0, # of connection points: 2
#     Edge 46, Type (0, 0), BuildingBlock: EZIPEK_clean_linker_0, # of connection points: 2
#     Edge 47, Type (0, 0), BuildingBlock: EZIPEK_clean_linker_0, # of connection points: 2
# Relax obj value: 0.214
# Max RMSD: 0.064
# Mean RMSD: 0.064
data_MOF--net-upb--node1-CEKHIL_clean_sbu_0--edge1-EZIPEK_clean_linker_0
_symmetry_space_group_name_H-M    P1
_symmetry_Int_Tables_number       1
_symmetry_cell_setting            triclinic
loop_
_symmetry_equiv_pos_as_xyz
'x, y, z'
_cell_length_a     32.496
_cell_length_b     32.496
_cell_length_c     23.376
_cell_angle_alpha  90.0
_cell_angle_beta   90.0
_cell_angle_gamma 90.0
loop_
_atom_site_label
_atom_site_type_symbol
_atom_site_fract_x
_atom_site_fract_y
_atom_site_fract_z
_atom_type_partial_charge
Co0 Co 0.10788 0.26123 0.41838 0.0
O1 O 0.15723 0.29197 0.42882 0.0
O2 O 0.1159 0.2975 0.35337 0.0
C3 C 0.08008 0.26851 0.50513 0.0
O4 O 0.05308 0.23298 0.39853 0.0
Co5 Co 0.10584 0.18079 0.49037 0.0
O6 O 0.05383 0.17307 0.44766 0.0
C7 C 0.15754 0.18387 0.39025 0.0
C8 C 0.14963 0.30842 0.37961 0.0
C9 C 0.03604 0.19888 0.4148 0.0
O10 O 0.13985 0.21758 0.37612 0.0
O11 O 0.1523 0.1664 0.43857 0.0
O12 O 0.07766 0.29853 0.46873 0.0
O13 O 0.10651 0.24026 0.49212 0.0
Co14 Co 0.7935 0.10296 0.33441 0.0
O15 O 0.76806 0.15006 0.37083 0.0
O16 O 0.78223 0.14637 0.27887 0.0
C17 C 0.74465 0.05549 0.37021 0.0
O18 O 0.81837 0.05786 0.28919 0.0
Co19 Co 0.81996 0.10083 0.40411 0.0
O20 O 0.84848 0.04875 0.37195 0.0
C21 C 0.86531 0.15296 0.37675 0.0
C22 C 0.7653 0.16656 0.32077 0.0
C23 C 0.84288 0.03702 0.32027 0.0
O24 O 0.85306 0.12774 0.33846 0.0
O25 O 0.84276 0.15624 0.42017 0.0
O26 O 0.73893 0.07865 0.32703 0.0
O27 O 0.77922 0.05875 0.39643 0.0
Co28 Co 0.96938 0.80787 0.24594 0.0
O29 O 0.91813 0.77862 0.24964 0.0
O30 O 0.95187 0.79293 0.16961 0.0
C31 C 0.99817 0.77004 0.31619 0.0
O32 O 0.02422 0.83488 0.22485 0.0
Co33 Co 0.00359 0.85558 0.3499 0.0
O34 O 0.05543 0.8555 0.30576 0.0
C35 C 0.9359 0.89134 0.28142 0.0
C36 C 0.9216 0.77399 0.19484 0.0
C37 C 0.05572 0.8486 0.25217 0.0
O38 O 0.93917 0.86267 0.24342 0.0
O39 O 0.95645 0.89198 0.32807 0.0
O40 O 0.99846 0.75677 0.2639 0.0
O41 O 0.97933 0.80439 0.32499 0.0
Co42 Co 0.26722 0.96258 0.33426 0.0
O43 O 0.29642 0.91146 0.34142 0.0
O44 O 0.31012 0.96 0.27742 0.0
C45 C 0.26688 0.97832 0.42835 0.0
O46 O 0.24499 0.01946 0.31486 0.0
Co47 Co 0.18152 0.97323 0.39299 0.0
O48 O 0.18757 0.03068 0.36658 0.0
C49 C 0.18898 0.92452 0.28693 0.0
C50 C 0.31874 0.92407 0.29884 0.0
C51 C 0.21517 0.0425 0.33148 0.0
O52 O 0.22666 0.93569 0.27999 0.0
O53 O 0.16743 0.93345 0.33098 0.0
O54 O 0.29905 0.98657 0.39742 0.0
O55 O 0.23826 0.95769 0.40324 0.0
Co56 Co 0.04708 0.73152 0.62992 0.0
O57 O 0.09593 0.69952 0.63976 0.0
O58 O 0.04243 0.6988 0.69886 0.0
C59 C 0.03927 0.71745 0.53631 0.0
O60 O 0.9907 0.75991 0.63091 0.0
Co61 Co 0.04918 0.80609 0.5458 0.0
O62 O 0.98862 0.80399 0.55638 0.0
C63 C 0.08889 0.81271 0.65892 0.0
C64 C 0.07895 0.68521 0.68578 0.0
C65 C 0.97128 0.78487 0.59749 0.0
O66 O 0.07274 0.77835 0.6747 0.0
O67 O 0.08601 0.82715 0.60815 0.0
O68 O 0.02628 0.69139 0.57438 0.0
O69 O 0.05976 0.74825 0.55607 0.0
Co70 Co 0.20415 0.03694 0.7503 0.0
O71 O 0.23245 0.08845 0.75676 0.0
O72 O 0.23199 0.04028 0.82393 0.0
C73 C 0.22743 0.02275 0.66115 0.0
O74 O 0.17784 0.97937 0.75538 0.0
Co75 Co 0.13736 0.03085 0.65547 0.0
O76 O 0.13815 0.97198 0.67668 0.0
C77 C 0.1177 0.07217 0.76471 0.0
C78 C 0.2444 0.07637 0.80667 0.0
C79 C 0.15428 0.95783 0.72232 0.0
O80 O 0.15303 0.06228 0.78513 0.0
O81 O 0.10675 0.06493 0.71307 0.0
O82 O 0.24963 0.01402 0.7056 0.0
O83 O 0.19419 0.04327 0.67146 0.0
Co84 Co 0.90555 0.18099 0.71095 0.0
O85 O 0.86434 0.21417 0.67457 0.0
O86 O 0.86753 0.2021 0.76784 0.0
C87 C 0.95942 0.21008 0.66483 0.0
O88 O 0.94545 0.15041 0.76363 0.0
Co89 Co 0.95675 0.12173 0.63632 0.0
O90 O 0.98754 0.11251 0.708 0.0
C91 C 0.87131 0.10099 0.66212 0.0
C92 C 0.84953 0.22056 0.72519 0.0
C93 C 0.97656 0.12641 0.75662 0.0
O94 O 0.87005 0.1303 0.69915 0.0
O95 O 0.90185 0.09464 0.62889 0.0
O96 O 0.94416 0.22715 0.71023 0.0
O97 O 0.93956 0.17846 0.64578 0.0
Co98 Co 0.72799 0.88788 0.57065 0.0
O99 O 0.69838 0.83786 0.5556 0.0
O100 O 0.70185 0.86883 0.64003 0.0
C101 C 0.70276 0.92182 0.49335 0.0
O102 O 0.75365 0.94109 0.60129 0.0
Co103 Co 0.7921 0.92015 0.48312 0.0
O104 O 0.79288 0.96963 0.53257 0.0
C105 C 0.81539 0.85367 0.56296 0.0
C106 C 0.68663 0.83951 0.60852 0.0
C107 C 0.77684 0.97025 0.58233 0.0
O108 O 0.78038 0.85632 0.58871 0.0
O109 O 0.82468 0.87432 0.51819 0.0
O110 O 0.68192 0.91973 0.54051 0.0
O111 O 0.73651 0.90079 0.49342 0.0
Co112 Co 0.52188 0.69018 0.75009 0.0
O113 O 0.57384 0.71773 0.74586 0.0
O114 O 0.52624 0.71933 0.67777 0.0
C115 C 0.50753 0.71159 0.83964 0.0
O116 O 0.46389 0.66579 0.74217 0.0
Co117 Co 0.5125 0.6213 0.84124 0.0
O118 O 0.45456 0.62198 0.816 0.0
C119 C 0.5586 0.60476 0.73543 0.0
C120 C 0.56231 0.73082 0.6962 0.0
C121 C 0.4415 0.64088 0.77183 0.0
O122 O 0.54733 0.63957 0.71465 0.0
O123 O 0.55041 0.59304 0.7864 0.0
O124 O 0.49923 0.73492 0.79614 0.0
O125 O 0.52731 0.6781 0.82834 0.0
Co126 Co 0.21922 0.54857 0.89066 0.0
O127 O 0.19084 0.59803 0.87132 0.0
O128 O 0.18736 0.54006 0.8213 0.0
C129 C 0.20253 0.5509 0.98422 0.0
O130 O 0.2445 0.4911 0.90124 0.0
Co131 Co 0.29274 0.556 0.97537 0.0
O132 O 0.29203 0.49504 0.97151 0.0
C133 C 0.30166 0.58501 0.85698 0.0
C134 C 0.17647 0.57843 0.82753 0.0
C135 C 0.27133 0.47451 0.93498 0.0
O136 O 0.26767 0.56732 0.84355 0.0
O137 O 0.31513 0.58754 0.9083 0.0
O138 O 0.17715 0.53513 0.94736 0.0
O139 O 0.23511 0.5673 0.96239 0.0
Co140 Co 0.39964 0.24243 0.93858 0.0
O141 O 0.35459 0.20609 0.95644 0.0
O142 O 0.37772 0.21873 0.86894 0.0
C143 C 0.4428 0.21699 0.00602 0.0
O144 O 0.44682 0.27654 0.90448 0.0
Co145 Co 0.43137 0.30469 0.02899 0.0
O146 O 0.47913 0.30933 0.97665 0.0
C147 C 0.35665 0.32463 0.96209 0.0
C148 C 0.35254 0.19866 0.90207 0.0
C149 C 0.47689 0.29811 0.92455 0.0
O150 O 0.36063 0.29112 0.93304 0.0
O151 O 0.37998 0.33414 0.00423 0.0
O152 O 0.43887 0.19896 0.9569 0.0
O153 O 0.41807 0.24763 0.01436 0.0
Co154 Co 0.69337 0.40526 0.77132 0.0
O155 O 0.72513 0.3612 0.80363 0.0
O156 O 0.70424 0.36421 0.71334 0.0
C157 C 0.73262 0.45574 0.80934 0.0
O158 O 0.66198 0.44671 0.72222 0.0
Co159 Co 0.64915 0.46802 0.8496 0.0
O160 O 0.64709 0.50073 0.77865 0.0
C161 C 0.61243 0.38597 0.83191 0.0
C162 C 0.72523 0.34531 0.75284 0.0
C163 C 0.64971 0.48396 0.72955 0.0
O164 O 0.64018 0.377 0.79444 0.0
O165 O 0.61206 0.4195 0.86054 0.0
O166 O 0.74372 0.43812 0.762 0.0
O167 O 0.70052 0.44054 0.83386 0.0
Co168 Co 0.60868 0.30935 0.18302 0.0
O169 O 0.66007 0.28113 0.18973 0.0
O170 O 0.63144 0.31777 0.25903 0.0
C171 C 0.57382 0.25547 0.1445 0.0
O172 O 0.55461 0.34099 0.18931 0.0
Co173 Co 0.57544 0.32203 0.05938 0.0
O174 O 0.52666 0.34423 0.10077 0.0
C175 C 0.64448 0.3713 0.10092 0.0
C176 C 0.66071 0.29304 0.24247 0.0
C177 C 0.52554 0.35132 0.1545 0.0
O178 O 0.63655 0.36045 0.15263 0.0
O179 O 0.62993 0.35169 0.05791 0.0
O180 O 0.57906 0.25822 0.19924 0.0
O181 O 0.59363 0.28276 0.11535 0.0
Co182 Co 0.77451 0.60576 0.0511 0.0
O183 O 0.80388 0.65666 0.04473 0.0
O184 O 0.80767 0.61417 0.11904 0.0
C185 C 0.7865 0.57871 0.9645 0.0
O186 O 0.74753 0.54983 0.06818 0.0
Co187 Co 0.69749 0.60193 0.97232 0.0
O188 O 0.69054 0.54907 0.01319 0.0
C189 C 0.69258 0.64969 0.07625 0.0
C190 C 0.81852 0.6487 0.09497 0.0
C191 C 0.71471 0.53194 0.04906 0.0
O192 O 0.72776 0.63517 0.09068 0.0
O193 O 0.67639 0.64393 0.02717 0.0
O194 O 0.815 0.57744 0.0033 0.0
O195 O 0.75688 0.60419 0.97524 0.0
Co196 Co 0.47068 0.75419 0.17142 0.0
O197 O 0.41952 0.78334 0.1706 0.0
O198 O 0.47223 0.79801 0.22739 0.0
C199 C 0.47896 0.75283 0.07586 0.0
O200 O 0.52874 0.73128 0.18209 0.0
Co201 Co 0.475 0.66758 0.11351 0.0
O202 O 0.53455 0.6746 0.127 0.0
C203 C 0.43369 0.67783 0.22498 0.0
C204 C 0.43496 0.80633 0.21049 0.0
C205 C 0.54992 0.70182 0.15994 0.0
O206 O 0.44741 0.71477 0.23001 0.0
O207 O 0.43861 0.65565 0.1803 0.0
O208 O 0.48982 0.78524 0.10466 0.0
O209 O 0.46019 0.72463 0.10449 0.0
Co210 Co 0.30027 0.47365 0.25221 0.0
O211 O 0.2722 0.42225 0.24267 0.0
O212 O 0.29343 0.44714 0.32528 0.0
C213 C 0.25628 0.5083 0.19601 0.0
O214 O 0.32824 0.52629 0.27978 0.0
Co215 Co 0.33819 0.51976 0.14913 0.0
O216 O 0.34155 0.56622 0.20352 0.0
C217 C 0.38165 0.44837 0.19875 0.0
C218 C 0.27388 0.41837 0.29781 0.0
C219 C 0.33966 0.56056 0.25735 0.0
O220 O 0.35525 0.44599 0.23972 0.0
O221 O 0.37891 0.47376 0.15709 0.0
O222 O 0.24734 0.50217 0.24944 0.0
O223 O 0.2899 0.49187 0.17771 0.0
C224 C 0.2226 0.15177 0.35677 0.0
C225 C 0.1806 0.16058 0.34678 0.0
C226 C 0.1733 0.09818 0.29017 0.0
C227 C 0.21196 0.08544 0.31136 0.0
N228 N 0.28031 0.1063 0.33666 0.0
N229 N 0.1212 0.15181 0.2863 0.0
C230 C 0.23926 0.11472 0.33457 0.0
C231 C 0.15795 0.13737 0.30629 0.0
N232 N 0.24528 0.17749 0.39042 0.0
N233 N 0.15048 0.07107 0.25885 0.0
H234 H 0.10971 0.18061 0.29768 0.0
H235 H 0.10369 0.13704 0.25523 0.0
H236 H 0.16267 0.04279 0.24614 0.0
H237 H 0.12023 0.07606 0.24609 0.0
H238 H 0.27486 0.1707 0.4047 0.0
H239 H 0.23351 0.20552 0.40496 0.0
H240 H 0.30233 0.1273 0.35063 0.0
H241 H 0.29231 0.0792 0.31947 0.0
C242 C 0.97423 0.19464 0.34684 0.0
C243 C 0.99177 0.18992 0.40232 0.0
C244 C 0.93001 0.15305 0.43309 0.0
C245 C 0.90961 0.16397 0.38192 0.0
N246 N 0.9118 0.19663 0.28943 0.0
N247 N 0.97944 0.17405 0.50277 0.0
C248 C 0.93155 0.18528 0.33843 0.0
C249 C 0.96753 0.17214 0.44677 0.0
N250 N 0.99851 0.20563 0.30167 0.0
N251 N 0.91486 0.12261 0.46765 0.0
H252 H 0.00584 0.18897 0.51676 0.0
H253 H 0.96037 0.16469 0.53618 0.0
H254 H 0.88928 0.10483 0.45695 0.0
H255 H 0.93096 0.11132 0.50292 0.0
H256 H 0.98825 0.20561 0.25946 0.0
H257 H 0.02998 0.21104 0.30552 0.0
H258 H 0.9247 0.21627 0.25911 0.0
H259 H 0.88155 0.18811 0.28075 0.0
C260 C 0.89298 0.99847 0.25727 0.0
C261 C 0.86168 0.99786 0.2998 0.0
C262 C 0.86947 0.92288 0.30825 0.0
C263 C 0.90534 0.92483 0.2744 0.0
N264 N 0.95157 0.96319 0.21467 0.0
N265 N 0.82187 0.95937 0.36903 0.0
C266 C 0.91676 0.96217 0.24737 0.0
C267 C 0.85005 0.95994 0.32571 0.0
N268 N 0.90063 0.03387 0.22757 0.0
N269 N 0.85434 0.88532 0.32407 0.0
H270 H 0.80649 0.98547 0.38324 0.0
H271 H 0.81567 0.93341 0.39359 0.0
H272 H 0.86827 0.85782 0.31144 0.0
H273 H 0.82605 0.88128 0.34425 0.0
H274 H 0.92028 0.03541 0.19248 0.0
H275 H 0.88526 0.06142 0.23565 0.0
H276 H 0.96488 0.99012 0.19923 0.0
H277 H 0.96807 0.9366 0.20469 0.0
C278 C 0.09699 0.90278 0.20518 0.0
C279 C 0.09337 0.86104 0.22126 0.0
C280 C 0.16619 0.85817 0.24544 0.0
C281 C 0.16719 0.90153 0.24182 0.0
N282 N 0.14198 0.96248 0.19655 0.0
N283 N 0.12671 0.79572 0.22778 0.0
C284 C 0.13547 0.92276 0.21294 0.0
C285 C 0.12914 0.83748 0.23093 0.0
N286 N 0.06287 0.9235 0.18724 0.0
N287 N 0.19933 0.83766 0.26707 0.0
H288 H 0.09934 0.78131 0.21554 0.0
H289 H 0.15197 0.77625 0.23208 0.0
H290 H 0.22684 0.85288 0.27639 0.0
H291 H 0.19923 0.80635 0.27654 0.0
H292 H 0.06195 0.95509 0.18003 0.0
H293 H 0.03512 0.90821 0.17987 0.0
H294 H 0.12077 0.98001 0.17376 0.0
H295 H 0.17064 0.97643 0.20238 0.0
C296 C 0.15138 0.84555 0.70233 0.0
C297 C 0.10811 0.84006 0.70187 0.0
C298 C 0.09841 0.90794 0.7439 0.0
C299 C 0.14122 0.91545 0.73776 0.0
N300 N 0.20897 0.88633 0.73714 0.0
N301 N 0.04262 0.85819 0.74228 0.0
C302 C 0.16802 0.88229 0.72613 0.0
C303 C 0.08246 0.86845 0.73049 0.0
N304 N 0.1761 0.81684 0.67722 0.0
N305 N 0.07281 0.93965 0.75789 0.0
H306 H 0.03066 0.82923 0.73249 0.0
H307 H 0.02293 0.87658 0.76638 0.0
H308 H 0.08419 0.96872 0.76788 0.0
H309 H 0.04084 0.93781 0.75671 0.0
H310 H 0.20751 0.82114 0.67061 0.0
H311 H 0.16444 0.78928 0.66096 0.0
H312 H 0.23001 0.86237 0.73259 0.0
H313 H 0.22077 0.91282 0.75638 0.0
C314 C 0.05435 0.06316 0.82142 0.0
C315 C 0.08593 0.08979 0.80278 0.0
C316 C 0.038 0.1471 0.80942 0.0
C317 C 0.00556 0.11849 0.80398 0.0
N318 N 0.98063 0.05037 0.821 0.0
N319 N 0.11096 0.15881 0.79236 0.0
C320 C 0.01301 0.07689 0.81764 0.0
C321 C 0.07903 0.13268 0.80276 0.0
N322 N 0.06425 0.02489 0.84059 0.0
N323 N 0.02897 0.18772 0.8162 0.0
H324 H 0.14114 0.14806 0.78855 0.0
H325 H 0.10734 0.19037 0.78646 0.0
H326 H 0.99849 0.1977 0.8194 0.0
H327 H 0.05125 0.21031 0.82247 0.0
H328 H 0.04277 0.00438 0.85734 0.0
H329 H 0.09496 0.01568 0.84408 0.0
H330 H 0.98391 0.0186 0.82473 0.0
H331 H 0.95034 0.06103 0.81838 0.0
C332 C 0.80517 0.07993 0.61682 0.0
C333 C 0.83641 0.07197 0.65747 0.0
C334 C 0.81131 0.00127 0.66874 0.0
C335 C 0.78705 0.00651 0.61879 0.0
N336 N 0.75442 0.05165 0.55133 0.0
N337 N 0.86828 0.02685 0.72593 0.0
C338 C 0.78146 0.04647 0.59543 0.0
C339 C 0.83861 0.03336 0.68549 0.0
N340 N 0.79895 0.11934 0.59829 0.0
N341 N 0.80837 0.96587 0.69991 0.0
H342 H 0.88732 0.05039 0.74089 0.0
H343 H 0.87528 0.99803 0.74277 0.0
H344 H 0.78789 0.94237 0.68974 0.0
H345 H 0.82301 0.96146 0.73903 0.0
H346 H 0.77517 0.12815 0.57115 0.0
H347 H 0.81612 0.1441 0.61377 0.0
H348 H 0.7519 0.07842 0.52719 0.0
H349 H 0.73459 0.02814 0.53861 0.0
C350 C 0.85635 0.78889 0.57961 0.0
C351 C 0.84984 0.83128 0.59053 0.0
C352 C 0.92035 0.8383 0.62636 0.0
C353 C 0.92813 0.79701 0.61002 0.0
N354 N 0.90144 0.72958 0.59065 0.0
N355 N 0.8705 0.8933 0.63877 0.0
C356 C 0.89524 0.77104 0.59334 0.0
C357 C 0.8802 0.85484 0.61929 0.0
N358 N 0.82613 0.76647 0.55361 0.0
N359 N 0.95207 0.86206 0.64606 0.0
H360 H 0.84136 0.90609 0.63315 0.0
H361 H 0.88981 0.91121 0.66405 0.0
H362 H 0.98117 0.84994 0.65451 0.0
H363 H 0.95018 0.89368 0.65251 0.0
H364 H 0.83027 0.73662 0.53854 0.0
H365 H 0.79702 0.77864 0.54521 0.0
H366 H 0.87825 0.70836 0.58216 0.0
H367 H 0.92934 0.71627 0.60262 0.0
C368 C 0.62392 0.58142 0.6885 0.0
C369 C 0.58136 0.57546 0.69906 0.0
C370 C 0.58831 0.50224 0.67731 0.0
C371 C 0.63114 0.50733 0.68221 0.0
N372 N 0.68759 0.54981 0.65546 0.0
N373 N 0.52077 0.53426 0.68488 0.0
C374 C 0.64798 0.54665 0.6737 0.0
C375 C 0.56263 0.53711 0.68596 0.0
N376 N 0.64174 0.61884 0.69777 0.0
N377 N 0.57307 0.46348 0.67039 0.0
H378 H 0.50227 0.56015 0.69051 0.0
H379 H 0.50459 0.50742 0.67595 0.0
H380 H 0.59282 0.43845 0.66454 0.0
H381 H 0.54191 0.45618 0.66954 0.0
H382 H 0.67341 0.62366 0.69613 0.0
H383 H 0.62479 0.64467 0.70975 0.0
H384 H 0.70165 0.57774 0.64564 0.0
H385 H 0.70469 0.52342 0.646 0.0
C386 C 0.3683 0.66109 0.77781 0.0
C387 C 0.39789 0.63318 0.75718 0.0
C388 C 0.35236 0.57528 0.77745 0.0
C389 C 0.32785 0.60218 0.81107 0.0
N390 N 0.30674 0.67104 0.83538 0.0
N391 N 0.41094 0.56858 0.71284 0.0
C392 C 0.33345 0.64547 0.80759 0.0
C393 C 0.38692 0.59176 0.74812 0.0
N394 N 0.37428 0.70213 0.76913 0.0
N395 N 0.34447 0.53398 0.77734 0.0
H396 H 0.4354 0.58197 0.69068 0.0
H397 H 0.40479 0.5382 0.70172 0.0
H398 H 0.31899 0.52124 0.79778 0.0
H399 H 0.36342 0.51214 0.75825 0.0
H400 H 0.3532 0.7248 0.78047 0.0
H401 H 0.39982 0.71289 0.74648 0.0
H402 H 0.31103 0.70263 0.83938 0.0
H403 H 0.28021 0.66011 0.85549 0.0
C404 C 0.3015 0.41261 0.88553 0.0
C405 C 0.27997 0.42944 0.93287 0.0
C406 C 0.2957 0.36742 0.98905 0.0
C407 C 0.32414 0.35504 0.9464 0.0
N408 N 0.35322 0.36438 0.85222 0.0
N409 N 0.25227 0.42158 0.02762 0.0
C410 C 0.32599 0.37657 0.89343 0.0
C411 C 0.27525 0.40599 0.98372 0.0
N412 N 0.29909 0.43141 0.83337 0.0
N413 N 0.28831 0.34194 0.03445 0.0
H414 H 0.23451 0.44811 0.02299 0.0
H415 H 0.2516 0.40918 0.06865 0.0
H416 H 0.30245 0.31322 0.03843 0.0
H417 H 0.26587 0.34731 0.06529 0.0
H418 H 0.31093 0.41885 0.79587 0.0
H419 H 0.28171 0.45784 0.82631 0.0
H420 H 0.36051 0.38193 0.81639 0.0
H421 H 0.3703 0.33736 0.8549 0.0
C422 C 0.5833 0.31887 0.86812 0.0
C423 C 0.5773 0.35764 0.84148 0.0
C424 C 0.50293 0.35272 0.85799 0.0
C425 C 0.50904 0.31436 0.88556 0.0
N426 N 0.55191 0.25536 0.90107 0.0
N427 N 0.53118 0.40562 0.79613 0.0
C428 C 0.54832 0.29557 0.88519 0.0
C429 C 0.53689 0.37252 0.83133 0.0
N430 N 0.62216 0.30555 0.88054 0.0
N431 N 0.46521 0.37123 0.86002 0.0
H432 H 0.55559 0.42044 0.77569 0.0
H433 H 0.50233 0.41582 0.7829 0.0
H434 H 0.43958 0.35715 0.87834 0.0
H435 H 0.45988 0.40134 0.84671 0.0
H436 H 0.6282 0.27979 0.90568 0.0
H437 H 0.6485 0.32188 0.86903 0.0
H438 H 0.57909 0.23858 0.8974 0.0
H439 H 0.52617 0.23782 0.91168 0.0
C440 C 0.68167 0.46557 0.02191 0.0
C441 C 0.70416 0.48811 0.06345 0.0
C442 C 0.69682 0.4279 0.12653 0.0
C443 C 0.66611 0.41124 0.08949 0.0
N444 N 0.61917 0.42783 0.01169 0.0
N445 N 0.72798 0.49077 0.16184 0.0
C446 C 0.65552 0.43385 0.03989 0.0
C447 C 0.71063 0.46936 0.11785 0.0
N448 N 0.6849 0.47393 0.96501 0.0
N449 N 0.71397 0.40419 0.16826 0.0
H450 H 0.73699 0.52139 0.1586 0.0
H451 H 0.72968 0.479 0.20327 0.0
H452 H 0.7073 0.373 0.17236 0.0
H453 H 0.73845 0.41423 0.1935 0.0
H454 H 0.67054 0.4553 0.93479 0.0
H455 H 0.70555 0.49531 0.94841 0.0
H456 H 0.61054 0.44597 0.97683 0.0
H457 H 0.59528 0.40994 0.028 0.0
C458 C 0.60891 0.65851 0.18607 0.0
C459 C 0.59459 0.698 0.17094 0.0
C460 C 0.6573 0.71141 0.11703 0.0
C461 C 0.66661 0.66889 0.12064 0.0
N462 N 0.65715 0.6031 0.16694 0.0
N463 N 0.61291 0.76748 0.14839 0.0
C464 C 0.64504 0.64304 0.15947 0.0
C465 C 0.62167 0.72651 0.14544 0.0
N466 N 0.58635 0.63579 0.22389 0.0
N467 N 0.68124 0.73644 0.08396 0.0
H468 H 0.5873 0.77836 0.17065 0.0
H469 H 0.63235 0.79049 0.13326 0.0
H470 H 0.70844 0.72605 0.06503 0.0
H471 H 0.6739 0.76683 0.07434 0.0
H472 H 0.59483 0.60698 0.23922 0.0
H473 H 0.55985 0.6478 0.24294 0.0
H474 H 0.64089 0.58146 0.19065 0.0
H475 H 0.68383 0.5911 0.14871 0.0
C476 C 0.42646 0.62242 0.29613 0.0
C477 C 0.41004 0.65873 0.27176 0.0
C478 C 0.34053 0.63306 0.28689 0.0
C479 C 0.35751 0.59343 0.29323 0.0
N480 N 0.41279 0.55274 0.33006 0.0
N481 N 0.35264 0.70436 0.25951 0.0
C482 C 0.39935 0.58921 0.30814 0.0
C483 C 0.36725 0.66644 0.27416 0.0
N484 N 0.46805 0.61916 0.30274 0.0
N485 N 0.29893 0.63748 0.29054 0.0
H486 H 0.37243 0.72901 0.25158 0.0
H487 H 0.32156 0.71149 0.25567 0.0
H488 H 0.28032 0.61246 0.30143 0.0
H489 H 0.28358 0.66546 0.28712 0.0
H490 H 0.4831 0.59276 0.31669 0.0
H491 H 0.48748 0.64408 0.29442 0.0
H492 H 0.44303 0.54692 0.34217 0.0
H493 H 0.39232 0.52886 0.33915 0.0
C494 C 0.45656 0.43589 0.21473 0.0
C495 C 0.41747 0.42037 0.19865 0.0
C496 C 0.4492 0.35569 0.16826 0.0
C497 C 0.48876 0.37333 0.17662 0.0
N498 N 0.53056 0.43181 0.20295 0.0
N499 N 0.37574 0.36677 0.15744 0.0
C500 C 0.49267 0.41365 0.19948 0.0
C501 C 0.41346 0.38039 0.17527 0.0
N502 N 0.45901 0.47199 0.24453 0.0
N503 N 0.44594 0.31503 0.15444 0.0
H504 H 0.34869 0.38346 0.16381 0.0
H505 H 0.3714 0.34016 0.13338 0.0
H506 H 0.47163 0.29625 0.14959 0.0
H507 H 0.41814 0.29919 0.15279 0.0
H508 H 0.4861 0.48309 0.26261 0.0
H509 H 0.43303 0.48911 0.2555 0.0
H510 H 0.53491 0.46275 0.21277 0.0
H511 H 0.55779 0.41686 0.19184 0.0
C512 C 0.20773 0.32293 0.31238 0.0
C513 C 0.18013 0.337 0.35515 0.0
C514 C 0.22531 0.39536 0.37551 0.0
C515 C 0.24917 0.38559 0.32647 0.0
N516 N 0.26769 0.33672 0.25334 0.0
N517 N 0.15909 0.38918 0.42208 0.0
C518 C 0.24169 0.3482 0.29646 0.0
C519 C 0.18789 0.37405 0.38498 0.0
N520 N 0.20233 0.2848 0.28874 0.0
N521 N 0.23918 0.42309 0.41496 0.0
H522 H 0.13109 0.3744 0.42966 0.0
H523 H 0.16113 0.41826 0.44063 0.0
H524 H 0.26883 0.43507 0.41449 0.0
H525 H 0.22396 0.42904 0.4533 0.0
H526 H 0.22363 0.27048 0.26216 0.0
H527 H 0.17691 0.26632 0.29764 0.0
H528 H 0.26143 0.31332 0.22423 0.0
H529 H 0.29602 0.3511 0.24669 0.0
C530 C 0.69694 0.20284 0.32726 0.0
C531 C 0.73936 0.20375 0.31148 0.0
C532 C 0.73073 0.27425 0.2755 0.0
C533 C 0.68774 0.27043 0.28257 0.0
N534 N 0.62921 0.23388 0.31965 0.0
N535 N 0.79794 0.24141 0.27626 0.0
C536 C 0.67086 0.23611 0.31156 0.0
C537 C 0.75673 0.24 0.28759 0.0
N538 N 0.68111 0.16966 0.35573 0.0
N539 N 0.7462 0.31117 0.25785 0.0
H540 H 0.81795 0.21799 0.28845 0.0
H541 H 0.81233 0.26506 0.25395 0.0
H542 H 0.72711 0.33668 0.2524 0.0
H543 H 0.77737 0.31776 0.25369 0.0
H544 H 0.65268 0.16967 0.37621 0.0
H545 H 0.69671 0.14203 0.36079 0.0
H546 H 0.61356 0.20737 0.33179 0.0
H547 H 0.60966 0.2588 0.31283 0.0
C548 C 0.88841 0.67726 0.11507 0.0
C549 C 0.84531 0.67913 0.12339 0.0
C550 C 0.85216 0.74682 0.16881 0.0
C551 C 0.89557 0.74333 0.1651 0.0
N552 N 0.95546 0.70153 0.14442 0.0
N553 N 0.78607 0.71225 0.16493 0.0
C554 C 0.91392 0.70768 0.14055 0.0
C555 C 0.82714 0.71295 0.15229 0.0
N556 N 0.90497 0.64679 0.08193 0.0
N557 N 0.83491 0.78305 0.18645 0.0
H558 H 0.76696 0.68779 0.15374 0.0
H559 H 0.77162 0.73398 0.19075 0.0
H560 H 0.85244 0.80869 0.19786 0.0
H561 H 0.80347 0.7891 0.18483 0.0
H562 H 0.93549 0.64675 0.06831 0.0
H563 H 0.88748 0.6229 0.06465 0.0
H564 H 0.96971 0.6739 0.1336 0.0
H565 H 0.97563 0.72257 0.1629 0.0
C566 C 0.37954 0.87792 0.3143 0.0
C567 C 0.35227 0.89797 0.27583 0.0
C568 C 0.38886 0.86667 0.19553 0.0
C569 C 0.41044 0.84078 0.23409 0.0
N570 N 0.42113 0.81754 0.33133 0.0
N571 N 0.32639 0.90494 0.17913 0.0
C572 C 0.40475 0.84539 0.29393 0.0
C573 C 0.35581 0.89095 0.21611 0.0
N574 N 0.38219 0.89055 0.36994 0.0
N575 N 0.40031 0.86862 0.13934 0.0
H576 H 0.30015 0.92075 0.19222 0.0
H577 H 0.32578 0.89685 0.13599 0.0
H578 H 0.42553 0.85252 0.12314 0.0
H579 H 0.38778 0.88974 0.11065 0.0
H580 H 0.40424 0.87927 0.39827 0.0
H581 H 0.3656 0.91552 0.3859 0.0
H582 H 0.41399 0.81732 0.3748 0.0
H583 H 0.43857 0.79228 0.31852 0.0
C584 C 0.11042 0.59114 0.7735 0.0
C585 C 0.15206 0.60139 0.78486 0.0
C586 C 0.14281 0.66823 0.73911 0.0
C587 C 0.10237 0.65685 0.72295 0.0
N588 N 0.04994 0.60444 0.71549 0.0
N589 N 0.21071 0.64448 0.76451 0.0
C590 C 0.08667 0.6174 0.73751 0.0
C591 C 0.16911 0.63832 0.76317 0.0
N592 N 0.09309 0.55742 0.79876 0.0
N593 N 0.15557 0.70817 0.73406 0.0
H594 H 0.23114 0.62231 0.77973 0.0
H595 H 0.2251 0.66932 0.74464 0.0
H596 H 0.13635 0.73169 0.71973 0.0
H597 H 0.1835 0.71877 0.75028 0.0
H598 H 0.06169 0.5511 0.79724 0.0
H599 H 0.10971 0.53724 0.82462 0.0
H600 H 0.0391 0.57445 0.71987 0.0
H601 H 0.03186 0.62267 0.68875 0.0
C602 C 0.28151 0.17086 0.88497 0.0
C603 C 0.32479 0.16611 0.88002 0.0
C604 C 0.31526 0.09889 0.8339 0.0
C605 C 0.27209 0.10318 0.84026 0.0
N606 N 0.21396 0.1388 0.88014 0.0
N607 N 0.38332 0.12245 0.86093 0.0
C608 C 0.2552 0.13782 0.86863 0.0
C609 C 0.34183 0.12919 0.85765 0.0
N610 N 0.26557 0.20763 0.90288 0.0
N611 N 0.33077 0.06658 0.80324 0.0
H612 H 0.40389 0.14389 0.87775 0.0
H613 H 0.39709 0.09437 0.85129 0.0
H614 H 0.3124 0.04273 0.78772 0.0
H615 H 0.3614 0.0645 0.79047 0.0
H616 H 0.23436 0.21472 0.90189 0.0
H617 H 0.28392 0.23256 0.91473 0.0
H618 H 0.19992 0.1613 0.9051 0.0
H619 H 0.19415 0.11489 0.86872 0.0
C620 C 0.82476 0.29268 0.71548 0.0
C621 C 0.81687 0.25171 0.73335 0.0
C622 C 0.74689 0.27138 0.76163 0.0
C623 C 0.75402 0.31146 0.73958 0.0
N624 N 0.79703 0.35834 0.68606 0.0
N625 N 0.76915 0.20002 0.76587 0.0
C626 C 0.79199 0.32136 0.71312 0.0
C627 C 0.77756 0.24042 0.75454 0.0
N628 N 0.8642 0.30495 0.70411 0.0
N629 N 0.71094 0.26313 0.7897 0.0
H630 H 0.79101 0.17674 0.76139 0.0
H631 H 0.73989 0.18912 0.77578 0.0
H632 H 0.68686 0.2843 0.79208 0.0
H633 H 0.70569 0.2362 0.8127 0.0
H634 H 0.87255 0.33544 0.69685 0.0
H635 H 0.88946 0.28545 0.70813 0.0
H636 H 0.82234 0.36516 0.66041 0.0
H637 H 0.77443 0.38104 0.6848 0.0
C638 C 0.65781 0.76857 0.62259 0.0
C639 C 0.65366 0.8118 0.62936 0.0
C640 C 0.58593 0.80203 0.67367 0.0
C641 C 0.58943 0.75912 0.66446 0.0
N642 N 0.62335 0.70236 0.61853 0.0
N643 N 0.60927 0.87016 0.64759 0.0
C644 C 0.62373 0.74267 0.63505 0.0
C645 C 0.61645 0.82876 0.65106 0.0
N646 N 0.69486 0.75213 0.60691 0.0
N647 N 0.554 0.81719 0.7054 0.0
H648 H 0.63011 0.8909 0.62982 0.0
H649 H 0.58097 0.88352 0.65721 0.0
H650 H 0.5299 0.79879 0.72009 0.0
H651 H 0.55268 0.84747 0.71991 0.0
H652 H 0.70087 0.72065 0.60681 0.0
H653 H 0.72091 0.77003 0.59916 0.0
H654 H 0.64586 0.68919 0.59264 0.0
H655 H 0.59817 0.68316 0.6261 0.0
C656 C 0.00627 0.2694 0.54209 0.0
C657 C 0.04923 0.26225 0.55122 0.0
C658 C 0.03327 0.22349 0.63799 0.0
C659 C 0.99083 0.23123 0.62962 0.0
N660 N 0.93807 0.27153 0.58373 0.0
N661 N 0.10311 0.24467 0.61776 0.0
C662 C 0.97784 0.2579 0.58535 0.0
C663 C 0.06254 0.24322 0.60247 0.0
N664 N 0.99158 0.28282 0.49051 0.0
N665 N 0.04569 0.19608 0.67844 0.0
H666 H 0.12511 0.2605 0.59379 0.0
H667 H 0.11398 0.23429 0.65714 0.0
H668 H 0.02489 0.182 0.70567 0.0
H669 H 0.07576 0.18519 0.68173 0.0
H670 H 0.96039 0.28268 0.48021 0.0
H671 H 0.00961 0.29014 0.45539 0.0
H672 H 0.92815 0.29467 0.55609 0.0
H673 H 0.91597 0.26257 0.61351 0.0
C674 C 0.67561 0.99063 0.46138 0.0
C675 C 0.69389 0.95237 0.44744 0.0
C676 C 0.72236 0.98284 0.36039 0.0
C677 C 0.71626 0.02197 0.38539 0.0
N678 N 0.68156 0.06482 0.45396 0.0
N679 N 0.72174 0.90859 0.37421 0.0
C680 C 0.69028 0.02648 0.43346 0.0
C681 C 0.71256 0.94728 0.39308 0.0
N682 N 0.64424 0.99254 0.50006 0.0
N683 N 0.73879 0.98016 0.30674 0.0
H684 H 0.71121 0.88241 0.3956 0.0
H685 H 0.73911 0.90229 0.33789 0.0
H686 H 0.74583 0.00628 0.28271 0.0
H687 H 0.74312 0.9527 0.2847 0.0
H688 H 0.62856 0.0196 0.50979 0.0
H689 H 0.63008 0.96615 0.51602 0.0
H690 H 0.66675 0.07005 0.4928 0.0
H691 H 0.69113 0.09147 0.43296 0.0
C692 C 0.06244 0.72592 0.43633 0.0
C693 C 0.03032 0.71476 0.47424 0.0
C694 C 0.98031 0.72351 0.3969 0.0
C695 C 0.01097 0.74407 0.36473 0.0
N696 N 0.08188 0.76199 0.34983 0.0
N697 N 0.95894 0.69644 0.48862 0.0
C698 C 0.05247 0.74369 0.38275 0.0
C699 C 0.9894 0.71064 0.45362 0.0
N700 N 0.10239 0.71923 0.45202 0.0
N701 N 0.94275 0.71604 0.37269 0.0
H702 H 0.96471 0.68209 0.52749 0.0
H703 H 0.92773 0.69897 0.47929 0.0
H704 H 0.93579 0.72462 0.33081 0.0
H705 H 0.91999 0.6981 0.39161 0.0
H706 H 0.12739 0.72383 0.42491 0.0
H707 H 0.11006 0.70501 0.49064 0.0
H708 H 0.11191 0.7674 0.3634 0.0
H709 H 0.07533 0.77328 0.30923 0.0
C710 C 0.24586 0.9697 0.58694 0.0
C711 C 0.24071 0.01169 0.60232 0.0
C712 C 0.25781 0.03266 0.50429 0.0
C713 C 0.2628 0.99066 0.48912 0.0
N714 N 0.27135 0.9201 0.51791 0.0
N715 N 0.2505 0.08343 0.57977 0.0
C716 C 0.2597 0.95944 0.5311 0.0
C717 C 0.2491 0.04332 0.5621 0.0
N718 N 0.23597 0.93949 0.62506 0.0
N719 N 0.26025 0.06228 0.46307 0.0
H720 H 0.2449 0.09238 0.6219 0.0
H721 H 0.26059 0.10759 0.55413 0.0
H722 H 0.26977 0.05577 0.42163 0.0
H723 H 0.25125 0.09272 0.46909 0.0
H724 H 0.23361 0.90846 0.61442 0.0
H725 H 0.22742 0.94586 0.66688 0.0
H726 H 0.27397 0.89663 0.54799 0.0
H727 H 0.28226 0.91171 0.47757 0.0
C728 C 0.53394 0.73725 0.93349 0.0
C729 C 0.50007 0.72538 0.89899 0.0
C730 C 0.45251 0.74153 0.97719 0.0
C731 C 0.4866 0.74804 0.01385 0.0
N732 N 0.55998 0.75107 0.02851 0.0
N733 N 0.42734 0.71388 0.88776 0.0
C734 C 0.52741 0.74606 0.99233 0.0
C735 C 0.45935 0.7272 0.92065 0.0
N736 N 0.57211 0.74146 0.90948 0.0
N737 N 0.41365 0.75047 0.99596 0.0
H738 H 0.43136 0.70467 0.84562 0.0
H739 H 0.39759 0.70938 0.90306 0.0
H740 H 0.40766 0.76203 0.03677 0.0
H741 H 0.3878 0.7503 0.96966 0.0
H742 H 0.59718 0.75428 0.9307 0.0
H743 H 0.57808 0.73534 0.86648 0.0
H744 H 0.59029 0.74425 0.01762 0.0
H745 H 0.55638 0.76015 0.07079 0.0
C746 C 0.21663 0.57794 0.0819 0.0
C747 C 0.19761 0.54765 0.04721 0.0
C748 C 0.2002 0.49809 0.12519 0.0
C749 C 0.22658 0.52539 0.15495 0.0
N750 N 0.2505 0.59396 0.17218 0.0
N751 N 0.15218 0.48891 0.04683 0.0
C752 C 0.23117 0.56661 0.13698 0.0
C753 C 0.18287 0.51089 0.07242 0.0
N754 N 0.22061 0.6171 0.06136 0.0
N755 N 0.19371 0.45932 0.14591 0.0
H756 H 0.13609 0.49989 0.01149 0.0
H757 H 0.13882 0.46287 0.06491 0.0
H758 H 0.20416 0.45007 0.18609 0.0
H759 H 0.17938 0.43605 0.12266 0.0
H760 H 0.23513 0.64101 0.0829 0.0
H761 H 0.2072 0.62605 0.0227 0.0
H762 H 0.25675 0.62445 0.16197 0.0
H763 H 0.25903 0.58576 0.2136 0.0
C764 C 0.50445 0.2198 0.14282 0.0
C765 C 0.54339 0.22729 0.11715 0.0
C766 C 0.51678 0.19876 0.02766 0.0
C767 C 0.47645 0.20732 0.04721 0.0
N768 N 0.4307 0.21338 0.12755 0.0
N769 N 0.58948 0.2133 0.03873 0.0
C770 C 0.46989 0.21352 0.10647 0.0
C771 C 0.55055 0.21309 0.06065 0.0
N772 N 0.50056 0.21789 0.2009 0.0
N773 N 0.52287 0.1753 0.98001 0.0
H774 H 0.61529 0.21922 0.06399 0.0
H775 H 0.59592 0.2082 0.99566 0.0
H776 H 0.49885 0.16058 0.95881 0.0
H777 H 0.55186 0.166 0.96612 0.0
H778 H 0.47311 0.21093 0.22167 0.0
H779 H 0.52576 0.21738 0.22831 0.0
H780 H 0.4231 0.22234 0.16898 0.0
H781 H 0.40551 0.20467 0.10261 0.0
C782 C 0.77988 0.47466 0.88803 0.0
C783 C 0.75799 0.48696 0.83893 0.0
C784 C 0.76976 0.55929 0.86348 0.0
C785 C 0.78319 0.54695 0.91873 0.0
N786 N 0.79929 0.49077 0.98458 0.0
N787 N 0.73596 0.54006 0.77477 0.0
C788 C 0.789 0.50414 0.93096 0.0
C789 C 0.75457 0.5291 0.82473 0.0
N790 N 0.79161 0.43447 0.8937 0.0
N791 N 0.77248 0.59974 0.84785 0.0
H792 H 0.72849 0.51825 0.74383 0.0
H793 H 0.72725 0.57003 0.7647 0.0
H794 H 0.78488 0.62221 0.87468 0.0
H795 H 0.76618 0.61047 0.80683 0.0
H796 H 0.81142 0.42416 0.92567 0.0
H797 H 0.78512 0.41234 0.86261 0.0
H798 H 0.79733 0.46004 0.99695 0.0
H799 H 0.80658 0.50965 0.01882 0.0
loop_
_geom_bond_atom_site_label_1
_geom_bond_atom_site_label_2
_geom_bond_distance
_geom_bond_site_symmetry_2
_ccdc_geom_bond_type
Co0 O1 2.216 . S
Co0 O2 2.091 . S
Co0 O4 2.004 1_455 S
Co0 O10 2.021 . S
Co0 O12 2.137 . S
Co0 O13 2.244 . S
O1 Co0 2.216 . S
O1 C8 1.247 . S
O2 Co0 2.091 . S
O2 C8 1.261 . S
C3 O12 1.247 . S
C3 O13 1.272 . S
O4 Co0 2.004 1_655 S
O4 C9 1.259 . S
Co5 O6 2.061 1_455 S
Co5 O11 2.052 . S
Co5 O13 2.135 . S
O6 Co5 2.061 1_655 S
O6 C9 1.235 . S
C7 O10 1.238 . S
C7 O11 1.241 . S
C8 O1 1.247 . S
C8 O2 1.261 . S
C9 O4 1.259 . S
C9 O6 1.235 . S
O10 Co0 2.021 . S
O10 C7 1.238 . S
O11 Co5 2.052 . S
O11 C7 1.241 . S
O12 Co0 2.137 . S
O12 C3 1.247 . S
O13 Co0 2.244 . S
O13 C3 1.272 . S
O13 Co5 2.135 . S
Co14 O15 2.216 . S
Co14 O16 2.091 . S
Co14 O18 2.004 1_545 S
Co14 O24 2.021 . S
Co14 O26 2.137 . S
Co14 O27 2.244 . S
O15 Co14 2.216 . S
O15 C22 1.247 . S
O16 Co14 2.091 . S
O16 C22 1.261 . S
C17 O26 1.247 . S
C17 O27 1.272 . S
O18 Co14 2.004 1_565 S
O18 C23 1.259 . S
Co19 O20 2.061 1_545 S
Co19 O25 2.052 . S
Co19 O27 2.135 . S
O20 Co19 2.061 1_565 S
O20 C23 1.235 . S
C21 O24 1.238 . S
C21 O25 1.241 . S
C22 O15 1.247 . S
C22 O16 1.261 . S
C23 O18 1.259 . S
C23 O20 1.235 . S
O24 Co14 2.021 . S
O24 C21 1.238 . S
O25 Co19 2.052 . S
O25 C21 1.241 . S
O26 Co14 2.137 . S
O26 C17 1.247 . S
O27 Co14 2.244 . S
O27 C17 1.272 . S
O27 Co19 2.135 . S
Co28 O29 2.216 . S
Co28 O30 2.091 . S
Co28 O32 2.004 1_655 S
Co28 O38 2.021 . S
Co28 O40 2.137 . S
Co28 O41 2.244 . S
O29 Co28 2.216 . S
O29 C36 1.247 . S
O30 Co28 2.091 . S
O30 C36 1.261 . S
C31 O40 1.247 . S
C31 O41 1.272 . S
O32 Co28 2.004 1_455 S
O32 C37 1.259 . S
Co33 O34 2.061 1_655 S
Co33 O39 2.052 . S
Co33 O41 2.135 . S
O34 Co33 2.061 1_455 S
O34 C37 1.235 . S
C35 O38 1.238 . S
C35 O39 1.241 . S
C36 O29 1.247 . S
C36 O30 1.261 . S
C37 O32 1.259 . S
C37 O34 1.235 . S
O38 Co28 2.021 . S
O38 C35 1.238 . S
O39 Co33 2.052 . S
O39 C35 1.241 . S
O40 Co28 2.137 . S
O40 C31 1.247 . S
O41 Co28 2.244 . S
O41 C31 1.272 . S
O41 Co33 2.135 . S
Co42 O43 2.216 . S
Co42 O44 2.091 . S
Co42 O46 2.004 1_565 S
Co42 O52 2.021 . S
Co42 O54 2.137 . S
Co42 O55 2.244 . S
O43 Co42 2.216 . S
O43 C50 1.247 . S
O44 Co42 2.091 . S
O44 C50 1.261 . S
C45 O54 1.247 . S
C45 O55 1.272 . S
O46 Co42 2.004 1_545 S
O46 C51 1.259 . S
Co47 O48 2.061 1_565 S
Co47 O53 2.052 . S
Co47 O55 2.135 . S
O48 Co47 2.061 1_545 S
O48 C51 1.235 . S
C49 O52 1.238 . S
C49 O53 1.241 . S
C50 O43 1.247 . S
C50 O44 1.261 . S
C51 O46 1.259 . S
C51 O48 1.235 . S
O52 Co42 2.021 . S
O52 C49 1.238 . S
O53 Co47 2.052 . S
O53 C49 1.241 . S
O54 Co42 2.137 . S
O54 C45 1.247 . S
O55 Co42 2.244 . S
O55 C45 1.272 . S
O55 Co47 2.135 . S
Co56 O57 2.216 . S
Co56 O58 2.091 . S
Co56 O60 2.004 1_455 S
Co56 O66 2.021 . S
Co56 O68 2.137 . S
Co56 O69 2.244 . S
O57 Co56 2.216 . S
O57 C64 1.247 . S
O58 Co56 2.091 . S
O58 C64 1.261 . S
C59 O68 1.247 . S
C59 O69 1.272 . S
O60 Co56 2.004 1_655 S
O60 C65 1.259 . S
Co61 O62 2.061 1_455 S
Co61 O67 2.052 . S
Co61 O69 2.135 . S
O62 Co61 2.061 1_655 S
O62 C65 1.235 . S
C63 O66 1.238 . S
C63 O67 1.241 . S
C64 O57 1.247 . S
C64 O58 1.261 . S
C65 O60 1.259 . S
C65 O62 1.235 . S
O66 Co56 2.021 . S
O66 C63 1.238 . S
O67 Co61 2.052 . S
O67 C63 1.241 . S
O68 Co56 2.137 . S
O68 C59 1.247 . S
O69 Co56 2.244 . S
O69 C59 1.272 . S
O69 Co61 2.135 . S
Co70 O71 2.216 . S
Co70 O72 2.091 . S
Co70 O74 2.004 1_545 S
Co70 O80 2.021 . S
Co70 O82 2.137 . S
Co70 O83 2.244 . S
O71 Co70 2.216 . S
O71 C78 1.247 . S
O72 Co70 2.091 . S
O72 C78 1.261 . S
C73 O82 1.247 . S
C73 O83 1.272 . S
O74 Co70 2.004 1_565 S
O74 C79 1.259 . S
Co75 O76 2.061 1_545 S
Co75 O81 2.052 . S
Co75 O83 2.135 . S
O76 Co75 2.061 1_565 S
O76 C79 1.235 . S
C77 O80 1.238 . S
C77 O81 1.241 . S
C78 O71 1.247 . S
C78 O72 1.261 . S
C79 O74 1.259 . S
C79 O76 1.235 . S
O80 Co70 2.021 . S
O80 C77 1.238 . S
O81 Co75 2.052 . S
O81 C77 1.241 . S
O82 Co70 2.137 . S
O82 C73 1.247 . S
O83 Co70 2.244 . S
O83 C73 1.272 . S
O83 Co75 2.135 . S
Co84 O85 2.216 . S
Co84 O86 2.091 . S
Co84 O88 2.004 1_655 S
Co84 O94 2.021 . S
Co84 O96 2.137 . S
Co84 O97 2.244 . S
O85 Co84 2.216 . S
O85 C92 1.247 . S
O86 Co84 2.091 . S
O86 C92 1.261 . S
C87 O96 1.247 . S
C87 O97 1.272 . S
O88 Co84 2.004 1_455 S
O88 C93 1.259 . S
Co89 O90 2.061 1_655 S
Co89 O95 2.052 . S
Co89 O97 2.135 . S
O90 Co89 2.061 1_455 S
O90 C93 1.235 . S
C91 O94 1.238 . S
C91 O95 1.241 . S
C92 O85 1.247 . S
C92 O86 1.261 . S
C93 O88 1.259 . S
C93 O90 1.235 . S
O94 Co84 2.021 . S
O94 C91 1.238 . S
O95 Co89 2.052 . S
O95 C91 1.241 . S
O96 Co84 2.137 . S
O96 C87 1.247 . S
O97 Co84 2.244 . S
O97 C87 1.272 . S
O97 Co89 2.135 . S
Co98 O99 2.216 . S
Co98 O100 2.091 . S
Co98 O102 2.004 1_565 S
Co98 O108 2.021 . S
Co98 O110 2.137 . S
Co98 O111 2.244 . S
O99 Co98 2.216 . S
O99 C106 1.247 . S
O100 Co98 2.091 . S
O100 C106 1.261 . S
C101 O110 1.247 . S
C101 O111 1.272 . S
O102 Co98 2.004 1_545 S
O102 C107 1.259 . S
Co103 O104 2.061 1_565 S
Co103 O109 2.052 . S
Co103 O111 2.135 . S
O104 Co103 2.061 1_545 S
O104 C107 1.235 . S
C105 O108 1.238 . S
C105 O109 1.241 . S
C106 O99 1.247 . S
C106 O100 1.261 . S
C107 O102 1.259 . S
C107 O104 1.235 . S
O108 Co98 2.021 . S
O108 C105 1.238 . S
O109 Co103 2.052 . S
O109 C105 1.241 . S
O110 Co98 2.137 . S
O110 C101 1.247 . S
O111 Co98 2.244 . S
O111 C101 1.272 . S
O111 Co103 2.135 . S
Co112 O113 2.216 . S
Co112 O114 2.091 . S
Co112 O116 2.004 . S
Co112 O122 2.021 . S
Co112 O124 2.137 . S
Co112 O125 2.244 . S
O113 Co112 2.216 . S
O113 C120 1.247 . S
O114 Co112 2.091 . S
O114 C120 1.261 . S
C115 O124 1.247 . S
C115 O125 1.272 . S
O116 Co112 2.004 . S
O116 C121 1.259 . S
Co117 O118 2.061 . S
Co117 O123 2.052 . S
Co117 O125 2.135 . S
O118 Co117 2.061 . S
O118 C121 1.235 . S
C119 O122 1.238 . S
C119 O123 1.241 . S
C120 O113 1.247 . S
C120 O114 1.261 . S
C121 O116 1.259 . S
C121 O118 1.235 . S
O122 Co112 2.021 . S
O122 C119 1.238 . S
O123 Co117 2.052 . S
O123 C119 1.241 . S
O124 Co112 2.137 . S
O124 C115 1.247 . S
O125 Co112 2.244 . S
O125 C115 1.272 . S
O125 Co117 2.135 . S
Co126 O127 2.216 . S
Co126 O128 2.091 . S
Co126 O130 2.004 . S
Co126 O136 2.021 . S
Co126 O138 2.137 . S
Co126 O139 2.244 . S
O127 Co126 2.216 . S
O127 C134 1.247 . S
O128 Co126 2.091 . S
O128 C134 1.261 . S
C129 O138 1.247 . S
C129 O139 1.272 . S
O130 Co126 2.004 . S
O130 C135 1.259 . S
Co131 O132 2.061 . S
Co131 O137 2.052 . S
Co131 O139 2.135 . S
O132 Co131 2.061 . S
O132 C135 1.235 . S
C133 O136 1.238 . S
C133 O137 1.241 . S
C134 O127 1.247 . S
C134 O128 1.261 . S
C135 O130 1.259 . S
C135 O132 1.235 . S
O136 Co126 2.021 . S
O136 C133 1.238 . S
O137 Co131 2.052 . S
O137 C133 1.241 . S
O138 Co126 2.137 . S
O138 C129 1.247 . S
O139 Co126 2.244 . S
O139 C129 1.272 . S
O139 Co131 2.135 . S
Co140 O141 2.216 . S
Co140 O142 2.091 . S
Co140 O144 2.004 . S
Co140 O150 2.021 . S
Co140 O152 2.137 . S
Co140 O153 2.244 . S
O141 Co140 2.216 . S
O141 C148 1.247 . S
O142 Co140 2.091 . S
O142 C148 1.261 . S
C143 O152 1.247 . S
C143 O153 1.272 . S
O144 Co140 2.004 . S
O144 C149 1.259 . S
Co145 O146 2.061 . S
Co145 O151 2.052 . S
Co145 O153 2.135 . S
O146 Co145 2.061 . S
O146 C149 1.235 . S
C147 O150 1.238 . S
C147 O151 1.241 . S
C148 O141 1.247 . S
C148 O142 1.261 . S
C149 O144 1.259 . S
C149 O146 1.235 . S
O150 Co140 2.021 . S
O150 C147 1.238 . S
O151 Co145 2.052 . S
O151 C147 1.241 . S
O152 Co140 2.137 . S
O152 C143 1.247 . S
O153 Co140 2.244 . S
O153 C143 1.272 . S
O153 Co145 2.135 . S
Co154 O155 2.216 . S
Co154 O156 2.091 . S
Co154 O158 2.004 . S
Co154 O164 2.021 . S
Co154 O166 2.137 . S
Co154 O167 2.244 . S
O155 Co154 2.216 . S
O155 C162 1.247 . S
O156 Co154 2.091 . S
O156 C162 1.261 . S
C157 O166 1.247 . S
C157 O167 1.272 . S
O158 Co154 2.004 . S
O158 C163 1.259 . S
Co159 O160 2.061 . S
Co159 O165 2.052 . S
Co159 O167 2.135 . S
O160 Co159 2.061 . S
O160 C163 1.235 . S
C161 O164 1.238 . S
C161 O165 1.241 . S
C162 O155 1.247 . S
C162 O156 1.261 . S
C163 O158 1.259 . S
C163 O160 1.235 . S
O164 Co154 2.021 . S
O164 C161 1.238 . S
O165 Co159 2.052 . S
O165 C161 1.241 . S
O166 Co154 2.137 . S
O166 C157 1.247 . S
O167 Co154 2.244 . S
O167 C157 1.272 . S
O167 Co159 2.135 . S
Co168 O169 2.216 . S
Co168 O170 2.091 . S
Co168 O172 2.004 . S
Co168 O178 2.021 . S
Co168 O180 2.137 . S
Co168 O181 2.244 . S
O169 Co168 2.216 . S
O169 C176 1.247 . S
O170 Co168 2.091 . S
O170 C176 1.261 . S
C171 O180 1.247 . S
C171 O181 1.272 . S
O172 Co168 2.004 . S
O172 C177 1.259 . S
Co173 O174 2.061 . S
Co173 O179 2.052 . S
Co173 O181 2.135 . S
O174 Co173 2.061 . S
O174 C177 1.235 . S
C175 O178 1.238 . S
C175 O179 1.241 . S
C176 O169 1.247 . S
C176 O170 1.261 . S
C177 O172 1.259 . S
C177 O174 1.235 . S
O178 Co168 2.021 . S
O178 C175 1.238 . S
O179 Co173 2.052 . S
O179 C175 1.241 . S
O180 Co168 2.137 . S
O180 C171 1.247 . S
O181 Co168 2.244 . S
O181 C171 1.272 . S
O181 Co173 2.135 . S
Co182 O183 2.216 . S
Co182 O184 2.091 . S
Co182 O186 2.004 . S
Co182 O192 2.021 . S
Co182 O194 2.137 . S
Co182 O195 2.244 . S
O183 Co182 2.216 . S
O183 C190 1.247 . S
O184 Co182 2.091 . S
O184 C190 1.261 . S
C185 O194 1.247 . S
C185 O195 1.272 . S
O186 Co182 2.004 . S
O186 C191 1.259 . S
Co187 O188 2.061 . S
Co187 O193 2.052 . S
Co187 O195 2.135 . S
O188 Co187 2.061 . S
O188 C191 1.235 . S
C189 O192 1.238 . S
C189 O193 1.241 . S
C190 O183 1.247 . S
C190 O184 1.261 . S
C191 O186 1.259 . S
C191 O188 1.235 . S
O192 Co182 2.021 . S
O192 C189 1.238 . S
O193 Co187 2.052 . S
O193 C189 1.241 . S
O194 Co182 2.137 . S
O194 C185 1.247 . S
O195 Co182 2.244 . S
O195 C185 1.272 . S
O195 Co187 2.135 . S
Co196 O197 2.216 . S
Co196 O198 2.091 . S
Co196 O200 2.004 . S
Co196 O206 2.021 . S
Co196 O208 2.137 . S
Co196 O209 2.244 . S
O197 Co196 2.216 . S
O197 C204 1.247 . S
O198 Co196 2.091 . S
O198 C204 1.261 . S
C199 O208 1.247 . S
C199 O209 1.272 . S
O200 Co196 2.004 . S
O200 C205 1.259 . S
Co201 O202 2.061 . S
Co201 O207 2.052 . S
Co201 O209 2.135 . S
O202 Co201 2.061 . S
O202 C205 1.235 . S
C203 O206 1.238 . S
C203 O207 1.241 . S
C204 O197 1.247 . S
C204 O198 1.261 . S
C205 O200 1.259 . S
C205 O202 1.235 . S
O206 Co196 2.021 . S
O206 C203 1.238 . S
O207 Co201 2.052 . S
O207 C203 1.241 . S
O208 Co196 2.137 . S
O208 C199 1.247 . S
O209 Co196 2.244 . S
O209 C199 1.272 . S
O209 Co201 2.135 . S
Co210 O211 2.216 . S
Co210 O212 2.091 . S
Co210 O214 2.004 . S
Co210 O220 2.021 . S
Co210 O222 2.137 . S
Co210 O223 2.244 . S
O211 Co210 2.216 . S
O211 C218 1.247 . S
O212 Co210 2.091 . S
O212 C218 1.261 . S
C213 O222 1.247 . S
C213 O223 1.272 . S
O214 Co210 2.004 . S
O214 C219 1.259 . S
Co215 O216 2.061 . S
Co215 O221 2.052 . S
Co215 O223 2.135 . S
O216 Co215 2.061 . S
O216 C219 1.235 . S
C217 O220 1.238 . S
C217 O221 1.241 . S
C218 O211 1.247 . S
C218 O212 1.261 . S
C219 O214 1.259 . S
C219 O216 1.235 . S
O220 Co210 2.021 . S
O220 C217 1.238 . S
O221 Co215 2.052 . S
O221 C217 1.241 . S
O222 Co210 2.137 . S
O222 C213 1.247 . S
O223 Co210 2.244 . S
O223 C213 1.272 . S
O223 Co215 2.135 . S
C224 C225 1.363 . S
C224 C230 1.379 . S
C224 N232 1.356 . S
C225 C224 1.363 . S
C225 C231 1.363 . S
C226 C227 1.363 . S
C226 C231 1.379 . S
C226 N233 1.356 . S
C227 C226 1.363 . S
C227 C230 1.363 . S
N228 C230 1.356 . S
N228 H240 0.984 . S
N228 H241 0.985 . S
N229 C231 1.356 . S
N229 H234 0.984 . S
N229 H235 0.985 . S
C230 C224 1.379 . S
C230 C227 1.363 . S
C230 N228 1.356 . S
C231 C225 1.363 . S
C231 C226 1.379 . S
C231 N229 1.356 . S
N232 C224 1.356 . S
N232 H238 0.984 . S
N232 H239 0.984 . S
N233 C226 1.356 . S
N233 H236 0.984 . S
N233 H237 0.985 . S
H234 N229 0.984 . S
H235 N229 0.985 . S
H236 N233 0.984 . S
H237 N233 0.985 . S
H238 N232 0.984 . S
H239 N232 0.984 . S
H240 N228 0.984 . S
H241 N228 0.985 . S
C242 C243 1.363 . S
C242 C248 1.379 . S
C242 N250 1.356 . S
C243 C242 1.363 . S
C243 C249 1.363 . S
C244 C245 1.363 . S
C244 C249 1.379 . S
C244 N251 1.356 . S
C245 C244 1.363 . S
C245 C248 1.363 . S
N246 C248 1.356 . S
N246 H258 0.984 . S
N246 H259 0.985 . S
N247 C249 1.356 . S
N247 H252 0.984 . S
N247 H253 0.985 . S
C248 C242 1.379 . S
C248 C245 1.363 . S
C248 N246 1.356 . S
C249 C243 1.363 . S
C249 C244 1.379 . S
C249 N247 1.356 . S
N250 C242 1.356 . S
N250 H256 0.984 . S
N250 H257 0.984 . S
N251 C244 1.356 . S
N251 H254 0.984 . S
N251 H255 0.985 . S
H252 N247 0.984 . S
H253 N247 0.985 . S
H254 N251 0.984 . S
H255 N251 0.985 . S
H256 N250 0.984 . S
H257 N250 0.984 . S
H258 N246 0.984 . S
H259 N246 0.985 . S
C260 C261 1.363 . S
C260 C266 1.379 . S
C260 N268 1.356 . S
C261 C260 1.363 . S
C261 C267 1.363 . S
C262 C263 1.363 . S
C262 C267 1.379 . S
C262 N269 1.356 . S
C263 C262 1.363 . S
C263 C266 1.363 . S
N264 C266 1.356 . S
N264 H276 0.984 . S
N264 H277 0.985 . S
N265 C267 1.356 . S
N265 H270 0.984 . S
N265 H271 0.985 . S
C266 C260 1.379 . S
C266 C263 1.363 . S
C266 N264 1.356 . S
C267 C261 1.363 . S
C267 C262 1.379 . S
C267 N265 1.356 . S
N268 C260 1.356 . S
N268 H274 0.984 . S
N268 H275 0.984 . S
N269 C262 1.356 . S
N269 H272 0.984 . S
N269 H273 0.985 . S
H270 N265 0.984 . S
H271 N265 0.985 . S
H272 N269 0.984 . S
H273 N269 0.985 . S
H274 N268 0.984 . S
H275 N268 0.984 . S
H276 N264 0.984 . S
H277 N264 0.985 . S
C278 C279 1.363 . S
C278 C284 1.379 . S
C278 N286 1.356 . S
C279 C278 1.363 . S
C279 C285 1.363 . S
C280 C281 1.363 . S
C280 C285 1.379 . S
C280 N287 1.356 . S
C281 C280 1.363 . S
C281 C284 1.363 . S
N282 C284 1.356 . S
N282 H294 0.984 . S
N282 H295 0.985 . S
N283 C285 1.356 . S
N283 H288 0.984 . S
N283 H289 0.985 . S
C284 C278 1.379 . S
C284 C281 1.363 . S
C284 N282 1.356 . S
C285 C279 1.363 . S
C285 C280 1.379 . S
C285 N283 1.356 . S
N286 C278 1.356 . S
N286 H292 0.984 . S
N286 H293 0.984 . S
N287 C280 1.356 . S
N287 H290 0.984 . S
N287 H291 0.985 . S
H288 N283 0.984 . S
H289 N283 0.985 . S
H290 N287 0.984 . S
H291 N287 0.985 . S
H292 N286 0.984 . S
H293 N286 0.984 . S
H294 N282 0.984 . S
H295 N282 0.985 . S
C296 C297 1.363 . S
C296 C302 1.379 . S
C296 N304 1.356 . S
C297 C296 1.363 . S
C297 C303 1.363 . S
C298 C299 1.363 . S
C298 C303 1.379 . S
C298 N305 1.356 . S
C299 C298 1.363 . S
C299 C302 1.363 . S
N300 C302 1.356 . S
N300 H312 0.984 . S
N300 H313 0.985 . S
N301 C303 1.356 . S
N301 H306 0.984 . S
N301 H307 0.985 . S
C302 C296 1.379 . S
C302 C299 1.363 . S
C302 N300 1.356 . S
C303 C297 1.363 . S
C303 C298 1.379 . S
C303 N301 1.356 . S
N304 C296 1.356 . S
N304 H310 0.984 . S
N304 H311 0.984 . S
N305 C298 1.356 . S
N305 H308 0.984 . S
N305 H309 0.985 . S
H306 N301 0.984 . S
H307 N301 0.985 . S
H308 N305 0.984 . S
H309 N305 0.985 . S
H310 N304 0.984 . S
H311 N304 0.984 . S
H312 N300 0.984 . S
H313 N300 0.985 . S
C314 C315 1.363 . S
C314 C320 1.379 . S
C314 N322 1.356 . S
C315 C314 1.363 . S
C315 C321 1.363 . S
C316 C317 1.363 . S
C316 C321 1.379 . S
C316 N323 1.356 . S
C317 C316 1.363 . S
C317 C320 1.363 . S
N318 C320 1.356 . S
N318 H330 0.984 . S
N318 H331 0.985 . S
N319 C321 1.356 . S
N319 H324 0.984 . S
N319 H325 0.985 . S
C320 C314 1.379 . S
C320 C317 1.363 . S
C320 N318 1.356 . S
C321 C315 1.363 . S
C321 C316 1.379 . S
C321 N319 1.356 . S
N322 C314 1.356 . S
N322 H328 0.984 . S
N322 H329 0.984 . S
N323 C316 1.356 . S
N323 H326 0.984 . S
N323 H327 0.985 . S
H324 N319 0.984 . S
H325 N319 0.985 . S
H326 N323 0.984 . S
H327 N323 0.985 . S
H328 N322 0.984 . S
H329 N322 0.984 . S
H330 N318 0.984 . S
H331 N318 0.985 . S
C332 C333 1.363 . S
C332 C338 1.379 . S
C332 N340 1.356 . S
C333 C332 1.363 . S
C333 C339 1.363 . S
C334 C335 1.363 . S
C334 C339 1.379 . S
C334 N341 1.356 . S
C335 C334 1.363 . S
C335 C338 1.363 . S
N336 C338 1.356 . S
N336 H348 0.984 . S
N336 H349 0.985 . S
N337 C339 1.356 . S
N337 H342 0.984 . S
N337 H343 0.985 . S
C338 C332 1.379 . S
C338 C335 1.363 . S
C338 N336 1.356 . S
C339 C333 1.363 . S
C339 C334 1.379 . S
C339 N337 1.356 . S
N340 C332 1.356 . S
N340 H346 0.984 . S
N340 H347 0.984 . S
N341 C334 1.356 . S
N341 H344 0.984 . S
N341 H345 0.985 . S
H342 N337 0.984 . S
H343 N337 0.985 . S
H344 N341 0.984 . S
H345 N341 0.985 . S
H346 N340 0.984 . S
H347 N340 0.984 . S
H348 N336 0.984 . S
H349 N336 0.985 . S
C350 C351 1.363 . S
C350 C356 1.379 . S
C350 N358 1.356 . S
C351 C350 1.363 . S
C351 C357 1.363 . S
C352 C353 1.363 . S
C352 C357 1.379 . S
C352 N359 1.356 . S
C353 C352 1.363 . S
C353 C356 1.363 . S
N354 C356 1.356 . S
N354 H366 0.984 . S
N354 H367 0.985 . S
N355 C357 1.356 . S
N355 H360 0.984 . S
N355 H361 0.985 . S
C356 C350 1.379 . S
C356 C353 1.363 . S
C356 N354 1.356 . S
C357 C351 1.363 . S
C357 C352 1.379 . S
C357 N355 1.356 . S
N358 C350 1.356 . S
N358 H364 0.984 . S
N358 H365 0.984 . S
N359 C352 1.356 . S
N359 H362 0.984 . S
N359 H363 0.985 . S
H360 N355 0.984 . S
H361 N355 0.985 . S
H362 N359 0.984 . S
H363 N359 0.985 . S
H364 N358 0.984 . S
H365 N358 0.984 . S
H366 N354 0.984 . S
H367 N354 0.985 . S
C368 C369 1.363 . S
C368 C374 1.379 . S
C368 N376 1.356 . S
C369 C368 1.363 . S
C369 C375 1.363 . S
C370 C371 1.363 . S
C370 C375 1.379 . S
C370 N377 1.356 . S
C371 C370 1.363 . S
C371 C374 1.363 . S
N372 C374 1.356 . S
N372 H384 0.984 . S
N372 H385 0.985 . S
N373 C375 1.356 . S
N373 H378 0.984 . S
N373 H379 0.985 . S
C374 C368 1.379 . S
C374 C371 1.363 . S
C374 N372 1.356 . S
C375 C369 1.363 . S
C375 C370 1.379 . S
C375 N373 1.356 . S
N376 C368 1.356 . S
N376 H382 0.984 . S
N376 H383 0.984 . S
N377 C370 1.356 . S
N377 H380 0.984 . S
N377 H381 0.985 . S
H378 N373 0.984 . S
H379 N373 0.985 . S
H380 N377 0.984 . S
H381 N377 0.985 . S
H382 N376 0.984 . S
H383 N376 0.984 . S
H384 N372 0.984 . S
H385 N372 0.985 . S
C386 C387 1.363 . S
C386 C392 1.379 . S
C386 N394 1.356 . S
C387 C386 1.363 . S
C387 C393 1.363 . S
C388 C389 1.363 . S
C388 C393 1.379 . S
C388 N395 1.356 . S
C389 C388 1.363 . S
C389 C392 1.363 . S
N390 C392 1.356 . S
N390 H402 0.984 . S
N390 H403 0.985 . S
N391 C393 1.356 . S
N391 H396 0.984 . S
N391 H397 0.985 . S
C392 C386 1.379 . S
C392 C389 1.363 . S
C392 N390 1.356 . S
C393 C387 1.363 . S
C393 C388 1.379 . S
C393 N391 1.356 . S
N394 C386 1.356 . S
N394 H400 0.984 . S
N394 H401 0.984 . S
N395 C388 1.356 . S
N395 H398 0.984 . S
N395 H399 0.985 . S
H396 N391 0.984 . S
H397 N391 0.985 . S
H398 N395 0.984 . S
H399 N395 0.985 . S
H400 N394 0.984 . S
H401 N394 0.984 . S
H402 N390 0.984 . S
H403 N390 0.985 . S
C404 C405 1.363 . S
C404 C410 1.379 . S
C404 N412 1.356 . S
C405 C404 1.363 . S
C405 C411 1.363 . S
C406 C407 1.363 . S
C406 C411 1.379 . S
C406 N413 1.356 . S
C407 C406 1.363 . S
C407 C410 1.363 . S
N408 C410 1.356 . S
N408 H420 0.984 . S
N408 H421 0.985 . S
N409 C411 1.356 . S
N409 H414 0.984 . S
N409 H415 0.985 . S
C410 C404 1.379 . S
C410 C407 1.363 . S
C410 N408 1.356 . S
C411 C405 1.363 . S
C411 C406 1.379 . S
C411 N409 1.356 . S
N412 C404 1.356 . S
N412 H418 0.984 . S
N412 H419 0.984 . S
N413 C406 1.356 . S
N413 H416 0.984 . S
N413 H417 0.985 . S
H414 N409 0.984 . S
H415 N409 0.985 . S
H416 N413 0.984 . S
H417 N413 0.985 . S
H418 N412 0.984 . S
H419 N412 0.984 . S
H420 N408 0.984 . S
H421 N408 0.985 . S
C422 C423 1.363 . S
C422 C428 1.379 . S
C422 N430 1.356 . S
C423 C422 1.363 . S
C423 C429 1.363 . S
C424 C425 1.363 . S
C424 C429 1.379 . S
C424 N431 1.356 . S
C425 C424 1.363 . S
C425 C428 1.363 . S
N426 C428 1.356 . S
N426 H438 0.984 . S
N426 H439 0.985 . S
N427 C429 1.356 . S
N427 H432 0.984 . S
N427 H433 0.985 . S
C428 C422 1.379 . S
C428 C425 1.363 . S
C428 N426 1.356 . S
C429 C423 1.363 . S
C429 C424 1.379 . S
C429 N427 1.356 . S
N430 C422 1.356 . S
N430 H436 0.984 . S
N430 H437 0.984 . S
N431 C424 1.356 . S
N431 H434 0.984 . S
N431 H435 0.985 . S
H432 N427 0.984 . S
H433 N427 0.985 . S
H434 N431 0.984 . S
H435 N431 0.985 . S
H436 N430 0.984 . S
H437 N430 0.984 . S
H438 N426 0.984 . S
H439 N426 0.985 . S
C440 C441 1.363 . S
C440 C446 1.379 . S
C440 N448 1.356 . S
C441 C440 1.363 . S
C441 C447 1.363 . S
C442 C443 1.363 . S
C442 C447 1.379 . S
C442 N449 1.356 . S
C443 C442 1.363 . S
C443 C446 1.363 . S
N444 C446 1.356 . S
N444 H456 0.984 . S
N444 H457 0.985 . S
N445 C447 1.356 . S
N445 H450 0.984 . S
N445 H451 0.985 . S
C446 C440 1.379 . S
C446 C443 1.363 . S
C446 N444 1.356 . S
C447 C441 1.363 . S
C447 C442 1.379 . S
C447 N445 1.356 . S
N448 C440 1.356 . S
N448 H454 0.984 . S
N448 H455 0.984 . S
N449 C442 1.356 . S
N449 H452 0.984 . S
N449 H453 0.985 . S
H450 N445 0.984 . S
H451 N445 0.985 . S
H452 N449 0.984 . S
H453 N449 0.985 . S
H454 N448 0.984 . S
H455 N448 0.984 . S
H456 N444 0.984 . S
H457 N444 0.985 . S
C458 C459 1.363 . S
C458 C464 1.379 . S
C458 N466 1.356 . S
C459 C458 1.363 . S
C459 C465 1.363 . S
C460 C461 1.363 . S
C460 C465 1.379 . S
C460 N467 1.356 . S
C461 C460 1.363 . S
C461 C464 1.363 . S
N462 C464 1.356 . S
N462 H474 0.984 . S
N462 H475 0.985 . S
N463 C465 1.356 . S
N463 H468 0.984 . S
N463 H469 0.985 . S
C464 C458 1.379 . S
C464 C461 1.363 . S
C464 N462 1.356 . S
C465 C459 1.363 . S
C465 C460 1.379 . S
C465 N463 1.356 . S
N466 C458 1.356 . S
N466 H472 0.984 . S
N466 H473 0.984 . S
N467 C460 1.356 . S
N467 H470 0.984 . S
N467 H471 0.985 . S
H468 N463 0.984 . S
H469 N463 0.985 . S
H470 N467 0.984 . S
H471 N467 0.985 . S
H472 N466 0.984 . S
H473 N466 0.984 . S
H474 N462 0.984 . S
H475 N462 0.985 . S
C476 C477 1.363 . S
C476 C482 1.379 . S
C476 N484 1.356 . S
C477 C476 1.363 . S
C477 C483 1.363 . S
C478 C479 1.363 . S
C478 C483 1.379 . S
C478 N485 1.356 . S
C479 C478 1.363 . S
C479 C482 1.363 . S
N480 C482 1.356 . S
N480 H492 0.984 . S
N480 H493 0.985 . S
N481 C483 1.356 . S
N481 H486 0.984 . S
N481 H487 0.985 . S
C482 C476 1.379 . S
C482 C479 1.363 . S
C482 N480 1.356 . S
C483 C477 1.363 . S
C483 C478 1.379 . S
C483 N481 1.356 . S
N484 C476 1.356 . S
N484 H490 0.984 . S
N484 H491 0.984 . S
N485 C478 1.356 . S
N485 H488 0.984 . S
N485 H489 0.985 . S
H486 N481 0.984 . S
H487 N481 0.985 . S
H488 N485 0.984 . S
H489 N485 0.985 . S
H490 N484 0.984 . S
H491 N484 0.984 . S
H492 N480 0.984 . S
H493 N480 0.985 . S
C494 C495 1.363 . S
C494 C500 1.379 . S
C494 N502 1.356 . S
C495 C494 1.363 . S
C495 C501 1.363 . S
C496 C497 1.363 . S
C496 C501 1.379 . S
C496 N503 1.356 . S
C497 C496 1.363 . S
C497 C500 1.363 . S
N498 C500 1.356 . S
N498 H510 0.984 . S
N498 H511 0.985 . S
N499 C501 1.356 . S
N499 H504 0.984 . S
N499 H505 0.985 . S
C500 C494 1.379 . S
C500 C497 1.363 . S
C500 N498 1.356 . S
C501 C495 1.363 . S
C501 C496 1.379 . S
C501 N499 1.356 . S
N502 C494 1.356 . S
N502 H508 0.984 . S
N502 H509 0.984 . S
N503 C496 1.356 . S
N503 H506 0.984 . S
N503 H507 0.985 . S
H504 N499 0.984 . S
H505 N499 0.985 . S
H506 N503 0.984 . S
H507 N503 0.985 . S
H508 N502 0.984 . S
H509 N502 0.984 . S
H510 N498 0.984 . S
H511 N498 0.985 . S
C512 C513 1.363 . S
C512 C518 1.379 . S
C512 N520 1.356 . S
C513 C512 1.363 . S
C513 C519 1.363 . S
C514 C515 1.363 . S
C514 C519 1.379 . S
C514 N521 1.356 . S
C515 C514 1.363 . S
C515 C518 1.363 . S
N516 C518 1.356 . S
N516 H528 0.984 . S
N516 H529 0.985 . S
N517 C519 1.356 . S
N517 H522 0.984 . S
N517 H523 0.985 . S
C518 C512 1.379 . S
C518 C515 1.363 . S
C518 N516 1.356 . S
C519 C513 1.363 . S
C519 C514 1.379 . S
C519 N517 1.356 . S
N520 C512 1.356 . S
N520 H526 0.984 . S
N520 H527 0.984 . S
N521 C514 1.356 . S
N521 H524 0.984 . S
N521 H525 0.985 . S
H522 N517 0.984 . S
H523 N517 0.985 . S
H524 N521 0.984 . S
H525 N521 0.985 . S
H526 N520 0.984 . S
H527 N520 0.984 . S
H528 N516 0.984 . S
H529 N516 0.985 . S
C530 C531 1.363 . S
C530 C536 1.379 . S
C530 N538 1.356 . S
C531 C530 1.363 . S
C531 C537 1.363 . S
C532 C533 1.363 . S
C532 C537 1.379 . S
C532 N539 1.356 . S
C533 C532 1.363 . S
C533 C536 1.363 . S
N534 C536 1.356 . S
N534 H546 0.984 . S
N534 H547 0.985 . S
N535 C537 1.356 . S
N535 H540 0.984 . S
N535 H541 0.985 . S
C536 C530 1.379 . S
C536 C533 1.363 . S
C536 N534 1.356 . S
C537 C531 1.363 . S
C537 C532 1.379 . S
C537 N535 1.356 . S
N538 C530 1.356 . S
N538 H544 0.984 . S
N538 H545 0.984 . S
N539 C532 1.356 . S
N539 H542 0.984 . S
N539 H543 0.985 . S
H540 N535 0.984 . S
H541 N535 0.985 . S
H542 N539 0.984 . S
H543 N539 0.985 . S
H544 N538 0.984 . S
H545 N538 0.984 . S
H546 N534 0.984 . S
H547 N534 0.985 . S
C548 C549 1.363 . S
C548 C554 1.379 . S
C548 N556 1.356 . S
C549 C548 1.363 . S
C549 C555 1.363 . S
C550 C551 1.363 . S
C550 C555 1.379 . S
C550 N557 1.356 . S
C551 C550 1.363 . S
C551 C554 1.363 . S
N552 C554 1.356 . S
N552 H564 0.984 . S
N552 H565 0.985 . S
N553 C555 1.356 . S
N553 H558 0.984 . S
N553 H559 0.985 . S
C554 C548 1.379 . S
C554 C551 1.363 . S
C554 N552 1.356 . S
C555 C549 1.363 . S
C555 C550 1.379 . S
C555 N553 1.356 . S
N556 C548 1.356 . S
N556 H562 0.984 . S
N556 H563 0.984 . S
N557 C550 1.356 . S
N557 H560 0.984 . S
N557 H561 0.985 . S
H558 N553 0.984 . S
H559 N553 0.985 . S
H560 N557 0.984 . S
H561 N557 0.985 . S
H562 N556 0.984 . S
H563 N556 0.984 . S
H564 N552 0.984 . S
H565 N552 0.985 . S
C566 C567 1.363 . S
C566 C572 1.379 . S
C566 N574 1.356 . S
C567 C566 1.363 . S
C567 C573 1.363 . S
C568 C569 1.363 . S
C568 C573 1.379 . S
C568 N575 1.356 . S
C569 C568 1.363 . S
C569 C572 1.363 . S
N570 C572 1.356 . S
N570 H582 0.984 . S
N570 H583 0.985 . S
N571 C573 1.356 . S
N571 H576 0.984 . S
N571 H577 0.985 . S
C572 C566 1.379 . S
C572 C569 1.363 . S
C572 N570 1.356 . S
C573 C567 1.363 . S
C573 C568 1.379 . S
C573 N571 1.356 . S
N574 C566 1.356 . S
N574 H580 0.984 . S
N574 H581 0.984 . S
N575 C568 1.356 . S
N575 H578 0.984 . S
N575 H579 0.985 . S
H576 N571 0.984 . S
H577 N571 0.985 . S
H578 N575 0.984 . S
H579 N575 0.985 . S
H580 N574 0.984 . S
H581 N574 0.984 . S
H582 N570 0.984 . S
H583 N570 0.985 . S
C584 C585 1.363 . S
C584 C590 1.379 . S
C584 N592 1.356 . S
C585 C584 1.363 . S
C585 C591 1.363 . S
C586 C587 1.363 . S
C586 C591 1.379 . S
C586 N593 1.356 . S
C587 C586 1.363 . S
C587 C590 1.363 . S
N588 C590 1.356 . S
N588 H600 0.984 . S
N588 H601 0.985 . S
N589 C591 1.356 . S
N589 H594 0.984 . S
N589 H595 0.985 . S
C590 C584 1.379 . S
C590 C587 1.363 . S
C590 N588 1.356 . S
C591 C585 1.363 . S
C591 C586 1.379 . S
C591 N589 1.356 . S
N592 C584 1.356 . S
N592 H598 0.984 . S
N592 H599 0.984 . S
N593 C586 1.356 . S
N593 H596 0.984 . S
N593 H597 0.985 . S
H594 N589 0.984 . S
H595 N589 0.985 . S
H596 N593 0.984 . S
H597 N593 0.985 . S
H598 N592 0.984 . S
H599 N592 0.984 . S
H600 N588 0.984 . S
H601 N588 0.985 . S
C602 C603 1.363 . S
C602 C608 1.379 . S
C602 N610 1.356 . S
C603 C602 1.363 . S
C603 C609 1.363 . S
C604 C605 1.363 . S
C604 C609 1.379 . S
C604 N611 1.356 . S
C605 C604 1.363 . S
C605 C608 1.363 . S
N606 C608 1.356 . S
N606 H618 0.984 . S
N606 H619 0.985 . S
N607 C609 1.356 . S
N607 H612 0.984 . S
N607 H613 0.985 . S
C608 C602 1.379 . S
C608 C605 1.363 . S
C608 N606 1.356 . S
C609 C603 1.363 . S
C609 C604 1.379 . S
C609 N607 1.356 . S
N610 C602 1.356 . S
N610 H616 0.984 . S
N610 H617 0.984 . S
N611 C604 1.356 . S
N611 H614 0.984 . S
N611 H615 0.985 . S
H612 N607 0.984 . S
H613 N607 0.985 . S
H614 N611 0.984 . S
H615 N611 0.985 . S
H616 N610 0.984 . S
H617 N610 0.984 . S
H618 N606 0.984 . S
H619 N606 0.985 . S
C620 C621 1.363 . S
C620 C626 1.379 . S
C620 N628 1.356 . S
C621 C620 1.363 . S
C621 C627 1.363 . S
C622 C623 1.363 . S
C622 C627 1.379 . S
C622 N629 1.356 . S
C623 C622 1.363 . S
C623 C626 1.363 . S
N624 C626 1.356 . S
N624 H636 0.984 . S
N624 H637 0.985 . S
N625 C627 1.356 . S
N625 H630 0.984 . S
N625 H631 0.985 . S
C626 C620 1.379 . S
C626 C623 1.363 . S
C626 N624 1.356 . S
C627 C621 1.363 . S
C627 C622 1.379 . S
C627 N625 1.356 . S
N628 C620 1.356 . S
N628 H634 0.984 . S
N628 H635 0.984 . S
N629 C622 1.356 . S
N629 H632 0.984 . S
N629 H633 0.985 . S
H630 N625 0.984 . S
H631 N625 0.985 . S
H632 N629 0.984 . S
H633 N629 0.985 . S
H634 N628 0.984 . S
H635 N628 0.984 . S
H636 N624 0.984 . S
H637 N624 0.985 . S
C638 C639 1.363 . S
C638 C644 1.379 . S
C638 N646 1.356 . S
C639 C638 1.363 . S
C639 C645 1.363 . S
C640 C641 1.363 . S
C640 C645 1.379 . S
C640 N647 1.356 . S
C641 C640 1.363 . S
C641 C644 1.363 . S
N642 C644 1.356 . S
N642 H654 0.984 . S
N642 H655 0.985 . S
N643 C645 1.356 . S
N643 H648 0.984 . S
N643 H649 0.985 . S
C644 C638 1.379 . S
C644 C641 1.363 . S
C644 N642 1.356 . S
C645 C639 1.363 . S
C645 C640 1.379 . S
C645 N643 1.356 . S
N646 C638 1.356 . S
N646 H652 0.984 . S
N646 H653 0.984 . S
N647 C640 1.356 . S
N647 H650 0.984 . S
N647 H651 0.985 . S
H648 N643 0.984 . S
H649 N643 0.985 . S
H650 N647 0.984 . S
H651 N647 0.985 . S
H652 N646 0.984 . S
H653 N646 0.984 . S
H654 N642 0.984 . S
H655 N642 0.985 . S
C656 C657 1.363 1_655 S
C656 C662 1.379 . S
C656 N664 1.356 . S
C657 C656 1.363 1_455 S
C657 C663 1.363 . S
C658 C659 1.363 1_455 S
C658 C663 1.379 . S
C658 N665 1.356 . S
C659 C658 1.363 1_655 S
C659 C662 1.363 . S
N660 C662 1.356 . S
N660 H672 0.984 . S
N660 H673 0.985 . S
N661 C663 1.356 . S
N661 H666 0.984 . S
N661 H667 0.985 . S
C662 C656 1.379 . S
C662 C659 1.363 . S
C662 N660 1.356 . S
C663 C657 1.363 . S
C663 C658 1.379 . S
C663 N661 1.356 . S
N664 C656 1.356 . S
N664 H670 0.984 . S
N664 H671 0.984 . S
N665 C658 1.356 . S
N665 H668 0.984 . S
N665 H669 0.985 . S
H666 N661 0.984 . S
H667 N661 0.985 . S
H668 N665 0.984 . S
H669 N665 0.985 . S
H670 N664 0.984 . S
H671 N664 0.984 . S
H672 N660 0.984 . S
H673 N660 0.985 . S
C674 C675 1.363 1_545 S
C674 C680 1.379 . S
C674 N682 1.356 . S
C675 C674 1.363 1_565 S
C675 C681 1.363 . S
C676 C677 1.363 1_565 S
C676 C681 1.379 . S
C676 N683 1.356 . S
C677 C676 1.363 1_545 S
C677 C680 1.363 . S
N678 C680 1.356 . S
N678 H690 0.984 . S
N678 H691 0.985 . S
N679 C681 1.356 . S
N679 H684 0.984 . S
N679 H685 0.985 . S
C680 C674 1.379 . S
C680 C677 1.363 . S
C680 N678 1.356 . S
C681 C675 1.363 . S
C681 C676 1.379 . S
C681 N679 1.356 . S
N682 C674 1.356 . S
N682 H688 0.984 . S
N682 H689 0.984 . S
N683 C676 1.356 . S
N683 H686 0.984 . S
N683 H687 0.985 . S
H684 N679 0.984 . S
H685 N679 0.985 . S
H686 N683 0.984 . S
H687 N683 0.985 . S
H688 N682 0.984 . S
H689 N682 0.984 . S
H690 N678 0.984 . S
H691 N678 0.985 . S
C692 C693 1.363 . S
C692 C698 1.379 . S
C692 N700 1.356 . S
C693 C692 1.363 . S
C693 C699 1.363 1_455 S
C694 C695 1.363 . S
C694 C699 1.379 . S
C694 N701 1.356 . S
C695 C694 1.363 . S
C695 C698 1.363 1_655 S
N696 C698 1.356 . S
N696 H708 0.984 . S
N696 H709 0.985 . S
N697 C699 1.356 . S
N697 H702 0.984 . S
N697 H703 0.985 . S
C698 C692 1.379 . S
C698 C695 1.363 1_455 S
C698 N696 1.356 . S
C699 C693 1.363 1_655 S
C699 C694 1.379 . S
C699 N697 1.356 . S
N700 C692 1.356 . S
N700 H706 0.984 . S
N700 H707 0.984 . S
N701 C694 1.356 . S
N701 H704 0.984 . S
N701 H705 0.985 . S
H702 N697 0.984 . S
H703 N697 0.985 . S
H704 N701 0.984 . S
H705 N701 0.985 . S
H706 N700 0.984 . S
H707 N700 0.984 . S
H708 N696 0.984 . S
H709 N696 0.985 . S
C710 C711 1.363 1_565 S
C710 C716 1.379 . S
C710 N718 1.356 . S
C711 C710 1.363 1_545 S
C711 C717 1.363 . S
C712 C713 1.363 1_545 S
C712 C717 1.379 . S
C712 N719 1.356 . S
C713 C712 1.363 1_565 S
C713 C716 1.363 . S
N714 C716 1.356 . S
N714 H726 0.984 . S
N714 H727 0.985 . S
N715 C717 1.356 . S
N715 H720 0.984 . S
N715 H721 0.985 . S
C716 C710 1.379 . S
C716 C713 1.363 . S
C716 N714 1.356 . S
C717 C711 1.363 . S
C717 C712 1.379 . S
C717 N715 1.356 . S
N718 C710 1.356 . S
N718 H724 0.984 . S
N718 H725 0.984 . S
N719 C712 1.356 . S
N719 H722 0.984 . S
N719 H723 0.985 . S
H720 N715 0.984 . S
H721 N715 0.985 . S
H722 N719 0.984 . S
H723 N719 0.985 . S
H724 N718 0.984 . S
H725 N718 0.984 . S
H726 N714 0.984 . S
H727 N714 0.985 . S
C728 C729 1.363 . S
C728 C734 1.379 1_556 S
C728 N736 1.356 . S
C729 C728 1.363 . S
C729 C735 1.363 . S
C730 C731 1.363 . S
C730 C735 1.379 1_554 S
C730 N737 1.356 . S
C731 C730 1.363 . S
C731 C734 1.363 . S
N732 C734 1.356 . S
N732 H744 0.984 . S
N732 H745 0.985 . S
N733 C735 1.356 . S
N733 H738 0.984 . S
N733 H739 0.985 . S
C734 C728 1.379 1_554 S
C734 C731 1.363 . S
C734 N732 1.356 . S
C735 C729 1.363 . S
C735 C730 1.379 1_556 S
C735 N733 1.356 . S
N736 C728 1.356 . S
N736 H742 0.984 . S
N736 H743 0.984 . S
N737 C730 1.356 . S
N737 H740 0.984 . S
N737 H741 0.985 . S
H738 N733 0.984 . S
H739 N733 0.985 . S
H740 N737 0.984 . S
H741 N737 0.985 . S
H742 N736 0.984 . S
H743 N736 0.984 . S
H744 N732 0.984 . S
H745 N732 0.985 . S
C746 C747 1.363 . S
C746 C752 1.379 1_556 S
C746 N754 1.356 . S
C747 C746 1.363 . S
C747 C753 1.363 . S
C748 C749 1.363 . S
C748 C753 1.379 1_554 S
C748 N755 1.356 . S
C749 C748 1.363 . S
C749 C752 1.363 . S
N750 C752 1.356 . S
N750 H762 0.984 . S
N750 H763 0.985 . S
N751 C753 1.356 . S
N751 H756 0.984 . S
N751 H757 0.985 . S
C752 C746 1.379 1_554 S
C752 C749 1.363 . S
C752 N750 1.356 . S
C753 C747 1.363 . S
C753 C748 1.379 1_556 S
C753 N751 1.356 . S
N754 C746 1.356 . S
N754 H760 0.984 . S
N754 H761 0.984 . S
N755 C748 1.356 . S
N755 H758 0.984 . S
N755 H759 0.985 . S
H756 N751 0.984 . S
H757 N751 0.985 . S
H758 N755 0.984 . S
H759 N755 0.985 . S
H760 N754 0.984 . S
H761 N754 0.984 . S
H762 N750 0.984 . S
H763 N750 0.985 . S
C764 C765 1.363 . S
C764 C770 1.379 1_554 S
C764 N772 1.356 . S
C765 C764 1.363 . S
C765 C771 1.363 . S
C766 C767 1.363 . S
C766 C771 1.379 1_556 S
C766 N773 1.356 . S
C767 C766 1.363 . S
C767 C770 1.363 . S
N768 C770 1.356 . S
N768 H780 0.984 . S
N768 H781 0.985 . S
N769 C771 1.356 . S
N769 H774 0.984 . S
N769 H775 0.985 . S
C770 C764 1.379 1_556 S
C770 C767 1.363 . S
C770 N768 1.356 . S
C771 C765 1.363 . S
C771 C766 1.379 1_554 S
C771 N769 1.356 . S
N772 C764 1.356 . S
N772 H778 0.984 . S
N772 H779 0.984 . S
N773 C766 1.356 . S
N773 H776 0.984 . S
N773 H777 0.985 . S
H774 N769 0.984 . S
H775 N769 0.985 . S
H776 N773 0.984 . S
H777 N773 0.985 . S
H778 N772 0.984 . S
H779 N772 0.984 . S
H780 N768 0.984 . S
H781 N768 0.985 . S
C782 C783 1.363 . S
C782 C788 1.379 1_556 S
C782 N790 1.356 . S
C783 C782 1.363 . S
C783 C789 1.363 . S
C784 C785 1.363 . S
C784 C789 1.379 1_554 S
C784 N791 1.356 . S
C785 C784 1.363 . S
C785 C788 1.363 . S
N786 C788 1.356 . S
N786 H798 0.984 . S
N786 H799 0.985 . S
N787 C789 1.356 . S
N787 H792 0.984 . S
N787 H793 0.985 . S
C788 C782 1.379 1_554 S
C788 C785 1.363 . S
C788 N786 1.356 . S
C789 C783 1.363 . S
C789 C784 1.379 1_556 S
C789 N787 1.356 . S
N790 C782 1.356 . S
N790 H796 0.984 . S
N790 H797 0.984 . S
N791 C784 1.356 . S
N791 H794 0.984 . S
N791 H795 0.985 . S
H792 N787 0.984 . S
H793 N787 0.985 . S
H794 N791 0.984 . S
H795 N791 0.985 . S
H796 N790 0.984 . S
H797 N790 0.984 . S
H798 N786 0.984 . S
H799 N786 0.985 . S
C225 C7 1.498 . S
C227 C51 1.450 . S
C243 C9 1.450 . S
C245 C21 1.498 . S
C261 C23 1.450 . S
C263 C35 1.498 . S
C279 C37 1.450 . S
C281 C49 1.498 . S
C297 C63 1.498 . S
C299 C79 1.450 . S
C315 C77 1.498 . S
C317 C93 1.450 . S
C333 C91 1.498 . S
C335 C107 1.450 . S
C351 C105 1.498 . S
C353 C65 1.450 . S
C369 C119 1.498 . S
C371 C163 1.450 . S
C387 C121 1.450 . S
C389 C133 1.498 . S
C405 C135 1.450 . S
C407 C147 1.498 . S
C423 C161 1.498 . S
C425 C149 1.450 . S
C441 C191 1.450 . S
C443 C175 1.498 . S
C459 C205 1.450 . S
C461 C189 1.498 . S
C477 C203 1.498 . S
C479 C219 1.450 . S
C495 C217 1.498 . S
C497 C177 1.450 . S
C513 C8 1.392 . S
C515 C218 1.392 . S
C531 C22 1.392 . S
C533 C176 1.392 . S
C549 C190 1.392 . S
C551 C36 1.392 . S
C567 C50 1.392 . S
C569 C204 1.392 . S
C585 C134 1.392 . S
C587 C64 1.392 . S
C603 C148 1.392 . S
C605 C78 1.392 . S
C621 C92 1.392 . S
C623 C162 1.392 . S
C639 C106 1.392 . S
C641 C120 1.392 . S
C657 C3 1.633 . S
C659 C87 1.633 . S
C675 C101 1.633 . S
C677 C17 1.633 . S
C693 C59 1.633 . S
C695 C31 1.633 . S
C711 C73 1.633 . S
C713 C45 1.633 . S
C729 C115 1.633 . S
C731 C199 1.633 . S
C747 C129 1.633 . S
C749 C213 1.633 . S
C765 C171 1.633 . S
C767 C143 1.633 . S
C783 C157 1.633 . S
C785 C185 1.633 . S
