# Generated by pormake.
# Topology acs-a, (4)-cn, num edge types: 1
# Building blocks:
#     Node 0, Type 0, BuildingBlock: TATPOV_clean_sbu_0, # of connection points: 4
#     Node 1, Type 0, BuildingBlock: TATPOV_clean_sbu_0, # of connection points: 4
#     Node 2, Type 0, BuildingBlock: TATPOV_clean_sbu_0, # of connection points: 4
#     Node 3, Type 0, BuildingBlock: TATPOV_clean_sbu_0, # of connection points: 4
#     Node 4, Type 0, BuildingBlock: TATPOV_clean_sbu_0, # of connection points: 4
#     Node 5, Type 0, BuildingBlock: TATPOV_clean_sbu_0, # of connection points: 4
#     Node 6, Type 0, BuildingBlock: TATPOV_clean_sbu_0, # of connection points: 4
#     Node 7, Type 0, BuildingBlock: TATPOV_clean_sbu_0, # of connection points: 4
#     Node 8, Type 0, BuildingBlock: TATPOV_clean_sbu_0, # of connection points: 4
#     Node 9, Type 0, BuildingBlock: TATPOV_clean_sbu_0, # of connection points: 4
#     Node 10, Type 0, BuildingBlock: TATPOV_clean_sbu_0, # of connection points: 4
#     Node 11, Type 0, BuildingBlock: TATPOV_clean_sbu_0, # of connection points: 4
#     Edge 12, Type (0, 0), BuildingBlock: AJUNOK_clean_linker_0, # of connection points: 2
#     Edge 13, Type (0, 0), BuildingBlock: AJUNOK_clean_linker_0, # of connection points: 2
#     Edge 14, Type (0, 0), BuildingBlock: AJUNOK_clean_linker_0, # of connection points: 2
#     Edge 15, Type (0, 0), BuildingBlock: AJUNOK_clean_linker_0, # of connection points: 2
#     Edge 16, Type (0, 0), BuildingBlock: AJUNOK_clean_linker_0, # of connection points: 2
#     Edge 17, Type (0, 0), BuildingBlock: AJUNOK_clean_linker_0, # of connection points: 2
#     Edge 18, Type (0, 0), BuildingBlock: AJUNOK_clean_linker_0, # of connection points: 2
#     Edge 19, Type (0, 0), BuildingBlock: AJUNOK_clean_linker_0, # of connection points: 2
#     Edge 20, Type (0, 0), BuildingBlock: AJUNOK_clean_linker_0, # of connection points: 2
#     Edge 21, Type (0, 0), BuildingBlock: AJUNOK_clean_linker_0, # of connection points: 2
#     Edge 22, Type (0, 0), BuildingBlock: AJUNOK_clean_linker_0, # of connection points: 2
#     Edge 23, Type (0, 0), BuildingBlock: AJUNOK_clean_linker_0, # of connection points: 2
#     Edge 24, Type (0, 0), BuildingBlock: AJUNOK_clean_linker_0, # of connection points: 2
#     Edge 25, Type (0, 0), BuildingBlock: AJUNOK_clean_linker_0, # of connection points: 2
#     Edge 26, Type (0, 0), BuildingBlock: AJUNOK_clean_linker_0, # of connection points: 2
#     Edge 27, Type (0, 0), BuildingBlock: AJUNOK_clean_linker_0, # of connection points: 2
#     Edge 28, Type (0, 0), BuildingBlock: AJUNOK_clean_linker_0, # of connection points: 2
#     Edge 29, Type (0, 0), BuildingBlock: AJUNOK_clean_linker_0, # of connection points: 2
#     Edge 30, Type (0, 0), BuildingBlock: AJUNOK_clean_linker_0, # of connection points: 2
#     Edge 31, Type (0, 0), BuildingBlock: AJUNOK_clean_linker_0, # of connection points: 2
#     Edge 32, Type (0, 0), BuildingBlock: AJUNOK_clean_linker_0, # of connection points: 2
#     Edge 33, Type (0, 0), BuildingBlock: AJUNOK_clean_linker_0, # of connection points: 2
#     Edge 34, Type (0, 0), BuildingBlock: AJUNOK_clean_linker_0, # of connection points: 2
#     Edge 35, Type (0, 0), BuildingBlock: AJUNOK_clean_linker_0, # of connection points: 2
# Relax obj value: 0.361
# Max RMSD: 0.184
# Mean RMSD: 0.179
data_MOF--net-acs-a--node1-TATPOV_clean_sbu_0--edge1-AJUNOK_clean_linker_0
_symmetry_space_group_name_H-M    P1
_symmetry_Int_Tables_number       1
_symmetry_cell_setting            triclinic
loop_
_symmetry_equiv_pos_as_xyz
'x, y, z'
_cell_length_a     35.064485
_cell_length_b     35.043961
_cell_length_c     35.036232
_cell_angle_alpha  90.436071
_cell_angle_beta   89.761241
_cell_angle_gamma 114.13541
loop_
_atom_site_label
_atom_site_type_symbol
_atom_site_fract_x
_atom_site_fract_y
_atom_site_fract_z
_atom_type_partial_charge
Zn0 Zn 0.62981 0.18014 0.06471 0.0
Zn1 Zn 0.5889 0.11311 0.03815 0.0
O2 O 0.64889 0.13115 0.01385 0.0
O3 O 0.67014 0.19866 0.02156 0.0
O4 O 0.55355 0.05735 0.01388 0.0
O5 O 0.64277 0.1563 0.11233 0.0
O6 O 0.58745 0.1002 0.09646 0.0
C7 C 0.67561 0.16825 0.00695 0.0
C8 C 0.55649 0.18161 0.0422 0.0
O9 O 0.55543 0.14906 0.02489 0.0
O10 O 0.58478 0.20006 0.06631 0.0
C11 C 0.54111 0.05618 0.97966 0.0
O12 O 0.55348 0.09132 0.96056 0.0
C13 C 0.61505 0.12083 0.12108 0.0
Zn14 Zn 0.44805 0.64007 0.6488 0.0
Zn15 Zn 0.43537 0.58702 0.59556 0.0
O16 O 0.47071 0.64592 0.57338 0.0
O17 O 0.48722 0.69037 0.62107 0.0
O18 O 0.4421 0.54536 0.55879 0.0
O19 O 0.4689 0.61366 0.68907 0.0
O20 O 0.44548 0.56313 0.64684 0.0
C21 C 0.48801 0.68352 0.58567 0.0
C22 C 0.36127 0.60102 0.61777 0.0
O23 O 0.37542 0.58216 0.59414 0.0
O24 O 0.38484 0.62467 0.64348 0.0
C25 C 0.45923 0.55417 0.52613 0.0
O26 O 0.46971 0.59196 0.5126 0.0
C27 C 0.45935 0.57587 0.68023 0.0
Zn28 Zn 0.79754 0.2759 0.12333 0.0
Zn29 Zn 0.84433 0.34172 0.09144 0.0
O30 O 0.79291 0.35522 0.09 0.0
O31 O 0.75036 0.2945 0.11301 0.0
O32 O 0.89083 0.39063 0.06692 0.0
O33 O 0.82433 0.28587 0.17386 0.0
O34 O 0.86606 0.34505 0.14783 0.0
C35 C 0.75615 0.32988 0.09925 0.0
C36 C 0.81818 0.25183 0.05591 0.0
O37 O 0.83272 0.29164 0.05325 0.0
O38 O 0.80597 0.23538 0.08813 0.0
C39 C 0.88626 0.41082 0.03859 0.0
O40 O 0.84901 0.39933 0.02336 0.0
C41 C 0.85488 0.32097 0.17676 0.0
Zn42 Zn 0.34161 0.7723 0.56005 0.0
Zn43 Zn 0.38043 0.84713 0.54304 0.0
O44 O 0.32203 0.82607 0.51535 0.0
O45 O 0.3 0.75804 0.51856 0.0
O46 O 0.41225 0.90519 0.52295 0.0
O47 O 0.32895 0.791 0.61183 0.0
O48 O 0.37319 0.85575 0.60049 0.0
C49 C 0.29497 0.78955 0.50661 0.0
C50 C 0.42084 0.78321 0.53869 0.0
O51 O 0.42282 0.81979 0.53255 0.0
O52 O 0.38823 0.75551 0.55287 0.0
C53 C 0.42541 0.90916 0.48875 0.0
O54 O 0.41594 0.87534 0.46766 0.0
C55 C 0.34813 0.82854 0.62297 0.0
Zn56 Zn 0.52624 0.30274 0.13722 0.0
Zn57 Zn 0.54476 0.39062 0.06486 0.0
O58 O 0.51076 0.33805 0.03092 0.0
O59 O 0.51432 0.31983 0.08748 0.0
O60 O 0.53855 0.43951 0.04004 0.0
O61 O 0.51183 0.34277 0.16933 0.0
O62 O 0.5283 0.3914 0.12345 0.0
C63 C 0.50485 0.30852 0.05359 0.0
C64 C 0.60782 0.36463 0.0844 0.0
O65 O 0.60425 0.39309 0.06414 0.0
O66 O 0.57669 0.34139 0.10428 0.0
C67 C 0.5324 0.43796 0.00425 0.0
O68 O 0.53732 0.40844 -0.01576 0.0
C69 C 0.51694 0.37914 0.15788 0.0
Zn70 Zn 0.1703 0.68341 0.63303 0.0
Zn71 Zn 0.12321 0.61861 0.59466 0.0
O72 O 0.17418 0.60405 0.59546 0.0
O73 O 0.21389 0.6583 0.63057 0.0
O74 O 0.07604 0.57105 0.56859 0.0
O75 O 0.13429 0.67454 0.67884 0.0
O76 O 0.09843 0.61495 0.64967 0.0
C77 C 0.20857 0.62498 0.6125 0.0
C78 C 0.15532 0.70887 0.56165 0.0
O79 O 0.13656 0.66921 0.5579 0.0
O80 O 0.17062 0.72419 0.59371 0.0
C81 C 0.07781 0.55302 0.53743 0.0
O82 O 0.11369 0.56509 0.51935 0.0
C83 C 0.10462 0.63867 0.67892 0.0
Zn84 Zn 0.79876 0.35991 0.38286 0.0
Zn85 Zn 0.8621 0.39037 0.41301 0.0
O86 O 0.8344 0.32926 0.43433 0.0
O87 O 0.7707 0.32426 0.42796 0.0
O88 O 0.9178 0.41977 0.43927 0.0
O89 O 0.82097 0.33566 0.34098 0.0
O90 O 0.87874 0.38953 0.35555 0.0
C91 C 0.79536 0.30942 0.44082 0.0
C92 C 0.80568 0.43577 0.4031 0.0
O93 O 0.82951 0.42784 0.42613 0.0
O94 O 0.79243 0.41307 0.37381 0.0
C95 C 0.92035 0.43394 0.47308 0.0
O96 O 0.88567 0.42696 0.49193 0.0
C97 C 0.85797 0.36001 0.33255 0.0
Zn98 Zn 0.3027 0.77793 0.84143 0.0
Zn99 Zn 0.35666 0.84092 0.86726 0.0
O100 O 0.3828 0.79796 0.8766 0.0
O101 O 0.34006 0.74809 0.83949 0.0
O102 O 0.40115 0.89569 0.88592 0.0
O103 O 0.29165 0.80024 0.79341 0.0
O104 O 0.35162 0.85114 0.80821 0.0
C105 C 0.37254 0.76273 0.85987 0.0
C106 C 0.27181 0.79871 0.90726 0.0
O107 O 0.3054 0.83174 0.90356 0.0
O108 O 0.26404 0.7683 0.8846 0.0
C109 C 0.41738 0.89864 0.91881 0.0
O110 O 0.40459 0.86536 0.9406 0.0
C111 C 0.32266 0.83289 0.78379 0.0
Zn112 Zn 0.6107 0.41616 0.33309 0.0
Zn113 Zn 0.57509 0.43561 0.3818 0.0
O114 O 0.63832 0.46658 0.39826 0.0
O115 O 0.66473 0.43456 0.35894 0.0
O116 O 0.54495 0.46141 0.41537 0.0
O117 O 0.60686 0.45136 0.29072 0.0
O118 O 0.55361 0.44313 0.32735 0.0
C119 C 0.6693 0.45941 0.38649 0.0
C120 C 0.55216 0.3449 0.37041 0.0
O121 O 0.55433 0.37286 0.39487 0.0
O122 O 0.56928 0.35586 0.33808 0.0
C123 C 0.52608 0.4479 0.44673 0.0
O124 O 0.52531 0.41297 0.46084 0.0
C125 C 0.57158 0.45235 0.29485 0.0
Zn126 Zn 0.15204 0.62772 0.88576 0.0
Zn127 Zn 0.09075 0.59509 0.91899 0.0
O128 O 0.1185 0.65287 0.94739 0.0
O129 O 0.1517 0.68386 0.89587 0.0
O130 O 0.036 0.56151 0.94511 0.0
O131 O 0.12918 0.59892 0.83603 0.0
O132 O 0.07336 0.60042 0.86281 0.0
C133 C 0.13943 0.68651 0.92934 0.0
C134 C 0.16343 0.57023 0.9283 0.0
O135 O 0.12388 0.55737 0.92512 0.0
O136 O 0.18633 0.60729 0.91881 0.0
C137 C 0.03585 0.54424 0.97689 0.0
O138 O 0.07178 0.55164 -0.00656 0.0
C139 C 0.09243 0.59654 0.83295 0.0
Zn140 Zn 0.64328 0.18478 0.33868 0.0
Zn141 Zn 0.59234 0.12325 0.3677 0.0
O142 O 0.56084 0.16168 0.37328 0.0
O143 O 0.61662 0.21977 0.36396 0.0
O144 O 0.55349 0.06939 0.39202 0.0
O145 O 0.63169 0.16735 0.2849 0.0
O146 O 0.59697 0.10563 0.31053 0.0
C147 C 0.57883 0.20143 0.37419 0.0
C148 C 0.68411 0.16597 0.39485 0.0
O149 O 0.64563 0.14535 0.40329 0.0
O150 O 0.69332 0.18131 0.3619 0.0
C151 C 0.53866 0.06915 0.42524 0.0
O152 O 0.54961 0.10472 0.44386 0.0
C153 C 0.61213 0.12829 0.28117 0.0
Zn154 Zn 0.33095 0.52626 0.84103 0.0
Zn155 Zn 0.37473 0.53104 0.89553 0.0
O156 O 0.31266 0.51227 0.9148 0.0
O157 O 0.27433 0.50104 0.86326 0.0
O158 O 0.40451 0.50958 0.93265 0.0
O159 O 0.34723 0.49368 0.80267 0.0
O160 O 0.39779 0.51732 0.84431 0.0
C161 C 0.27686 0.50184 0.89917 0.0
C162 C 0.38839 0.61212 0.87064 0.0
O163 O 0.39776 0.59371 0.8978 0.0
O164 O 0.36358 0.5908 0.84442 0.0
C165 C 0.44104 0.53059 0.94552 0.0
O166 O 0.45929 0.57105 0.93968 0.0
C167 C 0.38451 0.50151 0.81152 0.0
C168 C 0.57303 0.09679 0.22139 0.0
C169 C 0.61026 0.11061 0.24262 0.0
C170 C 0.57396 0.09516 0.18121 0.0
C171 C 0.61219 0.10782 0.16141 0.0
H172 H 0.5437 0.0911 0.23557 0.0
H173 H 0.5452 0.08808 0.16564 0.0
S174 S 0.71707 0.13927 0.20459 0.0
N175 N 0.68524 0.13132 0.24142 0.0
N176 N 0.68711 0.12861 0.16629 0.0
C177 C 0.64887 0.11746 0.18267 0.0
C178 C 0.64786 0.11882 0.22325 0.0
C179 C 0.47204 0.5609 0.74708 0.0
C180 C 0.45329 0.54569 0.71149 0.0
C181 C 0.45306 0.54123 0.78101 0.0
C182 C 0.41443 0.50624 0.78017 0.0
H183 H 0.49855 0.5909 0.74905 0.0
H184 H 0.46559 0.55713 0.80771 0.0
S185 S 0.36192 0.44532 0.69437 0.0
N186 N 0.40142 0.4865 0.67737 0.0
N187 N 0.36523 0.45019 0.74131 0.0
C188 C 0.40016 0.48628 0.74489 0.0
C189 C 0.41979 0.50596 0.71032 0.0
C190 C 0.86606 0.30491 0.24351 0.0
C191 C 0.8718 0.33534 0.21546 0.0
C192 C 0.86668 0.31458 0.28234 0.0
C193 C 0.87371 0.35513 0.2946 0.0
H194 H 0.85718 0.2725 0.2354 0.0
H195 H 0.85801 0.28933 0.30277 0.0
S196 S 0.89874 0.44789 0.23328 0.0
N197 N 0.89111 0.40914 0.20292 0.0
N198 N 0.89272 0.42729 0.27634 0.0
C199 C 0.88472 0.38698 0.26728 0.0
C200 C 0.88378 0.37708 0.22748 0.0
C201 C 0.36852 0.86247 0.72658 0.0
C202 C 0.32816 0.8433 0.74253 0.0
C203 C 0.37488 0.86073 0.68699 0.0
C204 C 0.3411 0.83949 0.66237 0.0
H205 H 0.39563 0.87591 0.74494 0.0
H206 H 0.40656 0.87319 0.67607 0.0
S207 S 0.22888 0.79219 0.68847 0.0
N208 N 0.2535 0.80896 0.72937 0.0
N209 N 0.26578 0.80475 0.6556 0.0
C210 C 0.3005 0.82385 0.67745 0.0
C211 C 0.29394 0.82613 0.71738 0.0
C212 C 0.50828 0.41529 0.25627 0.0
C213 C 0.54745 0.44917 0.25968 0.0
C214 C 0.49467 0.39561 0.22088 0.0
C215 C 0.51942 0.40984 0.18791 0.0
H216 H 0.49105 0.40002 0.28156 0.0
H217 H 0.46726 0.36624 0.2202 0.0
S218 S 0.6176 0.50555 0.18044 0.0
N219 N 0.60556 0.50219 0.22628 0.0
N220 N 0.57965 0.46574 0.15954 0.0
C221 C 0.55457 0.44819 0.18996 0.0
C222 C 0.56865 0.46788 0.22607 0.0
C223 C 0.08148 0.58219 0.72718 0.0
C224 C 0.0846 0.62179 0.71586 0.0
C225 C 0.0788 0.57161 0.76594 0.0
C226 C 0.07771 0.59969 0.79434 0.0
H227 H 0.08599 0.56121 0.70655 0.0
H228 H 0.08135 0.54292 0.77391 0.0
S229 S 0.07669 0.70368 0.77888 0.0
N230 N 0.08056 0.68665 0.73555 0.0
N231 N 0.07394 0.66601 0.80829 0.0
C232 C 0.07542 0.63702 0.78303 0.0
C233 C 0.07922 0.64827 0.7437 0.0
C234 C 0.49656 0.97927 -0.01578 0.0
C235 C 0.51099 0.01622 0.9626 0.0
C236 C 0.46668 0.94155 0.96968 0.0
C237 C 0.44983 0.93903 0.93285 0.0
H238 H 0.50807 0.97942 0.01289 0.0
H239 H 0.45652 0.91421 -0.01226 0.0
S240 S 0.47791 0.02643 0.86393 0.0
N241 N 0.50672 0.0476 0.90189 0.0
N242 N 0.45064 0.97685 0.87464 0.0
C243 C 0.4644 0.9756 0.91064 0.0
C244 C 0.4949 0.01408 0.92546 0.0
C245 C 0.48817 0.53308 0.46831 0.0
C246 C 0.47223 0.5241 0.50563 0.0
C247 C 0.50465 0.5078 0.44946 0.0
C248 C 0.50607 0.47239 0.46708 0.0
H249 H 0.48864 0.56035 0.45361 0.0
H250 H 0.51694 0.51662 0.42092 0.0
S251 S 0.46701 0.43411 0.56426 0.0
N252 N 0.45771 0.47632 0.55926 0.0
N253 N 0.48878 0.42891 0.52382 0.0
C254 C 0.48921 0.4623 0.50406 0.0
C255 C 0.47227 0.48808 0.5233 0.0
C256 C -0.00213 0.49147 0.02666 0.0
C257 C -0.0036 0.51269 -0.00686 0.0
C258 C 0.96207 0.45913 0.0412 0.0
C259 C 0.92306 0.44651 0.02296 0.0
H260 H 0.02711 0.49929 0.0416 0.0
H261 H 0.96529 0.44361 0.06684 0.0
S262 S 0.90159 0.49335 0.93529 0.0
N263 N 0.95211 0.51981 0.9428 0.0
N264 N 0.8848 0.45903 0.97018 0.0
C265 C 0.92079 0.46815 -0.01007 0.0
C266 C 0.9574 0.50119 0.97504 0.0
C267 C 0.49539 -0.00789 0.42045 0.0
C268 C 0.50916 0.02918 0.44229 0.0
C269 C 0.46792 0.9538 0.4356 0.0
C270 C 0.45301 0.95076 0.4733 0.0
H271 H 0.50594 -0.00751 0.3913 0.0
H272 H 0.45863 0.92628 0.41751 0.0
S273 S 0.47902 0.03858 0.54259 0.0
N274 N 0.50535 0.06046 0.5037 0.0
N275 N 0.45377 -0.01154 0.53215 0.0
C276 C 0.46617 -0.01237 0.49546 0.0
C277 C 0.4942 0.02677 0.47998 0.0
C278 C 0.49113 0.5221 -0.00804 0.0
C279 C 0.46565 0.50809 0.95953 0.0
C280 C 0.51362 0.49986 0.0058 0.0
C281 C 0.51229 0.46361 -0.01301 0.0
H282 H 0.49277 0.5497 0.00729 0.0
H283 H 0.53179 0.51089 0.03165 0.0
S284 S 0.4532 0.41694 0.89835 0.0
N285 N 0.44222 0.45758 0.90756 0.0
N286 N 0.48507 0.41644 0.93269 0.0
C287 C 0.48826 0.45054 0.95347 0.0
C288 C 0.46475 0.4726 0.93998 0.0
C289 C 0.96303 0.48051 0.52555 0.0
C290 C 0.96153 0.46142 0.48978 0.0
C291 C 0.00078 0.50925 0.54086 0.0
C292 C 0.03889 0.52029 0.52116 0.0
H293 H 0.93466 0.47394 0.54171 0.0
H294 H -0.00021 0.52344 0.56821 0.0
S295 S 0.05277 0.47701 0.42757 0.0
N296 N 0.00205 0.45396 0.43585 0.0
N297 N 0.07298 0.50799 0.46464 0.0
C298 C 0.03814 0.50045 0.48587 0.0
C299 C -0.00045 0.47107 0.47021 0.0
C300 C 0.5365 0.23043 0.00572 0.0
C301 C 0.52668 0.20007 0.03441 0.0
C302 C 0.52366 0.26341 0.00889 0.0
C303 C 0.50115 0.26687 0.04111 0.0
H304 H 0.55836 0.23163 -0.01668 0.0
H305 H 0.53589 0.2888 -0.01135 0.0
S306 S 0.46001 0.18993 0.11911 0.0
N307 N 0.48725 0.17135 0.09203 0.0
N308 N 0.46278 0.23296 0.09799 0.0
C309 C 0.48631 0.23346 0.06691 0.0
C310 C 0.4993 0.20007 0.06361 0.0
C311 C 0.29297 0.59248 0.64603 0.0
C312 C 0.31875 0.59938 0.61368 0.0
C313 C 0.25578 0.59842 0.64473 0.0
C314 C 0.24325 0.61158 0.6111 0.0
H315 H 0.30243 0.58392 0.67289 0.0
H316 H 0.23751 0.59427 0.67061 0.0
S317 S 0.30106 0.63675 0.51948 0.0
N318 N 0.32981 0.62129 0.54743 0.0
N319 N 0.2599 0.63265 0.54513 0.0
C320 C 0.26825 0.61785 0.57837 0.0
C321 C 0.30606 0.61164 0.57961 0.0
C322 C 0.78074 0.18118 0.02798 0.0
C323 C 0.79989 0.22479 0.02198 0.0
C324 C 0.74012 0.1575 0.01446 0.0
C325 C 0.71862 0.17705 -0.00579 0.0
H326 H 0.79333 0.1671 0.04914 0.0
H327 H 0.72326 0.12648 0.02602 0.0
S328 S 0.7653 0.28281 0.95214 0.0
N329 N 0.80217 0.28087 0.98026 0.0
N330 N 0.72596 0.23632 0.95484 0.0
C331 C 0.74241 0.21661 0.97868 0.0
C332 C 0.78358 0.24072 -0.00746 0.0
C333 C 0.48735 0.78561 0.56313 0.0
C334 C 0.45709 0.77272 0.53418 0.0
C335 C 0.50576 0.75901 0.5754 0.0
C336 C 0.49353 0.71861 0.55943 0.0
H337 H 0.49195 0.81307 0.58019 0.0
H338 H 0.52416 0.7674 0.60134 0.0
S339 S 0.42888 0.6791 0.47249 0.0
N340 N 0.42572 0.72385 0.4824 0.0
N341 N 0.46079 0.67412 0.50468 0.0
C342 C 0.47094 0.71016 0.52495 0.0
C343 C 0.4521 0.73711 0.5127 0.0
C344 C 0.64476 0.32053 0.10306 0.0
C345 C 0.64675 0.35759 0.08613 0.0
C346 C 0.68019 0.31225 0.10693 0.0
C347 C 0.7196 0.34061 0.09412 0.0
H348 H 0.6154 0.29732 0.11359 0.0
H349 H 0.67639 0.28315 0.12033 0.0
S350 S 0.74199 0.4419 0.04641 0.0
N351 N 0.69132 0.42276 0.05543 0.0
N352 N 0.75847 0.40717 0.06272 0.0
C353 C 0.72223 0.37772 0.07657 0.0
C354 C 0.68573 0.38617 0.0725 0.0
C355 C 0.18714 0.71874 0.49754 0.0
C356 C 0.17251 0.73574 0.52785 0.0
C357 C 0.22649 0.74197 0.4813 0.0
C358 C 0.25177 0.78215 0.49554 0.0
H359 H 0.17241 0.68553 0.49135 0.0
H360 H 0.24025 0.72546 0.46354 0.0
S361 S 0.21583 0.84707 0.55725 0.0
N362 N 0.17715 0.80004 0.55817 0.0
N363 N 0.25131 0.84347 0.52799 0.0
C364 C 0.23183 0.80285 0.51678 0.0
C365 C 0.19177 0.77935 0.53318 0.0
C366 C 0.75238 0.44792 0.44093 0.0
C367 C 0.78435 0.46287 0.4134 0.0
C368 C 0.71565 0.45451 0.43678 0.0
C369 C 0.71039 0.47638 0.40517 0.0
H370 H 0.75276 0.42567 0.46209 0.0
H371 H 0.68911 0.43693 0.45476 0.0
S372 S 0.79019 0.53231 0.33257 0.0
N373 N 0.81244 0.50844 0.3592 0.0
N374 N 0.74385 0.52138 0.35184 0.0
C375 C 0.74528 0.49796 0.38209 0.0
C376 C 0.78232 0.49094 0.38603 0.0
C377 C 0.20313 0.7959 0.92199 0.0
C378 C 0.23974 0.79397 0.9362 0.0
C379 C 0.16413 0.76258 0.92797 0.0
C380 C 0.16127 0.72719 0.94861 0.0
H381 H 0.20538 0.81836 0.90004 0.0
H382 H 0.13813 0.76093 0.9104 0.0
S383 S 0.24484 0.71875 0.00719 0.0
N384 N 0.26833 0.76279 -0.01663 0.0
N385 N 0.19497 0.70052 -0.00478 0.0
C386 C 0.19546 0.73122 0.97151 0.0
C387 C 0.23515 0.76491 0.96512 0.0
C388 C 0.57189 0.25804 0.41203 0.0
C389 C 0.5561 0.22751 0.38319 0.0
C390 C 0.564 0.29417 0.41167 0.0
C391 C 0.54126 0.30128 0.38167 0.0
H392 H 0.59389 0.25601 0.4327 0.0
H393 H 0.58049 0.31894 0.43191 0.0
S394 S 0.48631 0.2269 0.30411 0.0
N395 N 0.51059 0.20306 0.32815 0.0
N396 N 0.4971 0.27183 0.32645 0.0
C397 C 0.52104 0.2686 0.35558 0.0
C398 C 0.52826 0.23141 0.35653 0.0
C399 C 0.22267 0.55635 0.95326 0.0
C400 C 0.18382 0.54132 0.93452 0.0
C401 C 0.25098 0.538 0.9469 0.0
C402 C 0.24173 0.50482 0.92066 0.0
H403 H 0.23292 0.58499 0.96993 0.0
H404 H 0.28219 0.55358 0.95855 0.0
S405 S 0.14049 0.44805 0.87156 0.0
N406 N 0.13434 0.48626 0.89495 0.0
N407 N 0.18805 0.45252 0.88198 0.0
C408 C 0.20081 0.48594 0.90612 0.0
C409 C 0.17168 0.50414 0.91321 0.0
C410 C 0.70644 0.20811 0.45359 0.0
C411 C 0.7161 0.18551 0.4246 0.0
C412 C 0.73633 0.24718 0.46563 0.0
C413 C 0.77665 0.26415 0.4494 0.0
H414 H 0.67422 0.19942 0.46209 0.0
H415 H 0.7259 0.26679 0.48302 0.0
S416 S 0.82112 0.20879 0.38468 0.0
N417 N 0.77144 0.17648 0.38919 0.0
N418 N 0.82785 0.24945 0.4123 0.0
C419 C 0.78892 0.2374 0.42737 0.0
C420 C 0.75839 0.1979 0.41482 0.0
C421 C 0.40694 0.67865 0.83613 0.0
C422 C 0.40103 0.65774 0.87116 0.0
C423 C 0.40391 0.71709 0.83357 0.0
C424 C 0.39481 0.73578 0.86592 0.0
H425 H 0.41004 0.66342 0.80999 0.0
H426 H 0.40427 0.73003 0.8055 0.0
S427 S 0.38393 0.69738 0.9652 0.0
N428 N 0.39189 0.6614 0.93974 0.0
N429 N 0.38584 0.73385 0.93469 0.0
C430 C 0.39404 0.71789 0.90176 0.0
C431 C 0.39724 0.67864 0.90445 0.0
loop_
_geom_bond_atom_site_label_1
_geom_bond_atom_site_label_2
_geom_bond_distance
_geom_bond_site_symmetry_2
_ccdc_geom_bond_type
Zn0 O3 2.031 . S
Zn0 O5 2.049 . S
Zn0 O10 2.067 . S
Zn1 O2 1.962 . S
Zn1 O4 1.986 . S
Zn1 O6 1.996 . S
Zn1 O9 1.943 . S
O2 Zn1 1.962 . S
O2 C7 1.254 . S
O3 Zn0 2.031 . S
O3 C7 1.269 . S
O4 Zn1 1.986 . S
O4 C11 1.262 . S
O5 Zn0 2.049 . S
O5 C13 1.260 . S
O6 Zn1 1.996 . S
O6 C13 1.257 . S
C7 O2 1.254 . S
C7 O3 1.269 . S
C8 O9 1.249 . S
C8 O10 1.270 . S
O9 Zn1 1.943 . S
O9 C8 1.249 . S
O10 Zn0 2.067 . S
O10 C8 1.270 . S
C11 O4 1.262 . S
C11 O12 1.232 . S
O12 C11 1.232 . S
C13 O5 1.260 . S
C13 O6 1.257 . S
Zn14 O17 2.031 . S
Zn14 O19 2.049 . S
Zn14 O24 2.067 . S
Zn15 O16 1.962 . S
Zn15 O18 1.986 . S
Zn15 O20 1.996 . S
Zn15 O23 1.943 . S
O16 Zn15 1.962 . S
O16 C21 1.254 . S
O17 Zn14 2.031 . S
O17 C21 1.269 . S
O18 Zn15 1.986 . S
O18 C25 1.262 . S
O19 Zn14 2.049 . S
O19 C27 1.260 . S
O20 Zn15 1.996 . S
O20 C27 1.257 . S
C21 O16 1.254 . S
C21 O17 1.269 . S
C22 O23 1.249 . S
C22 O24 1.270 . S
O23 Zn15 1.943 . S
O23 C22 1.249 . S
O24 Zn14 2.067 . S
O24 C22 1.270 . S
C25 O18 1.262 . S
C25 O26 1.232 . S
O26 C25 1.232 . S
C27 O19 1.260 . S
C27 O20 1.257 . S
Zn28 O31 2.031 . S
Zn28 O33 2.049 . S
Zn28 O38 2.067 . S
Zn29 O30 1.962 . S
Zn29 O32 1.986 . S
Zn29 O34 1.996 . S
Zn29 O37 1.943 . S
O30 Zn29 1.962 . S
O30 C35 1.254 . S
O31 Zn28 2.031 . S
O31 C35 1.269 . S
O32 Zn29 1.986 . S
O32 C39 1.262 . S
O33 Zn28 2.049 . S
O33 C41 1.260 . S
O34 Zn29 1.996 . S
O34 C41 1.257 . S
C35 O30 1.254 . S
C35 O31 1.269 . S
C36 O37 1.249 . S
C36 O38 1.270 . S
O37 Zn29 1.943 . S
O37 C36 1.249 . S
O38 Zn28 2.067 . S
O38 C36 1.270 . S
C39 O32 1.262 . S
C39 O40 1.232 . S
O40 C39 1.232 . S
C41 O33 1.260 . S
C41 O34 1.257 . S
Zn42 O45 2.031 . S
Zn42 O47 2.049 . S
Zn42 O52 2.067 . S
Zn43 O44 1.962 . S
Zn43 O46 1.986 . S
Zn43 O48 1.996 . S
Zn43 O51 1.943 . S
O44 Zn43 1.962 . S
O44 C49 1.254 . S
O45 Zn42 2.031 . S
O45 C49 1.269 . S
O46 Zn43 1.986 . S
O46 C53 1.262 . S
O47 Zn42 2.049 . S
O47 C55 1.260 . S
O48 Zn43 1.996 . S
O48 C55 1.257 . S
C49 O44 1.254 . S
C49 O45 1.269 . S
C50 O51 1.249 . S
C50 O52 1.270 . S
O51 Zn43 1.943 . S
O51 C50 1.249 . S
O52 Zn42 2.067 . S
O52 C50 1.270 . S
C53 O46 1.262 . S
C53 O54 1.232 . S
O54 C53 1.232 . S
C55 O47 1.260 . S
C55 O48 1.257 . S
Zn56 O59 2.031 . S
Zn56 O61 2.049 . S
Zn56 O66 2.067 . S
Zn57 O58 1.962 . S
Zn57 O60 1.986 . S
Zn57 O62 1.996 . S
Zn57 O65 1.943 . S
O58 Zn57 1.962 . S
O58 C63 1.254 . S
O59 Zn56 2.031 . S
O59 C63 1.269 . S
O60 Zn57 1.986 . S
O60 C67 1.262 . S
O61 Zn56 2.049 . S
O61 C69 1.260 . S
O62 Zn57 1.996 . S
O62 C69 1.257 . S
C63 O58 1.254 . S
C63 O59 1.269 . S
C64 O65 1.249 . S
C64 O66 1.270 . S
O65 Zn57 1.943 . S
O65 C64 1.249 . S
O66 Zn56 2.067 . S
O66 C64 1.270 . S
C67 O60 1.262 . S
C67 O68 1.232 . S
O68 C67 1.232 . S
C69 O61 1.260 . S
C69 O62 1.257 . S
Zn70 O73 2.031 . S
Zn70 O75 2.049 . S
Zn70 O80 2.067 . S
Zn71 O72 1.962 . S
Zn71 O74 1.986 . S
Zn71 O76 1.996 . S
Zn71 O79 1.943 . S
O72 Zn71 1.962 . S
O72 C77 1.254 . S
O73 Zn70 2.031 . S
O73 C77 1.269 . S
O74 Zn71 1.986 . S
O74 C81 1.262 . S
O75 Zn70 2.049 . S
O75 C83 1.260 . S
O76 Zn71 1.996 . S
O76 C83 1.257 . S
C77 O72 1.254 . S
C77 O73 1.269 . S
C78 O79 1.249 . S
C78 O80 1.270 . S
O79 Zn71 1.943 . S
O79 C78 1.249 . S
O80 Zn70 2.067 . S
O80 C78 1.270 . S
C81 O74 1.262 . S
C81 O82 1.232 . S
O82 C81 1.232 . S
C83 O75 1.260 . S
C83 O76 1.257 . S
Zn84 O87 2.031 . S
Zn84 O89 2.049 . S
Zn84 O94 2.067 . S
Zn85 O86 1.962 . S
Zn85 O88 1.986 . S
Zn85 O90 1.996 . S
Zn85 O93 1.943 . S
O86 Zn85 1.962 . S
O86 C91 1.254 . S
O87 Zn84 2.031 . S
O87 C91 1.269 . S
O88 Zn85 1.986 . S
O88 C95 1.262 . S
O89 Zn84 2.049 . S
O89 C97 1.260 . S
O90 Zn85 1.996 . S
O90 C97 1.257 . S
C91 O86 1.254 . S
C91 O87 1.269 . S
C92 O93 1.249 . S
C92 O94 1.270 . S
O93 Zn85 1.943 . S
O93 C92 1.249 . S
O94 Zn84 2.067 . S
O94 C92 1.270 . S
C95 O88 1.262 . S
C95 O96 1.232 . S
O96 C95 1.232 . S
C97 O89 1.260 . S
C97 O90 1.257 . S
Zn98 O101 2.031 . S
Zn98 O103 2.049 . S
Zn98 O108 2.067 . S
Zn99 O100 1.962 . S
Zn99 O102 1.986 . S
Zn99 O104 1.996 . S
Zn99 O107 1.943 . S
O100 Zn99 1.962 . S
O100 C105 1.254 . S
O101 Zn98 2.031 . S
O101 C105 1.269 . S
O102 Zn99 1.986 . S
O102 C109 1.262 . S
O103 Zn98 2.049 . S
O103 C111 1.260 . S
O104 Zn99 1.996 . S
O104 C111 1.257 . S
C105 O100 1.254 . S
C105 O101 1.269 . S
C106 O107 1.249 . S
C106 O108 1.270 . S
O107 Zn99 1.943 . S
O107 C106 1.249 . S
O108 Zn98 2.067 . S
O108 C106 1.270 . S
C109 O102 1.262 . S
C109 O110 1.232 . S
O110 C109 1.232 . S
C111 O103 1.260 . S
C111 O104 1.257 . S
Zn112 O115 2.031 . S
Zn112 O117 2.049 . S
Zn112 O122 2.067 . S
Zn113 O114 1.962 . S
Zn113 O116 1.986 . S
Zn113 O118 1.996 . S
Zn113 O121 1.943 . S
O114 Zn113 1.962 . S
O114 C119 1.254 . S
O115 Zn112 2.031 . S
O115 C119 1.269 . S
O116 Zn113 1.986 . S
O116 C123 1.262 . S
O117 Zn112 2.049 . S
O117 C125 1.260 . S
O118 Zn113 1.996 . S
O118 C125 1.257 . S
C119 O114 1.254 . S
C119 O115 1.269 . S
C120 O121 1.249 . S
C120 O122 1.270 . S
O121 Zn113 1.943 . S
O121 C120 1.249 . S
O122 Zn112 2.067 . S
O122 C120 1.270 . S
C123 O116 1.262 . S
C123 O124 1.232 . S
O124 C123 1.232 . S
C125 O117 1.260 . S
C125 O118 1.257 . S
Zn126 O129 2.031 . S
Zn126 O131 2.049 . S
Zn126 O136 2.067 . S
Zn127 O128 1.962 . S
Zn127 O130 1.986 . S
Zn127 O132 1.996 . S
Zn127 O135 1.943 . S
O128 Zn127 1.962 . S
O128 C133 1.254 . S
O129 Zn126 2.031 . S
O129 C133 1.269 . S
O130 Zn127 1.986 . S
O130 C137 1.262 . S
O131 Zn126 2.049 . S
O131 C139 1.260 . S
O132 Zn127 1.996 . S
O132 C139 1.257 . S
C133 O128 1.254 . S
C133 O129 1.269 . S
C134 O135 1.249 . S
C134 O136 1.270 . S
O135 Zn127 1.943 . S
O135 C134 1.249 . S
O136 Zn126 2.067 . S
O136 C134 1.270 . S
C137 O130 1.262 . S
C137 O138 1.232 . S
O138 C137 1.232 . S
C139 O131 1.260 . S
C139 O132 1.257 . S
Zn140 O143 2.031 . S
Zn140 O145 2.049 . S
Zn140 O150 2.067 . S
Zn141 O142 1.962 . S
Zn141 O144 1.986 . S
Zn141 O146 1.996 . S
Zn141 O149 1.943 . S
O142 Zn141 1.962 . S
O142 C147 1.254 . S
O143 Zn140 2.031 . S
O143 C147 1.269 . S
O144 Zn141 1.986 . S
O144 C151 1.262 . S
O145 Zn140 2.049 . S
O145 C153 1.260 . S
O146 Zn141 1.996 . S
O146 C153 1.257 . S
C147 O142 1.254 . S
C147 O143 1.269 . S
C148 O149 1.249 . S
C148 O150 1.270 . S
O149 Zn141 1.943 . S
O149 C148 1.249 . S
O150 Zn140 2.067 . S
O150 C148 1.270 . S
C151 O144 1.262 . S
C151 O152 1.232 . S
O152 C151 1.232 . S
C153 O145 1.260 . S
C153 O146 1.257 . S
Zn154 O157 2.031 . S
Zn154 O159 2.049 . S
Zn154 O164 2.067 . S
Zn155 O156 1.962 . S
Zn155 O158 1.986 . S
Zn155 O160 1.996 . S
Zn155 O163 1.943 . S
O156 Zn155 1.962 . S
O156 C161 1.254 . S
O157 Zn154 2.031 . S
O157 C161 1.269 . S
O158 Zn155 1.986 . S
O158 C165 1.262 . S
O159 Zn154 2.049 . S
O159 C167 1.260 . S
O160 Zn155 1.996 . S
O160 C167 1.257 . S
C161 O156 1.254 . S
C161 O157 1.269 . S
C162 O163 1.249 . S
C162 O164 1.270 . S
O163 Zn155 1.943 . S
O163 C162 1.249 . S
O164 Zn154 2.067 . S
O164 C162 1.270 . S
C165 O158 1.262 . S
C165 O166 1.232 . S
O166 C165 1.232 . S
C167 O159 1.260 . S
C167 O160 1.257 . S
C168 C169 1.369 . S
C168 C170 1.419 . S
C168 H172 0.930 . S
C169 C168 1.369 . S
C169 C178 1.429 . S
C170 C168 1.419 . S
C170 C171 1.363 . S
C170 H173 0.929 . S
C171 C170 1.363 . S
C171 C177 1.428 . S
H172 C168 0.930 . S
H173 C170 0.929 . S
S174 N175 1.613 . S
S174 N176 1.610 . S
N175 S174 1.613 . S
N175 C178 1.350 . S
N176 S174 1.610 . S
N176 C177 1.351 . S
C177 C171 1.428 . S
C177 N176 1.351 . S
C177 C178 1.434 . S
C178 C169 1.429 . S
C178 N175 1.350 . S
C178 C177 1.434 . S
C179 C180 1.369 . S
C179 C181 1.419 . S
C179 H183 0.930 . S
C180 C179 1.369 . S
C180 C189 1.429 . S
C181 C179 1.419 . S
C181 C182 1.363 . S
C181 H184 0.929 . S
C182 C181 1.363 . S
C182 C188 1.428 . S
H183 C179 0.930 . S
H184 C181 0.929 . S
S185 N186 1.613 . S
S185 N187 1.610 . S
N186 S185 1.613 . S
N186 C189 1.350 . S
N187 S185 1.610 . S
N187 C188 1.351 . S
C188 C182 1.428 . S
C188 N187 1.351 . S
C188 C189 1.434 . S
C189 C180 1.429 . S
C189 N186 1.350 . S
C189 C188 1.434 . S
C190 C191 1.369 . S
C190 C192 1.419 . S
C190 H194 0.930 . S
C191 C190 1.369 . S
C191 C200 1.429 . S
C192 C190 1.419 . S
C192 C193 1.363 . S
C192 H195 0.929 . S
C193 C192 1.363 . S
C193 C199 1.428 . S
H194 C190 0.930 . S
H195 C192 0.929 . S
S196 N197 1.613 . S
S196 N198 1.610 . S
N197 S196 1.613 . S
N197 C200 1.350 . S
N198 S196 1.610 . S
N198 C199 1.351 . S
C199 C193 1.428 . S
C199 N198 1.351 . S
C199 C200 1.434 . S
C200 C191 1.429 . S
C200 N197 1.350 . S
C200 C199 1.434 . S
C201 C202 1.369 . S
C201 C203 1.419 . S
C201 H205 0.930 . S
C202 C201 1.369 . S
C202 C211 1.429 . S
C203 C201 1.419 . S
C203 C204 1.363 . S
C203 H206 0.929 . S
C204 C203 1.363 . S
C204 C210 1.428 . S
H205 C201 0.930 . S
H206 C203 0.929 . S
S207 N208 1.613 . S
S207 N209 1.610 . S
N208 S207 1.613 . S
N208 C211 1.350 . S
N209 S207 1.610 . S
N209 C210 1.351 . S
C210 C204 1.428 . S
C210 N209 1.351 . S
C210 C211 1.434 . S
C211 C202 1.429 . S
C211 N208 1.350 . S
C211 C210 1.434 . S
C212 C213 1.369 . S
C212 C214 1.419 . S
C212 H216 0.930 . S
C213 C212 1.369 . S
C213 C222 1.429 . S
C214 C212 1.419 . S
C214 C215 1.363 . S
C214 H217 0.929 . S
C215 C214 1.363 . S
C215 C221 1.428 . S
H216 C212 0.930 . S
H217 C214 0.929 . S
S218 N219 1.613 . S
S218 N220 1.610 . S
N219 S218 1.613 . S
N219 C222 1.350 . S
N220 S218 1.610 . S
N220 C221 1.351 . S
C221 C215 1.428 . S
C221 N220 1.351 . S
C221 C222 1.434 . S
C222 C213 1.429 . S
C222 N219 1.350 . S
C222 C221 1.434 . S
C223 C224 1.369 . S
C223 C225 1.419 . S
C223 H227 0.930 . S
C224 C223 1.369 . S
C224 C233 1.429 . S
C225 C223 1.419 . S
C225 C226 1.363 . S
C225 H228 0.929 . S
C226 C225 1.363 . S
C226 C232 1.428 . S
H227 C223 0.930 . S
H228 C225 0.929 . S
S229 N230 1.613 . S
S229 N231 1.610 . S
N230 S229 1.613 . S
N230 C233 1.350 . S
N231 S229 1.610 . S
N231 C232 1.351 . S
C232 C226 1.428 . S
C232 N231 1.351 . S
C232 C233 1.434 . S
C233 C224 1.429 . S
C233 N230 1.350 . S
C233 C232 1.434 . S
C234 C235 1.361 1_565 S
C234 C236 1.425 . S
C234 H238 0.931 . S
C235 C234 1.361 1_545 S
C235 C244 1.429 1_554 S
C236 C234 1.425 . S
C236 C237 1.363 1_554 S
C236 H239 0.929 . S
C237 C236 1.363 1_556 S
C237 C243 1.428 . S
H238 C234 0.931 . S
H239 C236 0.929 . S
S240 N241 1.613 . S
S240 N242 1.610 . S
N241 S240 1.613 . S
N241 C244 1.350 . S
N242 S240 1.610 . S
N242 C243 1.351 1_545 S
C243 C237 1.428 . S
C243 N242 1.351 1_565 S
C243 C244 1.434 1_565 S
C244 C235 1.429 1_556 S
C244 N241 1.350 . S
C244 C243 1.434 1_545 S
C245 C246 1.369 . S
C245 C247 1.419 . S
C245 H249 0.930 . S
C246 C245 1.369 . S
C246 C255 1.429 . S
C247 C245 1.419 . S
C247 C248 1.363 . S
C247 H250 0.929 . S
C248 C247 1.363 . S
C248 C254 1.428 . S
H249 C245 0.930 . S
H250 C247 0.929 . S
S251 N252 1.613 . S
S251 N253 1.610 . S
N252 S251 1.613 . S
N252 C255 1.350 . S
N253 S251 1.610 . S
N253 C254 1.351 . S
C254 C248 1.428 . S
C254 N253 1.351 . S
C254 C255 1.434 . S
C255 C246 1.429 . S
C255 N252 1.350 . S
C255 C254 1.434 . S
C256 C257 1.369 1_554 S
C256 C258 1.430 . S
C256 H260 0.930 . S
C257 C256 1.369 1_556 S
C257 C266 1.429 1_455 S
C258 C256 1.430 . S
C258 C259 1.346 1_455 S
C258 H261 0.936 . S
C259 C258 1.346 1_655 S
C259 C265 1.428 1_554 S
H260 C256 0.930 . S
H261 C258 0.936 . S
S262 N263 1.613 . S
S262 N264 1.610 . S
N263 S262 1.613 . S
N263 C266 1.350 . S
N264 S262 1.610 . S
N264 C265 1.351 . S
C265 C259 1.428 1_556 S
C265 N264 1.351 . S
C265 C266 1.434 . S
C266 C257 1.429 1_655 S
C266 N263 1.350 . S
C266 C265 1.434 . S
C267 C268 1.369 . S
C267 C269 1.419 1_545 S
C267 H271 0.930 . S
C268 C267 1.369 . S
C268 C277 1.429 . S
C269 C267 1.419 1_565 S
C269 C270 1.363 . S
C269 H272 0.929 . S
C270 C269 1.363 . S
C270 C276 1.428 . S
H271 C267 0.930 . S
H272 C269 0.929 . S
S273 N274 1.613 1_565 S
S273 N275 1.610 . S
N274 S273 1.613 1_545 S
N274 C277 1.350 . S
N275 S273 1.610 . S
N275 C276 1.351 . S
C276 C270 1.428 . S
C276 N275 1.351 . S
C276 C277 1.434 1_565 S
C277 C268 1.429 . S
C277 N274 1.350 . S
C277 C276 1.434 1_545 S
C278 C279 1.369 1_554 S
C278 C280 1.419 . S
C278 H282 0.930 . S
C279 C278 1.369 1_556 S
C279 C288 1.429 . S
C280 C278 1.419 . S
C280 C281 1.363 . S
C280 H283 0.929 . S
C281 C280 1.363 . S
C281 C287 1.428 1_554 S
H282 C278 0.930 . S
H283 C280 0.929 . S
S284 N285 1.613 . S
S284 N286 1.610 . S
N285 S284 1.613 . S
N285 C288 1.350 . S
N286 S284 1.610 . S
N286 C287 1.351 . S
C287 C281 1.428 1_556 S
C287 N286 1.351 . S
C287 C288 1.434 . S
C288 C279 1.429 . S
C288 N285 1.350 . S
C288 C287 1.434 . S
C289 C290 1.369 . S
C289 C291 1.419 . S
C289 H293 0.930 . S
C290 C289 1.369 . S
C290 C299 1.429 1_655 S
C291 C289 1.419 . S
C291 C292 1.363 1_655 S
C291 H294 0.929 . S
C292 C291 1.363 1_455 S
C292 C298 1.428 . S
H293 C289 0.930 . S
H294 C291 0.929 . S
S295 N296 1.613 . S
S295 N297 1.610 . S
N296 S295 1.613 . S
N296 C299 1.350 . S
N297 S295 1.610 . S
N297 C298 1.351 . S
C298 C292 1.428 . S
C298 N297 1.351 . S
C298 C299 1.434 . S
C299 C290 1.429 1_455 S
C299 N296 1.350 . S
C299 C298 1.434 . S
C300 C301 1.369 . S
C300 C302 1.419 . S
C300 H304 0.930 . S
C301 C300 1.369 . S
C301 C310 1.429 . S
C302 C300 1.419 . S
C302 C303 1.363 . S
C302 H305 0.929 . S
C303 C302 1.363 . S
C303 C309 1.428 . S
H304 C300 0.930 . S
H305 C302 0.929 . S
S306 N307 1.613 . S
S306 N308 1.610 . S
N307 S306 1.613 . S
N307 C310 1.350 . S
N308 S306 1.610 . S
N308 C309 1.351 . S
C309 C303 1.428 . S
C309 N308 1.351 . S
C309 C310 1.434 . S
C310 C301 1.429 . S
C310 N307 1.350 . S
C310 C309 1.434 . S
C311 C312 1.369 . S
C311 C313 1.419 . S
C311 H315 0.930 . S
C312 C311 1.369 . S
C312 C321 1.429 . S
C313 C311 1.419 . S
C313 C314 1.363 . S
C313 H316 0.929 . S
C314 C313 1.363 . S
C314 C320 1.428 . S
H315 C311 0.930 . S
H316 C313 0.929 . S
S317 N318 1.613 . S
S317 N319 1.610 . S
N318 S317 1.613 . S
N318 C321 1.350 . S
N319 S317 1.610 . S
N319 C320 1.351 . S
C320 C314 1.428 . S
C320 N319 1.351 . S
C320 C321 1.434 . S
C321 C312 1.429 . S
C321 N318 1.350 . S
C321 C320 1.434 . S
C322 C323 1.369 . S
C322 C324 1.419 . S
C322 H326 0.930 . S
C323 C322 1.369 . S
C323 C332 1.429 . S
C324 C322 1.419 . S
C324 C325 1.363 . S
C324 H327 0.929 . S
C325 C324 1.363 . S
C325 C331 1.428 . S
H326 C322 0.930 . S
H327 C324 0.929 . S
S328 N329 1.613 . S
S328 N330 1.610 . S
N329 S328 1.613 . S
N329 C332 1.350 1_556 S
N330 S328 1.610 . S
N330 C331 1.351 1_556 S
C331 C325 1.428 . S
C331 N330 1.351 1_554 S
C331 C332 1.434 . S
C332 C323 1.429 . S
C332 N329 1.350 1_554 S
C332 C331 1.434 . S
C333 C334 1.369 . S
C333 C335 1.419 . S
C333 H337 0.930 . S
C334 C333 1.369 . S
C334 C343 1.429 . S
C335 C333 1.419 . S
C335 C336 1.363 . S
C335 H338 0.929 . S
C336 C335 1.363 . S
C336 C342 1.428 . S
H337 C333 0.930 . S
H338 C335 0.929 . S
S339 N340 1.613 . S
S339 N341 1.610 . S
N340 S339 1.613 . S
N340 C343 1.350 . S
N341 S339 1.610 . S
N341 C342 1.351 . S
C342 C336 1.428 . S
C342 N341 1.351 . S
C342 C343 1.434 . S
C343 C334 1.429 . S
C343 N340 1.350 . S
C343 C342 1.434 . S
C344 C345 1.369 . S
C344 C346 1.419 . S
C344 H348 0.930 . S
C345 C344 1.369 . S
C345 C354 1.429 . S
C346 C344 1.419 . S
C346 C347 1.363 . S
C346 H349 0.929 . S
C347 C346 1.363 . S
C347 C353 1.428 . S
H348 C344 0.930 . S
H349 C346 0.929 . S
S350 N351 1.613 . S
S350 N352 1.610 . S
N351 S350 1.613 . S
N351 C354 1.350 . S
N352 S350 1.610 . S
N352 C353 1.351 . S
C353 C347 1.428 . S
C353 N352 1.351 . S
C353 C354 1.434 . S
C354 C345 1.429 . S
C354 N351 1.350 . S
C354 C353 1.434 . S
C355 C356 1.369 . S
C355 C357 1.419 . S
C355 H359 0.930 . S
C356 C355 1.369 . S
C356 C365 1.429 . S
C357 C355 1.419 . S
C357 C358 1.363 . S
C357 H360 0.929 . S
C358 C357 1.363 . S
C358 C364 1.428 . S
H359 C355 0.930 . S
H360 C357 0.929 . S
S361 N362 1.613 . S
S361 N363 1.610 . S
N362 S361 1.613 . S
N362 C365 1.350 . S
N363 S361 1.610 . S
N363 C364 1.351 . S
C364 C358 1.428 . S
C364 N363 1.351 . S
C364 C365 1.434 . S
C365 C356 1.429 . S
C365 N362 1.350 . S
C365 C364 1.434 . S
C366 C367 1.369 . S
C366 C368 1.419 . S
C366 H370 0.930 . S
C367 C366 1.369 . S
C367 C376 1.429 . S
C368 C366 1.419 . S
C368 C369 1.363 . S
C368 H371 0.929 . S
C369 C368 1.363 . S
C369 C375 1.428 . S
H370 C366 0.930 . S
H371 C368 0.929 . S
S372 N373 1.613 . S
S372 N374 1.610 . S
N373 S372 1.613 . S
N373 C376 1.350 . S
N374 S372 1.610 . S
N374 C375 1.351 . S
C375 C369 1.428 . S
C375 N374 1.351 . S
C375 C376 1.434 . S
C376 C367 1.429 . S
C376 N373 1.350 . S
C376 C375 1.434 . S
C377 C378 1.369 . S
C377 C379 1.419 . S
C377 H381 0.930 . S
C378 C377 1.369 . S
C378 C387 1.429 . S
C379 C377 1.419 . S
C379 C380 1.363 . S
C379 H382 0.929 . S
C380 C379 1.363 . S
C380 C386 1.428 . S
H381 C377 0.930 . S
H382 C379 0.929 . S
S383 N384 1.613 . S
S383 N385 1.610 . S
N384 S383 1.613 . S
N384 C387 1.350 . S
N385 S383 1.610 . S
N385 C386 1.351 . S
C386 C380 1.428 . S
C386 N385 1.351 . S
C386 C387 1.434 . S
C387 C378 1.429 . S
C387 N384 1.350 . S
C387 C386 1.434 . S
C388 C389 1.369 . S
C388 C390 1.419 . S
C388 H392 0.930 . S
C389 C388 1.369 . S
C389 C398 1.429 . S
C390 C388 1.419 . S
C390 C391 1.363 . S
C390 H393 0.929 . S
C391 C390 1.363 . S
C391 C397 1.428 . S
H392 C388 0.930 . S
H393 C390 0.929 . S
S394 N395 1.613 . S
S394 N396 1.610 . S
N395 S394 1.613 . S
N395 C398 1.350 . S
N396 S394 1.610 . S
N396 C397 1.351 . S
C397 C391 1.428 . S
C397 N396 1.351 . S
C397 C398 1.434 . S
C398 C389 1.429 . S
C398 N395 1.350 . S
C398 C397 1.434 . S
C399 C400 1.369 . S
C399 C401 1.419 . S
C399 H403 0.930 . S
C400 C399 1.369 . S
C400 C409 1.429 . S
C401 C399 1.419 . S
C401 C402 1.363 . S
C401 H404 0.929 . S
C402 C401 1.363 . S
C402 C408 1.428 . S
H403 C399 0.930 . S
H404 C401 0.929 . S
S405 N406 1.613 . S
S405 N407 1.610 . S
N406 S405 1.613 . S
N406 C409 1.350 . S
N407 S405 1.610 . S
N407 C408 1.351 . S
C408 C402 1.428 . S
C408 N407 1.351 . S
C408 C409 1.434 . S
C409 C400 1.429 . S
C409 N406 1.350 . S
C409 C408 1.434 . S
C410 C411 1.369 . S
C410 C412 1.419 . S
C410 H414 0.930 . S
C411 C410 1.369 . S
C411 C420 1.429 . S
C412 C410 1.419 . S
C412 C413 1.363 . S
C412 H415 0.929 . S
C413 C412 1.363 . S
C413 C419 1.428 . S
H414 C410 0.930 . S
H415 C412 0.929 . S
S416 N417 1.613 . S
S416 N418 1.610 . S
N417 S416 1.613 . S
N417 C420 1.350 . S
N418 S416 1.610 . S
N418 C419 1.351 . S
C419 C413 1.428 . S
C419 N418 1.351 . S
C419 C420 1.434 . S
C420 C411 1.429 . S
C420 N417 1.350 . S
C420 C419 1.434 . S
C421 C422 1.369 . S
C421 C423 1.419 . S
C421 H425 0.930 . S
C422 C421 1.369 . S
C422 C431 1.429 . S
C423 C421 1.419 . S
C423 C424 1.363 . S
C423 H426 0.929 . S
C424 C423 1.363 . S
C424 C430 1.428 . S
H425 C421 0.930 . S
H426 C423 0.929 . S
S427 N428 1.613 . S
S427 N429 1.610 . S
N428 S427 1.613 . S
N428 C431 1.350 . S
N429 S427 1.610 . S
N429 C430 1.351 . S
C430 C424 1.428 . S
C430 N429 1.351 . S
C430 C431 1.434 . S
C431 C422 1.429 . S
C431 N428 1.350 . S
C431 C430 1.434 . S
C169 C153 1.343 . S
C171 C13 1.349 . S
C180 C27 1.270 . S
C182 C167 1.268 . S
C191 C41 1.358 . S
C193 C97 1.361 . S
C202 C111 1.342 . S
C204 C55 1.349 . S
C213 C125 1.272 . S
C215 C69 1.273 . S
C224 C83 1.342 . S
C226 C139 1.349 . S
C235 C11 1.132 . S
C237 C109 1.114 . S
C246 C25 1.007 . S
C248 C123 1.007 . S
C257 C137 1.135 . S
C259 C39 1.110 . S
C268 C151 1.118 . S
C270 C53 1.131 . S
C279 C165 1.008 . S
C281 C67 1.007 . S
C290 C95 1.135 . S
C292 C81 1.110 . S
C301 C8 1.146 . S
C303 C63 1.101 . S
C312 C22 1.070 . S
C314 C77 1.083 . S
C323 C36 1.119 . S
C325 C7 1.096 . S
C334 C50 1.141 . S
C336 C21 1.092 . S
C345 C64 1.072 . S
C347 C35 1.084 . S
C356 C78 1.119 . S
C358 C49 1.096 . S
C367 C92 1.145 . S
C369 C119 1.101 . S
C378 C106 1.106 . S
C380 C133 1.084 . S
C389 C147 1.085 . S
C391 C120 1.075 . S
C400 C134 1.140 . S
C402 C161 1.097 . S
C411 C148 1.116 . S
C413 C91 1.094 . S
C422 C162 1.073 . S
C424 C105 1.085 . S
