# Generated by pormake.
# Topology wji, (4)-cn, num edge types: 1
# Building blocks:
#     Node 0, Type 0, BuildingBlock: UXUYUI_clean_sbu_0, # of connection points: 4
#     Node 1, Type 0, BuildingBlock: UXUYUI_clean_sbu_0, # of connection points: 4
#     Node 2, Type 0, BuildingBlock: UXUYUI_clean_sbu_0, # of connection points: 4
#     Node 3, Type 0, BuildingBlock: UXUYUI_clean_sbu_0, # of connection points: 4
#     Node 4, Type 0, BuildingBlock: UXUYUI_clean_sbu_0, # of connection points: 4
#     Node 5, Type 0, BuildingBlock: UXUYUI_clean_sbu_0, # of connection points: 4
#     Node 6, Type 0, BuildingBlock: UXUYUI_clean_sbu_0, # of connection points: 4
#     Node 7, Type 0, BuildingBlock: UXUYUI_clean_sbu_0, # of connection points: 4
#     Node 8, Type 0, BuildingBlock: UXUYUI_clean_sbu_0, # of connection points: 4
#     Node 9, Type 0, BuildingBlock: UXUYUI_clean_sbu_0, # of connection points: 4
#     Node 10, Type 0, BuildingBlock: UXUYUI_clean_sbu_0, # of connection points: 4
#     Node 11, Type 0, BuildingBlock: UXUYUI_clean_sbu_0, # of connection points: 4
#     Edge 12, Type (0, 0), BuildingBlock: UVAHIK_clean_linker_0, # of connection points: 2
#     Edge 13, Type (0, 0), BuildingBlock: UVAHIK_clean_linker_0, # of connection points: 2
#     Edge 14, Type (0, 0), BuildingBlock: UVAHIK_clean_linker_0, # of connection points: 2
#     Edge 15, Type (0, 0), BuildingBlock: UVAHIK_clean_linker_0, # of connection points: 2
#     Edge 16, Type (0, 0), BuildingBlock: UVAHIK_clean_linker_0, # of connection points: 2
#     Edge 17, Type (0, 0), BuildingBlock: UVAHIK_clean_linker_0, # of connection points: 2
#     Edge 18, Type (0, 0), BuildingBlock: UVAHIK_clean_linker_0, # of connection points: 2
#     Edge 19, Type (0, 0), BuildingBlock: UVAHIK_clean_linker_0, # of connection points: 2
#     Edge 20, Type (0, 0), BuildingBlock: UVAHIK_clean_linker_0, # of connection points: 2
#     Edge 21, Type (0, 0), BuildingBlock: UVAHIK_clean_linker_0, # of connection points: 2
#     Edge 22, Type (0, 0), BuildingBlock: UVAHIK_clean_linker_0, # of connection points: 2
#     Edge 23, Type (0, 0), BuildingBlock: UVAHIK_clean_linker_0, # of connection points: 2
#     Edge 24, Type (0, 0), BuildingBlock: UVAHIK_clean_linker_0, # of connection points: 2
#     Edge 25, Type (0, 0), BuildingBlock: UVAHIK_clean_linker_0, # of connection points: 2
#     Edge 26, Type (0, 0), BuildingBlock: UVAHIK_clean_linker_0, # of connection points: 2
#     Edge 27, Type (0, 0), BuildingBlock: UVAHIK_clean_linker_0, # of connection points: 2
#     Edge 28, Type (0, 0), BuildingBlock: UVAHIK_clean_linker_0, # of connection points: 2
#     Edge 29, Type (0, 0), BuildingBlock: UVAHIK_clean_linker_0, # of connection points: 2
#     Edge 30, Type (0, 0), BuildingBlock: UVAHIK_clean_linker_0, # of connection points: 2
#     Edge 31, Type (0, 0), BuildingBlock: UVAHIK_clean_linker_0, # of connection points: 2
#     Edge 32, Type (0, 0), BuildingBlock: UVAHIK_clean_linker_0, # of connection points: 2
#     Edge 33, Type (0, 0), BuildingBlock: UVAHIK_clean_linker_0, # of connection points: 2
#     Edge 34, Type (0, 0), BuildingBlock: UVAHIK_clean_linker_0, # of connection points: 2
#     Edge 35, Type (0, 0), BuildingBlock: UVAHIK_clean_linker_0, # of connection points: 2
# Relax obj value: 0.267
# Max RMSD: 0.141
# Mean RMSD: 0.141
data_MOF--net-wji--node1-UXUYUI_clean_sbu_0--edge1-UVAHIK_clean_linker_0
_symmetry_space_group_name_H-M    P1
_symmetry_Int_Tables_number       1
_symmetry_cell_setting            triclinic
loop_
_symmetry_equiv_pos_as_xyz
'x, y, z'
_cell_length_a     99.615504
_cell_length_b     99.600703
_cell_length_c     39.712932
_cell_angle_alpha  90.022142
_cell_angle_beta   89.992258
_cell_angle_gamma 120.02379
loop_
_atom_site_label
_atom_site_type_symbol
_atom_site_fract_x
_atom_site_fract_y
_atom_site_fract_z
_atom_type_partial_charge
Li0 Li 0.40989 0.31923 0.44071 0.0
Li1 Li 0.41613 0.30094 0.41351 0.0
Li2 Li 0.43325 0.32863 0.40699 0.0
Li3 Li 0.40835 0.316 0.38081 0.0
C4 C 0.42676 0.30902 0.4789 0.0
N5 N 0.42417 0.29287 0.53743 0.0
C6 C 0.41216 0.29783 0.49077 0.0
C7 C 0.44003 0.31202 0.49691 0.0
C8 C 0.4111 0.28978 0.52036 0.0
C9 C 0.43848 0.30374 0.52644 0.0
C10 C 0.38337 0.28965 0.39758 0.0
C11 C 0.37236 0.27141 0.35178 0.0
N12 N 0.35806 0.26904 0.35988 0.0
C13 C 0.36857 0.28701 0.40552 0.0
C14 C 0.38529 0.28177 0.37055 0.0
C15 C 0.35592 0.27654 0.38613 0.0
C16 C 0.38681 0.32239 0.47316 0.0
N17 N 0.40089 0.32366 0.47806 0.0
C18 C 0.40197 0.33261 0.53431 0.0
C19 C 0.40857 0.32873 0.50779 0.0
C20 C 0.38739 0.33138 0.53003 0.0
C21 C 0.37977 0.32615 0.49897 0.0
H22 H 0.38117 0.31868 0.44896 0.0
H23 H 0.41996 0.33007 0.51076 0.0
C24 C 0.42976 0.28302 0.42728 0.0
N25 N 0.41583 0.28219 0.42305 0.0
C26 C 0.4307 0.27144 0.44511 0.0
C27 C 0.40282 0.25792 0.45169 0.0
C28 C 0.40242 0.26975 0.43382 0.0
C29 C 0.41716 0.25904 0.4588 0.0
H30 H 0.44025 0.29333 0.41942 0.0
H31 H 0.39157 0.26963 0.43123 0.0
C32 C 0.42327 0.34973 0.42123 0.0
N33 N 0.43413 0.37827 0.45163 0.0
C34 C 0.41891 0.36012 0.40888 0.0
C35 C 0.43314 0.35383 0.4491 0.0
C36 C 0.42453 0.3745 0.42458 0.0
C37 C 0.43851 0.36832 0.46409 0.0
C38 C 0.43307 0.31905 0.34135 0.0
C39 C 0.43387 0.33282 0.33084 0.0
C40 C 0.43973 0.31233 0.32152 0.0
C41 C 0.44132 0.33965 0.30059 0.0
C42 C 0.44708 0.31951 0.29143 0.0
N43 N 0.44772 0.33291 0.28168 0.0
C44 C 0.46513 0.34251 0.42052 0.0
C45 C 0.45833 0.3582 0.3881 0.0
C46 C 0.48053 0.35449 0.4222 0.0
N47 N 0.45437 0.34466 0.40414 0.0
C48 C 0.47361 0.37041 0.3888 0.0
C49 C 0.48487 0.36872 0.4065 0.0
H50 H 0.46165 0.33158 0.43289 0.0
H51 H 0.44954 0.35972 0.37562 0.0
C52 C 0.38571 0.32093 0.35692 0.0
N53 N 0.39587 0.31667 0.34542 0.0
C54 C 0.37638 0.32335 0.3346 0.0
C55 C 0.38798 0.3168 0.28866 0.0
C56 C 0.39685 0.3141 0.31212 0.0
C57 C 0.37778 0.32184 0.29979 0.0
H58 H 0.38508 0.3227 0.38362 0.0
H59 H 0.40482 0.31044 0.30361 0.0
O60 O 0.42817 0.31659 0.44917 0.0
O61 O 0.39598 0.30014 0.41564 0.0
O62 O 0.41775 0.33558 0.4061 0.0
O63 O 0.42598 0.31216 0.37102 0.0
H64 H 0.40174 0.29526 0.47717 0.0
H65 H 0.45142 0.32059 0.48811 0.0
H66 H 0.39989 0.28104 0.52969 0.0
H67 H 0.44866 0.30592 0.54057 0.0
H68 H 0.37368 0.26528 0.33071 0.0
H69 H 0.36686 0.29296 0.42639 0.0
H70 H 0.39669 0.28376 0.36397 0.0
H71 H 0.34441 0.2744 0.39194 0.0
H72 H 0.40838 0.3369 0.5576 0.0
H73 H 0.36851 0.32499 0.49464 0.0
H74 H 0.44199 0.27284 0.4504 0.0
H75 H 0.39212 0.24847 0.46161 0.0
H76 H 0.41125 0.35708 0.38736 0.0
H77 H 0.43664 0.34596 0.45906 0.0
H78 H 0.42126 0.38267 0.41527 0.0
H79 H 0.44616 0.37166 0.48565 0.0
H80 H 0.42867 0.33814 0.34563 0.0
H81 H 0.43924 0.30169 0.32936 0.0
H82 H 0.44199 0.35029 0.29214 0.0
H83 H 0.45229 0.31444 0.27583 0.0
H84 H 0.48892 0.35271 0.43587 0.0
H85 H 0.47647 0.38128 0.37673 0.0
H86 H 0.36835 0.32667 0.34465 0.0
H87 H 0.38955 0.31551 0.26214 0.0
Li88 Li 0.1114 0.41643 0.58069 0.0
Li89 Li 0.08608 0.40887 0.60311 0.0
Li90 Li 0.08937 0.40706 0.5434 0.0
Li91 Li 0.09958 0.43279 0.5711 0.0
C92 C 0.09394 0.38582 0.6026 0.0
N93 N 0.09702 0.3666 0.6483 0.0
C94 C 0.10023 0.39137 0.63447 0.0
C95 C 0.08922 0.37048 0.59398 0.0
C96 C 0.1017 0.38149 0.65721 0.0
C97 C 0.09086 0.36095 0.61743 0.0
C98 C 0.10809 0.43556 0.64325 0.0
C99 C 0.10255 0.4516 0.67961 0.0
N100 N 0.11231 0.45133 0.70319 0.0
C101 C 0.1181 0.43547 0.66785 0.0
C102 C 0.10027 0.44371 0.64918 0.0
C103 C 0.12005 0.44349 0.69799 0.0
C104 C 0.14137 0.4308 0.60567 0.0
N105 N 0.13047 0.4175 0.59083 0.0
C106 C 0.14498 0.40499 0.6033 0.0
C107 C 0.13233 0.40493 0.58804 0.0
C108 C 0.15576 0.41814 0.62142 0.0
C109 C 0.15417 0.43139 0.62131 0.0
H110 H 0.13956 0.44062 0.60736 0.0
H111 H 0.12356 0.39454 0.57572 0.0
C112 C 0.05788 0.38606 0.63069 0.0
N113 N 0.07186 0.39841 0.63922 0.0
C114 C 0.0467 0.37803 0.65532 0.0
C115 C 0.06493 0.39469 0.69749 0.0
C116 C 0.07562 0.40264 0.67197 0.0
C117 C 0.05022 0.3824 0.68912 0.0
H118 H 0.05541 0.38247 0.60468 0.0
H119 H 0.0869 0.41206 0.67856 0.0
C120 C 0.11851 0.42349 0.51327 0.0
N121 N 0.13507 0.41818 0.46445 0.0
C122 C 0.12857 0.4355 0.49196 0.0
C123 C 0.11686 0.40877 0.50975 0.0
C124 C 0.13685 0.43258 0.46743 0.0
C125 C 0.12534 0.40632 0.48492 0.0
C126 C 0.0628 0.41144 0.57242 0.0
C127 C 0.0509 0.39932 0.55416 0.0
C128 C 0.05909 0.4188 0.5977 0.0
C129 C 0.03548 0.39458 0.56199 0.0
C130 C 0.04354 0.41371 0.60481 0.0
N131 N 0.03215 0.40179 0.58698 0.0
C132 C 0.07043 0.37985 0.50761 0.0
C133 C 0.07996 0.4029 0.47541 0.0
C134 C 0.06102 0.37103 0.48097 0.0
N135 N 0.07938 0.39548 0.50453 0.0
C136 C 0.07079 0.39452 0.44805 0.0
C137 C 0.06087 0.37841 0.45097 0.0
H138 H 0.07007 0.37434 0.5313 0.0
H139 H 0.08708 0.41538 0.47396 0.0
C140 C 0.1166 0.46527 0.57883 0.0
N141 N 0.10311 0.45319 0.56727 0.0
C142 C 0.11861 0.48018 0.57976 0.0
C143 C 0.09299 0.46995 0.5558 0.0
C144 C 0.09146 0.45524 0.55548 0.0
C145 C 0.10662 0.48262 0.56852 0.0
H146 H 0.1256 0.46321 0.58827 0.0
H147 H 0.08081 0.44537 0.54672 0.0
O148 O 0.09248 0.39529 0.57969 0.0
O149 O 0.10608 0.42776 0.61355 0.0
O150 O 0.11036 0.42623 0.53738 0.0
O151 O 0.07797 0.41614 0.56528 0.0
H152 H 0.10403 0.40319 0.64158 0.0
H153 H 0.08439 0.366 0.56937 0.0
H154 H 0.10658 0.38567 0.68193 0.0
H155 H 0.08727 0.34906 0.61107 0.0
H156 H 0.09658 0.45797 0.68446 0.0
H157 H 0.12418 0.42915 0.66393 0.0
H158 H 0.0926 0.44404 0.63048 0.0
H159 H 0.12772 0.44347 0.71726 0.0
H160 H 0.14594 0.39464 0.60225 0.0
H161 H 0.16211 0.44173 0.63514 0.0
H162 H 0.0355 0.36842 0.64813 0.0
H163 H 0.06802 0.39829 0.72343 0.0
H164 H 0.12997 0.44696 0.49438 0.0
H165 H 0.10912 0.39932 0.52593 0.0
H166 H 0.14468 0.44177 0.45076 0.0
H167 H 0.12417 0.39499 0.48192 0.0
H168 H 0.05349 0.39357 0.53427 0.0
H169 H 0.06809 0.42827 0.61189 0.0
H170 H 0.02617 0.38515 0.54819 0.0
H171 H 0.04052 0.41923 0.62451 0.0
H172 H 0.05363 0.35863 0.48413 0.0
H173 H 0.07087 0.40068 0.42552 0.0
H174 H 0.12934 0.48966 0.58946 0.0
H175 H 0.08338 0.47127 0.54731 0.0
Li176 Li 0.69572 0.11244 0.74809 0.0
Li177 Li 0.67747 0.08723 0.77042 0.0
Li178 Li 0.68341 0.09013 0.71107 0.0
Li179 Li 0.66765 0.10064 0.73631 0.0
C180 C 0.70836 0.09476 0.77223 0.0
N181 N 0.72999 0.09759 0.81948 0.0
C182 C 0.70865 0.10088 0.80408 0.0
C183 C 0.71906 0.09005 0.76445 0.0
C184 C 0.71967 0.10223 0.8276 0.0
C185 C 0.72991 0.09158 0.78867 0.0
C186 C 0.67285 0.11002 0.80827 0.0
C187 C 0.65131 0.10607 0.84305 0.0
N188 N 0.66142 0.11575 0.86665 0.0
C189 C 0.68303 0.11996 0.83287 0.0
C190 C 0.65686 0.10304 0.81339 0.0
C191 C 0.67702 0.12268 0.86221 0.0
C192 C 0.71066 0.14274 0.77109 0.0
N193 N 0.71351 0.13163 0.75912 0.0
C194 C 0.73996 0.1462 0.77641 0.0
C195 C 0.72796 0.13343 0.76001 0.0
C196 C 0.73701 0.15721 0.79162 0.0
C197 C 0.72232 0.15572 0.78754 0.0
H198 H 0.69903 0.14096 0.76996 0.0
H199 H 0.72997 0.12452 0.74983 0.0
C200 C 0.67295 0.05974 0.79978 0.0
N201 N 0.67324 0.07322 0.80724 0.0
C202 C 0.66958 0.04863 0.8247 0.0
C203 C 0.668 0.06592 0.86516 0.0
C204 C 0.67104 0.07654 0.83931 0.0
C205 C 0.66705 0.05171 0.85781 0.0
H206 H 0.67525 0.0576 0.77433 0.0
H207 H 0.67169 0.0874 0.84509 0.0
C208 C 0.69678 0.11915 0.68016 0.0
N209 N 0.7194 0.13526 0.63239 0.0
C210 C 0.69505 0.12881 0.65722 0.0
C211 C 0.71001 0.11768 0.67882 0.0
C212 C 0.70662 0.13686 0.63324 0.0
C213 C 0.72131 0.12592 0.65448 0.0
C214 C 0.65228 0.06393 0.74073 0.0
C215 C 0.65245 0.05161 0.72426 0.0
C216 C 0.64153 0.06085 0.76643 0.0
C217 C 0.64203 0.03641 0.73421 0.0
C218 C 0.63133 0.0455 0.77569 0.0
N219 N 0.6318 0.0337 0.75955 0.0
C220 C 0.69107 0.07013 0.67764 0.0
C221 C 0.67966 0.08106 0.64281 0.0
C222 C 0.69055 0.06054 0.65147 0.0
N223 N 0.68538 0.07987 0.67302 0.0
C224 C 0.67903 0.07175 0.61584 0.0
C225 C 0.68416 0.06105 0.62029 0.0
H226 H 0.69535 0.06932 0.70215 0.0
H227 H 0.67503 0.08878 0.6401 0.0
C228 C 0.65306 0.11876 0.73605 0.0
N229 N 0.65097 0.10437 0.73043 0.0
C230 C 0.64039 0.12115 0.73538 0.0
C231 C 0.6238 0.09395 0.7226 0.0
C232 C 0.63678 0.09211 0.7233 0.0
C233 C 0.62545 0.10859 0.72908 0.0
H234 H 0.66452 0.12826 0.74191 0.0
H235 H 0.63546 0.08079 0.71918 0.0
O236 O 0.69772 0.09336 0.74863 0.0
O237 O 0.67857 0.10729 0.77932 0.0
O238 O 0.68552 0.11121 0.70372 0.0
O239 O 0.66256 0.07891 0.73165 0.0
H240 H 0.7005 0.10461 0.81056 0.0
H241 H 0.71902 0.08532 0.73989 0.0
H242 H 0.72003 0.10698 0.85231 0.0
H243 H 0.73827 0.088 0.78297 0.0
H244 H 0.63896 0.10074 0.8473 0.0
H245 H 0.69544 0.12542 0.82953 0.0
H246 H 0.64879 0.09538 0.79474 0.0
H247 H 0.68477 0.13031 0.88147 0.0
H248 H 0.75121 0.14708 0.77854 0.0
H249 H 0.71951 0.16387 0.79906 0.0
H250 H 0.6691 0.03783 0.81829 0.0
H251 H 0.66613 0.06865 0.89052 0.0
H252 H 0.68487 0.13006 0.65795 0.0
H253 H 0.71157 0.11025 0.69629 0.0
H254 H 0.70543 0.14438 0.61532 0.0
H255 H 0.73161 0.12489 0.65315 0.0
H256 H 0.66055 0.05373 0.70409 0.0
H257 H 0.64117 0.0702 0.77936 0.0
H258 H 0.6421 0.02678 0.7218 0.0
H259 H 0.62305 0.04297 0.79575 0.0
H260 H 0.69472 0.05251 0.65582 0.0
H261 H 0.67385 0.07237 0.59234 0.0
H262 H 0.64225 0.13267 0.74012 0.0
H263 H 0.61252 0.08386 0.71823 0.0
Li264 Li 0.58907 0.67256 0.93818 0.0
Li265 Li 0.58404 0.69355 0.92452 0.0
Li266 Li 0.56661 0.66698 0.907 0.0
Li267 Li 0.59239 0.68198 0.88118 0.0
C268 C 0.55771 0.66979 0.96914 0.0
N269 N 0.52903 0.65871 -0.00067 0.0
C270 C 0.55198 0.67979 0.97581 0.0
C271 C 0.54888 0.65418 0.97837 0.0
C272 C 0.53746 0.67397 0.99098 0.0
C273 C 0.5344 0.64879 0.99341 0.0
C274 C 0.61555 0.708 0.91195 0.0
C275 C 0.62461 0.73115 0.87848 0.0
N276 N 0.63885 0.73711 0.89289 0.0
C277 C 0.63027 0.71434 0.9264 0.0
C278 C 0.61267 0.71645 0.88776 0.0
C279 C 0.6419 0.72908 0.91644 0.0
C280 C 0.61238 0.66821 0.96808 0.0
N281 N 0.59766 0.66552 0.97162 0.0
C282 C 0.59477 0.65253 0.02385 0.0
C283 C 0.58888 0.65796 0.99887 0.0
C284 C 0.60993 0.65513 0.02098 0.0
C285 C 0.61883 0.66314 0.99274 0.0
H286 H 0.61908 0.6743 0.94609 0.0
H287 H 0.57731 0.65617 0.00124 0.0
C288 C 0.57664 0.71765 0.93123 0.0
N289 N 0.58592 0.7121 0.94179 0.0
C290 C 0.57681 0.73003 0.94825 0.0
C291 C 0.59678 0.73127 0.98497 0.0
C292 C 0.59603 0.71874 0.9677 0.0
C293 C 0.58683 0.73681 0.97581 0.0
H294 H 0.5686 0.71199 0.91073 0.0
H295 H 0.6031 0.7139 0.97574 0.0
C296 C 0.5842 0.64819 0.90451 0.0
N297 N 0.59001 0.62478 0.92288 0.0
C298 C 0.59649 0.64727 0.88991 0.0
C299 C 0.57468 0.63697 0.92794 0.0
C300 C 0.59928 0.63541 0.89964 0.0
C301 C 0.57785 0.62529 0.93707 0.0
C302 C 0.56774 0.68315 0.84844 0.0
C303 C 0.56385 0.66919 0.83223 0.0
C304 C 0.56424 0.69365 0.83308 0.0
C305 C 0.55658 0.66602 0.80083 0.0
C306 C 0.55698 0.69006 0.80162 0.0
N307 N 0.55333 0.67643 0.78629 0.0
C308 C 0.53394 0.65521 0.90467 0.0
C309 C 0.54212 0.63748 0.88888 0.0
C310 C 0.5184 0.64357 0.90246 0.0
N311 N 0.5454 0.65183 0.89902 0.0
C312 C 0.52679 0.62558 0.88582 0.0
C313 C 0.51471 0.62848 0.89338 0.0
H314 H 0.53688 0.66683 0.91191 0.0
H315 H 0.55142 0.63518 0.88369 0.0
C316 C 0.61837 0.68506 0.84932 0.0
N317 N 0.60544 0.68592 0.84274 0.0
C318 C 0.6277 0.68511 0.82309 0.0
C319 C 0.6111 0.68849 0.78383 0.0
C320 C 0.60206 0.68833 0.81091 0.0
C321 C 0.62379 0.68628 0.78967 0.0
H322 H 0.62098 0.68349 0.87498 0.0
H323 H 0.59214 0.68967 0.80617 0.0
O324 O 0.57191 0.67529 0.95407 0.0
O325 O 0.6041 0.69355 0.92147 0.0
O326 O 0.58149 0.65996 0.89596 0.0
O327 O 0.57456 0.68644 0.87953 0.0
H328 H 0.55862 0.69191 0.96941 0.0
H329 H 0.55302 0.64621 0.9736 0.0
H330 H 0.5329 0.6816 0.9961 0.0
H331 H 0.52741 0.6367 0.00031 0.0
H332 H 0.62255 0.73782 0.85981 0.0
H333 H 0.63267 0.70791 0.94511 0.0
H334 H 0.60138 0.71175 0.87621 0.0
H335 H 0.65335 0.73413 0.92742 0.0
H336 H 0.58764 0.64661 0.04552 0.0
H337 H 0.63055 0.66531 0.98966 0.0
H338 H 0.56898 0.73403 0.9405 0.0
H339 H 0.60451 0.73606 0.00636 0.0
H340 H 0.60375 0.65553 0.87112 0.0
H341 H 0.56503 0.63734 0.93922 0.0
H342 H 0.60881 0.63464 0.88864 0.0
H343 H 0.57066 0.61666 0.95545 0.0
H344 H 0.56654 0.66095 0.84354 0.0
H345 H 0.56711 0.70447 0.84536 0.0
H346 H 0.55355 0.65529 0.78798 0.0
H347 H 0.55423 0.69809 0.78942 0.0
H348 H 0.50937 0.64628 0.90808 0.0
H349 H 0.52442 0.61409 0.8788 0.0
H350 H 0.63731 0.68333 0.82892 0.0
H351 H 0.60792 0.68986 0.75852 0.0
Li352 Li 0.91085 0.59181 0.10532 0.0
Li353 Li 0.88578 0.58388 0.07723 0.0
Li354 Li 0.89822 0.56828 0.07069 0.0
Li355 Li 0.90899 0.59313 0.04571 0.0
C356 C 0.88273 0.57205 0.14142 0.0
N357 N 0.86591 0.57083 0.19781 0.0
C358 C 0.88401 0.58565 0.15468 0.0
C359 C 0.87293 0.55784 0.15692 0.0
C360 C 0.87539 0.58479 0.18316 0.0
C361 C 0.86454 0.55747 0.18543 0.0
C362 C 0.90791 0.61773 0.06212 0.0
C363 C 0.90234 0.63012 0.01637 0.0
N364 N 0.91561 0.64361 0.02329 0.0
C365 C 0.92143 0.63173 0.06891 0.0
C366 C 0.89824 0.61692 0.03573 0.0
C367 C 0.92515 0.64467 0.04894 0.0
C368 C 0.93753 0.61414 0.13855 0.0
N369 N 0.9238 0.6009 0.14358 0.0
C370 C 0.93008 0.60022 0.20136 0.0
C371 C 0.92001 0.59378 0.17413 0.0
C372 C 0.94434 0.61394 0.19701 0.0
C373 C 0.94801 0.62094 0.16507 0.0
H374 H 0.94052 0.61918 0.11366 0.0
H375 H 0.90936 0.58293 0.17733 0.0
C376 C 0.85423 0.56844 0.09328 0.0
N377 N 0.86651 0.58265 0.08616 0.0
C378 C 0.84147 0.56717 0.11075 0.0
C379 C 0.85365 0.59513 0.1102 0.0
C380 C 0.86626 0.59587 0.09328 0.0
C381 C 0.84139 0.58068 0.12071 0.0
H382 H 0.85497 0.55816 0.08816 0.0
H383 H 0.87634 0.60703 0.08833 0.0
C384 C 0.92942 0.58012 0.08664 0.0
N385 N 0.94786 0.57053 0.11844 0.0
C386 C 0.9443 0.58483 0.07452 0.0
C387 C 0.92393 0.57053 0.11501 0.0
C388 C 0.95344 0.57986 0.09092 0.0
C389 C 0.93343 0.56581 0.1307 0.0
C390 C 0.88895 0.56808 0.00526 0.0
C391 C 0.90259 0.56843 0.99534 0.0
C392 C 0.87585 0.56085 0.98463 0.0
C393 C 0.90289 0.56154 0.96493 0.0
C394 C 0.8766 0.55408 0.95439 0.0
N395 N 0.89 0.55456 0.94525 0.0
C396 C 0.88107 0.53578 0.0794 0.0
C397 C 0.90576 0.54509 0.05428 0.0
C398 C 0.87871 0.52071 0.08041 0.0
N399 N 0.89456 0.54762 0.06713 0.0
C400 C 0.90399 0.5303 0.0552 0.0
C401 C 0.89045 0.51796 0.06895 0.0
H402 H 0.87231 0.53811 0.08914 0.0
H403 H 0.91628 0.55462 0.04414 0.0
C404 C 0.9365 0.61431 0.01545 0.0
N405 N 0.92109 0.6056 0.00901 0.0
C406 C 0.94668 0.62367 0.99043 0.0
C407 C 0.92488 0.61512 0.95259 0.0
C408 C 0.91509 0.60591 0.97846 0.0
C409 C 0.94094 0.62407 0.95838 0.0
H410 H 0.94089 0.61387 0.04009 0.0
H411 H 0.90274 0.59898 0.97416 0.0
O412 O 0.89047 0.57252 0.11254 0.0
O413 O 0.90424 0.60479 0.08078 0.0
O414 O 0.92045 0.58505 0.07083 0.0
O415 O 0.88827 0.57472 0.03492 0.0
H416 H 0.89146 0.59675 0.1429 0.0
H417 H 0.87175 0.54719 0.14692 0.0
H418 H 0.87618 0.59521 0.19354 0.0
H419 H 0.85688 0.54655 0.19763 0.0
H420 H 0.89503 0.62963 0.99572 0.0
H421 H 0.929 0.63261 0.08933 0.0
H422 H 0.88779 0.60612 0.02995 0.0
H423 H 0.93561 0.65557 0.05382 0.0
H424 H 0.92672 0.59444 0.22554 0.0
H425 H 0.95902 0.63132 0.16035 0.0
H426 H 0.83241 0.5558 0.11862 0.0
H427 H 0.85395 0.60583 0.11677 0.0
H428 H 0.94873 0.59226 0.05262 0.0
H429 H 0.91246 0.56672 0.12481 0.0
H430 H 0.96498 0.58341 0.08178 0.0
H431 H 0.92932 0.55839 0.15263 0.0
H432 H 0.91289 0.57403 0.01077 0.0
H433 H 0.86519 0.56047 0.99195 0.0
H434 H 0.91338 0.56175 0.95695 0.0
H435 H 0.86654 0.54845 0.93819 0.0
H436 H 0.86812 0.51146 0.09121 0.0
H437 H 0.91319 0.52856 0.04567 0.0
H438 H 0.95897 0.63018 0.9959 0.0
H439 H 0.91995 0.61522 0.92835 0.0
Li440 Li 0.32315 0.91556 0.26791 0.0
Li441 Li 0.30247 0.88991 0.24416 0.0
Li442 Li 0.33111 0.9004 0.23137 0.0
Li443 Li 0.31711 0.91223 0.21018 0.0
C444 C 0.31928 0.88942 0.30769 0.0
N445 N 0.31721 0.87876 0.37287 0.0
C446 C 0.30577 0.88463 0.3265 0.0
C447 C 0.33171 0.88867 0.32205 0.0
C448 C 0.30495 0.87931 0.35938 0.0
C449 C 0.33045 0.88329 0.35504 0.0
C450 C 0.29651 0.91814 0.23595 0.0
C451 C 0.27705 0.91982 0.20312 0.0
N452 N 0.28416 0.93529 0.20967 0.0
C453 C 0.30357 0.93402 0.24255 0.0
C454 C 0.28311 0.91094 0.2162 0.0
C455 C 0.29717 0.9425 0.22895 0.0
C456 C 0.34049 0.94336 0.30673 0.0
N457 N 0.32787 0.92884 0.3063 0.0
C458 C 0.32046 0.93264 0.36121 0.0
C459 C 0.31768 0.92358 0.33241 0.0
C460 C 0.33382 0.94733 0.36295 0.0
C461 C 0.34382 0.95274 0.33512 0.0
H462 H 0.34793 0.94783 0.28501 0.0
H463 H 0.30726 0.91242 0.33076 0.0
C464 C 0.28483 0.85874 0.26215 0.0
N465 N 0.28409 0.87183 0.25681 0.0
C466 C 0.27316 0.84647 0.2804 0.0
C467 C 0.25981 0.86105 0.2853 0.0
C468 C 0.27174 0.87305 0.26705 0.0
C469 C 0.26075 0.84781 0.29333 0.0
H470 H 0.29504 0.85834 0.25448 0.0
H471 H 0.2717 0.88377 0.26331 0.0
C472 C 0.35322 0.93095 0.24109 0.0
N473 N 0.38363 0.94664 0.26308 0.0
C474 C 0.36449 0.94353 0.22274 0.0
C475 C 0.35745 0.92634 0.27056 0.0
C476 C 0.3798 0.95132 0.23429 0.0
C477 C 0.37287 0.93441 0.28129 0.0
C478 C 0.31183 0.88952 0.16673 0.0
C479 C 0.32503 0.89844 0.14718 0.0
C480 C 0.29772 0.87949 0.15111 0.0
C481 C 0.32383 0.89733 0.11212 0.0
C482 C 0.29702 0.87869 0.11597 0.0
N483 N 0.30997 0.88757 0.09737 0.0
C484 C 0.34513 0.88207 0.24159 0.0
C485 C 0.35957 0.9044 0.20773 0.0
C486 C 0.35755 0.87927 0.2423 0.0
N487 N 0.34657 0.89475 0.22538 0.0
C488 C 0.37232 0.90219 0.20821 0.0
C489 C 0.37151 0.88973 0.2264 0.0
H490 H 0.33459 0.87454 0.25523 0.0
H491 H 0.36031 0.91423 0.19453 0.0
C492 C 0.32687 0.9394 0.17519 0.0
N493 N 0.31597 0.92412 0.17346 0.0
C494 C 0.32708 0.94983 0.15168 0.0
C495 C 0.30477 0.92871 0.12461 0.0
C496 C 0.30494 0.91863 0.14895 0.0
C497 C 0.3159 0.94457 0.12602 0.0
H498 H 0.33524 0.94356 0.19541 0.0
H499 H 0.29603 0.90656 0.14873 0.0
O500 O 0.32017 0.89434 0.27509 0.0
O501 O 0.30285 0.90974 0.24833 0.0
O502 O 0.33828 0.92295 0.22945 0.0
O503 O 0.31274 0.89044 0.20104 0.0
H504 H 0.29604 0.88516 0.31602 0.0
H505 H 0.34223 0.89215 0.30794 0.0
H506 H 0.29457 0.87563 0.37419 0.0
H507 H 0.34 0.88269 0.36644 0.0
H508 H 0.26675 0.91444 0.18757 0.0
H509 H 0.314 0.93977 0.25765 0.0
H510 H 0.27761 0.89869 0.21052 0.0
H511 H 0.30257 0.95483 0.23364 0.0
H512 H 0.31236 0.92814 0.38203 0.0
H513 H 0.35399 0.96421 0.33513 0.0
H514 H 0.27445 0.83656 0.28637 0.0
H515 H 0.25036 0.86247 0.29452 0.0
H516 H 0.3615 0.94716 0.19962 0.0
H517 H 0.34893 0.91673 0.28512 0.0
H518 H 0.38863 0.96106 0.2203 0.0
H519 H 0.37627 0.93096 0.3041 0.0
H520 H 0.33602 0.90625 0.15897 0.0
H521 H 0.28743 0.87247 0.16599 0.0
H522 H 0.33392 0.90425 0.09663 0.0
H523 H 0.28617 0.87104 0.10349 0.0
H524 H 0.35654 0.86956 0.25661 0.0
H525 H 0.38287 0.91038 0.19533 0.0
H526 H 0.33598 0.96192 0.1535 0.0
H527 H 0.29585 0.92423 0.10541 0.0
Li528 Li 0.68269 0.59007 0.46162 0.0
Li529 Li 0.6672 0.56471 0.43611 0.0
Li530 Li 0.69558 0.58256 0.42022 0.0
Li531 Li 0.67558 0.58843 0.4044 0.0
C532 C 0.68768 0.56975 0.49765 0.0
N533 N 0.69019 0.56518 0.56548 0.0
C534 C 0.67436 0.56147 0.51727 0.0
C535 C 0.70228 0.57545 0.51241 0.0
C536 C 0.67587 0.55936 0.55155 0.0
C537 C 0.7033 0.57309 0.54677 0.0
C538 C 0.65517 0.59001 0.44919 0.0
C539 C 0.63406 0.5935 0.46774 0.0
N540 N 0.64315 0.60907 0.46349 0.0
C541 C 0.6643 0.60606 0.44491 0.0
C542 C 0.63993 0.58366 0.46064 0.0
C543 C 0.65801 0.61549 0.45231 0.0
C544 C 0.69469 0.61567 0.50967 0.0
N545 N 0.68367 0.60074 0.50289 0.0
C546 C 0.66817 0.60088 0.54873 0.0
C547 C 0.6708 0.59319 0.52248 0.0
C548 C 0.67886 0.61656 0.55491 0.0
C549 C 0.69254 0.62381 0.53579 0.0
H550 H 0.70473 0.62168 0.49382 0.0
H551 H 0.66201 0.58147 0.51627 0.0
C552 C 0.65257 0.53313 0.42063 0.0
N553 N 0.65134 0.54378 0.43977 0.0
C554 C 0.64048 0.51777 0.4198 0.0
C555 C 0.62633 0.52455 0.45931 0.0
C556 C 0.63863 0.53983 0.45904 0.0
C557 C 0.6271 0.51337 0.4391 0.0
H558 H 0.66279 0.53668 0.40535 0.0
H559 H 0.63792 0.54862 0.47366 0.0
C560 C 0.71015 0.61481 0.43276 0.0
N561 N 0.73858 0.63938 0.45157 0.0
C562 C 0.71441 0.6299 0.42294 0.0
C563 C 0.72037 0.6122 0.45196 0.0
C564 C 0.72882 0.64217 0.43278 0.0
C565 C 0.73469 0.62477 0.46125 0.0
C566 C 0.67256 0.56807 0.35873 0.0
C567 C 0.68346 0.57518 0.33303 0.0
C568 C 0.6568 0.55933 0.35079 0.0
C569 C 0.67838 0.57354 0.29971 0.0
C570 C 0.65219 0.55797 0.31715 0.0
N571 N 0.66298 0.56505 0.29253 0.0
C572 C 0.71408 0.56923 0.40647 0.0
C573 C 0.72329 0.5943 0.38334 0.0
C574 C 0.72541 0.56768 0.38903 0.0
N575 N 0.71314 0.58231 0.40296 0.0
C576 C 0.73492 0.59333 0.36587 0.0
C577 C 0.73585 0.57976 0.36805 0.0
H578 H 0.7056 0.55976 0.42167 0.0
H579 H 0.72192 0.60432 0.37999 0.0
C580 C 0.65434 0.59151 0.36251 0.0
N581 N 0.66961 0.59683 0.36849 0.0
C582 C 0.6498 0.59667 0.33444 0.0
C583 C 0.67682 0.61277 0.31941 0.0
C584 C 0.68083 0.60738 0.34793 0.0
C585 C 0.6611 0.60729 0.31216 0.0
H586 H 0.64566 0.58298 0.37913 0.0
H587 H 0.69287 0.61122 0.35319 0.0
O588 O 0.68639 0.57194 0.46403 0.0
O589 O 0.66116 0.5805 0.44304 0.0
O590 O 0.69614 0.6027 0.42302 0.0
O591 O 0.67725 0.56998 0.39158 0.0
H592 H 0.66298 0.55686 0.50624 0.0
H593 H 0.71272 0.5815 0.49752 0.0
H594 H 0.66565 0.5531 0.56707 0.0
H595 H 0.71452 0.57748 0.55853 0.0
H596 H 0.62229 0.58874 0.47671 0.0
H597 H 0.67613 0.61123 0.43622 0.0
H598 H 0.63273 0.57128 0.46419 0.0
H599 H 0.66496 0.62793 0.44924 0.0
H600 H 0.65753 0.59479 0.56312 0.0
H601 H 0.70104 0.63593 0.53951 0.0
H602 H 0.64152 0.50946 0.40405 0.0
H603 H 0.61613 0.52163 0.47422 0.0
H604 H 0.70662 0.63208 0.40795 0.0
H605 H 0.71729 0.60061 0.45948 0.0
H606 H 0.73226 0.65392 0.42544 0.0
H607 H 0.74271 0.62291 0.47614 0.0
H608 H 0.69569 0.58205 0.33881 0.0
H609 H 0.64822 0.55387 0.37045 0.0
H610 H 0.68667 0.57905 0.27956 0.0
H611 H 0.64003 0.55134 0.31063 0.0
H612 H 0.72578 0.55704 0.39128 0.0
H613 H 0.74256 0.60277 0.34944 0.0
H614 H 0.63757 0.5923 0.33015 0.0
H615 H 0.6859 0.62078 0.30273 0.0
Li616 Li 0.09125 0.68549 0.6187 0.0
Li617 Li 0.10195 0.67107 0.59083 0.0
Li618 Li 0.11466 0.69926 0.58204 0.0
Li619 Li 0.08969 0.68182 0.55766 0.0
C620 C 0.11993 0.69803 0.65105 0.0
N621 N 0.1354 0.71892 0.70228 0.0
C622 C 0.12757 0.69451 0.67604 0.0
C623 C 0.12019 0.71219 0.65207 0.0
C624 C 0.13531 0.70522 0.70175 0.0
C625 C 0.12807 0.72259 0.67819 0.0
C626 C 0.07221 0.65078 0.60059 0.0
C627 C 0.06068 0.62402 0.5836 0.0
N628 N 0.05664 0.61956 0.61614 0.0
C629 C 0.06787 0.64594 0.63383 0.0
C630 C 0.0685 0.63975 0.57521 0.0
C631 C 0.06001 0.6301 0.64118 0.0
C632 C 0.0645 0.68151 0.64608 0.0
N633 N 0.07915 0.68557 0.65548 0.0
C634 C 0.07286 0.68608 0.71339 0.0
C635 C 0.08355 0.68791 0.68837 0.0
C636 C 0.05754 0.68165 0.70433 0.0
C637 C 0.05351 0.67961 0.67009 0.0
H638 H 0.06123 0.67929 0.61982 0.0
H639 H 0.09513 0.6907 0.6954 0.0
C640 C 0.11102 0.65029 0.56726 0.0
N641 N 0.1054 0.65398 0.59474 0.0
C642 C 0.11222 0.63695 0.56707 0.0
C643 C 0.10267 0.63183 0.62429 0.0
C644 C 0.10167 0.64534 0.62336 0.0
C645 C 0.10768 0.62733 0.59556 0.0
H646 H 0.11436 0.65758 0.54522 0.0
H647 H 0.0975 0.6487 0.64511 0.0
C648 C 0.0911 0.70925 0.56288 0.0
N649 N 0.08097 0.72462 0.52126 0.0
C650 C 0.09959 0.71696 0.5342 0.0
C651 C 0.0775 0.70945 0.57051 0.0
C652 C 0.09427 0.72465 0.51345 0.0
C653 C 0.07255 0.71725 0.54911 0.0
C654 C 0.11031 0.68196 0.51427 0.0
C655 C 0.12033 0.6951 0.49552 0.0
C656 C 0.10096 0.66789 0.49773 0.0
C657 C 0.12074 0.69395 0.46051 0.0
C658 C 0.1017 0.66723 0.46268 0.0
N659 N 0.11149 0.68016 0.44496 0.0
C660 C 0.14588 0.71435 0.56659 0.0
C661 C 0.13577 0.73137 0.57065 0.0
C662 C 0.15945 0.72595 0.55185 0.0
N663 N 0.13416 0.71707 0.57416 0.0
C664 C 0.14911 0.7433 0.55569 0.0
C665 C 0.16085 0.74041 0.54464 0.0
H666 H 0.1442 0.70282 0.56972 0.0
H667 H 0.12628 0.73321 0.57717 0.0
C668 C 0.06064 0.66702 0.52698 0.0
N669 N 0.07568 0.67783 0.52092 0.0
C670 C 0.0495 0.66282 0.50177 0.0
C671 C 0.06937 0.68136 0.46472 0.0
C672 C 0.08014 0.68517 0.49065 0.0
C673 C 0.05386 0.66991 0.47003 0.0
H674 H 0.05726 0.66159 0.55143 0.0
H675 H 0.09206 0.69388 0.48635 0.0
O676 O 0.11234 0.6876 0.62576 0.0
O677 O 0.08008 0.66624 0.59291 0.0
O678 O 0.09608 0.70157 0.58339 0.0
O679 O 0.10982 0.68281 0.54862 0.0
H680 H 0.12748 0.6836 0.67557 0.0
H681 H 0.11433 0.71513 0.63309 0.0
H682 H 0.14125 0.70265 0.72128 0.0
H683 H 0.12835 0.73358 0.67932 0.0
H684 H 0.05782 0.61535 0.56425 0.0
H685 H 0.07067 0.65432 0.65381 0.0
H686 H 0.07169 0.6433 0.54934 0.0
H687 H 0.05666 0.62619 0.66682 0.0
H688 H 0.07638 0.68753 0.73955 0.0
H689 H 0.0419 0.67634 0.66191 0.0
H690 H 0.11653 0.63412 0.54471 0.0
H691 H 0.09907 0.62474 0.64679 0.0
H692 H 0.11 0.71675 0.52759 0.0
H693 H 0.07086 0.70372 0.59275 0.0
H694 H 0.10068 0.73055 0.49104 0.0
H695 H 0.06204 0.71747 0.55469 0.0
H696 H 0.12762 0.7061 0.50773 0.0
H697 H 0.09314 0.65761 0.51178 0.0
H698 H 0.1284 0.70404 0.44571 0.0
H699 H 0.09447 0.65644 0.44958 0.0
H700 H 0.16836 0.72334 0.54444 0.0
H701 H 0.14965 0.75423 0.55059 0.0
H702 H 0.0376 0.65414 0.50712 0.0
H703 H 0.07322 0.68706 0.44056 0.0
Li704 Li 0.43131 0.0994 0.76694 0.0
Li705 Li 0.40458 0.08969 0.78915 0.0
Li706 Li 0.4088 0.08726 0.73049 0.0
Li707 Li 0.41634 0.11248 0.75341 0.0
C708 C 0.40893 0.06329 0.75755 0.0
N709 N 0.39853 0.03397 0.73153 0.0
C710 C 0.39494 0.05078 0.76871 0.0
C711 C 0.41773 0.06084 0.73349 0.0
C712 C 0.38986 0.03605 0.75519 0.0
C713 C 0.41224 0.04595 0.72053 0.0
C714 C 0.4206 0.11828 0.82197 0.0
C715 C 0.40318 0.12602 0.84549 0.0
N716 N 0.41398 0.13451 0.86922 0.0
C717 C 0.43153 0.12708 0.84657 0.0
C718 C 0.4063 0.11773 0.82138 0.0
C719 C 0.42796 0.1352 0.87025 0.0
C720 C 0.46394 0.11658 0.76966 0.0
N721 N 0.45133 0.1023 0.77429 0.0
C722 C 0.46734 0.09091 0.77991 0.0
C723 C 0.45275 0.08963 0.78019 0.0
C724 C 0.48055 0.10538 0.77379 0.0
C725 C 0.4788 0.11842 0.76952 0.0
H726 H 0.46239 0.12639 0.76457 0.0
H727 H 0.4425 0.07842 0.78377 0.0
C728 C 0.37584 0.06968 0.81797 0.0
N729 N 0.39103 0.07937 0.82537 0.0
C730 C 0.36567 0.06008 0.84282 0.0
C731 C 0.38682 0.07128 0.88282 0.0
C732 C 0.39663 0.08054 0.85708 0.0
C733 C 0.37121 0.06061 0.87558 0.0
H734 H 0.37181 0.06891 0.79237 0.0
H735 H 0.40883 0.08824 0.86205 0.0
C736 C 0.43713 0.1101 0.69499 0.0
N737 N 0.45511 0.1171 0.63756 0.0
C738 C 0.43674 0.12006 0.67068 0.0
C739 C 0.44675 0.10377 0.6901 0.0
C740 C 0.44589 0.12343 0.64181 0.0
C741 C 0.45573 0.10744 0.6609 0.0
C742 C 0.38627 0.09617 0.72672 0.0
C743 C 0.39236 0.10169 0.69472 0.0
C744 C 0.3712 0.09276 0.73433 0.0
C745 C 0.38329 0.1038 0.67086 0.0
C746 C 0.36248 0.09503 0.70978 0.0
N747 N 0.36866 0.10046 0.67882 0.0
C748 C 0.38451 0.06212 0.69761 0.0
C749 C 0.40692 0.0752 0.66338 0.0
C750 C 0.37675 0.0512 0.67234 0.0
N751 N 0.39939 0.0737 0.69291 0.0
C752 C 0.39953 0.06467 0.63727 0.0
C753 C 0.38431 0.05241 0.64174 0.0
H754 H 0.37876 0.06127 0.72126 0.0
H755 H 0.41867 0.08442 0.65998 0.0
C756 C 0.43365 0.14308 0.73319 0.0
N757 N 0.41908 0.13222 0.74254 0.0
C758 C 0.43624 0.15661 0.71711 0.0
C759 C 0.40898 0.14808 0.72316 0.0
C760 C 0.40695 0.13475 0.73936 0.0
C761 C 0.42367 0.15891 0.71051 0.0
H762 H 0.44309 0.14076 0.73628 0.0
H763 H 0.39551 0.12604 0.74751 0.0
O764 O 0.41389 0.07787 0.76983 0.0
O765 O 0.42397 0.11025 0.79872 0.0
O766 O 0.42839 0.10684 0.72365 0.0
O767 O 0.39493 0.09404 0.75063 0.0
H768 H 0.38802 0.05242 0.78743 0.0
H769 H 0.42857 0.07037 0.72454 0.0
H770 H 0.37901 0.02629 0.76344 0.0
H771 H 0.41886 0.04393 0.70165 0.0
H772 H 0.39216 0.12569 0.84534 0.0
H773 H 0.44265 0.12761 0.84735 0.0
H774 H 0.39768 0.11097 0.80262 0.0
H775 H 0.43631 0.14205 0.88944 0.0
H776 H 0.46826 0.08062 0.78364 0.0
H777 H 0.48872 0.12974 0.76446 0.0
H778 H 0.3537 0.05206 0.83633 0.0
H779 H 0.39157 0.07189 0.90767 0.0
H780 H 0.42944 0.12513 0.67396 0.0
H781 H 0.44723 0.09603 0.70845 0.0
H782 H 0.44566 0.13109 0.6228 0.0
H783 H 0.46318 0.10258 0.65679 0.0
H784 H 0.40395 0.10429 0.68835 0.0
H785 H 0.36631 0.08848 0.75901 0.0
H786 H 0.38788 0.10809 0.64601 0.0
H787 H 0.3508 0.09248 0.71535 0.0
H788 H 0.36496 0.04196 0.6766 0.0
H789 H 0.40579 0.06589 0.61411 0.0
H790 H 0.44783 0.16482 0.70851 0.0
H791 H 0.39894 0.14932 0.71862 0.0
Li792 Li 0.33073 0.43383 0.92433 0.0
Li793 Li 0.31692 0.40925 0.95475 0.0
Li794 Li 0.32273 0.41007 0.8937 0.0
Li795 Li 0.3024 0.41526 0.91296 0.0
C796 C 0.35274 0.42703 0.9403 0.0
N797 N 0.38367 0.44517 0.95742 0.0
C798 C 0.35759 0.42713 0.97337 0.0
C799 C 0.36368 0.43602 0.91586 0.0
C800 C 0.37326 0.4364 0.98155 0.0
C801 C 0.37924 0.44516 0.92503 0.0
C802 C 0.30744 0.42919 0.98499 0.0
C803 C 0.28649 0.42462 0.02242 0.0
N804 N 0.29697 0.43447 0.04525 0.0
C805 C 0.31797 0.43948 0.00857 0.0
C806 C 0.29154 0.42187 0.99172 0.0
C807 C 0.31247 0.44191 0.03899 0.0
C808 C 0.34739 0.4639 0.89861 0.0
N809 N 0.3461 0.45528 0.92621 0.0
C810 C 0.36817 0.47683 0.95142 0.0
C811 C 0.35592 0.46153 0.95282 0.0
C812 C 0.37024 0.48574 0.92241 0.0
C813 C 0.35944 0.4792 0.89611 0.0
H814 H 0.33926 0.4588 0.8781 0.0
H815 H 0.35461 0.45448 0.97459 0.0
C816 C 0.31116 0.38298 0.99129 0.0
N817 N 0.31585 0.39828 0.99498 0.0
C818 C 0.31182 0.37443 0.01832 0.0
C819 C 0.32238 0.39753 0.0526 0.0
C820 C 0.32118 0.40558 0.02501 0.0
C821 C 0.31793 0.38177 0.04931 0.0
H822 H 0.30742 0.37751 0.96697 0.0
H823 H 0.3254 0.41785 0.02709 0.0
C824 C 0.3213 0.42785 0.84646 0.0
N825 N 0.32485 0.42784 0.77741 0.0
C826 C 0.3083 0.42139 0.82542 0.0
C827 C 0.33611 0.4345 0.83229 0.0
C828 C 0.31033 0.42146 0.7906 0.0
C829 C 0.33766 0.43432 0.79736 0.0
C830 C 0.28915 0.38311 0.92425 0.0
C831 C 0.28298 0.3704 0.90241 0.0
C832 C 0.28095 0.38263 0.95318 0.0
C833 C 0.26856 0.35748 0.90968 0.0
C834 C 0.26658 0.36951 0.9596 0.0
N835 N 0.26072 0.35731 0.93787 0.0
C836 C 0.34219 0.40219 0.85729 0.0
C837 C 0.31694 0.39236 0.83476 0.0
C838 C 0.3463 0.3959 0.83056 0.0
N839 N 0.3278 0.40051 0.8586 0.0
C840 C 0.32055 0.38586 0.80756 0.0
C841 C 0.33546 0.38773 0.80508 0.0
H842 H 0.3505 0.40847 0.87691 0.0
H843 H 0.30555 0.39115 0.8366 0.0
C844 C 0.28222 0.42689 0.90392 0.0
N845 N 0.28357 0.41406 0.89983 0.0
C846 C 0.27005 0.42774 0.88863 0.0
C847 C 0.26054 0.4019 0.86657 0.0
C848 C 0.2729 0.40158 0.88215 0.0
C849 C 0.25925 0.41528 0.86888 0.0
H850 H 0.29105 0.43675 0.91765 0.0
H851 H 0.27455 0.39179 0.87804 0.0
O852 O 0.3374 0.41812 0.9319 0.0
O853 O 0.31262 0.42687 0.95484 0.0
O854 O 0.31953 0.4276 0.8807 0.0
O855 O 0.30323 0.39587 0.91736 0.0
H856 H 0.34937 0.42015 0.99255 0.0
H857 H 0.36019 0.43607 0.89014 0.0
H858 H 0.37714 0.43663 0.00708 0.0
H859 H 0.38779 0.45226 0.9064 0.0
H860 H 0.27423 0.41897 0.02802 0.0
H861 H 0.33029 0.44541 0.00359 0.0
H862 H 0.28317 0.41427 0.97335 0.0
H863 H 0.32052 0.44972 0.05761 0.0
H864 H 0.37628 0.4814 0.97219 0.0
H865 H 0.36045 0.48577 0.87359 0.0
H866 H 0.308 0.36227 0.01456 0.0
H867 H 0.32748 0.40385 0.07565 0.0
H868 H 0.29676 0.41627 0.8358 0.0
H869 H 0.3463 0.43969 0.84808 0.0
H870 H 0.30037 0.4164 0.77407 0.0
H871 H 0.34906 0.43932 0.78612 0.0
H872 H 0.28923 0.37053 0.88002 0.0
H873 H 0.28573 0.39219 0.97073 0.0
H874 H 0.26361 0.34759 0.89292 0.0
H875 H 0.26011 0.36899 0.98193 0.0
H876 H 0.35783 0.39736 0.82993 0.0
H877 H 0.31188 0.37975 0.78834 0.0
H878 H 0.26941 0.43823 0.89118 0.0
H879 H 0.2527 0.39217 0.85101 0.0
Li880 Li 0.89629 0.33057 0.08846 0.0
Li881 Li 0.90803 0.31599 0.11607 0.0
Li882 Li 0.90936 0.31929 0.05466 0.0
Li883 Li 0.88495 0.30269 0.08105 0.0
C884 C 0.93224 0.34613 0.07661 0.0
N885 N 0.96018 0.36631 0.04634 0.0
C886 C 0.94609 0.34796 0.08968 0.0
C887 C 0.93261 0.35466 0.04832 0.0
C888 C 0.96009 0.35821 0.07398 0.0
C889 C 0.94685 0.36477 0.03332 0.0
C890 C 0.88006 0.3044 0.15077 0.0
C891 C 0.87172 0.28015 0.17943 0.0
N892 N 0.8664 0.28512 0.20539 0.0
C893 C 0.87448 0.30926 0.17765 0.0
C894 C 0.87865 0.28972 0.15159 0.0
C895 C 0.86762 0.29935 0.20507 0.0
C896 C 0.8783 0.34539 0.0949 0.0
N897 N 0.89292 0.34762 0.09332 0.0
C898 C 0.90379 0.37506 0.09666 0.0
C899 C 0.90555 0.36206 0.09473 0.0
C900 C 0.88885 0.37323 0.09765 0.0
C901 C 0.87598 0.35811 0.09702 0.0
H902 H 0.86846 0.33374 0.09431 0.0
H903 H 0.91703 0.36353 0.09407 0.0
C904 C 0.93116 0.31219 0.1449 0.0
N905 N 0.91993 0.3156 0.15268 0.0
C906 C 0.94194 0.31367 0.16908 0.0
C907 C 0.92917 0.32182 0.20923 0.0
C908 C 0.91858 0.32014 0.18417 0.0
C909 C 0.94127 0.31891 0.20153 0.0
H910 H 0.93214 0.30894 0.11942 0.0
H911 H 0.90971 0.32309 0.18944 0.0
C912 C 0.87813 0.31177 0.0227 0.0
N913 N 0.85392 0.2964 0.97783 0.0
C914 C 0.8774 0.29998 0.0023 0.0
C915 C 0.86667 0.31588 0.01995 0.0
C916 C 0.86503 0.29229 0.97989 0.0
C917 C 0.8545 0.30795 0.99717 0.0
C918 C 0.90505 0.28803 0.07375 0.0
C919 C 0.9061 0.28416 0.04038 0.0
C920 C 0.90544 0.27883 0.0999 0.0
C921 C 0.90745 0.27111 0.03374 0.0
C922 C 0.9068 0.26588 0.09222 0.0
N923 N 0.90776 0.26232 0.05957 0.0
C924 C 0.93582 0.32228 0.02278 0.0
C925 C 0.91852 0.32509 0.98626 0.0
C926 C 0.94618 0.3253 0.99637 0.0
N927 N 0.92242 0.32242 0.01732 0.0
C928 C 0.92838 0.32782 0.95897 0.0
C929 C 0.94245 0.3281 0.96407 0.0
H930 H 0.93853 0.32004 0.04779 0.0
H931 H 0.90788 0.32531 0.98278 0.0
C932 C 0.85255 0.28575 0.07367 0.0
N933 N 0.86544 0.28433 0.07333 0.0
C934 C 0.83877 0.27425 0.05919 0.0
C935 C 0.8514 0.25942 0.04747 0.0
C936 C 0.86491 0.27121 0.06193 0.0
C937 C 0.83829 0.26115 0.04465 0.0
H938 H 0.85332 0.29634 0.08282 0.0
H939 H 0.87519 0.27025 0.06186 0.0
O940 O 0.91837 0.33582 0.09104 0.0
O941 O 0.88696 0.31407 0.12397 0.0
O942 O 0.88992 0.31912 0.04552 0.0
O943 O 0.90377 0.3008 0.08086 0.0
H944 H 0.94603 0.3415 0.11162 0.0
H945 H 0.92197 0.35328 0.03776 0.0
H946 H 0.97089 0.3597 0.08374 0.0
H947 H 0.94729 0.37134 0.01124 0.0
H948 H 0.87055 0.26876 0.18039 0.0
H949 H 0.8755 0.32061 0.17737 0.0
H950 H 0.88279 0.28574 0.13093 0.0
H951 H 0.86329 0.30297 0.2261 0.0
H952 H 0.91407 0.38644 0.09661 0.0
H953 H 0.86427 0.35612 0.09825 0.0
H954 H 0.95098 0.31116 0.16216 0.0
H955 H 0.92835 0.32608 0.23379 0.0
H956 H 0.88615 0.29663 0.00413 0.0
H957 H 0.8671 0.32504 0.03536 0.0
H958 H 0.86422 0.28303 0.96424 0.0
H959 H 0.8455 0.31095 0.99493 0.0
H960 H 0.90582 0.29108 0.01977 0.0
H961 H 0.90471 0.28165 0.1259 0.0
H962 H 0.90824 0.26798 0.00803 0.0
H963 H 0.9071 0.25866 0.11221 0.0
H964 H 0.95694 0.32541 0.00106 0.0
H965 H 0.92527 0.33009 0.93436 0.0
H966 H 0.82886 0.27595 0.05792 0.0
H967 H 0.85163 0.24961 0.03638 0.0
Li968 Li 0.59166 0.91 0.284 0.0
Li969 Li 0.5649 0.89812 0.26056 0.0
Li970 Li 0.58137 0.88637 0.25107 0.0
Li971 Li 0.58749 0.91044 0.22421 0.0
C972 C 0.57678 0.88205 0.31993 0.0
N973 N 0.58401 0.86764 0.37041 0.0
C974 C 0.56543 0.87237 0.34293 0.0
C975 C 0.59181 0.88441 0.32258 0.0
C976 C 0.56932 0.86519 0.36829 0.0
C977 C 0.59523 0.87702 0.34828 0.0
C978 C 0.58608 0.93484 0.25035 0.0
C979 C 0.58349 0.95246 0.2128 0.0
N980 N 0.59573 0.96462 0.22819 0.0
C981 C 0.59853 0.94754 0.266 0.0
C982 C 0.57839 0.93733 0.22374 0.0
C983 C 0.60327 0.96249 0.25437 0.0
C984 C 0.61993 0.93092 0.31431 0.0
N985 N 0.6045 0.92175 0.32018 0.0
C986 C 0.60721 0.93225 0.37544 0.0
C987 C 0.59805 0.92202 0.35013 0.0
C988 C 0.6231 0.94235 0.36961 0.0
C989 C 0.6295 0.94138 0.33881 0.0
H990 H 0.62466 0.93056 0.29004 0.0
H991 H 0.58569 0.91469 0.35384 0.0
C992 C 0.53229 0.87961 0.26754 0.0
N993 N 0.54451 0.89433 0.26763 0.0
C994 C 0.51714 0.87698 0.26948 0.0
C995 C 0.52758 0.90472 0.2719 0.0
C996 C 0.54247 0.90678 0.27031 0.0
C997 C 0.51461 0.88966 0.27118 0.0
H998 H 0.53431 0.86994 0.26523 0.0
H999 H 0.5524 0.91836 0.27013 0.0
C1000 C 0.61103 0.9032 0.22409 0.0
N1001 N 0.62892 0.89834 0.17788 0.0
C1002 C 0.60456 0.89563 0.19369 0.0
C1003 C 0.62661 0.90829 0.23097 0.0
C1004 C 0.61378 0.89328 0.17067 0.0
C1005 C 0.63547 0.90573 0.20728 0.0
C1006 C 0.55964 0.88683 0.19027 0.0
C1007 C 0.55929 0.87637 0.16626 0.0
C1008 C 0.55084 0.89402 0.18504 0.0
C1009 C 0.55018 0.87334 0.13743 0.0
C1010 C 0.54187 0.89067 0.1559 0.0
N1011 N 0.54172 0.88049 0.13289 0.0
C1012 C 0.56769 0.85588 0.22892 0.0
C1013 C 0.59356 0.86587 0.24762 0.0
C1014 C 0.56764 0.84309 0.2145 0.0
N1015 N 0.58076 0.86726 0.24362 0.0
C1016 C 0.59396 0.85317 0.2339 0.0
C1017 C 0.58112 0.84191 0.21568 0.0
H1018 H 0.55766 0.85729 0.22632 0.0
H1019 H 0.60378 0.87506 0.25962 0.0
C1020 C 0.60954 0.93708 0.19022 0.0
N1021 N 0.5966 0.92309 0.18501 0.0
C1022 C 0.61673 0.94726 0.16343 0.0
C1023 C 0.5979 0.92799 0.12584 0.0
C1024 C 0.59088 0.91834 0.15346 0.0
C1025 C 0.61087 0.94282 0.1306 0.0
H1026 H 0.61421 0.9404 0.21536 0.0
H1027 H 0.581 0.90702 0.14939 0.0
O1028 O 0.5731 0.88912 0.29498 0.0
O1029 O 0.58138 0.92008 0.26122 0.0
O1030 O 0.60221 0.90549 0.24731 0.0
O1031 O 0.56849 0.88988 0.21873 0.0
H1032 H 0.55374 0.87042 0.34118 0.0
H1033 H 0.60076 0.89188 0.30506 0.0
H1034 H 0.56065 0.85766 0.38628 0.0
H1035 H 0.60681 0.87875 0.35063 0.0
H1036 H 0.57773 0.95453 0.19203 0.0
H1037 H 0.60452 0.94591 0.28687 0.0
H1038 H 0.56872 0.92771 0.21135 0.0
H1039 H 0.61294 0.97241 0.26616 0.0
H1040 H 0.60178 0.93276 0.39866 0.0
H1041 H 0.64171 0.94888 0.33343 0.0
H1042 H 0.50755 0.86517 0.2693 0.0
H1043 H 0.52629 0.91488 0.27249 0.0
H1044 H 0.59254 0.89154 0.18796 0.0
H1045 H 0.6318 0.9141 0.25445 0.0
H1046 H 0.6089 0.88741 0.1471 0.0
H1047 H 0.64754 0.9096 0.2123 0.0
H1048 H 0.56611 0.87078 0.16957 0.0
H1049 H 0.55089 0.90208 0.2032 0.0
H1050 H 0.54985 0.86532 0.11862 0.0
H1051 H 0.53501 0.89617 0.15159 0.0
H1052 H 0.55748 0.83484 0.20059 0.0
H1053 H 0.60448 0.85256 0.2362 0.0
H1054 H 0.62661 0.95857 0.16864 0.0
H1055 H 0.59322 0.92376 0.101 0.0
C1056 C 0.32544 0.3625 0.06941 0.0
C1057 C 0.32082 0.37342 0.07694 0.0
C1058 C 0.3293 0.35546 0.09506 0.0
C1059 C 0.3461 0.3634 0.17788 0.0
H1060 H 0.33122 0.31926 0.18299 0.0
C1061 C 0.36674 0.33868 0.28318 0.0
C1062 C 0.36933 0.32636 0.2755 0.0
C1063 C 0.35924 0.34335 0.26039 0.0
C1064 C 0.33565 0.33164 0.18167 0.0
H1065 H 0.31609 0.38496 0.1178 0.0
H1066 H 0.32348 0.37308 0.16252 0.0
H1067 H 0.32059 0.32915 0.14058 0.0
H1068 H 0.36575 0.30918 0.23756 0.0
H1069 H 0.35349 0.31794 0.19695 0.0
H1070 H 0.36171 0.36617 0.21751 0.0
C1071 C 0.32399 0.36999 0.13659 0.0
C1072 C 0.32946 0.33725 0.15757 0.0
C1073 C 0.31986 0.37685 0.11094 0.0
C1074 C 0.36416 0.31883 0.24426 0.0
C1075 C 0.35688 0.32371 0.22113 0.0
C1076 C 0.35248 0.35785 0.20155 0.0
C1077 C 0.32889 0.35936 0.12881 0.0
C1078 C 0.33465 0.35319 0.15549 0.0
C1079 C 0.35442 0.33612 0.22883 0.0
C1080 C 0.34735 0.34189 0.20381 0.0
H1081 H 0.32669 0.35977 0.04362 0.0
H1082 H 0.33325 0.34746 0.08841 0.0
H1083 H 0.35049 0.37577 0.17636 0.0
H1084 H 0.37079 0.34503 0.30659 0.0
H1085 H 0.35731 0.35273 0.2676 0.0
C1086 C 0.05378 0.37244 0.38993 0.0
C1087 C 0.04951 0.36964 0.42402 0.0
C1088 C 0.04268 0.36517 0.36466 0.0
C1089 C 0.00236 0.33326 0.34869 0.0
H1090 H 0.00427 0.35975 0.27513 0.0
C1091 C 0.95055 0.31901 0.26052 0.0
C1092 C 0.95384 0.32252 0.22617 0.0
C1093 C 0.96258 0.32333 0.28375 0.0
C1094 C 0.00368 0.35212 0.29523 0.0
H1095 H 0.0303 0.35684 0.45835 0.0
H1096 H 0.01094 0.34429 0.4144 0.0
H1097 H 0.02485 0.36969 0.31693 0.0
H1098 H 0.97234 0.33326 0.18931 0.0
H1099 H 0.99323 0.34055 0.22969 0.0
H1100 H 0.9809 0.31582 0.32723 0.0
C1101 C 0.0229 0.35186 0.40707 0.0
C1102 C 0.01551 0.35781 0.31918 0.0
C1103 C 0.03401 0.35906 0.4323 0.0
C1104 C 0.96938 0.33019 0.21551 0.0
C1105 C 0.98138 0.33453 0.23869 0.0
C1106 C 0.99046 0.32759 0.32476 0.0
C1107 C 0.02705 0.35502 0.37296 0.0
C1108 C 0.01495 0.3485 0.34634 0.0
C1109 C 0.97813 0.33133 0.27311 0.0
C1110 C 0.99096 0.337 0.2979 0.0
H1111 H 0.06569 0.38039 0.38281 0.0
H1112 H 0.04631 0.36764 0.33861 0.0
H1113 H 0.00167 0.32572 0.36907 0.0
H1114 H 0.93868 0.31302 0.26945 0.0
H1115 H 0.95972 0.3208 0.31017 0.0
C1116 C 0.63119 0.95138 0.42911 0.0
C1117 C 0.63263 0.95461 0.39443 0.0
C1118 C 0.63928 0.96326 0.45247 0.0
C1119 C 0.65561 0.00508 0.46183 0.0
H1120 H 0.67524 0.00023 0.54155 0.0
C1121 C 0.68456 0.05412 0.55961 0.0
C1122 C 0.68162 0.04961 0.59355 0.0
C1123 C 0.68086 0.04304 0.53431 0.0
C1124 C 0.66971 0.00173 0.51954 0.0
H1125 H 0.64383 0.97278 0.35704 0.0
H1126 H 0.65799 0.99348 0.3978 0.0
H1127 H 0.66438 0.97964 0.49932 0.0
H1128 H 0.67267 0.02999 0.62762 0.0
H1129 H 0.666 0.01069 0.58363 0.0
H1130 H 0.66039 0.02686 0.48232 0.0
C1131 C 0.65059 0.98177 0.40691 0.0
C1132 C 0.66353 0.98995 0.49535 0.0
C1133 C 0.6426 0.96989 0.38357 0.0
C1134 C 0.67529 0.03386 0.60173 0.0
C1135 C 0.67149 0.02278 0.57646 0.0
C1136 C 0.66168 0.0168 0.48609 0.0
C1137 C 0.64885 0.97863 0.44161 0.0
C1138 C 0.65629 0.99145 0.46639 0.0
C1139 C 0.67401 0.02719 0.54238 0.0
C1140 C 0.66866 0.01521 0.51543 0.0
H1141 H 0.62368 0.9397 0.43819 0.0
H1142 H 0.63763 0.96051 0.47907 0.0
H1143 H 0.6499 0.00648 0.44001 0.0
H1144 H 0.68959 0.0662 0.55261 0.0
H1145 H 0.68323 0.04689 0.50838 0.0
C1146 C 0.66006 0.62374 0.57874 0.0
C1147 C 0.67504 0.62566 0.5787 0.0
C1148 C 0.65645 0.6327 0.59977 0.0
C1149 C 0.66827 0.65557 0.67764 0.0
H1150 H 0.6419 0.67086 0.64357 0.0
C1151 C 0.64791 0.68894 0.76276 0.0
C1152 C 0.6319 0.68357 0.7613 0.0
C1153 C 0.65502 0.6845 0.73826 0.0
C1154 C 0.64924 0.66665 0.65348 0.0
H1155 H 0.69795 0.63847 0.60086 0.0
H1156 H 0.69161 0.65422 0.63778 0.0
H1157 H 0.65085 0.65774 0.60555 0.0
H1158 H 0.61094 0.66968 0.73227 0.0
H1159 H 0.62332 0.66209 0.68963 0.0
H1160 H 0.66632 0.66412 0.72578 0.0
C1161 C 0.68267 0.64569 0.62154 0.0
C1162 C 0.65435 0.65912 0.63173 0.0
C1163 C 0.68632 0.63675 0.60031 0.0
C1164 C 0.62333 0.67426 0.73394 0.0
C1165 C 0.63044 0.66987 0.70946 0.0
C1166 C 0.66314 0.6631 0.69944 0.0
C1167 C 0.66771 0.64382 0.62131 0.0
C1168 C 0.66363 0.65319 0.64372 0.0
C1169 C 0.64629 0.67465 0.71172 0.0
C1170 C 0.65329 0.66842 0.68775 0.0
H1171 H 0.65117 0.61549 0.56198 0.0
H1172 H 0.64476 0.63081 0.59933 0.0
H1173 H 0.67531 0.65104 0.68769 0.0
H1174 H 0.6549 0.69632 0.78322 0.0
H1175 H 0.66731 0.68857 0.7404 0.0
C1176 C 0.04887 0.68772 0.75901 0.0
C1177 C 0.04553 0.67831 0.7303 0.0
C1178 C 0.03744 0.68433 0.78335 0.0
C1179 C 0.99486 0.66192 0.79635 0.0
H1180 H 0.00551 0.66233 0.89038 0.0
C1181 C 0.94982 0.62684 0.8984 0.0
C1182 C 0.95181 0.63317 0.93088 0.0
C1183 C 0.96092 0.63465 0.87344 0.0
C1184 C 0.00238 0.66242 0.86429 0.0
H1185 H 0.02769 0.65774 0.70513 0.0
H1186 H 0.00788 0.65188 0.74733 0.0
H1187 H 0.02586 0.67184 0.84783 0.0
H1188 H 0.96657 0.65309 0.96203 0.0
H1189 H 0.986 0.66668 0.9184 0.0
H1190 H 0.97133 0.6521 0.81276 0.0
C1191 C 0.01918 0.66208 0.75074 0.0
C1192 C 0.01405 0.66787 0.83991 0.0
C1193 C 0.03056 0.66544 0.72653 0.0
C1194 C 0.96485 0.64777 0.93743 0.0
C1195 C 0.97597 0.65556 0.91246 0.0
C1196 C 0.9832 0.65646 0.82072 0.0
C1197 C 0.02246 0.67147 0.77943 0.0
C1198 C 0.01037 0.66736 0.8056 0.0
C1199 C 0.97427 0.64895 0.88038 0.0
C1200 C 0.98679 0.65635 0.85489 0.0
H1201 H 0.06025 0.69779 0.76249 0.0
H1202 H 0.04029 0.69184 0.8051 0.0
H1203 H 0.9917 0.66166 0.77017 0.0
H1204 H 0.94003 0.61553 0.89264 0.0
H1205 H 0.95937 0.62914 0.84911 0.0
C1206 C 0.36113 0.05382 0.93466 0.0
C1207 C 0.3612 0.04921 0.90129 0.0
C1208 C 0.35291 0.04277 0.95951 0.0
C1209 C 0.32393 0.00087 0.97312 0.0
H1210 H 0.34642 0.00757 0.05686 0.0
C1211 C 0.31474 0.95222 0.06632 0.0
C1212 C 0.31621 0.95572 0.10087 0.0
C1213 C 0.31724 0.9636 0.04252 0.0
C1214 C 0.33983 0.00562 0.03387 0.0
H1215 H 0.35248 0.02948 0.86756 0.0
H1216 H 0.33847 0.01021 0.91088 0.0
H1217 H 0.35638 0.02778 0.0144 0.0
H1218 H 0.32009 0.9734 0.13768 0.0
H1219 H 0.32451 0.99323 0.09619 0.0
H1220 H 0.30774 0.97833 0.99241 0.0
C1221 C 0.3444 0.02234 0.91789 0.0
C1222 C 0.34553 0.01725 0.00949 0.0
C1223 C 0.35247 0.03339 0.89301 0.0
C1224 C 0.31925 0.97048 0.11119 0.0
C1225 C 0.32175 0.98182 0.08747 0.0
C1226 C 0.31829 0.98915 0.99749 0.0
C1227 C 0.34477 0.02686 0.95159 0.0
C1228 C 0.33777 0.01497 0.97861 0.0
C1229 C 0.32124 0.97865 0.05289 0.0
C1230 C 0.32629 0.99136 0.02796 0.0
H1231 H 0.36761 0.06596 0.94162 0.0
H1232 H 0.35319 0.0467 0.98507 0.0
H1233 H 0.31753 0.99881 0.94984 0.0
H1234 H 0.31248 0.94097 0.05763 0.0
H1235 H 0.31685 0.96084 0.01602 0.0
C1236 C 0.60598 0.48926 0.46612 0.0
C1237 C 0.6137 0.4974 0.43691 0.0
C1238 C 0.59298 0.47442 0.46382 0.0
C1239 C 0.57142 0.44143 0.4043 0.0
H1240 H 0.53718 0.43116 0.46518 0.0
C1241 C 0.50871 0.39129 0.38213 0.0
C1242 C 0.50082 0.38203 0.41007 0.0
C1243 C 0.52331 0.40448 0.38605 0.0
C1244 C 0.54672 0.43379 0.44827 0.0
H1245 H 0.61388 0.49647 0.38241 0.0
H1246 H 0.59101 0.4708 0.37824 0.0
H1247 H 0.56105 0.45594 0.47093 0.0
H1248 H 0.50206 0.3792 0.46389 0.0
H1249 H 0.52756 0.40233 0.47076 0.0
H1250 H 0.55672 0.41941 0.38095 0.0
C1251 C 0.59518 0.47562 0.40303 0.0
C1252 C 0.56044 0.44798 0.4516 0.0
C1253 C 0.60827 0.49037 0.40538 0.0
C1254 C 0.50794 0.38605 0.44188 0.0
C1255 C 0.52245 0.39934 0.44586 0.0
C1256 C 0.55761 0.42731 0.40074 0.0
C1257 C 0.58731 0.46747 0.43221 0.0
C1258 C 0.57295 0.45203 0.42955 0.0
C1259 C 0.53021 0.40876 0.41804 0.0
C1260 C 0.54511 0.42339 0.4226 0.0
H1261 H 0.61004 0.49436 0.49077 0.0
H1262 H 0.58741 0.46839 0.48686 0.0
H1263 H 0.58089 0.44401 0.38725 0.0
H1264 H 0.50352 0.3884 0.35731 0.0
H1265 H 0.529 0.41159 0.36421 0.0
C1266 C 0.11408 0.50708 0.60061 0.0
C1267 C 0.10795 0.4981 0.57134 0.0
C1268 C 0.11442 0.52121 0.60417 0.0
C1269 C 0.09538 0.54226 0.57217 0.0
H1270 H 0.13063 0.5783 0.61152 0.0
C1271 C 0.10223 0.60298 0.56579 0.0
C1272 C 0.10767 0.61243 0.59457 0.0
C1273 C 0.10225 0.589 0.56434 0.0
C1274 C 0.12062 0.56827 0.60088 0.0
H1275 H 0.09793 0.49718 0.52234 0.0
H1276 H 0.09861 0.52187 0.52844 0.0
H1277 H 0.13112 0.55412 0.60566 0.0
H1278 H 0.11737 0.6146 0.64448 0.0
H1279 H 0.11727 0.58999 0.64206 0.0
H1280 H 0.08491 0.55638 0.5672 0.0
C1281 C 0.10286 0.51784 0.54895 0.0
C1282 C 0.12091 0.55444 0.59748 0.0
C1283 C 0.1025 0.50372 0.54541 0.0
C1284 C 0.11304 0.60752 0.62203 0.0
C1285 C 0.11311 0.59352 0.62052 0.0
C1286 C 0.0951 0.55607 0.57553 0.0
C1287 C 0.10865 0.52666 0.57853 0.0
C1288 C 0.10833 0.54132 0.58282 0.0
C1289 C 0.1077 0.58411 0.59164 0.0
C1290 C 0.10777 0.56927 0.58965 0.0
H1291 H 0.11818 0.50297 0.62124 0.0
H1292 H 0.1188 0.52764 0.62742 0.0
H1293 H 0.08536 0.53227 0.56145 0.0
H1294 H 0.09781 0.60633 0.54439 0.0
H1295 H 0.09816 0.58211 0.54159 0.0
C1296 C 0.50913 0.11833 0.7855 0.0
C1297 C 0.49588 0.10659 0.76945 0.0
C1298 C 0.52355 0.11935 0.78102 0.0
C1299 C 0.54105 0.09596 0.752 0.0
H1300 H 0.57879 0.13591 0.74662 0.0
C1301 C 0.59884 0.10191 0.70932 0.0
C1302 C 0.61153 0.11042 0.73091 0.0
C1303 C 0.58517 0.10239 0.71324 0.0
C1304 C 0.56833 0.12469 0.74823 0.0
H1305 H 0.48735 0.08709 0.7352 0.0
H1306 H 0.51243 0.08905 0.72661 0.0
H1307 H 0.55394 0.13477 0.75536 0.0
H1308 H 0.61986 0.12655 0.77293 0.0
H1309 H 0.59606 0.12768 0.77907 0.0
H1310 H 0.55542 0.08592 0.74414 0.0
C1311 C 0.51173 0.09718 0.74362 0.0
C1312 C 0.5541 0.12401 0.75342 0.0
C1313 C 0.49734 0.09606 0.74844 0.0
C1314 C 0.61042 0.11999 0.75556 0.0
C1315 C 0.59677 0.1206 0.75921 0.0
C1316 C 0.55521 0.09665 0.7464 0.0
C1317 C 0.52502 0.10875 0.76004 0.0
C1318 C 0.54026 0.10962 0.75525 0.0
C1319 C 0.58391 0.11155 0.73855 0.0
C1320 C 0.56897 0.11101 0.74436 0.0
H1321 H 0.5083 0.12657 0.80192 0.0
H1322 H 0.53348 0.12829 0.7944 0.0
H1323 H 0.53073 0.08466 0.75409 0.0
H1324 H 0.59939 0.0947 0.68957 0.0
H1325 H 0.57549 0.09549 0.69662 0.0
C1326 C 0.49292 0.60477 0.86697 0.0
C1327 C 0.49846 0.61555 0.89344 0.0
C1328 C 0.47821 0.59161 0.86875 0.0
C1329 C 0.4408 0.57359 0.91543 0.0
H1330 H 0.4384 0.53545 0.88492 0.0
C1331 C 0.38936 0.51205 0.94538 0.0
C1332 C 0.38406 0.50139 0.9186 0.0
C1333 C 0.40274 0.52657 0.94176 0.0
C1334 C 0.43883 0.54602 0.89323 0.0
H1335 H 0.49286 0.62129 0.94213 0.0
H1336 H 0.46724 0.59815 0.9456 0.0
H1337 H 0.46258 0.55985 0.879 0.0
H1338 H 0.38866 0.49755 0.86714 0.0
H1339 H 0.41188 0.52284 0.86082 0.0
H1340 H 0.41702 0.55953 0.93032 0.0
C1341 C 0.47411 0.59997 0.92315 0.0
C1342 C 0.45268 0.56004 0.88973 0.0
C1343 C 0.4888 0.61322 0.9212 0.0
C1344 C 0.39233 0.50558 0.88811 0.0
C1345 C 0.40572 0.52 0.88459 0.0
C1346 C 0.42693 0.55951 0.91915 0.0
C1347 C 0.46878 0.58884 0.89724 0.0
C1348 C 0.45384 0.57402 0.90063 0.0
C1349 C 0.41114 0.53061 0.91143 0.0
C1350 C 0.4258 0.5456 0.90794 0.0
H1351 H 0.50007 0.6064 0.84507 0.0
H1352 H 0.47432 0.58348 0.84796 0.0
H1353 H 0.44124 0.58415 0.92382 0.0
H1354 H 0.38316 0.50917 0.96909 0.0
H1355 H 0.40671 0.53449 0.96294 0.0
C1356 C 0.89738 0.40042 0.11642 0.0
C1357 C 0.8869 0.3871 0.09834 0.0
C1358 C 0.89662 0.41401 0.11436 0.0
C1359 C 0.87183 0.43024 0.0941 0.0
H1360 H 0.9106 0.46709 0.07108 0.0
C1361 C 0.87565 0.48898 0.06245 0.0
C1362 C 0.88906 0.50253 0.07287 0.0
C1363 C 0.87467 0.47451 0.06569 0.0
C1364 C 0.89971 0.457 0.07805 0.0
H1365 H 0.86696 0.37752 0.06499 0.0
H1366 H 0.86542 0.40124 0.06217 0.0
H1367 H 0.90987 0.44249 0.07815 0.0
H1368 H 0.91162 0.51159 0.09613 0.0
H1369 H 0.90977 0.48646 0.10281 0.0
H1370 H 0.86172 0.44482 0.09483 0.0
C1371 C 0.87427 0.40108 0.07775 0.0
C1372 C 0.8993 0.44289 0.08195 0.0
C1373 C 0.87514 0.3875 0.07948 0.0
C1374 C 0.90128 0.50134 0.08729 0.0
C1375 C 0.90022 0.48692 0.09096 0.0
C1376 C 0.87227 0.44445 0.09065 0.0
C1377 C 0.88524 0.41455 0.09455 0.0
C1378 C 0.8854 0.4294 0.09018 0.0
C1379 C 0.88699 0.47331 0.07984 0.0
C1380 C 0.88626 0.45804 0.08277 0.0
H1381 H 0.90634 0.40044 0.13189 0.0
H1382 H 0.90505 0.42417 0.12805 0.0
H1383 H 0.86097 0.41999 0.10057 0.0
H1384 H 0.86609 0.48961 0.05114 0.0
H1385 H 0.86438 0.46433 0.0565 0.0
C1386 C 0.38551 0.87465 0.22452 0.0
C1387 C 0.38558 0.88853 0.23113 0.0
C1388 C 0.39899 0.87377 0.22915 0.0
C1389 C 0.44175 0.8992 0.23988 0.0
H1390 H 0.43972 0.86135 0.2713 0.0
C1391 C 0.49525 0.89763 0.28799 0.0
C1392 C 0.49865 0.88739 0.27051 0.0
C1393 C 0.48087 0.89668 0.28429 0.0
C1394 C 0.44039 0.87195 0.26241 0.0
H1395 H 0.39943 0.91212 0.249 0.0
H1396 H 0.42267 0.9105 0.25841 0.0
H1397 H 0.41573 0.86197 0.2624 0.0
H1398 H 0.48914 0.86764 0.23652 0.0
H1399 H 0.46379 0.86567 0.23124 0.0
H1400 H 0.46643 0.90927 0.2411 0.0
C1401 C 0.41254 0.90044 0.24829 0.0
C1402 C 0.42668 0.87232 0.25708 0.0
C1403 C 0.3992 0.90138 0.24309 0.0
C1404 C 0.48694 0.87562 0.2507 0.0
C1405 C 0.47243 0.87451 0.24749 0.0
C1406 C 0.45539 0.8989 0.24582 0.0
C1407 C 0.41271 0.88669 0.24105 0.0
C1408 C 0.42719 0.88599 0.2459 0.0
C1409 C 0.46944 0.88528 0.26359 0.0
C1410 C 0.45484 0.88532 0.25726 0.0
H1411 H 0.37512 0.86459 0.21526 0.0
H1412 H 0.39869 0.86305 0.2229 0.0
H1413 H 0.44267 0.90981 0.23036 0.0
H1414 H 0.50379 0.90658 0.30417 0.0
H1415 H 0.47872 0.90498 0.29731 0.0
C1416 C 0.32944 0.36656 0.76323 0.0
C1417 C 0.33978 0.3814 0.77589 0.0
C1418 C 0.33361 0.36063 0.7358 0.0
C1419 C 0.36058 0.37268 0.66384 0.0
H1420 H 0.35193 0.33015 0.66594 0.0
C1421 C 0.37317 0.34467 0.55032 0.0
C1422 C 0.38043 0.33599 0.55747 0.0
C1423 C 0.36715 0.34955 0.57626 0.0
C1424 C 0.35446 0.34206 0.66506 0.0
H1425 H 0.36246 0.40178 0.76936 0.0
H1426 H 0.36984 0.39134 0.72191 0.0
H1427 H 0.34368 0.3402 0.7128 0.0
H1428 H 0.38669 0.32528 0.59734 0.0
H1429 H 0.37641 0.33403 0.64273 0.0
H1430 H 0.37171 0.3747 0.61657 0.0
C1431 C 0.35847 0.38433 0.733 0.0
C1432 C 0.3496 0.34776 0.69171 0.0
C1433 C 0.35432 0.39023 0.76043 0.0
C1434 C 0.38131 0.33209 0.59107 0.0
C1435 C 0.37526 0.33695 0.61702 0.0
C1436 C 0.36541 0.36698 0.63719 0.0
C1437 C 0.34817 0.36946 0.72041 0.0
C1438 C 0.35273 0.36318 0.69151 0.0
C1439 C 0.36824 0.34584 0.60992 0.0
C1440 C 0.36251 0.35164 0.63762 0.0
H1441 H 0.31819 0.35944 0.77478 0.0
H1442 H 0.32538 0.34918 0.72648 0.0
H1443 H 0.36301 0.38456 0.66279 0.0
H1444 H 0.37244 0.348 0.52472 0.0
H1445 H 0.36166 0.35625 0.56997 0.0
C1446 C 0.94869 0.32314 0.90612 0.0
C1447 C 0.95342 0.3318 0.93597 0.0
C1448 C 0.95903 0.32691 0.87927 0.0
C1449 C 0.00109 0.35073 0.85755 0.0
H1450 H 0.98501 0.34575 0.76677 0.0
C1451 C 0.04179 0.36764 0.74307 0.0
C1452 C 0.03854 0.37439 0.71562 0.0
C1453 C 0.031 0.36072 0.769 0.0
C1454 C 0.98976 0.3474 0.79194 0.0
H1455 H 0.97241 0.35122 0.96143 0.0
H1456 H 0.99029 0.35835 0.91418 0.0
H1457 H 0.96728 0.33767 0.81406 0.0
H1458 H 0.02166 0.37932 0.69335 0.0
H1459 H 0.00308 0.36799 0.73928 0.0
H1460 H 0.02365 0.36147 0.83562 0.0
C1461 C 0.97885 0.34827 0.91164 0.0
C1462 C 0.97952 0.34247 0.81917 0.0
C1463 C 0.96861 0.34428 0.93868 0.0
C1464 C 0.02431 0.37402 0.71423 0.0
C1465 C 0.01364 0.36742 0.74048 0.0
C1466 C 0.01135 0.35594 0.83037 0.0
C1467 C 0.97421 0.33963 0.88152 0.0
C1468 C 0.98505 0.34418 0.85239 0.0
C1469 C 0.01688 0.36076 0.76837 0.0
C1470 C 0.00585 0.35445 0.79718 0.0
H1471 H 0.93702 0.31338 0.90368 0.0
H1472 H 0.9551 0.31978 0.85685 0.0
H1473 H 0.00581 0.35196 0.88265 0.0
H1474 H 0.05269 0.36771 0.7444 0.0
H1475 H 0.03379 0.35541 0.78956 0.0
C1476 C 0.6089 0.95346 0.0745 0.0
C1477 C 0.61809 0.95358 0.10159 0.0
C1478 C 0.61557 0.9636 0.04742 0.0
C1479 C 0.64611 0.00145 0.02565 0.0
H1480 H 0.64069 0.98636 0.93381 0.0
C1481 C 0.67186 0.04392 0.91428 0.0
C1482 C 0.66313 0.04005 0.88453 0.0
C1483 C 0.66774 0.03304 0.94013 0.0
C1484 C 0.64214 0.99082 0.95922 0.0
H1485 H 0.64168 0.96449 0.12077 0.0
H1486 H 0.6531 0.98274 0.07414 0.0
H1487 H 0.63055 0.96793 0.98034 0.0
H1488 H 0.6433 0.02198 0.85817 0.0
H1489 H 0.63557 0.00318 0.90374 0.0
H1490 H 0.65686 0.02427 0.00499 0.0
C1491 C 0.64075 0.97459 0.07403 0.0
C1492 C 0.63644 0.98023 0.98581 0.0
C1493 C 0.63415 0.96421 0.10083 0.0
C1494 C 0.65028 0.02513 0.88084 0.0
C1495 C 0.64595 0.01435 0.90693 0.0
C1496 C 0.65153 0.01205 0.99907 0.0
C1497 C 0.6315 0.97432 0.04713 0.0
C1498 C 0.63831 0.98548 0.01917 0.0
C1499 C 0.65458 0.01817 0.93704 0.0
C1500 C 0.64953 0.00689 0.96543 0.0
H1501 H 0.59647 0.94575 0.0744 0.0
H1502 H 0.60821 0.96335 0.02707 0.0
H1503 H 0.64753 0.00573 0.05125 0.0
H1504 H 0.68191 0.05535 0.91746 0.0
H1505 H 0.67489 0.03633 0.96251 0.0
C1506 C 0.60756 0.63472 0.06104 0.0
C1507 C 0.61639 0.64974 0.04786 0.0
C1508 C 0.61307 0.62996 0.08815 0.0
C1509 C 0.64844 0.63991 0.13785 0.0
H1510 H 0.61835 0.61532 0.20639 0.0
C1511 C 0.66511 0.62764 0.2695 0.0
C1512 C 0.65647 0.61227 0.28112 0.0
C1513 C 0.6607 0.63224 0.24024 0.0
C1514 C 0.62686 0.62207 0.18732 0.0
H1515 H 0.63802 0.67149 0.05214 0.0
H1516 H 0.64758 0.66331 0.10003 0.0
H1517 H 0.60993 0.62323 0.15646 0.0
H1518 H 0.63668 0.58958 0.27043 0.0
H1519 H 0.62884 0.59771 0.21987 0.0
H1520 H 0.66541 0.63894 0.16937 0.0
C1521 C 0.63651 0.65509 0.08906 0.0
C1522 C 0.62204 0.62656 0.15862 0.0
C1523 C 0.63104 0.65979 0.06168 0.0
C1524 C 0.64339 0.6016 0.26267 0.0
C1525 C 0.63893 0.60622 0.23362 0.0
C1526 C 0.65329 0.63551 0.16676 0.0
C1527 C 0.62748 0.64019 0.10294 0.0
C1528 C 0.63274 0.63546 0.13342 0.0
C1529 C 0.64751 0.62159 0.22216 0.0
C1530 C 0.64252 0.62648 0.19168 0.0
H1531 H 0.59632 0.62667 0.05048 0.0
H1532 H 0.60598 0.61828 0.09765 0.0
H1533 H 0.65696 0.64661 0.11878 0.0
H1534 H 0.67513 0.63621 0.2833 0.0
H1535 H 0.66743 0.6442 0.23214 0.0
C1536 C 0.0419 0.67612 0.42115 0.0
C1537 C 0.04232 0.66508 0.44247 0.0
C1538 C 0.03102 0.67144 0.3951 0.0
C1539 C 0.99372 0.63819 0.36689 0.0
H1540 H 0.00624 0.65749 0.27898 0.0
C1541 C 0.95743 0.61082 0.24789 0.0
C1542 C 0.95548 0.62061 0.22541 0.0
C1543 C 0.96778 0.61699 0.27475 0.0
C1544 C 0.00254 0.65212 0.30351 0.0
H1545 H 0.03194 0.64049 0.45276 0.0
H1546 H 0.0131 0.63232 0.40729 0.0
H1547 H 0.02482 0.66695 0.3254 0.0
H1548 H 0.9629 0.64461 0.21364 0.0
H1549 H 0.98119 0.65539 0.26047 0.0
H1550 H 0.97155 0.62317 0.34483 0.0
C1551 C 0.0209 0.64461 0.41109 0.0
C1552 C 0.01316 0.65755 0.3301 0.0
C1553 C 0.03171 0.64928 0.43714 0.0
C1554 C 0.96426 0.63675 0.23026 0.0
C1555 C 0.9747 0.64293 0.25709 0.0
C1556 C 0.98315 0.63273 0.3403 0.0
C1557 C 0.0204 0.65562 0.38981 0.0
C1558 C 0.00892 0.65051 0.36199 0.0
C1559 C 0.9765 0.6331 0.27968 0.0
C1560 C 0.9875 0.63952 0.30825 0.0
H1561 H 0.04983 0.68839 0.42488 0.0
H1562 H 0.03082 0.68022 0.37939 0.0
H1563 H 0.98998 0.63272 0.39131 0.0
H1564 H 0.95112 0.59836 0.24448 0.0
H1565 H 0.96914 0.60914 0.2914 0.0
C1566 C 0.35237 0.96439 0.40716 0.0
C1567 C 0.33735 0.95702 0.39353 0.0
C1568 C 0.35584 0.97366 0.4358 0.0
C1569 C 0.34406 0.9976 0.48219 0.0
H1570 H 0.36834 0.99419 0.55458 0.0
C1571 C 0.37721 0.04543 0.58124 0.0
C1572 C 0.37656 0.04075 0.61484 0.0
C1573 C 0.37063 0.03442 0.55561 0.0
C1574 C 0.36143 0.99517 0.53472 0.0
H1575 H 0.31419 0.95358 0.39897 0.0
H1576 H 0.32032 0.96999 0.44908 0.0
H1577 H 0.36024 0.97609 0.5073 0.0
H1578 H 0.3684 0.02093 0.64811 0.0
H1579 H 0.35696 0.00163 0.60315 0.0
H1580 H 0.34552 0.01689 0.50934 0.0
C1581 C 0.32936 0.96851 0.43758 0.0
C1582 C 0.35691 0.98492 0.50758 0.0
C1583 C 0.32584 0.95907 0.40912 0.0
C1584 C 0.36897 0.02484 0.62243 0.0
C1585 C 0.36253 0.01383 0.59674 0.0
C1586 C 0.34873 0.00798 0.50918 0.0
C1587 C 0.3444 0.97588 0.45118 0.0
C1588 C 0.34832 0.98613 0.48091 0.0
C1589 C 0.36342 0.01852 0.56306 0.0
C1590 C 0.35757 0.00694 0.53555 0.0
H1591 H 0.36143 0.9629 0.39577 0.0
H1592 H 0.36757 0.97933 0.44558 0.0
H1593 H 0.33752 0.99884 0.46184 0.0
H1594 H 0.38291 0.05763 0.57478 0.0
H1595 H 0.37159 0.03836 0.52983 0.0
C1596 C 0.40971 0.24512 0.51395 0.0
C1597 C 0.41817 0.24851 0.48377 0.0
C1598 C 0.41133 0.23614 0.53877 0.0
C1599 C 0.42362 0.20744 0.55266 0.0
H1600 H 0.42649 0.22006 0.64606 0.0
C1601 C 0.43468 0.17482 0.65833 0.0
C1602 C 0.42549 0.17145 0.68742 0.0
C1603 C 0.43511 0.18529 0.63444 0.0
C1604 C 0.42558 0.21632 0.62014 0.0
H1605 H 0.43489 0.24507 0.45584 0.0
H1606 H 0.43778 0.22932 0.49942 0.0
H1607 H 0.42442 0.23592 0.60181 0.0
H1608 H 0.41004 0.17697 0.71483 0.0
H1609 H 0.41051 0.19503 0.67271 0.0
H1610 H 0.42453 0.18773 0.57091 0.0
C1611 C 0.4298 0.23355 0.50368 0.0
C1612 C 0.42439 0.2254 0.5948 0.0
C1613 C 0.42822 0.24262 0.47884 0.0
C1614 C 0.41712 0.1792 0.69256 0.0
C1615 C 0.41751 0.18966 0.66856 0.0
C1616 C 0.42476 0.19835 0.57799 0.0
C1617 C 0.42147 0.23034 0.53404 0.0
C1618 C 0.42329 0.221 0.56081 0.0
C1619 C 0.42629 0.19259 0.63892 0.0
C1620 C 0.42567 0.20263 0.61204 0.0
H1621 H 0.40209 0.24974 0.51879 0.0
H1622 H 0.40462 0.23372 0.56171 0.0
H1623 H 0.42259 0.20365 0.52674 0.0
H1624 H 0.44111 0.16891 0.65324 0.0
H1625 H 0.44217 0.18747 0.61215 0.0
C1626 C 0.23277 0.4041 0.84322 0.0
C1627 C 0.2478 0.41676 0.84771 0.0
C1628 C 0.22273 0.40483 0.81971 0.0
C1629 C 0.22372 0.42481 0.7413 0.0
H1630 H 0.17961 0.40676 0.757 0.0
C1631 C 0.18228 0.43049 0.64761 0.0
C1632 C 0.1674 0.41749 0.64361 0.0
C1633 C 0.19243 0.43049 0.6719 0.0
C1634 C 0.19188 0.41169 0.7521 0.0
H1635 H 0.26391 0.44031 0.83179 0.0
H1636 H 0.24627 0.44169 0.7913 0.0
H1637 H 0.19629 0.40718 0.80239 0.0
H1638 H 0.1517 0.39416 0.66146 0.0
H1639 H 0.16955 0.39402 0.70304 0.0
H1640 H 0.2193 0.42925 0.69094 0.0
C1641 C 0.24233 0.43112 0.80565 0.0
C1642 C 0.20143 0.41196 0.77813 0.0
C1643 C 0.25235 0.4304 0.8292 0.0
C1644 C 0.16314 0.40429 0.66354 0.0
C1645 C 0.17328 0.4043 0.68777 0.0
C1646 C 0.21416 0.42453 0.71524 0.0
C1647 C 0.22754 0.41823 0.80014 0.0
C1648 C 0.21744 0.41848 0.77298 0.0
C1649 C 0.1879 0.4175 0.69271 0.0
C1650 C 0.19813 0.41789 0.72031 0.0
H1651 H 0.22891 0.39347 0.85731 0.0
H1652 H 0.21144 0.39467 0.81594 0.0
H1653 H 0.23598 0.42969 0.73637 0.0
H1654 H 0.18594 0.44079 0.63246 0.0
H1655 H 0.20361 0.44086 0.67516 0.0
C1656 C 0.82007 0.23437 0.02305 0.0
C1657 C 0.82508 0.2503 0.02317 0.0
C1658 C 0.80942 0.22457 0.99905 0.0
C1659 C 0.79553 0.22598 0.91381 0.0
H1660 H 0.76508 0.18311 0.93254 0.0
C1661 C 0.75077 0.18415 0.81586 0.0
C1662 C 0.7484 0.16901 0.81507 0.0
C1663 C 0.76005 0.19459 0.84084 0.0
C1664 C 0.77362 0.19503 0.9269 0.0
H1665 H 0.82234 0.26831 0.99898 0.0
H1666 H 0.80337 0.25112 0.95784 0.0
H1667 H 0.78019 0.20017 0.97863 0.0
H1668 H 0.7541 0.15302 0.83952 0.0
H1669 H 0.77041 0.17126 0.88272 0.0
H1670 H 0.78888 0.22077 0.86202 0.0
C1671 C 0.80791 0.24626 0.9759 0.0
C1672 C 0.78227 0.20481 0.9533 0.0
C1673 C 0.8186 0.25607 -0.00016 0.0
C1674 C 0.75585 0.16466 0.83915 0.0
C1675 C 0.76502 0.17504 0.86419 0.0
C1676 C 0.7868 0.21621 0.88743 0.0
C1677 C 0.80349 0.23047 0.97468 0.0
C1678 C 0.79346 0.22036 0.94704 0.0
C1679 C 0.76699 0.19001 0.86567 0.0
C1680 C 0.7759 0.20059 0.89366 0.0
H1681 H 0.82474 0.22955 0.04088 0.0
H1682 H 0.80636 0.2125 0.99875 0.0
H1683 H 0.80423 0.23782 0.90798 0.0
H1684 H 0.74521 0.18783 0.79755 0.0
H1685 H 0.76135 0.20606 0.8414 0.0
C1686 C 0.56928 0.81535 0.18944 0.0
C1687 C 0.58229 0.8301 0.19488 0.0
C1688 C 0.56987 0.80513 0.16617 0.0
C1689 C 0.59235 0.80531 0.09145 0.0
H1690 H 0.56934 0.76071 0.10346 0.0
C1691 C 0.59973 0.76196 0.00731 0.0
C1692 C 0.58607 0.74866 0.99691 0.0
C1693 C 0.5991 0.77225 0.03031 0.0
C1694 C 0.5757 0.77315 0.09968 0.0
H1695 H 0.60635 0.84534 0.18075 0.0
H1696 H 0.6076 0.82726 0.1418 0.0
H1697 H 0.56911 0.7775 0.14791 0.0
H1698 H 0.56106 0.73578 0.00189 0.0
H1699 H 0.55997 0.75375 0.04234 0.0
H1700 H 0.59923 0.80087 0.04351 0.0
C1701 C 0.59677 0.82375 0.15472 0.0
C1702 C 0.57556 0.78278 0.1251 0.0
C1703 C 0.59613 0.83404 0.17766 0.0
C1704 C 0.57174 0.74603 0.00925 0.0
C1705 C 0.57113 0.7562 0.03261 0.0
C1706 C 0.59264 0.79568 0.06624 0.0
C1707 C 0.58355 0.80933 0.14802 0.0
C1708 C 0.58388 0.799 0.12132 0.0
C1709 C 0.58482 0.76929 0.04368 0.0
C1710 C 0.58429 0.77951 0.07008 0.0
H1711 H 0.5585 0.81181 0.20259 0.0
H1712 H 0.55943 0.79415 0.1616 0.0
H1713 H 0.59861 0.81772 0.08724 0.0
H1714 H 0.61092 0.76424 0.9981 0.0
H1715 H 0.60983 0.78222 0.03854 0.0
C1716 C 0.7417 0.56446 0.32655 0.0
C1717 C 0.74687 0.57786 0.34635 0.0
C1718 C 0.75163 0.56336 0.30329 0.0
C1719 C 0.79263 0.57926 0.28121 0.0
H1720 H 0.7776 0.56835 0.18953 0.0
C1721 C 0.83433 0.59079 0.17141 0.0
C1722 C 0.82971 0.57985 0.14523 0.0
C1723 C 0.82381 0.58958 0.19605 0.0
C1724 C 0.78192 0.57117 0.21508 0.0
H1725 H 0.7666 0.60032 0.35836 0.0
H1726 H 0.78404 0.59832 0.31797 0.0
H1727 H 0.76011 0.56741 0.23369 0.0
H1728 H 0.81026 0.55911 0.12432 0.0
H1729 H 0.79194 0.55673 0.16801 0.0
H1730 H 0.81438 0.58294 0.26291 0.0
C1731 C 0.7723 0.58871 0.32037 0.0
C1732 C 0.7719 0.57065 0.24035 0.0
C1733 C 0.76231 0.58989 0.34332 0.0
C1734 C 0.81422 0.5677 0.14421 0.0
C1735 C 0.80369 0.56642 0.1691 0.0
C1736 C 0.8026 0.57964 0.25606 0.0
C1737 C 0.76697 0.57555 0.29972 0.0
C1738 C 0.77723 0.57492 0.27354 0.0
C1739 C 0.80842 0.57727 0.1955 0.0
C1740 C 0.79745 0.57586 0.22255 0.0
H1741 H 0.7298 0.55508 0.32815 0.0
H1742 H 0.74727 0.55305 0.28783 0.0
H1743 H 0.79697 0.5824 0.3067 0.0
H1744 H 0.84622 0.60013 0.17352 0.0
H1745 H 0.82781 0.59832 0.21561 0.0
C1746 C 0.17754 0.74609 0.49353 0.0
C1747 C 0.17333 0.75157 0.522 0.0
C1748 C 0.18784 0.7564 0.46977 0.0
C1749 C 0.21714 0.7975 0.45491 0.0
H1750 H 0.20539 0.78671 0.36139 0.0
C1751 C 0.246 0.84154 0.34748 0.0
C1752 C 0.24993 0.83638 0.31813 0.0
C1753 C 0.23685 0.83104 0.37233 0.0
C1754 C 0.20893 0.78981 0.38735 0.0
H1755 H 0.1772 0.77226 0.54844 0.0
H1756 H 0.19501 0.79031 0.50651 0.0
H1757 H 0.1897 0.7688 0.40571 0.0
H1758 H 0.2471 0.8161 0.2916 0.0
H1759 H 0.23115 0.79769 0.33524 0.0
H1760 H 0.23629 0.81859 0.43646 0.0
C1761 C 0.19041 0.778 0.50279 0.0
C1762 C 0.19996 0.77954 0.41277 0.0
C1763 C 0.1801 0.76766 0.52667 0.0
C1764 C 0.2443 0.82042 0.31397 0.0
C1765 C 0.23509 0.80989 0.33885 0.0
C1766 C 0.2261 0.80778 0.42947 0.0
C1767 C 0.19413 0.77246 0.47373 0.0
C1768 C 0.20394 0.78328 0.44684 0.0
C1769 C 0.23141 0.81512 0.36846 0.0
C1770 C 0.22205 0.80407 0.39542 0.0
H1771 H 0.17239 0.73378 0.48878 0.0
H1772 H 0.19065 0.75177 0.44793 0.0
H1773 H 0.22062 0.80063 0.48089 0.0
H1774 H 0.25036 0.85378 0.35175 0.0
H1775 H 0.23405 0.83541 0.39464 0.0
loop_
_geom_bond_atom_site_label_1
_geom_bond_atom_site_label_2
_geom_bond_distance
_geom_bond_site_symmetry_2
_ccdc_geom_bond_type
Li0 N17 1.990 . S
Li0 O60 1.956 . S
Li0 O61 1.970 . S
Li0 O62 1.961 . S
Li1 N25 1.990 . S
Li1 O60 1.970 . S
Li1 O61 1.956 . S
Li1 O63 1.961 . S
Li2 N47 1.990 . S
Li2 O60 1.961 . S
Li2 O62 1.956 . S
Li2 O63 1.970 . S
Li3 N53 1.990 . S
Li3 O61 1.961 . S
Li3 O62 1.970 . S
Li3 O63 1.956 . S
C4 C6 1.348 . S
C4 C7 1.356 . S
C4 O60 1.325 . S
N5 C8 1.314 . S
N5 C9 1.279 . S
C6 C4 1.348 . S
C6 C8 1.353 . S
C6 H64 0.929 . S
C7 C4 1.356 . S
C7 C9 1.358 . S
C7 H65 0.930 . S
C8 N5 1.314 . S
C8 C6 1.353 . S
C8 H66 0.930 . S
C9 N5 1.279 . S
C9 C7 1.358 . S
C9 H67 0.930 . S
C10 C13 1.348 . S
C10 C14 1.356 . S
C10 O61 1.325 . S
C11 N12 1.279 . S
C11 C14 1.358 . S
C11 H68 0.930 . S
N12 C11 1.279 . S
N12 C15 1.314 . S
C13 C10 1.348 . S
C13 C15 1.353 . S
C13 H69 0.929 . S
C14 C10 1.356 . S
C14 C11 1.358 . S
C14 H70 0.930 . S
C15 N12 1.314 . S
C15 C13 1.353 . S
C15 H71 0.930 . S
C16 N17 1.314 . S
C16 C21 1.353 . S
C16 H22 0.930 . S
N17 Li0 1.990 . S
N17 C16 1.314 . S
N17 C19 1.279 . S
C18 C19 1.358 . S
C18 C20 1.356 . S
C18 H72 0.930 . S
C19 N17 1.279 . S
C19 C18 1.358 . S
C19 H23 0.930 . S
C20 C18 1.356 . S
C20 C21 1.348 . S
C21 C16 1.353 . S
C21 C20 1.348 . S
C21 H73 0.929 . S
H22 C16 0.930 . S
H23 C19 0.930 . S
C24 N25 1.314 . S
C24 C26 1.353 . S
C24 H30 0.930 . S
N25 Li1 1.990 . S
N25 C24 1.314 . S
N25 C28 1.279 . S
C26 C24 1.353 . S
C26 C29 1.348 . S
C26 H74 0.929 . S
C27 C28 1.358 . S
C27 C29 1.356 . S
C27 H75 0.930 . S
C28 N25 1.279 . S
C28 C27 1.358 . S
C28 H31 0.930 . S
C29 C26 1.348 . S
C29 C27 1.356 . S
H30 C24 0.930 . S
H31 C28 0.930 . S
C32 C34 1.348 . S
C32 C35 1.356 . S
C32 O62 1.325 . S
N33 C36 1.314 . S
N33 C37 1.279 . S
C34 C32 1.348 . S
C34 C36 1.353 . S
C34 H76 0.929 . S
C35 C32 1.356 . S
C35 C37 1.358 . S
C35 H77 0.930 . S
C36 N33 1.314 . S
C36 C34 1.353 . S
C36 H78 0.930 . S
C37 N33 1.279 . S
C37 C35 1.358 . S
C37 H79 0.930 . S
C38 C39 1.348 . S
C38 C40 1.356 . S
C38 O63 1.325 . S
C39 C38 1.348 . S
C39 C41 1.353 . S
C39 H80 0.929 . S
C40 C38 1.356 . S
C40 C42 1.358 . S
C40 H81 0.930 . S
C41 C39 1.353 . S
C41 N43 1.314 . S
C41 H82 0.930 . S
C42 C40 1.358 . S
C42 N43 1.279 . S
C42 H83 0.930 . S
N43 C41 1.314 . S
N43 C42 1.279 . S
C44 C46 1.353 . S
C44 N47 1.314 . S
C44 H50 0.930 . S
C45 N47 1.279 . S
C45 C48 1.358 . S
C45 H51 0.930 . S
C46 C44 1.353 . S
C46 C49 1.348 . S
C46 H84 0.929 . S
N47 Li2 1.990 . S
N47 C44 1.314 . S
N47 C45 1.279 . S
C48 C45 1.358 . S
C48 C49 1.356 . S
C48 H85 0.930 . S
C49 C46 1.348 . S
C49 C48 1.356 . S
H50 C44 0.930 . S
H51 C45 0.930 . S
C52 N53 1.314 . S
C52 C54 1.353 . S
C52 H58 0.930 . S
N53 Li3 1.990 . S
N53 C52 1.314 . S
N53 C56 1.279 . S
C54 C52 1.353 . S
C54 C57 1.348 . S
C54 H86 0.929 . S
C55 C56 1.358 . S
C55 C57 1.356 . S
C55 H87 0.930 . S
C56 N53 1.279 . S
C56 C55 1.358 . S
C56 H59 0.930 . S
C57 C54 1.348 . S
C57 C55 1.356 . S
H58 C52 0.930 . S
H59 C56 0.930 . S
O60 Li0 1.956 . S
O60 Li1 1.970 . S
O60 Li2 1.961 . S
O60 C4 1.325 . S
O61 Li0 1.970 . S
O61 Li1 1.956 . S
O61 Li3 1.961 . S
O61 C10 1.325 . S
O62 Li0 1.961 . S
O62 Li2 1.956 . S
O62 Li3 1.970 . S
O62 C32 1.325 . S
O63 Li1 1.961 . S
O63 Li2 1.970 . S
O63 Li3 1.956 . S
O63 C38 1.325 . S
H64 C6 0.929 . S
H65 C7 0.930 . S
H66 C8 0.930 . S
H67 C9 0.930 . S
H68 C11 0.930 . S
H69 C13 0.929 . S
H70 C14 0.930 . S
H71 C15 0.930 . S
H72 C18 0.930 . S
H73 C21 0.929 . S
H74 C26 0.929 . S
H75 C27 0.930 . S
H76 C34 0.929 . S
H77 C35 0.930 . S
H78 C36 0.930 . S
H79 C37 0.930 . S
H80 C39 0.929 . S
H81 C40 0.930 . S
H82 C41 0.930 . S
H83 C42 0.930 . S
H84 C46 0.929 . S
H85 C48 0.930 . S
H86 C54 0.929 . S
H87 C55 0.930 . S
Li88 N105 1.990 . S
Li88 O148 1.956 . S
Li88 O149 1.970 . S
Li88 O150 1.961 . S
Li89 N113 1.990 . S
Li89 O148 1.970 . S
Li89 O149 1.956 . S
Li89 O151 1.961 . S
Li90 N135 1.990 . S
Li90 O148 1.961 . S
Li90 O150 1.956 . S
Li90 O151 1.970 . S
Li91 N141 1.990 . S
Li91 O149 1.961 . S
Li91 O150 1.970 . S
Li91 O151 1.956 . S
C92 C94 1.348 . S
C92 C95 1.356 . S
C92 O148 1.325 . S
N93 C96 1.314 . S
N93 C97 1.279 . S
C94 C92 1.348 . S
C94 C96 1.353 . S
C94 H152 0.929 . S
C95 C92 1.356 . S
C95 C97 1.358 . S
C95 H153 0.930 . S
C96 N93 1.314 . S
C96 C94 1.353 . S
C96 H154 0.930 . S
C97 N93 1.279 . S
C97 C95 1.358 . S
C97 H155 0.930 . S
C98 C101 1.348 . S
C98 C102 1.356 . S
C98 O149 1.325 . S
C99 N100 1.279 . S
C99 C102 1.358 . S
C99 H156 0.930 . S
N100 C99 1.279 . S
N100 C103 1.314 . S
C101 C98 1.348 . S
C101 C103 1.353 . S
C101 H157 0.929 . S
C102 C98 1.356 . S
C102 C99 1.358 . S
C102 H158 0.930 . S
C103 N100 1.314 . S
C103 C101 1.353 . S
C103 H159 0.930 . S
C104 N105 1.314 . S
C104 C109 1.353 . S
C104 H110 0.930 . S
N105 Li88 1.990 . S
N105 C104 1.314 . S
N105 C107 1.279 . S
C106 C107 1.358 . S
C106 C108 1.356 . S
C106 H160 0.930 . S
C107 N105 1.279 . S
C107 C106 1.358 . S
C107 H111 0.930 . S
C108 C106 1.356 . S
C108 C109 1.348 . S
C109 C104 1.353 . S
C109 C108 1.348 . S
C109 H161 0.929 . S
H110 C104 0.930 . S
H111 C107 0.930 . S
C112 N113 1.314 . S
C112 C114 1.353 . S
C112 H118 0.930 . S
N113 Li89 1.990 . S
N113 C112 1.314 . S
N113 C116 1.279 . S
C114 C112 1.353 . S
C114 C117 1.348 . S
C114 H162 0.929 . S
C115 C116 1.358 . S
C115 C117 1.356 . S
C115 H163 0.930 . S
C116 N113 1.279 . S
C116 C115 1.358 . S
C116 H119 0.930 . S
C117 C114 1.348 . S
C117 C115 1.356 . S
H118 C112 0.930 . S
H119 C116 0.930 . S
C120 C122 1.348 . S
C120 C123 1.356 . S
C120 O150 1.325 . S
N121 C124 1.314 . S
N121 C125 1.279 . S
C122 C120 1.348 . S
C122 C124 1.353 . S
C122 H164 0.929 . S
C123 C120 1.356 . S
C123 C125 1.358 . S
C123 H165 0.930 . S
C124 N121 1.314 . S
C124 C122 1.353 . S
C124 H166 0.930 . S
C125 N121 1.279 . S
C125 C123 1.358 . S
C125 H167 0.930 . S
C126 C127 1.348 . S
C126 C128 1.356 . S
C126 O151 1.325 . S
C127 C126 1.348 . S
C127 C129 1.353 . S
C127 H168 0.929 . S
C128 C126 1.356 . S
C128 C130 1.358 . S
C128 H169 0.930 . S
C129 C127 1.353 . S
C129 N131 1.314 . S
C129 H170 0.930 . S
C130 C128 1.358 . S
C130 N131 1.279 . S
C130 H171 0.930 . S
N131 C129 1.314 . S
N131 C130 1.279 . S
C132 C134 1.353 . S
C132 N135 1.314 . S
C132 H138 0.930 . S
C133 N135 1.279 . S
C133 C136 1.358 . S
C133 H139 0.930 . S
C134 C132 1.353 . S
C134 C137 1.348 . S
C134 H172 0.929 . S
N135 Li90 1.990 . S
N135 C132 1.314 . S
N135 C133 1.279 . S
C136 C133 1.358 . S
C136 C137 1.356 . S
C136 H173 0.930 . S
C137 C134 1.348 . S
C137 C136 1.356 . S
H138 C132 0.930 . S
H139 C133 0.930 . S
C140 N141 1.314 . S
C140 C142 1.353 . S
C140 H146 0.930 . S
N141 Li91 1.990 . S
N141 C140 1.314 . S
N141 C144 1.279 . S
C142 C140 1.353 . S
C142 C145 1.348 . S
C142 H174 0.929 . S
C143 C144 1.358 . S
C143 C145 1.356 . S
C143 H175 0.930 . S
C144 N141 1.279 . S
C144 C143 1.358 . S
C144 H147 0.930 . S
C145 C142 1.348 . S
C145 C143 1.356 . S
H146 C140 0.930 . S
H147 C144 0.930 . S
O148 Li88 1.956 . S
O148 Li89 1.970 . S
O148 Li90 1.961 . S
O148 C92 1.325 . S
O149 Li88 1.970 . S
O149 Li89 1.956 . S
O149 Li91 1.961 . S
O149 C98 1.325 . S
O150 Li88 1.961 . S
O150 Li90 1.956 . S
O150 Li91 1.970 . S
O150 C120 1.325 . S
O151 Li89 1.961 . S
O151 Li90 1.970 . S
O151 Li91 1.956 . S
O151 C126 1.325 . S
H152 C94 0.929 . S
H153 C95 0.930 . S
H154 C96 0.930 . S
H155 C97 0.930 . S
H156 C99 0.930 . S
H157 C101 0.929 . S
H158 C102 0.930 . S
H159 C103 0.930 . S
H160 C106 0.930 . S
H161 C109 0.929 . S
H162 C114 0.929 . S
H163 C115 0.930 . S
H164 C122 0.929 . S
H165 C123 0.930 . S
H166 C124 0.930 . S
H167 C125 0.930 . S
H168 C127 0.929 . S
H169 C128 0.930 . S
H170 C129 0.930 . S
H171 C130 0.930 . S
H172 C134 0.929 . S
H173 C136 0.930 . S
H174 C142 0.929 . S
H175 C143 0.930 . S
Li176 N193 1.990 . S
Li176 O236 1.956 . S
Li176 O237 1.970 . S
Li176 O238 1.961 . S
Li177 N201 1.990 . S
Li177 O236 1.970 . S
Li177 O237 1.956 . S
Li177 O239 1.961 . S
Li178 N223 1.990 . S
Li178 O236 1.961 . S
Li178 O238 1.956 . S
Li178 O239 1.970 . S
Li179 N229 1.990 . S
Li179 O237 1.961 . S
Li179 O238 1.970 . S
Li179 O239 1.956 . S
C180 C182 1.348 . S
C180 C183 1.356 . S
C180 O236 1.325 . S
N181 C184 1.314 . S
N181 C185 1.279 . S
C182 C180 1.348 . S
C182 C184 1.353 . S
C182 H240 0.929 . S
C183 C180 1.356 . S
C183 C185 1.358 . S
C183 H241 0.930 . S
C184 N181 1.314 . S
C184 C182 1.353 . S
C184 H242 0.930 . S
C185 N181 1.279 . S
C185 C183 1.358 . S
C185 H243 0.930 . S
C186 C189 1.348 . S
C186 C190 1.356 . S
C186 O237 1.325 . S
C187 N188 1.279 . S
C187 C190 1.358 . S
C187 H244 0.930 . S
N188 C187 1.279 . S
N188 C191 1.314 . S
C189 C186 1.348 . S
C189 C191 1.353 . S
C189 H245 0.929 . S
C190 C186 1.356 . S
C190 C187 1.358 . S
C190 H246 0.930 . S
C191 N188 1.314 . S
C191 C189 1.353 . S
C191 H247 0.930 . S
C192 N193 1.314 . S
C192 C197 1.353 . S
C192 H198 0.930 . S
N193 Li176 1.990 . S
N193 C192 1.314 . S
N193 C195 1.279 . S
C194 C195 1.358 . S
C194 C196 1.356 . S
C194 H248 0.930 . S
C195 N193 1.279 . S
C195 C194 1.358 . S
C195 H199 0.930 . S
C196 C194 1.356 . S
C196 C197 1.348 . S
C197 C192 1.353 . S
C197 C196 1.348 . S
C197 H249 0.929 . S
H198 C192 0.930 . S
H199 C195 0.930 . S
C200 N201 1.314 . S
C200 C202 1.353 . S
C200 H206 0.930 . S
N201 Li177 1.990 . S
N201 C200 1.314 . S
N201 C204 1.279 . S
C202 C200 1.353 . S
C202 C205 1.348 . S
C202 H250 0.929 . S
C203 C204 1.358 . S
C203 C205 1.356 . S
C203 H251 0.930 . S
C204 N201 1.279 . S
C204 C203 1.358 . S
C204 H207 0.930 . S
C205 C202 1.348 . S
C205 C203 1.356 . S
H206 C200 0.930 . S
H207 C204 0.930 . S
C208 C210 1.348 . S
C208 C211 1.356 . S
C208 O238 1.325 . S
N209 C212 1.314 . S
N209 C213 1.279 . S
C210 C208 1.348 . S
C210 C212 1.353 . S
C210 H252 0.929 . S
C211 C208 1.356 . S
C211 C213 1.358 . S
C211 H253 0.930 . S
C212 N209 1.314 . S
C212 C210 1.353 . S
C212 H254 0.930 . S
C213 N209 1.279 . S
C213 C211 1.358 . S
C213 H255 0.930 . S
C214 C215 1.348 . S
C214 C216 1.356 . S
C214 O239 1.325 . S
C215 C214 1.348 . S
C215 C217 1.353 . S
C215 H256 0.929 . S
C216 C214 1.356 . S
C216 C218 1.358 . S
C216 H257 0.930 . S
C217 C215 1.353 . S
C217 N219 1.314 . S
C217 H258 0.930 . S
C218 C216 1.358 . S
C218 N219 1.279 . S
C218 H259 0.930 . S
N219 C217 1.314 . S
N219 C218 1.279 . S
C220 C222 1.353 . S
C220 N223 1.314 . S
C220 H226 0.930 . S
C221 N223 1.279 . S
C221 C224 1.358 . S
C221 H227 0.930 . S
C222 C220 1.353 . S
C222 C225 1.348 . S
C222 H260 0.929 . S
N223 Li178 1.990 . S
N223 C220 1.314 . S
N223 C221 1.279 . S
C224 C221 1.358 . S
C224 C225 1.356 . S
C224 H261 0.930 . S
C225 C222 1.348 . S
C225 C224 1.356 . S
H226 C220 0.930 . S
H227 C221 0.930 . S
C228 N229 1.314 . S
C228 C230 1.353 . S
C228 H234 0.930 . S
N229 Li179 1.990 . S
N229 C228 1.314 . S
N229 C232 1.279 . S
C230 C228 1.353 . S
C230 C233 1.348 . S
C230 H262 0.929 . S
C231 C232 1.358 . S
C231 C233 1.356 . S
C231 H263 0.930 . S
C232 N229 1.279 . S
C232 C231 1.358 . S
C232 H235 0.930 . S
C233 C230 1.348 . S
C233 C231 1.356 . S
H234 C228 0.930 . S
H235 C232 0.930 . S
O236 Li176 1.956 . S
O236 Li177 1.970 . S
O236 Li178 1.961 . S
O236 C180 1.325 . S
O237 Li176 1.970 . S
O237 Li177 1.956 . S
O237 Li179 1.961 . S
O237 C186 1.325 . S
O238 Li176 1.961 . S
O238 Li178 1.956 . S
O238 Li179 1.970 . S
O238 C208 1.325 . S
O239 Li177 1.961 . S
O239 Li178 1.970 . S
O239 Li179 1.956 . S
O239 C214 1.325 . S
H240 C182 0.929 . S
H241 C183 0.930 . S
H242 C184 0.930 . S
H243 C185 0.930 . S
H244 C187 0.930 . S
H245 C189 0.929 . S
H246 C190 0.930 . S
H247 C191 0.930 . S
H248 C194 0.930 . S
H249 C197 0.929 . S
H250 C202 0.929 . S
H251 C203 0.930 . S
H252 C210 0.929 . S
H253 C211 0.930 . S
H254 C212 0.930 . S
H255 C213 0.930 . S
H256 C215 0.929 . S
H257 C216 0.930 . S
H258 C217 0.930 . S
H259 C218 0.930 . S
H260 C222 0.929 . S
H261 C224 0.930 . S
H262 C230 0.929 . S
H263 C231 0.930 . S
Li264 N281 1.975 1_556 S
Li264 O324 1.956 . S
Li264 O325 1.970 . S
Li264 O326 1.961 . S
Li265 N289 1.990 . S
Li265 O324 1.970 . S
Li265 O325 1.956 . S
Li265 O327 1.961 . S
Li266 N311 1.990 . S
Li266 O324 1.961 . S
Li266 O326 1.956 . S
Li266 O327 1.970 . S
Li267 N317 1.990 . S
Li267 O325 1.961 . S
Li267 O326 1.970 . S
Li267 O327 1.956 . S
C268 C270 1.348 1_556 S
C268 C271 1.356 1_556 S
C268 O324 1.325 . S
N269 C272 1.314 . S
N269 C273 1.279 . S
C270 C268 1.348 1_554 S
C270 C272 1.353 . S
C270 H328 0.929 . S
C271 C268 1.356 1_554 S
C271 C273 1.358 . S
C271 H329 0.930 . S
C272 N269 1.314 . S
C272 C270 1.353 . S
C272 H330 0.930 . S
C273 N269 1.279 . S
C273 C271 1.358 . S
C273 H331 0.930 . S
C274 C277 1.348 . S
C274 C278 1.356 . S
C274 O325 1.325 . S
C275 N276 1.279 . S
C275 C278 1.358 . S
C275 H332 0.930 . S
N276 C275 1.279 . S
N276 C279 1.314 . S
C277 C274 1.348 . S
C277 C279 1.353 . S
C277 H333 0.929 . S
C278 C274 1.356 . S
C278 C275 1.358 . S
C278 H334 0.930 . S
C279 N276 1.314 . S
C279 C277 1.353 . S
C279 H335 0.930 . S
C280 N281 1.311 1_556 S
C280 C285 1.353 1_556 S
C280 H286 0.930 . S
N281 Li264 1.975 1_554 S
N281 C280 1.311 1_554 S
N281 C283 1.299 . S
C282 C283 1.358 . S
C282 C284 1.356 . S
C282 H336 0.930 . S
C283 N281 1.299 . S
C283 C282 1.358 . S
C283 H287 0.930 . S
C284 C282 1.356 . S
C284 C285 1.348 . S
C285 C280 1.353 1_554 S
C285 C284 1.348 . S
C285 H337 0.929 . S
H286 C280 0.930 . S
H287 C283 0.930 . S
C288 N289 1.314 . S
C288 C290 1.353 . S
C288 H294 0.930 . S
N289 Li265 1.990 . S
N289 C288 1.314 . S
N289 C292 1.279 . S
C290 C288 1.353 . S
C290 C293 1.348 . S
C290 H338 0.929 . S
C291 C292 1.358 . S
C291 C293 1.356 . S
C291 H339 0.930 . S
C292 N289 1.279 . S
C292 C291 1.358 . S
C292 H295 0.930 . S
C293 C290 1.348 . S
C293 C291 1.356 . S
H294 C288 0.930 . S
H295 C292 0.930 . S
C296 C298 1.348 . S
C296 C299 1.356 . S
C296 O326 1.325 . S
N297 C300 1.314 . S
N297 C301 1.279 . S
C298 C296 1.348 . S
C298 C300 1.353 . S
C298 H340 0.929 . S
C299 C296 1.356 . S
C299 C301 1.358 . S
C299 H341 0.930 . S
C300 N297 1.314 . S
C300 C298 1.353 . S
C300 H342 0.930 . S
C301 N297 1.279 . S
C301 C299 1.358 . S
C301 H343 0.930 . S
C302 C303 1.348 . S
C302 C304 1.356 . S
C302 O327 1.325 . S
C303 C302 1.348 . S
C303 C305 1.353 . S
C303 H344 0.929 . S
C304 C302 1.356 . S
C304 C306 1.358 . S
C304 H345 0.930 . S
C305 C303 1.353 . S
C305 N307 1.314 . S
C305 H346 0.930 . S
C306 C304 1.358 . S
C306 N307 1.279 . S
C306 H347 0.930 . S
N307 C305 1.314 . S
N307 C306 1.279 . S
C308 C310 1.353 . S
C308 N311 1.314 . S
C308 H314 0.930 . S
C309 N311 1.279 . S
C309 C312 1.358 . S
C309 H315 0.930 . S
C310 C308 1.353 . S
C310 C313 1.348 . S
C310 H348 0.929 . S
N311 Li266 1.990 . S
N311 C308 1.314 . S
N311 C309 1.279 . S
C312 C309 1.358 . S
C312 C313 1.356 . S
C312 H349 0.930 . S
C313 C310 1.348 . S
C313 C312 1.356 . S
H314 C308 0.930 . S
H315 C309 0.930 . S
C316 N317 1.314 . S
C316 C318 1.353 . S
C316 H322 0.930 . S
N317 Li267 1.990 . S
N317 C316 1.314 . S
N317 C320 1.279 . S
C318 C316 1.353 . S
C318 C321 1.348 . S
C318 H350 0.929 . S
C319 C320 1.358 . S
C319 C321 1.356 . S
C319 H351 0.930 . S
C320 N317 1.279 . S
C320 C319 1.358 . S
C320 H323 0.930 . S
C321 C318 1.348 . S
C321 C319 1.356 . S
H322 C316 0.930 . S
H323 C320 0.930 . S
O324 Li264 1.956 . S
O324 Li265 1.970 . S
O324 Li266 1.961 . S
O324 C268 1.325 . S
O325 Li264 1.970 . S
O325 Li265 1.956 . S
O325 Li267 1.961 . S
O325 C274 1.325 . S
O326 Li264 1.961 . S
O326 Li266 1.956 . S
O326 Li267 1.970 . S
O326 C296 1.325 . S
O327 Li265 1.961 . S
O327 Li266 1.970 . S
O327 Li267 1.956 . S
O327 C302 1.325 . S
H328 C270 0.929 . S
H329 C271 0.930 . S
H330 C272 0.930 . S
H331 C273 0.930 . S
H332 C275 0.930 . S
H333 C277 0.929 . S
H334 C278 0.930 . S
H335 C279 0.930 . S
H336 C282 0.930 . S
H337 C285 0.929 . S
H338 C290 0.929 . S
H339 C291 0.930 . S
H340 C298 0.929 . S
H341 C299 0.930 . S
H342 C300 0.930 . S
H343 C301 0.930 . S
H344 C303 0.929 . S
H345 C304 0.930 . S
H346 C305 0.930 . S
H347 C306 0.930 . S
H348 C310 0.929 . S
H349 C312 0.930 . S
H350 C318 0.929 . S
H351 C319 0.930 . S
Li352 N369 1.990 . S
Li352 O412 1.956 . S
Li352 O413 1.970 . S
Li352 O414 1.961 . S
Li353 N377 1.990 . S
Li353 O412 1.970 . S
Li353 O413 1.956 . S
Li353 O415 1.961 . S
Li354 N399 1.990 . S
Li354 O412 1.961 . S
Li354 O414 1.956 . S
Li354 O415 1.970 . S
Li355 N405 1.990 . S
Li355 O413 1.961 . S
Li355 O414 1.970 . S
Li355 O415 1.956 . S
C356 C358 1.348 . S
C356 C359 1.356 . S
C356 O412 1.325 . S
N357 C360 1.314 . S
N357 C361 1.279 . S
C358 C356 1.348 . S
C358 C360 1.353 . S
C358 H416 0.929 . S
C359 C356 1.356 . S
C359 C361 1.358 . S
C359 H417 0.930 . S
C360 N357 1.314 . S
C360 C358 1.353 . S
C360 H418 0.930 . S
C361 N357 1.279 . S
C361 C359 1.358 . S
C361 H419 0.930 . S
C362 C365 1.348 . S
C362 C366 1.356 . S
C362 O413 1.325 . S
C363 N364 1.279 . S
C363 C366 1.358 . S
C363 H420 0.930 . S
N364 C363 1.279 . S
N364 C367 1.314 . S
C365 C362 1.348 . S
C365 C367 1.353 . S
C365 H421 0.929 . S
C366 C362 1.356 . S
C366 C363 1.358 . S
C366 H422 0.930 . S
C367 N364 1.314 . S
C367 C365 1.353 . S
C367 H423 0.930 . S
C368 N369 1.314 . S
C368 C373 1.353 . S
C368 H374 0.930 . S
N369 Li352 1.990 . S
N369 C368 1.314 . S
N369 C371 1.279 . S
C370 C371 1.358 . S
C370 C372 1.356 . S
C370 H424 0.930 . S
C371 N369 1.279 . S
C371 C370 1.358 . S
C371 H375 0.930 . S
C372 C370 1.356 . S
C372 C373 1.348 . S
C373 C368 1.353 . S
C373 C372 1.348 . S
C373 H425 0.929 . S
H374 C368 0.930 . S
H375 C371 0.930 . S
C376 N377 1.314 . S
C376 C378 1.353 . S
C376 H382 0.930 . S
N377 Li353 1.990 . S
N377 C376 1.314 . S
N377 C380 1.279 . S
C378 C376 1.353 . S
C378 C381 1.348 . S
C378 H426 0.929 . S
C379 C380 1.358 . S
C379 C381 1.356 . S
C379 H427 0.930 . S
C380 N377 1.279 . S
C380 C379 1.358 . S
C380 H383 0.930 . S
C381 C378 1.348 . S
C381 C379 1.356 . S
H382 C376 0.930 . S
H383 C380 0.930 . S
C384 C386 1.348 . S
C384 C387 1.356 . S
C384 O414 1.325 . S
N385 C388 1.314 . S
N385 C389 1.279 . S
C386 C384 1.348 . S
C386 C388 1.353 . S
C386 H428 0.929 . S
C387 C384 1.356 . S
C387 C389 1.358 . S
C387 H429 0.930 . S
C388 N385 1.314 . S
C388 C386 1.353 . S
C388 H430 0.930 . S
C389 N385 1.279 . S
C389 C387 1.358 . S
C389 H431 0.930 . S
C390 C391 1.348 . S
C390 C392 1.356 . S
C390 O415 1.325 . S
C391 C390 1.348 . S
C391 C393 1.353 1_554 S
C391 H432 0.929 . S
C392 C390 1.356 . S
C392 C394 1.358 1_554 S
C392 H433 0.930 . S
C393 C391 1.353 1_556 S
C393 N395 1.314 . S
C393 H434 0.930 . S
C394 C392 1.358 1_556 S
C394 N395 1.279 . S
C394 H435 0.930 . S
N395 C393 1.314 . S
N395 C394 1.279 . S
C396 C398 1.353 . S
C396 N399 1.314 . S
C396 H402 0.930 . S
C397 N399 1.279 . S
C397 C400 1.358 . S
C397 H403 0.930 . S
C398 C396 1.353 . S
C398 C401 1.348 . S
C398 H436 0.929 . S
N399 Li354 1.990 . S
N399 C396 1.314 . S
N399 C397 1.279 . S
C400 C397 1.358 . S
C400 C401 1.356 . S
C400 H437 0.930 . S
C401 C398 1.348 . S
C401 C400 1.356 . S
H402 C396 0.930 . S
H403 C397 0.930 . S
C404 N405 1.314 . S
C404 C406 1.353 1_554 S
C404 H410 0.930 . S
N405 Li355 1.990 . S
N405 C404 1.314 . S
N405 C408 1.279 1_554 S
C406 C404 1.353 1_556 S
C406 C409 1.348 . S
C406 H438 0.929 . S
C407 C408 1.358 . S
C407 C409 1.356 . S
C407 H439 0.930 . S
C408 N405 1.279 1_556 S
C408 C407 1.358 . S
C408 H411 0.930 . S
C409 C406 1.348 . S
C409 C407 1.356 . S
H410 C404 0.930 . S
H411 C408 0.930 . S
O412 Li352 1.956 . S
O412 Li353 1.970 . S
O412 Li354 1.961 . S
O412 C356 1.325 . S
O413 Li352 1.970 . S
O413 Li353 1.956 . S
O413 Li355 1.961 . S
O413 C362 1.325 . S
O414 Li352 1.961 . S
O414 Li354 1.956 . S
O414 Li355 1.970 . S
O414 C384 1.325 . S
O415 Li353 1.961 . S
O415 Li354 1.970 . S
O415 Li355 1.956 . S
O415 C390 1.325 . S
H416 C358 0.929 . S
H417 C359 0.930 . S
H418 C360 0.930 . S
H419 C361 0.930 . S
H420 C363 0.930 . S
H421 C365 0.929 . S
H422 C366 0.930 . S
H423 C367 0.930 . S
H424 C370 0.930 . S
H425 C373 0.929 . S
H426 C378 0.929 . S
H427 C379 0.930 . S
H428 C386 0.929 . S
H429 C387 0.930 . S
H430 C388 0.930 . S
H431 C389 0.930 . S
H432 C391 0.929 . S
H433 C392 0.930 . S
H434 C393 0.930 . S
H435 C394 0.930 . S
H436 C398 0.929 . S
H437 C400 0.930 . S
H438 C406 0.929 . S
H439 C407 0.930 . S
Li440 N457 1.990 . S
Li440 O500 1.956 . S
Li440 O501 1.970 . S
Li440 O502 1.961 . S
Li441 N465 1.990 . S
Li441 O500 1.970 . S
Li441 O501 1.956 . S
Li441 O503 1.961 . S
Li442 N487 1.990 . S
Li442 O500 1.961 . S
Li442 O502 1.956 . S
Li442 O503 1.970 . S
Li443 N493 1.990 . S
Li443 O501 1.961 . S
Li443 O502 1.970 . S
Li443 O503 1.956 . S
C444 C446 1.348 . S
C444 C447 1.356 . S
C444 O500 1.325 . S
N445 C448 1.314 . S
N445 C449 1.279 . S
C446 C444 1.348 . S
C446 C448 1.353 . S
C446 H504 0.929 . S
C447 C444 1.356 . S
C447 C449 1.358 . S
C447 H505 0.930 . S
C448 N445 1.314 . S
C448 C446 1.353 . S
C448 H506 0.930 . S
C449 N445 1.279 . S
C449 C447 1.358 . S
C449 H507 0.930 . S
C450 C453 1.348 . S
C450 C454 1.356 . S
C450 O501 1.325 . S
C451 N452 1.279 . S
C451 C454 1.358 . S
C451 H508 0.930 . S
N452 C451 1.279 . S
N452 C455 1.314 . S
C453 C450 1.348 . S
C453 C455 1.353 . S
C453 H509 0.929 . S
C454 C450 1.356 . S
C454 C451 1.358 . S
C454 H510 0.930 . S
C455 N452 1.314 . S
C455 C453 1.353 . S
C455 H511 0.930 . S
C456 N457 1.314 . S
C456 C461 1.353 . S
C456 H462 0.930 . S
N457 Li440 1.990 . S
N457 C456 1.314 . S
N457 C459 1.279 . S
C458 C459 1.358 . S
C458 C460 1.356 . S
C458 H512 0.930 . S
C459 N457 1.279 . S
C459 C458 1.358 . S
C459 H463 0.930 . S
C460 C458 1.356 . S
C460 C461 1.348 . S
C461 C456 1.353 . S
C461 C460 1.348 . S
C461 H513 0.929 . S
H462 C456 0.930 . S
H463 C459 0.930 . S
C464 N465 1.314 . S
C464 C466 1.353 . S
C464 H470 0.930 . S
N465 Li441 1.990 . S
N465 C464 1.314 . S
N465 C468 1.279 . S
C466 C464 1.353 . S
C466 C469 1.348 . S
C466 H514 0.929 . S
C467 C468 1.358 . S
C467 C469 1.356 . S
C467 H515 0.930 . S
C468 N465 1.279 . S
C468 C467 1.358 . S
C468 H471 0.930 . S
C469 C466 1.348 . S
C469 C467 1.356 . S
H470 C464 0.930 . S
H471 C468 0.930 . S
C472 C474 1.348 . S
C472 C475 1.356 . S
C472 O502 1.325 . S
N473 C476 1.314 . S
N473 C477 1.279 . S
C474 C472 1.348 . S
C474 C476 1.353 . S
C474 H516 0.929 . S
C475 C472 1.356 . S
C475 C477 1.358 . S
C475 H517 0.930 . S
C476 N473 1.314 . S
C476 C474 1.353 . S
C476 H518 0.930 . S
C477 N473 1.279 . S
C477 C475 1.358 . S
C477 H519 0.930 . S
C478 C479 1.348 . S
C478 C480 1.356 . S
C478 O503 1.325 . S
C479 C478 1.348 . S
C479 C481 1.353 . S
C479 H520 0.929 . S
C480 C478 1.356 . S
C480 C482 1.358 . S
C480 H521 0.930 . S
C481 C479 1.353 . S
C481 N483 1.314 . S
C481 H522 0.930 . S
C482 C480 1.358 . S
C482 N483 1.279 . S
C482 H523 0.930 . S
N483 C481 1.314 . S
N483 C482 1.279 . S
C484 C486 1.353 . S
C484 N487 1.314 . S
C484 H490 0.930 . S
C485 N487 1.279 . S
C485 C488 1.358 . S
C485 H491 0.930 . S
C486 C484 1.353 . S
C486 C489 1.348 . S
C486 H524 0.929 . S
N487 Li442 1.990 . S
N487 C484 1.314 . S
N487 C485 1.279 . S
C488 C485 1.358 . S
C488 C489 1.356 . S
C488 H525 0.930 . S
C489 C486 1.348 . S
C489 C488 1.356 . S
H490 C484 0.930 . S
H491 C485 0.930 . S
C492 N493 1.314 . S
C492 C494 1.353 . S
C492 H498 0.930 . S
N493 Li443 1.990 . S
N493 C492 1.314 . S
N493 C496 1.279 . S
C494 C492 1.353 . S
C494 C497 1.348 . S
C494 H526 0.929 . S
C495 C496 1.358 . S
C495 C497 1.356 . S
C495 H527 0.930 . S
C496 N493 1.279 . S
C496 C495 1.358 . S
C496 H499 0.930 . S
C497 C494 1.348 . S
C497 C495 1.356 . S
H498 C492 0.930 . S
H499 C496 0.930 . S
O500 Li440 1.956 . S
O500 Li441 1.970 . S
O500 Li442 1.961 . S
O500 C444 1.325 . S
O501 Li440 1.970 . S
O501 Li441 1.956 . S
O501 Li443 1.961 . S
O501 C450 1.325 . S
O502 Li440 1.961 . S
O502 Li442 1.956 . S
O502 Li443 1.970 . S
O502 C472 1.325 . S
O503 Li441 1.961 . S
O503 Li442 1.970 . S
O503 Li443 1.956 . S
O503 C478 1.325 . S
H504 C446 0.929 . S
H505 C447 0.930 . S
H506 C448 0.930 . S
H507 C449 0.930 . S
H508 C451 0.930 . S
H509 C453 0.929 . S
H510 C454 0.930 . S
H511 C455 0.930 . S
H512 C458 0.930 . S
H513 C461 0.929 . S
H514 C466 0.929 . S
H515 C467 0.930 . S
H516 C474 0.929 . S
H517 C475 0.930 . S
H518 C476 0.930 . S
H519 C477 0.930 . S
H520 C479 0.929 . S
H521 C480 0.930 . S
H522 C481 0.930 . S
H523 C482 0.930 . S
H524 C486 0.929 . S
H525 C488 0.930 . S
H526 C494 0.929 . S
H527 C495 0.930 . S
Li528 N545 1.990 . S
Li528 O588 1.956 . S
Li528 O589 1.970 . S
Li528 O590 1.961 . S
Li529 N553 1.990 . S
Li529 O588 1.970 . S
Li529 O589 1.956 . S
Li529 O591 1.961 . S
Li530 N575 1.990 . S
Li530 O588 1.961 . S
Li530 O590 1.956 . S
Li530 O591 1.970 . S
Li531 N581 1.990 . S
Li531 O589 1.961 . S
Li531 O590 1.970 . S
Li531 O591 1.956 . S
C532 C534 1.348 . S
C532 C535 1.356 . S
C532 O588 1.325 . S
N533 C536 1.314 . S
N533 C537 1.279 . S
C534 C532 1.348 . S
C534 C536 1.353 . S
C534 H592 0.929 . S
C535 C532 1.356 . S
C535 C537 1.358 . S
C535 H593 0.930 . S
C536 N533 1.314 . S
C536 C534 1.353 . S
C536 H594 0.930 . S
C537 N533 1.279 . S
C537 C535 1.358 . S
C537 H595 0.930 . S
C538 C541 1.348 . S
C538 C542 1.356 . S
C538 O589 1.325 . S
C539 N540 1.279 . S
C539 C542 1.358 . S
C539 H596 0.930 . S
N540 C539 1.279 . S
N540 C543 1.314 . S
C541 C538 1.348 . S
C541 C543 1.353 . S
C541 H597 0.929 . S
C542 C538 1.356 . S
C542 C539 1.358 . S
C542 H598 0.930 . S
C543 N540 1.314 . S
C543 C541 1.353 . S
C543 H599 0.930 . S
C544 N545 1.314 . S
C544 C549 1.353 . S
C544 H550 0.930 . S
N545 Li528 1.990 . S
N545 C544 1.314 . S
N545 C547 1.279 . S
C546 C547 1.358 . S
C546 C548 1.356 . S
C546 H600 0.930 . S
C547 N545 1.279 . S
C547 C546 1.358 . S
C547 H551 0.930 . S
C548 C546 1.356 . S
C548 C549 1.348 . S
C549 C544 1.353 . S
C549 C548 1.348 . S
C549 H601 0.929 . S
H550 C544 0.930 . S
H551 C547 0.930 . S
C552 N553 1.314 . S
C552 C554 1.353 . S
C552 H558 0.930 . S
N553 Li529 1.990 . S
N553 C552 1.314 . S
N553 C556 1.279 . S
C554 C552 1.353 . S
C554 C557 1.348 . S
C554 H602 0.929 . S
C555 C556 1.358 . S
C555 C557 1.356 . S
C555 H603 0.930 . S
C556 N553 1.279 . S
C556 C555 1.358 . S
C556 H559 0.930 . S
C557 C554 1.348 . S
C557 C555 1.356 . S
H558 C552 0.930 . S
H559 C556 0.930 . S
C560 C562 1.348 . S
C560 C563 1.356 . S
C560 O590 1.325 . S
N561 C564 1.314 . S
N561 C565 1.279 . S
C562 C560 1.348 . S
C562 C564 1.353 . S
C562 H604 0.929 . S
C563 C560 1.356 . S
C563 C565 1.358 . S
C563 H605 0.930 . S
C564 N561 1.314 . S
C564 C562 1.353 . S
C564 H606 0.930 . S
C565 N561 1.279 . S
C565 C563 1.358 . S
C565 H607 0.930 . S
C566 C567 1.348 . S
C566 C568 1.356 . S
C566 O591 1.325 . S
C567 C566 1.348 . S
C567 C569 1.353 . S
C567 H608 0.929 . S
C568 C566 1.356 . S
C568 C570 1.358 . S
C568 H609 0.930 . S
C569 C567 1.353 . S
C569 N571 1.314 . S
C569 H610 0.930 . S
C570 C568 1.358 . S
C570 N571 1.279 . S
C570 H611 0.930 . S
N571 C569 1.314 . S
N571 C570 1.279 . S
C572 C574 1.353 . S
C572 N575 1.314 . S
C572 H578 0.930 . S
C573 N575 1.279 . S
C573 C576 1.358 . S
C573 H579 0.930 . S
C574 C572 1.353 . S
C574 C577 1.348 . S
C574 H612 0.929 . S
N575 Li530 1.990 . S
N575 C572 1.314 . S
N575 C573 1.279 . S
C576 C573 1.358 . S
C576 C577 1.356 . S
C576 H613 0.930 . S
C577 C574 1.348 . S
C577 C576 1.356 . S
H578 C572 0.930 . S
H579 C573 0.930 . S
C580 N581 1.314 . S
C580 C582 1.353 . S
C580 H586 0.930 . S
N581 Li531 1.990 . S
N581 C580 1.314 . S
N581 C584 1.279 . S
C582 C580 1.353 . S
C582 C585 1.348 . S
C582 H614 0.929 . S
C583 C584 1.358 . S
C583 C585 1.356 . S
C583 H615 0.930 . S
C584 N581 1.279 . S
C584 C583 1.358 . S
C584 H587 0.930 . S
C585 C582 1.348 . S
C585 C583 1.356 . S
H586 C580 0.930 . S
H587 C584 0.930 . S
O588 Li528 1.956 . S
O588 Li529 1.970 . S
O588 Li530 1.961 . S
O588 C532 1.325 . S
O589 Li528 1.970 . S
O589 Li529 1.956 . S
O589 Li531 1.961 . S
O589 C538 1.325 . S
O590 Li528 1.961 . S
O590 Li530 1.956 . S
O590 Li531 1.970 . S
O590 C560 1.325 . S
O591 Li529 1.961 . S
O591 Li530 1.970 . S
O591 Li531 1.956 . S
O591 C566 1.325 . S
H592 C534 0.929 . S
H593 C535 0.930 . S
H594 C536 0.930 . S
H595 C537 0.930 . S
H596 C539 0.930 . S
H597 C541 0.929 . S
H598 C542 0.930 . S
H599 C543 0.930 . S
H600 C546 0.930 . S
H601 C549 0.929 . S
H602 C554 0.929 . S
H603 C555 0.930 . S
H604 C562 0.929 . S
H605 C563 0.930 . S
H606 C564 0.930 . S
H607 C565 0.930 . S
H608 C567 0.929 . S
H609 C568 0.930 . S
H610 C569 0.930 . S
H611 C570 0.930 . S
H612 C574 0.929 . S
H613 C576 0.930 . S
H614 C582 0.929 . S
H615 C583 0.930 . S
Li616 N633 1.990 . S
Li616 O676 1.956 . S
Li616 O677 1.970 . S
Li616 O678 1.961 . S
Li617 N641 1.990 . S
Li617 O676 1.970 . S
Li617 O677 1.956 . S
Li617 O679 1.961 . S
Li618 N663 1.990 . S
Li618 O676 1.961 . S
Li618 O678 1.956 . S
Li618 O679 1.970 . S
Li619 N669 1.990 . S
Li619 O677 1.961 . S
Li619 O678 1.970 . S
Li619 O679 1.956 . S
C620 C622 1.348 . S
C620 C623 1.356 . S
C620 O676 1.325 . S
N621 C624 1.314 . S
N621 C625 1.279 . S
C622 C620 1.348 . S
C622 C624 1.353 . S
C622 H680 0.929 . S
C623 C620 1.356 . S
C623 C625 1.358 . S
C623 H681 0.930 . S
C624 N621 1.314 . S
C624 C622 1.353 . S
C624 H682 0.930 . S
C625 N621 1.279 . S
C625 C623 1.358 . S
C625 H683 0.930 . S
C626 C629 1.348 . S
C626 C630 1.356 . S
C626 O677 1.325 . S
C627 N628 1.279 . S
C627 C630 1.358 . S
C627 H684 0.930 . S
N628 C627 1.279 . S
N628 C631 1.314 . S
C629 C626 1.348 . S
C629 C631 1.353 . S
C629 H685 0.929 . S
C630 C626 1.356 . S
C630 C627 1.358 . S
C630 H686 0.930 . S
C631 N628 1.314 . S
C631 C629 1.353 . S
C631 H687 0.930 . S
C632 N633 1.314 . S
C632 C637 1.353 . S
C632 H638 0.930 . S
N633 Li616 1.990 . S
N633 C632 1.314 . S
N633 C635 1.279 . S
C634 C635 1.358 . S
C634 C636 1.356 . S
C634 H688 0.930 . S
C635 N633 1.279 . S
C635 C634 1.358 . S
C635 H639 0.930 . S
C636 C634 1.356 . S
C636 C637 1.348 . S
C637 C632 1.353 . S
C637 C636 1.348 . S
C637 H689 0.929 . S
H638 C632 0.930 . S
H639 C635 0.930 . S
C640 N641 1.314 . S
C640 C642 1.353 . S
C640 H646 0.930 . S
N641 Li617 1.990 . S
N641 C640 1.314 . S
N641 C644 1.279 . S
C642 C640 1.353 . S
C642 C645 1.348 . S
C642 H690 0.929 . S
C643 C644 1.358 . S
C643 C645 1.356 . S
C643 H691 0.930 . S
C644 N641 1.279 . S
C644 C643 1.358 . S
C644 H647 0.930 . S
C645 C642 1.348 . S
C645 C643 1.356 . S
H646 C640 0.930 . S
H647 C644 0.930 . S
C648 C650 1.348 . S
C648 C651 1.356 . S
C648 O678 1.325 . S
N649 C652 1.314 . S
N649 C653 1.279 . S
C650 C648 1.348 . S
C650 C652 1.353 . S
C650 H692 0.929 . S
C651 C648 1.356 . S
C651 C653 1.358 . S
C651 H693 0.930 . S
C652 N649 1.314 . S
C652 C650 1.353 . S
C652 H694 0.930 . S
C653 N649 1.279 . S
C653 C651 1.358 . S
C653 H695 0.930 . S
C654 C655 1.348 . S
C654 C656 1.356 . S
C654 O679 1.325 . S
C655 C654 1.348 . S
C655 C657 1.353 . S
C655 H696 0.929 . S
C656 C654 1.356 . S
C656 C658 1.358 . S
C656 H697 0.930 . S
C657 C655 1.353 . S
C657 N659 1.314 . S
C657 H698 0.930 . S
C658 C656 1.358 . S
C658 N659 1.279 . S
C658 H699 0.930 . S
N659 C657 1.314 . S
N659 C658 1.279 . S
C660 C662 1.353 . S
C660 N663 1.314 . S
C660 H666 0.930 . S
C661 N663 1.279 . S
C661 C664 1.358 . S
C661 H667 0.930 . S
C662 C660 1.353 . S
C662 C665 1.348 . S
C662 H700 0.929 . S
N663 Li618 1.990 . S
N663 C660 1.314 . S
N663 C661 1.279 . S
C664 C661 1.358 . S
C664 C665 1.356 . S
C664 H701 0.930 . S
C665 C662 1.348 . S
C665 C664 1.356 . S
H666 C660 0.930 . S
H667 C661 0.930 . S
C668 N669 1.314 . S
C668 C670 1.353 . S
C668 H674 0.930 . S
N669 Li619 1.990 . S
N669 C668 1.314 . S
N669 C672 1.279 . S
C670 C668 1.353 . S
C670 C673 1.348 . S
C670 H702 0.929 . S
C671 C672 1.358 . S
C671 C673 1.356 . S
C671 H703 0.930 . S
C672 N669 1.279 . S
C672 C671 1.358 . S
C672 H675 0.930 . S
C673 C670 1.348 . S
C673 C671 1.356 . S
H674 C668 0.930 . S
H675 C672 0.930 . S
O676 Li616 1.956 . S
O676 Li617 1.970 . S
O676 Li618 1.961 . S
O676 C620 1.325 . S
O677 Li616 1.970 . S
O677 Li617 1.956 . S
O677 Li619 1.961 . S
O677 C626 1.325 . S
O678 Li616 1.961 . S
O678 Li618 1.956 . S
O678 Li619 1.970 . S
O678 C648 1.325 . S
O679 Li617 1.961 . S
O679 Li618 1.970 . S
O679 Li619 1.956 . S
O679 C654 1.325 . S
H680 C622 0.929 . S
H681 C623 0.930 . S
H682 C624 0.930 . S
H683 C625 0.930 . S
H684 C627 0.930 . S
H685 C629 0.929 . S
H686 C630 0.930 . S
H687 C631 0.930 . S
H688 C634 0.930 . S
H689 C637 0.929 . S
H690 C642 0.929 . S
H691 C643 0.930 . S
H692 C650 0.929 . S
H693 C651 0.930 . S
H694 C652 0.930 . S
H695 C653 0.930 . S
H696 C655 0.929 . S
H697 C656 0.930 . S
H698 C657 0.930 . S
H699 C658 0.930 . S
H700 C662 0.929 . S
H701 C664 0.930 . S
H702 C670 0.929 . S
H703 C671 0.930 . S
Li704 N721 1.990 . S
Li704 O764 1.956 . S
Li704 O765 1.970 . S
Li704 O766 1.961 . S
Li705 N729 1.990 . S
Li705 O764 1.970 . S
Li705 O765 1.956 . S
Li705 O767 1.961 . S
Li706 N751 1.990 . S
Li706 O764 1.961 . S
Li706 O766 1.956 . S
Li706 O767 1.970 . S
Li707 N757 1.990 . S
Li707 O765 1.961 . S
Li707 O766 1.970 . S
Li707 O767 1.956 . S
C708 C710 1.348 . S
C708 C711 1.356 . S
C708 O764 1.325 . S
N709 C712 1.314 . S
N709 C713 1.279 . S
C710 C708 1.348 . S
C710 C712 1.353 . S
C710 H768 0.929 . S
C711 C708 1.356 . S
C711 C713 1.358 . S
C711 H769 0.930 . S
C712 N709 1.314 . S
C712 C710 1.353 . S
C712 H770 0.930 . S
C713 N709 1.279 . S
C713 C711 1.358 . S
C713 H771 0.930 . S
C714 C717 1.348 . S
C714 C718 1.356 . S
C714 O765 1.325 . S
C715 N716 1.279 . S
C715 C718 1.358 . S
C715 H772 0.930 . S
N716 C715 1.279 . S
N716 C719 1.314 . S
C717 C714 1.348 . S
C717 C719 1.353 . S
C717 H773 0.929 . S
C718 C714 1.356 . S
C718 C715 1.358 . S
C718 H774 0.930 . S
C719 N716 1.314 . S
C719 C717 1.353 . S
C719 H775 0.930 . S
C720 N721 1.314 . S
C720 C725 1.353 . S
C720 H726 0.930 . S
N721 Li704 1.990 . S
N721 C720 1.314 . S
N721 C723 1.279 . S
C722 C723 1.358 . S
C722 C724 1.356 . S
C722 H776 0.930 . S
C723 N721 1.279 . S
C723 C722 1.358 . S
C723 H727 0.930 . S
C724 C722 1.356 . S
C724 C725 1.348 . S
C725 C720 1.353 . S
C725 C724 1.348 . S
C725 H777 0.929 . S
H726 C720 0.930 . S
H727 C723 0.930 . S
C728 N729 1.314 . S
C728 C730 1.353 . S
C728 H734 0.930 . S
N729 Li705 1.990 . S
N729 C728 1.314 . S
N729 C732 1.279 . S
C730 C728 1.353 . S
C730 C733 1.348 . S
C730 H778 0.929 . S
C731 C732 1.358 . S
C731 C733 1.356 . S
C731 H779 0.930 . S
C732 N729 1.279 . S
C732 C731 1.358 . S
C732 H735 0.930 . S
C733 C730 1.348 . S
C733 C731 1.356 . S
H734 C728 0.930 . S
H735 C732 0.930 . S
C736 C738 1.348 . S
C736 C739 1.356 . S
C736 O766 1.325 . S
N737 C740 1.314 . S
N737 C741 1.279 . S
C738 C736 1.348 . S
C738 C740 1.353 . S
C738 H780 0.929 . S
C739 C736 1.356 . S
C739 C741 1.358 . S
C739 H781 0.930 . S
C740 N737 1.314 . S
C740 C738 1.353 . S
C740 H782 0.930 . S
C741 N737 1.279 . S
C741 C739 1.358 . S
C741 H783 0.930 . S
C742 C743 1.348 . S
C742 C744 1.356 . S
C742 O767 1.325 . S
C743 C742 1.348 . S
C743 C745 1.353 . S
C743 H784 0.929 . S
C744 C742 1.356 . S
C744 C746 1.358 . S
C744 H785 0.930 . S
C745 C743 1.353 . S
C745 N747 1.314 . S
C745 H786 0.930 . S
C746 C744 1.358 . S
C746 N747 1.279 . S
C746 H787 0.930 . S
N747 C745 1.314 . S
N747 C746 1.279 . S
C748 C750 1.353 . S
C748 N751 1.314 . S
C748 H754 0.930 . S
C749 N751 1.279 . S
C749 C752 1.358 . S
C749 H755 0.930 . S
C750 C748 1.353 . S
C750 C753 1.348 . S
C750 H788 0.929 . S
N751 Li706 1.990 . S
N751 C748 1.314 . S
N751 C749 1.279 . S
C752 C749 1.358 . S
C752 C753 1.356 . S
C752 H789 0.930 . S
C753 C750 1.348 . S
C753 C752 1.356 . S
H754 C748 0.930 . S
H755 C749 0.930 . S
C756 N757 1.314 . S
C756 C758 1.353 . S
C756 H762 0.930 . S
N757 Li707 1.990 . S
N757 C756 1.314 . S
N757 C760 1.279 . S
C758 C756 1.353 . S
C758 C761 1.348 . S
C758 H790 0.929 . S
C759 C760 1.358 . S
C759 C761 1.356 . S
C759 H791 0.930 . S
C760 N757 1.279 . S
C760 C759 1.358 . S
C760 H763 0.930 . S
C761 C758 1.348 . S
C761 C759 1.356 . S
H762 C756 0.930 . S
H763 C760 0.930 . S
O764 Li704 1.956 . S
O764 Li705 1.970 . S
O764 Li706 1.961 . S
O764 C708 1.325 . S
O765 Li704 1.970 . S
O765 Li705 1.956 . S
O765 Li707 1.961 . S
O765 C714 1.325 . S
O766 Li704 1.961 . S
O766 Li706 1.956 . S
O766 Li707 1.970 . S
O766 C736 1.325 . S
O767 Li705 1.961 . S
O767 Li706 1.970 . S
O767 Li707 1.956 . S
O767 C742 1.325 . S
H768 C710 0.929 . S
H769 C711 0.930 . S
H770 C712 0.930 . S
H771 C713 0.930 . S
H772 C715 0.930 . S
H773 C717 0.929 . S
H774 C718 0.930 . S
H775 C719 0.930 . S
H776 C722 0.930 . S
H777 C725 0.929 . S
H778 C730 0.929 . S
H779 C731 0.930 . S
H780 C738 0.929 . S
H781 C739 0.930 . S
H782 C740 0.930 . S
H783 C741 0.930 . S
H784 C743 0.929 . S
H785 C744 0.930 . S
H786 C745 0.930 . S
H787 C746 0.930 . S
H788 C750 0.929 . S
H789 C752 0.930 . S
H790 C758 0.929 . S
H791 C759 0.930 . S
Li792 N809 1.990 . S
Li792 O852 1.956 . S
Li792 O853 1.970 . S
Li792 O854 1.961 . S
Li793 N817 1.990 . S
Li793 O852 1.970 . S
Li793 O853 1.956 . S
Li793 O855 1.961 . S
Li794 N839 1.990 . S
Li794 O852 1.961 . S
Li794 O854 1.956 . S
Li794 O855 1.970 . S
Li795 N845 1.990 . S
Li795 O853 1.961 . S
Li795 O854 1.970 . S
Li795 O855 1.956 . S
C796 C798 1.348 . S
C796 C799 1.356 . S
C796 O852 1.325 . S
N797 C800 1.314 . S
N797 C801 1.279 . S
C798 C796 1.348 . S
C798 C800 1.353 . S
C798 H856 0.929 . S
C799 C796 1.356 . S
C799 C801 1.358 . S
C799 H857 0.930 . S
C800 N797 1.314 . S
C800 C798 1.353 . S
C800 H858 0.930 . S
C801 N797 1.279 . S
C801 C799 1.358 . S
C801 H859 0.930 . S
C802 C805 1.348 . S
C802 C806 1.356 . S
C802 O853 1.325 . S
C803 N804 1.279 . S
C803 C806 1.358 1_554 S
C803 H860 0.930 . S
N804 C803 1.279 . S
N804 C807 1.314 . S
C805 C802 1.348 . S
C805 C807 1.353 1_556 S
C805 H861 0.929 . S
C806 C802 1.356 . S
C806 C803 1.358 1_556 S
C806 H862 0.930 . S
C807 N804 1.314 . S
C807 C805 1.353 1_554 S
C807 H863 0.930 . S
C808 N809 1.314 . S
C808 C813 1.353 . S
C808 H814 0.930 . S
N809 Li792 1.990 . S
N809 C808 1.314 . S
N809 C811 1.279 . S
C810 C811 1.358 . S
C810 C812 1.356 . S
C810 H864 0.930 . S
C811 N809 1.279 . S
C811 C810 1.358 . S
C811 H815 0.930 . S
C812 C810 1.356 . S
C812 C813 1.348 . S
C813 C808 1.353 . S
C813 C812 1.348 . S
C813 H865 0.929 . S
H814 C808 0.930 . S
H815 C811 0.930 . S
C816 N817 1.314 . S
C816 C818 1.353 1_556 S
C816 H822 0.930 . S
N817 Li793 1.990 . S
N817 C816 1.314 . S
N817 C820 1.279 1_556 S
C818 C816 1.353 1_554 S
C818 C821 1.348 . S
C818 H866 0.929 . S
C819 C820 1.358 . S
C819 C821 1.356 . S
C819 H867 0.930 . S
C820 N817 1.279 1_554 S
C820 C819 1.358 . S
C820 H823 0.930 . S
C821 C818 1.348 . S
C821 C819 1.356 . S
H822 C816 0.930 . S
H823 C820 0.930 . S
C824 C826 1.348 . S
C824 C827 1.356 . S
C824 O854 1.325 . S
N825 C828 1.314 . S
N825 C829 1.279 . S
C826 C824 1.348 . S
C826 C828 1.353 . S
C826 H868 0.929 . S
C827 C824 1.356 . S
C827 C829 1.358 . S
C827 H869 0.930 . S
C828 N825 1.314 . S
C828 C826 1.353 . S
C828 H870 0.930 . S
C829 N825 1.279 . S
C829 C827 1.358 . S
C829 H871 0.930 . S
C830 C831 1.348 . S
C830 C832 1.356 . S
C830 O855 1.325 . S
C831 C830 1.348 . S
C831 C833 1.353 . S
C831 H872 0.929 . S
C832 C830 1.356 . S
C832 C834 1.358 . S
C832 H873 0.930 . S
C833 C831 1.353 . S
C833 N835 1.314 . S
C833 H874 0.930 . S
C834 C832 1.358 . S
C834 N835 1.279 . S
C834 H875 0.930 . S
N835 C833 1.314 . S
N835 C834 1.279 . S
C836 C838 1.353 . S
C836 N839 1.314 . S
C836 H842 0.930 . S
C837 N839 1.279 . S
C837 C840 1.358 . S
C837 H843 0.930 . S
C838 C836 1.353 . S
C838 C841 1.348 . S
C838 H876 0.929 . S
N839 Li794 1.990 . S
N839 C836 1.314 . S
N839 C837 1.279 . S
C840 C837 1.358 . S
C840 C841 1.356 . S
C840 H877 0.930 . S
C841 C838 1.348 . S
C841 C840 1.356 . S
H842 C836 0.930 . S
H843 C837 0.930 . S
C844 N845 1.314 . S
C844 C846 1.353 . S
C844 H850 0.930 . S
N845 Li795 1.990 . S
N845 C844 1.314 . S
N845 C848 1.279 . S
C846 C844 1.353 . S
C846 C849 1.348 . S
C846 H878 0.929 . S
C847 C848 1.358 . S
C847 C849 1.356 . S
C847 H879 0.930 . S
C848 N845 1.279 . S
C848 C847 1.358 . S
C848 H851 0.930 . S
C849 C846 1.348 . S
C849 C847 1.356 . S
H850 C844 0.930 . S
H851 C848 0.930 . S
O852 Li792 1.956 . S
O852 Li793 1.970 . S
O852 Li794 1.961 . S
O852 C796 1.325 . S
O853 Li792 1.970 . S
O853 Li793 1.956 . S
O853 Li795 1.961 . S
O853 C802 1.325 . S
O854 Li792 1.961 . S
O854 Li794 1.956 . S
O854 Li795 1.970 . S
O854 C824 1.325 . S
O855 Li793 1.961 . S
O855 Li794 1.970 . S
O855 Li795 1.956 . S
O855 C830 1.325 . S
H856 C798 0.929 . S
H857 C799 0.930 . S
H858 C800 0.930 . S
H859 C801 0.930 . S
H860 C803 0.930 . S
H861 C805 0.929 . S
H862 C806 0.930 . S
H863 C807 0.930 . S
H864 C810 0.930 . S
H865 C813 0.929 . S
H866 C818 0.929 . S
H867 C819 0.930 . S
H868 C826 0.929 . S
H869 C827 0.930 . S
H870 C828 0.930 . S
H871 C829 0.930 . S
H872 C831 0.929 . S
H873 C832 0.930 . S
H874 C833 0.930 . S
H875 C834 0.930 . S
H876 C838 0.929 . S
H877 C840 0.930 . S
H878 C846 0.929 . S
H879 C847 0.930 . S
Li880 N897 1.990 . S
Li880 O940 1.956 . S
Li880 O941 1.970 . S
Li880 O942 1.961 . S
Li881 N905 1.990 . S
Li881 O940 1.970 . S
Li881 O941 1.956 . S
Li881 O943 1.961 . S
Li882 N927 1.976 1_554 S
Li882 O940 1.961 . S
Li882 O942 1.956 . S
Li882 O943 1.970 . S
Li883 N933 1.990 . S
Li883 O941 1.961 . S
Li883 O942 1.970 . S
Li883 O943 1.956 . S
C884 C886 1.348 . S
C884 C887 1.356 . S
C884 O940 1.325 . S
N885 C888 1.314 . S
N885 C889 1.279 . S
C886 C884 1.348 . S
C886 C888 1.353 . S
C886 H944 0.929 . S
C887 C884 1.356 . S
C887 C889 1.358 . S
C887 H945 0.930 . S
C888 N885 1.314 . S
C888 C886 1.353 . S
C888 H946 0.930 . S
C889 N885 1.279 . S
C889 C887 1.358 . S
C889 H947 0.930 . S
C890 C893 1.348 . S
C890 C894 1.356 . S
C890 O941 1.325 . S
C891 N892 1.279 . S
C891 C894 1.358 . S
C891 H948 0.930 . S
N892 C891 1.279 . S
N892 C895 1.314 . S
C893 C890 1.348 . S
C893 C895 1.353 . S
C893 H949 0.929 . S
C894 C890 1.356 . S
C894 C891 1.358 . S
C894 H950 0.930 . S
C895 N892 1.314 . S
C895 C893 1.353 . S
C895 H951 0.930 . S
C896 N897 1.314 . S
C896 C901 1.353 . S
C896 H902 0.930 . S
N897 Li880 1.990 . S
N897 C896 1.314 . S
N897 C899 1.279 . S
C898 C899 1.358 . S
C898 C900 1.356 . S
C898 H952 0.930 . S
C899 N897 1.279 . S
C899 C898 1.358 . S
C899 H903 0.930 . S
C900 C898 1.356 . S
C900 C901 1.348 . S
C901 C896 1.353 . S
C901 C900 1.348 . S
C901 H953 0.929 . S
H902 C896 0.930 . S
H903 C899 0.930 . S
C904 N905 1.314 . S
C904 C906 1.353 . S
C904 H910 0.930 . S
N905 Li881 1.990 . S
N905 C904 1.314 . S
N905 C908 1.279 . S
C906 C904 1.353 . S
C906 C909 1.348 . S
C906 H954 0.929 . S
C907 C908 1.358 . S
C907 C909 1.356 . S
C907 H955 0.930 . S
C908 N905 1.279 . S
C908 C907 1.358 . S
C908 H911 0.930 . S
C909 C906 1.348 . S
C909 C907 1.356 . S
H910 C904 0.930 . S
H911 C908 0.930 . S
C912 C914 1.348 1_554 S
C912 C915 1.356 1_554 S
C912 O942 1.325 . S
N913 C916 1.314 . S
N913 C917 1.279 . S
C914 C912 1.348 1_556 S
C914 C916 1.353 . S
C914 H956 0.929 . S
C915 C912 1.356 1_556 S
C915 C917 1.358 . S
C915 H957 0.930 . S
C916 N913 1.314 . S
C916 C914 1.353 . S
C916 H958 0.930 . S
C917 N913 1.279 . S
C917 C915 1.358 . S
C917 H959 0.930 . S
C918 C919 1.348 . S
C918 C920 1.356 . S
C918 O943 1.325 . S
C919 C918 1.348 . S
C919 C921 1.353 . S
C919 H960 0.929 . S
C920 C918 1.356 . S
C920 C922 1.358 . S
C920 H961 0.930 . S
C921 C919 1.353 . S
C921 N923 1.314 . S
C921 H962 0.930 . S
C922 C920 1.358 . S
C922 N923 1.279 . S
C922 H963 0.930 . S
N923 C921 1.314 . S
N923 C922 1.279 . S
C924 C926 1.353 1_554 S
C924 N927 1.312 1_554 S
C924 H930 0.930 . S
C925 N927 1.298 . S
C925 C928 1.358 . S
C925 H931 0.930 . S
C926 C924 1.353 1_556 S
C926 C929 1.348 . S
C926 H964 0.929 . S
N927 Li882 1.976 1_556 S
N927 C924 1.312 1_556 S
N927 C925 1.298 . S
C928 C925 1.358 . S
C928 C929 1.356 . S
C928 H965 0.930 . S
C929 C926 1.348 . S
C929 C928 1.356 . S
H930 C924 0.930 . S
H931 C925 0.930 . S
C932 N933 1.314 . S
C932 C934 1.353 . S
C932 H938 0.930 . S
N933 Li883 1.990 . S
N933 C932 1.314 . S
N933 C936 1.279 . S
C934 C932 1.353 . S
C934 C937 1.348 . S
C934 H966 0.929 . S
C935 C936 1.358 . S
C935 C937 1.356 . S
C935 H967 0.930 . S
C936 N933 1.279 . S
C936 C935 1.358 . S
C936 H939 0.930 . S
C937 C934 1.348 . S
C937 C935 1.356 . S
H938 C932 0.930 . S
H939 C936 0.930 . S
O940 Li880 1.956 . S
O940 Li881 1.970 . S
O940 Li882 1.961 . S
O940 C884 1.325 . S
O941 Li880 1.970 . S
O941 Li881 1.956 . S
O941 Li883 1.961 . S
O941 C890 1.325 . S
O942 Li880 1.961 . S
O942 Li882 1.956 . S
O942 Li883 1.970 . S
O942 C912 1.325 . S
O943 Li881 1.961 . S
O943 Li882 1.970 . S
O943 Li883 1.956 . S
O943 C918 1.325 . S
H944 C886 0.929 . S
H945 C887 0.930 . S
H946 C888 0.930 . S
H947 C889 0.930 . S
H948 C891 0.930 . S
H949 C893 0.929 . S
H950 C894 0.930 . S
H951 C895 0.930 . S
H952 C898 0.930 . S
H953 C901 0.929 . S
H954 C906 0.929 . S
H955 C907 0.930 . S
H956 C914 0.929 . S
H957 C915 0.930 . S
H958 C916 0.930 . S
H959 C917 0.930 . S
H960 C919 0.929 . S
H961 C920 0.930 . S
H962 C921 0.930 . S
H963 C922 0.930 . S
H964 C926 0.929 . S
H965 C928 0.930 . S
H966 C934 0.929 . S
H967 C935 0.930 . S
Li968 N985 1.990 . S
Li968 O1028 1.956 . S
Li968 O1029 1.970 . S
Li968 O1030 1.961 . S
Li969 N993 1.990 . S
Li969 O1028 1.970 . S
Li969 O1029 1.956 . S
Li969 O1031 1.961 . S
Li970 N1015 1.990 . S
Li970 O1028 1.961 . S
Li970 O1030 1.956 . S
Li970 O1031 1.970 . S
Li971 N1021 1.990 . S
Li971 O1029 1.961 . S
Li971 O1030 1.970 . S
Li971 O1031 1.956 . S
C972 C974 1.348 . S
C972 C975 1.356 . S
C972 O1028 1.325 . S
N973 C976 1.314 . S
N973 C977 1.279 . S
C974 C972 1.348 . S
C974 C976 1.353 . S
C974 H1032 0.929 . S
C975 C972 1.356 . S
C975 C977 1.358 . S
C975 H1033 0.930 . S
C976 N973 1.314 . S
C976 C974 1.353 . S
C976 H1034 0.930 . S
C977 N973 1.279 . S
C977 C975 1.358 . S
C977 H1035 0.930 . S
C978 C981 1.348 . S
C978 C982 1.356 . S
C978 O1029 1.325 . S
C979 N980 1.279 . S
C979 C982 1.358 . S
C979 H1036 0.930 . S
N980 C979 1.279 . S
N980 C983 1.314 . S
C981 C978 1.348 . S
C981 C983 1.353 . S
C981 H1037 0.929 . S
C982 C978 1.356 . S
C982 C979 1.358 . S
C982 H1038 0.930 . S
C983 N980 1.314 . S
C983 C981 1.353 . S
C983 H1039 0.930 . S
C984 N985 1.314 . S
C984 C989 1.353 . S
C984 H990 0.930 . S
N985 Li968 1.990 . S
N985 C984 1.314 . S
N985 C987 1.279 . S
C986 C987 1.358 . S
C986 C988 1.356 . S
C986 H1040 0.930 . S
C987 N985 1.279 . S
C987 C986 1.358 . S
C987 H991 0.930 . S
C988 C986 1.356 . S
C988 C989 1.348 . S
C989 C984 1.353 . S
C989 C988 1.348 . S
C989 H1041 0.929 . S
H990 C984 0.930 . S
H991 C987 0.930 . S
C992 N993 1.314 . S
C992 C994 1.353 . S
C992 H998 0.930 . S
N993 Li969 1.990 . S
N993 C992 1.314 . S
N993 C996 1.279 . S
C994 C992 1.353 . S
C994 C997 1.348 . S
C994 H1042 0.929 . S
C995 C996 1.358 . S
C995 C997 1.356 . S
C995 H1043 0.930 . S
C996 N993 1.279 . S
C996 C995 1.358 . S
C996 H999 0.930 . S
C997 C994 1.348 . S
C997 C995 1.356 . S
H998 C992 0.930 . S
H999 C996 0.930 . S
C1000 C1002 1.348 . S
C1000 C1003 1.356 . S
C1000 O1030 1.325 . S
N1001 C1004 1.314 . S
N1001 C1005 1.279 . S
C1002 C1000 1.348 . S
C1002 C1004 1.353 . S
C1002 H1044 0.929 . S
C1003 C1000 1.356 . S
C1003 C1005 1.358 . S
C1003 H1045 0.930 . S
C1004 N1001 1.314 . S
C1004 C1002 1.353 . S
C1004 H1046 0.930 . S
C1005 N1001 1.279 . S
C1005 C1003 1.358 . S
C1005 H1047 0.930 . S
C1006 C1007 1.348 . S
C1006 C1008 1.356 . S
C1006 O1031 1.325 . S
C1007 C1006 1.348 . S
C1007 C1009 1.353 . S
C1007 H1048 0.929 . S
C1008 C1006 1.356 . S
C1008 C1010 1.358 . S
C1008 H1049 0.930 . S
C1009 C1007 1.353 . S
C1009 N1011 1.314 . S
C1009 H1050 0.930 . S
C1010 C1008 1.358 . S
C1010 N1011 1.279 . S
C1010 H1051 0.930 . S
N1011 C1009 1.314 . S
N1011 C1010 1.279 . S
C1012 C1014 1.353 . S
C1012 N1015 1.314 . S
C1012 H1018 0.930 . S
C1013 N1015 1.279 . S
C1013 C1016 1.358 . S
C1013 H1019 0.930 . S
C1014 C1012 1.353 . S
C1014 C1017 1.348 . S
C1014 H1052 0.929 . S
N1015 Li970 1.990 . S
N1015 C1012 1.314 . S
N1015 C1013 1.279 . S
C1016 C1013 1.358 . S
C1016 C1017 1.356 . S
C1016 H1053 0.930 . S
C1017 C1014 1.348 . S
C1017 C1016 1.356 . S
H1018 C1012 0.930 . S
H1019 C1013 0.930 . S
C1020 N1021 1.314 . S
C1020 C1022 1.353 . S
C1020 H1026 0.930 . S
N1021 Li971 1.990 . S
N1021 C1020 1.314 . S
N1021 C1024 1.279 . S
C1022 C1020 1.353 . S
C1022 C1025 1.348 . S
C1022 H1054 0.929 . S
C1023 C1024 1.358 . S
C1023 C1025 1.356 . S
C1023 H1055 0.930 . S
C1024 N1021 1.279 . S
C1024 C1023 1.358 . S
C1024 H1027 0.930 . S
C1025 C1022 1.348 . S
C1025 C1023 1.356 . S
H1026 C1020 0.930 . S
H1027 C1024 0.930 . S
O1028 Li968 1.956 . S
O1028 Li969 1.970 . S
O1028 Li970 1.961 . S
O1028 C972 1.325 . S
O1029 Li968 1.970 . S
O1029 Li969 1.956 . S
O1029 Li971 1.961 . S
O1029 C978 1.325 . S
O1030 Li968 1.961 . S
O1030 Li970 1.956 . S
O1030 Li971 1.970 . S
O1030 C1000 1.325 . S
O1031 Li969 1.961 . S
O1031 Li970 1.970 . S
O1031 Li971 1.956 . S
O1031 C1006 1.325 . S
H1032 C974 0.929 . S
H1033 C975 0.930 . S
H1034 C976 0.930 . S
H1035 C977 0.930 . S
H1036 C979 0.930 . S
H1037 C981 0.929 . S
H1038 C982 0.930 . S
H1039 C983 0.930 . S
H1040 C986 0.930 . S
H1041 C989 0.929 . S
H1042 C994 0.929 . S
H1043 C995 0.930 . S
H1044 C1002 0.929 . S
H1045 C1003 0.930 . S
H1046 C1004 0.930 . S
H1047 C1005 0.930 . S
H1048 C1007 0.929 . S
H1049 C1008 0.930 . S
H1050 C1009 0.930 . S
H1051 C1010 0.930 . S
H1052 C1014 0.929 . S
H1053 C1016 0.930 . S
H1054 C1022 0.929 . S
H1055 C1023 0.930 . S
C1056 C1057 1.349 . S
C1056 C1058 1.327 . S
C1056 H1081 0.950 . S
C1057 C1056 1.349 . S
C1057 C1073 1.349 . S
C1058 C1056 1.327 . S
C1058 C1077 1.429 . S
C1058 H1082 0.950 . S
C1059 C1076 1.574 . S
C1059 C1078 1.368 . S
C1059 H1083 0.949 . S
H1060 C1064 0.949 . S
C1061 C1062 1.349 . S
C1061 C1063 1.327 . S
C1061 H1084 0.950 . S
C1062 C1061 1.349 . S
C1062 C1074 1.349 . S
C1063 C1061 1.327 . S
C1063 C1079 1.429 . S
C1063 H1085 0.950 . S
C1064 H1060 0.949 . S
C1064 C1072 1.574 . S
C1064 C1080 1.368 . S
H1065 C1073 0.950 . S
H1066 C1071 0.950 . S
H1067 C1072 0.949 . S
H1068 C1074 0.950 . S
H1069 C1075 0.950 . S
H1070 C1076 0.949 . S
C1071 H1066 0.950 . S
C1071 C1073 1.327 . S
C1071 C1077 1.429 . S
C1072 C1064 1.574 . S
C1072 H1067 0.949 . S
C1072 C1078 1.368 . S
C1073 C1057 1.349 . S
C1073 H1065 0.950 . S
C1073 C1071 1.327 . S
C1074 C1062 1.349 . S
C1074 H1068 0.950 . S
C1074 C1075 1.327 . S
C1075 H1069 0.950 . S
C1075 C1074 1.327 . S
C1075 C1079 1.429 . S
C1076 C1059 1.574 . S
C1076 H1070 0.949 . S
C1076 C1080 1.368 . S
C1077 C1058 1.429 . S
C1077 C1071 1.429 . S
C1077 C1078 1.523 . S
C1078 C1059 1.368 . S
C1078 C1072 1.368 . S
C1078 C1077 1.523 . S
C1079 C1063 1.429 . S
C1079 C1075 1.429 . S
C1079 C1080 1.523 . S
C1080 C1064 1.368 . S
C1080 C1076 1.368 . S
C1080 C1079 1.523 . S
H1081 C1056 0.950 . S
H1082 C1058 0.950 . S
H1083 C1059 0.949 . S
H1084 C1061 0.950 . S
H1085 C1063 0.950 . S
C1086 C1087 1.349 . S
C1086 C1088 1.327 . S
C1086 H1111 0.950 . S
C1087 C1086 1.349 . S
C1087 C1103 1.349 . S
C1088 C1086 1.327 . S
C1088 C1107 1.429 . S
C1088 H1112 0.950 . S
C1089 C1106 1.574 . S
C1089 C1108 1.368 1_655 S
C1089 H1113 0.949 . S
H1090 C1094 0.949 . S
C1091 C1092 1.349 . S
C1091 C1093 1.327 . S
C1091 H1114 0.950 . S
C1092 C1091 1.349 . S
C1092 C1104 1.349 . S
C1093 C1091 1.327 . S
C1093 C1109 1.429 . S
C1093 H1115 0.950 . S
C1094 H1090 0.949 . S
C1094 C1102 1.574 . S
C1094 C1110 1.368 1_455 S
H1095 C1103 0.950 . S
H1096 C1101 0.950 . S
H1097 C1102 0.949 . S
H1098 C1104 0.950 . S
H1099 C1105 0.950 . S
H1100 C1106 0.949 . S
C1101 H1096 0.950 . S
C1101 C1103 1.327 . S
C1101 C1107 1.429 . S
C1102 C1094 1.574 . S
C1102 H1097 0.949 . S
C1102 C1108 1.368 . S
C1103 C1087 1.349 . S
C1103 H1095 0.950 . S
C1103 C1101 1.327 . S
C1104 C1092 1.349 . S
C1104 H1098 0.950 . S
C1104 C1105 1.327 . S
C1105 H1099 0.950 . S
C1105 C1104 1.327 . S
C1105 C1109 1.429 . S
C1106 C1089 1.574 . S
C1106 H1100 0.949 . S
C1106 C1110 1.368 . S
C1107 C1088 1.429 . S
C1107 C1101 1.429 . S
C1107 C1108 1.523 . S
C1108 C1089 1.368 1_455 S
C1108 C1102 1.368 . S
C1108 C1107 1.523 . S
C1109 C1093 1.429 . S
C1109 C1105 1.429 . S
C1109 C1110 1.523 . S
C1110 C1094 1.368 1_655 S
C1110 C1106 1.368 . S
C1110 C1109 1.523 . S
H1111 C1086 0.950 . S
H1112 C1088 0.950 . S
H1113 C1089 0.949 . S
H1114 C1091 0.950 . S
H1115 C1093 0.950 . S
C1116 C1117 1.349 . S
C1116 C1118 1.327 . S
C1116 H1141 0.950 . S
C1117 C1116 1.349 . S
C1117 C1133 1.349 . S
C1118 C1116 1.327 . S
C1118 C1137 1.429 . S
C1118 H1142 0.950 . S
C1119 C1136 1.574 . S
C1119 C1138 1.368 1_545 S
C1119 H1143 0.949 . S
H1120 C1124 0.949 . S
C1121 C1122 1.349 . S
C1121 C1123 1.327 . S
C1121 H1144 0.950 . S
C1122 C1121 1.349 . S
C1122 C1134 1.349 . S
C1123 C1121 1.327 . S
C1123 C1139 1.429 . S
C1123 H1145 0.950 . S
C1124 H1120 0.949 . S
C1124 C1132 1.574 . S
C1124 C1140 1.368 1_565 S
H1125 C1133 0.950 . S
H1126 C1131 0.950 . S
H1127 C1132 0.949 . S
H1128 C1134 0.950 . S
H1129 C1135 0.950 . S
H1130 C1136 0.949 . S
C1131 H1126 0.950 . S
C1131 C1133 1.327 . S
C1131 C1137 1.429 . S
C1132 C1124 1.574 . S
C1132 H1127 0.949 . S
C1132 C1138 1.368 . S
C1133 C1117 1.349 . S
C1133 H1125 0.950 . S
C1133 C1131 1.327 . S
C1134 C1122 1.349 . S
C1134 H1128 0.950 . S
C1134 C1135 1.327 . S
C1135 H1129 0.950 . S
C1135 C1134 1.327 . S
C1135 C1139 1.429 . S
C1136 C1119 1.574 . S
C1136 H1130 0.949 . S
C1136 C1140 1.368 . S
C1137 C1118 1.429 . S
C1137 C1131 1.429 . S
C1137 C1138 1.523 . S
C1138 C1119 1.368 1_565 S
C1138 C1132 1.368 . S
C1138 C1137 1.523 . S
C1139 C1123 1.429 . S
C1139 C1135 1.429 . S
C1139 C1140 1.523 . S
C1140 C1124 1.368 1_545 S
C1140 C1136 1.368 . S
C1140 C1139 1.523 . S
H1141 C1116 0.950 . S
H1142 C1118 0.950 . S
H1143 C1119 0.949 . S
H1144 C1121 0.950 . S
H1145 C1123 0.950 . S
C1146 C1147 1.349 . S
C1146 C1148 1.327 . S
C1146 H1171 0.950 . S
C1147 C1146 1.349 . S
C1147 C1163 1.349 . S
C1148 C1146 1.327 . S
C1148 C1167 1.429 . S
C1148 H1172 0.950 . S
C1149 C1166 1.574 . S
C1149 C1168 1.368 . S
C1149 H1173 0.949 . S
H1150 C1154 0.949 . S
C1151 C1152 1.349 . S
C1151 C1153 1.327 . S
C1151 H1174 0.950 . S
C1152 C1151 1.349 . S
C1152 C1164 1.349 . S
C1153 C1151 1.327 . S
C1153 C1169 1.429 . S
C1153 H1175 0.950 . S
C1154 H1150 0.949 . S
C1154 C1162 1.574 . S
C1154 C1170 1.368 . S
H1155 C1163 0.950 . S
H1156 C1161 0.950 . S
H1157 C1162 0.949 . S
H1158 C1164 0.950 . S
H1159 C1165 0.950 . S
H1160 C1166 0.949 . S
C1161 H1156 0.950 . S
C1161 C1163 1.327 . S
C1161 C1167 1.429 . S
C1162 C1154 1.574 . S
C1162 H1157 0.949 . S
C1162 C1168 1.368 . S
C1163 C1147 1.349 . S
C1163 H1155 0.950 . S
C1163 C1161 1.327 . S
C1164 C1152 1.349 . S
C1164 H1158 0.950 . S
C1164 C1165 1.327 . S
C1165 H1159 0.950 . S
C1165 C1164 1.327 . S
C1165 C1169 1.429 . S
C1166 C1149 1.574 . S
C1166 H1160 0.949 . S
C1166 C1170 1.368 . S
C1167 C1148 1.429 . S
C1167 C1161 1.429 . S
C1167 C1168 1.523 . S
C1168 C1149 1.368 . S
C1168 C1162 1.368 . S
C1168 C1167 1.523 . S
C1169 C1153 1.429 . S
C1169 C1165 1.429 . S
C1169 C1170 1.523 . S
C1170 C1154 1.368 . S
C1170 C1166 1.368 . S
C1170 C1169 1.523 . S
H1171 C1146 0.950 . S
H1172 C1148 0.950 . S
H1173 C1149 0.949 . S
H1174 C1151 0.950 . S
H1175 C1153 0.950 . S
C1176 C1177 1.349 . S
C1176 C1178 1.327 . S
C1176 H1201 0.950 . S
C1177 C1176 1.349 . S
C1177 C1193 1.349 . S
C1178 C1176 1.327 . S
C1178 C1197 1.429 . S
C1178 H1202 0.950 . S
C1179 C1196 1.633 . S
C1179 C1198 1.334 1_655 S
C1179 H1203 0.934 . S
H1180 C1184 0.934 . S
C1181 C1182 1.349 . S
C1181 C1183 1.327 . S
C1181 H1204 0.950 . S
C1182 C1181 1.349 . S
C1182 C1194 1.349 . S
C1183 C1181 1.327 . S
C1183 C1199 1.429 . S
C1183 H1205 0.950 . S
C1184 H1180 0.934 . S
C1184 C1192 1.633 . S
C1184 C1200 1.334 1_455 S
H1185 C1193 0.950 . S
H1186 C1191 0.950 . S
H1187 C1192 0.949 . S
H1188 C1194 0.950 . S
H1189 C1195 0.950 . S
H1190 C1196 0.949 . S
C1191 H1186 0.950 . S
C1191 C1193 1.327 . S
C1191 C1197 1.429 . S
C1192 C1184 1.633 . S
C1192 H1187 0.949 . S
C1192 C1198 1.368 . S
C1193 C1177 1.349 . S
C1193 H1185 0.950 . S
C1193 C1191 1.327 . S
C1194 C1182 1.349 . S
C1194 H1188 0.950 . S
C1194 C1195 1.327 . S
C1195 H1189 0.950 . S
C1195 C1194 1.327 . S
C1195 C1199 1.429 . S
C1196 C1179 1.633 . S
C1196 H1190 0.949 . S
C1196 C1200 1.368 . S
C1197 C1178 1.429 . S
C1197 C1191 1.429 . S
C1197 C1198 1.523 . S
C1198 C1179 1.334 1_455 S
C1198 C1192 1.368 . S
C1198 C1197 1.523 . S
C1199 C1183 1.429 . S
C1199 C1195 1.429 . S
C1199 C1200 1.523 . S
C1200 C1184 1.334 1_655 S
C1200 C1196 1.368 . S
C1200 C1199 1.523 . S
H1201 C1176 0.950 . S
H1202 C1178 0.950 . S
H1203 C1179 0.934 . S
H1204 C1181 0.950 . S
H1205 C1183 0.950 . S
C1206 C1207 1.349 . S
C1206 C1208 1.327 . S
C1206 H1231 0.950 . S
C1207 C1206 1.349 . S
C1207 C1223 1.349 . S
C1208 C1206 1.327 . S
C1208 C1227 1.429 . S
C1208 H1232 0.950 . S
C1209 C1226 1.611 . S
C1209 C1228 1.314 1_565 S
C1209 H1233 0.945 . S
H1210 C1214 0.945 . S
C1211 C1212 1.349 . S
C1211 C1213 1.327 . S
C1211 H1234 0.950 . S
C1212 C1211 1.349 . S
C1212 C1224 1.349 . S
C1213 C1211 1.327 . S
C1213 C1229 1.429 . S
C1213 H1235 0.950 . S
C1214 H1210 0.945 . S
C1214 C1222 1.611 . S
C1214 C1230 1.315 1_545 S
H1215 C1223 0.950 . S
H1216 C1221 0.950 . S
H1217 C1222 0.949 . S
H1218 C1224 0.950 . S
H1219 C1225 0.950 . S
H1220 C1226 0.949 . S
C1221 H1216 0.950 . S
C1221 C1223 1.327 . S
C1221 C1227 1.429 . S
C1222 C1214 1.611 . S
C1222 H1217 0.949 . S
C1222 C1228 1.368 1_554 S
C1223 C1207 1.349 . S
C1223 H1215 0.950 . S
C1223 C1221 1.327 . S
C1224 C1212 1.349 . S
C1224 H1218 0.950 . S
C1224 C1225 1.327 . S
C1225 H1219 0.950 . S
C1225 C1224 1.327 . S
C1225 C1229 1.429 . S
C1226 C1209 1.611 . S
C1226 H1220 0.949 . S
C1226 C1230 1.368 1_556 S
C1227 C1208 1.429 . S
C1227 C1221 1.429 . S
C1227 C1228 1.523 . S
C1228 C1209 1.314 1_545 S
C1228 C1222 1.368 1_556 S
C1228 C1227 1.523 . S
C1229 C1213 1.429 . S
C1229 C1225 1.429 . S
C1229 C1230 1.523 . S
C1230 C1214 1.315 1_565 S
C1230 C1226 1.368 1_554 S
C1230 C1229 1.523 . S
H1231 C1206 0.950 . S
H1232 C1208 0.950 . S
H1233 C1209 0.945 . S
H1234 C1211 0.950 . S
H1235 C1213 0.950 . S
C1236 C1237 1.349 . S
C1236 C1238 1.327 . S
C1236 H1261 0.950 . S
C1237 C1236 1.349 . S
C1237 C1253 1.349 . S
C1238 C1236 1.327 . S
C1238 C1257 1.429 . S
C1238 H1262 0.950 . S
C1239 C1256 1.574 . S
C1239 C1258 1.368 . S
C1239 H1263 0.949 . S
H1240 C1244 0.949 . S
C1241 C1242 1.349 . S
C1241 C1243 1.327 . S
C1241 H1264 0.950 . S
C1242 C1241 1.349 . S
C1242 C1254 1.349 . S
C1243 C1241 1.327 . S
C1243 C1259 1.429 . S
C1243 H1265 0.950 . S
C1244 H1240 0.949 . S
C1244 C1252 1.574 . S
C1244 C1260 1.368 . S
H1245 C1253 0.950 . S
H1246 C1251 0.950 . S
H1247 C1252 0.949 . S
H1248 C1254 0.950 . S
H1249 C1255 0.950 . S
H1250 C1256 0.949 . S
C1251 H1246 0.950 . S
C1251 C1253 1.327 . S
C1251 C1257 1.429 . S
C1252 C1244 1.574 . S
C1252 H1247 0.949 . S
C1252 C1258 1.368 . S
C1253 C1237 1.349 . S
C1253 H1245 0.950 . S
C1253 C1251 1.327 . S
C1254 C1242 1.349 . S
C1254 H1248 0.950 . S
C1254 C1255 1.327 . S
C1255 H1249 0.950 . S
C1255 C1254 1.327 . S
C1255 C1259 1.429 . S
C1256 C1239 1.574 . S
C1256 H1250 0.949 . S
C1256 C1260 1.368 . S
C1257 C1238 1.429 . S
C1257 C1251 1.429 . S
C1257 C1258 1.523 . S
C1258 C1239 1.368 . S
C1258 C1252 1.368 . S
C1258 C1257 1.523 . S
C1259 C1243 1.429 . S
C1259 C1255 1.429 . S
C1259 C1260 1.523 . S
C1260 C1244 1.368 . S
C1260 C1256 1.368 . S
C1260 C1259 1.523 . S
H1261 C1236 0.950 . S
H1262 C1238 0.950 . S
H1263 C1239 0.949 . S
H1264 C1241 0.950 . S
H1265 C1243 0.950 . S
C1266 C1267 1.349 . S
C1266 C1268 1.327 . S
C1266 H1291 0.950 . S
C1267 C1266 1.349 . S
C1267 C1283 1.349 . S
C1268 C1266 1.327 . S
C1268 C1287 1.429 . S
C1268 H1292 0.950 . S
C1269 C1286 1.574 . S
C1269 C1288 1.368 . S
C1269 H1293 0.949 . S
H1270 C1274 0.949 . S
C1271 C1272 1.349 . S
C1271 C1273 1.327 . S
C1271 H1294 0.950 . S
C1272 C1271 1.349 . S
C1272 C1284 1.349 . S
C1273 C1271 1.327 . S
C1273 C1289 1.429 . S
C1273 H1295 0.950 . S
C1274 H1270 0.949 . S
C1274 C1282 1.574 . S
C1274 C1290 1.368 . S
H1275 C1283 0.950 . S
H1276 C1281 0.950 . S
H1277 C1282 0.949 . S
H1278 C1284 0.950 . S
H1279 C1285 0.950 . S
H1280 C1286 0.949 . S
C1281 H1276 0.950 . S
C1281 C1283 1.327 . S
C1281 C1287 1.429 . S
C1282 C1274 1.574 . S
C1282 H1277 0.949 . S
C1282 C1288 1.368 . S
C1283 C1267 1.349 . S
C1283 H1275 0.950 . S
C1283 C1281 1.327 . S
C1284 C1272 1.349 . S
C1284 H1278 0.950 . S
C1284 C1285 1.327 . S
C1285 H1279 0.950 . S
C1285 C1284 1.327 . S
C1285 C1289 1.429 . S
C1286 C1269 1.574 . S
C1286 H1280 0.949 . S
C1286 C1290 1.368 . S
C1287 C1268 1.429 . S
C1287 C1281 1.429 . S
C1287 C1288 1.523 . S
C1288 C1269 1.368 . S
C1288 C1282 1.368 . S
C1288 C1287 1.523 . S
C1289 C1273 1.429 . S
C1289 C1285 1.429 . S
C1289 C1290 1.523 . S
C1290 C1274 1.368 . S
C1290 C1286 1.368 . S
C1290 C1289 1.523 . S
H1291 C1266 0.950 . S
H1292 C1268 0.950 . S
H1293 C1269 0.949 . S
H1294 C1271 0.950 . S
H1295 C1273 0.950 . S
C1296 C1297 1.349 . S
C1296 C1298 1.327 . S
C1296 H1321 0.950 . S
C1297 C1296 1.349 . S
C1297 C1313 1.349 . S
C1298 C1296 1.327 . S
C1298 C1317 1.429 . S
C1298 H1322 0.950 . S
C1299 C1316 1.574 . S
C1299 C1318 1.368 . S
C1299 H1323 0.949 . S
H1300 C1304 0.949 . S
C1301 C1302 1.349 . S
C1301 C1303 1.327 . S
C1301 H1324 0.950 . S
C1302 C1301 1.349 . S
C1302 C1314 1.349 . S
C1303 C1301 1.327 . S
C1303 C1319 1.429 . S
C1303 H1325 0.950 . S
C1304 H1300 0.949 . S
C1304 C1312 1.574 . S
C1304 C1320 1.368 . S
H1305 C1313 0.950 . S
H1306 C1311 0.950 . S
H1307 C1312 0.949 . S
H1308 C1314 0.950 . S
H1309 C1315 0.950 . S
H1310 C1316 0.949 . S
C1311 H1306 0.950 . S
C1311 C1313 1.327 . S
C1311 C1317 1.429 . S
C1312 C1304 1.574 . S
C1312 H1307 0.949 . S
C1312 C1318 1.368 . S
C1313 C1297 1.349 . S
C1313 H1305 0.950 . S
C1313 C1311 1.327 . S
C1314 C1302 1.349 . S
C1314 H1308 0.950 . S
C1314 C1315 1.327 . S
C1315 H1309 0.950 . S
C1315 C1314 1.327 . S
C1315 C1319 1.429 . S
C1316 C1299 1.574 . S
C1316 H1310 0.949 . S
C1316 C1320 1.368 . S
C1317 C1298 1.429 . S
C1317 C1311 1.429 . S
C1317 C1318 1.523 . S
C1318 C1299 1.368 . S
C1318 C1312 1.368 . S
C1318 C1317 1.523 . S
C1319 C1303 1.429 . S
C1319 C1315 1.429 . S
C1319 C1320 1.523 . S
C1320 C1304 1.368 . S
C1320 C1316 1.368 . S
C1320 C1319 1.523 . S
H1321 C1296 0.950 . S
H1322 C1298 0.950 . S
H1323 C1299 0.949 . S
H1324 C1301 0.950 . S
H1325 C1303 0.950 . S
C1326 C1327 1.349 . S
C1326 C1328 1.327 . S
C1326 H1351 0.950 . S
C1327 C1326 1.349 . S
C1327 C1343 1.349 . S
C1328 C1326 1.327 . S
C1328 C1347 1.429 . S
C1328 H1352 0.950 . S
C1329 C1346 1.574 . S
C1329 C1348 1.368 . S
C1329 H1353 0.949 . S
H1330 C1334 0.949 . S
C1331 C1332 1.349 . S
C1331 C1333 1.327 . S
C1331 H1354 0.950 . S
C1332 C1331 1.349 . S
C1332 C1344 1.349 . S
C1333 C1331 1.327 . S
C1333 C1349 1.429 . S
C1333 H1355 0.950 . S
C1334 H1330 0.949 . S
C1334 C1342 1.574 . S
C1334 C1350 1.368 . S
H1335 C1343 0.950 . S
H1336 C1341 0.950 . S
H1337 C1342 0.949 . S
H1338 C1344 0.950 . S
H1339 C1345 0.950 . S
H1340 C1346 0.949 . S
C1341 H1336 0.950 . S
C1341 C1343 1.327 . S
C1341 C1347 1.429 . S
C1342 C1334 1.574 . S
C1342 H1337 0.949 . S
C1342 C1348 1.368 . S
C1343 C1327 1.349 . S
C1343 H1335 0.950 . S
C1343 C1341 1.327 . S
C1344 C1332 1.349 . S
C1344 H1338 0.950 . S
C1344 C1345 1.327 . S
C1345 H1339 0.950 . S
C1345 C1344 1.327 . S
C1345 C1349 1.429 . S
C1346 C1329 1.574 . S
C1346 H1340 0.949 . S
C1346 C1350 1.368 . S
C1347 C1328 1.429 . S
C1347 C1341 1.429 . S
C1347 C1348 1.523 . S
C1348 C1329 1.368 . S
C1348 C1342 1.368 . S
C1348 C1347 1.523 . S
C1349 C1333 1.429 . S
C1349 C1345 1.429 . S
C1349 C1350 1.523 . S
C1350 C1334 1.368 . S
C1350 C1346 1.368 . S
C1350 C1349 1.523 . S
H1351 C1326 0.950 . S
H1352 C1328 0.950 . S
H1353 C1329 0.949 . S
H1354 C1331 0.950 . S
H1355 C1333 0.950 . S
C1356 C1357 1.349 . S
C1356 C1358 1.327 . S
C1356 H1381 0.950 . S
C1357 C1356 1.349 . S
C1357 C1373 1.349 . S
C1358 C1356 1.327 . S
C1358 C1377 1.429 . S
C1358 H1382 0.950 . S
C1359 C1376 1.574 . S
C1359 C1378 1.368 . S
C1359 H1383 0.949 . S
H1360 C1364 0.949 . S
C1361 C1362 1.349 . S
C1361 C1363 1.327 . S
C1361 H1384 0.950 . S
C1362 C1361 1.349 . S
C1362 C1374 1.349 . S
C1363 C1361 1.327 . S
C1363 C1379 1.429 . S
C1363 H1385 0.950 . S
C1364 H1360 0.949 . S
C1364 C1372 1.574 . S
C1364 C1380 1.368 . S
H1365 C1373 0.950 . S
H1366 C1371 0.950 . S
H1367 C1372 0.949 . S
H1368 C1374 0.950 . S
H1369 C1375 0.950 . S
H1370 C1376 0.949 . S
C1371 H1366 0.950 . S
C1371 C1373 1.327 . S
C1371 C1377 1.429 . S
C1372 C1364 1.574 . S
C1372 H1367 0.949 . S
C1372 C1378 1.368 . S
C1373 C1357 1.349 . S
C1373 H1365 0.950 . S
C1373 C1371 1.327 . S
C1374 C1362 1.349 . S
C1374 H1368 0.950 . S
C1374 C1375 1.327 . S
C1375 H1369 0.950 . S
C1375 C1374 1.327 . S
C1375 C1379 1.429 . S
C1376 C1359 1.574 . S
C1376 H1370 0.949 . S
C1376 C1380 1.368 . S
C1377 C1358 1.429 . S
C1377 C1371 1.429 . S
C1377 C1378 1.523 . S
C1378 C1359 1.368 . S
C1378 C1372 1.368 . S
C1378 C1377 1.523 . S
C1379 C1363 1.429 . S
C1379 C1375 1.429 . S
C1379 C1380 1.523 . S
C1380 C1364 1.368 . S
C1380 C1376 1.368 . S
C1380 C1379 1.523 . S
H1381 C1356 0.950 . S
H1382 C1358 0.950 . S
H1383 C1359 0.949 . S
H1384 C1361 0.950 . S
H1385 C1363 0.950 . S
C1386 C1387 1.349 . S
C1386 C1388 1.327 . S
C1386 H1411 0.950 . S
C1387 C1386 1.349 . S
C1387 C1403 1.349 . S
C1388 C1386 1.327 . S
C1388 C1407 1.429 . S
C1388 H1412 0.950 . S
C1389 C1406 1.574 . S
C1389 C1408 1.368 . S
C1389 H1413 0.949 . S
H1390 C1394 0.949 . S
C1391 C1392 1.349 . S
C1391 C1393 1.327 . S
C1391 H1414 0.950 . S
C1392 C1391 1.349 . S
C1392 C1404 1.349 . S
C1393 C1391 1.327 . S
C1393 C1409 1.429 . S
C1393 H1415 0.950 . S
C1394 H1390 0.949 . S
C1394 C1402 1.574 . S
C1394 C1410 1.368 . S
H1395 C1403 0.950 . S
H1396 C1401 0.950 . S
H1397 C1402 0.949 . S
H1398 C1404 0.950 . S
H1399 C1405 0.950 . S
H1400 C1406 0.949 . S
C1401 H1396 0.950 . S
C1401 C1403 1.327 . S
C1401 C1407 1.429 . S
C1402 C1394 1.574 . S
C1402 H1397 0.949 . S
C1402 C1408 1.368 . S
C1403 C1387 1.349 . S
C1403 H1395 0.950 . S
C1403 C1401 1.327 . S
C1404 C1392 1.349 . S
C1404 H1398 0.950 . S
C1404 C1405 1.327 . S
C1405 H1399 0.950 . S
C1405 C1404 1.327 . S
C1405 C1409 1.429 . S
C1406 C1389 1.574 . S
C1406 H1400 0.949 . S
C1406 C1410 1.368 . S
C1407 C1388 1.429 . S
C1407 C1401 1.429 . S
C1407 C1408 1.523 . S
C1408 C1389 1.368 . S
C1408 C1402 1.368 . S
C1408 C1407 1.523 . S
C1409 C1393 1.429 . S
C1409 C1405 1.429 . S
C1409 C1410 1.523 . S
C1410 C1394 1.368 . S
C1410 C1406 1.368 . S
C1410 C1409 1.523 . S
H1411 C1386 0.950 . S
H1412 C1388 0.950 . S
H1413 C1389 0.949 . S
H1414 C1391 0.950 . S
H1415 C1393 0.950 . S
C1416 C1417 1.349 . S
C1416 C1418 1.327 . S
C1416 H1441 0.950 . S
C1417 C1416 1.349 . S
C1417 C1433 1.349 . S
C1418 C1416 1.327 . S
C1418 C1437 1.429 . S
C1418 H1442 0.950 . S
C1419 C1436 1.574 . S
C1419 C1438 1.368 . S
C1419 H1443 0.949 . S
H1420 C1424 0.949 . S
C1421 C1422 1.349 . S
C1421 C1423 1.327 . S
C1421 H1444 0.950 . S
C1422 C1421 1.349 . S
C1422 C1434 1.349 . S
C1423 C1421 1.327 . S
C1423 C1439 1.429 . S
C1423 H1445 0.950 . S
C1424 H1420 0.949 . S
C1424 C1432 1.574 . S
C1424 C1440 1.368 . S
H1425 C1433 0.950 . S
H1426 C1431 0.950 . S
H1427 C1432 0.949 . S
H1428 C1434 0.950 . S
H1429 C1435 0.950 . S
H1430 C1436 0.949 . S
C1431 H1426 0.950 . S
C1431 C1433 1.327 . S
C1431 C1437 1.429 . S
C1432 C1424 1.574 . S
C1432 H1427 0.949 . S
C1432 C1438 1.368 . S
C1433 C1417 1.349 . S
C1433 H1425 0.950 . S
C1433 C1431 1.327 . S
C1434 C1422 1.349 . S
C1434 H1428 0.950 . S
C1434 C1435 1.327 . S
C1435 H1429 0.950 . S
C1435 C1434 1.327 . S
C1435 C1439 1.429 . S
C1436 C1419 1.574 . S
C1436 H1430 0.949 . S
C1436 C1440 1.368 . S
C1437 C1418 1.429 . S
C1437 C1431 1.429 . S
C1437 C1438 1.523 . S
C1438 C1419 1.368 . S
C1438 C1432 1.368 . S
C1438 C1437 1.523 . S
C1439 C1423 1.429 . S
C1439 C1435 1.429 . S
C1439 C1440 1.523 . S
C1440 C1424 1.368 . S
C1440 C1436 1.368 . S
C1440 C1439 1.523 . S
H1441 C1416 0.950 . S
H1442 C1418 0.950 . S
H1443 C1419 0.949 . S
H1444 C1421 0.950 . S
H1445 C1423 0.950 . S
C1446 C1447 1.349 . S
C1446 C1448 1.327 . S
C1446 H1471 0.950 . S
C1447 C1446 1.349 . S
C1447 C1463 1.349 . S
C1448 C1446 1.327 . S
C1448 C1467 1.429 . S
C1448 H1472 0.950 . S
C1449 C1466 1.574 . S
C1449 C1468 1.368 1_455 S
C1449 H1473 0.949 . S
H1450 C1454 0.949 . S
C1451 C1452 1.349 . S
C1451 C1453 1.327 . S
C1451 H1474 0.950 . S
C1452 C1451 1.349 . S
C1452 C1464 1.349 . S
C1453 C1451 1.327 . S
C1453 C1469 1.429 . S
C1453 H1475 0.950 . S
C1454 H1450 0.949 . S
C1454 C1462 1.574 . S
C1454 C1470 1.368 1_655 S
H1455 C1463 0.950 . S
H1456 C1461 0.950 . S
H1457 C1462 0.949 . S
H1458 C1464 0.950 . S
H1459 C1465 0.950 . S
H1460 C1466 0.949 . S
C1461 H1456 0.950 . S
C1461 C1463 1.327 . S
C1461 C1467 1.429 . S
C1462 C1454 1.574 . S
C1462 H1457 0.949 . S
C1462 C1468 1.368 . S
C1463 C1447 1.349 . S
C1463 H1455 0.950 . S
C1463 C1461 1.327 . S
C1464 C1452 1.349 . S
C1464 H1458 0.950 . S
C1464 C1465 1.327 . S
C1465 H1459 0.950 . S
C1465 C1464 1.327 . S
C1465 C1469 1.429 . S
C1466 C1449 1.574 . S
C1466 H1460 0.949 . S
C1466 C1470 1.368 . S
C1467 C1448 1.429 . S
C1467 C1461 1.429 . S
C1467 C1468 1.523 . S
C1468 C1449 1.368 1_655 S
C1468 C1462 1.368 . S
C1468 C1467 1.523 . S
C1469 C1453 1.429 . S
C1469 C1465 1.429 . S
C1469 C1470 1.523 . S
C1470 C1454 1.368 1_455 S
C1470 C1466 1.368 . S
C1470 C1469 1.523 . S
H1471 C1446 0.950 . S
H1472 C1448 0.950 . S
H1473 C1449 0.949 . S
H1474 C1451 0.950 . S
H1475 C1453 0.950 . S
C1476 C1477 1.349 . S
C1476 C1478 1.327 . S
C1476 H1501 0.950 . S
C1477 C1476 1.349 . S
C1477 C1493 1.349 . S
C1478 C1476 1.327 . S
C1478 C1497 1.429 . S
C1478 H1502 0.950 . S
C1479 C1496 1.574 1_554 S
C1479 C1498 1.368 1_545 S
C1479 H1503 0.949 . S
H1480 C1484 0.949 . S
C1481 C1482 1.349 . S
C1481 C1483 1.327 . S
C1481 H1504 0.950 . S
C1482 C1481 1.349 . S
C1482 C1494 1.349 . S
C1483 C1481 1.327 . S
C1483 C1499 1.429 . S
C1483 H1505 0.950 . S
C1484 H1480 0.949 . S
C1484 C1492 1.574 1_556 S
C1484 C1500 1.368 1_565 S
H1485 C1493 0.950 . S
H1486 C1491 0.950 . S
H1487 C1492 0.949 . S
H1488 C1494 0.950 . S
H1489 C1495 0.950 . S
H1490 C1496 0.949 . S
C1491 H1486 0.950 . S
C1491 C1493 1.327 . S
C1491 C1497 1.429 . S
C1492 C1484 1.574 1_554 S
C1492 H1487 0.949 . S
C1492 C1498 1.368 . S
C1493 C1477 1.349 . S
C1493 H1485 0.950 . S
C1493 C1491 1.327 . S
C1494 C1482 1.349 . S
C1494 H1488 0.950 . S
C1494 C1495 1.327 . S
C1495 H1489 0.950 . S
C1495 C1494 1.327 . S
C1495 C1499 1.429 . S
C1496 C1479 1.574 1_556 S
C1496 H1490 0.949 . S
C1496 C1500 1.368 . S
C1497 C1478 1.429 . S
C1497 C1491 1.429 . S
C1497 C1498 1.523 . S
C1498 C1479 1.368 1_565 S
C1498 C1492 1.368 . S
C1498 C1497 1.523 . S
C1499 C1483 1.429 . S
C1499 C1495 1.429 . S
C1499 C1500 1.523 . S
C1500 C1484 1.368 1_545 S
C1500 C1496 1.368 . S
C1500 C1499 1.523 . S
H1501 C1476 0.950 . S
H1502 C1478 0.950 . S
H1503 C1479 0.949 . S
H1504 C1481 0.950 . S
H1505 C1483 0.950 . S
C1506 C1507 1.349 . S
C1506 C1508 1.327 . S
C1506 H1531 0.950 . S
C1507 C1506 1.349 . S
C1507 C1523 1.349 . S
C1508 C1506 1.327 . S
C1508 C1527 1.429 . S
C1508 H1532 0.950 . S
C1509 C1526 1.574 . S
C1509 C1528 1.368 . S
C1509 H1533 0.949 . S
H1510 C1514 0.949 . S
C1511 C1512 1.349 . S
C1511 C1513 1.327 . S
C1511 H1534 0.950 . S
C1512 C1511 1.349 . S
C1512 C1524 1.349 . S
C1513 C1511 1.327 . S
C1513 C1529 1.429 . S
C1513 H1535 0.950 . S
C1514 H1510 0.949 . S
C1514 C1522 1.574 . S
C1514 C1530 1.368 . S
H1515 C1523 0.950 . S
H1516 C1521 0.950 . S
H1517 C1522 0.949 . S
H1518 C1524 0.950 . S
H1519 C1525 0.950 . S
H1520 C1526 0.949 . S
C1521 H1516 0.950 . S
C1521 C1523 1.327 . S
C1521 C1527 1.429 . S
C1522 C1514 1.574 . S
C1522 H1517 0.949 . S
C1522 C1528 1.368 . S
C1523 C1507 1.349 . S
C1523 H1515 0.950 . S
C1523 C1521 1.327 . S
C1524 C1512 1.349 . S
C1524 H1518 0.950 . S
C1524 C1525 1.327 . S
C1525 H1519 0.950 . S
C1525 C1524 1.327 . S
C1525 C1529 1.429 . S
C1526 C1509 1.574 . S
C1526 H1520 0.949 . S
C1526 C1530 1.368 . S
C1527 C1508 1.429 . S
C1527 C1521 1.429 . S
C1527 C1528 1.523 . S
C1528 C1509 1.368 . S
C1528 C1522 1.368 . S
C1528 C1527 1.523 . S
C1529 C1513 1.429 . S
C1529 C1525 1.429 . S
C1529 C1530 1.523 . S
C1530 C1514 1.368 . S
C1530 C1526 1.368 . S
C1530 C1529 1.523 . S
H1531 C1506 0.950 . S
H1532 C1508 0.950 . S
H1533 C1509 0.949 . S
H1534 C1511 0.950 . S
H1535 C1513 0.950 . S
C1536 C1537 1.349 . S
C1536 C1538 1.327 . S
C1536 H1561 0.950 . S
C1537 C1536 1.349 . S
C1537 C1553 1.349 . S
C1538 C1536 1.327 . S
C1538 C1557 1.429 . S
C1538 H1562 0.950 . S
C1539 C1556 1.574 . S
C1539 C1558 1.368 1_655 S
C1539 H1563 0.949 . S
H1540 C1544 0.949 . S
C1541 C1542 1.349 . S
C1541 C1543 1.327 . S
C1541 H1564 0.950 . S
C1542 C1541 1.349 . S
C1542 C1554 1.349 . S
C1543 C1541 1.327 . S
C1543 C1559 1.429 . S
C1543 H1565 0.950 . S
C1544 H1540 0.949 . S
C1544 C1552 1.574 . S
C1544 C1560 1.368 1_455 S
H1545 C1553 0.950 . S
H1546 C1551 0.950 . S
H1547 C1552 0.949 . S
H1548 C1554 0.950 . S
H1549 C1555 0.950 . S
H1550 C1556 0.949 . S
C1551 H1546 0.950 . S
C1551 C1553 1.327 . S
C1551 C1557 1.429 . S
C1552 C1544 1.574 . S
C1552 H1547 0.949 . S
C1552 C1558 1.368 . S
C1553 C1537 1.349 . S
C1553 H1545 0.950 . S
C1553 C1551 1.327 . S
C1554 C1542 1.349 . S
C1554 H1548 0.950 . S
C1554 C1555 1.327 . S
C1555 H1549 0.950 . S
C1555 C1554 1.327 . S
C1555 C1559 1.429 . S
C1556 C1539 1.574 . S
C1556 H1550 0.949 . S
C1556 C1560 1.368 . S
C1557 C1538 1.429 . S
C1557 C1551 1.429 . S
C1557 C1558 1.523 . S
C1558 C1539 1.368 1_455 S
C1558 C1552 1.368 . S
C1558 C1557 1.523 . S
C1559 C1543 1.429 . S
C1559 C1555 1.429 . S
C1559 C1560 1.523 . S
C1560 C1544 1.368 1_655 S
C1560 C1556 1.368 . S
C1560 C1559 1.523 . S
H1561 C1536 0.950 . S
H1562 C1538 0.950 . S
H1563 C1539 0.949 . S
H1564 C1541 0.950 . S
H1565 C1543 0.950 . S
C1566 C1567 1.349 . S
C1566 C1568 1.327 . S
C1566 H1591 0.950 . S
C1567 C1566 1.349 . S
C1567 C1583 1.349 . S
C1568 C1566 1.327 . S
C1568 C1587 1.429 . S
C1568 H1592 0.950 . S
C1569 C1586 1.574 1_565 S
C1569 C1588 1.368 . S
C1569 H1593 0.949 . S
H1570 C1574 0.949 . S
C1571 C1572 1.349 . S
C1571 C1573 1.327 . S
C1571 H1594 0.950 . S
C1572 C1571 1.349 . S
C1572 C1584 1.349 . S
C1573 C1571 1.327 . S
C1573 C1589 1.429 . S
C1573 H1595 0.950 . S
C1574 H1570 0.949 . S
C1574 C1582 1.574 1_545 S
C1574 C1590 1.368 . S
H1575 C1583 0.950 . S
H1576 C1581 0.950 . S
H1577 C1582 0.949 . S
H1578 C1584 0.950 . S
H1579 C1585 0.950 . S
H1580 C1586 0.949 . S
C1581 H1576 0.950 . S
C1581 C1583 1.327 . S
C1581 C1587 1.429 . S
C1582 C1574 1.574 1_565 S
C1582 H1577 0.949 . S
C1582 C1588 1.368 . S
C1583 C1567 1.349 . S
C1583 H1575 0.950 . S
C1583 C1581 1.327 . S
C1584 C1572 1.349 . S
C1584 H1578 0.950 . S
C1584 C1585 1.327 . S
C1585 H1579 0.950 . S
C1585 C1584 1.327 . S
C1585 C1589 1.429 . S
C1586 C1569 1.574 1_545 S
C1586 H1580 0.949 . S
C1586 C1590 1.368 . S
C1587 C1568 1.429 . S
C1587 C1581 1.429 . S
C1587 C1588 1.523 . S
C1588 C1569 1.368 . S
C1588 C1582 1.368 . S
C1588 C1587 1.523 . S
C1589 C1573 1.429 . S
C1589 C1585 1.429 . S
C1589 C1590 1.523 . S
C1590 C1574 1.368 . S
C1590 C1586 1.368 . S
C1590 C1589 1.523 . S
H1591 C1566 0.950 . S
H1592 C1568 0.950 . S
H1593 C1569 0.949 . S
H1594 C1571 0.950 . S
H1595 C1573 0.950 . S
C1596 C1597 1.349 . S
C1596 C1598 1.327 . S
C1596 H1621 0.950 . S
C1597 C1596 1.349 . S
C1597 C1613 1.349 . S
C1598 C1596 1.327 . S
C1598 C1617 1.429 . S
C1598 H1622 0.950 . S
C1599 C1616 1.574 . S
C1599 C1618 1.368 . S
C1599 H1623 0.949 . S
H1600 C1604 0.949 . S
C1601 C1602 1.349 . S
C1601 C1603 1.327 . S
C1601 H1624 0.950 . S
C1602 C1601 1.349 . S
C1602 C1614 1.349 . S
C1603 C1601 1.327 . S
C1603 C1619 1.429 . S
C1603 H1625 0.950 . S
C1604 H1600 0.949 . S
C1604 C1612 1.574 . S
C1604 C1620 1.368 . S
H1605 C1613 0.950 . S
H1606 C1611 0.950 . S
H1607 C1612 0.949 . S
H1608 C1614 0.950 . S
H1609 C1615 0.950 . S
H1610 C1616 0.949 . S
C1611 H1606 0.950 . S
C1611 C1613 1.327 . S
C1611 C1617 1.429 . S
C1612 C1604 1.574 . S
C1612 H1607 0.949 . S
C1612 C1618 1.368 . S
C1613 C1597 1.349 . S
C1613 H1605 0.950 . S
C1613 C1611 1.327 . S
C1614 C1602 1.349 . S
C1614 H1608 0.950 . S
C1614 C1615 1.327 . S
C1615 H1609 0.950 . S
C1615 C1614 1.327 . S
C1615 C1619 1.429 . S
C1616 C1599 1.574 . S
C1616 H1610 0.949 . S
C1616 C1620 1.368 . S
C1617 C1598 1.429 . S
C1617 C1611 1.429 . S
C1617 C1618 1.523 . S
C1618 C1599 1.368 . S
C1618 C1612 1.368 . S
C1618 C1617 1.523 . S
C1619 C1603 1.429 . S
C1619 C1615 1.429 . S
C1619 C1620 1.523 . S
C1620 C1604 1.368 . S
C1620 C1616 1.368 . S
C1620 C1619 1.523 . S
H1621 C1596 0.950 . S
H1622 C1598 0.950 . S
H1623 C1599 0.949 . S
H1624 C1601 0.950 . S
H1625 C1603 0.950 . S
C1626 C1627 1.349 . S
C1626 C1628 1.327 . S
C1626 H1651 0.950 . S
C1627 C1626 1.349 . S
C1627 C1643 1.349 . S
C1628 C1626 1.327 . S
C1628 C1647 1.429 . S
C1628 H1652 0.950 . S
C1629 C1646 1.574 . S
C1629 C1648 1.368 . S
C1629 H1653 0.949 . S
H1630 C1634 0.949 . S
C1631 C1632 1.349 . S
C1631 C1633 1.327 . S
C1631 H1654 0.950 . S
C1632 C1631 1.349 . S
C1632 C1644 1.349 . S
C1633 C1631 1.327 . S
C1633 C1649 1.429 . S
C1633 H1655 0.950 . S
C1634 H1630 0.949 . S
C1634 C1642 1.574 . S
C1634 C1650 1.368 . S
H1635 C1643 0.950 . S
H1636 C1641 0.950 . S
H1637 C1642 0.949 . S
H1638 C1644 0.950 . S
H1639 C1645 0.950 . S
H1640 C1646 0.949 . S
C1641 H1636 0.950 . S
C1641 C1643 1.327 . S
C1641 C1647 1.429 . S
C1642 C1634 1.574 . S
C1642 H1637 0.949 . S
C1642 C1648 1.368 . S
C1643 C1627 1.349 . S
C1643 H1635 0.950 . S
C1643 C1641 1.327 . S
C1644 C1632 1.349 . S
C1644 H1638 0.950 . S
C1644 C1645 1.327 . S
C1645 H1639 0.950 . S
C1645 C1644 1.327 . S
C1645 C1649 1.429 . S
C1646 C1629 1.574 . S
C1646 H1640 0.949 . S
C1646 C1650 1.368 . S
C1647 C1628 1.429 . S
C1647 C1641 1.429 . S
C1647 C1648 1.523 . S
C1648 C1629 1.368 . S
C1648 C1642 1.368 . S
C1648 C1647 1.523 . S
C1649 C1633 1.429 . S
C1649 C1645 1.429 . S
C1649 C1650 1.523 . S
C1650 C1634 1.368 . S
C1650 C1646 1.368 . S
C1650 C1649 1.523 . S
H1651 C1626 0.950 . S
H1652 C1628 0.950 . S
H1653 C1629 0.949 . S
H1654 C1631 0.950 . S
H1655 C1633 0.950 . S
C1656 C1657 1.349 . S
C1656 C1658 1.332 . S
C1656 H1681 0.950 . S
C1657 C1656 1.349 . S
C1657 C1673 1.349 1_554 S
C1658 C1656 1.332 . S
C1658 C1677 1.423 1_554 S
C1658 H1682 0.950 . S
C1659 C1676 1.574 . S
C1659 C1678 1.368 . S
C1659 H1683 0.949 . S
H1660 C1664 0.949 . S
C1661 C1662 1.349 . S
C1661 C1663 1.327 . S
C1661 H1684 0.950 . S
C1662 C1661 1.349 . S
C1662 C1674 1.349 . S
C1663 C1661 1.327 . S
C1663 C1679 1.429 . S
C1663 H1685 0.950 . S
C1664 H1660 0.949 . S
C1664 C1672 1.574 . S
C1664 C1680 1.368 . S
H1665 C1673 0.950 . S
H1666 C1671 0.950 . S
H1667 C1672 0.949 . S
H1668 C1674 0.950 . S
H1669 C1675 0.950 . S
H1670 C1676 0.949 . S
C1671 H1666 0.950 . S
C1671 C1673 1.327 . S
C1671 C1677 1.429 . S
C1672 C1664 1.574 . S
C1672 H1667 0.949 . S
C1672 C1678 1.368 . S
C1673 C1657 1.349 1_556 S
C1673 H1665 0.950 . S
C1673 C1671 1.327 . S
C1674 C1662 1.349 . S
C1674 H1668 0.950 . S
C1674 C1675 1.327 . S
C1675 H1669 0.950 . S
C1675 C1674 1.327 . S
C1675 C1679 1.429 . S
C1676 C1659 1.574 . S
C1676 H1670 0.949 . S
C1676 C1680 1.368 . S
C1677 C1658 1.423 1_556 S
C1677 C1671 1.429 . S
C1677 C1678 1.523 . S
C1678 C1659 1.368 . S
C1678 C1672 1.368 . S
C1678 C1677 1.523 . S
C1679 C1663 1.429 . S
C1679 C1675 1.429 . S
C1679 C1680 1.523 . S
C1680 C1664 1.368 . S
C1680 C1676 1.368 . S
C1680 C1679 1.523 . S
H1681 C1656 0.950 . S
H1682 C1658 0.950 . S
H1683 C1659 0.949 . S
H1684 C1661 0.950 . S
H1685 C1663 0.950 . S
C1686 C1687 1.349 . S
C1686 C1688 1.327 . S
C1686 H1711 0.950 . S
C1687 C1686 1.349 . S
C1687 C1703 1.349 . S
C1688 C1686 1.327 . S
C1688 C1707 1.429 . S
C1688 H1712 0.950 . S
C1689 C1706 1.574 . S
C1689 C1708 1.368 . S
C1689 H1713 0.949 . S
H1690 C1694 0.949 . S
C1691 C1692 1.349 . S
C1691 C1693 1.327 1_556 S
C1691 H1714 0.950 . S
C1692 C1691 1.349 . S
C1692 C1704 1.358 . S
C1693 C1691 1.327 1_554 S
C1693 C1709 1.429 . S
C1693 H1715 0.950 . S
C1694 H1690 0.949 . S
C1694 C1702 1.574 . S
C1694 C1710 1.368 . S
H1695 C1703 0.950 . S
H1696 C1701 0.950 . S
H1697 C1702 0.949 . S
H1698 C1704 0.952 . S
H1699 C1705 0.950 . S
H1700 C1706 0.949 . S
C1701 H1696 0.950 . S
C1701 C1703 1.327 . S
C1701 C1707 1.429 . S
C1702 C1694 1.574 . S
C1702 H1697 0.949 . S
C1702 C1708 1.368 . S
C1703 C1687 1.349 . S
C1703 H1695 0.950 . S
C1703 C1701 1.327 . S
C1704 C1692 1.358 . S
C1704 H1698 0.952 . S
C1704 C1705 1.316 1_556 S
C1705 H1699 0.950 . S
C1705 C1704 1.316 1_554 S
C1705 C1709 1.429 . S
C1706 C1689 1.574 . S
C1706 H1700 0.949 . S
C1706 C1710 1.368 . S
C1707 C1688 1.429 . S
C1707 C1701 1.429 . S
C1707 C1708 1.523 . S
C1708 C1689 1.368 . S
C1708 C1702 1.368 . S
C1708 C1707 1.523 . S
C1709 C1693 1.429 . S
C1709 C1705 1.429 . S
C1709 C1710 1.523 . S
C1710 C1694 1.368 . S
C1710 C1706 1.368 . S
C1710 C1709 1.523 . S
H1711 C1686 0.950 . S
H1712 C1688 0.950 . S
H1713 C1689 0.949 . S
H1714 C1691 0.950 . S
H1715 C1693 0.950 . S
C1716 C1717 1.349 . S
C1716 C1718 1.327 . S
C1716 H1741 0.950 . S
C1717 C1716 1.349 . S
C1717 C1733 1.349 . S
C1718 C1716 1.327 . S
C1718 C1737 1.429 . S
C1718 H1742 0.950 . S
C1719 C1736 1.574 . S
C1719 C1738 1.368 . S
C1719 H1743 0.949 . S
H1720 C1724 0.949 . S
C1721 C1722 1.349 . S
C1721 C1723 1.327 . S
C1721 H1744 0.950 . S
C1722 C1721 1.349 . S
C1722 C1734 1.349 . S
C1723 C1721 1.327 . S
C1723 C1739 1.429 . S
C1723 H1745 0.950 . S
C1724 H1720 0.949 . S
C1724 C1732 1.574 . S
C1724 C1740 1.368 . S
H1725 C1733 0.950 . S
H1726 C1731 0.950 . S
H1727 C1732 0.949 . S
H1728 C1734 0.950 . S
H1729 C1735 0.950 . S
H1730 C1736 0.949 . S
C1731 H1726 0.950 . S
C1731 C1733 1.327 . S
C1731 C1737 1.429 . S
C1732 C1724 1.574 . S
C1732 H1727 0.949 . S
C1732 C1738 1.368 . S
C1733 C1717 1.349 . S
C1733 H1725 0.950 . S
C1733 C1731 1.327 . S
C1734 C1722 1.349 . S
C1734 H1728 0.950 . S
C1734 C1735 1.327 . S
C1735 H1729 0.950 . S
C1735 C1734 1.327 . S
C1735 C1739 1.429 . S
C1736 C1719 1.574 . S
C1736 H1730 0.949 . S
C1736 C1740 1.368 . S
C1737 C1718 1.429 . S
C1737 C1731 1.429 . S
C1737 C1738 1.523 . S
C1738 C1719 1.368 . S
C1738 C1732 1.368 . S
C1738 C1737 1.523 . S
C1739 C1723 1.429 . S
C1739 C1735 1.429 . S
C1739 C1740 1.523 . S
C1740 C1724 1.368 . S
C1740 C1736 1.368 . S
C1740 C1739 1.523 . S
H1741 C1716 0.950 . S
H1742 C1718 0.950 . S
H1743 C1719 0.949 . S
H1744 C1721 0.950 . S
H1745 C1723 0.950 . S
C1746 C1747 1.349 . S
C1746 C1748 1.327 . S
C1746 H1771 0.950 . S
C1747 C1746 1.349 . S
C1747 C1763 1.349 . S
C1748 C1746 1.327 . S
C1748 C1767 1.429 . S
C1748 H1772 0.950 . S
C1749 C1766 1.574 . S
C1749 C1768 1.368 . S
C1749 H1773 0.949 . S
H1750 C1754 0.949 . S
C1751 C1752 1.349 . S
C1751 C1753 1.327 . S
C1751 H1774 0.950 . S
C1752 C1751 1.349 . S
C1752 C1764 1.349 . S
C1753 C1751 1.327 . S
C1753 C1769 1.429 . S
C1753 H1775 0.950 . S
C1754 H1750 0.949 . S
C1754 C1762 1.574 . S
C1754 C1770 1.368 . S
H1755 C1763 0.950 . S
H1756 C1761 0.950 . S
H1757 C1762 0.949 . S
H1758 C1764 0.950 . S
H1759 C1765 0.950 . S
H1760 C1766 0.949 . S
C1761 H1756 0.950 . S
C1761 C1763 1.327 . S
C1761 C1767 1.429 . S
C1762 C1754 1.574 . S
C1762 H1757 0.949 . S
C1762 C1768 1.368 . S
C1763 C1747 1.349 . S
C1763 H1755 0.950 . S
C1763 C1761 1.327 . S
C1764 C1752 1.349 . S
C1764 H1758 0.950 . S
C1764 C1765 1.327 . S
C1765 H1759 0.950 . S
C1765 C1764 1.327 . S
C1765 C1769 1.429 . S
C1766 C1749 1.574 . S
C1766 H1760 0.949 . S
C1766 C1770 1.368 . S
C1767 C1748 1.429 . S
C1767 C1761 1.429 . S
C1767 C1768 1.523 . S
C1768 C1749 1.368 . S
C1768 C1762 1.368 . S
C1768 C1767 1.523 . S
C1769 C1753 1.429 . S
C1769 C1765 1.429 . S
C1769 C1770 1.523 . S
C1770 C1754 1.368 . S
C1770 C1766 1.368 . S
C1770 C1769 1.523 . S
H1771 C1746 0.950 . S
H1772 C1748 0.950 . S
H1773 C1749 0.949 . S
H1774 C1751 0.950 . S
H1775 C1753 0.950 . S
C1057 C821 1.605 . S
C1062 C57 1.605 . S
C1087 C137 1.605 . S
C1092 C909 1.605 . S
C1117 C988 1.605 . S
C1122 C225 1.605 . S
C1147 C548 1.605 . S
C1152 C321 1.605 . S
C1177 C636 1.605 . S
C1182 C409 1.605 . S
C1207 C733 1.605 . S
C1212 C497 1.605 . S
C1237 C557 1.515 . S
C1242 C49 1.515 . S
C1267 C145 1.516 . S
C1272 C645 1.516 . S
C1297 C724 1.516 . S
C1302 C233 1.516 . S
C1327 C313 1.515 . S
C1332 C812 1.515 . S
C1357 C900 1.516 . S
C1362 C401 1.516 . S
C1387 C489 1.516 . S
C1392 C997 1.516 . S
C1417 C841 0.262 . S
C1422 C20 0.262 . S
C1447 C929 0.262 . S
C1452 C117 0.262 . S
C1477 C1025 0.262 . S
C1482 C205 0.262 . S
C1507 C284 0.262 . S
C1512 C585 0.262 . S
C1537 C673 0.262 . S
C1542 C372 0.262 . S
C1567 C460 0.262 . S
C1572 C753 0.262 . S
C1597 C29 1.481 . S
C1602 C761 1.481 . S
C1627 C849 1.481 . S
C1632 C108 1.481 . S
C1657 C937 1.481 . S
C1662 C196 1.481 . S
C1687 C1017 1.481 . S
C1692 C293 1.481 . S
C1717 C577 1.481 . S
C1722 C381 1.481 . S
C1747 C665 1.481 . S
C1752 C469 1.481 . S
