# Generated by pormake.
# Topology cag, (4)-cn, num edge types: 1
# Building blocks:
#     Node 0, Type 0, BuildingBlock: KUFVIS_clean_sbu_0, # of connection points: 4
#     Node 1, Type 0, BuildingBlock: KUFVIS_clean_sbu_0, # of connection points: 4
#     Node 2, Type 0, BuildingBlock: KUFVIS_clean_sbu_0, # of connection points: 4
#     Node 3, Type 0, BuildingBlock: KUFVIS_clean_sbu_0, # of connection points: 4
#     Node 4, Type 0, BuildingBlock: KUFVIS_clean_sbu_0, # of connection points: 4
#     Node 5, Type 0, BuildingBlock: KUFVIS_clean_sbu_0, # of connection points: 4
#     Node 6, Type 0, BuildingBlock: KUFVIS_clean_sbu_0, # of connection points: 4
#     Node 7, Type 0, BuildingBlock: KUFVIS_clean_sbu_0, # of connection points: 4
#     Node 8, Type 0, BuildingBlock: KUFVIS_clean_sbu_0, # of connection points: 4
#     Node 9, Type 0, BuildingBlock: KUFVIS_clean_sbu_0, # of connection points: 4
#     Node 10, Type 0, BuildingBlock: KUFVIS_clean_sbu_0, # of connection points: 4
#     Node 11, Type 0, BuildingBlock: KUFVIS_clean_sbu_0, # of connection points: 4
#     Node 12, Type 0, BuildingBlock: KUFVIS_clean_sbu_0, # of connection points: 4
#     Node 13, Type 0, BuildingBlock: KUFVIS_clean_sbu_0, # of connection points: 4
#     Node 14, Type 0, BuildingBlock: KUFVIS_clean_sbu_0, # of connection points: 4
#     Node 15, Type 0, BuildingBlock: KUFVIS_clean_sbu_0, # of connection points: 4
#     Edge 16, Type (0, 0), BuildingBlock: EZIPEK_clean_linker_0, # of connection points: 2
#     Edge 17, Type (0, 0), BuildingBlock: EZIPEK_clean_linker_0, # of connection points: 2
#     Edge 18, Type (0, 0), BuildingBlock: EZIPEK_clean_linker_0, # of connection points: 2
#     Edge 19, Type (0, 0), BuildingBlock: EZIPEK_clean_linker_0, # of connection points: 2
#     Edge 20, Type (0, 0), BuildingBlock: EZIPEK_clean_linker_0, # of connection points: 2
#     Edge 21, Type (0, 0), BuildingBlock: EZIPEK_clean_linker_0, # of connection points: 2
#     Edge 22, Type (0, 0), BuildingBlock: EZIPEK_clean_linker_0, # of connection points: 2
#     Edge 23, Type (0, 0), BuildingBlock: EZIPEK_clean_linker_0, # of connection points: 2
#     Edge 24, Type (0, 0), BuildingBlock: EZIPEK_clean_linker_0, # of connection points: 2
#     Edge 25, Type (0, 0), BuildingBlock: EZIPEK_clean_linker_0, # of connection points: 2
#     Edge 26, Type (0, 0), BuildingBlock: EZIPEK_clean_linker_0, # of connection points: 2
#     Edge 27, Type (0, 0), BuildingBlock: EZIPEK_clean_linker_0, # of connection points: 2
#     Edge 28, Type (0, 0), BuildingBlock: EZIPEK_clean_linker_0, # of connection points: 2
#     Edge 29, Type (0, 0), BuildingBlock: EZIPEK_clean_linker_0, # of connection points: 2
#     Edge 30, Type (0, 0), BuildingBlock: EZIPEK_clean_linker_0, # of connection points: 2
#     Edge 31, Type (0, 0), BuildingBlock: EZIPEK_clean_linker_0, # of connection points: 2
#     Edge 32, Type (0, 0), BuildingBlock: EZIPEK_clean_linker_0, # of connection points: 2
#     Edge 33, Type (0, 0), BuildingBlock: EZIPEK_clean_linker_0, # of connection points: 2
#     Edge 34, Type (0, 0), BuildingBlock: EZIPEK_clean_linker_0, # of connection points: 2
#     Edge 35, Type (0, 0), BuildingBlock: EZIPEK_clean_linker_0, # of connection points: 2
#     Edge 36, Type (0, 0), BuildingBlock: EZIPEK_clean_linker_0, # of connection points: 2
#     Edge 37, Type (0, 0), BuildingBlock: EZIPEK_clean_linker_0, # of connection points: 2
#     Edge 38, Type (0, 0), BuildingBlock: EZIPEK_clean_linker_0, # of connection points: 2
#     Edge 39, Type (0, 0), BuildingBlock: EZIPEK_clean_linker_0, # of connection points: 2
#     Edge 40, Type (0, 0), BuildingBlock: EZIPEK_clean_linker_0, # of connection points: 2
#     Edge 41, Type (0, 0), BuildingBlock: EZIPEK_clean_linker_0, # of connection points: 2
#     Edge 42, Type (0, 0), BuildingBlock: EZIPEK_clean_linker_0, # of connection points: 2
#     Edge 43, Type (0, 0), BuildingBlock: EZIPEK_clean_linker_0, # of connection points: 2
#     Edge 44, Type (0, 0), BuildingBlock: EZIPEK_clean_linker_0, # of connection points: 2
#     Edge 45, Type (0, 0), BuildingBlock: EZIPEK_clean_linker_0, # of connection points: 2
#     Edge 46, Type (0, 0), BuildingBlock: EZIPEK_clean_linker_0, # of connection points: 2
#     Edge 47, Type (0, 0), BuildingBlock: EZIPEK_clean_linker_0, # of connection points: 2
# Relax obj value: 0.085
# Max RMSD: 0.121
# Mean RMSD: 0.117
data_MOF--net-cag--node1-KUFVIS_clean_sbu_0--edge1-EZIPEK_clean_linker_0
_symmetry_space_group_name_H-M    P1
_symmetry_Int_Tables_number       1
_symmetry_cell_setting            triclinic
loop_
_symmetry_equiv_pos_as_xyz
'x, y, z'
_cell_length_a     30.726738
_cell_length_b     36.206988
_cell_length_c     30.188101
_cell_angle_alpha  90.01364
_cell_angle_beta   89.979501
_cell_angle_gamma 90.20883
loop_
_atom_site_label
_atom_site_type_symbol
_atom_site_fract_x
_atom_site_fract_y
_atom_site_fract_z
_atom_type_partial_charge
Mn0 Mn 0.32717 0.15156 0.08748 0.0
Mn1 Mn 0.36095 0.23002 0.13947 0.0
C2 C 0.39957 0.17041 0.07959 0.0
C3 C 0.31873 0.08914 0.06563 0.0
C4 C 0.30552 0.22971 0.05751 0.0
O5 O 0.2848 0.15387 0.14059 0.0
O6 O 0.30709 0.20936 0.16703 0.0
C7 C 0.3703 0.21955 0.23697 0.0
N8 N 0.38926 0.22901 0.19764 0.0
C9 C 0.44621 0.26678 0.24604 0.0
C10 C 0.42226 0.25584 0.28285 0.0
C11 C 0.38586 0.23252 0.27821 0.0
C12 C 0.42397 0.25193 0.19738 0.0
H13 H 0.34169 0.20233 0.23748 0.0
C14 C 0.28348 0.17997 0.16962 0.0
O15 O 0.29308 0.11492 0.05235 0.0
O16 O 0.34508 0.09821 0.09771 0.0
N17 N 0.41372 0.24953 0.11512 0.0
C18 C 0.42114 0.25902 0.07229 0.0
C19 C 0.45966 0.27625 0.05916 0.0
C20 C 0.49431 0.28298 0.08822 0.0
C21 C 0.49131 0.27536 0.13535 0.0
C22 C 0.44269 0.25664 0.14697 0.0
H23 H 0.39714 0.2534 0.04719 0.0
O24 O 0.37775 0.15509 0.04781 0.0
O25 O 0.37684 0.17933 0.11533 0.0
O26 O 0.29801 0.19547 0.05706 0.0
O27 O 0.33018 0.24455 0.08563 0.0
C28 C 0.52973 0.29725 0.20945 0.0
C29 C 0.49593 0.28763 0.25366 0.0
H30 H 0.43307 0.2636 0.31569 0.0
H31 H 0.36879 0.22403 0.30791 0.0
H32 H 0.46375 0.28299 0.02445 0.0
H33 H 0.52274 0.29372 0.07161 0.0
H34 H 0.56034 0.31177 0.21597 0.0
H35 H 0.50653 0.29464 0.28678 0.0
Mn36 Mn 0.1668 0.89717 0.58649 0.0
Mn37 Mn 0.13583 0.81831 0.6381 0.0
C38 C 0.09386 0.87808 0.58438 0.0
C39 C 0.17574 0.95975 0.56619 0.0
C40 C 0.18982 0.81961 0.55497 0.0
O41 O 0.21231 0.89292 0.63722 0.0
O42 O 0.18812 0.83914 0.66754 0.0
C43 C 0.12277 0.82591 0.73506 0.0
N44 N 0.10501 0.81887 0.69447 0.0
C45 C 0.04482 0.78069 0.73755 0.0
C46 C 0.06704 0.7898 0.77614 0.0
C47 C 0.10447 0.81218 0.77472 0.0
C48 C 0.06923 0.79763 0.6911 0.0
H49 H 0.15254 0.84159 0.73776 0.0
C50 C 0.21279 0.86797 0.66791 0.0
O51 O 0.1996 0.93378 0.55047 0.0
O52 O 0.15087 0.95063 0.59949 0.0
N53 N 0.08414 0.80043 0.60991 0.0
C54 C 0.07784 0.79318 0.56621 0.0
C55 C 0.03732 0.782 0.54974 0.0
C56 C 0.00113 0.77587 0.57683 0.0
C57 C 0.00488 0.77689 0.62444 0.0
C58 C 0.05282 0.79514 0.63954 0.0
H59 H 0.10366 0.79758 0.54273 0.0
O60 O 0.11206 0.89525 0.5514 0.0
O61 O 0.11995 0.86891 0.61691 0.0
O62 O 0.19294 0.85417 0.55158 0.0
O63 O 0.1693 0.80441 0.586 0.0
C64 C 0.9641 0.75075 0.69517 0.0
C65 C 0.99549 0.75883 0.74134 0.0
H66 H 0.05452 0.78078 0.80788 0.0
H67 H 0.12045 0.81887 0.80567 0.0
H68 H 0.03374 0.77847 0.5143 0.0
H69 H 0.97201 0.76822 0.559 0.0
H70 H 0.93315 0.73614 0.6994 0.0
H71 H 0.98347 0.75024 0.77342 0.0
Mn72 Mn 0.33616 0.89938 0.92632 0.0
Mn73 Mn 0.37043 0.82083 0.87663 0.0
C74 C 0.40974 0.88175 0.93086 0.0
C75 C 0.32427 0.96195 0.9457 0.0
C76 C 0.31302 0.82152 0.9576 0.0
O77 O 0.29208 0.89339 0.87426 0.0
O78 O 0.31938 0.84069 0.84456 0.0
C79 C 0.38794 0.82876 0.78054 0.0
N80 N 0.40385 0.82174 0.82188 0.0
C81 C 0.46436 0.78211 0.78174 0.0
C82 C 0.44399 0.79129 0.74217 0.0
C83 C 0.40738 0.81443 0.7418 0.0
C84 C 0.43908 0.80028 0.82693 0.0
H85 H 0.35876 0.84485 0.7765 0.0
C86 C 0.29352 0.86856 0.84342 0.0
O87 O 0.30103 0.93528 0.9609 0.0
O88 O 0.35066 0.95337 0.91347 0.0
N89 N 0.4209 0.80372 0.9074 0.0
C90 C 0.42514 0.79678 0.95143 0.0
C91 C 0.46456 0.78501 0.96974 0.0
C92 C 0.50143 0.7775 0.94421 0.0
C93 C 0.49953 0.77809 0.89648 0.0
C94 C 0.45329 0.79777 0.87919 0.0
H95 H 0.39852 0.80193 0.97376 0.0
O96 O 0.39035 0.89925 0.96281 0.0
O97 O 0.38463 0.87184 0.89785 0.0
O98 O 0.31007 0.85607 0.96104 0.0
O99 O 0.33457 0.8065 0.9272 0.0
C100 C 0.54162 0.74995 0.82782 0.0
C101 C 0.51258 0.75861 0.78027 0.0
H102 H 0.45732 0.78162 0.71109 0.0
H103 H 0.39285 0.82113 0.71015 0.0
H104 H 0.46662 0.78188 1.00536 0.0
H105 H 0.52946 0.76919 0.96328 0.0
H106 H 0.57189 0.7343 0.82505 0.0
H107 H 0.52536 0.74928 0.74883 0.0
Mn108 Mn 0.15879 0.14919 0.42783 0.0
Mn109 Mn 0.12292 0.22734 0.37866 0.0
C110 C 0.08514 0.1659 0.43318 0.0
C111 C 0.17099 0.08681 0.44699 0.0
C112 C 0.18053 0.22723 0.45962 0.0
O113 O 0.20244 0.1556 0.3756 0.0
O114 O 0.17481 0.20842 0.34659 0.0
C115 C 0.10599 0.21887 0.28249 0.0
N116 N 0.0897 0.2256 0.32377 0.0
C117 C 0.02769 0.26319 0.28327 0.0
C118 C 0.04852 0.25445 0.2438 0.0
C119 C 0.08606 0.23241 0.24363 0.0
C120 C 0.0535 0.24592 0.32863 0.0
H121 H 0.13582 0.20364 0.27856 0.0
C122 C 0.20086 0.18065 0.34507 0.0
O123 O 0.19436 0.1135 0.46205 0.0
O124 O 0.14456 0.09528 0.41477 0.0
N125 N 0.07172 0.24355 0.40914 0.0
C126 C 0.0672 0.25101 0.45303 0.0
C127 C 0.02729 0.26184 0.47117 0.0
C128 C 0.99005 0.26778 0.44561 0.0
C129 C 0.99205 0.2669 0.39791 0.0
C130 C 0.03909 0.24832 0.38085 0.0
H131 H 0.09403 0.24698 0.47545 0.0
O132 O 0.10516 0.14876 0.46495 0.0
O133 O 0.10972 0.17615 0.39985 0.0
O134 O 0.18459 0.19271 0.46228 0.0
O135 O 0.15815 0.24217 0.42974 0.0
C136 C 0.9492 0.2936 0.32895 0.0
C137 C 0.97867 0.28542 0.28153 0.0
H138 H 0.03491 0.26361 0.21263 0.0
H139 H 0.10094 0.226 0.21205 0.0
H140 H 0.02512 0.26541 0.50672 0.0
H141 H 0.96163 0.27533 0.46457 0.0
H142 H 0.91842 0.30848 0.32598 0.0
H143 H 0.96566 0.29428 0.25 0.0
Mn144 Mn 0.67443 0.89558 0.94058 0.0
Mn145 Mn 0.6457 0.81616 0.88994 0.0
C146 C 0.6019 0.88646 0.9202 0.0
C147 C 0.68452 0.94104 0.99408 0.0
C148 C 0.70129 0.87474 0.84739 0.0
O149 O 0.72047 0.85924 0.9627 0.0
O150 O 0.69695 0.80646 0.92899 0.0
C151 C 0.62868 0.75249 0.9491 0.0
N152 N 0.61251 0.77764 0.91982 0.0
C153 C 0.55144 0.72799 0.90243 0.0
C154 C 0.57176 0.70548 0.93336 0.0
C155 C 0.60887 0.71775 0.9563 0.0
C156 C 0.5772 0.76932 0.89548 0.0
H157 H 0.65849 0.75818 0.96663 0.0
C158 C 0.72202 0.82421 0.95588 0.0
O159 O 0.70713 0.9399 0.95828 0.0
O160 O 0.65944 0.91267 1.0022 0.0
N161 N 0.59583 0.82704 0.8544 0.0
C162 C 0.59167 0.8539 0.82323 0.0
C163 C 0.55231 0.86006 0.8012 0.0
C164 C 0.51523 0.8383 0.80787 0.0
C165 C 0.51687 0.80551 0.8349 0.0
C166 C 0.56327 0.80421 0.86401 0.0
H167 H 0.61829 0.87244 0.81623 0.0
O168 O 0.61972 0.91907 0.92067 0.0
O169 O 0.62818 0.8587 0.92856 0.0
O170 O 0.7008 0.89741 0.87885 0.0
O171 O 0.6819 0.84424 0.84931 0.0
C172 C 0.47405 0.74248 0.84501 0.0
C173 C 0.50293 0.71416 0.87994 0.0
H174 H 0.55817 0.67859 0.94093 0.0
H175 H 0.62354 0.69929 0.98017 0.0
H176 H 0.55038 0.88307 0.77837 0.0
H177 H 0.48721 0.84705 0.78906 0.0
H178 H 0.44358 0.732 0.83101 0.0
H179 H 0.48987 0.68722 0.88807 0.0
Mn180 Mn 0.82186 0.14636 0.44516 0.0
Mn181 Mn 0.84704 0.22512 0.39128 0.0
C182 C 0.89335 0.15647 0.42249 0.0
C183 C 0.8137 0.10033 0.49842 0.0
C184 C 0.79222 0.16433 0.35212 0.0
O185 O 0.77556 0.18244 0.46763 0.0
O186 O 0.79533 0.23429 0.42965 0.0
C187 C 0.86188 0.2895 0.45011 0.0
N188 N 0.87879 0.2648 0.42069 0.0
C189 C 0.93837 0.31571 0.40337 0.0
C190 C 0.91719 0.33785 0.43412 0.0
C191 C 0.88052 0.32473 0.45716 0.0
C192 C 0.91407 0.27375 0.39663 0.0
H193 H 0.83249 0.28295 0.46803 0.0
C194 C 0.77187 0.21699 0.45831 0.0
O195 O 0.7898 0.10207 0.46368 0.0
O196 O 0.83906 0.12858 0.50629 0.0
N197 N 0.89753 0.21535 0.35601 0.0
C198 C 0.90262 0.18869 0.32481 0.0
C199 C 0.94225 0.18335 0.30289 0.0
C200 C 0.97867 0.2059 0.30965 0.0
C201 C 0.97587 0.23873 0.3365 0.0
C202 C 0.92931 0.23903 0.36551 0.0
H203 H 0.87653 0.16979 0.31778 0.0
O204 O 0.87638 0.12353 0.42375 0.0
O205 O 0.86666 0.18388 0.43108 0.0
O206 O 0.79404 0.143 0.3847 0.0
O207 O 0.8114 0.19505 0.3515 0.0
C208 C 0.01642 0.30287 0.34625 0.0
C209 C 0.98646 0.33063 0.3809 0.0
H210 H 0.92985 0.36508 0.44158 0.0
H211 H 0.86529 0.34286 0.48107 0.0
H212 H 0.94493 0.16039 0.28006 0.0
H213 H 0.00704 0.19775 0.29097 0.0
H214 H 0.04655 0.31405 0.33222 0.0
H215 H -0.00145 0.35792 0.38887 0.0
Mn216 Mn 0.66023 0.14171 0.1081 0.0
Mn217 Mn 0.63126 0.22518 0.1467 0.0
C218 C 0.58643 0.1531 0.11336 0.0
C219 C 0.67715 0.09019 0.06354 0.0
C220 C 0.68016 0.16875 0.20052 0.0
O221 O 0.71112 0.17594 0.08936 0.0
O222 O 0.68495 0.23203 0.11123 0.0
C223 C 0.62382 0.29279 0.0916 0.0
N224 N 0.60346 0.26778 0.11836 0.0
C225 C 0.54836 0.32201 0.13808 0.0
C226 C 0.57323 0.34421 0.11016 0.0
C227 C 0.60937 0.32971 0.08735 0.0
C228 C 0.56913 0.27863 0.14315 0.0
H229 H 0.65303 0.28502 0.07407 0.0
C230 C 0.71267 0.2116 0.09089 0.0
O231 O 0.69397 0.09529 0.10187 0.0
O232 O 0.65397 0.11723 0.0478 0.0
N233 N 0.57872 0.21705 0.17867 0.0
C234 C 0.56926 0.18766 0.20471 0.0
C235 C 0.52993 0.18498 0.22736 0.0
C236 C 0.49617 0.21038 0.22186 0.0
C237 C 0.50151 0.24366 0.19582 0.0
C238 C 0.54993 0.24368 0.17089 0.0
H239 H 0.59214 0.1653 0.20778 0.0
O240 O 0.60268 0.12105 0.12239 0.0
O241 O 0.61442 0.18074 0.10755 0.0
O242 O 0.67612 0.1429 0.17324 0.0
O243 O 0.66548 0.20031 0.19242 0.0
C244 C 0.46448 0.30915 0.18751 0.0
C245 C 0.49901 0.33777 0.15756 0.0
H246 H 0.56348 0.37246 0.1041 0.0
H247 H 0.62734 0.34797 0.06556 0.0
H248 H 0.52435 0.16097 0.24803 0.0
H249 H 0.46697 0.20271 0.23948 0.0
H250 H 0.4339 0.32052 0.19998 0.0
H251 H 0.48912 0.36582 0.15063 0.0
Mn252 Mn 0.82853 0.90008 0.59875 0.0
Mn253 Mn 0.8608 0.81868 0.63844 0.0
C254 C 0.90314 0.88937 0.60499 0.0
C255 C 0.81142 0.94786 0.5505 0.0
C256 C 0.81114 0.8753 0.69198 0.0
O257 O 0.77668 0.86467 0.58585 0.0
O258 O 0.8074 0.80975 0.60362 0.0
C259 C 0.87301 0.75635 0.57658 0.0
N260 N 0.89151 0.78072 0.6055 0.0
C261 C 0.94988 0.7287 0.62126 0.0
C262 C 0.92716 0.70698 0.59107 0.0
C263 C 0.89031 0.72078 0.56904 0.0
C264 C 0.9269 0.77094 0.62884 0.0
H265 H 0.84325 0.76346 0.55967 0.0
C266 C 0.7771 0.82901 0.58563 0.0
O267 O 0.79493 0.94547 0.58954 0.0
O268 O 0.83252 0.91908 0.536 0.0
N269 N 0.91341 0.82958 0.66975 0.0
C270 C 0.92192 0.85875 0.69663 0.0
C271 C 0.96223 0.86338 0.71742 0.0
C272 C -0.00335 0.83872 0.712 0.0
C273 C 0.99158 0.80537 0.68631 0.0
C274 C 0.94403 0.8054 0.65934 0.0
H275 H 0.89796 0.88013 0.70079 0.0
O276 O 0.88674 0.92227 0.60768 0.0
O277 O 0.87471 0.86235 0.60017 0.0
O278 O 0.81641 0.90153 0.66524 0.0
O279 O 0.82548 0.84364 0.68334 0.0
C280 C 0.03042 0.74086 0.67527 0.0
C281 C -0.00152 0.71329 0.6419 0.0
H282 H 0.9388 0.67959 0.58315 0.0
H283 H 0.87385 0.70293 0.5456 0.0
H284 H 0.9672 0.88757 0.73794 0.0
H285 H 0.02574 0.84645 0.72984 0.0
H286 H 0.06094 0.72956 0.68793 0.0
H287 H 0.00969 0.6859 0.63344 0.0
Mn288 Mn 0.8329 0.64571 0.10504 0.0
Mn289 Mn 0.86695 0.7251 0.1535 0.0
C290 C 0.90562 0.66533 0.09783 0.0
C291 C 0.8224 0.58343 0.08371 0.0
C292 C 0.80733 0.72276 0.07454 0.0
O293 O 0.79102 0.64993 0.15893 0.0
O294 O 0.8168 0.70417 0.18659 0.0
C295 C 0.88626 0.71813 0.24939 0.0
N296 N 0.90134 0.7251 0.20767 0.0
C297 C 0.96285 0.76502 0.24638 0.0
C298 C 0.94326 0.75584 0.28641 0.0
C299 C 0.90654 0.73262 0.28764 0.0
C300 C 0.93641 0.74685 0.20179 0.0
H301 H 0.85714 0.70192 0.25414 0.0
C302 C 0.79223 0.67533 0.18909 0.0
O303 O 0.79688 0.60948 0.07151 0.0
O304 O 0.85013 0.59199 0.11481 0.0
N305 N 0.91664 0.74312 0.12178 0.0
C306 C 0.92 0.75022 0.07771 0.0
C307 C 0.95906 0.76209 0.05852 0.0
C308 C -0.00339 0.76938 0.08316 0.0
C309 C 0.99576 0.76876 0.13091 0.0
C310 C 0.9496 0.74925 0.14926 0.0
H311 H 0.8929 0.74514 0.05602 0.0
O312 O 0.88545 0.64793 0.06627 0.0
O313 O 0.88161 0.67438 0.13193 0.0
O314 O 0.80395 0.68822 0.07219 0.0
O315 O 0.83028 0.73846 0.10338 0.0
C316 C 0.03957 0.79689 0.19859 0.0
C317 C 0.01137 0.78838 0.24677 0.0
H318 H 0.95732 0.76554 0.31718 0.0
H319 H 0.89265 0.72592 0.31962 0.0
H320 H 0.96034 0.76536 0.02288 0.0
H321 H 0.02431 0.77759 0.06343 0.0
H322 H 0.07007 0.81247 0.20066 0.0
H323 H 0.02491 0.7977 0.27791 0.0
Mn324 Mn 0.65925 0.39484 0.6074 0.0
Mn325 Mn 0.62255 0.31653 0.65612 0.0
C326 C 0.58541 0.37786 0.60204 0.0
C327 C 0.67202 0.45668 0.58526 0.0
C328 C 0.68054 0.31689 0.57582 0.0
O329 O 0.70191 0.38921 0.66046 0.0
O330 O 0.67485 0.33535 0.68791 0.0
C331 C 0.60635 0.32452 0.75248 0.0
N332 N 0.58978 0.31787 0.71129 0.0
C333 C 0.52793 0.27986 0.75205 0.0
C334 C 0.54908 0.28852 0.7914 0.0
C335 C 0.58668 0.31071 0.79141 0.0
C336 C 0.55359 0.29729 0.70658 0.0
H337 H 0.63619 0.33994 0.75627 0.0
C338 C 0.7005 0.36354 0.69029 0.0
O339 O 0.69635 0.42981 0.57307 0.0
O340 O 0.6446 0.44917 0.61703 0.0
N341 N 0.571 0.30044 0.62591 0.0
C342 C 0.56592 0.29366 0.58191 0.0
C343 C 0.52576 0.28287 0.56408 0.0
C344 C 0.48882 0.27624 0.59002 0.0
C345 C 0.49127 0.27677 0.6377 0.0
C346 C 0.53869 0.29518 0.65447 0.0
H347 H 0.59249 0.29823 0.55924 0.0
O348 O 0.60571 0.39442 0.56989 0.0
O349 O 0.60983 0.36785 0.63539 0.0
O350 O 0.68583 0.35132 0.57415 0.0
O351 O 0.65706 0.30182 0.60475 0.0
C352 C 0.4487 0.24988 0.70692 0.0
C353 C 0.47867 0.25775 0.75409 0.0
H354 H 0.53562 0.27923 0.82263 0.0
H355 H 0.60178 0.31707 0.82291 0.0
H356 H 0.52315 0.27982 0.52849 0.0
H357 H 0.4602 0.26866 0.57131 0.0
H358 H 0.41776 0.23508 0.71011 0.0
H359 H 0.46581 0.24881 0.78569 0.0
Mn360 Mn 0.82845 0.39025 0.94691 0.0
Mn361 Mn 0.8611 0.31295 0.89362 0.0
C362 C 0.90214 0.37354 0.94671 0.0
C363 C 0.8183 0.45193 0.97026 0.0
C364 C 0.80816 0.31155 0.97751 0.0
O365 O 0.78281 0.38585 0.89643 0.0
O366 O 0.80704 0.33226 0.86584 0.0
C367 C 0.87099 0.32169 0.79642 0.0
N368 N 0.89025 0.31509 0.83637 0.0
C369 C 0.95051 0.27923 0.79104 0.0
C370 C 0.92672 0.28767 0.75327 0.0
C371 C 0.88854 0.30876 0.75608 0.0
C372 C 0.92703 0.2952 0.8384 0.0
H373 H 0.84059 0.33635 0.79477 0.0
C374 C 0.78222 0.36092 0.8657 0.0
O375 O 0.79455 0.42513 0.98435 0.0
O376 O 0.84336 0.44439 0.9366 0.0
N377 N 0.91446 0.29681 0.92001 0.0
C378 C 0.92247 0.28967 0.96345 0.0
C379 C 0.96403 0.28002 0.97847 0.0
C380 C -0.00039 0.27525 0.95015 0.0
C381 C 0.99428 0.2763 0.90273 0.0
C382 C 0.94516 0.29303 0.88937 0.0
H383 H 0.89718 0.29308 0.98781 0.0
O384 O 0.88405 0.38911 0.9808 0.0
O385 O 0.87556 0.36391 0.91483 0.0
O386 O 0.80337 0.34597 0.98068 0.0
O387 O 0.82966 0.29721 0.94662 0.0
C388 C 0.0336 0.25178 0.83043 0.0
C389 C 0.00044 0.259 0.78543 0.0
H390 H 0.93854 0.27918 0.72108 0.0
H391 H 0.87132 0.31502 0.72572 0.0
H392 H 0.96891 0.27655 1.01376 0.0
H393 H 0.02963 0.26857 0.96689 0.0
H394 H 0.06489 0.23818 0.82501 0.0
H395 H 0.0117 0.25091 0.7529 0.0
Mn396 Mn 0.66121 0.64776 0.44396 0.0
Mn397 Mn 0.62934 0.7224 0.38573 0.0
C398 C 0.58717 0.66206 0.43955 0.0
C399 C 0.67471 0.58704 0.46935 0.0
C400 C 0.67911 0.72791 0.472 0.0
O401 O 0.71022 0.65367 0.3963 0.0
O402 O 0.68257 0.70264 0.35869 0.0
C403 C 0.61863 0.71143 0.2892 0.0
N404 N 0.59957 0.71904 0.32901 0.0
C405 C 0.54121 0.75664 0.28316 0.0
C406 C 0.5646 0.74695 0.24553 0.0
C407 C 0.6017 0.72451 0.24865 0.0
C408 C 0.56364 0.74002 0.33068 0.0
H409 H 0.6485 0.69591 0.28792 0.0
C410 C 0.70992 0.67615 0.3629 0.0
O411 O 0.69532 0.61534 0.48423 0.0
O412 O 0.65131 0.59271 0.43396 0.0
N413 N 0.57636 0.73918 0.41226 0.0
C414 C 0.56848 0.74613 0.45574 0.0
C415 C 0.52749 0.7574 0.47069 0.0
C416 C 0.49242 0.76383 0.44225 0.0
C417 C 0.49777 0.76234 0.39481 0.0
C418 C 0.54573 0.74344 0.38163 0.0
H419 H 0.59339 0.74132 0.48016 0.0
O420 O 0.60383 0.64621 0.47417 0.0
O421 O 0.61497 0.67183 0.40874 0.0
O422 O 0.6786 0.69373 0.47945 0.0
O423 O 0.66291 0.74003 0.43671 0.0
C424 C 0.4599 0.78805 0.32235 0.0
C425 C 0.49256 0.77902 0.27735 0.0
H426 H 0.55332 0.75564 0.21322 0.0
H427 H 0.61866 0.71741 0.21841 0.0
H428 H 0.52264 0.7609 0.50598 0.0
H429 H 0.46285 0.77186 0.45894 0.0
H430 H 0.42946 0.80293 0.31685 0.0
H431 H 0.48181 0.78736 0.24475 0.0
Mn432 Mn 0.16479 0.40317 0.93453 0.0
Mn433 Mn 0.13648 0.32347 0.88414 0.0
C434 C 0.09161 0.39112 0.92006 0.0
C435 C 0.17705 0.44986 0.9863 0.0
C436 C 0.18595 0.38495 0.83879 0.0
O437 O 0.21403 0.36824 0.95249 0.0
O438 O 0.19166 0.31567 0.91742 0.0
C439 C 0.12936 0.25897 0.94437 0.0
N440 N 0.10896 0.28308 0.91662 0.0
C441 C 0.05102 0.22985 0.90359 0.0
C442 C 0.07567 0.20852 0.93239 0.0
C443 C 0.1132 0.22305 0.95262 0.0
C444 C 0.07233 0.2728 0.89553 0.0
H445 H 0.15969 0.26657 0.95985 0.0
C446 C 0.21692 0.33348 0.94396 0.0
O447 O 0.19719 0.44833 0.94915 0.0
O448 O 0.1534 0.4212 0.99702 0.0
N449 N 0.08247 0.33188 0.85444 0.0
C450 C 0.07306 0.35927 0.82547 0.0
C451 C 0.03172 0.36316 0.80672 0.0
C452 C -0.00235 0.33847 0.81492 0.0
C453 C 0.00448 0.30544 0.84066 0.0
C454 C 0.05291 0.30691 0.86607 0.0
H455 H 0.09688 0.38002 0.81869 0.0
O456 O 0.10745 0.42447 0.91915 0.0
O457 O 0.12007 0.36453 0.92556 0.0
O458 O 0.18642 0.40642 0.87136 0.0
O459 O 0.16721 0.35398 0.8402 0.0
C460 C 0.96838 0.23967 0.85252 0.0
C461 C 0.00233 0.21302 0.88455 0.0
H462 H 0.06514 0.18078 0.94055 0.0
H463 H 0.13117 0.20549 0.97509 0.0
H464 H 0.02576 0.38666 0.78541 0.0
H465 H 0.96761 0.34552 0.79848 0.0
H466 H 0.93793 0.2274 0.84071 0.0
H467 H 0.99241 0.18523 0.8931 0.0
Mn468 Mn 0.3251 0.64212 0.432 0.0
Mn469 Mn 0.35361 0.72059 0.37916 0.0
C470 C 0.39748 0.65213 0.41358 0.0
C471 C 0.31546 0.59589 0.48456 0.0
C472 C 0.30093 0.65974 0.33733 0.0
O473 O 0.27788 0.67846 0.45197 0.0
O474 O 0.30012 0.72995 0.41455 0.0
C475 C 0.3649 0.78572 0.43767 0.0
N476 N 0.38355 0.7606 0.40988 0.0
C477 C 0.44409 0.81132 0.39534 0.0
C478 C 0.42106 0.83389 0.42418 0.0
C479 C 0.38304 0.82108 0.44512 0.0
C480 C 0.42013 0.7693 0.38781 0.0
H481 H 0.3345 0.77942 0.45387 0.0
C482 C 0.27552 0.71313 0.44261 0.0
O483 O 0.29265 0.59771 0.44902 0.0
O484 O 0.33973 0.62452 0.49384 0.0
N485 N 0.40604 0.71045 0.34724 0.0
C486 C 0.41306 0.68328 0.3171 0.0
C487 C 0.45405 0.67751 0.29815 0.0
C488 C 0.49005 0.70002 0.30708 0.0
C489 C 0.48567 0.73324 0.33305 0.0
C490 C 0.43725 0.73411 0.35859 0.0
H491 H 0.38742 0.66425 0.30876 0.0
O492 O 0.38048 0.6192 0.4136 0.0
O493 O 0.37041 0.67957 0.42029 0.0
O494 O 0.3003 0.63869 0.37021 0.0
O495 O 0.32043 0.6903 0.33768 0.0
C496 C 0.52581 0.79742 0.34419 0.0
C497 C 0.49367 0.82579 0.37599 0.0
H498 H 0.43328 0.86121 0.43192 0.0
H499 H 0.36639 0.83952 0.46764 0.0
H500 H 0.45816 0.65421 0.27606 0.0
H501 H 0.51957 0.69148 0.29065 0.0
H502 H 0.55687 0.80829 0.33207 0.0
H503 H 0.50532 0.85317 0.38422 0.0
Mn504 Mn 0.17051 0.64993 0.08987 0.0
Mn505 Mn 0.14185 0.73085 0.13508 0.0
C506 C 0.09748 0.65976 0.10568 0.0
C507 C 0.18209 0.60223 0.03964 0.0
C508 C 0.19567 0.67392 0.18242 0.0
O509 O 0.21893 0.68597 0.06976 0.0
O510 O 0.19264 0.74054 0.09628 0.0
C511 C 0.1235 0.79297 0.07447 0.0
N512 N 0.10791 0.76836 0.10483 0.0
C513 C 0.0483 0.81859 0.12366 0.0
C514 C 0.06815 0.8407 0.09183 0.0
C515 C 0.10418 0.82786 0.06764 0.0
C516 C 0.07356 0.77719 0.13025 0.0
H517 H 0.15244 0.7866 0.05575 0.0
C518 C 0.21974 0.72149 0.07333 0.0
O519 O 0.20342 0.60493 0.07613 0.0
O520 O 0.15871 0.63069 0.02819 0.0
N521 N 0.09207 0.71938 0.17084 0.0
C522 C 0.08696 0.69097 0.19979 0.0
C523 C 0.04816 0.68535 0.22312 0.0
C524 C 0.01205 0.70835 0.2188 0.0
C525 C 0.01396 0.74139 0.19218 0.0
C526 C 0.05981 0.74251 0.16217 0.0
H527 H 0.11243 0.67093 0.20395 0.0
O528 O 0.11461 0.62705 0.10662 0.0
O529 O 0.1246 0.68726 0.09765 0.0
O530 O 0.19096 0.64877 0.15408 0.0
O531 O 0.18035 0.70552 0.17623 0.0
C532 C 0.97179 0.80455 0.18282 0.0
C533 C 0.00041 0.8327 0.14717 0.0
H534 H 0.05482 0.86761 0.08435 0.0
H535 H 0.11834 0.84596 0.04295 0.0
H536 H 0.0458 0.66164 0.24488 0.0
H537 H 0.98439 0.6999 0.23846 0.0
H538 H 0.94165 0.81509 0.19731 0.0
H539 H 0.98753 0.85963 0.13912 0.0
Mn540 Mn 0.32257 0.39759 0.59151 0.0
Mn541 Mn 0.3467 0.3192 0.64626 0.0
C542 C 0.39383 0.38742 0.6143 0.0
C543 C 0.31581 0.44393 0.53859 0.0
C544 C 0.29305 0.38075 0.68519 0.0
O545 O 0.27617 0.3616 0.56866 0.0
O546 O 0.29425 0.31028 0.6083 0.0
C547 C 0.35982 0.25456 0.58728 0.0
N548 N 0.37744 0.27918 0.61649 0.0
C549 C 0.43689 0.22817 0.63247 0.0
C550 C 0.41501 0.20617 0.60196 0.0
C551 C 0.37807 0.21938 0.57967 0.0
C552 C 0.41315 0.27015 0.63977 0.0
H553 H 0.33018 0.26115 0.56995 0.0
C554 C 0.27167 0.32723 0.57866 0.0
O555 O 0.29136 0.44197 0.57296 0.0
O556 O 0.34067 0.41554 0.53063 0.0
N557 N 0.3979 0.3285 0.68076 0.0
C558 C 0.40391 0.35515 0.71176 0.0
C559 C 0.44379 0.36033 0.73324 0.0
C560 C 0.47966 0.33751 0.72627 0.0
C561 C 0.476 0.3047 0.69945 0.0
C562 C 0.42917 0.30467 0.6709 0.0
H563 H 0.37836 0.37411 0.71887 0.0
O564 O 0.37716 0.42036 0.61323 0.0
O565 O 0.3668 0.36003 0.60598 0.0
O566 O 0.2941 0.40103 0.65163 0.0
O567 O 0.31246 0.3502 0.68668 0.0
C568 C 0.51565 0.24051 0.68889 0.0
C569 C 0.48501 0.21301 0.65434 0.0
H570 H 0.42728 0.17895 0.59417 0.0
H571 H 0.36229 0.20134 0.55595 0.0
H572 H 0.44706 0.38335 0.75594 0.0
H573 H 0.5083 0.34548 0.7447 0.0
H574 H 0.5458 0.22921 0.70249 0.0
H575 H 0.49668 0.18571 0.64607 0.0
C576 C 0.30079 0.26378 0.98488 0.0
C577 C 0.28221 0.25452 0.02654 0.0
C578 C 0.22618 0.3018 0.01662 0.0
C579 C 0.24331 0.30999 0.97388 0.0
N580 N 0.29362 0.29677 0.91497 0.0
N581 N 0.22285 0.25874 0.07811 0.0
C582 C 0.27978 0.29038 0.95733 0.0
C583 C 0.24375 0.27198 0.04135 0.0
N584 N 0.33869 0.24731 0.97198 0.0
N585 N 0.19265 0.32224 0.03351 0.0
H586 H 0.23424 0.23616 0.09607 0.0
H587 H 0.19223 0.26745 0.08839 0.0
H588 H 0.17653 0.34273 1.01582 0.0
H589 H 0.1825 0.32072 0.06636 0.0
H590 H 0.35685 0.25558 0.94461 0.0
H591 H 0.35303 0.22595 0.98993 0.0
H592 H 0.31685 0.28083 0.89883 0.0
H593 H 0.28028 0.31736 0.89503 0.0
C594 C 0.26675 0.74547 0.5151 0.0
C595 C 0.25 0.73779 0.47206 0.0
C596 C 0.19526 0.78667 0.48157 0.0
C597 C 0.21318 0.795 0.52376 0.0
N598 N 0.27116 0.78862 0.57649 0.0
N599 N 0.20225 0.75358 0.4118 0.0
C600 C 0.25029 0.77602 0.53939 0.0
C601 C 0.21532 0.75917 0.45456 0.0
N602 N 0.29895 0.72395 0.53265 0.0
N603 N 0.15866 0.80466 0.46778 0.0
H604 H 0.21478 0.73249 0.39207 0.0
H605 H 0.18064 0.77069 0.39508 0.0
H606 H 0.14513 0.82662 0.48534 0.0
H607 H 0.14066 0.79704 0.44003 0.0
H608 H 0.30843 0.72512 0.56572 0.0
H609 H 0.31467 0.70305 0.51526 0.0
H610 H 0.30098 0.7787 0.58754 0.0
H611 H 0.26078 0.81188 0.59389 0.0
C612 C 0.25206 0.77696 0.97178 0.0
C613 C 0.28852 0.79686 0.98827 0.0
C614 C 0.28477 0.76179 0.05809 0.0
C615 C 0.2471 0.74329 0.04232 0.0
N616 N 0.19168 0.73537 0.98647 0.0
N617 N 0.33741 0.81156 0.04813 0.0
C618 C 0.23014 0.75117 0.99957 0.0
C619 C 0.30429 0.79022 0.03181 0.0
N620 N 0.23829 0.78297 0.92934 0.0
N621 N 0.3021 0.75154 0.09793 0.0
H622 H 0.35243 0.83234 0.02966 0.0
H623 H 0.34829 0.81057 0.08072 0.0
H624 H 0.28837 0.73073 0.11743 0.0
H625 H 0.33149 0.76143 0.11031 0.0
H626 H 0.21619 0.7661 0.91272 0.0
H627 H 0.25027 0.80451 0.90994 0.0
H628 H 0.17437 0.74337 0.95848 0.0
H629 H 0.17536 0.71529 1.00493 0.0
C630 C 0.20924 0.28342 0.56321 0.0
C631 C 0.24626 0.30326 0.54794 0.0
C632 C 0.24018 0.27294 0.47527 0.0
C633 C 0.20439 0.2518 0.49102 0.0
N634 N 0.15743 0.23337 0.55106 0.0
N635 N 0.30257 0.31123 0.49274 0.0
C636 C 0.18972 0.25595 0.53543 0.0
C637 C 0.26307 0.2967 0.50473 0.0
N638 N 0.19221 0.29163 0.60385 0.0
N639 N 0.25251 0.27015 0.4319 0.0
H640 H 0.32107 0.32842 0.51312 0.0
H641 H 0.31913 0.30377 0.46403 0.0
H642 H 0.23955 0.25044 0.41049 0.0
H643 H 0.27391 0.28848 0.41655 0.0
H644 H 0.16293 0.28103 0.61571 0.0
H645 H 0.20607 0.31132 0.62483 0.0
H646 H 0.14791 0.23223 0.5841 0.0
H647 H 0.14176 0.21375 0.53136 0.0
C648 C 0.74499 0.76448 0.0567 0.0
C649 C 0.78364 0.74657 0.04287 0.0
C650 C 0.7868 0.78583 0.97679 0.0
C651 C 0.74608 0.80118 0.9882 0.0
N652 N 0.68396 0.80352 0.03719 0.0
N653 N 0.837 0.73492 0.98607 0.0
C654 C 0.72457 0.79019 0.02784 0.0
C655 C 0.80321 0.7556 1.00168 0.0
N656 N 0.72805 0.75704 0.09763 0.0
N657 N 0.81074 0.80143 0.94361 0.0
H658 H 0.84916 0.71214 1.00315 0.0
H659 H 0.85012 0.73815 0.95448 0.0
H660 H 0.80093 0.82568 0.928 0.0
H661 H 0.84228 0.79333 0.93568 0.0
H662 H 0.70334 0.7724 0.11225 0.0
H663 H 0.74023 0.73628 0.11805 0.0
H664 H 0.66424 0.79322 0.0624 0.0
H665 H 0.66857 0.82356 0.01802 0.0
C666 C 0.76303 0.24763 0.53189 0.0
C667 C 0.74626 0.24072 0.48876 0.0
C668 C 0.68991 0.28794 0.50046 0.0
C669 C 0.70463 0.29254 0.54472 0.0
N670 N 0.75324 0.2759 0.60387 0.0
N671 N 0.69312 0.25239 0.43205 0.0
C672 C 0.74051 0.27195 0.56077 0.0
C673 C 0.70954 0.26049 0.473 0.0
N674 N 0.80218 0.23288 0.54427 0.0
N675 N 0.65763 0.31025 0.48464 0.0
H676 H 0.70752 0.23315 0.41103 0.0
H677 H 0.66406 0.26284 0.41975 0.0
H678 H 0.64222 0.3301 0.50409 0.0
H679 H 0.64781 0.31097 0.45169 0.0
H680 H 0.81886 0.2405 0.57286 0.0
H681 H 0.82024 0.21506 0.52439 0.0
H682 H 0.77466 0.2581 0.61981 0.0
H683 H 0.74073 0.29637 0.62439 0.0
C684 C 0.74867 0.26575 0.99101 0.0
C685 C 0.78437 0.2862 1.00795 0.0
C686 C 0.77673 0.25416 0.07945 0.0
C687 C 0.74297 0.23197 0.06122 0.0
N688 N 0.70156 0.2123 0.99739 0.0
N689 N 0.83577 0.29789 0.06653 0.0
C690 C 0.73079 0.23621 0.01614 0.0
C691 C 0.79944 0.27983 0.05175 0.0
N692 N 0.73007 0.27619 0.95187 0.0
N693 N 0.78628 0.25116 0.12351 0.0
H694 H 0.8518 0.31798 0.04782 0.0
H695 H 0.85136 0.29171 0.0962 0.0
H696 H 0.77196 0.23117 0.1438 0.0
H697 H 0.80683 0.26925 0.14034 0.0
H698 H 0.70125 0.26499 0.93957 0.0
H699 H 0.74092 0.29909 0.93408 0.0
H700 H 0.69508 0.2115 0.96355 0.0
H701 H 0.68645 0.191 1.01484 0.0
C702 C 0.72531 0.8183 0.51985 0.0
C703 C 0.74311 0.80709 0.56114 0.0
C704 C 0.72144 0.74348 0.54405 0.0
C705 C 0.69866 0.7551 0.50506 0.0
N706 N 0.66385 0.8094 0.47216 0.0
N707 N 0.73889 0.76123 0.61912 0.0
C708 C 0.69568 0.79425 0.49785 0.0
C709 C 0.73426 0.77052 0.57557 0.0
N710 N 0.73734 0.85058 0.49987 0.0
N711 N 0.73429 0.70782 0.55062 0.0
H712 H 0.74598 0.78087 0.64343 0.0
H713 H 0.73031 0.73521 0.63122 0.0
H714 H 0.7334 0.68728 0.52667 0.0
H715 H 0.75283 0.70009 0.57802 0.0
H716 H 0.72711 0.85732 0.46792 0.0
H717 H 0.76075 0.86858 0.51223 0.0
H718 H 0.66042 0.83791 0.46859 0.0
H719 H 0.63688 0.79482 0.46094 0.0
C720 C 0.36283 0.04191 0.02088 0.0
C721 C 0.32213 0.05422 0.03834 0.0
C722 C 0.28476 1.01305 0.98512 0.0
C723 C 0.32507 0.9977 0.97137 0.0
N724 N 0.40269 0.9932 0.98416 0.0
N725 N 0.24462 0.04477 0.04283 0.0
C726 C 0.36417 1.01098 0.99133 0.0
C727 C 0.28321 0.03777 0.022 0.0
N728 N 0.40043 0.06051 0.03043 0.0
N729 N 0.24774 1.00451 0.96217 0.0
H730 H 0.24252 0.0613 0.07107 0.0
H731 H 0.21575 0.031 0.03522 0.0
H732 H 0.24794 0.98743 0.93431 0.0
H733 H 0.21798 1.0174 0.96778 0.0
H734 H 0.42965 0.0556 1.01394 0.0
H735 H 0.40228 0.08281 0.05194 0.0
H736 H 0.43062 0.99844 1.00274 0.0
H737 H 0.40637 0.9713 0.96224 0.0
C738 C 0.21142 1.01156 0.52417 0.0
C739 C 0.17238 0.99512 0.54013 0.0
C740 C 0.13066 0.03784 0.4924 0.0
C741 C 0.16999 0.05123 0.47288 0.0
N742 N 0.24747 0.04464 0.46459 0.0
N743 N 0.0943 0.98833 0.53161 0.0
C744 C 0.21023 0.03613 0.4872 0.0
C745 C 0.13184 1.00712 0.52222 0.0
N746 N 0.24982 1.00437 0.54525 0.0
N747 N 0.09207 0.05531 0.48454 0.0
H748 H 0.09242 0.96642 0.55375 0.0
H749 H 0.06525 0.99277 0.51464 0.0
H750 H 0.08846 0.07705 0.46242 0.0
H751 H 0.06391 0.04991 0.50271 0.0
H752 H 0.27881 1.01809 0.53797 0.0
H753 H 0.25162 0.98756 0.57327 0.0
H754 H 0.27723 0.03193 0.47066 0.0
H755 H 0.24751 0.06151 0.43655 0.0
C756 C 0.64172 0.99347 0.028 0.0
C757 C 0.68237 0.97686 0.01815 0.0
C758 C 0.71841 0.03691 0.03073 0.0
C759 C 0.67824 0.05224 0.04441 0.0
N760 N 0.60693 0.03821 0.07421 0.0
N761 N 0.76073 0.98105 0.02097 0.0
C762 C 0.64131 0.02867 0.04823 0.0
C763 C 0.7212 0.99814 0.02283 0.0
N764 N 0.60317 0.97706 0.01667 0.0
N765 N 0.75377 0.05936 0.02496 0.0
H766 H 0.76375 0.9525 0.01738 0.0
H767 H 0.79 0.99448 0.0278 0.0
H768 H 0.75266 0.08779 0.03056 0.0
H769 H 0.78287 0.05034 1.011 0.0
H770 H 0.57343 0.99065 0.01973 0.0
H771 H 0.60057 0.95195 1.00021 0.0
H772 H 0.5809 1.02042 0.08061 0.0
H773 H 0.60767 0.06132 0.09435 0.0
C774 C 0.77694 0.0457 0.5306 0.0
C775 C 0.81675 0.06362 0.52032 0.0
C776 C 0.85428 1.00366 0.52456 0.0
C777 C 0.81343 0.9854 0.53029 0.0
N778 N 0.73531 0.98866 0.53019 0.0
N779 N 0.8931 0.05869 0.50174 0.0
C780 C 0.77461 1.00646 0.53067 0.0
C781 C 0.85544 0.04241 0.51606 0.0
N782 N 0.7413 0.06653 0.5407 0.0
N783 N 0.89235 0.98463 0.52912 0.0
H784 H 0.89705 0.08708 0.49834 0.0
H785 H 0.92011 0.04376 0.49118 0.0
H786 H 0.89415 0.95608 0.5316 0.0
H787 H 0.92254 0.99754 0.53251 0.0
H788 H 0.71214 0.05542 0.5523 0.0
H789 H 0.74257 0.09535 0.54171 0.0
H790 H 0.70569 1.00221 0.5265 0.0
H791 H 0.73275 0.95991 0.52892 0.0
C792 C 0.8291 0.48213 0.04544 0.0
C793 C 0.82314 0.48596 0.99859 0.0
C794 C 0.82728 0.55322 1.00802 0.0
C795 C 0.82558 0.54938 0.05522 0.0
N796 N 0.81928 0.50919 0.11835 0.0
N797 N 0.81091 0.5261 0.93636 0.0
C798 C 0.82509 0.51353 0.07379 0.0
C799 C 0.82083 0.52179 0.98016 0.0
N800 N 0.84081 0.44881 0.06294 0.0
N801 N 0.83718 0.58664 0.98947 0.0
H802 H 0.80584 0.50386 0.915 0.0
H803 H 0.80387 0.55164 0.92224 0.0
H804 H 0.84458 0.61003 1.00807 0.0
H805 H 0.84308 0.59014 0.95574 0.0
H806 H 0.84969 0.44539 0.09599 0.0
H807 H 0.84672 0.4255 0.04373 0.0
H808 H 0.81361 0.4836 0.13309 0.0
H809 H 0.81628 0.53142 0.14009 0.0
C810 C 0.66848 0.52651 0.57388 0.0
C811 C 0.66929 0.4904 0.55603 0.0
C812 C 0.67497 0.51719 0.48061 0.0
C813 C 0.67084 0.5532 0.49823 0.0
N814 N 0.64942 0.59034 0.56147 0.0
N815 N 0.65894 0.45239 0.49058 0.0
C816 C 0.66355 0.55738 0.54486 0.0
C817 C 0.66845 0.486 0.50884 0.0
N818 N 0.67373 0.53168 0.61837 0.0
N819 N 0.68645 0.51247 0.43728 0.0
H820 H 0.65057 0.4293 0.50931 0.0
H821 H 0.65396 0.44858 0.45674 0.0
H822 H 0.69187 0.53451 0.41572 0.0
H823 H 0.69454 0.48683 0.42398 0.0
H824 H 0.67817 0.55768 0.63254 0.0
H825 H 0.67768 0.50989 0.64056 0.0
H826 H 0.63986 0.59377 0.59433 0.0
H827 H 0.64196 0.61296 0.54163 0.0
C828 C 0.13772 0.54579 0.01857 0.0
C829 C 0.17852 0.56471 0.01954 0.0
C830 C 0.21609 0.50504 1.01427 0.0
C831 C 0.17576 0.48653 1.00854 0.0
N832 N 0.09775 0.49047 0.99895 0.0
N833 N 0.25613 0.56273 1.00964 0.0
C834 C 0.13642 0.50715 1.00927 0.0
C835 C 0.21756 0.5443 1.01473 0.0
N836 N 0.10006 0.56401 0.02844 0.0
N837 N 0.25312 0.48474 0.0197 0.0
H838 H 0.25793 0.59153 1.00853 0.0
H839 H 0.28536 0.54971 1.00202 0.0
H840 H 0.25265 0.4559 0.02041 0.0
H841 H 0.28315 0.49627 0.02792 0.0
H842 H 0.0708 0.55047 0.03508 0.0
H843 H 0.09799 0.59244 0.03232 0.0
H844 H 0.06942 0.50514 0.99214 0.0
H845 H 0.09412 0.46211 0.99491 0.0
C846 C 0.35887 0.5396 0.50764 0.0
C847 C 0.31855 0.55896 0.50606 0.0
C848 C 0.27961 0.49978 0.50992 0.0
C849 C 0.31924 0.48075 0.51687 0.0
N850 N 0.39696 0.48429 0.5299 0.0
N851 N 0.24093 0.55766 0.51622 0.0
C852 C 0.35906 0.50105 0.51763 0.0
C853 C 0.27909 0.53895 0.51067 0.0
N854 N 0.39703 0.55722 0.49765 0.0
N855 N 0.24231 0.48013 0.50227 0.0
H856 H 0.23984 0.58644 0.5182 0.0
H857 H 0.21147 0.54467 0.52352 0.0
H858 H 0.24208 0.45133 0.50036 0.0
H859 H 0.21298 0.49238 0.49326 0.0
H860 H 0.42607 0.54318 0.49205 0.0
H861 H 0.39965 0.5855 0.49237 0.0
H862 H 0.42532 0.49897 0.53716 0.0
H863 H 0.39983 0.45607 0.53542 0.0
C864 C 0.51878 0.13312 0.06491 0.0
C865 C 0.53923 0.15462 0.09972 0.0
C866 C 0.4714 0.17698 0.1179 0.0
C867 C 0.44867 0.16612 0.08028 0.0
N868 N 0.45938 0.13265 1.01048 0.0
N869 N 0.52532 0.2128 0.08063 0.0
C870 C 0.47438 0.14277 0.05119 0.0
C871 C 0.51577 0.18549 0.10977 0.0
N872 N 0.54134 0.10631 0.04352 0.0
N873 N 0.46025 0.1589 0.15575 0.0
H874 H 0.5574 0.21943 0.07234 0.0
H875 H 0.50338 0.21852 0.0553 0.0
H876 H 0.42937 0.14758 0.16085 0.0
H877 H 0.48398 0.1483 0.17659 0.0
H878 H 0.52679 0.08775 0.02164 0.0
H879 H 0.5744 0.10262 0.04863 0.0
H880 H 0.47816 0.1179 0.9879 0.0
H881 H 0.43069 0.14278 0.99699 0.0
C882 C 0.97039 0.86668 0.56307 0.0
C883 C 0.95204 0.88535 0.6002 0.0
C884 C 0.02671 0.89905 0.62675 0.0
C885 C 0.04499 0.88026 0.58977 0.0
N886 N 0.0328 0.85886 0.51491 0.0
N887 N 0.96503 0.93053 0.65836 0.0
C888 C 0.01643 0.868 0.55556 0.0
C889 C 0.98084 0.90503 0.62907 0.0
N890 N 0.94415 0.84834 0.53381 0.0
N891 N 0.05289 0.91234 0.65978 0.0
H892 H 0.93232 0.93364 0.66622 0.0
H893 H 0.98478 0.94986 0.67428 0.0
H894 H 0.08652 0.91481 0.65734 0.0
H895 H 0.04091 0.92017 0.69068 0.0
H896 H 0.95614 0.83002 0.51019 0.0
H897 H 0.91038 0.84994 0.5339 0.0
H898 H 0.01334 0.85497 0.48703 0.0
H899 H 0.06592 0.85689 0.50811 0.0
C900 C 0.48028 0.89847 0.89061 0.0
C901 C 0.45904 0.88232 0.92792 0.0
C902 C 0.53145 0.86772 0.95949 0.0
C903 C 0.55268 0.88374 0.92206 0.0
N904 N 0.54573 0.92585 0.86021 0.0
N905 N 0.46622 0.86319 1.00434 0.0
C906 C 0.52663 0.90256 0.8902 0.0
C907 C 0.48517 0.87062 0.9643 0.0
N908 N 0.45649 0.91113 0.85554 0.0
N909 N 0.5552 0.85027 0.99149 0.0
H910 H 0.43275 0.8616 1.00923 0.0
H911 H 0.48389 0.86016 0.03355 0.0
H912 H 0.58895 0.85122 0.99351 0.0
H913 H 0.54117 0.83329 1.01546 0.0
H914 H 0.47032 0.91722 0.82485 0.0
H915 H 0.42294 0.91473 0.85617 0.0
H916 H 0.52822 0.94459 0.8411 0.0
H917 H 0.57919 0.92787 0.85537 0.0
C918 C 0.00915 0.17506 0.46653 0.0
C919 C 0.03594 0.1637 0.43041 0.0
C920 C 0.96907 0.142 0.39241 0.0
C921 C 0.9424 0.16011 0.42434 0.0
N922 N 0.93872 0.18945 0.49651 0.0
N923 N 0.03974 0.13425 0.35844 0.0
C924 C 0.96298 0.17571 0.46231 0.0
C925 C 0.01535 0.1468 0.39316 0.0
N926 N 0.02631 0.1854 0.50628 0.0
N927 N 0.95064 0.11835 0.36239 0.0
H928 H 0.07334 0.13103 0.35954 0.0
H929 H 0.02638 0.12779 0.32766 0.0
H930 H 0.91721 0.11549 0.35784 0.0
H931 H 0.96863 0.10006 0.3431 0.0
H932 H 0.05945 0.18661 0.51351 0.0
H933 H 0.05945 0.18661 0.51351 0.0
H934 H 0.95275 0.20189 0.52427 0.0
H935 H 0.90494 0.1881 0.49799 0.0
C936 C 0.02237 0.64306 0.13586 0.0
C937 C 0.04834 0.66274 0.10441 0.0
C938 C 0.98061 0.67669 0.06335 0.0
C939 C 0.95481 0.66439 0.09976 0.0
N940 N 0.9527 0.63394 0.17121 0.0
N941 N 0.0505 0.6978 0.03609 0.0
C942 C 0.97619 0.64733 0.13621 0.0
C943 C 0.02693 0.67961 0.06776 0.0
N944 N 0.04124 0.61888 0.16486 0.0
N945 N 0.9613 0.68456 0.02367 0.0
H946 H 0.08425 0.69723 0.03396 0.0
H947 H 0.03632 0.71506 1.0126 0.0
H948 H 0.92777 0.68568 0.01911 0.0
H949 H 0.97872 0.68827 0.99439 0.0
H950 H 0.0235 0.59947 0.18294 0.0
H951 H 0.07457 0.61691 0.17024 0.0
H952 H 0.96683 0.62749 0.20162 0.0
H953 H 0.91919 0.62986 0.17076 0.0
C954 C 0.50936 0.369 0.56898 0.0
C955 C 0.53623 0.38011 0.60512 0.0
C956 C 0.46987 0.40206 0.64342 0.0
C957 C 0.44285 0.3838 0.61183 0.0
N958 N 0.43828 0.35059 0.54228 0.0
N959 N 0.54066 0.40942 0.67719 0.0
C960 C 0.46304 0.36733 0.57415 0.0
C961 C 0.51602 0.39698 0.64253 0.0
N962 N 0.52769 0.36097 0.52883 0.0
N963 N 0.45191 0.42579 0.67353 0.0
H964 H 0.57426 0.41275 0.67594 0.0
H965 H 0.52745 0.41581 0.70805 0.0
H966 H 0.41856 0.42863 0.67848 0.0
H967 H 0.47026 0.4441 0.69257 0.0
H968 H 0.5097 0.35833 0.49975 0.0
H969 H 0.56102 0.3585 0.52368 0.0
H970 H 0.45132 0.33316 0.51827 0.0
H971 H 0.40461 0.35269 0.5403 0.0
C972 C 0.01291 0.4038 0.8978 0.0
C973 C 0.04307 0.3859 0.92645 0.0
C974 C 0.98073 0.36679 0.97332 0.0
C975 C 0.95076 0.37769 0.93981 0.0
N976 N 0.93958 0.40892 0.8697 0.0
N977 N 0.05439 0.35092 0.9939 0.0
C978 C 0.96727 0.39661 0.90187 0.0
C979 C 0.02656 0.36738 0.96468 0.0
N980 N 0.02733 0.42899 0.86731 0.0
N981 N 0.96585 0.35704 1.01441 0.0
H982 H 0.08791 0.35487 0.99384 0.0
H983 H 0.04403 0.3321 0.01782 0.0
H984 H 0.93312 0.35314 0.02201 0.0
H985 H 0.98608 0.35439 0.0419 0.0
H986 H 0.00673 0.44709 0.8507 0.0
H987 H 0.05996 0.43319 0.85952 0.0
H988 H 0.95015 0.41666 0.83823 0.0
H989 H 0.90604 0.41083 0.87356 0.0
C990 C 0.50931 0.67164 0.46644 0.0
C991 C 0.53854 0.66036 0.43235 0.0
C992 C 0.47509 0.63743 0.38999 0.0
C993 C 0.44607 0.65576 0.41943 0.0
N994 N 0.4367 0.68962 0.48806 0.0
N995 N 0.54791 0.63079 0.36093 0.0
C996 C 0.46355 0.67283 0.45812 0.0
C997 C 0.521 0.64305 0.39383 0.0
N998 N 0.52475 0.68028 0.50768 0.0
N999 N 0.45925 0.61317 0.35916 0.0
H1000 H 0.58147 0.62845 0.36408 0.0
H1001 H 0.53669 0.62379 0.32944 0.0
H1002 H 0.42632 0.60991 0.35203 0.0
H1003 H 0.47892 0.59484 0.34171 0.0
H1004 H 0.50478 0.68268 0.53542 0.0
H1005 H 0.55755 0.68381 0.51512 0.0
H1006 H 0.44808 0.70774 0.5123 0.0
H1007 H 0.40305 0.68666 0.48843 0.0
C1008 C 0.25456 0.14309 0.23728 0.0
C1009 C 0.25721 0.17644 0.21195 0.0
C1010 C 0.23691 0.21042 0.27911 0.0
C1011 C 0.22651 0.17734 0.30227 0.0
N1012 N 0.21529 0.11102 0.29515 0.0
N1013 N 0.23504 0.24035 0.20799 0.0
C1014 C 0.23237 0.14322 0.27914 0.0
C1015 C 0.24309 0.20953 0.23263 0.0
N1016 N 0.27466 0.1116 0.22336 0.0
N1017 N 0.24202 0.2429 0.30144 0.0
H1018 H 0.23637 0.24018 0.1735 0.0
H1019 H 0.22191 0.26432 0.22165 0.0
H1020 H 0.2413 0.24428 0.33587 0.0
H1021 H 0.25249 0.26712 0.28596 0.0
H1022 H 0.27678 0.08813 0.24326 0.0
H1023 H 0.29302 0.10973 0.19455 0.0
H1024 H 0.21556 0.08657 0.27688 0.0
H1025 H 0.19679 0.1092 0.32389 0.0
C1026 C 0.26259 0.90598 0.77719 0.0
C1027 C 0.26797 0.87195 0.80065 0.0
C1028 C 0.25301 0.83932 0.73101 0.0
C1029 C 0.23943 0.87224 0.70974 0.0
N1030 N 0.2225 0.93731 0.71943 0.0
N1031 N 0.25223 0.80641 0.80007 0.0
C1032 C 0.24169 0.90583 0.73462 0.0
C1033 C 0.25798 0.83874 0.77758 0.0
N1034 N 0.27886 0.93831 0.79365 0.0
N1035 N 0.26128 0.80829 0.70681 0.0
H1036 H 0.25227 0.80523 0.83453 0.0
H1037 H 0.24204 0.78211 0.78458 0.0
H1038 H 0.26029 0.80822 0.67229 0.0
H1039 H 0.27404 0.78436 0.72091 0.0
H1040 H 0.27922 0.96268 0.77524 0.0
H1041 H 0.29583 0.94042 0.8233 0.0
H1042 H 0.21968 0.96098 0.7389 0.0
H1043 H 0.2059 0.93909 0.68953 0.0
C1044 C 0.76956 0.85771 0.80868 0.0
C1045 C 0.73196 0.88004 0.8103 0.0
C1046 C 0.74554 0.90029 0.73416 0.0
C1047 C 0.78574 0.88047 0.73393 0.0
N1048 N 0.84012 0.84827 0.77752 0.0
N1049 N 0.6883 0.92818 0.77844 0.0
C1050 C 0.79898 0.86169 0.77315 0.0
C1051 C 0.72166 0.90358 0.77449 0.0
N1052 N 0.77681 0.83153 0.84044 0.0
N1053 N 0.72782 0.91302 0.69555 0.0
H1054 H 0.66944 0.93028 0.80708 0.0
H1055 H 0.68201 0.94856 0.75495 0.0
H1056 H 0.74146 0.90866 0.66446 0.0
H1057 H 0.69672 0.92427 0.69369 0.0
H1058 H 0.80037 0.81104 0.83737 0.0
H1059 H 0.75712 0.82822 0.86815 0.0
H1060 H 0.85275 0.83866 0.8074 0.0
H1061 H 0.8632 0.85023 0.75294 0.0
C1062 C 0.7767 0.14441 0.27458 0.0
C1063 C 0.76121 0.15637 0.31607 0.0
C1064 C 0.69078 0.17218 0.28381 0.0
C1065 C 0.70717 0.16303 0.24095 0.0
N1066 N 0.76907 0.14682 0.19504 0.0
N1067 N 0.70055 0.16989 0.36349 0.0
C1068 C 0.75084 0.15019 0.2362 0.0
C1069 C 0.71727 0.16657 0.32168 0.0
N1070 N 0.81548 0.12619 0.27241 0.0
N1071 N 0.65101 0.18841 0.28843 0.0
H1072 H 0.71913 0.16599 0.39197 0.0
H1073 H 0.66754 0.17286 0.37029 0.0
H1074 H 0.63015 0.19304 0.26224 0.0
H1075 H 0.63997 0.20034 0.3177 0.0
H1076 H 0.8272 0.11357 0.24384 0.0
H1077 H 0.83335 0.1199 0.30081 0.0
H1078 H 0.80198 0.14164 0.18981 0.0
H1079 H 0.75275 0.15297 0.16576 0.0
C1080 C 0.75135 0.70494 0.30123 0.0
C1081 C 0.73938 0.67187 0.32327 0.0
C1082 C 0.76471 0.63794 0.25695 0.0
C1083 C 0.76777 0.67172 0.23245 0.0
N1084 N 0.74874 0.73651 0.23124 0.0
N1085 N 0.72805 0.60573 0.31672 0.0
C1086 C 0.75631 0.70493 0.25465 0.0
C1087 C 0.74422 0.6379 0.29975 0.0
N1088 N 0.75713 0.73677 0.32477 0.0
N1089 N 0.78292 0.6062 0.24123 0.0
H1090 H 0.7133 0.60374 0.34763 0.0
H1091 H 0.72656 0.58139 0.2983 0.0
H1092 H 0.79994 0.60451 0.21155 0.0
H1093 H 0.78492 0.58221 0.26021 0.0
H1094 H 0.7685 0.76111 0.31025 0.0
H1095 H 0.75521 0.73735 0.35932 0.0
H1096 H 0.73745 0.76066 0.24611 0.0
H1097 H 0.74843 0.73701 0.19671 0.0
C1098 C 0.73109 0.39996 0.75764 0.0
C1099 C 0.7259 0.36632 0.73327 0.0
C1100 C 0.742 0.33266 0.80186 0.0
C1101 C 0.75548 0.36537 0.82391 0.0
N1102 N 0.77195 0.4308 0.81538 0.0
N1103 N 0.74237 0.30103 0.73199 0.0
C1104 C 0.75264 0.39935 0.79985 0.0
C1105 C 0.73647 0.33285 0.75536 0.0
N1106 N 0.71402 0.43232 0.74243 0.0
N1107 N 0.73423 0.30108 0.82521 0.0
H1108 H 0.74211 0.30053 0.69756 0.0
H1109 H 0.75305 0.27662 0.7467 0.0
H1110 H 0.73542 0.30041 0.85965 0.0
H1111 H 0.72151 0.27727 0.81059 0.0
H1112 H 0.71371 0.45632 0.76153 0.0
H1113 H 0.6962 0.43464 0.71333 0.0
H1114 H 0.77416 0.45481 0.79642 0.0
H1115 H 0.78941 0.43227 0.84479 0.0
C1116 C 0.28396 0.40039 0.764 0.0
C1117 C 0.26492 0.39133 0.72283 0.0
C1118 C 0.19332 0.39585 0.75719 0.0
C1119 C 0.21296 0.39387 0.79948 0.0
N1120 N 0.27919 0.39276 0.84319 0.0
N1121 N 0.19987 0.38047 0.67959 0.0
C1122 C 0.25899 0.39614 0.80312 0.0
C1123 C 0.21901 0.38928 0.71902 0.0
N1124 N 0.32485 0.41499 0.76543 0.0
N1125 N 0.15106 0.40654 0.75345 0.0
H1126 H 0.21751 0.3764 0.6505 0.0
H1127 H 0.16667 0.37496 0.67668 0.0
H1128 H 0.13461 0.41769 0.78047 0.0
H1129 H 0.13552 0.41027 0.7231 0.0
H1130 H 0.33939 0.42417 0.79465 0.0
H1131 H 0.341 0.42292 0.73652 0.0
H1132 H 0.31289 0.3906 0.84621 0.0
H1133 H 0.26247 0.38924 0.87291 0.0
C1134 C 0.28801 0.64238 0.25845 0.0
C1135 C 0.27116 0.65266 0.30007 0.0
C1136 C 0.20502 0.67616 0.26611 0.0
C1137 C 0.22168 0.66681 0.22328 0.0
N1138 N 0.28289 0.64714 0.17856 0.0
N1139 N 0.20886 0.66613 0.34521 0.0
C1140 C 0.26398 0.65081 0.21939 0.0
C1141 C 0.228 0.66498 0.30433 0.0
N1142 N 0.32637 0.62349 0.25689 0.0
N1143 N 0.16961 0.69853 0.27111 0.0
H1144 H 0.22497 0.65851 0.37415 0.0
H1145 H 0.1757 0.6706 0.34991 0.0
H1146 H 0.15354 0.7114 0.2454 0.0
H1147 H 0.15957 0.709 0.30156 0.0
H1148 H 0.33957 0.61224 0.22819 0.0
H1149 H 0.34275 0.61571 0.2857 0.0
H1150 H 0.31488 0.63881 0.17362 0.0
H1151 H 0.26828 0.65588 0.14927 0.0
loop_
_geom_bond_atom_site_label_1
_geom_bond_atom_site_label_2
_geom_bond_distance
_geom_bond_site_symmetry_2
_ccdc_geom_bond_type
Mn0 O5 2.095 . S
Mn0 O15 2.162 . S
Mn0 O16 2.297 . S
Mn0 O24 2.385 . S
Mn0 O25 2.209 . S
Mn0 O26 2.094 . S
Mn1 O6 2.121 . S
Mn1 N8 2.257 . S
Mn1 N17 2.282 . S
Mn1 O25 2.215 . S
Mn1 O27 2.117 . S
C2 O24 1.234 . S
C2 O25 1.283 . S
C3 O15 1.281 . S
C3 O16 1.236 . S
C4 O26 1.240 . S
C4 O27 1.264 . S
O5 Mn0 2.095 . S
O5 C14 1.250 . S
O6 Mn1 2.121 . S
O6 C14 1.258 . S
C7 N8 1.326 . S
C7 C11 1.460 . S
C7 H13 0.929 . S
N8 Mn1 2.257 . S
N8 C7 1.326 . S
N8 C12 1.362 . S
C9 C10 1.258 . S
C9 C12 1.431 . S
C9 C29 1.449 . S
C10 C9 1.258 . S
C10 C11 1.477 . S
C10 H30 0.931 . S
C11 C7 1.460 . S
C11 C10 1.477 . S
C11 H31 0.930 . S
C12 N8 1.362 . S
C12 C9 1.431 . S
C12 C22 1.476 . S
H13 C7 0.929 . S
C14 O5 1.250 . S
C14 O6 1.258 . S
O15 Mn0 2.162 . S
O15 C3 1.281 . S
O16 Mn0 2.297 . S
O16 C3 1.236 . S
N17 Mn1 2.282 . S
N17 C18 1.328 . S
N17 C22 1.318 . S
C18 N17 1.328 . S
C18 C19 1.457 . S
C18 H23 0.929 . S
C19 C18 1.457 . S
C19 C20 1.291 . S
C19 H32 0.931 . S
C20 C19 1.291 . S
C20 C21 1.373 . S
C20 H33 0.929 . S
C21 C20 1.373 . S
C21 C22 1.396 . S
C21 C28 1.403 . S
C22 C12 1.476 . S
C22 N17 1.318 . S
C22 C21 1.396 . S
H23 C18 0.929 . S
O24 Mn0 2.385 . S
O24 C2 1.234 . S
O25 Mn0 2.209 . S
O25 Mn1 2.215 . S
O25 C2 1.283 . S
O26 Mn0 2.094 . S
O26 C4 1.240 . S
O27 Mn1 2.117 . S
O27 C4 1.264 . S
C28 C21 1.403 . S
C28 C29 1.399 . S
C28 H34 0.929 . S
C29 C9 1.449 . S
C29 C28 1.399 . S
C29 H35 0.930 . S
H30 C10 0.931 . S
H31 C11 0.930 . S
H32 C19 0.931 . S
H33 C20 0.929 . S
H34 C28 0.929 . S
H35 C29 0.930 . S
Mn36 O41 2.095 . S
Mn36 O51 2.162 . S
Mn36 O52 2.297 . S
Mn36 O60 2.385 . S
Mn36 O61 2.209 . S
Mn36 O62 2.094 . S
Mn37 O42 2.121 . S
Mn37 N44 2.257 . S
Mn37 N53 2.282 . S
Mn37 O61 2.215 . S
Mn37 O63 2.117 . S
C38 O60 1.234 . S
C38 O61 1.283 . S
C39 O51 1.281 . S
C39 O52 1.236 . S
C40 O62 1.240 . S
C40 O63 1.264 . S
O41 Mn36 2.095 . S
O41 C50 1.250 . S
O42 Mn37 2.121 . S
O42 C50 1.258 . S
C43 N44 1.326 . S
C43 C47 1.460 . S
C43 H49 0.929 . S
N44 Mn37 2.257 . S
N44 C43 1.326 . S
N44 C48 1.362 . S
C45 C46 1.258 . S
C45 C48 1.431 . S
C45 C65 1.449 1_455 S
C46 C45 1.258 . S
C46 C47 1.477 . S
C46 H66 0.931 1_455 S
C47 C43 1.460 . S
C47 C46 1.477 . S
C47 H67 0.930 . S
C48 N44 1.362 . S
C48 C45 1.431 . S
C48 C58 1.476 . S
H49 C43 0.929 . S
C50 O41 1.250 . S
C50 O42 1.258 . S
O51 Mn36 2.162 . S
O51 C39 1.281 . S
O52 Mn36 2.297 . S
O52 C39 1.236 . S
N53 Mn37 2.282 . S
N53 C54 1.328 . S
N53 C58 1.318 . S
C54 N53 1.328 . S
C54 C55 1.457 . S
C54 H59 0.929 . S
C55 C54 1.457 . S
C55 C56 1.296 . S
C55 H68 0.931 . S
C56 C55 1.296 . S
C56 C57 1.373 . S
C56 H69 0.924 1_455 S
C57 C56 1.373 . S
C57 C58 1.396 . S
C57 C64 1.403 1_455 S
C58 C48 1.476 . S
C58 N53 1.318 . S
C58 C57 1.396 . S
H59 C54 0.929 . S
O60 Mn36 2.385 . S
O60 C38 1.234 . S
O61 Mn36 2.209 . S
O61 Mn37 2.215 . S
O61 C38 1.283 . S
O62 Mn36 2.094 . S
O62 C40 1.240 . S
O63 Mn37 2.117 . S
O63 C40 1.264 . S
C64 C57 1.403 1_655 S
C64 C65 1.399 . S
C64 H70 0.929 . S
C65 C45 1.449 1_655 S
C65 C64 1.399 . S
C65 H71 0.930 . S
H66 C46 0.931 1_655 S
H67 C47 0.930 . S
H68 C55 0.931 . S
H69 C56 0.924 1_655 S
H70 C64 0.929 . S
H71 C65 0.930 . S
Mn72 O77 2.095 . S
Mn72 O87 2.162 . S
Mn72 O88 2.297 . S
Mn72 O96 2.385 . S
Mn72 O97 2.209 . S
Mn72 O98 2.094 . S
Mn73 O78 2.121 . S
Mn73 N80 2.257 . S
Mn73 N89 2.282 . S
Mn73 O97 2.215 . S
Mn73 O99 2.117 . S
C74 O96 1.234 . S
C74 O97 1.283 . S
C75 O87 1.281 . S
C75 O88 1.236 . S
C76 O98 1.240 . S
C76 O99 1.264 . S
O77 Mn72 2.095 . S
O77 C86 1.250 . S
O78 Mn73 2.121 . S
O78 C86 1.258 . S
C79 N80 1.326 . S
C79 C83 1.460 . S
C79 H85 0.929 . S
N80 Mn73 2.257 . S
N80 C79 1.326 . S
N80 C84 1.362 . S
C81 C82 1.258 . S
C81 C84 1.431 . S
C81 C101 1.449 . S
C82 C81 1.258 . S
C82 C83 1.477 . S
C82 H102 0.931 . S
C83 C79 1.460 . S
C83 C82 1.477 . S
C83 H103 0.930 . S
C84 N80 1.362 . S
C84 C81 1.431 . S
C84 C94 1.476 . S
H85 C79 0.929 . S
C86 O77 1.250 . S
C86 O78 1.258 . S
O87 Mn72 2.162 . S
O87 C75 1.281 . S
O88 Mn72 2.297 . S
O88 C75 1.236 . S
N89 Mn73 2.282 . S
N89 C90 1.328 . S
N89 C94 1.318 . S
C90 N89 1.328 . S
C90 C91 1.457 . S
C90 H95 0.929 . S
C91 C90 1.457 . S
C91 C92 1.291 . S
C91 H104 0.931 . S
C92 C91 1.291 . S
C92 C93 1.373 . S
C92 H105 0.929 . S
C93 C92 1.373 . S
C93 C94 1.396 . S
C93 C100 1.403 . S
C94 C84 1.476 . S
C94 N89 1.318 . S
C94 C93 1.396 . S
H95 C90 0.929 . S
O96 Mn72 2.385 . S
O96 C74 1.234 . S
O97 Mn72 2.209 . S
O97 Mn73 2.215 . S
O97 C74 1.283 . S
O98 Mn72 2.094 . S
O98 C76 1.240 . S
O99 Mn73 2.117 . S
O99 C76 1.264 . S
C100 C93 1.403 . S
C100 C101 1.399 . S
C100 H106 0.929 . S
C101 C81 1.449 . S
C101 C100 1.399 . S
C101 H107 0.930 . S
H102 C82 0.931 . S
H103 C83 0.930 . S
H104 C91 0.931 . S
H105 C92 0.929 . S
H106 C100 0.929 . S
H107 C101 0.930 . S
Mn108 O113 2.095 . S
Mn108 O123 2.162 . S
Mn108 O124 2.297 . S
Mn108 O132 2.385 . S
Mn108 O133 2.209 . S
Mn108 O134 2.094 . S
Mn109 O114 2.121 . S
Mn109 N116 2.257 . S
Mn109 N125 2.282 . S
Mn109 O133 2.215 . S
Mn109 O135 2.117 . S
C110 O132 1.234 . S
C110 O133 1.283 . S
C111 O123 1.281 . S
C111 O124 1.236 . S
C112 O134 1.240 . S
C112 O135 1.264 . S
O113 Mn108 2.095 . S
O113 C122 1.250 . S
O114 Mn109 2.121 . S
O114 C122 1.258 . S
C115 N116 1.326 . S
C115 C119 1.460 . S
C115 H121 0.929 . S
N116 Mn109 2.257 . S
N116 C115 1.326 . S
N116 C120 1.362 . S
C117 C118 1.258 . S
C117 C120 1.431 . S
C117 C137 1.449 1_455 S
C118 C117 1.258 . S
C118 C119 1.477 . S
C118 H138 0.931 1_455 S
C119 C115 1.460 . S
C119 C118 1.477 . S
C119 H139 0.930 . S
C120 N116 1.362 . S
C120 C117 1.431 . S
C120 C130 1.476 . S
H121 C115 0.929 . S
C122 O113 1.250 . S
C122 O114 1.258 . S
O123 Mn108 2.162 . S
O123 C111 1.281 . S
O124 Mn108 2.297 . S
O124 C111 1.236 . S
N125 Mn109 2.282 . S
N125 C126 1.328 . S
N125 C130 1.318 . S
C126 N125 1.328 . S
C126 C127 1.457 . S
C126 H131 0.929 . S
C127 C126 1.457 . S
C127 C128 1.296 . S
C127 H140 0.931 . S
C128 C127 1.296 . S
C128 C129 1.373 . S
C128 H141 0.924 1_455 S
C129 C128 1.373 . S
C129 C130 1.396 . S
C129 C136 1.403 1_455 S
C130 C120 1.476 . S
C130 N125 1.318 . S
C130 C129 1.396 . S
H131 C126 0.929 . S
O132 Mn108 2.385 . S
O132 C110 1.234 . S
O133 Mn108 2.209 . S
O133 Mn109 2.215 . S
O133 C110 1.283 . S
O134 Mn108 2.094 . S
O134 C112 1.240 . S
O135 Mn109 2.117 . S
O135 C112 1.264 . S
C136 C129 1.403 1_655 S
C136 C137 1.399 . S
C136 H142 0.929 . S
C137 C117 1.449 1_655 S
C137 C136 1.399 . S
C137 H143 0.930 . S
H138 C118 0.931 1_655 S
H139 C119 0.930 . S
H140 C127 0.931 . S
H141 C128 0.924 1_655 S
H142 C136 0.929 . S
H143 C137 0.930 . S
Mn144 O149 2.095 . S
Mn144 O159 2.162 . S
Mn144 O160 2.297 . S
Mn144 O168 2.385 . S
Mn144 O169 2.209 . S
Mn144 O170 2.094 . S
Mn145 O150 2.121 . S
Mn145 N152 2.257 . S
Mn145 N161 2.282 . S
Mn145 O169 2.215 . S
Mn145 O171 2.117 . S
C146 O168 1.234 . S
C146 O169 1.283 . S
C147 O159 1.281 . S
C147 O160 1.236 . S
C148 O170 1.240 . S
C148 O171 1.264 . S
O149 Mn144 2.095 . S
O149 C158 1.250 . S
O150 Mn145 2.121 . S
O150 C158 1.258 . S
C151 N152 1.326 . S
C151 C155 1.460 . S
C151 H157 0.929 . S
N152 Mn145 2.257 . S
N152 C151 1.326 . S
N152 C156 1.362 . S
C153 C154 1.258 . S
C153 C156 1.431 . S
C153 C173 1.449 . S
C154 C153 1.258 . S
C154 C155 1.477 . S
C154 H174 0.931 . S
C155 C151 1.460 . S
C155 C154 1.477 . S
C155 H175 0.930 . S
C156 N152 1.362 . S
C156 C153 1.431 . S
C156 C166 1.476 . S
H157 C151 0.929 . S
C158 O149 1.250 . S
C158 O150 1.258 . S
O159 Mn144 2.162 . S
O159 C147 1.281 . S
O160 Mn144 2.297 . S
O160 C147 1.236 . S
N161 Mn145 2.282 . S
N161 C162 1.328 . S
N161 C166 1.318 . S
C162 N161 1.328 . S
C162 C163 1.457 . S
C162 H167 0.929 . S
C163 C162 1.457 . S
C163 C164 1.291 . S
C163 H176 0.931 . S
C164 C163 1.291 . S
C164 C165 1.373 . S
C164 H177 0.929 . S
C165 C164 1.373 . S
C165 C166 1.396 . S
C165 C172 1.403 . S
C166 C156 1.476 . S
C166 N161 1.318 . S
C166 C165 1.396 . S
H167 C162 0.929 . S
O168 Mn144 2.385 . S
O168 C146 1.234 . S
O169 Mn144 2.209 . S
O169 Mn145 2.215 . S
O169 C146 1.283 . S
O170 Mn144 2.094 . S
O170 C148 1.240 . S
O171 Mn145 2.117 . S
O171 C148 1.264 . S
C172 C165 1.403 . S
C172 C173 1.399 . S
C172 H178 0.929 . S
C173 C153 1.449 . S
C173 C172 1.399 . S
C173 H179 0.930 . S
H174 C154 0.931 . S
H175 C155 0.930 . S
H176 C163 0.931 . S
H177 C164 0.929 . S
H178 C172 0.929 . S
H179 C173 0.930 . S
Mn180 O185 2.095 . S
Mn180 O195 2.162 . S
Mn180 O196 2.297 . S
Mn180 O204 2.385 . S
Mn180 O205 2.209 . S
Mn180 O206 2.094 . S
Mn181 O186 2.121 . S
Mn181 N188 2.257 . S
Mn181 N197 2.282 . S
Mn181 O205 2.215 . S
Mn181 O207 2.117 . S
C182 O204 1.234 . S
C182 O205 1.283 . S
C183 O195 1.281 . S
C183 O196 1.236 . S
C184 O206 1.240 . S
C184 O207 1.264 . S
O185 Mn180 2.095 . S
O185 C194 1.250 . S
O186 Mn181 2.121 . S
O186 C194 1.258 . S
C187 N188 1.326 . S
C187 C191 1.460 . S
C187 H193 0.929 . S
N188 Mn181 2.257 . S
N188 C187 1.326 . S
N188 C192 1.362 . S
C189 C190 1.258 . S
C189 C192 1.431 . S
C189 C209 1.449 1_655 S
C190 C189 1.258 . S
C190 C191 1.477 . S
C190 H210 0.931 . S
C191 C187 1.460 . S
C191 C190 1.477 . S
C191 H211 0.930 . S
C192 N188 1.362 . S
C192 C189 1.431 . S
C192 C202 1.476 . S
H193 C187 0.929 . S
C194 O185 1.250 . S
C194 O186 1.258 . S
O195 Mn180 2.162 . S
O195 C183 1.281 . S
O196 Mn180 2.297 . S
O196 C183 1.236 . S
N197 Mn181 2.282 . S
N197 C198 1.328 . S
N197 C202 1.318 . S
C198 N197 1.328 . S
C198 C199 1.457 . S
C198 H203 0.929 . S
C199 C198 1.457 . S
C199 C200 1.291 . S
C199 H212 0.931 . S
C200 C199 1.291 . S
C200 C201 1.373 . S
C200 H213 0.929 1_655 S
C201 C200 1.373 . S
C201 C202 1.396 . S
C201 C208 1.403 1_655 S
C202 C192 1.476 . S
C202 N197 1.318 . S
C202 C201 1.396 . S
H203 C198 0.929 . S
O204 Mn180 2.385 . S
O204 C182 1.234 . S
O205 Mn180 2.209 . S
O205 Mn181 2.215 . S
O205 C182 1.283 . S
O206 Mn180 2.094 . S
O206 C184 1.240 . S
O207 Mn181 2.117 . S
O207 C184 1.264 . S
C208 C201 1.403 1_455 S
C208 C209 1.399 . S
C208 H214 0.929 . S
C209 C189 1.449 1_455 S
C209 C208 1.399 . S
C209 H215 0.930 . S
H210 C190 0.931 . S
H211 C191 0.930 . S
H212 C199 0.931 . S
H213 C200 0.929 1_455 S
H214 C208 0.929 . S
H215 C209 0.930 . S
Mn216 O221 2.095 . S
Mn216 O231 2.162 . S
Mn216 O232 2.297 . S
Mn216 O240 2.385 . S
Mn216 O241 2.209 . S
Mn216 O242 2.094 . S
Mn217 O222 2.121 . S
Mn217 N224 2.257 . S
Mn217 N233 2.282 . S
Mn217 O241 2.215 . S
Mn217 O243 2.117 . S
C218 O240 1.234 . S
C218 O241 1.283 . S
C219 O231 1.281 . S
C219 O232 1.236 . S
C220 O242 1.240 . S
C220 O243 1.264 . S
O221 Mn216 2.095 . S
O221 C230 1.250 . S
O222 Mn217 2.121 . S
O222 C230 1.258 . S
C223 N224 1.326 . S
C223 C227 1.460 . S
C223 H229 0.929 . S
N224 Mn217 2.257 . S
N224 C223 1.326 . S
N224 C228 1.362 . S
C225 C226 1.258 . S
C225 C228 1.431 . S
C225 C245 1.449 . S
C226 C225 1.258 . S
C226 C227 1.477 . S
C226 H246 0.931 . S
C227 C223 1.460 . S
C227 C226 1.477 . S
C227 H247 0.930 . S
C228 N224 1.362 . S
C228 C225 1.431 . S
C228 C238 1.476 . S
H229 C223 0.929 . S
C230 O221 1.250 . S
C230 O222 1.258 . S
O231 Mn216 2.162 . S
O231 C219 1.281 . S
O232 Mn216 2.297 . S
O232 C219 1.236 . S
N233 Mn217 2.282 . S
N233 C234 1.328 . S
N233 C238 1.318 . S
C234 N233 1.328 . S
C234 C235 1.457 . S
C234 H239 0.929 . S
C235 C234 1.457 . S
C235 C236 1.291 . S
C235 H248 0.931 . S
C236 C235 1.291 . S
C236 C237 1.373 . S
C236 H249 0.929 . S
C237 C236 1.373 . S
C237 C238 1.396 . S
C237 C244 1.403 . S
C238 C228 1.476 . S
C238 N233 1.318 . S
C238 C237 1.396 . S
H239 C234 0.929 . S
O240 Mn216 2.385 . S
O240 C218 1.234 . S
O241 Mn216 2.209 . S
O241 Mn217 2.215 . S
O241 C218 1.283 . S
O242 Mn216 2.094 . S
O242 C220 1.240 . S
O243 Mn217 2.117 . S
O243 C220 1.264 . S
C244 C237 1.403 . S
C244 C245 1.399 . S
C244 H250 0.929 . S
C245 C225 1.449 . S
C245 C244 1.399 . S
C245 H251 0.930 . S
H246 C226 0.931 . S
H247 C227 0.930 . S
H248 C235 0.931 . S
H249 C236 0.929 . S
H250 C244 0.929 . S
H251 C245 0.930 . S
Mn252 O257 2.095 . S
Mn252 O267 2.162 . S
Mn252 O268 2.297 . S
Mn252 O276 2.385 . S
Mn252 O277 2.209 . S
Mn252 O278 2.094 . S
Mn253 O258 2.121 . S
Mn253 N260 2.257 . S
Mn253 N269 2.282 . S
Mn253 O277 2.215 . S
Mn253 O279 2.117 . S
C254 O276 1.234 . S
C254 O277 1.283 . S
C255 O267 1.281 . S
C255 O268 1.236 . S
C256 O278 1.240 . S
C256 O279 1.264 . S
O257 Mn252 2.095 . S
O257 C266 1.250 . S
O258 Mn253 2.121 . S
O258 C266 1.258 . S
C259 N260 1.326 . S
C259 C263 1.460 . S
C259 H265 0.929 . S
N260 Mn253 2.257 . S
N260 C259 1.326 . S
N260 C264 1.362 . S
C261 C262 1.258 . S
C261 C264 1.431 . S
C261 C281 1.449 1_655 S
C262 C261 1.258 . S
C262 C263 1.477 . S
C262 H282 0.931 . S
C263 C259 1.460 . S
C263 C262 1.477 . S
C263 H283 0.930 . S
C264 N260 1.362 . S
C264 C261 1.431 . S
C264 C274 1.476 . S
H265 C259 0.929 . S
C266 O257 1.250 . S
C266 O258 1.258 . S
O267 Mn252 2.162 . S
O267 C255 1.281 . S
O268 Mn252 2.297 . S
O268 C255 1.236 . S
N269 Mn253 2.282 . S
N269 C270 1.328 . S
N269 C274 1.318 . S
C270 N269 1.328 . S
C270 C271 1.457 . S
C270 H275 0.929 . S
C271 C270 1.457 . S
C271 C272 1.291 . S
C271 H284 0.931 . S
C272 C271 1.291 . S
C272 C273 1.373 . S
C272 H285 0.929 1_655 S
C273 C272 1.373 . S
C273 C274 1.396 . S
C273 C280 1.403 1_655 S
C274 C264 1.476 . S
C274 N269 1.318 . S
C274 C273 1.396 . S
H275 C270 0.929 . S
O276 Mn252 2.385 . S
O276 C254 1.234 . S
O277 Mn252 2.209 . S
O277 Mn253 2.215 . S
O277 C254 1.283 . S
O278 Mn252 2.094 . S
O278 C256 1.240 . S
O279 Mn253 2.117 . S
O279 C256 1.264 . S
C280 C273 1.403 1_455 S
C280 C281 1.399 . S
C280 H286 0.929 . S
C281 C261 1.449 1_455 S
C281 C280 1.399 . S
C281 H287 0.930 . S
H282 C262 0.931 . S
H283 C263 0.930 . S
H284 C271 0.931 . S
H285 C272 0.929 1_455 S
H286 C280 0.929 . S
H287 C281 0.930 . S
Mn288 O293 2.095 . S
Mn288 O303 2.162 . S
Mn288 O304 2.297 . S
Mn288 O312 2.385 . S
Mn288 O313 2.209 . S
Mn288 O314 2.094 . S
Mn289 O294 2.121 . S
Mn289 N296 2.257 . S
Mn289 N305 2.282 . S
Mn289 O313 2.215 . S
Mn289 O315 2.117 . S
C290 O312 1.234 . S
C290 O313 1.283 . S
C291 O303 1.281 . S
C291 O304 1.236 . S
C292 O314 1.240 . S
C292 O315 1.264 . S
O293 Mn288 2.095 . S
O293 C302 1.250 . S
O294 Mn289 2.121 . S
O294 C302 1.258 . S
C295 N296 1.326 . S
C295 C299 1.460 . S
C295 H301 0.929 . S
N296 Mn289 2.257 . S
N296 C295 1.326 . S
N296 C300 1.362 . S
C297 C298 1.258 . S
C297 C300 1.431 . S
C297 C317 1.449 1_655 S
C298 C297 1.258 . S
C298 C299 1.477 . S
C298 H318 0.931 1_655 S
C299 C295 1.460 . S
C299 C298 1.477 . S
C299 H319 0.930 . S
C300 N296 1.362 . S
C300 C297 1.431 . S
C300 C310 1.476 . S
H301 C295 0.929 . S
C302 O293 1.250 . S
C302 O294 1.258 . S
O303 Mn288 2.162 . S
O303 C291 1.281 . S
O304 Mn288 2.297 . S
O304 C291 1.236 . S
N305 Mn289 2.282 . S
N305 C306 1.328 . S
N305 C310 1.318 . S
C306 N305 1.328 . S
C306 C307 1.457 . S
C306 H311 0.929 . S
C307 C306 1.457 . S
C307 C308 1.296 . S
C307 H320 0.931 . S
C308 C307 1.296 . S
C308 C309 1.373 . S
C308 H321 0.924 1_655 S
C309 C308 1.373 . S
C309 C310 1.396 . S
C309 C316 1.403 1_655 S
C310 C300 1.476 . S
C310 N305 1.318 . S
C310 C309 1.396 . S
H311 C306 0.929 . S
O312 Mn288 2.385 . S
O312 C290 1.234 . S
O313 Mn288 2.209 . S
O313 Mn289 2.215 . S
O313 C290 1.283 . S
O314 Mn288 2.094 . S
O314 C292 1.240 . S
O315 Mn289 2.117 . S
O315 C292 1.264 . S
C316 C309 1.403 1_455 S
C316 C317 1.399 . S
C316 H322 0.929 . S
C317 C297 1.449 1_455 S
C317 C316 1.399 . S
C317 H323 0.930 . S
H318 C298 0.931 1_455 S
H319 C299 0.930 . S
H320 C307 0.931 . S
H321 C308 0.924 1_455 S
H322 C316 0.929 . S
H323 C317 0.930 . S
Mn324 O329 2.095 . S
Mn324 O339 2.162 . S
Mn324 O340 2.297 . S
Mn324 O348 2.385 . S
Mn324 O349 2.209 . S
Mn324 O350 2.094 . S
Mn325 O330 2.121 . S
Mn325 N332 2.257 . S
Mn325 N341 2.282 . S
Mn325 O349 2.215 . S
Mn325 O351 2.117 . S
C326 O348 1.234 . S
C326 O349 1.283 . S
C327 O339 1.281 . S
C327 O340 1.236 . S
C328 O350 1.240 . S
C328 O351 1.264 . S
O329 Mn324 2.095 . S
O329 C338 1.250 . S
O330 Mn325 2.121 . S
O330 C338 1.258 . S
C331 N332 1.326 . S
C331 C335 1.460 . S
C331 H337 0.929 . S
N332 Mn325 2.257 . S
N332 C331 1.326 . S
N332 C336 1.362 . S
C333 C334 1.258 . S
C333 C336 1.431 . S
C333 C353 1.449 . S
C334 C333 1.258 . S
C334 C335 1.477 . S
C334 H354 0.931 . S
C335 C331 1.460 . S
C335 C334 1.477 . S
C335 H355 0.930 . S
C336 N332 1.362 . S
C336 C333 1.431 . S
C336 C346 1.476 . S
H337 C331 0.929 . S
C338 O329 1.250 . S
C338 O330 1.258 . S
O339 Mn324 2.162 . S
O339 C327 1.281 . S
O340 Mn324 2.297 . S
O340 C327 1.236 . S
N341 Mn325 2.282 . S
N341 C342 1.328 . S
N341 C346 1.318 . S
C342 N341 1.328 . S
C342 C343 1.457 . S
C342 H347 0.929 . S
C343 C342 1.457 . S
C343 C344 1.291 . S
C343 H356 0.931 . S
C344 C343 1.291 . S
C344 C345 1.373 . S
C344 H357 0.929 . S
C345 C344 1.373 . S
C345 C346 1.396 . S
C345 C352 1.403 . S
C346 C336 1.476 . S
C346 N341 1.318 . S
C346 C345 1.396 . S
H347 C342 0.929 . S
O348 Mn324 2.385 . S
O348 C326 1.234 . S
O349 Mn324 2.209 . S
O349 Mn325 2.215 . S
O349 C326 1.283 . S
O350 Mn324 2.094 . S
O350 C328 1.240 . S
O351 Mn325 2.117 . S
O351 C328 1.264 . S
C352 C345 1.403 . S
C352 C353 1.399 . S
C352 H358 0.929 . S
C353 C333 1.449 . S
C353 C352 1.399 . S
C353 H359 0.930 . S
H354 C334 0.931 . S
H355 C335 0.930 . S
H356 C343 0.931 . S
H357 C344 0.929 . S
H358 C352 0.929 . S
H359 C353 0.930 . S
Mn360 O365 2.095 . S
Mn360 O375 2.162 . S
Mn360 O376 2.297 . S
Mn360 O384 2.385 . S
Mn360 O385 2.209 . S
Mn360 O386 2.094 . S
Mn361 O366 2.121 . S
Mn361 N368 2.257 . S
Mn361 N377 2.282 . S
Mn361 O385 2.215 . S
Mn361 O387 2.117 . S
C362 O384 1.234 . S
C362 O385 1.283 . S
C363 O375 1.281 . S
C363 O376 1.236 . S
C364 O386 1.240 . S
C364 O387 1.264 . S
O365 Mn360 2.095 . S
O365 C374 1.250 . S
O366 Mn361 2.121 . S
O366 C374 1.258 . S
C367 N368 1.326 . S
C367 C371 1.460 . S
C367 H373 0.929 . S
N368 Mn361 2.257 . S
N368 C367 1.326 . S
N368 C372 1.362 . S
C369 C370 1.258 . S
C369 C372 1.431 . S
C369 C389 1.449 1_655 S
C370 C369 1.258 . S
C370 C371 1.477 . S
C370 H390 0.931 1_655 S
C371 C367 1.460 . S
C371 C370 1.477 . S
C371 H391 0.930 . S
C372 N368 1.362 . S
C372 C369 1.431 . S
C372 C382 1.476 . S
H373 C367 0.929 . S
C374 O365 1.250 . S
C374 O366 1.258 . S
O375 Mn360 2.162 . S
O375 C363 1.281 . S
O376 Mn360 2.297 . S
O376 C363 1.236 . S
N377 Mn361 2.282 . S
N377 C378 1.328 . S
N377 C382 1.318 . S
C378 N377 1.328 . S
C378 C379 1.457 . S
C378 H383 0.929 . S
C379 C378 1.457 . S
C379 C380 1.296 . S
C379 H392 0.931 . S
C380 C379 1.296 . S
C380 C381 1.373 . S
C380 H393 0.924 1_655 S
C381 C380 1.373 . S
C381 C382 1.396 . S
C381 C388 1.403 1_655 S
C382 C372 1.476 . S
C382 N377 1.318 . S
C382 C381 1.396 . S
H383 C378 0.929 . S
O384 Mn360 2.385 . S
O384 C362 1.234 . S
O385 Mn360 2.209 . S
O385 Mn361 2.215 . S
O385 C362 1.283 . S
O386 Mn360 2.094 . S
O386 C364 1.240 . S
O387 Mn361 2.117 . S
O387 C364 1.264 . S
C388 C381 1.403 1_455 S
C388 C389 1.399 . S
C388 H394 0.929 . S
C389 C369 1.449 1_455 S
C389 C388 1.399 . S
C389 H395 0.930 . S
H390 C370 0.931 1_455 S
H391 C371 0.930 . S
H392 C379 0.931 . S
H393 C380 0.924 1_455 S
H394 C388 0.929 . S
H395 C389 0.930 . S
Mn396 O401 2.095 . S
Mn396 O411 2.162 . S
Mn396 O412 2.297 . S
Mn396 O420 2.385 . S
Mn396 O421 2.209 . S
Mn396 O422 2.094 . S
Mn397 O402 2.121 . S
Mn397 N404 2.257 . S
Mn397 N413 2.282 . S
Mn397 O421 2.215 . S
Mn397 O423 2.117 . S
C398 O420 1.234 . S
C398 O421 1.283 . S
C399 O411 1.281 . S
C399 O412 1.236 . S
C400 O422 1.240 . S
C400 O423 1.264 . S
O401 Mn396 2.095 . S
O401 C410 1.250 . S
O402 Mn397 2.121 . S
O402 C410 1.258 . S
C403 N404 1.326 . S
C403 C407 1.460 . S
C403 H409 0.929 . S
N404 Mn397 2.257 . S
N404 C403 1.326 . S
N404 C408 1.362 . S
C405 C406 1.258 . S
C405 C408 1.431 . S
C405 C425 1.449 . S
C406 C405 1.258 . S
C406 C407 1.477 . S
C406 H426 0.931 . S
C407 C403 1.460 . S
C407 C406 1.477 . S
C407 H427 0.930 . S
C408 N404 1.362 . S
C408 C405 1.431 . S
C408 C418 1.476 . S
H409 C403 0.929 . S
C410 O401 1.250 . S
C410 O402 1.258 . S
O411 Mn396 2.162 . S
O411 C399 1.281 . S
O412 Mn396 2.297 . S
O412 C399 1.236 . S
N413 Mn397 2.282 . S
N413 C414 1.328 . S
N413 C418 1.318 . S
C414 N413 1.328 . S
C414 C415 1.457 . S
C414 H419 0.929 . S
C415 C414 1.457 . S
C415 C416 1.291 . S
C415 H428 0.931 . S
C416 C415 1.291 . S
C416 C417 1.373 . S
C416 H429 0.929 . S
C417 C416 1.373 . S
C417 C418 1.396 . S
C417 C424 1.403 . S
C418 C408 1.476 . S
C418 N413 1.318 . S
C418 C417 1.396 . S
H419 C414 0.929 . S
O420 Mn396 2.385 . S
O420 C398 1.234 . S
O421 Mn396 2.209 . S
O421 Mn397 2.215 . S
O421 C398 1.283 . S
O422 Mn396 2.094 . S
O422 C400 1.240 . S
O423 Mn397 2.117 . S
O423 C400 1.264 . S
C424 C417 1.403 . S
C424 C425 1.399 . S
C424 H430 0.929 . S
C425 C405 1.449 . S
C425 C424 1.399 . S
C425 H431 0.930 . S
H426 C406 0.931 . S
H427 C407 0.930 . S
H428 C415 0.931 . S
H429 C416 0.929 . S
H430 C424 0.929 . S
H431 C425 0.930 . S
Mn432 O437 2.095 . S
Mn432 O447 2.162 . S
Mn432 O448 2.297 . S
Mn432 O456 2.385 . S
Mn432 O457 2.209 . S
Mn432 O458 2.094 . S
Mn433 O438 2.121 . S
Mn433 N440 2.257 . S
Mn433 N449 2.282 . S
Mn433 O457 2.215 . S
Mn433 O459 2.117 . S
C434 O456 1.234 . S
C434 O457 1.283 . S
C435 O447 1.281 . S
C435 O448 1.236 . S
C436 O458 1.240 . S
C436 O459 1.264 . S
O437 Mn432 2.095 . S
O437 C446 1.250 . S
O438 Mn433 2.121 . S
O438 C446 1.258 . S
C439 N440 1.326 . S
C439 C443 1.460 . S
C439 H445 0.929 . S
N440 Mn433 2.257 . S
N440 C439 1.326 . S
N440 C444 1.362 . S
C441 C442 1.258 . S
C441 C444 1.431 . S
C441 C461 1.449 1_455 S
C442 C441 1.258 . S
C442 C443 1.477 . S
C442 H462 0.931 . S
C443 C439 1.460 . S
C443 C442 1.477 . S
C443 H463 0.930 . S
C444 N440 1.362 . S
C444 C441 1.431 . S
C444 C454 1.476 . S
H445 C439 0.929 . S
C446 O437 1.250 . S
C446 O438 1.258 . S
O447 Mn432 2.162 . S
O447 C435 1.281 . S
O448 Mn432 2.297 . S
O448 C435 1.236 . S
N449 Mn433 2.282 . S
N449 C450 1.328 . S
N449 C454 1.318 . S
C450 N449 1.328 . S
C450 C451 1.457 . S
C450 H455 0.929 . S
C451 C450 1.457 . S
C451 C452 1.291 . S
C451 H464 0.931 . S
C452 C451 1.291 . S
C452 C453 1.373 . S
C452 H465 0.929 1_455 S
C453 C452 1.373 . S
C453 C454 1.396 . S
C453 C460 1.403 1_455 S
C454 C444 1.476 . S
C454 N449 1.318 . S
C454 C453 1.396 . S
H455 C450 0.929 . S
O456 Mn432 2.385 . S
O456 C434 1.234 . S
O457 Mn432 2.209 . S
O457 Mn433 2.215 . S
O457 C434 1.283 . S
O458 Mn432 2.094 . S
O458 C436 1.240 . S
O459 Mn433 2.117 . S
O459 C436 1.264 . S
C460 C453 1.403 1_655 S
C460 C461 1.399 . S
C460 H466 0.929 . S
C461 C441 1.449 1_655 S
C461 C460 1.399 . S
C461 H467 0.930 . S
H462 C442 0.931 . S
H463 C443 0.930 . S
H464 C451 0.931 . S
H465 C452 0.929 1_655 S
H466 C460 0.929 . S
H467 C461 0.930 . S
Mn468 O473 2.095 . S
Mn468 O483 2.162 . S
Mn468 O484 2.297 . S
Mn468 O492 2.385 . S
Mn468 O493 2.209 . S
Mn468 O494 2.094 . S
Mn469 O474 2.121 . S
Mn469 N476 2.257 . S
Mn469 N485 2.282 . S
Mn469 O493 2.215 . S
Mn469 O495 2.117 . S
C470 O492 1.234 . S
C470 O493 1.283 . S
C471 O483 1.281 . S
C471 O484 1.236 . S
C472 O494 1.240 . S
C472 O495 1.264 . S
O473 Mn468 2.095 . S
O473 C482 1.250 . S
O474 Mn469 2.121 . S
O474 C482 1.258 . S
C475 N476 1.326 . S
C475 C479 1.460 . S
C475 H481 0.929 . S
N476 Mn469 2.257 . S
N476 C475 1.326 . S
N476 C480 1.362 . S
C477 C478 1.258 . S
C477 C480 1.431 . S
C477 C497 1.449 . S
C478 C477 1.258 . S
C478 C479 1.477 . S
C478 H498 0.931 . S
C479 C475 1.460 . S
C479 C478 1.477 . S
C479 H499 0.930 . S
C480 N476 1.362 . S
C480 C477 1.431 . S
C480 C490 1.476 . S
H481 C475 0.929 . S
C482 O473 1.250 . S
C482 O474 1.258 . S
O483 Mn468 2.162 . S
O483 C471 1.281 . S
O484 Mn468 2.297 . S
O484 C471 1.236 . S
N485 Mn469 2.282 . S
N485 C486 1.328 . S
N485 C490 1.318 . S
C486 N485 1.328 . S
C486 C487 1.457 . S
C486 H491 0.929 . S
C487 C486 1.457 . S
C487 C488 1.291 . S
C487 H500 0.931 . S
C488 C487 1.291 . S
C488 C489 1.373 . S
C488 H501 0.929 . S
C489 C488 1.373 . S
C489 C490 1.396 . S
C489 C496 1.403 . S
C490 C480 1.476 . S
C490 N485 1.318 . S
C490 C489 1.396 . S
H491 C486 0.929 . S
O492 Mn468 2.385 . S
O492 C470 1.234 . S
O493 Mn468 2.209 . S
O493 Mn469 2.215 . S
O493 C470 1.283 . S
O494 Mn468 2.094 . S
O494 C472 1.240 . S
O495 Mn469 2.117 . S
O495 C472 1.264 . S
C496 C489 1.403 . S
C496 C497 1.399 . S
C496 H502 0.929 . S
C497 C477 1.449 . S
C497 C496 1.399 . S
C497 H503 0.930 . S
H498 C478 0.931 . S
H499 C479 0.930 . S
H500 C487 0.931 . S
H501 C488 0.929 . S
H502 C496 0.929 . S
H503 C497 0.930 . S
Mn504 O509 2.095 . S
Mn504 O519 2.162 . S
Mn504 O520 2.297 . S
Mn504 O528 2.385 . S
Mn504 O529 2.209 . S
Mn504 O530 2.094 . S
Mn505 O510 2.121 . S
Mn505 N512 2.257 . S
Mn505 N521 2.282 . S
Mn505 O529 2.215 . S
Mn505 O531 2.117 . S
C506 O528 1.234 . S
C506 O529 1.283 . S
C507 O519 1.281 . S
C507 O520 1.236 . S
C508 O530 1.240 . S
C508 O531 1.264 . S
O509 Mn504 2.095 . S
O509 C518 1.250 . S
O510 Mn505 2.121 . S
O510 C518 1.258 . S
C511 N512 1.326 . S
C511 C515 1.460 . S
C511 H517 0.929 . S
N512 Mn505 2.257 . S
N512 C511 1.326 . S
N512 C516 1.362 . S
C513 C514 1.258 . S
C513 C516 1.431 . S
C513 C533 1.449 1_455 S
C514 C513 1.258 . S
C514 C515 1.477 . S
C514 H534 0.931 . S
C515 C511 1.460 . S
C515 C514 1.477 . S
C515 H535 0.930 . S
C516 N512 1.362 . S
C516 C513 1.431 . S
C516 C526 1.476 . S
H517 C511 0.929 . S
C518 O509 1.250 . S
C518 O510 1.258 . S
O519 Mn504 2.162 . S
O519 C507 1.281 . S
O520 Mn504 2.297 . S
O520 C507 1.236 . S
N521 Mn505 2.282 . S
N521 C522 1.328 . S
N521 C526 1.318 . S
C522 N521 1.328 . S
C522 C523 1.457 . S
C522 H527 0.929 . S
C523 C522 1.457 . S
C523 C524 1.291 . S
C523 H536 0.931 . S
C524 C523 1.291 . S
C524 C525 1.373 . S
C524 H537 0.929 1_455 S
C525 C524 1.373 . S
C525 C526 1.396 . S
C525 C532 1.403 1_455 S
C526 C516 1.476 . S
C526 N521 1.318 . S
C526 C525 1.396 . S
H527 C522 0.929 . S
O528 Mn504 2.385 . S
O528 C506 1.234 . S
O529 Mn504 2.209 . S
O529 Mn505 2.215 . S
O529 C506 1.283 . S
O530 Mn504 2.094 . S
O530 C508 1.240 . S
O531 Mn505 2.117 . S
O531 C508 1.264 . S
C532 C525 1.403 1_655 S
C532 C533 1.399 . S
C532 H538 0.929 . S
C533 C513 1.449 1_655 S
C533 C532 1.399 . S
C533 H539 0.930 . S
H534 C514 0.931 . S
H535 C515 0.930 . S
H536 C523 0.931 . S
H537 C524 0.929 1_655 S
H538 C532 0.929 . S
H539 C533 0.930 . S
Mn540 O545 2.095 . S
Mn540 O555 2.162 . S
Mn540 O556 2.297 . S
Mn540 O564 2.385 . S
Mn540 O565 2.209 . S
Mn540 O566 2.094 . S
Mn541 O546 2.121 . S
Mn541 N548 2.257 . S
Mn541 N557 2.282 . S
Mn541 O565 2.215 . S
Mn541 O567 2.117 . S
C542 O564 1.234 . S
C542 O565 1.283 . S
C543 O555 1.281 . S
C543 O556 1.236 . S
C544 O566 1.240 . S
C544 O567 1.264 . S
O545 Mn540 2.095 . S
O545 C554 1.250 . S
O546 Mn541 2.121 . S
O546 C554 1.258 . S
C547 N548 1.326 . S
C547 C551 1.460 . S
C547 H553 0.929 . S
N548 Mn541 2.257 . S
N548 C547 1.326 . S
N548 C552 1.362 . S
C549 C550 1.258 . S
C549 C552 1.431 . S
C549 C569 1.449 . S
C550 C549 1.258 . S
C550 C551 1.477 . S
C550 H570 0.931 . S
C551 C547 1.460 . S
C551 C550 1.477 . S
C551 H571 0.930 . S
C552 N548 1.362 . S
C552 C549 1.431 . S
C552 C562 1.476 . S
H553 C547 0.929 . S
C554 O545 1.250 . S
C554 O546 1.258 . S
O555 Mn540 2.162 . S
O555 C543 1.281 . S
O556 Mn540 2.297 . S
O556 C543 1.236 . S
N557 Mn541 2.282 . S
N557 C558 1.328 . S
N557 C562 1.318 . S
C558 N557 1.328 . S
C558 C559 1.457 . S
C558 H563 0.929 . S
C559 C558 1.457 . S
C559 C560 1.291 . S
C559 H572 0.931 . S
C560 C559 1.291 . S
C560 C561 1.373 . S
C560 H573 0.929 . S
C561 C560 1.373 . S
C561 C562 1.396 . S
C561 C568 1.403 . S
C562 C552 1.476 . S
C562 N557 1.318 . S
C562 C561 1.396 . S
H563 C558 0.929 . S
O564 Mn540 2.385 . S
O564 C542 1.234 . S
O565 Mn540 2.209 . S
O565 Mn541 2.215 . S
O565 C542 1.283 . S
O566 Mn540 2.094 . S
O566 C544 1.240 . S
O567 Mn541 2.117 . S
O567 C544 1.264 . S
C568 C561 1.403 . S
C568 C569 1.399 . S
C568 H574 0.929 . S
C569 C549 1.449 . S
C569 C568 1.399 . S
C569 H575 0.930 . S
H570 C550 0.931 . S
H571 C551 0.930 . S
H572 C559 0.931 . S
H573 C560 0.929 . S
H574 C568 0.929 . S
H575 C569 0.930 . S
C576 C577 1.363 1_556 S
C576 C582 1.379 . S
C576 N584 1.356 . S
C577 C576 1.363 1_554 S
C577 C583 1.363 . S
C578 C579 1.363 1_554 S
C578 C583 1.379 . S
C578 N585 1.356 . S
C579 C578 1.363 1_556 S
C579 C582 1.363 . S
N580 C582 1.356 . S
N580 H592 0.984 . S
N580 H593 0.985 . S
N581 C583 1.356 . S
N581 H586 0.984 . S
N581 H587 0.985 . S
C582 C576 1.379 . S
C582 C579 1.363 . S
C582 N580 1.356 . S
C583 C577 1.363 . S
C583 C578 1.379 . S
C583 N581 1.356 . S
N584 C576 1.356 . S
N584 H590 0.984 . S
N584 H591 0.984 1_556 S
N585 C578 1.356 . S
N585 H588 0.984 . S
N585 H589 0.985 . S
H586 N581 0.984 . S
H587 N581 0.985 . S
H588 N585 0.984 . S
H589 N585 0.985 . S
H590 N584 0.984 . S
H591 N584 0.984 1_554 S
H592 N580 0.984 . S
H593 N580 0.985 . S
C594 C595 1.363 . S
C594 C600 1.379 . S
C594 N602 1.356 . S
C595 C594 1.363 . S
C595 C601 1.363 . S
C596 C597 1.363 . S
C596 C601 1.379 . S
C596 N603 1.356 . S
C597 C596 1.363 . S
C597 C600 1.363 . S
N598 C600 1.356 . S
N598 H610 0.984 . S
N598 H611 0.985 . S
N599 C601 1.356 . S
N599 H604 0.984 . S
N599 H605 0.985 . S
C600 C594 1.379 . S
C600 C597 1.363 . S
C600 N598 1.356 . S
C601 C595 1.363 . S
C601 C596 1.379 . S
C601 N599 1.356 . S
N602 C594 1.356 . S
N602 H608 0.984 . S
N602 H609 0.984 . S
N603 C596 1.356 . S
N603 H606 0.984 . S
N603 H607 0.985 . S
H604 N599 0.984 . S
H605 N599 0.985 . S
H606 N603 0.984 . S
H607 N603 0.985 . S
H608 N602 0.984 . S
H609 N602 0.984 . S
H610 N598 0.984 . S
H611 N598 0.985 . S
C612 C613 1.363 . S
C612 C618 1.379 . S
C612 N620 1.356 . S
C613 C612 1.363 . S
C613 C619 1.363 1_556 S
C614 C615 1.363 . S
C614 C619 1.379 . S
C614 N621 1.356 . S
C615 C614 1.363 . S
C615 C618 1.363 1_554 S
N616 C618 1.356 . S
N616 H628 0.984 . S
N616 H629 0.985 . S
N617 C619 1.356 . S
N617 H622 0.984 1_554 S
N617 H623 0.985 . S
C618 C612 1.379 . S
C618 C615 1.363 1_556 S
C618 N616 1.356 . S
C619 C613 1.363 1_554 S
C619 C614 1.379 . S
C619 N617 1.356 . S
N620 C612 1.356 . S
N620 H626 0.984 . S
N620 H627 0.984 . S
N621 C614 1.356 . S
N621 H624 0.984 . S
N621 H625 0.985 . S
H622 N617 0.984 1_556 S
H623 N617 0.985 . S
H624 N621 0.984 . S
H625 N621 0.985 . S
H626 N620 0.984 . S
H627 N620 0.984 . S
H628 N616 0.984 . S
H629 N616 0.985 . S
C630 C631 1.363 . S
C630 C636 1.379 . S
C630 N638 1.356 . S
C631 C630 1.363 . S
C631 C637 1.363 . S
C632 C633 1.363 . S
C632 C637 1.379 . S
C632 N639 1.356 . S
C633 C632 1.363 . S
C633 C636 1.363 . S
N634 C636 1.356 . S
N634 H646 0.984 . S
N634 H647 0.985 . S
N635 C637 1.356 . S
N635 H640 0.984 . S
N635 H641 0.985 . S
C636 C630 1.379 . S
C636 C633 1.363 . S
C636 N634 1.356 . S
C637 C631 1.363 . S
C637 C632 1.379 . S
C637 N635 1.356 . S
N638 C630 1.356 . S
N638 H644 0.984 . S
N638 H645 0.984 . S
N639 C632 1.356 . S
N639 H642 0.984 . S
N639 H643 0.985 . S
H640 N635 0.984 . S
H641 N635 0.985 . S
H642 N639 0.984 . S
H643 N639 0.985 . S
H644 N638 0.984 . S
H645 N638 0.984 . S
H646 N634 0.984 . S
H647 N634 0.985 . S
C648 C649 1.363 . S
C648 C654 1.379 . S
C648 N656 1.356 . S
C649 C648 1.363 . S
C649 C655 1.363 1_554 S
C650 C651 1.363 . S
C650 C655 1.379 . S
C650 N657 1.356 . S
C651 C650 1.363 . S
C651 C654 1.363 1_556 S
N652 C654 1.356 . S
N652 H664 0.984 . S
N652 H665 0.985 . S
N653 C655 1.356 . S
N653 H658 0.984 1_556 S
N653 H659 0.985 . S
C654 C648 1.379 . S
C654 C651 1.363 1_554 S
C654 N652 1.356 . S
C655 C649 1.363 1_556 S
C655 C650 1.379 . S
C655 N653 1.356 . S
N656 C648 1.356 . S
N656 H662 0.984 . S
N656 H663 0.984 . S
N657 C650 1.356 . S
N657 H660 0.984 . S
N657 H661 0.985 . S
H658 N653 0.984 1_554 S
H659 N653 0.985 . S
H660 N657 0.984 . S
H661 N657 0.985 . S
H662 N656 0.984 . S
H663 N656 0.984 . S
H664 N652 0.984 . S
H665 N652 0.985 . S
C666 C667 1.363 . S
C666 C672 1.379 . S
C666 N674 1.356 . S
C667 C666 1.363 . S
C667 C673 1.363 . S
C668 C669 1.363 . S
C668 C673 1.379 . S
C668 N675 1.356 . S
C669 C668 1.363 . S
C669 C672 1.363 . S
N670 C672 1.356 . S
N670 H682 0.984 . S
N670 H683 0.985 . S
N671 C673 1.356 . S
N671 H676 0.984 . S
N671 H677 0.985 . S
C672 C666 1.379 . S
C672 C669 1.363 . S
C672 N670 1.356 . S
C673 C667 1.363 . S
C673 C668 1.379 . S
C673 N671 1.356 . S
N674 C666 1.356 . S
N674 H680 0.984 . S
N674 H681 0.984 . S
N675 C668 1.356 . S
N675 H678 0.984 . S
N675 H679 0.985 . S
H676 N671 0.984 . S
H677 N671 0.985 . S
H678 N675 0.984 . S
H679 N675 0.985 . S
H680 N674 0.984 . S
H681 N674 0.984 . S
H682 N670 0.984 . S
H683 N670 0.985 . S
C684 C685 1.363 . S
C684 C690 1.379 . S
C684 N692 1.356 . S
C685 C684 1.363 . S
C685 C691 1.363 1_556 S
C686 C687 1.363 . S
C686 C691 1.379 . S
C686 N693 1.356 . S
C687 C686 1.363 . S
C687 C690 1.363 1_554 S
N688 C690 1.356 . S
N688 H700 0.984 . S
N688 H701 0.985 . S
N689 C691 1.356 . S
N689 H694 0.984 1_554 S
N689 H695 0.985 . S
C690 C684 1.379 . S
C690 C687 1.363 1_556 S
C690 N688 1.356 . S
C691 C685 1.363 1_554 S
C691 C686 1.379 . S
C691 N689 1.356 . S
N692 C684 1.356 . S
N692 H698 0.984 . S
N692 H699 0.984 . S
N693 C686 1.356 . S
N693 H696 0.984 . S
N693 H697 0.985 . S
H694 N689 0.984 1_556 S
H695 N689 0.985 . S
H696 N693 0.984 . S
H697 N693 0.985 . S
H698 N692 0.984 . S
H699 N692 0.984 . S
H700 N688 0.984 . S
H701 N688 0.985 . S
C702 C703 1.363 . S
C702 C708 1.379 . S
C702 N710 1.356 . S
C703 C702 1.363 . S
C703 C709 1.363 . S
C704 C705 1.363 . S
C704 C709 1.379 . S
C704 N711 1.356 . S
C705 C704 1.363 . S
C705 C708 1.363 . S
N706 C708 1.356 . S
N706 H718 0.984 . S
N706 H719 0.985 . S
N707 C709 1.356 . S
N707 H712 0.984 . S
N707 H713 0.985 . S
C708 C702 1.379 . S
C708 C705 1.363 . S
C708 N706 1.356 . S
C709 C703 1.363 . S
C709 C704 1.379 . S
C709 N707 1.356 . S
N710 C702 1.356 . S
N710 H716 0.984 . S
N710 H717 0.984 . S
N711 C704 1.356 . S
N711 H714 0.984 . S
N711 H715 0.985 . S
H712 N707 0.984 . S
H713 N707 0.985 . S
H714 N711 0.984 . S
H715 N711 0.985 . S
H716 N710 0.984 . S
H717 N710 0.984 . S
H718 N706 0.984 . S
H719 N706 0.985 . S
C720 C721 1.363 . S
C720 C726 1.379 1_544 S
C720 N728 1.356 . S
C721 C720 1.363 . S
C721 C727 1.363 . S
C722 C723 1.363 . S
C722 C727 1.379 1_566 S
C722 N729 1.356 . S
C723 C722 1.363 . S
C723 C726 1.363 . S
N724 C726 1.356 . S
N724 H736 0.984 . S
N724 H737 0.985 . S
N725 C727 1.356 . S
N725 H730 0.984 . S
N725 H731 0.985 . S
C726 C720 1.379 1_566 S
C726 C723 1.363 . S
C726 N724 1.356 . S
C727 C721 1.363 . S
C727 C722 1.379 1_544 S
C727 N725 1.356 . S
N728 C720 1.356 . S
N728 H734 0.984 . S
N728 H735 0.984 . S
N729 C722 1.356 . S
N729 H732 0.984 . S
N729 H733 0.985 . S
H730 N725 0.984 . S
H731 N725 0.985 . S
H732 N729 0.984 . S
H733 N729 0.985 . S
H734 N728 0.984 . S
H735 N728 0.984 . S
H736 N724 0.984 . S
H737 N724 0.985 . S
C738 C739 1.363 . S
C738 C744 1.379 1_565 S
C738 N746 1.356 . S
C739 C738 1.363 . S
C739 C745 1.363 . S
C740 C741 1.363 . S
C740 C745 1.379 1_545 S
C740 N747 1.356 . S
C741 C740 1.363 . S
C741 C744 1.363 . S
N742 C744 1.356 . S
N742 H754 0.978 1_545 S
N742 H755 0.985 . S
N743 C745 1.356 . S
N743 H748 0.984 . S
N743 H749 0.978 1_565 S
C744 C738 1.379 1_545 S
C744 C741 1.363 . S
C744 N742 1.356 . S
C745 C739 1.363 . S
C745 C740 1.379 1_565 S
C745 N743 1.356 . S
N746 C738 1.356 . S
N746 H752 0.984 . S
N746 H753 0.984 . S
N747 C740 1.356 . S
N747 H750 0.984 . S
N747 H751 0.985 . S
H748 N743 0.984 . S
H749 N743 0.978 1_545 S
H750 N747 0.984 . S
H751 N747 0.985 . S
H752 N746 0.984 . S
H753 N746 0.984 . S
H754 N742 0.978 1_565 S
H755 N742 0.985 . S
C756 C757 1.363 1_554 S
C756 C762 1.379 1_565 S
C756 N764 1.356 . S
C757 C756 1.363 1_556 S
C757 C763 1.363 . S
C758 C759 1.363 1_556 S
C758 C763 1.379 1_545 S
C758 N765 1.356 . S
C759 C758 1.363 1_554 S
C759 C762 1.363 . S
N760 C762 1.356 . S
N760 H772 0.984 . S
N760 H773 0.985 . S
N761 C763 1.356 . S
N761 H766 0.984 . S
N761 H767 0.985 . S
C762 C756 1.379 1_545 S
C762 C759 1.363 . S
C762 N760 1.356 . S
C763 C757 1.363 . S
C763 C758 1.379 1_565 S
C763 N761 1.356 . S
N764 C756 1.356 . S
N764 H770 0.984 . S
N764 H771 0.984 . S
N765 C758 1.356 . S
N765 H768 0.984 . S
N765 H769 0.985 . S
H766 N761 0.984 . S
H767 N761 0.985 . S
H768 N765 0.984 . S
H769 N765 0.985 . S
H770 N764 0.984 . S
H771 N764 0.984 . S
H772 N760 0.984 . S
H773 N760 0.985 . S
C774 C775 1.363 . S
C774 C780 1.379 1_545 S
C774 N782 1.356 . S
C775 C774 1.363 . S
C775 C781 1.363 . S
C776 C777 1.363 . S
C776 C781 1.379 1_565 S
C776 N783 1.356 . S
C777 C776 1.363 . S
C777 C780 1.363 . S
N778 C780 1.356 . S
N778 H790 0.984 . S
N778 H791 0.985 . S
N779 C781 1.356 . S
N779 H784 0.984 . S
N779 H785 0.985 . S
C780 C774 1.379 1_565 S
C780 C777 1.363 . S
C780 N778 1.356 . S
C781 C775 1.363 . S
C781 C776 1.379 1_545 S
C781 N779 1.356 . S
N782 C774 1.356 . S
N782 H788 0.984 . S
N782 H789 0.984 . S
N783 C776 1.356 . S
N783 H786 0.984 . S
N783 H787 0.985 . S
H784 N779 0.984 . S
H785 N779 0.985 . S
H786 N783 0.984 . S
H787 N783 0.985 . S
H788 N782 0.984 . S
H789 N782 0.984 . S
H790 N778 0.984 . S
H791 N778 0.985 . S
C792 C793 1.363 1_554 S
C792 C798 1.379 . S
C792 N800 1.356 . S
C793 C792 1.363 1_556 S
C793 C799 1.363 . S
C794 C795 1.363 1_556 S
C794 C799 1.379 . S
C794 N801 1.356 . S
C795 C794 1.363 1_554 S
C795 C798 1.363 . S
N796 C798 1.356 . S
N796 H808 0.984 . S
N796 H809 0.985 . S
N797 C799 1.356 . S
N797 H802 0.984 . S
N797 H803 0.985 . S
C798 C792 1.379 . S
C798 C795 1.363 . S
C798 N796 1.356 . S
C799 C793 1.363 . S
C799 C794 1.379 . S
C799 N797 1.356 . S
N800 C792 1.356 . S
N800 H806 0.984 . S
N800 H807 0.984 1_554 S
N801 C794 1.356 . S
N801 H804 0.984 1_556 S
N801 H805 0.985 . S
H802 N797 0.984 . S
H803 N797 0.985 . S
H804 N801 0.984 1_554 S
H805 N801 0.985 . S
H806 N800 0.984 . S
H807 N800 0.984 1_556 S
H808 N796 0.984 . S
H809 N796 0.985 . S
C810 C811 1.363 . S
C810 C816 1.379 . S
C810 N818 1.356 . S
C811 C810 1.363 . S
C811 C817 1.363 . S
C812 C813 1.363 . S
C812 C817 1.379 . S
C812 N819 1.356 . S
C813 C812 1.363 . S
C813 C816 1.363 . S
N814 C816 1.356 . S
N814 H826 0.984 . S
N814 H827 0.985 . S
N815 C817 1.356 . S
N815 H820 0.984 . S
N815 H821 0.985 . S
C816 C810 1.379 . S
C816 C813 1.363 . S
C816 N814 1.356 . S
C817 C811 1.363 . S
C817 C812 1.379 . S
C817 N815 1.356 . S
N818 C810 1.356 . S
N818 H824 0.984 . S
N818 H825 0.984 . S
N819 C812 1.356 . S
N819 H822 0.984 . S
N819 H823 0.985 . S
H820 N815 0.984 . S
H821 N815 0.985 . S
H822 N819 0.984 . S
H823 N819 0.985 . S
H824 N818 0.984 . S
H825 N818 0.984 . S
H826 N814 0.984 . S
H827 N814 0.985 . S
C828 C829 1.363 1_556 S
C828 C834 1.379 . S
C828 N836 1.356 . S
C829 C828 1.363 1_554 S
C829 C835 1.363 . S
C830 C831 1.363 1_554 S
C830 C835 1.379 . S
C830 N837 1.356 . S
C831 C830 1.363 1_556 S
C831 C834 1.363 . S
N832 C834 1.356 . S
N832 H844 0.984 . S
N832 H845 0.985 . S
N833 C835 1.356 . S
N833 H838 0.984 . S
N833 H839 0.985 . S
C834 C828 1.379 . S
C834 C831 1.363 . S
C834 N832 1.356 . S
C835 C829 1.363 . S
C835 C830 1.379 . S
C835 N833 1.356 . S
N836 C828 1.356 . S
N836 H842 0.984 . S
N836 H843 0.984 . S
N837 C830 1.356 . S
N837 H840 0.984 . S
N837 H841 0.985 . S
H838 N833 0.984 . S
H839 N833 0.985 . S
H840 N837 0.984 . S
H841 N837 0.985 . S
H842 N836 0.984 . S
H843 N836 0.984 . S
H844 N832 0.984 . S
H845 N832 0.985 . S
C846 C847 1.363 . S
C846 C852 1.379 . S
C846 N854 1.356 . S
C847 C846 1.363 . S
C847 C853 1.363 . S
C848 C849 1.363 . S
C848 C853 1.379 . S
C848 N855 1.356 . S
C849 C848 1.363 . S
C849 C852 1.363 . S
N850 C852 1.356 . S
N850 H862 0.984 . S
N850 H863 0.985 . S
N851 C853 1.356 . S
N851 H856 0.984 . S
N851 H857 0.985 . S
C852 C846 1.379 . S
C852 C849 1.363 . S
C852 N850 1.356 . S
C853 C847 1.363 . S
C853 C848 1.379 . S
C853 N851 1.356 . S
N854 C846 1.356 . S
N854 H860 0.984 . S
N854 H861 0.984 . S
N855 C848 1.356 . S
N855 H858 0.984 . S
N855 H859 0.985 . S
H856 N851 0.984 . S
H857 N851 0.985 . S
H858 N855 0.984 . S
H859 N855 0.985 . S
H860 N854 0.984 . S
H861 N854 0.984 . S
H862 N850 0.984 . S
H863 N850 0.985 . S
C864 C865 1.363 . S
C864 C870 1.379 . S
C864 N872 1.356 . S
C865 C864 1.363 . S
C865 C871 1.363 . S
C866 C867 1.363 . S
C866 C871 1.379 . S
C866 N873 1.356 . S
C867 C866 1.363 . S
C867 C870 1.363 . S
N868 C870 1.356 . S
N868 H880 0.984 . S
N868 H881 0.985 . S
N869 C871 1.356 . S
N869 H874 0.984 . S
N869 H875 0.985 . S
C870 C864 1.379 . S
C870 C867 1.363 . S
C870 N868 1.356 . S
C871 C865 1.363 . S
C871 C866 1.379 . S
C871 N869 1.356 . S
N872 C864 1.356 . S
N872 H878 0.984 . S
N872 H879 0.984 . S
N873 C866 1.356 . S
N873 H876 0.984 . S
N873 H877 0.985 . S
H874 N869 0.984 . S
H875 N869 0.985 . S
H876 N873 0.984 . S
H877 N873 0.985 . S
H878 N872 0.984 . S
H879 N872 0.984 . S
H880 N868 0.984 . S
H881 N868 0.985 . S
C882 C883 1.363 . S
C882 C888 1.379 1_655 S
C882 N890 1.356 . S
C883 C882 1.363 . S
C883 C889 1.363 . S
C884 C885 1.363 . S
C884 C889 1.379 1_455 S
C884 N891 1.356 . S
C885 C884 1.363 . S
C885 C888 1.363 . S
N886 C888 1.356 . S
N886 H898 0.984 . S
N886 H899 0.985 . S
N887 C889 1.356 . S
N887 H892 0.984 . S
N887 H893 0.985 . S
C888 C882 1.379 1_455 S
C888 C885 1.363 . S
C888 N886 1.356 . S
C889 C883 1.363 . S
C889 C884 1.379 1_655 S
C889 N887 1.356 . S
N890 C882 1.356 . S
N890 H896 0.984 . S
N890 H897 0.984 . S
N891 C884 1.356 . S
N891 H894 0.984 . S
N891 H895 0.985 . S
H892 N887 0.984 . S
H893 N887 0.985 . S
H894 N891 0.984 . S
H895 N891 0.985 . S
H896 N890 0.984 . S
H897 N890 0.984 . S
H898 N886 0.984 . S
H899 N886 0.985 . S
C900 C901 1.363 . S
C900 C906 1.379 . S
C900 N908 1.356 . S
C901 C900 1.363 . S
C901 C907 1.363 . S
C902 C903 1.363 . S
C902 C907 1.379 . S
C902 N909 1.356 . S
C903 C902 1.363 . S
C903 C906 1.363 . S
N904 C906 1.356 . S
N904 H916 0.984 . S
N904 H917 0.985 . S
N905 C907 1.356 . S
N905 H910 0.984 . S
N905 H911 0.985 . S
C906 C900 1.379 . S
C906 C903 1.363 . S
C906 N904 1.356 . S
C907 C901 1.363 . S
C907 C902 1.379 . S
C907 N905 1.356 . S
N908 C900 1.356 . S
N908 H914 0.984 . S
N908 H915 0.984 . S
N909 C902 1.356 . S
N909 H912 0.984 . S
N909 H913 0.985 . S
H910 N905 0.984 . S
H911 N905 0.985 . S
H912 N909 0.984 . S
H913 N909 0.985 . S
H914 N908 0.984 . S
H915 N908 0.984 . S
H916 N904 0.984 . S
H917 N904 0.985 . S
C918 C919 1.363 . S
C918 C924 1.379 1_455 S
C918 N926 1.356 . S
C919 C918 1.363 . S
C919 C925 1.363 . S
C920 C921 1.363 . S
C920 C925 1.379 1_655 S
C920 N927 1.356 . S
C921 C920 1.363 . S
C921 C924 1.363 . S
N922 C924 1.356 . S
N922 H934 0.984 . S
N922 H935 0.985 . S
N923 C925 1.356 . S
N923 H928 0.984 . S
N923 H929 0.985 . S
C924 C918 1.379 1_655 S
C924 C921 1.363 . S
C924 N922 1.356 . S
C925 C919 1.363 . S
C925 C920 1.379 1_455 S
C925 N923 1.356 . S
N926 C918 1.356 . S
N926 H932 0.984 . S
N926 H933 0.984 . S
N927 C920 1.356 . S
N927 H930 0.984 . S
N927 H931 0.985 . S
H928 N923 0.984 . S
H929 N923 0.985 . S
H930 N927 0.984 . S
H931 N927 0.985 . S
H932 N926 0.984 . S
H933 N926 0.984 . S
H934 N922 0.984 . S
H935 N922 0.985 . S
C936 C937 1.363 . S
C936 C942 1.379 1_455 S
C936 N944 1.356 . S
C937 C936 1.363 . S
C937 C943 1.363 . S
C938 C939 1.363 . S
C938 C943 1.379 1_655 S
C938 N945 1.356 . S
C939 C938 1.363 . S
C939 C942 1.363 . S
N940 C942 1.356 . S
N940 H952 0.984 . S
N940 H953 0.985 . S
N941 C943 1.356 . S
N941 H946 0.984 . S
N941 H947 0.985 . S
C942 C936 1.379 1_655 S
C942 C939 1.363 . S
C942 N940 1.356 . S
C943 C937 1.363 . S
C943 C938 1.379 1_455 S
C943 N941 1.356 . S
N944 C936 1.356 . S
N944 H950 0.984 . S
N944 H951 0.984 . S
N945 C938 1.356 . S
N945 H948 0.984 . S
N945 H949 0.985 . S
H946 N941 0.984 . S
H947 N941 0.985 . S
H948 N945 0.984 . S
H949 N945 0.985 . S
H950 N944 0.984 . S
H951 N944 0.984 . S
H952 N940 0.984 . S
H953 N940 0.985 . S
C954 C955 1.363 . S
C954 C960 1.379 . S
C954 N962 1.356 . S
C955 C954 1.363 . S
C955 C961 1.363 . S
C956 C957 1.363 . S
C956 C961 1.379 . S
C956 N963 1.356 . S
C957 C956 1.363 . S
C957 C960 1.363 . S
N958 C960 1.356 . S
N958 H970 0.984 . S
N958 H971 0.985 . S
N959 C961 1.356 . S
N959 H964 0.984 . S
N959 H965 0.985 . S
C960 C954 1.379 . S
C960 C957 1.363 . S
C960 N958 1.356 . S
C961 C955 1.363 . S
C961 C956 1.379 . S
C961 N959 1.356 . S
N962 C954 1.356 . S
N962 H968 0.984 . S
N962 H969 0.984 . S
N963 C956 1.356 . S
N963 H966 0.984 . S
N963 H967 0.985 . S
H964 N959 0.984 . S
H965 N959 0.985 . S
H966 N963 0.984 . S
H967 N963 0.985 . S
H968 N962 0.984 . S
H969 N962 0.984 . S
H970 N958 0.984 . S
H971 N958 0.985 . S
C972 C973 1.363 . S
C972 C978 1.379 1_455 S
C972 N980 1.356 . S
C973 C972 1.363 . S
C973 C979 1.363 . S
C974 C975 1.363 . S
C974 C979 1.379 1_655 S
C974 N981 1.356 . S
C975 C974 1.363 . S
C975 C978 1.363 . S
N976 C978 1.356 . S
N976 H988 0.984 . S
N976 H989 0.985 . S
N977 C979 1.356 . S
N977 H982 0.984 . S
N977 H983 0.985 1_556 S
C978 C972 1.379 1_655 S
C978 C975 1.363 . S
C978 N976 1.356 . S
C979 C973 1.363 . S
C979 C974 1.379 1_455 S
C979 N977 1.356 . S
N980 C972 1.356 . S
N980 H986 0.984 . S
N980 H987 0.984 . S
N981 C974 1.356 . S
N981 H984 0.984 . S
N981 H985 0.985 1_556 S
H982 N977 0.984 . S
H983 N977 0.985 1_554 S
H984 N981 0.984 . S
H985 N981 0.985 1_554 S
H986 N980 0.984 . S
H987 N980 0.984 . S
H988 N976 0.984 . S
H989 N976 0.985 . S
C990 C991 1.363 . S
C990 C996 1.379 . S
C990 N998 1.356 . S
C991 C990 1.363 . S
C991 C997 1.363 . S
C992 C993 1.363 . S
C992 C997 1.379 . S
C992 N999 1.356 . S
C993 C992 1.363 . S
C993 C996 1.363 . S
N994 C996 1.356 . S
N994 H1006 0.984 . S
N994 H1007 0.985 . S
N995 C997 1.356 . S
N995 H1000 0.984 . S
N995 H1001 0.985 . S
C996 C990 1.379 . S
C996 C993 1.363 . S
C996 N994 1.356 . S
C997 C991 1.363 . S
C997 C992 1.379 . S
C997 N995 1.356 . S
N998 C990 1.356 . S
N998 H1004 0.984 . S
N998 H1005 0.984 . S
N999 C992 1.356 . S
N999 H1002 0.984 . S
N999 H1003 0.985 . S
H1000 N995 0.984 . S
H1001 N995 0.985 . S
H1002 N999 0.984 . S
H1003 N999 0.985 . S
H1004 N998 0.984 . S
H1005 N998 0.984 . S
H1006 N994 0.984 . S
H1007 N994 0.985 . S
C1008 C1009 1.363 . S
C1008 C1014 1.379 . S
C1008 N1016 1.356 . S
C1009 C1008 1.363 . S
C1009 C1015 1.363 . S
C1010 C1011 1.363 . S
C1010 C1015 1.379 . S
C1010 N1017 1.356 . S
C1011 C1010 1.363 . S
C1011 C1014 1.363 . S
N1012 C1014 1.356 . S
N1012 H1024 0.984 . S
N1012 H1025 0.985 . S
N1013 C1015 1.356 . S
N1013 H1018 0.984 . S
N1013 H1019 0.985 . S
C1014 C1008 1.379 . S
C1014 C1011 1.363 . S
C1014 N1012 1.356 . S
C1015 C1009 1.363 . S
C1015 C1010 1.379 . S
C1015 N1013 1.356 . S
N1016 C1008 1.356 . S
N1016 H1022 0.984 . S
N1016 H1023 0.984 . S
N1017 C1010 1.356 . S
N1017 H1020 0.984 . S
N1017 H1021 0.985 . S
H1018 N1013 0.984 . S
H1019 N1013 0.985 . S
H1020 N1017 0.984 . S
H1021 N1017 0.985 . S
H1022 N1016 0.984 . S
H1023 N1016 0.984 . S
H1024 N1012 0.984 . S
H1025 N1012 0.985 . S
C1026 C1027 1.363 . S
C1026 C1032 1.379 . S
C1026 N1034 1.356 . S
C1027 C1026 1.363 . S
C1027 C1033 1.363 . S
C1028 C1029 1.363 . S
C1028 C1033 1.379 . S
C1028 N1035 1.356 . S
C1029 C1028 1.363 . S
C1029 C1032 1.363 . S
N1030 C1032 1.356 . S
N1030 H1042 0.984 . S
N1030 H1043 0.985 . S
N1031 C1033 1.356 . S
N1031 H1036 0.984 . S
N1031 H1037 0.985 . S
C1032 C1026 1.379 . S
C1032 C1029 1.363 . S
C1032 N1030 1.356 . S
C1033 C1027 1.363 . S
C1033 C1028 1.379 . S
C1033 N1031 1.356 . S
N1034 C1026 1.356 . S
N1034 H1040 0.984 . S
N1034 H1041 0.984 . S
N1035 C1028 1.356 . S
N1035 H1038 0.984 . S
N1035 H1039 0.985 . S
H1036 N1031 0.984 . S
H1037 N1031 0.985 . S
H1038 N1035 0.984 . S
H1039 N1035 0.985 . S
H1040 N1034 0.984 . S
H1041 N1034 0.984 . S
H1042 N1030 0.984 . S
H1043 N1030 0.985 . S
C1044 C1045 1.363 . S
C1044 C1050 1.379 . S
C1044 N1052 1.356 . S
C1045 C1044 1.363 . S
C1045 C1051 1.363 . S
C1046 C1047 1.363 . S
C1046 C1051 1.379 . S
C1046 N1053 1.356 . S
C1047 C1046 1.363 . S
C1047 C1050 1.363 . S
N1048 C1050 1.356 . S
N1048 H1060 0.984 . S
N1048 H1061 0.985 . S
N1049 C1051 1.356 . S
N1049 H1054 0.984 . S
N1049 H1055 0.985 . S
C1050 C1044 1.379 . S
C1050 C1047 1.363 . S
C1050 N1048 1.356 . S
C1051 C1045 1.363 . S
C1051 C1046 1.379 . S
C1051 N1049 1.356 . S
N1052 C1044 1.356 . S
N1052 H1058 0.984 . S
N1052 H1059 0.984 . S
N1053 C1046 1.356 . S
N1053 H1056 0.984 . S
N1053 H1057 0.985 . S
H1054 N1049 0.984 . S
H1055 N1049 0.985 . S
H1056 N1053 0.984 . S
H1057 N1053 0.985 . S
H1058 N1052 0.984 . S
H1059 N1052 0.984 . S
H1060 N1048 0.984 . S
H1061 N1048 0.985 . S
C1062 C1063 1.363 . S
C1062 C1068 1.379 . S
C1062 N1070 1.356 . S
C1063 C1062 1.363 . S
C1063 C1069 1.363 . S
C1064 C1065 1.363 . S
C1064 C1069 1.379 . S
C1064 N1071 1.356 . S
C1065 C1064 1.363 . S
C1065 C1068 1.363 . S
N1066 C1068 1.356 . S
N1066 H1078 0.984 . S
N1066 H1079 0.985 . S
N1067 C1069 1.356 . S
N1067 H1072 0.984 . S
N1067 H1073 0.985 . S
C1068 C1062 1.379 . S
C1068 C1065 1.363 . S
C1068 N1066 1.356 . S
C1069 C1063 1.363 . S
C1069 C1064 1.379 . S
C1069 N1067 1.356 . S
N1070 C1062 1.356 . S
N1070 H1076 0.984 . S
N1070 H1077 0.984 . S
N1071 C1064 1.356 . S
N1071 H1074 0.984 . S
N1071 H1075 0.985 . S
H1072 N1067 0.984 . S
H1073 N1067 0.985 . S
H1074 N1071 0.984 . S
H1075 N1071 0.985 . S
H1076 N1070 0.984 . S
H1077 N1070 0.984 . S
H1078 N1066 0.984 . S
H1079 N1066 0.985 . S
C1080 C1081 1.363 . S
C1080 C1086 1.379 . S
C1080 N1088 1.356 . S
C1081 C1080 1.363 . S
C1081 C1087 1.363 . S
C1082 C1083 1.363 . S
C1082 C1087 1.379 . S
C1082 N1089 1.356 . S
C1083 C1082 1.363 . S
C1083 C1086 1.363 . S
N1084 C1086 1.356 . S
N1084 H1096 0.984 . S
N1084 H1097 0.985 . S
N1085 C1087 1.356 . S
N1085 H1090 0.984 . S
N1085 H1091 0.985 . S
C1086 C1080 1.379 . S
C1086 C1083 1.363 . S
C1086 N1084 1.356 . S
C1087 C1081 1.363 . S
C1087 C1082 1.379 . S
C1087 N1085 1.356 . S
N1088 C1080 1.356 . S
N1088 H1094 0.984 . S
N1088 H1095 0.984 . S
N1089 C1082 1.356 . S
N1089 H1092 0.984 . S
N1089 H1093 0.985 . S
H1090 N1085 0.984 . S
H1091 N1085 0.985 . S
H1092 N1089 0.984 . S
H1093 N1089 0.985 . S
H1094 N1088 0.984 . S
H1095 N1088 0.984 . S
H1096 N1084 0.984 . S
H1097 N1084 0.985 . S
C1098 C1099 1.363 . S
C1098 C1104 1.379 . S
C1098 N1106 1.356 . S
C1099 C1098 1.363 . S
C1099 C1105 1.363 . S
C1100 C1101 1.363 . S
C1100 C1105 1.379 . S
C1100 N1107 1.356 . S
C1101 C1100 1.363 . S
C1101 C1104 1.363 . S
N1102 C1104 1.356 . S
N1102 H1114 0.984 . S
N1102 H1115 0.985 . S
N1103 C1105 1.356 . S
N1103 H1108 0.984 . S
N1103 H1109 0.985 . S
C1104 C1098 1.379 . S
C1104 C1101 1.363 . S
C1104 N1102 1.356 . S
C1105 C1099 1.363 . S
C1105 C1100 1.379 . S
C1105 N1103 1.356 . S
N1106 C1098 1.356 . S
N1106 H1112 0.984 . S
N1106 H1113 0.984 . S
N1107 C1100 1.356 . S
N1107 H1110 0.984 . S
N1107 H1111 0.985 . S
H1108 N1103 0.984 . S
H1109 N1103 0.985 . S
H1110 N1107 0.984 . S
H1111 N1107 0.985 . S
H1112 N1106 0.984 . S
H1113 N1106 0.984 . S
H1114 N1102 0.984 . S
H1115 N1102 0.985 . S
C1116 C1117 1.363 . S
C1116 C1122 1.379 . S
C1116 N1124 1.356 . S
C1117 C1116 1.363 . S
C1117 C1123 1.363 . S
C1118 C1119 1.363 . S
C1118 C1123 1.379 . S
C1118 N1125 1.356 . S
C1119 C1118 1.363 . S
C1119 C1122 1.363 . S
N1120 C1122 1.356 . S
N1120 H1132 0.984 . S
N1120 H1133 0.985 . S
N1121 C1123 1.356 . S
N1121 H1126 0.984 . S
N1121 H1127 0.985 . S
C1122 C1116 1.379 . S
C1122 C1119 1.363 . S
C1122 N1120 1.356 . S
C1123 C1117 1.363 . S
C1123 C1118 1.379 . S
C1123 N1121 1.356 . S
N1124 C1116 1.356 . S
N1124 H1130 0.984 . S
N1124 H1131 0.984 . S
N1125 C1118 1.356 . S
N1125 H1128 0.984 . S
N1125 H1129 0.985 . S
H1126 N1121 0.984 . S
H1127 N1121 0.985 . S
H1128 N1125 0.984 . S
H1129 N1125 0.985 . S
H1130 N1124 0.984 . S
H1131 N1124 0.984 . S
H1132 N1120 0.984 . S
H1133 N1120 0.985 . S
C1134 C1135 1.363 . S
C1134 C1140 1.379 . S
C1134 N1142 1.356 . S
C1135 C1134 1.363 . S
C1135 C1141 1.363 . S
C1136 C1137 1.363 . S
C1136 C1141 1.379 . S
C1136 N1143 1.356 . S
C1137 C1136 1.363 . S
C1137 C1140 1.363 . S
N1138 C1140 1.356 . S
N1138 H1150 0.984 . S
N1138 H1151 0.985 . S
N1139 C1141 1.356 . S
N1139 H1144 0.984 . S
N1139 H1145 0.985 . S
C1140 C1134 1.379 . S
C1140 C1137 1.363 . S
C1140 N1138 1.356 . S
C1141 C1135 1.363 . S
C1141 C1136 1.379 . S
C1141 N1139 1.356 . S
N1142 C1134 1.356 . S
N1142 H1148 0.984 . S
N1142 H1149 0.984 . S
N1143 C1136 1.356 . S
N1143 H1146 0.984 . S
N1143 H1147 0.985 . S
H1144 N1139 0.984 . S
H1145 N1139 0.985 . S
H1146 N1143 0.984 . S
H1147 N1143 0.985 . S
H1148 N1142 0.984 . S
H1149 N1142 0.984 . S
H1150 N1138 0.984 . S
H1151 N1138 0.985 . S
C577 C4 1.507 . S
C579 C446 1.451 . S
C595 C482 1.451 . S
C597 C40 1.507 . S
C613 C76 1.507 . S
C615 C518 1.451 . S
C631 C554 1.451 . S
C633 C112 1.507 . S
C649 C292 1.507 . S
C651 C158 1.451 . S
C667 C194 1.451 . S
C669 C328 1.507 . S
C685 C364 1.507 . S
C687 C230 1.451 . S
C703 C266 1.451 . S
C705 C400 1.507 . S
C721 C3 1.614 . S
C723 C75 1.614 . S
C739 C39 1.614 . S
C741 C111 1.614 . S
C757 C147 1.521 . S
C759 C219 1.521 . S
C775 C183 1.521 . S
C777 C255 1.521 . S
C793 C363 1.614 . S
C795 C291 1.614 . S
C811 C327 1.614 . S
C813 C399 1.614 . S
C829 C507 1.521 . S
C831 C435 1.521 . S
C847 C471 1.521 . S
C849 C543 1.521 . S
C865 C218 1.494 . S
C867 C2 1.487 . S
C883 C254 1.494 . S
C885 C38 1.487 . S
C901 C74 1.487 . S
C903 C146 1.494 . S
C919 C110 1.487 . S
C921 C182 1.494 . S
C937 C506 1.494 . S
C939 C290 1.487 . S
C955 C326 1.487 . S
C957 C542 1.494 . S
C973 C434 1.494 . S
C975 C362 1.487 . S
C991 C398 1.487 . S
C993 C470 1.494 . S
C1009 C14 1.596 . S
C1011 C122 1.596 . S
C1027 C86 1.596 . S
C1029 C50 1.596 . S
C1045 C148 1.330 . S
C1047 C256 1.330 . S
C1063 C184 1.330 . S
C1065 C220 1.330 . S
C1081 C410 1.596 . S
C1083 C302 1.596 . S
C1099 C338 1.596 . S
C1101 C374 1.596 . S
C1117 C544 1.330 . S
C1119 C436 1.330 . S
C1135 C472 1.330 . S
C1137 C508 1.330 . S
