# Generated by pormake.
# Topology upc, (4)-cn, num edge types: 1
# Building blocks:
#     Node 0, Type 0, BuildingBlock: KOZSID_clean_sbu_0, # of connection points: 4
#     Node 1, Type 0, BuildingBlock: KOZSID_clean_sbu_0, # of connection points: 4
#     Node 2, Type 0, BuildingBlock: KOZSID_clean_sbu_0, # of connection points: 4
#     Node 3, Type 0, BuildingBlock: KOZSID_clean_sbu_0, # of connection points: 4
#     Node 4, Type 0, BuildingBlock: KOZSID_clean_sbu_0, # of connection points: 4
#     Node 5, Type 0, BuildingBlock: KOZSID_clean_sbu_0, # of connection points: 4
#     Node 6, Type 0, BuildingBlock: KOZSID_clean_sbu_0, # of connection points: 4
#     Node 7, Type 0, BuildingBlock: KOZSID_clean_sbu_0, # of connection points: 4
#     Node 8, Type 0, BuildingBlock: KOZSID_clean_sbu_0, # of connection points: 4
#     Node 9, Type 0, BuildingBlock: KOZSID_clean_sbu_0, # of connection points: 4
#     Node 10, Type 0, BuildingBlock: KOZSID_clean_sbu_0, # of connection points: 4
#     Node 11, Type 0, BuildingBlock: KOZSID_clean_sbu_0, # of connection points: 4
#     Node 12, Type 0, BuildingBlock: KOZSID_clean_sbu_0, # of connection points: 4
#     Node 13, Type 0, BuildingBlock: KOZSID_clean_sbu_0, # of connection points: 4
#     Node 14, Type 0, BuildingBlock: KOZSID_clean_sbu_0, # of connection points: 4
#     Node 15, Type 0, BuildingBlock: KOZSID_clean_sbu_0, # of connection points: 4
#     Edge 16, Type (0, 0), BuildingBlock: MIFKUJ_clean_linker_0, # of connection points: 2
#     Edge 17, Type (0, 0), BuildingBlock: MIFKUJ_clean_linker_0, # of connection points: 2
#     Edge 18, Type (0, 0), BuildingBlock: MIFKUJ_clean_linker_0, # of connection points: 2
#     Edge 19, Type (0, 0), BuildingBlock: MIFKUJ_clean_linker_0, # of connection points: 2
#     Edge 20, Type (0, 0), BuildingBlock: MIFKUJ_clean_linker_0, # of connection points: 2
#     Edge 21, Type (0, 0), BuildingBlock: MIFKUJ_clean_linker_0, # of connection points: 2
#     Edge 22, Type (0, 0), BuildingBlock: MIFKUJ_clean_linker_0, # of connection points: 2
#     Edge 23, Type (0, 0), BuildingBlock: MIFKUJ_clean_linker_0, # of connection points: 2
#     Edge 24, Type (0, 0), BuildingBlock: MIFKUJ_clean_linker_0, # of connection points: 2
#     Edge 25, Type (0, 0), BuildingBlock: MIFKUJ_clean_linker_0, # of connection points: 2
#     Edge 26, Type (0, 0), BuildingBlock: MIFKUJ_clean_linker_0, # of connection points: 2
#     Edge 27, Type (0, 0), BuildingBlock: MIFKUJ_clean_linker_0, # of connection points: 2
#     Edge 28, Type (0, 0), BuildingBlock: MIFKUJ_clean_linker_0, # of connection points: 2
#     Edge 29, Type (0, 0), BuildingBlock: MIFKUJ_clean_linker_0, # of connection points: 2
#     Edge 30, Type (0, 0), BuildingBlock: MIFKUJ_clean_linker_0, # of connection points: 2
#     Edge 31, Type (0, 0), BuildingBlock: MIFKUJ_clean_linker_0, # of connection points: 2
#     Edge 32, Type (0, 0), BuildingBlock: MIFKUJ_clean_linker_0, # of connection points: 2
#     Edge 33, Type (0, 0), BuildingBlock: MIFKUJ_clean_linker_0, # of connection points: 2
#     Edge 34, Type (0, 0), BuildingBlock: MIFKUJ_clean_linker_0, # of connection points: 2
#     Edge 35, Type (0, 0), BuildingBlock: MIFKUJ_clean_linker_0, # of connection points: 2
#     Edge 36, Type (0, 0), BuildingBlock: MIFKUJ_clean_linker_0, # of connection points: 2
#     Edge 37, Type (0, 0), BuildingBlock: MIFKUJ_clean_linker_0, # of connection points: 2
#     Edge 38, Type (0, 0), BuildingBlock: MIFKUJ_clean_linker_0, # of connection points: 2
#     Edge 39, Type (0, 0), BuildingBlock: MIFKUJ_clean_linker_0, # of connection points: 2
#     Edge 40, Type (0, 0), BuildingBlock: MIFKUJ_clean_linker_0, # of connection points: 2
#     Edge 41, Type (0, 0), BuildingBlock: MIFKUJ_clean_linker_0, # of connection points: 2
#     Edge 42, Type (0, 0), BuildingBlock: MIFKUJ_clean_linker_0, # of connection points: 2
#     Edge 43, Type (0, 0), BuildingBlock: MIFKUJ_clean_linker_0, # of connection points: 2
#     Edge 44, Type (0, 0), BuildingBlock: MIFKUJ_clean_linker_0, # of connection points: 2
#     Edge 45, Type (0, 0), BuildingBlock: MIFKUJ_clean_linker_0, # of connection points: 2
#     Edge 46, Type (0, 0), BuildingBlock: MIFKUJ_clean_linker_0, # of connection points: 2
#     Edge 47, Type (0, 0), BuildingBlock: MIFKUJ_clean_linker_0, # of connection points: 2
# Relax obj value: 0.163
# Max RMSD: 0.237
# Mean RMSD: 0.234
data_MOF--net-upc--node1-KOZSID_clean_sbu_0--edge1-MIFKUJ_clean_linker_0
_symmetry_space_group_name_H-M    P1
_symmetry_Int_Tables_number       1
_symmetry_cell_setting            triclinic
loop_
_symmetry_equiv_pos_as_xyz
'x, y, z'
_cell_length_a     56.093671
_cell_length_b     56.159108
_cell_length_c     57.305869
_cell_angle_alpha  90.058698
_cell_angle_beta   90.001085
_cell_angle_gamma 90.074838
loop_
_atom_site_label
_atom_site_type_symbol
_atom_site_fract_x
_atom_site_fract_y
_atom_site_fract_z
_atom_type_partial_charge
C0 C 0.1748 0.63491 0.1223 0.0
C1 C 0.19597 0.62754 0.11218 0.0
C2 C 0.19567 0.60303 0.1123 0.0
C3 C 0.17431 0.59667 0.12235 0.0
N4 N 0.1611 0.61568 0.12823 0.0
Co5 Co 0.13025 0.61447 0.14534 0.0
N6 N 0.13593 0.58175 0.15753 0.0
C7 C 0.15243 0.56668 0.14897 0.0
C8 C 0.15229 0.54498 0.15997 0.0
C9 C 0.13426 0.54627 0.17612 0.0
C10 C 0.12413 0.56871 0.17402 0.0
N11 N 0.09932 0.61397 0.16254 0.0
C12 C 0.09038 0.59843 0.17864 0.0
C13 C 0.0671 0.6045 0.18443 0.0
C14 C 0.06126 0.62409 0.17139 0.0
C15 C 0.08112 0.62897 0.15827 0.0
N16 N 0.12523 0.64734 0.13319 0.0
C17 C 0.10411 0.65857 0.13226 0.0
C18 C 0.10634 0.68202 0.12581 0.0
C19 C 0.13032 0.68581 0.12269 0.0
C20 C 0.14164 0.66432 0.1271 0.0
N21 N 0.11381 0.6003 0.11788 0.0
C22 C 0.08838 0.57879 0.0806 0.0
C23 C 0.10517 0.59702 0.07644 0.0
C24 C 0.11758 0.60769 0.09537 0.0
C25 C 0.08521 0.57145 0.10366 0.0
C26 C 0.09791 0.58217 0.12169 0.0
N27 N 0.14616 0.62795 0.17256 0.0
C28 C 0.1487 0.65945 0.20071 0.0
C29 C 0.17233 0.65325 0.20569 0.0
C30 C 0.18207 0.63314 0.19494 0.0
C31 C 0.16849 0.62045 0.1787 0.0
C32 C 0.13596 0.64662 0.18408 0.0
H33 H 0.17655 0.60535 0.17023 0.0
H34 H 0.11833 0.65266 0.17964 0.0
H35 H 0.1301 0.62189 0.09187 0.0
H36 H 0.09455 0.57549 0.13885 0.0
C37 C 0.16906 0.57436 0.13219 0.0
C38 C 0.16782 0.66025 0.12523 0.0
C39 C 0.10173 0.57583 0.18597 0.0
C40 C 0.08425 0.64875 0.14362 0.0
H41 H 0.21032 0.63871 0.10587 0.0
H42 H 0.21011 0.59134 0.10729 0.0
H43 H 0.16402 0.53004 0.15679 0.0
H44 H 0.12879 0.53204 0.18767 0.0
H45 H 0.05517 0.59522 0.19616 0.0
H46 H 0.04452 0.63365 0.17153 0.0
H47 H 0.09244 0.69537 0.12543 0.0
H48 H 0.13835 0.70277 0.11856 0.0
H49 H 0.10836 0.60329 0.05886 0.0
H50 H 0.07298 0.55714 0.10789 0.0
H51 H 0.14057 0.67504 0.20851 0.0
H52 H 0.20022 0.6277 0.19852 0.0
C53 C 0.88707 0.18978 0.12721 0.0
C54 C 0.89446 0.21273 0.12214 0.0
C55 C 0.91876 0.21307 0.12478 0.0
C56 C 0.92503 0.19033 0.1312 0.0
N57 N 0.90621 0.1754 0.13202 0.0
Co58 Co 0.90714 0.14163 0.14343 0.0
N59 N 0.93942 0.14524 0.15814 0.0
C60 C 0.95292 0.16515 0.15722 0.0
C61 C 0.97351 0.16352 0.17 0.0
C62 C 0.9731 0.14123 0.17965 0.0
C63 C 0.95242 0.13014 0.17184 0.0
N64 N 0.90778 0.10772 0.15417 0.0
C65 C 0.92441 0.09521 0.16649 0.0
C66 C 0.91858 0.07115 0.16715 0.0
C67 C 0.89758 0.06853 0.15534 0.0
C68 C 0.89181 0.09093 0.14778 0.0
N69 N 0.8738 0.1391 0.13049 0.0
C70 C 0.86088 0.11885 0.12913 0.0
C71 C 0.83736 0.12262 0.12378 0.0
C72 C 0.83487 0.14681 0.12244 0.0
C73 C 0.85717 0.15661 0.12673 0.0
N74 N 0.92229 0.13035 0.11333 0.0
C75 C 0.94777 0.1028 0.07973 0.0
C76 C 0.92288 0.10138 0.08157 0.0
C77 C 0.91059 0.11538 0.09812 0.0
C78 C 0.95913 0.12022 0.09316 0.0
C79 C 0.94619 0.13393 0.10922 0.0
N80 N 0.8928 0.15208 0.17282 0.0
C81 C 0.85759 0.15062 0.1963 0.0
C82 C 0.85992 0.17499 0.20105 0.0
C83 C 0.88124 0.18633 0.19516 0.0
C84 C 0.89779 0.17425 0.18149 0.0
C85 C 0.87432 0.13946 0.18215 0.0
H86 H 0.91326 0.18396 0.17606 0.0
H87 H 0.87086 0.12139 0.17706 0.0
H88 H 0.8917 0.11325 0.09858 0.0
H89 H 0.95633 0.14684 0.11849 0.0
C90 C 0.94589 0.18468 0.14352 0.0
C91 C 0.86163 0.18264 0.12822 0.0
C92 C 0.94625 0.10508 0.17721 0.0
C93 C 0.87055 0.09719 0.13658 0.0
H94 H 0.8833 0.22791 0.11822 0.0
H95 H 0.93011 0.22867 0.12446 0.0
H96 H 0.98722 0.17693 0.17206 0.0
H97 H 0.98665 0.13401 0.19102 0.0
H98 H 0.92853 0.05683 0.17512 0.0
H99 H 0.88758 0.05224 0.15277 0.0
H100 H 0.82329 0.10946 0.12273 0.0
H101 H 0.81821 0.15603 0.11974 0.0
H102 H 0.91295 0.08881 0.07101 0.0
H103 H 0.97816 0.12312 0.09155 0.0
H104 H 0.84199 0.14073 0.20182 0.0
H105 H 0.88425 0.20495 0.19914 0.0
C106 C 0.33676 0.88523 0.12131 0.0
C107 C 0.31505 0.89396 0.11364 0.0
C108 C 0.31649 0.91841 0.11483 0.0
C109 C 0.33901 0.92338 0.12305 0.0
N110 N 0.35182 0.90357 0.12685 0.0
Co111 Co 0.38426 0.90273 0.1408 0.0
N112 N 0.3813 0.93506 0.15486 0.0
C113 C 0.36507 0.95135 0.14822 0.0
C114 C 0.36753 0.97261 0.15982 0.0
C115 C 0.38674 0.96966 0.1744 0.0
C116 C 0.39503 0.94663 0.171 0.0
N117 N 0.41673 0.90121 0.15486 0.0
C118 C 0.42764 0.91535 0.17105 0.0
C119 C 0.45072 0.90747 0.17521 0.0
C120 C 0.45457 0.88845 0.16065 0.0
C121 C 0.43368 0.88552 0.14853 0.0
N122 N 0.3866 0.87027 0.12685 0.0
C123 C 0.40702 0.85829 0.12334 0.0
C124 C 0.40316 0.83543 0.11565 0.0
C125 C 0.37884 0.83282 0.11441 0.0
C126 C 0.36898 0.85439 0.12121 0.0
N127 N 0.39854 0.91729 0.11256 0.0
C128 C 0.4227 0.93797 0.07429 0.0
C129 C 0.4048 0.92067 0.07079 0.0
C130 C 0.393 0.91042 0.09024 0.0
C131 C 0.42743 0.94506 0.09715 0.0
C132 C 0.41534 0.93472 0.11571 0.0
N133 N 0.37074 0.88895 0.16889 0.0
C134 C 0.3717 0.85871 0.19823 0.0
C135 C 0.35085 0.86781 0.20828 0.0
C136 C 0.34023 0.8879 0.19835 0.0
C137 C 0.35058 0.89831 0.17869 0.0
C138 C 0.38135 0.86955 0.17865 0.0
H139 H 0.34208 0.91371 0.17123 0.0
H140 H 0.39718 0.86191 0.17115 0.0
H141 H 0.37968 0.8968 0.08732 0.0
H142 H 0.42016 0.94087 0.13275 0.0
C143 C 0.34643 0.9451 0.13291 0.0
C144 C 0.34297 0.85953 0.12197 0.0
C145 C 0.41786 0.93779 0.18076 0.0
C146 C 0.42829 0.86663 0.13333 0.0
H147 H 0.29969 0.88372 0.10813 0.0
H148 H 0.30222 0.93094 0.11163 0.0
H149 H 0.35659 0.98836 0.15805 0.0
H150 H 0.39427 0.98321 0.18565 0.0
H151 H 0.46365 0.91497 0.18714 0.0
H152 H 0.47057 0.87778 0.15941 0.0
H153 H 0.41635 0.82161 0.11312 0.0
H154 H 0.36964 0.81657 0.1098 0.0
H155 H 0.40041 0.91472 0.05334 0.0
H156 H 0.4406 0.95868 0.10084 0.0
H157 H 0.38017 0.84282 0.20497 0.0
H158 H 0.32408 0.89541 0.20561 0.0
C159 C 0.63558 0.34816 0.13582 0.0
C160 C 0.62919 0.32429 0.13475 0.0
C161 C 0.60505 0.32315 0.13855 0.0
C162 C 0.59782 0.34623 0.14208 0.0
N163 N 0.61594 0.36186 0.14048 0.0
Co164 Co 0.61342 0.39656 0.14761 0.0
N165 N 0.58372 0.3926 0.16622 0.0
C166 C 0.56946 0.37336 0.16543 0.0
C167 C 0.54994 0.37538 0.17976 0.0
C168 C 0.55189 0.39744 0.18996 0.0
C169 C 0.57258 0.40775 0.1813 0.0
N170 N 0.61116 0.43125 0.15414 0.0
C171 C 0.59712 0.4436 0.16931 0.0
C172 C 0.60074 0.46791 0.16674 0.0
C173 C 0.61722 0.47075 0.14919 0.0
C174 C 0.62284 0.44811 0.14195 0.0
N175 N 0.64386 0.39959 0.12998 0.0
C176 C 0.65232 0.41994 0.12087 0.0
C177 C 0.67465 0.41712 0.11129 0.0
C178 C 0.68059 0.39359 0.11479 0.0
C179 C 0.66162 0.38319 0.12645 0.0
N180 N 0.59422 0.40247 0.11905 0.0
C181 C 0.57086 0.42221 0.07983 0.0
C182 C 0.59068 0.40707 0.07705 0.0
C183 C 0.60212 0.39732 0.09695 0.0
C184 C 0.56209 0.42552 0.10236 0.0
C185 C 0.57382 0.41568 0.12141 0.0
N186 N 0.63197 0.39211 0.17576 0.0
C187 C 0.66697 0.40295 0.19707 0.0
C188 C 0.66661 0.38087 0.20819 0.0
C189 C 0.64669 0.36605 0.20541 0.0
C190 C 0.62927 0.37221 0.18917 0.0
C191 C 0.64957 0.40813 0.18076 0.0
H192 H 0.61478 0.35998 0.18609 0.0
H193 H 0.65179 0.42412 0.17071 0.0
H194 H 0.61794 0.38663 0.09453 0.0
H195 H 0.5669 0.42044 0.13818 0.0
C196 C 0.57658 0.35285 0.15329 0.0
C197 C 0.6603 0.35736 0.13242 0.0
C198 C 0.57898 0.43304 0.185 0.0
C199 C 0.6413 0.44176 0.12644 0.0
H200 H 0.64068 0.30906 0.13248 0.0
H201 H 0.59449 0.30715 0.14063 0.0
H202 H 0.53611 0.36228 0.18272 0.0
H203 H 0.53913 0.40533 0.20184 0.0
H204 H 0.59217 0.48212 0.17634 0.0
H205 H 0.62465 0.48734 0.1429 0.0
H206 H 0.68591 0.43083 0.10389 0.0
H207 H 0.69705 0.38509 0.10956 0.0
H208 H 0.59796 0.40375 0.05986 0.0
H209 H 0.54659 0.4366 0.10544 0.0
H210 H 0.68208 0.41488 0.19865 0.0
H211 H 0.64575 0.34891 0.21404 0.0
C212 C 0.17452 0.88352 0.37416 0.0
C213 C 0.19669 0.89099 0.38201 0.0
C214 C 0.19635 0.91548 0.38203 0.0
C215 C 0.17411 0.92184 0.3741 0.0
N216 N 0.16037 0.90282 0.36937 0.0
Co217 Co 0.12816 0.90427 0.35469 0.0
N218 N 0.13301 0.93693 0.34209 0.0
C219 C 0.15035 0.95189 0.34913 0.0
C220 C 0.15027 0.97299 0.33708 0.0
C221 C 0.13143 0.97139 0.32186 0.0
C222 C 0.12064 0.94944 0.32563 0.0
N223 N 0.09594 0.90492 0.34019 0.0
C224 C 0.08587 0.92039 0.3247 0.0
C225 C 0.06195 0.91478 0.32139 0.0
C226 C 0.05703 0.89541 0.33517 0.0
C227 C 0.07802 0.89022 0.34635 0.0
N228 N 0.12422 0.87128 0.36683 0.0
C229 C 0.10323 0.8602 0.36989 0.0
C230 C 0.10599 0.83686 0.37667 0.0
C231 C 0.13021 0.83304 0.37772 0.0
C232 C 0.14105 0.85425 0.37141 0.0
N233 N 0.11393 0.91831 0.38334 0.0
C234 C 0.08924 0.93874 0.42165 0.0
C235 C 0.10543 0.91978 0.42491 0.0
C236 C 0.11757 0.90974 0.40546 0.0
C237 C 0.08665 0.94754 0.39903 0.0
C238 C 0.09881 0.93724 0.3805 0.0
N239 N 0.14137 0.89121 0.3262 0.0
C240 C 0.14111 0.86035 0.29739 0.0
C241 C 0.16426 0.86667 0.29085 0.0
C242 C 0.17472 0.88701 0.30047 0.0
C243 C 0.16279 0.89923 0.31803 0.0
C244 C 0.12997 0.87286 0.31523 0.0
H245 H 0.17166 0.91414 0.32605 0.0
H246 H 0.11288 0.8666 0.32123 0.0
H247 H 0.12953 0.89493 0.4082 0.0
H248 H 0.09532 0.94467 0.36367 0.0
C249 C 0.1682 0.94413 0.3646 0.0
C250 C 0.1673 0.8581 0.37139 0.0
C251 C 0.0973 0.94228 0.31536 0.0
C252 C 0.08235 0.87028 0.36062 0.0
H253 H 0.21185 0.88003 0.38644 0.0
H254 H 0.2113 0.92717 0.38546 0.0
H255 H 0.16281 0.98757 0.33867 0.0
H256 H 0.12613 0.98506 0.30964 0.0
H257 H 0.04908 0.92413 0.31076 0.0
H258 H 0.04018 0.88614 0.33671 0.0
H259 H 0.0921 0.82368 0.37905 0.0
H260 H 0.13892 0.81651 0.38229 0.0
H261 H 0.10824 0.91241 0.44214 0.0
H262 H 0.07502 0.96249 0.39545 0.0
H263 H 0.13264 0.84451 0.29045 0.0
H264 H 0.19266 0.89228 0.29573 0.0
C265 C 0.63577 0.169 0.37766 0.0
C266 C 0.62788 0.19072 0.38619 0.0
C267 C 0.60337 0.18958 0.38685 0.0
C268 C 0.59742 0.16736 0.37856 0.0
N269 N 0.61672 0.15441 0.37302 0.0
Co270 Co 0.61597 0.12287 0.35706 0.0
N271 N 0.58289 0.12709 0.34528 0.0
C272 C 0.56743 0.14333 0.35361 0.0
C273 C 0.54561 0.14224 0.34282 0.0
C274 C 0.5473 0.1239 0.32703 0.0
C275 C 0.5701 0.11454 0.32912 0.0
N276 N 0.61617 0.09139 0.341 0.0
C277 C 0.60084 0.08163 0.32514 0.0
C278 C 0.60743 0.05833 0.32012 0.0
C279 C 0.62717 0.05338 0.3334 0.0
C280 C 0.63164 0.07376 0.3459 0.0
N281 N 0.64916 0.11931 0.3687 0.0
C282 C 0.66087 0.09858 0.37082 0.0
C283 C 0.68425 0.1018 0.37744 0.0
C284 C 0.68741 0.12604 0.3793 0.0
C285 C 0.6658 0.13641 0.37359 0.0
N286 N 0.6027 0.10718 0.38527 0.0
C287 C 0.58159 0.08334 0.42363 0.0
C288 C 0.59927 0.10089 0.42707 0.0
C289 C 0.60978 0.11247 0.40759 0.0
C290 C 0.57466 0.07851 0.40073 0.0
C291 C 0.58514 0.09049 0.38215 0.0
N292 N 0.62837 0.13793 0.32914 0.0
C293 C 0.66011 0.14116 0.30143 0.0
C294 C 0.6531 0.16448 0.29638 0.0
C295 C 0.63221 0.17344 0.30627 0.0
C296 C 0.61981 0.15963 0.32236 0.0
C297 C 0.64746 0.12815 0.31792 0.0
H298 H 0.60428 0.16721 0.3305 0.0
H299 H 0.65415 0.11089 0.32278 0.0
H300 H 0.62353 0.12564 0.41052 0.0
H301 H 0.57864 0.08602 0.36515 0.0
C302 C 0.57502 0.16092 0.36949 0.0
C303 C 0.66129 0.16246 0.37404 0.0
C304 C 0.57802 0.09231 0.31737 0.0
C305 C 0.65147 0.07793 0.36041 0.0
H306 H 0.63847 0.20615 0.39061 0.0
H307 H 0.59134 0.20406 0.3909 0.0
H308 H 0.53038 0.15369 0.34574 0.0
H309 H 0.53316 0.11784 0.31564 0.0
H310 H 0.5984 0.04586 0.30874 0.0
H311 H 0.63713 0.03689 0.33379 0.0
H312 H 0.69789 0.08828 0.37902 0.0
H313 H 0.70382 0.13508 0.38387 0.0
H314 H 0.60518 0.10532 0.44452 0.0
H315 H 0.56078 0.0656 0.39705 0.0
H316 H 0.67627 0.13372 0.2941 0.0
H317 H 0.62621 0.19135 0.30246 0.0
C318 C 0.33153 0.62698 0.38353 0.0
C319 C 0.30875 0.61794 0.38696 0.0
C320 C 0.31025 0.59361 0.3847 0.0
C321 C 0.33367 0.58882 0.37957 0.0
N322 N 0.34703 0.6087 0.3788 0.0
Co323 Co 0.38055 0.61012 0.36733 0.0
N324 N 0.37813 0.57949 0.35002 0.0
C325 C 0.3612 0.56297 0.3538 0.0
C326 C 0.36408 0.54306 0.34017 0.0
C327 C 0.38433 0.54716 0.3273 0.0
C328 C 0.39278 0.56948 0.33372 0.0
N329 N 0.41408 0.61222 0.35627 0.0
C330 C 0.42612 0.59939 0.33987 0.0
C331 C 0.44977 0.60669 0.33881 0.0
C332 C 0.45267 0.62404 0.35548 0.0
C333 C 0.43072 0.62658 0.36577 0.0
N334 N 0.38206 0.64113 0.384 0.0
C335 C 0.40217 0.65223 0.39063 0.0
C336 C 0.39778 0.67438 0.39996 0.0
C337 C 0.37345 0.67743 0.39881 0.0
C338 C 0.36419 0.65701 0.38866 0.0
N339 N 0.39237 0.59267 0.39514 0.0
C340 C 0.41291 0.56761 0.43291 0.0
C341 C 0.39722 0.58679 0.43683 0.0
C342 C 0.38687 0.59892 0.41764 0.0
C343 C 0.41794 0.56147 0.40989 0.0
C344 C 0.40788 0.57417 0.39155 0.0
N345 N 0.36958 0.62684 0.33983 0.0
C346 C 0.37088 0.6627 0.31755 0.0
C347 C 0.34788 0.6581 0.30935 0.0
C348 C 0.33689 0.63648 0.31464 0.0
C349 C 0.34847 0.62067 0.32952 0.0
C350 C 0.38142 0.64683 0.33286 0.0
H351 H 0.33946 0.6044 0.33414 0.0
H352 H 0.39823 0.65176 0.34052 0.0
H353 H 0.3747 0.61345 0.42094 0.0
H354 H 0.41332 0.569 0.37438 0.0
C355 C 0.3416 0.56808 0.36825 0.0
C356 C 0.3383 0.65278 0.3846 0.0
C357 C 0.4165 0.57874 0.32677 0.0
C358 C 0.42426 0.64421 0.38209 0.0
H359 H 0.29234 0.62756 0.38949 0.0
H360 H 0.29545 0.58122 0.38436 0.0
H361 H 0.35271 0.52748 0.33948 0.0
H362 H 0.39242 0.53478 0.31518 0.0
H363 H 0.46362 0.59989 0.32749 0.0
H364 H 0.46878 0.63394 0.35929 0.0
H365 H 0.41079 0.68753 0.40535 0.0
H366 H 0.36369 0.69307 0.40434 0.0
H367 H 0.39284 0.59217 0.45446 0.0
H368 H 0.43018 0.54709 0.40595 0.0
H369 H 0.37979 0.67941 0.31382 0.0
H370 H 0.31915 0.63242 0.30831 0.0
C371 C 0.8885 0.33163 0.37185 0.0
C372 C 0.89679 0.31007 0.38027 0.0
C373 C 0.92128 0.3118 0.38119 0.0
C374 C 0.92674 0.33435 0.37342 0.0
N375 N 0.90717 0.3469 0.3679 0.0
Co376 Co 0.90738 0.37928 0.3538 0.0
N377 N 0.9409 0.37671 0.3427 0.0
C378 C 0.95671 0.36073 0.35083 0.0
C379 C 0.9789 0.36337 0.34102 0.0
C380 C 0.977 0.38241 0.32607 0.0
C381 C 0.95364 0.39042 0.32745 0.0
N382 N 0.90671 0.41161 0.33946 0.0
C383 C 0.92195 0.42246 0.32426 0.0
C384 C 0.91418 0.44537 0.31926 0.0
C385 C 0.89399 0.44916 0.33225 0.0
C386 C 0.89033 0.4284 0.34435 0.0
N387 N 0.87368 0.38125 0.36479 0.0
C388 C 0.86123 0.40154 0.36717 0.0
C389 C 0.8378 0.39753 0.37299 0.0
C390 C 0.83532 0.37322 0.37419 0.0
C391 C 0.85748 0.36352 0.36921 0.0
N392 N 0.91947 0.39397 0.38317 0.0
C393 C 0.93886 0.4174 0.42276 0.0
C394 C 0.92179 0.39906 0.42526 0.0
C395 C 0.91212 0.38769 0.40516 0.0
C396 C 0.94611 0.42314 0.40022 0.0
C397 C 0.93653 0.41135 0.38106 0.0
N398 N 0.8966 0.36553 0.32451 0.0
C399 C 0.87232 0.3683 0.29031 0.0
C400 C 0.8834 0.34813 0.2809 0.0
C401 C 0.90091 0.3365 0.29387 0.0
C402 C 0.90748 0.34569 0.31558 0.0
C403 C 0.87903 0.37657 0.31218 0.0
H404 H 0.92138 0.33677 0.3251 0.0
H405 H 0.87001 0.39195 0.31909 0.0
H406 H 0.89879 0.37394 0.40733 0.0
H407 H 0.9433 0.41665 0.36442 0.0
C408 C 0.94923 0.34205 0.36552 0.0
C409 C 0.86276 0.33754 0.36913 0.0
C410 C 0.94525 0.41285 0.3165 0.0
C411 C 0.8702 0.42285 0.35787 0.0
H412 H 0.88626 0.29462 0.3849 0.0
H413 H 0.93365 0.2977 0.3855 0.0
H414 H 0.99456 0.3526 0.34413 0.0
H415 H 0.99136 0.38995 0.31583 0.0
H416 H 0.92248 0.45825 0.30781 0.0
H417 H 0.88302 0.465 0.33244 0.0
H418 H 0.8237 0.41059 0.37435 0.0
H419 H 0.81883 0.36389 0.3776 0.0
H420 H 0.91568 0.3939 0.44244 0.0
H421 H 0.95951 0.43675 0.39728 0.0
H422 H 0.85802 0.37722 0.28109 0.0
H423 H 0.90936 0.32051 0.2873 0.0
C424 C 0.91172 0.36259 0.84919 0.0
C425 C 0.89243 0.36729 0.83473 0.0
C426 C 0.87802 0.38302 0.8465 0.0
C427 C 0.88923 0.38706 0.86745 0.0
N428 N 0.9099 0.37506 0.86937 0.0
Co429 Co 0.93076 0.37496 0.8972 0.0
N430 N 0.91621 0.40449 0.90977 0.0
C431 C 0.89495 0.41353 0.90364 0.0
C432 C 0.89061 0.43515 0.91412 0.0
C433 C 0.91043 0.4399 0.92753 0.0
C434 C 0.92579 0.4208 0.92462 0.0
N435 N 0.95137 0.37498 0.92518 0.0
C436 C 0.95779 0.39344 0.93904 0.0
C437 C 0.97303 0.38598 0.95662 0.0
C438 C 0.97645 0.36199 0.9533 0.0
C439 C 0.96307 0.35616 0.93401 0.0
N440 N 0.94603 0.34569 0.88499 0.0
C441 C 0.95906 0.33017 0.89755 0.0
C442 C 0.96753 0.31159 0.88439 0.0
C443 C 0.95901 0.31552 0.8623 0.0
C444 C 0.94564 0.33634 0.86322 0.0
N445 N 0.95415 0.39425 0.88011 0.0
C446 C 0.98393 0.41569 0.84677 0.0
C447 C 0.99257 0.39763 0.86145 0.0
C448 C 0.97743 0.38727 0.87814 0.0
C449 C 0.96077 0.4241 0.85072 0.0
C450 C 0.94625 0.41317 0.86729 0.0
N451 N 0.90641 0.35517 0.91323 0.0
C452 C 0.87864 0.3223 0.91014 0.0
C453 C 0.86694 0.32919 0.93054 0.0
C454 C 0.87583 0.34917 0.9426 0.0
C455 C 0.89588 0.36167 0.93387 0.0
C456 C 0.89786 0.33549 0.90175 0.0
H457 H 0.90237 0.37697 0.9434 0.0
H458 H 0.905 0.33005 0.88523 0.0
H459 H 0.98416 0.37275 0.88855 0.0
H460 H 0.92814 0.41927 0.86874 0.0
C461 C 0.88278 0.40423 0.88421 0.0
C462 C 0.93011 0.34461 0.84419 0.0
C463 C 0.94905 0.41792 0.93636 0.0
C464 C 0.96566 0.33544 0.9206 0.0
H465 H 0.88896 0.35984 0.81764 0.0
H466 H 0.86164 0.39095 0.84027 0.0
H467 H 0.87562 0.44687 0.91113 0.0
H468 H 0.91334 0.45579 0.93781 0.0
H469 H 0.98108 0.3968 0.97014 0.0
H470 H 0.9885 0.35056 0.96288 0.0
H471 H 0.97896 0.29719 0.89002 0.0
H472 H 0.96176 0.30399 0.84739 0.0
H473 H 0.01042 0.39067 0.85928 0.0
H474 H 0.9535 0.43857 0.84047 0.0
H475 H 0.87231 0.30727 0.90001 0.0
H476 H 0.86737 0.35511 0.95856 0.0
C477 C 0.15237 0.90935 0.85098 0.0
C478 C 0.14629 0.88947 0.83779 0.0
C479 C 0.13047 0.87643 0.85084 0.0
C480 C 0.12777 0.88892 0.87126 0.0
N481 N 0.14067 0.90918 0.8717 0.0
Co482 Co 0.1432 0.931 0.89883 0.0
N483 N 0.11384 0.91807 0.9134 0.0
C484 C 0.10359 0.89702 0.90846 0.0
C485 C 0.08282 0.89346 0.92074 0.0
C486 C 0.07989 0.91359 0.93415 0.0
C487 C 0.09904 0.92837 0.92924 0.0
N488 N 0.14573 0.95239 0.92633 0.0
C489 C 0.12854 0.9597 0.9414 0.0
C490 C 0.13767 0.97613 0.95719 0.0
C491 C 0.16135 0.97886 0.95194 0.0
C492 C 0.1654 0.96425 0.93315 0.0
N493 N 0.17221 0.94482 0.8843 0.0
C494 C 0.18854 0.95849 0.89517 0.0
C495 C 0.20604 0.96657 0.88046 0.0
C496 C 0.20062 0.95705 0.8591 0.0
C497 C 0.1802 0.94331 0.86203 0.0
N498 N 0.12379 0.9546 0.88225 0.0
C499 C 0.10064 0.98571 0.85114 0.0
C500 C 0.11934 0.99373 0.8655 0.0
C501 C 0.13065 0.97793 0.88089 0.0
C502 C 0.09297 0.96208 0.85393 0.0
C503 C 0.10453 0.94703 0.86964 0.0
N504 N 0.16301 0.90647 0.91447 0.0
C505 C 0.19451 0.87731 0.91059 0.0
C506 C 0.18778 0.86625 0.93132 0.0
C507 C 0.16886 0.87623 0.94409 0.0
C508 C 0.15699 0.89666 0.93557 0.0
C509 C 0.1819 0.89699 0.90242 0.0
H510 H 0.14243 0.90397 0.94562 0.0
H511 H 0.187 0.90366 0.88562 0.0
H512 H 0.14552 0.98437 0.89103 0.0
H513 H 0.09855 0.92884 0.87068 0.0
C514 C 0.11131 0.88382 0.88908 0.0
C515 C 0.17119 0.9264 0.84441 0.0
C516 C 0.10365 0.95126 0.94101 0.0
C517 C 0.18495 0.96608 0.91814 0.0
H518 H 0.153 0.88456 0.82075 0.0
H519 H 0.12174 0.85999 0.84587 0.0
H520 H 0.07061 0.8786 0.91927 0.0
H521 H 0.06536 0.91705 0.9461 0.0
H522 H 0.12828 0.9858 0.97064 0.0
H523 H 0.17363 0.99146 0.95973 0.0
H524 H 0.22065 0.97846 0.88461 0.0
H525 H 0.21095 0.95944 0.84332 0.0
H526 H 0.1256 0.01194 0.86456 0.0
H527 H 0.07885 0.95469 0.84328 0.0
H528 H 0.20885 0.87008 0.90008 0.0
H529 H 0.16315 0.8682 0.96033 0.0
C530 C 0.61423 0.15757 0.85284 0.0
C531 C 0.63342 0.15214 0.83853 0.0
C532 C 0.64318 0.13159 0.84698 0.0
C533 C 0.62954 0.1257 0.86598 0.0
N534 N 0.61162 0.14122 0.87008 0.0
Co535 Co 0.58849 0.14002 0.89664 0.0
N536 N 0.59988 0.1077 0.9067 0.0
C537 C 0.61801 0.09515 0.8972 0.0
C538 C 0.61969 0.07234 0.90558 0.0
C539 C 0.6011 0.06994 0.92084 0.0
C540 C 0.58921 0.09158 0.92108 0.0
N541 N 0.56589 0.13902 0.92364 0.0
C542 C 0.55936 0.12047 0.9374 0.0
C543 C 0.54277 0.12731 0.95405 0.0
C544 C 0.538 0.1508 0.95007 0.0
C545 C 0.55203 0.15698 0.93143 0.0
N546 N 0.57577 0.17152 0.88607 0.0
C547 C 0.5584 0.18437 0.8965 0.0
C548 C 0.55206 0.2044 0.88441 0.0
C549 C 0.56619 0.20432 0.86504 0.0
C550 C 0.58067 0.18431 0.86662 0.0
N551 N 0.56466 0.12408 0.87637 0.0
C552 C 0.53267 0.10511 0.84323 0.0
C553 C 0.52469 0.12069 0.86068 0.0
C554 C 0.54095 0.13003 0.87698 0.0
C555 C 0.55659 0.09835 0.84349 0.0
C556 C 0.57206 0.10774 0.86017 0.0
N557 N 0.61328 0.15671 0.91629 0.0
C558 C 0.62902 0.19411 0.93141 0.0
C559 C 0.65252 0.18555 0.93097 0.0
C560 C 0.65539 0.1614 0.92538 0.0
C561 C 0.63576 0.14741 0.91875 0.0
C562 C 0.60992 0.17954 0.92426 0.0
H563 H 0.63956 0.1293 0.91493 0.0
H564 H 0.59269 0.18749 0.92474 0.0
H565 H 0.53425 0.1424 0.88964 0.0
H566 H 0.59014 0.1019 0.85936 0.0
C567 C 0.6315 0.10457 0.87881 0.0
C568 C 0.59918 0.17854 0.84957 0.0
C569 C 0.5672 0.09587 0.93428 0.0
C570 C 0.54871 0.1773 0.91785 0.0
H571 H 0.63965 0.16197 0.82347 0.0
H572 H 0.6581 0.12182 0.8398 0.0
H573 H 0.63217 0.05868 0.9003 0.0
H574 H 0.59641 0.05382 0.93006 0.0
H575 H 0.53419 0.11617 0.96699 0.0
H576 H 0.52457 0.16154 0.95862 0.0
H577 H 0.53871 0.21747 0.88908 0.0
H578 H 0.56586 0.21759 0.85137 0.0
H579 H 0.50621 0.12624 0.86126 0.0
H580 H 0.56345 0.08587 0.83071 0.0
H581 H 0.62522 0.21217 0.93685 0.0
H582 H 0.67285 0.15326 0.92507 0.0
C583 C 0.35818 0.61009 0.84942 0.0
C584 C 0.36466 0.62888 0.83505 0.0
C585 C 0.38494 0.63852 0.84435 0.0
C586 C 0.38966 0.62519 0.86385 0.0
N587 N 0.37367 0.60756 0.86746 0.0
Co588 Co 0.37327 0.58489 0.89435 0.0
N589 N 0.40528 0.59606 0.9058 0.0
C590 C 0.41842 0.61408 0.89685 0.0
C591 C 0.44081 0.61574 0.90633 0.0
C592 C 0.44233 0.59725 0.92177 0.0
C593 C 0.42061 0.58544 0.921 0.0
N594 N 0.37279 0.56256 0.92155 0.0
C595 C 0.39075 0.55575 0.93596 0.0
C596 C 0.38303 0.53917 0.95223 0.0
C597 C 0.35958 0.5348 0.94741 0.0
C598 C 0.35428 0.54899 0.92863 0.0
N599 N 0.34201 0.57246 0.8825 0.0
C600 C 0.32827 0.55559 0.89267 0.0
C601 C 0.30847 0.54962 0.87994 0.0
C602 C 0.30964 0.56348 0.86044 0.0
C603 C 0.33006 0.5774 0.86255 0.0
N604 N 0.3898 0.56063 0.87512 0.0
C605 C 0.41088 0.52789 0.84403 0.0
C606 C 0.39236 0.52087 0.85892 0.0
C607 C 0.38233 0.53738 0.87452 0.0
C608 C 0.41904 0.55134 0.84552 0.0
C609 C 0.40828 0.56729 0.86093 0.0
N610 N 0.35605 0.61014 0.91298 0.0
C611 C 0.31812 0.62685 0.9256 0.0
C612 C 0.3275 0.64999 0.92621 0.0
C613 C 0.35207 0.65224 0.92242 0.0
C614 C 0.36586 0.63231 0.91632 0.0
C615 C 0.33258 0.60741 0.91936 0.0
H616 H 0.38431 0.63566 0.91374 0.0
H617 H 0.32405 0.59046 0.91928 0.0
H618 H 0.36834 0.53121 0.88573 0.0
H619 H 0.41485 0.58513 0.86074 0.0
C620 C 0.41004 0.62731 0.87783 0.0
C621 C 0.33696 0.59546 0.84549 0.0
C622 C 0.41557 0.56349 0.93401 0.0
C623 C 0.33435 0.54603 0.91436 0.0
H624 H 0.35566 0.63495 0.81945 0.0
H625 H 0.39527 0.65321 0.83746 0.0
H626 H 0.45483 0.6281 0.90163 0.0
H627 H 0.45797 0.59255 0.93178 0.0
H628 H 0.39355 0.53039 0.96551 0.0
H629 H 0.34829 0.52152 0.9555 0.0
H630 H 0.29483 0.53672 0.88431 0.0
H631 H 0.29681 0.56341 0.84634 0.0
H632 H 0.38567 0.50277 0.85856 0.0
H633 H 0.4332 0.55765 0.83425 0.0
H634 H 0.29952 0.62366 0.92961 0.0
H635 H 0.36068 0.66948 0.92314 0.0
C636 C 0.91674 0.15432 0.65421 0.0
C637 C 0.89755 0.15032 0.66903 0.0
C638 C 0.88246 0.13489 0.65767 0.0
C639 C 0.89318 0.13031 0.63658 0.0
N640 N 0.91419 0.1417 0.63421 0.0
Co641 Co 0.93436 0.14114 0.60592 0.0
N642 N 0.91869 0.11196 0.59387 0.0
C643 C 0.89737 0.10342 0.60049 0.0
C644 C 0.89226 0.08188 0.59013 0.0
C645 C 0.91168 0.07665 0.57631 0.0
C646 C 0.92758 0.09535 0.57898 0.0
N647 N 0.95412 0.14058 0.57736 0.0
C648 C 0.95983 0.12183 0.56361 0.0
C649 C 0.97498 0.12872 0.54573 0.0
C650 C 0.97909 0.15265 0.54875 0.0
C651 C 0.9662 0.15902 0.5682 0.0
N652 N 0.95099 0.16987 0.61773 0.0
C653 C 0.96427 0.18494 0.60485 0.0
C654 C 0.97366 0.20328 0.61777 0.0
C655 C 0.96548 0.19969 0.64004 0.0
C656 C 0.9514 0.17931 0.63948 0.0
N657 N 0.95763 0.12117 0.62232 0.0
C658 C 0.98875 0.09724 0.65284 0.0
C659 C 0.99723 0.11491 0.63755 0.0
C660 C 0.98141 0.12661 0.62241 0.0
C661 C 0.96456 0.09106 0.65141 0.0
C662 C 0.9495 0.103 0.63604 0.0
N663 N 0.91004 0.16159 0.59055 0.0
C664 C 0.88312 0.19489 0.59501 0.0
C665 C 0.86884 0.18718 0.57645 0.0
C666 C 0.87692 0.16718 0.56378 0.0
C667 C 0.8977 0.15481 0.57096 0.0
C668 C 0.90298 0.18187 0.60193 0.0
H669 H 0.9031 0.1392 0.5613 0.0
H670 H 0.9117 0.18788 0.61749 0.0
H671 H 0.98823 0.14063 0.61141 0.0
H672 H 0.93091 0.09821 0.63612 0.0
C673 C 0.88586 0.11317 0.6201 0.0
C674 C 0.93578 0.17181 0.65877 0.0
C675 C 0.95071 0.0976 0.56695 0.0
C676 C 0.96996 0.17957 0.58159 0.0
H677 H 0.89459 0.15805 0.6861 0.0
H678 H 0.86594 0.12752 0.66423 0.0
H679 H 0.877 0.07054 0.59339 0.0
H680 H 0.91401 0.06077 0.56586 0.0
H681 H 0.98263 0.11751 0.5323 0.0
H682 H 0.99141 0.16363 0.53895 0.0
H683 H 0.98538 0.21735 0.61182 0.0
H684 H 0.96886 0.21121 0.65483 0.0
H685 H 0.01584 0.12003 0.63754 0.0
H686 H 0.95685 0.07783 0.66289 0.0
H687 H 0.87866 0.21071 0.6049 0.0
H688 H 0.86686 0.16053 0.54904 0.0
C689 C 0.35649 0.90103 0.64991 0.0
C690 C 0.36183 0.88173 0.66409 0.0
C691 C 0.38262 0.87223 0.65588 0.0
C692 C 0.38871 0.88605 0.63709 0.0
N693 N 0.37312 0.90388 0.63291 0.0
Co694 Co 0.37431 0.92668 0.6061 0.0
N695 N 0.40669 0.91528 0.59607 0.0
C696 C 0.41935 0.89745 0.60589 0.0
C697 C 0.44217 0.89564 0.59749 0.0
C698 C 0.44447 0.91384 0.58182 0.0
C699 C 0.42275 0.92562 0.58135 0.0
N700 N 0.37523 0.94885 0.57875 0.0
C701 C 0.39368 0.95507 0.56466 0.0
C702 C 0.38666 0.97133 0.54781 0.0
C703 C 0.36319 0.97621 0.55198 0.0
C704 C 0.35718 0.96255 0.57093 0.0
N705 N 0.34279 0.9395 0.61672 0.0
C706 C 0.33006 0.95691 0.60627 0.0
C707 C 0.31011 0.9635 0.61841 0.0
C708 C 0.31007 0.94944 0.63781 0.0
C709 C 0.3299 0.93468 0.63617 0.0
N710 N 0.39029 0.95084 0.62601 0.0
C711 C 0.40936 0.98364 0.65821 0.0
C712 C 0.39421 0.99127 0.64035 0.0
C713 C 0.38479 0.9746 0.62452 0.0
C714 C 0.41559 0.95965 0.65907 0.0
C715 C 0.4062 0.94373 0.64275 0.0
N716 N 0.35758 0.90164 0.58683 0.0
C717 C 0.32001 0.8855 0.57247 0.0
C718 C 0.32883 0.86213 0.57273 0.0
C719 C 0.35313 0.85949 0.57787 0.0
C720 C 0.36707 0.87925 0.58428 0.0
C721 C 0.33454 0.90475 0.57928 0.0
H722 H 0.3853 0.87566 0.58789 0.0
H723 H 0.32641 0.92188 0.57893 0.0
H724 H 0.37271 0.98107 0.6115 0.0
H725 H 0.41168 0.9256 0.64427 0.0
C726 C 0.4099 0.88414 0.62436 0.0
C727 C 0.33528 0.91588 0.65304 0.0
C728 C 0.41836 0.94719 0.56751 0.0
C729 C 0.33701 0.96617 0.5847 0.0
H730 H 0.35178 0.87517 0.67886 0.0
H731 H 0.39233 0.85726 0.66299 0.0
H732 H 0.45588 0.8833 0.60295 0.0
H733 H 0.46058 0.91832 0.57244 0.0
H734 H 0.39764 0.97962 0.53457 0.0
H735 H 0.35235 0.98946 0.54332 0.0
H736 H 0.29712 0.97691 0.61372 0.0
H737 H 0.29679 0.94997 0.65148 0.0
H738 H 0.38911 0.00982 0.63906 0.0
H739 H 0.42755 0.95313 0.67248 0.0
H740 H 0.30178 0.88908 0.5674 0.0
H741 H 0.36141 0.8421 0.57799 0.0
C742 C 0.60699 0.36476 0.65514 0.0
C743 C 0.6257 0.37175 0.66948 0.0
C744 C 0.63953 0.3872 0.65672 0.0
C745 C 0.62855 0.38886 0.63536 0.0
N746 N 0.60855 0.37564 0.6341 0.0
Co747 Co 0.58805 0.37233 0.60623 0.0
N748 N 0.60128 0.40151 0.59178 0.0
C749 C 0.6221 0.41199 0.59722 0.0
C750 C 0.62527 0.43313 0.58549 0.0
C751 C 0.60511 0.43605 0.57207 0.0
C752 C 0.59074 0.41641 0.57626 0.0
N753 N 0.56769 0.36934 0.57829 0.0
C754 C 0.56002 0.3867 0.56376 0.0
C755 C 0.54498 0.3775 0.5468 0.0
C756 C 0.54303 0.35351 0.55123 0.0
C757 C 0.55701 0.34942 0.57056 0.0
N758 N 0.57426 0.34319 0.62019 0.0
C759 C 0.56246 0.32602 0.60847 0.0
C760 C 0.55521 0.30772 0.62265 0.0
C761 C 0.56324 0.31363 0.64452 0.0
C762 C 0.57502 0.33534 0.64249 0.0
N763 N 0.56352 0.3915 0.62182 0.0
C764 C 0.53209 0.41388 0.65312 0.0
C765 C 0.52482 0.39397 0.64 0.0
C766 C 0.54071 0.38323 0.62427 0.0
C767 C 0.55471 0.42344 0.6485 0.0
C768 C 0.57011 0.41195 0.63306 0.0
N769 N 0.61343 0.35268 0.5917 0.0
C770 C 0.6437 0.32273 0.59778 0.0
C771 C 0.65432 0.3277 0.57629 0.0
C772 C 0.64311 0.34468 0.56189 0.0
C773 C 0.62266 0.35703 0.56995 0.0
C774 C 0.62363 0.33522 0.60506 0.0
H775 H 0.61478 0.37055 0.55899 0.0
H776 H 0.61708 0.33116 0.62218 0.0
H777 H 0.53498 0.36747 0.61505 0.0
H778 H 0.58785 0.41903 0.6312 0.0
C779 C 0.63446 0.40489 0.61739 0.0
C780 C 0.58958 0.34605 0.66113 0.0
C781 C 0.56737 0.41174 0.56538 0.0
C782 C 0.55565 0.32941 0.58511 0.0
H783 H 0.62923 0.36596 0.68715 0.0
H784 H 0.65536 0.3965 0.66254 0.0
H785 H 0.6396 0.44585 0.58777 0.0
H786 H 0.60127 0.45117 0.56104 0.0
H787 H 0.53608 0.3872 0.53301 0.0
H788 H 0.53147 0.34095 0.54242 0.0
H789 H 0.5449 0.29218 0.61781 0.0
H790 H 0.56123 0.30285 0.66004 0.0
H791 H 0.5075 0.38593 0.64269 0.0
H792 H 0.56095 0.43929 0.65738 0.0
H793 H 0.65121 0.30947 0.60936 0.0
H794 H 0.65057 0.34904 0.545 0.0
C795 C 0.14996 0.60155 0.65139 0.0
C796 C 0.14364 0.62029 0.66596 0.0
C797 C 0.12735 0.63381 0.65396 0.0
C798 C 0.12459 0.62266 0.63279 0.0
N799 N 0.13791 0.60282 0.63093 0.0
Co800 Co 0.14004 0.58242 0.60286 0.0
N801 N 0.11004 0.59532 0.58963 0.0
C802 C 0.09955 0.61589 0.59579 0.0
C803 C 0.07783 0.6189 0.58506 0.0
C804 C 0.07453 0.59894 0.57147 0.0
C805 C 0.09457 0.58482 0.57448 0.0
N806 N 0.14196 0.56222 0.57466 0.0
C807 C 0.12419 0.55469 0.56044 0.0
C808 C 0.133 0.54007 0.54296 0.0
C809 C 0.15713 0.53818 0.54672 0.0
C810 C 0.1617 0.55181 0.56617 0.0
N811 N 0.16988 0.56881 0.61566 0.0
C812 C 0.18656 0.55707 0.60326 0.0
C813 C 0.20548 0.54987 0.61668 0.0
C814 C 0.20053 0.55789 0.63877 0.0
C815 C 0.17876 0.56964 0.63761 0.0
N816 N 0.12166 0.55771 0.61907 0.0
C817 C 0.09956 0.52538 0.6495 0.0
C818 C 0.11952 0.51861 0.63634 0.0
C819 C 0.13006 0.53491 0.62091 0.0
C820 C 0.09018 0.54818 0.6461 0.0
C821 C 0.10154 0.56405 0.63103 0.0
N822 N 0.1589 0.60805 0.58765 0.0
C823 C 0.19043 0.63726 0.59162 0.0
C824 C 0.18388 0.64833 0.57084 0.0
C825 C 0.16472 0.63853 0.55819 0.0
C826 C 0.1527 0.6181 0.56671 0.0
C827 C 0.1777 0.61764 0.59978 0.0
H828 H 0.13806 0.61084 0.55672 0.0
H829 H 0.18284 0.6109 0.61653 0.0
H830 H 0.14559 0.52942 0.61121 0.0
H831 H 0.09459 0.58187 0.62996 0.0
C832 C 0.10755 0.62828 0.61564 0.0
C833 C 0.16903 0.58434 0.65663 0.0
C834 C 0.09908 0.56182 0.56268 0.0
C835 C 0.18225 0.55043 0.58002 0.0
H836 H 0.15041 0.62402 0.68328 0.0
H837 H 0.11825 0.64958 0.66016 0.0
H838 H 0.06506 0.633 0.58809 0.0
H839 H 0.05889 0.59509 0.56112 0.0
H840 H 0.12298 0.5314 0.52921 0.0
H841 H 0.1695 0.52693 0.53732 0.0
H842 H 0.22083 0.53964 0.61119 0.0
H843 H 0.21199 0.55594 0.65384 0.0
H844 H 0.12715 0.50101 0.63826 0.0
H845 H 0.07486 0.55421 0.65599 0.0
H846 H 0.2049 0.64432 0.6021 0.0
H847 H 0.15909 0.64655 0.54192 0.0
H848 H 0.20849 0.66823 0.15147 0.0
H849 H 0.23761 0.70109 0.14922 0.0
H850 H 0.19861 0.7313 0.09178 0.0
H851 H 0.17026 0.69799 0.09332 0.0
H852 H 0.26839 0.7191 0.11193 0.0
H853 H 0.2015 0.79566 0.10097 0.0
H854 H 0.15908 0.80403 0.10874 0.0
H855 H 0.15944 0.75379 0.16517 0.0
H856 H 0.20199 0.74568 0.15824 0.0
H857 H 0.33541 0.82579 0.08681 0.0
H858 H 0.30607 0.79348 0.08505 0.0
H859 H 0.27575 0.81751 0.15001 0.0
H860 H 0.30557 0.8495 0.15195 0.0
H861 H 0.24069 0.80159 0.12646 0.0
H862 H 0.31897 0.76453 0.13995 0.0
H863 H 0.36046 0.75535 0.12932 0.0
H864 H 0.3368 0.72552 0.06428 0.0
H865 H 0.29507 0.73482 0.07455 0.0
C866 C 0.2061 0.68182 0.1383 0.0
C867 C 0.1862 0.68057 0.12319 0.0
C868 C 0.22294 0.70072 0.13694 0.0
C869 C 0.22055 0.71931 0.12048 0.0
C870 C 0.20104 0.71771 0.10496 0.0
C871 C 0.18445 0.69863 0.10609 0.0
C872 C 0.23782 0.74058 0.11998 0.0
C873 C 0.2622 0.73711 0.11505 0.0
C874 C 0.23029 0.76445 0.12387 0.0
C875 C 0.20491 0.76983 0.12885 0.0
C876 C 0.19258 0.78651 0.11513 0.0
C877 C 0.1685 0.79123 0.11941 0.0
C878 C 0.15654 0.77937 0.13737 0.0
C879 C 0.16867 0.76286 0.15116 0.0
C880 C 0.19278 0.7582 0.14707 0.0
C881 C 0.32288 0.82392 0.10106 0.0
C882 C 0.32381 0.83998 0.12005 0.0
C883 C 0.30584 0.80523 0.10003 0.0
C884 C 0.28878 0.8017 0.11791 0.0
C885 C 0.28876 0.81881 0.13612 0.0
C886 C 0.30597 0.83736 0.13726 0.0
C887 C 0.27143 0.7803 0.11795 0.0
C888 C 0.24697 0.78367 0.12308 0.0
C889 C 0.27882 0.75632 0.11376 0.0
C890 C 0.30389 0.75047 0.10797 0.0
C891 C 0.32257 0.75606 0.12341 0.0
C892 C 0.34615 0.75085 0.11743 0.0
C893 C 0.35128 0.73986 0.09613 0.0
C894 C 0.33281 0.73402 0.08079 0.0
C895 C 0.3092 0.73923 0.08669 0.0
H896 H 0.36955 0.73587 0.09152 0.0
H897 H 0.1379 0.78302 0.14062 0.0
H898 H 0.82545 0.19084 0.09567 0.0
H899 H 0.79256 0.21933 0.09698 0.0
H900 H 0.81903 0.24667 0.16234 0.0
H901 H 0.85136 0.21726 0.16143 0.0
H902 H 0.77633 0.25134 0.16647 0.0
H903 H 0.82204 0.27542 0.10038 0.0
H904 H 0.84249 0.27122 0.0625 0.0
H905 H 0.77629 0.25196 0.02988 0.0
H906 H 0.75548 0.25592 0.06761 0.0
H907 H 0.7028 0.35958 0.1575 0.0
H908 H 0.73684 0.3317 0.1577 0.0
H909 H 0.70285 0.28995 0.10433 0.0
H910 H 0.66934 0.31798 0.10365 0.0
H911 H 0.74975 0.29342 0.09525 0.0
H912 H 0.70431 0.27842 0.16464 0.0
H913 H 0.68736 0.28516 0.20361 0.0
H914 H 0.75763 0.28883 0.233 0.0
H915 H 0.77513 0.28468 0.1939 0.0
C916 C 0.82427 0.20279 0.11046 0.0
C917 C 0.84133 0.20122 0.12855 0.0
C918 C 0.80543 0.21968 0.11103 0.0
C919 C 0.80301 0.23648 0.12937 0.0
C920 C 0.82004 0.2347 0.14758 0.0
C921 C 0.83882 0.21767 0.14708 0.0
C922 C 0.78287 0.25541 0.12979 0.0
C923 C 0.77102 0.2609 0.15091 0.0
C924 C 0.77486 0.26801 0.10961 0.0
C925 C 0.78727 0.26574 0.08688 0.0
C926 C 0.81188 0.27021 0.08515 0.0
C927 C 0.82352 0.26787 0.0637 0.0
C928 C 0.81072 0.26121 0.04382 0.0
C929 C 0.78621 0.25702 0.04531 0.0
C930 C 0.77447 0.25937 0.06671 0.0
C931 C 0.70239 0.34431 0.14597 0.0
C932 C 0.68233 0.34076 0.13138 0.0
C933 C 0.72198 0.32813 0.14621 0.0
C934 C 0.7226 0.30771 0.13172 0.0
C935 C 0.70315 0.30493 0.11623 0.0
C936 C 0.6836 0.32104 0.11602 0.0
C937 C 0.74342 0.28966 0.13204 0.0
C938 C 0.7553 0.2842 0.11095 0.0
C939 C 0.75193 0.27776 0.15251 0.0
C940 C 0.74112 0.28165 0.17598 0.0
C941 C 0.71625 0.28138 0.17919 0.0
C942 C 0.7065 0.28465 0.20141 0.0
C943 C 0.72138 0.28692 0.22086 0.0
C944 C 0.74609 0.28681 0.21799 0.0
C945 C 0.75592 0.28442 0.1957 0.0
H946 H 0.71377 0.28907 0.23808 0.0
H947 H 0.81977 0.2594 0.02724 0.0
H948 H 0.19754 0.84445 0.40779 0.0
H949 H 0.22613 0.81148 0.40968 0.0
H950 H 0.20578 0.78969 0.34037 0.0
H951 H 0.17732 0.823 0.33851 0.0
H952 H 0.22785 0.76797 0.41218 0.0
H953 H 0.25425 0.75675 0.31223 0.0
H954 H 0.26401 0.78214 0.27863 0.0
H955 H 0.27153 0.84259 0.32392 0.0
H956 H 0.26153 0.81765 0.35782 0.0
H957 H 0.29565 0.66043 0.41002 0.0
H958 H 0.26648 0.69203 0.4061 0.0
H959 H 0.31268 0.72777 0.35735 0.0
H960 H 0.34029 0.69442 0.35892 0.0
H961 H 0.27854 0.74445 0.34551 0.0
H962 H 0.29563 0.74329 0.42633 0.0
H963 H 0.30056 0.72703 0.46604 0.0
H964 H 0.22696 0.706 0.46693 0.0
H965 H 0.22151 0.72242 0.42733 0.0
C966 C 0.19928 0.83287 0.39277 0.0
C967 C 0.18513 0.83712 0.37278 0.0
C968 C 0.2157 0.81359 0.39393 0.0
C969 C 0.21897 0.79749 0.37513 0.0
C970 C 0.20452 0.80159 0.3552 0.0
C971 C 0.18794 0.82081 0.35414 0.0
C972 C 0.23687 0.77647 0.37665 0.0
C973 C 0.2388 0.76295 0.39739 0.0
C974 C 0.25262 0.76978 0.35819 0.0
C975 C 0.25644 0.78535 0.33757 0.0
C976 C 0.25774 0.77549 0.31504 0.0
C977 C 0.2637 0.78975 0.29596 0.0
C978 C 0.26876 0.8139 0.29916 0.0
C979 C 0.26759 0.82389 0.32145 0.0
C980 C 0.26153 0.80971 0.34059 0.0
C981 C 0.2993 0.67443 0.39761 0.0
C982 C 0.32031 0.67369 0.38395 0.0
C983 C 0.28273 0.69356 0.39612 0.0
C984 C 0.28693 0.71395 0.38206 0.0
C985 C 0.30824 0.71322 0.36874 0.0
C986 C 0.32443 0.69378 0.36969 0.0
C987 C 0.26948 0.73557 0.38091 0.0
C988 C 0.26752 0.74923 0.36023 0.0
C989 C 0.25519 0.74364 0.40005 0.0
C990 C 0.25824 0.73385 0.42383 0.0
C991 C 0.28051 0.73518 0.43502 0.0
C992 C 0.28336 0.72602 0.45752 0.0
C993 C 0.26405 0.71554 0.46902 0.0
C994 C 0.24184 0.71427 0.45806 0.0
C995 C 0.23883 0.72356 0.43562 0.0
H996 H 0.2663 0.70841 0.48642 0.0
H997 H 0.2732 0.82495 0.28433 0.0
H998 H 0.853 0.30032 0.33844 0.0
H999 H 0.82058 0.27069 0.33934 0.0
H1000 H 0.79474 0.30118 0.4035 0.0
H1001 H 0.82759 0.33012 0.40296 0.0
H1002 H 0.78899 0.25535 0.40698 0.0
H1003 H 0.77412 0.30958 0.34396 0.0
H1004 H 0.78267 0.32882 0.30642 0.0
H1005 H 0.77338 0.26234 0.27082 0.0
H1006 H 0.76742 0.24198 0.30846 0.0
H1007 H 0.67515 0.19537 0.40833 0.0
H1008 H 0.70799 0.22419 0.40781 0.0
H1009 H 0.72927 0.19851 0.34005 0.0
H1010 H 0.69563 0.17043 0.34023 0.0
H1011 H 0.73676 0.24243 0.33848 0.0
H1012 H 0.7598 0.18739 0.39778 0.0
H1013 H 0.75666 0.16417 0.43416 0.0
H1014 H 0.75057 0.22882 0.47378 0.0
H1015 H 0.75331 0.25242 0.4376 0.0
C1016 C 0.84047 0.30072 0.35281 0.0
C1017 C 0.84296 0.31835 0.3703 0.0
C1018 C 0.8216 0.28369 0.35327 0.0
C1019 C 0.80416 0.2835 0.37121 0.0
C1020 C 0.80729 0.30058 0.38915 0.0
C1021 C 0.82619 0.3175 0.38873 0.0
C1022 C 0.78283 0.26591 0.37144 0.0
C1023 C 0.77756 0.25287 0.39192 0.0
C1024 C 0.76761 0.26153 0.35184 0.0
C1025 C 0.77095 0.27406 0.32924 0.0
C1026 C 0.77449 0.29885 0.32826 0.0
C1027 C 0.77898 0.30995 0.30691 0.0
C1028 C 0.77862 0.29669 0.28628 0.0
C1029 C 0.77388 0.27239 0.28691 0.0
C1030 C 0.77031 0.26103 0.30827 0.0
C1031 C 0.6865 0.19607 0.39307 0.0
C1032 C 0.68201 0.18059 0.37409 0.0
C1033 C 0.70586 0.21247 0.39295 0.0
C1034 C 0.72209 0.21391 0.37404 0.0
C1035 C 0.71754 0.19833 0.35506 0.0
C1036 C 0.69812 0.182 0.35517 0.0
C1037 C 0.74334 0.23157 0.37376 0.0
C1038 C 0.74839 0.24481 0.35341 0.0
C1039 C 0.75868 0.23578 0.39323 0.0
C1040 C 0.7565 0.22165 0.41495 0.0
C1041 C 0.75755 0.19664 0.41423 0.0
C1042 C 0.75588 0.18342 0.43481 0.0
C1043 C 0.75337 0.19501 0.45625 0.0
C1044 C 0.75246 0.21986 0.45716 0.0
C1045 C 0.75407 0.23317 0.43661 0.0
H1046 H 0.75224 0.18474 0.47216 0.0
H1047 H 0.78186 0.30509 0.26971 0.0
H1048 H 0.82191 0.34637 0.9395 0.0
H1049 H 0.78499 0.3232 0.94366 0.0
H1050 H 0.82577 0.25813 0.94168 0.0
H1051 H 0.86237 0.28124 0.93675 0.0
H1052 H 0.79127 0.25269 0.91401 0.0
H1053 H 0.7957 0.28109 0.99214 0.0
H1054 H 0.79877 0.31016 0.02428 0.0
H1055 H 0.73319 0.34262 0.00257 0.0
H1056 H 0.72994 0.31405 0.97 0.0
H1057 H 0.69719 0.17395 0.94878 0.0
H1058 H 0.73243 0.19921 0.95192 0.0
H1059 H 0.69193 0.25944 0.92796 0.0
H1060 H 0.65683 0.23414 0.92322 0.0
H1061 H 0.72516 0.2674 0.96961 0.0
H1062 H 0.72325 0.23812 0.89004 0.0
H1063 H 0.72051 0.20656 0.86021 0.0
H1064 H 0.78296 0.17303 0.88834 0.0
H1065 H 0.78583 0.20421 0.9186 0.0
C1066 C 0.823 0.32715 0.94055 0.0
C1067 C 0.84512 0.31569 0.93787 0.0
C1068 C 0.80183 0.31382 0.9429 0.0
C1069 C 0.8023 0.28869 0.94303 0.0
C1070 C 0.82462 0.27738 0.94144 0.0
C1071 C 0.84565 0.29064 0.9388 0.0
C1072 C 0.77972 0.27408 0.94319 0.0
C1073 C 0.77707 0.25584 0.92648 0.0
C1074 C 0.76067 0.27813 0.95906 0.0
C1075 C 0.76272 0.29557 0.97845 0.0
C1076 C 0.78206 0.29459 0.99405 0.0
C1077 C 0.78381 0.31094 0.01239 0.0
C1078 C 0.7662 0.32823 0.01545 0.0
C1079 C 0.74682 0.32923 1.00016 0.0
C1080 C 0.74503 0.31296 0.98176 0.0
C1081 C 0.69557 0.19246 0.94386 0.0
C1082 C 0.67375 0.20162 0.93544 0.0
C1083 C 0.71586 0.20701 0.94597 0.0
C1084 C 0.71494 0.23128 0.94018 0.0
C1085 C 0.69311 0.24082 0.93271 0.0
C1086 C 0.67289 0.22619 0.93014 0.0
C1087 C 0.73708 0.24626 0.94059 0.0
C1088 C 0.73954 0.26445 0.95729 0.0
C1089 C 0.75617 0.24198 0.92502 0.0
C1090 C 0.75459 0.22335 0.90673 0.0
C1091 C 0.73626 0.2239 0.89 0.0
C1092 C 0.73471 0.2061 0.87299 0.0
C1093 C 0.75151 0.18776 0.87242 0.0
C1094 C 0.76994 0.18722 0.88883 0.0
C1095 C 0.77154 0.20496 0.9059 0.0
H1096 H 0.75029 0.174 0.85923 0.0
H1097 H 0.76756 0.34084 0.02969 0.0
H1098 H 0.33822 0.69237 0.9488 0.0
H1099 H 0.3136 0.72795 0.95247 0.0
H1100 H 0.25612 0.69227 0.9167 0.0
H1101 H 0.28107 0.65703 0.91185 0.0
H1102 H 0.25848 0.7351 0.90082 0.0
H1103 H 0.25615 0.70324 0.97752 0.0
H1104 H 0.27269 0.68674 0.01391 0.0
H1105 H 0.30942 0.7525 0.02713 0.0
H1106 H 0.29338 0.76931 0.99056 0.0
H1107 H 0.16974 0.8211 0.92999 0.0
H1108 H 0.19212 0.78356 0.93271 0.0
H1109 H 0.25601 0.82282 0.94921 0.0
H1110 H 0.23376 0.86037 0.94588 0.0
H1111 H 0.24896 0.77788 0.97605 0.0
H1112 H 0.25029 0.80842 0.89713 0.0
H1113 H 0.23102 0.82369 0.86151 0.0
H1114 H 0.19271 0.7579 0.85375 0.0
H1115 H 0.21134 0.74245 0.88969 0.0
C1116 C 0.32042 0.692 0.94153 0.0
C1117 C 0.31184 0.67149 0.93001 0.0
C1118 C 0.30615 0.71243 0.94392 0.0
C1119 C 0.2827 0.71296 0.93516 0.0
C1120 C 0.27405 0.69251 0.92373 0.0
C1121 C 0.28835 0.67213 0.92122 0.0
C1122 C 0.26744 0.73493 0.93741 0.0
C1123 C 0.2562 0.74415 0.9174 0.0
C1124 C 0.26444 0.74721 0.95891 0.0
C1125 C 0.27379 0.73743 0.98114 0.0
C1126 C 0.26788 0.71414 0.9881 0.0
C1127 C 0.27715 0.70474 0.00875 0.0
C1128 C 0.2922 0.71852 0.02273 0.0
C1129 C 0.29783 0.74183 0.01621 0.0
C1130 C 0.28864 0.75131 0.99552 0.0
C1131 C 0.18839 0.82164 0.93487 0.0
C1132 C 0.19992 0.84364 0.93808 0.0
C1133 C 0.20123 0.80019 0.93627 0.0
C1134 C 0.22583 0.80028 0.94114 0.0
C1135 C 0.23706 0.82221 0.94559 0.0
C1136 C 0.22433 0.84367 0.94375 0.0
C1137 C 0.2402 0.77784 0.93952 0.0
C1138 C 0.25127 0.76865 0.95958 0.0
C1139 C 0.24276 0.76534 0.91817 0.0
C1140 C 0.232 0.77438 0.89625 0.0
C1141 C 0.2376 0.79728 0.88795 0.0
C1142 C 0.2268 0.80597 0.8677 0.0
C1143 C 0.21059 0.7918 0.85541 0.0
C1144 C 0.20522 0.76888 0.86332 0.0
C1145 C 0.21589 0.76015 0.88364 0.0
H1146 H 0.20225 0.79855 0.83973 0.0
H1147 H 0.29948 0.71109 0.03862 0.0
H1148 H 0.69314 0.32237 0.60428 0.0
H1149 H 0.72894 0.29897 0.59752 0.0
H1150 H 0.7045 0.28195 0.52814 0.0
H1151 H 0.66788 0.30523 0.53516 0.0
H1152 H 0.72196 0.24237 0.54946 0.0
H1153 H 0.7517 0.32038 0.53653 0.0
H1154 H 0.75818 0.36309 0.5443 0.0
H1155 H 0.79412 0.34606 0.60829 0.0
H1156 H 0.78756 0.30325 0.60109 0.0
H1157 H 0.84537 0.19485 0.53406 0.0
H1158 H 0.80871 0.21804 0.52734 0.0
H1159 H 0.80325 0.23186 0.60104 0.0
H1160 H 0.8384 0.20783 0.60813 0.0
H1161 H 0.80204 0.27419 0.56901 0.0
H1162 H 0.76816 0.1964 0.58316 0.0
H1163 H 0.76103 0.15384 0.5754 0.0
H1164 H 0.73232 0.1709 0.50804 0.0
H1165 H 0.74005 0.2136 0.51507 0.0
C1166 C 0.69534 0.31379 0.58748 0.0
C1167 C 0.67746 0.31568 0.57031 0.0
C1168 C 0.71602 0.30047 0.58356 0.0
C1169 C 0.71977 0.28871 0.56222 0.0
C1170 C 0.70217 0.29083 0.54477 0.0
C1171 C 0.68131 0.30434 0.5487 0.0
C1172 C 0.74181 0.27381 0.55887 0.0
C1173 C 0.73953 0.24951 0.55317 0.0
C1174 C 0.76489 0.28284 0.56393 0.0
C1175 C 0.76901 0.30858 0.56831 0.0
C1176 C 0.76086 0.32574 0.55234 0.0
C1177 C 0.76456 0.34997 0.55663 0.0
C1178 C 0.77653 0.35728 0.57679 0.0
C1179 C 0.78486 0.34037 0.59268 0.0
C1180 C 0.78118 0.31611 0.58848 0.0
C1181 C 0.83619 0.20247 0.5489 0.0
C1182 C 0.84553 0.19977 0.57162 0.0
C1183 C 0.81525 0.21587 0.54499 0.0
C1184 C 0.80334 0.22702 0.56367 0.0
C1185 C 0.81224 0.22379 0.58629 0.0
C1186 C 0.83267 0.21012 0.59025 0.0
C1187 C 0.78207 0.24276 0.56015 0.0
C1188 C 0.78453 0.26722 0.56471 0.0
C1189 C 0.75928 0.23388 0.55391 0.0
C1190 C 0.75521 0.20818 0.54943 0.0
C1191 C 0.76082 0.19108 0.56647 0.0
C1192 C 0.7566 0.16692 0.56223 0.0
C1193 C 0.74644 0.15966 0.54113 0.0
C1194 C 0.74043 0.17655 0.52426 0.0
C1195 C 0.74478 0.20072 0.52834 0.0
H1196 H 0.74307 0.14096 0.53793 0.0
H1197 H 0.77937 0.37605 0.58008 0.0
H1198 H 0.16695 0.69403 0.56798 0.0
H1199 H 0.19042 0.73078 0.56462 0.0
H1200 H 0.25424 0.68908 0.55494 0.0
H1201 H 0.23087 0.65253 0.55946 0.0
H1202 H 0.26438 0.72062 0.58412 0.0
H1203 H 0.22496 0.72549 0.51027 0.0
H1204 H 0.19109 0.72638 0.48278 0.0
H1205 H 0.1635 0.78863 0.51679 0.0
H1206 H 0.19693 0.7879 0.54474 0.0
H1207 H 0.34025 0.81804 0.55362 0.0
H1208 H 0.31505 0.78276 0.55014 0.0
H1209 H 0.25544 0.82195 0.57769 0.0
H1210 H 0.28066 0.8571 0.58238 0.0
H1211 H 0.24336 0.7925 0.53841 0.0
H1212 H 0.283 0.786 0.61271 0.0
H1213 H 0.3179 0.78532 0.63886 0.0
H1214 H 0.34633 0.72545 0.60146 0.0
H1215 H 0.31174 0.72601 0.57485 0.0
C1216 C 0.18588 0.69278 0.56449 0.0
C1217 C 0.19698 0.67036 0.56364 0.0
C1218 C 0.1994 0.71386 0.56258 0.0
C1219 C 0.22434 0.71305 0.55932 0.0
C1220 C 0.23517 0.6905 0.55754 0.0
C1221 C 0.22174 0.66951 0.55986 0.0
C1222 C 0.2394 0.73538 0.55945 0.0
C1223 C 0.25986 0.73609 0.57371 0.0
C1224 C 0.23355 0.75612 0.54645 0.0
C1225 C 0.21335 0.7565 0.52974 0.0
C1226 C 0.21157 0.73926 0.512 0.0
C1227 C 0.19248 0.73976 0.49632 0.0
C1228 C 0.17517 0.75753 0.49805 0.0
C1229 C 0.17691 0.77486 0.51548 0.0
C1230 C 0.19593 0.77442 0.53124 0.0
C1231 C 0.32188 0.81932 0.55922 0.0
C1232 C 0.31284 0.8408 0.56852 0.0
C1233 C 0.30737 0.799 0.557 0.0
C1234 C 0.28327 0.79951 0.56374 0.0
C1235 C 0.2739 0.82103 0.57224 0.0
C1236 C 0.28847 0.84128 0.57478 0.0
C1237 C 0.26818 0.7774 0.56282 0.0
C1238 C 0.24779 0.77683 0.54857 0.0
C1239 C 0.27418 0.75667 0.57559 0.0
C1240 C 0.29491 0.75621 0.59164 0.0
C1241 C 0.29679 0.77282 0.60994 0.0
C1242 C 0.3165 0.77243 0.62486 0.0
C1243 C 0.33436 0.75539 0.62178 0.0
C1244 C 0.3325 0.73866 0.6038 0.0
C1245 C 0.31285 0.739 0.5888 0.0
H1246 H 0.3496 0.75511 0.63336 0.0
H1247 H 0.16043 0.75789 0.48588 0.0
H1248 H 0.96316 0.40723 0.27195 0.0
H1249 H 0.98996 0.43382 0.2501 0.0
H1250 H 0.99351 0.48099 0.30941 0.0
H1251 H 0.96656 0.45449 0.33104 0.0
H1252 H 0.98954 0.50728 0.27181 0.0
H1253 H 0.04059 0.44237 0.29237 0.0
H1254 H 0.05304 0.40035 0.29475 0.0
H1255 H 0.0537 0.39564 0.21996 0.0
H1256 H 0.04088 0.43756 0.21713 0.0
H1257 H 0.08744 0.5785 0.23197 0.0
H1258 H 0.06218 0.5507 0.25407 0.0
H1259 H 0.05732 0.50509 0.19371 0.0
H1260 H 0.08259 0.53291 0.17169 0.0
H1261 H 0.06205 0.47791 0.23162 0.0
H1262 H 0.01123 0.54292 0.21114 0.0
H1263 H 0.99909 0.58502 0.20879 0.0
H1264 H 0.99803 0.58954 0.28359 0.0
H1265 H 0.01061 0.54755 0.28639 0.0
C1266 C 0.96976 0.42323 0.28033 0.0
C1267 C 0.96253 0.42872 0.30324 0.0
C1268 C 0.98523 0.43849 0.26783 0.0
C1269 C 0.99421 0.45967 0.27792 0.0
C1270 C 0.987 0.46501 0.30092 0.0
C1271 C 0.97157 0.44976 0.31338 0.0
C1272 C 0.01085 0.47627 0.26464 0.0
C1273 C 1.00555 0.50078 0.26335 0.0
C1274 C 0.03168 0.46817 0.25291 0.0
C1275 C 0.03955 0.44304 0.25454 0.0
C1276 C 0.04323 0.43233 0.27643 0.0
C1277 C 0.05037 0.40853 0.27786 0.0
C1278 C 0.0541 0.39532 0.25752 0.0
C1279 C 0.05076 0.40589 0.2357 0.0
C1280 C 0.04357 0.42967 0.23417 0.0
C1281 C 0.08113 0.56244 0.22348 0.0
C1282 C 0.08736 0.55791 0.20008 0.0
C1283 C 0.06649 0.54653 0.23611 0.0
C1284 C 0.05738 0.52559 0.22572 0.0
C1285 C 0.06397 0.52089 0.20241 0.0
C1286 C 0.07854 0.53685 0.18977 0.0
C1287 C 0.04077 0.50889 0.23889 0.0
C1288 C 0.04605 0.48439 0.24012 0.0
C1289 C 0.01993 0.51698 0.25058 0.0
C1290 C 0.0121 0.54215 0.24897 0.0
C1291 C 1.00858 0.55294 0.22709 0.0
C1292 C 1.00161 0.57678 0.22568 0.0
C1293 C 0.99784 0.58996 0.24603 0.0
C1294 C 1.00099 0.57931 0.26784 0.0
C1295 C 1.00804 0.55549 0.26935 0.0
H1296 H 0.99244 0.60842 0.2449 0.0
H1297 H 0.05963 0.3769 0.25866 0.0
H1298 H 0.99439 0.09515 0.17139 0.0
H1299 H 0.02007 0.06932 0.19471 0.0
H1300 H 0.95993 0.05046 0.23789 0.0
H1301 H 0.93499 0.07838 0.21609 0.0
H1302 H 0.9925 0.0494 0.26489 0.0
H1303 H 0.98906 0.01303 0.18985 0.0
H1304 H 0.99246 0.01073 0.14697 0.0
H1305 H 0.06716 0.02686 0.15146 0.0
H1306 H 0.06416 0.02953 0.19435 0.0
H1307 H 0.07621 0.93444 0.27244 0.0
H1308 H 0.05057 0.96108 0.24964 0.0
H1309 H 0.06099 0.01635 0.30099 0.0
H1310 H 0.08443 0.98896 0.32473 0.0
H1311 H 0.05186 0.99732 0.22629 0.0
H1312 H 0.01884 0.05776 0.30234 0.0
H1313 H 0.00942 0.05443 0.34427 0.0
H1314 H 0.99692 0.97942 0.33621 0.0
H1315 H 1.00595 0.98236 0.29419 0.0
C1316 C 0.98673 0.0859 0.18618 0.0
C1317 C 0.96248 0.08919 0.19183 0.0
C1318 C 1.00142 0.07054 0.19935 0.0
C1319 C 0.99222 0.05694 0.21806 0.0
C1320 C 0.96796 0.0604 0.22375 0.0
C1321 C 0.95349 0.07637 0.21107 0.0
C1322 C 1.00765 0.0394 0.23176 0.0
C1323 C 1.00541 0.03808 0.25625 0.0
C1324 C 0.02436 0.02372 0.22103 0.0
C1325 C 0.02633 0.02171 0.19529 0.0
C1326 C 1.00619 0.01618 0.18168 0.0
C1327 C 1.00805 0.01481 0.15738 0.0
C1328 C 0.03 0.01874 0.14651 0.0
C1329 C 0.05017 0.02387 0.15991 0.0
C1330 C 0.04841 0.02529 0.18422 0.0
C1331 C 0.07289 0.95225 0.27892 0.0
C1332 C 0.08278 0.95945 0.30043 0.0
C1333 C 0.05824 0.96768 0.26573 0.0
C1334 C 0.05309 0.99104 0.2734 0.0
C1335 C 0.06366 0.99841 0.29461 0.0
C1336 C 0.07768 0.98277 0.30809 0.0
C1337 C 0.0368 1.00751 0.25941 0.0
C1338 C 0.0389 0.00863 0.23489 0.0
C1339 C 0.01908 0.02213 0.26997 0.0
C1340 C 0.01332 0.02026 0.29517 0.0
C1341 C 0.01398 0.04059 0.3095 0.0
C1342 C 1.00873 0.03876 0.33329 0.0
C1343 C 1.00266 0.01672 0.34291 0.0
C1344 C 1.00171 0.99647 0.32875 0.0
C1345 C 1.00691 0.9982 0.30495 0.0
H1346 H 0.99864 0.01534 0.36134 0.0
H1347 H 0.03139 0.01781 0.1277 0.0
H1348 H 0.53532 0.07215 0.33087 0.0
H1349 H 0.50792 0.04724 0.30807 0.0
H1350 H 0.55474 0.05258 0.24864 0.0
H1351 H 0.58181 0.07815 0.27138 0.0
H1352 H 0.51074 0.05514 0.23334 0.0
H1353 H 0.55019 1.00107 0.28506 0.0
H1354 H 0.56388 0.9858 0.32309 0.0
H1355 H 0.49131 0.97936 0.34609 0.0
H1356 H 0.47719 0.99494 0.3083 0.0
H1357 H 0.45948 0.95989 0.16731 0.0
H1358 H 0.48585 0.98583 0.19013 0.0
H1359 H 0.43835 0.98002 0.249 0.0
H1360 H 0.41226 0.95343 0.22618 0.0
H1361 H 0.48232 0.97791 0.26473 0.0
H1362 H 0.4429 0.03174 0.21278 0.0
H1363 H 0.42934 0.04695 0.17468 0.0
H1364 H 0.50201 0.05373 0.15204 0.0
H1365 H 0.516 0.03823 0.18991 0.0
C1366 C 0.53964 0.06826 0.31284 0.0
C1367 C 0.56071 0.07751 0.30293 0.0
C1368 C 0.52403 0.05369 0.29979 0.0
C1369 C 0.5291 0.04746 0.27644 0.0
C1370 C 0.5501 0.0569 0.26649 0.0
C1371 C 0.56569 0.07156 0.27954 0.0
C1372 C 0.51268 0.03113 0.26253 0.0
C1373 C 0.50486 0.03812 0.24018 0.0
C1374 C 0.50422 0.00897 0.27128 0.0
C1375 C 0.51264 0.99938 0.29393 0.0
C1376 C 0.53716 0.99654 0.29828 0.0
C1377 C 0.54499 0.98782 0.31979 0.0
C1378 C 0.52847 0.98166 0.33702 0.0
C1379 C 0.50408 0.98416 0.33274 0.0
C1380 C 0.49615 0.99292 0.31127 0.0
C1381 C 0.45469 0.96408 0.18515 0.0
C1382 C 0.43377 0.95433 0.19491 0.0
C1383 C 0.46974 0.97917 0.19824 0.0
C1384 C 0.46426 0.98544 0.22148 0.0
C1385 C 0.44328 0.97568 0.23123 0.0
C1386 C 0.42823 0.96049 0.21812 0.0
C1387 C 0.48039 1.00191 0.23554 0.0
C1388 C 0.48817 0.99495 0.2579 0.0
C1389 C 0.48883 0.02409 0.2268 0.0
C1390 C 0.48049 0.03362 0.20411 0.0
C1391 C 0.45598 0.03633 0.19962 0.0
C1392 C 0.44822 0.04502 0.17807 0.0
C1393 C 0.4648 0.05125 0.16093 0.0
C1394 C 0.48918 0.04887 0.16533 0.0
C1395 C 0.49704 0.04016 0.18684 0.0
H1396 H 0.45876 0.05797 0.14425 0.0
H1397 H 0.53458 0.97492 0.35366 0.0
H1398 H 0.57859 0.4392 0.23264 0.0
H1399 H 0.55168 0.46385 0.25633 0.0
H1400 H 0.51513 0.48624 0.19389 0.0
H1401 H 0.54262 0.46213 0.17027 0.0
H1402 H 0.51774 0.52288 0.22076 0.0
H1403 H 0.49261 0.44276 0.23495 0.0
H1404 H 0.49738 0.40067 0.24625 0.0
H1405 H 0.51972 0.42204 0.31482 0.0
H1406 H 0.51545 0.46428 0.30381 0.0
H1407 H 0.41512 0.57097 0.27926 0.0
H1408 H 0.44205 0.54656 0.25522 0.0
H1409 H 0.48186 0.52752 0.31678 0.0
H1410 H 0.45473 0.55166 0.34072 0.0
H1411 H 0.47723 0.48923 0.2902 0.0
H1412 H 0.50219 0.56965 0.27535 0.0
H1413 H 0.49692 0.61154 0.26359 0.0
H1414 H 0.47377 0.5891 0.19561 0.0
H1415 H 0.47858 0.54704 0.20707 0.0
C1416 C 0.56488 0.44951 0.224 0.0
C1417 C 0.56287 0.44878 0.19955 0.0
C1418 C 0.54927 0.46352 0.23759 0.0
C1419 C 0.53078 0.47689 0.2272 0.0
C1420 C 0.52902 0.47629 0.20264 0.0
C1421 C 0.54477 0.46243 0.18905 0.0
C1422 C 0.51335 0.4914 0.24176 0.0
C1423 C 0.50869 0.51528 0.23573 0.0
C1424 C 0.50156 0.48207 0.26175 0.0
C1425 C 0.50393 0.45669 0.26848 0.0
C1426 C 0.49869 0.43848 0.25239 0.0
C1427 C 0.50129 0.4146 0.25875 0.0
C1428 C 0.50889 0.40869 0.28122 0.0
C1429 C 0.51386 0.42665 0.29741 0.0
C1430 C 0.51134 0.45057 0.29113 0.0
C1431 C 0.42966 0.5616 0.28762 0.0
C1432 C 0.43293 0.56358 0.31189 0.0
C1433 C 0.4452 0.54767 0.27383 0.0
C1434 C 0.46451 0.53524 0.2839 0.0
C1435 C 0.46735 0.53683 0.30831 0.0
C1436 C 0.45186 0.55078 0.32205 0.0
C1437 C 0.48168 0.52065 0.26919 0.0
C1438 C 0.48628 0.49677 0.2752 0.0
C1439 C 0.4933 0.52993 0.24911 0.0
C1440 C 0.49052 0.55519 0.24215 0.0
C1441 C 0.49582 0.57364 0.25795 0.0
C1442 C 0.49293 0.59742 0.25133 0.0
C1443 C 0.48496 0.60298 0.22889 0.0
C1444 C 0.47991 0.58477 0.213 0.0
C1445 C 0.48273 0.56096 0.21954 0.0
H1446 H 0.48274 0.6214 0.2238 0.0
H1447 H 0.5109 0.39019 0.28611 0.0
H1448 H 0.12319 0.50266 0.6847 0.0
H1449 H 0.10583 0.48185 0.71819 0.0
H1450 H 0.03549 0.4921 0.68937 0.0
H1451 H 0.05281 0.51365 0.65637 0.0
H1452 H 0.03439 0.50378 0.7324 0.0
H1453 H 0.06584 0.43576 0.69188 0.0
H1454 H 0.09673 0.41154 0.67257 0.0
H1455 H 0.13752 0.4102 0.73597 0.0
H1456 H 0.10699 0.43468 0.75558 0.0
H1457 H 0.96762 0.4265 0.80313 0.0
H1458 H 0.98963 0.44313 0.77035 0.0
H1459 H 0.05443 0.44149 0.81075 0.0
H1460 H 0.03229 0.42512 0.84412 0.0
H1461 H 0.06049 0.42585 0.764 0.0
H1462 H 0.02731 0.49293 0.80447 0.0
H1463 H 0.99531 0.51608 0.82329 0.0
H1464 H 0.95663 0.51809 0.75866 0.0
H1465 H 0.98825 0.49463 0.73953 0.0
C1466 C 0.10407 0.50002 0.68532 0.0
C1467 C 0.08935 0.50972 0.6679 0.0
C1468 C 0.09412 0.48809 0.70449 0.0
C1469 C 0.06927 0.48517 0.70639 0.0
C1470 C 0.05468 0.49416 0.68849 0.0
C1471 C 0.06458 0.5064 0.66956 0.0
C1472 C 0.05827 0.47413 0.72757 0.0
C1473 C 0.03995 0.48657 0.73902 0.0
C1474 C 0.0659 0.45201 0.73687 0.0
C1475 C 0.08424 0.43726 0.72513 0.0
C1476 C 0.08148 0.43045 0.70165 0.0
C1477 C 0.09891 0.41665 0.69066 0.0
C1478 C 0.11911 0.40939 0.70301 0.0
C1479 C 0.12188 0.41586 0.72641 0.0
C1480 C 0.10451 0.42968 0.73748 0.0
C1481 C 0.9865 0.42991 0.80528 0.0
C1482 C 0.99804 0.42489 0.82654 0.0
C1483 C 0.99911 0.43928 0.78638 0.0
C1484 C 0.02362 0.44389 0.78816 0.0
C1485 C 0.03549 0.43814 0.80901 0.0
C1486 C 0.02281 0.42877 0.82806 0.0
C1487 C 0.03643 0.45533 0.76832 0.0
C1488 C 0.05507 0.44306 0.75727 0.0
C1489 C 0.02901 0.47754 0.75921 0.0
C1490 C 0.01007 0.49186 0.77062 0.0
C1491 C 0.0119 0.49816 0.79431 0.0
C1492 C 0.99384 0.51136 0.80503 0.0
C1493 C 0.97392 0.51851 0.79219 0.0
C1494 C 0.97206 0.51252 0.76859 0.0
C1495 C 0.99006 0.4993 0.75779 0.0
H1496 H 0.95995 0.52872 0.80053 0.0
H1497 H 0.13258 0.39871 0.69447 0.0
H1498 H 0.05439 0.98613 0.83462 0.0
H1499 H 0.03892 1.00708 0.80055 0.0
H1500 H 0.10651 0.04225 0.79143 0.0
H1501 H 0.12284 0.02027 0.82461 0.0
H1502 H 0.05326 0.0699 0.78876 0.0
H1503 H 0.10741 0.00922 0.75661 0.0
H1504 H 0.12243 0.96799 0.75495 0.0
H1505 H 0.05211 0.94266 0.73855 0.0
H1506 H 0.03663 0.98375 0.74054 0.0
H1507 H 0.02544 0.11793 0.67779 0.0
H1508 H 0.04781 0.101 0.7103 0.0
H1509 H 1.00849 0.0353 0.70338 0.0
H1510 H 0.98749 0.05136 0.66978 0.0
H1511 H 0.05041 0.02426 0.7146 0.0
H1512 H 0.99506 0.08124 0.74529 0.0
H1513 H 0.97593 0.12056 0.74923 0.0
H1514 H 0.04257 0.15117 0.77084 0.0
H1515 H 0.06218 0.11207 0.76669 0.0
C1516 C 0.06616 0.99815 0.82538 0.0
C1517 C 0.0901 1.00109 0.83239 0.0
C1518 C 0.05713 0.01032 0.80601 0.0
C1519 C 0.0716 0.0261 0.79343 0.0
C1520 C 0.09504 0.03015 0.80097 0.0
C1521 C 0.10428 0.01764 0.82011 0.0
C1522 C 0.06253 0.03713 0.77163 0.0
C1523 C 0.053 0.06018 0.77239 0.0
C1524 C 0.06148 0.02409 0.75056 0.0
C1525 C 0.07083 0.99949 0.74899 0.0
C1526 C 0.09512 0.99483 0.75289 0.0
C1527 C 0.10373 0.9715 0.75184 0.0
C1528 C 0.08822 0.95271 0.74672 0.0
C1529 C 0.0641 0.95723 0.74256 0.0
C1530 C 0.0554 0.98053 0.74363 0.0
C1531 C 0.02191 0.09968 0.68275 0.0
C1532 C 1.00429 0.08622 0.67118 0.0
C1533 C 0.0345 0.09011 0.70169 0.0
C1534 C 0.02945 0.06703 0.70989 0.0
C1535 C 0.01266 0.05322 0.69769 0.0
C1536 C 1.00039 0.06259 0.67854 0.0
C1537 C 0.04106 0.05736 0.73141 0.0
C1538 C 0.05091 0.03435 0.73075 0.0
C1539 C 0.04193 0.07033 0.75271 0.0
C1540 C 0.03014 0.0938 0.75543 0.0
C1541 C 1.00567 0.09639 0.75073 0.0
C1542 C 0.99474 0.11863 0.75302 0.0
C1543 C 1.00805 0.13837 0.76021 0.0
C1544 C 0.0323 0.13588 0.76522 0.0
C1545 C 0.04333 0.11368 0.76292 0.0
H1546 H 0.99955 0.15557 0.76196 0.0
H1547 H 0.09491 0.93466 0.74591 0.0
H1548 H 0.54103 0.10507 0.79643 0.0
H1549 H 0.51652 0.08766 0.76547 0.0
H1550 H 0.46384 0.067 0.81639 0.0
H1551 H 0.48837 0.08463 0.84757 0.0
H1552 H 0.47803 0.02981 0.78563 0.0
H1553 H 0.4511 0.11092 0.78092 0.0
H1554 H 0.45695 0.15434 0.77797 0.0
H1555 H 0.49186 0.14536 0.71187 0.0
H1556 H 0.48654 0.10183 0.71458 0.0
H1557 H 0.39678 0.98413 0.70385 0.0
H1558 H 0.41396 1.00815 0.73534 0.0
H1559 H 0.46017 0.04296 0.68569 0.0
H1560 H 0.442 0.01962 0.65398 0.0
H1561 H 0.44779 0.07408 0.71685 0.0
H1562 H 0.47884 0.99508 0.72131 0.0
H1563 H 0.47731 0.95126 0.72349 0.0
H1564 H 0.43977 0.95556 0.78866 0.0
H1565 H 0.44076 0.99945 0.78669 0.0
C1566 C 0.52414 0.09696 0.80102 0.0
C1567 C 0.51665 0.09615 0.82444 0.0
C1568 C 0.5101 0.08712 0.78329 0.0
C1569 C 0.48829 0.07609 0.78857 0.0
C1570 C 0.48058 0.07547 0.81191 0.0
C1571 C 0.49452 0.08565 0.82968 0.0
C1572 C 0.47422 0.06428 0.76977 0.0
C1573 C 0.47098 0.03954 0.77081 0.0
C1574 C 0.46586 0.07685 0.74998 0.0
C1575 C 0.46858 0.10308 0.74805 0.0
C1576 C 0.46015 0.11818 0.76581 0.0
C1577 C 0.46336 0.14282 0.76418 0.0
C1578 C 0.47482 0.1526 0.74478 0.0
C1579 C 0.483 0.13776 0.72691 0.0
C1580 C 0.47986 0.1131 0.72847 0.0
C1581 C 0.41035 0.99721 0.69969 0.0
C1582 C 0.41813 1.00007 0.67658 0.0
C1583 C 0.42032 0.0108 0.71769 0.0
C1584 C 0.43887 0.02703 0.71311 0.0
C1585 C 0.446 0.03054 0.6898 0.0
C1586 C 0.43565 0.01722 0.67167 0.0
C1587 C 0.45143 0.03948 0.73269 0.0
C1588 C 0.45456 0.06432 0.73175 0.0
C1589 C 0.46018 0.02693 0.75241 0.0
C1590 C 0.45965 1.00055 0.75372 0.0
C1591 C 0.47011 0.98668 0.73602 0.0
C1592 C 0.46936 0.96183 0.73723 0.0
C1593 C 0.45839 0.95063 0.75617 0.0
C1594 C 0.44822 0.96427 0.77398 0.0
C1595 C 0.44888 0.98913 0.77283 0.0
H1596 H 0.45783 0.93139 0.75708 0.0
H1597 H 0.47733 0.17167 0.74357 0.0
H1598 H 0.54734 0.43222 0.69489 0.0
H1599 H 0.52374 0.44822 0.72668 0.0
H1600 H 0.45918 0.43235 0.68884 0.0
H1601 H 0.48291 0.4176 0.65596 0.0
H1602 H 0.45465 0.47384 0.7093 0.0
H1603 H 0.47868 0.39749 0.73573 0.0
H1604 H 0.50647 0.36452 0.74373 0.0
H1605 H 0.54517 0.4087 0.79182 0.0
H1606 H 0.51784 0.44209 0.78383 0.0
H1607 H 0.38736 0.49908 0.81296 0.0
H1608 H 0.40475 0.47569 0.78096 0.0
H1609 H 0.47523 0.49659 0.80303 0.0
H1610 H 0.45799 0.51994 0.83492 0.0
H1611 H 0.47223 0.44835 0.79038 0.0
H1612 H 0.44936 0.52565 0.75969 0.0
H1613 H 0.42049 0.55769 0.75168 0.0
H1614 H 0.37749 0.50916 0.71179 0.0
H1615 H 0.40598 0.47672 0.71985 0.0
C1616 C 0.52815 0.43247 0.69295 0.0
C1617 C 0.51716 0.42369 0.67256 0.0
C1618 C 0.51459 0.4413 0.71147 0.0
C1619 C 0.48958 0.44108 0.71051 0.0
C1620 C 0.47844 0.43257 0.69014 0.0
C1621 C 0.49206 0.42393 0.67139 0.0
C1622 C 0.47535 0.45007 0.73073 0.0
C1623 C 0.45819 0.46787 0.72696 0.0
C1624 C 0.47996 0.4425 0.75392 0.0
C1625 C 0.49628 0.42236 0.75905 0.0
C1626 C 0.4932 0.40023 0.74791 0.0
C1627 C 0.50887 0.38146 0.75245 0.0
C1628 C 0.5276 0.38453 0.76824 0.0
C1629 C 0.53065 0.40636 0.77958 0.0
C1630 C 0.51506 0.4252 0.77508 0.0
C1631 C 0.40657 0.49832 0.8112 0.0
C1632 C 0.42131 0.51142 0.82639 0.0
C1633 C 0.41648 0.48509 0.79283 0.0
C1634 C 0.4413 0.48456 0.78945 0.0
C1635 C 0.45605 0.49676 0.80525 0.0
C1636 C 0.44617 0.51018 0.82341 0.0
C1637 C 0.45202 0.47235 0.76889 0.0
C1638 C 0.46851 0.45398 0.77265 0.0
C1639 C 0.44657 0.47915 0.74571 0.0
C1640 C 0.42965 0.49871 0.74058 0.0
C1641 C 0.43366 0.52177 0.74935 0.0
C1642 C 0.41738 0.54001 0.74478 0.0
C1643 C 0.39713 0.53545 0.73129 0.0
C1644 C 0.39317 0.51265 0.72227 0.0
C1645 C 0.40938 0.49434 0.72682 0.0
H1646 H 0.38453 0.54958 0.72779 0.0
H1647 H 0.53972 0.36998 0.77171 0.0
H1648 H 0.21615 0.67129 0.195 0.0
H1649 H 0.23501 0.70611 0.21293 0.0
H1650 H 0.17981 0.70734 0.26549 0.0
H1651 H 0.16139 0.67247 0.24791 0.0
H1652 H 0.21714 0.74636 0.21141 0.0
H1653 H 0.19341 0.73756 0.31351 0.0
H1654 H 0.20484 0.71161 0.3462 0.0
H1655 H 0.26051 0.6808 0.30468 0.0
H1656 H 0.25016 0.70721 0.27197 0.0
H1657 H 0.15606 0.84434 0.24922 0.0
H1658 H 0.17532 0.80771 0.23599 0.0
H1659 H 0.22206 0.81058 0.29567 0.0
H1660 H 0.20417 0.84744 0.3079 0.0
H1661 H 0.2098 0.77082 0.29417 0.0
H1662 H 0.24573 0.81319 0.23677 0.0
H1663 H 0.25428 0.84238 0.20578 0.0
H1664 H 0.20187 0.80948 0.16175 0.0
H1665 H 0.19333 0.77971 0.19246 0.0
C1666 C 0.20867 0.67845 0.21095 0.0
C1667 C 0.18713 0.66949 0.21993 0.0
C1668 C 0.2194 0.69841 0.22112 0.0
C1669 C 0.2088 0.70953 0.24048 0.0
C1670 C 0.1886 0.69903 0.25076 0.0
C1671 C 0.17788 0.6792 0.24058 0.0
C1672 C 0.21528 0.73422 0.24717 0.0
C1673 C 0.2161 0.75166 0.22958 0.0
C1674 C 0.21569 0.74141 0.27082 0.0
C1675 C 0.22079 0.72432 0.29005 0.0
C1676 C 0.20814 0.72532 0.31126 0.0
C1677 C 0.21451 0.71057 0.32988 0.0
C1678 C 0.23339 0.69457 0.32751 0.0
C1679 C 0.24587 0.69319 0.30648 0.0
C1680 C 0.23973 0.70804 0.28786 0.0
C1681 C 0.17139 0.83766 0.25866 0.0
C1682 C 0.1791 0.84886 0.27917 0.0
C1683 C 0.18243 0.81677 0.25116 0.0
C1684 C 0.20108 0.80669 0.26428 0.0
C1685 C 0.20894 0.81841 0.28445 0.0
C1686 C 0.19847 0.83954 0.29155 0.0
C1687 C 0.21013 0.78263 0.25842 0.0
C1688 C 0.21185 0.76547 0.27612 0.0
C1689 C 0.21473 0.77594 0.23513 0.0
C1690 C 0.21904 0.79408 0.21677 0.0
C1691 C 0.23599 0.8122 0.22048 0.0
C1692 C 0.24095 0.82874 0.20293 0.0
C1693 C 0.22877 0.82762 0.18171 0.0
C1694 C 0.21155 0.81001 0.17805 0.0
C1695 C 0.20678 0.79319 0.19543 0.0
H1696 H 0.23258 0.84046 0.16814 0.0
H1697 H 0.23837 0.68324 0.34199 0.0
H1698 H 0.85884 0.21322 0.23141 0.0
H1699 H 0.82335 0.23442 0.24522 0.0
H1700 H 0.779 0.18879 0.20282 0.0
H1701 H 0.81407 0.1693 0.18742 0.0
H1702 H 0.75979 0.23221 0.20701 0.0
H1703 H 0.78268 0.16596 0.26799 0.0
H1704 H 0.81499 0.14798 0.29133 0.0
H1705 H 0.84022 0.21764 0.31011 0.0
H1706 H 0.80834 0.2359 0.28665 0.0
H1707 H 0.67346 0.15648 0.25413 0.0
H1708 H 0.70712 0.17827 0.23738 0.0
H1709 H 0.70432 0.22868 0.29423 0.0
H1710 H 0.67057 0.20687 0.31105 0.0
H1711 H 0.74794 0.20473 0.28834 0.0
H1712 H 0.68956 0.24339 0.24201 0.0
H1713 H 0.65513 0.24494 0.21559 0.0
H1714 H 0.69656 0.21283 0.16109 0.0
H1715 H 0.73084 0.20956 0.18748 0.0
C1716 C 0.84153 0.20804 0.22476 0.0
C1717 C 0.83912 0.18883 0.20917 0.0
C1718 C 0.8213 0.22008 0.23275 0.0
C1719 C 0.79855 0.2126 0.22568 0.0
C1720 C 0.79638 0.19474 0.20872 0.0
C1721 C 0.81644 0.18315 0.20039 0.0
C1722 C 0.77679 0.21978 0.23827 0.0
C1723 C 0.75699 0.22681 0.22496 0.0
C1724 C 0.77354 0.21286 0.26176 0.0
C1725 C 0.79305 0.20227 0.27572 0.0
C1726 C 0.79513 0.17739 0.27715 0.0
C1727 C 0.8134 0.16715 0.29034 0.0
C1728 C 0.82962 0.18166 0.30224 0.0
C1729 C 0.82761 0.20642 0.30095 0.0
C1730 C 0.80939 0.21672 0.28775 0.0
C1731 C 0.67961 0.17262 0.26259 0.0
C1732 C 0.66949 0.18018 0.28367 0.0
C1733 C 0.69871 0.18506 0.25305 0.0
C1734 C 0.70792 0.20516 0.26451 0.0
C1735 C 0.69716 0.21337 0.28506 0.0
C1736 C 0.67787 0.20104 0.2945 0.0
C1737 C 0.73061 0.21542 0.2565 0.0
C1738 C 0.75048 0.21164 0.27083 0.0
C1739 C 0.73367 0.22363 0.23335 0.0
C1740 C 0.71304 0.22617 0.21701 0.0
C1741 C 0.69132 0.23612 0.2246 0.0
C1742 C 0.67172 0.23727 0.20957 0.0
C1743 C 0.67365 0.22899 0.18668 0.0
C1744 C 0.69511 0.21932 0.17882 0.0
C1745 C 0.71465 0.21776 0.19388 0.0
H1746 H 0.65852 0.23011 0.17501 0.0
H1747 H 0.84377 0.1737 0.31244 0.0
H1748 H 0.3599 0.6826 0.27064 0.0
H1749 H 0.34588 0.72246 0.26082 0.0
H1750 H 0.2934 0.71861 0.31572 0.0
H1751 H 0.30705 0.67813 0.32524 0.0
H1752 H 0.29871 0.73939 0.25075 0.0
H1753 H 0.30881 0.78742 0.33949 0.0
H1754 H 0.32705 0.78204 0.37823 0.0
H1755 H 0.37766 0.73299 0.34915 0.0
H1756 H 0.36023 0.73865 0.31019 0.0
H1757 H 0.30361 0.85683 0.2144 0.0
H1758 H 0.28794 0.82611 0.24047 0.0
H1759 H 0.35792 0.81783 0.27085 0.0
H1760 H 0.37299 0.8496 0.24638 0.0
H1761 H 0.32916 0.80469 0.3008 0.0
H1762 H 0.33439 0.79248 0.21665 0.0
H1763 H 0.32431 0.79192 0.17478 0.0
H1764 H 0.25522 0.76323 0.19053 0.0
H1765 H 0.26457 0.76459 0.23259 0.0
C1766 C 0.34481 0.68994 0.27999 0.0
C1767 C 0.33463 0.67767 0.29873 0.0
C1768 C 0.33699 0.71269 0.27462 0.0
C1769 C 0.31921 0.72351 0.28818 0.0
C1770 C 0.30757 0.71058 0.30562 0.0
C1771 C 0.31513 0.68751 0.31074 0.0
C1772 C 0.31387 0.7486 0.2838 0.0
C1773 C 0.30475 0.75391 0.26184 0.0
C1774 C 0.32212 0.7671 0.29849 0.0
C1775 C 0.33249 0.76277 0.32197 0.0
C1776 C 0.32369 0.77534 0.34138 0.0
C1777 C 0.33408 0.77244 0.36337 0.0
C1778 C 0.35344 0.75709 0.36619 0.0
C1779 C 0.36254 0.74474 0.34698 0.0
C1780 C 0.3523 0.74771 0.32493 0.0
C1781 C 0.31531 0.84921 0.22743 0.0
C1782 C 0.33971 0.85494 0.22791 0.0
C1783 C 0.30639 0.83148 0.24215 0.0
C1784 C 0.32196 0.81895 0.25689 0.0
C1785 C 0.34555 0.82692 0.2594 0.0
C1786 C 0.35428 0.84493 0.24519 0.0
C1787 C 0.3155 0.79548 0.26678 0.0
C1788 C 0.32219 0.79048 0.28991 0.0
C1789 C 0.30615 0.77688 0.25273 0.0
C1790 C 0.29979 0.77942 0.2278 0.0
C1791 C 0.31676 0.78684 0.21127 0.0
C1792 C 0.31124 0.78623 0.18751 0.0
C1793 C 0.28911 0.77756 0.18017 0.0
C1794 C 0.27224 0.77008 0.19639 0.0
C1795 C 0.27753 0.77102 0.22012 0.0
H1796 H 0.28507 0.7762 0.16192 0.0
H1797 H 0.3614 0.75477 0.38324 0.0
H1798 H 0.68597 0.33906 0.19566 0.0
H1799 H 0.72765 0.32848 0.19851 0.0
H1800 H 0.74135 0.39065 0.24036 0.0
H1801 H 0.69947 0.40221 0.23674 0.0
H1802 H 0.76638 0.34373 0.18575 0.0
H1803 H 0.78487 0.38209 0.27811 0.0
H1804 H 0.76346 0.38974 0.31499 0.0
H1805 H 0.71243 0.3354 0.29785 0.0
H1806 H 0.73365 0.32728 0.26102 0.0
H1807 H 0.88017 0.3697 0.23861 0.0
H1808 H 0.84654 0.36292 0.21252 0.0
H1809 H 0.8301 0.29784 0.24895 0.0
H1810 H 0.86374 0.30453 0.27504 0.0
H1811 H 0.80633 0.34257 0.26275 0.0
H1812 H 0.82447 0.29413 0.19753 0.0
H1813 H 0.84518 0.28122 0.16183 0.0
H1814 H 0.82008 0.3432 0.12573 0.0
H1815 H 0.80031 0.35727 0.16153 0.0
C1816 C 0.69758 0.34999 0.20634 0.0
C1817 C 0.6894 0.3712 0.21645 0.0
C1818 C 0.72147 0.34392 0.20779 0.0
C1819 C 0.73743 0.35806 0.22035 0.0
C1820 C 0.72921 0.37901 0.23107 0.0
C1821 C 0.7053 0.38549 0.22923 0.0
C1822 C 0.76248 0.35034 0.22263 0.0
C1823 C 0.77513 0.34322 0.20258 0.0
C1824 C 0.77367 0.34938 0.24463 0.0
C1825 C 0.7607 0.35428 0.2667 0.0
C1826 C 0.76907 0.37181 0.28222 0.0
C1827 C 0.75696 0.37621 0.30311 0.0
C1828 C 0.73654 0.36313 0.30871 0.0
C1829 C 0.72816 0.34561 0.29343 0.0
C1830 C 0.74018 0.34114 0.27252 0.0
C1831 C 0.87039 0.3531 0.23994 0.0
C1832 C 0.87383 0.33801 0.25917 0.0
C1833 C 0.85127 0.34913 0.2249 0.0
C1834 C 0.83554 0.33029 0.22936 0.0
C1835 C 0.84208 0.31256 0.24539 0.0
C1836 C 0.86126 0.31645 0.26038 0.0
C1837 C 0.81 0.33496 0.22601 0.0
C1838 C 0.79748 0.34248 0.24589 0.0
C1839 C 0.79879 0.33516 0.204 0.0
C1840 C 0.81115 0.32698 0.18248 0.0
C1841 C 0.82372 0.3053 0.18217 0.0
C1842 C 0.83521 0.2977 0.16184 0.0
C1843 C 0.83388 0.31133 0.14152 0.0
C1844 C 0.82113 0.33266 0.1415 0.0
C1845 C 0.80986 0.34052 0.16186 0.0
H1846 H 0.84278 0.30539 0.12581 0.0
H1847 H 0.72725 0.36652 0.32492 0.0
H1848 H 0.95642 0.16823 0.70187 0.0
H1849 H 0.95365 0.19692 0.7343 0.0
H1850 H 0.90773 0.24137 0.69245 0.0
H1851 H 0.91004 0.21243 0.66052 0.0
H1852 H 0.96712 0.2415 0.73827 0.0
H1853 H 0.86847 0.27105 0.72592 0.0
H1854 H 0.83032 0.25371 0.71281 0.0
H1855 H 0.85499 0.18385 0.73117 0.0
H1856 H 0.89311 0.2008 0.74475 0.0
H1857 H 0.95111 0.34843 0.80135 0.0
H1858 H 0.94998 0.31906 0.76948 0.0
H1859 H 0.90254 0.27501 0.81023 0.0
H1860 H 0.90311 0.30476 0.84154 0.0
H1861 H 0.88966 0.27244 0.76702 0.0
H1862 H 0.96359 0.26505 0.80767 0.0
H1863 H 1.00159 0.27921 0.8243 0.0
H1864 H 0.02631 0.29801 0.75582 0.0
H1865 H 0.98826 0.28432 0.73882 0.0
C1866 C 0.94553 0.18401 0.69988 0.0
C1867 C 0.93325 0.18818 0.67899 0.0
C1868 C 0.94406 0.20045 0.71826 0.0
C1869 C 0.93027 0.22124 0.71595 0.0
C1870 C 0.91808 0.2253 0.6949 0.0
C1871 C 0.91943 0.20884 0.67666 0.0
C1872 C 0.92891 0.23899 0.73526 0.0
C1873 C 0.95017 0.24822 0.74456 0.0
C1874 C 0.90682 0.24752 0.74387 0.0
C1875 C 0.88374 0.2372 0.73615 0.0
C1876 C 0.86571 0.25201 0.72728 0.0
C1877 C 0.84409 0.24224 0.71975 0.0
C1878 C 0.84026 0.21769 0.72109 0.0
C1879 C 0.858 0.20286 0.73007 0.0
C1880 C 0.87962 0.21253 0.73767 0.0
C1881 C 0.94012 0.33267 0.80314 0.0
C1882 C 0.92716 0.32871 0.82367 0.0
C1883 C 0.93962 0.31581 0.7851 0.0
C1884 C 0.92651 0.29454 0.78759 0.0
C1885 C 0.91279 0.29118 0.80783 0.0
C1886 C 0.9131 0.30813 0.8257 0.0
C1887 C 0.92786 0.2753 0.76969 0.0
C1888 C 0.90661 0.26575 0.76069 0.0
C1889 C 0.94994 0.26597 0.76188 0.0
C1890 C 0.97299 0.27385 0.772 0.0
C1891 C 0.97708 0.27232 0.79617 0.0
C1892 C 0.99862 0.28026 0.80567 0.0
C1893 C 0.01634 0.28954 0.79113 0.0
C1894 C 0.01256 0.29084 0.76706 0.0
C1895 C 0.99101 0.28298 0.75748 0.0
H1896 H 0.03301 0.29569 0.79851 0.0
H1897 H 0.82353 0.21017 0.71522 0.0
H1898 H 0.2889 0.9015 0.65019 0.0
H1899 H 0.25965 0.89893 0.68202 0.0
H1900 H 0.31459 0.9165 0.73177 0.0
H1901 H 0.34369 0.92006 0.69981 0.0
H1902 H 0.27744 0.87508 0.74243 0.0
H1903 H 0.28701 0.95909 0.72073 0.0
H1904 H 0.28795 0.99078 0.69099 0.0
H1905 H 0.21631 0.97343 0.67067 0.0
H1906 H 0.21515 0.94129 0.70002 0.0
H1907 H 0.21666 0.90974 0.84408 0.0
H1908 H 0.24296 0.90412 0.81066 0.0
H1909 H 0.1855 0.9235 0.76424 0.0
H1910 H 0.15967 0.93093 0.79815 0.0
H1911 H 0.22208 0.94361 0.74913 0.0
H1912 H 0.20866 0.86351 0.77165 0.0
H1913 H 0.2061 0.82821 0.7971 0.0
H1914 H 0.28093 0.83349 0.81193 0.0
H1915 H 0.28391 0.86905 0.78688 0.0
C1916 C 0.2947 0.90459 0.66797 0.0
C1917 C 0.3184 0.91123 0.67262 0.0
C1918 C 0.27806 0.90306 0.68608 0.0
C1919 C 0.285 0.90759 0.70918 0.0
C1920 C 0.30896 0.91287 0.71403 0.0
C1921 C 0.32551 0.91491 0.69585 0.0
C1922 C 0.26688 0.90871 0.72797 0.0
C1923 C 0.26545 0.89011 0.74417 0.0
C1924 C 0.25065 0.92785 0.72947 0.0
C1925 C 0.25109 0.94764 0.71238 0.0
C1926 C 0.27153 0.96191 0.7098 0.0
C1927 C 0.2721 0.97997 0.69304 0.0
C1928 C 0.25222 0.98408 0.67891 0.0
C1929 C 0.23171 0.9702 0.6816 0.0
C1930 C 0.23108 0.95207 0.6983 0.0
C1931 C 0.20972 0.91287 0.82671 0.0
C1932 C 0.18632 0.92117 0.82363 0.0
C1933 C 0.22466 0.90932 0.80754 0.0
C1934 C 0.21625 0.91296 0.7847 0.0
C1935 C 0.19253 0.92058 0.7816 0.0
C1936 C 0.17772 0.92472 0.80091 0.0
C1937 C 0.23265 0.91005 0.76432 0.0
C1938 C 0.23382 0.92835 0.7476 0.0
C1939 C 0.24826 0.89026 0.76207 0.0
C1940 C 0.24647 0.86906 0.77747 0.0
C1941 C 0.22454 0.85728 0.78049 0.0
C1942 C 0.22302 0.8372 0.79483 0.0
C1943 C 0.24335 0.82862 0.8061 0.0
C1944 C 0.26521 0.84016 0.80316 0.0
C1945 C 0.26683 0.86026 0.78888 0.0
H1946 H 0.24219 0.81297 0.81703 0.0
H1947 H 0.2527 0.99804 0.66591 0.0
H1948 H 0.61707 0.22352 0.85144 0.0
H1949 H 0.61773 0.2531 0.82 0.0
H1950 H 0.59188 0.19999 0.77168 0.0
H1951 H 0.59035 0.17069 0.80345 0.0
H1952 H 0.63838 0.25941 0.77976 0.0
H1953 H 0.55325 0.22504 0.73363 0.0
H1954 H 0.51717 0.2018 0.74317 0.0
H1955 H 0.52196 0.22434 0.81465 0.0
H1956 H 0.55781 0.248 0.80546 0.0
H1957 H 0.62438 0.31379 0.66915 0.0
H1958 H 0.62807 0.28654 0.70227 0.0
H1959 H 0.56607 0.31844 0.73411 0.0
H1960 H 0.56211 0.34537 0.70046 0.0
H1961 H 0.56286 0.27187 0.73638 0.0
H1962 H 0.62318 0.32861 0.75519 0.0
H1963 H 0.65843 0.35386 0.7481 0.0
H1964 H 0.70113 0.2916 0.73633 0.0
H1965 H 0.66604 0.26597 0.74298 0.0
C1966 C 0.61185 0.2182 0.83399 0.0
C1967 C 0.60341 0.19506 0.82976 0.0
C1968 C 0.61225 0.23504 0.81605 0.0
C1969 C 0.60437 0.22894 0.79355 0.0
C1970 C 0.59751 0.20527 0.789 0.0
C1971 C 0.59683 0.18851 0.80704 0.0
C1972 C 0.60209 0.24767 0.77532 0.0
C1973 C 0.62189 0.26208 0.77024 0.0
C1974 C 0.58038 0.25164 0.76329 0.0
C1975 C 0.55835 0.23811 0.76887 0.0
C1976 C 0.5465 0.22516 0.75134 0.0
C1977 C 0.52611 0.21189 0.7567 0.0
C1978 C 0.51731 0.21155 0.77951 0.0
C1979 C 0.52881 0.22458 0.79699 0.0
C1980 C 0.54917 0.23792 0.79172 0.0
C1981 C 0.61186 0.3152 0.68348 0.0
C1982 C 0.59323 0.33182 0.68264 0.0
C1983 C 0.61394 0.29966 0.70237 0.0
C1984 C 0.59753 0.30059 0.72088 0.0
C1985 C 0.57898 0.31742 0.72009 0.0
C1986 C 0.57682 0.3329 0.70105 0.0
C1987 C 0.59928 0.28336 0.74053 0.0
C1988 C 0.57936 0.26922 0.74589 0.0
C1989 C 0.62071 0.28003 0.7532 0.0
C1990 C 0.64192 0.29537 0.74941 0.0
C1991 C 0.64005 0.32031 0.75094 0.0
C1992 C 0.66001 0.33469 0.74701 0.0
C1993 C 0.682 0.32434 0.74172 0.0
C1994 C 0.68408 0.29959 0.74041 0.0
C1995 C 0.66417 0.28512 0.74428 0.0
H1996 H 0.69743 0.33551 0.73869 0.0
H1997 H 0.50157 0.2012 0.78362 0.0
H1998 H 0.29343 0.61672 0.84558 0.0
H1999 H 0.2643 0.61764 0.81364 0.0
H2000 H 0.31579 0.58481 0.76784 0.0
H2001 H 0.34468 0.58339 0.80006 0.0
H2002 H 0.26028 0.63589 0.77118 0.0
H2003 H 0.28782 0.54419 0.7337 0.0
H2004 H 0.30756 0.50744 0.74719 0.0
H2005 H 0.28417 0.52125 0.81726 0.0
H2006 H 0.26397 0.55782 0.80413 0.0
H2007 H 0.20443 0.61673 0.66172 0.0
H2008 H 0.23232 0.62096 0.69438 0.0
H2009 H 0.19594 0.56439 0.73094 0.0
H2010 H 0.16843 0.5598 0.69776 0.0
H2011 H 0.24181 0.558 0.73435 0.0
H2012 H 0.19019 0.62412 0.74692 0.0
H2013 H 0.168 0.66045 0.73648 0.0
H2014 H 0.23377 0.69672 0.72197 0.0
H2015 H 0.25636 0.66048 0.73196 0.0
C2016 C 0.29856 0.61014 0.82852 0.0
C2017 C 0.32111 0.59988 0.82515 0.0
C2018 C 0.28197 0.61066 0.81031 0.0
C2019 C 0.28767 0.60092 0.78842 0.0
C2020 C 0.31082 0.59205 0.78468 0.0
C2021 C 0.32737 0.59139 0.80296 0.0
C2022 C 0.26893 0.59857 0.77013 0.0
C2023 C 0.2563 0.61889 0.76305 0.0
C2024 C 0.26318 0.57626 0.75999 0.0
C2025 C 0.27457 0.55385 0.76793 0.0
C2026 C 0.28676 0.53929 0.75195 0.0
C2027 C 0.29804 0.5185 0.75954 0.0
C2028 C 0.29717 0.51205 0.78307 0.0
C2029 C 0.28488 0.52629 0.79905 0.0
C2030 C 0.27351 0.54704 0.79153 0.0
C2031 C 0.20228 0.60548 0.67693 0.0
C2032 C 0.18422 0.58818 0.67754 0.0
C2033 C 0.21816 0.60789 0.69558 0.0
C2034 C 0.2161 0.59322 0.71535 0.0
C2035 C 0.19788 0.57597 0.71595 0.0
C2036 C 0.18208 0.57344 0.69716 0.0
C2037 C 0.23344 0.59544 0.73498 0.0
C2038 C 0.24579 0.57505 0.74238 0.0
C2039 C 0.23847 0.61759 0.74583 0.0
C2040 C 0.22496 0.63951 0.74001 0.0
C2041 C 0.19992 0.63979 0.74135 0.0
C2042 C 0.18727 0.66038 0.73553 0.0
C2043 C 0.19947 0.68087 0.72852 0.0
C2044 C 0.22435 0.68083 0.72738 0.0
C2045 C 0.23709 0.66027 0.73314 0.0
H2046 H 0.18964 0.69678 0.72402 0.0
H2047 H 0.30598 0.49599 0.78892 0.0
H2048 H 0.10303 0.56081 0.03784 0.0
H2049 H 0.07977 0.53591 0.01072 0.0
H2050 H 0.01763 0.54459 0.05416 0.0
H2051 H 0.04064 0.56921 0.08107 0.0
H2052 H 0.023 0.4992 0.0444 0.0
H2053 H 0.02376 0.57139 0.99904 0.0
H2054 H 0.04235 0.60515 0.97838 0.0
H2055 H 0.07952 0.55657 0.93339 0.0
H2056 H 0.06137 0.5225 0.95399 0.0
H2057 H 0.9347 0.44545 0.9737 0.0
H2058 H 0.95807 0.47527 0.99511 0.0
H2059 H 0.01739 0.46371 0.9486 0.0
H2060 H 0.99365 0.43442 0.92674 0.0
H2061 H 0.01497 0.50994 0.9589 0.0
H2062 H 0.01458 0.43802 0.00324 0.0
H2063 H 0.99658 0.40368 0.02343 0.0
H2064 H 0.96021 0.45093 0.07038 0.0
H2065 H 0.97768 0.4856 0.0502 0.0
C2066 C 0.08428 0.55782 0.04131 0.0
C2067 C 0.07383 0.56695 0.06179 0.0
C2068 C 0.07095 0.54348 0.0258 0.0
C2069 C 0.04679 0.5381 0.0303 0.0
C2070 C 0.0362 0.54809 0.05025 0.0
C2071 C 0.04944 0.56229 0.06567 0.0
C2072 C 0.03264 0.52126 0.01515 0.0
C2073 C 0.02104 0.50183 0.02575 0.0
C2074 C 0.0305 0.52396 0.99062 0.0
C2075 C 0.04141 0.5444 0.97822 0.0
C2076 C 0.03605 0.56791 0.98487 0.0
C2077 C 0.04648 0.5871 0.97314 0.0
C2078 C 0.06216 0.583 0.95463 0.0
C2079 C 0.0674 0.55971 0.94776 0.0
C2080 C 0.05703 0.54046 0.95944 0.0
C2081 C 0.95247 0.44978 0.96764 0.0
C2082 C 0.96212 0.43797 0.94818 0.0
C2083 C 0.96602 0.46661 0.98012 0.0
C2084 C 0.98977 0.47174 0.97376 0.0
C2085 C 0.99919 0.46028 0.95395 0.0
C2086 C 0.98561 0.44351 0.94145 0.0
C2087 C 1.00501 0.4882 0.98827 0.0
C2088 C 0.01692 0.50739 0.97756 0.0
C2089 C 1.0076 0.48523 0.01272 0.0
C2090 C 0.99727 0.46442 0.02507 0.0
C2091 C 1.00262 0.4411 0.01777 0.0
C2092 C 0.99252 0.42157 0.02922 0.0
C2093 C 0.97722 0.42512 0.04815 0.0
C2094 C 0.97204 0.44821 0.0557 0.0
C2095 C 0.98204 0.46781 0.04426 0.0
H2096 H 0.96943 0.40998 0.057 0.0
H2097 H 0.07021 0.59788 0.94557 0.0
H2098 H 0.06308 0.97294 0.92512 0.0
H2099 H 0.0338 0.99613 0.94744 0.0
H2100 H 0.07261 0.98134 0.01081 0.0
H2101 H 0.10074 0.95686 0.98864 0.0
H2102 H 0.02962 0.98198 0.02207 0.0
H2103 H 0.07599 0.03699 0.97703 0.0
H2104 H 0.09349 0.05401 0.94124 0.0
H2105 H 0.02341 0.06632 0.91364 0.0
H2106 H 1.0055 0.04907 0.94915 0.0
H2107 H 0.99003 0.08074 0.09016 0.0
H2108 H 0.01364 0.0537 0.066 0.0
H2109 H 0.96177 0.05941 0.01084 0.0
H2110 H 0.93796 0.08667 0.03501 0.0
H2111 H 1.00895 0.06304 0.99448 0.0
H2112 H 0.96377 0.01042 0.04369 0.0
H2113 H 0.94882 0.99508 0.08124 0.0
H2114 H 0.02045 0.98018 0.10315 0.0
H2115 H 0.0359 0.99596 0.06594 0.0
C2116 C 0.06513 0.97446 0.94385 0.0
C2117 C 0.08461 0.96363 0.95501 0.0
C2118 C 0.04853 0.98799 0.95665 0.0
C2119 C 0.0512 0.99142 0.98093 0.0
C2120 C 0.07004 0.97944 0.99217 0.0
C2121 C 0.08632 0.96556 0.97943 0.0
C2122 C 0.03483 1.00764 0.99459 0.0
C2123 C 0.0254 0.99978 0.01604 0.0
C2124 C 0.02871 0.03092 0.98689 0.0
C2125 C 0.03941 0.04151 0.96563 0.0
C2126 C 0.06432 0.04321 0.96327 0.0
C2127 C 0.07431 0.0529 0.94304 0.0
C2128 C 0.05957 0.06118 0.92515 0.0
C2129 C 0.0348 0.05986 0.92749 0.0
C2130 C 0.02472 0.05014 0.94767 0.0
C2131 C 0.98363 0.07642 0.07283 0.0
C2132 C 0.96201 0.08608 0.0646 0.0
C2133 C 0.99713 0.06074 0.05905 0.0
C2134 C 0.98954 0.05426 0.03653 0.0
C2135 C 0.96809 0.06403 0.02812 0.0
C2136 C 0.95438 0.07954 0.04205 0.0
C2137 C 1.00408 0.03739 0.0219 0.0
C2138 C 0.01315 0.04517 1.00035 0.0
C2139 C 0.01029 0.01426 0.02974 0.0
C2140 C 1.00101 1.00459 0.05208 0.0
C2141 C 0.97636 1.00408 0.05659 0.0
C2142 C 0.9678 0.99531 0.07783 0.0
C2143 C 0.98369 0.98676 0.09461 0.0
C2144 C 1.00817 0.98689 0.09016 0.0
C2145 C 0.01684 0.99576 0.069 0.0
H2146 H 0.97702 0.97997 0.11104 0.0
H2147 H 0.06734 0.06867 0.9095 0.0
H2148 H 0.40727 0.95841 0.03298 0.0
H2149 H 0.43107 0.98272 0.00578 0.0
H2150 H 0.49439 0.96728 0.04561 0.0
H2151 H 0.4709 0.94311 0.07247 0.0
H2152 H 0.48991 0.01436 0.03905 0.0
H2153 H 0.48526 0.94402 0.99082 0.0
H2154 H 0.46463 0.91211 0.96916 0.0
H2155 H 0.42932 0.96429 0.92678 0.0
H2156 H 0.44952 0.99654 0.94841 0.0
H2157 H 0.58023 0.06611 0.97013 0.0
H2158 H 0.55539 0.03668 0.99042 0.0
H2159 H 0.49668 0.05304 0.94456 0.0
H2160 H 0.52185 0.08196 0.92385 0.0
H2161 H 0.49673 1.00649 0.95312 0.0
H2162 H 0.50065 0.0766 0.99985 0.0
H2163 H 0.52002 0.1095 0.02116 0.0
H2164 H 0.55432 0.0593 0.06654 0.0
H2165 H 0.53548 0.02605 0.04522 0.0
C2166 C 0.42635 0.95973 0.03554 0.0
C2167 C 0.43711 0.94892 0.05503 0.0
C2168 C 0.43997 0.97375 0.02004 0.0
C2169 C 0.46463 0.97711 0.02368 0.0
C2170 C 0.47545 0.96529 0.04247 0.0
C2171 C 0.46195 0.95137 0.05781 0.0
C2172 C 0.47913 0.99391 0.00904 0.0
C2173 C 0.49161 0.01239 0.02029 0.0
C2174 C 0.48082 0.99205 0.98442 0.0
C2175 C 0.4687 0.97269 0.97141 0.0
C2176 C 0.47294 0.9487 0.97702 0.0
C2177 C 0.46136 0.93055 0.96472 0.0
C2178 C 0.44562 0.93617 0.94665 0.0
C2179 C 0.44148 0.95996 0.9408 0.0
C2180 C 0.45301 0.97818 0.95306 0.0
C2181 C 0.5622 0.063 0.96408 0.0
C2182 C 0.55308 0.07608 0.94521 0.0
C2183 C 0.54788 0.04635 0.97584 0.0
C2184 C 0.52391 0.04272 0.96932 0.0
C2185 C 0.51503 0.05536 0.95001 0.0
C2186 C 0.5294 0.07192 0.93819 0.0
C2187 C 0.50791 0.0266 0.98324 0.0
C2188 C 0.49506 0.00842 0.97188 0.0
C2189 C 0.50561 0.02886 0.00779 0.0
C2190 C 0.51683 0.04881 0.02078 0.0
C2191 C 0.51246 0.07256 0.01427 0.0
C2192 C 0.52333 0.09128 0.02636 0.0
C2193 C 0.53843 0.08649 0.04517 0.0
C2194 C 0.54264 0.06298 0.05195 0.0
C2195 C 0.53187 0.04419 0.03987 0.0
H2196 H 0.54682 0.10101 0.05452 0.0
H2197 H 0.43667 0.9221 0.93715 0.0
H2198 H 0.43018 0.5184 0.92374 0.0
H2199 H 0.45925 0.49366 0.94464 0.0
H2200 H 0.47265 0.5515 0.99246 0.0
H2201 H 0.44359 0.57622 0.97145 0.0
H2202 H 0.51395 0.52959 0.98111 0.0
H2203 H 0.43636 0.50451 0.00669 0.0
H2204 H 0.39525 0.48996 0.00122 0.0
H2205 H 0.42183 0.42604 0.96938 0.0
H2206 H 0.46312 0.44043 0.97426 0.0
H2207 H 0.56213 0.46975 0.07866 0.0
H2208 H 0.5389 0.49229 0.05037 0.0
H2209 H 0.53029 0.42905 0.00846 0.0
H2210 H 0.5535 0.40612 0.0373 0.0
H2211 H 0.48811 0.45181 0.01344 0.0
H2212 H 0.56607 0.47584 0.99031 0.0
H2213 H 0.60708 0.49079 0.99547 0.0
H2214 H 0.57997 0.55668 0.02266 0.0
H2215 H 0.53878 0.542 0.01798 0.0
C2216 C 0.43957 0.52587 0.93857 0.0
C2217 C 0.43485 0.54934 0.94577 0.0
C2218 C 0.45609 0.51168 0.95061 0.0
C2219 C 0.46814 0.52051 0.97037 0.0
C2220 C 0.46375 0.54419 0.97728 0.0
C2221 C 0.44718 0.55837 0.96523 0.0
C2222 C 0.48473 0.50495 0.98422 0.0
C2223 C 0.5082 0.51269 0.98835 0.0
C2224 C 0.47761 0.4825 0.99323 0.0
C2225 C 0.45282 0.47365 0.99062 0.0
C2226 C 0.43344 0.48742 0.99837 0.0
C2227 C 0.4101 0.4792 0.99539 0.0
C2228 C 0.40593 0.45711 0.98491 0.0
C2229 C 0.42509 0.44317 0.97745 0.0
C2230 C 0.44847 0.45134 0.98032 0.0
C2231 C 0.55556 0.46063 0.06328 0.0
C2232 C 0.5597 0.43607 0.06031 0.0
C2233 C 0.54231 0.47363 0.04698 0.0
C2234 C 0.53282 0.46258 0.02702 0.0
C2235 C 0.53738 0.4381 0.02365 0.0
C2236 C 0.55085 0.42502 0.04002 0.0
C2237 C 0.51732 0.47654 0.01055 0.0
C2238 C 0.494 0.46856 0.00599 0.0
C2239 C 0.52457 0.49879 0.00115 0.0
C2240 C 0.54932 0.50773 0.00395 0.0
C2241 C 0.56884 0.49345 0.99755 0.0
C2242 C 0.59213 0.50189 1.00037 0.0
C2243 C 0.59613 0.52465 0.00943 0.0
C2244 C 0.57684 0.53904 0.01566 0.0
C2245 C 0.55352 0.53068 0.0129 0.0
H2246 H 0.61417 0.53115 0.01159 0.0
H2247 H 0.38785 0.45078 0.98262 0.0
H2248 H 0.10267 0.95231 0.46648 0.0
H2249 H 0.07934 0.97629 0.4944 0.0
H2250 H 0.01936 0.97485 0.44744 0.0
H2251 H 0.0421 0.95068 0.42006 0.0
H2252 H 0.02985 0.02034 0.4611 0.0
H2253 H 0.0179 0.9441 0.49746 0.0
H2254 H 0.03029 0.90637 0.51574 0.0
H2255 H 0.06652 0.94513 0.5698 0.0
H2256 H 0.05462 0.98313 0.55163 0.0
H2257 H 0.93752 0.07271 0.52768 0.0
H2258 H 0.96104 0.04303 0.50615 0.0
H2259 H 0.01655 0.04784 0.558 0.0
H2260 H 0.99294 0.07751 0.5795 0.0
H2261 H 0.01047 1.00129 0.54343 0.0
H2262 H 0.02221 0.07719 0.50827 0.0
H2263 H 0.01031 0.11533 0.49055 0.0
H2264 H 0.97605 0.07789 0.43441 0.0
H2265 H 0.98737 0.03947 0.45205 0.0
C2266 C 0.08434 0.95664 0.46238 0.0
C2267 C 0.07448 0.94975 0.44079 0.0
C2268 C 0.07101 0.9705 0.47831 0.0
C2269 C 0.04755 0.97775 0.47299 0.0
C2270 C 0.03744 0.96989 0.45195 0.0
C2271 C 0.05056 0.95599 0.43625 0.0
C2272 C 0.03369 0.99439 0.48847 0.0
C2273 C 0.02542 0.01597 0.47902 0.0
C2274 C 0.02837 0.98924 0.51213 0.0
C2275 C 0.03563 0.96645 0.52302 0.0
C2276 C 0.02872 0.94458 0.51311 0.0
C2277 C 0.03561 0.92315 0.52348 0.0
C2278 C 0.04926 0.92335 0.54387 0.0
C2279 C 0.056 0.945 0.55397 0.0
C2280 C 0.04917 0.96649 0.54365 0.0
C2281 C 0.95447 0.06698 0.53474 0.0
C2282 C 0.96322 0.07711 0.55547 0.0
C2283 C 0.96805 0.05016 0.52233 0.0
C2284 C 0.99077 0.04316 0.53028 0.0
C2285 C 0.99912 0.05275 0.55146 0.0
C2286 C 0.98562 0.0697 0.56376 0.0
C2287 C 1.00628 0.02698 0.51587 0.0
C2288 C 0.01493 1.00562 0.52552 0.0
C2289 C 0.01215 0.03237 0.49239 0.0
C2290 C 1.00543 0.05543 0.48162 0.0
C2291 C 0.01197 0.07707 0.49225 0.0
C2292 C 1.00535 0.09875 0.48221 0.0
C2293 C 0.99238 0.09904 0.4614 0.0
C2294 C 0.98606 0.07764 0.45056 0.0
C2295 C 0.99257 0.0559 0.46057 0.0
H2296 H 0.98729 0.11584 0.45364 0.0
H2297 H 0.05456 0.90674 0.55189 0.0
H2298 H 0.56087 0.10028 0.46427 0.0
H2299 H 0.53535 0.07799 0.49159 0.0
H2300 H 0.54946 0.0133 0.45345 0.0
H2301 H 0.57469 0.03537 0.42635 0.0
H2302 H 0.50307 0.01795 0.45963 0.0
H2303 H 0.57214 0.02444 0.50941 0.0
H2304 H 0.60371 0.04577 0.53091 0.0
H2305 H 0.55074 0.08375 0.57013 0.0
H2306 H 0.51883 0.06286 0.54864 0.0
H2307 H 0.44785 0.93228 0.532 0.0
H2308 H 0.47783 0.9556 0.51077 0.0
H2309 H 0.46203 0.01668 0.55375 0.0
H2310 H 0.43263 0.993 0.57549 0.0
H2311 H 0.50838 0.01575 0.54596 0.0
H2312 H 0.43952 0.00998 0.49744 0.0
H2313 H 0.40707 0.9898 0.47616 0.0
H2314 H 0.45839 0.95249 0.43429 0.0
H2315 H 0.49118 0.97216 0.4556 0.0
C2316 C 0.55899 0.08122 0.4621 0.0
C2317 C 0.5698 0.06969 0.44301 0.0
C2318 C 0.54427 0.06844 0.47769 0.0
C2319 C 0.54021 0.04382 0.47464 0.0
C2320 C 0.55195 0.03223 0.4562 0.0
C2321 C 0.56652 0.04491 0.44071 0.0
C2322 C 0.52283 0.03016 0.48956 0.0
C2323 C 0.50451 0.01725 0.4785 0.0
C2324 C 0.52395 0.02975 0.51429 0.0
C2325 C 0.5431 0.04228 0.52724 0.0
C2326 C 0.56722 0.03748 0.52248 0.0
C2327 C 0.58518 0.04946 0.5347 0.0
C2328 C 0.57924 0.06615 0.55183 0.0
C2329 C 0.55532 0.07085 0.55683 0.0
C2330 C 0.53729 0.05893 0.54465 0.0
C2331 C 0.45115 0.95053 0.5372 0.0
C2332 C 0.43811 0.96069 0.55563 0.0
C2333 C 0.46812 0.964 0.52488 0.0
C2334 C 0.47215 0.98818 0.53031 0.0
C2335 C 0.45944 0.99816 0.5491 0.0
C2336 C 0.44258 0.98462 0.56151 0.0
C2337 C 0.48894 1.00316 0.51596 0.0
C2338 C 0.507 0.01641 0.5271 0.0
C2339 C 0.48749 1.00412 0.49125 0.0
C2340 C 0.46782 0.99238 0.47827 0.0
C2341 C 0.4439 0.99735 0.4838 0.0
C2342 C 0.42544 0.98601 0.47172 0.0
C2343 C 0.43067 0.96983 0.45391 0.0
C2344 C 0.45437 0.965 0.44811 0.0
C2345 C 0.4729 0.97625 0.46018 0.0
H2346 H 0.41635 0.96108 0.44457 0.0
H2347 H 0.59317 0.07541 0.56127 0.0
H2348 H 0.52274 0.42539 0.57812 0.0
H2349 H 0.49601 0.45359 0.55847 0.0
H2350 H 0.55095 0.46863 0.50791 0.0
H2351 H 0.57736 0.43992 0.5272 0.0
H2352 H 0.49559 0.50001 0.54881 0.0
H2353 H 0.52566 0.4781 0.45463 0.0
H2354 H 0.54337 0.44467 0.43269 0.0
H2355 H 0.51413 0.39504 0.48198 0.0
H2356 H 0.49593 0.42811 0.50396 0.0
H2357 H 0.44352 0.58344 0.4672 0.0
H2358 H 0.46917 0.55892 0.49234 0.0
H2359 H 0.43521 0.49546 0.46578 0.0
H2360 H 0.41026 0.51988 0.44034 0.0
H2361 H 0.47985 0.48837 0.46443 0.0
H2362 H 0.42771 0.51786 0.52406 0.0
H2363 H 0.40672 0.54834 0.54725 0.0
H2364 H 0.47379 0.57794 0.56891 0.0
H2365 H 0.49519 0.54781 0.5456 0.0
C2366 C 0.52916 0.43497 0.56296 0.0
C2367 C 0.5523 0.43076 0.55447 0.0
C2368 C 0.51389 0.45116 0.55175 0.0
C2369 C 0.52125 0.46332 0.53153 0.0
C2370 C 0.54463 0.45945 0.52332 0.0
C2371 C 0.55988 0.44322 0.53453 0.0
C2372 C 0.50413 0.47905 0.51847 0.0
C2373 C 0.49225 0.49752 0.53033 0.0
C2374 C 0.49919 0.47568 0.49442 0.0
C2375 C 0.50967 0.45562 0.48106 0.0
C2376 C 0.52293 0.46004 0.46071 0.0
C2377 C 0.53305 0.44116 0.44827 0.0
C2378 C 0.52994 0.41775 0.45597 0.0
C2379 C 0.51659 0.41317 0.47606 0.0
C2380 C 0.50637 0.43198 0.48852 0.0
C2381 C 0.44112 0.5643 0.46727 0.0
C2382 C 0.42468 0.55364 0.45193 0.0
C2383 C 0.45588 0.55021 0.48159 0.0
C2384 C 0.45433 0.52511 0.48112 0.0
C2385 C 0.4371 0.51465 0.4665 0.0
C2386 C 0.4226 0.52866 0.45208 0.0
C2387 C 0.47133 0.50958 0.49466 0.0
C2388 C 0.48324 0.49108 0.48287 0.0
C2389 C 0.47584 0.51262 0.51886 0.0
C2390 C 0.46304 0.53073 0.53289 0.0
C2391 C 0.43798 0.53099 0.53362 0.0
C2392 C 0.42601 0.54817 0.54682 0.0
C2393 C 0.43891 0.5651 0.5595 0.0
C2394 C 0.46382 0.56484 0.55905 0.0
C2395 C 0.47587 0.5477 0.54587 0.0
H2396 H 0.42962 0.57839 0.5697 0.0
H2397 H 0.53784 0.40317 0.44635 0.0
H2398 H 0.94014 0.46551 0.42823 0.0
H2399 H 0.96498 0.48881 0.45481 0.0
H2400 H 0.98845 0.42426 0.48824 0.0
H2401 H 0.96325 0.40071 0.46148 0.0
H2402 H 0.98321 0.46193 0.52033 0.0
H2403 H 0.02256 0.44936 0.4471 0.0
H2404 H 0.02583 0.44957 0.4042 0.0
H2405 H 0.01595 0.52538 0.40352 0.0
H2406 H 0.0122 0.52556 0.44642 0.0
H2407 H 0.0872 0.51553 0.57102 0.0
H2408 H 0.0586 0.49023 0.55017 0.0
H2409 H 0.03962 0.54958 0.50624 0.0
H2410 H 0.0692 0.57443 0.5263 0.0
H2411 H 0.04276 0.51282 0.48017 0.0
H2412 H 1.00259 0.52584 0.55301 0.0
H2413 H 0.99855 0.52603 0.59587 0.0
H2414 H 0.00935 0.45037 0.5975 0.0
H2415 H 0.01379 0.44977 0.55466 0.0
C2416 C 0.95016 0.45624 0.44158 0.0
C2417 C 0.94967 0.43117 0.44264 0.0
C2418 C 0.96454 0.46962 0.45673 0.0
C2419 C 0.97914 0.45841 0.47334 0.0
C2420 C 0.97751 0.43344 0.47556 0.0
C2421 C 0.96296 0.41995 0.46033 0.0
C2422 C 0.99711 0.47276 0.48701 0.0
C2423 C 0.99644 0.4728 0.51155 0.0
C2424 C 0.01422 0.48744 0.47574 0.0
C2425 C 0.01689 0.48744 0.44997 0.0
C2426 C 0.02093 0.46606 0.4378 0.0
C2427 C 0.02288 0.46611 0.41348 0.0
C2428 C 0.02105 0.48747 0.40113 0.0
C2429 C 0.01734 0.50884 0.4131 0.0
C2430 C 0.01531 0.50888 0.43742 0.0
C2431 C 0.07668 0.52324 0.55708 0.0
C2432 C 0.07994 0.54727 0.5509 0.0
C2433 C 0.06017 0.50876 0.54518 0.0
C2434 C 0.04625 0.51791 0.52679 0.0
C2435 C 0.04976 0.54193 0.52045 0.0
C2436 C 0.06645 0.55634 0.53222 0.0
C2437 C 0.02875 0.50238 0.51363 0.0
C2438 C 0.02956 0.50203 0.48908 0.0
C2439 C 0.01174 0.48754 0.52494 0.0
C2440 C 1.00875 0.4878 0.55065 0.0
C2441 C 1.00424 0.50926 0.56252 0.0
C2442 C 1.00187 0.50944 0.58681 0.0
C2443 C 1.00376 0.48824 0.5994 0.0
C2444 C 1.00793 0.46679 0.58772 0.0
C2445 C 0.01035 0.46651 0.56344 0.0
H2446 H 1.00195 0.48842 0.61821 0.0
H2447 H 0.02255 0.48747 0.3823 0.0
loop_
_geom_bond_atom_site_label_1
_geom_bond_atom_site_label_2
_geom_bond_distance
_geom_bond_site_symmetry_2
_ccdc_geom_bond_type
C0 C1 1.443 . S
C0 N4 1.376 . S
C0 C38 1.389 . S
C1 C0 1.443 . S
C1 C2 1.340 . S
C1 H41 0.951 . S
C2 C1 1.340 . S
C2 C3 1.439 . S
C2 H42 0.950 . S
C3 C2 1.439 . S
C3 N4 1.374 . S
C3 C37 1.395 . S
N4 C0 1.376 . S
N4 C3 1.374 . S
N4 Co5 2.008 . S
Co5 N4 2.008 . S
Co5 N6 1.995 . S
Co5 N11 2.008 . S
Co5 N16 1.995 . S
Co5 N21 2.282 . S
Co5 N27 2.282 . S
N6 Co5 1.995 . S
N6 C7 1.376 . S
N6 C10 1.383 . S
C7 N6 1.376 . S
C7 C8 1.446 . S
C7 C37 1.391 . S
C8 C7 1.446 . S
C8 C9 1.339 . S
C8 H43 0.949 . S
C9 C8 1.339 . S
C9 C10 1.439 . S
C9 H44 0.950 . S
C10 N6 1.383 . S
C10 C9 1.439 . S
C10 C39 1.392 . S
N11 Co5 2.008 . S
N11 C12 1.376 . S
N11 C15 1.374 . S
C12 N11 1.376 . S
C12 C13 1.443 . S
C12 C39 1.389 . S
C13 C12 1.443 . S
C13 C14 1.340 . S
C13 H45 0.951 . S
C14 C13 1.340 . S
C14 C15 1.439 . S
C14 H46 0.950 . S
C15 N11 1.374 . S
C15 C14 1.439 . S
C15 C40 1.395 . S
N16 Co5 1.995 . S
N16 C17 1.376 . S
N16 C20 1.383 . S
C17 N16 1.376 . S
C17 C18 1.446 . S
C17 C40 1.391 . S
C18 C17 1.446 . S
C18 C19 1.339 . S
C18 H47 0.949 . S
C19 C18 1.339 . S
C19 C20 1.439 . S
C19 H48 0.950 . S
C20 N16 1.383 . S
C20 C19 1.439 . S
C20 C38 1.392 . S
N21 Co5 2.282 . S
N21 C24 1.332 . S
N21 C26 1.332 . S
C22 C23 1.386 . S
C22 C25 1.388 . S
C23 C22 1.386 . S
C23 C24 1.382 . S
C23 H49 0.950 . S
C24 N21 1.332 . S
C24 C23 1.382 . S
C24 H35 0.952 . S
C25 C22 1.388 . S
C25 C26 1.382 . S
C25 H50 0.950 . S
C26 N21 1.332 . S
C26 C25 1.382 . S
C26 H36 0.948 . S
N27 Co5 2.282 . S
N27 C31 1.332 . S
N27 C32 1.332 . S
C28 C29 1.388 . S
C28 C32 1.382 . S
C28 H51 0.950 . S
C29 C28 1.388 . S
C29 C30 1.386 . S
C30 C29 1.386 . S
C30 C31 1.382 . S
C30 H52 0.950 . S
C31 N27 1.332 . S
C31 C30 1.382 . S
C31 H33 0.952 . S
C32 N27 1.332 . S
C32 C28 1.382 . S
C32 H34 0.948 . S
H33 C31 0.952 . S
H34 C32 0.948 . S
H35 C24 0.952 . S
H36 C26 0.948 . S
C37 C3 1.395 . S
C37 C7 1.391 . S
C38 C0 1.389 . S
C38 C20 1.392 . S
C39 C10 1.392 . S
C39 C12 1.389 . S
C40 C15 1.395 . S
C40 C17 1.391 . S
H41 C1 0.951 . S
H42 C2 0.950 . S
H43 C8 0.949 . S
H44 C9 0.950 . S
H45 C13 0.951 . S
H46 C14 0.950 . S
H47 C18 0.949 . S
H48 C19 0.950 . S
H49 C23 0.950 . S
H50 C25 0.950 . S
H51 C28 0.950 . S
H52 C30 0.950 . S
C53 C54 1.443 . S
C53 N57 1.376 . S
C53 C91 1.389 . S
C54 C53 1.443 . S
C54 C55 1.340 . S
C54 H94 0.951 . S
C55 C54 1.340 . S
C55 C56 1.439 . S
C55 H95 0.950 . S
C56 C55 1.439 . S
C56 N57 1.374 . S
C56 C90 1.395 . S
N57 C53 1.376 . S
N57 C56 1.374 . S
N57 Co58 2.008 . S
Co58 N57 2.008 . S
Co58 N59 1.995 . S
Co58 N64 2.008 . S
Co58 N69 1.995 . S
Co58 N74 2.282 . S
Co58 N80 2.282 . S
N59 Co58 1.995 . S
N59 C60 1.376 . S
N59 C63 1.383 . S
C60 N59 1.376 . S
C60 C61 1.446 . S
C60 C90 1.391 . S
C61 C60 1.446 . S
C61 C62 1.339 . S
C61 H96 0.949 . S
C62 C61 1.339 . S
C62 C63 1.439 . S
C62 H97 0.950 . S
C63 N59 1.383 . S
C63 C62 1.439 . S
C63 C92 1.392 . S
N64 Co58 2.008 . S
N64 C65 1.376 . S
N64 C68 1.374 . S
C65 N64 1.376 . S
C65 C66 1.443 . S
C65 C92 1.389 . S
C66 C65 1.443 . S
C66 C67 1.340 . S
C66 H98 0.951 . S
C67 C66 1.340 . S
C67 C68 1.439 . S
C67 H99 0.950 . S
C68 N64 1.374 . S
C68 C67 1.439 . S
C68 C93 1.395 . S
N69 Co58 1.995 . S
N69 C70 1.376 . S
N69 C73 1.383 . S
C70 N69 1.376 . S
C70 C71 1.446 . S
C70 C93 1.391 . S
C71 C70 1.446 . S
C71 C72 1.339 . S
C71 H100 0.949 . S
C72 C71 1.339 . S
C72 C73 1.439 . S
C72 H101 0.950 . S
C73 N69 1.383 . S
C73 C72 1.439 . S
C73 C91 1.392 . S
N74 Co58 2.282 . S
N74 C77 1.332 . S
N74 C79 1.332 . S
C75 C76 1.386 . S
C75 C78 1.388 . S
C76 C75 1.386 . S
C76 C77 1.382 . S
C76 H102 0.950 . S
C77 N74 1.332 . S
C77 C76 1.382 . S
C77 H88 0.952 . S
C78 C75 1.388 . S
C78 C79 1.382 . S
C78 H103 0.950 . S
C79 N74 1.332 . S
C79 C78 1.382 . S
C79 H89 0.948 . S
N80 Co58 2.282 . S
N80 C84 1.332 . S
N80 C85 1.332 . S
C81 C82 1.388 . S
C81 C85 1.382 . S
C81 H104 0.950 . S
C82 C81 1.388 . S
C82 C83 1.386 . S
C83 C82 1.386 . S
C83 C84 1.382 . S
C83 H105 0.950 . S
C84 N80 1.332 . S
C84 C83 1.382 . S
C84 H86 0.952 . S
C85 N80 1.332 . S
C85 C81 1.382 . S
C85 H87 0.948 . S
H86 C84 0.952 . S
H87 C85 0.948 . S
H88 C77 0.952 . S
H89 C79 0.948 . S
C90 C56 1.395 . S
C90 C60 1.391 . S
C91 C53 1.389 . S
C91 C73 1.392 . S
C92 C63 1.392 . S
C92 C65 1.389 . S
C93 C68 1.395 . S
C93 C70 1.391 . S
H94 C54 0.951 . S
H95 C55 0.950 . S
H96 C61 0.949 . S
H97 C62 0.950 . S
H98 C66 0.951 . S
H99 C67 0.950 . S
H100 C71 0.949 . S
H101 C72 0.950 . S
H102 C76 0.950 . S
H103 C78 0.950 . S
H104 C81 0.950 . S
H105 C83 0.950 . S
C106 C107 1.443 . S
C106 N110 1.376 . S
C106 C144 1.389 . S
C107 C106 1.443 . S
C107 C108 1.340 . S
C107 H147 0.951 . S
C108 C107 1.340 . S
C108 C109 1.439 . S
C108 H148 0.950 . S
C109 C108 1.439 . S
C109 N110 1.374 . S
C109 C143 1.395 . S
N110 C106 1.376 . S
N110 C109 1.374 . S
N110 Co111 2.008 . S
Co111 N110 2.008 . S
Co111 N112 1.995 . S
Co111 N117 2.008 . S
Co111 N122 1.995 . S
Co111 N127 2.282 . S
Co111 N133 2.282 . S
N112 Co111 1.995 . S
N112 C113 1.376 . S
N112 C116 1.383 . S
C113 N112 1.376 . S
C113 C114 1.446 . S
C113 C143 1.391 . S
C114 C113 1.446 . S
C114 C115 1.339 . S
C114 H149 0.949 . S
C115 C114 1.339 . S
C115 C116 1.439 . S
C115 H150 0.950 . S
C116 N112 1.383 . S
C116 C115 1.439 . S
C116 C145 1.392 . S
N117 Co111 2.008 . S
N117 C118 1.376 . S
N117 C121 1.374 . S
C118 N117 1.376 . S
C118 C119 1.443 . S
C118 C145 1.389 . S
C119 C118 1.443 . S
C119 C120 1.340 . S
C119 H151 0.951 . S
C120 C119 1.340 . S
C120 C121 1.439 . S
C120 H152 0.950 . S
C121 N117 1.374 . S
C121 C120 1.439 . S
C121 C146 1.395 . S
N122 Co111 1.995 . S
N122 C123 1.376 . S
N122 C126 1.383 . S
C123 N122 1.376 . S
C123 C124 1.446 . S
C123 C146 1.391 . S
C124 C123 1.446 . S
C124 C125 1.339 . S
C124 H153 0.949 . S
C125 C124 1.339 . S
C125 C126 1.439 . S
C125 H154 0.950 . S
C126 N122 1.383 . S
C126 C125 1.439 . S
C126 C144 1.392 . S
N127 Co111 2.282 . S
N127 C130 1.332 . S
N127 C132 1.332 . S
C128 C129 1.386 . S
C128 C131 1.388 . S
C129 C128 1.386 . S
C129 C130 1.382 . S
C129 H155 0.950 . S
C130 N127 1.332 . S
C130 C129 1.382 . S
C130 H141 0.952 . S
C131 C128 1.388 . S
C131 C132 1.382 . S
C131 H156 0.950 . S
C132 N127 1.332 . S
C132 C131 1.382 . S
C132 H142 0.948 . S
N133 Co111 2.282 . S
N133 C137 1.332 . S
N133 C138 1.332 . S
C134 C135 1.388 . S
C134 C138 1.382 . S
C134 H157 0.950 . S
C135 C134 1.388 . S
C135 C136 1.386 . S
C136 C135 1.386 . S
C136 C137 1.382 . S
C136 H158 0.950 . S
C137 N133 1.332 . S
C137 C136 1.382 . S
C137 H139 0.952 . S
C138 N133 1.332 . S
C138 C134 1.382 . S
C138 H140 0.948 . S
H139 C137 0.952 . S
H140 C138 0.948 . S
H141 C130 0.952 . S
H142 C132 0.948 . S
C143 C109 1.395 . S
C143 C113 1.391 . S
C144 C106 1.389 . S
C144 C126 1.392 . S
C145 C116 1.392 . S
C145 C118 1.389 . S
C146 C121 1.395 . S
C146 C123 1.391 . S
H147 C107 0.951 . S
H148 C108 0.950 . S
H149 C114 0.949 . S
H150 C115 0.950 . S
H151 C119 0.951 . S
H152 C120 0.950 . S
H153 C124 0.949 . S
H154 C125 0.950 . S
H155 C129 0.950 . S
H156 C131 0.950 . S
H157 C134 0.950 . S
H158 C136 0.950 . S
C159 C160 1.443 . S
C159 N163 1.376 . S
C159 C197 1.389 . S
C160 C159 1.443 . S
C160 C161 1.340 . S
C160 H200 0.951 . S
C161 C160 1.340 . S
C161 C162 1.439 . S
C161 H201 0.950 . S
C162 C161 1.439 . S
C162 N163 1.374 . S
C162 C196 1.395 . S
N163 C159 1.376 . S
N163 C162 1.374 . S
N163 Co164 2.008 . S
Co164 N163 2.008 . S
Co164 N165 1.995 . S
Co164 N170 2.008 . S
Co164 N175 1.995 . S
Co164 N180 2.282 . S
Co164 N186 2.282 . S
N165 Co164 1.995 . S
N165 C166 1.376 . S
N165 C169 1.383 . S
C166 N165 1.376 . S
C166 C167 1.446 . S
C166 C196 1.391 . S
C167 C166 1.446 . S
C167 C168 1.339 . S
C167 H202 0.949 . S
C168 C167 1.339 . S
C168 C169 1.439 . S
C168 H203 0.950 . S
C169 N165 1.383 . S
C169 C168 1.439 . S
C169 C198 1.392 . S
N170 Co164 2.008 . S
N170 C171 1.376 . S
N170 C174 1.374 . S
C171 N170 1.376 . S
C171 C172 1.443 . S
C171 C198 1.389 . S
C172 C171 1.443 . S
C172 C173 1.340 . S
C172 H204 0.951 . S
C173 C172 1.340 . S
C173 C174 1.439 . S
C173 H205 0.950 . S
C174 N170 1.374 . S
C174 C173 1.439 . S
C174 C199 1.395 . S
N175 Co164 1.995 . S
N175 C176 1.376 . S
N175 C179 1.383 . S
C176 N175 1.376 . S
C176 C177 1.446 . S
C176 C199 1.391 . S
C177 C176 1.446 . S
C177 C178 1.339 . S
C177 H206 0.949 . S
C178 C177 1.339 . S
C178 C179 1.439 . S
C178 H207 0.950 . S
C179 N175 1.383 . S
C179 C178 1.439 . S
C179 C197 1.392 . S
N180 Co164 2.282 . S
N180 C183 1.332 . S
N180 C185 1.332 . S
C181 C182 1.386 . S
C181 C184 1.388 . S
C182 C181 1.386 . S
C182 C183 1.382 . S
C182 H208 0.950 . S
C183 N180 1.332 . S
C183 C182 1.382 . S
C183 H194 0.952 . S
C184 C181 1.388 . S
C184 C185 1.382 . S
C184 H209 0.950 . S
C185 N180 1.332 . S
C185 C184 1.382 . S
C185 H195 0.948 . S
N186 Co164 2.282 . S
N186 C190 1.332 . S
N186 C191 1.332 . S
C187 C188 1.388 . S
C187 C191 1.382 . S
C187 H210 0.950 . S
C188 C187 1.388 . S
C188 C189 1.386 . S
C189 C188 1.386 . S
C189 C190 1.382 . S
C189 H211 0.950 . S
C190 N186 1.332 . S
C190 C189 1.382 . S
C190 H192 0.952 . S
C191 N186 1.332 . S
C191 C187 1.382 . S
C191 H193 0.948 . S
H192 C190 0.952 . S
H193 C191 0.948 . S
H194 C183 0.952 . S
H195 C185 0.948 . S
C196 C162 1.395 . S
C196 C166 1.391 . S
C197 C159 1.389 . S
C197 C179 1.392 . S
C198 C169 1.392 . S
C198 C171 1.389 . S
C199 C174 1.395 . S
C199 C176 1.391 . S
H200 C160 0.951 . S
H201 C161 0.950 . S
H202 C167 0.949 . S
H203 C168 0.950 . S
H204 C172 0.951 . S
H205 C173 0.950 . S
H206 C177 0.949 . S
H207 C178 0.950 . S
H208 C182 0.950 . S
H209 C184 0.950 . S
H210 C187 0.950 . S
H211 C189 0.950 . S
C212 C213 1.443 . S
C212 N216 1.376 . S
C212 C250 1.389 . S
C213 C212 1.443 . S
C213 C214 1.340 . S
C213 H253 0.951 . S
C214 C213 1.340 . S
C214 C215 1.439 . S
C214 H254 0.950 . S
C215 C214 1.439 . S
C215 N216 1.374 . S
C215 C249 1.395 . S
N216 C212 1.376 . S
N216 C215 1.374 . S
N216 Co217 2.008 . S
Co217 N216 2.008 . S
Co217 N218 1.995 . S
Co217 N223 2.008 . S
Co217 N228 1.995 . S
Co217 N233 2.282 . S
Co217 N239 2.282 . S
N218 Co217 1.995 . S
N218 C219 1.376 . S
N218 C222 1.383 . S
C219 N218 1.376 . S
C219 C220 1.446 . S
C219 C249 1.391 . S
C220 C219 1.446 . S
C220 C221 1.339 . S
C220 H255 0.949 . S
C221 C220 1.339 . S
C221 C222 1.439 . S
C221 H256 0.950 . S
C222 N218 1.383 . S
C222 C221 1.439 . S
C222 C251 1.392 . S
N223 Co217 2.008 . S
N223 C224 1.376 . S
N223 C227 1.374 . S
C224 N223 1.376 . S
C224 C225 1.443 . S
C224 C251 1.389 . S
C225 C224 1.443 . S
C225 C226 1.340 . S
C225 H257 0.951 . S
C226 C225 1.340 . S
C226 C227 1.439 . S
C226 H258 0.950 . S
C227 N223 1.374 . S
C227 C226 1.439 . S
C227 C252 1.395 . S
N228 Co217 1.995 . S
N228 C229 1.376 . S
N228 C232 1.383 . S
C229 N228 1.376 . S
C229 C230 1.446 . S
C229 C252 1.391 . S
C230 C229 1.446 . S
C230 C231 1.339 . S
C230 H259 0.949 . S
C231 C230 1.339 . S
C231 C232 1.439 . S
C231 H260 0.950 . S
C232 N228 1.383 . S
C232 C231 1.439 . S
C232 C250 1.392 . S
N233 Co217 2.282 . S
N233 C236 1.332 . S
N233 C238 1.332 . S
C234 C235 1.386 . S
C234 C237 1.388 . S
C235 C234 1.386 . S
C235 C236 1.382 . S
C235 H261 0.950 . S
C236 N233 1.332 . S
C236 C235 1.382 . S
C236 H247 0.952 . S
C237 C234 1.388 . S
C237 C238 1.382 . S
C237 H262 0.950 . S
C238 N233 1.332 . S
C238 C237 1.382 . S
C238 H248 0.948 . S
N239 Co217 2.282 . S
N239 C243 1.332 . S
N239 C244 1.332 . S
C240 C241 1.388 . S
C240 C244 1.382 . S
C240 H263 0.950 . S
C241 C240 1.388 . S
C241 C242 1.386 . S
C242 C241 1.386 . S
C242 C243 1.382 . S
C242 H264 0.950 . S
C243 N239 1.332 . S
C243 C242 1.382 . S
C243 H245 0.952 . S
C244 N239 1.332 . S
C244 C240 1.382 . S
C244 H246 0.948 . S
H245 C243 0.952 . S
H246 C244 0.948 . S
H247 C236 0.952 . S
H248 C238 0.948 . S
C249 C215 1.395 . S
C249 C219 1.391 . S
C250 C212 1.389 . S
C250 C232 1.392 . S
C251 C222 1.392 . S
C251 C224 1.389 . S
C252 C227 1.395 . S
C252 C229 1.391 . S
H253 C213 0.951 . S
H254 C214 0.950 . S
H255 C220 0.949 . S
H256 C221 0.950 . S
H257 C225 0.951 . S
H258 C226 0.950 . S
H259 C230 0.949 . S
H260 C231 0.950 . S
H261 C235 0.950 . S
H262 C237 0.950 . S
H263 C240 0.950 . S
H264 C242 0.950 . S
C265 C266 1.443 . S
C265 N269 1.376 . S
C265 C303 1.389 . S
C266 C265 1.443 . S
C266 C267 1.340 . S
C266 H306 0.951 . S
C267 C266 1.340 . S
C267 C268 1.439 . S
C267 H307 0.950 . S
C268 C267 1.439 . S
C268 N269 1.374 . S
C268 C302 1.395 . S
N269 C265 1.376 . S
N269 C268 1.374 . S
N269 Co270 2.008 . S
Co270 N269 2.008 . S
Co270 N271 1.995 . S
Co270 N276 2.008 . S
Co270 N281 1.995 . S
Co270 N286 2.282 . S
Co270 N292 2.282 . S
N271 Co270 1.995 . S
N271 C272 1.376 . S
N271 C275 1.383 . S
C272 N271 1.376 . S
C272 C273 1.446 . S
C272 C302 1.391 . S
C273 C272 1.446 . S
C273 C274 1.339 . S
C273 H308 0.949 . S
C274 C273 1.339 . S
C274 C275 1.439 . S
C274 H309 0.950 . S
C275 N271 1.383 . S
C275 C274 1.439 . S
C275 C304 1.392 . S
N276 Co270 2.008 . S
N276 C277 1.376 . S
N276 C280 1.374 . S
C277 N276 1.376 . S
C277 C278 1.443 . S
C277 C304 1.389 . S
C278 C277 1.443 . S
C278 C279 1.340 . S
C278 H310 0.951 . S
C279 C278 1.340 . S
C279 C280 1.439 . S
C279 H311 0.950 . S
C280 N276 1.374 . S
C280 C279 1.439 . S
C280 C305 1.395 . S
N281 Co270 1.995 . S
N281 C282 1.376 . S
N281 C285 1.383 . S
C282 N281 1.376 . S
C282 C283 1.446 . S
C282 C305 1.391 . S
C283 C282 1.446 . S
C283 C284 1.339 . S
C283 H312 0.949 . S
C284 C283 1.339 . S
C284 C285 1.439 . S
C284 H313 0.950 . S
C285 N281 1.383 . S
C285 C284 1.439 . S
C285 C303 1.392 . S
N286 Co270 2.282 . S
N286 C289 1.332 . S
N286 C291 1.332 . S
C287 C288 1.386 . S
C287 C290 1.388 . S
C288 C287 1.386 . S
C288 C289 1.382 . S
C288 H314 0.950 . S
C289 N286 1.332 . S
C289 C288 1.382 . S
C289 H300 0.952 . S
C290 C287 1.388 . S
C290 C291 1.382 . S
C290 H315 0.950 . S
C291 N286 1.332 . S
C291 C290 1.382 . S
C291 H301 0.948 . S
N292 Co270 2.282 . S
N292 C296 1.332 . S
N292 C297 1.332 . S
C293 C294 1.388 . S
C293 C297 1.382 . S
C293 H316 0.950 . S
C294 C293 1.388 . S
C294 C295 1.386 . S
C295 C294 1.386 . S
C295 C296 1.382 . S
C295 H317 0.950 . S
C296 N292 1.332 . S
C296 C295 1.382 . S
C296 H298 0.952 . S
C297 N292 1.332 . S
C297 C293 1.382 . S
C297 H299 0.948 . S
H298 C296 0.952 . S
H299 C297 0.948 . S
H300 C289 0.952 . S
H301 C291 0.948 . S
C302 C268 1.395 . S
C302 C272 1.391 . S
C303 C265 1.389 . S
C303 C285 1.392 . S
C304 C275 1.392 . S
C304 C277 1.389 . S
C305 C280 1.395 . S
C305 C282 1.391 . S
H306 C266 0.951 . S
H307 C267 0.950 . S
H308 C273 0.949 . S
H309 C274 0.950 . S
H310 C278 0.951 . S
H311 C279 0.950 . S
H312 C283 0.949 . S
H313 C284 0.950 . S
H314 C288 0.950 . S
H315 C290 0.950 . S
H316 C293 0.950 . S
H317 C295 0.950 . S
C318 C319 1.443 . S
C318 N322 1.376 . S
C318 C356 1.389 . S
C319 C318 1.443 . S
C319 C320 1.340 . S
C319 H359 0.951 . S
C320 C319 1.340 . S
C320 C321 1.439 . S
C320 H360 0.950 . S
C321 C320 1.439 . S
C321 N322 1.374 . S
C321 C355 1.395 . S
N322 C318 1.376 . S
N322 C321 1.374 . S
N322 Co323 2.008 . S
Co323 N322 2.008 . S
Co323 N324 1.995 . S
Co323 N329 2.008 . S
Co323 N334 1.995 . S
Co323 N339 2.282 . S
Co323 N345 2.282 . S
N324 Co323 1.995 . S
N324 C325 1.376 . S
N324 C328 1.383 . S
C325 N324 1.376 . S
C325 C326 1.446 . S
C325 C355 1.391 . S
C326 C325 1.446 . S
C326 C327 1.339 . S
C326 H361 0.949 . S
C327 C326 1.339 . S
C327 C328 1.439 . S
C327 H362 0.950 . S
C328 N324 1.383 . S
C328 C327 1.439 . S
C328 C357 1.392 . S
N329 Co323 2.008 . S
N329 C330 1.376 . S
N329 C333 1.374 . S
C330 N329 1.376 . S
C330 C331 1.443 . S
C330 C357 1.389 . S
C331 C330 1.443 . S
C331 C332 1.340 . S
C331 H363 0.951 . S
C332 C331 1.340 . S
C332 C333 1.439 . S
C332 H364 0.950 . S
C333 N329 1.374 . S
C333 C332 1.439 . S
C333 C358 1.395 . S
N334 Co323 1.995 . S
N334 C335 1.376 . S
N334 C338 1.383 . S
C335 N334 1.376 . S
C335 C336 1.446 . S
C335 C358 1.391 . S
C336 C335 1.446 . S
C336 C337 1.339 . S
C336 H365 0.949 . S
C337 C336 1.339 . S
C337 C338 1.439 . S
C337 H366 0.950 . S
C338 N334 1.383 . S
C338 C337 1.439 . S
C338 C356 1.392 . S
N339 Co323 2.282 . S
N339 C342 1.332 . S
N339 C344 1.332 . S
C340 C341 1.386 . S
C340 C343 1.388 . S
C341 C340 1.386 . S
C341 C342 1.382 . S
C341 H367 0.950 . S
C342 N339 1.332 . S
C342 C341 1.382 . S
C342 H353 0.952 . S
C343 C340 1.388 . S
C343 C344 1.382 . S
C343 H368 0.950 . S
C344 N339 1.332 . S
C344 C343 1.382 . S
C344 H354 0.948 . S
N345 Co323 2.282 . S
N345 C349 1.332 . S
N345 C350 1.332 . S
C346 C347 1.388 . S
C346 C350 1.382 . S
C346 H369 0.950 . S
C347 C346 1.388 . S
C347 C348 1.386 . S
C348 C347 1.386 . S
C348 C349 1.382 . S
C348 H370 0.950 . S
C349 N345 1.332 . S
C349 C348 1.382 . S
C349 H351 0.952 . S
C350 N345 1.332 . S
C350 C346 1.382 . S
C350 H352 0.948 . S
H351 C349 0.952 . S
H352 C350 0.948 . S
H353 C342 0.952 . S
H354 C344 0.948 . S
C355 C321 1.395 . S
C355 C325 1.391 . S
C356 C318 1.389 . S
C356 C338 1.392 . S
C357 C328 1.392 . S
C357 C330 1.389 . S
C358 C333 1.395 . S
C358 C335 1.391 . S
H359 C319 0.951 . S
H360 C320 0.950 . S
H361 C326 0.949 . S
H362 C327 0.950 . S
H363 C331 0.951 . S
H364 C332 0.950 . S
H365 C336 0.949 . S
H366 C337 0.950 . S
H367 C341 0.950 . S
H368 C343 0.950 . S
H369 C346 0.950 . S
H370 C348 0.950 . S
C371 C372 1.443 . S
C371 N375 1.376 . S
C371 C409 1.389 . S
C372 C371 1.443 . S
C372 C373 1.340 . S
C372 H412 0.951 . S
C373 C372 1.340 . S
C373 C374 1.439 . S
C373 H413 0.950 . S
C374 C373 1.439 . S
C374 N375 1.374 . S
C374 C408 1.395 . S
N375 C371 1.376 . S
N375 C374 1.374 . S
N375 Co376 2.008 . S
Co376 N375 2.008 . S
Co376 N377 1.995 . S
Co376 N382 2.008 . S
Co376 N387 1.995 . S
Co376 N392 2.282 . S
Co376 N398 2.282 . S
N377 Co376 1.995 . S
N377 C378 1.376 . S
N377 C381 1.383 . S
C378 N377 1.376 . S
C378 C379 1.446 . S
C378 C408 1.391 . S
C379 C378 1.446 . S
C379 C380 1.339 . S
C379 H414 0.949 . S
C380 C379 1.339 . S
C380 C381 1.439 . S
C380 H415 0.950 . S
C381 N377 1.383 . S
C381 C380 1.439 . S
C381 C410 1.392 . S
N382 Co376 2.008 . S
N382 C383 1.376 . S
N382 C386 1.374 . S
C383 N382 1.376 . S
C383 C384 1.443 . S
C383 C410 1.389 . S
C384 C383 1.443 . S
C384 C385 1.340 . S
C384 H416 0.951 . S
C385 C384 1.340 . S
C385 C386 1.439 . S
C385 H417 0.950 . S
C386 N382 1.374 . S
C386 C385 1.439 . S
C386 C411 1.395 . S
N387 Co376 1.995 . S
N387 C388 1.376 . S
N387 C391 1.383 . S
C388 N387 1.376 . S
C388 C389 1.446 . S
C388 C411 1.391 . S
C389 C388 1.446 . S
C389 C390 1.339 . S
C389 H418 0.949 . S
C390 C389 1.339 . S
C390 C391 1.439 . S
C390 H419 0.950 . S
C391 N387 1.383 . S
C391 C390 1.439 . S
C391 C409 1.392 . S
N392 Co376 2.282 . S
N392 C395 1.332 . S
N392 C397 1.332 . S
C393 C394 1.386 . S
C393 C396 1.388 . S
C394 C393 1.386 . S
C394 C395 1.382 . S
C394 H420 0.950 . S
C395 N392 1.332 . S
C395 C394 1.382 . S
C395 H406 0.952 . S
C396 C393 1.388 . S
C396 C397 1.382 . S
C396 H421 0.950 . S
C397 N392 1.332 . S
C397 C396 1.382 . S
C397 H407 0.948 . S
N398 Co376 2.282 . S
N398 C402 1.332 . S
N398 C403 1.332 . S
C399 C400 1.388 . S
C399 C403 1.382 . S
C399 H422 0.950 . S
C400 C399 1.388 . S
C400 C401 1.386 . S
C401 C400 1.386 . S
C401 C402 1.382 . S
C401 H423 0.950 . S
C402 N398 1.332 . S
C402 C401 1.382 . S
C402 H404 0.952 . S
C403 N398 1.332 . S
C403 C399 1.382 . S
C403 H405 0.948 . S
H404 C402 0.952 . S
H405 C403 0.948 . S
H406 C395 0.952 . S
H407 C397 0.948 . S
C408 C374 1.395 . S
C408 C378 1.391 . S
C409 C371 1.389 . S
C409 C391 1.392 . S
C410 C381 1.392 . S
C410 C383 1.389 . S
C411 C386 1.395 . S
C411 C388 1.391 . S
H412 C372 0.951 . S
H413 C373 0.950 . S
H414 C379 0.949 . S
H415 C380 0.950 . S
H416 C384 0.951 . S
H417 C385 0.950 . S
H418 C389 0.949 . S
H419 C390 0.950 . S
H420 C394 0.950 . S
H421 C396 0.950 . S
H422 C399 0.950 . S
H423 C401 0.950 . S
C424 C425 1.443 . S
C424 N428 1.376 . S
C424 C462 1.389 . S
C425 C424 1.443 . S
C425 C426 1.340 . S
C425 H465 0.951 . S
C426 C425 1.340 . S
C426 C427 1.439 . S
C426 H466 0.950 . S
C427 C426 1.439 . S
C427 N428 1.374 . S
C427 C461 1.395 . S
N428 C424 1.376 . S
N428 C427 1.374 . S
N428 Co429 2.008 . S
Co429 N428 2.008 . S
Co429 N430 1.995 . S
Co429 N435 2.008 . S
Co429 N440 1.995 . S
Co429 N445 2.282 . S
Co429 N451 2.282 . S
N430 Co429 1.995 . S
N430 C431 1.376 . S
N430 C434 1.383 . S
C431 N430 1.376 . S
C431 C432 1.446 . S
C431 C461 1.391 . S
C432 C431 1.446 . S
C432 C433 1.339 . S
C432 H467 0.949 . S
C433 C432 1.339 . S
C433 C434 1.439 . S
C433 H468 0.950 . S
C434 N430 1.383 . S
C434 C433 1.439 . S
C434 C463 1.392 . S
N435 Co429 2.008 . S
N435 C436 1.376 . S
N435 C439 1.374 . S
C436 N435 1.376 . S
C436 C437 1.443 . S
C436 C463 1.389 . S
C437 C436 1.443 . S
C437 C438 1.340 . S
C437 H469 0.951 . S
C438 C437 1.340 . S
C438 C439 1.439 . S
C438 H470 0.950 . S
C439 N435 1.374 . S
C439 C438 1.439 . S
C439 C464 1.395 . S
N440 Co429 1.995 . S
N440 C441 1.376 . S
N440 C444 1.383 . S
C441 N440 1.376 . S
C441 C442 1.446 . S
C441 C464 1.391 . S
C442 C441 1.446 . S
C442 C443 1.339 . S
C442 H471 0.949 . S
C443 C442 1.339 . S
C443 C444 1.439 . S
C443 H472 0.950 . S
C444 N440 1.383 . S
C444 C443 1.439 . S
C444 C462 1.392 . S
N445 Co429 2.282 . S
N445 C448 1.332 . S
N445 C450 1.332 . S
C446 C447 1.386 . S
C446 C449 1.388 . S
C447 C446 1.386 . S
C447 C448 1.382 . S
C447 H473 0.950 . S
C448 N445 1.332 . S
C448 C447 1.382 . S
C448 H459 0.952 . S
C449 C446 1.388 . S
C449 C450 1.382 . S
C449 H474 0.950 . S
C450 N445 1.332 . S
C450 C449 1.382 . S
C450 H460 0.948 . S
N451 Co429 2.282 . S
N451 C455 1.332 . S
N451 C456 1.332 . S
C452 C453 1.388 . S
C452 C456 1.382 . S
C452 H475 0.950 . S
C453 C452 1.388 . S
C453 C454 1.386 . S
C454 C453 1.386 . S
C454 C455 1.382 . S
C454 H476 0.950 . S
C455 N451 1.332 . S
C455 C454 1.382 . S
C455 H457 0.952 . S
C456 N451 1.332 . S
C456 C452 1.382 . S
C456 H458 0.948 . S
H457 C455 0.952 . S
H458 C456 0.948 . S
H459 C448 0.952 . S
H460 C450 0.948 . S
C461 C427 1.395 . S
C461 C431 1.391 . S
C462 C424 1.389 . S
C462 C444 1.392 . S
C463 C434 1.392 . S
C463 C436 1.389 . S
C464 C439 1.395 . S
C464 C441 1.391 . S
H465 C425 0.951 . S
H466 C426 0.950 . S
H467 C432 0.949 . S
H468 C433 0.950 . S
H469 C437 0.951 . S
H470 C438 0.950 . S
H471 C442 0.949 . S
H472 C443 0.950 . S
H473 C447 0.950 . S
H474 C449 0.950 . S
H475 C452 0.950 . S
H476 C454 0.950 . S
C477 C478 1.443 . S
C477 N481 1.376 . S
C477 C515 1.389 . S
C478 C477 1.443 . S
C478 C479 1.340 . S
C478 H518 0.951 . S
C479 C478 1.340 . S
C479 C480 1.439 . S
C479 H519 0.950 . S
C480 C479 1.439 . S
C480 N481 1.374 . S
C480 C514 1.395 . S
N481 C477 1.376 . S
N481 C480 1.374 . S
N481 Co482 2.008 . S
Co482 N481 2.008 . S
Co482 N483 1.995 . S
Co482 N488 2.008 . S
Co482 N493 1.995 . S
Co482 N498 2.282 . S
Co482 N504 2.282 . S
N483 Co482 1.995 . S
N483 C484 1.376 . S
N483 C487 1.383 . S
C484 N483 1.376 . S
C484 C485 1.446 . S
C484 C514 1.391 . S
C485 C484 1.446 . S
C485 C486 1.339 . S
C485 H520 0.949 . S
C486 C485 1.339 . S
C486 C487 1.439 . S
C486 H521 0.950 . S
C487 N483 1.383 . S
C487 C486 1.439 . S
C487 C516 1.392 . S
N488 Co482 2.008 . S
N488 C489 1.376 . S
N488 C492 1.374 . S
C489 N488 1.376 . S
C489 C490 1.443 . S
C489 C516 1.389 . S
C490 C489 1.443 . S
C490 C491 1.340 . S
C490 H522 0.951 . S
C491 C490 1.340 . S
C491 C492 1.439 . S
C491 H523 0.950 . S
C492 N488 1.374 . S
C492 C491 1.439 . S
C492 C517 1.395 . S
N493 Co482 1.995 . S
N493 C494 1.376 . S
N493 C497 1.383 . S
C494 N493 1.376 . S
C494 C495 1.446 . S
C494 C517 1.391 . S
C495 C494 1.446 . S
C495 C496 1.339 . S
C495 H524 0.949 . S
C496 C495 1.339 . S
C496 C497 1.439 . S
C496 H525 0.950 . S
C497 N493 1.383 . S
C497 C496 1.439 . S
C497 C515 1.392 . S
N498 Co482 2.282 . S
N498 C501 1.332 . S
N498 C503 1.332 . S
C499 C500 1.386 . S
C499 C502 1.388 . S
C500 C499 1.386 . S
C500 C501 1.382 . S
C500 H526 0.950 . S
C501 N498 1.332 . S
C501 C500 1.382 . S
C501 H512 0.952 . S
C502 C499 1.388 . S
C502 C503 1.382 . S
C502 H527 0.950 . S
C503 N498 1.332 . S
C503 C502 1.382 . S
C503 H513 0.948 . S
N504 Co482 2.282 . S
N504 C508 1.332 . S
N504 C509 1.332 . S
C505 C506 1.388 . S
C505 C509 1.382 . S
C505 H528 0.950 . S
C506 C505 1.388 . S
C506 C507 1.386 . S
C507 C506 1.386 . S
C507 C508 1.382 . S
C507 H529 0.950 . S
C508 N504 1.332 . S
C508 C507 1.382 . S
C508 H510 0.952 . S
C509 N504 1.332 . S
C509 C505 1.382 . S
C509 H511 0.948 . S
H510 C508 0.952 . S
H511 C509 0.948 . S
H512 C501 0.952 . S
H513 C503 0.948 . S
C514 C480 1.395 . S
C514 C484 1.391 . S
C515 C477 1.389 . S
C515 C497 1.392 . S
C516 C487 1.392 . S
C516 C489 1.389 . S
C517 C492 1.395 . S
C517 C494 1.391 . S
H518 C478 0.951 . S
H519 C479 0.950 . S
H520 C485 0.949 . S
H521 C486 0.950 . S
H522 C490 0.951 . S
H523 C491 0.950 . S
H524 C495 0.949 . S
H525 C496 0.950 . S
H526 C500 0.950 . S
H527 C502 0.950 . S
H528 C505 0.950 . S
H529 C507 0.950 . S
C530 C531 1.443 . S
C530 N534 1.376 . S
C530 C568 1.389 . S
C531 C530 1.443 . S
C531 C532 1.340 . S
C531 H571 0.951 . S
C532 C531 1.340 . S
C532 C533 1.439 . S
C532 H572 0.950 . S
C533 C532 1.439 . S
C533 N534 1.374 . S
C533 C567 1.395 . S
N534 C530 1.376 . S
N534 C533 1.374 . S
N534 Co535 2.008 . S
Co535 N534 2.008 . S
Co535 N536 1.995 . S
Co535 N541 2.008 . S
Co535 N546 1.995 . S
Co535 N551 2.282 . S
Co535 N557 2.282 . S
N536 Co535 1.995 . S
N536 C537 1.376 . S
N536 C540 1.383 . S
C537 N536 1.376 . S
C537 C538 1.446 . S
C537 C567 1.391 . S
C538 C537 1.446 . S
C538 C539 1.339 . S
C538 H573 0.949 . S
C539 C538 1.339 . S
C539 C540 1.439 . S
C539 H574 0.950 . S
C540 N536 1.383 . S
C540 C539 1.439 . S
C540 C569 1.392 . S
N541 Co535 2.008 . S
N541 C542 1.376 . S
N541 C545 1.374 . S
C542 N541 1.376 . S
C542 C543 1.443 . S
C542 C569 1.389 . S
C543 C542 1.443 . S
C543 C544 1.340 . S
C543 H575 0.951 . S
C544 C543 1.340 . S
C544 C545 1.439 . S
C544 H576 0.950 . S
C545 N541 1.374 . S
C545 C544 1.439 . S
C545 C570 1.395 . S
N546 Co535 1.995 . S
N546 C547 1.376 . S
N546 C550 1.383 . S
C547 N546 1.376 . S
C547 C548 1.446 . S
C547 C570 1.391 . S
C548 C547 1.446 . S
C548 C549 1.339 . S
C548 H577 0.949 . S
C549 C548 1.339 . S
C549 C550 1.439 . S
C549 H578 0.950 . S
C550 N546 1.383 . S
C550 C549 1.439 . S
C550 C568 1.392 . S
N551 Co535 2.282 . S
N551 C554 1.332 . S
N551 C556 1.332 . S
C552 C553 1.386 . S
C552 C555 1.388 . S
C553 C552 1.386 . S
C553 C554 1.382 . S
C553 H579 0.950 . S
C554 N551 1.332 . S
C554 C553 1.382 . S
C554 H565 0.952 . S
C555 C552 1.388 . S
C555 C556 1.382 . S
C555 H580 0.950 . S
C556 N551 1.332 . S
C556 C555 1.382 . S
C556 H566 0.948 . S
N557 Co535 2.282 . S
N557 C561 1.332 . S
N557 C562 1.332 . S
C558 C559 1.388 . S
C558 C562 1.382 . S
C558 H581 0.950 . S
C559 C558 1.388 . S
C559 C560 1.386 . S
C560 C559 1.386 . S
C560 C561 1.382 . S
C560 H582 0.950 . S
C561 N557 1.332 . S
C561 C560 1.382 . S
C561 H563 0.952 . S
C562 N557 1.332 . S
C562 C558 1.382 . S
C562 H564 0.948 . S
H563 C561 0.952 . S
H564 C562 0.948 . S
H565 C554 0.952 . S
H566 C556 0.948 . S
C567 C533 1.395 . S
C567 C537 1.391 . S
C568 C530 1.389 . S
C568 C550 1.392 . S
C569 C540 1.392 . S
C569 C542 1.389 . S
C570 C545 1.395 . S
C570 C547 1.391 . S
H571 C531 0.951 . S
H572 C532 0.950 . S
H573 C538 0.949 . S
H574 C539 0.950 . S
H575 C543 0.951 . S
H576 C544 0.950 . S
H577 C548 0.949 . S
H578 C549 0.950 . S
H579 C553 0.950 . S
H580 C555 0.950 . S
H581 C558 0.950 . S
H582 C560 0.950 . S
C583 C584 1.443 . S
C583 N587 1.376 . S
C583 C621 1.389 . S
C584 C583 1.443 . S
C584 C585 1.340 . S
C584 H624 0.951 . S
C585 C584 1.340 . S
C585 C586 1.439 . S
C585 H625 0.950 . S
C586 C585 1.439 . S
C586 N587 1.374 . S
C586 C620 1.395 . S
N587 C583 1.376 . S
N587 C586 1.374 . S
N587 Co588 2.008 . S
Co588 N587 2.008 . S
Co588 N589 1.995 . S
Co588 N594 2.008 . S
Co588 N599 1.995 . S
Co588 N604 2.282 . S
Co588 N610 2.282 . S
N589 Co588 1.995 . S
N589 C590 1.376 . S
N589 C593 1.383 . S
C590 N589 1.376 . S
C590 C591 1.446 . S
C590 C620 1.391 . S
C591 C590 1.446 . S
C591 C592 1.339 . S
C591 H626 0.949 . S
C592 C591 1.339 . S
C592 C593 1.439 . S
C592 H627 0.950 . S
C593 N589 1.383 . S
C593 C592 1.439 . S
C593 C622 1.392 . S
N594 Co588 2.008 . S
N594 C595 1.376 . S
N594 C598 1.374 . S
C595 N594 1.376 . S
C595 C596 1.443 . S
C595 C622 1.389 . S
C596 C595 1.443 . S
C596 C597 1.340 . S
C596 H628 0.951 . S
C597 C596 1.340 . S
C597 C598 1.439 . S
C597 H629 0.950 . S
C598 N594 1.374 . S
C598 C597 1.439 . S
C598 C623 1.395 . S
N599 Co588 1.995 . S
N599 C600 1.376 . S
N599 C603 1.383 . S
C600 N599 1.376 . S
C600 C601 1.446 . S
C600 C623 1.391 . S
C601 C600 1.446 . S
C601 C602 1.339 . S
C601 H630 0.949 . S
C602 C601 1.339 . S
C602 C603 1.439 . S
C602 H631 0.950 . S
C603 N599 1.383 . S
C603 C602 1.439 . S
C603 C621 1.392 . S
N604 Co588 2.282 . S
N604 C607 1.332 . S
N604 C609 1.332 . S
C605 C606 1.386 . S
C605 C608 1.388 . S
C606 C605 1.386 . S
C606 C607 1.382 . S
C606 H632 0.950 . S
C607 N604 1.332 . S
C607 C606 1.382 . S
C607 H618 0.952 . S
C608 C605 1.388 . S
C608 C609 1.382 . S
C608 H633 0.950 . S
C609 N604 1.332 . S
C609 C608 1.382 . S
C609 H619 0.948 . S
N610 Co588 2.282 . S
N610 C614 1.332 . S
N610 C615 1.332 . S
C611 C612 1.388 . S
C611 C615 1.382 . S
C611 H634 0.950 . S
C612 C611 1.388 . S
C612 C613 1.386 . S
C613 C612 1.386 . S
C613 C614 1.382 . S
C613 H635 0.950 . S
C614 N610 1.332 . S
C614 C613 1.382 . S
C614 H616 0.952 . S
C615 N610 1.332 . S
C615 C611 1.382 . S
C615 H617 0.948 . S
H616 C614 0.952 . S
H617 C615 0.948 . S
H618 C607 0.952 . S
H619 C609 0.948 . S
C620 C586 1.395 . S
C620 C590 1.391 . S
C621 C583 1.389 . S
C621 C603 1.392 . S
C622 C593 1.392 . S
C622 C595 1.389 . S
C623 C598 1.395 . S
C623 C600 1.391 . S
H624 C584 0.951 . S
H625 C585 0.950 . S
H626 C591 0.949 . S
H627 C592 0.950 . S
H628 C596 0.951 . S
H629 C597 0.950 . S
H630 C601 0.949 . S
H631 C602 0.950 . S
H632 C606 0.950 . S
H633 C608 0.950 . S
H634 C611 0.950 . S
H635 C613 0.950 . S
C636 C637 1.443 . S
C636 N640 1.376 . S
C636 C674 1.389 . S
C637 C636 1.443 . S
C637 C638 1.340 . S
C637 H677 0.951 . S
C638 C637 1.340 . S
C638 C639 1.439 . S
C638 H678 0.950 . S
C639 C638 1.439 . S
C639 N640 1.374 . S
C639 C673 1.395 . S
N640 C636 1.376 . S
N640 C639 1.374 . S
N640 Co641 2.008 . S
Co641 N640 2.008 . S
Co641 N642 1.995 . S
Co641 N647 2.008 . S
Co641 N652 1.995 . S
Co641 N657 2.282 . S
Co641 N663 2.282 . S
N642 Co641 1.995 . S
N642 C643 1.376 . S
N642 C646 1.383 . S
C643 N642 1.376 . S
C643 C644 1.446 . S
C643 C673 1.391 . S
C644 C643 1.446 . S
C644 C645 1.339 . S
C644 H679 0.949 . S
C645 C644 1.339 . S
C645 C646 1.439 . S
C645 H680 0.950 . S
C646 N642 1.383 . S
C646 C645 1.439 . S
C646 C675 1.392 . S
N647 Co641 2.008 . S
N647 C648 1.376 . S
N647 C651 1.374 . S
C648 N647 1.376 . S
C648 C649 1.443 . S
C648 C675 1.389 . S
C649 C648 1.443 . S
C649 C650 1.340 . S
C649 H681 0.951 . S
C650 C649 1.340 . S
C650 C651 1.439 . S
C650 H682 0.950 . S
C651 N647 1.374 . S
C651 C650 1.439 . S
C651 C676 1.395 . S
N652 Co641 1.995 . S
N652 C653 1.376 . S
N652 C656 1.383 . S
C653 N652 1.376 . S
C653 C654 1.446 . S
C653 C676 1.391 . S
C654 C653 1.446 . S
C654 C655 1.339 . S
C654 H683 0.949 . S
C655 C654 1.339 . S
C655 C656 1.439 . S
C655 H684 0.950 . S
C656 N652 1.383 . S
C656 C655 1.439 . S
C656 C674 1.392 . S
N657 Co641 2.282 . S
N657 C660 1.332 . S
N657 C662 1.332 . S
C658 C659 1.386 . S
C658 C661 1.388 . S
C659 C658 1.386 . S
C659 C660 1.382 . S
C659 H685 0.950 . S
C660 N657 1.332 . S
C660 C659 1.382 . S
C660 H671 0.952 . S
C661 C658 1.388 . S
C661 C662 1.382 . S
C661 H686 0.950 . S
C662 N657 1.332 . S
C662 C661 1.382 . S
C662 H672 0.948 . S
N663 Co641 2.282 . S
N663 C667 1.332 . S
N663 C668 1.332 . S
C664 C665 1.388 . S
C664 C668 1.382 . S
C664 H687 0.950 . S
C665 C664 1.388 . S
C665 C666 1.386 . S
C666 C665 1.386 . S
C666 C667 1.382 . S
C666 H688 0.950 . S
C667 N663 1.332 . S
C667 C666 1.382 . S
C667 H669 0.952 . S
C668 N663 1.332 . S
C668 C664 1.382 . S
C668 H670 0.948 . S
H669 C667 0.952 . S
H670 C668 0.948 . S
H671 C660 0.952 . S
H672 C662 0.948 . S
C673 C639 1.395 . S
C673 C643 1.391 . S
C674 C636 1.389 . S
C674 C656 1.392 . S
C675 C646 1.392 . S
C675 C648 1.389 . S
C676 C651 1.395 . S
C676 C653 1.391 . S
H677 C637 0.951 . S
H678 C638 0.950 . S
H679 C644 0.949 . S
H680 C645 0.950 . S
H681 C649 0.951 . S
H682 C650 0.950 . S
H683 C654 0.949 . S
H684 C655 0.950 . S
H685 C659 0.950 . S
H686 C661 0.950 . S
H687 C664 0.950 . S
H688 C666 0.950 . S
C689 C690 1.443 . S
C689 N693 1.376 . S
C689 C727 1.389 . S
C690 C689 1.443 . S
C690 C691 1.340 . S
C690 H730 0.951 . S
C691 C690 1.340 . S
C691 C692 1.439 . S
C691 H731 0.950 . S
C692 C691 1.439 . S
C692 N693 1.374 . S
C692 C726 1.395 . S
N693 C689 1.376 . S
N693 C692 1.374 . S
N693 Co694 2.008 . S
Co694 N693 2.008 . S
Co694 N695 1.995 . S
Co694 N700 2.008 . S
Co694 N705 1.995 . S
Co694 N710 2.282 . S
Co694 N716 2.282 . S
N695 Co694 1.995 . S
N695 C696 1.376 . S
N695 C699 1.383 . S
C696 N695 1.376 . S
C696 C697 1.446 . S
C696 C726 1.391 . S
C697 C696 1.446 . S
C697 C698 1.339 . S
C697 H732 0.949 . S
C698 C697 1.339 . S
C698 C699 1.439 . S
C698 H733 0.950 . S
C699 N695 1.383 . S
C699 C698 1.439 . S
C699 C728 1.392 . S
N700 Co694 2.008 . S
N700 C701 1.376 . S
N700 C704 1.374 . S
C701 N700 1.376 . S
C701 C702 1.443 . S
C701 C728 1.389 . S
C702 C701 1.443 . S
C702 C703 1.340 . S
C702 H734 0.951 . S
C703 C702 1.340 . S
C703 C704 1.439 . S
C703 H735 0.950 . S
C704 N700 1.374 . S
C704 C703 1.439 . S
C704 C729 1.395 . S
N705 Co694 1.995 . S
N705 C706 1.376 . S
N705 C709 1.383 . S
C706 N705 1.376 . S
C706 C707 1.446 . S
C706 C729 1.391 . S
C707 C706 1.446 . S
C707 C708 1.339 . S
C707 H736 0.949 . S
C708 C707 1.339 . S
C708 C709 1.439 . S
C708 H737 0.950 . S
C709 N705 1.383 . S
C709 C708 1.439 . S
C709 C727 1.392 . S
N710 Co694 2.282 . S
N710 C713 1.332 . S
N710 C715 1.332 . S
C711 C712 1.386 . S
C711 C714 1.388 . S
C712 C711 1.386 . S
C712 C713 1.382 . S
C712 H738 0.950 . S
C713 N710 1.332 . S
C713 C712 1.382 . S
C713 H724 0.952 . S
C714 C711 1.388 . S
C714 C715 1.382 . S
C714 H739 0.950 . S
C715 N710 1.332 . S
C715 C714 1.382 . S
C715 H725 0.948 . S
N716 Co694 2.282 . S
N716 C720 1.332 . S
N716 C721 1.332 . S
C717 C718 1.388 . S
C717 C721 1.382 . S
C717 H740 0.950 . S
C718 C717 1.388 . S
C718 C719 1.386 . S
C719 C718 1.386 . S
C719 C720 1.382 . S
C719 H741 0.950 . S
C720 N716 1.332 . S
C720 C719 1.382 . S
C720 H722 0.952 . S
C721 N716 1.332 . S
C721 C717 1.382 . S
C721 H723 0.948 . S
H722 C720 0.952 . S
H723 C721 0.948 . S
H724 C713 0.952 . S
H725 C715 0.948 . S
C726 C692 1.395 . S
C726 C696 1.391 . S
C727 C689 1.389 . S
C727 C709 1.392 . S
C728 C699 1.392 . S
C728 C701 1.389 . S
C729 C704 1.395 . S
C729 C706 1.391 . S
H730 C690 0.951 . S
H731 C691 0.950 . S
H732 C697 0.949 . S
H733 C698 0.950 . S
H734 C702 0.951 . S
H735 C703 0.950 . S
H736 C707 0.949 . S
H737 C708 0.950 . S
H738 C712 0.950 . S
H739 C714 0.950 . S
H740 C717 0.950 . S
H741 C719 0.950 . S
C742 C743 1.443 . S
C742 N746 1.376 . S
C742 C780 1.389 . S
C743 C742 1.443 . S
C743 C744 1.340 . S
C743 H783 0.951 . S
C744 C743 1.340 . S
C744 C745 1.439 . S
C744 H784 0.950 . S
C745 C744 1.439 . S
C745 N746 1.374 . S
C745 C779 1.395 . S
N746 C742 1.376 . S
N746 C745 1.374 . S
N746 Co747 2.008 . S
Co747 N746 2.008 . S
Co747 N748 1.995 . S
Co747 N753 2.008 . S
Co747 N758 1.995 . S
Co747 N763 2.282 . S
Co747 N769 2.282 . S
N748 Co747 1.995 . S
N748 C749 1.376 . S
N748 C752 1.383 . S
C749 N748 1.376 . S
C749 C750 1.446 . S
C749 C779 1.391 . S
C750 C749 1.446 . S
C750 C751 1.339 . S
C750 H785 0.949 . S
C751 C750 1.339 . S
C751 C752 1.439 . S
C751 H786 0.950 . S
C752 N748 1.383 . S
C752 C751 1.439 . S
C752 C781 1.392 . S
N753 Co747 2.008 . S
N753 C754 1.376 . S
N753 C757 1.374 . S
C754 N753 1.376 . S
C754 C755 1.443 . S
C754 C781 1.389 . S
C755 C754 1.443 . S
C755 C756 1.340 . S
C755 H787 0.951 . S
C756 C755 1.340 . S
C756 C757 1.439 . S
C756 H788 0.950 . S
C757 N753 1.374 . S
C757 C756 1.439 . S
C757 C782 1.395 . S
N758 Co747 1.995 . S
N758 C759 1.376 . S
N758 C762 1.383 . S
C759 N758 1.376 . S
C759 C760 1.446 . S
C759 C782 1.391 . S
C760 C759 1.446 . S
C760 C761 1.339 . S
C760 H789 0.949 . S
C761 C760 1.339 . S
C761 C762 1.439 . S
C761 H790 0.950 . S
C762 N758 1.383 . S
C762 C761 1.439 . S
C762 C780 1.392 . S
N763 Co747 2.282 . S
N763 C766 1.332 . S
N763 C768 1.332 . S
C764 C765 1.386 . S
C764 C767 1.388 . S
C765 C764 1.386 . S
C765 C766 1.382 . S
C765 H791 0.950 . S
C766 N763 1.332 . S
C766 C765 1.382 . S
C766 H777 0.952 . S
C767 C764 1.388 . S
C767 C768 1.382 . S
C767 H792 0.950 . S
C768 N763 1.332 . S
C768 C767 1.382 . S
C768 H778 0.948 . S
N769 Co747 2.282 . S
N769 C773 1.332 . S
N769 C774 1.332 . S
C770 C771 1.388 . S
C770 C774 1.382 . S
C770 H793 0.950 . S
C771 C770 1.388 . S
C771 C772 1.386 . S
C772 C771 1.386 . S
C772 C773 1.382 . S
C772 H794 0.950 . S
C773 N769 1.332 . S
C773 C772 1.382 . S
C773 H775 0.952 . S
C774 N769 1.332 . S
C774 C770 1.382 . S
C774 H776 0.948 . S
H775 C773 0.952 . S
H776 C774 0.948 . S
H777 C766 0.952 . S
H778 C768 0.948 . S
C779 C745 1.395 . S
C779 C749 1.391 . S
C780 C742 1.389 . S
C780 C762 1.392 . S
C781 C752 1.392 . S
C781 C754 1.389 . S
C782 C757 1.395 . S
C782 C759 1.391 . S
H783 C743 0.951 . S
H784 C744 0.950 . S
H785 C750 0.949 . S
H786 C751 0.950 . S
H787 C755 0.951 . S
H788 C756 0.950 . S
H789 C760 0.949 . S
H790 C761 0.950 . S
H791 C765 0.950 . S
H792 C767 0.950 . S
H793 C770 0.950 . S
H794 C772 0.950 . S
C795 C796 1.443 . S
C795 N799 1.376 . S
C795 C833 1.389 . S
C796 C795 1.443 . S
C796 C797 1.340 . S
C796 H836 0.951 . S
C797 C796 1.340 . S
C797 C798 1.439 . S
C797 H837 0.950 . S
C798 C797 1.439 . S
C798 N799 1.374 . S
C798 C832 1.395 . S
N799 C795 1.376 . S
N799 C798 1.374 . S
N799 Co800 2.008 . S
Co800 N799 2.008 . S
Co800 N801 1.995 . S
Co800 N806 2.008 . S
Co800 N811 1.995 . S
Co800 N816 2.282 . S
Co800 N822 2.282 . S
N801 Co800 1.995 . S
N801 C802 1.376 . S
N801 C805 1.383 . S
C802 N801 1.376 . S
C802 C803 1.446 . S
C802 C832 1.391 . S
C803 C802 1.446 . S
C803 C804 1.339 . S
C803 H838 0.949 . S
C804 C803 1.339 . S
C804 C805 1.439 . S
C804 H839 0.950 . S
C805 N801 1.383 . S
C805 C804 1.439 . S
C805 C834 1.392 . S
N806 Co800 2.008 . S
N806 C807 1.376 . S
N806 C810 1.374 . S
C807 N806 1.376 . S
C807 C808 1.443 . S
C807 C834 1.389 . S
C808 C807 1.443 . S
C808 C809 1.340 . S
C808 H840 0.951 . S
C809 C808 1.340 . S
C809 C810 1.439 . S
C809 H841 0.950 . S
C810 N806 1.374 . S
C810 C809 1.439 . S
C810 C835 1.395 . S
N811 Co800 1.995 . S
N811 C812 1.376 . S
N811 C815 1.383 . S
C812 N811 1.376 . S
C812 C813 1.446 . S
C812 C835 1.391 . S
C813 C812 1.446 . S
C813 C814 1.339 . S
C813 H842 0.949 . S
C814 C813 1.339 . S
C814 C815 1.439 . S
C814 H843 0.950 . S
C815 N811 1.383 . S
C815 C814 1.439 . S
C815 C833 1.392 . S
N816 Co800 2.282 . S
N816 C819 1.332 . S
N816 C821 1.332 . S
C817 C818 1.386 . S
C817 C820 1.388 . S
C818 C817 1.386 . S
C818 C819 1.382 . S
C818 H844 0.950 . S
C819 N816 1.332 . S
C819 C818 1.382 . S
C819 H830 0.952 . S
C820 C817 1.388 . S
C820 C821 1.382 . S
C820 H845 0.950 . S
C821 N816 1.332 . S
C821 C820 1.382 . S
C821 H831 0.948 . S
N822 Co800 2.282 . S
N822 C826 1.332 . S
N822 C827 1.332 . S
C823 C824 1.388 . S
C823 C827 1.382 . S
C823 H846 0.950 . S
C824 C823 1.388 . S
C824 C825 1.386 . S
C825 C824 1.386 . S
C825 C826 1.382 . S
C825 H847 0.950 . S
C826 N822 1.332 . S
C826 C825 1.382 . S
C826 H828 0.952 . S
C827 N822 1.332 . S
C827 C823 1.382 . S
C827 H829 0.948 . S
H828 C826 0.952 . S
H829 C827 0.948 . S
H830 C819 0.952 . S
H831 C821 0.948 . S
C832 C798 1.395 . S
C832 C802 1.391 . S
C833 C795 1.389 . S
C833 C815 1.392 . S
C834 C805 1.392 . S
C834 C807 1.389 . S
C835 C810 1.395 . S
C835 C812 1.391 . S
H836 C796 0.951 . S
H837 C797 0.950 . S
H838 C803 0.949 . S
H839 C804 0.950 . S
H840 C808 0.951 . S
H841 C809 0.950 . S
H842 C813 0.949 . S
H843 C814 0.950 . S
H844 C818 0.950 . S
H845 C820 0.950 . S
H846 C823 0.950 . S
H847 C825 0.950 . S
H848 C866 0.951 . S
H849 C868 0.951 . S
H850 C870 0.950 . S
H851 C871 0.950 . S
H852 C873 0.950 . S
H853 C876 0.950 . S
H854 C877 0.950 . S
H855 C879 0.950 . S
H856 C880 0.950 . S
H857 C881 0.951 . S
H858 C883 0.951 . S
H859 C885 0.950 . S
H860 C886 0.950 . S
H861 C888 0.950 . S
H862 C891 0.950 . S
H863 C892 0.950 . S
H864 C894 0.950 . S
H865 C895 0.950 . S
C866 H848 0.951 . S
C866 C867 1.366 . S
C866 C868 1.388 . S
C867 C866 1.366 . S
C867 C871 1.385 . S
C868 H849 0.951 . S
C868 C866 1.388 . S
C868 C869 1.366 . S
C869 C868 1.366 . S
C869 C870 1.414 . S
C869 C872 1.499 . S
C870 H850 0.950 . S
C870 C869 1.414 . S
C870 C871 1.374 . S
C871 H851 0.950 . S
C871 C867 1.385 . S
C871 C870 1.374 . S
C872 C869 1.499 . S
C872 C873 1.373 . S
C872 C874 1.389 . S
C873 H852 0.950 . S
C873 C872 1.373 . S
C873 C889 1.377 . S
C874 C872 1.389 . S
C874 C875 1.524 . S
C874 C888 1.377 . S
C875 C874 1.524 . S
C875 C876 1.397 . S
C875 C880 1.363 . S
C876 H853 0.950 . S
C876 C875 1.397 . S
C876 C877 1.334 . S
C877 H854 0.950 . S
C877 C876 1.334 . S
C877 C878 1.287 . S
C878 C877 1.287 . S
C878 C879 1.524 . S
C878 H897 0.913 . S
C879 H855 0.950 . S
C879 C878 1.524 . S
C879 C880 1.415 . S
C880 H856 0.950 . S
C880 C875 1.363 . S
C880 C879 1.415 . S
C881 H857 0.951 . S
C881 C882 1.366 . S
C881 C883 1.388 . S
C882 C881 1.366 . S
C882 C886 1.385 . S
C883 H858 0.951 . S
C883 C881 1.388 . S
C883 C884 1.366 . S
C884 C883 1.366 . S
C884 C885 1.414 . S
C884 C887 1.499 . S
C885 H859 0.950 . S
C885 C884 1.414 . S
C885 C886 1.374 . S
C886 H860 0.950 . S
C886 C882 1.385 . S
C886 C885 1.374 . S
C887 C884 1.499 . S
C887 C888 1.373 . S
C887 C889 1.389 . S
C888 H861 0.950 . S
C888 C874 1.377 . S
C888 C887 1.373 . S
C889 C873 1.377 . S
C889 C887 1.389 . S
C889 C890 1.524 . S
C890 C889 1.524 . S
C890 C891 1.397 . S
C890 C895 1.363 . S
C891 H862 0.950 . S
C891 C890 1.397 . S
C891 C892 1.334 . S
C892 H863 0.950 . S
C892 C891 1.334 . S
C892 C893 1.287 . S
C893 C892 1.287 . S
C893 C894 1.524 . S
C893 H896 0.999 . S
C894 H864 0.950 . S
C894 C893 1.524 . S
C894 C895 1.415 . S
C895 H865 0.950 . S
C895 C890 1.363 . S
C895 C894 1.415 . S
H896 C893 0.999 . S
H897 C878 0.913 . S
H898 C916 0.951 . S
H899 C918 0.951 . S
H900 C920 0.950 . S
H901 C921 0.950 . S
H902 C923 0.950 . S
H903 C926 0.950 . S
H904 C927 0.950 . S
H905 C929 0.950 . S
H906 C930 0.950 . S
H907 C931 0.951 . S
H908 C933 0.951 . S
H909 C935 0.950 . S
H910 C936 0.950 . S
H911 C938 0.950 . S
H912 C941 0.950 . S
H913 C942 0.950 . S
H914 C944 0.950 . S
H915 C945 0.950 . S
C916 H898 0.951 . S
C916 C917 1.366 . S
C916 C918 1.388 . S
C917 C916 1.366 . S
C917 C921 1.385 . S
C918 H899 0.951 . S
C918 C916 1.388 . S
C918 C919 1.366 . S
C919 C918 1.366 . S
C919 C920 1.414 . S
C919 C922 1.499 . S
C920 H900 0.950 . S
C920 C919 1.414 . S
C920 C921 1.374 . S
C921 H901 0.950 . S
C921 C917 1.385 . S
C921 C920 1.374 . S
C922 C919 1.499 . S
C922 C923 1.373 . S
C922 C924 1.389 . S
C923 H902 0.950 . S
C923 C922 1.373 . S
C923 C939 1.377 . S
C924 C922 1.389 . S
C924 C925 1.524 . S
C924 C938 1.377 . S
C925 C924 1.524 . S
C925 C926 1.397 . S
C925 C930 1.363 . S
C926 H903 0.950 . S
C926 C925 1.397 . S
C926 C927 1.334 . S
C927 H904 0.950 . S
C927 C926 1.334 . S
C927 C928 1.287 . S
C928 C927 1.287 . S
C928 C929 1.524 . S
C928 H947 0.913 . S
C929 H905 0.950 . S
C929 C928 1.524 . S
C929 C930 1.415 . S
C930 H906 0.950 . S
C930 C925 1.363 . S
C930 C929 1.415 . S
C931 H907 0.951 . S
C931 C932 1.366 . S
C931 C933 1.388 . S
C932 C931 1.366 . S
C932 C936 1.385 . S
C933 H908 0.951 . S
C933 C931 1.388 . S
C933 C934 1.366 . S
C934 C933 1.366 . S
C934 C935 1.414 . S
C934 C937 1.499 . S
C935 H909 0.950 . S
C935 C934 1.414 . S
C935 C936 1.374 . S
C936 H910 0.950 . S
C936 C932 1.385 . S
C936 C935 1.374 . S
C937 C934 1.499 . S
C937 C938 1.373 . S
C937 C939 1.389 . S
C938 H911 0.950 . S
C938 C924 1.377 . S
C938 C937 1.373 . S
C939 C923 1.377 . S
C939 C937 1.389 . S
C939 C940 1.524 . S
C940 C939 1.524 . S
C940 C941 1.397 . S
C940 C945 1.363 . S
C941 H912 0.950 . S
C941 C940 1.397 . S
C941 C942 1.334 . S
C942 H913 0.950 . S
C942 C941 1.334 . S
C942 C943 1.287 . S
C943 C942 1.287 . S
C943 C944 1.524 . S
C943 H946 0.999 . S
C944 H914 0.950 . S
C944 C943 1.524 . S
C944 C945 1.415 . S
C945 H915 0.950 . S
C945 C940 1.363 . S
C945 C944 1.415 . S
H946 C943 0.999 . S
H947 C928 0.913 . S
H948 C966 0.951 . S
H949 C968 0.951 . S
H950 C970 0.950 . S
H951 C971 0.950 . S
H952 C973 0.950 . S
H953 C976 0.950 . S
H954 C977 0.950 . S
H955 C979 0.950 . S
H956 C980 0.950 . S
H957 C981 0.951 . S
H958 C983 0.951 . S
H959 C985 0.950 . S
H960 C986 0.950 . S
H961 C988 0.950 . S
H962 C991 0.950 . S
H963 C992 0.950 . S
H964 C994 0.950 . S
H965 C995 0.950 . S
C966 H948 0.951 . S
C966 C967 1.366 . S
C966 C968 1.388 . S
C967 C966 1.366 . S
C967 C971 1.385 . S
C968 H949 0.951 . S
C968 C966 1.388 . S
C968 C969 1.366 . S
C969 C968 1.366 . S
C969 C970 1.414 . S
C969 C972 1.499 . S
C970 H950 0.950 . S
C970 C969 1.414 . S
C970 C971 1.374 . S
C971 H951 0.950 . S
C971 C967 1.385 . S
C971 C970 1.374 . S
C972 C969 1.499 . S
C972 C973 1.373 . S
C972 C974 1.389 . S
C973 H952 0.950 . S
C973 C972 1.373 . S
C973 C989 1.377 . S
C974 C972 1.389 . S
C974 C975 1.524 . S
C974 C988 1.377 . S
C975 C974 1.524 . S
C975 C976 1.397 . S
C975 C980 1.363 . S
C976 H953 0.950 . S
C976 C975 1.397 . S
C976 C977 1.334 . S
C977 H954 0.950 . S
C977 C976 1.334 . S
C977 C978 1.287 . S
C978 C977 1.287 . S
C978 C979 1.524 . S
C978 H997 0.913 . S
C979 H955 0.950 . S
C979 C978 1.524 . S
C979 C980 1.415 . S
C980 H956 0.950 . S
C980 C975 1.363 . S
C980 C979 1.415 . S
C981 H957 0.951 . S
C981 C982 1.366 . S
C981 C983 1.388 . S
C982 C981 1.366 . S
C982 C986 1.385 . S
C983 H958 0.951 . S
C983 C981 1.388 . S
C983 C984 1.366 . S
C984 C983 1.366 . S
C984 C985 1.414 . S
C984 C987 1.499 . S
C985 H959 0.950 . S
C985 C984 1.414 . S
C985 C986 1.374 . S
C986 H960 0.950 . S
C986 C982 1.385 . S
C986 C985 1.374 . S
C987 C984 1.499 . S
C987 C988 1.373 . S
C987 C989 1.389 . S
C988 H961 0.950 . S
C988 C974 1.377 . S
C988 C987 1.373 . S
C989 C973 1.377 . S
C989 C987 1.389 . S
C989 C990 1.524 . S
C990 C989 1.524 . S
C990 C991 1.397 . S
C990 C995 1.363 . S
C991 H962 0.950 . S
C991 C990 1.397 . S
C991 C992 1.334 . S
C992 H963 0.950 . S
C992 C991 1.334 . S
C992 C993 1.287 . S
C993 C992 1.287 . S
C993 C994 1.524 . S
C993 H996 0.999 . S
C994 H964 0.950 . S
C994 C993 1.524 . S
C994 C995 1.415 . S
C995 H965 0.950 . S
C995 C990 1.363 . S
C995 C994 1.415 . S
H996 C993 0.999 . S
H997 C978 0.913 . S
H998 C1016 0.951 . S
H999 C1018 0.951 . S
H1000 C1020 0.950 . S
H1001 C1021 0.950 . S
H1002 C1023 0.950 . S
H1003 C1026 0.950 . S
H1004 C1027 0.950 . S
H1005 C1029 0.950 . S
H1006 C1030 0.950 . S
H1007 C1031 0.951 . S
H1008 C1033 0.951 . S
H1009 C1035 0.950 . S
H1010 C1036 0.950 . S
H1011 C1038 0.950 . S
H1012 C1041 0.950 . S
H1013 C1042 0.950 . S
H1014 C1044 0.950 . S
H1015 C1045 0.950 . S
C1016 H998 0.951 . S
C1016 C1017 1.366 . S
C1016 C1018 1.388 . S
C1017 C1016 1.366 . S
C1017 C1021 1.385 . S
C1018 H999 0.951 . S
C1018 C1016 1.388 . S
C1018 C1019 1.366 . S
C1019 C1018 1.366 . S
C1019 C1020 1.414 . S
C1019 C1022 1.499 . S
C1020 H1000 0.950 . S
C1020 C1019 1.414 . S
C1020 C1021 1.374 . S
C1021 H1001 0.950 . S
C1021 C1017 1.385 . S
C1021 C1020 1.374 . S
C1022 C1019 1.499 . S
C1022 C1023 1.373 . S
C1022 C1024 1.389 . S
C1023 H1002 0.950 . S
C1023 C1022 1.373 . S
C1023 C1039 1.377 . S
C1024 C1022 1.389 . S
C1024 C1025 1.524 . S
C1024 C1038 1.377 . S
C1025 C1024 1.524 . S
C1025 C1026 1.397 . S
C1025 C1030 1.363 . S
C1026 H1003 0.950 . S
C1026 C1025 1.397 . S
C1026 C1027 1.334 . S
C1027 H1004 0.950 . S
C1027 C1026 1.334 . S
C1027 C1028 1.287 . S
C1028 C1027 1.287 . S
C1028 C1029 1.524 . S
C1028 H1047 0.913 . S
C1029 H1005 0.950 . S
C1029 C1028 1.524 . S
C1029 C1030 1.415 . S
C1030 H1006 0.950 . S
C1030 C1025 1.363 . S
C1030 C1029 1.415 . S
C1031 H1007 0.951 . S
C1031 C1032 1.366 . S
C1031 C1033 1.388 . S
C1032 C1031 1.366 . S
C1032 C1036 1.385 . S
C1033 H1008 0.951 . S
C1033 C1031 1.388 . S
C1033 C1034 1.366 . S
C1034 C1033 1.366 . S
C1034 C1035 1.414 . S
C1034 C1037 1.499 . S
C1035 H1009 0.950 . S
C1035 C1034 1.414 . S
C1035 C1036 1.374 . S
C1036 H1010 0.950 . S
C1036 C1032 1.385 . S
C1036 C1035 1.374 . S
C1037 C1034 1.499 . S
C1037 C1038 1.373 . S
C1037 C1039 1.389 . S
C1038 H1011 0.950 . S
C1038 C1024 1.377 . S
C1038 C1037 1.373 . S
C1039 C1023 1.377 . S
C1039 C1037 1.389 . S
C1039 C1040 1.524 . S
C1040 C1039 1.524 . S
C1040 C1041 1.397 . S
C1040 C1045 1.363 . S
C1041 H1012 0.950 . S
C1041 C1040 1.397 . S
C1041 C1042 1.334 . S
C1042 H1013 0.950 . S
C1042 C1041 1.334 . S
C1042 C1043 1.287 . S
C1043 C1042 1.287 . S
C1043 C1044 1.524 . S
C1043 H1046 0.999 . S
C1044 H1014 0.950 . S
C1044 C1043 1.524 . S
C1044 C1045 1.415 . S
C1045 H1015 0.950 . S
C1045 C1040 1.363 . S
C1045 C1044 1.415 . S
H1046 C1043 0.999 . S
H1047 C1028 0.913 . S
H1048 C1066 0.951 . S
H1049 C1068 0.951 . S
H1050 C1070 0.950 . S
H1051 C1071 0.950 . S
H1052 C1073 0.950 . S
H1053 C1076 0.950 . S
H1054 C1077 0.950 . S
H1055 C1079 0.950 . S
H1056 C1080 0.950 . S
H1057 C1081 0.951 . S
H1058 C1083 0.951 . S
H1059 C1085 0.950 . S
H1060 C1086 0.950 . S
H1061 C1088 0.950 . S
H1062 C1091 0.950 . S
H1063 C1092 0.950 . S
H1064 C1094 0.950 . S
H1065 C1095 0.950 . S
C1066 H1048 0.951 . S
C1066 C1067 1.366 . S
C1066 C1068 1.388 . S
C1067 C1066 1.366 . S
C1067 C1071 1.385 . S
C1068 H1049 0.951 . S
C1068 C1066 1.388 . S
C1068 C1069 1.366 . S
C1069 C1068 1.366 . S
C1069 C1070 1.414 . S
C1069 C1072 1.499 . S
C1070 H1050 0.950 . S
C1070 C1069 1.414 . S
C1070 C1071 1.374 . S
C1071 H1051 0.950 . S
C1071 C1067 1.385 . S
C1071 C1070 1.374 . S
C1072 C1069 1.499 . S
C1072 C1073 1.373 . S
C1072 C1074 1.389 . S
C1073 H1052 0.950 . S
C1073 C1072 1.373 . S
C1073 C1089 1.377 . S
C1074 C1072 1.389 . S
C1074 C1075 1.524 . S
C1074 C1088 1.377 . S
C1075 C1074 1.524 . S
C1075 C1076 1.397 . S
C1075 C1080 1.363 . S
C1076 H1053 0.950 . S
C1076 C1075 1.397 . S
C1076 C1077 1.334 . S
C1077 H1054 0.950 . S
C1077 C1076 1.334 . S
C1077 C1078 1.287 . S
C1078 C1077 1.287 . S
C1078 C1079 1.524 . S
C1078 H1097 0.913 . S
C1079 H1055 0.950 . S
C1079 C1078 1.524 . S
C1079 C1080 1.415 . S
C1080 H1056 0.950 . S
C1080 C1075 1.363 . S
C1080 C1079 1.415 . S
C1081 H1057 0.951 . S
C1081 C1082 1.366 . S
C1081 C1083 1.388 . S
C1082 C1081 1.366 . S
C1082 C1086 1.385 . S
C1083 H1058 0.951 . S
C1083 C1081 1.388 . S
C1083 C1084 1.366 . S
C1084 C1083 1.366 . S
C1084 C1085 1.414 . S
C1084 C1087 1.499 . S
C1085 H1059 0.950 . S
C1085 C1084 1.414 . S
C1085 C1086 1.374 . S
C1086 H1060 0.950 . S
C1086 C1082 1.385 . S
C1086 C1085 1.374 . S
C1087 C1084 1.499 . S
C1087 C1088 1.373 . S
C1087 C1089 1.389 . S
C1088 H1061 0.950 . S
C1088 C1074 1.377 . S
C1088 C1087 1.373 . S
C1089 C1073 1.377 . S
C1089 C1087 1.389 . S
C1089 C1090 1.524 . S
C1090 C1089 1.524 . S
C1090 C1091 1.397 . S
C1090 C1095 1.363 . S
C1091 H1062 0.950 . S
C1091 C1090 1.397 . S
C1091 C1092 1.334 . S
C1092 H1063 0.950 . S
C1092 C1091 1.334 . S
C1092 C1093 1.287 . S
C1093 C1092 1.287 . S
C1093 C1094 1.524 . S
C1093 H1096 0.999 . S
C1094 H1064 0.950 . S
C1094 C1093 1.524 . S
C1094 C1095 1.415 . S
C1095 H1065 0.950 . S
C1095 C1090 1.363 . S
C1095 C1094 1.415 . S
H1096 C1093 0.999 . S
H1097 C1078 0.913 . S
H1098 C1116 0.951 . S
H1099 C1118 0.951 . S
H1100 C1120 0.950 . S
H1101 C1121 0.950 . S
H1102 C1123 0.950 . S
H1103 C1126 0.950 . S
H1104 C1127 0.950 . S
H1105 C1129 0.950 1_554 S
H1106 C1130 0.950 . S
H1107 C1131 0.951 . S
H1108 C1133 0.951 . S
H1109 C1135 0.950 . S
H1110 C1136 0.950 . S
H1111 C1138 0.950 . S
H1112 C1141 0.950 . S
H1113 C1142 0.950 . S
H1114 C1144 0.950 . S
H1115 C1145 0.950 . S
C1116 H1098 0.951 . S
C1116 C1117 1.366 . S
C1116 C1118 1.388 . S
C1117 C1116 1.366 . S
C1117 C1121 1.385 . S
C1118 H1099 0.951 . S
C1118 C1116 1.388 . S
C1118 C1119 1.366 . S
C1119 C1118 1.366 . S
C1119 C1120 1.414 . S
C1119 C1122 1.499 . S
C1120 H1100 0.950 . S
C1120 C1119 1.414 . S
C1120 C1121 1.374 . S
C1121 H1101 0.950 . S
C1121 C1117 1.385 . S
C1121 C1120 1.374 . S
C1122 C1119 1.499 . S
C1122 C1123 1.373 . S
C1122 C1124 1.389 . S
C1123 H1102 0.950 . S
C1123 C1122 1.373 . S
C1123 C1139 1.377 . S
C1124 C1122 1.389 . S
C1124 C1125 1.524 . S
C1124 C1138 1.377 . S
C1125 C1124 1.524 . S
C1125 C1126 1.397 . S
C1125 C1130 1.363 . S
C1126 H1103 0.950 . S
C1126 C1125 1.397 . S
C1126 C1127 1.334 . S
C1127 H1104 0.950 . S
C1127 C1126 1.334 . S
C1127 C1128 1.287 . S
C1128 C1127 1.287 . S
C1128 C1129 1.524 . S
C1128 H1147 0.913 1_556 S
C1129 H1105 0.950 1_556 S
C1129 C1128 1.524 . S
C1129 C1130 1.415 . S
C1130 H1106 0.950 . S
C1130 C1125 1.363 . S
C1130 C1129 1.415 . S
C1131 H1107 0.951 . S
C1131 C1132 1.366 . S
C1131 C1133 1.388 . S
C1132 C1131 1.366 . S
C1132 C1136 1.385 . S
C1133 H1108 0.951 . S
C1133 C1131 1.388 . S
C1133 C1134 1.366 . S
C1134 C1133 1.366 . S
C1134 C1135 1.414 . S
C1134 C1137 1.499 . S
C1135 H1109 0.950 . S
C1135 C1134 1.414 . S
C1135 C1136 1.374 . S
C1136 H1110 0.950 . S
C1136 C1132 1.385 . S
C1136 C1135 1.374 . S
C1137 C1134 1.499 . S
C1137 C1138 1.373 . S
C1137 C1139 1.389 . S
C1138 H1111 0.950 . S
C1138 C1124 1.377 . S
C1138 C1137 1.373 . S
C1139 C1123 1.377 . S
C1139 C1137 1.389 . S
C1139 C1140 1.524 . S
C1140 C1139 1.524 . S
C1140 C1141 1.397 . S
C1140 C1145 1.363 . S
C1141 H1112 0.950 . S
C1141 C1140 1.397 . S
C1141 C1142 1.334 . S
C1142 H1113 0.950 . S
C1142 C1141 1.334 . S
C1142 C1143 1.287 . S
C1143 C1142 1.287 . S
C1143 C1144 1.524 . S
C1143 H1146 0.999 . S
C1144 H1114 0.950 . S
C1144 C1143 1.524 . S
C1144 C1145 1.415 . S
C1145 H1115 0.950 . S
C1145 C1140 1.363 . S
C1145 C1144 1.415 . S
H1146 C1143 0.999 . S
H1147 C1128 0.913 1_554 S
H1148 C1166 0.951 . S
H1149 C1168 0.951 . S
H1150 C1170 0.950 . S
H1151 C1171 0.950 . S
H1152 C1173 0.950 . S
H1153 C1176 0.950 . S
H1154 C1177 0.950 . S
H1155 C1179 0.950 . S
H1156 C1180 0.950 . S
H1157 C1181 0.951 . S
H1158 C1183 0.951 . S
H1159 C1185 0.950 . S
H1160 C1186 0.950 . S
H1161 C1188 0.950 . S
H1162 C1191 0.950 . S
H1163 C1192 0.950 . S
H1164 C1194 0.950 . S
H1165 C1195 0.950 . S
C1166 H1148 0.951 . S
C1166 C1167 1.366 . S
C1166 C1168 1.388 . S
C1167 C1166 1.366 . S
C1167 C1171 1.385 . S
C1168 H1149 0.951 . S
C1168 C1166 1.388 . S
C1168 C1169 1.366 . S
C1169 C1168 1.366 . S
C1169 C1170 1.414 . S
C1169 C1172 1.499 . S
C1170 H1150 0.950 . S
C1170 C1169 1.414 . S
C1170 C1171 1.374 . S
C1171 H1151 0.950 . S
C1171 C1167 1.385 . S
C1171 C1170 1.374 . S
C1172 C1169 1.499 . S
C1172 C1173 1.373 . S
C1172 C1174 1.389 . S
C1173 H1152 0.950 . S
C1173 C1172 1.373 . S
C1173 C1189 1.377 . S
C1174 C1172 1.389 . S
C1174 C1175 1.524 . S
C1174 C1188 1.377 . S
C1175 C1174 1.524 . S
C1175 C1176 1.397 . S
C1175 C1180 1.363 . S
C1176 H1153 0.950 . S
C1176 C1175 1.397 . S
C1176 C1177 1.334 . S
C1177 H1154 0.950 . S
C1177 C1176 1.334 . S
C1177 C1178 1.287 . S
C1178 C1177 1.287 . S
C1178 C1179 1.524 . S
C1178 H1197 0.913 . S
C1179 H1155 0.950 . S
C1179 C1178 1.524 . S
C1179 C1180 1.415 . S
C1180 H1156 0.950 . S
C1180 C1175 1.363 . S
C1180 C1179 1.415 . S
C1181 H1157 0.951 . S
C1181 C1182 1.366 . S
C1181 C1183 1.388 . S
C1182 C1181 1.366 . S
C1182 C1186 1.385 . S
C1183 H1158 0.951 . S
C1183 C1181 1.388 . S
C1183 C1184 1.366 . S
C1184 C1183 1.366 . S
C1184 C1185 1.414 . S
C1184 C1187 1.499 . S
C1185 H1159 0.950 . S
C1185 C1184 1.414 . S
C1185 C1186 1.374 . S
C1186 H1160 0.950 . S
C1186 C1182 1.385 . S
C1186 C1185 1.374 . S
C1187 C1184 1.499 . S
C1187 C1188 1.373 . S
C1187 C1189 1.389 . S
C1188 H1161 0.950 . S
C1188 C1174 1.377 . S
C1188 C1187 1.373 . S
C1189 C1173 1.377 . S
C1189 C1187 1.389 . S
C1189 C1190 1.524 . S
C1190 C1189 1.524 . S
C1190 C1191 1.397 . S
C1190 C1195 1.363 . S
C1191 H1162 0.950 . S
C1191 C1190 1.397 . S
C1191 C1192 1.334 . S
C1192 H1163 0.950 . S
C1192 C1191 1.334 . S
C1192 C1193 1.287 . S
C1193 C1192 1.287 . S
C1193 C1194 1.524 . S
C1193 H1196 0.999 . S
C1194 H1164 0.950 . S
C1194 C1193 1.524 . S
C1194 C1195 1.415 . S
C1195 H1165 0.950 . S
C1195 C1190 1.363 . S
C1195 C1194 1.415 . S
H1196 C1193 0.999 . S
H1197 C1178 0.913 . S
H1198 C1216 0.951 . S
H1199 C1218 0.951 . S
H1200 C1220 0.950 . S
H1201 C1221 0.950 . S
H1202 C1223 0.950 . S
H1203 C1226 0.950 . S
H1204 C1227 0.950 . S
H1205 C1229 0.950 . S
H1206 C1230 0.950 . S
H1207 C1231 0.951 . S
H1208 C1233 0.951 . S
H1209 C1235 0.950 . S
H1210 C1236 0.950 . S
H1211 C1238 0.950 . S
H1212 C1241 0.950 . S
H1213 C1242 0.950 . S
H1214 C1244 0.950 . S
H1215 C1245 0.950 . S
C1216 H1198 0.951 . S
C1216 C1217 1.366 . S
C1216 C1218 1.388 . S
C1217 C1216 1.366 . S
C1217 C1221 1.385 . S
C1218 H1199 0.951 . S
C1218 C1216 1.388 . S
C1218 C1219 1.366 . S
C1219 C1218 1.366 . S
C1219 C1220 1.414 . S
C1219 C1222 1.499 . S
C1220 H1200 0.950 . S
C1220 C1219 1.414 . S
C1220 C1221 1.374 . S
C1221 H1201 0.950 . S
C1221 C1217 1.385 . S
C1221 C1220 1.374 . S
C1222 C1219 1.499 . S
C1222 C1223 1.373 . S
C1222 C1224 1.389 . S
C1223 H1202 0.950 . S
C1223 C1222 1.373 . S
C1223 C1239 1.377 . S
C1224 C1222 1.389 . S
C1224 C1225 1.524 . S
C1224 C1238 1.377 . S
C1225 C1224 1.524 . S
C1225 C1226 1.397 . S
C1225 C1230 1.363 . S
C1226 H1203 0.950 . S
C1226 C1225 1.397 . S
C1226 C1227 1.334 . S
C1227 H1204 0.950 . S
C1227 C1226 1.334 . S
C1227 C1228 1.287 . S
C1228 C1227 1.287 . S
C1228 C1229 1.524 . S
C1228 H1247 0.913 . S
C1229 H1205 0.950 . S
C1229 C1228 1.524 . S
C1229 C1230 1.415 . S
C1230 H1206 0.950 . S
C1230 C1225 1.363 . S
C1230 C1229 1.415 . S
C1231 H1207 0.951 . S
C1231 C1232 1.366 . S
C1231 C1233 1.388 . S
C1232 C1231 1.366 . S
C1232 C1236 1.385 . S
C1233 H1208 0.951 . S
C1233 C1231 1.388 . S
C1233 C1234 1.366 . S
C1234 C1233 1.366 . S
C1234 C1235 1.414 . S
C1234 C1237 1.499 . S
C1235 H1209 0.950 . S
C1235 C1234 1.414 . S
C1235 C1236 1.374 . S
C1236 H1210 0.950 . S
C1236 C1232 1.385 . S
C1236 C1235 1.374 . S
C1237 C1234 1.499 . S
C1237 C1238 1.373 . S
C1237 C1239 1.389 . S
C1238 H1211 0.950 . S
C1238 C1224 1.377 . S
C1238 C1237 1.373 . S
C1239 C1223 1.377 . S
C1239 C1237 1.389 . S
C1239 C1240 1.524 . S
C1240 C1239 1.524 . S
C1240 C1241 1.397 . S
C1240 C1245 1.363 . S
C1241 H1212 0.950 . S
C1241 C1240 1.397 . S
C1241 C1242 1.334 . S
C1242 H1213 0.950 . S
C1242 C1241 1.334 . S
C1242 C1243 1.287 . S
C1243 C1242 1.287 . S
C1243 C1244 1.524 . S
C1243 H1246 0.999 . S
C1244 H1214 0.950 . S
C1244 C1243 1.524 . S
C1244 C1245 1.415 . S
C1245 H1215 0.950 . S
C1245 C1240 1.363 . S
C1245 C1244 1.415 . S
H1246 C1243 0.999 . S
H1247 C1228 0.913 . S
H1248 C1266 0.951 . S
H1249 C1268 0.951 1_455 S
H1250 C1270 0.950 . S
H1251 C1271 0.950 . S
H1252 C1273 0.950 . S
H1253 C1276 0.950 . S
H1254 C1277 0.950 . S
H1255 C1279 0.950 . S
H1256 C1280 0.950 . S
H1257 C1281 0.951 . S
H1258 C1283 0.951 . S
H1259 C1285 0.950 . S
H1260 C1286 0.950 . S
H1261 C1288 0.950 . S
H1262 C1291 0.950 . S
H1263 C1292 0.950 . S
H1264 C1294 0.950 . S
H1265 C1295 0.950 . S
C1266 H1248 0.951 . S
C1266 C1267 1.366 . S
C1266 C1268 1.388 . S
C1267 C1266 1.366 . S
C1267 C1271 1.385 . S
C1268 H1249 0.951 1_655 S
C1268 C1266 1.388 . S
C1268 C1269 1.366 . S
C1269 C1268 1.366 . S
C1269 C1270 1.414 . S
C1269 C1272 1.499 1_655 S
C1270 H1250 0.950 . S
C1270 C1269 1.414 . S
C1270 C1271 1.374 . S
C1271 H1251 0.950 . S
C1271 C1267 1.385 . S
C1271 C1270 1.374 . S
C1272 C1269 1.499 1_455 S
C1272 C1273 1.373 1_455 S
C1272 C1274 1.389 . S
C1273 H1252 0.950 . S
C1273 C1272 1.373 1_655 S
C1273 C1289 1.377 1_655 S
C1274 C1272 1.389 . S
C1274 C1275 1.524 . S
C1274 C1288 1.377 . S
C1275 C1274 1.524 . S
C1275 C1276 1.397 . S
C1275 C1280 1.363 . S
C1276 H1253 0.950 . S
C1276 C1275 1.397 . S
C1276 C1277 1.334 . S
C1277 H1254 0.950 . S
C1277 C1276 1.334 . S
C1277 C1278 1.287 . S
C1278 C1277 1.287 . S
C1278 C1279 1.524 . S
C1278 H1297 0.913 . S
C1279 H1255 0.950 . S
C1279 C1278 1.524 . S
C1279 C1280 1.415 . S
C1280 H1256 0.950 . S
C1280 C1275 1.363 . S
C1280 C1279 1.415 . S
C1281 H1257 0.951 . S
C1281 C1282 1.366 . S
C1281 C1283 1.388 . S
C1282 C1281 1.366 . S
C1282 C1286 1.385 . S
C1283 H1258 0.951 . S
C1283 C1281 1.388 . S
C1283 C1284 1.366 . S
C1284 C1283 1.366 . S
C1284 C1285 1.414 . S
C1284 C1287 1.499 . S
C1285 H1259 0.950 . S
C1285 C1284 1.414 . S
C1285 C1286 1.374 . S
C1286 H1260 0.950 . S
C1286 C1282 1.385 . S
C1286 C1285 1.374 . S
C1287 C1284 1.499 . S
C1287 C1288 1.373 . S
C1287 C1289 1.389 . S
C1288 H1261 0.950 . S
C1288 C1274 1.377 . S
C1288 C1287 1.373 . S
C1289 C1273 1.377 1_455 S
C1289 C1287 1.389 . S
C1289 C1290 1.524 1_455 S
C1290 C1289 1.524 1_655 S
C1290 C1291 1.397 . S
C1290 C1295 1.363 . S
C1291 H1262 0.950 . S
C1291 C1290 1.397 . S
C1291 C1292 1.334 . S
C1292 H1263 0.950 . S
C1292 C1291 1.334 . S
C1292 C1293 1.287 . S
C1293 C1292 1.287 . S
C1293 C1294 1.524 . S
C1293 H1296 0.999 . S
C1294 H1264 0.950 . S
C1294 C1293 1.524 . S
C1294 C1295 1.415 . S
C1295 H1265 0.950 . S
C1295 C1290 1.363 . S
C1295 C1294 1.415 . S
H1296 C1293 0.999 . S
H1297 C1278 0.913 . S
H1298 C1316 0.951 . S
H1299 C1318 0.951 . S
H1300 C1320 0.950 . S
H1301 C1321 0.950 . S
H1302 C1323 0.950 . S
H1303 C1326 0.950 . S
H1304 C1327 0.950 . S
H1305 C1329 0.950 . S
H1306 C1330 0.950 . S
H1307 C1331 0.951 . S
H1308 C1333 0.951 . S
H1309 C1335 0.950 1_545 S
H1310 C1336 0.950 . S
H1311 C1338 0.950 . S
H1312 C1341 0.950 . S
H1313 C1342 0.950 . S
H1314 C1344 0.950 . S
H1315 C1345 0.950 . S
C1316 H1298 0.951 . S
C1316 C1317 1.366 . S
C1316 C1318 1.388 1_655 S
C1317 C1316 1.366 . S
C1317 C1321 1.385 . S
C1318 H1299 0.951 . S
C1318 C1316 1.388 1_455 S
C1318 C1319 1.366 1_455 S
C1319 C1318 1.366 1_655 S
C1319 C1320 1.414 . S
C1319 C1322 1.499 1_655 S
C1320 H1300 0.950 . S
C1320 C1319 1.414 . S
C1320 C1321 1.374 . S
C1321 H1301 0.950 . S
C1321 C1317 1.385 . S
C1321 C1320 1.374 . S
C1322 C1319 1.499 1_455 S
C1322 C1323 1.373 1_455 S
C1322 C1324 1.389 . S
C1323 H1302 0.950 . S
C1323 C1322 1.373 1_655 S
C1323 C1339 1.377 1_655 S
C1324 C1322 1.389 . S
C1324 C1325 1.524 . S
C1324 C1338 1.377 . S
C1325 C1324 1.524 . S
C1325 C1326 1.397 . S
C1325 C1330 1.363 . S
C1326 H1303 0.950 . S
C1326 C1325 1.397 . S
C1326 C1327 1.334 . S
C1327 H1304 0.950 . S
C1327 C1326 1.334 . S
C1327 C1328 1.287 . S
C1328 C1327 1.287 . S
C1328 C1329 1.524 . S
C1328 H1347 0.913 . S
C1329 H1305 0.950 . S
C1329 C1328 1.524 . S
C1329 C1330 1.415 . S
C1330 H1306 0.950 . S
C1330 C1325 1.363 . S
C1330 C1329 1.415 . S
C1331 H1307 0.951 . S
C1331 C1332 1.366 . S
C1331 C1333 1.388 . S
C1332 C1331 1.366 . S
C1332 C1336 1.385 . S
C1333 H1308 0.951 . S
C1333 C1331 1.388 . S
C1333 C1334 1.366 . S
C1334 C1333 1.366 . S
C1334 C1335 1.414 . S
C1334 C1337 1.499 1_565 S
C1335 H1309 0.950 1_565 S
C1335 C1334 1.414 . S
C1335 C1336 1.374 . S
C1336 H1310 0.950 . S
C1336 C1332 1.385 . S
C1336 C1335 1.374 . S
C1337 C1334 1.499 1_545 S
C1337 C1338 1.373 . S
C1337 C1339 1.389 . S
C1338 H1311 0.950 . S
C1338 C1324 1.377 . S
C1338 C1337 1.373 . S
C1339 C1323 1.377 1_455 S
C1339 C1337 1.389 . S
C1339 C1340 1.524 1_455 S
C1340 C1339 1.524 1_655 S
C1340 C1341 1.397 1_655 S
C1340 C1345 1.363 . S
C1341 H1312 0.950 . S
C1341 C1340 1.397 1_455 S
C1341 C1342 1.334 . S
C1342 H1313 0.950 . S
C1342 C1341 1.334 . S
C1342 C1343 1.287 1_455 S
C1343 C1342 1.287 1_655 S
C1343 C1344 1.524 . S
C1343 H1346 0.999 . S
C1344 H1314 0.950 . S
C1344 C1343 1.524 . S
C1344 C1345 1.415 . S
C1345 H1315 0.950 . S
C1345 C1340 1.363 . S
C1345 C1344 1.415 . S
H1346 C1343 0.999 . S
H1347 C1328 0.913 . S
H1348 C1366 0.951 . S
H1349 C1368 0.951 . S
H1350 C1370 0.950 . S
H1351 C1371 0.950 . S
H1352 C1373 0.950 . S
H1353 C1376 0.969 . S
H1354 C1377 0.950 . S
H1355 C1379 0.950 . S
H1356 C1380 0.950 . S
H1357 C1381 0.951 . S
H1358 C1383 0.951 1_545 S
H1359 C1385 0.950 . S
H1360 C1386 0.950 . S
H1361 C1388 0.950 . S
H1362 C1391 0.950 . S
H1363 C1392 0.950 . S
H1364 C1394 0.950 . S
H1365 C1395 0.950 . S
C1366 H1348 0.951 . S
C1366 C1367 1.366 . S
C1366 C1368 1.388 . S
C1367 C1366 1.366 . S
C1367 C1371 1.385 . S
C1368 H1349 0.951 . S
C1368 C1366 1.388 . S
C1368 C1369 1.366 . S
C1369 C1368 1.366 . S
C1369 C1370 1.414 . S
C1369 C1372 1.499 . S
C1370 H1350 0.950 . S
C1370 C1369 1.414 . S
C1370 C1371 1.374 . S
C1371 H1351 0.950 . S
C1371 C1367 1.385 . S
C1371 C1370 1.374 . S
C1372 C1369 1.499 . S
C1372 C1373 1.373 . S
C1372 C1374 1.389 . S
C1373 H1352 0.950 . S
C1373 C1372 1.373 . S
C1373 C1389 1.377 . S
C1374 C1372 1.389 . S
C1374 C1375 1.524 1_545 S
C1374 C1388 1.377 1_545 S
C1375 C1374 1.524 1_565 S
C1375 C1376 1.397 . S
C1375 C1380 1.363 . S
C1376 H1353 0.969 . S
C1376 C1375 1.397 . S
C1376 C1377 1.334 . S
C1377 H1354 0.950 . S
C1377 C1376 1.334 . S
C1377 C1378 1.287 . S
C1378 C1377 1.287 . S
C1378 C1379 1.524 . S
C1378 H1397 0.913 . S
C1379 H1355 0.950 . S
C1379 C1378 1.524 . S
C1379 C1380 1.415 . S
C1380 H1356 0.950 . S
C1380 C1375 1.363 . S
C1380 C1379 1.415 . S
C1381 H1357 0.951 . S
C1381 C1382 1.366 . S
C1381 C1383 1.388 . S
C1382 C1381 1.366 . S
C1382 C1386 1.385 . S
C1383 H1358 0.951 1_565 S
C1383 C1381 1.388 . S
C1383 C1384 1.366 . S
C1384 C1383 1.366 . S
C1384 C1385 1.414 . S
C1384 C1387 1.499 1_565 S
C1385 H1359 0.950 . S
C1385 C1384 1.414 . S
C1385 C1386 1.374 . S
C1386 H1360 0.950 . S
C1386 C1382 1.385 . S
C1386 C1385 1.374 . S
C1387 C1384 1.499 1_545 S
C1387 C1388 1.373 1_545 S
C1387 C1389 1.389 . S
C1388 H1361 0.950 . S
C1388 C1374 1.377 1_565 S
C1388 C1387 1.373 1_565 S
C1389 C1373 1.377 . S
C1389 C1387 1.389 . S
C1389 C1390 1.524 . S
C1390 C1389 1.524 . S
C1390 C1391 1.397 . S
C1390 C1395 1.363 . S
C1391 H1362 0.950 . S
C1391 C1390 1.397 . S
C1391 C1392 1.334 . S
C1392 H1363 0.950 . S
C1392 C1391 1.334 . S
C1392 C1393 1.287 . S
C1393 C1392 1.287 . S
C1393 C1394 1.524 . S
C1393 H1396 0.999 . S
C1394 H1364 0.950 . S
C1394 C1393 1.524 . S
C1394 C1395 1.415 . S
C1395 H1365 0.950 . S
C1395 C1390 1.363 . S
C1395 C1394 1.415 . S
H1396 C1393 0.999 . S
H1397 C1378 0.913 . S
H1398 C1416 0.951 . S
H1399 C1418 0.951 . S
H1400 C1420 0.950 . S
H1401 C1421 0.950 . S
H1402 C1423 0.950 . S
H1403 C1426 0.950 . S
H1404 C1427 0.950 . S
H1405 C1429 0.950 . S
H1406 C1430 0.950 . S
H1407 C1431 0.951 . S
H1408 C1433 0.951 . S
H1409 C1435 0.950 . S
H1410 C1436 0.950 . S
H1411 C1438 0.950 . S
H1412 C1441 0.950 . S
H1413 C1442 0.950 . S
H1414 C1444 0.950 . S
H1415 C1445 0.950 . S
C1416 H1398 0.951 . S
C1416 C1417 1.366 . S
C1416 C1418 1.388 . S
C1417 C1416 1.366 . S
C1417 C1421 1.385 . S
C1418 H1399 0.951 . S
C1418 C1416 1.388 . S
C1418 C1419 1.366 . S
C1419 C1418 1.366 . S
C1419 C1420 1.414 . S
C1419 C1422 1.499 . S
C1420 H1400 0.950 . S
C1420 C1419 1.414 . S
C1420 C1421 1.374 . S
C1421 H1401 0.950 . S
C1421 C1417 1.385 . S
C1421 C1420 1.374 . S
C1422 C1419 1.499 . S
C1422 C1423 1.373 . S
C1422 C1424 1.389 . S
C1423 H1402 0.950 . S
C1423 C1422 1.373 . S
C1423 C1439 1.377 . S
C1424 C1422 1.389 . S
C1424 C1425 1.524 . S
C1424 C1438 1.377 . S
C1425 C1424 1.524 . S
C1425 C1426 1.397 . S
C1425 C1430 1.363 . S
C1426 H1403 0.950 . S
C1426 C1425 1.397 . S
C1426 C1427 1.334 . S
C1427 H1404 0.950 . S
C1427 C1426 1.334 . S
C1427 C1428 1.287 . S
C1428 C1427 1.287 . S
C1428 C1429 1.524 . S
C1428 H1447 0.913 . S
C1429 H1405 0.950 . S
C1429 C1428 1.524 . S
C1429 C1430 1.415 . S
C1430 H1406 0.950 . S
C1430 C1425 1.363 . S
C1430 C1429 1.415 . S
C1431 H1407 0.951 . S
C1431 C1432 1.366 . S
C1431 C1433 1.388 . S
C1432 C1431 1.366 . S
C1432 C1436 1.385 . S
C1433 H1408 0.951 . S
C1433 C1431 1.388 . S
C1433 C1434 1.366 . S
C1434 C1433 1.366 . S
C1434 C1435 1.414 . S
C1434 C1437 1.499 . S
C1435 H1409 0.950 . S
C1435 C1434 1.414 . S
C1435 C1436 1.374 . S
C1436 H1410 0.950 . S
C1436 C1432 1.385 . S
C1436 C1435 1.374 . S
C1437 C1434 1.499 . S
C1437 C1438 1.373 . S
C1437 C1439 1.389 . S
C1438 H1411 0.950 . S
C1438 C1424 1.377 . S
C1438 C1437 1.373 . S
C1439 C1423 1.377 . S
C1439 C1437 1.389 . S
C1439 C1440 1.524 . S
C1440 C1439 1.524 . S
C1440 C1441 1.397 . S
C1440 C1445 1.363 . S
C1441 H1412 0.950 . S
C1441 C1440 1.397 . S
C1441 C1442 1.334 . S
C1442 H1413 0.950 . S
C1442 C1441 1.334 . S
C1442 C1443 1.287 . S
C1443 C1442 1.287 . S
C1443 C1444 1.524 . S
C1443 H1446 0.999 . S
C1444 H1414 0.950 . S
C1444 C1443 1.524 . S
C1444 C1445 1.415 . S
C1445 H1415 0.950 . S
C1445 C1440 1.363 . S
C1445 C1444 1.415 . S
H1446 C1443 0.999 . S
H1447 C1428 0.913 . S
H1448 C1466 0.951 . S
H1449 C1468 0.951 . S
H1450 C1470 0.950 . S
H1451 C1471 0.950 . S
H1452 C1473 0.950 . S
H1453 C1476 0.950 . S
H1454 C1477 0.950 . S
H1455 C1479 0.950 . S
H1456 C1480 0.950 . S
H1457 C1481 0.951 . S
H1458 C1483 0.951 . S
H1459 C1485 0.950 1_455 S
H1460 C1486 0.950 . S
H1461 C1488 0.950 . S
H1462 C1491 0.950 . S
H1463 C1492 0.950 . S
H1464 C1494 0.950 . S
H1465 C1495 0.950 . S
C1466 H1448 0.951 . S
C1466 C1467 1.366 . S
C1466 C1468 1.388 . S
C1467 C1466 1.366 . S
C1467 C1471 1.385 . S
C1468 H1449 0.951 . S
C1468 C1466 1.388 . S
C1468 C1469 1.366 . S
C1469 C1468 1.366 . S
C1469 C1470 1.414 . S
C1469 C1472 1.499 . S
C1470 H1450 0.950 . S
C1470 C1469 1.414 . S
C1470 C1471 1.374 . S
C1471 H1451 0.950 . S
C1471 C1467 1.385 . S
C1471 C1470 1.374 . S
C1472 C1469 1.499 . S
C1472 C1473 1.373 1_455 S
C1472 C1474 1.389 . S
C1473 H1452 0.950 . S
C1473 C1472 1.373 1_655 S
C1473 C1489 1.377 . S
C1474 C1472 1.389 . S
C1474 C1475 1.524 . S
C1474 C1488 1.377 . S
C1475 C1474 1.524 . S
C1475 C1476 1.397 . S
C1475 C1480 1.363 . S
C1476 H1453 0.950 . S
C1476 C1475 1.397 . S
C1476 C1477 1.334 . S
C1477 H1454 0.950 . S
C1477 C1476 1.334 . S
C1477 C1478 1.287 . S
C1478 C1477 1.287 . S
C1478 C1479 1.524 . S
C1478 H1497 0.913 . S
C1479 H1455 0.950 . S
C1479 C1478 1.524 . S
C1479 C1480 1.415 . S
C1480 H1456 0.950 . S
C1480 C1475 1.363 . S
C1480 C1479 1.415 . S
C1481 H1457 0.951 . S
C1481 C1482 1.366 . S
C1481 C1483 1.388 . S
C1482 C1481 1.366 . S
C1482 C1486 1.385 . S
C1483 H1458 0.951 . S
C1483 C1481 1.388 . S
C1483 C1484 1.366 . S
C1484 C1483 1.366 . S
C1484 C1485 1.414 . S
C1484 C1487 1.499 . S
C1485 H1459 0.950 1_655 S
C1485 C1484 1.414 . S
C1485 C1486 1.374 . S
C1486 H1460 0.950 . S
C1486 C1482 1.385 . S
C1486 C1485 1.374 . S
C1487 C1484 1.499 . S
C1487 C1488 1.373 1_655 S
C1487 C1489 1.389 . S
C1488 H1461 0.950 . S
C1488 C1474 1.377 . S
C1488 C1487 1.373 1_455 S
C1489 C1473 1.377 . S
C1489 C1487 1.389 . S
C1489 C1490 1.524 . S
C1490 C1489 1.524 . S
C1490 C1491 1.397 . S
C1490 C1495 1.363 . S
C1491 H1462 0.950 . S
C1491 C1490 1.397 . S
C1491 C1492 1.334 . S
C1492 H1463 0.950 . S
C1492 C1491 1.334 . S
C1492 C1493 1.287 . S
C1493 C1492 1.287 . S
C1493 C1494 1.524 . S
C1493 H1496 0.999 . S
C1494 H1464 0.950 . S
C1494 C1493 1.524 . S
C1494 C1495 1.415 . S
C1495 H1465 0.950 . S
C1495 C1490 1.363 . S
C1495 C1494 1.415 . S
H1496 C1493 0.999 . S
H1497 C1478 0.913 . S
H1498 C1516 0.951 . S
H1499 C1518 0.951 . S
H1500 C1520 0.950 1_545 S
H1501 C1521 0.950 . S
H1502 C1523 0.950 . S
H1503 C1526 0.950 . S
H1504 C1527 0.950 . S
H1505 C1529 0.950 . S
H1506 C1530 0.950 1_655 S
H1507 C1531 0.951 . S
H1508 C1533 0.951 1_455 S
H1509 C1535 0.950 . S
H1510 C1536 0.950 . S
H1511 C1538 0.950 1_655 S
H1512 C1541 0.950 . S
H1513 C1542 0.950 . S
H1514 C1544 0.950 1_455 S
H1515 C1545 0.950 . S
C1516 H1498 0.951 . S
C1516 C1517 1.366 . S
C1516 C1518 1.388 . S
C1517 C1516 1.366 . S
C1517 C1521 1.385 . S
C1518 H1499 0.951 . S
C1518 C1516 1.388 . S
C1518 C1519 1.366 . S
C1519 C1518 1.366 . S
C1519 C1520 1.414 . S
C1519 C1522 1.499 . S
C1520 H1500 0.950 1_565 S
C1520 C1519 1.414 . S
C1520 C1521 1.374 . S
C1521 H1501 0.950 . S
C1521 C1517 1.385 . S
C1521 C1520 1.374 . S
C1522 C1519 1.499 . S
C1522 C1523 1.373 1_565 S
C1522 C1524 1.389 . S
C1523 H1502 0.950 . S
C1523 C1522 1.373 1_545 S
C1523 C1539 1.394 . S
C1524 C1522 1.389 . S
C1524 C1525 1.524 . S
C1524 C1538 1.377 . S
C1525 C1524 1.524 . S
C1525 C1526 1.397 . S
C1525 C1530 1.363 . S
C1526 H1503 0.950 . S
C1526 C1525 1.397 . S
C1526 C1527 1.334 . S
C1527 H1504 0.950 . S
C1527 C1526 1.334 . S
C1527 C1528 1.287 . S
C1528 C1527 1.287 . S
C1528 C1529 1.524 . S
C1528 H1547 0.913 . S
C1529 H1505 0.950 . S
C1529 C1528 1.524 . S
C1529 C1530 1.415 . S
C1530 H1506 0.950 1_455 S
C1530 C1525 1.363 . S
C1530 C1529 1.415 . S
C1531 H1507 0.951 . S
C1531 C1532 1.366 . S
C1531 C1533 1.388 . S
C1532 C1531 1.366 . S
C1532 C1536 1.385 . S
C1533 H1508 0.951 1_655 S
C1533 C1531 1.388 . S
C1533 C1534 1.366 . S
C1534 C1533 1.366 . S
C1534 C1535 1.414 . S
C1534 C1537 1.499 . S
C1535 H1509 0.950 . S
C1535 C1534 1.414 . S
C1535 C1536 1.374 . S
C1536 H1510 0.950 . S
C1536 C1532 1.385 . S
C1536 C1535 1.374 . S
C1537 C1534 1.499 . S
C1537 C1538 1.373 1_645 S
C1537 C1539 1.383 1_655 S
C1538 H1511 0.950 1_455 S
C1538 C1524 1.377 . S
C1538 C1537 1.373 1_465 S
C1539 C1523 1.394 . S
C1539 C1537 1.383 1_455 S
C1539 C1540 1.513 1_455 S
C1540 C1539 1.513 1_655 S
C1540 C1541 1.397 . S
C1540 C1545 1.363 1_655 S
C1541 H1512 0.950 . S
C1541 C1540 1.397 . S
C1541 C1542 1.334 . S
C1542 H1513 0.950 . S
C1542 C1541 1.334 . S
C1542 C1543 1.287 . S
C1543 C1542 1.287 . S
C1543 C1544 1.524 . S
C1543 H1546 0.999 . S
C1544 H1514 0.950 1_655 S
C1544 C1543 1.524 . S
C1544 C1545 1.415 1_655 S
C1545 H1515 0.950 . S
C1545 C1540 1.363 1_455 S
C1545 C1544 1.415 1_455 S
H1546 C1543 0.999 . S
H1547 C1528 0.913 . S
H1548 C1566 0.951 . S
H1549 C1568 0.951 . S
H1550 C1570 0.950 . S
H1551 C1571 0.950 . S
H1552 C1573 0.950 . S
H1553 C1576 0.950 . S
H1554 C1577 0.950 . S
H1555 C1579 0.950 . S
H1556 C1580 0.950 . S
H1557 C1581 0.951 . S
H1558 C1583 0.951 . S
H1559 C1585 0.950 1_545 S
H1560 C1586 0.950 . S
H1561 C1588 0.950 . S
H1562 C1591 0.950 . S
H1563 C1592 0.950 . S
H1564 C1594 0.950 . S
H1565 C1595 0.950 . S
C1566 H1548 0.951 . S
C1566 C1567 1.366 . S
C1566 C1568 1.388 . S
C1567 C1566 1.366 . S
C1567 C1571 1.385 . S
C1568 H1549 0.951 . S
C1568 C1566 1.388 . S
C1568 C1569 1.366 . S
C1569 C1568 1.366 . S
C1569 C1570 1.414 . S
C1569 C1572 1.499 . S
C1570 H1550 0.950 . S
C1570 C1569 1.414 . S
C1570 C1571 1.374 . S
C1571 H1551 0.950 . S
C1571 C1567 1.385 . S
C1571 C1570 1.374 . S
C1572 C1569 1.499 . S
C1572 C1573 1.373 1_545 S
C1572 C1574 1.389 . S
C1573 H1552 0.950 . S
C1573 C1572 1.373 1_565 S
C1573 C1589 1.377 . S
C1574 C1572 1.389 . S
C1574 C1575 1.524 . S
C1574 C1588 1.377 . S
C1575 C1574 1.524 . S
C1575 C1576 1.397 . S
C1575 C1580 1.363 . S
C1576 H1553 0.950 . S
C1576 C1575 1.397 . S
C1576 C1577 1.334 . S
C1577 H1554 0.950 . S
C1577 C1576 1.334 . S
C1577 C1578 1.287 . S
C1578 C1577 1.287 . S
C1578 C1579 1.524 . S
C1578 H1597 0.913 . S
C1579 H1555 0.950 . S
C1579 C1578 1.524 . S
C1579 C1580 1.415 . S
C1580 H1556 0.950 . S
C1580 C1575 1.363 . S
C1580 C1579 1.415 . S
C1581 H1557 0.951 . S
C1581 C1582 1.366 . S
C1581 C1583 1.388 . S
C1582 C1581 1.366 . S
C1582 C1586 1.385 . S
C1583 H1558 0.951 . S
C1583 C1581 1.388 . S
C1583 C1584 1.366 . S
C1584 C1583 1.366 . S
C1584 C1585 1.414 . S
C1584 C1587 1.499 . S
C1585 H1559 0.950 1_565 S
C1585 C1584 1.414 . S
C1585 C1586 1.374 . S
C1586 H1560 0.950 . S
C1586 C1582 1.385 . S
C1586 C1585 1.374 . S
C1587 C1584 1.499 . S
C1587 C1588 1.373 1_565 S
C1587 C1589 1.389 . S
C1588 H1561 0.950 . S
C1588 C1574 1.377 . S
C1588 C1587 1.373 1_545 S
C1589 C1573 1.377 . S
C1589 C1587 1.389 . S
C1589 C1590 1.524 . S
C1590 C1589 1.524 . S
C1590 C1591 1.397 . S
C1590 C1595 1.363 . S
C1591 H1562 0.950 . S
C1591 C1590 1.397 . S
C1591 C1592 1.334 . S
C1592 H1563 0.950 . S
C1592 C1591 1.334 . S
C1592 C1593 1.287 . S
C1593 C1592 1.287 . S
C1593 C1594 1.524 . S
C1593 H1596 0.999 . S
C1594 H1564 0.950 . S
C1594 C1593 1.524 . S
C1594 C1595 1.415 . S
C1595 H1565 0.950 . S
C1595 C1590 1.363 . S
C1595 C1594 1.415 . S
H1596 C1593 0.999 . S
H1597 C1578 0.913 . S
H1598 C1616 0.951 . S
H1599 C1618 0.951 . S
H1600 C1620 0.950 . S
H1601 C1621 0.950 . S
H1602 C1623 0.950 . S
H1603 C1626 0.950 . S
H1604 C1627 0.950 . S
H1605 C1629 0.950 . S
H1606 C1630 0.950 . S
H1607 C1631 0.951 . S
H1608 C1633 0.951 . S
H1609 C1635 0.950 . S
H1610 C1636 0.950 . S
H1611 C1638 0.950 . S
H1612 C1641 0.950 . S
H1613 C1642 0.950 . S
H1614 C1644 0.950 . S
H1615 C1645 0.950 . S
C1616 H1598 0.951 . S
C1616 C1617 1.366 . S
C1616 C1618 1.388 . S
C1617 C1616 1.366 . S
C1617 C1621 1.385 . S
C1618 H1599 0.951 . S
C1618 C1616 1.388 . S
C1618 C1619 1.366 . S
C1619 C1618 1.366 . S
C1619 C1620 1.414 . S
C1619 C1622 1.499 . S
C1620 H1600 0.950 . S
C1620 C1619 1.414 . S
C1620 C1621 1.374 . S
C1621 H1601 0.950 . S
C1621 C1617 1.385 . S
C1621 C1620 1.374 . S
C1622 C1619 1.499 . S
C1622 C1623 1.373 . S
C1622 C1624 1.389 . S
C1623 H1602 0.950 . S
C1623 C1622 1.373 . S
C1623 C1639 1.377 . S
C1624 C1622 1.389 . S
C1624 C1625 1.524 . S
C1624 C1638 1.377 . S
C1625 C1624 1.524 . S
C1625 C1626 1.397 . S
C1625 C1630 1.363 . S
C1626 H1603 0.950 . S
C1626 C1625 1.397 . S
C1626 C1627 1.334 . S
C1627 H1604 0.950 . S
C1627 C1626 1.334 . S
C1627 C1628 1.287 . S
C1628 C1627 1.287 . S
C1628 C1629 1.524 . S
C1628 H1647 0.913 . S
C1629 H1605 0.950 . S
C1629 C1628 1.524 . S
C1629 C1630 1.415 . S
C1630 H1606 0.950 . S
C1630 C1625 1.363 . S
C1630 C1629 1.415 . S
C1631 H1607 0.951 . S
C1631 C1632 1.366 . S
C1631 C1633 1.388 . S
C1632 C1631 1.366 . S
C1632 C1636 1.385 . S
C1633 H1608 0.951 . S
C1633 C1631 1.388 . S
C1633 C1634 1.366 . S
C1634 C1633 1.366 . S
C1634 C1635 1.414 . S
C1634 C1637 1.499 . S
C1635 H1609 0.950 . S
C1635 C1634 1.414 . S
C1635 C1636 1.374 . S
C1636 H1610 0.950 . S
C1636 C1632 1.385 . S
C1636 C1635 1.374 . S
C1637 C1634 1.499 . S
C1637 C1638 1.373 . S
C1637 C1639 1.389 . S
C1638 H1611 0.950 . S
C1638 C1624 1.377 . S
C1638 C1637 1.373 . S
C1639 C1623 1.377 . S
C1639 C1637 1.389 . S
C1639 C1640 1.524 . S
C1640 C1639 1.524 . S
C1640 C1641 1.397 . S
C1640 C1645 1.363 . S
C1641 H1612 0.950 . S
C1641 C1640 1.397 . S
C1641 C1642 1.334 . S
C1642 H1613 0.950 . S
C1642 C1641 1.334 . S
C1642 C1643 1.287 . S
C1643 C1642 1.287 . S
C1643 C1644 1.524 . S
C1643 H1646 0.999 . S
C1644 H1614 0.950 . S
C1644 C1643 1.524 . S
C1644 C1645 1.415 . S
C1645 H1615 0.950 . S
C1645 C1640 1.363 . S
C1645 C1644 1.415 . S
H1646 C1643 0.999 . S
H1647 C1628 0.913 . S
H1648 C1666 0.951 . S
H1649 C1668 0.951 . S
H1650 C1670 0.950 . S
H1651 C1671 0.950 . S
H1652 C1673 0.950 . S
H1653 C1676 0.950 . S
H1654 C1677 0.950 . S
H1655 C1679 0.950 . S
H1656 C1680 0.950 . S
H1657 C1681 0.951 . S
H1658 C1683 0.951 . S
H1659 C1685 0.950 . S
H1660 C1686 0.950 . S
H1661 C1688 0.950 . S
H1662 C1691 0.950 . S
H1663 C1692 0.950 . S
H1664 C1694 0.950 . S
H1665 C1695 0.950 . S
C1666 H1648 0.951 . S
C1666 C1667 1.366 . S
C1666 C1668 1.388 . S
C1667 C1666 1.366 . S
C1667 C1671 1.385 . S
C1668 H1649 0.951 . S
C1668 C1666 1.388 . S
C1668 C1669 1.366 . S
C1669 C1668 1.366 . S
C1669 C1670 1.414 . S
C1669 C1672 1.499 . S
C1670 H1650 0.950 . S
C1670 C1669 1.414 . S
C1670 C1671 1.374 . S
C1671 H1651 0.950 . S
C1671 C1667 1.385 . S
C1671 C1670 1.374 . S
C1672 C1669 1.499 . S
C1672 C1673 1.373 . S
C1672 C1674 1.389 . S
C1673 H1652 0.950 . S
C1673 C1672 1.373 . S
C1673 C1689 1.377 . S
C1674 C1672 1.389 . S
C1674 C1675 1.524 . S
C1674 C1688 1.377 . S
C1675 C1674 1.524 . S
C1675 C1676 1.397 . S
C1675 C1680 1.363 . S
C1676 H1653 0.950 . S
C1676 C1675 1.397 . S
C1676 C1677 1.334 . S
C1677 H1654 0.950 . S
C1677 C1676 1.334 . S
C1677 C1678 1.287 . S
C1678 C1677 1.287 . S
C1678 C1679 1.524 . S
C1678 H1697 0.913 . S
C1679 H1655 0.950 . S
C1679 C1678 1.524 . S
C1679 C1680 1.415 . S
C1680 H1656 0.950 . S
C1680 C1675 1.363 . S
C1680 C1679 1.415 . S
C1681 H1657 0.951 . S
C1681 C1682 1.366 . S
C1681 C1683 1.388 . S
C1682 C1681 1.366 . S
C1682 C1686 1.385 . S
C1683 H1658 0.951 . S
C1683 C1681 1.388 . S
C1683 C1684 1.366 . S
C1684 C1683 1.366 . S
C1684 C1685 1.414 . S
C1684 C1687 1.499 . S
C1685 H1659 0.950 . S
C1685 C1684 1.414 . S
C1685 C1686 1.374 . S
C1686 H1660 0.950 . S
C1686 C1682 1.385 . S
C1686 C1685 1.374 . S
C1687 C1684 1.499 . S
C1687 C1688 1.373 . S
C1687 C1689 1.389 . S
C1688 H1661 0.950 . S
C1688 C1674 1.377 . S
C1688 C1687 1.373 . S
C1689 C1673 1.377 . S
C1689 C1687 1.389 . S
C1689 C1690 1.524 . S
C1690 C1689 1.524 . S
C1690 C1691 1.397 . S
C1690 C1695 1.363 . S
C1691 H1662 0.950 . S
C1691 C1690 1.397 . S
C1691 C1692 1.334 . S
C1692 H1663 0.950 . S
C1692 C1691 1.334 . S
C1692 C1693 1.287 . S
C1693 C1692 1.287 . S
C1693 C1694 1.524 . S
C1693 H1696 0.999 . S
C1694 H1664 0.950 . S
C1694 C1693 1.524 . S
C1694 C1695 1.415 . S
C1695 H1665 0.950 . S
C1695 C1690 1.363 . S
C1695 C1694 1.415 . S
H1696 C1693 0.999 . S
H1697 C1678 0.913 . S
H1698 C1716 0.951 . S
H1699 C1718 0.951 . S
H1700 C1720 0.950 . S
H1701 C1721 0.950 . S
H1702 C1723 0.950 . S
H1703 C1726 0.950 . S
H1704 C1727 0.950 . S
H1705 C1729 0.950 . S
H1706 C1730 0.950 . S
H1707 C1731 0.951 . S
H1708 C1733 0.951 . S
H1709 C1735 0.950 . S
H1710 C1736 0.950 . S
H1711 C1738 0.950 . S
H1712 C1741 0.950 . S
H1713 C1742 0.950 . S
H1714 C1744 0.950 . S
H1715 C1745 0.950 . S
C1716 H1698 0.951 . S
C1716 C1717 1.366 . S
C1716 C1718 1.388 . S
C1717 C1716 1.366 . S
C1717 C1721 1.385 . S
C1718 H1699 0.951 . S
C1718 C1716 1.388 . S
C1718 C1719 1.366 . S
C1719 C1718 1.366 . S
C1719 C1720 1.414 . S
C1719 C1722 1.499 . S
C1720 H1700 0.950 . S
C1720 C1719 1.414 . S
C1720 C1721 1.374 . S
C1721 H1701 0.950 . S
C1721 C1717 1.385 . S
C1721 C1720 1.374 . S
C1722 C1719 1.499 . S
C1722 C1723 1.373 . S
C1722 C1724 1.389 . S
C1723 H1702 0.950 . S
C1723 C1722 1.373 . S
C1723 C1739 1.377 . S
C1724 C1722 1.389 . S
C1724 C1725 1.524 . S
C1724 C1738 1.377 . S
C1725 C1724 1.524 . S
C1725 C1726 1.397 . S
C1725 C1730 1.363 . S
C1726 H1703 0.950 . S
C1726 C1725 1.397 . S
C1726 C1727 1.334 . S
C1727 H1704 0.950 . S
C1727 C1726 1.334 . S
C1727 C1728 1.287 . S
C1728 C1727 1.287 . S
C1728 C1729 1.524 . S
C1728 H1747 0.913 . S
C1729 H1705 0.950 . S
C1729 C1728 1.524 . S
C1729 C1730 1.415 . S
C1730 H1706 0.950 . S
C1730 C1725 1.363 . S
C1730 C1729 1.415 . S
C1731 H1707 0.951 . S
C1731 C1732 1.366 . S
C1731 C1733 1.388 . S
C1732 C1731 1.366 . S
C1732 C1736 1.385 . S
C1733 H1708 0.951 . S
C1733 C1731 1.388 . S
C1733 C1734 1.366 . S
C1734 C1733 1.366 . S
C1734 C1735 1.414 . S
C1734 C1737 1.499 . S
C1735 H1709 0.950 . S
C1735 C1734 1.414 . S
C1735 C1736 1.374 . S
C1736 H1710 0.950 . S
C1736 C1732 1.385 . S
C1736 C1735 1.374 . S
C1737 C1734 1.499 . S
C1737 C1738 1.373 . S
C1737 C1739 1.389 . S
C1738 H1711 0.950 . S
C1738 C1724 1.377 . S
C1738 C1737 1.373 . S
C1739 C1723 1.377 . S
C1739 C1737 1.389 . S
C1739 C1740 1.524 . S
C1740 C1739 1.524 . S
C1740 C1741 1.397 . S
C1740 C1745 1.363 . S
C1741 H1712 0.950 . S
C1741 C1740 1.397 . S
C1741 C1742 1.334 . S
C1742 H1713 0.950 . S
C1742 C1741 1.334 . S
C1742 C1743 1.287 . S
C1743 C1742 1.287 . S
C1743 C1744 1.524 . S
C1743 H1746 0.999 . S
C1744 H1714 0.950 . S
C1744 C1743 1.524 . S
C1744 C1745 1.415 . S
C1745 H1715 0.950 . S
C1745 C1740 1.363 . S
C1745 C1744 1.415 . S
H1746 C1743 0.999 . S
H1747 C1728 0.913 . S
H1748 C1766 0.951 . S
H1749 C1768 0.951 . S
H1750 C1770 0.950 . S
H1751 C1771 0.950 . S
H1752 C1773 0.950 . S
H1753 C1776 0.950 . S
H1754 C1777 0.950 . S
H1755 C1779 0.950 . S
H1756 C1780 0.950 . S
H1757 C1781 0.951 . S
H1758 C1783 0.951 . S
H1759 C1785 0.950 . S
H1760 C1786 0.950 . S
H1761 C1788 0.950 . S
H1762 C1791 0.950 . S
H1763 C1792 0.950 . S
H1764 C1794 0.950 . S
H1765 C1795 0.950 . S
C1766 H1748 0.951 . S
C1766 C1767 1.366 . S
C1766 C1768 1.388 . S
C1767 C1766 1.366 . S
C1767 C1771 1.385 . S
C1768 H1749 0.951 . S
C1768 C1766 1.388 . S
C1768 C1769 1.366 . S
C1769 C1768 1.366 . S
C1769 C1770 1.414 . S
C1769 C1772 1.499 . S
C1770 H1750 0.950 . S
C1770 C1769 1.414 . S
C1770 C1771 1.374 . S
C1771 H1751 0.950 . S
C1771 C1767 1.385 . S
C1771 C1770 1.374 . S
C1772 C1769 1.499 . S
C1772 C1773 1.373 . S
C1772 C1774 1.389 . S
C1773 H1752 0.950 . S
C1773 C1772 1.373 . S
C1773 C1789 1.377 . S
C1774 C1772 1.389 . S
C1774 C1775 1.524 . S
C1774 C1788 1.377 . S
C1775 C1774 1.524 . S
C1775 C1776 1.397 . S
C1775 C1780 1.363 . S
C1776 H1753 0.950 . S
C1776 C1775 1.397 . S
C1776 C1777 1.334 . S
C1777 H1754 0.950 . S
C1777 C1776 1.334 . S
C1777 C1778 1.287 . S
C1778 C1777 1.287 . S
C1778 C1779 1.524 . S
C1778 H1797 0.913 . S
C1779 H1755 0.950 . S
C1779 C1778 1.524 . S
C1779 C1780 1.415 . S
C1780 H1756 0.950 . S
C1780 C1775 1.363 . S
C1780 C1779 1.415 . S
C1781 H1757 0.951 . S
C1781 C1782 1.366 . S
C1781 C1783 1.388 . S
C1782 C1781 1.366 . S
C1782 C1786 1.385 . S
C1783 H1758 0.951 . S
C1783 C1781 1.388 . S
C1783 C1784 1.366 . S
C1784 C1783 1.366 . S
C1784 C1785 1.414 . S
C1784 C1787 1.499 . S
C1785 H1759 0.950 . S
C1785 C1784 1.414 . S
C1785 C1786 1.374 . S
C1786 H1760 0.950 . S
C1786 C1782 1.385 . S
C1786 C1785 1.374 . S
C1787 C1784 1.499 . S
C1787 C1788 1.373 . S
C1787 C1789 1.389 . S
C1788 H1761 0.950 . S
C1788 C1774 1.377 . S
C1788 C1787 1.373 . S
C1789 C1773 1.377 . S
C1789 C1787 1.389 . S
C1789 C1790 1.524 . S
C1790 C1789 1.524 . S
C1790 C1791 1.397 . S
C1790 C1795 1.363 . S
C1791 H1762 0.950 . S
C1791 C1790 1.397 . S
C1791 C1792 1.334 . S
C1792 H1763 0.950 . S
C1792 C1791 1.334 . S
C1792 C1793 1.287 . S
C1793 C1792 1.287 . S
C1793 C1794 1.524 . S
C1793 H1796 0.999 . S
C1794 H1764 0.950 . S
C1794 C1793 1.524 . S
C1794 C1795 1.415 . S
C1795 H1765 0.950 . S
C1795 C1790 1.363 . S
C1795 C1794 1.415 . S
H1796 C1793 0.999 . S
H1797 C1778 0.913 . S
H1798 C1816 0.951 . S
H1799 C1818 0.951 . S
H1800 C1820 0.950 . S
H1801 C1821 0.950 . S
H1802 C1823 0.950 . S
H1803 C1826 0.950 . S
H1804 C1827 0.950 . S
H1805 C1829 0.950 . S
H1806 C1830 0.950 . S
H1807 C1831 0.951 . S
H1808 C1833 0.951 . S
H1809 C1835 0.950 . S
H1810 C1836 0.950 . S
H1811 C1838 0.950 . S
H1812 C1841 0.950 . S
H1813 C1842 0.950 . S
H1814 C1844 0.950 . S
H1815 C1845 0.950 . S
C1816 H1798 0.951 . S
C1816 C1817 1.366 . S
C1816 C1818 1.388 . S
C1817 C1816 1.366 . S
C1817 C1821 1.385 . S
C1818 H1799 0.951 . S
C1818 C1816 1.388 . S
C1818 C1819 1.366 . S
C1819 C1818 1.366 . S
C1819 C1820 1.414 . S
C1819 C1822 1.499 . S
C1820 H1800 0.950 . S
C1820 C1819 1.414 . S
C1820 C1821 1.374 . S
C1821 H1801 0.950 . S
C1821 C1817 1.385 . S
C1821 C1820 1.374 . S
C1822 C1819 1.499 . S
C1822 C1823 1.373 . S
C1822 C1824 1.389 . S
C1823 H1802 0.950 . S
C1823 C1822 1.373 . S
C1823 C1839 1.377 . S
C1824 C1822 1.389 . S
C1824 C1825 1.524 . S
C1824 C1838 1.377 . S
C1825 C1824 1.524 . S
C1825 C1826 1.397 . S
C1825 C1830 1.363 . S
C1826 H1803 0.950 . S
C1826 C1825 1.397 . S
C1826 C1827 1.334 . S
C1827 H1804 0.950 . S
C1827 C1826 1.334 . S
C1827 C1828 1.287 . S
C1828 C1827 1.287 . S
C1828 C1829 1.524 . S
C1828 H1847 0.913 . S
C1829 H1805 0.950 . S
C1829 C1828 1.524 . S
C1829 C1830 1.415 . S
C1830 H1806 0.950 . S
C1830 C1825 1.363 . S
C1830 C1829 1.415 . S
C1831 H1807 0.951 . S
C1831 C1832 1.366 . S
C1831 C1833 1.388 . S
C1832 C1831 1.366 . S
C1832 C1836 1.385 . S
C1833 H1808 0.951 . S
C1833 C1831 1.388 . S
C1833 C1834 1.366 . S
C1834 C1833 1.366 . S
C1834 C1835 1.414 . S
C1834 C1837 1.499 . S
C1835 H1809 0.950 . S
C1835 C1834 1.414 . S
C1835 C1836 1.374 . S
C1836 H1810 0.950 . S
C1836 C1832 1.385 . S
C1836 C1835 1.374 . S
C1837 C1834 1.499 . S
C1837 C1838 1.373 . S
C1837 C1839 1.389 . S
C1838 H1811 0.950 . S
C1838 C1824 1.377 . S
C1838 C1837 1.373 . S
C1839 C1823 1.377 . S
C1839 C1837 1.389 . S
C1839 C1840 1.524 . S
C1840 C1839 1.524 . S
C1840 C1841 1.397 . S
C1840 C1845 1.363 . S
C1841 H1812 0.950 . S
C1841 C1840 1.397 . S
C1841 C1842 1.334 . S
C1842 H1813 0.950 . S
C1842 C1841 1.334 . S
C1842 C1843 1.287 . S
C1843 C1842 1.287 . S
C1843 C1844 1.524 . S
C1843 H1846 0.999 . S
C1844 H1814 0.950 . S
C1844 C1843 1.524 . S
C1844 C1845 1.415 . S
C1845 H1815 0.950 . S
C1845 C1840 1.363 . S
C1845 C1844 1.415 . S
H1846 C1843 0.999 . S
H1847 C1828 0.913 . S
H1848 C1866 0.951 . S
H1849 C1868 0.951 . S
H1850 C1870 0.950 . S
H1851 C1871 0.950 . S
H1852 C1873 0.950 . S
H1853 C1876 0.950 . S
H1854 C1877 0.950 . S
H1855 C1879 0.950 . S
H1856 C1880 0.950 . S
H1857 C1881 0.951 . S
H1858 C1883 0.951 . S
H1859 C1885 0.950 . S
H1860 C1886 0.950 . S
H1861 C1888 0.950 . S
H1862 C1891 0.950 . S
H1863 C1892 0.950 . S
H1864 C1894 0.950 . S
H1865 C1895 0.950 . S
C1866 H1848 0.951 . S
C1866 C1867 1.366 . S
C1866 C1868 1.388 . S
C1867 C1866 1.366 . S
C1867 C1871 1.385 . S
C1868 H1849 0.951 . S
C1868 C1866 1.388 . S
C1868 C1869 1.366 . S
C1869 C1868 1.366 . S
C1869 C1870 1.414 . S
C1869 C1872 1.499 . S
C1870 H1850 0.950 . S
C1870 C1869 1.414 . S
C1870 C1871 1.374 . S
C1871 H1851 0.950 . S
C1871 C1867 1.385 . S
C1871 C1870 1.374 . S
C1872 C1869 1.499 . S
C1872 C1873 1.373 . S
C1872 C1874 1.389 . S
C1873 H1852 0.950 . S
C1873 C1872 1.373 . S
C1873 C1889 1.377 . S
C1874 C1872 1.389 . S
C1874 C1875 1.524 . S
C1874 C1888 1.377 . S
C1875 C1874 1.524 . S
C1875 C1876 1.397 . S
C1875 C1880 1.363 . S
C1876 H1853 0.950 . S
C1876 C1875 1.397 . S
C1876 C1877 1.334 . S
C1877 H1854 0.950 . S
C1877 C1876 1.334 . S
C1877 C1878 1.287 . S
C1878 C1877 1.287 . S
C1878 C1879 1.524 . S
C1878 H1897 0.913 . S
C1879 H1855 0.950 . S
C1879 C1878 1.524 . S
C1879 C1880 1.415 . S
C1880 H1856 0.950 . S
C1880 C1875 1.363 . S
C1880 C1879 1.415 . S
C1881 H1857 0.951 . S
C1881 C1882 1.366 . S
C1881 C1883 1.388 . S
C1882 C1881 1.366 . S
C1882 C1886 1.385 . S
C1883 H1858 0.951 . S
C1883 C1881 1.388 . S
C1883 C1884 1.366 . S
C1884 C1883 1.366 . S
C1884 C1885 1.414 . S
C1884 C1887 1.499 . S
C1885 H1859 0.950 . S
C1885 C1884 1.414 . S
C1885 C1886 1.374 . S
C1886 H1860 0.950 . S
C1886 C1882 1.385 . S
C1886 C1885 1.374 . S
C1887 C1884 1.499 . S
C1887 C1888 1.373 . S
C1887 C1889 1.389 . S
C1888 H1861 0.950 . S
C1888 C1874 1.377 . S
C1888 C1887 1.373 . S
C1889 C1873 1.377 . S
C1889 C1887 1.389 . S
C1889 C1890 1.524 . S
C1890 C1889 1.524 . S
C1890 C1891 1.397 . S
C1890 C1895 1.363 . S
C1891 H1862 0.950 . S
C1891 C1890 1.397 . S
C1891 C1892 1.334 . S
C1892 H1863 0.950 . S
C1892 C1891 1.334 . S
C1892 C1893 1.287 . S
C1893 C1892 1.287 . S
C1893 C1894 1.524 . S
C1893 H1896 0.999 . S
C1894 H1864 0.950 . S
C1894 C1893 1.524 . S
C1894 C1895 1.415 . S
C1895 H1865 0.950 . S
C1895 C1890 1.363 . S
C1895 C1894 1.415 . S
H1896 C1893 0.999 . S
H1897 C1878 0.913 . S
H1898 C1916 0.951 . S
H1899 C1918 0.951 . S
H1900 C1920 0.950 . S
H1901 C1921 0.950 . S
H1902 C1923 0.950 . S
H1903 C1926 0.950 . S
H1904 C1927 0.950 . S
H1905 C1929 0.950 . S
H1906 C1930 0.950 . S
H1907 C1931 0.951 . S
H1908 C1933 0.951 . S
H1909 C1935 0.950 . S
H1910 C1936 0.950 . S
H1911 C1938 0.950 . S
H1912 C1941 0.950 . S
H1913 C1942 0.950 . S
H1914 C1944 0.950 . S
H1915 C1945 0.950 . S
C1916 H1898 0.951 . S
C1916 C1917 1.366 . S
C1916 C1918 1.388 . S
C1917 C1916 1.366 . S
C1917 C1921 1.385 . S
C1918 H1899 0.951 . S
C1918 C1916 1.388 . S
C1918 C1919 1.366 . S
C1919 C1918 1.366 . S
C1919 C1920 1.414 . S
C1919 C1922 1.499 . S
C1920 H1900 0.950 . S
C1920 C1919 1.414 . S
C1920 C1921 1.374 . S
C1921 H1901 0.950 . S
C1921 C1917 1.385 . S
C1921 C1920 1.374 . S
C1922 C1919 1.499 . S
C1922 C1923 1.373 . S
C1922 C1924 1.389 . S
C1923 H1902 0.950 . S
C1923 C1922 1.373 . S
C1923 C1939 1.377 . S
C1924 C1922 1.389 . S
C1924 C1925 1.524 . S
C1924 C1938 1.377 . S
C1925 C1924 1.524 . S
C1925 C1926 1.397 . S
C1925 C1930 1.363 . S
C1926 H1903 0.950 . S
C1926 C1925 1.397 . S
C1926 C1927 1.334 . S
C1927 H1904 0.950 . S
C1927 C1926 1.334 . S
C1927 C1928 1.287 . S
C1928 C1927 1.287 . S
C1928 C1929 1.524 . S
C1928 H1947 0.913 . S
C1929 H1905 0.950 . S
C1929 C1928 1.524 . S
C1929 C1930 1.415 . S
C1930 H1906 0.950 . S
C1930 C1925 1.363 . S
C1930 C1929 1.415 . S
C1931 H1907 0.951 . S
C1931 C1932 1.366 . S
C1931 C1933 1.388 . S
C1932 C1931 1.366 . S
C1932 C1936 1.385 . S
C1933 H1908 0.951 . S
C1933 C1931 1.388 . S
C1933 C1934 1.366 . S
C1934 C1933 1.366 . S
C1934 C1935 1.414 . S
C1934 C1937 1.499 . S
C1935 H1909 0.950 . S
C1935 C1934 1.414 . S
C1935 C1936 1.374 . S
C1936 H1910 0.950 . S
C1936 C1932 1.385 . S
C1936 C1935 1.374 . S
C1937 C1934 1.499 . S
C1937 C1938 1.373 . S
C1937 C1939 1.389 . S
C1938 H1911 0.950 . S
C1938 C1924 1.377 . S
C1938 C1937 1.373 . S
C1939 C1923 1.377 . S
C1939 C1937 1.389 . S
C1939 C1940 1.524 . S
C1940 C1939 1.524 . S
C1940 C1941 1.397 . S
C1940 C1945 1.363 . S
C1941 H1912 0.950 . S
C1941 C1940 1.397 . S
C1941 C1942 1.334 . S
C1942 H1913 0.950 . S
C1942 C1941 1.334 . S
C1942 C1943 1.287 . S
C1943 C1942 1.287 . S
C1943 C1944 1.524 . S
C1943 H1946 0.999 . S
C1944 H1914 0.950 . S
C1944 C1943 1.524 . S
C1944 C1945 1.415 . S
C1945 H1915 0.950 . S
C1945 C1940 1.363 . S
C1945 C1944 1.415 . S
H1946 C1943 0.999 . S
H1947 C1928 0.913 . S
H1948 C1966 0.951 . S
H1949 C1968 0.951 . S
H1950 C1970 0.950 . S
H1951 C1971 0.950 . S
H1952 C1973 0.950 . S
H1953 C1976 0.950 . S
H1954 C1977 0.950 . S
H1955 C1979 0.950 . S
H1956 C1980 0.950 . S
H1957 C1981 0.951 . S
H1958 C1983 0.951 . S
H1959 C1985 0.950 . S
H1960 C1986 0.950 . S
H1961 C1988 0.950 . S
H1962 C1991 0.950 . S
H1963 C1992 0.950 . S
H1964 C1994 0.950 . S
H1965 C1995 0.950 . S
C1966 H1948 0.951 . S
C1966 C1967 1.366 . S
C1966 C1968 1.388 . S
C1967 C1966 1.366 . S
C1967 C1971 1.385 . S
C1968 H1949 0.951 . S
C1968 C1966 1.388 . S
C1968 C1969 1.366 . S
C1969 C1968 1.366 . S
C1969 C1970 1.414 . S
C1969 C1972 1.499 . S
C1970 H1950 0.950 . S
C1970 C1969 1.414 . S
C1970 C1971 1.374 . S
C1971 H1951 0.950 . S
C1971 C1967 1.385 . S
C1971 C1970 1.374 . S
C1972 C1969 1.499 . S
C1972 C1973 1.373 . S
C1972 C1974 1.389 . S
C1973 H1952 0.950 . S
C1973 C1972 1.373 . S
C1973 C1989 1.377 . S
C1974 C1972 1.389 . S
C1974 C1975 1.524 . S
C1974 C1988 1.377 . S
C1975 C1974 1.524 . S
C1975 C1976 1.397 . S
C1975 C1980 1.363 . S
C1976 H1953 0.950 . S
C1976 C1975 1.397 . S
C1976 C1977 1.334 . S
C1977 H1954 0.950 . S
C1977 C1976 1.334 . S
C1977 C1978 1.287 . S
C1978 C1977 1.287 . S
C1978 C1979 1.524 . S
C1978 H1997 0.913 . S
C1979 H1955 0.950 . S
C1979 C1978 1.524 . S
C1979 C1980 1.415 . S
C1980 H1956 0.950 . S
C1980 C1975 1.363 . S
C1980 C1979 1.415 . S
C1981 H1957 0.951 . S
C1981 C1982 1.366 . S
C1981 C1983 1.388 . S
C1982 C1981 1.366 . S
C1982 C1986 1.385 . S
C1983 H1958 0.951 . S
C1983 C1981 1.388 . S
C1983 C1984 1.366 . S
C1984 C1983 1.366 . S
C1984 C1985 1.414 . S
C1984 C1987 1.499 . S
C1985 H1959 0.950 . S
C1985 C1984 1.414 . S
C1985 C1986 1.374 . S
C1986 H1960 0.950 . S
C1986 C1982 1.385 . S
C1986 C1985 1.374 . S
C1987 C1984 1.499 . S
C1987 C1988 1.373 . S
C1987 C1989 1.389 . S
C1988 H1961 0.950 . S
C1988 C1974 1.377 . S
C1988 C1987 1.373 . S
C1989 C1973 1.377 . S
C1989 C1987 1.389 . S
C1989 C1990 1.524 . S
C1990 C1989 1.524 . S
C1990 C1991 1.397 . S
C1990 C1995 1.363 . S
C1991 H1962 0.950 . S
C1991 C1990 1.397 . S
C1991 C1992 1.334 . S
C1992 H1963 0.950 . S
C1992 C1991 1.334 . S
C1992 C1993 1.287 . S
C1993 C1992 1.287 . S
C1993 C1994 1.524 . S
C1993 H1996 0.999 . S
C1994 H1964 0.950 . S
C1994 C1993 1.524 . S
C1994 C1995 1.415 . S
C1995 H1965 0.950 . S
C1995 C1990 1.363 . S
C1995 C1994 1.415 . S
H1996 C1993 0.999 . S
H1997 C1978 0.913 . S
H1998 C2016 0.951 . S
H1999 C2018 0.951 . S
H2000 C2020 0.950 . S
H2001 C2021 0.950 . S
H2002 C2023 0.950 . S
H2003 C2026 0.950 . S
H2004 C2027 0.950 . S
H2005 C2029 0.950 . S
H2006 C2030 0.950 . S
H2007 C2031 0.951 . S
H2008 C2033 0.951 . S
H2009 C2035 0.950 . S
H2010 C2036 0.950 . S
H2011 C2038 0.950 . S
H2012 C2041 0.950 . S
H2013 C2042 0.950 . S
H2014 C2044 0.950 . S
H2015 C2045 0.950 . S
C2016 H1998 0.951 . S
C2016 C2017 1.366 . S
C2016 C2018 1.388 . S
C2017 C2016 1.366 . S
C2017 C2021 1.385 . S
C2018 H1999 0.951 . S
C2018 C2016 1.388 . S
C2018 C2019 1.366 . S
C2019 C2018 1.366 . S
C2019 C2020 1.414 . S
C2019 C2022 1.499 . S
C2020 H2000 0.950 . S
C2020 C2019 1.414 . S
C2020 C2021 1.374 . S
C2021 H2001 0.950 . S
C2021 C2017 1.385 . S
C2021 C2020 1.374 . S
C2022 C2019 1.499 . S
C2022 C2023 1.373 . S
C2022 C2024 1.389 . S
C2023 H2002 0.950 . S
C2023 C2022 1.373 . S
C2023 C2039 1.377 . S
C2024 C2022 1.389 . S
C2024 C2025 1.524 . S
C2024 C2038 1.377 . S
C2025 C2024 1.524 . S
C2025 C2026 1.397 . S
C2025 C2030 1.363 . S
C2026 H2003 0.950 . S
C2026 C2025 1.397 . S
C2026 C2027 1.334 . S
C2027 H2004 0.950 . S
C2027 C2026 1.334 . S
C2027 C2028 1.287 . S
C2028 C2027 1.287 . S
C2028 C2029 1.524 . S
C2028 H2047 0.913 . S
C2029 H2005 0.950 . S
C2029 C2028 1.524 . S
C2029 C2030 1.415 . S
C2030 H2006 0.950 . S
C2030 C2025 1.363 . S
C2030 C2029 1.415 . S
C2031 H2007 0.951 . S
C2031 C2032 1.366 . S
C2031 C2033 1.388 . S
C2032 C2031 1.366 . S
C2032 C2036 1.385 . S
C2033 H2008 0.951 . S
C2033 C2031 1.388 . S
C2033 C2034 1.366 . S
C2034 C2033 1.366 . S
C2034 C2035 1.414 . S
C2034 C2037 1.499 . S
C2035 H2009 0.950 . S
C2035 C2034 1.414 . S
C2035 C2036 1.374 . S
C2036 H2010 0.950 . S
C2036 C2032 1.385 . S
C2036 C2035 1.374 . S
C2037 C2034 1.499 . S
C2037 C2038 1.373 . S
C2037 C2039 1.389 . S
C2038 H2011 0.950 . S
C2038 C2024 1.377 . S
C2038 C2037 1.373 . S
C2039 C2023 1.377 . S
C2039 C2037 1.389 . S
C2039 C2040 1.524 . S
C2040 C2039 1.524 . S
C2040 C2041 1.397 . S
C2040 C2045 1.363 . S
C2041 H2012 0.950 . S
C2041 C2040 1.397 . S
C2041 C2042 1.334 . S
C2042 H2013 0.950 . S
C2042 C2041 1.334 . S
C2042 C2043 1.287 . S
C2043 C2042 1.287 . S
C2043 C2044 1.524 . S
C2043 H2046 0.999 . S
C2044 H2014 0.950 . S
C2044 C2043 1.524 . S
C2044 C2045 1.415 . S
C2045 H2015 0.950 . S
C2045 C2040 1.363 . S
C2045 C2044 1.415 . S
H2046 C2043 0.999 . S
H2047 C2028 0.913 . S
H2048 C2066 0.951 . S
H2049 C2068 0.951 1_556 S
H2050 C2070 0.950 . S
H2051 C2071 0.950 . S
H2052 C2073 0.950 . S
H2053 C2076 0.950 . S
H2054 C2077 0.950 . S
H2055 C2079 0.950 . S
H2056 C2080 0.950 . S
H2057 C2081 0.951 . S
H2058 C2083 0.951 . S
H2059 C2085 0.950 . S
H2060 C2086 0.950 . S
H2061 C2088 0.950 . S
H2062 C2091 0.950 1_556 S
H2063 C2092 0.950 . S
H2064 C2094 0.950 . S
H2065 C2095 0.950 . S
C2066 H2048 0.951 . S
C2066 C2067 1.366 . S
C2066 C2068 1.388 . S
C2067 C2066 1.366 . S
C2067 C2071 1.385 . S
C2068 H2049 0.951 1_554 S
C2068 C2066 1.388 . S
C2068 C2069 1.366 . S
C2069 C2068 1.366 . S
C2069 C2070 1.414 . S
C2069 C2072 1.499 . S
C2070 H2050 0.950 . S
C2070 C2069 1.414 . S
C2070 C2071 1.374 . S
C2071 H2051 0.950 . S
C2071 C2067 1.385 . S
C2071 C2070 1.374 . S
C2072 C2069 1.499 . S
C2072 C2073 1.373 . S
C2072 C2074 1.389 1_554 S
C2073 H2052 0.950 . S
C2073 C2072 1.373 . S
C2073 C2089 1.377 1_455 S
C2074 C2072 1.389 1_556 S
C2074 C2075 1.524 . S
C2074 C2088 1.377 . S
C2075 C2074 1.524 . S
C2075 C2076 1.397 . S
C2075 C2080 1.363 . S
C2076 H2053 0.950 . S
C2076 C2075 1.397 . S
C2076 C2077 1.334 . S
C2077 H2054 0.950 . S
C2077 C2076 1.334 . S
C2077 C2078 1.287 . S
C2078 C2077 1.287 . S
C2078 C2079 1.524 . S
C2078 H2097 0.913 . S
C2079 H2055 0.950 . S
C2079 C2078 1.524 . S
C2079 C2080 1.415 . S
C2080 H2056 0.950 . S
C2080 C2075 1.363 . S
C2080 C2079 1.415 . S
C2081 H2057 0.951 . S
C2081 C2082 1.366 . S
C2081 C2083 1.388 . S
C2082 C2081 1.366 . S
C2082 C2086 1.385 . S
C2083 H2058 0.951 . S
C2083 C2081 1.388 . S
C2083 C2084 1.366 . S
C2084 C2083 1.366 . S
C2084 C2085 1.414 . S
C2084 C2087 1.499 . S
C2085 H2059 0.950 . S
C2085 C2084 1.414 . S
C2085 C2086 1.374 . S
C2086 H2060 0.950 . S
C2086 C2082 1.385 . S
C2086 C2085 1.374 . S
C2087 C2084 1.499 . S
C2087 C2088 1.373 1_655 S
C2087 C2089 1.389 1_556 S
C2088 H2061 0.950 . S
C2088 C2074 1.377 . S
C2088 C2087 1.373 1_455 S
C2089 C2073 1.377 1_655 S
C2089 C2087 1.389 1_554 S
C2089 C2090 1.524 . S
C2090 C2089 1.524 . S
C2090 C2091 1.397 . S
C2090 C2095 1.363 . S
C2091 H2062 0.950 1_554 S
C2091 C2090 1.397 . S
C2091 C2092 1.334 . S
C2092 H2063 0.950 . S
C2092 C2091 1.334 . S
C2092 C2093 1.287 . S
C2093 C2092 1.287 . S
C2093 C2094 1.524 . S
C2093 H2096 0.999 . S
C2094 H2064 0.950 . S
C2094 C2093 1.524 . S
C2094 C2095 1.415 . S
C2095 H2065 0.950 . S
C2095 C2090 1.363 . S
C2095 C2094 1.415 . S
H2096 C2093 0.999 . S
H2097 C2078 0.913 . S
H2098 C2116 0.951 . S
H2099 C2118 0.951 . S
H2100 C2120 0.950 . S
H2101 C2121 0.950 . S
H2102 C2123 0.946 1_554 S
H2103 C2126 0.950 . S
H2104 C2127 0.950 . S
H2105 C2129 0.950 . S
H2106 C2130 0.950 . S
H2107 C2131 0.943 1_455 S
H2108 C2133 0.951 . S
H2109 C2135 0.950 1_556 S
H2110 C2136 0.950 . S
H2111 C2138 0.950 . S
H2112 C2141 0.937 1_545 S
H2113 C2142 0.950 . S
H2114 C2144 0.950 . S
H2115 C2145 0.950 . S
C2116 H2098 0.951 . S
C2116 C2117 1.366 . S
C2116 C2118 1.388 . S
C2117 C2116 1.366 . S
C2117 C2121 1.385 . S
C2118 H2099 0.951 . S
C2118 C2116 1.388 . S
C2118 C2119 1.366 . S
C2119 C2118 1.366 . S
C2119 C2120 1.414 . S
C2119 C2122 1.499 . S
C2120 H2100 0.950 . S
C2120 C2119 1.414 . S
C2120 C2121 1.374 . S
C2121 H2101 0.950 . S
C2121 C2117 1.385 . S
C2121 C2120 1.374 . S
C2122 C2119 1.499 . S
C2122 C2123 1.383 . S
C2122 C2124 1.389 1_565 S
C2123 H2102 0.946 1_556 S
C2123 C2122 1.383 . S
C2123 C2139 1.371 1_566 S
C2124 C2122 1.389 1_545 S
C2124 C2125 1.524 . S
C2124 C2138 1.377 . S
C2125 C2124 1.524 . S
C2125 C2126 1.397 . S
C2125 C2130 1.363 . S
C2126 H2103 0.950 . S
C2126 C2125 1.397 . S
C2126 C2127 1.334 . S
C2127 H2104 0.950 . S
C2127 C2126 1.334 . S
C2127 C2128 1.287 . S
C2128 C2127 1.287 . S
C2128 C2129 1.524 . S
C2128 H2147 0.913 . S
C2129 H2105 0.950 . S
C2129 C2128 1.524 . S
C2129 C2130 1.415 . S
C2130 H2106 0.950 . S
C2130 C2125 1.363 . S
C2130 C2129 1.415 . S
C2131 H2107 0.943 1_655 S
C2131 C2132 1.381 . S
C2131 C2133 1.381 1_655 S
C2132 C2131 1.381 . S
C2132 C2136 1.385 . S
C2133 H2108 0.951 . S
C2133 C2131 1.381 1_455 S
C2133 C2134 1.359 1_455 S
C2134 C2133 1.359 1_655 S
C2134 C2135 1.427 . S
C2134 C2137 1.492 1_655 S
C2135 H2109 0.950 1_554 S
C2135 C2134 1.427 . S
C2135 C2136 1.374 . S
C2136 H2110 0.950 . S
C2136 C2132 1.385 . S
C2136 C2135 1.374 . S
C2137 C2134 1.492 1_455 S
C2137 C2138 1.373 1_554 S
C2137 C2139 1.389 . S
C2138 H2111 0.950 . S
C2138 C2124 1.377 . S
C2138 C2137 1.373 1_556 S
C2139 C2123 1.371 1_544 S
C2139 C2137 1.389 . S
C2139 C2140 1.524 1_545 S
C2140 C2139 1.524 1_565 S
C2140 C2141 1.401 1_455 S
C2140 C2145 1.363 . S
C2141 H2112 0.937 1_565 S
C2141 C2140 1.401 1_655 S
C2141 C2142 1.343 . S
C2142 H2113 0.950 . S
C2142 C2141 1.343 . S
C2142 C2143 1.287 . S
C2143 C2142 1.287 . S
C2143 C2144 1.524 1_655 S
C2143 H2146 0.999 . S
C2144 H2114 0.950 . S
C2144 C2143 1.524 1_455 S
C2144 C2145 1.415 . S
C2145 H2115 0.950 . S
C2145 C2140 1.363 . S
C2145 C2144 1.415 . S
H2146 C2143 0.999 . S
H2147 C2128 0.913 . S
H2148 C2166 0.951 . S
H2149 C2168 0.942 1_546 S
H2150 C2170 0.950 . S
H2151 C2171 0.950 . S
H2152 C2173 0.950 . S
H2153 C2176 0.950 . S
H2154 C2177 0.950 . S
H2155 C2179 0.950 . S
H2156 C2180 0.950 1_545 S
H2157 C2181 0.951 . S
H2158 C2183 0.951 . S
H2159 C2185 0.950 . S
H2160 C2186 0.950 . S
H2161 C2188 0.950 . S
H2162 C2191 0.950 1_556 S
H2163 C2192 0.950 . S
H2164 C2194 0.950 . S
H2165 C2195 0.950 . S
C2166 H2148 0.951 . S
C2166 C2167 1.366 . S
C2166 C2168 1.396 . S
C2167 C2166 1.366 . S
C2167 C2171 1.385 . S
C2168 H2149 0.942 1_564 S
C2168 C2166 1.396 . S
C2168 C2169 1.366 . S
C2169 C2168 1.366 . S
C2169 C2170 1.427 . S
C2169 C2172 1.486 1_565 S
C2170 H2150 0.950 . S
C2170 C2169 1.427 . S
C2170 C2171 1.374 . S
C2171 H2151 0.950 . S
C2171 C2167 1.385 . S
C2171 C2170 1.374 . S
C2172 C2169 1.486 1_545 S
C2172 C2173 1.373 . S
C2172 C2174 1.389 1_554 S
C2173 H2152 0.950 . S
C2173 C2172 1.373 . S
C2173 C2189 1.388 . S
C2174 C2172 1.389 1_556 S
C2174 C2175 1.524 1_545 S
C2174 C2188 1.377 . S
C2175 C2174 1.524 1_565 S
C2175 C2176 1.397 . S
C2175 C2180 1.363 . S
C2176 H2153 0.950 . S
C2176 C2175 1.397 . S
C2176 C2177 1.334 . S
C2177 H2154 0.950 . S
C2177 C2176 1.334 . S
C2177 C2178 1.287 . S
C2178 C2177 1.287 . S
C2178 C2179 1.524 . S
C2178 H2197 0.913 . S
C2179 H2155 0.950 . S
C2179 C2178 1.524 . S
C2179 C2180 1.415 . S
C2180 H2156 0.950 1_565 S
C2180 C2175 1.363 . S
C2180 C2179 1.415 . S
C2181 H2157 0.951 . S
C2181 C2182 1.366 . S
C2181 C2183 1.388 . S
C2182 C2181 1.366 . S
C2182 C2186 1.385 . S
C2183 H2158 0.951 . S
C2183 C2181 1.388 . S
C2183 C2184 1.366 . S
C2184 C2183 1.366 . S
C2184 C2185 1.414 . S
C2184 C2187 1.499 . S
C2185 H2159 0.950 . S
C2185 C2184 1.414 . S
C2185 C2186 1.374 . S
C2186 H2160 0.950 . S
C2186 C2182 1.385 . S
C2186 C2185 1.374 . S
C2187 C2184 1.499 . S
C2187 C2188 1.373 . S
C2187 C2189 1.370 1_556 S
C2188 H2161 0.950 . S
C2188 C2174 1.377 . S
C2188 C2187 1.373 . S
C2189 C2173 1.388 . S
C2189 C2187 1.370 1_554 S
C2189 C2190 1.534 . S
C2190 C2189 1.534 . S
C2190 C2191 1.397 . S
C2190 C2195 1.363 . S
C2191 H2162 0.950 1_554 S
C2191 C2190 1.397 . S
C2191 C2192 1.334 . S
C2192 H2163 0.950 . S
C2192 C2191 1.334 . S
C2192 C2193 1.287 . S
C2193 C2192 1.287 . S
C2193 C2194 1.524 . S
C2193 H2196 0.999 . S
C2194 H2164 0.950 . S
C2194 C2193 1.524 . S
C2194 C2195 1.415 . S
C2195 H2165 0.950 . S
C2195 C2190 1.363 . S
C2195 C2194 1.415 . S
H2196 C2193 0.999 . S
H2197 C2178 0.913 . S
H2198 C2216 0.951 . S
H2199 C2218 0.951 . S
H2200 C2220 0.950 . S
H2201 C2221 0.950 . S
H2202 C2223 0.950 . S
H2203 C2226 0.950 1_554 S
H2204 C2227 0.950 1_554 S
H2205 C2229 0.950 . S
H2206 C2230 0.950 . S
H2207 C2231 0.951 . S
H2208 C2233 0.951 . S
H2209 C2235 0.956 . S
H2210 C2236 0.950 . S
H2211 C2238 0.950 1_554 S
H2212 C2241 0.950 . S
H2213 C2242 0.950 . S
H2214 C2244 0.966 . S
H2215 C2245 0.950 . S
C2216 H2198 0.951 . S
C2216 C2217 1.366 . S
C2216 C2218 1.388 . S
C2217 C2216 1.366 . S
C2217 C2221 1.385 . S
C2218 H2199 0.951 . S
C2218 C2216 1.388 . S
C2218 C2219 1.366 . S
C2219 C2218 1.366 . S
C2219 C2220 1.414 . S
C2219 C2222 1.499 . S
C2220 H2200 0.950 . S
C2220 C2219 1.414 . S
C2220 C2221 1.374 . S
C2221 H2201 0.950 . S
C2221 C2217 1.385 . S
C2221 C2220 1.374 . S
C2222 C2219 1.499 . S
C2222 C2223 1.373 . S
C2222 C2224 1.389 . S
C2223 H2202 0.950 . S
C2223 C2222 1.373 . S
C2223 C2239 1.377 . S
C2224 C2222 1.389 . S
C2224 C2225 1.524 . S
C2224 C2238 1.377 . S
C2225 C2224 1.524 . S
C2225 C2226 1.397 . S
C2225 C2230 1.363 . S
C2226 H2203 0.950 1_556 S
C2226 C2225 1.397 . S
C2226 C2227 1.334 . S
C2227 H2204 0.950 1_556 S
C2227 C2226 1.334 . S
C2227 C2228 1.287 . S
C2228 C2227 1.287 . S
C2228 C2229 1.524 . S
C2228 H2247 0.913 . S
C2229 H2205 0.950 . S
C2229 C2228 1.524 . S
C2229 C2230 1.415 . S
C2230 H2206 0.950 . S
C2230 C2225 1.363 . S
C2230 C2229 1.415 . S
C2231 H2207 0.951 . S
C2231 C2232 1.366 . S
C2231 C2233 1.388 . S
C2232 C2231 1.366 . S
C2232 C2236 1.385 . S
C2233 H2208 0.951 . S
C2233 C2231 1.388 . S
C2233 C2234 1.366 . S
C2234 C2233 1.366 . S
C2234 C2235 1.414 . S
C2234 C2237 1.499 . S
C2235 H2209 0.956 . S
C2235 C2234 1.414 . S
C2235 C2236 1.374 . S
C2236 H2210 0.950 . S
C2236 C2232 1.385 . S
C2236 C2235 1.374 . S
C2237 C2234 1.499 . S
C2237 C2238 1.373 1_554 S
C2237 C2239 1.389 1_554 S
C2238 H2211 0.950 1_556 S
C2238 C2224 1.377 . S
C2238 C2237 1.373 1_556 S
C2239 C2223 1.377 . S
C2239 C2237 1.389 1_556 S
C2239 C2240 1.524 . S
C2240 C2239 1.524 . S
C2240 C2241 1.397 . S
C2240 C2245 1.363 1_556 S
C2241 H2212 0.950 . S
C2241 C2240 1.397 . S
C2241 C2242 1.334 . S
C2242 H2213 0.950 . S
C2242 C2241 1.334 . S
C2242 C2243 1.287 . S
C2243 C2242 1.287 . S
C2243 C2244 1.507 1_556 S
C2243 H2246 0.999 . S
C2244 H2214 0.966 . S
C2244 C2243 1.507 1_554 S
C2244 C2245 1.416 . S
C2245 H2215 0.950 . S
C2245 C2240 1.363 1_554 S
C2245 C2244 1.416 . S
H2246 C2243 0.999 . S
H2247 C2228 0.913 . S
H2248 C2266 0.951 . S
H2249 C2268 0.951 . S
H2250 C2270 0.950 . S
H2251 C2271 0.941 1_545 S
H2252 C2273 0.950 . S
H2253 C2276 0.950 . S
H2254 C2277 0.950 . S
H2255 C2279 0.950 . S
H2256 C2280 0.950 . S
H2257 C2281 0.951 . S
H2258 C2283 0.951 . S
H2259 C2285 0.950 . S
H2260 C2286 0.950 . S
H2261 C2288 0.950 1_565 S
H2262 C2291 0.950 . S
H2263 C2292 0.950 . S
H2264 C2294 0.950 . S
H2265 C2295 0.950 . S
C2266 H2248 0.951 . S
C2266 C2267 1.366 . S
C2266 C2268 1.388 . S
C2267 C2266 1.366 . S
C2267 C2271 1.405 . S
C2268 H2249 0.951 . S
C2268 C2266 1.388 . S
C2268 C2269 1.376 . S
C2269 C2268 1.376 . S
C2269 C2270 1.409 1_565 S
C2269 C2272 1.493 1_565 S
C2270 H2250 0.950 . S
C2270 C2269 1.409 1_545 S
C2270 C2271 1.363 1_545 S
C2271 H2251 0.941 1_565 S
C2271 C2267 1.405 . S
C2271 C2270 1.363 1_565 S
C2272 C2269 1.493 1_545 S
C2272 C2273 1.373 . S
C2272 C2274 1.389 1_545 S
C2273 H2252 0.950 . S
C2273 C2272 1.373 . S
C2273 C2289 1.377 . S
C2274 C2272 1.389 1_565 S
C2274 C2275 1.524 . S
C2274 C2288 1.377 1_465 S
C2275 C2274 1.524 . S
C2275 C2276 1.397 . S
C2275 C2280 1.363 . S
C2276 H2253 0.950 . S
C2276 C2275 1.397 . S
C2276 C2277 1.334 . S
C2277 H2254 0.950 . S
C2277 C2276 1.334 . S
C2277 C2278 1.291 . S
C2278 C2277 1.291 . S
C2278 C2279 1.527 . S
C2278 H2297 0.912 1_455 S
C2279 H2255 0.950 . S
C2279 C2278 1.527 . S
C2279 C2280 1.415 . S
C2280 H2256 0.950 . S
C2280 C2275 1.363 . S
C2280 C2279 1.415 . S
C2281 H2257 0.951 . S
C2281 C2282 1.366 . S
C2281 C2283 1.388 . S
C2282 C2281 1.366 . S
C2282 C2286 1.385 . S
C2283 H2258 0.951 . S
C2283 C2281 1.388 . S
C2283 C2284 1.366 . S
C2284 C2283 1.366 . S
C2284 C2285 1.414 . S
C2284 C2287 1.499 . S
C2285 H2259 0.950 . S
C2285 C2284 1.414 . S
C2285 C2286 1.374 . S
C2286 H2260 0.950 . S
C2286 C2282 1.385 . S
C2286 C2285 1.374 . S
C2287 C2284 1.499 . S
C2287 C2288 1.373 . S
C2287 C2289 1.389 1_655 S
C2288 H2261 0.950 1_545 S
C2288 C2274 1.377 1_645 S
C2288 C2287 1.373 . S
C2289 C2273 1.377 . S
C2289 C2287 1.389 1_455 S
C2289 C2290 1.524 . S
C2290 C2289 1.524 . S
C2290 C2291 1.397 . S
C2290 C2295 1.363 . S
C2291 H2262 0.950 . S
C2291 C2290 1.397 . S
C2291 C2292 1.334 . S
C2292 H2263 0.950 . S
C2292 C2291 1.334 . S
C2292 C2293 1.287 . S
C2293 C2292 1.287 . S
C2293 C2294 1.524 . S
C2293 H2296 0.999 . S
C2294 H2264 0.950 . S
C2294 C2293 1.524 . S
C2294 C2295 1.415 . S
C2295 H2265 0.950 . S
C2295 C2290 1.363 . S
C2295 C2294 1.415 . S
H2296 C2293 0.999 . S
H2297 C2278 0.912 1_655 S
H2298 C2316 0.951 . S
H2299 C2318 0.951 . S
H2300 C2320 0.950 . S
H2301 C2321 0.950 . S
H2302 C2323 0.950 . S
H2303 C2326 0.950 . S
H2304 C2327 0.950 . S
H2305 C2329 0.950 . S
H2306 C2330 0.950 . S
H2307 C2331 0.951 . S
H2308 C2333 0.951 . S
H2309 C2335 0.950 . S
H2310 C2336 0.950 . S
H2311 C2338 0.950 . S
H2312 C2341 0.950 . S
H2313 C2342 0.950 . S
H2314 C2344 0.950 . S
H2315 C2345 0.950 . S
C2316 H2298 0.951 . S
C2316 C2317 1.366 . S
C2316 C2318 1.388 . S
C2317 C2316 1.366 . S
C2317 C2321 1.385 . S
C2318 H2299 0.951 . S
C2318 C2316 1.388 . S
C2318 C2319 1.366 . S
C2319 C2318 1.366 . S
C2319 C2320 1.414 . S
C2319 C2322 1.499 . S
C2320 H2300 0.950 . S
C2320 C2319 1.414 . S
C2320 C2321 1.374 . S
C2321 H2301 0.950 . S
C2321 C2317 1.385 . S
C2321 C2320 1.374 . S
C2322 C2319 1.499 . S
C2322 C2323 1.373 . S
C2322 C2324 1.389 . S
C2323 H2302 0.950 . S
C2323 C2322 1.373 . S
C2323 C2339 1.377 1_545 S
C2324 C2322 1.389 . S
C2324 C2325 1.524 . S
C2324 C2338 1.377 . S
C2325 C2324 1.524 . S
C2325 C2326 1.397 . S
C2325 C2330 1.363 . S
C2326 H2303 0.950 . S
C2326 C2325 1.397 . S
C2326 C2327 1.334 . S
C2327 H2304 0.950 . S
C2327 C2326 1.334 . S
C2327 C2328 1.287 . S
C2328 C2327 1.287 . S
C2328 C2329 1.524 . S
C2328 H2347 0.913 . S
C2329 H2305 0.950 . S
C2329 C2328 1.524 . S
C2329 C2330 1.415 . S
C2330 H2306 0.950 . S
C2330 C2325 1.363 . S
C2330 C2329 1.415 . S
C2331 H2307 0.951 . S
C2331 C2332 1.366 . S
C2331 C2333 1.388 . S
C2332 C2331 1.366 . S
C2332 C2336 1.385 . S
C2333 H2308 0.951 . S
C2333 C2331 1.388 . S
C2333 C2334 1.366 . S
C2334 C2333 1.366 . S
C2334 C2335 1.414 . S
C2334 C2337 1.499 . S
C2335 H2309 0.950 . S
C2335 C2334 1.414 . S
C2335 C2336 1.374 . S
C2336 H2310 0.950 . S
C2336 C2332 1.385 . S
C2336 C2335 1.374 . S
C2337 C2334 1.499 . S
C2337 C2338 1.373 1_565 S
C2337 C2339 1.389 . S
C2338 H2311 0.950 . S
C2338 C2324 1.377 . S
C2338 C2337 1.373 1_545 S
C2339 C2323 1.377 1_565 S
C2339 C2337 1.389 . S
C2339 C2340 1.524 . S
C2340 C2339 1.524 . S
C2340 C2341 1.397 . S
C2340 C2345 1.363 . S
C2341 H2312 0.950 . S
C2341 C2340 1.397 . S
C2341 C2342 1.334 . S
C2342 H2313 0.950 . S
C2342 C2341 1.334 . S
C2342 C2343 1.287 . S
C2343 C2342 1.287 . S
C2343 C2344 1.524 . S
C2343 H2346 0.999 . S
C2344 H2314 0.950 . S
C2344 C2343 1.524 . S
C2344 C2345 1.415 . S
C2345 H2315 0.950 . S
C2345 C2340 1.363 . S
C2345 C2344 1.415 . S
H2346 C2343 0.999 . S
H2347 C2328 0.913 . S
H2348 C2366 0.951 . S
H2349 C2368 0.951 . S
H2350 C2370 0.950 . S
H2351 C2371 0.950 . S
H2352 C2373 0.950 . S
H2353 C2376 0.950 . S
H2354 C2377 0.950 . S
H2355 C2379 0.950 . S
H2356 C2380 0.950 . S
H2357 C2381 0.951 . S
H2358 C2383 0.951 . S
H2359 C2385 0.950 . S
H2360 C2386 0.950 . S
H2361 C2388 0.950 . S
H2362 C2391 0.950 . S
H2363 C2392 0.950 . S
H2364 C2394 0.950 . S
H2365 C2395 0.950 . S
C2366 H2348 0.951 . S
C2366 C2367 1.366 . S
C2366 C2368 1.388 . S
C2367 C2366 1.366 . S
C2367 C2371 1.385 . S
C2368 H2349 0.951 . S
C2368 C2366 1.388 . S
C2368 C2369 1.366 . S
C2369 C2368 1.366 . S
C2369 C2370 1.414 . S
C2369 C2372 1.499 . S
C2370 H2350 0.950 . S
C2370 C2369 1.414 . S
C2370 C2371 1.374 . S
C2371 H2351 0.950 . S
C2371 C2367 1.385 . S
C2371 C2370 1.374 . S
C2372 C2369 1.499 . S
C2372 C2373 1.373 . S
C2372 C2374 1.389 . S
C2373 H2352 0.950 . S
C2373 C2372 1.373 . S
C2373 C2389 1.377 . S
C2374 C2372 1.389 . S
C2374 C2375 1.524 . S
C2374 C2388 1.377 . S
C2375 C2374 1.524 . S
C2375 C2376 1.397 . S
C2375 C2380 1.363 . S
C2376 H2353 0.950 . S
C2376 C2375 1.397 . S
C2376 C2377 1.334 . S
C2377 H2354 0.950 . S
C2377 C2376 1.334 . S
C2377 C2378 1.287 . S
C2378 C2377 1.287 . S
C2378 C2379 1.524 . S
C2378 H2397 0.913 . S
C2379 H2355 0.950 . S
C2379 C2378 1.524 . S
C2379 C2380 1.415 . S
C2380 H2356 0.950 . S
C2380 C2375 1.363 . S
C2380 C2379 1.415 . S
C2381 H2357 0.951 . S
C2381 C2382 1.366 . S
C2381 C2383 1.388 . S
C2382 C2381 1.366 . S
C2382 C2386 1.385 . S
C2383 H2358 0.951 . S
C2383 C2381 1.388 . S
C2383 C2384 1.366 . S
C2384 C2383 1.366 . S
C2384 C2385 1.414 . S
C2384 C2387 1.499 . S
C2385 H2359 0.950 . S
C2385 C2384 1.414 . S
C2385 C2386 1.374 . S
C2386 H2360 0.950 . S
C2386 C2382 1.385 . S
C2386 C2385 1.374 . S
C2387 C2384 1.499 . S
C2387 C2388 1.373 . S
C2387 C2389 1.389 . S
C2388 H2361 0.950 . S
C2388 C2374 1.377 . S
C2388 C2387 1.373 . S
C2389 C2373 1.377 . S
C2389 C2387 1.389 . S
C2389 C2390 1.524 . S
C2390 C2389 1.524 . S
C2390 C2391 1.397 . S
C2390 C2395 1.363 . S
C2391 H2362 0.950 . S
C2391 C2390 1.397 . S
C2391 C2392 1.334 . S
C2392 H2363 0.950 . S
C2392 C2391 1.334 . S
C2392 C2393 1.287 . S
C2393 C2392 1.287 . S
C2393 C2394 1.524 . S
C2393 H2396 0.999 . S
C2394 H2364 0.950 . S
C2394 C2393 1.524 . S
C2394 C2395 1.415 . S
C2395 H2365 0.950 . S
C2395 C2390 1.363 . S
C2395 C2394 1.415 . S
H2396 C2393 0.999 . S
H2397 C2378 0.913 . S
H2398 C2416 0.951 . S
H2399 C2418 0.951 . S
H2400 C2420 0.950 . S
H2401 C2421 0.949 1_455 S
H2402 C2423 0.950 . S
H2403 C2426 0.950 . S
H2404 C2427 0.950 . S
H2405 C2429 0.950 . S
H2406 C2430 0.952 . S
H2407 C2431 0.951 . S
H2408 C2433 0.951 . S
H2409 C2435 0.950 . S
H2410 C2436 0.950 . S
H2411 C2438 0.950 . S
H2412 C2441 0.950 . S
H2413 C2442 0.959 . S
H2414 C2444 0.950 . S
H2415 C2445 0.950 . S
C2416 H2398 0.951 . S
C2416 C2417 1.366 . S
C2416 C2418 1.388 . S
C2417 C2416 1.366 . S
C2417 C2421 1.386 . S
C2418 H2399 0.951 . S
C2418 C2416 1.388 . S
C2418 C2419 1.366 1_655 S
C2419 C2418 1.366 1_455 S
C2419 C2420 1.414 . S
C2419 C2422 1.499 . S
C2420 H2400 0.950 . S
C2420 C2419 1.414 . S
C2420 C2421 1.373 1_455 S
C2421 H2401 0.949 1_655 S
C2421 C2417 1.386 . S
C2421 C2420 1.373 1_655 S
C2422 C2419 1.499 . S
C2422 C2423 1.373 . S
C2422 C2424 1.389 . S
C2423 H2402 0.950 . S
C2423 C2422 1.373 . S
C2423 C2439 1.377 . S
C2424 C2422 1.389 . S
C2424 C2425 1.524 . S
C2424 C2438 1.377 . S
C2425 C2424 1.524 . S
C2425 C2426 1.397 . S
C2425 C2430 1.363 . S
C2426 H2403 0.950 . S
C2426 C2425 1.397 . S
C2426 C2427 1.334 . S
C2427 H2404 0.950 . S
C2427 C2426 1.334 . S
C2427 C2428 1.287 . S
C2428 C2427 1.287 . S
C2428 C2429 1.524 . S
C2428 H2447 0.913 . S
C2429 H2405 0.950 . S
C2429 C2428 1.524 . S
C2429 C2430 1.415 . S
C2430 H2406 0.952 . S
C2430 C2425 1.363 . S
C2430 C2429 1.415 . S
C2431 H2407 0.951 . S
C2431 C2432 1.366 . S
C2431 C2433 1.388 . S
C2432 C2431 1.366 . S
C2432 C2436 1.385 . S
C2433 H2408 0.951 . S
C2433 C2431 1.388 . S
C2433 C2434 1.366 . S
C2434 C2433 1.366 . S
C2434 C2435 1.414 . S
C2434 C2437 1.499 . S
C2435 H2409 0.950 . S
C2435 C2434 1.414 . S
C2435 C2436 1.374 . S
C2436 H2410 0.950 . S
C2436 C2432 1.385 . S
C2436 C2435 1.374 . S
C2437 C2434 1.499 . S
C2437 C2438 1.373 . S
C2437 C2439 1.389 . S
C2438 H2411 0.950 . S
C2438 C2424 1.377 . S
C2438 C2437 1.373 . S
C2439 C2423 1.377 . S
C2439 C2437 1.389 . S
C2439 C2440 1.524 . S
C2440 C2439 1.524 . S
C2440 C2441 1.397 . S
C2440 C2445 1.363 . S
C2441 H2412 0.950 . S
C2441 C2440 1.397 . S
C2441 C2442 1.334 . S
C2442 H2413 0.959 . S
C2442 C2441 1.334 . S
C2442 C2443 1.287 . S
C2443 C2442 1.287 . S
C2443 C2444 1.524 . S
C2443 H2446 0.999 . S
C2444 H2414 0.950 . S
C2444 C2443 1.524 . S
C2444 C2445 1.415 . S
C2445 H2415 0.950 . S
C2445 C2440 1.363 . S
C2445 C2444 1.415 . S
H2446 C2443 0.999 . S
H2447 C2428 0.913 . S
C867 C38 2.418 . S
C882 C144 2.418 . S
C917 C91 2.418 . S
C932 C197 2.418 . S
C967 C250 2.418 . S
C982 C356 2.418 . S
C1017 C409 2.418 . S
C1032 C303 2.418 . S
C1067 C453 0.886 . S
C1082 C559 0.887 . S
C1117 C612 0.886 . S
C1132 C506 0.887 . S
C1167 C771 0.886 . S
C1182 C665 0.887 . S
C1217 C824 0.886 . S
C1232 C718 0.887 . S
C1267 C410 2.389 . S
C1282 C39 2.389 . S
C1317 C92 2.389 . S
C1332 C251 2.389 . S
C1367 C304 2.389 . S
C1382 C145 2.389 . S
C1417 C198 2.390 . S
C1432 C357 2.390 . S
C1467 C817 0.902 . S
C1482 C446 0.902 . S
C1517 C499 0.903 . S
C1532 C658 0.903 . S
C1567 C552 0.902 . S
C1582 C711 0.903 . S
C1617 C764 0.903 . S
C1632 C605 0.903 . S
C1667 C29 0.636 . S
C1682 C241 0.635 . S
C1717 C82 0.636 . S
C1732 C294 0.635 . S
C1767 C347 0.637 . S
C1782 C135 0.637 . S
C1817 C188 0.635 . S
C1832 C400 0.635 . S
C1867 C674 1.261 . S
C1882 C462 1.261 . S
C1917 C727 1.261 . S
C1932 C515 1.261 . S
C1967 C568 1.261 . S
C1982 C780 1.261 . S
C2017 C621 1.261 . S
C2032 C833 1.261 . S
C2067 C22 2.356 . S
C2082 C463 2.354 . S
C2117 C516 2.355 . S
C2132 C75 2.357 . S
C2167 C128 2.357 . S
C2182 C569 2.354 . S
C2217 C622 2.354 . S
C2232 C181 2.357 . S
C2267 C234 2.357 . S
C2282 C675 2.355 . S
C2317 C287 2.356 . S
C2332 C728 2.354 . S
C2367 C781 2.354 . S
C2382 C340 2.357 . S
C2417 C393 2.357 . S
C2432 C834 2.354 . S
