# Generated by pormake.
# Topology sxf, (6)-cn, num edge types: 1
# Building blocks:
#     Node 0, Type 0, BuildingBlock: OJICUG_clean_sbu_0, # of connection points: 6
#     Node 1, Type 0, BuildingBlock: OJICUG_clean_sbu_0, # of connection points: 6
#     Node 2, Type 0, BuildingBlock: OJICUG_clean_sbu_0, # of connection points: 6
#     Node 3, Type 0, BuildingBlock: OJICUG_clean_sbu_0, # of connection points: 6
#     Node 4, Type 0, BuildingBlock: OJICUG_clean_sbu_0, # of connection points: 6
#     Node 5, Type 0, BuildingBlock: OJICUG_clean_sbu_0, # of connection points: 6
#     Node 6, Type 0, BuildingBlock: OJICUG_clean_sbu_0, # of connection points: 6
#     Node 7, Type 0, BuildingBlock: OJICUG_clean_sbu_0, # of connection points: 6
#     Node 8, Type 0, BuildingBlock: OJICUG_clean_sbu_0, # of connection points: 6
#     Node 9, Type 0, BuildingBlock: OJICUG_clean_sbu_0, # of connection points: 6
#     Node 10, Type 0, BuildingBlock: OJICUG_clean_sbu_0, # of connection points: 6
#     Node 11, Type 0, BuildingBlock: OJICUG_clean_sbu_0, # of connection points: 6
#     Node 12, Type 0, BuildingBlock: OJICUG_clean_sbu_0, # of connection points: 6
#     Node 13, Type 0, BuildingBlock: OJICUG_clean_sbu_0, # of connection points: 6
#     Node 14, Type 0, BuildingBlock: OJICUG_clean_sbu_0, # of connection points: 6
#     Node 15, Type 0, BuildingBlock: OJICUG_clean_sbu_0, # of connection points: 6
#     Node 16, Type 0, BuildingBlock: OJICUG_clean_sbu_0, # of connection points: 6
#     Node 17, Type 0, BuildingBlock: OJICUG_clean_sbu_0, # of connection points: 6
#     Node 18, Type 0, BuildingBlock: OJICUG_clean_sbu_0, # of connection points: 6
#     Node 19, Type 0, BuildingBlock: OJICUG_clean_sbu_0, # of connection points: 6
#     Node 20, Type 0, BuildingBlock: OJICUG_clean_sbu_0, # of connection points: 6
#     Node 21, Type 0, BuildingBlock: OJICUG_clean_sbu_0, # of connection points: 6
#     Node 22, Type 0, BuildingBlock: OJICUG_clean_sbu_0, # of connection points: 6
#     Node 23, Type 0, BuildingBlock: OJICUG_clean_sbu_0, # of connection points: 6
#     Edge 24, Type (0, 0), BuildingBlock: OJICUG_clean_linker_0, # of connection points: 2
#     Edge 25, Type (0, 0), BuildingBlock: OJICUG_clean_linker_0, # of connection points: 2
#     Edge 26, Type (0, 0), BuildingBlock: OJICUG_clean_linker_0, # of connection points: 2
#     Edge 27, Type (0, 0), BuildingBlock: OJICUG_clean_linker_0, # of connection points: 2
#     Edge 28, Type (0, 0), BuildingBlock: OJICUG_clean_linker_0, # of connection points: 2
#     Edge 29, Type (0, 0), BuildingBlock: OJICUG_clean_linker_0, # of connection points: 2
#     Edge 30, Type (0, 0), BuildingBlock: OJICUG_clean_linker_0, # of connection points: 2
#     Edge 31, Type (0, 0), BuildingBlock: OJICUG_clean_linker_0, # of connection points: 2
#     Edge 32, Type (0, 0), BuildingBlock: OJICUG_clean_linker_0, # of connection points: 2
#     Edge 33, Type (0, 0), BuildingBlock: OJICUG_clean_linker_0, # of connection points: 2
#     Edge 34, Type (0, 0), BuildingBlock: OJICUG_clean_linker_0, # of connection points: 2
#     Edge 35, Type (0, 0), BuildingBlock: OJICUG_clean_linker_0, # of connection points: 2
#     Edge 36, Type (0, 0), BuildingBlock: OJICUG_clean_linker_0, # of connection points: 2
#     Edge 37, Type (0, 0), BuildingBlock: OJICUG_clean_linker_0, # of connection points: 2
#     Edge 38, Type (0, 0), BuildingBlock: OJICUG_clean_linker_0, # of connection points: 2
#     Edge 39, Type (0, 0), BuildingBlock: OJICUG_clean_linker_0, # of connection points: 2
#     Edge 40, Type (0, 0), BuildingBlock: OJICUG_clean_linker_0, # of connection points: 2
#     Edge 41, Type (0, 0), BuildingBlock: OJICUG_clean_linker_0, # of connection points: 2
#     Edge 42, Type (0, 0), BuildingBlock: OJICUG_clean_linker_0, # of connection points: 2
#     Edge 43, Type (0, 0), BuildingBlock: OJICUG_clean_linker_0, # of connection points: 2
#     Edge 44, Type (0, 0), BuildingBlock: OJICUG_clean_linker_0, # of connection points: 2
#     Edge 45, Type (0, 0), BuildingBlock: OJICUG_clean_linker_0, # of connection points: 2
#     Edge 46, Type (0, 0), BuildingBlock: OJICUG_clean_linker_0, # of connection points: 2
#     Edge 47, Type (0, 0), BuildingBlock: OJICUG_clean_linker_0, # of connection points: 2
#     Edge 48, Type (0, 0), BuildingBlock: OJICUG_clean_linker_0, # of connection points: 2
#     Edge 49, Type (0, 0), BuildingBlock: OJICUG_clean_linker_0, # of connection points: 2
#     Edge 50, Type (0, 0), BuildingBlock: OJICUG_clean_linker_0, # of connection points: 2
#     Edge 51, Type (0, 0), BuildingBlock: OJICUG_clean_linker_0, # of connection points: 2
#     Edge 52, Type (0, 0), BuildingBlock: OJICUG_clean_linker_0, # of connection points: 2
#     Edge 53, Type (0, 0), BuildingBlock: OJICUG_clean_linker_0, # of connection points: 2
#     Edge 54, Type (0, 0), BuildingBlock: OJICUG_clean_linker_0, # of connection points: 2
#     Edge 55, Type (0, 0), BuildingBlock: OJICUG_clean_linker_0, # of connection points: 2
#     Edge 56, Type (0, 0), BuildingBlock: OJICUG_clean_linker_0, # of connection points: 2
#     Edge 57, Type (0, 0), BuildingBlock: OJICUG_clean_linker_0, # of connection points: 2
#     Edge 58, Type (0, 0), BuildingBlock: OJICUG_clean_linker_0, # of connection points: 2
#     Edge 59, Type (0, 0), BuildingBlock: OJICUG_clean_linker_0, # of connection points: 2
#     Edge 60, Type (0, 0), BuildingBlock: OJICUG_clean_linker_0, # of connection points: 2
#     Edge 61, Type (0, 0), BuildingBlock: OJICUG_clean_linker_0, # of connection points: 2
#     Edge 62, Type (0, 0), BuildingBlock: OJICUG_clean_linker_0, # of connection points: 2
#     Edge 63, Type (0, 0), BuildingBlock: OJICUG_clean_linker_0, # of connection points: 2
#     Edge 64, Type (0, 0), BuildingBlock: OJICUG_clean_linker_0, # of connection points: 2
#     Edge 65, Type (0, 0), BuildingBlock: OJICUG_clean_linker_0, # of connection points: 2
#     Edge 66, Type (0, 0), BuildingBlock: OJICUG_clean_linker_0, # of connection points: 2
#     Edge 67, Type (0, 0), BuildingBlock: OJICUG_clean_linker_0, # of connection points: 2
#     Edge 68, Type (0, 0), BuildingBlock: OJICUG_clean_linker_0, # of connection points: 2
#     Edge 69, Type (0, 0), BuildingBlock: OJICUG_clean_linker_0, # of connection points: 2
#     Edge 70, Type (0, 0), BuildingBlock: OJICUG_clean_linker_0, # of connection points: 2
#     Edge 71, Type (0, 0), BuildingBlock: OJICUG_clean_linker_0, # of connection points: 2
#     Edge 72, Type (0, 0), BuildingBlock: OJICUG_clean_linker_0, # of connection points: 2
#     Edge 73, Type (0, 0), BuildingBlock: OJICUG_clean_linker_0, # of connection points: 2
#     Edge 74, Type (0, 0), BuildingBlock: OJICUG_clean_linker_0, # of connection points: 2
#     Edge 75, Type (0, 0), BuildingBlock: OJICUG_clean_linker_0, # of connection points: 2
#     Edge 76, Type (0, 0), BuildingBlock: OJICUG_clean_linker_0, # of connection points: 2
#     Edge 77, Type (0, 0), BuildingBlock: OJICUG_clean_linker_0, # of connection points: 2
#     Edge 78, Type (0, 0), BuildingBlock: OJICUG_clean_linker_0, # of connection points: 2
#     Edge 79, Type (0, 0), BuildingBlock: OJICUG_clean_linker_0, # of connection points: 2
#     Edge 80, Type (0, 0), BuildingBlock: OJICUG_clean_linker_0, # of connection points: 2
#     Edge 81, Type (0, 0), BuildingBlock: OJICUG_clean_linker_0, # of connection points: 2
#     Edge 82, Type (0, 0), BuildingBlock: OJICUG_clean_linker_0, # of connection points: 2
#     Edge 83, Type (0, 0), BuildingBlock: OJICUG_clean_linker_0, # of connection points: 2
#     Edge 84, Type (0, 0), BuildingBlock: OJICUG_clean_linker_0, # of connection points: 2
#     Edge 85, Type (0, 0), BuildingBlock: OJICUG_clean_linker_0, # of connection points: 2
#     Edge 86, Type (0, 0), BuildingBlock: OJICUG_clean_linker_0, # of connection points: 2
#     Edge 87, Type (0, 0), BuildingBlock: OJICUG_clean_linker_0, # of connection points: 2
#     Edge 88, Type (0, 0), BuildingBlock: OJICUG_clean_linker_0, # of connection points: 2
#     Edge 89, Type (0, 0), BuildingBlock: OJICUG_clean_linker_0, # of connection points: 2
#     Edge 90, Type (0, 0), BuildingBlock: OJICUG_clean_linker_0, # of connection points: 2
#     Edge 91, Type (0, 0), BuildingBlock: OJICUG_clean_linker_0, # of connection points: 2
#     Edge 92, Type (0, 0), BuildingBlock: OJICUG_clean_linker_0, # of connection points: 2
#     Edge 93, Type (0, 0), BuildingBlock: OJICUG_clean_linker_0, # of connection points: 2
#     Edge 94, Type (0, 0), BuildingBlock: OJICUG_clean_linker_0, # of connection points: 2
#     Edge 95, Type (0, 0), BuildingBlock: OJICUG_clean_linker_0, # of connection points: 2
# Relax obj value: 0.447
# Max RMSD: 0.186
# Mean RMSD: 0.186
data_MOF--net-sxf--node1-OJICUG_clean_sbu_0--edge1-OJICUG_clean_linker_0
_symmetry_space_group_name_H-M    P1
_symmetry_Int_Tables_number       1
_symmetry_cell_setting            triclinic
loop_
_symmetry_equiv_pos_as_xyz
'x, y, z'
_cell_length_a     34.937346
_cell_length_b     34.980575
_cell_length_c     34.985061
_cell_angle_alpha  89.997201
_cell_angle_beta   90.17624
_cell_angle_gamma 89.960487
loop_
_atom_site_label
_atom_site_type_symbol
_atom_site_fract_x
_atom_site_fract_y
_atom_site_fract_z
_atom_type_partial_charge
Sc0 Sc 0.07232 0.46454 0.16303 0.0
Sc1 Sc 0.07336 0.38318 0.21957 0.0
Sc2 Sc 0.0311 0.46908 0.25342 0.0
O3 O 0.05839 0.43883 0.21214 0.0
C4 C 0.08154 0.53587 0.21769 0.0
C5 C 0.14418 0.41286 0.17031 0.0
C6 C 0.10205 0.42744 0.29364 0.0
C7 C 0.04272 0.38147 0.13617 0.0
C8 C 0.98532 0.49029 0.17836 0.0
C9 C -0.00214 0.38694 0.2707 0.0
O10 O 0.09084 0.51694 0.18834 0.0
O11 O 0.125 0.38634 0.18588 0.0
O12 O 0.07604 0.45316 0.29258 0.0
O13 O 0.0556 0.41506 0.13067 0.0
O14 O 0.98582 0.48511 0.21446 0.0
O15 O 0.02406 0.36886 0.25342 0.0
O16 O 0.01453 0.48517 0.15715 0.0
O17 O 0.04274 0.36544 0.1689 0.0
O18 O -0.00349 0.42293 0.27207 0.0
O19 O 0.13079 0.44624 0.16586 0.0
O20 O 0.05935 0.52268 0.24298 0.0
O21 O 0.10549 0.40047 0.26929 0.0
Sc22 Sc 0.45485 0.5136 0.75384 0.0
Sc23 Sc 0.41245 0.5996 0.72012 0.0
Sc24 Sc 0.41328 0.51836 0.66339 0.0
O25 O 0.42741 0.54397 0.71257 0.0
C26 C 0.5004 0.49253 0.67894 0.0
C27 C 0.48794 0.59575 0.77166 0.0
C28 C 0.44279 0.60151 0.63674 0.0
C29 C 0.38391 0.55493 0.79392 0.0
C30 C 0.40438 0.44686 0.71768 0.0
C31 C 0.34145 0.57018 0.67056 0.0
O32 O 0.50019 0.49799 0.71501 0.0
O33 O 0.4619 0.61386 0.75403 0.0
O34 O 0.43013 0.56784 0.63119 0.0
O35 O 0.40979 0.52909 0.79278 0.0
O36 O 0.39453 0.46604 0.68862 0.0
O37 O 0.36063 0.59657 0.68645 0.0
O38 O 0.42696 0.4599 0.74284 0.0
O39 O 0.38059 0.58214 0.7698 0.0
O40 O 0.35486 0.53685 0.66583 0.0
O41 O 0.48918 0.55976 0.77315 0.0
O42 O 0.47098 0.49745 0.65777 0.0
O43 O 0.44273 0.61753 0.66948 0.0
Sc44 Sc 0.5294 0.0133 0.72971 0.0
Sc45 Sc 0.57187 0.09926 0.7633 0.0
Sc46 Sc 0.57117 0.01802 0.82007 0.0
O47 O 0.55695 0.04365 0.77091 0.0
C48 C 0.48403 -0.0077 0.8047 0.0
C49 C 0.49626 0.0955 0.71197 0.0
C50 C 0.54164 0.10119 0.84674 0.0
C51 C 0.60022 0.05455 0.68942 0.0
C52 C 0.58001 0.94654 0.76577 0.0
C53 C 0.643 0.06979 0.8127 0.0
O54 O 0.48414 -0.00221 0.76865 0.0
O55 O 0.52231 0.11356 0.72957 0.0
O56 O 0.55429 0.06749 0.85231 0.0
O57 O 0.57438 0.02871 0.69065 0.0
O58 O 0.58997 0.96573 0.79478 0.0
O59 O 0.6238 0.09617 0.79678 0.0
O60 O 0.55732 0.95957 0.74069 0.0
O61 O 0.60356 0.08178 0.71352 0.0
O62 O 0.62957 0.03651 0.81758 0.0
O63 O 0.49503 0.05951 0.71043 0.0
O64 O 0.51351 -0.00287 0.8258 0.0
O65 O 0.54173 0.11722 0.81401 0.0
Sc66 Sc 0.91301 0.96471 0.32041 0.0
Sc67 Sc 0.91193 0.88343 0.26375 0.0
Sc68 Sc 0.95426 0.96931 0.23004 0.0
O69 O 0.92693 0.93905 0.27127 0.0
C70 C 0.90379 0.03612 0.26583 0.0
C71 C 0.84108 0.9132 0.31298 0.0
C72 C 0.88336 0.92782 0.18968 0.0
C73 C 0.94256 0.88156 0.34716 0.0
C74 C 3e-05 0.99029 0.30516 0.0
C75 C 0.98749 0.88713 0.21274 0.0
O76 O 0.89452 0.01717 0.29516 0.0
O77 O 0.86024 0.88667 0.29736 0.0
O78 O 0.90937 0.9535 0.1908 0.0
O79 O 0.92971 0.91516 0.35272 0.0
O80 O -0.00047 0.98522 0.26905 0.0
O81 O 0.96127 0.86909 0.22997 0.0
O82 O 0.9708 0.9852 0.32635 0.0
O83 O 0.94248 0.86556 0.31442 0.0
O84 O 0.98886 0.92312 0.21137 0.0
O85 O 0.85453 0.94653 0.31756 0.0
O86 O 0.92599 0.02294 0.24052 0.0
O87 O 0.87988 0.90083 0.214 0.0
Sc88 Sc 0.16437 0.07042 0.46535 0.0
Sc89 Sc 0.22089 0.07139 0.38406 0.0
Sc90 Sc 0.25504 0.02936 0.47011 0.0
O91 O 0.21356 0.05653 0.43971 0.0
C92 C 0.21892 0.07979 0.53675 0.0
C93 C 0.17116 0.14212 0.41337 0.0
C94 C 0.29482 0.10036 0.42868 0.0
C95 C 0.13751 0.04049 0.38234 0.0
C96 C 0.18029 0.9835 0.49118 0.0
C97 C 0.27275 -0.0037 0.38796 0.0
O98 O 0.18984 0.08961 0.5175 0.0
O99 O 0.18713 0.12304 0.38703 0.0
O100 O 0.29379 0.07463 0.45464 0.0
O101 O 0.13199 0.05311 0.41601 0.0
O102 O 0.21637 0.98381 0.48563 0.0
O103 O 0.25483 0.02209 0.36984 0.0
O104 O 0.15906 0.01284 0.48642 0.0
O105 O 0.17019 0.0409 0.36623 0.0
O106 O 0.27447 -0.0048 0.42395 0.0
O107 O 0.1664 0.12871 0.44666 0.0
O108 O 0.24401 0.05715 0.52383 0.0
O109 O 0.27063 0.10342 0.40142 0.0
Sc110 Sc 0.32074 0.9125 0.9655 0.0
Sc111 Sc 0.26364 0.91151 0.88428 0.0
Sc112 Sc 0.23024 0.95401 0.97015 0.0
O113 O 0.27142 0.92654 0.93987 0.0
C114 C 0.26641 0.9036 0.03694 0.0
C115 C 0.31312 0.84062 0.91391 0.0
C116 C 0.18975 0.88317 0.92892 0.0
C117 C 0.34721 0.94182 0.88229 0.0
C118 C 0.30545 -0.0005 0.99115 0.0
C119 C 0.21256 0.98714 0.88796 0.0
O120 O 0.29558 0.89394 0.01789 0.0
O121 O 0.29717 0.85972 0.88747 0.0
O122 O 0.19098 0.90912 0.95463 0.0
O123 O 0.35289 0.92921 0.91598 0.0
O124 O 0.26931 -0.00078 0.98582 0.0
O125 O 0.22991 0.96097 0.86993 0.0
O126 O 0.32662 0.97017 0.9862 0.0
O127 O 0.31437 0.9417 0.8663 0.0
O128 O 0.21113 0.98842 0.92394 0.0
O129 O 0.31806 0.85411 0.94718 0.0
O130 O 0.24115 0.92601 0.02381 0.0
O131 O 0.21387 0.87974 0.90178 0.0
Sc132 Sc 0.66392 0.41229 0.51857 0.0
Sc133 Sc 0.72098 0.41141 0.5998 0.0
Sc134 Sc 0.75434 0.45386 0.51392 0.0
O135 O 0.7132 0.42639 0.5442 0.0
C136 C 0.71835 0.40335 0.44716 0.0
C137 C 0.67169 0.34047 0.57017 0.0
C138 C 0.79497 0.38311 0.55526 0.0
C139 C 0.63736 0.44164 0.60175 0.0
C140 C 0.67899 0.49926 0.49287 0.0
C141 C 0.77184 0.48713 0.59606 0.0
O142 O 0.68909 0.39387 0.46613 0.0
O143 O 0.68747 0.35964 0.59663 0.0
O144 O 0.79374 0.40912 0.52961 0.0
O145 O 0.63172 0.42888 0.56812 0.0
O146 O 0.71515 0.49893 0.49806 0.0
O147 O 0.75467 0.46087 0.61411 0.0
O148 O 0.65783 0.46997 0.49795 0.0
O149 O 0.67021 0.44166 0.61772 0.0
O150 O 0.77318 0.48846 0.56008 0.0
O151 O 0.66686 0.35389 0.53685 0.0
O152 O 0.74365 0.42567 0.46033 0.0
O153 O 0.77078 0.3796 0.58232 0.0
Sc154 Sc 0.73002 0.52961 0.01388 0.0
Sc155 Sc 0.76424 0.57155 0.09991 0.0
Sc156 Sc 0.82059 0.57081 0.0185 0.0
O157 O 0.7715 0.55679 0.04422 0.0
C158 C 0.80488 0.48392 -0.00745 0.0
C159 C 0.71262 0.49636 0.09601 0.0
C160 C 0.84771 0.54083 0.10143 0.0
C161 C 0.69014 0.60049 0.05549 0.0
C162 C 0.76583 0.58018 0.94722 0.0
C163 C 0.8137 0.6424 0.07057 0.0
O164 O 0.76881 0.4842 -0.00185 0.0
O165 O 0.73041 0.52222 0.11413 0.0
O166 O 0.85312 0.55357 0.06779 0.0
O167 O 0.69115 0.57474 0.02955 0.0
O168 O 0.79498 0.58993 0.96639 0.0
O169 O 0.79791 0.62322 0.09693 0.0
O170 O 0.74078 0.55756 0.96021 0.0
O171 O 0.71441 0.60359 0.08268 0.0
O172 O 0.81833 0.62908 0.03723 0.0
O173 O 0.7109 0.49527 0.06003 0.0
O174 O 0.82607 0.51325 -0.00262 0.0
O175 O 0.81504 0.54106 0.11757 0.0
Sc176 Sc 0.47069 0.25387 0.02916 0.0
Sc177 Sc 0.38478 0.22014 0.0714 0.0
Sc178 Sc 0.46623 0.16353 0.07071 0.0
O179 O 0.44046 0.21264 0.05655 0.0
C180 C 0.49175 0.17873 0.98375 0.0
C181 C 0.38836 0.27128 -0.00412 0.0
C182 C 0.38295 0.13667 0.04121 0.0
C183 C 0.42926 0.29416 0.09988 0.0
C184 C 0.53771 0.21809 0.07967 0.0
C185 C 0.41464 0.17095 0.14238 0.0
O186 O 0.48648 0.21484 0.98403 0.0
O187 O 0.37032 0.25391 0.02201 0.0
O188 O 0.41665 0.13117 0.05406 0.0
O189 O 0.45501 0.29306 0.07399 0.0
O190 O 0.51873 0.18885 0.08922 0.0
O191 O 0.38808 0.18657 0.12314 0.0
O192 O 0.52446 0.2433 0.05731 0.0
O193 O 0.40219 0.2699 0.10325 0.0
O194 O 0.44802 0.16636 0.12906 0.0
O195 O 0.42438 0.2727 -0.00539 0.0
O196 O 0.48679 0.1576 0.01306 0.0
O197 O 0.36692 0.16942 0.04108 0.0
Sc198 Sc 0.96542 0.3205 0.91204 0.0
Sc199 Sc 0.88415 0.26372 0.91089 0.0
Sc200 Sc 0.9704 0.22993 0.95304 0.0
O201 O 0.93988 0.27126 0.92587 0.0
C202 C 0.03701 0.26618 0.90275 0.0
C203 C 0.91342 0.31348 0.84026 0.0
C204 C 0.92881 0.18998 0.88203 0.0
C205 C 0.88221 0.347 0.94168 0.0
C206 C 0.99154 0.30476 -0.00109 0.0
C207 C 0.88828 0.21212 0.98611 0.0
O208 O 0.01783 0.29538 0.89328 0.0
O209 O 0.88703 0.2976 0.85935 0.0
O210 O 0.95467 0.19102 0.90795 0.0
O211 O 0.91585 0.35263 0.92898 0.0
O212 O 0.98627 0.26868 -0.00156 0.0
O213 O 0.87005 0.22964 0.9601 0.0
O214 O 0.98639 0.32605 0.96971 0.0
O215 O 0.86623 0.31424 0.94148 0.0
O216 O 0.92432 0.21073 0.98739 0.0
O217 O 0.94683 0.31811 0.85367 0.0
O218 O 0.02402 0.24086 0.92504 0.0
O219 O 0.9016 0.21417 0.87875 0.0
Sc220 Sc 0.51843 0.6635 0.4128 0.0
Sc221 Sc 0.59998 0.71991 0.41219 0.0
Sc222 Sc 0.51402 0.75391 0.45419 0.0
O223 O 0.54426 0.71257 0.42692 0.0
C224 C 0.44708 0.71821 0.40356 0.0
C225 C 0.57028 0.67064 0.34122 0.0
C226 C 0.55566 0.79403 0.38353 0.0
C227 C 0.60157 0.63648 0.44261 0.0
C228 C 0.49272 0.67896 0.49969 0.0
C229 C 0.59632 0.77123 0.48756 0.0
O230 O 0.46611 0.68899 0.39395 0.0
O231 O 0.59677 0.68635 0.36046 0.0
O232 O 0.52978 0.79296 0.40929 0.0
O233 O 0.56787 0.63103 0.42979 0.0
O234 O 0.49819 0.71502 0.49942 0.0
O235 O 0.61439 0.75367 0.46158 0.0
O236 O 0.4976 0.6578 0.47038 0.0
O237 O 0.61769 0.66917 0.44257 0.0
O238 O 0.5603 0.77279 0.48872 0.0
O239 O 0.5369 0.66601 0.35451 0.0
O240 O 0.46025 0.74332 0.42605 0.0
O241 O 0.58275 0.76973 0.38029 0.0
Sc242 Sc 0.01451 0.72986 0.53038 0.0
Sc243 Sc 0.10074 0.76341 0.57272 0.0
Sc244 Sc 0.01958 0.82045 0.5713 0.0
O245 O 0.04506 0.77112 0.55759 0.0
C246 C -0.00636 0.80475 0.4844 0.0
C247 C 0.09667 0.71186 0.49745 0.0
C248 C 0.10291 0.84665 0.54184 0.0
C249 C 0.05586 0.68983 0.60153 0.0
C250 C 0.94786 0.76634 0.58049 0.0
C251 C 0.07134 0.81328 0.64324 0.0
O252 O -0.00123 0.76863 0.48493 0.0
O253 O 0.11488 0.72929 0.52353 0.0
O254 O 0.06926 0.8524 0.55447 0.0
O255 O 0.03009 0.69092 0.57552 0.0
O256 O 0.96705 0.79553 0.58992 0.0
O257 O 0.09777 0.79733 0.62424 0.0
O258 O 0.96087 0.74094 0.5583 0.0
O259 O 0.0831 0.71394 0.60486 0.0
O260 O 0.03798 0.818 0.62972 0.0
O261 O 0.06063 0.71056 0.49611 0.0
O262 O -0.0012 0.82605 0.51358 0.0
O263 O 0.11885 0.81385 0.54214 0.0
Sc264 Sc 0.9125 0.51913 0.8205 0.0
Sc265 Sc 0.91144 0.60049 0.76396 0.0
Sc266 Sc 0.95371 0.51459 0.73011 0.0
O267 O 0.92642 0.54484 0.77139 0.0
C268 C -0.0005 0.49339 0.80517 0.0
C269 C 0.94207 0.60221 0.84736 0.0
C270 C 0.98694 0.59673 0.71283 0.0
C271 C 0.84062 0.57079 0.81321 0.0
C272 C 0.90329 0.44779 0.76585 0.0
C273 C 0.88276 0.55622 0.68989 0.0
O274 O 0.97029 0.49851 0.82639 0.0
O275 O 0.94205 0.61823 0.81463 0.0
O276 O 0.98829 0.56074 0.71146 0.0
O277 O 0.85402 0.53741 0.81767 0.0
O278 O 0.92547 0.46099 0.74055 0.0
O279 O 0.87931 0.5832 0.71423 0.0
O280 O 0.89399 0.46672 0.79519 0.0
O281 O 0.8598 0.59731 0.79764 0.0
O282 O 0.90877 0.53051 0.69094 0.0
O283 O 0.9292 0.56862 0.85286 0.0
O284 O -0.00101 0.49856 0.76907 0.0
O285 O 0.96074 0.61481 0.73011 0.0
Sc286 Sc 0.52998 0.47007 0.2297 0.0
Sc287 Sc 0.57236 0.38406 0.26341 0.0
Sc288 Sc 0.57153 0.46531 0.32014 0.0
O289 O 0.55741 0.43969 0.27096 0.0
C290 C 0.58045 0.5368 0.26588 0.0
C291 C 0.60093 0.42875 0.18962 0.0
C292 C 0.64336 0.41346 0.31298 0.0
C293 C 0.49689 0.38792 0.21185 0.0
C294 C 0.48442 0.49115 0.30456 0.0
C295 C 0.54199 0.38217 0.34679 0.0
O296 O 0.55784 0.52378 0.24074 0.0
O297 O 0.60421 0.40151 0.21372 0.0
O298 O 0.62994 0.44677 0.31776 0.0
O299 O 0.49567 0.42391 0.21033 0.0
O300 O 0.51384 0.48626 0.32573 0.0
O301 O 0.5421 0.36613 0.31406 0.0
O302 O 0.48461 0.48565 0.26851 0.0
O303 O 0.5229 0.36981 0.22953 0.0
O304 O 0.55462 0.41585 0.35235 0.0
O305 O 0.57506 0.45461 0.19077 0.0
O306 O 0.59035 0.5176 0.29491 0.0
O307 O 0.6242 0.38708 0.29706 0.0
Sc308 Sc 0.45544 0.97036 0.25381 0.0
Sc309 Sc 0.41297 0.88439 0.22024 0.0
Sc310 Sc 0.41367 0.96562 0.16345 0.0
O311 O 0.42789 0.94 0.21262 0.0
C312 C 0.40483 0.03711 0.21774 0.0
C313 C 0.38462 0.92911 0.29411 0.0
C314 C 0.34184 0.91385 0.17084 0.0
C315 C 0.48858 0.88816 0.27157 0.0
C316 C 0.50081 0.99135 0.17882 0.0
C317 C 0.44321 0.88246 0.13679 0.0
O318 O 0.42752 0.02408 0.24282 0.0
O319 O 0.38128 0.90188 0.27001 0.0
O320 O 0.35527 0.94713 0.16595 0.0
O321 O 0.4898 0.92415 0.27311 0.0
O322 O 0.47133 0.98651 0.15773 0.0
O323 O 0.44311 0.86643 0.16952 0.0
O324 O 0.5007 0.98586 0.21488 0.0
O325 O 0.46253 0.87009 0.25396 0.0
O326 O 0.43056 0.91615 0.13122 0.0
O327 O 0.41046 0.95496 0.29287 0.0
O328 O 0.39487 0.01791 0.18874 0.0
O329 O 0.36104 0.88747 0.18676 0.0
Sc330 Sc 0.07185 0.01897 0.66314 0.0
Sc331 Sc 0.07293 0.10024 0.7198 0.0
Sc332 Sc 0.0306 0.01436 0.75351 0.0
O333 O 0.05793 0.04462 0.71228 0.0
C334 C 0.98483 -0.00662 0.67838 0.0
C335 C 0.0423 0.10212 0.63639 0.0
C336 C -0.00264 0.09654 0.7708 0.0
C337 C 0.14378 0.07047 0.67058 0.0
C338 C 0.08106 0.94755 0.71772 0.0
C339 C 0.10149 0.05586 0.79387 0.0
O340 O 0.01406 -0.00152 0.65719 0.0
O341 O 0.04238 0.11812 0.66913 0.0
O342 O -0.004 0.06055 0.77217 0.0
O343 O 0.13033 0.03714 0.666 0.0
O344 O 0.05887 0.96073 0.74303 0.0
O345 O 0.10497 0.08285 0.76955 0.0
O346 O 0.09033 0.9665 0.68838 0.0
O347 O 0.12462 0.097 0.68619 0.0
O348 O 0.07549 0.03017 0.79275 0.0
O349 O 0.05515 0.06852 0.63083 0.0
O350 O 0.98533 -0.00156 0.7145 0.0
O351 O 0.02358 0.11458 0.75357 0.0
Sc352 Sc 0.72982 0.9543 0.51344 0.0
Sc353 Sc 0.76397 0.91228 0.5995 0.0
Sc354 Sc 0.82049 0.91324 0.51821 0.0
O355 O 0.7713 0.92713 0.54384 0.0
C356 C 0.76595 0.90387 0.4468 0.0
C357 C 0.69003 0.88331 0.55486 0.0
C358 C 0.81369 0.84154 0.57019 0.0
C359 C 0.71211 0.98737 0.59558 0.0
C360 C 0.80457 0.00015 0.49237 0.0
C361 C 0.84735 0.94317 0.60122 0.0
O362 O 0.74086 0.92651 0.45972 0.0
O363 O 0.71422 0.88025 0.58214 0.0
O364 O 0.81846 0.85495 0.53691 0.0
O365 O 0.71039 0.98846 0.5596 0.0
O366 O 0.8258 0.97081 0.49713 0.0
O367 O 0.81466 0.94276 0.61732 0.0
O368 O 0.76849 -0.00015 0.49793 0.0
O369 O 0.73003 0.96157 0.61371 0.0
O370 O 0.85287 0.93055 0.56755 0.0
O371 O 0.69107 0.90903 0.5289 0.0
O372 O 0.79503 0.89404 0.46606 0.0
O373 O 0.79772 0.86062 0.59653 0.0
Sc374 Sc 0.66411 0.07115 0.01802 0.0
Sc375 Sc 0.72119 0.07215 0.09925 0.0
Sc376 Sc 0.75461 0.02965 0.01339 0.0
O377 O 0.71342 0.05712 0.04367 0.0
C378 C 0.67941 0.98415 -0.00761 0.0
C379 C 0.63763 0.04182 0.10123 0.0
C380 C 0.77229 -0.00346 0.09558 0.0
C381 C 0.67171 0.14304 0.06962 0.0
C382 C 0.71842 0.08005 0.94659 0.0
C383 C 0.79509 0.1005 0.0546 0.0
O384 O 0.65824 0.01348 -0.00268 0.0
O385 O 0.67046 0.04197 0.11724 0.0
O386 O 0.77373 -0.00474 0.0596 0.0
O387 O 0.66675 0.12954 0.03636 0.0
O388 O 0.74368 0.05762 0.95972 0.0
O389 O 0.77098 0.10392 0.08175 0.0
O390 O 0.68927 0.08973 0.96565 0.0
O391 O 0.68767 0.12395 0.09605 0.0
O392 O 0.79385 0.07455 0.02889 0.0
O393 O 0.63195 0.05442 0.06754 0.0
O394 O 0.71555 0.98443 -0.00227 0.0
O395 O 0.75492 0.02269 0.11361 0.0
Sc396 Sc 0.3209 0.57137 0.46496 0.0
Sc397 Sc 0.26384 0.57226 0.38372 0.0
Sc398 Sc 0.23048 0.5298 0.4696 0.0
O399 O 0.27162 0.55727 0.43932 0.0
C400 C 0.30583 0.4844 0.49065 0.0
C401 C 0.34746 0.54204 0.38177 0.0
C402 C 0.21298 0.49654 0.38746 0.0
C403 C 0.31314 0.6432 0.41337 0.0
C404 C 0.26648 0.58029 0.53637 0.0
C405 C 0.18986 0.60057 0.42828 0.0
O406 O 0.32698 0.51368 0.48557 0.0
O407 O 0.31461 0.54201 0.3658 0.0
O408 O 0.21163 0.49522 0.42344 0.0
O409 O 0.31796 0.62978 0.44668 0.0
O410 O 0.24118 0.55798 0.5232 0.0
O411 O 0.21404 0.60407 0.40121 0.0
O412 O 0.29573 0.58979 0.51739 0.0
O413 O 0.29735 0.62403 0.3869 0.0
O414 O 0.19109 0.57455 0.45393 0.0
O415 O 0.3531 0.55479 0.41541 0.0
O416 O 0.26967 0.48472 0.48545 0.0
O417 O 0.23014 0.5228 0.36941 0.0
Sc418 Sc 0.16422 0.41285 0.96501 0.0
Sc419 Sc 0.22058 0.4121 0.88361 0.0
Sc420 Sc 0.25478 0.45404 0.96964 0.0
O421 O 0.21331 0.42686 0.9393 0.0
C422 C 0.17993 0.49974 0.99096 0.0
C423 C 0.13711 0.44284 0.88209 0.0
C424 C 0.2722 0.48729 0.88752 0.0
C425 C 0.17111 0.34125 0.91294 0.0
C426 C 0.21896 0.40347 0.0363 0.0
C427 C 0.29467 0.38315 0.92805 0.0
O428 O 0.15875 0.47041 0.98615 0.0
O429 O 0.16978 0.44258 0.86595 0.0
O430 O 0.27393 0.48836 0.9235 0.0
O431 O 0.16645 0.35458 0.94627 0.0
O432 O 0.244 0.4261 0.02332 0.0
O433 O 0.27041 0.38006 0.90085 0.0
O434 O 0.18982 0.3937 0.01712 0.0
O435 O 0.18692 0.36042 0.88658 0.0
O436 O 0.29365 0.40889 0.954 0.0
O437 O 0.1317 0.43011 0.91573 0.0
O438 O 0.21601 0.49946 0.98536 0.0
O439 O 0.25441 0.46144 0.86939 0.0
Sc440 Sc 0.51415 0.72979 0.95435 0.0
Sc441 Sc 0.60006 0.76351 0.91213 0.0
Sc442 Sc 0.51861 0.82014 0.91282 0.0
O443 O 0.54438 0.77102 0.92697 0.0
C444 C 0.44713 0.76559 0.90385 0.0
C445 C 0.55557 0.6895 0.88364 0.0
C446 C 0.5702 0.81271 0.84114 0.0
C447 C 0.59647 0.71237 0.98764 0.0
C448 C 0.4931 0.80492 -0.00022 0.0
C449 C 0.6019 0.84698 0.94232 0.0
O450 O 0.46037 0.74037 0.92621 0.0
O451 O 0.58265 0.71375 0.88027 0.0
O452 O 0.53683 0.81731 0.85446 0.0
O453 O 0.56045 0.71095 0.9889 0.0
O454 O 0.49806 0.82606 0.97047 0.0
O455 O 0.61793 0.81423 0.94245 0.0
O456 O 0.49836 0.76882 -0.00051 0.0
O457 O 0.61451 0.72974 0.96152 0.0
O458 O 0.5682 0.85249 0.92947 0.0
O459 O 0.52982 0.69061 0.90952 0.0
O460 O 0.46612 0.79482 0.89431 0.0
O461 O 0.59677 0.79708 0.86039 0.0
Sc462 Sc 0.0194 0.66316 0.07147 0.0
Sc463 Sc 0.10068 0.71995 0.07263 0.0
Sc464 Sc 0.01442 0.75374 0.03048 0.0
O465 O 0.04495 0.71241 0.05765 0.0
C466 C -0.00673 0.67892 0.9846 0.0
C467 C 0.1026 0.63666 0.04182 0.0
C468 C 0.09654 0.77156 -0.00258 0.0
C469 C 0.07141 0.67018 0.14325 0.0
C470 C 0.94781 0.71747 0.08077 0.0
C471 C 0.056 0.79368 0.1015 0.0
O472 O -0.0016 0.65764 0.01381 0.0
O473 O 0.11859 0.66942 0.04205 0.0
O474 O 0.06051 0.77297 -0.00384 0.0
O475 O 0.03801 0.66552 0.12984 0.0
O476 O 0.96079 0.74278 0.05846 0.0
O477 O 0.08322 0.76951 0.10476 0.0
O478 O 0.967 0.6883 0.09028 0.0
O479 O 0.09779 0.68608 0.12418 0.0
O480 O 0.03013 0.79263 0.07559 0.0
O481 O 0.06895 0.63104 0.0545 0.0
O482 O -0.00142 0.71501 0.98506 0.0
O483 O 0.11477 0.75401 0.02341 0.0
Sc484 Sc 0.46638 0.32019 0.57075 0.0
Sc485 Sc 0.38485 0.26376 0.57137 0.0
Sc486 Sc 0.47081 0.22978 0.52936 0.0
O487 O 0.44057 0.27111 0.55664 0.0
C488 C 0.49208 0.30474 0.48386 0.0
C489 C 0.38324 0.34719 0.54096 0.0
C490 C 0.38851 0.21245 0.49599 0.0
C491 C 0.41455 0.31303 0.64234 0.0
C492 C 0.53775 0.26549 0.57999 0.0
C493 C 0.42918 0.18965 0.60002 0.0
O494 O 0.48719 0.32589 0.51317 0.0
O495 O 0.36713 0.3145 0.54098 0.0
O496 O 0.42454 0.21089 0.49484 0.0
O497 O 0.44793 0.31766 0.62905 0.0
O498 O 0.52457 0.24036 0.55752 0.0
O499 O 0.40209 0.21395 0.60327 0.0
O500 O 0.51872 0.29471 0.58959 0.0
O501 O 0.38806 0.29732 0.6231 0.0
O502 O 0.45505 0.19072 0.57426 0.0
O503 O 0.41694 0.35265 0.55378 0.0
O504 O 0.48664 0.26867 0.48414 0.0
O505 O 0.37044 0.23 0.52198 0.0
Sc506 Sc 0.97034 0.25381 0.45317 0.0
Sc507 Sc 0.88411 0.22026 0.41084 0.0
Sc508 Sc 0.96528 0.16322 0.41225 0.0
O509 O 0.9398 0.21256 0.42597 0.0
C510 C 0.03699 0.21732 0.40306 0.0
C511 C 0.92899 0.29384 0.38202 0.0
C512 C 0.9135 0.17039 0.34032 0.0
C513 C 0.88818 0.27181 0.4861 0.0
C514 C 0.99122 0.17894 0.49916 0.0
C515 C 0.88195 0.13701 0.44172 0.0
O516 O 0.02399 0.24272 0.42527 0.0
O517 O 0.90175 0.26974 0.37871 0.0
O518 O 0.94686 0.16565 0.35384 0.0
O519 O 0.92421 0.27313 0.48743 0.0
O520 O 0.98608 0.15764 0.46997 0.0
O521 O 0.86601 0.16981 0.44141 0.0
O522 O 0.98606 0.21505 0.49864 0.0
O523 O 0.86997 0.25437 0.46004 0.0
O524 O 0.91561 0.13127 0.42911 0.0
O525 O 0.95478 0.29274 0.40802 0.0
O526 O 0.0178 0.18816 0.39361 0.0
O527 O 0.88707 0.18635 0.35931 0.0
C528 C 0.1256 0.44153 0.35877 0.0
C529 C 0.13348 0.43402 0.32033 0.0
H530 H 0.14568 0.46633 0.41078 0.0
C531 C 0.17007 0.44148 0.30566 0.0
H532 H 0.09733 0.4363 0.3703 0.0
C533 C 0.19734 0.45991 0.32828 0.0
C534 C 0.18852 0.46996 0.36604 0.0
H535 H 0.17634 0.43633 0.27577 0.0
H536 H 0.22441 0.46812 0.3157 0.0
C537 C 0.15324 0.45878 0.38173 0.0
C538 C 0.28822 0.52378 0.82841 0.0
C539 C 0.29705 0.51346 0.86616 0.0
H540 H 0.30935 0.54715 0.77599 0.0
C541 C 0.33267 0.52385 0.88186 0.0
H542 H 0.26091 0.51615 0.81582 0.0
C543 C 0.36051 0.54062 0.85895 0.0
C544 C 0.35254 0.54845 0.82054 0.0
H545 H 0.34025 0.51606 0.91089 0.0
H546 H 0.38893 0.54529 0.87051 0.0
C547 C 0.31572 0.54174 0.80585 0.0
C548 C 0.62343 0.04005 0.62436 0.0
C549 C 0.63151 0.04811 0.66269 0.0
H550 H 0.64368 0.01546 0.57242 0.0
C551 C 0.66846 0.04175 0.67724 0.0
H552 H 0.59491 0.04446 0.6129 0.0
C553 C 0.69602 0.02393 0.65461 0.0
C554 C 0.68711 0.0134 0.61695 0.0
H555 H 0.67492 0.04735 0.70704 0.0
H556 H 0.72346 0.01658 0.66711 0.0
C557 C 0.65132 0.02343 0.60138 0.0
C558 C 0.85999 0.94207 0.12451 0.0
C559 C 0.852 0.93439 0.16289 0.0
H560 H 0.83993 0.96687 0.07247 0.0
C561 C 0.81529 0.94156 0.17742 0.0
H562 H 0.88835 0.93705 0.11308 0.0
C563 C 0.78797 0.95986 0.15473 0.0
C564 C 0.79687 0.97007 0.11704 0.0
H565 H 0.80893 0.93627 0.20726 0.0
H566 H 0.76077 0.96786 0.16721 0.0
C567 C 0.83232 0.95919 0.10147 0.0
C568 C 0.32917 0.19614 0.45968 0.0
C569 C 0.36708 0.18757 0.46982 0.0
H570 H 0.27658 0.17467 0.43657 0.0
C571 C 0.38288 0.15211 0.45932 0.0
H572 H 0.31649 0.22333 0.46741 0.0
C573 C 0.35993 0.12414 0.44266 0.0
C574 C 0.32138 0.13185 0.43504 0.0
H575 H 0.41204 0.14473 0.46697 0.0
H576 H 0.3716 0.09583 0.43792 0.0
C577 C 0.30655 0.16852 0.44183 0.0
C578 C 0.12474 0.85964 0.94356 0.0
C579 C 0.16316 0.85177 0.93563 0.0
H580 H 0.07292 0.83934 0.96843 0.0
C581 C 0.17798 0.8151 0.94256 0.0
H582 H 0.11309 0.88796 0.93874 0.0
C583 C 0.15555 0.78766 0.96079 0.0
C584 C 0.1178 0.79639 0.97117 0.0
H585 H 0.20785 0.80883 0.93709 0.0
H586 H 0.16825 0.76047 0.96855 0.0
C587 C 0.10196 0.83185 0.9606 0.0
C588 C 0.88276 0.33189 0.52328 0.0
C589 C 0.8669 0.29654 0.51247 0.0
H590 H 0.87165 0.38785 0.54556 0.0
C591 C 0.82917 0.28779 0.52281 0.0
H592 H 0.91179 0.33939 0.5155 0.0
C593 C 0.80675 0.31512 0.54127 0.0
C594 C 0.82158 0.35172 0.54846 0.0
H595 H 0.81646 0.26067 0.51487 0.0
H596 H 0.77688 0.30885 0.54669 0.0
C597 C 0.85999 0.35958 0.54056 0.0
C598 C 0.67844 0.66859 0.04202 0.0
C599 C 0.66357 0.63201 0.04909 0.0
H600 H 0.66855 0.72324 0.01606 0.0
C601 C 0.62501 0.62435 0.04155 0.0
H602 H 0.70842 0.6747 0.04721 0.0
C603 C 0.60208 0.65225 0.02471 0.0
C604 C 0.61792 0.68759 0.01393 0.0
H605 H 0.61332 0.59609 0.04649 0.0
H606 H 0.57291 0.64488 0.01713 0.0
C607 C 0.65584 0.69614 0.02398 0.0
C608 C 0.44372 0.35923 0.12332 0.0
C609 C 0.43578 0.32087 0.13123 0.0
H610 H 0.46835 0.41117 0.14372 0.0
C611 C 0.44236 0.30626 0.16804 0.0
H612 H 0.43914 0.37073 0.0949 0.0
C613 C 0.4603 0.32887 0.19562 0.0
C614 C 0.47073 0.36656 0.18688 0.0
H615 H 0.43685 0.27644 0.17437 0.0
H616 H 0.46784 0.31633 0.22295 0.0
C617 C 0.46047 0.38219 0.15124 0.0
C618 C 0.9427 0.17833 0.81406 0.0
C619 C 0.93536 0.16346 0.85058 0.0
H620 H 0.96906 0.16851 0.75968 0.0
C621 C 0.94285 0.12496 0.85833 0.0
H622 H 0.93756 0.20826 0.80789 0.0
C623 C 0.95992 0.10209 0.83062 0.0
C624 C 0.97095 0.11794 0.79537 0.0
H625 H 0.93772 0.11327 0.88654 0.0
H626 H 0.96744 0.07297 0.83806 0.0
C627 C 0.96095 0.1558 0.78671 0.0
C628 C 0.52511 0.82902 0.28774 0.0
C629 C 0.51474 0.86673 0.29652 0.0
H630 H 0.54833 0.77646 0.30898 0.0
C631 C 0.52494 0.88227 0.3322 0.0
H632 H 0.51761 0.81655 0.26037 0.0
C633 C 0.54152 0.8592 0.36014 0.0
C634 C 0.54936 0.82081 0.3522 0.0
H635 H 0.5171 0.91128 0.33974 0.0
H636 H 0.54603 0.87063 0.38859 0.0
C637 C 0.54289 0.8063 0.31534 0.0
C638 C 0.04167 0.67838 0.66947 0.0
C639 C 0.04913 0.66341 0.63302 0.0
H640 H 0.01514 0.66874 0.7238 0.0
C641 C 0.04163 0.6249 0.62534 0.0
H642 H 0.0468 0.70832 0.67558 0.0
C643 C 0.02446 0.60214 0.65305 0.0
C644 C 0.01335 0.61808 0.68823 0.0
H645 H 0.04685 0.61313 0.59718 0.0
H646 H 0.01697 0.57301 0.64566 0.0
C647 C 0.02332 0.65595 0.69682 0.0
C648 C 0.81474 0.5422 0.67786 0.0
C649 C 0.85133 0.54965 0.66319 0.0
H650 H 0.7604 0.51556 0.66781 0.0
C651 C 0.85921 0.54214 0.62475 0.0
H652 H 0.80847 0.54735 0.70775 0.0
C653 C 0.83158 0.52489 0.60179 0.0
C654 C 0.79629 0.51372 0.61748 0.0
H655 H 0.88748 0.54737 0.61321 0.0
H656 H 0.83913 0.51734 0.57273 0.0
C657 C 0.78747 0.52377 0.65524 0.0
C658 C 0.6691 0.44194 0.17771 0.0
C659 C 0.6323 0.4352 0.163 0.0
H660 H 0.72391 0.46755 0.16774 0.0
C661 C 0.62434 0.443 0.12459 0.0
H662 H 0.67546 0.43655 0.20757 0.0
C663 C 0.65218 0.45976 0.10167 0.0
C664 C 0.68779 0.47018 0.11738 0.0
H665 H 0.59592 0.43831 0.11301 0.0
H666 H 0.6446 0.46753 0.07263 0.0
C667 C 0.69661 0.45989 0.15513 0.0
C668 C 0.36141 0.9436 0.35917 0.0
C669 C 0.35333 0.93555 0.32084 0.0
H670 H 0.34117 0.96819 0.41112 0.0
C671 C 0.31639 0.94192 0.30629 0.0
H672 H 0.38993 0.93918 0.37063 0.0
C673 C 0.28883 0.95974 0.32892 0.0
C674 C 0.29774 0.97026 0.36659 0.0
H675 H 0.30992 0.93633 0.27649 0.0
H676 H 0.26139 0.96711 0.31642 0.0
C677 C 0.33353 0.96022 0.38216 0.0
C678 C 0.15254 0.0245 0.88208 0.0
C679 C 0.18798 0.01361 0.86651 0.0
H680 H 0.09651 0.04665 0.87048 0.0
C681 C 0.19688 0.02381 0.82881 0.0
H682 H 0.14494 0.01682 0.91108 0.0
C683 C 0.16956 0.04212 0.80612 0.0
C684 C 0.13285 0.0493 0.82066 0.0
H685 H 0.22407 0.01581 0.81633 0.0
H686 H 0.17592 0.0474 0.77628 0.0
C687 C 0.12487 0.04162 0.85905 0.0
C688 C 0.6783 0.81515 0.54171 0.0
C689 C 0.66347 0.85182 0.54851 0.0
H690 H 0.66836 0.76035 0.51613 0.0
C691 C 0.62491 0.85952 0.5409 0.0
H692 H 0.70827 0.80901 0.54697 0.0
C693 C 0.60196 0.83156 0.52425 0.0
C694 C 0.61776 0.7961 0.51374 0.0
H695 H 0.61325 0.88784 0.54565 0.0
H696 H 0.5728 0.83895 0.51661 0.0
C697 C 0.65568 0.78753 0.52386 0.0
C698 C 0.82927 0.19601 0.02272 0.0
C699 C 0.86702 0.18729 0.01236 0.0
H700 H 0.77697 0.17484 0.0464 0.0
C701 C 0.88287 0.15184 0.02294 0.0
H702 H 0.81657 0.22319 0.01495 0.0
C703 C 0.86009 0.12405 0.03998 0.0
C704 C 0.82167 0.1319 0.0479 0.0
H705 H 0.91191 0.14435 0.01513 0.0
H706 H 0.87175 0.09573 0.04481 0.0
C707 C 0.80684 0.16856 0.04095 0.0
C708 C 0.15568 0.69589 0.46075 0.0
C709 C 0.11794 0.68714 0.47108 0.0
H710 H 0.20797 0.67483 0.43686 0.0
C711 C 0.10208 0.6518 0.46025 0.0
H712 H 0.16839 0.723 0.4687 0.0
C713 C 0.12485 0.6241 0.44297 0.0
C714 C 0.16326 0.63197 0.43508 0.0
H715 H 0.07305 0.6443 0.46803 0.0
H716 H 0.11318 0.59584 0.43796 0.0
C717 C 0.17809 0.66856 0.44228 0.0
C718 C 0.38274 0.3314 0.95881 0.0
C719 C 0.3669 0.29605 0.96959 0.0
H720 H 0.37149 0.38755 0.93703 0.0
C721 C 0.32897 0.2875 0.95955 0.0
H722 H 0.41191 0.33876 0.96637 0.0
C723 C 0.30637 0.31505 0.94152 0.0
C724 C 0.32123 0.35163 0.93445 0.0
H725 H 0.31627 0.2604 0.96748 0.0
H726 H 0.27639 0.30894 0.93635 0.0
C727 C 0.3598 0.3593 0.94197 0.0
C728 C 0.52439 0.60148 0.83226 0.0
C729 C 0.5141 0.61711 0.79663 0.0
H730 H 0.54574 0.61292 0.88859 0.0
C731 C 0.5245 0.65482 0.7879 0.0
H732 H 0.51653 0.57248 0.83976 0.0
C733 C 0.54244 0.67742 0.81548 0.0
C734 C 0.54906 0.6628 0.85228 0.0
H735 H 0.51693 0.66736 0.76058 0.0
H736 H 0.54792 0.70725 0.80916 0.0
C737 C 0.54114 0.62443 0.86018 0.0
C738 C 0.02389 0.82787 0.19683 0.0
C739 C 0.0139 0.86573 0.18816 0.0
H740 H 0.04727 0.7754 0.17565 0.0
C741 C 0.02491 0.88157 0.15292 0.0
H742 H 0.01579 0.81517 0.22386 0.0
C743 C 0.04197 0.8587 0.1252 0.0
C744 C 0.04946 0.8202 0.13296 0.0
H745 H 0.01739 0.91069 0.14547 0.0
H746 H 0.0471 0.87039 0.09699 0.0
C747 C 0.04214 0.80534 0.16948 0.0
C748 C 0.45974 0.15465 0.69581 0.0
C749 C 0.4701 0.11693 0.68703 0.0
H750 H 0.43652 0.20721 0.67457 0.0
C751 C 0.45989 0.1014 0.65134 0.0
H752 H 0.46724 0.16711 0.72318 0.0
C753 C 0.44331 0.12447 0.62341 0.0
C754 C 0.43548 0.16286 0.63135 0.0
H755 H 0.46773 0.07239 0.6438 0.0
H756 H 0.43879 0.11305 0.59496 0.0
C757 C 0.44195 0.17737 0.66821 0.0
C758 C 0.94321 0.35876 0.35821 0.0
C759 C 0.9357 0.32026 0.35053 0.0
H760 H 0.96786 0.41066 0.33789 0.0
C761 C 0.94315 0.30529 0.31407 0.0
H762 H 0.938 0.37052 0.38638 0.0
C763 C 0.96148 0.32773 0.28671 0.0
C764 C 0.97146 0.36559 0.29531 0.0
H765 H 0.93801 0.27535 0.30795 0.0
H766 H 0.96965 0.31495 0.25973 0.0
C767 C 0.96036 0.38153 0.33049 0.0
C768 C 0.19647 0.36548 0.09175 0.0
C769 C 0.21709 0.39695 0.07783 0.0
H770 H 0.15763 0.34542 0.13421 0.0
C771 C 0.22402 0.42809 0.10228 0.0
H772 H 0.19114 0.34095 0.07359 0.0
C773 C 0.20401 0.43116 0.13663 0.0
C774 C 0.17784 0.40263 0.14717 0.0
H775 H 0.24008 0.45267 0.09244 0.0
H776 H 0.20543 0.45779 0.1524 0.0
C777 C 0.17724 0.36813 0.12657 0.0
C778 C 0.2614 0.55548 0.60221 0.0
C779 C 0.26839 0.58669 0.57792 0.0
H780 H 0.28 0.52551 0.65228 0.0
C781 C 0.28914 0.61804 0.59204 0.0
H782 H 0.24524 0.531 0.5922 0.0
C783 C 0.30841 0.61519 0.62693 0.0
C784 C 0.30774 0.58061 0.64739 0.0
H785 H 0.29454 0.64262 0.57398 0.0
H786 H 0.32812 0.6378 0.63476 0.0
C787 C 0.28146 0.5522 0.63663 0.0
C788 C 0.67623 0.11484 0.85608 0.0
C789 C 0.67681 0.0802 0.83571 0.0
H790 H 0.6903 0.14236 0.9089 0.0
C791 C 0.7031 0.05176 0.84645 0.0
H792 H 0.65652 0.13747 0.84825 0.0
C793 C 0.72328 0.05508 0.88079 0.0
C794 C 0.71639 0.08637 0.90503 0.0
H795 H 0.70448 0.02503 0.83085 0.0
H796 H 0.73944 0.03058 0.89079 0.0
C797 C 0.69563 0.11773 0.8909 0.0
C798 C 0.7611 0.92855 0.38083 0.0
C799 C 0.76794 0.89738 0.40527 0.0
H800 H 0.77982 0.95825 0.33078 0.0
C801 C 0.78858 0.86588 0.39138 0.0
H802 H 0.74503 0.95315 0.39066 0.0
C803 C 0.8079 0.86851 0.35661 0.0
C804 C 0.80736 0.90303 0.33603 0.0
H805 H 0.79386 0.84132 0.40954 0.0
H806 H 0.82752 0.84577 0.34899 0.0
C807 C 0.78118 0.9316 0.34653 0.0
C808 C 0.13739 0.20206 0.43129 0.0
C809 C 0.14799 0.17576 0.40291 0.0
H810 H 0.09313 0.23838 0.45242 0.0
C811 C 0.12739 0.17505 0.36833 0.0
H812 H 0.15314 0.20353 0.45797 0.0
C813 C 0.09254 0.19438 0.36544 0.0
C814 C 0.07858 0.21522 0.39674 0.0
H815 H 0.1351 0.15531 0.34576 0.0
H816 H 0.07438 0.18898 0.34086 0.0
C817 C 0.10301 0.22218 0.42796 0.0
C818 C 0.34695 0.78071 0.93205 0.0
C819 C 0.33613 0.80688 0.90356 0.0
H820 H 0.39139 0.74455 0.95332 0.0
C821 C 0.35643 0.80739 0.86893 0.0
H822 H 0.3314 0.77938 0.95878 0.0
C823 C 0.39128 0.78807 0.86609 0.0
C824 C 0.4055 0.76745 0.8975 0.0
H825 H 0.34855 0.827 0.84626 0.0
H826 H 0.40925 0.79336 0.84146 0.0
C827 C 0.3813 0.7606 0.92878 0.0
C828 C 0.59351 0.28793 0.61786 0.0
C829 C 0.57937 0.26731 0.58643 0.0
H830 H 0.63615 0.32685 0.63777 0.0
C831 C 0.60363 0.26045 0.5552 0.0
H832 H 0.57549 0.29322 0.64246 0.0
C833 C 0.63798 0.28055 0.55199 0.0
C834 C 0.6487 0.30672 0.58049 0.0
H835 H 0.59361 0.24438 0.53065 0.0
H836 H 0.65357 0.2792 0.52529 0.0
C837 C 0.62834 0.30723 0.61508 0.0
C838 C 0.8474 0.70234 0.05264 0.0
C839 C 0.83685 0.67604 0.08102 0.0
H840 H 0.89161 0.73863 0.03147 0.0
C841 C 0.85746 0.67532 0.11559 0.0
H842 H 0.83162 0.70383 0.02596 0.0
C843 C 0.8923 0.69464 0.11846 0.0
C844 C 0.90622 0.71545 0.08714 0.0
H845 H 0.84978 0.65559 0.13818 0.0
H846 H 0.91047 0.68923 0.14303 0.0
C847 C 0.88176 0.72244 0.05594 0.0
C848 C 0.42983 0.10296 0.22245 0.0
C849 C 0.3985 0.07868 0.21566 0.0
H850 H 0.45977 0.15286 0.20365 0.0
C851 C 0.36699 0.09274 0.19498 0.0
H852 H 0.45443 0.093 0.23856 0.0
C853 C 0.36976 0.1275 0.1756 0.0
C854 C 0.40442 0.1479 0.1761 0.0
H855 H 0.34231 0.07471 0.18973 0.0
H856 H 0.347 0.13525 0.15597 0.0
C857 C 0.43302 0.13725 0.2023 0.0
C858 C 0.86549 0.39217 0.78828 0.0
C859 C 0.89685 0.40624 0.76761 0.0
H860 H 0.84574 0.34949 0.82708 0.0
C861 C 0.92807 0.38189 0.76057 0.0
H862 H 0.84092 0.41028 0.79372 0.0
C863 C 0.93135 0.34746 0.78051 0.0
C864 C 0.90294 0.33674 0.8067 0.0
H865 H 0.95256 0.39187 0.74448 0.0
H866 H 0.95805 0.33176 0.779 0.0
C867 C 0.86834 0.35727 0.80743 0.0
C868 C 0.61815 0.59242 0.28874 0.0
C869 C 0.58671 0.57837 0.26799 0.0
H870 H 0.638 0.63492 0.3278 0.0
C871 C 0.55536 0.60265 0.26112 0.0
H872 H 0.64284 0.57438 0.29404 0.0
C873 C 0.55208 0.63693 0.28128 0.0
C874 C 0.58061 0.64758 0.30754 0.0
H875 H 0.5308 0.5927 0.24496 0.0
H876 H 0.52531 0.65255 0.27988 0.0
C877 C 0.61529 0.62718 0.30812 0.0
C878 C 0.05642 0.88164 0.72292 0.0
C879 C 0.08759 0.90601 0.71595 0.0
H880 H 0.02657 0.83149 0.70444 0.0
C881 C 0.11901 0.89197 0.69532 0.0
H882 H 0.03188 0.8916 0.73897 0.0
C883 C 0.11627 0.85707 0.67616 0.0
C884 C 0.08172 0.83651 0.67684 0.0
H885 H 0.14356 0.91009 0.68992 0.0
H886 H 0.13892 0.8493 0.65654 0.0
C887 C 0.05325 0.8472 0.70299 0.0
C888 C 0.80755 0.61552 0.85695 0.0
C889 C 0.80695 0.58101 0.83636 0.0
H890 H 0.79365 0.64272 0.90991 0.0
C891 C 0.78079 0.55247 0.84691 0.0
H892 H 0.82715 0.63822 0.84928 0.0
C893 C 0.76078 0.55555 0.88125 0.0
C894 C 0.76769 0.5867 0.90569 0.0
H895 H 0.77938 0.52584 0.83114 0.0
H896 H 0.74473 0.53097 0.8911 0.0
C897 C 0.78831 0.61818 0.89176 0.0
C898 C 0.67639 0.36844 0.35661 0.0
C899 C 0.67708 0.40302 0.33615 0.0
H900 H 0.69025 0.34102 0.40956 0.0
C901 C 0.70336 0.43142 0.3469 0.0
H902 H 0.65668 0.34584 0.34878 0.0
C903 C 0.72343 0.42814 0.38131 0.0
C904 C 0.71643 0.39694 0.40561 0.0
H905 H 0.70483 0.45811 0.33123 0.0
H906 H 0.73959 0.45263 0.39131 0.0
C907 C 0.69567 0.36559 0.3915 0.0
C908 C 0.28922 0.86592 0.09262 0.0
C909 C 0.26846 0.89729 0.0785 0.0
H910 H 0.32833 0.84617 0.13524 0.0
C911 C 0.26156 0.92857 0.10275 0.0
H912 H 0.29454 0.8413 0.0746 0.0
C913 C 0.28175 0.93187 0.13709 0.0
C914 C 0.30804 0.90343 0.14782 0.0
H915 H 0.24539 0.95306 0.09275 0.0
H916 H 0.28036 0.9586 0.15269 0.0
C917 C 0.30861 0.8688 0.12744 0.0
C918 C 0.22376 0.0551 0.60272 0.0
C919 C 0.21692 0.08628 0.57828 0.0
H920 H 0.20504 0.02541 0.65277 0.0
C921 C 0.19628 0.11778 0.59217 0.0
H922 H 0.23983 0.0305 0.5929 0.0
C923 C 0.17697 0.11515 0.62694 0.0
C924 C 0.1775 0.08063 0.64752 0.0
H925 H 0.19101 0.14234 0.57401 0.0
H926 H 0.15735 0.13789 0.63456 0.0
C927 C 0.20367 0.05205 0.63702 0.0
C928 C 0.89232 0.78929 0.61812 0.0
C929 C 0.90627 0.76845 0.58682 0.0
H930 H 0.84977 0.82836 0.6378 0.0
C931 C 0.88184 0.76148 0.5556 0.0
H932 H 0.91049 0.79469 0.64269 0.0
C933 C 0.84746 0.78159 0.55228 0.0
C934 C 0.83686 0.8079 0.58065 0.0
H935 H 0.89173 0.74527 0.53115 0.0
H936 H 0.83171 0.78011 0.52559 0.0
C937 C 0.85746 0.80861 0.61523 0.0
C938 C 0.62841 0.17629 0.11458 0.0
C939 C 0.6487 0.17679 0.07995 0.0
H940 H 0.57561 0.19031 0.14207 0.0
C941 C 0.63788 0.20295 0.05146 0.0
H942 H 0.63631 0.15667 0.13725 0.0
C943 C 0.60352 0.22306 0.05473 0.0
C944 C 0.57934 0.21623 0.08603 0.0
H945 H 0.65342 0.20428 0.02473 0.0
H946 H 0.59343 0.23911 0.0302 0.0
C947 C 0.59357 0.19561 0.11744 0.0
C948 C 0.39132 0.69576 0.36569 0.0
C949 C 0.40546 0.71637 0.39713 0.0
H950 H 0.34869 0.65683 0.34578 0.0
C951 C 0.38119 0.72322 0.42836 0.0
H952 H 0.40934 0.69048 0.34109 0.0
C953 C 0.34685 0.70311 0.43157 0.0
C954 C 0.33613 0.67694 0.40306 0.0
H955 H 0.39122 0.73928 0.45291 0.0
H956 H 0.33126 0.70446 0.45827 0.0
C957 C 0.35649 0.67644 0.36846 0.0
C958 C 0.10305 0.26121 0.92757 0.0
C959 C 0.0786 0.2682 0.89636 0.0
H960 H 0.15318 0.27981 0.95755 0.0
C961 C 0.09253 0.28902 0.86505 0.0
H962 H 0.09318 0.24501 0.95203 0.0
C963 C 0.12737 0.30832 0.86792 0.0
C964 C 0.14798 0.30761 0.90249 0.0
H965 H 0.07435 0.29442 0.84048 0.0
H966 H 0.13504 0.32806 0.84534 0.0
C967 C 0.13742 0.2813 0.93087 0.0
C968 C 0.61508 0.85616 0.80793 0.0
C969 C 0.58043 0.83576 0.80742 0.0
H970 H 0.64253 0.90894 0.79379 0.0
C971 C 0.55182 0.84641 0.78123 0.0
H972 H 0.63784 0.84839 0.82756 0.0
C973 C 0.55501 0.8807 0.76106 0.0
C974 C 0.58635 0.90497 0.76786 0.0
H975 H 0.52508 0.83079 0.77988 0.0
H976 H 0.5304 0.89064 0.74496 0.0
C977 C 0.61786 0.89092 0.78853 0.0
C978 C 0.11648 0.62639 0.17609 0.0
C979 C 0.08189 0.64692 0.17682 0.0
H980 H 0.14392 0.5734 0.18978 0.0
C981 C 0.05348 0.6362 0.20302 0.0
H982 H 0.13908 0.63419 0.15643 0.0
C983 C 0.05677 0.60177 0.22296 0.0
C984 C 0.08799 0.57742 0.21592 0.0
H985 H 0.02678 0.6519 0.20452 0.0
H986 H 0.03228 0.59179 0.23904 0.0
C987 C 0.11934 0.59149 0.19524 0.0
C988 C 0.42948 0.38103 0.72243 0.0
C989 C 0.39811 0.4053 0.71558 0.0
H990 H 0.45954 0.33114 0.70368 0.0
C991 C 0.36668 0.39124 0.69483 0.0
H992 H 0.45403 0.39099 0.73859 0.0
C993 C 0.36955 0.35648 0.67545 0.0
C994 C 0.40423 0.33608 0.67603 0.0
H995 H 0.34198 0.40926 0.68953 0.0
H996 H 0.34684 0.34872 0.65577 0.0
C997 C 0.43277 0.34675 0.70228 0.0
C998 C 0.92843 0.10203 0.26063 0.0
C999 C 0.89726 0.07766 0.26761 0.0
H1000 H 0.95827 0.15219 0.27912 0.0
C1001 C 0.86584 0.0917 0.28824 0.0
H1002 H 0.95297 0.09207 0.24458 0.0
C1003 C 0.86858 0.1266 0.30739 0.0
C1004 C 0.90312 0.14716 0.30671 0.0
H1005 H 0.8413 0.07357 0.29364 0.0
H1006 H 0.84593 0.13436 0.32701 0.0
C1007 C 0.9316 0.13647 0.28057 0.0
C1008 C 0.02122 0.3817 0.06841 0.0
C1009 C 0.02781 0.36103 0.10225 0.0
H1010 H 0.00494 0.38045 0.00988 0.0
C1011 C 0.02151 0.32134 0.10233 0.0
H1012 H 0.02539 0.41237 0.06726 0.0
C1013 C 0.00964 0.30271 0.06883 0.0
C1014 C 0.00377 0.32354 0.03485 0.0
H1015 H 0.0264 0.30465 0.12795 0.0
H1016 H 0.00532 0.27206 0.06951 0.0
C1017 C 0.00942 0.36328 0.03528 0.0
C1018 C 0.47533 0.68063 0.5697 0.0
C1019 C 0.4807 0.66001 0.53555 0.0
H1020 H 0.45932 0.67834 0.62892 0.0
C1021 C 0.47485 0.6203 0.53574 0.0
H1022 H 0.47982 0.71124 0.57057 0.0
C1023 C 0.4634 0.60169 0.56882 0.0
C1024 C 0.45735 0.62213 0.60286 0.0
H1025 H 0.47893 0.60329 0.51019 0.0
H1026 H 0.45907 0.57105 0.56746 0.0
C1027 C 0.4638 0.6618 0.60315 0.0
C1028 C 0.50936 0.18039 0.91381 0.0
C1029 C 0.50368 0.15974 0.94788 0.0
H1030 H 0.52564 0.17811 0.85467 0.0
C1031 C 0.50918 0.11997 0.94762 0.0
H1032 H 0.50515 0.21105 0.913 0.0
C1033 C 0.52064 0.10134 0.91454 0.0
C1034 C 0.52703 0.12183 0.8806 0.0
H1035 H 0.50483 0.10293 0.9731 0.0
H1036 H 0.52471 0.07066 0.91582 0.0
C1037 C 0.52089 0.16155 0.88037 0.0
C1038 C 0.97513 0.80264 0.41459 0.0
C1039 C 0.98156 0.82355 0.44842 0.0
H1040 H 0.95792 0.80455 0.35559 0.0
C1041 C 0.97655 0.86338 0.4478 0.0
H1042 H 0.97895 0.77192 0.41405 0.0
C1043 C 0.96477 0.88181 0.41467 0.0
C1044 C 0.95756 0.86107 0.38101 0.0
H1045 H 0.98151 0.88061 0.47307 0.0
H1046 H 0.96108 0.91256 0.41567 0.0
C1047 C 0.96329 0.82129 0.38108 0.0
C1048 C 0.07007 0.01806 0.38251 0.0
C1049 C 0.10364 0.02556 0.3618 0.0
H1050 H 0.01164 0.00135 0.38117 0.0
C1051 C 0.10342 0.02035 0.32196 0.0
H1052 H 0.06921 0.02135 0.41329 0.0
C1053 C 0.06983 0.00877 0.30322 0.0
C1054 C 0.03607 0.00211 0.32409 0.0
H1055 H 0.12884 0.02597 0.30524 0.0
H1056 H 0.07026 0.00537 0.27245 0.0
C1057 C 0.03685 0.00654 0.36398 0.0
C1058 C 0.44819 0.97438 0.86342 0.0
C1059 C 0.44822 0.9802 0.82371 0.0
H1060 H 0.41665 0.95845 0.9127 0.0
C1061 C 0.41396 0.97463 0.80312 0.0
H1062 H 0.47382 0.97862 0.88041 0.0
C1063 C 0.38058 0.96292 0.82197 0.0
C1064 C 0.38104 0.95649 0.86164 0.0
H1065 H 0.41296 0.97907 0.7725 0.0
H1066 H 0.35473 0.95829 0.80545 0.0
C1067 C 0.41518 0.96275 0.88206 0.0
C1068 C 0.6039 0.46303 0.66194 0.0
C1069 C 0.60348 0.45637 0.62231 0.0
H1070 H 0.57146 0.47947 0.71129 0.0
C1071 C 0.56935 0.4625 0.60183 0.0
H1072 H 0.62975 0.45849 0.6785 0.0
C1073 C 0.53631 0.47426 0.62037 0.0
C1074 C 0.53625 0.48031 0.66005 0.0
H1075 H 0.5679 0.45803 0.57122 0.0
H1076 H 0.51069 0.47839 0.60334 0.0
C1077 C 0.57049 0.47485 0.6807 0.0
C1078 C 0.94869 0.50757 0.1197 0.0
C1079 C 0.94929 0.50231 0.15949 0.0
H1080 H 0.91646 0.52309 0.07052 0.0
C1081 C 0.91537 0.50833 0.18031 0.0
H1082 H 0.97404 0.50294 0.10255 0.0
C1083 C 0.88178 0.52001 0.16162 0.0
C1084 C 0.88169 0.52596 0.12189 0.0
H1085 H 0.91482 0.5043 0.211 0.0
H1086 H 0.85621 0.52506 0.17832 0.0
C1087 C 0.91545 0.51918 0.10122 0.0
C1088 C 0.32261 0.10301 0.02013 0.0
C1089 C 0.36233 0.10274 0.02662 0.0
H1090 H 0.2731 0.07039 0.00405 0.0
C1091 C 0.38284 0.0687 0.02055 0.0
H1092 H 0.30602 0.12878 0.02463 0.0
C1093 C 0.36422 0.0356 0.00903 0.0
C1094 C 0.32444 0.03538 0.00316 0.0
H1095 H 0.41353 0.06739 0.0249 0.0
H1096 H 0.38126 0.01005 0.00493 0.0
C1097 C 0.30377 0.06954 0.00855 0.0
C1098 C 0.88215 0.41474 0.96304 0.0
C1099 C 0.86162 0.38081 0.95654 0.0
H1100 H 0.88066 0.47325 0.97915 0.0
C1101 C 0.82189 0.38057 0.96283 0.0
H1102 H 0.91284 0.41603 0.95886 0.0
C1103 C 0.8031 0.41399 0.97461 0.0
C1104 C 0.8238 0.44806 0.98038 0.0
H1105 H 0.80529 0.35488 0.95801 0.0
H1106 H 0.77243 0.41318 0.97893 0.0
C1107 C 0.86358 0.44779 0.97474 0.0
C1108 C 0.60156 0.56866 0.46375 0.0
C1109 C 0.62214 0.60256 0.45733 0.0
H1110 H 0.60308 0.51007 0.47968 0.0
C1111 C 0.66191 0.60268 0.46354 0.0
H1112 H 0.57084 0.56747 0.45963 0.0
C1113 C 0.68072 0.56919 0.47516 0.0
C1114 C 0.65998 0.53516 0.48087 0.0
H1115 H 0.67854 0.62835 0.45876 0.0
H1116 H 0.71142 0.56993 0.47942 0.0
C1117 C 0.62016 0.53552 0.47532 0.0
C1118 C 0.16339 0.88026 0.52131 0.0
C1119 C 0.12356 0.88037 0.52693 0.0
H1120 H 0.21294 0.91299 0.50584 0.0
C1121 C 0.10293 0.91413 0.51973 0.0
H1122 H 0.18006 0.85469 0.52668 0.0
C1123 C 0.1215 0.94717 0.50808 0.0
C1124 C 0.16138 0.9476 0.50319 0.0
H1125 H 0.07215 0.91529 0.52333 0.0
H1126 H 0.10434 0.9725 0.50313 0.0
C1127 C 0.18219 0.91368 0.50958 0.0
C1128 C 0.96332 0.66233 0.88118 0.0
C1129 C 0.95697 0.62265 0.88128 0.0
H1130 H 0.97956 0.71161 0.91398 0.0
C1131 C 0.96352 0.60199 0.91513 0.0
H1132 H 0.95847 0.67902 0.85555 0.0
C1133 C 0.97533 0.62041 0.94826 0.0
C1134 C 0.98103 0.66014 0.94867 0.0
H1135 H 0.9593 0.57133 0.9163 0.0
H1136 H 0.97977 0.60325 0.97367 0.0
C1137 C 0.9752 0.68097 0.91468 0.0
C1138 C 0.52122 0.38202 0.41467 0.0
C1139 C 0.5274 0.36155 0.38067 0.0
H1140 H 0.5056 0.38044 0.47327 0.0
C1141 C 0.52108 0.32186 0.38042 0.0
H1142 H 0.52545 0.41267 0.41599 0.0
C1143 C 0.50956 0.30304 0.41387 0.0
C1144 C 0.50407 0.32368 0.44799 0.0
H1145 H 0.52567 0.3053 0.35468 0.0
H1146 H 0.50519 0.27241 0.41303 0.0
C1147 C 0.50978 0.36342 0.44776 0.0
C1148 C 0.47547 0.80325 0.06972 0.0
C1149 C 0.48117 0.82391 0.03565 0.0
H1150 H 0.45916 0.80552 0.12885 0.0
C1151 C 0.47571 0.86369 0.03593 0.0
H1152 H 0.47965 0.77259 0.07052 0.0
C1153 C 0.46425 0.88231 0.06901 0.0
C1154 C 0.45782 0.86182 0.10294 0.0
H1155 H 0.48008 0.88073 0.01046 0.0
H1156 H 0.4602 0.913 0.06774 0.0
C1157 C 0.46393 0.82209 0.10316 0.0
C1158 C 0.00969 0.18104 0.56897 0.0
C1159 C 0.00332 0.16014 0.53513 0.0
H1160 H 0.02688 0.17912 0.62798 0.0
C1161 C 0.00837 0.12031 0.53573 0.0
H1162 H 0.00584 0.21175 0.56953 0.0
C1163 C 0.02015 0.10187 0.56886 0.0
C1164 C 0.02731 0.1226 0.60254 0.0
H1165 H 0.00344 0.10309 0.51045 0.0
H1166 H 0.02387 0.07114 0.56784 0.0
C1167 C 0.02154 0.16238 0.60248 0.0
C1168 C 0.88145 0.96331 0.66159 0.0
C1169 C 0.88121 0.95811 0.62175 0.0
H1170 H 0.91461 0.97829 0.7111 0.0
C1171 C 0.91478 0.96562 0.60104 0.0
H1172 H 0.85603 0.95768 0.67832 0.0
C1173 C 0.948 0.97714 0.61957 0.0
C1174 C 0.94878 0.98157 0.65946 0.0
H1175 H 0.91564 0.96234 0.57026 0.0
H1176 H 0.9732 0.98234 0.60238 0.0
C1177 C 0.91503 0.9749 0.68034 0.0
C1178 C 0.60425 0.02075 0.16156 0.0
C1179 C 0.6038 0.02715 0.12188 0.0
H1180 H 0.57186 0.00462 0.21103 0.0
C1181 C 0.56967 0.02086 0.10146 0.0
H1182 H 0.6301 0.0254 0.17808 0.0
C1183 C 0.53666 0.00922 0.12009 0.0
C1184 C 0.53663 0.00344 0.15981 0.0
H1185 H 0.56821 0.02513 0.07081 0.0
H1186 H 0.51104 0.00496 0.1031 0.0
C1187 C 0.57087 0.00904 0.18041 0.0
C1188 C 0.44853 0.50949 0.36313 0.0
C1189 C 0.44857 0.50338 0.32346 0.0
H1190 H 0.41695 0.52576 0.41228 0.0
C1191 C 0.41431 0.50879 0.30282 0.0
H1192 H 0.47416 0.5054 0.38015 0.0
C1193 C 0.3809 0.52061 0.32158 0.0
C1194 C 0.38134 0.52732 0.3612 0.0
H1195 H 0.41333 0.50412 0.27224 0.0
H1196 H 0.35504 0.52509 0.30503 0.0
C1197 C 0.41549 0.52124 0.38167 0.0
C1198 C 0.0694 0.46458 0.88231 0.0
C1199 C 0.10314 0.45773 0.86163 0.0
H1200 H 0.01083 0.48089 0.881 0.0
C1201 C 0.10303 0.46362 0.82188 0.0
H1202 H 0.06841 0.46073 0.91302 0.0
C1203 C 0.06943 0.4753 0.8032 0.0
C1204 C 0.03553 0.48139 0.82404 0.0
H1205 H 0.12857 0.45851 0.80518 0.0
H1206 H 0.06996 0.47927 0.77251 0.0
C1207 C 0.03616 0.4762 0.86383 0.0
C1208 C 0.60202 0.91495 0.96298 0.0
C1209 C 0.62252 0.88091 0.95691 0.0
H1210 H 0.6036 0.97361 0.97859 0.0
C1211 C 0.66225 0.88064 0.96341 0.0
H1212 H 0.57133 0.91627 0.95862 0.0
C1213 C 0.68108 0.91411 0.97499 0.0
C1214 C 0.66041 0.94826 0.98037 0.0
H1215 H 0.67883 0.85486 0.95891 0.0
H1216 H 0.71175 0.91325 0.97949 0.0
C1217 C 0.62064 0.94806 0.9745 0.0
C1218 C 0.12123 0.53588 0.00874 0.0
C1219 C 0.16101 0.5356 0.00312 0.0
H1220 H 0.07196 0.56765 0.02459 0.0
C1221 C 0.18172 0.56966 0.00892 0.0
H1222 H 0.10414 0.51042 0.0043 0.0
C1223 C 0.16293 0.60308 0.0207 0.0
C1224 C 0.1232 0.60285 0.02696 0.0
H1225 H 0.21239 0.57046 0.00462 0.0
H1226 H 0.17953 0.62877 0.02554 0.0
C1227 C 0.10265 0.56893 0.02043 0.0
C1228 C 0.3229 0.38098 0.51999 0.0
C1229 C 0.36267 0.38111 0.52622 0.0
H1230 H 0.27339 0.41372 0.50409 0.0
C1231 C 0.38325 0.41501 0.5198 0.0
H1232 H 0.30627 0.35531 0.52477 0.0
C1233 C 0.36465 0.44814 0.50823 0.0
C1234 C 0.32483 0.4485 0.50266 0.0
H1235 H 0.41397 0.4162 0.52394 0.0
H1236 H 0.38173 0.47359 0.50386 0.0
C1237 C 0.3041 0.41446 0.50836 0.0
C1238 C 0.88194 0.06954 0.46385 0.0
C1239 C 0.86131 0.10329 0.45664 0.0
H1240 H 0.88054 0.01117 0.48046 0.0
C1241 C 0.82148 0.1034 0.46224 0.0
H1242 H 0.91272 0.06839 0.46027 0.0
C1243 C 0.80268 0.06998 0.47397 0.0
C1244 C 0.82349 0.03606 0.48037 0.0
H1245 H 0.8048 0.12896 0.45687 0.0
H1246 H 0.77192 0.07066 0.4777 0.0
C1247 C 0.86337 0.0365 0.4755 0.0
loop_
_geom_bond_atom_site_label_1
_geom_bond_atom_site_label_2
_geom_bond_distance
_geom_bond_site_symmetry_2
_ccdc_geom_bond_type
Sc0 O3 2.025 . S
Sc0 O10 2.105 . S
Sc0 O13 2.105 . S
Sc0 O16 2.105 1_455 S
Sc0 O19 2.105 . S
Sc1 O3 2.025 . S
Sc1 O11 2.105 . S
Sc1 O15 2.105 . S
Sc1 O17 2.105 . S
Sc1 O21 2.105 . S
Sc2 O3 2.025 . S
Sc2 O12 2.105 . S
Sc2 O14 2.105 1_455 S
Sc2 O18 2.105 . S
Sc2 O20 2.105 . S
O3 Sc0 2.025 . S
O3 Sc1 2.025 . S
O3 Sc2 2.025 . S
C4 O10 1.268 . S
C4 O20 1.268 . S
C5 O11 1.268 . S
C5 O19 1.268 . S
C6 O12 1.268 . S
C6 O21 1.268 . S
C7 O13 1.268 . S
C7 O17 1.268 . S
C8 O14 1.268 . S
C8 O16 1.268 . S
C9 O15 1.268 . S
C9 O18 1.268 . S
O10 Sc0 2.105 . S
O10 C4 1.268 . S
O11 Sc1 2.105 . S
O11 C5 1.268 . S
O12 Sc2 2.105 . S
O12 C6 1.268 . S
O13 Sc0 2.105 . S
O13 C7 1.268 . S
O14 Sc2 2.105 1_655 S
O14 C8 1.268 . S
O15 Sc1 2.105 . S
O15 C9 1.268 . S
O16 Sc0 2.105 1_655 S
O16 C8 1.268 . S
O17 Sc1 2.105 . S
O17 C7 1.268 . S
O18 Sc2 2.105 . S
O18 C9 1.268 . S
O19 Sc0 2.105 . S
O19 C5 1.268 . S
O20 Sc2 2.105 . S
O20 C4 1.268 . S
O21 Sc1 2.105 . S
O21 C6 1.268 . S
Sc22 O25 2.025 . S
Sc22 O32 2.105 . S
Sc22 O35 2.105 . S
Sc22 O38 2.105 . S
Sc22 O41 2.105 . S
Sc23 O25 2.025 . S
Sc23 O33 2.105 . S
Sc23 O37 2.105 . S
Sc23 O39 2.105 . S
Sc23 O43 2.105 . S
Sc24 O25 2.025 . S
Sc24 O34 2.105 . S
Sc24 O36 2.105 . S
Sc24 O40 2.105 . S
Sc24 O42 2.105 . S
O25 Sc22 2.025 . S
O25 Sc23 2.025 . S
O25 Sc24 2.025 . S
C26 O32 1.268 . S
C26 O42 1.268 . S
C27 O33 1.268 . S
C27 O41 1.268 . S
C28 O34 1.268 . S
C28 O43 1.268 . S
C29 O35 1.268 . S
C29 O39 1.268 . S
C30 O36 1.268 . S
C30 O38 1.268 . S
C31 O37 1.268 . S
C31 O40 1.268 . S
O32 Sc22 2.105 . S
O32 C26 1.268 . S
O33 Sc23 2.105 . S
O33 C27 1.268 . S
O34 Sc24 2.105 . S
O34 C28 1.268 . S
O35 Sc22 2.105 . S
O35 C29 1.268 . S
O36 Sc24 2.105 . S
O36 C30 1.268 . S
O37 Sc23 2.105 . S
O37 C31 1.268 . S
O38 Sc22 2.105 . S
O38 C30 1.268 . S
O39 Sc23 2.105 . S
O39 C29 1.268 . S
O40 Sc24 2.105 . S
O40 C31 1.268 . S
O41 Sc22 2.105 . S
O41 C27 1.268 . S
O42 Sc24 2.105 . S
O42 C26 1.268 . S
O43 Sc23 2.105 . S
O43 C28 1.268 . S
Sc44 O47 2.025 . S
Sc44 O54 2.105 . S
Sc44 O57 2.105 . S
Sc44 O60 2.105 1_545 S
Sc44 O63 2.105 . S
Sc45 O47 2.025 . S
Sc45 O55 2.105 . S
Sc45 O59 2.105 . S
Sc45 O61 2.105 . S
Sc45 O65 2.105 . S
Sc46 O47 2.025 . S
Sc46 O56 2.105 . S
Sc46 O58 2.105 . S
Sc46 O62 2.105 . S
Sc46 O64 2.105 . S
O47 Sc44 2.025 . S
O47 Sc45 2.025 . S
O47 Sc46 2.025 . S
C48 O54 1.268 . S
C48 O64 1.268 . S
C49 O55 1.268 . S
C49 O63 1.268 . S
C50 O56 1.268 . S
C50 O65 1.268 . S
C51 O57 1.268 . S
C51 O61 1.268 . S
C52 O58 1.268 1_565 S
C52 O60 1.268 . S
C53 O59 1.268 . S
C53 O62 1.268 . S
O54 Sc44 2.105 . S
O54 C48 1.268 . S
O55 Sc45 2.105 . S
O55 C49 1.268 . S
O56 Sc46 2.105 . S
O56 C50 1.268 . S
O57 Sc44 2.105 . S
O57 C51 1.268 . S
O58 Sc46 2.105 . S
O58 C52 1.268 1_545 S
O59 Sc45 2.105 . S
O59 C53 1.268 . S
O60 Sc44 2.105 1_565 S
O60 C52 1.268 . S
O61 Sc45 2.105 . S
O61 C51 1.268 . S
O62 Sc46 2.105 . S
O62 C53 1.268 . S
O63 Sc44 2.105 . S
O63 C49 1.268 . S
O64 Sc46 2.105 . S
O64 C48 1.268 . S
O65 Sc45 2.105 . S
O65 C50 1.268 . S
Sc66 O69 2.025 . S
Sc66 O76 2.105 . S
Sc66 O79 2.105 . S
Sc66 O82 2.105 1_655 S
Sc66 O85 2.105 . S
Sc67 O69 2.025 . S
Sc67 O77 2.105 . S
Sc67 O81 2.105 . S
Sc67 O83 2.105 . S
Sc67 O87 2.105 . S
Sc68 O69 2.025 . S
Sc68 O78 2.105 . S
Sc68 O80 2.105 1_655 S
Sc68 O84 2.105 . S
Sc68 O86 2.105 1_565 S
O69 Sc66 2.025 . S
O69 Sc67 2.025 . S
O69 Sc68 2.025 . S
C70 O76 1.268 1_545 S
C70 O86 1.268 . S
C71 O77 1.268 . S
C71 O85 1.268 . S
C72 O78 1.268 . S
C72 O87 1.268 . S
C73 O79 1.268 . S
C73 O83 1.268 . S
C74 O80 1.268 . S
C74 O82 1.268 . S
C75 O81 1.268 . S
C75 O84 1.268 . S
O76 Sc66 2.105 . S
O76 C70 1.268 1_565 S
O77 Sc67 2.105 . S
O77 C71 1.268 . S
O78 Sc68 2.105 . S
O78 C72 1.268 . S
O79 Sc66 2.105 . S
O79 C73 1.268 . S
O80 Sc68 2.105 1_455 S
O80 C74 1.268 . S
O81 Sc67 2.105 . S
O81 C75 1.268 . S
O82 Sc66 2.105 1_455 S
O82 C74 1.268 . S
O83 Sc67 2.105 . S
O83 C73 1.268 . S
O84 Sc68 2.105 . S
O84 C75 1.268 . S
O85 Sc66 2.105 . S
O85 C71 1.268 . S
O86 Sc68 2.105 1_545 S
O86 C70 1.268 . S
O87 Sc67 2.105 . S
O87 C72 1.268 . S
Sc88 O91 2.025 . S
Sc88 O98 2.105 . S
Sc88 O101 2.105 . S
Sc88 O104 2.105 1_545 S
Sc88 O107 2.105 . S
Sc89 O91 2.025 . S
Sc89 O99 2.105 . S
Sc89 O103 2.105 . S
Sc89 O105 2.105 . S
Sc89 O109 2.105 . S
Sc90 O91 2.025 . S
Sc90 O100 2.105 . S
Sc90 O102 2.105 1_545 S
Sc90 O106 2.105 . S
Sc90 O108 2.105 . S
O91 Sc88 2.025 . S
O91 Sc89 2.025 . S
O91 Sc90 2.025 . S
C92 O98 1.268 . S
C92 O108 1.268 . S
C93 O99 1.268 . S
C93 O107 1.268 . S
C94 O100 1.268 . S
C94 O109 1.268 . S
C95 O101 1.268 . S
C95 O105 1.268 . S
C96 O102 1.268 . S
C96 O104 1.268 . S
C97 O103 1.268 . S
C97 O106 1.268 . S
O98 Sc88 2.105 . S
O98 C92 1.268 . S
O99 Sc89 2.105 . S
O99 C93 1.268 . S
O100 Sc90 2.105 . S
O100 C94 1.268 . S
O101 Sc88 2.105 . S
O101 C95 1.268 . S
O102 Sc90 2.105 1_565 S
O102 C96 1.268 . S
O103 Sc89 2.105 . S
O103 C97 1.268 . S
O104 Sc88 2.105 1_565 S
O104 C96 1.268 . S
O105 Sc89 2.105 . S
O105 C95 1.268 . S
O106 Sc90 2.105 . S
O106 C97 1.268 . S
O107 Sc88 2.105 . S
O107 C93 1.268 . S
O108 Sc90 2.105 . S
O108 C92 1.268 . S
O109 Sc89 2.105 . S
O109 C94 1.268 . S
Sc110 O113 2.025 . S
Sc110 O120 2.105 . S
Sc110 O123 2.105 . S
Sc110 O126 2.105 1_565 S
Sc110 O129 2.105 . S
Sc111 O113 2.025 . S
Sc111 O121 2.105 . S
Sc111 O125 2.105 . S
Sc111 O127 2.105 . S
Sc111 O131 2.105 . S
Sc112 O113 2.025 . S
Sc112 O122 2.105 . S
Sc112 O124 2.105 1_565 S
Sc112 O128 2.105 . S
Sc112 O130 2.105 1_556 S
O113 Sc110 2.025 . S
O113 Sc111 2.025 . S
O113 Sc112 2.025 . S
C114 O120 1.268 1_554 S
C114 O130 1.268 . S
C115 O121 1.268 . S
C115 O129 1.268 . S
C116 O122 1.268 . S
C116 O131 1.268 . S
C117 O123 1.268 . S
C117 O127 1.268 . S
C118 O124 1.268 . S
C118 O126 1.268 . S
C119 O125 1.268 . S
C119 O128 1.268 . S
O120 Sc110 2.105 . S
O120 C114 1.268 1_556 S
O121 Sc111 2.105 . S
O121 C115 1.268 . S
O122 Sc112 2.105 . S
O122 C116 1.268 . S
O123 Sc110 2.105 . S
O123 C117 1.268 . S
O124 Sc112 2.105 1_545 S
O124 C118 1.268 . S
O125 Sc111 2.105 . S
O125 C119 1.268 . S
O126 Sc110 2.105 1_545 S
O126 C118 1.268 . S
O127 Sc111 2.105 . S
O127 C117 1.268 . S
O128 Sc112 2.105 . S
O128 C119 1.268 . S
O129 Sc110 2.105 . S
O129 C115 1.268 . S
O130 Sc112 2.105 1_554 S
O130 C114 1.268 . S
O131 Sc111 2.105 . S
O131 C116 1.268 . S
Sc132 O135 2.025 . S
Sc132 O142 2.105 . S
Sc132 O145 2.105 . S
Sc132 O148 2.105 . S
Sc132 O151 2.105 . S
Sc133 O135 2.025 . S
Sc133 O143 2.105 . S
Sc133 O147 2.105 . S
Sc133 O149 2.105 . S
Sc133 O153 2.105 . S
Sc134 O135 2.025 . S
Sc134 O144 2.105 . S
Sc134 O146 2.105 . S
Sc134 O150 2.105 . S
Sc134 O152 2.105 . S
O135 Sc132 2.025 . S
O135 Sc133 2.025 . S
O135 Sc134 2.025 . S
C136 O142 1.268 . S
C136 O152 1.268 . S
C137 O143 1.268 . S
C137 O151 1.268 . S
C138 O144 1.268 . S
C138 O153 1.268 . S
C139 O145 1.268 . S
C139 O149 1.268 . S
C140 O146 1.268 . S
C140 O148 1.268 . S
C141 O147 1.268 . S
C141 O150 1.268 . S
O142 Sc132 2.105 . S
O142 C136 1.268 . S
O143 Sc133 2.105 . S
O143 C137 1.268 . S
O144 Sc134 2.105 . S
O144 C138 1.268 . S
O145 Sc132 2.105 . S
O145 C139 1.268 . S
O146 Sc134 2.105 . S
O146 C140 1.268 . S
O147 Sc133 2.105 . S
O147 C141 1.268 . S
O148 Sc132 2.105 . S
O148 C140 1.268 . S
O149 Sc133 2.105 . S
O149 C139 1.268 . S
O150 Sc134 2.105 . S
O150 C141 1.268 . S
O151 Sc132 2.105 . S
O151 C137 1.268 . S
O152 Sc134 2.105 . S
O152 C136 1.268 . S
O153 Sc133 2.105 . S
O153 C138 1.268 . S
Sc154 O157 2.025 . S
Sc154 O164 2.105 . S
Sc154 O167 2.105 . S
Sc154 O170 2.105 1_554 S
Sc154 O173 2.105 . S
Sc155 O157 2.025 . S
Sc155 O165 2.105 . S
Sc155 O169 2.105 . S
Sc155 O171 2.105 . S
Sc155 O175 2.105 . S
Sc156 O157 2.025 . S
Sc156 O166 2.105 . S
Sc156 O168 2.105 . S
Sc156 O172 2.105 . S
Sc156 O174 2.105 . S
O157 Sc154 2.025 . S
O157 Sc155 2.025 . S
O157 Sc156 2.025 . S
C158 O164 1.268 . S
C158 O174 1.268 . S
C159 O165 1.268 . S
C159 O173 1.268 . S
C160 O166 1.268 . S
C160 O175 1.268 . S
C161 O167 1.268 . S
C161 O171 1.268 . S
C162 O168 1.268 1_556 S
C162 O170 1.268 . S
C163 O169 1.268 . S
C163 O172 1.268 . S
O164 Sc154 2.105 . S
O164 C158 1.268 . S
O165 Sc155 2.105 . S
O165 C159 1.268 . S
O166 Sc156 2.105 . S
O166 C160 1.268 . S
O167 Sc154 2.105 . S
O167 C161 1.268 . S
O168 Sc156 2.105 . S
O168 C162 1.268 1_554 S
O169 Sc155 2.105 . S
O169 C163 1.268 . S
O170 Sc154 2.105 1_556 S
O170 C162 1.268 . S
O171 Sc155 2.105 . S
O171 C161 1.268 . S
O172 Sc156 2.105 . S
O172 C163 1.268 . S
O173 Sc154 2.105 . S
O173 C159 1.268 . S
O174 Sc156 2.105 . S
O174 C158 1.268 . S
O175 Sc155 2.105 . S
O175 C160 1.268 . S
Sc176 O179 2.025 . S
Sc176 O186 2.105 1_554 S
Sc176 O189 2.105 . S
Sc176 O192 2.105 . S
Sc176 O195 2.105 . S
Sc177 O179 2.025 . S
Sc177 O187 2.105 . S
Sc177 O191 2.105 . S
Sc177 O193 2.105 . S
Sc177 O197 2.105 . S
Sc178 O179 2.025 . S
Sc178 O188 2.105 . S
Sc178 O190 2.105 . S
Sc178 O194 2.105 . S
Sc178 O196 2.105 1_554 S
O179 Sc176 2.025 . S
O179 Sc177 2.025 . S
O179 Sc178 2.025 . S
C180 O186 1.268 . S
C180 O196 1.268 . S
C181 O187 1.268 . S
C181 O195 1.268 . S
C182 O188 1.268 . S
C182 O197 1.268 . S
C183 O189 1.268 . S
C183 O193 1.268 . S
C184 O190 1.268 . S
C184 O192 1.268 . S
C185 O191 1.268 . S
C185 O194 1.268 . S
O186 Sc176 2.105 1_556 S
O186 C180 1.268 . S
O187 Sc177 2.105 . S
O187 C181 1.268 . S
O188 Sc178 2.105 . S
O188 C182 1.268 . S
O189 Sc176 2.105 . S
O189 C183 1.268 . S
O190 Sc178 2.105 . S
O190 C184 1.268 . S
O191 Sc177 2.105 . S
O191 C185 1.268 . S
O192 Sc176 2.105 . S
O192 C184 1.268 . S
O193 Sc177 2.105 . S
O193 C183 1.268 . S
O194 Sc178 2.105 . S
O194 C185 1.268 . S
O195 Sc176 2.105 . S
O195 C181 1.268 . S
O196 Sc178 2.105 1_556 S
O196 C180 1.268 . S
O197 Sc177 2.105 . S
O197 C182 1.268 . S
Sc198 O201 2.025 . S
Sc198 O208 2.105 . S
Sc198 O211 2.105 . S
Sc198 O214 2.105 1_556 S
Sc198 O217 2.105 . S
Sc199 O201 2.025 . S
Sc199 O209 2.105 . S
Sc199 O213 2.105 . S
Sc199 O215 2.105 . S
Sc199 O219 2.105 . S
Sc200 O201 2.025 . S
Sc200 O210 2.105 . S
Sc200 O212 2.105 1_556 S
Sc200 O216 2.105 . S
Sc200 O218 2.105 1_655 S
O201 Sc198 2.025 . S
O201 Sc199 2.025 . S
O201 Sc200 2.025 . S
C202 O208 1.268 1_455 S
C202 O218 1.268 . S
C203 O209 1.268 . S
C203 O217 1.268 . S
C204 O210 1.268 . S
C204 O219 1.268 . S
C205 O211 1.268 . S
C205 O215 1.268 . S
C206 O212 1.268 . S
C206 O214 1.268 . S
C207 O213 1.268 . S
C207 O216 1.268 . S
O208 Sc198 2.105 . S
O208 C202 1.268 1_655 S
O209 Sc199 2.105 . S
O209 C203 1.268 . S
O210 Sc200 2.105 . S
O210 C204 1.268 . S
O211 Sc198 2.105 . S
O211 C205 1.268 . S
O212 Sc200 2.105 1_554 S
O212 C206 1.268 . S
O213 Sc199 2.105 . S
O213 C207 1.268 . S
O214 Sc198 2.105 1_554 S
O214 C206 1.268 . S
O215 Sc199 2.105 . S
O215 C205 1.268 . S
O216 Sc200 2.105 . S
O216 C207 1.268 . S
O217 Sc198 2.105 . S
O217 C203 1.268 . S
O218 Sc200 2.105 1_455 S
O218 C202 1.268 . S
O219 Sc199 2.105 . S
O219 C204 1.268 . S
Sc220 O223 2.025 . S
Sc220 O230 2.105 . S
Sc220 O233 2.105 . S
Sc220 O236 2.105 . S
Sc220 O239 2.105 . S
Sc221 O223 2.025 . S
Sc221 O231 2.105 . S
Sc221 O235 2.105 . S
Sc221 O237 2.105 . S
Sc221 O241 2.105 . S
Sc222 O223 2.025 . S
Sc222 O232 2.105 . S
Sc222 O234 2.105 . S
Sc222 O238 2.105 . S
Sc222 O240 2.105 . S
O223 Sc220 2.025 . S
O223 Sc221 2.025 . S
O223 Sc222 2.025 . S
C224 O230 1.268 . S
C224 O240 1.268 . S
C225 O231 1.268 . S
C225 O239 1.268 . S
C226 O232 1.268 . S
C226 O241 1.268 . S
C227 O233 1.268 . S
C227 O237 1.268 . S
C228 O234 1.268 . S
C228 O236 1.268 . S
C229 O235 1.268 . S
C229 O238 1.268 . S
O230 Sc220 2.105 . S
O230 C224 1.268 . S
O231 Sc221 2.105 . S
O231 C225 1.268 . S
O232 Sc222 2.105 . S
O232 C226 1.268 . S
O233 Sc220 2.105 . S
O233 C227 1.268 . S
O234 Sc222 2.105 . S
O234 C228 1.268 . S
O235 Sc221 2.105 . S
O235 C229 1.268 . S
O236 Sc220 2.105 . S
O236 C228 1.268 . S
O237 Sc221 2.105 . S
O237 C227 1.268 . S
O238 Sc222 2.105 . S
O238 C229 1.268 . S
O239 Sc220 2.105 . S
O239 C225 1.268 . S
O240 Sc222 2.105 . S
O240 C224 1.268 . S
O241 Sc221 2.105 . S
O241 C226 1.268 . S
Sc242 O245 2.025 . S
Sc242 O252 2.105 . S
Sc242 O255 2.105 . S
Sc242 O258 2.105 1_455 S
Sc242 O261 2.105 . S
Sc243 O245 2.025 . S
Sc243 O253 2.105 . S
Sc243 O257 2.105 . S
Sc243 O259 2.105 . S
Sc243 O263 2.105 . S
Sc244 O245 2.025 . S
Sc244 O254 2.105 . S
Sc244 O256 2.105 . S
Sc244 O260 2.105 . S
Sc244 O262 2.105 . S
O245 Sc242 2.025 . S
O245 Sc243 2.025 . S
O245 Sc244 2.025 . S
C246 O252 1.268 . S
C246 O262 1.268 . S
C247 O253 1.268 . S
C247 O261 1.268 . S
C248 O254 1.268 . S
C248 O263 1.268 . S
C249 O255 1.268 . S
C249 O259 1.268 . S
C250 O256 1.268 1_655 S
C250 O258 1.268 . S
C251 O257 1.268 . S
C251 O260 1.268 . S
O252 Sc242 2.105 . S
O252 C246 1.268 . S
O253 Sc243 2.105 . S
O253 C247 1.268 . S
O254 Sc244 2.105 . S
O254 C248 1.268 . S
O255 Sc242 2.105 . S
O255 C249 1.268 . S
O256 Sc244 2.105 . S
O256 C250 1.268 1_455 S
O257 Sc243 2.105 . S
O257 C251 1.268 . S
O258 Sc242 2.105 1_655 S
O258 C250 1.268 . S
O259 Sc243 2.105 . S
O259 C249 1.268 . S
O260 Sc244 2.105 . S
O260 C251 1.268 . S
O261 Sc242 2.105 . S
O261 C247 1.268 . S
O262 Sc244 2.105 . S
O262 C246 1.268 . S
O263 Sc243 2.105 . S
O263 C248 1.268 . S
Sc264 O267 2.025 . S
Sc264 O274 2.105 1_655 S
Sc264 O277 2.105 . S
Sc264 O280 2.105 . S
Sc264 O283 2.105 . S
Sc265 O267 2.025 . S
Sc265 O275 2.105 . S
Sc265 O279 2.105 . S
Sc265 O281 2.105 . S
Sc265 O285 2.105 . S
Sc266 O267 2.025 . S
Sc266 O276 2.105 . S
Sc266 O278 2.105 . S
Sc266 O282 2.105 . S
Sc266 O284 2.105 1_655 S
O267 Sc264 2.025 . S
O267 Sc265 2.025 . S
O267 Sc266 2.025 . S
C268 O274 1.268 . S
C268 O284 1.268 . S
C269 O275 1.268 . S
C269 O283 1.268 . S
C270 O276 1.268 . S
C270 O285 1.268 . S
C271 O277 1.268 . S
C271 O281 1.268 . S
C272 O278 1.268 . S
C272 O280 1.268 . S
C273 O279 1.268 . S
C273 O282 1.268 . S
O274 Sc264 2.105 1_455 S
O274 C268 1.268 . S
O275 Sc265 2.105 . S
O275 C269 1.268 . S
O276 Sc266 2.105 . S
O276 C270 1.268 . S
O277 Sc264 2.105 . S
O277 C271 1.268 . S
O278 Sc266 2.105 . S
O278 C272 1.268 . S
O279 Sc265 2.105 . S
O279 C273 1.268 . S
O280 Sc264 2.105 . S
O280 C272 1.268 . S
O281 Sc265 2.105 . S
O281 C271 1.268 . S
O282 Sc266 2.105 . S
O282 C273 1.268 . S
O283 Sc264 2.105 . S
O283 C269 1.268 . S
O284 Sc266 2.105 1_455 S
O284 C268 1.268 . S
O285 Sc265 2.105 . S
O285 C270 1.268 . S
Sc286 O289 2.025 . S
Sc286 O296 2.105 . S
Sc286 O299 2.105 . S
Sc286 O302 2.105 . S
Sc286 O305 2.105 . S
Sc287 O289 2.025 . S
Sc287 O297 2.105 . S
Sc287 O301 2.105 . S
Sc287 O303 2.105 . S
Sc287 O307 2.105 . S
Sc288 O289 2.025 . S
Sc288 O298 2.105 . S
Sc288 O300 2.105 . S
Sc288 O304 2.105 . S
Sc288 O306 2.105 . S
O289 Sc286 2.025 . S
O289 Sc287 2.025 . S
O289 Sc288 2.025 . S
C290 O296 1.268 . S
C290 O306 1.268 . S
C291 O297 1.268 . S
C291 O305 1.268 . S
C292 O298 1.268 . S
C292 O307 1.268 . S
C293 O299 1.268 . S
C293 O303 1.268 . S
C294 O300 1.268 . S
C294 O302 1.268 . S
C295 O301 1.268 . S
C295 O304 1.268 . S
O296 Sc286 2.105 . S
O296 C290 1.268 . S
O297 Sc287 2.105 . S
O297 C291 1.268 . S
O298 Sc288 2.105 . S
O298 C292 1.268 . S
O299 Sc286 2.105 . S
O299 C293 1.268 . S
O300 Sc288 2.105 . S
O300 C294 1.268 . S
O301 Sc287 2.105 . S
O301 C295 1.268 . S
O302 Sc286 2.105 . S
O302 C294 1.268 . S
O303 Sc287 2.105 . S
O303 C293 1.268 . S
O304 Sc288 2.105 . S
O304 C295 1.268 . S
O305 Sc286 2.105 . S
O305 C291 1.268 . S
O306 Sc288 2.105 . S
O306 C290 1.268 . S
O307 Sc287 2.105 . S
O307 C292 1.268 . S
Sc308 O311 2.025 . S
Sc308 O318 2.105 1_565 S
Sc308 O321 2.105 . S
Sc308 O324 2.105 . S
Sc308 O327 2.105 . S
Sc309 O311 2.025 . S
Sc309 O319 2.105 . S
Sc309 O323 2.105 . S
Sc309 O325 2.105 . S
Sc309 O329 2.105 . S
Sc310 O311 2.025 . S
Sc310 O320 2.105 . S
Sc310 O322 2.105 . S
Sc310 O326 2.105 . S
Sc310 O328 2.105 . S
O311 Sc308 2.025 . S
O311 Sc309 2.025 . S
O311 Sc310 2.025 . S
C312 O318 1.268 . S
C312 O328 1.268 1_545 S
C313 O319 1.268 . S
C313 O327 1.268 . S
C314 O320 1.268 . S
C314 O329 1.268 . S
C315 O321 1.268 . S
C315 O325 1.268 . S
C316 O322 1.268 . S
C316 O324 1.268 . S
C317 O323 1.268 . S
C317 O326 1.268 . S
O318 Sc308 2.105 1_545 S
O318 C312 1.268 . S
O319 Sc309 2.105 . S
O319 C313 1.268 . S
O320 Sc310 2.105 . S
O320 C314 1.268 . S
O321 Sc308 2.105 . S
O321 C315 1.268 . S
O322 Sc310 2.105 . S
O322 C316 1.268 . S
O323 Sc309 2.105 . S
O323 C317 1.268 . S
O324 Sc308 2.105 . S
O324 C316 1.268 . S
O325 Sc309 2.105 . S
O325 C315 1.268 . S
O326 Sc310 2.105 . S
O326 C317 1.268 . S
O327 Sc308 2.105 . S
O327 C313 1.268 . S
O328 Sc310 2.105 . S
O328 C312 1.268 1_565 S
O329 Sc309 2.105 . S
O329 C314 1.268 . S
Sc330 O333 2.025 . S
Sc330 O340 2.105 1_455 S
Sc330 O343 2.105 . S
Sc330 O346 2.105 . S
Sc330 O349 2.105 . S
Sc331 O333 2.025 . S
Sc331 O341 2.105 . S
Sc331 O345 2.105 . S
Sc331 O347 2.105 . S
Sc331 O351 2.105 . S
Sc332 O333 2.025 . S
Sc332 O342 2.105 . S
Sc332 O344 2.105 1_545 S
Sc332 O348 2.105 . S
Sc332 O350 2.105 1_455 S
O333 Sc330 2.025 . S
O333 Sc331 2.025 . S
O333 Sc332 2.025 . S
C334 O340 1.268 . S
C334 O350 1.268 . S
C335 O341 1.268 . S
C335 O349 1.268 . S
C336 O342 1.268 . S
C336 O351 1.268 . S
C337 O343 1.268 . S
C337 O347 1.268 . S
C338 O344 1.268 . S
C338 O346 1.268 1_565 S
C339 O345 1.268 . S
C339 O348 1.268 . S
O340 Sc330 2.105 1_655 S
O340 C334 1.268 . S
O341 Sc331 2.105 . S
O341 C335 1.268 . S
O342 Sc332 2.105 . S
O342 C336 1.268 . S
O343 Sc330 2.105 . S
O343 C337 1.268 . S
O344 Sc332 2.105 1_565 S
O344 C338 1.268 . S
O345 Sc331 2.105 . S
O345 C339 1.268 . S
O346 Sc330 2.105 . S
O346 C338 1.268 1_545 S
O347 Sc331 2.105 . S
O347 C337 1.268 . S
O348 Sc332 2.105 . S
O348 C339 1.268 . S
O349 Sc330 2.105 . S
O349 C335 1.268 . S
O350 Sc332 2.105 1_655 S
O350 C334 1.268 . S
O351 Sc331 2.105 . S
O351 C336 1.268 . S
Sc352 O355 2.025 . S
Sc352 O362 2.105 . S
Sc352 O365 2.105 . S
Sc352 O368 2.105 1_565 S
Sc352 O371 2.105 . S
Sc353 O355 2.025 . S
Sc353 O363 2.105 . S
Sc353 O367 2.105 . S
Sc353 O369 2.105 . S
Sc353 O373 2.105 . S
Sc354 O355 2.025 . S
Sc354 O364 2.105 . S
Sc354 O366 2.105 1_565 S
Sc354 O370 2.105 . S
Sc354 O372 2.105 . S
O355 Sc352 2.025 . S
O355 Sc353 2.025 . S
O355 Sc354 2.025 . S
C356 O362 1.268 . S
C356 O372 1.268 . S
C357 O363 1.268 . S
C357 O371 1.268 . S
C358 O364 1.268 . S
C358 O373 1.268 . S
C359 O365 1.268 . S
C359 O369 1.268 . S
C360 O366 1.268 . S
C360 O368 1.268 . S
C361 O367 1.268 . S
C361 O370 1.268 . S
O362 Sc352 2.105 . S
O362 C356 1.268 . S
O363 Sc353 2.105 . S
O363 C357 1.268 . S
O364 Sc354 2.105 . S
O364 C358 1.268 . S
O365 Sc352 2.105 . S
O365 C359 1.268 . S
O366 Sc354 2.105 1_545 S
O366 C360 1.268 . S
O367 Sc353 2.105 . S
O367 C361 1.268 . S
O368 Sc352 2.105 1_545 S
O368 C360 1.268 . S
O369 Sc353 2.105 . S
O369 C359 1.268 . S
O370 Sc354 2.105 . S
O370 C361 1.268 . S
O371 Sc352 2.105 . S
O371 C357 1.268 . S
O372 Sc354 2.105 . S
O372 C356 1.268 . S
O373 Sc353 2.105 . S
O373 C358 1.268 . S
Sc374 O377 2.025 . S
Sc374 O384 2.105 1_545 S
Sc374 O387 2.105 . S
Sc374 O390 2.105 . S
Sc374 O393 2.105 . S
Sc375 O377 2.025 . S
Sc375 O385 2.105 . S
Sc375 O389 2.105 . S
Sc375 O391 2.105 . S
Sc375 O395 2.105 . S
Sc376 O377 2.025 . S
Sc376 O386 2.105 . S
Sc376 O388 2.105 1_554 S
Sc376 O392 2.105 . S
Sc376 O394 2.105 1_545 S
O377 Sc374 2.025 . S
O377 Sc375 2.025 . S
O377 Sc376 2.025 . S
C378 O384 1.268 . S
C378 O394 1.268 . S
C379 O385 1.268 . S
C379 O393 1.268 . S
C380 O386 1.268 . S
C380 O395 1.268 . S
C381 O387 1.268 . S
C381 O391 1.268 . S
C382 O388 1.268 . S
C382 O390 1.268 1_556 S
C383 O389 1.268 . S
C383 O392 1.268 . S
O384 Sc374 2.105 1_565 S
O384 C378 1.268 . S
O385 Sc375 2.105 . S
O385 C379 1.268 . S
O386 Sc376 2.105 . S
O386 C380 1.268 . S
O387 Sc374 2.105 . S
O387 C381 1.268 . S
O388 Sc376 2.105 1_556 S
O388 C382 1.268 . S
O389 Sc375 2.105 . S
O389 C383 1.268 . S
O390 Sc374 2.105 . S
O390 C382 1.268 1_554 S
O391 Sc375 2.105 . S
O391 C381 1.268 . S
O392 Sc376 2.105 . S
O392 C383 1.268 . S
O393 Sc374 2.105 . S
O393 C379 1.268 . S
O394 Sc376 2.105 1_565 S
O394 C378 1.268 . S
O395 Sc375 2.105 . S
O395 C380 1.268 . S
Sc396 O399 2.025 . S
Sc396 O406 2.105 . S
Sc396 O409 2.105 . S
Sc396 O412 2.105 . S
Sc396 O415 2.105 . S
Sc397 O399 2.025 . S
Sc397 O407 2.105 . S
Sc397 O411 2.105 . S
Sc397 O413 2.105 . S
Sc397 O417 2.105 . S
Sc398 O399 2.025 . S
Sc398 O408 2.105 . S
Sc398 O410 2.105 . S
Sc398 O414 2.105 . S
Sc398 O416 2.105 . S
O399 Sc396 2.025 . S
O399 Sc397 2.025 . S
O399 Sc398 2.025 . S
C400 O406 1.268 . S
C400 O416 1.268 . S
C401 O407 1.268 . S
C401 O415 1.268 . S
C402 O408 1.268 . S
C402 O417 1.268 . S
C403 O409 1.268 . S
C403 O413 1.268 . S
C404 O410 1.268 . S
C404 O412 1.268 . S
C405 O411 1.268 . S
C405 O414 1.268 . S
O406 Sc396 2.105 . S
O406 C400 1.268 . S
O407 Sc397 2.105 . S
O407 C401 1.268 . S
O408 Sc398 2.105 . S
O408 C402 1.268 . S
O409 Sc396 2.105 . S
O409 C403 1.268 . S
O410 Sc398 2.105 . S
O410 C404 1.268 . S
O411 Sc397 2.105 . S
O411 C405 1.268 . S
O412 Sc396 2.105 . S
O412 C404 1.268 . S
O413 Sc397 2.105 . S
O413 C403 1.268 . S
O414 Sc398 2.105 . S
O414 C405 1.268 . S
O415 Sc396 2.105 . S
O415 C401 1.268 . S
O416 Sc398 2.105 . S
O416 C400 1.268 . S
O417 Sc397 2.105 . S
O417 C402 1.268 . S
Sc418 O421 2.025 . S
Sc418 O428 2.105 . S
Sc418 O431 2.105 . S
Sc418 O434 2.105 . S
Sc418 O437 2.105 . S
Sc419 O421 2.025 . S
Sc419 O429 2.105 . S
Sc419 O433 2.105 . S
Sc419 O435 2.105 . S
Sc419 O439 2.105 . S
Sc420 O421 2.025 . S
Sc420 O430 2.105 . S
Sc420 O432 2.105 1_556 S
Sc420 O436 2.105 . S
Sc420 O438 2.105 . S
O421 Sc418 2.025 . S
O421 Sc419 2.025 . S
O421 Sc420 2.025 . S
C422 O428 1.268 . S
C422 O438 1.268 . S
C423 O429 1.268 . S
C423 O437 1.268 . S
C424 O430 1.268 . S
C424 O439 1.268 . S
C425 O431 1.268 . S
C425 O435 1.268 . S
C426 O432 1.268 . S
C426 O434 1.268 1_554 S
C427 O433 1.268 . S
C427 O436 1.268 . S
O428 Sc418 2.105 . S
O428 C422 1.268 . S
O429 Sc419 2.105 . S
O429 C423 1.268 . S
O430 Sc420 2.105 . S
O430 C424 1.268 . S
O431 Sc418 2.105 . S
O431 C425 1.268 . S
O432 Sc420 2.105 1_554 S
O432 C426 1.268 . S
O433 Sc419 2.105 . S
O433 C427 1.268 . S
O434 Sc418 2.105 . S
O434 C426 1.268 1_556 S
O435 Sc419 2.105 . S
O435 C425 1.268 . S
O436 Sc420 2.105 . S
O436 C427 1.268 . S
O437 Sc418 2.105 . S
O437 C423 1.268 . S
O438 Sc420 2.105 . S
O438 C422 1.268 . S
O439 Sc419 2.105 . S
O439 C424 1.268 . S
Sc440 O443 2.025 . S
Sc440 O450 2.105 . S
Sc440 O453 2.105 . S
Sc440 O456 2.105 1_556 S
Sc440 O459 2.105 . S
Sc441 O443 2.025 . S
Sc441 O451 2.105 . S
Sc441 O455 2.105 . S
Sc441 O457 2.105 . S
Sc441 O461 2.105 . S
Sc442 O443 2.025 . S
Sc442 O452 2.105 . S
Sc442 O454 2.105 1_556 S
Sc442 O458 2.105 . S
Sc442 O460 2.105 . S
O443 Sc440 2.025 . S
O443 Sc441 2.025 . S
O443 Sc442 2.025 . S
C444 O450 1.268 . S
C444 O460 1.268 . S
C445 O451 1.268 . S
C445 O459 1.268 . S
C446 O452 1.268 . S
C446 O461 1.268 . S
C447 O453 1.268 . S
C447 O457 1.268 . S
C448 O454 1.268 . S
C448 O456 1.268 . S
C449 O455 1.268 . S
C449 O458 1.268 . S
O450 Sc440 2.105 . S
O450 C444 1.268 . S
O451 Sc441 2.105 . S
O451 C445 1.268 . S
O452 Sc442 2.105 . S
O452 C446 1.268 . S
O453 Sc440 2.105 . S
O453 C447 1.268 . S
O454 Sc442 2.105 1_554 S
O454 C448 1.268 . S
O455 Sc441 2.105 . S
O455 C449 1.268 . S
O456 Sc440 2.105 1_554 S
O456 C448 1.268 . S
O457 Sc441 2.105 . S
O457 C447 1.268 . S
O458 Sc442 2.105 . S
O458 C449 1.268 . S
O459 Sc440 2.105 . S
O459 C445 1.268 . S
O460 Sc442 2.105 . S
O460 C444 1.268 . S
O461 Sc441 2.105 . S
O461 C446 1.268 . S
Sc462 O465 2.025 . S
Sc462 O472 2.105 1_554 S
Sc462 O475 2.105 . S
Sc462 O478 2.105 . S
Sc462 O481 2.105 . S
Sc463 O465 2.025 . S
Sc463 O473 2.105 . S
Sc463 O477 2.105 . S
Sc463 O479 2.105 . S
Sc463 O483 2.105 . S
Sc464 O465 2.025 . S
Sc464 O474 2.105 . S
Sc464 O476 2.105 1_455 S
Sc464 O480 2.105 . S
Sc464 O482 2.105 1_554 S
O465 Sc462 2.025 . S
O465 Sc463 2.025 . S
O465 Sc464 2.025 . S
C466 O472 1.268 . S
C466 O482 1.268 . S
C467 O473 1.268 . S
C467 O481 1.268 . S
C468 O474 1.268 . S
C468 O483 1.268 . S
C469 O475 1.268 . S
C469 O479 1.268 . S
C470 O476 1.268 . S
C470 O478 1.268 1_655 S
C471 O477 1.268 . S
C471 O480 1.268 . S
O472 Sc462 2.105 1_556 S
O472 C466 1.268 . S
O473 Sc463 2.105 . S
O473 C467 1.268 . S
O474 Sc464 2.105 . S
O474 C468 1.268 . S
O475 Sc462 2.105 . S
O475 C469 1.268 . S
O476 Sc464 2.105 1_655 S
O476 C470 1.268 . S
O477 Sc463 2.105 . S
O477 C471 1.268 . S
O478 Sc462 2.105 . S
O478 C470 1.268 1_455 S
O479 Sc463 2.105 . S
O479 C469 1.268 . S
O480 Sc464 2.105 . S
O480 C471 1.268 . S
O481 Sc462 2.105 . S
O481 C467 1.268 . S
O482 Sc464 2.105 1_556 S
O482 C466 1.268 . S
O483 Sc463 2.105 . S
O483 C468 1.268 . S
Sc484 O487 2.025 . S
Sc484 O494 2.105 . S
Sc484 O497 2.105 . S
Sc484 O500 2.105 . S
Sc484 O503 2.105 . S
Sc485 O487 2.025 . S
Sc485 O495 2.105 . S
Sc485 O499 2.105 . S
Sc485 O501 2.105 . S
Sc485 O505 2.105 . S
Sc486 O487 2.025 . S
Sc486 O496 2.105 . S
Sc486 O498 2.105 . S
Sc486 O502 2.105 . S
Sc486 O504 2.105 . S
O487 Sc484 2.025 . S
O487 Sc485 2.025 . S
O487 Sc486 2.025 . S
C488 O494 1.268 . S
C488 O504 1.268 . S
C489 O495 1.268 . S
C489 O503 1.268 . S
C490 O496 1.268 . S
C490 O505 1.268 . S
C491 O497 1.268 . S
C491 O501 1.268 . S
C492 O498 1.268 . S
C492 O500 1.268 . S
C493 O499 1.268 . S
C493 O502 1.268 . S
O494 Sc484 2.105 . S
O494 C488 1.268 . S
O495 Sc485 2.105 . S
O495 C489 1.268 . S
O496 Sc486 2.105 . S
O496 C490 1.268 . S
O497 Sc484 2.105 . S
O497 C491 1.268 . S
O498 Sc486 2.105 . S
O498 C492 1.268 . S
O499 Sc485 2.105 . S
O499 C493 1.268 . S
O500 Sc484 2.105 . S
O500 C492 1.268 . S
O501 Sc485 2.105 . S
O501 C491 1.268 . S
O502 Sc486 2.105 . S
O502 C493 1.268 . S
O503 Sc484 2.105 . S
O503 C489 1.268 . S
O504 Sc486 2.105 . S
O504 C488 1.268 . S
O505 Sc485 2.105 . S
O505 C490 1.268 . S
Sc506 O509 2.025 . S
Sc506 O516 2.105 1_655 S
Sc506 O519 2.105 . S
Sc506 O522 2.105 . S
Sc506 O525 2.105 . S
Sc507 O509 2.025 . S
Sc507 O517 2.105 . S
Sc507 O521 2.105 . S
Sc507 O523 2.105 . S
Sc507 O527 2.105 . S
Sc508 O509 2.025 . S
Sc508 O518 2.105 . S
Sc508 O520 2.105 . S
Sc508 O524 2.105 . S
Sc508 O526 2.105 . S
O509 Sc506 2.025 . S
O509 Sc507 2.025 . S
O509 Sc508 2.025 . S
C510 O516 1.268 . S
C510 O526 1.268 1_455 S
C511 O517 1.268 . S
C511 O525 1.268 . S
C512 O518 1.268 . S
C512 O527 1.268 . S
C513 O519 1.268 . S
C513 O523 1.268 . S
C514 O520 1.268 . S
C514 O522 1.268 . S
C515 O521 1.268 . S
C515 O524 1.268 . S
O516 Sc506 2.105 1_455 S
O516 C510 1.268 . S
O517 Sc507 2.105 . S
O517 C511 1.268 . S
O518 Sc508 2.105 . S
O518 C512 1.268 . S
O519 Sc506 2.105 . S
O519 C513 1.268 . S
O520 Sc508 2.105 . S
O520 C514 1.268 . S
O521 Sc507 2.105 . S
O521 C515 1.268 . S
O522 Sc506 2.105 . S
O522 C514 1.268 . S
O523 Sc507 2.105 . S
O523 C513 1.268 . S
O524 Sc508 2.105 . S
O524 C515 1.268 . S
O525 Sc506 2.105 . S
O525 C511 1.268 . S
O526 Sc508 2.105 . S
O526 C510 1.268 1_655 S
O527 Sc507 2.105 . S
O527 C512 1.268 . S
C528 C529 1.387 . S
C528 H532 0.950 . S
C528 C537 1.390 . S
C529 C528 1.387 . S
C529 C531 1.387 . S
H530 C537 0.950 . S
C531 C529 1.387 . S
C531 C533 1.390 . S
C531 H535 0.950 . S
H532 C528 0.950 . S
C533 C531 1.390 . S
C533 C534 1.387 . S
C533 H536 0.950 . S
C534 C533 1.387 . S
C534 C537 1.387 . S
H535 C531 0.950 . S
H536 C533 0.950 . S
C537 C528 1.390 . S
C537 H530 0.950 . S
C537 C534 1.387 . S
C538 C539 1.387 . S
C538 H542 0.950 . S
C538 C547 1.390 . S
C539 C538 1.387 . S
C539 C541 1.387 . S
H540 C547 0.950 . S
C541 C539 1.387 . S
C541 C543 1.390 . S
C541 H545 0.950 . S
H542 C538 0.950 . S
C543 C541 1.390 . S
C543 C544 1.387 . S
C543 H546 0.950 . S
C544 C543 1.387 . S
C544 C547 1.387 . S
H545 C541 0.950 . S
H546 C543 0.950 . S
C547 C538 1.390 . S
C547 H540 0.950 . S
C547 C544 1.387 . S
C548 C549 1.387 . S
C548 H552 0.950 . S
C548 C557 1.390 . S
C549 C548 1.387 . S
C549 C551 1.387 . S
H550 C557 0.950 . S
C551 C549 1.387 . S
C551 C553 1.390 1_545 S
C551 H555 0.950 . S
H552 C548 0.950 . S
C553 C551 1.390 1_565 S
C553 C554 1.387 1_565 S
C553 H556 0.950 . S
C554 C553 1.387 1_545 S
C554 C557 1.387 . S
H555 C551 0.950 . S
H556 C553 0.950 . S
C557 C548 1.390 . S
C557 H550 0.950 . S
C557 C554 1.387 . S
C558 C559 1.387 . S
C558 H562 0.950 . S
C558 C567 1.390 . S
C559 C558 1.387 . S
C559 C561 1.387 . S
H560 C567 0.950 . S
C561 C559 1.387 . S
C561 C563 1.390 1_565 S
C561 H565 0.946 1_565 S
H562 C558 0.950 . S
C563 C561 1.390 1_545 S
C563 C564 1.387 1_545 S
C563 H566 0.950 . S
C564 C563 1.387 1_565 S
C564 C567 1.387 . S
H565 C561 0.946 1_545 S
H566 C563 0.950 . S
C567 C558 1.390 . S
C567 H560 0.950 . S
C567 C564 1.387 . S
C568 C569 1.387 . S
C568 H572 0.950 . S
C568 C577 1.390 . S
C569 C568 1.387 . S
C569 C571 1.387 . S
H570 C577 0.950 . S
C571 C569 1.387 . S
C571 C573 1.390 . S
C571 H575 0.950 . S
H572 C568 0.950 . S
C573 C571 1.390 . S
C573 C574 1.387 . S
C573 H576 0.950 . S
C574 C573 1.387 . S
C574 C577 1.387 . S
H575 C571 0.950 . S
H576 C573 0.950 . S
C577 C568 1.390 . S
C577 H570 0.950 . S
C577 C574 1.387 . S
C578 C579 1.387 . S
C578 H582 0.950 . S
C578 C587 1.390 . S
C579 C578 1.387 . S
C579 C581 1.387 . S
H580 C587 0.950 . S
C581 C579 1.387 . S
C581 C583 1.390 1_556 S
C581 H585 0.947 1_556 S
H582 C578 0.950 . S
C583 C581 1.390 1_554 S
C583 C584 1.387 1_554 S
C583 H586 0.950 . S
C584 C583 1.387 1_556 S
C584 C587 1.387 . S
H585 C581 0.947 1_554 S
H586 C583 0.950 . S
C587 C578 1.390 . S
C587 H580 0.950 . S
C587 C584 1.387 . S
C588 C589 1.387 . S
C588 H592 0.950 . S
C588 C597 1.390 . S
C589 C588 1.387 . S
C589 C591 1.387 . S
H590 C597 0.950 . S
C591 C589 1.387 . S
C591 C593 1.390 . S
C591 H595 0.950 . S
H592 C588 0.950 . S
C593 C591 1.390 . S
C593 C594 1.387 . S
C593 H596 0.950 . S
C594 C593 1.387 . S
C594 C597 1.387 . S
H595 C591 0.950 . S
H596 C593 0.950 . S
C597 C588 1.390 . S
C597 H590 0.950 . S
C597 C594 1.387 . S
C598 C599 1.387 . S
C598 H602 0.950 . S
C598 C607 1.390 . S
C599 C598 1.387 . S
C599 C601 1.387 . S
H600 C607 0.950 . S
C601 C599 1.387 . S
C601 C603 1.390 1_554 S
C601 H605 0.950 . S
H602 C598 0.950 . S
C603 C601 1.390 1_556 S
C603 C604 1.387 1_556 S
C603 H606 0.950 . S
C604 C603 1.387 1_554 S
C604 C607 1.387 . S
H605 C601 0.950 . S
H606 C603 0.950 . S
C607 C598 1.390 . S
C607 H600 0.950 . S
C607 C604 1.387 . S
C608 C609 1.387 . S
C608 H612 0.950 . S
C608 C617 1.390 . S
C609 C608 1.387 . S
C609 C611 1.387 . S
H610 C617 0.950 . S
C611 C609 1.387 . S
C611 C613 1.390 . S
C611 H615 0.950 . S
H612 C608 0.950 . S
C613 C611 1.390 . S
C613 C614 1.387 . S
C613 H616 0.950 . S
C614 C613 1.387 . S
C614 C617 1.387 . S
H615 C611 0.950 . S
H616 C613 0.950 . S
C617 C608 1.390 . S
C617 H610 0.950 . S
C617 C614 1.387 . S
C618 C619 1.387 . S
C618 H622 0.950 . S
C618 C627 1.390 . S
C619 C618 1.387 . S
C619 C621 1.387 . S
H620 C627 0.950 . S
C621 C619 1.387 . S
C621 C623 1.376 1_655 S
C621 H625 0.950 . S
H622 C618 0.950 . S
C623 C621 1.376 1_455 S
C623 C624 1.386 1_455 S
C623 H626 0.967 . S
C624 C623 1.386 1_655 S
C624 C627 1.387 . S
H625 C621 0.950 . S
H626 C623 0.967 . S
C627 C618 1.390 . S
C627 H620 0.950 . S
C627 C624 1.387 . S
C628 C629 1.387 . S
C628 H632 0.950 . S
C628 C637 1.390 . S
C629 C628 1.387 . S
C629 C631 1.387 . S
H630 C637 0.950 . S
C631 C629 1.387 . S
C631 C633 1.390 . S
C631 H635 0.950 . S
H632 C628 0.950 . S
C633 C631 1.390 . S
C633 C634 1.387 . S
C633 H636 0.950 . S
C634 C633 1.387 . S
C634 C637 1.387 . S
H635 C631 0.950 . S
H636 C633 0.950 . S
C637 C628 1.390 . S
C637 H630 0.950 . S
C637 C634 1.387 . S
C638 C639 1.387 . S
C638 H642 0.950 . S
C638 C647 1.390 . S
C639 C638 1.387 . S
C639 C641 1.387 . S
H640 C647 0.950 1_655 S
C641 C639 1.387 . S
C641 C643 1.390 . S
C641 H645 0.950 . S
H642 C638 0.950 . S
C643 C641 1.390 . S
C643 C644 1.387 . S
C643 H646 0.950 . S
C644 C643 1.387 . S
C644 C647 1.387 . S
H645 C641 0.950 . S
H646 C643 0.950 . S
C647 C638 1.390 . S
C647 H640 0.950 1_455 S
C647 C644 1.387 . S
C648 C649 1.387 . S
C648 H652 0.950 . S
C648 C657 1.390 . S
C649 C648 1.387 . S
C649 C651 1.387 . S
H650 C657 0.950 . S
C651 C649 1.387 . S
C651 C653 1.390 . S
C651 H655 0.950 . S
H652 C648 0.950 . S
C653 C651 1.390 . S
C653 C654 1.387 . S
C653 H656 0.950 . S
C654 C653 1.387 . S
C654 C657 1.387 . S
H655 C651 0.950 . S
H656 C653 0.950 . S
C657 C648 1.390 . S
C657 H650 0.950 . S
C657 C654 1.387 . S
C658 C659 1.387 . S
C658 H662 0.950 . S
C658 C667 1.390 . S
C659 C658 1.387 . S
C659 C661 1.387 . S
H660 C667 0.950 . S
C661 C659 1.387 . S
C661 C663 1.390 . S
C661 H665 0.950 . S
H662 C658 0.950 . S
C663 C661 1.390 . S
C663 C664 1.387 . S
C663 H666 0.950 . S
C664 C663 1.387 . S
C664 C667 1.387 . S
H665 C661 0.950 . S
H666 C663 0.950 . S
C667 C658 1.390 . S
C667 H660 0.950 . S
C667 C664 1.387 . S
C668 C669 1.387 . S
C668 H672 0.950 . S
C668 C677 1.390 . S
C669 C668 1.387 . S
C669 C671 1.387 . S
H670 C677 0.950 . S
C671 C669 1.387 . S
C671 C673 1.390 1_565 S
C671 H675 0.955 . S
H672 C668 0.950 . S
C673 C671 1.390 1_545 S
C673 C674 1.387 1_545 S
C673 H676 0.950 . S
C674 C673 1.387 1_565 S
C674 C677 1.387 . S
H675 C671 0.955 . S
H676 C673 0.950 . S
C677 C668 1.390 . S
C677 H670 0.950 . S
C677 C674 1.387 . S
C678 C679 1.387 . S
C678 H682 0.950 . S
C678 C687 1.390 . S
C679 C678 1.387 . S
C679 C681 1.387 1_545 S
H680 C687 0.950 . S
C681 C679 1.387 1_565 S
C681 C683 1.390 1_565 S
C681 H685 0.950 . S
H682 C678 0.950 . S
C683 C681 1.390 1_545 S
C683 C684 1.387 . S
C683 H686 0.943 1_545 S
C684 C683 1.387 . S
C684 C687 1.387 . S
H685 C681 0.950 . S
H686 C683 0.943 1_565 S
C687 C678 1.390 . S
C687 H680 0.950 . S
C687 C684 1.387 . S
C688 C689 1.387 . S
C688 H692 0.950 . S
C688 C697 1.390 . S
C689 C688 1.387 . S
C689 C691 1.387 . S
H690 C697 0.950 . S
C691 C689 1.387 . S
C691 C693 1.390 . S
C691 H695 0.950 . S
H692 C688 0.950 . S
C693 C691 1.390 . S
C693 C694 1.387 . S
C693 H696 0.950 . S
C694 C693 1.387 . S
C694 C697 1.387 . S
H695 C691 0.950 . S
H696 C693 0.950 . S
C697 C688 1.390 . S
C697 H690 0.950 . S
C697 C694 1.387 . S
C698 C699 1.387 . S
C698 H702 0.950 . S
C698 C707 1.390 . S
C699 C698 1.387 . S
C699 C701 1.387 1_554 S
H700 C707 0.950 . S
C701 C699 1.387 1_556 S
C701 C703 1.390 1_556 S
C701 H705 0.950 . S
H702 C698 0.950 . S
C703 C701 1.390 1_554 S
C703 C704 1.387 . S
C703 H706 0.950 . S
C704 C703 1.387 . S
C704 C707 1.387 . S
H705 C701 0.950 . S
H706 C703 0.950 . S
C707 C698 1.390 . S
C707 H700 0.950 . S
C707 C704 1.387 . S
C708 C709 1.387 . S
C708 H712 0.950 . S
C708 C717 1.390 . S
C709 C708 1.387 . S
C709 C711 1.387 . S
H710 C717 0.950 . S
C711 C709 1.387 . S
C711 C713 1.390 . S
C711 H715 0.950 . S
H712 C708 0.950 . S
C713 C711 1.390 . S
C713 C714 1.387 . S
C713 H716 0.950 . S
C714 C713 1.387 . S
C714 C717 1.387 . S
H715 C711 0.950 . S
H716 C713 0.950 . S
C717 C708 1.390 . S
C717 H710 0.950 . S
C717 C714 1.387 . S
C718 C719 1.387 . S
C718 H722 0.950 . S
C718 C727 1.390 . S
C719 C718 1.387 . S
C719 C721 1.387 1_556 S
H720 C727 0.950 . S
C721 C719 1.387 1_554 S
C721 C723 1.390 1_554 S
C721 H725 0.950 . S
H722 C718 0.950 . S
C723 C721 1.390 1_556 S
C723 C724 1.387 . S
C723 H726 0.950 . S
C724 C723 1.387 . S
C724 C727 1.387 . S
H725 C721 0.950 . S
H726 C723 0.950 . S
C727 C718 1.390 . S
C727 H720 0.950 . S
C727 C724 1.387 . S
C728 C729 1.387 . S
C728 H732 0.950 . S
C728 C737 1.390 . S
C729 C728 1.387 . S
C729 C731 1.387 . S
H730 C737 0.950 . S
C731 C729 1.387 . S
C731 C733 1.390 . S
C731 H735 0.950 . S
H732 C728 0.950 . S
C733 C731 1.390 . S
C733 C734 1.387 . S
C733 H736 0.950 . S
C734 C733 1.387 . S
C734 C737 1.387 . S
H735 C731 0.950 . S
H736 C733 0.950 . S
C737 C728 1.390 . S
C737 H730 0.950 . S
C737 C734 1.387 . S
C738 C739 1.387 . S
C738 H742 0.950 . S
C738 C747 1.390 . S
C739 C738 1.387 . S
C739 C741 1.387 . S
H740 C747 0.950 . S
C741 C739 1.387 . S
C741 C743 1.390 . S
C741 H745 0.948 1_455 S
H742 C738 0.950 . S
C743 C741 1.390 . S
C743 C744 1.387 . S
C743 H746 0.950 . S
C744 C743 1.387 . S
C744 C747 1.387 . S
H745 C741 0.948 1_655 S
H746 C743 0.950 . S
C747 C738 1.390 . S
C747 H740 0.950 . S
C747 C744 1.387 . S
C748 C749 1.387 . S
C748 H752 0.950 . S
C748 C757 1.390 . S
C749 C748 1.387 . S
C749 C751 1.387 . S
H750 C757 0.950 . S
C751 C749 1.387 . S
C751 C753 1.390 . S
C751 H755 0.950 . S
H752 C748 0.950 . S
C753 C751 1.390 . S
C753 C754 1.387 . S
C753 H756 0.950 . S
C754 C753 1.387 . S
C754 C757 1.387 . S
H755 C751 0.950 . S
H756 C753 0.950 . S
C757 C748 1.390 . S
C757 H750 0.950 . S
C757 C754 1.387 . S
C758 C759 1.387 . S
C758 H762 0.950 . S
C758 C767 1.390 . S
C759 C758 1.387 . S
C759 C761 1.387 . S
H760 C767 0.950 . S
C761 C759 1.387 . S
C761 C763 1.390 . S
C761 H765 0.950 . S
H762 C758 0.950 . S
C763 C761 1.390 . S
C763 C764 1.387 . S
C763 H766 0.950 . S
C764 C763 1.387 . S
C764 C767 1.387 . S
H765 C761 0.950 . S
H766 C763 0.950 . S
C767 C758 1.390 . S
C767 H760 0.950 . S
C767 C764 1.387 . S
C768 C769 1.387 . S
C768 H772 0.950 . S
C768 C777 1.390 . S
C769 C768 1.387 . S
C769 C771 1.387 . S
H770 C777 0.950 . S
C771 C769 1.387 . S
C771 C773 1.390 . S
C771 H775 0.950 . S
H772 C768 0.950 . S
C773 C771 1.390 . S
C773 C774 1.387 . S
C773 H776 0.950 . S
C774 C773 1.387 . S
C774 C777 1.387 . S
H775 C771 0.950 . S
H776 C773 0.950 . S
C777 C768 1.390 . S
C777 H770 0.950 . S
C777 C774 1.387 . S
C778 C779 1.387 . S
C778 H782 0.950 . S
C778 C787 1.390 . S
C779 C778 1.387 . S
C779 C781 1.387 . S
H780 C787 0.950 . S
C781 C779 1.387 . S
C781 C783 1.390 . S
C781 H785 0.950 . S
H782 C778 0.950 . S
C783 C781 1.390 . S
C783 C784 1.387 . S
C783 H786 0.950 . S
C784 C783 1.387 . S
C784 C787 1.387 . S
H785 C781 0.950 . S
H786 C783 0.950 . S
C787 C778 1.390 . S
C787 H780 0.950 . S
C787 C784 1.387 . S
C788 C789 1.387 . S
C788 H792 0.950 . S
C788 C797 1.390 . S
C789 C788 1.387 . S
C789 C791 1.387 . S
H790 C797 0.950 . S
C791 C789 1.387 . S
C791 C793 1.390 . S
C791 H795 0.950 . S
H792 C788 0.950 . S
C793 C791 1.390 . S
C793 C794 1.387 . S
C793 H796 0.950 . S
C794 C793 1.387 . S
C794 C797 1.387 . S
H795 C791 0.950 . S
H796 C793 0.950 . S
C797 C788 1.390 . S
C797 H790 0.950 . S
C797 C794 1.387 . S
C798 C799 1.387 . S
C798 H802 0.950 . S
C798 C807 1.390 . S
C799 C798 1.387 . S
C799 C801 1.387 . S
H800 C807 0.950 . S
C801 C799 1.387 . S
C801 C803 1.390 . S
C801 H805 0.950 . S
H802 C798 0.950 . S
C803 C801 1.390 . S
C803 C804 1.387 . S
C803 H806 0.950 . S
C804 C803 1.387 . S
C804 C807 1.387 . S
H805 C801 0.950 . S
H806 C803 0.950 . S
C807 C798 1.390 . S
C807 H800 0.950 . S
C807 C804 1.387 . S
C808 C809 1.387 . S
C808 H812 0.950 . S
C808 C817 1.390 . S
C809 C808 1.387 . S
C809 C811 1.387 . S
H810 C817 0.950 . S
C811 C809 1.387 . S
C811 C813 1.390 . S
C811 H815 0.950 . S
H812 C808 0.950 . S
C813 C811 1.390 . S
C813 C814 1.387 . S
C813 H816 0.950 . S
C814 C813 1.387 . S
C814 C817 1.387 . S
H815 C811 0.950 . S
H816 C813 0.950 . S
C817 C808 1.390 . S
C817 H810 0.950 . S
C817 C814 1.387 . S
C818 C819 1.387 . S
C818 H822 0.950 . S
C818 C827 1.390 . S
C819 C818 1.387 . S
C819 C821 1.387 . S
H820 C827 0.950 . S
C821 C819 1.387 . S
C821 C823 1.390 . S
C821 H825 0.950 . S
H822 C818 0.950 . S
C823 C821 1.390 . S
C823 C824 1.387 . S
C823 H826 0.950 . S
C824 C823 1.387 . S
C824 C827 1.387 . S
H825 C821 0.950 . S
H826 C823 0.950 . S
C827 C818 1.390 . S
C827 H820 0.950 . S
C827 C824 1.387 . S
C828 C829 1.387 . S
C828 H832 0.950 . S
C828 C837 1.390 . S
C829 C828 1.387 . S
C829 C831 1.387 . S
H830 C837 0.950 . S
C831 C829 1.387 . S
C831 C833 1.390 . S
C831 H835 0.950 . S
H832 C828 0.950 . S
C833 C831 1.390 . S
C833 C834 1.387 . S
C833 H836 0.950 . S
C834 C833 1.387 . S
C834 C837 1.387 . S
H835 C831 0.950 . S
H836 C833 0.950 . S
C837 C828 1.390 . S
C837 H830 0.950 . S
C837 C834 1.387 . S
C838 C839 1.387 . S
C838 H842 0.950 . S
C838 C847 1.390 . S
C839 C838 1.387 . S
C839 C841 1.387 . S
H840 C847 0.950 . S
C841 C839 1.387 . S
C841 C843 1.390 . S
C841 H845 0.950 . S
H842 C838 0.950 . S
C843 C841 1.390 . S
C843 C844 1.387 . S
C843 H846 0.950 . S
C844 C843 1.387 . S
C844 C847 1.387 . S
H845 C841 0.950 . S
H846 C843 0.950 . S
C847 C838 1.390 . S
C847 H840 0.950 . S
C847 C844 1.387 . S
C848 C849 1.387 . S
C848 H852 0.950 . S
C848 C857 1.390 . S
C849 C848 1.387 . S
C849 C851 1.387 . S
H850 C857 0.950 . S
C851 C849 1.387 . S
C851 C853 1.390 . S
C851 H855 0.950 . S
H852 C848 0.950 . S
C853 C851 1.390 . S
C853 C854 1.387 . S
C853 H856 0.950 . S
C854 C853 1.387 . S
C854 C857 1.387 . S
H855 C851 0.950 . S
H856 C853 0.950 . S
C857 C848 1.390 . S
C857 H850 0.950 . S
C857 C854 1.387 . S
C858 C859 1.387 . S
C858 H862 0.950 . S
C858 C867 1.390 . S
C859 C858 1.387 . S
C859 C861 1.387 . S
H860 C867 0.950 . S
C861 C859 1.387 . S
C861 C863 1.390 . S
C861 H865 0.950 . S
H862 C858 0.950 . S
C863 C861 1.390 . S
C863 C864 1.387 . S
C863 H866 0.950 . S
C864 C863 1.387 . S
C864 C867 1.387 . S
H865 C861 0.950 . S
H866 C863 0.950 . S
C867 C858 1.390 . S
C867 H860 0.950 . S
C867 C864 1.387 . S
C868 C869 1.387 . S
C868 H872 0.950 . S
C868 C877 1.390 . S
C869 C868 1.387 . S
C869 C871 1.387 . S
H870 C877 0.950 . S
C871 C869 1.387 . S
C871 C873 1.390 . S
C871 H875 0.950 . S
H872 C868 0.950 . S
C873 C871 1.390 . S
C873 C874 1.387 . S
C873 H876 0.950 . S
C874 C873 1.387 . S
C874 C877 1.387 . S
H875 C871 0.950 . S
H876 C873 0.950 . S
C877 C868 1.390 . S
C877 H870 0.950 . S
C877 C874 1.387 . S
C878 C879 1.387 . S
C878 H882 0.950 . S
C878 C887 1.390 . S
C879 C878 1.387 . S
C879 C881 1.387 . S
H880 C887 0.950 . S
C881 C879 1.387 . S
C881 C883 1.390 . S
C881 H885 0.950 . S
H882 C878 0.950 . S
C883 C881 1.390 . S
C883 C884 1.387 . S
C883 H886 0.950 . S
C884 C883 1.387 . S
C884 C887 1.387 . S
H885 C881 0.950 . S
H886 C883 0.950 . S
C887 C878 1.390 . S
C887 H880 0.950 . S
C887 C884 1.387 . S
C888 C889 1.387 . S
C888 H892 0.950 . S
C888 C897 1.390 . S
C889 C888 1.387 . S
C889 C891 1.387 . S
H890 C897 0.950 . S
C891 C889 1.387 . S
C891 C893 1.390 . S
C891 H895 0.950 . S
H892 C888 0.950 . S
C893 C891 1.390 . S
C893 C894 1.387 . S
C893 H896 0.950 . S
C894 C893 1.387 . S
C894 C897 1.387 . S
H895 C891 0.950 . S
H896 C893 0.950 . S
C897 C888 1.390 . S
C897 H890 0.950 . S
C897 C894 1.387 . S
C898 C899 1.387 . S
C898 H902 0.950 . S
C898 C907 1.390 . S
C899 C898 1.387 . S
C899 C901 1.387 . S
H900 C907 0.950 . S
C901 C899 1.387 . S
C901 C903 1.390 . S
C901 H905 0.950 . S
H902 C898 0.950 . S
C903 C901 1.390 . S
C903 C904 1.387 . S
C903 H906 0.950 . S
C904 C903 1.387 . S
C904 C907 1.387 . S
H905 C901 0.950 . S
H906 C903 0.950 . S
C907 C898 1.390 . S
C907 H900 0.950 . S
C907 C904 1.387 . S
C908 C909 1.387 . S
C908 H912 0.950 . S
C908 C917 1.390 . S
C909 C908 1.387 . S
C909 C911 1.387 . S
H910 C917 0.950 . S
C911 C909 1.387 . S
C911 C913 1.390 . S
C911 H915 0.950 . S
H912 C908 0.950 . S
C913 C911 1.390 . S
C913 C914 1.387 . S
C913 H916 0.950 . S
C914 C913 1.387 . S
C914 C917 1.387 . S
H915 C911 0.950 . S
H916 C913 0.950 . S
C917 C908 1.390 . S
C917 H910 0.950 . S
C917 C914 1.387 . S
C918 C919 1.387 . S
C918 H922 0.950 . S
C918 C927 1.390 . S
C919 C918 1.387 . S
C919 C921 1.387 . S
H920 C927 0.950 . S
C921 C919 1.387 . S
C921 C923 1.390 . S
C921 H925 0.950 . S
H922 C918 0.950 . S
C923 C921 1.390 . S
C923 C924 1.387 . S
C923 H926 0.950 . S
C924 C923 1.387 . S
C924 C927 1.387 . S
H925 C921 0.950 . S
H926 C923 0.950 . S
C927 C918 1.390 . S
C927 H920 0.950 . S
C927 C924 1.387 . S
C928 C929 1.387 . S
C928 H932 0.950 . S
C928 C937 1.390 . S
C929 C928 1.387 . S
C929 C931 1.387 . S
H930 C937 0.950 . S
C931 C929 1.387 . S
C931 C933 1.390 . S
C931 H935 0.950 . S
H932 C928 0.950 . S
C933 C931 1.390 . S
C933 C934 1.387 . S
C933 H936 0.950 . S
C934 C933 1.387 . S
C934 C937 1.387 . S
H935 C931 0.950 . S
H936 C933 0.950 . S
C937 C928 1.390 . S
C937 H930 0.950 . S
C937 C934 1.387 . S
C938 C939 1.387 . S
C938 H942 0.950 . S
C938 C947 1.390 . S
C939 C938 1.387 . S
C939 C941 1.387 . S
H940 C947 0.950 . S
C941 C939 1.387 . S
C941 C943 1.390 . S
C941 H945 0.950 . S
H942 C938 0.950 . S
C943 C941 1.390 . S
C943 C944 1.387 . S
C943 H946 0.950 . S
C944 C943 1.387 . S
C944 C947 1.387 . S
H945 C941 0.950 . S
H946 C943 0.950 . S
C947 C938 1.390 . S
C947 H940 0.950 . S
C947 C944 1.387 . S
C948 C949 1.387 . S
C948 H952 0.950 . S
C948 C957 1.390 . S
C949 C948 1.387 . S
C949 C951 1.387 . S
H950 C957 0.950 . S
C951 C949 1.387 . S
C951 C953 1.390 . S
C951 H955 0.950 . S
H952 C948 0.950 . S
C953 C951 1.390 . S
C953 C954 1.387 . S
C953 H956 0.950 . S
C954 C953 1.387 . S
C954 C957 1.387 . S
H955 C951 0.950 . S
H956 C953 0.950 . S
C957 C948 1.390 . S
C957 H950 0.950 . S
C957 C954 1.387 . S
C958 C959 1.387 . S
C958 H962 0.950 . S
C958 C967 1.390 . S
C959 C958 1.387 . S
C959 C961 1.387 . S
H960 C967 0.950 . S
C961 C959 1.387 . S
C961 C963 1.390 . S
C961 H965 0.950 . S
H962 C958 0.950 . S
C963 C961 1.390 . S
C963 C964 1.387 . S
C963 H966 0.950 . S
C964 C963 1.387 . S
C964 C967 1.387 . S
H965 C961 0.950 . S
H966 C963 0.950 . S
C967 C958 1.390 . S
C967 H960 0.950 . S
C967 C964 1.387 . S
C968 C969 1.387 . S
C968 H972 0.950 . S
C968 C977 1.390 . S
C969 C968 1.387 . S
C969 C971 1.387 . S
H970 C977 0.950 . S
C971 C969 1.387 . S
C971 C973 1.390 . S
C971 H975 0.950 . S
H972 C968 0.950 . S
C973 C971 1.390 . S
C973 C974 1.387 . S
C973 H976 0.950 . S
C974 C973 1.387 . S
C974 C977 1.387 . S
H975 C971 0.950 . S
H976 C973 0.950 . S
C977 C968 1.390 . S
C977 H970 0.950 . S
C977 C974 1.387 . S
C978 C979 1.387 . S
C978 H982 0.950 . S
C978 C987 1.390 . S
C979 C978 1.387 . S
C979 C981 1.387 . S
H980 C987 0.950 . S
C981 C979 1.387 . S
C981 C983 1.390 . S
C981 H985 0.950 . S
H982 C978 0.950 . S
C983 C981 1.390 . S
C983 C984 1.387 . S
C983 H986 0.950 . S
C984 C983 1.387 . S
C984 C987 1.387 . S
H985 C981 0.950 . S
H986 C983 0.950 . S
C987 C978 1.390 . S
C987 H980 0.950 . S
C987 C984 1.387 . S
C988 C989 1.387 . S
C988 H992 0.950 . S
C988 C997 1.390 . S
C989 C988 1.387 . S
C989 C991 1.387 . S
H990 C997 0.950 . S
C991 C989 1.387 . S
C991 C993 1.390 . S
C991 H995 0.950 . S
H992 C988 0.950 . S
C993 C991 1.390 . S
C993 C994 1.387 . S
C993 H996 0.950 . S
C994 C993 1.387 . S
C994 C997 1.387 . S
H995 C991 0.950 . S
H996 C993 0.950 . S
C997 C988 1.390 . S
C997 H990 0.950 . S
C997 C994 1.387 . S
C998 C999 1.387 . S
C998 H1002 0.950 . S
C998 C1007 1.390 . S
C999 C998 1.387 . S
C999 C1001 1.387 . S
H1000 C1007 0.950 . S
C1001 C999 1.387 . S
C1001 C1003 1.390 . S
C1001 H1005 0.950 . S
H1002 C998 0.950 . S
C1003 C1001 1.390 . S
C1003 C1004 1.387 . S
C1003 H1006 0.950 . S
C1004 C1003 1.387 . S
C1004 C1007 1.387 . S
H1005 C1001 0.950 . S
H1006 C1003 0.950 . S
C1007 C998 1.390 . S
C1007 H1000 0.950 . S
C1007 C1004 1.387 . S
C1008 C1009 1.387 1_655 S
C1008 H1012 0.950 . S
C1008 C1017 1.390 . S
C1009 C1008 1.387 1_455 S
C1009 C1011 1.387 1_455 S
H1010 C1017 0.950 . S
C1011 C1009 1.387 1_655 S
C1011 C1013 1.390 . S
C1011 H1015 0.950 1_655 S
H1012 C1008 0.950 . S
C1013 C1011 1.390 . S
C1013 C1014 1.387 . S
C1013 H1016 0.950 . S
C1014 C1013 1.387 . S
C1014 C1017 1.387 . S
H1015 C1011 0.950 1_455 S
H1016 C1013 0.950 . S
C1017 C1008 1.390 . S
C1017 H1010 0.950 . S
C1017 C1014 1.387 . S
C1018 C1019 1.387 . S
C1018 H1022 0.950 . S
C1018 C1027 1.390 . S
C1019 C1018 1.387 . S
C1019 C1021 1.387 . S
H1020 C1027 0.950 . S
C1021 C1019 1.387 . S
C1021 C1023 1.390 . S
C1021 H1025 0.950 . S
H1022 C1018 0.950 . S
C1023 C1021 1.390 . S
C1023 C1024 1.387 . S
C1023 H1026 0.950 . S
C1024 C1023 1.387 . S
C1024 C1027 1.387 . S
H1025 C1021 0.950 . S
H1026 C1023 0.950 . S
C1027 C1018 1.390 . S
C1027 H1020 0.950 . S
C1027 C1024 1.387 . S
C1028 C1029 1.387 . S
C1028 H1032 0.950 . S
C1028 C1037 1.390 . S
C1029 C1028 1.387 . S
C1029 C1031 1.387 . S
H1030 C1037 0.950 . S
C1031 C1029 1.387 . S
C1031 C1033 1.390 . S
C1031 H1035 0.950 . S
H1032 C1028 0.950 . S
C1033 C1031 1.390 . S
C1033 C1034 1.387 . S
C1033 H1036 0.950 . S
C1034 C1033 1.387 . S
C1034 C1037 1.387 . S
H1035 C1031 0.950 . S
H1036 C1033 0.950 . S
C1037 C1028 1.390 . S
C1037 H1030 0.950 . S
C1037 C1034 1.387 . S
C1038 C1039 1.387 . S
C1038 H1042 0.950 . S
C1038 C1047 1.390 1_455 S
C1039 C1038 1.387 . S
C1039 C1041 1.387 . S
H1040 C1047 0.950 . S
C1041 C1039 1.387 . S
C1041 C1043 1.390 . S
C1041 H1045 0.950 . S
H1042 C1038 0.950 . S
C1043 C1041 1.390 . S
C1043 C1044 1.387 1_455 S
C1043 H1046 0.950 . S
C1044 C1043 1.387 1_655 S
C1044 C1047 1.387 . S
H1045 C1041 0.950 . S
H1046 C1043 0.950 . S
C1047 C1038 1.390 1_655 S
C1047 H1040 0.950 . S
C1047 C1044 1.387 . S
C1048 C1049 1.387 1_565 S
C1048 H1052 0.950 . S
C1048 C1057 1.390 . S
C1049 C1048 1.387 1_545 S
C1049 C1051 1.388 . S
H1050 C1057 0.950 . S
C1051 C1049 1.388 . S
C1051 C1053 1.387 1_545 S
C1051 H1055 0.952 . S
H1052 C1048 0.950 . S
C1053 C1051 1.387 1_565 S
C1053 C1054 1.387 . S
C1053 H1056 0.950 . S
C1054 C1053 1.387 . S
C1054 C1057 1.387 . S
H1055 C1051 0.952 . S
H1056 C1053 0.950 . S
C1057 C1048 1.390 . S
C1057 H1050 0.950 . S
C1057 C1054 1.387 . S
C1058 C1059 1.387 . S
C1058 H1062 0.950 . S
C1058 C1067 1.390 . S
C1059 C1058 1.387 . S
C1059 C1061 1.387 . S
H1060 C1067 0.950 . S
C1061 C1059 1.387 . S
C1061 C1063 1.390 . S
C1061 H1065 0.950 . S
H1062 C1058 0.950 . S
C1063 C1061 1.390 . S
C1063 C1064 1.387 1_545 S
C1063 H1066 0.950 1_545 S
C1064 C1063 1.387 1_565 S
C1064 C1067 1.387 1_565 S
H1065 C1061 0.950 . S
H1066 C1063 0.950 1_565 S
C1067 C1058 1.390 . S
C1067 H1060 0.950 . S
C1067 C1064 1.387 1_545 S
C1068 C1069 1.387 . S
C1068 H1072 0.950 . S
C1068 C1077 1.390 . S
C1069 C1068 1.387 . S
C1069 C1071 1.387 . S
H1070 C1077 0.950 . S
C1071 C1069 1.387 . S
C1071 C1073 1.390 . S
C1071 H1075 0.950 . S
H1072 C1068 0.950 . S
C1073 C1071 1.390 . S
C1073 C1074 1.387 . S
C1073 H1076 0.950 . S
C1074 C1073 1.387 . S
C1074 C1077 1.387 . S
H1075 C1071 0.950 . S
H1076 C1073 0.950 . S
C1077 C1068 1.390 . S
C1077 H1070 0.950 . S
C1077 C1074 1.387 . S
C1078 C1079 1.387 . S
C1078 H1082 0.950 . S
C1078 C1087 1.390 . S
C1079 C1078 1.387 . S
C1079 C1081 1.387 . S
H1080 C1087 0.950 . S
C1081 C1079 1.387 . S
C1081 C1083 1.390 . S
C1081 H1085 0.950 . S
H1082 C1078 0.950 . S
C1083 C1081 1.390 . S
C1083 C1084 1.387 . S
C1083 H1086 0.950 . S
C1084 C1083 1.387 . S
C1084 C1087 1.387 . S
H1085 C1081 0.950 . S
H1086 C1083 0.950 . S
C1087 C1078 1.390 . S
C1087 H1080 0.950 . S
C1087 C1084 1.387 . S
C1088 C1089 1.387 . S
C1088 H1092 0.950 . S
C1088 C1097 1.390 1_554 S
C1089 C1088 1.387 . S
C1089 C1091 1.387 1_554 S
H1090 C1097 0.950 1_554 S
C1091 C1089 1.387 1_556 S
C1091 C1093 1.390 . S
C1091 H1095 0.950 . S
H1092 C1088 0.950 . S
C1093 C1091 1.390 . S
C1093 C1094 1.387 . S
C1093 H1096 0.950 . S
C1094 C1093 1.387 . S
C1094 C1097 1.387 . S
H1095 C1091 0.950 . S
H1096 C1093 0.950 . S
C1097 C1088 1.390 1_556 S
C1097 H1090 0.950 1_556 S
C1097 C1094 1.387 . S
C1098 C1099 1.387 1_554 S
C1098 H1102 0.950 . S
C1098 C1107 1.390 . S
C1099 C1098 1.387 1_556 S
C1099 C1101 1.387 . S
H1100 C1107 0.950 . S
C1101 C1099 1.387 . S
C1101 C1103 1.390 . S
C1101 H1105 0.950 . S
H1102 C1098 0.950 . S
C1103 C1101 1.390 . S
C1103 C1104 1.387 1_556 S
C1103 H1106 0.950 . S
C1104 C1103 1.387 1_554 S
C1104 C1107 1.387 . S
H1105 C1101 0.950 . S
H1106 C1103 0.950 . S
C1107 C1098 1.390 . S
C1107 H1100 0.950 . S
C1107 C1104 1.387 . S
C1108 C1109 1.387 . S
C1108 H1112 0.950 . S
C1108 C1117 1.390 . S
C1109 C1108 1.387 . S
C1109 C1111 1.387 . S
H1110 C1117 0.950 . S
C1111 C1109 1.387 . S
C1111 C1113 1.390 . S
C1111 H1115 0.950 . S
H1112 C1108 0.950 . S
C1113 C1111 1.390 . S
C1113 C1114 1.387 . S
C1113 H1116 0.950 . S
C1114 C1113 1.387 . S
C1114 C1117 1.387 . S
H1115 C1111 0.950 . S
H1116 C1113 0.950 . S
C1117 C1108 1.390 . S
C1117 H1110 0.950 . S
C1117 C1114 1.387 . S
C1118 C1119 1.387 . S
C1118 H1122 0.950 . S
C1118 C1127 1.390 . S
C1119 C1118 1.387 . S
C1119 C1121 1.387 . S
H1120 C1127 0.950 . S
C1121 C1119 1.387 . S
C1121 C1123 1.390 . S
C1121 H1125 0.950 . S
H1122 C1118 0.950 . S
C1123 C1121 1.390 . S
C1123 C1124 1.387 . S
C1123 H1126 0.950 . S
C1124 C1123 1.387 . S
C1124 C1127 1.387 . S
H1125 C1121 0.950 . S
H1126 C1123 0.950 . S
C1127 C1118 1.390 . S
C1127 H1120 0.950 . S
C1127 C1124 1.387 . S
C1128 C1129 1.387 1_455 S
C1128 H1132 0.950 1_455 S
C1128 C1137 1.390 . S
C1129 C1128 1.387 1_655 S
C1129 C1131 1.387 1_655 S
H1130 C1137 0.950 . S
C1131 C1129 1.387 1_455 S
C1131 C1133 1.390 . S
C1131 H1135 0.950 . S
H1132 C1128 0.950 1_655 S
C1133 C1131 1.390 . S
C1133 C1134 1.387 . S
C1133 H1136 0.950 . S
C1134 C1133 1.387 . S
C1134 C1137 1.387 . S
H1135 C1131 0.950 . S
H1136 C1133 0.950 . S
C1137 C1128 1.390 . S
C1137 H1130 0.950 . S
C1137 C1134 1.387 . S
C1138 C1139 1.387 . S
C1138 H1142 0.950 . S
C1138 C1147 1.390 . S
C1139 C1138 1.387 . S
C1139 C1141 1.387 . S
H1140 C1147 0.950 . S
C1141 C1139 1.387 . S
C1141 C1143 1.390 . S
C1141 H1145 0.950 . S
H1142 C1138 0.950 . S
C1143 C1141 1.390 . S
C1143 C1144 1.387 . S
C1143 H1146 0.950 . S
C1144 C1143 1.387 . S
C1144 C1147 1.387 . S
H1145 C1141 0.950 . S
H1146 C1143 0.950 . S
C1147 C1138 1.390 . S
C1147 H1140 0.950 . S
C1147 C1144 1.387 . S
C1148 C1149 1.387 . S
C1148 H1152 0.950 . S
C1148 C1157 1.390 . S
C1149 C1148 1.387 . S
C1149 C1151 1.387 . S
H1150 C1157 0.950 . S
C1151 C1149 1.387 . S
C1151 C1153 1.390 . S
C1151 H1155 0.950 . S
H1152 C1148 0.950 . S
C1153 C1151 1.390 . S
C1153 C1154 1.387 . S
C1153 H1156 0.950 . S
C1154 C1153 1.387 . S
C1154 C1157 1.387 . S
H1155 C1151 0.950 . S
H1156 C1153 0.950 . S
C1157 C1148 1.390 . S
C1157 H1150 0.950 . S
C1157 C1154 1.387 . S
C1158 C1159 1.387 . S
C1158 H1162 0.950 . S
C1158 C1167 1.390 . S
C1159 C1158 1.387 . S
C1159 C1161 1.387 . S
H1160 C1167 0.950 1_455 S
C1161 C1159 1.387 . S
C1161 C1163 1.390 . S
C1161 H1165 0.950 . S
H1162 C1158 0.950 . S
C1163 C1161 1.390 . S
C1163 C1164 1.387 1_655 S
C1163 H1166 0.950 . S
C1164 C1163 1.387 1_455 S
C1164 C1167 1.387 1_455 S
H1165 C1161 0.950 . S
H1166 C1163 0.950 . S
C1167 C1158 1.390 . S
C1167 H1160 0.950 1_655 S
C1167 C1164 1.387 1_655 S
C1168 C1169 1.387 . S
C1168 H1172 0.950 . S
C1168 C1177 1.390 1_565 S
C1169 C1168 1.387 . S
C1169 C1171 1.387 1_565 S
H1170 C1177 0.950 . S
C1171 C1169 1.387 1_545 S
C1171 C1173 1.390 . S
C1171 H1175 0.950 . S
H1172 C1168 0.950 . S
C1173 C1171 1.390 . S
C1173 C1174 1.387 . S
C1173 H1176 0.950 . S
C1174 C1173 1.387 . S
C1174 C1177 1.387 . S
H1175 C1171 0.950 . S
H1176 C1173 0.950 . S
C1177 C1168 1.390 1_545 S
C1177 H1170 0.950 . S
C1177 C1174 1.387 . S
C1178 C1179 1.387 1_565 S
C1178 H1182 0.942 1_565 S
C1178 C1187 1.390 . S
C1179 C1178 1.387 1_545 S
C1179 C1181 1.387 1_545 S
H1180 C1187 0.950 . S
C1181 C1179 1.387 1_565 S
C1181 C1183 1.390 . S
C1181 H1185 0.950 . S
H1182 C1178 0.942 1_545 S
C1183 C1181 1.390 . S
C1183 C1184 1.387 . S
C1183 H1186 0.950 . S
C1184 C1183 1.387 . S
C1184 C1187 1.387 . S
H1185 C1181 0.950 . S
H1186 C1183 0.950 . S
C1187 C1178 1.390 . S
C1187 H1180 0.950 . S
C1187 C1184 1.387 . S
C1188 C1189 1.387 . S
C1188 H1192 0.950 . S
C1188 C1197 1.390 . S
C1189 C1188 1.387 . S
C1189 C1191 1.387 . S
H1190 C1197 0.950 . S
C1191 C1189 1.387 . S
C1191 C1193 1.390 . S
C1191 H1195 0.950 . S
H1192 C1188 0.950 . S
C1193 C1191 1.390 . S
C1193 C1194 1.387 . S
C1193 H1196 0.950 . S
C1194 C1193 1.387 . S
C1194 C1197 1.387 . S
H1195 C1191 0.950 . S
H1196 C1193 0.950 . S
C1197 C1188 1.390 . S
C1197 H1190 0.950 . S
C1197 C1194 1.387 . S
C1198 C1199 1.387 . S
C1198 H1202 0.950 . S
C1198 C1207 1.390 . S
C1199 C1198 1.387 . S
C1199 C1201 1.387 . S
H1200 C1207 0.950 . S
C1201 C1199 1.387 . S
C1201 C1203 1.390 . S
C1201 H1205 0.950 . S
H1202 C1198 0.950 . S
C1203 C1201 1.390 . S
C1203 C1204 1.387 . S
C1203 H1206 0.950 . S
C1204 C1203 1.387 . S
C1204 C1207 1.387 . S
H1205 C1201 0.950 . S
H1206 C1203 0.950 . S
C1207 C1198 1.390 . S
C1207 H1200 0.950 . S
C1207 C1204 1.387 . S
C1208 C1209 1.387 1_554 S
C1208 H1212 0.950 . S
C1208 C1217 1.390 . S
C1209 C1208 1.387 1_556 S
C1209 C1211 1.387 . S
H1210 C1217 0.950 . S
C1211 C1209 1.387 . S
C1211 C1213 1.390 1_556 S
C1211 H1215 0.950 . S
H1212 C1208 0.950 . S
C1213 C1211 1.390 1_554 S
C1213 C1214 1.387 . S
C1213 H1216 0.950 . S
C1214 C1213 1.387 . S
C1214 C1217 1.387 . S
H1215 C1211 0.950 . S
H1216 C1213 0.950 . S
C1217 C1208 1.390 . S
C1217 H1210 0.950 . S
C1217 C1214 1.387 . S
C1218 C1219 1.387 . S
C1218 H1222 0.950 . S
C1218 C1227 1.390 . S
C1219 C1218 1.387 . S
C1219 C1221 1.387 . S
H1220 C1227 0.950 . S
C1221 C1219 1.387 . S
C1221 C1223 1.390 1_556 S
C1221 H1225 0.950 . S
H1222 C1218 0.950 . S
C1223 C1221 1.390 1_554 S
C1223 C1224 1.387 . S
C1223 H1226 0.950 . S
C1224 C1223 1.387 . S
C1224 C1227 1.387 1_554 S
H1225 C1221 0.950 . S
H1226 C1223 0.950 . S
C1227 C1218 1.390 . S
C1227 H1220 0.950 . S
C1227 C1224 1.387 1_556 S
C1228 C1229 1.387 . S
C1228 H1232 0.950 . S
C1228 C1237 1.390 . S
C1229 C1228 1.387 . S
C1229 C1231 1.387 . S
H1230 C1237 0.950 . S
C1231 C1229 1.387 . S
C1231 C1233 1.390 . S
C1231 H1235 0.950 . S
H1232 C1228 0.950 . S
C1233 C1231 1.390 . S
C1233 C1234 1.387 . S
C1233 H1236 0.950 . S
C1234 C1233 1.387 . S
C1234 C1237 1.387 . S
H1235 C1231 0.950 . S
H1236 C1233 0.950 . S
C1237 C1228 1.390 . S
C1237 H1230 0.950 . S
C1237 C1234 1.387 . S
C1238 C1239 1.387 . S
C1238 H1242 0.950 . S
C1238 C1247 1.390 . S
C1239 C1238 1.387 . S
C1239 C1241 1.387 . S
H1240 C1247 0.950 . S
C1241 C1239 1.387 . S
C1241 C1243 1.390 . S
C1241 H1245 0.950 . S
H1242 C1238 0.950 . S
C1243 C1241 1.390 . S
C1243 C1244 1.387 . S
C1243 H1246 0.950 . S
C1244 C1243 1.387 . S
C1244 C1247 1.387 . S
H1245 C1241 0.950 . S
H1246 C1243 0.950 . S
C1247 C1238 1.390 . S
C1247 H1240 0.950 . S
C1247 C1244 1.387 . S
C529 C6 1.300 . S
C534 C402 1.336 . S
C539 C424 1.336 . S
C544 C29 1.301 . S
C549 C51 1.300 . S
C554 C359 1.336 1_545 S
C559 C72 1.300 . S
C564 C380 1.336 1_565 S
C569 C490 1.336 . S
C574 C94 1.302 . S
C579 C116 1.300 . S
C584 C468 1.336 1_556 S
C589 C513 1.336 . S
C594 C138 1.301 . S
C599 C161 1.300 . S
C604 C447 1.336 1_554 S
C609 C183 1.300 . S
C614 C293 1.336 . S
C619 C204 1.301 . S
C624 C336 1.336 1_655 S
C629 C315 1.336 . S
C634 C226 1.302 . S
C639 C249 1.302 . S
C644 C270 1.336 1_455 S
C649 C273 1.300 . S
C654 C141 1.336 . S
C659 C291 1.299 . S
C664 C159 1.336 . S
C669 C313 1.302 . S
C674 C97 1.336 1_565 S
C679 C119 1.336 1_545 S
C684 C339 1.302 . S
C689 C357 1.299 . S
C694 C229 1.336 . S
C699 C207 1.336 1_554 S
C704 C383 1.301 . S
C709 C247 1.336 . S
C714 C405 1.301 . S
C719 C181 1.336 1_556 S
C724 C427 1.302 . S
C729 C27 1.336 . S
C734 C445 1.302 . S
C739 C75 1.336 1_455 S
C744 C471 1.300 . S
C749 C49 1.336 . S
C754 C493 1.300 . S
C759 C511 1.302 . S
C764 C9 1.336 1_655 S
C769 C426 1.337 . S
C774 C5 1.310 . S
C779 C404 1.339 . S
C784 C31 1.306 . S
C789 C53 1.309 . S
C794 C382 1.338 . S
C799 C356 1.338 . S
C804 C71 1.306 . S
C809 C93 1.306 . S
C814 C510 1.338 . S
C819 C115 1.306 . S
C824 C444 1.338 . S
C829 C492 1.337 . S
C834 C137 1.310 . S
C839 C163 1.306 . S
C844 C470 1.338 . S
C849 C312 1.339 . S
C854 C185 1.307 . S
C859 C272 1.336 . S
C864 C203 1.308 . S
C869 C290 1.336 . S
C874 C225 1.309 . S
C879 C338 1.339 . S
C884 C251 1.306 . S
C889 C271 1.306 . S
C894 C162 1.338 . S
C899 C292 1.306 . S
C904 C136 1.339 . S
C909 C114 1.338 . S
C914 C314 1.306 . S
C919 C92 1.336 . S
C924 C337 1.310 . S
C929 C250 1.338 . S
C934 C358 1.306 . S
C939 C381 1.306 . S
C944 C184 1.338 . S
C949 C224 1.338 . S
C954 C403 1.306 . S
C959 C202 1.337 . S
C964 C425 1.310 . S
C969 C446 1.306 . S
C974 C52 1.337 . S
C979 C469 1.307 . S
C984 C4 1.337 . S
C989 C30 1.336 . S
C994 C491 1.309 . S
C999 C70 1.336 . S
C1004 C512 1.308 . S
C1009 C7 1.223 . S
C1014 C206 1.213 . S
C1019 C228 1.214 . S
C1024 C28 1.222 . S
C1029 C180 1.217 . S
C1034 C50 1.221 . S
C1039 C246 1.217 . S
C1044 C73 1.220 . S
C1049 C95 1.223 . S
C1054 C74 1.213 . S
C1059 C48 1.213 . S
C1064 C117 1.223 . S
C1069 C139 1.222 . S
C1074 C26 1.213 . S
C1079 C8 1.213 . S
C1084 C160 1.223 . S
C1089 C182 1.220 . S
C1094 C118 1.217 . S
C1099 C205 1.224 . S
C1104 C158 1.213 . S
C1109 C227 1.224 . S
C1114 C140 1.213 . S
C1119 C248 1.222 . S
C1124 C96 1.214 . S
C1129 C269 1.223 . S
C1134 C466 1.213 . S
C1139 C295 1.221 . S
C1144 C488 1.217 . S
C1149 C448 1.216 . S
C1154 C317 1.221 . S
C1159 C514 1.213 . S
C1164 C335 1.223 . S
C1169 C361 1.224 . S
C1174 C334 1.213 . S
C1179 C379 1.223 . S
C1184 C316 1.213 . S
C1189 C294 1.217 . S
C1194 C401 1.220 . S
C1199 C423 1.220 . S
C1204 C268 1.217 . S
C1209 C449 1.221 . S
C1214 C378 1.214 . S
C1219 C422 1.214 . S
C1224 C467 1.222 . S
C1229 C489 1.224 . S
C1234 C400 1.213 . S
C1239 C515 1.220 . S
C1244 C360 1.216 . S
