# Generated by pormake.
# Topology wio, (6)-cn, num edge types: 1
# Building blocks:
#     Node 0, Type 0, BuildingBlock: PAMTOO_clean_sbu_0, # of connection points: 6
#     Node 1, Type 0, BuildingBlock: PAMTOO_clean_sbu_0, # of connection points: 6
#     Node 2, Type 0, BuildingBlock: PAMTOO_clean_sbu_0, # of connection points: 6
#     Node 3, Type 0, BuildingBlock: PAMTOO_clean_sbu_0, # of connection points: 6
#     Node 4, Type 0, BuildingBlock: PAMTOO_clean_sbu_0, # of connection points: 6
#     Node 5, Type 0, BuildingBlock: PAMTOO_clean_sbu_0, # of connection points: 6
#     Node 6, Type 0, BuildingBlock: PAMTOO_clean_sbu_0, # of connection points: 6
#     Node 7, Type 0, BuildingBlock: PAMTOO_clean_sbu_0, # of connection points: 6
#     Node 8, Type 0, BuildingBlock: PAMTOO_clean_sbu_0, # of connection points: 6
#     Node 9, Type 0, BuildingBlock: PAMTOO_clean_sbu_0, # of connection points: 6
#     Node 10, Type 0, BuildingBlock: PAMTOO_clean_sbu_0, # of connection points: 6
#     Node 11, Type 0, BuildingBlock: PAMTOO_clean_sbu_0, # of connection points: 6
#     Node 12, Type 0, BuildingBlock: PAMTOO_clean_sbu_0, # of connection points: 6
#     Node 13, Type 0, BuildingBlock: PAMTOO_clean_sbu_0, # of connection points: 6
#     Node 14, Type 0, BuildingBlock: PAMTOO_clean_sbu_0, # of connection points: 6
#     Node 15, Type 0, BuildingBlock: PAMTOO_clean_sbu_0, # of connection points: 6
#     Node 16, Type 0, BuildingBlock: PAMTOO_clean_sbu_0, # of connection points: 6
#     Node 17, Type 0, BuildingBlock: PAMTOO_clean_sbu_0, # of connection points: 6
#     Node 18, Type 0, BuildingBlock: PAMTOO_clean_sbu_0, # of connection points: 6
#     Node 19, Type 0, BuildingBlock: PAMTOO_clean_sbu_0, # of connection points: 6
#     Node 20, Type 0, BuildingBlock: PAMTOO_clean_sbu_0, # of connection points: 6
#     Node 21, Type 0, BuildingBlock: PAMTOO_clean_sbu_0, # of connection points: 6
#     Node 22, Type 0, BuildingBlock: PAMTOO_clean_sbu_0, # of connection points: 6
#     Node 23, Type 0, BuildingBlock: PAMTOO_clean_sbu_0, # of connection points: 6
#     Node 24, Type 0, BuildingBlock: PAMTOO_clean_sbu_0, # of connection points: 6
#     Node 25, Type 0, BuildingBlock: PAMTOO_clean_sbu_0, # of connection points: 6
#     Node 26, Type 0, BuildingBlock: PAMTOO_clean_sbu_0, # of connection points: 6
#     Node 27, Type 0, BuildingBlock: PAMTOO_clean_sbu_0, # of connection points: 6
#     Node 28, Type 0, BuildingBlock: PAMTOO_clean_sbu_0, # of connection points: 6
#     Node 29, Type 0, BuildingBlock: PAMTOO_clean_sbu_0, # of connection points: 6
#     Node 30, Type 0, BuildingBlock: PAMTOO_clean_sbu_0, # of connection points: 6
#     Node 31, Type 0, BuildingBlock: PAMTOO_clean_sbu_0, # of connection points: 6
#     Edge 32, Type (0, 0), None
#     Edge 33, Type (0, 0), None
#     Edge 34, Type (0, 0), None
#     Edge 35, Type (0, 0), None
#     Edge 36, Type (0, 0), None
#     Edge 37, Type (0, 0), None
#     Edge 38, Type (0, 0), None
#     Edge 39, Type (0, 0), None
#     Edge 40, Type (0, 0), None
#     Edge 41, Type (0, 0), None
#     Edge 42, Type (0, 0), None
#     Edge 43, Type (0, 0), None
#     Edge 44, Type (0, 0), None
#     Edge 45, Type (0, 0), None
#     Edge 46, Type (0, 0), None
#     Edge 47, Type (0, 0), None
#     Edge 48, Type (0, 0), None
#     Edge 49, Type (0, 0), None
#     Edge 50, Type (0, 0), None
#     Edge 51, Type (0, 0), None
#     Edge 52, Type (0, 0), None
#     Edge 53, Type (0, 0), None
#     Edge 54, Type (0, 0), None
#     Edge 55, Type (0, 0), None
#     Edge 56, Type (0, 0), None
#     Edge 57, Type (0, 0), None
#     Edge 58, Type (0, 0), None
#     Edge 59, Type (0, 0), None
#     Edge 60, Type (0, 0), None
#     Edge 61, Type (0, 0), None
#     Edge 62, Type (0, 0), None
#     Edge 63, Type (0, 0), None
#     Edge 64, Type (0, 0), None
#     Edge 65, Type (0, 0), None
#     Edge 66, Type (0, 0), None
#     Edge 67, Type (0, 0), None
#     Edge 68, Type (0, 0), None
#     Edge 69, Type (0, 0), None
#     Edge 70, Type (0, 0), None
#     Edge 71, Type (0, 0), None
#     Edge 72, Type (0, 0), None
#     Edge 73, Type (0, 0), None
#     Edge 74, Type (0, 0), None
#     Edge 75, Type (0, 0), None
#     Edge 76, Type (0, 0), None
#     Edge 77, Type (0, 0), None
#     Edge 78, Type (0, 0), None
#     Edge 79, Type (0, 0), None
#     Edge 80, Type (0, 0), None
#     Edge 81, Type (0, 0), None
#     Edge 82, Type (0, 0), None
#     Edge 83, Type (0, 0), None
#     Edge 84, Type (0, 0), None
#     Edge 85, Type (0, 0), None
#     Edge 86, Type (0, 0), None
#     Edge 87, Type (0, 0), None
#     Edge 88, Type (0, 0), None
#     Edge 89, Type (0, 0), None
#     Edge 90, Type (0, 0), None
#     Edge 91, Type (0, 0), None
#     Edge 92, Type (0, 0), None
#     Edge 93, Type (0, 0), None
#     Edge 94, Type (0, 0), None
#     Edge 95, Type (0, 0), None
#     Edge 96, Type (0, 0), None
#     Edge 97, Type (0, 0), None
#     Edge 98, Type (0, 0), None
#     Edge 99, Type (0, 0), None
#     Edge 100, Type (0, 0), None
#     Edge 101, Type (0, 0), None
#     Edge 102, Type (0, 0), None
#     Edge 103, Type (0, 0), None
#     Edge 104, Type (0, 0), None
#     Edge 105, Type (0, 0), None
#     Edge 106, Type (0, 0), None
#     Edge 107, Type (0, 0), None
#     Edge 108, Type (0, 0), None
#     Edge 109, Type (0, 0), None
#     Edge 110, Type (0, 0), None
#     Edge 111, Type (0, 0), None
#     Edge 112, Type (0, 0), None
#     Edge 113, Type (0, 0), None
#     Edge 114, Type (0, 0), None
#     Edge 115, Type (0, 0), None
#     Edge 116, Type (0, 0), None
#     Edge 117, Type (0, 0), None
#     Edge 118, Type (0, 0), None
#     Edge 119, Type (0, 0), None
#     Edge 120, Type (0, 0), None
#     Edge 121, Type (0, 0), None
#     Edge 122, Type (0, 0), None
#     Edge 123, Type (0, 0), None
#     Edge 124, Type (0, 0), None
#     Edge 125, Type (0, 0), None
#     Edge 126, Type (0, 0), None
#     Edge 127, Type (0, 0), None
# Relax obj value: 0.261
# Max RMSD: 0.276
# Mean RMSD: 0.276
data_MOF--net-wio--node1-PAMTOO_clean_sbu_0--edge1-none
_symmetry_space_group_name_H-M    P1
_symmetry_Int_Tables_number       1
_symmetry_cell_setting            triclinic
loop_
_symmetry_equiv_pos_as_xyz
'x, y, z'
_cell_length_a     35.09371
_cell_length_b     35.093532
_cell_length_c     28.312046
_cell_angle_alpha  90.000448
_cell_angle_beta   89.99953
_cell_angle_gamma 90.000296
loop_
_atom_site_label
_atom_site_type_symbol
_atom_site_fract_x
_atom_site_fract_y
_atom_site_fract_z
_atom_type_partial_charge
Dy0 Dy 0.08055 0.11209 0.32307 0.0
Dy1 Dy 0.17464 0.1113 0.32492 0.0
C2 C 0.13063 0.17561 0.38148 0.0
O3 O 0.09777 0.12611 0.24572 0.0
O4 O 0.16329 0.12989 0.24995 0.0
O5 O 0.03134 0.14947 0.32635 0.0
O6 O 0.02364 0.08833 0.32798 0.0
O7 O 0.15714 0.04893 0.3266 0.0
O8 O 0.09195 0.04915 0.31472 0.0
O9 O 0.15938 0.09847 0.39883 0.0
O10 O 0.0952 0.08572 0.3924 0.0
O11 O 0.2272 0.08288 0.30768 0.0
O12 O 0.22801 0.13488 0.3488 0.0
C13 C 0.1315 0.13303 0.22563 0.0
O14 O 0.09915 0.15592 0.37626 0.0
O15 O 0.16037 0.16875 0.35472 0.0
C16 C 0.9879 0.12531 0.38407 0.0
C17 C 0.95031 0.13445 0.47313 0.0
C18 C 0.95337 0.16497 0.44086 0.0
C19 C 0.97176 0.16044 0.39712 0.0
C20 C 0.98562 0.09493 0.41666 0.0
C21 C 0.967 0.0994 0.46042 0.0
C22 C 1.00862 0.12145 0.33788 0.0
C23 C 0.12431 0.0308 0.32202 0.0
C24 C 0.12705 0.08678 0.4166 0.0
C25 C 0.2766 0.12511 0.2936 0.0
C26 C 0.32066 0.14078 0.21412 0.0
C27 C 0.33153 0.11161 0.2453 0.0
C28 C 0.30953 0.10382 0.28499 0.0
C29 C 0.26785 0.15666 0.26511 0.0
C30 C 0.29008 0.16471 0.22566 0.0
C31 C 0.24811 0.10988 0.32574 0.0
H32 H 0.94071 0.19238 0.44882 0.0
H33 H 0.97322 0.18455 0.37329 0.0
H34 H 0.99806 0.0675 0.40835 0.0
H35 H 0.96498 0.07508 0.48383 0.0
H36 H 0.35545 0.09317 0.23728 0.0
H37 H 0.31649 0.07937 0.30674 0.0
H38 H 0.24224 0.17321 0.27119 0.0
H39 H 0.28124 0.18736 0.20207 0.0
Dy40 Dy 0.15675 0.83056 0.57307 0.0
Dy41 Dy 0.15755 0.92464 0.57492 0.0
C42 C 0.09324 0.88063 0.63149 0.0
O43 O 0.14274 0.84777 0.49572 0.0
O44 O 0.13895 0.9133 0.49995 0.0
O45 O 0.11938 0.78134 0.57636 0.0
O46 O 0.18052 0.77364 0.57798 0.0
O47 O 0.21991 0.90715 0.5766 0.0
O48 O 0.2197 0.84196 0.56473 0.0
O49 O 0.17038 0.90939 0.64883 0.0
O50 O 0.18312 0.84521 0.64241 0.0
O51 O 0.18596 0.97721 0.55767 0.0
O52 O 0.13397 0.97802 0.5988 0.0
C53 C 0.13581 0.8815 0.47563 0.0
O54 O 0.11293 0.84916 0.62626 0.0
O55 O 0.1001 0.91038 0.60472 0.0
C56 C 0.14353 0.73791 0.63407 0.0
C57 C 0.1344 0.70031 0.72313 0.0
C58 C 0.10388 0.70338 0.69086 0.0
C59 C 0.10841 0.72176 0.64712 0.0
C60 C 0.17391 0.73563 0.66666 0.0
C61 C 0.16944 0.717 0.71042 0.0
C62 C 0.1474 0.75862 0.58788 0.0
C63 C 0.23805 0.87432 0.57201 0.0
C64 C 0.18207 0.87705 0.6666 0.0
C65 C 0.14374 0.02661 0.54359 0.0
C66 C 0.12806 0.07067 0.46412 0.0
C67 C 0.15724 0.08153 0.4953 0.0
C68 C 0.16503 0.05953 0.53498 0.0
C69 C 0.11219 0.01785 0.51511 0.0
C70 C 0.10413 0.04008 0.47566 0.0
C71 C 0.15897 0.99812 0.57574 0.0
H72 H 0.07647 0.69071 0.69882 0.0
H73 H 0.0843 0.72322 0.62329 0.0
H74 H 0.20134 0.74807 0.65835 0.0
H75 H 0.19376 0.71499 0.73383 0.0
H76 H 0.17567 0.10545 0.48727 0.0
H77 H 0.18947 0.0665 0.55673 0.0
H78 H 0.09564 0.99225 0.52119 0.0
H79 H 0.08148 0.03124 0.45206 0.0
Dy80 Dy 0.43829 0.90676 0.82307 0.0
Dy81 Dy 0.3442 0.90756 0.82492 0.0
C82 C 0.38821 0.84324 0.88149 0.0
O83 O 0.42108 0.89274 0.74572 0.0
O84 O 0.35555 0.88895 0.74995 0.0
O85 O 0.4875 0.86938 0.82636 0.0
O86 O 0.4952 0.93052 0.82798 0.0
O87 O 0.3617 0.96992 0.8266 0.0
O88 O 0.42689 0.9697 0.81473 0.0
O89 O 0.35946 0.92039 0.89883 0.0
O90 O 0.42364 0.93313 0.89241 0.0
O91 O 0.29164 0.93597 0.80768 0.0
O92 O 0.29083 0.88398 0.8488 0.0
C93 C 0.38734 0.88582 0.72563 0.0
O94 O 0.41969 0.86293 0.87626 0.0
O95 O 0.35846 0.8501 0.85472 0.0
C96 C 0.53094 0.89353 0.88408 0.0
C97 C 0.56853 0.8844 0.97313 0.0
C98 C 0.56547 0.85388 0.94086 0.0
C99 C 0.54708 0.85841 0.89712 0.0
C100 C 0.53322 0.92391 0.91667 0.0
C101 C 0.55184 0.91944 0.96043 0.0
C102 C 0.51022 0.8974 0.83788 0.0
C103 C 0.39453 0.98805 0.82202 0.0
C104 C 0.39179 0.93207 0.9166 0.0
C105 C 0.24224 0.89375 0.7936 0.0
C106 C 0.19818 0.87807 0.71412 0.0
C107 C 0.18732 0.90725 0.74529 0.0
C108 C 0.20932 0.91504 0.78498 0.0
C109 C 0.25099 0.86219 0.76511 0.0
C110 C 0.22876 0.85414 0.72566 0.0
C111 C 0.27073 0.90897 0.82574 0.0
H112 H 0.57813 0.82647 0.94882 0.0
H113 H 0.54563 0.8343 0.87329 0.0
H114 H 0.52077 0.95134 0.90836 0.0
H115 H 0.55386 0.94377 0.98383 0.0
H116 H 0.1634 0.92569 0.73727 0.0
H117 H 0.20236 0.93948 0.80673 0.0
H118 H 0.27659 0.84564 0.77119 0.0
H119 H 0.2376 0.83149 0.70207 0.0
Dy120 Dy 0.36209 0.18829 1.07307 0.0
Dy121 Dy 0.36129 0.09421 0.07492 0.0
C122 C 0.42561 0.13822 0.13148 0.0
O123 O 0.3761 0.17108 0.99572 0.0
O124 O 0.37989 0.10555 0.99995 0.0
O125 O 0.39947 0.23751 0.07635 0.0
O126 O 0.33832 0.24521 0.07798 0.0
O127 O 0.29893 0.1117 0.0766 0.0
O128 O 0.29914 0.17689 1.06472 0.0
O129 O 0.34847 0.10947 0.14883 0.0
O130 O 0.33572 0.17364 0.14241 0.0
O131 O 0.33288 0.04164 1.05768 0.0
O132 O 0.38487 0.04084 0.0988 0.0
C133 C 0.38303 0.13735 0.97563 0.0
O134 O 0.40592 0.16969 0.12626 0.0
O135 O 0.41875 0.10847 0.10472 0.0
C136 C 0.37531 0.28094 0.13407 0.0
C137 C 0.38445 0.31854 0.22313 0.0
C138 C 0.41497 0.31548 0.19086 0.0
C139 C 0.41043 0.29709 0.14712 0.0
C140 C 0.34493 0.28322 0.16667 0.0
C141 C 0.3494 0.30184 0.21043 0.0
C142 C 0.37144 0.26023 0.08788 0.0
C143 C 0.2808 0.14453 1.07202 0.0
C144 C 0.33678 0.1418 0.16661 0.0
C145 C 0.3751 0.99224 1.0436 0.0
C146 C 0.39078 0.94819 0.96412 0.0
C147 C 0.3616 0.93732 0.9953 0.0
C148 C 0.35381 0.95932 1.03499 0.0
C149 C 0.40666 1.001 1.01511 0.0
C150 C 0.41471 0.97877 0.97567 0.0
C151 C 0.35988 0.02073 0.07575 0.0
H152 H 0.44237 0.32814 0.19881 0.0
H153 H 0.43454 0.29564 0.12328 0.0
H154 H 0.3175 0.27077 0.15836 0.0
H155 H 0.32508 0.30386 0.23384 0.0
H156 H 0.34316 0.9134 0.98727 0.0
H157 H 0.32937 0.95236 1.05673 0.0
H158 H 0.42321 0.0266 1.0212 0.0
H159 H 0.43736 0.98761 0.95207 0.0
Dy160 Dy 0.08056 0.90676 0.32468 0.0
Dy161 Dy 0.17464 0.90756 0.32283 0.0
C162 C 0.13063 0.84324 0.26626 0.0
O163 O 0.09777 0.89275 0.40202 0.0
O164 O 0.16329 0.88895 0.39779 0.0
O165 O 0.03134 0.86938 0.32139 0.0
O166 O 0.02364 0.93052 0.31976 0.0
O167 O 0.15714 0.96992 0.32115 0.0
O168 O 0.09195 0.9697 0.33302 0.0
O169 O 0.15938 0.92039 0.24891 0.0
O170 O 0.09521 0.93313 0.25534 0.0
O171 O 0.2272 0.93597 0.34007 0.0
O172 O 0.22801 0.88398 0.29894 0.0
C173 C 0.1315 0.88581 0.42211 0.0
O174 O 0.09916 0.86293 0.27148 0.0
O175 O 0.16038 0.85011 0.29302 0.0
C176 C 0.98791 0.89353 0.26367 0.0
C177 C 0.95031 0.8844 0.17461 0.0
C178 C 0.95338 0.85388 0.20688 0.0
C179 C 0.97176 0.85841 0.25062 0.0
C180 C 0.98562 0.92392 0.23108 0.0
C181 C 0.967 0.91945 0.18732 0.0
C182 C 1.00862 0.8974 0.30986 0.0
C183 C 0.12431 0.98805 0.32573 0.0
C184 C 0.12705 0.93207 0.23114 0.0
C185 C 0.27661 0.89375 0.35415 0.0
C186 C 0.32066 0.87807 0.43362 0.0
C187 C 0.33153 0.90724 0.40244 0.0
C188 C 0.30953 0.91503 0.36276 0.0
C189 C 0.26785 0.8622 0.38264 0.0
C190 C 0.29008 0.85414 0.42208 0.0
C191 C 0.24812 0.90897 0.322 0.0
H192 H 0.94072 0.82647 0.19892 0.0
H193 H 0.97322 0.8343 0.27445 0.0
H194 H 0.99806 0.95135 0.23939 0.0
H195 H 0.96498 0.94377 0.16392 0.0
H196 H 0.35545 0.92567 0.41046 0.0
H197 H 0.31649 0.93948 0.34101 0.0
H198 H 0.24224 0.84564 0.37656 0.0
H199 H 0.28124 0.83149 0.44568 0.0
Dy200 Dy 0.36209 0.83056 0.57468 0.0
Dy201 Dy 0.36129 0.92465 0.57282 0.0
C202 C 0.42561 0.88063 0.51626 0.0
O203 O 0.3761 0.84777 0.65202 0.0
O204 O 0.37989 0.9133 0.64779 0.0
O205 O 0.39946 0.78134 0.57139 0.0
O206 O 0.33832 0.77364 0.56977 0.0
O207 O 0.29893 0.90715 0.57114 0.0
O208 O 0.29914 0.84196 0.58302 0.0
O209 O 0.34847 0.90938 0.49891 0.0
O210 O 0.33572 0.84521 0.50534 0.0
O211 O 0.33288 0.97721 0.59007 0.0
O212 O 0.38487 0.97802 0.54894 0.0
C213 C 0.38303 0.88151 0.67211 0.0
O214 O 0.40592 0.84916 0.52149 0.0
O215 O 0.41874 0.91038 0.54303 0.0
C216 C 0.37531 0.73791 0.51367 0.0
C217 C 0.38444 0.70031 0.42461 0.0
C218 C 0.41496 0.70338 0.45688 0.0
C219 C 0.41043 0.72176 0.50062 0.0
C220 C 0.34492 0.73562 0.48109 0.0
C221 C 0.34939 0.717 0.43733 0.0
C222 C 0.37144 0.75862 0.55986 0.0
C223 C 0.2808 0.87432 0.57573 0.0
C224 C 0.33678 0.87705 0.48114 0.0
C225 C 0.3751 0.02661 0.60414 0.0
C226 C 0.39078 0.07067 0.68362 0.0
C227 C 0.36161 0.08153 0.65244 0.0
C228 C 0.35382 0.05954 0.61275 0.0
C229 C 0.40665 0.01785 0.63263 0.0
C230 C 0.41471 0.04008 0.67208 0.0
C231 C 0.35988 0.99812 0.572 0.0
H232 H 0.44237 0.69072 0.44892 0.0
H233 H 0.43454 0.72322 0.52445 0.0
H234 H 0.31749 0.74806 0.4894 0.0
H235 H 0.32507 0.71498 0.41392 0.0
H236 H 0.34317 0.10546 0.66046 0.0
H237 H 0.32937 0.0665 0.591 0.0
H238 H 0.42321 0.99225 0.62655 0.0
H239 H 0.43736 0.03124 0.69568 0.0
Dy240 Dy 0.43829 0.11209 0.82468 0.0
Dy241 Dy 0.3442 0.11129 0.82282 0.0
C242 C 0.38822 0.17561 0.76626 0.0
O243 O 0.42108 0.12611 0.90202 0.0
O244 O 0.35555 0.12989 0.89779 0.0
O245 O 0.48751 0.14947 0.82139 0.0
O246 O 0.4952 0.08833 0.81976 0.0
O247 O 0.3617 0.04893 0.82114 0.0
O248 O 0.42689 0.04915 0.83302 0.0
O249 O 0.35947 0.09847 0.74891 0.0
O250 O 0.42364 0.08572 0.75534 0.0
O251 O 0.29164 0.08288 0.84006 0.0
O252 O 0.29083 0.13487 0.79894 0.0
C253 C 0.38734 0.13303 0.92211 0.0
O254 O 0.41969 0.15592 0.77149 0.0
O255 O 0.35847 0.16875 0.79303 0.0
C256 C 0.53094 0.12532 0.76367 0.0
C257 C 0.56853 0.13445 0.67461 0.0
C258 C 0.56547 0.16497 0.70688 0.0
C259 C 0.54709 0.16044 0.75062 0.0
C260 C 0.53322 0.09494 0.73108 0.0
C261 C 0.55184 0.09941 0.68732 0.0
C262 C 0.51023 0.12145 0.80986 0.0
C263 C 0.39453 0.0308 0.82573 0.0
C264 C 0.3918 0.08679 0.73114 0.0
C265 C 0.24224 0.1251 0.85414 0.0
C266 C 0.19818 0.14078 0.93362 0.0
C267 C 0.18732 0.1116 0.90244 0.0
C268 C 0.20931 0.10382 0.86275 0.0
C269 C 0.25099 0.15665 0.88263 0.0
C270 C 0.22876 0.16471 0.92208 0.0
C271 C 0.27073 0.10988 0.822 0.0
H272 H 0.57813 0.19238 0.69893 0.0
H273 H 0.54563 0.18455 0.77445 0.0
H274 H 0.52077 0.06751 0.73939 0.0
H275 H 0.55386 0.07508 0.66391 0.0
H276 H 0.1634 0.09317 0.91046 0.0
H277 H 0.20235 0.07937 0.84101 0.0
H278 H 0.2766 0.17321 0.87655 0.0
H279 H 0.2376 0.18736 0.94567 0.0
Dy280 Dy 0.15675 0.18829 0.07467 0.0
Dy281 Dy 0.15756 0.0942 1.07282 0.0
C282 C 0.09324 0.13821 1.01626 0.0
O283 O 0.14274 0.17108 0.15202 0.0
O284 O 0.13895 0.10555 0.14779 0.0
O285 O 0.11938 0.23751 1.07139 0.0
O286 O 0.18052 0.24521 1.06976 0.0
O287 O 0.21992 0.1117 1.07114 0.0
O288 O 0.2197 0.17689 0.08302 0.0
O289 O 0.17038 0.10946 0.99891 0.0
O290 O 0.18313 0.17364 1.00534 0.0
O291 O 0.18597 0.04164 0.09007 0.0
O292 O 0.13398 0.04083 1.04894 0.0
C293 C 0.13581 0.13734 0.17211 0.0
O294 O 0.11292 0.16969 1.02149 0.0
O295 O 0.1001 0.10846 1.04302 0.0
C296 C 0.14353 0.28094 1.01367 0.0
C297 C 0.1344 0.31854 0.92461 0.0
C298 C 0.10388 0.31547 0.95688 0.0
C299 C 0.10841 0.29708 1.00062 0.0
C300 C 0.17392 0.28322 0.98108 0.0
C301 C 0.16945 0.30185 0.93732 0.0
C302 C 0.1474 0.26023 1.05986 0.0
C303 C 0.23805 0.14453 0.07573 0.0
C304 C 0.18206 0.1418 0.98114 0.0
C305 C 0.14374 0.99224 0.10415 0.0
C306 C 0.12807 0.94818 0.18362 0.0
C307 C 0.15724 0.93732 0.15245 0.0
C308 C 0.16503 0.95931 0.11276 0.0
C309 C 0.11219 1.001 0.13263 0.0
C310 C 0.10414 0.97877 0.17208 0.0
C311 C 0.15897 0.02073 1.072 0.0
H312 H 0.07647 0.32813 0.94892 0.0
H313 H 0.0843 0.29563 1.02445 0.0
H314 H 0.20135 0.27078 0.98939 0.0
H315 H 0.19377 0.30387 0.91391 0.0
H316 H 0.17568 0.9134 0.16047 0.0
H317 H 0.18948 0.95235 0.09101 0.0
H318 H 0.09564 0.0266 0.12655 0.0
H319 H 0.08149 0.98761 0.19568 0.0
Dy320 Dy 0.8442 0.90755 0.82283 0.0
Dy321 Dy 0.93829 0.90676 0.82468 0.0
C322 C 0.89453 0.98805 0.82573 0.0
O323 O 0.85946 0.92038 0.74892 0.0
O324 O 0.92363 0.93313 0.75534 0.0
O325 O 0.79164 0.93596 0.84007 0.0
O326 O 0.79083 0.88397 0.79895 0.0
O327 O 0.91969 0.86293 0.77149 0.0
O328 O 0.85847 0.8501 0.79303 0.0
O329 O 0.92107 0.89274 0.90203 0.0
O330 O 0.85555 0.88895 0.89779 0.0
O331 O 0.9875 0.86938 0.82139 0.0
O332 O 0.9952 0.93052 0.81977 0.0
C333 C 0.89179 0.93207 0.73114 0.0
O334 O 0.8617 0.96992 0.82115 0.0
O335 O 0.92689 0.9697 0.83302 0.0
C336 C 0.74223 0.89374 0.85415 0.0
C337 C 0.69817 0.87807 0.93362 0.0
C338 C 0.68731 0.90724 0.90244 0.0
C339 C 0.70931 0.91503 0.86276 0.0
C340 C 0.75099 0.86219 0.88263 0.0
C341 C 0.72876 0.85414 0.92208 0.0
C342 C 0.77073 0.90897 0.822 0.0
C343 C 0.88821 0.84324 0.76626 0.0
C344 C 0.88734 0.88582 0.92212 0.0
C345 C 0.03094 0.89354 0.76368 0.0
C346 C 0.06854 0.8844 0.67463 0.0
C347 C 0.06548 0.85388 0.70689 0.0
C348 C 0.04709 0.85842 0.75064 0.0
C349 C 0.03321 0.92391 0.73108 0.0
C350 C 0.05184 0.91945 0.68732 0.0
C351 C 0.01022 0.8974 0.80987 0.0
H352 H 0.66339 0.92568 0.91047 0.0
H353 H 0.70235 0.93948 0.84101 0.0
H354 H 0.77659 0.84563 0.87655 0.0
H355 H 0.73759 0.83148 0.94568 0.0
H356 H 0.07815 0.82648 0.69894 0.0
H357 H 0.04564 0.83431 0.77447 0.0
H358 H 0.02076 0.95134 0.73939 0.0
H359 H 0.05385 0.94376 0.66391 0.0
Dy360 Dy 0.86129 0.0942 0.57283 0.0
Dy361 Dy 0.86209 0.18829 0.57468 0.0
C362 C 0.7808 0.14453 0.57573 0.0
O363 O 0.84846 0.10946 0.49892 0.0
O364 O 0.83572 0.17364 0.50534 0.0
O365 O 0.83288 0.04164 0.59008 0.0
O366 O 0.88486 0.04083 0.54895 0.0
O367 O 0.90592 0.16969 0.52149 0.0
O368 O 0.91874 0.10846 0.54302 0.0
O369 O 0.8761 0.17108 0.65203 0.0
O370 O 0.8799 0.10556 0.64779 0.0
O371 O 0.89947 0.23751 0.57139 0.0
O372 O 0.83832 0.24521 0.56976 0.0
C373 C 0.83678 0.1418 0.48114 0.0
O374 O 0.79893 0.1117 0.57115 0.0
O375 O 0.79914 0.17689 0.58302 0.0
C376 C 0.8751 0.99224 0.60415 0.0
C377 C 0.89078 0.94818 0.68363 0.0
C378 C 0.8616 0.93732 0.65245 0.0
C379 C 0.85381 0.95931 0.61276 0.0
C380 C 0.90665 1.001 0.63264 0.0
C381 C 0.91471 0.97877 0.67208 0.0
C382 C 0.85987 0.02073 0.57201 0.0
C383 C 0.92561 0.13822 0.51627 0.0
C384 C 0.88303 0.13735 0.67212 0.0
C385 C 0.87531 0.28094 0.51367 0.0
C386 C 0.88445 0.31854 0.42462 0.0
C387 C 0.91497 0.31547 0.45688 0.0
C388 C 0.91043 0.29709 0.50063 0.0
C389 C 0.84493 0.28322 0.48108 0.0
C390 C 0.8494 0.30185 0.43732 0.0
C391 C 0.87144 0.26023 0.55986 0.0
H392 H 0.84317 0.9134 0.66048 0.0
H393 H 0.82936 0.95235 0.59102 0.0
H394 H 0.9232 0.0266 0.62656 0.0
H395 H 0.93736 0.98761 0.69568 0.0
H396 H 0.94237 0.32813 0.44893 0.0
H397 H 0.93454 0.29563 0.52446 0.0
H398 H 0.8175 0.27078 0.48939 0.0
H399 H 0.82508 0.30387 0.41391 0.0
Dy400 Dy 0.67464 0.11129 0.32283 0.0
Dy401 Dy 0.58056 0.11209 0.32467 0.0
C402 C 0.62432 0.0308 0.32573 0.0
O403 O 0.65938 0.09846 0.24891 0.0
O404 O 0.59521 0.08572 0.25534 0.0
O405 O 0.7272 0.08288 0.34007 0.0
O406 O 0.72802 0.13487 0.29895 0.0
O407 O 0.59916 0.15592 0.27148 0.0
O408 O 0.66038 0.16875 0.29302 0.0
O409 O 0.59777 0.1261 0.40202 0.0
O410 O 0.66329 0.1299 0.39779 0.0
O411 O 0.53134 0.14947 0.32139 0.0
O412 O 0.52364 0.08833 0.31976 0.0
C413 C 0.62705 0.08678 0.23114 0.0
O414 O 0.65715 0.04893 0.32115 0.0
O415 O 0.59195 0.04915 0.33302 0.0
C416 C 0.77661 0.1251 0.35415 0.0
C417 C 0.82066 0.14078 0.43362 0.0
C418 C 0.83153 0.1116 0.40245 0.0
C419 C 0.80953 0.10381 0.36276 0.0
C420 C 0.76785 0.15666 0.38263 0.0
C421 C 0.79008 0.16471 0.42208 0.0
C422 C 0.74812 0.10988 0.322 0.0
C423 C 0.63063 0.17561 0.26626 0.0
C424 C 0.6315 0.13303 0.42212 0.0
C425 C 0.48791 0.12532 0.26367 0.0
C426 C 0.4503 0.13445 0.17462 0.0
C427 C 0.45337 0.16497 0.20689 0.0
C428 C 0.47175 0.16044 0.25063 0.0
C429 C 0.48564 0.09494 0.23107 0.0
C430 C 0.46701 0.09941 0.18732 0.0
C431 C 0.50862 0.12145 0.30986 0.0
H432 H 0.85544 0.09316 0.41048 0.0
H433 H 0.81649 0.07936 0.34102 0.0
H434 H 0.74225 0.17321 0.37655 0.0
H435 H 0.78125 0.18736 0.44567 0.0
H436 H 0.4407 0.19238 0.19894 0.0
H437 H 0.4732 0.18454 0.27447 0.0
H438 H 0.49809 0.06751 0.23938 0.0
H439 H 0.465 0.07509 0.1639 0.0
Dy440 Dy 0.65755 0.92464 1.07283 0.0
Dy441 Dy 0.65675 0.83056 0.07468 0.0
C442 C 0.73805 0.87431 0.07573 0.0
O443 O 0.67037 0.90938 0.99891 0.0
O444 O 0.68312 0.84521 1.00534 0.0
O445 O 0.68597 0.9772 0.09007 0.0
O446 O 0.63398 0.97802 1.04894 0.0
O447 O 0.61292 0.84916 1.02149 0.0
O448 O 0.6001 0.91039 1.04302 0.0
O449 O 0.64274 0.84777 0.15202 0.0
O450 O 0.63895 0.91329 0.14779 0.0
O451 O 0.61938 0.78134 1.07139 0.0
O452 O 0.68052 0.77364 1.06976 0.0
C453 C 0.68205 0.87705 0.98114 0.0
O454 O 0.71991 0.90715 1.07114 0.0
O455 O 0.7197 0.84196 0.08302 0.0
C456 C 0.64375 0.02661 0.10415 0.0
C457 C 0.62807 0.07066 0.18362 0.0
C458 C 0.65725 0.08153 0.15245 0.0
C459 C 0.66504 0.05953 0.11276 0.0
C460 C 0.61219 0.01785 0.13263 0.0
C461 C 0.60414 0.04008 0.17208 0.0
C462 C 0.65897 0.99812 1.072 0.0
C463 C 0.59323 0.88063 1.01627 0.0
C464 C 0.63582 0.8815 0.17212 0.0
C465 C 0.64353 0.73791 1.01367 0.0
C466 C 0.63439 0.70031 0.92461 0.0
C467 C 0.60387 0.70337 0.95689 0.0
C468 C 0.60841 0.72176 1.00063 0.0
C469 C 0.67391 0.73563 0.98108 0.0
C470 C 0.66944 0.71701 0.93732 0.0
C471 C 0.6474 0.75862 1.05986 0.0
H472 H 0.67568 0.10545 0.16048 0.0
H473 H 0.68948 0.06649 0.09102 0.0
H474 H 0.59564 0.99225 0.12655 0.0
H475 H 0.58148 0.03125 0.19567 0.0
H476 H 0.57647 0.69071 0.94893 0.0
H477 H 0.5843 0.72321 1.02446 0.0
H478 H 0.70134 0.74808 0.98938 0.0
H479 H 0.69376 0.71499 0.9139 0.0
Dy480 Dy 0.8442 0.11129 0.82492 0.0
Dy481 Dy 0.93828 0.11209 0.82307 0.0
C482 C 0.89453 0.0308 0.82202 0.0
O483 O 0.85946 0.09846 0.89883 0.0
O484 O 0.92363 0.08572 0.89241 0.0
O485 O 0.79164 0.08288 0.80767 0.0
O486 O 0.79083 0.13487 0.8488 0.0
O487 O 0.91968 0.15592 0.87626 0.0
O488 O 0.85846 0.16874 0.85472 0.0
O489 O 0.92107 0.1261 0.74572 0.0
O490 O 0.85555 0.1299 0.74996 0.0
O491 O 0.9875 0.14947 0.82636 0.0
O492 O 0.9952 0.08832 0.82798 0.0
C493 C 0.89179 0.08678 0.9166 0.0
O494 O 0.86169 0.04893 0.8266 0.0
O495 O 0.92689 0.04914 0.81473 0.0
C496 C 0.74223 0.1251 0.7936 0.0
C497 C 0.69817 0.14078 0.71412 0.0
C498 C 0.68731 0.11161 0.7453 0.0
C499 C 0.70931 0.10382 0.78499 0.0
C500 C 0.75099 0.15665 0.76511 0.0
C501 C 0.72876 0.16471 0.72566 0.0
C502 C 0.77072 0.10987 0.82574 0.0
C503 C 0.88821 0.17561 0.88149 0.0
C504 C 0.88734 0.13304 0.72563 0.0
C505 C 0.03093 0.12531 0.88407 0.0
C506 C 0.06854 0.13445 0.97312 0.0
C507 C 0.06548 0.16497 0.94086 0.0
C508 C 0.04709 0.16043 0.89711 0.0
C509 C 0.03321 0.09493 0.91667 0.0
C510 C 0.05184 0.0994 0.96042 0.0
C511 C 0.01022 0.12145 0.83788 0.0
H512 H 0.66339 0.09317 0.73728 0.0
H513 H 0.70235 0.07937 0.80674 0.0
H514 H 0.77659 0.17321 0.77119 0.0
H515 H 0.7376 0.18736 0.70207 0.0
H516 H 0.07814 0.19237 0.94881 0.0
H517 H 0.04564 0.18454 0.87328 0.0
H518 H 0.02076 0.06751 0.90836 0.0
H519 H 0.05385 0.07508 0.98384 0.0
Dy520 Dy 0.65755 0.0942 0.57492 0.0
Dy521 Dy 0.65675 0.18829 0.57307 0.0
C522 C 0.73805 0.14453 0.57202 0.0
O523 O 0.67037 0.10947 0.64883 0.0
O524 O 0.68312 0.17364 0.64241 0.0
O525 O 0.68597 0.04164 0.55767 0.0
O526 O 0.63398 0.04083 0.5988 0.0
O527 O 0.61292 0.16969 0.62625 0.0
O528 O 0.6001 0.10846 0.60472 0.0
O529 O 0.64275 0.17108 0.49572 0.0
O530 O 0.63895 0.10555 0.49996 0.0
O531 O 0.61938 0.23751 0.57635 0.0
O532 O 0.68052 0.24521 0.57798 0.0
C533 C 0.68205 0.1418 0.66661 0.0
O534 O 0.71991 0.1117 0.5766 0.0
O535 O 0.7197 0.17689 0.56473 0.0
C536 C 0.64375 0.99224 0.5436 0.0
C537 C 0.62807 0.94818 0.46412 0.0
C538 C 0.65724 0.93732 0.4953 0.0
C539 C 0.66503 0.95931 0.53499 0.0
C540 C 0.61219 1.001 0.51511 0.0
C541 C 0.60414 0.97877 0.47566 0.0
C542 C 0.65897 0.02073 0.57574 0.0
C543 C 0.59323 0.13822 0.63147 0.0
C544 C 0.63581 0.13735 0.47563 0.0
C545 C 0.64354 0.28094 0.63407 0.0
C546 C 0.6344 0.31854 0.72313 0.0
C547 C 0.60388 0.31547 0.69086 0.0
C548 C 0.60841 0.29709 0.64712 0.0
C549 C 0.67392 0.28323 0.66666 0.0
C550 C 0.66945 0.30185 0.71042 0.0
C551 C 0.6474 0.26023 0.58788 0.0
H552 H 0.67567 0.91339 0.48728 0.0
H553 H 0.68948 0.95235 0.55674 0.0
H554 H 0.59564 0.0266 0.52119 0.0
H555 H 0.58149 0.9876 0.45207 0.0
H556 H 0.57647 0.32813 0.69882 0.0
H557 H 0.5843 0.29563 0.62329 0.0
H558 H 0.70135 0.27079 0.65835 0.0
H559 H 0.69377 0.30388 0.73382 0.0
Dy560 Dy 0.67464 0.90756 0.32492 0.0
Dy561 Dy 0.58056 0.90676 0.32307 0.0
C562 C 0.62432 0.98805 0.32202 0.0
O563 O 0.65938 0.92038 0.39884 0.0
O564 O 0.59521 0.93313 0.39241 0.0
O565 O 0.7272 0.93597 0.30768 0.0
O566 O 0.72801 0.88398 0.3488 0.0
O567 O 0.59916 0.86293 0.37626 0.0
O568 O 0.66038 0.8501 0.35472 0.0
O569 O 0.59777 0.89274 0.24572 0.0
O570 O 0.6633 0.88895 0.24996 0.0
O571 O 0.53134 0.86938 0.32635 0.0
O572 O 0.52364 0.93052 0.32798 0.0
C573 C 0.62705 0.93206 0.41661 0.0
O574 O 0.65715 0.96992 0.32661 0.0
O575 O 0.59195 0.9697 0.31472 0.0
C576 C 0.77661 0.89375 0.2936 0.0
C577 C 0.82067 0.87807 0.21413 0.0
C578 C 0.83153 0.90725 0.2453 0.0
C579 C 0.80953 0.91503 0.28499 0.0
C580 C 0.76785 0.86219 0.26512 0.0
C581 C 0.79008 0.85414 0.22567 0.0
C582 C 0.74812 0.90897 0.32575 0.0
C583 C 0.63063 0.84324 0.38148 0.0
C584 C 0.6315 0.88582 0.22563 0.0
C585 C 0.48791 0.89354 0.38407 0.0
C586 C 0.4503 0.8844 0.47312 0.0
C587 C 0.45336 0.85388 0.44085 0.0
C588 C 0.47175 0.85842 0.39711 0.0
C589 C 0.48564 0.92391 0.41667 0.0
C590 C 0.46701 0.91944 0.46043 0.0
C591 C 0.50862 0.8974 0.33788 0.0
H592 H 0.85545 0.92568 0.23728 0.0
H593 H 0.81649 0.93948 0.30674 0.0
H594 H 0.74225 0.84564 0.2712 0.0
H595 H 0.78125 0.83149 0.20207 0.0
H596 H 0.4407 0.82648 0.4488 0.0
H597 H 0.4732 0.83431 0.37328 0.0
H598 H 0.49809 0.95134 0.40837 0.0
H599 H 0.465 0.94376 0.48384 0.0
Dy600 Dy 0.86129 0.92465 0.07492 0.0
Dy601 Dy 0.86209 0.83056 1.07307 0.0
C602 C 0.78079 0.87432 1.07202 0.0
O603 O 0.84846 0.90939 0.14884 0.0
O604 O 0.83572 0.84521 0.14241 0.0
O605 O 0.83287 0.97721 1.05768 0.0
O606 O 0.88486 0.97802 0.0988 0.0
O607 O 0.90592 0.84916 0.12625 0.0
O608 O 0.91874 0.91039 0.10473 0.0
O609 O 0.8761 0.84777 0.99572 0.0
O610 O 0.8799 0.9133 0.99996 0.0
O611 O 0.89946 0.78134 0.07636 0.0
O612 O 0.83832 0.77364 0.07799 0.0
C613 C 0.83679 0.87705 0.16661 0.0
O614 O 0.79893 0.90715 0.0766 0.0
O615 O 0.79914 0.84195 1.06473 0.0
C616 C 0.87509 0.02661 1.0436 0.0
C617 C 0.89077 0.07067 0.96412 0.0
C618 C 0.86159 0.08153 0.9953 0.0
C619 C 0.8538 0.05954 1.03498 0.0
C620 C 0.90665 0.01786 1.01512 0.0
C621 C 0.9147 0.04008 0.97567 0.0
C622 C 0.85987 0.99812 0.07574 0.0
C623 C 0.92561 0.88063 0.13148 0.0
C624 C 0.88303 0.8815 0.97564 0.0
C625 C 0.87531 0.73791 0.13408 0.0
C626 C 0.88445 0.70031 0.22314 0.0
C627 C 0.91497 0.70338 0.19087 0.0
C628 C 0.91043 0.72176 0.14712 0.0
C629 C 0.84493 0.73563 0.16667 0.0
C630 C 0.8494 0.717 0.21043 0.0
C631 C 0.87144 0.75862 0.08789 0.0
H632 H 0.84316 0.10545 0.98727 0.0
H633 H 0.82936 0.06649 1.05673 0.0
H634 H 0.9232 0.99225 1.0212 0.0
H635 H 0.93735 0.03125 0.95207 0.0
H636 H 0.94237 0.69072 0.19882 0.0
H637 H 0.93454 0.72322 0.12329 0.0
H638 H 0.8175 0.74807 0.15836 0.0
H639 H 0.82508 0.71498 0.23384 0.0
Dy640 Dy 0.58055 0.61209 0.82307 0.0
Dy641 Dy 0.67464 0.6113 0.82492 0.0
C642 C 0.63062 0.67562 0.88147 0.0
O643 O 0.59776 0.6261 0.74572 0.0
O644 O 0.66329 0.6299 0.74995 0.0
O645 O 0.53133 0.64947 0.82635 0.0
O646 O 0.52364 0.58832 0.82798 0.0
O647 O 0.65714 0.54893 0.8266 0.0
O648 O 0.59195 0.54915 0.81473 0.0
O649 O 0.65937 0.59847 0.89883 0.0
O650 O 0.5952 0.58572 0.89241 0.0
O651 O 0.7272 0.58288 0.80768 0.0
O652 O 0.72801 0.63488 0.8488 0.0
C653 C 0.6315 0.63303 0.72563 0.0
O654 O 0.59915 0.65592 0.87626 0.0
O655 O 0.66038 0.66875 0.85472 0.0
C656 C 0.4879 0.62531 0.88407 0.0
C657 C 0.4503 0.63445 0.97313 0.0
C658 C 0.45337 0.66497 0.94086 0.0
C659 C 0.47176 0.66044 0.89712 0.0
C660 C 0.48562 0.59493 0.91666 0.0
C661 C 0.46699 0.5994 0.96042 0.0
C662 C 0.50861 0.62145 0.83788 0.0
C663 C 0.62431 0.5308 0.82202 0.0
C664 C 0.62704 0.58678 0.9166 0.0
C665 C 0.7766 0.6251 0.7936 0.0
C666 C 0.82066 0.64078 0.71412 0.0
C667 C 0.83152 0.6116 0.7453 0.0
C668 C 0.80953 0.60382 0.78499 0.0
C669 C 0.76785 0.65666 0.76511 0.0
C670 C 0.79008 0.66471 0.72566 0.0
C671 C 0.74811 0.60988 0.82574 0.0
H672 H 0.44071 0.69238 0.94882 0.0
H673 H 0.47321 0.68455 0.87329 0.0
H674 H 0.49806 0.5675 0.90835 0.0
H675 H 0.46497 0.57508 0.98382 0.0
H676 H 0.85544 0.59317 0.73728 0.0
H677 H 0.81648 0.57937 0.80673 0.0
H678 H 0.74225 0.67321 0.77119 0.0
H679 H 0.78124 0.68736 0.70207 0.0
Dy680 Dy 0.65676 0.33056 1.07307 0.0
Dy681 Dy 0.65756 0.42465 0.07491 0.0
C682 C 0.59324 0.38064 0.13149 0.0
O683 O 0.64275 0.34777 0.99572 0.0
O684 O 0.63895 0.4133 0.99995 0.0
O685 O 0.61938 0.28135 0.07636 0.0
O686 O 0.68052 0.27365 0.07798 0.0
O687 O 0.71992 0.40715 0.07659 0.0
O688 O 0.7197 0.34196 1.06473 0.0
O689 O 0.67039 0.40939 0.14883 0.0
O690 O 0.68313 0.34522 0.14241 0.0
O691 O 0.68597 0.47721 1.05766 0.0
O692 O 0.63398 0.47802 0.0988 0.0
C693 C 0.63582 0.3815 0.97563 0.0
O694 O 0.61293 0.34916 0.12626 0.0
O695 O 0.6001 0.41039 0.10472 0.0
C696 C 0.64354 0.23791 0.13407 0.0
C697 C 0.6344 0.20031 0.22312 0.0
C698 C 0.60388 0.20337 0.19085 0.0
C699 C 0.60841 0.22176 0.14711 0.0
C700 C 0.67391 0.23564 0.16667 0.0
C701 C 0.66944 0.21701 0.21042 0.0
C702 C 0.6474 0.25862 0.08788 0.0
C703 C 0.73805 0.37432 1.07201 0.0
C704 C 0.68207 0.37706 0.1666 0.0
C705 C 0.64374 0.52661 1.04359 0.0
C706 C 0.62806 0.57067 0.96412 0.0
C707 C 0.65724 0.58154 0.9953 0.0
C708 C 0.66503 0.55954 1.03498 0.0
C709 C 0.61219 0.51785 1.01511 0.0
C710 C 0.60413 0.54008 0.97566 0.0
C711 C 0.65897 0.49812 0.07574 0.0
H712 H 0.57648 0.1907 0.1988 0.0
H713 H 0.58431 0.22321 0.12328 0.0
H714 H 0.70134 0.24809 0.15836 0.0
H715 H 0.69376 0.21499 0.23384 0.0
H716 H 0.67567 0.60546 0.98727 0.0
H717 H 0.68947 0.5665 1.05673 0.0
H718 H 0.59564 0.49225 1.02119 0.0
H719 H 0.58148 0.53124 0.95207 0.0
Dy720 Dy 0.93829 0.40676 0.32307 0.0
Dy721 Dy 0.8442 0.40756 0.32492 0.0
C722 C 0.88822 0.34324 0.38148 0.0
O723 O 0.92108 0.39275 0.24572 0.0
O724 O 0.85555 0.38895 0.24996 0.0
O725 O 0.98751 0.36938 0.32636 0.0
O726 O 0.99521 0.43052 0.32798 0.0
O727 O 0.8617 0.46992 0.3266 0.0
O728 O 0.92689 0.4697 0.31473 0.0
O729 O 0.85946 0.42038 0.39883 0.0
O730 O 0.92364 0.43313 0.39241 0.0
O731 O 0.79164 0.43597 0.30768 0.0
O732 O 0.79083 0.38398 0.3488 0.0
C733 C 0.88735 0.38582 0.22563 0.0
O734 O 0.91969 0.36293 0.37626 0.0
O735 O 0.85846 0.3501 0.35473 0.0
C736 C 0.03094 0.39354 0.38408 0.0
C737 C 0.06853 0.3844 0.47313 0.0
C738 C 0.06547 0.35388 0.44087 0.0
C739 C 0.04708 0.35841 0.39712 0.0
C740 C 0.03322 0.42392 0.41667 0.0
C741 C 0.05184 0.41945 0.46043 0.0
C742 C 0.01023 0.3974 0.33789 0.0
C743 C 0.89453 0.48805 0.32202 0.0
C744 C 0.8918 0.43207 0.41661 0.0
C745 C 0.74224 0.39375 0.2936 0.0
C746 C 0.69818 0.37807 0.21412 0.0
C747 C 0.68732 0.40726 0.24529 0.0
C748 C 0.70932 0.41504 0.28498 0.0
C749 C 0.75099 0.3622 0.26511 0.0
C750 C 0.72876 0.35414 0.22566 0.0
C751 C 0.77073 0.40898 0.32574 0.0
H752 H 0.07813 0.32647 0.44882 0.0
H753 H 0.04563 0.3343 0.37329 0.0
H754 H 0.02078 0.45135 0.40836 0.0
H755 H 0.05386 0.44377 0.48384 0.0
H756 H 0.6634 0.42569 0.23726 0.0
H757 H 0.70236 0.43949 0.30673 0.0
H758 H 0.77659 0.34564 0.2712 0.0
H759 H 0.7376 0.33149 0.20207 0.0
Dy760 Dy 0.86209 0.68829 0.57307 0.0
Dy761 Dy 0.86129 0.5942 0.57492 0.0
C762 C 0.92561 0.63822 0.63148 0.0
O763 O 0.8761 0.67108 0.49572 0.0
O764 O 0.87989 0.60555 0.49995 0.0
O765 O 0.89946 0.73751 0.57635 0.0
O766 O 0.83832 0.7452 0.57798 0.0
O767 O 0.79893 0.6117 0.5766 0.0
O768 O 0.79914 0.67689 0.56472 0.0
O769 O 0.84846 0.60946 0.64883 0.0
O770 O 0.83572 0.67364 0.64241 0.0
O771 O 0.83288 0.54164 0.55768 0.0
O772 O 0.88487 0.54083 0.5988 0.0
C773 C 0.88303 0.63734 0.47563 0.0
O774 O 0.90592 0.66969 0.62626 0.0
O775 O 0.91874 0.60847 0.60472 0.0
C776 C 0.87531 0.78094 0.63407 0.0
C777 C 0.88445 0.81854 0.72312 0.0
C778 C 0.91496 0.81548 0.69085 0.0
C779 C 0.91043 0.7971 0.64711 0.0
C780 C 0.84493 0.78321 0.66667 0.0
C781 C 0.8494 0.80184 0.71043 0.0
C782 C 0.87144 0.76023 0.58788 0.0
C783 C 0.78079 0.64453 0.57202 0.0
C784 C 0.83678 0.6418 0.66661 0.0
C785 C 0.8751 0.49224 0.5436 0.0
C786 C 0.89078 0.44818 0.46413 0.0
C787 C 0.8616 0.43732 0.4953 0.0
C788 C 0.85381 0.45931 0.53499 0.0
C789 C 0.90665 0.50099 0.51512 0.0
C790 C 0.91471 0.47876 0.47567 0.0
C791 C 0.85987 0.52073 0.57574 0.0
H792 H 0.94237 0.82815 0.6988 0.0
H793 H 0.93453 0.79565 0.62327 0.0
H794 H 0.81751 0.77076 0.65837 0.0
H795 H 0.82509 0.80385 0.73385 0.0
H796 H 0.84317 0.4134 0.48727 0.0
H797 H 0.82936 0.45236 0.55673 0.0
H798 H 0.92321 0.5266 0.5212 0.0
H799 H 0.93736 0.4876 0.45207 0.0
Dy800 Dy 0.58056 0.40676 0.82468 0.0
Dy801 Dy 0.67464 0.40756 0.82283 0.0
C802 C 0.63063 0.34324 0.76627 0.0
O803 O 0.59777 0.39275 0.90203 0.0
O804 O 0.66329 0.38895 0.89779 0.0
O805 O 0.53134 0.36938 0.82139 0.0
O806 O 0.52364 0.43052 0.81976 0.0
O807 O 0.65715 0.46992 0.82115 0.0
O808 O 0.59195 0.4697 0.83301 0.0
O809 O 0.65938 0.42039 0.74891 0.0
O810 O 0.59521 0.43312 0.75534 0.0
O811 O 0.7272 0.43598 0.84008 0.0
O812 O 0.72802 0.38399 0.79894 0.0
C813 C 0.6315 0.38581 0.92211 0.0
O814 O 0.59916 0.36292 0.77149 0.0
O815 O 0.66039 0.35011 0.79302 0.0
C816 C 0.48791 0.39354 0.76367 0.0
C817 C 0.45031 0.3844 0.67461 0.0
C818 C 0.45338 0.35388 0.70688 0.0
C819 C 0.47176 0.35841 0.75062 0.0
C820 C 0.48562 0.42392 0.73108 0.0
C821 C 0.467 0.41945 0.68732 0.0
C822 C 0.50862 0.3974 0.80986 0.0
C823 C 0.62431 0.48805 0.82573 0.0
C824 C 0.62705 0.43207 0.73114 0.0
C825 C 0.77661 0.39376 0.85415 0.0
C826 C 0.82067 0.37807 0.93362 0.0
C827 C 0.83153 0.40725 0.90245 0.0
C828 C 0.80954 0.41504 0.86276 0.0
C829 C 0.76785 0.3622 0.88264 0.0
C830 C 0.79008 0.35415 0.92208 0.0
C831 C 0.74812 0.40898 0.82201 0.0
H832 H 0.44072 0.32647 0.69892 0.0
H833 H 0.47322 0.3343 0.77445 0.0
H834 H 0.49806 0.45135 0.73939 0.0
H835 H 0.46498 0.44377 0.66392 0.0
H836 H 0.85546 0.42568 0.91047 0.0
H837 H 0.8165 0.43948 0.84101 0.0
H838 H 0.74225 0.34565 0.87656 0.0
H839 H 0.78124 0.3315 0.94568 0.0
Dy840 Dy 0.86209 0.33056 0.07468 0.0
Dy841 Dy 0.86129 0.42465 1.07283 0.0
C842 C 0.92561 0.38063 1.01626 0.0
O843 O 0.8761 0.34777 0.15203 0.0
O844 O 0.8799 0.4133 0.14779 0.0
O845 O 0.89946 0.28134 1.07139 0.0
O846 O 0.83832 0.27365 1.06977 0.0
O847 O 0.79893 0.40715 1.07114 0.0
O848 O 0.79914 0.34196 0.08302 0.0
O849 O 0.84847 0.40939 0.99891 0.0
O850 O 0.83572 0.34521 1.00534 0.0
O851 O 0.83288 0.47721 0.09007 0.0
O852 O 0.88487 0.47802 1.04895 0.0
C853 C 0.88303 0.38151 0.17211 0.0
O854 O 0.90592 0.34916 1.02149 0.0
O855 O 0.91875 0.41038 1.04303 0.0
C856 C 0.87531 0.23791 1.01368 0.0
C857 C 0.88444 0.2003 0.92463 0.0
C858 C 0.91496 0.20337 0.95689 0.0
C859 C 0.91043 0.22175 1.00063 0.0
C860 C 0.84493 0.23563 0.98108 0.0
C861 C 0.8494 0.21701 0.93732 0.0
C862 C 0.87144 0.25862 1.05987 0.0
C863 C 0.7808 0.37432 0.07573 0.0
C864 C 0.83679 0.37705 0.98114 0.0
C865 C 0.8751 0.52661 0.10414 0.0
C866 C 0.89078 0.57067 0.18362 0.0
C867 C 0.8616 0.58154 0.15244 0.0
C868 C 0.85382 0.55954 0.11276 0.0
C869 C 0.90666 0.51786 0.13263 0.0
C870 C 0.91471 0.54009 0.17208 0.0
C871 C 0.85988 0.49812 1.072 0.0
H872 H 0.94237 0.1907 0.94894 0.0
H873 H 0.93454 0.22321 1.02447 0.0
H874 H 0.8175 0.24808 0.98939 0.0
H875 H 0.82508 0.21499 0.91391 0.0
H876 H 0.84317 0.60546 0.16046 0.0
H877 H 0.82937 0.5665 0.09101 0.0
H878 H 0.92321 0.49226 0.12655 0.0
H879 H 0.93736 0.53125 0.19567 0.0
Dy880 Dy 0.93829 0.61209 0.32468 0.0
Dy881 Dy 0.8442 0.61129 0.32282 0.0
C882 C 0.88821 0.67562 0.26627 0.0
O883 O 0.92107 0.6261 0.40203 0.0
O884 O 0.85555 0.6299 0.39779 0.0
O885 O 0.98751 0.64947 0.32139 0.0
O886 O 0.9952 0.58833 0.31976 0.0
O887 O 0.8617 0.54893 0.32114 0.0
O888 O 0.92689 0.54915 0.33302 0.0
O889 O 0.85946 0.59847 0.24891 0.0
O890 O 0.92364 0.58573 0.25534 0.0
O891 O 0.79164 0.58288 0.34007 0.0
O892 O 0.79083 0.63487 0.29894 0.0
C893 C 0.88734 0.63303 0.42211 0.0
O894 O 0.91969 0.65593 0.27149 0.0
O895 O 0.85846 0.66875 0.29302 0.0
C896 C 0.03094 0.62532 0.26367 0.0
C897 C 0.06853 0.63445 0.17461 0.0
C898 C 0.06547 0.66497 0.20688 0.0
C899 C 0.04708 0.66044 0.25062 0.0
C900 C 0.03322 0.59493 0.23108 0.0
C901 C 0.05184 0.5994 0.18732 0.0
C902 C 0.01023 0.62145 0.30986 0.0
C903 C 0.89453 0.5308 0.32573 0.0
C904 C 0.8918 0.58679 0.23114 0.0
C905 C 0.74223 0.6251 0.35414 0.0
C906 C 0.69818 0.64077 0.43362 0.0
C907 C 0.68731 0.6116 0.40244 0.0
C908 C 0.70931 0.60381 0.36276 0.0
C909 C 0.75099 0.65665 0.38263 0.0
C910 C 0.72876 0.6647 0.42208 0.0
C911 C 0.77073 0.60987 0.322 0.0
H912 H 0.07813 0.69238 0.19892 0.0
H913 H 0.04563 0.68455 0.27445 0.0
H914 H 0.02077 0.56751 0.23939 0.0
H915 H 0.05386 0.57508 0.16391 0.0
H916 H 0.66339 0.59316 0.41047 0.0
H917 H 0.70235 0.57936 0.34101 0.0
H918 H 0.77659 0.6732 0.37655 0.0
H919 H 0.7376 0.68736 0.44567 0.0
Dy920 Dy 0.65675 0.68829 0.57467 0.0
Dy921 Dy 0.65755 0.5942 0.57282 0.0
C922 C 0.59323 0.63821 0.51626 0.0
O923 O 0.64274 0.67108 0.65202 0.0
O924 O 0.63894 0.60555 0.64779 0.0
O925 O 0.61938 0.73751 0.57139 0.0
O926 O 0.68052 0.7452 0.56976 0.0
O927 O 0.71991 0.6117 0.57114 0.0
O928 O 0.7197 0.67689 0.58302 0.0
O929 O 0.67038 0.60946 0.49891 0.0
O930 O 0.68312 0.67363 0.50534 0.0
O931 O 0.68596 0.54164 0.59007 0.0
O932 O 0.63397 0.54083 0.54894 0.0
C933 C 0.63581 0.63734 0.67211 0.0
O934 O 0.61292 0.66969 0.52149 0.0
O935 O 0.6001 0.60846 0.54302 0.0
C936 C 0.64353 0.78094 0.51367 0.0
C937 C 0.6344 0.81854 0.42462 0.0
C938 C 0.60388 0.81548 0.45689 0.0
C939 C 0.60841 0.79709 0.50063 0.0
C940 C 0.67391 0.78321 0.48107 0.0
C941 C 0.66944 0.80184 0.43731 0.0
C942 C 0.6474 0.76023 0.55986 0.0
C943 C 0.73805 0.64453 0.57573 0.0
C944 C 0.68206 0.64179 0.48114 0.0
C945 C 0.64374 0.49223 0.60414 0.0
C946 C 0.62807 0.44818 0.68362 0.0
C947 C 0.65725 0.43732 0.65245 0.0
C948 C 0.66503 0.45931 0.61276 0.0
C949 C 0.61219 0.50099 0.63263 0.0
C950 C 0.60413 0.47876 0.67208 0.0
C951 C 0.65897 0.52073 0.572 0.0
H952 H 0.57647 0.82815 0.44894 0.0
H953 H 0.58431 0.79564 0.52446 0.0
H954 H 0.70134 0.77076 0.48938 0.0
H955 H 0.69376 0.80385 0.4139 0.0
H956 H 0.67568 0.4134 0.66048 0.0
H957 H 0.68948 0.45235 0.59101 0.0
H958 H 0.59563 0.52659 0.62655 0.0
H959 H 0.58148 0.4876 0.69567 0.0
Dy960 Dy 0.3442 0.40755 0.32283 0.0
Dy961 Dy 0.43829 0.40676 0.32468 0.0
C962 C 0.39453 0.48805 0.32573 0.0
O963 O 0.35946 0.42038 0.24891 0.0
O964 O 0.42364 0.43313 0.25534 0.0
O965 O 0.29164 0.43597 0.34007 0.0
O966 O 0.29083 0.38398 0.29895 0.0
O967 O 0.41969 0.36292 0.27149 0.0
O968 O 0.35846 0.3501 0.29302 0.0
O969 O 0.42108 0.39275 0.40203 0.0
O970 O 0.35555 0.38895 0.39779 0.0
O971 O 0.48751 0.36938 0.32139 0.0
O972 O 0.4952 0.43053 0.31977 0.0
C973 C 0.39179 0.43207 0.23114 0.0
O974 O 0.3617 0.46992 0.32115 0.0
O975 O 0.42689 0.4697 0.33302 0.0
C976 C 0.24223 0.39375 0.35415 0.0
C977 C 0.19818 0.37807 0.43362 0.0
C978 C 0.18731 0.40725 0.40245 0.0
C979 C 0.20931 0.41503 0.36276 0.0
C980 C 0.25099 0.36219 0.38263 0.0
C981 C 0.22876 0.35414 0.42208 0.0
C982 C 0.27073 0.40897 0.322 0.0
C983 C 0.38822 0.34323 0.26627 0.0
C984 C 0.38734 0.38582 0.42212 0.0
C985 C 0.53094 0.39354 0.26368 0.0
C986 C 0.56854 0.38441 0.17463 0.0
C987 C 0.56548 0.35388 0.20689 0.0
C988 C 0.54709 0.35842 0.25063 0.0
C989 C 0.53322 0.42392 0.23108 0.0
C990 C 0.55184 0.41945 0.18732 0.0
C991 C 0.51023 0.39741 0.30986 0.0
H992 H 0.1634 0.42568 0.41047 0.0
H993 H 0.20236 0.43948 0.34101 0.0
H994 H 0.27659 0.34564 0.37655 0.0
H995 H 0.23759 0.33149 0.44567 0.0
H996 H 0.57814 0.32648 0.19894 0.0
H997 H 0.54564 0.33431 0.27446 0.0
H998 H 0.52077 0.45135 0.23939 0.0
H999 H 0.55386 0.44377 0.16391 0.0
Dy1000 Dy 0.36129 0.5942 1.07283 0.0
Dy1001 Dy 0.36209 0.68829 0.07468 0.0
C1002 C 0.28079 0.64453 0.07573 0.0
O1003 O 0.34846 0.60946 0.99892 0.0
O1004 O 0.33572 0.67364 1.00534 0.0
O1005 O 0.33287 0.54164 0.09008 0.0
O1006 O 0.38486 0.54083 1.04895 0.0
O1007 O 0.40592 0.66969 1.02149 0.0
O1008 O 0.41874 0.60846 1.04302 0.0
O1009 O 0.37609 0.67108 0.15203 0.0
O1010 O 0.3799 0.60555 0.14779 0.0
O1011 O 0.39946 0.73751 1.07139 0.0
O1012 O 0.33832 0.7452 1.06976 0.0
C1013 C 0.33677 0.64179 0.98114 0.0
O1014 O 0.29892 0.6117 1.07115 0.0
O1015 O 0.29914 0.67689 0.08301 0.0
C1016 C 0.37509 0.49223 0.10415 0.0
C1017 C 0.39078 0.44818 0.18362 0.0
C1018 C 0.3616 0.43731 0.15245 0.0
C1019 C 0.35381 0.45931 0.11276 0.0
C1020 C 0.40665 0.50099 0.13264 0.0
C1021 C 0.41471 0.47876 0.17208 0.0
C1022 C 0.35987 0.52073 1.07201 0.0
C1023 C 0.42561 0.63821 1.01627 0.0
C1024 C 0.38303 0.63735 0.17212 0.0
C1025 C 0.37531 0.78094 1.01367 0.0
C1026 C 0.38444 0.81855 0.92462 0.0
C1027 C 0.41496 0.81548 0.95689 0.0
C1028 C 0.41043 0.79709 1.00063 0.0
C1029 C 0.34493 0.78321 0.98108 0.0
C1030 C 0.3494 0.80184 0.93732 0.0
C1031 C 0.37144 0.76023 1.05986 0.0
H1032 H 0.34317 0.41339 0.16048 0.0
H1033 H 0.32936 0.45235 0.09102 0.0
H1034 H 0.4232 0.5266 0.12655 0.0
H1035 H 0.43736 0.4876 0.19568 0.0
H1036 H 0.44237 0.82815 0.94894 0.0
H1037 H 0.43454 0.79564 1.02447 0.0
H1038 H 0.3175 0.77076 0.98938 0.0
H1039 H 0.32508 0.80386 0.91391 0.0
Dy1040 Dy 0.17464 0.61129 0.82283 0.0
Dy1041 Dy 0.08056 0.61209 0.82467 0.0
C1042 C 0.12432 0.5308 0.82573 0.0
O1043 O 0.15938 0.59847 0.74891 0.0
O1044 O 0.09521 0.58572 0.75534 0.0
O1045 O 0.2272 0.58288 0.84007 0.0
O1046 O 0.22802 0.63487 0.79895 0.0
O1047 O 0.09916 0.65592 0.77149 0.0
O1048 O 0.16038 0.66875 0.79302 0.0
O1049 O 0.09777 0.6261 0.90202 0.0
O1050 O 0.16329 0.6299 0.89779 0.0
O1051 O 0.03134 0.64947 0.82139 0.0
O1052 O 0.02364 0.58832 0.81976 0.0
C1053 C 0.12705 0.58678 0.73114 0.0
O1054 O 0.15715 0.54893 0.82115 0.0
O1055 O 0.09195 0.54915 0.83302 0.0
C1056 C 0.27661 0.6251 0.85415 0.0
C1057 C 0.32066 0.64078 0.93362 0.0
C1058 C 0.33153 0.61159 0.90245 0.0
C1059 C 0.30953 0.60381 0.86276 0.0
C1060 C 0.26785 0.65665 0.88263 0.0
C1061 C 0.29008 0.66471 0.92208 0.0
C1062 C 0.24812 0.60987 0.822 0.0
C1063 C 0.13063 0.67561 0.76627 0.0
C1064 C 0.1315 0.63303 0.92212 0.0
C1065 C 0.98791 0.62531 0.76367 0.0
C1066 C 0.9503 0.63445 0.67462 0.0
C1067 C 0.95336 0.66497 0.70689 0.0
C1068 C 0.97175 0.66043 0.75063 0.0
C1069 C 0.98563 0.59493 0.73107 0.0
C1070 C 0.967 0.5994 0.68732 0.0
C1071 C 1.00862 0.62144 0.80986 0.0
H1072 H 0.35544 0.59316 0.91048 0.0
H1073 H 0.31649 0.57936 0.84102 0.0
H1074 H 0.24225 0.67321 0.87655 0.0
H1075 H 0.28125 0.68736 0.94567 0.0
H1076 H 0.9407 0.69237 0.69894 0.0
H1077 H 0.9732 0.68454 0.77446 0.0
H1078 H 0.99808 0.56751 0.73938 0.0
H1079 H 0.96499 0.57509 0.6639 0.0
Dy1080 Dy 0.15755 0.42465 0.57283 0.0
Dy1081 Dy 0.15675 0.33056 0.57468 0.0
C1082 C 0.23805 0.37432 0.57573 0.0
O1083 O 0.17038 0.40938 0.49891 0.0
O1084 O 0.18312 0.34521 0.50534 0.0
O1085 O 0.18597 0.47721 0.59007 0.0
O1086 O 0.13398 0.47802 0.54894 0.0
O1087 O 0.11292 0.34916 0.52149 0.0
O1088 O 0.1001 0.41039 0.54302 0.0
O1089 O 0.14275 0.34777 0.65203 0.0
O1090 O 0.13895 0.4133 0.64779 0.0
O1091 O 0.11938 0.28134 0.57139 0.0
O1092 O 0.18052 0.27364 0.56976 0.0
C1093 C 0.18206 0.37705 0.48114 0.0
O1094 O 0.21992 0.40715 0.57114 0.0
O1095 O 0.2197 0.34196 0.58302 0.0
C1096 C 0.14375 0.52661 0.60415 0.0
C1097 C 0.12807 0.57067 0.68362 0.0
C1098 C 0.15725 0.58153 0.65245 0.0
C1099 C 0.16504 0.55954 0.61276 0.0
C1100 C 0.11219 0.51786 0.63263 0.0
C1101 C 0.10414 0.54009 0.67208 0.0
C1102 C 0.15897 0.49812 0.572 0.0
C1103 C 0.09323 0.38063 0.51627 0.0
C1104 C 0.13582 0.3815 0.67212 0.0
C1105 C 0.14353 0.23791 0.51367 0.0
C1106 C 0.1344 0.20031 0.42462 0.0
C1107 C 0.10388 0.20336 0.4569 0.0
C1108 C 0.10841 0.22175 0.50064 0.0
C1109 C 0.17391 0.23564 0.48107 0.0
C1110 C 0.16944 0.21701 0.43732 0.0
C1111 C 0.1474 0.25862 0.55986 0.0
H1112 H 0.17568 0.60545 0.66048 0.0
H1113 H 0.18949 0.56649 0.59102 0.0
H1114 H 0.09564 0.49226 0.62655 0.0
H1115 H 0.08148 0.53125 0.69567 0.0
H1116 H 0.07647 0.1907 0.44895 0.0
H1117 H 0.08431 0.2232 0.52447 0.0
H1118 H 0.20134 0.24809 0.48938 0.0
H1119 H 0.19376 0.215 0.4139 0.0
Dy1120 Dy 0.3442 0.61129 0.32492 0.0
Dy1121 Dy 0.43828 0.61209 0.32307 0.0
C1122 C 0.39453 0.5308 0.32202 0.0
O1123 O 0.35946 0.59847 0.39883 0.0
O1124 O 0.42363 0.58573 0.39241 0.0
O1125 O 0.29164 0.58288 0.30766 0.0
O1126 O 0.29082 0.63486 0.3488 0.0
O1127 O 0.41968 0.65593 0.37625 0.0
O1128 O 0.35845 0.66874 0.35473 0.0
O1129 O 0.42107 0.6261 0.24572 0.0
O1130 O 0.35555 0.62991 0.24996 0.0
O1131 O 0.4875 0.64947 0.32635 0.0
O1132 O 0.4952 0.58833 0.32798 0.0
C1133 C 0.39179 0.58678 0.4166 0.0
O1134 O 0.36169 0.54893 0.3266 0.0
O1135 O 0.42689 0.54915 0.31473 0.0
C1136 C 0.24223 0.6251 0.29359 0.0
C1137 C 0.19817 0.64078 0.21412 0.0
C1138 C 0.18731 0.6116 0.2453 0.0
C1139 C 0.2093 0.60381 0.28498 0.0
C1140 C 0.25099 0.65665 0.26511 0.0
C1141 C 0.22876 0.66471 0.22566 0.0
C1142 C 0.27072 0.60987 0.32574 0.0
C1143 C 0.38821 0.67561 0.38148 0.0
C1144 C 0.38734 0.63304 0.22563 0.0
C1145 C 0.53093 0.62531 0.38407 0.0
C1146 C 0.56854 0.63445 0.47312 0.0
C1147 C 0.56547 0.66497 0.44086 0.0
C1148 C 0.54709 0.66043 0.39711 0.0
C1149 C 0.53321 0.59493 0.41667 0.0
C1150 C 0.55184 0.5994 0.46042 0.0
C1151 C 0.51022 0.62145 0.33788 0.0
H1152 H 0.16338 0.59317 0.23728 0.0
H1153 H 0.20234 0.57937 0.30673 0.0
H1154 H 0.27659 0.6732 0.27119 0.0
H1155 H 0.23759 0.68736 0.20207 0.0
H1156 H 0.57814 0.69237 0.44881 0.0
H1157 H 0.54564 0.68454 0.37328 0.0
H1158 H 0.52076 0.56751 0.40836 0.0
H1159 H 0.55385 0.57508 0.48384 0.0
Dy1160 Dy 0.15755 0.5942 0.07492 0.0
Dy1161 Dy 0.15675 0.68829 1.07307 0.0
C1162 C 0.23804 0.64453 1.07202 0.0
O1163 O 0.17037 0.60947 0.14883 0.0
O1164 O 0.18312 0.67364 0.14241 0.0
O1165 O 0.18596 0.54164 1.05767 0.0
O1166 O 0.13397 0.54083 0.0988 0.0
O1167 O 0.11292 0.66969 0.12625 0.0
O1168 O 0.1001 0.60846 0.10472 0.0
O1169 O 0.14274 0.67108 0.99572 0.0
O1170 O 0.13894 0.60555 0.99996 0.0
O1171 O 0.11938 0.73751 0.07635 0.0
O1172 O 0.18052 0.7452 0.07798 0.0
C1173 C 0.18205 0.6418 0.16661 0.0
O1174 O 0.21991 0.6117 0.0766 0.0
O1175 O 0.2197 0.67689 1.06473 0.0
C1176 C 0.14374 0.49223 1.0436 0.0
C1177 C 0.12807 0.44818 0.96412 0.0
C1178 C 0.15724 0.43731 0.9953 0.0
C1179 C 0.16503 0.45931 1.03499 0.0
C1180 C 0.11219 0.50099 1.01511 0.0
C1181 C 0.10414 0.47876 0.97567 0.0
C1182 C 0.15897 0.52073 0.07574 0.0
C1183 C 0.09323 0.63822 0.13147 0.0
C1184 C 0.13581 0.63734 0.97563 0.0
C1185 C 0.14353 0.78094 0.13407 0.0
C1186 C 0.1344 0.81855 0.22312 0.0
C1187 C 0.10388 0.81548 0.19085 0.0
C1188 C 0.10841 0.7971 0.14711 0.0
C1189 C 0.17391 0.78322 0.16666 0.0
C1190 C 0.16944 0.80184 0.21042 0.0
C1191 C 0.1474 0.76023 0.08788 0.0
H1192 H 0.17568 0.41339 0.98728 0.0
H1193 H 0.18948 0.45235 1.05673 0.0
H1194 H 0.09564 0.52659 1.02119 0.0
H1195 H 0.08148 0.4876 0.95207 0.0
H1196 H 0.07647 0.82815 0.1988 0.0
H1197 H 0.08431 0.79564 0.12328 0.0
H1198 H 0.20134 0.77077 0.15836 0.0
H1199 H 0.19376 0.80386 0.23384 0.0
Dy1200 Dy 0.17465 0.40756 0.82492 0.0
Dy1201 Dy 0.08056 0.40675 0.82307 0.0
C1202 C 0.12431 0.48805 0.82202 0.0
O1203 O 0.15938 0.42038 0.89884 0.0
O1204 O 0.09521 0.43312 0.89241 0.0
O1205 O 0.22721 0.43597 0.80767 0.0
O1206 O 0.22802 0.38398 0.8488 0.0
O1207 O 0.09916 0.36292 0.87625 0.0
O1208 O 0.16039 0.3501 0.85472 0.0
O1209 O 0.09777 0.39275 0.74572 0.0
O1210 O 0.1633 0.38895 0.74996 0.0
O1211 O 0.03134 0.36938 0.82635 0.0
O1212 O 0.02364 0.43052 0.82798 0.0
C1213 C 0.12705 0.43206 0.91661 0.0
O1214 O 0.15715 0.46992 0.8266 0.0
O1215 O 0.09196 0.4697 0.81473 0.0
C1216 C 0.27661 0.39375 0.7936 0.0
C1217 C 0.32067 0.37807 0.71412 0.0
C1218 C 0.33153 0.40725 0.7453 0.0
C1219 C 0.30953 0.41504 0.78499 0.0
C1220 C 0.26786 0.3622 0.76511 0.0
C1221 C 0.29009 0.35414 0.72567 0.0
C1222 C 0.24812 0.40898 0.82574 0.0
C1223 C 0.13063 0.34323 0.88147 0.0
C1224 C 0.1315 0.38581 0.72563 0.0
C1225 C 0.98791 0.39354 0.88407 0.0
C1226 C 0.95031 0.3844 0.97312 0.0
C1227 C 0.95336 0.35388 0.94085 0.0
C1228 C 0.97175 0.35842 0.89711 0.0
C1229 C 0.98564 0.42391 0.91667 0.0
C1230 C 0.96701 0.41944 0.96043 0.0
C1231 C 1.00862 0.3974 0.83788 0.0
H1232 H 0.35545 0.42569 0.73728 0.0
H1233 H 0.31649 0.43949 0.80673 0.0
H1234 H 0.24225 0.34564 0.7712 0.0
H1235 H 0.28125 0.33149 0.70207 0.0
H1236 H 0.9407 0.32648 0.9488 0.0
H1237 H 0.9732 0.33431 0.87328 0.0
H1238 H 0.99809 0.45134 0.90837 0.0
H1239 H 0.965 0.44376 0.98384 0.0
Dy1240 Dy 0.36129 0.42465 0.57492 0.0
Dy1241 Dy 0.36209 0.33056 0.57307 0.0
C1242 C 0.2808 0.37432 0.57202 0.0
O1243 O 0.34847 0.40939 0.64884 0.0
O1244 O 0.33572 0.34522 0.64241 0.0
O1245 O 0.33287 0.47721 0.55767 0.0
O1246 O 0.38486 0.47802 0.5988 0.0
O1247 O 0.40593 0.34916 0.62625 0.0
O1248 O 0.41874 0.41039 0.60473 0.0
O1249 O 0.3761 0.34777 0.49572 0.0
O1250 O 0.3799 0.4133 0.49996 0.0
O1251 O 0.39946 0.28134 0.57635 0.0
O1252 O 0.33832 0.27365 0.57798 0.0
C1253 C 0.33679 0.37705 0.66661 0.0
O1254 O 0.29893 0.40715 0.5766 0.0
O1255 O 0.29914 0.34196 0.56473 0.0
C1256 C 0.37509 0.52662 0.5436 0.0
C1257 C 0.39077 0.57067 0.46412 0.0
C1258 C 0.36159 0.58153 0.4953 0.0
C1259 C 0.3538 0.55954 0.53498 0.0
C1260 C 0.40665 0.51786 0.51512 0.0
C1261 C 0.4147 0.54009 0.47567 0.0
C1262 C 0.35987 0.49812 0.57574 0.0
C1263 C 0.42561 0.38064 0.63147 0.0
C1264 C 0.38303 0.38151 0.47564 0.0
C1265 C 0.37531 0.23791 0.63407 0.0
C1266 C 0.38445 0.20031 0.72312 0.0
C1267 C 0.41497 0.20337 0.69085 0.0
C1268 C 0.41043 0.22176 0.64711 0.0
C1269 C 0.34493 0.23564 0.66667 0.0
C1270 C 0.3494 0.21701 0.71043 0.0
C1271 C 0.37144 0.25862 0.58788 0.0
H1272 H 0.34316 0.60545 0.48727 0.0
H1273 H 0.32935 0.5665 0.55673 0.0
H1274 H 0.42321 0.49226 0.5212 0.0
H1275 H 0.43736 0.53125 0.45207 0.0
H1276 H 0.44237 0.1907 0.6988 0.0
H1277 H 0.43454 0.22321 0.62328 0.0
H1278 H 0.31751 0.24809 0.65837 0.0
H1279 H 0.32509 0.215 0.73384 0.0
loop_
_geom_bond_atom_site_label_1
_geom_bond_atom_site_label_2
_geom_bond_distance
_geom_bond_site_symmetry_2
_ccdc_geom_bond_type
Dy0 O3 2.307 . S
Dy0 O5 2.395 . S
Dy0 O6 2.379 . S
Dy0 O8 2.339 . S
Dy0 O10 2.298 . S
Dy0 O14 2.275 . S
Dy0 C22 2.738 . S
Dy1 O4 2.298 . S
Dy1 O7 2.275 . S
Dy1 O9 2.307 . S
Dy1 O11 2.395 . S
Dy1 O12 2.379 . S
Dy1 O15 2.339 . S
Dy1 C31 2.738 . S
C2 O14 1.254 . S
C2 O15 1.257 . S
O3 Dy0 2.307 . S
O3 C13 1.266 . S
O4 Dy1 2.298 . S
O4 C13 1.236 . S
O5 Dy0 2.395 . S
O5 C22 1.255 . S
O6 Dy0 2.379 . S
O6 C22 1.249 . S
O7 Dy1 2.275 . S
O7 C23 1.254 . S
O8 Dy0 2.339 . S
O8 C23 1.257 . S
O9 Dy1 2.307 . S
O9 C24 1.266 . S
O10 Dy0 2.298 . S
O10 C24 1.236 . S
O11 Dy1 2.395 . S
O11 C31 1.255 . S
O12 Dy1 2.379 . S
O12 C31 1.249 . S
C13 O3 1.266 . S
C13 O4 1.236 . S
O14 Dy0 2.275 . S
O14 C2 1.254 . S
O15 Dy1 2.339 . S
O15 C2 1.257 . S
C16 C19 1.344 . S
C16 C20 1.328 . S
C16 C22 1.516 1_655 S
C17 C18 1.304 . S
C17 C21 1.323 . S
C18 C17 1.304 . S
C18 C19 1.371 . S
C18 H32 0.930 . S
C19 C16 1.344 . S
C19 C18 1.371 . S
C19 H33 0.931 1_655 S
C20 C16 1.328 . S
C20 C21 1.433 . S
C20 H34 0.931 . S
C21 C17 1.323 . S
C21 C20 1.433 . S
C21 H35 0.933 . S
C22 Dy0 2.738 . S
C22 O5 1.255 . S
C22 O6 1.249 . S
C22 C16 1.516 1_455 S
C23 O7 1.254 . S
C23 O8 1.257 . S
C24 O9 1.266 . S
C24 O10 1.236 . S
C25 C28 1.344 . S
C25 C29 1.328 . S
C25 C31 1.516 . S
C26 C27 1.304 . S
C26 C30 1.323 . S
C27 C26 1.304 . S
C27 C28 1.371 . S
C27 H36 0.930 . S
C28 C25 1.344 . S
C28 C27 1.371 . S
C28 H37 0.931 . S
C29 C25 1.328 . S
C29 C30 1.433 . S
C29 H38 0.931 . S
C30 C26 1.323 . S
C30 C29 1.433 . S
C30 H39 0.933 . S
C31 Dy1 2.738 . S
C31 O11 1.255 . S
C31 O12 1.249 . S
C31 C25 1.516 . S
H32 C18 0.930 . S
H33 C19 0.931 1_455 S
H34 C20 0.931 . S
H35 C21 0.933 . S
H36 C27 0.930 . S
H37 C28 0.931 . S
H38 C29 0.931 . S
H39 C30 0.933 . S
Dy40 O43 2.307 . S
Dy40 O45 2.395 . S
Dy40 O46 2.379 . S
Dy40 O48 2.339 . S
Dy40 O50 2.298 . S
Dy40 O54 2.275 . S
Dy40 C62 2.738 . S
Dy41 O44 2.298 . S
Dy41 O47 2.275 . S
Dy41 O49 2.307 . S
Dy41 O51 2.395 . S
Dy41 O52 2.379 . S
Dy41 O55 2.339 . S
Dy41 C71 2.738 . S
C42 O54 1.254 . S
C42 O55 1.257 . S
O43 Dy40 2.307 . S
O43 C53 1.266 . S
O44 Dy41 2.298 . S
O44 C53 1.236 . S
O45 Dy40 2.395 . S
O45 C62 1.255 . S
O46 Dy40 2.379 . S
O46 C62 1.249 . S
O47 Dy41 2.275 . S
O47 C63 1.254 . S
O48 Dy40 2.339 . S
O48 C63 1.257 . S
O49 Dy41 2.307 . S
O49 C64 1.266 . S
O50 Dy40 2.298 . S
O50 C64 1.236 . S
O51 Dy41 2.395 . S
O51 C71 1.255 . S
O52 Dy41 2.379 . S
O52 C71 1.249 . S
C53 O43 1.266 . S
C53 O44 1.236 . S
O54 Dy40 2.275 . S
O54 C42 1.254 . S
O55 Dy41 2.339 . S
O55 C42 1.257 . S
C56 C59 1.344 . S
C56 C60 1.328 . S
C56 C62 1.516 . S
C57 C58 1.304 . S
C57 C61 1.323 . S
C58 C57 1.304 . S
C58 C59 1.371 . S
C58 H72 0.930 . S
C59 C56 1.344 . S
C59 C58 1.371 . S
C59 H73 0.931 . S
C60 C56 1.328 . S
C60 C61 1.433 . S
C60 H74 0.931 . S
C61 C57 1.323 . S
C61 C60 1.433 . S
C61 H75 0.933 . S
C62 Dy40 2.738 . S
C62 O45 1.255 . S
C62 O46 1.249 . S
C62 C56 1.516 . S
C63 O47 1.254 . S
C63 O48 1.257 . S
C64 O49 1.266 . S
C64 O50 1.236 . S
C65 C68 1.344 . S
C65 C69 1.328 . S
C65 C71 1.516 1_545 S
C66 C67 1.304 . S
C66 C70 1.323 . S
C67 C66 1.304 . S
C67 C68 1.371 . S
C67 H76 0.930 . S
C68 C65 1.344 . S
C68 C67 1.371 . S
C68 H77 0.931 1_545 S
C69 C65 1.328 . S
C69 C70 1.433 . S
C69 H78 0.931 . S
C70 C66 1.323 . S
C70 C69 1.433 . S
C70 H79 0.933 . S
C71 Dy41 2.738 . S
C71 O51 1.255 . S
C71 O52 1.249 . S
C71 C65 1.516 1_565 S
H72 C58 0.930 . S
H73 C59 0.931 . S
H74 C60 0.931 . S
H75 C61 0.933 . S
H76 C67 0.930 . S
H77 C68 0.931 1_565 S
H78 C69 0.931 . S
H79 C70 0.933 . S
Dy80 O83 2.307 . S
Dy80 O85 2.395 . S
Dy80 O86 2.379 . S
Dy80 O88 2.339 . S
Dy80 O90 2.298 . S
Dy80 O94 2.275 . S
Dy80 C102 2.738 . S
Dy81 O84 2.298 . S
Dy81 O87 2.275 . S
Dy81 O89 2.307 . S
Dy81 O91 2.395 . S
Dy81 O92 2.379 . S
Dy81 O95 2.339 . S
Dy81 C111 2.738 . S
C82 O94 1.254 . S
C82 O95 1.257 . S
O83 Dy80 2.307 . S
O83 C93 1.266 . S
O84 Dy81 2.298 . S
O84 C93 1.236 . S
O85 Dy80 2.395 . S
O85 C102 1.255 . S
O86 Dy80 2.379 . S
O86 C102 1.249 . S
O87 Dy81 2.275 . S
O87 C103 1.254 . S
O88 Dy80 2.339 . S
O88 C103 1.257 . S
O89 Dy81 2.307 . S
O89 C104 1.266 . S
O90 Dy80 2.298 . S
O90 C104 1.236 . S
O91 Dy81 2.395 . S
O91 C111 1.255 . S
O92 Dy81 2.379 . S
O92 C111 1.249 . S
C93 O83 1.266 . S
C93 O84 1.236 . S
O94 Dy80 2.275 . S
O94 C82 1.254 . S
O95 Dy81 2.339 . S
O95 C82 1.257 . S
C96 C99 1.344 . S
C96 C100 1.328 . S
C96 C102 1.516 . S
C97 C98 1.304 . S
C97 C101 1.323 . S
C98 C97 1.304 . S
C98 C99 1.371 . S
C98 H112 0.930 . S
C99 C96 1.344 . S
C99 C98 1.371 . S
C99 H113 0.931 . S
C100 C96 1.328 . S
C100 C101 1.433 . S
C100 H114 0.931 . S
C101 C97 1.323 . S
C101 C100 1.433 . S
C101 H115 0.933 . S
C102 Dy80 2.738 . S
C102 O85 1.255 . S
C102 O86 1.249 . S
C102 C96 1.516 . S
C103 O87 1.254 . S
C103 O88 1.257 . S
C104 O89 1.266 . S
C104 O90 1.236 . S
C105 C108 1.344 . S
C105 C109 1.328 . S
C105 C111 1.516 . S
C106 C107 1.304 . S
C106 C110 1.323 . S
C107 C106 1.304 . S
C107 C108 1.371 . S
C107 H116 0.930 . S
C108 C105 1.344 . S
C108 C107 1.371 . S
C108 H117 0.931 . S
C109 C105 1.328 . S
C109 C110 1.433 . S
C109 H118 0.931 . S
C110 C106 1.323 . S
C110 C109 1.433 . S
C110 H119 0.933 . S
C111 Dy81 2.738 . S
C111 O91 1.255 . S
C111 O92 1.249 . S
C111 C105 1.516 . S
H112 C98 0.930 . S
H113 C99 0.931 . S
H114 C100 0.931 . S
H115 C101 0.933 . S
H116 C107 0.930 . S
H117 C108 0.931 . S
H118 C109 0.931 . S
H119 C110 0.933 . S
Dy120 O123 2.307 1_554 S
Dy120 O125 2.395 . S
Dy120 O126 2.379 . S
Dy120 O128 2.339 1_554 S
Dy120 O130 2.298 . S
Dy120 O134 2.275 . S
Dy120 C142 2.738 . S
Dy121 O124 2.297 1_554 S
Dy121 O127 2.275 1_554 S
Dy121 O129 2.308 . S
Dy121 O131 2.394 1_554 S
Dy121 O132 2.378 1_554 S
Dy121 O135 2.339 . S
Dy121 C151 2.738 1_554 S
C122 O134 1.254 . S
C122 O135 1.257 . S
O123 Dy120 2.307 1_556 S
O123 C133 1.266 . S
O124 Dy121 2.297 1_556 S
O124 C133 1.236 . S
O125 Dy120 2.395 . S
O125 C142 1.255 . S
O126 Dy120 2.379 . S
O126 C142 1.249 . S
O127 Dy121 2.275 1_556 S
O127 C143 1.254 . S
O128 Dy120 2.339 1_556 S
O128 C143 1.257 . S
O129 Dy121 2.308 . S
O129 C144 1.266 . S
O130 Dy120 2.298 . S
O130 C144 1.236 . S
O131 Dy121 2.394 1_556 S
O131 C151 1.255 . S
O132 Dy121 2.378 1_556 S
O132 C151 1.249 . S
C133 O123 1.266 . S
C133 O124 1.236 . S
O134 Dy120 2.275 . S
O134 C122 1.254 . S
O135 Dy121 2.339 . S
O135 C122 1.257 . S
C136 C139 1.344 . S
C136 C140 1.328 . S
C136 C142 1.516 . S
C137 C138 1.304 . S
C137 C141 1.323 . S
C138 C137 1.304 . S
C138 C139 1.371 . S
C138 H152 0.930 . S
C139 C136 1.344 . S
C139 C138 1.371 . S
C139 H153 0.931 . S
C140 C136 1.328 . S
C140 C141 1.433 . S
C140 H154 0.931 . S
C141 C137 1.323 . S
C141 C140 1.433 . S
C141 H155 0.933 . S
C142 Dy120 2.738 . S
C142 O125 1.255 . S
C142 O126 1.249 . S
C142 C136 1.516 . S
C143 O127 1.254 . S
C143 O128 1.257 . S
C144 O129 1.266 . S
C144 O130 1.236 . S
C145 C148 1.344 . S
C145 C149 1.328 . S
C145 C151 1.516 1_565 S
C146 C147 1.304 . S
C146 C150 1.323 . S
C147 C146 1.304 . S
C147 C148 1.371 . S
C147 H156 0.930 . S
C148 C145 1.344 . S
C148 C147 1.371 . S
C148 H157 0.931 1_565 S
C149 C145 1.328 . S
C149 C150 1.433 . S
C149 H158 0.931 . S
C150 C146 1.323 . S
C150 C149 1.433 . S
C150 H159 0.933 . S
C151 Dy121 2.738 1_556 S
C151 O131 1.255 . S
C151 O132 1.249 . S
C151 C145 1.516 1_545 S
H152 C138 0.930 . S
H153 C139 0.931 . S
H154 C140 0.931 . S
H155 C141 0.933 . S
H156 C147 0.930 . S
H157 C148 0.931 1_545 S
H158 C149 0.931 . S
H159 C150 0.933 . S
Dy160 O163 2.307 . S
Dy160 O165 2.395 . S
Dy160 O166 2.379 . S
Dy160 O168 2.339 . S
Dy160 O170 2.298 . S
Dy160 O174 2.275 . S
Dy160 C182 2.738 . S
Dy161 O164 2.298 . S
Dy161 O167 2.275 . S
Dy161 O169 2.307 . S
Dy161 O171 2.395 . S
Dy161 O172 2.379 . S
Dy161 O175 2.339 . S
Dy161 C191 2.738 . S
C162 O174 1.254 . S
C162 O175 1.257 . S
O163 Dy160 2.307 . S
O163 C173 1.266 . S
O164 Dy161 2.298 . S
O164 C173 1.236 . S
O165 Dy160 2.395 . S
O165 C182 1.255 . S
O166 Dy160 2.379 . S
O166 C182 1.249 . S
O167 Dy161 2.275 . S
O167 C183 1.254 . S
O168 Dy160 2.339 . S
O168 C183 1.257 . S
O169 Dy161 2.307 . S
O169 C184 1.266 . S
O170 Dy160 2.298 . S
O170 C184 1.236 . S
O171 Dy161 2.395 . S
O171 C191 1.255 . S
O172 Dy161 2.379 . S
O172 C191 1.249 . S
C173 O163 1.266 . S
C173 O164 1.236 . S
O174 Dy160 2.275 . S
O174 C162 1.254 . S
O175 Dy161 2.339 . S
O175 C162 1.257 . S
C176 C179 1.344 . S
C176 C180 1.328 . S
C176 C182 1.516 1_655 S
C177 C178 1.304 . S
C177 C181 1.323 . S
C178 C177 1.304 . S
C178 C179 1.371 . S
C178 H192 0.930 . S
C179 C176 1.344 . S
C179 C178 1.371 . S
C179 H193 0.931 1_655 S
C180 C176 1.328 . S
C180 C181 1.433 . S
C180 H194 0.931 . S
C181 C177 1.323 . S
C181 C180 1.433 . S
C181 H195 0.933 . S
C182 Dy160 2.738 . S
C182 O165 1.255 . S
C182 O166 1.249 . S
C182 C176 1.516 1_455 S
C183 O167 1.254 . S
C183 O168 1.257 . S
C184 O169 1.266 . S
C184 O170 1.236 . S
C185 C188 1.344 . S
C185 C189 1.328 . S
C185 C191 1.516 . S
C186 C187 1.304 . S
C186 C190 1.323 . S
C187 C186 1.304 . S
C187 C188 1.371 . S
C187 H196 0.930 . S
C188 C185 1.344 . S
C188 C187 1.371 . S
C188 H197 0.931 . S
C189 C185 1.328 . S
C189 C190 1.433 . S
C189 H198 0.931 . S
C190 C186 1.323 . S
C190 C189 1.433 . S
C190 H199 0.933 . S
C191 Dy161 2.738 . S
C191 O171 1.255 . S
C191 O172 1.249 . S
C191 C185 1.516 . S
H192 C178 0.930 . S
H193 C179 0.931 1_455 S
H194 C180 0.931 . S
H195 C181 0.933 . S
H196 C187 0.930 . S
H197 C188 0.931 . S
H198 C189 0.931 . S
H199 C190 0.933 . S
Dy200 O203 2.307 . S
Dy200 O205 2.395 . S
Dy200 O206 2.379 . S
Dy200 O208 2.339 . S
Dy200 O210 2.298 . S
Dy200 O214 2.275 . S
Dy200 C222 2.738 . S
Dy201 O204 2.298 . S
Dy201 O207 2.275 . S
Dy201 O209 2.307 . S
Dy201 O211 2.395 . S
Dy201 O212 2.379 . S
Dy201 O215 2.339 . S
Dy201 C231 2.738 . S
C202 O214 1.254 . S
C202 O215 1.257 . S
O203 Dy200 2.307 . S
O203 C213 1.266 . S
O204 Dy201 2.298 . S
O204 C213 1.236 . S
O205 Dy200 2.395 . S
O205 C222 1.255 . S
O206 Dy200 2.379 . S
O206 C222 1.249 . S
O207 Dy201 2.275 . S
O207 C223 1.254 . S
O208 Dy200 2.339 . S
O208 C223 1.257 . S
O209 Dy201 2.307 . S
O209 C224 1.266 . S
O210 Dy200 2.298 . S
O210 C224 1.236 . S
O211 Dy201 2.395 . S
O211 C231 1.255 . S
O212 Dy201 2.379 . S
O212 C231 1.249 . S
C213 O203 1.266 . S
C213 O204 1.236 . S
O214 Dy200 2.275 . S
O214 C202 1.254 . S
O215 Dy201 2.339 . S
O215 C202 1.257 . S
C216 C219 1.344 . S
C216 C220 1.328 . S
C216 C222 1.516 . S
C217 C218 1.304 . S
C217 C221 1.323 . S
C218 C217 1.304 . S
C218 C219 1.371 . S
C218 H232 0.930 . S
C219 C216 1.344 . S
C219 C218 1.371 . S
C219 H233 0.931 . S
C220 C216 1.328 . S
C220 C221 1.433 . S
C220 H234 0.931 . S
C221 C217 1.323 . S
C221 C220 1.433 . S
C221 H235 0.933 . S
C222 Dy200 2.738 . S
C222 O205 1.255 . S
C222 O206 1.249 . S
C222 C216 1.516 . S
C223 O207 1.254 . S
C223 O208 1.257 . S
C224 O209 1.266 . S
C224 O210 1.236 . S
C225 C228 1.344 . S
C225 C229 1.328 . S
C225 C231 1.516 1_545 S
C226 C227 1.304 . S
C226 C230 1.323 . S
C227 C226 1.304 . S
C227 C228 1.371 . S
C227 H236 0.930 . S
C228 C225 1.344 . S
C228 C227 1.371 . S
C228 H237 0.931 1_545 S
C229 C225 1.328 . S
C229 C230 1.433 . S
C229 H238 0.931 . S
C230 C226 1.323 . S
C230 C229 1.433 . S
C230 H239 0.933 . S
C231 Dy201 2.738 . S
C231 O211 1.255 . S
C231 O212 1.249 . S
C231 C225 1.516 1_565 S
H232 C218 0.930 . S
H233 C219 0.931 . S
H234 C220 0.931 . S
H235 C221 0.933 . S
H236 C227 0.930 . S
H237 C228 0.931 1_565 S
H238 C229 0.931 . S
H239 C230 0.933 . S
Dy240 O243 2.307 . S
Dy240 O245 2.395 . S
Dy240 O246 2.379 . S
Dy240 O248 2.339 . S
Dy240 O250 2.298 . S
Dy240 O254 2.275 . S
Dy240 C262 2.738 . S
Dy241 O244 2.298 . S
Dy241 O247 2.275 . S
Dy241 O249 2.307 . S
Dy241 O251 2.395 . S
Dy241 O252 2.379 . S
Dy241 O255 2.339 . S
Dy241 C271 2.738 . S
C242 O254 1.254 . S
C242 O255 1.257 . S
O243 Dy240 2.307 . S
O243 C253 1.266 . S
O244 Dy241 2.298 . S
O244 C253 1.236 . S
O245 Dy240 2.395 . S
O245 C262 1.255 . S
O246 Dy240 2.379 . S
O246 C262 1.249 . S
O247 Dy241 2.275 . S
O247 C263 1.254 . S
O248 Dy240 2.339 . S
O248 C263 1.257 . S
O249 Dy241 2.307 . S
O249 C264 1.266 . S
O250 Dy240 2.298 . S
O250 C264 1.236 . S
O251 Dy241 2.395 . S
O251 C271 1.255 . S
O252 Dy241 2.379 . S
O252 C271 1.249 . S
C253 O243 1.266 . S
C253 O244 1.236 . S
O254 Dy240 2.275 . S
O254 C242 1.254 . S
O255 Dy241 2.339 . S
O255 C242 1.257 . S
C256 C259 1.344 . S
C256 C260 1.328 . S
C256 C262 1.516 . S
C257 C258 1.304 . S
C257 C261 1.323 . S
C258 C257 1.304 . S
C258 C259 1.371 . S
C258 H272 0.930 . S
C259 C256 1.344 . S
C259 C258 1.371 . S
C259 H273 0.931 . S
C260 C256 1.328 . S
C260 C261 1.433 . S
C260 H274 0.931 . S
C261 C257 1.323 . S
C261 C260 1.433 . S
C261 H275 0.933 . S
C262 Dy240 2.738 . S
C262 O245 1.255 . S
C262 O246 1.249 . S
C262 C256 1.516 . S
C263 O247 1.254 . S
C263 O248 1.257 . S
C264 O249 1.266 . S
C264 O250 1.236 . S
C265 C268 1.344 . S
C265 C269 1.328 . S
C265 C271 1.516 . S
C266 C267 1.304 . S
C266 C270 1.323 . S
C267 C266 1.304 . S
C267 C268 1.371 . S
C267 H276 0.930 . S
C268 C265 1.344 . S
C268 C267 1.371 . S
C268 H277 0.931 . S
C269 C265 1.328 . S
C269 C270 1.433 . S
C269 H278 0.931 . S
C270 C266 1.323 . S
C270 C269 1.433 . S
C270 H279 0.933 . S
C271 Dy241 2.738 . S
C271 O251 1.255 . S
C271 O252 1.249 . S
C271 C265 1.516 . S
H272 C258 0.930 . S
H273 C259 0.931 . S
H274 C260 0.931 . S
H275 C261 0.933 . S
H276 C267 0.930 . S
H277 C268 0.931 . S
H278 C269 0.931 . S
H279 C270 0.933 . S
Dy280 O283 2.307 1_556 S
Dy280 O285 2.395 . S
Dy280 O286 2.379 . S
Dy280 O288 2.339 1_556 S
Dy280 O290 2.298 . S
Dy280 O294 2.275 . S
Dy280 C302 2.738 . S
Dy281 O284 2.297 1_556 S
Dy281 O287 2.275 1_556 S
Dy281 O289 2.308 . S
Dy281 O291 2.394 1_556 S
Dy281 O292 2.378 1_556 S
Dy281 O295 2.339 . S
Dy281 C311 2.737 1_556 S
C282 O294 1.254 . S
C282 O295 1.257 . S
O283 Dy280 2.307 1_554 S
O283 C293 1.266 . S
O284 Dy281 2.297 1_554 S
O284 C293 1.236 . S
O285 Dy280 2.395 . S
O285 C302 1.255 . S
O286 Dy280 2.379 . S
O286 C302 1.249 . S
O287 Dy281 2.275 1_554 S
O287 C303 1.254 . S
O288 Dy280 2.339 1_554 S
O288 C303 1.257 . S
O289 Dy281 2.308 . S
O289 C304 1.266 . S
O290 Dy280 2.298 . S
O290 C304 1.236 . S
O291 Dy281 2.394 1_554 S
O291 C311 1.255 . S
O292 Dy281 2.378 1_554 S
O292 C311 1.249 . S
C293 O283 1.266 . S
C293 O284 1.236 . S
O294 Dy280 2.275 . S
O294 C282 1.254 . S
O295 Dy281 2.339 . S
O295 C282 1.257 . S
C296 C299 1.344 . S
C296 C300 1.328 . S
C296 C302 1.516 . S
C297 C298 1.304 . S
C297 C301 1.323 . S
C298 C297 1.304 . S
C298 C299 1.371 . S
C298 H312 0.930 . S
C299 C296 1.344 . S
C299 C298 1.371 . S
C299 H313 0.931 . S
C300 C296 1.328 . S
C300 C301 1.433 . S
C300 H314 0.931 . S
C301 C297 1.323 . S
C301 C300 1.433 . S
C301 H315 0.933 . S
C302 Dy280 2.738 . S
C302 O285 1.255 . S
C302 O286 1.249 . S
C302 C296 1.516 . S
C303 O287 1.254 . S
C303 O288 1.257 . S
C304 O289 1.266 . S
C304 O290 1.236 . S
C305 C308 1.344 . S
C305 C309 1.328 . S
C305 C311 1.516 1_565 S
C306 C307 1.304 . S
C306 C310 1.323 . S
C307 C306 1.304 . S
C307 C308 1.371 . S
C307 H316 0.930 . S
C308 C305 1.344 . S
C308 C307 1.371 . S
C308 H317 0.931 1_565 S
C309 C305 1.328 . S
C309 C310 1.433 . S
C309 H318 0.931 . S
C310 C306 1.323 . S
C310 C309 1.433 . S
C310 H319 0.933 . S
C311 Dy281 2.737 1_554 S
C311 O291 1.255 . S
C311 O292 1.249 . S
C311 C305 1.516 1_545 S
H312 C298 0.930 . S
H313 C299 0.931 . S
H314 C300 0.931 . S
H315 C301 0.933 . S
H316 C307 0.930 . S
H317 C308 0.931 1_545 S
H318 C309 0.931 . S
H319 C310 0.933 . S
Dy320 O323 2.307 . S
Dy320 O325 2.395 . S
Dy320 O326 2.379 . S
Dy320 O328 2.339 . S
Dy320 O330 2.298 . S
Dy320 O334 2.275 . S
Dy320 C342 2.738 . S
Dy321 O324 2.298 . S
Dy321 O327 2.275 . S
Dy321 O329 2.307 . S
Dy321 O331 2.395 . S
Dy321 O332 2.379 . S
Dy321 O335 2.339 . S
Dy321 C351 2.738 . S
C322 O334 1.254 . S
C322 O335 1.257 . S
O323 Dy320 2.307 . S
O323 C333 1.266 . S
O324 Dy321 2.298 . S
O324 C333 1.236 . S
O325 Dy320 2.395 . S
O325 C342 1.255 . S
O326 Dy320 2.379 . S
O326 C342 1.249 . S
O327 Dy321 2.275 . S
O327 C343 1.254 . S
O328 Dy320 2.339 . S
O328 C343 1.257 . S
O329 Dy321 2.307 . S
O329 C344 1.266 . S
O330 Dy320 2.298 . S
O330 C344 1.236 . S
O331 Dy321 2.395 . S
O331 C351 1.255 . S
O332 Dy321 2.379 . S
O332 C351 1.249 . S
C333 O323 1.266 . S
C333 O324 1.236 . S
O334 Dy320 2.275 . S
O334 C322 1.254 . S
O335 Dy321 2.339 . S
O335 C322 1.257 . S
C336 C339 1.344 . S
C336 C340 1.328 . S
C336 C342 1.516 . S
C337 C338 1.304 . S
C337 C341 1.323 . S
C338 C337 1.304 . S
C338 C339 1.371 . S
C338 H352 0.930 . S
C339 C336 1.344 . S
C339 C338 1.371 . S
C339 H353 0.931 . S
C340 C336 1.328 . S
C340 C341 1.433 . S
C340 H354 0.931 . S
C341 C337 1.323 . S
C341 C340 1.433 . S
C341 H355 0.933 . S
C342 Dy320 2.738 . S
C342 O325 1.255 . S
C342 O326 1.249 . S
C342 C336 1.516 . S
C343 O327 1.254 . S
C343 O328 1.257 . S
C344 O329 1.266 . S
C344 O330 1.236 . S
C345 C348 1.344 . S
C345 C349 1.328 . S
C345 C351 1.516 1_455 S
C346 C347 1.304 . S
C346 C350 1.323 . S
C347 C346 1.304 . S
C347 C348 1.371 . S
C347 H356 0.930 . S
C348 C345 1.344 . S
C348 C347 1.371 . S
C348 H357 0.931 1_455 S
C349 C345 1.328 . S
C349 C350 1.433 . S
C349 H358 0.931 . S
C350 C346 1.323 . S
C350 C349 1.433 . S
C350 H359 0.933 . S
C351 Dy321 2.738 . S
C351 O331 1.255 . S
C351 O332 1.249 . S
C351 C345 1.516 1_655 S
H352 C338 0.930 . S
H353 C339 0.931 . S
H354 C340 0.931 . S
H355 C341 0.933 . S
H356 C347 0.930 . S
H357 C348 0.931 1_655 S
H358 C349 0.931 . S
H359 C350 0.933 . S
Dy360 O363 2.307 . S
Dy360 O365 2.395 . S
Dy360 O366 2.379 . S
Dy360 O368 2.339 . S
Dy360 O370 2.298 . S
Dy360 O374 2.275 . S
Dy360 C382 2.738 . S
Dy361 O364 2.298 . S
Dy361 O367 2.275 . S
Dy361 O369 2.307 . S
Dy361 O371 2.395 . S
Dy361 O372 2.379 . S
Dy361 O375 2.339 . S
Dy361 C391 2.738 . S
C362 O374 1.254 . S
C362 O375 1.257 . S
O363 Dy360 2.307 . S
O363 C373 1.266 . S
O364 Dy361 2.298 . S
O364 C373 1.236 . S
O365 Dy360 2.395 . S
O365 C382 1.255 . S
O366 Dy360 2.379 . S
O366 C382 1.249 . S
O367 Dy361 2.275 . S
O367 C383 1.254 . S
O368 Dy360 2.339 . S
O368 C383 1.257 . S
O369 Dy361 2.307 . S
O369 C384 1.266 . S
O370 Dy360 2.298 . S
O370 C384 1.236 . S
O371 Dy361 2.395 . S
O371 C391 1.255 . S
O372 Dy361 2.379 . S
O372 C391 1.249 . S
C373 O363 1.266 . S
C373 O364 1.236 . S
O374 Dy360 2.275 . S
O374 C362 1.254 . S
O375 Dy361 2.339 . S
O375 C362 1.257 . S
C376 C379 1.344 . S
C376 C380 1.328 . S
C376 C382 1.516 1_565 S
C377 C378 1.304 . S
C377 C381 1.323 . S
C378 C377 1.304 . S
C378 C379 1.371 . S
C378 H392 0.930 . S
C379 C376 1.344 . S
C379 C378 1.371 . S
C379 H393 0.931 1_565 S
C380 C376 1.328 . S
C380 C381 1.433 . S
C380 H394 0.931 . S
C381 C377 1.323 . S
C381 C380 1.433 . S
C381 H395 0.933 . S
C382 Dy360 2.738 . S
C382 O365 1.255 . S
C382 O366 1.249 . S
C382 C376 1.516 1_545 S
C383 O367 1.254 . S
C383 O368 1.257 . S
C384 O369 1.266 . S
C384 O370 1.236 . S
C385 C388 1.344 . S
C385 C389 1.328 . S
C385 C391 1.516 . S
C386 C387 1.304 . S
C386 C390 1.323 . S
C387 C386 1.304 . S
C387 C388 1.371 . S
C387 H396 0.930 . S
C388 C385 1.344 . S
C388 C387 1.371 . S
C388 H397 0.931 . S
C389 C385 1.328 . S
C389 C390 1.433 . S
C389 H398 0.931 . S
C390 C386 1.323 . S
C390 C389 1.433 . S
C390 H399 0.933 . S
C391 Dy361 2.738 . S
C391 O371 1.255 . S
C391 O372 1.249 . S
C391 C385 1.516 . S
H392 C378 0.930 . S
H393 C379 0.931 1_545 S
H394 C380 0.931 . S
H395 C381 0.933 . S
H396 C387 0.930 . S
H397 C388 0.931 . S
H398 C389 0.931 . S
H399 C390 0.933 . S
Dy400 O403 2.307 . S
Dy400 O405 2.395 . S
Dy400 O406 2.379 . S
Dy400 O408 2.339 . S
Dy400 O410 2.298 . S
Dy400 O414 2.275 . S
Dy400 C422 2.738 . S
Dy401 O404 2.298 . S
Dy401 O407 2.275 . S
Dy401 O409 2.307 . S
Dy401 O411 2.395 . S
Dy401 O412 2.379 . S
Dy401 O415 2.339 . S
Dy401 C431 2.738 . S
C402 O414 1.254 . S
C402 O415 1.257 . S
O403 Dy400 2.307 . S
O403 C413 1.266 . S
O404 Dy401 2.298 . S
O404 C413 1.236 . S
O405 Dy400 2.395 . S
O405 C422 1.255 . S
O406 Dy400 2.379 . S
O406 C422 1.249 . S
O407 Dy401 2.275 . S
O407 C423 1.254 . S
O408 Dy400 2.339 . S
O408 C423 1.257 . S
O409 Dy401 2.307 . S
O409 C424 1.266 . S
O410 Dy400 2.298 . S
O410 C424 1.236 . S
O411 Dy401 2.395 . S
O411 C431 1.255 . S
O412 Dy401 2.379 . S
O412 C431 1.249 . S
C413 O403 1.266 . S
C413 O404 1.236 . S
O414 Dy400 2.275 . S
O414 C402 1.254 . S
O415 Dy401 2.339 . S
O415 C402 1.257 . S
C416 C419 1.344 . S
C416 C420 1.328 . S
C416 C422 1.516 . S
C417 C418 1.304 . S
C417 C421 1.323 . S
C418 C417 1.304 . S
C418 C419 1.371 . S
C418 H432 0.930 . S
C419 C416 1.344 . S
C419 C418 1.371 . S
C419 H433 0.931 . S
C420 C416 1.328 . S
C420 C421 1.433 . S
C420 H434 0.931 . S
C421 C417 1.323 . S
C421 C420 1.433 . S
C421 H435 0.933 . S
C422 Dy400 2.738 . S
C422 O405 1.255 . S
C422 O406 1.249 . S
C422 C416 1.516 . S
C423 O407 1.254 . S
C423 O408 1.257 . S
C424 O409 1.266 . S
C424 O410 1.236 . S
C425 C428 1.344 . S
C425 C429 1.328 . S
C425 C431 1.516 . S
C426 C427 1.304 . S
C426 C430 1.323 . S
C427 C426 1.304 . S
C427 C428 1.371 . S
C427 H436 0.930 . S
C428 C425 1.344 . S
C428 C427 1.371 . S
C428 H437 0.931 . S
C429 C425 1.328 . S
C429 C430 1.433 . S
C429 H438 0.931 . S
C430 C426 1.323 . S
C430 C429 1.433 . S
C430 H439 0.933 . S
C431 Dy401 2.738 . S
C431 O411 1.255 . S
C431 O412 1.249 . S
C431 C425 1.516 . S
H432 C418 0.930 . S
H433 C419 0.931 . S
H434 C420 0.931 . S
H435 C421 0.933 . S
H436 C427 0.930 . S
H437 C428 0.931 . S
H438 C429 0.931 . S
H439 C430 0.933 . S
Dy440 O443 2.308 . S
Dy440 O445 2.394 1_556 S
Dy440 O446 2.378 1_556 S
Dy440 O448 2.339 . S
Dy440 O450 2.297 1_556 S
Dy440 O454 2.275 1_556 S
Dy440 C462 2.738 1_556 S
Dy441 O444 2.298 . S
Dy441 O447 2.275 . S
Dy441 O449 2.307 1_556 S
Dy441 O451 2.395 . S
Dy441 O452 2.379 . S
Dy441 O455 2.339 1_556 S
Dy441 C471 2.738 . S
C442 O454 1.254 . S
C442 O455 1.257 . S
O443 Dy440 2.308 . S
O443 C453 1.266 . S
O444 Dy441 2.298 . S
O444 C453 1.236 . S
O445 Dy440 2.394 1_554 S
O445 C462 1.255 . S
O446 Dy440 2.378 1_554 S
O446 C462 1.249 . S
O447 Dy441 2.275 . S
O447 C463 1.254 . S
O448 Dy440 2.339 . S
O448 C463 1.257 . S
O449 Dy441 2.307 1_554 S
O449 C464 1.266 . S
O450 Dy440 2.297 1_554 S
O450 C464 1.236 . S
O451 Dy441 2.395 . S
O451 C471 1.255 . S
O452 Dy441 2.379 . S
O452 C471 1.249 . S
C453 O443 1.266 . S
C453 O444 1.236 . S
O454 Dy440 2.275 1_554 S
O454 C442 1.254 . S
O455 Dy441 2.339 1_554 S
O455 C442 1.257 . S
C456 C459 1.344 . S
C456 C460 1.328 . S
C456 C462 1.516 1_545 S
C457 C458 1.304 . S
C457 C461 1.323 . S
C458 C457 1.304 . S
C458 C459 1.371 . S
C458 H472 0.930 . S
C459 C456 1.344 . S
C459 C458 1.371 . S
C459 H473 0.931 1_545 S
C460 C456 1.328 . S
C460 C461 1.433 . S
C460 H474 0.931 . S
C461 C457 1.323 . S
C461 C460 1.433 . S
C461 H475 0.933 . S
C462 Dy440 2.738 1_554 S
C462 O445 1.255 . S
C462 O446 1.249 . S
C462 C456 1.516 1_565 S
C463 O447 1.254 . S
C463 O448 1.257 . S
C464 O449 1.266 . S
C464 O450 1.236 . S
C465 C468 1.344 . S
C465 C469 1.328 . S
C465 C471 1.516 . S
C466 C467 1.304 . S
C466 C470 1.323 . S
C467 C466 1.304 . S
C467 C468 1.371 . S
C467 H476 0.930 . S
C468 C465 1.344 . S
C468 C467 1.371 . S
C468 H477 0.931 . S
C469 C465 1.328 . S
C469 C470 1.433 . S
C469 H478 0.931 . S
C470 C466 1.323 . S
C470 C469 1.433 . S
C470 H479 0.933 . S
C471 Dy441 2.738 . S
C471 O451 1.255 . S
C471 O452 1.249 . S
C471 C465 1.516 . S
H472 C458 0.930 . S
H473 C459 0.931 1_565 S
H474 C460 0.931 . S
H475 C461 0.933 . S
H476 C467 0.930 . S
H477 C468 0.931 . S
H478 C469 0.931 . S
H479 C470 0.933 . S
Dy480 O483 2.307 . S
Dy480 O485 2.395 . S
Dy480 O486 2.379 . S
Dy480 O488 2.339 . S
Dy480 O490 2.298 . S
Dy480 O494 2.275 . S
Dy480 C502 2.738 . S
Dy481 O484 2.298 . S
Dy481 O487 2.275 . S
Dy481 O489 2.307 . S
Dy481 O491 2.395 . S
Dy481 O492 2.379 . S
Dy481 O495 2.339 . S
Dy481 C511 2.738 . S
C482 O494 1.254 . S
C482 O495 1.257 . S
O483 Dy480 2.307 . S
O483 C493 1.266 . S
O484 Dy481 2.298 . S
O484 C493 1.236 . S
O485 Dy480 2.395 . S
O485 C502 1.255 . S
O486 Dy480 2.379 . S
O486 C502 1.249 . S
O487 Dy481 2.275 . S
O487 C503 1.254 . S
O488 Dy480 2.339 . S
O488 C503 1.257 . S
O489 Dy481 2.307 . S
O489 C504 1.266 . S
O490 Dy480 2.298 . S
O490 C504 1.236 . S
O491 Dy481 2.395 . S
O491 C511 1.255 . S
O492 Dy481 2.379 . S
O492 C511 1.249 . S
C493 O483 1.266 . S
C493 O484 1.236 . S
O494 Dy480 2.275 . S
O494 C482 1.254 . S
O495 Dy481 2.339 . S
O495 C482 1.257 . S
C496 C499 1.344 . S
C496 C500 1.328 . S
C496 C502 1.516 . S
C497 C498 1.304 . S
C497 C501 1.323 . S
C498 C497 1.304 . S
C498 C499 1.371 . S
C498 H512 0.930 . S
C499 C496 1.344 . S
C499 C498 1.371 . S
C499 H513 0.931 . S
C500 C496 1.328 . S
C500 C501 1.433 . S
C500 H514 0.931 . S
C501 C497 1.323 . S
C501 C500 1.433 . S
C501 H515 0.933 . S
C502 Dy480 2.738 . S
C502 O485 1.255 . S
C502 O486 1.249 . S
C502 C496 1.516 . S
C503 O487 1.254 . S
C503 O488 1.257 . S
C504 O489 1.266 . S
C504 O490 1.236 . S
C505 C508 1.344 . S
C505 C509 1.328 . S
C505 C511 1.516 1_455 S
C506 C507 1.304 . S
C506 C510 1.323 . S
C507 C506 1.304 . S
C507 C508 1.371 . S
C507 H516 0.930 . S
C508 C505 1.344 . S
C508 C507 1.371 . S
C508 H517 0.931 1_455 S
C509 C505 1.328 . S
C509 C510 1.433 . S
C509 H518 0.931 . S
C510 C506 1.323 . S
C510 C509 1.433 . S
C510 H519 0.933 . S
C511 Dy481 2.738 . S
C511 O491 1.255 . S
C511 O492 1.249 . S
C511 C505 1.516 1_655 S
H512 C498 0.930 . S
H513 C499 0.931 . S
H514 C500 0.931 . S
H515 C501 0.933 . S
H516 C507 0.930 . S
H517 C508 0.931 1_655 S
H518 C509 0.931 . S
H519 C510 0.933 . S
Dy520 O523 2.307 . S
Dy520 O525 2.395 . S
Dy520 O526 2.379 . S
Dy520 O528 2.339 . S
Dy520 O530 2.298 . S
Dy520 O534 2.275 . S
Dy520 C542 2.738 . S
Dy521 O524 2.298 . S
Dy521 O527 2.275 . S
Dy521 O529 2.307 . S
Dy521 O531 2.395 . S
Dy521 O532 2.379 . S
Dy521 O535 2.339 . S
Dy521 C551 2.738 . S
C522 O534 1.254 . S
C522 O535 1.257 . S
O523 Dy520 2.307 . S
O523 C533 1.266 . S
O524 Dy521 2.298 . S
O524 C533 1.236 . S
O525 Dy520 2.395 . S
O525 C542 1.255 . S
O526 Dy520 2.379 . S
O526 C542 1.249 . S
O527 Dy521 2.275 . S
O527 C543 1.254 . S
O528 Dy520 2.339 . S
O528 C543 1.257 . S
O529 Dy521 2.307 . S
O529 C544 1.266 . S
O530 Dy520 2.298 . S
O530 C544 1.236 . S
O531 Dy521 2.395 . S
O531 C551 1.255 . S
O532 Dy521 2.379 . S
O532 C551 1.249 . S
C533 O523 1.266 . S
C533 O524 1.236 . S
O534 Dy520 2.275 . S
O534 C522 1.254 . S
O535 Dy521 2.339 . S
O535 C522 1.257 . S
C536 C539 1.344 . S
C536 C540 1.328 . S
C536 C542 1.516 1_565 S
C537 C538 1.304 . S
C537 C541 1.323 . S
C538 C537 1.304 . S
C538 C539 1.371 . S
C538 H552 0.930 . S
C539 C536 1.344 . S
C539 C538 1.371 . S
C539 H553 0.931 1_565 S
C540 C536 1.328 . S
C540 C541 1.433 . S
C540 H554 0.931 . S
C541 C537 1.323 . S
C541 C540 1.433 . S
C541 H555 0.933 . S
C542 Dy520 2.738 . S
C542 O525 1.255 . S
C542 O526 1.249 . S
C542 C536 1.516 1_545 S
C543 O527 1.254 . S
C543 O528 1.257 . S
C544 O529 1.266 . S
C544 O530 1.236 . S
C545 C548 1.344 . S
C545 C549 1.328 . S
C545 C551 1.516 . S
C546 C547 1.304 . S
C546 C550 1.323 . S
C547 C546 1.304 . S
C547 C548 1.371 . S
C547 H556 0.930 . S
C548 C545 1.344 . S
C548 C547 1.371 . S
C548 H557 0.931 . S
C549 C545 1.328 . S
C549 C550 1.433 . S
C549 H558 0.931 . S
C550 C546 1.323 . S
C550 C549 1.433 . S
C550 H559 0.933 . S
C551 Dy521 2.738 . S
C551 O531 1.255 . S
C551 O532 1.249 . S
C551 C545 1.516 . S
H552 C538 0.930 . S
H553 C539 0.931 1_545 S
H554 C540 0.931 . S
H555 C541 0.933 . S
H556 C547 0.930 . S
H557 C548 0.931 . S
H558 C549 0.931 . S
H559 C550 0.933 . S
Dy560 O563 2.307 . S
Dy560 O565 2.395 . S
Dy560 O566 2.379 . S
Dy560 O568 2.339 . S
Dy560 O570 2.298 . S
Dy560 O574 2.275 . S
Dy560 C582 2.738 . S
Dy561 O564 2.298 . S
Dy561 O567 2.275 . S
Dy561 O569 2.307 . S
Dy561 O571 2.395 . S
Dy561 O572 2.379 . S
Dy561 O575 2.339 . S
Dy561 C591 2.738 . S
C562 O574 1.254 . S
C562 O575 1.257 . S
O563 Dy560 2.307 . S
O563 C573 1.266 . S
O564 Dy561 2.298 . S
O564 C573 1.236 . S
O565 Dy560 2.395 . S
O565 C582 1.255 . S
O566 Dy560 2.379 . S
O566 C582 1.249 . S
O567 Dy561 2.275 . S
O567 C583 1.254 . S
O568 Dy560 2.339 . S
O568 C583 1.257 . S
O569 Dy561 2.307 . S
O569 C584 1.266 . S
O570 Dy560 2.298 . S
O570 C584 1.236 . S
O571 Dy561 2.395 . S
O571 C591 1.255 . S
O572 Dy561 2.379 . S
O572 C591 1.249 . S
C573 O563 1.266 . S
C573 O564 1.236 . S
O574 Dy560 2.275 . S
O574 C562 1.254 . S
O575 Dy561 2.339 . S
O575 C562 1.257 . S
C576 C579 1.344 . S
C576 C580 1.328 . S
C576 C582 1.516 . S
C577 C578 1.304 . S
C577 C581 1.323 . S
C578 C577 1.304 . S
C578 C579 1.371 . S
C578 H592 0.930 . S
C579 C576 1.344 . S
C579 C578 1.371 . S
C579 H593 0.931 . S
C580 C576 1.328 . S
C580 C581 1.433 . S
C580 H594 0.931 . S
C581 C577 1.323 . S
C581 C580 1.433 . S
C581 H595 0.933 . S
C582 Dy560 2.738 . S
C582 O565 1.255 . S
C582 O566 1.249 . S
C582 C576 1.516 . S
C583 O567 1.254 . S
C583 O568 1.257 . S
C584 O569 1.266 . S
C584 O570 1.236 . S
C585 C588 1.344 . S
C585 C589 1.328 . S
C585 C591 1.516 . S
C586 C587 1.304 . S
C586 C590 1.323 . S
C587 C586 1.304 . S
C587 C588 1.371 . S
C587 H596 0.930 . S
C588 C585 1.344 . S
C588 C587 1.371 . S
C588 H597 0.931 . S
C589 C585 1.328 . S
C589 C590 1.433 . S
C589 H598 0.931 . S
C590 C586 1.323 . S
C590 C589 1.433 . S
C590 H599 0.933 . S
C591 Dy561 2.738 . S
C591 O571 1.255 . S
C591 O572 1.249 . S
C591 C585 1.516 . S
H592 C578 0.930 . S
H593 C579 0.931 . S
H594 C580 0.931 . S
H595 C581 0.933 . S
H596 C587 0.930 . S
H597 C588 0.931 . S
H598 C589 0.931 . S
H599 C590 0.933 . S
Dy600 O603 2.308 . S
Dy600 O605 2.394 1_554 S
Dy600 O606 2.378 1_554 S
Dy600 O608 2.339 . S
Dy600 O610 2.297 1_554 S
Dy600 O614 2.275 1_554 S
Dy600 C622 2.738 1_554 S
Dy601 O604 2.298 . S
Dy601 O607 2.275 . S
Dy601 O609 2.307 1_554 S
Dy601 O611 2.395 . S
Dy601 O612 2.379 . S
Dy601 O615 2.339 1_554 S
Dy601 C631 2.738 . S
C602 O614 1.254 . S
C602 O615 1.257 . S
O603 Dy600 2.308 . S
O603 C613 1.266 . S
O604 Dy601 2.298 . S
O604 C613 1.236 . S
O605 Dy600 2.394 1_556 S
O605 C622 1.255 . S
O606 Dy600 2.378 1_556 S
O606 C622 1.249 . S
O607 Dy601 2.275 . S
O607 C623 1.254 . S
O608 Dy600 2.339 . S
O608 C623 1.257 . S
O609 Dy601 2.307 1_556 S
O609 C624 1.266 . S
O610 Dy600 2.297 1_556 S
O610 C624 1.236 . S
O611 Dy601 2.395 . S
O611 C631 1.255 . S
O612 Dy601 2.379 . S
O612 C631 1.249 . S
C613 O603 1.266 . S
C613 O604 1.236 . S
O614 Dy600 2.275 1_556 S
O614 C602 1.254 . S
O615 Dy601 2.339 1_556 S
O615 C602 1.257 . S
C616 C619 1.344 . S
C616 C620 1.328 . S
C616 C622 1.516 1_545 S
C617 C618 1.304 . S
C617 C621 1.323 . S
C618 C617 1.304 . S
C618 C619 1.371 . S
C618 H632 0.930 . S
C619 C616 1.344 . S
C619 C618 1.371 . S
C619 H633 0.931 1_545 S
C620 C616 1.328 . S
C620 C621 1.433 . S
C620 H634 0.931 . S
C621 C617 1.323 . S
C621 C620 1.433 . S
C621 H635 0.933 . S
C622 Dy600 2.738 1_556 S
C622 O605 1.255 . S
C622 O606 1.249 . S
C622 C616 1.516 1_565 S
C623 O607 1.254 . S
C623 O608 1.257 . S
C624 O609 1.266 . S
C624 O610 1.236 . S
C625 C628 1.344 . S
C625 C629 1.328 . S
C625 C631 1.516 . S
C626 C627 1.304 . S
C626 C630 1.323 . S
C627 C626 1.304 . S
C627 C628 1.371 . S
C627 H636 0.930 . S
C628 C625 1.344 . S
C628 C627 1.371 . S
C628 H637 0.931 . S
C629 C625 1.328 . S
C629 C630 1.433 . S
C629 H638 0.931 . S
C630 C626 1.323 . S
C630 C629 1.433 . S
C630 H639 0.933 . S
C631 Dy601 2.738 . S
C631 O611 1.255 . S
C631 O612 1.249 . S
C631 C625 1.516 . S
H632 C618 0.930 . S
H633 C619 0.931 1_565 S
H634 C620 0.931 . S
H635 C621 0.933 . S
H636 C627 0.930 . S
H637 C628 0.931 . S
H638 C629 0.931 . S
H639 C630 0.933 . S
Dy640 O643 2.307 . S
Dy640 O645 2.395 . S
Dy640 O646 2.379 . S
Dy640 O648 2.339 . S
Dy640 O650 2.298 . S
Dy640 O654 2.275 . S
Dy640 C662 2.738 . S
Dy641 O644 2.298 . S
Dy641 O647 2.275 . S
Dy641 O649 2.307 . S
Dy641 O651 2.395 . S
Dy641 O652 2.379 . S
Dy641 O655 2.339 . S
Dy641 C671 2.738 . S
C642 O654 1.254 . S
C642 O655 1.257 . S
O643 Dy640 2.307 . S
O643 C653 1.266 . S
O644 Dy641 2.298 . S
O644 C653 1.236 . S
O645 Dy640 2.395 . S
O645 C662 1.255 . S
O646 Dy640 2.379 . S
O646 C662 1.249 . S
O647 Dy641 2.275 . S
O647 C663 1.254 . S
O648 Dy640 2.339 . S
O648 C663 1.257 . S
O649 Dy641 2.307 . S
O649 C664 1.266 . S
O650 Dy640 2.298 . S
O650 C664 1.236 . S
O651 Dy641 2.395 . S
O651 C671 1.255 . S
O652 Dy641 2.379 . S
O652 C671 1.249 . S
C653 O643 1.266 . S
C653 O644 1.236 . S
O654 Dy640 2.275 . S
O654 C642 1.254 . S
O655 Dy641 2.339 . S
O655 C642 1.257 . S
C656 C659 1.344 . S
C656 C660 1.328 . S
C656 C662 1.516 . S
C657 C658 1.304 . S
C657 C661 1.323 . S
C658 C657 1.304 . S
C658 C659 1.371 . S
C658 H672 0.930 . S
C659 C656 1.344 . S
C659 C658 1.371 . S
C659 H673 0.931 . S
C660 C656 1.328 . S
C660 C661 1.433 . S
C660 H674 0.931 . S
C661 C657 1.323 . S
C661 C660 1.433 . S
C661 H675 0.933 . S
C662 Dy640 2.738 . S
C662 O645 1.255 . S
C662 O646 1.249 . S
C662 C656 1.516 . S
C663 O647 1.254 . S
C663 O648 1.257 . S
C664 O649 1.266 . S
C664 O650 1.236 . S
C665 C668 1.344 . S
C665 C669 1.328 . S
C665 C671 1.516 . S
C666 C667 1.304 . S
C666 C670 1.323 . S
C667 C666 1.304 . S
C667 C668 1.371 . S
C667 H676 0.930 . S
C668 C665 1.344 . S
C668 C667 1.371 . S
C668 H677 0.931 . S
C669 C665 1.328 . S
C669 C670 1.433 . S
C669 H678 0.931 . S
C670 C666 1.323 . S
C670 C669 1.433 . S
C670 H679 0.933 . S
C671 Dy641 2.738 . S
C671 O651 1.255 . S
C671 O652 1.249 . S
C671 C665 1.516 . S
H672 C658 0.930 . S
H673 C659 0.931 . S
H674 C660 0.931 . S
H675 C661 0.933 . S
H676 C667 0.930 . S
H677 C668 0.931 . S
H678 C669 0.931 . S
H679 C670 0.933 . S
Dy680 O683 2.307 1_554 S
Dy680 O685 2.395 . S
Dy680 O686 2.379 . S
Dy680 O688 2.339 1_554 S
Dy680 O690 2.298 . S
Dy680 O694 2.275 . S
Dy680 C702 2.738 . S
Dy681 O684 2.297 1_554 S
Dy681 O687 2.275 1_554 S
Dy681 O689 2.308 . S
Dy681 O691 2.394 1_554 S
Dy681 O692 2.378 1_554 S
Dy681 O695 2.339 . S
Dy681 C711 2.738 1_554 S
C682 O694 1.254 . S
C682 O695 1.257 . S
O683 Dy680 2.307 1_556 S
O683 C693 1.266 . S
O684 Dy681 2.297 1_556 S
O684 C693 1.236 . S
O685 Dy680 2.395 . S
O685 C702 1.255 . S
O686 Dy680 2.379 . S
O686 C702 1.249 . S
O687 Dy681 2.275 1_556 S
O687 C703 1.254 . S
O688 Dy680 2.339 1_556 S
O688 C703 1.257 . S
O689 Dy681 2.308 . S
O689 C704 1.266 . S
O690 Dy680 2.298 . S
O690 C704 1.236 . S
O691 Dy681 2.394 1_556 S
O691 C711 1.255 . S
O692 Dy681 2.378 1_556 S
O692 C711 1.249 . S
C693 O683 1.266 . S
C693 O684 1.236 . S
O694 Dy680 2.275 . S
O694 C682 1.254 . S
O695 Dy681 2.339 . S
O695 C682 1.257 . S
C696 C699 1.344 . S
C696 C700 1.328 . S
C696 C702 1.516 . S
C697 C698 1.304 . S
C697 C701 1.323 . S
C698 C697 1.304 . S
C698 C699 1.371 . S
C698 H712 0.930 . S
C699 C696 1.344 . S
C699 C698 1.371 . S
C699 H713 0.931 . S
C700 C696 1.328 . S
C700 C701 1.433 . S
C700 H714 0.931 . S
C701 C697 1.323 . S
C701 C700 1.433 . S
C701 H715 0.933 . S
C702 Dy680 2.738 . S
C702 O685 1.255 . S
C702 O686 1.249 . S
C702 C696 1.516 . S
C703 O687 1.254 . S
C703 O688 1.257 . S
C704 O689 1.266 . S
C704 O690 1.236 . S
C705 C708 1.344 . S
C705 C709 1.328 . S
C705 C711 1.516 . S
C706 C707 1.304 . S
C706 C710 1.323 . S
C707 C706 1.304 . S
C707 C708 1.371 . S
C707 H716 0.930 . S
C708 C705 1.344 . S
C708 C707 1.371 . S
C708 H717 0.931 . S
C709 C705 1.328 . S
C709 C710 1.433 . S
C709 H718 0.931 . S
C710 C706 1.323 . S
C710 C709 1.433 . S
C710 H719 0.933 . S
C711 Dy681 2.738 1_556 S
C711 O691 1.255 . S
C711 O692 1.249 . S
C711 C705 1.516 . S
H712 C698 0.930 . S
H713 C699 0.931 . S
H714 C700 0.931 . S
H715 C701 0.933 . S
H716 C707 0.930 . S
H717 C708 0.931 . S
H718 C709 0.931 . S
H719 C710 0.933 . S
Dy720 O723 2.307 . S
Dy720 O725 2.395 . S
Dy720 O726 2.379 . S
Dy720 O728 2.339 . S
Dy720 O730 2.298 . S
Dy720 O734 2.275 . S
Dy720 C742 2.738 . S
Dy721 O724 2.298 . S
Dy721 O727 2.275 . S
Dy721 O729 2.307 . S
Dy721 O731 2.395 . S
Dy721 O732 2.379 . S
Dy721 O735 2.339 . S
Dy721 C751 2.738 . S
C722 O734 1.254 . S
C722 O735 1.257 . S
O723 Dy720 2.307 . S
O723 C733 1.266 . S
O724 Dy721 2.298 . S
O724 C733 1.236 . S
O725 Dy720 2.395 . S
O725 C742 1.255 . S
O726 Dy720 2.379 . S
O726 C742 1.249 . S
O727 Dy721 2.275 . S
O727 C743 1.254 . S
O728 Dy720 2.339 . S
O728 C743 1.257 . S
O729 Dy721 2.307 . S
O729 C744 1.266 . S
O730 Dy720 2.298 . S
O730 C744 1.236 . S
O731 Dy721 2.395 . S
O731 C751 1.255 . S
O732 Dy721 2.379 . S
O732 C751 1.249 . S
C733 O723 1.266 . S
C733 O724 1.236 . S
O734 Dy720 2.275 . S
O734 C722 1.254 . S
O735 Dy721 2.339 . S
O735 C722 1.257 . S
C736 C739 1.344 . S
C736 C740 1.328 . S
C736 C742 1.516 1_455 S
C737 C738 1.304 . S
C737 C741 1.323 . S
C738 C737 1.304 . S
C738 C739 1.371 . S
C738 H752 0.930 . S
C739 C736 1.344 . S
C739 C738 1.371 . S
C739 H753 0.931 1_455 S
C740 C736 1.328 . S
C740 C741 1.433 . S
C740 H754 0.931 . S
C741 C737 1.323 . S
C741 C740 1.433 . S
C741 H755 0.933 . S
C742 Dy720 2.738 . S
C742 O725 1.255 . S
C742 O726 1.249 . S
C742 C736 1.516 1_655 S
C743 O727 1.254 . S
C743 O728 1.257 . S
C744 O729 1.266 . S
C744 O730 1.236 . S
C745 C748 1.344 . S
C745 C749 1.328 . S
C745 C751 1.516 . S
C746 C747 1.304 . S
C746 C750 1.323 . S
C747 C746 1.304 . S
C747 C748 1.371 . S
C747 H756 0.930 . S
C748 C745 1.344 . S
C748 C747 1.371 . S
C748 H757 0.931 . S
C749 C745 1.328 . S
C749 C750 1.433 . S
C749 H758 0.931 . S
C750 C746 1.323 . S
C750 C749 1.433 . S
C750 H759 0.933 . S
C751 Dy721 2.738 . S
C751 O731 1.255 . S
C751 O732 1.249 . S
C751 C745 1.516 . S
H752 C738 0.930 . S
H753 C739 0.931 1_655 S
H754 C740 0.931 . S
H755 C741 0.933 . S
H756 C747 0.930 . S
H757 C748 0.931 . S
H758 C749 0.931 . S
H759 C750 0.933 . S
Dy760 O763 2.307 . S
Dy760 O765 2.395 . S
Dy760 O766 2.379 . S
Dy760 O768 2.339 . S
Dy760 O770 2.298 . S
Dy760 O774 2.275 . S
Dy760 C782 2.738 . S
Dy761 O764 2.298 . S
Dy761 O767 2.275 . S
Dy761 O769 2.307 . S
Dy761 O771 2.395 . S
Dy761 O772 2.379 . S
Dy761 O775 2.339 . S
Dy761 C791 2.738 . S
C762 O774 1.254 . S
C762 O775 1.257 . S
O763 Dy760 2.307 . S
O763 C773 1.266 . S
O764 Dy761 2.298 . S
O764 C773 1.236 . S
O765 Dy760 2.395 . S
O765 C782 1.255 . S
O766 Dy760 2.379 . S
O766 C782 1.249 . S
O767 Dy761 2.275 . S
O767 C783 1.254 . S
O768 Dy760 2.339 . S
O768 C783 1.257 . S
O769 Dy761 2.307 . S
O769 C784 1.266 . S
O770 Dy760 2.298 . S
O770 C784 1.236 . S
O771 Dy761 2.395 . S
O771 C791 1.255 . S
O772 Dy761 2.379 . S
O772 C791 1.249 . S
C773 O763 1.266 . S
C773 O764 1.236 . S
O774 Dy760 2.275 . S
O774 C762 1.254 . S
O775 Dy761 2.339 . S
O775 C762 1.257 . S
C776 C779 1.344 . S
C776 C780 1.328 . S
C776 C782 1.516 . S
C777 C778 1.304 . S
C777 C781 1.323 . S
C778 C777 1.304 . S
C778 C779 1.371 . S
C778 H792 0.930 . S
C779 C776 1.344 . S
C779 C778 1.371 . S
C779 H793 0.931 . S
C780 C776 1.328 . S
C780 C781 1.433 . S
C780 H794 0.931 . S
C781 C777 1.323 . S
C781 C780 1.433 . S
C781 H795 0.933 . S
C782 Dy760 2.738 . S
C782 O765 1.255 . S
C782 O766 1.249 . S
C782 C776 1.516 . S
C783 O767 1.254 . S
C783 O768 1.257 . S
C784 O769 1.266 . S
C784 O770 1.236 . S
C785 C788 1.344 . S
C785 C789 1.328 . S
C785 C791 1.516 . S
C786 C787 1.304 . S
C786 C790 1.323 . S
C787 C786 1.304 . S
C787 C788 1.371 . S
C787 H796 0.930 . S
C788 C785 1.344 . S
C788 C787 1.371 . S
C788 H797 0.931 . S
C789 C785 1.328 . S
C789 C790 1.433 . S
C789 H798 0.931 . S
C790 C786 1.323 . S
C790 C789 1.433 . S
C790 H799 0.933 . S
C791 Dy761 2.738 . S
C791 O771 1.255 . S
C791 O772 1.249 . S
C791 C785 1.516 . S
H792 C778 0.930 . S
H793 C779 0.931 . S
H794 C780 0.931 . S
H795 C781 0.933 . S
H796 C787 0.930 . S
H797 C788 0.931 . S
H798 C789 0.931 . S
H799 C790 0.933 . S
Dy800 O803 2.307 . S
Dy800 O805 2.395 . S
Dy800 O806 2.379 . S
Dy800 O808 2.339 . S
Dy800 O810 2.298 . S
Dy800 O814 2.275 . S
Dy800 C822 2.738 . S
Dy801 O804 2.298 . S
Dy801 O807 2.275 . S
Dy801 O809 2.307 . S
Dy801 O811 2.395 . S
Dy801 O812 2.379 . S
Dy801 O815 2.339 . S
Dy801 C831 2.738 . S
C802 O814 1.254 . S
C802 O815 1.257 . S
O803 Dy800 2.307 . S
O803 C813 1.266 . S
O804 Dy801 2.298 . S
O804 C813 1.236 . S
O805 Dy800 2.395 . S
O805 C822 1.255 . S
O806 Dy800 2.379 . S
O806 C822 1.249 . S
O807 Dy801 2.275 . S
O807 C823 1.254 . S
O808 Dy800 2.339 . S
O808 C823 1.257 . S
O809 Dy801 2.307 . S
O809 C824 1.266 . S
O810 Dy800 2.298 . S
O810 C824 1.236 . S
O811 Dy801 2.395 . S
O811 C831 1.255 . S
O812 Dy801 2.379 . S
O812 C831 1.249 . S
C813 O803 1.266 . S
C813 O804 1.236 . S
O814 Dy800 2.275 . S
O814 C802 1.254 . S
O815 Dy801 2.339 . S
O815 C802 1.257 . S
C816 C819 1.344 . S
C816 C820 1.328 . S
C816 C822 1.516 . S
C817 C818 1.304 . S
C817 C821 1.323 . S
C818 C817 1.304 . S
C818 C819 1.371 . S
C818 H832 0.930 . S
C819 C816 1.344 . S
C819 C818 1.371 . S
C819 H833 0.931 . S
C820 C816 1.328 . S
C820 C821 1.433 . S
C820 H834 0.931 . S
C821 C817 1.323 . S
C821 C820 1.433 . S
C821 H835 0.933 . S
C822 Dy800 2.738 . S
C822 O805 1.255 . S
C822 O806 1.249 . S
C822 C816 1.516 . S
C823 O807 1.254 . S
C823 O808 1.257 . S
C824 O809 1.266 . S
C824 O810 1.236 . S
C825 C828 1.344 . S
C825 C829 1.328 . S
C825 C831 1.516 . S
C826 C827 1.304 . S
C826 C830 1.323 . S
C827 C826 1.304 . S
C827 C828 1.371 . S
C827 H836 0.930 . S
C828 C825 1.344 . S
C828 C827 1.371 . S
C828 H837 0.931 . S
C829 C825 1.328 . S
C829 C830 1.433 . S
C829 H838 0.931 . S
C830 C826 1.323 . S
C830 C829 1.433 . S
C830 H839 0.933 . S
C831 Dy801 2.738 . S
C831 O811 1.255 . S
C831 O812 1.249 . S
C831 C825 1.516 . S
H832 C818 0.930 . S
H833 C819 0.931 . S
H834 C820 0.931 . S
H835 C821 0.933 . S
H836 C827 0.930 . S
H837 C828 0.931 . S
H838 C829 0.931 . S
H839 C830 0.933 . S
Dy840 O843 2.307 1_556 S
Dy840 O845 2.395 . S
Dy840 O846 2.379 . S
Dy840 O848 2.339 1_556 S
Dy840 O850 2.298 . S
Dy840 O854 2.275 . S
Dy840 C862 2.738 . S
Dy841 O844 2.297 1_556 S
Dy841 O847 2.275 1_556 S
Dy841 O849 2.308 . S
Dy841 O851 2.394 1_556 S
Dy841 O852 2.378 1_556 S
Dy841 O855 2.339 . S
Dy841 C871 2.738 1_556 S
C842 O854 1.254 . S
C842 O855 1.257 . S
O843 Dy840 2.307 1_554 S
O843 C853 1.266 . S
O844 Dy841 2.297 1_554 S
O844 C853 1.236 . S
O845 Dy840 2.395 . S
O845 C862 1.255 . S
O846 Dy840 2.379 . S
O846 C862 1.249 . S
O847 Dy841 2.275 1_554 S
O847 C863 1.254 . S
O848 Dy840 2.339 1_554 S
O848 C863 1.257 . S
O849 Dy841 2.308 . S
O849 C864 1.266 . S
O850 Dy840 2.298 . S
O850 C864 1.236 . S
O851 Dy841 2.394 1_554 S
O851 C871 1.255 . S
O852 Dy841 2.378 1_554 S
O852 C871 1.249 . S
C853 O843 1.266 . S
C853 O844 1.236 . S
O854 Dy840 2.275 . S
O854 C842 1.254 . S
O855 Dy841 2.339 . S
O855 C842 1.257 . S
C856 C859 1.344 . S
C856 C860 1.328 . S
C856 C862 1.516 . S
C857 C858 1.304 . S
C857 C861 1.323 . S
C858 C857 1.304 . S
C858 C859 1.371 . S
C858 H872 0.930 . S
C859 C856 1.344 . S
C859 C858 1.371 . S
C859 H873 0.931 . S
C860 C856 1.328 . S
C860 C861 1.433 . S
C860 H874 0.931 . S
C861 C857 1.323 . S
C861 C860 1.433 . S
C861 H875 0.933 . S
C862 Dy840 2.738 . S
C862 O845 1.255 . S
C862 O846 1.249 . S
C862 C856 1.516 . S
C863 O847 1.254 . S
C863 O848 1.257 . S
C864 O849 1.266 . S
C864 O850 1.236 . S
C865 C868 1.344 . S
C865 C869 1.328 . S
C865 C871 1.516 . S
C866 C867 1.304 . S
C866 C870 1.323 . S
C867 C866 1.304 . S
C867 C868 1.371 . S
C867 H876 0.930 . S
C868 C865 1.344 . S
C868 C867 1.371 . S
C868 H877 0.931 . S
C869 C865 1.328 . S
C869 C870 1.433 . S
C869 H878 0.931 . S
C870 C866 1.323 . S
C870 C869 1.433 . S
C870 H879 0.933 . S
C871 Dy841 2.738 1_554 S
C871 O851 1.255 . S
C871 O852 1.249 . S
C871 C865 1.516 . S
H872 C858 0.930 . S
H873 C859 0.931 . S
H874 C860 0.931 . S
H875 C861 0.933 . S
H876 C867 0.930 . S
H877 C868 0.931 . S
H878 C869 0.931 . S
H879 C870 0.933 . S
Dy880 O883 2.307 . S
Dy880 O885 2.395 . S
Dy880 O886 2.379 . S
Dy880 O888 2.339 . S
Dy880 O890 2.298 . S
Dy880 O894 2.275 . S
Dy880 C902 2.738 . S
Dy881 O884 2.298 . S
Dy881 O887 2.275 . S
Dy881 O889 2.307 . S
Dy881 O891 2.395 . S
Dy881 O892 2.379 . S
Dy881 O895 2.339 . S
Dy881 C911 2.738 . S
C882 O894 1.254 . S
C882 O895 1.257 . S
O883 Dy880 2.307 . S
O883 C893 1.266 . S
O884 Dy881 2.298 . S
O884 C893 1.236 . S
O885 Dy880 2.395 . S
O885 C902 1.255 . S
O886 Dy880 2.379 . S
O886 C902 1.249 . S
O887 Dy881 2.275 . S
O887 C903 1.254 . S
O888 Dy880 2.339 . S
O888 C903 1.257 . S
O889 Dy881 2.307 . S
O889 C904 1.266 . S
O890 Dy880 2.298 . S
O890 C904 1.236 . S
O891 Dy881 2.395 . S
O891 C911 1.255 . S
O892 Dy881 2.379 . S
O892 C911 1.249 . S
C893 O883 1.266 . S
C893 O884 1.236 . S
O894 Dy880 2.275 . S
O894 C882 1.254 . S
O895 Dy881 2.339 . S
O895 C882 1.257 . S
C896 C899 1.344 . S
C896 C900 1.328 . S
C896 C902 1.516 1_455 S
C897 C898 1.304 . S
C897 C901 1.323 . S
C898 C897 1.304 . S
C898 C899 1.371 . S
C898 H912 0.930 . S
C899 C896 1.344 . S
C899 C898 1.371 . S
C899 H913 0.931 1_455 S
C900 C896 1.328 . S
C900 C901 1.433 . S
C900 H914 0.931 . S
C901 C897 1.323 . S
C901 C900 1.433 . S
C901 H915 0.933 . S
C902 Dy880 2.738 . S
C902 O885 1.255 . S
C902 O886 1.249 . S
C902 C896 1.516 1_655 S
C903 O887 1.254 . S
C903 O888 1.257 . S
C904 O889 1.266 . S
C904 O890 1.236 . S
C905 C908 1.344 . S
C905 C909 1.328 . S
C905 C911 1.516 . S
C906 C907 1.304 . S
C906 C910 1.323 . S
C907 C906 1.304 . S
C907 C908 1.371 . S
C907 H916 0.930 . S
C908 C905 1.344 . S
C908 C907 1.371 . S
C908 H917 0.931 . S
C909 C905 1.328 . S
C909 C910 1.433 . S
C909 H918 0.931 . S
C910 C906 1.323 . S
C910 C909 1.433 . S
C910 H919 0.933 . S
C911 Dy881 2.738 . S
C911 O891 1.255 . S
C911 O892 1.249 . S
C911 C905 1.516 . S
H912 C898 0.930 . S
H913 C899 0.931 1_655 S
H914 C900 0.931 . S
H915 C901 0.933 . S
H916 C907 0.930 . S
H917 C908 0.931 . S
H918 C909 0.931 . S
H919 C910 0.933 . S
Dy920 O923 2.307 . S
Dy920 O925 2.395 . S
Dy920 O926 2.379 . S
Dy920 O928 2.339 . S
Dy920 O930 2.298 . S
Dy920 O934 2.275 . S
Dy920 C942 2.738 . S
Dy921 O924 2.298 . S
Dy921 O927 2.275 . S
Dy921 O929 2.307 . S
Dy921 O931 2.395 . S
Dy921 O932 2.379 . S
Dy921 O935 2.339 . S
Dy921 C951 2.738 . S
C922 O934 1.254 . S
C922 O935 1.257 . S
O923 Dy920 2.307 . S
O923 C933 1.266 . S
O924 Dy921 2.298 . S
O924 C933 1.236 . S
O925 Dy920 2.395 . S
O925 C942 1.255 . S
O926 Dy920 2.379 . S
O926 C942 1.249 . S
O927 Dy921 2.275 . S
O927 C943 1.254 . S
O928 Dy920 2.339 . S
O928 C943 1.257 . S
O929 Dy921 2.307 . S
O929 C944 1.266 . S
O930 Dy920 2.298 . S
O930 C944 1.236 . S
O931 Dy921 2.395 . S
O931 C951 1.255 . S
O932 Dy921 2.379 . S
O932 C951 1.249 . S
C933 O923 1.266 . S
C933 O924 1.236 . S
O934 Dy920 2.275 . S
O934 C922 1.254 . S
O935 Dy921 2.339 . S
O935 C922 1.257 . S
C936 C939 1.344 . S
C936 C940 1.328 . S
C936 C942 1.516 . S
C937 C938 1.304 . S
C937 C941 1.323 . S
C938 C937 1.304 . S
C938 C939 1.371 . S
C938 H952 0.930 . S
C939 C936 1.344 . S
C939 C938 1.371 . S
C939 H953 0.931 . S
C940 C936 1.328 . S
C940 C941 1.433 . S
C940 H954 0.931 . S
C941 C937 1.323 . S
C941 C940 1.433 . S
C941 H955 0.933 . S
C942 Dy920 2.738 . S
C942 O925 1.255 . S
C942 O926 1.249 . S
C942 C936 1.516 . S
C943 O927 1.254 . S
C943 O928 1.257 . S
C944 O929 1.266 . S
C944 O930 1.236 . S
C945 C948 1.344 . S
C945 C949 1.328 . S
C945 C951 1.516 . S
C946 C947 1.304 . S
C946 C950 1.323 . S
C947 C946 1.304 . S
C947 C948 1.371 . S
C947 H956 0.930 . S
C948 C945 1.344 . S
C948 C947 1.371 . S
C948 H957 0.931 . S
C949 C945 1.328 . S
C949 C950 1.433 . S
C949 H958 0.931 . S
C950 C946 1.323 . S
C950 C949 1.433 . S
C950 H959 0.933 . S
C951 Dy921 2.738 . S
C951 O931 1.255 . S
C951 O932 1.249 . S
C951 C945 1.516 . S
H952 C938 0.930 . S
H953 C939 0.931 . S
H954 C940 0.931 . S
H955 C941 0.933 . S
H956 C947 0.930 . S
H957 C948 0.931 . S
H958 C949 0.931 . S
H959 C950 0.933 . S
Dy960 O963 2.307 . S
Dy960 O965 2.395 . S
Dy960 O966 2.379 . S
Dy960 O968 2.339 . S
Dy960 O970 2.298 . S
Dy960 O974 2.275 . S
Dy960 C982 2.738 . S
Dy961 O964 2.298 . S
Dy961 O967 2.275 . S
Dy961 O969 2.307 . S
Dy961 O971 2.395 . S
Dy961 O972 2.379 . S
Dy961 O975 2.339 . S
Dy961 C991 2.738 . S
C962 O974 1.254 . S
C962 O975 1.257 . S
O963 Dy960 2.307 . S
O963 C973 1.266 . S
O964 Dy961 2.298 . S
O964 C973 1.236 . S
O965 Dy960 2.395 . S
O965 C982 1.255 . S
O966 Dy960 2.379 . S
O966 C982 1.249 . S
O967 Dy961 2.275 . S
O967 C983 1.254 . S
O968 Dy960 2.339 . S
O968 C983 1.257 . S
O969 Dy961 2.307 . S
O969 C984 1.266 . S
O970 Dy960 2.298 . S
O970 C984 1.236 . S
O971 Dy961 2.395 . S
O971 C991 1.255 . S
O972 Dy961 2.379 . S
O972 C991 1.249 . S
C973 O963 1.266 . S
C973 O964 1.236 . S
O974 Dy960 2.275 . S
O974 C962 1.254 . S
O975 Dy961 2.339 . S
O975 C962 1.257 . S
C976 C979 1.344 . S
C976 C980 1.328 . S
C976 C982 1.516 . S
C977 C978 1.304 . S
C977 C981 1.323 . S
C978 C977 1.304 . S
C978 C979 1.371 . S
C978 H992 0.930 . S
C979 C976 1.344 . S
C979 C978 1.371 . S
C979 H993 0.931 . S
C980 C976 1.328 . S
C980 C981 1.433 . S
C980 H994 0.931 . S
C981 C977 1.323 . S
C981 C980 1.433 . S
C981 H995 0.933 . S
C982 Dy960 2.738 . S
C982 O965 1.255 . S
C982 O966 1.249 . S
C982 C976 1.516 . S
C983 O967 1.254 . S
C983 O968 1.257 . S
C984 O969 1.266 . S
C984 O970 1.236 . S
C985 C988 1.344 . S
C985 C989 1.328 . S
C985 C991 1.516 . S
C986 C987 1.304 . S
C986 C990 1.323 . S
C987 C986 1.304 . S
C987 C988 1.371 . S
C987 H996 0.930 . S
C988 C985 1.344 . S
C988 C987 1.371 . S
C988 H997 0.931 . S
C989 C985 1.328 . S
C989 C990 1.433 . S
C989 H998 0.931 . S
C990 C986 1.323 . S
C990 C989 1.433 . S
C990 H999 0.933 . S
C991 Dy961 2.738 . S
C991 O971 1.255 . S
C991 O972 1.249 . S
C991 C985 1.516 . S
H992 C978 0.930 . S
H993 C979 0.931 . S
H994 C980 0.931 . S
H995 C981 0.933 . S
H996 C987 0.930 . S
H997 C988 0.931 . S
H998 C989 0.931 . S
H999 C990 0.933 . S
Dy1000 O1003 2.308 . S
Dy1000 O1005 2.394 1_556 S
Dy1000 O1006 2.378 1_556 S
Dy1000 O1008 2.339 . S
Dy1000 O1010 2.297 1_556 S
Dy1000 O1014 2.275 1_556 S
Dy1000 C1022 2.738 1_556 S
Dy1001 O1004 2.298 . S
Dy1001 O1007 2.275 . S
Dy1001 O1009 2.307 1_556 S
Dy1001 O1011 2.395 . S
Dy1001 O1012 2.379 . S
Dy1001 O1015 2.339 1_556 S
Dy1001 C1031 2.738 . S
C1002 O1014 1.254 . S
C1002 O1015 1.257 . S
O1003 Dy1000 2.308 . S
O1003 C1013 1.266 . S
O1004 Dy1001 2.298 . S
O1004 C1013 1.236 . S
O1005 Dy1000 2.394 1_554 S
O1005 C1022 1.255 . S
O1006 Dy1000 2.378 1_554 S
O1006 C1022 1.249 . S
O1007 Dy1001 2.275 . S
O1007 C1023 1.254 . S
O1008 Dy1000 2.339 . S
O1008 C1023 1.257 . S
O1009 Dy1001 2.307 1_554 S
O1009 C1024 1.266 . S
O1010 Dy1000 2.297 1_554 S
O1010 C1024 1.236 . S
O1011 Dy1001 2.395 . S
O1011 C1031 1.255 . S
O1012 Dy1001 2.379 . S
O1012 C1031 1.249 . S
C1013 O1003 1.266 . S
C1013 O1004 1.236 . S
O1014 Dy1000 2.275 1_554 S
O1014 C1002 1.254 . S
O1015 Dy1001 2.339 1_554 S
O1015 C1002 1.257 . S
C1016 C1019 1.344 . S
C1016 C1020 1.328 . S
C1016 C1022 1.516 . S
C1017 C1018 1.304 . S
C1017 C1021 1.323 . S
C1018 C1017 1.304 . S
C1018 C1019 1.371 . S
C1018 H1032 0.930 . S
C1019 C1016 1.344 . S
C1019 C1018 1.371 . S
C1019 H1033 0.931 . S
C1020 C1016 1.328 . S
C1020 C1021 1.433 . S
C1020 H1034 0.931 . S
C1021 C1017 1.323 . S
C1021 C1020 1.433 . S
C1021 H1035 0.933 . S
C1022 Dy1000 2.738 1_554 S
C1022 O1005 1.255 . S
C1022 O1006 1.249 . S
C1022 C1016 1.516 . S
C1023 O1007 1.254 . S
C1023 O1008 1.257 . S
C1024 O1009 1.266 . S
C1024 O1010 1.236 . S
C1025 C1028 1.344 . S
C1025 C1029 1.328 . S
C1025 C1031 1.516 . S
C1026 C1027 1.304 . S
C1026 C1030 1.323 . S
C1027 C1026 1.304 . S
C1027 C1028 1.371 . S
C1027 H1036 0.930 . S
C1028 C1025 1.344 . S
C1028 C1027 1.371 . S
C1028 H1037 0.931 . S
C1029 C1025 1.328 . S
C1029 C1030 1.433 . S
C1029 H1038 0.931 . S
C1030 C1026 1.323 . S
C1030 C1029 1.433 . S
C1030 H1039 0.933 . S
C1031 Dy1001 2.738 . S
C1031 O1011 1.255 . S
C1031 O1012 1.249 . S
C1031 C1025 1.516 . S
H1032 C1018 0.930 . S
H1033 C1019 0.931 . S
H1034 C1020 0.931 . S
H1035 C1021 0.933 . S
H1036 C1027 0.930 . S
H1037 C1028 0.931 . S
H1038 C1029 0.931 . S
H1039 C1030 0.933 . S
Dy1040 O1043 2.307 . S
Dy1040 O1045 2.395 . S
Dy1040 O1046 2.379 . S
Dy1040 O1048 2.339 . S
Dy1040 O1050 2.298 . S
Dy1040 O1054 2.275 . S
Dy1040 C1062 2.738 . S
Dy1041 O1044 2.298 . S
Dy1041 O1047 2.275 . S
Dy1041 O1049 2.307 . S
Dy1041 O1051 2.395 . S
Dy1041 O1052 2.379 . S
Dy1041 O1055 2.339 . S
Dy1041 C1071 2.738 . S
C1042 O1054 1.254 . S
C1042 O1055 1.257 . S
O1043 Dy1040 2.307 . S
O1043 C1053 1.266 . S
O1044 Dy1041 2.298 . S
O1044 C1053 1.236 . S
O1045 Dy1040 2.395 . S
O1045 C1062 1.255 . S
O1046 Dy1040 2.379 . S
O1046 C1062 1.249 . S
O1047 Dy1041 2.275 . S
O1047 C1063 1.254 . S
O1048 Dy1040 2.339 . S
O1048 C1063 1.257 . S
O1049 Dy1041 2.307 . S
O1049 C1064 1.266 . S
O1050 Dy1040 2.298 . S
O1050 C1064 1.236 . S
O1051 Dy1041 2.395 . S
O1051 C1071 1.255 . S
O1052 Dy1041 2.379 . S
O1052 C1071 1.249 . S
C1053 O1043 1.266 . S
C1053 O1044 1.236 . S
O1054 Dy1040 2.275 . S
O1054 C1042 1.254 . S
O1055 Dy1041 2.339 . S
O1055 C1042 1.257 . S
C1056 C1059 1.344 . S
C1056 C1060 1.328 . S
C1056 C1062 1.516 . S
C1057 C1058 1.304 . S
C1057 C1061 1.323 . S
C1058 C1057 1.304 . S
C1058 C1059 1.371 . S
C1058 H1072 0.930 . S
C1059 C1056 1.344 . S
C1059 C1058 1.371 . S
C1059 H1073 0.931 . S
C1060 C1056 1.328 . S
C1060 C1061 1.433 . S
C1060 H1074 0.931 . S
C1061 C1057 1.323 . S
C1061 C1060 1.433 . S
C1061 H1075 0.933 . S
C1062 Dy1040 2.738 . S
C1062 O1045 1.255 . S
C1062 O1046 1.249 . S
C1062 C1056 1.516 . S
C1063 O1047 1.254 . S
C1063 O1048 1.257 . S
C1064 O1049 1.266 . S
C1064 O1050 1.236 . S
C1065 C1068 1.344 . S
C1065 C1069 1.328 . S
C1065 C1071 1.516 1_655 S
C1066 C1067 1.304 . S
C1066 C1070 1.323 . S
C1067 C1066 1.304 . S
C1067 C1068 1.371 . S
C1067 H1076 0.930 . S
C1068 C1065 1.344 . S
C1068 C1067 1.371 . S
C1068 H1077 0.931 1_655 S
C1069 C1065 1.328 . S
C1069 C1070 1.433 . S
C1069 H1078 0.931 . S
C1070 C1066 1.323 . S
C1070 C1069 1.433 . S
C1070 H1079 0.933 . S
C1071 Dy1041 2.738 . S
C1071 O1051 1.255 . S
C1071 O1052 1.249 . S
C1071 C1065 1.516 1_455 S
H1072 C1058 0.930 . S
H1073 C1059 0.931 . S
H1074 C1060 0.931 . S
H1075 C1061 0.933 . S
H1076 C1067 0.930 . S
H1077 C1068 0.931 1_455 S
H1078 C1069 0.931 . S
H1079 C1070 0.933 . S
Dy1080 O1083 2.307 . S
Dy1080 O1085 2.395 . S
Dy1080 O1086 2.379 . S
Dy1080 O1088 2.339 . S
Dy1080 O1090 2.298 . S
Dy1080 O1094 2.275 . S
Dy1080 C1102 2.738 . S
Dy1081 O1084 2.298 . S
Dy1081 O1087 2.275 . S
Dy1081 O1089 2.307 . S
Dy1081 O1091 2.395 . S
Dy1081 O1092 2.379 . S
Dy1081 O1095 2.339 . S
Dy1081 C1111 2.738 . S
C1082 O1094 1.254 . S
C1082 O1095 1.257 . S
O1083 Dy1080 2.307 . S
O1083 C1093 1.266 . S
O1084 Dy1081 2.298 . S
O1084 C1093 1.236 . S
O1085 Dy1080 2.395 . S
O1085 C1102 1.255 . S
O1086 Dy1080 2.379 . S
O1086 C1102 1.249 . S
O1087 Dy1081 2.275 . S
O1087 C1103 1.254 . S
O1088 Dy1080 2.339 . S
O1088 C1103 1.257 . S
O1089 Dy1081 2.307 . S
O1089 C1104 1.266 . S
O1090 Dy1080 2.298 . S
O1090 C1104 1.236 . S
O1091 Dy1081 2.395 . S
O1091 C1111 1.255 . S
O1092 Dy1081 2.379 . S
O1092 C1111 1.249 . S
C1093 O1083 1.266 . S
C1093 O1084 1.236 . S
O1094 Dy1080 2.275 . S
O1094 C1082 1.254 . S
O1095 Dy1081 2.339 . S
O1095 C1082 1.257 . S
C1096 C1099 1.344 . S
C1096 C1100 1.328 . S
C1096 C1102 1.516 . S
C1097 C1098 1.304 . S
C1097 C1101 1.323 . S
C1098 C1097 1.304 . S
C1098 C1099 1.371 . S
C1098 H1112 0.930 . S
C1099 C1096 1.344 . S
C1099 C1098 1.371 . S
C1099 H1113 0.931 . S
C1100 C1096 1.328 . S
C1100 C1101 1.433 . S
C1100 H1114 0.931 . S
C1101 C1097 1.323 . S
C1101 C1100 1.433 . S
C1101 H1115 0.933 . S
C1102 Dy1080 2.738 . S
C1102 O1085 1.255 . S
C1102 O1086 1.249 . S
C1102 C1096 1.516 . S
C1103 O1087 1.254 . S
C1103 O1088 1.257 . S
C1104 O1089 1.266 . S
C1104 O1090 1.236 . S
C1105 C1108 1.344 . S
C1105 C1109 1.328 . S
C1105 C1111 1.516 . S
C1106 C1107 1.304 . S
C1106 C1110 1.323 . S
C1107 C1106 1.304 . S
C1107 C1108 1.371 . S
C1107 H1116 0.930 . S
C1108 C1105 1.344 . S
C1108 C1107 1.371 . S
C1108 H1117 0.931 . S
C1109 C1105 1.328 . S
C1109 C1110 1.433 . S
C1109 H1118 0.931 . S
C1110 C1106 1.323 . S
C1110 C1109 1.433 . S
C1110 H1119 0.933 . S
C1111 Dy1081 2.738 . S
C1111 O1091 1.255 . S
C1111 O1092 1.249 . S
C1111 C1105 1.516 . S
H1112 C1098 0.930 . S
H1113 C1099 0.931 . S
H1114 C1100 0.931 . S
H1115 C1101 0.933 . S
H1116 C1107 0.930 . S
H1117 C1108 0.931 . S
H1118 C1109 0.931 . S
H1119 C1110 0.933 . S
Dy1120 O1123 2.307 . S
Dy1120 O1125 2.395 . S
Dy1120 O1126 2.379 . S
Dy1120 O1128 2.339 . S
Dy1120 O1130 2.298 . S
Dy1120 O1134 2.275 . S
Dy1120 C1142 2.738 . S
Dy1121 O1124 2.298 . S
Dy1121 O1127 2.275 . S
Dy1121 O1129 2.307 . S
Dy1121 O1131 2.395 . S
Dy1121 O1132 2.379 . S
Dy1121 O1135 2.339 . S
Dy1121 C1151 2.738 . S
C1122 O1134 1.254 . S
C1122 O1135 1.257 . S
O1123 Dy1120 2.307 . S
O1123 C1133 1.266 . S
O1124 Dy1121 2.298 . S
O1124 C1133 1.236 . S
O1125 Dy1120 2.395 . S
O1125 C1142 1.255 . S
O1126 Dy1120 2.379 . S
O1126 C1142 1.249 . S
O1127 Dy1121 2.275 . S
O1127 C1143 1.254 . S
O1128 Dy1120 2.339 . S
O1128 C1143 1.257 . S
O1129 Dy1121 2.307 . S
O1129 C1144 1.266 . S
O1130 Dy1120 2.298 . S
O1130 C1144 1.236 . S
O1131 Dy1121 2.395 . S
O1131 C1151 1.255 . S
O1132 Dy1121 2.379 . S
O1132 C1151 1.249 . S
C1133 O1123 1.266 . S
C1133 O1124 1.236 . S
O1134 Dy1120 2.275 . S
O1134 C1122 1.254 . S
O1135 Dy1121 2.339 . S
O1135 C1122 1.257 . S
C1136 C1139 1.344 . S
C1136 C1140 1.328 . S
C1136 C1142 1.516 . S
C1137 C1138 1.304 . S
C1137 C1141 1.323 . S
C1138 C1137 1.304 . S
C1138 C1139 1.371 . S
C1138 H1152 0.930 . S
C1139 C1136 1.344 . S
C1139 C1138 1.371 . S
C1139 H1153 0.931 . S
C1140 C1136 1.328 . S
C1140 C1141 1.433 . S
C1140 H1154 0.931 . S
C1141 C1137 1.323 . S
C1141 C1140 1.433 . S
C1141 H1155 0.933 . S
C1142 Dy1120 2.738 . S
C1142 O1125 1.255 . S
C1142 O1126 1.249 . S
C1142 C1136 1.516 . S
C1143 O1127 1.254 . S
C1143 O1128 1.257 . S
C1144 O1129 1.266 . S
C1144 O1130 1.236 . S
C1145 C1148 1.344 . S
C1145 C1149 1.328 . S
C1145 C1151 1.516 . S
C1146 C1147 1.304 . S
C1146 C1150 1.323 . S
C1147 C1146 1.304 . S
C1147 C1148 1.371 . S
C1147 H1156 0.930 . S
C1148 C1145 1.344 . S
C1148 C1147 1.371 . S
C1148 H1157 0.931 . S
C1149 C1145 1.328 . S
C1149 C1150 1.433 . S
C1149 H1158 0.931 . S
C1150 C1146 1.323 . S
C1150 C1149 1.433 . S
C1150 H1159 0.933 . S
C1151 Dy1121 2.738 . S
C1151 O1131 1.255 . S
C1151 O1132 1.249 . S
C1151 C1145 1.516 . S
H1152 C1138 0.930 . S
H1153 C1139 0.931 . S
H1154 C1140 0.931 . S
H1155 C1141 0.933 . S
H1156 C1147 0.930 . S
H1157 C1148 0.931 . S
H1158 C1149 0.931 . S
H1159 C1150 0.933 . S
Dy1160 O1163 2.308 . S
Dy1160 O1165 2.394 1_554 S
Dy1160 O1166 2.378 1_554 S
Dy1160 O1168 2.339 . S
Dy1160 O1170 2.297 1_554 S
Dy1160 O1174 2.275 1_554 S
Dy1160 C1182 2.738 1_554 S
Dy1161 O1164 2.298 . S
Dy1161 O1167 2.275 . S
Dy1161 O1169 2.307 1_554 S
Dy1161 O1171 2.395 . S
Dy1161 O1172 2.379 . S
Dy1161 O1175 2.339 1_554 S
Dy1161 C1191 2.738 . S
C1162 O1174 1.254 . S
C1162 O1175 1.257 . S
O1163 Dy1160 2.308 . S
O1163 C1173 1.266 . S
O1164 Dy1161 2.298 . S
O1164 C1173 1.236 . S
O1165 Dy1160 2.394 1_556 S
O1165 C1182 1.255 . S
O1166 Dy1160 2.378 1_556 S
O1166 C1182 1.249 . S
O1167 Dy1161 2.275 . S
O1167 C1183 1.254 . S
O1168 Dy1160 2.339 . S
O1168 C1183 1.257 . S
O1169 Dy1161 2.307 1_556 S
O1169 C1184 1.266 . S
O1170 Dy1160 2.297 1_556 S
O1170 C1184 1.236 . S
O1171 Dy1161 2.395 . S
O1171 C1191 1.255 . S
O1172 Dy1161 2.379 . S
O1172 C1191 1.249 . S
C1173 O1163 1.266 . S
C1173 O1164 1.236 . S
O1174 Dy1160 2.275 1_556 S
O1174 C1162 1.254 . S
O1175 Dy1161 2.339 1_556 S
O1175 C1162 1.257 . S
C1176 C1179 1.344 . S
C1176 C1180 1.328 . S
C1176 C1182 1.516 . S
C1177 C1178 1.304 . S
C1177 C1181 1.323 . S
C1178 C1177 1.304 . S
C1178 C1179 1.371 . S
C1178 H1192 0.930 . S
C1179 C1176 1.344 . S
C1179 C1178 1.371 . S
C1179 H1193 0.931 . S
C1180 C1176 1.328 . S
C1180 C1181 1.433 . S
C1180 H1194 0.931 . S
C1181 C1177 1.323 . S
C1181 C1180 1.433 . S
C1181 H1195 0.933 . S
C1182 Dy1160 2.738 1_556 S
C1182 O1165 1.255 . S
C1182 O1166 1.249 . S
C1182 C1176 1.516 . S
C1183 O1167 1.254 . S
C1183 O1168 1.257 . S
C1184 O1169 1.266 . S
C1184 O1170 1.236 . S
C1185 C1188 1.344 . S
C1185 C1189 1.328 . S
C1185 C1191 1.516 . S
C1186 C1187 1.304 . S
C1186 C1190 1.323 . S
C1187 C1186 1.304 . S
C1187 C1188 1.371 . S
C1187 H1196 0.930 . S
C1188 C1185 1.344 . S
C1188 C1187 1.371 . S
C1188 H1197 0.931 . S
C1189 C1185 1.328 . S
C1189 C1190 1.433 . S
C1189 H1198 0.931 . S
C1190 C1186 1.323 . S
C1190 C1189 1.433 . S
C1190 H1199 0.933 . S
C1191 Dy1161 2.738 . S
C1191 O1171 1.255 . S
C1191 O1172 1.249 . S
C1191 C1185 1.516 . S
H1192 C1178 0.930 . S
H1193 C1179 0.931 . S
H1194 C1180 0.931 . S
H1195 C1181 0.933 . S
H1196 C1187 0.930 . S
H1197 C1188 0.931 . S
H1198 C1189 0.931 . S
H1199 C1190 0.933 . S
Dy1200 O1203 2.307 . S
Dy1200 O1205 2.395 . S
Dy1200 O1206 2.379 . S
Dy1200 O1208 2.339 . S
Dy1200 O1210 2.298 . S
Dy1200 O1214 2.275 . S
Dy1200 C1222 2.738 . S
Dy1201 O1204 2.298 . S
Dy1201 O1207 2.275 . S
Dy1201 O1209 2.307 . S
Dy1201 O1211 2.395 . S
Dy1201 O1212 2.379 . S
Dy1201 O1215 2.339 . S
Dy1201 C1231 2.738 . S
C1202 O1214 1.254 . S
C1202 O1215 1.257 . S
O1203 Dy1200 2.307 . S
O1203 C1213 1.266 . S
O1204 Dy1201 2.298 . S
O1204 C1213 1.236 . S
O1205 Dy1200 2.395 . S
O1205 C1222 1.255 . S
O1206 Dy1200 2.379 . S
O1206 C1222 1.249 . S
O1207 Dy1201 2.275 . S
O1207 C1223 1.254 . S
O1208 Dy1200 2.339 . S
O1208 C1223 1.257 . S
O1209 Dy1201 2.307 . S
O1209 C1224 1.266 . S
O1210 Dy1200 2.298 . S
O1210 C1224 1.236 . S
O1211 Dy1201 2.395 . S
O1211 C1231 1.255 . S
O1212 Dy1201 2.379 . S
O1212 C1231 1.249 . S
C1213 O1203 1.266 . S
C1213 O1204 1.236 . S
O1214 Dy1200 2.275 . S
O1214 C1202 1.254 . S
O1215 Dy1201 2.339 . S
O1215 C1202 1.257 . S
C1216 C1219 1.344 . S
C1216 C1220 1.328 . S
C1216 C1222 1.516 . S
C1217 C1218 1.304 . S
C1217 C1221 1.323 . S
C1218 C1217 1.304 . S
C1218 C1219 1.371 . S
C1218 H1232 0.930 . S
C1219 C1216 1.344 . S
C1219 C1218 1.371 . S
C1219 H1233 0.931 . S
C1220 C1216 1.328 . S
C1220 C1221 1.433 . S
C1220 H1234 0.931 . S
C1221 C1217 1.323 . S
C1221 C1220 1.433 . S
C1221 H1235 0.933 . S
C1222 Dy1200 2.738 . S
C1222 O1205 1.255 . S
C1222 O1206 1.249 . S
C1222 C1216 1.516 . S
C1223 O1207 1.254 . S
C1223 O1208 1.257 . S
C1224 O1209 1.266 . S
C1224 O1210 1.236 . S
C1225 C1228 1.344 . S
C1225 C1229 1.328 . S
C1225 C1231 1.516 1_655 S
C1226 C1227 1.304 . S
C1226 C1230 1.323 . S
C1227 C1226 1.304 . S
C1227 C1228 1.371 . S
C1227 H1236 0.930 . S
C1228 C1225 1.344 . S
C1228 C1227 1.371 . S
C1228 H1237 0.931 1_655 S
C1229 C1225 1.328 . S
C1229 C1230 1.433 . S
C1229 H1238 0.931 . S
C1230 C1226 1.323 . S
C1230 C1229 1.433 . S
C1230 H1239 0.933 . S
C1231 Dy1201 2.738 . S
C1231 O1211 1.255 . S
C1231 O1212 1.249 . S
C1231 C1225 1.516 1_455 S
H1232 C1218 0.930 . S
H1233 C1219 0.931 . S
H1234 C1220 0.931 . S
H1235 C1221 0.933 . S
H1236 C1227 0.930 . S
H1237 C1228 0.931 1_455 S
H1238 C1229 0.931 . S
H1239 C1230 0.933 . S
Dy1240 O1243 2.307 . S
Dy1240 O1245 2.395 . S
Dy1240 O1246 2.379 . S
Dy1240 O1248 2.339 . S
Dy1240 O1250 2.298 . S
Dy1240 O1254 2.275 . S
Dy1240 C1262 2.738 . S
Dy1241 O1244 2.298 . S
Dy1241 O1247 2.275 . S
Dy1241 O1249 2.307 . S
Dy1241 O1251 2.395 . S
Dy1241 O1252 2.379 . S
Dy1241 O1255 2.339 . S
Dy1241 C1271 2.738 . S
C1242 O1254 1.254 . S
C1242 O1255 1.257 . S
O1243 Dy1240 2.307 . S
O1243 C1253 1.266 . S
O1244 Dy1241 2.298 . S
O1244 C1253 1.236 . S
O1245 Dy1240 2.395 . S
O1245 C1262 1.255 . S
O1246 Dy1240 2.379 . S
O1246 C1262 1.249 . S
O1247 Dy1241 2.275 . S
O1247 C1263 1.254 . S
O1248 Dy1240 2.339 . S
O1248 C1263 1.257 . S
O1249 Dy1241 2.307 . S
O1249 C1264 1.266 . S
O1250 Dy1240 2.298 . S
O1250 C1264 1.236 . S
O1251 Dy1241 2.395 . S
O1251 C1271 1.255 . S
O1252 Dy1241 2.379 . S
O1252 C1271 1.249 . S
C1253 O1243 1.266 . S
C1253 O1244 1.236 . S
O1254 Dy1240 2.275 . S
O1254 C1242 1.254 . S
O1255 Dy1241 2.339 . S
O1255 C1242 1.257 . S
C1256 C1259 1.344 . S
C1256 C1260 1.328 . S
C1256 C1262 1.516 . S
C1257 C1258 1.304 . S
C1257 C1261 1.323 . S
C1258 C1257 1.304 . S
C1258 C1259 1.371 . S
C1258 H1272 0.930 . S
C1259 C1256 1.344 . S
C1259 C1258 1.371 . S
C1259 H1273 0.931 . S
C1260 C1256 1.328 . S
C1260 C1261 1.433 . S
C1260 H1274 0.931 . S
C1261 C1257 1.323 . S
C1261 C1260 1.433 . S
C1261 H1275 0.933 . S
C1262 Dy1240 2.738 . S
C1262 O1245 1.255 . S
C1262 O1246 1.249 . S
C1262 C1256 1.516 . S
C1263 O1247 1.254 . S
C1263 O1248 1.257 . S
C1264 O1249 1.266 . S
C1264 O1250 1.236 . S
C1265 C1268 1.344 . S
C1265 C1269 1.328 . S
C1265 C1271 1.516 . S
C1266 C1267 1.304 . S
C1266 C1270 1.323 . S
C1267 C1266 1.304 . S
C1267 C1268 1.371 . S
C1267 H1276 0.930 . S
C1268 C1265 1.344 . S
C1268 C1267 1.371 . S
C1268 H1277 0.931 . S
C1269 C1265 1.328 . S
C1269 C1270 1.433 . S
C1269 H1278 0.931 . S
C1270 C1266 1.323 . S
C1270 C1269 1.433 . S
C1270 H1279 0.933 . S
C1271 Dy1241 2.738 . S
C1271 O1251 1.255 . S
C1271 O1252 1.249 . S
C1271 C1265 1.516 . S
H1272 C1258 0.930 . S
H1273 C1259 0.931 . S
H1274 C1260 0.931 . S
H1275 C1261 0.933 . S
H1276 C1267 0.930 . S
H1277 C1268 0.931 . S
H1278 C1269 0.931 . S
H1279 C1270 0.933 . S
C26 C144 0.831 . S
C24 C66 0.832 . S
C106 C64 0.831 . S
C104 C146 0.832 . S
C224 C186 0.831 . S
C226 C264 0.832 . S
C304 C266 0.831 . S
C184 C306 0.832 . S
C337 C453 0.831 . S
C377 C333 0.831 . S
C417 C373 0.831 . S
C457 C413 0.832 . S
C497 C533 0.831 . S
C537 C573 0.831 . S
C613 C577 0.831 . S
C493 C617 0.832 . S
C666 C784 0.831 . S
C664 C706 0.832 . S
C704 C746 0.831 . S
C786 C744 0.832 . S
C826 C864 0.831 . S
C904 C866 0.832 . S
C906 C944 0.831 . S
C824 C946 0.832 . S
C1093 C977 0.831 . S
C973 C1017 0.832 . S
C1057 C1013 0.831 . S
C1053 C1097 0.831 . S
C1173 C1137 0.831 . S
C1213 C1177 0.832 . S
C1253 C1217 0.831 . S
C1257 C1133 0.831 . S
C1106 C2 1.737 . S
C42 C346 1.736 . S
C82 C1026 1.736 . S
C122 C426 1.736 . S
C162 C1186 1.736 . S
C586 C202 1.736 . S
C1266 C242 1.737 . S
C282 C506 1.736 . S
C343 C777 1.736 . S
C17 C383 1.736 . S
C697 C423 1.736 . S
C97 C463 1.736 . S
C857 C503 1.736 . S
C257 C543 1.736 . S
C583 C937 1.737 . S
C623 C177 1.736 . S
C642 C466 1.736 . S
C682 C986 1.736 . S
C722 C386 1.737 . S
C762 C1066 1.736 . S
C802 C546 1.737 . S
C842 C1226 1.736 . S
C626 C882 1.736 . S
C922 C1146 1.736 . S
C137 C983 1.736 . S
C657 C1023 1.736 . S
C57 C1063 1.736 . S
C737 C1103 1.736 . S
C217 C1143 1.736 . S
C1183 C897 1.736 . S
C1223 C297 1.736 . S
C817 C1263 1.736 . S
C23 C183 2.917 1_545 S
C63 C223 2.917 . S
C103 C263 2.917 1_565 S
C303 C143 2.917 1_554 S
C482 C322 2.917 1_545 S
C522 C362 2.917 . S
C402 C562 2.917 1_545 S
C442 C602 2.917 1_554 S
C663 C823 2.917 . S
C863 C703 2.917 1_554 S
C903 C743 2.917 . S
C943 C783 2.917 . S
C1122 C962 2.917 . S
C1002 C1162 2.917 1_554 S
C1202 C1042 2.917 . S
C1082 C1242 2.917 . S
C293 C13 3.698 . S
C53 C173 3.698 . S
C93 C213 3.698 . S
C253 C133 3.698 . S
C344 C624 3.698 . S
C504 C384 3.697 . S
C544 C424 3.697 . S
C464 C584 3.698 . S
C653 C933 3.698 . S
C813 C693 3.698 . S
C853 C733 3.698 . S
C893 C773 3.698 . S
C984 C1264 3.697 . S
C1144 C1024 3.698 . S
C1064 C1184 3.698 . S
C1224 C1104 3.697 . S
