# Generated by pormake.
# Topology ooa, (5)-cn, num edge types: 1
# Building blocks:
#     Node 0, Type 0, BuildingBlock: XOMCOT_clean_sbu_0, # of connection points: 5
#     Node 1, Type 0, BuildingBlock: XOMCOT_clean_sbu_0, # of connection points: 5
#     Node 2, Type 0, BuildingBlock: XOMCOT_clean_sbu_0, # of connection points: 5
#     Node 3, Type 0, BuildingBlock: XOMCOT_clean_sbu_0, # of connection points: 5
#     Node 4, Type 0, BuildingBlock: XOMCOT_clean_sbu_0, # of connection points: 5
#     Node 5, Type 0, BuildingBlock: XOMCOT_clean_sbu_0, # of connection points: 5
#     Node 6, Type 0, BuildingBlock: XOMCOT_clean_sbu_0, # of connection points: 5
#     Node 7, Type 0, BuildingBlock: XOMCOT_clean_sbu_0, # of connection points: 5
#     Edge 8, Type (0, 0), BuildingBlock: XUDNAN_clean_linker_2, # of connection points: 2
#     Edge 9, Type (0, 0), BuildingBlock: XUDNAN_clean_linker_2, # of connection points: 2
#     Edge 10, Type (0, 0), BuildingBlock: XUDNAN_clean_linker_2, # of connection points: 2
#     Edge 11, Type (0, 0), BuildingBlock: XUDNAN_clean_linker_2, # of connection points: 2
#     Edge 12, Type (0, 0), BuildingBlock: XUDNAN_clean_linker_2, # of connection points: 2
#     Edge 13, Type (0, 0), BuildingBlock: XUDNAN_clean_linker_2, # of connection points: 2
#     Edge 14, Type (0, 0), BuildingBlock: XUDNAN_clean_linker_2, # of connection points: 2
#     Edge 15, Type (0, 0), BuildingBlock: XUDNAN_clean_linker_2, # of connection points: 2
#     Edge 16, Type (0, 0), BuildingBlock: XUDNAN_clean_linker_2, # of connection points: 2
#     Edge 17, Type (0, 0), BuildingBlock: XUDNAN_clean_linker_2, # of connection points: 2
#     Edge 18, Type (0, 0), BuildingBlock: XUDNAN_clean_linker_2, # of connection points: 2
#     Edge 19, Type (0, 0), BuildingBlock: XUDNAN_clean_linker_2, # of connection points: 2
#     Edge 20, Type (0, 0), BuildingBlock: XUDNAN_clean_linker_2, # of connection points: 2
#     Edge 21, Type (0, 0), BuildingBlock: XUDNAN_clean_linker_2, # of connection points: 2
#     Edge 22, Type (0, 0), BuildingBlock: XUDNAN_clean_linker_2, # of connection points: 2
#     Edge 23, Type (0, 0), BuildingBlock: XUDNAN_clean_linker_2, # of connection points: 2
#     Edge 24, Type (0, 0), BuildingBlock: XUDNAN_clean_linker_2, # of connection points: 2
#     Edge 25, Type (0, 0), BuildingBlock: XUDNAN_clean_linker_2, # of connection points: 2
#     Edge 26, Type (0, 0), BuildingBlock: XUDNAN_clean_linker_2, # of connection points: 2
#     Edge 27, Type (0, 0), BuildingBlock: XUDNAN_clean_linker_2, # of connection points: 2
# Relax obj value: 0.356
# Max RMSD: 0.214
# Mean RMSD: 0.214
data_MOF--net-ooa--node1-XOMCOT_clean_sbu_0--edge1-XUDNAN_clean_linker_2
_symmetry_space_group_name_H-M    P1
_symmetry_Int_Tables_number       1
_symmetry_cell_setting            triclinic
loop_
_symmetry_equiv_pos_as_xyz
'x, y, z'
_cell_length_a     29.187293
_cell_length_b     32.142809
_cell_length_c     47.470012
_cell_angle_alpha  89.878718
_cell_angle_beta   90.152738
_cell_angle_gamma 90.084107
loop_
_atom_site_label
_atom_site_type_symbol
_atom_site_fract_x
_atom_site_fract_y
_atom_site_fract_z
_atom_type_partial_charge
Co0 Co 0.08318 0.18083 0.06763 0.0
C1 C 1.01189 0.23576 0.04432 0.0
C2 C 0.06882 0.23075 0.01635 0.0
C3 C 0.03274 0.24861 1.00199 0.0
N4 N 0.05606 0.22293 0.04312 0.0
N5 N 0.99644 0.25129 0.01948 0.0
H6 H 0.99024 0.23044 0.06225 0.0
H7 H 0.10063 0.22046 1.00705 0.0
C8 C 0.16402 0.24141 0.05881 0.0
O9 O 0.13893 0.27061 0.04716 0.0
N10 N 0.10724 0.13776 0.09175 0.0
C11 C 0.08287 0.11734 0.11153 0.0
C12 C 0.11008 0.08765 0.12367 0.0
C13 C 0.1488 0.11947 0.09156 0.0
N14 N 0.15138 0.08899 0.11115 0.0
C15 C 1.01824 0.20039 0.11127 0.0
C16 C 0.08011 0.23935 0.14663 0.0
C17 C 0.03716 0.22821 0.15734 0.0
C18 C 1.00539 0.20989 0.13893 0.0
C19 C 0.0915 0.22965 0.11883 0.0
N20 N 0.06134 0.20908 0.10163 0.0
H21 H 0.9946 0.18289 0.09836 0.0
H22 H 0.12585 0.23658 0.11222 0.0
H23 H 0.04719 0.12251 0.11624 0.0
H24 H 0.17624 0.12793 0.07736 0.0
O25 O 0.03178 0.14383 0.05888 0.0
O26 O 0.0971 0.14782 0.03538 0.0
O27 O 0.14556 0.20853 0.06891 0.0
C28 C 0.05759 0.13013 0.03847 0.0
H29 H 0.0323 0.25531 0.97966 0.0
H30 H 0.09982 0.06568 0.1398 0.0
H31 H 0.10549 0.25417 0.15996 0.0
H32 H 0.97188 0.20041 0.14633 0.0
Co33 Co 0.47981 0.80347 0.07554 0.0
C34 C 0.56063 0.7626 0.05052 0.0
C35 C 0.50051 0.74971 0.02632 0.0
C36 C 0.53818 0.73478 1.01199 0.0
N37 N 0.51444 0.76645 0.05094 0.0
N38 N 0.57622 0.74318 0.0272 0.0
H39 H 0.58283 0.77682 0.0658 0.0
H40 H 0.46593 0.75104 0.01817 0.0
C41 C 0.40831 0.73781 0.06331 0.0
O42 O 0.43839 0.70864 0.06919 0.0
N43 N 0.44761 0.84141 0.09976 0.0
C44 C 0.46421 0.85592 0.12438 0.0
C45 C 0.43321 0.88314 0.13555 0.0
C46 C 0.40707 0.86063 0.09587 0.0
N47 N 0.39742 0.88609 0.11768 0.0
C48 C 0.53215 0.76533 0.11988 0.0
C49 C 0.45742 0.74771 0.15349 0.0
C50 C 0.50106 0.749 0.16586 0.0
C51 C 0.53886 0.75534 0.14822 0.0
C52 C 0.45221 0.75727 0.12486 0.0
N53 N 0.48916 0.7679 0.1086 0.0
H54 H 0.56141 0.77592 0.10831 0.0
H55 H 0.4178 0.76145 0.11701 0.0
H56 H 0.49698 0.84759 0.13343 0.0
H57 H 0.38532 0.85618 0.07762 0.0
O58 O 0.53284 0.83935 0.0789 0.0
O59 O 0.47902 0.84458 0.04601 0.0
O60 O 0.41963 0.77606 0.06529 0.0
C61 C 0.51627 0.85936 0.05726 0.0
H62 H 0.53763 0.72153 0.99106 0.0
H63 H 0.43721 0.90036 0.15498 0.0
H64 H 0.42707 0.74352 0.16626 0.0
H65 H 0.57333 0.7561 0.15671 0.0
Co66 Co 0.04846 0.28601 0.45962 0.0
C67 C 0.96413 0.24792 0.48497 0.0
C68 C 1.019 0.20393 0.48208 0.0
C69 C 0.98124 0.18423 0.49324 0.0
N70 N 1.00853 0.24399 0.47678 0.0
N71 N 0.94644 0.21175 0.49497 0.0
H72 H 0.94459 0.27628 0.4828 0.0
H73 H 0.0515 0.18941 0.47784 0.0
C74 C 0.1315 0.22645 0.46442 0.0
O75 O 0.12092 0.20437 0.44212 0.0
N76 N 0.08726 0.32866 0.44338 0.0
C77 C 0.07718 0.35202 0.42059 0.0
C78 C 0.10907 0.38331 0.41837 0.0
C79 C 0.12451 0.34656 0.45511 0.0
N80 N 0.1387 0.37999 0.44013 0.0
C81 C 1.00294 0.24633 0.41333 0.0
C82 C 0.07498 0.25149 0.37581 0.0
C83 C 0.03128 0.24156 0.36533 0.0
C84 C 0.99549 0.2373 0.38486 0.0
C85 C 0.08115 0.25959 0.40454 0.0
N86 N 0.04512 0.25817 0.42294 0.0
H87 H 0.97375 0.2466 0.42722 0.0
H88 H 0.11453 0.26993 0.41158 0.0
H89 H 0.04757 0.34755 0.40717 0.0
H90 H 0.13987 0.33613 0.47465 0.0
O91 O 0.99758 0.32345 0.45449 0.0
O92 O 0.04221 0.32084 0.49236 0.0
O93 O 0.10543 0.25567 0.47311 0.0
C94 C 1.01002 0.33994 0.47841 0.0
H95 H 0.97983 0.15191 0.49958 0.0
H96 H 0.10902 0.40786 0.40273 0.0
H97 H 0.1038 0.25575 0.36179 0.0
H98 H 0.96126 0.22888 0.37812 0.0
Co99 Co 0.47205 0.68032 0.46535 0.0
C100 C 0.5583 0.71754 0.48858 0.0
C101 C 0.50082 0.75752 0.49547 0.0
C102 C 0.5393 0.77612 0.50657 0.0
N103 N 0.51249 0.72077 0.48386 0.0
N104 N 0.5756 0.75109 0.5022 0.0
H105 H 0.5789 0.69159 0.48168 0.0
H106 H 0.46683 0.77033 0.49639 0.0
C107 C 0.39257 0.74246 0.47245 0.0
O108 O 0.40728 0.7683 0.45303 0.0
N109 N 0.43285 0.63926 0.44777 0.0
C110 C 0.44128 0.61903 0.42349 0.0
C111 C 0.4093 0.58797 0.42028 0.0
C112 C 0.39661 0.61965 0.45937 0.0
N113 N 0.38143 0.58825 0.44291 0.0
C114 C 0.51745 0.72102 0.41968 0.0
C115 C 0.44234 0.72606 0.38421 0.0
C116 C 0.48577 0.7357 0.37344 0.0
C117 C 0.52345 0.73389 0.39181 0.0
C118 C 0.4378 0.71343 0.41229 0.0
N119 N 0.47515 0.7107 0.42971 0.0
H120 H 0.54748 0.71672 0.43261 0.0
H121 H 0.40437 0.70382 0.41962 0.0
H122 H 0.46981 0.62545 0.40964 0.0
H123 H 0.38266 0.62739 0.4798 0.0
O124 O 0.52261 0.64297 0.45919 0.0
O125 O 0.47822 0.64334 0.49708 0.0
O126 O 0.41536 0.71003 0.4793 0.0
C127 C 0.51056 0.62528 0.48279 0.0
H128 H 0.54014 0.80562 0.51751 0.0
H129 H 0.40805 0.56559 0.40329 0.0
H130 H 0.41219 0.72718 0.37088 0.0
H131 H 0.55783 0.74006 0.38435 0.0
Co132 Co 0.98511 0.78678 0.95775 0.0
C133 C 0.07037 0.75428 0.98447 0.0
C134 C 1.01602 0.70932 0.98542 0.0
C135 C 0.05449 0.69203 0.9976 0.0
N136 N 0.02586 0.74845 0.97726 0.0
N137 N 0.08879 0.72029 0.99699 0.0
H138 H 0.08939 0.78238 0.98002 0.0
H139 H 0.98335 0.69404 0.98245 0.0
C140 C 0.90728 0.76089 0.99323 0.0
O141 O 0.92535 0.78453 1.01285 0.0
N142 N 0.94541 0.82521 0.93826 0.0
C143 C 0.95152 0.8397 0.91189 0.0
C144 C 0.92431 0.8741 0.90811 0.0
C145 C 0.91486 0.85106 0.95023 0.0
N146 N 0.90164 0.88149 0.93233 0.0
C147 C 0.03027 0.75081 0.91014 0.0
C148 C 0.95139 0.7223 0.88408 0.0
C149 C 0.99279 0.72095 0.86917 0.0
C150 C 0.0328 0.73474 0.88276 0.0
C151 C 0.95027 0.73885 0.9112 0.0
N152 N 0.98921 0.75363 0.92369 0.0
H153 H 0.06094 0.76287 0.92001 0.0
H154 H 0.91737 0.74237 0.92123 0.0
H155 H 0.97664 0.82815 0.89716 0.0
H156 H 0.90489 0.84908 0.97211 0.0
O157 O 0.03486 0.82562 0.95106 0.0
O158 O 0.98976 0.82585 0.9884 0.0
O159 O 0.92916 0.7547 0.97035 0.0
C160 C 1.0219 0.84404 0.97411 0.0
H161 H 0.05677 0.66096 1.0063 0.0
H162 H 0.92403 0.89389 0.88964 0.0
H163 H 0.91946 0.71283 0.87432 0.0
H164 H 0.06556 0.73397 0.87211 0.0
Co165 Co 0.5948 0.19777 0.96024 0.0
C166 C 0.51453 0.2212 0.9953 0.0
C167 C 0.54464 0.27447 0.9754 0.0
C168 C 0.50474 0.28665 0.98872 0.0
N169 N 0.5507 0.2333 0.97944 0.0
N170 N 0.48596 0.25303 1.00124 0.0
H171 H 0.50745 0.18935 1.00115 0.0
H172 H 0.56646 0.2939 0.9625 0.0
C173 C 0.6645 0.24802 0.98799 0.0
O174 O 0.64394 0.23679 1.01138 0.0
N175 N 0.63733 0.16207 0.94092 0.0
C176 C 0.62808 0.14051 0.91729 0.0
C177 C 0.66278 0.11262 0.91284 0.0
C178 C 0.67723 0.14673 0.95077 0.0
N179 N 0.69355 0.11627 0.93398 0.0
C180 C 0.53154 0.21646 0.91565 0.0
C181 C 0.59695 0.2444 0.87788 0.0
C182 C 0.55185 0.23879 0.8685 0.0
C183 C 0.51859 0.22582 0.88792 0.0
C184 C 0.60824 0.23569 0.9059 0.0
N185 N 0.576 0.22072 0.92413 0.0
H186 H 0.5063 0.2042 0.93011 0.0
H187 H 0.64363 0.23833 0.91238 0.0
H188 H 0.59681 0.14297 0.90514 0.0
H189 H 0.69248 0.15613 0.97057 0.0
O190 O 0.55354 0.15008 0.96306 0.0
O191 O 0.60657 0.16742 0.99432 0.0
O192 O 0.6452 0.24037 0.96436 0.0
C193 C 0.57585 0.14093 0.98613 0.0
H194 H 0.49022 0.31762 0.98868 0.0
H195 H 0.66333 0.08929 0.89644 0.0
H196 H 0.62348 0.25462 0.86351 0.0
H197 H 0.48337 0.22114 0.88138 0.0
Co198 Co 0.97059 0.67895 0.56555 0.0
C199 C 0.0549 0.72567 0.55344 0.0
C200 C 1.00031 0.74581 0.52661 0.0
C201 C 0.0406 0.7641 0.51755 0.0
N202 N 1.00923 0.72214 0.54948 0.0
N203 N 0.07492 0.75127 0.53454 0.0
H204 H 0.07416 0.70649 0.5678 0.0
H205 H 0.96759 0.7473 0.51593 0.0
C206 C 0.90006 0.74945 0.55941 0.0
O207 O 0.92894 0.77887 0.56681 0.0
N208 N 0.9338 0.63517 0.58123 0.0
C209 C 0.94451 0.61207 0.60403 0.0
C210 C 0.91286 0.58078 0.60659 0.0
C211 C 0.89638 0.61735 0.56987 0.0
N212 N 0.88282 0.5841 0.58508 0.0
C213 C 1.02023 0.69272 0.61739 0.0
C214 C 0.94446 0.71548 0.64849 0.0
C215 C 0.98535 0.7065 0.66261 0.0
C216 C 0.02406 0.69648 0.64672 0.0
C217 C 0.94221 0.712 0.61921 0.0
N218 N 0.97954 0.69995 0.60387 0.0
H219 H 0.04876 0.67964 0.60621 0.0
H220 H 0.90893 0.71472 0.60959 0.0
H221 H 0.97436 0.61648 0.6172 0.0
H222 H 0.88034 0.62777 0.55053 0.0
O223 O 1.02038 0.63861 0.56271 0.0
O224 O 0.96865 0.6522 0.52973 0.0
O225 O 0.91264 0.71153 0.55904 0.0
C226 C 1.00284 0.62967 0.53809 0.0
H227 H 0.04459 0.78359 0.4991 0.0
H228 H 0.91321 0.55627 0.62226 0.0
H229 H 0.91356 0.72237 0.66018 0.0
H230 H 0.05586 0.688 0.65704 0.0
Co231 Co 0.5552 0.28163 0.56461 0.0
C232 C 0.4695 0.23857 0.54962 0.0
C233 C 0.52468 0.21662 0.52424 0.0
C234 C 0.48403 0.20027 0.51391 0.0
N235 N 0.5156 0.24017 0.54705 0.0
N236 N 0.44936 0.21418 0.53006 0.0
H237 H 0.45018 0.25836 0.56339 0.0
H238 H 0.55794 0.21393 0.51444 0.0
C239 C 0.62503 0.20986 0.55874 0.0
O240 O 0.59545 0.17999 0.56392 0.0
N241 N 0.59286 0.32374 0.58157 0.0
C242 C 0.58278 0.34613 0.6047 0.0
C243 C 0.61488 0.37705 0.60757 0.0
C244 C 0.63033 0.34158 0.57038 0.0
N245 N 0.64449 0.37422 0.58591 0.0
C246 C 0.50111 0.2678 0.61425 0.0
C247 C 0.57225 0.24176 0.6484 0.0
C248 C 0.52985 0.25085 0.66095 0.0
C249 C 0.49356 0.26219 0.64304 0.0
C250 C 0.57794 0.24638 0.61922 0.0
N251 N 0.54281 0.26003 0.60245 0.0
H252 H 0.47428 0.28217 0.60218 0.0
H253 H 0.61195 0.24271 0.6108 0.0
H254 H 0.55295 0.34168 0.61781 0.0
H255 H 0.64579 0.33181 0.55079 0.0
O256 O 0.50722 0.32354 0.5609 0.0
O257 O 0.56031 0.30931 0.52912 0.0
O258 O 0.61263 0.24781 0.5594 0.0
C259 C 0.52654 0.33271 0.53688 0.0
H260 H 0.48018 0.18127 0.49526 0.0
H261 H 0.61494 0.40116 0.62346 0.0
H262 H 0.60187 0.23383 0.66105 0.0
H263 H 0.45985 0.26897 0.65124 0.0
H264 H 1.00434 0.06262 0.05301 0.0
H265 H 0.09004 0.11294 0.98661 0.0
H266 H 0.09034 0.04486 0.96299 0.0
H267 H 0.05751 0.96754 0.05877 0.0
H268 H 1.00679 0.93642 0.06401 0.0
H269 H 1.00702 -0.00963 0.0741 0.0
H270 H 0.93612 0.00456 0.04255 0.0
H271 H 0.93483 0.95041 0.0328 0.0
H272 H 0.93748 -0.01001 1.00592 0.0
H273 H 0.09011 0.97006 0.94978 0.0
H274 H 0.07893 0.89444 0.94371 0.0
H275 H 0.99294 0.89196 0.01821 0.0
C276 C 1.02153 0.05962 0.03293 0.0
C277 C 0.04697 0.09299 0.02152 0.0
C278 C 0.07023 0.08771 0.99562 0.0
C279 C 0.07078 0.04913 0.9821 0.0
C280 C 0.04757 0.01617 0.99461 0.0
C281 C 1.02239 0.0211 0.01904 0.0
C282 C 1.00218 0.97994 0.02855 0.0
C283 C 1.01942 0.96788 0.05811 0.0
C284 C 0.94953 0.98131 0.02738 0.0
C285 C 1.02129 0.95115 1.00622 0.0
C286 C 0.0473 0.97273 0.98684 0.0
C287 C 0.06935 0.95281 0.96463 0.0
C288 C 0.06324 0.90979 0.96153 0.0
C289 C 0.03533 0.88727 0.98054 0.0
C290 C 1.01481 0.90824 1.00344 0.0
H291 H 0.51525 0.07669 0.97515 0.0
H292 H 0.62663 0.1141 0.0305 0.0
H293 H 0.62577 0.04515 0.05286 0.0
H294 H 0.45453 0.01517 0.02798 0.0
H295 H 0.43678 0.976 1.00311 0.0
H296 H 0.44574 0.02877 0.9915 0.0
H297 H 0.50313 0.00246 0.95395 0.0
H298 H 0.49486 0.94968 0.96576 0.0
H299 H 0.55167 0.9717 0.96487 0.0
H300 H 0.61528 0.97195 0.0684 0.0
H301 H 0.58986 0.9005 0.07948 0.0
H302 H 0.48443 0.91005 0.01506 0.0
C303 C 0.53904 0.07045 0.99218 0.0
C304 C 0.57093 0.10083 1.00107 0.0
C305 C 0.60169 0.09145 0.02336 0.0
C306 C 0.60172 0.05224 0.03615 0.0
C307 C 0.57057 0.02272 0.02659 0.0
C308 C 0.53931 0.03139 1.00543 0.0
C309 C 0.50898 -0.00596 0.99964 0.0
C310 C 0.45853 0.0041 1.00594 0.0
C311 C 0.51504 0.97856 0.96925 0.0
C312 C 0.52835 0.96319 0.02074 0.0
C313 C 0.56406 0.98034 0.0359 0.0
C314 C 0.58725 0.95811 0.05674 0.0
C315 C 0.57273 0.9175 0.06279 0.0
C316 C 0.53528 0.89972 0.04812 0.0
C317 C 0.51337 0.92272 0.02652 0.0
H318 H 0.03883 0.55653 0.559 0.0
H319 H 0.98513 0.61448 0.48318 0.0
H320 H 0.97763 0.54576 0.46094 0.0
H321 H 0.10333 0.47193 0.52105 0.0
H322 H 0.09094 0.43459 0.54837 0.0
H323 H 0.09684 0.4889 0.557 0.0
H324 H 1.01648 0.48671 0.58015 0.0
H325 H 1.00956 0.43287 0.57061 0.0
H326 H 0.96767 0.4707 0.55949 0.0
H327 H 0.96514 0.47148 0.44943 0.0
H328 H 0.96595 0.3953 0.4444 0.0
H329 H 0.03132 0.38402 0.52636 0.0
C330 C 0.02742 0.55482 0.53731 0.0
C331 C 1.01266 0.59083 0.52277 0.0
C332 C 0.99674 0.58728 0.49466 0.0
C333 C 0.99197 0.54836 0.48191 0.0
C334 C 1.00394 0.51325 0.49738 0.0
C335 C 1.02284 0.51599 0.52406 0.0
C336 C 0.03226 0.473 0.536 0.0
C337 C 0.08391 0.46674 0.54089 0.0
C338 C 1.00485 0.4654 0.56317 0.0
C339 C 1.01477 0.44592 0.51211 0.0
C340 C 0.99805 0.46991 0.49025 0.0
C341 C 0.97879 0.45227 0.46621 0.0
C342 C 0.97884 0.40888 0.46372 0.0
C343 C 0.99865 0.38363 0.48498 0.0
C344 C 1.01569 0.40246 0.50983 0.0
H345 H 0.48369 0.57704 0.52761 0.0
H346 H 0.56494 0.57487 0.45111 0.0
H347 H 0.57175 0.49868 0.4551 0.0
H348 H 0.54694 0.49369 0.56419 0.0
H349 H 0.49583 0.47334 0.58043 0.0
H350 H 0.49989 0.52794 0.5722 0.0
H351 H 0.42452 0.52217 0.54337 0.0
H352 H 0.42107 0.46725 0.55071 0.0
H353 H 0.42094 0.48551 0.51478 0.0
H354 H 0.56397 0.42308 0.46466 0.0
H355 H 0.55648 0.3528 0.48463 0.0
H356 H 0.48262 0.40307 0.55615 0.0
C357 C 0.50395 0.56068 0.51211 0.0
C358 C 0.52386 0.58194 0.48905 0.0
C359 C 0.54966 0.55933 0.46905 0.0
C360 C 0.5533 0.51598 0.47096 0.0
C361 C 0.53131 0.49581 0.49313 0.0
C362 C 0.50821 0.51737 0.5138 0.0
C363 C 0.48815 0.48795 0.53557 0.0
C364 C 0.50896 0.49622 0.56483 0.0
C365 C 0.43555 0.49091 0.53613 0.0
C366 C 0.50365 0.44645 0.52387 0.0
C367 C 0.52777 0.45185 0.4991 0.0
C368 C 0.54555 0.41845 0.48417 0.0
C369 C 0.54077 0.37858 0.49562 0.0
C370 C 0.51898 0.37244 0.52196 0.0
C371 C 0.49885 0.40671 0.5358 0.0
H372 H 0.35157 0.92907 0.07704 0.0
H373 H 0.35592 0.90348 0.16675 0.0
H374 H 0.29429 0.95446 0.17455 0.0
H375 H 0.33325 0.03811 0.08257 0.0
H376 H 0.29431 0.04162 0.05314 0.0
H377 H 0.33734 0.00151 0.05396 0.0
H378 H 0.27468 0.94494 0.04809 0.0
H379 H 0.2315 0.9849 0.04683 0.0
H380 H 0.22724 0.94344 0.07231 0.0
H381 H 0.23498 0.00867 0.1732 0.0
H382 H 0.17649 0.06166 0.16238 0.0
H383 H 0.20974 0.05371 0.07359 0.0
C384 C 0.33885 0.93378 0.09819 0.0
C385 C 0.35842 0.91258 0.12136 0.0
C386 C 0.34157 0.91984 0.14883 0.0
C387 C 0.30662 0.94861 0.15345 0.0
C388 C 0.28892 0.96987 0.13033 0.0
C389 C 0.30402 0.96271 0.10321 0.0
C390 C 0.27933 -0.00951 0.08226 0.0
C391 C 0.31308 0.01966 0.0671 0.0
C392 C 0.25153 0.96438 0.06113 0.0
C393 C 0.24827 0.01444 0.10197 0.0
C394 C 0.2545 0.00187 0.12957 0.0
C395 C 0.22959 0.01876 0.15168 0.0
C396 C 0.19655 0.04874 0.14536 0.0
C397 C 0.18883 0.06159 0.11723 0.0
C398 C 0.21554 0.04473 0.0953 0.0
H399 H 0.1876 0.42616 0.40309 0.0
H400 H 0.17264 0.39893 0.49212 0.0
H401 H 0.23347 0.45018 0.50305 0.0
H402 H 0.30933 0.43981 0.40303 0.0
H403 H 0.30788 0.48172 0.37775 0.0
H404 H 0.26386 0.44243 0.3773 0.0
H405 H 0.20172 0.4996 0.38177 0.0
H406 H 0.24556 0.53907 0.38232 0.0
H407 H 0.20462 0.53592 0.41061 0.0
H408 H 0.29568 0.50612 0.50388 0.0
H409 H 0.35514 0.55935 0.49433 0.0
H410 H 0.32688 0.54992 0.40486 0.0
C411 C 0.19691 0.43103 0.42491 0.0
C412 C 0.17535 0.40848 0.44673 0.0
C413 C 0.18909 0.41541 0.475 0.0
C414 C 0.22336 0.44469 0.48143 0.0
C415 C 0.24356 0.46668 0.45933 0.0
C416 C 0.23086 0.46 0.43164 0.0
C417 C 0.25753 0.48749 0.41166 0.0
C418 C 0.28637 0.46129 0.39124 0.0
C419 C 0.22544 0.51728 0.39565 0.0
C420 C 0.28744 0.5107 0.43237 0.0
C421 C 0.27887 0.49851 0.4598 0.0
C422 C 0.30253 0.51593 0.48248 0.0
C423 C 0.33598 0.54633 0.47689 0.0
C424 C 0.34553 0.55878 0.44885 0.0
C425 C 0.32063 0.54075 0.42646 0.0
H426 H 0.85529 0.9295 0.89498 0.0
H427 H 0.88656 0.91616 0.98401 0.0
H428 H 0.84066 0.9787 0.99415 0.0
H429 H 0.86161 0.04262 0.89347 0.0
H430 H 0.81553 0.04708 0.86829 0.0
H431 H 0.85182 0.00178 0.86817 0.0
H432 H 0.78046 0.95419 0.87332 0.0
H433 H 0.744 -0.00074 0.87332 0.0
H434 H 0.74142 0.96267 0.9021 0.0
H435 H 0.78768 0.04126 0.9945 0.0
H436 H 0.73095 0.09649 0.98508 0.0
H437 H 0.74004 0.07097 0.89552 0.0
C438 C 0.85306 0.93989 0.91659 0.0
C439 C 0.87442 0.91764 0.93864 0.0
C440 C 0.86987 0.93208 0.96672 0.0
C441 C 0.84427 0.96792 0.97269 0.0
C442 C 0.82387 -0.01086 0.95034 0.0
C443 C 0.82815 0.97566 0.92285 0.0
C444 C 0.80204 0.00317 0.90262 0.0
C445 C 0.83471 0.02495 0.88192 0.0
C446 C 0.76477 0.97834 0.88693 0.0
C447 C 0.78143 0.03377 0.92306 0.0
C448 C 0.79456 0.02546 0.95048 0.0
C449 C 0.77764 0.04838 0.97307 0.0
C450 C 0.74562 0.07993 0.96748 0.0
C451 C 0.73089 0.08813 0.93951 0.0
C452 C 0.75019 0.06532 0.91712 0.0
H453 H 0.69617 0.41608 0.62337 0.0
H454 H 0.6737 0.39773 0.53393 0.0
H455 H 0.7325 0.45107 0.52339 0.0
H456 H 0.71021 0.52589 0.62078 0.0
H457 H 0.754 0.52693 0.64762 0.0
H458 H 0.71134 0.48642 0.64782 0.0
H459 H 0.77521 0.43036 0.64713 0.0
H460 H 0.81808 0.47069 0.64716 0.0
H461 H 0.81799 0.43187 0.61982 0.0
H462 H 0.79211 0.50864 0.52317 0.0
H463 H 0.85145 0.56176 0.53331 0.0
H464 H 0.83231 0.54184 0.62287 0.0
C465 C 0.70361 0.42333 0.60157 0.0
C466 C 0.68052 0.403 0.57947 0.0
C467 C 0.69152 0.41273 0.55117 0.0
C468 C 0.72453 0.44315 0.545 0.0
C469 C 0.7461 0.46318 0.56742 0.0
C470 C 0.73631 0.45334 0.59512 0.0
C471 C 0.76415 0.47907 0.61545 0.0
C472 C 0.73306 0.50618 0.634 0.0
C473 C 0.79573 0.45134 0.63344 0.0
C474 C 0.7911 0.50513 0.5949 0.0
C475 C 0.78022 0.49578 0.56728 0.0
C476 C 0.80094 0.51619 0.54472 0.0
C477 C 0.83424 0.54647 0.55065 0.0
C478 C 0.84638 0.55564 0.57887 0.0
C479 C 0.82404 0.535 0.60112 0.0
H480 H 0.21863 0.29151 0.02525 0.0
H481 H 0.22501 0.19512 0.08934 0.0
H482 H 0.30875 0.19127 0.08359 0.0
H483 H 0.30025 0.2477 0.98015 0.0
H484 H 0.32592 0.2962 0.96937 0.0
H485 H 0.267 0.29493 0.98043 0.0
H486 H 0.28401 0.35102 0.01812 0.0
H487 H 0.34302 0.35268 1.00705 0.0
H488 H 0.32924 0.34244 0.04341 0.0
H489 H 0.39061 0.19281 0.06796 0.0
H490 H 0.46552 0.20158 0.04461 0.0
H491 H 0.40771 0.29726 0.99076 0.0
C492 C 0.23777 0.27038 0.0386 0.0
C493 C 0.21501 0.24376 0.05788 0.0
C494 C 0.24142 0.21588 0.07445 0.0
C495 C 0.28915 0.21348 0.07137 0.0
C496 C 0.31035 0.23929 0.05169 0.0
C497 C 0.28566 0.26749 0.03573 0.0
C498 C 0.31672 0.28994 0.01498 0.0
C499 C 0.30156 0.28168 0.98443 0.0
C500 C 0.31834 0.3368 0.02128 0.0
C501 C 0.36244 0.26937 0.02141 0.0
C502 C 0.35792 0.24036 0.04275 0.0
C503 C 0.39466 0.21579 0.05146 0.0
C504 C 0.43705 0.22081 0.03795 0.0
C505 C 0.44268 0.25021 0.01595 0.0
C506 C 0.40479 0.2751 1.00785 0.0
H507 H 0.15055 0.78082 1.01193 0.0
H508 H 0.13409 0.647 1.00432 0.0
H509 H 0.21307 0.63705 0.02127 0.0
H510 H 0.26761 0.78448 0.98789 0.0
H511 H 0.28429 0.82508 1.01198 0.0
H512 H 0.22591 0.82182 0.99978 0.0
H513 H 0.19767 0.81899 0.05142 0.0
H514 H 0.25599 0.82216 0.06374 0.0
H515 H 0.21992 0.77964 0.07485 0.0
H516 H 0.2946 0.64128 0.03874 0.0
H517 H 0.37251 0.65973 0.05494 0.0
H518 H 0.33686 0.79071 0.05054 0.0
C519 C 0.16349 0.7494 1.01362 0.0
C520 C 0.1355 0.71471 1.00681 0.0
C521 C 0.15413 0.67416 1.00974 0.0
C522 C 0.19924 0.66813 0.01924 0.0
C523 C 0.2257 0.70291 0.02578 0.0
C524 C 0.20857 0.74278 0.02307 0.0
C525 C 0.24442 0.77485 0.03133 0.0
C526 C 0.25625 0.80322 1.00625 0.0
C527 C 0.22854 0.80041 0.05686 0.0
C528 C 0.28434 0.74675 0.039 0.0
C529 C 0.27278 0.70536 0.0357 0.0
C530 C 0.30402 0.67361 0.04141 0.0
C531 C 0.34826 0.68441 0.05063 0.0
C532 C 0.36106 0.72664 0.05406 0.0
C533 C 0.32836 0.7581 0.04817 0.0
H534 H 0.4032 0.20065 0.48038 0.0
H535 H 0.38393 0.21772 0.57022 0.0
H536 H 0.30032 0.21816 0.56333 0.0
H537 H 0.31408 0.26643 0.45801 0.0
H538 H 0.29574 0.23457 0.42887 0.0
H539 H 0.35427 0.23238 0.44083 0.0
H540 H 0.34717 0.15272 0.44794 0.0
H541 H 0.28859 0.15464 0.43588 0.0
H542 H 0.30193 0.13225 0.46976 0.0
H543 H 0.21963 0.22463 0.5465 0.0
H544 H 0.14621 0.23169 0.5209 0.0
H545 H 0.21545 0.20586 0.44217 0.0
C546 C 0.38141 0.2035 0.49866 0.0
C547 C 0.40043 0.2095 0.52588 0.0
C548 C 0.37042 0.21377 0.54915 0.0
C549 C 0.32277 0.21381 0.54547 0.0
C550 C 0.3052 0.20898 0.51838 0.0
C551 C 0.33344 0.20335 0.49538 0.0
C552 C 0.3054 0.20037 0.46842 0.0
C553 C 0.31814 0.23553 0.44783 0.0
C554 C 0.31112 0.15743 0.45469 0.0
C555 C 0.2572 0.20601 0.47986 0.0
C556 C 0.25802 0.21102 0.50876 0.0
C557 C 0.21841 0.21991 0.52395 0.0
C558 C 0.17689 0.22396 0.50924 0.0
C559 C 0.17501 0.21857 0.47968 0.0
C560 C 0.21569 0.20899 0.46488 0.0
H561 H 0.12187 0.7679 0.48582 0.0
H562 H 0.13923 0.74797 0.57567 0.0
H563 H 0.223 0.74926 0.56982 0.0
H564 H 0.21145 0.7045 0.46368 0.0
H565 H 0.2302 0.73747 0.43518 0.0
H566 H 0.17145 0.739 0.44652 0.0
H567 H 0.17797 0.81842 0.45484 0.0
H568 H 0.23678 0.81717 0.44336 0.0
H569 H 0.22268 0.83829 0.47739 0.0
H570 H 0.30385 0.74333 0.55374 0.0
H571 H 0.37751 0.73611 0.52863 0.0
H572 H 0.30981 0.76505 0.44964 0.0
C573 C 0.14322 0.76493 0.50438 0.0
C574 C 0.12372 0.75748 0.53123 0.0
C575 C 0.15317 0.75302 0.55484 0.0
C576 C 0.20088 0.754 0.55177 0.0
C577 C 0.21894 0.76012 0.52497 0.0
C578 C 0.19115 0.76615 0.50171 0.0
C579 C 0.2196 0.77021 0.47508 0.0
C580 C 0.20744 0.73574 0.45388 0.0
C581 C 0.21391 0.81361 0.46189 0.0
C582 C 0.26752 0.76439 0.48697 0.0
C583 C 0.26623 0.75858 0.51582 0.0
C584 C 0.30547 0.74883 0.53127 0.0
C585 C 0.34708 0.74468 0.51687 0.0
C586 C 0.34931 0.75089 0.4874 0.0
C587 C 0.30914 0.76142 0.47233 0.0
H588 H 0.65241 0.78155 0.04935 0.0
H589 H 0.60949 0.69212 0.98598 0.0
H590 H 0.69008 0.68417 0.97128 0.0
H591 H 0.73832 0.83099 1.00945 0.0
H592 H 0.77653 0.83795 0.03896 0.0
H593 H 0.71563 0.83574 0.04458 0.0
H594 H 0.72682 0.77523 0.08012 0.0
H595 H 0.78782 0.77719 0.07457 0.0
H596 H 0.75711 0.72913 0.06929 0.0
H597 H 0.77667 0.68878 0.96217 0.0
H598 H 0.85966 0.70501 0.9602 0.0
H599 H 0.84414 0.78822 0.03138 0.0
C600 C 0.65934 0.75967 0.03268 0.0
C601 C 0.62372 0.73748 0.01895 0.0
C602 C 0.63558 0.70996 0.99677 0.0
C603 C 0.68148 0.70499 0.98834 0.0
C604 C 0.71546 0.72747 1.0024 0.0
C605 C 0.7048 0.7541 0.02419 0.0
C606 C 0.74722 0.7753 0.03573 0.0
C607 C 0.74423 0.8228 0.03194 0.0
C608 C 0.75521 0.76349 0.06676 0.0
C609 C 0.78358 0.75671 0.01691 0.0
C610 C 0.76476 0.72924 0.99773 0.0
C611 C 0.79172 0.70989 0.97733 0.0
C612 C 0.83887 0.71924 0.97639 0.0
C613 C 0.85869 0.74747 0.99584 0.0
C614 C 0.83045 0.7659 0.01651 0.0
H615 H 0.72505 0.23395 0.03093 0.0
H616 H 0.71618 0.28626 0.9468 0.0
H617 H 0.80017 0.29819 0.94722 0.0
H618 H 0.81773 0.29965 0.05831 0.0
H619 H 0.84378 0.25714 0.07726 0.0
H620 H 0.78274 0.25768 0.07149 0.0
H621 H 0.78759 0.18508 0.04805 0.0
H622 H 0.84858 0.18436 0.05363 0.0
H623 H 0.82563 0.17752 0.01865 0.0
H624 H 0.88655 0.30113 0.95647 0.0
H625 H 0.96641 0.29143 0.972 0.0
H626 H 0.91769 0.23237 0.04875 0.0
C627 C 0.74044 0.249 1.01284 0.0
C628 C 0.71375 0.26 0.98902 0.0
C629 C 0.73576 0.27816 0.96543 0.0
C630 C 0.78346 0.28501 0.96551 0.0
C631 C 0.80882 0.2731 0.9892 0.0
C632 C 0.78795 0.25528 1.01237 0.0
C633 C 0.823 0.24175 0.03417 0.0
C634 C 0.81641 0.26548 0.06195 0.0
C635 C 0.82108 0.19438 0.03889 0.0
C636 C 0.86703 0.25457 0.01969 0.0
C637 C 0.85821 0.27301 0.99393 0.0
C638 C 0.8937 0.28663 0.9766 0.0
C639 C 0.9392 0.2807 0.98561 0.0
C640 C 0.94931 0.26069 1.01163 0.0
C641 C 0.91218 0.24809 0.02891 0.0
H642 H 0.83188 0.69408 0.54588 0.0
H643 H 0.85837 0.82632 0.55509 0.0
H644 H 0.77814 0.84107 0.54114 0.0
H645 H 0.75949 0.70124 0.48512 0.0
H646 H 0.72181 0.65992 0.49627 0.0
H647 H 0.78093 0.65993 0.50726 0.0
H648 H 0.75596 0.65613 0.55943 0.0
H649 H 0.69672 0.65595 0.54871 0.0
H650 H 0.71718 0.69471 0.5731 0.0
H651 H 0.69476 0.84098 0.5256 0.0
H652 H 0.61545 0.82668 0.5106 0.0
H653 H 0.64354 0.69411 0.51213 0.0
C654 C 0.82103 0.72625 0.54504 0.0
C655 C 0.85172 0.75911 0.55163 0.0
C656 C 0.83569 0.80063 0.55022 0.0
C657 C 0.79014 0.80927 0.54227 0.0
C658 C 0.76101 0.77607 0.53581 0.0
C659 C 0.77587 0.73538 0.53719 0.0
C660 C 0.73792 0.70522 0.52926 0.0
C661 C 0.75082 0.68011 0.50291 0.0
C662 C 0.72626 0.67631 0.55411 0.0
C663 C 0.69916 0.73528 0.52312 0.0
C664 C 0.7132 0.77599 0.52702 0.0
C665 C 0.68343 0.80921 0.52264 0.0
C666 C 0.63821 0.80069 0.51424 0.0
C667 C 0.62274 0.7592 0.51027 0.0
C668 C 0.65405 0.72617 0.51469 0.0
H669 H 0.88193 0.2678 0.51322 0.0
H670 H 0.90395 0.13618 0.49788 0.0
H671 H 0.82588 0.12104 0.51423 0.0
H672 H 0.81285 0.25582 0.57588 0.0
H673 H 0.77488 0.29813 0.56711 0.0
H674 H 0.83328 0.29882 0.55492 0.0
H675 H 0.80481 0.30707 0.50348 0.0
H676 H 0.74641 0.30657 0.51563 0.0
H677 H 0.76469 0.26984 0.48932 0.0
H678 H 0.74386 0.11977 0.53192 0.0
H679 H 0.66462 0.13354 0.54795 0.0
H680 H 0.69544 0.26564 0.55098 0.0
C681 C 0.87045 0.2358 0.51314 0.0
C682 C 0.89994 0.20327 0.50436 0.0
C683 C 0.88297 0.1618 0.50491 0.0
C684 C 0.8383 0.15278 0.51406 0.0
C685 C 0.8104 0.18545 0.52267 0.0
C686 C 0.82576 0.22618 0.52221 0.0
C687 C 0.7885 0.25561 0.53213 0.0
C688 C 0.80327 0.27843 0.55912 0.0
C689 C 0.77532 0.28659 0.50874 0.0
C690 C 0.74985 0.2251 0.53799 0.0
C691 C 0.76318 0.18474 0.53256 0.0
C692 C 0.73309 0.15131 0.53626 0.0
C693 C 0.68811 0.15939 0.54546 0.0
C694 C 0.67343 0.20061 0.55077 0.0
C695 C 0.7052 0.23369 0.54713 0.0
H696 H 0.08874 0.21361 0.32283 0.0
H697 H 0.95376 0.26652 0.33679 0.0
H698 H 0.93979 0.26687 0.28571 0.0
H699 H 0.11444 0.27534 0.26221 0.0
H700 H 0.14494 0.23457 0.24425 0.0
H701 H 0.14335 0.23541 0.28217 0.0
H702 H 0.11026 0.16057 0.28267 0.0
H703 H 0.11194 0.15943 0.24475 0.0
H704 H 0.05892 0.14925 0.26291 0.0
H705 H 0.94085 0.26333 0.23256 0.0
H706 H 0.9579 0.25679 0.1817 0.0
H707 H 0.09315 0.20957 0.20221 0.0
C708 C 0.05619 0.2253 0.31528 0.0
C709 C 1.02223 0.23951 0.33426 0.0
C710 C 0.98005 0.25429 0.32309 0.0
C711 C 0.97185 0.25505 0.29394 0.0
C712 C 1.00619 0.24124 0.27596 0.0
C713 C 0.04755 0.22669 0.28618 0.0
C714 C 0.07934 0.21495 0.26227 0.0
C715 C 0.1231 0.24167 0.26276 0.0
C716 C 0.09077 0.16827 0.26321 0.0
C717 C 0.04949 0.22545 0.23704 0.0
C718 C 1.00729 0.2403 0.24537 0.0
C719 C 0.97382 0.25174 0.2258 0.0
C720 C 0.98374 0.24784 0.19696 0.0
C721 C 0.02693 0.233 0.18792 0.0
C722 C 0.06008 0.2217 0.20838 0.0
H723 H 0.45527 0.70337 0.2068 0.0
H724 H 0.55788 0.80006 0.19585 0.0
H725 H 0.56436 0.80728 0.24722 0.0
H726 H 0.39859 0.75069 0.26556 0.0
H727 H 0.38764 0.70236 0.28368 0.0
H728 H 0.39186 0.7032 0.24582 0.0
H729 H 0.45573 0.64737 0.24784 0.0
H730 H 0.4514 0.6461 0.28567 0.0
H731 H 0.50586 0.65645 0.26925 0.0
H732 H 0.55848 0.80612 0.29961 0.0
H733 H 0.54293 0.79398 0.35003 0.0
H734 H 0.44434 0.69813 0.32776 0.0
C735 C 0.47926 0.72589 0.21521 0.0
C736 C 0.50658 0.75063 0.1971 0.0
C737 C 0.53745 0.77985 0.2091 0.0
C738 C 0.54107 0.78458 0.23834 0.0
C739 C 0.51353 0.75999 0.25551 0.0
C740 C 0.48339 0.73104 0.24449 0.0
C741 C 0.45769 0.70873 0.26782 0.0
C742 C 0.40587 0.71674 0.26558 0.0
C743 C 0.46832 0.66189 0.26763 0.0
C744 C 0.47804 0.72981 0.29357 0.0
C745 C 0.51009 0.75935 0.28593 0.0
C746 C 0.53361 0.78291 0.3059 0.0
C747 C 0.52465 0.77569 0.3345 0.0
C748 C 0.49249 0.74507 0.34297 0.0
C749 C 0.46866 0.72216 0.32207 0.0
H750 H 0.03387 0.74949 0.70327 0.0
H751 H 0.93569 0.64974 0.69133 0.0
H752 H 0.93265 0.63843 0.74279 0.0
H753 H 0.09447 0.7043 0.76405 0.0
H754 H 0.10083 0.75352 0.78177 0.0
H755 H 0.09857 0.7517 0.74384 0.0
H756 H 0.0307 0.80356 0.74383 0.0
H757 H 0.03296 0.80571 0.78169 0.0
H758 H 0.98028 0.7917 0.7642 0.0
H759 H 0.93777 0.63934 0.79509 0.0
H760 H 0.94625 0.6557 0.84555 0.0
H761 H 0.03856 0.7571 0.82458 0.0
C762 C 1.01221 0.72505 0.71163 0.0
C763 C 0.98506 0.70033 0.69352 0.0
C764 C 0.95658 0.66898 0.70501 0.0
C765 C 0.95486 0.6622 0.73414 0.0
C766 C 0.98167 0.68721 0.75155 0.0
C767 C 1.00957 0.71823 0.74084 0.0
C768 C 0.0323 0.74251 0.76448 0.0
C769 C 0.08466 0.73771 0.76347 0.0
C770 C 1.0182 0.78859 0.76349 0.0
C771 C 1.01232 0.7206 0.79004 0.0
C772 C 0.98372 0.68844 0.78201 0.0
C773 C 0.96014 0.66441 0.80166 0.0
C774 C 0.96504 0.67405 0.83029 0.0
C775 C 0.99296 0.70773 0.8391 0.0
C776 C 1.01756 0.73074 0.81861 0.0
H777 H 0.57539 0.20482 0.70224 0.0
H778 H 0.47358 0.30243 0.69184 0.0
H779 H 0.46534 0.30678 0.74306 0.0
H780 H 0.52714 0.15597 0.7642 0.0
H781 H 0.58205 0.14705 0.78058 0.0
H782 H 0.57732 0.14853 0.74273 0.0
H783 H 0.63922 0.20632 0.74075 0.0
H784 H 0.64415 0.205 0.77856 0.0
H785 H 0.63134 0.25328 0.76086 0.0
H786 H 0.46791 0.30137 0.7959 0.0
H787 H 0.48603 0.28968 0.84635 0.0
H788 H 0.59118 0.20134 0.82284 0.0
C789 C 0.55135 0.22723 0.71054 0.0
C790 C 0.52445 0.25251 0.69241 0.0
C791 C 0.49348 0.28131 0.70472 0.0
C792 C 0.4888 0.28447 0.73403 0.0
C793 C 0.51581 0.2592 0.7511 0.0
C794 C 0.54684 0.23144 0.73985 0.0
C795 C 0.57362 0.20962 0.76299 0.0
C796 C 0.56447 0.1625 0.76259 0.0
C797 C 0.62513 0.21914 0.76064 0.0
C798 C 0.55298 0.22973 0.78891 0.0
C799 C 0.51917 0.25779 0.78158 0.0
C800 C 0.49449 0.27961 0.80189 0.0
C801 C 0.50487 0.27278 0.83044 0.0
C802 C 0.54015 0.24495 0.83835 0.0
C803 C 0.56438 0.22315 0.81727 0.0
loop_
_geom_bond_atom_site_label_1
_geom_bond_atom_site_label_2
_geom_bond_distance
_geom_bond_site_symmetry_2
_ccdc_geom_bond_type
Co0 N4 2.148 . S
Co0 N10 2.128 . S
Co0 N20 2.194 . S
Co0 O25 2.351 . S
Co0 O26 2.155 . S
Co0 O27 2.096 . S
C1 N4 1.301 1_655 S
C1 N5 1.328 . S
C1 H6 0.930 . S
C2 C3 1.333 1_455 S
C2 N4 1.317 . S
C2 H7 0.930 . S
C3 C2 1.333 1_655 S
C3 N5 1.350 . S
C3 H29 0.931 . S
N4 Co0 2.148 . S
N4 C1 1.301 1_455 S
N4 C2 1.317 . S
N5 C1 1.328 . S
N5 C3 1.350 . S
H6 C1 0.930 . S
H7 C2 0.930 . S
C8 O9 1.224 . S
C8 O27 1.247 . S
O9 C8 1.224 . S
N10 Co0 2.128 . S
N10 C11 1.355 . S
N10 C13 1.311 . S
C11 N10 1.355 . S
C11 C12 1.363 . S
C11 H23 0.929 . S
C12 C11 1.363 . S
C12 N14 1.375 . S
C12 H30 0.931 . S
C13 N10 1.311 . S
C13 N14 1.347 . S
C13 H24 0.929 . S
N14 C12 1.375 . S
N14 C13 1.347 . S
C15 C18 1.365 . S
C15 N20 1.328 . S
C15 H21 0.929 1_455 S
C16 C17 1.362 . S
C16 C19 1.378 . S
C16 H31 0.929 . S
C17 C16 1.362 . S
C17 C18 1.366 . S
C18 C15 1.365 . S
C18 C17 1.366 . S
C18 H32 0.930 1_455 S
C19 C16 1.378 . S
C19 N20 1.315 . S
C19 H22 0.930 . S
N20 Co0 2.194 . S
N20 C15 1.328 . S
N20 C19 1.315 . S
H21 C15 0.929 1_655 S
H22 C19 0.930 . S
H23 C11 0.929 . S
H24 C13 0.929 . S
O25 Co0 2.351 . S
O25 C28 1.244 . S
O26 Co0 2.155 . S
O26 C28 1.240 . S
O27 Co0 2.096 . S
O27 C8 1.247 . S
C28 O25 1.244 . S
C28 O26 1.240 . S
H29 C3 0.931 . S
H30 C12 0.931 . S
H31 C16 0.929 . S
H32 C18 0.930 1_655 S
Co33 N37 2.148 . S
Co33 N43 2.128 . S
Co33 N53 2.194 . S
Co33 O58 2.351 . S
Co33 O59 2.155 . S
Co33 O60 2.096 . S
C34 N37 1.301 . S
C34 N38 1.328 . S
C34 H39 0.930 . S
C35 C36 1.333 . S
C35 N37 1.317 . S
C35 H40 0.930 . S
C36 C35 1.333 . S
C36 N38 1.350 . S
C36 H62 0.931 . S
N37 Co33 2.148 . S
N37 C34 1.301 . S
N37 C35 1.317 . S
N38 C34 1.328 . S
N38 C36 1.350 . S
H39 C34 0.930 . S
H40 C35 0.930 . S
C41 O42 1.224 . S
C41 O60 1.247 . S
O42 C41 1.224 . S
N43 Co33 2.128 . S
N43 C44 1.355 . S
N43 C46 1.311 . S
C44 N43 1.355 . S
C44 C45 1.363 . S
C44 H56 0.929 . S
C45 C44 1.363 . S
C45 N47 1.375 . S
C45 H63 0.931 . S
C46 N43 1.311 . S
C46 N47 1.347 . S
C46 H57 0.929 . S
N47 C45 1.375 . S
N47 C46 1.347 . S
C48 C51 1.365 . S
C48 N53 1.328 . S
C48 H54 0.929 . S
C49 C50 1.362 . S
C49 C52 1.378 . S
C49 H64 0.929 . S
C50 C49 1.362 . S
C50 C51 1.366 . S
C51 C48 1.365 . S
C51 C50 1.366 . S
C51 H65 0.930 . S
C52 C49 1.378 . S
C52 N53 1.315 . S
C52 H55 0.930 . S
N53 Co33 2.194 . S
N53 C48 1.328 . S
N53 C52 1.315 . S
H54 C48 0.929 . S
H55 C52 0.930 . S
H56 C44 0.929 . S
H57 C46 0.929 . S
O58 Co33 2.351 . S
O58 C61 1.244 . S
O59 Co33 2.155 . S
O59 C61 1.240 . S
O60 Co33 2.096 . S
O60 C41 1.247 . S
C61 O58 1.244 . S
C61 O59 1.240 . S
H62 C36 0.931 . S
H63 C45 0.931 . S
H64 C49 0.929 . S
H65 C51 0.930 . S
Co66 N70 2.148 . S
Co66 N76 2.128 . S
Co66 N86 2.194 . S
Co66 O91 2.351 . S
Co66 O92 2.155 . S
Co66 O93 2.096 . S
C67 N70 1.301 1_655 S
C67 N71 1.328 . S
C67 H72 0.930 . S
C68 C69 1.333 1_455 S
C68 N70 1.317 . S
C68 H73 0.930 . S
C69 C68 1.333 1_655 S
C69 N71 1.350 . S
C69 H95 0.931 . S
N70 Co66 2.148 . S
N70 C67 1.301 1_455 S
N70 C68 1.317 . S
N71 C67 1.328 . S
N71 C69 1.350 . S
H72 C67 0.930 . S
H73 C68 0.930 . S
C74 O75 1.224 . S
C74 O93 1.247 . S
O75 C74 1.224 . S
N76 Co66 2.128 . S
N76 C77 1.355 . S
N76 C79 1.311 . S
C77 N76 1.355 . S
C77 C78 1.363 . S
C77 H89 0.929 . S
C78 C77 1.363 . S
C78 N80 1.375 . S
C78 H96 0.931 . S
C79 N76 1.311 . S
C79 N80 1.347 . S
C79 H90 0.929 . S
N80 C78 1.375 . S
N80 C79 1.347 . S
C81 C84 1.365 . S
C81 N86 1.328 . S
C81 H87 0.929 1_455 S
C82 C83 1.362 . S
C82 C85 1.378 . S
C82 H97 0.929 . S
C83 C82 1.362 . S
C83 C84 1.366 . S
C84 C81 1.365 . S
C84 C83 1.366 . S
C84 H98 0.930 1_455 S
C85 C82 1.378 . S
C85 N86 1.315 . S
C85 H88 0.930 . S
N86 Co66 2.194 . S
N86 C81 1.328 . S
N86 C85 1.315 . S
H87 C81 0.929 1_655 S
H88 C85 0.930 . S
H89 C77 0.929 . S
H90 C79 0.929 . S
O91 Co66 2.351 . S
O91 C94 1.244 . S
O92 Co66 2.155 . S
O92 C94 1.240 . S
O93 Co66 2.096 . S
O93 C74 1.247 . S
C94 O91 1.244 . S
C94 O92 1.240 . S
H95 C69 0.931 . S
H96 C78 0.931 . S
H97 C82 0.929 . S
H98 C84 0.930 1_655 S
Co99 N103 2.148 . S
Co99 N109 2.128 . S
Co99 N119 2.194 . S
Co99 O124 2.351 . S
Co99 O125 2.155 . S
Co99 O126 2.096 . S
C100 N103 1.301 . S
C100 N104 1.328 . S
C100 H105 0.930 . S
C101 C102 1.333 . S
C101 N103 1.317 . S
C101 H106 0.930 . S
C102 C101 1.333 . S
C102 N104 1.350 . S
C102 H128 0.931 . S
N103 Co99 2.148 . S
N103 C100 1.301 . S
N103 C101 1.317 . S
N104 C100 1.328 . S
N104 C102 1.350 . S
H105 C100 0.930 . S
H106 C101 0.930 . S
C107 O108 1.224 . S
C107 O126 1.247 . S
O108 C107 1.224 . S
N109 Co99 2.128 . S
N109 C110 1.355 . S
N109 C112 1.311 . S
C110 N109 1.355 . S
C110 C111 1.363 . S
C110 H122 0.929 . S
C111 C110 1.363 . S
C111 N113 1.375 . S
C111 H129 0.931 . S
C112 N109 1.311 . S
C112 N113 1.347 . S
C112 H123 0.929 . S
N113 C111 1.375 . S
N113 C112 1.347 . S
C114 C117 1.365 . S
C114 N119 1.328 . S
C114 H120 0.929 . S
C115 C116 1.362 . S
C115 C118 1.378 . S
C115 H130 0.929 . S
C116 C115 1.362 . S
C116 C117 1.366 . S
C117 C114 1.365 . S
C117 C116 1.366 . S
C117 H131 0.930 . S
C118 C115 1.378 . S
C118 N119 1.315 . S
C118 H121 0.930 . S
N119 Co99 2.194 . S
N119 C114 1.328 . S
N119 C118 1.315 . S
H120 C114 0.929 . S
H121 C118 0.930 . S
H122 C110 0.929 . S
H123 C112 0.929 . S
O124 Co99 2.351 . S
O124 C127 1.244 . S
O125 Co99 2.155 . S
O125 C127 1.240 . S
O126 Co99 2.096 . S
O126 C107 1.247 . S
C127 O124 1.244 . S
C127 O125 1.240 . S
H128 C102 0.931 . S
H129 C111 0.931 . S
H130 C115 0.929 . S
H131 C117 0.930 . S
Co132 N136 2.148 . S
Co132 N142 2.128 . S
Co132 N152 2.194 . S
Co132 O157 2.351 . S
Co132 O158 2.155 . S
Co132 O159 2.096 . S
C133 N136 1.301 1_455 S
C133 N137 1.328 . S
C133 H138 0.930 . S
C134 C135 1.333 1_655 S
C134 N136 1.317 . S
C134 H139 0.930 . S
C135 C134 1.333 1_455 S
C135 N137 1.350 . S
C135 H161 0.931 . S
N136 Co132 2.148 . S
N136 C133 1.301 1_655 S
N136 C134 1.317 . S
N137 C133 1.328 . S
N137 C135 1.350 . S
H138 C133 0.930 . S
H139 C134 0.930 . S
C140 O141 1.224 . S
C140 O159 1.247 . S
O141 C140 1.224 . S
N142 Co132 2.128 . S
N142 C143 1.355 . S
N142 C145 1.311 . S
C143 N142 1.355 . S
C143 C144 1.363 . S
C143 H155 0.929 . S
C144 C143 1.363 . S
C144 N146 1.375 . S
C144 H162 0.931 . S
C145 N142 1.311 . S
C145 N146 1.347 . S
C145 H156 0.929 . S
N146 C144 1.375 . S
N146 C145 1.347 . S
C147 C150 1.365 . S
C147 N152 1.328 . S
C147 H153 0.929 1_655 S
C148 C149 1.362 . S
C148 C151 1.378 . S
C148 H163 0.929 . S
C149 C148 1.362 . S
C149 C150 1.366 . S
C150 C147 1.365 . S
C150 C149 1.366 . S
C150 H164 0.930 1_655 S
C151 C148 1.378 . S
C151 N152 1.315 . S
C151 H154 0.930 . S
N152 Co132 2.194 . S
N152 C147 1.328 . S
N152 C151 1.315 . S
H153 C147 0.929 1_455 S
H154 C151 0.930 . S
H155 C143 0.929 . S
H156 C145 0.929 . S
O157 Co132 2.351 . S
O157 C160 1.244 . S
O158 Co132 2.155 . S
O158 C160 1.240 . S
O159 Co132 2.096 . S
O159 C140 1.247 . S
C160 O157 1.244 . S
C160 O158 1.240 . S
H161 C135 0.931 . S
H162 C144 0.931 . S
H163 C148 0.929 . S
H164 C150 0.930 1_455 S
Co165 N169 2.148 . S
Co165 N175 2.128 . S
Co165 N185 2.194 . S
Co165 O190 2.351 . S
Co165 O191 2.155 . S
Co165 O192 2.096 . S
C166 N169 1.301 . S
C166 N170 1.328 . S
C166 H171 0.930 . S
C167 C168 1.333 . S
C167 N169 1.317 . S
C167 H172 0.930 . S
C168 C167 1.333 . S
C168 N170 1.350 . S
C168 H194 0.931 . S
N169 Co165 2.148 . S
N169 C166 1.301 . S
N169 C167 1.317 . S
N170 C166 1.328 . S
N170 C168 1.350 . S
H171 C166 0.930 . S
H172 C167 0.930 . S
C173 O174 1.224 . S
C173 O192 1.247 . S
O174 C173 1.224 . S
N175 Co165 2.128 . S
N175 C176 1.355 . S
N175 C178 1.311 . S
C176 N175 1.355 . S
C176 C177 1.363 . S
C176 H188 0.929 . S
C177 C176 1.363 . S
C177 N179 1.375 . S
C177 H195 0.931 . S
C178 N175 1.311 . S
C178 N179 1.347 . S
C178 H189 0.929 . S
N179 C177 1.375 . S
N179 C178 1.347 . S
C180 C183 1.365 . S
C180 N185 1.328 . S
C180 H186 0.929 . S
C181 C182 1.362 . S
C181 C184 1.378 . S
C181 H196 0.929 . S
C182 C181 1.362 . S
C182 C183 1.366 . S
C183 C180 1.365 . S
C183 C182 1.366 . S
C183 H197 0.930 . S
C184 C181 1.378 . S
C184 N185 1.315 . S
C184 H187 0.930 . S
N185 Co165 2.194 . S
N185 C180 1.328 . S
N185 C184 1.315 . S
H186 C180 0.929 . S
H187 C184 0.930 . S
H188 C176 0.929 . S
H189 C178 0.929 . S
O190 Co165 2.351 . S
O190 C193 1.244 . S
O191 Co165 2.155 . S
O191 C193 1.240 . S
O192 Co165 2.096 . S
O192 C173 1.247 . S
C193 O190 1.244 . S
C193 O191 1.240 . S
H194 C168 0.931 . S
H195 C177 0.931 . S
H196 C181 0.929 . S
H197 C183 0.930 . S
Co198 N202 2.148 . S
Co198 N208 2.128 . S
Co198 N218 2.194 . S
Co198 O223 2.351 . S
Co198 O224 2.155 . S
Co198 O225 2.096 . S
C199 N202 1.301 1_455 S
C199 N203 1.328 . S
C199 H204 0.930 . S
C200 C201 1.333 1_655 S
C200 N202 1.317 . S
C200 H205 0.930 . S
C201 C200 1.333 1_455 S
C201 N203 1.350 . S
C201 H227 0.931 . S
N202 Co198 2.148 . S
N202 C199 1.301 1_655 S
N202 C200 1.317 . S
N203 C199 1.328 . S
N203 C201 1.350 . S
H204 C199 0.930 . S
H205 C200 0.930 . S
C206 O207 1.224 . S
C206 O225 1.247 . S
O207 C206 1.224 . S
N208 Co198 2.128 . S
N208 C209 1.355 . S
N208 C211 1.311 . S
C209 N208 1.355 . S
C209 C210 1.363 . S
C209 H221 0.929 . S
C210 C209 1.363 . S
C210 N212 1.375 . S
C210 H228 0.931 . S
C211 N208 1.311 . S
C211 N212 1.347 . S
C211 H222 0.929 . S
N212 C210 1.375 . S
N212 C211 1.347 . S
C213 C216 1.365 . S
C213 N218 1.328 . S
C213 H219 0.929 1_655 S
C214 C215 1.362 . S
C214 C217 1.378 . S
C214 H229 0.929 . S
C215 C214 1.362 . S
C215 C216 1.366 . S
C216 C213 1.365 . S
C216 C215 1.366 . S
C216 H230 0.930 1_655 S
C217 C214 1.378 . S
C217 N218 1.315 . S
C217 H220 0.930 . S
N218 Co198 2.194 . S
N218 C213 1.328 . S
N218 C217 1.315 . S
H219 C213 0.929 1_455 S
H220 C217 0.930 . S
H221 C209 0.929 . S
H222 C211 0.929 . S
O223 Co198 2.351 . S
O223 C226 1.244 . S
O224 Co198 2.155 . S
O224 C226 1.240 . S
O225 Co198 2.096 . S
O225 C206 1.247 . S
C226 O223 1.244 . S
C226 O224 1.240 . S
H227 C201 0.931 . S
H228 C210 0.931 . S
H229 C214 0.929 . S
H230 C216 0.930 1_455 S
Co231 N235 2.148 . S
Co231 N241 2.128 . S
Co231 N251 2.194 . S
Co231 O256 2.351 . S
Co231 O257 2.155 . S
Co231 O258 2.096 . S
C232 N235 1.301 . S
C232 N236 1.328 . S
C232 H237 0.930 . S
C233 C234 1.333 . S
C233 N235 1.317 . S
C233 H238 0.930 . S
C234 C233 1.333 . S
C234 N236 1.350 . S
C234 H260 0.931 . S
N235 Co231 2.148 . S
N235 C232 1.301 . S
N235 C233 1.317 . S
N236 C232 1.328 . S
N236 C234 1.350 . S
H237 C232 0.930 . S
H238 C233 0.930 . S
C239 O240 1.224 . S
C239 O258 1.247 . S
O240 C239 1.224 . S
N241 Co231 2.128 . S
N241 C242 1.355 . S
N241 C244 1.311 . S
C242 N241 1.355 . S
C242 C243 1.363 . S
C242 H254 0.929 . S
C243 C242 1.363 . S
C243 N245 1.375 . S
C243 H261 0.931 . S
C244 N241 1.311 . S
C244 N245 1.347 . S
C244 H255 0.929 . S
N245 C243 1.375 . S
N245 C244 1.347 . S
C246 C249 1.365 . S
C246 N251 1.328 . S
C246 H252 0.929 . S
C247 C248 1.362 . S
C247 C250 1.378 . S
C247 H262 0.929 . S
C248 C247 1.362 . S
C248 C249 1.366 . S
C249 C246 1.365 . S
C249 C248 1.366 . S
C249 H263 0.930 . S
C250 C247 1.378 . S
C250 N251 1.315 . S
C250 H253 0.930 . S
N251 Co231 2.194 . S
N251 C246 1.328 . S
N251 C250 1.315 . S
H252 C246 0.929 . S
H253 C250 0.930 . S
H254 C242 0.929 . S
H255 C244 0.929 . S
O256 Co231 2.351 . S
O256 C259 1.244 . S
O257 Co231 2.155 . S
O257 C259 1.240 . S
O258 Co231 2.096 . S
O258 C239 1.247 . S
C259 O256 1.244 . S
C259 O257 1.240 . S
H260 C234 0.931 . S
H261 C243 0.931 . S
H262 C247 0.929 . S
H263 C249 0.930 . S
H264 C276 0.931 . S
H265 C278 0.930 1_556 S
H266 C279 0.930 . S
H267 C283 0.959 . S
H268 C283 0.959 . S
H269 C283 0.961 . S
H270 C284 0.960 . S
H271 C284 0.961 . S
H272 C284 0.959 . S
H273 C287 0.929 1_545 S
H274 C288 0.930 1_455 S
H275 C290 0.930 1_554 S
C276 H264 0.931 . S
C276 C277 1.399 . S
C276 C281 1.399 . S
C277 C276 1.399 . S
C277 C278 1.376 . S
C278 H265 0.930 1_554 S
C278 C277 1.376 . S
C278 C279 1.388 1_554 S
C279 H266 0.930 . S
C279 C278 1.388 1_556 S
C279 C280 1.390 . S
C280 C279 1.390 . S
C280 C281 1.394 1_556 S
C280 C286 1.465 1_545 S
C281 C276 1.399 . S
C281 C280 1.394 1_554 S
C281 C282 1.516 1_545 S
C282 C281 1.516 1_565 S
C282 C283 1.502 1_655 S
C282 C284 1.561 . S
C282 C285 1.506 1_554 S
C283 H267 0.959 . S
C283 H268 0.959 . S
C283 H269 0.961 . S
C283 C282 1.502 1_455 S
C284 H270 0.960 . S
C284 H271 0.961 . S
C284 H272 0.959 . S
C284 C282 1.561 . S
C285 C282 1.506 1_556 S
C285 C286 1.410 . S
C285 C290 1.396 . S
C286 C280 1.465 1_565 S
C286 C285 1.410 . S
C286 C287 1.399 . S
C287 H273 0.929 1_565 S
C287 C286 1.399 . S
C287 C288 1.387 . S
C288 H274 0.930 1_655 S
C288 C287 1.387 . S
C288 C289 1.389 . S
C289 C288 1.389 . S
C289 C290 1.387 . S
C290 H275 0.930 1_556 S
C290 C285 1.396 . S
C290 C289 1.387 . S
H291 C303 0.930 . S
H292 C305 0.930 . S
H293 C306 0.930 . S
H294 C310 0.959 . S
H295 C310 0.959 . S
H296 C310 0.961 . S
H297 C311 0.960 . S
H298 C311 0.961 . S
H299 C311 0.959 . S
H300 C314 0.929 . S
H301 C315 0.931 . S
H302 C317 0.929 1_556 S
C303 H291 0.930 . S
C303 C304 1.399 . S
C303 C308 1.399 . S
C304 C303 1.399 . S
C304 C305 1.376 . S
C305 H292 0.930 . S
C305 C304 1.376 . S
C305 C306 1.388 1_556 S
C306 H293 0.930 . S
C306 C305 1.388 1_554 S
C306 C307 1.390 . S
C307 C306 1.390 . S
C307 C308 1.394 1_554 S
C307 C313 1.465 1_545 S
C308 C303 1.399 . S
C308 C307 1.394 1_556 S
C308 C309 1.516 1_545 S
C309 C308 1.516 1_565 S
C309 C310 1.502 . S
C309 C311 1.561 . S
C309 C312 1.491 1_556 S
C310 H294 0.959 . S
C310 H295 0.959 . S
C310 H296 0.961 . S
C310 C309 1.502 . S
C311 H297 0.960 . S
C311 H298 0.961 . S
C311 H299 0.959 . S
C311 C309 1.561 . S
C312 C309 1.491 1_554 S
C312 C313 1.419 . S
C312 C317 1.404 . S
C313 C307 1.465 1_565 S
C313 C312 1.419 . S
C313 C314 1.399 . S
C314 H300 0.929 . S
C314 C313 1.399 . S
C314 C315 1.385 . S
C315 H301 0.931 . S
C315 C314 1.385 . S
C315 C316 1.389 . S
C316 C315 1.389 . S
C316 C317 1.387 . S
C317 H302 0.929 1_554 S
C317 C312 1.404 . S
C317 C316 1.387 . S
H318 C330 0.930 . S
H319 C332 0.930 . S
H320 C333 0.930 . S
H321 C337 0.959 . S
H322 C337 0.959 . S
H323 C337 0.961 . S
H324 C338 0.960 . S
H325 C338 0.961 . S
H326 C338 0.959 . S
H327 C341 0.929 . S
H328 C342 0.931 . S
H329 C344 0.928 1_455 S
C330 H318 0.930 . S
C330 C331 1.399 1_455 S
C330 C335 1.399 1_455 S
C331 C330 1.399 1_655 S
C331 C332 1.376 . S
C332 H319 0.930 . S
C332 C331 1.376 . S
C332 C333 1.388 . S
C333 H320 0.930 . S
C333 C332 1.388 . S
C333 C334 1.390 . S
C334 C333 1.390 . S
C334 C335 1.394 . S
C334 C340 1.465 . S
C335 C330 1.399 1_655 S
C335 C334 1.394 . S
C335 C336 1.516 . S
C336 C335 1.516 . S
C336 C337 1.502 1_655 S
C336 C338 1.561 . S
C336 C339 1.526 . S
C337 H321 0.959 . S
C337 H322 0.959 . S
C337 H323 0.961 . S
C337 C336 1.502 1_455 S
C338 H324 0.960 . S
C338 H325 0.961 . S
C338 H326 0.959 . S
C338 C336 1.561 . S
C339 C336 1.526 . S
C339 C340 1.396 . S
C339 C344 1.391 . S
C340 C334 1.465 . S
C340 C339 1.396 . S
C340 C341 1.399 . S
C341 H327 0.929 . S
C341 C340 1.399 . S
C341 C342 1.385 . S
C342 H328 0.931 . S
C342 C341 1.385 . S
C342 C343 1.389 . S
C343 C342 1.389 . S
C343 C344 1.387 . S
C344 H329 0.928 1_655 S
C344 C339 1.391 . S
C344 C343 1.387 . S
H345 C357 0.930 . S
H346 C359 0.930 . S
H347 C360 0.930 . S
H348 C364 0.959 . S
H349 C364 0.959 . S
H350 C364 0.961 . S
H351 C365 0.960 . S
H352 C365 0.961 . S
H353 C365 0.959 . S
H354 C368 0.929 . S
H355 C369 0.931 . S
H356 C371 0.930 . S
C357 H345 0.930 . S
C357 C358 1.399 . S
C357 C362 1.399 . S
C358 C357 1.399 . S
C358 C359 1.376 . S
C359 H346 0.930 . S
C359 C358 1.376 . S
C359 C360 1.388 . S
C360 H347 0.930 . S
C360 C359 1.388 . S
C360 C361 1.390 . S
C361 C360 1.390 . S
C361 C362 1.394 . S
C361 C367 1.465 . S
C362 C357 1.399 . S
C362 C361 1.394 . S
C362 C363 1.516 . S
C363 C362 1.516 . S
C363 C364 1.502 . S
C363 C365 1.561 . S
C363 C366 1.526 . S
C364 H348 0.959 . S
C364 H349 0.959 . S
C364 H350 0.961 . S
C364 C363 1.502 . S
C365 H351 0.960 . S
C365 H352 0.961 . S
C365 H353 0.959 . S
C365 C363 1.561 . S
C366 C363 1.526 . S
C366 C367 1.396 . S
C366 C371 1.390 . S
C367 C361 1.465 . S
C367 C366 1.396 . S
C367 C368 1.399 . S
C368 H354 0.929 . S
C368 C367 1.399 . S
C368 C369 1.385 . S
C369 H355 0.931 . S
C369 C368 1.385 . S
C369 C370 1.389 . S
C370 C369 1.389 . S
C370 C371 1.387 . S
C371 H356 0.930 . S
C371 C366 1.390 . S
C371 C370 1.387 . S
H372 C384 0.930 . S
H373 C386 0.930 . S
H374 C387 0.930 . S
H375 C391 0.959 . S
H376 C391 0.959 . S
H377 C391 0.961 . S
H378 C392 0.960 . S
H379 C392 0.961 1_545 S
H380 C392 0.959 . S
H381 C395 0.929 . S
H382 C396 0.931 . S
H383 C398 0.930 . S
C384 H372 0.930 . S
C384 C385 1.399 . S
C384 C389 1.399 . S
C385 C384 1.399 . S
C385 C386 1.376 . S
C386 H373 0.930 . S
C386 C385 1.376 . S
C386 C387 1.388 . S
C387 H374 0.930 . S
C387 C386 1.388 . S
C387 C388 1.390 . S
C388 C387 1.390 . S
C388 C389 1.394 . S
C388 C394 1.465 1_565 S
C389 C384 1.399 . S
C389 C388 1.394 . S
C389 C390 1.516 1_565 S
C390 C389 1.516 1_545 S
C390 C391 1.502 . S
C390 C392 1.561 1_545 S
C390 C393 1.526 . S
C391 H375 0.959 . S
C391 H376 0.959 . S
C391 H377 0.961 . S
C391 C390 1.502 . S
C392 H378 0.960 . S
C392 H379 0.961 1_565 S
C392 H380 0.959 . S
C392 C390 1.561 1_565 S
C393 C390 1.526 . S
C393 C394 1.396 . S
C393 C398 1.390 . S
C394 C388 1.465 1_545 S
C394 C393 1.396 . S
C394 C395 1.399 . S
C395 H381 0.929 . S
C395 C394 1.399 . S
C395 C396 1.385 . S
C396 H382 0.931 . S
C396 C395 1.385 . S
C396 C397 1.389 . S
C397 C396 1.389 . S
C397 C398 1.387 . S
C398 H383 0.930 . S
C398 C393 1.390 . S
C398 C397 1.387 . S
H399 C411 0.930 . S
H400 C413 0.930 . S
H401 C414 0.930 . S
H402 C418 0.959 . S
H403 C418 0.959 . S
H404 C418 0.961 . S
H405 C419 0.960 . S
H406 C419 0.961 . S
H407 C419 0.959 . S
H408 C422 0.929 . S
H409 C423 0.931 . S
H410 C425 0.930 . S
C411 H399 0.930 . S
C411 C412 1.399 . S
C411 C416 1.399 . S
C412 C411 1.399 . S
C412 C413 1.376 . S
C413 H400 0.930 . S
C413 C412 1.376 . S
C413 C414 1.388 . S
C414 H401 0.930 . S
C414 C413 1.388 . S
C414 C415 1.390 . S
C415 C414 1.390 . S
C415 C416 1.394 . S
C415 C421 1.465 . S
C416 C411 1.399 . S
C416 C415 1.394 . S
C416 C417 1.516 . S
C417 C416 1.516 . S
C417 C418 1.502 . S
C417 C419 1.561 . S
C417 C420 1.526 . S
C418 H402 0.959 . S
C418 H403 0.959 . S
C418 H404 0.961 . S
C418 C417 1.502 . S
C419 H405 0.960 . S
C419 H406 0.961 . S
C419 H407 0.959 . S
C419 C417 1.561 . S
C420 C417 1.526 . S
C420 C421 1.396 . S
C420 C425 1.390 . S
C421 C415 1.465 . S
C421 C420 1.396 . S
C421 C422 1.399 . S
C422 H408 0.929 . S
C422 C421 1.399 . S
C422 C423 1.385 . S
C423 H409 0.931 . S
C423 C422 1.385 . S
C423 C424 1.389 . S
C424 C423 1.389 . S
C424 C425 1.387 . S
C425 H410 0.930 . S
C425 C420 1.390 . S
C425 C424 1.387 . S
H426 C438 0.930 . S
H427 C440 0.930 . S
H428 C441 0.930 . S
H429 C445 0.959 . S
H430 C445 0.959 . S
H431 C445 0.961 . S
H432 C446 0.960 . S
H433 C446 0.961 1_545 S
H434 C446 0.959 . S
H435 C449 0.929 . S
H436 C450 0.931 . S
H437 C452 0.930 . S
C438 H426 0.930 . S
C438 C439 1.399 . S
C438 C443 1.399 . S
C439 C438 1.399 . S
C439 C440 1.376 . S
C440 H427 0.930 . S
C440 C439 1.376 . S
C440 C441 1.388 . S
C441 H428 0.930 . S
C441 C440 1.388 . S
C441 C442 1.390 . S
C442 C441 1.390 . S
C442 C443 1.394 . S
C442 C448 1.465 1_565 S
C443 C438 1.399 . S
C443 C442 1.394 . S
C443 C444 1.516 1_565 S
C444 C443 1.516 1_545 S
C444 C445 1.502 . S
C444 C446 1.561 1_545 S
C444 C447 1.526 . S
C445 H429 0.959 . S
C445 H430 0.959 . S
C445 H431 0.961 . S
C445 C444 1.502 . S
C446 H432 0.960 . S
C446 H433 0.961 1_565 S
C446 H434 0.959 . S
C446 C444 1.561 1_565 S
C447 C444 1.526 . S
C447 C448 1.396 . S
C447 C452 1.390 . S
C448 C442 1.465 1_545 S
C448 C447 1.396 . S
C448 C449 1.399 . S
C449 H435 0.929 . S
C449 C448 1.399 . S
C449 C450 1.385 . S
C450 H436 0.931 . S
C450 C449 1.385 . S
C450 C451 1.389 . S
C451 C450 1.389 . S
C451 C452 1.387 . S
C452 H437 0.930 . S
C452 C447 1.390 . S
C452 C451 1.387 . S
H453 C465 0.930 . S
H454 C467 0.930 . S
H455 C468 0.930 . S
H456 C472 0.959 . S
H457 C472 0.959 . S
H458 C472 0.961 . S
H459 C473 0.960 . S
H460 C473 0.961 . S
H461 C473 0.959 . S
H462 C476 0.929 . S
H463 C477 0.931 . S
H464 C479 0.930 . S
C465 H453 0.930 . S
C465 C466 1.399 . S
C465 C470 1.399 . S
C466 C465 1.399 . S
C466 C467 1.376 . S
C467 H454 0.930 . S
C467 C466 1.376 . S
C467 C468 1.388 . S
C468 H455 0.930 . S
C468 C467 1.388 . S
C468 C469 1.390 . S
C469 C468 1.390 . S
C469 C470 1.394 . S
C469 C475 1.465 . S
C470 C465 1.399 . S
C470 C469 1.394 . S
C470 C471 1.516 . S
C471 C470 1.516 . S
C471 C472 1.502 . S
C471 C473 1.561 . S
C471 C474 1.526 . S
C472 H456 0.959 . S
C472 H457 0.959 . S
C472 H458 0.961 . S
C472 C471 1.502 . S
C473 H459 0.960 . S
C473 H460 0.961 . S
C473 H461 0.959 . S
C473 C471 1.561 . S
C474 C471 1.526 . S
C474 C475 1.396 . S
C474 C479 1.390 . S
C475 C469 1.465 . S
C475 C474 1.396 . S
C475 C476 1.399 . S
C476 H462 0.929 . S
C476 C475 1.399 . S
C476 C477 1.385 . S
C477 H463 0.931 . S
C477 C476 1.385 . S
C477 C478 1.389 . S
C478 C477 1.389 . S
C478 C479 1.387 . S
C479 H464 0.930 . S
C479 C474 1.390 . S
C479 C478 1.387 . S
H480 C492 0.916 1_556 S
H481 C494 0.930 . S
H482 C495 0.930 . S
H483 C499 0.959 . S
H484 C499 0.959 . S
H485 C499 0.961 . S
H486 C500 0.960 . S
H487 C500 0.961 . S
H488 C500 0.959 . S
H489 C503 0.929 . S
H490 C504 0.931 . S
H491 C506 0.930 . S
C492 H480 0.916 1_554 S
C492 C493 1.415 . S
C492 C497 1.397 1_554 S
C493 C492 1.415 . S
C493 C494 1.376 . S
C494 H481 0.930 . S
C494 C493 1.376 . S
C494 C495 1.388 . S
C495 H482 0.930 . S
C495 C494 1.388 . S
C495 C496 1.390 . S
C496 C495 1.390 . S
C496 C497 1.394 1_554 S
C496 C502 1.465 . S
C497 C492 1.397 1_556 S
C497 C496 1.394 1_556 S
C497 C498 1.516 . S
C498 C497 1.516 . S
C498 C499 1.502 . S
C498 C500 1.561 . S
C498 C501 1.526 . S
C499 H483 0.959 . S
C499 H484 0.959 . S
C499 H485 0.961 . S
C499 C498 1.502 . S
C500 H486 0.960 . S
C500 H487 0.961 . S
C500 H488 0.959 . S
C500 C498 1.561 . S
C501 C498 1.526 . S
C501 C502 1.396 1_556 S
C501 C506 1.390 . S
C502 C496 1.465 . S
C502 C501 1.396 1_554 S
C502 C503 1.399 . S
C503 H489 0.929 . S
C503 C502 1.399 . S
C503 C504 1.385 . S
C504 H490 0.931 . S
C504 C503 1.385 . S
C504 C505 1.389 1_554 S
C505 C504 1.389 1_556 S
C505 C506 1.387 . S
C506 H491 0.930 . S
C506 C501 1.390 . S
C506 C505 1.387 . S
H507 C519 0.930 . S
H508 C521 0.930 . S
H509 C522 0.930 . S
H510 C526 0.959 . S
H511 C526 0.959 . S
H512 C526 0.961 . S
H513 C527 0.960 . S
H514 C527 0.961 . S
H515 C527 0.959 . S
H516 C530 0.929 . S
H517 C531 0.931 . S
H518 C533 0.930 . S
C519 H507 0.930 . S
C519 C520 1.399 . S
C519 C524 1.399 . S
C520 C519 1.399 . S
C520 C521 1.376 . S
C521 H508 0.930 . S
C521 C520 1.376 . S
C521 C522 1.388 1_556 S
C522 H509 0.930 . S
C522 C521 1.388 1_554 S
C522 C523 1.390 . S
C523 C522 1.390 . S
C523 C524 1.394 1_554 S
C523 C529 1.465 . S
C524 C519 1.399 . S
C524 C523 1.394 1_556 S
C524 C525 1.516 . S
C525 C524 1.516 . S
C525 C526 1.502 . S
C525 C527 1.561 1_556 S
C525 C528 1.526 1_556 S
C526 H510 0.959 . S
C526 H511 0.959 . S
C526 H512 0.961 . S
C526 C525 1.502 . S
C527 H513 0.960 . S
C527 H514 0.961 . S
C527 H515 0.959 . S
C527 C525 1.561 1_554 S
C528 C525 1.526 1_554 S
C528 C529 1.396 . S
C528 C533 1.390 . S
C529 C523 1.465 . S
C529 C528 1.396 . S
C529 C530 1.399 . S
C530 H516 0.929 . S
C530 C529 1.399 . S
C530 C531 1.385 . S
C531 H517 0.931 . S
C531 C530 1.385 . S
C531 C532 1.389 . S
C532 C531 1.389 . S
C532 C533 1.387 . S
C533 H518 0.930 . S
C533 C528 1.390 . S
C533 C532 1.387 . S
H534 C546 0.930 . S
H535 C548 0.930 . S
H536 C549 0.930 . S
H537 C553 0.959 . S
H538 C553 0.959 . S
H539 C553 0.961 . S
H540 C554 0.960 . S
H541 C554 0.961 . S
H542 C554 0.959 . S
H543 C557 0.929 . S
H544 C558 0.931 . S
H545 C560 0.930 . S
C546 H534 0.930 . S
C546 C547 1.399 . S
C546 C551 1.399 . S
C547 C546 1.399 . S
C547 C548 1.376 . S
C548 H535 0.930 . S
C548 C547 1.376 . S
C548 C549 1.388 . S
C549 H536 0.930 . S
C549 C548 1.388 . S
C549 C550 1.390 . S
C550 C549 1.390 . S
C550 C551 1.394 . S
C550 C556 1.465 . S
C551 C546 1.399 . S
C551 C550 1.394 . S
C551 C552 1.516 . S
C552 C551 1.516 . S
C552 C553 1.502 . S
C552 C554 1.561 . S
C552 C555 1.526 . S
C553 H537 0.959 . S
C553 H538 0.959 . S
C553 H539 0.961 . S
C553 C552 1.502 . S
C554 H540 0.960 . S
C554 H541 0.961 . S
C554 H542 0.959 . S
C554 C552 1.561 . S
C555 C552 1.526 . S
C555 C556 1.396 . S
C555 C560 1.390 . S
C556 C550 1.465 . S
C556 C555 1.396 . S
C556 C557 1.399 . S
C557 H543 0.929 . S
C557 C556 1.399 . S
C557 C558 1.385 . S
C558 H544 0.931 . S
C558 C557 1.385 . S
C558 C559 1.389 . S
C559 C558 1.389 . S
C559 C560 1.387 . S
C560 H545 0.930 . S
C560 C555 1.390 . S
C560 C559 1.387 . S
H561 C573 0.930 . S
H562 C575 0.930 . S
H563 C576 0.930 . S
H564 C580 0.959 . S
H565 C580 0.959 . S
H566 C580 0.961 . S
H567 C581 0.960 . S
H568 C581 0.961 . S
H569 C581 0.959 . S
H570 C584 0.929 . S
H571 C585 0.931 . S
H572 C587 0.930 . S
C573 H561 0.930 . S
C573 C574 1.399 . S
C573 C578 1.399 . S
C574 C573 1.399 . S
C574 C575 1.376 . S
C575 H562 0.930 . S
C575 C574 1.376 . S
C575 C576 1.388 . S
C576 H563 0.930 . S
C576 C575 1.388 . S
C576 C577 1.390 . S
C577 C576 1.390 . S
C577 C578 1.394 . S
C577 C583 1.465 . S
C578 C573 1.399 . S
C578 C577 1.394 . S
C578 C579 1.516 . S
C579 C578 1.516 . S
C579 C580 1.502 . S
C579 C581 1.561 . S
C579 C582 1.526 . S
C580 H564 0.959 . S
C580 H565 0.959 . S
C580 H566 0.961 . S
C580 C579 1.502 . S
C581 H567 0.960 . S
C581 H568 0.961 . S
C581 H569 0.959 . S
C581 C579 1.561 . S
C582 C579 1.526 . S
C582 C583 1.396 . S
C582 C587 1.390 . S
C583 C577 1.465 . S
C583 C582 1.396 . S
C583 C584 1.399 . S
C584 H570 0.929 . S
C584 C583 1.399 . S
C584 C585 1.385 . S
C585 H571 0.931 . S
C585 C584 1.385 . S
C585 C586 1.389 . S
C586 C585 1.389 . S
C586 C587 1.387 . S
C587 H572 0.930 . S
C587 C582 1.390 . S
C587 C586 1.387 . S
H588 C600 0.930 . S
H589 C602 0.930 . S
H590 C603 0.930 . S
H591 C607 0.959 . S
H592 C607 0.959 . S
H593 C607 0.961 . S
H594 C608 0.960 . S
H595 C608 0.961 . S
H596 C608 0.959 . S
H597 C611 0.929 . S
H598 C612 0.931 . S
H599 C614 0.923 1_554 S
C600 H588 0.930 . S
C600 C601 1.399 . S
C600 C605 1.399 . S
C601 C600 1.399 . S
C601 C602 1.376 1_554 S
C602 H589 0.930 . S
C602 C601 1.376 1_556 S
C602 C603 1.388 . S
C603 H590 0.930 . S
C603 C602 1.388 . S
C603 C604 1.390 . S
C604 C603 1.390 . S
C604 C605 1.394 1_556 S
C604 C610 1.465 . S
C605 C600 1.399 . S
C605 C604 1.394 1_554 S
C605 C606 1.516 . S
C606 C605 1.516 . S
C606 C607 1.502 . S
C606 C608 1.561 . S
C606 C609 1.526 . S
C607 H591 0.959 . S
C607 H592 0.959 . S
C607 H593 0.961 . S
C607 C606 1.502 . S
C608 H594 0.960 . S
C608 H595 0.961 . S
C608 H596 0.959 . S
C608 C606 1.561 . S
C609 C606 1.526 . S
C609 C610 1.396 1_554 S
C609 C614 1.388 1_554 S
C610 C604 1.465 . S
C610 C609 1.396 1_556 S
C610 C611 1.399 . S
C611 H597 0.929 . S
C611 C610 1.399 . S
C611 C612 1.385 . S
C612 H598 0.931 . S
C612 C611 1.385 . S
C612 C613 1.389 . S
C613 C612 1.389 . S
C613 C614 1.394 . S
C614 H599 0.923 1_556 S
C614 C609 1.388 1_556 S
C614 C613 1.394 . S
H615 C627 0.930 . S
H616 C629 0.930 . S
H617 C630 0.930 . S
H618 C634 0.959 . S
H619 C634 0.959 . S
H620 C634 0.961 . S
H621 C635 0.960 . S
H622 C635 0.961 . S
H623 C635 0.959 . S
H624 C638 0.929 . S
H625 C639 0.931 . S
H626 C641 0.930 . S
C627 H615 0.930 . S
C627 C628 1.399 1_554 S
C627 C632 1.399 . S
C628 C627 1.399 1_556 S
C628 C629 1.376 . S
C629 H616 0.930 . S
C629 C628 1.376 . S
C629 C630 1.388 . S
C630 H617 0.930 . S
C630 C629 1.388 . S
C630 C631 1.390 . S
C631 C630 1.390 . S
C631 C632 1.394 1_556 S
C631 C637 1.465 . S
C632 C627 1.399 . S
C632 C631 1.394 1_554 S
C632 C633 1.516 . S
C633 C632 1.516 . S
C633 C634 1.502 . S
C633 C635 1.561 . S
C633 C636 1.526 . S
C634 H618 0.959 . S
C634 H619 0.959 . S
C634 H620 0.961 . S
C634 C633 1.502 . S
C635 H621 0.960 . S
C635 H622 0.961 . S
C635 H623 0.959 . S
C635 C633 1.561 . S
C636 C633 1.526 . S
C636 C637 1.396 1_554 S
C636 C641 1.390 . S
C637 C631 1.465 . S
C637 C636 1.396 1_556 S
C637 C638 1.399 . S
C638 H624 0.929 . S
C638 C637 1.399 . S
C638 C639 1.385 . S
C639 H625 0.931 . S
C639 C638 1.385 . S
C639 C640 1.389 1_556 S
C640 C639 1.389 1_554 S
C640 C641 1.387 . S
C641 H626 0.930 . S
C641 C636 1.390 . S
C641 C640 1.387 . S
H642 C654 0.930 . S
H643 C656 0.930 . S
H644 C657 0.930 . S
H645 C661 0.959 . S
H646 C661 0.959 . S
H647 C661 0.961 . S
H648 C662 0.960 . S
H649 C662 0.961 . S
H650 C662 0.959 . S
H651 C665 0.929 . S
H652 C666 0.931 . S
H653 C668 0.930 . S
C654 H642 0.930 . S
C654 C655 1.399 . S
C654 C659 1.399 . S
C655 C654 1.399 . S
C655 C656 1.376 . S
C656 H643 0.930 . S
C656 C655 1.376 . S
C656 C657 1.388 . S
C657 H644 0.930 . S
C657 C656 1.388 . S
C657 C658 1.390 . S
C658 C657 1.390 . S
C658 C659 1.394 . S
C658 C664 1.465 . S
C659 C654 1.399 . S
C659 C658 1.394 . S
C659 C660 1.516 . S
C660 C659 1.516 . S
C660 C661 1.502 . S
C660 C662 1.561 . S
C660 C663 1.526 . S
C661 H645 0.959 . S
C661 H646 0.959 . S
C661 H647 0.961 . S
C661 C660 1.502 . S
C662 H648 0.960 . S
C662 H649 0.961 . S
C662 H650 0.959 . S
C662 C660 1.561 . S
C663 C660 1.526 . S
C663 C664 1.396 . S
C663 C668 1.390 . S
C664 C658 1.465 . S
C664 C663 1.396 . S
C664 C665 1.399 . S
C665 H651 0.929 . S
C665 C664 1.399 . S
C665 C666 1.385 . S
C666 H652 0.931 . S
C666 C665 1.385 . S
C666 C667 1.389 . S
C667 C666 1.389 . S
C667 C668 1.387 . S
C668 H653 0.930 . S
C668 C663 1.390 . S
C668 C667 1.387 . S
H669 C681 0.930 . S
H670 C683 0.930 . S
H671 C684 0.930 . S
H672 C688 0.959 . S
H673 C688 0.959 . S
H674 C688 0.961 . S
H675 C689 0.960 . S
H676 C689 0.961 . S
H677 C689 0.959 . S
H678 C692 0.929 . S
H679 C693 0.931 . S
H680 C695 0.930 . S
C681 H669 0.930 . S
C681 C682 1.399 . S
C681 C686 1.399 . S
C682 C681 1.399 . S
C682 C683 1.376 . S
C683 H670 0.930 . S
C683 C682 1.376 . S
C683 C684 1.388 . S
C684 H671 0.930 . S
C684 C683 1.388 . S
C684 C685 1.390 . S
C685 C684 1.390 . S
C685 C686 1.394 . S
C685 C691 1.465 . S
C686 C681 1.399 . S
C686 C685 1.394 . S
C686 C687 1.516 . S
C687 C686 1.516 . S
C687 C688 1.502 . S
C687 C689 1.561 . S
C687 C690 1.526 . S
C688 H672 0.959 . S
C688 H673 0.959 . S
C688 H674 0.961 . S
C688 C687 1.502 . S
C689 H675 0.960 . S
C689 H676 0.961 . S
C689 H677 0.959 . S
C689 C687 1.561 . S
C690 C687 1.526 . S
C690 C691 1.396 . S
C690 C695 1.390 . S
C691 C685 1.465 . S
C691 C690 1.396 . S
C691 C692 1.399 . S
C692 H678 0.929 . S
C692 C691 1.399 . S
C692 C693 1.385 . S
C693 H679 0.931 . S
C693 C692 1.385 . S
C693 C694 1.389 . S
C694 C693 1.389 . S
C694 C695 1.387 . S
C695 H680 0.930 . S
C695 C690 1.390 . S
C695 C694 1.387 . S
H696 C708 0.930 . S
H697 C710 0.930 . S
H698 C711 0.930 1_655 S
H699 C715 0.959 . S
H700 C715 0.959 . S
H701 C715 0.961 . S
H702 C716 0.960 . S
H703 C716 0.961 . S
H704 C716 0.959 1_655 S
H705 C719 0.928 1_655 S
H706 C720 0.931 . S
H707 C722 0.930 . S
C708 H696 0.930 . S
C708 C709 1.399 . S
C708 C713 1.399 . S
C709 C708 1.399 . S
C709 C710 1.376 . S
C710 H697 0.930 . S
C710 C709 1.376 . S
C710 C711 1.388 . S
C711 H698 0.930 1_455 S
C711 C710 1.388 . S
C711 C712 1.390 . S
C712 C711 1.390 . S
C712 C713 1.394 . S
C712 C718 1.465 . S
C713 C708 1.399 . S
C713 C712 1.394 . S
C713 C714 1.516 . S
C714 C713 1.516 . S
C714 C715 1.502 . S
C714 C716 1.561 . S
C714 C717 1.526 . S
C715 H699 0.959 . S
C715 H700 0.959 . S
C715 H701 0.961 . S
C715 C714 1.502 . S
C716 H702 0.960 . S
C716 H703 0.961 . S
C716 H704 0.959 1_455 S
C716 C714 1.561 . S
C717 C714 1.526 . S
C717 C718 1.396 . S
C717 C722 1.390 . S
C718 C712 1.465 . S
C718 C717 1.396 . S
C718 C719 1.399 . S
C719 H705 0.928 1_455 S
C719 C718 1.399 . S
C719 C720 1.385 . S
C720 H706 0.931 . S
C720 C719 1.385 . S
C720 C721 1.389 . S
C721 C720 1.389 . S
C721 C722 1.387 . S
C722 H707 0.930 . S
C722 C717 1.390 . S
C722 C721 1.387 . S
H723 C735 0.930 . S
H724 C737 0.930 . S
H725 C738 0.930 . S
H726 C742 0.959 . S
H727 C742 0.959 . S
H728 C742 0.961 . S
H729 C743 0.960 . S
H730 C743 0.961 . S
H731 C743 0.959 . S
H732 C746 0.929 . S
H733 C747 0.931 . S
H734 C749 0.930 . S
C735 H723 0.930 . S
C735 C736 1.399 . S
C735 C740 1.399 . S
C736 C735 1.399 . S
C736 C737 1.376 . S
C737 H724 0.930 . S
C737 C736 1.376 . S
C737 C738 1.388 . S
C738 H725 0.930 . S
C738 C737 1.388 . S
C738 C739 1.390 . S
C739 C738 1.390 . S
C739 C740 1.394 . S
C739 C745 1.465 . S
C740 C735 1.399 . S
C740 C739 1.394 . S
C740 C741 1.516 . S
C741 C740 1.516 . S
C741 C742 1.502 . S
C741 C743 1.561 . S
C741 C744 1.526 . S
C742 H726 0.959 . S
C742 H727 0.959 . S
C742 H728 0.961 . S
C742 C741 1.502 . S
C743 H729 0.960 . S
C743 H730 0.961 . S
C743 H731 0.959 . S
C743 C741 1.561 . S
C744 C741 1.526 . S
C744 C745 1.396 . S
C744 C749 1.390 . S
C745 C739 1.465 . S
C745 C744 1.396 . S
C745 C746 1.399 . S
C746 H732 0.929 . S
C746 C745 1.399 . S
C746 C747 1.385 . S
C747 H733 0.931 . S
C747 C746 1.385 . S
C747 C748 1.389 . S
C748 C747 1.389 . S
C748 C749 1.387 . S
C749 H734 0.930 . S
C749 C744 1.390 . S
C749 C748 1.387 . S
H750 C762 0.930 . S
H751 C764 0.930 . S
H752 C765 0.930 . S
H753 C769 0.959 . S
H754 C769 0.959 . S
H755 C769 0.961 . S
H756 C770 0.960 . S
H757 C770 0.961 . S
H758 C770 0.959 . S
H759 C773 0.929 . S
H760 C774 0.931 . S
H761 C776 0.930 . S
C762 H750 0.930 . S
C762 C763 1.399 . S
C762 C767 1.399 . S
C763 C762 1.399 . S
C763 C764 1.376 . S
C764 H751 0.930 . S
C764 C763 1.376 . S
C764 C765 1.388 . S
C765 H752 0.930 . S
C765 C764 1.388 . S
C765 C766 1.390 . S
C766 C765 1.390 . S
C766 C767 1.394 . S
C766 C772 1.465 . S
C767 C762 1.399 . S
C767 C766 1.394 . S
C767 C768 1.516 . S
C768 C767 1.516 . S
C768 C769 1.502 1_655 S
C768 C770 1.561 . S
C768 C771 1.526 . S
C769 H753 0.959 . S
C769 H754 0.959 . S
C769 H755 0.961 . S
C769 C768 1.502 1_455 S
C770 H756 0.960 . S
C770 H757 0.961 . S
C770 H758 0.959 . S
C770 C768 1.561 . S
C771 C768 1.526 . S
C771 C772 1.396 . S
C771 C776 1.390 . S
C772 C766 1.465 . S
C772 C771 1.396 . S
C772 C773 1.399 . S
C773 H759 0.929 . S
C773 C772 1.399 . S
C773 C774 1.385 . S
C774 H760 0.931 . S
C774 C773 1.385 . S
C774 C775 1.389 . S
C775 C774 1.389 . S
C775 C776 1.387 . S
C776 H761 0.930 . S
C776 C771 1.390 . S
C776 C775 1.387 . S
H777 C789 0.930 . S
H778 C791 0.930 . S
H779 C792 0.930 . S
H780 C796 0.959 . S
H781 C796 0.959 . S
H782 C796 0.961 . S
H783 C797 0.960 . S
H784 C797 0.961 . S
H785 C797 0.959 . S
H786 C800 0.929 . S
H787 C801 0.931 . S
H788 C803 0.930 . S
C789 H777 0.930 . S
C789 C790 1.399 . S
C789 C794 1.399 . S
C790 C789 1.399 . S
C790 C791 1.376 . S
C791 H778 0.930 . S
C791 C790 1.376 . S
C791 C792 1.388 . S
C792 H779 0.930 . S
C792 C791 1.388 . S
C792 C793 1.390 . S
C793 C792 1.390 . S
C793 C794 1.394 . S
C793 C799 1.465 . S
C794 C789 1.399 . S
C794 C793 1.394 . S
C794 C795 1.516 . S
C795 C794 1.516 . S
C795 C796 1.502 . S
C795 C797 1.561 . S
C795 C798 1.526 . S
C796 H780 0.959 . S
C796 H781 0.959 . S
C796 H782 0.961 . S
C796 C795 1.502 . S
C797 H783 0.960 . S
C797 H784 0.961 . S
C797 H785 0.959 . S
C797 C795 1.561 . S
C798 C795 1.526 . S
C798 C799 1.396 . S
C798 C803 1.390 . S
C799 C793 1.465 . S
C799 C798 1.396 . S
C799 C800 1.399 . S
C800 H786 0.929 . S
C800 C799 1.399 . S
C800 C801 1.385 . S
C801 H787 0.931 . S
C801 C800 1.385 . S
C801 C802 1.389 . S
C802 C801 1.389 . S
C802 C803 1.387 . S
C803 H788 0.930 . S
C803 C798 1.390 . S
C803 C802 1.387 . S
C277 C28 0.880 1_655 S
C289 C160 0.844 . S
C304 C193 0.781 . S
C316 C61 0.897 . S
C331 C226 0.808 . S
C343 C94 0.868 1_655 S
C358 C127 0.781 . S
C370 C259 0.898 . S
C385 N47 0.883 . S
C397 N14 0.752 . S
C412 N80 0.903 . S
C424 N113 0.709 . S
C439 N146 0.871 . S
C451 N179 0.767 . S
C466 N245 0.831 . S
C478 N212 0.814 . S
C493 C8 1.791 . S
C505 N170 1.804 . S
C520 N137 1.832 . S
C532 C41 1.824 . S
C547 N236 1.828 . S
C559 C74 1.815 . S
C574 N203 1.820 . S
C586 C107 1.807 . S
C601 N38 1.809 . S
C613 C140 1.788 . S
C628 C173 1.785 . S
C640 N5 1.804 . S
C655 C206 1.832 . S
C667 N104 1.849 . S
C682 N71 1.844 . S
C694 C239 1.823 . S
C709 C83 1.461 . S
C721 C17 1.477 . S
C736 C50 1.461 . S
C748 C116 1.477 . S
C763 C215 1.452 . S
C775 C149 1.473 . S
C790 C248 1.452 . S
C802 C182 1.472 . S
