# Generated by pormake.
# Topology ukg, (4)-cn, num edge types: 1
# Building blocks:
#     Node 0, Type 0, BuildingBlock: GALJAG_clean_sbu_0, # of connection points: 4
#     Node 1, Type 0, BuildingBlock: GALJAG_clean_sbu_0, # of connection points: 4
#     Node 2, Type 0, BuildingBlock: GALJAG_clean_sbu_0, # of connection points: 4
#     Node 3, Type 0, BuildingBlock: GALJAG_clean_sbu_0, # of connection points: 4
#     Node 4, Type 0, BuildingBlock: GALJAG_clean_sbu_0, # of connection points: 4
#     Node 5, Type 0, BuildingBlock: GALJAG_clean_sbu_0, # of connection points: 4
#     Node 6, Type 0, BuildingBlock: GALJAG_clean_sbu_0, # of connection points: 4
#     Node 7, Type 0, BuildingBlock: GALJAG_clean_sbu_0, # of connection points: 4
#     Edge 8, Type (0, 0), BuildingBlock: TEMPAE_clean_linker_10, # of connection points: 2
#     Edge 9, Type (0, 0), BuildingBlock: TEMPAE_clean_linker_10, # of connection points: 2
#     Edge 10, Type (0, 0), BuildingBlock: TEMPAE_clean_linker_10, # of connection points: 2
#     Edge 11, Type (0, 0), BuildingBlock: TEMPAE_clean_linker_10, # of connection points: 2
#     Edge 12, Type (0, 0), BuildingBlock: TEMPAE_clean_linker_10, # of connection points: 2
#     Edge 13, Type (0, 0), BuildingBlock: TEMPAE_clean_linker_10, # of connection points: 2
#     Edge 14, Type (0, 0), BuildingBlock: TEMPAE_clean_linker_10, # of connection points: 2
#     Edge 15, Type (0, 0), BuildingBlock: TEMPAE_clean_linker_10, # of connection points: 2
#     Edge 16, Type (0, 0), BuildingBlock: TEMPAE_clean_linker_10, # of connection points: 2
#     Edge 17, Type (0, 0), BuildingBlock: TEMPAE_clean_linker_10, # of connection points: 2
#     Edge 18, Type (0, 0), BuildingBlock: TEMPAE_clean_linker_10, # of connection points: 2
#     Edge 19, Type (0, 0), BuildingBlock: TEMPAE_clean_linker_10, # of connection points: 2
#     Edge 20, Type (0, 0), BuildingBlock: TEMPAE_clean_linker_10, # of connection points: 2
#     Edge 21, Type (0, 0), BuildingBlock: TEMPAE_clean_linker_10, # of connection points: 2
#     Edge 22, Type (0, 0), BuildingBlock: TEMPAE_clean_linker_10, # of connection points: 2
#     Edge 23, Type (0, 0), BuildingBlock: TEMPAE_clean_linker_10, # of connection points: 2
# Relax obj value: 0.111
# Max RMSD: 0.188
# Mean RMSD: 0.187
data_MOF--net-ukg--node1-GALJAG_clean_sbu_0--edge1-TEMPAE_clean_linker_10
_symmetry_space_group_name_H-M    P1
_symmetry_Int_Tables_number       1
_symmetry_cell_setting            triclinic
loop_
_symmetry_equiv_pos_as_xyz
'x, y, z'
_cell_length_a     30.215469
_cell_length_b     30.205807
_cell_length_c     39.429815
_cell_angle_alpha  90.099878
_cell_angle_beta   89.934812
_cell_angle_gamma 89.984994
loop_
_atom_site_label
_atom_site_type_symbol
_atom_site_fract_x
_atom_site_fract_y
_atom_site_fract_z
_atom_type_partial_charge
In0 In 0.0068 0.6755 0.14482 0.0
O1 O 0.97977 0.6465 0.09502 0.0
O2 O 0.03403 0.61427 0.11855 0.0
C3 C 0.95624 0.74912 0.13974 0.0
C4 C 0.09203 0.69978 0.14776 0.0
C5 C 0.97487 0.64402 0.20405 0.0
O6 O 0.93989 0.7109 0.14258 0.0
O7 O -0.00224 0.74963 0.1369 0.0
O8 O -0.00121 0.67814 0.20253 0.0
O9 O 0.96889 0.62487 0.17598 0.0
C10 C 0.00722 0.615 0.09417 0.0
O11 O 0.07476 0.67446 0.16959 0.0
O12 O 0.06626 0.71252 0.12452 0.0
In13 In 0.31099 0.49666 0.62802 0.0
O14 O 0.32294 0.56798 0.64409 0.0
O15 O 0.28434 0.55592 0.59974 0.0
C16 C 0.34042 0.45818 0.68511 0.0
C17 C 0.37232 0.4819 0.57959 0.0
C18 C 0.22763 0.46634 0.63497 0.0
O19 O 0.33468 0.49955 0.68308 0.0
O20 O 0.33223 0.4369 0.65826 0.0
O21 O 0.25656 0.44473 0.61866 0.0
O22 O 0.24054 0.50328 0.64596 0.0
C23 C 0.3005 0.58402 0.61999 0.0
O24 O 0.33134 0.47884 0.57356 0.0
O25 O 0.38189 0.49143 0.60982 0.0
In26 In 0.4959 0.81916 0.13919 0.0
O27 O 0.52188 0.84811 0.089 0.0
O28 O 0.46672 0.87898 0.11244 0.0
C29 C 0.54695 0.74551 0.13576 0.0
C30 C 0.41158 0.79253 0.14475 0.0
C31 C 0.52781 0.85448 0.19706 0.0
O32 O 0.5622 0.78318 0.14286 0.0
O33 O 0.50656 0.74555 0.12793 0.0
O34 O 0.50036 0.82299 0.19711 0.0
O35 O 0.53752 0.86903 0.16802 0.0
C36 C 0.49351 0.87874 0.08802 0.0
O37 O 0.42877 0.8196 0.16539 0.0
O38 O 0.437 0.77914 0.12142 0.0
In39 In 0.18207 0.98641 0.63622 0.0
O40 O 0.17933 0.91424 0.65144 0.0
O41 O 0.21573 0.93152 0.60683 0.0
C42 C 0.14688 0.02687 0.69094 0.0
C43 C 0.11963 0.99278 0.58786 0.0
C44 C 0.26437 0.01897 0.64312 0.0
O45 O 0.15586 0.98603 0.69089 0.0
O46 O 0.15443 0.04636 0.66332 0.0
O47 O 0.23697 0.03636 0.62285 0.0
O48 O 0.25029 0.98541 0.65864 0.0
C49 C 0.20325 0.9014 0.62693 0.0
O50 O 0.15523 0.01476 0.58636 0.0
O51 O 0.11584 0.96827 0.61354 0.0
In52 In 0.99198 0.31644 0.86563 0.0
O53 O 0.9201 0.32566 0.84998 0.0
O54 O 0.9341 0.28697 0.8939 0.0
C55 C 0.02998 0.34777 0.80888 0.0
C56 C 0.00496 0.37733 0.9147 0.0
C57 C 0.02416 0.23386 0.858 0.0
O58 O 0.98868 0.3416 0.81096 0.0
O59 O 0.05139 0.33912 0.83553 0.0
O60 O 0.0449 0.2629 0.87483 0.0
O61 O 0.98736 0.24637 0.84656 0.0
C62 C 0.90523 0.30205 0.87389 0.0
O63 O 0.00947 0.33636 0.92017 0.0
O64 O 0.99476 0.38723 0.88469 0.0
In65 In 0.67657 0.49232 0.35474 0.0
O66 O 0.68206 0.42465 0.32949 0.0
O67 O 0.72117 0.4373 0.37341 0.0
C68 C 0.64212 0.5204 0.29548 0.0
C69 C 0.61511 0.4876 0.40462 0.0
C70 C 0.7456 0.54908 0.35996 0.0
O71 O 0.677 0.49747 0.29682 0.0
O72 O 0.62389 0.5273 0.32381 0.0
O73 O 0.7078 0.56084 0.35 0.0
O74 O 0.74765 0.50946 0.36973 0.0
C75 C 0.71032 0.41032 0.35039 0.0
O76 O 0.64343 0.51825 0.40339 0.0
O77 O 0.61816 0.45959 0.3811 0.0
In78 In 0.50297 0.18264 0.86428 0.0
O79 O 0.48616 0.16096 0.91855 0.0
O80 O 0.50202 0.1114 0.88209 0.0
C81 C 0.46878 0.26434 0.85702 0.0
C82 C 0.58931 0.19924 0.87233 0.0
C83 C 0.46435 0.15103 0.80793 0.0
O84 O 0.44932 0.23515 0.87454 0.0
O85 O 0.5055 0.25252 0.84491 0.0
O86 O 0.50574 0.15695 0.80964 0.0
O87 O 0.44329 0.16011 0.83471 0.0
C88 C 0.49161 0.12025 0.9123 0.0
O89 O 0.57491 0.17594 0.84804 0.0
O90 O 0.56019 0.21299 0.89279 0.0
In91 In 0.81885 0.00456 0.36082 0.0
O92 O 0.82978 0.07248 0.33692 0.0
O93 O 0.79021 0.06807 0.38159 0.0
C94 C 0.84669 0.96375 0.30388 0.0
C95 C 0.88038 0.00033 0.41027 0.0
C96 C 0.73962 0.96307 0.3632 0.0
O97 O 0.82645 0.00034 0.30299 0.0
O98 O 0.85355 0.94885 0.33326 0.0
O99 O 0.77525 0.94356 0.37056 0.0
O100 O 0.74396 0.00359 0.35673 0.0
C101 C 0.80632 0.09242 0.35871 0.0
O102 O 0.83954 0.99644 0.41647 0.0
O103 O 0.88984 0.00596 0.37947 0.0
C104 C 0.01804 0.45531 0.93258 0.0
C105 C 0.0089 0.41134 0.94143 0.0
C106 C 0.01925 0.48876 0.95726 0.0
C107 C 0.00986 0.47813 0.99147 0.0
C108 C 0.00082 0.43368 0.00057 0.0
C109 C 0.00104 0.40064 0.97545 0.0
C110 C 0.03025 0.53552 0.94669 0.0
C111 C 0.98979 0.42123 0.03667 0.0
C112 C 0.04654 0.55644 0.06139 0.0
C113 C 0.00791 0.581 0.06726 0.0
C114 C 0.04782 0.52326 0.03649 0.0
C115 C 0.00916 0.51365 0.01764 0.0
C116 C 0.96993 0.53821 0.02362 0.0
C117 C 0.96996 0.57207 0.0481 0.0
C118 C 0.09058 0.49865 0.03023 0.0
C119 C 0.92781 0.52832 0.00449 0.0
H120 H 0.02432 0.46356 0.90626 0.0
H121 H 0.99356 0.36669 0.98224 0.0
H122 H 0.00158 0.55754 0.95166 0.0
H123 H 0.05841 0.54824 0.96191 0.0
H124 H 0.03901 0.53782 0.91938 0.0
H125 H 0.98337 0.38521 0.03954 0.0
H126 H 0.01736 0.43063 0.05377 0.0
H127 H 0.96004 0.43971 0.04521 0.0
H128 H 0.07603 0.56351 0.07609 0.0
H129 H 0.93998 0.59084 0.05281 0.0
H130 H 0.10045 0.50194 0.00324 0.0
H131 H 0.08594 0.46285 0.03533 0.0
H132 H 0.11803 0.51105 0.0464 0.0
H133 H 0.9331 0.5333 0.97692 0.0
H134 H 0.89984 0.54962 0.01281 0.0
H135 H 0.91839 0.49315 0.00818 0.0
C136 C 0.45066 0.46908 0.56269 0.0
C137 C 0.40678 0.47763 0.55325 0.0
C138 C 0.48472 0.46855 0.53852 0.0
C139 C 0.47477 0.47785 0.5042 0.0
C140 C 0.43036 0.48581 0.49442 0.0
C141 C 0.39674 0.48511 0.51907 0.0
C142 C 0.53147 0.45882 0.54982 0.0
C143 C 0.41858 0.49651 0.45815 0.0
C144 C 0.56873 0.52238 0.44994 0.0
C145 C 0.58018 0.48502 0.43076 0.0
C146 C 0.53407 0.52064 0.47365 0.0
C147 C 0.51105 0.48032 0.47875 0.0
C148 C 0.52306 0.44231 0.45984 0.0
C149 C 0.55719 0.44525 0.43581 0.0
C150 C 0.52175 0.56205 0.49299 0.0
C151 C 0.5 0.3985 0.4651 0.0
H152 H 0.45844 0.46306 0.58912 0.0
H153 H 0.36286 0.49208 0.51179 0.0
H154 H 0.54566 0.4315 0.53441 0.0
H155 H 0.55259 0.48837 0.54577 0.0
H156 H 0.53318 0.44947 0.57702 0.0
H157 H 0.38239 0.50102 0.45457 0.0
H158 H 0.43568 0.52733 0.45025 0.0
H159 H 0.43008 0.46968 0.44103 0.0
H160 H 0.58627 0.55324 0.44589 0.0
H161 H 0.56613 0.41623 0.42109 0.0
H162 H 0.526 0.55654 0.5206 0.0
H163 H 0.48637 0.57008 0.48866 0.0
H164 H 0.54213 0.59101 0.48541 0.0
H165 H 0.50289 0.38826 0.49202 0.0
H166 H 0.51393 0.37186 0.44882 0.0
H167 H 0.46421 0.40186 0.45944 0.0
C168 C 0.52985 0.9226 0.04208 0.0
C169 C 0.49204 0.91265 0.06115 0.0
C170 C 0.52926 0.95684 0.018 0.0
C171 C 0.48959 0.98076 0.01236 0.0
C172 C 0.45103 0.96998 0.031 0.0
C173 C 0.4529 0.93642 0.05549 0.0
C174 C 0.57125 0.96794 0.99905 0.0
C175 C 0.40782 0.99388 0.02508 0.0
C176 C 0.49581 0.09516 0.97254 0.0
C177 C 0.48827 0.08538 0.93831 0.0
C178 C 0.49656 0.06136 0.99696 0.0
C179 C 0.48838 0.01703 0.98692 0.0
C180 C 0.47932 0.00729 0.9525 0.0
C181 C 0.47999 0.04153 0.92853 0.0
C182 C 0.50718 0.07289 0.03333 0.0
C183 C 0.46922 0.96068 0.94095 0.0
H184 H 0.56021 0.90445 0.04663 0.0
H185 H 0.42353 0.92856 0.07012 0.0
H186 H 0.56605 0.96385 0.97138 0.0
H187 H 0.58019 0.00309 0.00354 0.0
H188 H 0.5995 0.94674 0.00685 0.0
H189 H 0.38047 0.98034 0.04081 0.0
H190 H 0.41166 0.02956 0.03104 0.0
H191 H 0.39832 0.99135 0.99797 0.0
H192 H 0.50263 0.12903 0.98004 0.0
H193 H 0.47394 0.03398 0.90205 0.0
H194 H 0.53717 0.05461 0.04155 0.0
H195 H 0.47966 0.06254 0.05017 0.0
H196 H 0.51302 0.1089 0.03694 0.0
H197 H 0.49824 0.93903 0.94553 0.0
H198 H 0.46067 0.95906 0.91358 0.0
H199 H 0.4412 0.94701 0.95584 0.0
C200 C 0.95796 0.98616 0.42825 0.0
C201 C 0.91478 -0.001 0.43673 0.0
C202 C 0.99149 0.98529 0.45279 0.0
C203 C 0.98185 -0.0011 0.48637 0.0
C204 C 0.93836 0.01247 0.49496 0.0
C205 C 0.90509 0.0117 0.4701 0.0
C206 C 0.03708 0.96931 0.44287 0.0
C207 C 0.9271 0.02819 0.5303 0.0
C208 C 0.0559 0.9589 0.55763 0.0
C209 C 0.08492 0.99471 0.56164 0.0
C210 C 0.02245 0.95972 0.53305 0.0
C211 C 0.01712 -0.00217 0.51263 0.0
C212 C 0.04599 0.03439 0.51689 0.0
C213 C 0.08006 0.03212 0.54106 0.0
C214 C 0.99319 0.91958 0.52865 0.0
C215 C 0.04063 0.07599 0.49612 0.0
H216 H 0.96538 0.97613 0.40245 0.0
H217 H 0.87176 0.02204 0.47654 0.0
H218 H 0.06176 0.9959 0.44717 0.0
H219 H 0.04676 0.94083 0.45899 0.0
H220 H 0.03884 0.95893 0.41586 0.0
H221 H 0.89218 0.03939 0.53248 0.0
H222 H 0.93268 0.00115 0.54879 0.0
H223 H 0.94917 0.05599 0.53757 0.0
H224 H 0.05983 0.9298 0.57341 0.0
H225 H 0.1023 0.05995 0.54437 0.0
H226 H 0.99545 0.90729 0.50216 0.0
H227 H 0.95814 0.92861 0.53335 0.0
H228 H 0.00235 0.89222 0.54608 0.0
H229 H 0.04523 0.06836 0.46882 0.0
H230 H 0.06465 0.10212 0.50349 0.0
H231 H 0.00659 0.08923 0.49922 0.0
C232 C 0.15431 0.74668 0.12732 0.0
C233 C 0.1388 0.71355 0.14913 0.0
C234 C 0.19874 0.75991 0.12792 0.0
C235 C 0.22838 0.73911 0.15064 0.0
C236 C 0.21287 0.70578 0.17286 0.0
C237 C 0.1681 0.69353 0.17197 0.0
C238 C 0.21403 0.79588 0.10406 0.0
C239 C 0.2437 0.68262 0.19718 0.0
C240 C 0.34967 0.74359 0.12651 0.0
C241 C 0.36515 0.77792 0.1473 0.0
C242 C 0.30539 0.72997 0.12791 0.0
C243 C 0.27587 0.75155 0.15039 0.0
C244 C 0.29141 0.78592 0.17172 0.0
C245 C 0.33602 0.79857 0.17004 0.0
C246 C 0.29007 0.69289 0.105 0.0
C247 C 0.26072 0.8099 0.19579 0.0
H248 H 0.13167 0.7624 0.10975 0.0
H249 H 0.15618 0.66785 0.18883 0.0
H250 H 0.2297 0.82315 0.11861 0.0
H251 H 0.23941 0.78253 0.08645 0.0
H252 H 0.18642 0.80978 0.08883 0.0
H253 H 0.22622 0.65795 0.2132 0.0
H254 H 0.27024 0.66543 0.18281 0.0
H255 H 0.25998 0.70719 0.21397 0.0
H256 H 0.37219 0.72737 0.10903 0.0
H257 H 0.34791 0.82516 0.18612 0.0
H258 H 0.26471 0.70545 0.08711 0.0
H259 H 0.27435 0.66634 0.12024 0.0
H260 H 0.31766 0.67826 0.09009 0.0
H261 H 0.23416 0.82666 0.18124 0.0
H262 H 0.27829 0.83507 0.21132 0.0
H263 H 0.24446 0.78593 0.21306 0.0
C264 C 0.3109 0.66215 0.63899 0.0
C265 C 0.29052 0.63163 0.61726 0.0
C266 C 0.29852 0.70689 0.63872 0.0
C267 C 0.26466 0.7211 0.61646 0.0
C268 C 0.24496 0.69067 0.59374 0.0
C269 C 0.25833 0.64628 0.59429 0.0
C270 C 0.32067 0.73864 0.66297 0.0
C271 C 0.20854 0.70461 0.56982 0.0
C272 C 0.19895 0.82198 0.64349 0.0
C273 C 0.21754 0.85503 0.6231 0.0
C274 C 0.21365 0.77808 0.64123 0.0
C275 C 0.24809 0.76723 0.6183 0.0
C276 C 0.26676 0.80041 0.59744 0.0
C277 C 0.25105 0.84397 0.59996 0.0
C278 C 0.19259 0.74338 0.66358 0.0
C279 C 0.30377 0.79003 0.57292 0.0
H280 H 0.33594 0.65093 0.65667 0.0
H281 H 0.24245 0.62273 0.57746 0.0
H282 H 0.33327 0.76795 0.64906 0.0
H283 H 0.2962 0.75072 0.68183 0.0
H284 H 0.34864 0.72304 0.67677 0.0
H285 H 0.19842 0.67744 0.55246 0.0
H286 H 0.17916 0.71532 0.58463 0.0
H287 H 0.21935 0.7333 0.55438 0.0
H288 H 0.17296 0.83045 0.66134 0.0
H289 H 0.26563 0.86954 0.58427 0.0
H290 H 0.21787 0.72882 0.68063 0.0
H291 H 0.17919 0.71609 0.64777 0.0
H292 H 0.16534 0.75708 0.67937 0.0
H293 H 0.33278 0.77702 0.58696 0.0
H294 H 0.31431 0.81956 0.55822 0.0
H295 H 0.2932 0.76388 0.55489 0.0
C296 C 0.64834 0.24542 0.89852 0.0
C297 C 0.63607 0.2125 0.87525 0.0
C298 C 0.69194 0.26104 0.8999 0.0
C299 C 0.72402 0.24288 0.87774 0.0
C300 C 0.71208 0.2088 0.85481 0.0
C301 C 0.66808 0.19417 0.8537 0.0
C302 C 0.70345 0.29764 0.92451 0.0
C303 C 0.74566 0.18826 0.83114 0.0
C304 C 0.82655 0.30907 0.85551 0.0
C305 C 0.85824 0.28957 0.87664 0.0
C306 C 0.78239 0.29484 0.85616 0.0
C307 C 0.76998 0.25997 0.87816 0.0
C308 C 0.80169 0.24075 0.9 0.0
C309 C 0.84544 0.256 0.89912 0.0
C310 C 0.7492 0.31651 0.83288 0.0
C311 C 0.78969 0.20328 0.92361 0.0
H312 H 0.6236 0.25981 0.91514 0.0
H313 H 0.65866 0.16865 0.83574 0.0
H314 H 0.73079 0.28698 0.94137 0.0
H315 H 0.71525 0.3271 0.91036 0.0
H316 H 0.67478 0.30756 0.94047 0.0
H317 H 0.73137 0.16093 0.81577 0.0
H318 H 0.75886 0.21382 0.81367 0.0
H319 H 0.77404 0.17511 0.84585 0.0
H320 H 0.83637 0.3351 0.83817 0.0
H321 H 0.86993 0.24071 0.91541 0.0
H322 H 0.72054 0.32889 0.84774 0.0
H323 H 0.73636 0.29181 0.81451 0.0
H324 H 0.76374 0.34458 0.81851 0.0
H325 H 0.76196 0.21329 0.94041 0.0
H326 H 0.81802 0.19282 0.93964 0.0
H327 H 0.77826 0.17433 0.90863 0.0
C328 C 0.7102 0.33361 0.32678 0.0
C329 C 0.72859 0.3651 0.34875 0.0
C330 C 0.72542 0.28974 0.32671 0.0
C331 C 0.76009 0.27737 0.34889 0.0
C332 C 0.7799 0.30948 0.37018 0.0
C333 C 0.76372 0.35296 0.36999 0.0
C334 C 0.70327 0.25627 0.30386 0.0
C335 C 0.81724 0.29759 0.39392 0.0
C336 C 0.76364 0.15814 0.37808 0.0
C337 C 0.7962 0.14011 0.35681 0.0
C338 C 0.75169 0.2028 0.37572 0.0
C339 C 0.77323 0.23021 0.35178 0.0
C340 C 0.80674 0.21244 0.33063 0.0
C341 C 0.81767 0.16738 0.33326 0.0
C342 C 0.71553 0.22048 0.39853 0.0
C343 C 0.83077 0.24094 0.30516 0.0
H344 H 0.68308 0.34294 0.3103 0.0
H345 H 0.77826 0.37735 0.38681 0.0
H346 H 0.72833 0.23868 0.28829 0.0
H347 H 0.68611 0.23103 0.31951 0.0
H348 H 0.67867 0.27177 0.28665 0.0
H349 H 0.83155 0.32717 0.4066 0.0
H350 H 0.80496 0.27462 0.41372 0.0
H351 H 0.84394 0.2802 0.37988 0.0
H352 H 0.74682 0.13712 0.39624 0.0
H353 H 0.84293 0.15351 0.31684 0.0
H354 H 0.68803 0.2338 0.38296 0.0
H355 H 0.72841 0.24816 0.41418 0.0
H356 H 0.70202 0.1947 0.41573 0.0
H357 H 0.80693 0.25434 0.28643 0.0
H358 H 0.85691 0.22234 0.29133 0.0
H359 H 0.84624 0.26964 0.31814 0.0
C360 C 0.78213 0.61276 0.33155 0.0
C361 C 0.78572 0.57504 0.35202 0.0
C362 C 0.81894 0.62901 0.31385 0.0
C363 C 0.86023 0.60728 0.31717 0.0
C364 C 0.86524 0.57326 0.3415 0.0
C365 C 0.82773 0.55726 0.35856 0.0
C366 C 0.81224 0.66585 0.28852 0.0
C367 C 0.90914 0.55051 0.34678 0.0
C368 C 0.92061 0.59579 0.2336 0.0
C369 C 0.95082 0.63085 0.23506 0.0
C370 C 0.89217 0.58691 0.26078 0.0
C371 C 0.89438 0.61342 0.29043 0.0
C372 C 0.9267 0.64718 0.29292 0.0
C373 C 0.95439 0.65576 0.26501 0.0
C374 C 0.85817 0.55052 0.25699 0.0
C375 C 0.93068 0.67568 0.32423 0.0
H376 H 0.74982 0.62707 0.32676 0.0
H377 H 0.83084 0.52853 0.37483 0.0
H378 H 0.83976 0.69005 0.28983 0.0
H379 H 0.81193 0.65173 0.26251 0.0
H380 H 0.78051 0.68364 0.29273 0.0
H381 H 0.90996 0.5321 0.37114 0.0
H382 H 0.91489 0.52658 0.32585 0.0
H383 H 0.93667 0.5748 0.34644 0.0
H384 H 0.91778 0.57636 0.21056 0.0
H385 H 0.97777 0.68293 0.26628 0.0
H386 H 0.82438 0.56488 0.258 0.0
H387 H 0.86105 0.52663 0.27821 0.0
H388 H 0.86181 0.53211 0.23273 0.0
H389 H 0.90486 0.70178 0.32363 0.0
H390 H 0.96349 0.69218 0.32562 0.0
H391 H 0.92561 0.65592 0.34761 0.0
C392 C 0.3662 0.39076 0.71518 0.0
C393 C 0.35542 0.43582 0.71632 0.0
C394 C 0.38153 0.3687 0.74403 0.0
C395 C 0.38576 0.39217 0.77499 0.0
C396 C 0.37358 0.43738 0.77665 0.0
C397 C 0.35884 0.45886 0.74713 0.0
C398 C 0.39441 0.32047 0.74104 0.0
C399 C 0.37695 0.4632 0.80934 0.0
C400 C 0.40131 0.30992 0.84588 0.0
C401 C 0.44747 0.30556 0.84541 0.0
C402 C 0.3803 0.34185 0.82561 0.0
C403 C 0.40624 0.3695 0.80447 0.0
C404 C 0.45292 0.36856 0.80712 0.0
C405 C 0.47296 0.33666 0.82771 0.0
C406 C 0.33042 0.34272 0.82418 0.0
C407 C 0.48192 0.39748 0.78517 0.0
H408 H 0.36342 0.37276 0.69146 0.0
H409 H 0.35009 0.49364 0.74816 0.0
H410 H 0.43014 0.31649 0.74681 0.0
H411 H 0.37569 0.30041 0.75971 0.0
H412 H 0.38807 0.30685 0.71531 0.0
H413 H 0.36071 0.49611 0.80752 0.0
H414 H 0.36165 0.44443 0.83049 0.0
H415 H 0.41228 0.4683 0.81587 0.0
H416 H 0.38147 0.28613 0.85974 0.0
H417 H 0.50875 0.3338 0.82772 0.0
H418 H 0.31911 0.32416 0.80148 0.0
H419 H 0.31796 0.37715 0.82195 0.0
H420 H 0.31545 0.32713 0.84697 0.0
H421 H 0.48143 0.38474 0.75875 0.0
H422 H 0.51679 0.39784 0.79409 0.0
H423 H 0.46939 0.43197 0.78465 0.0
C424 C 0.53828 0.85455 0.26016 0.0
C425 C 0.55069 0.86991 0.22796 0.0
C426 C 0.56269 0.8663 0.28917 0.0
C427 C 0.60074 0.89323 0.28561 0.0
C428 C 0.61286 0.90934 0.25317 0.0
C429 C 0.58746 0.89781 0.22486 0.0
C430 C 0.54838 0.84915 0.32339 0.0
C431 C 0.65342 0.93791 0.24813 0.0
C432 C 0.65914 0.96317 0.35045 0.0
C433 C 0.69864 0.93937 0.35419 0.0
C434 C 0.62401 0.94591 0.33137 0.0
C435 C 0.62912 0.90437 0.31518 0.0
C436 C 0.66682 0.87808 0.32227 0.0
C437 C 0.70111 0.89582 0.34206 0.0
C438 C 0.58374 0.97438 0.32537 0.0
C439 C 0.67361 0.83359 0.30556 0.0
H440 H 0.50986 0.8329 0.26264 0.0
H441 H 0.59733 0.90961 0.20003 0.0
H442 H 0.57253 0.8242 0.33247 0.0
H443 H 0.54775 0.87639 0.3423 0.0
H444 H 0.51514 0.83348 0.32246 0.0
H445 H 0.65838 0.94736 0.22118 0.0
H446 H 0.65057 0.96861 0.26346 0.0
H447 H 0.68335 0.91999 0.25692 0.0
H448 H 0.65699 0.99671 0.3602 0.0
H449 H 0.7316 0.87728 0.34496 0.0
H450 H 0.55317 0.95405 0.32509 0.0
H451 H 0.58667 0.99071 0.30027 0.0
H452 H 0.58036 0.00055 0.34503 0.0
H453 H 0.64255 0.81408 0.30553 0.0
H454 H 0.69988 0.81406 0.31837 0.0
H455 H 0.6836 0.83867 0.27875 0.0
C456 C 0.01674 0.16042 0.83051 0.0
C457 C 0.0438 0.1916 0.84675 0.0
C458 C 0.03506 0.12662 0.81064 0.0
C459 C 0.08158 0.12394 0.8071 0.0
C460 C 0.10909 0.15207 0.82669 0.0
C461 C 0.08979 0.18579 0.84637 0.0
C462 C 0.00445 0.09723 0.79039 0.0
C463 C 0.15886 0.14966 0.82412 0.0
C464 C 0.12686 0.02999 0.7527 0.0
C465 C 0.13041 0.05089 0.72107 0.0
C466 C 0.11211 0.0535 0.7814 0.0
C467 C 0.10041 0.09868 0.77812 0.0
C468 C 0.10434 0.11988 0.74625 0.0
C469 C 0.11936 0.09576 0.7182 0.0
C470 C 0.10868 0.03003 0.81504 0.0
C471 C 0.09203 0.16801 0.74156 0.0
H472 H 0.98108 0.16444 0.83118 0.0
H473 H 0.11082 0.20968 0.85907 0.0
H474 H 0.00404 0.10852 0.76361 0.0
H475 H 0.01614 0.06244 0.79055 0.0
H476 H 0.97001 0.09824 0.80026 0.0
H477 H 0.17515 0.16652 0.84584 0.0
H478 H 0.17028 0.11478 0.82308 0.0
H479 H 0.16975 0.1661 0.80039 0.0
H480 H 0.13574 0.99536 0.75505 0.0
H481 H 0.12224 0.11214 0.69385 0.0
H482 H 0.07353 0.02832 0.82308 0.0
H483 H 0.12677 0.04883 0.83486 0.0
H484 H 0.12215 0.99583 0.81391 0.0
H485 H 0.05654 0.17296 0.74779 0.0
H486 H 0.09784 0.17966 0.71521 0.0
H487 H 0.11156 0.18908 0.75908 0.0
C488 C 0.09724 0.37404 0.77876 0.0
C489 C 0.05222 0.36318 0.77769 0.0
C490 C 0.1195 0.38864 0.74974 0.0
C491 C 0.09626 0.39211 0.71867 0.0
C492 C 0.05093 0.38044 0.71719 0.0
C493 C 0.02928 0.36633 0.74687 0.0
C494 C 0.16784 0.40106 0.75255 0.0
C495 C 0.02534 0.38321 0.68442 0.0
C496 C 0.15498 0.47463 0.66353 0.0
C497 C 0.18545 0.44718 0.64683 0.0
C498 C 0.12214 0.45676 0.6845 0.0
C499 C 0.11967 0.41031 0.68861 0.0
C500 C 0.1467 0.38235 0.66844 0.0
C501 C 0.17951 0.4012 0.64772 0.0
C502 C 0.09389 0.48785 0.70533 0.0
C503 C 0.14435 0.33263 0.67152 0.0
H504 H 0.11515 0.37156 0.8025 0.0
H505 H 0.99452 0.35759 0.74591 0.0
H506 H 0.18783 0.38105 0.73456 0.0
H507 H 0.17237 0.43639 0.74568 0.0
H508 H 0.1811 0.39594 0.77852 0.0
H509 H 0.99116 0.3701 0.68702 0.0
H510 H 0.02343 0.41814 0.67594 0.0
H511 H 0.0427 0.36438 0.66421 0.0
H512 H 0.15906 0.51027 0.66247 0.0
H513 H 0.20281 0.37983 0.63464 0.0
H514 H 0.10683 0.48907 0.73165 0.0
H515 H 0.05919 0.47606 0.70659 0.0
H516 H 0.09414 0.52201 0.69492 0.0
H517 H 0.16223 0.32211 0.69472 0.0
H518 H 0.15982 0.3159 0.64937 0.0
H519 H 0.10956 0.32132 0.67391 0.0
C520 C 0.59343 0.57446 0.26625 0.0
C521 C 0.62729 0.54291 0.26426 0.0
C522 C 0.58357 0.60178 0.23865 0.0
C523 C 0.60765 0.59691 0.208 0.0
C524 C 0.63986 0.56308 0.20505 0.0
C525 C 0.64966 0.53669 0.23341 0.0
C526 C 0.549 0.63755 0.24301 0.0
C527 C 0.66549 0.5561 0.17262 0.0
C528 C 0.55006 0.66315 0.14032 0.0
C529 C 0.57072 0.70436 0.14458 0.0
C530 C 0.56514 0.62575 0.15796 0.0
C531 C 0.60113 0.6301 0.18066 0.0
C532 C 0.62523 0.67028 0.18182 0.0
C533 C 0.6099 0.70691 0.16348 0.0
C534 C 0.53973 0.58294 0.15497 0.0
C535 C 0.66405 0.67629 0.20547 0.0
H536 H 0.57596 0.57935 0.28999 0.0
H537 H 0.67581 0.5122 0.23172 0.0
H538 H 0.56468 0.6706 0.24039 0.0
H539 H 0.52343 0.63469 0.22298 0.0
H540 H 0.53237 0.63597 0.26812 0.0
H541 H 0.68089 0.52271 0.17168 0.0
H542 H 0.64389 0.56024 0.15011 0.0
H543 H 0.69228 0.5811 0.17091 0.0
H544 H 0.52013 0.66082 0.12528 0.0
H545 H 0.62635 0.73856 0.16656 0.0
H546 H 0.517 0.57967 0.17695 0.0
H547 H 0.56249 0.5541 0.15526 0.0
H548 H 0.51964 0.58184 0.1314 0.0
H549 H 0.65181 0.67834 0.23199 0.0
H550 H 0.68296 0.70695 0.19981 0.0
H551 H 0.68685 0.6476 0.20388 0.0
C552 C 0.46445 0.1293 0.74644 0.0
C553 C 0.44164 0.13496 0.77715 0.0
C554 C 0.44248 0.11354 0.71739 0.0
C555 C 0.39698 0.10266 0.71947 0.0
C556 C 0.37376 0.10923 0.7503 0.0
C557 C 0.39633 0.12546 0.77864 0.0
C558 C 0.46813 0.10756 0.68485 0.0
C559 C 0.32521 0.09789 0.75375 0.0
C560 C 0.31289 0.08527 0.65026 0.0
C561 C 0.30674 0.03945 0.6529 0.0
C562 C 0.34627 0.10648 0.66903 0.0
C563 C 0.37358 0.08106 0.69077 0.0
C564 C 0.37094 0.03432 0.68998 0.0
C565 C 0.33749 0.01407 0.671 0.0
C566 C 0.34894 0.15634 0.66848 0.0
C567 C 0.39965 0.00584 0.71244 0.0
H568 H 0.49945 0.137 0.74513 0.0
H569 H 0.37848 0.13 0.80226 0.0
H570 H 0.47415 0.07179 0.6804 0.0
H571 H 0.44898 0.12022 0.66292 0.0
H572 H 0.50064 0.12471 0.68568 0.0
H573 H 0.31186 0.10617 0.77925 0.0
H574 H 0.30561 0.11602 0.73448 0.0
H575 H 0.32024 0.06197 0.74921 0.0
H576 H 0.28935 0.10495 0.63604 0.0
H577 H 0.33321 0.97848 0.67257 0.0
H578 H 0.38383 0.16766 0.66979 0.0
H579 H 0.33134 0.1699 0.69093 0.0
H580 H 0.33333 0.17024 0.64533 0.0
H581 H 0.43445 0.01742 0.71206 0.0
H582 H 0.39883 0.97048 0.70465 0.0
H583 H 0.38761 0.00821 0.73899 0.0
C584 C 0.88758 0.786 0.1606 0.0
C585 C 0.931 0.78954 0.14831 0.0
C586 C 0.86856 0.82041 0.17962 0.0
C587 C 0.89371 0.85898 0.18641 0.0
C588 C 0.93507 0.86497 0.17017 0.0
C589 C 0.95323 0.83011 0.15119 0.0
C590 C 0.8239 0.81308 0.19583 0.0
C591 C 0.9627 0.90583 0.17629 0.0
C592 C 0.84511 0.95136 0.24091 0.0
C593 C 0.85986 0.93883 0.27323 0.0
C594 C 0.85583 0.92591 0.21212 0.0
C595 C 0.88195 0.88731 0.21594 0.0
C596 C 0.89733 0.87501 0.24852 0.0
C597 C 0.88602 0.90085 0.27669 0.0
C598 C 0.83849 0.93973 0.17786 0.0
C599 C 0.9255 0.8342 0.25379 0.0
H600 H 0.86994 0.75492 0.15806 0.0
H601 H 0.98657 0.83331 0.14128 0.0
H602 H 0.82858 0.80272 0.22258 0.0
H603 H 0.80412 0.84402 0.19595 0.0
H604 H 0.80486 0.78681 0.18254 0.0
H605 H 0.98909 0.90954 0.15686 0.0
H606 H 0.94187 0.93606 0.17632 0.0
H607 H 0.97868 0.90335 0.20155 0.0
H608 H 0.82457 0.98056 0.2382 0.0
H609 H 0.89754 0.89104 0.3016 0.0
H610 H 0.81395 0.91509 0.16883 0.0
H611 H 0.8657 0.94058 0.15897 0.0
H612 H 0.82234 0.97276 0.17868 0.0
H613 H 0.90706 0.80428 0.2456 0.0
H614 H 0.93538 0.8298 0.2807 0.0
H615 H 0.95593 0.83626 0.23809 0.0
loop_
_geom_bond_atom_site_label_1
_geom_bond_atom_site_label_2
_geom_bond_distance
_geom_bond_site_symmetry_2
_ccdc_geom_bond_type
In0 O1 2.293 1_455 S
In0 O2 2.327 . S
In0 O6 2.264 1_455 S
In0 O7 2.325 1_455 S
In0 O8 2.266 1_455 S
In0 O9 2.323 1_455 S
In0 O11 2.297 . S
In0 O12 2.329 . S
O1 In0 2.293 1_655 S
O1 C10 1.240 1_655 S
O2 In0 2.327 . S
O2 C10 1.252 . S
C3 O6 1.252 . S
C3 O7 1.260 . S
C4 O11 1.240 . S
C4 O12 1.252 . S
C5 O8 1.252 . S
C5 O9 1.260 . S
O6 In0 2.264 1_655 S
O6 C3 1.252 . S
O7 In0 2.325 1_655 S
O7 C3 1.260 . S
O8 In0 2.266 1_655 S
O8 C5 1.252 . S
O9 In0 2.323 1_655 S
O9 C5 1.260 . S
C10 O1 1.240 1_455 S
C10 O2 1.252 . S
O11 In0 2.297 . S
O11 C4 1.240 . S
O12 In0 2.329 . S
O12 C4 1.252 . S
In13 O14 2.294 . S
In13 O15 2.326 . S
In13 O19 2.266 . S
In13 O20 2.326 . S
In13 O21 2.266 . S
In13 O22 2.326 . S
In13 O24 2.294 . S
In13 O25 2.326 . S
O14 In13 2.294 . S
O14 C23 1.240 . S
O15 In13 2.326 . S
O15 C23 1.252 . S
C16 O19 1.252 . S
C16 O20 1.260 . S
C17 O24 1.240 . S
C17 O25 1.252 . S
C18 O21 1.252 . S
C18 O22 1.260 . S
O19 In13 2.266 . S
O19 C16 1.252 . S
O20 In13 2.326 . S
O20 C16 1.260 . S
O21 In13 2.266 . S
O21 C18 1.252 . S
O22 In13 2.326 . S
O22 C18 1.260 . S
C23 O14 1.240 . S
C23 O15 1.252 . S
O24 In13 2.294 . S
O24 C17 1.240 . S
O25 In13 2.326 . S
O25 C17 1.252 . S
In26 O27 2.294 . S
In26 O28 2.326 . S
In26 O32 2.266 . S
In26 O33 2.326 . S
In26 O34 2.266 . S
In26 O35 2.326 . S
In26 O37 2.294 . S
In26 O38 2.326 . S
O27 In26 2.294 . S
O27 C36 1.240 . S
O28 In26 2.326 . S
O28 C36 1.252 . S
C29 O32 1.252 . S
C29 O33 1.260 . S
C30 O37 1.240 . S
C30 O38 1.252 . S
C31 O34 1.252 . S
C31 O35 1.260 . S
O32 In26 2.266 . S
O32 C29 1.252 . S
O33 In26 2.326 . S
O33 C29 1.260 . S
O34 In26 2.266 . S
O34 C31 1.252 . S
O35 In26 2.326 . S
O35 C31 1.260 . S
C36 O27 1.240 . S
C36 O28 1.252 . S
O37 In26 2.294 . S
O37 C30 1.240 . S
O38 In26 2.326 . S
O38 C30 1.252 . S
In39 O40 2.297 . S
In39 O41 2.329 . S
In39 O45 2.266 1_565 S
In39 O46 2.323 1_565 S
In39 O47 2.264 1_565 S
In39 O48 2.325 1_565 S
In39 O50 2.293 1_565 S
In39 O51 2.327 . S
O40 In39 2.297 . S
O40 C49 1.240 . S
O41 In39 2.329 . S
O41 C49 1.252 . S
C42 O45 1.252 . S
C42 O46 1.260 . S
C43 O50 1.240 1_565 S
C43 O51 1.252 . S
C44 O47 1.252 . S
C44 O48 1.260 . S
O45 In39 2.266 1_545 S
O45 C42 1.252 . S
O46 In39 2.323 1_545 S
O46 C42 1.260 . S
O47 In39 2.264 1_545 S
O47 C44 1.252 . S
O48 In39 2.325 1_545 S
O48 C44 1.260 . S
C49 O40 1.240 . S
C49 O41 1.252 . S
O50 In39 2.293 1_545 S
O50 C43 1.240 1_545 S
O51 In39 2.327 . S
O51 C43 1.252 . S
In52 O53 2.297 . S
In52 O54 2.329 . S
In52 O58 2.266 1_655 S
In52 O59 2.323 1_655 S
In52 O60 2.264 1_655 S
In52 O61 2.325 1_655 S
In52 O63 2.293 1_655 S
In52 O64 2.327 . S
O53 In52 2.297 . S
O53 C62 1.240 . S
O54 In52 2.329 . S
O54 C62 1.252 . S
C55 O58 1.252 . S
C55 O59 1.260 . S
C56 O63 1.240 1_655 S
C56 O64 1.252 . S
C57 O60 1.252 . S
C57 O61 1.260 . S
O58 In52 2.266 1_455 S
O58 C55 1.252 . S
O59 In52 2.323 1_455 S
O59 C55 1.260 . S
O60 In52 2.264 1_455 S
O60 C57 1.252 . S
O61 In52 2.325 1_455 S
O61 C57 1.260 . S
C62 O53 1.240 . S
C62 O54 1.252 . S
O63 In52 2.293 1_455 S
O63 C56 1.240 1_455 S
O64 In52 2.327 . S
O64 C56 1.252 . S
In65 O66 2.294 . S
In65 O67 2.326 . S
In65 O71 2.266 . S
In65 O72 2.326 . S
In65 O73 2.266 . S
In65 O74 2.326 . S
In65 O76 2.294 . S
In65 O77 2.326 . S
O66 In65 2.294 . S
O66 C75 1.240 . S
O67 In65 2.326 . S
O67 C75 1.252 . S
C68 O71 1.252 . S
C68 O72 1.260 . S
C69 O76 1.240 . S
C69 O77 1.252 . S
C70 O73 1.252 . S
C70 O74 1.260 . S
O71 In65 2.266 . S
O71 C68 1.252 . S
O72 In65 2.326 . S
O72 C68 1.260 . S
O73 In65 2.266 . S
O73 C70 1.252 . S
O74 In65 2.326 . S
O74 C70 1.260 . S
C75 O66 1.240 . S
C75 O67 1.252 . S
O76 In65 2.294 . S
O76 C69 1.240 . S
O77 In65 2.326 . S
O77 C69 1.252 . S
In78 O79 2.294 . S
In78 O80 2.326 . S
In78 O84 2.266 . S
In78 O85 2.326 . S
In78 O86 2.266 . S
In78 O87 2.326 . S
In78 O89 2.294 . S
In78 O90 2.326 . S
O79 In78 2.294 . S
O79 C88 1.240 . S
O80 In78 2.326 . S
O80 C88 1.252 . S
C81 O84 1.252 . S
C81 O85 1.260 . S
C82 O89 1.240 . S
C82 O90 1.252 . S
C83 O86 1.252 . S
C83 O87 1.260 . S
O84 In78 2.266 . S
O84 C81 1.252 . S
O85 In78 2.326 . S
O85 C81 1.260 . S
O86 In78 2.266 . S
O86 C83 1.252 . S
O87 In78 2.326 . S
O87 C83 1.260 . S
C88 O79 1.240 . S
C88 O80 1.252 . S
O89 In78 2.294 . S
O89 C82 1.240 . S
O90 In78 2.326 . S
O90 C82 1.252 . S
In91 O92 2.297 . S
In91 O93 2.329 . S
In91 O97 2.266 1_545 S
In91 O98 2.323 1_545 S
In91 O99 2.264 1_545 S
In91 O100 2.325 1_545 S
In91 O102 2.293 1_545 S
In91 O103 2.327 . S
O92 In91 2.297 . S
O92 C101 1.240 . S
O93 In91 2.329 . S
O93 C101 1.252 . S
C94 O97 1.252 . S
C94 O98 1.260 . S
C95 O102 1.240 1_545 S
C95 O103 1.252 . S
C96 O99 1.252 . S
C96 O100 1.260 . S
O97 In91 2.266 1_565 S
O97 C94 1.252 . S
O98 In91 2.323 1_565 S
O98 C94 1.260 . S
O99 In91 2.264 1_565 S
O99 C96 1.252 . S
O100 In91 2.325 1_565 S
O100 C96 1.260 . S
C101 O92 1.240 . S
C101 O93 1.252 . S
O102 In91 2.293 1_565 S
O102 C95 1.240 1_565 S
O103 In91 2.327 . S
O103 C95 1.252 . S
C104 C105 1.391 1_455 S
C104 C106 1.394 . S
C104 H120 0.931 . S
C105 C104 1.391 1_655 S
C105 C109 1.376 . S
C106 C104 1.394 . S
C106 C107 1.369 1_455 S
C106 C110 1.531 . S
C107 C106 1.369 1_655 S
C107 C108 1.410 . S
C107 C115 1.503 1_556 S
C108 C107 1.410 . S
C108 C109 1.392 . S
C108 C111 1.511 1_556 S
C109 C105 1.376 . S
C109 C108 1.392 . S
C109 H121 0.929 . S
C110 C106 1.531 . S
C110 H122 0.960 . S
C110 H123 0.962 . S
C110 H124 0.960 . S
C111 C108 1.511 1_554 S
C111 H125 0.961 . S
C111 H126 0.961 . S
C111 H127 0.961 . S
C112 C113 1.370 . S
C112 C114 1.363 . S
C112 H128 0.931 . S
C113 C112 1.370 . S
C113 C117 1.408 1_455 S
C114 C112 1.363 . S
C114 C115 1.370 1_455 S
C114 C118 1.524 . S
C115 C107 1.503 1_554 S
C115 C114 1.370 1_655 S
C115 C116 1.397 1_554 S
C116 C115 1.397 1_556 S
C116 C117 1.389 1_556 S
C116 C119 1.559 . S
C117 C113 1.408 1_655 S
C117 C116 1.389 1_554 S
C117 H129 0.930 . S
C118 C114 1.524 . S
C118 H130 0.956 . S
C118 H131 0.961 . S
C118 H132 0.961 . S
C119 C116 1.559 . S
C119 H133 0.958 . S
C119 H134 0.961 . S
C119 H135 0.960 . S
H120 C104 0.931 . S
H121 C109 0.929 . S
H122 C110 0.960 . S
H123 C110 0.962 . S
H124 C110 0.960 . S
H125 C111 0.961 . S
H126 C111 0.961 . S
H127 C111 0.961 . S
H128 C112 0.931 . S
H129 C117 0.930 . S
H130 C118 0.956 . S
H131 C118 0.961 . S
H132 C118 0.961 . S
H133 C119 0.958 . S
H134 C119 0.961 . S
H135 C119 0.960 . S
C136 C137 1.391 . S
C136 C138 1.394 . S
C136 H152 0.931 . S
C137 C136 1.391 . S
C137 C141 1.376 . S
C138 C136 1.394 . S
C138 C139 1.369 . S
C138 C142 1.531 . S
C139 C138 1.369 . S
C139 C140 1.410 . S
C139 C147 1.503 . S
C140 C139 1.410 . S
C140 C141 1.392 . S
C140 C143 1.511 . S
C141 C137 1.376 . S
C141 C140 1.392 . S
C141 H153 0.929 . S
C142 C138 1.531 . S
C142 H154 0.960 . S
C142 H155 0.962 . S
C142 H156 0.960 . S
C143 C140 1.511 . S
C143 H157 0.961 . S
C143 H158 0.961 . S
C143 H159 0.961 . S
C144 C145 1.370 . S
C144 C146 1.363 . S
C144 H160 0.931 . S
C145 C144 1.370 . S
C145 C149 1.408 . S
C146 C144 1.363 . S
C146 C147 1.370 . S
C146 C150 1.524 . S
C147 C139 1.503 . S
C147 C146 1.370 . S
C147 C148 1.403 . S
C148 C147 1.403 . S
C148 C149 1.404 . S
C148 C151 1.539 . S
C149 C145 1.408 . S
C149 C148 1.404 . S
C149 H161 0.930 . S
C150 C146 1.524 . S
C150 H162 0.956 . S
C150 H163 0.961 . S
C150 H164 0.961 . S
C151 C148 1.539 . S
C151 H165 0.958 . S
C151 H166 0.961 . S
C151 H167 0.960 . S
H152 C136 0.931 . S
H153 C141 0.929 . S
H154 C142 0.960 . S
H155 C142 0.962 . S
H156 C142 0.960 . S
H157 C143 0.961 . S
H158 C143 0.961 . S
H159 C143 0.961 . S
H160 C144 0.931 . S
H161 C149 0.930 . S
H162 C150 0.956 . S
H163 C150 0.961 . S
H164 C150 0.961 . S
H165 C151 0.958 . S
H166 C151 0.961 . S
H167 C151 0.960 . S
C168 C169 1.391 . S
C168 C170 1.394 . S
C168 H184 0.931 . S
C169 C168 1.391 . S
C169 C173 1.376 . S
C170 C168 1.394 . S
C170 C171 1.369 . S
C170 C174 1.531 1_554 S
C171 C170 1.369 . S
C171 C172 1.410 . S
C171 C179 1.503 1_564 S
C172 C171 1.410 . S
C172 C173 1.392 . S
C172 C175 1.511 . S
C173 C169 1.376 . S
C173 C172 1.392 . S
C173 H185 0.929 . S
C174 C170 1.531 1_556 S
C174 H186 0.960 . S
C174 H187 0.962 1_556 S
C174 H188 0.960 . S
C175 C172 1.511 . S
C175 H189 0.961 . S
C175 H190 0.961 1_565 S
C175 H191 0.961 1_554 S
C176 C177 1.370 . S
C176 C178 1.363 1_556 S
C176 H192 0.947 . S
C177 C176 1.370 . S
C177 C181 1.408 . S
C178 C176 1.363 1_554 S
C178 C179 1.370 1_554 S
C178 C182 1.524 . S
C179 C171 1.503 1_546 S
C179 C178 1.370 1_556 S
C179 C180 1.403 . S
C180 C179 1.403 . S
C180 C181 1.404 . S
C180 C183 1.539 1_545 S
C181 C177 1.408 . S
C181 C180 1.404 . S
C181 H193 0.930 . S
C182 C178 1.524 . S
C182 H194 0.956 . S
C182 H195 0.961 . S
C182 H196 0.961 . S
C183 C180 1.539 1_565 S
C183 H197 0.958 . S
C183 H198 0.961 . S
C183 H199 0.960 . S
H184 C168 0.931 . S
H185 C173 0.929 . S
H186 C174 0.960 . S
H187 C174 0.962 1_554 S
H188 C174 0.960 . S
H189 C175 0.961 . S
H190 C175 0.961 1_545 S
H191 C175 0.961 1_556 S
H192 C176 0.947 . S
H193 C181 0.930 . S
H194 C182 0.956 . S
H195 C182 0.961 . S
H196 C182 0.961 . S
H197 C183 0.958 . S
H198 C183 0.961 . S
H199 C183 0.960 . S
C200 C201 1.391 1_565 S
C200 C202 1.394 . S
C200 H216 0.931 . S
C201 C200 1.391 1_545 S
C201 C205 1.376 . S
C202 C200 1.394 . S
C202 C203 1.369 1_565 S
C202 C206 1.531 1_655 S
C203 C202 1.369 1_545 S
C203 C204 1.410 . S
C203 C211 1.503 1_655 S
C204 C203 1.410 . S
C204 C205 1.392 . S
C204 C207 1.511 . S
C205 C201 1.376 . S
C205 C204 1.392 . S
C205 H217 0.929 . S
C206 C202 1.531 1_455 S
C206 H218 0.960 1_565 S
C206 H219 0.962 . S
C206 H220 0.960 . S
C207 C204 1.511 . S
C207 H221 0.961 . S
C207 H222 0.961 . S
C207 H223 0.961 . S
C208 C209 1.387 . S
C208 C210 1.363 . S
C208 H224 0.931 . S
C209 C208 1.387 . S
C209 C213 1.390 1_565 S
C210 C208 1.363 . S
C210 C211 1.370 1_565 S
C210 C214 1.531 . S
C211 C203 1.503 1_455 S
C211 C210 1.370 1_545 S
C211 C212 1.403 . S
C212 C211 1.403 . S
C212 C213 1.404 . S
C212 C215 1.539 . S
C213 C209 1.390 1_545 S
C213 C212 1.404 . S
C213 H225 0.930 . S
C214 C210 1.531 . S
C214 H226 0.956 . S
C214 H227 0.951 1_455 S
C214 H228 0.964 . S
C215 C212 1.539 . S
C215 H229 0.958 . S
C215 H230 0.961 . S
C215 H231 0.960 . S
H216 C200 0.931 . S
H217 C205 0.929 . S
H218 C206 0.960 1_545 S
H219 C206 0.962 . S
H220 C206 0.960 . S
H221 C207 0.961 . S
H222 C207 0.961 . S
H223 C207 0.961 . S
H224 C208 0.931 . S
H225 C213 0.930 . S
H226 C214 0.956 . S
H227 C214 0.951 1_655 S
H228 C214 0.964 . S
H229 C215 0.958 . S
H230 C215 0.961 . S
H231 C215 0.960 . S
C232 C233 1.391 . S
C232 C234 1.394 . S
C232 H248 0.931 . S
C233 C232 1.391 . S
C233 C237 1.376 . S
C234 C232 1.394 . S
C234 C235 1.369 . S
C234 C238 1.531 . S
C235 C234 1.369 . S
C235 C236 1.410 . S
C235 C243 1.503 . S
C236 C235 1.410 . S
C236 C237 1.392 . S
C236 C239 1.511 . S
C237 C233 1.376 . S
C237 C236 1.392 . S
C237 H249 0.929 . S
C238 C234 1.531 . S
C238 H250 0.960 . S
C238 H251 0.962 . S
C238 H252 0.960 . S
C239 C236 1.511 . S
C239 H253 0.961 . S
C239 H254 0.961 . S
C239 H255 0.961 . S
C240 C241 1.370 . S
C240 C242 1.363 . S
C240 H256 0.931 . S
C241 C240 1.370 . S
C241 C245 1.408 . S
C242 C240 1.363 . S
C242 C243 1.370 . S
C242 C246 1.524 . S
C243 C235 1.503 . S
C243 C242 1.370 . S
C243 C244 1.403 . S
C244 C243 1.403 . S
C244 C245 1.404 . S
C244 C247 1.539 . S
C245 C241 1.408 . S
C245 C244 1.404 . S
C245 H257 0.930 . S
C246 C242 1.524 . S
C246 H258 0.956 . S
C246 H259 0.961 . S
C246 H260 0.961 . S
C247 C244 1.539 . S
C247 H261 0.958 . S
C247 H262 0.961 . S
C247 H263 0.960 . S
H248 C232 0.931 . S
H249 C237 0.929 . S
H250 C238 0.960 . S
H251 C238 0.962 . S
H252 C238 0.960 . S
H253 C239 0.961 . S
H254 C239 0.961 . S
H255 C239 0.961 . S
H256 C240 0.931 . S
H257 C245 0.930 . S
H258 C246 0.956 . S
H259 C246 0.961 . S
H260 C246 0.961 . S
H261 C247 0.958 . S
H262 C247 0.961 . S
H263 C247 0.960 . S
C264 C265 1.391 . S
C264 C266 1.394 . S
C264 H280 0.931 . S
C265 C264 1.391 . S
C265 C269 1.376 . S
C266 C264 1.394 . S
C266 C267 1.369 . S
C266 C270 1.531 . S
C267 C266 1.369 . S
C267 C268 1.410 . S
C267 C275 1.503 . S
C268 C267 1.410 . S
C268 C269 1.392 . S
C268 C271 1.511 . S
C269 C265 1.376 . S
C269 C268 1.392 . S
C269 H281 0.929 . S
C270 C266 1.531 . S
C270 H282 0.960 . S
C270 H283 0.962 . S
C270 H284 0.960 . S
C271 C268 1.511 . S
C271 H285 0.961 . S
C271 H286 0.961 . S
C271 H287 0.961 . S
C272 C273 1.370 . S
C272 C274 1.363 . S
C272 H288 0.931 . S
C273 C272 1.370 . S
C273 C277 1.408 . S
C274 C272 1.363 . S
C274 C275 1.370 . S
C274 C278 1.524 . S
C275 C267 1.503 . S
C275 C274 1.370 . S
C275 C276 1.403 . S
C276 C275 1.403 . S
C276 C277 1.404 . S
C276 C279 1.539 . S
C277 C273 1.408 . S
C277 C276 1.404 . S
C277 H289 0.930 . S
C278 C274 1.524 . S
C278 H290 0.956 . S
C278 H291 0.961 . S
C278 H292 0.961 . S
C279 C276 1.539 . S
C279 H293 0.958 . S
C279 H294 0.961 . S
C279 H295 0.960 . S
H280 C264 0.931 . S
H281 C269 0.929 . S
H282 C270 0.960 . S
H283 C270 0.962 . S
H284 C270 0.960 . S
H285 C271 0.961 . S
H286 C271 0.961 . S
H287 C271 0.961 . S
H288 C272 0.931 . S
H289 C277 0.930 . S
H290 C278 0.956 . S
H291 C278 0.961 . S
H292 C278 0.961 . S
H293 C279 0.958 . S
H294 C279 0.961 . S
H295 C279 0.960 . S
C296 C297 1.391 . S
C296 C298 1.394 . S
C296 H312 0.931 . S
C297 C296 1.391 . S
C297 C301 1.376 . S
C298 C296 1.394 . S
C298 C299 1.369 . S
C298 C302 1.531 . S
C299 C298 1.369 . S
C299 C300 1.410 . S
C299 C307 1.503 . S
C300 C299 1.410 . S
C300 C301 1.392 . S
C300 C303 1.511 . S
C301 C297 1.376 . S
C301 C300 1.392 . S
C301 H313 0.929 . S
C302 C298 1.531 . S
C302 H314 0.960 . S
C302 H315 0.962 . S
C302 H316 0.960 . S
C303 C300 1.511 . S
C303 H317 0.961 . S
C303 H318 0.961 . S
C303 H319 0.961 . S
C304 C305 1.370 . S
C304 C306 1.363 . S
C304 H320 0.931 . S
C305 C304 1.370 . S
C305 C309 1.408 . S
C306 C304 1.363 . S
C306 C307 1.370 . S
C306 C310 1.524 . S
C307 C299 1.503 . S
C307 C306 1.370 . S
C307 C308 1.403 . S
C308 C307 1.403 . S
C308 C309 1.404 . S
C308 C311 1.539 . S
C309 C305 1.408 . S
C309 C308 1.404 . S
C309 H321 0.930 . S
C310 C306 1.524 . S
C310 H322 0.956 . S
C310 H323 0.961 . S
C310 H324 0.961 . S
C311 C308 1.539 . S
C311 H325 0.958 . S
C311 H326 0.961 . S
C311 H327 0.960 . S
H312 C296 0.931 . S
H313 C301 0.929 . S
H314 C302 0.960 . S
H315 C302 0.962 . S
H316 C302 0.960 . S
H317 C303 0.961 . S
H318 C303 0.961 . S
H319 C303 0.961 . S
H320 C304 0.931 . S
H321 C309 0.930 . S
H322 C310 0.956 . S
H323 C310 0.961 . S
H324 C310 0.961 . S
H325 C311 0.958 . S
H326 C311 0.961 . S
H327 C311 0.960 . S
C328 C329 1.391 . S
C328 C330 1.394 . S
C328 H344 0.931 . S
C329 C328 1.391 . S
C329 C333 1.376 . S
C330 C328 1.394 . S
C330 C331 1.369 . S
C330 C334 1.531 . S
C331 C330 1.369 . S
C331 C332 1.410 . S
C331 C339 1.503 . S
C332 C331 1.410 . S
C332 C333 1.392 . S
C332 C335 1.511 . S
C333 C329 1.376 . S
C333 C332 1.392 . S
C333 H345 0.929 . S
C334 C330 1.531 . S
C334 H346 0.960 . S
C334 H347 0.962 . S
C334 H348 0.960 . S
C335 C332 1.511 . S
C335 H349 0.961 . S
C335 H350 0.961 . S
C335 H351 0.961 . S
C336 C337 1.370 . S
C336 C338 1.363 . S
C336 H352 0.931 . S
C337 C336 1.370 . S
C337 C341 1.408 . S
C338 C336 1.363 . S
C338 C339 1.370 . S
C338 C342 1.524 . S
C339 C331 1.503 . S
C339 C338 1.370 . S
C339 C340 1.403 . S
C340 C339 1.403 . S
C340 C341 1.404 . S
C340 C343 1.539 . S
C341 C337 1.408 . S
C341 C340 1.404 . S
C341 H353 0.930 . S
C342 C338 1.524 . S
C342 H354 0.956 . S
C342 H355 0.961 . S
C342 H356 0.961 . S
C343 C340 1.539 . S
C343 H357 0.958 . S
C343 H358 0.961 . S
C343 H359 0.960 . S
H344 C328 0.931 . S
H345 C333 0.929 . S
H346 C334 0.960 . S
H347 C334 0.962 . S
H348 C334 0.960 . S
H349 C335 0.961 . S
H350 C335 0.961 . S
H351 C335 0.961 . S
H352 C336 0.931 . S
H353 C341 0.930 . S
H354 C342 0.956 . S
H355 C342 0.961 . S
H356 C342 0.961 . S
H357 C343 0.958 . S
H358 C343 0.961 . S
H359 C343 0.960 . S
C360 C361 1.391 . S
C360 C362 1.394 . S
C360 H376 0.931 . S
C361 C360 1.391 . S
C361 C365 1.376 . S
C362 C360 1.394 . S
C362 C363 1.369 . S
C362 C366 1.531 . S
C363 C362 1.369 . S
C363 C364 1.410 . S
C363 C371 1.503 . S
C364 C363 1.410 . S
C364 C365 1.392 . S
C364 C367 1.511 . S
C365 C361 1.376 . S
C365 C364 1.392 . S
C365 H377 0.929 . S
C366 C362 1.531 . S
C366 H378 0.960 . S
C366 H379 0.962 . S
C366 H380 0.960 . S
C367 C364 1.511 . S
C367 H381 0.961 . S
C367 H382 0.961 . S
C367 H383 0.961 . S
C368 C369 1.370 . S
C368 C370 1.363 . S
C368 H384 0.931 . S
C369 C368 1.370 . S
C369 C373 1.408 . S
C370 C368 1.363 . S
C370 C371 1.370 . S
C370 C374 1.524 . S
C371 C363 1.503 . S
C371 C370 1.370 . S
C371 C372 1.403 . S
C372 C371 1.403 . S
C372 C373 1.404 . S
C372 C375 1.539 . S
C373 C369 1.408 . S
C373 C372 1.404 . S
C373 H385 0.930 . S
C374 C370 1.524 . S
C374 H386 0.956 . S
C374 H387 0.961 . S
C374 H388 0.961 . S
C375 C372 1.539 . S
C375 H389 0.958 . S
C375 H390 0.961 . S
C375 H391 0.960 . S
H376 C360 0.931 . S
H377 C365 0.929 . S
H378 C366 0.960 . S
H379 C366 0.962 . S
H380 C366 0.960 . S
H381 C367 0.961 . S
H382 C367 0.961 . S
H383 C367 0.961 . S
H384 C368 0.931 . S
H385 C373 0.930 . S
H386 C374 0.956 . S
H387 C374 0.961 . S
H388 C374 0.961 . S
H389 C375 0.958 . S
H390 C375 0.961 . S
H391 C375 0.960 . S
C392 C393 1.391 . S
C392 C394 1.394 . S
C392 H408 0.931 . S
C393 C392 1.391 . S
C393 C397 1.376 . S
C394 C392 1.394 . S
C394 C395 1.369 . S
C394 C398 1.531 . S
C395 C394 1.369 . S
C395 C396 1.410 . S
C395 C403 1.503 . S
C396 C395 1.410 . S
C396 C397 1.392 . S
C396 C399 1.511 . S
C397 C393 1.376 . S
C397 C396 1.392 . S
C397 H409 0.929 . S
C398 C394 1.531 . S
C398 H410 0.960 . S
C398 H411 0.962 . S
C398 H412 0.960 . S
C399 C396 1.511 . S
C399 H413 0.961 . S
C399 H414 0.961 . S
C399 H415 0.961 . S
C400 C401 1.370 . S
C400 C402 1.363 . S
C400 H416 0.931 . S
C401 C400 1.370 . S
C401 C405 1.408 . S
C402 C400 1.363 . S
C402 C403 1.370 . S
C402 C406 1.524 . S
C403 C395 1.503 . S
C403 C402 1.370 . S
C403 C404 1.403 . S
C404 C403 1.403 . S
C404 C405 1.404 . S
C404 C407 1.539 . S
C405 C401 1.408 . S
C405 C404 1.404 . S
C405 H417 0.930 . S
C406 C402 1.524 . S
C406 H418 0.956 . S
C406 H419 0.961 . S
C406 H420 0.961 . S
C407 C404 1.539 . S
C407 H421 0.958 . S
C407 H422 0.961 . S
C407 H423 0.960 . S
H408 C392 0.931 . S
H409 C397 0.929 . S
H410 C398 0.960 . S
H411 C398 0.962 . S
H412 C398 0.960 . S
H413 C399 0.961 . S
H414 C399 0.961 . S
H415 C399 0.961 . S
H416 C400 0.931 . S
H417 C405 0.930 . S
H418 C406 0.956 . S
H419 C406 0.961 . S
H420 C406 0.961 . S
H421 C407 0.958 . S
H422 C407 0.961 . S
H423 C407 0.960 . S
C424 C425 1.391 . S
C424 C426 1.394 . S
C424 H440 0.931 . S
C425 C424 1.391 . S
C425 C429 1.376 . S
C426 C424 1.394 . S
C426 C427 1.369 . S
C426 C430 1.531 . S
C427 C426 1.369 . S
C427 C428 1.410 . S
C427 C435 1.503 . S
C428 C427 1.410 . S
C428 C429 1.392 . S
C428 C431 1.511 . S
C429 C425 1.376 . S
C429 C428 1.392 . S
C429 H441 0.929 . S
C430 C426 1.531 . S
C430 H442 0.960 . S
C430 H443 0.962 . S
C430 H444 0.960 . S
C431 C428 1.511 . S
C431 H445 0.961 . S
C431 H446 0.961 . S
C431 H447 0.961 . S
C432 C433 1.370 . S
C432 C434 1.363 . S
C432 H448 0.931 . S
C433 C432 1.370 . S
C433 C437 1.408 . S
C434 C432 1.363 . S
C434 C435 1.370 . S
C434 C438 1.524 . S
C435 C427 1.503 . S
C435 C434 1.370 . S
C435 C436 1.403 . S
C436 C435 1.403 . S
C436 C437 1.404 . S
C436 C439 1.539 . S
C437 C433 1.408 . S
C437 C436 1.404 . S
C437 H449 0.930 . S
C438 C434 1.524 . S
C438 H450 0.956 . S
C438 H451 0.961 . S
C438 H452 0.961 1_565 S
C439 C436 1.539 . S
C439 H453 0.958 . S
C439 H454 0.961 . S
C439 H455 0.960 . S
H440 C424 0.931 . S
H441 C429 0.929 . S
H442 C430 0.960 . S
H443 C430 0.962 . S
H444 C430 0.960 . S
H445 C431 0.961 . S
H446 C431 0.961 . S
H447 C431 0.961 . S
H448 C432 0.931 . S
H449 C437 0.930 . S
H450 C438 0.956 . S
H451 C438 0.961 . S
H452 C438 0.961 1_545 S
H453 C439 0.958 . S
H454 C439 0.961 . S
H455 C439 0.960 . S
C456 C457 1.391 . S
C456 C458 1.394 . S
C456 H472 0.931 . S
C457 C456 1.391 . S
C457 C461 1.376 . S
C458 C456 1.394 . S
C458 C459 1.369 . S
C458 C462 1.531 . S
C459 C458 1.369 . S
C459 C460 1.410 . S
C459 C467 1.503 . S
C460 C459 1.410 . S
C460 C461 1.392 . S
C460 C463 1.511 . S
C461 C457 1.376 . S
C461 C460 1.392 . S
C461 H473 0.929 . S
C462 C458 1.531 . S
C462 H474 0.960 . S
C462 H475 0.962 . S
C462 H476 0.960 . S
C463 C460 1.511 . S
C463 H477 0.961 . S
C463 H478 0.961 . S
C463 H479 0.961 . S
C464 C465 1.370 . S
C464 C466 1.363 . S
C464 H480 0.931 . S
C465 C464 1.370 . S
C465 C469 1.408 . S
C466 C464 1.363 . S
C466 C467 1.370 . S
C466 C470 1.524 . S
C467 C459 1.503 . S
C467 C466 1.370 . S
C467 C468 1.403 . S
C468 C467 1.403 . S
C468 C469 1.404 . S
C468 C471 1.539 . S
C469 C465 1.408 . S
C469 C468 1.404 . S
C469 H481 0.930 . S
C470 C466 1.524 . S
C470 H482 0.956 . S
C470 H483 0.961 . S
C470 H484 0.961 . S
C471 C468 1.539 . S
C471 H485 0.958 . S
C471 H486 0.961 . S
C471 H487 0.960 . S
H472 C456 0.931 . S
H473 C461 0.929 . S
H474 C462 0.960 . S
H475 C462 0.962 . S
H476 C462 0.960 . S
H477 C463 0.961 . S
H478 C463 0.961 . S
H479 C463 0.961 . S
H480 C464 0.931 . S
H481 C469 0.930 . S
H482 C470 0.956 . S
H483 C470 0.961 . S
H484 C470 0.961 . S
H485 C471 0.958 . S
H486 C471 0.961 . S
H487 C471 0.960 . S
C488 C489 1.391 . S
C488 C490 1.394 . S
C488 H504 0.931 . S
C489 C488 1.391 . S
C489 C493 1.376 . S
C490 C488 1.394 . S
C490 C491 1.369 . S
C490 C494 1.531 . S
C491 C490 1.369 . S
C491 C492 1.410 . S
C491 C499 1.503 . S
C492 C491 1.410 . S
C492 C493 1.392 . S
C492 C495 1.511 . S
C493 C489 1.376 . S
C493 C492 1.392 . S
C493 H505 0.929 . S
C494 C490 1.531 . S
C494 H506 0.960 . S
C494 H507 0.962 . S
C494 H508 0.960 . S
C495 C492 1.511 . S
C495 H509 0.961 . S
C495 H510 0.961 . S
C495 H511 0.961 . S
C496 C497 1.370 . S
C496 C498 1.363 . S
C496 H512 0.931 . S
C497 C496 1.370 . S
C497 C501 1.408 . S
C498 C496 1.363 . S
C498 C499 1.370 . S
C498 C502 1.524 . S
C499 C491 1.503 . S
C499 C498 1.370 . S
C499 C500 1.403 . S
C500 C499 1.403 . S
C500 C501 1.404 . S
C500 C503 1.539 . S
C501 C497 1.408 . S
C501 C500 1.404 . S
C501 H513 0.930 . S
C502 C498 1.524 . S
C502 H514 0.956 . S
C502 H515 0.961 . S
C502 H516 0.961 . S
C503 C500 1.539 . S
C503 H517 0.958 . S
C503 H518 0.961 . S
C503 H519 0.960 . S
H504 C488 0.931 . S
H505 C493 0.929 . S
H506 C494 0.960 . S
H507 C494 0.962 . S
H508 C494 0.960 . S
H509 C495 0.961 . S
H510 C495 0.961 . S
H511 C495 0.961 . S
H512 C496 0.931 . S
H513 C501 0.930 . S
H514 C502 0.956 . S
H515 C502 0.961 . S
H516 C502 0.961 . S
H517 C503 0.958 . S
H518 C503 0.961 . S
H519 C503 0.960 . S
C520 C521 1.391 . S
C520 C522 1.394 . S
C520 H536 0.931 . S
C521 C520 1.391 . S
C521 C525 1.376 . S
C522 C520 1.394 . S
C522 C523 1.369 . S
C522 C526 1.531 . S
C523 C522 1.369 . S
C523 C524 1.410 . S
C523 C531 1.503 . S
C524 C523 1.410 . S
C524 C525 1.392 . S
C524 C527 1.511 . S
C525 C521 1.376 . S
C525 C524 1.392 . S
C525 H537 0.929 . S
C526 C522 1.531 . S
C526 H538 0.960 . S
C526 H539 0.962 . S
C526 H540 0.960 . S
C527 C524 1.511 . S
C527 H541 0.961 . S
C527 H542 0.961 . S
C527 H543 0.961 . S
C528 C529 1.370 . S
C528 C530 1.363 . S
C528 H544 0.931 . S
C529 C528 1.370 . S
C529 C533 1.408 . S
C530 C528 1.363 . S
C530 C531 1.370 . S
C530 C534 1.524 . S
C531 C523 1.503 . S
C531 C530 1.370 . S
C531 C532 1.403 . S
C532 C531 1.403 . S
C532 C533 1.404 . S
C532 C535 1.539 . S
C533 C529 1.408 . S
C533 C532 1.404 . S
C533 H545 0.930 . S
C534 C530 1.524 . S
C534 H546 0.956 . S
C534 H547 0.961 . S
C534 H548 0.961 . S
C535 C532 1.539 . S
C535 H549 0.958 . S
C535 H550 0.961 . S
C535 H551 0.960 . S
H536 C520 0.931 . S
H537 C525 0.929 . S
H538 C526 0.960 . S
H539 C526 0.962 . S
H540 C526 0.960 . S
H541 C527 0.961 . S
H542 C527 0.961 . S
H543 C527 0.961 . S
H544 C528 0.931 . S
H545 C533 0.930 . S
H546 C534 0.956 . S
H547 C534 0.961 . S
H548 C534 0.961 . S
H549 C535 0.958 . S
H550 C535 0.961 . S
H551 C535 0.960 . S
C552 C553 1.391 . S
C552 C554 1.394 . S
C552 H568 0.931 . S
C553 C552 1.391 . S
C553 C557 1.376 . S
C554 C552 1.394 . S
C554 C555 1.369 . S
C554 C558 1.531 . S
C555 C554 1.369 . S
C555 C556 1.410 . S
C555 C563 1.503 . S
C556 C555 1.410 . S
C556 C557 1.392 . S
C556 C559 1.511 . S
C557 C553 1.376 . S
C557 C556 1.392 . S
C557 H569 0.929 . S
C558 C554 1.531 . S
C558 H570 0.960 . S
C558 H571 0.962 . S
C558 H572 0.960 . S
C559 C556 1.511 . S
C559 H573 0.961 . S
C559 H574 0.961 . S
C559 H575 0.961 . S
C560 C561 1.370 . S
C560 C562 1.363 . S
C560 H576 0.931 . S
C561 C560 1.370 . S
C561 C565 1.408 . S
C562 C560 1.363 . S
C562 C563 1.370 . S
C562 C566 1.524 . S
C563 C555 1.503 . S
C563 C562 1.370 . S
C563 C564 1.403 . S
C564 C563 1.403 . S
C564 C565 1.404 . S
C564 C567 1.539 1_545 S
C565 C561 1.408 . S
C565 C564 1.404 . S
C565 H577 0.930 1_545 S
C566 C562 1.524 . S
C566 H578 0.956 . S
C566 H579 0.961 . S
C566 H580 0.961 . S
C567 C564 1.539 1_565 S
C567 H581 0.958 . S
C567 H582 0.961 . S
C567 H583 0.960 1_565 S
H568 C552 0.931 . S
H569 C557 0.929 . S
H570 C558 0.960 . S
H571 C558 0.962 . S
H572 C558 0.960 . S
H573 C559 0.961 . S
H574 C559 0.961 . S
H575 C559 0.961 . S
H576 C560 0.931 . S
H577 C565 0.930 1_565 S
H578 C566 0.956 . S
H579 C566 0.961 . S
H580 C566 0.961 . S
H581 C567 0.958 . S
H582 C567 0.961 . S
H583 C567 0.960 1_545 S
C584 C585 1.391 . S
C584 C586 1.394 . S
C584 H600 0.931 . S
C585 C584 1.391 . S
C585 C589 1.376 . S
C586 C584 1.394 . S
C586 C587 1.369 . S
C586 C590 1.531 . S
C587 C586 1.369 . S
C587 C588 1.410 . S
C587 C595 1.503 . S
C588 C587 1.410 . S
C588 C589 1.392 . S
C588 C591 1.511 . S
C589 C585 1.376 . S
C589 C588 1.392 . S
C589 H601 0.929 1_655 S
C590 C586 1.531 . S
C590 H602 0.960 . S
C590 H603 0.962 . S
C590 H604 0.960 . S
C591 C588 1.511 . S
C591 H605 0.961 1_655 S
C591 H606 0.961 . S
C591 H607 0.961 1_655 S
C592 C593 1.370 . S
C592 C594 1.363 . S
C592 H608 0.931 . S
C593 C592 1.370 . S
C593 C597 1.408 . S
C594 C592 1.363 . S
C594 C595 1.370 . S
C594 C598 1.524 . S
C595 C587 1.503 . S
C595 C594 1.370 . S
C595 C596 1.403 . S
C596 C595 1.403 . S
C596 C597 1.404 . S
C596 C599 1.539 . S
C597 C593 1.408 . S
C597 C596 1.404 . S
C597 H609 0.930 . S
C598 C594 1.524 . S
C598 H610 0.956 . S
C598 H611 0.961 . S
C598 H612 0.961 . S
C599 C596 1.539 . S
C599 H613 0.958 . S
C599 H614 0.961 . S
C599 H615 0.960 . S
H600 C584 0.931 . S
H601 C589 0.929 1_455 S
H602 C590 0.960 . S
H603 C590 0.962 . S
H604 C590 0.960 . S
H605 C591 0.961 1_455 S
H606 C591 0.961 . S
H607 C591 0.961 1_455 S
H608 C592 0.931 . S
H609 C597 0.930 . S
H610 C598 0.956 . S
H611 C598 0.961 . S
H612 C598 0.961 . S
H613 C599 0.958 . S
H614 C599 0.961 . S
H615 C599 0.960 . S
C105 C56 1.707 . S
C113 C10 1.734 . S
C137 C17 1.729 . S
C145 C69 1.732 . S
C169 C36 1.741 . S
C177 C88 1.713 . S
C201 C95 1.705 . S
C209 C43 1.720 . S
C233 C4 1.669 . S
C241 C30 1.675 . S
C265 C23 1.674 . S
C273 C49 1.677 . S
C297 C82 1.680 . S
C305 C62 1.672 . S
C329 C75 1.667 . S
C337 C101 1.678 . S
C361 C70 1.069 . S
C369 C5 1.083 . S
C393 C16 1.102 . S
C401 C81 1.047 . S
C425 C31 1.069 . S
C433 C96 1.050 . S
C457 C57 1.068 . S
C465 C42 1.073 . S
C489 C55 1.078 . S
C497 C18 1.080 . S
C521 C68 1.076 . S
C529 C29 1.072 . S
C553 C83 1.101 . S
C561 C44 1.044 . S
C585 C3 1.004 . S
C593 C94 1.087 . S
