# Generated by pormake.
# Topology gme, (4)-cn, num edge types: 1
# Building blocks:
#     Node 0, Type 0, BuildingBlock: AZAVOO_clean_sbu_0, # of connection points: 4
#     Node 1, Type 0, BuildingBlock: AZAVOO_clean_sbu_0, # of connection points: 4
#     Node 2, Type 0, BuildingBlock: AZAVOO_clean_sbu_0, # of connection points: 4
#     Node 3, Type 0, BuildingBlock: AZAVOO_clean_sbu_0, # of connection points: 4
#     Node 4, Type 0, BuildingBlock: AZAVOO_clean_sbu_0, # of connection points: 4
#     Node 5, Type 0, BuildingBlock: AZAVOO_clean_sbu_0, # of connection points: 4
#     Node 6, Type 0, BuildingBlock: AZAVOO_clean_sbu_0, # of connection points: 4
#     Node 7, Type 0, BuildingBlock: AZAVOO_clean_sbu_0, # of connection points: 4
#     Node 8, Type 0, BuildingBlock: AZAVOO_clean_sbu_0, # of connection points: 4
#     Node 9, Type 0, BuildingBlock: AZAVOO_clean_sbu_0, # of connection points: 4
#     Node 10, Type 0, BuildingBlock: AZAVOO_clean_sbu_0, # of connection points: 4
#     Node 11, Type 0, BuildingBlock: AZAVOO_clean_sbu_0, # of connection points: 4
#     Node 12, Type 0, BuildingBlock: AZAVOO_clean_sbu_0, # of connection points: 4
#     Node 13, Type 0, BuildingBlock: AZAVOO_clean_sbu_0, # of connection points: 4
#     Node 14, Type 0, BuildingBlock: AZAVOO_clean_sbu_0, # of connection points: 4
#     Node 15, Type 0, BuildingBlock: AZAVOO_clean_sbu_0, # of connection points: 4
#     Node 16, Type 0, BuildingBlock: AZAVOO_clean_sbu_0, # of connection points: 4
#     Node 17, Type 0, BuildingBlock: AZAVOO_clean_sbu_0, # of connection points: 4
#     Node 18, Type 0, BuildingBlock: AZAVOO_clean_sbu_0, # of connection points: 4
#     Node 19, Type 0, BuildingBlock: AZAVOO_clean_sbu_0, # of connection points: 4
#     Node 20, Type 0, BuildingBlock: AZAVOO_clean_sbu_0, # of connection points: 4
#     Node 21, Type 0, BuildingBlock: AZAVOO_clean_sbu_0, # of connection points: 4
#     Node 22, Type 0, BuildingBlock: AZAVOO_clean_sbu_0, # of connection points: 4
#     Node 23, Type 0, BuildingBlock: AZAVOO_clean_sbu_0, # of connection points: 4
#     Edge 24, Type (0, 0), BuildingBlock: MIFKUJ_clean_linker_0, # of connection points: 2
#     Edge 25, Type (0, 0), BuildingBlock: MIFKUJ_clean_linker_0, # of connection points: 2
#     Edge 26, Type (0, 0), BuildingBlock: MIFKUJ_clean_linker_0, # of connection points: 2
#     Edge 27, Type (0, 0), BuildingBlock: MIFKUJ_clean_linker_0, # of connection points: 2
#     Edge 28, Type (0, 0), BuildingBlock: MIFKUJ_clean_linker_0, # of connection points: 2
#     Edge 29, Type (0, 0), BuildingBlock: MIFKUJ_clean_linker_0, # of connection points: 2
#     Edge 30, Type (0, 0), BuildingBlock: MIFKUJ_clean_linker_0, # of connection points: 2
#     Edge 31, Type (0, 0), BuildingBlock: MIFKUJ_clean_linker_0, # of connection points: 2
#     Edge 32, Type (0, 0), BuildingBlock: MIFKUJ_clean_linker_0, # of connection points: 2
#     Edge 33, Type (0, 0), BuildingBlock: MIFKUJ_clean_linker_0, # of connection points: 2
#     Edge 34, Type (0, 0), BuildingBlock: MIFKUJ_clean_linker_0, # of connection points: 2
#     Edge 35, Type (0, 0), BuildingBlock: MIFKUJ_clean_linker_0, # of connection points: 2
#     Edge 36, Type (0, 0), BuildingBlock: MIFKUJ_clean_linker_0, # of connection points: 2
#     Edge 37, Type (0, 0), BuildingBlock: MIFKUJ_clean_linker_0, # of connection points: 2
#     Edge 38, Type (0, 0), BuildingBlock: MIFKUJ_clean_linker_0, # of connection points: 2
#     Edge 39, Type (0, 0), BuildingBlock: MIFKUJ_clean_linker_0, # of connection points: 2
#     Edge 40, Type (0, 0), BuildingBlock: MIFKUJ_clean_linker_0, # of connection points: 2
#     Edge 41, Type (0, 0), BuildingBlock: MIFKUJ_clean_linker_0, # of connection points: 2
#     Edge 42, Type (0, 0), BuildingBlock: MIFKUJ_clean_linker_0, # of connection points: 2
#     Edge 43, Type (0, 0), BuildingBlock: MIFKUJ_clean_linker_0, # of connection points: 2
#     Edge 44, Type (0, 0), BuildingBlock: MIFKUJ_clean_linker_0, # of connection points: 2
#     Edge 45, Type (0, 0), BuildingBlock: MIFKUJ_clean_linker_0, # of connection points: 2
#     Edge 46, Type (0, 0), BuildingBlock: MIFKUJ_clean_linker_0, # of connection points: 2
#     Edge 47, Type (0, 0), BuildingBlock: MIFKUJ_clean_linker_0, # of connection points: 2
#     Edge 48, Type (0, 0), BuildingBlock: MIFKUJ_clean_linker_0, # of connection points: 2
#     Edge 49, Type (0, 0), BuildingBlock: MIFKUJ_clean_linker_0, # of connection points: 2
#     Edge 50, Type (0, 0), BuildingBlock: MIFKUJ_clean_linker_0, # of connection points: 2
#     Edge 51, Type (0, 0), BuildingBlock: MIFKUJ_clean_linker_0, # of connection points: 2
#     Edge 52, Type (0, 0), BuildingBlock: MIFKUJ_clean_linker_0, # of connection points: 2
#     Edge 53, Type (0, 0), BuildingBlock: MIFKUJ_clean_linker_0, # of connection points: 2
#     Edge 54, Type (0, 0), BuildingBlock: MIFKUJ_clean_linker_0, # of connection points: 2
#     Edge 55, Type (0, 0), BuildingBlock: MIFKUJ_clean_linker_0, # of connection points: 2
#     Edge 56, Type (0, 0), BuildingBlock: MIFKUJ_clean_linker_0, # of connection points: 2
#     Edge 57, Type (0, 0), BuildingBlock: MIFKUJ_clean_linker_0, # of connection points: 2
#     Edge 58, Type (0, 0), BuildingBlock: MIFKUJ_clean_linker_0, # of connection points: 2
#     Edge 59, Type (0, 0), BuildingBlock: MIFKUJ_clean_linker_0, # of connection points: 2
#     Edge 60, Type (0, 0), BuildingBlock: MIFKUJ_clean_linker_0, # of connection points: 2
#     Edge 61, Type (0, 0), BuildingBlock: MIFKUJ_clean_linker_0, # of connection points: 2
#     Edge 62, Type (0, 0), BuildingBlock: MIFKUJ_clean_linker_0, # of connection points: 2
#     Edge 63, Type (0, 0), BuildingBlock: MIFKUJ_clean_linker_0, # of connection points: 2
#     Edge 64, Type (0, 0), BuildingBlock: MIFKUJ_clean_linker_0, # of connection points: 2
#     Edge 65, Type (0, 0), BuildingBlock: MIFKUJ_clean_linker_0, # of connection points: 2
#     Edge 66, Type (0, 0), BuildingBlock: MIFKUJ_clean_linker_0, # of connection points: 2
#     Edge 67, Type (0, 0), BuildingBlock: MIFKUJ_clean_linker_0, # of connection points: 2
#     Edge 68, Type (0, 0), BuildingBlock: MIFKUJ_clean_linker_0, # of connection points: 2
#     Edge 69, Type (0, 0), BuildingBlock: MIFKUJ_clean_linker_0, # of connection points: 2
#     Edge 70, Type (0, 0), BuildingBlock: MIFKUJ_clean_linker_0, # of connection points: 2
#     Edge 71, Type (0, 0), BuildingBlock: MIFKUJ_clean_linker_0, # of connection points: 2
# Relax obj value: 0.171
# Max RMSD: 0.158
# Mean RMSD: 0.158
data_MOF--net-gme--node1-AZAVOO_clean_sbu_0--edge1-MIFKUJ_clean_linker_0
_symmetry_space_group_name_H-M    P1
_symmetry_Int_Tables_number       1
_symmetry_cell_setting            triclinic
loop_
_symmetry_equiv_pos_as_xyz
'x, y, z'
_cell_length_a     83.37894
_cell_length_b     83.386176
_cell_length_c     61.644143
_cell_angle_alpha  89.98974
_cell_angle_beta   90.005319
_cell_angle_gamma 119.99788
loop_
_atom_site_label
_atom_site_type_symbol
_atom_site_fract_x
_atom_site_fract_y
_atom_site_fract_z
_atom_type_partial_charge
Mg0 Mg 0.4374 0.1126 0.0875 0.0
O1 O 0.46618 0.11533 0.08394 0.0
O2 O 0.48631 0.14128 0.10115 0.0
Mg3 Mg 0.47102 0.15515 0.11489 0.0
C4 C 0.48262 0.12688 0.09015 0.0
C5 C 0.40804 0.08029 0.06182 0.0
O6 O 0.3984 0.08557 0.07367 0.0
O7 O 0.44448 0.13465 0.0617 0.0
O8 O 0.46482 0.15996 0.0799 0.0
O9 O 0.43319 0.09761 0.1185 0.0
O10 O 0.44563 0.128 0.11606 0.0
C11 C 0.45565 0.15205 0.06276 0.0
C12 C 0.44112 0.11363 0.12793 0.0
O13 O 0.42559 0.08953 0.06281 0.0
Mg14 Mg 0.32413 0.43862 0.58808 0.0
O15 O 0.35077 0.46694 0.59064 0.0
O16 O 0.34466 0.48453 0.61261 0.0
Mg17 Mg 0.31439 0.46824 0.6228 0.0
C18 C 0.3558 0.48213 0.60068 0.0
C19 C 0.32608 0.4155 0.55072 0.0
O20 O 0.30832 0.40652 0.55538 0.0
O21 O 0.31161 0.45043 0.56468 0.0
O22 O 0.30553 0.46767 0.58729 0.0
O23 O 0.33233 0.42916 0.61754 0.0
O24 O 0.31521 0.44258 0.61814 0.0
C25 C 0.30527 0.46129 0.56835 0.0
C26 C 0.32398 0.43598 0.62867 0.0
O27 O 0.33665 0.43039 0.56081 0.0
Mg28 Mg 0.88683 0.32079 0.08908 0.0
O29 O 0.8826 0.34606 0.08884 0.0
O30 O 0.85739 0.33844 0.10881 0.0
Mg31 Mg 0.84599 0.30925 0.12199 0.0
C32 C 0.87084 0.34992 0.09701 0.0
C33 C 0.91747 0.32549 0.05891 0.0
O34 O 0.91377 0.31073 0.07033 0.0
O35 O 0.86294 0.30564 0.06542 0.0
O36 O 0.83873 0.29827 0.08707 0.0
O37 O 0.90432 0.33134 0.11846 0.0
O38 O 0.87393 0.31297 0.11929 0.0
C39 C 0.84552 0.29795 0.0686 0.0
C40 C 0.8892 0.32291 0.12967 0.0
O41 O 0.90773 0.3331 0.06192 0.0
Mg42 Mg 0.55508 0.87948 0.58088 0.0
O43 O 0.52622 0.87602 0.5865 0.0
O44 O 0.51104 0.85258 0.6097 0.0
Mg45 Mg 0.52932 0.84031 0.61759 0.0
C46 C 0.51194 0.86559 0.5979 0.0
C47 C 0.55826 0.91328 0.55705 0.0
O48 O 0.55162 0.91444 0.57595 0.0
O49 O 0.54281 0.85468 0.55816 0.0
O50 O 0.52799 0.83163 0.58191 0.0
O51 O 0.56553 0.89791 0.60952 0.0
O52 O 0.55363 0.86756 0.6111 0.0
C53 C 0.53288 0.83747 0.56252 0.0
C54 C 0.55982 0.88312 0.62113 0.0
O55 O 0.56047 0.89952 0.55331 0.0
Mg56 Mg 0.67224 0.56153 0.0954 0.0
O57 O 0.64783 0.53157 0.0956 0.0
O58 O 0.65659 0.51468 0.11514 0.0
Mg59 Mg 0.68626 0.53322 0.12648 0.0
C60 C 0.64456 0.51616 0.10386 0.0
C61 C 0.65765 0.5839 0.07272 0.0
O62 O 0.66482 0.5931 0.09078 0.0
O63 O 0.68731 0.55377 0.07044 0.0
O64 O 0.6956 0.53693 0.09084 0.0
O65 O 0.66188 0.56712 0.12605 0.0
O66 O 0.68181 0.55699 0.12467 0.0
C67 C 0.69519 0.54411 0.07266 0.0
C68 C 0.67152 0.56119 0.13615 0.0
O69 O 0.65836 0.56927 0.06913 0.0
Mg70 Mg 0.11044 0.67583 0.59441 0.0
O71 O 0.11507 0.65101 0.59841 0.0
O72 O 0.13854 0.65939 0.62158 0.0
Mg73 Mg 0.1493 0.68933 0.63162 0.0
C74 C 0.12597 0.64742 0.60921 0.0
C75 C 0.07696 0.6461 0.56893 0.0
O76 O 0.07417 0.63823 0.58808 0.0
O77 O 0.13565 0.69028 0.57238 0.0
O78 O 0.15851 0.69848 0.59644 0.0
O79 O 0.09162 0.66629 0.62297 0.0
O80 O 0.12177 0.68563 0.62498 0.0
C81 C 0.15284 0.69805 0.57706 0.0
C82 C 0.10621 0.67576 0.6348 0.0
O83 O 0.09139 0.66174 0.56588 0.0
Mg84 Mg 0.88685 0.56638 0.40092 0.0
O85 O 0.8827 0.53703 0.4022 0.0
O86 O 0.85702 0.51832 0.38363 0.0
Mg87 Mg 0.84455 0.5354 0.37113 0.0
C88 C 0.87101 0.52105 0.39489 0.0
C89 C 0.92478 0.58888 0.42216 0.0
O90 O 0.92711 0.59729 0.40343 0.0
O91 O 0.86415 0.55855 0.42616 0.0
O92 O 0.83907 0.54012 0.40644 0.0
O93 O 0.90243 0.5715 0.37006 0.0
O94 O 0.87219 0.56025 0.37179 0.0
C95 C 0.84665 0.54816 0.42427 0.0
C96 C 0.88666 0.56464 0.36018 0.0
O97 O 0.90895 0.57528 0.42679 0.0
Mg98 Mg 0.32109 0.88444 0.91119 0.0
O99 O 0.3466 0.88082 0.90844 0.0
O100 O 0.34002 0.85881 0.88357 0.0
Mg101 Mg 0.31011 0.84703 0.87273 0.0
C102 C 0.35113 0.87092 0.897 0.0
C103 C 0.32273 0.90638 0.95152 0.0
O104 O 0.30502 0.8979 0.94662 0.0
O105 O 0.30679 0.85872 0.9322 0.0
O106 O 0.3002 0.83664 0.90754 0.0
O107 O 0.33124 0.9041 0.88346 0.0
O108 O 0.31263 0.87389 0.8801 0.0
C109 C 0.29981 0.84172 0.92703 0.0
C110 C 0.3225 0.8898 0.87099 0.0
O111 O 0.33345 0.90294 0.94038 0.0
Mg112 Mg 0.43064 0.31632 0.40865 0.0
O113 O 0.45963 0.34242 0.40869 0.0
O114 O 0.47779 0.33573 0.38846 0.0
Mg115 Mg 0.46089 0.30651 0.375 0.0
C116 C 0.47537 0.34685 0.40041 0.0
C117 C 0.40388 0.32031 0.43805 0.0
O118 O 0.39315 0.30602 0.42577 0.0
O119 O 0.44068 0.3021 0.432 0.0
O120 O 0.45783 0.29548 0.40987 0.0
O121 O 0.4225 0.32597 0.3793 0.0
O122 O 0.43612 0.30901 0.37852 0.0
C123 C 0.45083 0.29492 0.42852 0.0
C124 C 0.4299 0.31818 0.36817 0.0
O125 O 0.42132 0.32783 0.43593 0.0
Mg126 Mg 0.11659 0.44041 0.90966 0.0
O127 O 0.11983 0.46937 0.90654 0.0
O128 O 0.14423 0.48605 0.88509 0.0
Mg129 Mg 0.15688 0.46843 0.87538 0.0
C130 C 0.13078 0.4844 0.89663 0.0
C131 C 0.09086 0.41817 0.94669 0.0
O132 O 0.09932 0.40884 0.94228 0.0
O133 O 0.14061 0.45142 0.93354 0.0
O134 O 0.16441 0.46752 0.91107 0.0
O135 O 0.09936 0.43141 0.87979 0.0
O136 O 0.12976 0.44359 0.88002 0.0
C137 C 0.15795 0.46153 0.93002 0.0
C138 C 0.11467 0.43748 0.86907 0.0
O139 O 0.09563 0.43313 0.93651 0.0
Mg140 Mg 0.6785 0.11145 0.40528 0.0
O141 O 0.6528 0.11489 0.40465 0.0
O142 O 0.65901 0.13887 0.38309 0.0
Mg143 Mg 0.68848 0.15101 0.37065 0.0
C144 C 0.64809 0.12568 0.39556 0.0
C145 C 0.66646 0.07628 0.43073 0.0
O146 O 0.67547 0.07477 0.4141 0.0
O147 O 0.69317 0.13602 0.42825 0.0
O148 O 0.69856 0.15926 0.40573 0.0
O149 O 0.66798 0.09352 0.37621 0.0
O150 O 0.68646 0.12388 0.37485 0.0
C151 C 0.69946 0.15318 0.42445 0.0
C152 C 0.6764 0.1085 0.36475 0.0
O153 O 0.66576 0.09106 0.43289 0.0
Mg154 Mg 0.56177 0.67423 0.89675 0.0
O155 O 0.53194 0.64966 0.89696 0.0
O156 O 0.51472 0.65807 0.87753 0.0
Mg157 Mg 0.53307 0.68751 0.86527 0.0
C158 C 0.5164 0.64622 0.88894 0.0
C159 C 0.58494 0.66094 0.91967 0.0
O160 O 0.59426 0.66884 0.90189 0.0
O161 O 0.5541 0.68966 0.92137 0.0
O162 O 0.53742 0.69782 0.90052 0.0
O163 O 0.56745 0.66372 0.86624 0.0
O164 O 0.55706 0.68343 0.86734 0.0
C165 C 0.54466 0.69774 0.91877 0.0
C166 C 0.56152 0.67329 0.85598 0.0
O167 O 0.56985 0.66077 0.92317 0.0
Mg168 Mg 0.56605 0.88572 0.89296 0.0
O169 O 0.5367 0.88114 0.89757 0.0
O170 O 0.51718 0.85489 0.88023 0.0
Mg171 Mg 0.53386 0.84362 0.86352 0.0
C172 C 0.52039 0.86881 0.89191 0.0
C173 C 0.58752 0.924 0.91406 0.0
O174 O 0.59181 0.92776 0.89347 0.0
O175 O 0.55998 0.86259 0.91704 0.0
O176 O 0.54101 0.83765 0.89743 0.0
O177 O 0.56907 0.90182 0.8631 0.0
O178 O 0.55818 0.87163 0.86339 0.0
C179 C 0.54992 0.84507 0.91489 0.0
C180 C 0.56177 0.88631 0.85264 0.0
O181 O 0.5768 0.90731 0.91973 0.0
Mg182 Mg 0.67613 0.56035 0.40903 0.0
O183 O 0.65063 0.53113 0.41039 0.0
O184 O 0.65726 0.51262 0.39084 0.0
Mg185 Mg 0.68646 0.52963 0.37727 0.0
C186 C 0.64619 0.51523 0.40266 0.0
C187 C 0.67447 0.58593 0.4433 0.0
O188 O 0.69165 0.59561 0.43642 0.0
O189 O 0.69142 0.55206 0.43307 0.0
O190 O 0.69791 0.53421 0.41204 0.0
O191 O 0.66521 0.56621 0.37904 0.0
O192 O 0.68386 0.5545 0.37931 0.0
C193 C 0.69875 0.54195 0.43023 0.0
C194 C 0.67378 0.55934 0.36841 0.0
O195 O 0.66422 0.56976 0.43578 0.0
Mg196 Mg 0.10808 0.68067 0.90744 0.0
O197 O 0.11212 0.65542 0.90342 0.0
O198 O 0.13545 0.66358 0.88005 0.0
Mg199 Mg 0.14687 0.69365 0.87035 0.0
C200 C 0.12286 0.65168 0.89245 0.0
C201 C 0.08169 0.67627 0.94352 0.0
O202 O 0.08779 0.69322 0.93648 0.0
O203 O 0.13313 0.69421 0.92978 0.0
O204 O 0.15592 0.70179 0.90578 0.0
O205 O 0.08933 0.67155 0.87891 0.0
O206 O 0.11959 0.6904 0.87699 0.0
C207 C 0.15028 0.7013 0.92518 0.0
C208 C 0.10401 0.68074 0.86713 0.0
O209 O 0.08843 0.6669 0.93544 0.0
Mg210 Mg 0.43427 0.11185 0.3998 0.0
O211 O 0.46358 0.11588 0.40154 0.0
O212 O 0.48259 0.14196 0.38376 0.0
Mg213 Mg 0.46574 0.15456 0.37093 0.0
C214 C 0.47968 0.12777 0.39472 0.0
C215 C 0.42568 0.07508 0.42168 0.0
O216 O 0.43291 0.07381 0.40327 0.0
O217 O 0.44188 0.13425 0.42535 0.0
O218 O 0.4605 0.15962 0.40618 0.0
O219 O 0.42943 0.09661 0.36873 0.0
O220 O 0.44098 0.12687 0.37095 0.0
C221 C 0.45224 0.15177 0.42383 0.0
C222 C 0.4367 0.11254 0.35914 0.0
O223 O 0.42464 0.08951 0.42549 0.0
Mg224 Mg 0.31692 0.43083 0.90166 0.0
O225 O 0.34167 0.46043 0.89908 0.0
O226 O 0.33342 0.47669 0.87761 0.0
Mg227 Mg 0.30352 0.45784 0.86718 0.0
C228 C 0.3453 0.47546 0.88948 0.0
C229 C 0.33262 0.4105 0.92675 0.0
O230 O 0.32497 0.39991 0.90971 0.0
O231 O 0.30269 0.44072 0.92517 0.0
O232 O 0.2948 0.45676 0.90283 0.0
O233 O 0.32671 0.42298 0.87231 0.0
O234 O 0.30726 0.43373 0.87153 0.0
C235 C 0.29526 0.45065 0.92171 0.0
C236 C 0.31737 0.42864 0.86109 0.0
O237 O 0.33134 0.42496 0.929 0.0
Mg238 Mg 0.893 0.3254 0.40228 0.0
O239 O 0.88794 0.35009 0.40277 0.0
O240 O 0.86278 0.34254 0.3828 0.0
Mg241 Mg 0.85114 0.31297 0.37084 0.0
C242 C 0.87625 0.35401 0.39457 0.0
C243 C 0.93093 0.34298 0.42387 0.0
O244 O 0.93419 0.33872 0.40448 0.0
O245 O 0.86991 0.31014 0.42698 0.0
O246 O 0.84522 0.30354 0.40639 0.0
O247 O 0.90899 0.33623 0.37171 0.0
O248 O 0.87892 0.31632 0.37287 0.0
C249 C 0.8525 0.30325 0.42452 0.0
C250 C 0.89345 0.32675 0.36155 0.0
O251 O 0.91454 0.33899 0.42873 0.0
Mg252 Mg 0.11782 0.43528 0.59584 0.0
O253 O 0.12069 0.464 0.6001 0.0
O254 O 0.14474 0.48054 0.62204 0.0
Mg255 Mg 0.1577 0.463 0.6309 0.0
C256 C 0.1313 0.47886 0.61046 0.0
C257 C 0.08223 0.42863 0.57342 0.0
O258 O 0.07984 0.43271 0.5933 0.0
O259 O 0.14211 0.44727 0.57231 0.0
O260 O 0.16567 0.46334 0.5951 0.0
O261 O 0.10029 0.42542 0.62541 0.0
O262 O 0.13074 0.43797 0.62569 0.0
C263 C 0.15938 0.45768 0.57601 0.0
C264 C 0.11548 0.43164 0.63638 0.0
O265 O 0.09722 0.42897 0.56864 0.0
Mg266 Mg 0.67935 0.1087 0.09255 0.0
O267 O 0.65378 0.11218 0.08959 0.0
O268 O 0.65927 0.13691 0.1093 0.0
Mg269 Mg 0.68791 0.14919 0.12452 0.0
C270 C 0.64886 0.12341 0.09688 0.0
C271 C 0.66459 0.07142 0.06996 0.0
O272 O 0.66722 0.06779 0.08996 0.0
O273 O 0.69519 0.13272 0.06913 0.0
O274 O 0.70027 0.15662 0.09022 0.0
O275 O 0.66732 0.09159 0.12215 0.0
O276 O 0.68577 0.12193 0.12262 0.0
C277 C 0.70191 0.15006 0.07214 0.0
C278 C 0.67533 0.10687 0.13308 0.0
O279 O 0.66859 0.08781 0.0651 0.0
Mg280 Mg 0.56803 0.6842 0.58361 0.0
O281 O 0.54036 0.65701 0.5881 0.0
O282 O 0.52297 0.66307 0.6105 0.0
Mg283 Mg 0.53838 0.6938 0.61851 0.0
C284 C 0.5255 0.65182 0.59897 0.0
C285 C 0.59341 0.67968 0.55242 0.0
O286 O 0.60429 0.69558 0.56202 0.0
O287 O 0.55445 0.69462 0.55981 0.0
O288 O 0.53699 0.70033 0.5825 0.0
O289 O 0.57882 0.67772 0.61318 0.0
O290 O 0.56444 0.69394 0.61326 0.0
C291 C 0.54286 0.70007 0.56341 0.0
C292 C 0.57158 0.68581 0.62404 0.0
O293 O 0.57627 0.67115 0.55698 0.0
Mg294 Mg 0.87908 0.56145 0.08748 0.0
O295 O 0.87551 0.53229 0.08682 0.0
O296 O 0.85049 0.51391 0.10664 0.0
Mg297 Mg 0.83828 0.53101 0.11982 0.0
C298 C 0.86414 0.51646 0.09481 0.0
C299 C 0.90776 0.58737 0.05486 0.0
O300 O 0.9018 0.59785 0.06347 0.0
O301 O 0.85533 0.55258 0.06352 0.0
O302 O 0.83119 0.53488 0.08489 0.0
O303 O 0.89611 0.56786 0.11728 0.0
O304 O 0.86572 0.55591 0.11736 0.0
C305 C 0.83793 0.54235 0.06653 0.0
C306 C 0.88077 0.56096 0.12809 0.0
O307 O 0.90028 0.57053 0.06062 0.0
Mg308 Mg 0.31716 0.89041 0.59893 0.0
O309 O 0.3423 0.88623 0.60283 0.0
O310 O 0.33452 0.86322 0.62655 0.0
Mg311 Mg 0.30451 0.852 0.63656 0.0
C312 C 0.34625 0.87571 0.6139 0.0
C313 C 0.33142 0.92488 0.57155 0.0
O314 O 0.32376 0.92809 0.58838 0.0
O315 O 0.30303 0.86503 0.5771 0.0
O316 O 0.29561 0.84249 0.60141 0.0
O317 O 0.3269 0.90944 0.62726 0.0
O318 O 0.30773 0.87927 0.62964 0.0
C319 C 0.29579 0.84792 0.58197 0.0
C320 C 0.31772 0.8949 0.63926 0.0
O321 O 0.33092 0.90944 0.5703 0.0
Mg322 Mg 0.42753 0.31927 0.0949 0.0
O323 O 0.4578 0.34261 0.0965 0.0
O324 O 0.47361 0.33365 0.11767 0.0
Mg325 Mg 0.45375 0.3038 0.12771 0.0
C326 C 0.47278 0.34573 0.10575 0.0
C327 C 0.42556 0.35108 0.07195 0.0
O328 O 0.43258 0.35877 0.09078 0.0
O329 O 0.43529 0.30385 0.07045 0.0
O330 O 0.45176 0.29564 0.09175 0.0
O331 O 0.42198 0.33007 0.12518 0.0
O332 O 0.43026 0.30862 0.12435 0.0
C333 C 0.44514 0.29626 0.07328 0.0
C334 C 0.42669 0.31953 0.13548 0.0
O335 O 0.42226 0.33472 0.06825 0.0
H336 H 0.43123 0.0851 0.3308 0.0
H337 H 0.43641 0.08772 0.29166 0.0
H338 H 0.45652 0.14644 0.29521 0.0
H339 H 0.45083 0.14383 0.33424 0.0
H340 H 0.43217 0.13131 0.2638 0.0
H341 H 0.48607 0.1292 0.28585 0.0
H342 H 0.50381 0.11698 0.30467 0.0
H343 H 0.47476 0.06622 0.26876 0.0
H344 H 0.45666 0.07803 0.24992 0.0
H345 H 0.45629 0.14505 0.15276 0.0
H346 H 0.46013 0.14721 0.19214 0.0
H347 H 0.43774 0.08812 0.1958 0.0
H348 H 0.43427 0.08589 0.15641 0.0
H349 H 0.46636 0.10621 0.22362 0.0
H350 H 0.41042 0.10689 0.20486 0.0
H351 H 0.39223 0.11862 0.18602 0.0
H352 H 0.42498 0.17173 0.21618 0.0
H353 H 0.44352 0.16038 0.23499 0.0
C354 C 0.43688 0.0986 0.32328 0.0
C355 C 0.44069 0.11428 0.33565 0.0
C356 C 0.43997 0.1001 0.30093 0.0
C357 C 0.44711 0.11733 0.29056 0.0
C358 C 0.4511 0.13303 0.30291 0.0
C359 C 0.44791 0.13152 0.32524 0.0
C360 C 0.44922 0.11873 0.26666 0.0
C361 C 0.43997 0.12616 0.25505 0.0
C362 C 0.45905 0.11162 0.25522 0.0
C363 C 0.4699 0.10446 0.26658 0.0
C364 C 0.48336 0.11537 0.28209 0.0
C365 C 0.4935 0.10853 0.29274 0.0
C366 C 0.49039 0.09082 0.28794 0.0
C367 C 0.47715 0.07993 0.27246 0.0
C368 C 0.46696 0.0867 0.26178 0.0
C369 C 0.45244 0.13255 0.16189 0.0
C370 C 0.44488 0.11528 0.15148 0.0
C371 C 0.45457 0.1338 0.18441 0.0
C372 C 0.44898 0.11778 0.19689 0.0
C373 C 0.44213 0.10064 0.18646 0.0
C374 C 0.44007 0.09939 0.16395 0.0
C375 C 0.4492 0.11864 0.22088 0.0
C376 C 0.45881 0.11158 0.23245 0.0
C377 C 0.43967 0.12604 0.23234 0.0
C378 C 0.42848 0.13285 0.22113 0.0
C379 C 0.41382 0.12111 0.20734 0.0
C380 C 0.40344 0.12768 0.19669 0.0
C381 C 0.40749 0.14593 0.19985 0.0
C382 C 0.42189 0.15762 0.21372 0.0
C383 C 0.43233 0.15112 0.22438 0.0
H384 H 0.39943 0.15099 0.19159 0.0
H385 H 0.49828 0.08554 0.29614 0.0
H386 H 0.34421 0.42639 0.65495 0.0
H387 H 0.34494 0.42655 0.6946 0.0
H388 H 0.30679 0.44727 0.6961 0.0
H389 H 0.30604 0.44726 0.65649 0.0
H390 H 0.33455 0.46477 0.72565 0.0
H391 H 0.29136 0.40207 0.70444 0.0
H392 H 0.28122 0.37275 0.68487 0.0
H393 H 0.32347 0.36628 0.71667 0.0
H394 H 0.33402 0.39571 0.73622 0.0
H395 H 0.29969 0.44001 0.83288 0.0
H396 H 0.30302 0.44276 0.79348 0.0
H397 H 0.3422 0.42334 0.79586 0.0
H398 H 0.33908 0.42067 0.83532 0.0
H399 H 0.31556 0.40582 0.76454 0.0
H400 H 0.35772 0.46776 0.78728 0.0
H401 H 0.36745 0.4968 0.80728 0.0
H402 H 0.32708 0.50465 0.77294 0.0
H403 H 0.31689 0.47548 0.75297 0.0
C404 C 0.33604 0.43106 0.66371 0.0
C405 C 0.32504 0.43678 0.65259 0.0
C406 C 0.33645 0.43111 0.68636 0.0
C407 C 0.32577 0.43675 0.69826 0.0
C408 C 0.31515 0.44289 0.6872 0.0
C409 C 0.31473 0.44286 0.66456 0.0
C410 C 0.32522 0.4357 0.72223 0.0
C411 C 0.33022 0.45186 0.73417 0.0
C412 C 0.31996 0.41891 0.7333 0.0
C413 C 0.3136 0.40119 0.72161 0.0
C414 C 0.29858 0.39447 0.70713 0.0
C415 C 0.29274 0.37782 0.69606 0.0
C416 C 0.30173 0.36769 0.69948 0.0
C417 C 0.31654 0.37416 0.71402 0.0
C418 C 0.32245 0.39082 0.7251 0.0
C419 C 0.30915 0.43649 0.82508 0.0
C420 C 0.31925 0.43029 0.83726 0.0
C421 C 0.31103 0.43807 0.80256 0.0
C422 C 0.32299 0.43343 0.79183 0.0
C423 C 0.33293 0.42703 0.80388 0.0
C424 C 0.33115 0.42555 0.82642 0.0
C425 C 0.3248 0.43486 0.76795 0.0
C426 C 0.32 0.41876 0.75603 0.0
C427 C 0.33023 0.45169 0.75693 0.0
C428 C 0.33642 0.46933 0.76877 0.0
C429 C 0.35081 0.4756 0.78412 0.0
C430 C 0.35642 0.49209 0.79543 0.0
C431 C 0.34786 0.50254 0.79142 0.0
C432 C 0.33369 0.49653 0.77604 0.0
C433 C 0.328 0.48002 0.76471 0.0
H434 H 0.35222 0.51531 0.80019 0.0
H435 H 0.29719 0.3548 0.6909 0.0
H436 H 0.86094 0.31783 0.15681 0.0
H437 H 0.86199 0.32065 0.19637 0.0
H438 H 0.91934 0.33497 0.19593 0.0
H439 H 0.91855 0.33259 0.15632 0.0
H440 H 0.89374 0.30464 0.22562 0.0
H441 H 0.91413 0.36792 0.2047 0.0
H442 H 0.91121 0.39213 0.18513 0.0
H443 H 0.86008 0.37627 0.2182 0.0
H444 H 0.86256 0.35176 0.23772 0.0
H445 H 0.91886 0.35346 0.33478 0.0
H446 H 0.91771 0.35465 0.29512 0.0
H447 H 0.8646 0.30447 0.29516 0.0
H448 H 0.86546 0.30331 0.33481 0.0
H449 H 0.88897 0.35378 0.26564 0.0
H450 H 0.86969 0.27809 0.25428 0.0
H451 H 0.87234 0.25361 0.27367 0.0
H452 H 0.92205 0.29481 0.30485 0.0
H453 H 0.91984 0.31948 0.28541 0.0
C454 C 0.87377 0.32161 0.16508 0.0
C455 C 0.88965 0.32495 0.15346 0.0
C456 C 0.87436 0.32328 0.18766 0.0
C457 C 0.89074 0.32801 0.19892 0.0
C458 C 0.90659 0.33132 0.18742 0.0
C459 C 0.90612 0.33001 0.16484 0.0
C460 C 0.89123 0.32904 0.2228 0.0
C461 C 0.89269 0.31537 0.23438 0.0
C462 C 0.88987 0.34306 0.23408 0.0
C463 C 0.88844 0.35788 0.22249 0.0
C464 C 0.90218 0.36948 0.20764 0.0
C465 C 0.90062 0.38328 0.19659 0.0
C466 C 0.88544 0.3857 0.20037 0.0
C467 C 0.87182 0.37436 0.21526 0.0
C468 C 0.8733 0.36052 0.22633 0.0
C469 C 0.90685 0.34279 0.32635 0.0
C470 C 0.89229 0.32823 0.33784 0.0
C471 C 0.90618 0.34356 0.30375 0.0
C472 C 0.89111 0.32962 0.29235 0.0
C473 C 0.87634 0.31533 0.30378 0.0
C474 C 0.87687 0.3147 0.32638 0.0
C475 C 0.89138 0.32932 0.26843 0.0
C476 C 0.88999 0.34305 0.25685 0.0
C477 C 0.89279 0.31533 0.2571 0.0
C478 C 0.89447 0.30062 0.26858 0.0
C479 C 0.88121 0.2819 0.26522 0.0
C480 C 0.88264 0.268 0.27622 0.0
C481 C 0.89732 0.27265 0.29054 0.0
C482 C 0.91065 0.29122 0.29382 0.0
C483 C 0.9093 0.30517 0.28285 0.0
H484 H 0.89839 0.26187 0.29905 0.0
H485 H 0.88426 0.39639 0.1918 0.0
H486 H 0.54921 0.85475 0.65015 0.0
H487 H 0.5467 0.85605 0.68949 0.0
H488 H 0.56589 0.91455 0.68553 0.0
H489 H 0.56829 0.91336 0.6461 0.0
H490 H 0.58363 0.90623 0.71703 0.0
H491 H 0.52184 0.88575 0.69459 0.0
H492 H 0.49282 0.86617 0.6747 0.0
H493 H 0.4845 0.8186 0.71085 0.0
H494 H 0.51379 0.83777 0.73053 0.0
H495 H 0.56607 0.91474 0.82685 0.0
H496 H 0.56267 0.91452 0.78749 0.0
H497 H 0.54536 0.85638 0.78596 0.0
H498 H 0.54867 0.85643 0.82541 0.0
H499 H 0.52538 0.86601 0.7571 0.0
H500 H 0.58909 0.8866 0.77639 0.0
H501 H 0.61851 0.90643 0.79548 0.0
H502 H 0.6227 0.95459 0.76473 0.0
H503 H 0.59315 0.93505 0.74568 0.0
C504 C 0.55274 0.86786 0.65758 0.0
C505 C 0.55877 0.88391 0.64498 0.0
C506 C 0.55128 0.86857 0.68007 0.0
C507 C 0.55587 0.88535 0.69033 0.0
C508 C 0.56219 0.90146 0.67786 0.0
C509 C 0.56356 0.90074 0.65535 0.0
C510 C 0.55462 0.88613 0.71418 0.0
C511 C 0.57082 0.89768 0.72577 0.0
C512 C 0.53793 0.87475 0.7255 0.0
C513 C 0.52014 0.86319 0.71392 0.0
C514 C 0.51393 0.87108 0.69819 0.0
C515 C 0.49741 0.86006 0.68696 0.0
C516 C 0.48682 0.84117 0.69153 0.0
C517 C 0.49273 0.83325 0.70733 0.0
C518 C 0.5093 0.84418 0.71851 0.0
C519 C 0.56132 0.90184 0.8182 0.0
C520 C 0.55779 0.88563 0.82921 0.0
C521 C 0.55938 0.90175 0.79571 0.0
C522 C 0.55398 0.88548 0.78385 0.0
C523 C 0.54954 0.86906 0.79487 0.0
C524 C 0.55148 0.86913 0.8174 0.0
C525 C 0.55444 0.88597 0.75987 0.0
C526 C 0.53811 0.87466 0.74828 0.0
C527 C 0.57099 0.89765 0.74848 0.0
C528 C 0.58882 0.90939 0.7598 0.0
C529 C 0.59622 0.90143 0.77383 0.0
C530 C 0.61293 0.91262 0.78462 0.0
C531 C 0.62244 0.93177 0.78137 0.0
C532 C 0.6153 0.93976 0.76726 0.0
C533 C 0.59858 0.92864 0.75646 0.0
H534 H 0.63538 0.9404 0.78974 0.0
H535 H 0.47403 0.83266 0.68283 0.0
H536 H 0.65098 0.56508 0.34171 0.0
H537 H 0.64907 0.56263 0.30217 0.0
H538 H 0.69006 0.54549 0.30192 0.0
H539 H 0.69227 0.54817 0.3414 0.0
H540 H 0.69819 0.57278 0.27313 0.0
H541 H 0.64512 0.5146 0.2915 0.0
H542 H 0.61555 0.49385 0.30979 0.0
H543 H 0.58994 0.52097 0.2776 0.0
H544 H 0.61945 0.54208 0.25935 0.0
H545 H 0.69101 0.55034 0.162 0.0
H546 H 0.68968 0.54736 0.20142 0.0
H547 H 0.64836 0.56404 0.20368 0.0
H548 H 0.64925 0.56659 0.16413 0.0
H549 H 0.64011 0.53581 0.23146 0.0
H550 H 0.69324 0.59485 0.21467 0.0
H551 H 0.72282 0.61607 0.19666 0.0
H552 H 0.74823 0.58769 0.22629 0.0
H553 H 0.71872 0.56613 0.24426 0.0
C554 C 0.65948 0.56065 0.33326 0.0
C555 C 0.67175 0.55678 0.34468 0.0
C556 C 0.6583 0.55916 0.31068 0.0
C557 C 0.66931 0.55373 0.29916 0.0
C558 C 0.68141 0.54966 0.31054 0.0
C559 C 0.68259 0.55112 0.3331 0.0
C560 C 0.66895 0.55326 0.27516 0.0
C561 C 0.68555 0.56445 0.26401 0.0
C562 C 0.65235 0.54277 0.26333 0.0
C563 C 0.63456 0.53004 0.27421 0.0
C564 C 0.63323 0.51624 0.28846 0.0
C565 C 0.61647 0.5044 0.29879 0.0
C566 C 0.60089 0.50612 0.2949 0.0
C567 C 0.60203 0.51967 0.28062 0.0
C568 C 0.61877 0.53157 0.27026 0.0
C569 C 0.68148 0.55316 0.17082 0.0
C570 C 0.67024 0.55871 0.15993 0.0
C571 C 0.68082 0.55156 0.19337 0.0
C572 C 0.66909 0.55571 0.20548 0.0
C573 C 0.65752 0.56079 0.19463 0.0
C574 C 0.65811 0.56232 0.17204 0.0
C575 C 0.66935 0.55532 0.22948 0.0
C576 C 0.65275 0.54403 0.24061 0.0
C577 C 0.68594 0.56577 0.24134 0.0
C578 C 0.70372 0.57876 0.23062 0.0
C579 C 0.7051 0.59304 0.21721 0.0
C580 C 0.72186 0.60515 0.20703 0.0
C581 C 0.73738 0.60319 0.21028 0.0
C582 C 0.73619 0.58916 0.22376 0.0
C583 C 0.71946 0.57701 0.23396 0.0
H584 H 0.75035 0.61258 0.20239 0.0
H585 H 0.58792 0.49694 0.30292 0.0
H586 H 0.07612 0.65354 0.65989 0.0
H587 H 0.07443 0.65217 0.69953 0.0
H588 H 0.13219 0.69397 0.70333 0.0
H589 H 0.13401 0.69542 0.66381 0.0
H590 H 0.12334 0.66566 0.73179 0.0
H591 H 0.09936 0.70545 0.71095 0.0
H592 H 0.07859 0.71353 0.69133 0.0
H593 H 0.03138 0.66835 0.72203 0.0
H594 H 0.05188 0.65984 0.74162 0.0
H595 H 0.13195 0.69987 0.83812 0.0
H596 H 0.13075 0.6965 0.79877 0.0
H597 H 0.07299 0.65475 0.8026 0.0
H598 H 0.07406 0.658 0.84213 0.0
H599 H 0.07987 0.68008 0.77049 0.0
H600 H 0.10412 0.64181 0.79368 0.0
H601 H 0.12503 0.6343 0.81392 0.0
H602 H 0.1717 0.67653 0.77914 0.0
H603 H 0.1511 0.68453 0.75895 0.0
C604 C 0.08847 0.6624 0.66917 0.0
C605 C 0.10521 0.67457 0.65871 0.0
C606 C 0.08747 0.66162 0.6918 0.0
C607 C 0.10316 0.67306 0.70433 0.0
C608 C 0.11994 0.68498 0.69393 0.0
C609 C 0.12095 0.68579 0.67133 0.0
C610 C 0.10207 0.67294 0.72829 0.0
C611 C 0.11395 0.66895 0.74028 0.0
C612 C 0.08946 0.67677 0.73929 0.0
C613 C 0.07713 0.68188 0.72755 0.0
C614 C 0.08454 0.69714 0.71337 0.0
C615 C 0.07282 0.70182 0.70229 0.0
C616 C 0.05368 0.69143 0.70538 0.0
C617 C 0.04621 0.67636 0.71962 0.0
C618 C 0.05787 0.67162 0.73072 0.0
C619 C 0.11902 0.68986 0.83066 0.0
C620 C 0.10315 0.67903 0.84327 0.0
C621 C 0.11836 0.68796 0.80816 0.0
C622 C 0.10185 0.67518 0.79784 0.0
C623 C 0.08588 0.66462 0.81031 0.0
C624 C 0.08653 0.66649 0.83286 0.0
C625 C 0.10132 0.67305 0.77399 0.0
C626 C 0.08913 0.6766 0.76203 0.0
C627 C 0.11365 0.6688 0.76302 0.0
C628 C 0.12607 0.66387 0.77492 0.0
C629 C 0.11886 0.64959 0.79045 0.0
C630 C 0.13065 0.64523 0.8019 0.0
C631 C 0.14969 0.65496 0.79784 0.0
C632 C 0.15696 0.66902 0.78228 0.0
C633 C 0.14522 0.67346 0.77081 0.0
H634 H 0.1588 0.65157 0.80673 0.0
H635 H 0.04463 0.69507 0.69679 0.0
H636 H 0.90993 0.5683 0.15454 0.0
H637 H 0.90976 0.56584 0.19403 0.0
H638 H 0.85094 0.54548 0.19482 0.0
H639 H 0.85106 0.54834 0.1554 0.0
H640 H 0.86846 0.57248 0.22357 0.0
H641 H 0.86862 0.51675 0.20472 0.0
H642 H 0.8799 0.49806 0.18622 0.0
H643 H 0.93232 0.52873 0.21855 0.0
H644 H 0.92145 0.5478 0.237 0.0
H645 H 0.85566 0.55101 0.33483 0.0
H646 H 0.85369 0.54721 0.29552 0.0
H647 H 0.91253 0.5679 0.29245 0.0
H648 H 0.91453 0.57124 0.33192 0.0
H649 H 0.89407 0.53928 0.2649 0.0
H650 H 0.89505 0.59612 0.28159 0.0
H651 H 0.88458 0.61564 0.29972 0.0
H652 H 0.83078 0.58355 0.27088 0.0
H653 H 0.84087 0.56367 0.25281 0.0
C654 C 0.89693 0.56317 0.1631 0.0
C655 C 0.88049 0.55846 0.15183 0.0
C656 C 0.89684 0.56165 0.18566 0.0
C657 C 0.8803 0.55527 0.19734 0.0
C658 C 0.86384 0.55037 0.1861 0.0
C659 C 0.86393 0.55194 0.16355 0.0
C660 C 0.88034 0.55478 0.22135 0.0
C661 C 0.87375 0.56494 0.2326 0.0
C662 C 0.88774 0.54537 0.23309 0.0
C663 C 0.89426 0.53381 0.22211 0.0
C664 C 0.8826 0.51961 0.20777 0.0
C665 C 0.88892 0.50893 0.1973 0.0
C666 C 0.90683 0.51223 0.20118 0.0
C667 C 0.91845 0.52619 0.21555 0.0
C668 C 0.91221 0.53693 0.22604 0.0
C669 C 0.86815 0.55452 0.32587 0.0
C670 C 0.88526 0.56146 0.33651 0.0
C671 C 0.86701 0.55244 0.30337 0.0
C672 C 0.88301 0.55752 0.29104 0.0
C673 C 0.90002 0.56392 0.30166 0.0
C674 C 0.90115 0.5659 0.3242 0.0
C675 C 0.88213 0.55693 0.26704 0.0
C676 C 0.88863 0.54666 0.25581 0.0
C677 C 0.87472 0.56631 0.25526 0.0
C678 C 0.86866 0.57829 0.26603 0.0
C679 C 0.88095 0.59314 0.27925 0.0
C680 C 0.87509 0.60428 0.28949 0.0
C681 C 0.85701 0.60081 0.2865 0.0
C682 C 0.84477 0.58621 0.27321 0.0
C683 C 0.85055 0.57501 0.26295 0.0
H684 H 0.8525 0.60945 0.29444 0.0
H685 H 0.9117 0.50395 0.19308 0.0
H686 H 0.34532 0.92065 0.84728 0.0
H687 H 0.34774 0.92348 0.80773 0.0
H688 H 0.30635 0.86577 0.80142 0.0
H689 H 0.30391 0.8628 0.84081 0.0
H690 H 0.33493 0.87538 0.77359 0.0
H691 H 0.29502 0.8992 0.79519 0.0
H692 H 0.28703 0.91975 0.81546 0.0
H693 H 0.33282 0.96736 0.78617 0.0
H694 H 0.34122 0.94708 0.76593 0.0
H695 H 0.29891 0.86727 0.66867 0.0
H696 H 0.3032 0.86861 0.70788 0.0
H697 H 0.34539 0.92616 0.70317 0.0
H698 H 0.34125 0.92493 0.66374 0.0
H699 H 0.32057 0.91945 0.73624 0.0
H700 H 0.35833 0.89523 0.71141 0.0
H701 H 0.36556 0.87446 0.69045 0.0
H702 H 0.32385 0.82758 0.72544 0.0
H703 H 0.31612 0.84803 0.74635 0.0
C704 C 0.33679 0.90855 0.83746 0.0
C705 C 0.32443 0.89149 0.84717 0.0
C706 C 0.33817 0.9102 0.81489 0.0
C707 C 0.32713 0.89486 0.80168 0.0
C708 C 0.31505 0.87775 0.81134 0.0
C709 C 0.31366 0.87609 0.83387 0.0
C710 C 0.32767 0.89662 0.77776 0.0
C711 C 0.33168 0.88493 0.7654 0.0
C712 C 0.32394 0.90945 0.76715 0.0
C713 C 0.31887 0.92164 0.77926 0.0
C714 C 0.30347 0.91406 0.79321 0.0
C715 C 0.29885 0.92566 0.80467 0.0
C716 C 0.30945 0.94485 0.80216 0.0
C717 C 0.32465 0.95249 0.78813 0.0
C718 C 0.32934 0.94095 0.77666 0.0
C719 C 0.30921 0.88018 0.6759 0.0
C720 C 0.31991 0.89592 0.66307 0.0
C721 C 0.31164 0.88092 0.69832 0.0
C722 C 0.32481 0.8974 0.70834 0.0
C723 C 0.33522 0.91329 0.69568 0.0
C724 C 0.33284 0.91254 0.67319 0.0
C725 C 0.32746 0.89795 0.73209 0.0
C726 C 0.32407 0.91008 0.74442 0.0
C727 C 0.33176 0.88552 0.74267 0.0
C728 C 0.33655 0.87317 0.73035 0.0
C729 C 0.3506 0.88048 0.71454 0.0
C730 C 0.3548 0.86876 0.70267 0.0
C731 C 0.34515 0.84971 0.70659 0.0
C732 C 0.3313 0.84234 0.72242 0.0
C733 C 0.32702 0.85399 0.73429 0.0
H734 H 0.34841 0.84066 0.69738 0.0
H735 H 0.30585 0.95381 0.81104 0.0
H736 H 0.40334 0.31508 0.34063 0.0
H737 H 0.4045 0.31621 0.30105 0.0
H738 H 0.46123 0.3281 0.303 0.0
H739 H 0.45948 0.32551 0.34261 0.0
H740 H 0.42105 0.33971 0.27304 0.0
H741 H 0.47304 0.3138 0.25833 0.0
H742 H 0.48283 0.29335 0.27555 0.0
H743 H 0.42985 0.26277 0.3067 0.0
H744 H 0.41968 0.28288 0.28947 0.0
H745 H 0.43987 0.35025 0.16089 0.0
H746 H 0.44333 0.35185 0.20039 0.0
H747 H 0.42064 0.29258 0.20271 0.0
H748 H 0.41869 0.2913 0.16315 0.0
H749 H 0.445 0.30568 0.23052 0.0
H750 H 0.39487 0.31637 0.21472 0.0
H751 H 0.37927 0.33165 0.19759 0.0
H752 H 0.41796 0.38315 0.22769 0.0
H753 H 0.43392 0.36822 0.2448 0.0
C754 C 0.416 0.31785 0.33252 0.0
C755 C 0.43123 0.31995 0.34447 0.0
C756 C 0.41671 0.31858 0.30992 0.0
C757 C 0.43286 0.32195 0.29888 0.0
C758 C 0.4484 0.32488 0.311 0.0
C759 C 0.44745 0.32349 0.33361 0.0
C760 C 0.43322 0.32221 0.27474 0.0
C761 C 0.42627 0.33223 0.26378 0.0
C762 C 0.43976 0.31226 0.26251 0.0
C763 C 0.44569 0.29999 0.27281 0.0
C764 C 0.46347 0.30268 0.26881 0.0
C765 C 0.46909 0.29115 0.27858 0.0
C766 C 0.457 0.27682 0.29227 0.0
C767 C 0.43923 0.27392 0.29616 0.0
C768 C 0.43354 0.28539 0.28641 0.0
C769 C 0.43573 0.33762 0.16993 0.0
C770 C 0.42888 0.32063 0.15916 0.0
C771 C 0.43758 0.3385 0.19249 0.0
C772 C 0.43183 0.32227 0.20471 0.0
C773 C 0.42521 0.30532 0.19377 0.0
C774 C 0.424 0.30456 0.17118 0.0
C775 C 0.43238 0.32277 0.22883 0.0
C776 C 0.43973 0.31311 0.23979 0.0
C777 C 0.42527 0.33221 0.24108 0.0
C778 C 0.4157 0.34123 0.23084 0.0
C779 C 0.40012 0.33098 0.21757 0.0
C780 C 0.3912 0.33958 0.20788 0.0
C781 C 0.39765 0.35837 0.2115 0.0
C782 C 0.413 0.3686 0.22487 0.0
C783 C 0.42198 0.36008 0.23458 0.0
H784 H 0.39073 0.365 0.20399 0.0
H785 H 0.46138 0.26792 0.29983 0.0
H786 H 0.14462 0.44171 0.66401 0.0
H787 H 0.14448 0.44358 0.70353 0.0
H788 H 0.08613 0.42547 0.70243 0.0
H789 H 0.08621 0.42392 0.66282 0.0
H790 H 0.10493 0.45427 0.73023 0.0
H791 H 0.10057 0.39556 0.71578 0.0
H792 H 0.11001 0.37458 0.69934 0.0
H793 H 0.16268 0.40388 0.73142 0.0
H794 H 0.15365 0.42519 0.74783 0.0
H795 H 0.08581 0.42933 0.84166 0.0
H796 H 0.08623 0.42934 0.80198 0.0
H797 H 0.14446 0.44688 0.80278 0.0
H798 H 0.1441 0.44659 0.84238 0.0
H799 H 0.12572 0.41864 0.77509 0.0
H800 H 0.13015 0.47711 0.78997 0.0
H801 H 0.12092 0.49818 0.80655 0.0
H802 H 0.06849 0.46969 0.77383 0.0
H803 H 0.0773 0.44825 0.75731 0.0
C804 C 0.13178 0.43824 0.67214 0.0
C805 C 0.11543 0.4327 0.66029 0.0
C806 C 0.1317 0.43921 0.69473 0.0
C807 C 0.11525 0.4345 0.70589 0.0
C808 C 0.09896 0.42916 0.69411 0.0
C809 C 0.09902 0.42819 0.67149 0.0
C810 C 0.11503 0.43501 0.72988 0.0
C811 C 0.10924 0.4463 0.74008 0.0
C812 C 0.12107 0.42493 0.74264 0.0
C813 C 0.1265 0.41208 0.73287 0.0
C814 C 0.11422 0.39761 0.7192 0.0
C815 C 0.11949 0.38565 0.7099 0.0
C816 C 0.13695 0.38793 0.71429 0.0
C817 C 0.14916 0.40214 0.72802 0.0
C818 C 0.14397 0.41416 0.73734 0.0
C819 C 0.09872 0.43326 0.83338 0.0
C820 C 0.11495 0.43805 0.84514 0.0
C821 C 0.09895 0.43335 0.81073 0.0
C822 C 0.11542 0.43829 0.79947 0.0
C823 C 0.13162 0.44308 0.81118 0.0
C824 C 0.13141 0.443 0.83381 0.0
C825 C 0.11565 0.43792 0.77548 0.0
C826 C 0.12143 0.42663 0.76527 0.0
C827 C 0.10963 0.44803 0.76273 0.0
C828 C 0.10432 0.46095 0.77257 0.0
C829 C 0.11659 0.47523 0.78645 0.0
C830 C 0.11145 0.48727 0.79581 0.0
C831 C 0.09411 0.48525 0.79129 0.0
C832 C 0.0819 0.47122 0.77735 0.0
C833 C 0.08697 0.45913 0.76796 0.0
H834 H 0.09015 0.49458 0.79855 0.0
H835 H 0.141 0.37865 0.70708 0.0
H836 H 0.69348 0.13717 0.33605 0.0
H837 H 0.6896 0.13611 0.29673 0.0
H838 H 0.64964 0.07777 0.3004 0.0
H839 H 0.65346 0.07869 0.33979 0.0
H840 H 0.67534 0.08515 0.26961 0.0
H841 H 0.63556 0.10845 0.28985 0.0
H842 H 0.62689 0.12919 0.30844 0.0
H843 H 0.66902 0.17572 0.27337 0.0
H844 H 0.67815 0.1553 0.2548 0.0
H845 H 0.65166 0.07783 0.15859 0.0
H846 H 0.64842 0.07758 0.19801 0.0
H847 H 0.6891 0.13577 0.20034 0.0
H848 H 0.69233 0.13619 0.16092 0.0
H849 H 0.66029 0.12697 0.22817 0.0
H850 H 0.70173 0.10418 0.21066 0.0
H851 H 0.71092 0.08368 0.19243 0.0
H852 H 0.66572 0.03629 0.22285 0.0
H853 H 0.65612 0.05651 0.24104 0.0
C854 C 0.6837 0.12416 0.32855 0.0
C855 C 0.67371 0.10803 0.34104 0.0
C856 C 0.68147 0.12359 0.30608 0.0
C857 C 0.66917 0.10691 0.29571 0.0
C858 C 0.65915 0.09079 0.30813 0.0
C859 C 0.66136 0.09135 0.33061 0.0
C860 C 0.66752 0.10612 0.27178 0.0
C861 C 0.6717 0.09404 0.26056 0.0
C862 C 0.66316 0.11803 0.26002 0.0
C863 C 0.65765 0.13035 0.27106 0.0
C864 C 0.64308 0.12313 0.28622 0.0
C865 C 0.63807 0.13482 0.29674 0.0
C866 C 0.64743 0.15377 0.29212 0.0
C867 C 0.6618 0.16104 0.27694 0.0
C868 C 0.66689 0.14941 0.2664 0.0
C869 C 0.6598 0.09062 0.16746 0.0
C870 C 0.67233 0.10701 0.15666 0.0
C871 C 0.65794 0.09044 0.18998 0.0
C872 C 0.66869 0.10661 0.20208 0.0
C873 C 0.68068 0.12315 0.19127 0.0
C874 C 0.68253 0.12335 0.16875 0.0
C875 C 0.66822 0.10608 0.22607 0.0
C876 C 0.66371 0.11794 0.23727 0.0
C877 C 0.67229 0.09399 0.23786 0.0
C878 C 0.67809 0.08183 0.22701 0.0
C879 C 0.69367 0.08937 0.21332 0.0
C880 C 0.69896 0.07781 0.20302 0.0
C881 C 0.68888 0.05869 0.20642 0.0
C882 C 0.6735 0.0511 0.22019 0.0
C883 C 0.66813 0.0626 0.23051 0.0
H884 H 0.693 0.04976 0.19844 0.0
H885 H 0.64352 0.1628 0.30028 0.0
H886 H 0.5788 0.66384 0.65037 0.0
H887 H 0.5753 0.66068 0.68978 0.0
H888 H 0.55707 0.70083 0.69092 0.0
H889 H 0.56075 0.70425 0.65156 0.0
H890 H 0.58267 0.70732 0.7222 0.0
H891 H 0.52621 0.65603 0.69615 0.0
H892 H 0.50716 0.62803 0.67431 0.0
H893 H 0.53133 0.59981 0.70717 0.0
H894 H 0.55079 0.62777 0.72893 0.0
H895 H 0.55108 0.69303 0.83002 0.0
H896 H 0.55071 0.69364 0.79048 0.0
H897 H 0.56855 0.65322 0.78823 0.0
H898 H 0.56856 0.65219 0.82791 0.0
H899 H 0.54231 0.64656 0.75739 0.0
H900 H 0.59964 0.69832 0.7822 0.0
H901 H 0.619 0.7265 0.80363 0.0
H902 H 0.59307 0.75386 0.77274 0.0
H903 H 0.57336 0.72574 0.75133 0.0
C904 C 0.57409 0.67203 0.65901 0.0
C905 C 0.56993 0.68421 0.64786 0.0
C906 C 0.57199 0.67013 0.68149 0.0
C907 C 0.5657 0.68036 0.69318 0.0
C908 C 0.56185 0.69275 0.68214 0.0
C909 C 0.56388 0.69462 0.65966 0.0
C910 C 0.56343 0.67835 0.71698 0.0
C911 C 0.57363 0.69409 0.7299 0.0
C912 C 0.55193 0.66099 0.72694 0.0
C913 C 0.5401 0.64407 0.71403 0.0
C914 C 0.52758 0.64391 0.6986 0.0
C915 C 0.51669 0.62803 0.68625 0.0
C916 C 0.51806 0.61216 0.68932 0.0
C917 C 0.5303 0.61212 0.70479 0.0
C918 C 0.54126 0.62798 0.71714 0.0
C919 C 0.55466 0.68405 0.82117 0.0
C920 C 0.55991 0.67261 0.83211 0.0
C921 C 0.55453 0.6845 0.79855 0.0
C922 C 0.55986 0.67368 0.78646 0.0
C923 C 0.56443 0.6617 0.7973 0.0
C924 C 0.5645 0.6612 0.81995 0.0
C925 C 0.56155 0.67555 0.76258 0.0
C926 C 0.55128 0.65979 0.74967 0.0
C927 C 0.57298 0.6929 0.75257 0.0
C928 C 0.58491 0.70987 0.76532 0.0
C929 C 0.59797 0.7103 0.7801 0.0
C930 C 0.60903 0.72627 0.79222 0.0
C931 C 0.60724 0.74195 0.78959 0.0
C932 C 0.59442 0.7417 0.77478 0.0
C933 C 0.58332 0.72576 0.76264 0.0
H934 H 0.6158 0.7543 0.799 0.0
H935 H 0.50962 0.59988 0.67975 0.0
H936 H 0.48618 0.17887 0.04247 0.0
H937 H 0.48802 0.20572 0.02407 0.0
H938 H 0.42854 0.1803 0.02721 0.0
H939 H 0.42664 0.15297 0.04437 0.0
H940 H 0.44315 0.20751 0.99538 0.0
H941 H 0.45302 0.20079 0.07233 0.0
H942 H 0.46838 0.1943 0.10253 0.0
H943 H 0.52125 0.23815 0.08097 0.0
H944 H 0.50616 0.24475 0.05051 0.0
H945 H 0.41931 0.2668 0.05056 0.0
H946 H 0.42507 0.2451 0.03002 0.0
H947 H 0.48398 0.28269 0.03497 0.0
H948 H 0.47813 0.30381 0.05662 0.0
H949 H 0.47546 0.25272 0.0545 0.0
H950 H 0.46112 0.26533 0.98445 0.0
H951 H 0.4435 0.27104 0.9564 0.0
H952 H 0.39708 0.21647 0.96615 0.0
H953 H 0.4143 0.21051 0.99449 0.0
C954 C 0.47347 0.17861 0.03805 0.0
C955 C 0.4563 0.16411 0.04504 0.0
C956 C 0.47451 0.19393 0.02755 0.0
C957 C 0.45846 0.19525 0.02498 0.0
C958 C 0.4411 0.17963 0.02916 0.0
C959 C 0.44002 0.16403 0.03906 0.0
C960 C 0.45996 0.21371 0.02405 0.0
C961 C 0.45031 0.21756 0.00813 0.0
C962 C 0.46946 0.22686 0.04061 0.0
C963 C 0.47852 0.22311 0.05906 0.0
C964 C 0.46793 0.20899 0.07401 0.0
C965 C 0.47658 0.20529 0.09116 0.0
C966 C 0.49579 0.21577 0.09362 0.0
C967 C 0.50637 0.23002 0.079 0.0
C968 C 0.49779 0.23375 0.06181 0.0
C969 C 0.43343 0.27071 0.04642 0.0
C970 C 0.44831 0.28676 0.05522 0.0
C971 C 0.43675 0.25837 0.03453 0.0
C972 C 0.455 0.26219 0.031 0.0
C973 C 0.4698 0.2794 0.03757 0.0
C974 C 0.46648 0.29145 0.04992 0.0
C975 C 0.45852 0.24681 0.02585 0.0
C976 C 0.46893 0.24329 0.04101 0.0
C977 C 0.44947 0.23402 0.00879 0.0
C978 C 0.43901 0.2375 0.9917 0.0
C979 C 0.44711 0.25458 0.98074 0.0
C980 C 0.43719 0.25786 0.96475 0.0
C981 C 0.41918 0.24413 0.95951 0.0
C982 C 0.41105 0.22709 0.97021 0.0
C983 C 0.4209 0.22374 0.98622 0.0
H984 H 0.41152 0.2467 0.94713 0.0
H985 H 0.50247 0.21287 0.10689 0.0
H986 H 0.1542 0.43944 0.53725 0.0
H987 H 0.17864 0.44203 0.51291 0.0
H988 H 0.2194 0.48781 0.55084 0.0
H989 H 0.19523 0.48548 0.57485 0.0
H990 H 0.23034 0.49064 0.50817 0.0
H991 H 0.20457 0.44231 0.56661 0.0
H992 H 0.17852 0.41416 0.58257 0.0
H993 H 0.17 0.38556 0.52198 0.0
H994 H 0.19593 0.41364 0.50566 0.0
H995 H 0.29809 0.48965 0.56627 0.0
H996 H 0.27469 0.4909 0.54419 0.0
H997 H 0.26583 0.4423 0.50916 0.0
H998 H 0.28929 0.44086 0.53164 0.0
H999 H 0.23562 0.43586 0.52813 0.0
H1000 H 0.2743 0.48221 0.48038 0.0
H1001 H 0.30147 0.51064 0.4669 0.0
H1002 H 0.28714 0.54366 0.50707 0.0
H1003 H 0.26006 0.51547 0.52109 0.0
C1004 C 0.1683 0.45046 0.53992 0.0
C1005 C 0.17289 0.46195 0.5583 0.0
C1006 C 0.18224 0.45194 0.52597 0.0
C1007 C 0.20088 0.46489 0.5303 0.0
C1008 C 0.20513 0.47768 0.54717 0.0
C1009 C 0.1913 0.4762 0.56108 0.0
C1010 C 0.21619 0.46294 0.52094 0.0
C1011 C 0.23155 0.47862 0.5121 0.0
C1012 C 0.21741 0.4469 0.5251 0.0
C1013 C 0.20198 0.43005 0.5349 0.0
C1014 C 0.19708 0.43001 0.55671 0.0
C1015 C 0.18235 0.41409 0.56581 0.0
C1016 C 0.17258 0.39809 0.55328 0.0
C1017 C 0.17755 0.39797 0.53165 0.0
C1018 C 0.19225 0.41388 0.52246 0.0
C1019 C 0.29163 0.47957 0.5534 0.0
C1020 C 0.29522 0.46491 0.55103 0.0
C1021 C 0.27836 0.48044 0.5405 0.0
C1022 C 0.26841 0.46668 0.52493 0.0
C1023 C 0.27334 0.45309 0.52103 0.0
C1024 C 0.28674 0.45227 0.53392 0.0
C1025 C 0.25046 0.46423 0.51715 0.0
C1026 C 0.23445 0.44763 0.52276 0.0
C1027 C 0.24876 0.47946 0.51007 0.0
C1028 C 0.26504 0.49663 0.50174 0.0
C1029 C 0.27696 0.49552 0.48643 0.0
C1030 C 0.29236 0.51161 0.47869 0.0
C1031 C 0.29601 0.52894 0.4861 0.0
C1032 C 0.28426 0.53022 0.50128 0.0
C1033 C 0.26884 0.51417 0.50908 0.0
H1034 H 0.30795 0.54138 0.48009 0.0
H1035 H 0.16118 0.38578 0.56034 0.0
H1036 H 0.85203 0.28125 0.03405 0.0
H1037 H 0.82846 0.25665 0.01128 0.0
H1038 H 0.78626 0.26444 0.04183 0.0
H1039 H 0.80956 0.28888 0.06425 0.0
H1040 H 0.80405 0.22628 0.03031 0.0
H1041 H 0.74849 0.24913 0.01529 0.0
H1042 H 0.74765 0.2758 -0.00058 0.0
H1043 H 0.79723 0.29058 0.96346 0.0
H1044 H 0.79824 0.26381 0.97881 0.0
H1045 H 0.71073 0.18602 0.06866 0.0
H1046 H 0.7344 0.20967 0.04577 0.0
H1047 H 0.74223 0.16819 0.01342 0.0
H1048 H 0.71854 0.14424 0.0368 0.0
H1049 H 0.74482 0.21951 0.00382 0.0
H1050 H 0.78832 0.18622 0.00917 0.0
H1051 H 0.79006 0.16091 0.02784 0.0
H1052 H 0.76646 0.17002 0.0852 0.0
H1053 H 0.76474 0.19546 0.06688 0.0
C1054 C 0.8378 0.27816 0.03528 0.0
C1055 C 0.83255 0.28671 0.05121 0.0
C1056 C 0.82436 0.26412 0.02223 0.0
C1057 C 0.80556 0.25867 0.02474 0.0
C1058 C 0.80065 0.26853 0.0392 0.0
C1059 C 0.81399 0.28238 0.05229 0.0
C1060 C 0.79077 0.24048 0.01661 0.0
C1061 C 0.79133 0.22475 0.02356 0.0
C1062 C 0.77416 0.23835 0.00772 0.0
C1063 C 0.7734 0.25435 -0.00181 0.0
C1064 C 0.75911 0.25791 0.00381 0.0
C1065 C 0.75864 0.27311 0.99495 0.0
C1066 C 0.77237 0.28487 0.98043 0.0
C1067 C 0.78661 0.28146 0.97473 0.0
C1068 C 0.78715 0.26629 0.98353 0.0
C1069 C 0.71717 0.18181 0.05639 0.0
C1070 C 0.71313 0.16334 0.05495 0.0
C1071 C 0.73058 0.19535 0.04308 0.0
C1072 C 0.74031 0.19076 0.02809 0.0
C1073 C 0.735 0.17205 0.02504 0.0
C1074 C 0.72149 0.1584 0.03843 0.0
C1075 C 0.75796 0.20598 0.01936 0.0
C1076 C 0.75789 0.22101 0.00919 0.0
C1077 C 0.77508 0.2076 0.0254 0.0
C1078 C 0.77622 0.19252 0.03661 0.0
C1079 C 0.78353 0.1828 0.02577 0.0
C1080 C 0.78451 0.16845 0.03628 0.0
C1081 C 0.77832 0.16382 0.05767 0.0
C1082 C 0.77121 0.17359 0.06862 0.0
C1083 C 0.77024 0.18797 0.0582 0.0
H1084 H 0.77906 0.15269 0.06576 0.0
H1085 H 0.77198 0.29663 0.97361 0.0
H1086 H 0.51258 0.70422 0.56183 0.0
H1087 H 0.50788 0.72461 0.53803 0.0
H1088 H 0.556 0.73511 0.50073 0.0
H1089 H 0.56096 0.71471 0.52498 0.0
H1090 H 0.56063 0.76561 0.51685 0.0
H1091 H 0.51355 0.72112 0.47413 0.0
H1092 H 0.48588 0.69168 0.46407 0.0
H1093 H 0.45212 0.70492 0.50438 0.0
H1094 H 0.47958 0.73429 0.515 0.0
H1095 H 0.54939 0.84245 0.52257 0.0
H1096 H 0.54771 0.81795 0.49909 0.0
H1097 H 0.5054 0.77674 0.54041 0.0
H1098 H 0.50673 0.80094 0.5635 0.0
H1099 H 0.50178 0.76381 0.49893 0.0
H1100 H 0.55271 0.7963 0.55368 0.0
H1101 H 0.58026 0.82465 0.56692 0.0
H1102 H 0.60604 0.83239 0.50451 0.0
H1103 H 0.57853 0.80415 0.49091 0.0
C1104 C 0.52185 0.71039 0.54817 0.0
C1105 C 0.53739 0.70822 0.54559 0.0
C1106 C 0.51899 0.72189 0.53428 0.0
C1107 C 0.53157 0.73145 0.51747 0.0
C1108 C 0.54607 0.72784 0.51354 0.0
C1109 C 0.54891 0.71621 0.52745 0.0
C1110 C 0.53193 0.74806 0.50817 0.0
C1111 C 0.54793 0.76519 0.51192 0.0
C1112 C 0.51546 0.74767 0.50162 0.0
C1113 C 0.49871 0.73003 0.49529 0.0
C1114 C 0.50025 0.71775 0.48093 0.0
C1115 C 0.48458 0.70105 0.47513 0.0
C1116 C 0.46725 0.69645 0.48355 0.0
C1117 C 0.46555 0.70854 0.4978 0.0
C1118 C 0.48117 0.72525 0.50367 0.0
C1119 C 0.53925 0.82819 0.52617 0.0
C1120 C 0.52858 0.82358 0.54525 0.0
C1121 C 0.53829 0.81421 0.5127 0.0
C1122 C 0.52674 0.79551 0.51827 0.0
C1123 C 0.51449 0.79105 0.5358 0.0
C1124 C 0.51542 0.80494 0.54918 0.0
C1125 C 0.52994 0.78076 0.50959 0.0
C1126 C 0.51469 0.76414 0.50241 0.0
C1127 C 0.54706 0.78148 0.5131 0.0
C1128 C 0.56358 0.79832 0.52125 0.0
C1129 C 0.56426 0.80411 0.54281 0.0
C1130 C 0.57984 0.82014 0.55036 0.0
C1131 C 0.59487 0.83034 0.53654 0.0
C1132 C 0.59437 0.8245 0.51517 0.0
C1133 C 0.57879 0.8085 0.50753 0.0
H1134 H 0.60692 0.84275 0.54241 0.0
H1135 H 0.45514 0.68351 0.47905 0.0
H1136 H 0.71117 0.56764 0.03818 0.0
H1137 H 0.73423 0.56793 0.01322 0.0
H1138 H 0.72583 0.51693 0.04149 0.0
H1139 H 0.70296 0.51655 0.06611 0.0
H1140 H 0.76508 0.57237 0.02961 0.0
H1141 H 0.73797 0.49338 0.01197 0.0
H1142 H 0.7099 0.46683 0.9969 0.0
H1143 H 0.69594 0.50382 0.96457 0.0
H1144 H 0.7241 0.53066 0.97913 0.0
H1145 H 0.8018 0.51566 0.06301 0.0
H1146 H 0.77837 0.51677 0.04076 0.0
H1147 H 0.82063 0.56544 0.00815 0.0
H1148 H 0.84434 0.56461 0.03089 0.0
H1149 H 0.76765 0.51855 -0.00044 0.0
H1150 H 0.80498 0.59525 0.00623 0.0
H1151 H 0.83179 0.6213 0.02435 0.0
H1152 H 0.82229 0.58775 0.08105 0.0
H1153 H 0.79536 0.56161 0.06328 0.0
C1154 C 0.7138 0.55616 0.03847 0.0
C1155 C 0.70555 0.54224 0.05434 0.0
C1156 C 0.72694 0.55633 0.02417 0.0
C1157 C 0.73175 0.54243 0.02535 0.0
C1158 C 0.72218 0.52765 0.03988 0.0
C1159 C 0.70925 0.52757 0.05422 0.0
C1160 C 0.74922 0.54513 0.01562 0.0
C1161 C 0.76567 0.56092 0.02208 0.0
C1162 C 0.75012 0.5303 0.00568 0.0
C1163 C 0.73326 0.5141 0.99662 0.0
C1164 C 0.72907 0.49591 0.00144 0.0
C1165 C 0.71308 0.48078 0.99305 0.0
C1166 C 0.70115 0.48364 0.97977 0.0
C1167 C 0.70519 0.50163 0.97487 0.0
C1168 C 0.72115 0.51681 0.98322 0.0
C1169 C 0.80622 0.52635 0.05074 0.0
C1170 C 0.82484 0.54037 0.04915 0.0
C1171 C 0.79279 0.52685 0.0378 0.0
C1172 C 0.79769 0.5414 0.02306 0.0
C1173 C 0.81653 0.5542 0.01961 0.0
C1174 C 0.83006 0.55372 0.03263 0.0
C1175 C 0.78287 0.54495 0.01546 0.0
C1176 C 0.76705 0.53043 0.00569 0.0
C1177 C 0.78242 0.56088 0.02248 0.0
C1178 C 0.79837 0.57652 0.03337 0.0
C1179 C 0.80864 0.5935 0.02257 0.0
C1180 C 0.82383 0.60825 0.03277 0.0
C1181 C 0.82878 0.60616 0.05381 0.0
C1182 C 0.81848 0.58934 0.06474 0.0
C1183 C 0.80325 0.57457 0.05463 0.0
H1184 H 0.84056 0.61759 0.06166 0.0
H1185 H 0.68877 0.4719 0.97331 0.0
H1186 H 0.28139 0.85139 0.54329 0.0
H1187 H 0.25915 0.82595 0.52027 0.0
H1188 H 0.2654 0.78691 0.56019 0.0
H1189 H 0.28759 0.81205 0.5829 0.0
H1190 H 0.25738 0.77479 0.51795 0.0
H1191 H 0.23423 0.80134 0.5746 0.0
H1192 H 0.23141 0.82737 0.58928 0.0
H1193 H 0.21011 0.83319 0.52815 0.0
H1194 H 0.21298 0.80728 0.5131 0.0
H1195 H 0.18892 0.70696 0.57674 0.0
H1196 H 0.2136 0.73078 0.55506 0.0
H1197 H 0.17352 0.73755 0.51785 0.0
H1198 H 0.14855 0.71359 0.53987 0.0
H1199 H 0.19667 0.76848 0.53678 0.0
H1200 H 0.20564 0.72949 0.49078 0.0
H1201 H 0.20765 0.70239 0.47866 0.0
H1202 H 0.25494 0.71859 0.51965 0.0
H1203 H 0.25307 0.74561 0.53232 0.0
C1204 C 0.27846 0.83743 0.54669 0.0
C1205 C 0.28587 0.83363 0.56521 0.0
C1206 C 0.26577 0.82293 0.53351 0.0
C1207 C 0.2604 0.80451 0.53873 0.0
C1208 C 0.2693 0.80099 0.55584 0.0
C1209 C 0.28186 0.81539 0.56899 0.0
C1210 C 0.24328 0.78871 0.52979 0.0
C1211 C 0.24401 0.77336 0.52165 0.0
C1212 C 0.22583 0.78715 0.53365 0.0
C1213 C 0.22401 0.80259 0.54269 0.0
C1214 C 0.22901 0.80824 0.5643 0.0
C1215 C 0.22741 0.82296 0.57268 0.0
C1216 C 0.22064 0.83197 0.55963 0.0
C1217 C 0.2154 0.82624 0.53821 0.0
C1218 C 0.21702 0.81155 0.52975 0.0
C1219 C 0.18527 0.71308 0.5635 0.0
C1220 C 0.16685 0.70868 0.56029 0.0
C1221 C 0.19942 0.72658 0.55086 0.0
C1222 C 0.19547 0.736 0.53471 0.0
C1223 C 0.17689 0.73042 0.53014 0.0
C1224 C 0.16264 0.71674 0.54275 0.0
C1225 C 0.21077 0.75397 0.52671 0.0
C1226 C 0.20976 0.76987 0.53168 0.0
C1227 C 0.22789 0.75592 0.51999 0.0
C1228 C 0.22924 0.73969 0.51245 0.0
C1229 C 0.21643 0.72726 0.4973 0.0
C1230 C 0.21754 0.71189 0.49033 0.0
C1231 C 0.23143 0.70879 0.49836 0.0
C1232 C 0.24423 0.72104 0.51338 0.0
C1233 C 0.24318 0.73643 0.52042 0.0
H1234 H 0.23226 0.69688 0.49294 0.0
H1235 H 0.2194 0.84335 0.56614 0.0
H1236 H 0.85346 0.57273 0.45742 0.0
H1237 H 0.83028 0.57288 0.4818 0.0
H1238 H 0.78897 0.52008 0.45587 0.0
H1239 H 0.81189 0.51984 0.43188 0.0
H1240 H 0.80305 0.5754 0.46465 0.0
H1241 H 0.7535 0.49665 0.48594 0.0
H1242 H 0.75621 0.47123 0.5025 0.0
H1243 H 0.80694 0.51056 0.53349 0.0
H1244 H 0.80443 0.53628 0.51743 0.0
H1245 H 0.70901 0.51588 0.43432 0.0
H1246 H 0.73438 0.51821 0.45604 0.0
H1247 H 0.74039 0.56728 0.48715 0.0
H1248 H 0.71499 0.56519 0.465 0.0
H1249 H 0.74806 0.52159 0.49711 0.0
H1250 H 0.78582 0.5982 0.48653 0.0
H1251 H 0.7838 0.6231 0.46719 0.0
H1252 H 0.75854 0.58701 0.41267 0.0
H1253 H 0.76057 0.562 0.43166 0.0
C1254 C 0.83958 0.56086 0.45755 0.0
C1255 C 0.83436 0.54642 0.44249 0.0
C1256 C 0.82636 0.56095 0.47151 0.0
C1257 C 0.80786 0.54648 0.47079 0.0
C1258 C 0.80317 0.53127 0.45714 0.0
C1259 C 0.81626 0.53125 0.44314 0.0
C1260 C 0.79269 0.54878 0.48001 0.0
C1261 C 0.79131 0.56397 0.47268 0.0
C1262 C 0.77734 0.53397 0.49055 0.0
C1263 C 0.77873 0.51846 0.5005 0.0
C1264 C 0.76514 0.49993 0.49648 0.0
C1265 C 0.76667 0.48545 0.50572 0.0
C1266 C 0.78173 0.48928 0.51904 0.0
C1267 C 0.79529 0.50761 0.52315 0.0
C1268 C 0.79383 0.52215 0.51395 0.0
C1269 C 0.71536 0.5269 0.44619 0.0
C1270 C 0.71037 0.54065 0.4475 0.0
C1271 C 0.72977 0.52811 0.45882 0.0
C1272 C 0.73953 0.54313 0.47292 0.0
C1273 C 0.73316 0.55568 0.47617 0.0
C1274 C 0.71865 0.55447 0.46349 0.0
C1275 C 0.75824 0.54736 0.48002 0.0
C1276 C 0.76023 0.53347 0.49043 0.0
C1277 C 0.77422 0.56331 0.47221 0.0
C1278 C 0.77316 0.57826 0.46057 0.0
C1279 C 0.77987 0.59564 0.47041 0.0
C1280 C 0.77872 0.60974 0.45951 0.0
C1281 C 0.77099 0.60661 0.43874 0.0
C1282 C 0.76448 0.5894 0.42877 0.0
C1283 C 0.76564 0.57527 0.43958 0.0
H1284 H 0.77008 0.61754 0.43036 0.0
H1285 H 0.78289 0.47804 0.52617 0.0
H1286 H 0.18534 0.70722 0.92532 0.0
H1287 H 0.21063 0.72819 0.94856 0.0
H1288 H 0.1728 0.7375 0.98707 0.0
H1289 H 0.14719 0.71641 0.96344 0.0
H1290 H 0.19857 0.76851 0.97099 0.0
H1291 H 0.20151 0.72379 0.01286 0.0
H1292 H 0.1999 0.69435 0.02248 0.0
H1293 H 0.24675 0.708 0.98169 0.0
H1294 H 0.24849 0.73738 0.97151 0.0
H1295 H 0.28731 0.84563 0.96684 0.0
H1296 H 0.26392 0.82066 0.98933 0.0
H1297 H 0.26483 0.78027 0.94638 0.0
H1298 H 0.28826 0.80493 0.92421 0.0
H1299 H 0.2558 0.76676 0.98798 0.0
H1300 H 0.23729 0.80008 0.93445 0.0
H1301 H 0.2381 0.82867 0.92219 0.0
H1302 H 0.21982 0.83508 0.98507 0.0
H1303 H 0.21907 0.80658 0.99769 0.0
C1304 C 0.18227 0.71331 0.93909 0.0
C1305 C 0.16437 0.71048 0.9423 0.0
C1306 C 0.19674 0.72513 0.95264 0.0
C1307 C 0.19367 0.73441 0.96973 0.0
C1308 C 0.17548 0.73041 0.97409 0.0
C1309 C 0.16088 0.7184 0.96054 0.0
C1310 C 0.20986 0.75097 0.97914 0.0
C1311 C 0.2109 0.7681 0.97572 0.0
C1312 C 0.22599 0.75058 0.98546 0.0
C1313 C 0.22517 0.73291 0.9915 0.0
C1314 C 0.21144 0.72051 0.00586 0.0
C1315 C 0.2105 0.70381 0.01142 0.0
C1316 C 0.22323 0.69932 0.00273 0.0
C1317 C 0.23693 0.71153 0.98847 0.0
C1318 C 0.23794 0.72825 0.98285 0.0
C1319 C 0.28296 0.83142 0.96261 0.0
C1320 C 0.28924 0.82723 0.94339 0.0
C1321 C 0.26962 0.81718 0.97552 0.0
C1322 C 0.26238 0.79862 0.9693 0.0
C1323 C 0.27017 0.79448 0.9515 0.0
C1324 C 0.28344 0.80864 0.93865 0.0
C1325 C 0.24447 0.78373 0.97786 0.0
C1326 C 0.24319 0.76707 0.9847 0.0
C1327 C 0.22803 0.78444 0.97465 0.0
C1328 C 0.22831 0.8014 0.96704 0.0
C1329 C 0.23349 0.80764 0.94563 0.0
C1330 C 0.23395 0.82382 0.93864 0.0
C1331 C 0.22906 0.83372 0.95287 0.0
C1332 C 0.22365 0.82743 0.9741 0.0
C1333 C 0.22321 0.81128 0.98118 0.0
H1334 H 0.22942 0.84624 0.94743 0.0
H1335 H 0.22248 0.68638 0.00705 0.0
H1336 H 0.47981 0.18691 0.43152 0.0
H1337 H 0.47878 0.20921 0.4558 0.0
H1338 H 0.42689 0.16648 0.48218 0.0
H1339 H 0.42778 0.14392 0.45741 0.0
H1340 H 0.42267 0.19259 0.46576 0.0
H1341 H 0.46375 0.19403 0.51749 0.0
H1342 H 0.49042 0.19306 0.53321 0.0
H1343 H 0.52774 0.244 0.5011 0.0
H1344 H 0.50137 0.24517 0.48487 0.0
H1345 H 0.42921 0.27917 0.46457 0.0
H1346 H 0.42892 0.2549 0.48728 0.0
H1347 H 0.47723 0.26144 0.45369 0.0
H1348 H 0.47772 0.28565 0.43128 0.0
H1349 H 0.47581 0.24947 0.49596 0.0
H1350 H 0.43333 0.23351 0.43165 0.0
H1351 H 0.40719 0.23393 0.41336 0.0
H1352 H 0.37314 0.20958 0.46964 0.0
H1353 H 0.39918 0.20918 0.48827 0.0
C1354 C 0.46843 0.18209 0.44292 0.0
C1355 C 0.45368 0.16377 0.44224 0.0
C1356 C 0.46798 0.19484 0.45711 0.0
C1357 C 0.45277 0.18957 0.47097 0.0
C1358 C 0.43881 0.17086 0.47172 0.0
C1359 C 0.43931 0.15799 0.45753 0.0
C1360 C 0.44978 0.20429 0.48027 0.0
C1361 C 0.43397 0.20473 0.47334 0.0
C1362 C 0.46438 0.22017 0.49029 0.0
C1363 C 0.48048 0.21972 0.50002 0.0
C1364 C 0.47763 0.20501 0.51369 0.0
C1365 C 0.49272 0.20442 0.5227 0.0
C1366 C 0.51076 0.21848 0.51819 0.0
C1367 C 0.51375 0.23316 0.50465 0.0
C1368 C 0.49872 0.23382 0.49559 0.0
C1369 C 0.44015 0.27588 0.46258 0.0
C1370 C 0.45321 0.28395 0.44576 0.0
C1371 C 0.43998 0.26203 0.47561 0.0
C1372 C 0.45286 0.25614 0.47192 0.0
C1373 C 0.46713 0.26572 0.45683 0.0
C1374 C 0.46727 0.27944 0.44382 0.0
C1375 C 0.44955 0.23792 0.47966 0.0
C1376 C 0.46409 0.23689 0.4898 0.0
C1377 C 0.43381 0.22141 0.47259 0.0
C1378 C 0.41817 0.22149 0.46138 0.0
C1379 C 0.42026 0.2283 0.44009 0.0
C1380 C 0.40549 0.22854 0.42969 0.0
C1381 C 0.38853 0.22183 0.44035 0.0
C1382 C 0.3863 0.21481 0.46142 0.0
C1383 C 0.40105 0.21458 0.47191 0.0
H1384 H 0.3771 0.22203 0.43228 0.0
H1385 H 0.52242 0.21799 0.52517 0.0
H1386 H 0.28895 0.47946 0.92505 0.0
H1387 H 0.26803 0.48239 0.94997 0.0
H1388 H 0.25873 0.43308 0.98367 0.0
H1389 H 0.27987 0.43007 0.95848 0.0
H1390 H 0.22754 0.42931 0.96827 0.0
H1391 H 0.27293 0.47303 0.01355 0.0
H1392 H 0.30276 0.49973 0.02461 0.0
H1393 H 0.28985 0.53643 0.98978 0.0
H1394 H 0.26008 0.50998 0.97818 0.0
H1395 H 0.15188 0.44216 0.96813 0.0
H1396 H 0.1758 0.44182 0.99088 0.0
H1397 H 0.21801 0.4871 0.95363 0.0
H1398 H 0.19439 0.48782 0.93141 0.0
H1399 H 0.23061 0.48712 0.99402 0.0
H1400 H 0.19745 0.44027 0.93488 0.0
H1401 H 0.16871 0.41412 0.92014 0.0
H1402 H 0.16011 0.38423 0.97978 0.0
H1403 H 0.18876 0.41032 0.99488 0.0
C1404 C 0.28286 0.46951 0.93812 0.0
C1405 C 0.28577 0.45436 0.93959 0.0
C1406 C 0.27108 0.47134 0.95262 0.0
C1407 C 0.26187 0.45802 0.96886 0.0
C1408 C 0.26581 0.4436 0.97138 0.0
C1409 C 0.27784 0.44187 0.95695 0.0
C1410 C 0.24549 0.45723 0.9794 0.0
C1411 C 0.2282 0.4417 0.97488 0.0
C1412 C 0.24626 0.4733 0.98812 0.0
C1413 C 0.26415 0.48944 0.99507 0.0
C1414 C 0.27645 0.48678 0.00817 0.0
C1415 C 0.29338 0.50189 0.01453 0.0
C1416 C 0.29818 0.51976 0.00793 0.0
C1417 C 0.28608 0.52257 0.99494 0.0
C1418 C 0.26913 0.50752 0.98853 0.0
C1419 C 0.16623 0.45252 0.96538 0.0
C1420 C 0.17132 0.46463 0.94754 0.0
C1421 C 0.17989 0.4523 0.97841 0.0
C1422 C 0.19872 0.46409 0.97358 0.0
C1423 C 0.2036 0.47776 0.95762 0.0
C1424 C 0.19004 0.47803 0.94471 0.0
C1425 C 0.21316 0.45987 0.98091 0.0
C1426 C 0.22997 0.47438 0.98884 0.0
C1427 C 0.21208 0.44292 0.97513 0.0
C1428 C 0.19505 0.42723 0.96604 0.0
C1429 C 0.18938 0.42811 0.94482 0.0
C1430 C 0.17312 0.41333 0.93642 0.0
C1431 C 0.16257 0.39754 0.94904 0.0
C1432 C 0.16828 0.39649 0.97005 0.0
C1433 C 0.18451 0.41126 0.97854 0.0
H1434 H 0.14998 0.38611 0.94252 0.0
H1435 H 0.3113 0.53144 0.01287 0.0
H1436 H 0.72754 0.1556 0.44917 0.0
H1437 H 0.75131 0.18372 0.46683 0.0
H1438 H 0.71874 0.21003 0.45526 0.0
H1439 H 0.69555 0.18225 0.43645 0.0
H1440 H 0.74908 0.22727 0.43495 0.0
H1441 H 0.73478 0.20678 0.50773 0.0
H1442 H 0.72701 0.1856 0.53884 0.0
H1443 H 0.77904 0.18715 0.53232 0.0
H1444 H 0.78703 0.20813 0.50095 0.0
H1445 H 0.82687 0.30991 0.44262 0.0
H1446 H 0.799 0.28695 0.46155 0.0
H1447 H 0.82059 0.24952 0.46299 0.0
H1448 H 0.84892 0.27291 0.44507 0.0
H1449 H 0.7934 0.24109 0.49539 0.0
H1450 H 0.80152 0.25214 0.41715 0.0
H1451 H 0.80977 0.27217 0.38479 0.0
H1452 H 0.76846 0.28648 0.4014 0.0
H1453 H 0.76015 0.26669 0.43402 0.0
C1454 C 0.72514 0.16713 0.45125 0.0
C1455 C 0.70995 0.16698 0.44127 0.0
C1456 C 0.73869 0.18321 0.46149 0.0
C1457 C 0.73693 0.19912 0.46225 0.0
C1458 C 0.72049 0.198 0.45472 0.0
C1459 C 0.70724 0.18215 0.44399 0.0
C1460 C 0.75362 0.2176 0.46558 0.0
C1461 C 0.75837 0.23045 0.44866 0.0
C1462 C 0.76618 0.22162 0.48298 0.0
C1463 C 0.76147 0.20899 0.50188 0.0
C1464 C 0.74452 0.2025 0.51281 0.0
C1465 C 0.74008 0.19055 0.53052 0.0
C1466 C 0.75251 0.18502 0.53754 0.0
C1467 C 0.76942 0.19146 0.52687 0.0
C1468 C 0.77393 0.20341 0.50914 0.0
C1469 C 0.82606 0.29718 0.44812 0.0
C1470 C 0.8398 0.29297 0.44229 0.0
C1471 C 0.81017 0.28408 0.45894 0.0
C1472 C 0.80754 0.26636 0.4631 0.0
C1473 C 0.82233 0.26309 0.45987 0.0
C1474 C 0.83848 0.27642 0.44956 0.0
C1475 C 0.78849 0.25037 0.46484 0.0
C1476 C 0.78356 0.238 0.48234 0.0
C1477 C 0.77564 0.24652 0.44788 0.0
C1478 C 0.78038 0.25814 0.4281 0.0
C1479 C 0.79427 0.25963 0.41393 0.0
C1480 C 0.79895 0.27093 0.39556 0.0
C1481 C 0.78969 0.28064 0.39108 0.0
C1482 C 0.77566 0.27899 0.40492 0.0
C1483 C 0.77095 0.26774 0.42334 0.0
H1484 H 0.79335 0.2894 0.37687 0.0
H1485 H 0.74905 0.17576 0.55125 0.0
H1486 H 0.51885 0.7082 0.92379 0.0
H1487 H 0.52163 0.73345 0.9461 0.0
H1488 H 0.5707 0.73859 0.97623 0.0
H1489 H 0.56813 0.71328 0.95349 0.0
H1490 H 0.52556 0.7469 0.98741 0.0
H1491 H 0.60178 0.78378 0.97612 0.0
H1492 H 0.62645 0.78152 0.95657 0.0
H1493 H 0.59029 0.7572 0.90189 0.0
H1494 H 0.56551 0.75948 0.92111 0.0
H1495 H 0.57562 0.85202 0.94678 0.0
H1496 H 0.57663 0.82903 0.97076 0.0
H1497 H 0.52357 0.78721 0.94599 0.0
H1498 H 0.52246 0.80991 0.92244 0.0
H1499 H 0.57906 0.80159 0.95401 0.0
H1500 H 0.50055 0.75229 0.97663 0.0
H1501 H 0.47535 0.75522 0.99341 0.0
H1502 H 0.51507 0.80624 0.02354 0.0
H1503 H 0.54058 0.80351 0.00725 0.0
C1504 C 0.52995 0.71432 0.93558 0.0
C1505 C 0.54357 0.70913 0.93645 0.0
C1506 C 0.53142 0.72866 0.94855 0.0
C1507 C 0.54659 0.73817 0.96254 0.0
C1508 C 0.559 0.73156 0.96536 0.0
C1509 C 0.55751 0.7171 0.95234 0.0
C1510 C 0.55111 0.75691 0.96988 0.0
C1511 C 0.5374 0.75901 0.98055 0.0
C1512 C 0.56701 0.77281 0.96186 0.0
C1513 C 0.58183 0.77163 0.95009 0.0
C1514 C 0.59916 0.77799 0.95991 0.0
C1515 C 0.61314 0.7767 0.9489 0.0
C1516 C 0.60992 0.76917 0.92802 0.0
C1517 C 0.59275 0.76299 0.91807 0.0
C1518 C 0.57875 0.7643 0.929 0.0
C1519 C 0.56392 0.83804 0.94704 0.0
C1520 C 0.54911 0.83265 0.93248 0.0
C1521 C 0.5645 0.82494 0.96077 0.0
C1522 C 0.55012 0.80639 0.96036 0.0
C1523 C 0.53467 0.80146 0.94706 0.0
C1524 C 0.53417 0.81443 0.93329 0.0
C1525 C 0.55261 0.79137 0.96974 0.0
C1526 C 0.56772 0.78993 0.96225 0.0
C1527 C 0.53794 0.77614 0.98061 0.0
C1528 C 0.52255 0.77764 0.99074 0.0
C1529 C 0.50397 0.76404 0.98703 0.0
C1530 C 0.4896 0.7657 0.9964 0.0
C1531 C 0.4936 0.7809 0.00954 0.0
C1532 C 0.51199 0.79447 0.01334 0.0
C1533 C 0.52641 0.79289 0.00402 0.0
H1534 H 0.48245 0.78216 0.01677 0.0
H1535 H 0.62074 0.76815 0.91955 0.0
H1536 H 0.30409 0.91959 0.9752 0.0
H1537 H 0.31753 0.94806 0.99658 0.0
H1538 H 0.37229 0.95688 0.98421 0.0
H1539 H 0.35899 0.92833 0.96305 0.0
H1540 H 0.36902 0.96655 0.0254 0.0
H1541 H 0.35514 0.97772 0.95293 0.0
H1542 H 0.33507 0.97241 0.92119 0.0
H1543 H 0.29965 0.98474 0.95964 0.0
H1544 H 0.31938 0.98987 0.9917 0.0
H1545 H 0.42392 0.06307 0.04034 0.0
H1546 H 0.40815 0.03247 0.02346 0.0
H1547 H 0.35521 0.02692 0.03929 0.0
H1548 H 0.37084 0.05757 0.05613 0.0
H1549 H 0.35619 0.01501 -0.00199 0.0
H1550 H 0.37145 0.00569 0.07013 0.0
H1551 H 0.39201 0.0114 0.10146 0.0
H1552 H 0.42529 0.99595 0.06341 0.0
H1553 H 0.40507 0.99041 0.03173 0.0
C1554 C 0.31897 0.92741 0.97733 0.0
C1555 C 0.3305 0.92185 0.96718 0.0
C1556 C 0.32662 0.9437 0.98948 0.0
C1557 C 0.3459 0.95473 0.99158 0.0
C1558 C 0.35737 0.9486 0.98266 0.0
C1559 C 0.34974 0.9323 0.97054 0.0
C1560 C 0.35423 0.97322 0.00177 0.0
C1561 C 0.36634 0.9772 0.01933 0.0
C1562 C 0.35045 0.98698 0.99403 0.0
C1563 C 0.33861 0.98397 0.97476 0.0
C1564 C 0.34298 0.97915 0.95465 0.0
C1565 C 0.33169 0.9762 0.9366 0.0
C1566 C 0.31606 0.97818 0.93841 0.0
C1567 C 0.31173 0.98317 0.95827 0.0
C1568 C 0.32297 0.98612 0.97639 0.0
C1569 C 0.40892 0.05543 0.04005 0.0
C1570 C 0.39862 0.06268 0.0497 0.0
C1571 C 0.39995 0.03792 0.03052 0.0
C1572 C 0.38055 0.02736 0.03048 0.0
C1573 C 0.37021 0.03484 0.03929 0.0
C1574 C 0.37917 0.05234 0.04891 0.0
C1575 C 0.37106 0.00837 0.02155 0.0
C1576 C 0.35875 0.00432 0.0042 0.0
C1577 C 0.37471 0.99458 0.02944 0.0
C1578 C 0.38684 0.9978 0.0485 0.0
C1579 C 0.38324 0.00365 0.06839 0.0
C1580 C 0.39481 0.00683 0.08622 0.0
C1581 C 0.40997 0.00408 0.08441 0.0
C1582 C 0.41355 0.9981 0.06478 0.0
C1583 C 0.40203 0.99492 0.04688 0.0
H1584 H 0.41891 0.00655 0.09824 0.0
H1585 H 0.30734 0.97589 0.92441 0.0
H1586 H 0.42216 0.35223 0.46171 0.0
H1587 H 0.4086 0.36813 0.48108 0.0
H1588 H 0.35381 0.32386 0.46499 0.0
H1589 H 0.36725 0.30799 0.44529 0.0
H1590 H 0.35747 0.35686 0.45587 0.0
H1591 H 0.37031 0.32924 0.51654 0.0
H1592 H 0.38934 0.32147 0.54013 0.0
H1593 H 0.42599 0.37921 0.55302 0.0
H1594 H 0.40731 0.38735 0.52926 0.0
H1595 H 0.30756 0.38326 0.52776 0.0
H1596 H 0.32097 0.36746 0.50781 0.0
H1597 H 0.37587 0.41262 0.5215 0.0
H1598 H 0.36261 0.42849 0.5416 0.0
H1599 H 0.37202 0.37912 0.53185 0.0
H1600 H 0.3587 0.40649 0.47102 0.0
H1601 H 0.33924 0.41384 0.44765 0.0
H1602 H 0.30289 0.35594 0.43542 0.0
H1603 H 0.322 0.34821 0.45897 0.0
C1604 C 0.40722 0.34575 0.46253 0.0
C1605 C 0.39578 0.32888 0.4519 0.0
C1606 C 0.39949 0.35484 0.47365 0.0
C1607 C 0.3802 0.34714 0.47451 0.0
C1608 C 0.36874 0.33006 0.46444 0.0
C1609 C 0.37645 0.32098 0.45327 0.0
C1610 C 0.372 0.35734 0.48501 0.0
C1611 C 0.36042 0.3615 0.47259 0.0
C1612 C 0.37624 0.36376 0.50663 0.0
C1613 C 0.38751 0.35891 0.52095 0.0
C1614 C 0.38251 0.34029 0.52426 0.0
C1615 C 0.39322 0.33582 0.53769 0.0
C1616 C 0.40889 0.34984 0.54802 0.0
C1617 C 0.41386 0.36836 0.54498 0.0
C1618 C 0.40321 0.37291 0.53155 0.0
C1619 C 0.32248 0.38996 0.52627 0.0
C1620 C 0.33403 0.40708 0.53636 0.0
C1621 C 0.33012 0.38093 0.51483 0.0
C1622 C 0.3494 0.3889 0.5132 0.0
C1623 C 0.36094 0.40624 0.52265 0.0
C1624 C 0.35334 0.41531 0.53405 0.0
C1625 C 0.35754 0.37866 0.5027 0.0
C1626 C 0.36908 0.37448 0.51513 0.0
C1627 C 0.3532 0.37216 0.48112 0.0
C1628 C 0.34169 0.37677 0.46694 0.0
C1629 C 0.34647 0.39531 0.4635 0.0
C1630 C 0.33552 0.39955 0.45019 0.0
C1631 C 0.31981 0.38536 0.4401 0.0
C1632 C 0.31505 0.36691 0.44327 0.0
C1633 C 0.32594 0.3626 0.45658 0.0
H1634 H 0.31135 0.38867 0.4298 0.0
H1635 H 0.41716 0.34635 0.55842 0.0
H1636 H 0.06813 0.43216 0.95582 0.0
H1637 H 0.03876 0.41679 0.97541 0.0
H1638 H 0.04678 0.37053 0.98907 0.0
H1639 H 0.07606 0.38567 0.96923 0.0
H1640 H 0.01305 0.35926 0.9725 0.0
H1641 H 0.05068 0.40053 0.02898 0.0
H1642 H 0.07275 0.43066 0.04522 0.0
H1643 H 0.03523 0.45074 0.03253 0.0
H1644 H 0.01303 0.42079 0.01594 0.0
H1645 H 0.94139 0.31303 0.04991 0.0
H1646 H 0.9706 0.32923 0.03016 0.0
H1647 H 0.96053 0.37422 0.01669 0.0
H1648 H 0.93131 0.35818 0.03669 0.0
H1649 H 0.99498 0.38652 0.03263 0.0
H1650 H 0.95715 0.34505 0.97666 0.0
H1651 H 0.93507 0.31488 0.9605 0.0
H1652 H 0.97301 0.29516 0.97227 0.0
H1653 H 0.99522 0.32514 0.98878 0.0
C1654 C 0.06379 0.41883 0.96326 0.0
C1655 C 0.07438 0.41008 0.96088 0.0
C1656 C 0.04701 0.41009 0.97449 0.0
C1657 C 0.04061 0.39254 0.98371 0.0
C1658 C 0.05145 0.38405 0.98199 0.0
C1659 C 0.06821 0.39276 0.97073 0.0
C1660 C 0.02214 0.38256 0.99405 0.0
C1661 C 0.00918 0.36509 0.98587 0.0
C1662 C 0.01695 0.39045 0.01102 0.0
C1663 C 0.03027 0.40847 0.02102 0.0
C1664 C 0.0472 0.41142 0.02948 0.0
C1665 C 0.05972 0.42845 0.03879 0.0
C1666 C 0.05542 0.44262 0.03986 0.0
C1667 C 0.03856 0.43976 0.03167 0.0
C1668 C 0.02599 0.42275 0.02233 0.0
C1669 C 0.94525 0.32626 0.04254 0.0
C1670 C 0.93406 0.33435 0.04492 0.0
C1671 C 0.96194 0.33548 0.03119 0.0
C1672 C 0.96768 0.35288 0.0219 0.0
C1673 C 0.95633 0.3608 0.02379 0.0
C1674 C 0.93962 0.35158 0.03513 0.0
C1675 C 0.98595 0.36318 0.01116 0.0
C1676 C -0.00114 0.3807 0.01924 0.0
C1677 C 0.9911 0.35534 0.99409 0.0
C1678 C 0.97778 0.33729 0.98414 0.0
C1679 C 0.96072 0.33423 0.97597 0.0
C1680 C 0.94819 0.31717 0.96671 0.0
C1681 C 0.95261 0.3031 0.9654 0.0
C1682 C 0.96959 0.30607 0.97331 0.0
C1683 C 0.98217 0.3231 0.9826 0.0
H1684 H 0.9429 0.2899 0.95823 0.0
H1685 H 0.06513 0.4558 0.04707 0.0
H1686 H 0.66334 0.04219 0.42844 0.0
H1687 H 0.64307 0.01478 0.44982 0.0
H1688 H 0.6244 0.04641 0.48653 0.0
H1689 H 0.64477 0.07403 0.46527 0.0
H1690 H 0.63124 0.02345 0.51223 0.0
H1691 H 0.59755 0.01878 0.44731 0.0
H1692 H 0.59291 0.01873 0.4078 0.0
H1693 H 0.60104 0.97205 0.40079 0.0
H1694 H 0.60601 0.97199 0.44024 0.0
H1695 H 0.55671 0.94511 0.56083 0.0
H1696 H 0.57294 0.973 0.53861 0.0
H1697 H 0.59329 0.94538 0.49719 0.0
H1698 H 0.57688 0.91733 0.5191 0.0
H1699 H 0.58401 0.96708 0.47401 0.0
H1700 H 0.61984 0.97296 0.53794 0.0
H1701 H 0.62527 0.97305 0.57727 0.0
H1702 H 0.61381 0.01744 0.58594 0.0
H1703 H 0.60805 0.01744 0.54666 0.0
C1704 C 0.65505 0.04339 0.44118 0.0
C1705 C 0.65556 0.06025 0.44507 0.0
C1706 C 0.64341 0.02769 0.45329 0.0
C1707 C 0.63202 0.02853 0.46946 0.0
C1708 C 0.63302 0.04549 0.474 0.0
C1709 C 0.64465 0.06123 0.46185 0.0
C1710 C 0.61891 0.0116 0.48138 0.0
C1711 C 0.6207 0.01122 0.50394 0.0
C1712 C 0.60542 0.99557 0.47043 0.0
C1713 C 0.60231 0.99548 0.44672 0.0
C1714 C 0.59849 0.00859 0.43733 0.0
C1715 C 0.59577 0.00857 0.41495 0.0
C1716 C 0.59672 0.99542 0.40179 0.0
C1717 C 0.60033 0.98224 0.411 0.0
C1718 C 0.60308 0.98221 0.43337 0.0
C1719 C 0.56441 0.94486 0.5468 0.0
C1720 C 0.56572 0.92909 0.54188 0.0
C1721 C 0.57372 0.96083 0.53418 0.0
C1722 C 0.58461 0.96134 0.51655 0.0
C1723 C 0.58503 0.94528 0.51082 0.0
C1724 C 0.57567 0.92928 0.52338 0.0
C1725 C 0.59643 0.97887 0.50485 0.0
C1726 C 0.59443 0.97936 0.48232 0.0
C1727 C 0.60978 0.99499 0.51581 0.0
C1728 C 0.61331 0.99506 0.53941 0.0
C1729 C 0.61833 0.98264 0.54826 0.0
C1730 C 0.62149 0.98269 0.57053 0.0
C1731 C 0.61983 0.9952 0.5841 0.0
C1732 C 0.61505 0.00773 0.57541 0.0
C1733 C 0.61185 0.00772 0.55314 0.0
H1734 H 0.62229 0.99522 0.60135 0.0
H1735 H 0.59461 0.99543 0.38446 0.0
H1736 H 0.64259 0.56895 0.03321 0.0
H1737 H 0.62977 0.58115 0.00642 0.0
H1738 H 0.64065 0.62623 0.04954 0.0
H1739 H 0.65368 0.61432 0.07623 0.0
H1740 H 0.60096 0.58752 0.00749 0.0
H1741 H 0.65466 0.66516 0.01979 0.0
H1742 H 0.68731 0.68468 0.03075 0.0
H1743 H 0.69919 0.64279 0.00902 0.0
H1744 H 0.66668 0.62314 0.99767 0.0
H1745 H 0.5699 0.6445 0.95864 0.0
H1746 H 0.58179 0.63033 0.98398 0.0
H1747 H 0.62737 0.6434 0.94068 0.0
H1748 H 0.6158 0.65783 0.9155 0.0
H1749 H 0.63931 0.65204 0.981 0.0
H1750 H 0.59083 0.59939 0.94446 0.0
H1751 H 0.55909 0.57905 0.931 0.0
H1752 H 0.53847 0.56925 0.99633 0.0
H1753 H 0.57008 0.58975 0.01017 0.0
C1754 C 0.64222 0.58144 0.03699 0.0
C1755 C 0.64928 0.59075 0.05676 0.0
C1756 C 0.63484 0.58835 0.02172 0.0
C1757 C 0.63446 0.60469 0.02593 0.0
C1758 C 0.64107 0.61375 0.04585 0.0
C1759 C 0.64848 0.60689 0.0611 0.0
C1760 C 0.62749 0.61252 0.00935 0.0
C1761 C 0.60932 0.60162 0.00168 0.0
C1762 C 0.63854 0.63081 0.00154 0.0
C1763 C 0.65818 0.64261 0.00809 0.0
C1764 C 0.66426 0.66015 0.01728 0.0
C1765 C 0.68274 0.67123 0.02357 0.0
C1766 C 0.6953 0.66495 0.02065 0.0
C1767 C 0.68942 0.6476 0.01136 0.0
C1768 C 0.67097 0.63648 0.00502 0.0
C1769 C 0.58244 0.64434 0.95452 0.0
C1770 C 0.59191 0.65228 0.93507 0.0
C1771 C 0.58917 0.63617 0.96896 0.0
C1772 C 0.60536 0.63567 0.9641 0.0
C1773 C 0.61485 0.64365 0.94474 0.0
C1774 C 0.60819 0.65186 0.93035 0.0
C1775 C 0.61267 0.62714 0.97932 0.0
C1776 C 0.63091 0.63794 0.9868 0.0
C1777 C 0.6018 0.60865 0.98659 0.0
C1778 C 0.5828 0.59625 0.97833 0.0
C1779 C 0.57951 0.59301 0.95594 0.0
C1780 C 0.56155 0.58143 0.94825 0.0
C1781 C 0.54677 0.5729 0.9628 0.0
C1782 C 0.54993 0.57589 0.98508 0.0
C1783 C 0.56787 0.58747 0.99286 0.0
H1784 H 0.53287 0.56394 0.95681 0.0
H1785 H 0.7096 0.67355 0.02555 0.0
H1786 H 0.07882 0.65804 0.52722 0.0
H1787 H 0.05359 0.64692 0.50089 0.0
H1788 H 0.01701 0.60526 0.54632 0.0
H1789 H 0.04226 0.61602 0.57257 0.0
H1790 H 0.01077 0.5918 0.50567 0.0
H1791 H 0.01727 0.64606 0.54147 0.0
H1792 H 0.03405 0.67853 0.55386 0.0
H1793 H 0.04663 0.69714 0.48784 0.0
H1794 H 0.03012 0.66475 0.47508 0.0
H1795 H 0.92476 0.57449 0.46206 0.0
H1796 H 0.9513 0.58329 0.48594 0.0
H1797 H 0.98707 0.6245 0.4396 0.0
H1798 H 0.96061 0.61602 0.4158 0.0
H1799 H 0.99407 0.63799 0.48002 0.0
H1800 H 0.98631 0.58338 0.4442 0.0
H1801 H 0.96892 0.55084 0.43216 0.0
H1802 H 0.95814 0.53272 0.49847 0.0
H1803 H 0.97524 0.56518 0.5109 0.0
C1804 C 0.06547 0.64636 0.53151 0.0
C1805 C 0.06246 0.63805 0.55207 0.0
C1806 C 0.05106 0.64007 0.51647 0.0
C1807 C 0.03335 0.62552 0.52184 0.0
C1808 C 0.03056 0.61657 0.54191 0.0
C1809 C 0.045 0.62277 0.5569 0.0
C1810 C 0.0175 0.62031 0.50706 0.0
C1811 C 0.007 0.60184 0.50021 0.0
C1812 C 0.01278 0.6335 0.4997 0.0
C1813 C 0.02263 0.65298 0.50734 0.0
C1814 C 0.02373 0.65707 0.52961 0.0
C1815 C 0.03318 0.67546 0.53669 0.0
C1816 C 0.04145 0.68988 0.52165 0.0
C1817 C 0.04024 0.68595 0.49948 0.0
C1818 C 0.03084 0.66758 0.49231 0.0
C1819 C 0.93827 0.58546 0.45698 0.0
C1820 C 0.9406 0.59453 0.43702 0.0
C1821 C 0.95343 0.59039 0.47058 0.0
C1822 C 0.97118 0.60436 0.46437 0.0
C1823 C 0.97349 0.61364 0.44464 0.0
C1824 C 0.95835 0.60876 0.43106 0.0
C1825 C 0.98735 0.60949 0.47856 0.0
C1826 C 0.99789 0.62795 0.48537 0.0
C1827 C 0.99204 0.59627 0.4859 0.0
C1828 C 0.98192 0.57673 0.47847 0.0
C1829 C 0.98012 0.57246 0.45621 0.0
C1830 C 0.97033 0.55403 0.44932 0.0
C1831 C 0.96239 0.53972 0.46454 0.0
C1832 C 0.96428 0.54382 0.48669 0.0
C1833 C 0.97404 0.56223 0.49367 0.0
H1834 H 0.95481 0.52546 0.45917 0.0
H1835 H 0.04875 0.70411 0.52717 0.0
H1836 H 0.60632 0.96113 0.90634 0.0
H1837 H 0.61925 0.98612 0.93291 0.0
H1838 H 0.5994 0.94606 0.98488 0.0
H1839 H 0.58594 0.9209 0.95831 0.0
H1840 H 0.59295 0.97324 0.99382 0.0
H1841 H 0.64546 0.96939 0.96977 0.0
H1842 H 0.66708 0.96841 0.94323 0.0
H1843 H 0.68137 0.02261 0.92041 0.0
H1844 H 0.65964 0.02381 0.94663 0.0
H1845 H 0.64941 0.03438 0.07697 0.0
H1846 H 0.63604 0.00954 0.05013 0.0
H1847 H 0.64865 0.04968 -0.0007 0.0
H1848 H 0.66202 0.07472 0.0261 0.0
H1849 H 0.65891 0.0227 0.98998 0.0
H1850 H 0.60603 0.02601 0.01525 0.0
H1851 H 0.585 0.02655 0.04298 0.0
H1852 H 0.57219 0.97254 0.06492 0.0
H1853 H 0.59337 0.97179 0.03751 0.0
C1854 C 0.60471 0.95761 0.92342 0.0
C1855 C 0.59519 0.93904 0.93025 0.0
C1856 C 0.61218 0.97192 0.93859 0.0
C1857 C 0.61056 0.96795 0.96086 0.0
C1858 C 0.60086 0.94942 0.96775 0.0
C1859 C 0.59321 0.93508 0.95257 0.0
C1860 C 0.61885 0.98316 0.97693 0.0
C1861 C 0.60743 0.9839 0.99315 0.0
C1862 C 0.63768 0.99727 0.9758 0.0
C1863 C 0.65078 0.99661 0.96002 0.0
C1864 C 0.6531 0.98104 0.95897 0.0
C1865 C 0.6654 0.98046 0.94401 0.0
C1866 C 0.67556 0.99542 0.93011 0.0
C1867 C 0.67348 0.01102 0.93117 0.0
C1868 C 0.66118 0.01167 0.9461 0.0
C1869 C 0.64937 0.03796 0.06008 0.0
C1870 C 0.65674 0.0565 0.05363 0.0
C1871 C 0.64167 0.02374 0.04481 0.0
C1872 C 0.64126 0.02782 0.02283 0.0
C1873 C 0.64883 0.04631 0.01624 0.0
C1874 C 0.6564 0.06056 0.03156 0.0
C1875 C 0.63299 0.01272 0.00674 0.0
C1876 C 0.64443 0.01201 0.99057 0.0
C1877 C 0.61425 0.99854 0.00805 0.0
C1878 C 0.60143 0.99892 0.02446 0.0
C1879 C 0.59885 0.01431 0.02611 0.0
C1880 C 0.58688 0.01465 0.04175 0.0
C1881 C 0.5773 -0.00039 0.05574 0.0
C1882 C 0.57963 0.98419 0.05408 0.0
C1883 C 0.59161 0.98379 0.03849 0.0
H1884 H 0.56804 -0.0001 0.06784 0.0
H1885 H 0.68507 0.99495 0.91854 0.0
H1886 H 0.69224 0.62064 0.46089 0.0
H1887 H 0.67826 0.63619 0.48017 0.0
H1888 H 0.62476 0.58661 0.47622 0.0
H1889 H 0.63858 0.57096 0.45676 0.0
H1890 H 0.6237 0.61704 0.4625 0.0
H1891 H 0.64707 0.59985 0.52401 0.0
H1892 H 0.67068 0.5977 0.54589 0.0
H1893 H 0.70319 0.65702 0.54868 0.0
H1894 H 0.67988 0.65953 0.52655 0.0
H1895 H 0.57547 0.64517 0.53419 0.0
H1896 H 0.58941 0.62939 0.51532 0.0
H1897 H 0.64329 0.67828 0.52116 0.0
H1898 H 0.62951 0.69407 0.54034 0.0
H1899 H 0.64413 0.64808 0.53397 0.0
H1900 H 0.62122 0.66551 0.47242 0.0
H1901 H 0.59794 0.668 0.45026 0.0
H1902 H 0.565 0.60873 0.44715 0.0
H1903 H 0.58797 0.60588 0.46955 0.0
C1904 C 0.67754 0.61295 0.46437 0.0
C1905 C 0.6665 0.59459 0.45721 0.0
C1906 C 0.66959 0.62185 0.47543 0.0
C1907 C 0.65049 0.61252 0.47963 0.0
C1908 C 0.63952 0.59404 0.47307 0.0
C1909 C 0.64746 0.58511 0.46204 0.0
C1910 C 0.64181 0.62237 0.48982 0.0
C1911 C 0.62795 0.62359 0.47828 0.0
C1912 C 0.64778 0.63135 0.5101 0.0
C1913 C 0.66181 0.62988 0.52344 0.0
C1914 C 0.65933 0.61244 0.52913 0.0
C1915 C 0.67264 0.61116 0.54161 0.0
C1916 C 0.68845 0.62722 0.54862 0.0
C1917 C 0.69095 0.64459 0.54322 0.0
C1918 C 0.67768 0.64596 0.53072 0.0
C1919 C 0.59025 0.65265 0.53121 0.0
C1920 C 0.6014 0.67085 0.53882 0.0
C1921 C 0.59819 0.64362 0.52039 0.0
C1922 C 0.61738 0.65269 0.5168 0.0
C1923 C 0.62846 0.67102 0.52384 0.0
C1924 C 0.62055 0.68005 0.53471 0.0
C1925 C 0.626 0.64276 0.50665 0.0
C1926 C 0.63986 0.64152 0.5182 0.0
C1927 C 0.62007 0.63382 0.48634 0.0
C1928 C 0.60624 0.63549 0.47285 0.0
C1929 C 0.60894 0.65301 0.46716 0.0
C1930 C 0.59581 0.65448 0.45453 0.0
C1931 C 0.57997 0.63853 0.44735 0.0
C1932 C 0.57726 0.62107 0.45275 0.0
C1933 C 0.59034 0.61951 0.46539 0.0
H1934 H 0.56983 0.63971 0.43757 0.0
H1935 H 0.69874 0.62619 0.55828 0.0
H1936 H 0.92601 0.57047 0.03837 0.0
H1937 H 0.95563 0.58513 0.01919 0.0
H1938 H 0.95717 0.63759 0.02138 0.0
H1939 H 0.92748 0.62304 0.0404 0.0
H1940 H 0.96857 0.63161 0.98224 0.0
H1941 H 0.98116 0.62831 0.0578 0.0
H1942 H 0.97775 0.61267 0.09286 0.0
H1943 H 0.99649 0.57814 0.06384 0.0
H1944 H -0.00024 0.5934 0.02851 0.0
H1945 H 0.06287 0.69195 0.96141 0.0
H1946 H 0.03344 0.67623 0.98083 0.0
H1947 H 0.03381 0.62476 0.9772 0.0
H1948 H 0.06339 0.6404 0.95791 0.0
H1949 H 0.02131 0.62945 0.01662 0.0
H1950 H 0.00922 0.63305 0.94121 0.0
H1951 H 0.01261 0.64865 0.90613 0.0
H1952 H 0.99284 0.68247 0.93476 0.0
H1953 H 0.98958 0.66725 0.97012 0.0
C1954 C 0.93253 0.58508 0.03454 0.0
C1955 C 0.92448 0.59564 0.04107 0.0
C1956 C 0.94949 0.59344 0.02369 0.0
C1957 C 0.9587 0.61249 0.01923 0.0
C1958 C 0.9503 0.62288 0.02479 0.0
C1959 C 0.93335 0.61454 0.03568 0.0
C1960 C 0.97739 0.62174 0.00945 0.0
C1961 C 0.98015 0.63132 0.98986 0.0
C1962 C 0.99238 0.621 0.01922 0.0
C1963 C 0.99052 0.61187 0.04046 0.0
C1964 C 0.98441 0.61728 0.05886 0.0
C1965 C 0.98253 0.6085 0.07878 0.0
C1966 C 0.98685 0.59438 0.08056 0.0
C1967 C 0.99312 0.58905 0.06243 0.0
C1968 C 0.995 0.59777 0.04245 0.0
C1969 C 0.05685 0.67734 0.96499 0.0
C1970 C 0.06536 0.66736 0.9579 0.0
C1971 C 0.03999 0.66837 0.97601 0.0
C1972 C 0.03131 0.64928 0.98004 0.0
C1973 C 0.04026 0.63949 0.97411 0.0
C1974 C 0.05714 0.64845 0.96307 0.0
C1975 C 0.0125 0.63941 0.98949 0.0
C1976 C 0.00972 0.62971 0.00898 0.0
C1977 C 0.99748 0.64002 0.97963 0.0
C1978 C -0.00067 0.64914 0.95836 0.0
C1979 C 0.00573 0.64392 0.94007 0.0
C1980 C 0.00761 0.65267 0.92013 0.0
C1981 C 0.00299 0.66657 0.91823 0.0
C1982 C 0.99644 0.67172 0.93626 0.0
C1983 C 0.99456 0.66302 0.95625 0.0
H1984 H 0.00445 0.67333 0.90277 0.0
H1985 H 0.98539 0.5876 0.096 0.0
H1986 H 0.34642 0.92215 0.53311 0.0
H1987 H 0.36261 0.94651 0.50601 0.0
H1988 H 0.35454 0.98458 0.54559 0.0
H1989 H 0.33802 0.9603 0.57238 0.0
H1990 H 0.34712 0.98724 0.5045 0.0
H1991 H 0.39649 0.98527 0.54355 0.0
H1992 H 0.41325 0.9701 0.55772 0.0
H1993 H 0.42059 0.95605 0.49289 0.0
H1994 H 0.40366 0.97094 0.47835 0.0
H1995 H 0.41114 0.07383 0.46174 0.0
H1996 H 0.3956 0.04714 0.48585 0.0
H1997 H 0.40582 0.01398 0.44031 0.0
H1998 H 0.42173 0.04074 0.41622 0.0
H1999 H 0.41143 0.007 0.48159 0.0
H2000 H 0.36368 0.01045 0.44237 0.0
H2001 H 0.34683 0.02548 0.42806 0.0
H2002 H 0.33619 0.03641 0.49297 0.0
H2003 H 0.3532 0.02167 0.50767 0.0
C2004 C 0.34807 0.93571 0.53599 0.0
C2005 C 0.34097 0.93932 0.55489 0.0
C2006 C 0.35739 0.94962 0.52056 0.0
C2007 C 0.35996 0.96741 0.52392 0.0
C2008 C 0.3527 0.97095 0.54267 0.0
C2009 C 0.34329 0.95705 0.55799 0.0
C2010 C 0.3701 0.98245 0.50798 0.0
C2011 C 0.36125 0.99168 0.49966 0.0
C2012 C 0.38832 0.98785 0.50117 0.0
C2013 C 0.39864 0.97905 0.50989 0.0
C2014 C 0.40157 0.97883 0.53233 0.0
C2015 C 0.41111 0.9703 0.54042 0.0
C2016 C 0.41793 0.96206 0.52622 0.0
C2017 C 0.41528 0.9624 0.50388 0.0
C2018 C 0.40572 0.9709 0.4957 0.0
C2019 C 0.4102 0.0609 0.45689 0.0
C2020 C 0.41751 0.05934 0.43698 0.0
C2021 C 0.40125 0.04564 0.47065 0.0
C2022 C 0.39927 0.02851 0.46465 0.0
C2023 C 0.40714 0.02707 0.44517 0.0
C2024 C 0.41619 0.04236 0.43142 0.0
C2025 C 0.38858 0.01203 0.47854 0.0
C2026 C 0.39727 0.00249 0.48636 0.0
C2027 C 0.37018 0.0063 0.48491 0.0
C2028 C 0.35985 0.01509 0.47612 0.0
C2029 C 0.35786 0.01618 0.45359 0.0
C2030 C 0.34826 0.02462 0.44541 0.0
C2031 C 0.34048 0.03193 0.4596 0.0
C2032 C 0.34224 0.03076 0.482 0.0
C2033 C 0.35184 0.02234 0.49027 0.0
H2034 H 0.33306 0.03847 0.45323 0.0
H2035 H 0.42531 0.95545 0.53252 0.0
H2036 H 0.41152 0.33939 0.03134 0.0
H2037 H 0.39923 0.35351 0.0067 0.0
H2038 H 0.41427 0.39824 0.052 0.0
H2039 H 0.42651 0.38412 0.07691 0.0
H2040 H 0.37859 0.383 0.03877 0.0
H2041 H 0.43757 0.40652 0.00516 0.0
H2042 H 0.46407 0.40525 0.98937 0.0
H2043 H 0.42882 0.3683 0.93975 0.0
H2044 H 0.40203 0.36913 0.95542 0.0
H2045 H 0.3503 0.42949 0.96356 0.0
H2046 H 0.36894 0.42264 0.98849 0.0
H2047 H 0.35791 0.375 0.94997 0.0
H2048 H 0.33941 0.38179 0.92493 0.0
H2049 H 0.39441 0.39576 0.96072 0.0
H2050 H 0.33515 0.3696 0.99666 0.0
H2051 H 0.30835 0.37021 0.01263 0.0
H2052 H 0.3442 0.41187 0.05799 0.0
H2053 H 0.37127 0.41167 0.04208 0.0
C2054 C 0.41244 0.35235 0.03597 0.0
C2055 C 0.4199 0.36059 0.05612 0.0
C2056 C 0.40549 0.36045 0.02182 0.0
C2057 C 0.40595 0.37697 0.0275 0.0
C2058 C 0.41382 0.3855 0.04735 0.0
C2059 C 0.42084 0.37743 0.06151 0.0
C2060 C 0.39702 0.38453 0.01332 0.0
C2061 C 0.3823 0.38619 0.02181 0.0
C2062 C 0.40166 0.38829 0.99112 0.0
C2063 C 0.41775 0.38779 0.98158 0.0
C2064 C 0.43543 0.39801 0.99098 0.0
C2065 C 0.45052 0.39739 0.98203 0.0
C2066 C 0.44813 0.38667 0.96359 0.0
C2067 C 0.43065 0.37659 0.95403 0.0
C2068 C 0.41551 0.37715 0.96293 0.0
C2069 C 0.3518 0.41752 0.96045 0.0
C2070 C 0.34335 0.40615 0.94231 0.0
C2071 C 0.36243 0.41363 0.9747 0.0
C2072 C 0.36473 0.39828 0.97107 0.0
C2073 C 0.35634 0.38694 0.95298 0.0
C2074 C 0.3457 0.3908 0.93877 0.0
C2075 C 0.37581 0.3939 0.98611 0.0
C2076 C 0.3909 0.39284 0.97776 0.0
C2077 C 0.37151 0.39065 0.00844 0.0
C2078 C 0.35525 0.39078 0.01801 0.0
C2079 C 0.33734 0.37901 0.00991 0.0
C2080 C 0.32209 0.37925 0.01898 0.0
C2081 C 0.32458 0.39111 0.03627 0.0
C2082 C 0.3423 0.40272 0.04457 0.0
C2083 C 0.3576 0.40254 0.03554 0.0
H2084 H 0.31276 0.39128 0.04327 0.0
H2085 H 0.45982 0.38621 0.95668 0.0
H2086 H 0.0465 0.41978 0.5809 0.0
H2087 H 0.0207 0.40647 0.55528 0.0
H2088 H 0.05756 0.40924 0.50447 0.0
H2089 H 0.08352 0.4225 0.53003 0.0
H2090 H 0.03246 0.42084 0.49146 0.0
H2091 H 0.03231 0.3697 0.52742 0.0
H2092 H 0.03232 0.35139 0.55882 0.0
H2093 H 0.98067 0.34543 0.58049 0.0
H2094 H 0.9805 0.36396 0.54936 0.0
H2095 H 0.96778 0.3568 0.4166 0.0
H2096 H 0.99319 0.3729 0.4423 0.0
H2097 H 0.95431 0.36706 0.49213 0.0
H2098 H 0.92869 0.35087 0.46649 0.0
H2099 H 0.98003 0.35767 0.50615 0.0
H2100 H 0.97961 0.4079 0.46916 0.0
H2101 H 0.97961 0.42591 0.43744 0.0
H2102 H 0.03224 0.43339 0.4174 0.0
H2103 H 0.03244 0.41518 0.44885 0.0
C2104 C 0.04918 0.41773 0.56423 0.0
C2105 C 0.06702 0.42207 0.5575 0.0
C2106 C 0.03441 0.41007 0.54966 0.0
C2107 C 0.03725 0.40673 0.5281 0.0
C2108 C 0.05514 0.41171 0.52109 0.0
C2109 C 0.06991 0.41921 0.53571 0.0
C2110 C 0.02139 0.39745 0.5131 0.0
C2111 C 0.02107 0.40696 0.4945 0.0
C2112 C 0.00642 0.3795 0.51743 0.0
C2113 C 0.00651 0.36841 0.5362 0.0
C2114 C 0.02105 0.36465 0.539 0.0
C2115 C 0.02107 0.3542 0.55672 0.0
C2116 C 0.00654 0.3473 0.57168 0.0
C2117 C 0.99194 0.35081 0.56891 0.0
C2118 C 0.99187 0.36128 0.55123 0.0
C2119 C 0.9646 0.35893 0.43302 0.0
C2120 C 0.94623 0.35259 0.43952 0.0
C2121 C 0.97915 0.36821 0.44764 0.0
C2122 C 0.9756 0.37131 0.469 0.0
C2123 C 0.95728 0.36483 0.47566 0.0
C2124 C 0.9427 0.35563 0.46099 0.0
C2125 C 0.99106 0.38105 0.48446 0.0
C2126 C 0.99134 0.3716 0.50314 0.0
C2127 C 0.006 0.39904 0.48018 0.0
C2128 C 0.00595 0.41002 0.46126 0.0
C2129 C 0.99111 0.41325 0.45789 0.0
C2130 C 0.99109 0.42352 0.43998 0.0
C2131 C 0.00589 0.43075 0.42538 0.0
C2132 C 0.02077 0.42776 0.42871 0.0
C2133 C 0.02086 0.41748 0.44659 0.0
H2134 H 0.00585 0.4387 0.41153 0.0
H2135 H 0.00657 0.3392 0.58538 0.0
H2136 H 0.51953 0.15115 0.09431 0.0
H2137 H 0.5451 0.14579 0.08705 0.0
H2138 H 0.50672 0.09005 0.06632 0.0
H2139 H 0.48073 0.09527 0.07372 0.0
H2140 H 0.53271 0.09156 0.09498 0.0
H2141 H 0.53342 0.12031 0.02882 0.0
H2142 H 0.53209 0.14308 0.00448 0.0
H2143 H 0.5819 0.18662 0.03295 0.0
H2144 H 0.5834 0.16418 0.0577 0.0
H2145 H 0.61943 0.093 0.07817 0.0
H2146 H 0.58897 0.08905 0.06913 0.0
H2147 H 0.60675 0.1442 0.09248 0.0
H2148 H 0.63698 0.14827 0.10156 0.0
H2149 H 0.58789 0.13637 0.05302 0.0
H2150 H 0.58169 0.10791 0.12436 0.0
H2151 H 0.58269 0.08517 0.1491 0.0
H2152 H 0.54272 0.04063 0.10966 0.0
H2153 H 0.54167 0.06315 0.08452 0.0
C2154 C 0.51643 0.13775 0.08809 0.0
C2155 C 0.49805 0.12362 0.08465 0.0
C2156 C 0.53111 0.13476 0.08379 0.0
C2157 C 0.52783 0.11761 0.07586 0.0
C2158 C 0.50953 0.10343 0.07229 0.0
C2159 C 0.49473 0.10645 0.07649 0.0
C2160 C 0.5437 0.11455 0.07269 0.0
C2161 C 0.54459 0.101 0.0853 0.0
C2162 C 0.55921 0.12691 0.06012 0.0
C2163 C 0.55848 0.14053 0.04518 0.0
C2164 C 0.54404 0.13476 0.02999 0.0
C2165 C 0.54326 0.14761 0.01611 0.0
C2166 C 0.5569 0.16628 0.01718 0.0
C2167 C 0.57136 0.17214 0.03212 0.0
C2168 C 0.57219 0.15935 0.04606 0.0
C2169 C 0.61686 0.10431 0.08126 0.0
C2170 C 0.6306 0.12092 0.09071 0.0
C2171 C 0.59947 0.10201 0.0761 0.0
C2172 C 0.59565 0.11633 0.08017 0.0
C2173 C 0.60947 0.13301 0.08913 0.0
C2174 C 0.62671 0.13526 0.09445 0.0
C2175 C 0.57712 0.11401 0.07608 0.0
C2176 C 0.57577 0.12655 0.0621 0.0
C2177 C 0.56119 0.10068 0.08729 0.0
C2178 C 0.56179 0.08719 0.10243 0.0
C2179 C 0.57324 0.09327 0.12087 0.0
C2180 C 0.57379 0.08043 0.13498 0.0
C2181 C 0.56283 0.06147 0.13091 0.0
C2182 C 0.55124 0.05531 0.11276 0.0
C2183 C 0.55066 0.06811 0.09858 0.0
H2184 H 0.56327 0.05154 0.14186 0.0
H2185 H 0.55627 0.17621 0.00642 0.0
H2186 H 0.5219 0.62443 0.57113 0.0
H2187 H 0.49625 0.59236 0.56945 0.0
H2188 H 0.46989 0.60293 0.62341 0.0
H2189 H 0.49533 0.63471 0.62535 0.0
H2190 H 0.46836 0.56979 0.62742 0.0
H2191 H 0.45691 0.60419 0.57152 0.0
H2192 H 0.46473 0.62323 0.53838 0.0
H2193 H 0.46784 0.58083 0.50226 0.0
H2194 H 0.46026 0.56164 0.5353 0.0
H2195 H 0.37274 0.51373 0.6248 0.0
H2196 H 0.4046 0.53895 0.62231 0.0
H2197 H 0.41499 0.51077 0.57027 0.0
H2198 H 0.38286 0.48522 0.57262 0.0
H2199 H 0.42829 0.5485 0.56203 0.0
H2200 H 0.43331 0.51159 0.61719 0.0
H2201 H 0.42456 0.49265 0.65045 0.0
H2202 H 0.43322 0.5396 0.68817 0.0
H2203 H 0.44174 0.55877 0.65509 0.0
C2204 C 0.51069 0.61987 0.58272 0.0
C2205 C 0.51059 0.63219 0.59825 0.0
C2206 C 0.49605 0.60157 0.5817 0.0
C2207 C 0.48112 0.59533 0.59621 0.0
C2208 C 0.48128 0.60745 0.61207 0.0
C2209 C 0.4958 0.62569 0.61305 0.0
C2210 C 0.46485 0.57644 0.59465 0.0
C2211 C 0.4596 0.5651 0.61313 0.0
C2212 C 0.45376 0.57009 0.57574 0.0
C2213 C 0.45827 0.5816 0.55591 0.0
C2214 C 0.45942 0.599 0.55655 0.0
C2215 C 0.46377 0.60981 0.53778 0.0
C2216 C 0.46684 0.60327 0.51824 0.0
C2217 C 0.4655 0.58589 0.51742 0.0
C2218 C 0.46118 0.57505 0.53615 0.0
C2219 C 0.38172 0.5128 0.61279 0.0
C2220 C 0.37522 0.49741 0.59891 0.0
C2221 C 0.39999 0.52721 0.61149 0.0
C2222 C 0.41219 0.5266 0.5963 0.0
C2223 C 0.40578 0.51142 0.58219 0.0
C2224 C 0.38745 0.49685 0.58359 0.0
C2225 C 0.43146 0.54222 0.5951 0.0
C2226 C 0.43729 0.55293 0.57613 0.0
C2227 C 0.44308 0.54802 0.61358 0.0
C2228 C 0.43808 0.5366 0.63361 0.0
C2229 C 0.43323 0.51785 0.63255 0.0
C2230 C 0.42833 0.50708 0.65138 0.0
C2231 C 0.42831 0.51491 0.67141 0.0
C2232 C 0.43324 0.53355 0.67265 0.0
C2233 C 0.43814 0.54439 0.65386 0.0
H2234 H 0.42451 0.50655 0.68597 0.0
H2235 H 0.47021 0.61165 0.50373 0.0
H2236 H 0.84487 0.36003 0.104 0.0
H2237 H 0.84752 0.39005 0.09758 0.0
H2238 H 0.90326 0.41147 0.07402 0.0
H2239 H 0.90073 0.3812 0.08036 0.0
H2240 H 0.89904 0.4347 0.10472 0.0
H2241 H 0.8723 0.40424 0.03801 0.0
H2242 H 0.85056 0.37857 0.01457 0.0
H2243 H 0.80484 0.38147 0.04232 0.0
H2244 H 0.82627 0.40698 0.06618 0.0
H2245 H 0.89512 0.51689 0.07894 0.0
H2246 H 0.89968 0.49029 0.07366 0.0
H2247 H 0.84391 0.45357 0.09568 0.0
H2248 H 0.83923 0.4799 0.10104 0.0
H2249 H 0.85306 0.44043 0.05918 0.0
H2250 H 0.87833 0.46604 0.12971 0.0
H2251 H 0.89895 0.49091 0.15474 0.0
H2252 H 0.94651 0.49638 0.12104 0.0
H2253 H 0.92611 0.47172 0.09552 0.0
C2254 C 0.85772 0.37106 0.09741 0.0
C2255 C 0.8726 0.36819 0.09269 0.0
C2256 C 0.85916 0.3882 0.09365 0.0
C2257 C 0.87551 0.40289 0.08513 0.0
C2258 C 0.8905 0.40023 0.08051 0.0
C2259 C 0.889 0.38294 0.08409 0.0
C2260 C 0.87678 0.42105 0.08171 0.0
C2261 C 0.88934 0.43615 0.09432 0.0
C2262 C 0.86388 0.42275 0.06842 0.0
C2263 C 0.85091 0.40749 0.05397 0.0
C2264 C 0.8576 0.39933 0.03923 0.0
C2265 C 0.84533 0.38481 0.02585 0.0
C2266 C 0.82633 0.37837 0.02697 0.0
C2267 C 0.81957 0.38647 0.04146 0.0
C2268 C 0.83177 0.40098 0.05489 0.0
C2269 C 0.88379 0.50313 0.0825 0.0
C2270 C 0.86685 0.50052 0.09054 0.0
C2271 C 0.88644 0.48798 0.07951 0.0
C2272 C 0.87215 0.47001 0.08436 0.0
C2273 C 0.85509 0.46733 0.09179 0.0
C2274 C 0.85249 0.48243 0.09497 0.0
C2275 C 0.87496 0.45389 0.08263 0.0
C2276 C 0.86312 0.43916 0.0691 0.0
C2277 C 0.88842 0.45249 0.09518 0.0
C2278 C 0.9007 0.46723 0.11054 0.0
C2279 C 0.89318 0.47267 0.12751 0.0
C2280 C 0.90483 0.4867 0.14181 0.0
C2281 C 0.92403 0.49526 0.13946 0.0
C2282 C 0.93163 0.48977 0.12281 0.0
C2283 C 0.92003 0.47577 0.10842 0.0
H2284 H 0.93303 0.50612 0.15057 0.0
H2285 H 0.81686 0.36713 0.01661 0.0
H2286 H 0.37534 0.90015 0.58842 0.0
H2287 H 0.40584 0.90281 0.58501 0.0
H2288 H 0.3898 0.85863 0.6314 0.0
H2289 H 0.35957 0.85609 0.63524 0.0
H2290 H 0.42414 0.88605 0.63926 0.0
H2291 H 0.3891 0.85118 0.57625 0.0
H2292 H 0.37101 0.84642 0.5428 0.0
H2293 H 0.41678 0.89458 0.51434 0.0
H2294 H 0.43506 0.89974 0.54775 0.0
H2295 H 0.48002 0.84715 0.62139 0.0
H2296 H 0.45441 0.85325 0.62298 0.0
H2297 H 0.4822 0.89791 0.5771 0.0
H2298 H 0.508 0.89177 0.57514 0.0
H2299 H 0.44527 0.87605 0.56788 0.0
H2300 H 0.48186 0.90805 0.62945 0.0
H2301 H 0.49989 0.9119 0.66269 0.0
H2302 H 0.45138 0.86888 0.69394 0.0
H2303 H 0.43309 0.86457 0.66078 0.0
C2304 C 0.37833 0.89104 0.59796 0.0
C2305 C 0.36493 0.87782 0.612 0.0
C2306 C 0.39575 0.89256 0.59594 0.0
C2307 C 0.40002 0.88079 0.6078 0.0
C2308 C 0.38681 0.86786 0.62211 0.0
C2309 C 0.36947 0.86637 0.62419 0.0
C2310 C 0.41803 0.88148 0.60511 0.0
C2311 C 0.42873 0.88379 0.62367 0.0
C2312 C 0.4243 0.87912 0.58467 0.0
C2313 C 0.41336 0.87597 0.56457 0.0
C2314 C 0.39525 0.86083 0.56292 0.0
C2315 C 0.38497 0.85805 0.54396 0.0
C2316 C 0.39272 0.87022 0.52648 0.0
C2317 C 0.41078 0.88518 0.5279 0.0
C2318 C 0.42111 0.88803 0.54684 0.0
C2319 C 0.48075 0.85825 0.61154 0.0
C2320 C 0.49613 0.869 0.59817 0.0
C2321 C 0.46611 0.86179 0.61258 0.0
C2322 C 0.46656 0.87623 0.60044 0.0
C2323 C 0.48166 0.88677 0.5867 0.0
C2324 C 0.49638 0.88324 0.58563 0.0
C2325 C 0.45106 0.88004 0.60213 0.0
C2326 C 0.44086 0.87863 0.58341 0.0
C2327 C 0.44523 0.88321 0.62244 0.0
C2328 C 0.45611 0.88593 0.64257 0.0
C2329 C 0.47505 0.89934 0.64337 0.0
C2330 C 0.48531 0.90162 0.66221 0.0
C2331 C 0.47678 0.89066 0.68042 0.0
C2332 C 0.45796 0.87739 0.67984 0.0
C2333 C 0.44763 0.87504 0.66103 0.0
H2334 H 0.48477 0.89242 0.69498 0.0
H2335 H 0.38474 0.86805 0.51182 0.0
H2336 H 0.63361 0.48086 0.1168 0.0
H2337 H 0.60352 0.45326 0.1119 0.0
H2338 H 0.58374 0.48539 0.0783 0.0
H2339 H 0.61397 0.51338 0.08332 0.0
H2340 H 0.55894 0.46224 0.10846 0.0
H2341 H 0.5926 0.45667 0.0497 0.0
H2342 H 0.61891 0.45681 0.03128 0.0
H2343 H 0.61191 0.41139 0.07089 0.0
H2344 H 0.58572 0.41114 0.0898 0.0
H2345 H 0.47624 0.37626 0.08456 0.0
H2346 H 0.50443 0.40621 0.07951 0.0
H2347 H 0.53582 0.38627 0.11446 0.0
H2348 H 0.50786 0.35633 0.11949 0.0
H2349 H 0.55333 0.40478 0.07727 0.0
H2350 H 0.5225 0.41373 0.13903 0.0
H2351 H 0.49627 0.41377 0.15746 0.0
H2352 H 0.49793 0.45307 0.11119 0.0
H2353 H 0.52403 0.45307 0.09231 0.0
C2354 C 0.62294 0.48215 0.10829 0.0
C2355 C 0.62626 0.49938 0.10041 0.0
C2356 C 0.60575 0.46629 0.1054 0.0
C2357 C 0.59149 0.46723 0.09448 0.0
C2358 C 0.59462 0.48438 0.08668 0.0
C2359 C 0.61191 0.50033 0.08953 0.0
C2360 C 0.57321 0.45025 0.09194 0.0
C2361 C 0.5576 0.44978 0.10119 0.0
C2362 C 0.57154 0.43396 0.08267 0.0
C2363 C 0.58725 0.43397 0.07127 0.0
C2364 C 0.59675 0.44679 0.0546 0.0
C2365 C 0.61163 0.44688 0.04405 0.0
C2366 C 0.61709 0.43413 0.04993 0.0
C2367 C 0.60766 0.42125 0.06636 0.0
C2368 C 0.59278 0.42112 0.07698 0.0
C2369 C 0.48914 0.37822 0.09115 0.0
C2370 C 0.48976 0.36389 0.10251 0.0
C2371 C 0.50522 0.39536 0.08828 0.0
C2372 C 0.52217 0.39846 0.09671 0.0
C2373 C 0.52287 0.38413 0.10779 0.0
C2374 C 0.50683 0.36705 0.11074 0.0
C2375 C 0.53925 0.41666 0.09438 0.0
C2376 C 0.55461 0.41734 0.08417 0.0
C2377 C 0.54066 0.43314 0.10269 0.0
C2378 C 0.52506 0.43323 0.11411 0.0
C2379 C 0.51717 0.42226 0.13269 0.0
C2380 C 0.50235 0.4223 0.14323 0.0
C2381 C 0.4954 0.43337 0.13546 0.0
C2382 C 0.5033 0.44448 0.11717 0.0
C2383 C 0.51811 0.44447 0.10654 0.0
H2384 H 0.48392 0.43338 0.14365 0.0
H2385 H 0.62862 0.43422 0.04174 0.0
H2386 H 0.10436 0.48135 0.58745 0.0
H2387 H 0.09913 0.50775 0.58581 0.0
H2388 H 0.14543 0.5385 0.62881 0.0
H2389 H 0.15065 0.51232 0.63074 0.0
H2390 H 0.11573 0.54124 0.64077 0.0
H2391 H 0.14917 0.54626 0.57415 0.0
H2392 H 0.15365 0.53498 0.53894 0.0
H2393 H 0.10238 0.52904 0.51577 0.0
H2394 H 0.09749 0.54007 0.55097 0.0
H2395 H 0.14709 0.63518 0.62914 0.0
H2396 H 0.14341 0.60437 0.62776 0.0
H2397 H 0.09656 0.58623 0.58496 0.0
H2398 H 0.10023 0.61729 0.58603 0.0
H2399 H 0.12005 0.5739 0.57183 0.0
H2400 H 0.08882 0.57307 0.63668 0.0
H2401 H 0.08452 0.58472 0.67168 0.0
H2402 H 0.13097 0.58252 0.69829 0.0
H2403 H 0.13573 0.57111 0.66334 0.0
C2404 C 0.11343 0.49374 0.59655 0.0
C2405 C 0.12796 0.49471 0.6092 0.0
C2406 C 0.11044 0.50881 0.59555 0.0
C2407 C 0.12195 0.5251 0.60711 0.0
C2408 C 0.13634 0.52604 0.61982 0.0
C2409 C 0.13935 0.51105 0.62083 0.0
C2410 C 0.11925 0.54136 0.60615 0.0
C2411 C 0.11675 0.54843 0.62571 0.0
C2412 C 0.11989 0.55033 0.58641 0.0
C2413 C 0.12286 0.54376 0.56526 0.0
C2414 C 0.13878 0.5424 0.5616 0.0
C2415 C 0.14141 0.53608 0.54164 0.0
C2416 C 0.12827 0.53124 0.52516 0.0
C2417 C 0.11252 0.53276 0.52857 0.0
C2418 C 0.10982 0.53905 0.54852 0.0
C2419 C 0.13597 0.6247 0.6194 0.0
C2420 C 0.12388 0.62872 0.60779 0.0
C2421 C 0.13386 0.60705 0.61871 0.0
C2422 C 0.11953 0.59294 0.60656 0.0
C2423 C 0.10764 0.59692 0.59454 0.0
C2424 C 0.10975 0.61466 0.5952 0.0
C2425 C 0.11723 0.57413 0.60655 0.0
C2426 C 0.1187 0.56654 0.58684 0.0
C2427 C 0.11559 0.56462 0.62617 0.0
C2428 C 0.11269 0.57133 0.64732 0.0
C2429 C 0.09819 0.57518 0.64994 0.0
C2430 C 0.09566 0.58173 0.66979 0.0
C2431 C 0.10748 0.58438 0.68719 0.0
C2432 C 0.12183 0.58045 0.6848 0.0
C2433 C 0.12443 0.57392 0.66498 0.0
H2434 H 0.1055 0.58946 0.70253 0.0
H2435 H 0.13033 0.52635 0.50971 0.0
H2436 H 0.90107 0.52134 0.41367 0.0
H2437 H 0.90544 0.49476 0.42011 0.0
H2438 H 0.85151 0.45831 0.3929 0.0
H2439 H 0.84696 0.48457 0.38653 0.0
H2440 H 0.8577 0.44439 0.43033 0.0
H2441 H 0.89016 0.47277 0.36276 0.0
H2442 H 0.9137 0.49869 0.34098 0.0
H2443 H 0.95663 0.502 0.38248 0.0
H2444 H 0.93328 0.47621 0.40465 0.0
H2445 H 0.85112 0.36497 0.38582 0.0
H2446 H 0.85398 0.39502 0.39269 0.0
H2447 H 0.90828 0.41482 0.42007 0.0
H2448 H 0.90559 0.38457 0.41321 0.0
H2449 H 0.90695 0.43958 0.39074 0.0
H2450 H 0.87486 0.40694 0.45375 0.0
H2451 H 0.85138 0.3808 0.47525 0.0
H2452 H 0.80812 0.38554 0.44345 0.0
H2453 H 0.83132 0.41154 0.42149 0.0
C2454 C 0.8901 0.50765 0.40916 0.0
C2455 C 0.8737 0.5051 0.39947 0.0
C2456 C 0.89265 0.4925 0.41282 0.0
C2457 C 0.87882 0.4746 0.40689 0.0
C2458 C 0.86233 0.47201 0.39765 0.0
C2459 C 0.8598 0.48708 0.39391 0.0
C2460 C 0.8815 0.45844 0.40949 0.0
C2461 C 0.86846 0.44331 0.4217 0.0
C2462 C 0.89597 0.45734 0.39889 0.0
C2463 C 0.90998 0.47274 0.3855 0.0
C2464 C 0.90461 0.47912 0.36732 0.0
C2465 C 0.91791 0.49377 0.3549 0.0
C2466 C 0.93665 0.50203 0.36038 0.0
C2467 C 0.94212 0.49561 0.37827 0.0
C2468 C 0.92886 0.48098 0.39077 0.0
C2469 C 0.8637 0.37565 0.39334 0.0
C2470 C 0.87813 0.37233 0.39898 0.0
C2471 C 0.86525 0.39281 0.39737 0.0
C2472 C 0.88124 0.40705 0.40713 0.0
C2473 C 0.89579 0.40394 0.41263 0.0
C2474 C 0.8942 0.38666 0.40874 0.0
C2475 C 0.88266 0.42526 0.41083 0.0
C2476 C 0.89647 0.44078 0.39986 0.0
C2477 C 0.86893 0.42676 0.42264 0.0
C2478 C 0.85486 0.41116 0.43588 0.0
C2479 C 0.86034 0.40234 0.45122 0.0
C2480 C 0.84707 0.38755 0.46351 0.0
C2481 C 0.82827 0.3815 0.4607 0.0
C2482 C 0.82269 0.39025 0.44561 0.0
C2483 C 0.8359 0.40503 0.43326 0.0
H2484 H 0.81802 0.37004 0.47023 0.0
H2485 H 0.94693 0.51337 0.35074 0.0
H2486 H 0.51648 0.89919 0.88854 0.0
H2487 H 0.4883 0.90068 0.89505 0.0
H2488 H 0.46086 0.84423 0.91835 0.0
H2489 H 0.48857 0.84239 0.91014 0.0
H2490 H 0.43941 0.8461 0.89328 0.0
H2491 H 0.47332 0.88475 0.9519 0.0
H2492 H 0.4996 0.91028 0.97116 0.0
H2493 H 0.49462 0.94997 0.93164 0.0
H2494 H 0.46847 0.92468 0.91192 0.0
H2495 H 0.37261 0.88045 0.93354 0.0
H2496 H 0.40214 0.88101 0.93797 0.0
H2497 H 0.40149 0.8683 0.86997 0.0
H2498 H 0.37167 0.86675 0.86581 0.0
H2499 H 0.43562 0.89919 0.92359 0.0
H2500 H 0.41752 0.84031 0.86049 0.0
H2501 H 0.38985 0.8123 0.84696 0.0
H2502 H 0.36114 0.80843 0.90628 0.0
H2503 H 0.38871 0.83626 0.92029 0.0
C2504 C 0.50446 0.88725 0.89533 0.0
C2505 C 0.50452 0.87066 0.89876 0.0
C2506 C 0.48839 0.88812 0.89924 0.0
C2507 C 0.47237 0.87261 0.9074 0.0
C2508 C 0.47291 0.85635 0.91188 0.0
C2509 C 0.48873 0.8553 0.90728 0.0
C2510 C 0.45458 0.87265 0.90915 0.0
C2511 C 0.43865 0.85768 0.90013 0.0
C2512 C 0.45328 0.88749 0.9185 0.0
C2513 C 0.469 0.90279 0.93032 0.0
C2514 C 0.47791 0.89892 0.94721 0.0
C2515 C 0.49277 0.91335 0.95823 0.0
C2516 C 0.4988 0.93173 0.9526 0.0
C2517 C 0.48994 0.93572 0.93597 0.0
C2518 C 0.47508 0.92134 0.92488 0.0
C2519 C 0.37888 0.87787 0.91956 0.0
C2520 C 0.36977 0.87325 0.89942 0.0
C2521 C 0.39574 0.87823 0.92209 0.0
C2522 C 0.40382 0.87423 0.90443 0.0
C2523 C 0.39525 0.87082 0.88401 0.0
C2524 C 0.37825 0.87002 0.88161 0.0
C2525 C 0.4208 0.87288 0.90729 0.0
C2526 C 0.43648 0.88757 0.91708 0.0
C2527 C 0.42172 0.85738 0.89958 0.0
C2528 C 0.40514 0.84047 0.89136 0.0
C2529 C 0.40533 0.83343 0.87069 0.0
C2530 C 0.38966 0.8176 0.86293 0.0
C2531 C 0.37373 0.80862 0.87573 0.0
C2532 C 0.37346 0.81543 0.89635 0.0
C2533 C 0.3891 0.83124 0.9042 0.0
H2534 H 0.36161 0.79638 0.86967 0.0
H2535 H 0.51031 0.94288 0.96115 0.0
H2536 H 0.47591 0.37708 0.4192 0.0
H2537 H 0.50312 0.40762 0.42599 0.0
H2538 H 0.53843 0.38875 0.39876 0.0
H2539 H 0.51161 0.35845 0.39194 0.0
H2540 H 0.55209 0.40786 0.43712 0.0
H2541 H 0.52605 0.41421 0.36896 0.0
H2542 H 0.50129 0.41349 0.34634 0.0
H2543 H 0.49952 0.45411 0.38752 0.0
H2544 H 0.52413 0.45488 0.41055 0.0
H2545 H 0.634 0.47879 0.39452 0.0
H2546 H 0.60332 0.45241 0.40101 0.0
H2547 H 0.58534 0.48865 0.4276 0.0
H2548 H 0.61623 0.51539 0.42108 0.0
H2549 H 0.56045 0.46349 0.39785 0.0
H2550 H 0.59113 0.46156 0.46161 0.0
H2551 H 0.61632 0.46256 0.48358 0.0
H2552 H 0.60952 0.41392 0.45132 0.0
H2553 H 0.58448 0.41277 0.4289 0.0
C2554 C 0.48949 0.37944 0.41473 0.0
C2555 C 0.49156 0.36533 0.40493 0.0
C2556 C 0.50499 0.39689 0.41859 0.0
C2557 C 0.52275 0.40041 0.41285 0.0
C2558 C 0.52484 0.38628 0.4034 0.0
C2559 C 0.50944 0.36898 0.39939 0.0
C2560 C 0.53936 0.41886 0.41601 0.0
C2561 C 0.55394 0.42005 0.42858 0.0
C2562 C 0.54148 0.43488 0.40548 0.0
C2563 C 0.52673 0.43442 0.39163 0.0
C2564 C 0.52026 0.42286 0.3733 0.0
C2565 C 0.50628 0.42247 0.36038 0.0
C2566 C 0.49879 0.4337 0.36554 0.0
C2567 C 0.5053 0.44539 0.38358 0.0
C2568 C 0.51926 0.44581 0.39657 0.0
C2569 C 0.62361 0.48123 0.40184 0.0
C2570 C 0.62761 0.49923 0.40729 0.0
C2571 C 0.60608 0.46609 0.40565 0.0
C2572 C 0.59214 0.46856 0.41503 0.0
C2573 C 0.59597 0.48647 0.42046 0.0
C2574 C 0.61362 0.5017 0.41677 0.0
C2575 C 0.57346 0.45228 0.41826 0.0
C2576 C 0.55848 0.45148 0.40692 0.0
C2577 C 0.57095 0.4366 0.42996 0.0
C2578 C 0.58596 0.43714 0.44349 0.0
C2579 C 0.59508 0.45114 0.45909 0.0
C2580 C 0.60933 0.45173 0.47164 0.0
C2581 C 0.61453 0.43833 0.46883 0.0
C2582 C 0.60547 0.42429 0.45348 0.0
C2583 C 0.59123 0.42365 0.44087 0.0
H2584 H 0.62557 0.43881 0.47857 0.0
H2585 H 0.48798 0.43338 0.35551 0.0
H2586 H 0.14979 0.51756 0.87569 0.0
H2587 H 0.14581 0.54442 0.87906 0.0
H2588 H 0.10164 0.51512 0.92513 0.0
H2589 H 0.10533 0.48784 0.92166 0.0
H2590 H 0.09324 0.53438 0.89559 0.0
H2591 H 0.14313 0.54747 0.94334 0.0
H2592 H 0.17271 0.55013 0.95474 0.0
H2593 H 0.20146 0.59114 0.90554 0.0
H2594 H 0.17201 0.58853 0.89362 0.0
H2595 H 0.09904 0.6225 0.91835 0.0
H2596 H 0.0978 0.59267 0.92271 0.0
H2597 H 0.14163 0.60933 0.87571 0.0
H2598 H 0.14305 0.63899 0.87128 0.0
H2599 H 0.14812 0.59536 0.91257 0.0
H2600 H 0.09733 0.57911 0.86242 0.0
H2601 H 0.06763 0.57625 0.85112 0.0
H2602 H 0.04053 0.54124 0.90592 0.0
H2603 H 0.07015 0.5441 0.9177 0.0
C2604 C 0.13921 0.51674 0.88659 0.0
C2605 C 0.12798 0.50055 0.89854 0.0
C2606 C 0.137 0.53217 0.88853 0.0
C2607 C 0.12365 0.53187 0.90263 0.0
C2608 C 0.1121 0.51565 0.91426 0.0
C2609 C 0.11427 0.50011 0.91228 0.0
C2610 C 0.12198 0.54866 0.905 0.0
C2611 C 0.10513 0.54766 0.89974 0.0
C2612 C 0.13753 0.566 0.9103 0.0
C2613 C 0.15532 0.56772 0.91751 0.0
C2614 C 0.15574 0.55697 0.93485 0.0
C2615 C 0.17249 0.55848 0.94142 0.0
C2616 C 0.18895 0.57077 0.93085 0.0
C2617 C 0.1887 0.58162 0.91372 0.0
C2618 C 0.17198 0.58015 0.90707 0.0
C2619 C 0.10834 0.61977 0.90885 0.0
C2620 C 0.1212 0.6332 0.89453 0.0
C2621 C 0.10758 0.60271 0.91135 0.0
C2622 C 0.11964 0.59883 0.89954 0.0
C2623 C 0.13228 0.6121 0.88507 0.0
C2624 C 0.13302 0.62906 0.88253 0.0
C2625 C 0.1196 0.58118 0.90238 0.0
C2626 C 0.13615 0.58202 0.90876 0.0
C2627 C 0.10377 0.56375 0.89821 0.0
C2628 C 0.08598 0.562 0.89109 0.0
C2629 C 0.08507 0.57093 0.87217 0.0
C2630 C 0.06825 0.56929 0.86565 0.0
C2631 C 0.05222 0.55862 0.87784 0.0
C2632 C 0.05297 0.54953 0.89652 0.0
C2633 C 0.06976 0.55115 0.90312 0.0
H2634 H 0.03921 0.55736 0.87277 0.0
H2635 H 0.2019 0.57192 0.93596 0.0
H2636 H 0.63673 0.15074 0.38903 0.0
H2637 H 0.60608 0.14671 0.39535 0.0
H2638 H 0.58644 0.09087 0.41746 0.0
H2639 H 0.61735 0.09483 0.41138 0.0
H2640 H 0.56316 0.09531 0.38575 0.0
H2641 H 0.59109 0.11906 0.45435 0.0
H2642 H 0.6157 0.13994 0.47952 0.0
H2643 H 0.61225 0.18626 0.45478 0.0
H2644 H 0.58782 0.16571 0.4292 0.0
H2645 H 0.47901 0.09627 0.40912 0.0
H2646 H 0.50564 0.0919 0.41533 0.0
H2647 H 0.54269 0.14879 0.39747 0.0
H2648 H 0.51636 0.15328 0.3912 0.0
H2649 H 0.5545 0.13811 0.43388 0.0
H2650 H 0.53173 0.11608 0.36143 0.0
H2651 H 0.50788 0.09638 0.33489 0.0
H2652 H 0.50243 0.0477 0.36569 0.0
H2653 H 0.52602 0.06717 0.39277 0.0
C2654 C 0.62594 0.13759 0.39527 0.0
C2655 C 0.62947 0.1231 0.3997 0.0
C2656 C 0.60846 0.13535 0.39897 0.0
C2657 C 0.5941 0.11856 0.40703 0.0
C2658 C 0.59742 0.10395 0.41133 0.0
C2659 C 0.61506 0.10627 0.4079 0.0
C2660 C 0.57557 0.11644 0.41028 0.0
C2661 C 0.56105 0.10427 0.39671 0.0
C2662 C 0.57303 0.12838 0.42433 0.0
C2663 C 0.58767 0.14083 0.43976 0.0
C2664 C 0.59567 0.13372 0.45415 0.0
C2665 C 0.60958 0.1455 0.46852 0.0
C2666 C 0.61555 0.16442 0.46873 0.0
C2667 C 0.60761 0.1716 0.4546 0.0
C2668 C 0.5937 0.15988 0.44018 0.0
C2669 C 0.49284 0.10788 0.40668 0.0
C2670 C 0.49557 0.12509 0.39951 0.0
C2671 C 0.50801 0.10534 0.41022 0.0
C2672 C 0.52609 0.12002 0.4068 0.0
C2673 C 0.52884 0.13731 0.40027 0.0
C2674 C 0.51375 0.13981 0.39654 0.0
C2675 C 0.5423 0.11738 0.4089 0.0
C2676 C 0.5564 0.12872 0.42342 0.0
C2677 C 0.5445 0.10477 0.39563 0.0
C2678 C 0.53043 0.09306 0.3793 0.0
C2679 C 0.52532 0.10117 0.36267 0.0
C2680 C 0.51187 0.09004 0.34751 0.0
C2681 C 0.5036 0.07078 0.34861 0.0
C2682 C 0.50881 0.06262 0.36488 0.0
C2683 C 0.5222 0.07369 0.38017 0.0
H2684 H 0.4932 0.0622 0.33682 0.0
H2685 H 0.62632 0.17351 0.47986 0.0
H2686 H 0.48059 0.63567 0.87899 0.0
H2687 H 0.45316 0.60548 0.88426 0.0
H2688 H 0.48663 0.58487 0.91264 0.0
H2689 H 0.51442 0.61522 0.90732 0.0
H2690 H 0.46194 0.56098 0.88215 0.0
H2691 H 0.45961 0.59257 0.94509 0.0
H2692 H 0.46085 0.61822 0.96631 0.0
H2693 H 0.41367 0.61274 0.93173 0.0
H2694 H 0.4123 0.58723 0.91006 0.0
H2695 H 0.37636 0.47779 0.90801 0.0
H2696 H 0.4068 0.5056 0.91245 0.0
H2697 H 0.38635 0.53847 0.88207 0.0
H2698 H 0.35603 0.51093 0.87752 0.0
H2699 H 0.40632 0.5544 0.91974 0.0
H2700 H 0.41187 0.52608 0.85361 0.0
H2701 H 0.4107 0.50061 0.83204 0.0
H2702 H 0.45198 0.5 0.87316 0.0
H2703 H 0.45319 0.52532 0.89517 0.0
C2704 C 0.48221 0.62479 0.88643 0.0
C2705 C 0.49975 0.62791 0.89275 0.0
C2706 C 0.46646 0.60755 0.88953 0.0
C2707 C 0.46784 0.59301 0.89907 0.0
C2708 C 0.48529 0.59596 0.90534 0.0
C2709 C 0.50112 0.61331 0.90234 0.0
C2710 C 0.45097 0.57467 0.90173 0.0
C2711 C 0.4499 0.55941 0.8908 0.0
C2712 C 0.43522 0.57272 0.9128 0.0
C2713 C 0.43593 0.58804 0.92584 0.0
C2714 C 0.44958 0.59692 0.94189 0.0
C2715 C 0.45029 0.61142 0.95402 0.0
C2716 C 0.43737 0.61712 0.95035 0.0
C2717 C 0.42367 0.60831 0.93456 0.0
C2718 C 0.42291 0.59381 0.92236 0.0
C2719 C 0.37834 0.49094 0.9023 0.0
C2720 C 0.36376 0.49212 0.89235 0.0
C2721 C 0.39574 0.50679 0.90483 0.0
C2722 C 0.39879 0.52404 0.89755 0.0
C2723 C 0.38424 0.52527 0.88785 0.0
C2724 C 0.36694 0.50948 0.88517 0.0
C2725 C 0.41717 0.54092 0.89964 0.0
C2726 C 0.41849 0.55589 0.91148 0.0
C2727 C 0.43313 0.54257 0.88945 0.0
C2728 C 0.43245 0.52742 0.87619 0.0
C2729 C 0.42057 0.5204 0.85817 0.0
C2730 C 0.41993 0.50601 0.84584 0.0
C2731 C 0.43121 0.49865 0.85127 0.0
C2732 C 0.44321 0.50569 0.869 0.0
C2733 C 0.44389 0.52006 0.8814 0.0
H2734 H 0.4307 0.48752 0.8417 0.0
H2735 H 0.43794 0.62836 0.95976 0.0
loop_
_geom_bond_atom_site_label_1
_geom_bond_atom_site_label_2
_geom_bond_distance
_geom_bond_site_symmetry_2
_ccdc_geom_bond_type
Mg0 O1 2.028 . S
Mg0 O7 1.986 . S
Mg0 O9 2.114 . S
Mg0 O10 2.251 . S
Mg0 O13 2.010 . S
O1 Mg0 2.028 . S
O1 C4 1.250 . S
O2 Mg3 2.028 . S
O2 C4 1.248 . S
Mg3 O2 2.028 . S
Mg3 O8 2.032 . S
Mg3 O10 2.079 . S
C4 O1 1.250 . S
C4 O2 1.248 . S
C5 O6 1.264 . S
C5 O13 1.249 . S
O6 C5 1.264 . S
O7 Mg0 1.986 . S
O7 C11 1.246 . S
O8 Mg3 2.032 . S
O8 C11 1.259 . S
O9 Mg0 2.114 . S
O9 C12 1.252 . S
O10 Mg0 2.251 . S
O10 Mg3 2.079 . S
O10 C12 1.273 . S
C11 O7 1.246 . S
C11 O8 1.259 . S
C12 O9 1.252 . S
C12 O10 1.273 . S
O13 Mg0 2.010 . S
O13 C5 1.249 . S
Mg14 O15 2.028 . S
Mg14 O21 1.986 . S
Mg14 O23 2.114 . S
Mg14 O24 2.251 . S
Mg14 O27 2.010 . S
O15 Mg14 2.028 . S
O15 C18 1.250 . S
O16 Mg17 2.028 . S
O16 C18 1.248 . S
Mg17 O16 2.028 . S
Mg17 O22 2.032 . S
Mg17 O24 2.079 . S
C18 O15 1.250 . S
C18 O16 1.248 . S
C19 O20 1.264 . S
C19 O27 1.249 . S
O20 C19 1.264 . S
O21 Mg14 1.986 . S
O21 C25 1.246 . S
O22 Mg17 2.032 . S
O22 C25 1.259 . S
O23 Mg14 2.114 . S
O23 C26 1.252 . S
O24 Mg14 2.251 . S
O24 Mg17 2.079 . S
O24 C26 1.273 . S
C25 O21 1.246 . S
C25 O22 1.259 . S
C26 O23 1.252 . S
C26 O24 1.273 . S
O27 Mg14 2.010 . S
O27 C19 1.249 . S
Mg28 O29 2.028 . S
Mg28 O35 1.986 . S
Mg28 O37 2.114 . S
Mg28 O38 2.251 . S
Mg28 O41 2.010 . S
O29 Mg28 2.028 . S
O29 C32 1.250 . S
O30 Mg31 2.028 . S
O30 C32 1.248 . S
Mg31 O30 2.028 . S
Mg31 O36 2.032 . S
Mg31 O38 2.079 . S
C32 O29 1.250 . S
C32 O30 1.248 . S
C33 O34 1.264 . S
C33 O41 1.249 . S
O34 C33 1.264 . S
O35 Mg28 1.986 . S
O35 C39 1.246 . S
O36 Mg31 2.032 . S
O36 C39 1.259 . S
O37 Mg28 2.114 . S
O37 C40 1.252 . S
O38 Mg28 2.251 . S
O38 Mg31 2.079 . S
O38 C40 1.273 . S
C39 O35 1.246 . S
C39 O36 1.259 . S
C40 O37 1.252 . S
C40 O38 1.273 . S
O41 Mg28 2.010 . S
O41 C33 1.249 . S
Mg42 O43 2.028 . S
Mg42 O49 1.986 . S
Mg42 O51 2.114 . S
Mg42 O52 2.251 . S
Mg42 O55 2.010 . S
O43 Mg42 2.028 . S
O43 C46 1.250 . S
O44 Mg45 2.028 . S
O44 C46 1.248 . S
Mg45 O44 2.028 . S
Mg45 O50 2.032 . S
Mg45 O52 2.079 . S
C46 O43 1.250 . S
C46 O44 1.248 . S
C47 O48 1.264 . S
C47 O55 1.249 . S
O48 C47 1.264 . S
O49 Mg42 1.986 . S
O49 C53 1.246 . S
O50 Mg45 2.032 . S
O50 C53 1.259 . S
O51 Mg42 2.114 . S
O51 C54 1.252 . S
O52 Mg42 2.251 . S
O52 Mg45 2.079 . S
O52 C54 1.273 . S
C53 O49 1.246 . S
C53 O50 1.259 . S
C54 O51 1.252 . S
C54 O52 1.273 . S
O55 Mg42 2.010 . S
O55 C47 1.249 . S
Mg56 O57 2.028 . S
Mg56 O63 1.986 . S
Mg56 O65 2.114 . S
Mg56 O66 2.251 . S
Mg56 O69 2.010 . S
O57 Mg56 2.028 . S
O57 C60 1.250 . S
O58 Mg59 2.028 . S
O58 C60 1.248 . S
Mg59 O58 2.028 . S
Mg59 O64 2.032 . S
Mg59 O66 2.079 . S
C60 O57 1.250 . S
C60 O58 1.248 . S
C61 O62 1.264 . S
C61 O69 1.249 . S
O62 C61 1.264 . S
O63 Mg56 1.986 . S
O63 C67 1.246 . S
O64 Mg59 2.032 . S
O64 C67 1.259 . S
O65 Mg56 2.114 . S
O65 C68 1.252 . S
O66 Mg56 2.251 . S
O66 Mg59 2.079 . S
O66 C68 1.273 . S
C67 O63 1.246 . S
C67 O64 1.259 . S
C68 O65 1.252 . S
C68 O66 1.273 . S
O69 Mg56 2.010 . S
O69 C61 1.249 . S
Mg70 O71 2.028 . S
Mg70 O77 1.986 . S
Mg70 O79 2.114 . S
Mg70 O80 2.251 . S
Mg70 O83 2.010 . S
O71 Mg70 2.028 . S
O71 C74 1.250 . S
O72 Mg73 2.028 . S
O72 C74 1.248 . S
Mg73 O72 2.028 . S
Mg73 O78 2.032 . S
Mg73 O80 2.079 . S
C74 O71 1.250 . S
C74 O72 1.248 . S
C75 O76 1.264 . S
C75 O83 1.249 . S
O76 C75 1.264 . S
O77 Mg70 1.986 . S
O77 C81 1.246 . S
O78 Mg73 2.032 . S
O78 C81 1.259 . S
O79 Mg70 2.114 . S
O79 C82 1.252 . S
O80 Mg70 2.251 . S
O80 Mg73 2.079 . S
O80 C82 1.273 . S
C81 O77 1.246 . S
C81 O78 1.259 . S
C82 O79 1.252 . S
C82 O80 1.273 . S
O83 Mg70 2.010 . S
O83 C75 1.249 . S
Mg84 O85 2.028 . S
Mg84 O91 1.986 . S
Mg84 O93 2.114 . S
Mg84 O94 2.251 . S
Mg84 O97 2.010 . S
O85 Mg84 2.028 . S
O85 C88 1.250 . S
O86 Mg87 2.028 . S
O86 C88 1.248 . S
Mg87 O86 2.028 . S
Mg87 O92 2.032 . S
Mg87 O94 2.079 . S
C88 O85 1.250 . S
C88 O86 1.248 . S
C89 O90 1.264 . S
C89 O97 1.249 . S
O90 C89 1.264 . S
O91 Mg84 1.986 . S
O91 C95 1.246 . S
O92 Mg87 2.032 . S
O92 C95 1.259 . S
O93 Mg84 2.114 . S
O93 C96 1.252 . S
O94 Mg84 2.251 . S
O94 Mg87 2.079 . S
O94 C96 1.273 . S
C95 O91 1.246 . S
C95 O92 1.259 . S
C96 O93 1.252 . S
C96 O94 1.273 . S
O97 Mg84 2.010 . S
O97 C89 1.249 . S
Mg98 O99 2.028 . S
Mg98 O105 1.986 . S
Mg98 O107 2.114 . S
Mg98 O108 2.251 . S
Mg98 O111 2.010 . S
O99 Mg98 2.028 . S
O99 C102 1.250 . S
O100 Mg101 2.028 . S
O100 C102 1.248 . S
Mg101 O100 2.028 . S
Mg101 O106 2.032 . S
Mg101 O108 2.079 . S
C102 O99 1.250 . S
C102 O100 1.248 . S
C103 O104 1.264 . S
C103 O111 1.249 . S
O104 C103 1.264 . S
O105 Mg98 1.986 . S
O105 C109 1.246 . S
O106 Mg101 2.032 . S
O106 C109 1.259 . S
O107 Mg98 2.114 . S
O107 C110 1.252 . S
O108 Mg98 2.251 . S
O108 Mg101 2.079 . S
O108 C110 1.273 . S
C109 O105 1.246 . S
C109 O106 1.259 . S
C110 O107 1.252 . S
C110 O108 1.273 . S
O111 Mg98 2.010 . S
O111 C103 1.249 . S
Mg112 O113 2.028 . S
Mg112 O119 1.986 . S
Mg112 O121 2.114 . S
Mg112 O122 2.251 . S
Mg112 O125 2.010 . S
O113 Mg112 2.028 . S
O113 C116 1.250 . S
O114 Mg115 2.028 . S
O114 C116 1.248 . S
Mg115 O114 2.028 . S
Mg115 O120 2.032 . S
Mg115 O122 2.079 . S
C116 O113 1.250 . S
C116 O114 1.248 . S
C117 O118 1.264 . S
C117 O125 1.249 . S
O118 C117 1.264 . S
O119 Mg112 1.986 . S
O119 C123 1.246 . S
O120 Mg115 2.032 . S
O120 C123 1.259 . S
O121 Mg112 2.114 . S
O121 C124 1.252 . S
O122 Mg112 2.251 . S
O122 Mg115 2.079 . S
O122 C124 1.273 . S
C123 O119 1.246 . S
C123 O120 1.259 . S
C124 O121 1.252 . S
C124 O122 1.273 . S
O125 Mg112 2.010 . S
O125 C117 1.249 . S
Mg126 O127 2.028 . S
Mg126 O133 1.986 . S
Mg126 O135 2.114 . S
Mg126 O136 2.251 . S
Mg126 O139 2.010 . S
O127 Mg126 2.028 . S
O127 C130 1.250 . S
O128 Mg129 2.028 . S
O128 C130 1.248 . S
Mg129 O128 2.028 . S
Mg129 O134 2.032 . S
Mg129 O136 2.079 . S
C130 O127 1.250 . S
C130 O128 1.248 . S
C131 O132 1.264 . S
C131 O139 1.249 . S
O132 C131 1.264 . S
O133 Mg126 1.986 . S
O133 C137 1.246 . S
O134 Mg129 2.032 . S
O134 C137 1.259 . S
O135 Mg126 2.114 . S
O135 C138 1.252 . S
O136 Mg126 2.251 . S
O136 Mg129 2.079 . S
O136 C138 1.273 . S
C137 O133 1.246 . S
C137 O134 1.259 . S
C138 O135 1.252 . S
C138 O136 1.273 . S
O139 Mg126 2.010 . S
O139 C131 1.249 . S
Mg140 O141 2.028 . S
Mg140 O147 1.986 . S
Mg140 O149 2.114 . S
Mg140 O150 2.251 . S
Mg140 O153 2.010 . S
O141 Mg140 2.028 . S
O141 C144 1.250 . S
O142 Mg143 2.028 . S
O142 C144 1.248 . S
Mg143 O142 2.028 . S
Mg143 O148 2.032 . S
Mg143 O150 2.079 . S
C144 O141 1.250 . S
C144 O142 1.248 . S
C145 O146 1.264 . S
C145 O153 1.249 . S
O146 C145 1.264 . S
O147 Mg140 1.986 . S
O147 C151 1.246 . S
O148 Mg143 2.032 . S
O148 C151 1.259 . S
O149 Mg140 2.114 . S
O149 C152 1.252 . S
O150 Mg140 2.251 . S
O150 Mg143 2.079 . S
O150 C152 1.273 . S
C151 O147 1.246 . S
C151 O148 1.259 . S
C152 O149 1.252 . S
C152 O150 1.273 . S
O153 Mg140 2.010 . S
O153 C145 1.249 . S
Mg154 O155 2.028 . S
Mg154 O161 1.986 . S
Mg154 O163 2.114 . S
Mg154 O164 2.251 . S
Mg154 O167 2.010 . S
O155 Mg154 2.028 . S
O155 C158 1.250 . S
O156 Mg157 2.028 . S
O156 C158 1.248 . S
Mg157 O156 2.028 . S
Mg157 O162 2.032 . S
Mg157 O164 2.079 . S
C158 O155 1.250 . S
C158 O156 1.248 . S
C159 O160 1.264 . S
C159 O167 1.249 . S
O160 C159 1.264 . S
O161 Mg154 1.986 . S
O161 C165 1.246 . S
O162 Mg157 2.032 . S
O162 C165 1.259 . S
O163 Mg154 2.114 . S
O163 C166 1.252 . S
O164 Mg154 2.251 . S
O164 Mg157 2.079 . S
O164 C166 1.273 . S
C165 O161 1.246 . S
C165 O162 1.259 . S
C166 O163 1.252 . S
C166 O164 1.273 . S
O167 Mg154 2.010 . S
O167 C159 1.249 . S
Mg168 O169 2.028 . S
Mg168 O175 1.986 . S
Mg168 O177 2.114 . S
Mg168 O178 2.251 . S
Mg168 O181 2.010 . S
O169 Mg168 2.028 . S
O169 C172 1.250 . S
O170 Mg171 2.028 . S
O170 C172 1.248 . S
Mg171 O170 2.028 . S
Mg171 O176 2.032 . S
Mg171 O178 2.079 . S
C172 O169 1.250 . S
C172 O170 1.248 . S
C173 O174 1.264 . S
C173 O181 1.249 . S
O174 C173 1.264 . S
O175 Mg168 1.986 . S
O175 C179 1.246 . S
O176 Mg171 2.032 . S
O176 C179 1.259 . S
O177 Mg168 2.114 . S
O177 C180 1.252 . S
O178 Mg168 2.251 . S
O178 Mg171 2.079 . S
O178 C180 1.273 . S
C179 O175 1.246 . S
C179 O176 1.259 . S
C180 O177 1.252 . S
C180 O178 1.273 . S
O181 Mg168 2.010 . S
O181 C173 1.249 . S
Mg182 O183 2.028 . S
Mg182 O189 1.986 . S
Mg182 O191 2.114 . S
Mg182 O192 2.251 . S
Mg182 O195 2.010 . S
O183 Mg182 2.028 . S
O183 C186 1.250 . S
O184 Mg185 2.028 . S
O184 C186 1.248 . S
Mg185 O184 2.028 . S
Mg185 O190 2.032 . S
Mg185 O192 2.079 . S
C186 O183 1.250 . S
C186 O184 1.248 . S
C187 O188 1.264 . S
C187 O195 1.249 . S
O188 C187 1.264 . S
O189 Mg182 1.986 . S
O189 C193 1.246 . S
O190 Mg185 2.032 . S
O190 C193 1.259 . S
O191 Mg182 2.114 . S
O191 C194 1.252 . S
O192 Mg182 2.251 . S
O192 Mg185 2.079 . S
O192 C194 1.273 . S
C193 O189 1.246 . S
C193 O190 1.259 . S
C194 O191 1.252 . S
C194 O192 1.273 . S
O195 Mg182 2.010 . S
O195 C187 1.249 . S
Mg196 O197 2.028 . S
Mg196 O203 1.986 . S
Mg196 O205 2.114 . S
Mg196 O206 2.251 . S
Mg196 O209 2.010 . S
O197 Mg196 2.028 . S
O197 C200 1.250 . S
O198 Mg199 2.028 . S
O198 C200 1.248 . S
Mg199 O198 2.028 . S
Mg199 O204 2.032 . S
Mg199 O206 2.079 . S
C200 O197 1.250 . S
C200 O198 1.248 . S
C201 O202 1.264 . S
C201 O209 1.249 . S
O202 C201 1.264 . S
O203 Mg196 1.986 . S
O203 C207 1.246 . S
O204 Mg199 2.032 . S
O204 C207 1.259 . S
O205 Mg196 2.114 . S
O205 C208 1.252 . S
O206 Mg196 2.251 . S
O206 Mg199 2.079 . S
O206 C208 1.273 . S
C207 O203 1.246 . S
C207 O204 1.259 . S
C208 O205 1.252 . S
C208 O206 1.273 . S
O209 Mg196 2.010 . S
O209 C201 1.249 . S
Mg210 O211 2.028 . S
Mg210 O217 1.986 . S
Mg210 O219 2.114 . S
Mg210 O220 2.251 . S
Mg210 O223 2.010 . S
O211 Mg210 2.028 . S
O211 C214 1.250 . S
O212 Mg213 2.028 . S
O212 C214 1.248 . S
Mg213 O212 2.028 . S
Mg213 O218 2.032 . S
Mg213 O220 2.079 . S
C214 O211 1.250 . S
C214 O212 1.248 . S
C215 O216 1.264 . S
C215 O223 1.249 . S
O216 C215 1.264 . S
O217 Mg210 1.986 . S
O217 C221 1.246 . S
O218 Mg213 2.032 . S
O218 C221 1.259 . S
O219 Mg210 2.114 . S
O219 C222 1.252 . S
O220 Mg210 2.251 . S
O220 Mg213 2.079 . S
O220 C222 1.273 . S
C221 O217 1.246 . S
C221 O218 1.259 . S
C222 O219 1.252 . S
C222 O220 1.273 . S
O223 Mg210 2.010 . S
O223 C215 1.249 . S
Mg224 O225 2.028 . S
Mg224 O231 1.986 . S
Mg224 O233 2.114 . S
Mg224 O234 2.251 . S
Mg224 O237 2.010 . S
O225 Mg224 2.028 . S
O225 C228 1.250 . S
O226 Mg227 2.028 . S
O226 C228 1.248 . S
Mg227 O226 2.028 . S
Mg227 O232 2.032 . S
Mg227 O234 2.079 . S
C228 O225 1.250 . S
C228 O226 1.248 . S
C229 O230 1.264 . S
C229 O237 1.249 . S
O230 C229 1.264 . S
O231 Mg224 1.986 . S
O231 C235 1.246 . S
O232 Mg227 2.032 . S
O232 C235 1.259 . S
O233 Mg224 2.114 . S
O233 C236 1.252 . S
O234 Mg224 2.251 . S
O234 Mg227 2.079 . S
O234 C236 1.273 . S
C235 O231 1.246 . S
C235 O232 1.259 . S
C236 O233 1.252 . S
C236 O234 1.273 . S
O237 Mg224 2.010 . S
O237 C229 1.249 . S
Mg238 O239 2.028 . S
Mg238 O245 1.986 . S
Mg238 O247 2.114 . S
Mg238 O248 2.251 . S
Mg238 O251 2.010 . S
O239 Mg238 2.028 . S
O239 C242 1.250 . S
O240 Mg241 2.028 . S
O240 C242 1.248 . S
Mg241 O240 2.028 . S
Mg241 O246 2.032 . S
Mg241 O248 2.079 . S
C242 O239 1.250 . S
C242 O240 1.248 . S
C243 O244 1.264 . S
C243 O251 1.249 . S
O244 C243 1.264 . S
O245 Mg238 1.986 . S
O245 C249 1.246 . S
O246 Mg241 2.032 . S
O246 C249 1.259 . S
O247 Mg238 2.114 . S
O247 C250 1.252 . S
O248 Mg238 2.251 . S
O248 Mg241 2.079 . S
O248 C250 1.273 . S
C249 O245 1.246 . S
C249 O246 1.259 . S
C250 O247 1.252 . S
C250 O248 1.273 . S
O251 Mg238 2.010 . S
O251 C243 1.249 . S
Mg252 O253 2.028 . S
Mg252 O259 1.986 . S
Mg252 O261 2.114 . S
Mg252 O262 2.251 . S
Mg252 O265 2.010 . S
O253 Mg252 2.028 . S
O253 C256 1.250 . S
O254 Mg255 2.028 . S
O254 C256 1.248 . S
Mg255 O254 2.028 . S
Mg255 O260 2.032 . S
Mg255 O262 2.079 . S
C256 O253 1.250 . S
C256 O254 1.248 . S
C257 O258 1.264 . S
C257 O265 1.249 . S
O258 C257 1.264 . S
O259 Mg252 1.986 . S
O259 C263 1.246 . S
O260 Mg255 2.032 . S
O260 C263 1.259 . S
O261 Mg252 2.114 . S
O261 C264 1.252 . S
O262 Mg252 2.251 . S
O262 Mg255 2.079 . S
O262 C264 1.273 . S
C263 O259 1.246 . S
C263 O260 1.259 . S
C264 O261 1.252 . S
C264 O262 1.273 . S
O265 Mg252 2.010 . S
O265 C257 1.249 . S
Mg266 O267 2.028 . S
Mg266 O273 1.986 . S
Mg266 O275 2.114 . S
Mg266 O276 2.251 . S
Mg266 O279 2.010 . S
O267 Mg266 2.028 . S
O267 C270 1.250 . S
O268 Mg269 2.028 . S
O268 C270 1.248 . S
Mg269 O268 2.028 . S
Mg269 O274 2.032 . S
Mg269 O276 2.079 . S
C270 O267 1.250 . S
C270 O268 1.248 . S
C271 O272 1.264 . S
C271 O279 1.249 . S
O272 C271 1.264 . S
O273 Mg266 1.986 . S
O273 C277 1.246 . S
O274 Mg269 2.032 . S
O274 C277 1.259 . S
O275 Mg266 2.114 . S
O275 C278 1.252 . S
O276 Mg266 2.251 . S
O276 Mg269 2.079 . S
O276 C278 1.273 . S
C277 O273 1.246 . S
C277 O274 1.259 . S
C278 O275 1.252 . S
C278 O276 1.273 . S
O279 Mg266 2.010 . S
O279 C271 1.249 . S
Mg280 O281 2.028 . S
Mg280 O287 1.986 . S
Mg280 O289 2.114 . S
Mg280 O290 2.251 . S
Mg280 O293 2.010 . S
O281 Mg280 2.028 . S
O281 C284 1.250 . S
O282 Mg283 2.028 . S
O282 C284 1.248 . S
Mg283 O282 2.028 . S
Mg283 O288 2.032 . S
Mg283 O290 2.079 . S
C284 O281 1.250 . S
C284 O282 1.248 . S
C285 O286 1.264 . S
C285 O293 1.249 . S
O286 C285 1.264 . S
O287 Mg280 1.986 . S
O287 C291 1.246 . S
O288 Mg283 2.032 . S
O288 C291 1.259 . S
O289 Mg280 2.114 . S
O289 C292 1.252 . S
O290 Mg280 2.251 . S
O290 Mg283 2.079 . S
O290 C292 1.273 . S
C291 O287 1.246 . S
C291 O288 1.259 . S
C292 O289 1.252 . S
C292 O290 1.273 . S
O293 Mg280 2.010 . S
O293 C285 1.249 . S
Mg294 O295 2.028 . S
Mg294 O301 1.986 . S
Mg294 O303 2.114 . S
Mg294 O304 2.251 . S
Mg294 O307 2.010 . S
O295 Mg294 2.028 . S
O295 C298 1.250 . S
O296 Mg297 2.028 . S
O296 C298 1.248 . S
Mg297 O296 2.028 . S
Mg297 O302 2.032 . S
Mg297 O304 2.079 . S
C298 O295 1.250 . S
C298 O296 1.248 . S
C299 O300 1.264 . S
C299 O307 1.249 . S
O300 C299 1.264 . S
O301 Mg294 1.986 . S
O301 C305 1.246 . S
O302 Mg297 2.032 . S
O302 C305 1.259 . S
O303 Mg294 2.114 . S
O303 C306 1.252 . S
O304 Mg294 2.251 . S
O304 Mg297 2.079 . S
O304 C306 1.273 . S
C305 O301 1.246 . S
C305 O302 1.259 . S
C306 O303 1.252 . S
C306 O304 1.273 . S
O307 Mg294 2.010 . S
O307 C299 1.249 . S
Mg308 O309 2.028 . S
Mg308 O315 1.986 . S
Mg308 O317 2.114 . S
Mg308 O318 2.251 . S
Mg308 O321 2.010 . S
O309 Mg308 2.028 . S
O309 C312 1.250 . S
O310 Mg311 2.028 . S
O310 C312 1.248 . S
Mg311 O310 2.028 . S
Mg311 O316 2.032 . S
Mg311 O318 2.079 . S
C312 O309 1.250 . S
C312 O310 1.248 . S
C313 O314 1.264 . S
C313 O321 1.249 . S
O314 C313 1.264 . S
O315 Mg308 1.986 . S
O315 C319 1.246 . S
O316 Mg311 2.032 . S
O316 C319 1.259 . S
O317 Mg308 2.114 . S
O317 C320 1.252 . S
O318 Mg308 2.251 . S
O318 Mg311 2.079 . S
O318 C320 1.273 . S
C319 O315 1.246 . S
C319 O316 1.259 . S
C320 O317 1.252 . S
C320 O318 1.273 . S
O321 Mg308 2.010 . S
O321 C313 1.249 . S
Mg322 O323 2.028 . S
Mg322 O329 1.986 . S
Mg322 O331 2.114 . S
Mg322 O332 2.251 . S
Mg322 O335 2.010 . S
O323 Mg322 2.028 . S
O323 C326 1.250 . S
O324 Mg325 2.028 . S
O324 C326 1.248 . S
Mg325 O324 2.028 . S
Mg325 O330 2.032 . S
Mg325 O332 2.079 . S
C326 O323 1.250 . S
C326 O324 1.248 . S
C327 O328 1.264 . S
C327 O335 1.249 . S
O328 C327 1.264 . S
O329 Mg322 1.986 . S
O329 C333 1.246 . S
O330 Mg325 2.032 . S
O330 C333 1.259 . S
O331 Mg322 2.114 . S
O331 C334 1.252 . S
O332 Mg322 2.251 . S
O332 Mg325 2.079 . S
O332 C334 1.273 . S
C333 O329 1.246 . S
C333 O330 1.259 . S
C334 O331 1.252 . S
C334 O332 1.273 . S
O335 Mg322 2.010 . S
O335 C327 1.249 . S
H336 C354 0.951 . S
H337 C356 0.951 . S
H338 C358 0.950 . S
H339 C359 0.950 . S
H340 C361 0.950 . S
H341 C364 0.950 . S
H342 C365 0.950 . S
H343 C367 0.950 . S
H344 C368 0.950 . S
H345 C369 0.951 . S
H346 C371 0.951 . S
H347 C373 0.950 . S
H348 C374 0.950 . S
H349 C376 0.950 . S
H350 C379 0.950 . S
H351 C380 0.950 . S
H352 C382 0.950 . S
H353 C383 0.950 . S
C354 H336 0.951 . S
C354 C355 1.366 . S
C354 C356 1.388 . S
C355 C354 1.366 . S
C355 C359 1.385 . S
C356 H337 0.951 . S
C356 C354 1.388 . S
C356 C357 1.366 . S
C357 C356 1.366 . S
C357 C358 1.414 . S
C357 C360 1.499 . S
C358 H338 0.950 . S
C358 C357 1.414 . S
C358 C359 1.374 . S
C359 H339 0.950 . S
C359 C355 1.385 . S
C359 C358 1.374 . S
C360 C357 1.499 . S
C360 C361 1.373 . S
C360 C362 1.389 . S
C361 H340 0.950 . S
C361 C360 1.373 . S
C361 C377 1.377 . S
C362 C360 1.389 . S
C362 C363 1.524 . S
C362 C376 1.377 . S
C363 C362 1.524 . S
C363 C364 1.397 . S
C363 C368 1.363 . S
C364 H341 0.950 . S
C364 C363 1.397 . S
C364 C365 1.334 . S
C365 H342 0.950 . S
C365 C364 1.334 . S
C365 C366 1.287 . S
C366 C365 1.287 . S
C366 C367 1.524 . S
C366 H385 0.913 . S
C367 H343 0.950 . S
C367 C366 1.524 . S
C367 C368 1.415 . S
C368 H344 0.950 . S
C368 C363 1.363 . S
C368 C367 1.415 . S
C369 H345 0.951 . S
C369 C370 1.366 . S
C369 C371 1.388 . S
C370 C369 1.366 . S
C370 C374 1.385 . S
C371 H346 0.951 . S
C371 C369 1.388 . S
C371 C372 1.366 . S
C372 C371 1.366 . S
C372 C373 1.414 . S
C372 C375 1.499 . S
C373 H347 0.950 . S
C373 C372 1.414 . S
C373 C374 1.374 . S
C374 H348 0.950 . S
C374 C370 1.385 . S
C374 C373 1.374 . S
C375 C372 1.499 . S
C375 C376 1.373 . S
C375 C377 1.389 . S
C376 H349 0.950 . S
C376 C362 1.377 . S
C376 C375 1.373 . S
C377 C361 1.377 . S
C377 C375 1.389 . S
C377 C378 1.524 . S
C378 C377 1.524 . S
C378 C379 1.397 . S
C378 C383 1.363 . S
C379 H350 0.950 . S
C379 C378 1.397 . S
C379 C380 1.334 . S
C380 H351 0.950 . S
C380 C379 1.334 . S
C380 C381 1.287 . S
C381 C380 1.287 . S
C381 C382 1.524 . S
C381 H384 0.999 . S
C382 H352 0.950 . S
C382 C381 1.524 . S
C382 C383 1.415 . S
C383 H353 0.950 . S
C383 C378 1.363 . S
C383 C382 1.415 . S
H384 C381 0.999 . S
H385 C366 0.913 . S
H386 C404 0.951 . S
H387 C406 0.951 . S
H388 C408 0.950 . S
H389 C409 0.950 . S
H390 C411 0.950 . S
H391 C414 0.950 . S
H392 C415 0.950 . S
H393 C417 0.950 . S
H394 C418 0.950 . S
H395 C419 0.951 . S
H396 C421 0.951 . S
H397 C423 0.950 . S
H398 C424 0.950 . S
H399 C426 0.950 . S
H400 C429 0.950 . S
H401 C430 0.950 . S
H402 C432 0.950 . S
H403 C433 0.950 . S
C404 H386 0.951 . S
C404 C405 1.366 . S
C404 C406 1.388 . S
C405 C404 1.366 . S
C405 C409 1.385 . S
C406 H387 0.951 . S
C406 C404 1.388 . S
C406 C407 1.366 . S
C407 C406 1.366 . S
C407 C408 1.414 . S
C407 C410 1.499 . S
C408 H388 0.950 . S
C408 C407 1.414 . S
C408 C409 1.374 . S
C409 H389 0.950 . S
C409 C405 1.385 . S
C409 C408 1.374 . S
C410 C407 1.499 . S
C410 C411 1.373 . S
C410 C412 1.389 . S
C411 H390 0.950 . S
C411 C410 1.373 . S
C411 C427 1.377 . S
C412 C410 1.389 . S
C412 C413 1.524 . S
C412 C426 1.377 . S
C413 C412 1.524 . S
C413 C414 1.397 . S
C413 C418 1.363 . S
C414 H391 0.950 . S
C414 C413 1.397 . S
C414 C415 1.334 . S
C415 H392 0.950 . S
C415 C414 1.334 . S
C415 C416 1.287 . S
C416 C415 1.287 . S
C416 C417 1.524 . S
C416 H435 0.913 . S
C417 H393 0.950 . S
C417 C416 1.524 . S
C417 C418 1.415 . S
C418 H394 0.950 . S
C418 C413 1.363 . S
C418 C417 1.415 . S
C419 H395 0.951 . S
C419 C420 1.366 . S
C419 C421 1.388 . S
C420 C419 1.366 . S
C420 C424 1.385 . S
C421 H396 0.951 . S
C421 C419 1.388 . S
C421 C422 1.366 . S
C422 C421 1.366 . S
C422 C423 1.414 . S
C422 C425 1.499 . S
C423 H397 0.950 . S
C423 C422 1.414 . S
C423 C424 1.374 . S
C424 H398 0.950 . S
C424 C420 1.385 . S
C424 C423 1.374 . S
C425 C422 1.499 . S
C425 C426 1.373 . S
C425 C427 1.389 . S
C426 H399 0.950 . S
C426 C412 1.377 . S
C426 C425 1.373 . S
C427 C411 1.377 . S
C427 C425 1.389 . S
C427 C428 1.524 . S
C428 C427 1.524 . S
C428 C429 1.397 . S
C428 C433 1.363 . S
C429 H400 0.950 . S
C429 C428 1.397 . S
C429 C430 1.334 . S
C430 H401 0.950 . S
C430 C429 1.334 . S
C430 C431 1.287 . S
C431 C430 1.287 . S
C431 C432 1.524 . S
C431 H434 0.999 . S
C432 H402 0.950 . S
C432 C431 1.524 . S
C432 C433 1.415 . S
C433 H403 0.950 . S
C433 C428 1.363 . S
C433 C432 1.415 . S
H434 C431 0.999 . S
H435 C416 0.913 . S
H436 C454 0.951 . S
H437 C456 0.951 . S
H438 C458 0.950 . S
H439 C459 0.950 . S
H440 C461 0.950 . S
H441 C464 0.950 . S
H442 C465 0.950 . S
H443 C467 0.950 . S
H444 C468 0.950 . S
H445 C469 0.951 . S
H446 C471 0.951 . S
H447 C473 0.950 . S
H448 C474 0.950 . S
H449 C476 0.950 . S
H450 C479 0.950 . S
H451 C480 0.950 . S
H452 C482 0.950 . S
H453 C483 0.950 . S
C454 H436 0.951 . S
C454 C455 1.366 . S
C454 C456 1.388 . S
C455 C454 1.366 . S
C455 C459 1.385 . S
C456 H437 0.951 . S
C456 C454 1.388 . S
C456 C457 1.366 . S
C457 C456 1.366 . S
C457 C458 1.414 . S
C457 C460 1.499 . S
C458 H438 0.950 . S
C458 C457 1.414 . S
C458 C459 1.374 . S
C459 H439 0.950 . S
C459 C455 1.385 . S
C459 C458 1.374 . S
C460 C457 1.499 . S
C460 C461 1.373 . S
C460 C462 1.389 . S
C461 H440 0.950 . S
C461 C460 1.373 . S
C461 C477 1.377 . S
C462 C460 1.389 . S
C462 C463 1.524 . S
C462 C476 1.377 . S
C463 C462 1.524 . S
C463 C464 1.397 . S
C463 C468 1.363 . S
C464 H441 0.950 . S
C464 C463 1.397 . S
C464 C465 1.334 . S
C465 H442 0.950 . S
C465 C464 1.334 . S
C465 C466 1.287 . S
C466 C465 1.287 . S
C466 C467 1.524 . S
C466 H485 0.913 . S
C467 H443 0.950 . S
C467 C466 1.524 . S
C467 C468 1.415 . S
C468 H444 0.950 . S
C468 C463 1.363 . S
C468 C467 1.415 . S
C469 H445 0.951 . S
C469 C470 1.366 . S
C469 C471 1.388 . S
C470 C469 1.366 . S
C470 C474 1.385 . S
C471 H446 0.951 . S
C471 C469 1.388 . S
C471 C472 1.366 . S
C472 C471 1.366 . S
C472 C473 1.414 . S
C472 C475 1.499 . S
C473 H447 0.950 . S
C473 C472 1.414 . S
C473 C474 1.374 . S
C474 H448 0.950 . S
C474 C470 1.385 . S
C474 C473 1.374 . S
C475 C472 1.499 . S
C475 C476 1.373 . S
C475 C477 1.389 . S
C476 H449 0.950 . S
C476 C462 1.377 . S
C476 C475 1.373 . S
C477 C461 1.377 . S
C477 C475 1.389 . S
C477 C478 1.524 . S
C478 C477 1.524 . S
C478 C479 1.397 . S
C478 C483 1.363 . S
C479 H450 0.950 . S
C479 C478 1.397 . S
C479 C480 1.334 . S
C480 H451 0.950 . S
C480 C479 1.334 . S
C480 C481 1.287 . S
C481 C480 1.287 . S
C481 C482 1.524 . S
C481 H484 0.999 . S
C482 H452 0.950 . S
C482 C481 1.524 . S
C482 C483 1.415 . S
C483 H453 0.950 . S
C483 C478 1.363 . S
C483 C482 1.415 . S
H484 C481 0.999 . S
H485 C466 0.913 . S
H486 C504 0.951 . S
H487 C506 0.951 . S
H488 C508 0.950 . S
H489 C509 0.950 . S
H490 C511 0.950 . S
H491 C514 0.950 . S
H492 C515 0.950 . S
H493 C517 0.950 . S
H494 C518 0.950 . S
H495 C519 0.951 . S
H496 C521 0.951 . S
H497 C523 0.950 . S
H498 C524 0.950 . S
H499 C526 0.950 . S
H500 C529 0.950 . S
H501 C530 0.950 . S
H502 C532 0.950 . S
H503 C533 0.950 . S
C504 H486 0.951 . S
C504 C505 1.366 . S
C504 C506 1.388 . S
C505 C504 1.366 . S
C505 C509 1.385 . S
C506 H487 0.951 . S
C506 C504 1.388 . S
C506 C507 1.366 . S
C507 C506 1.366 . S
C507 C508 1.414 . S
C507 C510 1.499 . S
C508 H488 0.950 . S
C508 C507 1.414 . S
C508 C509 1.374 . S
C509 H489 0.950 . S
C509 C505 1.385 . S
C509 C508 1.374 . S
C510 C507 1.499 . S
C510 C511 1.373 . S
C510 C512 1.389 . S
C511 H490 0.950 . S
C511 C510 1.373 . S
C511 C527 1.377 . S
C512 C510 1.389 . S
C512 C513 1.524 . S
C512 C526 1.377 . S
C513 C512 1.524 . S
C513 C514 1.397 . S
C513 C518 1.363 . S
C514 H491 0.950 . S
C514 C513 1.397 . S
C514 C515 1.334 . S
C515 H492 0.950 . S
C515 C514 1.334 . S
C515 C516 1.287 . S
C516 C515 1.287 . S
C516 C517 1.524 . S
C516 H535 0.913 . S
C517 H493 0.950 . S
C517 C516 1.524 . S
C517 C518 1.415 . S
C518 H494 0.950 . S
C518 C513 1.363 . S
C518 C517 1.415 . S
C519 H495 0.951 . S
C519 C520 1.366 . S
C519 C521 1.388 . S
C520 C519 1.366 . S
C520 C524 1.385 . S
C521 H496 0.951 . S
C521 C519 1.388 . S
C521 C522 1.366 . S
C522 C521 1.366 . S
C522 C523 1.414 . S
C522 C525 1.499 . S
C523 H497 0.950 . S
C523 C522 1.414 . S
C523 C524 1.374 . S
C524 H498 0.950 . S
C524 C520 1.385 . S
C524 C523 1.374 . S
C525 C522 1.499 . S
C525 C526 1.373 . S
C525 C527 1.389 . S
C526 H499 0.950 . S
C526 C512 1.377 . S
C526 C525 1.373 . S
C527 C511 1.377 . S
C527 C525 1.389 . S
C527 C528 1.524 . S
C528 C527 1.524 . S
C528 C529 1.397 . S
C528 C533 1.363 . S
C529 H500 0.950 . S
C529 C528 1.397 . S
C529 C530 1.334 . S
C530 H501 0.950 . S
C530 C529 1.334 . S
C530 C531 1.287 . S
C531 C530 1.287 . S
C531 C532 1.524 . S
C531 H534 0.999 . S
C532 H502 0.950 . S
C532 C531 1.524 . S
C532 C533 1.415 . S
C533 H503 0.950 . S
C533 C528 1.363 . S
C533 C532 1.415 . S
H534 C531 0.999 . S
H535 C516 0.913 . S
H536 C554 0.951 . S
H537 C556 0.951 . S
H538 C558 0.950 . S
H539 C559 0.950 . S
H540 C561 0.950 . S
H541 C564 0.950 . S
H542 C565 0.950 . S
H543 C567 0.950 . S
H544 C568 0.950 . S
H545 C569 0.951 . S
H546 C571 0.951 . S
H547 C573 0.950 . S
H548 C574 0.950 . S
H549 C576 0.950 . S
H550 C579 0.950 . S
H551 C580 0.950 . S
H552 C582 0.950 . S
H553 C583 0.950 . S
C554 H536 0.951 . S
C554 C555 1.366 . S
C554 C556 1.388 . S
C555 C554 1.366 . S
C555 C559 1.385 . S
C556 H537 0.951 . S
C556 C554 1.388 . S
C556 C557 1.366 . S
C557 C556 1.366 . S
C557 C558 1.414 . S
C557 C560 1.499 . S
C558 H538 0.950 . S
C558 C557 1.414 . S
C558 C559 1.374 . S
C559 H539 0.950 . S
C559 C555 1.385 . S
C559 C558 1.374 . S
C560 C557 1.499 . S
C560 C561 1.373 . S
C560 C562 1.389 . S
C561 H540 0.950 . S
C561 C560 1.373 . S
C561 C577 1.377 . S
C562 C560 1.389 . S
C562 C563 1.524 . S
C562 C576 1.377 . S
C563 C562 1.524 . S
C563 C564 1.397 . S
C563 C568 1.363 . S
C564 H541 0.950 . S
C564 C563 1.397 . S
C564 C565 1.334 . S
C565 H542 0.950 . S
C565 C564 1.334 . S
C565 C566 1.287 . S
C566 C565 1.287 . S
C566 C567 1.524 . S
C566 H585 0.913 . S
C567 H543 0.950 . S
C567 C566 1.524 . S
C567 C568 1.415 . S
C568 H544 0.950 . S
C568 C563 1.363 . S
C568 C567 1.415 . S
C569 H545 0.951 . S
C569 C570 1.366 . S
C569 C571 1.388 . S
C570 C569 1.366 . S
C570 C574 1.385 . S
C571 H546 0.951 . S
C571 C569 1.388 . S
C571 C572 1.366 . S
C572 C571 1.366 . S
C572 C573 1.414 . S
C572 C575 1.499 . S
C573 H547 0.950 . S
C573 C572 1.414 . S
C573 C574 1.374 . S
C574 H548 0.950 . S
C574 C570 1.385 . S
C574 C573 1.374 . S
C575 C572 1.499 . S
C575 C576 1.373 . S
C575 C577 1.389 . S
C576 H549 0.950 . S
C576 C562 1.377 . S
C576 C575 1.373 . S
C577 C561 1.377 . S
C577 C575 1.389 . S
C577 C578 1.524 . S
C578 C577 1.524 . S
C578 C579 1.397 . S
C578 C583 1.363 . S
C579 H550 0.950 . S
C579 C578 1.397 . S
C579 C580 1.334 . S
C580 H551 0.950 . S
C580 C579 1.334 . S
C580 C581 1.287 . S
C581 C580 1.287 . S
C581 C582 1.524 . S
C581 H584 0.999 . S
C582 H552 0.950 . S
C582 C581 1.524 . S
C582 C583 1.415 . S
C583 H553 0.950 . S
C583 C578 1.363 . S
C583 C582 1.415 . S
H584 C581 0.999 . S
H585 C566 0.913 . S
H586 C604 0.951 . S
H587 C606 0.951 . S
H588 C608 0.950 . S
H589 C609 0.950 . S
H590 C611 0.950 . S
H591 C614 0.950 . S
H592 C615 0.950 . S
H593 C617 0.950 . S
H594 C618 0.950 . S
H595 C619 0.951 . S
H596 C621 0.951 . S
H597 C623 0.950 . S
H598 C624 0.950 . S
H599 C626 0.950 . S
H600 C629 0.950 . S
H601 C630 0.950 . S
H602 C632 0.950 . S
H603 C633 0.950 . S
C604 H586 0.951 . S
C604 C605 1.366 . S
C604 C606 1.388 . S
C605 C604 1.366 . S
C605 C609 1.385 . S
C606 H587 0.951 . S
C606 C604 1.388 . S
C606 C607 1.366 . S
C607 C606 1.366 . S
C607 C608 1.414 . S
C607 C610 1.499 . S
C608 H588 0.950 . S
C608 C607 1.414 . S
C608 C609 1.374 . S
C609 H589 0.950 . S
C609 C605 1.385 . S
C609 C608 1.374 . S
C610 C607 1.499 . S
C610 C611 1.373 . S
C610 C612 1.389 . S
C611 H590 0.950 . S
C611 C610 1.373 . S
C611 C627 1.377 . S
C612 C610 1.389 . S
C612 C613 1.524 . S
C612 C626 1.377 . S
C613 C612 1.524 . S
C613 C614 1.397 . S
C613 C618 1.363 . S
C614 H591 0.950 . S
C614 C613 1.397 . S
C614 C615 1.334 . S
C615 H592 0.950 . S
C615 C614 1.334 . S
C615 C616 1.287 . S
C616 C615 1.287 . S
C616 C617 1.524 . S
C616 H635 0.913 . S
C617 H593 0.950 . S
C617 C616 1.524 . S
C617 C618 1.415 . S
C618 H594 0.950 . S
C618 C613 1.363 . S
C618 C617 1.415 . S
C619 H595 0.951 . S
C619 C620 1.366 . S
C619 C621 1.388 . S
C620 C619 1.366 . S
C620 C624 1.385 . S
C621 H596 0.951 . S
C621 C619 1.388 . S
C621 C622 1.366 . S
C622 C621 1.366 . S
C622 C623 1.414 . S
C622 C625 1.499 . S
C623 H597 0.950 . S
C623 C622 1.414 . S
C623 C624 1.374 . S
C624 H598 0.950 . S
C624 C620 1.385 . S
C624 C623 1.374 . S
C625 C622 1.499 . S
C625 C626 1.373 . S
C625 C627 1.389 . S
C626 H599 0.950 . S
C626 C612 1.377 . S
C626 C625 1.373 . S
C627 C611 1.377 . S
C627 C625 1.389 . S
C627 C628 1.524 . S
C628 C627 1.524 . S
C628 C629 1.397 . S
C628 C633 1.363 . S
C629 H600 0.950 . S
C629 C628 1.397 . S
C629 C630 1.334 . S
C630 H601 0.950 . S
C630 C629 1.334 . S
C630 C631 1.287 . S
C631 C630 1.287 . S
C631 C632 1.524 . S
C631 H634 0.999 . S
C632 H602 0.950 . S
C632 C631 1.524 . S
C632 C633 1.415 . S
C633 H603 0.950 . S
C633 C628 1.363 . S
C633 C632 1.415 . S
H634 C631 0.999 . S
H635 C616 0.913 . S
H636 C654 0.951 . S
H637 C656 0.951 . S
H638 C658 0.950 . S
H639 C659 0.950 . S
H640 C661 0.950 . S
H641 C664 0.950 . S
H642 C665 0.950 . S
H643 C667 0.950 . S
H644 C668 0.950 . S
H645 C669 0.951 . S
H646 C671 0.951 . S
H647 C673 0.950 . S
H648 C674 0.950 . S
H649 C676 0.950 . S
H650 C679 0.950 . S
H651 C680 0.950 . S
H652 C682 0.950 . S
H653 C683 0.950 . S
C654 H636 0.951 . S
C654 C655 1.366 . S
C654 C656 1.388 . S
C655 C654 1.366 . S
C655 C659 1.385 . S
C656 H637 0.951 . S
C656 C654 1.388 . S
C656 C657 1.366 . S
C657 C656 1.366 . S
C657 C658 1.414 . S
C657 C660 1.499 . S
C658 H638 0.950 . S
C658 C657 1.414 . S
C658 C659 1.374 . S
C659 H639 0.950 . S
C659 C655 1.385 . S
C659 C658 1.374 . S
C660 C657 1.499 . S
C660 C661 1.373 . S
C660 C662 1.389 . S
C661 H640 0.950 . S
C661 C660 1.373 . S
C661 C677 1.377 . S
C662 C660 1.389 . S
C662 C663 1.524 . S
C662 C676 1.377 . S
C663 C662 1.524 . S
C663 C664 1.397 . S
C663 C668 1.363 . S
C664 H641 0.950 . S
C664 C663 1.397 . S
C664 C665 1.334 . S
C665 H642 0.950 . S
C665 C664 1.334 . S
C665 C666 1.287 . S
C666 C665 1.287 . S
C666 C667 1.524 . S
C666 H685 0.913 . S
C667 H643 0.950 . S
C667 C666 1.524 . S
C667 C668 1.415 . S
C668 H644 0.950 . S
C668 C663 1.363 . S
C668 C667 1.415 . S
C669 H645 0.951 . S
C669 C670 1.366 . S
C669 C671 1.388 . S
C670 C669 1.366 . S
C670 C674 1.385 . S
C671 H646 0.951 . S
C671 C669 1.388 . S
C671 C672 1.366 . S
C672 C671 1.366 . S
C672 C673 1.414 . S
C672 C675 1.499 . S
C673 H647 0.950 . S
C673 C672 1.414 . S
C673 C674 1.374 . S
C674 H648 0.950 . S
C674 C670 1.385 . S
C674 C673 1.374 . S
C675 C672 1.499 . S
C675 C676 1.373 . S
C675 C677 1.389 . S
C676 H649 0.950 . S
C676 C662 1.377 . S
C676 C675 1.373 . S
C677 C661 1.377 . S
C677 C675 1.389 . S
C677 C678 1.524 . S
C678 C677 1.524 . S
C678 C679 1.397 . S
C678 C683 1.363 . S
C679 H650 0.950 . S
C679 C678 1.397 . S
C679 C680 1.334 . S
C680 H651 0.950 . S
C680 C679 1.334 . S
C680 C681 1.287 . S
C681 C680 1.287 . S
C681 C682 1.524 . S
C681 H684 0.999 . S
C682 H652 0.950 . S
C682 C681 1.524 . S
C682 C683 1.415 . S
C683 H653 0.950 . S
C683 C678 1.363 . S
C683 C682 1.415 . S
H684 C681 0.999 . S
H685 C666 0.913 . S
H686 C704 0.951 . S
H687 C706 0.951 . S
H688 C708 0.950 . S
H689 C709 0.950 . S
H690 C711 0.950 . S
H691 C714 0.950 . S
H692 C715 0.950 . S
H693 C717 0.950 . S
H694 C718 0.950 . S
H695 C719 0.951 . S
H696 C721 0.951 . S
H697 C723 0.950 . S
H698 C724 0.950 . S
H699 C726 0.950 . S
H700 C729 0.950 . S
H701 C730 0.950 . S
H702 C732 0.950 . S
H703 C733 0.950 . S
C704 H686 0.951 . S
C704 C705 1.366 . S
C704 C706 1.388 . S
C705 C704 1.366 . S
C705 C709 1.385 . S
C706 H687 0.951 . S
C706 C704 1.388 . S
C706 C707 1.366 . S
C707 C706 1.366 . S
C707 C708 1.414 . S
C707 C710 1.499 . S
C708 H688 0.950 . S
C708 C707 1.414 . S
C708 C709 1.374 . S
C709 H689 0.950 . S
C709 C705 1.385 . S
C709 C708 1.374 . S
C710 C707 1.499 . S
C710 C711 1.373 . S
C710 C712 1.389 . S
C711 H690 0.950 . S
C711 C710 1.373 . S
C711 C727 1.377 . S
C712 C710 1.389 . S
C712 C713 1.524 . S
C712 C726 1.377 . S
C713 C712 1.524 . S
C713 C714 1.397 . S
C713 C718 1.363 . S
C714 H691 0.950 . S
C714 C713 1.397 . S
C714 C715 1.334 . S
C715 H692 0.950 . S
C715 C714 1.334 . S
C715 C716 1.287 . S
C716 C715 1.287 . S
C716 C717 1.524 . S
C716 H735 0.913 . S
C717 H693 0.950 . S
C717 C716 1.524 . S
C717 C718 1.415 . S
C718 H694 0.950 . S
C718 C713 1.363 . S
C718 C717 1.415 . S
C719 H695 0.951 . S
C719 C720 1.366 . S
C719 C721 1.388 . S
C720 C719 1.366 . S
C720 C724 1.385 . S
C721 H696 0.951 . S
C721 C719 1.388 . S
C721 C722 1.366 . S
C722 C721 1.366 . S
C722 C723 1.414 . S
C722 C725 1.499 . S
C723 H697 0.950 . S
C723 C722 1.414 . S
C723 C724 1.374 . S
C724 H698 0.950 . S
C724 C720 1.385 . S
C724 C723 1.374 . S
C725 C722 1.499 . S
C725 C726 1.373 . S
C725 C727 1.389 . S
C726 H699 0.950 . S
C726 C712 1.377 . S
C726 C725 1.373 . S
C727 C711 1.377 . S
C727 C725 1.389 . S
C727 C728 1.524 . S
C728 C727 1.524 . S
C728 C729 1.397 . S
C728 C733 1.363 . S
C729 H700 0.950 . S
C729 C728 1.397 . S
C729 C730 1.334 . S
C730 H701 0.950 . S
C730 C729 1.334 . S
C730 C731 1.287 . S
C731 C730 1.287 . S
C731 C732 1.524 . S
C731 H734 0.999 . S
C732 H702 0.950 . S
C732 C731 1.524 . S
C732 C733 1.415 . S
C733 H703 0.950 . S
C733 C728 1.363 . S
C733 C732 1.415 . S
H734 C731 0.999 . S
H735 C716 0.913 . S
H736 C754 0.951 . S
H737 C756 0.951 . S
H738 C758 0.950 . S
H739 C759 0.950 . S
H740 C761 0.950 . S
H741 C764 0.950 . S
H742 C765 0.950 . S
H743 C767 0.950 . S
H744 C768 0.950 . S
H745 C769 0.951 . S
H746 C771 0.951 . S
H747 C773 0.950 . S
H748 C774 0.950 . S
H749 C776 0.950 . S
H750 C779 0.950 . S
H751 C780 0.950 . S
H752 C782 0.950 . S
H753 C783 0.950 . S
C754 H736 0.951 . S
C754 C755 1.366 . S
C754 C756 1.388 . S
C755 C754 1.366 . S
C755 C759 1.385 . S
C756 H737 0.951 . S
C756 C754 1.388 . S
C756 C757 1.366 . S
C757 C756 1.366 . S
C757 C758 1.414 . S
C757 C760 1.499 . S
C758 H738 0.950 . S
C758 C757 1.414 . S
C758 C759 1.374 . S
C759 H739 0.950 . S
C759 C755 1.385 . S
C759 C758 1.374 . S
C760 C757 1.499 . S
C760 C761 1.373 . S
C760 C762 1.389 . S
C761 H740 0.950 . S
C761 C760 1.373 . S
C761 C777 1.377 . S
C762 C760 1.389 . S
C762 C763 1.524 . S
C762 C776 1.377 . S
C763 C762 1.524 . S
C763 C764 1.397 . S
C763 C768 1.363 . S
C764 H741 0.950 . S
C764 C763 1.397 . S
C764 C765 1.334 . S
C765 H742 0.950 . S
C765 C764 1.334 . S
C765 C766 1.287 . S
C766 C765 1.287 . S
C766 C767 1.524 . S
C766 H785 0.913 . S
C767 H743 0.950 . S
C767 C766 1.524 . S
C767 C768 1.415 . S
C768 H744 0.950 . S
C768 C763 1.363 . S
C768 C767 1.415 . S
C769 H745 0.951 . S
C769 C770 1.366 . S
C769 C771 1.388 . S
C770 C769 1.366 . S
C770 C774 1.385 . S
C771 H746 0.951 . S
C771 C769 1.388 . S
C771 C772 1.366 . S
C772 C771 1.366 . S
C772 C773 1.414 . S
C772 C775 1.499 . S
C773 H747 0.950 . S
C773 C772 1.414 . S
C773 C774 1.374 . S
C774 H748 0.950 . S
C774 C770 1.385 . S
C774 C773 1.374 . S
C775 C772 1.499 . S
C775 C776 1.373 . S
C775 C777 1.389 . S
C776 H749 0.950 . S
C776 C762 1.377 . S
C776 C775 1.373 . S
C777 C761 1.377 . S
C777 C775 1.389 . S
C777 C778 1.524 . S
C778 C777 1.524 . S
C778 C779 1.397 . S
C778 C783 1.363 . S
C779 H750 0.950 . S
C779 C778 1.397 . S
C779 C780 1.334 . S
C780 H751 0.950 . S
C780 C779 1.334 . S
C780 C781 1.287 . S
C781 C780 1.287 . S
C781 C782 1.524 . S
C781 H784 0.999 . S
C782 H752 0.950 . S
C782 C781 1.524 . S
C782 C783 1.415 . S
C783 H753 0.950 . S
C783 C778 1.363 . S
C783 C782 1.415 . S
H784 C781 0.999 . S
H785 C766 0.913 . S
H786 C804 0.951 . S
H787 C806 0.951 . S
H788 C808 0.950 . S
H789 C809 0.950 . S
H790 C811 0.950 . S
H791 C814 0.950 . S
H792 C815 0.950 . S
H793 C817 0.950 . S
H794 C818 0.950 . S
H795 C819 0.951 . S
H796 C821 0.951 . S
H797 C823 0.950 . S
H798 C824 0.950 . S
H799 C826 0.950 . S
H800 C829 0.950 . S
H801 C830 0.950 . S
H802 C832 0.950 . S
H803 C833 0.950 . S
C804 H786 0.951 . S
C804 C805 1.366 . S
C804 C806 1.388 . S
C805 C804 1.366 . S
C805 C809 1.385 . S
C806 H787 0.951 . S
C806 C804 1.388 . S
C806 C807 1.366 . S
C807 C806 1.366 . S
C807 C808 1.414 . S
C807 C810 1.499 . S
C808 H788 0.950 . S
C808 C807 1.414 . S
C808 C809 1.374 . S
C809 H789 0.950 . S
C809 C805 1.385 . S
C809 C808 1.374 . S
C810 C807 1.499 . S
C810 C811 1.373 . S
C810 C812 1.389 . S
C811 H790 0.950 . S
C811 C810 1.373 . S
C811 C827 1.377 . S
C812 C810 1.389 . S
C812 C813 1.524 . S
C812 C826 1.377 . S
C813 C812 1.524 . S
C813 C814 1.397 . S
C813 C818 1.363 . S
C814 H791 0.950 . S
C814 C813 1.397 . S
C814 C815 1.334 . S
C815 H792 0.950 . S
C815 C814 1.334 . S
C815 C816 1.287 . S
C816 C815 1.287 . S
C816 C817 1.524 . S
C816 H835 0.913 . S
C817 H793 0.950 . S
C817 C816 1.524 . S
C817 C818 1.415 . S
C818 H794 0.950 . S
C818 C813 1.363 . S
C818 C817 1.415 . S
C819 H795 0.951 . S
C819 C820 1.366 . S
C819 C821 1.388 . S
C820 C819 1.366 . S
C820 C824 1.385 . S
C821 H796 0.951 . S
C821 C819 1.388 . S
C821 C822 1.366 . S
C822 C821 1.366 . S
C822 C823 1.414 . S
C822 C825 1.499 . S
C823 H797 0.950 . S
C823 C822 1.414 . S
C823 C824 1.374 . S
C824 H798 0.950 . S
C824 C820 1.385 . S
C824 C823 1.374 . S
C825 C822 1.499 . S
C825 C826 1.373 . S
C825 C827 1.389 . S
C826 H799 0.950 . S
C826 C812 1.377 . S
C826 C825 1.373 . S
C827 C811 1.377 . S
C827 C825 1.389 . S
C827 C828 1.524 . S
C828 C827 1.524 . S
C828 C829 1.397 . S
C828 C833 1.363 . S
C829 H800 0.950 . S
C829 C828 1.397 . S
C829 C830 1.334 . S
C830 H801 0.950 . S
C830 C829 1.334 . S
C830 C831 1.287 . S
C831 C830 1.287 . S
C831 C832 1.524 . S
C831 H834 0.999 . S
C832 H802 0.950 . S
C832 C831 1.524 . S
C832 C833 1.415 . S
C833 H803 0.950 . S
C833 C828 1.363 . S
C833 C832 1.415 . S
H834 C831 0.999 . S
H835 C816 0.913 . S
H836 C854 0.951 . S
H837 C856 0.951 . S
H838 C858 0.950 . S
H839 C859 0.950 . S
H840 C861 0.950 . S
H841 C864 0.950 . S
H842 C865 0.950 . S
H843 C867 0.950 . S
H844 C868 0.950 . S
H845 C869 0.951 . S
H846 C871 0.951 . S
H847 C873 0.950 . S
H848 C874 0.950 . S
H849 C876 0.950 . S
H850 C879 0.950 . S
H851 C880 0.950 . S
H852 C882 0.950 . S
H853 C883 0.950 . S
C854 H836 0.951 . S
C854 C855 1.366 . S
C854 C856 1.388 . S
C855 C854 1.366 . S
C855 C859 1.385 . S
C856 H837 0.951 . S
C856 C854 1.388 . S
C856 C857 1.366 . S
C857 C856 1.366 . S
C857 C858 1.414 . S
C857 C860 1.499 . S
C858 H838 0.950 . S
C858 C857 1.414 . S
C858 C859 1.374 . S
C859 H839 0.950 . S
C859 C855 1.385 . S
C859 C858 1.374 . S
C860 C857 1.499 . S
C860 C861 1.373 . S
C860 C862 1.389 . S
C861 H840 0.950 . S
C861 C860 1.373 . S
C861 C877 1.377 . S
C862 C860 1.389 . S
C862 C863 1.524 . S
C862 C876 1.377 . S
C863 C862 1.524 . S
C863 C864 1.397 . S
C863 C868 1.363 . S
C864 H841 0.950 . S
C864 C863 1.397 . S
C864 C865 1.334 . S
C865 H842 0.950 . S
C865 C864 1.334 . S
C865 C866 1.287 . S
C866 C865 1.287 . S
C866 C867 1.524 . S
C866 H885 0.913 . S
C867 H843 0.950 . S
C867 C866 1.524 . S
C867 C868 1.415 . S
C868 H844 0.950 . S
C868 C863 1.363 . S
C868 C867 1.415 . S
C869 H845 0.951 . S
C869 C870 1.366 . S
C869 C871 1.388 . S
C870 C869 1.366 . S
C870 C874 1.385 . S
C871 H846 0.951 . S
C871 C869 1.388 . S
C871 C872 1.366 . S
C872 C871 1.366 . S
C872 C873 1.414 . S
C872 C875 1.499 . S
C873 H847 0.950 . S
C873 C872 1.414 . S
C873 C874 1.374 . S
C874 H848 0.950 . S
C874 C870 1.385 . S
C874 C873 1.374 . S
C875 C872 1.499 . S
C875 C876 1.373 . S
C875 C877 1.389 . S
C876 H849 0.950 . S
C876 C862 1.377 . S
C876 C875 1.373 . S
C877 C861 1.377 . S
C877 C875 1.389 . S
C877 C878 1.524 . S
C878 C877 1.524 . S
C878 C879 1.397 . S
C878 C883 1.363 . S
C879 H850 0.950 . S
C879 C878 1.397 . S
C879 C880 1.334 . S
C880 H851 0.950 . S
C880 C879 1.334 . S
C880 C881 1.287 . S
C881 C880 1.287 . S
C881 C882 1.524 . S
C881 H884 0.999 . S
C882 H852 0.950 . S
C882 C881 1.524 . S
C882 C883 1.415 . S
C883 H853 0.950 . S
C883 C878 1.363 . S
C883 C882 1.415 . S
H884 C881 0.999 . S
H885 C866 0.913 . S
H886 C904 0.951 . S
H887 C906 0.951 . S
H888 C908 0.950 . S
H889 C909 0.950 . S
H890 C911 0.950 . S
H891 C914 0.950 . S
H892 C915 0.950 . S
H893 C917 0.950 . S
H894 C918 0.950 . S
H895 C919 0.951 . S
H896 C921 0.951 . S
H897 C923 0.950 . S
H898 C924 0.950 . S
H899 C926 0.950 . S
H900 C929 0.950 . S
H901 C930 0.950 . S
H902 C932 0.950 . S
H903 C933 0.950 . S
C904 H886 0.951 . S
C904 C905 1.366 . S
C904 C906 1.388 . S
C905 C904 1.366 . S
C905 C909 1.385 . S
C906 H887 0.951 . S
C906 C904 1.388 . S
C906 C907 1.366 . S
C907 C906 1.366 . S
C907 C908 1.414 . S
C907 C910 1.499 . S
C908 H888 0.950 . S
C908 C907 1.414 . S
C908 C909 1.374 . S
C909 H889 0.950 . S
C909 C905 1.385 . S
C909 C908 1.374 . S
C910 C907 1.499 . S
C910 C911 1.373 . S
C910 C912 1.389 . S
C911 H890 0.950 . S
C911 C910 1.373 . S
C911 C927 1.377 . S
C912 C910 1.389 . S
C912 C913 1.524 . S
C912 C926 1.377 . S
C913 C912 1.524 . S
C913 C914 1.397 . S
C913 C918 1.363 . S
C914 H891 0.950 . S
C914 C913 1.397 . S
C914 C915 1.334 . S
C915 H892 0.950 . S
C915 C914 1.334 . S
C915 C916 1.287 . S
C916 C915 1.287 . S
C916 C917 1.524 . S
C916 H935 0.913 . S
C917 H893 0.950 . S
C917 C916 1.524 . S
C917 C918 1.415 . S
C918 H894 0.950 . S
C918 C913 1.363 . S
C918 C917 1.415 . S
C919 H895 0.951 . S
C919 C920 1.366 . S
C919 C921 1.388 . S
C920 C919 1.366 . S
C920 C924 1.385 . S
C921 H896 0.951 . S
C921 C919 1.388 . S
C921 C922 1.366 . S
C922 C921 1.366 . S
C922 C923 1.414 . S
C922 C925 1.499 . S
C923 H897 0.950 . S
C923 C922 1.414 . S
C923 C924 1.374 . S
C924 H898 0.950 . S
C924 C920 1.385 . S
C924 C923 1.374 . S
C925 C922 1.499 . S
C925 C926 1.373 . S
C925 C927 1.389 . S
C926 H899 0.950 . S
C926 C912 1.377 . S
C926 C925 1.373 . S
C927 C911 1.377 . S
C927 C925 1.389 . S
C927 C928 1.524 . S
C928 C927 1.524 . S
C928 C929 1.397 . S
C928 C933 1.363 . S
C929 H900 0.950 . S
C929 C928 1.397 . S
C929 C930 1.334 . S
C930 H901 0.950 . S
C930 C929 1.334 . S
C930 C931 1.287 . S
C931 C930 1.287 . S
C931 C932 1.524 . S
C931 H934 0.999 . S
C932 H902 0.950 . S
C932 C931 1.524 . S
C932 C933 1.415 . S
C933 H903 0.950 . S
C933 C928 1.363 . S
C933 C932 1.415 . S
H934 C931 0.999 . S
H935 C916 0.913 . S
H936 C954 0.951 . S
H937 C956 0.951 . S
H938 C958 0.950 . S
H939 C959 0.950 . S
H940 C961 0.950 . S
H941 C964 0.950 . S
H942 C965 0.950 . S
H943 C967 0.950 . S
H944 C968 0.950 . S
H945 C969 0.951 . S
H946 C971 0.951 . S
H947 C973 0.950 . S
H948 C974 0.950 . S
H949 C976 0.950 . S
H950 C979 0.950 . S
H951 C980 0.950 . S
H952 C982 0.950 . S
H953 C983 0.950 . S
C954 H936 0.951 . S
C954 C955 1.366 . S
C954 C956 1.388 . S
C955 C954 1.366 . S
C955 C959 1.385 . S
C956 H937 0.951 . S
C956 C954 1.388 . S
C956 C957 1.366 . S
C957 C956 1.366 . S
C957 C958 1.414 . S
C957 C960 1.499 . S
C958 H938 0.950 . S
C958 C957 1.414 . S
C958 C959 1.374 . S
C959 H939 0.950 . S
C959 C955 1.385 . S
C959 C958 1.374 . S
C960 C957 1.499 . S
C960 C961 1.373 . S
C960 C962 1.389 . S
C961 H940 0.950 . S
C961 C960 1.373 . S
C961 C977 1.377 . S
C962 C960 1.389 . S
C962 C963 1.524 . S
C962 C976 1.377 . S
C963 C962 1.524 . S
C963 C964 1.397 . S
C963 C968 1.363 . S
C964 H941 0.950 . S
C964 C963 1.397 . S
C964 C965 1.334 . S
C965 H942 0.950 . S
C965 C964 1.334 . S
C965 C966 1.287 . S
C966 C965 1.287 . S
C966 C967 1.524 . S
C966 H985 0.913 . S
C967 H943 0.950 . S
C967 C966 1.524 . S
C967 C968 1.415 . S
C968 H944 0.950 . S
C968 C963 1.363 . S
C968 C967 1.415 . S
C969 H945 0.951 . S
C969 C970 1.366 . S
C969 C971 1.388 . S
C970 C969 1.366 . S
C970 C974 1.385 . S
C971 H946 0.951 . S
C971 C969 1.388 . S
C971 C972 1.366 . S
C972 C971 1.366 . S
C972 C973 1.414 . S
C972 C975 1.499 . S
C973 H947 0.950 . S
C973 C972 1.414 . S
C973 C974 1.374 . S
C974 H948 0.950 . S
C974 C970 1.385 . S
C974 C973 1.374 . S
C975 C972 1.499 . S
C975 C976 1.373 . S
C975 C977 1.389 . S
C976 H949 0.950 . S
C976 C962 1.377 . S
C976 C975 1.373 . S
C977 C961 1.377 . S
C977 C975 1.389 . S
C977 C978 1.524 . S
C978 C977 1.524 . S
C978 C979 1.397 . S
C978 C983 1.363 . S
C979 H950 0.950 . S
C979 C978 1.397 . S
C979 C980 1.334 . S
C980 H951 0.950 . S
C980 C979 1.334 . S
C980 C981 1.287 . S
C981 C980 1.287 . S
C981 C982 1.524 . S
C981 H984 0.999 . S
C982 H952 0.950 . S
C982 C981 1.524 . S
C982 C983 1.415 . S
C983 H953 0.950 . S
C983 C978 1.363 . S
C983 C982 1.415 . S
H984 C981 0.999 . S
H985 C966 0.913 . S
H986 C1004 0.951 . S
H987 C1006 0.951 . S
H988 C1008 0.950 . S
H989 C1009 0.950 . S
H990 C1011 0.950 . S
H991 C1014 0.950 . S
H992 C1015 0.950 . S
H993 C1017 0.950 . S
H994 C1018 0.950 . S
H995 C1019 0.951 . S
H996 C1021 0.951 . S
H997 C1023 0.950 . S
H998 C1024 0.950 . S
H999 C1026 0.950 . S
H1000 C1029 0.950 . S
H1001 C1030 0.950 . S
H1002 C1032 0.950 . S
H1003 C1033 0.950 . S
C1004 H986 0.951 . S
C1004 C1005 1.366 . S
C1004 C1006 1.388 . S
C1005 C1004 1.366 . S
C1005 C1009 1.385 . S
C1006 H987 0.951 . S
C1006 C1004 1.388 . S
C1006 C1007 1.366 . S
C1007 C1006 1.366 . S
C1007 C1008 1.414 . S
C1007 C1010 1.499 . S
C1008 H988 0.950 . S
C1008 C1007 1.414 . S
C1008 C1009 1.374 . S
C1009 H989 0.950 . S
C1009 C1005 1.385 . S
C1009 C1008 1.374 . S
C1010 C1007 1.499 . S
C1010 C1011 1.373 . S
C1010 C1012 1.389 . S
C1011 H990 0.950 . S
C1011 C1010 1.373 . S
C1011 C1027 1.377 . S
C1012 C1010 1.389 . S
C1012 C1013 1.524 . S
C1012 C1026 1.377 . S
C1013 C1012 1.524 . S
C1013 C1014 1.397 . S
C1013 C1018 1.363 . S
C1014 H991 0.950 . S
C1014 C1013 1.397 . S
C1014 C1015 1.334 . S
C1015 H992 0.950 . S
C1015 C1014 1.334 . S
C1015 C1016 1.287 . S
C1016 C1015 1.287 . S
C1016 C1017 1.524 . S
C1016 H1035 0.913 . S
C1017 H993 0.950 . S
C1017 C1016 1.524 . S
C1017 C1018 1.415 . S
C1018 H994 0.950 . S
C1018 C1013 1.363 . S
C1018 C1017 1.415 . S
C1019 H995 0.951 . S
C1019 C1020 1.366 . S
C1019 C1021 1.388 . S
C1020 C1019 1.366 . S
C1020 C1024 1.385 . S
C1021 H996 0.951 . S
C1021 C1019 1.388 . S
C1021 C1022 1.366 . S
C1022 C1021 1.366 . S
C1022 C1023 1.414 . S
C1022 C1025 1.499 . S
C1023 H997 0.950 . S
C1023 C1022 1.414 . S
C1023 C1024 1.374 . S
C1024 H998 0.950 . S
C1024 C1020 1.385 . S
C1024 C1023 1.374 . S
C1025 C1022 1.499 . S
C1025 C1026 1.373 . S
C1025 C1027 1.389 . S
C1026 H999 0.950 . S
C1026 C1012 1.377 . S
C1026 C1025 1.373 . S
C1027 C1011 1.377 . S
C1027 C1025 1.389 . S
C1027 C1028 1.524 . S
C1028 C1027 1.524 . S
C1028 C1029 1.397 . S
C1028 C1033 1.363 . S
C1029 H1000 0.950 . S
C1029 C1028 1.397 . S
C1029 C1030 1.334 . S
C1030 H1001 0.950 . S
C1030 C1029 1.334 . S
C1030 C1031 1.287 . S
C1031 C1030 1.287 . S
C1031 C1032 1.524 . S
C1031 H1034 0.999 . S
C1032 H1002 0.950 . S
C1032 C1031 1.524 . S
C1032 C1033 1.415 . S
C1033 H1003 0.950 . S
C1033 C1028 1.363 . S
C1033 C1032 1.415 . S
H1034 C1031 0.999 . S
H1035 C1016 0.913 . S
H1036 C1054 0.951 . S
H1037 C1056 0.951 . S
H1038 C1058 0.950 . S
H1039 C1059 0.950 . S
H1040 C1061 0.950 . S
H1041 C1064 0.950 . S
H1042 C1065 0.950 . S
H1043 C1067 0.950 . S
H1044 C1068 0.950 . S
H1045 C1069 0.951 . S
H1046 C1071 0.951 . S
H1047 C1073 0.950 . S
H1048 C1074 0.950 . S
H1049 C1076 0.950 . S
H1050 C1079 0.950 . S
H1051 C1080 0.950 . S
H1052 C1082 0.950 . S
H1053 C1083 0.950 . S
C1054 H1036 0.951 . S
C1054 C1055 1.366 . S
C1054 C1056 1.388 . S
C1055 C1054 1.366 . S
C1055 C1059 1.385 . S
C1056 H1037 0.951 . S
C1056 C1054 1.388 . S
C1056 C1057 1.366 . S
C1057 C1056 1.366 . S
C1057 C1058 1.414 . S
C1057 C1060 1.499 . S
C1058 H1038 0.950 . S
C1058 C1057 1.414 . S
C1058 C1059 1.374 . S
C1059 H1039 0.950 . S
C1059 C1055 1.385 . S
C1059 C1058 1.374 . S
C1060 C1057 1.499 . S
C1060 C1061 1.373 . S
C1060 C1062 1.389 . S
C1061 H1040 0.950 . S
C1061 C1060 1.373 . S
C1061 C1077 1.377 . S
C1062 C1060 1.389 . S
C1062 C1063 1.524 . S
C1062 C1076 1.377 . S
C1063 C1062 1.524 . S
C1063 C1064 1.397 . S
C1063 C1068 1.363 . S
C1064 H1041 0.950 . S
C1064 C1063 1.397 . S
C1064 C1065 1.334 . S
C1065 H1042 0.950 . S
C1065 C1064 1.334 . S
C1065 C1066 1.287 . S
C1066 C1065 1.287 . S
C1066 C1067 1.524 . S
C1066 H1085 0.913 . S
C1067 H1043 0.950 . S
C1067 C1066 1.524 . S
C1067 C1068 1.415 . S
C1068 H1044 0.950 . S
C1068 C1063 1.363 . S
C1068 C1067 1.415 . S
C1069 H1045 0.951 . S
C1069 C1070 1.366 . S
C1069 C1071 1.388 . S
C1070 C1069 1.366 . S
C1070 C1074 1.385 . S
C1071 H1046 0.951 . S
C1071 C1069 1.388 . S
C1071 C1072 1.366 . S
C1072 C1071 1.366 . S
C1072 C1073 1.414 . S
C1072 C1075 1.499 . S
C1073 H1047 0.950 . S
C1073 C1072 1.414 . S
C1073 C1074 1.374 . S
C1074 H1048 0.950 . S
C1074 C1070 1.385 . S
C1074 C1073 1.374 . S
C1075 C1072 1.499 . S
C1075 C1076 1.373 . S
C1075 C1077 1.389 . S
C1076 H1049 0.950 . S
C1076 C1062 1.377 . S
C1076 C1075 1.373 . S
C1077 C1061 1.377 . S
C1077 C1075 1.389 . S
C1077 C1078 1.524 . S
C1078 C1077 1.524 . S
C1078 C1079 1.397 . S
C1078 C1083 1.363 . S
C1079 H1050 0.950 . S
C1079 C1078 1.397 . S
C1079 C1080 1.334 . S
C1080 H1051 0.950 . S
C1080 C1079 1.334 . S
C1080 C1081 1.287 . S
C1081 C1080 1.287 . S
C1081 C1082 1.524 . S
C1081 H1084 0.999 . S
C1082 H1052 0.950 . S
C1082 C1081 1.524 . S
C1082 C1083 1.415 . S
C1083 H1053 0.950 . S
C1083 C1078 1.363 . S
C1083 C1082 1.415 . S
H1084 C1081 0.999 . S
H1085 C1066 0.913 . S
H1086 C1104 0.951 . S
H1087 C1106 0.951 . S
H1088 C1108 0.950 . S
H1089 C1109 0.950 . S
H1090 C1111 0.950 . S
H1091 C1114 0.950 . S
H1092 C1115 0.950 . S
H1093 C1117 0.950 . S
H1094 C1118 0.950 . S
H1095 C1119 0.951 . S
H1096 C1121 0.951 . S
H1097 C1123 0.950 . S
H1098 C1124 0.950 . S
H1099 C1126 0.950 . S
H1100 C1129 0.950 . S
H1101 C1130 0.950 . S
H1102 C1132 0.950 . S
H1103 C1133 0.950 . S
C1104 H1086 0.951 . S
C1104 C1105 1.366 . S
C1104 C1106 1.388 . S
C1105 C1104 1.366 . S
C1105 C1109 1.385 . S
C1106 H1087 0.951 . S
C1106 C1104 1.388 . S
C1106 C1107 1.366 . S
C1107 C1106 1.366 . S
C1107 C1108 1.414 . S
C1107 C1110 1.499 . S
C1108 H1088 0.950 . S
C1108 C1107 1.414 . S
C1108 C1109 1.374 . S
C1109 H1089 0.950 . S
C1109 C1105 1.385 . S
C1109 C1108 1.374 . S
C1110 C1107 1.499 . S
C1110 C1111 1.373 . S
C1110 C1112 1.389 . S
C1111 H1090 0.950 . S
C1111 C1110 1.373 . S
C1111 C1127 1.377 . S
C1112 C1110 1.389 . S
C1112 C1113 1.524 . S
C1112 C1126 1.377 . S
C1113 C1112 1.524 . S
C1113 C1114 1.397 . S
C1113 C1118 1.363 . S
C1114 H1091 0.950 . S
C1114 C1113 1.397 . S
C1114 C1115 1.334 . S
C1115 H1092 0.950 . S
C1115 C1114 1.334 . S
C1115 C1116 1.287 . S
C1116 C1115 1.287 . S
C1116 C1117 1.524 . S
C1116 H1135 0.913 . S
C1117 H1093 0.950 . S
C1117 C1116 1.524 . S
C1117 C1118 1.415 . S
C1118 H1094 0.950 . S
C1118 C1113 1.363 . S
C1118 C1117 1.415 . S
C1119 H1095 0.951 . S
C1119 C1120 1.366 . S
C1119 C1121 1.388 . S
C1120 C1119 1.366 . S
C1120 C1124 1.385 . S
C1121 H1096 0.951 . S
C1121 C1119 1.388 . S
C1121 C1122 1.366 . S
C1122 C1121 1.366 . S
C1122 C1123 1.414 . S
C1122 C1125 1.499 . S
C1123 H1097 0.950 . S
C1123 C1122 1.414 . S
C1123 C1124 1.374 . S
C1124 H1098 0.950 . S
C1124 C1120 1.385 . S
C1124 C1123 1.374 . S
C1125 C1122 1.499 . S
C1125 C1126 1.373 . S
C1125 C1127 1.389 . S
C1126 H1099 0.950 . S
C1126 C1112 1.377 . S
C1126 C1125 1.373 . S
C1127 C1111 1.377 . S
C1127 C1125 1.389 . S
C1127 C1128 1.524 . S
C1128 C1127 1.524 . S
C1128 C1129 1.397 . S
C1128 C1133 1.363 . S
C1129 H1100 0.950 . S
C1129 C1128 1.397 . S
C1129 C1130 1.334 . S
C1130 H1101 0.950 . S
C1130 C1129 1.334 . S
C1130 C1131 1.287 . S
C1131 C1130 1.287 . S
C1131 C1132 1.524 . S
C1131 H1134 0.999 . S
C1132 H1102 0.950 . S
C1132 C1131 1.524 . S
C1132 C1133 1.415 . S
C1133 H1103 0.950 . S
C1133 C1128 1.363 . S
C1133 C1132 1.415 . S
H1134 C1131 0.999 . S
H1135 C1116 0.913 . S
H1136 C1154 0.951 . S
H1137 C1156 0.951 . S
H1138 C1158 0.950 . S
H1139 C1159 0.950 . S
H1140 C1161 0.950 . S
H1141 C1164 0.950 . S
H1142 C1165 0.950 . S
H1143 C1167 0.898 1_556 S
H1144 C1168 0.950 . S
H1145 C1169 0.951 . S
H1146 C1171 0.951 . S
H1147 C1173 0.950 . S
H1148 C1174 0.950 . S
H1149 C1176 0.950 . S
H1150 C1179 0.950 . S
H1151 C1180 0.950 . S
H1152 C1182 0.950 . S
H1153 C1183 0.950 . S
C1154 H1136 0.951 . S
C1154 C1155 1.366 . S
C1154 C1156 1.388 . S
C1155 C1154 1.366 . S
C1155 C1159 1.385 . S
C1156 H1137 0.951 . S
C1156 C1154 1.388 . S
C1156 C1157 1.366 . S
C1157 C1156 1.366 . S
C1157 C1158 1.414 . S
C1157 C1160 1.499 . S
C1158 H1138 0.950 . S
C1158 C1157 1.414 . S
C1158 C1159 1.374 . S
C1159 H1139 0.950 . S
C1159 C1155 1.385 . S
C1159 C1158 1.374 . S
C1160 C1157 1.499 . S
C1160 C1161 1.373 . S
C1160 C1162 1.389 . S
C1161 H1140 0.950 . S
C1161 C1160 1.373 . S
C1161 C1177 1.377 . S
C1162 C1160 1.389 . S
C1162 C1163 1.524 . S
C1162 C1176 1.377 . S
C1163 C1162 1.524 . S
C1163 C1164 1.397 . S
C1163 C1168 1.363 . S
C1164 H1141 0.950 . S
C1164 C1163 1.397 . S
C1164 C1165 1.334 . S
C1165 H1142 0.950 . S
C1165 C1164 1.334 . S
C1165 C1166 1.287 . S
C1166 C1165 1.287 . S
C1166 C1167 1.524 . S
C1166 H1185 0.913 . S
C1167 H1143 0.898 1_554 S
C1167 C1166 1.524 . S
C1167 C1168 1.415 . S
C1168 H1144 0.950 . S
C1168 C1163 1.363 . S
C1168 C1167 1.415 . S
C1169 H1145 0.951 . S
C1169 C1170 1.366 . S
C1169 C1171 1.388 . S
C1170 C1169 1.366 . S
C1170 C1174 1.385 . S
C1171 H1146 0.951 . S
C1171 C1169 1.388 . S
C1171 C1172 1.366 . S
C1172 C1171 1.366 . S
C1172 C1173 1.414 . S
C1172 C1175 1.499 . S
C1173 H1147 0.950 . S
C1173 C1172 1.414 . S
C1173 C1174 1.374 . S
C1174 H1148 0.950 . S
C1174 C1170 1.385 . S
C1174 C1173 1.374 . S
C1175 C1172 1.499 . S
C1175 C1176 1.373 . S
C1175 C1177 1.389 . S
C1176 H1149 0.950 . S
C1176 C1162 1.377 . S
C1176 C1175 1.373 . S
C1177 C1161 1.377 . S
C1177 C1175 1.389 . S
C1177 C1178 1.524 . S
C1178 C1177 1.524 . S
C1178 C1179 1.397 . S
C1178 C1183 1.363 . S
C1179 H1150 0.950 . S
C1179 C1178 1.397 . S
C1179 C1180 1.334 . S
C1180 H1151 0.950 . S
C1180 C1179 1.334 . S
C1180 C1181 1.287 . S
C1181 C1180 1.287 . S
C1181 C1182 1.524 . S
C1181 H1184 0.999 . S
C1182 H1152 0.950 . S
C1182 C1181 1.524 . S
C1182 C1183 1.415 . S
C1183 H1153 0.950 . S
C1183 C1178 1.363 . S
C1183 C1182 1.415 . S
H1184 C1181 0.999 . S
H1185 C1166 0.913 . S
H1186 C1204 0.951 . S
H1187 C1206 0.951 . S
H1188 C1208 0.950 . S
H1189 C1209 0.950 . S
H1190 C1211 0.950 . S
H1191 C1214 0.950 . S
H1192 C1215 0.950 . S
H1193 C1217 0.950 . S
H1194 C1218 0.950 . S
H1195 C1219 0.951 . S
H1196 C1221 0.951 . S
H1197 C1223 0.950 . S
H1198 C1224 0.950 . S
H1199 C1226 0.950 . S
H1200 C1229 0.950 . S
H1201 C1230 0.950 . S
H1202 C1232 0.950 . S
H1203 C1233 0.950 . S
C1204 H1186 0.951 . S
C1204 C1205 1.366 . S
C1204 C1206 1.388 . S
C1205 C1204 1.366 . S
C1205 C1209 1.385 . S
C1206 H1187 0.951 . S
C1206 C1204 1.388 . S
C1206 C1207 1.366 . S
C1207 C1206 1.366 . S
C1207 C1208 1.414 . S
C1207 C1210 1.499 . S
C1208 H1188 0.950 . S
C1208 C1207 1.414 . S
C1208 C1209 1.374 . S
C1209 H1189 0.950 . S
C1209 C1205 1.385 . S
C1209 C1208 1.374 . S
C1210 C1207 1.499 . S
C1210 C1211 1.373 . S
C1210 C1212 1.389 . S
C1211 H1190 0.950 . S
C1211 C1210 1.373 . S
C1211 C1227 1.377 . S
C1212 C1210 1.389 . S
C1212 C1213 1.524 . S
C1212 C1226 1.377 . S
C1213 C1212 1.524 . S
C1213 C1214 1.397 . S
C1213 C1218 1.363 . S
C1214 H1191 0.950 . S
C1214 C1213 1.397 . S
C1214 C1215 1.334 . S
C1215 H1192 0.950 . S
C1215 C1214 1.334 . S
C1215 C1216 1.287 . S
C1216 C1215 1.287 . S
C1216 C1217 1.524 . S
C1216 H1235 0.913 . S
C1217 H1193 0.950 . S
C1217 C1216 1.524 . S
C1217 C1218 1.415 . S
C1218 H1194 0.950 . S
C1218 C1213 1.363 . S
C1218 C1217 1.415 . S
C1219 H1195 0.951 . S
C1219 C1220 1.366 . S
C1219 C1221 1.388 . S
C1220 C1219 1.366 . S
C1220 C1224 1.385 . S
C1221 H1196 0.951 . S
C1221 C1219 1.388 . S
C1221 C1222 1.366 . S
C1222 C1221 1.366 . S
C1222 C1223 1.414 . S
C1222 C1225 1.499 . S
C1223 H1197 0.950 . S
C1223 C1222 1.414 . S
C1223 C1224 1.374 . S
C1224 H1198 0.950 . S
C1224 C1220 1.385 . S
C1224 C1223 1.374 . S
C1225 C1222 1.499 . S
C1225 C1226 1.373 . S
C1225 C1227 1.389 . S
C1226 H1199 0.950 . S
C1226 C1212 1.377 . S
C1226 C1225 1.373 . S
C1227 C1211 1.377 . S
C1227 C1225 1.389 . S
C1227 C1228 1.524 . S
C1228 C1227 1.524 . S
C1228 C1229 1.397 . S
C1228 C1233 1.363 . S
C1229 H1200 0.950 . S
C1229 C1228 1.397 . S
C1229 C1230 1.334 . S
C1230 H1201 0.950 . S
C1230 C1229 1.334 . S
C1230 C1231 1.287 . S
C1231 C1230 1.287 . S
C1231 C1232 1.524 . S
C1231 H1234 0.999 . S
C1232 H1202 0.950 . S
C1232 C1231 1.524 . S
C1232 C1233 1.415 . S
C1233 H1203 0.950 . S
C1233 C1228 1.363 . S
C1233 C1232 1.415 . S
H1234 C1231 0.999 . S
H1235 C1216 0.913 . S
H1236 C1254 0.951 . S
H1237 C1256 0.951 . S
H1238 C1258 0.950 . S
H1239 C1259 0.950 . S
H1240 C1261 0.950 . S
H1241 C1264 0.950 . S
H1242 C1265 0.950 . S
H1243 C1267 0.950 . S
H1244 C1268 0.950 . S
H1245 C1269 0.951 . S
H1246 C1271 0.951 . S
H1247 C1273 0.950 . S
H1248 C1274 0.950 . S
H1249 C1276 0.950 . S
H1250 C1279 0.950 . S
H1251 C1280 0.950 . S
H1252 C1282 0.950 . S
H1253 C1283 0.950 . S
C1254 H1236 0.951 . S
C1254 C1255 1.366 . S
C1254 C1256 1.388 . S
C1255 C1254 1.366 . S
C1255 C1259 1.385 . S
C1256 H1237 0.951 . S
C1256 C1254 1.388 . S
C1256 C1257 1.366 . S
C1257 C1256 1.366 . S
C1257 C1258 1.414 . S
C1257 C1260 1.499 . S
C1258 H1238 0.950 . S
C1258 C1257 1.414 . S
C1258 C1259 1.374 . S
C1259 H1239 0.950 . S
C1259 C1255 1.385 . S
C1259 C1258 1.374 . S
C1260 C1257 1.499 . S
C1260 C1261 1.373 . S
C1260 C1262 1.389 . S
C1261 H1240 0.950 . S
C1261 C1260 1.373 . S
C1261 C1277 1.377 . S
C1262 C1260 1.389 . S
C1262 C1263 1.524 . S
C1262 C1276 1.377 . S
C1263 C1262 1.524 . S
C1263 C1264 1.397 . S
C1263 C1268 1.363 . S
C1264 H1241 0.950 . S
C1264 C1263 1.397 . S
C1264 C1265 1.334 . S
C1265 H1242 0.950 . S
C1265 C1264 1.334 . S
C1265 C1266 1.287 . S
C1266 C1265 1.287 . S
C1266 C1267 1.524 . S
C1266 H1285 0.913 . S
C1267 H1243 0.950 . S
C1267 C1266 1.524 . S
C1267 C1268 1.415 . S
C1268 H1244 0.950 . S
C1268 C1263 1.363 . S
C1268 C1267 1.415 . S
C1269 H1245 0.951 . S
C1269 C1270 1.366 . S
C1269 C1271 1.388 . S
C1270 C1269 1.366 . S
C1270 C1274 1.385 . S
C1271 H1246 0.951 . S
C1271 C1269 1.388 . S
C1271 C1272 1.366 . S
C1272 C1271 1.366 . S
C1272 C1273 1.414 . S
C1272 C1275 1.499 . S
C1273 H1247 0.950 . S
C1273 C1272 1.414 . S
C1273 C1274 1.374 . S
C1274 H1248 0.950 . S
C1274 C1270 1.385 . S
C1274 C1273 1.374 . S
C1275 C1272 1.499 . S
C1275 C1276 1.373 . S
C1275 C1277 1.389 . S
C1276 H1249 0.950 . S
C1276 C1262 1.377 . S
C1276 C1275 1.373 . S
C1277 C1261 1.377 . S
C1277 C1275 1.389 . S
C1277 C1278 1.524 . S
C1278 C1277 1.524 . S
C1278 C1279 1.397 . S
C1278 C1283 1.363 . S
C1279 H1250 0.950 . S
C1279 C1278 1.397 . S
C1279 C1280 1.334 . S
C1280 H1251 0.950 . S
C1280 C1279 1.334 . S
C1280 C1281 1.287 . S
C1281 C1280 1.287 . S
C1281 C1282 1.524 . S
C1281 H1284 0.999 . S
C1282 H1252 0.950 . S
C1282 C1281 1.524 . S
C1282 C1283 1.415 . S
C1283 H1253 0.950 . S
C1283 C1278 1.363 . S
C1283 C1282 1.415 . S
H1284 C1281 0.999 . S
H1285 C1266 0.913 . S
H1286 C1304 0.951 . S
H1287 C1306 0.951 . S
H1288 C1308 0.950 . S
H1289 C1309 0.950 . S
H1290 C1311 0.950 . S
H1291 C1314 0.950 . S
H1292 C1315 0.950 . S
H1293 C1317 0.950 . S
H1294 C1318 0.950 . S
H1295 C1319 0.951 . S
H1296 C1321 0.951 . S
H1297 C1323 0.950 . S
H1298 C1324 0.950 . S
H1299 C1326 0.950 . S
H1300 C1329 0.950 . S
H1301 C1330 0.950 . S
H1302 C1332 0.950 . S
H1303 C1333 0.950 . S
C1304 H1286 0.951 . S
C1304 C1305 1.366 . S
C1304 C1306 1.388 . S
C1305 C1304 1.366 . S
C1305 C1309 1.385 . S
C1306 H1287 0.951 . S
C1306 C1304 1.388 . S
C1306 C1307 1.366 . S
C1307 C1306 1.366 . S
C1307 C1308 1.414 . S
C1307 C1310 1.499 . S
C1308 H1288 0.950 . S
C1308 C1307 1.414 . S
C1308 C1309 1.374 . S
C1309 H1289 0.950 . S
C1309 C1305 1.385 . S
C1309 C1308 1.374 . S
C1310 C1307 1.499 . S
C1310 C1311 1.373 . S
C1310 C1312 1.389 . S
C1311 H1290 0.950 . S
C1311 C1310 1.373 . S
C1311 C1327 1.377 . S
C1312 C1310 1.389 . S
C1312 C1313 1.524 . S
C1312 C1326 1.377 . S
C1313 C1312 1.524 . S
C1313 C1314 1.397 . S
C1313 C1318 1.363 . S
C1314 H1291 0.950 . S
C1314 C1313 1.397 . S
C1314 C1315 1.334 . S
C1315 H1292 0.950 . S
C1315 C1314 1.334 . S
C1315 C1316 1.287 . S
C1316 C1315 1.287 . S
C1316 C1317 1.524 . S
C1316 H1335 0.913 . S
C1317 H1293 0.950 . S
C1317 C1316 1.524 . S
C1317 C1318 1.415 . S
C1318 H1294 0.950 . S
C1318 C1313 1.363 . S
C1318 C1317 1.415 . S
C1319 H1295 0.951 . S
C1319 C1320 1.366 . S
C1319 C1321 1.388 . S
C1320 C1319 1.366 . S
C1320 C1324 1.385 . S
C1321 H1296 0.951 . S
C1321 C1319 1.388 . S
C1321 C1322 1.366 . S
C1322 C1321 1.366 . S
C1322 C1323 1.414 . S
C1322 C1325 1.499 . S
C1323 H1297 0.950 . S
C1323 C1322 1.414 . S
C1323 C1324 1.374 . S
C1324 H1298 0.950 . S
C1324 C1320 1.385 . S
C1324 C1323 1.374 . S
C1325 C1322 1.499 . S
C1325 C1326 1.373 . S
C1325 C1327 1.389 . S
C1326 H1299 0.950 . S
C1326 C1312 1.377 . S
C1326 C1325 1.373 . S
C1327 C1311 1.377 . S
C1327 C1325 1.389 . S
C1327 C1328 1.524 . S
C1328 C1327 1.524 . S
C1328 C1329 1.397 . S
C1328 C1333 1.363 . S
C1329 H1300 0.950 . S
C1329 C1328 1.397 . S
C1329 C1330 1.334 . S
C1330 H1301 0.950 . S
C1330 C1329 1.334 . S
C1330 C1331 1.287 . S
C1331 C1330 1.287 . S
C1331 C1332 1.524 . S
C1331 H1334 0.999 . S
C1332 H1302 0.950 . S
C1332 C1331 1.524 . S
C1332 C1333 1.415 . S
C1333 H1303 0.950 . S
C1333 C1328 1.363 . S
C1333 C1332 1.415 . S
H1334 C1331 0.999 . S
H1335 C1316 0.913 . S
H1336 C1354 0.951 . S
H1337 C1356 0.951 . S
H1338 C1358 0.950 . S
H1339 C1359 0.950 . S
H1340 C1361 0.950 . S
H1341 C1364 0.950 . S
H1342 C1365 0.950 . S
H1343 C1367 0.950 . S
H1344 C1368 0.950 . S
H1345 C1369 0.951 . S
H1346 C1371 0.951 . S
H1347 C1373 0.950 . S
H1348 C1374 0.950 . S
H1349 C1376 0.950 . S
H1350 C1379 0.950 . S
H1351 C1380 0.950 . S
H1352 C1382 0.950 . S
H1353 C1383 0.950 . S
C1354 H1336 0.951 . S
C1354 C1355 1.366 . S
C1354 C1356 1.388 . S
C1355 C1354 1.366 . S
C1355 C1359 1.385 . S
C1356 H1337 0.951 . S
C1356 C1354 1.388 . S
C1356 C1357 1.366 . S
C1357 C1356 1.366 . S
C1357 C1358 1.414 . S
C1357 C1360 1.499 . S
C1358 H1338 0.950 . S
C1358 C1357 1.414 . S
C1358 C1359 1.374 . S
C1359 H1339 0.950 . S
C1359 C1355 1.385 . S
C1359 C1358 1.374 . S
C1360 C1357 1.499 . S
C1360 C1361 1.373 . S
C1360 C1362 1.389 . S
C1361 H1340 0.950 . S
C1361 C1360 1.373 . S
C1361 C1377 1.377 . S
C1362 C1360 1.389 . S
C1362 C1363 1.524 . S
C1362 C1376 1.377 . S
C1363 C1362 1.524 . S
C1363 C1364 1.397 . S
C1363 C1368 1.363 . S
C1364 H1341 0.950 . S
C1364 C1363 1.397 . S
C1364 C1365 1.334 . S
C1365 H1342 0.950 . S
C1365 C1364 1.334 . S
C1365 C1366 1.287 . S
C1366 C1365 1.287 . S
C1366 C1367 1.524 . S
C1366 H1385 0.913 . S
C1367 H1343 0.950 . S
C1367 C1366 1.524 . S
C1367 C1368 1.415 . S
C1368 H1344 0.950 . S
C1368 C1363 1.363 . S
C1368 C1367 1.415 . S
C1369 H1345 0.951 . S
C1369 C1370 1.366 . S
C1369 C1371 1.388 . S
C1370 C1369 1.366 . S
C1370 C1374 1.385 . S
C1371 H1346 0.951 . S
C1371 C1369 1.388 . S
C1371 C1372 1.366 . S
C1372 C1371 1.366 . S
C1372 C1373 1.414 . S
C1372 C1375 1.499 . S
C1373 H1347 0.950 . S
C1373 C1372 1.414 . S
C1373 C1374 1.374 . S
C1374 H1348 0.950 . S
C1374 C1370 1.385 . S
C1374 C1373 1.374 . S
C1375 C1372 1.499 . S
C1375 C1376 1.373 . S
C1375 C1377 1.389 . S
C1376 H1349 0.950 . S
C1376 C1362 1.377 . S
C1376 C1375 1.373 . S
C1377 C1361 1.377 . S
C1377 C1375 1.389 . S
C1377 C1378 1.524 . S
C1378 C1377 1.524 . S
C1378 C1379 1.397 . S
C1378 C1383 1.363 . S
C1379 H1350 0.950 . S
C1379 C1378 1.397 . S
C1379 C1380 1.334 . S
C1380 H1351 0.950 . S
C1380 C1379 1.334 . S
C1380 C1381 1.287 . S
C1381 C1380 1.287 . S
C1381 C1382 1.524 . S
C1381 H1384 0.999 . S
C1382 H1352 0.950 . S
C1382 C1381 1.524 . S
C1382 C1383 1.415 . S
C1383 H1353 0.950 . S
C1383 C1378 1.363 . S
C1383 C1382 1.415 . S
H1384 C1381 0.999 . S
H1385 C1366 0.913 . S
H1386 C1404 0.951 . S
H1387 C1406 0.951 . S
H1388 C1408 0.950 . S
H1389 C1409 0.950 . S
H1390 C1411 0.950 . S
H1391 C1414 0.950 . S
H1392 C1415 0.950 . S
H1393 C1417 0.950 . S
H1394 C1418 0.950 . S
H1395 C1419 0.951 . S
H1396 C1421 0.951 . S
H1397 C1423 0.950 . S
H1398 C1424 0.950 . S
H1399 C1426 0.950 . S
H1400 C1429 0.950 . S
H1401 C1430 0.950 . S
H1402 C1432 0.950 . S
H1403 C1433 0.950 . S
C1404 H1386 0.951 . S
C1404 C1405 1.366 . S
C1404 C1406 1.388 . S
C1405 C1404 1.366 . S
C1405 C1409 1.385 . S
C1406 H1387 0.951 . S
C1406 C1404 1.388 . S
C1406 C1407 1.366 . S
C1407 C1406 1.366 . S
C1407 C1408 1.414 . S
C1407 C1410 1.499 . S
C1408 H1388 0.950 . S
C1408 C1407 1.414 . S
C1408 C1409 1.374 . S
C1409 H1389 0.950 . S
C1409 C1405 1.385 . S
C1409 C1408 1.374 . S
C1410 C1407 1.499 . S
C1410 C1411 1.373 . S
C1410 C1412 1.389 . S
C1411 H1390 0.950 . S
C1411 C1410 1.373 . S
C1411 C1427 1.377 . S
C1412 C1410 1.389 . S
C1412 C1413 1.524 . S
C1412 C1426 1.377 . S
C1413 C1412 1.524 . S
C1413 C1414 1.397 . S
C1413 C1418 1.363 . S
C1414 H1391 0.950 . S
C1414 C1413 1.397 . S
C1414 C1415 1.334 . S
C1415 H1392 0.950 . S
C1415 C1414 1.334 . S
C1415 C1416 1.271 1_556 S
C1416 C1415 1.271 1_554 S
C1416 C1417 1.512 1_554 S
C1416 H1435 0.943 . S
C1417 H1393 0.950 . S
C1417 C1416 1.512 1_556 S
C1417 C1418 1.415 . S
C1418 H1394 0.950 . S
C1418 C1413 1.363 . S
C1418 C1417 1.415 . S
C1419 H1395 0.951 . S
C1419 C1420 1.366 . S
C1419 C1421 1.388 . S
C1420 C1419 1.366 . S
C1420 C1424 1.385 . S
C1421 H1396 0.951 . S
C1421 C1419 1.388 . S
C1421 C1422 1.366 . S
C1422 C1421 1.366 . S
C1422 C1423 1.414 . S
C1422 C1425 1.499 . S
C1423 H1397 0.950 . S
C1423 C1422 1.414 . S
C1423 C1424 1.374 . S
C1424 H1398 0.950 . S
C1424 C1420 1.385 . S
C1424 C1423 1.374 . S
C1425 C1422 1.499 . S
C1425 C1426 1.373 . S
C1425 C1427 1.389 . S
C1426 H1399 0.950 . S
C1426 C1412 1.377 . S
C1426 C1425 1.373 . S
C1427 C1411 1.377 . S
C1427 C1425 1.389 . S
C1427 C1428 1.524 . S
C1428 C1427 1.524 . S
C1428 C1429 1.397 . S
C1428 C1433 1.363 . S
C1429 H1400 0.950 . S
C1429 C1428 1.397 . S
C1429 C1430 1.334 . S
C1430 H1401 0.950 . S
C1430 C1429 1.334 . S
C1430 C1431 1.287 . S
C1431 C1430 1.287 . S
C1431 C1432 1.524 . S
C1431 H1434 0.999 . S
C1432 H1402 0.950 . S
C1432 C1431 1.524 . S
C1432 C1433 1.415 . S
C1433 H1403 0.950 . S
C1433 C1428 1.363 . S
C1433 C1432 1.415 . S
H1434 C1431 0.999 . S
H1435 C1416 0.943 . S
H1436 C1454 0.951 . S
H1437 C1456 0.951 . S
H1438 C1458 0.950 . S
H1439 C1459 0.950 . S
H1440 C1461 0.950 . S
H1441 C1464 0.950 . S
H1442 C1465 0.950 . S
H1443 C1467 0.950 . S
H1444 C1468 0.950 . S
H1445 C1469 0.951 . S
H1446 C1471 0.951 . S
H1447 C1473 0.950 . S
H1448 C1474 0.950 . S
H1449 C1476 0.950 . S
H1450 C1479 0.950 . S
H1451 C1480 0.950 . S
H1452 C1482 0.950 . S
H1453 C1483 0.950 . S
C1454 H1436 0.951 . S
C1454 C1455 1.366 . S
C1454 C1456 1.388 . S
C1455 C1454 1.366 . S
C1455 C1459 1.385 . S
C1456 H1437 0.951 . S
C1456 C1454 1.388 . S
C1456 C1457 1.366 . S
C1457 C1456 1.366 . S
C1457 C1458 1.414 . S
C1457 C1460 1.499 . S
C1458 H1438 0.950 . S
C1458 C1457 1.414 . S
C1458 C1459 1.374 . S
C1459 H1439 0.950 . S
C1459 C1455 1.385 . S
C1459 C1458 1.374 . S
C1460 C1457 1.499 . S
C1460 C1461 1.373 . S
C1460 C1462 1.389 . S
C1461 H1440 0.950 . S
C1461 C1460 1.373 . S
C1461 C1477 1.377 . S
C1462 C1460 1.389 . S
C1462 C1463 1.524 . S
C1462 C1476 1.377 . S
C1463 C1462 1.524 . S
C1463 C1464 1.397 . S
C1463 C1468 1.363 . S
C1464 H1441 0.950 . S
C1464 C1463 1.397 . S
C1464 C1465 1.334 . S
C1465 H1442 0.950 . S
C1465 C1464 1.334 . S
C1465 C1466 1.287 . S
C1466 C1465 1.287 . S
C1466 C1467 1.524 . S
C1466 H1485 0.913 . S
C1467 H1443 0.950 . S
C1467 C1466 1.524 . S
C1467 C1468 1.415 . S
C1468 H1444 0.950 . S
C1468 C1463 1.363 . S
C1468 C1467 1.415 . S
C1469 H1445 0.951 . S
C1469 C1470 1.366 . S
C1469 C1471 1.388 . S
C1470 C1469 1.366 . S
C1470 C1474 1.385 . S
C1471 H1446 0.951 . S
C1471 C1469 1.388 . S
C1471 C1472 1.366 . S
C1472 C1471 1.366 . S
C1472 C1473 1.414 . S
C1472 C1475 1.499 . S
C1473 H1447 0.950 . S
C1473 C1472 1.414 . S
C1473 C1474 1.374 . S
C1474 H1448 0.950 . S
C1474 C1470 1.385 . S
C1474 C1473 1.374 . S
C1475 C1472 1.499 . S
C1475 C1476 1.373 . S
C1475 C1477 1.389 . S
C1476 H1449 0.950 . S
C1476 C1462 1.377 . S
C1476 C1475 1.373 . S
C1477 C1461 1.377 . S
C1477 C1475 1.389 . S
C1477 C1478 1.524 . S
C1478 C1477 1.524 . S
C1478 C1479 1.397 . S
C1478 C1483 1.363 . S
C1479 H1450 0.950 . S
C1479 C1478 1.397 . S
C1479 C1480 1.334 . S
C1480 H1451 0.950 . S
C1480 C1479 1.334 . S
C1480 C1481 1.287 . S
C1481 C1480 1.287 . S
C1481 C1482 1.524 . S
C1481 H1484 0.999 . S
C1482 H1452 0.950 . S
C1482 C1481 1.524 . S
C1482 C1483 1.415 . S
C1483 H1453 0.950 . S
C1483 C1478 1.363 . S
C1483 C1482 1.415 . S
H1484 C1481 0.999 . S
H1485 C1466 0.913 . S
H1486 C1504 0.951 . S
H1487 C1506 0.951 . S
H1488 C1508 0.950 . S
H1489 C1509 0.950 . S
H1490 C1511 0.950 . S
H1491 C1514 0.950 . S
H1492 C1515 0.950 . S
H1493 C1517 0.950 . S
H1494 C1518 0.950 . S
H1495 C1519 0.951 . S
H1496 C1521 0.951 . S
H1497 C1523 0.950 . S
H1498 C1524 0.950 . S
H1499 C1526 0.950 . S
H1500 C1529 0.950 . S
H1501 C1530 0.950 . S
H1502 C1532 0.950 . S
H1503 C1533 0.950 . S
C1504 H1486 0.951 . S
C1504 C1505 1.366 . S
C1504 C1506 1.388 . S
C1505 C1504 1.366 . S
C1505 C1509 1.385 . S
C1506 H1487 0.951 . S
C1506 C1504 1.388 . S
C1506 C1507 1.366 . S
C1507 C1506 1.366 . S
C1507 C1508 1.414 . S
C1507 C1510 1.499 . S
C1508 H1488 0.950 . S
C1508 C1507 1.414 . S
C1508 C1509 1.374 . S
C1509 H1489 0.950 . S
C1509 C1505 1.385 . S
C1509 C1508 1.374 . S
C1510 C1507 1.499 . S
C1510 C1511 1.373 . S
C1510 C1512 1.389 . S
C1511 H1490 0.950 . S
C1511 C1510 1.373 . S
C1511 C1527 1.377 . S
C1512 C1510 1.389 . S
C1512 C1513 1.524 . S
C1512 C1526 1.377 . S
C1513 C1512 1.524 . S
C1513 C1514 1.397 . S
C1513 C1518 1.363 . S
C1514 H1491 0.950 . S
C1514 C1513 1.397 . S
C1514 C1515 1.334 . S
C1515 H1492 0.950 . S
C1515 C1514 1.334 . S
C1515 C1516 1.287 . S
C1516 C1515 1.287 . S
C1516 C1517 1.524 . S
C1516 H1535 0.913 . S
C1517 H1493 0.950 . S
C1517 C1516 1.524 . S
C1517 C1518 1.415 . S
C1518 H1494 0.950 . S
C1518 C1513 1.363 . S
C1518 C1517 1.415 . S
C1519 H1495 0.951 . S
C1519 C1520 1.366 . S
C1519 C1521 1.388 . S
C1520 C1519 1.366 . S
C1520 C1524 1.385 . S
C1521 H1496 0.951 . S
C1521 C1519 1.388 . S
C1521 C1522 1.366 . S
C1522 C1521 1.366 . S
C1522 C1523 1.414 . S
C1522 C1525 1.499 . S
C1523 H1497 0.950 . S
C1523 C1522 1.414 . S
C1523 C1524 1.374 . S
C1524 H1498 0.950 . S
C1524 C1520 1.385 . S
C1524 C1523 1.374 . S
C1525 C1522 1.499 . S
C1525 C1526 1.373 . S
C1525 C1527 1.389 . S
C1526 H1499 0.950 . S
C1526 C1512 1.377 . S
C1526 C1525 1.373 . S
C1527 C1511 1.377 . S
C1527 C1525 1.389 . S
C1527 C1528 1.524 . S
C1528 C1527 1.524 . S
C1528 C1529 1.397 . S
C1528 C1533 1.363 . S
C1529 H1500 0.950 . S
C1529 C1528 1.397 . S
C1529 C1530 1.334 . S
C1530 H1501 0.950 . S
C1530 C1529 1.334 . S
C1530 C1531 1.287 . S
C1531 C1530 1.287 . S
C1531 C1532 1.524 . S
C1531 H1534 0.999 . S
C1532 H1502 0.950 . S
C1532 C1531 1.524 . S
C1532 C1533 1.415 . S
C1533 H1503 0.950 . S
C1533 C1528 1.363 . S
C1533 C1532 1.415 . S
H1534 C1531 0.999 . S
H1535 C1516 0.913 . S
H1536 C1554 0.951 . S
H1537 C1556 0.951 . S
H1538 C1558 0.950 . S
H1539 C1559 0.950 . S
H1540 C1561 0.950 . S
H1541 C1564 0.923 1_565 S
H1542 C1565 0.967 . S
H1543 C1567 0.950 . S
H1544 C1568 0.950 . S
H1545 C1569 0.951 . S
H1546 C1571 0.951 . S
H1547 C1573 0.950 . S
H1548 C1574 0.950 . S
H1549 C1576 0.950 . S
H1550 C1579 0.922 1_545 S
H1551 C1580 0.967 . S
H1552 C1582 0.950 . S
H1553 C1583 0.950 . S
C1554 H1536 0.951 . S
C1554 C1555 1.366 . S
C1554 C1556 1.388 . S
C1555 C1554 1.366 . S
C1555 C1559 1.385 . S
C1556 H1537 0.951 . S
C1556 C1554 1.388 . S
C1556 C1557 1.366 . S
C1557 C1556 1.366 . S
C1557 C1558 1.414 . S
C1557 C1560 1.499 . S
C1558 H1538 0.950 . S
C1558 C1557 1.414 . S
C1558 C1559 1.374 . S
C1559 H1539 0.950 . S
C1559 C1555 1.385 . S
C1559 C1558 1.374 . S
C1560 C1557 1.499 . S
C1560 C1561 1.373 1_556 S
C1560 C1562 1.369 1_565 S
C1561 H1540 0.950 . S
C1561 C1560 1.373 1_554 S
C1561 C1577 1.392 . S
C1562 C1560 1.369 1_545 S
C1562 C1563 1.532 . S
C1562 C1576 1.391 . S
C1563 C1562 1.532 . S
C1563 C1564 1.411 . S
C1563 C1568 1.363 . S
C1564 H1541 0.923 1_545 S
C1564 C1563 1.411 . S
C1564 C1565 1.347 . S
C1565 H1542 0.967 . S
C1565 C1564 1.347 . S
C1565 C1566 1.287 . S
C1566 C1565 1.287 . S
C1566 C1567 1.524 . S
C1566 H1585 0.913 . S
C1567 H1543 0.950 . S
C1567 C1566 1.524 . S
C1567 C1568 1.415 . S
C1568 H1544 0.950 . S
C1568 C1563 1.363 . S
C1568 C1567 1.415 . S
C1569 H1545 0.951 . S
C1569 C1570 1.366 . S
C1569 C1571 1.388 . S
C1570 C1569 1.366 . S
C1570 C1574 1.385 . S
C1571 H1546 0.951 . S
C1571 C1569 1.388 . S
C1571 C1572 1.366 . S
C1572 C1571 1.366 . S
C1572 C1573 1.414 . S
C1572 C1575 1.499 . S
C1573 H1547 0.950 . S
C1573 C1572 1.414 . S
C1573 C1574 1.374 . S
C1574 H1548 0.950 . S
C1574 C1570 1.385 . S
C1574 C1573 1.374 . S
C1575 C1572 1.499 . S
C1575 C1576 1.373 1_554 S
C1575 C1577 1.368 1_545 S
C1576 H1549 0.950 . S
C1576 C1562 1.391 . S
C1576 C1575 1.373 1_556 S
C1577 C1561 1.392 . S
C1577 C1575 1.368 1_565 S
C1577 C1578 1.532 . S
C1578 C1577 1.532 . S
C1578 C1579 1.411 . S
C1578 C1583 1.363 . S
C1579 H1550 0.922 1_565 S
C1579 C1578 1.411 . S
C1579 C1580 1.348 . S
C1580 H1551 0.967 . S
C1580 C1579 1.348 . S
C1580 C1581 1.287 . S
C1581 C1580 1.287 . S
C1581 C1582 1.524 . S
C1581 H1584 0.999 . S
C1582 H1552 0.950 . S
C1582 C1581 1.524 . S
C1582 C1583 1.415 . S
C1583 H1553 0.950 . S
C1583 C1578 1.363 . S
C1583 C1582 1.415 . S
H1584 C1581 0.999 . S
H1585 C1566 0.913 . S
H1586 C1604 0.951 . S
H1587 C1606 0.951 . S
H1588 C1608 0.950 . S
H1589 C1609 0.950 . S
H1590 C1611 0.950 . S
H1591 C1614 0.950 . S
H1592 C1615 0.950 . S
H1593 C1617 0.950 . S
H1594 C1618 0.950 . S
H1595 C1619 0.951 . S
H1596 C1621 0.951 . S
H1597 C1623 0.950 . S
H1598 C1624 0.950 . S
H1599 C1626 0.950 . S
H1600 C1629 0.950 . S
H1601 C1630 0.950 . S
H1602 C1632 0.950 . S
H1603 C1633 0.950 . S
C1604 H1586 0.951 . S
C1604 C1605 1.366 . S
C1604 C1606 1.388 . S
C1605 C1604 1.366 . S
C1605 C1609 1.385 . S
C1606 H1587 0.951 . S
C1606 C1604 1.388 . S
C1606 C1607 1.366 . S
C1607 C1606 1.366 . S
C1607 C1608 1.414 . S
C1607 C1610 1.499 . S
C1608 H1588 0.950 . S
C1608 C1607 1.414 . S
C1608 C1609 1.374 . S
C1609 H1589 0.950 . S
C1609 C1605 1.385 . S
C1609 C1608 1.374 . S
C1610 C1607 1.499 . S
C1610 C1611 1.373 . S
C1610 C1612 1.389 . S
C1611 H1590 0.950 . S
C1611 C1610 1.373 . S
C1611 C1627 1.377 . S
C1612 C1610 1.389 . S
C1612 C1613 1.524 . S
C1612 C1626 1.377 . S
C1613 C1612 1.524 . S
C1613 C1614 1.397 . S
C1613 C1618 1.363 . S
C1614 H1591 0.950 . S
C1614 C1613 1.397 . S
C1614 C1615 1.334 . S
C1615 H1592 0.950 . S
C1615 C1614 1.334 . S
C1615 C1616 1.287 . S
C1616 C1615 1.287 . S
C1616 C1617 1.524 . S
C1616 H1635 0.913 . S
C1617 H1593 0.950 . S
C1617 C1616 1.524 . S
C1617 C1618 1.415 . S
C1618 H1594 0.950 . S
C1618 C1613 1.363 . S
C1618 C1617 1.415 . S
C1619 H1595 0.951 . S
C1619 C1620 1.366 . S
C1619 C1621 1.388 . S
C1620 C1619 1.366 . S
C1620 C1624 1.385 . S
C1621 H1596 0.951 . S
C1621 C1619 1.388 . S
C1621 C1622 1.366 . S
C1622 C1621 1.366 . S
C1622 C1623 1.414 . S
C1622 C1625 1.499 . S
C1623 H1597 0.950 . S
C1623 C1622 1.414 . S
C1623 C1624 1.374 . S
C1624 H1598 0.950 . S
C1624 C1620 1.385 . S
C1624 C1623 1.374 . S
C1625 C1622 1.499 . S
C1625 C1626 1.373 . S
C1625 C1627 1.389 . S
C1626 H1599 0.950 . S
C1626 C1612 1.377 . S
C1626 C1625 1.373 . S
C1627 C1611 1.377 . S
C1627 C1625 1.389 . S
C1627 C1628 1.524 . S
C1628 C1627 1.524 . S
C1628 C1629 1.397 . S
C1628 C1633 1.363 . S
C1629 H1600 0.950 . S
C1629 C1628 1.397 . S
C1629 C1630 1.334 . S
C1630 H1601 0.950 . S
C1630 C1629 1.334 . S
C1630 C1631 1.287 . S
C1631 C1630 1.287 . S
C1631 C1632 1.524 . S
C1631 H1634 0.999 . S
C1632 H1602 0.950 . S
C1632 C1631 1.524 . S
C1632 C1633 1.415 . S
C1633 H1603 0.950 . S
C1633 C1628 1.363 . S
C1633 C1632 1.415 . S
H1634 C1631 0.999 . S
H1635 C1616 0.913 . S
H1636 C1654 0.951 . S
H1637 C1656 0.951 . S
H1638 C1658 0.950 . S
H1639 C1659 0.950 . S
H1640 C1661 0.950 . S
H1641 C1664 0.950 . S
H1642 C1665 0.950 . S
H1643 C1667 0.950 1_556 S
H1644 C1668 0.961 . S
H1645 C1669 0.951 . S
H1646 C1671 0.951 . S
H1647 C1673 0.950 . S
H1648 C1674 0.950 . S
H1649 C1676 0.950 . S
H1650 C1679 0.950 . S
H1651 C1680 0.950 . S
H1652 C1682 0.949 1_554 S
H1653 C1683 0.961 . S
C1654 H1636 0.951 . S
C1654 C1655 1.366 . S
C1654 C1656 1.388 . S
C1655 C1654 1.366 . S
C1655 C1659 1.385 . S
C1656 H1637 0.951 . S
C1656 C1654 1.388 . S
C1656 C1657 1.366 . S
C1657 C1656 1.366 . S
C1657 C1658 1.414 . S
C1657 C1660 1.499 . S
C1658 H1638 0.950 . S
C1658 C1657 1.414 . S
C1658 C1659 1.374 . S
C1659 H1639 0.950 . S
C1659 C1655 1.385 . S
C1659 C1658 1.374 . S
C1660 C1657 1.499 . S
C1660 C1661 1.373 . S
C1660 C1662 1.390 . S
C1661 H1640 0.950 . S
C1661 C1660 1.373 . S
C1661 C1677 1.376 1_456 S
C1662 C1660 1.390 . S
C1662 C1663 1.524 1_556 S
C1662 C1676 1.376 1_456 S
C1663 C1662 1.524 1_554 S
C1663 C1664 1.397 . S
C1663 C1668 1.358 1_554 S
C1664 H1641 0.950 . S
C1664 C1663 1.397 . S
C1664 C1665 1.334 . S
C1665 H1642 0.950 . S
C1665 C1664 1.334 . S
C1665 C1666 1.287 . S
C1666 C1665 1.287 . S
C1666 C1667 1.524 . S
C1666 H1685 0.913 . S
C1667 H1643 0.950 1_554 S
C1667 C1666 1.524 . S
C1667 C1668 1.410 1_554 S
C1668 H1644 0.961 . S
C1668 C1663 1.358 1_556 S
C1668 C1667 1.410 1_556 S
C1669 H1645 0.951 . S
C1669 C1670 1.366 . S
C1669 C1671 1.388 . S
C1670 C1669 1.366 . S
C1670 C1674 1.385 . S
C1671 H1646 0.951 . S
C1671 C1669 1.388 . S
C1671 C1672 1.366 . S
C1672 C1671 1.366 . S
C1672 C1673 1.414 . S
C1672 C1675 1.499 . S
C1673 H1647 0.950 . S
C1673 C1672 1.414 . S
C1673 C1674 1.374 . S
C1674 H1648 0.950 . S
C1674 C1670 1.385 . S
C1674 C1673 1.374 . S
C1675 C1672 1.499 . S
C1675 C1676 1.373 . S
C1675 C1677 1.390 . S
C1676 H1649 0.950 . S
C1676 C1662 1.376 1_654 S
C1676 C1675 1.373 . S
C1677 C1661 1.376 1_654 S
C1677 C1675 1.390 . S
C1677 C1678 1.524 1_554 S
C1678 C1677 1.524 1_556 S
C1678 C1679 1.397 . S
C1678 C1683 1.358 1_556 S
C1679 H1650 0.950 . S
C1679 C1678 1.397 . S
C1679 C1680 1.334 . S
C1680 H1651 0.950 . S
C1680 C1679 1.334 . S
C1680 C1681 1.287 . S
C1681 C1680 1.287 . S
C1681 C1682 1.524 . S
C1681 H1684 0.999 . S
C1682 H1652 0.949 1_556 S
C1682 C1681 1.524 . S
C1682 C1683 1.410 1_556 S
C1683 H1653 0.961 . S
C1683 C1678 1.358 1_554 S
C1683 C1682 1.410 1_554 S
H1684 C1681 0.999 . S
H1685 C1666 0.913 . S
H1686 C1704 0.951 . S
H1687 C1706 0.951 . S
H1688 C1708 0.950 . S
H1689 C1709 0.950 . S
H1690 C1711 0.950 . S
H1691 C1714 0.950 . S
H1692 C1715 0.950 . S
H1693 C1717 0.950 . S
H1694 C1718 0.950 . S
H1695 C1719 0.951 . S
H1696 C1721 0.951 . S
H1697 C1723 0.950 . S
H1698 C1724 0.950 . S
H1699 C1726 0.950 . S
H1700 C1729 0.950 . S
H1701 C1730 0.950 . S
H1702 C1732 0.950 . S
H1703 C1733 0.950 . S
C1704 H1686 0.951 . S
C1704 C1705 1.366 . S
C1704 C1706 1.388 . S
C1705 C1704 1.366 . S
C1705 C1709 1.385 . S
C1706 H1687 0.951 . S
C1706 C1704 1.388 . S
C1706 C1707 1.366 . S
C1707 C1706 1.366 . S
C1707 C1708 1.414 . S
C1707 C1710 1.499 . S
C1708 H1688 0.950 . S
C1708 C1707 1.414 . S
C1708 C1709 1.374 . S
C1709 H1689 0.950 . S
C1709 C1705 1.385 . S
C1709 C1708 1.374 . S
C1710 C1707 1.499 . S
C1710 C1711 1.373 . S
C1710 C1712 1.389 1_545 S
C1711 H1690 0.950 . S
C1711 C1710 1.373 . S
C1711 C1727 1.377 . S
C1712 C1710 1.389 1_565 S
C1712 C1713 1.524 . S
C1712 C1726 1.377 . S
C1713 C1712 1.524 . S
C1713 C1714 1.397 1_565 S
C1713 C1718 1.363 . S
C1714 H1691 0.950 . S
C1714 C1713 1.397 1_545 S
C1714 C1715 1.334 . S
C1715 H1692 0.950 . S
C1715 C1714 1.334 . S
C1715 C1716 1.287 1_545 S
C1716 C1715 1.287 1_565 S
C1716 C1717 1.524 . S
C1716 H1735 0.913 . S
C1717 H1693 0.950 . S
C1717 C1716 1.524 . S
C1717 C1718 1.415 . S
C1718 H1694 0.950 . S
C1718 C1713 1.363 . S
C1718 C1717 1.415 . S
C1719 H1695 0.951 . S
C1719 C1720 1.366 . S
C1719 C1721 1.388 . S
C1720 C1719 1.366 . S
C1720 C1724 1.385 . S
C1721 H1696 0.951 . S
C1721 C1719 1.388 . S
C1721 C1722 1.366 . S
C1722 C1721 1.366 . S
C1722 C1723 1.414 . S
C1722 C1725 1.499 . S
C1723 H1697 0.950 . S
C1723 C1722 1.414 . S
C1723 C1724 1.374 . S
C1724 H1698 0.950 . S
C1724 C1720 1.385 . S
C1724 C1723 1.374 . S
C1725 C1722 1.499 . S
C1725 C1726 1.373 . S
C1725 C1727 1.389 1_565 S
C1726 H1699 0.950 . S
C1726 C1712 1.377 . S
C1726 C1725 1.373 . S
C1727 C1711 1.377 . S
C1727 C1725 1.389 1_545 S
C1727 C1728 1.524 . S
C1728 C1727 1.524 . S
C1728 C1729 1.397 1_545 S
C1728 C1733 1.363 . S
C1729 H1700 0.950 . S
C1729 C1728 1.397 1_565 S
C1729 C1730 1.334 . S
C1730 H1701 0.950 . S
C1730 C1729 1.334 . S
C1730 C1731 1.287 1_565 S
C1731 C1730 1.287 1_545 S
C1731 C1732 1.524 . S
C1731 H1734 0.999 . S
C1732 H1702 0.950 . S
C1732 C1731 1.524 . S
C1732 C1733 1.415 . S
C1733 H1703 0.950 . S
C1733 C1728 1.363 . S
C1733 C1732 1.415 . S
H1734 C1731 0.999 . S
H1735 C1716 0.913 . S
H1736 C1754 0.951 . S
H1737 C1756 0.951 . S
H1738 C1758 0.950 . S
H1739 C1759 0.950 . S
H1740 C1761 0.950 . S
H1741 C1764 0.950 . S
H1742 C1765 0.950 . S
H1743 C1767 0.950 . S
H1744 C1768 0.950 . S
H1745 C1769 0.951 . S
H1746 C1771 0.951 . S
H1747 C1773 0.950 . S
H1748 C1774 0.950 . S
H1749 C1776 0.950 . S
H1750 C1779 0.950 . S
H1751 C1780 0.950 . S
H1752 C1782 0.950 . S
H1753 C1783 0.950 . S
C1754 H1736 0.951 . S
C1754 C1755 1.366 . S
C1754 C1756 1.388 . S
C1755 C1754 1.366 . S
C1755 C1759 1.385 . S
C1756 H1737 0.951 . S
C1756 C1754 1.388 . S
C1756 C1757 1.366 . S
C1757 C1756 1.366 . S
C1757 C1758 1.414 . S
C1757 C1760 1.499 . S
C1758 H1738 0.950 . S
C1758 C1757 1.414 . S
C1758 C1759 1.374 . S
C1759 H1739 0.950 . S
C1759 C1755 1.385 . S
C1759 C1758 1.374 . S
C1760 C1757 1.499 . S
C1760 C1761 1.373 . S
C1760 C1762 1.389 . S
C1761 H1740 0.950 . S
C1761 C1760 1.373 . S
C1761 C1777 1.377 1_554 S
C1762 C1760 1.389 . S
C1762 C1763 1.524 . S
C1762 C1776 1.377 1_554 S
C1763 C1762 1.524 . S
C1763 C1764 1.397 . S
C1763 C1768 1.363 1_554 S
C1764 H1741 0.950 . S
C1764 C1763 1.397 . S
C1764 C1765 1.334 . S
C1765 H1742 0.950 . S
C1765 C1764 1.334 . S
C1765 C1766 1.287 . S
C1766 C1765 1.287 . S
C1766 C1767 1.524 1_554 S
C1766 H1785 0.913 . S
C1767 H1743 0.950 . S
C1767 C1766 1.524 1_556 S
C1767 C1768 1.415 . S
C1768 H1744 0.950 . S
C1768 C1763 1.363 1_556 S
C1768 C1767 1.415 . S
C1769 H1745 0.951 . S
C1769 C1770 1.366 . S
C1769 C1771 1.388 . S
C1770 C1769 1.366 . S
C1770 C1774 1.385 . S
C1771 H1746 0.951 . S
C1771 C1769 1.388 . S
C1771 C1772 1.366 . S
C1772 C1771 1.366 . S
C1772 C1773 1.414 . S
C1772 C1775 1.499 . S
C1773 H1747 0.950 . S
C1773 C1772 1.414 . S
C1773 C1774 1.374 . S
C1774 H1748 0.950 . S
C1774 C1770 1.385 . S
C1774 C1773 1.374 . S
C1775 C1772 1.499 . S
C1775 C1776 1.373 . S
C1775 C1777 1.389 . S
C1776 H1749 0.950 . S
C1776 C1762 1.377 1_556 S
C1776 C1775 1.373 . S
C1777 C1761 1.377 1_556 S
C1777 C1775 1.389 . S
C1777 C1778 1.524 . S
C1778 C1777 1.524 . S
C1778 C1779 1.397 . S
C1778 C1783 1.363 1_556 S
C1779 H1750 0.950 . S
C1779 C1778 1.397 . S
C1779 C1780 1.334 . S
C1780 H1751 0.950 . S
C1780 C1779 1.334 . S
C1780 C1781 1.287 . S
C1781 C1780 1.287 . S
C1781 C1782 1.524 1_556 S
C1781 H1784 0.999 . S
C1782 H1752 0.950 . S
C1782 C1781 1.524 1_554 S
C1782 C1783 1.415 . S
C1783 H1753 0.950 . S
C1783 C1778 1.363 1_554 S
C1783 C1782 1.415 . S
H1784 C1781 0.999 . S
H1785 C1766 0.913 . S
H1786 C1804 0.951 . S
H1787 C1806 0.951 . S
H1788 C1808 0.950 . S
H1789 C1809 0.950 . S
H1790 C1811 0.950 . S
H1791 C1814 0.950 . S
H1792 C1815 0.950 . S
H1793 C1817 0.950 . S
H1794 C1818 0.950 . S
H1795 C1819 0.951 . S
H1796 C1821 0.951 . S
H1797 C1823 0.950 . S
H1798 C1824 0.950 . S
H1799 C1826 0.950 . S
H1800 C1829 0.950 . S
H1801 C1830 0.950 . S
H1802 C1832 0.950 . S
H1803 C1833 0.950 . S
C1804 H1786 0.951 . S
C1804 C1805 1.366 . S
C1804 C1806 1.388 . S
C1805 C1804 1.366 . S
C1805 C1809 1.385 . S
C1806 H1787 0.951 . S
C1806 C1804 1.388 . S
C1806 C1807 1.366 . S
C1807 C1806 1.366 . S
C1807 C1808 1.414 . S
C1807 C1810 1.499 . S
C1808 H1788 0.950 . S
C1808 C1807 1.414 . S
C1808 C1809 1.374 . S
C1809 H1789 0.950 . S
C1809 C1805 1.385 . S
C1809 C1808 1.374 . S
C1810 C1807 1.499 . S
C1810 C1811 1.373 . S
C1810 C1812 1.389 . S
C1811 H1790 0.950 . S
C1811 C1810 1.373 . S
C1811 C1827 1.377 1_455 S
C1812 C1810 1.389 . S
C1812 C1813 1.524 . S
C1812 C1826 1.377 1_455 S
C1813 C1812 1.524 . S
C1813 C1814 1.397 . S
C1813 C1818 1.363 . S
C1814 H1791 0.950 . S
C1814 C1813 1.397 . S
C1814 C1815 1.334 . S
C1815 H1792 0.950 . S
C1815 C1814 1.334 . S
C1815 C1816 1.287 . S
C1816 C1815 1.287 . S
C1816 C1817 1.524 . S
C1816 H1835 0.913 . S
C1817 H1793 0.950 . S
C1817 C1816 1.524 . S
C1817 C1818 1.415 . S
C1818 H1794 0.950 . S
C1818 C1813 1.363 . S
C1818 C1817 1.415 . S
C1819 H1795 0.951 . S
C1819 C1820 1.366 . S
C1819 C1821 1.388 . S
C1820 C1819 1.366 . S
C1820 C1824 1.385 . S
C1821 H1796 0.951 . S
C1821 C1819 1.388 . S
C1821 C1822 1.366 . S
C1822 C1821 1.366 . S
C1822 C1823 1.414 . S
C1822 C1825 1.499 . S
C1823 H1797 0.950 . S
C1823 C1822 1.414 . S
C1823 C1824 1.374 . S
C1824 H1798 0.950 . S
C1824 C1820 1.385 . S
C1824 C1823 1.374 . S
C1825 C1822 1.499 . S
C1825 C1826 1.373 . S
C1825 C1827 1.389 . S
C1826 H1799 0.950 . S
C1826 C1812 1.377 1_655 S
C1826 C1825 1.373 . S
C1827 C1811 1.377 1_655 S
C1827 C1825 1.389 . S
C1827 C1828 1.524 . S
C1828 C1827 1.524 . S
C1828 C1829 1.397 . S
C1828 C1833 1.363 . S
C1829 H1800 0.950 . S
C1829 C1828 1.397 . S
C1829 C1830 1.334 . S
C1830 H1801 0.950 . S
C1830 C1829 1.334 . S
C1830 C1831 1.287 . S
C1831 C1830 1.287 . S
C1831 C1832 1.524 . S
C1831 H1834 0.999 . S
C1832 H1802 0.950 . S
C1832 C1831 1.524 . S
C1832 C1833 1.415 . S
C1833 H1803 0.950 . S
C1833 C1828 1.363 . S
C1833 C1832 1.415 . S
H1834 C1831 0.999 . S
H1835 C1816 0.913 . S
H1836 C1854 0.951 . S
H1837 C1856 0.951 . S
H1838 C1858 0.950 . S
H1839 C1859 0.950 . S
H1840 C1861 0.950 . S
H1841 C1864 0.950 . S
H1842 C1865 0.950 . S
H1843 C1867 0.950 . S
H1844 C1868 0.950 . S
H1845 C1869 0.951 . S
H1846 C1871 0.951 . S
H1847 C1873 0.950 . S
H1848 C1874 0.950 . S
H1849 C1876 0.950 . S
H1850 C1879 0.950 . S
H1851 C1880 0.950 . S
H1852 C1882 0.950 . S
H1853 C1883 0.950 . S
C1854 H1836 0.951 . S
C1854 C1855 1.366 . S
C1854 C1856 1.388 . S
C1855 C1854 1.366 . S
C1855 C1859 1.385 . S
C1856 H1837 0.951 . S
C1856 C1854 1.388 . S
C1856 C1857 1.366 . S
C1857 C1856 1.366 . S
C1857 C1858 1.414 . S
C1857 C1860 1.499 . S
C1858 H1838 0.950 . S
C1858 C1857 1.414 . S
C1858 C1859 1.374 . S
C1859 H1839 0.950 . S
C1859 C1855 1.385 . S
C1859 C1858 1.374 . S
C1860 C1857 1.499 . S
C1860 C1861 1.373 1_556 S
C1860 C1862 1.415 . S
C1861 H1840 0.950 . S
C1861 C1860 1.373 1_554 S
C1861 C1877 1.330 1_565 S
C1862 C1860 1.415 . S
C1862 C1863 1.548 . S
C1862 C1876 1.331 1_565 S
C1863 C1862 1.548 . S
C1863 C1864 1.397 . S
C1863 C1868 1.363 1_565 S
C1864 H1841 0.950 . S
C1864 C1863 1.397 . S
C1864 C1865 1.334 . S
C1865 H1842 0.950 . S
C1865 C1864 1.334 . S
C1865 C1866 1.287 . S
C1866 C1865 1.287 . S
C1866 C1867 1.524 1_565 S
C1866 H1885 0.913 . S
C1867 H1843 0.950 . S
C1867 C1866 1.524 1_545 S
C1867 C1868 1.415 . S
C1868 H1844 0.950 . S
C1868 C1863 1.363 1_545 S
C1868 C1867 1.415 . S
C1869 H1845 0.951 . S
C1869 C1870 1.366 . S
C1869 C1871 1.388 . S
C1870 C1869 1.366 . S
C1870 C1874 1.385 . S
C1871 H1846 0.951 . S
C1871 C1869 1.388 . S
C1871 C1872 1.366 . S
C1872 C1871 1.366 . S
C1872 C1873 1.414 . S
C1872 C1875 1.499 . S
C1873 H1847 0.950 . S
C1873 C1872 1.414 . S
C1873 C1874 1.374 . S
C1874 H1848 0.950 . S
C1874 C1870 1.385 . S
C1874 C1873 1.374 . S
C1875 C1872 1.499 . S
C1875 C1876 1.373 1_554 S
C1875 C1877 1.415 . S
C1876 H1849 0.950 . S
C1876 C1862 1.331 1_545 S
C1876 C1875 1.373 1_556 S
C1877 C1861 1.330 1_545 S
C1877 C1875 1.415 . S
C1877 C1878 1.549 . S
C1878 C1877 1.549 . S
C1878 C1879 1.397 . S
C1878 C1883 1.363 1_545 S
C1879 H1850 0.950 . S
C1879 C1878 1.397 . S
C1879 C1880 1.334 . S
C1880 H1851 0.950 . S
C1880 C1879 1.334 . S
C1880 C1881 1.287 . S
C1881 C1880 1.287 . S
C1881 C1882 1.524 1_545 S
C1881 H1884 0.999 . S
C1882 H1852 0.950 . S
C1882 C1881 1.524 1_565 S
C1882 C1883 1.415 . S
C1883 H1853 0.950 . S
C1883 C1878 1.363 1_565 S
C1883 C1882 1.415 . S
H1884 C1881 0.999 . S
H1885 C1866 0.913 . S
H1886 C1904 0.951 . S
H1887 C1906 0.951 . S
H1888 C1908 0.950 . S
H1889 C1909 0.950 . S
H1890 C1911 0.950 . S
H1891 C1914 0.950 . S
H1892 C1915 0.950 . S
H1893 C1917 0.950 . S
H1894 C1918 0.950 . S
H1895 C1919 0.951 . S
H1896 C1921 0.951 . S
H1897 C1923 0.950 . S
H1898 C1924 0.950 . S
H1899 C1926 0.950 . S
H1900 C1929 0.950 . S
H1901 C1930 0.950 . S
H1902 C1932 0.950 . S
H1903 C1933 0.950 . S
C1904 H1886 0.951 . S
C1904 C1905 1.366 . S
C1904 C1906 1.388 . S
C1905 C1904 1.366 . S
C1905 C1909 1.385 . S
C1906 H1887 0.951 . S
C1906 C1904 1.388 . S
C1906 C1907 1.366 . S
C1907 C1906 1.366 . S
C1907 C1908 1.414 . S
C1907 C1910 1.499 . S
C1908 H1888 0.950 . S
C1908 C1907 1.414 . S
C1908 C1909 1.374 . S
C1909 H1889 0.950 . S
C1909 C1905 1.385 . S
C1909 C1908 1.374 . S
C1910 C1907 1.499 . S
C1910 C1911 1.373 . S
C1910 C1912 1.389 . S
C1911 H1890 0.950 . S
C1911 C1910 1.373 . S
C1911 C1927 1.377 . S
C1912 C1910 1.389 . S
C1912 C1913 1.524 . S
C1912 C1926 1.377 . S
C1913 C1912 1.524 . S
C1913 C1914 1.397 . S
C1913 C1918 1.363 . S
C1914 H1891 0.950 . S
C1914 C1913 1.397 . S
C1914 C1915 1.334 . S
C1915 H1892 0.950 . S
C1915 C1914 1.334 . S
C1915 C1916 1.287 . S
C1916 C1915 1.287 . S
C1916 C1917 1.524 . S
C1916 H1935 0.913 . S
C1917 H1893 0.950 . S
C1917 C1916 1.524 . S
C1917 C1918 1.415 . S
C1918 H1894 0.950 . S
C1918 C1913 1.363 . S
C1918 C1917 1.415 . S
C1919 H1895 0.951 . S
C1919 C1920 1.366 . S
C1919 C1921 1.388 . S
C1920 C1919 1.366 . S
C1920 C1924 1.385 . S
C1921 H1896 0.951 . S
C1921 C1919 1.388 . S
C1921 C1922 1.366 . S
C1922 C1921 1.366 . S
C1922 C1923 1.414 . S
C1922 C1925 1.499 . S
C1923 H1897 0.950 . S
C1923 C1922 1.414 . S
C1923 C1924 1.374 . S
C1924 H1898 0.950 . S
C1924 C1920 1.385 . S
C1924 C1923 1.374 . S
C1925 C1922 1.499 . S
C1925 C1926 1.373 . S
C1925 C1927 1.389 . S
C1926 H1899 0.950 . S
C1926 C1912 1.377 . S
C1926 C1925 1.373 . S
C1927 C1911 1.377 . S
C1927 C1925 1.389 . S
C1927 C1928 1.524 . S
C1928 C1927 1.524 . S
C1928 C1929 1.397 . S
C1928 C1933 1.363 . S
C1929 H1900 0.950 . S
C1929 C1928 1.397 . S
C1929 C1930 1.334 . S
C1930 H1901 0.950 . S
C1930 C1929 1.334 . S
C1930 C1931 1.287 . S
C1931 C1930 1.287 . S
C1931 C1932 1.524 . S
C1931 H1934 0.999 . S
C1932 H1902 0.950 . S
C1932 C1931 1.524 . S
C1932 C1933 1.415 . S
C1933 H1903 0.950 . S
C1933 C1928 1.363 . S
C1933 C1932 1.415 . S
H1934 C1931 0.999 . S
H1935 C1916 0.913 . S
H1936 C1954 0.951 . S
H1937 C1956 0.951 . S
H1938 C1958 0.950 . S
H1939 C1959 0.950 . S
H1940 C1961 0.950 . S
H1941 C1964 0.899 1_655 S
H1942 C1965 0.945 1_655 S
H1943 C1967 0.950 . S
H1944 C1968 0.950 . S
H1945 C1969 0.951 . S
H1946 C1971 0.951 . S
H1947 C1973 0.950 . S
H1948 C1974 0.950 . S
H1949 C1976 0.950 . S
H1950 C1979 0.900 1_455 S
H1951 C1980 0.945 1_455 S
H1952 C1982 0.950 . S
H1953 C1983 0.950 . S
C1954 H1936 0.951 . S
C1954 C1955 1.366 . S
C1954 C1956 1.388 . S
C1955 C1954 1.366 . S
C1955 C1959 1.385 . S
C1956 H1937 0.951 . S
C1956 C1954 1.388 . S
C1956 C1957 1.366 . S
C1957 C1956 1.366 . S
C1957 C1958 1.414 . S
C1957 C1960 1.499 . S
C1958 H1938 0.950 . S
C1958 C1957 1.414 . S
C1958 C1959 1.374 . S
C1959 H1939 0.950 . S
C1959 C1955 1.385 . S
C1959 C1958 1.374 . S
C1960 C1957 1.499 . S
C1960 C1961 1.373 1_554 S
C1960 C1962 1.389 1_655 S
C1961 H1940 0.950 . S
C1961 C1960 1.373 1_556 S
C1961 C1977 1.377 . S
C1962 C1960 1.389 1_455 S
C1962 C1963 1.524 . S
C1962 C1976 1.377 . S
C1963 C1962 1.524 . S
C1963 C1964 1.437 . S
C1963 C1968 1.363 . S
C1964 H1941 0.899 1_455 S
C1964 C1963 1.437 . S
C1964 C1965 1.346 . S
C1965 H1942 0.945 1_455 S
C1965 C1964 1.346 . S
C1965 C1966 1.287 . S
C1966 C1965 1.287 . S
C1966 C1967 1.524 . S
C1966 H1985 0.913 . S
C1967 H1943 0.950 . S
C1967 C1966 1.524 . S
C1967 C1968 1.415 . S
C1968 H1944 0.950 . S
C1968 C1963 1.363 . S
C1968 C1967 1.415 . S
C1969 H1945 0.951 . S
C1969 C1970 1.366 . S
C1969 C1971 1.388 . S
C1970 C1969 1.366 . S
C1970 C1974 1.385 . S
C1971 H1946 0.951 . S
C1971 C1969 1.388 . S
C1971 C1972 1.366 . S
C1972 C1971 1.366 . S
C1972 C1973 1.414 . S
C1972 C1975 1.499 . S
C1973 H1947 0.950 . S
C1973 C1972 1.414 . S
C1973 C1974 1.374 . S
C1974 H1948 0.950 . S
C1974 C1970 1.385 . S
C1974 C1973 1.374 . S
C1975 C1972 1.499 . S
C1975 C1976 1.373 1_556 S
C1975 C1977 1.389 1_455 S
C1976 H1949 0.950 . S
C1976 C1962 1.377 . S
C1976 C1975 1.373 1_554 S
C1977 C1961 1.377 . S
C1977 C1975 1.389 1_655 S
C1977 C1978 1.524 . S
C1978 C1977 1.524 . S
C1978 C1979 1.437 . S
C1978 C1983 1.363 . S
C1979 H1950 0.900 1_655 S
C1979 C1978 1.437 . S
C1979 C1980 1.346 . S
C1980 H1951 0.945 1_655 S
C1980 C1979 1.346 . S
C1980 C1981 1.287 . S
C1981 C1980 1.287 . S
C1981 C1982 1.524 . S
C1981 H1984 0.999 . S
C1982 H1952 0.950 . S
C1982 C1981 1.524 . S
C1982 C1983 1.415 . S
C1983 H1953 0.950 . S
C1983 C1978 1.363 . S
C1983 C1982 1.415 . S
H1984 C1981 0.999 . S
H1985 C1966 0.913 . S
H1986 C2004 0.951 . S
H1987 C2006 0.951 . S
H1988 C2008 0.950 . S
H1989 C2009 0.950 . S
H1990 C2011 0.950 . S
H1991 C2014 0.950 . S
H1992 C2015 0.950 . S
H1993 C2017 0.950 . S
H1994 C2018 0.950 . S
H1995 C2019 0.951 . S
H1996 C2021 0.951 . S
H1997 C2023 0.950 . S
H1998 C2024 0.950 . S
H1999 C2026 0.950 . S
H2000 C2029 0.950 . S
H2001 C2030 0.950 . S
H2002 C2032 0.950 . S
H2003 C2033 0.950 . S
C2004 H1986 0.951 . S
C2004 C2005 1.366 . S
C2004 C2006 1.388 . S
C2005 C2004 1.366 . S
C2005 C2009 1.385 . S
C2006 H1987 0.951 . S
C2006 C2004 1.388 . S
C2006 C2007 1.366 . S
C2007 C2006 1.366 . S
C2007 C2008 1.414 . S
C2007 C2010 1.499 . S
C2008 H1988 0.950 . S
C2008 C2007 1.414 . S
C2008 C2009 1.374 . S
C2009 H1989 0.950 . S
C2009 C2005 1.385 . S
C2009 C2008 1.374 . S
C2010 C2007 1.499 . S
C2010 C2011 1.373 . S
C2010 C2012 1.389 . S
C2011 H1990 0.950 . S
C2011 C2010 1.373 . S
C2011 C2027 1.377 1_565 S
C2012 C2010 1.389 . S
C2012 C2013 1.524 . S
C2012 C2026 1.377 1_565 S
C2013 C2012 1.524 . S
C2013 C2014 1.397 . S
C2013 C2018 1.363 . S
C2014 H1991 0.950 . S
C2014 C2013 1.397 . S
C2014 C2015 1.334 . S
C2015 H1992 0.950 . S
C2015 C2014 1.334 . S
C2015 C2016 1.287 . S
C2016 C2015 1.287 . S
C2016 C2017 1.524 . S
C2016 H2035 0.913 . S
C2017 H1993 0.950 . S
C2017 C2016 1.524 . S
C2017 C2018 1.415 . S
C2018 H1994 0.950 . S
C2018 C2013 1.363 . S
C2018 C2017 1.415 . S
C2019 H1995 0.951 . S
C2019 C2020 1.366 . S
C2019 C2021 1.388 . S
C2020 C2019 1.366 . S
C2020 C2024 1.385 . S
C2021 H1996 0.951 . S
C2021 C2019 1.388 . S
C2021 C2022 1.366 . S
C2022 C2021 1.366 . S
C2022 C2023 1.414 . S
C2022 C2025 1.499 . S
C2023 H1997 0.950 . S
C2023 C2022 1.414 . S
C2023 C2024 1.374 . S
C2024 H1998 0.950 . S
C2024 C2020 1.385 . S
C2024 C2023 1.374 . S
C2025 C2022 1.499 . S
C2025 C2026 1.373 . S
C2025 C2027 1.389 . S
C2026 H1999 0.950 . S
C2026 C2012 1.377 1_545 S
C2026 C2025 1.373 . S
C2027 C2011 1.377 1_545 S
C2027 C2025 1.389 . S
C2027 C2028 1.524 . S
C2028 C2027 1.524 . S
C2028 C2029 1.397 . S
C2028 C2033 1.363 . S
C2029 H2000 0.950 . S
C2029 C2028 1.397 . S
C2029 C2030 1.334 . S
C2030 H2001 0.950 . S
C2030 C2029 1.334 . S
C2030 C2031 1.287 . S
C2031 C2030 1.287 . S
C2031 C2032 1.524 . S
C2031 H2034 0.999 . S
C2032 H2002 0.950 . S
C2032 C2031 1.524 . S
C2032 C2033 1.415 . S
C2033 H2003 0.950 . S
C2033 C2028 1.363 . S
C2033 C2032 1.415 . S
H2034 C2031 0.999 . S
H2035 C2016 0.913 . S
H2036 C2054 0.951 . S
H2037 C2056 0.951 . S
H2038 C2058 0.950 . S
H2039 C2059 0.950 . S
H2040 C2061 0.950 . S
H2041 C2064 0.950 . S
H2042 C2065 0.950 . S
H2043 C2067 0.950 . S
H2044 C2068 0.950 . S
H2045 C2069 0.951 . S
H2046 C2071 0.951 . S
H2047 C2073 0.950 . S
H2048 C2074 0.950 . S
H2049 C2076 0.950 . S
H2050 C2079 0.950 . S
H2051 C2080 0.950 . S
H2052 C2082 0.950 . S
H2053 C2083 0.950 . S
C2054 H2036 0.951 . S
C2054 C2055 1.366 . S
C2054 C2056 1.388 . S
C2055 C2054 1.366 . S
C2055 C2059 1.385 . S
C2056 H2037 0.951 . S
C2056 C2054 1.388 . S
C2056 C2057 1.366 . S
C2057 C2056 1.366 . S
C2057 C2058 1.414 . S
C2057 C2060 1.499 . S
C2058 H2038 0.950 . S
C2058 C2057 1.414 . S
C2058 C2059 1.374 . S
C2059 H2039 0.950 . S
C2059 C2055 1.385 . S
C2059 C2058 1.374 . S
C2060 C2057 1.499 . S
C2060 C2061 1.373 . S
C2060 C2062 1.389 1_554 S
C2061 H2040 0.950 . S
C2061 C2060 1.373 . S
C2061 C2077 1.377 . S
C2062 C2060 1.389 1_556 S
C2062 C2063 1.524 . S
C2062 C2076 1.377 . S
C2063 C2062 1.524 . S
C2063 C2064 1.397 1_556 S
C2063 C2068 1.363 . S
C2064 H2041 0.950 . S
C2064 C2063 1.397 1_554 S
C2064 C2065 1.334 . S
C2065 H2042 0.950 . S
C2065 C2064 1.334 . S
C2065 C2066 1.287 1_554 S
C2066 C2065 1.287 1_556 S
C2066 C2067 1.524 . S
C2066 H2085 0.913 . S
C2067 H2043 0.950 . S
C2067 C2066 1.524 . S
C2067 C2068 1.415 . S
C2068 H2044 0.950 . S
C2068 C2063 1.363 . S
C2068 C2067 1.415 . S
C2069 H2045 0.951 . S
C2069 C2070 1.366 . S
C2069 C2071 1.388 . S
C2070 C2069 1.366 . S
C2070 C2074 1.385 . S
C2071 H2046 0.951 . S
C2071 C2069 1.388 . S
C2071 C2072 1.366 . S
C2072 C2071 1.366 . S
C2072 C2073 1.414 . S
C2072 C2075 1.499 . S
C2073 H2047 0.950 . S
C2073 C2072 1.414 . S
C2073 C2074 1.374 . S
C2074 H2048 0.950 . S
C2074 C2070 1.385 . S
C2074 C2073 1.374 . S
C2075 C2072 1.499 . S
C2075 C2076 1.373 . S
C2075 C2077 1.389 1_556 S
C2076 H2049 0.950 . S
C2076 C2062 1.377 . S
C2076 C2075 1.373 . S
C2077 C2061 1.377 . S
C2077 C2075 1.389 1_554 S
C2077 C2078 1.524 . S
C2078 C2077 1.524 . S
C2078 C2079 1.397 1_554 S
C2078 C2083 1.363 . S
C2079 H2050 0.950 . S
C2079 C2078 1.397 1_556 S
C2079 C2080 1.334 . S
C2080 H2051 0.950 . S
C2080 C2079 1.334 . S
C2080 C2081 1.287 1_556 S
C2081 C2080 1.287 1_554 S
C2081 C2082 1.524 . S
C2081 H2084 0.999 . S
C2082 H2052 0.950 . S
C2082 C2081 1.524 . S
C2082 C2083 1.415 . S
C2083 H2053 0.950 . S
C2083 C2078 1.363 . S
C2083 C2082 1.415 . S
H2084 C2081 0.999 . S
H2085 C2066 0.913 . S
H2086 C2104 0.951 . S
H2087 C2106 0.951 . S
H2088 C2108 0.950 . S
H2089 C2109 0.950 . S
H2090 C2111 0.950 . S
H2091 C2114 0.950 . S
H2092 C2115 0.950 . S
H2093 C2117 0.950 . S
H2094 C2118 0.950 . S
H2095 C2119 0.951 . S
H2096 C2121 0.951 . S
H2097 C2123 0.950 . S
H2098 C2124 0.950 . S
H2099 C2126 0.950 . S
H2100 C2129 0.950 . S
H2101 C2130 0.950 . S
H2102 C2132 0.950 . S
H2103 C2133 0.950 . S
C2104 H2086 0.951 . S
C2104 C2105 1.366 . S
C2104 C2106 1.388 . S
C2105 C2104 1.366 . S
C2105 C2109 1.385 . S
C2106 H2087 0.951 . S
C2106 C2104 1.388 . S
C2106 C2107 1.366 . S
C2107 C2106 1.366 . S
C2107 C2108 1.414 . S
C2107 C2110 1.499 . S
C2108 H2088 0.950 . S
C2108 C2107 1.414 . S
C2108 C2109 1.374 . S
C2109 H2089 0.950 . S
C2109 C2105 1.385 . S
C2109 C2108 1.374 . S
C2110 C2107 1.499 . S
C2110 C2111 1.373 . S
C2110 C2112 1.398 . S
C2111 H2090 0.950 . S
C2111 C2110 1.373 . S
C2111 C2127 1.361 1_455 S
C2112 C2110 1.398 . S
C2112 C2113 1.531 1_455 S
C2112 C2126 1.362 1_455 S
C2113 C2112 1.531 1_655 S
C2113 C2114 1.397 1_655 S
C2113 C2118 1.362 . S
C2114 H2091 0.950 . S
C2114 C2113 1.397 1_455 S
C2114 C2115 1.334 . S
C2115 H2092 0.950 . S
C2115 C2114 1.334 . S
C2115 C2116 1.328 . S
C2116 C2115 1.328 . S
C2116 C2117 1.461 1_455 S
C2116 H2135 0.940 . S
C2117 H2093 0.950 . S
C2117 C2116 1.461 1_655 S
C2117 C2118 1.415 . S
C2118 H2094 0.950 . S
C2118 C2113 1.362 . S
C2118 C2117 1.415 . S
C2119 H2095 0.951 . S
C2119 C2120 1.366 . S
C2119 C2121 1.388 . S
C2120 C2119 1.366 . S
C2120 C2124 1.385 . S
C2121 H2096 0.951 . S
C2121 C2119 1.388 . S
C2121 C2122 1.366 . S
C2122 C2121 1.366 . S
C2122 C2123 1.414 . S
C2122 C2125 1.499 . S
C2123 H2097 0.950 . S
C2123 C2122 1.414 . S
C2123 C2124 1.374 . S
C2124 H2098 0.950 . S
C2124 C2120 1.385 . S
C2124 C2123 1.374 . S
C2125 C2122 1.499 . S
C2125 C2126 1.373 . S
C2125 C2127 1.398 . S
C2126 H2099 0.950 . S
C2126 C2112 1.362 1_655 S
C2126 C2125 1.373 . S
C2127 C2111 1.361 1_655 S
C2127 C2125 1.398 . S
C2127 C2128 1.531 1_655 S
C2128 C2127 1.531 1_455 S
C2128 C2129 1.398 1_455 S
C2128 C2133 1.362 . S
C2129 H2100 0.950 . S
C2129 C2128 1.398 1_655 S
C2129 C2130 1.334 . S
C2130 H2101 0.950 . S
C2130 C2129 1.334 . S
C2130 C2131 1.329 . S
C2131 C2130 1.329 . S
C2131 C2132 1.460 1_655 S
C2131 H2134 1.007 . S
C2132 H2102 0.950 . S
C2132 C2131 1.460 1_455 S
C2132 C2133 1.415 . S
C2133 H2103 0.950 . S
C2133 C2128 1.362 . S
C2133 C2132 1.415 . S
H2134 C2131 1.007 . S
H2135 C2116 0.940 . S
H2136 C2154 0.951 . S
H2137 C2156 0.951 . S
H2138 C2158 0.950 . S
H2139 C2159 0.950 . S
H2140 C2161 0.950 . S
H2141 C2164 0.950 . S
H2142 C2165 0.950 . S
H2143 C2167 0.950 . S
H2144 C2168 0.950 . S
H2145 C2169 0.951 . S
H2146 C2171 0.951 . S
H2147 C2173 0.950 . S
H2148 C2174 0.950 . S
H2149 C2176 0.950 . S
H2150 C2179 0.950 . S
H2151 C2180 0.950 . S
H2152 C2182 0.950 . S
H2153 C2183 0.950 . S
C2154 H2136 0.951 . S
C2154 C2155 1.366 . S
C2154 C2156 1.388 . S
C2155 C2154 1.366 . S
C2155 C2159 1.385 . S
C2156 H2137 0.951 . S
C2156 C2154 1.388 . S
C2156 C2157 1.366 . S
C2157 C2156 1.366 . S
C2157 C2158 1.414 . S
C2157 C2160 1.499 . S
C2158 H2138 0.950 . S
C2158 C2157 1.414 . S
C2158 C2159 1.374 . S
C2159 H2139 0.950 . S
C2159 C2155 1.385 . S
C2159 C2158 1.374 . S
C2160 C2157 1.499 . S
C2160 C2161 1.373 . S
C2160 C2162 1.389 . S
C2161 H2140 0.950 . S
C2161 C2160 1.373 . S
C2161 C2177 1.377 . S
C2162 C2160 1.389 . S
C2162 C2163 1.524 . S
C2162 C2176 1.377 . S
C2163 C2162 1.524 . S
C2163 C2164 1.397 . S
C2163 C2168 1.363 . S
C2164 H2141 0.950 . S
C2164 C2163 1.397 . S
C2164 C2165 1.334 . S
C2165 H2142 0.950 . S
C2165 C2164 1.334 . S
C2165 C2166 1.287 . S
C2166 C2165 1.287 . S
C2166 C2167 1.524 . S
C2166 H2185 0.913 1_554 S
C2167 H2143 0.950 . S
C2167 C2166 1.524 . S
C2167 C2168 1.415 . S
C2168 H2144 0.950 . S
C2168 C2163 1.363 . S
C2168 C2167 1.415 . S
C2169 H2145 0.951 . S
C2169 C2170 1.366 . S
C2169 C2171 1.388 . S
C2170 C2169 1.366 . S
C2170 C2174 1.385 . S
C2171 H2146 0.951 . S
C2171 C2169 1.388 . S
C2171 C2172 1.366 . S
C2172 C2171 1.366 . S
C2172 C2173 1.414 . S
C2172 C2175 1.499 . S
C2173 H2147 0.950 . S
C2173 C2172 1.414 . S
C2173 C2174 1.374 . S
C2174 H2148 0.950 . S
C2174 C2170 1.385 . S
C2174 C2173 1.374 . S
C2175 C2172 1.499 . S
C2175 C2176 1.373 . S
C2175 C2177 1.389 . S
C2176 H2149 0.950 . S
C2176 C2162 1.377 . S
C2176 C2175 1.373 . S
C2177 C2161 1.377 . S
C2177 C2175 1.389 . S
C2177 C2178 1.524 . S
C2178 C2177 1.524 . S
C2178 C2179 1.397 . S
C2178 C2183 1.363 . S
C2179 H2150 0.950 . S
C2179 C2178 1.397 . S
C2179 C2180 1.334 . S
C2180 H2151 0.950 . S
C2180 C2179 1.334 . S
C2180 C2181 1.287 . S
C2181 C2180 1.287 . S
C2181 C2182 1.524 . S
C2181 H2184 0.999 . S
C2182 H2152 0.950 . S
C2182 C2181 1.524 . S
C2182 C2183 1.415 . S
C2183 H2153 0.950 . S
C2183 C2178 1.363 . S
C2183 C2182 1.415 . S
H2184 C2181 0.999 . S
H2185 C2166 0.913 1_556 S
H2186 C2204 0.951 . S
H2187 C2206 0.951 . S
H2188 C2208 0.950 . S
H2189 C2209 0.950 . S
H2190 C2211 0.950 . S
H2191 C2214 0.950 . S
H2192 C2215 0.950 . S
H2193 C2217 0.950 . S
H2194 C2218 0.950 . S
H2195 C2219 0.951 . S
H2196 C2221 0.951 . S
H2197 C2223 0.950 . S
H2198 C2224 0.950 . S
H2199 C2226 0.950 . S
H2200 C2229 0.950 . S
H2201 C2230 0.950 . S
H2202 C2232 0.950 . S
H2203 C2233 0.950 . S
C2204 H2186 0.951 . S
C2204 C2205 1.366 . S
C2204 C2206 1.388 . S
C2205 C2204 1.366 . S
C2205 C2209 1.385 . S
C2206 H2187 0.951 . S
C2206 C2204 1.388 . S
C2206 C2207 1.366 . S
C2207 C2206 1.366 . S
C2207 C2208 1.414 . S
C2207 C2210 1.499 . S
C2208 H2188 0.950 . S
C2208 C2207 1.414 . S
C2208 C2209 1.374 . S
C2209 H2189 0.950 . S
C2209 C2205 1.385 . S
C2209 C2208 1.374 . S
C2210 C2207 1.499 . S
C2210 C2211 1.373 . S
C2210 C2212 1.389 . S
C2211 H2190 0.950 . S
C2211 C2210 1.373 . S
C2211 C2227 1.377 . S
C2212 C2210 1.389 . S
C2212 C2213 1.524 . S
C2212 C2226 1.377 . S
C2213 C2212 1.524 . S
C2213 C2214 1.397 . S
C2213 C2218 1.363 . S
C2214 H2191 0.950 . S
C2214 C2213 1.397 . S
C2214 C2215 1.334 . S
C2215 H2192 0.950 . S
C2215 C2214 1.334 . S
C2215 C2216 1.287 . S
C2216 C2215 1.287 . S
C2216 C2217 1.524 . S
C2216 H2235 0.913 . S
C2217 H2193 0.950 . S
C2217 C2216 1.524 . S
C2217 C2218 1.415 . S
C2218 H2194 0.950 . S
C2218 C2213 1.363 . S
C2218 C2217 1.415 . S
C2219 H2195 0.951 . S
C2219 C2220 1.366 . S
C2219 C2221 1.388 . S
C2220 C2219 1.366 . S
C2220 C2224 1.385 . S
C2221 H2196 0.951 . S
C2221 C2219 1.388 . S
C2221 C2222 1.366 . S
C2222 C2221 1.366 . S
C2222 C2223 1.414 . S
C2222 C2225 1.499 . S
C2223 H2197 0.950 . S
C2223 C2222 1.414 . S
C2223 C2224 1.374 . S
C2224 H2198 0.950 . S
C2224 C2220 1.385 . S
C2224 C2223 1.374 . S
C2225 C2222 1.499 . S
C2225 C2226 1.373 . S
C2225 C2227 1.389 . S
C2226 H2199 0.950 . S
C2226 C2212 1.377 . S
C2226 C2225 1.373 . S
C2227 C2211 1.377 . S
C2227 C2225 1.389 . S
C2227 C2228 1.524 . S
C2228 C2227 1.524 . S
C2228 C2229 1.397 . S
C2228 C2233 1.363 . S
C2229 H2200 0.950 . S
C2229 C2228 1.397 . S
C2229 C2230 1.334 . S
C2230 H2201 0.950 . S
C2230 C2229 1.334 . S
C2230 C2231 1.287 . S
C2231 C2230 1.287 . S
C2231 C2232 1.524 . S
C2231 H2234 0.999 . S
C2232 H2202 0.950 . S
C2232 C2231 1.524 . S
C2232 C2233 1.415 . S
C2233 H2203 0.950 . S
C2233 C2228 1.363 . S
C2233 C2232 1.415 . S
H2234 C2231 0.999 . S
H2235 C2216 0.913 . S
H2236 C2254 0.951 . S
H2237 C2256 0.951 . S
H2238 C2258 0.950 . S
H2239 C2259 0.950 . S
H2240 C2261 0.950 . S
H2241 C2264 0.950 . S
H2242 C2265 0.950 . S
H2243 C2267 0.950 . S
H2244 C2268 0.950 . S
H2245 C2269 0.951 . S
H2246 C2271 0.951 . S
H2247 C2273 0.950 . S
H2248 C2274 0.950 . S
H2249 C2276 0.950 . S
H2250 C2279 0.950 . S
H2251 C2280 0.950 . S
H2252 C2282 0.950 . S
H2253 C2283 0.950 . S
C2254 H2236 0.951 . S
C2254 C2255 1.366 . S
C2254 C2256 1.388 . S
C2255 C2254 1.366 . S
C2255 C2259 1.385 . S
C2256 H2237 0.951 . S
C2256 C2254 1.388 . S
C2256 C2257 1.366 . S
C2257 C2256 1.366 . S
C2257 C2258 1.414 . S
C2257 C2260 1.499 . S
C2258 H2238 0.950 . S
C2258 C2257 1.414 . S
C2258 C2259 1.374 . S
C2259 H2239 0.950 . S
C2259 C2255 1.385 . S
C2259 C2258 1.374 . S
C2260 C2257 1.499 . S
C2260 C2261 1.373 . S
C2260 C2262 1.389 . S
C2261 H2240 0.950 . S
C2261 C2260 1.373 . S
C2261 C2277 1.377 . S
C2262 C2260 1.389 . S
C2262 C2263 1.524 . S
C2262 C2276 1.377 . S
C2263 C2262 1.524 . S
C2263 C2264 1.397 . S
C2263 C2268 1.363 . S
C2264 H2241 0.950 . S
C2264 C2263 1.397 . S
C2264 C2265 1.334 . S
C2265 H2242 0.950 . S
C2265 C2264 1.334 . S
C2265 C2266 1.287 . S
C2266 C2265 1.287 . S
C2266 C2267 1.524 . S
C2266 H2285 0.913 . S
C2267 H2243 0.950 . S
C2267 C2266 1.524 . S
C2267 C2268 1.415 . S
C2268 H2244 0.950 . S
C2268 C2263 1.363 . S
C2268 C2267 1.415 . S
C2269 H2245 0.951 . S
C2269 C2270 1.366 . S
C2269 C2271 1.388 . S
C2270 C2269 1.366 . S
C2270 C2274 1.385 . S
C2271 H2246 0.951 . S
C2271 C2269 1.388 . S
C2271 C2272 1.366 . S
C2272 C2271 1.366 . S
C2272 C2273 1.414 . S
C2272 C2275 1.499 . S
C2273 H2247 0.950 . S
C2273 C2272 1.414 . S
C2273 C2274 1.374 . S
C2274 H2248 0.950 . S
C2274 C2270 1.385 . S
C2274 C2273 1.374 . S
C2275 C2272 1.499 . S
C2275 C2276 1.373 . S
C2275 C2277 1.389 . S
C2276 H2249 0.950 . S
C2276 C2262 1.377 . S
C2276 C2275 1.373 . S
C2277 C2261 1.377 . S
C2277 C2275 1.389 . S
C2277 C2278 1.524 . S
C2278 C2277 1.524 . S
C2278 C2279 1.397 . S
C2278 C2283 1.363 . S
C2279 H2250 0.950 . S
C2279 C2278 1.397 . S
C2279 C2280 1.334 . S
C2280 H2251 0.950 . S
C2280 C2279 1.334 . S
C2280 C2281 1.287 . S
C2281 C2280 1.287 . S
C2281 C2282 1.524 . S
C2281 H2284 0.999 . S
C2282 H2252 0.950 . S
C2282 C2281 1.524 . S
C2282 C2283 1.415 . S
C2283 H2253 0.950 . S
C2283 C2278 1.363 . S
C2283 C2282 1.415 . S
H2284 C2281 0.999 . S
H2285 C2266 0.913 . S
H2286 C2304 0.951 . S
H2287 C2306 0.951 . S
H2288 C2308 0.950 . S
H2289 C2309 0.950 . S
H2290 C2311 0.950 . S
H2291 C2314 0.950 . S
H2292 C2315 0.950 . S
H2293 C2317 0.950 . S
H2294 C2318 0.950 . S
H2295 C2319 0.951 . S
H2296 C2321 0.951 . S
H2297 C2323 0.950 . S
H2298 C2324 0.950 . S
H2299 C2326 0.950 . S
H2300 C2329 0.950 . S
H2301 C2330 0.950 . S
H2302 C2332 0.950 . S
H2303 C2333 0.950 . S
C2304 H2286 0.951 . S
C2304 C2305 1.366 . S
C2304 C2306 1.388 . S
C2305 C2304 1.366 . S
C2305 C2309 1.385 . S
C2306 H2287 0.951 . S
C2306 C2304 1.388 . S
C2306 C2307 1.366 . S
C2307 C2306 1.366 . S
C2307 C2308 1.414 . S
C2307 C2310 1.499 . S
C2308 H2288 0.950 . S
C2308 C2307 1.414 . S
C2308 C2309 1.374 . S
C2309 H2289 0.950 . S
C2309 C2305 1.385 . S
C2309 C2308 1.374 . S
C2310 C2307 1.499 . S
C2310 C2311 1.373 . S
C2310 C2312 1.389 . S
C2311 H2290 0.950 . S
C2311 C2310 1.373 . S
C2311 C2327 1.377 . S
C2312 C2310 1.389 . S
C2312 C2313 1.524 . S
C2312 C2326 1.377 . S
C2313 C2312 1.524 . S
C2313 C2314 1.397 . S
C2313 C2318 1.363 . S
C2314 H2291 0.950 . S
C2314 C2313 1.397 . S
C2314 C2315 1.334 . S
C2315 H2292 0.950 . S
C2315 C2314 1.334 . S
C2315 C2316 1.287 . S
C2316 C2315 1.287 . S
C2316 C2317 1.524 . S
C2316 H2335 0.913 . S
C2317 H2293 0.950 . S
C2317 C2316 1.524 . S
C2317 C2318 1.415 . S
C2318 H2294 0.950 . S
C2318 C2313 1.363 . S
C2318 C2317 1.415 . S
C2319 H2295 0.951 . S
C2319 C2320 1.366 . S
C2319 C2321 1.388 . S
C2320 C2319 1.366 . S
C2320 C2324 1.385 . S
C2321 H2296 0.951 . S
C2321 C2319 1.388 . S
C2321 C2322 1.366 . S
C2322 C2321 1.366 . S
C2322 C2323 1.414 . S
C2322 C2325 1.499 . S
C2323 H2297 0.950 . S
C2323 C2322 1.414 . S
C2323 C2324 1.374 . S
C2324 H2298 0.950 . S
C2324 C2320 1.385 . S
C2324 C2323 1.374 . S
C2325 C2322 1.499 . S
C2325 C2326 1.373 . S
C2325 C2327 1.389 . S
C2326 H2299 0.950 . S
C2326 C2312 1.377 . S
C2326 C2325 1.373 . S
C2327 C2311 1.377 . S
C2327 C2325 1.389 . S
C2327 C2328 1.524 . S
C2328 C2327 1.524 . S
C2328 C2329 1.397 . S
C2328 C2333 1.363 . S
C2329 H2300 0.950 . S
C2329 C2328 1.397 . S
C2329 C2330 1.334 . S
C2330 H2301 0.950 . S
C2330 C2329 1.334 . S
C2330 C2331 1.287 . S
C2331 C2330 1.287 . S
C2331 C2332 1.524 . S
C2331 H2334 0.999 . S
C2332 H2302 0.950 . S
C2332 C2331 1.524 . S
C2332 C2333 1.415 . S
C2333 H2303 0.950 . S
C2333 C2328 1.363 . S
C2333 C2332 1.415 . S
H2334 C2331 0.999 . S
H2335 C2316 0.913 . S
H2336 C2354 0.951 . S
H2337 C2356 0.951 . S
H2338 C2358 0.950 . S
H2339 C2359 0.950 . S
H2340 C2361 0.950 . S
H2341 C2364 0.950 . S
H2342 C2365 0.950 . S
H2343 C2367 0.950 . S
H2344 C2368 0.950 . S
H2345 C2369 0.951 . S
H2346 C2371 0.951 . S
H2347 C2373 0.950 . S
H2348 C2374 0.950 . S
H2349 C2376 0.950 . S
H2350 C2379 0.950 . S
H2351 C2380 0.950 . S
H2352 C2382 0.950 . S
H2353 C2383 0.950 . S
C2354 H2336 0.951 . S
C2354 C2355 1.366 . S
C2354 C2356 1.388 . S
C2355 C2354 1.366 . S
C2355 C2359 1.385 . S
C2356 H2337 0.951 . S
C2356 C2354 1.388 . S
C2356 C2357 1.366 . S
C2357 C2356 1.366 . S
C2357 C2358 1.414 . S
C2357 C2360 1.499 . S
C2358 H2338 0.950 . S
C2358 C2357 1.414 . S
C2358 C2359 1.374 . S
C2359 H2339 0.950 . S
C2359 C2355 1.385 . S
C2359 C2358 1.374 . S
C2360 C2357 1.499 . S
C2360 C2361 1.373 . S
C2360 C2362 1.389 . S
C2361 H2340 0.950 . S
C2361 C2360 1.373 . S
C2361 C2377 1.377 . S
C2362 C2360 1.389 . S
C2362 C2363 1.524 . S
C2362 C2376 1.377 . S
C2363 C2362 1.524 . S
C2363 C2364 1.397 . S
C2363 C2368 1.363 . S
C2364 H2341 0.950 . S
C2364 C2363 1.397 . S
C2364 C2365 1.334 . S
C2365 H2342 0.950 . S
C2365 C2364 1.334 . S
C2365 C2366 1.287 . S
C2366 C2365 1.287 . S
C2366 C2367 1.524 . S
C2366 H2385 0.913 . S
C2367 H2343 0.950 . S
C2367 C2366 1.524 . S
C2367 C2368 1.415 . S
C2368 H2344 0.950 . S
C2368 C2363 1.363 . S
C2368 C2367 1.415 . S
C2369 H2345 0.951 . S
C2369 C2370 1.366 . S
C2369 C2371 1.388 . S
C2370 C2369 1.366 . S
C2370 C2374 1.385 . S
C2371 H2346 0.951 . S
C2371 C2369 1.388 . S
C2371 C2372 1.366 . S
C2372 C2371 1.366 . S
C2372 C2373 1.414 . S
C2372 C2375 1.499 . S
C2373 H2347 0.950 . S
C2373 C2372 1.414 . S
C2373 C2374 1.374 . S
C2374 H2348 0.950 . S
C2374 C2370 1.385 . S
C2374 C2373 1.374 . S
C2375 C2372 1.499 . S
C2375 C2376 1.373 . S
C2375 C2377 1.389 . S
C2376 H2349 0.950 . S
C2376 C2362 1.377 . S
C2376 C2375 1.373 . S
C2377 C2361 1.377 . S
C2377 C2375 1.389 . S
C2377 C2378 1.524 . S
C2378 C2377 1.524 . S
C2378 C2379 1.397 . S
C2378 C2383 1.363 . S
C2379 H2350 0.950 . S
C2379 C2378 1.397 . S
C2379 C2380 1.334 . S
C2380 H2351 0.950 . S
C2380 C2379 1.334 . S
C2380 C2381 1.287 . S
C2381 C2380 1.287 . S
C2381 C2382 1.524 . S
C2381 H2384 0.999 . S
C2382 H2352 0.950 . S
C2382 C2381 1.524 . S
C2382 C2383 1.415 . S
C2383 H2353 0.950 . S
C2383 C2378 1.363 . S
C2383 C2382 1.415 . S
H2384 C2381 0.999 . S
H2385 C2366 0.913 . S
H2386 C2404 0.951 . S
H2387 C2406 0.951 . S
H2388 C2408 0.950 . S
H2389 C2409 0.950 . S
H2390 C2411 0.950 . S
H2391 C2414 0.950 . S
H2392 C2415 0.950 . S
H2393 C2417 0.950 . S
H2394 C2418 0.950 . S
H2395 C2419 0.951 . S
H2396 C2421 0.951 . S
H2397 C2423 0.950 . S
H2398 C2424 0.950 . S
H2399 C2426 0.950 . S
H2400 C2429 0.950 . S
H2401 C2430 0.950 . S
H2402 C2432 0.950 . S
H2403 C2433 0.950 . S
C2404 H2386 0.951 . S
C2404 C2405 1.366 . S
C2404 C2406 1.388 . S
C2405 C2404 1.366 . S
C2405 C2409 1.385 . S
C2406 H2387 0.951 . S
C2406 C2404 1.388 . S
C2406 C2407 1.366 . S
C2407 C2406 1.366 . S
C2407 C2408 1.414 . S
C2407 C2410 1.499 . S
C2408 H2388 0.950 . S
C2408 C2407 1.414 . S
C2408 C2409 1.374 . S
C2409 H2389 0.950 . S
C2409 C2405 1.385 . S
C2409 C2408 1.374 . S
C2410 C2407 1.499 . S
C2410 C2411 1.373 . S
C2410 C2412 1.389 . S
C2411 H2390 0.950 . S
C2411 C2410 1.373 . S
C2411 C2427 1.377 . S
C2412 C2410 1.389 . S
C2412 C2413 1.524 . S
C2412 C2426 1.377 . S
C2413 C2412 1.524 . S
C2413 C2414 1.397 . S
C2413 C2418 1.363 . S
C2414 H2391 0.950 . S
C2414 C2413 1.397 . S
C2414 C2415 1.334 . S
C2415 H2392 0.950 . S
C2415 C2414 1.334 . S
C2415 C2416 1.287 . S
C2416 C2415 1.287 . S
C2416 C2417 1.524 . S
C2416 H2435 0.913 . S
C2417 H2393 0.950 . S
C2417 C2416 1.524 . S
C2417 C2418 1.415 . S
C2418 H2394 0.950 . S
C2418 C2413 1.363 . S
C2418 C2417 1.415 . S
C2419 H2395 0.951 . S
C2419 C2420 1.366 . S
C2419 C2421 1.388 . S
C2420 C2419 1.366 . S
C2420 C2424 1.385 . S
C2421 H2396 0.951 . S
C2421 C2419 1.388 . S
C2421 C2422 1.366 . S
C2422 C2421 1.366 . S
C2422 C2423 1.414 . S
C2422 C2425 1.499 . S
C2423 H2397 0.950 . S
C2423 C2422 1.414 . S
C2423 C2424 1.374 . S
C2424 H2398 0.950 . S
C2424 C2420 1.385 . S
C2424 C2423 1.374 . S
C2425 C2422 1.499 . S
C2425 C2426 1.373 . S
C2425 C2427 1.389 . S
C2426 H2399 0.950 . S
C2426 C2412 1.377 . S
C2426 C2425 1.373 . S
C2427 C2411 1.377 . S
C2427 C2425 1.389 . S
C2427 C2428 1.524 . S
C2428 C2427 1.524 . S
C2428 C2429 1.397 . S
C2428 C2433 1.363 . S
C2429 H2400 0.950 . S
C2429 C2428 1.397 . S
C2429 C2430 1.334 . S
C2430 H2401 0.950 . S
C2430 C2429 1.334 . S
C2430 C2431 1.287 . S
C2431 C2430 1.287 . S
C2431 C2432 1.524 . S
C2431 H2434 0.999 . S
C2432 H2402 0.950 . S
C2432 C2431 1.524 . S
C2432 C2433 1.415 . S
C2433 H2403 0.950 . S
C2433 C2428 1.363 . S
C2433 C2432 1.415 . S
H2434 C2431 0.999 . S
H2435 C2416 0.913 . S
H2436 C2454 0.951 . S
H2437 C2456 0.951 . S
H2438 C2458 0.950 . S
H2439 C2459 0.950 . S
H2440 C2461 0.950 . S
H2441 C2464 0.950 . S
H2442 C2465 0.950 . S
H2443 C2467 0.950 . S
H2444 C2468 0.950 . S
H2445 C2469 0.951 . S
H2446 C2471 0.951 . S
H2447 C2473 0.950 . S
H2448 C2474 0.950 . S
H2449 C2476 0.950 . S
H2450 C2479 0.950 . S
H2451 C2480 0.950 . S
H2452 C2482 0.950 . S
H2453 C2483 0.950 . S
C2454 H2436 0.951 . S
C2454 C2455 1.366 . S
C2454 C2456 1.388 . S
C2455 C2454 1.366 . S
C2455 C2459 1.385 . S
C2456 H2437 0.951 . S
C2456 C2454 1.388 . S
C2456 C2457 1.366 . S
C2457 C2456 1.366 . S
C2457 C2458 1.414 . S
C2457 C2460 1.499 . S
C2458 H2438 0.950 . S
C2458 C2457 1.414 . S
C2458 C2459 1.374 . S
C2459 H2439 0.950 . S
C2459 C2455 1.385 . S
C2459 C2458 1.374 . S
C2460 C2457 1.499 . S
C2460 C2461 1.373 . S
C2460 C2462 1.389 . S
C2461 H2440 0.950 . S
C2461 C2460 1.373 . S
C2461 C2477 1.377 . S
C2462 C2460 1.389 . S
C2462 C2463 1.524 . S
C2462 C2476 1.377 . S
C2463 C2462 1.524 . S
C2463 C2464 1.397 . S
C2463 C2468 1.363 . S
C2464 H2441 0.950 . S
C2464 C2463 1.397 . S
C2464 C2465 1.334 . S
C2465 H2442 0.950 . S
C2465 C2464 1.334 . S
C2465 C2466 1.287 . S
C2466 C2465 1.287 . S
C2466 C2467 1.524 . S
C2466 H2485 0.913 . S
C2467 H2443 0.950 . S
C2467 C2466 1.524 . S
C2467 C2468 1.415 . S
C2468 H2444 0.950 . S
C2468 C2463 1.363 . S
C2468 C2467 1.415 . S
C2469 H2445 0.951 . S
C2469 C2470 1.366 . S
C2469 C2471 1.388 . S
C2470 C2469 1.366 . S
C2470 C2474 1.385 . S
C2471 H2446 0.951 . S
C2471 C2469 1.388 . S
C2471 C2472 1.366 . S
C2472 C2471 1.366 . S
C2472 C2473 1.414 . S
C2472 C2475 1.499 . S
C2473 H2447 0.950 . S
C2473 C2472 1.414 . S
C2473 C2474 1.374 . S
C2474 H2448 0.950 . S
C2474 C2470 1.385 . S
C2474 C2473 1.374 . S
C2475 C2472 1.499 . S
C2475 C2476 1.373 . S
C2475 C2477 1.389 . S
C2476 H2449 0.950 . S
C2476 C2462 1.377 . S
C2476 C2475 1.373 . S
C2477 C2461 1.377 . S
C2477 C2475 1.389 . S
C2477 C2478 1.524 . S
C2478 C2477 1.524 . S
C2478 C2479 1.397 . S
C2478 C2483 1.363 . S
C2479 H2450 0.950 . S
C2479 C2478 1.397 . S
C2479 C2480 1.334 . S
C2480 H2451 0.950 . S
C2480 C2479 1.334 . S
C2480 C2481 1.287 . S
C2481 C2480 1.287 . S
C2481 C2482 1.524 . S
C2481 H2484 0.999 . S
C2482 H2452 0.950 . S
C2482 C2481 1.524 . S
C2482 C2483 1.415 . S
C2483 H2453 0.950 . S
C2483 C2478 1.363 . S
C2483 C2482 1.415 . S
H2484 C2481 0.999 . S
H2485 C2466 0.913 . S
H2486 C2504 0.951 . S
H2487 C2506 0.951 . S
H2488 C2508 0.950 . S
H2489 C2509 0.950 . S
H2490 C2511 0.950 . S
H2491 C2514 0.950 . S
H2492 C2515 0.950 . S
H2493 C2517 0.950 . S
H2494 C2518 0.950 . S
H2495 C2519 0.951 . S
H2496 C2521 0.951 . S
H2497 C2523 0.950 . S
H2498 C2524 0.950 . S
H2499 C2526 0.950 . S
H2500 C2529 0.950 . S
H2501 C2530 0.950 . S
H2502 C2532 0.950 . S
H2503 C2533 0.950 . S
C2504 H2486 0.951 . S
C2504 C2505 1.366 . S
C2504 C2506 1.388 . S
C2505 C2504 1.366 . S
C2505 C2509 1.385 . S
C2506 H2487 0.951 . S
C2506 C2504 1.388 . S
C2506 C2507 1.366 . S
C2507 C2506 1.366 . S
C2507 C2508 1.414 . S
C2507 C2510 1.499 . S
C2508 H2488 0.950 . S
C2508 C2507 1.414 . S
C2508 C2509 1.374 . S
C2509 H2489 0.950 . S
C2509 C2505 1.385 . S
C2509 C2508 1.374 . S
C2510 C2507 1.499 . S
C2510 C2511 1.373 . S
C2510 C2512 1.389 . S
C2511 H2490 0.950 . S
C2511 C2510 1.373 . S
C2511 C2527 1.377 . S
C2512 C2510 1.389 . S
C2512 C2513 1.524 . S
C2512 C2526 1.377 . S
C2513 C2512 1.524 . S
C2513 C2514 1.397 . S
C2513 C2518 1.363 . S
C2514 H2491 0.950 . S
C2514 C2513 1.397 . S
C2514 C2515 1.334 . S
C2515 H2492 0.950 . S
C2515 C2514 1.334 . S
C2515 C2516 1.287 . S
C2516 C2515 1.287 . S
C2516 C2517 1.524 . S
C2516 H2535 0.913 . S
C2517 H2493 0.950 . S
C2517 C2516 1.524 . S
C2517 C2518 1.415 . S
C2518 H2494 0.950 . S
C2518 C2513 1.363 . S
C2518 C2517 1.415 . S
C2519 H2495 0.951 . S
C2519 C2520 1.366 . S
C2519 C2521 1.388 . S
C2520 C2519 1.366 . S
C2520 C2524 1.385 . S
C2521 H2496 0.951 . S
C2521 C2519 1.388 . S
C2521 C2522 1.366 . S
C2522 C2521 1.366 . S
C2522 C2523 1.414 . S
C2522 C2525 1.499 . S
C2523 H2497 0.950 . S
C2523 C2522 1.414 . S
C2523 C2524 1.374 . S
C2524 H2498 0.950 . S
C2524 C2520 1.385 . S
C2524 C2523 1.374 . S
C2525 C2522 1.499 . S
C2525 C2526 1.373 . S
C2525 C2527 1.389 . S
C2526 H2499 0.950 . S
C2526 C2512 1.377 . S
C2526 C2525 1.373 . S
C2527 C2511 1.377 . S
C2527 C2525 1.389 . S
C2527 C2528 1.524 . S
C2528 C2527 1.524 . S
C2528 C2529 1.397 . S
C2528 C2533 1.363 . S
C2529 H2500 0.950 . S
C2529 C2528 1.397 . S
C2529 C2530 1.334 . S
C2530 H2501 0.950 . S
C2530 C2529 1.334 . S
C2530 C2531 1.287 . S
C2531 C2530 1.287 . S
C2531 C2532 1.524 . S
C2531 H2534 0.999 . S
C2532 H2502 0.950 . S
C2532 C2531 1.524 . S
C2532 C2533 1.415 . S
C2533 H2503 0.950 . S
C2533 C2528 1.363 . S
C2533 C2532 1.415 . S
H2534 C2531 0.999 . S
H2535 C2516 0.913 . S
H2536 C2554 0.951 . S
H2537 C2556 0.951 . S
H2538 C2558 0.950 . S
H2539 C2559 0.950 . S
H2540 C2561 0.950 . S
H2541 C2564 0.950 . S
H2542 C2565 0.950 . S
H2543 C2567 0.950 . S
H2544 C2568 0.950 . S
H2545 C2569 0.951 . S
H2546 C2571 0.951 . S
H2547 C2573 0.950 . S
H2548 C2574 0.950 . S
H2549 C2576 0.950 . S
H2550 C2579 0.950 . S
H2551 C2580 0.950 . S
H2552 C2582 0.950 . S
H2553 C2583 0.950 . S
C2554 H2536 0.951 . S
C2554 C2555 1.366 . S
C2554 C2556 1.388 . S
C2555 C2554 1.366 . S
C2555 C2559 1.385 . S
C2556 H2537 0.951 . S
C2556 C2554 1.388 . S
C2556 C2557 1.366 . S
C2557 C2556 1.366 . S
C2557 C2558 1.414 . S
C2557 C2560 1.499 . S
C2558 H2538 0.950 . S
C2558 C2557 1.414 . S
C2558 C2559 1.374 . S
C2559 H2539 0.950 . S
C2559 C2555 1.385 . S
C2559 C2558 1.374 . S
C2560 C2557 1.499 . S
C2560 C2561 1.373 . S
C2560 C2562 1.389 . S
C2561 H2540 0.950 . S
C2561 C2560 1.373 . S
C2561 C2577 1.377 . S
C2562 C2560 1.389 . S
C2562 C2563 1.524 . S
C2562 C2576 1.377 . S
C2563 C2562 1.524 . S
C2563 C2564 1.397 . S
C2563 C2568 1.363 . S
C2564 H2541 0.950 . S
C2564 C2563 1.397 . S
C2564 C2565 1.334 . S
C2565 H2542 0.950 . S
C2565 C2564 1.334 . S
C2565 C2566 1.287 . S
C2566 C2565 1.287 . S
C2566 C2567 1.524 . S
C2566 H2585 0.913 . S
C2567 H2543 0.950 . S
C2567 C2566 1.524 . S
C2567 C2568 1.415 . S
C2568 H2544 0.950 . S
C2568 C2563 1.363 . S
C2568 C2567 1.415 . S
C2569 H2545 0.951 . S
C2569 C2570 1.366 . S
C2569 C2571 1.388 . S
C2570 C2569 1.366 . S
C2570 C2574 1.385 . S
C2571 H2546 0.951 . S
C2571 C2569 1.388 . S
C2571 C2572 1.366 . S
C2572 C2571 1.366 . S
C2572 C2573 1.414 . S
C2572 C2575 1.499 . S
C2573 H2547 0.950 . S
C2573 C2572 1.414 . S
C2573 C2574 1.374 . S
C2574 H2548 0.950 . S
C2574 C2570 1.385 . S
C2574 C2573 1.374 . S
C2575 C2572 1.499 . S
C2575 C2576 1.373 . S
C2575 C2577 1.389 . S
C2576 H2549 0.950 . S
C2576 C2562 1.377 . S
C2576 C2575 1.373 . S
C2577 C2561 1.377 . S
C2577 C2575 1.389 . S
C2577 C2578 1.524 . S
C2578 C2577 1.524 . S
C2578 C2579 1.397 . S
C2578 C2583 1.363 . S
C2579 H2550 0.950 . S
C2579 C2578 1.397 . S
C2579 C2580 1.334 . S
C2580 H2551 0.950 . S
C2580 C2579 1.334 . S
C2580 C2581 1.287 . S
C2581 C2580 1.287 . S
C2581 C2582 1.524 . S
C2581 H2584 0.999 . S
C2582 H2552 0.950 . S
C2582 C2581 1.524 . S
C2582 C2583 1.415 . S
C2583 H2553 0.950 . S
C2583 C2578 1.363 . S
C2583 C2582 1.415 . S
H2584 C2581 0.999 . S
H2585 C2566 0.913 . S
H2586 C2604 0.951 . S
H2587 C2606 0.951 . S
H2588 C2608 0.950 . S
H2589 C2609 0.950 . S
H2590 C2611 0.950 . S
H2591 C2614 0.950 . S
H2592 C2615 0.950 . S
H2593 C2617 0.950 . S
H2594 C2618 0.950 . S
H2595 C2619 0.951 . S
H2596 C2621 0.951 . S
H2597 C2623 0.950 . S
H2598 C2624 0.950 . S
H2599 C2626 0.950 . S
H2600 C2629 0.950 . S
H2601 C2630 0.950 . S
H2602 C2632 0.950 1_554 S
H2603 C2633 0.950 . S
C2604 H2586 0.951 . S
C2604 C2605 1.366 . S
C2604 C2606 1.388 . S
C2605 C2604 1.366 . S
C2605 C2609 1.385 . S
C2606 H2587 0.951 . S
C2606 C2604 1.388 . S
C2606 C2607 1.366 . S
C2607 C2606 1.366 . S
C2607 C2608 1.414 . S
C2607 C2610 1.499 . S
C2608 H2588 0.950 . S
C2608 C2607 1.414 . S
C2608 C2609 1.374 . S
C2609 H2589 0.950 . S
C2609 C2605 1.385 . S
C2609 C2608 1.374 . S
C2610 C2607 1.499 . S
C2610 C2611 1.373 . S
C2610 C2612 1.389 . S
C2611 H2590 0.950 . S
C2611 C2610 1.373 . S
C2611 C2627 1.377 . S
C2612 C2610 1.389 . S
C2612 C2613 1.524 . S
C2612 C2626 1.377 . S
C2613 C2612 1.524 . S
C2613 C2614 1.397 . S
C2613 C2618 1.363 . S
C2614 H2591 0.950 . S
C2614 C2613 1.397 . S
C2614 C2615 1.334 . S
C2615 H2592 0.950 . S
C2615 C2614 1.334 . S
C2615 C2616 1.287 . S
C2616 C2615 1.287 . S
C2616 C2617 1.524 . S
C2616 H2635 0.913 . S
C2617 H2593 0.950 . S
C2617 C2616 1.524 . S
C2617 C2618 1.415 . S
C2618 H2594 0.950 . S
C2618 C2613 1.363 . S
C2618 C2617 1.415 . S
C2619 H2595 0.951 . S
C2619 C2620 1.366 . S
C2619 C2621 1.388 . S
C2620 C2619 1.366 . S
C2620 C2624 1.385 . S
C2621 H2596 0.951 . S
C2621 C2619 1.388 . S
C2621 C2622 1.366 . S
C2622 C2621 1.366 . S
C2622 C2623 1.414 . S
C2622 C2625 1.499 . S
C2623 H2597 0.950 . S
C2623 C2622 1.414 . S
C2623 C2624 1.374 . S
C2624 H2598 0.950 . S
C2624 C2620 1.385 . S
C2624 C2623 1.374 . S
C2625 C2622 1.499 . S
C2625 C2626 1.373 . S
C2625 C2627 1.389 . S
C2626 H2599 0.950 . S
C2626 C2612 1.377 . S
C2626 C2625 1.373 . S
C2627 C2611 1.377 . S
C2627 C2625 1.389 . S
C2627 C2628 1.524 . S
C2628 C2627 1.524 . S
C2628 C2629 1.397 . S
C2628 C2633 1.363 . S
C2629 H2600 0.950 . S
C2629 C2628 1.397 . S
C2629 C2630 1.334 . S
C2630 H2601 0.950 . S
C2630 C2629 1.334 . S
C2630 C2631 1.287 . S
C2631 C2630 1.287 . S
C2631 C2632 1.524 . S
C2631 H2634 0.999 . S
C2632 H2602 0.950 1_556 S
C2632 C2631 1.524 . S
C2632 C2633 1.415 . S
C2633 H2603 0.950 . S
C2633 C2628 1.363 . S
C2633 C2632 1.415 . S
H2634 C2631 0.999 . S
H2635 C2616 0.913 . S
H2636 C2654 0.951 . S
H2637 C2656 0.951 . S
H2638 C2658 0.950 . S
H2639 C2659 0.950 . S
H2640 C2661 0.950 . S
H2641 C2664 0.950 . S
H2642 C2665 0.950 . S
H2643 C2667 0.950 . S
H2644 C2668 0.950 . S
H2645 C2669 0.951 . S
H2646 C2671 0.951 . S
H2647 C2673 0.950 . S
H2648 C2674 0.950 . S
H2649 C2676 0.950 . S
H2650 C2679 0.950 . S
H2651 C2680 0.950 . S
H2652 C2682 0.950 . S
H2653 C2683 0.950 . S
C2654 H2636 0.951 . S
C2654 C2655 1.366 . S
C2654 C2656 1.388 . S
C2655 C2654 1.366 . S
C2655 C2659 1.385 . S
C2656 H2637 0.951 . S
C2656 C2654 1.388 . S
C2656 C2657 1.366 . S
C2657 C2656 1.366 . S
C2657 C2658 1.414 . S
C2657 C2660 1.499 . S
C2658 H2638 0.950 . S
C2658 C2657 1.414 . S
C2658 C2659 1.374 . S
C2659 H2639 0.950 . S
C2659 C2655 1.385 . S
C2659 C2658 1.374 . S
C2660 C2657 1.499 . S
C2660 C2661 1.373 . S
C2660 C2662 1.389 . S
C2661 H2640 0.950 . S
C2661 C2660 1.373 . S
C2661 C2677 1.377 . S
C2662 C2660 1.389 . S
C2662 C2663 1.524 . S
C2662 C2676 1.377 . S
C2663 C2662 1.524 . S
C2663 C2664 1.397 . S
C2663 C2668 1.363 . S
C2664 H2641 0.950 . S
C2664 C2663 1.397 . S
C2664 C2665 1.334 . S
C2665 H2642 0.950 . S
C2665 C2664 1.334 . S
C2665 C2666 1.287 . S
C2666 C2665 1.287 . S
C2666 C2667 1.524 . S
C2666 H2685 0.913 . S
C2667 H2643 0.950 . S
C2667 C2666 1.524 . S
C2667 C2668 1.415 . S
C2668 H2644 0.950 . S
C2668 C2663 1.363 . S
C2668 C2667 1.415 . S
C2669 H2645 0.951 . S
C2669 C2670 1.366 . S
C2669 C2671 1.388 . S
C2670 C2669 1.366 . S
C2670 C2674 1.385 . S
C2671 H2646 0.951 . S
C2671 C2669 1.388 . S
C2671 C2672 1.366 . S
C2672 C2671 1.366 . S
C2672 C2673 1.414 . S
C2672 C2675 1.499 . S
C2673 H2647 0.950 . S
C2673 C2672 1.414 . S
C2673 C2674 1.374 . S
C2674 H2648 0.950 . S
C2674 C2670 1.385 . S
C2674 C2673 1.374 . S
C2675 C2672 1.499 . S
C2675 C2676 1.373 . S
C2675 C2677 1.389 . S
C2676 H2649 0.950 . S
C2676 C2662 1.377 . S
C2676 C2675 1.373 . S
C2677 C2661 1.377 . S
C2677 C2675 1.389 . S
C2677 C2678 1.524 . S
C2678 C2677 1.524 . S
C2678 C2679 1.397 . S
C2678 C2683 1.363 . S
C2679 H2650 0.950 . S
C2679 C2678 1.397 . S
C2679 C2680 1.334 . S
C2680 H2651 0.950 . S
C2680 C2679 1.334 . S
C2680 C2681 1.287 . S
C2681 C2680 1.287 . S
C2681 C2682 1.524 . S
C2681 H2684 0.999 . S
C2682 H2652 0.950 . S
C2682 C2681 1.524 . S
C2682 C2683 1.415 . S
C2683 H2653 0.950 . S
C2683 C2678 1.363 . S
C2683 C2682 1.415 . S
H2684 C2681 0.999 . S
H2685 C2666 0.913 . S
H2686 C2704 0.951 . S
H2687 C2706 0.951 . S
H2688 C2708 0.950 . S
H2689 C2709 0.950 . S
H2690 C2711 0.950 . S
H2691 C2714 0.950 . S
H2692 C2715 0.950 . S
H2693 C2717 0.950 . S
H2694 C2718 0.950 . S
H2695 C2719 0.951 . S
H2696 C2721 0.951 . S
H2697 C2723 0.950 . S
H2698 C2724 0.950 . S
H2699 C2726 0.950 . S
H2700 C2729 0.950 . S
H2701 C2730 0.950 . S
H2702 C2732 0.950 . S
H2703 C2733 0.950 . S
C2704 H2686 0.951 . S
C2704 C2705 1.366 . S
C2704 C2706 1.388 . S
C2705 C2704 1.366 . S
C2705 C2709 1.385 . S
C2706 H2687 0.951 . S
C2706 C2704 1.388 . S
C2706 C2707 1.366 . S
C2707 C2706 1.366 . S
C2707 C2708 1.414 . S
C2707 C2710 1.499 . S
C2708 H2688 0.950 . S
C2708 C2707 1.414 . S
C2708 C2709 1.374 . S
C2709 H2689 0.950 . S
C2709 C2705 1.385 . S
C2709 C2708 1.374 . S
C2710 C2707 1.499 . S
C2710 C2711 1.373 . S
C2710 C2712 1.389 . S
C2711 H2690 0.950 . S
C2711 C2710 1.373 . S
C2711 C2727 1.377 . S
C2712 C2710 1.389 . S
C2712 C2713 1.524 . S
C2712 C2726 1.377 . S
C2713 C2712 1.524 . S
C2713 C2714 1.397 . S
C2713 C2718 1.363 . S
C2714 H2691 0.950 . S
C2714 C2713 1.397 . S
C2714 C2715 1.334 . S
C2715 H2692 0.950 . S
C2715 C2714 1.334 . S
C2715 C2716 1.287 . S
C2716 C2715 1.287 . S
C2716 C2717 1.524 . S
C2716 H2735 0.913 . S
C2717 H2693 0.950 . S
C2717 C2716 1.524 . S
C2717 C2718 1.415 . S
C2718 H2694 0.950 . S
C2718 C2713 1.363 . S
C2718 C2717 1.415 . S
C2719 H2695 0.951 . S
C2719 C2720 1.366 . S
C2719 C2721 1.388 . S
C2720 C2719 1.366 . S
C2720 C2724 1.385 . S
C2721 H2696 0.951 . S
C2721 C2719 1.388 . S
C2721 C2722 1.366 . S
C2722 C2721 1.366 . S
C2722 C2723 1.414 . S
C2722 C2725 1.499 . S
C2723 H2697 0.950 . S
C2723 C2722 1.414 . S
C2723 C2724 1.374 . S
C2724 H2698 0.950 . S
C2724 C2720 1.385 . S
C2724 C2723 1.374 . S
C2725 C2722 1.499 . S
C2725 C2726 1.373 . S
C2725 C2727 1.389 . S
C2726 H2699 0.950 . S
C2726 C2712 1.377 . S
C2726 C2725 1.373 . S
C2727 C2711 1.377 . S
C2727 C2725 1.389 . S
C2727 C2728 1.524 . S
C2728 C2727 1.524 . S
C2728 C2729 1.397 . S
C2728 C2733 1.363 . S
C2729 H2700 0.950 . S
C2729 C2728 1.397 . S
C2729 C2730 1.334 . S
C2730 H2701 0.950 . S
C2730 C2729 1.334 . S
C2730 C2731 1.287 . S
C2731 C2730 1.287 . S
C2731 C2732 1.524 . S
C2731 H2734 0.999 . S
C2732 H2702 0.950 . S
C2732 C2731 1.524 . S
C2732 C2733 1.415 . S
C2733 H2703 0.950 . S
C2733 C2728 1.363 . S
C2733 C2732 1.415 . S
H2734 C2731 0.999 . S
H2735 C2716 0.913 . S
C355 C222 1.371 . S
C370 C12 1.371 . S
C405 C26 1.371 . S
C420 C236 1.371 . S
C455 C40 1.371 . S
C470 C250 1.371 . S
C505 C54 1.371 . S
C520 C180 1.371 . S
C555 C194 1.371 . S
C570 C68 1.371 . S
C605 C82 1.371 . S
C620 C208 1.371 . S
C655 C306 1.371 . S
C670 C96 1.371 . S
C705 C110 1.371 . S
C720 C320 1.371 . S
C755 C124 1.371 . S
C770 C334 1.371 . S
C805 C264 1.371 . S
C820 C138 1.371 . S
C855 C152 1.371 . S
C870 C278 1.371 . S
C905 C292 1.371 . S
C920 C166 1.371 . S
C955 C11 1.011 . S
C970 C333 1.009 . S
C1005 C263 1.011 . S
C1020 C25 1.009 . S
C1055 C39 1.010 . S
C1070 C277 1.009 . S
C1105 C291 1.009 . S
C1120 C53 1.011 . S
C1155 C67 1.010 . S
C1170 C305 1.010 . S
C1205 C319 1.009 . S
C1220 C81 1.010 . S
C1255 C95 1.010 . S
C1270 C193 1.010 . S
C1305 C207 1.009 . S
C1320 C109 1.010 . S
C1355 C221 1.009 . S
C1370 C123 1.010 . S
C1405 C235 1.009 . S
C1420 C137 1.011 . S
C1455 C151 1.009 . S
C1470 C249 1.010 . S
C1505 C165 1.009 . S
C1520 C179 1.011 . S
C1555 C103 0.953 . S
C1570 C5 0.952 . S
C1605 C117 0.953 . S
C1620 C19 0.952 . S
C1655 C131 0.951 . S
C1670 C33 0.953 . S
C1705 C145 0.952 . S
C1720 C47 0.954 . S
C1755 C61 0.954 . S
C1770 C159 0.951 . S
C1805 C75 0.954 . S
C1820 C89 0.951 . S
C1855 C173 0.954 . S
C1870 C271 0.951 . S
C1905 C187 0.952 . S
C1920 C285 0.952 . S
C1955 C299 0.953 . S
C1970 C201 0.953 . S
C2005 C313 0.951 . S
C2020 C215 0.954 . S
C2055 C327 0.951 . S
C2070 C229 0.954 . S
C2105 C257 0.954 . S
C2120 C243 0.951 . S
C2155 C4 1.317 . S
C2170 C270 1.318 . S
C2205 C284 1.318 . S
C2220 C18 1.318 . S
C2255 C32 1.318 . S
C2270 C298 1.318 . S
C2305 C312 1.318 . S
C2320 C46 1.318 . S
C2355 C60 1.318 . S
C2370 C326 1.318 . S
C2405 C256 1.317 . S
C2420 C74 1.319 . S
C2455 C88 1.319 . S
C2470 C242 1.317 . S
C2505 C172 1.318 . S
C2520 C102 1.318 . S
C2555 C116 1.319 . S
C2570 C186 1.317 . S
C2605 C130 1.318 . S
C2620 C200 1.317 . S
C2655 C144 1.317 . S
C2670 C214 1.318 . S
C2705 C158 1.318 . S
C2720 C228 1.318 . S
