# Generated by pormake.
# Topology uoz, (4)-cn, num edge types: 1
# Building blocks:
#     Node 0, Type 0, BuildingBlock: GALJAG_clean_sbu_0, # of connection points: 4
#     Node 1, Type 0, BuildingBlock: GALJAG_clean_sbu_0, # of connection points: 4
#     Node 2, Type 0, BuildingBlock: GALJAG_clean_sbu_0, # of connection points: 4
#     Node 3, Type 0, BuildingBlock: GALJAG_clean_sbu_0, # of connection points: 4
#     Node 4, Type 0, BuildingBlock: GALJAG_clean_sbu_0, # of connection points: 4
#     Node 5, Type 0, BuildingBlock: GALJAG_clean_sbu_0, # of connection points: 4
#     Node 6, Type 0, BuildingBlock: GALJAG_clean_sbu_0, # of connection points: 4
#     Node 7, Type 0, BuildingBlock: GALJAG_clean_sbu_0, # of connection points: 4
#     Node 8, Type 0, BuildingBlock: GALJAG_clean_sbu_0, # of connection points: 4
#     Node 9, Type 0, BuildingBlock: GALJAG_clean_sbu_0, # of connection points: 4
#     Node 10, Type 0, BuildingBlock: GALJAG_clean_sbu_0, # of connection points: 4
#     Node 11, Type 0, BuildingBlock: GALJAG_clean_sbu_0, # of connection points: 4
#     Node 12, Type 0, BuildingBlock: GALJAG_clean_sbu_0, # of connection points: 4
#     Node 13, Type 0, BuildingBlock: GALJAG_clean_sbu_0, # of connection points: 4
#     Node 14, Type 0, BuildingBlock: GALJAG_clean_sbu_0, # of connection points: 4
#     Node 15, Type 0, BuildingBlock: GALJAG_clean_sbu_0, # of connection points: 4
#     Edge 16, Type (0, 0), BuildingBlock: AJUNOK_clean_linker_0, # of connection points: 2
#     Edge 17, Type (0, 0), BuildingBlock: AJUNOK_clean_linker_0, # of connection points: 2
#     Edge 18, Type (0, 0), BuildingBlock: AJUNOK_clean_linker_0, # of connection points: 2
#     Edge 19, Type (0, 0), BuildingBlock: AJUNOK_clean_linker_0, # of connection points: 2
#     Edge 20, Type (0, 0), BuildingBlock: AJUNOK_clean_linker_0, # of connection points: 2
#     Edge 21, Type (0, 0), BuildingBlock: AJUNOK_clean_linker_0, # of connection points: 2
#     Edge 22, Type (0, 0), BuildingBlock: AJUNOK_clean_linker_0, # of connection points: 2
#     Edge 23, Type (0, 0), BuildingBlock: AJUNOK_clean_linker_0, # of connection points: 2
#     Edge 24, Type (0, 0), BuildingBlock: AJUNOK_clean_linker_0, # of connection points: 2
#     Edge 25, Type (0, 0), BuildingBlock: AJUNOK_clean_linker_0, # of connection points: 2
#     Edge 26, Type (0, 0), BuildingBlock: AJUNOK_clean_linker_0, # of connection points: 2
#     Edge 27, Type (0, 0), BuildingBlock: AJUNOK_clean_linker_0, # of connection points: 2
#     Edge 28, Type (0, 0), BuildingBlock: AJUNOK_clean_linker_0, # of connection points: 2
#     Edge 29, Type (0, 0), BuildingBlock: AJUNOK_clean_linker_0, # of connection points: 2
#     Edge 30, Type (0, 0), BuildingBlock: AJUNOK_clean_linker_0, # of connection points: 2
#     Edge 31, Type (0, 0), BuildingBlock: AJUNOK_clean_linker_0, # of connection points: 2
#     Edge 32, Type (0, 0), BuildingBlock: AJUNOK_clean_linker_0, # of connection points: 2
#     Edge 33, Type (0, 0), BuildingBlock: AJUNOK_clean_linker_0, # of connection points: 2
#     Edge 34, Type (0, 0), BuildingBlock: AJUNOK_clean_linker_0, # of connection points: 2
#     Edge 35, Type (0, 0), BuildingBlock: AJUNOK_clean_linker_0, # of connection points: 2
#     Edge 36, Type (0, 0), BuildingBlock: AJUNOK_clean_linker_0, # of connection points: 2
#     Edge 37, Type (0, 0), BuildingBlock: AJUNOK_clean_linker_0, # of connection points: 2
#     Edge 38, Type (0, 0), BuildingBlock: AJUNOK_clean_linker_0, # of connection points: 2
#     Edge 39, Type (0, 0), BuildingBlock: AJUNOK_clean_linker_0, # of connection points: 2
#     Edge 40, Type (0, 0), BuildingBlock: AJUNOK_clean_linker_0, # of connection points: 2
#     Edge 41, Type (0, 0), BuildingBlock: AJUNOK_clean_linker_0, # of connection points: 2
#     Edge 42, Type (0, 0), BuildingBlock: AJUNOK_clean_linker_0, # of connection points: 2
#     Edge 43, Type (0, 0), BuildingBlock: AJUNOK_clean_linker_0, # of connection points: 2
#     Edge 44, Type (0, 0), BuildingBlock: AJUNOK_clean_linker_0, # of connection points: 2
#     Edge 45, Type (0, 0), BuildingBlock: AJUNOK_clean_linker_0, # of connection points: 2
#     Edge 46, Type (0, 0), BuildingBlock: AJUNOK_clean_linker_0, # of connection points: 2
#     Edge 47, Type (0, 0), BuildingBlock: AJUNOK_clean_linker_0, # of connection points: 2
# Relax obj value: 0.135
# Max RMSD: 0.159
# Mean RMSD: 0.159
data_MOF--net-uoz--node1-GALJAG_clean_sbu_0--edge1-AJUNOK_clean_linker_0
_symmetry_space_group_name_H-M    P1
_symmetry_Int_Tables_number       1
_symmetry_cell_setting            triclinic
loop_
_symmetry_equiv_pos_as_xyz
'x, y, z'
_cell_length_a     47.053053
_cell_length_b     47.070718
_cell_length_c     14.05308
_cell_angle_alpha  89.909611
_cell_angle_beta   90.030491
_cell_angle_gamma 90.029266
loop_
_atom_site_label
_atom_site_type_symbol
_atom_site_fract_x
_atom_site_fract_y
_atom_site_fract_z
_atom_type_partial_charge
In0 In 1.00299 0.59342 0.2857 0.0
O1 O 0.97913 0.56059 0.20264 0.0
O2 O 0.02431 0.56201 0.18934 0.0
C3 C 0.96045 0.62848 0.23112 0.0
C4 C 0.00449 0.55677 0.43654 0.0
C5 C 0.04587 0.62997 0.2492 0.0
O6 O 0.97328 0.61182 0.17603 0.0
O7 O 0.96843 0.62707 0.31731 0.0
O8 O 0.03154 0.63128 0.32551 0.0
O9 O 0.0394 0.60952 0.19568 0.0
C10 C 1.00128 0.54998 0.16697 0.0
O11 O 0.02649 0.568 0.40155 0.0
O12 O 0.98165 0.56707 0.40445 0.0
In13 In 0.66179 0.75299 0.52677 0.0
O14 O 0.68408 0.73837 0.39629 0.0
O15 O 0.68895 0.78193 0.43504 0.0
C16 C 0.63038 0.70742 0.47376 0.0
C17 C 0.70335 0.747 0.66219 0.0
C18 C 0.6229 0.79524 0.51043 0.0
O19 O 0.64192 0.7246 0.41709 0.0
O20 O 0.63528 0.71249 0.561 0.0
O21 O 0.61659 0.77087 0.54136 0.0
O22 O 0.64916 0.79927 0.49963 0.0
C23 C 0.69528 0.76211 0.37828 0.0
O24 O 0.67961 0.75822 0.68219 0.0
O25 O 0.70467 0.73715 0.57953 0.0
In26 In 0.50247 0.41881 0.76166 0.0
O27 O 0.50173 0.44451 0.62798 0.0
O28 O 0.46708 0.44953 0.72563 0.0
C29 C 0.54987 0.38826 0.72767 0.0
C30 C 0.51244 0.45773 0.90119 0.0
C31 C 0.46375 0.37858 0.71674 0.0
O32 O 0.54185 0.40845 0.67511 0.0
O33 O 0.53518 0.38484 0.80229 0.0
O34 O 0.46695 0.38672 0.80229 0.0
O35 O 0.47992 0.39058 0.65809 0.0
C36 C 0.4784 0.45646 0.64749 0.0
O37 O 0.49808 0.43533 0.91662 0.0
O38 O 0.52331 0.45896 0.81928 0.0
In39 In 0.84418 0.25386 0.03575 0.0
O40 O 0.81847 0.27667 0.92502 0.0
O41 O 0.81161 0.23227 0.94389 0.0
C42 C 0.88124 0.29663 0.00669 0.0
C43 C 0.80701 0.2538 0.18576 0.0
C44 C 0.87881 0.21169 0.97726 0.0
O45 O 0.85555 0.29774 0.98167 0.0
O46 O 0.88782 0.27501 0.05572 0.0
O47 O 0.87695 0.21842 0.06455 0.0
O48 O 0.86276 0.22558 0.92264 0.0
C49 C 0.80495 0.25477 0.90058 0.0
O50 O 0.81487 0.23147 0.14411 0.0
O51 O 0.8209 0.2755 0.16093 0.0
In52 In 1.00294 0.41133 0.79357 0.0
O53 O 0.02756 0.43905 0.68685 0.0
O54 O 0.98341 0.43541 0.66533 0.0
C55 C 0.04389 0.37543 0.85407 0.0
C56 C 1.00164 0.45191 0.92378 0.0
C57 C 0.95951 0.37514 0.82507 0.0
O58 O 0.03667 0.37675 0.7671 0.0
O59 O 0.03122 0.39278 0.90744 0.0
O60 O 0.95983 0.40034 0.85493 0.0
O61 O 0.97992 0.36875 0.77046 0.0
C62 C 0.00608 0.44806 0.64266 0.0
O63 O 0.9794 0.44034 0.89227 0.0
O64 O 0.02467 0.44237 0.89088 0.0
In65 In 0.84198 0.75455 0.05041 0.0
O66 O 0.80975 0.7384 0.15239 0.0
O67 O 0.8081 0.78259 0.11539 0.0
C68 C 0.87702 0.71094 0.09608 0.0
C69 C 0.80541 0.74809 0.90098 0.0
C70 C 0.87773 0.79775 0.09337 0.0
O71 O 0.86035 0.72259 0.15402 0.0
O72 O 0.87555 0.72066 0.0121 0.0
O73 O 0.87635 0.78746 0.0101 0.0
O74 O 0.8604 0.78707 0.15155 0.0
C75 C 0.79697 0.76188 0.15886 0.0
O76 O 0.82355 0.768 0.903 0.0
O77 O 0.80809 0.73032 0.96731 0.0
In78 In 0.50235 0.59107 0.31129 0.0
O79 O 0.50059 0.5648 0.44371 0.0
O80 O 0.467 0.55989 0.34136 0.0
C81 C 0.55018 0.62136 0.34358 0.0
C82 C 0.51227 0.55311 0.169 0.0
C83 C 0.46305 0.63035 0.35928 0.0
O84 O 0.54268 0.6008 0.39557 0.0
O85 O 0.53459 0.6253 0.2714 0.0
O86 O 0.46688 0.6233 0.27295 0.0
O87 O 0.47922 0.61809 0.41744 0.0
C88 C 0.47749 0.55284 0.42069 0.0
O89 O 0.49923 0.57632 0.15396 0.0
O90 O 0.52161 0.55028 0.25261 0.0
In91 In 0.66259 0.25816 0.54306 0.0
O92 O 0.6874 0.23521 0.42424 0.0
O93 O 0.68739 0.28008 0.42294 0.0
C94 C 0.62706 0.21603 0.59742 0.0
C95 C 0.70807 0.25762 0.65305 0.0
C96 C 0.62902 0.30217 0.59313 0.0
O97 O 0.62702 0.22531 0.51246 0.0
O98 O 0.64536 0.22726 0.6507 0.0
O99 O 0.64725 0.291 0.64685 0.0
O100 O 0.62801 0.29179 0.50982 0.0
C101 C 0.69809 0.2576 0.38983 0.0
O102 O 0.69701 0.28041 0.62389 0.0
O103 O 0.69548 0.23508 0.62901 0.0
In104 In 0.34255 0.25297 0.55716 0.0
O105 O 0.31815 0.27445 0.43491 0.0
O106 O 0.31559 0.22974 0.44449 0.0
C107 C 0.37891 0.29594 0.59379 0.0
C108 C 0.29871 0.25435 0.6743 0.0
C109 C 0.37796 0.21071 0.61048 0.0
O110 O 0.37915 0.28283 0.51499 0.0
O111 O 0.35971 0.28808 0.6504 0.0
O112 O 0.36067 0.22269 0.66562 0.0
O113 O 0.37682 0.21926 0.52486 0.0
C114 C 0.30616 0.25207 0.40598 0.0
O115 O 0.31021 0.23138 0.64888 0.0
O116 O 0.31009 0.27672 0.6427 0.0
In117 In 0.16632 0.75452 0.07028 0.0
O118 O 0.18216 0.75065 0.91374 0.0
O119 O 0.2068 0.77438 0.01249 0.0
C120 C 0.12675 0.71558 0.11832 0.0
C121 C 0.20292 0.73035 0.18827 0.0
C122 C 0.13516 0.80166 0.10025 0.0
O123 O 0.13563 0.71763 0.03306 0.0
O124 O 0.1378 0.73291 0.17548 0.0
O125 O 0.15892 0.79767 0.13973 0.0
O126 O 0.12828 0.78312 0.03941 0.0
C127 C 0.20503 0.76419 0.92982 0.0
O128 O 0.19 0.75309 0.20861 0.0
O129 O 0.19756 0.71985 0.10762 0.0
In130 In 0.16048 0.2495 0.04915 0.0
O131 O 0.18756 0.27351 0.15884 0.0
O132 O 0.18608 0.22899 0.17237 0.0
C133 C 0.12387 0.29084 0.99731 0.0
C134 C 0.20046 0.25227 0.91673 0.0
C135 C 0.12521 0.20533 0.01673 0.0
O136 O 0.12642 0.28304 0.08343 0.0
O137 O 0.13988 0.278 0.93976 0.0
O138 O 0.15016 0.20654 0.98467 0.0
O139 O 0.11864 0.22527 0.07291 0.0
C140 C 0.19771 0.25182 0.19873 0.0
O141 O 0.19039 0.22898 0.94552 0.0
O142 O 0.18978 0.27418 0.95356 0.0
In143 In 0.33893 0.75311 0.52176 0.0
O144 O 0.32383 0.7499 0.67861 0.0
O145 O 0.29904 0.77416 0.58179 0.0
C146 C 0.37857 0.71322 0.48243 0.0
C147 C 0.29993 0.72864 0.41389 0.0
C148 C 0.3694 0.80011 0.47856 0.0
O149 O 0.37172 0.71904 0.56757 0.0
O150 O 0.36554 0.72741 0.42047 0.0
O151 O 0.34859 0.79167 0.42965 0.0
O152 O 0.37342 0.7862 0.5545 0.0
C153 C 0.30122 0.764 0.66457 0.0
O154 O 0.31266 0.75114 0.38931 0.0
O155 O 0.3069 0.71827 0.49346 0.0
In156 In 0.50579 0.09347 0.78293 0.0
O157 O 0.52944 0.06591 0.89316 0.0
O158 O 0.48472 0.06766 0.90349 0.0
C159 C 0.54818 0.12998 0.73833 0.0
C160 C 0.50249 0.05089 0.66118 0.0
C161 C 0.46253 0.12903 0.7416 0.0
O162 O 0.53695 0.12968 0.82039 0.0
O163 O 0.53894 0.11118 0.68274 0.0
O164 O 0.47364 0.11234 0.68251 0.0
O165 O 0.47277 0.12748 0.82505 0.0
C166 C 0.50734 0.05585 0.93133 0.0
O167 O 0.48069 0.06294 0.69404 0.0
O168 O 0.52602 0.06085 0.68858 0.0
In169 In 0.00634 0.91284 0.28367 0.0
O170 O 0.98935 0.9344 0.41981 0.0
O171 O 0.03211 0.9422 0.3811 0.0
C172 C 0.96415 0.8774 0.2277 0.0
C173 C 0.99547 0.95469 0.16373 0.0
C174 C 0.05262 0.87994 0.25863 0.0
O175 O 0.97083 0.88 0.31486 0.0
O176 O 0.97839 0.89275 0.17195 0.0
O177 O 0.05083 0.9049 0.22659 0.0
O178 O 0.0318 0.87207 0.30931 0.0
C179 C 0.01163 0.94884 0.43448 0.0
O180 O 0.01408 0.93615 0.14603 0.0
O181 O 0.98191 0.95165 0.24019 0.0
In182 In 0.50129 0.91114 0.29225 0.0
O183 O 0.52567 0.93516 0.17375 0.0
O184 O 0.48106 0.93849 0.17398 0.0
C185 C 0.54383 0.87441 0.3329 0.0
C186 C 0.49904 0.95273 0.41902 0.0
C187 C 0.45709 0.87754 0.3419 0.0
O188 O 0.52468 0.86841 0.27273 0.0
O189 O 0.54256 0.8993 0.36528 0.0
O190 O 0.47104 0.89233 0.40018 0.0
O191 O 0.46533 0.87957 0.25616 0.0
C192 C 0.50413 0.94756 0.14009 0.0
O193 O 0.4773 0.94433 0.37488 0.0
O194 O 0.52163 0.93946 0.40088 0.0
In195 In 0.00306 0.09233 0.79515 0.0
O196 O 0.01144 0.07105 0.93602 0.0
O197 O 0.98024 0.05292 0.84364 0.0
C198 C 0.04715 0.12706 0.83315 0.0
C199 C 0.00943 0.05661 0.64379 0.0
C200 C 0.95968 0.1276 0.83861 0.0
O201 O 0.04639 0.10152 0.86026 0.0
O202 O 0.02704 0.13434 0.77852 0.0
O203 O 0.96996 0.12652 0.75525 0.0
O204 O 0.97057 0.11034 0.89651 0.0
C205 C 0.99359 0.05156 0.92115 0.0
O206 O 0.98637 0.06925 0.66177 0.0
O207 O 0.03003 0.06491 0.69413 0.0
C208 C 0.09884 0.67057 0.09569 0.0
C209 C 0.10571 0.69424 0.15184 0.0
C210 C 0.07995 0.64966 0.12888 0.0
C211 C 0.06703 0.65168 0.2193 0.0
H212 H 0.10832 0.66798 0.02602 0.0
H213 H 0.07529 0.63186 0.08267 0.0
S214 S 0.07729 0.71 0.39307 0.0
N215 N 0.09768 0.71876 0.3021 0.0
N216 N 0.06222 0.67959 0.36359 0.0
C217 C 0.07361 0.67533 0.27591 0.0
C218 C 0.0929 0.69655 0.24237 0.0
C219 C 0.58979 0.86299 0.41375 0.0
C220 C 0.56414 0.85347 0.37308 0.0
C221 C 0.60833 0.84418 0.46038 0.0
C222 C 0.60155 0.81525 0.47088 0.0
H223 H 0.59567 0.88521 0.4092 0.0
H224 H 0.62816 0.85237 0.48839 0.0
S225 S 0.53671 0.77959 0.37873 0.0
N226 N 0.53289 0.81314 0.34655 0.0
N227 N 0.56731 0.77791 0.43609 0.0
C228 C 0.57578 0.80548 0.43153 0.0
C229 C 0.55722 0.82453 0.38203 0.0
C230 C 0.42157 0.3471 0.74733 0.0
C231 C 0.44246 0.3573 0.68469 0.0
C232 C 0.40088 0.32765 0.71658 0.0
C233 C 0.40034 0.3175 0.62211 0.0
H234 H 0.42106 0.35429 0.82049 0.0
H235 H 0.3853 0.32034 0.76781 0.0
S236 S 0.45043 0.33746 0.42974 0.0
N237 N 0.46133 0.35568 0.52312 0.0
N238 N 0.42258 0.31916 0.46636 0.0
C239 C 0.42112 0.32749 0.55879 0.0
C240 C 0.44212 0.34736 0.58983 0.0
C241 C 0.91213 0.17084 0.00203 0.0
C242 C 0.89876 0.19 0.93988 0.0
C243 C 0.93126 0.15042 0.96787 0.0
C244 C 0.93806 0.14852 0.87028 0.0
H245 H 0.90778 0.17156 0.07767 0.0
H246 H 0.94109 0.13625 0.01899 0.0
S247 S 0.90917 0.19409 0.67786 0.0
N248 N 0.89373 0.20588 0.77556 0.0
N249 N 0.92991 0.16771 0.71211 0.0
C250 C 0.92484 0.16754 0.80729 0.0
C251 C 0.90515 0.1882 0.84192 0.0
C252 C 0.08084 0.33775 0.83032 0.0
C253 C 0.06455 0.35448 0.89242 0.0
C254 C 0.10003 0.31745 0.86529 0.0
C255 C 0.10356 0.31284 0.96382 0.0
H256 H 0.07879 0.34032 0.75402 0.0
H257 H 0.11205 0.30511 0.81427 0.0
S258 S 0.06571 0.35082 0.15683 0.0
N259 N 0.05316 0.36498 0.05785 0.0
N260 N 0.08902 0.32669 0.12292 0.0
C261 C 0.08737 0.32936 0.02678 0.0
C262 C 0.06795 0.3502 0.99125 0.0
C263 C 0.9235 0.84374 0.25525 0.0
C264 C 0.94182 0.85773 0.19171 0.0
C265 C 0.90251 0.82494 0.22225 0.0
C266 C 0.89913 0.8191 0.12439 0.0
H267 H 0.92536 0.84729 0.33113 0.0
H268 H 0.8891 0.81455 0.27439 0.0
S269 S 0.9415 0.85041 0.92808 0.0
N270 N 0.95492 0.86469 0.02545 0.0
N271 N 0.91575 0.82916 0.96432 0.0
C272 C 0.91719 0.83306 0.05999 0.0
C273 C 0.93843 0.85239 0.09343 0.0
C274 C 0.40617 0.68769 0.35679 0.0
C275 C 0.40005 0.6917 0.45423 0.0
C276 C 0.42634 0.66774 0.32637 0.0
C277 C 0.44133 0.65102 0.39215 0.0
H278 H 0.39534 0.70015 0.30301 0.0
H279 H 0.43036 0.66559 0.25084 0.0
S280 S 0.43257 0.65239 0.65535 0.0
N281 N 0.41017 0.67671 0.61609 0.0
N282 N 0.44806 0.63922 0.55975 0.0
C283 C 0.43524 0.6546 0.48991 0.0
C284 C 0.41463 0.67491 0.52076 0.0
C285 C 0.59326 0.17541 0.57237 0.0
C286 C 0.60705 0.19425 0.63444 0.0
C287 C 0.57475 0.1544 0.6072 0.0
C288 C 0.56893 0.15168 0.70538 0.0
H289 H 0.59698 0.1767 0.49641 0.0
H290 H 0.56464 0.1404 0.55631 0.0
S291 S 0.59897 0.19642 0.8976 0.0
N292 N 0.61334 0.2091 0.79915 0.0
N293 N 0.57825 0.16998 0.86378 0.0
C294 C 0.58239 0.17055 0.7681 0.0
C295 C 0.60152 0.19171 0.73286 0.0
C296 C 0.91242 0.36311 0.89592 0.0
C297 C 0.9394 0.35413 0.86519 0.0
C298 C 0.89403 0.34456 0.9441 0.0
C299 C 0.90231 0.31663 0.96639 0.0
H300 H 0.90543 0.38468 0.88247 0.0
H301 H 0.87315 0.35217 0.96422 0.0
S302 S 0.97098 0.28281 0.90357 0.0
N303 N 0.97356 0.31541 0.86072 0.0
N304 N 0.93927 0.28076 0.95354 0.0
C305 C 0.92936 0.30744 0.93715 0.0
C306 C 0.94782 0.32612 0.88583 0.0
C307 C 0.435 0.15361 0.6136 0.0
C308 C 0.44025 0.14947 0.71152 0.0
C309 C 0.41479 0.17329 0.58141 0.0
C310 C 0.3987 0.18939 0.64583 0.0
H311 H 0.44692 0.14183 0.56084 0.0
H312 H 0.4118 0.17591 0.50546 0.0
S313 S 0.40379 0.18626 0.90984 0.0
N314 N 0.42749 0.16296 0.87257 0.0
N315 N 0.3892 0.19967 0.81282 0.0
C316 C 0.40345 0.18521 0.74413 0.0
C317 C 0.42429 0.16535 0.7768 0.0
C318 C 0.5836 0.64123 0.46613 0.0
C319 C 0.57292 0.64155 0.37229 0.0
C320 C 0.6024 0.66235 0.49874 0.0
C321 C 0.6115 0.68438 0.43835 0.0
H322 H 0.57668 0.62506 0.51594 0.0
H323 H 0.60959 0.66156 0.57192 0.0
S324 S 0.59066 0.69426 0.18497 0.0
N325 N 0.57353 0.66538 0.21888 0.0
N326 N 0.60887 0.70473 0.27894 0.0
C327 C 0.60157 0.68444 0.34351 0.0
C328 C 0.58231 0.66313 0.31077 0.0
C329 C 0.0863 0.81427 0.15266 0.0
C330 C 0.11462 0.82266 0.13714 0.0
C331 C 0.06677 0.83252 0.19667 0.0
C332 C 0.07467 0.8601 0.22439 0.0
H333 H 0.07932 0.79316 0.13267 0.0
H334 H 0.04511 0.82526 0.2065 0.0
S335 S 0.14615 0.89237 0.19902 0.0
N336 N 0.14978 0.86005 0.15485 0.0
N337 N 0.1126 0.89504 0.23264 0.0
C338 C 0.10283 0.86887 0.20844 0.0
C339 C 0.12295 0.84995 0.16624 0.0
C340 C 0.92188 0.66436 0.25881 0.0
C341 C 0.93862 0.64865 0.19511 0.0
C342 C 0.90168 0.68398 0.22571 0.0
C343 C 0.89762 0.68894 0.12759 0.0
H344 H 0.92441 0.66156 0.33487 0.0
H345 H 0.88947 0.69569 0.27787 0.0
S346 S 0.93587 0.65315 0.93089 0.0
N347 N 0.94949 0.63915 0.02854 0.0
N348 N 0.91183 0.67624 0.96716 0.0
C349 C 0.91409 0.67328 0.06307 0.0
C350 C 0.93448 0.6531 0.09663 0.0
C351 C 0.09465 0.13902 0.90253 0.0
C352 C 0.06714 0.14766 0.87611 0.0
C353 C 0.11315 0.15759 0.95038 0.0
C354 C 0.10437 0.18502 0.97703 0.0
H355 H 0.10202 0.11785 0.88527 0.0
H356 H 0.13448 0.15042 0.96674 0.0
S357 S 0.03412 0.21756 0.92743 0.0
N358 N 0.03194 0.18544 0.88084 0.0
N359 N 0.06632 0.21989 0.97368 0.0
C360 C 0.07673 0.19371 0.95272 0.0
C361 C 0.05822 0.17515 0.90145 0.0
C362 C 0.59683 0.34395 0.5654 0.0
C363 C 0.60975 0.32474 0.62851 0.0
C364 C 0.57848 0.36527 0.59886 0.0
C365 C 0.57191 0.36777 0.69648 0.0
H366 H 0.60094 0.34256 0.4897 0.0
H367 H 0.56869 0.37933 0.54735 0.0
S368 S 0.60013 0.32261 0.89102 0.0
N369 N 0.61495 0.3098 0.79366 0.0
N370 N 0.58002 0.34934 0.8556 0.0
C371 C 0.58481 0.34878 0.76023 0.0
C372 C 0.60383 0.32741 0.72653 0.0
C373 C 0.41023 0.83331 0.50509 0.0
C374 C 0.38975 0.82186 0.44325 0.0
C375 C 0.43152 0.85162 0.4715 0.0
C376 C 0.43357 0.85884 0.37434 0.0
H377 H 0.41007 0.8278 0.57996 0.0
H378 H 0.44693 0.85966 0.52207 0.0
S379 S 0.38479 0.83518 0.18294 0.0
N380 N 0.37238 0.81978 0.28006 0.0
N381 N 0.41278 0.85374 0.21712 0.0
C382 C 0.41304 0.84787 0.31182 0.0
C383 C 0.39103 0.82956 0.34624 0.0
C384 C 0.02614 0.51393 0.07018 0.0
C385 C 1.00055 0.52482 0.10612 0.0
C386 C 0.02629 0.48985 0.01285 0.0
C387 C 1.00084 0.47593 0.98949 0.0
H388 H 0.04626 0.52408 0.08603 0.0
H389 H 0.04649 0.48238 0.98568 0.0
S390 S 0.9282 0.49545 0.06858 0.0
N391 N 0.94913 0.51961 0.11675 0.0
N392 N 0.94942 0.47414 0.0084 0.0
C393 C 0.97509 0.48632 0.02605 0.0
C394 C 0.97494 0.51089 0.08453 0.0
C395 C 0.76205 0.78761 0.25908 0.0
C396 C 0.76934 0.76378 0.20469 0.0
C397 C 0.73664 0.78799 0.31065 0.0
C398 C 0.71788 0.76472 0.30739 0.0
H399 H 0.77666 0.80529 0.26567 0.0
H400 H 0.73249 0.80584 0.35714 0.0
S401 S 0.72514 0.70009 0.15853 0.0
N402 N 0.7546 0.71826 0.13974 0.0
N403 N 0.70634 0.71934 0.23365 0.0
C404 C 0.72391 0.742 0.24604 0.0
C405 C 0.7499 0.74139 0.19548 0.0
C406 C 0.46943 0.5017 0.43258 0.0
C407 C 0.46713 0.52862 0.47423 0.0
C408 C 0.47021 0.47743 0.4896 0.0
C409 C 0.46785 0.47966 0.58883 0.0
H410 H 0.47371 0.4996 0.35713 0.0
H411 H 0.47489 0.45715 0.45678 0.0
S412 S 0.45548 0.54514 0.7283 0.0
N413 N 0.45863 0.55617 0.61713 0.0
N414 N 0.45863 0.51018 0.72482 0.0
C415 C 0.46194 0.50615 0.62974 0.0
C416 C 0.46201 0.5309 0.57195 0.0
C417 C 0.76501 0.23134 0.81799 0.0
C418 C 0.78186 0.25563 0.83121 0.0
C419 C 0.74131 0.23211 0.75883 0.0
C420 C 0.73372 0.25722 0.71134 0.0
H421 H 0.76972 0.21172 0.85522 0.0
H422 H 0.72854 0.21306 0.75199 0.0
S423 S 0.77254 0.32582 0.71477 0.0
N424 N 0.79066 0.30493 0.78709 0.0
N425 N 0.74584 0.30637 0.67533 0.0
C426 C 0.75092 0.28142 0.72116 0.0
C427 C 0.77513 0.28062 0.7813 0.0
C428 C 0.23863 0.22836 0.82706 0.0
C429 C 0.22433 0.25355 0.85043 0.0
C430 C 0.26277 0.22894 0.77003 0.0
C431 C 0.27335 0.25472 0.7343 0.0
H432 H 0.2315 0.20804 0.85439 0.0
H433 H 0.27329 0.209 0.75456 0.0
S434 S 0.2425 0.32644 0.77008 0.0
N435 N 0.22155 0.30488 0.83066 0.0
N436 N 0.26715 0.30598 0.72253 0.0
C437 C 0.25892 0.28006 0.75535 0.0
C438 C 0.23429 0.27947 0.81367 0.0
C439 C 0.27737 0.71627 0.26162 0.0
C440 C 0.27535 0.71877 0.3608 0.0
C441 C 0.2529 0.71633 0.20544 0.0
C442 C 0.22612 0.72008 0.24738 0.0
H443 H 0.29796 0.71642 0.22709 0.0
H444 H 0.2552 0.71645 0.12873 0.0
S445 S 0.20963 0.72335 0.50449 0.0
N446 N 0.24463 0.72087 0.49955 0.0
N447 N 0.1985 0.72271 0.39297 0.0
C448 C 0.2237 0.72004 0.34666 0.0
C449 C 0.24852 0.71894 0.40395 0.0
C450 C 0.52408 0.9854 0.52779 0.0
C451 C 0.49871 0.97721 0.48288 0.0
C452 C 0.52509 0.00952 0.58472 0.0
C453 C 0.50073 0.02614 0.59897 0.0
H454 H 0.54344 0.97327 0.51843 0.0
H455 H 0.54509 0.01503 0.61823 0.0
S456 S 0.42906 0.0139 0.4968 0.0
N457 N 0.44863 0.98752 0.45581 0.0
N458 N 0.45053 0.03307 0.56387 0.0
C459 C 0.47513 0.01816 0.55507 0.0
C460 C 0.47411 0.99358 0.49669 0.0
C461 C 0.98892 1.00008 0.94616 0.0
C462 C 0.99064 0.02749 0.98494 0.0
C463 C 0.98996 0.97627 0.0051 0.0
C464 C 0.99172 0.97948 0.10394 0.0
H465 H 0.98817 0.99702 0.86976 0.0
H466 H 0.98976 0.95529 0.97338 0.0
S467 S 0.99485 0.04674 0.23986 0.0
N468 N 0.99331 0.0567 0.12715 0.0
N469 N 0.99392 0.01166 0.23895 0.0
C470 C 0.99207 0.00674 0.14382 0.0
C471 C 0.9919 0.03094 0.08377 0.0
C472 C 0.98087 0.48726 0.55374 0.0
C473 C 0.00651 0.47491 0.58517 0.0
C474 C 0.98031 0.51414 0.50938 0.0
C475 C 0.00536 0.52999 0.49431 0.0
H476 H 0.96091 0.47626 0.56456 0.0
H477 H 0.96003 0.52235 0.48543 0.0
S478 S 0.07817 0.50759 0.56385 0.0
N479 N 0.0577 0.48101 0.59837 0.0
N480 N 0.05664 0.53117 0.51513 0.0
C481 C 0.03115 0.51793 0.5255 0.0
C482 C 0.03173 0.49055 0.57064 0.0
C483 C 0.75317 0.7401 0.87588 0.0
C484 C 0.77987 0.74798 0.83798 0.0
C485 C 0.72821 0.74063 0.82026 0.0
C486 C 0.72916 0.74819 0.72363 0.0
H487 H 0.75144 0.73392 0.94985 0.0
H488 H 0.70823 0.73446 0.85248 0.0
S489 S 0.79343 0.77081 0.58982 0.0
N490 N 0.80533 0.76439 0.69839 0.0
N491 N 0.75898 0.76406 0.59253 0.0
C492 C 0.75571 0.75601 0.68481 0.0
C493 C 0.78091 0.7563 0.74221 0.0
C494 C 0.51046 0.50104 0.13118 0.0
C495 C 0.5136 0.52931 0.0992 0.0
C496 C 0.51018 0.47799 0.06728 0.0
C497 C 0.51398 0.48216 0.96897 0.0
H498 H 0.50744 0.49672 0.20623 0.0
H499 H 0.50703 0.45676 0.09518 0.0
S500 S 0.52453 0.55192 0.84933 0.0
N501 N 0.52096 0.56008 0.96297 0.0
N502 N 0.52178 0.51698 0.84321 0.0
C503 C 0.51788 0.51032 0.93642 0.0
C504 C 0.51731 0.53382 0.00131 0.0
C505 C 0.76381 0.23047 0.25802 0.0
C506 C 0.78017 0.2552 0.24299 0.0
C507 C 0.73694 0.23155 0.3022 0.0
C508 C 0.72498 0.25744 0.33264 0.0
H509 H 0.77168 0.21003 0.23463 0.0
H510 H 0.72555 0.21181 0.31326 0.0
S511 S 0.75908 0.32843 0.31127 0.0
N512 N 0.78231 0.30644 0.26332 0.0
N513 N 0.73205 0.3085 0.34534 0.0
C514 C 0.74111 0.28235 0.31798 0.0
C515 C 0.76857 0.28122 0.2737 0.0
C516 C 0.26409 0.2271 0.3326 0.0
C517 C 0.27951 0.25241 0.3476 0.0
C518 C 0.2373 0.22719 0.28767 0.0
C519 C 0.22457 0.25261 0.25601 0.0
H520 H 0.27259 0.20698 0.35688 0.0
H521 H 0.22661 0.20706 0.27688 0.0
S522 S 0.25603 0.3248 0.27714 0.0
N523 N 0.2799 0.30368 0.32622 0.0
N524 N 0.22983 0.30389 0.2425 0.0
C525 C 0.23977 0.27809 0.27052 0.0
C526 C 0.2671 0.27797 0.31585 0.0
C527 C 0.24902 0.76815 0.70117 0.0
C528 C 0.27728 0.76557 0.73424 0.0
C529 C 0.22565 0.76744 0.764 0.0
C530 C 0.22965 0.76523 0.86285 0.0
H531 H 0.24483 0.77 0.62565 0.0
H532 H 0.20436 0.7689 0.73503 0.0
S533 S 0.29918 0.75861 0.98663 0.0
N534 N 0.30767 0.76056 0.87277 0.0
N535 N 0.26417 0.76076 0.99095 0.0
C536 C 0.25781 0.76332 0.89698 0.0
C537 C 0.28149 0.76311 0.83282 0.0
C538 C 0.48067 0.98906 0.05833 0.0
C539 C 0.50574 0.97418 0.0816 0.0
C540 C 0.48146 0.01578 0.01311 0.0
C541 C 0.50736 0.02902 0.98902 0.0
H542 H 0.46012 0.98017 0.07623 0.0
H543 H 0.46147 0.02598 0.99591 0.0
S544 S 0.57927 0.99936 0.03464 0.0
N545 N 0.5574 0.97503 0.07725 0.0
N546 N 0.55887 0.02496 0.99227 0.0
C547 C 0.53263 0.01441 0.01187 0.0
C548 C 0.53183 0.98714 0.05789 0.0
C549 C 0.98551 0.01533 0.56291 0.0
C550 C 0.01072 0.03013 0.58508 0.0
C551 C 0.98608 0.98855 0.51833 0.0
C552 C 0.01188 0.97541 0.4929 0.0
H553 H 0.96506 0.02422 0.5819 0.0
H554 H 0.96603 0.97835 0.502 0.0
S555 S 0.08396 0.00523 0.53348 0.0
N556 N 0.06231 0.02944 0.57774 0.0
N557 N 0.06337 0.9796 0.49247 0.0
C558 C 0.03724 0.99006 0.51391 0.0
C559 C 0.03667 0.01722 0.56022 0.0
loop_
_geom_bond_atom_site_label_1
_geom_bond_atom_site_label_2
_geom_bond_distance
_geom_bond_site_symmetry_2
_ccdc_geom_bond_type
In0 O1 2.294 1_455 S
In0 O2 2.326 . S
In0 O6 2.266 1_455 S
In0 O7 2.326 1_455 S
In0 O8 2.266 . S
In0 O9 2.326 . S
In0 O11 2.294 . S
In0 O12 2.326 1_455 S
O1 In0 2.294 1_655 S
O1 C10 1.240 1_655 S
O2 In0 2.326 . S
O2 C10 1.252 . S
C3 O6 1.252 . S
C3 O7 1.260 . S
C4 O11 1.240 1_655 S
C4 O12 1.252 . S
C5 O8 1.252 . S
C5 O9 1.260 . S
O6 In0 2.266 1_655 S
O6 C3 1.252 . S
O7 In0 2.326 1_655 S
O7 C3 1.260 . S
O8 In0 2.266 . S
O8 C5 1.252 . S
O9 In0 2.326 . S
O9 C5 1.260 . S
C10 O1 1.240 1_455 S
C10 O2 1.252 . S
O11 In0 2.294 . S
O11 C4 1.240 1_455 S
O12 In0 2.326 1_655 S
O12 C4 1.252 . S
In13 O14 2.294 . S
In13 O15 2.326 . S
In13 O19 2.266 . S
In13 O20 2.326 . S
In13 O21 2.266 . S
In13 O22 2.326 . S
In13 O24 2.294 . S
In13 O25 2.326 . S
O14 In13 2.294 . S
O14 C23 1.240 . S
O15 In13 2.326 . S
O15 C23 1.252 . S
C16 O19 1.252 . S
C16 O20 1.260 . S
C17 O24 1.240 . S
C17 O25 1.252 . S
C18 O21 1.252 . S
C18 O22 1.260 . S
O19 In13 2.266 . S
O19 C16 1.252 . S
O20 In13 2.326 . S
O20 C16 1.260 . S
O21 In13 2.266 . S
O21 C18 1.252 . S
O22 In13 2.326 . S
O22 C18 1.260 . S
C23 O14 1.240 . S
C23 O15 1.252 . S
O24 In13 2.294 . S
O24 C17 1.240 . S
O25 In13 2.326 . S
O25 C17 1.252 . S
In26 O27 2.294 . S
In26 O28 2.326 . S
In26 O32 2.266 . S
In26 O33 2.326 . S
In26 O34 2.266 . S
In26 O35 2.326 . S
In26 O37 2.294 . S
In26 O38 2.326 . S
O27 In26 2.294 . S
O27 C36 1.240 . S
O28 In26 2.326 . S
O28 C36 1.252 . S
C29 O32 1.252 . S
C29 O33 1.260 . S
C30 O37 1.240 . S
C30 O38 1.252 . S
C31 O34 1.252 . S
C31 O35 1.260 . S
O32 In26 2.266 . S
O32 C29 1.252 . S
O33 In26 2.326 . S
O33 C29 1.260 . S
O34 In26 2.266 . S
O34 C31 1.252 . S
O35 In26 2.326 . S
O35 C31 1.260 . S
C36 O27 1.240 . S
C36 O28 1.252 . S
O37 In26 2.294 . S
O37 C30 1.240 . S
O38 In26 2.326 . S
O38 C30 1.252 . S
In39 O40 2.293 1_554 S
In39 O41 2.326 1_554 S
In39 O45 2.266 1_554 S
In39 O46 2.326 . S
In39 O47 2.266 . S
In39 O48 2.325 1_554 S
In39 O50 2.295 . S
In39 O51 2.327 . S
O40 In39 2.293 1_556 S
O40 C49 1.240 . S
O41 In39 2.326 1_556 S
O41 C49 1.252 . S
C42 O45 1.252 1_554 S
C42 O46 1.260 . S
C43 O50 1.240 . S
C43 O51 1.252 . S
C44 O47 1.252 1_556 S
C44 O48 1.260 . S
O45 In39 2.266 1_556 S
O45 C42 1.252 1_556 S
O46 In39 2.326 . S
O46 C42 1.260 . S
O47 In39 2.266 . S
O47 C44 1.252 1_554 S
O48 In39 2.325 1_556 S
O48 C44 1.260 . S
C49 O40 1.240 . S
C49 O41 1.252 . S
O50 In39 2.295 . S
O50 C43 1.240 . S
O51 In39 2.327 . S
O51 C43 1.252 . S
In52 O53 2.294 . S
In52 O54 2.326 1_455 S
In52 O58 2.266 . S
In52 O59 2.326 . S
In52 O60 2.266 1_455 S
In52 O61 2.326 1_455 S
In52 O63 2.294 1_455 S
In52 O64 2.326 . S
O53 In52 2.294 . S
O53 C62 1.240 1_455 S
O54 In52 2.326 1_655 S
O54 C62 1.252 . S
C55 O58 1.252 . S
C55 O59 1.260 . S
C56 O63 1.240 1_455 S
C56 O64 1.252 . S
C57 O60 1.252 . S
C57 O61 1.260 . S
O58 In52 2.266 . S
O58 C55 1.252 . S
O59 In52 2.326 . S
O59 C55 1.260 . S
O60 In52 2.266 1_655 S
O60 C57 1.252 . S
O61 In52 2.326 1_655 S
O61 C57 1.260 . S
C62 O53 1.240 1_655 S
C62 O54 1.252 . S
O63 In52 2.294 1_655 S
O63 C56 1.240 1_655 S
O64 In52 2.326 . S
O64 C56 1.252 . S
In65 O66 2.294 . S
In65 O67 2.326 . S
In65 O71 2.266 . S
In65 O72 2.326 . S
In65 O73 2.266 . S
In65 O74 2.326 . S
In65 O76 2.294 1_554 S
In65 O77 2.326 . S
O66 In65 2.294 . S
O66 C75 1.240 . S
O67 In65 2.326 . S
O67 C75 1.252 . S
C68 O71 1.252 . S
C68 O72 1.260 . S
C69 O76 1.240 . S
C69 O77 1.252 1_556 S
C70 O73 1.252 . S
C70 O74 1.260 . S
O71 In65 2.266 . S
O71 C68 1.252 . S
O72 In65 2.326 . S
O72 C68 1.260 . S
O73 In65 2.266 . S
O73 C70 1.252 . S
O74 In65 2.326 . S
O74 C70 1.260 . S
C75 O66 1.240 . S
C75 O67 1.252 . S
O76 In65 2.294 1_556 S
O76 C69 1.240 . S
O77 In65 2.326 . S
O77 C69 1.252 1_554 S
In78 O79 2.294 . S
In78 O80 2.326 . S
In78 O84 2.266 . S
In78 O85 2.326 . S
In78 O86 2.266 . S
In78 O87 2.326 . S
In78 O89 2.294 . S
In78 O90 2.326 . S
O79 In78 2.294 . S
O79 C88 1.240 . S
O80 In78 2.326 . S
O80 C88 1.252 . S
C81 O84 1.252 . S
C81 O85 1.260 . S
C82 O89 1.240 . S
C82 O90 1.252 . S
C83 O86 1.252 . S
C83 O87 1.260 . S
O84 In78 2.266 . S
O84 C81 1.252 . S
O85 In78 2.326 . S
O85 C81 1.260 . S
O86 In78 2.266 . S
O86 C83 1.252 . S
O87 In78 2.326 . S
O87 C83 1.260 . S
C88 O79 1.240 . S
C88 O80 1.252 . S
O89 In78 2.294 . S
O89 C82 1.240 . S
O90 In78 2.326 . S
O90 C82 1.252 . S
In91 O92 2.294 . S
In91 O93 2.326 . S
In91 O97 2.266 . S
In91 O98 2.326 . S
In91 O99 2.266 . S
In91 O100 2.326 . S
In91 O102 2.294 . S
In91 O103 2.326 . S
O92 In91 2.294 . S
O92 C101 1.240 . S
O93 In91 2.326 . S
O93 C101 1.252 . S
C94 O97 1.252 . S
C94 O98 1.260 . S
C95 O102 1.240 . S
C95 O103 1.252 . S
C96 O99 1.252 . S
C96 O100 1.260 . S
O97 In91 2.266 . S
O97 C94 1.252 . S
O98 In91 2.326 . S
O98 C94 1.260 . S
O99 In91 2.266 . S
O99 C96 1.252 . S
O100 In91 2.326 . S
O100 C96 1.260 . S
C101 O92 1.240 . S
C101 O93 1.252 . S
O102 In91 2.294 . S
O102 C95 1.240 . S
O103 In91 2.326 . S
O103 C95 1.252 . S
In104 O105 2.294 . S
In104 O106 2.326 . S
In104 O110 2.266 . S
In104 O111 2.326 . S
In104 O112 2.266 . S
In104 O113 2.326 . S
In104 O115 2.294 . S
In104 O116 2.326 . S
O105 In104 2.294 . S
O105 C114 1.240 . S
O106 In104 2.326 . S
O106 C114 1.252 . S
C107 O110 1.252 . S
C107 O111 1.260 . S
C108 O115 1.240 . S
C108 O116 1.252 . S
C109 O112 1.252 . S
C109 O113 1.260 . S
O110 In104 2.266 . S
O110 C107 1.252 . S
O111 In104 2.326 . S
O111 C107 1.260 . S
O112 In104 2.266 . S
O112 C109 1.252 . S
O113 In104 2.326 . S
O113 C109 1.260 . S
C114 O105 1.240 . S
C114 O106 1.252 . S
O115 In104 2.294 . S
O115 C108 1.240 . S
O116 In104 2.326 . S
O116 C108 1.252 . S
In117 O118 2.294 1_554 S
In117 O119 2.326 . S
In117 O123 2.266 . S
In117 O124 2.326 . S
In117 O125 2.266 . S
In117 O126 2.326 . S
In117 O128 2.294 . S
In117 O129 2.326 . S
O118 In117 2.294 1_556 S
O118 C127 1.240 . S
O119 In117 2.326 . S
O119 C127 1.252 1_554 S
C120 O123 1.252 . S
C120 O124 1.260 . S
C121 O128 1.240 . S
C121 O129 1.252 . S
C122 O125 1.252 . S
C122 O126 1.260 . S
O123 In117 2.266 . S
O123 C120 1.252 . S
O124 In117 2.326 . S
O124 C120 1.260 . S
O125 In117 2.266 . S
O125 C122 1.252 . S
O126 In117 2.326 . S
O126 C122 1.260 . S
C127 O118 1.240 . S
C127 O119 1.252 1_556 S
O128 In117 2.294 . S
O128 C121 1.240 . S
O129 In117 2.326 . S
O129 C121 1.252 . S
In130 O131 2.295 . S
In130 O132 2.327 . S
In130 O136 2.266 . S
In130 O137 2.325 1_554 S
In130 O138 2.266 1_554 S
In130 O139 2.326 . S
In130 O141 2.293 1_554 S
In130 O142 2.326 1_554 S
O131 In130 2.295 . S
O131 C140 1.240 . S
O132 In130 2.327 . S
O132 C140 1.252 . S
C133 O136 1.252 1_556 S
C133 O137 1.260 . S
C134 O141 1.240 . S
C134 O142 1.252 . S
C135 O138 1.252 1_554 S
C135 O139 1.260 . S
O136 In130 2.266 . S
O136 C133 1.252 1_554 S
O137 In130 2.325 1_556 S
O137 C133 1.260 . S
O138 In130 2.266 1_556 S
O138 C135 1.252 1_556 S
O139 In130 2.326 . S
O139 C135 1.260 . S
C140 O131 1.240 . S
C140 O132 1.252 . S
O141 In130 2.293 1_556 S
O141 C134 1.240 . S
O142 In130 2.326 1_556 S
O142 C134 1.252 . S
In143 O144 2.294 . S
In143 O145 2.326 . S
In143 O149 2.266 . S
In143 O150 2.326 . S
In143 O151 2.266 . S
In143 O152 2.326 . S
In143 O154 2.294 . S
In143 O155 2.326 . S
O144 In143 2.294 . S
O144 C153 1.240 . S
O145 In143 2.326 . S
O145 C153 1.252 . S
C146 O149 1.252 . S
C146 O150 1.260 . S
C147 O154 1.240 . S
C147 O155 1.252 . S
C148 O151 1.252 . S
C148 O152 1.260 . S
O149 In143 2.266 . S
O149 C146 1.252 . S
O150 In143 2.326 . S
O150 C146 1.260 . S
O151 In143 2.266 . S
O151 C148 1.252 . S
O152 In143 2.326 . S
O152 C148 1.260 . S
C153 O144 1.240 . S
C153 O145 1.252 . S
O154 In143 2.294 . S
O154 C147 1.240 . S
O155 In143 2.326 . S
O155 C147 1.252 . S
In156 O157 2.294 . S
In156 O158 2.326 . S
In156 O162 2.266 . S
In156 O163 2.326 . S
In156 O164 2.266 . S
In156 O165 2.326 . S
In156 O167 2.294 . S
In156 O168 2.326 . S
O157 In156 2.294 . S
O157 C166 1.240 . S
O158 In156 2.326 . S
O158 C166 1.252 . S
C159 O162 1.252 . S
C159 O163 1.260 . S
C160 O167 1.240 . S
C160 O168 1.252 . S
C161 O164 1.252 . S
C161 O165 1.260 . S
O162 In156 2.266 . S
O162 C159 1.252 . S
O163 In156 2.326 . S
O163 C159 1.260 . S
O164 In156 2.266 . S
O164 C161 1.252 . S
O165 In156 2.326 . S
O165 C161 1.260 . S
C166 O157 1.240 . S
C166 O158 1.252 . S
O167 In156 2.294 . S
O167 C160 1.240 . S
O168 In156 2.326 . S
O168 C160 1.252 . S
In169 O170 2.294 1_455 S
In169 O171 2.326 . S
In169 O175 2.266 1_455 S
In169 O176 2.326 1_455 S
In169 O177 2.266 . S
In169 O178 2.326 . S
In169 O180 2.294 . S
In169 O181 2.326 1_455 S
O170 In169 2.294 1_655 S
O170 C179 1.240 1_655 S
O171 In169 2.326 . S
O171 C179 1.252 . S
C172 O175 1.252 . S
C172 O176 1.260 . S
C173 O180 1.240 1_655 S
C173 O181 1.252 . S
C174 O177 1.252 . S
C174 O178 1.260 . S
O175 In169 2.266 1_655 S
O175 C172 1.252 . S
O176 In169 2.326 1_655 S
O176 C172 1.260 . S
O177 In169 2.266 . S
O177 C174 1.252 . S
O178 In169 2.326 . S
O178 C174 1.260 . S
C179 O170 1.240 1_455 S
C179 O171 1.252 . S
O180 In169 2.294 . S
O180 C173 1.240 1_455 S
O181 In169 2.326 1_655 S
O181 C173 1.252 . S
In182 O183 2.294 . S
In182 O184 2.326 . S
In182 O188 2.266 . S
In182 O189 2.326 . S
In182 O190 2.266 . S
In182 O191 2.326 . S
In182 O193 2.294 . S
In182 O194 2.326 . S
O183 In182 2.294 . S
O183 C192 1.240 . S
O184 In182 2.326 . S
O184 C192 1.252 . S
C185 O188 1.252 . S
C185 O189 1.260 . S
C186 O193 1.240 . S
C186 O194 1.252 . S
C187 O190 1.252 . S
C187 O191 1.260 . S
O188 In182 2.266 . S
O188 C185 1.252 . S
O189 In182 2.326 . S
O189 C185 1.260 . S
O190 In182 2.266 . S
O190 C187 1.252 . S
O191 In182 2.326 . S
O191 C187 1.260 . S
C192 O183 1.240 . S
C192 O184 1.252 . S
O193 In182 2.294 . S
O193 C186 1.240 . S
O194 In182 2.326 . S
O194 C186 1.252 . S
In195 O196 2.294 . S
In195 O197 2.326 1_455 S
In195 O201 2.266 . S
In195 O202 2.326 . S
In195 O203 2.266 1_455 S
In195 O204 2.326 1_455 S
In195 O206 2.294 1_455 S
In195 O207 2.326 . S
O196 In195 2.294 . S
O196 C205 1.240 1_455 S
O197 In195 2.326 1_655 S
O197 C205 1.252 . S
C198 O201 1.252 . S
C198 O202 1.260 . S
C199 O206 1.240 1_455 S
C199 O207 1.252 . S
C200 O203 1.252 . S
C200 O204 1.260 . S
O201 In195 2.266 . S
O201 C198 1.252 . S
O202 In195 2.326 . S
O202 C198 1.260 . S
O203 In195 2.266 1_655 S
O203 C200 1.252 . S
O204 In195 2.326 1_655 S
O204 C200 1.260 . S
C205 O196 1.240 1_655 S
C205 O197 1.252 . S
O206 In195 2.294 1_655 S
O206 C199 1.240 1_655 S
O207 In195 2.326 . S
O207 C199 1.252 . S
C208 C209 1.369 . S
C208 C210 1.419 . S
C208 H212 0.930 . S
C209 C208 1.369 . S
C209 C218 1.429 . S
C210 C208 1.419 . S
C210 C211 1.363 . S
C210 H213 0.929 . S
C211 C210 1.363 . S
C211 C217 1.428 . S
H212 C208 0.930 . S
H213 C210 0.929 . S
S214 N215 1.613 . S
S214 N216 1.610 . S
N215 S214 1.613 . S
N215 C218 1.350 . S
N216 S214 1.610 . S
N216 C217 1.351 . S
C217 C211 1.428 . S
C217 N216 1.351 . S
C217 C218 1.434 . S
C218 C209 1.429 . S
C218 N215 1.350 . S
C218 C217 1.434 . S
C219 C220 1.369 . S
C219 C221 1.419 . S
C219 H223 0.930 . S
C220 C219 1.369 . S
C220 C229 1.429 . S
C221 C219 1.419 . S
C221 C222 1.363 . S
C221 H224 0.929 . S
C222 C221 1.363 . S
C222 C228 1.428 . S
H223 C219 0.930 . S
H224 C221 0.929 . S
S225 N226 1.613 . S
S225 N227 1.610 . S
N226 S225 1.613 . S
N226 C229 1.350 . S
N227 S225 1.610 . S
N227 C228 1.351 . S
C228 C222 1.428 . S
C228 N227 1.351 . S
C228 C229 1.434 . S
C229 C220 1.429 . S
C229 N226 1.350 . S
C229 C228 1.434 . S
C230 C231 1.369 . S
C230 C232 1.419 . S
C230 H234 0.930 . S
C231 C230 1.369 . S
C231 C240 1.429 . S
C232 C230 1.419 . S
C232 C233 1.363 . S
C232 H235 0.929 . S
C233 C232 1.363 . S
C233 C239 1.428 . S
H234 C230 0.930 . S
H235 C232 0.929 . S
S236 N237 1.613 . S
S236 N238 1.610 . S
N237 S236 1.613 . S
N237 C240 1.350 . S
N238 S236 1.610 . S
N238 C239 1.351 . S
C239 C233 1.428 . S
C239 N238 1.351 . S
C239 C240 1.434 . S
C240 C231 1.429 . S
C240 N237 1.350 . S
C240 C239 1.434 . S
C241 C242 1.369 . S
C241 C243 1.419 . S
C241 H245 0.930 1_556 S
C242 C241 1.369 . S
C242 C251 1.429 . S
C243 C241 1.419 . S
C243 C244 1.363 . S
C243 H246 0.929 1_556 S
C244 C243 1.363 . S
C244 C250 1.428 . S
H245 C241 0.930 1_554 S
H246 C243 0.929 1_554 S
S247 N248 1.613 . S
S247 N249 1.610 . S
N248 S247 1.613 . S
N248 C251 1.350 . S
N249 S247 1.610 . S
N249 C250 1.351 . S
C250 C244 1.428 . S
C250 N249 1.351 . S
C250 C251 1.434 . S
C251 C242 1.429 . S
C251 N248 1.350 . S
C251 C250 1.434 . S
C252 C253 1.369 . S
C252 C254 1.419 . S
C252 H256 0.930 . S
C253 C252 1.369 . S
C253 C262 1.429 . S
C254 C252 1.419 . S
C254 C255 1.363 . S
C254 H257 0.929 . S
C255 C254 1.363 . S
C255 C261 1.428 1_556 S
H256 C252 0.930 . S
H257 C254 0.929 . S
S258 N259 1.613 . S
S258 N260 1.610 . S
N259 S258 1.613 . S
N259 C262 1.350 1_554 S
N260 S258 1.610 . S
N260 C261 1.351 . S
C261 C255 1.428 1_554 S
C261 N260 1.351 . S
C261 C262 1.434 1_554 S
C262 C253 1.429 . S
C262 N259 1.350 1_556 S
C262 C261 1.434 1_556 S
C263 C264 1.369 . S
C263 C265 1.419 . S
C263 H267 0.930 . S
C264 C263 1.369 . S
C264 C273 1.429 . S
C265 C263 1.419 . S
C265 C266 1.363 . S
C265 H268 0.929 . S
C266 C265 1.363 . S
C266 C272 1.428 . S
H267 C263 0.930 . S
H268 C265 0.929 . S
S269 N270 1.613 1_556 S
S269 N271 1.610 . S
N270 S269 1.613 1_554 S
N270 C273 1.350 . S
N271 S269 1.610 . S
N271 C272 1.351 1_556 S
C272 C266 1.428 . S
C272 N271 1.351 1_554 S
C272 C273 1.434 . S
C273 C264 1.429 . S
C273 N270 1.350 . S
C273 C272 1.434 . S
C274 C275 1.369 . S
C274 C276 1.419 . S
C274 H278 0.930 . S
C275 C274 1.369 . S
C275 C284 1.429 . S
C276 C274 1.419 . S
C276 C277 1.363 . S
C276 H279 0.929 . S
C277 C276 1.363 . S
C277 C283 1.428 . S
H278 C274 0.930 . S
H279 C276 0.929 . S
S280 N281 1.613 . S
S280 N282 1.610 . S
N281 S280 1.613 . S
N281 C284 1.350 . S
N282 S280 1.610 . S
N282 C283 1.351 . S
C283 C277 1.428 . S
C283 N282 1.351 . S
C283 C284 1.434 . S
C284 C275 1.429 . S
C284 N281 1.350 . S
C284 C283 1.434 . S
C285 C286 1.369 . S
C285 C287 1.419 . S
C285 H289 0.930 . S
C286 C285 1.369 . S
C286 C295 1.429 . S
C287 C285 1.419 . S
C287 C288 1.363 . S
C287 H290 0.929 . S
C288 C287 1.363 . S
C288 C294 1.428 . S
H289 C285 0.930 . S
H290 C287 0.929 . S
S291 N292 1.613 . S
S291 N293 1.610 . S
N292 S291 1.613 . S
N292 C295 1.350 . S
N293 S291 1.610 . S
N293 C294 1.351 . S
C294 C288 1.428 . S
C294 N293 1.351 . S
C294 C295 1.434 . S
C295 C286 1.429 . S
C295 N292 1.350 . S
C295 C294 1.434 . S
C296 C297 1.369 . S
C296 C298 1.419 . S
C296 H300 0.930 . S
C297 C296 1.369 . S
C297 C306 1.429 . S
C298 C296 1.419 . S
C298 C299 1.363 . S
C298 H301 0.929 1_556 S
C299 C298 1.363 . S
C299 C305 1.428 . S
H300 C296 0.930 . S
H301 C298 0.929 1_554 S
S302 N303 1.613 . S
S302 N304 1.610 . S
N303 S302 1.613 . S
N303 C306 1.350 . S
N304 S302 1.610 . S
N304 C305 1.351 . S
C305 C299 1.428 . S
C305 N304 1.351 . S
C305 C306 1.434 . S
C306 C297 1.429 . S
C306 N303 1.350 . S
C306 C305 1.434 . S
C307 C308 1.369 . S
C307 C309 1.419 . S
C307 H311 0.930 . S
C308 C307 1.369 . S
C308 C317 1.429 . S
C309 C307 1.419 . S
C309 C310 1.363 . S
C309 H312 0.929 . S
C310 C309 1.363 . S
C310 C316 1.428 . S
H311 C307 0.930 . S
H312 C309 0.929 . S
S313 N314 1.613 . S
S313 N315 1.610 . S
N314 S313 1.613 . S
N314 C317 1.350 . S
N315 S313 1.610 . S
N315 C316 1.351 . S
C316 C310 1.428 . S
C316 N315 1.351 . S
C316 C317 1.434 . S
C317 C308 1.429 . S
C317 N314 1.350 . S
C317 C316 1.434 . S
C318 C319 1.369 . S
C318 C320 1.419 . S
C318 H322 0.930 . S
C319 C318 1.369 . S
C319 C328 1.429 . S
C320 C318 1.419 . S
C320 C321 1.363 . S
C320 H323 0.929 . S
C321 C320 1.363 . S
C321 C327 1.428 . S
H322 C318 0.930 . S
H323 C320 0.929 . S
S324 N325 1.613 . S
S324 N326 1.610 . S
N325 S324 1.613 . S
N325 C328 1.350 . S
N326 S324 1.610 . S
N326 C327 1.351 . S
C327 C321 1.428 . S
C327 N326 1.351 . S
C327 C328 1.434 . S
C328 C319 1.429 . S
C328 N325 1.350 . S
C328 C327 1.434 . S
C329 C330 1.369 . S
C329 C331 1.419 . S
C329 H333 0.930 . S
C330 C329 1.369 . S
C330 C339 1.429 . S
C331 C329 1.419 . S
C331 C332 1.363 . S
C331 H334 0.929 . S
C332 C331 1.363 . S
C332 C338 1.428 . S
H333 C329 0.930 . S
H334 C331 0.929 . S
S335 N336 1.613 . S
S335 N337 1.610 . S
N336 S335 1.613 . S
N336 C339 1.350 . S
N337 S335 1.610 . S
N337 C338 1.351 . S
C338 C332 1.428 . S
C338 N337 1.351 . S
C338 C339 1.434 . S
C339 C330 1.429 . S
C339 N336 1.350 . S
C339 C338 1.434 . S
C340 C341 1.369 . S
C340 C342 1.419 . S
C340 H344 0.930 . S
C341 C340 1.369 . S
C341 C350 1.429 . S
C342 C340 1.419 . S
C342 C343 1.363 . S
C342 H345 0.929 . S
C343 C342 1.363 . S
C343 C349 1.428 . S
H344 C340 0.930 . S
H345 C342 0.929 . S
S346 N347 1.613 1_556 S
S346 N348 1.610 . S
N347 S346 1.613 1_554 S
N347 C350 1.350 . S
N348 S346 1.610 . S
N348 C349 1.351 1_556 S
C349 C343 1.428 . S
C349 N348 1.351 1_554 S
C349 C350 1.434 . S
C350 C341 1.429 . S
C350 N347 1.350 . S
C350 C349 1.434 . S
C351 C352 1.369 . S
C351 C353 1.419 . S
C351 H355 0.930 . S
C352 C351 1.369 . S
C352 C361 1.429 . S
C353 C351 1.419 . S
C353 C354 1.363 . S
C353 H356 0.929 . S
C354 C353 1.363 . S
C354 C360 1.428 . S
H355 C351 0.930 . S
H356 C353 0.929 . S
S357 N358 1.613 . S
S357 N359 1.610 1_556 S
N358 S357 1.613 . S
N358 C361 1.350 . S
N359 S357 1.610 1_554 S
N359 C360 1.351 1_554 S
C360 C354 1.428 . S
C360 N359 1.351 1_556 S
C360 C361 1.434 . S
C361 C352 1.429 . S
C361 N358 1.350 . S
C361 C360 1.434 . S
C362 C363 1.369 . S
C362 C364 1.419 . S
C362 H366 0.930 . S
C363 C362 1.369 . S
C363 C372 1.429 . S
C364 C362 1.419 . S
C364 C365 1.363 . S
C364 H367 0.929 . S
C365 C364 1.363 . S
C365 C371 1.428 . S
H366 C362 0.930 . S
H367 C364 0.929 . S
S368 N369 1.613 . S
S368 N370 1.610 . S
N369 S368 1.613 . S
N369 C372 1.350 . S
N370 S368 1.610 . S
N370 C371 1.351 . S
C371 C365 1.428 . S
C371 N370 1.351 . S
C371 C372 1.434 . S
C372 C363 1.429 . S
C372 N369 1.350 . S
C372 C371 1.434 . S
C373 C374 1.369 . S
C373 C375 1.419 . S
C373 H377 0.930 . S
C374 C373 1.369 . S
C374 C383 1.429 . S
C375 C373 1.419 . S
C375 C376 1.363 . S
C375 H378 0.929 . S
C376 C375 1.363 . S
C376 C382 1.428 . S
H377 C373 0.930 . S
H378 C375 0.929 . S
S379 N380 1.613 . S
S379 N381 1.610 . S
N380 S379 1.613 . S
N380 C383 1.350 . S
N381 S379 1.610 . S
N381 C382 1.351 . S
C382 C376 1.428 . S
C382 N381 1.351 . S
C382 C383 1.434 . S
C383 C374 1.429 . S
C383 N380 1.350 . S
C383 C382 1.434 . S
C384 C385 1.369 . S
C384 C386 1.411 1_554 S
C384 H388 0.930 . S
C385 C384 1.369 . S
C385 C394 1.429 1_455 S
C386 C384 1.411 1_556 S
C386 C387 1.366 . S
C386 H389 0.934 . S
C387 C386 1.366 . S
C387 C393 1.428 1_456 S
H388 C384 0.930 . S
H389 C386 0.934 . S
S390 N391 1.613 . S
S390 N392 1.610 . S
N391 S390 1.613 . S
N391 C394 1.350 . S
N392 S390 1.610 . S
N392 C393 1.351 . S
C393 C387 1.428 1_654 S
C393 N392 1.351 . S
C393 C394 1.434 . S
C394 C385 1.429 1_655 S
C394 N391 1.350 . S
C394 C393 1.434 . S
C395 C396 1.369 . S
C395 C397 1.419 . S
C395 H399 0.930 . S
C396 C395 1.369 . S
C396 C405 1.429 . S
C397 C395 1.419 . S
C397 C398 1.363 . S
C397 H400 0.929 . S
C398 C397 1.363 . S
C398 C404 1.428 . S
H399 C395 0.930 . S
H400 C397 0.929 . S
S401 N402 1.613 . S
S401 N403 1.610 . S
N402 S401 1.613 . S
N402 C405 1.350 . S
N403 S401 1.610 . S
N403 C404 1.351 . S
C404 C398 1.428 . S
C404 N403 1.351 . S
C404 C405 1.434 . S
C405 C396 1.429 . S
C405 N402 1.350 . S
C405 C404 1.434 . S
C406 C407 1.369 . S
C406 C408 1.419 . S
C406 H410 0.930 . S
C407 C406 1.369 . S
C407 C416 1.429 . S
C408 C406 1.419 . S
C408 C409 1.363 . S
C408 H411 0.929 . S
C409 C408 1.363 . S
C409 C415 1.428 . S
H410 C406 0.930 . S
H411 C408 0.929 . S
S412 N413 1.613 . S
S412 N414 1.610 . S
N413 S412 1.613 . S
N413 C416 1.350 . S
N414 S412 1.610 . S
N414 C415 1.351 . S
C415 C409 1.428 . S
C415 N414 1.351 . S
C415 C416 1.434 . S
C416 C407 1.429 . S
C416 N413 1.350 . S
C416 C415 1.434 . S
C417 C418 1.369 . S
C417 C419 1.419 . S
C417 H421 0.930 . S
C418 C417 1.369 . S
C418 C427 1.429 . S
C419 C417 1.419 . S
C419 C420 1.363 . S
C419 H422 0.929 . S
C420 C419 1.363 . S
C420 C426 1.428 . S
H421 C417 0.930 . S
H422 C419 0.929 . S
S423 N424 1.613 . S
S423 N425 1.610 . S
N424 S423 1.613 . S
N424 C427 1.350 . S
N425 S423 1.610 . S
N425 C426 1.351 . S
C426 C420 1.428 . S
C426 N425 1.351 . S
C426 C427 1.434 . S
C427 C418 1.429 . S
C427 N424 1.350 . S
C427 C426 1.434 . S
C428 C429 1.369 . S
C428 C430 1.419 . S
C428 H432 0.930 . S
C429 C428 1.369 . S
C429 C438 1.429 . S
C430 C428 1.419 . S
C430 C431 1.363 . S
C430 H433 0.929 . S
C431 C430 1.363 . S
C431 C437 1.428 . S
H432 C428 0.930 . S
H433 C430 0.929 . S
S434 N435 1.613 . S
S434 N436 1.610 . S
N435 S434 1.613 . S
N435 C438 1.350 . S
N436 S434 1.610 . S
N436 C437 1.351 . S
C437 C431 1.428 . S
C437 N436 1.351 . S
C437 C438 1.434 . S
C438 C429 1.429 . S
C438 N435 1.350 . S
C438 C437 1.434 . S
C439 C440 1.369 . S
C439 C441 1.419 . S
C439 H443 0.930 . S
C440 C439 1.369 . S
C440 C449 1.429 . S
C441 C439 1.419 . S
C441 C442 1.363 . S
C441 H444 0.929 . S
C442 C441 1.363 . S
C442 C448 1.428 . S
H443 C439 0.930 . S
H444 C441 0.929 . S
S445 N446 1.613 . S
S445 N447 1.610 . S
N446 S445 1.613 . S
N446 C449 1.350 . S
N447 S445 1.610 . S
N447 C448 1.351 . S
C448 C442 1.428 . S
C448 N447 1.351 . S
C448 C449 1.434 . S
C449 C440 1.429 . S
C449 N446 1.350 . S
C449 C448 1.434 . S
C450 C451 1.369 . S
C450 C452 1.420 1_565 S
C450 H454 0.930 . S
C451 C450 1.369 . S
C451 C460 1.429 1_565 S
C452 C450 1.420 1_545 S
C452 C453 1.361 . S
C452 H455 0.929 1_545 S
C453 C452 1.361 . S
C453 C459 1.428 . S
H454 C450 0.930 . S
H455 C452 0.929 1_565 S
S456 N457 1.613 . S
S456 N458 1.610 . S
N457 S456 1.613 . S
N457 C460 1.350 . S
N458 S456 1.610 . S
N458 C459 1.351 . S
C459 C453 1.428 . S
C459 N458 1.351 . S
C459 C460 1.434 . S
C460 C451 1.429 1_545 S
C460 N457 1.350 . S
C460 C459 1.434 . S
C461 C462 1.369 1_565 S
C461 C463 1.419 1_556 S
C461 H465 0.930 . S
C462 C461 1.369 1_545 S
C462 C471 1.429 1_556 S
C463 C461 1.419 1_554 S
C463 C464 1.363 . S
C463 H466 0.929 1_554 S
C464 C463 1.363 . S
C464 C470 1.428 1_565 S
H465 C461 0.930 . S
H466 C463 0.929 1_556 S
S467 N468 1.613 . S
S467 N469 1.610 . S
N468 S467 1.613 . S
N468 C471 1.350 . S
N469 S467 1.610 . S
N469 C470 1.351 . S
C470 C464 1.428 1_545 S
C470 N469 1.351 . S
C470 C471 1.434 . S
C471 C462 1.429 1_554 S
C471 N468 1.350 . S
C471 C470 1.434 . S
C472 C473 1.369 . S
C472 C474 1.419 . S
C472 H476 0.930 . S
C473 C472 1.369 . S
C473 C482 1.429 . S
C474 C472 1.419 . S
C474 C475 1.363 . S
C474 H477 0.929 . S
C475 C474 1.363 . S
C475 C481 1.428 . S
H476 C472 0.930 . S
H477 C474 0.929 . S
S478 N479 1.613 1_455 S
S478 N480 1.610 1_455 S
N479 S478 1.613 1_655 S
N479 C482 1.350 . S
N480 S478 1.610 1_655 S
N480 C481 1.351 . S
C481 C475 1.428 . S
C481 N480 1.351 . S
C481 C482 1.434 . S
C482 C473 1.429 . S
C482 N479 1.350 . S
C482 C481 1.434 . S
C483 C484 1.369 . S
C483 C485 1.419 . S
C483 H487 0.930 . S
C484 C483 1.369 . S
C484 C493 1.429 . S
C485 C483 1.419 . S
C485 C486 1.363 . S
C485 H488 0.929 . S
C486 C485 1.363 . S
C486 C492 1.428 . S
H487 C483 0.930 . S
H488 C485 0.929 . S
S489 N490 1.613 . S
S489 N491 1.610 . S
N490 S489 1.613 . S
N490 C493 1.350 . S
N491 S489 1.610 . S
N491 C492 1.351 . S
C492 C486 1.428 . S
C492 N491 1.351 . S
C492 C493 1.434 . S
C493 C484 1.429 . S
C493 N490 1.350 . S
C493 C492 1.434 . S
C494 C495 1.369 . S
C494 C496 1.419 . S
C494 H498 0.930 . S
C495 C494 1.369 . S
C495 C504 1.429 1_554 S
C496 C494 1.419 . S
C496 C497 1.363 1_554 S
C496 H499 0.929 . S
C497 C496 1.363 1_556 S
C497 C503 1.428 . S
H498 C494 0.930 . S
H499 C496 0.929 . S
S500 N501 1.613 . S
S500 N502 1.610 . S
N501 S500 1.613 . S
N501 C504 1.350 . S
N502 S500 1.610 . S
N502 C503 1.351 . S
C503 C497 1.428 . S
C503 N502 1.351 . S
C503 C504 1.434 . S
C504 C495 1.429 1_556 S
C504 N501 1.350 . S
C504 C503 1.434 . S
C505 C506 1.369 . S
C505 C507 1.419 . S
C505 H509 0.930 . S
C506 C505 1.369 . S
C506 C515 1.429 . S
C507 C505 1.419 . S
C507 C508 1.363 . S
C507 H510 0.929 . S
C508 C507 1.363 . S
C508 C514 1.428 . S
H509 C505 0.930 . S
H510 C507 0.929 . S
S511 N512 1.613 . S
S511 N513 1.610 . S
N512 S511 1.613 . S
N512 C515 1.350 . S
N513 S511 1.610 . S
N513 C514 1.351 . S
C514 C508 1.428 . S
C514 N513 1.351 . S
C514 C515 1.434 . S
C515 C506 1.429 . S
C515 N512 1.350 . S
C515 C514 1.434 . S
C516 C517 1.369 . S
C516 C518 1.419 . S
C516 H520 0.930 . S
C517 C516 1.369 . S
C517 C526 1.429 . S
C518 C516 1.419 . S
C518 C519 1.363 . S
C518 H521 0.929 . S
C519 C518 1.363 . S
C519 C525 1.428 . S
H520 C516 0.930 . S
H521 C518 0.929 . S
S522 N523 1.613 . S
S522 N524 1.610 . S
N523 S522 1.613 . S
N523 C526 1.350 . S
N524 S522 1.610 . S
N524 C525 1.351 . S
C525 C519 1.428 . S
C525 N524 1.351 . S
C525 C526 1.434 . S
C526 C517 1.429 . S
C526 N523 1.350 . S
C526 C525 1.434 . S
C527 C528 1.369 . S
C527 C529 1.419 . S
C527 H531 0.930 . S
C528 C527 1.369 . S
C528 C537 1.429 . S
C529 C527 1.419 . S
C529 C530 1.363 . S
C529 H532 0.929 . S
C530 C529 1.363 . S
C530 C536 1.428 . S
H531 C527 0.930 . S
H532 C529 0.929 . S
S533 N534 1.613 . S
S533 N535 1.610 . S
N534 S533 1.613 . S
N534 C537 1.350 . S
N535 S533 1.610 . S
N535 C536 1.351 . S
C536 C530 1.428 . S
C536 N535 1.351 . S
C536 C537 1.434 . S
C537 C528 1.429 . S
C537 N534 1.350 . S
C537 C536 1.434 . S
C538 C539 1.369 . S
C538 C540 1.419 1_564 S
C538 H542 0.930 . S
C539 C538 1.369 . S
C539 C548 1.429 . S
C540 C538 1.419 1_546 S
C540 C541 1.363 . S
C540 H543 0.929 . S
C541 C540 1.363 . S
C541 C547 1.428 1_556 S
H542 C538 0.930 . S
H543 C540 0.929 . S
S544 N545 1.613 1_545 S
S544 N546 1.610 . S
N545 S544 1.613 1_565 S
N545 C548 1.350 . S
N546 S544 1.610 . S
N546 C547 1.351 . S
C547 C541 1.428 1_554 S
C547 N546 1.351 . S
C547 C548 1.434 1_545 S
C548 C539 1.429 . S
C548 N545 1.350 . S
C548 C547 1.434 1_565 S
C549 C550 1.369 1_655 S
C549 C551 1.419 1_545 S
C549 H553 0.930 . S
C550 C549 1.369 1_455 S
C550 C559 1.429 . S
C551 C549 1.419 1_565 S
C551 C552 1.363 1_655 S
C551 H554 0.929 . S
C552 C551 1.363 1_455 S
C552 C558 1.428 . S
H553 C549 0.930 . S
H554 C551 0.929 . S
S555 N556 1.613 . S
S555 N557 1.610 1_545 S
N556 S555 1.613 . S
N556 C559 1.350 . S
N557 S555 1.610 1_565 S
N557 C558 1.351 . S
C558 C552 1.428 . S
C558 N557 1.351 . S
C558 C559 1.434 1_565 S
C559 C550 1.429 . S
C559 N556 1.350 . S
C559 C558 1.434 1_545 S
C209 C120 1.498 . S
C211 C5 1.494 . S
C220 C185 1.498 . S
C222 C18 1.498 . S
C231 C31 1.499 . S
C233 C107 1.498 . S
C242 C44 1.499 . S
C244 C200 1.501 . S
C253 C55 1.499 . S
C255 C133 1.494 . S
C264 C172 1.499 . S
C266 C70 1.501 . S
C275 C146 1.497 . S
C277 C83 1.499 . S
C286 C94 1.499 . S
C288 C159 1.497 . S
C297 C57 1.668 . S
C299 C42 1.665 1_556 S
C308 C161 1.669 . S
C310 C109 1.662 . S
C319 C81 1.668 . S
C321 C16 1.663 . S
C330 C122 1.662 . S
C332 C174 1.663 . S
C341 C3 1.660 . S
C343 C68 1.671 . S
C352 C198 1.665 . S
C354 C135 1.662 1_556 S
C363 C96 1.661 . S
C365 C29 1.668 . S
C374 C148 1.662 . S
C376 C187 1.667 . S
C385 C10 0.954 . S
C387 C56 0.955 . S
C396 C75 0.954 . S
C398 C23 0.955 . S
C407 C88 0.955 . S
C409 C36 0.956 . S
C418 C49 0.954 . S
C420 C95 0.955 . S
C429 C134 0.957 . S
C431 C108 0.957 . S
C440 C147 0.957 . S
C442 C121 0.957 . S
C451 C186 0.956 . S
C453 C160 0.956 . S
C462 C205 0.955 . S
C464 C173 0.956 . S
C473 C62 1.739 . S
C475 C4 1.743 . S
C484 C69 1.743 . S
C486 C17 1.739 . S
C495 C82 1.743 . S
C497 C30 1.739 . S
C506 C43 1.744 . S
C508 C101 1.740 . S
C517 C114 1.741 . S
C519 C140 1.739 . S
C528 C153 1.742 . S
C530 C127 1.739 . S
C539 C192 1.739 . S
C541 C166 1.742 . S
C550 C199 1.744 . S
C552 C179 1.741 . S
