# Generated by pormake.
# Topology zfe, (5)-cn, num edge types: 1
# Building blocks:
#     Node 0, Type 0, BuildingBlock: XOMCOT_clean_sbu_1, # of connection points: 5
#     Node 1, Type 0, BuildingBlock: XOMCOT_clean_sbu_1, # of connection points: 5
#     Node 2, Type 0, BuildingBlock: XOMCOT_clean_sbu_1, # of connection points: 5
#     Node 3, Type 0, BuildingBlock: XOMCOT_clean_sbu_1, # of connection points: 5
#     Node 4, Type 0, BuildingBlock: XOMCOT_clean_sbu_1, # of connection points: 5
#     Node 5, Type 0, BuildingBlock: XOMCOT_clean_sbu_1, # of connection points: 5
#     Node 6, Type 0, BuildingBlock: XOMCOT_clean_sbu_1, # of connection points: 5
#     Node 7, Type 0, BuildingBlock: XOMCOT_clean_sbu_1, # of connection points: 5
#     Node 8, Type 0, BuildingBlock: XOMCOT_clean_sbu_1, # of connection points: 5
#     Node 9, Type 0, BuildingBlock: XOMCOT_clean_sbu_1, # of connection points: 5
#     Node 10, Type 0, BuildingBlock: XOMCOT_clean_sbu_1, # of connection points: 5
#     Node 11, Type 0, BuildingBlock: XOMCOT_clean_sbu_1, # of connection points: 5
#     Node 12, Type 0, BuildingBlock: XOMCOT_clean_sbu_1, # of connection points: 5
#     Node 13, Type 0, BuildingBlock: XOMCOT_clean_sbu_1, # of connection points: 5
#     Node 14, Type 0, BuildingBlock: XOMCOT_clean_sbu_1, # of connection points: 5
#     Node 15, Type 0, BuildingBlock: XOMCOT_clean_sbu_1, # of connection points: 5
#     Edge 16, Type (0, 0), BuildingBlock: AJUNOK_clean_linker_0, # of connection points: 2
#     Edge 17, Type (0, 0), BuildingBlock: AJUNOK_clean_linker_0, # of connection points: 2
#     Edge 18, Type (0, 0), BuildingBlock: AJUNOK_clean_linker_0, # of connection points: 2
#     Edge 19, Type (0, 0), BuildingBlock: AJUNOK_clean_linker_0, # of connection points: 2
#     Edge 20, Type (0, 0), BuildingBlock: AJUNOK_clean_linker_0, # of connection points: 2
#     Edge 21, Type (0, 0), BuildingBlock: AJUNOK_clean_linker_0, # of connection points: 2
#     Edge 22, Type (0, 0), BuildingBlock: AJUNOK_clean_linker_0, # of connection points: 2
#     Edge 23, Type (0, 0), BuildingBlock: AJUNOK_clean_linker_0, # of connection points: 2
#     Edge 24, Type (0, 0), BuildingBlock: AJUNOK_clean_linker_0, # of connection points: 2
#     Edge 25, Type (0, 0), BuildingBlock: AJUNOK_clean_linker_0, # of connection points: 2
#     Edge 26, Type (0, 0), BuildingBlock: AJUNOK_clean_linker_0, # of connection points: 2
#     Edge 27, Type (0, 0), BuildingBlock: AJUNOK_clean_linker_0, # of connection points: 2
#     Edge 28, Type (0, 0), BuildingBlock: AJUNOK_clean_linker_0, # of connection points: 2
#     Edge 29, Type (0, 0), BuildingBlock: AJUNOK_clean_linker_0, # of connection points: 2
#     Edge 30, Type (0, 0), BuildingBlock: AJUNOK_clean_linker_0, # of connection points: 2
#     Edge 31, Type (0, 0), BuildingBlock: AJUNOK_clean_linker_0, # of connection points: 2
#     Edge 32, Type (0, 0), BuildingBlock: AJUNOK_clean_linker_0, # of connection points: 2
#     Edge 33, Type (0, 0), BuildingBlock: AJUNOK_clean_linker_0, # of connection points: 2
#     Edge 34, Type (0, 0), BuildingBlock: AJUNOK_clean_linker_0, # of connection points: 2
#     Edge 35, Type (0, 0), BuildingBlock: AJUNOK_clean_linker_0, # of connection points: 2
#     Edge 36, Type (0, 0), BuildingBlock: AJUNOK_clean_linker_0, # of connection points: 2
#     Edge 37, Type (0, 0), BuildingBlock: AJUNOK_clean_linker_0, # of connection points: 2
#     Edge 38, Type (0, 0), BuildingBlock: AJUNOK_clean_linker_0, # of connection points: 2
#     Edge 39, Type (0, 0), BuildingBlock: AJUNOK_clean_linker_0, # of connection points: 2
#     Edge 40, Type (0, 0), BuildingBlock: AJUNOK_clean_linker_0, # of connection points: 2
#     Edge 41, Type (0, 0), BuildingBlock: AJUNOK_clean_linker_0, # of connection points: 2
#     Edge 42, Type (0, 0), BuildingBlock: AJUNOK_clean_linker_0, # of connection points: 2
#     Edge 43, Type (0, 0), BuildingBlock: AJUNOK_clean_linker_0, # of connection points: 2
#     Edge 44, Type (0, 0), BuildingBlock: AJUNOK_clean_linker_0, # of connection points: 2
#     Edge 45, Type (0, 0), BuildingBlock: AJUNOK_clean_linker_0, # of connection points: 2
#     Edge 46, Type (0, 0), BuildingBlock: AJUNOK_clean_linker_0, # of connection points: 2
#     Edge 47, Type (0, 0), BuildingBlock: AJUNOK_clean_linker_0, # of connection points: 2
#     Edge 48, Type (0, 0), BuildingBlock: AJUNOK_clean_linker_0, # of connection points: 2
#     Edge 49, Type (0, 0), BuildingBlock: AJUNOK_clean_linker_0, # of connection points: 2
#     Edge 50, Type (0, 0), BuildingBlock: AJUNOK_clean_linker_0, # of connection points: 2
#     Edge 51, Type (0, 0), BuildingBlock: AJUNOK_clean_linker_0, # of connection points: 2
#     Edge 52, Type (0, 0), BuildingBlock: AJUNOK_clean_linker_0, # of connection points: 2
#     Edge 53, Type (0, 0), BuildingBlock: AJUNOK_clean_linker_0, # of connection points: 2
#     Edge 54, Type (0, 0), BuildingBlock: AJUNOK_clean_linker_0, # of connection points: 2
#     Edge 55, Type (0, 0), BuildingBlock: AJUNOK_clean_linker_0, # of connection points: 2
# Relax obj value: 0.176
# Max RMSD: 0.147
# Mean RMSD: 0.147
data_MOF--net-zfe--node1-XOMCOT_clean_sbu_1--edge1-AJUNOK_clean_linker_0
_symmetry_space_group_name_H-M    P1
_symmetry_Int_Tables_number       1
_symmetry_cell_setting            triclinic
loop_
_symmetry_equiv_pos_as_xyz
'x, y, z'
_cell_length_a     42.670989
_cell_length_b     42.685284
_cell_length_c     20.469112
_cell_angle_alpha  89.926856
_cell_angle_beta   90.093239
_cell_angle_gamma 89.964594
loop_
_atom_site_label
_atom_site_type_symbol
_atom_site_fract_x
_atom_site_fract_y
_atom_site_fract_z
_atom_type_partial_charge
C0 C 0.09462 0.25804 0.96897 0.0
C1 C 0.11906 0.27886 0.96564 0.0
N2 N 0.11598 0.29981 1.01431 0.0
N3 N 0.07571 0.26569 1.0192 0.0
C4 C 0.08924 0.29159 0.04576 0.0
H5 H 0.09174 0.23756 0.93856 0.0
Co6 Co 0.04157 0.23992 0.0445 0.0
C7 C 0.04413 0.26527 0.18703 0.0
O8 O 0.07086 0.25139 0.19914 0.0
N9 N 0.00676 0.21471 0.07274 0.0
C10 C 0.97988 0.18635 0.14507 0.0
C11 C 0.00597 0.20405 0.13505 0.0
C12 C 0.98024 0.2026 0.0455 0.0
N13 N 0.9637 0.18503 0.08895 0.0
O14 O 0.01406 0.26638 0.99065 0.0
H15 H 0.02417 0.20748 0.17093 0.0
H16 H 0.97384 0.20552 0.99468 0.0
O17 O 0.0331 0.26466 0.12828 0.0
C18 C 0.01756 0.2542 0.93346 0.0
O19 O 0.03252 0.22737 0.92944 0.0
N20 N 0.0708 0.20995 0.08052 0.0
C21 C 0.11758 0.1632 0.07659 0.0
C22 C 0.12408 0.19304 0.10195 0.0
C23 C 0.1006 0.21625 0.10231 0.0
C24 C 0.06446 0.18057 0.05701 0.0
C25 C 0.08698 0.15695 0.05627 0.0
H26 H 0.10756 0.2398 0.11446 0.0
H27 H 0.04259 0.17557 0.03275 0.0
H28 H 0.08092 0.30291 0.0897 0.0
H29 H 0.13846 0.27785 0.93167 0.0
H30 H 0.97379 0.17421 0.18978 0.0
H31 H 0.1476 0.19902 0.11748 0.0
H32 H 0.08067 0.13418 0.03697 0.0
C33 C 0.75499 0.09723 0.96919 0.0
C34 C 0.73479 0.12224 0.96589 0.0
N35 N 0.71232 0.11841 1.01131 0.0
N36 N 0.74546 0.07727 1.01621 0.0
C37 C 0.71904 0.09066 0.04063 0.0
H38 H 0.77592 0.09423 0.94017 0.0
Co39 Co 0.76853 0.04083 0.03841 0.0
C40 C 0.73846 0.04403 0.17896 0.0
O41 O 0.74456 0.07359 0.19037 0.0
N42 N 0.79102 0.00391 0.06421 0.0
C43 C 0.8164 0.97363 0.1358 0.0
C44 C 0.80034 1.0009 0.12724 0.0
C45 C 0.80258 0.97776 0.03489 0.0
N46 N 0.81792 0.959 0.07808 0.0
O47 O 0.74005 0.01627 0.98296 0.0
H48 H 0.79708 0.01834 0.1648 0.0
H49 H 0.80102 0.97325 0.98298 0.0
O50 O 0.74406 0.03267 0.12187 0.0
C51 C 0.75263 0.0201 0.9262 0.0
O52 O 0.78007 0.03396 0.92362 0.0
N53 N 0.80062 0.06647 0.07613 0.0
C54 C 0.85317 0.10632 0.08408 0.0
C55 C 0.82422 0.1152 0.11124 0.0
C56 C 0.79804 0.09513 0.1058 0.0
C57 C 0.82851 0.05853 0.04761 0.0
C58 C 0.8548 0.0776 0.0518 0.0
H59 H 0.7755 0.10417 0.1198 0.0
H60 H 0.83016 0.03825 1.01641 0.0
H61 H 0.70561 0.08094 0.08057 0.0
H62 H 0.73679 0.14204 0.93306 0.0
H63 H 0.82784 0.96592 0.18029 0.0
H64 H 0.82156 0.13785 0.13433 0.0
H65 H 0.87594 0.07047 1.02662 0.0
C66 C 0.904 0.75852 0.98214 0.0
C67 C 0.879 0.73833 0.98083 0.0
N68 N 0.8866 0.71238 1.01482 0.0
N69 N 0.92752 0.74584 1.01746 0.0
C70 C 0.9164 0.7173 0.03578 0.0
H71 H 0.90462 0.78162 0.96039 0.0
Co72 Co 0.96505 0.7682 0.03542 0.0
C73 C 0.96167 0.73335 0.17327 0.0
O74 O 0.93134 0.72888 0.17823 0.0
N75 N 1.00256 0.7905 0.05657 0.0
C76 C 0.0344 0.81637 0.12402 0.0
C77 C 0.00735 0.79969 0.11914 0.0
C78 C 0.02734 0.80287 1.02371 0.0
N79 N 0.04701 0.81862 0.06433 0.0
O80 O 0.98833 0.73855 0.98062 0.0
H81 H 0.99123 0.796 0.15908 0.0
H82 H 0.03007 0.80173 0.97121 0.0
O83 O 0.9728 0.74568 0.12084 0.0
C84 C 0.98203 0.74947 0.92317 0.0
O85 O 0.96564 0.77545 0.91932 0.0
N86 N 0.94133 0.80084 0.07276 0.0
C87 C 0.90146 0.8529 0.07977 0.0
C88 C 0.89675 0.82668 0.12055 0.0
C89 C 0.917 0.80061 0.11607 0.0
C90 C 0.94603 0.82629 0.0336 0.0
C91 C 0.92665 0.85232 0.03637 0.0
H92 H 0.91178 0.77989 0.14391 0.0
H93 H 0.96385 0.82567 0.9962 0.0
H94 H 0.92935 0.70097 0.06591 0.0
H95 H 0.85651 0.74276 0.95804 0.0
H96 H 0.04327 0.82773 0.16758 0.0
H97 H 0.87716 0.826 0.15407 0.0
H98 H 0.93054 0.87127 1.00208 0.0
C99 C 0.25536 0.91321 0.96181 0.0
C100 C 0.27563 0.8882 0.9614 0.0
N101 N 0.29597 0.8915 1.01126 0.0
N102 N 0.2627 0.9325 1.01168 0.0
C103 C 0.28786 0.91875 0.04076 0.0
H104 H 0.23573 0.91655 0.92909 0.0
Co105 Co 0.23863 0.96832 0.03276 0.0
C106 C 0.2586 0.96588 0.17887 0.0
O107 O 0.24188 0.94089 0.19126 0.0
N108 N 0.21514 0.00479 0.05772 0.0
C109 C 0.18766 0.03406 0.12728 0.0
C110 C 0.20087 0.00547 0.11672 0.0
C111 C 0.20981 0.03393 0.03294 0.0
N112 N 0.19318 0.05219 0.07499 0.0
O113 O 0.26821 0.99361 0.98224 0.0
H114 H 0.19981 0.98611 0.15063 0.0
H115 H 0.21837 0.04178 0.98597 0.0
O116 O 0.26115 0.97551 0.11934 0.0
C117 C 0.25626 0.99028 0.92471 0.0
O118 O 0.22848 0.97721 0.9202 0.0
N119 N 0.2059 0.94161 0.06401 0.0
C120 C 0.15405 0.90079 0.0614 0.0
C121 C 0.18232 0.89184 0.09167 0.0
C122 C 0.20825 0.91227 0.09091 0.0
C123 C 0.17887 0.94962 0.03201 0.0
C124 C 0.15294 0.92999 0.03069 0.0
H125 H 0.23059 0.90343 0.10759 0.0
H126 H 0.17778 0.97061 1.00261 0.0
H127 H 0.29908 0.92767 0.08436 0.0
H128 H 0.27499 0.8686 0.9279 0.0
H129 H 0.17428 0.04084 0.16991 0.0
H130 H 0.18471 0.86889 0.11374 0.0
H131 H 0.1326 0.93718 1.00271 0.0
C132 C 0.0954 0.75168 0.62246 0.0
C133 C 0.11978 0.73074 0.62591 0.0
N134 N 0.11576 0.70887 0.57933 0.0
N135 N 0.07587 0.74342 0.57357 0.0
C136 C 0.08877 0.71693 0.54838 0.0
H137 H 0.09296 0.7726 0.6517 0.0
Co138 Co 0.04144 0.76871 0.54801 0.0
C139 C 0.04343 0.7427 0.40592 0.0
O140 O 0.07044 0.75574 0.39265 0.0
N141 N 0.00633 0.7933 0.51947 0.0
C142 C 0.97855 0.82098 0.4472 0.0
C143 C 0.00515 0.80395 0.45714 0.0
C144 C 0.97958 0.80469 0.54678 0.0
N145 N 0.96242 0.82163 0.50328 0.0
O146 O 0.01442 0.74217 0.60233 0.0
H147 H 0.02338 0.80092 0.42124 0.0
H148 H 0.9734 0.80167 0.59765 0.0
O149 O 0.03297 0.7437 0.46499 0.0
C150 C 0.01834 0.75466 0.65911 0.0
O151 O 0.03318 0.78158 0.66196 0.0
N152 N 0.07014 0.7988 0.51117 0.0
C153 C 0.11653 0.84589 0.51454 0.0
C154 C 0.1232 0.81603 0.48931 0.0
C155 C 0.09988 0.79268 0.48908 0.0
C156 C 0.06359 0.82821 0.53429 0.0
C157 C 0.08589 0.852 0.53468 0.0
H158 H 0.10696 0.76912 0.47712 0.0
H159 H 0.04172 0.83311 0.55853 0.0
H160 H 0.07973 0.70495 0.5058 0.0
H161 H 0.1397 0.73216 0.65862 0.0
H162 H 0.97213 0.8333 0.40285 0.0
H163 H 0.14673 0.81017 0.47381 0.0
H164 H 0.07939 0.87478 0.5536 0.0
C165 C 0.25081 0.09855 0.61738 0.0
C166 C 0.27069 0.12376 0.62005 0.0
N167 N 0.29426 0.11909 0.57746 0.0
N168 N 0.26153 0.0776 0.57353 0.0
C169 C 0.28858 0.0905 0.55096 0.0
H170 H 0.2293 0.09597 0.64473 0.0
Co171 Co 0.23856 0.04073 0.55361 0.0
C172 C 0.27 0.04616 0.41234 0.0
O173 O 0.27424 0.07651 0.40731 0.0
N174 N 0.21557 0.00381 0.53041 0.0
C175 C 0.18842 0.97414 0.46092 0.0
C176 C 0.20212 1.00255 0.47052 0.0
C177 C 0.20917 0.97522 0.55678 0.0
N178 N 0.19275 0.95668 0.51474 0.0
O179 O 0.26949 0.01629 0.6028 0.0
H180 H 0.20237 0.02131 0.43497 0.0
H181 H 0.21681 0.96796 0.60492 0.0
O182 O 0.25865 0.0348 0.46548 0.0
C183 C 0.25852 0.02021 0.66099 0.0
O184 O 0.23119 0.03402 0.66705 0.0
N185 N 0.20531 0.06571 0.52226 0.0
C186 C 0.15366 0.10629 0.52248 0.0
C187 C 0.17936 0.1117 0.48072 0.0
C188 C 0.20526 0.09116 0.48176 0.0
C189 C 0.18039 0.06029 0.5624 0.0
C190 C 0.15463 0.08011 0.56343 0.0
H191 H 0.22568 0.09686 0.4534 0.0
H192 H 0.18119 0.04128 0.59724 0.0
H193 H 0.30344 0.07968 0.51473 0.0
H194 H 0.26768 0.14431 0.65032 0.0
H195 H 0.17565 0.96698 0.41768 0.0
H196 H 0.1798 0.13201 0.44899 0.0
H197 H 0.13621 0.0756 0.59852 0.0
C198 C 0.90389 0.24701 0.60883 0.0
C199 C 0.87883 0.26717 0.61035 0.0
N200 N 0.88635 0.29323 0.57674 0.0
N201 N 0.92731 0.25988 0.57374 0.0
C202 C 0.91609 0.28839 0.5556 0.0
H203 H 0.90464 0.22386 0.63032 0.0
Co204 Co 0.96513 0.23823 0.55569 0.0
C205 C 0.96206 0.27381 0.41818 0.0
O206 O 0.93171 0.27706 0.41003 0.0
N207 N 1.00303 0.21681 0.53404 0.0
C208 C 0.03574 0.19258 0.46585 0.0
C209 C 0.008 0.20808 0.47126 0.0
C210 C 0.02833 0.20521 0.56652 0.0
N211 N 0.04862 0.19068 0.52539 0.0
O212 O 0.98776 0.26792 0.61181 0.0
H213 H 0.99165 0.21141 0.43146 0.0
H214 H 0.03115 0.20616 0.61904 0.0
O215 O 0.97252 0.26141 0.4712 0.0
C216 C 0.98143 0.2564 0.66871 0.0
O217 O 0.96573 0.22997 0.67102 0.0
N218 N 0.94198 0.20546 0.51724 0.0
C219 C 0.90231 0.15325 0.51055 0.0
C220 C 0.89679 0.17984 0.47121 0.0
C221 C 0.91696 0.20597 0.4755 0.0
C222 C 0.94749 0.17961 0.55488 0.0
C223 C 0.92825 0.1535 0.55216 0.0
H224 H 0.91105 0.22704 0.44931 0.0
H225 H 0.96575 0.17999 0.59147 0.0
H226 H 0.92895 0.30478 0.52554 0.0
H227 H 0.85641 0.26269 0.63321 0.0
H228 H 0.04491 0.18165 0.42213 0.0
H229 H 0.8766 0.1808 0.43917 0.0
H230 H 0.93278 0.13426 0.58543 0.0
C231 C 0.75796 0.90737 0.6128 0.0
C232 C 0.7381 0.88216 0.61684 0.0
N233 N 0.71325 0.88744 0.57772 0.0
N234 N 0.74598 0.92887 0.5714 0.0
C235 C 0.71824 0.91629 0.55172 0.0
H236 H 0.78033 0.90953 0.6373 0.0
Co237 Co 0.76851 0.96586 0.55012 0.0
C238 C 0.73357 0.96158 0.41207 0.0
O239 O 0.72986 0.93118 0.40661 0.0
N240 N 0.79104 1.00282 0.52565 0.0
C241 C 0.81696 0.03308 0.45508 0.0
C242 C 0.80042 0.00607 0.46276 0.0
C243 C 0.80314 0.02851 0.55583 0.0
N244 N 0.81879 0.04727 0.51323 0.0
O245 O 0.7391 0.99015 0.60379 0.0
H246 H 0.79683 0.98898 0.42457 0.0
H247 H 0.80174 0.03266 0.60789 0.0
O248 O 0.74566 0.97278 0.46469 0.0
C249 C 0.75068 0.98565 0.6614 0.0
O250 O 0.77752 0.97075 0.66589 0.0
N251 N 0.80082 0.94114 0.51381 0.0
C252 C 0.85313 0.90153 0.50574 0.0
C253 C 0.82607 0.89564 0.46815 0.0
C254 C 0.7999 0.91576 0.4732 0.0
C255 C 0.82692 0.94666 0.55067 0.0
C256 C 0.85311 0.92749 0.54716 0.0
H257 H 0.77863 0.90971 0.44795 0.0
H258 H 0.82689 0.96522 0.58649 0.0
H259 H 0.70242 0.92751 0.51767 0.0
H260 H 0.742 0.86118 0.64549 0.0
H261 H 0.82843 0.04091 0.41081 0.0
H262 H 0.82492 0.87538 0.43647 0.0
H263 H 0.87283 0.93231 0.57902 0.0
C264 C 0.59481 0.75514 0.47227 0.0
C265 C 0.61975 0.77536 0.46845 0.0
N266 N 0.61752 0.79629 0.51739 0.0
N267 N 0.57646 0.76313 0.52317 0.0
C268 C 0.59078 0.78865 0.5495 0.0
H269 H 0.59093 0.7351 0.44108 0.0
Co270 Co 0.54101 0.73904 0.54772 0.0
C271 C 0.54501 0.76582 0.68946 0.0
O272 O 0.57283 0.75408 0.70074 0.0
N273 N 0.50493 0.71559 0.57567 0.0
C274 C 0.47732 0.68793 0.64799 0.0
C275 C 0.50377 0.70509 0.63809 0.0
C276 C 0.47817 0.7041 0.54834 0.0
N277 N 0.46113 0.68706 0.59186 0.0
O278 O 0.51504 0.76681 0.49374 0.0
H279 H 0.52203 0.70817 0.67406 0.0
H280 H 0.47205 0.70686 0.49733 0.0
O281 O 0.5334 0.76382 0.6314 0.0
C282 C 0.51792 0.75378 0.43722 0.0
O283 O 0.53131 0.72609 0.43473 0.0
N284 N 0.56839 0.70753 0.58372 0.0
C285 C 0.60991 0.65612 0.58889 0.0
C286 C 0.6191 0.68572 0.612 0.0
C287 C 0.59817 0.71128 0.60791 0.0
C288 C 0.56013 0.6789 0.55892 0.0
C289 C 0.57989 0.65308 0.56264 0.0
H290 H 0.60712 0.73425 0.6192 0.0
H291 H 0.53885 0.67605 0.5311 0.0
H292 H 0.58271 0.80047 0.59306 0.0
H293 H 0.63861 0.77425 0.43322 0.0
H294 H 0.471 0.6758 0.69256 0.0
H295 H 0.64248 0.68931 0.63124 0.0
H296 H 0.57218 0.63109 0.54168 0.0
C297 C 0.25736 0.60076 0.48189 0.0
C298 C 0.23684 0.62549 0.4789 0.0
N299 N 0.21156 0.61864 0.5155 0.0
N300 N 0.24552 0.57821 0.52088 0.0
C301 C 0.21721 0.58958 0.53988 0.0
H302 H 0.28014 0.59971 0.45888 0.0
Co303 Co 0.2683 0.5413 0.54131 0.0
C304 C 0.23453 0.54526 0.67917 0.0
O305 O 0.23265 0.57581 0.68442 0.0
N306 N 0.2906 0.50408 0.5649 0.0
C307 C 0.31591 0.47267 0.63437 0.0
C308 C 0.29979 0.50003 0.62777 0.0
C309 C 0.30223 0.47849 0.53372 0.0
N310 N 0.31757 0.45906 0.57558 0.0
O311 O 0.23945 0.51743 0.48535 0.0
H312 H 0.29631 0.51677 0.66666 0.0
H313 H 0.30073 0.47486 0.48148 0.0
O314 O 0.24483 0.53319 0.62577 0.0
C315 C 0.25134 0.52298 0.42849 0.0
O316 O 0.27802 0.53829 0.42621 0.0
N317 N 0.30049 0.56612 0.58007 0.0
C318 C 0.35165 0.60738 0.58779 0.0
C319 C 0.32313 0.61454 0.61871 0.0
C320 C 0.29769 0.59358 0.61406 0.0
C321 C 0.32827 0.55927 0.54998 0.0
C322 C 0.35406 0.57901 0.55444 0.0
H323 H 0.27531 0.60103 0.63234 0.0
H324 H 0.33008 0.53941 0.51762 0.0
H325 H 0.20161 0.57741 0.57283 0.0
H326 H 0.24059 0.64731 0.45303 0.0
H327 H 0.32722 0.46418 0.67839 0.0
H328 H 0.32022 0.63651 0.6444 0.0
H329 H 0.37533 0.57285 0.52857 0.0
C330 C 0.40825 0.25476 0.46812 0.0
C331 C 0.38306 0.23485 0.46538 0.0
N332 N 0.38754 0.21154 0.5088 0.0
N333 N 0.42903 0.24428 0.51277 0.0
C334 C 0.416 0.21738 0.5359 0.0
H335 H 0.4108 0.27623 0.44055 0.0
Co336 Co 0.46547 0.26777 0.53361 0.0
C337 C 0.46144 0.23529 0.67416 0.0
O338 O 0.43105 0.23179 0.68034 0.0
N339 N 0.50196 0.29107 0.55793 0.0
C340 C 0.53145 0.31765 0.62869 0.0
C341 C 0.50299 0.30418 0.6181 0.0
C342 C 0.53075 0.29731 0.53254 0.0
N343 N 0.54916 0.3134 0.57532 0.0
O344 O 0.49054 0.23833 0.48192 0.0
H345 H 0.48414 0.30365 0.65331 0.0
H346 H 0.53828 0.28963 0.48471 0.0
O347 O 0.47254 0.24654 0.62064 0.0
C348 C 0.48647 0.2502 0.42441 0.0
O349 O 0.47171 0.2771 0.41997 0.0
N350 N 0.4398 0.30004 0.56706 0.0
C351 C 0.39945 0.3518 0.57185 0.0
C352 C 0.39358 0.32496 0.61006 0.0
C353 C 0.41403 0.29904 0.60653 0.0
C354 C 0.44528 0.3259 0.52947 0.0
C355 C 0.42571 0.35181 0.53128 0.0
H356 H 0.40797 0.27787 0.63203 0.0
H357 H 0.46432 0.32595 0.49476 0.0
H358 H 0.42658 0.20283 0.57312 0.0
H359 H 0.36258 0.23774 0.43468 0.0
H360 H 0.53849 0.3301 0.67237 0.0
H361 H 0.37307 0.32376 0.64103 0.0
H362 H 0.43051 0.37131 0.49888 0.0
C363 C 0.75404 0.4104 0.46819 0.0
C364 C 0.77491 0.38599 0.46442 0.0
N365 N 0.79666 0.38953 0.51158 0.0
N366 N 0.76224 0.42951 0.51775 0.0
C367 C 0.78861 0.41631 0.54308 0.0
H368 H 0.73322 0.41318 0.43859 0.0
Co369 Co 0.73703 0.46378 0.54376 0.0
C370 C 0.7648 0.46142 0.68489 0.0
O371 O 0.75468 0.43316 0.69801 0.0
N372 N 0.7125 0.49879 0.57315 0.0
C373 C 0.68519 0.52558 0.64722 0.0
C374 C 0.70175 0.49893 0.63536 0.0
C375 C 0.70184 0.52641 0.54805 0.0
N376 N 0.68496 0.54296 0.5926 0.0
O377 O 0.7632 0.49086 0.48919 0.0
H378 H 0.70488 0.48016 0.67018 0.0
H379 H 0.70552 0.53375 0.49802 0.0
O380 O 0.76211 0.47217 0.62626 0.0
C381 C 0.74984 0.48723 0.43315 0.0
O382 O 0.72255 0.47299 0.43185 0.0
N383 N 0.7073 0.435 0.58087 0.0
C384 C 0.66034 0.38863 0.57785 0.0
C385 C 0.69014 0.38206 0.60369 0.0
C386 C 0.71347 0.40539 0.60369 0.0
C387 C 0.67793 0.44146 0.5572 0.0
C388 C 0.65419 0.41916 0.557 0.0
H389 H 0.73704 0.3983 0.61554 0.0
H390 H 0.67308 0.46325 0.53245 0.0
H391 H 0.8005 0.42498 0.58611 0.0
H392 H 0.77354 0.36641 0.43098 0.0
H393 H 0.67347 0.53148 0.69246 0.0
H394 H 0.69601 0.35857 0.61964 0.0
H395 H 0.63144 0.42554 0.53754 0.0
C396 C 0.59666 0.25134 0.12219 0.0
C397 C 0.62105 0.23038 0.12505 0.0
N398 N 0.61735 0.20923 0.07699 0.0
N399 N 0.57737 0.2437 0.07243 0.0
C400 C 0.59047 0.21756 0.04604 0.0
H401 H 0.59402 0.27185 0.15262 0.0
Co402 Co 0.54283 0.26913 0.04779 0.0
C403 C 0.54422 0.24326 0.90566 0.0
O404 O 0.57148 0.25576 0.89242 0.0
N405 N 0.50751 0.29383 1.02022 0.0
C406 C 0.47927 0.32145 0.94856 0.0
C407 C 0.50598 0.3045 0.95794 0.0
C408 C 0.48081 0.30509 0.04805 0.0
N409 N 0.46338 0.32202 1.00494 0.0
O410 O 0.5161 0.24259 0.10287 0.0
H411 H 0.52402 0.30149 0.92161 0.0
H412 H 0.47481 0.30194 0.09899 0.0
O413 O 0.53385 0.24428 0.96481 0.0
C414 C 0.52011 0.25527 0.15945 0.0
O415 O 0.53463 0.28238 0.16168 0.0
N416 N 0.57137 0.29918 1.01004 0.0
C417 C 0.61729 0.34681 1.00777 0.0
C418 C 0.62407 0.31651 0.985 0.0
C419 C 0.60098 0.29298 0.9873 0.0
C420 C 0.5649 0.32875 0.0323 0.0
C421 C 0.58694 0.35276 0.03 0.0
H422 H 0.60816 0.26935 0.9764 0.0
H423 H 0.54331 0.33371 0.0576 0.0
H424 H 0.58166 0.20604 1.00271 0.0
H425 H 0.64081 0.23138 0.15825 0.0
H426 H 0.47258 0.3337 0.90431 0.0
H427 H 0.64754 0.31042 0.96952 0.0
H428 H 0.58053 0.37564 0.04857 0.0
C429 C 0.75403 0.59673 0.12883 0.0
C430 C 0.77472 0.62133 0.13081 0.0
N431 N 0.79631 0.61727 0.08365 0.0
N432 N 0.76222 0.57693 0.08054 0.0
C433 C 0.7883 0.59 0.05391 0.0
H434 H 0.73343 0.59414 0.15906 0.0
Co435 Co 0.73765 0.54175 0.05709 0.0
C436 C 0.76013 0.54446 0.91302 0.0
O437 O 0.74412 0.56992 0.9005 0.0
N438 N 0.71383 0.50587 1.02963 0.0
C439 C 0.68707 0.47735 0.95737 0.0
C440 C 0.70031 0.50576 0.96973 0.0
C441 C 0.70811 0.47654 0.05295 0.0
N442 N 0.69216 0.45866 1.00906 0.0
O443 O 0.76557 0.51553 0.10992 0.0
H444 H 0.69989 0.52537 0.93636 0.0
H445 H 0.71596 0.46822 0.10019 0.0
O446 O 0.76145 0.53419 0.97228 0.0
C447 C 0.75292 0.51909 0.16668 0.0
O448 O 0.72576 0.5335 0.16971 0.0
N449 N 0.70614 0.56944 1.02339 0.0
C450 C 0.65552 0.6118 1.02326 0.0
C451 C 0.68463 0.62036 0.99661 0.0
C452 C 0.70989 0.59907 0.99852 0.0
C453 C 0.67809 0.56174 0.05148 0.0
C454 C 0.65262 0.58198 0.05056 0.0
H455 H 0.73277 0.60743 0.98441 0.0
H456 H 0.67564 0.54042 0.07941 0.0
H457 H 0.80013 0.58072 1.01141 0.0
H458 H 0.77342 0.64129 0.1633 0.0
H459 H 0.67402 0.47107 0.9139 0.0
H460 H 0.68813 0.64349 0.97616 0.0
H461 H 0.63109 0.57475 0.07418 0.0
C462 C 0.40776 0.75523 0.12685 0.0
C463 C 0.38271 0.77541 0.12874 0.0
N464 N 0.38736 0.79821 0.08433 0.0
N465 N 0.42848 0.76506 0.08158 0.0
C466 C 0.41556 0.79171 0.05698 0.0
H467 H 0.41017 0.73395 0.15513 0.0
Co468 Co 0.46449 0.74131 0.06004 0.0
C469 C 0.46186 0.77301 0.91957 0.0
O470 O 0.43163 0.7714 0.90866 0.0
N471 N 0.50084 0.7179 0.03471 0.0
C472 C 0.52932 0.69076 0.96319 0.0
C473 C 0.50251 0.70738 0.97238 0.0
C474 C 0.52759 0.70684 0.06283 0.0
N475 N 0.54517 0.69016 1.01975 0.0
O476 O 0.48971 0.76951 0.11435 0.0
H477 H 0.48459 0.71062 0.9356 0.0
H478 H 0.5334 0.70978 0.11394 0.0
O479 O 0.47275 0.76455 0.97556 0.0
C480 C 0.48564 0.75696 0.17112 0.0
O481 O 0.4711 0.72988 0.17391 0.0
N482 N 0.43828 0.70978 1.02349 0.0
C483 C 0.39688 0.65869 1.01782 0.0
C484 C 0.38946 0.68718 0.98672 0.0
C485 C 0.4104 0.71269 0.9908 0.0
C486 C 0.44505 0.68226 0.05473 0.0
C487 C 0.42527 0.65655 0.05139 0.0
H488 H 0.40278 0.73511 0.97279 0.0
H489 H 0.46512 0.68055 0.08672 0.0
H490 H 0.42584 0.80536 1.01801 0.0
H491 H 0.36216 0.77301 0.15929 0.0
H492 H 0.53622 0.67889 0.91872 0.0
H493 H 0.36739 0.68999 0.96118 0.0
H494 H 0.43156 0.63547 0.07792 0.0
C495 C 0.25634 0.40914 0.11853 0.0
C496 C 0.23597 0.38433 0.12206 0.0
N497 N 0.21213 0.38948 0.08022 0.0
N498 N 0.24563 0.43029 0.0749 0.0
C499 C 0.21821 0.41786 0.05306 0.0
H500 H 0.27819 0.41124 0.14501 0.0
Co501 Co 0.26913 0.46659 0.05365 0.0
C502 C 0.23509 0.46354 0.91409 0.0
O503 O 0.2321 0.43322 0.90568 0.0
N504 N 0.29257 0.50292 1.02885 0.0
C505 C 0.32015 0.53133 0.9578 0.0
C506 C 0.30368 0.50442 0.96694 0.0
C507 C 0.30309 0.52988 0.05676 0.0
N508 N 0.31999 0.54744 1.01392 0.0
O509 O 0.23998 0.49174 0.10619 0.0
H510 H 0.30076 0.48643 0.9303 0.0
H511 H 0.2995 0.53593 0.10752 0.0
O512 O 0.2469 0.47388 0.96775 0.0
C513 C 0.25131 0.48739 0.16406 0.0
O514 O 0.27805 0.47235 0.16922 0.0
N515 N 0.30111 0.44083 1.01873 0.0
C516 C 0.3532 0.40086 1.01061 0.0
C517 C 0.326 0.39502 0.9734 0.0
C518 C 0.29993 0.41531 0.9785 0.0
C519 C 0.32722 0.4461 0.05574 0.0
C520 C 0.35332 0.42678 0.05211 0.0
H521 H 0.27858 0.4094 0.95338 0.0
H522 H 0.32739 0.4648 0.09124 0.0
H523 H 0.20343 0.42882 1.01668 0.0
H524 H 0.23883 0.36371 0.15233 0.0
H525 H 0.33232 0.53818 0.91365 0.0
H526 H 0.32472 0.37476 0.94174 0.0
H527 H 0.37318 0.43158 0.08362 0.0
C528 C 0.13243 0.35407 0.04357 0.0
C529 C 0.13967 0.32218 0.034 0.0
C530 C 0.15618 0.37625 0.05738 0.0
C531 C 0.18785 0.36714 0.06325 0.0
H532 H 0.1084 0.36194 0.03893 0.0
H533 H 0.14976 0.40056 0.06432 0.0
S534 S 0.21879 0.28641 0.04312 0.0
N535 N 0.18063 0.28276 0.03227 0.0
N536 N 0.22488 0.32397 0.05732 0.0
C537 C 0.19514 0.33527 0.05412 0.0
C538 C 0.17118 0.31295 0.03979 0.0
C539 C 0.65705 0.13197 0.03917 0.0
C540 C 0.68837 0.14111 1.02818 0.0
C541 C 0.63349 0.15436 0.05284 0.0
C542 C 0.64063 0.18651 0.05715 0.0
H543 H 0.65072 0.10745 0.03635 0.0
H544 H 0.60974 0.14649 0.06154 0.0
S545 S 0.71883 0.22253 0.0339 0.0
N546 N 0.72497 0.18466 1.02372 0.0
N547 N 0.68102 0.22621 0.04902 0.0
C548 C 0.67177 0.19579 0.0464 0.0
C549 C 0.69553 0.17325 0.03206 0.0
C550 C 0.81174 0.67228 0.06483 0.0
C551 C 0.81956 0.64024 0.06444 0.0
C552 C 0.83379 0.6954 0.04899 0.0
C553 C 0.8649 0.6877 0.03271 0.0
H554 H 0.78817 0.67959 0.07707 0.0
H555 H 0.82646 0.71968 0.05015 0.0
S556 S 0.89767 0.60732 1.02472 0.0
N557 N 0.86074 0.60194 0.04633 0.0
N558 N 0.90242 0.64558 1.01693 0.0
C559 C 0.87323 0.65578 0.03238 0.0
C560 C 0.8505 0.63204 0.04781 0.0
C561 C 0.35033 0.87654 0.04309 0.0
C562 C 0.31876 0.8684 0.03201 0.0
C563 C 0.37298 0.85348 0.05867 0.0
C564 C 0.36462 0.82168 0.06502 0.0
H565 H 0.3576 0.90073 0.03834 0.0
H566 H 0.39703 0.86056 0.06678 0.0
S567 S 0.28505 0.78848 0.04164 0.0
N568 N 0.28048 0.82642 1.02912 0.0
N569 N 0.3226 0.78348 0.05822 0.0
C570 C 0.3331 0.81347 0.05442 0.0
C571 C 0.31031 0.83671 0.03801 0.0
C572 C 0.17069 0.69412 0.55806 0.0
C573 C 0.13886 0.68568 0.56089 0.0
C574 C 0.19402 0.67209 0.54346 0.0
C575 C 0.18672 0.64041 0.53188 0.0
H576 H 0.17762 0.71814 0.56697 0.0
H577 H 0.21815 0.67988 0.54203 0.0
S578 S 0.10693 0.60601 0.53373 0.0
N579 N 0.10113 0.64342 0.55076 0.0
N580 N 0.14516 0.60172 0.52395 0.0
C581 C 0.15498 0.6315 0.53478 0.0
C582 C 0.13103 0.6542 0.54881 0.0
C583 C 0.37252 0.15652 0.53625 0.0
C584 C 0.36443 0.1883 0.52758 0.0
C585 C 0.34951 0.13371 0.55113 0.0
C586 C 0.31774 0.14202 0.55905 0.0
H587 H 0.39666 0.14923 0.53041 0.0
H588 H 0.35663 0.10955 0.55749 0.0
S589 S 0.28454 0.22207 0.5423 0.0
N590 N 0.32242 0.22671 0.52947 0.0
N591 N 0.27961 0.18427 0.55573 0.0
C592 C 0.30956 0.17372 0.55059 0.0
C593 C 0.33276 0.19671 0.53538 0.0
C594 C 0.8116 0.33429 0.52899 0.0
C595 C 0.81975 0.36623 0.52985 0.0
C596 C 0.83351 0.31087 0.544 0.0
C597 C 0.86477 0.31819 0.55985 0.0
H598 H 0.78789 0.32732 0.51701 0.0
H599 H 0.82595 0.28668 0.5425 0.0
S600 S 0.89834 0.39819 0.56892 0.0
N601 N 0.86135 0.40404 0.54805 0.0
N602 N 0.90278 0.35984 0.57584 0.0
C603 C 0.87341 0.35002 0.56069 0.0
C604 C 0.85084 0.37405 0.54613 0.0
C605 C 0.63355 0.85057 0.54793 0.0
C606 C 0.64127 0.81905 0.53507 0.0
C607 C 0.6571 0.87316 0.56041 0.0
C608 C 0.68909 0.86482 0.56166 0.0
H609 H 0.60925 0.85786 0.54702 0.0
H610 H 0.65029 0.89714 0.57006 0.0
S611 S 0.72143 0.78535 0.53189 0.0
N612 N 0.68314 0.78083 0.52547 0.0
N613 N 0.72695 0.82282 0.54798 0.0
C614 C 0.69689 0.83335 0.54918 0.0
C615 C 0.67313 0.81061 0.53619 0.0
C616 C 0.17966 0.10335 0.12322 0.0
C617 C 0.18089 0.08358 0.06803 0.0
C618 C 0.16074 0.13027 0.12428 0.0
C619 C 0.14217 0.13846 0.07018 0.0
H620 H 0.19213 0.0969 0.16736 0.0
H621 H 0.15915 0.14359 0.16917 0.0
S622 S 0.14115 0.09775 0.9098 0.0
N623 N 0.16482 0.07623 0.95543 0.0
N624 N 0.12977 0.12719 0.95643 0.0
C625 C 0.14533 0.12045 1.0127 0.0
C626 C 0.16464 0.09299 1.01176 0.0
C627 C 0.90742 0.17728 0.06247 0.0
C628 C 0.93692 0.16493 0.07935 0.0
C629 C 0.88013 0.15856 0.06544 0.0
C630 C 0.88153 0.1269 0.08542 0.0
H631 H 0.90535 0.20174 0.04905 0.0
H632 H 0.85787 0.16884 0.05165 0.0
S633 S 0.95344 0.08386 0.13481 0.0
N634 N 0.96596 0.11926 0.1156 0.0
N635 N 0.91517 0.08453 0.12305 0.0
C636 C 0.91107 0.11447 0.10196 0.0
C637 C 0.93858 0.13333 0.09838 0.0
C638 C 0.8471 0.87624 0.07332 0.0
C639 C 0.8798 0.88037 0.07855 0.0
C640 C 0.82673 0.90214 0.06789 0.0
C641 C 0.83843 0.93291 0.06666 0.0
H642 H 0.83721 0.85287 0.07337 0.0
H643 H 0.80166 0.89824 0.06701 0.0
S644 S 0.92146 0.95674 0.08209 0.0
N645 N 0.92247 0.91809 0.08477 0.0
N646 N 0.88418 0.9662 0.07298 0.0
C647 C 0.87088 0.9373 0.07135 0.0
C648 C 0.89155 0.91121 0.07768 0.0
C649 C 0.12914 0.8477 0.0423 0.0
C650 C 0.12609 0.87973 0.05823 0.0
C651 C 0.10272 0.82792 0.03855 0.0
C652 C 0.07241 0.83959 0.04985 0.0
H653 H 0.1521 0.83778 0.03329 0.0
H654 H 0.10607 0.80313 0.02978 0.0
S655 S 0.05133 0.92097 0.09401 0.0
N656 N 0.08984 0.92165 0.08664 0.0
N657 N 0.0407 0.88472 0.07702 0.0
C658 C 0.06901 0.87154 0.06397 0.0
C659 C 0.09566 0.89152 0.06887 0.0
C660 C 0.17907 0.90522 0.468 0.0
C661 C 0.17997 0.92553 0.52238 0.0
C662 C 0.16002 0.87841 0.46723 0.0
C663 C 0.141 0.8708 0.52086 0.0
H664 H 0.19197 0.91111 0.42416 0.0
H665 H 0.15877 0.86468 0.42283 0.0
S666 S 0.13894 0.91306 0.67951 0.0
N667 N 0.163 0.93404 0.63394 0.0
N668 N 0.12782 0.88323 0.63366 0.0
C669 C 0.14378 0.88937 0.5777 0.0
C670 C 0.16318 0.91676 0.5783 0.0
C671 C 0.10526 0.18145 0.53645 0.0
C672 C 0.07438 0.17012 0.53935 0.0
C673 C 0.13089 0.1608 0.53078 0.0
C674 C 0.12638 0.12813 0.52666 0.0
H675 H 0.10943 0.20647 0.53571 0.0
H676 H 0.15432 0.17049 0.52903 0.0
S677 S 0.04944 0.08736 0.52759 0.0
N678 N 0.04052 0.12477 0.53619 0.0
N679 N 0.08805 0.08587 0.52339 0.0
C680 C 0.0954 0.11672 0.52962 0.0
C681 C 0.06961 0.1377 0.5365 0.0
C682 C 0.8278 0.10397 0.52596 0.0
C683 C 0.83948 0.07318 0.52512 0.0
C684 C 0.84808 0.1299 0.52013 0.0
C685 C 0.88067 0.12579 0.51243 0.0
H686 H 0.80276 0.10791 0.52859 0.0
H687 H 0.8382 0.15327 0.5216 0.0
S688 S 0.92223 0.04942 0.50351 0.0
N689 N 0.88512 0.03992 0.51471 0.0
N690 N 0.9232 0.08808 0.50213 0.0
C691 C 0.89241 0.09493 0.51149 0.0
C692 C 0.87186 0.06882 0.51825 0.0
C693 C 0.90539 0.82881 0.51921 0.0
C694 C 0.93566 0.84153 0.51346 0.0
C695 C 0.87857 0.84812 0.51516 0.0
C696 C 0.88125 0.88071 0.50494 0.0
H697 H 0.90251 0.80375 0.52467 0.0
H698 H 0.85565 0.83753 0.5204 0.0
S699 S 0.95558 0.92481 0.4845 0.0
N700 N 0.96679 0.88822 0.49638 0.0
N701 N 0.91692 0.92436 0.48758 0.0
C702 C 0.91155 0.89346 0.49915 0.0
C703 C 0.93857 0.87393 0.50373 0.0
C704 C 0.63609 0.57189 0.61174 0.0
C705 C 0.66652 0.57113 0.58539 0.0
C706 C 0.61863 0.59959 0.61401 0.0
C707 C 0.63074 0.62801 0.59009 0.0
H708 H 0.62576 0.55075 0.63153 0.0
H709 H 0.59534 0.59876 0.63495 0.0
S710 S 0.70913 0.63871 0.51484 0.0
N711 N 0.70812 0.60112 0.53439 0.0
N712 N 0.67503 0.65354 0.53752 0.0
C713 C 0.66112 0.62768 0.56299 0.0
C714 C 0.67898 0.59916 0.56056 0.0
C715 C 0.40867 0.61716 0.60606 0.0
C716 C 0.37913 0.62895 0.58795 0.0
C717 C 0.43552 0.63593 0.60355 0.0
C718 C 0.43418 0.66725 0.5822 0.0
H719 H 0.411 0.59322 0.6231 0.0
H720 H 0.4576 0.62609 0.61982 0.0
S721 S 0.36308 0.70917 0.52616 0.0
N722 N 0.35032 0.67375 0.54527 0.0
N723 N 0.40117 0.70913 0.54112 0.0
C724 C 0.40505 0.67926 0.56242 0.0
C725 C 0.37744 0.66014 0.56542 0.0
C726 C 0.32575 0.40249 0.55827 0.0
C727 C 0.3379 0.43302 0.56243 0.0
C728 C 0.34562 0.37614 0.56223 0.0
C729 C 0.37822 0.37958 0.57116 0.0
H730 H 0.30067 0.39904 0.5545 0.0
H731 H 0.33542 0.35298 0.55841 0.0
S732 S 0.42086 0.45495 0.58837 0.0
N733 N 0.38396 0.46529 0.57712 0.0
N734 N 0.42126 0.41629 0.58612 0.0
C735 C 0.39042 0.41016 0.57531 0.0
C736 C 0.37029 0.43671 0.57053 0.0
C737 C 0.60037 0.3268 0.62385 0.0
C738 C 0.58049 0.32582 0.56866 0.0
C739 C 0.62736 0.34558 0.62514 0.0
C740 C 0.63555 0.36417 0.57119 0.0
H741 H 0.59402 0.31422 0.66784 0.0
H742 H 0.64073 0.34702 0.67006 0.0
S743 S 0.59472 0.36564 0.41067 0.0
N744 N 0.57309 0.34211 0.45615 0.0
N745 N 0.62428 0.37673 0.45743 0.0
C746 C 0.61748 0.36118 0.51363 0.0
C747 C 0.58991 0.3421 0.51251 0.0
C748 C 0.66213 0.41846 0.06922 0.0
C749 C 0.67994 0.42722 1.01464 0.0
C750 C 0.64326 0.39143 0.06782 0.0
C751 C 0.64148 0.37215 1.01177 0.0
H752 H 0.66114 0.43367 0.11146 0.0
H753 H 0.62897 0.38628 0.11018 0.0
S754 S 0.6873 0.38285 0.85954 0.0
N755 N 0.69774 0.41263 0.90617 0.0
N756 N 0.66179 0.36248 0.90278 0.0
C757 C 0.66108 0.37949 0.95883 0.0
C758 C 0.68036 0.40687 0.96045 0.0
C759 C 0.57131 0.63943 1.00878 0.0
C760 C 0.57227 0.67069 0.0301 0.0
C761 C 0.59839 0.62107 1.00591 0.0
C762 C 0.62779 0.6331 1.02431 0.0
H763 H 0.54938 0.62936 0.99237 0.0
H764 H 0.5963 0.59726 0.98814 0.0
S765 S 0.64278 0.71351 0.08585 0.0
N766 N 0.6047 0.71301 0.07082 0.0
N767 N 0.65599 0.67822 0.06712 0.0
C768 C 0.62908 0.66427 0.04698 0.0
C769 C 0.60122 0.68306 0.04983 0.0
C770 C 0.3706 0.57404 1.00592 0.0
C771 C 0.33888 0.57492 1.02416 0.0
C772 C 0.38867 0.6013 1.00273 0.0
C773 C 0.37582 0.63082 1.01745 0.0
H774 H 0.3813 0.55198 0.9923 0.0
H775 H 0.41295 0.59927 0.98789 0.0
S776 S 0.29385 0.64578 0.06925 0.0
N777 N 0.29521 0.60747 0.0576 0.0
N778 N 0.32936 0.65914 0.053 0.0
C779 C 0.34412 0.63208 0.03666 0.0
C780 C 0.32566 0.60404 0.03999 0.0
C781 C 0.40638 0.32869 1.02322 0.0
C782 C 0.43644 0.34168 1.01557 0.0
C783 C 0.37929 0.34769 1.02 0.0
C784 C 0.38149 0.38025 1.00882 0.0
H785 H 0.40383 0.30363 1.02956 0.0
H786 H 0.35654 0.33691 1.02668 0.0
S787 S 0.45506 0.42502 0.98352 0.0
N788 N 0.46682 0.38862 0.99569 0.0
N789 N 0.41646 0.42416 0.98861 0.0
C790 C 0.41157 0.39326 1.00115 0.0
C791 C 0.43885 0.37405 1.00481 0.0
C792 C 0.97124 0.27713 0.29529 0.0
C793 C 0.98351 0.27707 0.35964 0.0
C794 C 0.99081 0.27537 0.2395 0.0
C795 C 0.02374 0.27362 0.24505 0.0
H796 H 0.94612 0.27703 0.28773 0.0
H797 H 0.97988 0.27379 0.19183 0.0
S798 S 0.0682 0.27685 0.40171 0.0
N799 N 0.03115 0.27812 0.42453 0.0
N800 N 0.06766 0.27507 0.32115 0.0
C801 C 0.03633 0.27546 0.30904 0.0
C802 C 0.0164 0.2771 0.36567 0.0
C803 C 0.7327 0.01513 0.35706 0.0
C804 C 0.73046 0.98225 0.35197 0.0
C805 C 0.73356 0.03471 0.30128 0.0
C806 C 0.73253 0.02261 0.23692 0.0
H807 H 0.73461 0.02595 0.40474 0.0
H808 H 0.7362 0.05966 0.30907 0.0
S809 S 0.72528 0.93822 0.19525 0.0
N810 N 0.72591 0.93863 0.2759 0.0
N811 N 0.72779 0.9752 0.17221 0.0
C812 C 0.72924 0.98985 0.23102 0.0
C813 C 0.72814 0.96985 0.28793 0.0
C814 C 0.01506 0.73351 0.22858 0.0
C815 C 0.98222 0.73073 0.23358 0.0
C816 C 0.0345 0.73533 0.28439 0.0
C817 C 0.02232 0.73466 0.34869 0.0
H818 H 0.02592 0.73524 0.18092 0.0
H819 H 0.0594 0.73846 0.27668 0.0
S820 S 0.93804 0.72606 0.39014 0.0
N821 N 0.93856 0.72585 0.30948 0.0
N822 N 0.97494 0.72954 0.41336 0.0
C823 C 0.98965 0.73056 0.3546 0.0
C824 C 0.96976 0.72855 0.2976 0.0
C825 C 0.268 0.99308 0.3565 0.0
C826 C 0.27206 0.02579 0.35188 0.0
C827 C 0.26576 0.97394 0.30046 0.0
C828 C 0.26738 0.98632 0.23638 0.0
H829 H 0.26554 0.98211 0.40396 0.0
H830 H 0.26156 0.94916 0.30771 0.0
S831 S 0.2792 0.07031 0.19591 0.0
N832 N 0.27898 0.06951 0.27657 0.0
N833 N 0.27456 0.03365 0.17225 0.0
C834 C 0.27275 0.0188 0.23086 0.0
C835 C 0.2751 0.0384 0.28808 0.0
C836 C 0.02396 0.73865 0.84064 0.0
C837 C 0.99243 0.73599 0.85939 0.0
C838 C 0.03245 0.74065 0.77406 0.0
C839 C 0.00988 0.73999 0.72324 0.0
H840 H 0.04179 0.74271 0.87742 0.0
H841 H 0.05672 0.74564 0.76248 0.0
S842 S 0.92459 0.72919 0.7462 0.0
N843 N 0.93889 0.72933 0.82128 0.0
N844 N 0.95499 0.73309 0.69694 0.0
C845 C 0.97873 0.73418 0.74114 0.0
C846 C 0.97004 0.73221 0.80893 0.0
C847 C 0.27326 0.98061 0.74568 0.0
C848 C 0.27443 0.01175 0.7236 0.0
C849 C 0.27225 0.97357 0.81312 0.0
C850 C 0.27224 0.9973 0.86141 0.0
H851 H 0.26931 0.96186 0.71101 0.0
H852 H 0.26801 0.94948 0.82733 0.0
S853 S 0.27959 0.08227 0.82927 0.0
N854 N 0.2796 0.06625 0.75582 0.0
N855 N 0.2772 0.05291 0.88173 0.0
C856 C 0.27686 0.02816 0.84012 0.0
C857 C 0.27808 0.03534 0.77149 0.0
C858 C 0.97641 0.26894 0.85087 0.0
C859 C 0.00802 0.26892 0.86999 0.0
C860 C 0.96786 0.26948 0.7841 0.0
C861 C 0.99047 0.27 0.73346 0.0
H862 H 0.95831 0.26519 0.8871 0.0
H863 H 0.94334 0.26637 0.77189 0.0
S864 S 0.07627 0.2744 0.75785 0.0
N865 N 0.0619 0.27314 0.83271 0.0
N866 N 0.04571 0.27386 0.70819 0.0
C867 C 0.02191 0.27315 0.75214 0.0
C868 C 0.03066 0.27259 0.82006 0.0
C869 C 0.73772 0.02672 0.74469 0.0
C870 C 0.73619 0.99526 0.72483 0.0
C871 C 0.73865 0.03482 0.81164 0.0
C872 C 0.73805 0.01191 0.86178 0.0
H873 H 0.74173 0.04489 0.70868 0.0
H874 H 0.74293 0.0591 0.82419 0.0
S875 S 0.73022 0.92651 0.83568 0.0
N876 N 0.73073 0.94133 0.76106 0.0
N877 N 0.7326 0.95667 0.886 0.0
C878 C 0.73341 0.98074 0.84259 0.0
C879 C 0.73248 0.97245 0.77445 0.0
C880 C 0.47179 0.77687 0.79709 0.0
C881 C 0.48374 0.77676 0.86171 0.0
C882 C 0.49158 0.77529 0.74169 0.0
C883 C 0.52449 0.77358 0.74772 0.0
H884 H 0.44672 0.7768 0.7889 0.0
H885 H 0.48081 0.77391 0.69384 0.0
S886 S 0.56831 0.77616 0.90523 0.0
N887 N 0.53118 0.77749 0.92741 0.0
N888 N 0.56809 0.77469 0.82465 0.0
C889 C 0.53682 0.77525 0.81196 0.0
C890 C 0.51665 0.77679 0.86831 0.0
C891 C 0.22955 0.47273 0.7916 0.0
C892 C 0.23143 0.48513 0.85562 0.0
C893 C 0.22965 0.49211 0.73538 0.0
C894 C 0.23113 0.52507 0.73987 0.0
H895 H 0.22904 0.4476 0.78442 0.0
H896 H 0.22913 0.48103 0.68782 0.0
S897 S 0.23534 0.56989 0.89578 0.0
N898 N 0.23403 0.53295 0.91946 0.0
N899 N 0.23386 0.56915 0.81519 0.0
C900 C 0.23208 0.53785 0.80374 0.0
C901 C 0.23234 0.51805 0.86094 0.0
C902 C 0.53476 0.23733 0.78394 0.0
C903 C 0.5229 0.2358 0.84844 0.0
C904 C 0.51508 0.23589 0.72844 0.0
C905 C 0.48232 0.23259 0.73397 0.0
H906 H 0.55958 0.24085 0.77584 0.0
H907 H 0.5257 0.23829 0.68066 0.0
S908 S 0.43895 0.22569 0.89122 0.0
N909 N 0.4759 0.22944 0.91383 0.0
N910 N 0.43909 0.22635 0.81056 0.0
C911 C 0.47018 0.22963 0.79815 0.0
C912 C 0.49031 0.2313 0.85482 0.0
C913 C 0.77094 0.47126 0.80664 0.0
C914 C 0.77078 0.48318 0.74197 0.0
C915 C 0.77003 0.49109 0.86196 0.0
C916 C 0.76878 0.52395 0.85564 0.0
H917 H 0.77021 0.44621 0.8149 0.0
H918 H 0.76833 0.48041 0.90986 0.0
S919 S 0.77165 0.56769 0.69829 0.0
N920 N 0.77231 0.53054 0.67606 0.0
N921 N 0.77052 0.56751 0.77891 0.0
C922 C 0.77069 0.53623 0.79149 0.0
C923 C 0.77175 0.51604 0.73519 0.0
C924 C 0.53553 0.24157 0.27384 0.0
C925 C 0.5125 0.24047 0.22398 0.0
C926 C 0.52773 0.23945 0.34077 0.0
C927 C 0.49647 0.23613 0.36095 0.0
H928 H 0.55958 0.24703 0.26125 0.0
H929 H 0.54583 0.24398 0.37673 0.0
S930 S 0.42766 0.22816 0.25068 0.0
N931 N 0.45749 0.23258 0.2001 0.0
N932 N 0.44271 0.22851 0.32511 0.0
C933 C 0.47367 0.23189 0.31142 0.0
C934 C 0.48165 0.23406 0.24324 0.0
C935 C 0.763 0.47119 0.31919 0.0
C936 C 0.76417 0.49455 0.3682 0.0
C937 C 0.76437 0.4786 0.25197 0.0
C938 C 0.76701 0.50977 0.23072 0.0
H939 H 0.75803 0.44715 0.33276 0.0
H940 H 0.75991 0.46021 0.21673 0.0
S941 S 0.77488 0.57936 0.33848 0.0
N942 N 0.77133 0.54979 0.39011 0.0
N943 N 0.77413 0.56384 0.26457 0.0
C944 C 0.77128 0.53295 0.27932 0.0
C945 C 0.76985 0.52536 0.34778 0.0
C946 C 0.53352 0.76837 0.32369 0.0
C947 C 0.5102 0.76861 0.37285 0.0
C948 C 0.52595 0.76955 0.25646 0.0
C949 C 0.49463 0.771 0.23538 0.0
H950 H 0.55774 0.76419 0.33714 0.0
H951 H 0.54444 0.76584 0.2211 0.0
S952 S 0.42493 0.77588 0.34352 0.0
N953 N 0.45471 0.77347 0.39498 0.0
N954 N 0.44035 0.77588 0.26952 0.0
C955 C 0.47138 0.77429 0.28412 0.0
C956 C 0.47913 0.77308 0.35252 0.0
C957 C 0.2375 0.52864 0.24643 0.0
C958 C 0.23649 0.4971 0.22711 0.0
C959 C 0.2379 0.53701 0.31324 0.0
C960 C 0.23731 0.5143 0.36379 0.0
H961 H 0.24148 0.54673 0.21019 0.0
H962 H 0.24175 0.56141 0.32545 0.0
S963 S 0.23061 0.42872 0.339 0.0
N964 N 0.23142 0.44325 0.26415 0.0
N965 N 0.23235 0.45909 0.38885 0.0
C966 C 0.23315 0.483 0.34505 0.0
C967 C 0.23274 0.47444 0.27704 0.0
loop_
_geom_bond_atom_site_label_1
_geom_bond_atom_site_label_2
_geom_bond_distance
_geom_bond_site_symmetry_2
_ccdc_geom_bond_type
C0 C1 1.351 . S
C0 N3 1.368 . S
C0 H5 0.931 . S
C1 C0 1.351 . S
C1 N2 1.373 1_556 S
C1 H29 0.930 . S
N2 C1 1.373 1_554 S
N2 C4 1.340 . S
N3 C0 1.368 . S
N3 C4 1.321 1_556 S
N3 Co6 2.135 1_556 S
C4 N2 1.340 . S
C4 N3 1.321 1_554 S
C4 H28 0.930 . S
H5 C0 0.931 . S
Co6 N3 2.135 1_554 S
Co6 N9 2.121 1_455 S
Co6 O14 2.055 1_454 S
Co6 O17 2.039 . S
Co6 N20 2.140 . S
C7 O8 1.227 . S
C7 O17 1.265 . S
O8 C7 1.227 . S
N9 Co6 2.121 1_655 S
N9 C11 1.375 . S
N9 C12 1.313 1_554 S
C10 C11 1.338 . S
C10 N13 1.372 1_554 S
C10 H30 0.930 . S
C11 N9 1.375 . S
C11 C10 1.338 . S
C11 H15 0.931 . S
C12 N9 1.313 1_556 S
C12 N13 1.346 . S
C12 H16 0.930 . S
N13 C10 1.372 1_556 S
N13 C12 1.346 . S
O14 Co6 2.055 1_656 S
O14 C18 1.253 1_655 S
H15 C11 0.931 . S
H16 C12 0.930 . S
O17 Co6 2.039 . S
O17 C7 1.265 . S
C18 O14 1.253 1_455 S
C18 O19 1.227 . S
O19 C18 1.227 . S
N20 Co6 2.140 . S
N20 C23 1.346 . S
N20 C24 1.345 1_554 S
C21 C22 1.387 . S
C21 C25 1.391 1_554 S
C22 C21 1.387 . S
C22 C23 1.369 . S
C22 H31 0.929 . S
C23 N20 1.346 . S
C23 C22 1.369 . S
C23 H26 0.928 . S
C24 N20 1.345 1_556 S
C24 C25 1.371 . S
C24 H27 0.931 . S
C25 C21 1.391 1_556 S
C25 C24 1.371 . S
C25 H32 0.930 . S
H26 C23 0.928 . S
H27 C24 0.931 . S
H28 C4 0.930 . S
H29 C1 0.930 . S
H30 C10 0.930 . S
H31 C22 0.929 . S
H32 C25 0.930 . S
C33 C34 1.351 . S
C33 N36 1.368 . S
C33 H38 0.931 . S
C34 C33 1.351 . S
C34 N35 1.373 1_556 S
C34 H62 0.930 . S
N35 C34 1.373 1_554 S
N35 C37 1.340 . S
N36 C33 1.368 . S
N36 C37 1.321 1_556 S
N36 Co39 2.135 1_556 S
C37 N35 1.340 . S
C37 N36 1.321 1_554 S
C37 H61 0.930 . S
H38 C33 0.931 . S
Co39 N36 2.135 1_554 S
Co39 N42 2.121 1_545 S
Co39 O47 2.055 1_544 S
Co39 O50 2.039 . S
Co39 N53 2.140 . S
C40 O41 1.227 . S
C40 O50 1.265 . S
O41 C40 1.227 . S
N42 Co39 2.121 1_565 S
N42 C44 1.375 . S
N42 C45 1.313 1_554 S
C43 C44 1.338 . S
C43 N46 1.372 1_554 S
C43 H63 0.930 . S
C44 N42 1.375 . S
C44 C43 1.338 . S
C44 H48 0.931 . S
C45 N42 1.313 1_556 S
C45 N46 1.346 . S
C45 H49 0.930 . S
N46 C43 1.372 1_556 S
N46 C45 1.346 . S
O47 Co39 2.055 1_566 S
O47 C51 1.253 1_565 S
H48 C44 0.931 . S
H49 C45 0.930 . S
O50 Co39 2.039 . S
O50 C40 1.265 . S
C51 O47 1.253 1_545 S
C51 O52 1.227 . S
O52 C51 1.227 . S
N53 Co39 2.140 . S
N53 C56 1.346 . S
N53 C57 1.345 1_554 S
C54 C55 1.387 . S
C54 C58 1.391 1_554 S
C55 C54 1.387 . S
C55 C56 1.369 . S
C55 H64 0.929 . S
C56 N53 1.346 . S
C56 C55 1.369 . S
C56 H59 0.928 . S
C57 N53 1.345 1_556 S
C57 C58 1.371 . S
C57 H60 0.931 . S
C58 C54 1.391 1_556 S
C58 C57 1.371 . S
C58 H65 0.930 . S
H59 C56 0.928 . S
H60 C57 0.931 . S
H61 C37 0.930 . S
H62 C34 0.930 . S
H63 C43 0.930 . S
H64 C55 0.929 . S
H65 C58 0.930 . S
C66 C67 1.351 . S
C66 N69 1.368 . S
C66 H71 0.931 . S
C67 C66 1.351 . S
C67 N68 1.373 1_556 S
C67 H95 0.930 . S
N68 C67 1.373 1_554 S
N68 C70 1.340 . S
N69 C66 1.368 . S
N69 C70 1.321 1_556 S
N69 Co72 2.135 1_556 S
C70 N68 1.340 . S
C70 N69 1.321 1_554 S
C70 H94 0.930 . S
H71 C66 0.931 . S
Co72 N69 2.135 1_554 S
Co72 N75 2.121 1_655 S
Co72 O80 2.055 1_654 S
Co72 O83 2.039 . S
Co72 N86 2.140 . S
C73 O74 1.227 . S
C73 O83 1.265 . S
O74 C73 1.227 . S
N75 Co72 2.121 1_455 S
N75 C77 1.375 . S
N75 C78 1.313 1_554 S
C76 C77 1.338 . S
C76 N79 1.372 1_554 S
C76 H96 0.930 . S
C77 N75 1.375 . S
C77 C76 1.338 . S
C77 H81 0.931 . S
C78 N75 1.313 1_556 S
C78 N79 1.346 . S
C78 H82 0.930 . S
N79 C76 1.372 1_556 S
N79 C78 1.346 . S
O80 Co72 2.055 1_456 S
O80 C84 1.253 1_455 S
H81 C77 0.931 . S
H82 C78 0.930 . S
O83 Co72 2.039 . S
O83 C73 1.265 . S
C84 O80 1.253 1_655 S
C84 O85 1.227 . S
O85 C84 1.227 . S
N86 Co72 2.140 . S
N86 C89 1.346 . S
N86 C90 1.345 1_554 S
C87 C88 1.387 . S
C87 C91 1.391 1_554 S
C88 C87 1.387 . S
C88 C89 1.369 . S
C88 H97 0.929 . S
C89 N86 1.346 . S
C89 C88 1.369 . S
C89 H92 0.928 . S
C90 N86 1.345 1_556 S
C90 C91 1.371 . S
C90 H93 0.931 . S
C91 C87 1.391 1_556 S
C91 C90 1.371 . S
C91 H98 0.930 . S
H92 C89 0.928 . S
H93 C90 0.931 . S
H94 C70 0.930 . S
H95 C67 0.930 . S
H96 C76 0.930 . S
H97 C88 0.929 . S
H98 C91 0.930 . S
C99 C100 1.351 . S
C99 N102 1.368 . S
C99 H104 0.931 . S
C100 C99 1.351 . S
C100 N101 1.373 1_556 S
C100 H128 0.930 . S
N101 C100 1.373 1_554 S
N101 C103 1.340 . S
N102 C99 1.368 . S
N102 C103 1.321 1_556 S
N102 Co105 2.135 1_556 S
C103 N101 1.340 . S
C103 N102 1.321 1_554 S
C103 H127 0.930 . S
H104 C99 0.931 . S
Co105 N102 2.135 1_554 S
Co105 N108 2.121 1_565 S
Co105 O113 2.055 1_564 S
Co105 O116 2.039 . S
Co105 N119 2.140 . S
C106 O107 1.227 . S
C106 O116 1.265 . S
O107 C106 1.227 . S
N108 Co105 2.121 1_545 S
N108 C110 1.375 . S
N108 C111 1.313 1_554 S
C109 C110 1.338 . S
C109 N112 1.372 1_554 S
C109 H129 0.930 . S
C110 N108 1.375 . S
C110 C109 1.338 . S
C110 H114 0.931 . S
C111 N108 1.313 1_556 S
C111 N112 1.346 . S
C111 H115 0.930 . S
N112 C109 1.372 1_556 S
N112 C111 1.346 . S
O113 Co105 2.055 1_546 S
O113 C117 1.253 1_545 S
H114 C110 0.931 . S
H115 C111 0.930 . S
O116 Co105 2.039 . S
O116 C106 1.265 . S
C117 O113 1.253 1_565 S
C117 O118 1.227 . S
O118 C117 1.227 . S
N119 Co105 2.140 . S
N119 C122 1.346 . S
N119 C123 1.345 1_554 S
C120 C121 1.387 . S
C120 C124 1.391 1_554 S
C121 C120 1.387 . S
C121 C122 1.369 . S
C121 H130 0.929 . S
C122 N119 1.346 . S
C122 C121 1.369 . S
C122 H125 0.928 . S
C123 N119 1.345 1_556 S
C123 C124 1.371 . S
C123 H126 0.931 . S
C124 C120 1.391 1_556 S
C124 C123 1.371 . S
C124 H131 0.930 . S
H125 C122 0.928 . S
H126 C123 0.931 . S
H127 C103 0.930 . S
H128 C100 0.930 . S
H129 C109 0.930 . S
H130 C121 0.929 . S
H131 C124 0.930 . S
C132 C133 1.351 . S
C132 N135 1.368 . S
C132 H137 0.931 . S
C133 C132 1.351 . S
C133 N134 1.373 . S
C133 H161 0.930 . S
N134 C133 1.373 . S
N134 C136 1.340 . S
N135 C132 1.368 . S
N135 C136 1.321 . S
N135 Co138 2.135 . S
C136 N134 1.340 . S
C136 N135 1.321 . S
C136 H160 0.930 . S
H137 C132 0.931 . S
Co138 N135 2.135 . S
Co138 N141 2.121 1_455 S
Co138 O146 2.055 1_455 S
Co138 O149 2.039 . S
Co138 N152 2.140 . S
C139 O140 1.227 . S
C139 O149 1.265 . S
O140 C139 1.227 . S
N141 Co138 2.121 1_655 S
N141 C143 1.375 . S
N141 C144 1.313 . S
C142 C143 1.338 . S
C142 N145 1.377 . S
C142 H162 0.930 . S
C143 N141 1.375 . S
C143 C142 1.338 . S
C143 H147 0.931 . S
C144 N141 1.313 . S
C144 N145 1.344 . S
C144 H148 0.930 . S
N145 C142 1.377 . S
N145 C144 1.344 . S
O146 Co138 2.055 1_655 S
O146 C150 1.253 1_655 S
H147 C143 0.931 . S
H148 C144 0.930 . S
O149 Co138 2.039 . S
O149 C139 1.265 . S
C150 O146 1.253 1_455 S
C150 O151 1.227 . S
O151 C150 1.227 . S
N152 Co138 2.140 . S
N152 C155 1.346 . S
N152 C156 1.345 . S
C153 C154 1.387 . S
C153 C157 1.391 . S
C154 C153 1.387 . S
C154 C155 1.369 . S
C154 H163 0.929 . S
C155 N152 1.346 . S
C155 C154 1.369 . S
C155 H158 0.928 . S
C156 N152 1.345 . S
C156 C157 1.371 . S
C156 H159 0.931 . S
C157 C153 1.391 . S
C157 C156 1.371 . S
C157 H164 0.930 . S
H158 C155 0.928 . S
H159 C156 0.931 . S
H160 C136 0.930 . S
H161 C133 0.930 . S
H162 C142 0.930 . S
H163 C154 0.929 . S
H164 C157 0.930 . S
C165 C166 1.351 . S
C165 N168 1.368 . S
C165 H170 0.931 . S
C166 C165 1.351 . S
C166 N167 1.373 . S
C166 H194 0.930 . S
N167 C166 1.373 . S
N167 C169 1.340 . S
N168 C165 1.368 . S
N168 C169 1.321 . S
N168 Co171 2.135 . S
C169 N167 1.340 . S
C169 N168 1.321 . S
C169 H193 0.930 . S
H170 C165 0.931 . S
Co171 N168 2.135 . S
Co171 N174 2.121 1_545 S
Co171 O179 2.055 1_545 S
Co171 O182 2.039 . S
Co171 N185 2.140 . S
C172 O173 1.227 . S
C172 O182 1.265 . S
O173 C172 1.227 . S
N174 Co171 2.121 1_565 S
N174 C176 1.375 . S
N174 C177 1.313 . S
C175 C176 1.338 . S
C175 N178 1.377 . S
C175 H195 0.930 . S
C176 N174 1.375 . S
C176 C175 1.338 . S
C176 H180 0.931 . S
C177 N174 1.313 . S
C177 N178 1.344 . S
C177 H181 0.930 . S
N178 C175 1.377 . S
N178 C177 1.344 . S
O179 Co171 2.055 1_565 S
O179 C183 1.253 1_565 S
H180 C176 0.931 . S
H181 C177 0.930 . S
O182 Co171 2.039 . S
O182 C172 1.265 . S
C183 O179 1.253 1_545 S
C183 O184 1.227 . S
O184 C183 1.227 . S
N185 Co171 2.140 . S
N185 C188 1.346 . S
N185 C189 1.345 . S
C186 C187 1.387 . S
C186 C190 1.391 . S
C187 C186 1.387 . S
C187 C188 1.369 . S
C187 H196 0.929 . S
C188 N185 1.346 . S
C188 C187 1.369 . S
C188 H191 0.928 . S
C189 N185 1.345 . S
C189 C190 1.371 . S
C189 H192 0.931 . S
C190 C186 1.391 . S
C190 C189 1.371 . S
C190 H197 0.930 . S
H191 C188 0.928 . S
H192 C189 0.931 . S
H193 C169 0.930 . S
H194 C166 0.930 . S
H195 C175 0.930 . S
H196 C187 0.929 . S
H197 C190 0.930 . S
C198 C199 1.351 . S
C198 N201 1.368 . S
C198 H203 0.931 . S
C199 C198 1.351 . S
C199 N200 1.373 . S
C199 H227 0.930 . S
N200 C199 1.373 . S
N200 C202 1.340 . S
N201 C198 1.368 . S
N201 C202 1.321 . S
N201 Co204 2.135 . S
C202 N200 1.340 . S
C202 N201 1.321 . S
C202 H226 0.930 . S
H203 C198 0.931 . S
Co204 N201 2.135 . S
Co204 N207 2.121 1_655 S
Co204 O212 2.055 1_655 S
Co204 O215 2.039 . S
Co204 N218 2.140 . S
C205 O206 1.227 . S
C205 O215 1.265 . S
O206 C205 1.227 . S
N207 Co204 2.121 1_455 S
N207 C209 1.375 . S
N207 C210 1.313 . S
C208 C209 1.338 . S
C208 N211 1.377 . S
C208 H228 0.930 . S
C209 N207 1.375 . S
C209 C208 1.338 . S
C209 H213 0.931 . S
C210 N207 1.313 . S
C210 N211 1.344 . S
C210 H214 0.930 . S
N211 C208 1.377 . S
N211 C210 1.344 . S
O212 Co204 2.055 1_455 S
O212 C216 1.253 1_455 S
H213 C209 0.931 . S
H214 C210 0.930 . S
O215 Co204 2.039 . S
O215 C205 1.265 . S
C216 O212 1.253 1_655 S
C216 O217 1.227 . S
O217 C216 1.227 . S
N218 Co204 2.140 . S
N218 C221 1.346 . S
N218 C222 1.345 . S
C219 C220 1.387 . S
C219 C223 1.391 . S
C220 C219 1.387 . S
C220 C221 1.369 . S
C220 H229 0.929 . S
C221 N218 1.346 . S
C221 C220 1.369 . S
C221 H224 0.928 . S
C222 N218 1.345 . S
C222 C223 1.371 . S
C222 H225 0.931 . S
C223 C219 1.391 . S
C223 C222 1.371 . S
C223 H230 0.930 . S
H224 C221 0.928 . S
H225 C222 0.931 . S
H226 C202 0.930 . S
H227 C199 0.930 . S
H228 C208 0.930 . S
H229 C220 0.929 . S
H230 C223 0.930 . S
C231 C232 1.351 . S
C231 N234 1.368 . S
C231 H236 0.931 . S
C232 C231 1.351 . S
C232 N233 1.373 . S
C232 H260 0.930 . S
N233 C232 1.373 . S
N233 C235 1.340 . S
N234 C231 1.368 . S
N234 C235 1.321 . S
N234 Co237 2.135 . S
C235 N233 1.340 . S
C235 N234 1.321 . S
C235 H259 0.930 . S
H236 C231 0.931 . S
Co237 N234 2.135 . S
Co237 N240 2.121 1_565 S
Co237 O245 2.055 1_565 S
Co237 O248 2.039 . S
Co237 N251 2.140 . S
C238 O239 1.227 . S
C238 O248 1.265 . S
O239 C238 1.227 . S
N240 Co237 2.121 1_545 S
N240 C242 1.375 . S
N240 C243 1.313 . S
C241 C242 1.338 . S
C241 N244 1.377 . S
C241 H261 0.930 . S
C242 N240 1.375 . S
C242 C241 1.338 . S
C242 H246 0.931 . S
C243 N240 1.313 . S
C243 N244 1.344 . S
C243 H247 0.930 . S
N244 C241 1.377 . S
N244 C243 1.344 . S
O245 Co237 2.055 1_545 S
O245 C249 1.253 1_545 S
H246 C242 0.931 . S
H247 C243 0.930 . S
O248 Co237 2.039 . S
O248 C238 1.265 . S
C249 O245 1.253 1_565 S
C249 O250 1.227 . S
O250 C249 1.227 . S
N251 Co237 2.140 . S
N251 C254 1.346 . S
N251 C255 1.345 . S
C252 C253 1.387 . S
C252 C256 1.391 . S
C253 C252 1.387 . S
C253 C254 1.369 . S
C253 H262 0.929 . S
C254 N251 1.346 . S
C254 C253 1.369 . S
C254 H257 0.928 . S
C255 N251 1.345 . S
C255 C256 1.371 . S
C255 H258 0.931 . S
C256 C252 1.391 . S
C256 C255 1.371 . S
C256 H263 0.930 . S
H257 C254 0.928 . S
H258 C255 0.931 . S
H259 C235 0.930 . S
H260 C232 0.930 . S
H261 C241 0.930 . S
H262 C253 0.929 . S
H263 C256 0.930 . S
C264 C265 1.351 . S
C264 N267 1.368 . S
C264 H269 0.931 . S
C265 C264 1.351 . S
C265 N266 1.373 . S
C265 H293 0.930 . S
N266 C265 1.373 . S
N266 C268 1.340 . S
N267 C264 1.368 . S
N267 C268 1.321 . S
N267 Co270 2.135 . S
C268 N266 1.340 . S
C268 N267 1.321 . S
C268 H292 0.930 . S
H269 C264 0.931 . S
Co270 N267 2.135 . S
Co270 N273 2.121 . S
Co270 O278 2.055 . S
Co270 O281 2.039 . S
Co270 N284 2.140 . S
C271 O272 1.227 . S
C271 O281 1.265 . S
O272 C271 1.227 . S
N273 Co270 2.121 . S
N273 C275 1.375 . S
N273 C276 1.313 . S
C274 C275 1.338 . S
C274 N277 1.377 . S
C274 H294 0.930 . S
C275 N273 1.375 . S
C275 C274 1.338 . S
C275 H279 0.931 . S
C276 N273 1.313 . S
C276 N277 1.344 . S
C276 H280 0.930 . S
N277 C274 1.377 . S
N277 C276 1.344 . S
O278 Co270 2.055 . S
O278 C282 1.253 . S
H279 C275 0.931 . S
H280 C276 0.930 . S
O281 Co270 2.039 . S
O281 C271 1.265 . S
C282 O278 1.253 . S
C282 O283 1.227 . S
O283 C282 1.227 . S
N284 Co270 2.140 . S
N284 C287 1.346 . S
N284 C288 1.345 . S
C285 C286 1.387 . S
C285 C289 1.391 . S
C286 C285 1.387 . S
C286 C287 1.369 . S
C286 H295 0.929 . S
C287 N284 1.346 . S
C287 C286 1.369 . S
C287 H290 0.928 . S
C288 N284 1.345 . S
C288 C289 1.371 . S
C288 H291 0.931 . S
C289 C285 1.391 . S
C289 C288 1.371 . S
C289 H296 0.930 . S
H290 C287 0.928 . S
H291 C288 0.931 . S
H292 C268 0.930 . S
H293 C265 0.930 . S
H294 C274 0.930 . S
H295 C286 0.929 . S
H296 C289 0.930 . S
C297 C298 1.351 . S
C297 N300 1.368 . S
C297 H302 0.931 . S
C298 C297 1.351 . S
C298 N299 1.373 . S
C298 H326 0.930 . S
N299 C298 1.373 . S
N299 C301 1.340 . S
N300 C297 1.368 . S
N300 C301 1.321 . S
N300 Co303 2.135 . S
C301 N299 1.340 . S
C301 N300 1.321 . S
C301 H325 0.930 . S
H302 C297 0.931 . S
Co303 N300 2.135 . S
Co303 N306 2.121 . S
Co303 O311 2.055 . S
Co303 O314 2.039 . S
Co303 N317 2.140 . S
C304 O305 1.227 . S
C304 O314 1.265 . S
O305 C304 1.227 . S
N306 Co303 2.121 . S
N306 C308 1.375 . S
N306 C309 1.313 . S
C307 C308 1.338 . S
C307 N310 1.377 . S
C307 H327 0.930 . S
C308 N306 1.375 . S
C308 C307 1.338 . S
C308 H312 0.931 . S
C309 N306 1.313 . S
C309 N310 1.344 . S
C309 H313 0.930 . S
N310 C307 1.377 . S
N310 C309 1.344 . S
O311 Co303 2.055 . S
O311 C315 1.253 . S
H312 C308 0.931 . S
H313 C309 0.930 . S
O314 Co303 2.039 . S
O314 C304 1.265 . S
C315 O311 1.253 . S
C315 O316 1.227 . S
O316 C315 1.227 . S
N317 Co303 2.140 . S
N317 C320 1.346 . S
N317 C321 1.345 . S
C318 C319 1.387 . S
C318 C322 1.391 . S
C319 C318 1.387 . S
C319 C320 1.369 . S
C319 H328 0.929 . S
C320 N317 1.346 . S
C320 C319 1.369 . S
C320 H323 0.928 . S
C321 N317 1.345 . S
C321 C322 1.371 . S
C321 H324 0.931 . S
C322 C318 1.391 . S
C322 C321 1.371 . S
C322 H329 0.930 . S
H323 C320 0.928 . S
H324 C321 0.931 . S
H325 C301 0.930 . S
H326 C298 0.930 . S
H327 C307 0.930 . S
H328 C319 0.929 . S
H329 C322 0.930 . S
C330 C331 1.351 . S
C330 N333 1.368 . S
C330 H335 0.931 . S
C331 C330 1.351 . S
C331 N332 1.373 . S
C331 H359 0.930 . S
N332 C331 1.373 . S
N332 C334 1.340 . S
N333 C330 1.368 . S
N333 C334 1.321 . S
N333 Co336 2.135 . S
C334 N332 1.340 . S
C334 N333 1.321 . S
C334 H358 0.930 . S
H335 C330 0.931 . S
Co336 N333 2.135 . S
Co336 N339 2.121 . S
Co336 O344 2.055 . S
Co336 O347 2.039 . S
Co336 N350 2.140 . S
C337 O338 1.227 . S
C337 O347 1.265 . S
O338 C337 1.227 . S
N339 Co336 2.121 . S
N339 C341 1.375 . S
N339 C342 1.313 . S
C340 C341 1.338 . S
C340 N343 1.377 . S
C340 H360 0.930 . S
C341 N339 1.375 . S
C341 C340 1.338 . S
C341 H345 0.931 . S
C342 N339 1.313 . S
C342 N343 1.344 . S
C342 H346 0.930 . S
N343 C340 1.377 . S
N343 C342 1.344 . S
O344 Co336 2.055 . S
O344 C348 1.253 . S
H345 C341 0.931 . S
H346 C342 0.930 . S
O347 Co336 2.039 . S
O347 C337 1.265 . S
C348 O344 1.253 . S
C348 O349 1.227 . S
O349 C348 1.227 . S
N350 Co336 2.140 . S
N350 C353 1.346 . S
N350 C354 1.345 . S
C351 C352 1.387 . S
C351 C355 1.391 . S
C352 C351 1.387 . S
C352 C353 1.369 . S
C352 H361 0.929 . S
C353 N350 1.346 . S
C353 C352 1.369 . S
C353 H356 0.928 . S
C354 N350 1.345 . S
C354 C355 1.371 . S
C354 H357 0.931 . S
C355 C351 1.391 . S
C355 C354 1.371 . S
C355 H362 0.930 . S
H356 C353 0.928 . S
H357 C354 0.931 . S
H358 C334 0.930 . S
H359 C331 0.930 . S
H360 C340 0.930 . S
H361 C352 0.929 . S
H362 C355 0.930 . S
C363 C364 1.351 . S
C363 N366 1.368 . S
C363 H368 0.931 . S
C364 C363 1.351 . S
C364 N365 1.373 . S
C364 H392 0.930 . S
N365 C364 1.373 . S
N365 C367 1.340 . S
N366 C363 1.368 . S
N366 C367 1.321 . S
N366 Co369 2.135 . S
C367 N365 1.340 . S
C367 N366 1.321 . S
C367 H391 0.930 . S
H368 C363 0.931 . S
Co369 N366 2.135 . S
Co369 N372 2.121 . S
Co369 O377 2.055 . S
Co369 O380 2.039 . S
Co369 N383 2.140 . S
C370 O371 1.227 . S
C370 O380 1.265 . S
O371 C370 1.227 . S
N372 Co369 2.121 . S
N372 C374 1.375 . S
N372 C375 1.313 . S
C373 C374 1.338 . S
C373 N376 1.377 . S
C373 H393 0.930 . S
C374 N372 1.375 . S
C374 C373 1.338 . S
C374 H378 0.931 . S
C375 N372 1.313 . S
C375 N376 1.344 . S
C375 H379 0.930 . S
N376 C373 1.377 . S
N376 C375 1.344 . S
O377 Co369 2.055 . S
O377 C381 1.253 . S
H378 C374 0.931 . S
H379 C375 0.930 . S
O380 Co369 2.039 . S
O380 C370 1.265 . S
C381 O377 1.253 . S
C381 O382 1.227 . S
O382 C381 1.227 . S
N383 Co369 2.140 . S
N383 C386 1.346 . S
N383 C387 1.345 . S
C384 C385 1.387 . S
C384 C388 1.391 . S
C385 C384 1.387 . S
C385 C386 1.369 . S
C385 H394 0.929 . S
C386 N383 1.346 . S
C386 C385 1.369 . S
C386 H389 0.928 . S
C387 N383 1.345 . S
C387 C388 1.371 . S
C387 H390 0.931 . S
C388 C384 1.391 . S
C388 C387 1.371 . S
C388 H395 0.930 . S
H389 C386 0.928 . S
H390 C387 0.931 . S
H391 C367 0.930 . S
H392 C364 0.930 . S
H393 C373 0.930 . S
H394 C385 0.929 . S
H395 C388 0.930 . S
C396 C397 1.351 . S
C396 N399 1.368 . S
C396 H401 0.931 . S
C397 C396 1.351 . S
C397 N398 1.373 . S
C397 H425 0.930 . S
N398 C397 1.373 . S
N398 C400 1.340 . S
N399 C396 1.368 . S
N399 C400 1.321 . S
N399 Co402 2.135 . S
C400 N398 1.340 . S
C400 N399 1.321 . S
C400 H424 0.930 1_554 S
H401 C396 0.931 . S
Co402 N399 2.135 . S
Co402 N405 2.121 . S
Co402 O410 2.055 . S
Co402 O413 2.039 1_554 S
Co402 N416 2.140 . S
C403 O404 1.227 . S
C403 O413 1.265 . S
O404 C403 1.227 . S
N405 Co402 2.121 . S
N405 C407 1.375 1_554 S
N405 C408 1.313 . S
C406 C407 1.338 . S
C406 N409 1.377 1_556 S
C406 H426 0.930 . S
C407 N405 1.375 1_556 S
C407 C406 1.338 . S
C407 H411 0.931 . S
C408 N405 1.313 . S
C408 N409 1.344 . S
C408 H412 0.930 . S
N409 C406 1.377 1_554 S
N409 C408 1.344 . S
O410 Co402 2.055 . S
O410 C414 1.253 . S
H411 C407 0.931 . S
H412 C408 0.930 . S
O413 Co402 2.039 1_556 S
O413 C403 1.265 . S
C414 O410 1.253 . S
C414 O415 1.227 . S
O415 C414 1.227 . S
N416 Co402 2.140 . S
N416 C419 1.346 1_554 S
N416 C420 1.345 . S
C417 C418 1.387 1_554 S
C417 C421 1.391 . S
C418 C417 1.387 1_556 S
C418 C419 1.369 . S
C418 H427 0.929 . S
C419 N416 1.346 1_556 S
C419 C418 1.369 . S
C419 H422 0.928 . S
C420 N416 1.345 . S
C420 C421 1.371 . S
C420 H423 0.931 . S
C421 C417 1.391 . S
C421 C420 1.371 . S
C421 H428 0.930 . S
H422 C419 0.928 . S
H423 C420 0.931 . S
H424 C400 0.930 1_556 S
H425 C397 0.930 . S
H426 C406 0.930 . S
H427 C418 0.929 . S
H428 C421 0.930 . S
C429 C430 1.351 . S
C429 N432 1.368 . S
C429 H434 0.931 . S
C430 C429 1.351 . S
C430 N431 1.373 . S
C430 H458 0.930 . S
N431 C430 1.373 . S
N431 C433 1.340 . S
N432 C429 1.368 . S
N432 C433 1.321 . S
N432 Co435 2.135 . S
C433 N431 1.340 . S
C433 N432 1.321 . S
C433 H457 0.930 1_554 S
H434 C429 0.931 . S
Co435 N432 2.135 . S
Co435 N438 2.121 . S
Co435 O443 2.055 . S
Co435 O446 2.039 1_554 S
Co435 N449 2.140 . S
C436 O437 1.227 . S
C436 O446 1.265 . S
O437 C436 1.227 . S
N438 Co435 2.121 . S
N438 C440 1.375 1_554 S
N438 C441 1.313 . S
C439 C440 1.338 . S
C439 N442 1.377 1_556 S
C439 H459 0.930 . S
C440 N438 1.375 1_556 S
C440 C439 1.338 . S
C440 H444 0.931 . S
C441 N438 1.313 . S
C441 N442 1.344 . S
C441 H445 0.930 . S
N442 C439 1.377 1_554 S
N442 C441 1.344 . S
O443 Co435 2.055 . S
O443 C447 1.253 . S
H444 C440 0.931 . S
H445 C441 0.930 . S
O446 Co435 2.039 1_556 S
O446 C436 1.265 . S
C447 O443 1.253 . S
C447 O448 1.227 . S
O448 C447 1.227 . S
N449 Co435 2.140 . S
N449 C452 1.346 1_554 S
N449 C453 1.345 . S
C450 C451 1.387 1_554 S
C450 C454 1.391 . S
C451 C450 1.387 1_556 S
C451 C452 1.369 . S
C451 H460 0.929 . S
C452 N449 1.346 1_556 S
C452 C451 1.369 . S
C452 H455 0.928 . S
C453 N449 1.345 . S
C453 C454 1.371 . S
C453 H456 0.931 . S
C454 C450 1.391 . S
C454 C453 1.371 . S
C454 H461 0.930 . S
H455 C452 0.928 . S
H456 C453 0.931 . S
H457 C433 0.930 1_556 S
H458 C430 0.930 . S
H459 C439 0.930 . S
H460 C451 0.929 . S
H461 C454 0.930 . S
C462 C463 1.351 . S
C462 N465 1.368 . S
C462 H467 0.931 . S
C463 C462 1.351 . S
C463 N464 1.373 . S
C463 H491 0.930 . S
N464 C463 1.373 . S
N464 C466 1.340 . S
N465 C462 1.368 . S
N465 C466 1.321 . S
N465 Co468 2.135 . S
C466 N464 1.340 . S
C466 N465 1.321 . S
C466 H490 0.930 1_554 S
H467 C462 0.931 . S
Co468 N465 2.135 . S
Co468 N471 2.121 . S
Co468 O476 2.055 . S
Co468 O479 2.039 1_554 S
Co468 N482 2.140 . S
C469 O470 1.227 . S
C469 O479 1.265 . S
O470 C469 1.227 . S
N471 Co468 2.121 . S
N471 C473 1.375 1_554 S
N471 C474 1.313 . S
C472 C473 1.338 . S
C472 N475 1.377 1_556 S
C472 H492 0.930 . S
C473 N471 1.375 1_556 S
C473 C472 1.338 . S
C473 H477 0.931 . S
C474 N471 1.313 . S
C474 N475 1.344 . S
C474 H478 0.930 . S
N475 C472 1.377 1_554 S
N475 C474 1.344 . S
O476 Co468 2.055 . S
O476 C480 1.253 . S
H477 C473 0.931 . S
H478 C474 0.930 . S
O479 Co468 2.039 1_556 S
O479 C469 1.265 . S
C480 O476 1.253 . S
C480 O481 1.227 . S
O481 C480 1.227 . S
N482 Co468 2.140 . S
N482 C485 1.346 1_554 S
N482 C486 1.345 . S
C483 C484 1.387 1_554 S
C483 C487 1.391 . S
C484 C483 1.387 1_556 S
C484 C485 1.369 . S
C484 H493 0.929 . S
C485 N482 1.346 1_556 S
C485 C484 1.369 . S
C485 H488 0.928 . S
C486 N482 1.345 . S
C486 C487 1.371 . S
C486 H489 0.931 . S
C487 C483 1.391 . S
C487 C486 1.371 . S
C487 H494 0.930 . S
H488 C485 0.928 . S
H489 C486 0.931 . S
H490 C466 0.930 1_556 S
H491 C463 0.930 . S
H492 C472 0.930 . S
H493 C484 0.929 . S
H494 C487 0.930 . S
C495 C496 1.351 . S
C495 N498 1.368 . S
C495 H500 0.931 . S
C496 C495 1.351 . S
C496 N497 1.373 . S
C496 H524 0.930 . S
N497 C496 1.373 . S
N497 C499 1.340 . S
N498 C495 1.368 . S
N498 C499 1.321 . S
N498 Co501 2.135 . S
C499 N497 1.340 . S
C499 N498 1.321 . S
C499 H523 0.930 1_554 S
H500 C495 0.931 . S
Co501 N498 2.135 . S
Co501 N504 2.121 . S
Co501 O509 2.055 . S
Co501 O512 2.039 1_554 S
Co501 N515 2.140 . S
C502 O503 1.227 . S
C502 O512 1.265 . S
O503 C502 1.227 . S
N504 Co501 2.121 . S
N504 C506 1.375 1_554 S
N504 C507 1.313 . S
C505 C506 1.338 . S
C505 N508 1.377 1_556 S
C505 H525 0.930 . S
C506 N504 1.375 1_556 S
C506 C505 1.338 . S
C506 H510 0.931 . S
C507 N504 1.313 . S
C507 N508 1.344 . S
C507 H511 0.930 . S
N508 C505 1.377 1_554 S
N508 C507 1.344 . S
O509 Co501 2.055 . S
O509 C513 1.253 . S
H510 C506 0.931 . S
H511 C507 0.930 . S
O512 Co501 2.039 1_556 S
O512 C502 1.265 . S
C513 O509 1.253 . S
C513 O514 1.227 . S
O514 C513 1.227 . S
N515 Co501 2.140 . S
N515 C518 1.346 1_554 S
N515 C519 1.345 . S
C516 C517 1.387 1_554 S
C516 C520 1.391 . S
C517 C516 1.387 1_556 S
C517 C518 1.369 . S
C517 H526 0.929 . S
C518 N515 1.346 1_556 S
C518 C517 1.369 . S
C518 H521 0.928 . S
C519 N515 1.345 . S
C519 C520 1.371 . S
C519 H522 0.931 . S
C520 C516 1.391 . S
C520 C519 1.371 . S
C520 H527 0.930 . S
H521 C518 0.928 . S
H522 C519 0.931 . S
H523 C499 0.930 1_556 S
H524 C496 0.930 . S
H525 C505 0.930 . S
H526 C517 0.929 . S
H527 C520 0.930 . S
C528 C529 1.369 . S
C528 C530 1.419 . S
C528 H532 0.930 . S
C529 C528 1.369 . S
C529 C538 1.429 . S
C530 C528 1.419 . S
C530 C531 1.363 . S
C530 H533 0.929 . S
C531 C530 1.363 . S
C531 C537 1.428 . S
H532 C528 0.930 . S
H533 C530 0.929 . S
S534 N535 1.616 . S
S534 N536 1.610 . S
N535 S534 1.616 . S
N535 C538 1.347 1_556 S
N536 S534 1.610 . S
N536 C537 1.351 1_556 S
C537 C531 1.428 . S
C537 N536 1.351 1_554 S
C537 C538 1.434 . S
C538 C529 1.429 . S
C538 N535 1.347 1_554 S
C538 C537 1.434 . S
C539 C540 1.369 . S
C539 C541 1.419 . S
C539 H543 0.930 . S
C540 C539 1.369 . S
C540 C549 1.429 1_554 S
C541 C539 1.419 . S
C541 C542 1.363 . S
C541 H544 0.929 . S
C542 C541 1.363 . S
C542 C548 1.428 1_554 S
H543 C539 0.930 . S
H544 C541 0.929 . S
S545 N546 1.613 . S
S545 N547 1.610 . S
N546 S545 1.613 . S
N546 C549 1.350 . S
N547 S545 1.610 . S
N547 C548 1.351 . S
C548 C542 1.428 1_556 S
C548 N547 1.351 . S
C548 C549 1.434 . S
C549 C540 1.429 1_556 S
C549 N546 1.350 . S
C549 C548 1.434 . S
C550 C551 1.369 . S
C550 C552 1.419 . S
C550 H554 0.930 . S
C551 C550 1.369 . S
C551 C560 1.429 . S
C552 C550 1.419 . S
C552 C553 1.363 . S
C552 H555 0.929 . S
C553 C552 1.363 . S
C553 C559 1.428 . S
H554 C550 0.930 . S
H555 C552 0.929 . S
S556 N557 1.613 . S
S556 N558 1.610 . S
N557 S556 1.613 . S
N557 C560 1.350 1_556 S
N558 S556 1.610 . S
N558 C559 1.351 1_556 S
C559 C553 1.428 . S
C559 N558 1.351 1_554 S
C559 C560 1.434 . S
C560 C551 1.429 . S
C560 N557 1.350 1_554 S
C560 C559 1.434 . S
C561 C562 1.369 1_556 S
C561 C563 1.419 . S
C561 H565 0.930 . S
C562 C561 1.369 1_554 S
C562 C571 1.429 . S
C563 C561 1.419 . S
C563 C564 1.363 1_556 S
C563 H566 0.929 . S
C564 C563 1.363 1_554 S
C564 C570 1.428 . S
H565 C561 0.930 . S
H566 C563 0.929 . S
S567 N568 1.613 . S
S567 N569 1.610 . S
N568 S567 1.613 . S
N568 C571 1.350 . S
N569 S567 1.610 . S
N569 C570 1.351 . S
C570 C564 1.428 . S
C570 N569 1.351 . S
C570 C571 1.434 . S
C571 C562 1.429 . S
C571 N568 1.350 . S
C571 C570 1.434 . S
C572 C573 1.369 . S
C572 C574 1.419 . S
C572 H576 0.930 . S
C573 C572 1.369 . S
C573 C582 1.429 . S
C574 C572 1.419 . S
C574 C575 1.363 . S
C574 H577 0.929 . S
C575 C574 1.363 . S
C575 C581 1.428 . S
H576 C572 0.930 . S
H577 C574 0.929 . S
S578 N579 1.613 . S
S578 N580 1.610 . S
N579 S578 1.613 . S
N579 C582 1.350 . S
N580 S578 1.610 . S
N580 C581 1.351 . S
C581 C575 1.428 . S
C581 N580 1.351 . S
C581 C582 1.434 . S
C582 C573 1.429 . S
C582 N579 1.350 . S
C582 C581 1.434 . S
C583 C584 1.369 . S
C583 C585 1.419 . S
C583 H587 0.930 . S
C584 C583 1.369 . S
C584 C593 1.429 . S
C585 C583 1.419 . S
C585 C586 1.363 . S
C585 H588 0.929 . S
C586 C585 1.363 . S
C586 C592 1.428 . S
H587 C583 0.930 . S
H588 C585 0.929 . S
S589 N590 1.613 . S
S589 N591 1.610 . S
N590 S589 1.613 . S
N590 C593 1.350 . S
N591 S589 1.610 . S
N591 C592 1.351 . S
C592 C586 1.428 . S
C592 N591 1.351 . S
C592 C593 1.434 . S
C593 C584 1.429 . S
C593 N590 1.350 . S
C593 C592 1.434 . S
C594 C595 1.369 . S
C594 C596 1.419 . S
C594 H598 0.930 . S
C595 C594 1.369 . S
C595 C604 1.429 . S
C596 C594 1.419 . S
C596 C597 1.363 . S
C596 H599 0.929 . S
C597 C596 1.363 . S
C597 C603 1.428 . S
H598 C594 0.930 . S
H599 C596 0.929 . S
S600 N601 1.613 . S
S600 N602 1.610 . S
N601 S600 1.613 . S
N601 C604 1.350 . S
N602 S600 1.610 . S
N602 C603 1.351 . S
C603 C597 1.428 . S
C603 N602 1.351 . S
C603 C604 1.434 . S
C604 C595 1.429 . S
C604 N601 1.350 . S
C604 C603 1.434 . S
C605 C606 1.369 . S
C605 C607 1.419 . S
C605 H609 0.930 . S
C606 C605 1.369 . S
C606 C615 1.429 . S
C607 C605 1.419 . S
C607 C608 1.363 . S
C607 H610 0.929 . S
C608 C607 1.363 . S
C608 C614 1.428 . S
H609 C605 0.930 . S
H610 C607 0.929 . S
S611 N612 1.613 . S
S611 N613 1.610 . S
N612 S611 1.613 . S
N612 C615 1.350 . S
N613 S611 1.610 . S
N613 C614 1.351 . S
C614 C608 1.428 . S
C614 N613 1.351 . S
C614 C615 1.434 . S
C615 C606 1.429 . S
C615 N612 1.350 . S
C615 C614 1.434 . S
C616 C617 1.369 1_554 S
C616 C618 1.419 . S
C616 H620 0.930 . S
C617 C616 1.369 1_556 S
C617 C626 1.429 . S
C618 C616 1.419 . S
C618 C619 1.363 . S
C618 H621 0.929 . S
C619 C618 1.363 . S
C619 C625 1.428 1_554 S
H620 C616 0.930 . S
H621 C618 0.929 . S
S622 N623 1.613 . S
S622 N624 1.610 . S
N623 S622 1.613 . S
N623 C626 1.350 . S
N624 S622 1.610 . S
N624 C625 1.351 . S
C625 C619 1.428 1_556 S
C625 N624 1.351 . S
C625 C626 1.434 . S
C626 C617 1.429 . S
C626 N623 1.350 . S
C626 C625 1.434 . S
C627 C628 1.369 . S
C627 C629 1.419 . S
C627 H631 0.930 . S
C628 C627 1.369 . S
C628 C637 1.429 1_556 S
C629 C627 1.419 . S
C629 C630 1.363 1_556 S
C629 H632 0.929 . S
C630 C629 1.363 1_554 S
C630 C636 1.428 . S
H631 C627 0.930 . S
H632 C629 0.929 . S
S633 N634 1.613 . S
S633 N635 1.610 . S
N634 S633 1.613 . S
N634 C637 1.350 . S
N635 S633 1.610 . S
N635 C636 1.351 . S
C636 C630 1.428 . S
C636 N635 1.351 . S
C636 C637 1.434 . S
C637 C628 1.429 1_554 S
C637 N634 1.350 . S
C637 C636 1.434 . S
C638 C639 1.369 1_556 S
C638 C640 1.419 . S
C638 H642 0.930 . S
C639 C638 1.369 1_554 S
C639 C648 1.429 . S
C640 C638 1.419 . S
C640 C641 1.363 . S
C640 H643 0.929 . S
C641 C640 1.363 . S
C641 C647 1.431 . S
H642 C638 0.930 . S
H643 C640 0.929 . S
S644 N645 1.613 . S
S644 N646 1.610 . S
N645 S644 1.613 . S
N645 C648 1.350 . S
N646 S644 1.610 . S
N646 C647 1.350 1_554 S
C647 C641 1.431 . S
C647 N646 1.350 1_556 S
C647 C648 1.432 1_556 S
C648 C639 1.429 . S
C648 N645 1.350 . S
C648 C647 1.432 1_554 S
C649 C650 1.369 . S
C649 C651 1.419 . S
C649 H653 0.930 . S
C650 C649 1.369 . S
C650 C659 1.429 1_554 S
C651 C649 1.419 . S
C651 C652 1.363 1_554 S
C651 H654 0.929 . S
C652 C651 1.363 1_556 S
C652 C658 1.428 . S
H653 C649 0.930 . S
H654 C651 0.929 . S
S655 N656 1.613 . S
S655 N657 1.610 . S
N656 S655 1.613 . S
N656 C659 1.350 . S
N657 S655 1.610 . S
N657 C658 1.351 . S
C658 C652 1.428 . S
C658 N657 1.351 . S
C658 C659 1.434 . S
C659 C650 1.429 1_556 S
C659 N656 1.350 . S
C659 C658 1.434 . S
C660 C661 1.369 . S
C660 C662 1.419 . S
C660 H664 0.930 . S
C661 C660 1.369 . S
C661 C670 1.429 . S
C662 C660 1.419 . S
C662 C663 1.363 . S
C662 H665 0.929 . S
C663 C662 1.363 . S
C663 C669 1.428 . S
H664 C660 0.930 . S
H665 C662 0.929 . S
S666 N667 1.613 . S
S666 N668 1.610 . S
N667 S666 1.613 . S
N667 C670 1.350 . S
N668 S666 1.610 . S
N668 C669 1.351 . S
C669 C663 1.428 . S
C669 N668 1.351 . S
C669 C670 1.434 . S
C670 C661 1.429 . S
C670 N667 1.350 . S
C670 C669 1.434 . S
C671 C672 1.369 . S
C671 C673 1.419 . S
C671 H675 0.930 . S
C672 C671 1.369 . S
C672 C681 1.429 . S
C673 C671 1.419 . S
C673 C674 1.363 . S
C673 H676 0.929 . S
C674 C673 1.363 . S
C674 C680 1.428 . S
H675 C671 0.930 . S
H676 C673 0.929 . S
S677 N678 1.613 . S
S677 N679 1.610 . S
N678 S677 1.613 . S
N678 C681 1.350 . S
N679 S677 1.610 . S
N679 C680 1.351 . S
C680 C674 1.428 . S
C680 N679 1.351 . S
C680 C681 1.434 . S
C681 C672 1.429 . S
C681 N678 1.350 . S
C681 C680 1.434 . S
C682 C683 1.369 . S
C682 C684 1.419 . S
C682 H686 0.930 . S
C683 C682 1.369 . S
C683 C692 1.429 . S
C684 C682 1.419 . S
C684 C685 1.363 . S
C684 H687 0.929 . S
C685 C684 1.363 . S
C685 C691 1.428 . S
H686 C682 0.930 . S
H687 C684 0.929 . S
S688 N689 1.613 . S
S688 N690 1.610 . S
N689 S688 1.613 . S
N689 C692 1.350 . S
N690 S688 1.610 . S
N690 C691 1.351 . S
C691 C685 1.428 . S
C691 N690 1.351 . S
C691 C692 1.434 . S
C692 C683 1.429 . S
C692 N689 1.350 . S
C692 C691 1.434 . S
C693 C694 1.369 . S
C693 C695 1.419 . S
C693 H697 0.930 . S
C694 C693 1.369 . S
C694 C703 1.429 . S
C695 C693 1.419 . S
C695 C696 1.363 . S
C695 H698 0.929 . S
C696 C695 1.363 . S
C696 C702 1.428 . S
H697 C693 0.930 . S
H698 C695 0.929 . S
S699 N700 1.613 . S
S699 N701 1.610 . S
N700 S699 1.613 . S
N700 C703 1.350 . S
N701 S699 1.610 . S
N701 C702 1.351 . S
C702 C696 1.428 . S
C702 N701 1.351 . S
C702 C703 1.434 . S
C703 C694 1.429 . S
C703 N700 1.350 . S
C703 C702 1.434 . S
C704 C705 1.369 . S
C704 C706 1.419 . S
C704 H708 0.930 . S
C705 C704 1.369 . S
C705 C714 1.429 . S
C706 C704 1.419 . S
C706 C707 1.363 . S
C706 H709 0.929 . S
C707 C706 1.363 . S
C707 C713 1.428 . S
H708 C704 0.930 . S
H709 C706 0.929 . S
S710 N711 1.613 . S
S710 N712 1.610 . S
N711 S710 1.613 . S
N711 C714 1.350 . S
N712 S710 1.610 . S
N712 C713 1.351 . S
C713 C707 1.428 . S
C713 N712 1.351 . S
C713 C714 1.434 . S
C714 C705 1.429 . S
C714 N711 1.350 . S
C714 C713 1.434 . S
C715 C716 1.369 . S
C715 C717 1.419 . S
C715 H719 0.930 . S
C716 C715 1.369 . S
C716 C725 1.429 . S
C717 C715 1.419 . S
C717 C718 1.363 . S
C717 H720 0.929 . S
C718 C717 1.363 . S
C718 C724 1.428 . S
H719 C715 0.930 . S
H720 C717 0.929 . S
S721 N722 1.613 . S
S721 N723 1.610 . S
N722 S721 1.613 . S
N722 C725 1.350 . S
N723 S721 1.610 . S
N723 C724 1.351 . S
C724 C718 1.428 . S
C724 N723 1.351 . S
C724 C725 1.434 . S
C725 C716 1.429 . S
C725 N722 1.350 . S
C725 C724 1.434 . S
C726 C727 1.369 . S
C726 C728 1.419 . S
C726 H730 0.930 . S
C727 C726 1.369 . S
C727 C736 1.429 . S
C728 C726 1.419 . S
C728 C729 1.363 . S
C728 H731 0.929 . S
C729 C728 1.363 . S
C729 C735 1.428 . S
H730 C726 0.930 . S
H731 C728 0.929 . S
S732 N733 1.613 . S
S732 N734 1.610 . S
N733 S732 1.613 . S
N733 C736 1.350 . S
N734 S732 1.610 . S
N734 C735 1.351 . S
C735 C729 1.428 . S
C735 N734 1.351 . S
C735 C736 1.434 . S
C736 C727 1.429 . S
C736 N733 1.350 . S
C736 C735 1.434 . S
C737 C738 1.369 . S
C737 C739 1.419 . S
C737 H741 0.930 . S
C738 C737 1.369 . S
C738 C747 1.429 . S
C739 C737 1.419 . S
C739 C740 1.363 . S
C739 H742 0.929 . S
C740 C739 1.363 . S
C740 C746 1.428 . S
H741 C737 0.930 . S
H742 C739 0.929 . S
S743 N744 1.613 . S
S743 N745 1.610 . S
N744 S743 1.613 . S
N744 C747 1.350 . S
N745 S743 1.610 . S
N745 C746 1.351 . S
C746 C740 1.428 . S
C746 N745 1.351 . S
C746 C747 1.434 . S
C747 C738 1.429 . S
C747 N744 1.350 . S
C747 C746 1.434 . S
C748 C749 1.369 . S
C748 C750 1.419 . S
C748 H752 0.930 . S
C749 C748 1.369 . S
C749 C758 1.429 . S
C750 C748 1.419 . S
C750 C751 1.363 . S
C750 H753 0.929 . S
C751 C750 1.363 . S
C751 C757 1.428 1_554 S
H752 C748 0.930 . S
H753 C750 0.929 . S
S754 N755 1.613 . S
S754 N756 1.610 . S
N755 S754 1.613 . S
N755 C758 1.350 1_556 S
N756 S754 1.610 . S
N756 C757 1.351 . S
C757 C751 1.428 1_556 S
C757 N756 1.351 . S
C757 C758 1.434 1_556 S
C758 C749 1.429 . S
C758 N755 1.350 1_554 S
C758 C757 1.434 1_554 S
C759 C760 1.369 . S
C759 C761 1.419 . S
C759 H763 0.930 1_554 S
C760 C759 1.369 . S
C760 C769 1.429 . S
C761 C759 1.419 . S
C761 C762 1.363 . S
C761 H764 0.929 1_554 S
C762 C761 1.363 . S
C762 C768 1.428 . S
H763 C759 0.930 1_556 S
H764 C761 0.929 1_556 S
S765 N766 1.613 . S
S765 N767 1.610 . S
N766 S765 1.613 . S
N766 C769 1.350 . S
N767 S765 1.610 . S
N767 C768 1.351 . S
C768 C762 1.428 . S
C768 N767 1.351 . S
C768 C769 1.434 . S
C769 C760 1.429 . S
C769 N766 1.350 . S
C769 C768 1.434 . S
C770 C771 1.369 1_556 S
C770 C772 1.419 . S
C770 H774 0.930 . S
C771 C770 1.369 1_554 S
C771 C780 1.429 . S
C772 C770 1.419 . S
C772 C773 1.363 1_556 S
C772 H775 0.929 . S
C773 C772 1.363 1_554 S
C773 C779 1.428 . S
H774 C770 0.930 . S
H775 C772 0.929 . S
S776 N777 1.613 . S
S776 N778 1.610 . S
N777 S776 1.613 . S
N777 C780 1.350 . S
N778 S776 1.610 . S
N778 C779 1.351 . S
C779 C773 1.428 . S
C779 N778 1.351 . S
C779 C780 1.434 . S
C780 C771 1.429 . S
C780 N777 1.350 . S
C780 C779 1.434 . S
C781 C782 1.369 . S
C781 C783 1.419 . S
C781 H785 0.930 . S
C782 C781 1.369 . S
C782 C791 1.429 . S
C783 C781 1.419 . S
C783 C784 1.363 . S
C783 H786 0.929 . S
C784 C783 1.363 . S
C784 C790 1.428 1_554 S
H785 C781 0.930 . S
H786 C783 0.929 . S
S787 N788 1.613 . S
S787 N789 1.610 . S
N788 S787 1.613 . S
N788 C791 1.350 1_556 S
N789 S787 1.610 . S
N789 C790 1.351 . S
C790 C784 1.428 1_556 S
C790 N789 1.351 . S
C790 C791 1.434 1_556 S
C791 C782 1.429 . S
C791 N788 1.350 1_554 S
C791 C790 1.434 1_554 S
C792 C793 1.369 . S
C792 C794 1.419 . S
C792 H796 0.930 . S
C793 C792 1.369 . S
C793 C802 1.429 1_655 S
C794 C792 1.419 . S
C794 C795 1.363 1_655 S
C794 H797 0.929 . S
C795 C794 1.363 1_455 S
C795 C801 1.428 . S
H796 C792 0.930 . S
H797 C794 0.929 . S
S798 N799 1.613 . S
S798 N800 1.610 . S
N799 S798 1.613 . S
N799 C802 1.350 . S
N800 S798 1.610 . S
N800 C801 1.351 . S
C801 C795 1.428 . S
C801 N800 1.351 . S
C801 C802 1.434 . S
C802 C793 1.429 1_455 S
C802 N799 1.350 . S
C802 C801 1.434 . S
C803 C804 1.369 1_545 S
C803 C805 1.419 . S
C803 H807 0.930 . S
C804 C803 1.369 1_565 S
C804 C813 1.429 . S
C805 C803 1.419 . S
C805 C806 1.363 . S
C805 H808 0.929 . S
C806 C805 1.363 . S
C806 C812 1.428 1_545 S
H807 C803 0.930 . S
H808 C805 0.929 . S
S809 N810 1.613 . S
S809 N811 1.610 . S
N810 S809 1.613 . S
N810 C813 1.350 . S
N811 S809 1.610 . S
N811 C812 1.351 . S
C812 C806 1.428 1_565 S
C812 N811 1.351 . S
C812 C813 1.434 . S
C813 C804 1.429 . S
C813 N810 1.350 . S
C813 C812 1.434 . S
C814 C815 1.369 . S
C814 C816 1.419 . S
C814 H818 0.930 . S
C815 C814 1.369 . S
C815 C824 1.429 1_655 S
C816 C814 1.419 . S
C816 C817 1.363 1_655 S
C816 H819 0.929 . S
C817 C816 1.363 1_455 S
C817 C823 1.428 . S
H818 C814 0.930 . S
H819 C816 0.929 . S
S820 N821 1.613 . S
S820 N822 1.610 . S
N821 S820 1.613 . S
N821 C824 1.350 . S
N822 S820 1.610 . S
N822 C823 1.351 . S
C823 C817 1.428 . S
C823 N822 1.351 . S
C823 C824 1.434 . S
C824 C815 1.429 1_455 S
C824 N821 1.350 . S
C824 C823 1.434 . S
C825 C826 1.369 1_565 S
C825 C827 1.419 . S
C825 H829 0.930 . S
C826 C825 1.369 1_545 S
C826 C835 1.429 . S
C827 C825 1.419 . S
C827 C828 1.363 . S
C827 H830 0.929 . S
C828 C827 1.363 . S
C828 C834 1.428 1_565 S
H829 C825 0.930 . S
H830 C827 0.929 . S
S831 N832 1.613 . S
S831 N833 1.610 . S
N832 S831 1.613 . S
N832 C835 1.350 . S
N833 S831 1.610 . S
N833 C834 1.351 . S
C834 C828 1.428 1_545 S
C834 N833 1.351 . S
C834 C835 1.434 . S
C835 C826 1.429 . S
C835 N832 1.350 . S
C835 C834 1.434 . S
C836 C837 1.369 . S
C836 C838 1.419 . S
C836 H840 0.930 . S
C837 C836 1.369 . S
C837 C846 1.429 1_455 S
C838 C836 1.419 . S
C838 C839 1.363 1_455 S
C838 H841 0.929 . S
C839 C838 1.363 1_655 S
C839 C845 1.428 . S
H840 C836 0.930 . S
H841 C838 0.929 . S
S842 N843 1.613 . S
S842 N844 1.610 . S
N843 S842 1.613 . S
N843 C846 1.350 . S
N844 S842 1.610 . S
N844 C845 1.351 . S
C845 C839 1.428 . S
C845 N844 1.351 . S
C845 C846 1.434 . S
C846 C837 1.429 1_655 S
C846 N843 1.350 . S
C846 C845 1.434 . S
C847 C848 1.369 . S
C847 C849 1.419 . S
C847 H851 0.930 . S
C848 C847 1.369 . S
C848 C857 1.429 1_565 S
C849 C847 1.419 . S
C849 C850 1.363 1_565 S
C849 H852 0.929 . S
C850 C849 1.363 1_545 S
C850 C856 1.428 . S
H851 C847 0.930 . S
H852 C849 0.929 . S
S853 N854 1.613 . S
S853 N855 1.610 . S
N854 S853 1.613 . S
N854 C857 1.350 . S
N855 S853 1.610 . S
N855 C856 1.351 . S
C856 C850 1.428 . S
C856 N855 1.351 . S
C856 C857 1.434 . S
C857 C848 1.429 1_545 S
C857 N854 1.350 . S
C857 C856 1.434 . S
C858 C859 1.369 . S
C858 C860 1.419 . S
C858 H862 0.930 . S
C859 C858 1.369 . S
C859 C868 1.429 1_655 S
C860 C858 1.419 . S
C860 C861 1.363 1_655 S
C860 H863 0.929 . S
C861 C860 1.363 1_455 S
C861 C867 1.428 . S
H862 C858 0.930 . S
H863 C860 0.929 . S
S864 N865 1.613 . S
S864 N866 1.610 . S
N865 S864 1.613 . S
N865 C868 1.350 . S
N866 S864 1.610 . S
N866 C867 1.351 . S
C867 C861 1.428 . S
C867 N866 1.351 . S
C867 C868 1.434 . S
C868 C859 1.429 1_455 S
C868 N865 1.350 . S
C868 C867 1.434 . S
C869 C870 1.369 . S
C869 C871 1.419 . S
C869 H873 0.930 . S
C870 C869 1.369 . S
C870 C879 1.429 1_545 S
C871 C869 1.419 . S
C871 C872 1.363 1_545 S
C871 H874 0.929 . S
C872 C871 1.363 1_565 S
C872 C878 1.428 . S
H873 C869 0.930 . S
H874 C871 0.929 . S
S875 N876 1.613 . S
S875 N877 1.610 . S
N876 S875 1.613 . S
N876 C879 1.350 . S
N877 S875 1.610 . S
N877 C878 1.351 . S
C878 C872 1.428 . S
C878 N877 1.351 . S
C878 C879 1.434 . S
C879 C870 1.429 1_565 S
C879 N876 1.350 . S
C879 C878 1.434 . S
C880 C881 1.369 . S
C880 C882 1.419 . S
C880 H884 0.930 . S
C881 C880 1.369 . S
C881 C890 1.429 . S
C882 C880 1.419 . S
C882 C883 1.363 . S
C882 H885 0.929 . S
C883 C882 1.363 . S
C883 C889 1.428 . S
H884 C880 0.930 . S
H885 C882 0.929 . S
S886 N887 1.613 . S
S886 N888 1.610 . S
N887 S886 1.613 . S
N887 C890 1.350 . S
N888 S886 1.610 . S
N888 C889 1.351 . S
C889 C883 1.428 . S
C889 N888 1.351 . S
C889 C890 1.434 . S
C890 C881 1.429 . S
C890 N887 1.350 . S
C890 C889 1.434 . S
C891 C892 1.369 . S
C891 C893 1.419 . S
C891 H895 0.930 . S
C892 C891 1.369 . S
C892 C901 1.429 . S
C893 C891 1.419 . S
C893 C894 1.363 . S
C893 H896 0.929 . S
C894 C893 1.363 . S
C894 C900 1.428 . S
H895 C891 0.930 . S
H896 C893 0.929 . S
S897 N898 1.613 . S
S897 N899 1.610 . S
N898 S897 1.613 . S
N898 C901 1.350 . S
N899 S897 1.610 . S
N899 C900 1.351 . S
C900 C894 1.428 . S
C900 N899 1.351 . S
C900 C901 1.434 . S
C901 C892 1.429 . S
C901 N898 1.350 . S
C901 C900 1.434 . S
C902 C903 1.369 . S
C902 C904 1.419 . S
C902 H906 0.930 . S
C903 C902 1.369 . S
C903 C912 1.429 . S
C904 C902 1.419 . S
C904 C905 1.363 . S
C904 H907 0.929 . S
C905 C904 1.363 . S
C905 C911 1.428 . S
H906 C902 0.930 . S
H907 C904 0.929 . S
S908 N909 1.613 . S
S908 N910 1.610 . S
N909 S908 1.613 . S
N909 C912 1.350 . S
N910 S908 1.610 . S
N910 C911 1.351 . S
C911 C905 1.428 . S
C911 N910 1.351 . S
C911 C912 1.434 . S
C912 C903 1.429 . S
C912 N909 1.350 . S
C912 C911 1.434 . S
C913 C914 1.369 . S
C913 C915 1.419 . S
C913 H917 0.930 . S
C914 C913 1.369 . S
C914 C923 1.429 . S
C915 C913 1.419 . S
C915 C916 1.363 . S
C915 H918 0.929 . S
C916 C915 1.363 . S
C916 C922 1.428 . S
H917 C913 0.930 . S
H918 C915 0.929 . S
S919 N920 1.613 . S
S919 N921 1.610 . S
N920 S919 1.613 . S
N920 C923 1.350 . S
N921 S919 1.610 . S
N921 C922 1.351 . S
C922 C916 1.428 . S
C922 N921 1.351 . S
C922 C923 1.434 . S
C923 C914 1.429 . S
C923 N920 1.350 . S
C923 C922 1.434 . S
C924 C925 1.369 . S
C924 C926 1.419 . S
C924 H928 0.930 . S
C925 C924 1.369 . S
C925 C934 1.429 . S
C926 C924 1.419 . S
C926 C927 1.363 . S
C926 H929 0.929 . S
C927 C926 1.363 . S
C927 C933 1.428 . S
H928 C924 0.930 . S
H929 C926 0.929 . S
S930 N931 1.613 . S
S930 N932 1.610 . S
N931 S930 1.613 . S
N931 C934 1.350 . S
N932 S930 1.610 . S
N932 C933 1.351 . S
C933 C927 1.428 . S
C933 N932 1.351 . S
C933 C934 1.434 . S
C934 C925 1.429 . S
C934 N931 1.350 . S
C934 C933 1.434 . S
C935 C936 1.369 . S
C935 C937 1.419 . S
C935 H939 0.930 . S
C936 C935 1.369 . S
C936 C945 1.429 . S
C937 C935 1.419 . S
C937 C938 1.363 . S
C937 H940 0.929 . S
C938 C937 1.363 . S
C938 C944 1.428 . S
H939 C935 0.930 . S
H940 C937 0.929 . S
S941 N942 1.613 . S
S941 N943 1.610 . S
N942 S941 1.613 . S
N942 C945 1.350 . S
N943 S941 1.610 . S
N943 C944 1.351 . S
C944 C938 1.428 . S
C944 N943 1.351 . S
C944 C945 1.434 . S
C945 C936 1.429 . S
C945 N942 1.350 . S
C945 C944 1.434 . S
C946 C947 1.369 . S
C946 C948 1.419 . S
C946 H950 0.930 . S
C947 C946 1.369 . S
C947 C956 1.429 . S
C948 C946 1.419 . S
C948 C949 1.363 . S
C948 H951 0.929 . S
C949 C948 1.363 . S
C949 C955 1.428 . S
H950 C946 0.930 . S
H951 C948 0.929 . S
S952 N953 1.613 . S
S952 N954 1.610 . S
N953 S952 1.613 . S
N953 C956 1.350 . S
N954 S952 1.610 . S
N954 C955 1.351 . S
C955 C949 1.428 . S
C955 N954 1.351 . S
C955 C956 1.434 . S
C956 C947 1.429 . S
C956 N953 1.350 . S
C956 C955 1.434 . S
C957 C958 1.369 . S
C957 C959 1.419 . S
C957 H961 0.930 . S
C958 C957 1.369 . S
C958 C967 1.429 . S
C959 C957 1.419 . S
C959 C960 1.363 . S
C959 H962 0.929 . S
C960 C959 1.363 . S
C960 C966 1.428 . S
H961 C957 0.930 . S
H962 C959 0.929 . S
S963 N964 1.613 . S
S963 N965 1.610 . S
N964 S963 1.613 . S
N964 C967 1.350 . S
N965 S963 1.610 . S
N965 C966 1.351 . S
C966 C960 1.428 . S
C966 N965 1.351 . S
C966 C967 1.434 . S
C967 C958 1.429 . S
C967 N964 1.350 . S
C967 C966 1.434 . S
C529 N2 1.349 . S
C531 N497 1.347 . S
C540 N35 1.345 . S
C542 N398 1.350 . S
C551 N431 1.345 . S
C553 N68 1.346 . S
C562 N101 1.352 . S
C564 N464 1.344 . S
C573 N134 1.342 . S
C575 N299 1.349 . S
C584 N332 1.349 . S
C586 N167 1.347 . S
C595 N365 1.343 . S
C597 N200 1.349 . S
C606 N266 1.348 . S
C608 N233 1.348 . S
C617 N112 1.517 . S
C619 C21 1.581 . S
C628 N13 1.510 . S
C630 C54 1.582 . S
C639 C87 1.582 . S
C641 N46 1.511 . S
C650 C120 1.581 . S
C652 N79 1.512 . S
C661 N178 1.517 . S
C663 C153 1.581 . S
C672 N211 1.512 . S
C674 C186 1.582 . S
C683 N244 1.511 . S
C685 C219 1.582 . S
C694 N145 1.510 . S
C696 C252 1.582 . S
C705 N376 1.512 . S
C707 C285 1.583 . S
C716 C318 1.582 . S
C718 N277 1.515 . S
C727 N310 1.515 . S
C729 C351 1.581 . S
C738 N343 1.516 . S
C740 C384 1.581 . S
C749 N442 1.506 . S
C751 C417 1.584 . S
C760 N475 1.512 . S
C762 C450 1.583 . S
C771 N508 1.514 . S
C773 C483 1.582 . S
C782 N409 1.510 . S
C784 C516 1.582 . S
C793 C205 1.648 . S
C795 C7 1.645 . S
C804 C238 1.643 . S
C806 C40 1.647 . S
C815 C73 1.647 . S
C817 C139 1.647 . S
C826 C172 1.643 . S
C828 C106 1.647 . S
C837 C84 1.186 1_455 S
C839 C150 1.184 1_655 S
C848 C183 1.175 1_565 S
C850 C117 1.184 1_545 S
C859 C18 1.183 1_655 S
C861 C216 1.186 1_455 S
C870 C249 1.175 1_545 S
C872 C51 1.184 1_565 S
C881 C469 1.648 . S
C883 C271 1.645 . S
C892 C502 1.647 . S
C894 C304 1.643 . S
C903 C403 1.648 . S
C905 C337 1.645 . S
C914 C370 1.645 . S
C916 C436 1.642 . S
C925 C414 1.178 . S
C927 C348 1.178 . S
C936 C381 1.184 . S
C938 C447 1.177 . S
C947 C282 1.178 . S
C949 C480 1.178 . S
C958 C513 1.186 . S
C960 C315 1.184 . S
