# Generated by pormake.
# Topology wna, (6)-cn, num edge types: 1
# Building blocks:
#     Node 0, Type 0, BuildingBlock: MIFKUJ_clean_sbu_0, # of connection points: 6
#     Node 1, Type 0, BuildingBlock: MIFKUJ_clean_sbu_0, # of connection points: 6
#     Node 2, Type 0, BuildingBlock: MIFKUJ_clean_sbu_0, # of connection points: 6
#     Node 3, Type 0, BuildingBlock: MIFKUJ_clean_sbu_0, # of connection points: 6
#     Node 4, Type 0, BuildingBlock: MIFKUJ_clean_sbu_0, # of connection points: 6
#     Node 5, Type 0, BuildingBlock: MIFKUJ_clean_sbu_0, # of connection points: 6
#     Node 6, Type 0, BuildingBlock: MIFKUJ_clean_sbu_0, # of connection points: 6
#     Node 7, Type 0, BuildingBlock: MIFKUJ_clean_sbu_0, # of connection points: 6
#     Node 8, Type 0, BuildingBlock: MIFKUJ_clean_sbu_0, # of connection points: 6
#     Node 9, Type 0, BuildingBlock: MIFKUJ_clean_sbu_0, # of connection points: 6
#     Node 10, Type 0, BuildingBlock: MIFKUJ_clean_sbu_0, # of connection points: 6
#     Node 11, Type 0, BuildingBlock: MIFKUJ_clean_sbu_0, # of connection points: 6
#     Node 12, Type 0, BuildingBlock: MIFKUJ_clean_sbu_0, # of connection points: 6
#     Node 13, Type 0, BuildingBlock: MIFKUJ_clean_sbu_0, # of connection points: 6
#     Node 14, Type 0, BuildingBlock: MIFKUJ_clean_sbu_0, # of connection points: 6
#     Node 15, Type 0, BuildingBlock: MIFKUJ_clean_sbu_0, # of connection points: 6
#     Node 16, Type 0, BuildingBlock: MIFKUJ_clean_sbu_0, # of connection points: 6
#     Node 17, Type 0, BuildingBlock: MIFKUJ_clean_sbu_0, # of connection points: 6
#     Node 18, Type 0, BuildingBlock: MIFKUJ_clean_sbu_0, # of connection points: 6
#     Node 19, Type 0, BuildingBlock: MIFKUJ_clean_sbu_0, # of connection points: 6
#     Node 20, Type 0, BuildingBlock: MIFKUJ_clean_sbu_0, # of connection points: 6
#     Node 21, Type 0, BuildingBlock: MIFKUJ_clean_sbu_0, # of connection points: 6
#     Node 22, Type 0, BuildingBlock: MIFKUJ_clean_sbu_0, # of connection points: 6
#     Node 23, Type 0, BuildingBlock: MIFKUJ_clean_sbu_0, # of connection points: 6
#     Node 24, Type 0, BuildingBlock: MIFKUJ_clean_sbu_0, # of connection points: 6
#     Node 25, Type 0, BuildingBlock: MIFKUJ_clean_sbu_0, # of connection points: 6
#     Node 26, Type 0, BuildingBlock: MIFKUJ_clean_sbu_0, # of connection points: 6
#     Node 27, Type 0, BuildingBlock: MIFKUJ_clean_sbu_0, # of connection points: 6
#     Node 28, Type 0, BuildingBlock: MIFKUJ_clean_sbu_0, # of connection points: 6
#     Node 29, Type 0, BuildingBlock: MIFKUJ_clean_sbu_0, # of connection points: 6
#     Node 30, Type 0, BuildingBlock: MIFKUJ_clean_sbu_0, # of connection points: 6
#     Node 31, Type 0, BuildingBlock: MIFKUJ_clean_sbu_0, # of connection points: 6
#     Node 32, Type 0, BuildingBlock: MIFKUJ_clean_sbu_0, # of connection points: 6
#     Node 33, Type 0, BuildingBlock: MIFKUJ_clean_sbu_0, # of connection points: 6
#     Node 34, Type 0, BuildingBlock: MIFKUJ_clean_sbu_0, # of connection points: 6
#     Node 35, Type 0, BuildingBlock: MIFKUJ_clean_sbu_0, # of connection points: 6
#     Edge 36, Type (0, 0), BuildingBlock: CIFDUS_clean_linker_0, # of connection points: 2
#     Edge 37, Type (0, 0), BuildingBlock: CIFDUS_clean_linker_0, # of connection points: 2
#     Edge 38, Type (0, 0), BuildingBlock: CIFDUS_clean_linker_0, # of connection points: 2
#     Edge 39, Type (0, 0), BuildingBlock: CIFDUS_clean_linker_0, # of connection points: 2
#     Edge 40, Type (0, 0), BuildingBlock: CIFDUS_clean_linker_0, # of connection points: 2
#     Edge 41, Type (0, 0), BuildingBlock: CIFDUS_clean_linker_0, # of connection points: 2
#     Edge 42, Type (0, 0), BuildingBlock: CIFDUS_clean_linker_0, # of connection points: 2
#     Edge 43, Type (0, 0), BuildingBlock: CIFDUS_clean_linker_0, # of connection points: 2
#     Edge 44, Type (0, 0), BuildingBlock: CIFDUS_clean_linker_0, # of connection points: 2
#     Edge 45, Type (0, 0), BuildingBlock: CIFDUS_clean_linker_0, # of connection points: 2
#     Edge 46, Type (0, 0), BuildingBlock: CIFDUS_clean_linker_0, # of connection points: 2
#     Edge 47, Type (0, 0), BuildingBlock: CIFDUS_clean_linker_0, # of connection points: 2
#     Edge 48, Type (0, 0), BuildingBlock: CIFDUS_clean_linker_0, # of connection points: 2
#     Edge 49, Type (0, 0), BuildingBlock: CIFDUS_clean_linker_0, # of connection points: 2
#     Edge 50, Type (0, 0), BuildingBlock: CIFDUS_clean_linker_0, # of connection points: 2
#     Edge 51, Type (0, 0), BuildingBlock: CIFDUS_clean_linker_0, # of connection points: 2
#     Edge 52, Type (0, 0), BuildingBlock: CIFDUS_clean_linker_0, # of connection points: 2
#     Edge 53, Type (0, 0), BuildingBlock: CIFDUS_clean_linker_0, # of connection points: 2
#     Edge 54, Type (0, 0), BuildingBlock: CIFDUS_clean_linker_0, # of connection points: 2
#     Edge 55, Type (0, 0), BuildingBlock: CIFDUS_clean_linker_0, # of connection points: 2
#     Edge 56, Type (0, 0), BuildingBlock: CIFDUS_clean_linker_0, # of connection points: 2
#     Edge 57, Type (0, 0), BuildingBlock: CIFDUS_clean_linker_0, # of connection points: 2
#     Edge 58, Type (0, 0), BuildingBlock: CIFDUS_clean_linker_0, # of connection points: 2
#     Edge 59, Type (0, 0), BuildingBlock: CIFDUS_clean_linker_0, # of connection points: 2
#     Edge 60, Type (0, 0), BuildingBlock: CIFDUS_clean_linker_0, # of connection points: 2
#     Edge 61, Type (0, 0), BuildingBlock: CIFDUS_clean_linker_0, # of connection points: 2
#     Edge 62, Type (0, 0), BuildingBlock: CIFDUS_clean_linker_0, # of connection points: 2
#     Edge 63, Type (0, 0), BuildingBlock: CIFDUS_clean_linker_0, # of connection points: 2
#     Edge 64, Type (0, 0), BuildingBlock: CIFDUS_clean_linker_0, # of connection points: 2
#     Edge 65, Type (0, 0), BuildingBlock: CIFDUS_clean_linker_0, # of connection points: 2
#     Edge 66, Type (0, 0), BuildingBlock: CIFDUS_clean_linker_0, # of connection points: 2
#     Edge 67, Type (0, 0), BuildingBlock: CIFDUS_clean_linker_0, # of connection points: 2
#     Edge 68, Type (0, 0), BuildingBlock: CIFDUS_clean_linker_0, # of connection points: 2
#     Edge 69, Type (0, 0), BuildingBlock: CIFDUS_clean_linker_0, # of connection points: 2
#     Edge 70, Type (0, 0), BuildingBlock: CIFDUS_clean_linker_0, # of connection points: 2
#     Edge 71, Type (0, 0), BuildingBlock: CIFDUS_clean_linker_0, # of connection points: 2
#     Edge 72, Type (0, 0), BuildingBlock: CIFDUS_clean_linker_0, # of connection points: 2
#     Edge 73, Type (0, 0), BuildingBlock: CIFDUS_clean_linker_0, # of connection points: 2
#     Edge 74, Type (0, 0), BuildingBlock: CIFDUS_clean_linker_0, # of connection points: 2
#     Edge 75, Type (0, 0), BuildingBlock: CIFDUS_clean_linker_0, # of connection points: 2
#     Edge 76, Type (0, 0), BuildingBlock: CIFDUS_clean_linker_0, # of connection points: 2
#     Edge 77, Type (0, 0), BuildingBlock: CIFDUS_clean_linker_0, # of connection points: 2
#     Edge 78, Type (0, 0), BuildingBlock: CIFDUS_clean_linker_0, # of connection points: 2
#     Edge 79, Type (0, 0), BuildingBlock: CIFDUS_clean_linker_0, # of connection points: 2
#     Edge 80, Type (0, 0), BuildingBlock: CIFDUS_clean_linker_0, # of connection points: 2
#     Edge 81, Type (0, 0), BuildingBlock: CIFDUS_clean_linker_0, # of connection points: 2
#     Edge 82, Type (0, 0), BuildingBlock: CIFDUS_clean_linker_0, # of connection points: 2
#     Edge 83, Type (0, 0), BuildingBlock: CIFDUS_clean_linker_0, # of connection points: 2
#     Edge 84, Type (0, 0), BuildingBlock: CIFDUS_clean_linker_0, # of connection points: 2
#     Edge 85, Type (0, 0), BuildingBlock: CIFDUS_clean_linker_0, # of connection points: 2
#     Edge 86, Type (0, 0), BuildingBlock: CIFDUS_clean_linker_0, # of connection points: 2
#     Edge 87, Type (0, 0), BuildingBlock: CIFDUS_clean_linker_0, # of connection points: 2
#     Edge 88, Type (0, 0), BuildingBlock: CIFDUS_clean_linker_0, # of connection points: 2
#     Edge 89, Type (0, 0), BuildingBlock: CIFDUS_clean_linker_0, # of connection points: 2
#     Edge 90, Type (0, 0), BuildingBlock: CIFDUS_clean_linker_0, # of connection points: 2
#     Edge 91, Type (0, 0), BuildingBlock: CIFDUS_clean_linker_0, # of connection points: 2
#     Edge 92, Type (0, 0), BuildingBlock: CIFDUS_clean_linker_0, # of connection points: 2
#     Edge 93, Type (0, 0), BuildingBlock: CIFDUS_clean_linker_0, # of connection points: 2
#     Edge 94, Type (0, 0), BuildingBlock: CIFDUS_clean_linker_0, # of connection points: 2
#     Edge 95, Type (0, 0), BuildingBlock: CIFDUS_clean_linker_0, # of connection points: 2
#     Edge 96, Type (0, 0), BuildingBlock: CIFDUS_clean_linker_0, # of connection points: 2
#     Edge 97, Type (0, 0), BuildingBlock: CIFDUS_clean_linker_0, # of connection points: 2
#     Edge 98, Type (0, 0), BuildingBlock: CIFDUS_clean_linker_0, # of connection points: 2
#     Edge 99, Type (0, 0), BuildingBlock: CIFDUS_clean_linker_0, # of connection points: 2
#     Edge 100, Type (0, 0), BuildingBlock: CIFDUS_clean_linker_0, # of connection points: 2
#     Edge 101, Type (0, 0), BuildingBlock: CIFDUS_clean_linker_0, # of connection points: 2
#     Edge 102, Type (0, 0), BuildingBlock: CIFDUS_clean_linker_0, # of connection points: 2
#     Edge 103, Type (0, 0), BuildingBlock: CIFDUS_clean_linker_0, # of connection points: 2
#     Edge 104, Type (0, 0), BuildingBlock: CIFDUS_clean_linker_0, # of connection points: 2
#     Edge 105, Type (0, 0), BuildingBlock: CIFDUS_clean_linker_0, # of connection points: 2
#     Edge 106, Type (0, 0), BuildingBlock: CIFDUS_clean_linker_0, # of connection points: 2
#     Edge 107, Type (0, 0), BuildingBlock: CIFDUS_clean_linker_0, # of connection points: 2
#     Edge 108, Type (0, 0), BuildingBlock: CIFDUS_clean_linker_0, # of connection points: 2
#     Edge 109, Type (0, 0), BuildingBlock: CIFDUS_clean_linker_0, # of connection points: 2
#     Edge 110, Type (0, 0), BuildingBlock: CIFDUS_clean_linker_0, # of connection points: 2
#     Edge 111, Type (0, 0), BuildingBlock: CIFDUS_clean_linker_0, # of connection points: 2
#     Edge 112, Type (0, 0), BuildingBlock: CIFDUS_clean_linker_0, # of connection points: 2
#     Edge 113, Type (0, 0), BuildingBlock: CIFDUS_clean_linker_0, # of connection points: 2
#     Edge 114, Type (0, 0), BuildingBlock: CIFDUS_clean_linker_0, # of connection points: 2
#     Edge 115, Type (0, 0), BuildingBlock: CIFDUS_clean_linker_0, # of connection points: 2
#     Edge 116, Type (0, 0), BuildingBlock: CIFDUS_clean_linker_0, # of connection points: 2
#     Edge 117, Type (0, 0), BuildingBlock: CIFDUS_clean_linker_0, # of connection points: 2
#     Edge 118, Type (0, 0), BuildingBlock: CIFDUS_clean_linker_0, # of connection points: 2
#     Edge 119, Type (0, 0), BuildingBlock: CIFDUS_clean_linker_0, # of connection points: 2
#     Edge 120, Type (0, 0), BuildingBlock: CIFDUS_clean_linker_0, # of connection points: 2
#     Edge 121, Type (0, 0), BuildingBlock: CIFDUS_clean_linker_0, # of connection points: 2
#     Edge 122, Type (0, 0), BuildingBlock: CIFDUS_clean_linker_0, # of connection points: 2
#     Edge 123, Type (0, 0), BuildingBlock: CIFDUS_clean_linker_0, # of connection points: 2
#     Edge 124, Type (0, 0), BuildingBlock: CIFDUS_clean_linker_0, # of connection points: 2
#     Edge 125, Type (0, 0), BuildingBlock: CIFDUS_clean_linker_0, # of connection points: 2
#     Edge 126, Type (0, 0), BuildingBlock: CIFDUS_clean_linker_0, # of connection points: 2
#     Edge 127, Type (0, 0), BuildingBlock: CIFDUS_clean_linker_0, # of connection points: 2
#     Edge 128, Type (0, 0), BuildingBlock: CIFDUS_clean_linker_0, # of connection points: 2
#     Edge 129, Type (0, 0), BuildingBlock: CIFDUS_clean_linker_0, # of connection points: 2
#     Edge 130, Type (0, 0), BuildingBlock: CIFDUS_clean_linker_0, # of connection points: 2
#     Edge 131, Type (0, 0), BuildingBlock: CIFDUS_clean_linker_0, # of connection points: 2
#     Edge 132, Type (0, 0), BuildingBlock: CIFDUS_clean_linker_0, # of connection points: 2
#     Edge 133, Type (0, 0), BuildingBlock: CIFDUS_clean_linker_0, # of connection points: 2
#     Edge 134, Type (0, 0), BuildingBlock: CIFDUS_clean_linker_0, # of connection points: 2
#     Edge 135, Type (0, 0), BuildingBlock: CIFDUS_clean_linker_0, # of connection points: 2
#     Edge 136, Type (0, 0), BuildingBlock: CIFDUS_clean_linker_0, # of connection points: 2
#     Edge 137, Type (0, 0), BuildingBlock: CIFDUS_clean_linker_0, # of connection points: 2
#     Edge 138, Type (0, 0), BuildingBlock: CIFDUS_clean_linker_0, # of connection points: 2
#     Edge 139, Type (0, 0), BuildingBlock: CIFDUS_clean_linker_0, # of connection points: 2
#     Edge 140, Type (0, 0), BuildingBlock: CIFDUS_clean_linker_0, # of connection points: 2
#     Edge 141, Type (0, 0), BuildingBlock: CIFDUS_clean_linker_0, # of connection points: 2
#     Edge 142, Type (0, 0), BuildingBlock: CIFDUS_clean_linker_0, # of connection points: 2
#     Edge 143, Type (0, 0), BuildingBlock: CIFDUS_clean_linker_0, # of connection points: 2
# Relax obj value: 0.164
# Max RMSD: 0.213
# Mean RMSD: 0.206
data_MOF--net-wna--node1-MIFKUJ_clean_sbu_0--edge1-CIFDUS_clean_linker_0
_symmetry_space_group_name_H-M    P1
_symmetry_Int_Tables_number       1
_symmetry_cell_setting            triclinic
loop_
_symmetry_equiv_pos_as_xyz
'x, y, z'
_cell_length_a     36.66869
_cell_length_b     36.68546
_cell_length_c     93.36372
_cell_angle_alpha  90.033754
_cell_angle_beta   90.040192
_cell_angle_gamma 120.06686
loop_
_atom_site_label
_atom_site_type_symbol
_atom_site_fract_x
_atom_site_fract_y
_atom_site_fract_z
_atom_type_partial_charge
Zn0 Zn 0.08262 0.23478 0.18934 0.0
Zn1 Zn 0.11028 0.26608 0.15573 0.0
C2 C 0.99582 0.17497 0.18208 0.0
O3 O 0.98761 0.19334 0.19267 0.0
C4 C 0.1962 0.32649 0.16753 0.0
O5 O 0.17969 0.32439 0.1802 0.0
O6 O 0.07044 0.22115 0.21041 0.0
O7 O 0.13422 0.23377 0.18355 0.0
O8 O 0.10615 0.21089 0.16222 0.0
C9 C 0.04979 0.18454 0.21587 0.0
O10 O 0.03781 0.15135 0.20765 0.0
O11 O 0.03384 0.18906 0.17834 0.0
C12 C 0.11146 0.29974 0.12882 0.0
O13 O 0.12562 0.33277 0.13727 0.0
O14 O 0.10024 0.26398 0.1344 0.0
O15 O 0.07526 0.28985 0.16426 0.0
O16 O 0.08477 0.28929 0.18757 0.0
O17 O 0.17234 0.30711 0.157 0.0
C18 C 0.12989 0.21201 0.17242 0.0
C19 C 0.07268 0.30155 0.17685 0.0
Zn20 Zn 0.7841 0.85594 0.18615 0.0
Zn21 Zn 0.76518 0.86849 0.15286 0.0
C22 C 0.84002 0.82423 0.18103 0.0
O23 O 0.8146 0.79572 0.19024 0.0
C24 C 0.69813 0.88166 0.16774 0.0
O25 O 0.70356 0.86815 0.18013 0.0
O26 O 0.78967 0.84859 0.20749 0.0
O27 O 0.79351 0.91377 0.18244 0.0
O28 O 0.81881 0.91885 0.16057 0.0
C29 C 0.82494 0.86648 0.21402 0.0
O30 O 0.85898 0.89328 0.207 0.0
O31 O 0.83178 0.8523 0.17687 0.0
C32 C 0.7265 0.8396 0.1266 0.0
O33 O 0.69688 0.81828 0.13609 0.0
O34 O 0.76338 0.86605 0.13109 0.0
O35 O 0.74928 0.80901 0.15818 0.0
O36 O 0.72836 0.8073 0.18032 0.0
O37 O 0.71924 0.88208 0.1569 0.0
C38 C 0.81694 0.93612 0.17221 0.0
C39 C 0.72513 0.7889 0.16851 0.0
Zn40 Zn 0.14924 0.93661 0.17841 0.0
Zn41 Zn 0.13892 0.89171 0.14352 0.0
C42 C 0.17629 0.0231 0.17331 0.0
O43 O 0.2022 0.02788 0.18381 0.0
C44 C 0.09895 0.80528 0.15505 0.0
O45 O 0.11949 0.82232 0.16698 0.0
O46 O 0.14804 0.94815 0.19965 0.0
O47 O 0.09433 0.8861 0.17267 0.0
O48 O 0.09971 0.91159 0.15094 0.0
C49 C 0.11796 0.9514 0.20508 0.0
O50 O 0.08595 0.94458 0.1969 0.0
O51 O 0.15205 0.98638 0.16844 0.0
C52 C 0.16909 0.88572 0.11681 0.0
O53 O 0.18059 0.86453 0.12523 0.0
O54 O 0.14994 0.90322 0.12232 0.0
O55 O 0.19594 0.91115 0.1526 0.0
O56 O 0.20165 0.93427 0.17487 0.0
O57 O 0.10397 0.82863 0.14434 0.0
C58 C 0.07729 0.89234 0.1618 0.0
C59 C 0.21689 0.92533 0.16412 0.0
Zn60 Zn 0.20117 0.05246 0.31508 0.0
Zn61 Zn 0.26792 0.11716 0.34726 0.0
C62 C 0.13715 0.96708 0.31745 0.0
O63 O 0.16395 0.96449 0.30876 0.0
C64 C 0.2871 0.20227 0.34406 0.0
O65 O 0.25115 0.18631 0.35097 0.0
O66 O 0.19837 0.04895 0.29329 0.0
O67 O 0.20723 0.10696 0.32217 0.0
O68 O 0.20528 0.09753 0.34554 0.0
C69 C 0.1642 0.03427 0.28618 0.0
O70 O 0.1291 0.02452 0.29298 0.0
O71 O 0.14649 0.00301 0.32243 0.0
C72 C 0.32215 0.14086 0.3712 0.0
O73 O 0.34934 0.1566 0.36063 0.0
O74 O 0.28296 0.12095 0.36827 0.0
O75 O 0.28937 0.08063 0.33854 0.0
O76 O 0.24869 0.04341 0.32033 0.0
O77 O 0.30123 0.17812 0.34049 0.0
C78 C 0.19026 0.10448 0.33425 0.0
C79 C 0.27993 0.05364 0.32857 0.0
Zn80 Zn 0.93638 0.15323 0.32131 0.0
Zn81 Zn 0.8896 0.14158 0.35496 0.0
C82 C 0.02126 0.17787 0.32452 0.0
O83 O 0.02304 0.2069 0.31584 0.0
C84 C 0.80191 0.12319 0.35265 0.0
O85 O 0.81144 0.15 0.36324 0.0
O86 O 0.94539 0.15342 0.29995 0.0
O87 O 0.88284 0.10126 0.32658 0.0
O88 O 0.90568 0.09873 0.34813 0.0
C89 C 0.94572 0.12265 0.29379 0.0
O90 O 0.93608 0.0886 0.30123 0.0
O91 O 0.98571 0.15076 0.32959 0.0
C92 C 0.88586 0.17196 0.38311 0.0
O93 O 0.8901 0.20374 0.37538 0.0
O94 O 0.88583 0.14106 0.37683 0.0
O95 O 0.92292 0.20286 0.34899 0.0
O96 O 0.94124 0.20814 0.32615 0.0
O97 O 0.83024 0.1169 0.34742 0.0
C98 C 0.88621 0.08007 0.33671 0.0
C99 C 0.93831 0.22466 0.33771 0.0
Zn100 Zn 0.84425 0.77434 0.31941 0.0
Zn101 Zn 0.83393 0.71596 0.35233 0.0
C102 C 0.83181 0.84312 0.32571 0.0
O103 O 0.80365 0.82492 0.3155 0.0
C104 C 0.86641 0.66456 0.33759 0.0
O105 O 0.85193 0.66909 0.32525 0.0
O106 O 0.84993 0.78869 0.29825 0.0
O107 O 0.88806 0.76149 0.32635 0.0
O108 O 0.88227 0.77631 0.34869 0.0
C109 C 0.87965 0.8226 0.29301 0.0
O110 O 0.91085 0.84849 0.30135 0.0
O111 O 0.8527 0.826 0.32981 0.0
C112 C 0.79758 0.66711 0.3767 0.0
O113 O 0.78341 0.63933 0.36626 0.0
O114 O 0.82051 0.70594 0.37353 0.0
O115 O 0.77694 0.69236 0.34207 0.0
O116 O 0.78549 0.72786 0.32195 0.0
O117 O 0.86046 0.68028 0.34885 0.0
C118 C 0.90484 0.78324 0.33752 0.0
C119 C 0.76216 0.69873 0.33059 0.0
Zn120 Zn 0.89117 0.74431 0.84498 0.0
Zn121 Zn 0.9264 0.77951 0.81356 0.0
C122 C 0.80559 0.71594 0.84311 0.0
O123 O 0.81931 0.74481 0.85321 0.0
C124 C 0.01499 0.82964 0.81894 0.0
O125 O 0.0157 0.80667 0.80825 0.0
O126 O 0.88518 0.7312 0.86622 0.0
O127 O 0.93041 0.72431 0.83806 0.0
O128 O 0.91498 0.72026 0.81515 0.0
C129 C 0.86883 0.69223 0.86918 0.0
O130 O 0.85798 0.66513 0.85858 0.0
O131 O 0.83194 0.70806 0.83702 0.0
C132 C 0.95019 0.83127 0.78784 0.0
O133 O 0.94792 0.85855 0.79637 0.0
O134 O 0.94033 0.79506 0.79266 0.0
O135 O 0.88009 0.78993 0.81971 0.0
O136 O 0.9055 0.8048 0.84169 0.0
O137 O 0.97954 0.82146 0.82403 0.0
C138 C 0.92693 0.70768 0.82585 0.0
C139 C 0.88564 0.80986 0.8314 0.0
Zn140 Zn 0.25636 0.13925 0.85186 0.0
Zn141 Zn 0.22399 0.13401 0.82066 0.0
C142 C 0.29412 0.08892 0.85036 0.0
O143 O 0.26648 0.07051 0.86068 0.0
C144 C 0.17112 0.16992 0.82916 0.0
O145 O 0.19223 0.19859 0.81939 0.0
O146 O 0.26459 0.14575 0.87339 0.0
O147 O 0.27536 0.19836 0.84434 0.0
O148 O 0.28258 0.18332 0.82212 0.0
C149 C 0.30133 0.16852 0.87862 0.0
O150 O 0.33353 0.18749 0.86985 0.0
O151 O 0.29694 0.12147 0.84448 0.0
C152 C 0.21787 0.16154 0.79216 0.0
O153 O 0.24506 0.19846 0.79753 0.0
O154 O 0.20538 0.12882 0.79988 0.0
O155 O 0.21607 0.0782 0.82678 0.0
O156 O 0.19741 0.08883 0.84804 0.0
O157 O 0.1814 0.14233 0.8319 0.0
C158 C 0.29346 0.20987 0.83223 0.0
C159 C 0.19317 0.06376 0.83787 0.0
Zn160 Zn 0.86879 0.11576 0.85636 0.0
Zn161 Zn 0.8729 0.08308 0.82211 0.0
C162 C 0.89307 0.20034 0.84685 0.0
O163 O 0.8758 0.18193 0.83464 0.0
C164 C 0.84355 0.00052 0.83512 0.0
O165 O 0.80597 0.99231 0.83094 0.0
O166 O 0.85702 0.09806 0.87704 0.0
O167 O 0.81167 0.09073 0.8462 0.0
O168 O 0.81701 0.07857 0.82332 0.0
C169 C 0.83187 0.10775 0.88302 0.0
O170 O 0.81467 0.12492 0.87518 0.0
O171 O 0.89216 0.17809 0.85738 0.0
C172 C 0.85103 0.04096 0.79516 0.0
O173 O 0.81586 0.01783 0.80222 0.0
O174 O 0.88113 0.07263 0.80138 0.0
O175 O 0.9214 0.13844 0.82805 0.0
O176 O 0.91957 0.11171 0.84923 0.0
O177 O 0.87499 0.03705 0.83315 0.0
C178 C 0.79563 0.07989 0.83375 0.0
C179 C 0.94072 0.13486 0.83874 0.0
Zn180 Zn 0.75603 0.90626 0.65553 0.0
Zn181 Zn 0.78722 0.93059 0.68736 0.0
C182 C 0.72495 0.82052 0.65676 0.0
O183 O 0.75299 0.83379 0.64641 0.0
C184 C 0.8395 0.02147 0.68505 0.0
O185 O 0.81349 0.02126 0.69477 0.0
O186 O 0.7426 0.90043 0.63437 0.0
O187 O 0.73722 0.94602 0.66276 0.0
O188 O 0.73026 0.92513 0.68515 0.0
C189 C 0.70369 0.88382 0.63124 0.0
O190 O 0.6762 0.87319 0.64168 0.0
O191 O 0.71901 0.84742 0.66338 0.0
C192 C 0.82994 0.95582 0.71521 0.0
O193 O 0.86453 0.97726 0.70767 0.0
O194 O 0.79517 0.9327 0.7088 0.0
O195 O 0.79863 0.88663 0.67912 0.0
O196 O 0.81661 0.91984 0.65845 0.0
O197 O 0.83273 0.98666 0.6798 0.0
C198 C 0.7209 0.94206 0.67504 0.0
C199 C 0.82183 0.8981 0.66802 0.0
Zn200 Zn 0.10513 0.87005 0.65003 0.0
Zn201 Zn 0.08219 0.86044 0.68214 0.0
C202 C 0.19122 0.91355 0.64963 0.0
O203 O 0.17923 0.93288 0.64055 0.0
C204 C 0.99381 0.82831 0.67791 0.0
O205 O 0.99183 0.7987 0.68635 0.0
O206 O 0.10585 0.86855 0.62818 0.0
O207 O 0.05838 0.81165 0.65559 0.0
O208 O 0.08846 0.81162 0.67583 0.0
C209 C 0.1156 0.84263 0.62278 0.0
O210 O 0.12328 0.8191 0.63147 0.0
O211 O 0.163 0.88097 0.65604 0.0
C212 C 0.055 0.8727 0.70998 0.0
O213 O 0.04995 0.90081 0.7029 0.0
O214 O 0.07059 0.8531 0.70351 0.0
O215 O 0.13049 0.91804 0.67823 0.0
O216 O 0.10437 0.92217 0.65738 0.0
O217 O 0.02974 0.85734 0.67375 0.0
C218 C 0.06468 0.79157 0.66541 0.0
C219 C 0.12651 0.94007 0.6685 0.0
Zn220 Zn 0.14757 0.25831 0.65289 0.0
Zn221 Zn 0.1512 0.23322 0.68672 0.0
C222 C 0.11471 0.31188 0.66424 0.0
O223 O 0.13226 0.31222 0.67654 0.0
C224 C 0.18536 0.17791 0.67961 0.0
O225 O 0.20993 0.19479 0.69081 0.0
O226 O 0.15555 0.25457 0.63164 0.0
O227 O 0.2072 0.29345 0.66094 0.0
O228 O 0.19683 0.29259 0.68423 0.0
C229 C 0.17692 0.29019 0.62556 0.0
O230 O 0.19257 0.32441 0.63347 0.0
O231 O 0.1187 0.29254 0.65362 0.0
C232 C 0.14343 0.18857 0.71428 0.0
O233 O 0.12457 0.15312 0.70702 0.0
O234 O 0.15443 0.22317 0.70788 0.0
O235 O 0.09295 0.22006 0.68146 0.0
O236 O 0.1028 0.20035 0.66017 0.0
O237 O 0.16141 0.19179 0.67572 0.0
C238 C 0.21974 0.30922 0.67333 0.0
C239 C 0.07824 0.1968 0.67043 0.0
Zn240 Zn 0.74452 0.54808 0.51625 0.0
Zn241 Zn 0.76486 0.57011 0.48531 0.0
C242 C 0.65482 0.49447 0.51324 0.0
O243 O 0.65474 0.51796 0.52386 0.0
C244 C 0.85139 0.60942 0.48633 0.0
O245 O 0.84004 0.58238 0.47569 0.0
O246 O 0.73416 0.53712 0.53746 0.0
O247 O 0.78878 0.53432 0.50996 0.0
O248 O 0.7581 0.51233 0.48893 0.0
C249 C 0.72631 0.50209 0.54286 0.0
O250 O 0.72938 0.47446 0.53475 0.0
O251 O 0.68974 0.50327 0.50753 0.0
C252 C 0.78216 0.62172 0.46103 0.0
O253 O 0.79205 0.64876 0.4716 0.0
O254 O 0.76852 0.58313 0.46403 0.0
O255 O 0.71965 0.58161 0.49246 0.0
O256 O 0.75301 0.60622 0.51272 0.0
O257 O 0.82276 0.61174 0.49326 0.0
C258 C 0.77947 0.50969 0.49925 0.0
C259 C 0.7288 0.6063 0.50305 0.0
Zn260 Zn 0.44355 0.18502 0.51069 0.0
Zn261 Zn 0.41972 0.18514 0.47982 0.0
C262 C 0.50368 0.15584 0.50634 0.0
O263 O 0.48284 0.1297 0.51681 0.0
C264 C 0.38118 0.23274 0.48204 0.0
O265 O 0.40792 0.24902 0.47136 0.0
O266 O 0.45255 0.18403 0.53205 0.0
O267 O 0.45568 0.24305 0.50494 0.0
O268 O 0.47733 0.23553 0.4837 0.0
C269 C 0.48857 0.20423 0.538 0.0
O270 O 0.52147 0.22953 0.53021 0.0
O271 O 0.49053 0.17953 0.50149 0.0
C272 C 0.36861 0.1533 0.45537 0.0
O273 O 0.34186 0.13325 0.46578 0.0
O274 O 0.40691 0.17894 0.45856 0.0
O275 O 0.40924 0.12777 0.48584 0.0
O276 O 0.38628 0.13377 0.50681 0.0
O277 O 0.37837 0.20083 0.48847 0.0
C278 C 0.48021 0.25898 0.49423 0.0
C279 C 0.38602 0.11072 0.49665 0.0
Zn280 Zn 0.81269 0.25158 0.52344 0.0
Zn281 Zn 0.81631 0.22298 0.49153 0.0
C282 C 0.84695 0.34006 0.51818 0.0
O283 O 0.87382 0.34267 0.52801 0.0
C284 C 0.76467 0.13691 0.49266 0.0
O285 O 0.74784 0.1493 0.48273 0.0
O286 O 0.8112 0.26126 0.54462 0.0
O287 O 0.75823 0.20236 0.51742 0.0
O288 O 0.76492 0.2297 0.49594 0.0
C289 C 0.79539 0.28181 0.55023 0.0
O290 O 0.77498 0.29485 0.54208 0.0
O291 O 0.81919 0.30386 0.51374 0.0
C292 C 0.83952 0.20117 0.46478 0.0
O293 O 0.85207 0.18167 0.47356 0.0
O294 O 0.82265 0.22137 0.46995 0.0
O295 O 0.8755 0.26452 0.49869 0.0
O296 O 0.86364 0.24638 0.52138 0.0
O297 O 0.79852 0.16438 0.49866 0.0
C298 C 0.74151 0.20757 0.50628 0.0
C299 C 0.88908 0.26296 0.51107 0.0
Zn300 Zn 0.88803 0.40213 0.65452 0.0
Zn301 Zn 0.92908 0.46 0.68659 0.0
C302 C 0.82339 0.32024 0.66146 0.0
O303 O 0.84575 0.31195 0.65242 0.0
C304 C 0.95277 0.5463 0.68147 0.0
O305 O 0.91405 0.5329 0.68582 0.0
O306 O 0.87438 0.38676 0.63373 0.0
O307 O 0.89377 0.45863 0.65762 0.0
O308 O 0.87002 0.44313 0.67962 0.0
C309 C 0.84387 0.38809 0.62778 0.0
O310 O 0.82294 0.40231 0.63507 0.0
O311 O 0.83684 0.35829 0.66506 0.0
C312 C 0.96887 0.4795 0.71323 0.0
O313 O 0.00082 0.49854 0.70436 0.0
O314 O 0.93168 0.45972 0.70812 0.0
O315 O 0.95787 0.42787 0.68044 0.0
O316 O 0.93797 0.39678 0.65927 0.0
O317 O 0.96656 0.52072 0.6808 0.0
C318 C 0.86833 0.45651 0.66721 0.0
C319 C 0.96131 0.40671 0.67029 0.0
Zn320 Zn 0.59745 0.48766 0.6476 0.0
Zn321 Zn 0.54981 0.49505 0.68043 0.0
C322 C 0.67675 0.49678 0.6538 0.0
O323 O 0.68736 0.52827 0.6449 0.0
C324 C 0.46286 0.48162 0.67844 0.0
O325 O 0.47249 0.50737 0.68939 0.0
O326 O 0.60519 0.48632 0.62618 0.0
O327 O 0.53871 0.44663 0.65373 0.0
O328 O 0.55806 0.44507 0.67583 0.0
C329 C 0.61933 0.46485 0.6201 0.0
O330 O 0.62502 0.43803 0.62774 0.0
O331 O 0.63821 0.47372 0.65714 0.0
C332 C 0.52279 0.48201 0.71099 0.0
O333 O 0.48768 0.44921 0.70653 0.0
O334 O 0.55183 0.50355 0.70201 0.0
O335 O 0.59007 0.55364 0.67248 0.0
O336 O 0.61604 0.54709 0.65185 0.0
O337 O 0.49081 0.47489 0.67311 0.0
C338 C 0.53992 0.42569 0.66433 0.0
C339 C 0.61301 0.56982 0.66146 0.0
Zn340 Zn 0.52228 0.13034 0.64437 0.0
Zn341 Zn 0.5152 0.07235 0.67623 0.0
C342 C 0.50715 0.19656 0.65148 0.0
O343 O 0.47778 0.17638 0.64178 0.0
C344 C 0.57003 0.04018 0.67872 0.0
O345 O 0.58057 0.06532 0.68987 0.0
O346 O 0.52471 0.14419 0.62333 0.0
O347 O 0.56857 0.11902 0.64956 0.0
O348 O 0.56248 0.13226 0.6721 0.0
C349 C 0.55406 0.17694 0.61737 0.0
O350 O 0.58725 0.20302 0.62494 0.0
O351 O 0.53061 0.18178 0.65507 0.0
C352 C 0.48258 0.02819 0.70233 0.0
O353 O 0.46415 0.9972 0.69305 0.0
O354 O 0.50627 0.06537 0.69767 0.0
O355 O 0.45669 0.04817 0.66734 0.0
O356 O 0.46424 0.08321 0.64725 0.0
O357 O 0.54047 0.03641 0.67059 0.0
C358 C 0.58559 0.13511 0.6615 0.0
C359 C 0.44133 0.05426 0.65598 0.0
Zn360 Zn 0.54341 0.05948 0.19222 0.0
Zn361 Zn 0.59752 0.09683 0.15805 0.0
C362 C 0.45984 0.00539 0.17875 0.0
O363 O 0.4801 0.00447 0.16728 0.0
C364 C 0.68073 0.16719 0.16182 0.0
O365 O 0.68894 0.14689 0.15191 0.0
O366 O 0.55142 0.0626 0.21367 0.0
O367 O 0.5704 0.02659 0.18521 0.0
O368 O 0.60145 0.04672 0.16405 0.0
C369 C 0.53585 0.02644 0.21948 0.0
O370 O 0.51787 0.99289 0.21123 0.0
O371 O 0.48051 0.02523 0.18979 0.0
C372 C 0.61852 0.1368 0.12999 0.0
O373 O 0.61846 0.16803 0.13687 0.0
O374 O 0.60888 0.103 0.13672 0.0
O375 O 0.54246 0.09444 0.16162 0.0
O376 O 0.55974 0.11671 0.18382 0.0
O377 O 0.64373 0.15035 0.16699 0.0
C378 C 0.59055 0.02257 0.17486 0.0
C379 C 0.54186 0.11627 0.17208 0.0
Zn380 Zn 0.90935 0.47532 0.17937 0.0
Zn381 Zn 0.86309 0.48647 0.14738 0.0
C382 C 0.94276 0.42201 0.1793 0.0
O383 O 0.9155 0.40685 0.18986 0.0
C384 C 0.8034 0.48448 0.16933 0.0
O385 O 0.83544 0.50207 0.17824 0.0
O386 O 0.916 0.47897 0.20085 0.0
O387 O 0.93456 0.53518 0.17314 0.0
O388 O 0.91172 0.54392 0.15222 0.0
C389 C 0.95369 0.50139 0.20533 0.0
O390 O 0.98417 0.52014 0.19591 0.0
O391 O 0.94648 0.45332 0.17228 0.0
C392 C 0.81989 0.45673 0.12071 0.0
O393 O 0.79615 0.42338 0.12856 0.0
O394 O 0.85202 0.48773 0.12636 0.0
O395 O 0.86832 0.43505 0.15114 0.0
O396 O 0.85028 0.43104 0.17377 0.0
O397 O 0.80927 0.4767 0.15656 0.0
C398 C 0.9358 0.55883 0.16303 0.0
C399 C 0.84805 0.41301 0.16191 0.0
Zn400 Zn 0.51689 0.46713 0.19185 0.0
Zn401 Zn 0.50572 0.38419 0.15907 0.0
C402 C 0.5582 0.54488 0.17514 0.0
O403 O 0.56635 0.52299 0.16588 0.0
C404 C 0.48808 0.30017 0.16441 0.0
O405 O 0.45815 0.29154 0.155 0.0
O406 O 0.49775 0.46263 0.21223 0.0
O407 O 0.46848 0.42361 0.17982 0.0
O408 O 0.4475 0.37513 0.16286 0.0
C409 C 0.4737 0.47758 0.21474 0.0
O410 O 0.46178 0.49235 0.204 0.0
O411 O 0.53581 0.5266 0.18605 0.0
C412 C 0.52798 0.36352 0.13124 0.0
O413 O 0.54521 0.34634 0.13903 0.0
O414 O 0.51217 0.38335 0.13744 0.0
O415 O 0.54405 0.43859 0.16881 0.0
O416 O 0.56768 0.45985 0.19031 0.0
O417 O 0.51216 0.33817 0.16817 0.0
C418 C 0.43931 0.39593 0.17199 0.0
C419 C 0.57078 0.44447 0.17851 0.0
Zn420 Zn 0.4109 0.23054 0.98819 0.0
Zn421 Zn 0.45559 0.28186 0.02148 0.0
C422 C 0.38411 0.14532 0.98662 0.0
O423 O 0.41646 0.16218 0.97785 0.0
C424 C 0.51214 0.36235 0.00882 0.0
O425 O 0.48315 0.37083 0.01318 0.0
O426 O 0.40936 0.23281 0.96645 0.0
O427 O 0.38217 0.26198 0.99555 0.0
O428 O 0.40567 0.28737 0.01725 0.0
C429 C 0.37275 0.21486 0.96083 0.0
O430 O 0.33974 0.19802 0.96932 0.0
O431 O 0.37369 0.16931 0.99302 0.0
C432 C 0.46222 0.32292 0.04849 0.0
O433 O 0.44601 0.34109 0.04071 0.0
O434 O 0.46911 0.29554 0.04266 0.0
O435 O 0.4482 0.22509 0.0175 0.0
O436 O 0.46894 0.24296 0.99523 0.0
O437 O 0.50634 0.32551 0.01063 0.0
C438 C 0.38083 0.28065 0.00685 0.0
C439 C 0.46802 0.22341 0.00662 0.0
Zn440 Zn 0.77814 0.16021 0.99251 0.0
Zn441 Zn 0.72467 0.17001 0.02369 0.0
C442 C 0.86454 0.21771 0.99128 0.0
O443 O 0.84978 0.22842 0.98021 0.0
C444 C 0.64336 0.15913 0.01726 0.0
O445 O 0.63203 0.13013 0.02721 0.0
O446 O 0.77681 0.14982 0.9713 0.0
O447 O 0.7425 0.10262 1.00149 0.0
O448 O 0.71162 0.11089 0.0206 0.0
C449 C 0.79386 0.13024 0.96585 0.0
O450 O 0.81261 0.11599 0.97429 0.0
O451 O 0.8389 0.18678 0.99895 0.0
C452 C 0.70971 0.20183 0.05049 0.0
O453 O 0.71259 0.23264 0.0425 0.0
O454 O 0.71581 0.1738 0.04484 0.0
O455 O 0.78166 0.21585 0.01747 0.0
O456 O 0.76236 0.20559 0.99495 0.0
O457 O 0.68175 0.17961 0.01349 0.0
C458 C 0.71852 0.08755 0.01232 0.0
C459 C 0.77733 0.23027 0.00564 0.0
Zn460 Zn 0.81946 0.58971 0.97721 0.0
Zn461 Zn 0.81312 0.53454 0.01132 0.0
C462 C 0.7578 0.61291 0.98341 0.0
O463 O 0.7348 0.57919 0.97561 0.0
C464 C 0.83048 0.46867 0.01432 0.0
O465 O 0.8589 0.49781 0.02274 0.0
O466 O 0.82737 0.60537 0.95621 0.0
O467 O 0.87807 0.60984 0.98517 0.0
O468 O 0.87135 0.57735 0.00588 0.0
C469 C 0.8477 0.64458 0.95338 0.0
O470 O 0.86231 0.67159 0.96405 0.0
O471 O 0.79619 0.62437 0.98586 0.0
C472 C 0.78588 0.50559 0.04008 0.0
O473 O 0.75852 0.47115 0.03334 0.0
O474 O 0.81037 0.53803 0.03279 0.0
O475 O 0.76751 0.5405 1.00196 0.0
O476 O 0.77443 0.52766 0.97948 0.0
O477 O 0.806 0.47715 0.00724 0.0
C478 C 0.89402 0.60357 0.99635 0.0
C479 C 0.75281 0.51748 0.99094 0.0
Zn480 Zn 0.4305 0.89012 0.8457 0.0
Zn481 Zn 0.47608 0.95898 0.81234 0.0
C482 C 0.34662 0.82222 0.84305 0.0
O483 O 0.34028 0.84686 0.85166 0.0
C484 C 0.55024 0.00562 0.8315 0.0
O485 O 0.52347 0.99751 0.84202 0.0
O486 O 0.43659 0.88695 0.86714 0.0
O487 O 0.48241 0.90534 0.83477 0.0
O488 O 0.46305 0.89828 0.81237 0.0
C489 C 0.41789 0.85241 0.87403 0.0
O490 O 0.39888 0.81671 0.86693 0.0
O491 O 0.38373 0.83436 0.83866 0.0
C492 C 0.49367 0.01234 0.78749 0.0
O493 O 0.51447 0.04236 0.79693 0.0
O494 O 0.4744 0.97422 0.79166 0.0
O495 O 0.43664 0.97311 0.82355 0.0
O496 O 0.41198 0.93213 0.84281 0.0
O497 O 0.53644 0.99361 0.81886 0.0
C498 C 0.47288 0.88424 0.82325 0.0
C499 C 0.41419 0.96132 0.83488 0.0
Zn500 Zn 0.11673 0.51904 0.855 0.0
Zn501 Zn 0.08445 0.53055 0.82174 0.0
C502 C 0.17593 0.49224 0.85231 0.0
O503 O 0.15034 0.46592 0.86201 0.0
C504 C 0.01628 0.54984 0.82347 0.0
O505 O 0.9997 0.52253 0.81298 0.0
O506 O 0.12767 0.52114 0.87623 0.0
O507 O 0.11959 0.57303 0.84922 0.0
O508 O 0.14415 0.57117 0.82797 0.0
C509 C 0.15895 0.55315 0.88184 0.0
O510 O 0.18164 0.58671 0.87394 0.0
O511 O 0.16665 0.51789 0.84652 0.0
C512 C 0.05032 0.5002 0.7937 0.0
O513 O 0.02326 0.46785 0.80133 0.0
O514 O 0.08097 0.53124 0.8 0.0
O515 O 0.05638 0.46959 0.82757 0.0
O516 O 0.06417 0.46436 0.85086 0.0
O517 O 0.0505 0.55632 0.82916 0.0
C518 C 0.14585 0.59164 0.83919 0.0
C519 C 0.04715 0.44781 0.83895 0.0
Zn520 Zn 0.47684 0.60284 0.85436 0.0
Zn521 Zn 0.47735 0.54359 0.82155 0.0
C522 C 0.46781 0.66732 0.83747 0.0
O523 O 0.47721 0.65337 0.8259 0.0
C524 C 0.45572 0.45684 0.8255 0.0
O525 O 0.47874 0.46483 0.8139 0.0
O526 O 0.47975 0.60514 0.87603 0.0
O527 O 0.42933 0.54764 0.84732 0.0
O528 O 0.43317 0.56091 0.82426 0.0
C529 C 0.4494 0.60384 0.88306 0.0
O530 O 0.41503 0.59622 0.87615 0.0
O531 O 0.46576 0.65008 0.84948 0.0
C532 C 0.5097 0.54204 0.7926 0.0
O533 O 0.54722 0.56405 0.79842 0.0
O534 O 0.47717 0.53158 0.80024 0.0
O535 O 0.53783 0.58493 0.82778 0.0
O536 O 0.53402 0.61807 0.84717 0.0
O537 O 0.45337 0.48677 0.83148 0.0
C538 C 0.41257 0.55131 0.83593 0.0
C539 C 0.55544 0.61184 0.83779 0.0
Zn540 Zn 0.55812 0.72565 0.98983 0.0
Zn541 Zn 0.58191 0.75271 0.02187 0.0
C542 C 0.50044 0.63651 0.99399 0.0
O543 O 0.52557 0.63343 0.98465 0.0
C544 C 0.6176 0.8384 0.02064 0.0
O545 O 0.58799 0.82531 0.03045 0.0
O546 O 0.55053 0.7158 0.96833 0.0
O547 O 0.54934 0.7734 0.99538 0.0
O548 O 0.52479 0.74575 0.01669 0.0
C549 C 0.51429 0.69728 0.96246 0.0
O550 O 0.48093 0.6875 0.97033 0.0
O551 O 0.50997 0.67279 0.99866 0.0
C552 C 0.6298 0.77582 0.04759 0.0
O553 O 0.65966 0.78795 0.03792 0.0
O554 O 0.59153 0.75808 0.04344 0.0
O555 O 0.59464 0.70715 0.01585 0.0
O556 O 0.61481 0.7324 0.99421 0.0
O557 O 0.62372 0.81114 0.01431 0.0
C558 C 0.52556 0.76793 0.00605 0.0
C559 C 0.61669 0.71193 0.00481 0.0
Zn560 Zn 0.27627 0.81405 0.97805 0.0
Zn561 Zn 0.22368 0.82195 0.0085 0.0
C562 C 0.34992 0.82933 0.9947 0.0
O563 O 0.36456 0.86884 0.99107 0.0
C564 C 0.13833 0.76609 0.00834 0.0
O565 O 0.15296 0.75173 0.01838 0.0
O566 O 0.29092 0.80616 0.95784 0.0
O567 O 0.21616 0.77113 0.98196 0.0
O568 O 0.23276 0.77249 0.00457 0.0
C569 C 0.32627 0.83376 0.95272 0.0
O570 O 0.35118 0.86671 0.96057 0.0
O571 O 0.31305 0.8017 0.99083 0.0
C572 C 0.20993 0.8528 0.03499 0.0
O573 O 0.19562 0.87056 0.02613 0.0
O574 O 0.22441 0.83041 0.0299 0.0
O575 O 0.26164 0.87947 0.99984 0.0
O576 O 0.29095 0.87373 0.97986 0.0
O577 O 0.16385 0.80022 0.00205 0.0
C578 C 0.21406 0.75153 0.99339 0.0
C579 C 0.28482 0.8959 0.9889 0.0
Zn580 Zn 0.19176 0.45451 0.9866 0.0
Zn581 Zn 0.18352 0.41118 0.02025 0.0
C582 C 0.16562 0.51524 0.9916 0.0
O583 O 0.13727 0.49249 0.98189 0.0
C584 C 0.24239 0.38654 0.02529 0.0
O585 O 0.25179 0.41607 0.03493 0.0
O586 O 0.1969 0.46513 0.96529 0.0
O587 O 0.24187 0.45248 0.99427 0.0
O588 O 0.22995 0.47116 0.01533 0.0
C589 C 0.21261 0.50121 0.95945 0.0
O590 O 0.23193 0.53513 0.96747 0.0
O591 O 0.19137 0.50389 0.99578 0.0
C592 C 0.15069 0.37038 0.04677 0.0
O593 O 0.13707 0.33778 0.03815 0.0
O594 O 0.17179 0.40723 0.04152 0.0
O595 O 0.12575 0.38185 0.01082 0.0
O596 O 0.13518 0.40383 0.98841 0.0
O597 O 0.21148 0.37673 0.01692 0.0
C598 C 0.25585 0.47419 0.00564 0.0
C599 C 0.11169 0.37974 0.99823 0.0
Zn600 Zn 0.22535 0.39609 0.51579 0.0
Zn601 Zn 0.2716 0.45405 0.48496 0.0
C602 C 0.13847 0.36487 0.51723 0.0
O603 O 0.15249 0.39064 0.52825 0.0
C604 C 0.3533 0.51682 0.49405 0.0
O605 O 0.36365 0.49692 0.48463 0.0
O606 O 0.22753 0.38837 0.53711 0.0
O607 O 0.26021 0.37284 0.50659 0.0
O608 O 0.28295 0.40685 0.48607 0.0
C609 C 0.21103 0.35183 0.54264 0.0
O610 O 0.19294 0.31865 0.53423 0.0
O611 O 0.16464 0.36015 0.50968 0.0
C612 C 0.28901 0.50737 0.45959 0.0
O613 O 0.28355 0.53287 0.46805 0.0
O614 O 0.28331 0.47256 0.46445 0.0
O615 O 0.2141 0.44147 0.49072 0.0
O616 O 0.23759 0.45651 0.51268 0.0
O617 O 0.31457 0.50314 0.49656 0.0
C618 C 0.27925 0.37854 0.4947 0.0
C619 C 0.2188 0.46202 0.50215 0.0
Zn620 Zn 0.60979 0.81562 0.5227 0.0
Zn621 Zn 0.5472 0.80648 0.49142 0.0
C622 C 0.63838 0.75804 0.5204 0.0
O623 O 0.60553 0.738 0.52883 0.0
C624 C 0.47834 0.81655 0.49748 0.0
O625 O 0.50152 0.8487 0.48907 0.0
O626 O 0.62175 0.82565 0.54388 0.0
O627 O 0.62804 0.8737 0.5143 0.0
O628 O 0.589 0.86588 0.49517 0.0
C629 C 0.66055 0.84909 0.54698 0.0
O630 O 0.68813 0.86435 0.5365 0.0
O631 O 0.64847 0.79464 0.51591 0.0
C632 C 0.50351 0.77409 0.46424 0.0
O633 O 0.47809 0.74037 0.47166 0.0
O634 O 0.53555 0.80406 0.47031 0.0
O635 O 0.5658 0.76574 0.49668 0.0
O636 O 0.55 0.76595 0.5193 0.0
O637 O 0.49226 0.79229 0.501 0.0
C638 C 0.61804 0.88913 0.50383 0.0
C639 C 0.5463 0.74576 0.50778 0.0
Zn640 Zn 0.17586 0.77875 0.51454 0.0
Zn641 Zn 0.18149 0.7241 0.48138 0.0
C642 C 0.23879 0.86536 0.51151 0.0
O643 O 0.26062 0.85145 0.5184 0.0
C644 C 0.16136 0.64022 0.48432 0.0
O645 O 0.13272 0.63762 0.47525 0.0
O646 O 0.16725 0.7794 0.53606 0.0
O647 O 0.11699 0.74276 0.50568 0.0
O648 O 0.12463 0.71435 0.48575 0.0
C649 C 0.1521 0.80133 0.54111 0.0
O650 O 0.14174 0.82236 0.5322 0.0
O651 O 0.20045 0.83979 0.50836 0.0
C652 C 0.21292 0.71519 0.45379 0.0
O653 O 0.24493 0.71994 0.46155 0.0
O654 O 0.18344 0.71818 0.45984 0.0
O655 O 0.22848 0.77957 0.48801 0.0
O656 O 0.22234 0.76374 0.51097 0.0
O657 O 0.18729 0.67609 0.48954 0.0
C658 C 0.10165 0.72045 0.49444 0.0
C659 C 0.24482 0.77735 0.4997 0.0
Zn660 Zn 0.08167 0.55373 0.31157 0.0
Zn661 Zn 0.10997 0.59781 0.34609 0.0
C662 C 0.03063 0.4707 0.32549 0.0
O663 O 0.02747 0.4906 0.33669 0.0
C664 C 0.17013 0.68511 0.34113 0.0
O665 O 0.14771 0.6908 0.35092 0.0
O666 O 0.08103 0.55893 0.29006 0.0
O667 O 0.04546 0.57682 0.31848 0.0
O668 O 0.05535 0.59516 0.34131 0.0
C669 C 0.04345 0.54002 0.28524 0.0
O670 O 0.01217 0.52124 0.29437 0.0
O671 O 0.05106 0.49142 0.31457 0.0
C672 C 0.15335 0.62549 0.37376 0.0
O673 O 0.18686 0.63312 0.36633 0.0
O674 O 0.11772 0.60899 0.36751 0.0
O675 O 0.11832 0.54897 0.34105 0.0
O676 O 0.14044 0.57424 0.31939 0.0
O677 O 0.15802 0.64807 0.33672 0.0
C678 C 0.03543 0.58945 0.32963 0.0
C679 C 0.14344 0.55623 0.33063 0.0
Zn680 Zn 0.42421 0.5261 0.32269 0.0
Zn681 Zn 0.40648 0.52533 0.35311 0.0
C682 C 0.51133 0.56942 0.32364 0.0
O683 O 0.50145 0.58659 0.31309 0.0
C684 C 0.3163 0.49374 0.35157 0.0
O685 O 0.31506 0.46856 0.3618 0.0
O686 O 0.42863 0.51863 0.3015 0.0
O687 O 0.37619 0.46952 0.32869 0.0
O688 O 0.41039 0.47308 0.34824 0.0
C689 C 0.43969 0.49169 0.29852 0.0
O690 O 0.44604 0.47179 0.30906 0.0
O691 O 0.4816 0.53948 0.33062 0.0
C692 C 0.38677 0.54547 0.38095 0.0
O693 O 0.37946 0.57159 0.37354 0.0
O694 O 0.40069 0.52433 0.37454 0.0
O695 O 0.45133 0.58422 0.3472 0.0
O696 O 0.41935 0.57766 0.32661 0.0
O697 O 0.35147 0.51881 0.34575 0.0
C698 C 0.38455 0.45106 0.3385 0.0
C699 C 0.44194 0.60082 0.3369 0.0
Zn700 Zn 0.48265 0.92046 0.32899 0.0
Zn701 Zn 0.48392 0.89455 0.36114 0.0
C702 C 0.42898 0.95271 0.32691 0.0
O703 O 0.41338 0.92104 0.31784 0.0
C704 C 0.51881 0.84058 0.35576 0.0
O705 O 0.54434 0.86321 0.36615 0.0
O706 O 0.48786 0.92291 0.30744 0.0
O707 O 0.54272 0.94374 0.33619 0.0
O708 O 0.53062 0.9533 0.35851 0.0
C709 C 0.50957 0.95929 0.30188 0.0
O710 O 0.52793 0.99228 0.31037 0.0
O711 O 0.46211 0.96092 0.33385 0.0
C712 C 0.46661 0.84576 0.38737 0.0
O713 O 0.44298 0.81356 0.37902 0.0
O714 O 0.48491 0.88274 0.38215 0.0
O715 O 0.42749 0.88536 0.356 0.0
O716 O 0.43341 0.86303 0.33472 0.0
O717 O 0.49261 0.85063 0.35092 0.0
C718 C 0.55531 0.96388 0.34791 0.0
C719 C 0.4104 0.86304 0.34496 0.0
H720 H 0.10763 0.14316 0.15561 0.0
H721 H 0.1933 0.21841 0.18925 0.0
H722 H 0.21892 0.16883 0.19125 0.0
H723 H 0.21226 0.10103 0.18514 0.0
H724 H 0.12436 0.02361 0.15234 0.0
H725 H 0.10492 0.07742 0.14817 0.0
C726 C 0.1323 0.14896 0.16324 0.0
C727 C 0.14814 0.1841 0.17239 0.0
C728 C 0.14641 0.11987 0.16453 0.0
C729 C 0.18013 0.19124 0.18222 0.0
C730 C 0.19488 0.16296 0.18336 0.0
C731 C 0.18934 0.09615 0.17691 0.0
C732 C 0.16957 0.05821 0.16916 0.0
C733 C 0.17752 0.12667 0.17483 0.0
C734 C 0.13995 0.05248 0.15852 0.0
C735 C 0.12867 0.08316 0.15616 0.0
H736 H 0.91819 0.12426 0.19326 0.0
H737 H 0.99997 0.13237 0.15868 0.0
H738 H 0.94996 0.05981 0.15175 0.0
H739 H 0.88605 0.99197 0.15692 0.0
H740 H 0.80671 0.98368 0.19238 0.0
H741 H 0.85262 0.05826 0.19749 0.0
C742 C 0.92478 0.11046 0.18404 0.0
C743 C 0.96281 0.13366 0.17654 0.0
C744 C 0.8965 0.0684 0.18037 0.0
C745 C 0.97094 0.11513 0.16468 0.0
C746 C 0.94243 0.07357 0.16074 0.0
C747 C 0.87858 0.00663 0.16566 0.0
C748 C 0.84324 0.98216 0.17433 0.0
C749 C 0.9056 0.04955 0.16873 0.0
C750 C 0.83401 0.00163 0.18563 0.0
C751 C 0.86019 0.04435 0.18856 0.0
H752 H 0.01596 0.8332 0.17852 0.0
H753 H 0.03899 0.92788 0.14682 0.0
H754 H 0.96652 0.91338 0.14932 0.0
H755 H 0.89786 0.87645 0.16151 0.0
H756 H 0.87477 0.78064 0.19282 0.0
H757 H 0.94582 0.7926 0.18932 0.0
C758 C 0.00504 0.85056 0.17213 0.0
C759 C 0.03284 0.88184 0.16261 0.0
C760 C 0.96332 0.84181 0.17352 0.0
C761 C 0.01816 0.90364 0.15423 0.0
C762 C 0.97677 0.89544 0.15568 0.0
C763 C 0.90822 0.85787 0.16746 0.0
C764 C 0.88108 0.82792 0.17749 0.0
C765 C 0.94923 0.86494 0.16542 0.0
C766 C 0.89493 0.80391 0.18503 0.0
C767 C 0.93568 0.81086 0.18309 0.0
H768 H 0.18445 0.16355 0.31901 0.0
H769 H 0.12232 0.07093 0.35215 0.0
H770 H 0.06487 0.08694 0.35272 0.0
H771 H 0.03072 0.12476 0.34268 0.0
H772 H 0.09559 0.21945 0.3102 0.0
H773 H 0.15387 0.20556 0.31065 0.0
C774 C 0.15832 0.14695 0.32637 0.0
C775 C 0.15705 0.11571 0.33537 0.0
C776 C 0.12605 0.1568 0.32679 0.0
C777 C 0.12368 0.09502 0.34509 0.0
C778 C 0.0909 0.10412 0.34539 0.0
C779 C 0.05783 0.14264 0.33582 0.0
C780 C 0.05855 0.1728 0.32633 0.0
C781 C 0.0915 0.1346 0.33614 0.0
C782 C 0.09408 0.19599 0.3176 0.0
C783 C 0.12741 0.18796 0.31778 0.0
H784 H 0.79982 0.89147 0.31666 0.0
H785 H 0.88872 0.88995 0.34662 0.0
H786 H 0.91135 0.96248 0.35362 0.0
H787 H 0.90933 0.02821 0.3499 0.0
H788 H 0.82234 0.02934 0.31897 0.0
H789 H 0.79546 0.95516 0.31376 0.0
C790 C 0.82383 0.90677 0.32483 0.0
C791 C 0.84262 0.88535 0.33105 0.0
C792 C 0.83726 0.94861 0.32859 0.0
C793 C 0.87376 0.90575 0.34163 0.0
C794 C 0.88681 0.94728 0.34562 0.0
C795 C 0.88414 0.01198 0.34217 0.0
C796 C 0.86805 0.03426 0.33477 0.0
C797 C 0.86929 0.96931 0.33898 0.0
C798 C 0.83558 0.01298 0.3247 0.0
C799 C 0.82011 0.97053 0.32172 0.0
H800 H 0.96564 0.79453 0.31891 0.0
H801 H 0.93974 0.85618 0.35349 0.0
H802 H 0.00949 0.91891 0.35042 0.0
H803 H 0.07767 0.95664 0.33744 0.0
H804 H 0.10274 0.89221 0.30347 0.0
H805 H 0.03364 0.83033 0.30681 0.0
C806 C 0.97523 0.82169 0.3258 0.0
C807 C 0.94749 0.82079 0.33635 0.0
C808 C 0.01533 0.85722 0.32408 0.0
C809 C 0.96058 0.85603 0.34531 0.0
C810 C 0.00041 0.89194 0.34352 0.0
C811 C 0.06801 0.92899 0.33081 0.0
C812 C 0.09547 0.92924 0.3202 0.0
C813 C 0.02804 0.89297 0.33288 0.0
C814 C 0.08248 0.89302 0.31175 0.0
C815 C 0.04283 0.85753 0.31362 0.0
H816 H 0.9184 0.88237 0.84673 0.0
H817 H 0.81416 0.80059 0.81943 0.0
H818 H 0.788 0.85008 0.82011 0.0
H819 H 0.79886 0.91961 0.82637 0.0
H820 H 0.90697 0.00485 0.85159 0.0
H821 H 0.92723 0.95091 0.85407 0.0
C822 C 0.88967 0.87527 0.84111 0.0
C823 C 0.86837 0.83823 0.83295 0.0
C824 C 0.8756 0.90453 0.84118 0.0
C825 C 0.83134 0.8293 0.82562 0.0
C826 C 0.81631 0.85747 0.82605 0.0
C827 C 0.82627 0.92599 0.8327 0.0
C828 C 0.85132 0.96596 0.83884 0.0
C829 C 0.83873 0.89562 0.8335 0.0
C830 C 0.88721 0.97417 0.84679 0.0
C831 C 0.8989 0.94346 0.84814 0.0
H832 H 0.18856 0.99908 0.82245 0.0
H833 H 0.11996 0.02878 0.85337 0.0
H834 H 0.05953 0.95736 0.85119 0.0
H835 H 0.02415 0.88844 0.83889 0.0
H836 H 0.09387 0.85948 0.8081 0.0
H837 H 0.15588 0.92837 0.81198 0.0
C838 C 0.1605 0.98981 0.82881 0.0
C839 C 0.15856 0.01932 0.83793 0.0
C840 C 0.12598 0.9488 0.8275 0.0
C841 C 0.12225 0.00667 0.84626 0.0
C842 C 0.08761 0.96587 0.84497 0.0
C843 C 0.05309 0.89694 0.83319 0.0
C844 C 0.05407 0.86884 0.82309 0.0
C845 C 0.08881 0.93692 0.8354 0.0
C846 C 0.09198 0.88041 0.81586 0.0
C847 C 0.12753 0.91994 0.81804 0.0
H848 H 0.98795 0.10716 0.85258 0.0
H849 H 0.99621 0.19898 0.82191 0.0
H850 H 0.07008 0.2215 0.81753 0.0
H851 H 0.13015 0.21066 0.82065 0.0
H852 H 0.12136 0.11625 0.85026 0.0
H853 H 0.05027 0.09971 0.85695 0.0
C854 C 0.00614 0.13251 0.84511 0.0
C855 C 0.98653 0.1511 0.83749 0.0
C856 C 0.04849 0.14474 0.84239 0.0
C857 C 0.01045 0.18382 0.82779 0.0
C858 C 0.05272 0.19677 0.82529 0.0
C859 C 0.11303 0.18695 0.82875 0.0
C860 C 0.13104 0.1646 0.83487 0.0
C861 C 0.07177 0.17678 0.83226 0.0
C862 C 0.10823 0.13388 0.84532 0.0
C863 C 0.06747 0.12426 0.84913 0.0
H864 H 0.82469 0.83302 0.68047 0.0
H865 H 0.89473 0.93939 0.65255 0.0
H866 H 0.95338 0.92538 0.65223 0.0
H867 H 0.98661 0.88587 0.66139 0.0
H868 H 0.91533 0.77876 0.68901 0.0
H869 H 0.85521 0.78983 0.68779 0.0
C870 C 0.85272 0.853 0.67425 0.0
C871 C 0.85563 0.88749 0.66669 0.0
C872 C 0.88612 0.84464 0.67407 0.0
C873 C 0.89179 0.91268 0.65848 0.0
C874 C 0.92537 0.90476 0.65834 0.0
C875 C 0.95775 0.86462 0.667 0.0
C876 C 0.95574 0.83179 0.6754 0.0
C877 C 0.92317 0.87124 0.6663 0.0
C878 C 0.91793 0.80439 0.68251 0.0
C879 C 0.88351 0.81078 0.68187 0.0
H880 H 0.21419 0.12782 0.69 0.0
H881 H 0.13895 0.13624 0.65599 0.0
H882 H 0.11658 0.0641 0.64871 0.0
H883 H 0.11265 0.99615 0.65357 0.0
H884 H 0.18592 0.98773 0.6883 0.0
H885 H 0.21472 0.06211 0.69363 0.0
C886 C 0.19355 0.11422 0.68082 0.0
C887 C 0.17811 0.13738 0.67363 0.0
C888 C 0.17991 0.07236 0.67691 0.0
C889 C 0.15123 0.11909 0.66177 0.0
C890 C 0.13822 0.07772 0.65763 0.0
C891 C 0.13528 0.01073 0.66219 0.0
C892 C 0.14661 0.98619 0.67062 0.0
C893 C 0.15141 0.05363 0.66537 0.0
C894 C 0.17612 0.00566 0.68174 0.0
C895 C 0.19275 0.0483 0.6848 0.0
H896 H 0.89995 0.03236 0.66581 0.0
H897 H 0.87118 0.09774 0.69839 0.0
H898 H 0.94213 0.15836 0.69636 0.0
H899 H 0.0139 0.19086 0.68659 0.0
H900 H 0.04251 0.12584 0.65387 0.0
H901 H 0.97008 0.0671 0.65472 0.0
C902 C 0.90899 0.06006 0.67235 0.0
C903 C 0.88029 0.06029 0.68232 0.0
C904 C 0.94998 0.09475 0.67121 0.0
C905 C 0.89255 0.09659 0.69064 0.0
C906 C 0.93324 0.13125 0.68954 0.0
C907 C 0.00423 0.16389 0.6796 0.0
C908 C 0.03368 0.16254 0.67029 0.0
C909 C 0.96248 0.13032 0.68009 0.0
C910 C 0.02051 0.12767 0.66116 0.0
C911 C 0.9791 0.09401 0.66165 0.0
H912 H 0.79503 0.34598 0.49846 0.0
H913 H 0.89235 0.41911 0.52939 0.0
H914 H 0.88152 0.47874 0.52564 0.0
H915 H 0.84077 0.50832 0.51507 0.0
H916 H 0.74403 0.43619 0.48393 0.0
H917 H 0.75848 0.37816 0.48621 0.0
C918 C 0.81425 0.37514 0.50425 0.0
C919 C 0.8442 0.37782 0.5143 0.0
C920 C 0.80775 0.40943 0.50209 0.0
C921 C 0.86899 0.41599 0.52162 0.0
C922 C 0.86271 0.45014 0.51954 0.0
C923 C 0.82304 0.48002 0.5087 0.0
C924 C 0.79107 0.4764 0.49946 0.0
C925 C 0.83157 0.44689 0.51005 0.0
C926 C 0.7688 0.43977 0.49113 0.0
C927 C 0.77694 0.40651 0.49247 0.0
H928 H 0.48493 0.32086 0.51147 0.0
H929 H 0.55125 0.29755 0.47779 0.0
H930 H 0.60996 0.36971 0.47989 0.0
H931 H 0.64462 0.43769 0.49253 0.0
H932 H 0.5779 0.46088 0.52614 0.0
H933 H 0.51708 0.39075 0.52268 0.0
C934 C 0.51212 0.33166 0.50453 0.0
C935 C 0.51389 0.30374 0.4946 0.0
C936 C 0.54574 0.37319 0.50578 0.0
C937 C 0.54908 0.31837 0.48554 0.0
C938 C 0.58275 0.35962 0.48676 0.0
C939 C 0.61659 0.42763 0.49898 0.0
C940 C 0.61606 0.45444 0.50967 0.0
C941 C 0.58173 0.38707 0.49701 0.0
C942 C 0.57933 0.44093 0.51786 0.0
C943 C 0.54452 0.4007 0.51594 0.0
H944 H 0.54672 0.12035 0.51773 0.0
H945 H 0.5569 0.21068 0.48608 0.0
H946 H 0.63091 0.23231 0.48222 0.0
H947 H 0.69476 0.23051 0.48964 0.0
H948 H 0.68404 0.1418 0.52205 0.0
H949 H 0.6085 0.11461 0.52371 0.0
C950 C 0.56486 0.14429 0.50982 0.0
C951 C 0.54625 0.16401 0.50231 0.0
C952 C 0.60764 0.15728 0.50788 0.0
C953 C 0.57039 0.19499 0.49207 0.0
C954 C 0.61284 0.20756 0.48989 0.0
C955 C 0.67573 0.20486 0.49691 0.0
C956 C 0.69513 0.18864 0.50584 0.0
C957 C 0.63213 0.18971 0.49801 0.0
C958 C 0.67005 0.15535 0.5152 0.0
C959 C 0.62676 0.13966 0.51616 0.0
H960 H 0.79176 0.4298 0.67957 0.0
H961 H 0.87597 0.51307 0.64712 0.0
H962 H 0.82489 0.53432 0.64064 0.0
H963 H 0.75579 0.52777 0.64361 0.0
H964 H 0.66913 0.44184 0.67503 0.0
H965 H 0.72165 0.42312 0.68252 0.0
C966 C 0.79892 0.45281 0.67116 0.0
C967 C 0.83749 0.46987 0.66383 0.0
C968 C 0.76897 0.46428 0.66728 0.0
C969 C 0.84633 0.4993 0.65285 0.0
C970 C 0.8172 0.51154 0.64915 0.0
C971 C 0.74843 0.50517 0.65218 0.0
C972 C 0.70872 0.4864 0.6588 0.0
C973 C 0.77834 0.494 0.65621 0.0
C974 C 0.69955 0.4568 0.66977 0.0
C975 C 0.72954 0.44607 0.67405 0.0
H976 H 0.4685 0.23954 0.64334 0.0
H977 H 0.56467 0.24682 0.67182 0.0
H978 H 0.58148 0.31757 0.67928 0.0
H979 H 0.57156 0.37932 0.67652 0.0
H980 H 0.47748 0.37168 0.64695 0.0
H981 H 0.45702 0.29912 0.64119 0.0
C982 C 0.4929 0.25634 0.65128 0.0
C983 C 0.51532 0.23789 0.65697 0.0
C984 C 0.50289 0.29713 0.6553 0.0
C985 C 0.54692 0.26029 0.66724 0.0
C986 C 0.5566 0.3008 0.6715 0.0
C987 C 0.54623 0.36146 0.66898 0.0
C988 C 0.52608 0.38076 0.66214 0.0
C989 C 0.53518 0.31981 0.66545 0.0
C990 C 0.49363 0.35753 0.65227 0.0
C991 C 0.48188 0.31605 0.64897 0.0
H992 H 0.78045 0.24086 0.65096 0.0
H993 H 0.76896 0.32528 0.68042 0.0
H994 H 0.69466 0.27318 0.68425 0.0
H995 H 0.63135 0.20619 0.67742 0.0
H996 H 0.64301 0.12494 0.64662 0.0
H997 H 0.71889 0.17309 0.64519 0.0
C998 C 0.76195 0.24773 0.65839 0.0
C999 C 0.78023 0.28698 0.66534 0.0
C1000 C 0.71911 0.21824 0.66021 0.0
C1001 C 0.75564 0.29531 0.6749 0.0
C1002 C 0.71311 0.26559 0.67706 0.0
C1003 C 0.65072 0.19884 0.67059 0.0
C1004 C 0.63176 0.1623 0.66207 0.0
C1005 C 0.69425 0.22732 0.66951 0.0
C1006 C 0.65698 0.15316 0.65316 0.0
C1007 C 0.70032 0.18062 0.65235 0.0
H1008 H 0.55908 0.18629 0.18738 0.0
H1009 H 0.48549 0.10931 0.1518 0.0
H1010 H 0.45944 0.15769 0.14709 0.0
H1011 H 0.46086 0.22387 0.15212 0.0
H1012 H 0.53761 0.30327 0.18676 0.0
H1013 H 0.55882 0.25175 0.19287 0.0
C1014 C 0.53703 0.17993 0.17869 0.0
C1015 C 0.52439 0.14442 0.16991 0.0
C1016 C 0.52282 0.20834 0.17585 0.0
C1017 C 0.496 0.13668 0.15863 0.0
C1018 C 0.48101 0.16426 0.15594 0.0
C1019 C 0.48179 0.22967 0.16113 0.0
C1020 C 0.49762 0.26729 0.16897 0.0
C1021 C 0.49469 0.20049 0.16434 0.0
C1022 C 0.52506 0.27454 0.18053 0.0
C1023 C 0.53725 0.24515 0.18402 0.0
H1024 H 0.7865 0.35846 0.17995 0.0
H1025 H 0.85158 0.36353 0.14083 0.0
H1026 H 0.80786 0.28738 0.1381 0.0
H1027 H 0.74916 0.21996 0.14613 0.0
H1028 H 0.68085 0.21484 0.1844 0.0
H1029 H 0.72811 0.29033 0.18824 0.0
C1030 C 0.79128 0.34284 0.17088 0.0
C1031 C 0.8222 0.36667 0.1606 0.0
C1032 C 0.7655 0.29904 0.16923 0.0
C1033 C 0.82783 0.34599 0.14886 0.0
C1034 C 0.80292 0.30242 0.1473 0.0
C1035 C 0.74494 0.23518 0.15544 0.0
C1036 C 0.71168 0.21176 0.16501 0.0
C1037 C 0.77142 0.2787 0.15734 0.0
C1038 C 0.70628 0.23216 0.17689 0.0
C1039 C 0.73321 0.27533 0.17906 0.0
H1040 H 0.73173 0.44861 0.15333 0.0
H1041 H 0.77873 0.49699 0.19566 0.0
H1042 H 0.70898 0.48367 0.20273 0.0
H1043 H 0.63647 0.46358 0.19633 0.0
H1044 H 0.59066 0.41904 0.15364 0.0
H1045 H 0.65789 0.42451 0.14738 0.0
C1046 C 0.72675 0.45606 0.16414 0.0
C1047 C 0.76062 0.47425 0.17391 0.0
C1048 C 0.68669 0.44873 0.16809 0.0
C1049 C 0.75339 0.48333 0.18789 0.0
C1050 C 0.71347 0.47565 0.19195 0.0
C1051 C 0.64088 0.45439 0.18572 0.0
C1052 C 0.60845 0.4408 0.17546 0.0
C1053 C 0.68012 0.45906 0.18206 0.0
C1054 C 0.61486 0.42916 0.16177 0.0
C1055 C 0.65349 0.43272 0.15814 0.0
H1056 H 0.56246 0.12846 0.0257 0.0
H1057 H 0.65637 0.21783 0.99673 0.0
H1058 H 0.60858 0.24301 0.9897 0.0
H1059 H 0.54208 0.24361 0.99334 0.0
H1060 H 0.45059 0.15662 0.02339 0.0
H1061 H 0.49519 0.12629 0.02831 0.0
C1062 C 0.57238 0.15311 0.01772 0.0
C1063 C 0.61301 0.17133 0.01182 0.0
C1064 C 0.54515 0.16803 0.01396 0.0
C1065 C 0.62527 0.20329 1.00149 0.0
C1066 C 0.59799 0.21779 0.99748 0.0
C1067 C 0.53175 0.2176 1.00078 0.0
C1068 C 0.49332 0.20253 0.00807 0.0
C1069 C 0.55813 0.20097 0.00386 0.0
C1070 C 0.48031 0.16901 0.01777 0.0
C1071 C 0.50577 0.15165 0.02059 0.0
H1072 H 0.8239 0.2952 0.02356 0.0
H1073 H 0.74316 0.26129 0.98646 0.0
H1074 H 0.75211 0.33201 0.98584 0.0
H1075 H 0.78298 0.40372 0.99595 0.0
H1076 H 0.86585 0.43743 0.03255 0.0
H1077 H 0.85603 0.36673 0.0332 0.0
C1078 C 0.80818 0.30326 0.01536 0.0
C1079 C 0.78281 0.27303 0.00512 0.0
C1080 C 0.81396 0.34405 0.01494 0.0
C1081 C 0.763 0.28406 0.99445 0.0
C1082 C 0.76804 0.32447 0.9941 0.0
C1083 C 0.79895 0.39558 0.00404 0.0
C1084 C 0.82512 0.42589 0.01417 0.0
C1085 C 0.7935 0.35478 0.00429 0.0
C1086 C 0.84569 0.41486 0.02456 0.0
C1087 C 0.84001 0.37434 0.02498 0.0
H1088 H 0.57282 0.35575 0.99405 0.0
H1089 H 0.5448 0.44625 0.0131 0.0
H1090 H 0.61655 0.50259 0.00848 0.0
H1091 H 0.68876 0.52497 1.00117 0.0
H1092 H 0.7173 0.43693 0.98076 0.0
H1093 H 0.64373 0.38049 0.98378 0.0
C1094 C 0.58235 0.38791 0.99702 0.0
C1095 C 0.55369 0.39672 0.00407 0.0
C1096 C 0.6237 0.42037 0.99421 0.0
C1097 C 0.56622 0.43857 0.00769 0.0
C1098 C 0.60732 0.47082 0.00512 0.0
C1099 C 0.6786 0.49355 0.99716 0.0
C1100 C 0.70804 0.48478 0.99083 0.0
C1101 C 0.6365 0.46188 0.99871 0.0
C1102 C 0.69485 0.44418 0.98562 0.0
C1103 C 0.65296 0.41201 0.98741 0.0
H1104 H 0.46632 0.83671 0.84639 0.0
H1105 H 0.46609 0.83512 0.80019 0.0
H1106 H 0.46246 0.76662 0.8004 0.0
H1107 H 0.46382 0.70927 0.81383 0.0
H1108 H 0.46206 0.71111 0.86008 0.0
H1109 H 0.46148 0.77714 0.85968 0.0
C1110 C 0.46518 0.8213 0.83635 0.0
C1111 C 0.46688 0.84119 0.8233 0.0
C1112 C 0.46283 0.78195 0.83656 0.0
C1113 C 0.46488 0.8205 0.81039 0.0
C1114 C 0.46294 0.7814 0.81051 0.0
C1115 C 0.46305 0.72399 0.82381 0.0
C1116 C 0.46356 0.70543 0.83696 0.0
C1117 C 0.4626 0.76213 0.82354 0.0
C1118 C 0.46197 0.7247 0.84979 0.0
C1119 C 0.46173 0.7626 0.8496 0.0
H1120 H 0.21959 0.63478 0.82451 0.0
H1121 H 0.14608 0.64822 0.85802 0.0
H1122 H 0.20088 0.72131 0.86164 0.0
H1123 H 0.27021 0.78073 0.85581 0.0
H1124 H 0.34586 0.76704 0.82318 0.0
H1125 H 0.28959 0.69476 0.81866 0.0
C1126 C 0.2155 0.65384 0.83253 0.0
C1127 C 0.17884 0.63616 0.84097 0.0
C1128 C 0.24748 0.69574 0.83473 0.0
C1129 C 0.17411 0.66105 0.85142 0.0
C1130 C 0.20538 0.70287 0.85349 0.0
C1131 C 0.2743 0.7621 0.84762 0.0
C1132 C 0.31202 0.77928 0.83979 0.0
C1133 C 0.24226 0.72045 0.84527 0.0
C1134 C 0.31702 0.75453 0.82933 0.0
C1135 C 0.2849 0.71321 0.82675 0.0
H1136 H 0.35132 0.50026 0.85414 0.0
H1137 H 0.37633 0.58467 0.81864 0.0
H1138 H 0.30439 0.57284 0.82017 0.0
H1139 H 0.23509 0.53993 0.83225 0.0
H1140 H 0.21061 0.4534 0.86715 0.0
H1141 H 0.28153 0.46431 0.86509 0.0
C1142 C 0.34101 0.51607 0.84674 0.0
C1143 C 0.36902 0.54352 0.83638 0.0
C1144 C 0.29967 0.50857 0.84754 0.0
C1145 C 0.35517 0.56332 0.8267 0.0
C1146 C 0.31413 0.55662 0.82759 0.0
C1147 C 0.24518 0.52319 0.83931 0.0
C1148 C 0.21756 0.49602 0.84988 0.0
C1149 C 0.28616 0.52945 0.83804 0.0
C1150 C 0.23108 0.47443 0.8589 0.0
C1151 C 0.27175 0.48078 0.85779 0.0
H1152 H 0.44433 0.73452 0.01455 0.0
H1153 H 0.54947 0.84675 0.9971 0.0
H1154 H 0.50517 0.87848 0.99402 0.0
H1155 H 0.4351 0.87109 0.99374 0.0
H1156 H 0.32808 0.7562 0.00891 0.0
H1157 H 0.37438 0.72884 0.01559 0.0
C1158 C 0.4575 0.76619 0.01033 0.0
C1159 C 0.49982 0.78833 0.00599 0.0
C1160 C 0.43142 0.78356 0.00807 0.0
C1161 C 0.51674 0.82912 1.00037 0.0
C1162 C 0.49148 0.84723 0.99862 0.0
C1163 C 0.42201 0.84043 0.99878 0.0
C1164 C 0.3783 0.81567 1.0008 0.0
C1165 C 0.44853 0.82429 0.00205 0.0
C1166 C 0.3617 0.77578 0.0072 0.0
C1167 C 0.38811 0.76008 0.01098 0.0
H1168 H 0.23276 0.70309 0.01055 0.0
H1169 H 0.15523 0.69687 0.97478 0.0
H1170 H 0.12959 0.62167 0.97213 0.0
H1171 H 0.13377 0.55931 0.97861 0.0
H1172 H 0.21451 0.56603 0.01339 0.0
H1173 H 0.23392 0.63921 0.0179 0.0
C1174 C 0.20986 0.6851 0.0023 0.0
C1175 C 0.19617 0.70548 0.99279 0.0
C1176 C 0.19594 0.64201 1.00063 0.0
C1177 C 0.16661 0.6819 0.98212 0.0
C1178 C 0.15187 0.63892 0.98061 0.0
C1179 C 0.15506 0.57652 0.98733 0.0
C1180 C 0.17274 0.5573 0.99562 0.0
C1181 C 0.16699 0.61885 0.9896 0.0
C1182 C 0.20055 0.58018 0.00682 0.0
C1183 C 0.21176 0.62205 0.00938 0.0
H1184 H 0.32084 0.47337 0.9922 0.0
H1185 H 0.29253 0.54719 0.02128 0.0
H1186 H 0.36663 0.60295 0.02114 0.0
H1187 H 0.43853 0.63272 0.01137 0.0
H1188 H 0.46634 0.55765 0.98259 0.0
H1189 H 0.39362 0.50032 0.98417 0.0
C1190 C 0.33094 0.5016 0.99856 0.0
C1191 C 0.30116 0.50638 0.00659 0.0
C1192 C 0.37356 0.53333 0.9985 0.0
C1193 C 0.31483 0.54277 0.01499 0.0
C1194 C 0.35718 0.57471 0.01488 0.0
C1195 C 0.42885 0.6036 0.00559 0.0
C1196 C 0.45795 0.59978 0.99676 0.0
C1197 C 0.38673 0.57063 0.00649 0.0
C1198 C 0.44476 0.56167 0.98943 0.0
C1199 C 0.40304 0.52884 0.99027 0.0
H1200 H 0.16321 0.46946 0.48538 0.0
H1201 H 0.25718 0.53507 0.51796 0.0
H1202 H 0.24722 0.59612 0.51565 0.0
H1203 H 0.21347 0.63181 0.5035 0.0
H1204 H 0.11816 0.56383 0.47139 0.0
H1205 H 0.12692 0.50287 0.47444 0.0
C1206 C 0.18142 0.49708 0.49201 0.0
C1207 C 0.21108 0.49791 0.50173 0.0
C1208 C 0.17532 0.53172 0.49069 0.0
C1209 C 0.23407 0.53365 0.51041 0.0
C1210 C 0.22849 0.56861 0.50904 0.0
C1211 C 0.19446 0.60355 0.49725 0.0
C1212 C 0.16536 0.60261 0.48718 0.0
C1213 C 0.19945 0.56816 0.4991 0.0
C1214 C 0.14082 0.56561 0.47922 0.0
C1215 C 0.14583 0.53063 0.48092 0.0
H1216 H 0.4675 0.69983 0.51915 0.0
H1217 H 0.55949 0.69041 0.49311 0.0
H1218 H 0.50891 0.61686 0.4878 0.0
H1219 H 0.43701 0.55772 0.48858 0.0
H1220 H 0.34269 0.56738 0.51324 0.0
H1221 H 0.39555 0.63805 0.52113 0.0
C1222 C 0.47649 0.68125 0.51256 0.0
C1223 C 0.51694 0.70022 0.5065 0.0
C1224 C 0.44671 0.63923 0.50916 0.0
C1225 C 0.52832 0.67629 0.49781 0.0
C1226 C 0.49945 0.63433 0.49475 0.0
C1227 C 0.42803 0.575 0.49583 0.0
C1228 C 0.38592 0.55738 0.50022 0.0
C1229 C 0.45827 0.61583 0.50005 0.0
C1230 C 0.3749 0.58027 0.50964 0.0
C1231 C 0.4051 0.62075 0.51414 0.0
H1232 H 0.4387 0.85807 0.4889 0.0
H1233 H 0.42046 0.75216 0.51441 0.0
H1234 H 0.34695 0.73272 0.51863 0.0
H1235 H 0.28626 0.74307 0.51346 0.0
H1236 H 0.30522 0.84653 0.48648 0.0
H1237 H 0.3801 0.86995 0.48457 0.0
C1238 C 0.41888 0.83094 0.49551 0.0
C1239 C 0.43507 0.80656 0.50128 0.0
C1240 C 0.37663 0.81946 0.4976 0.0
C1241 C 0.40879 0.77148 0.50981 0.0
C1242 C 0.36671 0.76029 0.51221 0.0
C1243 C 0.30709 0.77107 0.50737 0.0
C1244 C 0.29048 0.7931 0.5001 0.0
C1245 C 0.35006 0.78365 0.50594 0.0
C1246 C 0.31742 0.829 0.49208 0.0
C1247 C 0.36018 0.84239 0.49098 0.0
H1248 H 0.14882 0.50253 0.34943 0.0
H1249 H 0.21596 0.58875 0.31499 0.0
H1250 H 0.27449 0.57545 0.31793 0.0
H1251 H 0.30784 0.5415 0.33091 0.0
H1252 H 0.24004 0.45428 0.36507 0.0
H1253 H 0.18047 0.46548 0.36148 0.0
C1254 C 0.17625 0.51837 0.34255 0.0
C1255 C 0.17813 0.54683 0.33208 0.0
C1256 C 0.20966 0.51031 0.34421 0.0
C1257 C 0.21366 0.56668 0.32314 0.0
C1258 C 0.2472 0.55915 0.32482 0.0
C1259 C 0.2799 0.52463 0.33749 0.0
C1260 C 0.2786 0.49725 0.3483 0.0
C1261 C 0.24569 0.53128 0.3354 0.0
C1262 C 0.242 0.47555 0.35667 0.0
C1263 C 0.20792 0.48206 0.35467 0.0
H1264 H 0.50403 0.66199 0.35317 0.0
H1265 H 0.40975 0.64166 0.32155 0.0
H1266 H 0.42757 0.71517 0.32369 0.0
H1267 H 0.46642 0.78386 0.33583 0.0
H1268 H 0.56122 0.80408 0.36726 0.0
H1269 H 0.54709 0.73231 0.36373 0.0
C1270 C 0.48755 0.6737 0.34668 0.0
C1271 C 0.4553 0.64622 0.33733 0.0
C1272 C 0.49806 0.71607 0.34792 0.0
C1273 C 0.43466 0.66208 0.32886 0.0
C1274 C 0.44477 0.70412 0.3301 0.0
C1275 C 0.48443 0.7728 0.34176 0.0
C1276 C 0.51461 0.79937 0.35189 0.0
C1277 C 0.47595 0.73124 0.33977 0.0
C1278 C 0.53774 0.78444 0.35943 0.0
C1279 C 0.52954 0.74324 0.35747 0.0
H1280 H 0.21454 0.7606 0.35443 0.0
H1281 H 0.22315 0.68527 0.32052 0.0
H1282 H 0.29824 0.73584 0.31784 0.0
H1283 H 0.36283 0.79769 0.32685 0.0
H1284 H 0.3538 0.8703 0.36167 0.0
H1285 H 0.27763 0.82463 0.36223 0.0
C1286 C 0.2326 0.75559 0.34627 0.0
C1287 C 0.21331 0.71912 0.33776 0.0
C1288 C 0.27593 0.78405 0.34508 0.0
C1289 C 0.23729 0.71307 0.32726 0.0
C1290 C 0.28029 0.74186 0.32576 0.0
C1291 C 0.3441 0.80371 0.33445 0.0
C1292 C 0.36402 0.83694 0.34433 0.0
C1293 C 0.30019 0.77684 0.33489 0.0
C1294 C 0.33934 0.8445 0.35409 0.0
C1295 C 0.29572 0.81849 0.3544 0.0
H1296 H 0.25789 0.36282 0.18796 0.0
H1297 H 0.23793 0.32918 0.14311 0.0
H1298 H 0.31118 0.34781 0.14061 0.0
H1299 H 0.37986 0.36926 0.15134 0.0
H1300 H 0.4019 0.40584 0.1958 0.0
H1301 H 0.32905 0.3905 0.19826 0.0
C1302 C 0.26971 0.36012 0.1776 0.0
C1303 C 0.24217 0.34412 0.16581 0.0
C1304 C 0.31217 0.37095 0.17618 0.0
C1305 C 0.25819 0.34109 0.15243 0.0
C1306 C 0.30014 0.35159 0.15097 0.0
C1307 C 0.36867 0.37386 0.16156 0.0
C1308 C 0.39589 0.3881 0.17341 0.0
C1309 C 0.32713 0.36566 0.16282 0.0
C1310 C 0.38137 0.39478 0.18653 0.0
C1311 C 0.33975 0.38598 0.18794 0.0
H1312 H 0.61656 0.99227 0.15308 0.0
H1313 H 0.59364 0.98057 0.19864 0.0
H1314 H 0.62178 0.9328 0.20037 0.0
H1315 H 0.6583 0.89902 0.18918 0.0
H1316 H 0.68028 0.91098 0.14352 0.0
H1317 H 0.64674 0.95356 0.14164 0.0
C1318 C 0.61746 0.97908 0.16338 0.0
C1319 C 0.60356 0.99043 0.17572 0.0
C1320 C 0.63364 0.95172 0.16431 0.0
C1321 C 0.60431 0.97249 0.18896 0.0
C1322 C 0.6205 0.94525 0.18998 0.0
C1323 C 0.65523 0.91045 0.1788 0.0
C1324 C 0.67236 0.90225 0.16657 0.0
C1325 C 0.63604 0.93529 0.17776 0.0
C1326 C 0.66784 0.91713 0.15317 0.0
C1327 C 0.6487 0.9416 0.15205 0.0
H1328 H 0.0762 0.74659 0.17616 0.0
H1329 H 0.05175 0.76144 0.13192 0.0
H1330 H 0.99865 0.687 0.13056 0.0
H1331 H 0.95872 0.61758 0.1419 0.0
H1332 H 0.98373 0.60254 0.18606 0.0
H1333 H 0.03673 0.677 0.18744 0.0
C1334 C 0.05939 0.73353 0.16621 0.0
C1335 C 0.06802 0.75965 0.15419 0.0
C1336 C 0.02875 0.69061 0.16547 0.0
C1337 C 0.04582 0.74213 0.14137 0.0
C1338 C 0.01533 0.69952 0.14057 0.0
C1339 C 0.97562 0.6306 0.15184 0.0
C1340 C 0.96711 0.60441 0.16384 0.0
C1341 C 0.0064 0.67348 0.15256 0.0
C1342 C 0.9896 0.62186 0.17662 0.0
C1343 C 0.01999 0.66451 0.17744 0.0
H1344 H 0.25723 0.25561 0.34041 0.0
H1345 H 0.37288 0.25223 0.34299 0.0
H1346 H 0.4137 0.32939 0.34212 0.0
H1347 H 0.41616 0.39828 0.34141 0.0
H1348 H 0.30028 0.4004 0.33689 0.0
H1349 H 0.25978 0.32343 0.33787 0.0
C1350 C 0.2914 0.2718 0.34068 0.0
C1351 C 0.31204 0.24836 0.34182 0.0
C1352 C 0.31454 0.31598 0.33998 0.0
C1353 C 0.35631 0.26963 0.34201 0.0
C1354 C 0.37962 0.31374 0.34162 0.0
C1355 C 0.38205 0.38169 0.34071 0.0
C1356 C 0.36101 0.40469 0.33929 0.0
C1357 C 0.35906 0.33729 0.34079 0.0
C1358 C 0.31694 0.38313 0.33806 0.0
C1359 C 0.29384 0.33921 0.3386 0.0
H1360 H 0.62316 0.98252 0.33101 0.0
H1361 H 0.5855 0.02412 0.36857 0.0
H1362 H 0.65798 0.07983 0.37244 0.0
H1363 H 0.73248 0.1137 0.36623 0.0
H1364 H 0.77167 0.07016 0.32957 0.0
H1365 H 0.69819 0.01869 0.32419 0.0
C1366 C 0.63082 0.00402 0.33996 0.0
C1367 C 0.59904 0.99895 0.34954 0.0
C1368 C 0.67284 0.03564 0.34231 0.0
C1369 C 0.60944 0.02702 0.36112 0.0
C1370 C 0.65087 0.05899 0.36333 0.0
C1371 C 0.72498 0.09339 0.35694 0.0
C1372 C 0.75749 0.09572 0.34834 0.0
C1373 C 0.6829 0.06316 0.35414 0.0
C1374 C 0.74719 0.06894 0.33639 0.0
C1375 C 0.7052 0.0394 0.33333 0.0
H1376 H 0.89574 0.637 0.31561 0.0
H1377 H 0.89956 0.65044 0.36164 0.0
H1378 H 0.9509 0.6271 0.36327 0.0
H1379 H 0.9979 0.60684 0.35166 0.0
H1380 H 0.99421 0.59272 0.30567 0.0
H1381 H 0.93969 0.61212 0.30407 0.0
C1382 C 0.90745 0.63438 0.32601 0.0
C1383 C 0.89401 0.64586 0.33845 0.0
C1384 C 0.93731 0.62108 0.32691 0.0
C1385 C 0.9095 0.64213 0.35185 0.0
C1386 C 0.93898 0.62883 0.35282 0.0
C1387 C 0.98508 0.60781 0.34128 0.0
C1388 C 0.00049 0.5987 0.32882 0.0
C1389 C 0.95367 0.61894 0.34041 0.0
C1390 C 0.98311 0.59972 0.31547 0.0
C1391 C 0.95191 0.61087 0.31452 0.0
H1392 H 0.61468 0.59732 0.82499 0.0
H1393 H 0.60125 0.68356 0.85308 0.0
H1394 H 0.67698 0.72373 0.85653 0.0
H1395 H 0.74651 0.73316 0.85262 0.0
H1396 H 0.76255 0.64768 0.82514 0.0
H1397 H 0.68648 0.60873 0.82033 0.0
C1398 C 0.62842 0.62507 0.83177 0.0
C1399 C 0.60207 0.63706 0.83885 0.0
C1400 C 0.67245 0.64813 0.83389 0.0
C1401 C 0.6205 0.67317 0.84761 0.0
C1402 C 0.66393 0.69633 0.84959 0.0
C1403 C 0.73355 0.70604 0.84555 0.0
C1404 C 0.76018 0.69316 0.83935 0.0
C1405 C 0.69008 0.68379 0.84296 0.0
C1406 C 0.74273 0.65821 0.83009 0.0
C1407 C 0.69922 0.6359 0.82736 0.0
H1408 H 0.29553 0.02172 0.8615 0.0
H1409 H 0.35166 0.11577 0.82837 0.0
H1410 H 0.3938 0.08465 0.82046 0.0
H1411 H 0.41448 0.03014 0.82302 0.0
H1412 H 0.35724 0.93711 0.85654 0.0
H1413 H 0.3159 0.96847 0.86413 0.0
C1414 C 0.31698 0.03556 0.85255 0.0
C1415 C 0.3204 0.07103 0.84556 0.0
C1416 C 0.34098 0.01761 0.84808 0.0
C1417 C 0.34844 0.08847 0.83397 0.0
C1418 C 0.37251 0.07065 0.82943 0.0
C1419 C 0.39294 0.01674 0.83196 0.0
C1420 C 0.3892 0.98126 0.83916 0.0
C1421 C 0.36901 0.03511 0.8364 0.0
C1422 C 0.36108 0.96442 0.85077 0.0
C1423 C 0.33726 0.98231 0.85516 0.0
H1424 H 0.91935 0.25687 0.82509 0.0
H1425 H 0.92353 0.24776 0.87109 0.0
H1426 H 0.97066 0.32378 0.87278 0.0
H1427 H 0.01335 0.39231 0.8611 0.0
H1428 H 0.01086 0.40049 0.81499 0.0
H1429 H 0.96039 0.32552 0.81349 0.0
C1430 C 0.93014 0.27156 0.8355 0.0
C1431 C 0.91802 0.2467 0.84793 0.0
C1432 C 0.95781 0.31515 0.83639 0.0
C1433 C 0.93253 0.2662 0.86134 0.0
C1434 C 0.95956 0.30966 0.86232 0.0
C1435 C 0.00171 0.37776 0.85072 0.0
C1436 C 0.01588 0.40223 0.83819 0.0
C1437 C 0.97292 0.33436 0.84989 0.0
C1438 C 0.00034 0.38271 0.82484 0.0
C1439 C 0.97149 0.33968 0.82395 0.0
H1440 H 0.60629 0.63122 0.6762 0.0
H1441 H 0.67644 0.61275 0.64256 0.0
H1442 H 0.71726 0.68807 0.63859 0.0
H1443 H 0.7325 0.75879 0.64405 0.0
H1444 H 0.66321 0.78004 0.67717 0.0
H1445 H 0.6228 0.7041 0.68197 0.0
C1446 C 0.63061 0.64376 0.66805 0.0
C1447 C 0.63798 0.61615 0.65965 0.0
C1448 C 0.65413 0.68757 0.66569 0.0
C1449 C 0.66965 0.633 0.64912 0.0
C1450 C 0.69321 0.6762 0.64683 0.0
C1451 C 0.70863 0.74701 0.65236 0.0
C1452 C 0.70082 0.77506 0.6602 0.0
C1453 C 0.68553 0.70367 0.65496 0.0
C1454 C 0.6698 0.75908 0.67095 0.0
C1455 C 0.64669 0.71567 0.67369 0.0
H1456 H 0.3788 0.98976 0.67182 0.0
H1457 H 0.40092 0.06011 0.6325 0.0
H1458 H 0.32647 0.02104 0.62695 0.0
H1459 H 0.25495 0.96968 0.6334 0.0
H1460 H 0.22958 0.8982 0.67243 0.0
H1461 H 0.3054 0.93449 0.67782 0.0
C1462 C 0.36731 0.99636 0.66202 0.0
C1463 C 0.39569 0.02821 0.65269 0.0
C1464 C 0.32387 0.97359 0.6588 0.0
C1465 C 0.38011 0.03611 0.63998 0.0
C1466 C 0.33738 0.01372 0.63674 0.0
C1467 C 0.26588 0.9618 0.64309 0.0
C1468 C 0.2367 0.93157 0.65256 0.0
C1469 C 0.30902 0.98284 0.64612 0.0
C1470 C 0.25149 0.92138 0.66495 0.0
C1471 C 0.29479 0.94228 0.66806 0.0
H1472 H 0.98521 0.37147 0.64942 0.0
H1473 H 0.00916 0.41193 0.69358 0.0
H1474 H 0.05995 0.38759 0.69549 0.0
H1475 H 0.0959 0.35271 0.68482 0.0
H1476 H 0.07179 0.31302 0.64057 0.0
H1477 H 0.02295 0.33943 0.63854 0.0
C1478 C 0.00153 0.37505 0.65947 0.0
C1479 C 0.99313 0.39326 0.67135 0.0
C1480 C 0.03074 0.36114 0.6605 0.0
C1481 C 0.01493 0.39796 0.68425 0.0
C1482 C 0.04398 0.38401 0.68537 0.0
C1483 C 0.08017 0.35007 0.67471 0.0
C1484 C 0.0874 0.3307 0.66291 0.0
C1485 C 0.05191 0.36528 0.67359 0.0
C1486 C 0.06679 0.32766 0.64987 0.0
C1487 C 0.03875 0.3427 0.64868 0.0
H1488 H 0.91666 0.61854 0.4706 0.0
H1489 H 0.88777 0.65846 0.51035 0.0
H1490 H 0.96312 0.69767 0.51644 0.0
H1491 H 0.03743 0.71844 0.51059 0.0
H1492 H 0.06276 0.67644 0.47044 0.0
H1493 H 0.98867 0.64033 0.4645 0.0
C1494 C 0.92665 0.6358 0.48062 0.0
C1495 C 0.89661 0.63533 0.49004 0.0
C1496 C 0.96956 0.6579 0.48402 0.0
C1497 C 0.91032 0.65832 0.50289 0.0
C1498 C 0.95338 0.68063 0.50639 0.0
C1499 C 0.02669 0.70152 0.50054 0.0
C1500 C 0.05596 0.70012 0.49107 0.0
C1501 C 0.98336 0.68034 0.49707 0.0
C1502 C 0.04131 0.67805 0.47805 0.0
C1503 C 0.99876 0.65728 0.47457 0.0
H1504 H 0.37409 0.2922 0.46761 0.0
H1505 H 0.33375 0.21927 0.50652 0.0
H1506 H 0.29773 0.25742 0.51399 0.0
H1507 H 0.27977 0.31365 0.50958 0.0
H1508 H 0.32208 0.3852 0.47025 0.0
H1509 H 0.35524 0.34544 0.46296 0.0
C1510 C 0.3574 0.28443 0.47774 0.0
C1511 C 0.35682 0.25308 0.48652 0.0
C1512 C 0.33718 0.30646 0.48194 0.0
C1513 C 0.33464 0.24327 0.49954 0.0
C1514 C 0.31418 0.2652 0.50383 0.0
C1515 C 0.29618 0.32044 0.49941 0.0
C1516 C 0.2984 0.35267 0.49056 0.0
C1517 C 0.31555 0.29721 0.49515 0.0
C1518 C 0.31975 0.36083 0.47738 0.0
C1519 C 0.33885 0.33805 0.47313 0.0
H1520 H 0.69344 0.95036 0.51511 0.0
H1521 H 0.59189 0.93148 0.48688 0.0
H1522 H 0.62816 0.00596 0.48127 0.0
H1523 H 0.68878 0.0758 0.48362 0.0
H1524 H 0.79177 0.09745 0.51142 0.0
H1525 H 0.75482 0.02259 0.51795 0.0
C1526 C 0.67922 0.96267 0.50781 0.0
C1527 C 0.64011 0.93517 0.50136 0.0
C1528 C 0.70052 0.00595 0.50447 0.0
C1529 C 0.62211 0.95167 0.49191 0.0
C1530 C 0.64279 0.99437 0.48868 0.0
C1531 C 0.70336 0.06431 0.4911 0.0
C1532 C 0.7431 0.09209 0.49693 0.0
C1533 C 0.68211 0.02163 0.49475 0.0
C1534 C 0.76121 0.07661 0.50672 0.0
C1535 C 0.74009 0.03385 0.51046 0.0
H1536 H 0.0892 0.73831 0.67571 0.0
H1537 H 0.98386 0.7416 0.65655 0.0
H1538 H 0.93976 0.66538 0.65962 0.0
H1539 H 0.93034 0.59842 0.66892 0.0
H1540 H 0.03692 0.59415 0.68646 0.0
H1541 H 0.08162 0.67013 0.68278 0.0
C1542 C 0.05666 0.72215 0.67212 0.0
C1543 C 0.03958 0.7453 0.66602 0.0
C1544 C 0.03182 0.67831 0.67367 0.0
C1545 C 0.99763 0.72423 0.66123 0.0
C1546 C 0.97239 0.68076 0.66304 0.0
C1547 C 0.96343 0.61422 0.67185 0.0
C1548 C 0.98039 0.59113 0.67808 0.0
C1549 C 0.98901 0.6576 0.66943 0.0
C1550 C 0.02335 0.61151 0.68163 0.0
C1551 C 0.04881 0.65488 0.67959 0.0
H1552 H 0.28683 0.34061 0.65504 0.0
H1553 H 0.24768 0.36215 0.69626 0.0
H1554 H 0.31842 0.42081 0.70071 0.0
H1555 H 0.39272 0.46234 0.69384 0.0
H1556 H 0.43343 0.43806 0.65341 0.0
H1557 H 0.36089 0.38473 0.64764 0.0
C1558 C 0.29369 0.35844 0.66492 0.0
C1559 C 0.26204 0.34674 0.67534 0.0
C1560 C 0.33483 0.39171 0.66758 0.0
C1561 C 0.27153 0.37014 0.68811 0.0
C1562 C 0.31199 0.4038 0.69067 0.0
C1563 C 0.38562 0.44597 0.68365 0.0
C1564 C 0.41841 0.45421 0.67407 0.0
C1565 C 0.34408 0.41438 0.68061 0.0
C1566 C 0.40873 0.43228 0.66098 0.0
C1567 C 0.36727 0.40165 0.65769 0.0
H1568 H 0.67309 0.95623 0.65588 0.0
H1569 H 0.70515 0.96583 0.70076 0.0
H1570 H 0.66063 0.99612 0.7058 0.0
H1571 H 0.61421 0.02162 0.69749 0.0
H1572 H 0.57903 0.00986 0.65292 0.0
H1573 H 0.62283 0.97834 0.64773 0.0
C1574 C 0.67024 0.96495 0.66675 0.0
C1575 C 0.69256 0.95901 0.67791 0.0
C1576 C 0.644 0.98185 0.66963 0.0
C1577 C 0.68821 0.96995 0.69198 0.0
C1578 C 0.66284 0.98738 0.69488 0.0
C1579 C 0.61602 0.01204 0.68664 0.0
C1580 C 0.59368 0.01826 0.67559 0.0
C1581 C 0.64082 0.99369 0.68379 0.0
C1582 C 0.59587 0.00523 0.66162 0.0
C1583 C 0.62104 0.98741 0.65864 0.0
H1584 H 0.26877 0.95023 0.18729 0.0
H1585 H 0.26417 0.9197 0.14241 0.0
H1586 H 0.33841 0.93941 0.14313 0.0
H1587 H 0.40584 0.96946 0.15618 0.0
H1588 H 0.40959 0.00026 0.20102 0.0
H1589 H 0.33452 0.97609 0.20059 0.0
C1590 C 0.28383 0.94758 0.17766 0.0
C1591 C 0.26088 0.9338 0.1648 0.0
C1592 C 0.32654 0.95919 0.17811 0.0
C1593 C 0.281 0.93031 0.15247 0.0
C1594 C 0.32354 0.94168 0.15285 0.0
C1595 C 0.39015 0.9705 0.16589 0.0
C1596 C 0.4135 0.98698 0.17858 0.0
C1597 C 0.3468 0.95678 0.16557 0.0
C1598 C 0.39257 0.988 0.19107 0.0
C1599 C 0.34957 0.97421 0.19085 0.0
H1600 H 0.96734 0.38334 0.1981 0.0
H1601 H 0.97927 0.42086 0.15382 0.0
H1602 H 0.02186 0.38766 0.14903 0.0
H1603 H 0.0535 0.34557 0.15748 0.0
H1604 H 0.04299 0.31175 0.20224 0.0
H1605 H 0.00234 0.3462 0.20678 0.0
C1606 C 0.97924 0.38422 0.18739 0.0
C1607 C 0.96988 0.40394 0.17629 0.0
C1608 C 0.00405 0.36583 0.18481 0.0
C1609 C 0.98611 0.40568 0.16253 0.0
C1610 C 0.01034 0.38666 0.15979 0.0
C1611 C 0.04252 0.34603 0.16822 0.0
C1612 C 0.05117 0.32591 0.17946 0.0
C1613 C 0.01923 0.36632 0.17085 0.0
C1614 C 0.03699 0.32706 0.19337 0.0
C1615 C 0.01351 0.3466 0.196 0.0
H1616 H 0.61533 0.59494 0.15516 0.0
H1617 H 0.55332 0.59934 0.19391 0.0
H1618 H 0.59891 0.67551 0.19503 0.0
H1619 H 0.6596 0.74012 0.18604 0.0
H1620 H 0.72153 0.73608 0.14725 0.0
H1621 H 0.67271 0.66049 0.14516 0.0
C1622 C 0.61137 0.6126 0.16374 0.0
C1623 C 0.58122 0.59137 0.17449 0.0
C1624 C 0.638 0.65641 0.16443 0.0
C1625 C 0.5764 0.61481 0.18551 0.0
C1626 C 0.6026 0.6584 0.18621 0.0
C1627 C 0.66238 0.72272 0.17712 0.0
C1628 C 0.69448 0.74355 0.16694 0.0
C1629 C 0.63411 0.67936 0.17592 0.0
C1630 C 0.69725 0.72071 0.1553 0.0
C1631 C 0.66934 0.67749 0.15408 0.0
H1632 H 0.27365 0.95366 0.00388 0.0
H1633 H 0.34419 0.94188 0.96888 0.0
H1634 H 0.38062 0.01761 0.9652 0.0
H1635 H 0.39315 0.08707 0.97188 0.0
H1636 H 0.32275 0.10031 0.00652 0.0
H1637 H 0.28553 0.02402 0.01034 0.0
C1638 C 0.29698 0.96766 0.99544 0.0
C1639 C 0.30612 0.94199 0.98669 0.0
C1640 C 0.31787 0.01146 0.99331 0.0
C1641 C 0.33635 0.96072 0.97577 0.0
C1642 C 0.35733 0.00411 0.97365 0.0
C1643 C 0.36968 0.07337 0.98028 0.0
C1644 C 0.36081 0.09931 0.98892 0.0
C1645 C 0.34841 0.02973 0.98236 0.0
C1646 C 0.33012 0.08097 0.9997 0.0
C1647 C 0.30889 0.03739 1.0019 0.0
H1648 H 0.05086 0.31898 0.01546 0.0
H1649 H 0.0712 0.37367 0.97317 0.0
H1650 H 0.9974 0.32771 0.96735 0.0
H1651 H 0.92673 0.27379 0.97424 0.0
H1652 H 0.90444 0.21735 0.01618 0.0
H1653 H 0.9793 0.26197 0.02209 0.0
C1654 C 0.03915 0.32074 0.00497 0.0
C1655 C 0.06674 0.35003 0.99483 0.0
C1656 C 0.99629 0.29394 1.0016 0.0
C1657 C 0.05094 0.35161 0.98124 0.0
C1658 C 0.0086 0.32532 0.97786 0.0
C1659 C 0.93816 0.27111 0.98469 0.0
C1660 C 0.91 0.24249 0.99478 0.0
C1661 C 0.98098 0.29667 0.98797 0.0
C1662 C 0.92549 0.23914 0.0082 0.0
C1663 C 0.96827 0.26474 0.0116 0.0
H1664 H 0.67936 0.58354 0.99375 0.0
H1665 H 0.79507 0.69826 0.98451 0.0
H1666 H 0.76171 0.73977 0.99065 0.0
H1667 H 0.69791 0.74269 0.99722 0.0
H1668 H 0.58455 0.62829 0.00866 0.0
H1669 H 0.61866 0.58705 0.00324 0.0
C1670 C 0.69733 0.61764 0.99327 0.0
C1671 C 0.73936 0.63797 0.98861 0.0
C1672 C 0.67832 0.64115 0.99717 0.0
C1673 C 0.76263 0.68212 0.98812 0.0
C1674 C 0.74354 0.70577 0.99156 0.0
C1675 C 0.68106 0.70879 0.99867 0.0
C1676 C 0.63893 0.68827 0.00321 0.0
C1677 C 0.70121 0.68556 0.99589 0.0
C1678 C 0.61715 0.6445 0.00522 0.0
C1679 C 0.63653 0.621 0.00206 0.0
H1680 H 0.73664 0.07265 0.85337 0.0
H1681 H 0.7544 0.06099 0.80818 0.0
H1682 H 0.6812 0.03967 0.80356 0.0
H1683 H 0.61161 0.02166 0.81221 0.0
H1684 H 0.59168 0.03105 0.85729 0.0
H1685 H 0.66629 0.05633 0.86201 0.0
C1686 C 0.72454 0.06562 0.84251 0.0
C1687 C 0.75116 0.0683 0.83117 0.0
C1688 C 0.682 0.05298 0.83987 0.0
C1689 C 0.73481 0.05907 0.81716 0.0
C1690 C 0.69284 0.04687 0.81447 0.0
C1691 C 0.62349 0.02947 0.82308 0.0
C1692 C 0.59595 0.02429 0.83438 0.0
C1693 C 0.6661 0.04336 0.82573 0.0
C1694 C 0.61212 0.0347 0.84838 0.0
C1695 C 0.65479 0.04904 0.8511 0.0
H1696 H 0.97167 0.68665 0.84397 0.0
H1697 H 0.90576 0.6531 0.80348 0.0
H1698 H 0.92452 0.5987 0.79988 0.0
H1699 H 0.96237 0.56311 0.80758 0.0
H1700 H 0.03235 0.59928 0.84723 0.0
H1701 H 0.00884 0.64993 0.8519 0.0
C1702 C 0.96122 0.66726 0.8344 0.0
C1703 C 0.93749 0.67403 0.82398 0.0
C1704 C 0.97278 0.6365 0.83226 0.0
C1705 C 0.92433 0.64877 0.81161 0.0
C1706 C 0.93494 0.61757 0.80956 0.0
C1707 C 0.97206 0.58165 0.81734 0.0
C1708 C 0.99894 0.57737 0.82707 0.0
C1709 C 0.9595 0.61147 0.81973 0.0
C1710 C 0.01163 0.60202 0.83958 0.0
C1711 C 0.99831 0.63104 0.84223 0.0
H1712 H 0.31683 0.27919 0.84926 0.0
H1713 H 0.34653 0.23981 0.80945 0.0
H1714 H 0.40136 0.31185 0.80459 0.0
H1715 H 0.43897 0.38628 0.81093 0.0
H1716 H 0.40793 0.4278 0.84994 0.0
H1717 H 0.35605 0.35476 0.85588 0.0
C1718 C 0.33545 0.28638 0.83956 0.0
C1719 C 0.32734 0.25399 0.82973 0.0
C1720 C 0.36682 0.32828 0.83668 0.0
C1721 C 0.35176 0.26398 0.81719 0.0
C1722 C 0.38329 0.30524 0.81439 0.0
C1723 C 0.42129 0.37946 0.82084 0.0
C1724 C 0.42748 0.41255 0.82999 0.0
C1725 C 0.39085 0.33766 0.82398 0.0
C1726 C 0.40388 0.40295 0.84271 0.0
C1727 C 0.37408 0.36118 0.84608 0.0
H1728 H 0.61206 0.90055 0.03388 0.0
H1729 H 0.6769 0.87847 0.9994 0.0
H1730 H 0.71427 0.95396 0.99366 0.0
H1731 H 0.72764 0.02629 0.99848 0.0
H1732 H 0.66137 0.04554 0.03331 0.0
H1733 H 0.62546 0.97095 0.0388 0.0
C1734 C 0.63438 0.91203 0.0251 0.0
C1735 C 0.64164 0.88384 0.01708 0.0
C1736 C 0.65549 0.95506 0.0219 0.0
C1737 C 0.67079 0.89952 0.00577 0.0
C1738 C 0.69208 0.94265 0.00248 0.0
C1739 C 0.70536 0.01414 0.00727 0.0
C1740 C 0.69735 0.04176 0.01544 0.0
C1741 C 0.68457 0.97076 0.01046 0.0
C1742 C 0.66838 0.02533 0.02682 0.0
C1743 C 0.64769 0.98254 0.02999 0.0
H1744 H 0.95174 0.67889 0.98443 0.0
H1745 H 0.93941 0.58301 0.01409 0.0
H1746 H 0.01366 0.62483 0.0202 0.0
H1747 H 0.08112 0.68908 0.01794 0.0
H1748 H 0.09543 0.78646 0.98871 0.0
H1749 H 0.0213 0.74359 0.98164 0.0
C1750 C 0.96549 0.66704 0.9921 0.0
C1751 C 0.93999 0.62797 0.99883 0.0
C1752 C 0.00837 0.69161 0.99576 0.0
C1753 C 0.95819 0.61311 0.00883 0.0
C1754 C 0.00068 0.63699 0.01235 0.0
C1755 C 0.06815 0.70113 0.01004 0.0
C1756 C 0.09367 0.74105 0.00395 0.0
C1757 C 0.02585 0.67646 0.00605 0.0
C1758 C 0.07634 0.75588 0.99362 0.0
C1759 C 0.03401 0.73136 0.98956 0.0
H1760 H 0.24577 0.33973 0.00308 0.0
H1761 H 0.29815 0.389 0.04484 0.0
H1762 H 0.34437 0.3595 0.04286 0.0
H1763 H 0.37113 0.32169 0.02926 0.0
H1764 H 0.3216 0.27347 0.98716 0.0
H1765 H 0.27279 0.30045 0.98934 0.0
C1766 C 0.2671 0.34368 0.01177 0.0
C1767 C 0.26855 0.36654 0.02408 0.0
C1768 C 0.29414 0.32702 0.0105 0.0
C1769 C 0.29653 0.37171 0.03522 0.0
C1770 C 0.32298 0.35484 0.03412 0.0
C1771 C 0.34977 0.31697 0.02051 0.0
C1772 C 0.35027 0.29573 0.00804 0.0
C1773 C 0.32228 0.3328 0.02178 0.0
C1774 C 0.32202 0.28981 0.99688 0.0
C1775 C 0.2941 0.30523 0.99812 0.0
H1776 H 0.07469 0.35216 0.53468 0.0
H1777 H 0.10066 0.32895 0.49163 0.0
H1778 H 0.02562 0.29625 0.48562 0.0
H1779 H 0.95234 0.27491 0.49271 0.0
H1780 H 0.92792 0.29607 0.53627 0.0
H1781 H 0.00261 0.32913 0.54192 0.0
C1782 C 0.06399 0.33994 0.52397 0.0
C1783 C 0.09314 0.34311 0.5136 0.0
C1784 C 0.02103 0.32093 0.52067 0.0
C1785 C 0.07872 0.32671 0.49982 0.0
C1786 C 0.03588 0.3082 0.49637 0.0
C1787 C 0.96354 0.2869 0.5034 0.0
C1788 C 0.93469 0.2831 0.51404 0.0
C1789 C 0.00671 0.30528 0.5067 0.0
C1790 C 0.94946 0.29837 0.5279 0.0
C1791 C 0.99218 0.31736 0.53116 0.0
H1792 H 0.6061 0.67687 0.5131 0.0
H1793 H 0.72368 0.79293 0.51838 0.0
H1794 H 0.76273 0.75591 0.51374 0.0
H1795 H 0.76279 0.68933 0.50912 0.0
H1796 H 0.64486 0.57522 0.50158 0.0
H1797 H 0.60626 0.61246 0.50616 0.0
C1798 C 0.64029 0.69402 0.51312 0.0
C1799 C 0.66217 0.73729 0.51618 0.0
C1800 C 0.66227 0.67278 0.51012 0.0
C1801 C 0.70638 0.75953 0.516 0.0
C1802 C 0.7286 0.73835 0.51343 0.0
C1803 C 0.72867 0.67289 0.50847 0.0
C1804 C 0.70644 0.6297 0.50521 0.0
C1805 C 0.70684 0.69484 0.51065 0.0
C1806 C 0.66237 0.60853 0.50411 0.0
C1807 C 0.64038 0.62974 0.50674 0.0
H1808 H 0.31888 0.91636 0.50298 0.0
H1809 H 0.20337 0.91534 0.51243 0.0
H1810 H 0.23898 0.99189 0.509 0.0
H1811 H 0.3042 0.05966 0.50415 0.0
H1812 H 0.41753 0.05893 0.4925 0.0
H1813 H 0.3818 0.98256 0.49596 0.0
C1814 C 0.30152 0.93296 0.50418 0.0
C1815 C 0.25877 0.91056 0.50804 0.0
C1816 C 0.32192 0.97661 0.50188 0.0
C1817 C 0.23631 0.93209 0.5094 0.0
C1818 C 0.25671 0.97581 0.50752 0.0
C1819 C 0.32083 0.04256 0.50236 0.0
C1820 C 0.36339 0.06458 0.49823 0.0
C1821 C 0.29966 0.99848 0.50392 0.0
C1822 C 0.3847 0.04237 0.49569 0.0
C1823 C 0.36434 0.99883 0.49768 0.0
H1824 H 0.99757 0.41682 0.34814 0.0
H1825 H 0.02276 0.42087 0.3028 0.0
H1826 H 0.99603 0.34539 0.30265 0.0
H1827 H 0.96719 0.27869 0.31529 0.0
H1828 H 0.94247 0.27346 0.36068 0.0
H1829 H 0.96724 0.34888 0.36085 0.0
C1830 C 0.99693 0.4011 0.33822 0.0
C1831 C 0.01225 0.42451 0.32553 0.0
C1832 C 0.98175 0.35751 0.3382 0.0
C1833 C 0.01136 0.4037 0.31276 0.0
C1834 C 0.99607 0.36048 0.31264 0.0
C1835 C 0.96713 0.2939 0.32525 0.0
C1836 C 0.95293 0.2703 0.33795 0.0
C1837 C 0.98153 0.33717 0.3253 0.0
C1838 C 0.95306 0.29072 0.35072 0.0
C1839 C 0.96729 0.33392 0.35085 0.0
H1840 H 0.69688 0.64171 0.34765 0.0
H1841 H 0.72459 0.69784 0.30547 0.0
H1842 H 0.65022 0.66123 0.29964 0.0
H1843 H 0.57736 0.61672 0.3066 0.0
H1844 H 0.5465 0.55935 0.34842 0.0
H1845 H 0.62192 0.5926 0.35422 0.0
C1846 C 0.68662 0.6456 0.33715 0.0
C1847 C 0.71656 0.67299 0.3271 0.0
C1848 C 0.64321 0.62439 0.33379 0.0
C1849 C 0.70254 0.67747 0.31352 0.0
C1850 C 0.65986 0.65648 0.31012 0.0
C1851 C 0.58698 0.61129 0.317 0.0
C1852 C 0.55637 0.58596 0.32711 0.0
C1853 C 0.62998 0.63048 0.32022 0.0
C1854 C 0.5695 0.57879 0.34044 0.0
C1855 C 0.6126 0.59792 0.34377 0.0
H1856 H 0.35001 0.06607 0.34343 0.0
H1857 H 0.26633 0.9934 0.30889 0.0
H1858 H 0.30543 0.9569 0.30539 0.0
H1859 H 0.3621 0.94438 0.31212 0.0
H1860 H 0.44693 0.01581 0.34644 0.0
H1861 H 0.40868 0.05405 0.34997 0.0
C1862 C 0.34041 0.04232 0.33512 0.0
C1863 C 0.30512 0.03259 0.32648 0.0
C1864 C 0.36316 0.02115 0.3331 0.0
C1865 C 0.29324 0.00171 0.31574 0.0
C1866 C 0.31558 0.98067 0.3137 0.0
C1867 C 0.3724 0.96834 0.32039 0.0
C1868 C 0.40726 0.97713 0.32902 0.0
C1869 C 0.3504 0.99 0.32234 0.0
C1870 C 0.42017 0.00843 0.33963 0.0
C1871 C 0.39828 0.03025 0.34166 0.0
H1872 H 0.11307 0.29598 0.0612 0.0
H1873 H 0.17237 0.43041 0.06753 0.0
H1874 H 0.16338 0.41997 0.0934 0.0
H1875 H 0.14129 0.3731 0.1142 0.0
H1876 H 0.08367 0.23878 0.10803 0.0
H1877 H 0.0892 0.24883 0.08206 0.0
C1878 C 0.12385 0.32303 0.06822 0.0
C1879 C 0.14348 0.36395 0.06241 0.0
C1880 C 0.11894 0.31683 0.0831 0.0
C1881 C 0.15725 0.39859 0.07169 0.0
C1882 C 0.15214 0.39265 0.08649 0.0
C1883 C 0.12965 0.34592 0.1072 0.0
C1884 C 0.11217 0.30522 0.11308 0.0
C1885 C 0.1334 0.35196 0.09231 0.0
C1886 C 0.09732 0.27044 0.10381 0.0
C1887 C 0.10054 0.27618 0.08896 0.0
H1888 H 0.70812 0.82293 0.05915 0.0
H1889 H 0.5769 0.74728 0.07069 0.0
H1890 H 0.59562 0.76055 0.09603 0.0
H1891 H 0.64893 0.79318 0.11484 0.0
H1892 H 0.78014 0.87013 0.10353 0.0
H1893 H 0.76163 0.85682 0.07809 0.0
C1894 C 0.68357 0.80923 0.0672 0.0
C1895 C 0.6411 0.78393 0.06299 0.0
C1896 C 0.69455 0.81727 0.08177 0.0
C1897 C 0.60976 0.76679 0.07359 0.0
C1898 C 0.62047 0.77437 0.08809 0.0
C1899 C 0.67362 0.80709 0.10684 0.0
C1900 C 0.71596 0.83252 0.11112 0.0
C1901 C 0.66272 0.79949 0.09229 0.0
C1902 C 0.74735 0.85045 0.10056 0.0
C1903 C 0.73677 0.84279 0.08601 0.0
H1904 H 0.20693 0.84933 0.10253 0.0
H1905 H 0.14684 0.92342 0.09586 0.0
H1906 H 0.15537 0.92085 0.06995 0.0
H1907 H 0.17776 0.89541 0.04919 0.0
H1908 H 0.23683 0.82041 0.05613 0.0
H1909 H 0.23079 0.82558 0.08197 0.0
C1910 C 0.19582 0.86513 0.09544 0.0
C1911 C 0.17613 0.88644 0.10116 0.0
C1912 C 0.20052 0.86322 0.0806 0.0
C1913 C 0.16206 0.90676 0.09177 0.0
C1914 C 0.16687 0.90523 0.07695 0.0
C1915 C 0.18948 0.88032 0.05635 0.0
C1916 C 0.20762 0.85743 0.05069 0.0
C1917 C 0.18571 0.88322 0.07124 0.0
C1918 C 0.22266 0.83814 0.06015 0.0
C1919 C 0.21921 0.84107 0.07495 0.0
H1920 H 0.4153 0.1861 0.4311 0.0
H1921 H 0.28791 0.10523 0.44583 0.0
H1922 H 0.26226 0.09429 0.42123 0.0
H1923 H 0.27567 0.10778 0.39547 0.0
H1924 H 0.40312 0.18789 0.38068 0.0
H1925 H 0.42883 0.19888 0.40528 0.0
C1926 C 0.38194 0.16607 0.42893 0.0
C1927 C 0.35366 0.14659 0.44033 0.0
C1928 C 0.36728 0.15972 0.41471 0.0
C1929 C 0.3105 0.12064 0.43729 0.0
C1930 C 0.29571 0.11435 0.4232 0.0
C1931 C 0.30907 0.12764 0.39762 0.0
C1932 C 0.33733 0.14697 0.38621 0.0
C1933 C 0.32378 0.13375 0.41182 0.0
C1934 C 0.38056 0.17253 0.38922 0.0
C1935 C 0.39537 0.1789 0.40332 0.0
H1936 H 0.86407 0.22191 0.39777 0.0
H1937 H 0.89047 0.12068 0.40354 0.0
H1938 H 0.87843 0.12083 0.42934 0.0
H1939 H 0.86089 0.15021 0.45024 0.0
H1940 H 0.83213 0.24977 0.44411 0.0
H1941 H 0.8445 0.24964 0.41842 0.0
C1942 C 0.86737 0.19992 0.40466 0.0
C1943 C 0.8785 0.17152 0.39874 0.0
C1944 C 0.85987 0.19984 0.41941 0.0
C1945 C 0.88203 0.1429 0.40782 0.0
C1946 C 0.87516 0.14301 0.42257 0.0
C1947 C 0.85732 0.1719 0.44329 0.0
C1948 C 0.84578 0.20012 0.44913 0.0
C1949 C 0.86414 0.1714 0.42848 0.0
C1950 C 0.84093 0.22771 0.43993 0.0
C1951 C 0.8481 0.22772 0.42523 0.0
H1952 H 0.82261 0.7147 0.40117 0.0
H1953 H 0.75429 0.58607 0.38618 0.0
H1954 H 0.74363 0.56063 0.41076 0.0
H1955 H 0.75475 0.57448 0.43661 0.0
H1956 H 0.82197 0.703 0.45168 0.0
H1957 H 0.83194 0.7286 0.4271 0.0
C1958 C 0.80521 0.68112 0.40328 0.0
C1959 C 0.78942 0.65246 0.3918 0.0
C1960 C 0.79909 0.66651 0.41751 0.0
C1961 C 0.76688 0.609 0.39477 0.0
C1962 C 0.76079 0.5943 0.40886 0.0
C1963 C 0.77159 0.60808 0.43452 0.0
C1964 C 0.78766 0.63668 0.446 0.0
C1965 C 0.77699 0.62272 0.42032 0.0
C1966 C 0.80919 0.68016 0.44307 0.0
C1967 C 0.81496 0.69492 0.42899 0.0
H1968 H 0.89098 0.73901 0.89377 0.0
H1969 H 0.83053 0.61084 0.87834 0.0
H1970 H 0.8185 0.58479 0.90287 0.0
H1971 H 0.82514 0.59807 0.92878 0.0
H1972 H 0.88617 0.72617 0.94428 0.0
H1973 H 0.89788 0.75232 0.91974 0.0
C1974 C 0.87516 0.70539 0.89577 0.0
C1975 C 0.86172 0.67702 0.8842 0.0
C1976 C 0.86841 0.69047 0.90996 0.0
C1977 C 0.8413 0.63351 0.88702 0.0
C1978 C 0.83435 0.61849 0.90107 0.0
C1979 C 0.841 0.63171 0.9268 0.0
C1980 C 0.85472 0.66003 0.93839 0.0
C1981 C 0.84779 0.64665 0.91263 0.0
C1982 C 0.87527 0.70355 0.93559 0.0
C1983 C 0.88199 0.71861 0.92154 0.0
H1984 H 0.37578 0.21213 0.89306 0.0
H1985 H 0.24147 0.13644 0.89963 0.0
H1986 H 0.25189 0.14478 0.9255 0.0
H1987 H 0.29886 0.17305 0.94625 0.0
H1988 H 0.43328 0.24802 0.9399 0.0
H1989 H 0.423 0.2405 0.91394 0.0
C1990 C 0.34875 0.19746 0.90013 0.0
C1991 C 0.30786 0.17368 0.89435 0.0
C1992 C 0.35496 0.20228 0.91505 0.0
C1993 C 0.27327 0.15488 0.90373 0.0
C1994 C 0.27919 0.15965 0.91855 0.0
C1995 C 0.326 0.1879 0.93922 0.0
C1996 C 0.36682 0.21116 0.94506 0.0
C1997 C 0.31987 0.18324 0.92432 0.0
C1998 C 0.40152 0.22998 0.93573 0.0
C1999 C 0.39565 0.22566 0.92087 0.0
H2000 H 0.78474 0.13131 0.89851 0.0
H2001 H 0.86484 0.07697 0.90285 0.0
H2002 H 0.85861 0.07738 0.92893 0.0
H2003 H 0.83337 0.09674 0.9505 0.0
H2004 H 0.7548 0.1528 0.94579 0.0
H2005 H 0.75758 0.14811 0.91983 0.0
C2006 C 0.80063 0.11922 0.90512 0.0
C2007 C 0.82538 0.10431 0.89872 0.0
C2008 C 0.79741 0.12012 0.92006 0.0
C2009 C 0.84564 0.08871 0.90749 0.0
C2010 C 0.84218 0.08904 0.92241 0.0
C2011 C 0.81665 0.1077 0.9438 0.0
C2012 C 0.79409 0.12529 0.95011 0.0
C2013 C 0.81864 0.10525 0.92882 0.0
C2014 C 0.77258 0.1393 0.94125 0.0
C2015 C 0.77411 0.13663 0.92638 0.0
H2016 H 0.61244 0.82941 0.57113 0.0
H2017 H 0.74155 0.89117 0.55665 0.0
H2018 H 0.76631 0.90757 0.58131 0.0
H2019 H 0.75157 0.90416 0.60706 0.0
H2020 H 0.62254 0.84326 0.62158 0.0
H2021 H 0.5977 0.82694 0.59691 0.0
C2022 C 0.64598 0.84644 0.57337 0.0
C2023 C 0.67502 0.85895 0.56204 0.0
C2024 C 0.66014 0.85602 0.58762 0.0
C2025 C 0.71841 0.88115 0.56514 0.0
C2026 C 0.73268 0.89056 0.57926 0.0
C2027 C 0.71802 0.88738 0.60483 0.0
C2028 C 0.68904 0.87496 0.61618 0.0
C2029 C 0.70386 0.87814 0.59059 0.0
C2030 C 0.64564 0.85329 0.61307 0.0
C2031 C 0.63133 0.84385 0.59895 0.0
H2032 H 0.12569 0.8493 0.55505 0.0
H2033 H 0.16662 0.75917 0.5625 0.0
H2034 H 0.15842 0.76379 0.58829 0.0
H2035 H 0.14017 0.79362 0.60871 0.0
H2036 H 0.10005 0.88442 0.60142 0.0
H2037 H 0.10738 0.87924 0.57556 0.0
C2038 C 0.13276 0.83057 0.5623 0.0
C2039 C 0.14674 0.80386 0.55679 0.0
C2040 C 0.12814 0.8335 0.57715 0.0
C2041 C 0.15584 0.77998 0.56639 0.0
C2042 C 0.15114 0.7826 0.58116 0.0
C2043 C 0.13292 0.81228 0.60149 0.0
C2044 C 0.1195 0.83936 0.60705 0.0
C2045 C 0.13739 0.80929 0.58665 0.0
C2046 C 0.1104 0.86332 0.59748 0.0
C2047 C 0.1146 0.86037 0.58268 0.0
H2048 H 0.17451 0.27869 0.55796 0.0
H2049 H 0.24657 0.41392 0.56279 0.0
H2050 H 0.24372 0.40638 0.58876 0.0
H2051 H 0.21897 0.36192 0.61006 0.0
H2052 H 0.14596 0.22672 0.60557 0.0
H2053 H 0.15127 0.2338 0.57948 0.0
C2054 C 0.18977 0.30652 0.56469 0.0
C2055 C 0.21061 0.34682 0.5584 0.0
C2056 C 0.18782 0.302 0.57967 0.0
C2057 C 0.23021 0.38251 0.5673 0.0
C2058 C 0.22861 0.37826 0.58217 0.0
C2059 C 0.20434 0.3339 0.60341 0.0
C2060 C 0.18197 0.29384 0.60979 0.0
C2061 C 0.20721 0.33821 0.58846 0.0
C2062 C 0.16334 0.25795 0.60096 0.0
C2063 C 0.1663 0.26198 0.58604 0.0
H2064 H 0.0423 0.5283 0.72736 0.0
H2065 H 0.91322 0.43055 0.73396 0.0
H2066 H 0.92758 0.428 0.75939 0.0
H2067 H 0.97692 0.45266 0.77958 0.0
H2068 H 0.10538 0.55208 0.77327 0.0
H2069 H 0.09113 0.55474 0.74779 0.0
C2070 C 0.01725 0.50647 0.73436 0.0
C2071 C 0.97677 0.4795 0.72876 0.0
C2072 C 0.02568 0.50534 0.74897 0.0
C2073 C 0.94461 0.45168 0.738 0.0
C2074 C 0.95284 0.45011 0.75252 0.0
C2075 C 0.00192 0.4748 0.77262 0.0
C2076 C 0.04229 0.50188 0.77827 0.0
C2077 C 0.99331 0.47658 0.75809 0.0
C2078 C 0.0741 0.53084 0.76917 0.0
C2079 C 0.06595 0.53237 0.75461 0.0
H2080 H 0.46105 0.45874 0.73104 0.0
H2081 H 0.59515 0.53748 0.72492 0.0
H2082 H 0.60295 0.56297 0.74953 0.0
H2083 H 0.57169 0.56358 0.77275 0.0
H2084 H 0.43727 0.48644 0.77864 0.0
H2085 H 0.42967 0.45995 0.75419 0.0
C2086 C 0.49203 0.48124 0.73512 0.0
C2087 C 0.52748 0.49598 0.72614 0.0
C2088 C 0.49623 0.49633 0.74923 0.0
C2089 C 0.56731 0.52557 0.73157 0.0
C2090 C 0.57182 0.54022 0.74565 0.0
C2091 C 0.54071 0.54101 0.76869 0.0
C2092 C 0.50514 0.5271 0.77756 0.0
C2093 C 0.53648 0.52598 0.75457 0.0
C2094 C 0.46522 0.49789 0.77207 0.0
C2095 C 0.46083 0.48257 0.75808 0.0
H2096 H 0.51981 0.08371 0.7244 0.0
H2097 H 0.4352 0.95206 0.71531 0.0
H2098 H 0.43037 0.9358 0.74078 0.0
H2099 H 0.45182 0.95831 0.76558 0.0
H2100 H 0.53648 0.08981 0.77481 0.0
H2101 H 0.53944 0.10663 0.74939 0.0
C2102 C 0.50011 0.0515 0.72799 0.0
C2103 C 0.47804 0.01918 0.71791 0.0
C2104 C 0.49755 0.04223 0.7427 0.0
C2105 C 0.45264 0.97761 0.72279 0.0
C2106 C 0.44986 0.96821 0.73738 0.0
C2107 C 0.47084 0.99069 0.76206 0.0
C2108 C 0.49403 0.02268 0.77212 0.0
C2109 C 0.47247 1.00018 0.74741 0.0
C2110 C 0.51834 0.06449 0.76733 0.0
C2111 C 0.5201 0.07417 0.75277 0.0
H2112 H 0.50199 0.9533 0.23438 0.0
H2113 H 0.57077 0.0883 0.23996 0.0
H2114 H 0.56965 0.07928 0.26595 0.0
H2115 H 0.54776 0.03299 0.28704 0.0
H2116 H 0.47795 0.89803 0.28129 0.0
H2117 H 0.48099 0.90722 0.25534 0.0
C2118 C 0.51688 0.98084 0.24125 0.0
C2119 C 0.53639 0.02145 0.23521 0.0
C2120 C 0.51589 0.97542 0.25614 0.0
C2121 C 0.55549 0.0567 0.24431 0.0
C2122 C 0.55485 0.05155 0.25917 0.0
C2123 C 0.53334 0.00554 0.28013 0.0
C2124 C 0.51262 0.96485 0.28613 0.0
C2125 C 0.53494 0.01105 0.2652 0.0
C2126 C 0.49405 0.92969 0.27698 0.0
C2127 C 0.49576 0.93491 0.26213 0.0
H2128 H 0.96666 0.50014 0.27262 0.0
H2129 H 0.09932 0.57513 0.26298 0.0
H2130 H 0.08301 0.57022 0.23738 0.0
H2131 H 0.03104 0.54385 0.21781 0.0
H2132 H 0.89853 0.46827 0.22768 0.0
H2133 H 0.91498 0.4743 0.25321 0.0
C2134 C 0.99212 0.51553 0.26495 0.0
C2135 C 0.0342 0.53797 0.26972 0.0
C2136 C 0.98253 0.51243 0.25031 0.0
C2137 C 0.06669 0.55765 0.2596 0.0
C2138 C 0.05736 0.55484 0.24497 0.0
C2139 C 0.00571 0.52875 0.22554 0.0
C2140 C 0.96358 0.50561 0.22082 0.0
C2141 C 0.0154 0.53219 0.24021 0.0
C2142 C 0.9312 0.48623 0.231 0.0
C2143 C 0.94058 0.48965 0.2456 0.0
H2144 H 0.48868 0.44641 0.23909 0.0
H2145 H 0.43234 0.51789 0.22368 0.0
H2146 H 0.41651 0.52834 0.24819 0.0
H2147 H 0.42041 0.51898 0.27408 0.0
H2148 H 0.4757 0.44647 0.28942 0.0
H2149 H 0.4901 0.4347 0.26489 0.0
C2150 C 0.47277 0.46411 0.24108 0.0
C2151 C 0.46191 0.48147 0.22956 0.0
C2152 C 0.46366 0.46999 0.25521 0.0
C2153 C 0.44109 0.50414 0.23234 0.0
C2154 C 0.43209 0.51026 0.24637 0.0
C2155 C 0.43554 0.50055 0.27205 0.0
C2156 C 0.4471 0.48382 0.28357 0.0
C2157 C 0.44355 0.49364 0.25789 0.0
C2158 C 0.46643 0.45975 0.28075 0.0
C2159 C 0.47475 0.453 0.26672 0.0
H2160 H 0.99194 0.19481 0.27872 0.0
H2161 H 0.93499 0.05981 0.27552 0.0
H2162 H 0.96298 0.06689 0.25126 0.0
H2163 H 0.00364 0.1116 0.23092 0.0
H2164 H 0.06222 0.24678 0.23465 0.0
H2165 H 0.03394 0.23938 0.25875 0.0
C2166 C 0.98534 0.16689 0.27268 0.0
C2167 C 0.96106 0.12681 0.27887 0.0
C2168 C 0.00217 0.17124 0.25886 0.0
C2169 C 0.95345 0.09103 0.27098 0.0
C2170 C 0.96953 0.09506 0.25712 0.0
C2171 C 0.01045 0.13946 0.23703 0.0
C2172 C 0.03505 0.17968 0.23092 0.0
C2173 C 0.99405 0.13503 0.25095 0.0
C2174 C 0.0435 0.21541 0.23904 0.0
C2175 C 0.02718 0.21124 0.25283 0.0
H2176 H 0.81051 0.78931 0.27574 0.0
H2177 H 0.94234 0.88405 0.27678 0.0
H2178 H 0.93702 0.90637 0.25257 0.0
H2179 H 0.89474 0.89929 0.23113 0.0
H2180 H 0.76239 0.80575 0.23049 0.0
H2181 H 0.76811 0.783 0.25452 0.0
C2182 C 0.83819 0.81464 0.27064 0.0
C2183 C 0.87686 0.83476 0.27805 0.0
C2184 C 0.83473 0.8278 0.25681 0.0
C2185 C 0.91222 0.86792 0.27133 0.0
C2186 C 0.90917 0.88077 0.25748 0.0
C2187 C 0.86708 0.87403 0.23626 0.0
C2188 C 0.82818 0.85433 0.22896 0.0
C2189 C 0.87054 0.86107 0.25014 0.0
C2190 C 0.79272 0.82164 0.23582 0.0
C2191 C 0.79597 0.80846 0.24957 0.0
H2192 H 0.09656 0.00112 0.26813 0.0
H2193 H 0.22939 0.04249 0.26957 0.0
H2194 H 0.22667 0.01984 0.24481 0.0
H2195 H 0.18634 0.98692 0.22283 0.0
H2196 H 0.05384 0.94679 0.22126 0.0
H2197 H 0.0567 0.97006 0.24596 0.0
C2198 C 0.12501 0.00547 0.26302 0.0
C2199 C 0.16311 0.02351 0.27077 0.0
C2200 C 0.12324 0.99225 0.24875 0.0
C2201 C 0.19962 0.02883 0.26391 0.0
C2202 C 0.19808 0.01571 0.24974 0.0
C2203 C 0.15804 0.98308 0.22791 0.0
C2204 C 0.11986 0.96483 0.2202 0.0
C2205 C 0.16 0.99705 0.24209 0.0
C2206 C 0.08364 0.96064 0.22692 0.0
C2207 C 0.08524 0.97399 0.24106 0.0
H2208 H 0.98254 0.79412 0.77082 0.0
H2209 H 0.95783 0.89737 0.77205 0.0
H2210 H 0.98878 0.91979 0.74824 0.0
H2211 H 0.02284 0.91008 0.72705 0.0
H2212 H 0.04945 0.80801 0.72618 0.0
H2213 H 0.01817 0.78545 0.7499 0.0
C2214 C 0.98364 0.82136 0.76584 0.0
C2215 C 0.96755 0.84382 0.77317 0.0
C2216 C 0.00216 0.83453 0.75225 0.0
C2217 C 0.96987 0.87944 0.76664 0.0
C2218 C 0.98763 0.89233 0.75303 0.0
C2219 C 0.022 0.88301 0.73206 0.0
C2220 C 0.03853 0.86082 0.7248 0.0
C2221 C 0.00398 0.87018 0.74574 0.0
C2222 C 0.03717 0.82583 0.73151 0.0
C2223 C 0.01909 0.81276 0.74507 0.0
H2224 H 0.13303 0.12225 0.73074 0.0
H2225 H 0.18449 0.25702 0.73171 0.0
H2226 H 0.21208 0.26026 0.75568 0.0
H2227 H 0.22364 0.22566 0.77609 0.0
H2228 H 0.17161 0.09095 0.77572 0.0
H2229 H 0.14238 0.08697 0.7518 0.0
C2230 C 0.14997 0.15227 0.73624 0.0
C2231 C 0.15672 0.18933 0.72935 0.0
C2232 C 0.16601 0.15404 0.75009 0.0
C2233 C 0.1788 0.22795 0.73668 0.0
C2234 C 0.19476 0.22992 0.7504 0.0
C2235 C 0.20603 0.19539 0.77078 0.0
C2236 C 0.20018 0.15872 0.77765 0.0
C2237 C 0.18898 0.19329 0.75714 0.0
C2238 C 0.17674 0.11971 0.77066 0.0
C2239 C 0.15998 0.1174 0.75699 0.0
H2240 H 0.79393 0.97316 0.78002 0.0
H2241 H 0.91775 0.08319 0.77683 0.0
H2242 H 0.9235 0.06474 0.75208 0.0
H2243 H 0.89193 0.01892 0.73104 0.0
H2244 H 0.76741 0.90989 0.73434 0.0
H2245 H 0.76366 0.92621 0.75943 0.0
C2246 C 0.82226 0.99315 0.77395 0.0
C2247 C 0.85523 0.02968 0.78026 0.0
C2248 C 0.8253 0.98243 0.75975 0.0
C2249 C 0.8918 0.05499 0.77223 0.0
C2250 C 0.89513 0.04443 0.75807 0.0
C2251 C 0.8642 0.99841 0.7373 0.0
C2252 C 0.82997 0.96325 0.7308 0.0
C2253 C 0.86192 0.00839 0.75169 0.0
C2254 C 0.79416 0.9372 0.73905 0.0
C2255 C 0.79192 0.94657 0.7534 0.0
H2256 H 0.65525 0.42851 0.60428 0.0
H2257 H 0.61923 0.52389 0.60232 0.0
H2258 H 0.65049 0.54469 0.57857 0.0
H2259 H 0.6892 0.53693 0.55851 0.0
H2260 H 0.72358 0.44044 0.55999 0.0
H2261 H 0.6922 0.41927 0.58381 0.0
C2262 C 0.65393 0.45363 0.59863 0.0
C2263 C 0.6349 0.47458 0.60514 0.0
C2264 C 0.67211 0.4656 0.58494 0.0
C2265 C 0.63355 0.50709 0.59761 0.0
C2266 C 0.65162 0.5192 0.58403 0.0
C2267 C 0.69016 0.5115 0.5641 0.0
C2268 C 0.70912 0.4906 0.55755 0.0
C2269 C 0.67134 0.49897 0.57765 0.0
C2270 C 0.70936 0.45717 0.56482 0.0
C2271 C 0.69132 0.44498 0.57843 0.0
H2272 H 0.48254 0.14142 0.60138 0.0
H2273 H 0.61447 0.23564 0.5997 0.0
H2274 H 0.60578 0.25313 0.57512 0.0
H2275 H 0.56064 0.24127 0.55403 0.0
H2276 H 0.42834 0.14799 0.55616 0.0
H2277 H 0.43729 0.13085 0.58066 0.0
C2278 C 0.5095 0.16565 0.59563 0.0
C2279 C 0.54918 0.18696 0.60235 0.0
C2280 C 0.50416 0.17592 0.58159 0.0
C2281 C 0.5836 0.21866 0.59478 0.0
C2282 C 0.57864 0.22871 0.58072 0.0
C2283 C 0.53371 0.21734 0.55987 0.0
C2284 C 0.49387 0.19596 0.55321 0.0
C2285 C 0.53904 0.20757 0.57401 0.0
C2286 C 0.45935 0.16505 0.56098 0.0
C2287 C 0.46445 0.15509 0.575 0.0
H2288 H 0.86455 0.33734 0.61303 0.0
H2289 H 0.79206 0.40021 0.60979 0.0
H2290 H 0.76908 0.37147 0.5857 0.0
H2291 H 0.77083 0.32953 0.56537 0.0
H2292 H 0.84242 0.26568 0.56907 0.0
H2293 H 0.86405 0.29342 0.59321 0.0
C2294 C 0.84388 0.34494 0.60703 0.0
C2295 C 0.83038 0.37121 0.61313 0.0
C2296 C 0.83037 0.32788 0.5933 0.0
C2297 C 0.80304 0.38018 0.60531 0.0
C2298 C 0.78985 0.36371 0.59154 0.0
C2299 C 0.79088 0.3214 0.57149 0.0
C2300 C 0.80503 0.29563 0.56535 0.0
C2301 C 0.8034 0.33759 0.58541 0.0
C2302 C 0.83099 0.28541 0.57348 0.0
C2303 C 0.84357 0.3014 0.58729 0.0
H2304 H 0.6835 0.13346 0.06767 0.0
H2305 H 0.70263 0.25951 0.0671 0.0
H2306 H 0.67552 0.25037 0.09155 0.0
H2307 H 0.64579 0.20624 0.11303 0.0
H2308 H 0.62564 0.07973 0.1132 0.0
H2309 H 0.65345 0.08939 0.08893 0.0
C2310 C 0.68204 0.1591 0.07291 0.0
C2311 C 0.6953 0.19721 0.06556 0.0
C2312 C 0.6659 0.15343 0.08687 0.0
C2313 C 0.69272 0.22988 0.07249 0.0
C2314 C 0.67713 0.22464 0.08647 0.0
C2315 C 0.64729 0.1807 0.10774 0.0
C2316 C 0.63353 0.14227 0.11497 0.0
C2317 C 0.66342 0.18645 0.09374 0.0
C2318 C 0.63586 0.1096 0.10793 0.0
C2319 C 0.6519 0.11512 0.09404 0.0
H2320 H 0.85177 0.52591 0.10361 0.0
H2321 H 0.76056 0.39295 0.10427 0.0
H2322 H 0.74 0.39693 0.07969 0.0
H2323 H 0.74926 0.43772 0.05781 0.0
H2324 H 0.84048 0.57073 0.05719 0.0
H2325 H 0.85917 0.56721 0.08203 0.0
C2326 C 0.82747 0.49775 0.09837 0.0
C2327 C 0.80796 0.45913 0.10574 0.0
C2328 C 0.81553 0.50032 0.08428 0.0
C2329 C 0.77619 0.42306 0.09884 0.0
C2330 C 0.76434 0.42532 0.08479 0.0
C2331 C 0.77288 0.46607 0.06315 0.0
C2332 C 0.79345 0.50441 0.05561 0.0
C2333 C 0.78388 0.46375 0.07739 0.0
C2334 C 0.82411 0.54078 0.06271 0.0
C2335 C 0.83499 0.53878 0.07691 0.0
H2336 H 0.48816 0.38851 0.11233 0.0
H2337 H 0.55434 0.31906 0.11498 0.0
H2338 H 0.53985 0.30013 0.08971 0.0
H2339 H 0.50653 0.30153 0.06692 0.0
H2340 H 0.44067 0.37134 0.06445 0.0
H2341 H 0.45675 0.39158 0.08951 0.0
C2342 C 0.49976 0.36953 0.10737 0.0
C2343 C 0.52231 0.35528 0.11559 0.0
C2344 C 0.49107 0.35847 0.09284 0.0
C2345 C 0.53695 0.33059 0.10894 0.0
C2346 C 0.52854 0.31958 0.09447 0.0
C2347 C 0.49567 0.32113 0.07187 0.0
C2348 C 0.4723 0.33473 0.06379 0.0
C2349 C 0.50526 0.33297 0.08634 0.0
C2350 C 0.45873 0.36037 0.07037 0.0
C2351 C 0.46792 0.37203 0.08474 0.0
H2352 H 0.35547 0.79049 0.8898 0.0
H2353 H 0.46228 0.91636 0.89298 0.0
H2354 H 0.44415 0.92086 0.91786 0.0
H2355 H 0.39556 0.89083 0.93813 0.0
H2356 H 0.2867 0.76629 0.93457 0.0
H2357 H 0.30798 0.75957 0.91036 0.0
C2358 C 0.37522 0.81865 0.896 0.0
C2359 C 0.41029 0.85301 0.88956 0.0
C2360 C 0.3639 0.82147 0.91016 0.0
C2361 C 0.43516 0.88948 0.8977 0.0
C2362 C 0.4247 0.89213 0.9119 0.0
C2363 C 0.37653 0.8621 0.9321 0.0
C2364 C 0.33946 0.82919 0.93815 0.0
C2365 C 0.3887 0.85863 0.91814 0.0
C2366 C 0.31523 0.79222 0.93015 0.0
C2367 C 0.32744 0.78831 0.91632 0.0
H2368 H 0.23412 0.57251 0.94411 0.0
H2369 H 0.16799 0.43684 0.94067 0.0
H2370 H 0.14464 0.44108 0.91662 0.0
H2371 H 0.14099 0.48288 0.89681 0.0
H2372 H 0.20857 0.61848 0.8997 0.0
H2373 H 0.23301 0.61464 0.92376 0.0
C2374 C 0.21496 0.54387 0.93805 0.0
C2375 C 0.20277 0.50442 0.94426 0.0
C2376 C 0.20141 0.54647 0.92419 0.0
C2377 C 0.1779 0.46766 0.93621 0.0
C2378 C 0.16431 0.47 0.92245 0.0
C2379 C 0.1608 0.51159 0.90275 0.0
C2380 C 0.1725 0.55089 0.89657 0.0
C2381 C 0.17538 0.50916 0.91642 0.0
C2382 C 0.19892 0.58784 0.90427 0.0
C2383 C 0.21299 0.58566 0.918 0.0
H2384 H 0.52232 0.64444 0.89848 0.0
H2385 H 0.38777 0.59146 0.90204 0.0
H2386 H 0.39598 0.61608 0.92678 0.0
H2387 H 0.44136 0.65385 0.94726 0.0
H2388 H 0.57613 0.70837 0.94358 0.0
H2389 H 0.5678 0.68231 0.91903 0.0
C2390 C 0.49475 0.63789 0.90471 0.0
C2391 C 0.45445 0.61592 0.89841 0.0
C2392 C 0.49975 0.65284 0.91888 0.0
C2393 C 0.41914 0.60822 0.90661 0.0
C2394 C 0.42381 0.62241 0.92076 0.0
C2395 C 0.46898 0.66022 0.94109 0.0
C2396 C 0.50933 0.68321 0.9473 0.0
C2397 C 0.46399 0.64508 0.92696 0.0
C2398 C 0.54469 0.69095 0.9391 0.0
C2399 C 0.53995 0.67591 0.92505 0.0
H2400 H 0.32603 0.47451 0.4431 0.0
H2401 H 0.29042 0.5702 0.44328 0.0
H2402 H 0.31915 0.59179 0.4191 0.0
H2403 H 0.35315 0.58224 0.39774 0.0
H2404 H 0.38995 0.48729 0.39823 0.0
H2405 H 0.36232 0.46702 0.42241 0.0
C2406 C 0.3243 0.49997 0.43784 0.0
C2407 C 0.30566 0.5204 0.44491 0.0
C2408 C 0.34136 0.51254 0.4241 0.0
C2409 C 0.30441 0.55382 0.43803 0.0
C2410 C 0.32088 0.5662 0.42422 0.0
C2411 C 0.35542 0.55734 0.40317 0.0
C2412 C 0.37349 0.53625 0.39612 0.0
C2413 C 0.33935 0.54569 0.41713 0.0
C2414 C 0.37624 0.50411 0.40336 0.0
C2415 C 0.36029 0.49233 0.41719 0.0
H2416 H 0.43469 0.77135 0.40189 0.0
H2417 H 0.52047 0.90509 0.40625 0.0
H2418 H 0.5403 0.89424 0.43008 0.0
H2419 H 0.53417 0.8472 0.44956 0.0
H2420 H 0.44718 0.7137 0.44591 0.0
H2421 H 0.42719 0.72405 0.42187 0.0
C2422 C 0.45754 0.79815 0.40808 0.0
C2423 C 0.47606 0.83897 0.40224 0.0
C2424 C 0.46888 0.79173 0.42185 0.0
C2425 C 0.50561 0.87332 0.41044 0.0
C2426 C 0.51714 0.86717 0.42407 0.0
C2427 C 0.51106 0.82025 0.44348 0.0
C2428 C 0.49249 0.77968 0.44946 0.0
C2429 C 0.49922 0.82653 0.42983 0.0
C2430 C 0.46208 0.74525 0.44152 0.0
C2431 C 0.45058 0.75117 0.42779 0.0
H2432 H 0.14259 0.68101 0.43706 0.0
H2433 H 0.27467 0.71923 0.43638 0.0
H2434 H 0.2679 0.69448 0.41168 0.0
H2435 H 0.22431 0.66133 0.39032 0.0
H2436 H 0.09176 0.6214 0.39131 0.0
H2437 H 0.0989 0.64717 0.41583 0.0
C2438 C 0.17 0.68427 0.43147 0.0
C2439 C 0.20916 0.70223 0.43855 0.0
C2440 C 0.16573 0.66931 0.41734 0.0
C2441 C 0.24418 0.70563 0.4312 0.0
C2442 C 0.24031 0.69139 0.41707 0.0
C2443 C 0.19692 0.6581 0.3959 0.0
C2444 C 0.15754 0.63936 0.38893 0.0
C2445 C 0.2012 0.67297 0.41006 0.0
C2446 C 0.12244 0.63552 0.39638 0.0
C2447 C 0.12651 0.6504 0.41041 0.0
loop_
_geom_bond_atom_site_label_1
_geom_bond_atom_site_label_2
_geom_bond_distance
_geom_bond_site_symmetry_2
_ccdc_geom_bond_type
Zn0 O6 1.969 . S
Zn0 O7 1.965 . S
Zn0 O11 2.024 . S
Zn0 O16 1.969 . S
Zn1 O8 1.969 . S
Zn1 O14 1.969 . S
Zn1 O15 1.965 . S
Zn1 O17 2.024 . S
C2 O3 1.229 . S
C2 O11 1.058 1_655 S
O3 C2 1.229 . S
C4 O5 1.229 . S
C4 O17 1.058 . S
O5 C4 1.229 . S
O6 Zn0 1.969 . S
O6 C9 1.267 . S
O7 Zn0 1.965 . S
O7 C18 1.260 . S
O8 Zn1 1.969 . S
O8 C18 1.258 . S
C9 O6 1.267 . S
C9 O10 1.228 . S
O10 C9 1.228 . S
O11 Zn0 2.024 . S
O11 C2 1.058 1_455 S
C12 O13 1.228 . S
C12 O14 1.267 . S
O13 C12 1.228 . S
O14 Zn1 1.969 . S
O14 C12 1.267 . S
O15 Zn1 1.965 . S
O15 C19 1.260 . S
O16 Zn0 1.969 . S
O16 C19 1.258 . S
O17 Zn1 2.024 . S
O17 C4 1.058 . S
C18 O7 1.260 . S
C18 O8 1.258 . S
C19 O15 1.260 . S
C19 O16 1.258 . S
Zn20 O26 1.969 . S
Zn20 O27 1.965 . S
Zn20 O31 2.024 . S
Zn20 O36 1.969 . S
Zn21 O28 1.969 . S
Zn21 O34 1.969 . S
Zn21 O35 1.965 . S
Zn21 O37 2.024 . S
C22 O23 1.229 . S
C22 O31 1.058 . S
O23 C22 1.229 . S
C24 O25 1.229 . S
C24 O37 1.058 . S
O25 C24 1.229 . S
O26 Zn20 1.969 . S
O26 C29 1.267 . S
O27 Zn20 1.965 . S
O27 C38 1.260 . S
O28 Zn21 1.969 . S
O28 C38 1.258 . S
C29 O26 1.267 . S
C29 O30 1.228 . S
O30 C29 1.228 . S
O31 Zn20 2.024 . S
O31 C22 1.058 . S
C32 O33 1.228 . S
C32 O34 1.267 . S
O33 C32 1.228 . S
O34 Zn21 1.969 . S
O34 C32 1.267 . S
O35 Zn21 1.965 . S
O35 C39 1.260 . S
O36 Zn20 1.969 . S
O36 C39 1.258 . S
O37 Zn21 2.024 . S
O37 C24 1.058 . S
C38 O27 1.260 . S
C38 O28 1.258 . S
C39 O35 1.260 . S
C39 O36 1.258 . S
Zn40 O46 1.969 . S
Zn40 O47 1.965 . S
Zn40 O51 2.024 . S
Zn40 O56 1.969 . S
Zn41 O48 1.969 . S
Zn41 O54 1.969 . S
Zn41 O55 1.965 . S
Zn41 O57 2.024 . S
C42 O43 1.229 . S
C42 O51 1.058 1_545 S
O43 C42 1.229 . S
C44 O45 1.229 . S
C44 O57 1.058 . S
O45 C44 1.229 . S
O46 Zn40 1.969 . S
O46 C49 1.267 . S
O47 Zn40 1.965 . S
O47 C58 1.260 . S
O48 Zn41 1.969 . S
O48 C58 1.258 . S
C49 O46 1.267 . S
C49 O50 1.228 . S
O50 C49 1.228 . S
O51 Zn40 2.024 . S
O51 C42 1.058 1_565 S
C52 O53 1.228 . S
C52 O54 1.267 . S
O53 C52 1.228 . S
O54 Zn41 1.969 . S
O54 C52 1.267 . S
O55 Zn41 1.965 . S
O55 C59 1.260 . S
O56 Zn40 1.969 . S
O56 C59 1.258 . S
O57 Zn41 2.024 . S
O57 C44 1.058 . S
C58 O47 1.260 . S
C58 O48 1.258 . S
C59 O55 1.260 . S
C59 O56 1.258 . S
Zn60 O66 1.969 . S
Zn60 O67 1.965 . S
Zn60 O71 2.024 . S
Zn60 O76 1.969 . S
Zn61 O68 1.969 . S
Zn61 O74 1.969 . S
Zn61 O75 1.965 . S
Zn61 O77 2.024 . S
C62 O63 1.229 . S
C62 O71 1.058 1_565 S
O63 C62 1.229 . S
C64 O65 1.229 . S
C64 O77 1.058 . S
O65 C64 1.229 . S
O66 Zn60 1.969 . S
O66 C69 1.267 . S
O67 Zn60 1.965 . S
O67 C78 1.260 . S
O68 Zn61 1.969 . S
O68 C78 1.258 . S
C69 O66 1.267 . S
C69 O70 1.228 . S
O70 C69 1.228 . S
O71 Zn60 2.024 . S
O71 C62 1.058 1_545 S
C72 O73 1.228 . S
C72 O74 1.267 . S
O73 C72 1.228 . S
O74 Zn61 1.969 . S
O74 C72 1.267 . S
O75 Zn61 1.965 . S
O75 C79 1.260 . S
O76 Zn60 1.969 . S
O76 C79 1.258 . S
O77 Zn61 2.024 . S
O77 C64 1.058 . S
C78 O67 1.260 . S
C78 O68 1.258 . S
C79 O75 1.260 . S
C79 O76 1.258 . S
Zn80 O86 1.969 . S
Zn80 O87 1.965 . S
Zn80 O91 2.024 . S
Zn80 O96 1.969 . S
Zn81 O88 1.969 . S
Zn81 O94 1.969 . S
Zn81 O95 1.965 . S
Zn81 O97 2.024 . S
C82 O83 1.229 . S
C82 O91 1.058 1_455 S
O83 C82 1.229 . S
C84 O85 1.229 . S
C84 O97 1.058 . S
O85 C84 1.229 . S
O86 Zn80 1.969 . S
O86 C89 1.267 . S
O87 Zn80 1.965 . S
O87 C98 1.260 . S
O88 Zn81 1.969 . S
O88 C98 1.258 . S
C89 O86 1.267 . S
C89 O90 1.228 . S
O90 C89 1.228 . S
O91 Zn80 2.024 . S
O91 C82 1.058 1_655 S
C92 O93 1.228 . S
C92 O94 1.267 . S
O93 C92 1.228 . S
O94 Zn81 1.969 . S
O94 C92 1.267 . S
O95 Zn81 1.965 . S
O95 C99 1.260 . S
O96 Zn80 1.969 . S
O96 C99 1.258 . S
O97 Zn81 2.024 . S
O97 C84 1.058 . S
C98 O87 1.260 . S
C98 O88 1.258 . S
C99 O95 1.260 . S
C99 O96 1.258 . S
Zn100 O106 1.969 . S
Zn100 O107 1.965 . S
Zn100 O111 2.024 . S
Zn100 O116 1.969 . S
Zn101 O108 1.969 . S
Zn101 O114 1.969 . S
Zn101 O115 1.965 . S
Zn101 O117 2.024 . S
C102 O103 1.229 . S
C102 O111 1.058 . S
O103 C102 1.229 . S
C104 O105 1.229 . S
C104 O117 1.058 . S
O105 C104 1.229 . S
O106 Zn100 1.969 . S
O106 C109 1.267 . S
O107 Zn100 1.965 . S
O107 C118 1.260 . S
O108 Zn101 1.969 . S
O108 C118 1.258 . S
C109 O106 1.267 . S
C109 O110 1.228 . S
O110 C109 1.228 . S
O111 Zn100 2.024 . S
O111 C102 1.058 . S
C112 O113 1.228 . S
C112 O114 1.267 . S
O113 C112 1.228 . S
O114 Zn101 1.969 . S
O114 C112 1.267 . S
O115 Zn101 1.965 . S
O115 C119 1.260 . S
O116 Zn100 1.969 . S
O116 C119 1.258 . S
O117 Zn101 2.024 . S
O117 C104 1.058 . S
C118 O107 1.260 . S
C118 O108 1.258 . S
C119 O115 1.260 . S
C119 O116 1.258 . S
Zn120 O126 1.969 . S
Zn120 O127 1.965 . S
Zn120 O131 2.024 . S
Zn120 O136 1.969 . S
Zn121 O128 1.969 . S
Zn121 O134 1.969 . S
Zn121 O135 1.965 . S
Zn121 O137 2.024 . S
C122 O123 1.229 . S
C122 O131 1.058 . S
O123 C122 1.229 . S
C124 O125 1.229 . S
C124 O137 1.058 1_455 S
O125 C124 1.229 . S
O126 Zn120 1.969 . S
O126 C129 1.267 . S
O127 Zn120 1.965 . S
O127 C138 1.260 . S
O128 Zn121 1.969 . S
O128 C138 1.258 . S
C129 O126 1.267 . S
C129 O130 1.228 . S
O130 C129 1.228 . S
O131 Zn120 2.024 . S
O131 C122 1.058 . S
C132 O133 1.228 . S
C132 O134 1.267 . S
O133 C132 1.228 . S
O134 Zn121 1.969 . S
O134 C132 1.267 . S
O135 Zn121 1.965 . S
O135 C139 1.260 . S
O136 Zn120 1.969 . S
O136 C139 1.258 . S
O137 Zn121 2.024 . S
O137 C124 1.058 1_655 S
C138 O127 1.260 . S
C138 O128 1.258 . S
C139 O135 1.260 . S
C139 O136 1.258 . S
Zn140 O146 1.969 . S
Zn140 O147 1.965 . S
Zn140 O151 2.024 . S
Zn140 O156 1.969 . S
Zn141 O148 1.969 . S
Zn141 O154 1.969 . S
Zn141 O155 1.965 . S
Zn141 O157 2.024 . S
C142 O143 1.229 . S
C142 O151 1.058 . S
O143 C142 1.229 . S
C144 O145 1.229 . S
C144 O157 1.058 . S
O145 C144 1.229 . S
O146 Zn140 1.969 . S
O146 C149 1.267 . S
O147 Zn140 1.965 . S
O147 C158 1.260 . S
O148 Zn141 1.969 . S
O148 C158 1.258 . S
C149 O146 1.267 . S
C149 O150 1.228 . S
O150 C149 1.228 . S
O151 Zn140 2.024 . S
O151 C142 1.058 . S
C152 O153 1.228 . S
C152 O154 1.267 . S
O153 C152 1.228 . S
O154 Zn141 1.969 . S
O154 C152 1.267 . S
O155 Zn141 1.965 . S
O155 C159 1.260 . S
O156 Zn140 1.969 . S
O156 C159 1.258 . S
O157 Zn141 2.024 . S
O157 C144 1.058 . S
C158 O147 1.260 . S
C158 O148 1.258 . S
C159 O155 1.260 . S
C159 O156 1.258 . S
Zn160 O166 1.969 . S
Zn160 O167 1.965 . S
Zn160 O171 2.024 . S
Zn160 O176 1.969 . S
Zn161 O168 1.969 . S
Zn161 O174 1.969 . S
Zn161 O175 1.965 . S
Zn161 O177 2.024 . S
C162 O163 1.229 . S
C162 O171 1.058 . S
O163 C162 1.229 . S
C164 O165 1.229 . S
C164 O177 1.058 1_565 S
O165 C164 1.229 . S
O166 Zn160 1.969 . S
O166 C169 1.267 . S
O167 Zn160 1.965 . S
O167 C178 1.260 . S
O168 Zn161 1.969 . S
O168 C178 1.258 . S
C169 O166 1.267 . S
C169 O170 1.228 . S
O170 C169 1.228 . S
O171 Zn160 2.024 . S
O171 C162 1.058 . S
C172 O173 1.228 . S
C172 O174 1.267 . S
O173 C172 1.228 . S
O174 Zn161 1.969 . S
O174 C172 1.267 . S
O175 Zn161 1.965 . S
O175 C179 1.260 . S
O176 Zn160 1.969 . S
O176 C179 1.258 . S
O177 Zn161 2.024 . S
O177 C164 1.058 1_545 S
C178 O167 1.260 . S
C178 O168 1.258 . S
C179 O175 1.260 . S
C179 O176 1.258 . S
Zn180 O186 1.969 . S
Zn180 O187 1.965 . S
Zn180 O191 2.024 . S
Zn180 O196 1.969 . S
Zn181 O188 1.969 . S
Zn181 O194 1.969 . S
Zn181 O195 1.965 . S
Zn181 O197 2.024 . S
C182 O183 1.229 . S
C182 O191 1.058 . S
O183 C182 1.229 . S
C184 O185 1.229 . S
C184 O197 1.058 1_545 S
O185 C184 1.229 . S
O186 Zn180 1.969 . S
O186 C189 1.267 . S
O187 Zn180 1.965 . S
O187 C198 1.260 . S
O188 Zn181 1.969 . S
O188 C198 1.258 . S
C189 O186 1.267 . S
C189 O190 1.228 . S
O190 C189 1.228 . S
O191 Zn180 2.024 . S
O191 C182 1.058 . S
C192 O193 1.228 . S
C192 O194 1.267 . S
O193 C192 1.228 . S
O194 Zn181 1.969 . S
O194 C192 1.267 . S
O195 Zn181 1.965 . S
O195 C199 1.260 . S
O196 Zn180 1.969 . S
O196 C199 1.258 . S
O197 Zn181 2.024 . S
O197 C184 1.058 1_565 S
C198 O187 1.260 . S
C198 O188 1.258 . S
C199 O195 1.260 . S
C199 O196 1.258 . S
Zn200 O206 1.969 . S
Zn200 O207 1.965 . S
Zn200 O211 2.024 . S
Zn200 O216 1.969 . S
Zn201 O208 1.969 . S
Zn201 O214 1.969 . S
Zn201 O215 1.965 . S
Zn201 O217 2.024 . S
C202 O203 1.229 . S
C202 O211 1.058 . S
O203 C202 1.229 . S
C204 O205 1.229 . S
C204 O217 1.058 1_655 S
O205 C204 1.229 . S
O206 Zn200 1.969 . S
O206 C209 1.267 . S
O207 Zn200 1.965 . S
O207 C218 1.260 . S
O208 Zn201 1.969 . S
O208 C218 1.258 . S
C209 O206 1.267 . S
C209 O210 1.228 . S
O210 C209 1.228 . S
O211 Zn200 2.024 . S
O211 C202 1.058 . S
C212 O213 1.228 . S
C212 O214 1.267 . S
O213 C212 1.228 . S
O214 Zn201 1.969 . S
O214 C212 1.267 . S
O215 Zn201 1.965 . S
O215 C219 1.260 . S
O216 Zn200 1.969 . S
O216 C219 1.258 . S
O217 Zn201 2.024 . S
O217 C204 1.058 1_455 S
C218 O207 1.260 . S
C218 O208 1.258 . S
C219 O215 1.260 . S
C219 O216 1.258 . S
Zn220 O226 1.969 . S
Zn220 O227 1.965 . S
Zn220 O231 2.024 . S
Zn220 O236 1.969 . S
Zn221 O228 1.969 . S
Zn221 O234 1.969 . S
Zn221 O235 1.965 . S
Zn221 O237 2.024 . S
C222 O223 1.229 . S
C222 O231 1.058 . S
O223 C222 1.229 . S
C224 O225 1.229 . S
C224 O237 1.058 . S
O225 C224 1.229 . S
O226 Zn220 1.969 . S
O226 C229 1.267 . S
O227 Zn220 1.965 . S
O227 C238 1.260 . S
O228 Zn221 1.969 . S
O228 C238 1.258 . S
C229 O226 1.267 . S
C229 O230 1.228 . S
O230 C229 1.228 . S
O231 Zn220 2.024 . S
O231 C222 1.058 . S
C232 O233 1.228 . S
C232 O234 1.267 . S
O233 C232 1.228 . S
O234 Zn221 1.969 . S
O234 C232 1.267 . S
O235 Zn221 1.965 . S
O235 C239 1.260 . S
O236 Zn220 1.969 . S
O236 C239 1.258 . S
O237 Zn221 2.024 . S
O237 C224 1.058 . S
C238 O227 1.260 . S
C238 O228 1.258 . S
C239 O235 1.260 . S
C239 O236 1.258 . S
Zn240 O246 1.969 . S
Zn240 O247 1.965 . S
Zn240 O251 2.024 . S
Zn240 O256 1.969 . S
Zn241 O248 1.969 . S
Zn241 O254 1.969 . S
Zn241 O255 1.965 . S
Zn241 O257 2.024 . S
C242 O243 1.229 . S
C242 O251 1.058 . S
O243 C242 1.229 . S
C244 O245 1.229 . S
C244 O257 1.058 . S
O245 C244 1.229 . S
O246 Zn240 1.969 . S
O246 C249 1.267 . S
O247 Zn240 1.965 . S
O247 C258 1.260 . S
O248 Zn241 1.969 . S
O248 C258 1.258 . S
C249 O246 1.267 . S
C249 O250 1.228 . S
O250 C249 1.228 . S
O251 Zn240 2.024 . S
O251 C242 1.058 . S
C252 O253 1.228 . S
C252 O254 1.267 . S
O253 C252 1.228 . S
O254 Zn241 1.969 . S
O254 C252 1.267 . S
O255 Zn241 1.965 . S
O255 C259 1.260 . S
O256 Zn240 1.969 . S
O256 C259 1.258 . S
O257 Zn241 2.024 . S
O257 C244 1.058 . S
C258 O247 1.260 . S
C258 O248 1.258 . S
C259 O255 1.260 . S
C259 O256 1.258 . S
Zn260 O266 1.969 . S
Zn260 O267 1.965 . S
Zn260 O271 2.024 . S
Zn260 O276 1.969 . S
Zn261 O268 1.969 . S
Zn261 O274 1.969 . S
Zn261 O275 1.965 . S
Zn261 O277 2.024 . S
C262 O263 1.229 . S
C262 O271 1.058 . S
O263 C262 1.229 . S
C264 O265 1.229 . S
C264 O277 1.058 . S
O265 C264 1.229 . S
O266 Zn260 1.969 . S
O266 C269 1.267 . S
O267 Zn260 1.965 . S
O267 C278 1.260 . S
O268 Zn261 1.969 . S
O268 C278 1.258 . S
C269 O266 1.267 . S
C269 O270 1.228 . S
O270 C269 1.228 . S
O271 Zn260 2.024 . S
O271 C262 1.058 . S
C272 O273 1.228 . S
C272 O274 1.267 . S
O273 C272 1.228 . S
O274 Zn261 1.969 . S
O274 C272 1.267 . S
O275 Zn261 1.965 . S
O275 C279 1.260 . S
O276 Zn260 1.969 . S
O276 C279 1.258 . S
O277 Zn261 2.024 . S
O277 C264 1.058 . S
C278 O267 1.260 . S
C278 O268 1.258 . S
C279 O275 1.260 . S
C279 O276 1.258 . S
Zn280 O286 1.969 . S
Zn280 O287 1.965 . S
Zn280 O291 2.024 . S
Zn280 O296 1.969 . S
Zn281 O288 1.969 . S
Zn281 O294 1.969 . S
Zn281 O295 1.965 . S
Zn281 O297 2.024 . S
C282 O283 1.229 . S
C282 O291 1.058 . S
O283 C282 1.229 . S
C284 O285 1.229 . S
C284 O297 1.058 . S
O285 C284 1.229 . S
O286 Zn280 1.969 . S
O286 C289 1.267 . S
O287 Zn280 1.965 . S
O287 C298 1.260 . S
O288 Zn281 1.969 . S
O288 C298 1.258 . S
C289 O286 1.267 . S
C289 O290 1.228 . S
O290 C289 1.228 . S
O291 Zn280 2.024 . S
O291 C282 1.058 . S
C292 O293 1.228 . S
C292 O294 1.267 . S
O293 C292 1.228 . S
O294 Zn281 1.969 . S
O294 C292 1.267 . S
O295 Zn281 1.965 . S
O295 C299 1.260 . S
O296 Zn280 1.969 . S
O296 C299 1.258 . S
O297 Zn281 2.024 . S
O297 C284 1.058 . S
C298 O287 1.260 . S
C298 O288 1.258 . S
C299 O295 1.260 . S
C299 O296 1.258 . S
Zn300 O306 1.969 . S
Zn300 O307 1.965 . S
Zn300 O311 2.024 . S
Zn300 O316 1.969 . S
Zn301 O308 1.969 . S
Zn301 O314 1.969 . S
Zn301 O315 1.965 . S
Zn301 O317 2.024 . S
C302 O303 1.229 . S
C302 O311 1.058 . S
O303 C302 1.229 . S
C304 O305 1.227 . S
C304 O317 1.059 . S
O305 C304 1.227 . S
O306 Zn300 1.969 . S
O306 C309 1.267 . S
O307 Zn300 1.965 . S
O307 C318 1.260 . S
O308 Zn301 1.969 . S
O308 C318 1.258 . S
C309 O306 1.267 . S
C309 O310 1.228 . S
O310 C309 1.228 . S
O311 Zn300 2.024 . S
O311 C302 1.058 . S
C312 O313 1.228 1_655 S
C312 O314 1.267 . S
O313 C312 1.228 1_455 S
O314 Zn301 1.969 . S
O314 C312 1.267 . S
O315 Zn301 1.965 . S
O315 C319 1.260 . S
O316 Zn300 1.969 . S
O316 C319 1.258 . S
O317 Zn301 2.024 . S
O317 C304 1.059 . S
C318 O307 1.260 . S
C318 O308 1.258 . S
C319 O315 1.260 . S
C319 O316 1.258 . S
Zn320 O326 1.969 . S
Zn320 O327 1.965 . S
Zn320 O331 2.024 . S
Zn320 O336 1.969 . S
Zn321 O328 1.969 . S
Zn321 O334 1.969 . S
Zn321 O335 1.965 . S
Zn321 O337 2.024 . S
C322 O323 1.229 . S
C322 O331 1.058 . S
O323 C322 1.229 . S
C324 O325 1.229 . S
C324 O337 1.058 . S
O325 C324 1.229 . S
O326 Zn320 1.969 . S
O326 C329 1.267 . S
O327 Zn320 1.965 . S
O327 C338 1.260 . S
O328 Zn321 1.969 . S
O328 C338 1.258 . S
C329 O326 1.267 . S
C329 O330 1.228 . S
O330 C329 1.228 . S
O331 Zn320 2.024 . S
O331 C322 1.058 . S
C332 O333 1.228 . S
C332 O334 1.267 . S
O333 C332 1.228 . S
O334 Zn321 1.969 . S
O334 C332 1.267 . S
O335 Zn321 1.965 . S
O335 C339 1.260 . S
O336 Zn320 1.969 . S
O336 C339 1.258 . S
O337 Zn321 2.024 . S
O337 C324 1.058 . S
C338 O327 1.260 . S
C338 O328 1.258 . S
C339 O335 1.260 . S
C339 O336 1.258 . S
Zn340 O346 1.969 . S
Zn340 O347 1.965 . S
Zn340 O351 2.024 . S
Zn340 O356 1.969 . S
Zn341 O348 1.969 . S
Zn341 O354 1.969 . S
Zn341 O355 1.965 . S
Zn341 O357 2.024 . S
C342 O343 1.229 . S
C342 O351 1.058 . S
O343 C342 1.229 . S
C344 O345 1.229 . S
C344 O357 1.056 . S
O345 C344 1.229 . S
O346 Zn340 1.969 . S
O346 C349 1.267 . S
O347 Zn340 1.965 . S
O347 C358 1.260 . S
O348 Zn341 1.969 . S
O348 C358 1.258 . S
C349 O346 1.267 . S
C349 O350 1.228 . S
O350 C349 1.228 . S
O351 Zn340 2.024 . S
O351 C342 1.058 . S
C352 O353 1.228 1_545 S
C352 O354 1.267 . S
O353 C352 1.228 1_565 S
O354 Zn341 1.969 . S
O354 C352 1.267 . S
O355 Zn341 1.965 . S
O355 C359 1.260 . S
O356 Zn340 1.969 . S
O356 C359 1.258 . S
O357 Zn341 2.024 . S
O357 C344 1.056 . S
C358 O347 1.260 . S
C358 O348 1.258 . S
C359 O355 1.260 . S
C359 O356 1.258 . S
Zn360 O366 1.969 . S
Zn360 O367 1.965 . S
Zn360 O371 2.024 . S
Zn360 O376 1.969 . S
Zn361 O368 1.969 . S
Zn361 O374 1.969 . S
Zn361 O375 1.965 . S
Zn361 O377 2.024 . S
C362 O363 1.229 . S
C362 O371 1.058 . S
O363 C362 1.229 . S
C364 O365 1.229 . S
C364 O377 1.058 . S
O365 C364 1.229 . S
O366 Zn360 1.969 . S
O366 C369 1.267 . S
O367 Zn360 1.965 . S
O367 C378 1.260 . S
O368 Zn361 1.969 . S
O368 C378 1.258 . S
C369 O366 1.267 . S
C369 O370 1.246 . S
O370 C369 1.246 . S
O371 Zn360 2.024 . S
O371 C362 1.058 . S
C372 O373 1.228 . S
C372 O374 1.267 . S
O373 C372 1.228 . S
O374 Zn361 1.969 . S
O374 C372 1.267 . S
O375 Zn361 1.965 . S
O375 C379 1.260 . S
O376 Zn360 1.969 . S
O376 C379 1.258 . S
O377 Zn361 2.024 . S
O377 C364 1.058 . S
C378 O367 1.260 . S
C378 O368 1.258 . S
C379 O375 1.260 . S
C379 O376 1.258 . S
Zn380 O386 1.969 . S
Zn380 O387 1.965 . S
Zn380 O391 2.024 . S
Zn380 O396 1.969 . S
Zn381 O388 1.969 . S
Zn381 O394 1.969 . S
Zn381 O395 1.965 . S
Zn381 O397 2.024 . S
C382 O383 1.229 . S
C382 O391 1.058 . S
O383 C382 1.229 . S
C384 O385 1.229 . S
C384 O397 1.058 . S
O385 C384 1.229 . S
O386 Zn380 1.969 . S
O386 C389 1.267 . S
O387 Zn380 1.965 . S
O387 C398 1.260 . S
O388 Zn381 1.969 . S
O388 C398 1.258 . S
C389 O386 1.267 . S
C389 O390 1.241 . S
O390 C389 1.241 . S
O391 Zn380 2.024 . S
O391 C382 1.058 . S
C392 O393 1.228 . S
C392 O394 1.267 . S
O393 C392 1.228 . S
O394 Zn381 1.969 . S
O394 C392 1.267 . S
O395 Zn381 1.965 . S
O395 C399 1.260 . S
O396 Zn380 1.969 . S
O396 C399 1.258 . S
O397 Zn381 2.024 . S
O397 C384 1.058 . S
C398 O387 1.260 . S
C398 O388 1.258 . S
C399 O395 1.260 . S
C399 O396 1.258 . S
Zn400 O406 1.969 . S
Zn400 O407 1.965 . S
Zn400 O411 2.024 . S
Zn400 O416 1.969 . S
Zn401 O408 1.969 . S
Zn401 O414 1.969 . S
Zn401 O415 1.965 . S
Zn401 O417 2.024 . S
C402 O403 1.229 . S
C402 O411 1.058 . S
O403 C402 1.229 . S
C404 O405 1.229 . S
C404 O417 1.058 . S
O405 C404 1.229 . S
O406 Zn400 1.969 . S
O406 C409 1.267 . S
O407 Zn400 1.965 . S
O407 C418 1.260 . S
O408 Zn401 1.969 . S
O408 C418 1.258 . S
C409 O406 1.267 . S
C409 O410 1.228 . S
O410 C409 1.228 . S
O411 Zn400 2.024 . S
O411 C402 1.058 . S
C412 O413 1.228 . S
C412 O414 1.267 . S
O413 C412 1.228 . S
O414 Zn401 1.969 . S
O414 C412 1.267 . S
O415 Zn401 1.965 . S
O415 C419 1.260 . S
O416 Zn400 1.969 . S
O416 C419 1.258 . S
O417 Zn401 2.024 . S
O417 C404 1.058 . S
C418 O407 1.260 . S
C418 O408 1.258 . S
C419 O415 1.260 . S
C419 O416 1.258 . S
Zn420 O426 1.969 . S
Zn420 O427 1.965 . S
Zn420 O431 2.024 . S
Zn420 O436 1.969 . S
Zn421 O428 1.969 . S
Zn421 O434 1.969 . S
Zn421 O435 1.965 . S
Zn421 O437 2.024 . S
C422 O423 1.229 . S
C422 O431 1.058 . S
O423 C422 1.229 . S
C424 O425 1.229 . S
C424 O437 1.058 . S
O425 C424 1.229 . S
O426 Zn420 1.969 . S
O426 C429 1.267 . S
O427 Zn420 1.965 . S
O427 C438 1.260 . S
O428 Zn421 1.969 . S
O428 C438 1.258 1_554 S
C429 O426 1.267 . S
C429 O430 1.228 . S
O430 C429 1.228 . S
O431 Zn420 2.024 . S
O431 C422 1.058 . S
C432 O433 1.228 . S
C432 O434 1.267 . S
O433 C432 1.228 . S
O434 Zn421 1.969 . S
O434 C432 1.267 . S
O435 Zn421 1.965 . S
O435 C439 1.260 . S
O436 Zn420 1.969 . S
O436 C439 1.258 1_556 S
O437 Zn421 2.024 . S
O437 C424 1.058 . S
C438 O427 1.260 . S
C438 O428 1.258 1_556 S
C439 O435 1.260 . S
C439 O436 1.258 1_554 S
Zn440 O446 1.969 . S
Zn440 O447 1.965 . S
Zn440 O451 2.024 . S
Zn440 O456 1.969 . S
Zn441 O448 1.969 . S
Zn441 O454 1.969 . S
Zn441 O455 1.965 . S
Zn441 O457 2.024 . S
C442 O443 1.229 . S
C442 O451 1.058 . S
O443 C442 1.229 . S
C444 O445 1.229 . S
C444 O457 1.058 . S
O445 C444 1.229 . S
O446 Zn440 1.969 . S
O446 C449 1.267 . S
O447 Zn440 1.965 . S
O447 C458 1.260 . S
O448 Zn441 1.969 . S
O448 C458 1.258 1_554 S
C449 O446 1.267 . S
C449 O450 1.228 . S
O450 C449 1.228 . S
O451 Zn440 2.024 . S
O451 C442 1.058 . S
C452 O453 1.228 . S
C452 O454 1.267 . S
O453 C452 1.228 . S
O454 Zn441 1.969 . S
O454 C452 1.267 . S
O455 Zn441 1.965 . S
O455 C459 1.260 . S
O456 Zn440 1.969 . S
O456 C459 1.258 1_556 S
O457 Zn441 2.024 . S
O457 C444 1.058 . S
C458 O447 1.260 . S
C458 O448 1.258 1_556 S
C459 O455 1.260 . S
C459 O456 1.258 1_554 S
Zn460 O466 1.969 . S
Zn460 O467 1.965 . S
Zn460 O471 2.024 . S
Zn460 O476 1.969 . S
Zn461 O468 1.969 . S
Zn461 O474 1.969 . S
Zn461 O475 1.965 . S
Zn461 O477 2.024 . S
C462 O463 1.229 . S
C462 O471 1.058 . S
O463 C462 1.229 . S
C464 O465 1.229 . S
C464 O477 1.058 . S
O465 C464 1.229 . S
O466 Zn460 1.969 . S
O466 C469 1.267 . S
O467 Zn460 1.965 . S
O467 C478 1.260 . S
O468 Zn461 1.969 . S
O468 C478 1.258 1_554 S
C469 O466 1.267 . S
C469 O470 1.228 . S
O470 C469 1.228 . S
O471 Zn460 2.024 . S
O471 C462 1.058 . S
C472 O473 1.228 . S
C472 O474 1.267 . S
O473 C472 1.228 . S
O474 Zn461 1.969 . S
O474 C472 1.267 . S
O475 Zn461 1.965 . S
O475 C479 1.260 . S
O476 Zn460 1.969 . S
O476 C479 1.258 1_556 S
O477 Zn461 2.024 . S
O477 C464 1.058 . S
C478 O467 1.260 . S
C478 O468 1.258 1_556 S
C479 O475 1.260 . S
C479 O476 1.258 1_554 S
Zn480 O486 1.969 . S
Zn480 O487 1.965 . S
Zn480 O491 2.024 . S
Zn480 O496 1.969 . S
Zn481 O488 1.969 . S
Zn481 O494 1.969 . S
Zn481 O495 1.965 . S
Zn481 O497 2.024 . S
C482 O483 1.229 . S
C482 O491 1.058 . S
O483 C482 1.229 . S
C484 O485 1.229 . S
C484 O497 1.058 . S
O485 C484 1.229 . S
O486 Zn480 1.969 . S
O486 C489 1.267 . S
O487 Zn480 1.965 . S
O487 C498 1.260 . S
O488 Zn481 1.969 . S
O488 C498 1.258 . S
C489 O486 1.267 . S
C489 O490 1.228 . S
O490 C489 1.228 . S
O491 Zn480 2.024 . S
O491 C482 1.058 . S
C492 O493 1.246 . S
C492 O494 1.267 . S
O493 C492 1.246 . S
O494 Zn481 1.969 . S
O494 C492 1.267 . S
O495 Zn481 1.965 . S
O495 C499 1.260 . S
O496 Zn480 1.969 . S
O496 C499 1.258 . S
O497 Zn481 2.024 . S
O497 C484 1.058 . S
C498 O487 1.260 . S
C498 O488 1.258 . S
C499 O495 1.260 . S
C499 O496 1.258 . S
Zn500 O506 1.969 . S
Zn500 O507 1.965 . S
Zn500 O511 2.024 . S
Zn500 O516 1.969 . S
Zn501 O508 1.969 . S
Zn501 O514 1.969 . S
Zn501 O515 1.965 . S
Zn501 O517 2.024 . S
C502 O503 1.229 . S
C502 O511 1.058 . S
O503 C502 1.229 . S
C504 O505 1.229 . S
C504 O517 1.058 . S
O505 C504 1.229 . S
O506 Zn500 1.969 . S
O506 C509 1.267 . S
O507 Zn500 1.965 . S
O507 C518 1.260 . S
O508 Zn501 1.969 . S
O508 C518 1.258 . S
C509 O506 1.267 . S
C509 O510 1.228 . S
O510 C509 1.228 . S
O511 Zn500 2.024 . S
O511 C502 1.058 . S
C512 O513 1.241 . S
C512 O514 1.267 . S
O513 C512 1.241 . S
O514 Zn501 1.969 . S
O514 C512 1.267 . S
O515 Zn501 1.965 . S
O515 C519 1.260 . S
O516 Zn500 1.969 . S
O516 C519 1.258 . S
O517 Zn501 2.024 . S
O517 C504 1.058 . S
C518 O507 1.260 . S
C518 O508 1.258 . S
C519 O515 1.260 . S
C519 O516 1.258 . S
Zn520 O526 1.969 . S
Zn520 O527 1.965 . S
Zn520 O531 2.024 . S
Zn520 O536 1.969 . S
Zn521 O528 1.969 . S
Zn521 O534 1.969 . S
Zn521 O535 1.965 . S
Zn521 O537 2.024 . S
C522 O523 1.229 . S
C522 O531 1.058 . S
O523 C522 1.229 . S
C524 O525 1.229 . S
C524 O537 1.058 . S
O525 C524 1.229 . S
O526 Zn520 1.969 . S
O526 C529 1.267 . S
O527 Zn520 1.965 . S
O527 C538 1.260 . S
O528 Zn521 1.969 . S
O528 C538 1.258 . S
C529 O526 1.267 . S
C529 O530 1.228 . S
O530 C529 1.228 . S
O531 Zn520 2.024 . S
O531 C522 1.058 . S
C532 O533 1.228 . S
C532 O534 1.267 . S
O533 C532 1.228 . S
O534 Zn521 1.969 . S
O534 C532 1.267 . S
O535 Zn521 1.965 . S
O535 C539 1.260 . S
O536 Zn520 1.969 . S
O536 C539 1.258 . S
O537 Zn521 2.024 . S
O537 C524 1.058 . S
C538 O527 1.260 . S
C538 O528 1.258 . S
C539 O535 1.260 . S
C539 O536 1.258 . S
Zn540 O546 1.969 . S
Zn540 O547 1.965 . S
Zn540 O551 2.024 . S
Zn540 O556 1.969 . S
Zn541 O548 1.969 . S
Zn541 O554 1.969 . S
Zn541 O555 1.965 . S
Zn541 O557 2.024 . S
C542 O543 1.229 . S
C542 O551 1.058 . S
O543 C542 1.229 . S
C544 O545 1.229 . S
C544 O557 1.058 . S
O545 C544 1.229 . S
O546 Zn540 1.969 . S
O546 C549 1.267 . S
O547 Zn540 1.965 . S
O547 C558 1.260 . S
O548 Zn541 1.969 . S
O548 C558 1.258 1_554 S
C549 O546 1.267 . S
C549 O550 1.228 . S
O550 C549 1.228 . S
O551 Zn540 2.024 . S
O551 C542 1.058 . S
C552 O553 1.228 . S
C552 O554 1.267 . S
O553 C552 1.228 . S
O554 Zn541 1.969 . S
O554 C552 1.267 . S
O555 Zn541 1.965 . S
O555 C559 1.260 . S
O556 Zn540 1.969 . S
O556 C559 1.258 1_556 S
O557 Zn541 2.024 . S
O557 C544 1.058 . S
C558 O547 1.260 . S
C558 O548 1.258 1_556 S
C559 O555 1.260 . S
C559 O556 1.258 1_554 S
Zn560 O566 1.969 . S
Zn560 O567 1.965 . S
Zn560 O571 2.024 . S
Zn560 O576 1.969 . S
Zn561 O568 1.969 . S
Zn561 O574 1.969 . S
Zn561 O575 1.965 . S
Zn561 O577 2.024 . S
C562 O563 1.229 . S
C562 O571 1.058 . S
O563 C562 1.229 . S
C564 O565 1.229 . S
C564 O577 1.058 . S
O565 C564 1.229 . S
O566 Zn560 1.969 . S
O566 C569 1.267 . S
O567 Zn560 1.965 . S
O567 C578 1.260 . S
O568 Zn561 1.969 . S
O568 C578 1.258 1_554 S
C569 O566 1.267 . S
C569 O570 1.228 . S
O570 C569 1.228 . S
O571 Zn560 2.024 . S
O571 C562 1.058 . S
C572 O573 1.228 . S
C572 O574 1.267 . S
O573 C572 1.228 . S
O574 Zn561 1.969 . S
O574 C572 1.267 . S
O575 Zn561 1.965 . S
O575 C579 1.260 . S
O576 Zn560 1.969 . S
O576 C579 1.258 1_556 S
O577 Zn561 2.024 . S
O577 C564 1.058 . S
C578 O567 1.260 . S
C578 O568 1.258 1_556 S
C579 O575 1.260 . S
C579 O576 1.258 1_554 S
Zn580 O586 1.969 . S
Zn580 O587 1.965 . S
Zn580 O591 2.024 . S
Zn580 O596 1.969 . S
Zn581 O588 1.969 . S
Zn581 O594 1.969 . S
Zn581 O595 1.965 . S
Zn581 O597 2.024 . S
C582 O583 1.229 . S
C582 O591 1.058 . S
O583 C582 1.229 . S
C584 O585 1.229 . S
C584 O597 1.058 . S
O585 C584 1.229 . S
O586 Zn580 1.969 . S
O586 C589 1.267 . S
O587 Zn580 1.965 . S
O587 C598 1.260 . S
O588 Zn581 1.969 . S
O588 C598 1.258 1_554 S
C589 O586 1.267 . S
C589 O590 1.228 . S
O590 C589 1.228 . S
O591 Zn580 2.024 . S
O591 C582 1.058 . S
C592 O593 1.228 . S
C592 O594 1.267 . S
O593 C592 1.228 . S
O594 Zn581 1.969 . S
O594 C592 1.267 . S
O595 Zn581 1.965 . S
O595 C599 1.260 . S
O596 Zn580 1.969 . S
O596 C599 1.258 1_556 S
O597 Zn581 2.024 . S
O597 C584 1.058 . S
C598 O587 1.260 . S
C598 O588 1.258 1_556 S
C599 O595 1.260 . S
C599 O596 1.258 1_554 S
Zn600 O606 1.969 . S
Zn600 O607 1.965 . S
Zn600 O611 2.024 . S
Zn600 O616 1.969 . S
Zn601 O608 1.969 . S
Zn601 O614 1.969 . S
Zn601 O615 1.965 . S
Zn601 O617 2.024 . S
C602 O603 1.229 . S
C602 O611 1.058 . S
O603 C602 1.229 . S
C604 O605 1.229 . S
C604 O617 1.058 . S
O605 C604 1.229 . S
O606 Zn600 1.969 . S
O606 C609 1.267 . S
O607 Zn600 1.965 . S
O607 C618 1.260 . S
O608 Zn601 1.969 . S
O608 C618 1.258 . S
C609 O606 1.267 . S
C609 O610 1.228 . S
O610 C609 1.228 . S
O611 Zn600 2.024 . S
O611 C602 1.058 . S
C612 O613 1.228 . S
C612 O614 1.267 . S
O613 C612 1.228 . S
O614 Zn601 1.969 . S
O614 C612 1.267 . S
O615 Zn601 1.965 . S
O615 C619 1.260 . S
O616 Zn600 1.969 . S
O616 C619 1.258 . S
O617 Zn601 2.024 . S
O617 C604 1.058 . S
C618 O607 1.260 . S
C618 O608 1.258 . S
C619 O615 1.260 . S
C619 O616 1.258 . S
Zn620 O626 1.969 . S
Zn620 O627 1.965 . S
Zn620 O631 2.024 . S
Zn620 O636 1.969 . S
Zn621 O628 1.969 . S
Zn621 O634 1.969 . S
Zn621 O635 1.965 . S
Zn621 O637 2.024 . S
C622 O623 1.229 . S
C622 O631 1.058 . S
O623 C622 1.229 . S
C624 O625 1.229 . S
C624 O637 1.058 . S
O625 C624 1.229 . S
O626 Zn620 1.969 . S
O626 C629 1.267 . S
O627 Zn620 1.965 . S
O627 C638 1.260 . S
O628 Zn621 1.969 . S
O628 C638 1.258 . S
C629 O626 1.267 . S
C629 O630 1.228 . S
O630 C629 1.228 . S
O631 Zn620 2.024 . S
O631 C622 1.058 . S
C632 O633 1.228 . S
C632 O634 1.267 . S
O633 C632 1.228 . S
O634 Zn621 1.969 . S
O634 C632 1.267 . S
O635 Zn621 1.965 . S
O635 C639 1.260 . S
O636 Zn620 1.969 . S
O636 C639 1.258 . S
O637 Zn621 2.024 . S
O637 C624 1.058 . S
C638 O627 1.260 . S
C638 O628 1.258 . S
C639 O635 1.260 . S
C639 O636 1.258 . S
Zn640 O646 1.969 . S
Zn640 O647 1.965 . S
Zn640 O651 2.024 . S
Zn640 O656 1.969 . S
Zn641 O648 1.969 . S
Zn641 O654 1.969 . S
Zn641 O655 1.965 . S
Zn641 O657 2.024 . S
C642 O643 1.229 . S
C642 O651 1.058 . S
O643 C642 1.229 . S
C644 O645 1.229 . S
C644 O657 1.058 . S
O645 C644 1.229 . S
O646 Zn640 1.969 . S
O646 C649 1.267 . S
O647 Zn640 1.965 . S
O647 C658 1.260 . S
O648 Zn641 1.969 . S
O648 C658 1.258 . S
C649 O646 1.267 . S
C649 O650 1.228 . S
O650 C649 1.228 . S
O651 Zn640 2.024 . S
O651 C642 1.058 . S
C652 O653 1.228 . S
C652 O654 1.267 . S
O653 C652 1.228 . S
O654 Zn641 1.969 . S
O654 C652 1.267 . S
O655 Zn641 1.965 . S
O655 C659 1.260 . S
O656 Zn640 1.969 . S
O656 C659 1.258 . S
O657 Zn641 2.024 . S
O657 C644 1.058 . S
C658 O647 1.260 . S
C658 O648 1.258 . S
C659 O655 1.260 . S
C659 O656 1.258 . S
Zn660 O666 1.969 . S
Zn660 O667 1.965 . S
Zn660 O671 2.024 . S
Zn660 O676 1.969 . S
Zn661 O668 1.969 . S
Zn661 O674 1.969 . S
Zn661 O675 1.965 . S
Zn661 O677 2.024 . S
C662 O663 1.227 . S
C662 O671 1.059 . S
O663 C662 1.227 . S
C664 O665 1.229 . S
C664 O677 1.058 . S
O665 C664 1.229 . S
O666 Zn660 1.969 . S
O666 C669 1.267 . S
O667 Zn660 1.965 . S
O667 C678 1.260 . S
O668 Zn661 1.969 . S
O668 C678 1.258 . S
C669 O666 1.267 . S
C669 O670 1.228 1_455 S
O670 C669 1.228 1_655 S
O671 Zn660 2.024 . S
O671 C662 1.059 . S
C672 O673 1.228 . S
C672 O674 1.267 . S
O673 C672 1.228 . S
O674 Zn661 1.969 . S
O674 C672 1.267 . S
O675 Zn661 1.965 . S
O675 C679 1.260 . S
O676 Zn660 1.969 . S
O676 C679 1.258 . S
O677 Zn661 2.024 . S
O677 C664 1.058 . S
C678 O667 1.260 . S
C678 O668 1.258 . S
C679 O675 1.260 . S
C679 O676 1.258 . S
Zn680 O686 1.969 . S
Zn680 O687 1.965 . S
Zn680 O691 2.024 . S
Zn680 O696 1.969 . S
Zn681 O688 1.969 . S
Zn681 O694 1.969 . S
Zn681 O695 1.965 . S
Zn681 O697 2.024 . S
C682 O683 1.229 . S
C682 O691 1.058 . S
O683 C682 1.229 . S
C684 O685 1.229 . S
C684 O697 1.058 . S
O685 C684 1.229 . S
O686 Zn680 1.969 . S
O686 C689 1.267 . S
O687 Zn680 1.965 . S
O687 C698 1.260 . S
O688 Zn681 1.969 . S
O688 C698 1.258 . S
C689 O686 1.267 . S
C689 O690 1.228 . S
O690 C689 1.228 . S
O691 Zn680 2.024 . S
O691 C682 1.058 . S
C692 O693 1.228 . S
C692 O694 1.267 . S
O693 C692 1.228 . S
O694 Zn681 1.969 . S
O694 C692 1.267 . S
O695 Zn681 1.965 . S
O695 C699 1.260 . S
O696 Zn680 1.969 . S
O696 C699 1.258 . S
O697 Zn681 2.024 . S
O697 C684 1.058 . S
C698 O687 1.260 . S
C698 O688 1.258 . S
C699 O695 1.260 . S
C699 O696 1.258 . S
Zn700 O706 1.969 . S
Zn700 O707 1.965 . S
Zn700 O711 2.024 . S
Zn700 O716 1.969 . S
Zn701 O708 1.969 . S
Zn701 O714 1.969 . S
Zn701 O715 1.965 . S
Zn701 O717 2.024 . S
C702 O703 1.229 . S
C702 O711 1.056 . S
O703 C702 1.229 . S
C704 O705 1.229 . S
C704 O717 1.058 . S
O705 C704 1.229 . S
O706 Zn700 1.969 . S
O706 C709 1.267 . S
O707 Zn700 1.965 . S
O707 C718 1.260 . S
O708 Zn701 1.969 . S
O708 C718 1.258 . S
C709 O706 1.267 . S
C709 O710 1.228 1_565 S
O710 C709 1.228 1_545 S
O711 Zn700 2.024 . S
O711 C702 1.056 . S
C712 O713 1.228 . S
C712 O714 1.267 . S
O713 C712 1.228 . S
O714 Zn701 1.969 . S
O714 C712 1.267 . S
O715 Zn701 1.965 . S
O715 C719 1.260 . S
O716 Zn700 1.969 . S
O716 C719 1.258 . S
O717 Zn701 2.024 . S
O717 C704 1.058 . S
C718 O707 1.260 . S
C718 O708 1.258 . S
C719 O715 1.260 . S
C719 O716 1.258 . S
H720 C726 0.930 . S
H721 C729 0.930 . S
H722 C730 0.930 . S
H723 C731 0.930 . S
H724 C734 0.930 . S
H725 C735 0.930 . S
C726 H720 0.930 . S
C726 C727 1.355 . S
C726 C728 1.415 . S
C727 C726 1.355 . S
C727 C729 1.419 . S
C728 C726 1.415 . S
C728 C733 1.425 . S
C728 C735 1.409 . S
C729 H721 0.930 . S
C729 C727 1.419 . S
C729 C730 1.362 . S
C730 H722 0.930 . S
C730 C729 1.362 . S
C730 C733 1.409 . S
C731 H723 0.930 . S
C731 C732 1.355 . S
C731 C733 1.415 . S
C732 C731 1.355 . S
C732 C734 1.419 . S
C733 C728 1.425 . S
C733 C730 1.409 . S
C733 C731 1.415 . S
C734 H724 0.930 . S
C734 C732 1.419 . S
C734 C735 1.362 . S
C735 H725 0.930 . S
C735 C728 1.409 . S
C735 C734 1.362 . S
H736 C742 0.930 . S
H737 C745 0.930 . S
H738 C746 0.930 . S
H739 C747 0.930 . S
H740 C750 0.930 1_565 S
H741 C751 0.930 . S
C742 H736 0.930 . S
C742 C743 1.355 . S
C742 C744 1.415 . S
C743 C742 1.355 . S
C743 C745 1.419 . S
C744 C742 1.415 . S
C744 C749 1.425 . S
C744 C751 1.409 . S
C745 H737 0.930 . S
C745 C743 1.419 . S
C745 C746 1.362 . S
C746 H738 0.930 . S
C746 C745 1.362 . S
C746 C749 1.409 . S
C747 H739 0.930 . S
C747 C748 1.355 . S
C747 C749 1.415 1_565 S
C748 C747 1.355 . S
C748 C750 1.419 1_565 S
C749 C744 1.425 . S
C749 C746 1.409 . S
C749 C747 1.415 1_545 S
C750 H740 0.930 1_545 S
C750 C748 1.419 1_545 S
C750 C751 1.362 . S
C751 H741 0.930 . S
C751 C744 1.409 . S
C751 C750 1.362 . S
H752 C758 0.930 . S
H753 C761 0.930 . S
H754 C762 0.930 . S
H755 C763 0.930 . S
H756 C766 0.930 . S
H757 C767 0.930 . S
C758 H752 0.930 . S
C758 C759 1.355 1_655 S
C758 C760 1.415 . S
C759 C758 1.355 1_455 S
C759 C761 1.419 . S
C760 C758 1.415 . S
C760 C765 1.425 . S
C760 C767 1.409 . S
C761 H753 0.930 . S
C761 C759 1.419 . S
C761 C762 1.362 1_455 S
C762 H754 0.930 . S
C762 C761 1.362 1_655 S
C762 C765 1.409 . S
C763 H755 0.930 . S
C763 C764 1.355 . S
C763 C765 1.415 . S
C764 C763 1.355 . S
C764 C766 1.419 . S
C765 C760 1.425 . S
C765 C762 1.409 . S
C765 C763 1.415 . S
C766 H756 0.930 . S
C766 C764 1.419 . S
C766 C767 1.362 . S
C767 H757 0.930 . S
C767 C760 1.409 . S
C767 C766 1.362 . S
H768 C774 0.930 . S
H769 C777 0.930 . S
H770 C778 0.930 . S
H771 C779 0.930 . S
H772 C782 0.930 . S
H773 C783 0.930 . S
C774 H768 0.930 . S
C774 C775 1.355 . S
C774 C776 1.415 . S
C775 C774 1.355 . S
C775 C777 1.419 . S
C776 C774 1.415 . S
C776 C781 1.425 . S
C776 C783 1.409 . S
C777 H769 0.930 . S
C777 C775 1.419 . S
C777 C778 1.362 . S
C778 H770 0.930 . S
C778 C777 1.362 . S
C778 C781 1.409 . S
C779 H771 0.930 . S
C779 C780 1.355 . S
C779 C781 1.415 . S
C780 C779 1.355 . S
C780 C782 1.419 . S
C781 C776 1.425 . S
C781 C778 1.409 . S
C781 C779 1.415 . S
C782 H772 0.930 . S
C782 C780 1.419 . S
C782 C783 1.362 . S
C783 H773 0.930 . S
C783 C776 1.409 . S
C783 C782 1.362 . S
H784 C790 0.930 . S
H785 C793 0.930 . S
H786 C794 0.930 . S
H787 C795 0.930 . S
H788 C798 0.930 . S
H789 C799 0.930 . S
C790 H784 0.930 . S
C790 C791 1.355 . S
C790 C792 1.415 . S
C791 C790 1.355 . S
C791 C793 1.419 . S
C792 C790 1.415 . S
C792 C797 1.425 . S
C792 C799 1.409 . S
C793 H785 0.930 . S
C793 C791 1.419 . S
C793 C794 1.362 . S
C794 H786 0.930 . S
C794 C793 1.362 . S
C794 C797 1.409 . S
C795 H787 0.930 . S
C795 C796 1.355 . S
C795 C797 1.415 1_545 S
C796 C795 1.355 . S
C796 C798 1.419 1_545 S
C797 C792 1.425 . S
C797 C794 1.409 . S
C797 C795 1.415 1_565 S
C798 H788 0.930 . S
C798 C796 1.419 1_565 S
C798 C799 1.362 . S
C799 H789 0.930 . S
C799 C792 1.409 . S
C799 C798 1.362 . S
H800 C806 0.930 . S
H801 C809 0.930 . S
H802 C810 0.930 . S
H803 C811 0.930 . S
H804 C814 0.930 . S
H805 C815 0.930 . S
C806 H800 0.930 . S
C806 C807 1.355 1_455 S
C806 C808 1.415 . S
C807 C806 1.355 1_655 S
C807 C809 1.419 . S
C808 C806 1.415 . S
C808 C813 1.425 . S
C808 C815 1.409 . S
C809 H801 0.930 . S
C809 C807 1.419 . S
C809 C810 1.362 1_655 S
C810 H802 0.930 . S
C810 C809 1.362 1_455 S
C810 C813 1.409 . S
C811 H803 0.930 . S
C811 C812 1.355 . S
C811 C813 1.415 . S
C812 C811 1.355 . S
C812 C814 1.419 . S
C813 C808 1.425 . S
C813 C810 1.409 . S
C813 C811 1.415 . S
C814 H804 0.930 . S
C814 C812 1.419 . S
C814 C815 1.362 . S
C815 H805 0.930 . S
C815 C808 1.409 . S
C815 C814 1.362 . S
H816 C822 0.930 . S
H817 C825 0.930 . S
H818 C826 0.930 . S
H819 C827 0.930 . S
H820 C830 0.930 . S
H821 C831 0.930 . S
C822 H816 0.930 . S
C822 C823 1.355 . S
C822 C824 1.415 . S
C823 C822 1.355 . S
C823 C825 1.419 . S
C824 C822 1.415 . S
C824 C829 1.425 . S
C824 C831 1.409 . S
C825 H817 0.930 . S
C825 C823 1.419 . S
C825 C826 1.362 . S
C826 H818 0.930 . S
C826 C825 1.362 . S
C826 C829 1.409 . S
C827 H819 0.930 . S
C827 C828 1.355 . S
C827 C829 1.415 . S
C828 C827 1.355 . S
C828 C830 1.419 . S
C829 C824 1.425 . S
C829 C826 1.409 . S
C829 C827 1.415 . S
C830 H820 0.930 . S
C830 C828 1.419 . S
C830 C831 1.362 . S
C831 H821 0.930 . S
C831 C824 1.409 . S
C831 C830 1.362 . S
H832 C838 0.930 . S
H833 C841 0.930 . S
H834 C842 0.930 . S
H835 C843 0.930 . S
H836 C846 0.930 . S
H837 C847 0.930 . S
C838 H832 0.930 . S
C838 C839 1.355 1_565 S
C838 C840 1.415 . S
C839 C838 1.355 1_545 S
C839 C841 1.419 . S
C840 C838 1.415 . S
C840 C845 1.425 . S
C840 C847 1.409 . S
C841 H833 0.930 . S
C841 C839 1.419 . S
C841 C842 1.362 1_545 S
C842 H834 0.930 . S
C842 C841 1.362 1_565 S
C842 C845 1.409 . S
C843 H835 0.930 . S
C843 C844 1.355 . S
C843 C845 1.415 . S
C844 C843 1.355 . S
C844 C846 1.419 . S
C845 C840 1.425 . S
C845 C842 1.409 . S
C845 C843 1.415 . S
C846 H836 0.930 . S
C846 C844 1.419 . S
C846 C847 1.362 . S
C847 H837 0.930 . S
C847 C840 1.409 . S
C847 C846 1.362 . S
H848 C854 0.930 . S
H849 C857 0.930 . S
H850 C858 0.930 . S
H851 C859 0.930 . S
H852 C862 0.930 . S
H853 C863 0.930 . S
C854 H848 0.930 . S
C854 C855 1.355 . S
C854 C856 1.415 1_655 S
C855 C854 1.355 . S
C855 C857 1.419 1_655 S
C856 C854 1.415 1_455 S
C856 C861 1.425 . S
C856 C863 1.409 . S
C857 H849 0.930 . S
C857 C855 1.419 1_455 S
C857 C858 1.362 . S
C858 H850 0.930 . S
C858 C857 1.362 . S
C858 C861 1.409 . S
C859 H851 0.930 . S
C859 C860 1.355 . S
C859 C861 1.415 . S
C860 C859 1.355 . S
C860 C862 1.419 . S
C861 C856 1.425 . S
C861 C858 1.409 . S
C861 C859 1.415 . S
C862 H852 0.930 . S
C862 C860 1.419 . S
C862 C863 1.362 . S
C863 H853 0.930 . S
C863 C856 1.409 . S
C863 C862 1.362 . S
H864 C870 0.930 . S
H865 C873 0.930 . S
H866 C874 0.930 . S
H867 C875 0.930 . S
H868 C878 0.930 . S
H869 C879 0.930 . S
C870 H864 0.930 . S
C870 C871 1.355 . S
C870 C872 1.415 . S
C871 C870 1.355 . S
C871 C873 1.419 . S
C872 C870 1.415 . S
C872 C877 1.425 . S
C872 C879 1.409 . S
C873 H865 0.930 . S
C873 C871 1.419 . S
C873 C874 1.362 . S
C874 H866 0.930 . S
C874 C873 1.362 . S
C874 C877 1.409 . S
C875 H867 0.930 . S
C875 C876 1.355 . S
C875 C877 1.415 . S
C876 C875 1.355 . S
C876 C878 1.419 . S
C877 C872 1.425 . S
C877 C874 1.409 . S
C877 C875 1.415 . S
C878 H868 0.930 . S
C878 C876 1.419 . S
C878 C879 1.362 . S
C879 H869 0.930 . S
C879 C872 1.409 . S
C879 C878 1.362 . S
H880 C886 0.930 . S
H881 C889 0.930 . S
H882 C890 0.930 . S
H883 C891 0.930 . S
H884 C894 0.930 . S
H885 C895 0.930 . S
C886 H880 0.930 . S
C886 C887 1.355 . S
C886 C888 1.415 . S
C887 C886 1.355 . S
C887 C889 1.419 . S
C888 C886 1.415 . S
C888 C893 1.425 . S
C888 C895 1.409 . S
C889 H881 0.930 . S
C889 C887 1.419 . S
C889 C890 1.362 . S
C890 H882 0.930 . S
C890 C889 1.362 . S
C890 C893 1.409 . S
C891 H883 0.930 . S
C891 C892 1.355 1_545 S
C891 C893 1.415 . S
C892 C891 1.355 1_565 S
C892 C894 1.419 . S
C893 C888 1.425 . S
C893 C890 1.409 . S
C893 C891 1.415 . S
C894 H884 0.930 . S
C894 C892 1.419 . S
C894 C895 1.362 1_565 S
C895 H885 0.930 . S
C895 C888 1.409 . S
C895 C894 1.362 1_545 S
H896 C902 0.930 . S
H897 C905 0.930 . S
H898 C906 0.930 . S
H899 C907 0.930 . S
H900 C910 0.930 . S
H901 C911 0.930 . S
C902 H896 0.930 . S
C902 C903 1.355 . S
C902 C904 1.415 . S
C903 C902 1.355 . S
C903 C905 1.419 . S
C904 C902 1.415 . S
C904 C909 1.425 . S
C904 C911 1.409 . S
C905 H897 0.930 . S
C905 C903 1.419 . S
C905 C906 1.362 . S
C906 H898 0.930 . S
C906 C905 1.362 . S
C906 C909 1.409 . S
C907 H899 0.930 . S
C907 C908 1.355 1_655 S
C907 C909 1.415 . S
C908 C907 1.355 1_455 S
C908 C910 1.419 . S
C909 C904 1.425 . S
C909 C906 1.409 . S
C909 C907 1.415 . S
C910 H900 0.930 . S
C910 C908 1.419 . S
C910 C911 1.362 1_455 S
C911 H901 0.930 . S
C911 C904 1.409 . S
C911 C910 1.362 1_655 S
H912 C918 0.930 . S
H913 C921 0.930 . S
H914 C922 0.930 . S
H915 C923 0.930 . S
H916 C926 0.930 . S
H917 C927 0.930 . S
C918 H912 0.930 . S
C918 C919 1.355 . S
C918 C920 1.415 . S
C919 C918 1.355 . S
C919 C921 1.419 . S
C920 C918 1.415 . S
C920 C925 1.425 . S
C920 C927 1.409 . S
C921 H913 0.930 . S
C921 C919 1.419 . S
C921 C922 1.362 . S
C922 H914 0.930 . S
C922 C921 1.362 . S
C922 C925 1.409 . S
C923 H915 0.930 . S
C923 C924 1.355 . S
C923 C925 1.415 . S
C924 C923 1.355 . S
C924 C926 1.419 . S
C925 C920 1.425 . S
C925 C922 1.409 . S
C925 C923 1.415 . S
C926 H916 0.930 . S
C926 C924 1.419 . S
C926 C927 1.362 . S
C927 H917 0.930 . S
C927 C920 1.409 . S
C927 C926 1.362 . S
H928 C934 0.930 . S
H929 C937 0.930 . S
H930 C938 0.930 . S
H931 C939 0.930 . S
H932 C942 0.930 . S
H933 C943 0.930 . S
C934 H928 0.930 . S
C934 C935 1.355 . S
C934 C936 1.415 . S
C935 C934 1.355 . S
C935 C937 1.419 . S
C936 C934 1.415 . S
C936 C941 1.425 . S
C936 C943 1.409 . S
C937 H929 0.930 . S
C937 C935 1.419 . S
C937 C938 1.362 . S
C938 H930 0.930 . S
C938 C937 1.362 . S
C938 C941 1.409 . S
C939 H931 0.930 . S
C939 C940 1.355 . S
C939 C941 1.415 . S
C940 C939 1.355 . S
C940 C942 1.419 . S
C941 C936 1.425 . S
C941 C938 1.409 . S
C941 C939 1.415 . S
C942 H932 0.930 . S
C942 C940 1.419 . S
C942 C943 1.362 . S
C943 H933 0.930 . S
C943 C936 1.409 . S
C943 C942 1.362 . S
H944 C950 0.930 . S
H945 C953 0.930 . S
H946 C954 0.930 . S
H947 C955 0.930 . S
H948 C958 0.930 . S
H949 C959 0.930 . S
C950 H944 0.930 . S
C950 C951 1.355 . S
C950 C952 1.415 . S
C951 C950 1.355 . S
C951 C953 1.419 . S
C952 C950 1.415 . S
C952 C957 1.425 . S
C952 C959 1.409 . S
C953 H945 0.930 . S
C953 C951 1.419 . S
C953 C954 1.362 . S
C954 H946 0.930 . S
C954 C953 1.362 . S
C954 C957 1.409 . S
C955 H947 0.930 . S
C955 C956 1.355 . S
C955 C957 1.415 . S
C956 C955 1.355 . S
C956 C958 1.419 . S
C957 C952 1.425 . S
C957 C954 1.409 . S
C957 C955 1.415 . S
C958 H948 0.930 . S
C958 C956 1.419 . S
C958 C959 1.362 . S
C959 H949 0.930 . S
C959 C952 1.409 . S
C959 C958 1.362 . S
H960 C966 0.930 . S
H961 C969 0.930 . S
H962 C970 0.930 . S
H963 C971 0.930 . S
H964 C974 0.930 . S
H965 C975 0.930 . S
C966 H960 0.930 . S
C966 C967 1.355 . S
C966 C968 1.415 . S
C967 C966 1.355 . S
C967 C969 1.419 . S
C968 C966 1.415 . S
C968 C973 1.425 . S
C968 C975 1.409 . S
C969 H961 0.930 . S
C969 C967 1.419 . S
C969 C970 1.362 . S
C970 H962 0.930 . S
C970 C969 1.362 . S
C970 C973 1.409 . S
C971 H963 0.930 . S
C971 C972 1.355 . S
C971 C973 1.415 . S
C972 C971 1.355 . S
C972 C974 1.419 . S
C973 C968 1.425 . S
C973 C970 1.409 . S
C973 C971 1.415 . S
C974 H964 0.930 . S
C974 C972 1.419 . S
C974 C975 1.362 . S
C975 H965 0.930 . S
C975 C968 1.409 . S
C975 C974 1.362 . S
H976 C982 0.930 . S
H977 C985 0.930 . S
H978 C986 0.930 . S
H979 C987 0.930 . S
H980 C990 0.930 . S
H981 C991 0.930 . S
C982 H976 0.930 . S
C982 C983 1.355 . S
C982 C984 1.415 . S
C983 C982 1.355 . S
C983 C985 1.419 . S
C984 C982 1.415 . S
C984 C989 1.425 . S
C984 C991 1.409 . S
C985 H977 0.930 . S
C985 C983 1.419 . S
C985 C986 1.362 . S
C986 H978 0.930 . S
C986 C985 1.362 . S
C986 C989 1.409 . S
C987 H979 0.930 . S
C987 C988 1.355 . S
C987 C989 1.415 . S
C988 C987 1.355 . S
C988 C990 1.419 . S
C989 C984 1.425 . S
C989 C986 1.409 . S
C989 C987 1.415 . S
C990 H980 0.930 . S
C990 C988 1.419 . S
C990 C991 1.362 . S
C991 H981 0.930 . S
C991 C984 1.409 . S
C991 C990 1.362 . S
H992 C998 0.930 . S
H993 C1001 0.930 . S
H994 C1002 0.930 . S
H995 C1003 0.930 . S
H996 C1006 0.930 . S
H997 C1007 0.930 . S
C998 H992 0.930 . S
C998 C999 1.355 . S
C998 C1000 1.415 . S
C999 C998 1.355 . S
C999 C1001 1.419 . S
C1000 C998 1.415 . S
C1000 C1005 1.425 . S
C1000 C1007 1.409 . S
C1001 H993 0.930 . S
C1001 C999 1.419 . S
C1001 C1002 1.362 . S
C1002 H994 0.930 . S
C1002 C1001 1.362 . S
C1002 C1005 1.409 . S
C1003 H995 0.930 . S
C1003 C1004 1.355 . S
C1003 C1005 1.415 . S
C1004 C1003 1.355 . S
C1004 C1006 1.419 . S
C1005 C1000 1.425 . S
C1005 C1002 1.409 . S
C1005 C1003 1.415 . S
C1006 H996 0.930 . S
C1006 C1004 1.419 . S
C1006 C1007 1.362 . S
C1007 H997 0.930 . S
C1007 C1000 1.409 . S
C1007 C1006 1.362 . S
H1008 C1014 0.930 . S
H1009 C1017 0.930 . S
H1010 C1018 0.930 . S
H1011 C1019 0.930 . S
H1012 C1022 0.930 . S
H1013 C1023 0.930 . S
C1014 H1008 0.930 . S
C1014 C1015 1.355 . S
C1014 C1016 1.415 . S
C1015 C1014 1.355 . S
C1015 C1017 1.419 . S
C1016 C1014 1.415 . S
C1016 C1021 1.425 . S
C1016 C1023 1.409 . S
C1017 H1009 0.930 . S
C1017 C1015 1.419 . S
C1017 C1018 1.362 . S
C1018 H1010 0.930 . S
C1018 C1017 1.362 . S
C1018 C1021 1.409 . S
C1019 H1011 0.930 . S
C1019 C1020 1.355 . S
C1019 C1021 1.415 . S
C1020 C1019 1.355 . S
C1020 C1022 1.419 . S
C1021 C1016 1.425 . S
C1021 C1018 1.409 . S
C1021 C1019 1.415 . S
C1022 H1012 0.930 . S
C1022 C1020 1.419 . S
C1022 C1023 1.362 . S
C1023 H1013 0.930 . S
C1023 C1016 1.409 . S
C1023 C1022 1.362 . S
H1024 C1030 0.930 . S
H1025 C1033 0.930 . S
H1026 C1034 0.930 . S
H1027 C1035 0.930 . S
H1028 C1038 0.930 . S
H1029 C1039 0.930 . S
C1030 H1024 0.930 . S
C1030 C1031 1.355 . S
C1030 C1032 1.415 . S
C1031 C1030 1.355 . S
C1031 C1033 1.419 . S
C1032 C1030 1.415 . S
C1032 C1037 1.425 . S
C1032 C1039 1.409 . S
C1033 H1025 0.930 . S
C1033 C1031 1.419 . S
C1033 C1034 1.362 . S
C1034 H1026 0.930 . S
C1034 C1033 1.362 . S
C1034 C1037 1.409 . S
C1035 H1027 0.930 . S
C1035 C1036 1.355 . S
C1035 C1037 1.415 . S
C1036 C1035 1.355 . S
C1036 C1038 1.419 . S
C1037 C1032 1.425 . S
C1037 C1034 1.409 . S
C1037 C1035 1.415 . S
C1038 H1028 0.930 . S
C1038 C1036 1.419 . S
C1038 C1039 1.362 . S
C1039 H1029 0.930 . S
C1039 C1032 1.409 . S
C1039 C1038 1.362 . S
H1040 C1046 0.930 . S
H1041 C1049 0.930 . S
H1042 C1050 0.930 . S
H1043 C1051 0.930 . S
H1044 C1054 0.930 . S
H1045 C1055 0.930 . S
C1046 H1040 0.930 . S
C1046 C1047 1.355 . S
C1046 C1048 1.415 . S
C1047 C1046 1.355 . S
C1047 C1049 1.419 . S
C1048 C1046 1.415 . S
C1048 C1053 1.425 . S
C1048 C1055 1.409 . S
C1049 H1041 0.930 . S
C1049 C1047 1.419 . S
C1049 C1050 1.362 . S
C1050 H1042 0.930 . S
C1050 C1049 1.362 . S
C1050 C1053 1.409 . S
C1051 H1043 0.930 . S
C1051 C1052 1.355 . S
C1051 C1053 1.415 . S
C1052 C1051 1.355 . S
C1052 C1054 1.419 . S
C1053 C1048 1.425 . S
C1053 C1050 1.409 . S
C1053 C1051 1.415 . S
C1054 H1044 0.930 . S
C1054 C1052 1.419 . S
C1054 C1055 1.362 . S
C1055 H1045 0.930 . S
C1055 C1048 1.409 . S
C1055 C1054 1.362 . S
H1056 C1062 0.930 . S
H1057 C1065 0.930 . S
H1058 C1066 0.930 . S
H1059 C1067 0.930 . S
H1060 C1070 0.930 . S
H1061 C1071 0.930 . S
C1062 H1056 0.930 . S
C1062 C1063 1.397 . S
C1062 C1064 1.415 . S
C1063 C1062 1.397 . S
C1063 C1065 1.367 1_554 S
C1064 C1062 1.415 . S
C1064 C1069 1.425 1_554 S
C1064 C1071 1.409 . S
C1065 H1057 0.930 . S
C1065 C1063 1.367 1_556 S
C1065 C1066 1.362 . S
C1066 H1058 0.930 . S
C1066 C1065 1.362 . S
C1066 C1069 1.409 . S
C1067 H1059 0.930 . S
C1067 C1068 1.355 1_556 S
C1067 C1069 1.415 . S
C1068 C1067 1.355 1_554 S
C1068 C1070 1.419 . S
C1069 C1064 1.425 1_556 S
C1069 C1066 1.409 . S
C1069 C1067 1.415 . S
C1070 H1060 0.930 . S
C1070 C1068 1.419 . S
C1070 C1071 1.362 . S
C1071 H1061 0.930 . S
C1071 C1064 1.409 . S
C1071 C1070 1.362 . S
H1072 C1078 0.930 . S
H1073 C1081 0.930 . S
H1074 C1082 0.930 . S
H1075 C1083 0.930 . S
H1076 C1086 0.930 . S
H1077 C1087 0.930 . S
C1078 H1072 0.930 . S
C1078 C1079 1.355 . S
C1078 C1080 1.415 . S
C1079 C1078 1.355 . S
C1079 C1081 1.419 1_554 S
C1080 C1078 1.415 . S
C1080 C1085 1.425 1_554 S
C1080 C1087 1.409 . S
C1081 H1073 0.930 . S
C1081 C1079 1.419 1_556 S
C1081 C1082 1.362 . S
C1082 H1074 0.930 . S
C1082 C1081 1.362 . S
C1082 C1085 1.409 . S
C1083 H1075 0.930 . S
C1083 C1084 1.355 1_556 S
C1083 C1085 1.415 . S
C1084 C1083 1.355 1_554 S
C1084 C1086 1.419 . S
C1085 C1080 1.425 1_556 S
C1085 C1082 1.409 . S
C1085 C1083 1.415 . S
C1086 H1076 0.930 . S
C1086 C1084 1.419 . S
C1086 C1087 1.362 . S
C1087 H1077 0.930 . S
C1087 C1080 1.409 . S
C1087 C1086 1.362 . S
H1088 C1094 0.930 . S
H1089 C1097 0.930 . S
H1090 C1098 0.930 . S
H1091 C1099 0.930 . S
H1092 C1102 0.930 . S
H1093 C1103 0.930 . S
C1094 H1088 0.930 . S
C1094 C1095 1.355 1_556 S
C1094 C1096 1.415 . S
C1095 C1094 1.355 1_554 S
C1095 C1097 1.419 . S
C1096 C1094 1.415 . S
C1096 C1101 1.425 1_556 S
C1096 C1103 1.409 . S
C1097 H1089 0.930 . S
C1097 C1095 1.419 . S
C1097 C1098 1.362 . S
C1098 H1090 0.930 . S
C1098 C1097 1.362 . S
C1098 C1101 1.409 . S
C1099 H1091 0.930 . S
C1099 C1100 1.378 . S
C1099 C1101 1.415 . S
C1100 C1099 1.378 . S
C1100 C1102 1.392 1_554 S
C1101 C1096 1.425 1_554 S
C1101 C1098 1.409 . S
C1101 C1099 1.415 . S
C1102 H1092 0.930 . S
C1102 C1100 1.392 1_556 S
C1102 C1103 1.362 . S
C1103 H1093 0.930 . S
C1103 C1096 1.409 . S
C1103 C1102 1.362 . S
H1104 C1110 0.930 . S
H1105 C1113 0.930 . S
H1106 C1114 0.930 . S
H1107 C1115 0.930 . S
H1108 C1118 0.930 . S
H1109 C1119 0.930 . S
C1110 H1104 0.930 . S
C1110 C1111 1.355 . S
C1110 C1112 1.415 . S
C1111 C1110 1.355 . S
C1111 C1113 1.419 . S
C1112 C1110 1.415 . S
C1112 C1117 1.425 . S
C1112 C1119 1.409 . S
C1113 H1105 0.930 . S
C1113 C1111 1.419 . S
C1113 C1114 1.362 . S
C1114 H1106 0.930 . S
C1114 C1113 1.362 . S
C1114 C1117 1.409 . S
C1115 H1107 0.930 . S
C1115 C1116 1.355 . S
C1115 C1117 1.415 . S
C1116 C1115 1.355 . S
C1116 C1118 1.419 . S
C1117 C1112 1.425 . S
C1117 C1114 1.409 . S
C1117 C1115 1.415 . S
C1118 H1108 0.930 . S
C1118 C1116 1.419 . S
C1118 C1119 1.362 . S
C1119 H1109 0.930 . S
C1119 C1112 1.409 . S
C1119 C1118 1.362 . S
H1120 C1126 0.930 . S
H1121 C1129 0.930 . S
H1122 C1130 0.930 . S
H1123 C1131 0.930 . S
H1124 C1134 0.930 . S
H1125 C1135 0.930 . S
C1126 H1120 0.930 . S
C1126 C1127 1.355 . S
C1126 C1128 1.415 . S
C1127 C1126 1.355 . S
C1127 C1129 1.419 . S
C1128 C1126 1.415 . S
C1128 C1133 1.425 . S
C1128 C1135 1.409 . S
C1129 H1121 0.930 . S
C1129 C1127 1.419 . S
C1129 C1130 1.362 . S
C1130 H1122 0.930 . S
C1130 C1129 1.362 . S
C1130 C1133 1.409 . S
C1131 H1123 0.930 . S
C1131 C1132 1.355 . S
C1131 C1133 1.415 . S
C1132 C1131 1.355 . S
C1132 C1134 1.419 . S
C1133 C1128 1.425 . S
C1133 C1130 1.409 . S
C1133 C1131 1.415 . S
C1134 H1124 0.930 . S
C1134 C1132 1.419 . S
C1134 C1135 1.362 . S
C1135 H1125 0.930 . S
C1135 C1128 1.409 . S
C1135 C1134 1.362 . S
H1136 C1142 0.930 . S
H1137 C1145 0.930 . S
H1138 C1146 0.930 . S
H1139 C1147 0.930 . S
H1140 C1150 0.930 . S
H1141 C1151 0.930 . S
C1142 H1136 0.930 . S
C1142 C1143 1.355 . S
C1142 C1144 1.415 . S
C1143 C1142 1.355 . S
C1143 C1145 1.419 . S
C1144 C1142 1.415 . S
C1144 C1149 1.425 . S
C1144 C1151 1.409 . S
C1145 H1137 0.930 . S
C1145 C1143 1.419 . S
C1145 C1146 1.362 . S
C1146 H1138 0.930 . S
C1146 C1145 1.362 . S
C1146 C1149 1.409 . S
C1147 H1139 0.930 . S
C1147 C1148 1.355 . S
C1147 C1149 1.415 . S
C1148 C1147 1.355 . S
C1148 C1150 1.419 . S
C1149 C1144 1.425 . S
C1149 C1146 1.409 . S
C1149 C1147 1.415 . S
C1150 H1140 0.930 . S
C1150 C1148 1.419 . S
C1150 C1151 1.362 . S
C1151 H1141 0.930 . S
C1151 C1144 1.409 . S
C1151 C1150 1.362 . S
H1152 C1158 0.930 . S
H1153 C1161 0.930 . S
H1154 C1162 0.930 . S
H1155 C1163 0.930 . S
H1156 C1166 0.930 . S
H1157 C1167 0.930 . S
C1158 H1152 0.930 . S
C1158 C1159 1.355 1_554 S
C1158 C1160 1.418 . S
C1159 C1158 1.355 1_556 S
C1159 C1161 1.419 . S
C1160 C1158 1.418 . S
C1160 C1165 1.406 1_554 S
C1160 C1167 1.427 . S
C1161 H1153 0.930 . S
C1161 C1159 1.419 . S
C1161 C1162 1.362 . S
C1162 H1154 0.930 . S
C1162 C1161 1.362 . S
C1162 C1165 1.409 . S
C1163 H1155 0.930 . S
C1163 C1164 1.355 . S
C1163 C1165 1.415 . S
C1164 C1163 1.355 . S
C1164 C1166 1.419 1_556 S
C1165 C1160 1.406 1_556 S
C1165 C1162 1.409 . S
C1165 C1163 1.415 . S
C1166 H1156 0.930 . S
C1166 C1164 1.419 1_554 S
C1166 C1167 1.362 . S
C1167 H1157 0.930 . S
C1167 C1160 1.427 . S
C1167 C1166 1.362 . S
H1168 C1174 0.930 . S
H1169 C1177 0.937 . S
H1170 C1178 0.930 . S
H1171 C1179 0.931 . S
H1172 C1182 0.930 . S
H1173 C1183 0.930 . S
C1174 H1168 0.930 . S
C1174 C1175 1.355 . S
C1174 C1176 1.415 . S
C1175 C1174 1.355 . S
C1175 C1177 1.419 . S
C1176 C1174 1.415 . S
C1176 C1181 1.425 . S
C1176 C1183 1.409 . S
C1177 H1169 0.937 . S
C1177 C1175 1.419 . S
C1177 C1178 1.362 . S
C1178 H1170 0.930 . S
C1178 C1177 1.362 . S
C1178 C1181 1.409 . S
C1179 H1171 0.931 . S
C1179 C1180 1.355 . S
C1179 C1181 1.415 . S
C1180 C1179 1.355 . S
C1180 C1182 1.419 . S
C1181 C1176 1.425 . S
C1181 C1178 1.409 . S
C1181 C1179 1.415 . S
C1182 H1172 0.930 . S
C1182 C1180 1.419 . S
C1182 C1183 1.362 . S
C1183 H1173 0.930 . S
C1183 C1176 1.409 . S
C1183 C1182 1.362 . S
H1184 C1190 0.930 . S
H1185 C1193 0.930 . S
H1186 C1194 0.930 . S
H1187 C1195 0.930 . S
H1188 C1198 0.930 . S
H1189 C1199 0.930 . S
C1190 H1184 0.930 . S
C1190 C1191 1.377 . S
C1190 C1192 1.415 . S
C1191 C1190 1.377 . S
C1191 C1193 1.395 1_556 S
C1192 C1190 1.415 . S
C1192 C1197 1.406 1_556 S
C1192 C1199 1.409 . S
C1193 H1185 0.930 . S
C1193 C1191 1.395 1_554 S
C1193 C1194 1.362 . S
C1194 H1186 0.930 . S
C1194 C1193 1.362 . S
C1194 C1197 1.428 . S
C1195 H1187 0.930 . S
C1195 C1196 1.355 1_554 S
C1195 C1197 1.417 . S
C1196 C1195 1.355 1_556 S
C1196 C1198 1.419 . S
C1197 C1192 1.406 1_554 S
C1197 C1194 1.428 . S
C1197 C1195 1.417 . S
C1198 H1188 0.930 . S
C1198 C1196 1.419 . S
C1198 C1199 1.362 . S
C1199 H1189 0.930 . S
C1199 C1192 1.409 . S
C1199 C1198 1.362 . S
H1200 C1206 0.930 . S
H1201 C1209 0.930 . S
H1202 C1210 0.930 . S
H1203 C1211 0.930 . S
H1204 C1214 0.930 . S
H1205 C1215 0.930 . S
C1206 H1200 0.930 . S
C1206 C1207 1.355 . S
C1206 C1208 1.415 . S
C1207 C1206 1.355 . S
C1207 C1209 1.419 . S
C1208 C1206 1.415 . S
C1208 C1213 1.425 . S
C1208 C1215 1.409 . S
C1209 H1201 0.930 . S
C1209 C1207 1.419 . S
C1209 C1210 1.362 . S
C1210 H1202 0.930 . S
C1210 C1209 1.362 . S
C1210 C1213 1.409 . S
C1211 H1203 0.930 . S
C1211 C1212 1.355 . S
C1211 C1213 1.415 . S
C1212 C1211 1.355 . S
C1212 C1214 1.419 . S
C1213 C1208 1.425 . S
C1213 C1210 1.409 . S
C1213 C1211 1.415 . S
C1214 H1204 0.930 . S
C1214 C1212 1.419 . S
C1214 C1215 1.362 . S
C1215 H1205 0.930 . S
C1215 C1208 1.409 . S
C1215 C1214 1.362 . S
H1216 C1222 0.930 . S
H1217 C1225 0.930 . S
H1218 C1226 0.930 . S
H1219 C1227 0.930 . S
H1220 C1230 0.930 . S
H1221 C1231 0.930 . S
C1222 H1216 0.930 . S
C1222 C1223 1.355 . S
C1222 C1224 1.415 . S
C1223 C1222 1.355 . S
C1223 C1225 1.419 . S
C1224 C1222 1.415 . S
C1224 C1229 1.425 . S
C1224 C1231 1.409 . S
C1225 H1217 0.930 . S
C1225 C1223 1.419 . S
C1225 C1226 1.362 . S
C1226 H1218 0.930 . S
C1226 C1225 1.362 . S
C1226 C1229 1.409 . S
C1227 H1219 0.930 . S
C1227 C1228 1.355 . S
C1227 C1229 1.415 . S
C1228 C1227 1.355 . S
C1228 C1230 1.419 . S
C1229 C1224 1.425 . S
C1229 C1226 1.409 . S
C1229 C1227 1.415 . S
C1230 H1220 0.930 . S
C1230 C1228 1.419 . S
C1230 C1231 1.362 . S
C1231 H1221 0.930 . S
C1231 C1224 1.409 . S
C1231 C1230 1.362 . S
H1232 C1238 0.930 . S
H1233 C1241 0.930 . S
H1234 C1242 0.930 . S
H1235 C1243 0.930 . S
H1236 C1246 0.930 . S
H1237 C1247 0.930 . S
C1238 H1232 0.930 . S
C1238 C1239 1.355 . S
C1238 C1240 1.415 . S
C1239 C1238 1.355 . S
C1239 C1241 1.419 . S
C1240 C1238 1.415 . S
C1240 C1245 1.425 . S
C1240 C1247 1.409 . S
C1241 H1233 0.930 . S
C1241 C1239 1.419 . S
C1241 C1242 1.362 . S
C1242 H1234 0.930 . S
C1242 C1241 1.362 . S
C1242 C1245 1.409 . S
C1243 H1235 0.930 . S
C1243 C1244 1.355 . S
C1243 C1245 1.415 . S
C1244 C1243 1.355 . S
C1244 C1246 1.419 . S
C1245 C1240 1.425 . S
C1245 C1242 1.409 . S
C1245 C1243 1.415 . S
C1246 H1236 0.930 . S
C1246 C1244 1.419 . S
C1246 C1247 1.362 . S
C1247 H1237 0.930 . S
C1247 C1240 1.409 . S
C1247 C1246 1.362 . S
H1248 C1254 0.930 . S
H1249 C1257 0.930 . S
H1250 C1258 0.930 . S
H1251 C1259 0.930 . S
H1252 C1262 0.930 . S
H1253 C1263 0.930 . S
C1254 H1248 0.930 . S
C1254 C1255 1.355 . S
C1254 C1256 1.415 . S
C1255 C1254 1.355 . S
C1255 C1257 1.419 . S
C1256 C1254 1.415 . S
C1256 C1261 1.425 . S
C1256 C1263 1.409 . S
C1257 H1249 0.930 . S
C1257 C1255 1.419 . S
C1257 C1258 1.362 . S
C1258 H1250 0.930 . S
C1258 C1257 1.362 . S
C1258 C1261 1.409 . S
C1259 H1251 0.930 . S
C1259 C1260 1.355 . S
C1259 C1261 1.415 . S
C1260 C1259 1.355 . S
C1260 C1262 1.419 . S
C1261 C1256 1.425 . S
C1261 C1258 1.409 . S
C1261 C1259 1.415 . S
C1262 H1252 0.930 . S
C1262 C1260 1.419 . S
C1262 C1263 1.362 . S
C1263 H1253 0.930 . S
C1263 C1256 1.409 . S
C1263 C1262 1.362 . S
H1264 C1270 0.930 . S
H1265 C1273 0.930 . S
H1266 C1274 0.930 . S
H1267 C1275 0.930 . S
H1268 C1278 0.930 . S
H1269 C1279 0.930 . S
C1270 H1264 0.930 . S
C1270 C1271 1.355 . S
C1270 C1272 1.415 . S
C1271 C1270 1.355 . S
C1271 C1273 1.419 . S
C1272 C1270 1.415 . S
C1272 C1277 1.425 . S
C1272 C1279 1.409 . S
C1273 H1265 0.930 . S
C1273 C1271 1.419 . S
C1273 C1274 1.362 . S
C1274 H1266 0.930 . S
C1274 C1273 1.362 . S
C1274 C1277 1.409 . S
C1275 H1267 0.930 . S
C1275 C1276 1.355 . S
C1275 C1277 1.415 . S
C1276 C1275 1.355 . S
C1276 C1278 1.419 . S
C1277 C1272 1.425 . S
C1277 C1274 1.409 . S
C1277 C1275 1.415 . S
C1278 H1268 0.930 . S
C1278 C1276 1.419 . S
C1278 C1279 1.362 . S
C1279 H1269 0.930 . S
C1279 C1272 1.409 . S
C1279 C1278 1.362 . S
H1280 C1286 0.930 . S
H1281 C1289 0.930 . S
H1282 C1290 0.930 . S
H1283 C1291 0.930 . S
H1284 C1294 0.930 . S
H1285 C1295 0.930 . S
C1286 H1280 0.930 . S
C1286 C1287 1.355 . S
C1286 C1288 1.415 . S
C1287 C1286 1.355 . S
C1287 C1289 1.419 . S
C1288 C1286 1.415 . S
C1288 C1293 1.425 . S
C1288 C1295 1.409 . S
C1289 H1281 0.930 . S
C1289 C1287 1.419 . S
C1289 C1290 1.362 . S
C1290 H1282 0.930 . S
C1290 C1289 1.362 . S
C1290 C1293 1.409 . S
C1291 H1283 0.930 . S
C1291 C1292 1.355 . S
C1291 C1293 1.415 . S
C1292 C1291 1.355 . S
C1292 C1294 1.419 . S
C1293 C1288 1.425 . S
C1293 C1290 1.409 . S
C1293 C1291 1.415 . S
C1294 H1284 0.930 . S
C1294 C1292 1.419 . S
C1294 C1295 1.362 . S
C1295 H1285 0.930 . S
C1295 C1288 1.409 . S
C1295 C1294 1.362 . S
H1296 C1302 0.930 . S
H1297 C1305 0.930 . S
H1298 C1306 0.930 . S
H1299 C1307 0.930 . S
H1300 C1310 0.930 . S
H1301 C1311 0.930 . S
C1302 H1296 0.930 . S
C1302 C1303 1.355 . S
C1302 C1304 1.415 . S
C1303 C1302 1.355 . S
C1303 C1305 1.419 . S
C1304 C1302 1.415 . S
C1304 C1309 1.425 . S
C1304 C1311 1.409 . S
C1305 H1297 0.930 . S
C1305 C1303 1.419 . S
C1305 C1306 1.362 . S
C1306 H1298 0.930 . S
C1306 C1305 1.362 . S
C1306 C1309 1.409 . S
C1307 H1299 0.930 . S
C1307 C1308 1.355 . S
C1307 C1309 1.415 . S
C1308 C1307 1.355 . S
C1308 C1310 1.419 . S
C1309 C1304 1.425 . S
C1309 C1306 1.409 . S
C1309 C1307 1.415 . S
C1310 H1300 0.930 . S
C1310 C1308 1.419 . S
C1310 C1311 1.362 . S
C1311 H1301 0.930 . S
C1311 C1304 1.409 . S
C1311 C1310 1.362 . S
H1312 C1318 0.930 . S
H1313 C1321 0.930 . S
H1314 C1322 0.930 . S
H1315 C1323 0.930 . S
H1316 C1326 0.930 . S
H1317 C1327 0.930 1_545 S
C1318 H1312 0.930 . S
C1318 C1319 1.355 . S
C1318 C1320 1.415 1_545 S
C1319 C1318 1.355 . S
C1319 C1321 1.419 1_545 S
C1320 C1318 1.415 1_565 S
C1320 C1325 1.425 . S
C1320 C1327 1.409 . S
C1321 H1313 0.930 . S
C1321 C1319 1.419 1_565 S
C1321 C1322 1.362 . S
C1322 H1314 0.930 . S
C1322 C1321 1.362 . S
C1322 C1325 1.409 . S
C1323 H1315 0.930 . S
C1323 C1324 1.355 . S
C1323 C1325 1.415 . S
C1324 C1323 1.355 . S
C1324 C1326 1.419 . S
C1325 C1320 1.425 . S
C1325 C1322 1.409 . S
C1325 C1323 1.415 . S
C1326 H1316 0.930 . S
C1326 C1324 1.419 . S
C1326 C1327 1.362 . S
C1327 H1317 0.930 1_565 S
C1327 C1320 1.409 . S
C1327 C1326 1.362 . S
H1328 C1334 0.930 . S
H1329 C1337 0.930 . S
H1330 C1338 0.930 . S
H1331 C1339 0.930 . S
H1332 C1342 0.932 1_655 S
H1333 C1343 0.930 . S
C1334 H1328 0.930 . S
C1334 C1335 1.355 . S
C1334 C1336 1.415 . S
C1335 C1334 1.355 . S
C1335 C1337 1.419 . S
C1336 C1334 1.415 . S
C1336 C1341 1.425 . S
C1336 C1343 1.409 . S
C1337 H1329 0.930 . S
C1337 C1335 1.419 . S
C1337 C1338 1.362 . S
C1338 H1330 0.930 . S
C1338 C1337 1.362 . S
C1338 C1341 1.409 . S
C1339 H1331 0.930 . S
C1339 C1340 1.355 . S
C1339 C1341 1.415 1_655 S
C1340 C1339 1.355 . S
C1340 C1342 1.419 1_655 S
C1341 C1336 1.425 . S
C1341 C1338 1.409 . S
C1341 C1339 1.415 1_455 S
C1342 H1332 0.932 1_455 S
C1342 C1340 1.419 1_455 S
C1342 C1343 1.362 . S
C1343 H1333 0.930 . S
C1343 C1336 1.409 . S
C1343 C1342 1.362 . S
H1344 C1350 0.930 . S
H1345 C1353 0.930 . S
H1346 C1354 0.930 . S
H1347 C1355 0.930 . S
H1348 C1358 0.930 . S
H1349 C1359 0.930 . S
C1350 H1344 0.930 . S
C1350 C1351 1.355 . S
C1350 C1352 1.415 . S
C1351 C1350 1.355 . S
C1351 C1353 1.419 . S
C1352 C1350 1.415 . S
C1352 C1357 1.425 . S
C1352 C1359 1.409 . S
C1353 H1345 0.930 . S
C1353 C1351 1.419 . S
C1353 C1354 1.362 . S
C1354 H1346 0.930 . S
C1354 C1353 1.362 . S
C1354 C1357 1.409 . S
C1355 H1347 0.930 . S
C1355 C1356 1.355 . S
C1355 C1357 1.415 . S
C1356 C1355 1.355 . S
C1356 C1358 1.419 . S
C1357 C1352 1.425 . S
C1357 C1354 1.409 . S
C1357 C1355 1.415 . S
C1358 H1348 0.930 . S
C1358 C1356 1.419 . S
C1358 C1359 1.362 . S
C1359 H1349 0.930 . S
C1359 C1352 1.409 . S
C1359 C1358 1.362 . S
H1360 C1366 0.930 . S
H1361 C1369 0.930 . S
H1362 C1370 0.930 . S
H1363 C1371 0.930 . S
H1364 C1374 0.930 . S
H1365 C1375 0.930 1_565 S
C1366 H1360 0.930 . S
C1366 C1367 1.355 . S
C1366 C1368 1.415 1_565 S
C1367 C1366 1.355 . S
C1367 C1369 1.419 1_565 S
C1368 C1366 1.415 1_545 S
C1368 C1373 1.425 . S
C1368 C1375 1.409 . S
C1369 H1361 0.930 . S
C1369 C1367 1.419 1_545 S
C1369 C1370 1.362 . S
C1370 H1362 0.930 . S
C1370 C1369 1.362 . S
C1370 C1373 1.409 . S
C1371 H1363 0.930 . S
C1371 C1372 1.355 . S
C1371 C1373 1.415 . S
C1372 C1371 1.355 . S
C1372 C1374 1.419 . S
C1373 C1368 1.425 . S
C1373 C1370 1.409 . S
C1373 C1371 1.415 . S
C1374 H1364 0.930 . S
C1374 C1372 1.419 . S
C1374 C1375 1.362 . S
C1375 H1365 0.930 1_545 S
C1375 C1368 1.409 . S
C1375 C1374 1.362 . S
H1376 C1382 0.930 . S
H1377 C1385 0.930 . S
H1378 C1386 0.930 1_455 S
H1379 C1387 0.930 . S
H1380 C1390 0.930 . S
H1381 C1391 0.930 . S
C1382 H1376 0.930 . S
C1382 C1383 1.355 . S
C1382 C1384 1.415 . S
C1383 C1382 1.355 . S
C1383 C1385 1.419 . S
C1384 C1382 1.415 . S
C1384 C1389 1.425 . S
C1384 C1391 1.409 . S
C1385 H1377 0.930 . S
C1385 C1383 1.419 . S
C1385 C1386 1.362 . S
C1386 H1378 0.930 1_655 S
C1386 C1385 1.362 . S
C1386 C1389 1.409 . S
C1387 H1379 0.930 . S
C1387 C1388 1.355 . S
C1387 C1389 1.415 1_455 S
C1388 C1387 1.355 . S
C1388 C1390 1.419 1_455 S
C1389 C1384 1.425 . S
C1389 C1386 1.409 . S
C1389 C1387 1.415 1_655 S
C1390 H1380 0.930 . S
C1390 C1388 1.419 1_655 S
C1390 C1391 1.362 . S
C1391 H1381 0.930 . S
C1391 C1384 1.409 . S
C1391 C1390 1.362 . S
H1392 C1398 0.930 . S
H1393 C1401 0.930 . S
H1394 C1402 0.930 . S
H1395 C1403 0.930 . S
H1396 C1406 0.930 . S
H1397 C1407 0.930 . S
C1398 H1392 0.930 . S
C1398 C1399 1.355 . S
C1398 C1400 1.415 . S
C1399 C1398 1.355 . S
C1399 C1401 1.419 . S
C1400 C1398 1.415 . S
C1400 C1405 1.425 . S
C1400 C1407 1.409 . S
C1401 H1393 0.930 . S
C1401 C1399 1.419 . S
C1401 C1402 1.362 . S
C1402 H1394 0.930 . S
C1402 C1401 1.362 . S
C1402 C1405 1.409 . S
C1403 H1395 0.930 . S
C1403 C1404 1.355 . S
C1403 C1405 1.415 . S
C1404 C1403 1.355 . S
C1404 C1406 1.419 . S
C1405 C1400 1.425 . S
C1405 C1402 1.409 . S
C1405 C1403 1.415 . S
C1406 H1396 0.930 . S
C1406 C1404 1.419 . S
C1406 C1407 1.362 . S
C1407 H1397 0.930 . S
C1407 C1400 1.409 . S
C1407 C1406 1.362 . S
H1408 C1414 0.930 . S
H1409 C1417 0.930 . S
H1410 C1418 0.930 . S
H1411 C1419 0.930 . S
H1412 C1422 0.930 . S
H1413 C1423 0.930 . S
C1414 H1408 0.930 . S
C1414 C1415 1.355 . S
C1414 C1416 1.415 . S
C1415 C1414 1.355 . S
C1415 C1417 1.419 . S
C1416 C1414 1.415 . S
C1416 C1421 1.425 . S
C1416 C1423 1.409 . S
C1417 H1409 0.930 . S
C1417 C1415 1.419 . S
C1417 C1418 1.362 . S
C1418 H1410 0.930 . S
C1418 C1417 1.362 . S
C1418 C1421 1.409 . S
C1419 H1411 0.930 . S
C1419 C1420 1.355 1_545 S
C1419 C1421 1.415 . S
C1420 C1419 1.355 1_565 S
C1420 C1422 1.419 . S
C1421 C1416 1.425 . S
C1421 C1418 1.409 . S
C1421 C1419 1.415 . S
C1422 H1412 0.930 . S
C1422 C1420 1.419 . S
C1422 C1423 1.362 1_565 S
C1423 H1413 0.930 . S
C1423 C1416 1.409 . S
C1423 C1422 1.362 1_545 S
H1424 C1430 0.930 . S
H1425 C1433 0.930 . S
H1426 C1434 0.930 1_455 S
H1427 C1435 0.930 . S
H1428 C1438 0.930 . S
H1429 C1439 0.930 . S
C1430 H1424 0.930 . S
C1430 C1431 1.355 . S
C1430 C1432 1.415 . S
C1431 C1430 1.355 . S
C1431 C1433 1.419 . S
C1432 C1430 1.415 . S
C1432 C1437 1.425 . S
C1432 C1439 1.409 . S
C1433 H1425 0.930 . S
C1433 C1431 1.419 . S
C1433 C1434 1.362 . S
C1434 H1426 0.930 1_655 S
C1434 C1433 1.362 . S
C1434 C1437 1.409 . S
C1435 H1427 0.930 . S
C1435 C1436 1.355 . S
C1435 C1437 1.415 1_455 S
C1436 C1435 1.355 . S
C1436 C1438 1.419 1_455 S
C1437 C1432 1.425 . S
C1437 C1434 1.409 . S
C1437 C1435 1.415 1_655 S
C1438 H1428 0.930 . S
C1438 C1436 1.419 1_655 S
C1438 C1439 1.362 . S
C1439 H1429 0.930 . S
C1439 C1432 1.409 . S
C1439 C1438 1.362 . S
H1440 C1446 0.930 . S
H1441 C1449 0.930 . S
H1442 C1450 0.930 . S
H1443 C1451 0.930 . S
H1444 C1454 0.930 . S
H1445 C1455 0.930 . S
C1446 H1440 0.930 . S
C1446 C1447 1.355 . S
C1446 C1448 1.415 . S
C1447 C1446 1.355 . S
C1447 C1449 1.419 . S
C1448 C1446 1.415 . S
C1448 C1453 1.425 . S
C1448 C1455 1.409 . S
C1449 H1441 0.930 . S
C1449 C1447 1.419 . S
C1449 C1450 1.362 . S
C1450 H1442 0.930 . S
C1450 C1449 1.362 . S
C1450 C1453 1.409 . S
C1451 H1443 0.930 . S
C1451 C1452 1.355 . S
C1451 C1453 1.415 . S
C1452 C1451 1.355 . S
C1452 C1454 1.419 . S
C1453 C1448 1.425 . S
C1453 C1450 1.409 . S
C1453 C1451 1.415 . S
C1454 H1444 0.930 . S
C1454 C1452 1.419 . S
C1454 C1455 1.362 . S
C1455 H1445 0.930 . S
C1455 C1448 1.409 . S
C1455 C1454 1.362 . S
H1456 C1462 0.930 . S
H1457 C1465 0.930 . S
H1458 C1466 0.930 . S
H1459 C1467 0.930 . S
H1460 C1470 0.930 . S
H1461 C1471 0.902 1_545 S
C1462 H1456 0.930 . S
C1462 C1463 1.355 . S
C1462 C1464 1.415 1_545 S
C1463 C1462 1.355 . S
C1463 C1465 1.419 1_545 S
C1464 C1462 1.415 1_565 S
C1464 C1469 1.425 . S
C1464 C1471 1.429 . S
C1465 H1457 0.930 . S
C1465 C1463 1.419 1_565 S
C1465 C1466 1.362 . S
C1466 H1458 0.930 . S
C1466 C1465 1.362 . S
C1466 C1469 1.409 . S
C1467 H1459 0.930 . S
C1467 C1468 1.355 . S
C1467 C1469 1.415 . S
C1468 C1467 1.355 . S
C1468 C1470 1.419 . S
C1469 C1464 1.425 . S
C1469 C1466 1.409 . S
C1469 C1467 1.415 . S
C1470 H1460 0.930 . S
C1470 C1468 1.419 . S
C1470 C1471 1.371 . S
C1471 H1461 0.902 1_565 S
C1471 C1464 1.429 . S
C1471 C1470 1.371 . S
H1472 C1478 0.930 . S
H1473 C1481 0.924 1_655 S
H1474 C1482 0.930 . S
H1475 C1483 0.930 . S
H1476 C1486 0.930 . S
H1477 C1487 0.930 . S
C1478 H1472 0.930 . S
C1478 C1479 1.355 . S
C1478 C1480 1.415 1_655 S
C1479 C1478 1.355 . S
C1479 C1481 1.419 1_655 S
C1480 C1478 1.415 1_455 S
C1480 C1485 1.425 . S
C1480 C1487 1.409 . S
C1481 H1473 0.924 1_455 S
C1481 C1479 1.419 1_455 S
C1481 C1482 1.362 . S
C1482 H1474 0.930 . S
C1482 C1481 1.362 . S
C1482 C1485 1.409 . S
C1483 H1475 0.930 . S
C1483 C1484 1.355 . S
C1483 C1485 1.415 . S
C1484 C1483 1.355 . S
C1484 C1486 1.419 . S
C1485 C1480 1.425 . S
C1485 C1482 1.409 . S
C1485 C1483 1.415 . S
C1486 H1476 0.930 . S
C1486 C1484 1.419 . S
C1486 C1487 1.362 . S
C1487 H1477 0.930 . S
C1487 C1480 1.409 . S
C1487 C1486 1.362 . S
H1488 C1494 0.930 . S
H1489 C1497 0.930 . S
H1490 C1498 0.930 1_455 S
H1491 C1499 0.930 . S
H1492 C1502 0.930 . S
H1493 C1503 0.930 . S
C1494 H1488 0.930 . S
C1494 C1495 1.355 . S
C1494 C1496 1.415 1_655 S
C1495 C1494 1.355 . S
C1495 C1497 1.419 . S
C1496 C1494 1.415 1_455 S
C1496 C1501 1.425 . S
C1496 C1503 1.409 . S
C1497 H1489 0.930 . S
C1497 C1495 1.419 . S
C1497 C1498 1.362 . S
C1498 H1490 0.930 1_655 S
C1498 C1497 1.362 . S
C1498 C1501 1.409 1_655 S
C1499 H1491 0.930 . S
C1499 C1500 1.355 . S
C1499 C1501 1.415 . S
C1500 C1499 1.355 . S
C1500 C1502 1.419 . S
C1501 C1496 1.425 . S
C1501 C1498 1.409 1_455 S
C1501 C1499 1.415 . S
C1502 H1492 0.930 . S
C1502 C1500 1.419 . S
C1502 C1503 1.362 . S
C1503 H1493 0.930 . S
C1503 C1496 1.409 . S
C1503 C1502 1.362 . S
H1504 C1510 0.930 . S
H1505 C1513 0.930 . S
H1506 C1514 0.930 . S
H1507 C1515 0.930 . S
H1508 C1518 0.930 . S
H1509 C1519 0.930 . S
C1510 H1504 0.930 . S
C1510 C1511 1.355 . S
C1510 C1512 1.415 . S
C1511 C1510 1.355 . S
C1511 C1513 1.419 . S
C1512 C1510 1.415 . S
C1512 C1517 1.425 . S
C1512 C1519 1.409 . S
C1513 H1505 0.930 . S
C1513 C1511 1.419 . S
C1513 C1514 1.362 . S
C1514 H1506 0.930 . S
C1514 C1513 1.362 . S
C1514 C1517 1.409 . S
C1515 H1507 0.930 . S
C1515 C1516 1.355 . S
C1515 C1517 1.415 . S
C1516 C1515 1.355 . S
C1516 C1518 1.419 . S
C1517 C1512 1.425 . S
C1517 C1514 1.409 . S
C1517 C1515 1.415 . S
C1518 H1508 0.930 . S
C1518 C1516 1.419 . S
C1518 C1519 1.362 . S
C1519 H1509 0.930 . S
C1519 C1512 1.409 . S
C1519 C1518 1.362 . S
H1520 C1526 0.930 . S
H1521 C1529 0.930 . S
H1522 C1530 0.930 . S
H1523 C1531 0.930 . S
H1524 C1534 0.930 . S
H1525 C1535 0.930 . S
C1526 H1520 0.930 . S
C1526 C1527 1.355 . S
C1526 C1528 1.415 . S
C1527 C1526 1.355 . S
C1527 C1529 1.419 . S
C1528 C1526 1.415 . S
C1528 C1533 1.425 . S
C1528 C1535 1.409 . S
C1529 H1521 0.930 . S
C1529 C1527 1.419 . S
C1529 C1530 1.362 . S
C1530 H1522 0.930 . S
C1530 C1529 1.362 . S
C1530 C1533 1.409 . S
C1531 H1523 0.930 . S
C1531 C1532 1.355 . S
C1531 C1533 1.415 1_545 S
C1532 C1531 1.355 . S
C1532 C1534 1.419 . S
C1533 C1528 1.425 . S
C1533 C1530 1.409 . S
C1533 C1531 1.415 1_565 S
C1534 H1524 0.930 . S
C1534 C1532 1.419 . S
C1534 C1535 1.362 1_545 S
C1535 H1525 0.930 . S
C1535 C1528 1.409 . S
C1535 C1534 1.362 1_565 S
H1536 C1542 0.930 . S
H1537 C1545 0.930 . S
H1538 C1546 0.930 1_655 S
H1539 C1547 0.930 1_655 S
H1540 C1550 0.930 . S
H1541 C1551 0.930 . S
C1542 H1536 0.930 . S
C1542 C1543 1.355 . S
C1542 C1544 1.415 . S
C1543 C1542 1.355 . S
C1543 C1545 1.419 . S
C1544 C1542 1.415 . S
C1544 C1549 1.425 . S
C1544 C1551 1.409 . S
C1545 H1537 0.930 . S
C1545 C1543 1.419 . S
C1545 C1546 1.362 . S
C1546 H1538 0.930 1_455 S
C1546 C1545 1.362 . S
C1546 C1549 1.409 . S
C1547 H1539 0.930 1_455 S
C1547 C1548 1.355 . S
C1547 C1549 1.415 . S
C1548 C1547 1.355 . S
C1548 C1550 1.419 . S
C1549 C1544 1.425 . S
C1549 C1546 1.409 . S
C1549 C1547 1.415 . S
C1550 H1540 0.930 . S
C1550 C1548 1.419 . S
C1550 C1551 1.362 . S
C1551 H1541 0.930 . S
C1551 C1544 1.409 . S
C1551 C1550 1.362 . S
H1552 C1558 0.930 . S
H1553 C1561 0.930 . S
H1554 C1562 0.930 . S
H1555 C1563 0.930 . S
H1556 C1566 0.930 . S
H1557 C1567 0.930 . S
C1558 H1552 0.930 . S
C1558 C1559 1.355 . S
C1558 C1560 1.415 . S
C1559 C1558 1.355 . S
C1559 C1561 1.419 . S
C1560 C1558 1.415 . S
C1560 C1565 1.425 . S
C1560 C1567 1.409 . S
C1561 H1553 0.930 . S
C1561 C1559 1.419 . S
C1561 C1562 1.362 . S
C1562 H1554 0.930 . S
C1562 C1561 1.362 . S
C1562 C1565 1.409 . S
C1563 H1555 0.930 . S
C1563 C1564 1.355 . S
C1563 C1565 1.415 . S
C1564 C1563 1.355 . S
C1564 C1566 1.419 . S
C1565 C1560 1.425 . S
C1565 C1562 1.409 . S
C1565 C1563 1.415 . S
C1566 H1556 0.930 . S
C1566 C1564 1.419 . S
C1566 C1567 1.362 . S
C1567 H1557 0.930 . S
C1567 C1560 1.409 . S
C1567 C1566 1.362 . S
H1568 C1574 0.930 . S
H1569 C1577 0.930 . S
H1570 C1578 0.930 . S
H1571 C1579 0.930 . S
H1572 C1582 0.930 . S
H1573 C1583 0.930 . S
C1574 H1568 0.930 . S
C1574 C1575 1.355 . S
C1574 C1576 1.415 . S
C1575 C1574 1.355 . S
C1575 C1577 1.419 . S
C1576 C1574 1.415 . S
C1576 C1581 1.425 . S
C1576 C1583 1.409 1_565 S
C1577 H1569 0.930 . S
C1577 C1575 1.419 . S
C1577 C1578 1.362 . S
C1578 H1570 0.930 . S
C1578 C1577 1.362 . S
C1578 C1581 1.409 . S
C1579 H1571 0.930 . S
C1579 C1580 1.355 . S
C1579 C1581 1.415 . S
C1580 C1579 1.355 . S
C1580 C1582 1.419 1_565 S
C1581 C1576 1.425 . S
C1581 C1578 1.409 . S
C1581 C1579 1.415 . S
C1582 H1572 0.930 . S
C1582 C1580 1.419 1_545 S
C1582 C1583 1.362 . S
C1583 H1573 0.930 . S
C1583 C1576 1.409 1_545 S
C1583 C1582 1.362 . S
H1584 C1590 0.930 . S
H1585 C1593 0.930 . S
H1586 C1594 0.930 . S
H1587 C1595 0.930 . S
H1588 C1598 0.930 1_545 S
H1589 C1599 0.930 . S
C1590 H1584 0.930 . S
C1590 C1591 1.355 . S
C1590 C1592 1.415 . S
C1591 C1590 1.355 . S
C1591 C1593 1.419 . S
C1592 C1590 1.415 . S
C1592 C1597 1.425 . S
C1592 C1599 1.409 . S
C1593 H1585 0.930 . S
C1593 C1591 1.419 . S
C1593 C1594 1.362 . S
C1594 H1586 0.930 . S
C1594 C1593 1.362 . S
C1594 C1597 1.409 . S
C1595 H1587 0.930 . S
C1595 C1596 1.355 . S
C1595 C1597 1.415 . S
C1596 C1595 1.355 . S
C1596 C1598 1.419 . S
C1597 C1592 1.425 . S
C1597 C1594 1.409 . S
C1597 C1595 1.415 . S
C1598 H1588 0.930 1_565 S
C1598 C1596 1.419 . S
C1598 C1599 1.362 . S
C1599 H1589 0.930 . S
C1599 C1592 1.409 . S
C1599 C1598 1.362 . S
H1600 C1606 0.930 . S
H1601 C1609 0.930 1_655 S
H1602 C1610 0.930 . S
H1603 C1611 0.930 . S
H1604 C1614 0.930 . S
H1605 C1615 0.930 . S
C1606 H1600 0.930 . S
C1606 C1607 1.355 . S
C1606 C1608 1.415 . S
C1607 C1606 1.355 . S
C1607 C1609 1.419 . S
C1608 C1606 1.415 . S
C1608 C1613 1.425 . S
C1608 C1615 1.409 . S
C1609 H1601 0.930 1_455 S
C1609 C1607 1.419 . S
C1609 C1610 1.362 . S
C1610 H1602 0.930 . S
C1610 C1609 1.362 . S
C1610 C1613 1.409 . S
C1611 H1603 0.930 . S
C1611 C1612 1.355 . S
C1611 C1613 1.415 . S
C1612 C1611 1.355 . S
C1612 C1614 1.419 . S
C1613 C1608 1.425 . S
C1613 C1610 1.409 . S
C1613 C1611 1.415 . S
C1614 H1604 0.930 . S
C1614 C1612 1.419 . S
C1614 C1615 1.362 . S
C1615 H1605 0.930 . S
C1615 C1608 1.409 . S
C1615 C1614 1.362 . S
H1616 C1622 0.930 . S
H1617 C1625 0.930 . S
H1618 C1626 0.930 . S
H1619 C1627 0.930 . S
H1620 C1630 0.930 . S
H1621 C1631 0.930 . S
C1622 H1616 0.930 . S
C1622 C1623 1.355 . S
C1622 C1624 1.415 . S
C1623 C1622 1.355 . S
C1623 C1625 1.419 . S
C1624 C1622 1.415 . S
C1624 C1629 1.425 . S
C1624 C1631 1.409 . S
C1625 H1617 0.930 . S
C1625 C1623 1.419 . S
C1625 C1626 1.362 . S
C1626 H1618 0.930 . S
C1626 C1625 1.362 . S
C1626 C1629 1.409 . S
C1627 H1619 0.930 . S
C1627 C1628 1.355 . S
C1627 C1629 1.415 . S
C1628 C1627 1.355 . S
C1628 C1630 1.419 . S
C1629 C1624 1.425 . S
C1629 C1626 1.409 . S
C1629 C1627 1.415 . S
C1630 H1620 0.930 . S
C1630 C1628 1.419 . S
C1630 C1631 1.362 . S
C1631 H1621 0.930 . S
C1631 C1624 1.409 . S
C1631 C1630 1.362 . S
H1632 C1638 0.930 . S
H1633 C1641 0.930 . S
H1634 C1642 0.930 . S
H1635 C1643 0.930 . S
H1636 C1646 0.930 . S
H1637 C1647 0.929 1_565 S
C1638 H1632 0.930 . S
C1638 C1639 1.381 . S
C1638 C1640 1.415 . S
C1639 C1638 1.381 . S
C1639 C1641 1.384 1_554 S
C1640 C1638 1.415 . S
C1640 C1645 1.425 1_554 S
C1640 C1647 1.409 1_565 S
C1641 H1633 0.930 . S
C1641 C1639 1.384 1_556 S
C1641 C1642 1.362 . S
C1642 H1634 0.930 . S
C1642 C1641 1.362 . S
C1642 C1645 1.409 . S
C1643 H1635 0.930 . S
C1643 C1644 1.396 . S
C1643 C1645 1.415 1_545 S
C1644 C1643 1.396 . S
C1644 C1646 1.364 1_556 S
C1645 C1640 1.425 1_556 S
C1645 C1642 1.409 . S
C1645 C1643 1.415 1_565 S
C1646 H1636 0.930 . S
C1646 C1644 1.364 1_554 S
C1646 C1647 1.362 . S
C1647 H1637 0.929 1_545 S
C1647 C1640 1.409 1_545 S
C1647 C1646 1.362 . S
H1648 C1654 0.930 . S
H1649 C1657 0.930 . S
H1650 C1658 0.930 . S
H1651 C1659 0.930 . S
H1652 C1662 0.930 . S
H1653 C1663 0.930 . S
C1654 H1648 0.930 . S
C1654 C1655 1.355 . S
C1654 C1656 1.415 . S
C1655 C1654 1.355 . S
C1655 C1657 1.419 1_554 S
C1656 C1654 1.415 . S
C1656 C1661 1.425 1_554 S
C1656 C1663 1.409 1_455 S
C1657 H1649 0.930 . S
C1657 C1655 1.419 1_556 S
C1657 C1658 1.362 . S
C1658 H1650 0.930 . S
C1658 C1657 1.362 . S
C1658 C1661 1.409 . S
C1659 H1651 0.930 . S
C1659 C1660 1.355 . S
C1659 C1661 1.415 1_655 S
C1660 C1659 1.355 . S
C1660 C1662 1.419 1_556 S
C1661 C1656 1.425 1_556 S
C1661 C1658 1.409 . S
C1661 C1659 1.415 1_455 S
C1662 H1652 0.930 . S
C1662 C1660 1.419 1_554 S
C1662 C1663 1.362 . S
C1663 H1653 0.930 . S
C1663 C1656 1.409 1_655 S
C1663 C1662 1.362 . S
H1664 C1670 0.930 . S
H1665 C1673 0.930 . S
H1666 C1674 0.930 . S
H1667 C1675 0.930 . S
H1668 C1678 0.930 . S
H1669 C1679 0.930 . S
C1670 H1664 0.930 . S
C1670 C1671 1.355 . S
C1670 C1672 1.423 . S
C1671 C1670 1.355 . S
C1671 C1673 1.419 . S
C1672 C1670 1.423 . S
C1672 C1677 1.422 1_556 S
C1672 C1679 1.408 . S
C1673 H1665 0.930 . S
C1673 C1671 1.419 . S
C1673 C1674 1.365 . S
C1674 H1666 0.930 . S
C1674 C1673 1.365 . S
C1674 C1677 1.408 1_556 S
C1675 H1667 0.930 . S
C1675 C1676 1.355 . S
C1675 C1677 1.415 . S
C1676 C1675 1.355 . S
C1676 C1678 1.425 . S
C1677 C1672 1.422 1_554 S
C1677 C1674 1.408 1_554 S
C1677 C1675 1.415 . S
C1678 H1668 0.930 . S
C1678 C1676 1.425 . S
C1678 C1679 1.359 1_554 S
C1679 H1669 0.930 . S
C1679 C1672 1.408 . S
C1679 C1678 1.359 1_556 S
H1680 C1686 0.930 . S
H1681 C1689 0.930 . S
H1682 C1690 0.930 . S
H1683 C1691 0.930 . S
H1684 C1694 0.930 . S
H1685 C1695 0.930 . S
C1686 H1680 0.930 . S
C1686 C1687 1.355 . S
C1686 C1688 1.415 . S
C1687 C1686 1.355 . S
C1687 C1689 1.419 . S
C1688 C1686 1.415 . S
C1688 C1693 1.425 . S
C1688 C1695 1.409 . S
C1689 H1681 0.930 . S
C1689 C1687 1.419 . S
C1689 C1690 1.362 . S
C1690 H1682 0.930 . S
C1690 C1689 1.362 . S
C1690 C1693 1.409 . S
C1691 H1683 0.930 . S
C1691 C1692 1.355 . S
C1691 C1693 1.415 . S
C1692 C1691 1.355 . S
C1692 C1694 1.419 . S
C1693 C1688 1.425 . S
C1693 C1690 1.409 . S
C1693 C1691 1.415 . S
C1694 H1684 0.930 . S
C1694 C1692 1.419 . S
C1694 C1695 1.362 . S
C1695 H1685 0.930 . S
C1695 C1688 1.409 . S
C1695 C1694 1.362 . S
H1696 C1702 0.930 . S
H1697 C1705 0.930 . S
H1698 C1706 0.930 . S
H1699 C1707 0.930 . S
H1700 C1710 0.930 . S
H1701 C1711 0.930 . S
C1702 H1696 0.930 . S
C1702 C1703 1.355 . S
C1702 C1704 1.415 . S
C1703 C1702 1.355 . S
C1703 C1705 1.419 . S
C1704 C1702 1.415 . S
C1704 C1709 1.425 . S
C1704 C1711 1.409 1_655 S
C1705 H1697 0.930 . S
C1705 C1703 1.419 . S
C1705 C1706 1.362 . S
C1706 H1698 0.930 . S
C1706 C1705 1.362 . S
C1706 C1709 1.409 . S
C1707 H1699 0.930 . S
C1707 C1708 1.355 . S
C1707 C1709 1.415 . S
C1708 C1707 1.355 . S
C1708 C1710 1.419 1_655 S
C1709 C1704 1.425 . S
C1709 C1706 1.409 . S
C1709 C1707 1.415 . S
C1710 H1700 0.930 . S
C1710 C1708 1.419 1_455 S
C1710 C1711 1.362 . S
C1711 H1701 0.930 . S
C1711 C1704 1.409 1_455 S
C1711 C1710 1.362 . S
H1712 C1718 0.930 . S
H1713 C1721 0.930 . S
H1714 C1722 0.930 . S
H1715 C1723 0.930 . S
H1716 C1726 0.930 . S
H1717 C1727 0.930 . S
C1718 H1712 0.930 . S
C1718 C1719 1.355 . S
C1718 C1720 1.415 . S
C1719 C1718 1.355 . S
C1719 C1721 1.419 . S
C1720 C1718 1.415 . S
C1720 C1725 1.425 . S
C1720 C1727 1.409 . S
C1721 H1713 0.930 . S
C1721 C1719 1.419 . S
C1721 C1722 1.362 . S
C1722 H1714 0.930 . S
C1722 C1721 1.362 . S
C1722 C1725 1.409 . S
C1723 H1715 0.930 . S
C1723 C1724 1.355 . S
C1723 C1725 1.415 . S
C1724 C1723 1.355 . S
C1724 C1726 1.419 . S
C1725 C1720 1.425 . S
C1725 C1722 1.409 . S
C1725 C1723 1.415 . S
C1726 H1716 0.930 . S
C1726 C1724 1.419 . S
C1726 C1727 1.362 . S
C1727 H1717 0.930 . S
C1727 C1720 1.409 . S
C1727 C1726 1.362 . S
H1728 C1734 0.930 . S
H1729 C1737 0.930 . S
H1730 C1738 0.930 . S
H1731 C1739 0.930 . S
H1732 C1742 0.930 . S
H1733 C1743 0.930 . S
C1734 H1728 0.930 . S
C1734 C1735 1.382 . S
C1734 C1736 1.415 1_565 S
C1735 C1734 1.382 . S
C1735 C1737 1.383 1_554 S
C1736 C1734 1.415 1_545 S
C1736 C1741 1.425 1_554 S
C1736 C1743 1.409 . S
C1737 H1729 0.930 . S
C1737 C1735 1.383 1_556 S
C1737 C1738 1.362 1_565 S
C1738 H1730 0.930 . S
C1738 C1737 1.362 1_545 S
C1738 C1741 1.409 . S
C1739 H1731 0.930 . S
C1739 C1740 1.359 1_556 S
C1739 C1741 1.415 . S
C1740 C1739 1.359 1_554 S
C1740 C1742 1.413 . S
C1741 C1736 1.425 1_556 S
C1741 C1738 1.409 . S
C1741 C1739 1.415 . S
C1742 H1732 0.930 . S
C1742 C1740 1.413 . S
C1742 C1743 1.362 . S
C1743 H1733 0.930 . S
C1743 C1736 1.409 . S
C1743 C1742 1.362 . S
H1744 C1750 0.930 . S
H1745 C1753 0.930 . S
H1746 C1754 0.930 . S
H1747 C1755 0.930 . S
H1748 C1758 0.930 . S
H1749 C1759 0.930 . S
C1750 H1744 0.930 . S
C1750 C1751 1.390 . S
C1750 C1752 1.415 . S
C1751 C1750 1.390 . S
C1751 C1753 1.372 1_556 S
C1752 C1750 1.415 . S
C1752 C1757 1.425 1_556 S
C1752 C1759 1.409 . S
C1753 H1745 0.930 . S
C1753 C1751 1.372 1_554 S
C1753 C1754 1.362 . S
C1754 H1746 0.930 . S
C1754 C1753 1.362 . S
C1754 C1757 1.409 . S
C1755 H1747 0.930 . S
C1755 C1756 1.355 . S
C1755 C1757 1.415 1_455 S
C1756 C1755 1.355 . S
C1756 C1758 1.419 1_554 S
C1757 C1752 1.425 1_554 S
C1757 C1754 1.409 . S
C1757 C1755 1.415 1_655 S
C1758 H1748 0.930 . S
C1758 C1756 1.419 1_556 S
C1758 C1759 1.362 1_455 S
C1759 H1749 0.930 . S
C1759 C1752 1.409 . S
C1759 C1758 1.362 1_655 S
H1760 C1766 0.930 . S
H1761 C1769 0.930 . S
H1762 C1770 0.930 . S
H1763 C1771 0.930 . S
H1764 C1774 0.930 . S
H1765 C1775 0.930 . S
C1766 H1760 0.930 . S
C1766 C1767 1.355 1_556 S
C1766 C1768 1.415 . S
C1767 C1766 1.355 1_554 S
C1767 C1769 1.419 . S
C1768 C1766 1.415 . S
C1768 C1773 1.425 1_556 S
C1768 C1775 1.409 . S
C1769 H1761 0.930 . S
C1769 C1767 1.419 . S
C1769 C1770 1.362 . S
C1770 H1762 0.930 . S
C1770 C1769 1.362 . S
C1770 C1773 1.409 . S
C1771 H1763 0.930 . S
C1771 C1772 1.355 1_554 S
C1771 C1773 1.415 . S
C1772 C1771 1.355 1_556 S
C1772 C1774 1.419 . S
C1773 C1768 1.425 1_554 S
C1773 C1770 1.409 . S
C1773 C1771 1.415 . S
C1774 H1764 0.930 . S
C1774 C1772 1.419 . S
C1774 C1775 1.362 . S
C1775 H1765 0.930 . S
C1775 C1768 1.409 . S
C1775 C1774 1.362 . S
H1776 C1782 0.930 . S
H1777 C1785 0.930 . S
H1778 C1786 0.930 . S
H1779 C1787 0.930 . S
H1780 C1790 0.930 . S
H1781 C1791 0.930 . S
C1782 H1776 0.930 . S
C1782 C1783 1.355 . S
C1782 C1784 1.415 1_455 S
C1783 C1782 1.355 . S
C1783 C1785 1.419 . S
C1784 C1782 1.415 1_655 S
C1784 C1789 1.425 . S
C1784 C1791 1.409 . S
C1785 H1777 0.930 . S
C1785 C1783 1.419 . S
C1785 C1786 1.362 1_455 S
C1786 H1778 0.930 . S
C1786 C1785 1.362 1_655 S
C1786 C1789 1.409 . S
C1787 H1779 0.930 . S
C1787 C1788 1.355 . S
C1787 C1789 1.415 . S
C1788 C1787 1.355 . S
C1788 C1790 1.419 . S
C1789 C1784 1.425 . S
C1789 C1786 1.409 . S
C1789 C1787 1.415 . S
C1790 H1780 0.930 . S
C1790 C1788 1.419 . S
C1790 C1791 1.362 . S
C1791 H1781 0.930 . S
C1791 C1784 1.409 . S
C1791 C1790 1.362 . S
H1792 C1798 0.930 . S
H1793 C1801 0.930 . S
H1794 C1802 0.930 . S
H1795 C1803 0.930 . S
H1796 C1806 0.930 . S
H1797 C1807 0.930 . S
C1798 H1792 0.930 . S
C1798 C1799 1.355 . S
C1798 C1800 1.415 . S
C1799 C1798 1.355 . S
C1799 C1801 1.419 . S
C1800 C1798 1.415 . S
C1800 C1805 1.425 . S
C1800 C1807 1.409 . S
C1801 H1793 0.930 . S
C1801 C1799 1.419 . S
C1801 C1802 1.362 . S
C1802 H1794 0.930 . S
C1802 C1801 1.362 . S
C1802 C1805 1.409 . S
C1803 H1795 0.930 . S
C1803 C1804 1.355 . S
C1803 C1805 1.415 . S
C1804 C1803 1.355 . S
C1804 C1806 1.419 . S
C1805 C1800 1.425 . S
C1805 C1802 1.409 . S
C1805 C1803 1.415 . S
C1806 H1796 0.930 . S
C1806 C1804 1.419 . S
C1806 C1807 1.362 . S
C1807 H1797 0.930 . S
C1807 C1800 1.409 . S
C1807 C1806 1.362 . S
H1808 C1814 0.930 . S
H1809 C1817 0.930 . S
H1810 C1818 0.930 . S
H1811 C1819 0.930 . S
H1812 C1822 0.930 . S
H1813 C1823 0.930 . S
C1814 H1808 0.930 . S
C1814 C1815 1.355 . S
C1814 C1816 1.415 1_565 S
C1815 C1814 1.355 . S
C1815 C1817 1.419 . S
C1816 C1814 1.415 1_545 S
C1816 C1821 1.425 . S
C1816 C1823 1.409 . S
C1817 H1809 0.930 . S
C1817 C1815 1.419 . S
C1817 C1818 1.362 1_565 S
C1818 H1810 0.930 . S
C1818 C1817 1.362 1_545 S
C1818 C1821 1.409 . S
C1819 H1811 0.930 . S
C1819 C1820 1.355 . S
C1819 C1821 1.415 . S
C1820 C1819 1.355 . S
C1820 C1822 1.419 . S
C1821 C1816 1.425 . S
C1821 C1818 1.409 . S
C1821 C1819 1.415 . S
C1822 H1812 0.930 . S
C1822 C1820 1.419 . S
C1822 C1823 1.362 . S
C1823 H1813 0.930 . S
C1823 C1816 1.409 . S
C1823 C1822 1.362 . S
H1824 C1830 0.930 . S
H1825 C1833 0.930 . S
H1826 C1834 0.930 1_455 S
H1827 C1835 0.930 . S
H1828 C1838 0.930 . S
H1829 C1839 0.930 . S
C1830 H1824 0.930 . S
C1830 C1831 1.355 . S
C1830 C1832 1.415 . S
C1831 C1830 1.355 . S
C1831 C1833 1.419 1_655 S
C1832 C1830 1.415 . S
C1832 C1837 1.425 . S
C1832 C1839 1.409 . S
C1833 H1825 0.930 . S
C1833 C1831 1.419 1_455 S
C1833 C1834 1.362 1_455 S
C1834 H1826 0.930 1_655 S
C1834 C1833 1.362 1_655 S
C1834 C1837 1.409 . S
C1835 H1827 0.930 . S
C1835 C1836 1.355 . S
C1835 C1837 1.415 . S
C1836 C1835 1.355 . S
C1836 C1838 1.419 . S
C1837 C1832 1.425 . S
C1837 C1834 1.409 . S
C1837 C1835 1.415 . S
C1838 H1828 0.930 . S
C1838 C1836 1.419 . S
C1838 C1839 1.362 . S
C1839 H1829 0.930 . S
C1839 C1832 1.409 . S
C1839 C1838 1.362 . S
H1840 C1846 0.930 . S
H1841 C1849 0.930 . S
H1842 C1850 0.930 . S
H1843 C1851 0.930 . S
H1844 C1854 0.930 . S
H1845 C1855 0.930 . S
C1846 H1840 0.930 . S
C1846 C1847 1.355 . S
C1846 C1848 1.415 . S
C1847 C1846 1.355 . S
C1847 C1849 1.419 . S
C1848 C1846 1.415 . S
C1848 C1853 1.425 . S
C1848 C1855 1.409 . S
C1849 H1841 0.930 . S
C1849 C1847 1.419 . S
C1849 C1850 1.362 . S
C1850 H1842 0.930 . S
C1850 C1849 1.362 . S
C1850 C1853 1.409 . S
C1851 H1843 0.930 . S
C1851 C1852 1.355 . S
C1851 C1853 1.415 . S
C1852 C1851 1.355 . S
C1852 C1854 1.419 . S
C1853 C1848 1.425 . S
C1853 C1850 1.409 . S
C1853 C1851 1.415 . S
C1854 H1844 0.930 . S
C1854 C1852 1.419 . S
C1854 C1855 1.362 . S
C1855 H1845 0.930 . S
C1855 C1848 1.409 . S
C1855 C1854 1.362 . S
H1856 C1862 0.930 . S
H1857 C1865 0.930 . S
H1858 C1866 0.930 1_565 S
H1859 C1867 0.930 1_565 S
H1860 C1870 0.930 . S
H1861 C1871 0.930 . S
C1862 H1856 0.930 . S
C1862 C1863 1.355 . S
C1862 C1864 1.415 . S
C1863 C1862 1.355 . S
C1863 C1865 1.419 . S
C1864 C1862 1.415 . S
C1864 C1869 1.425 . S
C1864 C1871 1.409 . S
C1865 H1857 0.930 . S
C1865 C1863 1.419 . S
C1865 C1866 1.362 . S
C1866 H1858 0.930 1_545 S
C1866 C1865 1.362 . S
C1866 C1869 1.409 . S
C1867 H1859 0.930 1_545 S
C1867 C1868 1.355 . S
C1867 C1869 1.415 . S
C1868 C1867 1.355 . S
C1868 C1870 1.419 . S
C1869 C1864 1.425 . S
C1869 C1866 1.409 . S
C1869 C1867 1.415 . S
C1870 H1860 0.930 . S
C1870 C1868 1.419 . S
C1870 C1871 1.362 . S
C1871 H1861 0.930 . S
C1871 C1864 1.409 . S
C1871 C1870 1.362 . S
H1872 C1878 0.930 . S
H1873 C1881 0.930 . S
H1874 C1882 0.930 . S
H1875 C1883 0.930 . S
H1876 C1886 0.930 . S
H1877 C1887 0.930 . S
C1878 H1872 0.930 . S
C1878 C1879 1.355 . S
C1878 C1880 1.415 . S
C1879 C1878 1.355 . S
C1879 C1881 1.419 . S
C1880 C1878 1.415 . S
C1880 C1885 1.425 . S
C1880 C1887 1.409 . S
C1881 H1873 0.930 . S
C1881 C1879 1.419 . S
C1881 C1882 1.362 . S
C1882 H1874 0.930 . S
C1882 C1881 1.362 . S
C1882 C1885 1.409 . S
C1883 H1875 0.930 . S
C1883 C1884 1.355 . S
C1883 C1885 1.415 . S
C1884 C1883 1.355 . S
C1884 C1886 1.419 . S
C1885 C1880 1.425 . S
C1885 C1882 1.409 . S
C1885 C1883 1.415 . S
C1886 H1876 0.930 . S
C1886 C1884 1.419 . S
C1886 C1887 1.362 . S
C1887 H1877 0.930 . S
C1887 C1880 1.409 . S
C1887 C1886 1.362 . S
H1888 C1894 0.930 . S
H1889 C1897 0.930 . S
H1890 C1898 0.930 . S
H1891 C1899 0.930 . S
H1892 C1902 0.930 . S
H1893 C1903 0.930 . S
C1894 H1888 0.930 . S
C1894 C1895 1.355 . S
C1894 C1896 1.415 . S
C1895 C1894 1.355 . S
C1895 C1897 1.419 . S
C1896 C1894 1.415 . S
C1896 C1901 1.425 . S
C1896 C1903 1.409 . S
C1897 H1889 0.930 . S
C1897 C1895 1.419 . S
C1897 C1898 1.362 . S
C1898 H1890 0.930 . S
C1898 C1897 1.362 . S
C1898 C1901 1.409 . S
C1899 H1891 0.930 . S
C1899 C1900 1.355 . S
C1899 C1901 1.415 . S
C1900 C1899 1.355 . S
C1900 C1902 1.419 . S
C1901 C1896 1.425 . S
C1901 C1898 1.409 . S
C1901 C1899 1.415 . S
C1902 H1892 0.930 . S
C1902 C1900 1.419 . S
C1902 C1903 1.362 . S
C1903 H1893 0.930 . S
C1903 C1896 1.409 . S
C1903 C1902 1.362 . S
H1904 C1910 0.930 . S
H1905 C1913 0.930 . S
H1906 C1914 0.930 . S
H1907 C1915 0.930 . S
H1908 C1918 0.930 . S
H1909 C1919 0.930 . S
C1910 H1904 0.930 . S
C1910 C1911 1.355 . S
C1910 C1912 1.415 . S
C1911 C1910 1.355 . S
C1911 C1913 1.419 . S
C1912 C1910 1.415 . S
C1912 C1917 1.425 . S
C1912 C1919 1.409 . S
C1913 H1905 0.930 . S
C1913 C1911 1.419 . S
C1913 C1914 1.362 . S
C1914 H1906 0.930 . S
C1914 C1913 1.362 . S
C1914 C1917 1.409 . S
C1915 H1907 0.930 . S
C1915 C1916 1.355 . S
C1915 C1917 1.415 . S
C1916 C1915 1.355 . S
C1916 C1918 1.419 . S
C1917 C1912 1.425 . S
C1917 C1914 1.409 . S
C1917 C1915 1.415 . S
C1918 H1908 0.930 . S
C1918 C1916 1.419 . S
C1918 C1919 1.362 . S
C1919 H1909 0.930 . S
C1919 C1912 1.409 . S
C1919 C1918 1.362 . S
H1920 C1926 0.930 . S
H1921 C1929 0.930 . S
H1922 C1930 0.930 . S
H1923 C1931 0.930 . S
H1924 C1934 0.930 . S
H1925 C1935 0.930 . S
C1926 H1920 0.930 . S
C1926 C1927 1.355 . S
C1926 C1928 1.415 . S
C1927 C1926 1.355 . S
C1927 C1929 1.419 . S
C1928 C1926 1.415 . S
C1928 C1933 1.425 . S
C1928 C1935 1.409 . S
C1929 H1921 0.930 . S
C1929 C1927 1.419 . S
C1929 C1930 1.362 . S
C1930 H1922 0.930 . S
C1930 C1929 1.362 . S
C1930 C1933 1.409 . S
C1931 H1923 0.930 . S
C1931 C1932 1.355 . S
C1931 C1933 1.415 . S
C1932 C1931 1.355 . S
C1932 C1934 1.419 . S
C1933 C1928 1.425 . S
C1933 C1930 1.409 . S
C1933 C1931 1.415 . S
C1934 H1924 0.930 . S
C1934 C1932 1.419 . S
C1934 C1935 1.362 . S
C1935 H1925 0.930 . S
C1935 C1928 1.409 . S
C1935 C1934 1.362 . S
H1936 C1942 0.930 . S
H1937 C1945 0.930 . S
H1938 C1946 0.930 . S
H1939 C1947 0.930 . S
H1940 C1950 0.930 . S
H1941 C1951 0.930 . S
C1942 H1936 0.930 . S
C1942 C1943 1.355 . S
C1942 C1944 1.415 . S
C1943 C1942 1.355 . S
C1943 C1945 1.419 . S
C1944 C1942 1.415 . S
C1944 C1949 1.425 . S
C1944 C1951 1.409 . S
C1945 H1937 0.930 . S
C1945 C1943 1.419 . S
C1945 C1946 1.362 . S
C1946 H1938 0.930 . S
C1946 C1945 1.362 . S
C1946 C1949 1.409 . S
C1947 H1939 0.930 . S
C1947 C1948 1.355 . S
C1947 C1949 1.415 . S
C1948 C1947 1.355 . S
C1948 C1950 1.419 . S
C1949 C1944 1.425 . S
C1949 C1946 1.409 . S
C1949 C1947 1.415 . S
C1950 H1940 0.930 . S
C1950 C1948 1.419 . S
C1950 C1951 1.362 . S
C1951 H1941 0.930 . S
C1951 C1944 1.409 . S
C1951 C1950 1.362 . S
H1952 C1958 0.930 . S
H1953 C1961 0.930 . S
H1954 C1962 0.930 . S
H1955 C1963 0.930 . S
H1956 C1966 0.930 . S
H1957 C1967 0.930 . S
C1958 H1952 0.930 . S
C1958 C1959 1.355 . S
C1958 C1960 1.415 . S
C1959 C1958 1.355 . S
C1959 C1961 1.419 . S
C1960 C1958 1.415 . S
C1960 C1965 1.425 . S
C1960 C1967 1.409 . S
C1961 H1953 0.930 . S
C1961 C1959 1.419 . S
C1961 C1962 1.362 . S
C1962 H1954 0.930 . S
C1962 C1961 1.362 . S
C1962 C1965 1.409 . S
C1963 H1955 0.930 . S
C1963 C1964 1.355 . S
C1963 C1965 1.415 . S
C1964 C1963 1.355 . S
C1964 C1966 1.419 . S
C1965 C1960 1.425 . S
C1965 C1962 1.409 . S
C1965 C1963 1.415 . S
C1966 H1956 0.930 . S
C1966 C1964 1.419 . S
C1966 C1967 1.362 . S
C1967 H1957 0.930 . S
C1967 C1960 1.409 . S
C1967 C1966 1.362 . S
H1968 C1974 0.930 . S
H1969 C1977 0.930 . S
H1970 C1978 0.930 . S
H1971 C1979 0.930 . S
H1972 C1982 0.930 . S
H1973 C1983 0.930 . S
C1974 H1968 0.930 . S
C1974 C1975 1.355 . S
C1974 C1976 1.415 . S
C1975 C1974 1.355 . S
C1975 C1977 1.419 . S
C1976 C1974 1.415 . S
C1976 C1981 1.425 . S
C1976 C1983 1.409 . S
C1977 H1969 0.930 . S
C1977 C1975 1.419 . S
C1977 C1978 1.362 . S
C1978 H1970 0.930 . S
C1978 C1977 1.362 . S
C1978 C1981 1.409 . S
C1979 H1971 0.930 . S
C1979 C1980 1.355 . S
C1979 C1981 1.415 . S
C1980 C1979 1.355 . S
C1980 C1982 1.419 . S
C1981 C1976 1.425 . S
C1981 C1978 1.409 . S
C1981 C1979 1.415 . S
C1982 H1972 0.930 . S
C1982 C1980 1.419 . S
C1982 C1983 1.362 . S
C1983 H1973 0.930 . S
C1983 C1976 1.409 . S
C1983 C1982 1.362 . S
H1984 C1990 0.930 . S
H1985 C1993 0.930 . S
H1986 C1994 0.930 . S
H1987 C1995 0.930 . S
H1988 C1998 0.930 . S
H1989 C1999 0.930 . S
C1990 H1984 0.930 . S
C1990 C1991 1.355 . S
C1990 C1992 1.415 . S
C1991 C1990 1.355 . S
C1991 C1993 1.419 . S
C1992 C1990 1.415 . S
C1992 C1997 1.425 . S
C1992 C1999 1.409 . S
C1993 H1985 0.930 . S
C1993 C1991 1.419 . S
C1993 C1994 1.362 . S
C1994 H1986 0.930 . S
C1994 C1993 1.362 . S
C1994 C1997 1.409 . S
C1995 H1987 0.930 . S
C1995 C1996 1.355 . S
C1995 C1997 1.415 . S
C1996 C1995 1.355 . S
C1996 C1998 1.419 . S
C1997 C1992 1.425 . S
C1997 C1994 1.409 . S
C1997 C1995 1.415 . S
C1998 H1988 0.930 . S
C1998 C1996 1.419 . S
C1998 C1999 1.362 . S
C1999 H1989 0.930 . S
C1999 C1992 1.409 . S
C1999 C1998 1.362 . S
H2000 C2006 0.930 . S
H2001 C2009 0.930 . S
H2002 C2010 0.930 . S
H2003 C2011 0.930 . S
H2004 C2014 0.930 . S
H2005 C2015 0.930 . S
C2006 H2000 0.930 . S
C2006 C2007 1.355 . S
C2006 C2008 1.415 . S
C2007 C2006 1.355 . S
C2007 C2009 1.419 . S
C2008 C2006 1.415 . S
C2008 C2013 1.425 . S
C2008 C2015 1.409 . S
C2009 H2001 0.930 . S
C2009 C2007 1.419 . S
C2009 C2010 1.362 . S
C2010 H2002 0.930 . S
C2010 C2009 1.362 . S
C2010 C2013 1.409 . S
C2011 H2003 0.930 . S
C2011 C2012 1.355 . S
C2011 C2013 1.415 . S
C2012 C2011 1.355 . S
C2012 C2014 1.419 . S
C2013 C2008 1.425 . S
C2013 C2010 1.409 . S
C2013 C2011 1.415 . S
C2014 H2004 0.930 . S
C2014 C2012 1.419 . S
C2014 C2015 1.362 . S
C2015 H2005 0.930 . S
C2015 C2008 1.409 . S
C2015 C2014 1.362 . S
H2016 C2022 0.930 . S
H2017 C2025 0.930 . S
H2018 C2026 0.930 . S
H2019 C2027 0.930 . S
H2020 C2030 0.930 . S
H2021 C2031 0.930 . S
C2022 H2016 0.930 . S
C2022 C2023 1.355 . S
C2022 C2024 1.415 . S
C2023 C2022 1.355 . S
C2023 C2025 1.419 . S
C2024 C2022 1.415 . S
C2024 C2029 1.425 . S
C2024 C2031 1.409 . S
C2025 H2017 0.930 . S
C2025 C2023 1.419 . S
C2025 C2026 1.362 . S
C2026 H2018 0.930 . S
C2026 C2025 1.362 . S
C2026 C2029 1.409 . S
C2027 H2019 0.930 . S
C2027 C2028 1.355 . S
C2027 C2029 1.415 . S
C2028 C2027 1.355 . S
C2028 C2030 1.419 . S
C2029 C2024 1.425 . S
C2029 C2026 1.409 . S
C2029 C2027 1.415 . S
C2030 H2020 0.930 . S
C2030 C2028 1.419 . S
C2030 C2031 1.362 . S
C2031 H2021 0.930 . S
C2031 C2024 1.409 . S
C2031 C2030 1.362 . S
H2032 C2038 0.930 . S
H2033 C2041 0.930 . S
H2034 C2042 0.930 . S
H2035 C2043 0.930 . S
H2036 C2046 0.930 . S
H2037 C2047 0.930 . S
C2038 H2032 0.930 . S
C2038 C2039 1.355 . S
C2038 C2040 1.415 . S
C2039 C2038 1.355 . S
C2039 C2041 1.419 . S
C2040 C2038 1.415 . S
C2040 C2045 1.425 . S
C2040 C2047 1.409 . S
C2041 H2033 0.930 . S
C2041 C2039 1.419 . S
C2041 C2042 1.362 . S
C2042 H2034 0.930 . S
C2042 C2041 1.362 . S
C2042 C2045 1.409 . S
C2043 H2035 0.930 . S
C2043 C2044 1.355 . S
C2043 C2045 1.415 . S
C2044 C2043 1.355 . S
C2044 C2046 1.419 . S
C2045 C2040 1.425 . S
C2045 C2042 1.409 . S
C2045 C2043 1.415 . S
C2046 H2036 0.930 . S
C2046 C2044 1.419 . S
C2046 C2047 1.362 . S
C2047 H2037 0.930 . S
C2047 C2040 1.409 . S
C2047 C2046 1.362 . S
H2048 C2054 0.930 . S
H2049 C2057 0.930 . S
H2050 C2058 0.930 . S
H2051 C2059 0.930 . S
H2052 C2062 0.930 . S
H2053 C2063 0.930 . S
C2054 H2048 0.930 . S
C2054 C2055 1.355 . S
C2054 C2056 1.415 . S
C2055 C2054 1.355 . S
C2055 C2057 1.419 . S
C2056 C2054 1.415 . S
C2056 C2061 1.425 . S
C2056 C2063 1.409 . S
C2057 H2049 0.930 . S
C2057 C2055 1.419 . S
C2057 C2058 1.362 . S
C2058 H2050 0.930 . S
C2058 C2057 1.362 . S
C2058 C2061 1.409 . S
C2059 H2051 0.930 . S
C2059 C2060 1.355 . S
C2059 C2061 1.415 . S
C2060 C2059 1.355 . S
C2060 C2062 1.419 . S
C2061 C2056 1.425 . S
C2061 C2058 1.409 . S
C2061 C2059 1.415 . S
C2062 H2052 0.930 . S
C2062 C2060 1.419 . S
C2062 C2063 1.362 . S
C2063 H2053 0.930 . S
C2063 C2056 1.409 . S
C2063 C2062 1.362 . S
H2064 C2070 0.930 1_455 S
H2065 C2073 0.930 . S
H2066 C2074 0.930 . S
H2067 C2075 0.930 1_655 S
H2068 C2078 0.930 . S
H2069 C2079 0.930 . S
C2070 H2064 0.930 1_655 S
C2070 C2071 1.355 . S
C2070 C2072 1.415 1_655 S
C2071 C2070 1.355 . S
C2071 C2073 1.419 . S
C2072 C2070 1.415 1_455 S
C2072 C2077 1.425 1_455 S
C2072 C2079 1.409 . S
C2073 H2065 0.930 . S
C2073 C2071 1.419 . S
C2073 C2074 1.362 . S
C2074 H2066 0.930 . S
C2074 C2073 1.362 . S
C2074 C2077 1.409 . S
C2075 H2067 0.930 1_455 S
C2075 C2076 1.355 . S
C2075 C2077 1.415 1_455 S
C2076 C2075 1.355 . S
C2076 C2078 1.419 . S
C2077 C2072 1.425 1_655 S
C2077 C2074 1.409 . S
C2077 C2075 1.415 1_655 S
C2078 H2068 0.930 . S
C2078 C2076 1.419 . S
C2078 C2079 1.362 . S
C2079 H2069 0.930 . S
C2079 C2072 1.409 . S
C2079 C2078 1.362 . S
H2080 C2086 0.930 . S
H2081 C2089 0.930 . S
H2082 C2090 0.930 . S
H2083 C2091 0.930 . S
H2084 C2094 0.930 . S
H2085 C2095 0.930 . S
C2086 H2080 0.930 . S
C2086 C2087 1.355 . S
C2086 C2088 1.415 . S
C2087 C2086 1.355 . S
C2087 C2089 1.419 . S
C2088 C2086 1.415 . S
C2088 C2093 1.425 . S
C2088 C2095 1.409 . S
C2089 H2081 0.930 . S
C2089 C2087 1.419 . S
C2089 C2090 1.362 . S
C2090 H2082 0.930 . S
C2090 C2089 1.362 . S
C2090 C2093 1.409 . S
C2091 H2083 0.930 . S
C2091 C2092 1.355 . S
C2091 C2093 1.415 . S
C2092 C2091 1.355 . S
C2092 C2094 1.419 . S
C2093 C2088 1.425 . S
C2093 C2090 1.409 . S
C2093 C2091 1.415 . S
C2094 H2084 0.930 . S
C2094 C2092 1.419 . S
C2094 C2095 1.362 . S
C2095 H2085 0.930 . S
C2095 C2088 1.409 . S
C2095 C2094 1.362 . S
H2096 C2102 0.930 . S
H2097 C2105 0.930 . S
H2098 C2106 0.930 . S
H2099 C2107 0.930 . S
H2100 C2110 0.930 . S
H2101 C2111 0.930 . S
C2102 H2096 0.930 . S
C2102 C2103 1.355 . S
C2102 C2104 1.415 . S
C2103 C2102 1.355 . S
C2103 C2105 1.419 1_545 S
C2104 C2102 1.415 . S
C2104 C2109 1.425 1_545 S
C2104 C2111 1.409 . S
C2105 H2097 0.930 . S
C2105 C2103 1.419 1_565 S
C2105 C2106 1.362 . S
C2106 H2098 0.930 . S
C2106 C2105 1.362 . S
C2106 C2109 1.409 . S
C2107 H2099 0.930 . S
C2107 C2108 1.355 . S
C2107 C2109 1.415 . S
C2108 C2107 1.355 . S
C2108 C2110 1.419 1_565 S
C2109 C2104 1.425 1_565 S
C2109 C2106 1.409 . S
C2109 C2107 1.415 . S
C2110 H2100 0.930 . S
C2110 C2108 1.419 1_545 S
C2110 C2111 1.362 . S
C2111 H2101 0.930 . S
C2111 C2104 1.409 . S
C2111 C2110 1.362 . S
H2112 C2118 0.930 . S
H2113 C2121 0.930 . S
H2114 C2122 0.930 . S
H2115 C2123 0.930 . S
H2116 C2126 0.930 . S
H2117 C2127 0.930 . S
C2118 H2112 0.930 . S
C2118 C2119 1.355 1_565 S
C2118 C2120 1.415 . S
C2119 C2118 1.355 1_545 S
C2119 C2121 1.419 . S
C2120 C2118 1.415 . S
C2120 C2125 1.425 1_565 S
C2120 C2127 1.409 . S
C2121 H2113 0.930 . S
C2121 C2119 1.419 . S
C2121 C2122 1.362 . S
C2122 H2114 0.930 . S
C2122 C2121 1.362 . S
C2122 C2125 1.409 . S
C2123 H2115 0.930 . S
C2123 C2124 1.355 1_545 S
C2123 C2125 1.415 . S
C2124 C2123 1.355 1_565 S
C2124 C2126 1.419 . S
C2125 C2120 1.425 1_545 S
C2125 C2122 1.409 . S
C2125 C2123 1.415 . S
C2126 H2116 0.930 . S
C2126 C2124 1.419 . S
C2126 C2127 1.362 . S
C2127 H2117 0.930 . S
C2127 C2120 1.409 . S
C2127 C2126 1.362 . S
H2128 C2134 0.930 1_655 S
H2129 C2137 0.930 . S
H2130 C2138 0.930 . S
H2131 C2139 0.930 . S
H2132 C2142 0.930 . S
H2133 C2143 0.930 . S
C2134 H2128 0.930 1_455 S
C2134 C2135 1.355 . S
C2134 C2136 1.415 1_455 S
C2135 C2134 1.355 . S
C2135 C2137 1.419 . S
C2136 C2134 1.415 1_655 S
C2136 C2141 1.425 1_655 S
C2136 C2143 1.409 . S
C2137 H2129 0.930 . S
C2137 C2135 1.419 . S
C2137 C2138 1.362 . S
C2138 H2130 0.930 . S
C2138 C2137 1.362 . S
C2138 C2141 1.409 . S
C2139 H2131 0.930 . S
C2139 C2140 1.355 . S
C2139 C2141 1.415 1_655 S
C2140 C2139 1.355 . S
C2140 C2142 1.419 . S
C2141 C2136 1.425 1_455 S
C2141 C2138 1.409 . S
C2141 C2139 1.415 1_455 S
C2142 H2132 0.930 . S
C2142 C2140 1.419 . S
C2142 C2143 1.362 . S
C2143 H2133 0.930 . S
C2143 C2136 1.409 . S
C2143 C2142 1.362 . S
H2144 C2150 0.930 . S
H2145 C2153 0.930 . S
H2146 C2154 0.930 . S
H2147 C2155 0.930 . S
H2148 C2158 0.930 . S
H2149 C2159 0.930 . S
C2150 H2144 0.930 . S
C2150 C2151 1.355 . S
C2150 C2152 1.415 . S
C2151 C2150 1.355 . S
C2151 C2153 1.419 . S
C2152 C2150 1.415 . S
C2152 C2157 1.425 . S
C2152 C2159 1.409 . S
C2153 H2145 0.930 . S
C2153 C2151 1.419 . S
C2153 C2154 1.362 . S
C2154 H2146 0.930 . S
C2154 C2153 1.362 . S
C2154 C2157 1.409 . S
C2155 H2147 0.930 . S
C2155 C2156 1.355 . S
C2155 C2157 1.415 . S
C2156 C2155 1.355 . S
C2156 C2158 1.419 . S
C2157 C2152 1.425 . S
C2157 C2154 1.409 . S
C2157 C2155 1.415 . S
C2158 H2148 0.930 . S
C2158 C2156 1.419 . S
C2158 C2159 1.362 . S
C2159 H2149 0.930 . S
C2159 C2152 1.409 . S
C2159 C2158 1.362 . S
H2160 C2166 0.930 . S
H2161 C2169 0.930 . S
H2162 C2170 0.930 . S
H2163 C2171 0.930 . S
H2164 C2174 0.930 . S
H2165 C2175 0.930 . S
C2166 H2160 0.930 . S
C2166 C2167 1.355 . S
C2166 C2168 1.415 . S
C2167 C2166 1.355 . S
C2167 C2169 1.419 . S
C2168 C2166 1.415 . S
C2168 C2173 1.425 1_655 S
C2168 C2175 1.409 . S
C2169 H2161 0.930 . S
C2169 C2167 1.419 . S
C2169 C2170 1.362 1_655 S
C2170 H2162 0.930 . S
C2170 C2169 1.362 1_455 S
C2170 C2173 1.409 . S
C2171 H2163 0.930 . S
C2171 C2172 1.355 . S
C2171 C2173 1.415 . S
C2172 C2171 1.355 . S
C2172 C2174 1.419 . S
C2173 C2168 1.425 1_455 S
C2173 C2170 1.409 . S
C2173 C2171 1.415 . S
C2174 H2164 0.930 . S
C2174 C2172 1.419 . S
C2174 C2175 1.362 1_455 S
C2175 H2165 0.930 . S
C2175 C2168 1.409 . S
C2175 C2174 1.362 1_655 S
H2176 C2182 0.930 . S
H2177 C2185 0.930 . S
H2178 C2186 0.930 . S
H2179 C2187 0.930 . S
H2180 C2190 0.930 . S
H2181 C2191 0.930 . S
C2182 H2176 0.930 . S
C2182 C2183 1.355 . S
C2182 C2184 1.415 . S
C2183 C2182 1.355 . S
C2183 C2185 1.419 . S
C2184 C2182 1.415 . S
C2184 C2189 1.425 . S
C2184 C2191 1.409 . S
C2185 H2177 0.930 . S
C2185 C2183 1.419 . S
C2185 C2186 1.362 . S
C2186 H2178 0.930 . S
C2186 C2185 1.362 . S
C2186 C2189 1.409 . S
C2187 H2179 0.930 . S
C2187 C2188 1.355 . S
C2187 C2189 1.415 . S
C2188 C2187 1.355 . S
C2188 C2190 1.419 . S
C2189 C2184 1.425 . S
C2189 C2186 1.409 . S
C2189 C2187 1.415 . S
C2190 H2180 0.930 . S
C2190 C2188 1.419 . S
C2190 C2191 1.362 . S
C2191 H2181 0.930 . S
C2191 C2184 1.409 . S
C2191 C2190 1.362 . S
H2192 C2198 0.930 . S
H2193 C2201 0.930 . S
H2194 C2202 0.930 . S
H2195 C2203 0.930 . S
H2196 C2206 0.930 . S
H2197 C2207 0.930 . S
C2198 H2192 0.930 . S
C2198 C2199 1.355 . S
C2198 C2200 1.415 . S
C2199 C2198 1.355 . S
C2199 C2201 1.419 . S
C2200 C2198 1.415 . S
C2200 C2205 1.425 1_545 S
C2200 C2207 1.409 1_545 S
C2201 H2193 0.930 . S
C2201 C2199 1.419 . S
C2201 C2202 1.362 . S
C2202 H2194 0.930 . S
C2202 C2201 1.362 . S
C2202 C2205 1.409 1_545 S
C2203 H2195 0.930 . S
C2203 C2204 1.355 . S
C2203 C2205 1.415 . S
C2204 C2203 1.355 . S
C2204 C2206 1.419 . S
C2205 C2200 1.425 1_565 S
C2205 C2202 1.409 1_565 S
C2205 C2203 1.415 . S
C2206 H2196 0.930 . S
C2206 C2204 1.419 . S
C2206 C2207 1.362 . S
C2207 H2197 0.930 . S
C2207 C2200 1.409 1_565 S
C2207 C2206 1.362 . S
H2208 C2214 0.930 . S
H2209 C2217 0.930 . S
H2210 C2218 0.930 . S
H2211 C2219 0.930 . S
H2212 C2222 0.930 . S
H2213 C2223 0.930 . S
C2214 H2208 0.930 . S
C2214 C2215 1.355 . S
C2214 C2216 1.415 . S
C2215 C2214 1.355 . S
C2215 C2217 1.419 . S
C2216 C2214 1.415 . S
C2216 C2221 1.425 1_655 S
C2216 C2223 1.409 . S
C2217 H2209 0.930 . S
C2217 C2215 1.419 . S
C2217 C2218 1.362 1_655 S
C2218 H2210 0.930 . S
C2218 C2217 1.362 1_455 S
C2218 C2221 1.409 . S
C2219 H2211 0.930 . S
C2219 C2220 1.355 . S
C2219 C2221 1.415 . S
C2220 C2219 1.355 . S
C2220 C2222 1.419 . S
C2221 C2216 1.425 1_455 S
C2221 C2218 1.409 . S
C2221 C2219 1.415 . S
C2222 H2212 0.930 . S
C2222 C2220 1.419 . S
C2222 C2223 1.362 1_455 S
C2223 H2213 0.930 . S
C2223 C2216 1.409 . S
C2223 C2222 1.362 1_655 S
H2224 C2230 0.930 . S
H2225 C2233 0.930 . S
H2226 C2234 0.930 . S
H2227 C2235 0.930 . S
H2228 C2238 0.930 . S
H2229 C2239 0.930 . S
C2230 H2224 0.930 . S
C2230 C2231 1.355 . S
C2230 C2232 1.415 . S
C2231 C2230 1.355 . S
C2231 C2233 1.419 . S
C2232 C2230 1.415 . S
C2232 C2237 1.425 . S
C2232 C2239 1.409 . S
C2233 H2225 0.930 . S
C2233 C2231 1.419 . S
C2233 C2234 1.362 . S
C2234 H2226 0.930 . S
C2234 C2233 1.362 . S
C2234 C2237 1.409 . S
C2235 H2227 0.930 . S
C2235 C2236 1.355 . S
C2235 C2237 1.415 . S
C2236 C2235 1.355 . S
C2236 C2238 1.419 . S
C2237 C2232 1.425 . S
C2237 C2234 1.409 . S
C2237 C2235 1.415 . S
C2238 H2228 0.930 . S
C2238 C2236 1.419 . S
C2238 C2239 1.362 . S
C2239 H2229 0.930 . S
C2239 C2232 1.409 . S
C2239 C2238 1.362 . S
H2240 C2246 0.922 1_565 S
H2241 C2249 0.930 . S
H2242 C2250 0.930 . S
H2243 C2251 0.920 1_545 S
H2244 C2254 0.930 . S
H2245 C2255 0.930 . S
C2246 H2240 0.922 1_545 S
C2246 C2247 1.355 . S
C2246 C2248 1.415 1_545 S
C2247 C2246 1.355 . S
C2247 C2249 1.419 . S
C2248 C2246 1.415 1_565 S
C2248 C2253 1.425 1_565 S
C2248 C2255 1.409 . S
C2249 H2241 0.930 . S
C2249 C2247 1.419 . S
C2249 C2250 1.362 . S
C2250 H2242 0.930 . S
C2250 C2249 1.362 . S
C2250 C2253 1.409 . S
C2251 H2243 0.920 1_565 S
C2251 C2252 1.355 . S
C2251 C2253 1.415 1_565 S
C2252 C2251 1.355 . S
C2252 C2254 1.419 . S
C2253 C2248 1.425 1_545 S
C2253 C2250 1.409 . S
C2253 C2251 1.415 1_545 S
C2254 H2244 0.930 . S
C2254 C2252 1.419 . S
C2254 C2255 1.362 . S
C2255 H2245 0.930 . S
C2255 C2248 1.409 . S
C2255 C2254 1.362 . S
H2256 C2262 0.930 . S
H2257 C2265 0.930 . S
H2258 C2266 0.930 . S
H2259 C2267 0.930 . S
H2260 C2270 0.930 . S
H2261 C2271 0.930 . S
C2262 H2256 0.930 . S
C2262 C2263 1.355 . S
C2262 C2264 1.415 . S
C2263 C2262 1.355 . S
C2263 C2265 1.419 . S
C2264 C2262 1.415 . S
C2264 C2269 1.425 . S
C2264 C2271 1.409 . S
C2265 H2257 0.930 . S
C2265 C2263 1.419 . S
C2265 C2266 1.362 . S
C2266 H2258 0.930 . S
C2266 C2265 1.362 . S
C2266 C2269 1.409 . S
C2267 H2259 0.930 . S
C2267 C2268 1.355 . S
C2267 C2269 1.415 . S
C2268 C2267 1.355 . S
C2268 C2270 1.419 . S
C2269 C2264 1.425 . S
C2269 C2266 1.409 . S
C2269 C2267 1.415 . S
C2270 H2260 0.930 . S
C2270 C2268 1.419 . S
C2270 C2271 1.362 . S
C2271 H2261 0.930 . S
C2271 C2264 1.409 . S
C2271 C2270 1.362 . S
H2272 C2278 0.930 . S
H2273 C2281 0.930 . S
H2274 C2282 0.930 . S
H2275 C2283 0.930 . S
H2276 C2286 0.930 . S
H2277 C2287 0.930 . S
C2278 H2272 0.930 . S
C2278 C2279 1.355 . S
C2278 C2280 1.415 . S
C2279 C2278 1.355 . S
C2279 C2281 1.419 . S
C2280 C2278 1.415 . S
C2280 C2285 1.425 . S
C2280 C2287 1.409 . S
C2281 H2273 0.930 . S
C2281 C2279 1.419 . S
C2281 C2282 1.362 . S
C2282 H2274 0.930 . S
C2282 C2281 1.362 . S
C2282 C2285 1.409 . S
C2283 H2275 0.930 . S
C2283 C2284 1.355 . S
C2283 C2285 1.415 . S
C2284 C2283 1.355 . S
C2284 C2286 1.419 . S
C2285 C2280 1.425 . S
C2285 C2282 1.409 . S
C2285 C2283 1.415 . S
C2286 H2276 0.930 . S
C2286 C2284 1.419 . S
C2286 C2287 1.362 . S
C2287 H2277 0.930 . S
C2287 C2280 1.409 . S
C2287 C2286 1.362 . S
H2288 C2294 0.930 . S
H2289 C2297 0.930 . S
H2290 C2298 0.930 . S
H2291 C2299 0.930 . S
H2292 C2302 0.930 . S
H2293 C2303 0.930 . S
C2294 H2288 0.930 . S
C2294 C2295 1.355 . S
C2294 C2296 1.415 . S
C2295 C2294 1.355 . S
C2295 C2297 1.419 . S
C2296 C2294 1.415 . S
C2296 C2301 1.425 . S
C2296 C2303 1.409 . S
C2297 H2289 0.930 . S
C2297 C2295 1.419 . S
C2297 C2298 1.362 . S
C2298 H2290 0.930 . S
C2298 C2297 1.362 . S
C2298 C2301 1.409 . S
C2299 H2291 0.930 . S
C2299 C2300 1.355 . S
C2299 C2301 1.415 . S
C2300 C2299 1.355 . S
C2300 C2302 1.419 . S
C2301 C2296 1.425 . S
C2301 C2298 1.409 . S
C2301 C2299 1.415 . S
C2302 H2292 0.930 . S
C2302 C2300 1.419 . S
C2302 C2303 1.362 . S
C2303 H2293 0.930 . S
C2303 C2296 1.409 . S
C2303 C2302 1.362 . S
H2304 C2310 0.930 . S
H2305 C2313 0.930 . S
H2306 C2314 0.930 . S
H2307 C2315 0.930 . S
H2308 C2318 0.930 . S
H2309 C2319 0.930 . S
C2310 H2304 0.930 . S
C2310 C2311 1.355 . S
C2310 C2312 1.415 . S
C2311 C2310 1.355 . S
C2311 C2313 1.419 . S
C2312 C2310 1.415 . S
C2312 C2317 1.425 . S
C2312 C2319 1.409 . S
C2313 H2305 0.930 . S
C2313 C2311 1.419 . S
C2313 C2314 1.362 . S
C2314 H2306 0.930 . S
C2314 C2313 1.362 . S
C2314 C2317 1.409 . S
C2315 H2307 0.930 . S
C2315 C2316 1.355 . S
C2315 C2317 1.415 . S
C2316 C2315 1.355 . S
C2316 C2318 1.419 . S
C2317 C2312 1.425 . S
C2317 C2314 1.409 . S
C2317 C2315 1.415 . S
C2318 H2308 0.930 . S
C2318 C2316 1.419 . S
C2318 C2319 1.362 . S
C2319 H2309 0.930 . S
C2319 C2312 1.409 . S
C2319 C2318 1.362 . S
H2320 C2326 0.930 . S
H2321 C2329 0.930 . S
H2322 C2330 0.930 . S
H2323 C2331 0.930 . S
H2324 C2334 0.930 . S
H2325 C2335 0.930 . S
C2326 H2320 0.930 . S
C2326 C2327 1.355 . S
C2326 C2328 1.415 . S
C2327 C2326 1.355 . S
C2327 C2329 1.419 . S
C2328 C2326 1.415 . S
C2328 C2333 1.425 . S
C2328 C2335 1.409 . S
C2329 H2321 0.930 . S
C2329 C2327 1.419 . S
C2329 C2330 1.362 . S
C2330 H2322 0.930 . S
C2330 C2329 1.362 . S
C2330 C2333 1.409 . S
C2331 H2323 0.930 . S
C2331 C2332 1.355 . S
C2331 C2333 1.415 . S
C2332 C2331 1.355 . S
C2332 C2334 1.419 . S
C2333 C2328 1.425 . S
C2333 C2330 1.409 . S
C2333 C2331 1.415 . S
C2334 H2324 0.930 . S
C2334 C2332 1.419 . S
C2334 C2335 1.362 . S
C2335 H2325 0.930 . S
C2335 C2328 1.409 . S
C2335 C2334 1.362 . S
H2336 C2342 0.930 . S
H2337 C2345 0.930 . S
H2338 C2346 0.930 . S
H2339 C2347 0.930 . S
H2340 C2350 0.930 . S
H2341 C2351 0.930 . S
C2342 H2336 0.930 . S
C2342 C2343 1.355 . S
C2342 C2344 1.415 . S
C2343 C2342 1.355 . S
C2343 C2345 1.419 . S
C2344 C2342 1.415 . S
C2344 C2349 1.425 . S
C2344 C2351 1.409 . S
C2345 H2337 0.930 . S
C2345 C2343 1.419 . S
C2345 C2346 1.362 . S
C2346 H2338 0.930 . S
C2346 C2345 1.362 . S
C2346 C2349 1.409 . S
C2347 H2339 0.930 . S
C2347 C2348 1.355 . S
C2347 C2349 1.415 . S
C2348 C2347 1.355 . S
C2348 C2350 1.419 . S
C2349 C2344 1.425 . S
C2349 C2346 1.409 . S
C2349 C2347 1.415 . S
C2350 H2340 0.930 . S
C2350 C2348 1.419 . S
C2350 C2351 1.362 . S
C2351 H2341 0.930 . S
C2351 C2344 1.409 . S
C2351 C2350 1.362 . S
H2352 C2358 0.930 . S
H2353 C2361 0.930 . S
H2354 C2362 0.930 . S
H2355 C2363 0.930 . S
H2356 C2366 0.930 . S
H2357 C2367 0.930 . S
C2358 H2352 0.930 . S
C2358 C2359 1.355 . S
C2358 C2360 1.415 . S
C2359 C2358 1.355 . S
C2359 C2361 1.419 . S
C2360 C2358 1.415 . S
C2360 C2365 1.425 . S
C2360 C2367 1.409 . S
C2361 H2353 0.930 . S
C2361 C2359 1.419 . S
C2361 C2362 1.362 . S
C2362 H2354 0.930 . S
C2362 C2361 1.362 . S
C2362 C2365 1.409 . S
C2363 H2355 0.930 . S
C2363 C2364 1.355 . S
C2363 C2365 1.415 . S
C2364 C2363 1.355 . S
C2364 C2366 1.419 . S
C2365 C2360 1.425 . S
C2365 C2362 1.409 . S
C2365 C2363 1.415 . S
C2366 H2356 0.930 . S
C2366 C2364 1.419 . S
C2366 C2367 1.362 . S
C2367 H2357 0.930 . S
C2367 C2360 1.409 . S
C2367 C2366 1.362 . S
H2368 C2374 0.930 . S
H2369 C2377 0.930 . S
H2370 C2378 0.930 . S
H2371 C2379 0.930 . S
H2372 C2382 0.930 . S
H2373 C2383 0.930 . S
C2374 H2368 0.930 . S
C2374 C2375 1.355 . S
C2374 C2376 1.415 . S
C2375 C2374 1.355 . S
C2375 C2377 1.419 . S
C2376 C2374 1.415 . S
C2376 C2381 1.425 . S
C2376 C2383 1.409 . S
C2377 H2369 0.930 . S
C2377 C2375 1.419 . S
C2377 C2378 1.362 . S
C2378 H2370 0.930 . S
C2378 C2377 1.362 . S
C2378 C2381 1.409 . S
C2379 H2371 0.930 . S
C2379 C2380 1.355 . S
C2379 C2381 1.415 . S
C2380 C2379 1.355 . S
C2380 C2382 1.419 . S
C2381 C2376 1.425 . S
C2381 C2378 1.409 . S
C2381 C2379 1.415 . S
C2382 H2372 0.930 . S
C2382 C2380 1.419 . S
C2382 C2383 1.362 . S
C2383 H2373 0.930 . S
C2383 C2376 1.409 . S
C2383 C2382 1.362 . S
H2384 C2390 0.930 . S
H2385 C2393 0.930 . S
H2386 C2394 0.930 . S
H2387 C2395 0.930 . S
H2388 C2398 0.930 . S
H2389 C2399 0.930 . S
C2390 H2384 0.930 . S
C2390 C2391 1.355 . S
C2390 C2392 1.415 . S
C2391 C2390 1.355 . S
C2391 C2393 1.419 . S
C2392 C2390 1.415 . S
C2392 C2397 1.425 . S
C2392 C2399 1.409 . S
C2393 H2385 0.930 . S
C2393 C2391 1.419 . S
C2393 C2394 1.362 . S
C2394 H2386 0.930 . S
C2394 C2393 1.362 . S
C2394 C2397 1.409 . S
C2395 H2387 0.930 . S
C2395 C2396 1.355 . S
C2395 C2397 1.415 . S
C2396 C2395 1.355 . S
C2396 C2398 1.419 . S
C2397 C2392 1.425 . S
C2397 C2394 1.409 . S
C2397 C2395 1.415 . S
C2398 H2388 0.930 . S
C2398 C2396 1.419 . S
C2398 C2399 1.362 . S
C2399 H2389 0.930 . S
C2399 C2392 1.409 . S
C2399 C2398 1.362 . S
H2400 C2406 0.930 . S
H2401 C2409 0.930 . S
H2402 C2410 0.930 . S
H2403 C2411 0.930 . S
H2404 C2414 0.930 . S
H2405 C2415 0.930 . S
C2406 H2400 0.930 . S
C2406 C2407 1.355 . S
C2406 C2408 1.415 . S
C2407 C2406 1.355 . S
C2407 C2409 1.419 . S
C2408 C2406 1.415 . S
C2408 C2413 1.425 . S
C2408 C2415 1.409 . S
C2409 H2401 0.930 . S
C2409 C2407 1.419 . S
C2409 C2410 1.362 . S
C2410 H2402 0.930 . S
C2410 C2409 1.362 . S
C2410 C2413 1.409 . S
C2411 H2403 0.930 . S
C2411 C2412 1.355 . S
C2411 C2413 1.415 . S
C2412 C2411 1.355 . S
C2412 C2414 1.419 . S
C2413 C2408 1.425 . S
C2413 C2410 1.409 . S
C2413 C2411 1.415 . S
C2414 H2404 0.930 . S
C2414 C2412 1.419 . S
C2414 C2415 1.362 . S
C2415 H2405 0.930 . S
C2415 C2408 1.409 . S
C2415 C2414 1.362 . S
H2416 C2422 0.930 . S
H2417 C2425 0.930 . S
H2418 C2426 0.930 . S
H2419 C2427 0.930 . S
H2420 C2430 0.930 . S
H2421 C2431 0.930 . S
C2422 H2416 0.930 . S
C2422 C2423 1.355 . S
C2422 C2424 1.415 . S
C2423 C2422 1.355 . S
C2423 C2425 1.419 . S
C2424 C2422 1.415 . S
C2424 C2429 1.425 . S
C2424 C2431 1.409 . S
C2425 H2417 0.930 . S
C2425 C2423 1.419 . S
C2425 C2426 1.362 . S
C2426 H2418 0.930 . S
C2426 C2425 1.362 . S
C2426 C2429 1.409 . S
C2427 H2419 0.930 . S
C2427 C2428 1.355 . S
C2427 C2429 1.415 . S
C2428 C2427 1.355 . S
C2428 C2430 1.419 . S
C2429 C2424 1.425 . S
C2429 C2426 1.409 . S
C2429 C2427 1.415 . S
C2430 H2420 0.930 . S
C2430 C2428 1.419 . S
C2430 C2431 1.362 . S
C2431 H2421 0.930 . S
C2431 C2424 1.409 . S
C2431 C2430 1.362 . S
H2432 C2438 0.930 . S
H2433 C2441 0.930 . S
H2434 C2442 0.930 . S
H2435 C2443 0.930 . S
H2436 C2446 0.930 . S
H2437 C2447 0.930 . S
C2438 H2432 0.930 . S
C2438 C2439 1.355 . S
C2438 C2440 1.415 . S
C2439 C2438 1.355 . S
C2439 C2441 1.419 . S
C2440 C2438 1.415 . S
C2440 C2445 1.425 . S
C2440 C2447 1.409 . S
C2441 H2433 0.930 . S
C2441 C2439 1.419 . S
C2441 C2442 1.362 . S
C2442 H2434 0.930 . S
C2442 C2441 1.362 . S
C2442 C2445 1.409 . S
C2443 H2435 0.930 . S
C2443 C2444 1.355 . S
C2443 C2445 1.415 . S
C2444 C2443 1.355 . S
C2444 C2446 1.419 . S
C2445 C2440 1.425 . S
C2445 C2442 1.409 . S
C2445 C2443 1.415 . S
C2446 H2436 0.930 . S
C2446 C2444 1.419 . S
C2446 C2447 1.362 . S
C2447 H2437 0.930 . S
C2447 C2440 1.409 . S
C2447 C2446 1.362 . S
C727 C18 1.435 . S
C732 C42 1.405 . S
C743 C2 1.380 . S
C748 C38 1.427 . S
C759 C58 1.442 . S
C764 C22 1.369 . S
C775 C78 1.473 . S
C780 C82 1.382 . S
C791 C102 1.375 . S
C796 C98 1.457 . S
C807 C118 1.470 . S
C812 C62 1.374 . S
C823 C139 1.430 . S
C828 C164 1.390 . S
C839 C159 1.443 . S
C844 C124 1.377 . S
C855 C179 1.422 . S
C860 C144 1.348 . S
C871 C199 1.480 . S
C876 C204 1.417 . S
C887 C224 1.443 . S
C892 C219 1.480 . S
C903 C184 1.382 . S
C908 C239 1.472 . S
C919 C282 1.360 . S
C924 C258 1.458 . S
C935 C278 1.457 . S
C940 C242 1.360 . S
C951 C262 1.415 . S
C956 C298 1.460 . S
C967 C318 1.479 . S
C972 C322 1.442 . S
C983 C342 1.454 . S
C988 C338 1.485 . S
C999 C302 1.390 . S
C1004 C358 1.469 . S
C1015 C379 1.444 . S
C1020 C404 1.366 . S
C1031 C399 1.463 . S
C1036 C364 1.436 . S
C1047 C384 1.429 . S
C1052 C419 1.468 . S
C1063 C444 1.413 . S
C1068 C439 1.418 . S
C1079 C459 1.424 . S
C1084 C464 1.342 . S
C1095 C424 1.318 . S
C1100 C479 1.422 . S
C1111 C498 1.445 . S
C1116 C522 1.371 . S
C1127 C518 1.459 . S
C1132 C482 1.430 . S
C1143 C538 1.453 . S
C1148 C502 1.361 . S
C1159 C558 1.407 . S
C1164 C562 1.362 . S
C1175 C578 1.403 . S
C1180 C582 1.342 . S
C1191 C598 1.425 . S
C1196 C542 1.327 . S
C1207 C619 1.477 . S
C1212 C644 1.422 . S
C1223 C639 1.456 . S
C1228 C604 1.397 . S
C1239 C624 1.401 . S
C1244 C659 1.457 . S
C1255 C679 1.492 . S
C1260 C684 1.432 . S
C1271 C699 1.473 . S
C1276 C704 1.373 . S
C1287 C664 1.406 . S
C1292 C719 1.470 . S
C1303 C4 1.253 . S
C1308 C418 1.412 . S
C1319 C378 1.436 . S
C1324 C24 1.261 . S
C1335 C44 1.256 . S
C1340 C398 1.408 . S
C1351 C64 1.328 . S
C1356 C698 1.324 . S
C1367 C718 1.390 . S
C1372 C84 1.252 . S
C1383 C104 1.230 . S
C1388 C678 1.388 . S
C1399 C539 1.377 . S
C1404 C122 1.360 . S
C1415 C142 1.369 . S
C1420 C499 1.388 . S
C1431 C162 1.267 . S
C1436 C519 1.438 . S
C1447 C339 1.340 . S
C1452 C182 1.336 . S
C1463 C359 1.390 . S
C1468 C202 1.238 . S
C1479 C319 1.359 . S
C1484 C222 1.228 . S
C1495 C244 1.259 . S
C1500 C658 1.414 . S
C1511 C264 1.238 . S
C1516 C618 1.408 . S
C1527 C638 1.350 . S
C1532 C284 1.341 . S
C1543 C218 1.347 . S
C1548 C304 1.295 1_455 S
C1559 C238 1.407 . S
C1564 C324 1.271 . S
C1575 C198 1.407 . S
C1580 C344 1.269 1_565 S
C1591 C59 1.405 . S
C1596 C362 1.258 1_565 S
C1607 C382 1.347 1_455 S
C1612 C19 1.418 . S
C1623 C402 1.342 . S
C1628 C39 1.373 . S
C1639 C579 1.419 . S
C1644 C422 1.388 . S
C1655 C599 1.429 . S
C1660 C442 1.324 . S
C1671 C462 1.361 . S
C1676 C559 1.368 . S
C1687 C178 1.381 . S
C1692 C484 1.366 1_545 S
C1703 C138 1.434 . S
C1708 C504 1.309 1_655 S
C1719 C158 1.436 . S
C1724 C524 1.300 . S
C1735 C544 1.415 . S
C1740 C458 1.381 1_554 S
C1751 C478 1.370 . S
C1756 C564 1.398 . S
C1767 C584 1.315 . S
C1772 C438 1.393 . S
C1783 C602 1.338 . S
C1788 C299 1.387 . S
C1799 C622 1.279 . S
C1804 C259 1.359 . S
C1815 C642 1.262 . S
C1820 C279 1.368 . S
C1831 C662 1.254 1_655 S
C1836 C99 1.407 . S
C1847 C119 1.407 . S
C1852 C682 1.258 . S
C1863 C79 1.340 . S
C1868 C702 1.334 1_545 S
C1879 C592 1.842 . S
C1884 C12 1.826 . S
C1895 C552 1.816 . S
C1900 C32 1.799 . S
C1911 C52 1.827 . S
C1916 C572 1.824 . S
C1927 C272 1.956 . S
C1932 C72 1.957 . S
C1943 C92 1.976 . S
C1948 C292 1.974 . S
C1959 C112 1.961 . S
C1964 C252 1.958 . S
C1975 C129 1.821 . S
C1980 C469 1.819 . S
C1991 C149 1.840 . S
C1996 C429 1.836 . S
C2007 C169 1.837 . S
C2012 C449 1.833 . S
C2023 C629 1.961 . S
C2028 C189 1.963 . S
C2039 C649 1.988 . S
C2044 C209 1.989 . S
C2055 C609 1.990 . S
C2060 C229 1.991 . S
C2071 C312 2.021 . S
C2076 C512 2.019 . S
C2087 C332 2.020 . S
C2092 C532 2.018 . S
C2103 C352 2.001 . S
C2108 C492 1.997 . S
C2119 C369 2.038 . S
C2124 C709 2.040 . S
C2135 C669 2.033 . S
C2140 C389 2.031 . S
C2151 C409 2.001 . S
C2156 C689 2.005 . S
C2167 C89 1.325 . S
C2172 C9 1.329 . S
C2183 C109 1.383 . S
C2188 C29 1.395 . S
C2199 C69 1.365 . S
C2204 C49 1.350 . S
C2215 C132 1.321 . S
C2220 C212 1.324 . S
C2231 C232 1.424 . S
C2236 C152 1.424 . S
C2247 C172 1.422 . S
C2252 C192 1.426 . S
C2263 C329 1.464 . S
C2268 C249 1.454 . S
C2279 C349 1.473 . S
C2284 C269 1.473 . S
C2295 C309 1.377 . S
C2300 C289 1.380 . S
C2311 C452 1.521 . S
C2316 C372 1.524 . S
C2327 C392 1.510 . S
C2332 C472 1.528 . S
C2343 C412 1.514 . S
C2348 C432 1.529 . S
C2359 C489 1.593 . S
C2364 C569 1.605 . S
C2375 C589 1.565 . S
C2380 C509 1.553 . S
C2391 C529 1.557 . S
C2396 C549 1.585 . S
C2407 C612 1.442 . S
C2412 C692 1.454 . S
C2423 C712 1.450 . S
C2428 C632 1.437 . S
C2439 C652 1.380 . S
C2444 C672 1.390 . S
