# Generated by pormake.
# Topology xfe, (7)-cn, num edge types: 1
# Building blocks:
#     Node 0, Type 0, BuildingBlock: NUHQUE_clean_sbu_2, # of connection points: 7
#     Node 1, Type 0, BuildingBlock: NUHQUE_clean_sbu_2, # of connection points: 7
#     Node 2, Type 0, BuildingBlock: NUHQUE_clean_sbu_2, # of connection points: 7
#     Node 3, Type 0, BuildingBlock: NUHQUE_clean_sbu_2, # of connection points: 7
#     Node 4, Type 0, BuildingBlock: NUHQUE_clean_sbu_2, # of connection points: 7
#     Node 5, Type 0, BuildingBlock: NUHQUE_clean_sbu_2, # of connection points: 7
#     Node 6, Type 0, BuildingBlock: NUHQUE_clean_sbu_2, # of connection points: 7
#     Node 7, Type 0, BuildingBlock: NUHQUE_clean_sbu_2, # of connection points: 7
#     Node 8, Type 0, BuildingBlock: NUHQUE_clean_sbu_2, # of connection points: 7
#     Node 9, Type 0, BuildingBlock: NUHQUE_clean_sbu_2, # of connection points: 7
#     Node 10, Type 0, BuildingBlock: NUHQUE_clean_sbu_2, # of connection points: 7
#     Node 11, Type 0, BuildingBlock: NUHQUE_clean_sbu_2, # of connection points: 7
#     Node 12, Type 0, BuildingBlock: NUHQUE_clean_sbu_2, # of connection points: 7
#     Node 13, Type 0, BuildingBlock: NUHQUE_clean_sbu_2, # of connection points: 7
#     Node 14, Type 0, BuildingBlock: NUHQUE_clean_sbu_2, # of connection points: 7
#     Node 15, Type 0, BuildingBlock: NUHQUE_clean_sbu_2, # of connection points: 7
#     Edge 16, Type (0, 0), BuildingBlock: EZIPEK_clean_linker_0, # of connection points: 2
#     Edge 17, Type (0, 0), BuildingBlock: EZIPEK_clean_linker_0, # of connection points: 2
#     Edge 18, Type (0, 0), BuildingBlock: EZIPEK_clean_linker_0, # of connection points: 2
#     Edge 19, Type (0, 0), BuildingBlock: EZIPEK_clean_linker_0, # of connection points: 2
#     Edge 20, Type (0, 0), BuildingBlock: EZIPEK_clean_linker_0, # of connection points: 2
#     Edge 21, Type (0, 0), BuildingBlock: EZIPEK_clean_linker_0, # of connection points: 2
#     Edge 22, Type (0, 0), BuildingBlock: EZIPEK_clean_linker_0, # of connection points: 2
#     Edge 23, Type (0, 0), BuildingBlock: EZIPEK_clean_linker_0, # of connection points: 2
#     Edge 24, Type (0, 0), BuildingBlock: EZIPEK_clean_linker_0, # of connection points: 2
#     Edge 25, Type (0, 0), BuildingBlock: EZIPEK_clean_linker_0, # of connection points: 2
#     Edge 26, Type (0, 0), BuildingBlock: EZIPEK_clean_linker_0, # of connection points: 2
#     Edge 27, Type (0, 0), BuildingBlock: EZIPEK_clean_linker_0, # of connection points: 2
#     Edge 28, Type (0, 0), BuildingBlock: EZIPEK_clean_linker_0, # of connection points: 2
#     Edge 29, Type (0, 0), BuildingBlock: EZIPEK_clean_linker_0, # of connection points: 2
#     Edge 30, Type (0, 0), BuildingBlock: EZIPEK_clean_linker_0, # of connection points: 2
#     Edge 31, Type (0, 0), BuildingBlock: EZIPEK_clean_linker_0, # of connection points: 2
#     Edge 32, Type (0, 0), BuildingBlock: EZIPEK_clean_linker_0, # of connection points: 2
#     Edge 33, Type (0, 0), BuildingBlock: EZIPEK_clean_linker_0, # of connection points: 2
#     Edge 34, Type (0, 0), BuildingBlock: EZIPEK_clean_linker_0, # of connection points: 2
#     Edge 35, Type (0, 0), BuildingBlock: EZIPEK_clean_linker_0, # of connection points: 2
#     Edge 36, Type (0, 0), BuildingBlock: EZIPEK_clean_linker_0, # of connection points: 2
#     Edge 37, Type (0, 0), BuildingBlock: EZIPEK_clean_linker_0, # of connection points: 2
#     Edge 38, Type (0, 0), BuildingBlock: EZIPEK_clean_linker_0, # of connection points: 2
#     Edge 39, Type (0, 0), BuildingBlock: EZIPEK_clean_linker_0, # of connection points: 2
#     Edge 40, Type (0, 0), BuildingBlock: EZIPEK_clean_linker_0, # of connection points: 2
#     Edge 41, Type (0, 0), BuildingBlock: EZIPEK_clean_linker_0, # of connection points: 2
#     Edge 42, Type (0, 0), BuildingBlock: EZIPEK_clean_linker_0, # of connection points: 2
#     Edge 43, Type (0, 0), BuildingBlock: EZIPEK_clean_linker_0, # of connection points: 2
#     Edge 44, Type (0, 0), BuildingBlock: EZIPEK_clean_linker_0, # of connection points: 2
#     Edge 45, Type (0, 0), BuildingBlock: EZIPEK_clean_linker_0, # of connection points: 2
#     Edge 46, Type (0, 0), BuildingBlock: EZIPEK_clean_linker_0, # of connection points: 2
#     Edge 47, Type (0, 0), BuildingBlock: EZIPEK_clean_linker_0, # of connection points: 2
#     Edge 48, Type (0, 0), BuildingBlock: EZIPEK_clean_linker_0, # of connection points: 2
#     Edge 49, Type (0, 0), BuildingBlock: EZIPEK_clean_linker_0, # of connection points: 2
#     Edge 50, Type (0, 0), BuildingBlock: EZIPEK_clean_linker_0, # of connection points: 2
#     Edge 51, Type (0, 0), BuildingBlock: EZIPEK_clean_linker_0, # of connection points: 2
#     Edge 52, Type (0, 0), BuildingBlock: EZIPEK_clean_linker_0, # of connection points: 2
#     Edge 53, Type (0, 0), BuildingBlock: EZIPEK_clean_linker_0, # of connection points: 2
#     Edge 54, Type (0, 0), BuildingBlock: EZIPEK_clean_linker_0, # of connection points: 2
#     Edge 55, Type (0, 0), BuildingBlock: EZIPEK_clean_linker_0, # of connection points: 2
#     Edge 56, Type (0, 0), BuildingBlock: EZIPEK_clean_linker_0, # of connection points: 2
#     Edge 57, Type (0, 0), BuildingBlock: EZIPEK_clean_linker_0, # of connection points: 2
#     Edge 58, Type (0, 0), BuildingBlock: EZIPEK_clean_linker_0, # of connection points: 2
#     Edge 59, Type (0, 0), BuildingBlock: EZIPEK_clean_linker_0, # of connection points: 2
#     Edge 60, Type (0, 0), BuildingBlock: EZIPEK_clean_linker_0, # of connection points: 2
#     Edge 61, Type (0, 0), BuildingBlock: EZIPEK_clean_linker_0, # of connection points: 2
#     Edge 62, Type (0, 0), BuildingBlock: EZIPEK_clean_linker_0, # of connection points: 2
#     Edge 63, Type (0, 0), BuildingBlock: EZIPEK_clean_linker_0, # of connection points: 2
#     Edge 64, Type (0, 0), BuildingBlock: EZIPEK_clean_linker_0, # of connection points: 2
#     Edge 65, Type (0, 0), BuildingBlock: EZIPEK_clean_linker_0, # of connection points: 2
#     Edge 66, Type (0, 0), BuildingBlock: EZIPEK_clean_linker_0, # of connection points: 2
#     Edge 67, Type (0, 0), BuildingBlock: EZIPEK_clean_linker_0, # of connection points: 2
#     Edge 68, Type (0, 0), BuildingBlock: EZIPEK_clean_linker_0, # of connection points: 2
#     Edge 69, Type (0, 0), BuildingBlock: EZIPEK_clean_linker_0, # of connection points: 2
#     Edge 70, Type (0, 0), BuildingBlock: EZIPEK_clean_linker_0, # of connection points: 2
#     Edge 71, Type (0, 0), BuildingBlock: EZIPEK_clean_linker_0, # of connection points: 2
# Relax obj value: 0.239
# Max RMSD: 0.242
# Mean RMSD: 0.242
data_MOF--net-xfe--node1-NUHQUE_clean_sbu_2--edge1-EZIPEK_clean_linker_0
_symmetry_space_group_name_H-M    P1
_symmetry_Int_Tables_number       1
_symmetry_cell_setting            triclinic
loop_
_symmetry_equiv_pos_as_xyz
'x, y, z'
_cell_length_a     29.748318
_cell_length_b     29.771805
_cell_length_c     41.182227
_cell_angle_alpha  90.095755
_cell_angle_beta   89.997064
_cell_angle_gamma 90.058228
loop_
_atom_site_label
_atom_site_type_symbol
_atom_site_fract_x
_atom_site_fract_y
_atom_site_fract_z
_atom_type_partial_charge
O0 O 0.06359 0.1427 0.05307 0.0
Tb1 Tb 1.00726 0.1228 0.08496 0.0
Eu2 Eu 1.01635 0.09686 0.1722 0.0
C3 C 0.10576 0.1288 0.05412 0.0
O4 O 0.11655 0.09556 0.07354 0.0
C5 C 1.03286 0.19816 0.14095 0.0
O6 O 0.97732 0.09153 0.21884 0.0
C7 C 0.09116 0.05589 0.18597 0.0
C8 C 0.93597 0.07606 0.21948 0.0
O9 O 0.90943 0.08314 0.19454 0.0
C10 C 0.97306 1.03237 0.11635 0.0
C11 C 0.1173 1.01349 0.18769 0.0
C12 C 0.1423 1.00183 0.16018 0.0
C13 C 0.17086 0.96517 0.16082 0.0
C14 C 0.17488 0.93888 0.18842 0.0
C15 C 0.15205 0.95002 0.21685 0.0
C16 C 0.12277 0.98778 0.21668 0.0
O17 O 1.01981 0.18555 0.1116 0.0
O18 O 1.03281 0.17125 0.16654 0.0
O19 O 0.97256 0.13327 0.0389 0.0
O20 O 0.93461 0.1339 0.0824 0.0
C21 C 0.93227 0.13691 0.05083 0.0
O22 O 0.96667 0.0528 0.14437 0.0
O23 O 1.00215 0.04938 0.09506 0.0
O24 O 0.05998 0.06376 0.20772 0.0
O25 O 0.08106 0.0717 0.15693 0.0
H26 H 0.1401 1.02131 0.138 0.0
H27 H 0.19715 0.90999 0.18798 0.0
H28 H 0.10568 0.99756 0.2388 0.0
O29 O 0.24173 0.78668 0.30532 0.0
Tb30 Tb 0.25189 0.73251 0.34134 0.0
Eu31 Eu 0.26485 0.72684 0.42569 0.0
C32 C 0.22025 0.82454 0.31232 0.0
O33 O 0.212 0.83489 0.34271 0.0
C34 C 0.16912 0.7504 0.39317 0.0
O35 O 0.27022 0.69191 0.4738 0.0
C36 C 0.30279 0.80461 0.43474 0.0
C37 C 0.28918 0.65221 0.47573 0.0
O38 O 0.28846 0.62547 0.45038 0.0
C39 C 0.33255 0.68264 0.37364 0.0
C40 C 0.34189 0.83562 0.43444 0.0
C41 C 0.33561 0.8744 0.41616 0.0
C42 C 0.37129 0.90274 0.4097 0.0
C43 C 0.41262 0.89495 0.42509 0.0
C44 C 0.41973 0.86057 0.44803 0.0
C45 C 0.38266 0.83003 0.45229 0.0
O46 O 0.18958 0.75669 0.36498 0.0
O47 O 0.18954 0.73276 0.41863 0.0
O48 O 0.24995 0.69242 0.29721 0.0
O49 O 0.22551 0.66395 0.3415 0.0
C50 C 0.23372 0.65662 0.31087 0.0
O51 O 0.30673 0.67546 0.39892 0.0
O52 O 0.32288 0.71683 0.35412 0.0
O53 O 0.29818 0.77499 0.45801 0.0
O54 O 0.28622 0.79139 0.40656 0.0
H55 H 0.30259 0.88216 0.40657 0.0
H56 H 0.43859 0.91877 0.42003 0.0
H57 H 0.38337 0.80321 0.46968 0.0
O58 O 0.57734 0.94534 0.54517 0.0
Tb59 Tb 0.62566 0.95225 0.58561 0.0
Eu60 Eu 0.63151 0.97153 0.66997 0.0
C61 C 0.53774 0.92538 0.5482 0.0
O62 O 0.52096 0.91985 0.57736 0.0
C63 C 0.60428 0.87408 0.64013 0.0
O64 O 0.66759 0.97935 0.71778 0.0
C65 C 0.55516 1.01169 0.68026 0.0
C66 C 0.70892 0.99473 0.71961 0.0
O67 O 0.73185 0.99783 0.6925 0.0
C68 C 0.67086 0.03741 0.61591 0.0
C69 C 0.52571 0.05187 0.68167 0.0
C70 C 0.48639 0.04962 0.66304 0.0
C71 C 0.45887 0.08711 0.65946 0.0
C72 C 0.46739 0.12489 0.67915 0.0
C73 C 0.50051 0.12492 0.70331 0.0
C74 C 0.53244 0.08936 0.70271 0.0
O75 O 0.59847 0.8928 0.61122 0.0
O76 O 0.62208 0.89603 0.66499 0.0
O77 O 0.66215 0.93295 0.54204 0.0
O78 O 0.69887 0.94144 0.58554 0.0
C79 C 0.70214 0.9332 0.55451 0.0
O80 O 0.68204 1.01087 0.64004 0.0
O81 O 0.63643 1.02494 0.59719 0.0
O82 O 0.58531 1.00545 0.70299 0.0
O83 O 0.56704 0.99561 0.65164 0.0
H84 H 0.47769 1.0185 0.65086 0.0
H85 H 0.44596 0.15408 0.67704 0.0
H86 H 0.56065 0.08984 0.71934 0.0
O87 O 0.42104 0.29625 0.79203 0.0
Tb88 Tb 0.40353 0.34363 0.83145 0.0
Eu89 Eu 0.38107 0.34764 0.91758 0.0
C90 C 0.42575 0.25241 0.79583 0.0
O91 O 0.40837 0.23397 0.82195 0.0
C92 C 0.47624 0.3147 0.88655 0.0
O93 O 0.37592 0.38718 0.96404 0.0
C94 C 0.33362 0.27729 0.93152 0.0
C95 C 0.35071 0.42326 0.96612 0.0
O96 O 0.34448 0.44822 0.94031 0.0
C97 C 0.31731 0.39009 0.86193 0.0
C98 C 0.30632 0.237 0.93965 0.0
C99 C 0.30435 0.20293 0.91629 0.0
C100 C 0.27152 0.16979 0.91847 0.0
C101 C 0.24599 0.16512 0.94653 0.0
C102 C 0.24648 0.19823 0.9706 0.0
C103 C 0.27676 0.23504 0.96699 0.0
O104 O 0.45667 0.30792 0.85821 0.0
O105 O 0.45604 0.33518 0.91102 0.0
O106 O 0.42128 0.38246 0.78874 0.0
O107 O 0.42519 0.41404 0.83479 0.0
C108 C 0.42894 0.42022 0.80344 0.0
O109 O 0.34124 0.3985 0.88814 0.0
O110 O 0.3307 0.3582 0.84106 0.0
O111 O 0.35103 0.30321 0.95399 0.0
O112 O 0.34416 0.28821 0.90138 0.0
H113 H 0.32347 0.20582 0.89395 0.0
H114 H 0.22093 0.13859 0.94747 0.0
H115 H 0.27575 0.26259 0.98419 0.0
O116 O 0.06567 0.93972 0.9192 0.0
Tb117 Tb 1.01562 0.95841 0.88229 0.0
Eu118 Eu 1.01071 0.97584 0.79933 0.0
C119 C 0.10962 0.94145 0.91474 0.0
O120 O 0.12517 0.96507 0.89026 0.0
C121 C 0.04027 0.88354 0.83057 0.0
O122 O 0.97573 0.9906 0.75247 0.0
C123 C 0.08984 1.01097 0.79069 0.0
C124 C 0.93328 1.00214 0.75114 0.0
O125 O 0.9057 0.98998 0.77443 0.0
C126 C 0.96883 0.04429 0.85253 0.0
C127 C 0.11786 0.05205 0.7865 0.0
C128 C 0.14592 0.06325 0.81253 0.0
C129 C 0.17727 0.09764 0.80966 0.0
C130 C 0.18148 0.12148 0.78082 0.0
C131 C 0.15319 0.11285 0.75458 0.0
C132 C 0.12107 0.07747 0.75717 0.0
O133 O 0.055 0.9092 0.85437 0.0
O134 O 1.01397 0.90041 0.80785 0.0
O135 O 0.97426 0.94461 0.9244 0.0
O136 O 0.94994 0.92506 0.87775 0.0
C137 C 0.941 0.92611 0.90886 0.0
O138 O 0.9614 1.02127 0.82574 0.0
O139 O 1.00005 1.03071 0.8736 0.0
O140 O 0.06438 0.99727 0.76661 0.0
O141 O 0.07248 1.0029 0.81963 0.0
H142 H 0.14364 0.04517 0.83534 0.0
H143 H 0.20588 0.14857 0.77935 0.0
H144 H 0.09967 0.06957 0.73667 0.0
O145 O 0.41779 0.77898 0.17893 0.0
Tb146 Tb 0.40576 0.72744 0.14093 0.0
Eu147 Eu 0.38531 0.72354 0.05434 0.0
C148 C 0.42264 0.82232 0.17262 0.0
O149 O 0.411 0.8373 0.14388 0.0
C150 C 0.48193 0.75627 0.08657 0.0
O151 O 0.38534 0.68207 0.00863 0.0
C152 C 0.33216 0.78929 0.03975 0.0
C153 C 0.36254 0.64437 0.00657 0.0
O154 O 0.35743 0.61944 0.03254 0.0
C155 C 0.32231 0.68092 0.10868 0.0
C156 C 0.30196 0.82751 0.03209 0.0
C157 C 0.29766 0.86068 0.05591 0.0
C158 C 0.26552 0.89409 0.05271 0.0
C159 C 0.24154 0.89879 0.02394 0.0
C160 C 0.24288 0.86546 -1e-05 0.0
C161 C 0.27364 0.82918 0.00407 0.0
O162 O 0.46569 0.75467 0.11651 0.0
O163 O 0.45834 0.74485 0.06055 0.0
O164 O 0.41244 0.6854 0.18348 0.0
O165 O 0.43438 0.6594 0.13809 0.0
C166 C 0.42985 0.65071 0.16896 0.0
O167 O 0.34878 0.67071 0.08421 0.0
O168 O 0.33392 0.71445 0.1284 0.0
O169 O 0.3515 0.7647 0.01734 0.0
O170 O 0.34349 0.77937 0.06989 0.0
H171 H 0.31561 0.85784 0.07875 0.0
H172 H 0.21676 0.92546 0.02237 0.0
H173 H 0.27418 0.80196 -0.01339 0.0
O174 O 0.58539 0.1278 0.43055 0.0
Tb175 Tb 0.63648 0.11597 0.39287 0.0
Eu176 Eu 0.63116 0.09558 0.30471 0.0
C177 C 0.54241 0.13522 0.42457 0.0
O178 O 0.52644 0.12502 0.39573 0.0
C179 C 0.60847 0.19054 0.33863 0.0
O180 O 0.66346 0.08781 0.25563 0.0
C181 C 0.55194 0.06159 0.29406 0.0
C182 C 0.70132 0.06576 0.2522 0.0
O183 O 0.72941 0.0636 0.27664 0.0
C184 C 0.68088 1.03033 0.35859 0.0
C185 C 0.52181 1.02194 0.29147 0.0
C186 C 0.48644 1.02125 0.31371 0.0
C187 C 0.45867 0.98394 0.3165 0.0
C188 C 0.46359 0.94836 0.29426 0.0
C189 C 0.49215 0.95199 0.26742 0.0
C190 C 0.52332 0.98834 0.26667 0.0
O191 O 0.60045 0.16958 0.36635 0.0
O192 O 0.62895 0.17083 0.31392 0.0
O193 O 0.67213 0.12549 0.43852 0.0
O194 O 0.70383 0.14644 0.39474 0.0
C195 C 0.70848 0.14264 0.42625 0.0
O196 O 0.68098 0.04972 0.32984 0.0
O197 O 0.65317 0.04439 0.38197 0.0
O198 O 0.5807 0.07002 0.27076 0.0
O199 O 0.56655 0.07311 0.32322 0.0
H200 H 0.48075 0.0501 0.32931 0.0
H201 H 0.44163 0.91933 0.29587 0.0
H202 H 0.54681 0.9913 0.2467 0.0
O203 O 0.23387 0.28511 0.67419 0.0
Tb204 Tb 0.24302 0.33936 0.63827 0.0
Eu205 Eu 0.26299 0.34624 0.55599 0.0
C206 C 0.22693 0.24321 0.66465 0.0
O207 O 0.23645 0.23298 0.63443 0.0
C208 C 0.16536 0.31162 0.58478 0.0
O209 O 0.2625 0.37945 0.50683 0.0
C210 C 0.31494 0.27789 0.54676 0.0
C211 C 0.28432 0.41717 0.50174 0.0
O212 O 0.28852 0.44587 0.5258 0.0
C213 C 0.32745 0.38723 0.60938 0.0
C214 C 0.34466 0.23874 0.5415 0.0
C215 C 0.33665 0.20023 0.56006 0.0
C216 C 0.36896 0.16653 0.56184 0.0
C217 C 0.40418 0.1666 0.53905 0.0
C218 C 0.4109 0.20216 0.51727 0.0
C219 C 0.38214 0.23996 0.5201 0.0
O220 O 0.18262 0.31101 0.61447 0.0
O221 O 0.18879 0.32608 0.55943 0.0
O222 O 0.23174 0.38204 0.6804 0.0
O223 O 0.21616 0.40759 0.63342 0.0
C224 C 0.2174 0.41684 0.66435 0.0
O225 O 0.30066 0.3991 0.58542 0.0
O226 O 0.3154 0.35258 0.62779 0.0
O227 O 0.30793 0.30806 0.52424 0.0
O228 O 0.29314 0.28446 0.57426 0.0
H229 H 0.30716 0.19835 0.57549 0.0
H230 H 0.42796 0.13912 0.53891 0.0
H231 H 0.38872 0.26982 0.50585 0.0
O232 O 0.90188 0.28611 0.66595 0.0
Tb233 Tb 0.89298 0.22848 0.6324 0.0
Eu234 Eu 0.88284 0.2138 0.54642 0.0
C235 C 0.92056 0.32451 0.65652 0.0
O236 O 0.92419 0.33301 0.62536 0.0
C237 C 0.97634 0.24649 0.58239 0.0
O238 O 0.90776 0.17234 0.50407 0.0
C239 C 0.84211 0.2867 0.5269 0.0
C240 C 0.88489 0.15499 0.4796 0.0
O241 O 0.90676 0.13055 0.45827 0.0
C242 C 0.81252 0.17638 0.59902 0.0
C243 C 0.80066 0.31474 0.5286 0.0
C244 C 0.79894 0.34922 0.55192 0.0
C245 C 0.75948 0.37382 0.55678 0.0
C246 C 0.72297 0.36657 0.53585 0.0
C247 C 0.72771 0.34091 0.50782 0.0
C248 C 0.76559 0.31222 0.50512 0.0
O249 O 0.95467 0.25457 0.6097 0.0
O250 O 0.95731 0.22611 0.55731 0.0
O251 O 0.89341 0.19061 0.67746 0.0
O252 O 0.92504 0.1624 0.63616 0.0
C253 C 0.91498 0.15566 0.66659 0.0
O254 O 0.83869 0.16521 0.57452 0.0
O255 O 0.82273 0.21255 0.61675 0.0
O256 O 0.84055 0.24851 0.51103 0.0
O257 O 0.86749 0.28454 0.55315 0.0
H258 H 0.82841 0.35692 0.56636 0.0
H259 H 0.69219 0.38559 0.53907 0.0
H260 H 0.76911 0.29072 0.48405 0.0
O261 O 0.74289 0.78415 0.17385 0.0
Tb262 Tb 0.75075 0.83936 0.13748 0.0
Eu263 Eu 0.76608 0.84345 0.04925 0.0
C264 C 0.71954 0.74657 0.16842 0.0
O265 O 0.70811 0.73592 0.13863 0.0
C266 C 0.67082 0.81697 0.0844 0.0
O267 O 0.76823 0.87863 0.00082 0.0
C268 C 0.81397 0.77276 0.03764 0.0
C269 C 0.79305 0.91461 -0.00376 0.0
O270 O 0.7999 0.94232 0.02053 0.0
C271 C 0.83001 0.89314 0.10211 0.0
C272 C 0.8415 0.73226 0.0309 0.0
C273 C 0.83946 0.69762 0.05363 0.0
C274 C 0.87416 0.66628 0.05534 0.0
C275 C 0.90561 0.66317 0.03034 0.0
C276 C 0.90593 0.69434 0.00489 0.0
C277 C 0.87455 0.73041 0.00589 0.0
O278 O 0.69058 0.81277 0.11296 0.0
O279 O 0.69147 0.83213 0.05813 0.0
O280 O 0.74298 0.87796 0.18208 0.0
O281 O 0.71964 0.90606 0.13757 0.0
C282 C 0.72441 0.91278 0.16867 0.0
O283 O 0.80553 0.89709 0.07565 0.0
O284 O 0.82052 0.86068 0.12349 0.0
O285 O 0.79814 0.79813 0.01434 0.0
O286 O 0.802 0.78465 0.06734 0.0
H287 H 0.81561 0.69954 0.07353 0.0
H288 H 0.93197 0.63809 0.03196 0.0
H289 H 0.87688 0.75725 -0.01177 0.0
O290 O 0.72925 0.27231 0.79756 0.0
Tb291 Tb 0.74057 0.22092 0.83533 0.0
Eu292 Eu 0.75906 0.22734 0.9239 0.0
C293 C 0.72146 0.31498 0.80453 0.0
O294 O 0.72932 0.32957 0.83405 0.0
C295 C 0.66197 0.24669 0.8891 0.0
O296 O 0.76265 0.18767 0.97019 0.0
C297 C 0.79561 0.30392 0.93985 0.0
C298 C 0.77629 0.14574 0.97001 0.0
O299 O 0.77461 0.12392 0.94236 0.0
C300 C 0.82731 0.18299 0.86966 0.0
C301 C 0.83892 0.32906 0.94198 0.0
C302 C 0.85499 0.34896 0.9135 0.0
C303 C 0.89193 0.37734 0.9144 0.0
C304 C 0.91466 0.38566 0.94319 0.0
C305 C 0.90067 0.36617 0.97211 0.0
C306 C 0.86208 0.33773 0.97181 0.0
O307 O 0.68057 0.2485 0.85986 0.0
O308 O 0.68362 0.23297 0.91541 0.0
O309 O 0.73241 0.1809 0.79141 0.0
O310 O 0.72299 0.14927 0.83708 0.0
C311 C 0.72421 0.14288 0.80571 0.0
O312 O 0.80685 0.1798 0.89794 0.0
O313 O 0.81286 0.21208 0.84746 0.0
O314 O 0.78792 0.27186 0.96092 0.0
O315 O 0.77989 0.2945 0.9106 0.0
H316 H 0.83832 0.34359 0.89039 0.0
H317 H 0.94377 0.40773 0.94299 0.0
H318 H 0.84996 0.32343 -0.00567 0.0
O319 O 0.92951 0.79227 0.30586 0.0
Tb320 Tb 0.90689 0.84791 0.33755 0.0
Eu321 Eu 0.88272 0.84056 0.42328 0.0
C322 C 0.91223 0.75157 0.30308 0.0
O323 O 0.87378 0.74261 0.31732 0.0
C324 C 0.98294 0.8193 0.39235 0.0
O325 O 0.8704 0.87455 0.47103 0.0
C326 C 0.83682 0.76781 0.43093 0.0
C327 C 0.86044 0.91729 0.47347 0.0
O328 O 0.87725 0.94603 0.45255 0.0
C329 C 0.82128 0.8894 0.37075 0.0
C330 C 0.79911 0.73646 0.43583 0.0
C331 C 0.80475 0.69439 0.42155 0.0
C332 C 0.76834 0.66578 0.41785 0.0
C333 C 0.72984 0.67419 0.4369 0.0
C334 C 0.72642 0.7114 0.45772 0.0
C335 C 0.75978 0.74541 0.4544 0.0
O336 O 0.96908 0.82858 0.36261 0.0
O337 O 0.95709 0.82328 0.41842 0.0
O338 O 0.90756 0.88565 0.2926 0.0
O339 O 0.93245 0.91696 0.33553 0.0
C340 C 0.92454 0.92247 0.30462 0.0
O341 O 0.84453 0.89587 0.39747 0.0
O342 O 0.83454 0.85787 0.3499 0.0
O343 O 0.85154 0.79196 0.45533 0.0
O344 O 0.84681 0.78349 0.40182 0.0
H345 H 0.83749 0.68473 0.41248 0.0
H346 H 0.70209 0.65083 0.43611 0.0
H347 H 0.75616 0.77728 0.46684 0.0
O348 O 0.56154 0.6275 0.54927 0.0
Tb349 Tb 0.51665 0.6087 0.58989 0.0
Eu350 Eu 0.52272 0.59129 0.67646 0.0
C351 C 0.60443 0.63839 0.5525 0.0
O352 O 0.625 0.62734 0.57957 0.0
C353 C 0.54191 0.68621 0.64217 0.0
O354 O 0.48999 0.58647 0.72536 0.0
C355 C 0.60222 0.55763 0.68592 0.0
C356 C 0.44672 0.57909 0.72783 0.0
O357 O 0.42212 0.58542 0.70182 0.0
C358 C 0.47302 0.52331 0.62453 0.0
C359 C 0.6278 0.51485 0.68636 0.0
C360 C 0.65771 0.50789 0.66065 0.0
C361 C 0.67956 0.4669 0.65688 0.0
C362 C 0.67421 0.43365 0.68071 0.0
C363 C 0.65198 0.44283 0.70979 0.0
C364 C 0.62669 0.48311 0.71222 0.0
O365 O 0.55145 0.66443 0.61505 0.0
O366 O 0.52239 0.6664 0.66713 0.0
O367 O 0.47527 0.60999 0.54697 0.0
O368 O 0.44951 0.63903 0.59085 0.0
C369 C 0.4411 0.62972 0.56035 0.0
O370 O 0.47361 0.54245 0.65345 0.0
O371 O 0.50144 0.53708 0.60148 0.0
O372 O 0.5738 0.56554 0.70958 0.0
O373 O 0.58778 0.57173 0.65736 0.0
H374 H 0.66376 0.53456 0.64327 0.0
H375 H 0.69174 0.40187 0.67826 0.0
H376 H 0.60818 0.49031 0.73425 0.0
O377 O 0.07045 0.45394 0.05314 0.0
Tb378 Tb 0.12858 0.46124 0.08631 0.0
Eu379 Eu 0.12537 0.48005 0.17226 0.0
C380 C 1.03088 0.43853 0.06307 0.0
O381 O 1.02252 0.43567 0.09428 0.0
C382 C 0.10413 0.38295 0.13957 0.0
O383 O 0.15999 0.48905 0.22079 0.0
C384 C 0.04776 0.51987 0.17692 0.0
C385 C 0.19892 0.50982 0.22348 0.0
O386 O 0.22648 0.51021 0.19865 0.0
C387 C 0.17874 0.54297 0.12041 0.0
C388 C 1.0168 0.55785 0.18464 0.0
C389 C 0.98206 0.56676 0.16257 0.0
C390 C 0.94467 0.59257 0.17202 0.0
C391 C 0.94094 0.60579 0.20435 0.0
C392 C 0.97948 0.60823 0.22354 0.0
C393 C 1.01727 0.58212 0.21443 0.0
O394 O 0.10161 0.40099 0.11037 0.0
O395 O 0.11957 0.40479 0.16514 0.0
O396 O 0.16463 0.4518 0.04081 0.0
O397 O 0.19634 0.43248 0.08515 0.0
C398 C 0.20099 0.43554 0.05374 0.0
O399 O 0.17942 0.5216 0.14825 0.0
O400 O 0.14861 0.53176 0.09786 0.0
O401 O 0.06711 0.49849 0.20097 0.0
O402 O 0.07039 0.51823 0.14938 0.0
H403 H 0.98385 0.55316 0.13815 0.0
H404 H 0.91006 0.62119 0.2128 0.0
H405 H 0.0459 0.58073 0.23024 0.0
O406 O 0.56118 0.43947 0.42695 0.0
Tb407 Tb 0.51135 0.45324 0.38849 0.0
Eu408 Eu 0.51166 0.4735 0.30337 0.0
C409 C 0.60348 0.43029 0.41974 0.0
O410 O 0.61813 0.44109 0.39074 0.0
C411 C 0.53936 0.37664 0.33472 0.0
O412 O 0.47547 0.47804 0.25554 0.0
C413 C 0.58821 0.51272 0.29094 0.0
C414 C 0.43588 0.49719 0.25318 0.0
O415 O 0.40751 0.49418 0.27751 0.0
C416 C 0.47076 0.54043 0.35769 0.0
C417 C 0.61855 0.55258 0.29091 0.0
C418 C 0.65088 0.55373 0.31552 0.0
C419 C 0.67985 0.59004 0.31897 0.0
C420 C 0.67919 0.62439 0.29553 0.0
C421 C 0.6531 0.62071 0.26731 0.0
C422 C 0.62103 0.58518 0.26553 0.0
O423 O 0.54347 0.3961 0.36351 0.0
O424 O 0.52184 0.39788 0.3094 0.0
O425 O 0.46819 0.44387 0.43024 0.0
O426 O 0.44336 0.42452 0.38381 0.0
C427 C 0.43394 0.42719 0.41474 0.0
O428 O 0.46174 0.51636 0.33168 0.0
O429 O 0.50168 0.52604 0.37849 0.0
O430 O 0.55585 0.50942 0.26948 0.0
O431 O 0.57795 0.49436 0.31916 0.0
H432 H 0.65385 0.52572 0.3322 0.0
H433 H 0.70226 0.65246 0.29775 0.0
H434 H 0.59987 0.58194 0.24426 0.0
O435 O 0.08634 0.63933 0.91805 0.0
Tb436 Tb 0.14027 0.61928 0.88415 0.0
Eu437 Eu 0.12525 0.59814 0.79735 0.0
C438 C 0.04463 0.62422 0.91929 0.0
O439 O 1.03301 0.5899 0.90104 0.0
C440 C 0.11053 0.69785 0.83173 0.0
O441 O 0.15976 0.59411 0.74873 0.0
C442 C 0.05038 0.55579 0.78648 0.0
C443 C 0.19817 0.5729 0.7452 0.0
O444 O 0.22712 0.57255 0.76921 0.0
C445 C 0.17802 0.53345 0.84916 0.0
C446 C 1.02473 0.51343 0.78198 0.0
C447 C 0.99777 0.50042 0.80806 0.0
C448 C 0.96984 0.46338 0.80541 0.0
C449 C 0.96615 0.43979 0.77654 0.0
C450 C 0.99236 0.45117 0.74979 0.0
C451 C 1.02252 0.48829 0.75241 0.0
O452 O 0.12508 0.68375 0.86035 0.0
O453 O 0.10893 0.672 0.80556 0.0
O454 O 0.17718 0.62051 0.92954 0.0
O455 O 0.21135 0.63812 0.8856 0.0
C456 C 0.21539 0.63234 0.91684 0.0
O457 O 0.17928 0.55513 0.82132 0.0
O458 O 0.14954 0.54717 0.87196 0.0
O459 O 0.07639 0.57036 0.76307 0.0
O460 O 0.06529 0.56573 0.81586 0.0
H461 H 0.99905 0.51838 0.831 0.0
H462 H 0.94384 0.41092 0.77539 0.0
H463 H 0.04301 0.49778 0.73179 0.0
C464 C 0.08849 0.25736 0.1216 0.0
C465 C 0.05341 0.24484 0.14356 0.0
C466 C 0.05305 0.32297 0.16455 0.0
C467 C 0.08865 0.33484 0.143 0.0
N468 N 0.14611 0.31086 0.10567 0.0
N469 N 1.00748 0.2646 0.18966 0.0
C470 C 0.10771 0.30135 0.12269 0.0
C471 C 0.03765 0.27721 0.16639 0.0
N472 N 0.10423 0.22674 0.09972 0.0
N473 N 1.03171 0.356 0.18173 0.0
H474 H 0.99234 0.23306 0.19019 0.0
H475 H 0.99944 0.28447 0.20965 0.0
H476 H 0.04105 0.38971 0.18067 0.0
H477 H 1.00241 0.35085 0.19503 0.0
H478 H 0.12236 0.23545 0.07903 0.0
H479 H 0.09823 0.19248 0.10197 0.0
H480 H 0.16463 0.28702 0.0929 0.0
H481 H 0.1622 0.34196 0.10669 0.0
C482 C 0.06251 0.81789 0.4171 0.0
C483 C 1.03001 0.79973 0.39525 0.0
C484 C 0.08779 0.74682 0.3744 0.0
C485 C 0.1205 0.76532 0.39581 0.0
N486 N 0.14056 0.82175 0.43516 0.0
N487 N 1.00949 0.73963 0.35872 0.0
C488 C 0.10798 0.80119 0.41698 0.0
C489 C 0.04228 0.76247 0.37522 0.0
N490 N 0.05001 0.8514 0.43794 0.0
N491 N 0.10038 0.71407 0.35295 0.0
H492 H 0.97547 0.74746 0.36056 0.0
H493 H 1.01491 0.71003 0.34586 0.0
H494 H 0.13123 0.69765 0.35436 0.0
H495 H 0.08128 0.70445 0.33293 0.0
H496 H 0.06919 0.862 0.45762 0.0
H497 H 1.01922 0.86786 0.43649 0.0
H498 H 0.13573 0.85097 0.44856 0.0
H499 H 0.17397 0.81125 0.43543 0.0
C500 C 0.61414 0.79169 0.65812 0.0
C501 C 0.58688 0.82637 0.64462 0.0
C502 C 0.53004 0.7689 0.62996 0.0
C503 C 0.55621 0.73475 0.64477 0.0
N504 N 0.61862 0.71539 0.67916 0.0
N505 N 0.51243 0.84836 0.6281 0.0
C506 C 0.59671 0.74682 0.66097 0.0
C507 C 0.54296 0.81498 0.63344 0.0
N508 N 0.65761 0.80075 0.66661 0.0
N509 N 0.49263 0.75743 0.61254 0.0
H510 H 0.51937 0.88192 0.63342 0.0
H511 H 0.47888 0.84244 0.62225 0.0
H512 H 0.48146 0.72437 0.61014 0.0
H513 H 0.47424 0.7803 0.59884 0.0
H514 H 0.68048 0.77608 0.67347 0.0
H515 H 0.6722 0.83236 0.66412 0.0
H516 H 0.64519 0.72314 0.69466 0.0
H517 H 0.60775 0.68214 0.6809 0.0
C518 C 0.55949 0.32237 0.87462 0.0
C519 C 0.5241 0.29864 0.8902 0.0
C520 C 0.57883 0.23981 0.90602 0.0
C521 C 0.61465 0.26527 0.89223 0.0
N522 N 0.63942 0.33743 0.87286 0.0
N523 N 0.50125 0.23798 0.9251 0.0
C524 C 0.60496 0.30839 0.8791 0.0
C525 C 0.53427 0.2585 0.90747 0.0
N526 N 0.54988 0.35836 0.85528 0.0
N527 N 0.58669 0.19687 0.91615 0.0
H528 H 0.46819 0.24963 0.92562 0.0
H529 H 0.50727 0.21157 0.94106 0.0
H530 H 0.61828 0.18185 0.915 0.0
H531 H 0.56135 0.17483 0.92325 0.0
H532 H 0.57359 0.37323 0.84006 0.0
H533 H 0.51753 0.37131 0.85258 0.0
H534 H 0.63463 0.37058 0.86558 0.0
H535 H 0.67255 0.33013 0.87916 0.0
C536 C 0.05855 0.75931 0.8533 0.0
C537 C 0.09159 0.74538 0.8301 0.0
C538 C 0.08948 0.82196 0.8061 0.0
C539 C 0.05638 0.83541 0.8291 0.0
N540 N 1.00775 0.81707 0.87381 0.0
N541 N 0.13679 0.76304 0.78324 0.0
C542 C 0.04091 0.80415 0.8527 0.0
C543 C 0.10626 0.77659 0.80603 0.0
N544 N 0.04306 0.72901 0.87556 0.0
N545 N 0.10681 0.85352 0.78548 0.0
H546 H 0.15381 0.73254 0.78448 0.0
H547 H 0.14453 0.7812 0.76243 0.0
H548 H 0.09525 0.88656 0.78473 0.0
H549 H 0.13425 0.84823 0.77033 0.0
H550 H 1.02501 0.73725 0.89633 0.0
H551 H 0.0482 0.69462 0.87323 0.0
H552 H 0.99198 0.79613 0.89045 0.0
H553 H 0.99395 0.8492 0.87392 0.0
C554 C 0.54316 0.81286 0.1 0.0
C555 C 0.52976 0.77367 0.08266 0.0
C556 C 0.60822 0.76642 0.06234 0.0
C557 C 0.62195 0.80304 0.08243 0.0
N558 N 0.6028 0.85722 0.12396 0.0
N559 N 0.55055 0.71128 0.04828 0.0
C560 C 0.58954 0.82476 0.10246 0.0
C561 C 0.56251 0.75026 0.06368 0.0
N562 N 0.51101 0.84101 0.11211 0.0
N563 N 0.63954 0.74573 0.04314 0.0
H564 H 0.51908 0.69641 0.05067 0.0
H565 H 0.5721 0.69159 0.03446 0.0
H566 H 0.67361 0.75387 0.04365 0.0
H567 H 0.6323 0.72132 0.02586 0.0
H568 H 0.51796 0.8718 0.12304 0.0
H569 H 0.47699 0.83638 0.10724 0.0
H570 H 0.58236 0.86875 0.14275 0.0
H571 H 0.63503 0.87092 0.12435 0.0
C572 C 0.53692 0.29393 0.31395 0.0
C573 C 0.5588 0.32926 0.33143 0.0
C574 C 0.61085 0.27289 0.35464 0.0
C575 C 0.59176 0.23831 0.33529 0.0
N576 N 0.5398 0.21727 0.29301 0.0
N577 N 0.62759 0.35201 0.35756 0.0
C578 C 0.55613 0.24945 0.31355 0.0
C579 C 0.59872 0.31849 0.34889 0.0
N580 N 0.49652 0.30176 0.29926 0.0
N581 N 0.64126 0.26269 0.37836 0.0
H582 H 0.6238 0.38445 0.34852 0.0
H583 H 0.65837 0.34637 0.36893 0.0
H584 H 0.6535 0.23036 0.38224 0.0
H585 H 0.65167 0.28605 0.39572 0.0
H586 H 0.47701 0.27668 0.28867 0.0
H587 H 0.48016 0.33259 0.30003 0.0
H588 H 0.51803 0.22421 0.27388 0.0
H589 H 0.55029 0.18388 0.29372 0.0
C590 C 0.10388 0.25471 0.59885 0.0
C591 C 0.11733 0.29311 0.58057 0.0
C592 C 0.03891 0.29654 0.55896 0.0
C593 C 1.02515 0.2616 0.58052 0.0
N594 N 0.04446 0.21266 0.62509 0.0
N595 N 0.09536 0.35248 0.54392 0.0
C596 C 0.05754 0.24276 0.6019 0.0
C597 C 0.08426 0.31424 0.56044 0.0
N598 N 0.136 0.22665 0.61083 0.0
N599 N 1.00793 0.31414 0.53802 0.0
H600 H 0.12612 0.3687 0.54638 0.0
H601 H 0.07343 0.3705 0.52928 0.0
H602 H 0.97423 0.30447 0.53797 0.0
H603 H 1.01532 0.33695 0.51971 0.0
H604 H 0.12903 0.1968 0.623 0.0
H605 H 0.16933 0.22965 0.60362 0.0
H606 H 0.06525 0.20308 0.64424 0.0
H607 H 1.01207 0.19945 0.62654 0.0
C608 C 0.16457 0.19162 0.98424 0.0
C609 C 0.20954 0.1948 -0.00433 0.0
C610 C 0.18367 0.16499 0.0483 0.0
C611 C 0.14137 0.15269 0.03429 0.0
N612 N 0.09531 0.14918 0.98587 0.0
N613 N 0.26219 0.18415 0.03919 0.0
C614 C 0.13254 0.16524 0.00154 0.0
C615 C 0.21903 0.18195 0.02806 0.0
N616 N 0.15304 0.2129 0.9561 0.0
N617 N 0.18986 0.16211 0.08109 0.0
H618 H 0.28827 0.19805 0.0256 0.0
H619 H 0.27246 0.17015 0.06112 0.0
H620 H 0.16523 0.15075 0.09704 0.0
H621 H 0.21783 0.17542 0.09291 0.0
H622 H 0.12013 0.21471 0.94754 0.0
H623 H 0.17593 0.23283 0.94338 0.0
H624 H 0.08972 0.15374 0.96112 0.0
H625 H 0.07267 0.12687 -0.00353 0.0
C626 C 0.13702 0.88674 0.25676 0.0
C627 C 0.16456 0.92292 0.24617 0.0
C628 C 0.22972 0.88733 0.27224 0.0
C629 C 0.20168 0.85454 0.28642 0.0
N630 N 0.12742 0.82346 0.29353 0.0
N631 N 0.23522 0.96214 0.24976 0.0
C632 C 0.15479 0.85456 0.27923 0.0
C633 C 0.21021 0.9247 0.25617 0.0
N634 N 0.09478 0.88196 0.24419 0.0
N635 N 0.27512 0.88141 0.27234 0.0
H636 H 0.22164 0.99039 0.23842 0.0
H637 H 0.26776 0.96666 0.25853 0.0
H638 H 0.29005 0.85287 0.28227 0.0
H639 H 0.29697 0.90159 0.25899 0.0
H640 H 0.07491 0.85357 0.24775 0.0
H641 H 0.08053 0.90558 0.2286 0.0
H642 H 0.0925 0.82426 0.29193 0.0
H643 H 0.13975 0.79781 0.30829 0.0
C644 C 0.49581 0.89729 0.46243 0.0
C645 C 0.46325 0.86328 0.46881 0.0
C646 C 0.49945 0.85718 0.52259 0.0
C647 C 0.51541 0.9024 0.51973 0.0
N648 N 0.52886 0.96507 0.48343 0.0
N649 N 0.45535 0.79578 0.5 0.0
C650 C 0.51396 0.92236 0.48857 0.0
C651 C 0.47072 0.83864 0.4978 0.0
N652 N 0.51356 0.90175 0.43211 0.0
N653 N 0.51592 0.83056 0.54678 0.0
H654 H 0.44816 0.77741 0.47906 0.0
H655 H 0.45314 0.77814 0.52176 0.0
H656 H 0.54035 0.8417 0.56306 0.0
H657 H 0.51005 0.79617 0.54815 0.0
H658 H 0.53985 0.92394 0.42706 0.0
H659 H 0.50429 0.88005 0.41328 0.0
H660 H 0.52564 0.98066 0.46085 0.0
H661 H 0.54025 0.9859 0.50206 0.0
C662 C 0.45903 0.23407 0.73898 0.0
C663 C 0.45393 0.22402 0.77268 0.0
C664 C 0.49063 0.15087 0.76272 0.0
C665 C 0.49663 0.16128 0.72925 0.0
N666 N 0.50354 0.22124 0.69038 0.0
N667 N 0.4875 0.18216 0.81684 0.0
C668 C 0.48707 0.20608 0.71928 0.0
C669 C 0.47686 0.18538 0.78468 0.0
N670 N 0.43508 0.26786 0.72481 0.0
N671 N 0.49521 0.10799 0.77385 0.0
H672 H 0.48268 0.20857 0.83313 0.0
H673 H 0.50701 0.15602 0.82605 0.0
H674 H 0.50352 0.08081 0.7592 0.0
H675 H 0.4867 0.09895 0.79753 0.0
H676 H 0.43533 0.27346 0.69983 0.0
H677 H 0.41098 0.28675 0.73696 0.0
H678 H 0.50035 0.25453 0.68289 0.0
H679 H 0.52436 0.20136 0.67584 0.0
C680 C 0.16161 0.87407 0.98539 0.0
C681 C 0.20651 0.86841 0.97443 0.0
C682 C 0.1811 0.89465 0.92102 0.0
C683 C 0.14132 0.91337 0.93513 0.0
N684 N 0.09774 0.92376 0.98454 0.0
N685 N 0.25892 0.87376 0.93008 0.0
C686 C 0.13217 0.90333 0.96831 0.0
C687 C 0.21623 0.87841 0.9416 0.0
N688 N 0.14778 0.85238 0.01272 0.0
N689 N 0.18449 0.88982 0.88816 0.0
H690 H 0.28502 0.86092 0.94415 0.0
H691 H 0.26856 0.88506 0.90716 0.0
H692 H 0.15782 0.89643 0.87245 0.0
H693 H 0.21132 0.87329 0.8771 0.0
H694 H 0.11472 0.85339 0.02111 0.0
H695 H 0.16842 0.82888 0.0241 0.0
H696 H 0.09261 0.91961 0.00941 0.0
H697 H 0.07797 0.94897 0.9745 0.0
C698 C 0.5037 0.88074 0.23335 0.0
C699 C 0.48083 0.92193 0.23887 0.0
C700 C 0.41789 0.89445 0.20506 0.0
C701 C 0.44205 0.85481 0.1972 0.0
N702 N 0.5124 0.81448 0.19929 0.0
N703 N 0.42084 0.97174 0.22352 0.0
C704 C 0.48625 0.84907 0.21011 0.0
C705 C 0.43951 0.92987 0.22249 0.0
N706 N 0.54141 0.87128 0.25093 0.0
N707 N 0.37329 0.89742 0.19743 0.0
H708 H 0.43608 0.99861 0.23556 0.0
H709 H 0.39287 0.98085 0.20982 0.0
H710 H 0.35581 0.87161 0.18579 0.0
H711 H 0.3526 0.92322 0.20575 0.0
H712 H 0.55687 0.8399 0.25092 0.0
H713 H 0.55571 0.8944 0.26698 0.0
H714 H 0.54636 0.81155 0.20499 0.0
H715 H 0.50126 0.79089 0.18237 0.0
C716 C 0.44387 0.20282 0.4592 0.0
C717 C 0.44955 0.19776 0.49333 0.0
C718 C 0.51795 0.15343 0.48299 0.0
C719 C 0.51303 0.15945 0.4489 0.0
N720 N 0.48292 0.20924 0.40789 0.0
N721 N 0.50402 0.18611 0.53593 0.0
C722 C 0.47966 0.19026 0.43796 0.0
C723 C 0.49095 0.17941 0.50453 0.0
N724 N 0.40404 0.21699 0.44641 0.0
N725 N 0.54575 0.12114 0.49519 0.0
H726 H 0.48547 0.20618 0.55186 0.0
H727 H 0.53525 0.17585 0.5447 0.0
H728 H 0.56312 0.09834 0.48071 0.0
H729 H 0.54714 0.11362 0.5199 0.0
H730 H 0.39793 0.21725 0.42148 0.0
H731 H 0.37582 0.22433 0.46031 0.0
H732 H 0.46132 0.23461 0.40011 0.0
H733 H 0.51062 0.20429 0.39278 0.0
C734 C 0.14727 0.18869 0.72761 0.0
C735 C 0.16 0.14274 0.7256 0.0
C736 C 0.21693 0.16267 0.68479 0.0
C737 C 0.20375 0.20878 0.68602 0.0
N738 N 0.14561 0.26158 0.70158 0.0
N739 N 0.1982 0.08468 0.69623 0.0
C740 C 0.16579 0.2207 0.70544 0.0
C741 C 0.19158 0.1294 0.70183 0.0
N742 N 0.11824 0.202 0.75146 0.0
N743 N 0.25556 0.15075 0.66914 0.0
H744 H 0.18052 0.05989 0.70876 0.0
H745 H 0.21739 0.07232 0.67706 0.0
H746 H 0.27735 0.1741 0.65896 0.0
H747 H 0.26863 0.11834 0.6693 0.0
H748 H 0.1124 0.23558 0.75725 0.0
H749 H 0.10177 0.17912 0.76654 0.0
H750 H 0.11569 0.27038 0.71308 0.0
H751 H 0.1555 0.28479 0.68409 0.0
C752 C 0.85666 0.92834 0.91645 0.0
C753 C 0.89933 0.91137 0.92568 0.0
C754 C 0.86943 0.88931 0.97876 0.0
C755 C 0.8284 0.91146 0.97106 0.0
N756 N 0.78323 0.95456 0.93405 0.0
N757 N 0.94241 0.86299 0.96029 0.0
C758 C 0.82178 0.93108 0.94011 0.0
C759 C 0.90442 0.88793 0.95533 0.0
N760 N 0.84912 0.9408 0.88504 0.0
N761 N 0.87571 0.87161 0.00907 0.0
H762 H 0.96757 0.86012 0.94273 0.0
H763 H 0.94737 0.84178 0.98 0.0
H764 H 0.85058 0.87051 0.02661 0.0
H765 H 0.90635 0.8599 0.01776 0.0
H766 H 0.81767 0.94975 0.87609 0.0
H767 H 0.87343 0.93813 0.86698 0.0
H768 H 0.7786 0.97466 0.91367 0.0
H769 H 0.75683 0.95654 0.95069 0.0
C770 C 0.92453 0.07029 0.67328 0.0
C771 C 0.92378 0.11467 0.68659 0.0
C772 C 0.91744 0.08323 0.74131 0.0
C773 C 0.92206 0.03917 0.72861 0.0
N774 N 0.93643 0.99064 0.68299 0.0
N775 N 0.93814 0.16068 0.73385 0.0
C776 C 0.92767 1.03274 0.69471 0.0
C777 C 0.92556 0.12034 0.72077 0.0
N778 N 0.92088 0.0633 0.64059 0.0
N779 N 0.90553 0.09029 0.77294 0.0
H780 H 0.94934 0.18747 0.71969 0.0
H781 H 0.94355 0.16538 0.75864 0.0
H782 H 0.89886 0.06469 0.78936 0.0
H783 H 0.89715 0.12201 0.78182 0.0
H784 H 0.91561 1.03175 0.63033 0.0
H785 H 0.92048 0.08864 0.62336 0.0
H786 H 0.94732 0.98439 0.65938 0.0
H787 H 0.93514 0.96198 0.69752 0.0
C788 C 0.7753 0.19087 0.44059 0.0
C789 C 0.75064 0.1506 0.44499 0.0
C790 C 0.80725 0.1255 0.48451 0.0
C791 C 0.83585 0.16079 0.47475 0.0
N792 N 0.84851 0.22659 0.44208 0.0
N793 N 0.74736 0.07595 0.46819 0.0
C794 C 0.82009 0.19365 0.45259 0.0
C795 C 0.76715 0.11725 0.46671 0.0
N796 N 0.75566 0.22674 0.42564 0.0
N797 N 0.81924 0.09895 0.5101 0.0
H798 H 0.72014 0.06646 0.45388 0.0
H799 H 0.76146 0.0494 0.481 0.0
H800 H 0.84895 0.10418 0.52306 0.0
H801 H 0.79774 0.07526 0.52042 0.0
H802 H 0.77061 0.25835 0.42445 0.0
H803 H 0.72249 0.22607 0.41745 0.0
H804 H 0.84062 0.24845 0.4232 0.0
H805 H 0.88088 0.23061 0.45143 0.0
C806 C 0.6833 0.95133 0.21336 0.0
C807 C 0.71295 0.9544 0.18659 0.0
C808 C 0.72754 0.03393 0.19915 0.0
C809 C 0.7023 1.02901 0.22805 0.0
N810 N 0.65724 0.98324 0.26401 0.0
N811 N 0.76434 0.99727 0.15365 0.0
C812 C 0.68009 0.98789 0.23538 0.0
C813 C 0.7348 0.99563 0.17901 0.0
N814 N 0.65718 0.91381 0.21711 0.0
N815 N 0.74504 0.07509 0.19147 0.0
H816 H 0.77224 0.96912 0.13986 0.0
H817 H 0.78316 1.02529 0.14722 0.0
H818 H 0.74064 0.10332 0.20619 0.0
H819 H 0.76166 0.08237 0.16992 0.0
H820 H 0.63159 0.91102 0.23421 0.0
H821 H 0.65818 0.88668 0.20105 0.0
H822 H 0.64575 0.95263 0.27295 0.0
H823 H 0.65161 1.00973 0.27998 0.0
C824 C 0.81024 0.15667 0.02536 0.0
C825 C 0.80817 0.13156 -0.00378 0.0
C826 C 0.88507 0.10508 0.00479 0.0
C827 C 0.88961 0.13516 0.03175 0.0
N828 N 0.8569 0.19276 0.06587 0.0
N829 N 0.83361 0.0638 0.97039 0.0
C830 C 0.85197 0.16114 0.042 0.0
C831 C 0.84271 0.1005 -0.01075 0.0
N832 N 0.77153 0.17441 0.03772 0.0
N833 N 0.92067 0.08036 -0.00625 0.0
H834 H 0.80115 0.05606 0.96264 0.0
H835 H 0.85617 0.03747 0.96695 0.0
H836 H 0.95059 0.07589 0.00629 0.0
H837 H 0.92073 0.06485 0.97104 0.0
H838 H 0.76934 0.18966 0.06043 0.0
H839 H 0.74039 0.16875 0.02673 0.0
H840 H 0.83196 0.21571 0.07212 0.0
H841 H 0.88738 0.19941 0.07738 0.0
C842 C 0.76084 0.04993 0.74746 0.0
C843 C 0.72287 1.02134 0.749 0.0
C844 C 0.69264 0.06532 0.79446 0.0
C845 C 0.72619 0.09847 0.78898 0.0
N846 N 0.79615 0.11996 0.76326 0.0
N847 N 0.66865 0.9884 0.78504 0.0
C848 C 0.76166 0.0899 0.76647 0.0
C849 C 0.6936 1.02481 0.77603 0.0
N850 N 0.79746 0.03684 0.72983 0.0
N851 N 0.65816 0.07359 0.81555 0.0
H852 H 0.67245 0.95722 0.77373 0.0
H853 H 0.64923 0.98733 0.80606 0.0
H854 H 0.65576 0.1029 0.82929 0.0
H855 H 0.63007 0.05289 0.81761 0.0
H856 H 0.82698 0.05529 0.72793 0.0
H857 H 0.80032 1.00451 0.72025 0.0
H858 H 0.81815 0.12028 0.74361 0.0
H859 H 0.80255 0.14531 0.78012 0.0
C860 C 0.78254 0.94923 0.48296 0.0
C861 C 0.82253 0.92928 0.49544 0.0
C862 C 0.78344 0.91104 0.5463 0.0
C863 C 0.7444 0.93334 0.53492 0.0
N864 N 0.70857 0.98 0.49453 0.0
N865 N 0.86396 0.90133 0.54138 0.0
C866 C 0.74464 0.95456 0.50387 0.0
C867 C 0.82379 0.91349 0.52791 0.0
N868 N 0.78056 0.9628 0.45124 0.0
N869 N 0.78139 0.88473 0.57342 0.0
H870 H 0.89436 0.9036 0.52882 0.0
H871 H 0.86777 0.89364 0.56589 0.0
H872 H 0.7521 0.88005 0.58687 0.0
H873 H 0.80747 0.86366 0.58063 0.0
H874 H 0.75296 0.97776 0.44034 0.0
H875 H 0.80594 0.95772 0.43438 0.0
H876 H 0.70261 0.99172 0.47123 0.0
H877 H 0.68527 0.99283 0.51093 0.0
C878 C 0.9312 0.99357 0.23 0.0
C879 C 0.9272 0.03807 0.24194 0.0
C880 C 0.92079 1.00784 0.29728 0.0
C881 C 0.93085 0.96407 0.28513 0.0
N882 N 0.96183 0.92044 0.24103 0.0
N883 N 0.92408 0.08836 0.28775 0.0
C884 C 0.94098 0.95854 0.25185 0.0
C885 C 0.92411 0.04548 0.27591 0.0
N886 N 0.9246 0.98381 0.19802 0.0
N887 N 0.90597 1.01367 0.32839 0.0
H888 H 0.92368 0.11649 0.27267 0.0
H889 H 0.92709 0.09586 0.31238 0.0
H890 H 0.90209 0.98758 0.34488 0.0
H891 H 0.89363 0.04415 0.33705 0.0
H892 H 0.92194 0.95075 0.18984 0.0
H893 H 0.91542 1.00751 0.18081 0.0
H894 H 0.97313 0.91682 0.21719 0.0
H895 H 0.97299 0.89527 0.25668 0.0
C896 C 0.69582 0.71379 0.51658 0.0
C897 C 0.68823 0.71039 0.48247 0.0
C898 C 0.62043 0.66506 0.49364 0.0
C899 C 0.62877 0.66734 0.5277 0.0
N900 N 0.66015 0.71522 0.56941 0.0
N901 N 0.63084 0.70206 0.44163 0.0
C902 C 0.6619 0.69856 0.53853 0.0
C903 C 0.64576 0.69317 0.47228 0.0
N904 N 0.73575 0.7289 0.52867 0.0
N905 N 0.59118 0.6343 0.48103 0.0
H906 H 0.64902 0.72268 0.42586 0.0
H907 H 0.59897 0.69274 0.43349 0.0
H908 H 0.57426 0.61064 0.49499 0.0
H909 H 0.58755 0.62921 0.4561 0.0
H910 H 0.74357 0.72731 0.55332 0.0
H911 H 0.76229 0.73998 0.51445 0.0
H912 H 0.68134 0.74084 0.57747 0.0
H913 H 0.6337 0.70805 0.58522 0.0
C914 C 0.63943 0.37471 0.74617 0.0
C915 C 0.66467 0.4137 0.73821 0.0
C916 C 0.72873 0.38408 0.76966 0.0
C917 C 0.70251 0.34691 0.77983 0.0
N918 N 0.63025 0.31009 0.78169 0.0
N919 N 0.7303 0.45942 0.74744 0.0
C920 C 0.65704 0.34309 0.76915 0.0
C921 C 0.70831 0.41953 0.7517 0.0
N922 N 0.59923 0.36728 0.73106 0.0
N923 N 0.77387 0.38453 0.77585 0.0
H924 H 0.7163 0.48627 0.73473 0.0
H925 H 0.76038 0.46745 0.759 0.0
H926 H 0.79008 0.35883 0.78844 0.0
H927 H 0.7959 0.40788 0.76578 0.0
H928 H 0.58146 0.33721 0.73274 0.0
H929 H 0.58484 0.39064 0.71531 0.0
H930 H 0.59572 0.30835 0.7777 0.0
H931 H 0.642 0.28615 0.79807 0.0
C932 C 0.95933 0.4447 0.03044 0.0
C933 C 0.99727 0.419 0.03981 0.0
C934 C 0.96697 0.35401 0.00932 0.0
C935 C 0.92784 0.37911 0.00144 0.0
N936 N 0.88339 0.44571 0.00854 0.0
N937 N 0.03506 0.34738 0.04166 0.0
C938 C 0.92301 0.42359 0.01354 0.0
C939 C 1.00037 0.37304 0.03031 0.0
N940 N 0.95893 0.48984 0.03655 0.0
N941 N 0.97315 0.31275 -0.00459 0.0
H942 H 0.06114 0.36051 0.0557 0.0
H943 H 0.03677 0.31267 0.03878 0.0
H944 H 0.9485 0.29712 0.98132 0.0
H945 H 1.00323 0.29498 -0.00354 0.0
H946 H 0.93491 0.5117 0.02722 0.0
H947 H 0.98503 0.50622 0.04869 0.0
H948 H 0.87578 0.47676 0.01878 0.0
H949 H 0.85637 0.43092 -0.00363 0.0
C950 C 0.95859 0.72383 0.2546 0.0
C951 C 0.93777 0.71509 0.28518 0.0
C952 C 0.95994 0.63515 0.2799 0.0
C953 C 0.97935 0.6441 0.24929 0.0
N954 N 1.01114 0.69865 0.21311 0.0
N955 N 0.93166 0.66449 0.33093 0.0
C956 C 0.98395 0.68927 0.23895 0.0
C957 C 0.94244 0.67132 0.29908 0.0
N958 N 0.95111 0.76363 0.23899 0.0
N959 N 0.95712 0.59167 0.29013 0.0
H960 H 0.92043 0.69002 0.34622 0.0
H961 H 0.93832 0.63469 0.3432 0.0
H962 H 0.97235 0.5654 0.27741 0.0
H963 H 0.93857 0.58156 0.31027 0.0
H964 H 0.9617 0.76993 0.21532 0.0
H965 H 0.93019 0.78868 0.2481 0.0
H966 H 1.01889 0.73121 0.20573 0.0
H967 H 1.02922 0.67362 0.20106 0.0
C968 C 0.62032 0.36566 0.45935 0.0
C969 C 0.6344 0.40523 0.44255 0.0
C970 C 0.71233 0.38971 0.45975 0.0
C971 C 0.6975 0.35426 0.48014 0.0
N972 N 0.63578 0.31229 0.50261 0.0
N973 N 0.693 0.45981 0.43382 0.0
C974 C 0.65095 0.34334 0.48082 0.0
C975 C 0.68027 0.41833 0.44453 0.0
N976 N 0.57866 0.34789 0.45379 0.0
N977 N 0.7573 0.39708 0.45555 0.0
H978 H 0.6702 0.48336 0.42497 0.0
H979 H 0.72515 0.47276 0.43732 0.0
H980 H 0.78203 0.37791 0.46679 0.0
H981 H 0.7701 0.41925 0.43832 0.0
H982 H 0.56836 0.31704 0.46311 0.0
H983 H 0.5559 0.3614 0.4373 0.0
H984 H 0.60178 0.30703 0.50741 0.0
H985 H 0.65753 0.29365 0.51721 0.0
C986 C 0.99693 0.3754 0.72288 0.0
C987 C 0.98567 0.42179 0.72049 0.0
C988 C 0.93021 0.40354 0.67809 0.0
C989 C 0.94147 0.35714 0.68013 0.0
N990 N 0.99238 0.30021 0.70006 0.0
N991 N 0.94929 0.48098 0.69109 0.0
C992 C 0.97679 0.34338 0.70133 0.0
C993 C 0.95506 0.43606 0.69631 0.0
N994 N 1.02587 0.36194 0.74676 0.0
N995 N 0.8939 0.41635 0.66003 0.0
H996 H 0.96653 0.5054 0.7043 0.0
H997 H 0.931 0.49405 0.67176 0.0
H998 H 0.87389 0.3936 0.64731 0.0
H999 H 0.88094 0.4488 0.65994 0.0
H1000 H 1.03085 0.32855 0.75329 0.0
H1001 H 0.04362 0.38482 0.76112 0.0
H1002 H 1.02078 0.28918 0.71246 0.0
H1003 H 0.97913 0.27586 0.68458 0.0
C1004 C 0.9319 0.67487 0.94766 0.0
C1005 C 0.94239 0.68897 0.9797 0.0
C1006 C 1.02011 0.66211 0.97221 0.0
C1007 C 1.01001 0.64835 0.93983 0.0
N1008 N 0.95959 0.65591 0.89406 0.0
N1009 N 0.99984 0.70962 0.01798 0.0
C1010 C 0.9669 0.65908 0.92673 0.0
C1011 C 0.98783 0.68737 -0.00974 0.0
N1012 N 0.8882 0.67444 0.9375 0.0
N1013 N 0.05904 0.64846 -0.01323 0.0
H1014 H 0.97681 0.72861 0.03133 0.0
H1015 H 1.03306 0.7131 0.0256 0.0
H1016 H 0.08234 0.62749 0.97552 0.0
H1017 H 0.06592 0.65388 0.01127 0.0
H1018 H 0.87784 0.65925 0.91596 0.0
H1019 H 0.86179 0.68675 0.95152 0.0
H1020 H 0.93064 0.668 0.88286 0.0
H1021 H 0.98422 0.6459 0.87761 0.0
C1022 C 0.71061 0.64638 0.22613 0.0
C1023 C 0.66636 0.65067 0.23904 0.0
C1024 C 0.65637 0.71835 0.20503 0.0
C1025 C 0.70255 0.71687 0.1955 0.0
N1026 N 0.77531 0.68294 0.20167 0.0
N1027 N 0.59844 0.69413 0.2431 0.0
C1028 C 0.73016 0.682 0.20764 0.0
C1029 C 0.63948 0.68756 0.22901 0.0
N1030 N 0.73338 0.60703 0.23043 0.0
N1031 N 0.6283 0.74874 0.19073 0.0
H1032 H 0.58487 0.6718 0.25997 0.0
H1033 H 0.57919 0.72292 0.23957 0.0
H1034 H 0.63965 0.77336 0.17469 0.0
H1035 H 0.59349 0.74748 0.19313 0.0
H1036 H 0.7642 0.60012 0.21953 0.0
H1037 H 0.7189 0.57933 0.24189 0.0
H1038 H 0.798 0.66117 0.21275 0.0
H1039 H 0.79054 0.70822 0.18801 0.0
C1040 C 0.36354 0.39974 0.48622 0.0
C1041 C 0.32045 0.41557 0.47691 0.0
C1042 C 0.34852 0.42862 0.42148 0.0
C1043 C 0.39183 0.41398 0.43169 0.0
N1044 N 0.43459 0.36883 0.46878 0.0
N1045 N 0.26889 0.43673 0.43465 0.0
C1046 C 0.39729 0.39422 0.46251 0.0
C1047 C 0.31187 0.42711 0.44405 0.0
N1048 N 0.37317 0.39117 0.51797 0.0
N1049 N 0.34274 0.4452 0.39089 0.0
H1050 H 0.24203 0.43718 0.45094 0.0
H1051 H 0.25921 0.44163 0.41064 0.0
H1052 H 0.36791 0.44451 0.37336 0.0
H1053 H 0.3136 0.46113 0.38304 0.0
H1054 H 0.406 0.38695 0.52611 0.0
H1055 H 0.3493 0.39158 0.53637 0.0
H1056 H 0.43849 0.34979 0.48981 0.0
H1057 H 0.45912 0.36257 0.45121 0.0
C1058 C 0.4273 0.52763 0.19636 0.0
C1059 C 0.43255 0.53537 0.23019 0.0
C1060 C 0.45351 0.61307 0.21904 0.0
C1061 C 0.43983 0.60824 0.18646 0.0
N1062 N 0.41319 0.55982 0.14321 0.0
N1063 N 0.44057 0.58968 0.27375 0.0
C1064 C 0.42711 0.56505 0.17458 0.0
C1065 C 0.44275 0.57922 0.24157 0.0
N1066 N 0.42229 0.4847 0.18515 0.0
N1067 N 0.47764 0.64996 0.22846 0.0
H1068 H 0.43047 0.56712 0.29143 0.0
H1069 H 0.4427 0.62269 0.28208 0.0
H1070 H 0.48807 0.67449 0.212 0.0
H1071 H 0.49177 0.65314 0.25154 0.0
H1072 H 0.42318 0.47621 0.16062 0.0
H1073 H 0.4198 0.45709 0.20063 0.0
H1074 H 0.39817 0.53058 0.13452 0.0
H1075 H 0.41432 0.58543 0.12611 0.0
C1076 C 0.29402 0.61035 0.93245 0.0
C1077 C 0.2565 0.63944 0.93611 0.0
C1078 C 0.28825 0.67049 0.98585 0.0
C1079 C 0.32672 0.64271 0.98178 0.0
N1080 N 0.36964 0.59043 0.94981 0.0
N1081 N 0.22247 0.70412 0.96116 0.0
C1082 C 0.33079 0.61407 0.95447 0.0
C1083 C 0.25517 0.67178 0.96121 0.0
N1084 N 0.29334 0.57782 0.90902 0.0
N1085 N 0.2822 0.69402 0.01401 0.0
H1086 H 0.19789 0.70616 0.94315 0.0
H1087 H 0.22216 0.73151 0.9769 0.0
H1088 H 0.30466 0.69274 0.03333 0.0
H1089 H 0.25328 0.71217 0.01935 0.0
H1090 H 0.31761 0.55291 0.9066 0.0
H1091 H 0.26661 0.57398 0.89295 0.0
H1092 H 0.37664 0.57191 0.92897 0.0
H1093 H 0.3964 0.59152 0.96617 0.0
C1094 C 0.17572 0.45877 0.70683 0.0
C1095 C 0.20556 0.46009 0.68013 0.0
C1096 C 0.22703 0.53758 0.6939 0.0
C1097 C 0.19934 0.53511 0.72182 0.0
N1098 N 0.15078 0.49199 0.75719 0.0
N1099 N 0.24944 0.50435 0.64258 0.0
C1100 C 0.17413 0.49555 0.7287 0.0
C1101 C 0.22811 0.50065 0.67183 0.0
N1102 N 0.14719 0.42297 0.71024 0.0
N1103 N 0.25394 0.57433 0.68942 0.0
H1104 H 0.25103 0.47825 0.62579 0.0
H1105 H 0.26282 0.53422 0.63372 0.0
H1106 H 0.25327 0.6022 0.70481 0.0
H1107 H 0.27902 0.57624 0.67187 0.0
H1108 H 0.12098 0.42178 0.72696 0.0
H1109 H 0.14658 0.3961 0.69394 0.0
H1110 H 0.13709 0.46215 0.76585 0.0
H1111 H 0.14736 0.51827 0.77357 0.0
C1112 C 0.36789 0.67092 0.49172 0.0
C1113 C 0.32708 0.64784 0.49861 0.0
C1114 C 0.35878 0.61921 0.54942 0.0
C1115 C 0.40011 0.64075 0.54184 0.0
N1116 N 0.44606 0.68401 0.50513 0.0
N1117 N 0.28468 0.59564 0.5309 0.0
C1118 C 0.40511 0.66589 0.51285 0.0
C1119 C 0.3227 0.62087 0.5267 0.0
N1120 N 0.37095 0.69809 0.46505 0.0
N1121 N 0.3544 0.59663 0.57809 0.0
H1122 H 0.25756 0.59676 0.51485 0.0
H1123 H 0.2808 0.57151 0.54892 0.0
H1124 H 0.38069 0.59345 0.59454 0.0
H1125 H 0.32433 0.58329 0.58665 0.0
H1126 H 0.39777 0.71947 0.46029 0.0
H1127 H 0.34556 0.70117 0.44794 0.0
H1128 H 0.45471 0.69509 0.48201 0.0
H1129 H 0.47256 0.68634 0.52165 0.0
C1130 C 0.17969 0.6064 0.2829 0.0
C1131 C 0.22411 0.61466 0.29324 0.0
C1132 C 0.25126 0.54912 0.2626 0.0
C1133 C 0.20687 0.54237 0.2505 0.0
N1134 N 0.12807 0.56269 0.25172 0.0
N1135 N 0.3023 0.59447 0.29556 0.0
C1136 C 0.17093 0.5698 0.26195 0.0
C1137 C 0.26002 0.58603 0.28389 0.0
N1138 N 0.14641 0.63657 0.29019 0.0
N1139 N 0.28463 0.51985 0.25391 0.0
H1140 H 0.30935 0.62126 0.31108 0.0
H1141 H 0.33061 0.57526 0.29059 0.0
H1142 H 0.27825 0.48983 0.24167 0.0
H1143 H 0.31846 0.5239 0.2594 0.0
H1144 H 0.11432 0.63579 0.28009 0.0
H1145 H 0.15151 0.66453 0.30495 0.0
H1146 H 0.10053 0.56974 0.2665 0.0
H1147 H 0.12052 0.55287 0.22812 0.0
C1148 C 0.2424 0.3945 0.01042 0.0
C1149 C 0.24283 0.42742 0.03522 0.0
C1150 C 0.31818 0.45208 0.01824 0.0
C1151 C 0.31503 0.42314 -0.00893 0.0
N1152 N 0.27298 0.36942 0.95911 0.0
N1153 N 0.27923 0.48926 0.06251 0.0
C1154 C 0.27701 0.39468 -0.01329 0.0
C1155 C 0.28058 0.45625 0.03945 0.0
N1156 N 0.209 0.36286 0.00986 0.0
N1157 N 0.35692 0.47587 0.02336 0.0
H1158 H 0.25141 0.49443 0.07733 0.0
H1159 H 0.30403 0.5135 0.06574 0.0
H1160 H 0.38438 0.47422 0.00764 0.0
H1161 H 0.36326 0.49501 0.04401 0.0
H1162 H 0.20887 0.3351 -0.00553 0.0
H1163 H 0.18319 0.36201 0.02702 0.0
H1164 H 0.24472 0.35046 0.9533 0.0
H1165 H 0.29672 0.36972 0.94055 0.0
C1166 C 0.45893 0.54181 0.78187 0.0
C1167 C 0.43135 0.54834 0.75427 0.0
C1168 C 0.3982 0.47412 0.76127 0.0
C1169 C 0.42947 0.46482 0.78689 0.0
N1170 N 0.49111 0.48969 0.82071 0.0
N1171 N 0.35864 0.53213 0.73187 0.0
C1172 C 0.45958 0.49907 0.79753 0.0
C1173 C 0.39612 0.51792 0.74804 0.0
N1174 N 0.48301 0.5774 0.79358 0.0
N1175 N 0.3699 0.44185 0.74931 0.0
H1176 H 0.35363 0.56581 0.72597 0.0
H1177 H 0.32992 0.51245 0.72891 0.0
H1178 H 0.36353 0.4111 0.76021 0.0
H1179 H 0.35274 0.44567 0.72741 0.0
H1180 H 0.50148 0.57682 0.81502 0.0
H1181 H 0.4803 0.60937 0.78335 0.0
H1182 H 0.51674 0.51163 0.82737 0.0
H1183 H 0.49417 0.45835 0.8317 0.0
C1184 C 0.20459 0.89147 0.09285 0.0
C1185 C 0.24481 0.91223 0.08214 0.0
C1186 C 0.23772 0.96914 0.12429 0.0
C1187 C 0.1946 0.95135 0.13157 0.0
N1188 N 0.13233 0.90302 0.11767 0.0
N1189 N 0.29971 0.97145 0.08588 0.0
C1190 C 0.17645 0.91499 0.11408 0.0
C1191 C 0.26157 0.95142 0.09733 0.0
N1192 N 0.19431 0.84844 0.08395 0.0
N1193 N 0.25596 1.00184 0.14354 0.0
H1194 H 0.31853 0.95784 0.06688 0.0
H1195 H 0.3114 1.00244 0.09407 0.0
H1196 H 0.23854 1.01629 0.16291 0.0
H1197 H 0.28907 1.01282 0.14148 0.0
H1198 H 0.16716 0.83078 0.0936 0.0
H1199 H 0.21556 0.82865 0.0698 0.0
H1200 H 0.1167 0.87933 0.10279 0.0
H1201 H 0.1103 0.91993 0.13316 0.0
C1202 C 0.42736 0.99288 0.3743 0.0
C1203 C 0.42164 0.98258 0.34075 0.0
C1204 C 0.35889 0.93435 0.35329 0.0
C1205 C 0.36762 0.94136 0.38685 0.0
N1206 N 0.38928 0.99679 0.4263 0.0
N1207 N 0.36499 0.96813 0.30019 0.0
C1208 C 0.39245 0.97999 0.39563 0.0
C1209 C 0.3807 0.96274 0.33099 0.0
N1210 N 0.4672 1.00772 0.3868 0.0
N1211 N 0.33571 0.89815 0.34194 0.0
H1212 H 0.38081 0.98971 0.28381 0.0
H1213 H 0.33412 0.95507 0.29285 0.0
H1214 H 0.31817 0.87558 0.35629 0.0
H1215 H 0.33692 0.88936 0.31749 0.0
H1216 H 0.47225 1.01177 0.4117 0.0
H1217 H 0.49664 1.01052 0.37338 0.0
H1218 H 0.40729 1.02505 0.43381 0.0
H1219 H 0.36573 0.98402 0.44272 0.0
C1220 C 0.36692 0.14605 0.62242 0.0
C1221 C 0.37005 0.13326 0.58901 0.0
C1222 C 0.42194 0.07419 0.60329 0.0
C1223 C 0.41983 0.08828 0.63644 0.0
N1224 N 0.36876 0.11642 0.67711 0.0
N1225 N 0.37857 0.06926 0.55359 0.0
C1226 C 0.38284 0.11522 0.64564 0.0
C1227 C 0.38835 0.09044 0.58206 0.0
N1228 N 0.35657 0.18855 0.63242 0.0
N1229 N 0.45778 0.05174 0.59049 0.0
H1230 H 0.3549 0.08243 0.53747 0.0
H1231 H 0.39106 0.03741 0.54804 0.0
H1232 H 0.48736 0.0452 0.60291 0.0
H1233 H 0.46009 0.04458 0.56573 0.0
H1234 H 0.35889 0.19808 0.65677 0.0
H1235 H 0.3508 0.21561 0.6172 0.0
H1236 H 0.34321 0.13766 0.68508 0.0
H1237 H 0.38135 0.09392 0.6943 0.0
C1238 C 0.21834 0.17756 0.87296 0.0
C1239 C 0.25199 0.15156 0.88858 0.0
C1240 C 0.23763 0.08892 0.85173 0.0
C1241 C 0.20151 0.11382 0.83833 0.0
N1242 N 0.1496 0.17589 0.84213 0.0
N1243 N 0.29069 0.08136 0.8962 0.0
C1244 C 0.18959 0.15645 0.85065 0.0
C1245 C 0.26084 0.10676 0.87897 0.0
N1246 N 0.21357 0.22243 0.87935 0.0
N1247 N 0.25023 0.04906 0.83798 0.0
H1248 H 0.30958 0.09442 0.91538 0.0
H1249 H 0.2949 0.04698 0.8927 0.0
H1250 H 0.23347 0.03493 0.8182 0.0
H1251 H 0.27889 1.0314 0.8448 0.0
H1252 H 0.19343 0.24351 0.86537 0.0
H1253 H 0.23213 0.23982 0.89669 0.0
H1254 H 0.13711 0.20479 0.8532 0.0
H1255 H 0.12646 0.16061 0.82659 0.0
C1256 C 0.89487 0.07287 0.8753 0.0
C1257 C 0.9364 0.08272 0.86 0.0
C1258 C 0.90806 0.16057 0.85079 0.0
C1259 C 0.86469 0.14867 0.86301 0.0
N1260 N 0.81503 0.08761 0.87743 0.0
N1261 N 0.98034 0.13536 0.82917 0.0
C1262 C 0.85776 0.10315 0.87264 0.0
C1263 C 0.94228 0.12648 0.84653 0.0
N1264 N 0.89078 0.03455 0.89306 0.0
N1265 N 0.91738 0.20455 0.84438 0.0
H1266 H 1.00638 0.11209 0.82684 0.0
H1267 H 0.98484 0.16449 0.81559 0.0
H1268 H 0.89377 0.23005 0.84738 0.0
H1269 H 0.9494 0.21618 0.83855 0.0
H1270 H 0.86286 1.02775 0.90751 0.0
H1271 H 0.91746 1.01239 0.89617 0.0
H1272 H 0.80765 0.05384 0.88149 0.0
H1273 H 0.78661 0.10726 0.87336 0.0
C1274 C 0.74281 0.13493 0.57751 0.0
C1275 C 0.7701 0.14779 0.60453 0.0
C1276 C 0.72012 0.10071 0.63882 0.0
C1277 C 0.69947 0.08025 0.61105 0.0
N1278 N 0.69609 0.07792 0.55226 0.0
N1279 N 0.78269 0.13874 0.66254 0.0
C1280 C 0.71175 0.09776 0.57992 0.0
C1281 C 0.75815 0.12979 0.63543 0.0
N1282 N 0.74518 0.15951 0.54958 0.0
N1283 N 0.70344 0.09273 0.66918 0.0
H1284 H 0.81178 0.15823 0.66275 0.0
H1285 H 0.81178 0.15823 0.66275 0.0
H1286 H 0.67284 0.07645 0.67307 0.0
H1287 H 0.71808 0.10611 0.69012 0.0
H1288 H 0.72298 0.15517 0.53025 0.0
H1289 H 0.76581 0.1877 0.54729 0.0
H1290 H 0.70788 0.08622 0.52923 0.0
H1291 H 0.67414 0.05081 0.55212 0.0
C1292 C 0.78603 0.95756 0.34358 0.0
C1293 C 0.78111 0.92025 0.36453 0.0
C1294 C 0.7066 0.95178 0.38065 0.0
C1295 C 0.71555 0.99257 0.36348 0.0
N1296 N 0.77387 0.03717 0.3381 0.0
N1297 N 0.73718 0.88439 0.40617 0.0
C1298 C 0.7581 0.99614 0.34756 0.0
C1299 C 0.74149 0.91822 0.38407 0.0
N1300 N 0.81712 0.95632 0.31937 0.0
N1301 N 0.66459 0.94388 0.39263 0.0
H1302 H 0.7605 0.85834 0.40803 0.0
H1303 H 0.71213 0.88384 0.42385 0.0
H1304 H 0.63806 0.96631 0.38979 0.0
H1305 H 0.65501 0.91326 0.4027 0.0
H1306 H 0.81951 0.98125 0.30168 0.0
H1307 H 0.83599 0.92764 0.31476 0.0
H1308 H 0.80596 0.04171 0.32844 0.0
H1309 H 0.7575 0.06712 0.34386 0.0
C1310 C 0.90303 0.99989 0.08954 0.0
C1311 C 0.9421 0.99255 0.10825 0.0
C1312 C 0.912 0.91577 0.11977 0.0
C1313 C 0.86898 0.9272 0.10625 0.0
N1314 N 0.82339 0.98833 0.08475 0.0
N1315 N 0.98425 0.94169 0.14151 0.0
C1316 C 0.86458 0.97154 0.09299 0.0
C1317 C 0.94657 0.94989 0.12357 0.0
N1318 N 0.90305 1.0331 0.06699 0.0
N1319 N 0.92109 0.87212 0.12736 0.0
H1320 H 1.01066 0.96472 0.14307 0.0
H1321 H 0.98822 0.91343 0.15608 0.0
H1322 H 0.89845 0.84604 0.12334 0.0
H1323 H 0.95273 0.86094 0.13449 0.0
H1324 H 0.87683 0.0375 0.05052 0.0
H1325 H 0.9323 0.05066 0.06164 0.0
H1326 H 0.81864 1.02181 0.07815 0.0
H1327 H 0.79327 0.97126 0.08808 0.0
C1328 C 0.752 0.43606 0.63736 0.0
C1329 C 0.7117 0.45899 0.62991 0.0
C1330 C 0.73045 0.44874 0.57325 0.0
C1331 C 0.75564 0.41 0.58168 0.0
N1332 N 0.78801 0.36598 0.62603 0.0
N1333 N 0.66089 0.48447 0.58715 0.0
C1334 C 0.76754 0.40392 0.61487 0.0
C1335 C 0.70084 0.46629 0.59674 0.0
N1336 N 0.77251 0.4422 0.66662 0.0
N1337 N 0.73175 0.46556 0.54249 0.0
H1338 H 0.63494 0.4925 0.60302 0.0
H1339 H 0.65175 0.48656 0.56273 0.0
H1340 H 0.75367 0.4526 0.525 0.0
H1341 H 0.71441 0.4946 0.53588 0.0
H1342 H 0.80237 0.4261 0.67284 0.0
H1343 H 0.76155 0.46681 0.68288 0.0
H1344 H 0.79339 0.36044 0.65074 0.0
H1345 H 0.79473 0.33797 0.61181 0.0
C1346 C 0.95085 0.38291 0.87293 0.0
C1347 C 0.90884 0.39776 0.88471 0.0
C1348 C 0.90559 0.45632 0.84357 0.0
C1349 C 0.94972 0.44414 0.83434 0.0
N1350 N 1.01832 0.40274 0.84398 0.0
N1351 N 0.84734 0.45079 0.88445 0.0
C1352 C 0.97365 0.40956 0.85021 0.0
C1353 C 0.88621 0.43502 0.87086 0.0
N1354 N 0.96823 0.34268 0.88285 0.0
N1355 N 0.88238 0.48764 0.82606 0.0
H1356 H 0.83189 0.43561 0.90434 0.0
H1357 H 0.83184 0.48055 0.87739 0.0
H1358 H 0.89667 0.50525 0.80675 0.0
H1359 H 0.84834 0.49433 0.82941 0.0
H1360 H 0.99672 0.32824 0.87248 0.0
H1361 H 0.95165 0.32155 0.89912 0.0
H1362 H 0.03833 0.38125 0.85771 0.0
H1363 H 0.03651 0.42149 0.82711 0.0
C1364 C 0.89573 0.58206 0.12304 0.0
C1365 C 0.91387 0.61138 0.14695 0.0
C1366 C 0.89947 0.67638 0.11216 0.0
C1367 C 0.88536 0.64672 0.08716 0.0
N1368 N 0.86836 0.5724 0.06769 0.0
N1369 N 0.92879 0.68767 0.16543 0.0
C1370 C 0.88262 0.59975 0.09235 0.0
C1371 C 0.91287 0.65886 0.1423 0.0
N1372 N 0.89118 0.53744 0.13014 0.0
N1373 N 0.90037 0.7219 0.10719 0.0
H1374 H 0.92321 0.68324 0.18999 0.0
H1375 H 0.9432 0.71871 0.16013 0.0
H1376 H 0.90135 0.73669 0.08432 0.0
H1377 H 0.89992 0.74542 0.12595 0.0
H1378 H 0.87755 0.51357 0.11453 0.0
H1379 H 0.89886 0.5246 0.15305 0.0
H1380 H 0.86874 0.53752 0.06851 0.0
H1381 H 0.85693 0.58483 0.04551 0.0
C1382 C 0.70461 0.58222 0.37847 0.0
C1383 C 0.71426 0.59088 0.3452 0.0
C1384 C 0.78008 0.63357 0.36029 0.0
C1385 C 0.7679 0.62799 0.39372 0.0
N1386 N 0.7387 0.57417 0.43167 0.0
N1387 N 0.7759 0.59791 0.30758 0.0
C1388 C 0.73873 0.592 0.40125 0.0
C1389 C 0.75766 0.60659 0.33727 0.0
N1390 N 0.66261 0.57112 0.38909 0.0
N1391 N 0.80823 0.66639 0.34926 0.0
H1392 H 0.75997 0.57642 0.29117 0.0
H1393 H 0.80855 0.60749 0.30142 0.0
H1394 H 0.82598 0.68886 0.36342 0.0
H1395 H 0.81207 0.67283 0.32451 0.0
H1396 H 0.65491 0.56844 0.41373 0.0
H1397 H 0.63448 0.57012 0.37412 0.0
H1398 H 0.71604 0.54949 0.43889 0.0
H1399 H 0.76315 0.58332 0.44868 0.0
C1400 C 0.36115 0.60215 0.37554 0.0
C1401 C 0.36969 0.64788 0.36713 0.0
C1402 C 0.44801 0.62419 0.35336 0.0
C1403 C 0.43971 0.58 0.3653 0.0
N1404 N 0.3919 0.53435 0.39845 0.0
N1405 N 0.42549 0.70307 0.35219 0.0
C1406 C 0.39738 0.57141 0.37962 0.0
C1407 C 0.41438 0.65912 0.35702 0.0
N1408 N 0.31799 0.58674 0.37788 0.0
N1409 N 0.48807 0.63281 0.33845 0.0
H1410 H 0.40262 0.72921 0.35508 0.0
H1411 H 0.4582 0.71397 0.34784 0.0
H1412 H 0.51353 0.6088 0.33687 0.0
H1413 H 0.4949 0.66248 0.32602 0.0
H1414 H 0.31036 0.55292 0.38156 0.0
H1415 H 0.29016 0.60624 0.37177 0.0
H1416 H 0.36327 0.52924 0.41261 0.0
H1417 H 0.41846 0.51267 0.4032 0.0
C1418 C 0.25844 0.57311 0.12907 0.0
C1419 C 0.21445 0.57983 0.11582 0.0
C1420 C 0.23981 0.65664 0.09963 0.0
C1421 C 0.28211 0.65021 0.11521 0.0
N1422 N 0.32312 0.60757 0.15448 0.0
N1423 N 0.16161 0.63308 0.09356 0.0
C1424 C 0.28869 0.61003 0.1328 0.0
C1425 C 0.20471 0.62304 0.1023 0.0
N1426 N 0.27288 0.53089 0.13679 0.0
N1427 N 0.23288 0.69534 0.08267 0.0
H1428 H 0.13505 0.61057 0.09607 0.0
H1429 H 0.15123 0.66495 0.08648 0.0
H1430 H 0.25639 0.7214 0.08237 0.0
H1431 H 0.20509 0.70079 0.06785 0.0
H1432 H 0.30598 0.52402 0.14347 0.0
H1433 H 0.25374 0.50205 0.13294 0.0
H1434 H 0.32685 0.581 0.17073 0.0
H1435 H 0.34385 0.635 0.15902 0.0
C1436 C 0.28532 0.4616 0.83699 0.0
C1437 C 0.2778 0.42206 0.85523 0.0
C1438 C 0.20261 0.45373 0.87057 0.0
C1439 C 0.21253 0.49517 0.8542 0.0
N1440 N 0.27181 0.54107 0.83134 0.0
N1441 N 0.2284 0.37964 0.88932 0.0
C1442 C 0.25614 0.49956 0.83995 0.0
C1443 C 0.23618 0.4182 0.87229 0.0
N1444 N 0.32046 0.4629 0.81597 0.0
N1445 N 0.16098 0.4478 0.88391 0.0
H1446 H 0.25073 0.35261 0.88883 0.0
H1447 H 0.20067 0.37402 0.90409 0.0
H1448 H 0.13527 0.47122 0.88178 0.0
H1449 H 0.15058 0.41904 0.89602 0.0
H1450 H 0.32465 0.48865 0.79915 0.0
H1451 H 0.3415 0.43543 0.81279 0.0
H1452 H 0.30479 0.54689 0.82391 0.0
H1453 H 0.25428 0.5707 0.83588 0.0
C1454 C 0.41044 0.41051 0.60055 0.0
C1455 C 0.3686 0.4165 0.61685 0.0
C1456 C 0.39454 0.49108 0.6351 0.0
C1457 C 0.43714 0.48633 0.61924 0.0
N1458 N 0.48465 0.43958 0.58564 0.0
N1459 N 0.33096 0.45651 0.65974 0.0
C1460 C 0.44485 0.44532 0.6016 0.0
C1461 C 0.36395 0.45456 0.63705 0.0
N1462 N 0.41836 0.36986 0.58624 0.0
N1463 N 0.38145 0.53149 0.64762 0.0
H1464 H 0.30949 0.42971 0.66473 0.0
H1465 H 0.30949 0.42971 0.66473 0.0
H1466 H 0.39865 0.56133 0.64325 0.0
H1467 H 0.35073 0.53583 0.65946 0.0
H1468 H 0.44894 0.36019 0.57624 0.0
H1469 H 0.3943 0.3443 0.58601 0.0
H1470 H 0.49086 0.4138 0.56918 0.0
H1471 H 0.51172 0.46142 0.58813 0.0
loop_
_geom_bond_atom_site_label_1
_geom_bond_atom_site_label_2
_geom_bond_distance
_geom_bond_site_symmetry_2
_ccdc_geom_bond_type
O0 Tb1 2.292 1_455 S
O0 C3 1.255 . S
Tb1 O0 2.292 1_655 S
Tb1 O17 2.326 . S
Tb1 O19 2.500 . S
Tb1 O20 2.473 . S
Tb1 O23 2.324 1_545 S
Eu2 O6 2.292 . S
Eu2 C7 2.852 1_645 S
Eu2 O18 2.324 1_655 S
Eu2 O22 2.326 . S
Eu2 O24 2.500 1_645 S
Eu2 O25 2.473 1_655 S
C3 O0 1.255 . S
C3 O4 1.247 . S
O4 C3 1.247 . S
C5 O17 1.242 1_455 S
C5 O18 1.258 . S
O6 Eu2 2.292 . S
O6 C8 1.255 . S
C7 Eu2 2.852 1_465 S
C7 C11 1.503 . S
C7 O24 1.273 . S
C7 O25 1.257 1_565 S
C8 O6 1.255 . S
C8 O9 1.247 . S
O9 C8 1.247 . S
C10 O22 1.242 1_565 S
C10 O23 1.258 . S
C11 C7 1.503 . S
C11 C12 1.379 . S
C11 C16 1.392 . S
C12 C11 1.379 . S
C12 C13 1.404 . S
C12 H26 0.929 . S
C13 C12 1.404 . S
C13 C14 1.389 . S
C14 C13 1.389 . S
C14 C15 1.399 . S
C14 H27 0.931 . S
C15 C14 1.399 . S
C15 C16 1.390 . S
C16 C11 1.392 . S
C16 C15 1.390 . S
C16 H28 0.929 . S
O17 Tb1 2.326 . S
O17 C5 1.242 1_655 S
O18 Eu2 2.324 1_455 S
O18 C5 1.258 . S
O19 Tb1 2.500 . S
O19 C21 1.273 . S
O20 Tb1 2.473 . S
O20 C21 1.257 . S
C21 O19 1.273 . S
C21 O20 1.257 . S
O22 Eu2 2.326 . S
O22 C10 1.242 1_545 S
O23 Tb1 2.324 1_565 S
O23 C10 1.258 . S
O24 Eu2 2.500 1_465 S
O24 C7 1.273 . S
O25 Eu2 2.473 1_455 S
O25 C7 1.257 1_545 S
H26 C12 0.929 . S
H27 C14 0.931 . S
H28 C16 0.929 . S
O29 Tb30 2.292 . S
O29 C32 1.255 . S
Tb30 O29 2.292 . S
Tb30 O46 2.326 . S
Tb30 O48 2.500 . S
Tb30 O49 2.473 . S
Tb30 O52 2.324 . S
Eu31 O35 2.292 . S
Eu31 C36 2.852 . S
Eu31 O47 2.324 . S
Eu31 O51 2.326 . S
Eu31 O53 2.500 . S
Eu31 O54 2.473 . S
C32 O29 1.255 . S
C32 O33 1.247 . S
O33 C32 1.247 . S
C34 O46 1.242 . S
C34 O47 1.258 . S
O35 Eu31 2.292 . S
O35 C37 1.255 . S
C36 Eu31 2.852 . S
C36 C40 1.503 . S
C36 O53 1.273 . S
C36 O54 1.257 . S
C37 O35 1.255 . S
C37 O38 1.247 . S
O38 C37 1.247 . S
C39 O51 1.242 . S
C39 O52 1.258 . S
C40 C36 1.503 . S
C40 C41 1.379 . S
C40 C45 1.392 . S
C41 C40 1.379 . S
C41 C42 1.404 . S
C41 H55 0.929 . S
C42 C41 1.404 . S
C42 C43 1.389 . S
C43 C42 1.389 . S
C43 C44 1.399 . S
C43 H56 0.931 . S
C44 C43 1.399 . S
C44 C45 1.390 . S
C45 C40 1.392 . S
C45 C44 1.390 . S
C45 H57 0.929 . S
O46 Tb30 2.326 . S
O46 C34 1.242 . S
O47 Eu31 2.324 . S
O47 C34 1.258 . S
O48 Tb30 2.500 . S
O48 C50 1.273 . S
O49 Tb30 2.473 . S
O49 C50 1.257 . S
C50 O48 1.273 . S
C50 O49 1.257 . S
O51 Eu31 2.326 . S
O51 C39 1.242 . S
O52 Tb30 2.324 . S
O52 C39 1.258 . S
O53 Eu31 2.500 . S
O53 C36 1.273 . S
O54 Eu31 2.473 . S
O54 C36 1.257 . S
H55 C41 0.929 . S
H56 C43 0.931 . S
H57 C45 0.929 . S
O58 Tb59 2.292 . S
O58 C61 1.255 . S
Tb59 O58 2.292 . S
Tb59 O75 2.326 . S
Tb59 O77 2.500 . S
Tb59 O78 2.473 . S
Tb59 O81 2.324 1_565 S
Eu60 O64 2.292 . S
Eu60 C65 2.852 1_565 S
Eu60 O76 2.324 . S
Eu60 O80 2.326 . S
Eu60 O82 2.500 1_565 S
Eu60 O83 2.473 . S
C61 O58 1.255 . S
C61 O62 1.247 . S
O62 C61 1.247 . S
C63 O75 1.242 . S
C63 O76 1.258 . S
O64 Eu60 2.292 . S
O64 C66 1.255 . S
C65 Eu60 2.852 1_545 S
C65 C69 1.503 . S
C65 O82 1.273 . S
C65 O83 1.257 1_545 S
C66 O64 1.255 . S
C66 O67 1.247 . S
O67 C66 1.247 . S
C68 O80 1.242 1_545 S
C68 O81 1.258 . S
C69 C65 1.503 . S
C69 C70 1.379 . S
C69 C74 1.392 . S
C70 C69 1.379 . S
C70 C71 1.404 . S
C70 H84 0.929 . S
C71 C70 1.404 . S
C71 C72 1.389 . S
C72 C71 1.389 . S
C72 C73 1.399 . S
C72 H85 0.931 . S
C73 C72 1.399 . S
C73 C74 1.390 . S
C74 C69 1.392 . S
C74 C73 1.390 . S
C74 H86 0.929 . S
O75 Tb59 2.326 . S
O75 C63 1.242 . S
O76 Eu60 2.324 . S
O76 C63 1.258 . S
O77 Tb59 2.500 . S
O77 C79 1.273 . S
O78 Tb59 2.473 . S
O78 C79 1.257 . S
C79 O77 1.273 . S
C79 O78 1.257 . S
O80 Eu60 2.326 . S
O80 C68 1.242 1_565 S
O81 Tb59 2.324 1_545 S
O81 C68 1.258 . S
O82 Eu60 2.500 1_545 S
O82 C65 1.273 . S
O83 Eu60 2.473 . S
O83 C65 1.257 1_565 S
H84 C70 0.929 . S
H85 C72 0.931 . S
H86 C74 0.929 . S
O87 Tb88 2.292 . S
O87 C90 1.255 . S
Tb88 O87 2.292 . S
Tb88 O104 2.326 . S
Tb88 O106 2.500 . S
Tb88 O107 2.473 . S
Tb88 O110 2.324 . S
Eu89 O93 2.292 . S
Eu89 C94 2.852 . S
Eu89 O105 2.324 . S
Eu89 O109 2.326 . S
Eu89 O111 2.500 . S
Eu89 O112 2.473 . S
C90 O87 1.255 . S
C90 O91 1.247 . S
O91 C90 1.247 . S
C92 O104 1.242 . S
C92 O105 1.258 . S
O93 Eu89 2.292 . S
O93 C95 1.255 . S
C94 Eu89 2.852 . S
C94 C98 1.503 . S
C94 O111 1.273 . S
C94 O112 1.257 . S
C95 O93 1.255 . S
C95 O96 1.247 . S
O96 C95 1.247 . S
C97 O109 1.242 . S
C97 O110 1.258 . S
C98 C94 1.503 . S
C98 C99 1.379 . S
C98 C103 1.392 . S
C99 C98 1.379 . S
C99 C100 1.404 . S
C99 H113 0.929 . S
C100 C99 1.404 . S
C100 C101 1.389 . S
C101 C100 1.389 . S
C101 C102 1.399 . S
C101 H114 0.931 . S
C102 C101 1.399 . S
C102 C103 1.390 . S
C103 C98 1.392 . S
C103 C102 1.390 . S
C103 H115 0.929 . S
O104 Tb88 2.326 . S
O104 C92 1.242 . S
O105 Eu89 2.324 . S
O105 C92 1.258 . S
O106 Tb88 2.500 . S
O106 C108 1.273 . S
O107 Tb88 2.473 . S
O107 C108 1.257 . S
C108 O106 1.273 . S
C108 O107 1.257 . S
O109 Eu89 2.326 . S
O109 C97 1.242 . S
O110 Tb88 2.324 . S
O110 C97 1.258 . S
O111 Eu89 2.500 . S
O111 C94 1.273 . S
O112 Eu89 2.473 . S
O112 C94 1.257 . S
H113 C99 0.929 . S
H114 C101 0.931 . S
H115 C103 0.929 . S
O116 Tb117 2.292 1_455 S
O116 C119 1.255 . S
Tb117 O116 2.292 1_655 S
Tb117 O133 2.326 . S
Tb117 O135 2.500 . S
Tb117 O136 2.473 . S
Tb117 O139 2.324 1_565 S
Eu118 O122 2.292 . S
Eu118 C123 2.852 1_665 S
Eu118 O134 2.324 1_655 S
Eu118 O138 2.326 . S
Eu118 O140 2.500 1_665 S
Eu118 O141 2.473 1_655 S
C119 O116 1.255 . S
C119 O120 1.247 . S
O120 C119 1.247 . S
C121 O133 1.242 1_455 S
C121 O134 1.258 . S
O122 Eu118 2.292 . S
O122 C124 1.255 . S
C123 Eu118 2.852 1_445 S
C123 C127 1.503 . S
C123 O140 1.273 . S
C123 O141 1.257 1_545 S
C124 O122 1.255 . S
C124 O125 1.247 . S
O125 C124 1.247 . S
C126 O138 1.242 1_545 S
C126 O139 1.258 . S
C127 C123 1.503 . S
C127 C128 1.379 . S
C127 C132 1.392 . S
C128 C127 1.379 . S
C128 C129 1.404 . S
C128 H142 0.929 . S
C129 C128 1.404 . S
C129 C130 1.389 . S
C130 C129 1.389 . S
C130 C131 1.399 . S
C130 H143 0.931 . S
C131 C130 1.399 . S
C131 C132 1.390 . S
C132 C127 1.392 . S
C132 C131 1.390 . S
C132 H144 0.929 . S
O133 Tb117 2.326 . S
O133 C121 1.242 1_655 S
O134 Eu118 2.324 1_455 S
O134 C121 1.258 . S
O135 Tb117 2.500 . S
O135 C137 1.273 . S
O136 Tb117 2.473 . S
O136 C137 1.257 . S
C137 O135 1.273 . S
C137 O136 1.257 . S
O138 Eu118 2.326 . S
O138 C126 1.242 1_565 S
O139 Tb117 2.324 1_545 S
O139 C126 1.258 . S
O140 Eu118 2.500 1_445 S
O140 C123 1.273 . S
O141 Eu118 2.473 1_455 S
O141 C123 1.257 1_565 S
H142 C128 0.929 . S
H143 C130 0.931 . S
H144 C132 0.929 . S
O145 Tb146 2.292 . S
O145 C148 1.255 . S
Tb146 O145 2.292 . S
Tb146 O162 2.326 . S
Tb146 O164 2.500 . S
Tb146 O165 2.473 . S
Tb146 O168 2.324 . S
Eu147 O151 2.292 . S
Eu147 C152 2.852 . S
Eu147 O163 2.324 . S
Eu147 O167 2.326 . S
Eu147 O169 2.500 . S
Eu147 O170 2.473 . S
C148 O145 1.255 . S
C148 O149 1.247 . S
O149 C148 1.247 . S
C150 O162 1.242 . S
C150 O163 1.258 . S
O151 Eu147 2.292 . S
O151 C153 1.255 . S
C152 Eu147 2.852 . S
C152 C156 1.503 . S
C152 O169 1.273 . S
C152 O170 1.257 . S
C153 O151 1.255 . S
C153 O154 1.247 . S
O154 C153 1.247 . S
C155 O167 1.242 . S
C155 O168 1.258 . S
C156 C152 1.503 . S
C156 C157 1.379 . S
C156 C161 1.392 . S
C157 C156 1.379 . S
C157 C158 1.404 . S
C157 H171 0.929 . S
C158 C157 1.404 . S
C158 C159 1.389 . S
C159 C158 1.389 . S
C159 C160 1.399 . S
C159 H172 0.931 . S
C160 C159 1.399 . S
C160 C161 1.390 . S
C161 C156 1.392 . S
C161 C160 1.390 . S
C161 H173 0.929 . S
O162 Tb146 2.326 . S
O162 C150 1.242 . S
O163 Eu147 2.324 . S
O163 C150 1.258 . S
O164 Tb146 2.500 . S
O164 C166 1.273 . S
O165 Tb146 2.473 . S
O165 C166 1.257 . S
C166 O164 1.273 . S
C166 O165 1.257 . S
O167 Eu147 2.326 . S
O167 C155 1.242 . S
O168 Tb146 2.324 . S
O168 C155 1.258 . S
O169 Eu147 2.500 . S
O169 C152 1.273 . S
O170 Eu147 2.473 . S
O170 C152 1.257 . S
H171 C157 0.929 . S
H172 C159 0.931 . S
H173 C161 0.929 . S
O174 Tb175 2.292 . S
O174 C177 1.255 . S
Tb175 O174 2.292 . S
Tb175 O191 2.326 . S
Tb175 O193 2.500 . S
Tb175 O194 2.473 . S
Tb175 O197 2.324 1_545 S
Eu176 O180 2.292 . S
Eu176 C181 2.852 1_545 S
Eu176 O192 2.324 . S
Eu176 O196 2.326 . S
Eu176 O198 2.500 1_545 S
Eu176 O199 2.473 . S
C177 O174 1.255 . S
C177 O178 1.247 . S
O178 C177 1.247 . S
C179 O191 1.242 . S
C179 O192 1.258 . S
O180 Eu176 2.292 . S
O180 C182 1.255 . S
C181 Eu176 2.852 1_565 S
C181 C185 1.503 . S
C181 O198 1.273 . S
C181 O199 1.257 1_565 S
C182 O180 1.255 . S
C182 O183 1.247 . S
O183 C182 1.247 . S
C184 O196 1.242 1_565 S
C184 O197 1.258 . S
C185 C181 1.503 . S
C185 C186 1.379 . S
C185 C190 1.392 . S
C186 C185 1.379 . S
C186 C187 1.404 . S
C186 H200 0.929 . S
C187 C186 1.404 . S
C187 C188 1.389 . S
C188 C187 1.389 . S
C188 C189 1.399 . S
C188 H201 0.931 . S
C189 C188 1.399 . S
C189 C190 1.390 . S
C190 C185 1.392 . S
C190 C189 1.390 . S
C190 H202 0.929 . S
O191 Tb175 2.326 . S
O191 C179 1.242 . S
O192 Eu176 2.324 . S
O192 C179 1.258 . S
O193 Tb175 2.500 . S
O193 C195 1.273 . S
O194 Tb175 2.473 . S
O194 C195 1.257 . S
C195 O193 1.273 . S
C195 O194 1.257 . S
O196 Eu176 2.326 . S
O196 C184 1.242 1_545 S
O197 Tb175 2.324 1_565 S
O197 C184 1.258 . S
O198 Eu176 2.500 1_565 S
O198 C181 1.273 . S
O199 Eu176 2.473 . S
O199 C181 1.257 1_545 S
H200 C186 0.929 . S
H201 C188 0.931 . S
H202 C190 0.929 . S
O203 Tb204 2.292 . S
O203 C206 1.255 . S
Tb204 O203 2.292 . S
Tb204 O220 2.326 . S
Tb204 O222 2.500 . S
Tb204 O223 2.473 . S
Tb204 O226 2.324 . S
Eu205 O209 2.292 . S
Eu205 C210 2.852 . S
Eu205 O221 2.324 . S
Eu205 O225 2.326 . S
Eu205 O227 2.500 . S
Eu205 O228 2.473 . S
C206 O203 1.255 . S
C206 O207 1.247 . S
O207 C206 1.247 . S
C208 O220 1.242 . S
C208 O221 1.258 . S
O209 Eu205 2.292 . S
O209 C211 1.255 . S
C210 Eu205 2.852 . S
C210 C214 1.503 . S
C210 O227 1.273 . S
C210 O228 1.257 . S
C211 O209 1.255 . S
C211 O212 1.247 . S
O212 C211 1.247 . S
C213 O225 1.242 . S
C213 O226 1.258 . S
C214 C210 1.503 . S
C214 C215 1.379 . S
C214 C219 1.392 . S
C215 C214 1.379 . S
C215 C216 1.404 . S
C215 H229 0.929 . S
C216 C215 1.404 . S
C216 C217 1.389 . S
C217 C216 1.389 . S
C217 C218 1.399 . S
C217 H230 0.931 . S
C218 C217 1.399 . S
C218 C219 1.390 . S
C219 C214 1.392 . S
C219 C218 1.390 . S
C219 H231 0.929 . S
O220 Tb204 2.326 . S
O220 C208 1.242 . S
O221 Eu205 2.324 . S
O221 C208 1.258 . S
O222 Tb204 2.500 . S
O222 C224 1.273 . S
O223 Tb204 2.473 . S
O223 C224 1.257 . S
C224 O222 1.273 . S
C224 O223 1.257 . S
O225 Eu205 2.326 . S
O225 C213 1.242 . S
O226 Tb204 2.324 . S
O226 C213 1.258 . S
O227 Eu205 2.500 . S
O227 C210 1.273 . S
O228 Eu205 2.473 . S
O228 C210 1.257 . S
H229 C215 0.929 . S
H230 C217 0.931 . S
H231 C219 0.929 . S
O232 Tb233 2.292 . S
O232 C235 1.255 . S
Tb233 O232 2.292 . S
Tb233 O249 2.326 . S
Tb233 O251 2.500 . S
Tb233 O252 2.473 . S
Tb233 O255 2.324 . S
Eu234 O238 2.292 . S
Eu234 C239 2.852 . S
Eu234 O250 2.324 . S
Eu234 O254 2.326 . S
Eu234 O256 2.500 . S
Eu234 O257 2.473 . S
C235 O232 1.255 . S
C235 O236 1.247 . S
O236 C235 1.247 . S
C237 O249 1.242 . S
C237 O250 1.258 . S
O238 Eu234 2.292 . S
O238 C240 1.255 . S
C239 Eu234 2.852 . S
C239 C243 1.503 . S
C239 O256 1.273 . S
C239 O257 1.257 . S
C240 O238 1.255 . S
C240 O241 1.247 . S
O241 C240 1.247 . S
C242 O254 1.242 . S
C242 O255 1.258 . S
C243 C239 1.503 . S
C243 C244 1.379 . S
C243 C248 1.392 . S
C244 C243 1.379 . S
C244 C245 1.404 . S
C244 H258 0.929 . S
C245 C244 1.404 . S
C245 C246 1.389 . S
C246 C245 1.389 . S
C246 C247 1.399 . S
C246 H259 0.931 . S
C247 C246 1.399 . S
C247 C248 1.390 . S
C248 C243 1.392 . S
C248 C247 1.390 . S
C248 H260 0.929 . S
O249 Tb233 2.326 . S
O249 C237 1.242 . S
O250 Eu234 2.324 . S
O250 C237 1.258 . S
O251 Tb233 2.500 . S
O251 C253 1.273 . S
O252 Tb233 2.473 . S
O252 C253 1.257 . S
C253 O251 1.273 . S
C253 O252 1.257 . S
O254 Eu234 2.326 . S
O254 C242 1.242 . S
O255 Tb233 2.324 . S
O255 C242 1.258 . S
O256 Eu234 2.500 . S
O256 C239 1.273 . S
O257 Eu234 2.473 . S
O257 C239 1.257 . S
H258 C244 0.929 . S
H259 C246 0.931 . S
H260 C248 0.929 . S
O261 Tb262 2.292 . S
O261 C264 1.255 . S
Tb262 O261 2.292 . S
Tb262 O278 2.326 . S
Tb262 O280 2.500 . S
Tb262 O281 2.473 . S
Tb262 O284 2.324 . S
Eu263 O267 2.292 . S
Eu263 C268 2.852 . S
Eu263 O279 2.324 . S
Eu263 O283 2.326 . S
Eu263 O285 2.500 . S
Eu263 O286 2.473 . S
C264 O261 1.255 . S
C264 O265 1.247 . S
O265 C264 1.247 . S
C266 O278 1.242 . S
C266 O279 1.258 . S
O267 Eu263 2.292 . S
O267 C269 1.255 . S
C268 Eu263 2.852 . S
C268 C272 1.503 . S
C268 O285 1.273 . S
C268 O286 1.257 . S
C269 O267 1.255 . S
C269 O270 1.247 . S
O270 C269 1.247 . S
C271 O283 1.242 . S
C271 O284 1.258 . S
C272 C268 1.503 . S
C272 C273 1.379 . S
C272 C277 1.392 . S
C273 C272 1.379 . S
C273 C274 1.404 . S
C273 H287 0.929 . S
C274 C273 1.404 . S
C274 C275 1.389 . S
C275 C274 1.389 . S
C275 C276 1.399 . S
C275 H288 0.931 . S
C276 C275 1.399 . S
C276 C277 1.390 . S
C277 C272 1.392 . S
C277 C276 1.390 . S
C277 H289 0.929 . S
O278 Tb262 2.326 . S
O278 C266 1.242 . S
O279 Eu263 2.324 . S
O279 C266 1.258 . S
O280 Tb262 2.500 . S
O280 C282 1.273 . S
O281 Tb262 2.473 . S
O281 C282 1.257 . S
C282 O280 1.273 . S
C282 O281 1.257 . S
O283 Eu263 2.326 . S
O283 C271 1.242 . S
O284 Tb262 2.324 . S
O284 C271 1.258 . S
O285 Eu263 2.500 . S
O285 C268 1.273 . S
O286 Eu263 2.473 . S
O286 C268 1.257 . S
H287 C273 0.929 . S
H288 C275 0.931 . S
H289 C277 0.929 . S
O290 Tb291 2.292 . S
O290 C293 1.255 . S
Tb291 O290 2.292 . S
Tb291 O307 2.326 . S
Tb291 O309 2.500 . S
Tb291 O310 2.473 . S
Tb291 O313 2.324 . S
Eu292 O296 2.292 . S
Eu292 C297 2.852 . S
Eu292 O308 2.324 . S
Eu292 O312 2.326 . S
Eu292 O314 2.500 . S
Eu292 O315 2.473 . S
C293 O290 1.255 . S
C293 O294 1.247 . S
O294 C293 1.247 . S
C295 O307 1.242 . S
C295 O308 1.258 . S
O296 Eu292 2.292 . S
O296 C298 1.255 . S
C297 Eu292 2.852 . S
C297 C301 1.503 . S
C297 O314 1.273 . S
C297 O315 1.257 . S
C298 O296 1.255 . S
C298 O299 1.247 . S
O299 C298 1.247 . S
C300 O312 1.242 . S
C300 O313 1.258 . S
C301 C297 1.503 . S
C301 C302 1.379 . S
C301 C306 1.392 . S
C302 C301 1.379 . S
C302 C303 1.404 . S
C302 H316 0.929 . S
C303 C302 1.404 . S
C303 C304 1.389 . S
C304 C303 1.389 . S
C304 C305 1.399 . S
C304 H317 0.931 . S
C305 C304 1.399 . S
C305 C306 1.390 . S
C306 C301 1.392 . S
C306 C305 1.390 . S
C306 H318 0.929 . S
O307 Tb291 2.326 . S
O307 C295 1.242 . S
O308 Eu292 2.324 . S
O308 C295 1.258 . S
O309 Tb291 2.500 . S
O309 C311 1.273 . S
O310 Tb291 2.473 . S
O310 C311 1.257 . S
C311 O309 1.273 . S
C311 O310 1.257 . S
O312 Eu292 2.326 . S
O312 C300 1.242 . S
O313 Tb291 2.324 . S
O313 C300 1.258 . S
O314 Eu292 2.500 . S
O314 C297 1.273 . S
O315 Eu292 2.473 . S
O315 C297 1.257 . S
H316 C302 0.929 . S
H317 C304 0.931 . S
H318 C306 0.929 . S
O319 Tb320 2.292 . S
O319 C322 1.255 . S
Tb320 O319 2.292 . S
Tb320 O336 2.326 . S
Tb320 O338 2.500 . S
Tb320 O339 2.473 . S
Tb320 O342 2.324 . S
Eu321 O325 2.292 . S
Eu321 C326 2.852 . S
Eu321 O337 2.324 . S
Eu321 O341 2.326 . S
Eu321 O343 2.500 . S
Eu321 O344 2.473 . S
C322 O319 1.255 . S
C322 O323 1.247 . S
O323 C322 1.247 . S
C324 O336 1.242 . S
C324 O337 1.258 . S
O325 Eu321 2.292 . S
O325 C327 1.255 . S
C326 Eu321 2.852 . S
C326 C330 1.503 . S
C326 O343 1.273 . S
C326 O344 1.257 . S
C327 O325 1.255 . S
C327 O328 1.247 . S
O328 C327 1.247 . S
C329 O341 1.242 . S
C329 O342 1.258 . S
C330 C326 1.503 . S
C330 C331 1.379 . S
C330 C335 1.392 . S
C331 C330 1.379 . S
C331 C332 1.404 . S
C331 H345 0.929 . S
C332 C331 1.404 . S
C332 C333 1.389 . S
C333 C332 1.389 . S
C333 C334 1.399 . S
C333 H346 0.931 . S
C334 C333 1.399 . S
C334 C335 1.390 . S
C335 C330 1.392 . S
C335 C334 1.390 . S
C335 H347 0.929 . S
O336 Tb320 2.326 . S
O336 C324 1.242 . S
O337 Eu321 2.324 . S
O337 C324 1.258 . S
O338 Tb320 2.500 . S
O338 C340 1.273 . S
O339 Tb320 2.473 . S
O339 C340 1.257 . S
C340 O338 1.273 . S
C340 O339 1.257 . S
O341 Eu321 2.326 . S
O341 C329 1.242 . S
O342 Tb320 2.324 . S
O342 C329 1.258 . S
O343 Eu321 2.500 . S
O343 C326 1.273 . S
O344 Eu321 2.473 . S
O344 C326 1.257 . S
H345 C331 0.929 . S
H346 C333 0.931 . S
H347 C335 0.929 . S
O348 Tb349 2.292 . S
O348 C351 1.255 . S
Tb349 O348 2.292 . S
Tb349 O365 2.326 . S
Tb349 O367 2.500 . S
Tb349 O368 2.473 . S
Tb349 O371 2.324 . S
Eu350 O354 2.292 . S
Eu350 C355 2.852 . S
Eu350 O366 2.324 . S
Eu350 O370 2.326 . S
Eu350 O372 2.500 . S
Eu350 O373 2.473 . S
C351 O348 1.255 . S
C351 O352 1.247 . S
O352 C351 1.247 . S
C353 O365 1.242 . S
C353 O366 1.258 . S
O354 Eu350 2.292 . S
O354 C356 1.255 . S
C355 Eu350 2.852 . S
C355 C359 1.503 . S
C355 O372 1.273 . S
C355 O373 1.257 . S
C356 O354 1.255 . S
C356 O357 1.247 . S
O357 C356 1.247 . S
C358 O370 1.242 . S
C358 O371 1.258 . S
C359 C355 1.503 . S
C359 C360 1.379 . S
C359 C364 1.392 . S
C360 C359 1.379 . S
C360 C361 1.404 . S
C360 H374 0.929 . S
C361 C360 1.404 . S
C361 C362 1.389 . S
C362 C361 1.389 . S
C362 C363 1.399 . S
C362 H375 0.931 . S
C363 C362 1.399 . S
C363 C364 1.390 . S
C364 C359 1.392 . S
C364 C363 1.390 . S
C364 H376 0.929 . S
O365 Tb349 2.326 . S
O365 C353 1.242 . S
O366 Eu350 2.324 . S
O366 C353 1.258 . S
O367 Tb349 2.500 . S
O367 C369 1.273 . S
O368 Tb349 2.473 . S
O368 C369 1.257 . S
C369 O367 1.273 . S
C369 O368 1.257 . S
O370 Eu350 2.326 . S
O370 C358 1.242 . S
O371 Tb349 2.324 . S
O371 C358 1.258 . S
O372 Eu350 2.500 . S
O372 C355 1.273 . S
O373 Eu350 2.473 . S
O373 C355 1.257 . S
H374 C360 0.929 . S
H375 C362 0.931 . S
H376 C364 0.929 . S
O377 Tb378 2.292 . S
O377 C380 1.255 . S
Tb378 O377 2.292 . S
Tb378 O394 2.326 . S
Tb378 O396 2.500 . S
Tb378 O397 2.473 . S
Tb378 O400 2.324 . S
Eu379 O383 2.292 . S
Eu379 C384 2.852 . S
Eu379 O395 2.324 . S
Eu379 O399 2.326 . S
Eu379 O401 2.500 . S
Eu379 O402 2.473 . S
C380 O377 1.255 . S
C380 O381 1.247 1_455 S
O381 C380 1.247 1_655 S
C382 O394 1.242 . S
C382 O395 1.258 . S
O383 Eu379 2.292 . S
O383 C385 1.255 . S
C384 Eu379 2.852 . S
C384 C388 1.503 1_455 S
C384 O401 1.273 . S
C384 O402 1.257 . S
C385 O383 1.255 . S
C385 O386 1.247 . S
O386 C385 1.247 . S
C387 O399 1.242 . S
C387 O400 1.258 . S
C388 C384 1.503 1_655 S
C388 C389 1.379 . S
C388 C393 1.392 . S
C389 C388 1.379 . S
C389 C390 1.404 . S
C389 H403 0.929 . S
C390 C389 1.404 . S
C390 C391 1.389 . S
C391 C390 1.389 . S
C391 C392 1.399 . S
C391 H404 0.931 . S
C392 C391 1.399 . S
C392 C393 1.404 . S
C393 C388 1.392 . S
C393 C392 1.404 . S
C393 H405 0.914 1_655 S
O394 Tb378 2.326 . S
O394 C382 1.242 . S
O395 Eu379 2.324 . S
O395 C382 1.258 . S
O396 Tb378 2.500 . S
O396 C398 1.273 . S
O397 Tb378 2.473 . S
O397 C398 1.257 . S
C398 O396 1.273 . S
C398 O397 1.257 . S
O399 Eu379 2.326 . S
O399 C387 1.242 . S
O400 Tb378 2.324 . S
O400 C387 1.258 . S
O401 Eu379 2.500 . S
O401 C384 1.273 . S
O402 Eu379 2.473 . S
O402 C384 1.257 . S
H403 C389 0.929 . S
H404 C391 0.931 . S
H405 C393 0.914 1_455 S
O406 Tb407 2.292 . S
O406 C409 1.255 . S
Tb407 O406 2.292 . S
Tb407 O423 2.326 . S
Tb407 O425 2.500 . S
Tb407 O426 2.473 . S
Tb407 O429 2.324 . S
Eu408 O412 2.292 . S
Eu408 C413 2.852 . S
Eu408 O424 2.324 . S
Eu408 O428 2.326 . S
Eu408 O430 2.500 . S
Eu408 O431 2.473 . S
C409 O406 1.255 . S
C409 O410 1.247 . S
O410 C409 1.247 . S
C411 O423 1.242 . S
C411 O424 1.258 . S
O412 Eu408 2.292 . S
O412 C414 1.255 . S
C413 Eu408 2.852 . S
C413 C417 1.503 . S
C413 O430 1.273 . S
C413 O431 1.257 . S
C414 O412 1.255 . S
C414 O415 1.247 . S
O415 C414 1.247 . S
C416 O428 1.242 . S
C416 O429 1.258 . S
C417 C413 1.503 . S
C417 C418 1.379 . S
C417 C422 1.392 . S
C418 C417 1.379 . S
C418 C419 1.404 . S
C418 H432 0.929 . S
C419 C418 1.404 . S
C419 C420 1.389 . S
C420 C419 1.389 . S
C420 C421 1.399 . S
C420 H433 0.931 . S
C421 C420 1.399 . S
C421 C422 1.390 . S
C422 C417 1.392 . S
C422 C421 1.390 . S
C422 H434 0.929 . S
O423 Tb407 2.326 . S
O423 C411 1.242 . S
O424 Eu408 2.324 . S
O424 C411 1.258 . S
O425 Tb407 2.500 . S
O425 C427 1.273 . S
O426 Tb407 2.473 . S
O426 C427 1.257 . S
C427 O425 1.273 . S
C427 O426 1.257 . S
O428 Eu408 2.326 . S
O428 C416 1.242 . S
O429 Tb407 2.324 . S
O429 C416 1.258 . S
O430 Eu408 2.500 . S
O430 C413 1.273 . S
O431 Eu408 2.473 . S
O431 C413 1.257 . S
H432 C418 0.929 . S
H433 C420 0.931 . S
H434 C422 0.929 . S
O435 Tb436 2.292 . S
O435 C438 1.255 . S
Tb436 O435 2.292 . S
Tb436 O452 2.326 . S
Tb436 O454 2.500 . S
Tb436 O455 2.473 . S
Tb436 O458 2.324 . S
Eu437 O441 2.292 . S
Eu437 C442 2.852 . S
Eu437 O453 2.324 . S
Eu437 O457 2.326 . S
Eu437 O459 2.500 . S
Eu437 O460 2.473 . S
C438 O435 1.255 . S
C438 O439 1.247 1_455 S
O439 C438 1.247 1_655 S
C440 O452 1.242 . S
C440 O453 1.258 . S
O441 Eu437 2.292 . S
O441 C443 1.255 . S
C442 Eu437 2.852 . S
C442 C446 1.503 1_455 S
C442 O459 1.273 . S
C442 O460 1.257 . S
C443 O441 1.255 . S
C443 O444 1.247 . S
O444 C443 1.247 . S
C445 O457 1.242 . S
C445 O458 1.258 . S
C446 C442 1.503 1_655 S
C446 C447 1.379 . S
C446 C451 1.392 . S
C447 C446 1.379 . S
C447 C448 1.404 . S
C447 H461 0.929 . S
C448 C447 1.404 . S
C448 C449 1.389 . S
C449 C448 1.389 . S
C449 C450 1.399 . S
C449 H462 0.931 . S
C450 C449 1.399 . S
C450 C451 1.404 . S
C451 C446 1.392 . S
C451 C450 1.404 . S
C451 H463 0.914 1_655 S
O452 Tb436 2.326 . S
O452 C440 1.242 . S
O453 Eu437 2.324 . S
O453 C440 1.258 . S
O454 Tb436 2.500 . S
O454 C456 1.273 . S
O455 Tb436 2.473 . S
O455 C456 1.257 . S
C456 O454 1.273 . S
C456 O455 1.257 . S
O457 Eu437 2.326 . S
O457 C445 1.242 . S
O458 Tb436 2.324 . S
O458 C445 1.258 . S
O459 Eu437 2.500 . S
O459 C442 1.273 . S
O460 Eu437 2.473 . S
O460 C442 1.257 . S
H461 C447 0.929 . S
H462 C449 0.931 . S
H463 C451 0.914 1_455 S
C464 C465 1.363 . S
C464 C470 1.379 . S
C464 N472 1.356 . S
C465 C464 1.363 . S
C465 C471 1.363 . S
C466 C467 1.363 . S
C466 C471 1.379 . S
C466 N473 1.356 . S
C467 C466 1.363 . S
C467 C470 1.363 . S
N468 C470 1.356 . S
N468 H480 0.984 . S
N468 H481 0.985 . S
N469 C471 1.356 1_655 S
N469 H474 0.984 . S
N469 H475 0.985 . S
C470 C464 1.379 . S
C470 C467 1.363 . S
C470 N468 1.356 . S
C471 C465 1.363 . S
C471 C466 1.379 . S
C471 N469 1.356 1_455 S
N472 C464 1.356 . S
N472 H478 0.984 . S
N472 H479 0.984 . S
N473 C466 1.356 . S
N473 H476 0.984 . S
N473 H477 0.985 1_455 S
H474 N469 0.984 . S
H475 N469 0.985 . S
H476 N473 0.984 . S
H477 N473 0.985 1_655 S
H478 N472 0.984 . S
H479 N472 0.984 . S
H480 N468 0.984 . S
H481 N468 0.985 . S
C482 C483 1.363 1_455 S
C482 C488 1.379 . S
C482 N490 1.356 1_455 S
C483 C482 1.363 1_655 S
C483 C489 1.363 1_655 S
C484 C485 1.363 . S
C484 C489 1.379 . S
C484 N491 1.356 . S
C485 C484 1.363 . S
C485 C488 1.363 . S
N486 C488 1.356 . S
N486 H498 0.984 . S
N486 H499 0.985 . S
N487 C489 1.356 1_655 S
N487 H492 0.984 . S
N487 H493 0.985 . S
C488 C482 1.379 . S
C488 C485 1.363 . S
C488 N486 1.356 . S
C489 C483 1.363 1_455 S
C489 C484 1.379 . S
C489 N487 1.356 1_455 S
N490 C482 1.356 1_655 S
N490 H496 0.984 1_655 S
N490 H497 0.984 . S
N491 C484 1.356 . S
N491 H494 0.984 . S
N491 H495 0.985 . S
H492 N487 0.984 . S
H493 N487 0.985 . S
H494 N491 0.984 . S
H495 N491 0.985 . S
H496 N490 0.984 1_455 S
H497 N490 0.984 . S
H498 N486 0.984 . S
H499 N486 0.985 . S
C500 C501 1.363 . S
C500 C506 1.379 . S
C500 N508 1.356 . S
C501 C500 1.363 . S
C501 C507 1.363 . S
C502 C503 1.363 . S
C502 C507 1.379 . S
C502 N509 1.356 . S
C503 C502 1.363 . S
C503 C506 1.363 . S
N504 C506 1.356 . S
N504 H516 0.984 . S
N504 H517 0.985 . S
N505 C507 1.356 . S
N505 H510 0.984 . S
N505 H511 0.985 . S
C506 C500 1.379 . S
C506 C503 1.363 . S
C506 N504 1.356 . S
C507 C501 1.363 . S
C507 C502 1.379 . S
C507 N505 1.356 . S
N508 C500 1.356 . S
N508 H514 0.984 . S
N508 H515 0.984 . S
N509 C502 1.356 . S
N509 H512 0.984 . S
N509 H513 0.985 . S
H510 N505 0.984 . S
H511 N505 0.985 . S
H512 N509 0.984 . S
H513 N509 0.985 . S
H514 N508 0.984 . S
H515 N508 0.984 . S
H516 N504 0.984 . S
H517 N504 0.985 . S
C518 C519 1.363 . S
C518 C524 1.379 . S
C518 N526 1.356 . S
C519 C518 1.363 . S
C519 C525 1.363 . S
C520 C521 1.363 . S
C520 C525 1.379 . S
C520 N527 1.356 . S
C521 C520 1.363 . S
C521 C524 1.363 . S
N522 C524 1.356 . S
N522 H534 0.984 . S
N522 H535 0.985 . S
N523 C525 1.356 . S
N523 H528 0.984 . S
N523 H529 0.985 . S
C524 C518 1.379 . S
C524 C521 1.363 . S
C524 N522 1.356 . S
C525 C519 1.363 . S
C525 C520 1.379 . S
C525 N523 1.356 . S
N526 C518 1.356 . S
N526 H532 0.984 . S
N526 H533 0.984 . S
N527 C520 1.356 . S
N527 H530 0.984 . S
N527 H531 0.985 . S
H528 N523 0.984 . S
H529 N523 0.985 . S
H530 N527 0.984 . S
H531 N527 0.985 . S
H532 N526 0.984 . S
H533 N526 0.984 . S
H534 N522 0.984 . S
H535 N522 0.985 . S
C536 C537 1.363 . S
C536 C542 1.379 . S
C536 N544 1.356 . S
C537 C536 1.363 . S
C537 C543 1.363 . S
C538 C539 1.363 . S
C538 C543 1.379 . S
C538 N545 1.356 . S
C539 C538 1.363 . S
C539 C542 1.363 . S
N540 C542 1.356 1_655 S
N540 H552 0.984 . S
N540 H553 0.985 . S
N541 C543 1.356 . S
N541 H546 0.984 . S
N541 H547 0.985 . S
C542 C536 1.379 . S
C542 C539 1.363 . S
C542 N540 1.356 1_455 S
C543 C537 1.363 . S
C543 C538 1.379 . S
C543 N541 1.356 . S
N544 C536 1.356 . S
N544 H550 0.984 1_455 S
N544 H551 0.984 . S
N545 C538 1.356 . S
N545 H548 0.984 . S
N545 H549 0.985 . S
H546 N541 0.984 . S
H547 N541 0.985 . S
H548 N545 0.984 . S
H549 N545 0.985 . S
H550 N544 0.984 1_655 S
H551 N544 0.984 . S
H552 N540 0.984 . S
H553 N540 0.985 . S
C554 C555 1.363 . S
C554 C560 1.379 . S
C554 N562 1.356 . S
C555 C554 1.363 . S
C555 C561 1.363 . S
C556 C557 1.363 . S
C556 C561 1.379 . S
C556 N563 1.356 . S
C557 C556 1.363 . S
C557 C560 1.363 . S
N558 C560 1.356 . S
N558 H570 0.984 . S
N558 H571 0.985 . S
N559 C561 1.356 . S
N559 H564 0.984 . S
N559 H565 0.985 . S
C560 C554 1.379 . S
C560 C557 1.363 . S
C560 N558 1.356 . S
C561 C555 1.363 . S
C561 C556 1.379 . S
C561 N559 1.356 . S
N562 C554 1.356 . S
N562 H568 0.984 . S
N562 H569 0.984 . S
N563 C556 1.356 . S
N563 H566 0.984 . S
N563 H567 0.985 . S
H564 N559 0.984 . S
H565 N559 0.985 . S
H566 N563 0.984 . S
H567 N563 0.985 . S
H568 N562 0.984 . S
H569 N562 0.984 . S
H570 N558 0.984 . S
H571 N558 0.985 . S
C572 C573 1.363 . S
C572 C578 1.379 . S
C572 N580 1.356 . S
C573 C572 1.363 . S
C573 C579 1.363 . S
C574 C575 1.363 . S
C574 C579 1.379 . S
C574 N581 1.356 . S
C575 C574 1.363 . S
C575 C578 1.363 . S
N576 C578 1.356 . S
N576 H588 0.984 . S
N576 H589 0.985 . S
N577 C579 1.356 . S
N577 H582 0.984 . S
N577 H583 0.985 . S
C578 C572 1.379 . S
C578 C575 1.363 . S
C578 N576 1.356 . S
C579 C573 1.363 . S
C579 C574 1.379 . S
C579 N577 1.356 . S
N580 C572 1.356 . S
N580 H586 0.984 . S
N580 H587 0.984 . S
N581 C574 1.356 . S
N581 H584 0.984 . S
N581 H585 0.985 . S
H582 N577 0.984 . S
H583 N577 0.985 . S
H584 N581 0.984 . S
H585 N581 0.985 . S
H586 N580 0.984 . S
H587 N580 0.984 . S
H588 N576 0.984 . S
H589 N576 0.985 . S
C590 C591 1.363 . S
C590 C596 1.379 . S
C590 N598 1.356 . S
C591 C590 1.363 . S
C591 C597 1.363 . S
C592 C593 1.363 1_455 S
C592 C597 1.379 . S
C592 N599 1.356 1_455 S
C593 C592 1.363 1_655 S
C593 C596 1.363 1_655 S
N594 C596 1.356 1_655 S
N594 H606 0.984 1_655 S
N594 H607 0.985 . S
N595 C597 1.356 . S
N595 H600 0.984 . S
N595 H601 0.985 . S
C596 C590 1.379 . S
C596 C593 1.363 1_455 S
C596 N594 1.356 1_455 S
C597 C591 1.363 . S
C597 C592 1.379 . S
C597 N595 1.356 . S
N598 C590 1.356 . S
N598 H604 0.984 . S
N598 H605 0.984 . S
N599 C592 1.356 1_655 S
N599 H602 0.984 . S
N599 H603 0.985 . S
H600 N595 0.984 . S
H601 N595 0.985 . S
H602 N599 0.984 . S
H603 N599 0.985 . S
H604 N598 0.984 . S
H605 N598 0.984 . S
H606 N594 0.984 1_455 S
H607 N594 0.985 . S
C608 C609 1.363 . S
C608 C614 1.379 . S
C608 N616 1.356 . S
C609 C608 1.363 . S
C609 C615 1.363 1_556 S
C610 C611 1.363 . S
C610 C615 1.379 . S
C610 N617 1.356 . S
C611 C610 1.363 . S
C611 C614 1.363 1_554 S
N612 C614 1.356 . S
N612 H624 0.984 . S
N612 H625 0.985 1_556 S
N613 C615 1.356 . S
N613 H618 0.984 1_554 S
N613 H619 0.985 . S
C614 C608 1.379 . S
C614 C611 1.363 1_556 S
C614 N612 1.356 . S
C615 C609 1.363 1_554 S
C615 C610 1.379 . S
C615 N613 1.356 . S
N616 C608 1.356 . S
N616 H622 0.984 . S
N616 H623 0.984 . S
N617 C610 1.356 . S
N617 H620 0.984 . S
N617 H621 0.985 . S
H618 N613 0.984 1_556 S
H619 N613 0.985 . S
H620 N617 0.984 . S
H621 N617 0.985 . S
H622 N616 0.984 . S
H623 N616 0.984 . S
H624 N612 0.984 . S
H625 N612 0.985 1_554 S
C626 C627 1.363 . S
C626 C632 1.379 . S
C626 N634 1.356 . S
C627 C626 1.363 . S
C627 C633 1.363 . S
C628 C629 1.363 . S
C628 C633 1.379 . S
C628 N635 1.356 . S
C629 C628 1.363 . S
C629 C632 1.363 . S
N630 C632 1.356 . S
N630 H642 0.984 . S
N630 H643 0.985 . S
N631 C633 1.356 . S
N631 H636 0.984 . S
N631 H637 0.985 . S
C632 C626 1.379 . S
C632 C629 1.363 . S
C632 N630 1.356 . S
C633 C627 1.363 . S
C633 C628 1.379 . S
C633 N631 1.356 . S
N634 C626 1.356 . S
N634 H640 0.984 . S
N634 H641 0.984 . S
N635 C628 1.356 . S
N635 H638 0.984 . S
N635 H639 0.985 . S
H636 N631 0.984 . S
H637 N631 0.985 . S
H638 N635 0.984 . S
H639 N635 0.985 . S
H640 N634 0.984 . S
H641 N634 0.984 . S
H642 N630 0.984 . S
H643 N630 0.985 . S
C644 C645 1.363 . S
C644 C650 1.379 . S
C644 N652 1.356 . S
C645 C644 1.363 . S
C645 C651 1.363 . S
C646 C647 1.363 . S
C646 C651 1.379 . S
C646 N653 1.356 . S
C647 C646 1.363 . S
C647 C650 1.363 . S
N648 C650 1.356 . S
N648 H660 0.984 . S
N648 H661 0.985 . S
N649 C651 1.356 . S
N649 H654 0.984 . S
N649 H655 0.985 . S
C650 C644 1.379 . S
C650 C647 1.363 . S
C650 N648 1.356 . S
C651 C645 1.363 . S
C651 C646 1.379 . S
C651 N649 1.356 . S
N652 C644 1.356 . S
N652 H658 0.984 . S
N652 H659 0.984 . S
N653 C646 1.356 . S
N653 H656 0.984 . S
N653 H657 0.985 . S
H654 N649 0.984 . S
H655 N649 0.985 . S
H656 N653 0.984 . S
H657 N653 0.985 . S
H658 N652 0.984 . S
H659 N652 0.984 . S
H660 N648 0.984 . S
H661 N648 0.985 . S
C662 C663 1.363 . S
C662 C668 1.379 . S
C662 N670 1.356 . S
C663 C662 1.363 . S
C663 C669 1.363 . S
C664 C665 1.363 . S
C664 C669 1.379 . S
C664 N671 1.356 . S
C665 C664 1.363 . S
C665 C668 1.363 . S
N666 C668 1.356 . S
N666 H678 0.984 . S
N666 H679 0.985 . S
N667 C669 1.356 . S
N667 H672 0.984 . S
N667 H673 0.985 . S
C668 C662 1.379 . S
C668 C665 1.363 . S
C668 N666 1.356 . S
C669 C663 1.363 . S
C669 C664 1.379 . S
C669 N667 1.356 . S
N670 C662 1.356 . S
N670 H676 0.984 . S
N670 H677 0.984 . S
N671 C664 1.356 . S
N671 H674 0.984 . S
N671 H675 0.985 . S
H672 N667 0.984 . S
H673 N667 0.985 . S
H674 N671 0.984 . S
H675 N671 0.985 . S
H676 N670 0.984 . S
H677 N670 0.984 . S
H678 N666 0.984 . S
H679 N666 0.985 . S
C680 C681 1.363 . S
C680 C686 1.379 . S
C680 N688 1.356 . S
C681 C680 1.363 . S
C681 C687 1.363 1_554 S
C682 C683 1.363 . S
C682 C687 1.379 . S
C682 N689 1.356 . S
C683 C682 1.363 . S
C683 C686 1.363 1_556 S
N684 C686 1.356 . S
N684 H696 0.984 . S
N684 H697 0.985 1_554 S
N685 C687 1.356 . S
N685 H690 0.984 1_556 S
N685 H691 0.985 . S
C686 C680 1.379 . S
C686 C683 1.363 1_554 S
C686 N684 1.356 . S
C687 C681 1.363 1_556 S
C687 C682 1.379 . S
C687 N685 1.356 . S
N688 C680 1.356 . S
N688 H694 0.984 . S
N688 H695 0.984 . S
N689 C682 1.356 . S
N689 H692 0.984 . S
N689 H693 0.985 . S
H690 N685 0.984 1_554 S
H691 N685 0.985 . S
H692 N689 0.984 . S
H693 N689 0.985 . S
H694 N688 0.984 . S
H695 N688 0.984 . S
H696 N684 0.984 . S
H697 N684 0.985 1_556 S
C698 C699 1.363 . S
C698 C704 1.379 . S
C698 N706 1.356 . S
C699 C698 1.363 . S
C699 C705 1.363 . S
C700 C701 1.363 . S
C700 C705 1.379 . S
C700 N707 1.356 . S
C701 C700 1.363 . S
C701 C704 1.363 . S
N702 C704 1.356 . S
N702 H714 0.984 . S
N702 H715 0.985 . S
N703 C705 1.356 . S
N703 H708 0.984 . S
N703 H709 0.985 . S
C704 C698 1.379 . S
C704 C701 1.363 . S
C704 N702 1.356 . S
C705 C699 1.363 . S
C705 C700 1.379 . S
C705 N703 1.356 . S
N706 C698 1.356 . S
N706 H712 0.984 . S
N706 H713 0.984 . S
N707 C700 1.356 . S
N707 H710 0.984 . S
N707 H711 0.985 . S
H708 N703 0.984 . S
H709 N703 0.985 . S
H710 N707 0.984 . S
H711 N707 0.985 . S
H712 N706 0.984 . S
H713 N706 0.984 . S
H714 N702 0.984 . S
H715 N702 0.985 . S
C716 C717 1.363 . S
C716 C722 1.379 . S
C716 N724 1.356 . S
C717 C716 1.363 . S
C717 C723 1.363 . S
C718 C719 1.363 . S
C718 C723 1.379 . S
C718 N725 1.356 . S
C719 C718 1.363 . S
C719 C722 1.363 . S
N720 C722 1.356 . S
N720 H732 0.984 . S
N720 H733 0.985 . S
N721 C723 1.356 . S
N721 H726 0.984 . S
N721 H727 0.985 . S
C722 C716 1.379 . S
C722 C719 1.363 . S
C722 N720 1.356 . S
C723 C717 1.363 . S
C723 C718 1.379 . S
C723 N721 1.356 . S
N724 C716 1.356 . S
N724 H730 0.984 . S
N724 H731 0.984 . S
N725 C718 1.356 . S
N725 H728 0.984 . S
N725 H729 0.985 . S
H726 N721 0.984 . S
H727 N721 0.985 . S
H728 N725 0.984 . S
H729 N725 0.985 . S
H730 N724 0.984 . S
H731 N724 0.984 . S
H732 N720 0.984 . S
H733 N720 0.985 . S
C734 C735 1.363 . S
C734 C740 1.379 . S
C734 N742 1.356 . S
C735 C734 1.363 . S
C735 C741 1.363 . S
C736 C737 1.363 . S
C736 C741 1.379 . S
C736 N743 1.356 . S
C737 C736 1.363 . S
C737 C740 1.363 . S
N738 C740 1.356 . S
N738 H750 0.984 . S
N738 H751 0.985 . S
N739 C741 1.356 . S
N739 H744 0.984 . S
N739 H745 0.985 . S
C740 C734 1.379 . S
C740 C737 1.363 . S
C740 N738 1.356 . S
C741 C735 1.363 . S
C741 C736 1.379 . S
C741 N739 1.356 . S
N742 C734 1.356 . S
N742 H748 0.984 . S
N742 H749 0.984 . S
N743 C736 1.356 . S
N743 H746 0.984 . S
N743 H747 0.985 . S
H744 N739 0.984 . S
H745 N739 0.985 . S
H746 N743 0.984 . S
H747 N743 0.985 . S
H748 N742 0.984 . S
H749 N742 0.984 . S
H750 N738 0.984 . S
H751 N738 0.985 . S
C752 C753 1.363 . S
C752 C758 1.379 . S
C752 N760 1.356 . S
C753 C752 1.363 . S
C753 C759 1.363 . S
C754 C755 1.368 . S
C754 C759 1.379 1_554 S
C754 N761 1.356 . S
C755 C754 1.368 . S
C755 C758 1.332 1_554 S
N756 C758 1.356 . S
N756 H768 0.984 . S
N756 H769 0.985 . S
N757 C759 1.356 . S
N757 H762 0.984 . S
N757 H763 0.985 . S
C758 C752 1.379 . S
C758 C755 1.332 1_556 S
C758 N756 1.356 . S
C759 C753 1.363 . S
C759 C754 1.379 1_556 S
C759 N757 1.356 . S
N760 C752 1.356 . S
N760 H766 0.984 . S
N760 H767 0.984 . S
N761 C754 1.356 . S
N761 H764 0.984 . S
N761 H765 0.985 . S
H762 N757 0.984 . S
H763 N757 0.985 . S
H764 N761 0.984 . S
H765 N761 0.985 . S
H766 N760 0.984 . S
H767 N760 0.984 . S
H768 N756 0.984 . S
H769 N756 0.985 . S
C770 C771 1.363 . S
C770 C776 1.379 . S
C770 N778 1.356 . S
C771 C770 1.363 . S
C771 C777 1.363 . S
C772 C773 1.363 . S
C772 C777 1.379 . S
C772 N779 1.356 . S
C773 C772 1.363 . S
C773 C776 1.363 . S
N774 C776 1.356 1_565 S
N774 H786 0.984 . S
N774 H787 0.985 . S
N775 C777 1.356 . S
N775 H780 0.984 . S
N775 H781 0.985 . S
C776 C770 1.379 . S
C776 C773 1.363 . S
C776 N774 1.356 1_545 S
C777 C771 1.363 . S
C777 C772 1.379 . S
C777 N775 1.356 . S
N778 C770 1.356 . S
N778 H784 0.984 . S
N778 H785 0.984 . S
N779 C772 1.356 . S
N779 H782 0.984 . S
N779 H783 0.985 . S
H780 N775 0.984 . S
H781 N775 0.985 . S
H782 N779 0.984 . S
H783 N779 0.985 . S
H784 N778 0.984 . S
H785 N778 0.984 . S
H786 N774 0.984 . S
H787 N774 0.985 . S
C788 C789 1.363 . S
C788 C794 1.379 . S
C788 N796 1.356 . S
C789 C788 1.363 . S
C789 C795 1.363 . S
C790 C791 1.363 . S
C790 C795 1.379 . S
C790 N797 1.356 . S
C791 C790 1.363 . S
C791 C794 1.363 . S
N792 C794 1.356 . S
N792 H804 0.984 . S
N792 H805 0.985 . S
N793 C795 1.356 . S
N793 H798 0.984 . S
N793 H799 0.985 . S
C794 C788 1.379 . S
C794 C791 1.363 . S
C794 N792 1.356 . S
C795 C789 1.363 . S
C795 C790 1.379 . S
C795 N793 1.356 . S
N796 C788 1.356 . S
N796 H802 0.984 . S
N796 H803 0.984 . S
N797 C790 1.356 . S
N797 H800 0.984 . S
N797 H801 0.985 . S
H798 N793 0.984 . S
H799 N793 0.985 . S
H800 N797 0.984 . S
H801 N797 0.985 . S
H802 N796 0.984 . S
H803 N796 0.984 . S
H804 N792 0.984 . S
H805 N792 0.985 . S
C806 C807 1.363 . S
C806 C812 1.379 . S
C806 N814 1.356 . S
C807 C806 1.363 . S
C807 C813 1.363 . S
C808 C809 1.363 . S
C808 C813 1.379 . S
C808 N815 1.356 1_565 S
C809 C808 1.363 . S
C809 C812 1.363 . S
N810 C812 1.356 . S
N810 H822 0.984 . S
N810 H823 0.985 . S
N811 C813 1.356 . S
N811 H816 0.984 . S
N811 H817 0.985 . S
C812 C806 1.379 . S
C812 C809 1.363 . S
C812 N810 1.356 . S
C813 C807 1.363 . S
C813 C808 1.379 . S
C813 N811 1.356 . S
N814 C806 1.356 . S
N814 H820 0.984 . S
N814 H821 0.984 . S
N815 C808 1.356 1_545 S
N815 H818 0.984 . S
N815 H819 0.985 . S
H816 N811 0.984 . S
H817 N811 0.985 . S
H818 N815 0.984 . S
H819 N815 0.985 . S
H820 N814 0.984 . S
H821 N814 0.984 . S
H822 N810 0.984 . S
H823 N810 0.985 . S
C824 C825 1.336 1_554 S
C824 C830 1.379 . S
C824 N832 1.356 . S
C825 C824 1.336 1_556 S
C825 C831 1.364 . S
C826 C827 1.363 . S
C826 C831 1.379 1_554 S
C826 N833 1.356 . S
C827 C826 1.363 . S
C827 C830 1.363 . S
N828 C830 1.356 . S
N828 H840 0.984 . S
N828 H841 0.985 . S
N829 C831 1.356 . S
N829 H834 0.984 . S
N829 H835 0.985 . S
C830 C824 1.379 . S
C830 C827 1.363 . S
C830 N828 1.356 . S
C831 C825 1.364 . S
C831 C826 1.379 1_556 S
C831 N829 1.356 . S
N832 C824 1.356 . S
N832 H838 0.984 . S
N832 H839 0.984 1_554 S
N833 C826 1.356 . S
N833 H836 0.984 . S
N833 H837 0.985 . S
H834 N829 0.984 . S
H835 N829 0.985 . S
H836 N833 0.984 . S
H837 N833 0.985 . S
H838 N832 0.984 . S
H839 N832 0.984 1_556 S
H840 N828 0.984 . S
H841 N828 0.985 . S
C842 C843 1.363 . S
C842 C848 1.379 . S
C842 N850 1.356 . S
C843 C842 1.363 . S
C843 C849 1.363 . S
C844 C845 1.363 . S
C844 C849 1.379 . S
C844 N851 1.356 . S
C845 C844 1.363 . S
C845 C848 1.363 . S
N846 C848 1.356 . S
N846 H858 0.984 . S
N846 H859 0.985 . S
N847 C849 1.356 1_565 S
N847 H852 0.984 . S
N847 H853 0.985 . S
C848 C842 1.379 . S
C848 C845 1.363 . S
C848 N846 1.356 . S
C849 C843 1.363 . S
C849 C844 1.379 . S
C849 N847 1.356 1_545 S
N850 C842 1.356 . S
N850 H856 0.984 . S
N850 H857 0.984 . S
N851 C844 1.356 . S
N851 H854 0.984 . S
N851 H855 0.985 . S
H852 N847 0.984 . S
H853 N847 0.985 . S
H854 N851 0.984 . S
H855 N851 0.985 . S
H856 N850 0.984 . S
H857 N850 0.984 . S
H858 N846 0.984 . S
H859 N846 0.985 . S
C860 C861 1.363 . S
C860 C866 1.379 . S
C860 N868 1.356 . S
C861 C860 1.363 . S
C861 C867 1.363 . S
C862 C863 1.363 . S
C862 C867 1.379 . S
C862 N869 1.356 . S
C863 C862 1.363 . S
C863 C866 1.363 . S
N864 C866 1.356 . S
N864 H876 0.984 . S
N864 H877 0.985 . S
N865 C867 1.356 . S
N865 H870 0.984 . S
N865 H871 0.985 . S
C866 C860 1.379 . S
C866 C863 1.363 . S
C866 N864 1.356 . S
C867 C861 1.363 . S
C867 C862 1.379 . S
C867 N865 1.356 . S
N868 C860 1.356 . S
N868 H874 0.984 . S
N868 H875 0.984 . S
N869 C862 1.356 . S
N869 H872 0.984 . S
N869 H873 0.985 . S
H870 N865 0.984 . S
H871 N865 0.985 . S
H872 N869 0.984 . S
H873 N869 0.985 . S
H874 N868 0.984 . S
H875 N868 0.984 . S
H876 N864 0.984 . S
H877 N864 0.985 . S
C878 C879 1.363 . S
C878 C884 1.379 . S
C878 N886 1.356 . S
C879 C878 1.363 . S
C879 C885 1.363 . S
C880 C881 1.363 . S
C880 C885 1.379 . S
C880 N887 1.356 . S
C881 C880 1.363 . S
C881 C884 1.363 . S
N882 C884 1.356 . S
N882 H894 0.984 . S
N882 H895 0.985 . S
N883 C885 1.356 1_545 S
N883 H888 0.984 . S
N883 H889 0.985 . S
C884 C878 1.379 . S
C884 C881 1.363 . S
C884 N882 1.356 . S
C885 C879 1.363 . S
C885 C880 1.379 . S
C885 N883 1.356 1_565 S
N886 C878 1.356 . S
N886 H892 0.984 . S
N886 H893 0.984 . S
N887 C880 1.356 . S
N887 H890 0.984 . S
N887 H891 0.985 . S
H888 N883 0.984 . S
H889 N883 0.985 . S
H890 N887 0.984 . S
H891 N887 0.985 . S
H892 N886 0.984 . S
H893 N886 0.984 . S
H894 N882 0.984 . S
H895 N882 0.985 . S
C896 C897 1.363 . S
C896 C902 1.379 . S
C896 N904 1.356 . S
C897 C896 1.363 . S
C897 C903 1.363 . S
C898 C899 1.363 . S
C898 C903 1.379 . S
C898 N905 1.356 . S
C899 C898 1.363 . S
C899 C902 1.363 . S
N900 C902 1.356 . S
N900 H912 0.984 . S
N900 H913 0.985 . S
N901 C903 1.356 . S
N901 H906 0.984 . S
N901 H907 0.985 . S
C902 C896 1.379 . S
C902 C899 1.363 . S
C902 N900 1.356 . S
C903 C897 1.363 . S
C903 C898 1.379 . S
C903 N901 1.356 . S
N904 C896 1.356 . S
N904 H910 0.984 . S
N904 H911 0.984 . S
N905 C898 1.356 . S
N905 H908 0.984 . S
N905 H909 0.985 . S
H906 N901 0.984 . S
H907 N901 0.985 . S
H908 N905 0.984 . S
H909 N905 0.985 . S
H910 N904 0.984 . S
H911 N904 0.984 . S
H912 N900 0.984 . S
H913 N900 0.985 . S
C914 C915 1.363 . S
C914 C920 1.379 . S
C914 N922 1.356 . S
C915 C914 1.363 . S
C915 C921 1.363 . S
C916 C917 1.363 . S
C916 C921 1.379 . S
C916 N923 1.356 . S
C917 C916 1.363 . S
C917 C920 1.363 . S
N918 C920 1.356 . S
N918 H930 0.984 . S
N918 H931 0.985 . S
N919 C921 1.356 . S
N919 H924 0.984 . S
N919 H925 0.985 . S
C920 C914 1.379 . S
C920 C917 1.363 . S
C920 N918 1.356 . S
C921 C915 1.363 . S
C921 C916 1.379 . S
C921 N919 1.356 . S
N922 C914 1.356 . S
N922 H928 0.984 . S
N922 H929 0.984 . S
N923 C916 1.356 . S
N923 H926 0.984 . S
N923 H927 0.985 . S
H924 N919 0.984 . S
H925 N919 0.985 . S
H926 N923 0.984 . S
H927 N923 0.985 . S
H928 N922 0.984 . S
H929 N922 0.984 . S
H930 N918 0.984 . S
H931 N918 0.985 . S
C932 C933 1.363 . S
C932 C938 1.379 1_554 S
C932 N940 1.356 . S
C933 C932 1.363 . S
C933 C939 1.363 . S
C934 C935 1.363 . S
C934 C939 1.379 1_556 S
C934 N941 1.356 . S
C935 C934 1.363 . S
C935 C938 1.363 . S
N936 C938 1.356 . S
N936 H948 0.984 . S
N936 H949 0.985 . S
N937 C939 1.356 1_455 S
N937 H942 0.984 . S
N937 H943 0.985 . S
C938 C932 1.379 1_556 S
C938 C935 1.363 . S
C938 N936 1.356 . S
C939 C933 1.363 . S
C939 C934 1.379 1_554 S
C939 N937 1.356 1_655 S
N940 C932 1.356 . S
N940 H946 0.984 . S
N940 H947 0.984 . S
N941 C934 1.356 . S
N941 H944 0.984 . S
N941 H945 0.985 . S
H942 N937 0.984 . S
H943 N937 0.985 . S
H944 N941 0.984 . S
H945 N941 0.985 . S
H946 N940 0.984 . S
H947 N940 0.984 . S
H948 N936 0.984 . S
H949 N936 0.985 . S
C950 C951 1.363 . S
C950 C956 1.379 . S
C950 N958 1.356 . S
C951 C950 1.363 . S
C951 C957 1.363 . S
C952 C953 1.363 . S
C952 C957 1.379 . S
C952 N959 1.356 . S
C953 C952 1.363 . S
C953 C956 1.363 . S
N954 C956 1.356 . S
N954 H966 0.984 . S
N954 H967 0.985 . S
N955 C957 1.356 . S
N955 H960 0.984 . S
N955 H961 0.985 . S
C956 C950 1.379 . S
C956 C953 1.363 . S
C956 N954 1.356 . S
C957 C951 1.363 . S
C957 C952 1.379 . S
C957 N955 1.356 . S
N958 C950 1.356 . S
N958 H964 0.984 . S
N958 H965 0.984 . S
N959 C952 1.356 . S
N959 H962 0.984 . S
N959 H963 0.985 . S
H960 N955 0.984 . S
H961 N955 0.985 . S
H962 N959 0.984 . S
H963 N959 0.985 . S
H964 N958 0.984 . S
H965 N958 0.984 . S
H966 N954 0.984 . S
H967 N954 0.985 . S
C968 C969 1.363 . S
C968 C974 1.379 . S
C968 N976 1.356 . S
C969 C968 1.363 . S
C969 C975 1.363 . S
C970 C971 1.363 . S
C970 C975 1.379 . S
C970 N977 1.356 . S
C971 C970 1.363 . S
C971 C974 1.363 . S
N972 C974 1.356 . S
N972 H984 0.984 . S
N972 H985 0.985 . S
N973 C975 1.356 . S
N973 H978 0.984 . S
N973 H979 0.985 . S
C974 C968 1.379 . S
C974 C971 1.363 . S
C974 N972 1.356 . S
C975 C969 1.363 . S
C975 C970 1.379 . S
C975 N973 1.356 . S
N976 C968 1.356 . S
N976 H982 0.984 . S
N976 H983 0.984 . S
N977 C970 1.356 . S
N977 H980 0.984 . S
N977 H981 0.985 . S
H978 N973 0.984 . S
H979 N973 0.985 . S
H980 N977 0.984 . S
H981 N977 0.985 . S
H982 N976 0.984 . S
H983 N976 0.984 . S
H984 N972 0.984 . S
H985 N972 0.985 . S
C986 C987 1.363 . S
C986 C992 1.379 . S
C986 N994 1.356 . S
C987 C986 1.363 . S
C987 C993 1.363 . S
C988 C989 1.363 . S
C988 C993 1.379 . S
C988 N995 1.356 . S
C989 C988 1.363 . S
C989 C992 1.363 . S
N990 C992 1.356 . S
N990 H1002 0.984 . S
N990 H1003 0.985 . S
N991 C993 1.356 . S
N991 H996 0.984 . S
N991 H997 0.985 . S
C992 C986 1.379 . S
C992 C989 1.363 . S
C992 N990 1.356 . S
C993 C987 1.363 . S
C993 C988 1.379 . S
C993 N991 1.356 . S
N994 C986 1.356 . S
N994 H1000 0.984 1_655 S
N994 H1001 0.984 1_655 S
N995 C988 1.356 . S
N995 H998 0.984 . S
N995 H999 0.985 . S
H996 N991 0.984 . S
H997 N991 0.985 . S
H998 N995 0.984 . S
H999 N995 0.985 . S
H1000 N994 0.984 1_455 S
H1001 N994 0.984 1_455 S
H1002 N990 0.984 . S
H1003 N990 0.985 . S
C1004 C1005 1.363 1_556 S
C1004 C1010 1.379 . S
C1004 N1012 1.356 . S
C1005 C1004 1.363 1_554 S
C1005 C1011 1.363 . S
C1006 C1007 1.363 1_554 S
C1006 C1011 1.379 . S
C1006 N1013 1.356 1_655 S
C1007 C1006 1.363 1_556 S
C1007 C1010 1.363 . S
N1008 C1010 1.356 . S
N1008 H1020 0.984 . S
N1008 H1021 0.985 . S
N1009 C1011 1.356 . S
N1009 H1014 0.984 . S
N1009 H1015 0.985 . S
C1010 C1004 1.379 . S
C1010 C1007 1.363 . S
C1010 N1008 1.356 . S
C1011 C1005 1.363 . S
C1011 C1006 1.379 . S
C1011 N1009 1.356 . S
N1012 C1004 1.356 . S
N1012 H1018 0.984 . S
N1012 H1019 0.984 1_556 S
N1013 C1006 1.356 1_455 S
N1013 H1016 0.984 1_554 S
N1013 H1017 0.985 . S
H1014 N1009 0.984 . S
H1015 N1009 0.985 . S
H1016 N1013 0.984 1_556 S
H1017 N1013 0.985 . S
H1018 N1012 0.984 . S
H1019 N1012 0.984 1_554 S
H1020 N1008 0.984 . S
H1021 N1008 0.985 . S
C1022 C1023 1.363 . S
C1022 C1028 1.379 . S
C1022 N1030 1.356 . S
C1023 C1022 1.363 . S
C1023 C1029 1.363 . S
C1024 C1025 1.363 . S
C1024 C1029 1.379 . S
C1024 N1031 1.356 . S
C1025 C1024 1.363 . S
C1025 C1028 1.363 . S
N1026 C1028 1.356 . S
N1026 H1038 0.984 . S
N1026 H1039 0.985 . S
N1027 C1029 1.356 . S
N1027 H1032 0.984 . S
N1027 H1033 0.985 . S
C1028 C1022 1.379 . S
C1028 C1025 1.363 . S
C1028 N1026 1.356 . S
C1029 C1023 1.363 . S
C1029 C1024 1.379 . S
C1029 N1027 1.356 . S
N1030 C1022 1.356 . S
N1030 H1036 0.984 . S
N1030 H1037 0.984 . S
N1031 C1024 1.356 . S
N1031 H1034 0.984 . S
N1031 H1035 0.985 . S
H1032 N1027 0.984 . S
H1033 N1027 0.985 . S
H1034 N1031 0.984 . S
H1035 N1031 0.985 . S
H1036 N1030 0.984 . S
H1037 N1030 0.984 . S
H1038 N1026 0.984 . S
H1039 N1026 0.985 . S
C1040 C1041 1.363 . S
C1040 C1046 1.379 . S
C1040 N1048 1.356 . S
C1041 C1040 1.363 . S
C1041 C1047 1.363 . S
C1042 C1043 1.363 . S
C1042 C1047 1.379 . S
C1042 N1049 1.356 . S
C1043 C1042 1.363 . S
C1043 C1046 1.363 . S
N1044 C1046 1.356 . S
N1044 H1056 0.984 . S
N1044 H1057 0.985 . S
N1045 C1047 1.356 . S
N1045 H1050 0.984 . S
N1045 H1051 0.985 . S
C1046 C1040 1.379 . S
C1046 C1043 1.363 . S
C1046 N1044 1.356 . S
C1047 C1041 1.363 . S
C1047 C1042 1.379 . S
C1047 N1045 1.356 . S
N1048 C1040 1.356 . S
N1048 H1054 0.984 . S
N1048 H1055 0.984 . S
N1049 C1042 1.356 . S
N1049 H1052 0.984 . S
N1049 H1053 0.985 . S
H1050 N1045 0.984 . S
H1051 N1045 0.985 . S
H1052 N1049 0.984 . S
H1053 N1049 0.985 . S
H1054 N1048 0.984 . S
H1055 N1048 0.984 . S
H1056 N1044 0.984 . S
H1057 N1044 0.985 . S
C1058 C1059 1.363 . S
C1058 C1064 1.379 . S
C1058 N1066 1.356 . S
C1059 C1058 1.363 . S
C1059 C1065 1.363 . S
C1060 C1061 1.363 . S
C1060 C1065 1.379 . S
C1060 N1067 1.356 . S
C1061 C1060 1.363 . S
C1061 C1064 1.363 . S
N1062 C1064 1.356 . S
N1062 H1074 0.984 . S
N1062 H1075 0.985 . S
N1063 C1065 1.356 . S
N1063 H1068 0.984 . S
N1063 H1069 0.985 . S
C1064 C1058 1.379 . S
C1064 C1061 1.363 . S
C1064 N1062 1.356 . S
C1065 C1059 1.363 . S
C1065 C1060 1.379 . S
C1065 N1063 1.356 . S
N1066 C1058 1.356 . S
N1066 H1072 0.984 . S
N1066 H1073 0.984 . S
N1067 C1060 1.356 . S
N1067 H1070 0.984 . S
N1067 H1071 0.985 . S
H1068 N1063 0.984 . S
H1069 N1063 0.985 . S
H1070 N1067 0.984 . S
H1071 N1067 0.985 . S
H1072 N1066 0.984 . S
H1073 N1066 0.984 . S
H1074 N1062 0.984 . S
H1075 N1062 0.985 . S
C1076 C1077 1.363 . S
C1076 C1082 1.379 . S
C1076 N1084 1.356 . S
C1077 C1076 1.363 . S
C1077 C1083 1.363 . S
C1078 C1079 1.368 . S
C1078 C1083 1.379 1_554 S
C1078 N1085 1.356 . S
C1079 C1078 1.368 . S
C1079 C1082 1.332 1_554 S
N1080 C1082 1.356 . S
N1080 H1092 0.984 . S
N1080 H1093 0.985 . S
N1081 C1083 1.356 . S
N1081 H1086 0.984 . S
N1081 H1087 0.985 . S
C1082 C1076 1.379 . S
C1082 C1079 1.332 1_556 S
C1082 N1080 1.356 . S
C1083 C1077 1.363 . S
C1083 C1078 1.379 1_556 S
C1083 N1081 1.356 . S
N1084 C1076 1.356 . S
N1084 H1090 0.984 . S
N1084 H1091 0.984 . S
N1085 C1078 1.356 . S
N1085 H1088 0.984 . S
N1085 H1089 0.985 . S
H1086 N1081 0.984 . S
H1087 N1081 0.985 . S
H1088 N1085 0.984 . S
H1089 N1085 0.985 . S
H1090 N1084 0.984 . S
H1091 N1084 0.984 . S
H1092 N1080 0.984 . S
H1093 N1080 0.985 . S
C1094 C1095 1.363 . S
C1094 C1100 1.379 . S
C1094 N1102 1.356 . S
C1095 C1094 1.363 . S
C1095 C1101 1.363 . S
C1096 C1097 1.363 . S
C1096 C1101 1.379 . S
C1096 N1103 1.356 . S
C1097 C1096 1.363 . S
C1097 C1100 1.363 . S
N1098 C1100 1.356 . S
N1098 H1110 0.984 . S
N1098 H1111 0.985 . S
N1099 C1101 1.356 . S
N1099 H1104 0.984 . S
N1099 H1105 0.985 . S
C1100 C1094 1.379 . S
C1100 C1097 1.363 . S
C1100 N1098 1.356 . S
C1101 C1095 1.363 . S
C1101 C1096 1.379 . S
C1101 N1099 1.356 . S
N1102 C1094 1.356 . S
N1102 H1108 0.984 . S
N1102 H1109 0.984 . S
N1103 C1096 1.356 . S
N1103 H1106 0.984 . S
N1103 H1107 0.985 . S
H1104 N1099 0.984 . S
H1105 N1099 0.985 . S
H1106 N1103 0.984 . S
H1107 N1103 0.985 . S
H1108 N1102 0.984 . S
H1109 N1102 0.984 . S
H1110 N1098 0.984 . S
H1111 N1098 0.985 . S
C1112 C1113 1.363 . S
C1112 C1118 1.379 . S
C1112 N1120 1.356 . S
C1113 C1112 1.363 . S
C1113 C1119 1.363 . S
C1114 C1115 1.363 . S
C1114 C1119 1.379 . S
C1114 N1121 1.356 . S
C1115 C1114 1.363 . S
C1115 C1118 1.363 . S
N1116 C1118 1.356 . S
N1116 H1128 0.984 . S
N1116 H1129 0.985 . S
N1117 C1119 1.356 . S
N1117 H1122 0.984 . S
N1117 H1123 0.985 . S
C1118 C1112 1.379 . S
C1118 C1115 1.363 . S
C1118 N1116 1.356 . S
C1119 C1113 1.363 . S
C1119 C1114 1.379 . S
C1119 N1117 1.356 . S
N1120 C1112 1.356 . S
N1120 H1126 0.984 . S
N1120 H1127 0.984 . S
N1121 C1114 1.356 . S
N1121 H1124 0.984 . S
N1121 H1125 0.985 . S
H1122 N1117 0.984 . S
H1123 N1117 0.985 . S
H1124 N1121 0.984 . S
H1125 N1121 0.985 . S
H1126 N1120 0.984 . S
H1127 N1120 0.984 . S
H1128 N1116 0.984 . S
H1129 N1116 0.985 . S
C1130 C1131 1.363 . S
C1130 C1136 1.379 . S
C1130 N1138 1.356 . S
C1131 C1130 1.363 . S
C1131 C1137 1.363 . S
C1132 C1133 1.363 . S
C1132 C1137 1.379 . S
C1132 N1139 1.356 . S
C1133 C1132 1.363 . S
C1133 C1136 1.363 . S
N1134 C1136 1.356 . S
N1134 H1146 0.984 . S
N1134 H1147 0.985 . S
N1135 C1137 1.356 . S
N1135 H1140 0.984 . S
N1135 H1141 0.985 . S
C1136 C1130 1.379 . S
C1136 C1133 1.363 . S
C1136 N1134 1.356 . S
C1137 C1131 1.363 . S
C1137 C1132 1.379 . S
C1137 N1135 1.356 . S
N1138 C1130 1.356 . S
N1138 H1144 0.984 . S
N1138 H1145 0.984 . S
N1139 C1132 1.356 . S
N1139 H1142 0.984 . S
N1139 H1143 0.985 . S
H1140 N1135 0.984 . S
H1141 N1135 0.985 . S
H1142 N1139 0.984 . S
H1143 N1139 0.985 . S
H1144 N1138 0.984 . S
H1145 N1138 0.984 . S
H1146 N1134 0.984 . S
H1147 N1134 0.985 . S
C1148 C1149 1.363 . S
C1148 C1154 1.379 1_554 S
C1148 N1156 1.356 . S
C1149 C1148 1.363 . S
C1149 C1155 1.363 . S
C1150 C1151 1.332 1_554 S
C1150 C1155 1.379 . S
C1150 N1157 1.356 . S
C1151 C1150 1.332 1_556 S
C1151 C1154 1.368 . S
N1152 C1154 1.356 . S
N1152 H1164 0.984 . S
N1152 H1165 0.985 . S
N1153 C1155 1.356 . S
N1153 H1158 0.984 . S
N1153 H1159 0.985 . S
C1154 C1148 1.379 1_556 S
C1154 C1151 1.368 . S
C1154 N1152 1.356 . S
C1155 C1149 1.363 . S
C1155 C1150 1.379 . S
C1155 N1153 1.356 . S
N1156 C1148 1.356 . S
N1156 H1162 0.984 . S
N1156 H1163 0.984 . S
N1157 C1150 1.356 . S
N1157 H1160 0.984 . S
N1157 H1161 0.985 . S
H1158 N1153 0.984 . S
H1159 N1153 0.985 . S
H1160 N1157 0.984 . S
H1161 N1157 0.985 . S
H1162 N1156 0.984 . S
H1163 N1156 0.984 . S
H1164 N1152 0.984 . S
H1165 N1152 0.985 . S
C1166 C1167 1.363 . S
C1166 C1172 1.379 . S
C1166 N1174 1.356 . S
C1167 C1166 1.363 . S
C1167 C1173 1.363 . S
C1168 C1169 1.363 . S
C1168 C1173 1.379 . S
C1168 N1175 1.356 . S
C1169 C1168 1.363 . S
C1169 C1172 1.363 . S
N1170 C1172 1.356 . S
N1170 H1182 0.984 . S
N1170 H1183 0.985 . S
N1171 C1173 1.356 . S
N1171 H1176 0.984 . S
N1171 H1177 0.985 . S
C1172 C1166 1.379 . S
C1172 C1169 1.363 . S
C1172 N1170 1.356 . S
C1173 C1167 1.363 . S
C1173 C1168 1.379 . S
C1173 N1171 1.356 . S
N1174 C1166 1.356 . S
N1174 H1180 0.984 . S
N1174 H1181 0.984 . S
N1175 C1168 1.356 . S
N1175 H1178 0.984 . S
N1175 H1179 0.985 . S
H1176 N1171 0.984 . S
H1177 N1171 0.985 . S
H1178 N1175 0.984 . S
H1179 N1175 0.985 . S
H1180 N1174 0.984 . S
H1181 N1174 0.984 . S
H1182 N1170 0.984 . S
H1183 N1170 0.985 . S
C1184 C1185 1.363 . S
C1184 C1190 1.379 . S
C1184 N1192 1.356 . S
C1185 C1184 1.363 . S
C1185 C1191 1.363 . S
C1186 C1187 1.363 . S
C1186 C1191 1.379 . S
C1186 N1193 1.356 . S
C1187 C1186 1.363 . S
C1187 C1190 1.363 . S
N1188 C1190 1.356 . S
N1188 H1200 0.984 . S
N1188 H1201 0.985 . S
N1189 C1191 1.356 . S
N1189 H1194 0.984 . S
N1189 H1195 0.985 . S
C1190 C1184 1.379 . S
C1190 C1187 1.363 . S
C1190 N1188 1.356 . S
C1191 C1185 1.363 . S
C1191 C1186 1.379 . S
C1191 N1189 1.356 . S
N1192 C1184 1.356 . S
N1192 H1198 0.984 . S
N1192 H1199 0.984 . S
N1193 C1186 1.356 . S
N1193 H1196 0.984 . S
N1193 H1197 0.985 . S
H1194 N1189 0.984 . S
H1195 N1189 0.985 . S
H1196 N1193 0.984 . S
H1197 N1193 0.985 . S
H1198 N1192 0.984 . S
H1199 N1192 0.984 . S
H1200 N1188 0.984 . S
H1201 N1188 0.985 . S
C1202 C1203 1.363 . S
C1202 C1208 1.379 . S
C1202 N1210 1.356 . S
C1203 C1202 1.363 . S
C1203 C1209 1.363 . S
C1204 C1205 1.363 . S
C1204 C1209 1.379 . S
C1204 N1211 1.356 . S
C1205 C1204 1.363 . S
C1205 C1208 1.363 . S
N1206 C1208 1.356 . S
N1206 H1218 0.984 . S
N1206 H1219 0.985 . S
N1207 C1209 1.356 . S
N1207 H1212 0.984 . S
N1207 H1213 0.985 . S
C1208 C1202 1.379 . S
C1208 C1205 1.363 . S
C1208 N1206 1.356 . S
C1209 C1203 1.363 . S
C1209 C1204 1.379 . S
C1209 N1207 1.356 . S
N1210 C1202 1.356 . S
N1210 H1216 0.984 . S
N1210 H1217 0.984 . S
N1211 C1204 1.356 . S
N1211 H1214 0.984 . S
N1211 H1215 0.985 . S
H1212 N1207 0.984 . S
H1213 N1207 0.985 . S
H1214 N1211 0.984 . S
H1215 N1211 0.985 . S
H1216 N1210 0.984 . S
H1217 N1210 0.984 . S
H1218 N1206 0.984 . S
H1219 N1206 0.985 . S
C1220 C1221 1.363 . S
C1220 C1226 1.379 . S
C1220 N1228 1.356 . S
C1221 C1220 1.363 . S
C1221 C1227 1.363 . S
C1222 C1223 1.363 . S
C1222 C1227 1.379 . S
C1222 N1229 1.356 . S
C1223 C1222 1.363 . S
C1223 C1226 1.363 . S
N1224 C1226 1.356 . S
N1224 H1236 0.984 . S
N1224 H1237 0.985 . S
N1225 C1227 1.356 . S
N1225 H1230 0.984 . S
N1225 H1231 0.985 . S
C1226 C1220 1.379 . S
C1226 C1223 1.363 . S
C1226 N1224 1.356 . S
C1227 C1221 1.363 . S
C1227 C1222 1.379 . S
C1227 N1225 1.356 . S
N1228 C1220 1.356 . S
N1228 H1234 0.984 . S
N1228 H1235 0.984 . S
N1229 C1222 1.356 . S
N1229 H1232 0.984 . S
N1229 H1233 0.984 1_545 S
H1230 N1225 0.984 . S
H1231 N1225 0.985 . S
H1232 N1229 0.984 . S
H1233 N1229 0.984 1_565 S
H1234 N1228 0.984 . S
H1235 N1228 0.984 . S
H1236 N1224 0.984 . S
H1237 N1224 0.985 . S
C1238 C1239 1.363 . S
C1238 C1244 1.379 . S
C1238 N1246 1.356 . S
C1239 C1238 1.363 . S
C1239 C1245 1.363 . S
C1240 C1241 1.363 . S
C1240 C1245 1.379 . S
C1240 N1247 1.356 . S
C1241 C1240 1.363 . S
C1241 C1244 1.363 . S
N1242 C1244 1.356 . S
N1242 H1254 0.984 . S
N1242 H1255 0.985 . S
N1243 C1245 1.356 . S
N1243 H1248 0.984 . S
N1243 H1249 0.985 . S
C1244 C1238 1.379 . S
C1244 C1241 1.363 . S
C1244 N1242 1.356 . S
C1245 C1239 1.363 . S
C1245 C1240 1.379 . S
C1245 N1243 1.356 . S
N1246 C1238 1.356 . S
N1246 H1252 0.984 . S
N1246 H1253 0.984 . S
N1247 C1240 1.356 . S
N1247 H1250 0.984 . S
N1247 H1251 0.985 1_545 S
H1248 N1243 0.984 . S
H1249 N1243 0.985 . S
H1250 N1247 0.984 . S
H1251 N1247 0.985 1_565 S
H1252 N1246 0.984 . S
H1253 N1246 0.984 . S
H1254 N1242 0.984 . S
H1255 N1242 0.985 . S
C1256 C1257 1.363 . S
C1256 C1262 1.379 . S
C1256 N1264 1.356 . S
C1257 C1256 1.363 . S
C1257 C1263 1.363 . S
C1258 C1259 1.363 . S
C1258 C1263 1.379 . S
C1258 N1265 1.356 . S
C1259 C1258 1.363 . S
C1259 C1262 1.363 . S
N1260 C1262 1.356 . S
N1260 H1272 0.984 . S
N1260 H1273 0.985 . S
N1261 C1263 1.356 . S
N1261 H1266 0.984 . S
N1261 H1267 0.985 . S
C1262 C1256 1.379 . S
C1262 C1259 1.363 . S
C1262 N1260 1.356 . S
C1263 C1257 1.363 . S
C1263 C1258 1.379 . S
C1263 N1261 1.356 . S
N1264 C1256 1.356 . S
N1264 H1270 0.984 . S
N1264 H1271 0.984 . S
N1265 C1258 1.356 . S
N1265 H1268 0.984 . S
N1265 H1269 0.985 . S
H1266 N1261 0.984 . S
H1267 N1261 0.985 . S
H1268 N1265 0.984 . S
H1269 N1265 0.985 . S
H1270 N1264 0.984 . S
H1271 N1264 0.984 . S
H1272 N1260 0.984 . S
H1273 N1260 0.985 . S
C1274 C1275 1.363 . S
C1274 C1280 1.379 . S
C1274 N1282 1.356 . S
C1275 C1274 1.363 . S
C1275 C1281 1.363 . S
C1276 C1277 1.363 . S
C1276 C1281 1.379 . S
C1276 N1283 1.356 . S
C1277 C1276 1.363 . S
C1277 C1280 1.363 . S
N1278 C1280 1.356 . S
N1278 H1290 0.984 . S
N1278 H1291 0.985 . S
N1279 C1281 1.356 . S
N1279 H1284 0.984 . S
N1279 H1285 0.985 . S
C1280 C1274 1.379 . S
C1280 C1277 1.363 . S
C1280 N1278 1.356 . S
C1281 C1275 1.363 . S
C1281 C1276 1.379 . S
C1281 N1279 1.356 . S
N1282 C1274 1.356 . S
N1282 H1288 0.984 . S
N1282 H1289 0.984 . S
N1283 C1276 1.356 . S
N1283 H1286 0.984 . S
N1283 H1287 0.985 . S
H1284 N1279 0.984 . S
H1285 N1279 0.985 . S
H1286 N1283 0.984 . S
H1287 N1283 0.985 . S
H1288 N1282 0.984 . S
H1289 N1282 0.984 . S
H1290 N1278 0.984 . S
H1291 N1278 0.985 . S
C1292 C1293 1.363 . S
C1292 C1298 1.379 . S
C1292 N1300 1.356 . S
C1293 C1292 1.363 . S
C1293 C1299 1.363 . S
C1294 C1295 1.363 . S
C1294 C1299 1.379 . S
C1294 N1301 1.356 . S
C1295 C1294 1.363 . S
C1295 C1298 1.363 . S
N1296 C1298 1.356 . S
N1296 H1308 0.984 . S
N1296 H1309 0.985 . S
N1297 C1299 1.356 . S
N1297 H1302 0.984 . S
N1297 H1303 0.985 . S
C1298 C1292 1.379 . S
C1298 C1295 1.363 . S
C1298 N1296 1.356 . S
C1299 C1293 1.363 . S
C1299 C1294 1.379 . S
C1299 N1297 1.356 . S
N1300 C1292 1.356 . S
N1300 H1306 0.984 . S
N1300 H1307 0.984 . S
N1301 C1294 1.356 . S
N1301 H1304 0.984 . S
N1301 H1305 0.985 . S
H1302 N1297 0.984 . S
H1303 N1297 0.985 . S
H1304 N1301 0.984 . S
H1305 N1301 0.985 . S
H1306 N1300 0.984 . S
H1307 N1300 0.984 . S
H1308 N1296 0.984 . S
H1309 N1296 0.985 . S
C1310 C1311 1.363 . S
C1310 C1316 1.379 . S
C1310 N1318 1.356 . S
C1311 C1310 1.363 . S
C1311 C1317 1.363 . S
C1312 C1313 1.363 . S
C1312 C1317 1.379 . S
C1312 N1319 1.356 . S
C1313 C1312 1.363 . S
C1313 C1316 1.363 . S
N1314 C1316 1.356 . S
N1314 H1326 0.984 . S
N1314 H1327 0.985 . S
N1315 C1317 1.356 . S
N1315 H1320 0.984 . S
N1315 H1321 0.985 . S
C1316 C1310 1.379 . S
C1316 C1313 1.363 . S
C1316 N1314 1.356 . S
C1317 C1311 1.363 . S
C1317 C1312 1.379 . S
C1317 N1315 1.356 . S
N1318 C1310 1.356 . S
N1318 H1324 0.984 . S
N1318 H1325 0.984 . S
N1319 C1312 1.356 . S
N1319 H1322 0.984 . S
N1319 H1323 0.985 . S
H1320 N1315 0.984 . S
H1321 N1315 0.985 . S
H1322 N1319 0.984 . S
H1323 N1319 0.985 . S
H1324 N1318 0.984 . S
H1325 N1318 0.984 . S
H1326 N1314 0.984 . S
H1327 N1314 0.985 . S
C1328 C1329 1.363 . S
C1328 C1334 1.379 . S
C1328 N1336 1.356 . S
C1329 C1328 1.363 . S
C1329 C1335 1.363 . S
C1330 C1331 1.363 . S
C1330 C1335 1.379 . S
C1330 N1337 1.356 . S
C1331 C1330 1.363 . S
C1331 C1334 1.363 . S
N1332 C1334 1.356 . S
N1332 H1344 0.984 . S
N1332 H1345 0.985 . S
N1333 C1335 1.356 . S
N1333 H1338 0.984 . S
N1333 H1339 0.985 . S
C1334 C1328 1.379 . S
C1334 C1331 1.363 . S
C1334 N1332 1.356 . S
C1335 C1329 1.363 . S
C1335 C1330 1.379 . S
C1335 N1333 1.356 . S
N1336 C1328 1.356 . S
N1336 H1342 0.984 . S
N1336 H1343 0.984 . S
N1337 C1330 1.356 . S
N1337 H1340 0.984 . S
N1337 H1341 0.985 . S
H1338 N1333 0.984 . S
H1339 N1333 0.985 . S
H1340 N1337 0.984 . S
H1341 N1337 0.985 . S
H1342 N1336 0.984 . S
H1343 N1336 0.984 . S
H1344 N1332 0.984 . S
H1345 N1332 0.985 . S
C1346 C1347 1.363 . S
C1346 C1352 1.379 . S
C1346 N1354 1.356 . S
C1347 C1346 1.363 . S
C1347 C1353 1.363 . S
C1348 C1349 1.363 . S
C1348 C1353 1.379 . S
C1348 N1355 1.356 . S
C1349 C1348 1.363 . S
C1349 C1352 1.363 . S
N1350 C1352 1.356 . S
N1350 H1362 0.984 . S
N1350 H1363 0.985 . S
N1351 C1353 1.356 . S
N1351 H1356 0.984 . S
N1351 H1357 0.985 . S
C1352 C1346 1.379 . S
C1352 C1349 1.363 . S
C1352 N1350 1.356 . S
C1353 C1347 1.363 . S
C1353 C1348 1.379 . S
C1353 N1351 1.356 . S
N1354 C1346 1.356 . S
N1354 H1360 0.984 . S
N1354 H1361 0.984 . S
N1355 C1348 1.356 . S
N1355 H1358 0.984 . S
N1355 H1359 0.985 . S
H1356 N1351 0.984 . S
H1357 N1351 0.985 . S
H1358 N1355 0.984 . S
H1359 N1355 0.985 . S
H1360 N1354 0.984 . S
H1361 N1354 0.984 . S
H1362 N1350 0.984 . S
H1363 N1350 0.985 . S
C1364 C1365 1.363 . S
C1364 C1370 1.379 . S
C1364 N1372 1.356 . S
C1365 C1364 1.363 . S
C1365 C1371 1.363 . S
C1366 C1367 1.363 . S
C1366 C1371 1.379 . S
C1366 N1373 1.356 . S
C1367 C1366 1.363 . S
C1367 C1370 1.363 . S
N1368 C1370 1.356 . S
N1368 H1380 0.984 . S
N1368 H1381 0.985 . S
N1369 C1371 1.356 . S
N1369 H1374 0.984 . S
N1369 H1375 0.985 . S
C1370 C1364 1.379 . S
C1370 C1367 1.363 . S
C1370 N1368 1.356 . S
C1371 C1365 1.363 . S
C1371 C1366 1.379 . S
C1371 N1369 1.356 . S
N1372 C1364 1.356 . S
N1372 H1378 0.984 . S
N1372 H1379 0.984 . S
N1373 C1366 1.356 . S
N1373 H1376 0.984 . S
N1373 H1377 0.985 . S
H1374 N1369 0.984 . S
H1375 N1369 0.985 . S
H1376 N1373 0.984 . S
H1377 N1373 0.985 . S
H1378 N1372 0.984 . S
H1379 N1372 0.984 . S
H1380 N1368 0.984 . S
H1381 N1368 0.985 . S
C1382 C1383 1.363 . S
C1382 C1388 1.379 . S
C1382 N1390 1.356 . S
C1383 C1382 1.363 . S
C1383 C1389 1.363 . S
C1384 C1385 1.363 . S
C1384 C1389 1.379 . S
C1384 N1391 1.356 . S
C1385 C1384 1.363 . S
C1385 C1388 1.363 . S
N1386 C1388 1.356 . S
N1386 H1398 0.984 . S
N1386 H1399 0.985 . S
N1387 C1389 1.356 . S
N1387 H1392 0.984 . S
N1387 H1393 0.985 . S
C1388 C1382 1.379 . S
C1388 C1385 1.363 . S
C1388 N1386 1.356 . S
C1389 C1383 1.363 . S
C1389 C1384 1.379 . S
C1389 N1387 1.356 . S
N1390 C1382 1.356 . S
N1390 H1396 0.984 . S
N1390 H1397 0.984 . S
N1391 C1384 1.356 . S
N1391 H1394 0.984 . S
N1391 H1395 0.985 . S
H1392 N1387 0.984 . S
H1393 N1387 0.985 . S
H1394 N1391 0.984 . S
H1395 N1391 0.985 . S
H1396 N1390 0.984 . S
H1397 N1390 0.984 . S
H1398 N1386 0.984 . S
H1399 N1386 0.985 . S
C1400 C1401 1.363 . S
C1400 C1406 1.379 . S
C1400 N1408 1.356 . S
C1401 C1400 1.363 . S
C1401 C1407 1.363 . S
C1402 C1403 1.363 . S
C1402 C1407 1.379 . S
C1402 N1409 1.356 . S
C1403 C1402 1.363 . S
C1403 C1406 1.363 . S
N1404 C1406 1.356 . S
N1404 H1416 0.984 . S
N1404 H1417 0.985 . S
N1405 C1407 1.356 . S
N1405 H1410 0.984 . S
N1405 H1411 0.985 . S
C1406 C1400 1.379 . S
C1406 C1403 1.363 . S
C1406 N1404 1.356 . S
C1407 C1401 1.363 . S
C1407 C1402 1.379 . S
C1407 N1405 1.356 . S
N1408 C1400 1.356 . S
N1408 H1414 0.984 . S
N1408 H1415 0.984 . S
N1409 C1402 1.356 . S
N1409 H1412 0.984 . S
N1409 H1413 0.985 . S
H1410 N1405 0.984 . S
H1411 N1405 0.985 . S
H1412 N1409 0.984 . S
H1413 N1409 0.985 . S
H1414 N1408 0.984 . S
H1415 N1408 0.984 . S
H1416 N1404 0.984 . S
H1417 N1404 0.985 . S
C1418 C1419 1.363 . S
C1418 C1424 1.379 . S
C1418 N1426 1.356 . S
C1419 C1418 1.363 . S
C1419 C1425 1.363 . S
C1420 C1421 1.363 . S
C1420 C1425 1.379 . S
C1420 N1427 1.356 . S
C1421 C1420 1.363 . S
C1421 C1424 1.363 . S
N1422 C1424 1.356 . S
N1422 H1434 0.984 . S
N1422 H1435 0.985 . S
N1423 C1425 1.356 . S
N1423 H1428 0.984 . S
N1423 H1429 0.985 . S
C1424 C1418 1.379 . S
C1424 C1421 1.363 . S
C1424 N1422 1.356 . S
C1425 C1419 1.363 . S
C1425 C1420 1.379 . S
C1425 N1423 1.356 . S
N1426 C1418 1.356 . S
N1426 H1432 0.984 . S
N1426 H1433 0.984 . S
N1427 C1420 1.356 . S
N1427 H1430 0.984 . S
N1427 H1431 0.985 . S
H1428 N1423 0.984 . S
H1429 N1423 0.985 . S
H1430 N1427 0.984 . S
H1431 N1427 0.985 . S
H1432 N1426 0.984 . S
H1433 N1426 0.984 . S
H1434 N1422 0.984 . S
H1435 N1422 0.985 . S
C1436 C1437 1.363 . S
C1436 C1442 1.379 . S
C1436 N1444 1.356 . S
C1437 C1436 1.363 . S
C1437 C1443 1.363 . S
C1438 C1439 1.363 . S
C1438 C1443 1.379 . S
C1438 N1445 1.356 . S
C1439 C1438 1.363 . S
C1439 C1442 1.363 . S
N1440 C1442 1.356 . S
N1440 H1452 0.984 . S
N1440 H1453 0.985 . S
N1441 C1443 1.356 . S
N1441 H1446 0.984 . S
N1441 H1447 0.985 . S
C1442 C1436 1.379 . S
C1442 C1439 1.363 . S
C1442 N1440 1.356 . S
C1443 C1437 1.363 . S
C1443 C1438 1.379 . S
C1443 N1441 1.356 . S
N1444 C1436 1.356 . S
N1444 H1450 0.984 . S
N1444 H1451 0.984 . S
N1445 C1438 1.356 . S
N1445 H1448 0.984 . S
N1445 H1449 0.985 . S
H1446 N1441 0.984 . S
H1447 N1441 0.985 . S
H1448 N1445 0.984 . S
H1449 N1445 0.985 . S
H1450 N1444 0.984 . S
H1451 N1444 0.984 . S
H1452 N1440 0.984 . S
H1453 N1440 0.985 . S
C1454 C1455 1.363 . S
C1454 C1460 1.379 . S
C1454 N1462 1.356 . S
C1455 C1454 1.363 . S
C1455 C1461 1.363 . S
C1456 C1457 1.363 . S
C1456 C1461 1.379 . S
C1456 N1463 1.356 . S
C1457 C1456 1.363 . S
C1457 C1460 1.363 . S
N1458 C1460 1.356 . S
N1458 H1470 0.984 . S
N1458 H1471 0.985 . S
N1459 C1461 1.356 . S
N1459 H1464 0.984 . S
N1459 H1465 0.985 . S
C1460 C1454 1.379 . S
C1460 C1457 1.363 . S
C1460 N1458 1.356 . S
C1461 C1455 1.363 . S
C1461 C1456 1.379 . S
C1461 N1459 1.356 . S
N1462 C1454 1.356 . S
N1462 H1468 0.984 . S
N1462 H1469 0.984 . S
N1463 C1456 1.356 . S
N1463 H1466 0.984 . S
N1463 H1467 0.985 . S
H1464 N1459 0.984 . S
H1465 N1459 0.985 . S
H1466 N1463 0.984 . S
H1467 N1463 0.985 . S
H1468 N1462 0.984 . S
H1469 N1462 0.984 . S
H1470 N1458 0.984 . S
H1471 N1458 0.985 . S
C465 C5 2.780 . S
C467 C382 2.780 . S
C483 C324 2.780 . S
C485 C34 2.780 . S
C501 C63 2.780 . S
C503 C353 2.780 . S
C519 C92 2.780 . S
C521 C295 2.780 . S
C537 C440 2.780 . S
C539 C121 2.780 . S
C555 C150 2.780 . S
C557 C266 2.780 . S
C573 C411 2.780 . S
C575 C179 2.780 . S
C591 C208 2.780 . S
C593 C237 2.780 . S
C609 C102 1.398 . S
C611 C3 1.450 . S
C627 C15 1.398 . S
C629 C32 1.450 . S
C645 C44 1.398 . S
C647 C61 1.451 . S
C663 C90 1.451 . S
C665 C73 1.398 . S
C681 C160 1.398 . S
C683 C119 1.450 . S
C699 C189 1.398 . S
C701 C148 1.451 . S
C717 C218 1.398 . S
C719 C177 1.451 . S
C735 C131 1.398 . S
C737 C206 1.450 . S
C753 C137 1.451 . S
C755 C269 1.781 . S
C771 C253 1.451 . S
C773 C124 1.755 1_545 S
C789 C195 1.451 . S
C791 C240 1.755 . S
C807 C282 1.451 . S
C809 C182 1.755 1_565 S
C825 C298 1.781 . S
C827 C21 1.451 . S
C843 C66 1.755 1_545 S
C845 C311 1.451 . S
C861 C327 1.755 . S
C863 C79 1.451 . S
C879 C8 1.755 1_565 S
C881 C340 1.451 . S
C897 C334 1.398 . S
C899 C351 1.451 . S
C915 C363 1.398 . S
C917 C293 1.450 . S
C933 C380 1.451 1_655 S
C935 C305 1.398 . S
C951 C322 1.450 . S
C953 C392 1.398 . S
C969 C409 1.450 . S
C971 C247 1.398 . S
C987 C450 1.398 . S
C989 C235 1.451 . S
C1005 C276 1.398 . S
C1007 C438 1.451 1_655 S
C1023 C421 1.398 . S
C1025 C264 1.450 . S
C1041 C211 1.755 . S
C1043 C427 1.451 . S
C1059 C414 1.755 . S
C1061 C166 1.451 . S
C1077 C456 1.451 . S
C1079 C153 1.781 . S
C1095 C224 1.451 . S
C1097 C443 1.755 . S
C1113 C37 1.755 . S
C1115 C369 1.451 . S
C1131 C50 1.451 . S
C1133 C385 1.755 . S
C1149 C398 1.451 . S
C1151 C95 1.781 . S
C1167 C356 1.755 . S
C1169 C108 1.451 . S
C1185 C158 1.095 . S
C1187 C13 1.095 . S
C1203 C187 1.095 . S
C1205 C42 1.095 . S
C1221 C216 1.095 . S
C1223 C71 1.095 . S
C1239 C100 1.095 . S
C1241 C129 1.095 . S
C1257 C126 1.907 . S
C1259 C300 1.907 . S
C1275 C242 1.907 . S
C1277 C68 1.907 . S
C1293 C329 1.907 . S
C1295 C184 1.907 . S
C1311 C10 1.907 . S
C1313 C271 1.907 . S
C1329 C361 1.095 . S
C1331 C245 1.095 . S
C1347 C303 1.095 . S
C1349 C448 1.095 . S
C1365 C390 1.095 . S
C1367 C274 1.095 . S
C1383 C419 1.095 . S
C1385 C332 1.095 . S
C1401 C39 1.907 . S
C1403 C416 1.907 . S
C1419 C387 1.907 . S
C1421 C155 1.907 . S
C1437 C97 1.907 . S
C1439 C445 1.907 . S
C1455 C213 1.907 . S
C1457 C358 1.907 . S
