# Generated by pormake.
# Topology vby, (6)-cn, num edge types: 1
# Building blocks:
#     Node 0, Type 0, BuildingBlock: HISSIN_clean_sbu_0, # of connection points: 6
#     Node 1, Type 0, BuildingBlock: HISSIN_clean_sbu_0, # of connection points: 6
#     Node 2, Type 0, BuildingBlock: HISSIN_clean_sbu_0, # of connection points: 6
#     Node 3, Type 0, BuildingBlock: HISSIN_clean_sbu_0, # of connection points: 6
#     Node 4, Type 0, BuildingBlock: HISSIN_clean_sbu_0, # of connection points: 6
#     Node 5, Type 0, BuildingBlock: HISSIN_clean_sbu_0, # of connection points: 6
#     Node 6, Type 0, BuildingBlock: HISSIN_clean_sbu_0, # of connection points: 6
#     Node 7, Type 0, BuildingBlock: HISSIN_clean_sbu_0, # of connection points: 6
#     Edge 8, Type (0, 0), BuildingBlock: XIVTED_clean_linker_0, # of connection points: 2
#     Edge 9, Type (0, 0), BuildingBlock: XIVTED_clean_linker_0, # of connection points: 2
#     Edge 10, Type (0, 0), BuildingBlock: XIVTED_clean_linker_0, # of connection points: 2
#     Edge 11, Type (0, 0), BuildingBlock: XIVTED_clean_linker_0, # of connection points: 2
#     Edge 12, Type (0, 0), BuildingBlock: XIVTED_clean_linker_0, # of connection points: 2
#     Edge 13, Type (0, 0), BuildingBlock: XIVTED_clean_linker_0, # of connection points: 2
#     Edge 14, Type (0, 0), BuildingBlock: XIVTED_clean_linker_0, # of connection points: 2
#     Edge 15, Type (0, 0), BuildingBlock: XIVTED_clean_linker_0, # of connection points: 2
#     Edge 16, Type (0, 0), BuildingBlock: XIVTED_clean_linker_0, # of connection points: 2
#     Edge 17, Type (0, 0), BuildingBlock: XIVTED_clean_linker_0, # of connection points: 2
#     Edge 18, Type (0, 0), BuildingBlock: XIVTED_clean_linker_0, # of connection points: 2
#     Edge 19, Type (0, 0), BuildingBlock: XIVTED_clean_linker_0, # of connection points: 2
#     Edge 20, Type (0, 0), BuildingBlock: XIVTED_clean_linker_0, # of connection points: 2
#     Edge 21, Type (0, 0), BuildingBlock: XIVTED_clean_linker_0, # of connection points: 2
#     Edge 22, Type (0, 0), BuildingBlock: XIVTED_clean_linker_0, # of connection points: 2
#     Edge 23, Type (0, 0), BuildingBlock: XIVTED_clean_linker_0, # of connection points: 2
#     Edge 24, Type (0, 0), BuildingBlock: XIVTED_clean_linker_0, # of connection points: 2
#     Edge 25, Type (0, 0), BuildingBlock: XIVTED_clean_linker_0, # of connection points: 2
#     Edge 26, Type (0, 0), BuildingBlock: XIVTED_clean_linker_0, # of connection points: 2
#     Edge 27, Type (0, 0), BuildingBlock: XIVTED_clean_linker_0, # of connection points: 2
#     Edge 28, Type (0, 0), BuildingBlock: XIVTED_clean_linker_0, # of connection points: 2
#     Edge 29, Type (0, 0), BuildingBlock: XIVTED_clean_linker_0, # of connection points: 2
#     Edge 30, Type (0, 0), BuildingBlock: XIVTED_clean_linker_0, # of connection points: 2
#     Edge 31, Type (0, 0), BuildingBlock: XIVTED_clean_linker_0, # of connection points: 2
# Relax obj value: 0.199
# Max RMSD: 0.218
# Mean RMSD: 0.218
data_MOF--net-vby--node1-HISSIN_clean_sbu_0--edge1-XIVTED_clean_linker_0
_symmetry_space_group_name_H-M    P1
_symmetry_Int_Tables_number       1
_symmetry_cell_setting            triclinic
loop_
_symmetry_equiv_pos_as_xyz
'x, y, z'
_cell_length_a     15.594128
_cell_length_b     105.98413
_cell_length_c     30.262582
_cell_angle_alpha  90.035141
_cell_angle_beta   91.833776
_cell_angle_gamma 89.998513
loop_
_atom_site_label
_atom_site_type_symbol
_atom_site_fract_x
_atom_site_fract_y
_atom_site_fract_z
_atom_type_partial_charge
Eu0 Eu 0.11482 0.36382 -0.00298 0.0
Eu1 Eu 0.12122 0.39531 0.99189 0.0
C2 C 0.10125 0.37856 0.9065 0.0
C3 C 0.1565 0.32715 0.00466 0.0
C4 C 0.17931 0.32004 0.96765 0.0
C5 C 0.20336 0.30971 0.05206 0.0
C6 C 0.21267 0.30789 0.97265 0.0
C7 C 0.16976 0.32191 0.04702 0.0
C8 C 0.22391 0.30246 0.01484 0.0
C9 C 0.10883 0.33912 -0.00214 0.0
O10 O 0.97988 0.39075 0.98446 0.0
O11 O 0.97876 0.36991 0.00722 0.0
C12 C 0.93893 0.38043 -0.00401 0.0
O13 O 0.14689 0.37118 0.06539 0.0
O14 O 0.09893 0.41265 0.95429 0.0
O15 O 0.16448 0.41342 0.01875 0.0
O16 O 0.07779 0.39022 0.05961 0.0
C17 C 0.10794 0.38079 0.08354 0.0
O18 O 0.25234 0.36857 0.98324 0.0
O19 O 0.2556 0.38894 0.00924 0.0
O20 O 0.14989 0.38723 0.92525 0.0
O21 O 0.0919 0.34613 0.03203 0.0
O22 O 0.12584 0.34581 0.96304 0.0
O23 O 0.06333 0.37011 0.93058 0.0
C24 C 0.09793 0.4325 0.99198 0.0
C25 C 0.09778 0.43806 0.0342 0.0
C26 C 0.05217 0.45254 0.9599 0.0
C27 C 0.07623 0.45081 0.03908 0.0
C28 C 0.0736 0.43983 0.95507 0.0
C29 C 0.05478 0.45827 0.00186 0.0
C30 C 0.13464 0.41982 0.98476 0.0
C31 C 0.29478 0.37869 -0.00367 0.0
H32 H 0.16826 0.32369 0.93452 0.0
H33 H 0.212 0.30588 0.08507 0.0
H34 H 0.22609 0.30255 0.94314 0.0
H35 H 0.15193 0.32708 0.07622 0.0
H36 H 0.11694 0.4327 0.06331 0.0
H37 H 0.03746 0.458 0.93039 0.0
H38 H 0.07789 0.45488 0.07192 0.0
H39 H 0.0747 0.43587 0.92206 0.0
Eu40 Eu 0.95382 0.61634 0.98475 0.0
Eu41 Eu 0.96069 0.64783 0.99055 0.0
C42 C 0.9685 0.6331 0.90004 0.0
C43 C 0.9727 0.57895 0.98425 0.0
C44 C 0.99194 0.57156 0.94736 0.0
C45 C 0.98901 0.56028 0.0308 0.0
C46 C 1.00728 0.55864 0.95188 0.0
C47 C 0.97328 0.57325 0.02625 0.0
C48 C 1.00345 0.55278 -0.00658 0.0
C49 C 0.939 0.59185 0.97689 0.0
O50 O 0.82164 0.64315 0.97553 0.0
O51 O 0.82077 0.62267 0.00045 0.0
C52 C 0.78042 0.63299 0.98788 0.0
O53 O 1.00087 0.62135 0.0534 0.0
O54 O 0.946 0.66585 0.9566 0.0
O55 O 0.98805 0.66549 0.02573 0.0
O56 O 0.93236 0.64043 0.05823 0.0
C57 C 0.97139 0.63073 0.07694 0.0
O58 O 0.09455 0.6209 0.97916 0.0
O59 O 0.09755 0.64169 0.00264 0.0
O60 O 1.00773 0.64155 0.92485 0.0
O61 O 0.91108 0.59825 0.0104 0.0
O62 O 0.97455 0.59898 0.94746 0.0
O63 O 0.92033 0.6245 0.91787 0.0
C64 C 0.92169 0.68454 -0.00183 0.0
C65 C 0.90213 0.68897 0.04049 0.0
C66 C 0.87335 0.70456 0.96701 0.0
C67 C 0.86918 0.70116 0.04599 0.0
C68 C 0.90607 0.69243 0.96156 0.0
C69 C 0.8555 0.70917 0.00932 0.0
C70 C 0.96759 0.6725 0.99151 0.0
C71 C 0.13648 0.63119 0.99143 0.0
H72 H 0.99113 0.57566 0.91456 0.0
H73 H 0.98531 0.55603 0.06322 0.0
H74 H 1.01962 0.55315 0.92255 0.0
H75 H 0.95785 0.57866 0.05529 0.0
H76 H 0.91416 0.68315 0.06945 0.0
H77 H 0.86534 0.7105 0.93807 0.0
H78 H 0.85535 0.70436 0.079 0.0
H79 H 0.92206 0.68937 0.92865 0.0
Eu80 Eu 0.12147 0.6149 0.48815 0.0
Eu81 Eu 0.11787 0.64639 0.49337 0.0
C82 C 0.11003 0.62945 0.57985 0.0
C83 C 0.09958 0.57755 0.48766 0.0
C84 C 0.10655 0.57159 0.52916 0.0
C85 C 0.05651 0.55752 0.45455 0.0
C86 C 0.09038 0.55863 0.53306 0.0
C87 C 0.07231 0.57043 0.45068 0.0
C88 C 0.06794 0.55139 0.49549 0.0
C89 C 0.13384 0.59039 0.48074 0.0
O90 O 0.2552 0.64142 0.47995 0.0
O91 O 0.2562 0.62103 0.50575 0.0
C92 C 0.29651 0.6312 0.493 0.0
O93 O 0.15157 0.62295 0.42171 0.0
O94 O 0.09385 0.66413 0.52833 0.0
O95 O 0.13164 0.66436 0.45981 0.0
O96 O 0.06597 0.64016 0.42696 0.0
C97 C 0.10358 0.63167 0.40292 0.0
O98 O 0.98046 0.61969 0.48081 0.0
O99 O 0.98148 0.64053 0.50362 0.0
O100 O 0.14961 0.639 0.5617 0.0
O101 O 0.09689 0.59757 0.45069 0.0
O102 O 0.1646 0.59676 0.51464 0.0
O103 O 0.07888 0.62007 0.55593 0.0
C104 C 0.15766 0.68316 0.50178 0.0
C105 C 0.22505 0.68695 0.475 0.0
C106 C 0.15555 0.7042 0.53399 0.0
C107 C 0.25582 0.69936 0.47695 0.0
C108 C 0.12468 0.69182 0.53195 0.0
C109 C 0.21985 0.70822 0.50564 0.0
C110 C 0.11229 0.67107 0.49429 0.0
C111 C 0.94058 0.63009 0.4924 0.0
H112 H 0.12835 0.57677 0.55825 0.0
H113 H 0.03796 0.55223 0.42511 0.0
H114 H 0.10009 0.55417 0.56503 0.0
H115 H 0.06722 0.57472 0.41821 0.0
H116 H 0.25178 0.68051 0.45132 0.0
H117 H 0.12579 0.71079 0.55618 0.0
H118 H 0.30639 0.70209 0.45518 0.0
H119 H 0.072 0.68919 0.55255 0.0
Eu120 Eu 0.95564 0.36253 0.49406 0.0
Eu121 Eu 0.94881 0.39398 0.48834 0.0
C122 C 0.96681 0.3796 0.58053 0.0
C123 C 0.91915 0.32564 0.50201 0.0
C124 C 0.91881 0.31995 0.544 0.0
C125 C 0.86268 0.30619 0.46972 0.0
C126 C 0.89202 0.30741 0.54862 0.0
C127 C 0.88895 0.3187 0.46513 0.0
C128 C 0.86623 0.30029 0.51129 0.0
C129 C 0.96293 0.33785 0.49506 0.0
O130 O 0.08947 0.38944 0.48245 0.0
O131 O 0.09258 0.36867 0.50589 0.0
C132 C 0.13146 0.37915 0.49463 0.0
O133 O 1.00263 0.36875 0.4283 0.0
O134 O 0.90775 0.41212 0.51449 0.0
O135 O 0.96803 0.41129 0.45074 0.0
O136 O 0.91564 0.38584 0.42132 0.0
C137 C 0.96369 0.37721 0.40349 0.0
O138 O 0.81659 0.3672 0.47907 0.0
O139 O 0.81568 0.38768 0.50397 0.0
O140 O 0.99627 0.38896 0.55694 0.0
O141 O 0.93993 0.34449 0.46035 0.0
O142 O 0.98419 0.34488 0.52916 0.0
O143 O 0.92752 0.36991 0.56182 0.0
C144 C 0.97219 0.43116 0.48828 0.0
C145 C 0.98963 0.43868 0.4515 0.0
C146 C 1.00227 0.44924 0.53609 0.0
C147 C 1.01178 0.45136 0.45677 0.0
C148 C 0.97998 0.4365 0.53078 0.0
C149 C 1.01684 0.45688 0.49905 0.0
C150 C 0.93478 0.41849 0.48075 0.0
C151 C 0.77535 0.37736 0.49138 0.0
H152 H 0.94276 0.32498 0.57301 0.0
H153 H 0.84193 0.30101 0.44043 0.0
H154 H 0.89584 0.30309 0.58106 0.0
H155 H 0.88923 0.32274 0.43225 0.0
H156 H 0.98259 0.43487 0.41833 0.0
H157 H 1.00662 0.45314 0.56916 0.0
H158 H 1.02103 0.45697 0.4274 0.0
H159 H 0.96632 0.43097 0.5598 0.0
Eu160 Eu 0.61833 0.86368 0.00902 0.0
Eu161 Eu 0.6214 0.89528 0.0024 0.0
C162 C 0.60488 0.87806 0.91761 0.0
C163 C 0.66112 0.82697 0.01819 0.0
C164 C 0.70761 0.82162 0.9838 0.0
C165 C 0.67847 0.80737 0.0596 0.0
C166 C 0.73697 0.80918 0.98677 0.0
C167 C 0.64859 0.81981 0.05654 0.0
C168 C 0.72051 0.80179 0.02412 0.0
C169 C 0.61397 0.83898 0.01129 0.0
O170 O 0.48065 0.89036 -0.00489 0.0
O171 O 0.4816 0.86955 0.01824 0.0
C172 C 0.44079 0.87996 0.00672 0.0
O173 O 0.64716 0.87128 0.07736 0.0
O174 O 0.59764 0.91239 0.96373 0.0
O175 O 0.66255 0.91361 0.02827 0.0
O176 O 0.57945 0.89046 0.07062 0.0
C177 C 0.60874 0.88103 0.09489 0.0
O178 O 0.75554 0.86867 -0.00444 0.0
O179 O 0.75643 0.88924 0.01979 0.0
O180 O 0.65062 0.88711 0.93602 0.0
O181 O 0.59816 0.84608 0.04535 0.0
O182 O 0.62938 0.84556 0.976 0.0
O183 O 0.56856 0.86947 0.94175 0.0
C184 C 0.59574 0.9325 -0.00023 0.0
C185 C 0.59404 0.9383 0.04155 0.0
C186 C 0.55165 0.95237 0.96585 0.0
C187 C 0.57254 0.95109 0.04531 0.0
C188 C 0.57298 0.93963 0.96213 0.0
C189 C 0.55275 0.95835 0.00738 0.0
C190 C 0.63268 0.91978 -0.00625 0.0
C191 C 0.79671 0.87898 0.00776 0.0
H192 H 0.718 0.82681 0.95364 0.0
H193 H 0.66432 0.80189 0.0887 0.0
H194 H 0.77028 0.8052 0.95915 0.0
H195 H 0.61195 0.8236 0.08331 0.0
H196 H 0.61196 0.93309 0.0712 0.0
H197 H 0.53825 0.95766 0.93582 0.0
H198 H 0.57298 0.95534 0.07786 0.0
H199 H 0.57532 0.93548 0.92945 0.0
Eu200 Eu 0.45104 0.11635 0.98417 0.0
Eu201 Eu 0.4577 0.14784 0.99132 0.0
C202 C 0.46674 0.13341 0.90011 0.0
C203 C 0.47003 0.07899 0.98354 0.0
C204 C 0.4903 0.07154 0.94698 0.0
C205 C 0.48579 0.06043 0.03064 0.0
C206 C 0.50594 0.05863 0.95191 0.0
C207 C 0.46981 0.07338 0.02566 0.0
C208 C 0.50136 0.05285 -0.00643 0.0
C209 C 0.43632 0.09187 0.97569 0.0
O210 O 0.31883 0.14321 0.97575 0.0
O211 O 0.31787 0.12265 -0.00015 0.0
C212 C 0.27757 0.133 0.98762 0.0
O213 O 0.49823 0.12114 0.053 0.0
O214 O 0.44297 0.166 0.95852 0.0
O215 O 0.48488 0.16536 0.02762 0.0
O216 O 0.42949 0.14018 0.05866 0.0
C217 C 0.46883 0.13043 0.07694 0.0
O218 O 0.59179 0.12094 0.97907 0.0
O219 O 0.59471 0.1417 0.0029 0.0
O220 O 0.50507 0.14184 0.92537 0.0
O221 O 0.40671 0.09824 0.00885 0.0
O222 O 0.4733 0.09904 0.94683 0.0
O223 O 0.41878 0.12468 0.91739 0.0
C224 C 0.41957 0.18464 0.00108 0.0
C225 C 0.42654 0.19081 0.04222 0.0
C226 C 0.35355 0.20354 0.96942 0.0
C227 C 0.39865 0.20331 0.04667 0.0
C228 C 0.38091 0.19107 0.96502 0.0
C229 C 0.36436 0.20992 0.00992 0.0
C230 C 0.46444 0.17252 -0.00623 0.0
C231 C 0.63366 0.13122 0.9915 0.0
H232 H 0.49015 0.07557 0.91409 0.0
H233 H 0.48145 0.05625 0.06314 0.0
H234 H 0.51918 0.05309 0.92281 0.0
H235 H 0.45361 0.07884 0.05447 0.0
H236 H 0.45714 0.1862 0.0705 0.0
H237 H 0.32622 0.20833 0.94065 0.0
H238 H 0.40826 0.208 0.07825 0.0
H239 H 0.37526 0.18667 0.93274 0.0
Eu240 Eu 0.6182 0.11521 0.4868 0.0
Eu241 Eu 0.61504 0.14665 0.49463 0.0
C242 C 0.60669 0.12911 0.57975 0.0
C243 C 0.59415 0.078 0.48461 0.0
C244 C 0.60642 0.07184 0.52546 0.0
C245 C 0.54038 0.05834 0.4526 0.0
C246 C 0.58752 0.05899 0.52955 0.0
C247 C 0.55937 0.07117 0.44851 0.0
C248 C 0.55633 0.05202 0.49286 0.0
C249 C 0.62964 0.09075 0.47718 0.0
O250 O 0.75214 0.14171 0.48059 0.0
O251 O 0.75296 0.1212 0.50503 0.0
C252 C 0.79338 0.13143 0.49298 0.0
O253 O 0.64818 0.1237 0.42107 0.0
O254 O 0.59334 0.16414 0.53113 0.0
O255 O 0.62827 0.16484 0.46232 0.0
O256 O 0.56273 0.14088 0.42773 0.0
C257 C 0.59998 0.13252 0.40299 0.0
O258 O 0.47722 0.12009 0.48039 0.0
O259 O 0.47847 0.14082 0.5045 0.0
O260 O 0.64627 0.13878 0.56236 0.0
O261 O 0.5907 0.09813 0.4484 0.0
O262 O 0.66355 0.09693 0.51075 0.0
O263 O 0.57592 0.11985 0.55512 0.0
C264 C 0.66019 0.18316 0.5058 0.0
C265 C 0.69149 0.18994 0.46983 0.0
C266 C 0.6994 0.20082 0.55399 0.0
C267 C 0.72509 0.20205 0.47568 0.0
C268 C 0.66554 0.18866 0.5481 0.0
C269 C 0.72807 0.20776 0.51768 0.0
C270 C 0.61148 0.17133 0.49767 0.0
C271 C 0.43748 0.13044 0.4927 0.0
H272 H 0.63379 0.07679 0.55387 0.0
H273 H 0.5174 0.05325 0.42353 0.0
H274 H 0.59935 0.05445 0.56121 0.0
H275 H 0.55063 0.0756 0.41642 0.0
H276 H 0.68677 0.1861 0.43666 0.0
H277 H 0.70161 0.20486 0.58688 0.0
H278 H 0.74502 0.20716 0.44678 0.0
H279 H 0.64102 0.18377 0.57644 0.0
Eu280 Eu 0.46005 0.86257 0.50038 0.0
Eu281 Eu 0.45336 0.8941 0.50868 0.0
C282 C 0.47246 0.87668 0.59244 0.0
C283 C 0.4219 0.82582 0.49047 0.0
C284 C 0.35486 0.82208 0.51756 0.0
C285 C 0.42298 0.80476 0.45839 0.0
C286 C 0.32375 0.8097 0.51584 0.0
C287 C 0.45418 0.81713 0.46022 0.0
C288 C 0.35901 0.8008 0.48703 0.0
C289 C 0.46756 0.8379 0.49756 0.0
O290 O 0.59484 0.88951 0.51472 0.0
O291 O 0.59603 0.86874 0.49112 0.0
C292 C 0.63574 0.87924 0.50268 0.0
O293 O 0.43209 0.87028 0.43202 0.0
O294 O 0.48005 0.91121 0.54708 0.0
O295 O 0.40545 0.91231 0.48528 0.0
O296 O 0.49471 0.88983 0.43999 0.0
C297 C 0.46761 0.88038 0.41517 0.0
O298 O 0.32202 0.86713 0.51355 0.0
O299 O 0.3191 0.88782 0.49075 0.0
O300 O 0.42497 0.8856 0.57453 0.0
O301 O 0.48199 0.84507 0.46353 0.0
O302 O 0.45135 0.84438 0.53299 0.0
O303 O 0.50978 0.8683 0.5678 0.0
C304 C 0.47446 0.93132 0.51087 0.0
C305 C 0.46143 0.93742 0.46995 0.0
C306 C 0.52832 0.95104 0.54234 0.0
C307 C 0.48007 0.95027 0.46557 0.0
C308 C 0.50958 0.93821 0.54673 0.0
C309 C 0.51177 0.9573 0.50201 0.0
C310 C 0.43978 0.91854 0.51863 0.0
C311 C 0.27983 0.8774 0.50191 0.0
H312 H 0.32865 0.82857 0.54129 0.0
H313 H 0.4522 0.79815 0.43611 0.0
H314 H 0.27345 0.80701 0.53783 0.0
H315 H 0.50655 0.81973 0.43936 0.0
H316 H 0.43379 0.93241 0.44173 0.0
H317 H 0.55168 0.95617 0.57124 0.0
H318 H 0.46775 0.95476 0.43387 0.0
H319 H 0.51891 0.93383 0.57886 0.0
H320 H 0.40341 0.35858 0.98557 0.0
H321 H 0.82952 0.40075 0.98967 0.0
H322 H 0.40291 0.39889 0.00669 0.0
H323 H 0.83146 0.36015 0.002 0.0
H324 H 0.67251 0.40034 0.98955 0.0
H325 H 0.56029 0.35905 0.98521 0.0
C326 C 0.43615 0.36752 0.99011 0.0
C327 C 0.38979 0.3787 -0.00371 0.0
C328 C 0.70746 0.39153 0.99236 0.0
C329 C 0.56929 0.37931 -0.00435 0.0
C330 C 0.79709 0.39176 0.99231 0.0
C331 C 0.84392 0.38048 -0.00403 0.0
C332 C 0.66433 0.37994 -0.00439 0.0
C333 C 0.79825 0.3691 -0.00064 0.0
C334 C 0.52574 0.36778 0.99001 0.0
C335 C 0.43585 0.39002 0.00205 0.0
N336 N 0.71114 0.36912 -0.00105 0.0
N337 N 0.52293 0.39003 0.00144 0.0
H338 H 0.24524 0.61097 0.98361 0.0
H339 H 0.67053 0.6532 0.97916 0.0
H340 H 0.24461 0.65148 -0.00085 0.0
H341 H 0.67352 0.61277 -0.0033 0.0
H342 H 0.51355 0.65277 0.98017 0.0
H343 H 0.40202 0.61144 0.98238 0.0
C344 C 0.27793 0.61996 0.98681 0.0
C345 C 0.23151 0.63119 0.99159 0.0
C346 C 0.54873 0.644 0.98385 0.0
C347 C 0.41094 0.6318 0.98988 0.0
C348 C 0.63831 0.64424 0.98313 0.0
C349 C 0.68542 0.63302 0.98796 0.0
C350 C 0.50592 0.63245 0.98897 0.0
C351 C 0.64007 0.62168 -0.00691 0.0
C352 C 0.36746 0.62022 0.98618 0.0
C353 C 0.27754 0.64256 -0.00438 0.0
N354 N 0.55299 0.62168 -0.00667 0.0
N355 N 0.36457 0.64258 -0.00551 0.0
H356 H 0.83565 0.65064 0.49877 0.0
H357 H 0.40212 0.61074 0.50366 0.0
H358 H 0.82865 0.61005 0.4862 0.0
H359 H 0.40768 0.65103 0.48253 0.0
H360 H 0.55852 0.61036 0.50333 0.0
H361 H 0.6794 0.65095 0.49885 0.0
C362 C 0.80137 0.64177 0.49612 0.0
C363 C 0.84561 0.63028 0.49251 0.0
C364 C 0.52553 0.61928 0.49871 0.0
C365 C 0.6661 0.63062 0.49266 0.0
C366 C 0.43613 0.61953 0.49906 0.0
C367 C 0.39148 0.63095 0.49315 0.0
C368 C 0.57098 0.63054 0.49282 0.0
C369 C 0.43927 0.64201 0.48712 0.0
C370 C 0.71199 0.64198 0.496 0.0
C371 C 0.79737 0.61912 0.48894 0.0
N372 N 0.52645 0.64153 0.48728 0.0
N373 N 0.71018 0.61957 0.48929 0.0
H374 H 0.6655 0.35716 0.48234 0.0
H375 H 0.24016 0.39938 0.48683 0.0
H376 H 0.66843 0.39759 0.50022 0.0
H377 H 0.23959 0.35887 0.50209 0.0
H378 H 0.39694 0.39892 0.48557 0.0
H379 H 0.50851 0.35759 0.48315 0.0
C380 C 0.63327 0.36612 0.48635 0.0
C381 C 0.68035 0.37734 0.49134 0.0
C382 C 0.36239 0.39014 0.48931 0.0
C383 C 0.50085 0.37791 0.49211 0.0
C384 C 0.27286 0.3904 0.48995 0.0
C385 C 0.22647 0.37916 0.49469 0.0
C386 C 0.40588 0.37855 0.49295 0.0
C387 C 0.27251 0.36779 0.49862 0.0
C388 C 0.54368 0.36636 0.48695 0.0
C389 C 0.63499 0.38868 0.4965 0.0
N390 N 0.35953 0.36777 0.49749 0.0
N391 N 0.5479 0.38868 0.49662 0.0
H392 H 0.90249 0.89948 0.01709 0.0
H393 H 0.33566 0.85944 0.01325 0.0
H394 H 0.90773 0.8591 -0.00189 0.0
H395 H 0.32902 0.90001 -0.0001 0.0
H396 H 0.1794 0.85916 0.01326 0.0
H397 H 0.05888 0.89983 0.01642 0.0
C398 C 0.93643 0.89067 0.01289 0.0
C399 C 0.89169 0.87922 0.00772 0.0
C400 C 0.21207 0.86813 0.01025 0.0
C401 C 0.07116 0.8796 0.00698 0.0
C402 C 0.30146 0.86832 0.01041 0.0
C403 C 0.34581 0.87979 0.00664 0.0
C404 C 0.16628 0.87949 0.00671 0.0
C405 C 0.29766 0.89095 0.0028 0.0
C406 C 1.02582 0.8909 0.01234 0.0
C407 C 0.93938 0.86814 0.00216 0.0
N408 N 0.21048 0.89052 0.00312 0.0
N409 N 1.02654 0.86859 0.00211 0.0
H410 H 0.16776 0.15324 0.97947 0.0
H411 H 0.74236 0.11101 0.98323 0.0
H412 H 0.17058 0.11276 -0.00419 0.0
H413 H 0.74185 0.1515 -0.00043 0.0
H414 H 0.89911 0.11148 0.98186 0.0
H415 H 1.01079 0.15282 0.98056 0.0
C416 C 0.13551 0.14427 0.98319 0.0
C417 C 0.18256 0.13303 0.98767 0.0
C418 C 0.86459 0.12025 0.98587 0.0
C419 C 1.00307 0.13248 0.98878 0.0
C420 C 0.77507 0.12 0.98658 0.0
C421 C 0.72869 0.13122 0.99163 0.0
C422 C 0.9081 0.13184 0.98976 0.0
C423 C 0.77475 0.14259 -0.00415 0.0
C424 C 0.04593 0.14404 0.98396 0.0
C425 C 0.13717 0.12168 0.99248 0.0
N426 N 0.86177 0.14261 -0.00536 0.0
N427 N 0.0501 0.12169 -0.00722 0.0
H428 H 0.33248 0.15093 0.50063 0.0
H429 H 0.89903 0.11093 0.50234 0.0
H430 H 0.32563 0.11042 0.4852 0.0
H431 H 0.90452 0.15132 0.48402 0.0
H432 H 0.05547 0.11058 0.50221 0.0
H433 H 0.1762 0.15121 0.5007 0.0
C434 C 0.29823 0.14207 0.49736 0.0
C435 C 0.34251 0.13061 0.49293 0.0
C436 C 1.02245 0.11951 0.49815 0.0
C437 C 0.163 0.13092 0.49306 0.0
C438 C 0.93304 0.11974 0.49839 0.0
C439 C 0.88836 0.13119 0.49322 0.0
C440 C 0.06787 0.13082 0.49312 0.0
C441 C 0.93613 0.14228 0.48802 0.0
C442 C 0.20884 0.14226 0.49723 0.0
C443 C 0.29432 0.11947 0.48859 0.0
N444 N 1.02332 0.14183 0.48828 0.0
N445 N 0.20714 0.1199 0.48893 0.0
H446 H 0.74539 0.89952 0.5103 0.0
H447 H 0.17084 0.85722 0.51013 0.0
H448 H 0.74297 0.859 0.49489 0.0
H449 H 0.17201 0.89769 0.49361 0.0
H450 H 1.01397 0.85772 0.51044 0.0
H451 H 0.9024 0.89908 0.51011 0.0
C452 C 0.77771 0.89054 0.50692 0.0
C453 C 0.73074 0.87929 0.50251 0.0
C454 C 0.04867 0.86648 0.50665 0.0
C455 C 0.9103 0.87872 0.50249 0.0
C456 C 0.13825 0.8662 0.50656 0.0
C457 C 0.18481 0.87742 0.50173 0.0
C458 C 1.00532 0.87807 0.50232 0.0
C459 C 0.13893 0.88879 0.49721 0.0
C460 C 0.86733 0.8903 0.50669 0.0
C461 C 0.77626 0.86793 0.49815 0.0
N462 N 0.05186 0.88882 0.49777 0.0
N463 N 0.86335 0.86794 0.49841 0.0
H464 H 0.92404 0.5354 0.93965 0.0
H465 H 0.14026 0.47522 0.05639 0.0
H466 H 0.09158 0.5383 0.05545 0.0
H467 H 0.93717 0.47303 0.95631 0.0
H468 H 0.12423 0.49818 0.05739 0.0
H469 H 0.93131 0.51248 0.94484 0.0
C470 C 0.96294 0.5312 0.96605 0.0
C471 C 1.00804 0.53879 -0.00311 0.0
C472 C 0.08281 0.49265 0.03546 0.0
C473 C 1.01588 0.51244 0.00338 0.0
C474 C 0.09143 0.47952 0.03507 0.0
C475 C 0.04033 0.47213 0.00599 0.0
C476 C 1.02301 0.49847 0.00639 0.0
C477 C 0.97915 0.47831 0.97868 0.0
C478 C 0.96646 0.51809 0.96923 0.0
C479 C 0.05575 0.5328 0.031 0.0
N480 N 0.97266 0.49109 0.97935 0.0
N481 N 0.05892 0.51997 0.03317 0.0
H482 H 0.94148 0.47356 0.55581 0.0
H483 H 0.13558 0.53427 0.43902 0.0
H484 H 0.12607 0.47185 0.45265 0.0
H485 H 0.99136 0.53664 0.55805 0.0
H486 H 0.12874 0.51133 0.4429 0.0
H487 H 0.95765 0.49651 0.55784 0.0
C488 C 0.98634 0.47796 0.53402 0.0
C489 C 1.03207 0.47071 0.50378 0.0
C490 C 0.09862 0.51683 0.46827 0.0
C491 C 0.04941 0.49705 0.50535 0.0
C492 C 0.10182 0.52995 0.46584 0.0
C493 C 0.06317 0.5374 0.49801 0.0
C494 C 0.05599 0.51102 0.503 0.0
C495 C 1.02209 0.53125 0.53259 0.0
C496 C 0.99502 0.49109 0.535 0.0
C497 C 0.08821 0.47703 0.47592 0.0
N498 N 1.01907 0.51842 0.53403 0.0
N499 N 0.09478 0.4898 0.47718 0.0
H500 H 0.6362 0.97554 0.06175 0.0
H501 H 0.42491 0.03525 0.9395 0.0
H502 H 0.43762 0.97293 0.95942 0.0
H503 H 0.58769 0.0386 0.05691 0.0
H504 H 0.43254 0.01235 0.94569 0.0
H505 H 0.62052 0.99851 0.06114 0.0
C506 C 0.58843 0.97975 0.03959 0.0
C507 C 0.53849 0.97223 0.01039 0.0
C508 C 0.46657 0.01806 0.9702 0.0
C509 C 0.52161 0.99859 0.00894 0.0
C510 C 0.46288 0.03116 0.96645 0.0
C511 C 0.50646 0.03888 -0.00251 0.0
C512 C 0.51462 0.01254 0.00513 0.0
C513 C 0.55299 0.03302 0.0323 0.0
C514 C 0.58002 0.99289 0.03905 0.0
C515 C 0.4787 0.97831 0.98195 0.0
N516 N 0.5563 0.02019 0.03504 0.0
N517 N 0.47239 0.9911 0.98176 0.0
H518 H 0.4281 0.03721 0.45587 0.0
H519 H 0.64062 0.97211 0.53829 0.0
H520 H 0.66257 0.03497 0.53523 0.0
H521 H 0.40527 0.97432 0.45964 0.0
H522 H 0.65024 0.99513 0.53713 0.0
H523 H 0.41863 0.01419 0.45677 0.0
C524 C 0.47755 0.03189 0.47353 0.0
C525 C 0.54619 0.03807 0.49555 0.0
C526 C 0.59662 0.99058 0.51999 0.0
C527 C 0.53569 0.01166 0.49677 0.0
C528 C 0.591 0.97743 0.52073 0.0
C529 C 0.52204 0.97124 0.49903 0.0
C530 C 0.53272 0.99764 0.49749 0.0
C531 C 0.46024 0.97865 0.47632 0.0
C532 C 0.47201 0.01873 0.47412 0.0
C533 C 0.60782 0.03065 0.51833 0.0
N534 N 0.46691 0.99144 0.47627 0.0
N535 N 0.60123 0.01786 0.51823 0.0
H536 H 0.16755 0.28435 0.07236 0.0
H537 H 0.40795 0.22821 0.95143 0.0
H538 H 0.34427 0.2899 0.96715 0.0
H539 H 0.28145 0.22299 0.0748 0.0
H540 H 0.37942 0.25078 0.9556 0.0
H541 H 0.20547 0.26194 0.07401 0.0
C542 C 0.21519 0.28093 0.05002 0.0
C543 C 0.25223 0.28907 0.01931 0.0
C544 C 0.35793 0.24474 0.98186 0.0
C545 C 0.29447 0.26334 0.02047 0.0
C546 C 0.37353 0.23181 0.97929 0.0
C547 C 0.3463 0.22367 0.01261 0.0
C548 C 0.3141 0.24963 0.01788 0.0
C549 C 0.30364 0.22893 0.04843 0.0
C550 C 0.23633 0.2681 0.05081 0.0
C551 C 0.31263 0.28399 0.99078 0.0
N552 N 0.2883 0.24158 0.04999 0.0
N553 N 0.33127 0.27147 0.99185 0.0
H554 H 0.79285 0.78744 0.09145 0.0
H555 H 0.74356 0.72274 0.95608 0.0
H556 H 0.69147 0.78485 0.95742 0.0
H557 H 0.90272 0.72608 0.07489 0.0
H558 H 0.70933 0.74513 0.96111 0.0
H559 H 0.82045 0.76462 0.09063 0.0
C560 C 0.77646 0.78207 0.0619 0.0
C561 C 0.74051 0.78808 0.02431 0.0
C562 C 0.75157 0.74097 0.98618 0.0
C563 C 0.77102 0.76202 0.0233 0.0
C564 C 0.77134 0.72817 0.98329 0.0
C565 C 0.82699 0.72249 0.01482 0.0
C566 C 0.78712 0.74822 0.02102 0.0
C567 C 0.85913 0.72999 0.04996 0.0
C568 C 0.79238 0.76908 0.06141 0.0
C569 C 0.72065 0.78067 0.98687 0.0
N570 N 0.83906 0.74248 0.05201 0.0
N571 N 0.7359 0.76806 0.98738 0.0
H572 H 0.24454 0.72486 0.57468 0.0
H573 H 0.33286 0.78418 0.41806 0.0
H574 H 0.2498 0.72257 0.43239 0.0
H575 H 0.32941 0.78646 0.5604 0.0
H576 H 0.30146 0.76162 0.42263 0.0
H577 H 0.27554 0.74744 0.57018 0.0
C578 C 0.25231 0.7291 0.54249 0.0
C579 C 0.2446 0.72177 0.50387 0.0
C580 C 0.3073 0.76706 0.45287 0.0
C581 C 0.28019 0.74766 0.49845 0.0
C582 C 0.32541 0.77995 0.45028 0.0
C583 C 0.33381 0.78726 0.48889 0.0
C584 C 0.29771 0.76139 0.49439 0.0
C585 C 0.32235 0.78126 0.5297 0.0
C586 C 0.27019 0.74199 0.53994 0.0
C587 C 0.25637 0.72777 0.4631 0.0
N588 N 0.30522 0.7687 0.53137 0.0
N589 N 0.27326 0.74035 0.46148 0.0
H590 H 0.92438 0.28154 0.4583 0.0
H591 H 0.66044 0.22627 0.57013 0.0
H592 H 0.77135 0.28767 0.57261 0.0
H593 H 0.85834 0.21996 0.47601 0.0
H594 H 0.69818 0.24867 0.57199 0.0
H595 H 0.89657 0.25897 0.46338 0.0
C596 C 0.88439 0.27813 0.48436 0.0
C597 C 0.84939 0.28653 0.51481 0.0
C598 C 0.73372 0.24235 0.55121 0.0
C599 C 0.81786 0.26058 0.52114 0.0
C600 C 0.71266 0.22953 0.55034 0.0
C601 C 0.75583 0.22117 0.52261 0.0
C602 C 0.79798 0.2469 0.52392 0.0
C603 C 0.82203 0.22604 0.49723 0.0
C604 C 0.86913 0.26522 0.48748 0.0
C605 C 0.79961 0.28153 0.54848 0.0
N606 N 0.84053 0.23856 0.49825 0.0
N607 N 0.78476 0.26888 0.55057 0.0
H608 H 0.15764 0.3628 0.1441 0.0
H609 H 0.9096 0.39492 0.34265 0.0
H610 H 1.02042 0.39809 0.13191 0.0
H611 H 0.05749 0.36059 0.35581 0.0
H612 H 0.9468 0.39605 0.26489 0.0
H613 H 0.12113 0.36183 0.22181 0.0
C614 C 0.12033 0.37039 0.15779 0.0
C615 C 0.092 0.38054 0.13138 0.0
C616 C 0.97093 0.38826 0.2848 0.0
C617 C 0.04928 0.37943 0.2203 0.0
C618 C 0.9494 0.38758 0.32915 0.0
C619 C 0.98053 0.37765 0.35579 0.0
C620 C 1.02386 0.37894 0.267 0.0
C621 C 1.03212 0.36843 0.33656 0.0
C622 C 0.09927 0.36982 0.20218 0.0
C623 C 0.0437 0.39009 0.15098 0.0
N624 N 0.05225 0.36931 0.29338 0.0
N625 N 1.02362 0.38928 0.19422 0.0
H626 H 0.92071 0.64833 0.13702 0.0
H627 H 0.15869 0.61436 0.34277 0.0
H628 H 0.05768 0.61306 0.12713 0.0
H629 H 1.0103 0.64859 0.35318 0.0
H630 H 0.12478 0.6139 0.2634 0.0
H631 H 0.95366 0.64861 0.21633 0.0
C632 C 0.95735 0.64061 0.15152 0.0
C633 C 0.98655 0.63067 0.12534 0.0
C634 C 0.09975 0.62152 0.28307 0.0
C635 C 1.025 0.63097 0.21613 0.0
C636 C 0.11933 0.62181 0.32836 0.0
C637 C 0.08724 0.63152 0.35464 0.0
C638 C 0.04785 0.63102 0.26397 0.0
C639 C 1.03637 0.64091 0.33421 0.0
C640 C 0.97629 0.64079 0.19683 0.0
C641 C 1.03382 0.62093 0.146 0.0
N642 N 1.01821 0.64041 0.2901 0.0
N643 N 0.05179 0.62135 0.19016 0.0
H644 H 0.91325 0.61546 0.83919 0.0
H645 H 0.16153 0.64734 0.64046 0.0
H646 H 0.06291 0.64963 0.85238 0.0
H647 H 1.02193 0.61224 0.62825 0.0
H648 H 0.12584 0.64832 0.71829 0.0
H649 H 0.94992 0.61431 0.76138 0.0
C650 C 0.95334 0.62277 0.82569 0.0
C651 C 0.98511 0.63265 0.85234 0.0
C652 C 0.10327 0.64038 0.69861 0.0
C653 C 1.02782 0.63134 0.7635 0.0
C654 C 0.12387 0.6398 0.65417 0.0
C655 C 0.0946 0.62971 0.62773 0.0
C656 C 0.05284 0.63083 0.71675 0.0
C657 C 0.0459 0.62021 0.64735 0.0
C658 C 0.97456 0.62207 0.78131 0.0
C659 C 1.03704 0.64182 0.83311 0.0
N660 N 1.02629 0.62103 0.69064 0.0
N661 N 0.05686 0.64093 0.78989 0.0
H662 H 0.91603 0.36203 0.64067 0.0
H663 H 0.15674 0.39581 0.84625 0.0
H664 H 0.05416 0.39719 0.63068 0.0
H665 H 1.00685 0.36174 0.85679 0.0
H666 H 0.12237 0.39629 0.76691 0.0
H667 H 0.94955 0.36173 0.71994 0.0
C668 C 0.95304 0.36973 0.65514 0.0
C669 C 0.98238 0.37965 0.62893 0.0
C670 C 0.09711 0.3887 0.7866 0.0
C671 C 1.0215 0.37931 0.7197 0.0
C672 C 0.11696 0.3884 0.83188 0.0
C673 C 0.0846 0.37872 0.85821 0.0
C674 C 0.04466 0.37925 0.76754 0.0
C675 C 1.03315 0.36939 0.83781 0.0
C676 C 0.97232 0.36953 0.70043 0.0
C677 C 1.03016 0.38935 0.64956 0.0
N678 N 1.01475 0.3699 0.79371 0.0
N679 N 0.04845 0.38892 0.69371 0.0
H680 H 0.61713 0.86102 0.1519 0.0
H681 H 0.50298 0.90106 0.36497 0.0
H682 H 0.56227 0.90094 0.14652 0.0
H683 H 0.46878 0.86068 0.35669 0.0
H684 H 0.53915 0.90136 0.28696 0.0
H685 H 0.57992 0.86091 0.22976 0.0
C686 C 0.59805 0.86979 0.16718 0.0
C687 C 0.59276 0.88101 0.1427 0.0
C688 C 0.52321 0.89245 0.30219 0.0
C689 C 0.54987 0.88091 0.2316 0.0
C690 C 0.50262 0.89226 0.34668 0.0
C691 C 0.48276 0.88082 0.36732 0.0
C692 C 0.52529 0.8811 0.27838 0.0
C693 C 0.48317 0.86972 0.34202 0.0
C694 C 0.57617 0.86968 0.2115 0.0
C695 C 0.56698 0.89207 0.16413 0.0
N696 N 0.50485 0.87012 0.29892 0.0
N697 N 0.5467 0.89175 0.20743 0.0
H698 H 0.55423 0.11251 0.12638 0.0
H699 H 0.50639 0.14968 0.35436 0.0
H700 H 0.42055 0.14801 0.13771 0.0
H701 H 0.653 0.11536 0.34189 0.0
H702 H 0.47217 0.14901 0.27521 0.0
H703 H 0.5871 0.11303 0.2057 0.0
C704 C 0.53135 0.12039 0.14554 0.0
C705 C 0.48463 0.13025 0.1253 0.0
C706 C 0.51199 0.14164 0.28974 0.0
C707 C 0.52256 0.13092 0.21614 0.0
C708 C 0.53171 0.14202 0.33495 0.0
C709 C 0.58264 0.13255 0.35478 0.0
C710 C 0.54321 0.1317 0.26414 0.0
C711 C 0.61362 0.12287 0.32798 0.0
C712 C 0.55043 0.12069 0.19084 0.0
C713 C 0.45679 0.14021 0.15185 0.0
N714 N 0.59321 0.12267 0.28402 0.0
N715 N 0.47633 0.1403 0.19589 0.0
H716 H 0.55956 0.15035 0.85336 0.0
H717 H 0.52049 0.11143 0.62713 0.0
H718 H 0.41544 0.11573 0.83852 0.0
H719 H 0.65509 0.1469 0.64134 0.0
H720 H 0.48502 0.11247 0.70499 0.0
H721 H 0.59644 0.14906 0.77588 0.0
C722 C 0.53524 0.1425 0.83376 0.0
C723 C 0.48432 0.13312 0.85249 0.0
C724 C 0.52254 0.12 0.6911 0.0
C725 C 0.52696 0.13155 0.76368 0.0
C726 C 0.54316 0.1194 0.64665 0.0
C727 C 0.59076 0.12911 0.6276 0.0
C728 C 0.54969 0.13039 0.71671 0.0
C729 C 0.61823 0.1392 0.65456 0.0
C730 C 0.55655 0.14176 0.78949 0.0
C731 C 0.4547 0.12318 0.82544 0.0
N732 N 0.59707 0.13959 0.69771 0.0
N733 N 0.4767 0.12263 0.78239 0.0
H734 H 0.52395 0.85676 0.64377 0.0
H735 H 0.61632 0.89775 0.85984 0.0
H736 H 0.46039 0.89635 0.65028 0.0
H737 H 0.55827 0.85797 0.86585 0.0
H738 H 0.58259 0.89739 0.78018 0.0
H739 H 0.55844 0.857 0.72329 0.0
C740 C 0.51706 0.86549 0.66199 0.0
C741 C 0.48905 0.87654 0.64059 0.0
C742 C 0.57743 0.88876 0.79904 0.0
C743 C 0.52969 0.87692 0.73097 0.0
C744 C 0.59723 0.88893 0.84431 0.0
C745 C 0.58989 0.87787 0.86934 0.0
C746 C 0.55177 0.87741 0.7787 0.0
C747 C 0.56429 0.86672 0.84772 0.0
C748 C 0.53657 0.8656 0.70725 0.0
C749 C 0.48114 0.8876 0.66566 0.0
N750 N 0.54653 0.86675 0.80351 0.0
N751 N 0.50213 0.88754 0.70956 0.0
loop_
_geom_bond_atom_site_label_1
_geom_bond_atom_site_label_2
_geom_bond_distance
_geom_bond_site_symmetry_2
_ccdc_geom_bond_type
Eu0 C9 2.828 . S
Eu0 O11 2.392 1_455 S
Eu0 O13 2.418 . S
Eu0 O18 2.373 . S
Eu0 O21 2.488 . S
Eu0 O22 2.471 1_554 S
Eu0 O23 2.349 1_554 S
Eu1 O10 2.373 1_455 S
Eu1 O14 2.488 . S
Eu1 O15 2.471 1_556 S
Eu1 O16 2.349 1_556 S
Eu1 O19 2.392 . S
Eu1 O20 2.418 . S
Eu1 C30 2.828 1_556 S
C2 O20 1.244 . S
C2 O23 1.265 . S
C3 C4 1.396 . S
C3 C7 1.358 1_556 S
C3 C9 1.503 1_556 S
C4 C3 1.396 . S
C4 C6 1.369 . S
C4 H32 0.930 . S
C5 C7 1.383 . S
C5 C8 1.382 1_554 S
C5 H33 0.930 . S
C6 C4 1.369 . S
C6 C8 1.392 . S
C6 H34 0.930 . S
C7 C3 1.358 1_554 S
C7 C5 1.383 . S
C7 H35 0.931 . S
C8 C5 1.382 1_556 S
C8 C6 1.392 . S
C9 Eu0 2.828 . S
C9 C3 1.503 1_554 S
C9 O21 1.249 . S
C9 O22 1.244 1_554 S
O10 Eu1 2.373 1_655 S
O10 C12 1.258 1_556 S
O11 Eu0 2.392 1_655 S
O11 C12 1.242 . S
C12 O10 1.258 1_554 S
C12 O11 1.242 . S
O13 Eu0 2.418 . S
O13 C17 1.244 . S
O14 Eu1 2.488 . S
O14 C30 1.249 1_556 S
O15 Eu1 2.471 1_554 S
O15 C30 1.244 . S
O16 Eu1 2.349 1_554 S
O16 C17 1.265 . S
C17 O13 1.244 . S
C17 O16 1.265 . S
O18 Eu0 2.373 . S
O18 C31 1.258 . S
O19 Eu1 2.392 . S
O19 C31 1.242 1_556 S
O20 Eu1 2.418 . S
O20 C2 1.244 . S
O21 Eu0 2.488 . S
O21 C9 1.249 . S
O22 Eu0 2.471 1_556 S
O22 C9 1.244 1_556 S
O23 Eu0 2.349 1_556 S
O23 C2 1.265 . S
C24 C25 1.379 . S
C24 C28 1.373 1_554 S
C24 C30 1.505 1_655 S
C25 C24 1.379 . S
C25 C27 1.369 . S
C25 H36 0.930 . S
C26 C28 1.383 . S
C26 C29 1.382 1_556 S
C26 H37 0.930 . S
C27 C25 1.369 . S
C27 C29 1.392 . S
C27 H38 0.930 . S
C28 C24 1.373 1_556 S
C28 C26 1.383 . S
C28 H39 0.931 . S
C29 C26 1.382 1_554 S
C29 C27 1.392 . S
C30 Eu1 2.828 1_554 S
C30 O14 1.249 1_554 S
C30 O15 1.244 . S
C30 C24 1.505 1_455 S
C31 O18 1.258 . S
C31 O19 1.242 1_554 S
H32 C4 0.930 . S
H33 C5 0.930 . S
H34 C6 0.930 . S
H35 C7 0.931 . S
H36 C25 0.930 . S
H37 C26 0.930 . S
H38 C27 0.930 . S
H39 C28 0.931 . S
Eu40 C49 2.828 . S
Eu40 O51 2.392 . S
Eu40 O53 2.418 . S
Eu40 O58 2.373 1_655 S
Eu40 O61 2.488 . S
Eu40 O62 2.471 1_554 S
Eu40 O63 2.349 1_554 S
Eu41 O50 2.373 . S
Eu41 O54 2.488 . S
Eu41 O55 2.471 1_556 S
Eu41 O56 2.349 1_556 S
Eu41 O59 2.392 1_655 S
Eu41 O60 2.418 . S
Eu41 C70 2.828 1_556 S
C42 O60 1.244 . S
C42 O63 1.265 . S
C43 C44 1.379 . S
C43 C47 1.373 1_556 S
C43 C49 1.505 1_456 S
C44 C43 1.379 . S
C44 C46 1.369 . S
C44 H72 0.930 . S
C45 C47 1.383 . S
C45 C48 1.382 1_554 S
C45 H73 0.930 . S
C46 C44 1.369 . S
C46 C48 1.392 . S
C46 H74 0.930 . S
C47 C43 1.373 1_554 S
C47 C45 1.383 . S
C47 H75 0.931 . S
C48 C45 1.382 1_556 S
C48 C46 1.392 . S
C49 Eu40 2.828 . S
C49 C43 1.505 1_654 S
C49 O61 1.249 . S
C49 O62 1.244 1_554 S
O50 Eu41 2.373 . S
O50 C52 1.258 1_556 S
O51 Eu40 2.392 . S
O51 C52 1.242 . S
C52 O50 1.258 1_554 S
C52 O51 1.242 . S
O53 Eu40 2.418 . S
O53 C57 1.244 . S
O54 Eu41 2.488 . S
O54 C70 1.249 1_556 S
O55 Eu41 2.471 1_554 S
O55 C70 1.244 . S
O56 Eu41 2.349 1_554 S
O56 C57 1.265 . S
C57 O53 1.244 . S
C57 O56 1.265 . S
O58 Eu40 2.373 1_455 S
O58 C71 1.258 . S
O59 Eu41 2.392 1_455 S
O59 C71 1.242 1_556 S
O60 Eu41 2.418 . S
O60 C42 1.244 . S
O61 Eu40 2.488 . S
O61 C49 1.249 . S
O62 Eu40 2.471 1_556 S
O62 C49 1.244 1_556 S
O63 Eu40 2.349 1_556 S
O63 C42 1.265 . S
C64 C65 1.379 . S
C64 C68 1.373 1_554 S
C64 C70 1.505 . S
C65 C64 1.379 . S
C65 C67 1.369 . S
C65 H76 0.930 . S
C66 C68 1.383 . S
C66 C69 1.382 1_556 S
C66 H77 0.930 . S
C67 C65 1.369 . S
C67 C69 1.392 . S
C67 H78 0.930 . S
C68 C64 1.373 1_556 S
C68 C66 1.383 . S
C68 H79 0.931 . S
C69 C66 1.382 1_554 S
C69 C67 1.392 . S
C70 Eu41 2.828 1_554 S
C70 O54 1.249 1_554 S
C70 O55 1.244 . S
C70 C64 1.505 . S
C71 O58 1.258 . S
C71 O59 1.242 1_554 S
H72 C44 0.930 . S
H73 C45 0.930 . S
H74 C46 0.930 . S
H75 C47 0.931 . S
H76 C65 0.930 . S
H77 C66 0.930 . S
H78 C67 0.930 . S
H79 C68 0.931 . S
Eu80 C89 2.828 . S
Eu80 O91 2.392 . S
Eu80 O93 2.418 . S
Eu80 O98 2.373 1_455 S
Eu80 O101 2.488 . S
Eu80 O102 2.471 . S
Eu80 O103 2.349 . S
Eu81 O90 2.373 . S
Eu81 O94 2.488 . S
Eu81 O95 2.471 . S
Eu81 O96 2.349 . S
Eu81 O99 2.392 1_455 S
Eu81 O100 2.418 . S
Eu81 C110 2.828 . S
C82 O100 1.244 . S
C82 O103 1.265 . S
C83 C84 1.379 . S
C83 C87 1.373 . S
C83 C89 1.505 1_655 S
C84 C83 1.379 . S
C84 C86 1.369 . S
C84 H112 0.930 . S
C85 C87 1.383 . S
C85 C88 1.382 . S
C85 H113 0.930 . S
C86 C84 1.369 . S
C86 C88 1.392 . S
C86 H114 0.930 . S
C87 C83 1.373 . S
C87 C85 1.383 . S
C87 H115 0.931 . S
C88 C85 1.382 . S
C88 C86 1.392 . S
C89 Eu80 2.828 . S
C89 C83 1.505 1_455 S
C89 O101 1.249 . S
C89 O102 1.244 . S
O90 Eu81 2.373 . S
O90 C92 1.258 . S
O91 Eu80 2.392 . S
O91 C92 1.242 . S
C92 O90 1.258 . S
C92 O91 1.242 . S
O93 Eu80 2.418 . S
O93 C97 1.244 . S
O94 Eu81 2.488 . S
O94 C110 1.249 . S
O95 Eu81 2.471 . S
O95 C110 1.244 . S
O96 Eu81 2.349 . S
O96 C97 1.265 . S
C97 O93 1.244 . S
C97 O96 1.265 . S
O98 Eu80 2.373 1_655 S
O98 C111 1.258 . S
O99 Eu81 2.392 1_655 S
O99 C111 1.242 . S
O100 Eu81 2.418 . S
O100 C82 1.244 . S
O101 Eu80 2.488 . S
O101 C89 1.249 . S
O102 Eu80 2.471 . S
O102 C89 1.244 . S
O103 Eu80 2.349 . S
O103 C82 1.265 . S
C104 C105 1.379 . S
C104 C108 1.373 . S
C104 C110 1.505 . S
C105 C104 1.379 . S
C105 C107 1.369 . S
C105 H116 0.930 . S
C106 C108 1.383 . S
C106 C109 1.382 . S
C106 H117 0.930 . S
C107 C105 1.369 . S
C107 C109 1.392 . S
C107 H118 0.930 . S
C108 C104 1.373 . S
C108 C106 1.383 . S
C108 H119 0.931 . S
C109 C106 1.382 . S
C109 C107 1.392 . S
C110 Eu81 2.828 . S
C110 O94 1.249 . S
C110 O95 1.244 . S
C110 C104 1.505 . S
C111 O98 1.258 . S
C111 O99 1.242 . S
H112 C84 0.930 . S
H113 C85 0.930 . S
H114 C86 0.930 . S
H115 C87 0.931 . S
H116 C105 0.930 . S
H117 C106 0.930 . S
H118 C107 0.930 . S
H119 C108 0.931 . S
Eu120 C129 2.828 . S
Eu120 O131 2.392 1_655 S
Eu120 O133 2.418 . S
Eu120 O138 2.373 . S
Eu120 O141 2.488 . S
Eu120 O142 2.471 . S
Eu120 O143 2.349 . S
Eu121 O130 2.373 1_655 S
Eu121 O134 2.488 . S
Eu121 O135 2.471 . S
Eu121 O136 2.349 . S
Eu121 O139 2.392 . S
Eu121 O140 2.418 . S
Eu121 C150 2.828 . S
C122 O140 1.244 . S
C122 O143 1.265 . S
C123 C124 1.379 . S
C123 C127 1.373 . S
C123 C129 1.505 . S
C124 C123 1.379 . S
C124 C126 1.369 . S
C124 H152 0.930 . S
C125 C127 1.383 . S
C125 C128 1.382 . S
C125 H153 0.930 . S
C126 C124 1.369 . S
C126 C128 1.392 . S
C126 H154 0.930 . S
C127 C123 1.373 . S
C127 C125 1.383 . S
C127 H155 0.931 . S
C128 C125 1.382 . S
C128 C126 1.392 . S
C129 Eu120 2.828 . S
C129 C123 1.505 . S
C129 O141 1.249 . S
C129 O142 1.244 . S
O130 Eu121 2.373 1_455 S
O130 C132 1.258 . S
O131 Eu120 2.392 1_455 S
O131 C132 1.242 . S
C132 O130 1.258 . S
C132 O131 1.242 . S
O133 Eu120 2.418 . S
O133 C137 1.244 . S
O134 Eu121 2.488 . S
O134 C150 1.249 . S
O135 Eu121 2.471 . S
O135 C150 1.244 . S
O136 Eu121 2.349 . S
O136 C137 1.265 . S
C137 O133 1.244 . S
C137 O136 1.265 . S
O138 Eu120 2.373 . S
O138 C151 1.258 . S
O139 Eu121 2.392 . S
O139 C151 1.242 . S
O140 Eu121 2.418 . S
O140 C122 1.244 . S
O141 Eu120 2.488 . S
O141 C129 1.249 . S
O142 Eu120 2.471 . S
O142 C129 1.244 . S
O143 Eu120 2.349 . S
O143 C122 1.265 . S
C144 C145 1.379 . S
C144 C148 1.373 . S
C144 C150 1.505 1_455 S
C145 C144 1.379 . S
C145 C147 1.369 . S
C145 H156 0.930 . S
C146 C148 1.383 . S
C146 C149 1.382 . S
C146 H157 0.930 . S
C147 C145 1.369 . S
C147 C149 1.392 . S
C147 H158 0.930 . S
C148 C144 1.373 . S
C148 C146 1.383 . S
C148 H159 0.931 . S
C149 C146 1.382 . S
C149 C147 1.392 . S
C150 Eu121 2.828 . S
C150 O134 1.249 . S
C150 O135 1.244 . S
C150 C144 1.505 1_655 S
C151 O138 1.258 . S
C151 O139 1.242 . S
H152 C124 0.930 . S
H153 C125 0.930 . S
H154 C126 0.930 . S
H155 C127 0.931 . S
H156 C145 0.930 . S
H157 C146 0.930 . S
H158 C147 0.930 . S
H159 C148 0.931 . S
Eu160 C169 2.828 . S
Eu160 O171 2.392 . S
Eu160 O173 2.418 . S
Eu160 O178 2.373 . S
Eu160 O181 2.488 . S
Eu160 O182 2.471 1_554 S
Eu160 O183 2.349 1_554 S
Eu161 O170 2.373 . S
Eu161 O174 2.488 . S
Eu161 O175 2.471 1_556 S
Eu161 O176 2.349 1_556 S
Eu161 O179 2.392 . S
Eu161 O180 2.418 . S
Eu161 C190 2.828 1_556 S
C162 O180 1.244 . S
C162 O183 1.265 . S
C163 C164 1.397 . S
C163 C167 1.358 1_556 S
C163 C169 1.503 1_556 S
C164 C163 1.397 . S
C164 C166 1.369 . S
C164 H192 0.930 . S
C165 C167 1.383 . S
C165 C168 1.382 1_554 S
C165 H193 0.930 . S
C166 C164 1.369 . S
C166 C168 1.392 . S
C166 H194 0.930 . S
C167 C163 1.358 1_554 S
C167 C165 1.383 . S
C167 H195 0.931 . S
C168 C165 1.382 1_556 S
C168 C166 1.392 . S
C169 Eu160 2.828 . S
C169 C163 1.503 1_554 S
C169 O181 1.249 . S
C169 O182 1.244 1_554 S
O170 Eu161 2.373 . S
O170 C172 1.258 1_556 S
O171 Eu160 2.392 . S
O171 C172 1.242 . S
C172 O170 1.258 1_554 S
C172 O171 1.242 . S
O173 Eu160 2.418 . S
O173 C177 1.244 . S
O174 Eu161 2.488 . S
O174 C190 1.249 1_556 S
O175 Eu161 2.471 1_554 S
O175 C190 1.244 . S
O176 Eu161 2.349 1_554 S
O176 C177 1.265 . S
C177 O173 1.244 . S
C177 O176 1.265 . S
O178 Eu160 2.373 . S
O178 C191 1.258 . S
O179 Eu161 2.392 . S
O179 C191 1.242 1_556 S
O180 Eu161 2.418 . S
O180 C162 1.244 . S
O181 Eu160 2.488 . S
O181 C169 1.249 . S
O182 Eu160 2.471 1_556 S
O182 C169 1.244 1_556 S
O183 Eu160 2.349 1_556 S
O183 C162 1.265 . S
C184 C185 1.379 . S
C184 C188 1.373 1_554 S
C184 C190 1.505 . S
C185 C184 1.379 . S
C185 C187 1.369 . S
C185 H196 0.930 . S
C186 C188 1.383 . S
C186 C189 1.382 1_556 S
C186 H197 0.930 . S
C187 C185 1.369 . S
C187 C189 1.392 . S
C187 H198 0.930 . S
C188 C184 1.373 1_556 S
C188 C186 1.383 . S
C188 H199 0.931 . S
C189 C186 1.382 1_554 S
C189 C187 1.392 . S
C190 Eu161 2.828 1_554 S
C190 O174 1.249 1_554 S
C190 O175 1.244 . S
C190 C184 1.505 . S
C191 O178 1.258 . S
C191 O179 1.242 1_554 S
H192 C164 0.930 . S
H193 C165 0.930 . S
H194 C166 0.930 . S
H195 C167 0.931 . S
H196 C185 0.930 . S
H197 C186 0.930 . S
H198 C187 0.930 . S
H199 C188 0.931 . S
Eu200 C209 2.828 . S
Eu200 O211 2.392 . S
Eu200 O213 2.418 . S
Eu200 O218 2.373 . S
Eu200 O221 2.488 . S
Eu200 O222 2.471 1_554 S
Eu200 O223 2.349 1_554 S
Eu201 O210 2.373 . S
Eu201 O214 2.488 . S
Eu201 O215 2.471 1_556 S
Eu201 O216 2.349 1_556 S
Eu201 O219 2.392 . S
Eu201 O220 2.418 . S
Eu201 C230 2.828 1_556 S
C202 O220 1.244 . S
C202 O223 1.265 . S
C203 C204 1.379 . S
C203 C207 1.373 1_556 S
C203 C209 1.505 1_556 S
C204 C203 1.379 . S
C204 C206 1.369 . S
C204 H232 0.930 . S
C205 C207 1.383 . S
C205 C208 1.382 1_554 S
C205 H233 0.930 . S
C206 C204 1.369 . S
C206 C208 1.392 . S
C206 H234 0.930 . S
C207 C203 1.373 1_554 S
C207 C205 1.383 . S
C207 H235 0.931 . S
C208 C205 1.382 1_556 S
C208 C206 1.392 . S
C209 Eu200 2.828 . S
C209 C203 1.505 1_554 S
C209 O221 1.249 . S
C209 O222 1.244 1_554 S
O210 Eu201 2.373 . S
O210 C212 1.258 1_556 S
O211 Eu200 2.392 . S
O211 C212 1.242 . S
C212 O210 1.258 1_554 S
C212 O211 1.242 . S
O213 Eu200 2.418 . S
O213 C217 1.244 . S
O214 Eu201 2.488 . S
O214 C230 1.249 1_556 S
O215 Eu201 2.471 1_554 S
O215 C230 1.244 . S
O216 Eu201 2.349 1_554 S
O216 C217 1.265 . S
C217 O213 1.244 . S
C217 O216 1.265 . S
O218 Eu200 2.373 . S
O218 C231 1.258 . S
O219 Eu201 2.392 . S
O219 C231 1.242 1_556 S
O220 Eu201 2.418 . S
O220 C202 1.244 . S
O221 Eu200 2.488 . S
O221 C209 1.249 . S
O222 Eu200 2.471 1_556 S
O222 C209 1.244 1_556 S
O223 Eu200 2.349 1_556 S
O223 C202 1.265 . S
C224 C225 1.379 . S
C224 C228 1.373 1_554 S
C224 C230 1.505 . S
C225 C224 1.379 . S
C225 C227 1.369 . S
C225 H236 0.930 . S
C226 C228 1.383 . S
C226 C229 1.382 1_556 S
C226 H237 0.930 . S
C227 C225 1.369 . S
C227 C229 1.392 . S
C227 H238 0.930 . S
C228 C224 1.373 1_556 S
C228 C226 1.383 . S
C228 H239 0.931 . S
C229 C226 1.382 1_554 S
C229 C227 1.392 . S
C230 Eu201 2.828 1_554 S
C230 O214 1.249 1_554 S
C230 O215 1.244 . S
C230 C224 1.505 . S
C231 O218 1.258 . S
C231 O219 1.242 1_554 S
H232 C204 0.930 . S
H233 C205 0.930 . S
H234 C206 0.930 . S
H235 C207 0.931 . S
H236 C225 0.930 . S
H237 C226 0.930 . S
H238 C227 0.930 . S
H239 C228 0.931 . S
Eu240 C249 2.828 . S
Eu240 O251 2.392 . S
Eu240 O253 2.418 . S
Eu240 O258 2.373 . S
Eu240 O261 2.488 . S
Eu240 O262 2.471 . S
Eu240 O263 2.349 . S
Eu241 O250 2.373 . S
Eu241 O254 2.488 . S
Eu241 O255 2.471 . S
Eu241 O256 2.349 . S
Eu241 O259 2.392 . S
Eu241 O260 2.418 . S
Eu241 C270 2.828 . S
C242 O260 1.244 . S
C242 O263 1.265 . S
C243 C244 1.379 . S
C243 C247 1.373 . S
C243 C249 1.505 . S
C244 C243 1.379 . S
C244 C246 1.369 . S
C244 H272 0.930 . S
C245 C247 1.383 . S
C245 C248 1.382 . S
C245 H273 0.930 . S
C246 C244 1.369 . S
C246 C248 1.392 . S
C246 H274 0.930 . S
C247 C243 1.373 . S
C247 C245 1.383 . S
C247 H275 0.931 . S
C248 C245 1.382 . S
C248 C246 1.392 . S
C249 Eu240 2.828 . S
C249 C243 1.505 . S
C249 O261 1.249 . S
C249 O262 1.244 . S
O250 Eu241 2.373 . S
O250 C252 1.258 . S
O251 Eu240 2.392 . S
O251 C252 1.242 . S
C252 O250 1.258 . S
C252 O251 1.242 . S
O253 Eu240 2.418 . S
O253 C257 1.244 . S
O254 Eu241 2.488 . S
O254 C270 1.249 . S
O255 Eu241 2.471 . S
O255 C270 1.244 . S
O256 Eu241 2.349 . S
O256 C257 1.265 . S
C257 O253 1.244 . S
C257 O256 1.265 . S
O258 Eu240 2.373 . S
O258 C271 1.258 . S
O259 Eu241 2.392 . S
O259 C271 1.242 . S
O260 Eu241 2.418 . S
O260 C242 1.244 . S
O261 Eu240 2.488 . S
O261 C249 1.249 . S
O262 Eu240 2.471 . S
O262 C249 1.244 . S
O263 Eu240 2.349 . S
O263 C242 1.265 . S
C264 C265 1.379 . S
C264 C268 1.373 . S
C264 C270 1.505 . S
C265 C264 1.379 . S
C265 C267 1.369 . S
C265 H276 0.930 . S
C266 C268 1.383 . S
C266 C269 1.382 . S
C266 H277 0.930 . S
C267 C265 1.369 . S
C267 C269 1.392 . S
C267 H278 0.930 . S
C268 C264 1.373 . S
C268 C266 1.383 . S
C268 H279 0.931 . S
C269 C266 1.382 . S
C269 C267 1.392 . S
C270 Eu241 2.828 . S
C270 O254 1.249 . S
C270 O255 1.244 . S
C270 C264 1.505 . S
C271 O258 1.258 . S
C271 O259 1.242 . S
H272 C244 0.930 . S
H273 C245 0.930 . S
H274 C246 0.930 . S
H275 C247 0.931 . S
H276 C265 0.930 . S
H277 C266 0.930 . S
H278 C267 0.930 . S
H279 C268 0.931 . S
Eu280 C289 2.828 . S
Eu280 O291 2.392 . S
Eu280 O293 2.418 . S
Eu280 O298 2.373 . S
Eu280 O301 2.488 . S
Eu280 O302 2.471 . S
Eu280 O303 2.349 . S
Eu281 O290 2.373 . S
Eu281 O294 2.488 . S
Eu281 O295 2.471 . S
Eu281 O296 2.349 . S
Eu281 O299 2.392 . S
Eu281 O300 2.418 . S
Eu281 C310 2.828 . S
C282 O300 1.244 . S
C282 O303 1.265 . S
C283 C284 1.379 . S
C283 C287 1.373 . S
C283 C289 1.505 . S
C284 C283 1.379 . S
C284 C286 1.369 . S
C284 H312 0.930 . S
C285 C287 1.383 . S
C285 C288 1.382 . S
C285 H313 0.930 . S
C286 C284 1.369 . S
C286 C288 1.392 . S
C286 H314 0.930 . S
C287 C283 1.373 . S
C287 C285 1.383 . S
C287 H315 0.931 . S
C288 C285 1.382 . S
C288 C286 1.392 . S
C289 Eu280 2.828 . S
C289 C283 1.505 . S
C289 O301 1.249 . S
C289 O302 1.244 . S
O290 Eu281 2.373 . S
O290 C292 1.258 . S
O291 Eu280 2.392 . S
O291 C292 1.242 . S
C292 O290 1.258 . S
C292 O291 1.242 . S
O293 Eu280 2.418 . S
O293 C297 1.244 . S
O294 Eu281 2.488 . S
O294 C310 1.249 . S
O295 Eu281 2.471 . S
O295 C310 1.244 . S
O296 Eu281 2.349 . S
O296 C297 1.265 . S
C297 O293 1.244 . S
C297 O296 1.265 . S
O298 Eu280 2.373 . S
O298 C311 1.258 . S
O299 Eu281 2.392 . S
O299 C311 1.242 . S
O300 Eu281 2.418 . S
O300 C282 1.244 . S
O301 Eu280 2.488 . S
O301 C289 1.249 . S
O302 Eu280 2.471 . S
O302 C289 1.244 . S
O303 Eu280 2.349 . S
O303 C282 1.265 . S
C304 C305 1.379 . S
C304 C308 1.373 . S
C304 C310 1.505 . S
C305 C304 1.379 . S
C305 C307 1.369 . S
C305 H316 0.930 . S
C306 C308 1.383 . S
C306 C309 1.382 . S
C306 H317 0.930 . S
C307 C305 1.369 . S
C307 C309 1.392 . S
C307 H318 0.930 . S
C308 C304 1.373 . S
C308 C306 1.383 . S
C308 H319 0.931 . S
C309 C306 1.382 . S
C309 C307 1.392 . S
C310 Eu281 2.828 . S
C310 O294 1.249 . S
C310 O295 1.244 . S
C310 C304 1.505 . S
C311 O298 1.258 . S
C311 O299 1.242 . S
H312 C284 0.930 . S
H313 C285 0.930 . S
H314 C286 0.930 . S
H315 C287 0.931 . S
H316 C305 0.930 . S
H317 C306 0.930 . S
H318 C307 0.930 . S
H319 C308 0.931 . S
H320 C326 0.930 . S
H321 C330 0.930 . S
H322 C335 0.929 . S
H323 C333 0.929 . S
H324 C328 0.929 . S
H325 C334 0.929 . S
C326 H320 0.930 . S
C326 C327 1.367 . S
C326 C334 1.378 . S
C327 C326 1.367 . S
C327 C335 1.433 1_554 S
C328 H324 0.929 . S
C328 C330 1.378 . S
C328 C332 1.350 1_556 S
C329 C332 1.463 . S
C329 C334 1.350 . S
C329 N337 1.427 1_554 S
C330 H321 0.930 . S
C330 C328 1.378 . S
C330 C331 1.367 1_556 S
C331 C330 1.367 1_554 S
C331 C333 1.433 . S
C332 C328 1.350 1_554 S
C332 C329 1.463 . S
C332 N336 1.427 . S
C333 H323 0.929 . S
C333 C331 1.433 . S
C333 N336 1.384 . S
C334 H325 0.929 . S
C334 C326 1.378 . S
C334 C329 1.350 . S
C335 H322 0.929 . S
C335 C327 1.433 1_556 S
C335 N337 1.384 . S
N336 C332 1.427 . S
N336 C333 1.384 . S
N337 C329 1.427 1_556 S
N337 C335 1.384 . S
H338 C344 0.930 . S
H339 C348 0.930 . S
H340 C353 0.929 . S
H341 C351 0.929 . S
H342 C346 0.929 . S
H343 C352 0.929 . S
C344 H338 0.930 . S
C344 C345 1.367 . S
C344 C352 1.378 . S
C345 C344 1.367 . S
C345 C353 1.433 1_554 S
C346 H342 0.929 . S
C346 C348 1.378 . S
C346 C350 1.350 1_556 S
C347 C350 1.463 . S
C347 C352 1.350 . S
C347 N355 1.427 1_554 S
C348 H339 0.930 . S
C348 C346 1.378 . S
C348 C349 1.367 1_556 S
C349 C348 1.367 1_554 S
C349 C351 1.433 . S
C350 C346 1.350 1_554 S
C350 C347 1.463 . S
C350 N354 1.427 . S
C351 H341 0.929 . S
C351 C349 1.433 . S
C351 N354 1.384 . S
C352 H343 0.929 . S
C352 C344 1.378 . S
C352 C347 1.350 . S
C353 H340 0.929 . S
C353 C345 1.433 1_556 S
C353 N355 1.384 . S
N354 C350 1.427 . S
N354 C351 1.384 . S
N355 C347 1.427 1_556 S
N355 C353 1.384 . S
H356 C362 0.930 . S
H357 C366 0.930 . S
H358 C371 0.929 . S
H359 C369 0.929 . S
H360 C364 0.929 . S
H361 C370 0.929 . S
C362 H356 0.930 . S
C362 C363 1.367 . S
C362 C370 1.378 . S
C363 C362 1.367 . S
C363 C371 1.433 . S
C364 H360 0.929 . S
C364 C366 1.378 . S
C364 C368 1.350 . S
C365 C368 1.463 . S
C365 C370 1.350 . S
C365 N373 1.427 . S
C366 H357 0.930 . S
C366 C364 1.378 . S
C366 C367 1.367 . S
C367 C366 1.367 . S
C367 C369 1.433 . S
C368 C364 1.350 . S
C368 C365 1.463 . S
C368 N372 1.427 . S
C369 H359 0.929 . S
C369 C367 1.433 . S
C369 N372 1.384 . S
C370 H361 0.929 . S
C370 C362 1.378 . S
C370 C365 1.350 . S
C371 H358 0.929 . S
C371 C363 1.433 . S
C371 N373 1.384 . S
N372 C368 1.427 . S
N372 C369 1.384 . S
N373 C365 1.427 . S
N373 C371 1.384 . S
H374 C380 0.930 . S
H375 C384 0.930 . S
H376 C389 0.929 . S
H377 C387 0.929 . S
H378 C382 0.929 . S
H379 C388 0.929 . S
C380 H374 0.930 . S
C380 C381 1.367 . S
C380 C388 1.378 . S
C381 C380 1.367 . S
C381 C389 1.433 . S
C382 H378 0.929 . S
C382 C384 1.378 . S
C382 C386 1.350 . S
C383 C386 1.463 . S
C383 C388 1.350 . S
C383 N391 1.427 . S
C384 H375 0.930 . S
C384 C382 1.378 . S
C384 C385 1.367 . S
C385 C384 1.367 . S
C385 C387 1.433 . S
C386 C382 1.350 . S
C386 C383 1.463 . S
C386 N390 1.427 . S
C387 H377 0.929 . S
C387 C385 1.433 . S
C387 N390 1.384 . S
C388 H379 0.929 . S
C388 C380 1.378 . S
C388 C383 1.350 . S
C389 H376 0.929 . S
C389 C381 1.433 . S
C389 N391 1.384 . S
N390 C386 1.427 . S
N390 C387 1.384 . S
N391 C383 1.427 . S
N391 C389 1.384 . S
H392 C398 0.930 . S
H393 C402 0.930 . S
H394 C407 0.929 . S
H395 C405 0.929 . S
H396 C400 0.929 . S
H397 C406 0.929 . S
C398 H392 0.930 . S
C398 C399 1.367 1_556 S
C398 C406 1.378 . S
C399 C398 1.367 1_554 S
C399 C407 1.433 . S
C400 H396 0.929 . S
C400 C402 1.378 . S
C400 C404 1.350 . S
C401 C404 1.463 . S
C401 C406 1.350 1_454 S
C401 N409 1.427 1_455 S
C402 H393 0.930 . S
C402 C400 1.378 . S
C402 C403 1.367 . S
C403 C402 1.367 . S
C403 C405 1.433 1_554 S
C404 C400 1.350 . S
C404 C401 1.463 . S
C404 N408 1.427 1_554 S
C405 H395 0.929 . S
C405 C403 1.433 1_556 S
C405 N408 1.384 . S
C406 H397 0.929 . S
C406 C398 1.378 . S
C406 C401 1.350 1_656 S
C407 H394 0.929 . S
C407 C399 1.433 . S
C407 N409 1.384 . S
N408 C404 1.427 1_556 S
N408 C405 1.384 . S
N409 C401 1.427 1_655 S
N409 C407 1.384 . S
H410 C416 0.930 . S
H411 C420 0.930 . S
H412 C425 0.929 . S
H413 C423 0.929 . S
H414 C418 0.929 . S
H415 C424 0.929 1_655 S
C416 H410 0.930 . S
C416 C417 1.367 . S
C416 C424 1.378 . S
C417 C416 1.367 . S
C417 C425 1.433 1_554 S
C418 H414 0.929 . S
C418 C420 1.378 . S
C418 C422 1.350 1_556 S
C419 C422 1.463 . S
C419 C424 1.350 1_655 S
C419 N427 1.427 1_654 S
C420 H411 0.930 . S
C420 C418 1.378 . S
C420 C421 1.367 1_556 S
C421 C420 1.367 1_554 S
C421 C423 1.433 . S
C422 C418 1.350 1_554 S
C422 C419 1.463 . S
C422 N426 1.427 . S
C423 H413 0.929 . S
C423 C421 1.433 . S
C423 N426 1.384 . S
C424 H415 0.929 1_455 S
C424 C416 1.378 . S
C424 C419 1.350 1_455 S
C425 H412 0.929 . S
C425 C417 1.433 1_556 S
C425 N427 1.384 . S
N426 C422 1.427 . S
N426 C423 1.384 . S
N427 C419 1.427 1_456 S
N427 C425 1.384 . S
H428 C434 0.930 . S
H429 C438 0.930 . S
H430 C443 0.929 . S
H431 C441 0.929 . S
H432 C436 0.929 . S
H433 C442 0.929 . S
C434 H428 0.930 . S
C434 C435 1.367 . S
C434 C442 1.378 . S
C435 C434 1.367 . S
C435 C443 1.433 . S
C436 H432 0.929 . S
C436 C438 1.378 . S
C436 C440 1.350 1_655 S
C437 C440 1.463 . S
C437 C442 1.350 . S
C437 N445 1.427 . S
C438 H429 0.930 . S
C438 C436 1.378 . S
C438 C439 1.367 . S
C439 C438 1.367 . S
C439 C441 1.433 . S
C440 C436 1.350 1_455 S
C440 C437 1.463 . S
C440 N444 1.427 1_455 S
C441 H431 0.929 . S
C441 C439 1.433 . S
C441 N444 1.384 . S
C442 H433 0.929 . S
C442 C434 1.378 . S
C442 C437 1.350 . S
C443 H430 0.929 . S
C443 C435 1.433 . S
C443 N445 1.384 . S
N444 C440 1.427 1_655 S
N444 C441 1.384 . S
N445 C437 1.427 . S
N445 C443 1.384 . S
H446 C452 0.930 . S
H447 C456 0.930 . S
H448 C461 0.929 . S
H449 C459 0.929 . S
H450 C454 0.929 1_655 S
H451 C460 0.929 . S
C452 H446 0.930 . S
C452 C453 1.367 . S
C452 C460 1.378 . S
C453 C452 1.367 . S
C453 C461 1.433 . S
C454 H450 0.929 1_455 S
C454 C456 1.378 . S
C454 C458 1.350 1_455 S
C455 C458 1.463 . S
C455 C460 1.350 . S
C455 N463 1.427 . S
C456 H447 0.930 . S
C456 C454 1.378 . S
C456 C457 1.367 . S
C457 C456 1.367 . S
C457 C459 1.433 . S
C458 C454 1.350 1_655 S
C458 C455 1.463 . S
C458 N462 1.427 1_655 S
C459 H449 0.929 . S
C459 C457 1.433 . S
C459 N462 1.384 . S
C460 H451 0.929 . S
C460 C452 1.378 . S
C460 C455 1.350 . S
C461 H448 0.929 . S
C461 C453 1.433 . S
C461 N463 1.384 . S
N462 C458 1.427 1_455 S
N462 C459 1.384 . S
N463 C455 1.427 . S
N463 C461 1.384 . S
H464 C470 0.930 1_655 S
H465 C474 0.930 1_455 S
H466 C479 0.929 . S
H467 C477 0.935 . S
H468 C472 0.929 . S
H469 C478 0.929 . S
C470 H464 0.930 1_455 S
C470 C471 1.367 . S
C470 C478 1.378 1_455 S
C471 C470 1.367 . S
C471 C479 1.433 1_556 S
C472 H468 0.929 . S
C472 C474 1.378 1_455 S
C472 C476 1.350 1_455 S
C473 C476 1.463 1_455 S
C473 C478 1.350 1_454 S
C473 N481 1.427 . S
C474 H465 0.930 1_655 S
C474 C472 1.378 1_655 S
C474 C475 1.367 . S
C475 C474 1.367 . S
C475 C477 1.424 1_554 S
C476 C472 1.350 1_655 S
C476 C473 1.463 1_655 S
C476 N480 1.427 1_554 S
C477 H467 0.935 . S
C477 C475 1.424 1_556 S
C477 N480 1.387 . S
C478 H469 0.929 . S
C478 C470 1.378 1_655 S
C478 C473 1.350 1_656 S
C479 H466 0.929 . S
C479 C471 1.433 1_554 S
C479 N481 1.384 . S
N480 C476 1.427 1_556 S
N480 C477 1.387 . S
N481 C473 1.427 . S
N481 C479 1.384 . S
H482 C488 0.930 . S
H483 C492 0.930 . S
H484 C497 0.929 . S
H485 C495 0.929 . S
H486 C490 0.929 1_455 S
H487 C496 0.929 1_655 S
C488 H482 0.930 . S
C488 C489 1.367 . S
C488 C496 1.378 . S
C489 C488 1.367 . S
C489 C497 1.433 . S
C490 H486 0.929 1_655 S
C490 C492 1.378 . S
C490 C494 1.350 . S
C491 C494 1.463 1_455 S
C491 C496 1.350 . S
C491 N499 1.427 . S
C492 H483 0.930 . S
C492 C490 1.378 . S
C492 C493 1.367 . S
C493 C492 1.367 . S
C493 C495 1.433 . S
C494 C490 1.350 . S
C494 C491 1.463 1_655 S
C494 N498 1.427 . S
C495 H485 0.929 . S
C495 C493 1.433 . S
C495 N498 1.384 . S
C496 H487 0.929 1_455 S
C496 C488 1.378 . S
C496 C491 1.350 . S
C497 H484 0.929 . S
C497 C489 1.433 . S
C497 N499 1.384 . S
N498 C494 1.427 . S
N498 C495 1.384 . S
N499 C491 1.427 . S
N499 C497 1.384 . S
H500 C506 0.930 . S
H501 C510 0.930 . S
H502 C515 0.929 . S
H503 C513 0.929 . S
H504 C508 0.929 . S
H505 C514 0.929 . S
C506 H500 0.930 . S
C506 C507 1.367 . S
C506 C514 1.378 . S
C507 C506 1.367 . S
C507 C515 1.433 1_554 S
C508 H504 0.929 . S
C508 C510 1.378 . S
C508 C512 1.350 1_556 S
C509 C512 1.463 1_565 S
C509 C514 1.350 . S
C509 N517 1.427 1_554 S
C510 H501 0.930 . S
C510 C508 1.378 . S
C510 C511 1.367 . S
C511 C510 1.367 . S
C511 C513 1.433 1_556 S
C512 C508 1.350 1_554 S
C512 C509 1.463 1_545 S
C512 N516 1.427 . S
C513 H503 0.929 . S
C513 C511 1.433 1_554 S
C513 N516 1.384 . S
C514 H505 0.929 . S
C514 C506 1.378 . S
C514 C509 1.350 . S
C515 H502 0.929 . S
C515 C507 1.433 1_556 S
C515 N517 1.384 . S
N516 C512 1.427 . S
N516 C513 1.384 . S
N517 C509 1.427 1_556 S
N517 C515 1.384 . S
H518 C524 0.930 . S
H519 C528 0.930 . S
H520 C533 0.929 . S
H521 C531 0.929 . S
H522 C526 0.929 . S
H523 C532 0.929 . S
C524 H518 0.930 . S
C524 C525 1.367 . S
C524 C532 1.378 . S
C525 C524 1.367 . S
C525 C533 1.433 . S
C526 H522 0.929 . S
C526 C528 1.378 . S
C526 C530 1.350 . S
C527 C530 1.463 1_545 S
C527 C532 1.350 . S
C527 N535 1.427 . S
C528 H519 0.930 . S
C528 C526 1.378 . S
C528 C529 1.367 . S
C529 C528 1.367 . S
C529 C531 1.433 . S
C530 C526 1.350 . S
C530 C527 1.463 1_565 S
C530 N534 1.427 . S
C531 H521 0.929 . S
C531 C529 1.433 . S
C531 N534 1.384 . S
C532 H523 0.929 . S
C532 C524 1.378 . S
C532 C527 1.350 . S
C533 H520 0.929 . S
C533 C525 1.433 . S
C533 N535 1.384 . S
N534 C530 1.427 . S
N534 C531 1.384 . S
N535 C527 1.427 . S
N535 C533 1.384 . S
H536 C542 0.930 . S
H537 C546 0.930 . S
H538 C551 0.929 . S
H539 C549 0.929 . S
H540 C544 0.929 . S
H541 C550 0.929 . S
C542 H536 0.930 . S
C542 C543 1.367 1_554 S
C542 C550 1.378 . S
C543 C542 1.367 1_556 S
C543 C551 1.433 . S
C544 H540 0.929 . S
C544 C546 1.378 . S
C544 C548 1.350 1_556 S
C545 C548 1.463 . S
C545 C550 1.350 . S
C545 N553 1.427 1_554 S
C546 H537 0.930 . S
C546 C544 1.378 . S
C546 C547 1.367 1_556 S
C547 C546 1.367 1_554 S
C547 C549 1.433 . S
C548 C544 1.350 1_554 S
C548 C545 1.463 . S
C548 N552 1.427 . S
C549 H539 0.929 . S
C549 C547 1.433 . S
C549 N552 1.384 . S
C550 H541 0.929 . S
C550 C542 1.378 . S
C550 C545 1.350 . S
C551 H538 0.929 . S
C551 C543 1.433 . S
C551 N553 1.384 . S
N552 C548 1.427 . S
N552 C549 1.384 . S
N553 C545 1.427 1_556 S
N553 C551 1.384 . S
H554 C560 0.930 . S
H555 C564 0.930 . S
H556 C569 0.929 . S
H557 C567 0.929 . S
H558 C562 0.929 . S
H559 C568 0.929 . S
C560 H554 0.930 . S
C560 C561 1.367 1_554 S
C560 C568 1.378 . S
C561 C560 1.367 1_556 S
C561 C569 1.433 . S
C562 H558 0.929 . S
C562 C564 1.378 . S
C562 C566 1.350 1_556 S
C563 C566 1.463 . S
C563 C568 1.350 . S
C563 N571 1.427 1_554 S
C564 H555 0.930 . S
C564 C562 1.378 . S
C564 C565 1.367 1_556 S
C565 C564 1.367 1_554 S
C565 C567 1.433 . S
C566 C562 1.350 1_554 S
C566 C563 1.463 . S
C566 N570 1.427 . S
C567 H557 0.929 . S
C567 C565 1.433 . S
C567 N570 1.384 . S
C568 H559 0.929 . S
C568 C560 1.378 . S
C568 C563 1.350 . S
C569 H556 0.929 . S
C569 C561 1.433 . S
C569 N571 1.384 . S
N570 C566 1.427 . S
N570 C567 1.384 . S
N571 C563 1.427 1_556 S
N571 C569 1.384 . S
H572 C578 0.930 . S
H573 C582 0.930 . S
H574 C587 0.929 . S
H575 C585 0.929 . S
H576 C580 0.929 . S
H577 C586 0.929 . S
C578 H572 0.930 . S
C578 C579 1.367 . S
C578 C586 1.378 . S
C579 C578 1.367 . S
C579 C587 1.433 . S
C580 H576 0.929 . S
C580 C582 1.378 . S
C580 C584 1.350 . S
C581 C584 1.463 . S
C581 C586 1.350 . S
C581 N589 1.427 . S
C582 H573 0.930 . S
C582 C580 1.378 . S
C582 C583 1.367 . S
C583 C582 1.367 . S
C583 C585 1.433 . S
C584 C580 1.350 . S
C584 C581 1.463 . S
C584 N588 1.427 . S
C585 H575 0.929 . S
C585 C583 1.433 . S
C585 N588 1.384 . S
C586 H577 0.929 . S
C586 C578 1.378 . S
C586 C581 1.350 . S
C587 H574 0.929 . S
C587 C579 1.433 . S
C587 N589 1.384 . S
N588 C584 1.427 . S
N588 C585 1.384 . S
N589 C581 1.427 . S
N589 C587 1.384 . S
H590 C596 0.930 . S
H591 C600 0.930 . S
H592 C605 0.929 . S
H593 C603 0.929 . S
H594 C598 0.929 . S
H595 C604 0.929 . S
C596 H590 0.930 . S
C596 C597 1.367 . S
C596 C604 1.378 . S
C597 C596 1.367 . S
C597 C605 1.433 . S
C598 H594 0.929 . S
C598 C600 1.378 . S
C598 C602 1.350 . S
C599 C602 1.463 . S
C599 C604 1.350 . S
C599 N607 1.427 . S
C600 H591 0.930 . S
C600 C598 1.378 . S
C600 C601 1.367 . S
C601 C600 1.367 . S
C601 C603 1.433 . S
C602 C598 1.350 . S
C602 C599 1.463 . S
C602 N606 1.427 . S
C603 H593 0.929 . S
C603 C601 1.433 . S
C603 N606 1.384 . S
C604 H595 0.929 . S
C604 C596 1.378 . S
C604 C599 1.350 . S
C605 H592 0.929 . S
C605 C597 1.433 . S
C605 N607 1.384 . S
N606 C602 1.427 . S
N606 C603 1.384 . S
N607 C599 1.427 . S
N607 C605 1.384 . S
H608 C614 0.930 1_655 S
H609 C618 0.930 1_455 S
H610 C623 0.929 . S
H611 C621 0.929 . S
H612 C616 0.929 . S
H613 C622 0.929 . S
C614 H608 0.930 1_455 S
C614 C615 1.367 . S
C614 C622 1.378 1_455 S
C615 C614 1.367 . S
C615 C623 1.433 . S
C616 H612 0.929 . S
C616 C618 1.378 1_455 S
C616 C620 1.350 1_455 S
C617 C620 1.463 1_455 S
C617 C622 1.350 1_455 S
C617 N625 1.427 . S
C618 H609 0.930 1_655 S
C618 C616 1.378 1_655 S
C618 C619 1.367 . S
C619 C618 1.367 . S
C619 C621 1.433 . S
C620 C616 1.350 1_655 S
C620 C617 1.463 1_655 S
C620 N624 1.427 . S
C621 H611 0.929 . S
C621 C619 1.433 . S
C621 N624 1.384 . S
C622 H613 0.929 . S
C622 C614 1.378 1_655 S
C622 C617 1.350 1_655 S
C623 H610 0.929 . S
C623 C615 1.433 . S
C623 N625 1.384 . S
N624 C620 1.427 . S
N624 C621 1.384 . S
N625 C617 1.427 . S
N625 C623 1.384 . S
H626 C632 0.930 . S
H627 C636 0.930 . S
H628 C641 0.929 1_455 S
H629 C639 0.929 1_655 S
H630 C634 0.929 . S
H631 C640 0.929 . S
C632 H626 0.930 . S
C632 C633 1.367 . S
C632 C640 1.378 . S
C633 C632 1.367 . S
C633 C641 1.433 . S
C634 H630 0.929 . S
C634 C636 1.378 . S
C634 C638 1.350 . S
C635 C638 1.463 1_655 S
C635 C640 1.350 . S
C635 N643 1.427 1_655 S
C636 H627 0.930 . S
C636 C634 1.378 . S
C636 C637 1.367 . S
C637 C636 1.367 . S
C637 C639 1.433 . S
C638 C634 1.350 . S
C638 C635 1.463 1_455 S
C638 N642 1.427 1_455 S
C639 H629 0.929 1_455 S
C639 C637 1.433 . S
C639 N642 1.384 1_455 S
C640 H631 0.929 . S
C640 C632 1.378 . S
C640 C635 1.350 . S
C641 H628 0.929 1_655 S
C641 C633 1.433 . S
C641 N643 1.384 1_655 S
N642 C638 1.427 1_655 S
N642 C639 1.384 1_655 S
N643 C635 1.427 1_455 S
N643 C641 1.384 1_455 S
H644 C650 0.930 . S
H645 C654 0.930 . S
H646 C659 0.929 . S
H647 C657 0.929 . S
H648 C652 0.929 . S
H649 C658 0.929 . S
C650 H644 0.930 . S
C650 C651 1.367 . S
C650 C658 1.378 . S
C651 C650 1.367 . S
C651 C659 1.433 1_655 S
C652 H648 0.929 . S
C652 C654 1.378 . S
C652 C656 1.350 . S
C653 C656 1.463 1_655 S
C653 C658 1.350 . S
C653 N661 1.427 1_655 S
C654 H645 0.930 . S
C654 C652 1.378 . S
C654 C655 1.367 . S
C655 C654 1.367 . S
C655 C657 1.433 1_455 S
C656 C652 1.350 . S
C656 C653 1.463 1_455 S
C656 N660 1.427 1_455 S
C657 H647 0.929 . S
C657 C655 1.433 1_655 S
C657 N660 1.384 . S
C658 H649 0.929 . S
C658 C650 1.378 . S
C658 C653 1.350 . S
C659 H646 0.929 . S
C659 C651 1.433 1_455 S
C659 N661 1.384 . S
N660 C656 1.427 1_655 S
N660 C657 1.384 . S
N661 C653 1.427 1_455 S
N661 C659 1.384 . S
H662 C668 0.930 . S
H663 C672 0.930 . S
H664 C677 0.929 . S
H665 C675 0.929 . S
H666 C670 0.929 . S
H667 C676 0.929 . S
C668 H662 0.930 . S
C668 C669 1.367 . S
C668 C676 1.378 . S
C669 C668 1.367 . S
C669 C677 1.433 . S
C670 H666 0.929 . S
C670 C672 1.378 . S
C670 C674 1.350 . S
C671 C674 1.463 1_655 S
C671 C676 1.350 . S
C671 N679 1.427 . S
C672 H663 0.930 . S
C672 C670 1.378 . S
C672 C673 1.367 . S
C673 C672 1.367 . S
C673 C675 1.433 . S
C674 C670 1.350 . S
C674 C671 1.463 1_455 S
C674 N678 1.427 . S
C675 H665 0.929 . S
C675 C673 1.433 . S
C675 N678 1.384 . S
C676 H667 0.929 . S
C676 C668 1.378 . S
C676 C671 1.350 . S
C677 H664 0.929 . S
C677 C669 1.433 . S
C677 N679 1.384 . S
N678 C674 1.427 . S
N678 C675 1.384 . S
N679 C671 1.427 . S
N679 C677 1.384 . S
H680 C686 0.930 . S
H681 C690 0.930 . S
H682 C695 0.929 . S
H683 C693 0.929 . S
H684 C688 0.929 . S
H685 C694 0.929 . S
C686 H680 0.930 . S
C686 C687 1.367 . S
C686 C694 1.378 . S
C687 C686 1.367 . S
C687 C695 1.433 . S
C688 H684 0.929 . S
C688 C690 1.378 . S
C688 C692 1.350 . S
C689 C692 1.463 . S
C689 C694 1.350 . S
C689 N697 1.427 . S
C690 H681 0.930 . S
C690 C688 1.378 . S
C690 C691 1.367 . S
C691 C690 1.367 . S
C691 C693 1.433 . S
C692 C688 1.350 . S
C692 C689 1.463 . S
C692 N696 1.427 . S
C693 H683 0.929 . S
C693 C691 1.433 . S
C693 N696 1.384 . S
C694 H685 0.929 . S
C694 C686 1.378 . S
C694 C689 1.350 . S
C695 H682 0.929 . S
C695 C687 1.433 . S
C695 N697 1.384 . S
N696 C692 1.427 . S
N696 C693 1.384 . S
N697 C689 1.427 . S
N697 C695 1.384 . S
H698 C704 0.930 . S
H699 C708 0.930 . S
H700 C713 0.929 . S
H701 C711 0.929 . S
H702 C706 0.929 . S
H703 C712 0.929 . S
C704 H698 0.930 . S
C704 C705 1.367 . S
C704 C712 1.378 . S
C705 C704 1.367 . S
C705 C713 1.433 . S
C706 H702 0.929 . S
C706 C708 1.378 . S
C706 C710 1.350 . S
C707 C710 1.463 . S
C707 C712 1.350 . S
C707 N715 1.427 . S
C708 H699 0.930 . S
C708 C706 1.378 . S
C708 C709 1.367 . S
C709 C708 1.367 . S
C709 C711 1.433 . S
C710 C706 1.350 . S
C710 C707 1.463 . S
C710 N714 1.427 . S
C711 H701 0.929 . S
C711 C709 1.433 . S
C711 N714 1.384 . S
C712 H703 0.929 . S
C712 C704 1.378 . S
C712 C707 1.350 . S
C713 H700 0.929 . S
C713 C705 1.433 . S
C713 N715 1.384 . S
N714 C710 1.427 . S
N714 C711 1.384 . S
N715 C707 1.427 . S
N715 C713 1.384 . S
H716 C722 0.930 . S
H717 C726 0.930 . S
H718 C731 0.929 . S
H719 C729 0.929 . S
H720 C724 0.929 . S
H721 C730 0.929 . S
C722 H716 0.930 . S
C722 C723 1.367 . S
C722 C730 1.378 . S
C723 C722 1.367 . S
C723 C731 1.433 . S
C724 H720 0.929 . S
C724 C726 1.378 . S
C724 C728 1.350 . S
C725 C728 1.463 . S
C725 C730 1.350 . S
C725 N733 1.427 . S
C726 H717 0.930 . S
C726 C724 1.378 . S
C726 C727 1.367 . S
C727 C726 1.367 . S
C727 C729 1.433 . S
C728 C724 1.350 . S
C728 C725 1.463 . S
C728 N732 1.427 . S
C729 H719 0.929 . S
C729 C727 1.433 . S
C729 N732 1.384 . S
C730 H721 0.929 . S
C730 C722 1.378 . S
C730 C725 1.350 . S
C731 H718 0.929 . S
C731 C723 1.433 . S
C731 N733 1.384 . S
N732 C728 1.427 . S
N732 C729 1.384 . S
N733 C725 1.427 . S
N733 C731 1.384 . S
H734 C740 0.930 . S
H735 C744 0.930 . S
H736 C749 0.929 . S
H737 C747 0.929 . S
H738 C742 0.929 . S
H739 C748 0.929 . S
C740 H734 0.930 . S
C740 C741 1.367 . S
C740 C748 1.378 . S
C741 C740 1.367 . S
C741 C749 1.433 . S
C742 H738 0.929 . S
C742 C744 1.378 . S
C742 C746 1.350 . S
C743 C746 1.463 . S
C743 C748 1.350 . S
C743 N751 1.427 . S
C744 H735 0.930 . S
C744 C742 1.378 . S
C744 C745 1.367 . S
C745 C744 1.367 . S
C745 C747 1.433 . S
C746 C742 1.350 . S
C746 C743 1.463 . S
C746 N750 1.427 . S
C747 H737 0.929 . S
C747 C745 1.433 . S
C747 N750 1.384 . S
C748 H739 0.929 . S
C748 C740 1.378 . S
C748 C743 1.350 . S
C749 H736 0.929 . S
C749 C741 1.433 . S
C749 N751 1.384 . S
N750 C746 1.427 . S
N750 C747 1.384 . S
N751 C743 1.427 . S
N751 C749 1.384 . S
C327 C31 2.296 . S
C331 C12 2.296 . S
C345 C71 2.298 . S
C349 C52 2.298 . S
C363 C111 2.294 . S
C367 C92 2.294 . S
C381 C151 2.297 . S
C385 C132 2.297 . S
C399 C191 2.292 . S
C403 C172 2.292 . S
C417 C212 2.297 . S
C421 C231 2.297 . S
C435 C271 2.293 . S
C439 C252 2.293 . S
C453 C292 2.296 . S
C457 C311 2.296 . S
C471 C48 2.540 . S
C475 C29 2.540 . S
C489 C149 2.541 . S
C493 C88 2.541 . S
C507 C189 2.544 . S
C511 C208 2.544 . S
C525 C248 2.548 . S
C529 C309 2.548 . S
C543 C8 1.812 . S
C547 C229 1.812 . S
C561 C168 1.813 . S
C565 C69 1.813 . S
C579 C109 1.817 . S
C583 C288 1.817 . S
C597 C128 1.811 . S
C601 C269 1.811 . S
C615 C17 1.574 . S
C619 C137 1.585 . S
C633 C57 1.520 . S
C637 C97 1.508 . S
C651 C42 1.587 . S
C655 C82 1.584 . S
C669 C122 1.521 . S
C673 C2 1.507 . S
C687 C177 1.578 . S
C691 C297 1.589 . S
C705 C217 1.507 . S
C709 C257 1.518 . S
C723 C202 1.574 . S
C727 C242 1.584 . S
C741 C282 1.518 . S
C745 C162 1.507 . S
