# Generated by pormake.
# Topology wjz, (5)-cn, num edge types: 1
# Building blocks:
#     Node 0, Type 0, BuildingBlock: XOMCOT_clean_sbu_0, # of connection points: 5
#     Node 1, Type 0, BuildingBlock: XOMCOT_clean_sbu_0, # of connection points: 5
#     Node 2, Type 0, BuildingBlock: XOMCOT_clean_sbu_0, # of connection points: 5
#     Node 3, Type 0, BuildingBlock: XOMCOT_clean_sbu_0, # of connection points: 5
#     Node 4, Type 0, BuildingBlock: XOMCOT_clean_sbu_0, # of connection points: 5
#     Node 5, Type 0, BuildingBlock: XOMCOT_clean_sbu_0, # of connection points: 5
#     Node 6, Type 0, BuildingBlock: XOMCOT_clean_sbu_0, # of connection points: 5
#     Node 7, Type 0, BuildingBlock: XOMCOT_clean_sbu_0, # of connection points: 5
#     Node 8, Type 0, BuildingBlock: XOMCOT_clean_sbu_0, # of connection points: 5
#     Node 9, Type 0, BuildingBlock: XOMCOT_clean_sbu_0, # of connection points: 5
#     Node 10, Type 0, BuildingBlock: XOMCOT_clean_sbu_0, # of connection points: 5
#     Node 11, Type 0, BuildingBlock: XOMCOT_clean_sbu_0, # of connection points: 5
#     Edge 12, Type (0, 0), BuildingBlock: EZIPEK_clean_linker_0, # of connection points: 2
#     Edge 13, Type (0, 0), BuildingBlock: EZIPEK_clean_linker_0, # of connection points: 2
#     Edge 14, Type (0, 0), BuildingBlock: EZIPEK_clean_linker_0, # of connection points: 2
#     Edge 15, Type (0, 0), BuildingBlock: EZIPEK_clean_linker_0, # of connection points: 2
#     Edge 16, Type (0, 0), BuildingBlock: EZIPEK_clean_linker_0, # of connection points: 2
#     Edge 17, Type (0, 0), BuildingBlock: EZIPEK_clean_linker_0, # of connection points: 2
#     Edge 18, Type (0, 0), BuildingBlock: EZIPEK_clean_linker_0, # of connection points: 2
#     Edge 19, Type (0, 0), BuildingBlock: EZIPEK_clean_linker_0, # of connection points: 2
#     Edge 20, Type (0, 0), BuildingBlock: EZIPEK_clean_linker_0, # of connection points: 2
#     Edge 21, Type (0, 0), BuildingBlock: EZIPEK_clean_linker_0, # of connection points: 2
#     Edge 22, Type (0, 0), BuildingBlock: EZIPEK_clean_linker_0, # of connection points: 2
#     Edge 23, Type (0, 0), BuildingBlock: EZIPEK_clean_linker_0, # of connection points: 2
#     Edge 24, Type (0, 0), BuildingBlock: EZIPEK_clean_linker_0, # of connection points: 2
#     Edge 25, Type (0, 0), BuildingBlock: EZIPEK_clean_linker_0, # of connection points: 2
#     Edge 26, Type (0, 0), BuildingBlock: EZIPEK_clean_linker_0, # of connection points: 2
#     Edge 27, Type (0, 0), BuildingBlock: EZIPEK_clean_linker_0, # of connection points: 2
#     Edge 28, Type (0, 0), BuildingBlock: EZIPEK_clean_linker_0, # of connection points: 2
#     Edge 29, Type (0, 0), BuildingBlock: EZIPEK_clean_linker_0, # of connection points: 2
#     Edge 30, Type (0, 0), BuildingBlock: EZIPEK_clean_linker_0, # of connection points: 2
#     Edge 31, Type (0, 0), BuildingBlock: EZIPEK_clean_linker_0, # of connection points: 2
#     Edge 32, Type (0, 0), BuildingBlock: EZIPEK_clean_linker_0, # of connection points: 2
#     Edge 33, Type (0, 0), BuildingBlock: EZIPEK_clean_linker_0, # of connection points: 2
#     Edge 34, Type (0, 0), BuildingBlock: EZIPEK_clean_linker_0, # of connection points: 2
#     Edge 35, Type (0, 0), BuildingBlock: EZIPEK_clean_linker_0, # of connection points: 2
#     Edge 36, Type (0, 0), BuildingBlock: EZIPEK_clean_linker_0, # of connection points: 2
#     Edge 37, Type (0, 0), BuildingBlock: EZIPEK_clean_linker_0, # of connection points: 2
#     Edge 38, Type (0, 0), BuildingBlock: EZIPEK_clean_linker_0, # of connection points: 2
#     Edge 39, Type (0, 0), BuildingBlock: EZIPEK_clean_linker_0, # of connection points: 2
#     Edge 40, Type (0, 0), BuildingBlock: EZIPEK_clean_linker_0, # of connection points: 2
#     Edge 41, Type (0, 0), BuildingBlock: EZIPEK_clean_linker_0, # of connection points: 2
# Relax obj value: 0.153
# Max RMSD: 0.183
# Mean RMSD: 0.183
data_MOF--net-wjz--node1-XOMCOT_clean_sbu_0--edge1-EZIPEK_clean_linker_0
_symmetry_space_group_name_H-M    P1
_symmetry_Int_Tables_number       1
_symmetry_cell_setting            triclinic
loop_
_symmetry_equiv_pos_as_xyz
'x, y, z'
_cell_length_a     55.264632
_cell_length_b     55.243898
_cell_length_c     13.47884
_cell_angle_alpha  90.064676
_cell_angle_beta   89.933411
_cell_angle_gamma 119.83689
loop_
_atom_site_label
_atom_site_type_symbol
_atom_site_fract_x
_atom_site_fract_y
_atom_site_fract_z
_atom_type_partial_charge
Co0 Co 0.33711 0.50055 0.15345 0.0
C1 C 0.34287 0.50168 0.37393 0.0
C2 C 0.3635 0.54269 0.31113 0.0
C3 C 0.36379 0.54513 0.41308 0.0
N4 N 0.35053 0.51539 0.28613 0.0
N5 N 0.35085 0.51928 0.45199 0.0
H6 H 0.32933 0.47954 0.38207 0.0
H7 H 0.37043 0.5597 0.25885 0.0
C8 C 0.39713 0.54378 0.11239 0.0
O9 O 0.40492 0.53413 0.18744 0.0
N10 N 0.3238 0.48663 0.02164 0.0
C11 C 0.31054 0.4598 0.99137 0.0
C12 C 0.31014 0.4593 0.88889 0.0
C13 C 0.33088 0.50203 0.9379 0.0
N14 N 0.32312 0.48587 0.85617 0.0
C15 C 0.34499 0.45592 0.22692 0.0
C16 C 0.38582 0.46289 0.09302 0.0
C17 C 0.37872 0.44337 0.1695 0.0
C18 C 0.35768 0.4396 0.23603 0.0
C19 C 0.37316 0.47934 0.08865 0.0
N20 N 0.35417 0.47693 0.15878 0.0
H21 H 0.32731 0.45106 0.27315 0.0
H22 H 0.37858 0.49389 0.02822 0.0
H23 H 0.30324 0.44198 0.04012 0.0
H24 H 0.34288 0.52457 0.93618 0.0
O25 O 0.30087 0.47515 0.20879 0.0
O26 O 0.31422 0.51797 0.15577 0.0
O27 O 0.37126 0.53223 0.09125 0.0
C28 C 0.29515 0.49518 0.19751 0.0
H29 H 0.37169 0.56427 0.45525 0.0
H30 H 0.30216 0.441 0.84202 0.0
H31 H 0.40127 0.46562 0.03795 0.0
H32 H 0.3508 0.42385 0.2935 0.0
Co33 Co 0.83954 0.32665 0.29503 0.0
C34 C 0.84228 0.32945 0.51244 0.0
C35 C 0.82074 0.34979 0.45483 0.0
C36 C 0.81891 0.34929 0.55708 0.0
N37 N 0.83542 0.33739 0.42737 0.0
N38 N 0.8324 0.33644 0.59233 0.0
H39 H 0.8531 0.31765 0.51571 0.0
H40 H 0.81092 0.35743 0.40407 0.0
C41 C 0.8585 0.37822 0.1726 0.0
O42 O 0.87843 0.37438 0.13663 0.0
N43 N 0.8427 0.31483 0.1608 0.0
C44 C 0.85264 0.2979 0.13254 0.0
C45 C 0.85116 0.2952 0.03067 0.0
C46 C 0.83374 0.32064 0.07542 0.0
N47 N 0.83947 0.30973 0.99546 0.0
C48 C 0.89165 0.32778 0.32407 0.0
C49 C 0.92391 0.38487 0.34836 0.0
C50 C 0.93689 0.36869 0.34413 0.0
C51 C 0.92045 0.33973 0.33551 0.0
C52 C 0.895 0.37195 0.33807 0.0
N53 N 0.87954 0.34406 0.31777 0.0
H54 H 0.87911 0.30539 0.32204 0.0
H55 H 0.88511 0.38447 0.34587 0.0
H56 H 0.86008 0.28762 0.18131 0.0
H57 H 0.82364 0.33298 0.0707 0.0
O58 O 0.82775 0.2895 0.34371 0.0
O59 O 0.79985 0.30394 0.2862 0.0
O60 O 0.84256 0.36229 0.24109 0.0
C61 C 0.80238 0.2836 0.32341 0.0
H62 H 0.80781 0.35687 0.60194 0.0
H63 H 0.85852 0.28392 0.98573 0.0
H64 H 0.93603 0.40723 0.35955 0.0
H65 H 0.92985 0.32657 0.33676 0.0
Co66 Co 0.50957 0.83889 0.46441 0.0
C67 C 0.50931 0.84639 0.68006 0.0
C68 C 0.46979 0.81358 0.62843 0.0
C69 C 0.46968 0.81311 0.7305 0.0
N70 N 0.49441 0.83484 0.5967 0.0
N71 N 0.49458 0.83363 0.76239 0.0
H72 H 0.53121 0.86206 0.68037 0.0
H73 H 0.45377 0.79829 0.58053 0.0
C74 C 0.45786 0.84537 0.43176 0.0
O75 O 0.45287 0.84595 0.52662 0.0
N76 N 0.52495 0.8421 0.33166 0.0
C77 C 0.5493 0.8435 0.30629 0.0
C78 C 0.55158 0.84413 0.20436 0.0
C79 C 0.51252 0.84123 0.24423 0.0
N80 N 0.52839 0.84261 0.16609 0.0
C81 C 0.56101 0.89104 0.47562 0.0
C82 C 0.53758 0.92428 0.51086 0.0
C83 C 0.56635 0.93685 0.49675 0.0
C84 C 0.57828 0.91999 0.48148 0.0
C85 C 0.52119 0.89533 0.50556 0.0
N86 N 0.53269 0.87909 0.48323 0.0
H87 H 0.57047 0.87826 0.46496 0.0
H88 H 0.49936 0.88627 0.52 0.0
H89 H 0.56418 0.8433 0.3577 0.0
H90 H 0.49205 0.83898 0.23649 0.0
O91 O 0.53441 0.82694 0.51714 0.0
O92 O 0.49274 0.79884 0.45569 0.0
O93 O 0.47856 0.84311 0.40133 0.0
C94 C 0.51543 0.80154 0.49551 0.0
H95 H 0.4535 0.79763 0.77754 0.0
H96 H 0.56848 0.84481 0.16149 0.0
H97 H 0.52787 0.93679 0.52594 0.0
H98 H 0.60063 0.92915 0.47304 0.0
Co99 Co 0.66953 0.51207 0.60518 0.0
C100 C 0.66436 0.5112 0.82556 0.0
C101 C 0.64551 0.47009 0.76382 0.0
C102 C 0.64525 0.46789 0.86577 0.0
N103 N 0.65708 0.49724 0.73818 0.0
N104 N 0.6571 0.4938 0.9038 0.0
H105 H 0.67672 0.53351 0.83317 0.0
H106 H 0.63937 0.45312 0.71202 0.0
C107 C 0.60862 0.46895 0.5697 0.0
O108 O 0.60098 0.4746 0.65498 0.0
N109 N 0.68214 0.52615 0.47294 0.0
C110 C 0.69684 0.55303 0.44395 0.0
C111 C 0.69806 0.55383 0.34151 0.0
C112 C 0.6749 0.51098 0.38854 0.0
N113 N 0.68419 0.52739 0.30753 0.0
C114 C 0.66693 0.55929 0.68068 0.0
C115 C 0.62084 0.55116 0.57381 0.0
C116 C 0.63189 0.572 0.64645 0.0
C117 C 0.65575 0.57664 0.69786 0.0
C118 C 0.63288 0.53435 0.5587 0.0
N119 N 0.65426 0.5371 0.61749 0.0
H120 H 0.68601 0.564 0.71786 0.0
H121 H 0.62512 0.5194 0.49897 0.0
H122 H 0.705 0.57077 0.4935 0.0
H123 H 0.66206 0.48849 0.38583 0.0
O124 O 0.70654 0.53608 0.65702 0.0
O125 O 0.69115 0.4934 0.60199 0.0
O126 O 0.63421 0.48143 0.54374 0.0
C127 C 0.71174 0.51597 0.63972 0.0
H128 H 0.63824 0.44897 0.9085 0.0
H129 H 0.70736 0.57232 0.29541 0.0
H130 H 0.60318 0.54798 0.52934 0.0
H131 H 0.66557 0.59349 0.75118 0.0
Co132 Co 0.15568 0.66685 0.81089 0.0
C133 C 0.15033 0.66249 0.02755 0.0
C134 C 0.17107 0.641 0.97274 0.0
C135 C 0.17191 0.64115 0.07523 0.0
N136 N 0.15775 0.65461 0.94332 0.0
N137 N 0.15893 0.65472 0.10885 0.0
H138 H 0.14044 0.67518 0.02933 0.0
H139 H 0.18095 0.63307 0.92336 0.0
C140 C 0.13598 0.61516 0.68687 0.0
O141 O 0.11614 0.61916 0.65126 0.0
N142 N 0.15408 0.68002 0.67745 0.0
C143 C 0.14619 0.69872 0.65121 0.0
C144 C 0.14656 0.70091 0.54928 0.0
C145 C 0.16093 0.67268 0.59054 0.0
N146 N 0.15556 0.68425 0.51191 0.0
C147 C 0.1038 0.66697 0.8317 0.0
C148 C 0.07043 0.61 0.85554 0.0
C149 C 0.05797 0.62657 0.84724 0.0
C150 C 0.07493 0.65548 0.83885 0.0
C151 C 0.09941 0.62245 0.84922 0.0
N152 N 0.11552 0.65029 0.82909 0.0
H153 H 0.11668 0.68931 0.8301 0.0
H154 H 0.10884 0.60958 0.85933 0.0
H155 H 0.14091 0.71054 0.70155 0.0
H156 H 0.16934 0.65888 0.58355 0.0
O157 O 0.16807 0.7037 0.86422 0.0
O158 O 0.19582 0.68872 0.80605 0.0
O159 O 0.15207 0.63112 0.75494 0.0
C160 C 0.19336 0.70829 0.85028 0.0
H161 H 0.18226 0.63303 0.12141 0.0
H162 H 0.14039 0.71342 0.50587 0.0
H163 H 0.05787 0.58767 0.86653 0.0
H164 H 0.0659 0.66896 0.83711 0.0
Co165 Co 0.49128 0.15645 0.99801 0.0
C166 C 0.49086 0.14844 0.2134 0.0
C167 C 0.53238 0.17604 0.1614 0.0
C168 C 0.53267 0.17623 0.26366 0.0
N169 N 0.50621 0.15846 0.1298 0.0
N170 N 0.50656 0.15894 0.29574 0.0
H171 H 0.46836 0.13568 0.21411 0.0
H172 H 0.54962 0.18951 0.11363 0.0
C173 C 0.54059 0.14603 0.95264 0.0
O174 O 0.54667 0.14379 0.04499 0.0
N175 N 0.47626 0.15464 0.86558 0.0
C176 C 0.45005 0.14775 0.83851 0.0
C177 C 0.44832 0.14708 0.73635 0.0
C178 C 0.49019 0.15874 0.77893 0.0
N179 N 0.47356 0.1539 0.69966 0.0
C180 C 0.43803 0.1062 0.02228 0.0
C181 C 0.45881 0.07 0.03411 0.0
C182 C 0.43004 0.05912 0.03139 0.0
C183 C 0.41947 0.07745 0.02836 0.0
C184 C 0.47646 0.09873 0.02878 0.0
N185 N 0.46617 0.11645 0.01638 0.0
H186 H 0.42973 0.12018 0.0234 0.0
H187 H 0.49831 0.10638 0.03591 0.0
H188 H 0.43321 0.1437 0.8885 0.0
H189 H 0.512 0.16485 0.77282 0.0
O190 O 0.46845 0.17084 0.05337 0.0
O191 O 0.51081 0.19691 0.9911 0.0
O192 O 0.52042 0.15006 0.93045 0.0
C193 C 0.48916 0.19567 0.03429 0.0
H194 H 0.55021 0.18944 0.31077 0.0
H195 H 0.43001 0.14193 0.69231 0.0
H196 H 0.46758 0.05635 0.04071 0.0
H197 H 0.3972 0.06961 0.03019 0.0
Co198 Co 0.50323 0.65943 0.70271 0.0
C199 C 0.50125 0.65731 0.48138 0.0
C200 C 0.46608 0.62124 0.54253 0.0
C201 C 0.46402 0.61962 0.4404 0.0
N202 N 0.48983 0.64462 0.56893 0.0
N203 N 0.48615 0.64238 0.40275 0.0
H204 H 0.52016 0.67725 0.47436 0.0
H205 H 0.45064 0.60655 0.59268 0.0
C206 C 0.46569 0.59928 0.77198 0.0
O207 O 0.47662 0.58892 0.71023 0.0
N208 N 0.51603 0.67429 0.83496 0.0
C209 C 0.54261 0.69132 0.86387 0.0
C210 C 0.54353 0.69226 0.96631 0.0
C211 C 0.50113 0.66538 0.91998 0.0
N212 N 0.51745 0.67574 1.00081 0.0
C213 C 0.54645 0.65008 0.62446 0.0
C214 C 0.55096 0.62257 0.78748 0.0
C215 C 0.57076 0.62947 0.71063 0.0
C216 C 0.56656 0.64181 0.62547 0.0
C217 C 0.53118 0.63127 0.78364 0.0
N218 N 0.52883 0.64466 0.70252 0.0
H219 H 0.54565 0.66143 0.5611 0.0
H220 H 0.5177 0.62724 0.8468 0.0
H221 H 0.56032 0.70087 0.8142 0.0
H222 H 0.4791 0.65031 0.92361 0.0
O223 O 0.52783 0.69576 0.64673 0.0
O224 O 0.48411 0.6807 0.69365 0.0
O225 O 0.47238 0.62495 0.76804 0.0
C226 C 0.50702 0.70042 0.65444 0.0
H227 H 0.44737 0.60333 0.39715 0.0
H228 H 0.56203 0.70284 0.01194 0.0
H229 H 0.54967 0.61012 0.85061 0.0
H230 H 0.57846 0.64516 0.55824 0.0
Co231 Co 0.83997 0.50538 0.87118 0.0
C232 C 0.84915 0.50622 0.65608 0.0
C233 C 0.81952 0.46507 0.70583 0.0
C234 C 0.81946 0.4652 0.60366 0.0
N235 N 0.83838 0.4907 0.73895 0.0
N236 N 0.83803 0.49109 0.57287 0.0
H237 H 0.86278 0.52863 0.65664 0.0
H238 H 0.80535 0.44798 0.7527 0.0
C239 C 0.84895 0.45527 0.91267 0.0
O240 O 0.85153 0.45014 0.81939 0.0
N241 N 0.84118 0.52026 1.00358 0.0
C242 C 0.84515 0.54566 0.02908 0.0
C243 C 0.84603 0.54796 0.13114 0.0
C244 C 0.83903 0.50731 0.09107 0.0
N245 N 0.8422 0.52381 0.16936 0.0
C246 C 0.89068 0.55837 0.85587 0.0
C247 C 0.92654 0.53725 0.84051 0.0
C248 C 0.93763 0.56605 0.84711 0.0
C249 C 0.91948 0.57678 0.85227 0.0
C250 C 0.89774 0.51971 0.84342 0.0
N251 N 0.88014 0.53013 0.85656 0.0
H252 H 0.8769 0.56689 0.85739 0.0
H253 H 0.88994 0.49787 0.83411 0.0
H254 H 0.8472 0.56156 0.97784 0.0
H255 H 0.83532 0.48626 0.09875 0.0
O256 O 0.82661 0.52874 0.81405 0.0
O257 O 0.79956 0.48644 0.87468 0.0
O258 O 0.84528 0.47548 0.93802 0.0
C259 C 0.80148 0.50807 0.82908 0.0
H260 H 0.80545 0.44825 0.55577 0.0
H261 H 0.84915 0.56586 0.17407 0.0
H262 H 0.94009 0.52839 0.8328 0.0
H263 H 0.92749 0.5991 0.8541 0.0
Co264 Co 0.32689 0.84093 0.07295 0.0
C265 C 0.33017 0.84487 0.85578 0.0
C266 C 0.35089 0.82354 0.91205 0.0
C267 C 0.35037 0.82193 0.80982 0.0
N268 N 0.33825 0.83794 0.94039 0.0
N269 N 0.33727 0.83527 0.77541 0.0
H270 H 0.31801 0.85532 0.8532 0.0
H271 H 0.35852 0.81359 0.96219 0.0
C272 C 0.3786 0.85854 0.19499 0.0
O273 O 0.37531 0.87849 0.2343 0.0
N274 N 0.31437 0.84294 0.20731 0.0
C275 C 0.29568 0.8508 0.2344 0.0
C276 C 0.2928 0.84934 0.33615 0.0
C277 C 0.32101 0.83502 0.29335 0.0
N278 N 0.30894 0.83961 0.37247 0.0
C279 C 0.32851 0.89353 0.05419 0.0
C280 C 0.38552 0.92574 0.02836 0.0
C281 C 0.3695 0.93881 0.03706 0.0
C282 C 0.34059 0.92244 0.04677 0.0
C283 C 0.37247 0.8967 0.03502 0.0
N284 N 0.34461 0.88117 0.05553 0.0
H285 H 0.30615 0.88114 0.05699 0.0
H286 H 0.38484 0.88674 0.02427 0.0
H287 H 0.28423 0.85665 0.18466 0.0
H288 H 0.33457 0.82633 0.29945 0.0
O289 O 0.29015 0.83004 0.02253 0.0
O290 O 0.30378 0.80113 0.0767 0.0
O291 O 0.36219 0.84311 0.12654 0.0
C292 C 0.28385 0.80439 0.03955 0.0
H293 H 0.35792 0.8109 0.76442 0.0
H294 H 0.28021 0.85529 0.38021 0.0
H295 H 0.40784 0.93786 0.01654 0.0
H296 H 0.32755 0.93196 0.04915 0.0
Co297 Co 0.49119 0.3361 0.21629 0.0
C298 C 0.49139 0.34124 0.99527 0.0
C299 C 0.53228 0.36501 0.05661 0.0
C300 C 0.53459 0.36563 0.95467 0.0
N301 N 0.50509 0.35014 0.08284 0.0
N302 N 0.50881 0.35063 0.91688 0.0
H303 H 0.46956 0.32639 0.98746 0.0
H304 H 0.54953 0.37318 0.10766 0.0
C305 C 0.53337 0.39652 0.26305 0.0
O306 O 0.5254 0.40531 0.18588 0.0
N307 N 0.47815 0.32187 0.34867 0.0
C308 C 0.45151 0.305 0.37734 0.0
C309 C 0.45062 0.30348 0.4797 0.0
C310 C 0.49312 0.33014 0.43355 0.0
N311 N 0.47678 0.31938 0.51422 0.0
C312 C 0.44743 0.34577 0.14502 0.0
C313 C 0.45297 0.38324 0.29115 0.0
C314 C 0.43532 0.37907 0.21069 0.0
C315 C 0.43205 0.3595 0.13824 0.0
C316 C 0.46875 0.36983 0.29273 0.0
N317 N 0.46716 0.35266 0.21688 0.0
H318 H 0.44308 0.32937 0.09316 0.0
H319 H 0.48259 0.37364 0.3545 0.0
H320 H 0.43381 0.29576 0.32767 0.0
H321 H 0.51525 0.34484 0.4372 0.0
O322 O 0.46561 0.2996 0.16163 0.0
O323 O 0.50911 0.31394 0.20679 0.0
O324 O 0.52287 0.37045 0.27952 0.0
C325 C 0.48595 0.29421 0.1691 0.0
H326 H 0.5537 0.37498 0.91184 0.0
H327 H 0.43213 0.29279 0.52542 0.0
H328 H 0.45525 0.39747 0.35047 0.0
H329 H 0.41762 0.3548 0.07726 0.0
Co330 Co 0.15472 0.48725 0.39316 0.0
C331 C 0.14716 0.48736 0.17761 0.0
C332 C 0.17895 0.5274 0.22949 0.0
C333 C 0.17951 0.52752 0.12738 0.0
N334 N 0.15827 0.50242 0.2611 0.0
N335 N 0.15962 0.5023 0.09533 0.0
H336 H 0.13208 0.46527 0.17717 0.0
H337 H 0.19389 0.54369 0.27746 0.0
C338 C 0.14665 0.53795 0.42903 0.0
O339 O 0.14611 0.5435 0.33473 0.0
N340 N 0.15203 0.47195 0.52575 0.0
C341 C 0.15136 0.44792 0.5508 0.0
C342 C 0.15086 0.44567 0.65277 0.0
C343 C 0.15267 0.48424 0.6134 0.0
N344 N 0.15179 0.46858 0.69139 0.0
C345 C 0.10333 0.43498 0.38211 0.0
C346 C 0.06926 0.45737 0.34523 0.0
C347 C 0.05721 0.42866 0.35949 0.0
C348 C 0.07448 0.41724 0.37565 0.0
C349 C 0.09812 0.47422 0.35113 0.0
N350 N 0.11473 0.46323 0.37423 0.0
H351 H 0.11648 0.42596 0.39327 0.0
H352 H 0.10685 0.49602 0.33639 0.0
H353 H 0.15195 0.43325 0.49913 0.0
H354 H 0.15436 0.50449 0.62145 0.0
O355 O 0.16796 0.46344 0.33955 0.0
O356 O 0.1947 0.50536 0.40199 0.0
O357 O 0.14927 0.51734 0.45735 0.0
C358 C 0.19303 0.48313 0.36182 0.0
H359 H 0.19467 0.544 0.08044 0.0
H360 H 0.15065 0.42897 0.69539 0.0
H361 H 0.05644 0.46666 0.32941 0.0
H362 H 0.06571 0.39492 0.38414 0.0
Co363 Co 0.66445 0.1549 0.54862 0.0
C364 C 0.66074 0.15055 0.33149 0.0
C365 C 0.63712 0.16894 0.38726 0.0
C366 C 0.63709 0.16981 0.28472 0.0
N367 N 0.65219 0.1571 0.41613 0.0
N368 N 0.652 0.15829 0.2505 0.0
H369 H 0.67431 0.14166 0.32913 0.0
H370 H 0.62811 0.1777 0.43699 0.0
C371 C 0.61324 0.13507 0.67454 0.0
O372 O 0.61747 0.11525 0.70892 0.0
N373 N 0.67758 0.1531 0.68191 0.0
C374 C 0.69531 0.14405 0.70886 0.0
C375 C 0.69742 0.14454 0.81087 0.0
C376 C 0.67077 0.16071 0.76836 0.0
N377 N 0.68168 0.15472 0.8475 0.0
C378 C 0.66483 0.10328 0.52303 0.0
C379 C 0.6078 0.06965 0.50218 0.0
C380 C 0.62458 0.05735 0.5067 0.0
C381 C 0.6535 0.07445 0.51367 0.0
C382 C 0.62009 0.09858 0.51045 0.0
N383 N 0.648 0.11479 0.52912 0.0
H384 H 0.68716 0.11631 0.52338 0.0
H385 H 0.60704 0.10788 0.50265 0.0
H386 H 0.70639 0.13772 0.65909 0.0
H387 H 0.65768 0.16993 0.77451 0.0
O388 O 0.70133 0.16757 0.49533 0.0
O389 O 0.68616 0.19505 0.55469 0.0
O390 O 0.62877 0.15111 0.60557 0.0
C391 C 0.70579 0.19279 0.51005 0.0
H392 H 0.62776 0.17907 0.23891 0.0
H393 H 0.70912 0.13751 0.85485 0.0
H394 H 0.58545 0.057 0.49224 0.0
H395 H 0.66711 0.06558 0.51244 0.0
C396 C 0.3654 0.51606 0.62275 0.0
C397 C 0.344 0.51181 0.55509 0.0
C398 C 0.30942 0.493 0.68976 0.0
C399 C 0.33035 0.49512 0.75505 0.0
N400 N 0.37751 0.5057 0.78429 0.0
N401 N 0.29535 0.49448 0.52087 0.0
C402 C 0.35825 0.50611 0.72192 0.0
C403 C 0.31589 0.49973 0.58779 0.0
N404 N 0.39251 0.52938 0.59143 0.0
N405 N 0.28359 0.48547 0.72675 0.0
H406 H 0.2996 0.50056 0.44714 0.0
H407 H 0.27414 0.48281 0.53663 0.0
H408 H 0.27848 0.48051 0.80136 0.0
H409 H 0.26794 0.48615 0.6861 0.0
H410 H 0.40951 0.53619 0.63892 0.0
H411 H 0.39817 0.53501 0.51765 0.0
H412 H 0.39771 0.51116 0.76332 0.0
H413 H 0.37258 0.49783 0.85616 0.0
C414 C 0.81411 0.29789 0.83604 0.0
C415 C 0.8377 0.31616 0.89317 0.0
C416 C 0.8569 0.34849 0.75273 0.0
C417 C 0.83406 0.32957 0.69407 0.0
N418 N 0.79242 0.28524 0.67296 0.0
N419 N 0.88332 0.35663 0.90499 0.0
C420 C 0.81303 0.30391 0.73388 0.0
C421 C 0.8596 0.34093 0.85119 0.0
N422 N 0.79262 0.27518 0.88075 0.0
N423 N 0.87571 0.37383 0.71395 0.0
H424 H 0.88591 0.35125 0.97671 0.0
H425 H 0.90118 0.37368 0.87666 0.0
H426 H 0.87448 0.37942 0.64097 0.0
H427 H 0.8914 0.38992 0.75509 0.0
H428 H 0.77361 0.26211 0.84662 0.0
H429 H 0.79335 0.27031 0.9551 0.0
H430 H 0.77777 0.26503 0.69392 0.0
H431 H 0.79096 0.28953 0.59852 0.0
C432 C 0.51879 0.86306 0.01868 0.0
C433 C 0.52108 0.841 0.06277 0.0
C434 C 0.51041 0.81659 0.90321 0.0
C435 C 0.50508 0.83706 0.86212 0.0
N436 N 0.50155 0.8784 0.88043 0.0
N437 N 0.51473 0.7947 0.05266 0.0
C438 C 0.50866 0.86004 0.91976 0.0
C439 C 0.51584 0.81721 1.0064 0.0
N440 N 0.52704 0.88712 0.07089 0.0
N441 N 0.51091 0.797 0.84268 0.0
H442 H 0.51773 0.7942 0.12883 0.0
H443 H 0.50833 0.77567 0.01747 0.0
H444 H 0.50753 0.79646 0.76638 0.0
H445 H 0.51722 0.78305 0.86622 0.0
H446 H 0.52826 0.905 0.04053 0.0
H447 H 0.5349 0.88992 0.14291 0.0
H448 H 0.50095 0.8941 0.9213 0.0
H449 H 0.49438 0.87669 0.80774 0.0
C450 C 0.64322 0.50123 0.06995 0.0
C451 C 0.66382 0.50162 1.00637 0.0
C452 C 0.69739 0.51743 0.14383 0.0
C453 C 0.6773 0.51861 0.20579 0.0
N454 N 0.63228 0.51447 0.22879 0.0
N455 N 0.71068 0.51122 0.97754 0.0
C456 C 0.65043 0.51112 0.16916 0.0
C457 C 0.69103 0.51008 0.04195 0.0
N458 N 0.61675 0.49121 0.03474 0.0
N459 N 0.72219 0.52258 0.18401 0.0
H460 H 0.70612 0.50465 0.90395 0.0
H461 H 0.73169 0.51971 0.99502 0.0
H462 H 0.72717 0.52804 0.25839 0.0
H463 H 0.73713 0.51991 0.14625 0.0
H464 H 0.59982 0.48767 0.07871 0.0
H465 H 0.61135 0.4849 0.96123 0.0
H466 H 0.61314 0.51168 0.20526 0.0
H467 H 0.63718 0.52187 0.30139 0.0
C468 C 0.17747 0.68944 0.24487 0.0
C469 C 0.15771 0.66248 0.21008 0.0
C470 C 0.13445 0.65153 0.37178 0.0
C471 C 0.15594 0.6773 0.40921 0.0
N472 N 0.19944 0.71968 0.38676 0.0
N473 N 0.11875 0.61684 0.24031 0.0
C474 C 0.17786 0.69603 0.34702 0.0
C475 C 0.13662 0.64316 0.27386 0.0
N476 N 0.19545 0.70887 0.17949 0.0
N477 N 0.11141 0.6358 0.42868 0.0
H478 H 0.11926 0.6107 0.16746 0.0
H479 H 0.10468 0.60073 0.28579 0.0
H480 H 0.10879 0.64238 0.49838 0.0
H481 H 0.09388 0.61779 0.40365 0.0
H482 H 0.20813 0.72986 0.19729 0.0
H483 H 0.19593 0.70428 0.10496 0.0
H484 H 0.21758 0.73293 0.34795 0.0
H485 H 0.19998 0.72495 0.46143 0.0
C486 C 0.48684 0.13405 0.5592 0.0
C487 C 0.48106 0.15463 0.59679 0.0
C488 C 0.48867 0.17577 0.43169 0.0
C489 C 0.49679 0.15669 0.39628 0.0
N490 N 0.50628 0.11941 0.42535 0.0
N491 N 0.48006 0.19725 0.57454 0.0
C492 C 0.49662 0.13628 0.45997 0.0
C493 C 0.48282 0.17604 0.53435 0.0
N494 N 0.48202 0.11191 0.61773 0.0
N495 N 0.48624 0.19332 0.36645 0.0
H496 H 0.47617 0.19811 0.64985 0.0
H497 H 0.4838 0.21504 0.53548 0.0
H498 H 0.49064 0.19361 0.29115 0.0
H499 H 0.47784 0.20591 0.385 0.0
H500 H 0.48351 0.09487 0.5928 0.0
H501 H 0.47433 0.10955 0.68991 0.0
H502 H 0.50952 0.10595 0.47009 0.0
H503 H 0.51267 0.12018 0.35195 0.0
C504 C 0.48216 0.66464 0.24935 0.0
C505 C 0.49279 0.64942 0.29956 0.0
C506 C 0.51716 0.64886 0.14827 0.0
C507 C 0.50922 0.6669 0.10191 0.0
N508 N 0.48669 0.69444 0.10988 0.0
N509 N 0.52184 0.62851 0.30174 0.0
C510 C 0.4923 0.67541 0.15292 0.0
C511 C 0.51073 0.64194 0.25024 0.0
N512 N 0.46184 0.66809 0.29332 0.0
N513 N 0.5298 0.63747 0.09346 0.0
H514 H 0.51662 0.62236 0.37548 0.0
H515 H 0.5374 0.62501 0.27365 0.0
H516 H 0.53437 0.64184 0.01836 0.0
H517 H 0.53362 0.62198 0.11985 0.0
H518 H 0.45141 0.67697 0.25793 0.0
H519 H 0.45368 0.65966 0.36273 0.0
H520 H 0.47676 0.70368 0.1466 0.0
H521 H 0.494 0.70263 0.03937 0.0
C522 C 0.86186 0.50344 0.41037 0.0
C523 C 0.84046 0.50149 0.47324 0.0
C524 C 0.8198 0.51362 0.33463 0.0
C525 C 0.842 0.51699 0.27274 0.0
N526 N 0.88654 0.51971 0.25362 0.0
N527 N 0.80212 0.50946 0.50231 0.0
C528 C 0.86375 0.51317 0.31125 0.0
C529 C 0.82035 0.50809 0.43734 0.0
N530 N 0.87991 0.49534 0.4454 0.0
N531 N 0.79756 0.51439 0.29396 0.0
H532 H 0.80222 0.50548 0.57781 0.0
H533 H 0.78869 0.51683 0.48329 0.0
H534 H 0.79634 0.5178 0.21851 0.0
H535 H 0.77938 0.50936 0.33293 0.0
H536 H 0.89432 0.49345 0.40111 0.0
H537 H 0.87923 0.48885 0.51855 0.0
H538 H 0.90426 0.51966 0.27928 0.0
H539 H 0.88863 0.52741 0.1816 0.0
C540 C 0.29796 0.81512 0.53349 0.0
C541 C 0.3156 0.83867 0.47504 0.0
C542 C 0.34801 0.85938 0.61443 0.0
C543 C 0.32979 0.83646 0.67416 0.0
N544 N 0.28618 0.79413 0.69777 0.0
N545 N 0.35492 0.88497 0.46081 0.0
C546 C 0.30433 0.81474 0.63566 0.0
C547 C 0.34001 0.86132 0.51587 0.0
N548 N 0.27558 0.79297 0.48995 0.0
N549 N 0.37315 0.87899 0.65223 0.0
H550 H 0.34922 0.88698 0.3889 0.0
H551 H 0.37161 0.90329 0.48824 0.0
H552 H 0.37904 0.87828 0.72525 0.0
H553 H 0.38881 0.89488 0.61033 0.0
H554 H 0.26306 0.77399 0.52521 0.0
H555 H 0.27049 0.79313 0.41549 0.0
H556 H 0.26609 0.77896 0.67765 0.0
H557 H 0.29072 0.79321 0.77233 0.0
C558 C 0.4995 0.31812 0.77702 0.0
C559 C 0.50146 0.34303 0.8145 0.0
C560 C 0.48599 0.35163 0.6546 0.0
C561 C 0.48496 0.32725 0.61594 0.0
N562 N 0.49258 0.2884 0.63373 0.0
N563 N 0.49966 0.38506 0.79013 0.0
C564 C 0.49223 0.31076 0.67557 0.0
C565 C 0.4956 0.36027 0.75331 0.0
N566 N 0.50434 0.30152 0.83943 0.0
N567 N 0.47701 0.36596 0.59715 0.0
H568 H 0.506 0.39135 0.86307 0.0
H569 H 0.49835 0.40011 0.74786 0.0
H570 H 0.46986 0.35996 0.52483 0.0
H571 H 0.47494 0.38265 0.62219 0.0
H572 H 0.50104 0.28184 0.82076 0.0
H573 H 0.5106 0.30705 0.9129 0.0
H574 H 0.49966 0.27642 0.6695 0.0
H575 H 0.48689 0.28255 0.56001 0.0
C576 C 0.17737 0.48697 0.95478 0.0
C577 C 0.15656 0.49188 0.9955 0.0
C578 C 0.13078 0.47771 0.83863 0.0
C579 C 0.15312 0.47581 0.79485 0.0
N580 N 0.19968 0.48292 0.80573 0.0
N581 N 0.11482 0.49459 0.97648 0.0
C582 C 0.17695 0.48147 0.85161 0.0
C583 C 0.13353 0.48787 0.93749 0.0
N584 N 0.19712 0.48697 0.01561 0.0
N585 N 0.10671 0.46902 0.78624 0.0
H586 H 0.11631 0.50173 0.04916 0.0
H587 H 0.09904 0.4949 0.93534 0.0
H588 H 0.10407 0.46106 0.71437 0.0
H589 H 0.08866 0.46752 0.81635 0.0
H590 H 0.21133 0.48093 0.99248 0.0
H591 H 0.19759 0.49052 0.09181 0.0
H592 H 0.21871 0.4896 0.84116 0.0
H593 H 0.20034 0.4799 0.72961 0.0
C594 C 0.6926 0.17812 0.0104 0.0
C595 C 0.67458 0.15534 0.94991 0.0
C596 C 0.64094 0.13529 0.08658 0.0
C597 C 0.65965 0.15727 0.14887 0.0
N598 N 0.70479 0.19736 0.17631 0.0
N599 N 0.6342 0.10988 0.93247 0.0
C600 C 0.68598 0.17806 0.11242 0.0
C601 C 0.64937 0.13325 0.98856 0.0
N602 N 0.71568 0.20004 0.96913 0.0
N603 N 0.61511 0.11647 0.12166 0.0
H604 H 0.64063 0.10756 0.86212 0.0
H605 H 0.61673 0.09195 0.95829 0.0
H606 H 0.60899 0.11695 0.19458 0.0
H607 H 0.59925 0.10155 0.07748 0.0
H608 H 0.7284 0.2187 1.00613 0.0
H609 H 0.72106 0.2002 0.89478 0.0
H610 H 0.72543 0.21133 0.15777 0.0
H611 H 0.7001 0.19786 0.25068 0.0
C612 C 0.4214 0.58138 0.86779 0.0
C613 C 0.44747 0.58261 0.85588 0.0
C614 C 0.4449 0.56712 0.0287 0.0
C615 C 0.41758 0.5632 0.03667 0.0
N616 N 0.38704 0.57992 0.98249 0.0
N617 N 0.48207 0.57215 0.92054 0.0
C618 C 0.40783 0.57415 0.96132 0.0
C619 C 0.45864 0.57412 0.93493 0.0
N620 N 0.40895 0.5859 0.78802 0.0
N621 N 0.45894 0.56722 0.11215 0.0
H622 H 0.49253 0.57637 0.8531 0.0
H623 H 0.48941 0.56335 0.9723 0.0
H624 H 0.45147 0.56709 0.18324 0.0
H625 H 0.47978 0.57227 0.11212 0.0
H626 H 0.38854 0.58222 0.78916 0.0
H627 H 0.4179 0.59032 0.71757 0.0
H628 H 0.38055 0.59016 0.93366 0.0
H629 H 0.37894 0.57789 0.05396 0.0
C630 C 0.82791 0.39177 0.07621 0.0
C631 C 0.85349 0.39978 0.12617 0.0
C632 C 0.87314 0.44685 0.05563 0.0
C633 C 0.84987 0.43691 0.99086 0.0
N634 N 0.8051 0.39969 0.93685 0.0
N635 N 0.90024 0.43543 0.16795 0.0
C636 C 0.82722 0.40933 1.00064 0.0
C637 C 0.87598 0.42757 0.11763 0.0
N638 N 0.80407 0.36788 0.10196 0.0
N639 N 0.89238 0.47466 0.05874 0.0
H640 H 0.90221 0.42276 0.22089 0.0
H641 H 0.9187 0.45401 0.15477 0.0
H642 H 0.89125 0.48937 0.01383 0.0
H643 H 0.90811 0.4836 0.11173 0.0
H644 H 0.78446 0.36261 0.07433 0.0
H645 H 0.80296 0.35474 0.15905 0.0
H646 H 0.7899 0.37872 0.93132 0.0
H647 H 0.8028 0.41234 0.88473 0.0
C648 C 0.3924 0.82677 0.28266 0.0
C649 C 0.40025 0.8529 0.23694 0.0
C650 C 0.44817 0.87125 0.29808 0.0
C651 C 0.43884 0.84713 0.35829 0.0
N652 N 0.40209 0.8019 0.41032 0.0
N653 N 0.43591 0.89986 0.19712 0.0
C654 C 0.41099 0.82485 0.35088 0.0
C655 C 0.42831 0.87503 0.24303 0.0
N656 N 0.36756 0.80355 0.26006 0.0
N657 N 0.47597 0.89045 0.29284 0.0
H658 H 0.4228 0.90262 0.14858 0.0
H659 H 0.45477 0.91806 0.20979 0.0
H660 H 0.4911 0.88885 0.33346 0.0
H661 H 0.48445 0.90682 0.24214 0.0
H662 H 0.36228 0.78354 0.2832 0.0
H663 H 0.35321 0.80333 0.20989 0.0
H664 H 0.38117 0.78689 0.41928 0.0
H665 H 0.41546 0.79857 0.45555 0.0
C666 C 0.54772 0.43628 0.38568 0.0
C667 C 0.55322 0.41652 0.33776 0.0
C668 C 0.59122 0.42776 0.45591 0.0
C669 C 0.58762 0.4494 0.49714 0.0
N670 N 0.5647 0.47696 0.4912 0.0
N671 N 0.58405 0.39774 0.31542 0.0
C672 C 0.56643 0.45435 0.45961 0.0
C673 C 0.57605 0.41347 0.36973 0.0
N674 N 0.52401 0.43717 0.36423 0.0
N675 N 0.6085 0.42011 0.50129 0.0
H676 H 0.57403 0.38747 0.2505 0.0
H677 H 0.60238 0.39726 0.32875 0.0
H678 H 0.6195 0.4296 0.56582 0.0
H679 H 0.60965 0.40249 0.48121 0.0
H680 H 0.51693 0.44815 0.4068 0.0
H681 H 0.51017 0.42545 0.3084 0.0
H682 H 0.55249 0.48391 0.45612 0.0
H683 H 0.57682 0.49008 0.54818 0.0
C684 C 0.12119 0.54675 0.56691 0.0
C685 C 0.14507 0.55651 0.50506 0.0
C686 C 0.16681 0.60155 0.59144 0.0
C687 C 0.14097 0.59365 0.6396 0.0
N688 N 0.09381 0.55827 0.67799 0.0
N689 N 0.19049 0.59341 0.45515 0.0
C690 C 0.11829 0.566 0.62913 0.0
C691 C 0.16785 0.58395 0.5166 0.0
N692 N 0.10137 0.51909 0.56684 0.0
N693 N 0.19061 0.62537 0.61821 0.0
H694 H 0.19315 0.5807 0.40422 0.0
H695 H 0.20585 0.61434 0.45017 0.0
H696 H 0.19156 0.6388 0.67396 0.0
H697 H 0.21036 0.63041 0.59263 0.0
H698 H 0.08515 0.51009 0.61806 0.0
H699 H 0.10223 0.50449 0.52032 0.0
H700 H 0.07526 0.53993 0.66327 0.0
H701 H 0.09179 0.57078 0.73159 0.0
C702 C 0.60108 0.1662 0.77472 0.0
C703 C 0.59239 0.14036 0.72544 0.0
C704 C 0.54678 0.1208 0.80757 0.0
C705 C 0.55778 0.14443 0.87125 0.0
N706 N 0.59584 0.1895 0.91847 0.0
N707 N 0.55629 0.09333 0.68978 0.0
C708 C 0.58504 0.16711 0.85552 0.0
C709 C 0.56492 0.11778 0.74001 0.0
N710 N 0.62407 0.19011 0.74333 0.0
N711 N 0.51902 0.10142 0.81068 0.0
H712 H 0.56798 0.09128 0.63292 0.0
H713 H 0.53808 0.07484 0.70657 0.0
H714 H 0.50514 0.10275 0.85941 0.0
H715 H 0.50921 0.08533 0.75933 0.0
H716 H 0.62956 0.2098 0.77093 0.0
H717 H 0.63599 0.19112 0.68216 0.0
H718 H 0.61684 0.20482 0.91886 0.0
H719 H 0.58429 0.19189 0.97501 0.0
C720 C 0.24292 0.46889 0.20982 0.0
C721 C 0.26874 0.4924 0.23715 0.0
C722 C 0.24503 0.50389 0.36704 0.0
C723 C 0.21888 0.48223 0.33339 0.0
N724 N 0.19508 0.43676 0.25578 0.0
N725 N 0.29343 0.53551 0.3306 0.0
C726 C 0.21824 0.46256 0.26365 0.0
C727 C 0.2695 0.51097 0.31174 0.0
N728 N 0.24174 0.45342 0.1288 0.0
N729 N 0.24693 0.51568 0.45801 0.0
H730 H 0.3124 0.54146 0.29634 0.0
H731 H 0.2939 0.55108 0.37565 0.0
H732 H 0.23009 0.50804 0.507 0.0
H733 H 0.26581 0.52978 0.49106 0.0
H734 H 0.22314 0.4381 0.09764 0.0
H735 H 0.25924 0.45795 0.08601 0.0
H736 H 0.19407 0.42091 0.21107 0.0
H737 H 0.17857 0.42943 0.3058 0.0
C738 C 0.77989 0.23761 0.41758 0.0
C739 C 0.77724 0.25685 0.35501 0.0
C740 C 0.72763 0.23492 0.39693 0.0
C741 C 0.73071 0.21725 0.46665 0.0
N742 N 0.76125 0.20579 0.55686 0.0
N743 N 0.74569 0.26521 0.25604 0.0
C744 C 0.75729 0.21971 0.48051 0.0
C745 C 0.75033 0.25302 0.33651 0.0
N746 N 0.80284 0.23448 0.41025 0.0
N747 N 0.70311 0.23467 0.38249 0.0
H748 H 0.76004 0.27393 0.19818 0.0
H749 H 0.72635 0.26347 0.2411 0.0
H750 H 0.68474 0.22249 0.42164 0.0
H751 H 0.68474 0.22249 0.42164 0.0
H752 H 0.80501 0.21937 0.44897 0.0
H753 H 0.81753 0.24374 0.35382 0.0
H754 H 0.7808 0.20905 0.57756 0.0
H755 H 0.7454 0.19331 0.6065 0.0
C756 C 0.53632 0.77755 0.59849 0.0
C757 C 0.51777 0.77641 0.523 0.0
C758 C 0.49247 0.72521 0.53221 0.0
C759 C 0.50926 0.72647 0.61387 0.0
N760 N 0.54385 0.75392 0.73629 0.0
N761 N 0.48819 0.74898 0.38852 0.0
C762 C 0.53038 0.75268 0.64982 0.0
C763 C 0.49852 0.75015 0.48163 0.0
N764 N 0.56091 0.80161 0.61521 0.0
N765 N 0.47024 0.70035 0.50378 0.0
H766 H 0.4951 0.76667 0.3441 0.0
H767 H 0.47614 0.73042 0.34996 0.0
H768 H 0.4656 0.68123 0.53434 0.0
H769 H 0.45496 0.69902 0.45526 0.0
H770 H 0.57599 0.80304 0.66483 0.0
H771 H 0.56863 0.81876 0.56814 0.0
H772 H 0.55701 0.77251 0.773 0.0
H773 H 0.53951 0.73621 0.77722 0.0
C774 C 0.7588 0.48809 0.71818 0.0
C775 C 0.77682 0.50879 0.78701 0.0
C776 C 0.75716 0.53835 0.73806 0.0
C777 C 0.73808 0.51689 0.67394 0.0
N778 N 0.73199 0.47927 0.56761 0.0
N779 N 0.78831 0.5505 0.87878 0.0
C780 C 0.742 0.49391 0.65392 0.0
C781 C 0.7747 0.53312 0.80109 0.0
N782 N 0.75689 0.4625 0.71494 0.0
N783 N 0.76068 0.56459 0.73179 0.0
H784 H 0.7999 0.54627 0.92965 0.0
H785 H 0.78531 0.56697 0.89985 0.0
H786 H 0.75203 0.57056 0.67487 0.0
H787 H 0.77572 0.58155 0.77176 0.0
H788 H 0.74209 0.44603 0.67235 0.0
H789 H 0.76732 0.45629 0.76334 0.0
H790 H 0.73648 0.46397 0.54403 0.0
H791 H 0.72313 0.48554 0.51217 0.0
C792 C 0.2386 0.78275 0.94018 0.0
C793 C 0.25705 0.77974 1.00577 0.0
C794 C 0.23499 0.73003 0.96484 0.0
C795 C 0.21762 0.73326 0.89434 0.0
N796 N 0.20681 0.76375 0.80083 0.0
N797 N 0.26168 0.74801 0.11553 0.0
C798 C 0.22045 0.75993 0.87847 0.0
C799 C 0.25222 0.75267 0.02789 0.0
N800 N 0.23629 0.80623 0.9438 0.0
N801 N 0.23525 0.70551 0.97303 0.0
H802 H 0.27058 0.76328 0.17051 0.0
H803 H 0.25672 0.72825 0.14063 0.0
H804 H 0.22263 0.68766 0.93237 0.0
H805 H 0.25005 0.70359 0.01487 0.0
H806 H 0.22181 0.80881 0.90261 0.0
H807 H 0.24544 0.82114 0.99956 0.0
H808 H 0.21037 0.78327 0.77814 0.0
H809 H 0.1942 0.74771 0.75206 0.0
C810 C 0.46866 0.25242 0.05014 0.0
C811 C 0.48361 0.26715 0.13691 0.0
C812 C 0.50551 0.23808 0.14318 0.0
C813 C 0.48837 0.22126 0.06449 0.0
N814 N 0.45044 0.21022 0.95161 0.0
N815 N 0.50764 0.26575 0.28466 0.0
C816 C 0.46875 0.22759 0.0214 0.0
C817 C 0.49943 0.25748 0.18909 0.0
N818 N 0.45564 0.26257 0.9913 0.0
N819 N 0.528 0.23617 0.17359 0.0
H820 H 0.50133 0.27784 0.32469 0.0
H821 H 0.51742 0.2575 0.32796 0.0
H822 H 0.5344 0.2237 0.13772 0.0
H823 H 0.54218 0.24959 0.22614 0.0
H824 H 0.44777 0.25454 0.92126 0.0
H825 H 0.45462 0.28039 1.00693 0.0
H826 H 0.43332 0.21168 0.92724 0.0
H827 H 0.45141 0.19329 0.92241 0.0
C828 C 0.37777 0.39723 0.1739 0.0
C829 C 0.39317 0.42681 0.17966 0.0
C830 C 0.43645 0.42503 0.19386 0.0
C831 C 0.4207 0.39548 0.20129 0.0
N832 N 0.37571 0.35395 0.22022 0.0
N833 N 0.43668 0.46849 0.21831 0.0
C834 C 0.39113 0.38168 0.19763 0.0
C835 C 0.42241 0.44065 0.19637 0.0
N836 N 0.35071 0.38397 0.14213 0.0
N837 N 0.46469 0.4382 0.18025 0.0
H838 H 0.42709 0.48059 0.2244 0.0
H839 H 0.45749 0.47888 0.24062 0.0
H840 H 0.47575 0.42753 0.17373 0.0
H841 H 0.47666 0.45945 0.16485 0.0
H842 H 0.33946 0.36262 0.12756 0.0
H843 H 0.34046 0.39465 0.12037 0.0
H844 H 0.35408 0.34357 0.22787 0.0
H845 H 0.38469 0.34203 0.24144 0.0
C846 C 0.98315 0.38748 0.25939 0.0
C847 C 0.96771 0.38216 0.34885 0.0
C848 C 0.01098 0.40353 0.44593 0.0
C849 C 0.02644 0.41079 0.35605 0.0
N850 N 0.02828 0.41122 0.17742 0.0
N851 N 0.96592 0.38562 0.52662 0.0
C852 C 0.01279 0.40301 0.26274 0.0
C853 C 0.98136 0.39019 0.44212 0.0
N854 N 0.96937 0.37747 0.1714 0.0
N855 N 0.02474 0.40928 0.53477 0.0
H856 H 0.94416 0.37469 0.52708 0.0
H857 H 0.97439 0.39369 0.59586 0.0
H858 H 0.04643 0.41997 0.54048 0.0
H859 H 0.01492 0.40213 0.60294 0.0
H860 H 0.97911 0.37781 0.10495 0.0
H861 H 0.94769 0.36722 0.1652 0.0
H862 H 0.0199 0.40935 0.10692 0.0
H863 H 0.05002 0.42125 0.17705 0.0
C864 C 0.60678 0.01147 0.5935 0.0
C865 C 0.61175 0.02653 0.50338 0.0
C866 C 0.59074 0.98283 0.40832 0.0
C867 C 0.58374 0.96772 0.49889 0.0
N868 N 0.58359 0.96663 0.67757 0.0
N869 N 0.60796 0.02751 0.32556 0.0
C870 C 0.59152 0.98178 0.59153 0.0
C871 C 0.60373 0.01246 0.41077 0.0
N872 N 0.61686 0.02565 0.68079 0.0
N873 N 0.58509 0.96875 0.32011 0.0
H874 H 0.61866 0.04928 0.32406 0.0
H875 H 0.59982 0.01869 0.25676 0.0
H876 H 0.57463 0.94703 0.31534 0.0
H877 H 0.59213 0.97835 0.25156 0.0
H878 H 0.61675 0.01622 0.74766 0.0
H879 H 0.627 0.04735 0.68588 0.0
H880 H 0.58549 0.97528 0.74768 0.0
H881 H 0.57373 0.94489 0.67894 0.0
C882 C 0.60357 0.58461 0.75836 0.0
C883 C 0.61897 0.58935 0.66921 0.0
C884 C 0.61417 0.63041 0.63735 0.0
C885 C 0.59357 0.62152 0.7129 0.0
N886 N 0.59142 0.60775 0.88342 0.0
N887 N 0.64078 0.6182 0.52553 0.0
C888 C 0.59422 0.60336 0.78563 0.0
C889 C 0.62501 0.61282 0.60936 0.0
N890 N 0.59761 0.56218 0.81701 0.0
N891 N 0.62622 0.65718 0.6034 0.0
H892 H 0.65 0.60646 0.50465 0.0
H893 H 0.64316 0.63324 0.47377 0.0
H894 H 0.62138 0.67159 0.63442 0.0
H895 H 0.6432 0.66588 0.55515 0.0
H896 H 0.58432 0.55681 0.87814 0.0
H897 H 0.60408 0.54784 0.80008 0.0
H898 H 0.59403 0.59647 0.94031 0.0
H899 H 0.59125 0.62568 0.90698 0.0
C900 C 0.01247 0.60632 0.93904 0.0
C901 C 0.02714 0.61353 0.84754 0.0
C902 C 0.983 0.5917 0.75539 0.0
C903 C 0.96834 0.58463 0.84688 0.0
N904 N 0.96813 0.58828 0.02501 0.0
N905 N 0.02735 0.61703 0.66917 0.0
C906 C 0.98283 0.59299 0.93858 0.0
C907 C 0.01266 0.60749 0.75578 0.0
N908 N 0.02697 0.61159 0.02609 0.0
N909 N 0.96848 0.5825 0.66838 0.0
H910 H 0.04909 0.62761 0.66608 0.0
H911 H 0.01825 0.61608 0.60071 0.0
H912 H 0.94675 0.57215 0.66503 0.0
H913 H 0.9777 0.58384 0.59976 0.0
H914 H 0.0177 0.60408 0.09486 0.0
H915 H 0.04871 0.62247 0.02939 0.0
H916 H 0.97725 0.59622 0.09362 0.0
H917 H 0.94639 0.57783 0.02762 0.0
C918 C 0.40252 0.01358 0.94266 0.0
C919 C 0.41139 0.02845 0.03355 0.0
C920 C 0.38957 0.98451 0.12675 0.0
C921 C 0.38299 0.96967 0.03558 0.0
N922 N 0.38388 0.96914 0.85689 0.0
N923 N 0.41494 0.02907 0.21174 0.0
C924 C 0.3895 0.98395 0.94343 0.0
C925 C 0.40514 0.01417 0.12566 0.0
N926 N 0.40642 0.0279 0.85586 0.0
N927 N 0.3807 0.97016 0.21423 0.0
H928 H 0.42516 0.05082 0.21411 0.0
H929 H 0.41423 0.02015 0.28038 0.0
H930 H 0.37033 0.94843 0.21833 0.0
H931 H 0.38202 0.97952 0.28252 0.0
H932 H 0.39808 0.01844 0.78801 0.0
H933 H 0.41653 0.04962 0.85238 0.0
H934 H 0.39088 0.97819 0.78751 0.0
H935 H 0.3733 0.94738 0.85456 0.0
loop_
_geom_bond_atom_site_label_1
_geom_bond_atom_site_label_2
_geom_bond_distance
_geom_bond_site_symmetry_2
_ccdc_geom_bond_type
Co0 N4 2.148 . S
Co0 N10 2.128 1_554 S
Co0 N20 2.194 . S
Co0 O25 2.351 . S
Co0 O26 2.155 . S
Co0 O27 2.096 . S
C1 N4 1.301 . S
C1 N5 1.328 . S
C1 H6 0.930 . S
C2 C3 1.333 . S
C2 N4 1.317 . S
C2 H7 0.930 . S
C3 C2 1.333 . S
C3 N5 1.350 . S
C3 H29 0.931 . S
N4 Co0 2.148 . S
N4 C1 1.301 . S
N4 C2 1.317 . S
N5 C1 1.328 . S
N5 C3 1.350 . S
H6 C1 0.930 . S
H7 C2 0.930 . S
C8 O9 1.224 . S
C8 O27 1.247 . S
O9 C8 1.224 . S
N10 Co0 2.128 1_556 S
N10 C11 1.355 . S
N10 C13 1.311 . S
C11 N10 1.355 . S
C11 C12 1.363 . S
C11 H23 0.929 . S
C12 C11 1.363 . S
C12 N14 1.375 . S
C12 H30 0.931 . S
C13 N10 1.311 . S
C13 N14 1.347 . S
C13 H24 0.929 . S
N14 C12 1.375 . S
N14 C13 1.347 . S
C15 C18 1.365 . S
C15 N20 1.328 . S
C15 H21 0.929 . S
C16 C17 1.362 . S
C16 C19 1.378 . S
C16 H31 0.929 . S
C17 C16 1.362 . S
C17 C18 1.366 . S
C18 C15 1.365 . S
C18 C17 1.366 . S
C18 H32 0.930 . S
C19 C16 1.378 . S
C19 N20 1.315 . S
C19 H22 0.930 . S
N20 Co0 2.194 . S
N20 C15 1.328 . S
N20 C19 1.315 . S
H21 C15 0.929 . S
H22 C19 0.930 . S
H23 C11 0.929 . S
H24 C13 0.929 . S
O25 Co0 2.351 . S
O25 C28 1.244 . S
O26 Co0 2.155 . S
O26 C28 1.240 . S
O27 Co0 2.096 . S
O27 C8 1.247 . S
C28 O25 1.244 . S
C28 O26 1.240 . S
H29 C3 0.931 . S
H30 C12 0.931 . S
H31 C16 0.929 . S
H32 C18 0.930 . S
Co33 N37 2.148 . S
Co33 N43 2.128 . S
Co33 N53 2.194 . S
Co33 O58 2.351 . S
Co33 O59 2.155 . S
Co33 O60 2.096 . S
C34 N37 1.301 . S
C34 N38 1.328 . S
C34 H39 0.930 . S
C35 C36 1.333 . S
C35 N37 1.317 . S
C35 H40 0.930 . S
C36 C35 1.333 . S
C36 N38 1.350 . S
C36 H62 0.931 . S
N37 Co33 2.148 . S
N37 C34 1.301 . S
N37 C35 1.317 . S
N38 C34 1.328 . S
N38 C36 1.350 . S
H39 C34 0.930 . S
H40 C35 0.930 . S
C41 O42 1.224 . S
C41 O60 1.247 . S
O42 C41 1.224 . S
N43 Co33 2.128 . S
N43 C44 1.355 . S
N43 C46 1.311 . S
C44 N43 1.355 . S
C44 C45 1.363 1_554 S
C44 H56 0.929 . S
C45 C44 1.363 1_556 S
C45 N47 1.375 . S
C45 H63 0.931 . S
C46 N43 1.311 . S
C46 N47 1.347 1_554 S
C46 H57 0.929 . S
N47 C45 1.375 . S
N47 C46 1.347 1_556 S
C48 C51 1.365 . S
C48 N53 1.328 . S
C48 H54 0.929 . S
C49 C50 1.362 . S
C49 C52 1.378 . S
C49 H64 0.929 . S
C50 C49 1.362 . S
C50 C51 1.366 . S
C51 C48 1.365 . S
C51 C50 1.366 . S
C51 H65 0.930 . S
C52 C49 1.378 . S
C52 N53 1.315 . S
C52 H55 0.930 . S
N53 Co33 2.194 . S
N53 C48 1.328 . S
N53 C52 1.315 . S
H54 C48 0.929 . S
H55 C52 0.930 . S
H56 C44 0.929 . S
H57 C46 0.929 . S
O58 Co33 2.351 . S
O58 C61 1.244 . S
O59 Co33 2.155 . S
O59 C61 1.240 . S
O60 Co33 2.096 . S
O60 C41 1.247 . S
C61 O58 1.244 . S
C61 O59 1.240 . S
H62 C36 0.931 . S
H63 C45 0.931 . S
H64 C49 0.929 . S
H65 C51 0.930 . S
Co66 N70 2.148 . S
Co66 N76 2.128 . S
Co66 N86 2.194 . S
Co66 O91 2.351 . S
Co66 O92 2.155 . S
Co66 O93 2.096 . S
C67 N70 1.301 . S
C67 N71 1.328 . S
C67 H72 0.930 . S
C68 C69 1.333 . S
C68 N70 1.317 . S
C68 H73 0.930 . S
C69 C68 1.333 . S
C69 N71 1.350 . S
C69 H95 0.931 . S
N70 Co66 2.148 . S
N70 C67 1.301 . S
N70 C68 1.317 . S
N71 C67 1.328 . S
N71 C69 1.350 . S
H72 C67 0.930 . S
H73 C68 0.930 . S
C74 O75 1.224 . S
C74 O93 1.247 . S
O75 C74 1.224 . S
N76 Co66 2.128 . S
N76 C77 1.355 . S
N76 C79 1.311 . S
C77 N76 1.355 . S
C77 C78 1.363 . S
C77 H89 0.929 . S
C78 C77 1.363 . S
C78 N80 1.375 . S
C78 H96 0.931 . S
C79 N76 1.311 . S
C79 N80 1.347 . S
C79 H90 0.929 . S
N80 C78 1.375 . S
N80 C79 1.347 . S
C81 C84 1.365 . S
C81 N86 1.328 . S
C81 H87 0.929 . S
C82 C83 1.362 . S
C82 C85 1.378 . S
C82 H97 0.929 . S
C83 C82 1.362 . S
C83 C84 1.366 . S
C84 C81 1.365 . S
C84 C83 1.366 . S
C84 H98 0.930 . S
C85 C82 1.378 . S
C85 N86 1.315 . S
C85 H88 0.930 . S
N86 Co66 2.194 . S
N86 C81 1.328 . S
N86 C85 1.315 . S
H87 C81 0.929 . S
H88 C85 0.930 . S
H89 C77 0.929 . S
H90 C79 0.929 . S
O91 Co66 2.351 . S
O91 C94 1.244 . S
O92 Co66 2.155 . S
O92 C94 1.240 . S
O93 Co66 2.096 . S
O93 C74 1.247 . S
C94 O91 1.244 . S
C94 O92 1.240 . S
H95 C69 0.931 . S
H96 C78 0.931 . S
H97 C82 0.929 . S
H98 C84 0.930 . S
Co99 N103 2.148 . S
Co99 N109 2.128 . S
Co99 N119 2.194 . S
Co99 O124 2.351 . S
Co99 O125 2.155 . S
Co99 O126 2.096 . S
C100 N103 1.301 . S
C100 N104 1.328 . S
C100 H105 0.930 . S
C101 C102 1.333 . S
C101 N103 1.317 . S
C101 H106 0.930 . S
C102 C101 1.333 . S
C102 N104 1.350 . S
C102 H128 0.931 . S
N103 Co99 2.148 . S
N103 C100 1.301 . S
N103 C101 1.317 . S
N104 C100 1.328 . S
N104 C102 1.350 . S
H105 C100 0.930 . S
H106 C101 0.930 . S
C107 O108 1.224 . S
C107 O126 1.247 . S
O108 C107 1.224 . S
N109 Co99 2.128 . S
N109 C110 1.355 . S
N109 C112 1.311 . S
C110 N109 1.355 . S
C110 C111 1.363 . S
C110 H122 0.929 . S
C111 C110 1.363 . S
C111 N113 1.375 . S
C111 H129 0.931 . S
C112 N109 1.311 . S
C112 N113 1.347 . S
C112 H123 0.929 . S
N113 C111 1.375 . S
N113 C112 1.347 . S
C114 C117 1.365 . S
C114 N119 1.328 . S
C114 H120 0.929 . S
C115 C116 1.362 . S
C115 C118 1.378 . S
C115 H130 0.929 . S
C116 C115 1.362 . S
C116 C117 1.366 . S
C117 C114 1.365 . S
C117 C116 1.366 . S
C117 H131 0.930 . S
C118 C115 1.378 . S
C118 N119 1.315 . S
C118 H121 0.930 . S
N119 Co99 2.194 . S
N119 C114 1.328 . S
N119 C118 1.315 . S
H120 C114 0.929 . S
H121 C118 0.930 . S
H122 C110 0.929 . S
H123 C112 0.929 . S
O124 Co99 2.351 . S
O124 C127 1.244 . S
O125 Co99 2.155 . S
O125 C127 1.240 . S
O126 Co99 2.096 . S
O126 C107 1.247 . S
C127 O124 1.244 . S
C127 O125 1.240 . S
H128 C102 0.931 . S
H129 C111 0.931 . S
H130 C115 0.929 . S
H131 C117 0.930 . S
Co132 N136 2.148 . S
Co132 N142 2.128 . S
Co132 N152 2.194 . S
Co132 O157 2.351 . S
Co132 O158 2.155 . S
Co132 O159 2.096 . S
C133 N136 1.301 . S
C133 N137 1.328 1_556 S
C133 H138 0.930 . S
C134 C135 1.333 1_556 S
C134 N136 1.317 . S
C134 H139 0.930 . S
C135 C134 1.333 1_554 S
C135 N137 1.350 . S
C135 H161 0.931 . S
N136 Co132 2.148 . S
N136 C133 1.301 . S
N136 C134 1.317 . S
N137 C133 1.328 1_554 S
N137 C135 1.350 . S
H138 C133 0.930 . S
H139 C134 0.930 . S
C140 O141 1.224 . S
C140 O159 1.247 . S
O141 C140 1.224 . S
N142 Co132 2.128 . S
N142 C143 1.355 . S
N142 C145 1.311 . S
C143 N142 1.355 . S
C143 C144 1.363 . S
C143 H155 0.929 . S
C144 C143 1.363 . S
C144 N146 1.375 . S
C144 H162 0.931 . S
C145 N142 1.311 . S
C145 N146 1.347 . S
C145 H156 0.929 . S
N146 C144 1.375 . S
N146 C145 1.347 . S
C147 C150 1.365 . S
C147 N152 1.328 . S
C147 H153 0.929 . S
C148 C149 1.362 . S
C148 C151 1.378 . S
C148 H163 0.929 . S
C149 C148 1.362 . S
C149 C150 1.366 . S
C150 C147 1.365 . S
C150 C149 1.366 . S
C150 H164 0.930 . S
C151 C148 1.378 . S
C151 N152 1.315 . S
C151 H154 0.930 . S
N152 Co132 2.194 . S
N152 C147 1.328 . S
N152 C151 1.315 . S
H153 C147 0.929 . S
H154 C151 0.930 . S
H155 C143 0.929 . S
H156 C145 0.929 . S
O157 Co132 2.351 . S
O157 C160 1.244 . S
O158 Co132 2.155 . S
O158 C160 1.240 . S
O159 Co132 2.096 . S
O159 C140 1.247 . S
C160 O157 1.244 . S
C160 O158 1.240 . S
H161 C135 0.931 . S
H162 C144 0.931 . S
H163 C148 0.929 . S
H164 C150 0.930 . S
Co165 N169 2.148 1_556 S
Co165 N175 2.128 . S
Co165 N185 2.194 . S
Co165 O190 2.351 . S
Co165 O191 2.155 . S
Co165 O192 2.096 . S
C166 N169 1.301 . S
C166 N170 1.328 . S
C166 H171 0.930 . S
C167 C168 1.333 . S
C167 N169 1.317 . S
C167 H172 0.930 . S
C168 C167 1.333 . S
C168 N170 1.350 . S
C168 H194 0.931 . S
N169 Co165 2.148 1_554 S
N169 C166 1.301 . S
N169 C167 1.317 . S
N170 C166 1.328 . S
N170 C168 1.350 . S
H171 C166 0.930 . S
H172 C167 0.930 . S
C173 O174 1.224 . S
C173 O192 1.247 . S
O174 C173 1.224 . S
N175 Co165 2.128 . S
N175 C176 1.355 . S
N175 C178 1.311 . S
C176 N175 1.355 . S
C176 C177 1.363 . S
C176 H188 0.929 . S
C177 C176 1.363 . S
C177 N179 1.375 . S
C177 H195 0.931 . S
C178 N175 1.311 . S
C178 N179 1.347 . S
C178 H189 0.929 . S
N179 C177 1.375 . S
N179 C178 1.347 . S
C180 C183 1.366 . S
C180 N185 1.328 . S
C180 H186 0.929 1_556 S
C181 C182 1.362 . S
C181 C184 1.378 . S
C181 H196 0.929 . S
C182 C181 1.362 . S
C182 C183 1.367 . S
C183 C180 1.366 . S
C183 C182 1.367 . S
C183 H197 0.928 1_556 S
C184 C181 1.378 . S
C184 N185 1.315 . S
C184 H187 0.930 . S
N185 Co165 2.194 . S
N185 C180 1.328 . S
N185 C184 1.315 . S
H186 C180 0.929 1_554 S
H187 C184 0.930 . S
H188 C176 0.929 . S
H189 C178 0.929 . S
O190 Co165 2.351 . S
O190 C193 1.244 . S
O191 Co165 2.155 . S
O191 C193 1.240 . S
O192 Co165 2.096 . S
O192 C173 1.247 . S
C193 O190 1.244 . S
C193 O191 1.240 . S
H194 C168 0.931 . S
H195 C177 0.931 . S
H196 C181 0.929 . S
H197 C183 0.928 1_554 S
Co198 N202 2.148 . S
Co198 N208 2.128 . S
Co198 N218 2.194 . S
Co198 O223 2.351 . S
Co198 O224 2.155 . S
Co198 O225 2.096 . S
C199 N202 1.301 . S
C199 N203 1.328 . S
C199 H204 0.930 . S
C200 C201 1.333 . S
C200 N202 1.317 . S
C200 H205 0.930 . S
C201 C200 1.333 . S
C201 N203 1.350 . S
C201 H227 0.931 . S
N202 Co198 2.148 . S
N202 C199 1.301 . S
N202 C200 1.317 . S
N203 C199 1.328 . S
N203 C201 1.350 . S
H204 C199 0.930 . S
H205 C200 0.930 . S
C206 O207 1.224 . S
C206 O225 1.247 . S
O207 C206 1.224 . S
N208 Co198 2.128 . S
N208 C209 1.355 . S
N208 C211 1.311 . S
C209 N208 1.355 . S
C209 C210 1.363 1_556 S
C209 H221 0.929 . S
C210 C209 1.363 1_554 S
C210 N212 1.375 . S
C210 H228 0.931 . S
C211 N208 1.311 . S
C211 N212 1.347 1_556 S
C211 H222 0.929 . S
N212 C210 1.375 . S
N212 C211 1.347 1_554 S
C213 C216 1.365 . S
C213 N218 1.328 . S
C213 H219 0.929 . S
C214 C215 1.362 . S
C214 C217 1.378 . S
C214 H229 0.929 . S
C215 C214 1.362 . S
C215 C216 1.366 . S
C216 C213 1.365 . S
C216 C215 1.366 . S
C216 H230 0.930 . S
C217 C214 1.378 . S
C217 N218 1.315 . S
C217 H220 0.930 . S
N218 Co198 2.194 . S
N218 C213 1.328 . S
N218 C217 1.315 . S
H219 C213 0.929 . S
H220 C217 0.930 . S
H221 C209 0.929 . S
H222 C211 0.929 . S
O223 Co198 2.351 . S
O223 C226 1.244 . S
O224 Co198 2.155 . S
O224 C226 1.240 . S
O225 Co198 2.096 . S
O225 C206 1.247 . S
C226 O223 1.244 . S
C226 O224 1.240 . S
H227 C201 0.931 . S
H228 C210 0.931 . S
H229 C214 0.929 . S
H230 C216 0.930 . S
Co231 N235 2.148 . S
Co231 N241 2.128 1_556 S
Co231 N251 2.194 . S
Co231 O256 2.351 . S
Co231 O257 2.155 . S
Co231 O258 2.096 . S
C232 N235 1.301 . S
C232 N236 1.328 . S
C232 H237 0.930 . S
C233 C234 1.333 . S
C233 N235 1.317 . S
C233 H238 0.930 . S
C234 C233 1.333 . S
C234 N236 1.350 . S
C234 H260 0.931 . S
N235 Co231 2.148 . S
N235 C232 1.301 . S
N235 C233 1.317 . S
N236 C232 1.328 . S
N236 C234 1.350 . S
H237 C232 0.930 . S
H238 C233 0.930 . S
C239 O240 1.224 . S
C239 O258 1.247 . S
O240 C239 1.224 . S
N241 Co231 2.128 1_554 S
N241 C242 1.355 . S
N241 C244 1.311 . S
C242 N241 1.355 . S
C242 C243 1.363 . S
C242 H254 0.929 . S
C243 C242 1.363 . S
C243 N245 1.375 . S
C243 H261 0.931 . S
C244 N241 1.311 . S
C244 N245 1.347 . S
C244 H255 0.929 . S
N245 C243 1.375 . S
N245 C244 1.347 . S
C246 C249 1.365 . S
C246 N251 1.328 . S
C246 H252 0.929 . S
C247 C248 1.362 . S
C247 C250 1.378 . S
C247 H262 0.929 . S
C248 C247 1.362 . S
C248 C249 1.366 . S
C249 C246 1.365 . S
C249 C248 1.366 . S
C249 H263 0.930 . S
C250 C247 1.378 . S
C250 N251 1.315 . S
C250 H253 0.930 . S
N251 Co231 2.194 . S
N251 C246 1.328 . S
N251 C250 1.315 . S
H252 C246 0.929 . S
H253 C250 0.930 . S
H254 C242 0.929 . S
H255 C244 0.929 . S
O256 Co231 2.351 . S
O256 C259 1.244 . S
O257 Co231 2.155 . S
O257 C259 1.240 . S
O258 Co231 2.096 . S
O258 C239 1.247 . S
C259 O256 1.244 . S
C259 O257 1.240 . S
H260 C234 0.931 . S
H261 C243 0.931 . S
H262 C247 0.929 . S
H263 C249 0.930 . S
Co264 N268 2.148 1_554 S
Co264 N274 2.128 . S
Co264 N284 2.194 . S
Co264 O289 2.351 . S
Co264 O290 2.155 . S
Co264 O291 2.096 . S
C265 N268 1.301 . S
C265 N269 1.328 . S
C265 H270 0.930 . S
C266 C267 1.333 . S
C266 N268 1.317 . S
C266 H271 0.930 . S
C267 C266 1.333 . S
C267 N269 1.350 . S
C267 H293 0.931 . S
N268 Co264 2.148 1_556 S
N268 C265 1.301 . S
N268 C266 1.317 . S
N269 C265 1.328 . S
N269 C267 1.350 . S
H270 C265 0.930 . S
H271 C266 0.930 . S
C272 O273 1.224 . S
C272 O291 1.247 . S
O273 C272 1.224 . S
N274 Co264 2.128 . S
N274 C275 1.355 . S
N274 C277 1.311 . S
C275 N274 1.355 . S
C275 C276 1.363 . S
C275 H287 0.929 . S
C276 C275 1.363 . S
C276 N278 1.375 . S
C276 H294 0.931 . S
C277 N274 1.311 . S
C277 N278 1.347 . S
C277 H288 0.929 . S
N278 C276 1.375 . S
N278 C277 1.347 . S
C279 C282 1.365 . S
C279 N284 1.328 . S
C279 H285 0.929 1_554 S
C280 C281 1.362 . S
C280 C283 1.378 . S
C280 H295 0.929 . S
C281 C280 1.362 . S
C281 C282 1.366 . S
C282 C279 1.365 . S
C282 C281 1.366 . S
C282 H296 0.930 1_554 S
C283 C280 1.378 . S
C283 N284 1.315 . S
C283 H286 0.930 . S
N284 Co264 2.194 . S
N284 C279 1.328 . S
N284 C283 1.315 . S
H285 C279 0.929 1_556 S
H286 C283 0.930 . S
H287 C275 0.929 . S
H288 C277 0.929 . S
O289 Co264 2.351 . S
O289 C292 1.244 . S
O290 Co264 2.155 . S
O290 C292 1.240 . S
O291 Co264 2.096 . S
O291 C272 1.247 . S
C292 O289 1.244 . S
C292 O290 1.240 . S
H293 C267 0.931 . S
H294 C276 0.931 . S
H295 C280 0.929 . S
H296 C282 0.930 1_556 S
Co297 N301 2.148 . S
Co297 N307 2.128 . S
Co297 N317 2.194 . S
Co297 O322 2.351 . S
Co297 O323 2.155 . S
Co297 O324 2.096 . S
C298 N301 1.301 . S
C298 N302 1.328 1_554 S
C298 H303 0.930 . S
C299 C300 1.333 1_554 S
C299 N301 1.317 . S
C299 H304 0.930 . S
C300 C299 1.333 1_556 S
C300 N302 1.350 . S
C300 H326 0.931 . S
N301 Co297 2.148 . S
N301 C298 1.301 . S
N301 C299 1.317 . S
N302 C298 1.328 1_556 S
N302 C300 1.350 . S
H303 C298 0.930 . S
H304 C299 0.930 . S
C305 O306 1.224 . S
C305 O324 1.247 . S
O306 C305 1.224 . S
N307 Co297 2.128 . S
N307 C308 1.355 . S
N307 C310 1.311 . S
C308 N307 1.355 . S
C308 C309 1.363 . S
C308 H320 0.929 . S
C309 C308 1.363 . S
C309 N311 1.375 . S
C309 H327 0.931 . S
C310 N307 1.311 . S
C310 N311 1.347 . S
C310 H321 0.929 . S
N311 C309 1.375 . S
N311 C310 1.347 . S
C312 C315 1.365 . S
C312 N317 1.328 . S
C312 H318 0.929 . S
C313 C314 1.362 . S
C313 C316 1.378 . S
C313 H328 0.929 . S
C314 C313 1.362 . S
C314 C315 1.366 . S
C315 C312 1.365 . S
C315 C314 1.366 . S
C315 H329 0.930 . S
C316 C313 1.378 . S
C316 N317 1.315 . S
C316 H319 0.930 . S
N317 Co297 2.194 . S
N317 C312 1.328 . S
N317 C316 1.315 . S
H318 C312 0.929 . S
H319 C316 0.930 . S
H320 C308 0.929 . S
H321 C310 0.929 . S
O322 Co297 2.351 . S
O322 C325 1.244 . S
O323 Co297 2.155 . S
O323 C325 1.240 . S
O324 Co297 2.096 . S
O324 C305 1.247 . S
C325 O322 1.244 . S
C325 O323 1.240 . S
H326 C300 0.931 . S
H327 C309 0.931 . S
H328 C313 0.929 . S
H329 C315 0.930 . S
Co330 N334 2.148 . S
Co330 N340 2.128 . S
Co330 N350 2.194 . S
Co330 O355 2.351 . S
Co330 O356 2.155 . S
Co330 O357 2.096 . S
C331 N334 1.301 . S
C331 N335 1.328 . S
C331 H336 0.930 . S
C332 C333 1.333 . S
C332 N334 1.317 . S
C332 H337 0.930 . S
C333 C332 1.333 . S
C333 N335 1.350 . S
C333 H359 0.931 . S
N334 Co330 2.148 . S
N334 C331 1.301 . S
N334 C332 1.317 . S
N335 C331 1.328 . S
N335 C333 1.350 . S
H336 C331 0.930 . S
H337 C332 0.930 . S
C338 O339 1.224 . S
C338 O357 1.247 . S
O339 C338 1.224 . S
N340 Co330 2.128 . S
N340 C341 1.355 . S
N340 C343 1.311 . S
C341 N340 1.355 . S
C341 C342 1.363 . S
C341 H353 0.929 . S
C342 C341 1.363 . S
C342 N344 1.375 . S
C342 H360 0.931 . S
C343 N340 1.311 . S
C343 N344 1.347 . S
C343 H354 0.929 . S
N344 C342 1.375 . S
N344 C343 1.347 . S
C345 C348 1.365 . S
C345 N350 1.328 . S
C345 H351 0.929 . S
C346 C347 1.362 . S
C346 C349 1.378 . S
C346 H361 0.929 . S
C347 C346 1.362 . S
C347 C348 1.366 . S
C348 C345 1.365 . S
C348 C347 1.366 . S
C348 H362 0.930 . S
C349 C346 1.378 . S
C349 N350 1.315 . S
C349 H352 0.930 . S
N350 Co330 2.194 . S
N350 C345 1.328 . S
N350 C349 1.315 . S
H351 C345 0.929 . S
H352 C349 0.930 . S
H353 C341 0.929 . S
H354 C343 0.929 . S
O355 Co330 2.351 . S
O355 C358 1.244 . S
O356 Co330 2.155 . S
O356 C358 1.240 . S
O357 Co330 2.096 . S
O357 C338 1.247 . S
C358 O355 1.244 . S
C358 O356 1.240 . S
H359 C333 0.931 . S
H360 C342 0.931 . S
H361 C346 0.929 . S
H362 C348 0.930 . S
Co363 N367 2.148 . S
Co363 N373 2.128 . S
Co363 N383 2.194 . S
Co363 O388 2.351 . S
Co363 O389 2.155 . S
Co363 O390 2.096 . S
C364 N367 1.301 . S
C364 N368 1.328 . S
C364 H369 0.930 . S
C365 C366 1.333 . S
C365 N367 1.317 . S
C365 H370 0.930 . S
C366 C365 1.333 . S
C366 N368 1.350 . S
C366 H392 0.931 . S
N367 Co363 2.148 . S
N367 C364 1.301 . S
N367 C365 1.317 . S
N368 C364 1.328 . S
N368 C366 1.350 . S
H369 C364 0.930 . S
H370 C365 0.930 . S
C371 O372 1.224 . S
C371 O390 1.247 . S
O372 C371 1.224 . S
N373 Co363 2.128 . S
N373 C374 1.355 . S
N373 C376 1.311 . S
C374 N373 1.355 . S
C374 C375 1.363 . S
C374 H386 0.929 . S
C375 C374 1.363 . S
C375 N377 1.375 . S
C375 H393 0.931 . S
C376 N373 1.311 . S
C376 N377 1.347 . S
C376 H387 0.929 . S
N377 C375 1.375 . S
N377 C376 1.347 . S
C378 C381 1.365 . S
C378 N383 1.328 . S
C378 H384 0.929 . S
C379 C380 1.362 . S
C379 C382 1.378 . S
C379 H394 0.929 . S
C380 C379 1.362 . S
C380 C381 1.366 . S
C381 C378 1.365 . S
C381 C380 1.366 . S
C381 H395 0.930 . S
C382 C379 1.378 . S
C382 N383 1.315 . S
C382 H385 0.930 . S
N383 Co363 2.194 . S
N383 C378 1.328 . S
N383 C382 1.315 . S
H384 C378 0.929 . S
H385 C382 0.930 . S
H386 C374 0.929 . S
H387 C376 0.929 . S
O388 Co363 2.351 . S
O388 C391 1.244 . S
O389 Co363 2.155 . S
O389 C391 1.240 . S
O390 Co363 2.096 . S
O390 C371 1.247 . S
C391 O388 1.244 . S
C391 O389 1.240 . S
H392 C366 0.931 . S
H393 C375 0.931 . S
H394 C379 0.929 . S
H395 C381 0.930 . S
C396 C397 1.363 . S
C396 C402 1.379 . S
C396 N404 1.356 . S
C397 C396 1.363 . S
C397 C403 1.363 . S
C398 C399 1.363 . S
C398 C403 1.379 . S
C398 N405 1.356 . S
C399 C398 1.363 . S
C399 C402 1.363 . S
N400 C402 1.356 . S
N400 H412 0.984 . S
N400 H413 0.985 . S
N401 C403 1.356 . S
N401 H406 0.984 . S
N401 H407 0.985 . S
C402 C396 1.379 . S
C402 C399 1.363 . S
C402 N400 1.356 . S
C403 C397 1.363 . S
C403 C398 1.379 . S
C403 N401 1.356 . S
N404 C396 1.356 . S
N404 H410 0.984 . S
N404 H411 0.984 . S
N405 C398 1.356 . S
N405 H408 0.984 . S
N405 H409 0.985 . S
H406 N401 0.984 . S
H407 N401 0.985 . S
H408 N405 0.984 . S
H409 N405 0.985 . S
H410 N404 0.984 . S
H411 N404 0.984 . S
H412 N400 0.984 . S
H413 N400 0.985 . S
C414 C415 1.363 . S
C414 C420 1.379 . S
C414 N422 1.356 . S
C415 C414 1.363 . S
C415 C421 1.363 . S
C416 C417 1.363 . S
C416 C421 1.379 . S
C416 N423 1.356 . S
C417 C416 1.363 . S
C417 C420 1.363 . S
N418 C420 1.356 . S
N418 H430 0.984 . S
N418 H431 0.985 . S
N419 C421 1.356 . S
N419 H424 0.984 . S
N419 H425 0.985 . S
C420 C414 1.379 . S
C420 C417 1.363 . S
C420 N418 1.356 . S
C421 C415 1.363 . S
C421 C416 1.379 . S
C421 N419 1.356 . S
N422 C414 1.356 . S
N422 H428 0.984 . S
N422 H429 0.984 . S
N423 C416 1.356 . S
N423 H426 0.984 . S
N423 H427 0.985 . S
H424 N419 0.984 . S
H425 N419 0.985 . S
H426 N423 0.984 . S
H427 N423 0.985 . S
H428 N422 0.984 . S
H429 N422 0.984 . S
H430 N418 0.984 . S
H431 N418 0.985 . S
C432 C433 1.363 1_556 S
C432 C438 1.379 . S
C432 N440 1.356 1_556 S
C433 C432 1.363 1_554 S
C433 C439 1.363 1_554 S
C434 C435 1.363 . S
C434 C439 1.379 . S
C434 N441 1.356 . S
C435 C434 1.363 . S
C435 C438 1.363 . S
N436 C438 1.356 . S
N436 H448 0.984 . S
N436 H449 0.985 . S
N437 C439 1.356 1_554 S
N437 H442 0.984 . S
N437 H443 0.985 . S
C438 C432 1.379 . S
C438 C435 1.363 . S
C438 N436 1.356 . S
C439 C433 1.363 1_556 S
C439 C434 1.379 . S
C439 N437 1.356 1_556 S
N440 C432 1.356 1_554 S
N440 H446 0.984 . S
N440 H447 0.984 . S
N441 C434 1.356 . S
N441 H444 0.984 . S
N441 H445 0.985 . S
H442 N437 0.984 . S
H443 N437 0.985 . S
H444 N441 0.984 . S
H445 N441 0.985 . S
H446 N440 0.984 . S
H447 N440 0.984 . S
H448 N436 0.984 . S
H449 N436 0.985 . S
C450 C451 1.363 . S
C450 C456 1.379 . S
C450 N458 1.356 . S
C451 C450 1.363 . S
C451 C457 1.363 . S
C452 C453 1.363 . S
C452 C457 1.379 . S
C452 N459 1.356 . S
C453 C452 1.363 . S
C453 C456 1.363 . S
N454 C456 1.356 . S
N454 H466 0.984 . S
N454 H467 0.985 . S
N455 C457 1.356 1_556 S
N455 H460 0.984 . S
N455 H461 0.985 . S
C456 C450 1.379 . S
C456 C453 1.363 . S
C456 N454 1.356 . S
C457 C451 1.363 . S
C457 C452 1.379 . S
C457 N455 1.356 1_554 S
N458 C450 1.356 . S
N458 H464 0.984 . S
N458 H465 0.984 1_554 S
N459 C452 1.356 . S
N459 H462 0.984 . S
N459 H463 0.985 . S
H460 N455 0.984 . S
H461 N455 0.985 . S
H462 N459 0.984 . S
H463 N459 0.985 . S
H464 N458 0.984 . S
H465 N458 0.984 1_556 S
H466 N454 0.984 . S
H467 N454 0.985 . S
C468 C469 1.363 . S
C468 C474 1.379 . S
C468 N476 1.356 . S
C469 C468 1.363 . S
C469 C475 1.363 . S
C470 C471 1.363 . S
C470 C475 1.379 . S
C470 N477 1.356 . S
C471 C470 1.363 . S
C471 C474 1.363 . S
N472 C474 1.356 . S
N472 H484 0.984 . S
N472 H485 0.985 . S
N473 C475 1.356 . S
N473 H478 0.984 . S
N473 H479 0.985 . S
C474 C468 1.379 . S
C474 C471 1.363 . S
C474 N472 1.356 . S
C475 C469 1.363 . S
C475 C470 1.379 . S
C475 N473 1.356 . S
N476 C468 1.356 . S
N476 H482 0.984 . S
N476 H483 0.984 . S
N477 C470 1.356 . S
N477 H480 0.984 . S
N477 H481 0.985 . S
H478 N473 0.984 . S
H479 N473 0.985 . S
H480 N477 0.984 . S
H481 N477 0.985 . S
H482 N476 0.984 . S
H483 N476 0.984 . S
H484 N472 0.984 . S
H485 N472 0.985 . S
C486 C487 1.363 . S
C486 C492 1.379 . S
C486 N494 1.356 . S
C487 C486 1.363 . S
C487 C493 1.363 . S
C488 C489 1.363 . S
C488 C493 1.379 . S
C488 N495 1.356 . S
C489 C488 1.363 . S
C489 C492 1.363 . S
N490 C492 1.356 . S
N490 H502 0.984 . S
N490 H503 0.985 . S
N491 C493 1.356 . S
N491 H496 0.984 . S
N491 H497 0.985 . S
C492 C486 1.379 . S
C492 C489 1.363 . S
C492 N490 1.356 . S
C493 C487 1.363 . S
C493 C488 1.379 . S
C493 N491 1.356 . S
N494 C486 1.356 . S
N494 H500 0.984 . S
N494 H501 0.984 . S
N495 C488 1.356 . S
N495 H498 0.984 . S
N495 H499 0.985 . S
H496 N491 0.984 . S
H497 N491 0.985 . S
H498 N495 0.984 . S
H499 N495 0.985 . S
H500 N494 0.984 . S
H501 N494 0.984 . S
H502 N490 0.984 . S
H503 N490 0.985 . S
C504 C505 1.363 . S
C504 C510 1.379 . S
C504 N512 1.356 . S
C505 C504 1.363 . S
C505 C511 1.363 . S
C506 C507 1.363 . S
C506 C511 1.379 . S
C506 N513 1.356 . S
C507 C506 1.363 . S
C507 C510 1.363 . S
N508 C510 1.356 . S
N508 H520 0.984 . S
N508 H521 0.985 . S
N509 C511 1.356 . S
N509 H514 0.984 . S
N509 H515 0.985 . S
C510 C504 1.379 . S
C510 C507 1.363 . S
C510 N508 1.356 . S
C511 C505 1.363 . S
C511 C506 1.379 . S
C511 N509 1.356 . S
N512 C504 1.356 . S
N512 H518 0.984 . S
N512 H519 0.984 . S
N513 C506 1.356 . S
N513 H516 0.984 . S
N513 H517 0.985 . S
H514 N509 0.984 . S
H515 N509 0.985 . S
H516 N513 0.984 . S
H517 N513 0.985 . S
H518 N512 0.984 . S
H519 N512 0.984 . S
H520 N508 0.984 . S
H521 N508 0.985 . S
C522 C523 1.363 . S
C522 C528 1.379 . S
C522 N530 1.356 . S
C523 C522 1.363 . S
C523 C529 1.363 . S
C524 C525 1.363 . S
C524 C529 1.379 . S
C524 N531 1.356 . S
C525 C524 1.363 . S
C525 C528 1.363 . S
N526 C528 1.356 . S
N526 H538 0.984 . S
N526 H539 0.985 . S
N527 C529 1.356 . S
N527 H532 0.984 . S
N527 H533 0.985 . S
C528 C522 1.379 . S
C528 C525 1.363 . S
C528 N526 1.356 . S
C529 C523 1.363 . S
C529 C524 1.379 . S
C529 N527 1.356 . S
N530 C522 1.356 . S
N530 H536 0.984 . S
N530 H537 0.984 . S
N531 C524 1.356 . S
N531 H534 0.984 . S
N531 H535 0.985 . S
H532 N527 0.984 . S
H533 N527 0.985 . S
H534 N531 0.984 . S
H535 N531 0.985 . S
H536 N530 0.984 . S
H537 N530 0.984 . S
H538 N526 0.984 . S
H539 N526 0.985 . S
C540 C541 1.363 . S
C540 C546 1.379 . S
C540 N548 1.356 . S
C541 C540 1.363 . S
C541 C547 1.363 . S
C542 C543 1.363 . S
C542 C547 1.379 . S
C542 N549 1.356 . S
C543 C542 1.363 . S
C543 C546 1.363 . S
N544 C546 1.356 . S
N544 H556 0.984 . S
N544 H557 0.985 . S
N545 C547 1.356 . S
N545 H550 0.984 . S
N545 H551 0.985 . S
C546 C540 1.379 . S
C546 C543 1.363 . S
C546 N544 1.356 . S
C547 C541 1.363 . S
C547 C542 1.379 . S
C547 N545 1.356 . S
N548 C540 1.356 . S
N548 H554 0.984 . S
N548 H555 0.984 . S
N549 C542 1.356 . S
N549 H552 0.984 . S
N549 H553 0.985 . S
H550 N545 0.984 . S
H551 N545 0.985 . S
H552 N549 0.984 . S
H553 N549 0.985 . S
H554 N548 0.984 . S
H555 N548 0.984 . S
H556 N544 0.984 . S
H557 N544 0.985 . S
C558 C559 1.363 . S
C558 C564 1.379 . S
C558 N566 1.356 . S
C559 C558 1.363 . S
C559 C565 1.363 . S
C560 C561 1.363 . S
C560 C565 1.379 . S
C560 N567 1.356 . S
C561 C560 1.363 . S
C561 C564 1.363 . S
N562 C564 1.356 . S
N562 H574 0.984 . S
N562 H575 0.985 . S
N563 C565 1.356 . S
N563 H568 0.984 . S
N563 H569 0.985 . S
C564 C558 1.379 . S
C564 C561 1.363 . S
C564 N562 1.356 . S
C565 C559 1.363 . S
C565 C560 1.379 . S
C565 N563 1.356 . S
N566 C558 1.356 . S
N566 H572 0.984 . S
N566 H573 0.984 . S
N567 C560 1.356 . S
N567 H570 0.984 . S
N567 H571 0.985 . S
H568 N563 0.984 . S
H569 N563 0.985 . S
H570 N567 0.984 . S
H571 N567 0.985 . S
H572 N566 0.984 . S
H573 N566 0.984 . S
H574 N562 0.984 . S
H575 N562 0.985 . S
C576 C577 1.363 1_556 S
C576 C582 1.379 . S
C576 N584 1.356 1_556 S
C577 C576 1.363 1_554 S
C577 C583 1.363 1_554 S
C578 C579 1.363 . S
C578 C583 1.379 . S
C578 N585 1.356 . S
C579 C578 1.363 . S
C579 C582 1.363 . S
N580 C582 1.356 . S
N580 H592 0.984 . S
N580 H593 0.985 . S
N581 C583 1.356 . S
N581 H586 0.984 1_556 S
N581 H587 0.985 . S
C582 C576 1.379 . S
C582 C579 1.363 . S
C582 N580 1.356 . S
C583 C577 1.363 1_556 S
C583 C578 1.379 . S
C583 N581 1.356 . S
N584 C576 1.356 1_554 S
N584 H590 0.984 . S
N584 H591 0.984 . S
N585 C578 1.356 . S
N585 H588 0.984 . S
N585 H589 0.985 . S
H586 N581 0.984 1_554 S
H587 N581 0.985 . S
H588 N585 0.984 . S
H589 N585 0.985 . S
H590 N584 0.984 . S
H591 N584 0.984 . S
H592 N580 0.984 . S
H593 N580 0.985 . S
C594 C595 1.363 1_554 S
C594 C600 1.379 . S
C594 N602 1.356 1_554 S
C595 C594 1.363 1_556 S
C595 C601 1.363 1_556 S
C596 C597 1.363 . S
C596 C601 1.379 . S
C596 N603 1.356 . S
C597 C596 1.363 . S
C597 C600 1.363 . S
N598 C600 1.356 . S
N598 H610 0.984 . S
N598 H611 0.985 . S
N599 C601 1.356 1_556 S
N599 H604 0.984 . S
N599 H605 0.985 . S
C600 C594 1.379 . S
C600 C597 1.363 . S
C600 N598 1.356 . S
C601 C595 1.363 1_554 S
C601 C596 1.379 . S
C601 N599 1.356 1_554 S
N602 C594 1.356 1_556 S
N602 H608 0.984 1_556 S
N602 H609 0.984 . S
N603 C596 1.356 . S
N603 H606 0.984 . S
N603 H607 0.985 . S
H604 N599 0.984 . S
H605 N599 0.985 . S
H606 N603 0.984 . S
H607 N603 0.985 . S
H608 N602 0.984 1_554 S
H609 N602 0.984 . S
H610 N598 0.984 . S
H611 N598 0.985 . S
C612 C613 1.363 . S
C612 C618 1.379 . S
C612 N620 1.356 . S
C613 C612 1.363 . S
C613 C619 1.363 . S
C614 C615 1.363 1_554 S
C614 C619 1.379 1_554 S
C614 N621 1.356 . S
C615 C614 1.363 1_556 S
C615 C618 1.363 . S
N616 C618 1.356 . S
N616 H628 0.984 . S
N616 H629 0.985 . S
N617 C619 1.356 . S
N617 H622 0.984 . S
N617 H623 0.985 1_556 S
C618 C612 1.379 . S
C618 C615 1.363 . S
C618 N616 1.356 . S
C619 C613 1.363 . S
C619 C614 1.379 1_556 S
C619 N617 1.356 . S
N620 C612 1.356 . S
N620 H626 0.984 . S
N620 H627 0.984 . S
N621 C614 1.356 . S
N621 H624 0.984 . S
N621 H625 0.985 . S
H622 N617 0.984 . S
H623 N617 0.985 1_554 S
H624 N621 0.984 . S
H625 N621 0.985 . S
H626 N620 0.984 . S
H627 N620 0.984 . S
H628 N616 0.984 . S
H629 N616 0.985 . S
C630 C631 1.363 . S
C630 C636 1.379 1_554 S
C630 N638 1.356 . S
C631 C630 1.363 . S
C631 C637 1.363 . S
C632 C633 1.363 . S
C632 C637 1.379 . S
C632 N639 1.356 . S
C633 C632 1.363 . S
C633 C636 1.363 1_554 S
N634 C636 1.356 . S
N634 H646 0.984 . S
N634 H647 0.985 . S
N635 C637 1.356 . S
N635 H640 0.984 . S
N635 H641 0.985 . S
C636 C630 1.379 1_556 S
C636 C633 1.363 1_556 S
C636 N634 1.356 . S
C637 C631 1.363 . S
C637 C632 1.379 . S
C637 N635 1.356 . S
N638 C630 1.356 . S
N638 H644 0.984 1_554 S
N638 H645 0.984 . S
N639 C632 1.356 . S
N639 H642 0.984 . S
N639 H643 0.985 . S
H640 N635 0.984 . S
H641 N635 0.985 . S
H642 N639 0.984 . S
H643 N639 0.985 . S
H644 N638 0.984 1_556 S
H645 N638 0.984 . S
H646 N634 0.984 . S
H647 N634 0.985 . S
C648 C649 1.363 . S
C648 C654 1.379 . S
C648 N656 1.356 . S
C649 C648 1.363 . S
C649 C655 1.363 . S
C650 C651 1.363 . S
C650 C655 1.379 . S
C650 N657 1.356 . S
C651 C650 1.363 . S
C651 C654 1.363 . S
N652 C654 1.356 . S
N652 H664 0.984 . S
N652 H665 0.985 . S
N653 C655 1.356 . S
N653 H658 0.984 . S
N653 H659 0.985 . S
C654 C648 1.379 . S
C654 C651 1.363 . S
C654 N652 1.356 . S
C655 C649 1.363 . S
C655 C650 1.379 . S
C655 N653 1.356 . S
N656 C648 1.356 . S
N656 H662 0.984 . S
N656 H663 0.984 . S
N657 C650 1.356 . S
N657 H660 0.984 . S
N657 H661 0.985 . S
H658 N653 0.984 . S
H659 N653 0.985 . S
H660 N657 0.984 . S
H661 N657 0.985 . S
H662 N656 0.984 . S
H663 N656 0.984 . S
H664 N652 0.984 . S
H665 N652 0.985 . S
C666 C667 1.363 . S
C666 C672 1.379 . S
C666 N674 1.356 . S
C667 C666 1.363 . S
C667 C673 1.363 . S
C668 C669 1.363 . S
C668 C673 1.379 . S
C668 N675 1.356 . S
C669 C668 1.363 . S
C669 C672 1.363 . S
N670 C672 1.356 . S
N670 H682 0.984 . S
N670 H683 0.985 . S
N671 C673 1.356 . S
N671 H676 0.984 . S
N671 H677 0.985 . S
C672 C666 1.379 . S
C672 C669 1.363 . S
C672 N670 1.356 . S
C673 C667 1.363 . S
C673 C668 1.379 . S
C673 N671 1.356 . S
N674 C666 1.356 . S
N674 H680 0.984 . S
N674 H681 0.984 . S
N675 C668 1.356 . S
N675 H678 0.984 . S
N675 H679 0.985 . S
H676 N671 0.984 . S
H677 N671 0.985 . S
H678 N675 0.984 . S
H679 N675 0.985 . S
H680 N674 0.984 . S
H681 N674 0.984 . S
H682 N670 0.984 . S
H683 N670 0.985 . S
C684 C685 1.363 . S
C684 C690 1.379 . S
C684 N692 1.356 . S
C685 C684 1.363 . S
C685 C691 1.363 . S
C686 C687 1.363 . S
C686 C691 1.379 . S
C686 N693 1.356 . S
C687 C686 1.363 . S
C687 C690 1.363 . S
N688 C690 1.356 . S
N688 H700 0.984 . S
N688 H701 0.985 . S
N689 C691 1.356 . S
N689 H694 0.984 . S
N689 H695 0.985 . S
C690 C684 1.379 . S
C690 C687 1.363 . S
C690 N688 1.356 . S
C691 C685 1.363 . S
C691 C686 1.379 . S
C691 N689 1.356 . S
N692 C684 1.356 . S
N692 H698 0.984 . S
N692 H699 0.984 . S
N693 C686 1.356 . S
N693 H696 0.984 . S
N693 H697 0.985 . S
H694 N689 0.984 . S
H695 N689 0.985 . S
H696 N693 0.984 . S
H697 N693 0.985 . S
H698 N692 0.984 . S
H699 N692 0.984 . S
H700 N688 0.984 . S
H701 N688 0.985 . S
C702 C703 1.363 . S
C702 C708 1.379 . S
C702 N710 1.356 . S
C703 C702 1.363 . S
C703 C709 1.363 . S
C704 C705 1.363 . S
C704 C709 1.379 . S
C704 N711 1.356 . S
C705 C704 1.363 . S
C705 C708 1.363 . S
N706 C708 1.356 . S
N706 H718 0.984 . S
N706 H719 0.985 . S
N707 C709 1.356 . S
N707 H712 0.984 . S
N707 H713 0.985 . S
C708 C702 1.379 . S
C708 C705 1.363 . S
C708 N706 1.356 . S
C709 C703 1.363 . S
C709 C704 1.379 . S
C709 N707 1.356 . S
N710 C702 1.356 . S
N710 H716 0.984 . S
N710 H717 0.984 . S
N711 C704 1.356 . S
N711 H714 0.984 . S
N711 H715 0.985 . S
H712 N707 0.984 . S
H713 N707 0.985 . S
H714 N711 0.984 . S
H715 N711 0.985 . S
H716 N710 0.984 . S
H717 N710 0.984 . S
H718 N706 0.984 . S
H719 N706 0.985 . S
C720 C721 1.363 . S
C720 C726 1.379 . S
C720 N728 1.356 . S
C721 C720 1.363 . S
C721 C727 1.363 . S
C722 C723 1.363 . S
C722 C727 1.379 . S
C722 N729 1.356 . S
C723 C722 1.363 . S
C723 C726 1.363 . S
N724 C726 1.356 . S
N724 H736 0.984 . S
N724 H737 0.985 . S
N725 C727 1.356 . S
N725 H730 0.984 . S
N725 H731 0.985 . S
C726 C720 1.379 . S
C726 C723 1.363 . S
C726 N724 1.356 . S
C727 C721 1.363 . S
C727 C722 1.379 . S
C727 N725 1.356 . S
N728 C720 1.356 . S
N728 H734 0.984 . S
N728 H735 0.984 . S
N729 C722 1.356 . S
N729 H732 0.984 . S
N729 H733 0.985 . S
H730 N725 0.984 . S
H731 N725 0.985 . S
H732 N729 0.984 . S
H733 N729 0.985 . S
H734 N728 0.984 . S
H735 N728 0.984 . S
H736 N724 0.984 . S
H737 N724 0.985 . S
C738 C739 1.363 . S
C738 C744 1.379 . S
C738 N746 1.356 . S
C739 C738 1.363 . S
C739 C745 1.363 . S
C740 C741 1.363 . S
C740 C745 1.379 . S
C740 N747 1.356 . S
C741 C740 1.363 . S
C741 C744 1.363 . S
N742 C744 1.356 . S
N742 H754 0.984 . S
N742 H755 0.985 . S
N743 C745 1.356 . S
N743 H748 0.984 . S
N743 H749 0.985 . S
C744 C738 1.379 . S
C744 C741 1.363 . S
C744 N742 1.356 . S
C745 C739 1.363 . S
C745 C740 1.379 . S
C745 N743 1.356 . S
N746 C738 1.356 . S
N746 H752 0.984 . S
N746 H753 0.984 . S
N747 C740 1.356 . S
N747 H750 0.984 . S
N747 H751 0.985 . S
H748 N743 0.984 . S
H749 N743 0.985 . S
H750 N747 0.984 . S
H751 N747 0.985 . S
H752 N746 0.984 . S
H753 N746 0.984 . S
H754 N742 0.984 . S
H755 N742 0.985 . S
C756 C757 1.363 . S
C756 C762 1.379 . S
C756 N764 1.356 . S
C757 C756 1.363 . S
C757 C763 1.363 . S
C758 C759 1.363 . S
C758 C763 1.379 . S
C758 N765 1.356 . S
C759 C758 1.363 . S
C759 C762 1.363 . S
N760 C762 1.356 . S
N760 H772 0.984 . S
N760 H773 0.985 . S
N761 C763 1.356 . S
N761 H766 0.984 . S
N761 H767 0.985 . S
C762 C756 1.379 . S
C762 C759 1.363 . S
C762 N760 1.356 . S
C763 C757 1.363 . S
C763 C758 1.379 . S
C763 N761 1.356 . S
N764 C756 1.356 . S
N764 H770 0.984 . S
N764 H771 0.984 . S
N765 C758 1.356 . S
N765 H768 0.984 . S
N765 H769 0.985 . S
H766 N761 0.984 . S
H767 N761 0.985 . S
H768 N765 0.984 . S
H769 N765 0.985 . S
H770 N764 0.984 . S
H771 N764 0.984 . S
H772 N760 0.984 . S
H773 N760 0.985 . S
C774 C775 1.363 . S
C774 C780 1.379 . S
C774 N782 1.356 . S
C775 C774 1.363 . S
C775 C781 1.363 . S
C776 C777 1.363 . S
C776 C781 1.379 . S
C776 N783 1.356 . S
C777 C776 1.363 . S
C777 C780 1.363 . S
N778 C780 1.356 . S
N778 H790 0.984 . S
N778 H791 0.985 . S
N779 C781 1.356 . S
N779 H784 0.984 . S
N779 H785 0.985 . S
C780 C774 1.379 . S
C780 C777 1.363 . S
C780 N778 1.356 . S
C781 C775 1.363 . S
C781 C776 1.379 . S
C781 N779 1.356 . S
N782 C774 1.356 . S
N782 H788 0.984 . S
N782 H789 0.984 . S
N783 C776 1.356 . S
N783 H786 0.984 . S
N783 H787 0.985 . S
H784 N779 0.984 . S
H785 N779 0.985 . S
H786 N783 0.984 . S
H787 N783 0.985 . S
H788 N782 0.984 . S
H789 N782 0.984 . S
H790 N778 0.984 . S
H791 N778 0.985 . S
C792 C793 1.363 . S
C792 C798 1.379 . S
C792 N800 1.356 . S
C793 C792 1.363 . S
C793 C799 1.363 . S
C794 C795 1.363 . S
C794 C799 1.379 . S
C794 N801 1.356 . S
C795 C794 1.363 . S
C795 C798 1.363 . S
N796 C798 1.356 . S
N796 H808 0.984 . S
N796 H809 0.985 . S
N797 C799 1.356 1_554 S
N797 H802 0.984 . S
N797 H803 0.985 . S
C798 C792 1.379 . S
C798 C795 1.363 . S
C798 N796 1.356 . S
C799 C793 1.363 . S
C799 C794 1.379 . S
C799 N797 1.356 1_556 S
N800 C792 1.356 . S
N800 H806 0.984 . S
N800 H807 0.976 1_556 S
N801 C794 1.356 . S
N801 H804 0.984 . S
N801 H805 0.985 . S
H802 N797 0.984 . S
H803 N797 0.985 . S
H804 N801 0.984 . S
H805 N801 0.985 . S
H806 N800 0.984 . S
H807 N800 0.976 1_554 S
H808 N796 0.984 . S
H809 N796 0.985 . S
C810 C811 1.363 . S
C810 C816 1.379 . S
C810 N818 1.356 . S
C811 C810 1.363 . S
C811 C817 1.363 . S
C812 C813 1.363 . S
C812 C817 1.379 . S
C812 N819 1.356 . S
C813 C812 1.363 . S
C813 C816 1.363 . S
N814 C816 1.356 1_556 S
N814 H826 0.984 . S
N814 H827 0.985 . S
N815 C817 1.356 . S
N815 H820 0.984 . S
N815 H821 0.985 . S
C816 C810 1.379 . S
C816 C813 1.363 . S
C816 N814 1.356 1_554 S
C817 C811 1.363 . S
C817 C812 1.379 . S
C817 N815 1.356 . S
N818 C810 1.356 . S
N818 H824 0.984 . S
N818 H825 0.984 . S
N819 C812 1.356 . S
N819 H822 0.984 . S
N819 H823 0.985 . S
H820 N815 0.984 . S
H821 N815 0.985 . S
H822 N819 0.984 . S
H823 N819 0.985 . S
H824 N818 0.984 . S
H825 N818 0.984 . S
H826 N814 0.984 . S
H827 N814 0.985 . S
C828 C829 1.363 . S
C828 C834 1.379 . S
C828 N836 1.356 . S
C829 C828 1.363 . S
C829 C835 1.363 . S
C830 C831 1.363 . S
C830 C835 1.379 . S
C830 N837 1.356 . S
C831 C830 1.363 . S
C831 C834 1.363 . S
N832 C834 1.356 . S
N832 H844 0.984 . S
N832 H845 0.985 . S
N833 C835 1.356 . S
N833 H838 0.984 . S
N833 H839 0.985 . S
C834 C828 1.379 . S
C834 C831 1.363 . S
C834 N832 1.356 . S
C835 C829 1.363 . S
C835 C830 1.379 . S
C835 N833 1.356 . S
N836 C828 1.356 . S
N836 H842 0.984 . S
N836 H843 0.984 . S
N837 C830 1.356 . S
N837 H840 0.984 . S
N837 H841 0.985 . S
H838 N833 0.984 . S
H839 N833 0.985 . S
H840 N837 0.984 . S
H841 N837 0.985 . S
H842 N836 0.984 . S
H843 N836 0.984 . S
H844 N832 0.984 . S
H845 N832 0.985 . S
C846 C847 1.363 . S
C846 C852 1.379 1_655 S
C846 N854 1.356 . S
C847 C846 1.363 . S
C847 C853 1.363 . S
C848 C849 1.363 . S
C848 C853 1.379 1_455 S
C848 N855 1.356 . S
C849 C848 1.363 . S
C849 C852 1.363 . S
N850 C852 1.356 . S
N850 H862 0.984 . S
N850 H863 0.985 . S
N851 C853 1.356 . S
N851 H856 0.984 . S
N851 H857 0.985 . S
C852 C846 1.379 1_455 S
C852 C849 1.363 . S
C852 N850 1.356 . S
C853 C847 1.363 . S
C853 C848 1.379 1_655 S
C853 N851 1.356 . S
N854 C846 1.356 . S
N854 H860 0.984 . S
N854 H861 0.984 . S
N855 C848 1.356 . S
N855 H858 0.984 . S
N855 H859 0.985 . S
H856 N851 0.984 . S
H857 N851 0.985 . S
H858 N855 0.984 . S
H859 N855 0.985 . S
H860 N854 0.984 . S
H861 N854 0.984 . S
H862 N850 0.984 . S
H863 N850 0.985 . S
C864 C865 1.363 . S
C864 C870 1.379 1_545 S
C864 N872 1.356 . S
C865 C864 1.363 . S
C865 C871 1.363 . S
C866 C867 1.363 . S
C866 C871 1.379 1_565 S
C866 N873 1.356 . S
C867 C866 1.363 . S
C867 C870 1.363 . S
N868 C870 1.356 . S
N868 H880 0.984 . S
N868 H881 0.985 . S
N869 C871 1.356 . S
N869 H874 0.984 . S
N869 H875 0.985 . S
C870 C864 1.379 1_565 S
C870 C867 1.363 . S
C870 N868 1.356 . S
C871 C865 1.363 . S
C871 C866 1.379 1_545 S
C871 N869 1.356 . S
N872 C864 1.356 . S
N872 H878 0.984 . S
N872 H879 0.984 . S
N873 C866 1.356 . S
N873 H876 0.984 . S
N873 H877 0.985 . S
H874 N869 0.984 . S
H875 N869 0.985 . S
H876 N873 0.984 . S
H877 N873 0.985 . S
H878 N872 0.984 . S
H879 N872 0.984 . S
H880 N868 0.984 . S
H881 N868 0.985 . S
C882 C883 1.363 . S
C882 C888 1.379 . S
C882 N890 1.356 . S
C883 C882 1.363 . S
C883 C889 1.363 . S
C884 C885 1.363 . S
C884 C889 1.379 . S
C884 N891 1.356 . S
C885 C884 1.363 . S
C885 C888 1.363 . S
N886 C888 1.356 . S
N886 H898 0.984 . S
N886 H899 0.985 . S
N887 C889 1.356 . S
N887 H892 0.984 . S
N887 H893 0.985 . S
C888 C882 1.379 . S
C888 C885 1.363 . S
C888 N886 1.356 . S
C889 C883 1.363 . S
C889 C884 1.379 . S
C889 N887 1.356 . S
N890 C882 1.356 . S
N890 H896 0.984 . S
N890 H897 0.984 . S
N891 C884 1.356 . S
N891 H894 0.984 . S
N891 H895 0.985 . S
H892 N887 0.984 . S
H893 N887 0.985 . S
H894 N891 0.984 . S
H895 N891 0.985 . S
H896 N890 0.984 . S
H897 N890 0.984 . S
H898 N886 0.984 . S
H899 N886 0.985 . S
C900 C901 1.363 . S
C900 C906 1.379 1_455 S
C900 N908 1.356 . S
C901 C900 1.363 . S
C901 C907 1.363 . S
C902 C903 1.363 . S
C902 C907 1.379 1_655 S
C902 N909 1.356 . S
C903 C902 1.363 . S
C903 C906 1.363 . S
N904 C906 1.356 . S
N904 H916 0.984 1_556 S
N904 H917 0.985 . S
N905 C907 1.356 . S
N905 H910 0.984 . S
N905 H911 0.985 . S
C906 C900 1.379 1_655 S
C906 C903 1.363 . S
C906 N904 1.356 . S
C907 C901 1.363 . S
C907 C902 1.379 1_455 S
C907 N905 1.356 . S
N908 C900 1.356 . S
N908 H914 0.984 1_556 S
N908 H915 0.984 . S
N909 C902 1.356 . S
N909 H912 0.984 . S
N909 H913 0.985 . S
H910 N905 0.984 . S
H911 N905 0.985 . S
H912 N909 0.984 . S
H913 N909 0.985 . S
H914 N908 0.984 1_554 S
H915 N908 0.984 . S
H916 N904 0.984 1_554 S
H917 N904 0.985 . S
C918 C919 1.363 . S
C918 C924 1.379 1_545 S
C918 N926 1.356 . S
C919 C918 1.363 . S
C919 C925 1.363 1_556 S
C920 C921 1.363 . S
C920 C925 1.379 1_565 S
C920 N927 1.356 . S
C921 C920 1.363 . S
C921 C924 1.363 1_554 S
N922 C924 1.356 . S
N922 H934 0.984 . S
N922 H935 0.985 . S
N923 C925 1.356 . S
N923 H928 0.984 . S
N923 H929 0.985 . S
C924 C918 1.379 1_565 S
C924 C921 1.363 1_556 S
C924 N922 1.356 . S
C925 C919 1.363 1_554 S
C925 C920 1.379 1_545 S
C925 N923 1.356 . S
N926 C918 1.356 . S
N926 H932 0.984 . S
N926 H933 0.984 . S
N927 C920 1.356 . S
N927 H930 0.984 . S
N927 H931 0.985 . S
H928 N923 0.984 . S
H929 N923 0.985 . S
H930 N927 0.984 . S
H931 N927 0.985 . S
H932 N926 0.984 . S
H933 N926 0.984 . S
H934 N922 0.984 . S
H935 N922 0.985 . S
C397 N5 1.399 . S
C399 N14 1.399 . S
C415 N47 1.399 . S
C417 N38 1.399 . S
C433 N80 1.399 . S
C435 N71 1.399 . S
C451 N104 1.399 1_554 S
C453 N113 1.399 . S
C469 N137 1.399 . S
C471 N146 1.399 . S
C487 N179 1.399 . S
C489 N170 1.399 . S
C505 N203 1.399 . S
C507 N212 1.399 . S
C523 N236 1.399 . S
C525 N245 1.399 . S
C541 N278 1.399 . S
C543 N269 1.399 . S
C559 N302 1.399 . S
C561 N311 1.399 . S
C577 N335 1.399 . S
C579 N344 1.399 . S
C595 N377 1.399 . S
C597 N368 1.399 . S
C613 C206 1.546 . S
C615 C8 1.546 1_556 S
C631 C41 1.546 . S
C633 C239 1.546 1_554 S
C649 C272 1.547 . S
C651 C74 1.547 . S
C667 C305 1.546 . S
C669 C107 1.546 . S
C685 C338 1.547 . S
C687 C140 1.547 . S
C703 C371 1.546 . S
C705 C173 1.546 . S
C721 C28 1.264 . S
C723 C358 1.264 . S
C739 C61 1.265 . S
C741 C391 1.265 . S
C757 C94 1.264 . S
C759 C226 1.264 . S
C775 C259 1.265 . S
C777 C127 1.265 . S
C793 C292 1.265 1_556 S
C795 C160 1.265 . S
C811 C325 1.265 . S
C813 C193 1.265 1_554 S
C829 C17 1.556 . S
C831 C314 1.556 . S
C847 C50 1.556 . S
C849 C347 1.556 . S
C865 C380 1.556 . S
C867 C83 1.556 . S
C883 C116 1.556 . S
C885 C215 1.556 . S
C901 C149 1.556 . S
C903 C248 1.556 . S
C919 C182 1.556 . S
C921 C281 1.556 . S
