# Generated by pormake.
# Topology sra, (4)-cn, num edge types: 1
# Building blocks:
#     Node 0, Type 0, BuildingBlock: TATPOV_clean_sbu_0, # of connection points: 4
#     Node 1, Type 0, BuildingBlock: TATPOV_clean_sbu_0, # of connection points: 4
#     Node 2, Type 0, BuildingBlock: TATPOV_clean_sbu_0, # of connection points: 4
#     Node 3, Type 0, BuildingBlock: TATPOV_clean_sbu_0, # of connection points: 4
#     Node 4, Type 0, BuildingBlock: TATPOV_clean_sbu_0, # of connection points: 4
#     Node 5, Type 0, BuildingBlock: TATPOV_clean_sbu_0, # of connection points: 4
#     Node 6, Type 0, BuildingBlock: TATPOV_clean_sbu_0, # of connection points: 4
#     Node 7, Type 0, BuildingBlock: TATPOV_clean_sbu_0, # of connection points: 4
#     Edge 8, Type (0, 0), BuildingBlock: ZUJKAS_clean_linker_0, # of connection points: 2
#     Edge 9, Type (0, 0), BuildingBlock: ZUJKAS_clean_linker_0, # of connection points: 2
#     Edge 10, Type (0, 0), BuildingBlock: ZUJKAS_clean_linker_0, # of connection points: 2
#     Edge 11, Type (0, 0), BuildingBlock: ZUJKAS_clean_linker_0, # of connection points: 2
#     Edge 12, Type (0, 0), BuildingBlock: ZUJKAS_clean_linker_0, # of connection points: 2
#     Edge 13, Type (0, 0), BuildingBlock: ZUJKAS_clean_linker_0, # of connection points: 2
#     Edge 14, Type (0, 0), BuildingBlock: ZUJKAS_clean_linker_0, # of connection points: 2
#     Edge 15, Type (0, 0), BuildingBlock: ZUJKAS_clean_linker_0, # of connection points: 2
#     Edge 16, Type (0, 0), BuildingBlock: ZUJKAS_clean_linker_0, # of connection points: 2
#     Edge 17, Type (0, 0), BuildingBlock: ZUJKAS_clean_linker_0, # of connection points: 2
#     Edge 18, Type (0, 0), BuildingBlock: ZUJKAS_clean_linker_0, # of connection points: 2
#     Edge 19, Type (0, 0), BuildingBlock: ZUJKAS_clean_linker_0, # of connection points: 2
#     Edge 20, Type (0, 0), BuildingBlock: ZUJKAS_clean_linker_0, # of connection points: 2
#     Edge 21, Type (0, 0), BuildingBlock: ZUJKAS_clean_linker_0, # of connection points: 2
#     Edge 22, Type (0, 0), BuildingBlock: ZUJKAS_clean_linker_0, # of connection points: 2
#     Edge 23, Type (0, 0), BuildingBlock: ZUJKAS_clean_linker_0, # of connection points: 2
# Relax obj value: 0.056
# Max RMSD: 0.068
# Mean RMSD: 0.068
data_MOF--net-sra--node1-TATPOV_clean_sbu_0--edge1-ZUJKAS_clean_linker_0
_symmetry_space_group_name_H-M    P1
_symmetry_Int_Tables_number       1
_symmetry_cell_setting            triclinic
loop_
_symmetry_equiv_pos_as_xyz
'x, y, z'
_cell_length_a     34.467696
_cell_length_b     56.788147
_cell_length_c     53.340674
_cell_angle_alpha  89.982729
_cell_angle_beta   89.866851
_cell_angle_gamma 89.969553
loop_
_atom_site_label
_atom_site_type_symbol
_atom_site_fract_x
_atom_site_fract_y
_atom_site_fract_z
_atom_type_partial_charge
Zn0 Zn 0.02949 0.10284 0.214 0.0
Zn1 Zn 0.02191 0.08154 0.17085 0.0
O2 O 0.06976 0.06523 0.18672 0.0
O3 O 0.06899 0.07933 0.22519 0.0
O4 O 0.01673 0.06459 0.13769 0.0
O5 O 0.97401 0.09696 0.22254 0.0
O6 O 0.96971 0.07463 0.18894 0.0
C7 C 0.08298 0.06542 0.20903 0.0
C8 C 0.04103 0.13442 0.17324 0.0
O9 O 0.03016 0.11651 0.16065 0.0
O10 O 0.04537 0.13279 0.19673 0.0
C11 C 0.03979 0.06924 0.11971 0.0
O12 O 0.06656 0.08541 0.12291 0.0
C13 C 0.95479 0.0829 0.20902 0.0
Zn14 Zn 0.0264 0.40533 0.21083 0.0
Zn15 Zn 0.02223 0.42626 0.16748 0.0
O16 O 0.96898 0.43372 0.1841 0.0
O17 O 0.97041 0.41114 0.21762 0.0
O18 O 0.01968 0.44256 0.13376 0.0
O19 O 0.06515 0.42873 0.22318 0.0
O20 O 0.06911 0.44254 0.18467 0.0
C21 C 0.95243 0.42537 0.20359 0.0
C22 C 0.04039 0.37325 0.17109 0.0
O23 O 0.03073 0.3911 0.15797 0.0
O24 O 0.04321 0.37514 0.19465 0.0
C25 C 0.98854 0.44366 0.12105 0.0
O26 O 0.95686 0.43391 0.13002 0.0
C27 C 0.08059 0.44246 0.20739 0.0
Zn28 Zn 0.01251 0.90128 0.79633 0.0
Zn29 Zn 0.01566 0.92447 0.83841 0.0
O30 O 0.06954 0.93086 0.82223 0.0
O31 O 0.06866 0.90687 0.78984 0.0
O32 O 0.01746 0.94302 0.87076 0.0
O33 O 0.97394 0.92384 0.78209 0.0
O34 O 0.96934 0.93973 0.81963 0.0
C35 C 0.08647 0.92159 0.80335 0.0
C36 C -0.00203 0.87129 0.83786 0.0
O37 O 0.00697 0.88987 0.84995 0.0
O38 O -0.0043 0.87191 0.81419 0.0
C39 C 0.03235 0.93482 0.89073 0.0
O40 O 0.04739 0.91356 0.89048 0.0
C41 C 0.95826 0.93841 0.79688 0.0
Zn42 Zn 0.0174 0.60455 0.79341 0.0
Zn43 Zn 0.01287 0.58138 0.83606 0.0
O44 O 0.96216 0.57168 0.81792 0.0
O45 O 0.96425 0.59383 0.78407 0.0
O46 O 0.01128 0.56389 0.8691 0.0
O47 O 0.06285 0.58541 0.78233 0.0
O48 O 0.06255 0.56807 0.81923 0.0
C49 C 0.94688 0.5788 0.79751 0.0
C50 C 0.02117 0.63555 0.83515 0.0
O51 O 0.01527 0.61647 0.84721 0.0
O52 O 0.02483 0.63505 0.81155 0.0
C53 C 0.98018 0.56096 0.88158 0.0
O54 O 0.94744 0.56937 0.87273 0.0
C55 C 0.07756 0.57087 0.79754 0.0
Zn56 Zn 0.50181 0.59748 0.7115 0.0
Zn57 Zn 0.50783 0.57608 0.6689 0.0
O58 O 0.55885 0.56671 0.68692 0.0
O59 O 0.55675 0.58988 0.71994 0.0
O60 O 0.51098 0.55931 0.63558 0.0
O61 O 0.46065 0.57554 0.72341 0.0
O62 O 0.45796 0.56182 0.68485 0.0
C63 C 0.57451 0.57478 0.70679 0.0
C64 C 0.4949 0.62962 0.6713 0.0
O65 O 0.50494 0.61142 0.65886 0.0
O66 O 0.4884 0.628 0.69459 0.0
C67 C 0.53899 0.56259 0.62042 0.0
O68 O 0.56686 0.57722 0.62667 0.0
C69 C 0.44506 0.56233 0.70727 0.0
Zn70 Zn 0.53873 0.90083 0.71006 0.0
Zn71 Zn 0.52916 0.92449 0.66833 0.0
O72 O 0.47841 0.932 0.68749 0.0
O73 O 0.48397 0.9083 0.71996 0.0
O74 O 0.52552 0.94329 0.63626 0.0
O75 O 0.58115 0.92201 0.72163 0.0
O76 O 0.57872 0.93864 0.68442 0.0
C77 C 0.46451 0.92321 0.7076 0.0
C78 C 0.54395 0.87111 0.66738 0.0
O79 O 0.53295 0.88978 0.65619 0.0
O80 O 0.55121 0.87147 0.69061 0.0
C81 C 0.50553 0.93707 0.61739 0.0
O82 O 0.48499 0.91762 0.6186 0.0
C83 C 0.59436 0.93669 0.70598 0.0
Zn84 Zn 0.50245 0.40184 0.29375 0.0
Zn85 Zn 0.50892 0.42598 0.3356 0.0
O86 O 0.56042 0.4335 0.31711 0.0
O87 O 0.55654 0.4105 0.28399 0.0
O88 O 0.51251 0.44442 0.36788 0.0
O89 O 0.45847 0.42198 0.28227 0.0
O90 O 0.46009 0.44019 0.31866 0.0
C91 C 0.57516 0.42531 0.29695 0.0
C92 C 0.49561 0.37226 0.33659 0.0
O93 O 0.50337 0.3914 0.34804 0.0
O94 O 0.49213 0.37221 0.31298 0.0
C95 C 0.54025 0.44127 0.3832 0.0
O96 O 0.56745 0.42589 0.37765 0.0
C97 C 0.44473 0.43721 0.29715 0.0
Zn98 Zn 0.50376 0.10992 0.29616 0.0
Zn99 Zn 0.50882 0.08505 0.33784 0.0
O100 O 0.46132 0.07106 0.31938 0.0
O101 O 0.46079 0.08974 0.28325 0.0
O102 O 0.50999 0.06564 0.36958 0.0
O103 O 0.55863 0.10155 0.28766 0.0
O104 O 0.56131 0.07802 0.32043 0.0
C105 C 0.44679 0.07421 0.29766 0.0
C106 C 0.49427 0.1386 0.33956 0.0
O107 O 0.50227 0.11938 0.35082 0.0
O108 O 0.49156 0.13901 0.31592 0.0
C109 C 0.52923 0.07163 0.38886 0.0
O110 O 0.55008 0.09099 0.38813 0.0
C111 C 0.57686 0.0866 0.30071 0.0
H112 H 0.01705 0.35759 0.12458 0.0
H113 H 0.02102 0.31701 0.10852 0.0
H114 H 0.08111 0.29576 0.17565 0.0
H115 H 0.07747 0.33581 0.19163 0.0
H116 H 0.11183 0.27636 0.12913 0.0
H117 H 0.95207 0.26438 0.14077 0.0
H118 H 0.96983 0.28856 0.12215 0.0
H119 H 0.97712 0.28862 0.15543 0.0
C120 C 0.03163 0.34431 0.13568 0.0
C121 C 0.04657 0.34984 0.1595 0.0
C122 C 0.03371 0.32116 0.12654 0.0
C123 C 0.05101 0.30338 0.14104 0.0
C124 C 0.06762 0.30921 0.16417 0.0
H125 H 0.08295 0.17105 0.19129 0.0
H126 H 0.08747 0.21076 0.17449 0.0
C127 C 0.06533 0.33213 0.17333 0.0
C128 C 0.0498 0.27824 0.13365 0.0
H129 H 0.99012 0.23042 0.13741 0.0
C130 C 0.08509 0.26633 0.13018 0.0
C131 C 0.01487 0.26521 0.13482 0.0
C132 C 0.97619 0.27718 0.13855 0.0
C133 C 0.08669 0.24164 0.12993 0.0
C134 C 0.05223 0.22861 0.13368 0.0
C135 C 0.01654 0.24048 0.13467 0.0
C136 C 0.05326 0.20353 0.1414 0.0
C137 C 0.12556 0.22973 0.12707 0.0
C138 C 0.03236 0.18617 0.12842 0.0
C139 C 0.02976 0.16322 0.13804 0.0
C140 C 0.04731 0.15753 0.16106 0.0
C141 C 0.06899 0.17485 0.17357 0.0
C142 C 0.07193 0.19755 0.16385 0.0
H143 H 0.14565 0.24063 0.11561 0.0
H144 H 0.13882 0.22745 0.14585 0.0
H145 H 0.12262 0.21212 0.11822 0.0
H146 H 0.01734 0.19053 0.11121 0.0
H147 H 0.01271 0.15026 0.12805 0.0
H148 H 0.01889 0.85902 0.886 0.0
H149 H 0.01974 0.81909 0.9039 0.0
H150 H 0.96797 0.79207 0.83622 0.0
H151 H 0.96632 0.83148 0.81861 0.0
H152 H 0.93955 0.77035 0.87941 0.0
H153 H 0.10138 0.77266 0.87776 0.0
H154 H 0.07599 0.79423 0.89624 0.0
H155 H 0.07294 0.79521 0.86267 0.0
C156 C 0.00697 0.84459 0.87521 0.0
C157 C -0.0069 0.84835 0.85072 0.0
C158 C 0.00769 0.8218 0.88539 0.0
C159 C -0.00547 0.80255 0.87121 0.0
C160 C 0.97834 0.80662 0.84751 0.0
H161 H 0.04706 0.67692 0.81602 0.0
H162 H 0.04221 0.71591 0.83437 0.0
C163 C 0.97764 0.82921 0.83738 0.0
C164 C 0.00073 0.77779 0.87918 0.0
H165 H 0.07168 0.73584 0.87905 0.0
C166 C 0.96841 0.76276 0.88019 0.0
C167 C 0.03847 0.768 0.88024 0.0
C168 C 0.07432 0.78323 0.87909 0.0
C169 C 0.97279 0.73817 0.87956 0.0
C170 C 0.01053 0.72845 0.87827 0.0
C171 C 0.04281 0.74341 0.88 0.0
C172 C 0.01697 0.70403 0.86933 0.0
C173 C 0.93708 0.72291 0.87778 0.0
C174 C 0.0052 0.6842 0.88315 0.0
C175 C 0.00787 0.6616 0.87257 0.0
C176 C 0.0222 0.65866 0.84803 0.0
C177 C 0.0355 0.67852 0.83485 0.0
C178 C 0.03296 0.70088 0.84538 0.0
H179 H 0.90991 0.73344 0.87729 0.0
H180 H 0.93844 0.71185 0.86063 0.0
H181 H 0.93576 0.71095 0.8942 0.0
H182 H -0.00681 0.68624 0.9018 0.0
H183 H -0.00248 0.64662 0.88322 0.0
H184 H 0.53956 0.64598 0.63241 0.0
H185 H 0.54924 0.6875 0.62088 0.0
H186 H 0.45895 0.70786 0.67259 0.0
H187 H 0.4499 0.66674 0.68461 0.0
H188 H 0.50061 0.7284 0.60521 0.0
H189 H 0.56174 0.73552 0.70102 0.0
H190 H 0.55252 0.70756 0.68616 0.0
H191 H 0.5134 0.72379 0.70037 0.0
C192 C 0.52105 0.65928 0.64074 0.0
C193 C 0.49442 0.65325 0.6597 0.0
C194 C 0.52661 0.68296 0.63415 0.0
C195 C 0.50527 0.70072 0.64625 0.0
C196 C 0.47607 0.69442 0.66332 0.0
H197 H 0.48775 0.85132 0.63846 0.0
H198 H 0.48253 0.80949 0.62774 0.0
C199 C 0.47094 0.67093 0.67017 0.0
C200 C 0.51685 0.72576 0.64406 0.0
H201 H 0.54985 0.7713 0.6796 0.0
C202 C 0.51178 0.73783 0.62133 0.0
C203 C 0.53223 0.73784 0.66496 0.0
C204 C 0.54069 0.72549 0.68944 0.0
C205 C 0.52032 0.76203 0.6193 0.0
C206 C 0.53356 0.7744 0.64071 0.0
C207 C 0.53972 0.76197 0.66312 0.0
C208 C 0.53988 0.80033 0.64121 0.0
C209 C 0.51527 0.774 0.59429 0.0
C210 C 0.57405 0.80934 0.65187 0.0
C211 C 0.57646 0.833 0.65871 0.0
C212 C 0.5452 0.84827 0.65438 0.0
C213 C 0.51244 0.83989 0.64161 0.0
C214 C 0.50956 0.81598 0.63536 0.0
H215 H 0.51858 0.76128 0.57861 0.0
H216 H 0.48559 0.7815 0.59321 0.0
H217 H 0.53653 0.78848 0.59171 0.0
H218 H 0.59789 0.79769 0.65651 0.0
H219 H 0.60197 0.83911 0.66861 0.0
H220 H 0.52275 0.36044 0.38357 0.0
H221 H 0.52121 0.32114 0.4032 0.0
H222 H 0.45785 0.29425 0.33975 0.0
H223 H 0.45927 0.33292 0.32023 0.0
H224 H 0.43054 0.27905 0.39027 0.0
H225 H 0.58863 0.2658 0.37225 0.0
H226 H 0.5718 0.29168 0.38854 0.0
H227 H 0.56213 0.28838 0.35573 0.0
C228 C 0.50803 0.34618 0.37406 0.0
C229 C 0.49148 0.3497 0.35024 0.0
C230 C 0.50728 0.32378 0.38524 0.0
C231 C 0.4896 0.30481 0.37281 0.0
C232 C 0.47159 0.30866 0.34966 0.0
H233 H 0.45015 0.1757 0.32571 0.0
H234 H 0.44788 0.21464 0.34456 0.0
C235 C 0.47262 0.33078 0.33846 0.0
C236 C 0.49177 0.28034 0.38228 0.0
H237 H 0.55008 0.23206 0.37678 0.0
C238 C 0.45695 0.26882 0.38824 0.0
C239 C 0.5263 0.26706 0.3799 0.0
C240 C 0.56449 0.2787 0.37375 0.0
C241 C 0.45504 0.24416 0.38932 0.0
C242 C 0.48861 0.23079 0.38384 0.0
C243 C 0.5243 0.24236 0.38081 0.0
C244 C 0.48578 0.20595 0.37553 0.0
C245 C 0.41648 0.2326 0.3945 0.0
C246 C 0.50787 0.18798 0.38668 0.0
C247 C 0.50904 0.16543 0.3759 0.0
C248 C 0.48896 0.16086 0.3535 0.0
C249 C 0.46602 0.17871 0.34293 0.0
C250 C 0.46439 0.20095 0.35384 0.0
H251 H 0.39846 0.24366 0.40717 0.0
H252 H 0.40045 0.23055 0.37661 0.0
H253 H 0.42026 0.21493 0.40308 0.0
H254 H 0.52501 0.1916 0.40323 0.0
H255 H 0.52715 0.15201 0.38432 0.0
H256 H 0.41522 0.07339 0.25097 0.0
H257 H 0.35333 0.05654 0.23851 0.0
H258 H 0.33816 0.02756 0.31262 0.0
H259 H 0.4003 0.04477 0.32552 0.0
H260 H 0.31738 0.01057 0.23954 0.0
H261 H 0.2491 0.07578 0.30428 0.0
H262 H 0.29971 0.07734 0.29584 0.0
H263 H 0.28318 0.05532 0.31753 0.0
C264 C 0.39909 0.06318 0.26461 0.0
C265 C 0.41229 0.06085 0.28942 0.0
C266 C 0.36384 0.05337 0.25735 0.0
C267 C 0.34103 0.04108 0.27473 0.0
C268 C 0.35527 0.03723 0.29903 0.0
H269 H 0.09296 0.04187 0.25259 0.0
H270 H 0.154 0.02649 0.26905 0.0
C271 C 0.39072 0.04707 0.30636 0.0
C272 C 0.3005 0.03544 0.26804 0.0
H273 H 0.20877 0.05624 0.27643 0.0
C274 C 0.29336 0.02012 0.24791 0.0
C275 C 0.26935 0.04796 0.27901 0.0
C276 C 0.27546 0.06515 0.30026 0.0
C277 C 0.25596 0.01773 0.23778 0.0
C278 C 0.2253 0.03142 0.24774 0.0
C279 C 0.23219 0.04566 0.2688 0.0
C280 C 0.18699 0.03369 0.23532 0.0
C281 C 0.24994 1.00094 0.21626 0.0
C282 C 0.18468 0.04165 0.21038 0.0
C283 C 0.14949 0.04994 0.20075 0.0
C284 C 0.11654 0.05094 0.21618 0.0
C285 C 0.11815 0.04135 0.2404 0.0
C286 C 0.15298 0.03255 0.2498 0.0
H287 H 0.27031 0.98581 0.21746 0.0
H288 H 0.21977 0.99411 0.21579 0.0
H289 H 0.25594 0.01024 0.19837 0.0
H290 H 0.21058 0.04329 0.199 0.0
H291 H 0.14895 0.05748 0.1821 0.0
H292 H 0.62065 0.40321 0.26283 0.0
H293 H 0.68352 0.41539 0.2469 0.0
H294 H 0.67991 0.47727 0.29379 0.0
H295 H 0.61676 0.46465 0.31062 0.0
H296 H 0.70485 0.45468 0.22131 0.0
H297 H 0.78367 0.44889 0.31226 0.0
H298 H 0.73529 0.43739 0.30855 0.0
H299 H 0.74295 0.4686 0.31077 0.0
C300 C 0.63314 0.4194 0.26988 0.0
C301 C 0.61381 0.43292 0.28809 0.0
C302 C 0.66906 0.42641 0.26063 0.0
C303 C 0.6865 0.4472 0.26917 0.0
C304 C 0.66723 0.46098 0.2872 0.0
H305 H 0.91174 0.46493 0.18942 0.0
H306 H 0.84756 0.47732 0.20487 0.0
C307 C 0.63121 0.45376 0.29678 0.0
C308 C 0.72542 0.45342 0.25936 0.0
H309 H 0.82087 0.4531 0.27596 0.0
C310 C 0.73029 0.45484 0.23323 0.0
C311 C 0.75843 0.45379 0.27504 0.0
C312 C 0.75512 0.45197 0.3032 0.0
C313 C 0.76732 0.45434 0.22224 0.0
C314 C 0.80025 0.45304 0.23791 0.0
C315 C 0.79543 0.45395 0.26405 0.0
C316 C 0.83893 0.44642 0.22803 0.0
C317 C 0.77072 0.45322 0.19406 0.0
C318 C 0.85527 0.42509 0.23597 0.0
C319 C 0.8917 0.41819 0.2275 0.0
C320 C 0.91265 0.43239 0.21069 0.0
C321 C 0.89605 0.45357 0.20222 0.0
C322 C 0.85947 0.46065 0.21102 0.0
H323 H 0.74205 0.45116 0.18483 0.0
H324 H 0.78417 0.4697 0.18704 0.0
H325 H 0.78958 0.43829 0.18835 0.0
H326 H 0.83977 0.41371 0.24888 0.0
H327 H 0.90354 0.4017 0.23427 0.0
H328 H 0.1359 0.89634 0.77451 0.0
H329 H 0.19983 0.90764 0.75953 0.0
H330 H 0.19148 0.97328 0.79993 0.0
H331 H 0.12711 0.96168 0.8157 0.0
H332 H 0.21787 0.94605 0.7303 0.0
H333 H 0.29764 0.94812 0.82105 0.0
H334 H 0.25036 0.93476 0.81825 0.0
H335 H 0.25505 0.96624 0.8183 0.0
C336 C 0.14767 0.91312 0.78043 0.0
C337 C 0.12647 0.92814 0.79627 0.0
C338 C 0.1842 0.9196 0.77176 0.0
C339 C 0.20039 0.9413 0.77855 0.0
C340 C 0.17967 0.95632 0.79469 0.0
H341 H 0.42 0.96135 0.69383 0.0
H342 H 0.35651 0.97271 0.71108 0.0
C343 C 0.14298 0.94969 0.80367 0.0
C344 C 0.2389 0.94764 0.76822 0.0
H345 H 0.3344 0.95113 0.78427 0.0
C346 C 0.2434 0.94764 0.74204 0.0
C347 C 0.27194 0.94983 0.78366 0.0
C348 C 0.26883 0.94963 0.81188 0.0
C349 C 0.28028 0.94767 0.73088 0.0
C350 C 0.31347 0.94843 0.74638 0.0
C351 C 0.30883 0.95049 0.77248 0.0
C352 C 0.35268 0.94304 0.73648 0.0
C353 C 0.28334 0.94497 0.70278 0.0
C354 C 0.37184 0.92294 0.74537 0.0
C355 C 0.40798 0.91663 0.73586 0.0
C356 C 0.42582 0.93019 0.71705 0.0
C357 C 0.40676 0.95043 0.70813 0.0
C358 C 0.37053 0.95692 0.71794 0.0
H359 H 0.25492 0.94082 0.69405 0.0
H360 H 0.29411 0.96166 0.69449 0.0
H361 H 0.30418 0.93078 0.69786 0.0
H362 H 0.35852 0.91187 0.75953 0.0
H363 H 0.42177 0.90091 0.74314 0.0
H364 H 0.61615 0.53619 0.69059 0.0
H365 H 0.67883 0.52227 0.70689 0.0
H366 H 0.68205 0.58123 0.75783 0.0
H367 H 0.61988 0.59474 0.74234 0.0
H368 H 0.74808 0.5424 0.70643 0.0
H369 H 0.70835 0.52907 0.80507 0.0
H370 H 0.67218 0.53226 0.78085 0.0
H371 H 0.69255 0.55786 0.79598 0.0
C372 C 0.63025 0.54604 0.70536 0.0
C373 C 0.61291 0.56644 0.71532 0.0
C374 C 0.66587 0.53802 0.71474 0.0
C375 C 0.68447 0.55026 0.7342 0.0
C376 C 0.66753 0.57091 0.7436 0.0
H377 H 0.90127 0.59717 0.76111 0.0
H378 H 0.84 0.58233 0.74558 0.0
C379 C 0.63209 0.57878 0.73446 0.0
C380 C 0.72319 0.54314 0.74354 0.0
H381 H 0.77547 0.54313 0.79771 0.0
C382 C 0.754 0.54181 0.72638 0.0
C383 C 0.73104 0.54142 0.76952 0.0
C384 C 0.69909 0.53993 0.78882 0.0
C385 C 0.79259 0.54176 0.73463 0.0
C386 C 0.80035 0.5439 0.76059 0.0
C387 C 0.76961 0.54221 0.77777 0.0
C388 C 0.83872 0.55176 0.76987 0.0
C389 C 0.8246 0.54059 0.71534 0.0
C390 C 0.85764 0.54021 0.78969 0.0
C391 C 0.89269 0.54903 0.79911 0.0
C392 C 0.90917 0.56953 0.78881 0.0
C393 C 0.88973 0.58115 0.76926 0.0
C394 C 0.85481 0.5725 0.7601 0.0
H395 H 0.81589 0.5293 0.6993 0.0
H396 H 0.83014 0.55851 0.70785 0.0
H397 H 0.85191 0.53356 0.72342 0.0
H398 H 0.84532 0.5244 0.79783 0.0
H399 H 0.90702 0.53973 0.81421 0.0
H400 H 0.6214 0.94579 0.75271 0.0
H401 H 0.68464 0.96148 0.76396 0.0
H402 H 0.71038 0.97376 0.68587 0.0
H403 H 0.64664 0.95788 0.67436 0.0
H404 H 0.76107 0.94359 0.70961 0.0
H405 H 0.74314 0.02381 0.767 0.0
H406 H 0.71099 1.00071 0.77676 0.0
H407 H 0.70595 0.01328 0.74594 0.0
C408 C 0.64007 0.95237 0.73793 0.0
C409 C 0.62933 0.9503 0.71262 0.0
C410 C 0.67606 0.96165 0.74443 0.0
C411 C 0.70205 0.96906 0.72579 0.0
C412 C 0.6905 0.96839 0.70055 0.0
H413 H 0.95139 0.95901 0.75133 0.0
H414 H 0.89178 0.97397 0.73226 0.0
C415 C 0.65418 0.95927 0.694 0.0
C416 C 0.74318 0.9728 0.73254 0.0
H417 H 0.80119 1.00062 0.77503 0.0
C418 C 0.77022 0.95649 0.72338 0.0
C419 C 0.75475 0.98946 0.75074 0.0
C420 C 0.7272 0.00795 0.7605 0.0
C421 C 0.80774 0.95515 0.73326 0.0
C422 C 0.81895 0.97117 0.75228 0.0
C423 C 0.79256 0.98839 0.76047 0.0
C424 C 0.85654 0.96856 0.76539 0.0
C425 C 0.83389 0.9354 0.72451 0.0
C426 C 0.85712 0.96256 0.79095 0.0
C427 C 0.89145 0.95465 0.8021 0.0
C428 C 0.92529 0.95234 0.78764 0.0
C429 C 0.92541 0.96036 0.76273 0.0
C430 C 0.89142 0.9688 0.75181 0.0
H431 H 0.81769 0.92163 0.71408 0.0
H432 H 0.8564 0.94262 0.71174 0.0
H433 H 0.84868 0.9269 0.74062 0.0
H434 H 0.83052 0.9624 0.80181 0.0
H435 H 0.89072 0.94854 0.82134 0.0
H436 H 0.37731 0.55748 0.68147 0.0
H437 H 0.31492 0.5451 0.69943 0.0
H438 H 0.37269 0.52461 0.76771 0.0
H439 H 0.43458 0.538 0.7503 0.0
H440 H 0.27993 0.50603 0.72316 0.0
H441 H 0.30596 0.5798 0.7898 0.0
H442 H 0.33636 0.57484 0.76281 0.0
H443 H 0.34178 0.55688 0.79036 0.0
C444 C 0.37672 0.54967 0.7 0.0
C445 C 0.41037 0.54901 0.71473 0.0
C446 C 0.34117 0.54261 0.71025 0.0
C447 C 0.33915 0.53456 0.73514 0.0
C448 C 0.37353 0.53134 0.74871 0.0
H449 H 0.1298 0.54761 0.82751 0.0
H450 H 0.19273 0.53127 0.81461 0.0
C451 C 0.40882 0.53889 0.73873 0.0
C452 C 0.30111 0.53302 0.74796 0.0
H453 H 0.24652 0.56044 0.79272 0.0
C454 C 0.27272 0.51768 0.7386 0.0
C455 C 0.29179 0.54827 0.76813 0.0
C456 C 0.32038 0.56603 0.77828 0.0
C457 C 0.23484 0.51772 0.74838 0.0
C458 C 0.22522 0.53366 0.76779 0.0
C459 C 0.25412 0.54808 0.778 0.0
C460 C 0.18462 0.53862 0.77514 0.0
C461 C 0.20522 0.50113 0.73746 0.0
C462 C 0.15918 0.54787 0.75721 0.0
C463 C 0.12367 0.55738 0.76452 0.0
C464 C 0.11286 0.55791 0.78995 0.0
C465 C 0.13738 0.54747 0.8078 0.0
C466 C 0.17321 0.53806 0.80045 0.0
H467 H 0.21928 0.48503 0.72985 0.0
H468 H 0.18328 0.49589 0.75168 0.0
H469 H 0.19005 0.51003 0.72176 0.0
H470 H 0.16773 0.54904 0.7377 0.0
H471 H 0.1053 0.56512 0.75027 0.0
H472 H 0.6229 0.10831 0.26652 0.0
H473 H 0.68549 0.09555 0.25065 0.0
H474 H 0.68173 0.0346 0.2989 0.0
H475 H 0.61874 0.04772 0.31557 0.0
H476 H 0.75128 0.05471 0.30005 0.0
H477 H 0.71049 0.04485 0.20108 0.0
H478 H 0.6958 0.07344 0.21161 0.0
H479 H 0.67465 0.04752 0.22568 0.0
C480 C 0.63515 0.09211 0.27375 0.0
C481 C 0.61569 0.07893 0.29219 0.0
C482 C 0.67082 0.08468 0.26441 0.0
C483 C 0.68767 0.06368 0.2729 0.0
C484 C 0.66886 0.05066 0.29176 0.0
H485 H 0.90983 0.04598 0.19239 0.0
H486 H 0.84596 0.03399 0.20861 0.0
C487 C 0.63306 0.05823 0.30135 0.0
C488 C 0.72627 0.05671 0.26311 0.0
H489 H 0.7783 0.05642 0.20864 0.0
C490 C 0.75708 0.05442 0.28006 0.0
C491 C 0.73389 0.05546 0.23704 0.0
C492 C 0.70177 0.05516 0.21788 0.0
C493 C 0.7956 0.05355 0.2716 0.0
C494 C 0.80338 0.05576 0.24562 0.0
C495 C 0.77244 0.05537 0.2286 0.0
C496 C 0.84255 0.06191 0.23617 0.0
C497 C 0.8276 0.05122 0.29068 0.0
C498 C 0.86116 0.08191 0.24574 0.0
C499 C 0.89731 0.0887 0.23665 0.0
C500 C 0.91554 0.07588 0.2174 0.0
C501 C 0.89649 0.05619 0.20724 0.0
C502 C 0.86018 0.04925 0.21657 0.0
H503 H 0.81793 0.04041 0.3069 0.0
H504 H 0.85401 0.04307 0.28245 0.0
H505 H 0.8352 0.06894 0.29794 0.0
H506 H 0.84748 0.09253 0.26013 0.0
H507 H 0.91088 0.10414 0.24469 0.0
H508 H 0.08917 0.46424 0.25212 0.0
H509 H 0.14927 0.47976 0.26974 0.0
H510 H 0.20777 0.46653 0.19949 0.0
H511 H 0.14707 0.45207 0.18149 0.0
H512 H 0.20592 0.45077 0.27622 0.0
H513 H 0.26337 0.52485 0.22066 0.0
H514 H 0.21339 0.51551 0.21851 0.0
H515 H 0.2506 0.50085 0.20053 0.0
C516 C 0.11456 0.46551 0.24019 0.0
C517 C 0.11374 0.45684 0.21554 0.0
C518 C 0.14885 0.4744 0.25024 0.0
C519 C 0.18313 0.47438 0.23599 0.0
C520 C 0.18161 0.4673 0.21073 0.0
H521 H 0.41343 0.43983 0.25052 0.0
H522 H 0.35054 0.45582 0.23888 0.0
C523 C 0.14696 0.45887 0.20046 0.0
C524 C 0.2211 0.47706 0.24874 0.0
H525 H 0.3117 0.50052 0.24208 0.0
C526 C 0.2287 0.4622 0.26922 0.0
C527 C 0.25089 0.4919 0.23961 0.0
C528 C 0.24396 0.50934 0.21878 0.0
C529 C 0.26587 0.46044 0.27957 0.0
C530 C 0.29626 0.47415 0.26936 0.0
C531 C 0.28828 0.49007 0.24988 0.0
C532 C 0.33712 0.46914 0.27588 0.0
C533 C 0.2729 0.44258 0.30007 0.0
C534 C 0.35106 0.47213 0.3004 0.0
C535 C 0.38713 0.46278 0.30725 0.0
C536 C 0.40958 0.45035 0.28962 0.0
C537 C 0.39661 0.44897 0.26468 0.0
C538 C 0.36077 0.4583 0.25789 0.0
H539 H 0.24723 0.43119 0.30349 0.0
H540 H 0.29796 0.43114 0.29522 0.0
H541 H 0.27982 0.45188 0.31779 0.0
H542 H 0.33329 0.4807 0.31447 0.0
H543 H 0.39651 0.4643 0.32654 0.0
H544 H 0.07979 0.07788 0.07639 0.0
H545 H 0.07664 0.05604 0.03698 0.0
H546 H -0.00791 0.00896 0.06934 0.0
H547 H -0.00564 0.03105 0.10866 0.0
H548 H 0.09448 0.01061 0.02792 0.0
H549 H 0.94028 0.02661 1.00404 0.0
H550 H 0.96512 0.04291 0.0282 0.0
H551 H 0.94663 0.01388 0.03455 0.0
C552 C 0.06028 0.06298 0.07509 0.0
C553 C 0.0372 0.05627 0.09566 0.0
C554 C 0.05855 0.05051 0.05254 0.0
C555 C 0.03372 0.03107 0.05005 0.0
C556 C 0.01077 0.02424 0.07059 0.0
H557 H 0.05571 0.92114 0.9375 0.0
H558 H 0.05604 0.94457 0.97592 0.0
C559 C 0.01229 0.03681 0.09313 0.0
C560 C 0.03307 0.01744 0.02629 0.0
H561 H 0.97335 0.99756 0.97987 0.0
C562 C 0.06801 0.00784 0.01735 0.0
C563 C -0.00137 0.0141 0.01232 0.0
C564 C 0.96061 0.02511 0.0201 0.0
C565 C 0.06939 0.99471 0.99508 0.0
C566 C 0.0347 0.99058 0.98164 0.0
C567 C -0.00015 1.00051 0.99033 0.0
C568 C 0.034 0.97622 0.95838 0.0
C569 C 0.10816 0.98575 0.98592 0.0
C570 C 0.0204 0.98599 0.93588 0.0
C571 C 0.01977 0.97255 0.91391 0.0
C572 C 0.0327 0.94905 0.91403 0.0
C573 C 0.04589 0.93924 0.93668 0.0
C574 C 0.04631 0.95265 0.95866 0.0
H575 H 0.13258 0.9959 0.99413 0.0
H576 H 0.11163 0.96708 0.99163 0.0
H577 H 0.11025 0.98672 0.96517 0.0
H578 H 0.01057 0.00411 0.93526 0.0
H579 H 0.00934 0.98064 0.89681 0.0
H580 H 0.0437 0.54545 0.90756 0.0
H581 H 0.04479 0.52521 0.94808 0.0
H582 H 0.91992 0.52804 0.9515 0.0
H583 H 0.91843 0.5483 0.911 0.0
H584 H 0.01101 0.54242 0.99512 0.0
H585 H 0.94836 0.45726 0.9635 0.0
H586 H 0.96981 0.47816 0.94202 0.0
H587 H 0.92218 0.48333 0.95454 0.0
C588 C 0.01643 0.5417 0.91685 0.0
C589 C 0.98095 0.54845 0.90599 0.0
C590 C 0.01714 0.53017 0.94002 0.0
C591 C 0.98244 0.52494 0.95262 0.0
C592 C 0.94699 0.53165 0.94189 0.0
H593 H 0.92554 0.45344 0.09174 0.0
H594 H 0.92451 0.47378 0.05134 0.0
C595 C 0.94624 0.54331 0.91879 0.0
C596 C 0.98337 0.51292 0.97727 0.0
H597 H 0.95809 0.46195 0.00706 0.0
C598 C -0.00041 0.52479 0.99778 0.0
C599 C 0.96824 0.49 0.98061 0.0
C600 C 0.95139 0.47628 0.95901 0.0
C601 C 0.0005 0.5145 0.02172 0.0
C602 C 0.98568 0.49145 0.02506 0.0
C603 C 0.96946 0.47959 0.00449 0.0
C604 C 0.98658 0.47931 0.04974 0.0
C605 C 0.01638 0.52868 0.04331 0.0
C606 C 0.02187 0.4754 0.06217 0.0
C607 C 0.02253 0.46393 0.08538 0.0
C608 C 0.98794 0.45585 0.09646 0.0
C609 C 0.95271 0.45946 0.08377 0.0
C610 C 0.95206 0.47107 0.06065 0.0
H611 H 0.01589 0.54787 0.03923 0.0
H612 H -0.00039 0.52542 0.06076 0.0
H613 H 0.04699 0.52351 0.04666 0.0
H614 H 0.04899 0.48104 0.05384 0.0
H615 H 0.0502 0.46125 0.09453 0.0
H616 H 0.59572 0.43907 0.41979 0.0
H617 H 0.59661 0.45996 0.45988 0.0
H618 H 0.48815 0.49357 0.44144 0.0
H619 H 0.48725 0.47304 0.40115 0.0
H620 H 0.54256 0.52453 0.46112 0.0
H621 H 0.52841 0.44476 0.52062 0.0
H622 H 0.56834 0.44387 0.49895 0.0
H623 H 0.51945 0.44438 0.4873 0.0
C624 C 0.57203 0.4509 0.42423 0.0
C625 C 0.54129 0.45427 0.40729 0.0
C626 C 0.57249 0.46273 0.44723 0.0
C627 C 0.54213 0.47802 0.45382 0.0
C628 C 0.51178 0.48175 0.43678 0.0
H629 H 0.48522 0.53202 0.60138 0.0
H630 H 0.48647 0.5121 0.56075 0.0
C631 C 0.5113 0.46997 0.41376 0.0
C632 C 0.54204 0.49027 0.47839 0.0
H633 H 0.54069 0.48078 0.54163 0.0
C634 C 0.54213 0.51499 0.47874 0.0
C635 C 0.54098 0.47777 0.50134 0.0
C636 C 0.53893 0.45123 0.50216 0.0
C637 C 0.54158 0.52756 0.50142 0.0
C638 C 0.54156 0.51505 0.52437 0.0
C639 C 0.54107 0.49033 0.52402 0.0
C640 C 0.54112 0.52726 0.54897 0.0
C641 C 0.54022 0.55411 0.5006 0.0
C642 C 0.57169 0.54218 0.55597 0.0
C643 C 0.57104 0.55365 0.57918 0.0
C644 C 0.53991 0.55028 0.59591 0.0
C645 C 0.50959 0.53507 0.58894 0.0
C646 C 0.51026 0.52364 0.56573 0.0
H647 H 0.53049 0.56069 0.48203 0.0
H648 H 0.52044 0.56115 0.51525 0.0
H649 H 0.56971 0.56118 0.50413 0.0
H650 H 0.59618 0.54485 0.54354 0.0
H651 H 0.59498 0.56512 0.584 0.0
H652 H 0.4684 0.92816 0.57302 0.0
H653 H 0.47259 0.95076 0.53399 0.0
H654 H 0.54903 1.00048 0.56976 0.0
H655 H 0.54543 0.97793 0.60872 0.0
H656 H 0.45342 0.9981 0.52469 0.0
H657 H 0.60971 0.98124 0.50685 0.0
H658 H 0.5818 0.96443 0.52924 0.0
H659 H 0.59938 0.99325 0.53728 0.0
C660 C 0.48612 0.9439 0.5726 0.0
C661 C 0.50678 0.95114 0.59397 0.0
C662 C 0.48847 0.95679 0.55028 0.0
C663 C 0.51165 0.97706 0.54886 0.0
C664 C 0.53164 0.9846 0.57029 0.0
H665 H 0.56526 0.07994 0.43369 0.0
H666 H 0.56009 0.05691 0.47234 0.0
C667 C 0.52934 0.97175 0.59259 0.0
C668 C 0.5146 0.99048 0.52507 0.0
H669 H 0.57905 0.0095 0.48074 0.0
C670 C 0.48083 1.0005 0.51499 0.0
C671 C 0.55042 0.99359 0.51248 0.0
C672 C 0.58737 0.9824 0.52185 0.0
C673 C 0.48204 0.01398 0.49291 0.0
C674 C 0.51789 0.01716 0.48037 0.0
C675 C 0.55163 0.00707 0.49042 0.0
C676 C 0.52104 0.03094 0.45682 0.0
C677 C 0.4451 0.02516 0.48353 0.0
C678 C 0.50129 0.02375 0.43516 0.0
C679 C 0.50416 0.03687 0.41304 0.0
C680 C 0.52704 0.05737 0.41211 0.0
C681 C 0.54731 0.06429 0.43375 0.0
C682 C 0.54441 0.05115 0.45586 0.0
H683 H 0.42256 0.02608 0.49842 0.0
H684 H 0.45062 0.04323 0.4764 0.0
H685 H 0.43336 0.01448 0.46788 0.0
H686 H 0.48375 0.00794 0.43533 0.0
H687 H 0.48833 0.03095 0.39669 0.0
loop_
_geom_bond_atom_site_label_1
_geom_bond_atom_site_label_2
_geom_bond_distance
_geom_bond_site_symmetry_2
_ccdc_geom_bond_type
Zn0 O3 2.031 . S
Zn0 O5 2.049 1_455 S
Zn0 O10 2.067 . S
Zn1 O2 1.962 . S
Zn1 O4 1.976 1_455 S
Zn1 O6 1.996 1_455 S
Zn1 O9 1.943 . S
O2 Zn1 1.962 . S
O2 C7 1.254 . S
O3 Zn0 2.031 . S
O3 C7 1.269 . S
O4 Zn1 1.976 1_655 S
O4 C11 1.246 1_655 S
O5 Zn0 2.049 1_655 S
O5 C13 1.260 . S
O6 Zn1 1.996 1_655 S
O6 C13 1.257 . S
C7 O2 1.254 . S
C7 O3 1.269 . S
C8 O9 1.249 . S
C8 O10 1.270 . S
O9 Zn1 1.943 . S
O9 C8 1.249 . S
O10 Zn0 2.067 . S
O10 C8 1.270 . S
C11 O4 1.246 1_455 S
C11 O12 1.232 . S
O12 C11 1.232 . S
C13 O5 1.260 . S
C13 O6 1.257 . S
Zn14 O17 2.031 1_455 S
Zn14 O19 2.049 . S
Zn14 O24 2.067 . S
Zn15 O16 1.962 1_455 S
Zn15 O18 1.986 . S
Zn15 O20 1.996 . S
Zn15 O23 1.943 . S
O16 Zn15 1.962 1_655 S
O16 C21 1.254 . S
O17 Zn14 2.031 1_655 S
O17 C21 1.269 . S
O18 Zn15 1.986 . S
O18 C25 1.262 . S
O19 Zn14 2.049 . S
O19 C27 1.260 . S
O20 Zn15 1.996 . S
O20 C27 1.257 . S
C21 O16 1.254 . S
C21 O17 1.269 . S
C22 O23 1.249 . S
C22 O24 1.270 . S
O23 Zn15 1.943 . S
O23 C22 1.249 . S
O24 Zn14 2.067 . S
O24 C22 1.270 . S
C25 O18 1.262 . S
C25 O26 1.232 1_455 S
O26 C25 1.232 1_655 S
C27 O19 1.260 . S
C27 O20 1.257 . S
Zn28 O31 2.031 . S
Zn28 O33 2.049 1_455 S
Zn28 O38 2.067 . S
Zn29 O30 1.962 . S
Zn29 O32 1.976 1_455 S
Zn29 O34 1.996 1_455 S
Zn29 O37 1.943 . S
O30 Zn29 1.962 . S
O30 C35 1.254 . S
O31 Zn28 2.031 . S
O31 C35 1.269 . S
O32 Zn29 1.976 1_655 S
O32 C39 1.246 1_655 S
O33 Zn28 2.049 1_655 S
O33 C41 1.260 . S
O34 Zn29 1.996 1_655 S
O34 C41 1.257 . S
C35 O30 1.254 . S
C35 O31 1.269 . S
C36 O37 1.249 . S
C36 O38 1.270 . S
O37 Zn29 1.943 . S
O37 C36 1.249 . S
O38 Zn28 2.067 . S
O38 C36 1.270 . S
C39 O32 1.246 1_455 S
C39 O40 1.232 . S
O40 C39 1.232 . S
C41 O33 1.260 . S
C41 O34 1.257 . S
Zn42 O45 2.031 1_455 S
Zn42 O47 2.049 . S
Zn42 O52 2.067 . S
Zn43 O44 1.962 1_455 S
Zn43 O46 1.986 . S
Zn43 O48 1.996 . S
Zn43 O51 1.943 . S
O44 Zn43 1.962 1_655 S
O44 C49 1.254 . S
O45 Zn42 2.031 1_655 S
O45 C49 1.269 . S
O46 Zn43 1.986 . S
O46 C53 1.262 . S
O47 Zn42 2.049 . S
O47 C55 1.260 . S
O48 Zn43 1.996 . S
O48 C55 1.257 . S
C49 O44 1.254 . S
C49 O45 1.269 . S
C50 O51 1.249 . S
C50 O52 1.270 . S
O51 Zn43 1.943 . S
O51 C50 1.249 . S
O52 Zn42 2.067 . S
O52 C50 1.270 . S
C53 O46 1.262 . S
C53 O54 1.232 1_455 S
O54 C53 1.232 1_655 S
C55 O47 1.260 . S
C55 O48 1.257 . S
Zn56 O59 2.031 . S
Zn56 O61 2.049 . S
Zn56 O66 2.067 . S
Zn57 O58 1.962 . S
Zn57 O60 1.986 . S
Zn57 O62 1.996 . S
Zn57 O65 1.943 . S
O58 Zn57 1.962 . S
O58 C63 1.254 . S
O59 Zn56 2.031 . S
O59 C63 1.269 . S
O60 Zn57 1.986 . S
O60 C67 1.262 . S
O61 Zn56 2.049 . S
O61 C69 1.260 . S
O62 Zn57 1.996 . S
O62 C69 1.257 . S
C63 O58 1.254 . S
C63 O59 1.269 . S
C64 O65 1.249 . S
C64 O66 1.270 . S
O65 Zn57 1.943 . S
O65 C64 1.249 . S
O66 Zn56 2.067 . S
O66 C64 1.270 . S
C67 O60 1.262 . S
C67 O68 1.232 . S
O68 C67 1.232 . S
C69 O61 1.260 . S
C69 O62 1.257 . S
Zn70 O73 2.031 . S
Zn70 O75 2.049 . S
Zn70 O80 2.067 . S
Zn71 O72 1.962 . S
Zn71 O74 1.986 . S
Zn71 O76 1.996 . S
Zn71 O79 1.943 . S
O72 Zn71 1.962 . S
O72 C77 1.254 . S
O73 Zn70 2.031 . S
O73 C77 1.269 . S
O74 Zn71 1.986 . S
O74 C81 1.262 . S
O75 Zn70 2.049 . S
O75 C83 1.260 . S
O76 Zn71 1.996 . S
O76 C83 1.257 . S
C77 O72 1.254 . S
C77 O73 1.269 . S
C78 O79 1.249 . S
C78 O80 1.270 . S
O79 Zn71 1.943 . S
O79 C78 1.249 . S
O80 Zn70 2.067 . S
O80 C78 1.270 . S
C81 O74 1.262 . S
C81 O82 1.232 . S
O82 C81 1.232 . S
C83 O75 1.260 . S
C83 O76 1.257 . S
Zn84 O87 2.031 . S
Zn84 O89 2.049 . S
Zn84 O94 2.067 . S
Zn85 O86 1.962 . S
Zn85 O88 1.986 . S
Zn85 O90 1.996 . S
Zn85 O93 1.943 . S
O86 Zn85 1.962 . S
O86 C91 1.254 . S
O87 Zn84 2.031 . S
O87 C91 1.269 . S
O88 Zn85 1.986 . S
O88 C95 1.262 . S
O89 Zn84 2.049 . S
O89 C97 1.260 . S
O90 Zn85 1.996 . S
O90 C97 1.257 . S
C91 O86 1.254 . S
C91 O87 1.269 . S
C92 O93 1.249 . S
C92 O94 1.270 . S
O93 Zn85 1.943 . S
O93 C92 1.249 . S
O94 Zn84 2.067 . S
O94 C92 1.270 . S
C95 O88 1.262 . S
C95 O96 1.232 . S
O96 C95 1.232 . S
C97 O89 1.260 . S
C97 O90 1.257 . S
Zn98 O101 2.031 . S
Zn98 O103 2.049 . S
Zn98 O108 2.067 . S
Zn99 O100 1.962 . S
Zn99 O102 1.986 . S
Zn99 O104 1.996 . S
Zn99 O107 1.943 . S
O100 Zn99 1.962 . S
O100 C105 1.254 . S
O101 Zn98 2.031 . S
O101 C105 1.269 . S
O102 Zn99 1.986 . S
O102 C109 1.262 . S
O103 Zn98 2.049 . S
O103 C111 1.260 . S
O104 Zn99 1.996 . S
O104 C111 1.257 . S
C105 O100 1.254 . S
C105 O101 1.269 . S
C106 O107 1.249 . S
C106 O108 1.270 . S
O107 Zn99 1.943 . S
O107 C106 1.249 . S
O108 Zn98 2.067 . S
O108 C106 1.270 . S
C109 O102 1.262 . S
C109 O110 1.232 . S
O110 C109 1.232 . S
C111 O103 1.260 . S
C111 O104 1.257 . S
H112 C120 0.929 . S
H113 C122 0.930 . S
H114 C124 0.930 . S
H115 C127 0.929 . S
H116 C130 0.930 . S
H117 C132 0.960 . S
H118 C132 0.960 1_655 S
H119 C132 0.960 . S
C120 H112 0.929 . S
C120 C121 1.377 1_655 S
C120 C122 1.384 . S
C121 C120 1.377 1_455 S
C121 C127 1.390 . S
C122 H113 0.930 . S
C122 C120 1.384 . S
C122 C123 1.372 1_655 S
C123 C122 1.372 1_455 S
C123 C124 1.400 . S
C123 C128 1.490 . S
C124 H114 0.930 . S
C124 C123 1.400 . S
C124 C127 1.386 . S
H125 C141 0.930 . S
H126 C142 0.931 . S
C127 H115 0.929 . S
C127 C121 1.390 . S
C127 C124 1.386 . S
C128 C123 1.490 . S
C128 C130 1.395 . S
C128 C131 1.403 . S
H129 C135 0.930 . S
C130 H116 0.930 . S
C130 C128 1.395 . S
C130 C133 1.403 . S
C131 C128 1.403 . S
C131 C132 1.524 . S
C131 C135 1.400 . S
C132 H117 0.960 . S
C132 H118 0.960 1_455 S
C132 H119 0.960 . S
C132 C131 1.524 . S
C133 C130 1.403 . S
C133 C134 1.392 . S
C133 C137 1.495 . S
C134 C133 1.392 . S
C134 C135 1.385 . S
C134 C136 1.478 . S
C135 H129 0.930 . S
C135 C131 1.400 . S
C135 C134 1.385 . S
C136 C134 1.478 . S
C136 C138 1.368 1_455 S
C136 C142 1.383 . S
C137 C133 1.495 . S
C137 H143 0.959 . S
C137 H144 0.961 . S
C137 H145 0.960 . S
C138 C136 1.368 1_655 S
C138 C139 1.395 . S
C138 H146 0.944 . S
C139 C138 1.395 . S
C139 C140 1.383 1_655 S
C139 H147 0.929 . S
C140 C139 1.383 1_455 S
C140 C141 1.377 . S
C141 H125 0.930 . S
C141 C140 1.377 . S
C141 C142 1.379 . S
C142 H126 0.931 . S
C142 C136 1.383 . S
C142 C141 1.379 . S
H143 C137 0.959 . S
H144 C137 0.961 . S
H145 C137 0.960 . S
H146 C138 0.944 . S
H147 C139 0.929 . S
H148 C156 0.949 . S
H149 C158 0.930 . S
H150 C160 0.930 . S
H151 C163 0.929 . S
H152 C166 0.930 . S
H153 C168 0.960 . S
H154 C168 0.960 . S
H155 C168 0.960 . S
C156 H148 0.949 . S
C156 C157 1.358 1_655 S
C156 C158 1.385 . S
C157 C156 1.358 1_455 S
C157 C163 1.390 . S
C158 H149 0.930 . S
C158 C156 1.385 . S
C158 C159 1.372 1_655 S
C159 C158 1.372 1_455 S
C159 C160 1.400 . S
C159 C164 1.490 . S
C160 H150 0.930 . S
C160 C159 1.400 . S
C160 C163 1.386 . S
H161 C177 0.930 . S
H162 C178 0.931 . S
C163 H151 0.929 . S
C163 C157 1.390 . S
C163 C160 1.386 . S
C164 C159 1.490 . S
C164 C166 1.395 1_455 S
C164 C167 1.403 . S
H165 C171 0.930 . S
C166 H152 0.930 . S
C166 C164 1.395 1_655 S
C166 C169 1.403 . S
C167 C164 1.403 . S
C167 C168 1.524 . S
C167 C171 1.400 . S
C168 H153 0.960 . S
C168 H154 0.960 . S
C168 H155 0.960 . S
C168 C167 1.524 . S
C169 C166 1.403 . S
C169 C170 1.392 1_655 S
C169 C173 1.495 . S
C170 C169 1.392 1_455 S
C170 C171 1.385 . S
C170 C172 1.478 . S
C171 H165 0.930 . S
C171 C167 1.400 . S
C171 C170 1.385 . S
C172 C170 1.478 . S
C172 C174 1.381 1_455 S
C172 C178 1.383 . S
C173 C169 1.495 . S
C173 H179 0.959 . S
C173 H180 0.961 . S
C173 H181 0.960 . S
C174 C172 1.381 1_655 S
C174 C175 1.394 . S
C174 H182 0.930 . S
C175 C174 1.394 . S
C175 C176 1.383 1_655 S
C175 H183 0.929 . S
C176 C175 1.383 1_455 S
C176 C177 1.377 . S
C177 H161 0.930 . S
C177 C176 1.377 . S
C177 C178 1.379 . S
C178 H162 0.931 . S
C178 C172 1.383 . S
C178 C177 1.379 . S
H179 C173 0.959 . S
H180 C173 0.961 . S
H181 C173 0.960 . S
H182 C174 0.930 . S
H183 C175 0.929 . S
H184 C192 0.929 . S
H185 C194 0.930 . S
H186 C196 0.930 . S
H187 C199 0.929 . S
H188 C202 0.930 . S
H189 C204 0.960 . S
H190 C204 0.960 . S
H191 C204 0.960 . S
C192 H184 0.929 . S
C192 C193 1.377 . S
C192 C194 1.384 . S
C193 C192 1.377 . S
C193 C199 1.390 . S
C194 H185 0.930 . S
C194 C192 1.384 . S
C194 C195 1.372 . S
C195 C194 1.372 . S
C195 C196 1.400 . S
C195 C200 1.490 . S
C196 H186 0.930 . S
C196 C195 1.400 . S
C196 C199 1.386 . S
H197 C213 0.930 . S
H198 C214 0.931 . S
C199 H187 0.929 . S
C199 C193 1.390 . S
C199 C196 1.386 . S
C200 C195 1.490 . S
C200 C202 1.395 . S
C200 C203 1.403 . S
H201 C207 0.930 . S
C202 H188 0.930 . S
C202 C200 1.395 . S
C202 C205 1.403 . S
C203 C200 1.403 . S
C203 C204 1.524 . S
C203 C207 1.400 . S
C204 H189 0.960 . S
C204 H190 0.960 . S
C204 H191 0.960 . S
C204 C203 1.524 . S
C205 C202 1.403 . S
C205 C206 1.392 . S
C205 C209 1.495 . S
C206 C205 1.392 . S
C206 C207 1.385 . S
C206 C208 1.478 . S
C207 H201 0.930 . S
C207 C203 1.400 . S
C207 C206 1.385 . S
C208 C206 1.478 . S
C208 C210 1.381 . S
C208 C214 1.383 . S
C209 C205 1.495 . S
C209 H215 0.959 . S
C209 H216 0.961 . S
C209 H217 0.960 . S
C210 C208 1.381 . S
C210 C211 1.394 . S
C210 H218 0.930 . S
C211 C210 1.394 . S
C211 C212 1.383 . S
C211 H219 0.929 . S
C212 C211 1.383 . S
C212 C213 1.377 . S
C213 H197 0.930 . S
C213 C212 1.377 . S
C213 C214 1.379 . S
C214 H198 0.931 . S
C214 C208 1.383 . S
C214 C213 1.379 . S
H215 C209 0.959 . S
H216 C209 0.961 . S
H217 C209 0.960 . S
H218 C210 0.930 . S
H219 C211 0.929 . S
H220 C228 0.929 . S
H221 C230 0.930 . S
H222 C232 0.930 . S
H223 C235 0.929 . S
H224 C238 0.930 . S
H225 C240 0.960 . S
H226 C240 0.960 . S
H227 C240 0.960 . S
C228 H220 0.929 . S
C228 C229 1.377 . S
C228 C230 1.384 . S
C229 C228 1.377 . S
C229 C235 1.390 . S
C230 H221 0.930 . S
C230 C228 1.384 . S
C230 C231 1.372 . S
C231 C230 1.372 . S
C231 C232 1.400 . S
C231 C236 1.490 . S
C232 H222 0.930 . S
C232 C231 1.400 . S
C232 C235 1.386 . S
H233 C249 0.930 . S
H234 C250 0.931 . S
C235 H223 0.929 . S
C235 C229 1.390 . S
C235 C232 1.386 . S
C236 C231 1.490 . S
C236 C238 1.395 . S
C236 C239 1.403 . S
H237 C243 0.930 . S
C238 H224 0.930 . S
C238 C236 1.395 . S
C238 C241 1.403 . S
C239 C236 1.403 . S
C239 C240 1.524 . S
C239 C243 1.400 . S
C240 H225 0.960 . S
C240 H226 0.960 . S
C240 H227 0.960 . S
C240 C239 1.524 . S
C241 C238 1.403 . S
C241 C242 1.392 . S
C241 C245 1.495 . S
C242 C241 1.392 . S
C242 C243 1.385 . S
C242 C244 1.478 . S
C243 H237 0.930 . S
C243 C239 1.400 . S
C243 C242 1.385 . S
C244 C242 1.478 . S
C244 C246 1.381 . S
C244 C250 1.383 . S
C245 C241 1.495 . S
C245 H251 0.959 . S
C245 H252 0.961 . S
C245 H253 0.960 . S
C246 C244 1.381 . S
C246 C247 1.394 . S
C246 H254 0.930 . S
C247 C246 1.394 . S
C247 C248 1.383 . S
C247 H255 0.929 . S
C248 C247 1.383 . S
C248 C249 1.377 . S
C249 H233 0.930 . S
C249 C248 1.377 . S
C249 C250 1.379 . S
C250 H234 0.931 . S
C250 C244 1.383 . S
C250 C249 1.379 . S
H251 C245 0.959 . S
H252 C245 0.961 . S
H253 C245 0.960 . S
H254 C246 0.930 . S
H255 C247 0.929 . S
H256 C264 0.929 . S
H257 C266 0.930 . S
H258 C268 0.930 . S
H259 C271 0.929 . S
H260 C274 0.930 . S
H261 C276 0.960 . S
H262 C276 0.960 . S
H263 C276 0.960 . S
C264 H256 0.929 . S
C264 C265 1.377 . S
C264 C266 1.384 . S
C265 C264 1.377 . S
C265 C271 1.390 . S
C266 H257 0.930 . S
C266 C264 1.384 . S
C266 C267 1.372 . S
C267 C266 1.372 . S
C267 C268 1.400 . S
C267 C272 1.490 . S
C268 H258 0.930 . S
C268 C267 1.400 . S
C268 C271 1.386 . S
H269 C285 0.930 . S
H270 C286 0.931 . S
C271 H259 0.929 . S
C271 C265 1.390 . S
C271 C268 1.386 . S
C272 C267 1.490 . S
C272 C274 1.395 . S
C272 C275 1.403 . S
H273 C279 0.930 . S
C274 H260 0.930 . S
C274 C272 1.395 . S
C274 C277 1.403 . S
C275 C272 1.403 . S
C275 C276 1.524 . S
C275 C279 1.400 . S
C276 H261 0.960 . S
C276 H262 0.960 . S
C276 H263 0.960 . S
C276 C275 1.524 . S
C277 C274 1.403 . S
C277 C278 1.392 . S
C277 C281 1.495 . S
C278 C277 1.392 . S
C278 C279 1.385 . S
C278 C280 1.478 . S
C279 H273 0.930 . S
C279 C275 1.400 . S
C279 C278 1.385 . S
C280 C278 1.478 . S
C280 C282 1.381 . S
C280 C286 1.383 . S
C281 C277 1.495 . S
C281 H287 0.959 . S
C281 H288 0.961 . S
C281 H289 0.960 . S
C282 C280 1.381 . S
C282 C283 1.394 . S
C282 H290 0.930 . S
C283 C282 1.394 . S
C283 C284 1.383 . S
C283 H291 0.929 . S
C284 C283 1.383 . S
C284 C285 1.377 . S
C285 H269 0.930 . S
C285 C284 1.377 . S
C285 C286 1.379 . S
C286 H270 0.931 . S
C286 C280 1.383 . S
C286 C285 1.379 . S
H287 C281 0.959 . S
H288 C281 0.961 . S
H289 C281 0.960 . S
H290 C282 0.930 . S
H291 C283 0.929 . S
H292 C300 0.929 . S
H293 C302 0.930 . S
H294 C304 0.930 . S
H295 C307 0.929 . S
H296 C310 0.930 . S
H297 C312 0.960 . S
H298 C312 0.960 . S
H299 C312 0.960 . S
C300 H292 0.929 . S
C300 C301 1.377 . S
C300 C302 1.384 . S
C301 C300 1.377 . S
C301 C307 1.390 . S
C302 H293 0.930 . S
C302 C300 1.384 . S
C302 C303 1.372 . S
C303 C302 1.372 . S
C303 C304 1.400 . S
C303 C308 1.490 . S
C304 H294 0.930 . S
C304 C303 1.400 . S
C304 C307 1.386 . S
H305 C321 0.930 . S
H306 C322 0.931 . S
C307 H295 0.929 . S
C307 C301 1.390 . S
C307 C304 1.386 . S
C308 C303 1.490 . S
C308 C310 1.395 . S
C308 C311 1.403 . S
H309 C315 0.930 . S
C310 H296 0.930 . S
C310 C308 1.395 . S
C310 C313 1.403 . S
C311 C308 1.403 . S
C311 C312 1.524 . S
C311 C315 1.400 . S
C312 H297 0.960 . S
C312 H298 0.960 . S
C312 H299 0.960 . S
C312 C311 1.524 . S
C313 C310 1.403 . S
C313 C314 1.392 . S
C313 C317 1.495 . S
C314 C313 1.392 . S
C314 C315 1.385 . S
C314 C316 1.478 . S
C315 H309 0.930 . S
C315 C311 1.400 . S
C315 C314 1.385 . S
C316 C314 1.478 . S
C316 C318 1.381 . S
C316 C322 1.383 . S
C317 C313 1.495 . S
C317 H323 0.959 . S
C317 H324 0.961 . S
C317 H325 0.960 . S
C318 C316 1.381 . S
C318 C319 1.394 . S
C318 H326 0.930 . S
C319 C318 1.394 . S
C319 C320 1.383 . S
C319 H327 0.929 . S
C320 C319 1.383 . S
C320 C321 1.377 . S
C321 H305 0.930 . S
C321 C320 1.377 . S
C321 C322 1.379 . S
C322 H306 0.931 . S
C322 C316 1.383 . S
C322 C321 1.379 . S
H323 C317 0.959 . S
H324 C317 0.961 . S
H325 C317 0.960 . S
H326 C318 0.930 . S
H327 C319 0.929 . S
H328 C336 0.929 . S
H329 C338 0.930 . S
H330 C340 0.930 . S
H331 C343 0.929 . S
H332 C346 0.930 . S
H333 C348 0.960 . S
H334 C348 0.960 . S
H335 C348 0.960 . S
C336 H328 0.929 . S
C336 C337 1.377 . S
C336 C338 1.384 . S
C337 C336 1.377 . S
C337 C343 1.390 . S
C338 H329 0.930 . S
C338 C336 1.384 . S
C338 C339 1.372 . S
C339 C338 1.372 . S
C339 C340 1.400 . S
C339 C344 1.490 . S
C340 H330 0.930 . S
C340 C339 1.400 . S
C340 C343 1.386 . S
H341 C357 0.930 . S
H342 C358 0.931 . S
C343 H331 0.929 . S
C343 C337 1.390 . S
C343 C340 1.386 . S
C344 C339 1.490 . S
C344 C346 1.395 . S
C344 C347 1.403 . S
H345 C351 0.930 . S
C346 H332 0.930 . S
C346 C344 1.395 . S
C346 C349 1.403 . S
C347 C344 1.403 . S
C347 C348 1.524 . S
C347 C351 1.400 . S
C348 H333 0.960 . S
C348 H334 0.960 . S
C348 H335 0.960 . S
C348 C347 1.524 . S
C349 C346 1.403 . S
C349 C350 1.392 . S
C349 C353 1.495 . S
C350 C349 1.392 . S
C350 C351 1.385 . S
C350 C352 1.478 . S
C351 H345 0.930 . S
C351 C347 1.400 . S
C351 C350 1.385 . S
C352 C350 1.478 . S
C352 C354 1.381 . S
C352 C358 1.383 . S
C353 C349 1.495 . S
C353 H359 0.959 . S
C353 H360 0.961 . S
C353 H361 0.960 . S
C354 C352 1.381 . S
C354 C355 1.394 . S
C354 H362 0.930 . S
C355 C354 1.394 . S
C355 C356 1.383 . S
C355 H363 0.929 . S
C356 C355 1.383 . S
C356 C357 1.377 . S
C357 H341 0.930 . S
C357 C356 1.377 . S
C357 C358 1.379 . S
C358 H342 0.931 . S
C358 C352 1.383 . S
C358 C357 1.379 . S
H359 C353 0.959 . S
H360 C353 0.961 . S
H361 C353 0.960 . S
H362 C354 0.930 . S
H363 C355 0.929 . S
H364 C372 0.929 . S
H365 C374 0.930 . S
H366 C376 0.930 . S
H367 C379 0.929 . S
H368 C382 0.930 . S
H369 C384 0.960 . S
H370 C384 0.960 . S
H371 C384 0.960 . S
C372 H364 0.929 . S
C372 C373 1.377 . S
C372 C374 1.384 . S
C373 C372 1.377 . S
C373 C379 1.390 . S
C374 H365 0.930 . S
C374 C372 1.384 . S
C374 C375 1.372 . S
C375 C374 1.372 . S
C375 C376 1.400 . S
C375 C380 1.490 . S
C376 H366 0.930 . S
C376 C375 1.400 . S
C376 C379 1.386 . S
H377 C393 0.930 . S
H378 C394 0.931 . S
C379 H367 0.929 . S
C379 C373 1.390 . S
C379 C376 1.386 . S
C380 C375 1.490 . S
C380 C382 1.395 . S
C380 C383 1.403 . S
H381 C387 0.930 . S
C382 H368 0.930 . S
C382 C380 1.395 . S
C382 C385 1.403 . S
C383 C380 1.403 . S
C383 C384 1.524 . S
C383 C387 1.400 . S
C384 H369 0.960 . S
C384 H370 0.960 . S
C384 H371 0.960 . S
C384 C383 1.524 . S
C385 C382 1.403 . S
C385 C386 1.392 . S
C385 C389 1.495 . S
C386 C385 1.392 . S
C386 C387 1.385 . S
C386 C388 1.478 . S
C387 H381 0.930 . S
C387 C383 1.400 . S
C387 C386 1.385 . S
C388 C386 1.478 . S
C388 C390 1.381 . S
C388 C394 1.383 . S
C389 C385 1.495 . S
C389 H395 0.959 . S
C389 H396 0.961 . S
C389 H397 0.960 . S
C390 C388 1.381 . S
C390 C391 1.394 . S
C390 H398 0.930 . S
C391 C390 1.394 . S
C391 C392 1.383 . S
C391 H399 0.929 . S
C392 C391 1.383 . S
C392 C393 1.377 . S
C393 H377 0.930 . S
C393 C392 1.377 . S
C393 C394 1.379 . S
C394 H378 0.931 . S
C394 C388 1.383 . S
C394 C393 1.379 . S
H395 C389 0.959 . S
H396 C389 0.961 . S
H397 C389 0.960 . S
H398 C390 0.930 . S
H399 C391 0.929 . S
H400 C408 0.929 . S
H401 C410 0.930 . S
H402 C412 0.930 . S
H403 C415 0.929 . S
H404 C418 0.930 . S
H405 C420 0.960 . S
H406 C420 0.960 . S
H407 C420 0.960 . S
C408 H400 0.929 . S
C408 C409 1.377 . S
C408 C410 1.384 . S
C409 C408 1.377 . S
C409 C415 1.390 . S
C410 H401 0.930 . S
C410 C408 1.384 . S
C410 C411 1.372 . S
C411 C410 1.372 . S
C411 C412 1.400 . S
C411 C416 1.490 . S
C412 H402 0.930 . S
C412 C411 1.400 . S
C412 C415 1.386 . S
H413 C429 0.930 . S
H414 C430 0.931 . S
C415 H403 0.929 . S
C415 C409 1.390 . S
C415 C412 1.386 . S
C416 C411 1.490 . S
C416 C418 1.395 . S
C416 C419 1.403 . S
H417 C423 0.930 . S
C418 H404 0.930 . S
C418 C416 1.395 . S
C418 C421 1.403 . S
C419 C416 1.403 . S
C419 C420 1.524 . S
C419 C423 1.400 . S
C420 H405 0.960 . S
C420 H406 0.960 . S
C420 H407 0.960 . S
C420 C419 1.524 . S
C421 C418 1.403 . S
C421 C422 1.392 . S
C421 C425 1.495 . S
C422 C421 1.392 . S
C422 C423 1.385 . S
C422 C424 1.478 . S
C423 H417 0.930 . S
C423 C419 1.400 . S
C423 C422 1.385 . S
C424 C422 1.478 . S
C424 C426 1.381 . S
C424 C430 1.383 . S
C425 C421 1.495 . S
C425 H431 0.959 . S
C425 H432 0.961 . S
C425 H433 0.960 . S
C426 C424 1.381 . S
C426 C427 1.394 . S
C426 H434 0.930 . S
C427 C426 1.394 . S
C427 C428 1.383 . S
C427 H435 0.929 . S
C428 C427 1.383 . S
C428 C429 1.377 . S
C429 H413 0.930 . S
C429 C428 1.377 . S
C429 C430 1.379 . S
C430 H414 0.931 . S
C430 C424 1.383 . S
C430 C429 1.379 . S
H431 C425 0.959 . S
H432 C425 0.961 . S
H433 C425 0.960 . S
H434 C426 0.930 . S
H435 C427 0.929 . S
H436 C444 0.929 . S
H437 C446 0.930 . S
H438 C448 0.930 . S
H439 C451 0.929 . S
H440 C454 0.930 . S
H441 C456 0.960 . S
H442 C456 0.960 . S
H443 C456 0.960 . S
C444 H436 0.929 . S
C444 C445 1.377 . S
C444 C446 1.384 . S
C445 C444 1.377 . S
C445 C451 1.390 . S
C446 H437 0.930 . S
C446 C444 1.384 . S
C446 C447 1.372 . S
C447 C446 1.372 . S
C447 C448 1.400 . S
C447 C452 1.490 . S
C448 H438 0.930 . S
C448 C447 1.400 . S
C448 C451 1.386 . S
H449 C465 0.930 . S
H450 C466 0.931 . S
C451 H439 0.929 . S
C451 C445 1.390 . S
C451 C448 1.386 . S
C452 C447 1.490 . S
C452 C454 1.395 . S
C452 C455 1.403 . S
H453 C459 0.930 . S
C454 H440 0.930 . S
C454 C452 1.395 . S
C454 C457 1.403 . S
C455 C452 1.403 . S
C455 C456 1.524 . S
C455 C459 1.400 . S
C456 H441 0.960 . S
C456 H442 0.960 . S
C456 H443 0.960 . S
C456 C455 1.524 . S
C457 C454 1.403 . S
C457 C458 1.392 . S
C457 C461 1.495 . S
C458 C457 1.392 . S
C458 C459 1.385 . S
C458 C460 1.478 . S
C459 H453 0.930 . S
C459 C455 1.400 . S
C459 C458 1.385 . S
C460 C458 1.478 . S
C460 C462 1.381 . S
C460 C466 1.383 . S
C461 C457 1.495 . S
C461 H467 0.959 . S
C461 H468 0.961 . S
C461 H469 0.960 . S
C462 C460 1.381 . S
C462 C463 1.394 . S
C462 H470 0.930 . S
C463 C462 1.394 . S
C463 C464 1.383 . S
C463 H471 0.929 . S
C464 C463 1.383 . S
C464 C465 1.377 . S
C465 H449 0.930 . S
C465 C464 1.377 . S
C465 C466 1.379 . S
C466 H450 0.931 . S
C466 C460 1.383 . S
C466 C465 1.379 . S
H467 C461 0.959 . S
H468 C461 0.961 . S
H469 C461 0.960 . S
H470 C462 0.930 . S
H471 C463 0.929 . S
H472 C480 0.929 . S
H473 C482 0.930 . S
H474 C484 0.930 . S
H475 C487 0.929 . S
H476 C490 0.930 . S
H477 C492 0.960 . S
H478 C492 0.960 . S
H479 C492 0.960 . S
C480 H472 0.929 . S
C480 C481 1.377 . S
C480 C482 1.384 . S
C481 C480 1.377 . S
C481 C487 1.390 . S
C482 H473 0.930 . S
C482 C480 1.384 . S
C482 C483 1.372 . S
C483 C482 1.372 . S
C483 C484 1.400 . S
C483 C488 1.490 . S
C484 H474 0.930 . S
C484 C483 1.400 . S
C484 C487 1.386 . S
H485 C501 0.930 . S
H486 C502 0.931 . S
C487 H475 0.929 . S
C487 C481 1.390 . S
C487 C484 1.386 . S
C488 C483 1.490 . S
C488 C490 1.395 . S
C488 C491 1.403 . S
H489 C495 0.930 . S
C490 H476 0.930 . S
C490 C488 1.395 . S
C490 C493 1.403 . S
C491 C488 1.403 . S
C491 C492 1.524 . S
C491 C495 1.400 . S
C492 H477 0.960 . S
C492 H478 0.960 . S
C492 H479 0.960 . S
C492 C491 1.524 . S
C493 C490 1.403 . S
C493 C494 1.392 . S
C493 C497 1.495 . S
C494 C493 1.392 . S
C494 C495 1.385 . S
C494 C496 1.478 . S
C495 H489 0.930 . S
C495 C491 1.400 . S
C495 C494 1.385 . S
C496 C494 1.478 . S
C496 C498 1.381 . S
C496 C502 1.383 . S
C497 C493 1.495 . S
C497 H503 0.959 . S
C497 H504 0.961 . S
C497 H505 0.960 . S
C498 C496 1.381 . S
C498 C499 1.394 . S
C498 H506 0.930 . S
C499 C498 1.394 . S
C499 C500 1.383 . S
C499 H507 0.929 . S
C500 C499 1.383 . S
C500 C501 1.377 . S
C501 H485 0.930 . S
C501 C500 1.377 . S
C501 C502 1.379 . S
C502 H486 0.931 . S
C502 C496 1.383 . S
C502 C501 1.379 . S
H503 C497 0.959 . S
H504 C497 0.961 . S
H505 C497 0.960 . S
H506 C498 0.930 . S
H507 C499 0.929 . S
H508 C516 0.929 . S
H509 C518 0.930 . S
H510 C520 0.930 . S
H511 C523 0.929 . S
H512 C526 0.930 . S
H513 C528 0.960 . S
H514 C528 0.960 . S
H515 C528 0.960 . S
C516 H508 0.929 . S
C516 C517 1.377 . S
C516 C518 1.384 . S
C517 C516 1.377 . S
C517 C523 1.390 . S
C518 H509 0.930 . S
C518 C516 1.384 . S
C518 C519 1.372 . S
C519 C518 1.372 . S
C519 C520 1.400 . S
C519 C524 1.490 . S
C520 H510 0.930 . S
C520 C519 1.400 . S
C520 C523 1.386 . S
H521 C537 0.930 . S
H522 C538 0.931 . S
C523 H511 0.929 . S
C523 C517 1.390 . S
C523 C520 1.386 . S
C524 C519 1.490 . S
C524 C526 1.395 . S
C524 C527 1.403 . S
H525 C531 0.930 . S
C526 H512 0.930 . S
C526 C524 1.395 . S
C526 C529 1.403 . S
C527 C524 1.403 . S
C527 C528 1.524 . S
C527 C531 1.400 . S
C528 H513 0.960 . S
C528 H514 0.960 . S
C528 H515 0.960 . S
C528 C527 1.524 . S
C529 C526 1.403 . S
C529 C530 1.392 . S
C529 C533 1.495 . S
C530 C529 1.392 . S
C530 C531 1.385 . S
C530 C532 1.478 . S
C531 H525 0.930 . S
C531 C527 1.400 . S
C531 C530 1.385 . S
C532 C530 1.478 . S
C532 C534 1.381 . S
C532 C538 1.383 . S
C533 C529 1.495 . S
C533 H539 0.959 . S
C533 H540 0.961 . S
C533 H541 0.960 . S
C534 C532 1.381 . S
C534 C535 1.394 . S
C534 H542 0.930 . S
C535 C534 1.394 . S
C535 C536 1.383 . S
C535 H543 0.929 . S
C536 C535 1.383 . S
C536 C537 1.377 . S
C537 H521 0.930 . S
C537 C536 1.377 . S
C537 C538 1.379 . S
C538 H522 0.931 . S
C538 C532 1.383 . S
C538 C537 1.379 . S
H539 C533 0.959 . S
H540 C533 0.961 . S
H541 C533 0.960 . S
H542 C534 0.930 . S
H543 C535 0.929 . S
H544 C552 0.929 . S
H545 C554 0.930 . S
H546 C556 0.930 1_665 S
H547 C559 0.929 1_655 S
H548 C562 0.930 . S
H549 C564 0.960 . S
H550 C564 0.960 . S
H551 C564 0.960 . S
C552 H544 0.929 . S
C552 C553 1.377 . S
C552 C554 1.384 . S
C553 C552 1.377 . S
C553 C559 1.390 . S
C554 H545 0.930 . S
C554 C552 1.384 . S
C554 C555 1.372 . S
C555 C554 1.372 . S
C555 C556 1.400 . S
C555 C560 1.490 . S
C556 H546 0.930 1_445 S
C556 C555 1.400 . S
C556 C559 1.386 . S
H557 C573 0.930 . S
H558 C574 0.931 . S
C559 H547 0.929 1_455 S
C559 C553 1.390 . S
C559 C556 1.386 . S
C560 C555 1.490 . S
C560 C562 1.395 . S
C560 C563 1.403 1_455 S
H561 C567 0.930 . S
C562 H548 0.930 . S
C562 C560 1.395 . S
C562 C565 1.403 1_544 S
C563 C560 1.403 1_655 S
C563 C564 1.524 . S
C563 C567 1.400 1_544 S
C564 H549 0.960 . S
C564 H550 0.960 . S
C564 H551 0.960 . S
C564 C563 1.524 . S
C565 C562 1.403 1_566 S
C565 C566 1.392 . S
C565 C569 1.495 . S
C566 C565 1.392 . S
C566 C567 1.385 1_455 S
C566 C568 1.478 . S
C567 H561 0.930 . S
C567 C563 1.400 1_566 S
C567 C566 1.385 1_655 S
C568 C566 1.478 . S
C568 C570 1.381 . S
C568 C574 1.383 . S
C569 C565 1.495 . S
C569 H575 0.959 . S
C569 H576 0.961 . S
C569 H577 0.974 . S
C570 C568 1.381 . S
C570 C571 1.394 . S
C570 H578 0.930 1_565 S
C571 C570 1.394 . S
C571 C572 1.383 . S
C571 H579 0.929 . S
C572 C571 1.383 . S
C572 C573 1.377 . S
C573 H557 0.930 . S
C573 C572 1.377 . S
C573 C574 1.379 . S
C574 H558 0.931 . S
C574 C568 1.383 . S
C574 C573 1.379 . S
H575 C569 0.959 . S
H576 C569 0.961 . S
H577 C569 0.974 . S
H578 C570 0.930 1_545 S
H579 C571 0.929 . S
H580 C588 0.929 . S
H581 C590 0.930 . S
H582 C592 0.930 . S
H583 C595 0.929 . S
H584 C598 0.930 . S
H585 C600 0.960 . S
H586 C600 0.960 1_455 S
H587 C600 0.960 . S
C588 H580 0.929 . S
C588 C589 1.377 . S
C588 C590 1.384 . S
C589 C588 1.377 . S
C589 C595 1.390 1_455 S
C590 H581 0.930 . S
C590 C588 1.384 . S
C590 C591 1.372 . S
C591 C590 1.372 . S
C591 C592 1.400 1_455 S
C591 C596 1.490 . S
C592 H582 0.930 . S
C592 C591 1.400 1_655 S
C592 C595 1.386 . S
H593 C609 0.930 . S
H594 C610 0.923 1_655 S
C595 H583 0.929 . S
C595 C589 1.390 1_655 S
C595 C592 1.386 . S
C596 C591 1.490 . S
C596 C598 1.395 . S
C596 C599 1.403 . S
H597 C603 0.930 . S
C598 H584 0.930 . S
C598 C596 1.395 . S
C598 C601 1.403 1_556 S
C599 C596 1.403 . S
C599 C600 1.524 1_455 S
C599 C603 1.400 1_556 S
C600 H585 0.960 . S
C600 H586 0.960 1_655 S
C600 H587 0.960 . S
C600 C599 1.524 1_655 S
C601 C598 1.403 1_554 S
C601 C602 1.392 . S
C601 C605 1.495 . S
C602 C601 1.392 . S
C602 C603 1.385 . S
C602 C604 1.478 . S
C603 H597 0.930 . S
C603 C599 1.400 1_554 S
C603 C602 1.385 . S
C604 C602 1.478 . S
C604 C606 1.381 . S
C604 C610 1.391 . S
C605 C601 1.495 . S
C605 H611 0.959 . S
C605 H612 0.961 . S
C605 H613 0.960 . S
C606 C604 1.381 . S
C606 C607 1.394 . S
C606 H614 0.930 . S
C607 C606 1.394 . S
C607 C608 1.383 . S
C607 H615 0.929 . S
C608 C607 1.383 . S
C608 C609 1.377 1_455 S
C609 H593 0.930 . S
C609 C608 1.377 1_655 S
C609 C610 1.379 1_655 S
C610 H594 0.923 1_455 S
C610 C604 1.391 . S
C610 C609 1.379 1_455 S
H611 C605 0.959 . S
H612 C605 0.961 . S
H613 C605 0.960 . S
H614 C606 0.930 . S
H615 C607 0.929 . S
H616 C624 0.929 . S
H617 C626 0.930 . S
H618 C628 0.930 . S
H619 C631 0.929 . S
H620 C634 0.930 . S
H621 C636 0.960 . S
H622 C636 0.960 . S
H623 C636 0.960 . S
C624 H616 0.929 . S
C624 C625 1.377 . S
C624 C626 1.384 . S
C625 C624 1.377 . S
C625 C631 1.390 . S
C626 H617 0.930 . S
C626 C624 1.384 . S
C626 C627 1.372 . S
C627 C626 1.372 . S
C627 C628 1.400 . S
C627 C632 1.490 . S
C628 H618 0.930 . S
C628 C627 1.400 . S
C628 C631 1.386 . S
H629 C645 0.930 . S
H630 C646 0.931 . S
C631 H619 0.929 . S
C631 C625 1.390 . S
C631 C628 1.386 . S
C632 C627 1.490 . S
C632 C634 1.395 . S
C632 C635 1.403 . S
H633 C639 0.930 . S
C634 H620 0.930 . S
C634 C632 1.395 . S
C634 C637 1.403 . S
C635 C632 1.403 . S
C635 C636 1.524 . S
C635 C639 1.400 . S
C636 H621 0.960 . S
C636 H622 0.960 . S
C636 H623 0.960 . S
C636 C635 1.524 . S
C637 C634 1.403 . S
C637 C638 1.392 . S
C637 C641 1.495 . S
C638 C637 1.392 . S
C638 C639 1.385 . S
C638 C640 1.478 . S
C639 H633 0.930 . S
C639 C635 1.400 . S
C639 C638 1.385 . S
C640 C638 1.478 . S
C640 C642 1.381 . S
C640 C646 1.383 . S
C641 C637 1.495 . S
C641 H647 0.959 . S
C641 H648 0.961 . S
C641 H649 0.960 . S
C642 C640 1.381 . S
C642 C643 1.394 . S
C642 H650 0.930 . S
C643 C642 1.394 . S
C643 C644 1.383 . S
C643 H651 0.929 . S
C644 C643 1.383 . S
C644 C645 1.377 . S
C645 H629 0.930 . S
C645 C644 1.377 . S
C645 C646 1.379 . S
C646 H630 0.931 . S
C646 C640 1.383 . S
C646 C645 1.379 . S
H647 C641 0.959 . S
H648 C641 0.961 . S
H649 C641 0.960 . S
H650 C642 0.930 . S
H651 C643 0.929 . S
H652 C660 0.929 . S
H653 C662 0.930 . S
H654 C664 0.930 1_545 S
H655 C667 0.929 . S
H656 C670 0.930 . S
H657 C672 0.951 1_545 S
H658 C672 0.977 . S
H659 C672 0.953 1_545 S
C660 H652 0.929 . S
C660 C661 1.377 . S
C660 C662 1.384 . S
C661 C660 1.377 . S
C661 C667 1.390 . S
C662 H653 0.930 . S
C662 C660 1.384 . S
C662 C663 1.372 . S
C663 C662 1.372 . S
C663 C664 1.400 . S
C663 C668 1.490 . S
C664 H654 0.930 1_565 S
C664 C663 1.400 . S
C664 C667 1.386 . S
H665 C681 0.930 . S
H666 C682 0.931 . S
C667 H655 0.929 . S
C667 C661 1.390 . S
C667 C664 1.386 . S
C668 C663 1.490 . S
C668 C670 1.395 . S
C668 C671 1.427 . S
H669 C675 0.930 . S
C670 H656 0.930 . S
C670 C668 1.395 . S
C670 C673 1.403 . S
C671 C668 1.427 . S
C671 C672 1.523 . S
C671 C675 1.378 1_565 S
C672 H657 0.951 1_565 S
C672 H658 0.977 . S
C672 H659 0.953 1_565 S
C672 C671 1.523 . S
C673 C670 1.403 . S
C673 C674 1.392 1_565 S
C673 C677 1.495 . S
C674 C673 1.392 1_545 S
C674 C675 1.385 . S
C674 C676 1.478 . S
C675 H669 0.930 . S
C675 C671 1.378 1_545 S
C675 C674 1.385 . S
C676 C674 1.478 . S
C676 C678 1.381 . S
C676 C682 1.383 . S
C677 C673 1.495 . S
C677 H683 0.959 . S
C677 H684 0.961 1_565 S
C677 H685 0.960 . S
C678 C676 1.381 . S
C678 C679 1.394 . S
C678 H686 0.930 1_545 S
C679 C678 1.394 . S
C679 C680 1.383 . S
C679 H687 0.929 . S
C680 C679 1.383 . S
C680 C681 1.377 . S
C681 H665 0.930 . S
C681 C680 1.377 . S
C681 C682 1.379 . S
C682 H666 0.931 . S
C682 C676 1.383 . S
C682 C681 1.379 . S
H683 C677 0.959 . S
H684 C677 0.961 1_545 S
H685 C677 0.960 . S
H686 C678 0.930 1_565 S
H687 C679 0.929 . S
C121 C22 1.414 . S
C140 C8 1.434 . S
C157 C36 1.416 . S
C176 C50 1.412 . S
C193 C64 1.413 . S
C212 C78 1.433 . S
C229 C92 1.415 . S
C248 C106 1.436 . S
C265 C105 1.499 . S
C284 C7 1.510 . S
C301 C91 1.500 . S
C320 C21 1.505 . S
C337 C35 1.501 . S
C356 C77 1.501 . S
C373 C63 1.503 . S
C392 C49 1.485 . S
C409 C83 1.161 . S
C428 C41 1.121 . S
C445 C69 1.163 . S
C464 C55 1.146 . S
C481 C111 1.160 . S
C500 C13 1.126 . S
C517 C27 1.177 . S
C536 C97 1.197 . S
C553 C11 1.318 . S
C572 C39 1.304 . S
C589 C53 1.318 . S
C608 C25 1.319 . S
C625 C95 1.315 . S
C644 C67 1.313 . S
C661 C81 1.318 . S
C680 C109 1.304 . S
