# Generated by pormake.
# Topology cag, (4)-cn, num edge types: 1
# Building blocks:
#     Node 0, Type 0, BuildingBlock: TATPOV_clean_sbu_0, # of connection points: 4
#     Node 1, Type 0, BuildingBlock: TATPOV_clean_sbu_0, # of connection points: 4
#     Node 2, Type 0, BuildingBlock: TATPOV_clean_sbu_0, # of connection points: 4
#     Node 3, Type 0, BuildingBlock: TATPOV_clean_sbu_0, # of connection points: 4
#     Node 4, Type 0, BuildingBlock: TATPOV_clean_sbu_0, # of connection points: 4
#     Node 5, Type 0, BuildingBlock: TATPOV_clean_sbu_0, # of connection points: 4
#     Node 6, Type 0, BuildingBlock: TATPOV_clean_sbu_0, # of connection points: 4
#     Node 7, Type 0, BuildingBlock: TATPOV_clean_sbu_0, # of connection points: 4
#     Node 8, Type 0, BuildingBlock: TATPOV_clean_sbu_0, # of connection points: 4
#     Node 9, Type 0, BuildingBlock: TATPOV_clean_sbu_0, # of connection points: 4
#     Node 10, Type 0, BuildingBlock: TATPOV_clean_sbu_0, # of connection points: 4
#     Node 11, Type 0, BuildingBlock: TATPOV_clean_sbu_0, # of connection points: 4
#     Node 12, Type 0, BuildingBlock: TATPOV_clean_sbu_0, # of connection points: 4
#     Node 13, Type 0, BuildingBlock: TATPOV_clean_sbu_0, # of connection points: 4
#     Node 14, Type 0, BuildingBlock: TATPOV_clean_sbu_0, # of connection points: 4
#     Node 15, Type 0, BuildingBlock: TATPOV_clean_sbu_0, # of connection points: 4
#     Edge 16, Type (0, 0), BuildingBlock: XIVTED_clean_linker_0, # of connection points: 2
#     Edge 17, Type (0, 0), BuildingBlock: XIVTED_clean_linker_0, # of connection points: 2
#     Edge 18, Type (0, 0), BuildingBlock: XIVTED_clean_linker_0, # of connection points: 2
#     Edge 19, Type (0, 0), BuildingBlock: XIVTED_clean_linker_0, # of connection points: 2
#     Edge 20, Type (0, 0), BuildingBlock: XIVTED_clean_linker_0, # of connection points: 2
#     Edge 21, Type (0, 0), BuildingBlock: XIVTED_clean_linker_0, # of connection points: 2
#     Edge 22, Type (0, 0), BuildingBlock: XIVTED_clean_linker_0, # of connection points: 2
#     Edge 23, Type (0, 0), BuildingBlock: XIVTED_clean_linker_0, # of connection points: 2
#     Edge 24, Type (0, 0), BuildingBlock: XIVTED_clean_linker_0, # of connection points: 2
#     Edge 25, Type (0, 0), BuildingBlock: XIVTED_clean_linker_0, # of connection points: 2
#     Edge 26, Type (0, 0), BuildingBlock: XIVTED_clean_linker_0, # of connection points: 2
#     Edge 27, Type (0, 0), BuildingBlock: XIVTED_clean_linker_0, # of connection points: 2
#     Edge 28, Type (0, 0), BuildingBlock: XIVTED_clean_linker_0, # of connection points: 2
#     Edge 29, Type (0, 0), BuildingBlock: XIVTED_clean_linker_0, # of connection points: 2
#     Edge 30, Type (0, 0), BuildingBlock: XIVTED_clean_linker_0, # of connection points: 2
#     Edge 31, Type (0, 0), BuildingBlock: XIVTED_clean_linker_0, # of connection points: 2
#     Edge 32, Type (0, 0), BuildingBlock: XIVTED_clean_linker_0, # of connection points: 2
#     Edge 33, Type (0, 0), BuildingBlock: XIVTED_clean_linker_0, # of connection points: 2
#     Edge 34, Type (0, 0), BuildingBlock: XIVTED_clean_linker_0, # of connection points: 2
#     Edge 35, Type (0, 0), BuildingBlock: XIVTED_clean_linker_0, # of connection points: 2
#     Edge 36, Type (0, 0), BuildingBlock: XIVTED_clean_linker_0, # of connection points: 2
#     Edge 37, Type (0, 0), BuildingBlock: XIVTED_clean_linker_0, # of connection points: 2
#     Edge 38, Type (0, 0), BuildingBlock: XIVTED_clean_linker_0, # of connection points: 2
#     Edge 39, Type (0, 0), BuildingBlock: XIVTED_clean_linker_0, # of connection points: 2
#     Edge 40, Type (0, 0), BuildingBlock: XIVTED_clean_linker_0, # of connection points: 2
#     Edge 41, Type (0, 0), BuildingBlock: XIVTED_clean_linker_0, # of connection points: 2
#     Edge 42, Type (0, 0), BuildingBlock: XIVTED_clean_linker_0, # of connection points: 2
#     Edge 43, Type (0, 0), BuildingBlock: XIVTED_clean_linker_0, # of connection points: 2
#     Edge 44, Type (0, 0), BuildingBlock: XIVTED_clean_linker_0, # of connection points: 2
#     Edge 45, Type (0, 0), BuildingBlock: XIVTED_clean_linker_0, # of connection points: 2
#     Edge 46, Type (0, 0), BuildingBlock: XIVTED_clean_linker_0, # of connection points: 2
#     Edge 47, Type (0, 0), BuildingBlock: XIVTED_clean_linker_0, # of connection points: 2
# Relax obj value: 0.024
# Max RMSD: 0.072
# Mean RMSD: 0.062
data_MOF--net-cag--node1-TATPOV_clean_sbu_0--edge1-XIVTED_clean_linker_0
_symmetry_space_group_name_H-M    P1
_symmetry_Int_Tables_number       1
_symmetry_cell_setting            triclinic
loop_
_symmetry_equiv_pos_as_xyz
'x, y, z'
_cell_length_a     43.407636
_cell_length_b     48.758606
_cell_length_c     43.075764
_cell_angle_alpha  90.013398
_cell_angle_beta   90.024737
_cell_angle_gamma 90.075914
loop_
_atom_site_label
_atom_site_type_symbol
_atom_site_fract_x
_atom_site_fract_y
_atom_site_fract_z
_atom_type_partial_charge
Zn0 Zn 0.30623 0.14452 0.01342 0.0
Zn1 Zn 0.27797 0.14227 0.0688 0.0
O2 O 0.32377 0.14924 0.07824 0.0
O3 O 0.34728 0.15249 0.03318 0.0
O4 O 0.26119 0.14029 0.11266 0.0
O5 O 0.27819 0.17514 1.00185 0.0
O6 O 0.25478 0.17435 0.04724 0.0
C7 C 0.34824 0.15307 0.06252 0.0
C8 C 0.27638 0.09289 0.02409 0.0
O9 O 0.26892 0.10405 0.04981 0.0
O10 O 0.29261 0.1059 0.0046 0.0
C11 C 0.26814 0.11937 0.12886 0.0
O12 O 0.2839 0.09945 0.11587 0.0
C13 C 0.25786 0.18445 0.02006 0.0
Zn14 Zn 0.18946 0.84501 0.51959 0.0
Zn15 Zn 0.21653 0.84903 0.57545 0.0
O16 O 0.16984 0.84712 0.58405 0.0
O17 O 0.14721 0.84403 0.53847 0.0
O18 O 0.23273 0.85092 0.61947 0.0
O19 O 0.21163 0.80975 0.51254 0.0
O20 O 0.23628 0.81389 0.55704 0.0
C21 C 0.14543 0.84517 0.56775 0.0
C22 C 0.22608 0.89416 0.52677 0.0
O23 O 0.23063 0.88488 0.55409 0.0
O24 O 0.20962 0.88081 0.50773 0.0
C25 C 0.22856 0.87244 0.63563 0.0
O26 O 0.21578 0.89395 0.62258 0.0
C27 C 0.23113 0.80083 0.53188 0.0
Zn28 Zn 0.30467 0.84459 0.98154 0.0
Zn29 Zn 0.27647 0.84747 0.92632 0.0
O30 O 0.32253 0.84221 0.91646 0.0
O31 O 0.34599 0.83928 0.96162 0.0
O32 O 0.25922 0.84912 0.88267 0.0
O33 O 0.27936 0.81182 0.99183 0.0
O34 O 0.25443 0.81438 0.94736 0.0
C35 C 0.34708 0.83917 0.93228 0.0
C36 C 0.27309 0.89571 0.97218 0.0
O37 O 0.2666 0.88521 0.94583 0.0
O38 O 0.28886 0.88233 0.99171 0.0
C39 C 0.26571 0.86981 0.86587 0.0
O40 O 0.28141 0.89016 0.87815 0.0
C41 C 0.25894 0.80276 0.97354 0.0
Zn42 Zn 0.1968 0.13323 0.477 0.0
Zn43 Zn 0.22113 0.13389 0.42089 0.0
O44 O 0.17425 0.13524 0.41328 0.0
O45 O 0.15419 0.12862 0.45962 0.0
O46 O 0.23661 0.13471 0.37655 0.0
O47 O 0.21435 0.1704 0.48546 0.0
O48 O 0.24019 0.16842 0.44155 0.0
C49 C 0.15088 0.13161 0.43066 0.0
C50 C 0.23517 0.08689 0.46653 0.0
O51 O 0.23619 0.09673 0.43907 0.0
O52 O 0.22122 0.09975 0.4878 0.0
C53 C 0.23209 0.11396 0.35921 0.0
O54 O 0.2194 0.0919 0.3712 0.0
C55 C 0.23392 0.18061 0.467 0.0
Zn56 Zn 0.60502 0.91574 0.85911 0.0
Zn57 Zn 0.6261 0.87372 0.89515 0.0
O58 O 0.58201 0.86283 0.88433 0.0
O59 O 0.56375 0.89637 0.85554 0.0
O60 O 0.6413 0.8411 0.91898 0.0
O61 O 0.63894 0.90789 0.82803 0.0
O62 O 0.65736 0.87644 0.85971 0.0
C63 C 0.55999 0.87351 0.86901 0.0
C64 C 0.62269 0.93083 0.92255 0.0
O65 O 0.62819 0.90536 0.92558 0.0
O66 O 0.61349 0.94031 0.89672 0.0
C67 C 0.6369 0.83653 0.9477 0.0
O68 O 0.62145 0.85433 0.96445 0.0
C69 C 0.65929 0.89026 0.83472 0.0
Zn70 Zn 0.88144 0.07099 0.35479 0.0
Zn71 Zn 0.87005 0.11719 0.38791 0.0
O72 O 0.91574 0.12127 0.37685 0.0
O73 O 0.92608 0.08272 0.35229 0.0
O74 O 0.85978 0.15202 0.41062 0.0
O75 O 0.85044 0.08267 0.32233 0.0
O76 O 0.83863 0.11767 0.35234 0.0
C77 C 0.93492 0.10544 0.36347 0.0
C78 C 0.86171 0.06109 0.41808 0.0
O79 O 0.86244 0.08713 0.41984 0.0
O80 O 0.8676 0.04919 0.39259 0.0
C81 C 0.86279 0.15581 0.43968 0.0
O82 O 0.87434 0.1362 0.45704 0.0
C83 C 0.83391 0.10344 0.32801 0.0
Zn84 Zn 0.59913 0.08059 0.16208 0.0
Zn85 Zn 0.6243 0.11982 0.12418 0.0
O86 O 0.5802 0.1333 0.12931 0.0
O87 O 0.55906 0.10213 0.15965 0.0
O88 O 0.64488 0.14766 0.09698 0.0
O89 O 0.63117 0.08996 0.19488 0.0
O90 O 0.65195 0.11965 0.1625 0.0
C91 C 0.55687 0.12395 0.14379 0.0
C92 C 0.62024 0.06035 0.10234 0.0
O93 O 0.62687 0.08547 0.09815 0.0
O94 O 0.60876 0.0525 0.12794 0.0
C95 C 0.6342 0.15671 0.07149 0.0
O96 O 0.60697 0.14851 0.06189 0.0
C97 C 0.65196 0.10733 0.18854 0.0
Zn98 Zn 0.89 0.92192 0.66349 0.0
Zn99 Zn 0.86658 0.8806 0.62704 0.0
O100 O 0.91164 0.86972 0.63161 0.0
O101 O 0.93137 0.90231 0.66102 0.0
O102 O 0.84703 0.85054 0.60211 0.0
O103 O 0.85895 0.91215 0.6972 0.0
O104 O 0.83984 0.88077 0.66585 0.0
C105 C 0.93462 0.8804 0.64548 0.0
C106 C 0.86601 0.93946 0.60341 0.0
O107 O 0.86081 0.91397 0.59995 0.0
O108 O 0.87785 0.94833 0.62842 0.0
C109 C 0.85641 0.8407 0.57647 0.0
O110 O 0.88213 0.84986 0.56416 0.0
C111 C 0.83917 0.8937 0.69149 0.0
Zn112 Zn 0.80072 0.63789 0.02549 0.0
Zn113 Zn 0.77301 0.63371 0.08111 0.0
O114 O 0.81843 0.64334 0.08998 0.0
O115 O 0.84143 0.64788 0.0448 0.0
O116 O 0.75544 0.63143 0.12484 0.0
O117 O 0.77069 0.66687 0.01378 0.0
O118 O 0.7478 0.66452 0.05939 0.0
C119 C 0.84253 0.64845 0.07414 0.0
C120 C 0.77443 0.58459 0.0362 0.0
O121 O 0.76656 0.59493 0.06226 0.0
O122 O 0.78943 0.59875 0.01675 0.0
C123 C 0.77209 0.62142 0.1464 0.0
O124 O 0.79927 0.61138 0.1394 0.0
C125 C 0.74991 0.67488 0.03225 0.0
Zn126 Zn 0.68967 0.34795 0.51793 0.0
Zn127 Zn 0.71695 0.35211 0.57377 0.0
O128 O 0.67189 0.3419 0.58273 0.0
O129 O 0.64936 0.33659 0.53739 0.0
O130 O 0.73367 0.35381 0.61765 0.0
O131 O 0.72095 0.32002 0.50571 0.0
O132 O 0.74319 0.32228 0.55167 0.0
C133 C 0.64805 0.33615 0.56674 0.0
C134 C 0.714 0.40189 0.53008 0.0
O135 O 0.72235 0.39126 0.55582 0.0
O136 O 0.6995 0.38768 0.51027 0.0
C137 C 0.72559 0.37335 0.63546 0.0
O138 O 0.7083 0.39309 0.62422 0.0
C139 C 0.7418 0.31231 0.52429 0.0
Zn140 Zn 0.81133 0.33838 0.97796 0.0
Zn141 Zn 0.78175 0.34418 0.9236 0.0
O142 O 0.82771 0.34014 0.91251 0.0
O143 O 0.85229 0.33505 0.95682 0.0
O144 O 0.7636 0.34741 0.8804 0.0
O145 O 0.78706 0.30446 0.98614 0.0
O146 O 0.76045 0.30999 0.94299 0.0
C147 C 0.85269 0.33662 0.92751 0.0
C148 C 0.77845 0.3896 0.97287 0.0
O149 O 0.77166 0.38061 0.94588 0.0
O150 O 0.79477 0.37527 0.99105 0.0
C151 C 0.76692 0.36947 0.86496 0.0
O152 O 0.78002 0.39071 0.87833 0.0
C153 C 0.76601 0.29663 0.96785 0.0
Zn154 Zn 0.67829 0.65328 0.48922 0.0
Zn155 Zn 0.7074 0.64861 0.43419 0.0
O156 O 0.66178 0.6564 0.42402 0.0
O157 O 0.63741 0.65973 0.46861 0.0
O158 O 0.72557 0.64457 0.39089 0.0
O159 O 0.70533 0.68529 0.49865 0.0
O160 O 0.73104 0.68103 0.4548 0.0
C161 C 0.637 0.66019 0.43925 0.0
C162 C 0.70759 0.60096 0.48124 0.0
O163 O 0.7148 0.61092 0.45482 0.0
O164 O 0.69223 0.61512 0.5004 0.0
C165 C 0.70974 0.63164 0.3707 0.0
O166 O 0.68346 0.6205 0.37907 0.0
C167 C 0.72655 0.69325 0.48063 0.0
Zn168 Zn 0.10595 0.42216 0.84471 0.0
Zn169 Zn 0.1278 0.38045 0.88122 0.0
O170 O 0.08396 0.36873 0.871 0.0
O171 O 0.06504 0.4018 0.84192 0.0
O172 O 0.14435 0.3486 0.90542 0.0
O173 O 0.14007 0.41441 0.81356 0.0
O174 O 0.15841 0.3831 0.84542 0.0
C175 C 0.06169 0.37904 0.85573 0.0
C176 C 0.12318 0.43779 0.90809 0.0
O177 O 0.12923 0.41242 0.91111 0.0
O178 O 0.11386 0.44713 0.88223 0.0
C179 C 0.14024 0.34389 0.93416 0.0
O180 O 0.12369 0.36094 0.95085 0.0
C181 C 0.16037 0.39675 0.82033 0.0
Zn182 Zn 0.39063 0.57386 0.34712 0.0
Zn183 Zn 0.36452 0.61253 0.38503 0.0
O184 O 0.40713 0.62848 0.37706 0.0
O185 O 0.42917 0.5978 0.34682 0.0
O186 O 0.34324 0.64019 0.41177 0.0
O187 O 0.35641 0.58027 0.31562 0.0
O188 O 0.33513 0.60939 0.34827 0.0
C189 C 0.43043 0.62017 0.36179 0.0
C190 C 0.37409 0.55434 0.40878 0.0
O191 O 0.36591 0.57913 0.41261 0.0
O192 O 0.38459 0.54644 0.38279 0.0
C193 C 0.35434 0.65095 0.43622 0.0
O194 O 0.38239 0.64457 0.44511 0.0
C195 C 0.33467 0.59644 0.32264 0.0
Zn196 Zn 0.0957 0.57515 0.15771 0.0
Zn197 Zn 0.12045 0.61618 0.12231 0.0
O198 O 0.07674 0.6298 0.12989 0.0
O199 O 0.05592 0.5972 0.15844 0.0
O200 O 0.14071 0.64606 0.09784 0.0
O201 O 0.12873 0.58155 0.19035 0.0
O202 O 0.14925 0.61268 0.1596 0.0
C203 C 0.05368 0.61995 0.14438 0.0
C204 C 0.11501 0.55861 0.09566 0.0
O205 O 0.12187 0.58385 0.09302 0.0
O206 O 0.10417 0.54945 0.12098 0.0
C207 C 0.13172 0.655 0.07164 0.0
O208 O 0.10655 0.64495 0.05904 0.0
C209 C 0.14985 0.59876 0.18457 0.0
Zn210 Zn 0.39653 0.4081 0.65173 0.0
Zn211 Zn 0.3705 0.36818 0.61593 0.0
O212 O 0.41388 0.35332 0.62329 0.0
O213 O 0.4355 0.3851 0.65245 0.0
O214 O 0.34902 0.339 0.59131 0.0
O215 O 0.36343 0.4027 0.68438 0.0
O216 O 0.34176 0.37246 0.65327 0.0
C217 C 0.43717 0.3625 0.638 0.0
C218 C 0.37832 0.4256 0.58968 0.0
O219 O 0.37048 0.40061 0.5867 0.0
O220 O 0.38921 0.43423 0.61523 0.0
C221 C 0.35706 0.33109 0.56439 0.0
O222 O 0.3817 0.34172 0.55139 0.0
C223 C 0.34166 0.38623 0.67838 0.0
H224 H 0.25069 0.20063 0.96039 0.0
H225 H 0.14135 0.32857 0.99583 0.0
H226 H 0.21919 0.21895 0.05318 0.0
H227 H 0.17221 0.30356 0.90484 0.0
H228 H 0.16769 0.28854 0.01817 0.0
H229 H 0.22009 0.23805 0.94059 0.0
C230 C 0.23729 0.21258 0.97672 0.0
C231 C 0.23776 0.20674 0.0086 0.0
C232 C 0.1685 0.29185 0.99333 0.0
C233 C 0.20231 0.25014 0.98581 0.0
C234 C 0.15351 0.31465 0.98056 0.0
C235 C 0.15473 0.31952 0.94842 0.0
C236 C 0.18472 0.27392 0.97374 0.0
C237 C 0.17075 0.30082 0.92974 0.0
C238 C 0.21966 0.23402 0.96531 0.0
C239 C 0.21953 0.22282 0.02844 0.0
N240 N 0.18511 0.279 0.94268 0.0
N241 N 0.20262 0.24401 0.01673 0.0
H242 H 0.29342 0.66206 0.42864 0.0
H243 H 0.28765 0.78337 0.55362 0.0
H244 H 0.37197 0.68407 0.48497 0.0
H245 H 0.21352 0.76108 0.4917 0.0
H246 H 0.31752 0.74414 0.53399 0.0
H247 H 0.26255 0.69538 0.45647 0.0
C248 C 0.30422 0.67392 0.44693 0.0
C249 C 0.33544 0.67047 0.45423 0.0
C250 C 0.29459 0.74777 0.525 0.0
C251 C 0.30003 0.70899 0.48636 0.0
C252 C 0.27752 0.77002 0.53628 0.0
C253 C 0.24826 0.77565 0.52396 0.0
C254 C 0.28207 0.73111 0.5015 0.0
C255 C 0.23618 0.75778 0.50153 0.0
C256 C 0.2865 0.69297 0.46292 0.0
C257 C 0.348 0.68622 0.47847 0.0
N258 N 0.25317 0.73649 0.49095 0.0
N259 N 0.33029 0.70502 0.49356 0.0
H260 H 0.20354 0.78338 0.95021 0.0
H261 H 0.1874 0.67539 0.08917 0.0
H262 H 0.27227 0.76787 0.02053 0.0
H263 H 0.11877 0.68213 0.01696 0.0
H264 H 0.21845 0.70943 0.06277 0.0
H265 H 0.17205 0.74603 0.97219 0.0
C266 C 0.21212 0.772 0.97 0.0
C267 C 0.2404 0.77896 0.98377 0.0
C268 C 0.19665 0.70353 0.05252 0.0
C269 C 0.20471 0.73661 0.00892 0.0
C270 C 0.17879 0.68407 0.06771 0.0
C271 C 0.15035 0.67591 0.05533 0.0
C272 C 0.18609 0.71522 0.02468 0.0
C273 C 0.14056 0.68787 0.02732 0.0
C274 C 0.19414 0.75081 0.98256 0.0
C275 C 0.25045 0.76357 0.00935 0.0
N276 N 0.15839 0.70706 0.01293 0.0
N277 N 0.23261 0.74333 0.02109 0.0
H278 H 0.30153 0.31033 0.58214 0.0
H279 H 0.2871 0.20297 0.44252 0.0
H280 H 0.36911 0.30524 0.50884 0.0
H281 H 0.21858 0.21536 0.51378 0.0
H282 H 0.31668 0.24163 0.46392 0.0
H283 H 0.27039 0.27635 0.55545 0.0
C284 C 0.30987 0.30204 0.56038 0.0
C285 C 0.33809 0.31056 0.54782 0.0
C286 C 0.29502 0.23597 0.47462 0.0
C287 C 0.30232 0.27139 0.5169 0.0
C288 C 0.27809 0.21401 0.46236 0.0
C289 C 0.2505 0.20573 0.47659 0.0
C290 C 0.28417 0.24962 0.50121 0.0
C291 C 0.23991 0.22074 0.50225 0.0
C292 C 0.29197 0.28264 0.54503 0.0
C293 C 0.34753 0.29918 0.51939 0.0
N294 N 0.25682 0.24175 0.51378 0.0
N295 N 0.32973 0.28002 0.50493 0.0
H296 H 0.73548 0.68637 0.97266 0.0
H297 H 0.63925 0.82212 0.00956 0.0
H298 H 0.71543 0.71181 0.06646 0.0
H299 H 0.66342 0.7934 0.91793 0.0
H300 H 0.66285 0.7807 0.03171 0.0
H301 H 0.70448 0.7238 0.95314 0.0
C302 C 0.72442 0.69987 0.98922 0.0
C303 C 0.72838 0.69619 0.02125 0.0
C304 C 0.66277 0.78349 0.00677 0.0
C305 C 0.69278 0.73961 0.99891 0.0
C306 C 0.64934 0.80708 0.99412 0.0
C307 C 0.6496 0.81134 0.96185 0.0
C308 C 0.67638 0.7641 0.98694 0.0
C309 C 0.66289 0.79118 0.94293 0.0
C310 C 0.70663 0.72131 0.97803 0.0
C311 C 0.71302 0.71405 0.04158 0.0
N312 N 0.67578 0.76859 0.95577 0.0
N313 N 0.69611 0.73529 0.03004 0.0
H314 H 0.8566 0.16835 0.50171 0.0
H315 H 0.75684 0.30144 0.46458 0.0
H316 H 0.84118 0.20121 0.40995 0.0
H317 H 0.77835 0.277 0.5584 0.0
H318 H 0.79072 0.26595 0.44511 0.0
H319 H 0.83137 0.20889 0.52386 0.0
C320 C 0.84824 0.18419 0.48624 0.0
C321 C 0.85068 0.18122 0.45389 0.0
C322 C 0.78831 0.26831 0.46999 0.0
C323 C 0.82182 0.22745 0.47904 0.0
C324 C 0.76881 0.28858 0.48116 0.0
C325 C 0.76447 0.29198 0.51318 0.0
C326 C 0.80346 0.25087 0.49089 0.0
C327 C 0.78099 0.27497 0.53352 0.0
C328 C 0.83384 0.20729 0.49892 0.0
C329 C 0.83953 0.20241 0.43498 0.0
N330 N 0.79955 0.25484 0.52201 0.0
N331 N 0.82543 0.22445 0.44783 0.0
H332 H 0.78391 0.2551 0.0053 0.0
H333 H 0.61736 0.18586 0.01933 0.0
H334 H 0.70633 0.28321 0.95136 0.0
H335 H 0.69436 0.17028 0.0803 0.0
H336 H 0.64995 0.21742 0.98921 0.0
H337 H 0.75217 0.21886 0.02685 0.0
C338 C 0.76014 0.25349 0.99779 0.0
C339 C 0.7476 0.27243 0.97685 0.0
C340 C 0.65961 0.20696 0.00913 0.0
C341 C 0.71076 0.231 1.00192 0.0
C342 C 0.64108 0.189 0.02632 0.0
C343 C 0.6531 0.17557 0.05252 0.0
C344 C 0.69036 0.21123 0.01812 0.0
C345 C 0.68396 0.18031 0.06048 0.0
C346 C 0.74196 0.23278 0.01019 0.0
C347 C 0.71682 0.26905 0.96757 0.0
N348 N 0.70142 0.19771 0.0434 0.0
N349 N 0.69922 0.24889 0.98052 0.0
H350 H 0.79965 0.82231 0.59315 0.0
H351 H 0.78299 0.71071 0.45777 0.0
H352 H 0.86989 0.81143 0.52328 0.0
H353 H 0.71393 0.72923 0.52676 0.0
H354 H 0.81529 0.74781 0.47918 0.0
H355 H 0.76824 0.78816 0.56739 0.0
C356 C 0.80855 0.81269 0.57234 0.0
C357 C 0.83755 0.81973 0.56045 0.0
C358 C 0.79296 0.74373 0.4894 0.0
C359 C 0.80137 0.78024 0.53051 0.0
C360 C 0.77453 0.72266 0.47716 0.0
C361 C 0.74586 0.71666 0.49069 0.0
C362 C 0.78246 0.75876 0.51519 0.0
C363 C 0.736 0.73278 0.51576 0.0
C364 C 0.79049 0.79315 0.55751 0.0
C365 C 0.84767 0.80658 0.53325 0.0
N366 N 0.75426 0.7529 0.52717 0.0
N367 N 0.82962 0.78733 0.5192 0.0
H368 H 0.25871 0.05224 0.06454 0.0
H369 H 0.25636 0.93683 0.93208 0.0
H370 H 0.27362 0.06856 0.96721 0.0
H371 H 0.27022 0.91961 0.02937 0.0
H372 H 0.2495 0.98543 0.94488 0.0
H373 H 0.25 0.00375 0.05197 0.0
C374 C 0.2597 0.04571 0.04052 0.0
C375 C 0.26734 0.06434 0.01694 0.0
C376 C 0.25366 0.97091 0.96343 0.0
C377 C 0.25729 0.00916 1.00243 0.0
C378 C 0.25743 0.94318 0.95615 0.0
C379 C 0.26432 0.92424 0.97964 0.0
C380 C 0.25652 0.97963 0.99441 0.0
C381 C 0.26542 0.9336 0.01048 0.0
C382 C 0.25483 0.01807 0.03338 0.0
C383 C 0.26827 0.0548 0.98618 0.0
N384 N 0.2618 0.96066 0.01695 0.0
N385 N 0.2635 0.02786 0.97984 0.0
H386 H 0.25005 0.93491 0.56374 0.0
H387 H 0.2461 0.04459 0.42588 0.0
H388 H 0.22964 0.91527 0.46819 0.0
H389 H 0.24961 0.06558 0.52316 0.0
H390 H 0.25361 -0.0037 0.43972 0.0
H391 H 0.26292 0.98179 0.54785 0.0
C392 C 0.24873 0.94032 0.53939 0.0
C393 C 0.23819 0.9213 0.51736 0.0
C394 C 0.25328 0.01157 0.45798 0.0
C395 C 0.25284 0.9748 0.49902 0.0
C396 C 0.24921 0.03914 0.45006 0.0
C397 C 0.24666 0.05902 0.47344 0.0
C398 C 0.2549 0.00396 0.48944 0.0
C399 C 0.25087 0.05082 0.50442 0.0
C400 C 0.25602 0.96708 0.53033 0.0
C401 C 0.23711 0.9294 0.48607 0.0
N402 N 0.25437 0.02389 0.51154 0.0
N403 N 0.24399 0.95559 0.47789 0.0
H404 H 0.62925 0.91675 0.98375 0.0
H405 H 0.63661 0.07193 0.0426 0.0
H406 H 0.62343 0.98692 0.92288 0.0
H407 H 0.61359 0.00424 0.10302 0.0
H408 H 0.64039 0.04007 0.99921 0.0
H409 H 0.63179 0.9478 0.02833 0.0
C410 C 0.62873 0.93868 0.97973 0.0
C411 C 0.62595 0.94928 0.94955 0.0
C412 C 0.63462 0.03218 0.02198 0.0
C413 C 0.62897 0.98478 1.00038 0.0
C414 C 0.63255 0.05033 0.04684 0.0
C415 C 0.62455 0.04077 0.07651 0.0
C416 C 0.62887 0.00419 0.02677 0.0
C417 C 0.61962 0.01253 0.08051 0.0
C418 C 0.63006 0.95634 0.00519 0.0
C419 C 0.62534 0.97785 0.94574 0.0
N420 N 0.62181 -0.0048 0.05587 0.0
N421 N 0.62684 0.9946 0.97087 0.0
H422 H 0.86024 0.0785 0.47858 0.0
H423 H 0.84328 0.92656 0.54609 0.0
H424 H 0.85066 0.00597 0.42182 0.0
H425 H 0.87403 -0.00462 0.60122 0.0
H426 H 0.83681 0.95709 0.50186 0.0
H427 H 0.85629 0.04985 0.52504 0.0
C428 C 0.85695 0.05661 0.47586 0.0
C429 C 0.85609 0.04456 0.44626 0.0
C430 C 0.84481 0.96555 0.52367 0.0
C431 C 0.85157 0.01177 0.49926 0.0
C432 C 0.84848 0.94814 0.54901 0.0
C433 C 0.85957 0.95836 0.57737 0.0
C434 C 0.8522 0.99345 0.52663 0.0
C435 C 0.86567 0.98657 0.57973 0.0
C436 C 0.85482 0.04029 0.50239 0.0
C437 C 0.85176 0.01611 0.44416 0.0
N438 N 0.86209 0.00313 0.55459 0.0
N439 N 0.8498 0.00068 0.4703 0.0
H440 H 0.75783 0.43203 0.93654 0.0
H441 H 0.76205 0.54143 0.07548 0.0
H442 H 0.77839 0.41077 0.0316 0.0
H443 H 0.76982 0.56244 0.97848 0.0
H444 H 0.75572 0.49305 0.06069 0.0
H445 H 0.74956 0.4796 0.95279 0.0
C446 C 0.76015 0.43726 0.96087 0.0
C447 C 0.76926 0.4175 0.98266 0.0
C448 C 0.75848 0.50837 0.0427 0.0
C449 C 0.75985 0.47177 1.00138 0.0
C450 C 0.76198 0.53592 0.05111 0.0
C451 C 0.76691 0.55587 0.02819 0.0
C452 C 0.75952 0.5009 0.01117 0.0
C453 C 0.76657 0.54766 0.99694 0.0
C454 C 0.75555 0.46441 0.97012 0.0
C455 C 0.77184 0.42544 0.01393 0.0
N456 N 0.76312 0.52082 0.98936 0.0
N457 N 0.76739 0.45199 0.02232 0.0
H458 H 0.71644 0.42601 0.47318 0.0
H459 H 0.70745 0.57733 0.53874 0.0
H460 H 0.72531 0.44417 0.57083 0.0
H461 H 0.72567 0.55937 0.44236 0.0
H462 H 0.71524 0.52901 0.55128 0.0
H463 H 0.7211 0.47476 0.46156 0.0
C464 C 0.71961 0.44028 0.4922 0.0
C465 C 0.72018 0.43106 0.52307 0.0
C466 C 0.71791 0.53567 0.52745 0.0
C467 C 0.72526 0.48703 0.50989 0.0
C468 C 0.71335 0.56325 0.52023 0.0
C469 C 0.71559 0.57236 0.48937 0.0
C470 C 0.72429 0.51693 0.50361 0.0
C471 C 0.7236 0.55324 0.46642 0.0
C472 C 0.7224 0.46812 0.48552 0.0
C473 C 0.72468 0.45043 0.54673 0.0
N474 N 0.72724 0.52635 0.47395 0.0
N475 N 0.7266 0.47759 0.53967 0.0
H476 H 0.11117 0.50245 0.09398 0.0
H477 H 0.12027 0.49393 0.9095 0.0
H478 H 0.12755 0.57304 0.03571 0.0
H479 H 0.1308 0.42321 0.9689 0.0
H480 H 0.12066 0.52336 0.95546 0.0
H481 H 0.11587 0.47292 0.04829 0.0
C482 C 0.11583 0.51173 0.07162 0.0
C483 C 0.11889 0.54025 0.06865 0.0
C484 C 0.1231 0.50141 0.95839 0.0
C485 C 0.1241 0.50666 0.01635 0.0
C486 C 0.12282 0.4846 0.93218 0.0
C487 C 0.12541 0.45607 0.93536 0.0
C488 C 0.12558 0.48957 0.98801 0.0
C489 C 0.12876 0.44511 0.96533 0.0
C490 C 0.11861 0.49487 0.04559 0.0
C491 C 0.12504 0.55116 0.03911 0.0
N492 N 0.12849 0.46186 0.99052 0.0
N493 N 0.12722 0.53436 0.01408 0.0
H494 H 0.36371 0.56687 0.46963 0.0
H495 H 0.3681 0.41203 0.52895 0.0
H496 H 0.38074 0.49832 0.4085 0.0
H497 H 0.38236 0.48169 0.58925 0.0
H498 H 0.36534 0.44312 0.48455 0.0
H499 H 0.36302 0.53548 0.51369 0.0
C500 C 0.36714 0.54518 0.46542 0.0
C501 C 0.3724 0.5352 0.43531 0.0
C502 C 0.36904 0.45156 0.50751 0.0
C503 C 0.37155 0.4992 0.48573 0.0
C504 C 0.37049 0.43387 0.53289 0.0
C505 C 0.37556 0.4443 0.56286 0.0
C506 C 0.3723 0.47988 0.51217 0.0
C507 C 0.37858 0.47276 0.56655 0.0
C508 C 0.36686 0.52732 0.49063 0.0
C509 C 0.37675 0.5069 0.43133 0.0
N510 N 0.37683 0.48958 0.54148 0.0
N511 N 0.37618 0.48985 0.45629 0.0
H512 H 0.50306 0.11303 0.17467 0.0
H513 H 0.4022 0.1721 0.038 0.0
H514 H 0.54067 0.16263 0.10076 0.0
H515 H 0.36248 0.14152 0.1231 0.0
H516 H 0.4528 0.17221 0.06264 0.0
H517 H 0.45128 0.12683 0.159 0.0
C518 C 0.50047 0.12721 0.15549 0.0
C519 C 0.52622 0.13633 0.13868 0.0
C520 C 0.43298 0.16584 0.0761 0.0
C521 C 0.46702 0.15187 0.12036 0.0
C522 C 0.40409 0.16567 0.06199 0.0
C523 C 0.37817 0.15643 0.07839 0.0
C524 C 0.43609 0.15626 0.10669 0.0
C525 C 0.3819 0.14863 0.10953 0.0
C526 C 0.47088 0.13509 0.14656 0.0
C527 C 0.52148 0.15487 0.11422 0.0
N528 N 0.41044 0.1483 0.12253 0.0
N529 N 0.49242 0.16164 0.10544 0.0
H530 H 0.98857 0.89505 0.67432 0.0
H531 H 0.09087 0.8283 0.5428 0.0
H532 H 0.95194 0.84053 0.60438 0.0
H533 H 0.13034 0.86173 0.62669 0.0
H534 H 0.03983 0.83153 0.56608 0.0
H535 H 0.04069 0.88172 0.65907 0.0
C536 C 0.99145 0.87997 0.65609 0.0
C537 C 0.96583 0.86916 0.64033 0.0
C538 C 0.05965 0.83789 0.57957 0.0
C539 C 0.02538 0.85413 0.62254 0.0
C540 C 0.0888 0.83618 0.56622 0.0
C541 C 0.11484 0.84502 0.58273 0.0
C542 C 0.05639 0.84894 0.60948 0.0
C543 C 0.11083 0.85478 0.61312 0.0
C544 C 0.02122 0.87236 0.64742 0.0
C545 C 0.97097 0.84956 0.61704 0.0
N546 N 0.08206 0.85684 0.62539 0.0
N547 N 0.00016 0.843 0.60853 0.0
H548 H 0.36262 0.8561 0.87365 0.0
H549 H 0.54174 0.82876 0.90263 0.0
H550 H 0.40019 0.8178 0.95565 0.0
H551 H 0.50745 0.8898 0.83874 0.0
H552 H 0.48892 0.81389 0.91227 0.0
H553 H 0.41465 0.85814 0.8515 0.0
C554 C 0.38171 0.84769 0.88674 0.0
C555 C 0.37724 0.83715 0.91671 0.0
C556 C 0.49303 0.83027 0.8958 0.0
C557 C 0.43644 0.83924 0.89152 0.0
C558 C 0.52318 0.83873 0.89018 0.0
C559 C 0.529 0.86096 0.87031 0.0
C560 C 0.46852 0.84404 0.8814 0.0
C561 C 0.50399 0.87287 0.85462 0.0
C562 C 0.41134 0.84894 0.87414 0.0
C563 C 0.40272 0.8265 0.93267 0.0
N564 N 0.47476 0.86449 0.8608 0.0
N565 N 0.43126 0.82797 0.91996 0.0
H566 H 0.10732 0.09472 0.4468 0.0
H567 H 0.96329 0.15536 0.37198 0.0
H568 H 0.12467 0.16165 0.38368 0.0
H569 H 0.98221 0.0691 0.35981 0.0
H570 H 0.01823 0.16293 0.38358 0.0
H571 H 0.05592 0.08919 0.42416 0.0
C572 C 0.10017 0.10832 0.42826 0.0
C573 C 0.12003 0.12866 0.41701 0.0
C574 C 0.01023 0.14252 0.3777 0.0
C575 C 0.06147 0.12276 0.39162 0.0
C576 C 0.97903 0.13816 0.37119 0.0
C577 C 0.9682 0.11155 0.36509 0.0
C578 C 0.03019 0.11999 0.37899 0.0
C579 C 0.98954 0.08995 0.36437 0.0
C580 C 0.07107 0.10504 0.41529 0.0
C581 C 0.10987 0.14568 0.39281 0.0
N582 N 0.01941 0.09454 0.372 0.0
N583 N 0.0809 0.14265 0.38111 0.0
H584 H 0.037 0.66151 0.10511 0.0
H585 H 0.85739 0.63796 0.13486 0.0
H586 H 0.00061 0.60797 0.17607 0.0
H587 H 0.89584 0.6686 0.04917 0.0
H588 H 0.90895 0.63859 0.15786 0.0
H589 H 0.98457 0.6761 0.09283 0.0
C590 C 0.01808 0.65325 0.11858 0.0
C591 C 0.02315 0.63308 0.14126 0.0
C592 C 0.90595 0.64555 0.13418 0.0
C593 C 0.96318 0.64963 0.12719 0.0
C594 C 0.87655 0.64526 0.12104 0.0
C595 C 0.87242 0.65275 0.08985 0.0
C596 C 0.93127 0.65365 0.11608 0.0
C597 C 0.89806 0.6622 0.07313 0.0
C598 C 0.98816 0.6615 0.11143 0.0
C599 C -0.00228 0.62323 0.15805 0.0
N600 N 0.92645 0.66214 0.08637 0.0
N601 N 0.96877 0.63135 0.15042 0.0
H602 H 0.63307 0.3454 0.62764 0.0
H603 H 0.45355 0.32229 0.59677 0.0
H604 H 0.59491 0.31598 0.54122 0.0
H605 H 0.49007 0.37245 0.6708 0.0
H606 H 0.50594 0.30796 0.5839 0.0
H607 H 0.58159 0.34371 0.65066 0.0
C608 C 0.61398 0.33814 0.61365 0.0
C609 C 0.61819 0.33128 0.58228 0.0
C610 C 0.5024 0.32172 0.6033 0.0
C611 C 0.55936 0.32927 0.6085 0.0
C612 C 0.47248 0.32981 0.61079 0.0
C613 C 0.46748 0.34903 0.63453 0.0
C614 C 0.5274 0.33282 0.61976 0.0
C615 C 0.49291 0.35796 0.65197 0.0
C616 C 0.58461 0.33725 0.62679 0.0
C617 C 0.59264 0.32189 0.56533 0.0
N618 N 0.52183 0.35006 0.64398 0.0
N619 N 0.56426 0.32141 0.57857 0.0
H620 H 0.00811 0.3953 0.82725 0.0
H621 H 0.90657 0.31453 0.94796 0.0
H622 H 0.04483 0.33372 0.88905 0.0
H623 H 0.8667 0.35735 0.87006 0.0
H624 H 0.95718 0.31865 0.92395 0.0
H625 H 0.9561 0.37904 0.83898 0.0
C626 C 0.0053 0.37805 0.84284 0.0
C627 C 0.03086 0.3662 0.85763 0.0
C628 C 0.93735 0.32682 0.91182 0.0
C629 C 0.97145 0.34775 0.8714 0.0
C630 C 0.90846 0.32457 0.92561 0.0
C631 C 0.88251 0.33593 0.91115 0.0
C632 C 0.94047 0.34104 0.88365 0.0
C633 C 0.8862 0.34843 0.88204 0.0
C634 C 0.97559 0.36877 0.84951 0.0
C635 C 0.02582 0.34376 0.87741 0.0
N636 N 0.91478 0.3511 0.86946 0.0
N637 N -0.00331 0.33558 0.88412 0.0
H638 H 0.58269 0.67959 0.46236 0.0
H639 H 0.48427 0.61056 0.33036 0.0
H640 H 0.62353 0.64672 0.37895 0.0
H641 H 0.44482 0.66214 0.40145 0.0
H642 H 0.53536 0.62773 0.34412 0.0
H643 H 0.53221 0.67755 0.43761 0.0
C644 C 0.58107 0.67224 0.43868 0.0
C645 C 0.60727 0.66288 0.42287 0.0
C646 C 0.51547 0.63569 0.35631 0.0
C647 C 0.54947 0.66019 0.39448 0.0
C648 C 0.48627 0.62588 0.34847 0.0
C649 C 0.46027 0.63452 0.36517 0.0
C650 C 0.51871 0.65395 0.38132 0.0
C651 C 0.46423 0.65463 0.38818 0.0
C652 C 0.55224 0.67118 0.4245 0.0
C653 C 0.60389 0.65391 0.39209 0.0
N654 N 0.49296 0.66326 0.39597 0.0
N655 N 0.5754 0.6523 0.37907 0.0
H656 H 0.26987 0.07463 0.16693 0.0
H657 H 0.24451 0.15935 0.32355 0.0
H658 H 0.25088 0.16148 0.16754 0.0
H659 H 0.2342 0.07144 0.31788 0.0
H660 H 0.25227 0.16087 0.26721 0.0
H661 H 0.26154 0.07336 0.22301 0.0
C662 C 0.26381 0.09343 0.17884 0.0
C663 C 0.26103 0.1182 0.16248 0.0
C664 C 0.24832 0.14127 0.27835 0.0
C665 C 0.25186 0.11694 0.22685 0.0
C666 C 0.2441 0.14035 0.31052 0.0
C667 C 0.23869 0.11521 0.32548 0.0
C668 C 0.24752 0.11685 0.26106 0.0
C669 C 0.23822 0.09128 0.30735 0.0
C670 C 0.25904 0.09268 0.21087 0.0
C671 C 0.2531 0.14191 0.17918 0.0
N672 N 0.24267 0.09268 0.27615 0.0
N673 N 0.24902 0.14074 0.21049 0.0
H674 H 0.24722 0.82679 0.82915 0.0
H675 H 0.23143 0.91659 0.67476 0.0
H676 H 0.26775 0.91337 0.82595 0.0
H677 H 0.24049 0.82846 0.6735 0.0
H678 H 0.23953 0.9161 0.73097 0.0
H679 H 0.23867 0.82734 0.77292 0.0
C680 C 0.24967 0.84596 0.81669 0.0
C681 C 0.25826 0.87007 0.83229 0.0
C682 C 0.23988 0.89689 0.71836 0.0
C683 C 0.24854 0.87082 0.76798 0.0
C684 C 0.23525 0.89714 0.68627 0.0
C685 C 0.23535 0.87253 0.66936 0.0
C686 C 0.24419 0.87181 0.73379 0.0
C687 C 0.2404 0.84794 0.68556 0.0
C688 C 0.24499 0.84621 0.78457 0.0
C689 C 0.26127 0.89428 0.81489 0.0
N690 N 0.24441 0.84818 0.71689 0.0
N691 N 0.25635 0.89405 0.78371 0.0
H692 H 0.71785 0.87548 0.85073 0.0
H693 H 0.78235 0.87296 0.67837 0.0
H694 H 0.66152 0.89722 0.77195 0.0
H695 H 0.83774 0.9034 0.7542 0.0
H696 H 0.73847 0.86887 0.71376 0.0
H697 H 0.76292 0.87311 0.81631 0.0
C698 C 0.71493 0.8794 0.82615 0.0
C699 C 0.68604 0.88668 0.81408 0.0
C700 C 0.76035 0.8762 0.72261 0.0
C701 C 0.73705 0.88356 0.7749 0.0
C702 C 0.78541 0.8784 0.70256 0.0
C703 C 0.81365 0.8887 0.71339 0.0
C704 C 0.76376 0.88374 0.75381 0.0
C705 C 0.81627 0.89558 0.74492 0.0
C706 C 0.74059 0.87818 0.80668 0.0
C707 C 0.68347 0.89173 0.78215 0.0
N708 N 0.7916 0.89291 0.76413 0.0
N709 N 0.70866 0.88994 0.76358 0.0
H710 H 0.78051 0.12978 0.34332 0.0
H711 H 0.65141 0.10101 0.25163 0.0
H712 H 0.82724 0.0911 0.26651 0.0
H713 H 0.71069 0.12338 0.17529 0.0
H714 H 0.69549 0.10502 0.28699 0.0
H715 H 0.73462 0.13514 0.31059 0.0
C716 C 0.78124 0.12275 0.31947 0.0
C717 C 0.80754 0.10973 0.30762 0.0
C718 C 0.69863 0.10955 0.26258 0.0
C719 C 0.75542 0.11577 0.27038 0.0
C720 C 0.67362 0.10706 0.24241 0.0
C721 C 0.67747 0.11193 0.21056 0.0
C722 C 0.72774 0.11634 0.25063 0.0
C723 C 0.70673 0.11964 0.19974 0.0
C724 C 0.75502 0.1256 0.30099 0.0
C725 C 0.80728 0.10097 0.2766 0.0
N726 N 0.73093 0.12111 0.21968 0.0
N727 N 0.7816 0.10423 0.25897 0.0
H728 H 0.76741 0.64076 0.34638 0.0
H729 H 0.7138 0.6295 0.16954 0.0
H730 H 0.67449 0.61931 0.32013 0.0
H731 H 0.80792 0.61631 0.19817 0.0
H732 H 0.69864 0.63202 0.22436 0.0
H733 H 0.78259 0.63815 0.29155 0.0
C734 C 0.75022 0.63554 0.32911 0.0
C735 C 0.71968 0.63013 0.33785 0.0
C736 C 0.72259 0.62851 0.21856 0.0
C737 C 0.73676 0.62747 0.27522 0.0
C738 C 0.73125 0.62713 0.18733 0.0
C739 C 0.76214 0.62257 0.17927 0.0
C740 C 0.74506 0.62582 0.24186 0.0
C741 C 0.78381 0.61966 0.2033 0.0
C742 C 0.75891 0.63398 0.29789 0.0
C743 C 0.69834 0.62345 0.31448 0.0
N744 N 0.7749 0.62152 0.23348 0.0
N745 N 0.70723 0.62248 0.28425 0.0
H746 H 0.74718 0.33012 0.66993 0.0
H747 H 0.76097 0.4148 0.82803 0.0
H748 H 0.72085 0.41518 0.67754 0.0
H749 H 0.75553 0.32644 0.8255 0.0
H750 H 0.75143 0.41596 0.77204 0.0
H751 H 0.75635 0.32907 0.72605 0.0
C752 C 0.74356 0.34864 0.68334 0.0
C753 C 0.73321 0.37279 0.669 0.0
C754 C 0.75217 0.39633 0.78378 0.0
C755 C 0.74365 0.37169 0.73319 0.0
C756 C 0.75762 0.39564 0.81574 0.0
C757 C 0.75899 0.37048 0.83151 0.0
C758 C 0.74855 0.37167 0.76732 0.0
C759 C 0.75449 0.34631 0.81434 0.0
C760 C 0.74859 0.34796 0.71539 0.0
C761 C 0.72874 0.3961 0.68761 0.0
N762 N 0.74971 0.34749 0.78314 0.0
N763 N 0.73407 0.395 0.7187 0.0
H764 H 0.28247 0.37231 0.66395 0.0
H765 H 0.21786 0.37894 0.83603 0.0
H766 H 0.34035 0.39622 0.74086 0.0
H767 H 0.16339 0.40514 0.75764 0.0
H768 H 0.26251 0.37401 0.8016 0.0
H769 H 0.23774 0.37289 0.69869 0.0
C770 C 0.28581 0.37733 0.68822 0.0
C771 C 0.31508 0.38433 0.6996 0.0
C772 C 0.2407 0.38072 0.79203 0.0
C773 C 0.26428 0.3847 0.73924 0.0
C774 C 0.21525 0.38341 0.81153 0.0
C775 C 0.18698 0.39257 0.79961 0.0
C776 C 0.23761 0.38656 0.76032 0.0
C777 C 0.18486 0.39822 0.76775 0.0
C778 C 0.2603 0.37782 0.70789 0.0
C779 C 0.31812 0.39086 0.73117 0.0
N780 N 0.20984 0.39495 0.7491 0.0
N781 N 0.29299 0.39077 0.75 0.0
H782 H 0.33263 0.58857 0.25978 0.0
H783 H 0.1517 0.58794 0.24687 0.0
H784 H 0.2759 0.61058 0.33817 0.0
H785 H 0.20828 0.6151 0.17043 0.0
H786 H 0.19705 0.58977 0.28086 0.0
H787 H 0.28716 0.59173 0.22609 0.0
C788 C 0.31064 0.59411 0.26985 0.0
C789 C 0.30795 0.59935 0.30174 0.0
C790 C 0.19937 0.59552 0.25668 0.0
C791 C 0.25609 0.6025 0.26363 0.0
C792 C 0.17362 0.59439 0.23731 0.0
C793 C 0.17631 0.60141 0.20586 0.0
C794 C 0.22806 0.60298 0.24426 0.0
C795 C 0.20521 0.60968 0.19461 0.0
C796 C 0.28482 0.59603 0.25065 0.0
C797 C 0.27896 0.60653 0.31365 0.0
N798 N 0.23011 0.60989 0.21372 0.0
N799 N 0.25402 0.60756 0.29463 0.0
loop_
_geom_bond_atom_site_label_1
_geom_bond_atom_site_label_2
_geom_bond_distance
_geom_bond_site_symmetry_2
_ccdc_geom_bond_type
Zn0 O3 2.031 . S
Zn0 O5 2.049 . S
Zn0 O10 2.067 . S
Zn1 O2 1.962 . S
Zn1 O4 1.986 . S
Zn1 O6 1.996 . S
Zn1 O9 1.943 . S
O2 Zn1 1.962 . S
O2 C7 1.254 . S
O3 Zn0 2.031 . S
O3 C7 1.269 . S
O4 Zn1 1.986 . S
O4 C11 1.262 . S
O5 Zn0 2.049 . S
O5 C13 1.260 . S
O6 Zn1 1.996 . S
O6 C13 1.257 . S
C7 O2 1.254 . S
C7 O3 1.269 . S
C8 O9 1.249 . S
C8 O10 1.270 . S
O9 Zn1 1.943 . S
O9 C8 1.249 . S
O10 Zn0 2.067 . S
O10 C8 1.270 . S
C11 O4 1.262 . S
C11 O12 1.232 . S
O12 C11 1.232 . S
C13 O5 1.260 . S
C13 O6 1.257 . S
Zn14 O17 2.031 . S
Zn14 O19 2.049 . S
Zn14 O24 2.067 . S
Zn15 O16 1.962 . S
Zn15 O18 1.986 . S
Zn15 O20 1.996 . S
Zn15 O23 1.943 . S
O16 Zn15 1.962 . S
O16 C21 1.254 . S
O17 Zn14 2.031 . S
O17 C21 1.269 . S
O18 Zn15 1.986 . S
O18 C25 1.262 . S
O19 Zn14 2.049 . S
O19 C27 1.260 . S
O20 Zn15 1.996 . S
O20 C27 1.257 . S
C21 O16 1.254 . S
C21 O17 1.269 . S
C22 O23 1.249 . S
C22 O24 1.270 . S
O23 Zn15 1.943 . S
O23 C22 1.249 . S
O24 Zn14 2.067 . S
O24 C22 1.270 . S
C25 O18 1.262 . S
C25 O26 1.232 . S
O26 C25 1.232 . S
C27 O19 1.260 . S
C27 O20 1.257 . S
Zn28 O31 2.031 . S
Zn28 O33 2.049 . S
Zn28 O38 2.067 . S
Zn29 O30 1.962 . S
Zn29 O32 1.986 . S
Zn29 O34 1.996 . S
Zn29 O37 1.943 . S
O30 Zn29 1.962 . S
O30 C35 1.254 . S
O31 Zn28 2.031 . S
O31 C35 1.269 . S
O32 Zn29 1.986 . S
O32 C39 1.262 . S
O33 Zn28 2.049 . S
O33 C41 1.260 . S
O34 Zn29 1.996 . S
O34 C41 1.257 . S
C35 O30 1.254 . S
C35 O31 1.269 . S
C36 O37 1.249 . S
C36 O38 1.270 . S
O37 Zn29 1.943 . S
O37 C36 1.249 . S
O38 Zn28 2.067 . S
O38 C36 1.270 . S
C39 O32 1.262 . S
C39 O40 1.232 . S
O40 C39 1.232 . S
C41 O33 1.260 . S
C41 O34 1.257 . S
Zn42 O45 2.031 . S
Zn42 O47 2.049 . S
Zn42 O52 2.067 . S
Zn43 O44 1.962 . S
Zn43 O46 1.986 . S
Zn43 O48 1.996 . S
Zn43 O51 1.943 . S
O44 Zn43 1.962 . S
O44 C49 1.254 . S
O45 Zn42 2.031 . S
O45 C49 1.269 . S
O46 Zn43 1.986 . S
O46 C53 1.262 . S
O47 Zn42 2.049 . S
O47 C55 1.260 . S
O48 Zn43 1.996 . S
O48 C55 1.257 . S
C49 O44 1.254 . S
C49 O45 1.269 . S
C50 O51 1.249 . S
C50 O52 1.270 . S
O51 Zn43 1.943 . S
O51 C50 1.249 . S
O52 Zn42 2.067 . S
O52 C50 1.270 . S
C53 O46 1.262 . S
C53 O54 1.232 . S
O54 C53 1.232 . S
C55 O47 1.260 . S
C55 O48 1.257 . S
Zn56 O59 2.031 . S
Zn56 O61 2.049 . S
Zn56 O66 2.067 . S
Zn57 O58 1.962 . S
Zn57 O60 1.986 . S
Zn57 O62 1.996 . S
Zn57 O65 1.943 . S
O58 Zn57 1.962 . S
O58 C63 1.254 . S
O59 Zn56 2.031 . S
O59 C63 1.269 . S
O60 Zn57 1.986 . S
O60 C67 1.262 . S
O61 Zn56 2.049 . S
O61 C69 1.260 . S
O62 Zn57 1.996 . S
O62 C69 1.257 . S
C63 O58 1.254 . S
C63 O59 1.269 . S
C64 O65 1.249 . S
C64 O66 1.270 . S
O65 Zn57 1.943 . S
O65 C64 1.249 . S
O66 Zn56 2.067 . S
O66 C64 1.270 . S
C67 O60 1.262 . S
C67 O68 1.232 . S
O68 C67 1.232 . S
C69 O61 1.260 . S
C69 O62 1.257 . S
Zn70 O73 2.031 . S
Zn70 O75 2.049 . S
Zn70 O80 2.067 . S
Zn71 O72 1.962 . S
Zn71 O74 1.986 . S
Zn71 O76 1.996 . S
Zn71 O79 1.943 . S
O72 Zn71 1.962 . S
O72 C77 1.254 . S
O73 Zn70 2.031 . S
O73 C77 1.269 . S
O74 Zn71 1.986 . S
O74 C81 1.262 . S
O75 Zn70 2.049 . S
O75 C83 1.260 . S
O76 Zn71 1.996 . S
O76 C83 1.257 . S
C77 O72 1.254 . S
C77 O73 1.269 . S
C78 O79 1.249 . S
C78 O80 1.270 . S
O79 Zn71 1.943 . S
O79 C78 1.249 . S
O80 Zn70 2.067 . S
O80 C78 1.270 . S
C81 O74 1.262 . S
C81 O82 1.232 . S
O82 C81 1.232 . S
C83 O75 1.260 . S
C83 O76 1.257 . S
Zn84 O87 2.031 . S
Zn84 O89 2.049 . S
Zn84 O94 2.067 . S
Zn85 O86 1.962 . S
Zn85 O88 1.986 . S
Zn85 O90 1.996 . S
Zn85 O93 1.943 . S
O86 Zn85 1.962 . S
O86 C91 1.254 . S
O87 Zn84 2.031 . S
O87 C91 1.269 . S
O88 Zn85 1.986 . S
O88 C95 1.262 . S
O89 Zn84 2.049 . S
O89 C97 1.260 . S
O90 Zn85 1.996 . S
O90 C97 1.257 . S
C91 O86 1.254 . S
C91 O87 1.269 . S
C92 O93 1.249 . S
C92 O94 1.270 . S
O93 Zn85 1.943 . S
O93 C92 1.249 . S
O94 Zn84 2.067 . S
O94 C92 1.270 . S
C95 O88 1.262 . S
C95 O96 1.232 . S
O96 C95 1.232 . S
C97 O89 1.260 . S
C97 O90 1.257 . S
Zn98 O101 2.031 . S
Zn98 O103 2.049 . S
Zn98 O108 2.067 . S
Zn99 O100 1.962 . S
Zn99 O102 1.986 . S
Zn99 O104 1.996 . S
Zn99 O107 1.943 . S
O100 Zn99 1.962 . S
O100 C105 1.254 . S
O101 Zn98 2.031 . S
O101 C105 1.269 . S
O102 Zn99 1.986 . S
O102 C109 1.262 . S
O103 Zn98 2.049 . S
O103 C111 1.260 . S
O104 Zn99 1.996 . S
O104 C111 1.257 . S
C105 O100 1.254 . S
C105 O101 1.269 . S
C106 O107 1.249 . S
C106 O108 1.270 . S
O107 Zn99 1.943 . S
O107 C106 1.249 . S
O108 Zn98 2.067 . S
O108 C106 1.270 . S
C109 O102 1.262 . S
C109 O110 1.232 . S
O110 C109 1.232 . S
C111 O103 1.260 . S
C111 O104 1.257 . S
Zn112 O115 2.031 . S
Zn112 O117 2.049 . S
Zn112 O122 2.067 . S
Zn113 O114 1.962 . S
Zn113 O116 1.986 . S
Zn113 O118 1.996 . S
Zn113 O121 1.943 . S
O114 Zn113 1.962 . S
O114 C119 1.254 . S
O115 Zn112 2.031 . S
O115 C119 1.269 . S
O116 Zn113 1.986 . S
O116 C123 1.262 . S
O117 Zn112 2.049 . S
O117 C125 1.260 . S
O118 Zn113 1.996 . S
O118 C125 1.257 . S
C119 O114 1.254 . S
C119 O115 1.269 . S
C120 O121 1.249 . S
C120 O122 1.270 . S
O121 Zn113 1.943 . S
O121 C120 1.249 . S
O122 Zn112 2.067 . S
O122 C120 1.270 . S
C123 O116 1.262 . S
C123 O124 1.232 . S
O124 C123 1.232 . S
C125 O117 1.260 . S
C125 O118 1.257 . S
Zn126 O129 2.031 . S
Zn126 O131 2.049 . S
Zn126 O136 2.067 . S
Zn127 O128 1.962 . S
Zn127 O130 1.986 . S
Zn127 O132 1.996 . S
Zn127 O135 1.943 . S
O128 Zn127 1.962 . S
O128 C133 1.254 . S
O129 Zn126 2.031 . S
O129 C133 1.269 . S
O130 Zn127 1.986 . S
O130 C137 1.262 . S
O131 Zn126 2.049 . S
O131 C139 1.260 . S
O132 Zn127 1.996 . S
O132 C139 1.257 . S
C133 O128 1.254 . S
C133 O129 1.269 . S
C134 O135 1.249 . S
C134 O136 1.270 . S
O135 Zn127 1.943 . S
O135 C134 1.249 . S
O136 Zn126 2.067 . S
O136 C134 1.270 . S
C137 O130 1.262 . S
C137 O138 1.232 . S
O138 C137 1.232 . S
C139 O131 1.260 . S
C139 O132 1.257 . S
Zn140 O143 2.031 . S
Zn140 O145 2.049 . S
Zn140 O150 2.067 . S
Zn141 O142 1.962 . S
Zn141 O144 1.986 . S
Zn141 O146 1.996 . S
Zn141 O149 1.943 . S
O142 Zn141 1.962 . S
O142 C147 1.254 . S
O143 Zn140 2.031 . S
O143 C147 1.269 . S
O144 Zn141 1.986 . S
O144 C151 1.262 . S
O145 Zn140 2.049 . S
O145 C153 1.260 . S
O146 Zn141 1.996 . S
O146 C153 1.257 . S
C147 O142 1.254 . S
C147 O143 1.269 . S
C148 O149 1.249 . S
C148 O150 1.270 . S
O149 Zn141 1.943 . S
O149 C148 1.249 . S
O150 Zn140 2.067 . S
O150 C148 1.270 . S
C151 O144 1.262 . S
C151 O152 1.232 . S
O152 C151 1.232 . S
C153 O145 1.260 . S
C153 O146 1.257 . S
Zn154 O157 2.031 . S
Zn154 O159 2.049 . S
Zn154 O164 2.067 . S
Zn155 O156 1.962 . S
Zn155 O158 1.986 . S
Zn155 O160 1.996 . S
Zn155 O163 1.943 . S
O156 Zn155 1.962 . S
O156 C161 1.254 . S
O157 Zn154 2.031 . S
O157 C161 1.269 . S
O158 Zn155 1.986 . S
O158 C165 1.262 . S
O159 Zn154 2.049 . S
O159 C167 1.260 . S
O160 Zn155 1.996 . S
O160 C167 1.257 . S
C161 O156 1.254 . S
C161 O157 1.269 . S
C162 O163 1.249 . S
C162 O164 1.270 . S
O163 Zn155 1.943 . S
O163 C162 1.249 . S
O164 Zn154 2.067 . S
O164 C162 1.270 . S
C165 O158 1.262 . S
C165 O166 1.232 . S
O166 C165 1.232 . S
C167 O159 1.260 . S
C167 O160 1.257 . S
Zn168 O171 2.031 . S
Zn168 O173 2.049 . S
Zn168 O178 2.067 . S
Zn169 O170 1.962 . S
Zn169 O172 1.986 . S
Zn169 O174 1.996 . S
Zn169 O177 1.943 . S
O170 Zn169 1.962 . S
O170 C175 1.254 . S
O171 Zn168 2.031 . S
O171 C175 1.269 . S
O172 Zn169 1.986 . S
O172 C179 1.262 . S
O173 Zn168 2.049 . S
O173 C181 1.260 . S
O174 Zn169 1.996 . S
O174 C181 1.257 . S
C175 O170 1.254 . S
C175 O171 1.269 . S
C176 O177 1.249 . S
C176 O178 1.270 . S
O177 Zn169 1.943 . S
O177 C176 1.249 . S
O178 Zn168 2.067 . S
O178 C176 1.270 . S
C179 O172 1.262 . S
C179 O180 1.232 . S
O180 C179 1.232 . S
C181 O173 1.260 . S
C181 O174 1.257 . S
Zn182 O185 2.031 . S
Zn182 O187 2.049 . S
Zn182 O192 2.067 . S
Zn183 O184 1.962 . S
Zn183 O186 1.986 . S
Zn183 O188 1.996 . S
Zn183 O191 1.943 . S
O184 Zn183 1.962 . S
O184 C189 1.254 . S
O185 Zn182 2.031 . S
O185 C189 1.269 . S
O186 Zn183 1.986 . S
O186 C193 1.262 . S
O187 Zn182 2.049 . S
O187 C195 1.260 . S
O188 Zn183 1.996 . S
O188 C195 1.257 . S
C189 O184 1.254 . S
C189 O185 1.269 . S
C190 O191 1.249 . S
C190 O192 1.270 . S
O191 Zn183 1.943 . S
O191 C190 1.249 . S
O192 Zn182 2.067 . S
O192 C190 1.270 . S
C193 O186 1.262 . S
C193 O194 1.232 . S
O194 C193 1.232 . S
C195 O187 1.260 . S
C195 O188 1.257 . S
Zn196 O199 2.031 . S
Zn196 O201 2.049 . S
Zn196 O206 2.067 . S
Zn197 O198 1.962 . S
Zn197 O200 1.986 . S
Zn197 O202 1.996 . S
Zn197 O205 1.943 . S
O198 Zn197 1.962 . S
O198 C203 1.254 . S
O199 Zn196 2.031 . S
O199 C203 1.269 . S
O200 Zn197 1.986 . S
O200 C207 1.262 . S
O201 Zn196 2.049 . S
O201 C209 1.260 . S
O202 Zn197 1.996 . S
O202 C209 1.257 . S
C203 O198 1.254 . S
C203 O199 1.269 . S
C204 O205 1.249 . S
C204 O206 1.270 . S
O205 Zn197 1.943 . S
O205 C204 1.249 . S
O206 Zn196 2.067 . S
O206 C204 1.270 . S
C207 O200 1.262 . S
C207 O208 1.232 . S
O208 C207 1.232 . S
C209 O201 1.260 . S
C209 O202 1.257 . S
Zn210 O213 2.031 . S
Zn210 O215 2.049 . S
Zn210 O220 2.067 . S
Zn211 O212 1.962 . S
Zn211 O214 1.986 . S
Zn211 O216 1.996 . S
Zn211 O219 1.943 . S
O212 Zn211 1.962 . S
O212 C217 1.254 . S
O213 Zn210 2.031 . S
O213 C217 1.269 . S
O214 Zn211 1.986 . S
O214 C221 1.262 . S
O215 Zn210 2.049 . S
O215 C223 1.260 . S
O216 Zn211 1.996 . S
O216 C223 1.257 . S
C217 O212 1.254 . S
C217 O213 1.269 . S
C218 O219 1.249 . S
C218 O220 1.270 . S
O219 Zn211 1.943 . S
O219 C218 1.249 . S
O220 Zn210 2.067 . S
O220 C218 1.270 . S
C221 O214 1.262 . S
C221 O222 1.232 . S
O222 C221 1.232 . S
C223 O215 1.260 . S
C223 O216 1.257 . S
H224 C230 0.930 1_556 S
H225 C234 0.935 . S
H226 C239 0.929 . S
H227 C237 0.929 . S
H228 C232 0.929 . S
H229 C238 0.929 . S
C230 H224 0.930 1_554 S
C230 C231 1.367 . S
C230 C238 1.378 1_554 S
C231 C230 1.367 . S
C231 C239 1.433 . S
C232 H228 0.929 . S
C232 C234 1.378 1_554 S
C232 C236 1.350 1_554 S
C233 C236 1.463 1_554 S
C233 C238 1.350 1_554 S
C233 N241 1.427 . S
C234 H225 0.935 . S
C234 C232 1.378 1_556 S
C234 C235 1.367 . S
C235 C234 1.367 . S
C235 C237 1.433 . S
C236 C232 1.350 1_556 S
C236 C233 1.463 1_556 S
C236 N240 1.427 . S
C237 H227 0.929 . S
C237 C235 1.433 . S
C237 N240 1.384 . S
C238 H229 0.929 . S
C238 C230 1.378 1_556 S
C238 C233 1.350 1_556 S
C239 H226 0.929 . S
C239 C231 1.433 . S
C239 N241 1.384 . S
N240 C236 1.427 . S
N240 C237 1.384 . S
N241 C233 1.427 . S
N241 C239 1.384 . S
H242 C248 0.930 . S
H243 C252 0.930 . S
H244 C257 0.929 . S
H245 C255 0.929 . S
H246 C250 0.929 . S
H247 C256 0.929 . S
C248 H242 0.930 . S
C248 C249 1.367 . S
C248 C256 1.378 . S
C249 C248 1.367 . S
C249 C257 1.433 . S
C250 H246 0.929 . S
C250 C252 1.378 . S
C250 C254 1.350 . S
C251 C254 1.463 . S
C251 C256 1.350 . S
C251 N259 1.427 . S
C252 H243 0.930 . S
C252 C250 1.378 . S
C252 C253 1.367 . S
C253 C252 1.367 . S
C253 C255 1.433 . S
C254 C250 1.350 . S
C254 C251 1.463 . S
C254 N258 1.427 . S
C255 H245 0.929 . S
C255 C253 1.433 . S
C255 N258 1.384 . S
C256 H247 0.929 . S
C256 C248 1.378 . S
C256 C251 1.350 . S
C257 H244 0.929 . S
C257 C249 1.433 . S
C257 N259 1.384 . S
N258 C254 1.427 . S
N258 C255 1.384 . S
N259 C251 1.427 . S
N259 C257 1.384 . S
H260 C266 0.930 . S
H261 C270 0.930 . S
H262 C275 0.929 . S
H263 C273 0.929 . S
H264 C268 0.929 . S
H265 C274 0.929 . S
C266 H260 0.930 . S
C266 C267 1.367 . S
C266 C274 1.378 . S
C267 C266 1.367 . S
C267 C275 1.433 . S
C268 H264 0.929 . S
C268 C270 1.378 . S
C268 C272 1.350 . S
C269 C272 1.463 1_556 S
C269 C274 1.350 . S
C269 N277 1.427 . S
C270 H261 0.930 . S
C270 C268 1.378 . S
C270 C271 1.367 . S
C271 C270 1.367 . S
C271 C273 1.433 . S
C272 C268 1.350 . S
C272 C269 1.463 1_554 S
C272 N276 1.427 . S
C273 H263 0.929 . S
C273 C271 1.433 . S
C273 N276 1.384 . S
C274 H265 0.929 . S
C274 C266 1.378 . S
C274 C269 1.350 . S
C275 H262 0.929 . S
C275 C267 1.433 . S
C275 N277 1.384 . S
N276 C272 1.427 . S
N276 C273 1.384 . S
N277 C269 1.427 . S
N277 C275 1.384 . S
H278 C284 0.930 . S
H279 C288 0.930 . S
H280 C293 0.929 . S
H281 C291 0.929 . S
H282 C286 0.929 . S
H283 C292 0.929 . S
C284 H278 0.930 . S
C284 C285 1.367 . S
C284 C292 1.378 . S
C285 C284 1.367 . S
C285 C293 1.433 . S
C286 H282 0.929 . S
C286 C288 1.378 . S
C286 C290 1.350 . S
C287 C290 1.463 . S
C287 C292 1.350 . S
C287 N295 1.427 . S
C288 H279 0.930 . S
C288 C286 1.378 . S
C288 C289 1.367 . S
C289 C288 1.367 . S
C289 C291 1.433 . S
C290 C286 1.350 . S
C290 C287 1.463 . S
C290 N294 1.427 . S
C291 H281 0.929 . S
C291 C289 1.433 . S
C291 N294 1.384 . S
C292 H283 0.929 . S
C292 C284 1.378 . S
C292 C287 1.350 . S
C293 H280 0.929 . S
C293 C285 1.433 . S
C293 N295 1.384 . S
N294 C290 1.427 . S
N294 C291 1.384 . S
N295 C287 1.427 . S
N295 C293 1.384 . S
H296 C302 0.930 . S
H297 C306 0.930 . S
H298 C311 0.929 . S
H299 C309 0.929 . S
H300 C304 0.929 . S
H301 C310 0.929 . S
C302 H296 0.930 . S
C302 C303 1.367 . S
C302 C310 1.378 1_554 S
C303 C302 1.367 . S
C303 C311 1.433 . S
C304 H300 0.929 . S
C304 C306 1.378 1_554 S
C304 C308 1.350 1_554 S
C305 C308 1.463 1_554 S
C305 C310 1.350 1_554 S
C305 N313 1.427 . S
C306 H297 0.930 . S
C306 C304 1.378 1_556 S
C306 C307 1.367 . S
C307 C306 1.367 . S
C307 C309 1.433 . S
C308 C304 1.350 1_556 S
C308 C305 1.463 1_556 S
C308 N312 1.427 . S
C309 H299 0.929 . S
C309 C307 1.433 . S
C309 N312 1.384 . S
C310 H301 0.929 . S
C310 C302 1.378 1_556 S
C310 C305 1.350 1_556 S
C311 H298 0.929 . S
C311 C303 1.433 . S
C311 N313 1.384 . S
N312 C308 1.427 . S
N312 C309 1.384 . S
N313 C305 1.427 . S
N313 C311 1.384 . S
H314 C320 0.930 . S
H315 C324 0.930 . S
H316 C329 0.929 . S
H317 C327 0.929 . S
H318 C322 0.929 . S
H319 C328 0.929 . S
C320 H314 0.930 . S
C320 C321 1.367 . S
C320 C328 1.378 . S
C321 C320 1.367 . S
C321 C329 1.433 . S
C322 H318 0.929 . S
C322 C324 1.378 . S
C322 C326 1.350 . S
C323 C326 1.463 . S
C323 C328 1.350 . S
C323 N331 1.427 . S
C324 H315 0.930 . S
C324 C322 1.378 . S
C324 C325 1.367 . S
C325 C324 1.367 . S
C325 C327 1.433 . S
C326 C322 1.350 . S
C326 C323 1.463 . S
C326 N330 1.427 . S
C327 H317 0.929 . S
C327 C325 1.433 . S
C327 N330 1.384 . S
C328 H319 0.929 . S
C328 C320 1.378 . S
C328 C323 1.350 . S
C329 H316 0.929 . S
C329 C321 1.433 . S
C329 N331 1.384 . S
N330 C326 1.427 . S
N330 C327 1.384 . S
N331 C323 1.427 . S
N331 C329 1.384 . S
H332 C338 0.930 . S
H333 C342 0.930 . S
H334 C347 0.929 . S
H335 C345 0.929 . S
H336 C340 0.929 1_556 S
H337 C346 0.929 1_554 S
C338 H332 0.930 . S
C338 C339 1.367 . S
C338 C346 1.378 . S
C339 C338 1.367 . S
C339 C347 1.433 . S
C340 H336 0.929 1_554 S
C340 C342 1.378 . S
C340 C344 1.350 . S
C341 C344 1.463 1_556 S
C341 C346 1.350 . S
C341 N349 1.427 . S
C342 H333 0.930 . S
C342 C340 1.378 . S
C342 C343 1.367 . S
C343 C342 1.367 . S
C343 C345 1.433 . S
C344 C340 1.350 . S
C344 C341 1.463 1_554 S
C344 N348 1.427 . S
C345 H335 0.929 . S
C345 C343 1.433 . S
C345 N348 1.384 . S
C346 H337 0.929 1_556 S
C346 C338 1.378 . S
C346 C341 1.350 . S
C347 H334 0.929 . S
C347 C339 1.433 . S
C347 N349 1.384 . S
N348 C344 1.427 . S
N348 C345 1.384 . S
N349 C341 1.427 . S
N349 C347 1.384 . S
H350 C356 0.930 . S
H351 C360 0.930 . S
H352 C365 0.929 . S
H353 C363 0.929 . S
H354 C358 0.929 . S
H355 C364 0.929 . S
C356 H350 0.930 . S
C356 C357 1.367 . S
C356 C364 1.378 . S
C357 C356 1.367 . S
C357 C365 1.433 . S
C358 H354 0.929 . S
C358 C360 1.378 . S
C358 C362 1.350 . S
C359 C362 1.463 . S
C359 C364 1.350 . S
C359 N367 1.427 . S
C360 H351 0.930 . S
C360 C358 1.378 . S
C360 C361 1.367 . S
C361 C360 1.367 . S
C361 C363 1.433 . S
C362 C358 1.350 . S
C362 C359 1.463 . S
C362 N366 1.427 . S
C363 H353 0.929 . S
C363 C361 1.433 . S
C363 N366 1.384 . S
C364 H355 0.929 . S
C364 C356 1.378 . S
C364 C359 1.350 . S
C365 H352 0.929 . S
C365 C357 1.433 . S
C365 N367 1.384 . S
N366 C362 1.427 . S
N366 C363 1.384 . S
N367 C359 1.427 . S
N367 C365 1.384 . S
H368 C374 0.930 . S
H369 C378 0.930 . S
H370 C383 0.929 . S
H371 C381 0.929 . S
H372 C376 0.922 1_545 S
H373 C382 0.922 1_565 S
C374 H368 0.930 . S
C374 C375 1.367 . S
C374 C382 1.378 . S
C375 C374 1.367 . S
C375 C383 1.433 . S
C376 H372 0.922 1_565 S
C376 C378 1.378 . S
C376 C380 1.350 . S
C377 C380 1.463 1_544 S
C377 C382 1.350 . S
C377 N385 1.427 1_554 S
C378 H369 0.930 . S
C378 C376 1.378 . S
C378 C379 1.367 . S
C379 C378 1.367 . S
C379 C381 1.433 . S
C380 C376 1.350 . S
C380 C377 1.463 1_566 S
C380 N384 1.427 1_556 S
C381 H371 0.929 . S
C381 C379 1.433 . S
C381 N384 1.384 1_556 S
C382 H373 0.922 1_545 S
C382 C374 1.378 . S
C382 C377 1.350 . S
C383 H370 0.929 . S
C383 C375 1.433 . S
C383 N385 1.384 1_554 S
N384 C380 1.427 1_554 S
N384 C381 1.384 1_554 S
N385 C377 1.427 1_556 S
N385 C383 1.384 1_556 S
H386 C392 0.930 . S
H387 C396 0.930 . S
H388 C401 0.929 . S
H389 C399 0.929 . S
H390 C394 0.929 1_565 S
H391 C400 0.929 1_545 S
C392 H386 0.930 . S
C392 C393 1.367 . S
C392 C400 1.378 . S
C393 C392 1.367 . S
C393 C401 1.433 . S
C394 H390 0.929 1_545 S
C394 C396 1.378 . S
C394 C398 1.350 . S
C395 C398 1.463 1_565 S
C395 C400 1.350 . S
C395 N403 1.427 . S
C396 H387 0.930 . S
C396 C394 1.378 . S
C396 C397 1.367 . S
C397 C396 1.367 . S
C397 C399 1.433 . S
C398 C394 1.350 . S
C398 C395 1.463 1_545 S
C398 N402 1.427 . S
C399 H389 0.929 . S
C399 C397 1.433 . S
C399 N402 1.384 . S
C400 H391 0.929 1_565 S
C400 C392 1.378 . S
C400 C395 1.350 . S
C401 H388 0.929 . S
C401 C393 1.433 . S
C401 N403 1.384 . S
N402 C398 1.427 . S
N402 C399 1.384 . S
N403 C395 1.427 . S
N403 C401 1.384 . S
H404 C410 0.930 . S
H405 C414 0.930 . S
H406 C419 0.929 . S
H407 C417 0.929 . S
H408 C412 0.929 1_556 S
H409 C418 0.929 1_554 S
C410 H404 0.930 . S
C410 C411 1.367 . S
C410 C418 1.378 . S
C411 C410 1.367 . S
C411 C419 1.433 . S
C412 H408 0.929 1_554 S
C412 C414 1.378 . S
C412 C416 1.350 . S
C413 C416 1.463 1_566 S
C413 C418 1.350 . S
C413 N421 1.427 . S
C414 H405 0.930 . S
C414 C412 1.378 . S
C414 C415 1.367 . S
C415 C414 1.367 . S
C415 C417 1.433 . S
C416 C412 1.350 . S
C416 C413 1.463 1_544 S
C416 N420 1.427 . S
C417 H407 0.929 . S
C417 C415 1.433 . S
C417 N420 1.384 . S
C418 H409 0.929 1_556 S
C418 C410 1.378 . S
C418 C413 1.350 . S
C419 H406 0.929 . S
C419 C411 1.433 . S
C419 N421 1.384 . S
N420 C416 1.427 . S
N420 C417 1.384 . S
N421 C413 1.427 . S
N421 C419 1.384 . S
H422 C428 0.930 . S
H423 C432 0.930 . S
H424 C437 0.929 . S
H425 C435 0.929 . S
H426 C430 0.929 . S
H427 C436 0.929 . S
C428 H422 0.930 . S
C428 C429 1.367 . S
C428 C436 1.378 . S
C429 C428 1.367 . S
C429 C437 1.433 . S
C430 H426 0.929 . S
C430 C432 1.378 . S
C430 C434 1.350 . S
C431 C434 1.463 1_545 S
C431 C436 1.350 . S
C431 N439 1.427 . S
C432 H423 0.930 . S
C432 C430 1.378 . S
C432 C433 1.367 . S
C433 C432 1.367 . S
C433 C435 1.433 . S
C434 C430 1.350 . S
C434 C431 1.463 1_565 S
C434 N438 1.427 . S
C435 H425 0.929 . S
C435 C433 1.433 . S
C435 N438 1.384 . S
C436 H427 0.929 . S
C436 C428 1.378 . S
C436 C431 1.350 . S
C437 H424 0.929 . S
C437 C429 1.433 . S
C437 N439 1.384 . S
N438 C434 1.427 . S
N438 C435 1.384 . S
N439 C431 1.427 . S
N439 C437 1.384 . S
H440 C446 0.930 . S
H441 C450 0.930 . S
H442 C455 0.929 . S
H443 C453 0.929 . S
H444 C448 0.929 . S
H445 C454 0.929 . S
C446 H440 0.930 . S
C446 C447 1.367 . S
C446 C454 1.378 . S
C447 C446 1.367 . S
C447 C455 1.433 . S
C448 H444 0.929 . S
C448 C450 1.378 . S
C448 C452 1.350 . S
C449 C452 1.463 1_556 S
C449 C454 1.350 . S
C449 N457 1.420 1_556 S
C450 H441 0.930 . S
C450 C448 1.378 . S
C450 C451 1.367 . S
C451 C450 1.367 . S
C451 C453 1.433 . S
C452 C448 1.350 . S
C452 C449 1.463 1_554 S
C452 N456 1.420 1_554 S
C453 H443 0.929 . S
C453 C451 1.433 . S
C453 N456 1.371 1_554 S
C454 H445 0.929 . S
C454 C446 1.378 . S
C454 C449 1.350 . S
C455 H442 0.929 . S
C455 C447 1.433 . S
C455 N457 1.371 1_556 S
N456 C452 1.420 1_556 S
N456 C453 1.371 1_556 S
N457 C449 1.420 1_554 S
N457 C455 1.371 1_554 S
H458 C464 0.930 . S
H459 C468 0.930 . S
H460 C473 0.929 . S
H461 C471 0.929 . S
H462 C466 0.929 . S
H463 C472 0.929 . S
C464 H458 0.930 . S
C464 C465 1.367 . S
C464 C472 1.378 . S
C465 C464 1.367 . S
C465 C473 1.433 . S
C466 H462 0.929 . S
C466 C468 1.378 . S
C466 C470 1.350 . S
C467 C470 1.463 . S
C467 C472 1.350 . S
C467 N475 1.427 . S
C468 H459 0.930 . S
C468 C466 1.378 . S
C468 C469 1.367 . S
C469 C468 1.367 . S
C469 C471 1.433 . S
C470 C466 1.350 . S
C470 C467 1.463 . S
C470 N474 1.427 . S
C471 H461 0.929 . S
C471 C469 1.433 . S
C471 N474 1.384 . S
C472 H463 0.929 . S
C472 C464 1.378 . S
C472 C467 1.350 . S
C473 H460 0.929 . S
C473 C465 1.433 . S
C473 N475 1.384 . S
N474 C470 1.427 . S
N474 C471 1.384 . S
N475 C467 1.427 . S
N475 C473 1.384 . S
H476 C482 0.930 . S
H477 C486 0.930 . S
H478 C491 0.929 . S
H479 C489 0.929 . S
H480 C484 0.929 . S
H481 C490 0.929 . S
C482 H476 0.930 . S
C482 C483 1.367 . S
C482 C490 1.378 . S
C483 C482 1.367 . S
C483 C491 1.433 . S
C484 H480 0.929 . S
C484 C486 1.378 . S
C484 C488 1.350 . S
C485 C488 1.463 1_554 S
C485 C490 1.350 . S
C485 N493 1.427 . S
C486 H477 0.930 . S
C486 C484 1.378 . S
C486 C487 1.367 . S
C487 C486 1.367 . S
C487 C489 1.433 . S
C488 C484 1.350 . S
C488 C485 1.463 1_556 S
C488 N492 1.427 . S
C489 H479 0.929 . S
C489 C487 1.433 . S
C489 N492 1.384 . S
C490 H481 0.929 . S
C490 C482 1.378 . S
C490 C485 1.350 . S
C491 H478 0.929 . S
C491 C483 1.433 . S
C491 N493 1.384 . S
N492 C488 1.427 . S
N492 C489 1.384 . S
N493 C485 1.427 . S
N493 C491 1.384 . S
H494 C500 0.930 . S
H495 C504 0.930 . S
H496 C509 0.929 . S
H497 C507 0.929 . S
H498 C502 0.929 . S
H499 C508 0.929 . S
C500 H494 0.930 . S
C500 C501 1.367 . S
C500 C508 1.378 . S
C501 C500 1.367 . S
C501 C509 1.433 . S
C502 H498 0.929 . S
C502 C504 1.378 . S
C502 C506 1.350 . S
C503 C506 1.463 . S
C503 C508 1.350 . S
C503 N511 1.427 . S
C504 H495 0.930 . S
C504 C502 1.378 . S
C504 C505 1.367 . S
C505 C504 1.367 . S
C505 C507 1.433 . S
C506 C502 1.350 . S
C506 C503 1.463 . S
C506 N510 1.427 . S
C507 H497 0.929 . S
C507 C505 1.433 . S
C507 N510 1.384 . S
C508 H499 0.929 . S
C508 C500 1.378 . S
C508 C503 1.350 . S
C509 H496 0.929 . S
C509 C501 1.433 . S
C509 N511 1.384 . S
N510 C506 1.427 . S
N510 C507 1.384 . S
N511 C503 1.427 . S
N511 C509 1.384 . S
H512 C518 0.930 . S
H513 C522 0.930 . S
H514 C527 0.929 . S
H515 C525 0.929 . S
H516 C520 0.929 . S
H517 C526 0.929 . S
C518 H512 0.930 . S
C518 C519 1.367 . S
C518 C526 1.378 . S
C519 C518 1.367 . S
C519 C527 1.433 . S
C520 H516 0.929 . S
C520 C522 1.378 . S
C520 C524 1.350 . S
C521 C524 1.463 . S
C521 C526 1.350 . S
C521 N529 1.427 . S
C522 H513 0.930 . S
C522 C520 1.378 . S
C522 C523 1.367 . S
C523 C522 1.367 . S
C523 C525 1.433 . S
C524 C520 1.350 . S
C524 C521 1.463 . S
C524 N528 1.427 . S
C525 H515 0.929 . S
C525 C523 1.433 . S
C525 N528 1.384 . S
C526 H517 0.929 . S
C526 C518 1.378 . S
C526 C521 1.350 . S
C527 H514 0.929 . S
C527 C519 1.433 . S
C527 N529 1.384 . S
N528 C524 1.427 . S
N528 C525 1.384 . S
N529 C521 1.427 . S
N529 C527 1.384 . S
H530 C536 0.930 . S
H531 C540 0.930 . S
H532 C545 0.929 . S
H533 C543 0.929 . S
H534 C538 0.929 . S
H535 C544 0.929 . S
C536 H530 0.930 . S
C536 C537 1.367 . S
C536 C544 1.378 . S
C537 C536 1.367 . S
C537 C545 1.433 . S
C538 H534 0.929 . S
C538 C540 1.378 . S
C538 C542 1.350 . S
C539 C542 1.463 1_655 S
C539 C544 1.350 . S
C539 N547 1.427 . S
C540 H531 0.930 . S
C540 C538 1.378 . S
C540 C541 1.367 . S
C541 C540 1.367 . S
C541 C543 1.433 . S
C542 C538 1.350 . S
C542 C539 1.463 1_455 S
C542 N546 1.427 . S
C543 H533 0.929 . S
C543 C541 1.433 . S
C543 N546 1.384 . S
C544 H535 0.929 . S
C544 C536 1.378 . S
C544 C539 1.350 . S
C545 H532 0.929 . S
C545 C537 1.433 . S
C545 N547 1.384 . S
N546 C542 1.427 . S
N546 C543 1.384 . S
N547 C539 1.427 . S
N547 C545 1.384 . S
H548 C554 0.930 . S
H549 C558 0.930 . S
H550 C563 0.929 . S
H551 C561 0.929 . S
H552 C556 0.929 . S
H553 C562 0.929 . S
C554 H548 0.930 . S
C554 C555 1.367 . S
C554 C562 1.378 . S
C555 C554 1.367 . S
C555 C563 1.433 . S
C556 H552 0.929 . S
C556 C558 1.378 . S
C556 C560 1.350 . S
C557 C560 1.463 . S
C557 C562 1.350 . S
C557 N565 1.427 . S
C558 H549 0.930 . S
C558 C556 1.378 . S
C558 C559 1.367 . S
C559 C558 1.367 . S
C559 C561 1.433 . S
C560 C556 1.350 . S
C560 C557 1.463 . S
C560 N564 1.427 . S
C561 H551 0.929 . S
C561 C559 1.433 . S
C561 N564 1.384 . S
C562 H553 0.929 . S
C562 C554 1.378 . S
C562 C557 1.350 . S
C563 H550 0.929 . S
C563 C555 1.433 . S
C563 N565 1.384 . S
N564 C560 1.427 . S
N564 C561 1.384 . S
N565 C557 1.427 . S
N565 C563 1.384 . S
H566 C572 0.930 . S
H567 C576 0.930 . S
H568 C581 0.929 . S
H569 C579 0.929 . S
H570 C574 0.929 . S
H571 C580 0.929 . S
C572 H566 0.930 . S
C572 C573 1.367 . S
C572 C580 1.378 . S
C573 C572 1.367 . S
C573 C581 1.433 . S
C574 H570 0.929 . S
C574 C576 1.378 . S
C574 C578 1.350 . S
C575 C578 1.463 1_455 S
C575 C580 1.350 . S
C575 N583 1.427 . S
C576 H567 0.930 . S
C576 C574 1.378 . S
C576 C577 1.367 . S
C577 C576 1.367 . S
C577 C579 1.433 . S
C578 C574 1.350 . S
C578 C575 1.463 1_655 S
C578 N582 1.427 . S
C579 H569 0.929 . S
C579 C577 1.433 . S
C579 N582 1.384 . S
C580 H571 0.929 . S
C580 C572 1.378 . S
C580 C575 1.350 . S
C581 H568 0.929 . S
C581 C573 1.433 . S
C581 N583 1.384 . S
N582 C578 1.427 . S
N582 C579 1.384 . S
N583 C575 1.427 . S
N583 C581 1.384 . S
H584 C590 0.930 . S
H585 C594 0.930 . S
H586 C599 0.929 . S
H587 C597 0.929 . S
H588 C592 0.929 . S
H589 C598 0.929 . S
C590 H584 0.930 . S
C590 C591 1.367 . S
C590 C598 1.378 . S
C591 C590 1.367 . S
C591 C599 1.433 . S
C592 H588 0.929 . S
C592 C594 1.378 . S
C592 C596 1.350 . S
C593 C596 1.463 1_455 S
C593 C598 1.350 . S
C593 N601 1.427 . S
C594 H585 0.930 . S
C594 C592 1.378 . S
C594 C595 1.367 . S
C595 C594 1.367 . S
C595 C597 1.433 . S
C596 C592 1.350 . S
C596 C593 1.463 1_655 S
C596 N600 1.427 . S
C597 H587 0.929 . S
C597 C595 1.433 . S
C597 N600 1.384 . S
C598 H589 0.929 . S
C598 C590 1.378 . S
C598 C593 1.350 . S
C599 H586 0.929 . S
C599 C591 1.433 . S
C599 N601 1.384 . S
N600 C596 1.427 . S
N600 C597 1.384 . S
N601 C593 1.427 . S
N601 C599 1.384 . S
H602 C608 0.930 . S
H603 C612 0.930 . S
H604 C617 0.929 . S
H605 C615 0.929 . S
H606 C610 0.929 . S
H607 C616 0.929 . S
C608 H602 0.930 . S
C608 C609 1.367 . S
C608 C616 1.378 . S
C609 C608 1.367 . S
C609 C617 1.433 . S
C610 H606 0.929 . S
C610 C612 1.378 . S
C610 C614 1.350 . S
C611 C614 1.463 . S
C611 C616 1.350 . S
C611 N619 1.427 . S
C612 H603 0.930 . S
C612 C610 1.378 . S
C612 C613 1.367 . S
C613 C612 1.367 . S
C613 C615 1.433 . S
C614 C610 1.350 . S
C614 C611 1.463 . S
C614 N618 1.427 . S
C615 H605 0.929 . S
C615 C613 1.433 . S
C615 N618 1.384 . S
C616 H607 0.929 . S
C616 C608 1.378 . S
C616 C611 1.350 . S
C617 H604 0.929 . S
C617 C609 1.433 . S
C617 N619 1.384 . S
N618 C614 1.427 . S
N618 C615 1.384 . S
N619 C611 1.427 . S
N619 C617 1.384 . S
H620 C626 0.930 . S
H621 C630 0.930 . S
H622 C635 0.929 . S
H623 C633 0.929 . S
H624 C628 0.929 . S
H625 C634 0.929 . S
C626 H620 0.930 . S
C626 C627 1.367 . S
C626 C634 1.378 . S
C627 C626 1.367 . S
C627 C635 1.433 . S
C628 H624 0.929 . S
C628 C630 1.378 . S
C628 C632 1.350 . S
C629 C632 1.463 1_455 S
C629 C634 1.350 . S
C629 N637 1.427 . S
C630 H621 0.930 . S
C630 C628 1.378 . S
C630 C631 1.367 . S
C631 C630 1.367 . S
C631 C633 1.433 . S
C632 C628 1.350 . S
C632 C629 1.463 1_655 S
C632 N636 1.427 . S
C633 H623 0.929 . S
C633 C631 1.433 . S
C633 N636 1.384 . S
C634 H625 0.929 . S
C634 C626 1.378 . S
C634 C629 1.350 . S
C635 H622 0.929 . S
C635 C627 1.433 . S
C635 N637 1.384 . S
N636 C632 1.427 . S
N636 C633 1.384 . S
N637 C629 1.427 . S
N637 C635 1.384 . S
H638 C644 0.930 . S
H639 C648 0.930 . S
H640 C653 0.929 . S
H641 C651 0.929 . S
H642 C646 0.929 . S
H643 C652 0.929 . S
C644 H638 0.930 . S
C644 C645 1.367 . S
C644 C652 1.378 . S
C645 C644 1.367 . S
C645 C653 1.433 . S
C646 H642 0.929 . S
C646 C648 1.378 . S
C646 C650 1.350 . S
C647 C650 1.463 . S
C647 C652 1.350 . S
C647 N655 1.427 . S
C648 H639 0.930 . S
C648 C646 1.378 . S
C648 C649 1.367 . S
C649 C648 1.367 . S
C649 C651 1.433 . S
C650 C646 1.350 . S
C650 C647 1.463 . S
C650 N654 1.427 . S
C651 H641 0.929 . S
C651 C649 1.433 . S
C651 N654 1.384 . S
C652 H643 0.929 . S
C652 C644 1.378 . S
C652 C647 1.350 . S
C653 H640 0.929 . S
C653 C645 1.433 . S
C653 N655 1.384 . S
N654 C650 1.427 . S
N654 C651 1.384 . S
N655 C647 1.427 . S
N655 C653 1.384 . S
H656 C662 0.930 . S
H657 C666 0.930 . S
H658 C671 0.929 . S
H659 C669 0.929 . S
H660 C664 0.929 . S
H661 C670 0.929 . S
C662 H656 0.930 . S
C662 C663 1.367 . S
C662 C670 1.378 . S
C663 C662 1.367 . S
C663 C671 1.433 . S
C664 H660 0.929 . S
C664 C666 1.378 . S
C664 C668 1.350 . S
C665 C668 1.463 . S
C665 C670 1.350 . S
C665 N673 1.427 . S
C666 H657 0.930 . S
C666 C664 1.378 . S
C666 C667 1.367 . S
C667 C666 1.367 . S
C667 C669 1.433 . S
C668 C664 1.350 . S
C668 C665 1.463 . S
C668 N672 1.427 . S
C669 H659 0.929 . S
C669 C667 1.433 . S
C669 N672 1.384 . S
C670 H661 0.929 . S
C670 C662 1.378 . S
C670 C665 1.350 . S
C671 H658 0.929 . S
C671 C663 1.433 . S
C671 N673 1.384 . S
N672 C668 1.427 . S
N672 C669 1.384 . S
N673 C665 1.427 . S
N673 C671 1.384 . S
H674 C680 0.930 . S
H675 C684 0.930 . S
H676 C689 0.929 . S
H677 C687 0.929 . S
H678 C682 0.929 . S
H679 C688 0.929 . S
C680 H674 0.930 . S
C680 C681 1.367 . S
C680 C688 1.378 . S
C681 C680 1.367 . S
C681 C689 1.433 . S
C682 H678 0.929 . S
C682 C684 1.378 . S
C682 C686 1.350 . S
C683 C686 1.463 . S
C683 C688 1.350 . S
C683 N691 1.427 . S
C684 H675 0.930 . S
C684 C682 1.378 . S
C684 C685 1.367 . S
C685 C684 1.367 . S
C685 C687 1.433 . S
C686 C682 1.350 . S
C686 C683 1.463 . S
C686 N690 1.427 . S
C687 H677 0.929 . S
C687 C685 1.433 . S
C687 N690 1.384 . S
C688 H679 0.929 . S
C688 C680 1.378 . S
C688 C683 1.350 . S
C689 H676 0.929 . S
C689 C681 1.433 . S
C689 N691 1.384 . S
N690 C686 1.427 . S
N690 C687 1.384 . S
N691 C683 1.427 . S
N691 C689 1.384 . S
H692 C698 0.930 . S
H693 C702 0.930 . S
H694 C707 0.929 . S
H695 C705 0.929 . S
H696 C700 0.929 . S
H697 C706 0.929 . S
C698 H692 0.930 . S
C698 C699 1.367 . S
C698 C706 1.378 . S
C699 C698 1.367 . S
C699 C707 1.433 . S
C700 H696 0.929 . S
C700 C702 1.378 . S
C700 C704 1.350 . S
C701 C704 1.463 . S
C701 C706 1.350 . S
C701 N709 1.427 . S
C702 H693 0.930 . S
C702 C700 1.378 . S
C702 C703 1.367 . S
C703 C702 1.367 . S
C703 C705 1.433 . S
C704 C700 1.350 . S
C704 C701 1.463 . S
C704 N708 1.427 . S
C705 H695 0.929 . S
C705 C703 1.433 . S
C705 N708 1.384 . S
C706 H697 0.929 . S
C706 C698 1.378 . S
C706 C701 1.350 . S
C707 H694 0.929 . S
C707 C699 1.433 . S
C707 N709 1.384 . S
N708 C704 1.427 . S
N708 C705 1.384 . S
N709 C701 1.427 . S
N709 C707 1.384 . S
H710 C716 0.930 . S
H711 C720 0.930 . S
H712 C725 0.929 . S
H713 C723 0.929 . S
H714 C718 0.929 . S
H715 C724 0.929 . S
C716 H710 0.930 . S
C716 C717 1.367 . S
C716 C724 1.378 . S
C717 C716 1.367 . S
C717 C725 1.433 . S
C718 H714 0.929 . S
C718 C720 1.378 . S
C718 C722 1.350 . S
C719 C722 1.463 . S
C719 C724 1.350 . S
C719 N727 1.427 . S
C720 H711 0.930 . S
C720 C718 1.378 . S
C720 C721 1.367 . S
C721 C720 1.367 . S
C721 C723 1.433 . S
C722 C718 1.350 . S
C722 C719 1.463 . S
C722 N726 1.427 . S
C723 H713 0.929 . S
C723 C721 1.433 . S
C723 N726 1.384 . S
C724 H715 0.929 . S
C724 C716 1.378 . S
C724 C719 1.350 . S
C725 H712 0.929 . S
C725 C717 1.433 . S
C725 N727 1.384 . S
N726 C722 1.427 . S
N726 C723 1.384 . S
N727 C719 1.427 . S
N727 C725 1.384 . S
H728 C734 0.930 . S
H729 C738 0.930 . S
H730 C743 0.929 . S
H731 C741 0.929 . S
H732 C736 0.929 . S
H733 C742 0.929 . S
C734 H728 0.930 . S
C734 C735 1.367 . S
C734 C742 1.378 . S
C735 C734 1.367 . S
C735 C743 1.433 . S
C736 H732 0.929 . S
C736 C738 1.378 . S
C736 C740 1.350 . S
C737 C740 1.463 . S
C737 C742 1.350 . S
C737 N745 1.427 . S
C738 H729 0.930 . S
C738 C736 1.378 . S
C738 C739 1.367 . S
C739 C738 1.367 . S
C739 C741 1.433 . S
C740 C736 1.350 . S
C740 C737 1.463 . S
C740 N744 1.427 . S
C741 H731 0.929 . S
C741 C739 1.433 . S
C741 N744 1.384 . S
C742 H733 0.929 . S
C742 C734 1.378 . S
C742 C737 1.350 . S
C743 H730 0.929 . S
C743 C735 1.433 . S
C743 N745 1.384 . S
N744 C740 1.427 . S
N744 C741 1.384 . S
N745 C737 1.427 . S
N745 C743 1.384 . S
H746 C752 0.930 . S
H747 C756 0.930 . S
H748 C761 0.929 . S
H749 C759 0.929 . S
H750 C754 0.929 . S
H751 C760 0.929 . S
C752 H746 0.930 . S
C752 C753 1.367 . S
C752 C760 1.378 . S
C753 C752 1.367 . S
C753 C761 1.433 . S
C754 H750 0.929 . S
C754 C756 1.378 . S
C754 C758 1.350 . S
C755 C758 1.463 . S
C755 C760 1.350 . S
C755 N763 1.427 . S
C756 H747 0.930 . S
C756 C754 1.378 . S
C756 C757 1.367 . S
C757 C756 1.367 . S
C757 C759 1.433 . S
C758 C754 1.350 . S
C758 C755 1.463 . S
C758 N762 1.427 . S
C759 H749 0.929 . S
C759 C757 1.433 . S
C759 N762 1.384 . S
C760 H751 0.929 . S
C760 C752 1.378 . S
C760 C755 1.350 . S
C761 H748 0.929 . S
C761 C753 1.433 . S
C761 N763 1.384 . S
N762 C758 1.427 . S
N762 C759 1.384 . S
N763 C755 1.427 . S
N763 C761 1.384 . S
H764 C770 0.930 . S
H765 C774 0.930 . S
H766 C779 0.929 . S
H767 C777 0.929 . S
H768 C772 0.929 . S
H769 C778 0.929 . S
C770 H764 0.930 . S
C770 C771 1.367 . S
C770 C778 1.378 . S
C771 C770 1.367 . S
C771 C779 1.433 . S
C772 H768 0.929 . S
C772 C774 1.378 . S
C772 C776 1.350 . S
C773 C776 1.463 . S
C773 C778 1.350 . S
C773 N781 1.427 . S
C774 H765 0.930 . S
C774 C772 1.378 . S
C774 C775 1.367 . S
C775 C774 1.367 . S
C775 C777 1.433 . S
C776 C772 1.350 . S
C776 C773 1.463 . S
C776 N780 1.427 . S
C777 H767 0.929 . S
C777 C775 1.433 . S
C777 N780 1.384 . S
C778 H769 0.929 . S
C778 C770 1.378 . S
C778 C773 1.350 . S
C779 H766 0.929 . S
C779 C771 1.433 . S
C779 N781 1.384 . S
N780 C776 1.427 . S
N780 C777 1.384 . S
N781 C773 1.427 . S
N781 C779 1.384 . S
H782 C788 0.930 . S
H783 C792 0.930 . S
H784 C797 0.929 . S
H785 C795 0.929 . S
H786 C790 0.929 . S
H787 C796 0.929 . S
C788 H782 0.930 . S
C788 C789 1.367 . S
C788 C796 1.378 . S
C789 C788 1.367 . S
C789 C797 1.433 . S
C790 H786 0.929 . S
C790 C792 1.378 . S
C790 C794 1.350 . S
C791 C794 1.463 . S
C791 C796 1.350 . S
C791 N799 1.427 . S
C792 H783 0.930 . S
C792 C790 1.378 . S
C792 C793 1.367 . S
C793 C792 1.367 . S
C793 C795 1.433 . S
C794 C790 1.350 . S
C794 C791 1.463 . S
C794 N798 1.427 . S
C795 H785 0.929 . S
C795 C793 1.433 . S
C795 N798 1.384 . S
C796 H787 0.929 . S
C796 C788 1.378 . S
C796 C791 1.350 . S
C797 H784 0.929 . S
C797 C789 1.433 . S
C797 N799 1.384 . S
N798 C794 1.427 . S
N798 C795 1.384 . S
N799 C791 1.427 . S
N799 C797 1.384 . S
C231 C13 1.347 . S
C235 C179 1.438 . S
C249 C193 1.440 . S
C253 C27 1.357 . S
C267 C41 1.357 . S
C271 C207 1.440 . S
C285 C221 1.439 . S
C289 C55 1.360 . S
C303 C125 1.348 . S
C307 C67 1.438 . S
C321 C81 1.439 . S
C325 C139 1.351 . S
C339 C153 1.341 . S
C343 C95 1.434 . S
C357 C109 1.439 . S
C361 C167 1.360 . S
C375 C8 1.372 . S
C379 C36 1.373 . S
C393 C22 1.373 . S
C397 C50 1.374 . S
C411 C64 1.514 . S
C415 C92 1.513 . S
C429 C78 1.515 . S
C433 C106 1.515 . S
C447 C148 1.372 . S
C451 C120 1.372 . S
C465 C134 1.362 . S
C469 C162 1.362 . S
C483 C204 1.508 . S
C487 C176 1.508 . S
C501 C190 1.515 . S
C505 C218 1.515 . S
C519 C91 1.494 . S
C523 C7 1.492 . S
C537 C105 1.493 . S
C541 C21 1.491 . S
C555 C35 1.494 . S
C559 C63 1.496 . S
C573 C49 1.493 . S
C577 C77 1.495 . S
C591 C203 1.497 . S
C595 C119 1.498 . S
C609 C133 1.497 . S
C613 C217 1.499 . S
C627 C175 1.495 . S
C631 C147 1.493 . S
C645 C161 1.491 . S
C649 C189 1.492 . S
C663 C11 1.324 . S
C667 C53 1.324 . S
C681 C39 1.327 . S
C685 C25 1.327 . S
C699 C69 1.445 . S
C703 C111 1.455 . S
C717 C83 1.448 . S
C721 C97 1.438 . S
C735 C165 1.329 . S
C739 C123 1.329 . S
C753 C137 1.328 . S
C757 C151 1.328 . S
C771 C223 1.455 . S
C775 C181 1.453 . S
C789 C195 1.448 . S
C793 C209 1.438 . S
