# Generated by pormake.
# Topology pyr-e, (6)-cn, num edge types: 1
# Building blocks:
#     Node 0, Type 0, BuildingBlock: IZENUY_clean_sbu_0, # of connection points: 6
#     Node 1, Type 0, BuildingBlock: IZENUY_clean_sbu_0, # of connection points: 6
#     Node 2, Type 0, BuildingBlock: IZENUY_clean_sbu_0, # of connection points: 6
#     Node 3, Type 0, BuildingBlock: IZENUY_clean_sbu_0, # of connection points: 6
#     Node 4, Type 0, BuildingBlock: IZENUY_clean_sbu_0, # of connection points: 6
#     Node 5, Type 0, BuildingBlock: IZENUY_clean_sbu_0, # of connection points: 6
#     Node 6, Type 0, BuildingBlock: IZENUY_clean_sbu_0, # of connection points: 6
#     Node 7, Type 0, BuildingBlock: IZENUY_clean_sbu_0, # of connection points: 6
#     Node 8, Type 0, BuildingBlock: IZENUY_clean_sbu_0, # of connection points: 6
#     Node 9, Type 0, BuildingBlock: IZENUY_clean_sbu_0, # of connection points: 6
#     Node 10, Type 0, BuildingBlock: IZENUY_clean_sbu_0, # of connection points: 6
#     Node 11, Type 0, BuildingBlock: IZENUY_clean_sbu_0, # of connection points: 6
#     Node 12, Type 0, BuildingBlock: IZENUY_clean_sbu_0, # of connection points: 6
#     Node 13, Type 0, BuildingBlock: IZENUY_clean_sbu_0, # of connection points: 6
#     Node 14, Type 0, BuildingBlock: IZENUY_clean_sbu_0, # of connection points: 6
#     Node 15, Type 0, BuildingBlock: IZENUY_clean_sbu_0, # of connection points: 6
#     Node 16, Type 0, BuildingBlock: IZENUY_clean_sbu_0, # of connection points: 6
#     Node 17, Type 0, BuildingBlock: IZENUY_clean_sbu_0, # of connection points: 6
#     Node 18, Type 0, BuildingBlock: IZENUY_clean_sbu_0, # of connection points: 6
#     Node 19, Type 0, BuildingBlock: IZENUY_clean_sbu_0, # of connection points: 6
#     Node 20, Type 0, BuildingBlock: IZENUY_clean_sbu_0, # of connection points: 6
#     Node 21, Type 0, BuildingBlock: IZENUY_clean_sbu_0, # of connection points: 6
#     Node 22, Type 0, BuildingBlock: IZENUY_clean_sbu_0, # of connection points: 6
#     Node 23, Type 0, BuildingBlock: IZENUY_clean_sbu_0, # of connection points: 6
#     Edge 24, Type (0, 0), BuildingBlock: AJUNOK_clean_linker_0, # of connection points: 2
#     Edge 25, Type (0, 0), BuildingBlock: AJUNOK_clean_linker_0, # of connection points: 2
#     Edge 26, Type (0, 0), BuildingBlock: AJUNOK_clean_linker_0, # of connection points: 2
#     Edge 27, Type (0, 0), BuildingBlock: AJUNOK_clean_linker_0, # of connection points: 2
#     Edge 28, Type (0, 0), BuildingBlock: AJUNOK_clean_linker_0, # of connection points: 2
#     Edge 29, Type (0, 0), BuildingBlock: AJUNOK_clean_linker_0, # of connection points: 2
#     Edge 30, Type (0, 0), BuildingBlock: AJUNOK_clean_linker_0, # of connection points: 2
#     Edge 31, Type (0, 0), BuildingBlock: AJUNOK_clean_linker_0, # of connection points: 2
#     Edge 32, Type (0, 0), BuildingBlock: AJUNOK_clean_linker_0, # of connection points: 2
#     Edge 33, Type (0, 0), BuildingBlock: AJUNOK_clean_linker_0, # of connection points: 2
#     Edge 34, Type (0, 0), BuildingBlock: AJUNOK_clean_linker_0, # of connection points: 2
#     Edge 35, Type (0, 0), BuildingBlock: AJUNOK_clean_linker_0, # of connection points: 2
#     Edge 36, Type (0, 0), BuildingBlock: AJUNOK_clean_linker_0, # of connection points: 2
#     Edge 37, Type (0, 0), BuildingBlock: AJUNOK_clean_linker_0, # of connection points: 2
#     Edge 38, Type (0, 0), BuildingBlock: AJUNOK_clean_linker_0, # of connection points: 2
#     Edge 39, Type (0, 0), BuildingBlock: AJUNOK_clean_linker_0, # of connection points: 2
#     Edge 40, Type (0, 0), BuildingBlock: AJUNOK_clean_linker_0, # of connection points: 2
#     Edge 41, Type (0, 0), BuildingBlock: AJUNOK_clean_linker_0, # of connection points: 2
#     Edge 42, Type (0, 0), BuildingBlock: AJUNOK_clean_linker_0, # of connection points: 2
#     Edge 43, Type (0, 0), BuildingBlock: AJUNOK_clean_linker_0, # of connection points: 2
#     Edge 44, Type (0, 0), BuildingBlock: AJUNOK_clean_linker_0, # of connection points: 2
#     Edge 45, Type (0, 0), BuildingBlock: AJUNOK_clean_linker_0, # of connection points: 2
#     Edge 46, Type (0, 0), BuildingBlock: AJUNOK_clean_linker_0, # of connection points: 2
#     Edge 47, Type (0, 0), BuildingBlock: AJUNOK_clean_linker_0, # of connection points: 2
#     Edge 48, Type (0, 0), BuildingBlock: AJUNOK_clean_linker_0, # of connection points: 2
#     Edge 49, Type (0, 0), BuildingBlock: AJUNOK_clean_linker_0, # of connection points: 2
#     Edge 50, Type (0, 0), BuildingBlock: AJUNOK_clean_linker_0, # of connection points: 2
#     Edge 51, Type (0, 0), BuildingBlock: AJUNOK_clean_linker_0, # of connection points: 2
#     Edge 52, Type (0, 0), BuildingBlock: AJUNOK_clean_linker_0, # of connection points: 2
#     Edge 53, Type (0, 0), BuildingBlock: AJUNOK_clean_linker_0, # of connection points: 2
#     Edge 54, Type (0, 0), BuildingBlock: AJUNOK_clean_linker_0, # of connection points: 2
#     Edge 55, Type (0, 0), BuildingBlock: AJUNOK_clean_linker_0, # of connection points: 2
#     Edge 56, Type (0, 0), BuildingBlock: AJUNOK_clean_linker_0, # of connection points: 2
#     Edge 57, Type (0, 0), BuildingBlock: AJUNOK_clean_linker_0, # of connection points: 2
#     Edge 58, Type (0, 0), BuildingBlock: AJUNOK_clean_linker_0, # of connection points: 2
#     Edge 59, Type (0, 0), BuildingBlock: AJUNOK_clean_linker_0, # of connection points: 2
#     Edge 60, Type (0, 0), BuildingBlock: AJUNOK_clean_linker_0, # of connection points: 2
#     Edge 61, Type (0, 0), BuildingBlock: AJUNOK_clean_linker_0, # of connection points: 2
#     Edge 62, Type (0, 0), BuildingBlock: AJUNOK_clean_linker_0, # of connection points: 2
#     Edge 63, Type (0, 0), BuildingBlock: AJUNOK_clean_linker_0, # of connection points: 2
#     Edge 64, Type (0, 0), BuildingBlock: AJUNOK_clean_linker_0, # of connection points: 2
#     Edge 65, Type (0, 0), BuildingBlock: AJUNOK_clean_linker_0, # of connection points: 2
#     Edge 66, Type (0, 0), BuildingBlock: AJUNOK_clean_linker_0, # of connection points: 2
#     Edge 67, Type (0, 0), BuildingBlock: AJUNOK_clean_linker_0, # of connection points: 2
#     Edge 68, Type (0, 0), BuildingBlock: AJUNOK_clean_linker_0, # of connection points: 2
#     Edge 69, Type (0, 0), BuildingBlock: AJUNOK_clean_linker_0, # of connection points: 2
#     Edge 70, Type (0, 0), BuildingBlock: AJUNOK_clean_linker_0, # of connection points: 2
#     Edge 71, Type (0, 0), BuildingBlock: AJUNOK_clean_linker_0, # of connection points: 2
#     Edge 72, Type (0, 0), BuildingBlock: AJUNOK_clean_linker_0, # of connection points: 2
#     Edge 73, Type (0, 0), BuildingBlock: AJUNOK_clean_linker_0, # of connection points: 2
#     Edge 74, Type (0, 0), BuildingBlock: AJUNOK_clean_linker_0, # of connection points: 2
#     Edge 75, Type (0, 0), BuildingBlock: AJUNOK_clean_linker_0, # of connection points: 2
#     Edge 76, Type (0, 0), BuildingBlock: AJUNOK_clean_linker_0, # of connection points: 2
#     Edge 77, Type (0, 0), BuildingBlock: AJUNOK_clean_linker_0, # of connection points: 2
#     Edge 78, Type (0, 0), BuildingBlock: AJUNOK_clean_linker_0, # of connection points: 2
#     Edge 79, Type (0, 0), BuildingBlock: AJUNOK_clean_linker_0, # of connection points: 2
#     Edge 80, Type (0, 0), BuildingBlock: AJUNOK_clean_linker_0, # of connection points: 2
#     Edge 81, Type (0, 0), BuildingBlock: AJUNOK_clean_linker_0, # of connection points: 2
#     Edge 82, Type (0, 0), BuildingBlock: AJUNOK_clean_linker_0, # of connection points: 2
#     Edge 83, Type (0, 0), BuildingBlock: AJUNOK_clean_linker_0, # of connection points: 2
#     Edge 84, Type (0, 0), BuildingBlock: AJUNOK_clean_linker_0, # of connection points: 2
#     Edge 85, Type (0, 0), BuildingBlock: AJUNOK_clean_linker_0, # of connection points: 2
#     Edge 86, Type (0, 0), BuildingBlock: AJUNOK_clean_linker_0, # of connection points: 2
#     Edge 87, Type (0, 0), BuildingBlock: AJUNOK_clean_linker_0, # of connection points: 2
#     Edge 88, Type (0, 0), BuildingBlock: AJUNOK_clean_linker_0, # of connection points: 2
#     Edge 89, Type (0, 0), BuildingBlock: AJUNOK_clean_linker_0, # of connection points: 2
#     Edge 90, Type (0, 0), BuildingBlock: AJUNOK_clean_linker_0, # of connection points: 2
#     Edge 91, Type (0, 0), BuildingBlock: AJUNOK_clean_linker_0, # of connection points: 2
#     Edge 92, Type (0, 0), BuildingBlock: AJUNOK_clean_linker_0, # of connection points: 2
#     Edge 93, Type (0, 0), BuildingBlock: AJUNOK_clean_linker_0, # of connection points: 2
#     Edge 94, Type (0, 0), BuildingBlock: AJUNOK_clean_linker_0, # of connection points: 2
#     Edge 95, Type (0, 0), BuildingBlock: AJUNOK_clean_linker_0, # of connection points: 2
# Relax obj value: 0.536
# Max RMSD: 0.236
# Mean RMSD: 0.235
data_MOF--net-pyr-e--node1-IZENUY_clean_sbu_0--edge1-AJUNOK_clean_linker_0
_symmetry_space_group_name_H-M    P1
_symmetry_Int_Tables_number       1
_symmetry_cell_setting            triclinic
loop_
_symmetry_equiv_pos_as_xyz
'x, y, z'
_cell_length_a     33.910701
_cell_length_b     33.853911
_cell_length_c     33.898984
_cell_angle_alpha  89.980469
_cell_angle_beta   90.022564
_cell_angle_gamma 89.790715
loop_
_atom_site_label
_atom_site_type_symbol
_atom_site_fract_x
_atom_site_fract_y
_atom_site_fract_z
_atom_type_partial_charge
Fe0 Fe 0.05986 0.2645 0.07249 0.0
Fe1 Fe 0.00592 0.23396 0.00604 0.0
O2 O 0.02387 0.27334 0.03574 0.0
Fe3 Fe 0.00611 0.32169 0.02786 0.0
O4 O 0.05522 0.33999 0.01657 0.0
O5 O 0.08465 0.31171 0.06688 0.0
O6 O 0.09407 0.24429 0.03626 0.0
C7 C 0.08678 0.21455 0.01499 0.0
C8 C 0.01254 0.31783 0.11098 0.0
O9 O 0.05156 0.20484 0.00772 0.0
C10 C 0.93759 0.2813 0.01852 0.0
O11 O 0.04124 0.21592 0.08427 0.0
O12 O 0.98685 0.20798 0.0492 0.0
O13 O 0.01001 0.33712 0.07922 0.0
O14 O 0.02854 0.28409 0.11186 0.0
C15 C 0.0158 0.29212 0.95119 0.0
O16 O 0.95634 0.25568 0.99863 0.0
O17 O 0.95616 0.30634 0.03879 0.0
C18 C 0.00859 0.19915 0.0783 0.0
O19 O 0.02503 0.25744 0.96141 0.0
O20 O 0.9988 0.3153 0.97492 0.0
C21 C 0.08467 0.33655 0.03917 0.0
Fe22 Fe 0.48521 0.75984 0.51516 0.0
Fe23 Fe 0.47685 0.67291 0.53936 0.0
O24 O 0.46498 0.72295 0.54663 0.0
Fe25 Fe 0.43307 0.73576 0.58594 0.0
O26 O 0.41143 0.77837 0.56006 0.0
O27 O 0.43652 0.77651 0.50006 0.0
O28 O 0.48608 0.72772 0.4709 0.0
C29 C 0.46754 0.69604 0.4634 0.0
C30 C 0.48692 0.7945 0.59168 0.0
O31 O 0.45566 0.67385 0.49067 0.0
C32 C 0.48164 0.67679 0.61951 0.0
O33 O 0.53588 0.74613 0.52744 0.0
O34 O 0.52621 0.68231 0.5203 0.0
O35 O 0.47121 0.76519 0.60808 0.0
O36 O 0.48731 0.79785 0.55434 0.0
C37 C 0.39592 0.6708 0.5578 0.0
O38 O 0.49921 0.66961 0.58761 0.0
O39 O 0.44905 0.6953 0.61919 0.0
C40 C 0.54911 0.7115 0.5231 0.0
O41 O 0.42926 0.65394 0.5568 0.0
O42 O 0.39293 0.70695 0.56567 0.0
C43 C 0.40995 0.78738 0.52376 0.0
Fe44 Fe 0.57093 0.23314 0.91912 0.0
Fe45 Fe 0.5155 0.26144 0.98579 0.0
O46 O 0.54009 0.22292 0.95984 0.0
Fe47 Fe 0.53343 0.17356 0.97447 0.0
O48 O 0.58179 0.15603 0.95788 0.0
O49 O 0.61378 0.20974 0.94188 0.0
O50 O 0.58841 0.28034 0.93937 0.0
C51 C 0.58733 0.29517 0.97376 0.0
C52 C 0.52676 0.16716 0.89456 0.0
O53 O 0.5618 0.28473 0.99857 0.0
C54 C 0.45759 0.20601 0.98579 0.0
O55 O 0.53087 0.25666 0.89336 0.0
O56 O 0.50954 0.29404 0.94167 0.0
O57 O 0.5107 0.16182 0.92771 0.0
O58 O 0.5577 0.18797 0.89163 0.0
C59 C 0.54196 0.20873 0.04575 0.0
O60 O 0.46685 0.2406 0.97538 0.0
O61 O 0.48379 0.18081 0.99412 0.0
C62 C 0.51284 0.287 0.90487 0.0
O63 O 0.51835 0.23574 0.03422 0.0
O64 O 0.55569 0.18385 0.02164 0.0
C65 C 0.61381 0.17431 0.95321 0.0
Fe66 Fe 0.99043 0.73633 0.48723 0.0
Fe67 Fe 0.9819 0.82551 0.47348 0.0
O68 O 0.96883 0.77675 0.4613 0.0
Fe69 Fe 0.93411 0.76922 0.42312 0.0
O70 O 0.91278 0.72483 0.44521 0.0
O71 O 0.94275 0.71781 0.50252 0.0
O72 O 0.99237 0.7632 0.53497 0.0
C73 C 0.97291 0.79336 0.54629 0.0
C74 C 0.98698 0.71028 0.40702 0.0
O75 O 0.96176 0.81938 0.52214 0.0
C76 C 0.98216 0.83112 0.39377 0.0
O77 O 0.04065 0.75116 0.47451 0.0
O78 O 0.0318 0.81329 0.49045 0.0
O79 O 0.9694 0.74092 0.39531 0.0
O80 O 0.99116 0.7032 0.44367 0.0
C81 C 0.90025 0.83334 0.4572 0.0
O82 O 0.00241 0.83358 0.42491 0.0
O83 O 0.94984 0.81229 0.3938 0.0
C84 C 0.05453 0.78461 0.48296 0.0
O85 O 0.93454 0.84777 0.45921 0.0
O86 O 0.89579 0.79748 0.44852 0.0
C87 C 0.9143 0.7108 0.47975 0.0
Fe88 Fe 0.01336 0.04 0.32268 0.0
Fe89 Fe 0.0743 0.06901 0.26403 0.0
O90 O 0.03072 0.04281 0.27438 0.0
Fe91 Fe 0.00381 0.01886 0.2364 0.0
O92 O 0.95501 0.02347 0.26148 0.0
O93 O 0.96916 0.06521 0.30834 0.0
O94 O 0.03188 0.08813 0.33811 0.0
C95 C 0.04063 0.1183 0.31817 0.0
C96 C 0.00222 0.96329 0.29322 0.0
O97 O 0.05543 0.11503 0.28433 0.0
C98 C 0.084 0.0101 0.21168 0.0
O99 O 0.05707 0.01524 0.33845 0.0
O100 O 0.09981 0.05541 0.31098 0.0
O101 O 0.01315 0.97085 0.25849 0.0
O102 O 0.99192 0.99061 0.3166 0.0
C103 C 0.02024 0.08887 0.20229 0.0
O104 O 0.09619 0.02517 0.24322 0.0
O105 O 0.04733 0.0108 0.20398 0.0
C106 C 0.09145 0.02864 0.33602 0.0
O107 O 0.05535 0.08646 0.21571 0.0
O108 O 0.99357 0.06553 0.21323 0.0
C109 C 0.9441 0.04956 0.28622 0.0
Fe110 Fe 0.4785 0.98868 0.73819 0.0
Fe111 Fe 0.46661 0.97083 0.82554 0.0
O112 O 0.45199 0.96431 0.77631 0.0
Fe113 Fe 0.41121 0.93366 0.76573 0.0
O114 O 0.43218 0.91544 0.71897 0.0
O115 O 0.49151 0.94214 0.71572 0.0
O116 O 0.52641 0.98627 0.76419 0.0
C117 C 0.53769 0.96199 0.79045 0.0
C118 C 0.39864 0.99244 0.71209 0.0
O119 O 0.51361 0.94822 0.81513 0.0
C120 C 0.38681 0.97798 0.83228 0.0
O121 O 0.46751 0.03741 0.75858 0.0
O122 O 0.48604 0.02036 0.81827 0.0
O123 O 0.38591 0.97387 0.74157 0.0
O124 O 0.43538 0.99438 0.70529 0.0
C125 C 0.44598 0.8907 0.82454 0.0
O126 O 0.4201 0.99367 0.83742 0.0
O127 O 0.38331 0.94753 0.81064 0.0
C128 C 0.47697 0.04655 0.79339 0.0
O129 O 0.4501 0.92272 0.84295 0.0
O130 O 0.43364 0.89061 0.78949 0.0
C131 C 0.46719 0.91601 0.70575 0.0
Fe132 Fe 0.52081 0.48805 0.76341 0.0
Fe133 Fe 0.53796 0.47705 0.67529 0.0
O134 O 0.54872 0.46585 0.7248 0.0
Fe135 Fe 0.58782 0.43272 0.73504 0.0
O136 O 0.56461 0.41226 0.77971 0.0
O137 O 0.50588 0.44032 0.78268 0.0
O138 O 0.47397 0.48883 0.73441 0.0
C139 C 0.46398 0.46935 0.70381 0.0
C140 C 0.60023 0.48867 0.79157 0.0
O141 O 0.48952 0.45635 0.68023 0.0
C142 C 0.61787 0.47984 0.67288 0.0
O143 O 0.53328 0.53792 0.74755 0.0
O144 O 0.51995 0.52709 0.68513 0.0
O145 O 0.61328 0.47017 0.76217 0.0
O146 O 0.56327 0.49079 0.7981 0.0
C147 C 0.55516 0.39567 0.67239 0.0
O148 O 0.586 0.49848 0.66838 0.0
O149 O 0.61839 0.4476 0.6921 0.0
C150 C 0.5263 0.55061 0.71332 0.0
O151 O 0.55367 0.42895 0.65553 0.0
O152 O 0.56447 0.39287 0.70814 0.0
C153 C 0.52919 0.41271 0.79179 0.0
Fe154 Fe 0.9222 0.56697 0.23251 0.0
Fe155 Fe 0.9846 0.50893 0.26486 0.0
O156 O 0.96007 0.5318 0.22448 0.0
Fe157 Fe 0.97355 0.51999 0.17571 0.0
O158 O 0.9869 0.57097 0.16537 0.0
O159 O 0.93186 0.59622 0.18798 0.0
O160 O 0.95617 0.599 0.25866 0.0
C161 C 0.97559 0.5887 0.28888 0.0
C162 C 0.8913 0.52254 0.17292 0.0
O163 O 0.98055 0.55246 0.29721 0.0
C164 C 0.97664 0.44659 0.20862 0.0
O165 O 0.90561 0.5447 0.27816 0.0
O166 O 0.93824 0.48863 0.28407 0.0
O167 O 0.92403 0.5266 0.15566 0.0
O168 O 0.88612 0.53615 0.20717 0.0
C169 C 0.04635 0.52362 0.21472 0.0
O170 O 0.99324 0.46115 0.23897 0.0
O171 O 0.96094 0.46881 0.18324 0.0
C172 C 0.90797 0.50971 0.29073 0.0
O173 O 0.0321 0.52876 0.24873 0.0
O174 O 0.0254 0.51061 0.18692 0.0
C175 C 0.96325 0.59974 0.16826 0.0
Fe176 Fe 0.26315 0.08352 0.07464 0.0
Fe177 Fe 0.23544 0.0166 0.01913 0.0
O178 O 0.27371 0.04293 0.04345 0.0
Fe179 Fe 0.32309 0.02871 0.03631 0.0
O180 O 0.34013 0.04444 0.0849 0.0
O181 O 0.28642 0.06044 0.11699 0.0
O182 O 0.21647 0.06254 0.09279 0.0
C183 C 0.20304 0.02758 0.09207 0.0
C184 C 0.32994 0.10883 0.03107 0.0
O185 O 0.21275 0.00337 0.06555 0.0
C186 C 0.29013 0.01882 0.96071 0.0
O187 O 0.23934 0.10939 0.03491 0.0
O188 O 0.20268 0.06039 0.01383 0.0
O189 O 0.3347 0.07591 0.0143 0.0
O190 O 0.30821 0.11163 0.06152 0.0
C191 C 0.28958 0.95659 0.04363 0.0
O192 O 0.2554 0.02789 0.9705 0.0
O193 O 0.31575 0.01016 0.98633 0.0
C194 C 0.20996 0.0972 0.016 0.0
O195 O 0.26192 0.96825 0.02091 0.0
O196 O 0.31357 0.98099 0.05793 0.0
C197 C 0.32131 0.04793 0.1168 0.0
Fe198 Fe 0.76331 0.42131 0.92912 0.0
Fe199 Fe 0.74329 0.48552 0.99091 0.0
O200 O 0.77736 0.45278 0.96803 0.0
Fe201 Fe 0.82655 0.45239 0.98412 0.0
O202 O 0.84331 0.46959 0.93618 0.0
O203 O 0.81026 0.4252 0.90246 0.0
O204 O 0.74603 0.46285 0.89981 0.0
C205 C 0.71951 0.48692 0.91049 0.0
C206 C 0.81337 0.37279 0.96997 0.0
O207 O 0.71294 0.49306 0.94669 0.0
C208 C 0.79134 0.4582 0.05496 0.0
O209 O 0.71456 0.41305 0.94897 0.0
O210 O 0.71183 0.44427 0.00635 0.0
O211 O 0.83669 0.40149 0.97098 0.0
O212 O 0.77909 0.37699 0.95617 0.0
C213 C 0.80945 0.53153 0.98385 0.0
O214 O 0.76749 0.48316 0.03991 0.0
O215 O 0.81087 0.43563 0.03242 0.0
C216 C 0.6993 0.41816 0.9826 0.0
O217 O 0.77309 0.52886 0.97542 0.0
O218 O 0.82597 0.50306 0.00064 0.0
C219 C 0.83548 0.45268 0.90387 0.0
Fe220 Fe 0.6737 0.53653 0.46985 0.0
Fe221 Fe 0.73466 0.58512 0.42596 0.0
O222 O 0.72347 0.54659 0.45937 0.0
Fe223 Fe 0.7613 0.51822 0.48258 0.0
O224 O 0.73189 0.47215 0.4834 0.0
O225 O 0.67868 0.4878 0.44931 0.0
O226 O 0.65436 0.55245 0.42189 0.0
C227 C 0.67122 0.55345 0.38875 0.0
C228 C 0.71015 0.5249 0.54384 0.0
O229 O 0.70706 0.56224 0.38611 0.0
C230 C 0.79157 0.59661 0.48203 0.0
O231 O 0.66721 0.58482 0.49111 0.0
O232 O 0.69264 0.61712 0.44105 0.0
O233 O 0.74465 0.5318 0.53193 0.0
O234 O 0.68258 0.51839 0.51976 0.0
C235 C 0.79009 0.52434 0.40737 0.0
O236 O 0.76286 0.61043 0.46294 0.0
O237 O 0.79679 0.55956 0.48516 0.0
C238 C 0.67341 0.61686 0.47327 0.0
O239 O 0.77845 0.56001 0.40575 0.0
O240 O 0.78094 0.50206 0.43564 0.0
C241 C 0.70219 0.46226 0.46277 0.0
Fe242 Fe 0.23329 0.91667 0.57639 0.0
Fe243 Fe 0.25562 0.97771 0.51245 0.0
O244 O 0.21959 0.94987 0.53863 0.0
Fe245 Fe 0.16988 0.9545 0.52584 0.0
O246 O 0.1568 0.97116 0.57457 0.0
O247 O 0.18838 0.92405 0.60615 0.0
O248 O 0.25509 0.95673 0.60411 0.0
C249 C 0.28263 0.97831 0.59147 0.0
C250 C 0.17769 0.87278 0.53773 0.0
O251 O 0.28979 0.98058 0.55477 0.0
C252 C 0.19799 0.96086 0.45316 0.0
O253 O 0.28015 0.90401 0.55341 0.0
O254 O 0.27935 0.93225 0.49463 0.0
O255 O 0.15647 0.90344 0.53703 0.0
O256 O 0.21259 0.87417 0.55034 0.0
C257 C 0.19796 0.0333 0.52287 0.0
O258 O 0.22703 0.98107 0.46538 0.0
O259 O 0.18197 0.93752 0.47686 0.0
C260 C 0.29047 0.90467 0.51755 0.0
O261 O 0.23376 0.02451 0.52928 0.0
O262 O 0.17355 0.00699 0.51277 0.0
C263 C 0.16433 0.95279 0.60604 0.0
Fe264 Fe 0.9355 0.7372 0.9253 0.0
Fe265 Fe 0.99291 0.68255 0.96879 0.0
O266 O 0.97297 0.72998 0.96114 0.0
Fe267 Fe 0.99098 0.76982 0.9903 0.0
O268 O 0.94493 0.79825 0.98997 0.0
O269 O 0.9022 0.7589 0.96172 0.0
O270 O 0.91084 0.68968 0.93448 0.0
C271 C 0.91443 0.66511 0.96249 0.0
C272 C 0.98725 0.80238 0.91637 0.0
O273 O 0.94539 0.66358 0.98315 0.0
C274 C 0.06004 0.72412 0.9755 0.0
O275 O 0.96537 0.71612 0.88508 0.0
O276 O 0.98659 0.66507 0.91863 0.0
O277 O 0.0082 0.79579 0.94662 0.0
O278 O 0.95444 0.78544 0.91069 0.0
C279 C 0.98623 0.71173 0.04562 0.0
O280 O 0.04136 0.69971 0.95462 0.0
O281 O 0.0412 0.7491 0.99614 0.0
C282 C 0.98252 0.68295 0.8864 0.0
O283 O 0.00327 0.68983 0.0209 0.0
O284 O 0.97399 0.74569 0.03577 0.0
C285 C 0.90968 0.78841 0.98326 0.0
Fe286 Fe 0.56884 0.26063 0.42777 0.0
Fe287 Fe 0.51991 0.32314 0.47049 0.0
O288 O 0.53248 0.27318 0.46297 0.0
Fe289 Fe 0.50879 0.2357 0.49106 0.0
O290 O 0.55122 0.202 0.49116 0.0
O291 O 0.5991 0.23738 0.46582 0.0
O292 O 0.59814 0.3053 0.43417 0.0
C293 C 0.59964 0.3301 0.4619 0.0
C294 C 0.51042 0.20313 0.41745 0.0
O295 O 0.57017 0.33585 0.4839 0.0
C296 C 0.44701 0.29064 0.4765 0.0
O297 O 0.54072 0.28308 0.38735 0.0
O298 O 0.52737 0.33811 0.41922 0.0
O299 O 0.48893 0.21284 0.44644 0.0
O300 O 0.54589 0.21406 0.41504 0.0
C301 C 0.52267 0.29188 0.5472 0.0
O302 O 0.46918 0.31354 0.45743 0.0
O303 O 0.46172 0.26268 0.49658 0.0
C304 C 0.52791 0.31819 0.38773 0.0
O305 O 0.50991 0.31735 0.52312 0.0
O306 O 0.52805 0.2564 0.53695 0.0
C307 C 0.58759 0.20924 0.4875 0.0
Fe308 Fe 0.47305 0.82553 0.02739 0.0
Fe309 Fe 0.48782 0.73728 0.01464 0.0
O310 O 0.4653 0.77624 0.04179 0.0
Fe311 Fe 0.4353 0.76635 0.08333 0.0
O312 O 0.39255 0.7912 0.0619 0.0
O313 O 0.42543 0.84406 0.04465 0.0
O314 O 0.44979 0.81648 0.98031 0.0
C315 C 0.46218 0.79149 0.95568 0.0
C316 C 0.48104 0.83181 0.10729 0.0
O317 O 0.48508 0.76365 0.96651 0.0
C318 C 0.49242 0.71073 0.09501 0.0
O319 O 0.52219 0.81689 0.00722 0.0
O320 O 0.53736 0.75609 0.02427 0.0
O321 O 0.4503 0.81085 0.11086 0.0
O322 O 0.4967 0.83658 0.07387 0.0
C323 C 0.41486 0.70657 0.02818 0.0
O324 O 0.49371 0.70396 0.05807 0.0
O325 O 0.47539 0.74122 0.10778 0.0
C326 C 0.54759 0.79072 0.01506 0.0
O327 O 0.44029 0.7161 0.00287 0.0
O328 O 0.41583 0.71997 0.06309 0.0
C329 C 0.39316 0.82644 0.04996 0.0
Fe330 Fe 0.0673 0.23447 0.57057 0.0
Fe331 Fe 0.02203 0.18241 0.51313 0.0
O332 O 0.03416 0.22981 0.53044 0.0
Fe333 Fe 0.01226 0.27162 0.50706 0.0
O334 O 0.05973 0.29157 0.49388 0.0
O335 O 0.09072 0.27902 0.55017 0.0
O336 O 0.1064 0.20609 0.54625 0.0
C337 C 0.1019 0.17157 0.53327 0.0
C338 C 0.01627 0.29513 0.58837 0.0
O339 O 0.06782 0.15812 0.52778 0.0
C340 C 0.94957 0.22176 0.50676 0.0
O341 O 0.04837 0.19034 0.59697 0.0
O342 O 0.99907 0.17063 0.5593 0.0
O343 O 0.01083 0.30269 0.55207 0.0
O344 O 0.03211 0.26307 0.59878 0.0
C345 C 0.03359 0.22039 0.44422 0.0
O346 O 0.97317 0.19575 0.49447 0.0
O347 O 0.96237 0.2545 0.51903 0.0
C348 C 0.01679 0.17066 0.59201 0.0
O349 O 0.04506 0.19311 0.46674 0.0
O350 O 0.01155 0.24806 0.45727 0.0
C351 C 0.08859 0.29622 0.51685 0.0
Fe352 Fe 0.91984 0.92869 0.74206 0.0
Fe353 Fe 0.9608 0.97282 0.67669 0.0
O354 O 0.95368 0.96492 0.72704 0.0
Fe355 Fe 0.97965 0.99425 0.76185 0.0
O356 O 0.98155 0.95478 0.79947 0.0
O357 O 0.95848 0.90268 0.76814 0.0
O358 O 0.92924 0.89526 0.70002 0.0
C359 C 0.95928 0.89291 0.6778 0.0
C360 C 0.90607 0.99194 0.79398 0.0
O361 O 0.97906 0.92333 0.66981 0.0
C362 C 0.96305 0.0481 0.69884 0.0
O363 O 0.87904 0.95375 0.71702 0.0
O364 O 0.91131 0.95878 0.66151 0.0
O365 O 0.93374 0.01385 0.78205 0.0
O366 O 0.90521 0.95546 0.78618 0.0
C367 C 0.03715 0.97954 0.70819 0.0
O368 O 0.94213 0.02228 0.68271 0.0
O369 O 0.98295 0.03879 0.72934 0.0
C370 C 0.87979 0.9618 0.68078 0.0
O371 O 0.01214 0.98794 0.68189 0.0
O372 O 0.02703 0.97584 0.74381 0.0
C373 C 0.97882 0.91754 0.79558 0.0
Fe374 Fe 0.51252 0.01354 0.26687 0.0
Fe375 Fe 0.57674 0.07188 0.23883 0.0
O376 O 0.53691 0.04003 0.22863 0.0
Fe377 Fe 0.52114 0.03394 0.17968 0.0
O378 O 0.47371 0.05455 0.19215 0.0
O379 O 0.46388 0.01393 0.24169 0.0
O380 O 0.49754 0.05878 0.29075 0.0
C381 C 0.52031 0.08678 0.29948 0.0
C382 C 0.51678 0.95736 0.20997 0.0
O383 O 0.55505 0.08927 0.28553 0.0
C384 C 0.60086 0.02991 0.17043 0.0
O385 O 0.55631 0.00981 0.29924 0.0
O386 O 0.60385 0.0325 0.26213 0.0
O387 O 0.5041 0.98347 0.18661 0.0
O388 O 0.52617 0.96606 0.24496 0.0
C389 C 0.54105 0.11473 0.18093 0.0
O390 O 0.60434 0.05931 0.19344 0.0
O391 O 0.56806 0.01323 0.16555 0.0
C392 C 0.59278 0.01444 0.29247 0.0
O393 O 0.55323 0.11445 0.21592 0.0
O394 O 0.53547 0.08288 0.16267 0.0
C395 C 0.45072 0.03851 0.21648 0.0
Fe396 Fe 0.4252 0.56381 0.26291 0.0
Fe397 Fe 0.46997 0.5109 0.32068 0.0
O398 O 0.46058 0.52642 0.27199 0.0
Fe399 Fe 0.48717 0.50463 0.23231 0.0
O400 O 0.48567 0.54904 0.20049 0.0
O401 O 0.46211 0.59486 0.23975 0.0
O402 O 0.43411 0.59103 0.30869 0.0
C403 C 0.4632 0.59063 0.33201 0.0
C404 C 0.41161 0.50761 0.20355 0.0
O405 O 0.48433 0.56013 0.33557 0.0
C406 C 0.47595 0.43972 0.2854 0.0
O407 O 0.38571 0.53538 0.2855 0.0
O408 O 0.41955 0.51815 0.33809 0.0
O409 O 0.44138 0.48579 0.21046 0.0
O410 O 0.41004 0.54284 0.21588 0.0
C411 C 0.5454 0.51561 0.28705 0.0
O412 O 0.45612 0.46081 0.30871 0.0
O413 O 0.49436 0.45591 0.25702 0.0
C414 C 0.38738 0.52045 0.3195 0.0
O415 O 0.52226 0.50081 0.31218 0.0
O416 O 0.5338 0.5232 0.25236 0.0
C417 C 0.48186 0.58519 0.20969 0.0
Fe418 Fe 0.01714 0.49209 0.73843 0.0
Fe419 Fe 0.08444 0.4368 0.76676 0.0
O420 O 0.04455 0.46913 0.77701 0.0
Fe421 Fe 0.03238 0.47866 0.82658 0.0
O422 O 0.98445 0.45749 0.81959 0.0
O423 O 0.96975 0.49121 0.76593 0.0
O424 O 0.0037 0.44453 0.71698 0.0
C425 C 0.02787 0.41756 0.70769 0.0
C426 C 0.02046 0.55337 0.7911 0.0
O427 O 0.06272 0.41714 0.72121 0.0
C428 C 0.11222 0.48251 0.83072 0.0
O429 O 0.05998 0.49621 0.70497 0.0
O430 O 0.11 0.4753 0.7408 0.0
O431 O 0.0138 0.52872 0.81818 0.0
O432 O 0.02832 0.54192 0.75649 0.0
C433 C 0.05061 0.3975 0.82766 0.0
O434 O 0.11365 0.45094 0.8106 0.0
O435 O 0.08 0.50048 0.83544 0.0
C436 C 0.09689 0.4933 0.71105 0.0
O437 O 0.06118 0.39579 0.79218 0.0
O438 O 0.0482 0.43028 0.8453 0.0
C439 C 0.95942 0.47025 0.79531 0.0
Fe440 Fe 0.73553 0.91695 0.92536 0.0
Fe441 Fe 0.67243 0.96689 0.96524 0.0
O442 O 0.72251 0.95482 0.95912 0.0
Fe443 Fe 0.75982 0.98062 0.98559 0.0
O444 O 0.79575 0.97744 0.9451 0.0
O445 O 0.76184 0.95265 0.89553 0.0
O446 O 0.69324 0.92319 0.89241 0.0
C447 C 0.67215 0.95323 0.88621 0.0
C448 C 0.78846 0.90474 0.98753 0.0
O449 O 0.66652 0.97783 0.91333 0.0
C450 C 0.69626 0.9762 0.04116 0.0
O451 O 0.70948 0.87982 0.95414 0.0
O452 O 0.6554 0.91577 0.96005 0.0
O453 O 0.77803 0.93443 0.00791 0.0
O454 O 0.78016 0.90282 0.95136 0.0
C455 C 0.71005 0.04159 0.96497 0.0
O456 O 0.67455 0.95762 0.01758 0.0
O457 O 0.72928 0.98971 0.03001 0.0
C458 C 0.67381 0.88339 0.96435 0.0
O459 O 0.68098 0.01948 0.97166 0.0
O460 O 0.74494 0.02842 0.96505 0.0
C461 C 0.7892 0.97451 0.90834 0.0
Fe462 Fe 0.17089 0.54346 0.03362 0.0
Fe463 Fe 0.25613 0.51639 0.02018 0.0
O464 O 0.22155 0.54843 0.04341 0.0
Fe465 Fe 0.23702 0.58592 0.07608 0.0
O466 O 0.20847 0.56546 0.1166 0.0
O467 O 0.15415 0.56164 0.08193 0.0
O468 O 0.1711 0.49444 0.05423 0.0
C469 C 0.19174 0.46673 0.0403 0.0
C470 C 0.17866 0.62313 0.02965 0.0
O471 O 0.22231 0.47363 0.0198 0.0
C472 C 0.29367 0.59137 0.01946 0.0
O473 O 0.17736 0.52443 0.98375 0.0
O474 O 0.2404 0.53131 0.97096 0.0
O475 O 0.19761 0.62146 0.06196 0.0
O476 O 0.16906 0.59195 0.012 0.0
C477 C 0.28723 0.5206 0.09428 0.0
O478 O 0.29541 0.55396 0.0173 0.0
O479 O 0.26632 0.60838 0.03792 0.0
C480 C 0.20522 0.52808 0.95941 0.0
O481 O 0.27463 0.49866 0.0671 0.0
O482 O 0.27907 0.55722 0.09532 0.0
C483 C 0.17175 0.56087 0.11478 0.0
Fe484 Fe 0.26629 0.42638 0.56795 0.0
Fe485 Fe 0.32512 0.47068 0.51639 0.0
O486 O 0.27618 0.462 0.5311 0.0
Fe487 Fe 0.23723 0.48941 0.50904 0.0
O488 O 0.20552 0.48849 0.55264 0.0
O489 O 0.24316 0.46353 0.59916 0.0
O490 O 0.312 0.43425 0.59569 0.0
C491 C 0.33513 0.46345 0.59626 0.0
C492 C 0.20649 0.41481 0.51176 0.0
O493 O 0.3393 0.48488 0.56605 0.0
C494 C 0.28957 0.47589 0.44494 0.0
O495 O 0.28837 0.38671 0.53886 0.0
O496 O 0.34168 0.42012 0.52397 0.0
O497 O 0.21455 0.44422 0.49003 0.0
O498 O 0.21929 0.41228 0.54667 0.0
C499 C 0.29258 0.54673 0.52024 0.0
O500 O 0.31373 0.45694 0.46602 0.0
O501 O 0.2621 0.49568 0.46094 0.0
C502 C 0.32243 0.38834 0.52412 0.0
O503 O 0.31749 0.52296 0.50597 0.0
O504 O 0.25777 0.53578 0.52774 0.0
C505 C 0.21352 0.48376 0.58876 0.0
Fe506 Fe 0.73771 0.01817 0.49239 0.0
Fe507 Fe 0.76156 0.08835 0.43931 0.0
O508 O 0.77462 0.04934 0.47187 0.0
Fe509 Fe 0.82479 0.0408 0.48316 0.0
O510 O 0.82006 0.98765 0.48844 0.0
O511 O 0.7597 0.97395 0.46928 0.0
O512 O 0.70416 0.02163 0.45028 0.0
C513 C 0.71006 0.031 0.41472 0.0
C514 C 0.79242 0.02666 0.55538 0.0
O515 O 0.7378 0.05404 0.4055 0.0
C516 C 0.81982 0.12429 0.48243 0.0
O517 O 0.71352 0.06034 0.5165 0.0
O518 O 0.71551 0.09897 0.46407 0.0
O519 O 0.81592 0.04805 0.53581 0.0
O520 O 0.7645 0.0088 0.53834 0.0
C521 C 0.82782 0.05546 0.40308 0.0
O522 O 0.78456 0.12591 0.4705 0.0
O523 O 0.83939 0.09257 0.48031 0.0
C524 C 0.70393 0.09189 0.49867 0.0
O525 O 0.80541 0.08462 0.40873 0.0
O526 O 0.83632 0.03221 0.43106 0.0
C527 C 0.79544 0.96388 0.47414 0.0
C528 C 0.03286 0.13602 0.10296 0.0
C529 C 0.00193 0.16382 0.10194 0.0
C530 C 0.03824 0.11142 0.13549 0.0
C531 C 0.01226 0.1132 0.16755 0.0
H532 H 0.05513 0.13581 0.08001 0.0
H533 H 0.06357 0.09181 0.13612 0.0
S534 S 0.92393 0.17716 0.177 0.0
N535 N 0.94341 0.18969 0.1341 0.0
N536 N 0.95218 0.14148 0.19484 0.0
C537 C 0.97916 0.13819 0.1654 0.0
C538 C 0.97421 0.16399 0.13251 0.0
C539 C 0.47064 0.86394 0.60766 0.0
C540 C 0.49193 0.82939 0.61681 0.0
C541 C 0.46367 0.89275 0.63651 0.0
C542 C 0.4785 0.88808 0.6749 0.0
H543 H 0.45655 0.86721 0.57913 0.0
H544 H 0.44536 0.91803 0.62925 0.0
S545 S 0.53953 0.80544 0.71236 0.0
N546 N 0.53002 0.79358 0.66603 0.0
N547 N 0.51806 0.8487 0.71983 0.0
C548 C 0.50215 0.85527 0.68361 0.0
C549 C 0.50866 0.82563 0.65456 0.0
C550 C 0.50585 0.38912 0.85811 0.0
C551 C 0.51607 0.38099 0.8187 0.0
C552 C 0.50089 0.3583 0.88569 0.0
C553 C 0.50575 0.31842 0.87457 0.0
H554 H 0.50443 0.41942 0.86829 0.0
H555 H 0.49621 0.36597 0.91635 0.0
S556 S 0.52292 0.28237 0.77218 0.0
N557 N 0.52459 0.33094 0.76845 0.0
N558 N 0.51379 0.27306 0.8191 0.0
C559 C 0.51151 0.3103 0.83402 0.0
C560 C 0.51728 0.34157 0.80642 0.0
C561 C 0.99085 0.63893 0.38779 0.0
C562 C 0.99395 0.67898 0.37721 0.0
C563 C 0.98718 0.60947 0.35888 0.0
C564 C 0.98624 0.61909 0.31842 0.0
H565 H 0.98854 0.63047 0.41853 0.0
H566 H 0.98263 0.57929 0.36844 0.0
S567 S 0.00126 0.71853 0.27523 0.0
N568 N 0.00193 0.72591 0.32336 0.0
N569 N 0.99448 0.67063 0.26927 0.0
C570 C 0.9926 0.65855 0.30747 0.0
C571 C 0.99667 0.68844 0.3368 0.0
C572 C 0.15417 0.00665 0.18963 0.0
C573 C 0.11372 0.00478 0.17977 0.0
C574 C 0.18306 0.01281 0.16081 0.0
C575 C 0.17281 0.01626 0.12095 0.0
H576 H 0.16352 0.00573 0.22018 0.0
H577 H 0.21352 0.01608 0.1699 0.0
S578 S 0.07258 0.00926 0.07826 0.0
N579 N 0.06574 0.00389 0.12621 0.0
N580 N 0.12061 0.01442 0.0721 0.0
C581 C 0.13319 0.0116 0.11006 0.0
C582 C 0.1035 0.00588 0.13945 0.0
C583 C 0.38081 0.99711 0.64068 0.0
C584 C 0.36982 0.00147 0.6805 0.0
C585 C 0.35218 0.99297 0.61106 0.0
C586 C 0.31173 0.99297 0.62039 0.0
H587 H 0.41153 0.99344 0.6327 0.0
H588 H 0.36189 0.98654 0.58129 0.0
S589 S 0.26782 0.01303 0.71854 0.0
N590 N 0.31588 0.0128 0.72647 0.0
N591 N 0.26221 0.00474 0.67087 0.0
C592 C 0.30049 0.00165 0.65932 0.0
C593 C 0.32953 0.00605 0.68936 0.0
C594 C 0.67029 0.49753 0.81164 0.0
C595 C 0.62996 0.50026 0.82164 0.0
C596 C 0.69961 0.49691 0.84056 0.0
C597 C 0.69003 0.4998 0.8807 0.0
H598 H 0.67934 0.49292 0.78134 0.0
H599 H 0.72979 0.49155 0.83145 0.0
S600 S 0.5901 0.51884 0.92179 0.0
N601 N 0.58271 0.51355 0.87393 0.0
N602 N 0.63813 0.51407 0.92848 0.0
C603 C 0.65045 0.50819 0.89079 0.0
C604 C 0.6203 0.50801 0.8612 0.0
C605 C 0.88548 0.49234 0.35858 0.0
C606 C 0.87666 0.49801 0.31843 0.0
C607 C 0.85629 0.49796 0.38763 0.0
C608 C 0.81787 0.51 0.37717 0.0
H609 H 0.91568 0.48727 0.36779 0.0
H610 H 0.8646 0.49601 0.41843 0.0
S611 S 0.77867 0.52224 0.276 0.0
N612 N 0.82562 0.51073 0.26969 0.0
N613 N 0.7714 0.5223 0.32418 0.0
C614 C 0.80805 0.51235 0.33715 0.0
C615 C 0.83732 0.50593 0.30776 0.0
C616 C 0.13964 0.11635 0.00328 0.0
C617 C 0.17958 0.12711 0.00544 0.0
C618 C 0.10975 0.14512 0.00365 0.0
C619 C 0.11868 0.18569 0.00656 0.0
H620 H 0.13121 0.08552 0.00404 0.0
H621 H 0.07942 0.13523 0.00429 0.0
S622 S 0.21857 0.22966 0.00468 0.0
N623 N 0.22649 0.18151 0.00397 0.0
N624 N 0.1702 0.23528 0.00568 0.0
C625 C 0.15842 0.19694 0.00527 0.0
C626 C 0.18887 0.16774 0.00437 0.0
C627 C 0.6357 0.33374 0.01449 0.0
C628 C 0.61049 0.33097 0.9816 0.0
C629 C 0.66214 0.36557 0.01819 0.0
C630 C 0.66301 0.39569 0.98961 0.0
H631 H 0.63699 0.30989 0.03577 0.0
H632 H 0.68409 0.36483 0.04141 0.0
S633 S 0.59853 0.40473 0.90175 0.0
N634 N 0.58521 0.36282 0.92262 0.0
N635 N 0.6333 0.42297 0.9304 0.0
C636 C 0.63504 0.39492 0.95906 0.0
C637 C 0.60925 0.36235 0.95471 0.0
C638 C 0.89318 0.64136 0.49041 0.0
C639 C 0.88428 0.68192 0.49114 0.0
C640 C 0.86296 0.61308 0.4913 0.0
C641 C 0.82309 0.62475 0.49283 0.0
H642 H 0.92335 0.63156 0.48625 0.0
H643 H 0.87076 0.58224 0.48762 0.0
S644 S 0.78566 0.72757 0.50215 0.0
N645 N 0.83394 0.73236 0.49815 0.0
N646 N 0.77708 0.67961 0.50092 0.0
C647 C 0.81441 0.66526 0.49729 0.0
C648 C 0.84506 0.69381 0.49598 0.0
C649 C 0.30987 0.83462 0.51679 0.0
C650 C 0.31858 0.87364 0.50547 0.0
C651 C 0.33946 0.80589 0.51971 0.0
C652 C 0.37877 0.81494 0.51083 0.0
H653 H 0.28041 0.82705 0.52656 0.0
H654 H 0.33191 0.77703 0.53125 0.0
S655 S 0.41664 0.91157 0.47653 0.0
N656 N 0.36887 0.91915 0.48283 0.0
N657 N 0.42468 0.8646 0.48734 0.0
C658 C 0.3875 0.85285 0.49632 0.0
C659 C 0.35726 0.8824 0.49376 0.0
C660 C 0.99885 0.85075 0.81839 0.0
C661 C 0.99213 0.89078 0.82739 0.0
C662 C 0.00155 0.82238 0.84821 0.0
C663 C 0.99812 0.83309 0.88802 0.0
H664 H 0.99939 0.84087 0.78798 0.0
H665 H 0.00348 0.79149 0.83997 0.0
S666 S 0.98457 0.93402 0.92772 0.0
N667 N 0.98568 0.94006 0.87936 0.0
N668 N 0.99095 0.88623 0.93545 0.0
C669 C 0.99485 0.8732 0.89775 0.0
C670 C 0.99192 0.90227 0.86733 0.0
C671 C 0.50497 0.18518 0.3479 0.0
C672 C 0.49775 0.17483 0.38742 0.0
C673 C 0.51014 0.15626 0.319 0.0
C674 C 0.5075 0.11611 0.3286 0.0
H675 H 0.51026 0.21574 0.33998 0.0
H676 H 0.51827 0.16527 0.28943 0.0
S677 S 0.48507 0.07369 0.42673 0.0
N678 N 0.48541 0.12195 0.43413 0.0
N679 N 0.49363 0.06721 0.37916 0.0
C680 C 0.49676 0.10535 0.36714 0.0
C681 C 0.49208 0.13492 0.39682 0.0
C682 C 0.50171 0.63892 0.11286 0.0
C683 C 0.50104 0.6789 0.12437 0.0
C684 C 0.49801 0.60837 0.14084 0.0
C685 C 0.49386 0.61668 0.1814 0.0
H686 H 0.50227 0.63115 0.08188 0.0
H687 H 0.49591 0.57826 0.13029 0.0
S688 S 0.50159 0.71566 0.22772 0.0
N689 N 0.50401 0.72446 0.17989 0.0
N690 N 0.49721 0.66732 0.23207 0.0
C691 C 0.49775 0.65619 0.19354 0.0
C692 C 0.50148 0.68719 0.16517 0.0
C693 C 0.0238 0.34705 0.68759 0.0
C694 C 0.01716 0.38693 0.67837 0.0
C695 C 0.02039 0.31746 0.65886 0.0
C696 C 0.01119 0.32647 0.6192 0.0
H697 H 0.03292 0.33875 0.71711 0.0
H698 H 0.027 0.28738 0.66763 0.0
S699 S 0.98954 0.42696 0.5804 0.0
N700 N 0.99897 0.43418 0.62767 0.0
N701 N 0.99357 0.37887 0.57307 0.0
C702 C 0.00281 0.36633 0.61002 0.0
C703 C 0.00564 0.39646 0.63969 0.0
C704 C 0.88692 0.00265 0.86295 0.0
C705 C 0.87716 0.00557 0.82282 0.0
C706 C 0.85767 0.99563 0.89128 0.0
C707 C 0.81798 0.99075 0.88003 0.0
H708 H 0.91757 0.00158 0.87197 0.0
H709 H 0.86672 0.9906 0.92153 0.0
S710 S 0.77705 0.00385 0.77938 0.0
N711 N 0.82513 0.00918 0.7739 0.0
N712 N 0.76989 0.99616 0.82697 0.0
C713 C 0.80757 0.99796 0.84054 0.0
C714 C 0.83731 0.0054 0.81193 0.0
C715 C 0.66291 0.01368 0.31493 0.0
C716 C 0.62261 0.0089 0.32414 0.0
C717 C 0.69123 0.01927 0.34445 0.0
C718 C 0.6806 0.01969 0.38446 0.0
H719 H 0.67247 0.01534 0.28449 0.0
H720 H 0.7215 0.02457 0.33575 0.0
S721 S 0.58 0.00383 0.42486 0.0
N722 N 0.57422 0.00148 0.37658 0.0
N723 N 0.62751 0.01133 0.43212 0.0
C724 C 0.64097 0.0119 0.39435 0.0
C725 C 0.61199 0.00654 0.36419 0.0
C726 C 0.35457 0.49458 0.10966 0.0
C727 C 0.31644 0.50509 0.12245 0.0
C728 C 0.3857 0.4902 0.13686 0.0
C729 C 0.37909 0.49542 0.17745 0.0
H730 H 0.36108 0.49314 0.07841 0.0
H731 H 0.41546 0.48644 0.12583 0.0
S732 S 0.28275 0.51463 0.22574 0.0
N733 N 0.27269 0.51498 0.17807 0.0
N734 N 0.33044 0.50513 0.2292 0.0
C735 C 0.34013 0.50138 0.19049 0.0
C736 C 0.30891 0.5067 0.16294 0.0
C737 C 0.19463 0.49786 0.65846 0.0
C738 C 0.18366 0.49482 0.61865 0.0
C739 C 0.16615 0.50142 0.6881 0.0
C740 C 0.12553 0.50156 0.67913 0.0
H741 H 0.22537 0.49575 0.66698 0.0
H742 H 0.17606 0.50158 0.71849 0.0
S743 S 0.08153 0.4994 0.57891 0.0
N744 N 0.12951 0.49654 0.57132 0.0
N745 N 0.07604 0.50265 0.62717 0.0
C746 C 0.11428 0.50187 0.63921 0.0
C747 C 0.14334 0.49852 0.60893 0.0
C748 C 0.85619 0.88456 0.00746 0.0
C749 C 0.81647 0.87452 0.00187 0.0
C750 C 0.88611 0.8558 0.00428 0.0
C751 C 0.87734 0.81608 0.99488 0.0
H752 H 0.86451 0.91527 0.01061 0.0
H753 H 0.91644 0.86551 0.00626 0.0
S754 S 0.77701 0.77404 0.98427 0.0
N755 N 0.76943 0.82166 0.99175 0.0
N756 N 0.8253 0.76768 0.98581 0.0
C757 C 0.8374 0.80524 0.9929 0.0
C758 C 0.80709 0.83445 0.9964 0.0
C759 C 0.35491 0.68028 0.99516 0.0
C760 C 0.38791 0.67405 0.01939 0.0
C761 C 0.32545 0.65142 0.99218 0.0
C762 C 0.32895 0.61525 0.01238 0.0
H763 H 0.35068 0.70845 0.98054 0.0
H764 H 0.29882 0.65824 0.97583 0.0
S765 S 0.41128 0.58425 0.07732 0.0
N766 N 0.42337 0.62904 0.06241 0.0
N767 N 0.36891 0.57421 0.05559 0.0
C768 C 0.36318 0.60785 0.03444 0.0
C769 C 0.39248 0.63753 0.03832 0.0
C770 C 0.18784 0.34488 0.50923 0.0
C771 C 0.1781 0.3843 0.50014 0.0
C772 C 0.15874 0.31598 0.51266 0.0
C773 C 0.11894 0.32538 0.50651 0.0
H774 H 0.21794 0.33697 0.5167 0.0
H775 H 0.16724 0.28649 0.52187 0.0
S776 S 0.0782 0.42356 0.4796 0.0
N777 N 0.12623 0.43088 0.48321 0.0
N778 N 0.07123 0.37608 0.48845 0.0
C779 C 0.10899 0.36397 0.4945 0.0
C780 C 0.13873 0.39362 0.49149 0.0
C781 C 0.6058 0.1396 0.50496 0.0
C782 C 0.61655 0.17975 0.50205 0.0
C783 C 0.6344 0.10999 0.5105 0.0
C784 C 0.67444 0.11972 0.51399 0.0
H785 H 0.57565 0.13062 0.49952 0.0
H786 H 0.62565 0.07935 0.50777 0.0
S787 S 0.71675 0.22045 0.51687 0.0
N788 N 0.66915 0.22775 0.50932 0.0
N789 N 0.72265 0.17212 0.52026 0.0
C790 C 0.68479 0.15984 0.5158 0.0
C791 C 0.65593 0.1899 0.50954 0.0
C792 C 0.84091 0.33476 0.02464 0.0
C793 C 0.82888 0.3351 0.98495 0.0
C794 C 0.87384 0.31286 0.03673 0.0
C795 C 0.89563 0.29022 0.00957 0.0
H796 H 0.828 0.35544 0.04538 0.0
H797 H 0.88461 0.31694 0.06656 0.0
S798 S 0.86853 0.27217 0.905 0.0
N799 N 0.83576 0.30487 0.92055 0.0
N800 N 0.89698 0.26219 0.94335 0.0
C801 C 0.8799 0.28527 0.97136 0.0
C802 C 0.84658 0.30818 0.95898 0.0
C803 C 0.61081 0.67843 0.54096 0.0
C804 C 0.59094 0.70357 0.51479 0.0
C805 C 0.64082 0.6533 0.52782 0.0
C806 C 0.65187 0.65219 0.48779 0.0
H807 H 0.60021 0.67504 0.5708 0.0
H808 H 0.65297 0.63213 0.54855 0.0
S809 S 0.61488 0.71903 0.40931 0.0
N810 N 0.58886 0.7312 0.44874 0.0
N811 N 0.64565 0.68387 0.42364 0.0
C812 C 0.63601 0.68105 0.46242 0.0
C813 C 0.60532 0.70682 0.47605 0.0
C814 C 0.36855 0.14287 0.97848 0.0
C815 C 0.35496 0.14229 0.01775 0.0
C816 C 0.39887 0.16821 0.96656 0.0
C817 C 0.41652 0.19429 0.99331 0.0
H818 H 0.35735 0.12192 0.95728 0.0
H819 H 0.41077 0.16501 0.9371 0.0
S820 S 0.38811 0.20905 0.09779 0.0
N821 N 0.35853 0.17365 0.08219 0.0
N822 N 0.41549 0.2215 0.05946 0.0
C823 C 0.40078 0.19684 0.03156 0.0
C824 C 0.36988 0.17087 0.04387 0.0
C825 C 0.10715 0.78837 0.53352 0.0
C826 C 0.09655 0.7896 0.49338 0.0
C827 C 0.13802 0.81189 0.54818 0.0
C828 C 0.16004 0.83595 0.52271 0.0
H829 H 0.08874 0.77261 0.55427 0.0
H830 H 0.14206 0.8142 0.57979 0.0
S831 S 0.15394 0.83707 0.41378 0.0
N832 N 0.11681 0.80872 0.42755 0.0
N833 N 0.17624 0.85106 0.45475 0.0
C834 C 0.15413 0.83176 0.48196 0.0
C835 C 0.12207 0.80883 0.46725 0.0
C836 C 0.96573 0.90216 0.30914 0.0
C837 C 0.00141 0.92287 0.30821 0.0
C838 C 0.96073 0.87003 0.33473 0.0
C839 C 0.9911 0.85831 0.36073 0.0
H840 H 0.94077 0.91248 0.29202 0.0
H841 H 0.93193 0.85637 0.33618 0.0
S842 S 0.09172 0.90088 0.36507 0.0
N843 N 0.06867 0.92746 0.33141 0.0
N844 N 0.0596 0.8676 0.38023 0.0
C845 C 0.02792 0.87713 0.35755 0.0
C846 C 0.03297 0.90938 0.33111 0.0
C847 C 0.45882 0.10342 0.83385 0.0
C848 C 0.4842 0.0874 0.80538 0.0
C849 C 0.47227 0.13148 0.8609 0.0
C850 C 0.51164 0.14451 0.86042 0.0
H851 H 0.42953 0.09138 0.8377 0.0
H852 H 0.45233 0.14109 0.88393 0.0
S853 S 0.58782 0.11612 0.78712 0.0
N854 N 0.54876 0.08983 0.77479 0.0
N855 N 0.57426 0.14324 0.82533 0.0
C856 C 0.5361 0.13187 0.82932 0.0
C857 C 0.52228 0.10308 0.80182 0.0
C858 C 0.46822 0.63787 0.68101 0.0
C859 C 0.49541 0.65548 0.65515 0.0
C860 C 0.48001 0.60687 0.7061 0.0
C861 C 0.51908 0.59278 0.70573 0.0
H862 H 0.43713 0.64505 0.67895 0.0
H863 H 0.45762 0.59105 0.72245 0.0
S864 S 0.60342 0.63828 0.65404 0.0
N865 N 0.56466 0.6638 0.6389 0.0
N866 N 0.58629 0.60501 0.68524 0.0
C867 C 0.54731 0.6143 0.68484 0.0
C868 C 0.53553 0.64585 0.65963 0.0
C869 C 0.96249 0.35419 0.14948 0.0
C870 C 0.00095 0.33884 0.14732 0.0
C871 C 0.95358 0.38636 0.17393 0.0
C872 C 0.98298 0.40488 0.19659 0.0
H873 H 0.93991 0.3435 0.12955 0.0
H874 H 0.92423 0.39895 0.17245 0.0
S875 S 0.08695 0.37181 0.20578 0.0
N876 N 0.06745 0.34092 0.17355 0.0
N877 N 0.05095 0.40193 0.21932 0.0
C878 C 0.02055 0.38709 0.19794 0.0
C879 C 0.02953 0.35397 0.17315 0.0
C880 C 0.35796 0.02907 0.87631 0.0
C881 C 0.35374 0.99247 0.85708 0.0
C882 C 0.33287 0.04014 0.90697 0.0
C883 C 0.30232 0.01541 0.91937 0.0
H884 H 0.3826 0.04819 0.86972 0.0
H885 H 0.3397 0.06654 0.92347 0.0
S886 S 0.27239 0.92116 0.873 0.0
N887 N 0.31202 0.9347 0.84812 0.0
N888 N 0.26461 0.95608 0.90622 0.0
C889 C 0.29456 0.98112 0.89749 0.0
C890 C 0.32035 0.96953 0.86612 0.0
C891 C 0.84518 0.44929 0.10409 0.0
C892 C 0.80898 0.46725 0.09416 0.0
C893 C 0.87045 0.46647 0.13159 0.0
C894 C 0.86002 0.50124 0.15165 0.0
H895 H 0.856 0.42389 0.08789 0.0
H896 H 0.89949 0.45368 0.13537 0.0
S897 S 0.76478 0.55436 0.14448 0.0
N898 N 0.7611 0.51816 0.112 0.0
N899 N 0.80864 0.54934 0.16519 0.0
C900 C 0.82203 0.51666 0.14614 0.0
C901 C 0.79638 0.49974 0.11719 0.0
C902 C 0.65374 0.53253 0.63675 0.0
C903 C 0.65194 0.49273 0.64872 0.0
C904 C 0.67789 0.54444 0.60553 0.0
C905 C 0.70155 0.51705 0.58549 0.0
H906 H 0.63394 0.55407 0.64946 0.0
H907 H 0.67509 0.5744 0.59459 0.0
S908 S 0.71317 0.41085 0.6093 0.0
N909 N 0.68011 0.42696 0.64134 0.0
N910 N 0.72599 0.44966 0.58271 0.0
C911 C 0.70352 0.47816 0.59988 0.0
C912 C 0.67864 0.46587 0.63162 0.0
C913 C 0.16086 0.0126 0.35949 0.0
C914 C 0.11991 0.0146 0.36632 0.0
C915 C 0.18649 0.99501 0.38741 0.0
C916 C 0.17174 0.9782 0.42246 0.0
H917 H 0.173 0.02385 0.33218 0.0
H918 H 0.21781 0.99398 0.38129 0.0
S919 S 0.06725 0.98078 0.45645 0.0
N920 N 0.06671 0.00253 0.41303 0.0
N921 N 0.11357 0.96799 0.46359 0.0
C922 C 0.13088 0.98127 0.42987 0.0
C923 C 0.10537 0.99991 0.40235 0.0
C924 C 0.13797 0.68332 0.04247 0.0
C925 C 0.15963 0.65989 0.01598 0.0
C926 C 0.10856 0.70917 0.02861 0.0
C927 C 0.09994 0.71188 0.98798 0.0
H928 H 0.14079 0.67869 0.07398 0.0
H929 H 0.0897 0.72357 0.05006 0.0
S930 S 0.15578 0.66478 0.9068 0.0
N931 N 0.17642 0.64736 0.94743 0.0
N932 N 0.12063 0.69524 0.92155 0.0
C933 C 0.125 0.69261 0.96131 0.0
C934 C 0.155 0.66667 0.97532 0.0
C935 C 0.38981 0.33258 0.45805 0.0
C936 C 0.4061 0.30433 0.48382 0.0
C937 C 0.35876 0.35689 0.47006 0.0
C938 C 0.34236 0.35342 0.50788 0.0
H939 H 0.4035 0.33857 0.42981 0.0
H940 H 0.34997 0.38098 0.45096 0.0
S941 S 0.3673 0.27796 0.58282 0.0
N942 N 0.39837 0.26935 0.54625 0.0
N943 N 0.33953 0.31552 0.56849 0.0
C944 C 0.35457 0.32205 0.53195 0.0
C945 C 0.38655 0.29719 0.51987 0.0
C946 C 0.60641 0.82904 0.03262 0.0
C947 C 0.5889 0.80118 0.0075 0.0
C948 C 0.63727 0.85303 0.01941 0.0
C949 C 0.6517 0.84985 0.98069 0.0
H950 H 0.59367 0.83495 0.06135 0.0
H951 H 0.64773 0.8764 0.03856 0.0
S952 S 0.61822 0.77917 0.90459 0.0
N953 N 0.59004 0.7697 0.9432 0.0
N954 N 0.64856 0.81468 0.91844 0.0
C955 C 0.6368 0.81989 0.95638 0.0
C956 C 0.6052 0.7955 0.96982 0.0
C957 C 0.88682 0.2116 0.47028 0.0
C958 C 0.90735 0.21148 0.50641 0.0
C959 C 0.85423 0.18662 0.46408 0.0
C960 C 0.84177 0.16025 0.4936 0.0
H961 H 0.89835 0.22813 0.44549 0.0
H962 H 0.84153 0.18495 0.43479 0.0
S963 S 0.88388 0.15091 0.59403 0.0
N964 N 0.91071 0.18553 0.57287 0.0
N965 N 0.85059 0.13777 0.56098 0.0
C966 C 0.86016 0.16219 0.53068 0.0
C967 C 0.89269 0.18807 0.53716 0.0
C968 C 0.00277 0.14674 0.6612 0.0
C969 C 0.00527 0.13974 0.62034 0.0
C970 C 0.989 0.11714 0.68706 0.0
C971 C 0.97723 0.08003 0.67255 0.0
H972 H 0.01065 0.17536 0.67304 0.0
H973 H 0.987 0.12345 0.71831 0.0
S974 S 0.98471 0.04559 0.5684 0.0
N975 N 0.99935 0.09191 0.56731 0.0
N976 N 0.97353 0.03692 0.61488 0.0
C977 C 0.98138 0.07253 0.63177 0.0
C978 C 0.99539 0.10223 0.60594 0.0
C979 C 0.53 0.8787 0.13574 0.0
C980 C 0.49535 0.85639 0.14065 0.0
C981 C 0.54014 0.90841 0.16244 0.0
C982 C 0.51634 0.91669 0.19526 0.0
H983 H 0.5481 0.87517 0.10965 0.0
H984 H 0.5648 0.92743 0.15535 0.0
S985 S 0.42753 0.86182 0.22655 0.0
N986 N 0.44084 0.84052 0.18474 0.0
N987 N 0.46019 0.89698 0.23474 0.0
C988 C 0.48423 0.89197 0.20308 0.0
C989 C 0.47367 0.86158 0.1758 0.0
C990 C 0.46077 0.37964 0.32496 0.0
C991 C 0.48719 0.39973 0.30006 0.0
C992 C 0.47369 0.34962 0.35041 0.0
C993 C 0.51349 0.33809 0.35169 0.0
H994 H 0.43049 0.38944 0.3272 0.0
H995 H 0.45295 0.33754 0.37148 0.0
S996 S 0.59375 0.37679 0.28876 0.0
N997 N 0.55445 0.40239 0.27512 0.0
N998 N 0.57853 0.34577 0.32314 0.0
C999 C 0.53956 0.35502 0.32439 0.0
C1000 C 0.52641 0.38578 0.29835 0.0
C1001 C 0.0436 0.61143 0.82833 0.0
C1002 C 0.01624 0.59562 0.8016 0.0
C1003 C 0.03386 0.64376 0.85232 0.0
C1004 C 0.99624 0.66148 0.85078 0.0
H1005 H 0.07136 0.59637 0.83346 0.0
H1006 H 0.05467 0.65254 0.87494 0.0
S1007 S 0.9159 0.63465 0.78187 0.0
N1008 N 0.95165 0.60296 0.77153 0.0
N1009 N 0.93308 0.6636 0.81714 0.0
C1010 C 0.96999 0.64853 0.82146 0.0
C1011 C 0.98005 0.61554 0.79677 0.0
C1012 C 0.66306 0.99759 0.14634 0.0
C1013 C 0.63048 0.02262 0.13978 0.0
C1014 C 0.68608 0.98382 0.11446 0.0
C1015 C 0.67633 0.99421 0.07547 0.0
H1016 H 0.6696 0.9872 0.17586 0.0
H1017 H 0.71021 0.96356 0.12013 0.0
S1018 S 0.59496 0.06109 0.04398 0.0
N1019 N 0.59139 0.05935 0.09245 0.0
N1020 N 0.63279 0.03243 0.0328 0.0
C1021 C 0.64456 0.02037 0.06917 0.0
C1022 C 0.62206 0.03488 0.10133 0.0
C1023 C 0.17334 0.54679 0.89718 0.0
C1024 C 0.19582 0.51913 0.91823 0.0
C1025 C 0.14895 0.535 0.86611 0.0
C1026 C 0.14591 0.49498 0.85535 0.0
H1027 H 0.17177 0.57708 0.90714 0.0
H1028 H 0.13014 0.55698 0.85238 0.0
S1029 S 0.20215 0.41164 0.89903 0.0
N1030 N 0.21663 0.45076 0.92422 0.0
N1031 N 0.17061 0.42821 0.8657 0.0
C1032 C 0.17108 0.46751 0.8738 0.0
C1033 C 0.19606 0.4797 0.90542 0.0
C1034 C 0.33019 0.537 0.36202 0.0
C1035 C 0.35152 0.50861 0.34058 0.0
C1036 C 0.30569 0.52569 0.39344 0.0
C1037 C 0.30243 0.48572 0.40453 0.0
H1038 H 0.33527 0.56817 0.35691 0.0
H1039 H 0.29259 0.54862 0.41153 0.0
S1040 S 0.34641 0.40007 0.35267 0.0
N1041 N 0.36336 0.43894 0.32862 0.0
N1042 N 0.3175 0.41768 0.38775 0.0
C1043 C 0.32042 0.45705 0.38065 0.0
C1044 C 0.34506 0.46853 0.34864 0.0
C1045 C 0.80823 0.96959 0.59846 0.0
C1046 C 0.80555 0.01089 0.59379 0.0
C1047 C 0.82835 0.95294 0.6305 0.0
C1048 C 0.84539 0.97698 0.65947 0.0
H1049 H 0.79769 0.95002 0.57549 0.0
H1050 H 0.83352 0.92132 0.63079 0.0
S1051 S 0.84014 0.08607 0.66495 0.0
N1052 N 0.81721 0.07509 0.62334 0.0
N1053 N 0.85401 0.04352 0.68448 0.0
C1054 C 0.83944 0.01798 0.65729 0.0
C1055 C 0.81983 0.03507 0.62411 0.0
C1056 C 0.06259 0.31237 0.89841 0.0
C1057 C 0.0235 0.30721 0.91129 0.0
C1058 C 0.0714 0.33943 0.86815 0.0
C1059 C 0.04127 0.36154 0.84996 0.0
H1060 H 0.08665 0.29841 0.91425 0.0
H1061 H 0.102 0.34535 0.86118 0.0
S1062 S 0.93426 0.35484 0.86993 0.0
N1063 N 0.95459 0.32345 0.9012 0.0
N1064 N 0.971 0.37357 0.8441 0.0
C1065 C 0.00205 0.35401 0.86036 0.0
C1066 C 0.99318 0.32688 0.89108 0.0
C1067 C 0.43722 0.6755 0.40014 0.0
C1068 C 0.4706 0.67775 0.42439 0.0
C1069 C 0.43611 0.64908 0.36832 0.0
C1070 C 0.46801 0.62338 0.36049 0.0
H1071 H 0.41106 0.69258 0.40717 0.0
H1072 H 0.40905 0.64704 0.35146 0.0
S1073 S 0.56302 0.61976 0.41466 0.0
N1074 N 0.53685 0.6539 0.43769 0.0
N1075 N 0.53502 0.60428 0.37802 0.0
C1076 C 0.50238 0.62709 0.38337 0.0
C1077 C 0.50355 0.65421 0.41542 0.0
C1078 C 0.50962 0.16952 0.14385 0.0
C1079 C 0.54414 0.15062 0.15698 0.0
C1080 C 0.51007 0.19345 0.11001 0.0
C1081 C 0.54479 0.198 0.0878 0.0
H1082 H 0.48159 0.16305 0.15773 0.0
H1083 H 0.48237 0.20481 0.09892 0.0
S1084 S 0.64364 0.15838 0.1129 0.0
N1085 N 0.61457 0.1416 0.14816 0.0
N1086 N 0.61524 0.18558 0.08397 0.0
C1087 C 0.58005 0.18213 0.1028 0.0
C1088 C 0.57973 0.15852 0.13755 0.0
C1089 C 0.93359 0.83481 0.64044 0.0
C1090 C 0.96582 0.85771 0.65301 0.0
C1091 C 0.93714 0.80947 0.60785 0.0
C1092 C 0.97314 0.80569 0.5877 0.0
H1093 H 0.90466 0.83928 0.65325 0.0
H1094 H 0.91087 0.79544 0.59633 0.0
S1095 S 0.06701 0.85558 0.61205 0.0
N1096 N 0.03568 0.8715 0.64572 0.0
N1097 N 0.04187 0.82453 0.58431 0.0
C1098 C 0.00621 0.82553 0.60238 0.0
C1099 C 0.00268 0.85133 0.63526 0.0
C1100 C 0.86521 0.08881 0.34983 0.0
C1101 C 0.84985 0.05374 0.36564 0.0
C1102 C 0.89156 0.08778 0.31817 0.0
C1103 C 0.90364 0.05163 0.30154 0.0
H1104 H 0.85926 0.11697 0.36386 0.0
H1105 H 0.90599 0.11501 0.30966 0.0
S1106 S 0.86191 0.95323 0.32415 0.0
N1107 N 0.84023 0.9834 0.35579 0.0
N1108 N 0.89168 0.98102 0.29745 0.0
C1109 C 0.88426 0.01706 0.31345 0.0
C1110 C 0.8571 0.01819 0.34557 0.0
C1111 C 0.59877 0.99371 0.81347 0.0
C1112 C 0.57928 0.95926 0.80142 0.0
C1113 C 0.63152 0.99147 0.8385 0.0
C1114 C 0.64591 0.95472 0.85163 0.0
H1115 H 0.58626 0.02246 0.80703 0.0
H1116 H 0.64379 0.01867 0.84995 0.0
S1117 S 0.60884 0.85604 0.82208 0.0
N1118 N 0.57914 0.8877 0.79978 0.0
N1119 N 0.64148 0.8831 0.84599 0.0
C1120 C 0.62931 0.92007 0.83596 0.0
C1121 C 0.59563 0.92246 0.81102 0.0
C1122 C 0.40161 0.43782 0.68275 0.0
C1123 C 0.42399 0.47231 0.68731 0.0
C1124 C 0.37091 0.43601 0.65501 0.0
C1125 C 0.36232 0.46836 0.63015 0.0
H1126 H 0.40966 0.41127 0.69875 0.0
H1127 H 0.35577 0.40815 0.65119 0.0
S1128 S 0.41103 0.56613 0.63228 0.0
N1129 N 0.43413 0.54 0.66638 0.0
N1130 N 0.3767 0.53681 0.61432 0.0
C1131 C 0.38298 0.50371 0.63619 0.0
C1132 C 0.41379 0.50561 0.66473 0.0
C1133 C 0.08905 0.57512 0.18722 0.0
C1134 C 0.08601 0.53731 0.20403 0.0
C1135 C 0.11926 0.58403 0.16043 0.0
C1136 C 0.14811 0.55577 0.15079 0.0
H1137 H 0.06572 0.59656 0.19175 0.0
H1138 H 0.1185 0.61215 0.14515 0.0
S1139 S 0.15709 0.455 0.19212 0.0
N1140 N 0.11663 0.47304 0.21258 0.0
N1141 N 0.1748 0.49048 0.1638 0.0
C1142 C 0.14788 0.51946 0.17072 0.0
C1143 C 0.11647 0.51004 0.19712 0.0
C1144 C 0.33685 0.86296 0.08028 0.0
C1145 C 0.35675 0.85001 0.04627 0.0
C1146 C 0.31089 0.89545 0.07865 0.0
C1147 C 0.30346 0.91527 0.04286 0.0
H1148 H 0.34419 0.85042 0.10878 0.0
H1149 H 0.29902 0.90706 0.10598 0.0
S1150 S 0.34713 0.89138 0.94565 0.0
N1151 N 0.36627 0.85825 0.97591 0.0
N1152 N 0.31671 0.91827 0.97264 0.0
C1153 C 0.32085 0.90047 0.00832 0.0
C1154 C 0.34779 0.86808 0.01011 0.0
C1155 C 0.84543 0.63696 0.96412 0.0
C1156 C 0.8867 0.63182 0.9657 0.0
C1157 C 0.81975 0.60453 0.96908 0.0
C1158 C 0.83484 0.56626 0.97545 0.0
H1159 H 0.83303 0.66621 0.96007 0.0
H1160 H 0.7882 0.60957 0.96885 0.0
S1161 S 0.94124 0.53722 0.97497 0.0
N1162 N 0.94128 0.58552 0.96933 0.0
N1163 N 0.89437 0.52516 0.97837 0.0
C1164 C 0.87633 0.56103 0.97499 0.0
C1165 C 0.90192 0.59365 0.97017 0.0
C1166 C 0.6415 0.37807 0.4988 0.0
C1167 C 0.63301 0.35799 0.46351 0.0
C1168 C 0.66814 0.40957 0.49931 0.0
C1169 C 0.68691 0.42202 0.46456 0.0
H1170 H 0.62594 0.37075 0.52574 0.0
H1171 H 0.67139 0.42641 0.52624 0.0
S1172 S 0.67743 0.37793 0.3653 0.0
N1173 N 0.64813 0.35115 0.39346 0.0
N1174 N 0.69738 0.41112 0.39478 0.0
C1175 C 0.68062 0.40089 0.42973 0.0
C1176 C 0.65394 0.36852 0.42914 0.0
C1177 C 0.1353 0.12019 0.49344 0.0
C1178 C 0.13542 0.14397 0.52742 0.0
C1179 C 0.15894 0.08632 0.49081 0.0
C1180 C 0.1837 0.07472 0.5221 0.0
H1181 H 0.11482 0.1264 0.46964 0.0
H1182 H 0.15582 0.06757 0.46508 0.0
S1183 S 0.1972 0.12835 0.61633 0.0
N1184 N 0.16445 0.15522 0.59196 0.0
N1185 N 0.20903 0.09114 0.58701 0.0
C1186 C 0.18643 0.09975 0.55505 0.0
C1187 C 0.16221 0.13453 0.55773 0.0
C1188 C 0.00737 0.64353 0.12899 0.0
C1189 C 0.96949 0.63544 0.1436 0.0
C1190 C 0.01338 0.67293 0.10072 0.0
C1191 C 0.9817 0.69515 0.08548 0.0
H1192 H 0.03234 0.6256 0.13773 0.0
H1193 H 0.0426 0.67591 0.08814 0.0
S1194 S 0.87738 0.68893 0.11669 0.0
N1195 N 0.90025 0.65523 0.14364 0.0
N1196 N 0.91181 0.70982 0.08935 0.0
C1197 C 0.94425 0.68987 0.10205 0.0
C1198 C 0.93805 0.66004 0.1313 0.0
C1199 C 0.5789 0.34417 0.62581 0.0
C1200 C 0.54824 0.36014 0.64871 0.0
C1201 C 0.57081 0.31713 0.59549 0.0
C1202 C 0.53185 0.30579 0.5871 0.0
H1203 H 0.6088 0.35476 0.62948 0.0
H1204 H 0.59465 0.30801 0.57619 0.0
S1205 S 0.44196 0.33732 0.64066 0.0
N1206 N 0.47824 0.36066 0.66321 0.0
N1207 N 0.4629 0.31062 0.60558 0.0
C1208 C 0.50143 0.31968 0.61152 0.0
C1209 C 0.50969 0.34678 0.64255 0.0
C1210 C 0.48861 0.84641 0.86399 0.0
C1211 C 0.45137 0.85397 0.84725 0.0
C1212 C 0.49279 0.82118 0.89658 0.0
C1213 C 0.45969 0.8034 0.91394 0.0
H1214 H 0.51416 0.86271 0.85395 0.0
H1215 H 0.5214 0.81893 0.91071 0.0
S1216 S 0.35671 0.80932 0.87782 0.0
N1217 N 0.38168 0.838 0.84735 0.0
N1218 N 0.38932 0.79133 0.9094 0.0
C1219 C 0.42288 0.80805 0.89543 0.0
C1220 C 0.41876 0.83319 0.86179 0.0
C1221 C 0.00333 0.17153 0.35161 0.0
C1222 C 0.03976 0.15658 0.33844 0.0
C1223 C 0.00149 0.19884 0.3827 0.0
C1224 C 0.03604 0.21102 0.40201 0.0
H1225 H 0.97607 0.15929 0.34034 0.0
H1226 H 0.97286 0.20634 0.39485 0.0
S1227 S 0.13855 0.18405 0.37534 0.0
N1228 N 0.111 0.1594 0.34364 0.0
N1229 N 0.10759 0.2098 0.40289 0.0
C1230 C 0.07263 0.19939 0.38633 0.0
C1231 C 0.0745 0.17216 0.35434 0.0
C1232 C 0.09193 0.00695 0.67013 0.0
C1233 C 0.07834 0.97715 0.69545 0.0
C1234 C 0.12239 0.9996 0.64349 0.0
C1235 C 0.14022 0.96211 0.64112 0.0
H1236 H 0.07639 0.03495 0.66829 0.0
H1237 H 0.13002 0.02266 0.62267 0.0
S1238 S 0.12068 0.87694 0.70715 0.0
N1239 N 0.08869 0.91107 0.72125 0.0
N1240 N 0.14671 0.89701 0.67117 0.0
C1241 C 0.13019 0.93359 0.66965 0.0
C1242 C 0.09895 0.94121 0.69691 0.0
C1243 C 0.39087 0.07549 0.19719 0.0
C1244 C 0.40893 0.03891 0.20535 0.0
C1245 C 0.35833 0.07795 0.17181 0.0
C1246 C 0.34348 0.04391 0.15359 0.0
H1247 H 0.40429 0.10263 0.20743 0.0
H1248 H 0.34748 0.10686 0.16325 0.0
S1249 S 0.37746 0.94101 0.16841 0.0
N1250 N 0.40692 0.96772 0.19651 0.0
N1251 N 0.34628 0.97257 0.14801 0.0
C1252 C 0.35891 0.00697 0.16426 0.0
C1253 C 0.39155 0.00437 0.19056 0.0
C1254 C 0.60578 0.4947 0.32209 0.0
C1255 C 0.58573 0.52415 0.30064 0.0
C1256 C 0.63634 0.50431 0.3481 0.0
C1257 C 0.64786 0.54369 0.35357 0.0
H1258 H 0.59553 0.46445 0.32131 0.0
H1259 H 0.64904 0.48112 0.36618 0.0
S1260 S 0.6066 0.63144 0.30284 0.0
N1261 N 0.58119 0.59398 0.2848 0.0
N1262 N 0.63887 0.61208 0.33396 0.0
C1263 C 0.63013 0.57313 0.33032 0.0
C1264 C 0.59901 0.5633 0.30361 0.0
C1265 C 0.89831 0.43536 0.81331 0.0
C1266 C 0.91889 0.47109 0.8101 0.0
C1267 C 0.86893 0.43045 0.84199 0.0
C1268 C 0.86015 0.46087 0.86893 0.0
H1269 H 0.90732 0.41005 0.7959 0.0
H1270 H 0.85543 0.40167 0.8451 0.0
S1271 S 0.9005 0.56248 0.86731 0.0
N1272 N 0.92452 0.53905 0.83195 0.0
N1273 N 0.86943 0.52998 0.88592 0.0
C1274 C 0.87771 0.49794 0.86322 0.0
C1275 C 0.90708 0.50304 0.83367 0.0
C1276 C 0.68887 0.10454 0.9948 0.0
C1277 C 0.70124 0.08396 0.96095 0.0
C1278 C 0.66369 0.13739 0.99186 0.0
C1279 C 0.65053 0.15101 0.95498 0.0
H1280 H 0.69521 0.09267 0.02383 0.0
H1281 H 0.65167 0.14996 0.01865 0.0
S1282 S 0.67766 0.10983 0.85749 0.0
N1283 N 0.7011 0.08134 0.88948 0.0
N1284 N 0.65433 0.14365 0.88389 0.0
C1285 C 0.6656 0.13297 0.92085 0.0
C1286 C 0.69097 0.09929 0.92387 0.0
C1287 C 0.12038 0.39088 0.00445 0.0
C1288 C 0.11709 0.36565 0.03725 0.0
C1289 C 0.14754 0.42189 0.00431 0.0
C1290 C 0.17218 0.42861 0.0369 0.0
H1291 H 0.10088 0.38764 0.97934 0.0
H1292 H 0.14763 0.44216 0.97955 0.0
S1293 S 0.17858 0.36934 0.12818 0.0
N1294 N 0.14379 0.34778 0.10189 0.0
N1295 N 0.19406 0.40688 0.1013 0.0
C1296 C 0.17092 0.40266 0.06884 0.0
C1297 C 0.14361 0.37082 0.06903 0.0
C1298 C 0.35671 0.63477 0.5085 0.0
C1299 C 0.36093 0.64756 0.5476 0.0
C1300 C 0.32986 0.6051 0.49878 0.0
C1301 C 0.30655 0.58705 0.52792 0.0
H1302 H 0.37613 0.64591 0.4857 0.0
H1303 H 0.32984 0.59378 0.46887 0.0
S1304 S 0.30395 0.61303 0.634 0.0
N1305 N 0.33738 0.64297 0.61504 0.0
N1306 N 0.28697 0.58644 0.59683 0.0
C1307 C 0.3081 0.60194 0.56656 0.0
C1308 C 0.3355 0.63237 0.57646 0.0
C1309 C 0.8712 0.89566 0.4329 0.0
C1310 C 0.86658 0.86121 0.45538 0.0
C1311 C 0.84478 0.92711 0.43632 0.0
C1312 C 0.81197 0.92548 0.46153 0.0
H1313 H 0.89702 0.89947 0.41444 0.0
H1314 H 0.85243 0.9545 0.42207 0.0
S1315 S 0.78547 0.84115 0.52575 0.0
N1316 N 0.82589 0.82623 0.50279 0.0
N1317 N 0.77556 0.88588 0.50871 0.0
C1318 C 0.80543 0.89025 0.48244 0.0
C1319 C 0.83282 0.85791 0.4793 0.0
loop_
_geom_bond_atom_site_label_1
_geom_bond_atom_site_label_2
_geom_bond_distance
_geom_bond_site_symmetry_2
_ccdc_geom_bond_type
Fe0 O2 1.918 . S
Fe0 O5 1.997 . S
Fe0 O6 2.002 . S
Fe0 O11 1.976 . S
Fe0 O14 1.996 . S
Fe1 O2 1.918 . S
Fe1 O9 1.997 . S
Fe1 O12 1.996 . S
Fe1 O16 1.976 1_455 S
Fe1 O19 2.002 1_554 S
O2 Fe0 1.918 . S
O2 Fe1 1.918 . S
O2 Fe3 1.918 . S
Fe3 O2 1.918 . S
Fe3 O4 2.002 . S
Fe3 O13 1.976 . S
Fe3 O17 1.996 1_455 S
Fe3 O20 1.997 1_554 S
O4 Fe3 2.002 . S
O4 C21 1.295 . S
O5 Fe0 1.997 . S
O5 C21 1.235 . S
O6 Fe0 2.002 . S
O6 C7 1.295 . S
C7 O6 1.295 . S
C7 O9 1.235 . S
C8 O13 1.287 . S
C8 O14 1.255 . S
O9 Fe1 1.997 . S
O9 C7 1.235 . S
C10 O16 1.287 . S
C10 O17 1.255 . S
O11 Fe0 1.976 . S
O11 C18 1.287 . S
O12 Fe1 1.996 . S
O12 C18 1.255 . S
O13 Fe3 1.976 . S
O13 C8 1.287 . S
O14 Fe0 1.996 . S
O14 C8 1.255 . S
C15 O19 1.295 . S
C15 O20 1.235 . S
O16 Fe1 1.976 1_655 S
O16 C10 1.287 . S
O17 Fe3 1.996 1_655 S
O17 C10 1.255 . S
C18 O11 1.287 . S
C18 O12 1.255 . S
O19 Fe1 2.002 1_556 S
O19 C15 1.295 . S
O20 Fe3 1.997 1_556 S
O20 C15 1.235 . S
C21 O4 1.295 . S
C21 O5 1.235 . S
Fe22 O24 1.918 . S
Fe22 O27 1.997 . S
Fe22 O28 2.002 . S
Fe22 O33 1.976 . S
Fe22 O36 1.996 . S
Fe23 O24 1.918 . S
Fe23 O31 1.997 . S
Fe23 O34 1.996 . S
Fe23 O38 1.976 . S
Fe23 O41 2.002 . S
O24 Fe22 1.918 . S
O24 Fe23 1.918 . S
O24 Fe25 1.918 . S
Fe25 O24 1.918 . S
Fe25 O26 2.002 . S
Fe25 O35 1.976 . S
Fe25 O39 1.996 . S
Fe25 O42 1.997 . S
O26 Fe25 2.002 . S
O26 C43 1.295 . S
O27 Fe22 1.997 . S
O27 C43 1.235 . S
O28 Fe22 2.002 . S
O28 C29 1.295 . S
C29 O28 1.295 . S
C29 O31 1.235 . S
C30 O35 1.287 . S
C30 O36 1.255 . S
O31 Fe23 1.997 . S
O31 C29 1.235 . S
C32 O38 1.287 . S
C32 O39 1.255 . S
O33 Fe22 1.976 . S
O33 C40 1.287 . S
O34 Fe23 1.996 . S
O34 C40 1.255 . S
O35 Fe25 1.976 . S
O35 C30 1.287 . S
O36 Fe22 1.996 . S
O36 C30 1.255 . S
C37 O41 1.295 . S
C37 O42 1.235 . S
O38 Fe23 1.976 . S
O38 C32 1.287 . S
O39 Fe25 1.996 . S
O39 C32 1.255 . S
C40 O33 1.287 . S
C40 O34 1.255 . S
O41 Fe23 2.002 . S
O41 C37 1.295 . S
O42 Fe25 1.997 . S
O42 C37 1.235 . S
C43 O26 1.295 . S
C43 O27 1.235 . S
Fe44 O46 1.918 . S
Fe44 O49 1.997 . S
Fe44 O50 2.002 . S
Fe44 O55 1.976 . S
Fe44 O58 1.996 . S
Fe45 O46 1.918 . S
Fe45 O53 1.997 . S
Fe45 O56 1.996 . S
Fe45 O60 1.976 . S
Fe45 O63 2.002 1_556 S
O46 Fe44 1.918 . S
O46 Fe45 1.918 . S
O46 Fe47 1.918 . S
Fe47 O46 1.918 . S
Fe47 O48 2.002 . S
Fe47 O57 1.976 . S
Fe47 O61 1.996 . S
Fe47 O64 1.997 1_556 S
O48 Fe47 2.002 . S
O48 C65 1.295 . S
O49 Fe44 1.997 . S
O49 C65 1.235 . S
O50 Fe44 2.002 . S
O50 C51 1.295 . S
C51 O50 1.295 . S
C51 O53 1.235 . S
C52 O57 1.287 . S
C52 O58 1.255 . S
O53 Fe45 1.997 . S
O53 C51 1.235 . S
C54 O60 1.287 . S
C54 O61 1.255 . S
O55 Fe44 1.976 . S
O55 C62 1.287 . S
O56 Fe45 1.996 . S
O56 C62 1.255 . S
O57 Fe47 1.976 . S
O57 C52 1.287 . S
O58 Fe44 1.996 . S
O58 C52 1.255 . S
C59 O63 1.295 . S
C59 O64 1.235 . S
O60 Fe45 1.976 . S
O60 C54 1.287 . S
O61 Fe47 1.996 . S
O61 C54 1.255 . S
C62 O55 1.287 . S
C62 O56 1.255 . S
O63 Fe45 2.002 1_554 S
O63 C59 1.295 . S
O64 Fe47 1.997 1_554 S
O64 C59 1.235 . S
C65 O48 1.295 . S
C65 O49 1.235 . S
Fe66 O68 1.918 . S
Fe66 O71 1.997 . S
Fe66 O72 2.002 . S
Fe66 O77 1.976 1_655 S
Fe66 O80 1.996 . S
Fe67 O68 1.918 . S
Fe67 O75 1.997 . S
Fe67 O78 1.996 1_655 S
Fe67 O82 1.976 . S
Fe67 O85 2.002 . S
O68 Fe66 1.918 . S
O68 Fe67 1.918 . S
O68 Fe69 1.918 . S
Fe69 O68 1.918 . S
Fe69 O70 2.002 . S
Fe69 O79 1.976 . S
Fe69 O83 1.996 . S
Fe69 O86 1.997 . S
O70 Fe69 2.002 . S
O70 C87 1.295 . S
O71 Fe66 1.997 . S
O71 C87 1.235 . S
O72 Fe66 2.002 . S
O72 C73 1.295 . S
C73 O72 1.295 . S
C73 O75 1.235 . S
C74 O79 1.287 . S
C74 O80 1.255 . S
O75 Fe67 1.997 . S
O75 C73 1.235 . S
C76 O82 1.287 . S
C76 O83 1.255 . S
O77 Fe66 1.976 1_455 S
O77 C84 1.287 . S
O78 Fe67 1.996 1_455 S
O78 C84 1.255 . S
O79 Fe69 1.976 . S
O79 C74 1.287 . S
O80 Fe66 1.996 . S
O80 C74 1.255 . S
C81 O85 1.295 . S
C81 O86 1.235 . S
O82 Fe67 1.976 . S
O82 C76 1.287 . S
O83 Fe69 1.996 . S
O83 C76 1.255 . S
C84 O77 1.287 . S
C84 O78 1.255 . S
O85 Fe67 2.002 . S
O85 C81 1.295 . S
O86 Fe69 1.997 . S
O86 C81 1.235 . S
C87 O70 1.295 . S
C87 O71 1.235 . S
Fe88 O90 1.918 . S
Fe88 O93 1.997 1_455 S
Fe88 O94 2.002 . S
Fe88 O99 1.976 . S
Fe88 O102 1.996 1_545 S
Fe89 O90 1.918 . S
Fe89 O97 1.997 . S
Fe89 O100 1.996 . S
Fe89 O104 1.976 . S
Fe89 O107 2.002 . S
O90 Fe88 1.918 . S
O90 Fe89 1.918 . S
O90 Fe91 1.918 . S
Fe91 O90 1.918 . S
Fe91 O92 2.002 1_455 S
Fe91 O101 1.976 1_545 S
Fe91 O105 1.996 . S
Fe91 O108 1.997 . S
O92 Fe91 2.002 1_655 S
O92 C109 1.295 . S
O93 Fe88 1.997 1_655 S
O93 C109 1.235 . S
O94 Fe88 2.002 . S
O94 C95 1.295 . S
C95 O94 1.295 . S
C95 O97 1.235 . S
C96 O101 1.287 . S
C96 O102 1.255 . S
O97 Fe89 1.997 . S
O97 C95 1.235 . S
C98 O104 1.287 . S
C98 O105 1.255 . S
O99 Fe88 1.976 . S
O99 C106 1.287 . S
O100 Fe89 1.996 . S
O100 C106 1.255 . S
O101 Fe91 1.976 1_565 S
O101 C96 1.287 . S
O102 Fe88 1.996 1_565 S
O102 C96 1.255 . S
C103 O107 1.295 . S
C103 O108 1.235 . S
O104 Fe89 1.976 . S
O104 C98 1.287 . S
O105 Fe91 1.996 . S
O105 C98 1.255 . S
C106 O99 1.287 . S
C106 O100 1.255 . S
O107 Fe89 2.002 . S
O107 C103 1.295 . S
O108 Fe91 1.997 . S
O108 C103 1.235 . S
C109 O92 1.295 . S
C109 O93 1.235 . S
Fe110 O112 1.918 . S
Fe110 O115 1.997 . S
Fe110 O116 2.002 . S
Fe110 O121 1.976 1_565 S
Fe110 O124 1.996 . S
Fe111 O112 1.918 . S
Fe111 O119 1.997 . S
Fe111 O122 1.996 1_565 S
Fe111 O126 1.976 . S
Fe111 O129 2.002 . S
O112 Fe110 1.918 . S
O112 Fe111 1.918 . S
O112 Fe113 1.918 . S
Fe113 O112 1.918 . S
Fe113 O114 2.002 . S
Fe113 O123 1.976 . S
Fe113 O127 1.996 . S
Fe113 O130 1.997 . S
O114 Fe113 2.002 . S
O114 C131 1.295 . S
O115 Fe110 1.997 . S
O115 C131 1.235 . S
O116 Fe110 2.002 . S
O116 C117 1.295 . S
C117 O116 1.295 . S
C117 O119 1.235 . S
C118 O123 1.287 . S
C118 O124 1.255 . S
O119 Fe111 1.997 . S
O119 C117 1.235 . S
C120 O126 1.287 . S
C120 O127 1.255 . S
O121 Fe110 1.976 1_545 S
O121 C128 1.287 . S
O122 Fe111 1.996 1_545 S
O122 C128 1.255 . S
O123 Fe113 1.976 . S
O123 C118 1.287 . S
O124 Fe110 1.996 . S
O124 C118 1.255 . S
C125 O129 1.295 . S
C125 O130 1.235 . S
O126 Fe111 1.976 . S
O126 C120 1.287 . S
O127 Fe113 1.996 . S
O127 C120 1.255 . S
C128 O121 1.287 . S
C128 O122 1.255 . S
O129 Fe111 2.002 . S
O129 C125 1.295 . S
O130 Fe113 1.997 . S
O130 C125 1.235 . S
C131 O114 1.295 . S
C131 O115 1.235 . S
Fe132 O134 1.918 . S
Fe132 O137 1.997 . S
Fe132 O138 2.002 . S
Fe132 O143 1.976 . S
Fe132 O146 1.996 . S
Fe133 O134 1.918 . S
Fe133 O141 1.997 . S
Fe133 O144 1.996 . S
Fe133 O148 1.976 . S
Fe133 O151 2.002 . S
O134 Fe132 1.918 . S
O134 Fe133 1.918 . S
O134 Fe135 1.918 . S
Fe135 O134 1.918 . S
Fe135 O136 2.002 . S
Fe135 O145 1.976 . S
Fe135 O149 1.996 . S
Fe135 O152 1.997 . S
O136 Fe135 2.002 . S
O136 C153 1.295 . S
O137 Fe132 1.997 . S
O137 C153 1.235 . S
O138 Fe132 2.002 . S
O138 C139 1.295 . S
C139 O138 1.295 . S
C139 O141 1.235 . S
C140 O145 1.287 . S
C140 O146 1.255 . S
O141 Fe133 1.997 . S
O141 C139 1.235 . S
C142 O148 1.287 . S
C142 O149 1.255 . S
O143 Fe132 1.976 . S
O143 C150 1.287 . S
O144 Fe133 1.996 . S
O144 C150 1.255 . S
O145 Fe135 1.976 . S
O145 C140 1.287 . S
O146 Fe132 1.996 . S
O146 C140 1.255 . S
C147 O151 1.295 . S
C147 O152 1.235 . S
O148 Fe133 1.976 . S
O148 C142 1.287 . S
O149 Fe135 1.996 . S
O149 C142 1.255 . S
C150 O143 1.287 . S
C150 O144 1.255 . S
O151 Fe133 2.002 . S
O151 C147 1.295 . S
O152 Fe135 1.997 . S
O152 C147 1.235 . S
C153 O136 1.295 . S
C153 O137 1.235 . S
Fe154 O156 1.918 . S
Fe154 O159 1.997 . S
Fe154 O160 2.002 . S
Fe154 O165 1.976 . S
Fe154 O168 1.996 . S
Fe155 O156 1.918 . S
Fe155 O163 1.997 . S
Fe155 O166 1.996 . S
Fe155 O170 1.976 . S
Fe155 O173 2.002 1_655 S
O156 Fe154 1.918 . S
O156 Fe155 1.918 . S
O156 Fe157 1.918 . S
Fe157 O156 1.918 . S
Fe157 O158 2.002 . S
Fe157 O167 1.976 . S
Fe157 O171 1.996 . S
Fe157 O174 1.997 1_655 S
O158 Fe157 2.002 . S
O158 C175 1.295 . S
O159 Fe154 1.997 . S
O159 C175 1.235 . S
O160 Fe154 2.002 . S
O160 C161 1.295 . S
C161 O160 1.295 . S
C161 O163 1.235 . S
C162 O167 1.287 . S
C162 O168 1.255 . S
O163 Fe155 1.997 . S
O163 C161 1.235 . S
C164 O170 1.287 . S
C164 O171 1.255 . S
O165 Fe154 1.976 . S
O165 C172 1.287 . S
O166 Fe155 1.996 . S
O166 C172 1.255 . S
O167 Fe157 1.976 . S
O167 C162 1.287 . S
O168 Fe154 1.996 . S
O168 C162 1.255 . S
C169 O173 1.295 . S
C169 O174 1.235 . S
O170 Fe155 1.976 . S
O170 C164 1.287 . S
O171 Fe157 1.996 . S
O171 C164 1.255 . S
C172 O165 1.287 . S
C172 O166 1.255 . S
O173 Fe155 2.002 1_455 S
O173 C169 1.295 . S
O174 Fe157 1.997 1_455 S
O174 C169 1.235 . S
C175 O158 1.295 . S
C175 O159 1.235 . S
Fe176 O178 1.918 . S
Fe176 O181 1.997 . S
Fe176 O182 2.002 . S
Fe176 O187 1.976 . S
Fe176 O190 1.996 . S
Fe177 O178 1.918 . S
Fe177 O185 1.997 . S
Fe177 O188 1.996 . S
Fe177 O192 1.976 1_554 S
Fe177 O195 2.002 1_545 S
O178 Fe176 1.918 . S
O178 Fe177 1.918 . S
O178 Fe179 1.918 . S
Fe179 O178 1.918 . S
Fe179 O180 2.002 . S
Fe179 O189 1.976 . S
Fe179 O193 1.996 1_554 S
Fe179 O196 1.997 1_545 S
O180 Fe179 2.002 . S
O180 C197 1.295 . S
O181 Fe176 1.997 . S
O181 C197 1.235 . S
O182 Fe176 2.002 . S
O182 C183 1.295 . S
C183 O182 1.295 . S
C183 O185 1.235 . S
C184 O189 1.287 . S
C184 O190 1.255 . S
O185 Fe177 1.997 . S
O185 C183 1.235 . S
C186 O192 1.287 . S
C186 O193 1.255 . S
O187 Fe176 1.976 . S
O187 C194 1.287 . S
O188 Fe177 1.996 . S
O188 C194 1.255 . S
O189 Fe179 1.976 . S
O189 C184 1.287 . S
O190 Fe176 1.996 . S
O190 C184 1.255 . S
C191 O195 1.295 . S
C191 O196 1.235 . S
O192 Fe177 1.976 1_556 S
O192 C186 1.287 . S
O193 Fe179 1.996 1_556 S
O193 C186 1.255 . S
C194 O187 1.287 . S
C194 O188 1.255 . S
O195 Fe177 2.002 1_565 S
O195 C191 1.295 . S
O196 Fe179 1.997 1_565 S
O196 C191 1.235 . S
C197 O180 1.295 . S
C197 O181 1.235 . S
Fe198 O200 1.918 . S
Fe198 O203 1.997 . S
Fe198 O204 2.002 . S
Fe198 O209 1.976 . S
Fe198 O212 1.996 . S
Fe199 O200 1.918 . S
Fe199 O207 1.997 . S
Fe199 O210 1.996 . S
Fe199 O214 1.976 1_556 S
Fe199 O217 2.002 . S
O200 Fe198 1.918 . S
O200 Fe199 1.918 . S
O200 Fe201 1.918 . S
Fe201 O200 1.918 . S
Fe201 O202 2.002 . S
Fe201 O211 1.976 . S
Fe201 O215 1.996 1_556 S
Fe201 O218 1.997 . S
O202 Fe201 2.002 . S
O202 C219 1.295 . S
O203 Fe198 1.997 . S
O203 C219 1.235 . S
O204 Fe198 2.002 . S
O204 C205 1.295 . S
C205 O204 1.295 . S
C205 O207 1.235 . S
C206 O211 1.287 . S
C206 O212 1.255 . S
O207 Fe199 1.997 . S
O207 C205 1.235 . S
C208 O214 1.287 . S
C208 O215 1.255 . S
O209 Fe198 1.976 . S
O209 C216 1.287 . S
O210 Fe199 1.996 . S
O210 C216 1.255 . S
O211 Fe201 1.976 . S
O211 C206 1.287 . S
O212 Fe198 1.996 . S
O212 C206 1.255 . S
C213 O217 1.295 . S
C213 O218 1.235 . S
O214 Fe199 1.976 1_554 S
O214 C208 1.287 . S
O215 Fe201 1.996 1_554 S
O215 C208 1.255 . S
C216 O209 1.287 . S
C216 O210 1.255 . S
O217 Fe199 2.002 . S
O217 C213 1.295 . S
O218 Fe201 1.997 . S
O218 C213 1.235 . S
C219 O202 1.295 . S
C219 O203 1.235 . S
Fe220 O222 1.918 . S
Fe220 O225 1.997 . S
Fe220 O226 2.002 . S
Fe220 O231 1.976 . S
Fe220 O234 1.996 . S
Fe221 O222 1.918 . S
Fe221 O229 1.997 . S
Fe221 O232 1.996 . S
Fe221 O236 1.976 . S
Fe221 O239 2.002 . S
O222 Fe220 1.918 . S
O222 Fe221 1.918 . S
O222 Fe223 1.918 . S
Fe223 O222 1.918 . S
Fe223 O224 2.002 . S
Fe223 O233 1.976 . S
Fe223 O237 1.996 . S
Fe223 O240 1.997 . S
O224 Fe223 2.002 . S
O224 C241 1.295 . S
O225 Fe220 1.997 . S
O225 C241 1.235 . S
O226 Fe220 2.002 . S
O226 C227 1.295 . S
C227 O226 1.295 . S
C227 O229 1.235 . S
C228 O233 1.287 . S
C228 O234 1.255 . S
O229 Fe221 1.997 . S
O229 C227 1.235 . S
C230 O236 1.287 . S
C230 O237 1.255 . S
O231 Fe220 1.976 . S
O231 C238 1.287 . S
O232 Fe221 1.996 . S
O232 C238 1.255 . S
O233 Fe223 1.976 . S
O233 C228 1.287 . S
O234 Fe220 1.996 . S
O234 C228 1.255 . S
C235 O239 1.295 . S
C235 O240 1.235 . S
O236 Fe221 1.976 . S
O236 C230 1.287 . S
O237 Fe223 1.996 . S
O237 C230 1.255 . S
C238 O231 1.287 . S
C238 O232 1.255 . S
O239 Fe221 2.002 . S
O239 C235 1.295 . S
O240 Fe223 1.997 . S
O240 C235 1.235 . S
C241 O224 1.295 . S
C241 O225 1.235 . S
Fe242 O244 1.918 . S
Fe242 O247 1.997 . S
Fe242 O248 2.002 . S
Fe242 O253 1.976 . S
Fe242 O256 1.996 . S
Fe243 O244 1.918 . S
Fe243 O251 1.997 . S
Fe243 O254 1.996 . S
Fe243 O258 1.976 . S
Fe243 O261 2.002 1_565 S
O244 Fe242 1.918 . S
O244 Fe243 1.918 . S
O244 Fe245 1.918 . S
Fe245 O244 1.918 . S
Fe245 O246 2.002 . S
Fe245 O255 1.976 . S
Fe245 O259 1.996 . S
Fe245 O262 1.997 1_565 S
O246 Fe245 2.002 . S
O246 C263 1.295 . S
O247 Fe242 1.997 . S
O247 C263 1.235 . S
O248 Fe242 2.002 . S
O248 C249 1.295 . S
C249 O248 1.295 . S
C249 O251 1.235 . S
C250 O255 1.287 . S
C250 O256 1.255 . S
O251 Fe243 1.997 . S
O251 C249 1.235 . S
C252 O258 1.287 . S
C252 O259 1.255 . S
O253 Fe242 1.976 . S
O253 C260 1.287 . S
O254 Fe243 1.996 . S
O254 C260 1.255 . S
O255 Fe245 1.976 . S
O255 C250 1.287 . S
O256 Fe242 1.996 . S
O256 C250 1.255 . S
C257 O261 1.295 . S
C257 O262 1.235 . S
O258 Fe243 1.976 . S
O258 C252 1.287 . S
O259 Fe245 1.996 . S
O259 C252 1.255 . S
C260 O253 1.287 . S
C260 O254 1.255 . S
O261 Fe243 2.002 1_545 S
O261 C257 1.295 . S
O262 Fe245 1.997 1_545 S
O262 C257 1.235 . S
C263 O246 1.295 . S
C263 O247 1.235 . S
Fe264 O266 1.918 . S
Fe264 O269 1.997 . S
Fe264 O270 2.002 . S
Fe264 O275 1.976 . S
Fe264 O278 1.996 . S
Fe265 O266 1.918 . S
Fe265 O273 1.997 . S
Fe265 O276 1.996 . S
Fe265 O280 1.976 1_655 S
Fe265 O283 2.002 1_556 S
O266 Fe264 1.918 . S
O266 Fe265 1.918 . S
O266 Fe267 1.918 . S
Fe267 O266 1.918 . S
Fe267 O268 2.002 . S
Fe267 O277 1.976 . S
Fe267 O281 1.996 1_655 S
Fe267 O284 1.997 1_556 S
O268 Fe267 2.002 . S
O268 C285 1.295 . S
O269 Fe264 1.997 . S
O269 C285 1.235 . S
O270 Fe264 2.002 . S
O270 C271 1.295 . S
C271 O270 1.295 . S
C271 O273 1.235 . S
C272 O277 1.287 . S
C272 O278 1.255 . S
O273 Fe265 1.997 . S
O273 C271 1.235 . S
C274 O280 1.287 . S
C274 O281 1.255 . S
O275 Fe264 1.976 . S
O275 C282 1.287 . S
O276 Fe265 1.996 . S
O276 C282 1.255 . S
O277 Fe267 1.976 . S
O277 C272 1.287 . S
O278 Fe264 1.996 . S
O278 C272 1.255 . S
C279 O283 1.295 . S
C279 O284 1.235 . S
O280 Fe265 1.976 1_455 S
O280 C274 1.287 . S
O281 Fe267 1.996 1_455 S
O281 C274 1.255 . S
C282 O275 1.287 . S
C282 O276 1.255 . S
O283 Fe265 2.002 1_554 S
O283 C279 1.295 . S
O284 Fe267 1.997 1_554 S
O284 C279 1.235 . S
C285 O268 1.295 . S
C285 O269 1.235 . S
Fe286 O288 1.918 . S
Fe286 O291 1.997 . S
Fe286 O292 2.002 . S
Fe286 O297 1.976 . S
Fe286 O300 1.996 . S
Fe287 O288 1.918 . S
Fe287 O295 1.997 . S
Fe287 O298 1.996 . S
Fe287 O302 1.976 . S
Fe287 O305 2.002 . S
O288 Fe286 1.918 . S
O288 Fe287 1.918 . S
O288 Fe289 1.918 . S
Fe289 O288 1.918 . S
Fe289 O290 2.002 . S
Fe289 O299 1.976 . S
Fe289 O303 1.996 . S
Fe289 O306 1.997 . S
O290 Fe289 2.002 . S
O290 C307 1.295 . S
O291 Fe286 1.997 . S
O291 C307 1.235 . S
O292 Fe286 2.002 . S
O292 C293 1.295 . S
C293 O292 1.295 . S
C293 O295 1.235 . S
C294 O299 1.287 . S
C294 O300 1.255 . S
O295 Fe287 1.997 . S
O295 C293 1.235 . S
C296 O302 1.287 . S
C296 O303 1.255 . S
O297 Fe286 1.976 . S
O297 C304 1.287 . S
O298 Fe287 1.996 . S
O298 C304 1.255 . S
O299 Fe289 1.976 . S
O299 C294 1.287 . S
O300 Fe286 1.996 . S
O300 C294 1.255 . S
C301 O305 1.295 . S
C301 O306 1.235 . S
O302 Fe287 1.976 . S
O302 C296 1.287 . S
O303 Fe289 1.996 . S
O303 C296 1.255 . S
C304 O297 1.287 . S
C304 O298 1.255 . S
O305 Fe287 2.002 . S
O305 C301 1.295 . S
O306 Fe289 1.997 . S
O306 C301 1.235 . S
C307 O290 1.295 . S
C307 O291 1.235 . S
Fe308 O310 1.918 . S
Fe308 O313 1.997 . S
Fe308 O314 2.002 1_554 S
Fe308 O319 1.976 . S
Fe308 O322 1.996 . S
Fe309 O310 1.918 . S
Fe309 O317 1.997 1_554 S
Fe309 O320 1.996 . S
Fe309 O324 1.976 . S
Fe309 O327 2.002 . S
O310 Fe308 1.918 . S
O310 Fe309 1.918 . S
O310 Fe311 1.918 . S
Fe311 O310 1.918 . S
Fe311 O312 2.002 . S
Fe311 O321 1.976 . S
Fe311 O325 1.996 . S
Fe311 O328 1.997 . S
O312 Fe311 2.002 . S
O312 C329 1.295 . S
O313 Fe308 1.997 . S
O313 C329 1.235 . S
O314 Fe308 2.002 1_556 S
O314 C315 1.295 . S
C315 O314 1.295 . S
C315 O317 1.235 . S
C316 O321 1.287 . S
C316 O322 1.255 . S
O317 Fe309 1.997 1_556 S
O317 C315 1.235 . S
C318 O324 1.287 . S
C318 O325 1.255 . S
O319 Fe308 1.976 . S
O319 C326 1.287 . S
O320 Fe309 1.996 . S
O320 C326 1.255 . S
O321 Fe311 1.976 . S
O321 C316 1.287 . S
O322 Fe308 1.996 . S
O322 C316 1.255 . S
C323 O327 1.295 . S
C323 O328 1.235 . S
O324 Fe309 1.976 . S
O324 C318 1.287 . S
O325 Fe311 1.996 . S
O325 C318 1.255 . S
C326 O319 1.287 . S
C326 O320 1.255 . S
O327 Fe309 2.002 . S
O327 C323 1.295 . S
O328 Fe311 1.997 . S
O328 C323 1.235 . S
C329 O312 1.295 . S
C329 O313 1.235 . S
Fe330 O332 1.918 . S
Fe330 O335 1.997 . S
Fe330 O336 2.002 . S
Fe330 O341 1.976 . S
Fe330 O344 1.996 . S
Fe331 O332 1.918 . S
Fe331 O339 1.997 . S
Fe331 O342 1.996 . S
Fe331 O346 1.976 1_455 S
Fe331 O349 2.002 . S
O332 Fe330 1.918 . S
O332 Fe331 1.918 . S
O332 Fe333 1.918 . S
Fe333 O332 1.918 . S
Fe333 O334 2.002 . S
Fe333 O343 1.976 . S
Fe333 O347 1.996 1_455 S
Fe333 O350 1.997 . S
O334 Fe333 2.002 . S
O334 C351 1.295 . S
O335 Fe330 1.997 . S
O335 C351 1.235 . S
O336 Fe330 2.002 . S
O336 C337 1.295 . S
C337 O336 1.295 . S
C337 O339 1.235 . S
C338 O343 1.287 . S
C338 O344 1.255 . S
O339 Fe331 1.997 . S
O339 C337 1.235 . S
C340 O346 1.287 . S
C340 O347 1.255 . S
O341 Fe330 1.976 . S
O341 C348 1.287 . S
O342 Fe331 1.996 . S
O342 C348 1.255 . S
O343 Fe333 1.976 . S
O343 C338 1.287 . S
O344 Fe330 1.996 . S
O344 C338 1.255 . S
C345 O349 1.295 . S
C345 O350 1.235 . S
O346 Fe331 1.976 1_655 S
O346 C340 1.287 . S
O347 Fe333 1.996 1_655 S
O347 C340 1.255 . S
C348 O341 1.287 . S
C348 O342 1.255 . S
O349 Fe331 2.002 . S
O349 C345 1.295 . S
O350 Fe333 1.997 . S
O350 C345 1.235 . S
C351 O334 1.295 . S
C351 O335 1.235 . S
Fe352 O354 1.918 . S
Fe352 O357 1.997 . S
Fe352 O358 2.002 . S
Fe352 O363 1.976 . S
Fe352 O366 1.996 . S
Fe353 O354 1.918 . S
Fe353 O361 1.997 . S
Fe353 O364 1.996 . S
Fe353 O368 1.976 1_565 S
Fe353 O371 2.002 1_655 S
O354 Fe352 1.918 . S
O354 Fe353 1.918 . S
O354 Fe355 1.918 . S
Fe355 O354 1.918 . S
Fe355 O356 2.002 . S
Fe355 O365 1.976 . S
Fe355 O369 1.996 1_565 S
Fe355 O372 1.997 1_655 S
O356 Fe355 2.002 . S
O356 C373 1.295 . S
O357 Fe352 1.997 . S
O357 C373 1.235 . S
O358 Fe352 2.002 . S
O358 C359 1.295 . S
C359 O358 1.295 . S
C359 O361 1.235 . S
C360 O365 1.287 . S
C360 O366 1.255 . S
O361 Fe353 1.997 . S
O361 C359 1.235 . S
C362 O368 1.287 . S
C362 O369 1.255 . S
O363 Fe352 1.976 . S
O363 C370 1.287 . S
O364 Fe353 1.996 . S
O364 C370 1.255 . S
O365 Fe355 1.976 . S
O365 C360 1.287 . S
O366 Fe352 1.996 . S
O366 C360 1.255 . S
C367 O371 1.295 . S
C367 O372 1.235 . S
O368 Fe353 1.976 1_545 S
O368 C362 1.287 . S
O369 Fe355 1.996 1_545 S
O369 C362 1.255 . S
C370 O363 1.287 . S
C370 O364 1.255 . S
O371 Fe353 2.002 1_455 S
O371 C367 1.295 . S
O372 Fe355 1.997 1_455 S
O372 C367 1.235 . S
C373 O356 1.295 . S
C373 O357 1.235 . S
Fe374 O376 1.918 . S
Fe374 O379 1.997 . S
Fe374 O380 2.002 . S
Fe374 O385 1.976 . S
Fe374 O388 1.996 1_545 S
Fe375 O376 1.918 . S
Fe375 O383 1.997 . S
Fe375 O386 1.996 . S
Fe375 O390 1.976 . S
Fe375 O393 2.002 . S
O376 Fe374 1.918 . S
O376 Fe375 1.918 . S
O376 Fe377 1.918 . S
Fe377 O376 1.918 . S
Fe377 O378 2.002 . S
Fe377 O387 1.976 1_545 S
Fe377 O391 1.996 . S
Fe377 O394 1.997 . S
O378 Fe377 2.002 . S
O378 C395 1.295 . S
O379 Fe374 1.997 . S
O379 C395 1.235 . S
O380 Fe374 2.002 . S
O380 C381 1.295 . S
C381 O380 1.295 . S
C381 O383 1.235 . S
C382 O387 1.287 . S
C382 O388 1.255 . S
O383 Fe375 1.997 . S
O383 C381 1.235 . S
C384 O390 1.287 . S
C384 O391 1.255 . S
O385 Fe374 1.976 . S
O385 C392 1.287 . S
O386 Fe375 1.996 . S
O386 C392 1.255 . S
O387 Fe377 1.976 1_565 S
O387 C382 1.287 . S
O388 Fe374 1.996 1_565 S
O388 C382 1.255 . S
C389 O393 1.295 . S
C389 O394 1.235 . S
O390 Fe375 1.976 . S
O390 C384 1.287 . S
O391 Fe377 1.996 . S
O391 C384 1.255 . S
C392 O385 1.287 . S
C392 O386 1.255 . S
O393 Fe375 2.002 . S
O393 C389 1.295 . S
O394 Fe377 1.997 . S
O394 C389 1.235 . S
C395 O378 1.295 . S
C395 O379 1.235 . S
Fe396 O398 1.918 . S
Fe396 O401 1.997 . S
Fe396 O402 2.002 . S
Fe396 O407 1.976 . S
Fe396 O410 1.996 . S
Fe397 O398 1.918 . S
Fe397 O405 1.997 . S
Fe397 O408 1.996 . S
Fe397 O412 1.976 . S
Fe397 O415 2.002 . S
O398 Fe396 1.918 . S
O398 Fe397 1.918 . S
O398 Fe399 1.918 . S
Fe399 O398 1.918 . S
Fe399 O400 2.002 . S
Fe399 O409 1.976 . S
Fe399 O413 1.996 . S
Fe399 O416 1.997 . S
O400 Fe399 2.002 . S
O400 C417 1.295 . S
O401 Fe396 1.997 . S
O401 C417 1.235 . S
O402 Fe396 2.002 . S
O402 C403 1.295 . S
C403 O402 1.295 . S
C403 O405 1.235 . S
C404 O409 1.287 . S
C404 O410 1.255 . S
O405 Fe397 1.997 . S
O405 C403 1.235 . S
C406 O412 1.287 . S
C406 O413 1.255 . S
O407 Fe396 1.976 . S
O407 C414 1.287 . S
O408 Fe397 1.996 . S
O408 C414 1.255 . S
O409 Fe399 1.976 . S
O409 C404 1.287 . S
O410 Fe396 1.996 . S
O410 C404 1.255 . S
C411 O415 1.295 . S
C411 O416 1.235 . S
O412 Fe397 1.976 . S
O412 C406 1.287 . S
O413 Fe399 1.996 . S
O413 C406 1.255 . S
C414 O407 1.287 . S
C414 O408 1.255 . S
O415 Fe397 2.002 . S
O415 C411 1.295 . S
O416 Fe399 1.997 . S
O416 C411 1.235 . S
C417 O400 1.295 . S
C417 O401 1.235 . S
Fe418 O420 1.918 . S
Fe418 O423 1.997 1_455 S
Fe418 O424 2.002 . S
Fe418 O429 1.976 . S
Fe418 O432 1.996 . S
Fe419 O420 1.918 . S
Fe419 O427 1.997 . S
Fe419 O430 1.996 . S
Fe419 O434 1.976 . S
Fe419 O437 2.002 . S
O420 Fe418 1.918 . S
O420 Fe419 1.918 . S
O420 Fe421 1.918 . S
Fe421 O420 1.918 . S
Fe421 O422 2.002 1_455 S
Fe421 O431 1.976 . S
Fe421 O435 1.996 . S
Fe421 O438 1.997 . S
O422 Fe421 2.002 1_655 S
O422 C439 1.295 . S
O423 Fe418 1.997 1_655 S
O423 C439 1.235 . S
O424 Fe418 2.002 . S
O424 C425 1.295 . S
C425 O424 1.295 . S
C425 O427 1.235 . S
C426 O431 1.287 . S
C426 O432 1.255 . S
O427 Fe419 1.997 . S
O427 C425 1.235 . S
C428 O434 1.287 . S
C428 O435 1.255 . S
O429 Fe418 1.976 . S
O429 C436 1.287 . S
O430 Fe419 1.996 . S
O430 C436 1.255 . S
O431 Fe421 1.976 . S
O431 C426 1.287 . S
O432 Fe418 1.996 . S
O432 C426 1.255 . S
C433 O437 1.295 . S
C433 O438 1.235 . S
O434 Fe419 1.976 . S
O434 C428 1.287 . S
O435 Fe421 1.996 . S
O435 C428 1.255 . S
C436 O429 1.287 . S
C436 O430 1.255 . S
O437 Fe419 2.002 . S
O437 C433 1.295 . S
O438 Fe421 1.997 . S
O438 C433 1.235 . S
C439 O422 1.295 . S
C439 O423 1.235 . S
Fe440 O442 1.918 . S
Fe440 O445 1.997 . S
Fe440 O446 2.002 . S
Fe440 O451 1.976 . S
Fe440 O454 1.996 . S
Fe441 O442 1.918 . S
Fe441 O449 1.997 . S
Fe441 O452 1.996 . S
Fe441 O456 1.976 1_556 S
Fe441 O459 2.002 1_565 S
O442 Fe440 1.918 . S
O442 Fe441 1.918 . S
O442 Fe443 1.918 . S
Fe443 O442 1.918 . S
Fe443 O444 2.002 . S
Fe443 O453 1.976 . S
Fe443 O457 1.996 1_556 S
Fe443 O460 1.997 1_565 S
O444 Fe443 2.002 . S
O444 C461 1.295 . S
O445 Fe440 1.997 . S
O445 C461 1.235 . S
O446 Fe440 2.002 . S
O446 C447 1.295 . S
C447 O446 1.295 . S
C447 O449 1.235 . S
C448 O453 1.287 . S
C448 O454 1.255 . S
O449 Fe441 1.997 . S
O449 C447 1.235 . S
C450 O456 1.287 . S
C450 O457 1.255 . S
O451 Fe440 1.976 . S
O451 C458 1.287 . S
O452 Fe441 1.996 . S
O452 C458 1.255 . S
O453 Fe443 1.976 . S
O453 C448 1.287 . S
O454 Fe440 1.996 . S
O454 C448 1.255 . S
C455 O459 1.295 . S
C455 O460 1.235 . S
O456 Fe441 1.976 1_554 S
O456 C450 1.287 . S
O457 Fe443 1.996 1_554 S
O457 C450 1.255 . S
C458 O451 1.287 . S
C458 O452 1.255 . S
O459 Fe441 2.002 1_545 S
O459 C455 1.295 . S
O460 Fe443 1.997 1_545 S
O460 C455 1.235 . S
C461 O444 1.295 . S
C461 O445 1.235 . S
Fe462 O464 1.918 . S
Fe462 O467 1.997 . S
Fe462 O468 2.002 . S
Fe462 O473 1.976 1_554 S
Fe462 O476 1.996 . S
Fe463 O464 1.918 . S
Fe463 O471 1.997 . S
Fe463 O474 1.996 1_554 S
Fe463 O478 1.976 . S
Fe463 O481 2.002 . S
O464 Fe462 1.918 . S
O464 Fe463 1.918 . S
O464 Fe465 1.918 . S
Fe465 O464 1.918 . S
Fe465 O466 2.002 . S
Fe465 O475 1.976 . S
Fe465 O479 1.996 . S
Fe465 O482 1.997 . S
O466 Fe465 2.002 . S
O466 C483 1.295 . S
O467 Fe462 1.997 . S
O467 C483 1.235 . S
O468 Fe462 2.002 . S
O468 C469 1.295 . S
C469 O468 1.295 . S
C469 O471 1.235 . S
C470 O475 1.287 . S
C470 O476 1.255 . S
O471 Fe463 1.997 . S
O471 C469 1.235 . S
C472 O478 1.287 . S
C472 O479 1.255 . S
O473 Fe462 1.976 1_556 S
O473 C480 1.287 . S
O474 Fe463 1.996 1_556 S
O474 C480 1.255 . S
O475 Fe465 1.976 . S
O475 C470 1.287 . S
O476 Fe462 1.996 . S
O476 C470 1.255 . S
C477 O481 1.295 . S
C477 O482 1.235 . S
O478 Fe463 1.976 . S
O478 C472 1.287 . S
O479 Fe465 1.996 . S
O479 C472 1.255 . S
C480 O473 1.287 . S
C480 O474 1.255 . S
O481 Fe463 2.002 . S
O481 C477 1.295 . S
O482 Fe465 1.997 . S
O482 C477 1.235 . S
C483 O466 1.295 . S
C483 O467 1.235 . S
Fe484 O486 1.918 . S
Fe484 O489 1.997 . S
Fe484 O490 2.002 . S
Fe484 O495 1.976 . S
Fe484 O498 1.996 . S
Fe485 O486 1.918 . S
Fe485 O493 1.997 . S
Fe485 O496 1.996 . S
Fe485 O500 1.976 . S
Fe485 O503 2.002 . S
O486 Fe484 1.918 . S
O486 Fe485 1.918 . S
O486 Fe487 1.918 . S
Fe487 O486 1.918 . S
Fe487 O488 2.002 . S
Fe487 O497 1.976 . S
Fe487 O501 1.996 . S
Fe487 O504 1.997 . S
O488 Fe487 2.002 . S
O488 C505 1.295 . S
O489 Fe484 1.997 . S
O489 C505 1.235 . S
O490 Fe484 2.002 . S
O490 C491 1.295 . S
C491 O490 1.295 . S
C491 O493 1.235 . S
C492 O497 1.287 . S
C492 O498 1.255 . S
O493 Fe485 1.997 . S
O493 C491 1.235 . S
C494 O500 1.287 . S
C494 O501 1.255 . S
O495 Fe484 1.976 . S
O495 C502 1.287 . S
O496 Fe485 1.996 . S
O496 C502 1.255 . S
O497 Fe487 1.976 . S
O497 C492 1.287 . S
O498 Fe484 1.996 . S
O498 C492 1.255 . S
C499 O503 1.295 . S
C499 O504 1.235 . S
O500 Fe485 1.976 . S
O500 C494 1.287 . S
O501 Fe487 1.996 . S
O501 C494 1.255 . S
C502 O495 1.287 . S
C502 O496 1.255 . S
O503 Fe485 2.002 . S
O503 C499 1.295 . S
O504 Fe487 1.997 . S
O504 C499 1.235 . S
C505 O488 1.295 . S
C505 O489 1.235 . S
Fe506 O508 1.918 . S
Fe506 O511 1.997 1_545 S
Fe506 O512 2.002 . S
Fe506 O517 1.976 . S
Fe506 O520 1.996 . S
Fe507 O508 1.918 . S
Fe507 O515 1.997 . S
Fe507 O518 1.996 . S
Fe507 O522 1.976 . S
Fe507 O525 2.002 . S
O508 Fe506 1.918 . S
O508 Fe507 1.918 . S
O508 Fe509 1.918 . S
Fe509 O508 1.918 . S
Fe509 O510 2.002 1_545 S
Fe509 O519 1.976 . S
Fe509 O523 1.996 . S
Fe509 O526 1.997 . S
O510 Fe509 2.002 1_565 S
O510 C527 1.295 . S
O511 Fe506 1.997 1_565 S
O511 C527 1.235 . S
O512 Fe506 2.002 . S
O512 C513 1.295 . S
C513 O512 1.295 . S
C513 O515 1.235 . S
C514 O519 1.287 . S
C514 O520 1.255 . S
O515 Fe507 1.997 . S
O515 C513 1.235 . S
C516 O522 1.287 . S
C516 O523 1.255 . S
O517 Fe506 1.976 . S
O517 C524 1.287 . S
O518 Fe507 1.996 . S
O518 C524 1.255 . S
O519 Fe509 1.976 . S
O519 C514 1.287 . S
O520 Fe506 1.996 . S
O520 C514 1.255 . S
C521 O525 1.295 . S
C521 O526 1.235 . S
O522 Fe507 1.976 . S
O522 C516 1.287 . S
O523 Fe509 1.996 . S
O523 C516 1.255 . S
C524 O517 1.287 . S
C524 O518 1.255 . S
O525 Fe507 2.002 . S
O525 C521 1.295 . S
O526 Fe509 1.997 . S
O526 C521 1.235 . S
C527 O510 1.295 . S
C527 O511 1.235 . S
C528 C529 1.369 . S
C528 C530 1.419 . S
C528 H532 0.930 . S
C529 C528 1.369 . S
C529 C538 1.429 1_455 S
C530 C528 1.419 . S
C530 C531 1.363 . S
C530 H533 0.929 . S
C531 C530 1.363 . S
C531 C537 1.428 1_455 S
H532 C528 0.930 . S
H533 C530 0.929 . S
S534 N535 1.613 . S
S534 N536 1.610 . S
N535 S534 1.613 . S
N535 C538 1.350 . S
N536 S534 1.610 . S
N536 C537 1.351 . S
C537 C531 1.428 1_655 S
C537 N536 1.351 . S
C537 C538 1.434 . S
C538 C529 1.429 1_655 S
C538 N535 1.350 . S
C538 C537 1.434 . S
C539 C540 1.369 . S
C539 C541 1.419 . S
C539 H543 0.930 . S
C540 C539 1.369 . S
C540 C549 1.429 . S
C541 C539 1.419 . S
C541 C542 1.363 . S
C541 H544 0.929 . S
C542 C541 1.363 . S
C542 C548 1.428 . S
H543 C539 0.930 . S
H544 C541 0.929 . S
S545 N546 1.613 . S
S545 N547 1.610 . S
N546 S545 1.613 . S
N546 C549 1.350 . S
N547 S545 1.610 . S
N547 C548 1.351 . S
C548 C542 1.428 . S
C548 N547 1.351 . S
C548 C549 1.434 . S
C549 C540 1.429 . S
C549 N546 1.350 . S
C549 C548 1.434 . S
C550 C551 1.369 . S
C550 C552 1.419 . S
C550 H554 0.930 . S
C551 C550 1.369 . S
C551 C560 1.429 . S
C552 C550 1.419 . S
C552 C553 1.363 . S
C552 H555 0.929 . S
C553 C552 1.363 . S
C553 C559 1.428 . S
H554 C550 0.930 . S
H555 C552 0.929 . S
S556 N557 1.613 . S
S556 N558 1.610 . S
N557 S556 1.613 . S
N557 C560 1.350 . S
N558 S556 1.610 . S
N558 C559 1.351 . S
C559 C553 1.428 . S
C559 N558 1.351 . S
C559 C560 1.434 . S
C560 C551 1.429 . S
C560 N557 1.350 . S
C560 C559 1.434 . S
C561 C562 1.369 . S
C561 C563 1.419 . S
C561 H565 0.930 1_655 S
C562 C561 1.369 . S
C562 C571 1.429 . S
C563 C561 1.419 . S
C563 C564 1.363 . S
C563 H566 0.929 . S
C564 C563 1.363 . S
C564 C570 1.428 . S
H565 C561 0.930 1_455 S
H566 C563 0.929 . S
S567 N568 1.613 . S
S567 N569 1.610 . S
N568 S567 1.613 . S
N568 C571 1.350 . S
N569 S567 1.610 . S
N569 C570 1.351 . S
C570 C564 1.428 . S
C570 N569 1.351 . S
C570 C571 1.434 . S
C571 C562 1.429 . S
C571 N568 1.350 . S
C571 C570 1.434 . S
C572 C573 1.369 1_565 S
C572 C574 1.419 1_565 S
C572 H576 0.930 . S
C573 C572 1.369 1_545 S
C573 C582 1.429 . S
C574 C572 1.419 1_545 S
C574 C575 1.363 . S
C574 H577 0.929 1_545 S
C575 C574 1.363 . S
C575 C581 1.428 . S
H576 C572 0.930 . S
H577 C574 0.929 1_565 S
S578 N579 1.613 . S
S578 N580 1.610 . S
N579 S578 1.613 . S
N579 C582 1.350 . S
N580 S578 1.610 . S
N580 C581 1.351 . S
C581 C575 1.428 . S
C581 N580 1.351 . S
C581 C582 1.434 . S
C582 C573 1.429 . S
C582 N579 1.350 . S
C582 C581 1.434 . S
C583 C584 1.369 . S
C583 C585 1.419 . S
C583 H587 0.930 . S
C584 C583 1.369 . S
C584 C593 1.429 . S
C585 C583 1.419 . S
C585 C586 1.363 . S
C585 H588 0.929 . S
C586 C585 1.363 . S
C586 C592 1.428 . S
H587 C583 0.930 . S
H588 C585 0.929 . S
S589 N590 1.613 . S
S589 N591 1.610 1_545 S
N590 S589 1.613 . S
N590 C593 1.350 1_545 S
N591 S589 1.610 1_565 S
N591 C592 1.351 . S
C592 C586 1.428 . S
C592 N591 1.351 . S
C592 C593 1.434 . S
C593 C584 1.429 . S
C593 N590 1.350 1_565 S
C593 C592 1.434 . S
C594 C595 1.369 . S
C594 C596 1.419 . S
C594 H598 0.930 . S
C595 C594 1.369 . S
C595 C604 1.429 . S
C596 C594 1.419 . S
C596 C597 1.363 . S
C596 H599 0.929 . S
C597 C596 1.363 . S
C597 C603 1.428 . S
H598 C594 0.930 . S
H599 C596 0.929 . S
S600 N601 1.613 . S
S600 N602 1.610 . S
N601 S600 1.613 . S
N601 C604 1.350 . S
N602 S600 1.610 . S
N602 C603 1.351 . S
C603 C597 1.428 . S
C603 N602 1.351 . S
C603 C604 1.434 . S
C604 C595 1.429 . S
C604 N601 1.350 . S
C604 C603 1.434 . S
C605 C606 1.369 . S
C605 C607 1.419 . S
C605 H609 0.930 . S
C606 C605 1.369 . S
C606 C615 1.429 . S
C607 C605 1.419 . S
C607 C608 1.363 . S
C607 H610 0.929 . S
C608 C607 1.363 . S
C608 C614 1.428 . S
H609 C605 0.930 . S
H610 C607 0.929 . S
S611 N612 1.613 . S
S611 N613 1.610 . S
N612 S611 1.613 . S
N612 C615 1.350 . S
N613 S611 1.610 . S
N613 C614 1.351 . S
C614 C608 1.428 . S
C614 N613 1.351 . S
C614 C615 1.434 . S
C615 C606 1.429 . S
C615 N612 1.350 . S
C615 C614 1.434 . S
C616 C617 1.369 1_556 S
C616 C618 1.419 . S
C616 H620 0.930 . S
C617 C616 1.369 1_554 S
C617 C626 1.429 . S
C618 C616 1.419 . S
C618 C619 1.363 1_556 S
C618 H621 0.929 . S
C619 C618 1.363 1_554 S
C619 C625 1.428 . S
H620 C616 0.930 . S
H621 C618 0.929 . S
S622 N623 1.613 . S
S622 N624 1.610 . S
N623 S622 1.613 . S
N623 C626 1.350 . S
N624 S622 1.610 . S
N624 C625 1.351 . S
C625 C619 1.428 . S
C625 N624 1.351 . S
C625 C626 1.434 . S
C626 C617 1.429 . S
C626 N623 1.350 . S
C626 C625 1.434 . S
C627 C628 1.369 1_554 S
C627 C629 1.419 . S
C627 H631 0.930 . S
C628 C627 1.369 1_556 S
C628 C637 1.429 . S
C629 C627 1.419 . S
C629 C630 1.363 1_554 S
C629 H632 0.929 . S
C630 C629 1.363 1_556 S
C630 C636 1.428 . S
H631 C627 0.930 . S
H632 C629 0.929 . S
S633 N634 1.613 . S
S633 N635 1.610 . S
N634 S633 1.613 . S
N634 C637 1.350 . S
N635 S633 1.610 . S
N635 C636 1.351 . S
C636 C630 1.428 . S
C636 N635 1.351 . S
C636 C637 1.434 . S
C637 C628 1.429 . S
C637 N634 1.350 . S
C637 C636 1.434 . S
C638 C639 1.369 . S
C638 C640 1.419 . S
C638 H642 0.930 . S
C639 C638 1.369 . S
C639 C648 1.429 . S
C640 C638 1.419 . S
C640 C641 1.363 . S
C640 H643 0.929 . S
C641 C640 1.363 . S
C641 C647 1.428 . S
H642 C638 0.930 . S
H643 C640 0.929 . S
S644 N645 1.613 . S
S644 N646 1.610 . S
N645 S644 1.613 . S
N645 C648 1.350 . S
N646 S644 1.610 . S
N646 C647 1.351 . S
C647 C641 1.428 . S
C647 N646 1.351 . S
C647 C648 1.434 . S
C648 C639 1.429 . S
C648 N645 1.350 . S
C648 C647 1.434 . S
C649 C650 1.369 . S
C649 C651 1.419 . S
C649 H653 0.930 . S
C650 C649 1.369 . S
C650 C659 1.429 . S
C651 C649 1.419 . S
C651 C652 1.363 . S
C651 H654 0.929 . S
C652 C651 1.363 . S
C652 C658 1.428 . S
H653 C649 0.930 . S
H654 C651 0.929 . S
S655 N656 1.613 . S
S655 N657 1.610 . S
N656 S655 1.613 . S
N656 C659 1.350 . S
N657 S655 1.610 . S
N657 C658 1.351 . S
C658 C652 1.428 . S
C658 N657 1.351 . S
C658 C659 1.434 . S
C659 C650 1.429 . S
C659 N656 1.350 . S
C659 C658 1.434 . S
C660 C661 1.369 . S
C660 C662 1.419 . S
C660 H664 0.930 . S
C661 C660 1.369 . S
C661 C670 1.429 . S
C662 C660 1.419 . S
C662 C663 1.363 . S
C662 H665 0.929 1_655 S
C663 C662 1.363 . S
C663 C669 1.428 . S
H664 C660 0.930 . S
H665 C662 0.929 1_455 S
S666 N667 1.613 . S
S666 N668 1.610 . S
N667 S666 1.613 . S
N667 C670 1.350 . S
N668 S666 1.610 . S
N668 C669 1.351 . S
C669 C663 1.428 . S
C669 N668 1.351 . S
C669 C670 1.434 . S
C670 C661 1.429 . S
C670 N667 1.350 . S
C670 C669 1.434 . S
C671 C672 1.369 . S
C671 C673 1.419 . S
C671 H675 0.930 . S
C672 C671 1.369 . S
C672 C681 1.429 . S
C673 C671 1.419 . S
C673 C674 1.363 . S
C673 H676 0.929 . S
C674 C673 1.363 . S
C674 C680 1.428 . S
H675 C671 0.930 . S
H676 C673 0.929 . S
S677 N678 1.613 . S
S677 N679 1.610 . S
N678 S677 1.613 . S
N678 C681 1.350 . S
N679 S677 1.610 . S
N679 C680 1.351 . S
C680 C674 1.428 . S
C680 N679 1.351 . S
C680 C681 1.434 . S
C681 C672 1.429 . S
C681 N678 1.350 . S
C681 C680 1.434 . S
C682 C683 1.369 . S
C682 C684 1.419 . S
C682 H686 0.930 . S
C683 C682 1.369 . S
C683 C692 1.429 . S
C684 C682 1.419 . S
C684 C685 1.363 . S
C684 H687 0.929 . S
C685 C684 1.363 . S
C685 C691 1.428 . S
H686 C682 0.930 . S
H687 C684 0.929 . S
S688 N689 1.613 . S
S688 N690 1.610 . S
N689 S688 1.613 . S
N689 C692 1.350 . S
N690 S688 1.610 . S
N690 C691 1.351 . S
C691 C685 1.428 . S
C691 N690 1.351 . S
C691 C692 1.434 . S
C692 C683 1.429 . S
C692 N689 1.350 . S
C692 C691 1.434 . S
C693 C694 1.369 . S
C693 C695 1.419 . S
C693 H697 0.930 . S
C694 C693 1.369 . S
C694 C703 1.429 1_455 S
C695 C693 1.419 . S
C695 C696 1.363 . S
C695 H698 0.929 . S
C696 C695 1.363 . S
C696 C702 1.428 1_455 S
H697 C693 0.930 . S
H698 C695 0.929 . S
S699 N700 1.613 . S
S699 N701 1.610 . S
N700 S699 1.613 . S
N700 C703 1.350 . S
N701 S699 1.610 . S
N701 C702 1.351 . S
C702 C696 1.428 1_655 S
C702 N701 1.351 . S
C702 C703 1.434 . S
C703 C694 1.429 1_655 S
C703 N700 1.350 . S
C703 C702 1.434 . S
C704 C705 1.369 1_545 S
C704 C706 1.419 1_545 S
C704 H708 0.930 . S
C705 C704 1.369 1_565 S
C705 C714 1.429 . S
C706 C704 1.419 1_565 S
C706 C707 1.363 . S
C706 H709 0.929 1_565 S
C707 C706 1.363 . S
C707 C713 1.428 . S
H708 C704 0.930 . S
H709 C706 0.929 1_545 S
S710 N711 1.613 . S
S710 N712 1.610 . S
N711 S710 1.613 . S
N711 C714 1.350 . S
N712 S710 1.610 . S
N712 C713 1.351 . S
C713 C707 1.428 . S
C713 N712 1.351 . S
C713 C714 1.434 . S
C714 C705 1.429 . S
C714 N711 1.350 . S
C714 C713 1.434 . S
C715 C716 1.369 1_565 S
C715 C717 1.419 . S
C715 H719 0.930 . S
C716 C715 1.369 1_545 S
C716 C725 1.429 . S
C717 C715 1.419 . S
C717 C718 1.363 1_565 S
C717 H720 0.929 . S
C718 C717 1.363 1_545 S
C718 C724 1.428 . S
H719 C715 0.930 . S
H720 C717 0.929 . S
S721 N722 1.613 . S
S721 N723 1.610 . S
N722 S721 1.613 . S
N722 C725 1.350 . S
N723 S721 1.610 . S
N723 C724 1.351 . S
C724 C718 1.428 . S
C724 N723 1.351 . S
C724 C725 1.434 . S
C725 C716 1.429 . S
C725 N722 1.350 . S
C725 C724 1.434 . S
C726 C727 1.369 . S
C726 C728 1.419 . S
C726 H730 0.930 . S
C727 C726 1.369 . S
C727 C736 1.429 . S
C728 C726 1.419 . S
C728 C729 1.363 . S
C728 H731 0.929 . S
C729 C728 1.363 . S
C729 C735 1.428 . S
H730 C726 0.930 . S
H731 C728 0.929 . S
S732 N733 1.613 . S
S732 N734 1.610 . S
N733 S732 1.613 . S
N733 C736 1.350 . S
N734 S732 1.610 . S
N734 C735 1.351 . S
C735 C729 1.428 . S
C735 N734 1.351 . S
C735 C736 1.434 . S
C736 C727 1.429 . S
C736 N733 1.350 . S
C736 C735 1.434 . S
C737 C738 1.369 . S
C737 C739 1.419 . S
C737 H741 0.930 . S
C738 C737 1.369 . S
C738 C747 1.429 . S
C739 C737 1.419 . S
C739 C740 1.363 . S
C739 H742 0.929 . S
C740 C739 1.363 . S
C740 C746 1.428 . S
H741 C737 0.930 . S
H742 C739 0.929 . S
S743 N744 1.613 . S
S743 N745 1.610 . S
N744 S743 1.613 . S
N744 C747 1.350 . S
N745 S743 1.610 . S
N745 C746 1.351 . S
C746 C740 1.428 . S
C746 N745 1.351 . S
C746 C747 1.434 . S
C747 C738 1.429 . S
C747 N744 1.350 . S
C747 C746 1.434 . S
C748 C749 1.369 . S
C748 C750 1.419 . S
C748 H752 0.930 . S
C749 C748 1.369 . S
C749 C758 1.429 . S
C750 C748 1.419 . S
C750 C751 1.363 . S
C750 H753 0.929 . S
C751 C750 1.363 . S
C751 C757 1.428 . S
H752 C748 0.930 . S
H753 C750 0.929 . S
S754 N755 1.613 . S
S754 N756 1.610 1_554 S
N755 S754 1.613 . S
N755 C758 1.350 1_554 S
N756 S754 1.610 1_556 S
N756 C757 1.351 . S
C757 C751 1.428 . S
C757 N756 1.351 . S
C757 C758 1.434 . S
C758 C749 1.429 . S
C758 N755 1.350 1_556 S
C758 C757 1.434 . S
C759 C760 1.369 1_556 S
C759 C761 1.419 . S
C759 H763 0.930 . S
C760 C759 1.369 1_554 S
C760 C769 1.429 . S
C761 C759 1.419 . S
C761 C762 1.363 1_556 S
C761 H764 0.929 . S
C762 C761 1.363 1_554 S
C762 C768 1.428 . S
H763 C759 0.930 . S
H764 C761 0.929 . S
S765 N766 1.613 . S
S765 N767 1.610 . S
N766 S765 1.613 . S
N766 C769 1.350 . S
N767 S765 1.610 . S
N767 C768 1.351 . S
C768 C762 1.428 . S
C768 N767 1.351 . S
C768 C769 1.434 . S
C769 C760 1.429 . S
C769 N766 1.350 . S
C769 C768 1.434 . S
C770 C771 1.369 . S
C770 C772 1.419 . S
C770 H774 0.930 . S
C771 C770 1.369 . S
C771 C780 1.429 . S
C772 C770 1.419 . S
C772 C773 1.363 . S
C772 H775 0.929 . S
C773 C772 1.363 . S
C773 C779 1.428 . S
H774 C770 0.930 . S
H775 C772 0.929 . S
S776 N777 1.613 . S
S776 N778 1.610 . S
N777 S776 1.613 . S
N777 C780 1.350 . S
N778 S776 1.610 . S
N778 C779 1.351 . S
C779 C773 1.428 . S
C779 N778 1.351 . S
C779 C780 1.434 . S
C780 C771 1.429 . S
C780 N777 1.350 . S
C780 C779 1.434 . S
C781 C782 1.369 . S
C781 C783 1.419 . S
C781 H785 0.930 . S
C782 C781 1.369 . S
C782 C791 1.429 . S
C783 C781 1.419 . S
C783 C784 1.363 . S
C783 H786 0.929 . S
C784 C783 1.363 . S
C784 C790 1.428 . S
H785 C781 0.930 . S
H786 C783 0.929 . S
S787 N788 1.613 . S
S787 N789 1.610 . S
N788 S787 1.613 . S
N788 C791 1.350 . S
N789 S787 1.610 . S
N789 C790 1.351 . S
C790 C784 1.428 . S
C790 N789 1.351 . S
C790 C791 1.434 . S
C791 C782 1.429 . S
C791 N788 1.350 . S
C791 C790 1.434 . S
C792 C793 1.369 1_554 S
C792 C794 1.419 . S
C792 H796 0.930 . S
C793 C792 1.369 1_556 S
C793 C802 1.429 . S
C794 C792 1.419 . S
C794 C795 1.363 . S
C794 H797 0.929 . S
C795 C794 1.363 . S
C795 C801 1.428 1_554 S
H796 C792 0.930 . S
H797 C794 0.929 . S
S798 N799 1.613 . S
S798 N800 1.610 . S
N799 S798 1.613 . S
N799 C802 1.350 . S
N800 S798 1.610 . S
N800 C801 1.351 . S
C801 C795 1.428 1_556 S
C801 N800 1.351 . S
C801 C802 1.434 . S
C802 C793 1.429 . S
C802 N799 1.350 . S
C802 C801 1.434 . S
C803 C804 1.369 . S
C803 C805 1.419 . S
C803 H807 0.930 . S
C804 C803 1.369 . S
C804 C813 1.429 . S
C805 C803 1.419 . S
C805 C806 1.363 . S
C805 H808 0.929 . S
C806 C805 1.363 . S
C806 C812 1.428 . S
H807 C803 0.930 . S
H808 C805 0.929 . S
S809 N810 1.613 . S
S809 N811 1.610 . S
N810 S809 1.613 . S
N810 C813 1.350 . S
N811 S809 1.610 . S
N811 C812 1.351 . S
C812 C806 1.428 . S
C812 N811 1.351 . S
C812 C813 1.434 . S
C813 C804 1.429 . S
C813 N810 1.350 . S
C813 C812 1.434 . S
C814 C815 1.369 1_556 S
C814 C816 1.419 . S
C814 H818 0.930 . S
C815 C814 1.369 1_554 S
C815 C824 1.429 . S
C816 C814 1.419 . S
C816 C817 1.363 . S
C816 H819 0.929 . S
C817 C816 1.363 . S
C817 C823 1.428 1_556 S
H818 C814 0.930 . S
H819 C816 0.929 . S
S820 N821 1.613 . S
S820 N822 1.610 . S
N821 S820 1.613 . S
N821 C824 1.350 . S
N822 S820 1.610 . S
N822 C823 1.351 . S
C823 C817 1.428 1_554 S
C823 N822 1.351 . S
C823 C824 1.434 . S
C824 C815 1.429 . S
C824 N821 1.350 . S
C824 C823 1.434 . S
C825 C826 1.369 . S
C825 C827 1.419 . S
C825 H829 0.930 . S
C826 C825 1.369 . S
C826 C835 1.429 . S
C827 C825 1.419 . S
C827 C828 1.363 . S
C827 H830 0.929 . S
C828 C827 1.363 . S
C828 C834 1.428 . S
H829 C825 0.930 . S
H830 C827 0.929 . S
S831 N832 1.613 . S
S831 N833 1.610 . S
N832 S831 1.613 . S
N832 C835 1.350 . S
N833 S831 1.610 . S
N833 C834 1.351 . S
C834 C828 1.428 . S
C834 N833 1.351 . S
C834 C835 1.434 . S
C835 C826 1.429 . S
C835 N832 1.350 . S
C835 C834 1.434 . S
C836 C837 1.369 1_655 S
C836 C838 1.419 . S
C836 H840 0.930 . S
C837 C836 1.369 1_455 S
C837 C846 1.429 . S
C838 C836 1.419 . S
C838 C839 1.363 . S
C838 H841 0.929 . S
C839 C838 1.363 . S
C839 C845 1.428 1_655 S
H840 C836 0.930 . S
H841 C838 0.929 . S
S842 N843 1.613 . S
S842 N844 1.610 . S
N843 S842 1.613 . S
N843 C846 1.350 . S
N844 S842 1.610 . S
N844 C845 1.351 . S
C845 C839 1.428 1_455 S
C845 N844 1.351 . S
C845 C846 1.434 . S
C846 C837 1.429 . S
C846 N843 1.350 . S
C846 C845 1.434 . S
C847 C848 1.369 . S
C847 C849 1.419 . S
C847 H851 0.930 . S
C848 C847 1.369 . S
C848 C857 1.429 . S
C849 C847 1.419 . S
C849 C850 1.363 . S
C849 H852 0.929 . S
C850 C849 1.363 . S
C850 C856 1.428 . S
H851 C847 0.930 . S
H852 C849 0.929 . S
S853 N854 1.613 . S
S853 N855 1.610 . S
N854 S853 1.613 . S
N854 C857 1.350 . S
N855 S853 1.610 . S
N855 C856 1.351 . S
C856 C850 1.428 . S
C856 N855 1.351 . S
C856 C857 1.434 . S
C857 C848 1.429 . S
C857 N854 1.350 . S
C857 C856 1.434 . S
C858 C859 1.369 . S
C858 C860 1.419 . S
C858 H862 0.930 . S
C859 C858 1.369 . S
C859 C868 1.429 . S
C860 C858 1.419 . S
C860 C861 1.363 . S
C860 H863 0.929 . S
C861 C860 1.363 . S
C861 C867 1.428 . S
H862 C858 0.930 . S
H863 C860 0.929 . S
S864 N865 1.613 . S
S864 N866 1.610 . S
N865 S864 1.613 . S
N865 C868 1.350 . S
N866 S864 1.610 . S
N866 C867 1.351 . S
C867 C861 1.428 . S
C867 N866 1.351 . S
C867 C868 1.434 . S
C868 C859 1.429 . S
C868 N865 1.350 . S
C868 C867 1.434 . S
C869 C870 1.369 1_655 S
C869 C871 1.419 . S
C869 H873 0.930 . S
C870 C869 1.369 1_455 S
C870 C879 1.429 . S
C871 C869 1.419 . S
C871 C872 1.363 . S
C871 H874 0.929 . S
C872 C871 1.363 . S
C872 C878 1.428 1_655 S
H873 C869 0.930 . S
H874 C871 0.929 . S
S875 N876 1.613 . S
S875 N877 1.610 . S
N876 S875 1.613 . S
N876 C879 1.350 . S
N877 S875 1.610 . S
N877 C878 1.351 . S
C878 C872 1.428 1_455 S
C878 N877 1.351 . S
C878 C879 1.434 . S
C879 C870 1.429 . S
C879 N876 1.350 . S
C879 C878 1.434 . S
C880 C881 1.369 1_545 S
C880 C882 1.419 . S
C880 H884 0.930 . S
C881 C880 1.369 1_565 S
C881 C890 1.429 . S
C882 C880 1.419 . S
C882 C883 1.363 . S
C882 H885 0.929 . S
C883 C882 1.363 . S
C883 C889 1.428 1_545 S
H884 C880 0.930 . S
H885 C882 0.929 . S
S886 N887 1.613 . S
S886 N888 1.610 . S
N887 S886 1.613 . S
N887 C890 1.350 . S
N888 S886 1.610 . S
N888 C889 1.351 . S
C889 C883 1.428 1_565 S
C889 N888 1.351 . S
C889 C890 1.434 . S
C890 C881 1.429 . S
C890 N887 1.350 . S
C890 C889 1.434 . S
C891 C892 1.369 . S
C891 C893 1.419 . S
C891 H895 0.930 . S
C892 C891 1.369 . S
C892 C901 1.429 . S
C893 C891 1.419 . S
C893 C894 1.363 . S
C893 H896 0.929 . S
C894 C893 1.363 . S
C894 C900 1.428 . S
H895 C891 0.930 . S
H896 C893 0.929 . S
S897 N898 1.613 . S
S897 N899 1.610 . S
N898 S897 1.613 . S
N898 C901 1.350 . S
N899 S897 1.610 . S
N899 C900 1.351 . S
C900 C894 1.428 . S
C900 N899 1.351 . S
C900 C901 1.434 . S
C901 C892 1.429 . S
C901 N898 1.350 . S
C901 C900 1.434 . S
C902 C903 1.369 . S
C902 C904 1.419 . S
C902 H906 0.930 . S
C903 C902 1.369 . S
C903 C912 1.429 . S
C904 C902 1.419 . S
C904 C905 1.363 . S
C904 H907 0.929 . S
C905 C904 1.363 . S
C905 C911 1.428 . S
H906 C902 0.930 . S
H907 C904 0.929 . S
S908 N909 1.613 . S
S908 N910 1.610 . S
N909 S908 1.613 . S
N909 C912 1.350 . S
N910 S908 1.610 . S
N910 C911 1.351 . S
C911 C905 1.428 . S
C911 N910 1.351 . S
C911 C912 1.434 . S
C912 C903 1.429 . S
C912 N909 1.350 . S
C912 C911 1.434 . S
C913 C914 1.369 1_565 S
C913 C915 1.419 . S
C913 H917 0.930 . S
C914 C913 1.369 1_545 S
C914 C923 1.429 . S
C915 C913 1.419 . S
C915 C916 1.363 . S
C915 H918 0.929 . S
C916 C915 1.363 . S
C916 C922 1.432 . S
H917 C913 0.930 . S
H918 C915 0.929 . S
S919 N920 1.613 . S
S919 N921 1.610 . S
N920 S919 1.613 . S
N920 C923 1.350 . S
N921 S919 1.610 . S
N921 C922 1.350 1_545 S
C922 C916 1.432 . S
C922 N921 1.350 1_565 S
C922 C923 1.431 1_565 S
C923 C914 1.429 . S
C923 N920 1.350 . S
C923 C922 1.431 1_545 S
C924 C925 1.369 . S
C924 C926 1.419 . S
C924 H928 0.930 . S
C925 C924 1.369 . S
C925 C934 1.429 1_554 S
C926 C924 1.419 . S
C926 C927 1.363 1_554 S
C926 H929 0.929 . S
C927 C926 1.363 1_556 S
C927 C933 1.428 . S
H928 C924 0.930 . S
H929 C926 0.929 . S
S930 N931 1.613 . S
S930 N932 1.610 . S
N931 S930 1.613 . S
N931 C934 1.350 . S
N932 S930 1.610 . S
N932 C933 1.351 . S
C933 C927 1.428 . S
C933 N932 1.351 . S
C933 C934 1.434 . S
C934 C925 1.429 1_556 S
C934 N931 1.350 . S
C934 C933 1.434 . S
C935 C936 1.369 . S
C935 C937 1.419 . S
C935 H939 0.930 . S
C936 C935 1.369 . S
C936 C945 1.429 . S
C937 C935 1.419 . S
C937 C938 1.363 . S
C937 H940 0.929 . S
C938 C937 1.363 . S
C938 C944 1.428 . S
H939 C935 0.930 . S
H940 C937 0.929 . S
S941 N942 1.613 . S
S941 N943 1.610 . S
N942 S941 1.613 . S
N942 C945 1.350 . S
N943 S941 1.610 . S
N943 C944 1.351 . S
C944 C938 1.428 . S
C944 N943 1.351 . S
C944 C945 1.434 . S
C945 C936 1.429 . S
C945 N942 1.350 . S
C945 C944 1.434 . S
C946 C947 1.369 . S
C946 C948 1.419 . S
C946 H950 0.930 . S
C947 C946 1.369 . S
C947 C956 1.429 1_554 S
C948 C946 1.419 . S
C948 C949 1.363 1_554 S
C948 H951 0.929 . S
C949 C948 1.363 1_556 S
C949 C955 1.428 . S
H950 C946 0.930 . S
H951 C948 0.929 . S
S952 N953 1.613 . S
S952 N954 1.610 . S
N953 S952 1.613 . S
N953 C956 1.350 . S
N954 S952 1.610 . S
N954 C955 1.351 . S
C955 C949 1.428 . S
C955 N954 1.351 . S
C955 C956 1.434 . S
C956 C947 1.429 1_556 S
C956 N953 1.350 . S
C956 C955 1.434 . S
C957 C958 1.369 . S
C957 C959 1.419 . S
C957 H961 0.930 . S
C958 C957 1.369 . S
C958 C967 1.429 . S
C959 C957 1.419 . S
C959 C960 1.363 . S
C959 H962 0.929 . S
C960 C959 1.363 . S
C960 C966 1.428 . S
H961 C957 0.930 . S
H962 C959 0.929 . S
S963 N964 1.613 . S
S963 N965 1.610 . S
N964 S963 1.613 . S
N964 C967 1.350 . S
N965 S963 1.610 . S
N965 C966 1.351 . S
C966 C960 1.428 . S
C966 N965 1.351 . S
C966 C967 1.434 . S
C967 C958 1.429 . S
C967 N964 1.350 . S
C967 C966 1.434 . S
C968 C969 1.369 1_655 S
C968 C970 1.419 . S
C968 H972 0.930 . S
C969 C968 1.369 1_455 S
C969 C978 1.429 . S
C970 C968 1.419 . S
C970 C971 1.363 . S
C970 H973 0.929 . S
C971 C970 1.363 . S
C971 C977 1.428 1_655 S
H972 C968 0.930 . S
H973 C970 0.929 . S
S974 N975 1.613 . S
S974 N976 1.610 . S
N975 S974 1.613 . S
N975 C978 1.350 . S
N976 S974 1.610 . S
N976 C977 1.351 . S
C977 C971 1.428 1_455 S
C977 N976 1.351 . S
C977 C978 1.434 . S
C978 C969 1.429 . S
C978 N975 1.350 . S
C978 C977 1.434 . S
C979 C980 1.369 . S
C979 C981 1.419 . S
C979 H983 0.930 . S
C980 C979 1.369 . S
C980 C989 1.429 . S
C981 C979 1.419 . S
C981 C982 1.363 . S
C981 H984 0.929 . S
C982 C981 1.363 . S
C982 C988 1.428 . S
H983 C979 0.930 . S
H984 C981 0.929 . S
S985 N986 1.613 . S
S985 N987 1.610 . S
N986 S985 1.613 . S
N986 C989 1.350 . S
N987 S985 1.610 . S
N987 C988 1.351 . S
C988 C982 1.428 . S
C988 N987 1.351 . S
C988 C989 1.434 . S
C989 C980 1.429 . S
C989 N986 1.350 . S
C989 C988 1.434 . S
C990 C991 1.369 . S
C990 C992 1.419 . S
C990 H994 0.930 . S
C991 C990 1.369 . S
C991 C1000 1.429 . S
C992 C990 1.419 . S
C992 C993 1.363 . S
C992 H995 0.929 . S
C993 C992 1.363 . S
C993 C999 1.428 . S
H994 C990 0.930 . S
H995 C992 0.929 . S
S996 N997 1.613 . S
S996 N998 1.610 . S
N997 S996 1.613 . S
N997 C1000 1.350 . S
N998 S996 1.610 . S
N998 C999 1.351 . S
C999 C993 1.428 . S
C999 N998 1.351 . S
C999 C1000 1.434 . S
C1000 C991 1.429 . S
C1000 N997 1.350 . S
C1000 C999 1.434 . S
C1001 C1002 1.369 . S
C1001 C1003 1.419 . S
C1001 H1005 0.930 . S
C1002 C1001 1.369 . S
C1002 C1011 1.429 1_455 S
C1003 C1001 1.419 . S
C1003 C1004 1.363 1_455 S
C1003 H1006 0.929 . S
C1004 C1003 1.363 1_655 S
C1004 C1010 1.428 . S
H1005 C1001 0.930 . S
H1006 C1003 0.929 . S
S1007 N1008 1.613 . S
S1007 N1009 1.610 . S
N1008 S1007 1.613 . S
N1008 C1011 1.350 . S
N1009 S1007 1.610 . S
N1009 C1010 1.351 . S
C1010 C1004 1.428 . S
C1010 N1009 1.351 . S
C1010 C1011 1.434 . S
C1011 C1002 1.429 1_655 S
C1011 N1008 1.350 . S
C1011 C1010 1.434 . S
C1012 C1013 1.369 1_565 S
C1012 C1014 1.419 . S
C1012 H1016 0.930 . S
C1013 C1012 1.369 1_545 S
C1013 C1022 1.429 . S
C1014 C1012 1.419 . S
C1014 C1015 1.363 . S
C1014 H1017 0.929 . S
C1015 C1014 1.363 . S
C1015 C1021 1.428 1_565 S
H1016 C1012 0.930 . S
H1017 C1014 0.929 . S
S1018 N1019 1.613 . S
S1018 N1020 1.610 . S
N1019 S1018 1.613 . S
N1019 C1022 1.350 . S
N1020 S1018 1.610 . S
N1020 C1021 1.351 . S
C1021 C1015 1.428 1_545 S
C1021 N1020 1.351 . S
C1021 C1022 1.434 . S
C1022 C1013 1.429 . S
C1022 N1019 1.350 . S
C1022 C1021 1.434 . S
C1023 C1024 1.369 . S
C1023 C1025 1.419 . S
C1023 H1027 0.930 . S
C1024 C1023 1.369 . S
C1024 C1033 1.429 . S
C1025 C1023 1.419 . S
C1025 C1026 1.363 . S
C1025 H1028 0.929 . S
C1026 C1025 1.363 . S
C1026 C1032 1.428 . S
H1027 C1023 0.930 . S
H1028 C1025 0.929 . S
S1029 N1030 1.613 . S
S1029 N1031 1.610 . S
N1030 S1029 1.613 . S
N1030 C1033 1.350 . S
N1031 S1029 1.610 . S
N1031 C1032 1.351 . S
C1032 C1026 1.428 . S
C1032 N1031 1.351 . S
C1032 C1033 1.434 . S
C1033 C1024 1.429 . S
C1033 N1030 1.350 . S
C1033 C1032 1.434 . S
C1034 C1035 1.369 . S
C1034 C1036 1.419 . S
C1034 H1038 0.930 . S
C1035 C1034 1.369 . S
C1035 C1044 1.429 . S
C1036 C1034 1.419 . S
C1036 C1037 1.363 . S
C1036 H1039 0.929 . S
C1037 C1036 1.363 . S
C1037 C1043 1.428 . S
H1038 C1034 0.930 . S
H1039 C1036 0.929 . S
S1040 N1041 1.613 . S
S1040 N1042 1.610 . S
N1041 S1040 1.613 . S
N1041 C1044 1.350 . S
N1042 S1040 1.610 . S
N1042 C1043 1.351 . S
C1043 C1037 1.428 . S
C1043 N1042 1.351 . S
C1043 C1044 1.434 . S
C1044 C1035 1.429 . S
C1044 N1041 1.350 . S
C1044 C1043 1.434 . S
C1045 C1046 1.369 1_565 S
C1045 C1047 1.419 . S
C1045 H1049 0.930 . S
C1046 C1045 1.369 1_545 S
C1046 C1055 1.429 . S
C1047 C1045 1.419 . S
C1047 C1048 1.363 . S
C1047 H1050 0.929 . S
C1048 C1047 1.363 . S
C1048 C1054 1.428 1_565 S
H1049 C1045 0.930 . S
H1050 C1047 0.929 . S
S1051 N1052 1.613 . S
S1051 N1053 1.610 . S
N1052 S1051 1.613 . S
N1052 C1055 1.350 . S
N1053 S1051 1.610 . S
N1053 C1054 1.351 . S
C1054 C1048 1.428 1_545 S
C1054 N1053 1.351 . S
C1054 C1055 1.434 . S
C1055 C1046 1.429 . S
C1055 N1052 1.350 . S
C1055 C1054 1.434 . S
C1056 C1057 1.369 . S
C1056 C1058 1.419 . S
C1056 H1060 0.930 . S
C1057 C1056 1.369 . S
C1057 C1066 1.429 . S
C1058 C1056 1.419 . S
C1058 C1059 1.363 . S
C1058 H1061 0.929 . S
C1059 C1058 1.363 . S
C1059 C1065 1.428 . S
H1060 C1056 0.930 . S
H1061 C1058 0.929 . S
S1062 N1063 1.613 . S
S1062 N1064 1.610 . S
N1063 S1062 1.613 . S
N1063 C1066 1.350 . S
N1064 S1062 1.610 . S
N1064 C1065 1.351 . S
C1065 C1059 1.428 . S
C1065 N1064 1.351 . S
C1065 C1066 1.434 . S
C1066 C1057 1.429 . S
C1066 N1063 1.350 . S
C1066 C1065 1.434 . S
C1067 C1068 1.369 . S
C1067 C1069 1.419 . S
C1067 H1071 0.930 . S
C1068 C1067 1.369 . S
C1068 C1077 1.429 . S
C1069 C1067 1.419 . S
C1069 C1070 1.363 . S
C1069 H1072 0.929 . S
C1070 C1069 1.363 . S
C1070 C1076 1.428 . S
H1071 C1067 0.930 . S
H1072 C1069 0.929 . S
S1073 N1074 1.613 . S
S1073 N1075 1.610 . S
N1074 S1073 1.613 . S
N1074 C1077 1.350 . S
N1075 S1073 1.610 . S
N1075 C1076 1.351 . S
C1076 C1070 1.428 . S
C1076 N1075 1.351 . S
C1076 C1077 1.434 . S
C1077 C1068 1.429 . S
C1077 N1074 1.350 . S
C1077 C1076 1.434 . S
C1078 C1079 1.369 . S
C1078 C1080 1.419 . S
C1078 H1082 0.930 . S
C1079 C1078 1.369 . S
C1079 C1088 1.429 . S
C1080 C1078 1.419 . S
C1080 C1081 1.363 . S
C1080 H1083 0.929 . S
C1081 C1080 1.363 . S
C1081 C1087 1.428 . S
H1082 C1078 0.930 . S
H1083 C1080 0.929 . S
S1084 N1085 1.613 . S
S1084 N1086 1.610 . S
N1085 S1084 1.613 . S
N1085 C1088 1.350 . S
N1086 S1084 1.610 . S
N1086 C1087 1.351 . S
C1087 C1081 1.428 . S
C1087 N1086 1.351 . S
C1087 C1088 1.434 . S
C1088 C1079 1.429 . S
C1088 N1085 1.350 . S
C1088 C1087 1.434 . S
C1089 C1090 1.369 . S
C1089 C1091 1.419 . S
C1089 H1093 0.930 . S
C1090 C1089 1.369 . S
C1090 C1099 1.429 . S
C1091 C1089 1.419 . S
C1091 C1092 1.363 . S
C1091 H1094 0.929 . S
C1092 C1091 1.363 . S
C1092 C1098 1.428 . S
H1093 C1089 0.930 . S
H1094 C1091 0.929 . S
S1095 N1096 1.613 1_455 S
S1095 N1097 1.610 . S
N1096 S1095 1.613 1_655 S
N1096 C1099 1.350 . S
N1097 S1095 1.610 . S
N1097 C1098 1.351 1_455 S
C1098 C1092 1.428 . S
C1098 N1097 1.351 1_655 S
C1098 C1099 1.434 . S
C1099 C1090 1.429 . S
C1099 N1096 1.350 . S
C1099 C1098 1.434 . S
C1100 C1101 1.369 . S
C1100 C1102 1.419 . S
C1100 H1104 0.930 . S
C1101 C1100 1.369 . S
C1101 C1110 1.429 . S
C1102 C1100 1.419 . S
C1102 C1103 1.363 . S
C1102 H1105 0.929 . S
C1103 C1102 1.363 . S
C1103 C1109 1.428 . S
H1104 C1100 0.930 . S
H1105 C1102 0.929 . S
S1106 N1107 1.613 . S
S1106 N1108 1.610 . S
N1107 S1106 1.613 . S
N1107 C1110 1.350 1_565 S
N1108 S1106 1.610 . S
N1108 C1109 1.351 1_565 S
C1109 C1103 1.428 . S
C1109 N1108 1.351 1_545 S
C1109 C1110 1.434 . S
C1110 C1101 1.429 . S
C1110 N1107 1.350 1_545 S
C1110 C1109 1.434 . S
C1111 C1112 1.369 . S
C1111 C1113 1.419 . S
C1111 H1115 0.930 1_565 S
C1112 C1111 1.369 . S
C1112 C1121 1.429 . S
C1113 C1111 1.419 . S
C1113 C1114 1.363 . S
C1113 H1116 0.929 . S
C1114 C1113 1.363 . S
C1114 C1120 1.428 . S
H1115 C1111 0.930 1_545 S
H1116 C1113 0.929 . S
S1117 N1118 1.613 . S
S1117 N1119 1.610 . S
N1118 S1117 1.613 . S
N1118 C1121 1.350 . S
N1119 S1117 1.610 . S
N1119 C1120 1.351 . S
C1120 C1114 1.428 . S
C1120 N1119 1.351 . S
C1120 C1121 1.434 . S
C1121 C1112 1.429 . S
C1121 N1118 1.350 . S
C1121 C1120 1.434 . S
C1122 C1123 1.369 . S
C1122 C1124 1.419 . S
C1122 H1126 0.930 . S
C1123 C1122 1.369 . S
C1123 C1132 1.429 . S
C1124 C1122 1.419 . S
C1124 C1125 1.363 . S
C1124 H1127 0.929 . S
C1125 C1124 1.363 . S
C1125 C1131 1.428 . S
H1126 C1122 0.930 . S
H1127 C1124 0.929 . S
S1128 N1129 1.613 . S
S1128 N1130 1.610 . S
N1129 S1128 1.613 . S
N1129 C1132 1.350 . S
N1130 S1128 1.610 . S
N1130 C1131 1.351 . S
C1131 C1125 1.428 . S
C1131 N1130 1.351 . S
C1131 C1132 1.434 . S
C1132 C1123 1.429 . S
C1132 N1129 1.350 . S
C1132 C1131 1.434 . S
C1133 C1134 1.369 . S
C1133 C1135 1.419 . S
C1133 H1137 0.930 . S
C1134 C1133 1.369 . S
C1134 C1143 1.429 . S
C1135 C1133 1.419 . S
C1135 C1136 1.363 . S
C1135 H1138 0.929 . S
C1136 C1135 1.363 . S
C1136 C1142 1.428 . S
H1137 C1133 0.930 . S
H1138 C1135 0.929 . S
S1139 N1140 1.613 . S
S1139 N1141 1.610 . S
N1140 S1139 1.613 . S
N1140 C1143 1.350 . S
N1141 S1139 1.610 . S
N1141 C1142 1.351 . S
C1142 C1136 1.428 . S
C1142 N1141 1.351 . S
C1142 C1143 1.434 . S
C1143 C1134 1.429 . S
C1143 N1140 1.350 . S
C1143 C1142 1.434 . S
C1144 C1145 1.369 . S
C1144 C1146 1.419 . S
C1144 H1148 0.930 . S
C1145 C1144 1.369 . S
C1145 C1154 1.429 . S
C1146 C1144 1.419 . S
C1146 C1147 1.363 . S
C1146 H1149 0.929 . S
C1147 C1146 1.363 . S
C1147 C1153 1.428 . S
H1148 C1144 0.930 . S
H1149 C1146 0.929 . S
S1150 N1151 1.613 . S
S1150 N1152 1.610 . S
N1151 S1150 1.613 . S
N1151 C1154 1.350 1_556 S
N1152 S1150 1.610 . S
N1152 C1153 1.351 1_556 S
C1153 C1147 1.428 . S
C1153 N1152 1.351 1_554 S
C1153 C1154 1.434 . S
C1154 C1145 1.429 . S
C1154 N1151 1.350 1_554 S
C1154 C1153 1.434 . S
C1155 C1156 1.369 . S
C1155 C1157 1.419 . S
C1155 H1159 0.930 . S
C1156 C1155 1.369 . S
C1156 C1165 1.429 . S
C1157 C1155 1.419 . S
C1157 C1158 1.363 . S
C1157 H1160 0.929 . S
C1158 C1157 1.363 . S
C1158 C1164 1.428 . S
H1159 C1155 0.930 . S
H1160 C1157 0.929 . S
S1161 N1162 1.613 . S
S1161 N1163 1.610 . S
N1162 S1161 1.613 . S
N1162 C1165 1.350 . S
N1163 S1161 1.610 . S
N1163 C1164 1.351 . S
C1164 C1158 1.428 . S
C1164 N1163 1.351 . S
C1164 C1165 1.434 . S
C1165 C1156 1.429 . S
C1165 N1162 1.350 . S
C1165 C1164 1.434 . S
C1166 C1167 1.369 . S
C1166 C1168 1.419 . S
C1166 H1170 0.930 . S
C1167 C1166 1.369 . S
C1167 C1176 1.429 . S
C1168 C1166 1.419 . S
C1168 C1169 1.363 . S
C1168 H1171 0.929 . S
C1169 C1168 1.363 . S
C1169 C1175 1.428 . S
H1170 C1166 0.930 . S
H1171 C1168 0.929 . S
S1172 N1173 1.613 . S
S1172 N1174 1.610 . S
N1173 S1172 1.613 . S
N1173 C1176 1.350 . S
N1174 S1172 1.610 . S
N1174 C1175 1.351 . S
C1175 C1169 1.428 . S
C1175 N1174 1.351 . S
C1175 C1176 1.434 . S
C1176 C1167 1.429 . S
C1176 N1173 1.350 . S
C1176 C1175 1.434 . S
C1177 C1178 1.369 . S
C1177 C1179 1.419 . S
C1177 H1181 0.930 . S
C1178 C1177 1.369 . S
C1178 C1187 1.429 . S
C1179 C1177 1.419 . S
C1179 C1180 1.363 . S
C1179 H1182 0.929 . S
C1180 C1179 1.363 . S
C1180 C1186 1.428 . S
H1181 C1177 0.930 . S
H1182 C1179 0.929 . S
S1183 N1184 1.613 . S
S1183 N1185 1.610 . S
N1184 S1183 1.613 . S
N1184 C1187 1.350 . S
N1185 S1183 1.610 . S
N1185 C1186 1.351 . S
C1186 C1180 1.428 . S
C1186 N1185 1.351 . S
C1186 C1187 1.434 . S
C1187 C1178 1.429 . S
C1187 N1184 1.350 . S
C1187 C1186 1.434 . S
C1188 C1189 1.369 . S
C1188 C1190 1.419 . S
C1188 H1192 0.930 1_655 S
C1189 C1188 1.369 . S
C1189 C1198 1.429 . S
C1190 C1188 1.419 . S
C1190 C1191 1.363 . S
C1190 H1193 0.929 1_655 S
C1191 C1190 1.363 . S
C1191 C1197 1.428 . S
H1192 C1188 0.930 1_455 S
H1193 C1190 0.929 1_455 S
S1194 N1195 1.613 . S
S1194 N1196 1.610 . S
N1195 S1194 1.613 . S
N1195 C1198 1.350 . S
N1196 S1194 1.610 . S
N1196 C1197 1.351 . S
C1197 C1191 1.428 . S
C1197 N1196 1.351 . S
C1197 C1198 1.434 . S
C1198 C1189 1.429 . S
C1198 N1195 1.350 . S
C1198 C1197 1.434 . S
C1199 C1200 1.369 . S
C1199 C1201 1.419 . S
C1199 H1203 0.930 . S
C1200 C1199 1.369 . S
C1200 C1209 1.429 . S
C1201 C1199 1.419 . S
C1201 C1202 1.363 . S
C1201 H1204 0.929 . S
C1202 C1201 1.363 . S
C1202 C1208 1.428 . S
H1203 C1199 0.930 . S
H1204 C1201 0.929 . S
S1205 N1206 1.613 . S
S1205 N1207 1.610 . S
N1206 S1205 1.613 . S
N1206 C1209 1.350 . S
N1207 S1205 1.610 . S
N1207 C1208 1.351 . S
C1208 C1202 1.428 . S
C1208 N1207 1.351 . S
C1208 C1209 1.434 . S
C1209 C1200 1.429 . S
C1209 N1206 1.350 . S
C1209 C1208 1.434 . S
C1210 C1211 1.369 . S
C1210 C1212 1.419 . S
C1210 H1214 0.930 . S
C1211 C1210 1.369 . S
C1211 C1220 1.429 . S
C1212 C1210 1.419 . S
C1212 C1213 1.363 . S
C1212 H1215 0.929 . S
C1213 C1212 1.363 . S
C1213 C1219 1.428 . S
H1214 C1210 0.930 . S
H1215 C1212 0.929 . S
S1216 N1217 1.613 . S
S1216 N1218 1.610 . S
N1217 S1216 1.613 . S
N1217 C1220 1.350 . S
N1218 S1216 1.610 . S
N1218 C1219 1.351 . S
C1219 C1213 1.428 . S
C1219 N1218 1.351 . S
C1219 C1220 1.434 . S
C1220 C1211 1.429 . S
C1220 N1217 1.350 . S
C1220 C1219 1.434 . S
C1221 C1222 1.369 . S
C1221 C1223 1.419 . S
C1221 H1225 0.930 . S
C1222 C1221 1.369 . S
C1222 C1231 1.429 . S
C1223 C1221 1.419 . S
C1223 C1224 1.363 . S
C1223 H1226 0.929 . S
C1224 C1223 1.363 . S
C1224 C1230 1.428 . S
H1225 C1221 0.930 . S
H1226 C1223 0.929 . S
S1227 N1228 1.613 . S
S1227 N1229 1.610 . S
N1228 S1227 1.613 . S
N1228 C1231 1.350 . S
N1229 S1227 1.610 . S
N1229 C1230 1.351 . S
C1230 C1224 1.428 . S
C1230 N1229 1.351 . S
C1230 C1231 1.434 . S
C1231 C1222 1.429 . S
C1231 N1228 1.350 . S
C1231 C1230 1.434 . S
C1232 C1233 1.369 . S
C1232 C1234 1.419 . S
C1232 H1236 0.930 . S
C1233 C1232 1.369 . S
C1233 C1242 1.429 . S
C1234 C1232 1.419 . S
C1234 C1235 1.363 . S
C1234 H1237 0.929 . S
C1235 C1234 1.363 . S
C1235 C1241 1.428 . S
H1236 C1232 0.930 . S
H1237 C1234 0.929 . S
S1238 N1239 1.613 . S
S1238 N1240 1.610 . S
N1239 S1238 1.613 . S
N1239 C1242 1.350 . S
N1240 S1238 1.610 . S
N1240 C1241 1.351 . S
C1241 C1235 1.428 . S
C1241 N1240 1.351 . S
C1241 C1242 1.434 . S
C1242 C1233 1.429 . S
C1242 N1239 1.350 . S
C1242 C1241 1.434 . S
C1243 C1244 1.369 . S
C1243 C1245 1.419 . S
C1243 H1247 0.930 . S
C1244 C1243 1.369 . S
C1244 C1253 1.429 . S
C1245 C1243 1.419 . S
C1245 C1246 1.363 . S
C1245 H1248 0.929 . S
C1246 C1245 1.363 . S
C1246 C1252 1.428 . S
H1247 C1243 0.930 . S
H1248 C1245 0.929 . S
S1249 N1250 1.613 . S
S1249 N1251 1.610 . S
N1250 S1249 1.613 . S
N1250 C1253 1.350 . S
N1251 S1249 1.610 . S
N1251 C1252 1.351 . S
C1252 C1246 1.428 . S
C1252 N1251 1.351 . S
C1252 C1253 1.434 . S
C1253 C1244 1.429 . S
C1253 N1250 1.350 . S
C1253 C1252 1.434 . S
C1254 C1255 1.369 . S
C1254 C1256 1.419 . S
C1254 H1258 0.930 . S
C1255 C1254 1.369 . S
C1255 C1264 1.429 . S
C1256 C1254 1.419 . S
C1256 C1257 1.363 . S
C1256 H1259 0.929 . S
C1257 C1256 1.363 . S
C1257 C1263 1.428 . S
H1258 C1254 0.930 . S
H1259 C1256 0.929 . S
S1260 N1261 1.613 . S
S1260 N1262 1.610 . S
N1261 S1260 1.613 . S
N1261 C1264 1.350 . S
N1262 S1260 1.610 . S
N1262 C1263 1.351 . S
C1263 C1257 1.428 . S
C1263 N1262 1.351 . S
C1263 C1264 1.434 . S
C1264 C1255 1.429 . S
C1264 N1261 1.350 . S
C1264 C1263 1.434 . S
C1265 C1266 1.369 . S
C1265 C1267 1.419 . S
C1265 H1269 0.930 . S
C1266 C1265 1.369 . S
C1266 C1275 1.429 . S
C1267 C1265 1.419 . S
C1267 C1268 1.363 . S
C1267 H1270 0.929 . S
C1268 C1267 1.363 . S
C1268 C1274 1.428 . S
H1269 C1265 0.930 . S
H1270 C1267 0.929 . S
S1271 N1272 1.613 . S
S1271 N1273 1.610 . S
N1272 S1271 1.613 . S
N1272 C1275 1.350 . S
N1273 S1271 1.610 . S
N1273 C1274 1.351 . S
C1274 C1268 1.428 . S
C1274 N1273 1.351 . S
C1274 C1275 1.434 . S
C1275 C1266 1.429 . S
C1275 N1272 1.350 . S
C1275 C1274 1.434 . S
C1276 C1277 1.369 . S
C1276 C1278 1.419 . S
C1276 H1280 0.930 . S
C1277 C1276 1.369 . S
C1277 C1286 1.429 . S
C1278 C1276 1.419 . S
C1278 C1279 1.363 . S
C1278 H1281 0.929 . S
C1279 C1278 1.363 . S
C1279 C1285 1.428 . S
H1280 C1276 0.930 . S
H1281 C1278 0.929 . S
S1282 N1283 1.613 . S
S1282 N1284 1.610 . S
N1283 S1282 1.613 . S
N1283 C1286 1.350 . S
N1284 S1282 1.610 . S
N1284 C1285 1.351 . S
C1285 C1279 1.428 . S
C1285 N1284 1.351 . S
C1285 C1286 1.434 . S
C1286 C1277 1.429 . S
C1286 N1283 1.350 . S
C1286 C1285 1.434 . S
C1287 C1288 1.369 . S
C1287 C1289 1.419 . S
C1287 H1291 0.930 1_554 S
C1288 C1287 1.369 . S
C1288 C1297 1.429 . S
C1289 C1287 1.419 . S
C1289 C1290 1.363 . S
C1289 H1292 0.929 1_554 S
C1290 C1289 1.363 . S
C1290 C1296 1.428 . S
H1291 C1287 0.930 1_556 S
H1292 C1289 0.929 1_556 S
S1293 N1294 1.613 . S
S1293 N1295 1.610 . S
N1294 S1293 1.613 . S
N1294 C1297 1.350 . S
N1295 S1293 1.610 . S
N1295 C1296 1.351 . S
C1296 C1290 1.428 . S
C1296 N1295 1.351 . S
C1296 C1297 1.434 . S
C1297 C1288 1.429 . S
C1297 N1294 1.350 . S
C1297 C1296 1.434 . S
C1298 C1299 1.369 . S
C1298 C1300 1.419 . S
C1298 H1302 0.930 . S
C1299 C1298 1.369 . S
C1299 C1308 1.429 . S
C1300 C1298 1.419 . S
C1300 C1301 1.363 . S
C1300 H1303 0.929 . S
C1301 C1300 1.363 . S
C1301 C1307 1.428 . S
H1302 C1298 0.930 . S
H1303 C1300 0.929 . S
S1304 N1305 1.613 . S
S1304 N1306 1.610 . S
N1305 S1304 1.613 . S
N1305 C1308 1.350 . S
N1306 S1304 1.610 . S
N1306 C1307 1.351 . S
C1307 C1301 1.428 . S
C1307 N1306 1.351 . S
C1307 C1308 1.434 . S
C1308 C1299 1.429 . S
C1308 N1305 1.350 . S
C1308 C1307 1.434 . S
C1309 C1310 1.369 . S
C1309 C1311 1.419 . S
C1309 H1313 0.930 . S
C1310 C1309 1.369 . S
C1310 C1319 1.429 . S
C1311 C1309 1.419 . S
C1311 C1312 1.363 . S
C1311 H1314 0.929 . S
C1312 C1311 1.363 . S
C1312 C1318 1.428 . S
H1313 C1309 0.930 . S
H1314 C1311 0.929 . S
S1315 N1316 1.613 . S
S1315 N1317 1.610 . S
N1316 S1315 1.613 . S
N1316 C1319 1.350 . S
N1317 S1315 1.610 . S
N1317 C1318 1.351 . S
C1318 C1312 1.428 . S
C1318 N1317 1.351 . S
C1318 C1319 1.434 . S
C1319 C1310 1.429 . S
C1319 N1316 1.350 . S
C1319 C1318 1.434 . S
C529 C18 1.079 . S
C531 C103 1.106 . S
C540 C30 1.073 . S
C542 C131 1.107 . S
C551 C153 1.105 . S
C553 C62 1.079 . S
C562 C74 1.069 . S
C564 C161 1.106 . S
C573 C98 1.075 . S
C575 C183 1.101 . S
C584 C118 1.072 . S
C586 C249 1.107 . S
C595 C140 1.081 . S
C597 C205 1.103 . S
C606 C172 1.068 . S
C608 C235 1.105 . S
C617 C194 1.068 . S
C619 C7 1.103 . S
C628 C51 1.102 . S
C630 C216 1.070 . S
C639 C87 1.107 . S
C641 C230 1.071 . S
C650 C260 1.080 . S
C652 C43 1.102 . S
C661 C373 1.088 . S
C663 C272 1.060 . S
C672 C294 1.062 . S
C674 C381 1.089 . S
C683 C318 1.053 . S
C685 C417 1.094 . S
C694 C425 1.092 . S
C696 C338 1.064 . S
C705 C360 1.054 . S
C707 C461 1.095 . S
C716 C392 1.051 . S
C718 C513 1.091 . S
C727 C477 1.096 . S
C729 C404 1.055 . S
C738 C505 1.088 . S
C740 C436 1.056 . S
C749 C448 1.060 . S
C751 C285 1.095 . S
C760 C323 1.092 . S
C762 C472 1.053 . S
C771 C492 1.055 . S
C773 C351 1.089 . S
C782 C307 1.095 . S
C784 C524 1.055 . S
C793 C206 1.163 . S
C795 C10 1.095 . S
C804 C40 1.103 . S
C806 C238 1.165 . S
C815 C184 1.165 . S
C817 C54 1.100 . S
C826 C84 1.104 . S
C828 C250 1.166 . S
C837 C96 1.095 . S
C839 C76 1.165 . S
C848 C128 1.095 . S
C850 C52 1.164 . S
C859 C32 1.164 . S
C861 C150 1.095 . S
C870 C8 1.164 . S
C872 C164 1.098 . S
C881 C120 1.163 . S
C883 C186 1.096 . S
C892 C208 1.098 . S
C894 C162 1.164 . S
C903 C142 1.165 . S
C905 C228 1.100 . S
C914 C106 1.162 . S
C916 C252 1.092 . S
C925 C470 1.167 . S
C927 C274 1.113 . S
C936 C296 1.116 . S
C938 C502 1.166 . S
C947 C326 1.114 . S
C949 C458 1.166 . S
C958 C340 1.103 . S
C960 C516 1.163 . S
C969 C348 1.163 . S
C971 C362 1.104 . S
C980 C316 1.164 . S
C982 C382 1.108 . S
C991 C406 1.114 . S
C993 C304 1.166 . S
C1002 C426 1.112 . S
C1004 C282 1.165 . S
C1013 C384 1.163 . S
C1015 C450 1.104 . S
C1024 C480 1.109 . S
C1026 C428 1.164 . S
C1035 C414 1.163 . S
C1037 C494 1.105 . S
C1046 C514 1.112 . S
C1048 C370 1.166 . S
C1057 C15 1.195 . S
C1059 C433 1.255 . S
C1068 C29 1.207 . S
C1070 C403 1.258 . S
C1079 C389 1.258 . S
C1081 C59 1.207 . S
C1090 C359 1.255 . S
C1092 C73 1.197 . S
C1101 C521 1.258 . S
C1103 C109 1.202 . S
C1112 C117 1.205 . S
C1114 C447 1.256 . S
C1123 C139 1.196 . S
C1125 C491 1.256 . S
C1134 C169 1.208 . S
C1136 C483 1.258 . S
C1145 C329 1.257 . S
C1147 C191 1.200 . S
C1156 C271 1.254 . S
C1158 C213 1.198 . S
C1167 C293 1.255 . S
C1169 C241 1.198 . S
C1178 C337 1.255 . S
C1180 C257 1.199 . S
C1189 C175 1.252 . S
C1191 C279 1.191 . S
C1200 C147 1.254 . S
C1202 C301 1.195 . S
C1211 C125 1.250 . S
C1213 C315 1.185 . S
C1222 C95 1.250 . S
C1224 C345 1.184 . S
C1233 C367 1.187 . S
C1235 C263 1.251 . S
C1244 C395 1.194 . S
C1246 C197 1.254 . S
C1255 C411 1.184 . S
C1257 C227 1.250 . S
C1266 C439 1.183 . S
C1268 C219 1.251 . S
C1277 C455 1.196 . S
C1279 C65 1.254 . S
C1288 C21 1.252 . S
C1290 C469 1.191 . S
C1299 C37 1.252 . S
C1301 C499 1.192 . S
C1310 C81 1.254 . S
C1312 C527 1.194 . S
