# Generated by pormake.
# Topology lcy-e, (6)-cn, num edge types: 1
# Building blocks:
#     Node 0, Type 0, BuildingBlock: CIFDUS_clean_sbu_1, # of connection points: 6
#     Node 1, Type 0, BuildingBlock: CIFDUS_clean_sbu_1, # of connection points: 6
#     Node 2, Type 0, BuildingBlock: CIFDUS_clean_sbu_1, # of connection points: 6
#     Node 3, Type 0, BuildingBlock: CIFDUS_clean_sbu_1, # of connection points: 6
#     Node 4, Type 0, BuildingBlock: CIFDUS_clean_sbu_1, # of connection points: 6
#     Node 5, Type 0, BuildingBlock: CIFDUS_clean_sbu_1, # of connection points: 6
#     Node 6, Type 0, BuildingBlock: CIFDUS_clean_sbu_1, # of connection points: 6
#     Node 7, Type 0, BuildingBlock: CIFDUS_clean_sbu_1, # of connection points: 6
#     Node 8, Type 0, BuildingBlock: CIFDUS_clean_sbu_1, # of connection points: 6
#     Node 9, Type 0, BuildingBlock: CIFDUS_clean_sbu_1, # of connection points: 6
#     Node 10, Type 0, BuildingBlock: CIFDUS_clean_sbu_1, # of connection points: 6
#     Node 11, Type 0, BuildingBlock: CIFDUS_clean_sbu_1, # of connection points: 6
#     Edge 12, Type (0, 0), BuildingBlock: TEMPAE_clean_linker_10, # of connection points: 2
#     Edge 13, Type (0, 0), BuildingBlock: TEMPAE_clean_linker_10, # of connection points: 2
#     Edge 14, Type (0, 0), BuildingBlock: TEMPAE_clean_linker_10, # of connection points: 2
#     Edge 15, Type (0, 0), BuildingBlock: TEMPAE_clean_linker_10, # of connection points: 2
#     Edge 16, Type (0, 0), BuildingBlock: TEMPAE_clean_linker_10, # of connection points: 2
#     Edge 17, Type (0, 0), BuildingBlock: TEMPAE_clean_linker_10, # of connection points: 2
#     Edge 18, Type (0, 0), BuildingBlock: TEMPAE_clean_linker_10, # of connection points: 2
#     Edge 19, Type (0, 0), BuildingBlock: TEMPAE_clean_linker_10, # of connection points: 2
#     Edge 20, Type (0, 0), BuildingBlock: TEMPAE_clean_linker_10, # of connection points: 2
#     Edge 21, Type (0, 0), BuildingBlock: TEMPAE_clean_linker_10, # of connection points: 2
#     Edge 22, Type (0, 0), BuildingBlock: TEMPAE_clean_linker_10, # of connection points: 2
#     Edge 23, Type (0, 0), BuildingBlock: TEMPAE_clean_linker_10, # of connection points: 2
#     Edge 24, Type (0, 0), BuildingBlock: TEMPAE_clean_linker_10, # of connection points: 2
#     Edge 25, Type (0, 0), BuildingBlock: TEMPAE_clean_linker_10, # of connection points: 2
#     Edge 26, Type (0, 0), BuildingBlock: TEMPAE_clean_linker_10, # of connection points: 2
#     Edge 27, Type (0, 0), BuildingBlock: TEMPAE_clean_linker_10, # of connection points: 2
#     Edge 28, Type (0, 0), BuildingBlock: TEMPAE_clean_linker_10, # of connection points: 2
#     Edge 29, Type (0, 0), BuildingBlock: TEMPAE_clean_linker_10, # of connection points: 2
#     Edge 30, Type (0, 0), BuildingBlock: TEMPAE_clean_linker_10, # of connection points: 2
#     Edge 31, Type (0, 0), BuildingBlock: TEMPAE_clean_linker_10, # of connection points: 2
#     Edge 32, Type (0, 0), BuildingBlock: TEMPAE_clean_linker_10, # of connection points: 2
#     Edge 33, Type (0, 0), BuildingBlock: TEMPAE_clean_linker_10, # of connection points: 2
#     Edge 34, Type (0, 0), BuildingBlock: TEMPAE_clean_linker_10, # of connection points: 2
#     Edge 35, Type (0, 0), BuildingBlock: TEMPAE_clean_linker_10, # of connection points: 2
#     Edge 36, Type (0, 0), BuildingBlock: TEMPAE_clean_linker_10, # of connection points: 2
#     Edge 37, Type (0, 0), BuildingBlock: TEMPAE_clean_linker_10, # of connection points: 2
#     Edge 38, Type (0, 0), BuildingBlock: TEMPAE_clean_linker_10, # of connection points: 2
#     Edge 39, Type (0, 0), BuildingBlock: TEMPAE_clean_linker_10, # of connection points: 2
#     Edge 40, Type (0, 0), BuildingBlock: TEMPAE_clean_linker_10, # of connection points: 2
#     Edge 41, Type (0, 0), BuildingBlock: TEMPAE_clean_linker_10, # of connection points: 2
#     Edge 42, Type (0, 0), BuildingBlock: TEMPAE_clean_linker_10, # of connection points: 2
#     Edge 43, Type (0, 0), BuildingBlock: TEMPAE_clean_linker_10, # of connection points: 2
#     Edge 44, Type (0, 0), BuildingBlock: TEMPAE_clean_linker_10, # of connection points: 2
#     Edge 45, Type (0, 0), BuildingBlock: TEMPAE_clean_linker_10, # of connection points: 2
#     Edge 46, Type (0, 0), BuildingBlock: TEMPAE_clean_linker_10, # of connection points: 2
#     Edge 47, Type (0, 0), BuildingBlock: TEMPAE_clean_linker_10, # of connection points: 2
# Relax obj value: 0.274
# Max RMSD: 0.265
# Mean RMSD: 0.265
data_MOF--net-lcy-e--node1-CIFDUS_clean_sbu_1--edge1-TEMPAE_clean_linker_10
_symmetry_space_group_name_H-M    P1
_symmetry_Int_Tables_number       1
_symmetry_cell_setting            triclinic
loop_
_symmetry_equiv_pos_as_xyz
'x, y, z'
_cell_length_a     36.522487
_cell_length_b     36.465093
_cell_length_c     36.460188
_cell_angle_alpha  90.046295
_cell_angle_beta   89.860857
_cell_angle_gamma 89.959515
loop_
_atom_site_label
_atom_site_type_symbol
_atom_site_fract_x
_atom_site_fract_y
_atom_site_fract_z
_atom_type_partial_charge
O0 O 0.08947 0.15512 0.4299 0.0
Mn1 Mn 0.12737 0.19509 0.44631 0.0
O2 O 0.03904 0.18642 0.41186 0.0
Mn3 Mn 0.05402 0.23329 0.42472 0.0
O4 O 0.16288 0.23683 0.46398 0.0
O5 O 0.15413 0.15607 0.47472 0.0
Mn6 Mn 0.20124 0.1669 0.47527 0.0
O7 O 0.16099 0.18435 0.40117 0.0
O8 O 0.20398 0.21044 0.50097 0.0
O9 O 0.09542 0.20737 0.49264 0.0
O10 O 0.04949 0.24425 0.4741 0.0
O11 O 0.19662 0.12244 0.49889 0.0
O12 O 0.21548 0.16907 0.42623 0.0
C13 C 0.09694 0.25746 0.39176 0.0
C14 C 0.05659 0.15653 0.41711 0.0
C15 C 0.18734 0.23868 0.4892 0.0
C16 C 0.16212 0.12605 0.49175 0.0
C17 C 0.19518 0.17624 0.39865 0.0
C18 C 0.06808 0.22873 0.49927 0.0
O19 O 0.10134 0.23261 0.41634 0.0
O20 O 0.06346 0.26864 0.38912 0.0
O21 O 0.0945 0.83702 0.68827 0.0
Mn22 Mn 0.04705 0.86842 0.69665 0.0
O23 O 0.07442 0.78184 0.66848 0.0
Mn24 Mn 0.02474 0.79235 0.66698 0.0
O25 O -0.00143 0.89811 0.70589 0.0
O26 O 0.07386 0.89594 0.73525 0.0
Mn27 Mn 0.06038 0.94182 0.7385 0.0
O28 O 0.06367 0.9076 0.65805 0.0
O29 O 0.01127 0.93874 0.75056 0.0
O30 O 0.0288 0.83246 0.73761 0.0
O31 O 0.00018 0.78518 0.71089 0.0
O32 O 0.09746 0.93459 0.77285 0.0
O33 O 0.07083 0.95953 0.69171 0.0
C34 C 0.00595 0.83111 0.62658 0.0
C35 C 0.09997 0.8036 0.67821 0.0
C36 C 0.98863 0.92093 0.73094 0.0
C37 C 0.09818 0.90161 0.75992 0.0
C38 C 0.07112 0.94211 0.66114 0.0
C39 C 0.00817 0.80397 0.73919 0.0
O40 O 0.02173 0.83978 0.65702 0.0
O41 O 0.00113 0.79619 0.62242 0.0
O42 O 0.33493 0.81497 0.90419 0.0
Mn43 Mn 0.36556 0.80396 0.95149 0.0
O44 O 0.28125 0.8388 0.92408 0.0
Mn45 Mn 0.28915 0.83332 0.97391 0.0
O46 O 0.39434 0.79207 -0.00011 0.0
O47 O 0.39433 0.76773 0.92209 0.0
Mn48 Mn 0.43951 0.76449 0.93808 0.0
O49 O 0.40407 0.84399 0.93797 0.0
O50 O 0.43419 0.7475 0.9854 0.0
O51 O 0.32974 0.76187 0.96636 0.0
O52 O 0.27978 0.78684 0.99221 0.0
O53 O 0.43572 0.73276 0.89837 0.0
O54 O 0.45738 0.81225 0.93438 0.0
C55 C 0.32785 0.8687 0.00073 0.0
C56 C 0.30287 0.82849 0.89852 0.0
C57 C 0.416 0.7658 0.00886 0.0
C58 C 0.40222 0.74411 0.89709 0.0
C59 C 0.43919 0.8423 0.93463 0.0
C60 C 0.29951 0.75915 0.9842 0.0
O61 O 0.33647 0.84135 0.97989 0.0
O62 O 0.29294 0.87327 0.00484 0.0
O63 O 0.44018 0.09217 0.15448 0.0
Mn64 Mn 0.45395 0.13239 0.19289 0.0
O65 O 0.4367 0.04026 0.18846 0.0
Mn66 Mn 0.44066 0.0603 0.23536 0.0
O67 O 0.46875 0.16997 0.23374 0.0
O68 O 0.4821 0.15942 0.15373 0.0
Mn69 Mn 0.47853 0.20702 0.16181 0.0
O70 O 0.40718 0.16326 0.18089 0.0
O71 O 0.50059 0.21494 0.20669 0.0
O72 O 0.50233 0.10379 0.20575 0.0
O73 O 0.48794 0.06599 0.25202 0.0
O74 O 0.5069 0.20199 0.12028 0.0
O75 O 0.42882 0.21733 0.1595 0.0
C76 C 0.3997 0.09833 0.25463 0.0
C77 C 0.43678 0.05711 0.15763 0.0
C78 C 0.49037 0.19769 0.23521 0.0
C79 C 0.50202 0.16723 0.12545 0.0
C80 C 0.4026 0.19615 0.16891 0.0
C81 C 0.51138 0.08326 0.23291 0.0
O82 O 0.42449 0.10543 0.23051 0.0
O83 O 0.40124 0.06522 0.26719 0.0
O84 O 0.66188 0.31401 0.59087 0.0
Mn85 Mn 0.63087 0.30392 0.54355 0.0
O86 O 0.71656 0.33529 0.57075 0.0
Mn87 Mn 0.70808 0.3314 0.5208 0.0
O88 O 0.60192 0.29303 0.49498 0.0
O89 O 0.60124 0.26825 0.57249 0.0
Mn90 Mn 0.55611 0.26568 0.55631 0.0
O91 O 0.59293 0.34475 0.55724 0.0
O92 O 0.56145 0.24887 0.50885 0.0
O93 O 0.66587 0.261 0.52836 0.0
O94 O 0.71571 0.28502 0.50145 0.0
O95 O 0.55944 0.23393 0.5961 0.0
O96 O 0.53911 0.31379 0.56014 0.0
C97 C 0.66954 0.36825 0.49553 0.0
C98 C 0.69465 0.32581 0.59638 0.0
C99 C 0.57989 0.26719 0.48563 0.0
C100 C 0.59303 0.24495 0.59758 0.0
C101 C 0.55773 0.34357 0.56029 0.0
C102 C 0.69566 0.25771 0.50981 0.0
O103 O 0.66091 0.34064 0.51581 0.0
O104 O 0.70443 0.3722 0.49081 0.0
O105 O 0.93493 0.39859 0.84461 0.0
Mn106 Mn 0.94943 0.36398 0.80118 0.0
O107 O 0.92001 0.45301 0.81866 0.0
Mn108 Mn 0.93017 0.44146 0.77007 0.0
O109 O 0.96586 0.33073 0.75699 0.0
O110 O 0.97718 0.33298 0.83651 0.0
Mn111 Mn 0.97394 0.28596 0.82607 0.0
O112 O 0.90298 0.33168 0.80978 0.0
O113 O 0.99588 0.28214 0.78042 0.0
O114 O -0.00338 0.39528 0.79101 0.0
O115 O 0.97927 0.44457 0.75801 0.0
O116 O -0.00119 0.29002 0.87039 0.0
O117 O 0.92411 0.27575 0.82612 0.0
C118 C 0.89483 0.40189 0.74361 0.0
C119 C 0.92453 0.43227 0.84653 0.0
C120 C 0.9864 0.30217 0.75337 0.0
C121 C 0.99316 0.32485 0.86678 0.0
C122 C 0.89813 0.29786 0.81839 0.0
C123 C 0.00393 0.42407 0.77189 0.0
O124 O 0.92007 0.39454 0.7669 0.0
O125 O 0.89301 0.43632 0.73544 0.0
O126 O 0.8996 0.65442 0.05903 0.0
Mn127 Mn 0.86165 0.69456 0.04322 0.0
O128 O 0.94989 0.68513 0.07815 0.0
Mn129 Mn 0.93459 0.73211 0.066 0.0
O130 O 0.82534 0.73552 0.02597 0.0
O131 O 0.8363 0.65664 0.01319 0.0
Mn132 Mn 0.78856 0.66245 0.01317 0.0
O133 O 0.82733 0.68231 0.0876 0.0
O134 O 0.78215 0.70801 0.99176 0.0
O135 O 0.89392 0.70808 -0.00254 0.0
O136 O 0.93996 0.7441 0.01692 0.0
O137 O 0.7986 0.62116 0.98488 0.0
O138 O 0.77556 0.65919 0.06247 0.0
C139 C 0.892 0.75633 0.09926 0.0
C140 C 0.93235 0.65547 0.07204 0.0
C141 C 0.79874 0.73663 0.00294 0.0
C142 C 0.83231 0.62807 0.99302 0.0
C143 C 0.79465 0.66926 0.09006 0.0
C144 C 0.92145 0.72924 0.99131 0.0
O145 O 0.8871 0.73169 0.07447 0.0
O146 O 0.92563 0.76706 0.10197 0.0
O147 O 0.58692 0.66155 0.31359 0.0
Mn148 Mn 0.54013 0.63024 0.30296 0.0
O149 O 0.56551 0.71615 0.33383 0.0
Mn150 Mn 0.51582 0.70567 0.3321 0.0
O151 O 0.4923 0.60053 0.29075 0.0
O152 O 0.56901 0.60226 0.26598 0.0
Mn153 Mn 0.55713 0.55562 0.26455 0.0
O154 O 0.55466 0.59176 0.34295 0.0
O155 O 0.50828 0.55521 0.25181 0.0
O156 O 0.52475 0.66641 0.26113 0.0
O157 O 0.4934 0.71238 0.28727 0.0
O158 O 0.59447 0.56268 0.23035 0.0
O159 O 0.56543 0.53896 0.31191 0.0
C160 C 0.49226 0.66734 0.36976 0.0
C161 C 0.59164 0.69471 0.32468 0.0
C162 C 0.4842 0.57438 0.26841 0.0
C163 C 0.59353 0.59636 0.2414 0.0
C164 C 0.56227 0.55726 0.34169 0.0
C165 C 0.50326 0.69422 0.25917 0.0
O166 O 0.51204 0.65834 0.34165 0.0
O167 O 0.48772 0.70231 0.37387 0.0
O168 O 0.18545 0.40457 0.15602 0.0
Mn169 Mn 0.19516 0.45035 0.12252 0.0
O170 O 0.15956 0.42654 0.20803 0.0
Mn171 Mn 0.16117 0.47609 0.19666 0.0
O172 O 0.20614 0.49715 0.09085 0.0
O173 O 0.23412 0.42177 0.09699 0.0
Mn174 Mn 0.23603 0.431 0.04985 0.0
O175 O 0.1566 0.43235 0.08362 0.0
O176 O 0.24583 0.48058 0.04646 0.0
O177 O 0.2347 0.46983 0.15914 0.0
O178 O 0.20583 0.49852 0.20556 0.0
O179 O 0.27181 0.39596 0.05952 0.0
O180 O 0.19 0.41749 0.03333 0.0
C181 C 0.12598 0.49603 0.15365 0.0
C182 C 0.17179 0.40026 0.18834 0.0
C183 C 0.22823 0.50492 0.0644 0.0
C184 C 0.2595 0.39774 0.09275 0.0
C185 C 0.15944 0.42065 0.05026 0.0
C186 C 0.23488 0.49038 0.18785 0.0
O187 O 0.15573 0.47788 0.14869 0.0
O188 O 0.1185 0.50233 0.18775 0.0
O189 O 0.68045 0.0914 0.83037 0.0
Mn190 Mn 0.69204 0.04411 0.86053 0.0
O191 O 0.66087 0.07067 0.77526 0.0
Mn192 Mn 0.66272 0.02058 0.78458 0.0
O193 O 0.70441 0.99538 0.88867 0.0
O194 O 0.72865 0.07295 0.88887 0.0
Mn195 Mn 0.73302 0.05666 0.93389 0.0
O196 O 0.65278 0.057 0.90026 0.0
O197 O 0.74969 0.00929 0.92776 0.0
O198 O 0.73372 0.03004 0.82345 0.0
O199 O 0.70788 -0.00132 0.77742 0.0
O200 O 0.7645 0.09651 0.9293 0.0
O201 O 0.68567 0.06016 0.95287 0.0
C202 C 0.62582 0.99685 0.82399 0.0
C203 C 0.66956 0.09655 0.79723 0.0
C204 C 0.73088 0.98606 0.9099 0.0
C205 C 0.75223 0.09801 0.89611 0.0
C206 C 0.65524 0.0599 0.93543 0.0
C207 C 0.73593 0.00885 0.79536 0.0
O208 O 0.65397 0.01659 0.832 0.0
O209 O 0.62108 0.99212 0.78915 0.0
O210 O 0.80837 0.90234 0.3376 0.0
Mn211 Mn 0.79878 0.94791 0.37116 0.0
O212 O 0.82786 0.92636 0.28375 0.0
Mn213 Mn 0.83076 0.9755 0.2973 0.0
O214 O 0.78774 0.99486 0.40275 0.0
O215 O 0.75992 0.91959 0.39685 0.0
Mn216 Mn 0.75815 0.92859 0.44406 0.0
O217 O 0.83734 0.93014 0.40997 0.0
O218 O 0.74845 0.97826 0.4475 0.0
O219 O 0.75886 0.96698 0.33449 0.0
O220 O 0.78767 0.00178 0.29271 0.0
O221 O 0.72234 0.89359 0.4341 0.0
O222 O 0.80428 0.91499 0.46036 0.0
C223 C 0.86968 0.99038 0.33914 0.0
C224 C 0.8182 0.89929 0.3038 0.0
C225 C 0.76577 0.00262 0.42935 0.0
C226 C 0.73459 0.89556 0.40087 0.0
C227 C 0.83474 0.91842 0.4433 0.0
C228 C 0.75859 0.99121 0.30887 0.0
O229 O 0.83862 0.97482 0.3449 0.0
O230 O 0.87587 -0.00248 0.30496 0.0
O231 O 0.33923 0.55645 0.59369 0.0
Mn232 Mn 0.29997 0.54312 0.63313 0.0
O233 O 0.30597 0.56143 0.54151 0.0
Mn234 Mn 0.25872 0.55881 0.56093 0.0
O235 O 0.25855 0.52817 0.66985 0.0
O236 O 0.33758 0.51371 0.66042 0.0
Mn237 Mn 0.33046 0.51786 0.7082 0.0
O238 O 0.31273 0.58932 0.66469 0.0
O239 O 0.2843 0.49886 0.71735 0.0
O240 O 0.28623 0.49555 0.60346 0.0
O241 O 0.24056 0.51189 0.5659 0.0
O242 O 0.37056 0.4874 0.70207 0.0
O243 O 0.33556 0.56755 0.71802 0.0
C244 C 0.24063 0.59999 0.59948 0.0
C245 C 0.33656 0.56018 0.55863 0.0
C246 C 0.2563 0.50841 0.69893 0.0
C247 C 0.36528 0.49293 0.66744 0.0
C248 C 0.32593 0.59387 0.69706 0.0
C249 C 0.25896 0.48757 0.58268 0.0
O250 O 0.26365 0.57414 0.60632 0.0
O251 O 0.22833 0.59934 0.56627 0.0
C252 C 0.19782 0.30614 0.4829 0.0
C253 C 0.19734 0.27464 0.50481 0.0
C254 C 0.2088 0.34007 0.49745 0.0
C255 C 0.2184 0.34265 0.53503 0.0
C256 C 0.21695 0.31103 0.55746 0.0
C257 C 0.20695 0.2773 0.54193 0.0
C258 C 0.21053 0.37307 0.47251 0.0
C259 C 0.22561 0.3129 0.5979 0.0
C260 C 0.27656 0.42393 0.56472 0.0
C261 C 0.24956 0.44903 0.57537 0.0
C262 C 0.26688 0.38887 0.55196 0.0
C263 C 0.22944 0.37858 0.55092 0.0
C264 C 0.20235 0.40324 0.5638 0.0
C265 C 0.21271 0.43842 0.57528 0.0
C266 C 0.2965 0.36354 0.53798 0.0
C267 C 0.1623 0.39292 0.56443 0.0
H268 H 0.19049 0.30404 0.45416 0.0
H269 H 0.20607 0.25299 0.55902 0.0
H270 H 0.19142 0.39456 0.48245 0.0
H271 H 0.23849 0.38496 0.47297 0.0
H272 H 0.20338 0.36619 0.44371 0.0
H273 H 0.22219 0.28597 0.61171 0.0
H274 H 0.25419 0.32232 0.60191 0.0
H275 H 0.20745 0.33319 0.61153 0.0
H276 H 0.30502 0.43241 0.56451 0.0
H277 H 0.19191 0.45793 0.58376 0.0
H278 H 0.29232 0.35826 0.5083 0.0
H279 H 0.29499 0.33672 0.55221 0.0
H280 H 0.32435 0.37514 0.5419 0.0
H281 H 0.15206 0.39023 0.53594 0.0
H282 H 0.1453 0.41366 0.57895 0.0
H283 H 0.15849 0.36598 0.57803 0.0
C284 C 0.77519 0.96037 0.76723 0.0
C285 C 0.77219 0.99506 0.78362 0.0
C286 C 0.80943 0.946 0.75717 0.0
C287 C 0.84132 0.96728 0.76268 0.0
C288 C 0.83835 0.0027 0.77851 0.0
C289 C 0.80384 0.01594 0.78934 0.0
C290 C 0.81155 0.90768 0.74154 0.0
C291 C 0.87165 0.02655 0.78415 0.0
C292 C 0.93483 0.92306 0.77226 0.0
C293 C 0.94956 0.92815 0.73717 0.0
C294 C 0.89897 0.93416 0.78044 0.0
C295 C 0.87795 0.95204 0.75317 0.0
C296 C 0.89255 0.95646 0.71735 0.0
C297 C 0.92816 0.94393 0.70963 0.0
C298 C 0.88401 0.92768 0.81856 0.0
C299 C 0.8713 0.97596 0.68774 0.0
H300 H 0.75079 0.94396 0.7632 0.0
H301 H 0.80156 0.04284 0.80186 0.0
H302 H 0.825 0.90816 0.71424 0.0
H303 H 0.82855 0.89015 0.75963 0.0
H304 H 0.78413 0.89485 0.73866 0.0
H305 H 0.86441 0.05424 0.79465 0.0
H306 H 0.89048 0.01333 0.80398 0.0
H307 H 0.8868 0.02965 0.75791 0.0
H308 H 0.95164 0.91081 0.79346 0.0
H309 H 0.93996 0.94819 0.68264 0.0
H310 H 0.85667 0.9145 0.81711 0.0
H311 H 0.88049 0.95428 0.83291 0.0
H312 H 0.90237 0.91006 0.83526 0.0
H313 H 0.84397 0.96321 0.68426 0.0
H314 H 0.88579 0.97552 0.66091 0.0
H315 H 0.86676 0.00494 0.69591 0.0
C316 C 0.25011 0.71467 0.00072 0.0
C317 C 0.28748 0.72258 0.9968 0.0
C318 C 0.23836 0.68011 0.01293 0.0
C319 C 0.26466 0.65319 0.02234 0.0
C320 C 0.30247 0.66137 0.01928 0.0
C321 C 0.31342 0.69581 0.00605 0.0
C322 C 0.19784 0.67213 0.01498 0.0
C323 C 0.33137 0.63371 0.02984 0.0
C324 C 0.23571 0.57128 0.08036 0.0
C325 C 0.23408 0.54354 0.05382 0.0
C326 C 0.24544 0.6073 0.07057 0.0
C327 C 0.25272 0.61574 0.0333 0.0
C328 C 0.24958 0.58803 0.0063 0.0
C329 C 0.24074 0.55221 0.01696 0.0
C330 C 0.24925 0.63595 0.10021 0.0
C331 C 0.25626 0.59604 0.96619 0.0
H332 H 0.23001 0.73532 0.99352 0.0
H333 H 0.34235 0.70206 0.00359 0.0
H334 H 0.191 0.64923 0.99613 0.0
H335 H 0.19024 0.66327 0.04307 0.0
H336 H 0.18092 0.69631 0.00751 0.0
H337 H 0.35948 0.64524 0.02821 0.0
H338 H 0.32648 0.62385 0.05821 0.0
H339 H 0.3298 0.60954 0.01142 0.0
H340 H 0.23092 0.56448 0.10892 0.0
H341 H 0.23922 0.53079 0.99636 0.0
H342 H 0.23177 0.66002 0.09394 0.0
H343 H 0.27799 0.64576 0.10121 0.0
H344 H 0.24161 0.62525 0.1277 0.0
H345 H 0.23891 0.61932 0.95717 0.0
H346 H 0.25036 0.57199 0.94843 0.0
H347 H 0.28522 0.60419 0.96195 0.0
C348 C 0.57419 0.06345 0.21488 0.0
C349 C 0.55016 0.07704 0.24156 0.0
C350 C 0.60933 0.05116 0.22466 0.0
C351 C 0.62075 0.05356 0.26175 0.0
C352 C 0.59723 0.06957 0.28823 0.0
C353 C 0.56194 0.0805 0.2779 0.0
C354 C 0.63339 0.03379 0.19575 0.0
C355 C 0.60876 0.07386 0.32777 0.0
C356 C 0.69109 0.9863 0.29875 0.0
C357 C 0.72331 0.00703 0.29696 0.0
C358 C 0.65766 0.0009 0.28663 0.0
C359 C 0.6563 0.03743 0.27339 0.0
C360 C 0.68869 0.05867 0.27216 0.0
C361 C 0.7219 0.04304 0.28352 0.0
C362 C 0.62381 0.97718 0.28785 0.0
C363 C 0.68815 0.09805 0.25939 0.0
H364 H 0.56474 0.06048 0.18686 0.0
H365 H 0.54318 0.09116 0.29842 0.0
H366 H 0.66082 0.04681 0.19559 0.0
H367 H 0.63739 0.00433 0.20224 0.0
H368 H 0.62142 0.03603 0.16785 0.0
H369 H 0.58908 0.09079 0.34377 0.0
H370 H 0.61073 0.04647 0.34083 0.0
H371 H 0.63622 0.08674 0.32942 0.0
H372 H 0.69216 0.9584 0.30897 0.0
H373 H 0.74675 0.05927 0.28253 0.0
H374 H 0.61123 0.97571 0.26021 0.0
H375 H 0.60323 0.98949 0.3066 0.0
H376 H 0.62981 0.94885 0.29733 0.0
H377 H 0.6777 0.09963 0.23091 0.0
H378 H 0.71571 0.11089 0.2603 0.0
H379 H 0.66927 0.11432 0.2769 0.0
C380 C 0.74425 0.21265 0.4922 0.0
C381 C 0.70704 0.22088 0.49708 0.0
C382 C 0.7555 0.17794 0.47983 0.0
C383 C 0.72884 0.15112 0.47125 0.0
C384 C 0.69116 0.1596 0.47529 0.0
C385 C 0.68073 0.19422 0.48865 0.0
C386 C 0.79592 0.1697 0.47673 0.0
C387 C 0.66186 0.13206 0.46563 0.0
C388 C 0.75695 0.06877 0.41309 0.0
C389 C 0.75959 0.04128 0.43979 0.0
C390 C 0.74691 0.10476 0.42283 0.0
C391 C 0.74039 0.11349 0.4602 0.0
C392 C 0.74442 0.08603 0.4873 0.0
C393 C 0.75351 0.0502 0.47671 0.0
C394 C 0.74212 0.1331 0.39308 0.0
C395 C 0.73856 0.09432 0.5275 0.0
H396 H 0.76467 0.23319 0.49876 0.0
H397 H 0.65191 0.20068 0.49188 0.0
H398 H 0.80316 0.14681 0.49539 0.0
H399 H 0.80273 0.16075 0.44844 0.0
H400 H 0.81314 0.1938 0.48372 0.0
H401 H 0.63386 0.14377 0.46801 0.0
H402 H 0.66593 0.12204 0.43716 0.0
H403 H 0.66384 0.10796 0.48406 0.0
H404 H 0.76123 0.06177 0.38449 0.0
H405 H 0.75574 0.02898 0.49741 0.0
H406 H 0.76009 0.15703 0.3984 0.0
H407 H 0.71347 0.14325 0.39315 0.0
H408 H 0.74853 0.12201 0.3654 0.0
H409 H 0.75619 0.11756 0.53604 0.0
H410 H 0.7447 0.07036 0.54525 0.0
H411 H 0.70973 0.10269 0.53228 0.0
C412 C 0.06947 0.40809 0.7591 0.0
C413 C 0.04241 0.43464 0.76534 0.0
C414 C 0.10518 0.41846 0.74891 0.0
C415 C 0.11403 0.4562 0.74583 0.0
C416 C 0.08707 0.48301 0.75357 0.0
C417 C 0.05153 0.47189 0.76283 0.0
C418 C 0.13304 0.38911 0.74024 0.0
C419 C 0.09554 0.5235 0.75138 0.0
C420 C 0.21333 0.48721 0.74804 0.0
C421 C 0.21992 0.49523 0.71099 0.0
C422 C 0.17912 0.47405 0.75974 0.0
C423 C 0.15113 0.46799 0.73364 0.0
C424 C 0.15793 0.47527 0.69606 0.0
C425 C 0.1921 0.48924 0.68525 0.0
C426 C 0.1727 0.46732 0.80011 0.0
C427 C 0.12905 0.46849 0.66727 0.0
H428 H 0.06232 0.37928 0.7607 0.0
H429 H 0.03068 0.49246 0.76796 0.0
H430 H 0.14167 0.39139 0.71113 0.0
H431 H 0.15786 0.39292 0.75729 0.0
H432 H 0.12215 0.36106 0.74497 0.0
H433 H 0.07208 0.54076 0.76032 0.0
H434 H 0.11955 0.53011 0.76877 0.0
H435 H 0.10274 0.53097 0.72277 0.0
H436 H 0.23478 0.49181 0.76802 0.0
H437 H 0.19728 0.49484 0.65649 0.0
H438 H 0.16378 0.43861 0.80465 0.0
H439 H 0.15038 0.4854 0.81018 0.0
H440 H 0.19759 0.47252 0.81678 0.0
H441 H 0.11875 0.43994 0.66932 0.0
H442 H 0.13956 0.47304 0.63901 0.0
H443 H 0.10541 0.48705 0.67195 0.0
C444 C 0.77463 0.93447 0.91482 0.0
C445 C 0.73851 0.94715 0.91674 0.0
C446 C 0.78368 0.89897 0.92637 0.0
C447 C 0.75608 0.87626 0.94146 0.0
C448 C 0.71927 0.88866 0.94245 0.0
C449 C 0.71082 0.92394 0.92952 0.0
C450 C 0.82298 0.88631 0.92355 0.0
C451 C 0.6892 0.86547 0.95888 0.0
C452 C 0.77482 0.77442 0.95148 0.0
C453 C 0.78731 0.77232 0.98777 0.0
C454 C 0.76468 0.80808 0.93598 0.0
C455 C 0.76611 0.84024 0.95763 0.0
C456 C 0.77819 0.83819 0.99451 0.0
C457 C 0.7892 0.80427 0.00899 0.0
C458 C 0.75321 0.80935 0.89622 0.0
C459 C 0.77948 0.87182 0.01866 0.0
H460 H 0.79593 0.95264 0.90482 0.0
H461 H 0.68297 0.93414 0.93135 0.0
H462 H 0.83486 0.88384 0.95141 0.0
H463 H 0.82444 0.85882 0.91056 0.0
H464 H 0.84014 0.90561 0.90738 0.0
H465 H 0.6618 0.87838 0.95595 0.0
H466 H 0.68861 0.83807 0.94568 0.0
H467 H 0.6947 0.86112 0.98849 0.0
H468 H 0.77385 0.74977 0.93486 0.0
H469 H 0.79875 0.80261 0.03708 0.0
H470 H 0.7719 0.82763 0.88065 0.0
H471 H 0.72525 0.82098 0.89384 0.0
H472 H 0.75352 0.78181 0.88318 0.0
H473 H 0.79928 0.89189 0.00729 0.0
H474 H 0.78764 0.86522 0.04725 0.0
H475 H 0.75224 0.88533 0.01923 0.0
C476 C 0.41953 0.592 0.25415 0.0
C477 C 0.44558 0.56486 0.26169 0.0
C478 C 0.38398 0.58235 0.24283 0.0
C479 C 0.37427 0.54479 0.24003 0.0
C480 C 0.40017 0.51745 0.24931 0.0
C481 C 0.43561 0.52784 0.25954 0.0
C482 C 0.35736 0.61224 0.23244 0.0
C483 C 0.39077 0.47715 0.24753 0.0
C484 C 0.27472 0.51466 0.23805 0.0
C485 C 0.27018 0.50536 0.20099 0.0
C486 C 0.3082 0.52836 0.25104 0.0
C487 C 0.3376 0.53359 0.22623 0.0
C488 C 0.33278 0.52533 0.18856 0.0
C489 C 0.29926 0.51091 0.17646 0.0
C490 C 0.31248 0.53609 0.2915 0.0
C491 C 0.36325 0.53114 0.16111 0.0
H492 H 0.42746 0.62062 0.25541 0.0
H493 H 0.45581 0.50688 0.26556 0.0
H494 H 0.35028 0.60972 0.20296 0.0
H495 H 0.33156 0.60929 0.24826 0.0
H496 H 0.36869 0.64008 0.23735 0.0
H497 H 0.41322 0.45953 0.25808 0.0
H498 H 0.36563 0.47154 0.26372 0.0
H499 H 0.38508 0.46917 0.21873 0.0
H500 H 0.25233 0.51037 0.25714 0.0
H501 H 0.29572 0.50428 0.14769 0.0
H502 H 0.32222 0.56456 0.29581 0.0
H503 H 0.33344 0.51746 0.30323 0.0
H504 H 0.28647 0.53229 0.30689 0.0
H505 H 0.37412 0.55945 0.16338 0.0
H506 H 0.35409 0.52647 0.13245 0.0
H507 H 0.38616 0.51207 0.16705 0.0
C508 C 0.5399 0.22487 0.27338 0.0
C509 C 0.50472 0.20966 0.27109 0.0
C510 C 0.55476 0.23522 0.30728 0.0
C511 C 0.53349 0.23124 0.3395 0.0
C512 C 0.49766 0.21648 0.33726 0.0
C513 C 0.4839 0.20531 0.30309 0.0
C514 C 0.59349 0.24964 0.3087 0.0
C515 C 0.47385 0.2125 0.37093 0.0
C516 C 0.57733 0.22394 0.43337 0.0
C517 C 0.57307 0.25968 0.44672 0.0
C518 C 0.56614 0.21473 0.39778 0.0
C519 C 0.54899 0.24165 0.37572 0.0
C520 C 0.54544 0.27809 0.38891 0.0
C521 C 0.55807 0.28681 0.42422 0.0
C522 C 0.57167 0.17592 0.38429 0.0
C523 C 0.52669 0.30737 0.3665 0.0
H524 H 0.55625 0.22778 0.2487 0.0
H525 H 0.45665 0.19365 0.30133 0.0
H526 H 0.59384 0.27747 0.32098 0.0
H527 H 0.61042 0.23172 0.32648 0.0
H528 H 0.60641 0.25097 0.28112 0.0
H529 H 0.44596 0.20241 0.36422 0.0
H530 H 0.48668 0.19304 0.39042 0.0
H531 H 0.47137 0.2393 0.38518 0.0
H532 H 0.58893 0.20307 0.45105 0.0
H533 H 0.5544 0.31431 0.43499 0.0
H534 H 0.58473 0.17599 0.35677 0.0
H535 H 0.54476 0.16212 0.38151 0.0
H536 H 0.58895 0.15952 0.40322 0.0
H537 H 0.53965 0.30963 0.33906 0.0
H538 H 0.52759 0.33466 0.38004 0.0
H539 H 0.49762 0.29968 0.36215 0.0
C540 C 0.08416 0.24234 0.56456 0.0
C541 C 0.05752 0.23656 0.5376 0.0
C542 C 0.07415 0.25369 0.60009 0.0
C543 C 0.03658 0.25826 0.60897 0.0
C544 C 0.00962 0.25134 0.58202 0.0
C545 C 0.02045 0.24106 0.54656 0.0
C546 C 0.10373 0.26162 0.62782 0.0
C547 C 0.96928 0.25499 0.59056 0.0
C548 C 0.0064 0.25429 0.70863 0.0
C549 C -0.00072 0.29131 0.71639 0.0
C550 C 0.01885 0.24322 0.67392 0.0
C551 C 0.02516 0.26991 0.64647 0.0
C552 C 0.01872 0.30746 0.65435 0.0
C553 C 0.00538 0.31768 0.68911 0.0
C554 C 0.02452 0.20287 0.66639 0.0
C555 C 0.02583 0.3368 0.62604 0.0
H556 H 0.11287 0.23936 0.55746 0.0
H557 H -0.00018 0.23648 0.52571 0.0
H558 H 0.10122 0.29031 0.63771 0.0
H559 H 0.10045 0.24347 0.652 0.0
H560 H 0.13165 0.25765 0.6163 0.0
H561 H 0.95178 0.24731 0.56688 0.0
H562 H 0.96196 0.23729 0.61421 0.0
H563 H 0.96287 0.28367 0.59845 0.0
H564 H 0.00155 0.23377 0.72959 0.0
H565 H 0.00035 0.34636 0.69516 0.0
H566 H 0.0531 0.19779 0.65735 0.0
H567 H 0.0063 0.19395 0.64376 0.0
H568 H 0.0188 0.18563 0.69084 0.0
H569 H 0.05427 0.33448 0.61549 0.0
H570 H 0.02176 0.36486 0.63724 0.0
H571 H 0.00718 0.33301 0.60237 0.0
C572 C 0.98683 0.75514 0.78243 0.0
C573 C 0.99342 0.79233 0.77522 0.0
C574 C 0.97356 0.74363 0.81675 0.0
C575 C 0.96573 0.77005 0.84418 0.0
C576 C 0.97124 0.80777 0.83659 0.0
C577 C 0.98554 0.81841 0.8024 0.0
C578 C 0.96889 0.70314 0.82399 0.0
C579 C 0.96232 0.83689 0.86469 0.0
C580 C 0.90615 0.74173 0.92548 0.0
C581 C 0.93245 0.73726 0.95306 0.0
C582 C 0.91646 0.75264 0.88989 0.0
C583 C 0.95401 0.7581 0.88154 0.0
C584 C 0.98067 0.75245 0.9091 0.0
C585 C 0.96953 0.74261 0.94459 0.0
C586 C 0.88715 0.75926 0.86154 0.0
C587 C 0.02103 0.75712 0.9012 0.0
H588 H 0.99298 0.73489 0.76151 0.0
H589 H 0.99013 0.84723 0.79673 0.0
H590 H 0.9872 0.69462 0.8467 0.0
H591 H 0.94041 0.69727 0.83279 0.0
H592 H 0.97528 0.68617 0.79948 0.0
H593 H 0.96549 0.86506 0.85353 0.0
H594 H 0.93378 0.83352 0.87463 0.0
H595 H 0.98061 0.83391 0.88875 0.0
H596 H 0.87743 0.73802 0.9321 0.0
H597 H 0.98993 0.73896 0.96583 0.0
H598 H 0.89181 0.7414 0.83734 0.0
H599 H 0.8885 0.78808 0.85188 0.0
H600 H 0.85921 0.75395 0.87243 0.0
H601 H 0.0292 0.7396 0.87766 0.0
H602 H 0.03834 0.74992 0.92515 0.0
H603 H 0.02676 0.78596 0.89344 0.0
C604 C 0.45277 0.71831 0.22046 0.0
C605 C 0.48885 0.70549 0.22321 0.0
C606 C 0.43812 0.72873 0.18653 0.0
C607 C 0.46052 0.72738 0.15485 0.0
C608 C 0.49717 0.71483 0.15758 0.0
C609 C 0.51073 0.70341 0.19172 0.0
C610 C 0.39854 0.74057 0.18448 0.0
C611 C 0.5221 0.71363 0.1245 0.0
C612 C 0.41998 0.72097 0.05954 0.0
C613 C 0.42237 0.75737 0.04765 0.0
C614 C 0.43069 0.71113 0.09506 0.0
C615 C 0.4454 0.73821 0.11864 0.0
C616 C 0.44694 0.77528 0.10699 0.0
C617 C 0.43483 0.78454 0.07164 0.0
C618 C 0.4273 0.67158 0.10689 0.0
C619 C 0.46302 0.8048 0.13111 0.0
H620 H 0.43569 0.71938 0.24481 0.0
H621 H 0.53867 0.69358 0.19395 0.0
H622 H 0.39665 0.76889 0.1736 0.0
H623 H 0.38345 0.72248 0.16525 0.0
H624 H 0.38471 0.73964 0.21164 0.0
H625 H 0.55033 0.70479 0.13161 0.0
H626 H 0.51096 0.69439 0.10377 0.0
H627 H 0.52345 0.74113 0.11155 0.0
H628 H 0.4102 0.70009 0.04076 0.0
H629 H 0.43699 0.8126 0.06205 0.0
H630 H 0.41353 0.66979 0.13399 0.0
H631 H 0.45495 0.65938 0.10989 0.0
H632 H 0.41162 0.65489 0.08683 0.0
H633 H 0.44903 0.80521 0.15814 0.0
H634 H 0.46081 0.83248 0.11858 0.0
H635 H 0.49236 0.79877 0.13621 0.0
C636 C 0.12941 0.30812 0.36128 0.0
C637 C 0.12504 0.27034 0.36578 0.0
C638 C 0.14596 0.32248 0.32969 0.0
C639 C 0.15796 0.29835 0.30157 0.0
C640 C 0.15684 0.25998 0.30763 0.0
C641 C 0.14003 0.24635 0.33968 0.0
C642 C 0.14717 0.36362 0.32495 0.0
C643 C 0.17018 0.2333 0.27891 0.0
C644 C 0.13876 0.34641 0.21234 0.0
C645 C 0.17211 0.36408 0.20605 0.0
C646 C 0.13499 0.32098 0.24097 0.0
C647 C 0.16518 0.31379 0.26432 0.0
C648 C 0.19994 0.32855 0.25541 0.0
C649 C 0.20301 0.35361 0.22622 0.0
C650 C 0.09749 0.30545 0.24893 0.0
C651 C 0.23291 0.32096 0.27903 0.0
H652 H 0.11748 0.3266 0.38136 0.0
H653 H 0.13572 0.21711 0.3426 0.0
H654 H 0.17452 0.37244 0.31509 0.0
H655 H 0.12677 0.37202 0.30406 0.0
H656 H 0.14093 0.37837 0.35091 0.0
H657 H 0.17429 0.20543 0.29047 0.0
H658 H 0.14966 0.23142 0.2566 0.0
H659 H 0.19627 0.24277 0.26651 0.0
H660 H 0.11481 0.35494 0.197 0.0
H661 H 0.22875 0.36767 0.22149 0.0
H662 H 0.08553 0.31975 0.27303 0.0
H663 H 0.09931 0.27586 0.25568 0.0
H664 H 0.07859 0.30894 0.22535 0.0
H665 H 0.2288 0.33307 0.30666 0.0
H666 H 0.25842 0.33249 0.26706 0.0
H667 H 0.23638 0.29099 0.2827 0.0
C668 C 0.97681 0.88912 0.60375 0.0
C669 C 0.99609 0.85667 0.59683 0.0
C670 C 0.95764 0.90677 0.57522 0.0
C671 C 0.95782 0.89126 0.53945 0.0
C672 C 0.98147 0.86152 0.53174 0.0
C673 C 0.0001 0.84446 0.56058 0.0
C674 C 0.93397 0.93941 0.58432 0.0
C675 C 0.98336 0.84448 0.49403 0.0
C676 C 0.8656 0.88372 0.49285 0.0
C677 C 0.86808 0.90966 0.46463 0.0
C678 C 0.89452 0.87798 0.51725 0.0
C679 C 0.92706 0.89882 0.51363 0.0
C680 C 0.93021 0.92454 0.4846 0.0
C681 C 0.90061 0.92964 0.46032 0.0
C682 C 0.88999 0.84957 0.54713 0.0
C683 C 0.96412 0.94759 0.4799 0.0
H684 H 0.97396 0.89881 0.63173 0.0
H685 H 0.01566 0.81969 0.55513 0.0
H686 H 0.93379 0.95936 0.56136 0.0
H687 H 0.9054 0.93008 0.58888 0.0
H688 H 0.94348 0.95345 0.60961 0.0
H689 H 0.00788 0.82669 0.49082 0.0
H690 H 0.95862 0.8274 0.48956 0.0
H691 H 0.98392 0.86585 0.47242 0.0
H692 H 0.84057 0.86808 0.49622 0.0
H693 H 0.90242 0.95019 0.43893 0.0
H694 H 0.89293 0.86264 0.57444 0.0
H695 H 0.91165 0.82835 0.54463 0.0
H696 H 0.86293 0.83573 0.54606 0.0
H697 H 0.96472 0.96876 0.50173 0.0
H698 H 0.96473 0.9616 0.45285 0.0
H699 H 0.98921 0.9307 0.4827 0.0
C700 C 0.29727 0.64213 0.73473 0.0
C701 C 0.32711 0.63059 0.71346 0.0
C702 C 0.30178 0.66855 0.76242 0.0
C703 C 0.33688 0.68379 0.76855 0.0
C704 C 0.36587 0.67543 0.74392 0.0
C705 C 0.36073 0.64847 0.71691 0.0
C706 C 0.27009 0.67713 0.78757 0.0
C707 C 0.40364 0.69135 0.74901 0.0
C708 C 0.36183 0.75343 0.84244 0.0
C709 C 0.37694 0.73017 0.86901 0.0
C710 C 0.34613 0.73886 0.81026 0.0
C711 C 0.34589 0.70035 0.80485 0.0
C712 C 0.35865 0.67696 0.83313 0.0
C713 C 0.37424 0.69222 0.86465 0.0
C714 C 0.33212 0.7646 0.78112 0.0
C715 C 0.35838 0.6357 0.82904 0.0
H716 H 0.2713 0.62796 0.73206 0.0
H717 H 0.38385 0.63911 0.70067 0.0
H718 H 0.27639 0.66793 0.81587 0.0
H719 H 0.26574 0.70715 0.78856 0.0
H720 H 0.24434 0.66369 0.77861 0.0
H721 H 0.42095 0.68757 0.72419 0.0
H722 H 0.40209 0.72103 0.75551 0.0
H723 H 0.41726 0.67745 0.77238 0.0
H724 H 0.3647 0.78284 0.84549 0.0
H725 H 0.38618 0.67436 0.8852 0.0
H726 H 0.34962 0.76252 0.75629 0.0
H727 H 0.3319 0.79359 0.79053 0.0
H728 H 0.30396 0.7568 0.77293 0.0
H729 H 0.33077 0.62603 0.82093 0.0
H730 H 0.36634 0.62151 0.85478 0.0
H731 H 0.37783 0.62745 0.8071 0.0
C732 C 0.55519 0.14815 0.08886 0.0
C733 C 0.51959 0.14051 0.10071 0.0
C734 C 0.57145 0.12821 0.06043 0.0
C735 C 0.55145 0.0999 0.04295 0.0
C736 C 0.51573 0.09107 0.05561 0.0
C737 C 0.5002 0.11153 0.08462 0.0
C738 C 0.60978 0.13839 0.04839 0.0
C739 C 0.4936 0.06052 0.03865 0.0
C740 C 0.5941 0.08777 0.94954 0.0
C741 C 0.62185 0.06279 0.95811 0.0
C742 C 0.56738 0.09699 0.97587 0.0
C743 C 0.56877 0.08078 0.01122 0.0
C744 C 0.59374 0.05198 0.01793 0.0
C745 C 0.62031 0.04362 0.99142 0.0
C746 C 0.53998 0.12664 0.96718 0.0
C747 C 0.59489 0.03272 0.05451 0.0
H748 H 0.57009 0.17066 0.1013 0.0
H749 H 0.47232 0.10618 0.09314 0.0
H750 H 0.62805 0.11414 0.05016 0.0
H751 H 0.60949 0.14754 0.01937 0.0
H752 H 0.62169 0.1607 0.06535 0.0
H753 H 0.49849 0.03489 0.05429 0.0
H754 H 0.46384 0.06662 0.04011 0.0
H755 H 0.50117 0.05545 0.00959 0.0
H756 H 0.59492 0.10213 0.92352 0.0
H757 H 0.64126 0.02348 -0.00237 0.0
H758 H 0.5484 0.15251 0.98083 0.0
H759 H 0.5125 0.11913 0.97785 0.0
H760 H 0.53802 0.13173 0.93721 0.0
H761 H 0.60735 0.05117 0.07525 0.0
H762 H 0.61129 0.00707 0.05326 0.0
H763 H 0.56677 0.026 0.06393 0.0
C764 C 0.6202 0.19347 0.63135 0.0
C765 C 0.61799 0.23132 0.62608 0.0
C766 C 0.63612 0.17882 0.66297 0.0
C767 C 0.64974 0.20276 0.69041 0.0
C768 C 0.64985 0.24111 0.68409 0.0
C769 C 0.63371 0.25504 0.65188 0.0
C770 C 0.636 0.13767 0.66802 0.0
C771 C 0.66485 0.26739 0.71227 0.0
C772 C 0.63601 0.15245 0.77912 0.0
C773 C 0.66919 0.13357 0.78156 0.0
C774 C 0.63087 0.17947 0.75221 0.0
C775 C 0.65942 0.18697 0.72683 0.0
C776 C 0.69436 0.17108 0.73225 0.0
C777 C 0.69884 0.14444 0.7597 0.0
C778 C 0.5933 0.19616 0.74789 0.0
C779 C 0.72569 0.17901 0.70644 0.0
H780 H 0.60779 0.17526 0.61138 0.0
H781 H 0.63106 0.2844 0.64823 0.0
H782 H 0.66376 0.12782 0.67541 0.0
H783 H 0.61721 0.13023 0.6908 0.0
H784 H 0.627 0.12295 0.64292 0.0
H785 H 0.66479 0.29619 0.70233 0.0
H786 H 0.64825 0.26586 0.73774 0.0
H787 H 0.69328 0.25967 0.71958 0.0
H788 H 0.61305 0.14367 0.79585 0.0
H789 H 0.72449 0.12957 0.76169 0.0
H790 H 0.57875 0.18213 0.72517 0.0
H791 H 0.59527 0.22567 0.74084 0.0
H792 H 0.57663 0.19322 0.77325 0.0
H793 H 0.71866 0.16985 0.67829 0.0
H794 H 0.75137 0.16507 0.71489 0.0
H795 H 0.73064 0.20896 0.70528 0.0
C796 C 0.09323 0.43002 0.03257 0.0
C797 C 0.12642 0.41093 0.02877 0.0
C798 C 0.06403 0.42384 0.00799 0.0
C799 C 0.06811 0.39754 0.97953 0.0
C800 C 0.1014 0.37782 0.97629 0.0
C801 C 0.1299 0.38474 0.00084 0.0
C802 C 0.02911 0.44544 0.01283 0.0
C803 C 0.10719 0.34927 0.94669 0.0
C804 C -0.00109 0.33834 0.93291 0.0
C805 C 0.00209 0.35065 0.89665 0.0
C806 C 0.01603 0.35699 0.96175 0.0
C807 C 0.03772 0.38811 0.95391 0.0
C808 C 0.03694 0.40338 0.9181 0.0
C809 C 0.01898 0.38439 0.88967 0.0
C810 C 0.0146 0.34073 -0.00024 0.0
C811 C 0.05838 0.4375 0.90902 0.0
H812 H 0.09053 0.45063 0.05383 0.0
H813 H 0.1554 0.36977 -0.00217 0.0
H814 H 0.01465 0.44971 0.98645 0.0
H815 H 0.01054 0.43022 0.0315 0.0
H816 H 0.03467 0.47259 0.02547 0.0
H817 H 0.13511 0.33719 0.94738 0.0
H818 H 0.08703 0.32676 0.94996 0.0
H819 H 0.10287 0.36165 0.91925 0.0
H820 H 0.985 0.31266 0.93846 0.0
H821 H 0.02104 0.39421 0.86171 0.0
H822 H 0.01168 0.36263 0.0207 0.0
H823 H 0.04056 0.3259 0.0053 0.0
H824 H 0.99156 0.32108 0.00284 0.0
H825 H 0.05537 0.45821 0.93116 0.0
H826 H 0.04944 0.44978 0.88263 0.0
H827 H 0.08788 0.43047 0.90675 0.0
C828 C 0.84986 0.84433 0.2801 0.0
C829 C 0.81715 0.8635 0.28533 0.0
C830 C 0.85353 0.81904 0.25126 0.0
C831 C 0.82386 0.81341 0.22681 0.0
C832 C 0.7895 0.82965 0.2347 0.0
C833 C 0.78657 0.85467 0.26394 0.0
C834 C 0.8906 0.80204 0.2443 0.0
C835 C 0.75707 0.82392 0.20985 0.0
C836 C 0.8614 0.80773 0.13046 0.0
C837 C 0.86411 0.76987 0.12518 0.0
C838 C 0.84515 0.82225 0.16213 0.0
C839 C 0.83163 0.7982 0.18955 0.0
C840 C 0.83123 0.75991 0.18278 0.0
C841 C 0.84773 0.7461 0.15058 0.0
C842 C 0.8458 0.86332 0.16771 0.0
C843 C 0.81624 0.73346 0.21085 0.0
H844 H 0.87358 0.85161 0.29639 0.0
H845 H 0.76133 0.86987 0.26791 0.0
H846 H 0.88785 0.7727 0.23679 0.0
H847 H 0.90402 0.8163 0.22099 0.0
H848 H 0.90874 0.80424 0.26862 0.0
H849 H 0.7313 0.83447 0.22222 0.0
H850 H 0.76172 0.83837 0.18348 0.0
H851 H 0.75373 0.7944 0.20353 0.0
H852 H 0.8744 0.82601 0.11091 0.0
H853 H 0.85065 0.71675 0.14699 0.0
H854 H 0.8659 0.8703 0.18941 0.0
H855 H 0.81862 0.87334 0.17691 0.0
H856 H 0.85355 0.87823 0.14229 0.0
H857 H 0.83418 0.73328 0.23535 0.0
H858 H 0.81446 0.70506 0.19995 0.0
H859 H 0.78862 0.74226 0.22003 0.0
C860 C 0.37033 0.54584 0.50137 0.0
C861 C 0.36985 0.56302 0.5358 0.0
C862 C 0.39717 0.55441 0.47526 0.0
C863 C 0.42364 0.58137 0.48358 0.0
C864 C 0.42594 0.59535 0.51984 0.0
C865 C 0.39889 0.58594 0.54572 0.0
C866 C 0.39472 0.53761 0.43751 0.0
C867 C 0.45478 0.62301 0.53016 0.0
C868 C 0.49267 0.61137 0.41043 0.0
C869 C 0.47443 0.64165 0.39542 0.0
C870 C 0.47675 0.591 0.43923 0.0
C871 C 0.44181 0.60132 0.45291 0.0
C872 C 0.42312 0.63138 0.43698 0.0
C873 C 0.4397 0.65109 0.40863 0.0
C874 C 0.49747 0.55878 0.45484 0.0
C875 C 0.38572 0.64335 0.45032 0.0
H876 H 0.3484 0.52719 0.49406 0.0
H877 H 0.39891 0.5987 0.57259 0.0
H878 H 0.38295 0.55795 0.4182 0.0
H879 H 0.42236 0.53011 0.42726 0.0
H880 H 0.37711 0.51279 0.43729 0.0
H881 H 0.45732 0.62591 0.56039 0.0
H882 H 0.48178 0.61504 0.51859 0.0
H883 H 0.44737 0.65013 0.51852 0.0
H884 H 0.51997 0.6047 0.40108 0.0
H885 H 0.42564 0.67462 0.39711 0.0
H886 H 0.49177 0.55489 0.48449 0.0
H887 H 0.52746 0.56202 0.45094 0.0
H888 H 0.48896 0.53347 0.44026 0.0
H889 H 0.3659 0.62048 0.44748 0.0
H890 H 0.37501 0.66733 0.4349 0.0
H891 H 0.387 0.65077 0.47981 0.0
C892 C 0.21653 0.1423 0.34397 0.0
C893 C 0.21337 0.17557 0.36271 0.0
C894 C 0.24452 0.13692 0.31803 0.0
C895 C 0.27003 0.16547 0.31118 0.0
C896 C 0.26402 0.2005 0.32688 0.0
C897 C 0.23581 0.20508 0.35276 0.0
C898 C 0.24953 0.09919 0.30172 0.0
C899 C 0.29 0.23184 0.31989 0.0
C900 C 0.36577 0.12661 0.30558 0.0
C901 C 0.37137 0.12395 0.26775 0.0
C902 C 0.33394 0.14252 0.31994 0.0
C903 C 0.30669 0.15589 0.29576 0.0
C904 C 0.31338 0.15574 0.25742 0.0
C905 C 0.34575 0.13951 0.24377 0.0
C906 C 0.32838 0.14237 0.36104 0.0
C907 C 0.28539 0.17052 0.23089 0.0
H908 H 0.19935 0.11944 0.35207 0.0
H909 H 0.23338 0.23079 0.36755 0.0
H910 H 0.25707 0.10098 0.2723 0.0
H911 H 0.27215 0.08493 0.31617 0.0
H912 H 0.22437 0.08229 0.30442 0.0
H913 H 0.27756 0.25865 0.32729 0.0
H914 H 0.31501 0.22807 0.33669 0.0
H915 H 0.29852 0.23244 0.29073 0.0
H916 H 0.38556 0.11434 0.32402 0.0
H917 H 0.34962 0.1366 0.21445 0.0
H918 H 0.30572 0.1234 0.36824 0.0
H919 H 0.32059 0.1701 0.37084 0.0
H920 H 0.35333 0.13353 0.376 0.0
H921 H 0.26029 0.15345 0.23194 0.0
H922 H 0.29577 0.17081 0.20222 0.0
H923 H 0.27737 0.19881 0.23875 0.0
C924 C 0.10336 0.10272 0.51883 0.0
C925 C 0.13651 0.09607 0.50068 0.0
C926 C 0.08539 0.07411 0.53766 0.0
C927 C 0.10144 0.03863 0.53862 0.0
C928 C 0.13218 0.03111 0.51621 0.0
C929 C 0.14939 0.05997 0.49765 0.0
C930 C 0.05137 0.08267 0.55949 0.0
C931 C 0.14971 0.99362 0.51548 0.0
C932 C 0.10474 0.99346 0.63203 0.0
C933 C 0.08034 0.96408 0.6283 0.0
C934 C 0.1114 0.01771 0.60307 0.0
C935 C 0.09282 0.01294 0.56932 0.0
C936 C 0.06853 0.98284 0.56508 0.0
C937 C 0.06265 0.95865 0.59467 0.0
C938 C 0.13854 0.04849 0.60878 0.0
C939 C 0.04748 0.97671 0.53014 0.0
H940 H 0.09316 0.13058 0.52094 0.0
H941 H 0.17478 0.05473 0.48305 0.0
H942 H 0.03183 0.05939 0.55841 0.0
H943 H 0.05887 0.08718 0.58862 0.0
H944 H 0.03757 0.10781 0.54922 0.0
H945 H 0.16965 0.99079 0.49259 0.0
H946 H 0.16439 0.98893 0.54169 0.0
H947 H 0.12861 0.97192 0.51276 0.0
H948 H 0.11864 -0.00235 0.65795 0.0
H949 H 0.04326 0.93633 0.59188 0.0
H950 H 0.1247 0.07536 0.60537 0.0
H951 H 0.16068 0.04682 0.58794 0.0
H952 H 0.15124 0.04778 0.63643 0.0
H953 H 0.02157 0.99253 0.53173 0.0
H954 H 0.04031 0.94731 0.52664 0.0
H955 H 0.06288 0.98604 0.50562 0.0
C956 C 0.1321 0.86926 0.80829 0.0
C957 C 0.12686 0.8756 0.77091 0.0
C958 C 0.16463 0.8536 0.82116 0.0
C959 C 0.19289 0.84461 0.79595 0.0
C960 C 0.1864 0.84796 0.75783 0.0
C961 C 0.15345 0.8639 0.7457 0.0
C962 C 0.16982 0.84949 0.86206 0.0
C963 C 0.21519 0.83715 0.73013 0.0
C964 C 0.28064 0.86377 0.84559 0.0
C965 C 0.28751 0.8296 0.86142 0.0
C966 C 0.25254 0.86811 0.81982 0.0
C967 C 0.23035 0.83759 0.8105 0.0
C968 C 0.2402 0.80222 0.8231 0.0
C969 C 0.26898 0.79861 0.8484 0.0
C970 C 0.24353 0.90628 0.80658 0.0
C971 C 0.21821 0.76883 0.81264 0.0
H972 H 0.11155 0.87862 0.82769 0.0
H973 H 0.14988 0.86987 0.71683 0.0
H974 H 0.17977 0.82152 0.86864 0.0
H975 H 0.19077 0.8693 0.87169 0.0
H976 H 0.14408 0.85452 0.87758 0.0
H977 H 0.20481 0.83863 0.70156 0.0
H978 H 0.23925 0.85553 0.73267 0.0
H979 H 0.22476 0.8088 0.73556 0.0
H980 H 0.29478 0.88774 0.85607 0.0
H981 H 0.27437 0.77217 0.86088 0.0
H982 H 0.21924 0.91669 0.82171 0.0
H983 H 0.23671 0.90606 0.77696 0.0
H984 H 0.26658 0.92561 0.81113 0.0
H985 H 0.18852 0.77362 0.81708 0.0
H986 H 0.22643 0.74418 0.82848 0.0
H987 H 0.22229 0.76316 0.78303 0.0
C988 C 0.40799 0.04312 0.09691 0.0
C989 C 0.43273 0.03395 0.12466 0.0
C990 C 0.3978 0.0169 0.07048 0.0
C991 C 0.41297 0.98108 0.07196 0.0
C992 C 0.4413 0.97347 0.09715 0.0
C993 C 0.45055 -0.00013 0.12349 0.0
C994 C 0.36839 0.02642 0.04314 0.0
C995 C 0.45934 0.93626 0.09857 0.0
C996 C 0.34526 0.90445 0.0552 0.0
C997 C 0.35383 0.89326 0.01951 0.0
C998 C 0.3649 0.9324 0.07252 0.0
C999 C 0.39384 0.95006 0.05355 0.0
C1000 C 0.40341 0.93822 0.0177 0.0
C1001 C 0.38324 0.90974 0.00108 0.0
C1002 C 0.35385 0.94373 0.11089 0.0
C1003 C 0.43452 0.95561 0.99664 0.0
H1004 H 0.39457 0.06965 0.09751 0.0
H1005 H 0.47044 0.99312 0.14447 0.0
H1006 H 0.37586 0.01607 0.01547 0.0
H1007 H 0.34238 0.01296 0.05134 0.0
H1008 H 0.36365 0.05647 0.04155 0.0
H1009 H 0.48466 0.93658 0.1154 0.0
H1010 H 0.44005 0.91609 0.11068 0.0
H1011 H 0.46631 0.92668 0.07051 0.0
H1012 H 0.32235 0.89183 0.06934 0.0
H1013 H 0.38918 0.90195 0.97308 0.0
H1014 H 0.34521 0.97291 0.11101 0.0
H1015 H 0.37752 0.94114 0.12973 0.0
H1016 H 0.331 0.92688 0.12189 0.0
H1017 H 0.43064 0.9527 0.96658 0.0
H1018 H 0.46046 0.9416 0.004 0.0
H1019 H 0.43759 0.98515 0.00326 0.0
C1020 C 0.86263 0.37317 0.69177 0.0
C1021 C 0.86751 0.37579 0.72965 0.0
C1022 C 0.83104 0.35719 0.67705 0.0
C1023 C 0.80324 0.34409 0.70093 0.0
C1024 C 0.80928 0.34422 0.7393 0.0
C1025 C 0.84141 0.36036 0.75328 0.0
C1026 C 0.82625 0.35701 0.63589 0.0
C1027 C 0.78069 0.33004 0.76563 0.0
C1028 C 0.71428 0.35957 0.65155 0.0
C1029 C 0.71029 0.32606 0.63341 0.0
C1030 C 0.74195 0.36446 0.67776 0.0
C1031 C 0.76659 0.3353 0.6852 0.0
C1032 C 0.75977 0.3002 0.67007 0.0
C1033 C 0.7315 0.29597 0.64431 0.0
C1034 C 0.74768 0.40221 0.69374 0.0
C1035 C 0.78483 0.26828 0.67787 0.0
H1036 H 0.88268 0.38557 0.67363 0.0
H1037 H 0.84464 0.36347 0.78265 0.0
H1038 H 0.8177 0.32944 0.62631 0.0
H1039 H 0.80441 0.37669 0.62816 0.0
H1040 H 0.85179 0.3648 0.62123 0.0
H1041 H 0.79144 0.32763 0.79401 0.0
H1042 H 0.75692 0.34899 0.76598 0.0
H1043 H 0.77053 0.30282 0.75669 0.0
H1044 H 0.69815 0.3829 0.64268 0.0
H1045 H 0.72846 0.2701 0.62994 0.0
H1046 H 0.77082 0.41575 0.67934 0.0
H1047 H 0.75479 0.40049 0.72325 0.0
H1048 H 0.72297 0.41972 0.69068 0.0
H1049 H 0.81275 0.27424 0.66738 0.0
H1050 H 0.77507 0.24246 0.66502 0.0
H1051 H 0.78704 0.26412 0.70788 0.0
C1052 C 0.88564 0.45452 0.89744 0.0
C1053 C 0.92051 0.45012 0.88231 0.0
C1054 C 0.87882 0.48225 0.9233 0.0
C1055 C 0.90741 0.50664 0.93327 0.0
C1056 C 0.94349 0.4998 0.92058 0.0
C1057 C 0.94961 0.47134 0.89538 0.0
C1058 C 0.84011 0.48793 0.93676 0.0
C1059 C 0.97538 0.52409 0.93039 0.0
C1060 C 0.86812 0.60186 0.94235 0.0
C1061 C 0.86189 0.60412 0.98009 0.0
C1062 C 0.88624 0.57159 0.92713 0.0
C1063 C 0.89759 0.54253 0.95026 0.0
C1064 C 0.89471 0.54653 0.98881 0.0
C1065 C 0.87656 0.57737 0.00337 0.0
C1066 C 0.89046 0.56935 0.88597 0.0
C1067 C 0.90784 0.51702 0.01455 0.0
H1068 H 0.86314 0.43827 0.88688 0.0
H1069 H 0.9766 0.46797 0.88332 0.0
H1070 H 0.83982 0.49299 0.96676 0.0
H1071 H 0.82821 0.51241 0.92317 0.0
H1072 H 0.82237 0.46394 0.93071 0.0
H1073 H -0.00339 0.50743 0.9444 0.0
H1074 H 0.98804 0.53512 0.90496 0.0
H1075 H 0.96768 0.54736 0.94832 0.0
H1076 H 0.85652 0.62259 0.92448 0.0
H1077 H 0.87137 0.57907 0.03263 0.0
H1078 H 0.87228 0.54757 0.87504 0.0
H1079 H 0.91905 0.56195 0.87868 0.0
H1080 H 0.88343 0.59563 0.87228 0.0
H1081 H 0.88574 0.4965 0.01833 0.0
H1082 H 0.91471 0.52858 0.04189 0.0
H1083 H 0.93221 0.5026 0.00339 0.0
C1084 C 0.76853 0.63376 0.14153 0.0
C1085 C 0.77603 0.66785 0.1258 0.0
C1086 C 0.74082 0.62997 0.16798 0.0
C1087 C 0.71947 0.66092 0.1781 0.0
C1088 C 0.72926 0.69601 0.16461 0.0
C1089 C 0.75768 0.69907 0.13865 0.0
C1090 C 0.73187 0.59208 0.18204 0.0
C1091 C 0.70803 0.72981 0.17546 0.0
C1092 C 0.62196 0.62905 0.18967 0.0
C1093 C 0.61994 0.62345 0.22751 0.0
C1094 C 0.653 0.64497 0.17363 0.0
C1095 C 0.68317 0.65474 0.19601 0.0
C1096 C 0.67976 0.65243 0.23467 0.0
C1097 C 0.64806 0.63658 0.25006 0.0
C1098 C 0.65475 0.64814 0.13236 0.0
C1099 C 0.71072 0.66363 0.25955 0.0
H1100 H 0.78251 0.60962 0.13116 0.0
H1101 H 0.76347 0.72543 0.12616 0.0
H1102 H 0.72707 0.59266 0.21209 0.0
H1103 H 0.70637 0.58218 0.16882 0.0
H1104 H 0.7541 0.57213 0.17601 0.0
H1105 H 0.71689 0.75445 0.15991 0.0
H1106 H 0.67827 0.72566 0.17099 0.0
H1107 H 0.71209 0.73511 0.20509 0.0
H1108 H 0.60017 0.61873 0.17232 0.0
H1109 H 0.6467 0.63169 0.27935 0.0
H1110 H 0.67402 0.62731 0.12132 0.0
H1111 H 0.6651 0.67555 0.12421 0.0
H1112 H 0.62757 0.64382 0.11943 0.0
H1113 H 0.73283 0.64279 0.25804 0.0
H1114 H 0.70163 0.66607 0.28856 0.0
H1115 H 0.72253 0.6902 0.2507 0.0
C1116 C 0.61634 0.4118 0.49837 0.0
C1117 C 0.64353 0.39364 0.47813 0.0
C1118 C 0.59641 0.44101 0.48279 0.0
C1119 C 0.60395 0.4518 0.44618 0.0
C1120 C 0.63051 0.43239 0.42542 0.0
C1121 C 0.65007 0.40381 0.44178 0.0
C1122 C 0.56789 0.46046 0.5057 0.0
C1123 C 0.6392 0.44249 0.38614 0.0
C1124 C 0.54572 0.50351 0.3793 0.0
C1125 C 0.56584 0.53605 0.37579 0.0
C1126 C 0.55482 0.47735 0.40587 0.0
C1127 C 0.58529 0.48366 0.42883 0.0
C1128 C 0.60288 0.51837 0.42821 0.0
C1129 C 0.59288 0.54437 0.40154 0.0
C1130 C 0.53446 0.44136 0.4065 0.0
C1131 C 0.63477 0.52652 0.45309 0.0
H1132 H 0.61212 0.40471 0.52687 0.0
H1133 H 0.67134 0.38986 0.42631 0.0
H1134 H 0.56808 0.49046 0.50061 0.0
H1135 H 0.54036 0.45002 0.49828 0.0
H1136 H 0.57203 0.45558 0.53547 0.0
H1137 H 0.66001 0.42403 0.37367 0.0
H1138 H 0.61401 0.44123 0.36924 0.0
H1139 H 0.64965 0.47102 0.38488 0.0
H1140 H 0.5243 0.49749 0.35964 0.0
H1141 H 0.60818 0.5697 0.39892 0.0
H1142 H 0.52942 0.43237 0.43512 0.0
H1143 H 0.55132 0.41995 0.39288 0.0
H1144 H 0.50782 0.44323 0.39198 0.0
H1145 H 0.62906 0.51675 0.48135 0.0
H1146 H 0.64107 0.55631 0.45402 0.0
H1147 H 0.65938 0.51176 0.44294 0.0
C1148 C 0.3092 0.36714 0.1263 0.0
C1149 C 0.27164 0.37125 0.12056 0.0
C1150 C 0.32326 0.33547 0.14279 0.0
C1151 C 0.29908 0.30687 0.15319 0.0
C1152 C 0.26079 0.31246 0.15074 0.0
C1153 C 0.24743 0.34463 0.13406 0.0
C1154 C 0.36429 0.33133 0.14605 0.0
C1155 C 0.23419 0.28336 0.16312 0.0
C1156 C 0.34949 0.21898 0.13423 0.0
C1157 C 0.36598 0.21266 0.16814 0.0
C1158 C 0.32355 0.24706 0.13004 0.0
C1159 C 0.31472 0.26979 0.16042 0.0
C1160 C 0.32832 0.2607 0.1956 0.0
C1161 C 0.35381 0.232 0.19907 0.0
C1162 C 0.30928 0.25524 0.09209 0.0
C1163 C 0.31833 0.28309 0.22896 0.0
H1164 H 0.32783 0.3877 0.11559 0.0
H1165 H 0.21839 0.34735 0.12875 0.0
H1166 H 0.37171 0.32204 0.17404 0.0
H1167 H 0.37405 0.31022 0.12638 0.0
H1168 H 0.37894 0.35738 0.14024 0.0
H1169 H 0.20538 0.29316 0.16235 0.0
H1170 H 0.23671 0.25889 0.14519 0.0
H1171 H 0.24071 0.27458 0.19148 0.0
H1172 H 0.35935 0.20426 0.1103 0.0
H1173 H 0.36681 0.227 0.22532 0.0
H1174 H 0.32354 0.27974 0.081 0.0
H1175 H 0.27957 0.26147 0.09298 0.0
H1176 H 0.31391 0.23199 0.07292 0.0
H1177 H 0.32115 0.31287 0.22342 0.0
H1178 H 0.33549 0.27605 0.25306 0.0
H1179 H 0.28929 0.27779 0.23604 0.0
C1180 C 0.84252 0.27938 0.852 0.0
C1181 C 0.86121 0.28214 0.81868 0.0
C1182 C 0.81568 0.25233 0.85716 0.0
C1183 C 0.808 0.22733 0.82834 0.0
C1184 C 0.8235 0.23327 0.79323 0.0
C1185 C 0.85016 0.26069 0.78882 0.0
C1186 C 0.79954 0.24738 0.89497 0.0
C1187 C 0.81508 0.20804 0.76157 0.0
C1188 C 0.80272 0.1315 0.86688 0.0
C1189 C 0.76502 0.12636 0.87049 0.0
C1190 C 0.81688 0.16317 0.85055 0.0
C1191 C 0.79258 0.19071 0.83784 0.0
C1192 C 0.7543 0.18441 0.8389 0.0
C1193 C 0.74087 0.1522 0.85554 0.0
C1194 C 0.85795 0.16824 0.84947 0.0
C1195 C 0.72766 0.21259 0.82462 0.0
H1196 H 0.85143 0.29585 0.8751 0.0
H1197 H 0.86483 0.263 0.76302 0.0
H1198 H 0.77004 0.24046 0.89338 0.0
H1199 H 0.81368 0.22435 0.90894 0.0
H1200 H 0.8028 0.27242 0.91205 0.0
H1201 H 0.8287 0.21688 0.73578 0.0
H1202 H 0.82415 0.17972 0.76802 0.0
H1203 H 0.78511 0.20714 0.75708 0.0
H1204 H 0.82126 0.11147 0.87863 0.0
H1205 H 0.71166 0.14863 0.85921 0.0
H1206 H 0.86588 0.19101 0.86803 0.0
H1207 H 0.86702 0.17564 0.82138 0.0
H1208 H 0.8729 0.14314 0.85806 0.0
H1209 H 0.72967 0.23809 0.8411 0.0
H1210 H 0.69892 0.20267 0.82558 0.0
H1211 H 0.73458 0.21986 0.7959 0.0
C1212 C 0.06711 0.49054 0.1212 0.0
C1213 C 0.10101 0.50807 0.12469 0.0
C1214 C 0.03735 0.50854 0.10485 0.0
C1215 C 0.04154 0.54524 0.09309 0.0
C1216 C 0.07686 0.56139 0.09287 0.0
C1217 C 0.10632 0.5425 0.10879 0.0
C1218 C 0.00065 0.48967 0.10352 0.0
C1219 C 0.08276 0.6 0.07924 0.0
C1220 C 0.96537 0.6008 0.04825 0.0
C1221 C 0.95274 0.62131 0.07824 0.0
C1222 C 0.99371 0.57497 0.05253 0.0
C1223 C 0.00869 0.56888 0.08781 0.0
C1224 C 0.99406 0.5879 0.11848 0.0
C1225 C 0.96662 0.61424 0.1132 0.0
C1226 C 0.00836 0.55561 0.019 0.0
C1227 C 0.00905 0.58223 0.15664 0.0
H1228 H 0.06312 0.46387 0.13373 0.0
H1229 H 0.13256 0.55607 0.11186 0.0
H1230 H 0.98309 0.50017 0.12609 0.0
H1231 H 0.98657 0.49562 0.07724 0.0
H1232 H 0.00339 0.45948 0.10664 0.0
H1233 H 0.11231 0.60668 0.07634 0.0
H1234 H 0.06919 0.60393 0.05233 0.0
H1235 H 0.07026 0.61966 0.09888 0.0
H1236 H 0.95502 0.60685 0.02106 0.0
H1237 H 0.95718 0.63064 0.13618 0.0
H1238 H 0.03764 0.54801 0.02168 0.0
H1239 H 0.00533 0.57305 0.99425 0.0
H1240 H 0.99252 0.53006 0.01471 0.0
H1241 H 0.00857 0.55268 0.16384 0.0
H1242 H 0.99327 0.59761 0.17773 0.0
H1243 H 0.03799 0.59144 0.15764 0.0
C1244 C 0.74689 0.84261 0.35936 0.0
C1245 C 0.72259 0.86921 0.37283 0.0
C1246 C 0.73369 0.81055 0.34236 0.0
C1247 C 0.69541 0.80499 0.33963 0.0
C1248 C 0.67114 0.83359 0.35004 0.0
C1249 C 0.68508 0.8652 0.36677 0.0
C1250 C 0.76051 0.78138 0.33048 0.0
C1251 C 0.63011 0.82939 0.34686 0.0
C1252 C 0.64059 0.73001 0.29415 0.0
C1253 C 0.62837 0.71096 0.3252 0.0
C1254 C 0.66628 0.75854 0.29744 0.0
C1255 C 0.67987 0.76783 0.33258 0.0
C1256 C 0.67104 0.74531 0.36307 0.0
C1257 C 0.64502 0.71733 0.35904 0.0
C1258 C 0.67597 0.78104 0.26413 0.0
C1259 C 0.68532 0.75369 0.40098 0.0
H1260 H 0.77588 0.8452 0.365 0.0
H1261 H 0.66638 0.88573 0.37749 0.0
H1262 H 0.76054 0.7588 0.35086 0.0
H1263 H 0.75246 0.76951 0.30368 0.0
H1264 H 0.7888 0.79234 0.32819 0.0
H1265 H 0.61545 0.85556 0.35225 0.0
H1266 H 0.6226 0.81957 0.31908 0.0
H1267 H 0.62041 0.80868 0.36694 0.0
H1268 H 0.62741 0.72505 0.26799 0.0
H1269 H 0.63516 0.70279 0.38305 0.0
H1270 H 0.70606 0.78088 0.26013 0.0
H1271 H 0.6675 0.80999 0.2682 0.0
H1272 H 0.66274 0.77048 0.23884 0.0
H1273 H 0.71503 0.75986 0.40009 0.0
H1274 H 0.68068 0.73055 0.42025 0.0
H1275 H 0.67107 0.77827 0.41197 0.0
C1276 C 0.54264 0.4022 0.59258 0.0
C1277 C 0.5363 0.37769 0.56379 0.0
C1278 C 0.51586 0.42827 0.60233 0.0
C1279 C 0.48232 0.42956 0.58276 0.0
C1280 C 0.47825 0.40819 0.5507 0.0
C1281 C 0.50512 0.38213 0.54185 0.0
C1282 C 0.52186 0.45186 0.63575 0.0
C1283 C 0.44387 0.41014 0.52795 0.0
C1284 C 0.3996 0.43953 0.64468 0.0
C1285 C 0.38999 0.47633 0.64008 0.0
C1286 C 0.42864 0.42395 0.62501 0.0
C1287 C 0.44924 0.44595 0.60044 0.0
C1288 C 0.43872 0.48295 0.59448 0.0
C1289 C 0.40893 0.4977 0.61434 0.0
C1290 C 0.43819 0.38419 0.63182 0.0
C1291 C 0.45897 0.50733 0.56785 0.0
H1292 H 0.56692 0.39898 0.60933 0.0
H1293 H 0.50063 0.36355 0.51905 0.0
H1294 H 0.51269 0.48039 0.63043 0.0
H1295 H 0.50532 0.44101 0.6589 0.0
H1296 H 0.55108 0.45227 0.64415 0.0
H1297 H 0.4474 0.39653 0.50089 0.0
H1298 H 0.42116 0.3964 0.54282 0.0
H1299 H 0.43577 0.43912 0.52346 0.0
H1300 H 0.38504 0.42315 0.6648 0.0
H1301 H 0.40207 0.52644 0.61141 0.0
H1302 H 0.46597 0.38222 0.64392 0.0
H1303 H 0.43855 0.36882 0.60554 0.0
H1304 H 0.41851 0.3706 0.65069 0.0
H1305 H 0.45798 0.53644 0.5768 0.0
H1306 H 0.4455 0.50561 0.54064 0.0
H1307 H 0.48804 0.49914 0.56443 0.0
C1308 C 0.19095 0.63541 0.6282 0.0
C1309 C 0.2285 0.62859 0.62542 0.0
C1310 C 0.17769 0.66752 0.6446 0.0
C1311 C 0.20271 0.69389 0.6583 0.0
C1312 C 0.24074 0.68597 0.65793 0.0
C1313 C 0.25328 0.65332 0.64123 0.0
C1314 C 0.13684 0.67433 0.64468 0.0
C1315 C 0.26818 0.71293 0.67301 0.0
C1316 C 0.15606 0.78479 0.64542 0.0
C1317 C 0.13695 0.78768 0.67854 0.0
C1318 C 0.18203 0.75685 0.64004 0.0
C1319 C 0.18843 0.73098 0.66837 0.0
C1320 C 0.17269 0.73693 0.70342 0.0
C1321 C 0.14695 0.76528 0.70807 0.0
C1322 C 0.19851 0.75205 0.60235 0.0
C1323 C 0.17938 0.71061 0.73456 0.0
H1324 H 0.17188 0.61635 0.61572 0.0
H1325 H 0.2824 0.64855 0.63819 0.0
H1326 H 0.12735 0.682 0.67256 0.0
H1327 H 0.13034 0.69749 0.62606 0.0
H1328 H 0.12111 0.64993 0.63553 0.0
H1329 H 0.26098 0.72033 0.70164 0.0
H1330 H 0.29652 0.70184 0.67254 0.0
H1331 H 0.26752 0.73858 0.65669 0.0
H1332 H 0.14797 0.80189 0.62249 0.0
H1333 H 0.13189 0.76745 0.73366 0.0
H1334 H 0.18358 0.73004 0.58759 0.0
H1335 H 0.22766 0.74372 0.60418 0.0
H1336 H 0.19663 0.7776 0.58589 0.0
H1337 H 0.16536 0.68424 0.72887 0.0
H1338 H 0.16905 0.72148 0.76111 0.0
H1339 H 0.20903 0.70475 0.73707 0.0
C1340 C 0.45174 0.90269 0.90472 0.0
C1341 C 0.46081 0.87619 0.93087 0.0
C1342 C 0.47742 0.92957 0.89451 0.0
C1343 C 0.51257 0.92969 0.91101 0.0
C1344 C 0.51966 0.90612 0.94089 0.0
C1345 C 0.49384 0.87928 0.95016 0.0
C1346 C 0.46835 0.95541 0.86358 0.0
C1347 C 0.55599 0.90672 0.96048 0.0
C1348 C 0.59044 0.94321 0.84395 0.0
C1349 C 0.60099 0.97942 0.85059 0.0
C1350 C 0.56238 0.92676 0.86417 0.0
C1351 C 0.54388 0.94724 0.89159 0.0
C1352 C 0.55507 0.98371 0.89924 0.0
C1353 C 0.58378 -0.00061 0.87862 0.0
C1354 C 0.55184 0.88765 0.85529 0.0
C1355 C 0.5368 0.00645 0.92867 0.0
H1356 H 0.42595 0.9006 0.89019 0.0
H1357 H 0.5004 0.85926 0.97114 0.0
H1358 H 0.47801 0.98354 0.87003 0.0
H1359 H 0.48264 0.94625 0.83827 0.0
H1360 H 0.43847 0.95629 0.85801 0.0
H1361 H 0.55496 0.89131 0.98673 0.0
H1362 H 0.57727 0.89411 0.94269 0.0
H1363 H 0.56448 0.93538 0.96619 0.0
H1364 H 0.6037 0.92793 0.82209 0.0
H1365 H 0.59122 0.02776 0.88305 0.0
H1366 H 0.52299 0.88666 0.84587 0.0
H1367 H 0.55394 0.87036 0.88022 0.0
H1368 H 0.56946 0.87545 0.8336 0.0
H1369 H 0.53751 0.03606 0.9216 0.0
H1370 H 0.55193 0.00282 0.95478 0.0
H1371 H 0.50792 -0.00171 0.93339 0.0
C1372 C 0.89068 0.02408 0.39446 0.0
C1373 C 0.8976 -0.00177 0.36698 0.0
C1374 C 0.91984 0.04316 0.41091 0.0
C1375 C 0.95631 0.0359 0.39939 0.0
C1376 C 0.96326 0.00581 0.37589 0.0
C1377 C 0.93372 0.98759 0.3596 0.0
C1378 C 0.91124 0.0743 0.43676 0.0
C1379 C 0.00161 0.99623 0.36376 0.0
C1380 C 0.01207 0.12129 0.38016 0.0
C1381 C 0.03605 0.12245 0.41001 0.0
C1382 C 0.98673 0.09281 0.37623 0.0
C1383 C 0.9848 0.06491 0.40324 0.0
C1384 C 0.00969 0.06535 0.433 0.0
C1385 C 0.03545 0.09396 0.43576 0.0
C1386 C 0.9612 0.09336 0.34365 0.0
C1387 C 0.00851 0.03638 0.4624 0.0
H1388 H 0.86268 0.03227 0.40012 0.0
H1389 H 0.93893 0.9673 0.33844 0.0
H1390 H 0.93188 0.07603 0.45896 0.0
H1391 H 0.91194 0.10054 0.42136 0.0
H1392 H 0.8836 0.07127 0.44921 0.0
H1393 H 0.00306 0.96808 0.35215 0.0
H1394 H 0.01055 0.01585 0.34227 0.0
H1395 H 0.0211 -0.00168 0.38693 0.0
H1396 H 0.01249 0.14341 0.36029 0.0
H1397 H 0.05364 0.09516 0.45913 0.0
H1398 H 0.93241 0.09554 0.35321 0.0
H1399 H 0.96378 0.06744 0.3279 0.0
H1400 H 0.96687 0.11661 0.32482 0.0
H1401 H 0.02549 0.04402 0.48642 0.0
H1402 H 0.01893 0.0101 0.45116 0.0
H1403 H 0.97999 0.03172 0.4718 0.0
loop_
_geom_bond_atom_site_label_1
_geom_bond_atom_site_label_2
_geom_bond_distance
_geom_bond_site_symmetry_2
_ccdc_geom_bond_type
O0 Mn1 2.163 . S
O0 C14 1.244 . S
Mn1 O0 2.163 . S
Mn1 O4 2.160 . S
Mn1 O5 2.221 . S
Mn1 O7 2.163 . S
Mn1 O9 2.160 . S
Mn1 O19 2.221 . S
O2 Mn3 2.087 . S
O2 C14 1.256 . S
Mn3 O2 2.087 . S
Mn3 O10 2.089 . S
Mn3 O19 2.290 . S
Mn3 O20 2.251 . S
O4 Mn1 2.160 . S
O4 C15 1.239 . S
O5 Mn1 2.221 . S
O5 Mn6 2.290 . S
O5 C16 1.278 . S
Mn6 O5 2.290 . S
Mn6 O8 2.089 . S
Mn6 O11 2.251 . S
Mn6 O12 2.087 . S
O7 Mn1 2.163 . S
O7 C17 1.244 . S
O8 Mn6 2.089 . S
O8 C15 1.256 . S
O9 Mn1 2.160 . S
O9 C18 1.239 . S
O10 Mn3 2.089 . S
O10 C18 1.256 . S
O11 Mn6 2.251 . S
O11 C16 1.241 . S
O12 Mn6 2.087 . S
O12 C17 1.256 . S
C13 O19 1.278 . S
C13 O20 1.241 . S
C14 O0 1.244 . S
C14 O2 1.256 . S
C15 O4 1.239 . S
C15 O8 1.256 . S
C16 O5 1.278 . S
C16 O11 1.241 . S
C17 O7 1.244 . S
C17 O12 1.256 . S
C18 O9 1.239 . S
C18 O10 1.256 . S
O19 Mn1 2.221 . S
O19 Mn3 2.290 . S
O19 C13 1.278 . S
O20 Mn3 2.251 . S
O20 C13 1.241 . S
O21 Mn22 2.163 . S
O21 C35 1.244 . S
Mn22 O21 2.163 . S
Mn22 O25 2.160 . S
Mn22 O26 2.221 . S
Mn22 O28 2.163 . S
Mn22 O30 2.160 . S
Mn22 O40 2.221 . S
O23 Mn24 2.087 . S
O23 C35 1.256 . S
Mn24 O23 2.087 . S
Mn24 O31 2.089 . S
Mn24 O40 2.290 . S
Mn24 O41 2.251 1_455 S
O25 Mn22 2.160 . S
O25 C36 1.239 . S
O26 Mn22 2.221 . S
O26 Mn27 2.290 . S
O26 C37 1.278 . S
Mn27 O26 2.290 . S
Mn27 O29 2.089 . S
Mn27 O32 2.251 . S
Mn27 O33 2.087 . S
O28 Mn22 2.163 . S
O28 C38 1.244 . S
O29 Mn27 2.089 . S
O29 C36 1.256 . S
O30 Mn22 2.160 . S
O30 C39 1.239 . S
O31 Mn24 2.089 . S
O31 C39 1.256 . S
O32 Mn27 2.251 . S
O32 C37 1.241 . S
O33 Mn27 2.087 . S
O33 C38 1.256 . S
C34 O40 1.278 1_655 S
C34 O41 1.241 . S
C35 O21 1.244 . S
C35 O23 1.256 . S
C36 O25 1.239 . S
C36 O29 1.256 . S
C37 O26 1.278 . S
C37 O32 1.241 . S
C38 O28 1.244 . S
C38 O33 1.256 . S
C39 O30 1.239 . S
C39 O31 1.256 . S
O40 Mn22 2.221 . S
O40 Mn24 2.290 . S
O40 C34 1.278 1_455 S
O41 Mn24 2.251 1_655 S
O41 C34 1.241 . S
O42 Mn43 2.163 . S
O42 C56 1.244 . S
Mn43 O42 2.163 . S
Mn43 O46 2.160 . S
Mn43 O47 2.221 . S
Mn43 O49 2.163 . S
Mn43 O51 2.160 . S
Mn43 O61 2.221 . S
O44 Mn45 2.087 . S
O44 C56 1.256 . S
Mn45 O44 2.087 . S
Mn45 O52 2.089 . S
Mn45 O61 2.290 . S
Mn45 O62 2.251 1_556 S
O46 Mn43 2.160 . S
O46 C57 1.239 . S
O47 Mn43 2.221 . S
O47 Mn48 2.290 . S
O47 C58 1.278 . S
Mn48 O47 2.290 . S
Mn48 O50 2.089 . S
Mn48 O53 2.251 . S
Mn48 O54 2.087 . S
O49 Mn43 2.163 . S
O49 C59 1.244 . S
O50 Mn48 2.089 . S
O50 C57 1.256 . S
O51 Mn43 2.160 . S
O51 C60 1.239 . S
O52 Mn45 2.089 . S
O52 C60 1.256 . S
O53 Mn48 2.251 . S
O53 C58 1.241 . S
O54 Mn48 2.087 . S
O54 C59 1.256 . S
C55 O61 1.278 1_554 S
C55 O62 1.241 . S
C56 O42 1.244 . S
C56 O44 1.256 . S
C57 O46 1.239 . S
C57 O50 1.256 . S
C58 O47 1.278 . S
C58 O53 1.241 . S
C59 O49 1.244 . S
C59 O54 1.256 . S
C60 O51 1.239 . S
C60 O52 1.256 . S
O61 Mn43 2.221 . S
O61 Mn45 2.290 . S
O61 C55 1.278 1_556 S
O62 Mn45 2.251 1_554 S
O62 C55 1.241 . S
O63 Mn64 2.163 . S
O63 C77 1.244 . S
Mn64 O63 2.163 . S
Mn64 O67 2.160 . S
Mn64 O68 2.221 . S
Mn64 O70 2.163 . S
Mn64 O72 2.160 . S
Mn64 O82 2.221 . S
O65 Mn66 2.087 . S
O65 C77 1.256 . S
Mn66 O65 2.087 . S
Mn66 O73 2.089 . S
Mn66 O82 2.290 . S
Mn66 O83 2.251 . S
O67 Mn64 2.160 . S
O67 C78 1.239 . S
O68 Mn64 2.221 . S
O68 Mn69 2.290 . S
O68 C79 1.278 . S
Mn69 O68 2.290 . S
Mn69 O71 2.089 . S
Mn69 O74 2.251 . S
Mn69 O75 2.087 . S
O70 Mn64 2.163 . S
O70 C80 1.244 . S
O71 Mn69 2.089 . S
O71 C78 1.256 . S
O72 Mn64 2.160 . S
O72 C81 1.239 . S
O73 Mn66 2.089 . S
O73 C81 1.256 . S
O74 Mn69 2.251 . S
O74 C79 1.241 . S
O75 Mn69 2.087 . S
O75 C80 1.256 . S
C76 O82 1.278 . S
C76 O83 1.241 . S
C77 O63 1.244 . S
C77 O65 1.256 . S
C78 O67 1.239 . S
C78 O71 1.256 . S
C79 O68 1.278 . S
C79 O74 1.241 . S
C80 O70 1.244 . S
C80 O75 1.256 . S
C81 O72 1.239 . S
C81 O73 1.256 . S
O82 Mn64 2.221 . S
O82 Mn66 2.290 . S
O82 C76 1.278 . S
O83 Mn66 2.251 . S
O83 C76 1.241 . S
O84 Mn85 2.163 . S
O84 C98 1.244 . S
Mn85 O84 2.163 . S
Mn85 O88 2.160 . S
Mn85 O89 2.221 . S
Mn85 O91 2.163 . S
Mn85 O93 2.160 . S
Mn85 O103 2.221 . S
O86 Mn87 2.087 . S
O86 C98 1.256 . S
Mn87 O86 2.087 . S
Mn87 O94 2.089 . S
Mn87 O103 2.290 . S
Mn87 O104 2.251 . S
O88 Mn85 2.160 . S
O88 C99 1.239 . S
O89 Mn85 2.221 . S
O89 Mn90 2.290 . S
O89 C100 1.278 . S
Mn90 O89 2.290 . S
Mn90 O92 2.089 . S
Mn90 O95 2.251 . S
Mn90 O96 2.087 . S
O91 Mn85 2.163 . S
O91 C101 1.244 . S
O92 Mn90 2.089 . S
O92 C99 1.256 . S
O93 Mn85 2.160 . S
O93 C102 1.239 . S
O94 Mn87 2.089 . S
O94 C102 1.256 . S
O95 Mn90 2.251 . S
O95 C100 1.241 . S
O96 Mn90 2.087 . S
O96 C101 1.256 . S
C97 O103 1.278 . S
C97 O104 1.241 . S
C98 O84 1.244 . S
C98 O86 1.256 . S
C99 O88 1.239 . S
C99 O92 1.256 . S
C100 O89 1.278 . S
C100 O95 1.241 . S
C101 O91 1.244 . S
C101 O96 1.256 . S
C102 O93 1.239 . S
C102 O94 1.256 . S
O103 Mn85 2.221 . S
O103 Mn87 2.290 . S
O103 C97 1.278 . S
O104 Mn87 2.251 . S
O104 C97 1.241 . S
O105 Mn106 2.163 . S
O105 C119 1.244 . S
Mn106 O105 2.163 . S
Mn106 O109 2.160 . S
Mn106 O110 2.221 . S
Mn106 O112 2.163 . S
Mn106 O114 2.160 . S
Mn106 O124 2.221 . S
O107 Mn108 2.087 . S
O107 C119 1.256 . S
Mn108 O107 2.087 . S
Mn108 O115 2.089 . S
Mn108 O124 2.290 . S
Mn108 O125 2.251 . S
O109 Mn106 2.160 . S
O109 C120 1.239 . S
O110 Mn106 2.221 . S
O110 Mn111 2.290 . S
O110 C121 1.278 1_655 S
Mn111 O110 2.290 . S
Mn111 O113 2.089 . S
Mn111 O116 2.251 1_655 S
Mn111 O117 2.087 . S
O112 Mn106 2.163 . S
O112 C122 1.244 . S
O113 Mn111 2.089 . S
O113 C120 1.256 . S
O114 Mn106 2.160 . S
O114 C123 1.239 . S
O115 Mn108 2.089 . S
O115 C123 1.256 . S
O116 Mn111 2.251 1_455 S
O116 C121 1.241 . S
O117 Mn111 2.087 . S
O117 C122 1.256 . S
C118 O124 1.278 . S
C118 O125 1.241 . S
C119 O105 1.244 . S
C119 O107 1.256 . S
C120 O109 1.239 . S
C120 O113 1.256 . S
C121 O110 1.278 1_455 S
C121 O116 1.241 . S
C122 O112 1.244 . S
C122 O117 1.256 . S
C123 O114 1.239 . S
C123 O115 1.256 . S
O124 Mn106 2.221 . S
O124 Mn108 2.290 . S
O124 C118 1.278 . S
O125 Mn108 2.251 . S
O125 C118 1.241 . S
O126 Mn127 2.163 . S
O126 C140 1.244 . S
Mn127 O126 2.163 . S
Mn127 O130 2.160 . S
Mn127 O131 2.221 . S
Mn127 O133 2.163 . S
Mn127 O135 2.160 . S
Mn127 O145 2.221 . S
O128 Mn129 2.087 . S
O128 C140 1.256 . S
Mn129 O128 2.087 . S
Mn129 O136 2.089 . S
Mn129 O145 2.290 . S
Mn129 O146 2.251 . S
O130 Mn127 2.160 . S
O130 C141 1.239 . S
O131 Mn127 2.221 . S
O131 Mn132 2.290 . S
O131 C142 1.278 1_554 S
Mn132 O131 2.290 . S
Mn132 O134 2.089 . S
Mn132 O137 2.251 1_554 S
Mn132 O138 2.087 . S
O133 Mn127 2.163 . S
O133 C143 1.244 . S
O134 Mn132 2.089 . S
O134 C141 1.256 . S
O135 Mn127 2.160 . S
O135 C144 1.239 . S
O136 Mn129 2.089 . S
O136 C144 1.256 . S
O137 Mn132 2.251 1_556 S
O137 C142 1.241 . S
O138 Mn132 2.087 . S
O138 C143 1.256 . S
C139 O145 1.278 . S
C139 O146 1.241 . S
C140 O126 1.244 . S
C140 O128 1.256 . S
C141 O130 1.239 . S
C141 O134 1.256 . S
C142 O131 1.278 1_556 S
C142 O137 1.241 . S
C143 O133 1.244 . S
C143 O138 1.256 . S
C144 O135 1.239 . S
C144 O136 1.256 . S
O145 Mn127 2.221 . S
O145 Mn129 2.290 . S
O145 C139 1.278 . S
O146 Mn129 2.251 . S
O146 C139 1.241 . S
O147 Mn148 2.163 . S
O147 C161 1.244 . S
Mn148 O147 2.163 . S
Mn148 O151 2.160 . S
Mn148 O152 2.221 . S
Mn148 O154 2.163 . S
Mn148 O156 2.160 . S
Mn148 O166 2.221 . S
O149 Mn150 2.087 . S
O149 C161 1.256 . S
Mn150 O149 2.087 . S
Mn150 O157 2.089 . S
Mn150 O166 2.290 . S
Mn150 O167 2.251 . S
O151 Mn148 2.160 . S
O151 C162 1.239 . S
O152 Mn148 2.221 . S
O152 Mn153 2.290 . S
O152 C163 1.278 . S
Mn153 O152 2.290 . S
Mn153 O155 2.089 . S
Mn153 O158 2.251 . S
Mn153 O159 2.087 . S
O154 Mn148 2.163 . S
O154 C164 1.244 . S
O155 Mn153 2.089 . S
O155 C162 1.256 . S
O156 Mn148 2.160 . S
O156 C165 1.239 . S
O157 Mn150 2.089 . S
O157 C165 1.256 . S
O158 Mn153 2.251 . S
O158 C163 1.241 . S
O159 Mn153 2.087 . S
O159 C164 1.256 . S
C160 O166 1.278 . S
C160 O167 1.241 . S
C161 O147 1.244 . S
C161 O149 1.256 . S
C162 O151 1.239 . S
C162 O155 1.256 . S
C163 O152 1.278 . S
C163 O158 1.241 . S
C164 O154 1.244 . S
C164 O159 1.256 . S
C165 O156 1.239 . S
C165 O157 1.256 . S
O166 Mn148 2.221 . S
O166 Mn150 2.290 . S
O166 C160 1.278 . S
O167 Mn150 2.251 . S
O167 C160 1.241 . S
O168 Mn169 2.163 . S
O168 C182 1.244 . S
Mn169 O168 2.163 . S
Mn169 O172 2.160 . S
Mn169 O173 2.221 . S
Mn169 O175 2.163 . S
Mn169 O177 2.160 . S
Mn169 O187 2.221 . S
O170 Mn171 2.087 . S
O170 C182 1.256 . S
Mn171 O170 2.087 . S
Mn171 O178 2.089 . S
Mn171 O187 2.290 . S
Mn171 O188 2.251 . S
O172 Mn169 2.160 . S
O172 C183 1.239 . S
O173 Mn169 2.221 . S
O173 Mn174 2.290 . S
O173 C184 1.278 . S
Mn174 O173 2.290 . S
Mn174 O176 2.089 . S
Mn174 O179 2.251 . S
Mn174 O180 2.087 . S
O175 Mn169 2.163 . S
O175 C185 1.244 . S
O176 Mn174 2.089 . S
O176 C183 1.256 . S
O177 Mn169 2.160 . S
O177 C186 1.239 . S
O178 Mn171 2.089 . S
O178 C186 1.256 . S
O179 Mn174 2.251 . S
O179 C184 1.241 . S
O180 Mn174 2.087 . S
O180 C185 1.256 . S
C181 O187 1.278 . S
C181 O188 1.241 . S
C182 O168 1.244 . S
C182 O170 1.256 . S
C183 O172 1.239 . S
C183 O176 1.256 . S
C184 O173 1.278 . S
C184 O179 1.241 . S
C185 O175 1.244 . S
C185 O180 1.256 . S
C186 O177 1.239 . S
C186 O178 1.256 . S
O187 Mn169 2.221 . S
O187 Mn171 2.290 . S
O187 C181 1.278 . S
O188 Mn171 2.251 . S
O188 C181 1.241 . S
O189 Mn190 2.163 . S
O189 C203 1.244 . S
Mn190 O189 2.163 . S
Mn190 O193 2.160 . S
Mn190 O194 2.221 . S
Mn190 O196 2.163 . S
Mn190 O198 2.160 . S
Mn190 O208 2.221 . S
O191 Mn192 2.087 . S
O191 C203 1.256 . S
Mn192 O191 2.087 . S
Mn192 O199 2.089 . S
Mn192 O208 2.290 . S
Mn192 O209 2.251 1_545 S
O193 Mn190 2.160 . S
O193 C204 1.239 . S
O194 Mn190 2.221 . S
O194 Mn195 2.290 . S
O194 C205 1.278 . S
Mn195 O194 2.290 . S
Mn195 O197 2.089 . S
Mn195 O200 2.251 . S
Mn195 O201 2.087 . S
O196 Mn190 2.163 . S
O196 C206 1.244 . S
O197 Mn195 2.089 . S
O197 C204 1.256 . S
O198 Mn190 2.160 . S
O198 C207 1.239 . S
O199 Mn192 2.089 . S
O199 C207 1.256 . S
O200 Mn195 2.251 . S
O200 C205 1.241 . S
O201 Mn195 2.087 . S
O201 C206 1.256 . S
C202 O208 1.278 1_565 S
C202 O209 1.241 . S
C203 O189 1.244 . S
C203 O191 1.256 . S
C204 O193 1.239 . S
C204 O197 1.256 . S
C205 O194 1.278 . S
C205 O200 1.241 . S
C206 O196 1.244 . S
C206 O201 1.256 . S
C207 O198 1.239 . S
C207 O199 1.256 . S
O208 Mn190 2.221 . S
O208 Mn192 2.290 . S
O208 C202 1.278 1_545 S
O209 Mn192 2.251 1_565 S
O209 C202 1.241 . S
O210 Mn211 2.163 . S
O210 C224 1.244 . S
Mn211 O210 2.163 . S
Mn211 O214 2.160 . S
Mn211 O215 2.221 . S
Mn211 O217 2.163 . S
Mn211 O219 2.160 . S
Mn211 O229 2.221 . S
O212 Mn213 2.087 . S
O212 C224 1.256 . S
Mn213 O212 2.087 . S
Mn213 O220 2.089 . S
Mn213 O229 2.290 . S
Mn213 O230 2.251 1_565 S
O214 Mn211 2.160 . S
O214 C225 1.239 . S
O215 Mn211 2.221 . S
O215 Mn216 2.290 . S
O215 C226 1.278 . S
Mn216 O215 2.290 . S
Mn216 O218 2.089 . S
Mn216 O221 2.251 . S
Mn216 O222 2.087 . S
O217 Mn211 2.163 . S
O217 C227 1.244 . S
O218 Mn216 2.089 . S
O218 C225 1.256 . S
O219 Mn211 2.160 . S
O219 C228 1.239 . S
O220 Mn213 2.089 . S
O220 C228 1.256 . S
O221 Mn216 2.251 . S
O221 C226 1.241 . S
O222 Mn216 2.087 . S
O222 C227 1.256 . S
C223 O229 1.278 1_545 S
C223 O230 1.241 . S
C224 O210 1.244 . S
C224 O212 1.256 . S
C225 O214 1.239 . S
C225 O218 1.256 . S
C226 O215 1.278 . S
C226 O221 1.241 . S
C227 O217 1.244 . S
C227 O222 1.256 . S
C228 O219 1.239 . S
C228 O220 1.256 . S
O229 Mn211 2.221 . S
O229 Mn213 2.290 . S
O229 C223 1.278 1_565 S
O230 Mn213 2.251 1_545 S
O230 C223 1.241 . S
O231 Mn232 2.163 . S
O231 C245 1.244 . S
Mn232 O231 2.163 . S
Mn232 O235 2.160 . S
Mn232 O236 2.221 . S
Mn232 O238 2.163 . S
Mn232 O240 2.160 . S
Mn232 O250 2.221 . S
O233 Mn234 2.087 . S
O233 C245 1.256 . S
Mn234 O233 2.087 . S
Mn234 O241 2.089 . S
Mn234 O250 2.290 . S
Mn234 O251 2.251 . S
O235 Mn232 2.160 . S
O235 C246 1.239 . S
O236 Mn232 2.221 . S
O236 Mn237 2.290 . S
O236 C247 1.278 . S
Mn237 O236 2.290 . S
Mn237 O239 2.089 . S
Mn237 O242 2.251 . S
Mn237 O243 2.087 . S
O238 Mn232 2.163 . S
O238 C248 1.244 . S
O239 Mn237 2.089 . S
O239 C246 1.256 . S
O240 Mn232 2.160 . S
O240 C249 1.239 . S
O241 Mn234 2.089 . S
O241 C249 1.256 . S
O242 Mn237 2.251 . S
O242 C247 1.241 . S
O243 Mn237 2.087 . S
O243 C248 1.256 . S
C244 O250 1.278 . S
C244 O251 1.241 . S
C245 O231 1.244 . S
C245 O233 1.256 . S
C246 O235 1.239 . S
C246 O239 1.256 . S
C247 O236 1.278 . S
C247 O242 1.241 . S
C248 O238 1.244 . S
C248 O243 1.256 . S
C249 O240 1.239 . S
C249 O241 1.256 . S
O250 Mn232 2.221 . S
O250 Mn234 2.290 . S
O250 C244 1.278 . S
O251 Mn234 2.251 . S
O251 C244 1.241 . S
C252 C253 1.391 . S
C252 C254 1.394 . S
C252 H268 0.931 . S
C253 C252 1.391 . S
C253 C257 1.376 . S
C254 C252 1.394 . S
C254 C255 1.369 . S
C254 C258 1.531 . S
C255 C254 1.369 . S
C255 C256 1.410 . S
C255 C263 1.503 . S
C256 C255 1.410 . S
C256 C257 1.392 . S
C256 C259 1.511 . S
C257 C253 1.376 . S
C257 C256 1.392 . S
C257 H269 0.929 . S
C258 C254 1.531 . S
C258 H270 0.960 . S
C258 H271 0.962 . S
C258 H272 0.960 . S
C259 C256 1.511 . S
C259 H273 0.961 . S
C259 H274 0.961 . S
C259 H275 0.961 . S
C260 C261 1.370 . S
C260 C262 1.363 . S
C260 H276 0.931 . S
C261 C260 1.370 . S
C261 C265 1.408 . S
C262 C260 1.363 . S
C262 C263 1.370 . S
C262 C266 1.524 . S
C263 C255 1.503 . S
C263 C262 1.370 . S
C263 C264 1.403 . S
C264 C263 1.403 . S
C264 C265 1.404 . S
C264 C267 1.539 . S
C265 C261 1.408 . S
C265 C264 1.404 . S
C265 H277 0.930 . S
C266 C262 1.524 . S
C266 H278 0.956 . S
C266 H279 0.961 . S
C266 H280 0.961 . S
C267 C264 1.539 . S
C267 H281 0.958 . S
C267 H282 0.961 . S
C267 H283 0.960 . S
H268 C252 0.931 . S
H269 C257 0.929 . S
H270 C258 0.960 . S
H271 C258 0.962 . S
H272 C258 0.960 . S
H273 C259 0.961 . S
H274 C259 0.961 . S
H275 C259 0.961 . S
H276 C260 0.931 . S
H277 C265 0.930 . S
H278 C266 0.956 . S
H279 C266 0.961 . S
H280 C266 0.961 . S
H281 C267 0.958 . S
H282 C267 0.961 . S
H283 C267 0.960 . S
C284 C285 1.391 1_565 S
C284 C286 1.394 . S
C284 H300 0.931 . S
C285 C284 1.391 1_545 S
C285 C289 1.376 . S
C286 C284 1.394 . S
C286 C287 1.369 . S
C286 C290 1.531 . S
C287 C286 1.369 . S
C287 C288 1.410 1_565 S
C287 C295 1.503 . S
C288 C287 1.410 1_545 S
C288 C289 1.392 . S
C288 C291 1.511 . S
C289 C285 1.376 . S
C289 C288 1.392 . S
C289 H301 0.929 . S
C290 C286 1.531 . S
C290 H302 0.960 . S
C290 H303 0.962 . S
C290 H304 0.960 . S
C291 C288 1.511 . S
C291 H305 0.961 . S
C291 H306 0.961 . S
C291 H307 0.961 . S
C292 C293 1.370 . S
C292 C294 1.363 . S
C292 H308 0.931 . S
C293 C292 1.370 . S
C293 C297 1.408 . S
C294 C292 1.363 . S
C294 C295 1.370 . S
C294 C298 1.524 . S
C295 C287 1.503 . S
C295 C294 1.370 . S
C295 C296 1.403 . S
C296 C295 1.403 . S
C296 C297 1.404 . S
C296 C299 1.539 . S
C297 C293 1.408 . S
C297 C296 1.404 . S
C297 H309 0.930 . S
C298 C294 1.524 . S
C298 H310 0.956 . S
C298 H311 0.961 . S
C298 H312 0.961 . S
C299 C296 1.539 . S
C299 H313 0.958 . S
C299 H314 0.961 . S
C299 H315 0.960 1_565 S
H300 C284 0.931 . S
H301 C289 0.929 . S
H302 C290 0.960 . S
H303 C290 0.962 . S
H304 C290 0.960 . S
H305 C291 0.961 . S
H306 C291 0.961 . S
H307 C291 0.961 . S
H308 C292 0.931 . S
H309 C297 0.930 . S
H310 C298 0.956 . S
H311 C298 0.961 . S
H312 C298 0.961 . S
H313 C299 0.958 . S
H314 C299 0.961 . S
H315 C299 0.960 1_545 S
C316 C317 1.391 1_554 S
C316 C318 1.394 . S
C316 H332 0.931 . S
C317 C316 1.391 1_556 S
C317 C321 1.376 . S
C318 C316 1.394 . S
C318 C319 1.369 . S
C318 C322 1.531 . S
C319 C318 1.369 . S
C319 C320 1.410 1_554 S
C319 C327 1.503 . S
C320 C319 1.410 1_556 S
C320 C321 1.392 . S
C320 C323 1.511 . S
C321 C317 1.376 . S
C321 C320 1.392 . S
C321 H333 0.929 . S
C322 C318 1.531 . S
C322 H334 0.960 . S
C322 H335 0.962 . S
C322 H336 0.960 . S
C323 C320 1.511 . S
C323 H337 0.961 . S
C323 H338 0.961 . S
C323 H339 0.961 . S
C324 C325 1.370 . S
C324 C326 1.363 . S
C324 H340 0.931 . S
C325 C324 1.370 . S
C325 C329 1.408 . S
C326 C324 1.363 . S
C326 C327 1.370 . S
C326 C330 1.524 . S
C327 C319 1.503 . S
C327 C326 1.370 . S
C327 C328 1.403 1_554 S
C328 C327 1.403 1_556 S
C328 C329 1.404 1_556 S
C328 C331 1.539 . S
C329 C325 1.408 . S
C329 C328 1.404 1_554 S
C329 H341 0.930 1_554 S
C330 C326 1.524 . S
C330 H342 0.956 . S
C330 H343 0.961 . S
C330 H344 0.961 . S
C331 C328 1.539 . S
C331 H345 0.958 . S
C331 H346 0.961 . S
C331 H347 0.960 . S
H332 C316 0.931 . S
H333 C321 0.929 . S
H334 C322 0.960 . S
H335 C322 0.962 . S
H336 C322 0.960 . S
H337 C323 0.961 . S
H338 C323 0.961 . S
H339 C323 0.961 . S
H340 C324 0.931 . S
H341 C329 0.930 1_556 S
H342 C330 0.956 . S
H343 C330 0.961 . S
H344 C330 0.961 . S
H345 C331 0.958 . S
H346 C331 0.961 . S
H347 C331 0.960 . S
C348 C349 1.391 . S
C348 C350 1.394 . S
C348 H364 0.931 . S
C349 C348 1.391 . S
C349 C353 1.376 . S
C350 C348 1.394 . S
C350 C351 1.369 . S
C350 C354 1.531 . S
C351 C350 1.369 . S
C351 C352 1.410 . S
C351 C359 1.503 . S
C352 C351 1.410 . S
C352 C353 1.392 . S
C352 C355 1.511 . S
C353 C349 1.376 . S
C353 C352 1.392 . S
C353 H365 0.929 . S
C354 C350 1.531 . S
C354 H366 0.960 . S
C354 H367 0.962 . S
C354 H368 0.960 . S
C355 C352 1.511 . S
C355 H369 0.961 . S
C355 H370 0.961 . S
C355 H371 0.961 . S
C356 C357 1.370 . S
C356 C358 1.363 . S
C356 H372 0.931 . S
C357 C356 1.370 . S
C357 C361 1.408 1_565 S
C358 C356 1.363 . S
C358 C359 1.370 1_565 S
C358 C362 1.524 . S
C359 C351 1.503 . S
C359 C358 1.370 1_545 S
C359 C360 1.403 . S
C360 C359 1.403 . S
C360 C361 1.404 . S
C360 C363 1.539 . S
C361 C357 1.408 1_545 S
C361 C360 1.404 . S
C361 H373 0.930 . S
C362 C358 1.524 . S
C362 H374 0.956 . S
C362 H375 0.961 . S
C362 H376 0.961 . S
C363 C360 1.539 . S
C363 H377 0.958 . S
C363 H378 0.961 . S
C363 H379 0.960 . S
H364 C348 0.931 . S
H365 C353 0.929 . S
H366 C354 0.960 . S
H367 C354 0.962 . S
H368 C354 0.960 . S
H369 C355 0.961 . S
H370 C355 0.961 . S
H371 C355 0.961 . S
H372 C356 0.931 . S
H373 C361 0.930 . S
H374 C362 0.956 . S
H375 C362 0.961 . S
H376 C362 0.961 . S
H377 C363 0.958 . S
H378 C363 0.961 . S
H379 C363 0.960 . S
C380 C381 1.391 . S
C380 C382 1.394 . S
C380 H396 0.931 . S
C381 C380 1.391 . S
C381 C385 1.376 . S
C382 C380 1.394 . S
C382 C383 1.369 . S
C382 C386 1.531 . S
C383 C382 1.369 . S
C383 C384 1.410 . S
C383 C391 1.503 . S
C384 C383 1.410 . S
C384 C385 1.392 . S
C384 C387 1.511 . S
C385 C381 1.376 . S
C385 C384 1.392 . S
C385 H397 0.929 . S
C386 C382 1.531 . S
C386 H398 0.960 . S
C386 H399 0.962 . S
C386 H400 0.960 . S
C387 C384 1.511 . S
C387 H401 0.961 . S
C387 H402 0.961 . S
C387 H403 0.961 . S
C388 C389 1.370 . S
C388 C390 1.363 . S
C388 H404 0.931 . S
C389 C388 1.370 . S
C389 C393 1.408 . S
C390 C388 1.363 . S
C390 C391 1.370 . S
C390 C394 1.524 . S
C391 C383 1.503 . S
C391 C390 1.370 . S
C391 C392 1.403 . S
C392 C391 1.403 . S
C392 C393 1.404 . S
C392 C395 1.539 . S
C393 C389 1.408 . S
C393 C392 1.404 . S
C393 H405 0.930 . S
C394 C390 1.524 . S
C394 H406 0.956 . S
C394 H407 0.961 . S
C394 H408 0.961 . S
C395 C392 1.539 . S
C395 H409 0.958 . S
C395 H410 0.961 . S
C395 H411 0.960 . S
H396 C380 0.931 . S
H397 C385 0.929 . S
H398 C386 0.960 . S
H399 C386 0.962 . S
H400 C386 0.960 . S
H401 C387 0.961 . S
H402 C387 0.961 . S
H403 C387 0.961 . S
H404 C388 0.931 . S
H405 C393 0.930 . S
H406 C394 0.956 . S
H407 C394 0.961 . S
H408 C394 0.961 . S
H409 C395 0.958 . S
H410 C395 0.961 . S
H411 C395 0.960 . S
C412 C413 1.391 . S
C412 C414 1.394 . S
C412 H428 0.931 . S
C413 C412 1.391 . S
C413 C417 1.376 . S
C414 C412 1.394 . S
C414 C415 1.369 . S
C414 C418 1.531 . S
C415 C414 1.369 . S
C415 C416 1.410 . S
C415 C423 1.503 . S
C416 C415 1.410 . S
C416 C417 1.392 . S
C416 C419 1.511 . S
C417 C413 1.376 . S
C417 C416 1.392 . S
C417 H429 0.929 . S
C418 C414 1.531 . S
C418 H430 0.960 . S
C418 H431 0.962 . S
C418 H432 0.960 . S
C419 C416 1.511 . S
C419 H433 0.961 . S
C419 H434 0.961 . S
C419 H435 0.961 . S
C420 C421 1.370 . S
C420 C422 1.363 . S
C420 H436 0.931 . S
C421 C420 1.370 . S
C421 C425 1.408 . S
C422 C420 1.363 . S
C422 C423 1.370 . S
C422 C426 1.524 . S
C423 C415 1.503 . S
C423 C422 1.370 . S
C423 C424 1.403 . S
C424 C423 1.403 . S
C424 C425 1.404 . S
C424 C427 1.539 . S
C425 C421 1.408 . S
C425 C424 1.404 . S
C425 H437 0.930 . S
C426 C422 1.524 . S
C426 H438 0.956 . S
C426 H439 0.961 . S
C426 H440 0.961 . S
C427 C424 1.539 . S
C427 H441 0.958 . S
C427 H442 0.961 . S
C427 H443 0.960 . S
H428 C412 0.931 . S
H429 C417 0.929 . S
H430 C418 0.960 . S
H431 C418 0.962 . S
H432 C418 0.960 . S
H433 C419 0.961 . S
H434 C419 0.961 . S
H435 C419 0.961 . S
H436 C420 0.931 . S
H437 C425 0.930 . S
H438 C426 0.956 . S
H439 C426 0.961 . S
H440 C426 0.961 . S
H441 C427 0.958 . S
H442 C427 0.961 . S
H443 C427 0.960 . S
C444 C445 1.391 . S
C444 C446 1.394 . S
C444 H460 0.931 . S
C445 C444 1.391 . S
C445 C449 1.376 . S
C446 C444 1.394 . S
C446 C447 1.369 . S
C446 C450 1.531 1_556 S
C447 C446 1.369 . S
C447 C448 1.410 . S
C447 C455 1.503 . S
C448 C447 1.410 . S
C448 C449 1.392 . S
C448 C451 1.511 . S
C449 C445 1.376 . S
C449 C448 1.392 . S
C449 H461 0.929 . S
C450 C446 1.531 1_554 S
C450 H462 0.960 . S
C450 H463 0.962 . S
C450 H464 0.960 . S
C451 C448 1.511 . S
C451 H465 0.961 . S
C451 H466 0.961 . S
C451 H467 0.961 . S
C452 C453 1.370 1_556 S
C452 C454 1.363 . S
C452 H468 0.931 . S
C453 C452 1.370 1_554 S
C453 C457 1.408 . S
C454 C452 1.363 . S
C454 C455 1.370 . S
C454 C458 1.524 . S
C455 C447 1.503 . S
C455 C454 1.370 . S
C455 C456 1.403 1_556 S
C456 C455 1.403 1_554 S
C456 C457 1.404 . S
C456 C459 1.539 . S
C457 C453 1.408 . S
C457 C456 1.404 . S
C457 H469 0.930 . S
C458 C454 1.524 . S
C458 H470 0.956 . S
C458 H471 0.961 . S
C458 H472 0.961 . S
C459 C456 1.539 . S
C459 H473 0.958 . S
C459 H474 0.961 . S
C459 H475 0.960 . S
H460 C444 0.931 . S
H461 C449 0.929 . S
H462 C450 0.960 . S
H463 C450 0.962 . S
H464 C450 0.960 . S
H465 C451 0.961 . S
H466 C451 0.961 . S
H467 C451 0.961 . S
H468 C452 0.931 . S
H469 C457 0.930 . S
H470 C458 0.956 . S
H471 C458 0.961 . S
H472 C458 0.961 . S
H473 C459 0.958 . S
H474 C459 0.961 . S
H475 C459 0.960 . S
C476 C477 1.391 . S
C476 C478 1.394 . S
C476 H492 0.931 . S
C477 C476 1.391 . S
C477 C481 1.376 . S
C478 C476 1.394 . S
C478 C479 1.369 . S
C478 C482 1.531 . S
C479 C478 1.369 . S
C479 C480 1.410 . S
C479 C487 1.503 . S
C480 C479 1.410 . S
C480 C481 1.392 . S
C480 C483 1.511 . S
C481 C477 1.376 . S
C481 C480 1.392 . S
C481 H493 0.929 . S
C482 C478 1.531 . S
C482 H494 0.960 . S
C482 H495 0.962 . S
C482 H496 0.960 . S
C483 C480 1.511 . S
C483 H497 0.961 . S
C483 H498 0.961 . S
C483 H499 0.961 . S
C484 C485 1.370 . S
C484 C486 1.363 . S
C484 H500 0.931 . S
C485 C484 1.370 . S
C485 C489 1.408 . S
C486 C484 1.363 . S
C486 C487 1.370 . S
C486 C490 1.524 . S
C487 C479 1.503 . S
C487 C486 1.370 . S
C487 C488 1.403 . S
C488 C487 1.403 . S
C488 C489 1.404 . S
C488 C491 1.539 . S
C489 C485 1.408 . S
C489 C488 1.404 . S
C489 H501 0.930 . S
C490 C486 1.524 . S
C490 H502 0.956 . S
C490 H503 0.961 . S
C490 H504 0.961 . S
C491 C488 1.539 . S
C491 H505 0.958 . S
C491 H506 0.961 . S
C491 H507 0.960 . S
H492 C476 0.931 . S
H493 C481 0.929 . S
H494 C482 0.960 . S
H495 C482 0.962 . S
H496 C482 0.960 . S
H497 C483 0.961 . S
H498 C483 0.961 . S
H499 C483 0.961 . S
H500 C484 0.931 . S
H501 C489 0.930 . S
H502 C490 0.956 . S
H503 C490 0.961 . S
H504 C490 0.961 . S
H505 C491 0.958 . S
H506 C491 0.961 . S
H507 C491 0.960 . S
C508 C509 1.391 . S
C508 C510 1.394 . S
C508 H524 0.931 . S
C509 C508 1.391 . S
C509 C513 1.376 . S
C510 C508 1.394 . S
C510 C511 1.369 . S
C510 C514 1.531 . S
C511 C510 1.369 . S
C511 C512 1.410 . S
C511 C519 1.503 . S
C512 C511 1.410 . S
C512 C513 1.392 . S
C512 C515 1.511 . S
C513 C509 1.376 . S
C513 C512 1.392 . S
C513 H525 0.929 . S
C514 C510 1.531 . S
C514 H526 0.960 . S
C514 H527 0.962 . S
C514 H528 0.960 . S
C515 C512 1.511 . S
C515 H529 0.961 . S
C515 H530 0.961 . S
C515 H531 0.961 . S
C516 C517 1.370 . S
C516 C518 1.363 . S
C516 H532 0.931 . S
C517 C516 1.370 . S
C517 C521 1.408 . S
C518 C516 1.363 . S
C518 C519 1.370 . S
C518 C522 1.524 . S
C519 C511 1.503 . S
C519 C518 1.370 . S
C519 C520 1.403 . S
C520 C519 1.403 . S
C520 C521 1.404 . S
C520 C523 1.539 . S
C521 C517 1.408 . S
C521 C520 1.404 . S
C521 H533 0.930 . S
C522 C518 1.524 . S
C522 H534 0.956 . S
C522 H535 0.961 . S
C522 H536 0.961 . S
C523 C520 1.539 . S
C523 H537 0.958 . S
C523 H538 0.961 . S
C523 H539 0.960 . S
H524 C508 0.931 . S
H525 C513 0.929 . S
H526 C514 0.960 . S
H527 C514 0.962 . S
H528 C514 0.960 . S
H529 C515 0.961 . S
H530 C515 0.961 . S
H531 C515 0.961 . S
H532 C516 0.931 . S
H533 C521 0.930 . S
H534 C522 0.956 . S
H535 C522 0.961 . S
H536 C522 0.961 . S
H537 C523 0.958 . S
H538 C523 0.961 . S
H539 C523 0.960 . S
C540 C541 1.391 . S
C540 C542 1.394 . S
C540 H556 0.931 . S
C541 C540 1.391 . S
C541 C545 1.376 . S
C542 C540 1.394 . S
C542 C543 1.369 . S
C542 C546 1.531 . S
C543 C542 1.369 . S
C543 C544 1.410 1_455 S
C543 C551 1.503 . S
C544 C543 1.410 1_655 S
C544 C545 1.392 1_655 S
C544 C547 1.511 . S
C545 C541 1.376 . S
C545 C544 1.392 1_455 S
C545 H557 0.929 1_455 S
C546 C542 1.531 . S
C546 H558 0.960 . S
C546 H559 0.962 . S
C546 H560 0.960 . S
C547 C544 1.511 . S
C547 H561 0.961 . S
C547 H562 0.961 . S
C547 H563 0.961 . S
C548 C549 1.370 1_455 S
C548 C550 1.363 . S
C548 H564 0.931 . S
C549 C548 1.370 1_655 S
C549 C553 1.408 . S
C550 C548 1.363 . S
C550 C551 1.370 . S
C550 C554 1.524 . S
C551 C543 1.503 . S
C551 C550 1.370 . S
C551 C552 1.403 1_455 S
C552 C551 1.403 1_655 S
C552 C553 1.404 . S
C552 C555 1.539 . S
C553 C549 1.408 . S
C553 C552 1.404 . S
C553 H565 0.930 . S
C554 C550 1.524 . S
C554 H566 0.956 . S
C554 H567 0.961 . S
C554 H568 0.961 . S
C555 C552 1.539 . S
C555 H569 0.958 . S
C555 H570 0.961 . S
C555 H571 0.960 . S
H556 C540 0.931 . S
H557 C545 0.929 1_655 S
H558 C546 0.960 . S
H559 C546 0.962 . S
H560 C546 0.960 . S
H561 C547 0.961 . S
H562 C547 0.961 . S
H563 C547 0.961 . S
H564 C548 0.931 . S
H565 C553 0.930 . S
H566 C554 0.956 . S
H567 C554 0.961 . S
H568 C554 0.961 . S
H569 C555 0.958 . S
H570 C555 0.961 . S
H571 C555 0.960 . S
C572 C573 1.391 1_655 S
C572 C574 1.394 . S
C572 H588 0.931 . S
C573 C572 1.391 1_455 S
C573 C577 1.376 . S
C574 C572 1.394 . S
C574 C575 1.369 . S
C574 C578 1.531 . S
C575 C574 1.369 . S
C575 C576 1.410 1_655 S
C575 C583 1.503 . S
C576 C575 1.410 1_455 S
C576 C577 1.392 . S
C576 C579 1.511 . S
C577 C573 1.376 . S
C577 C576 1.392 . S
C577 H589 0.929 . S
C578 C574 1.531 . S
C578 H590 0.960 . S
C578 H591 0.962 . S
C578 H592 0.960 . S
C579 C576 1.511 . S
C579 H593 0.961 . S
C579 H594 0.961 . S
C579 H595 0.961 . S
C580 C581 1.370 . S
C580 C582 1.363 . S
C580 H596 0.931 . S
C581 C580 1.370 . S
C581 C585 1.408 . S
C582 C580 1.363 . S
C582 C583 1.370 . S
C582 C586 1.524 . S
C583 C575 1.503 . S
C583 C582 1.370 . S
C583 C584 1.403 . S
C584 C583 1.403 . S
C584 C585 1.404 . S
C584 C587 1.539 1_655 S
C585 C581 1.408 . S
C585 C584 1.404 . S
C585 H597 0.930 . S
C586 C582 1.524 . S
C586 H598 0.956 . S
C586 H599 0.961 . S
C586 H600 0.961 . S
C587 C584 1.539 1_455 S
C587 H601 0.958 . S
C587 H602 0.961 . S
C587 H603 0.960 . S
H588 C572 0.931 . S
H589 C577 0.929 . S
H590 C578 0.960 . S
H591 C578 0.962 . S
H592 C578 0.960 . S
H593 C579 0.961 . S
H594 C579 0.961 . S
H595 C579 0.961 . S
H596 C580 0.931 . S
H597 C585 0.930 . S
H598 C586 0.956 . S
H599 C586 0.961 . S
H600 C586 0.961 . S
H601 C587 0.958 . S
H602 C587 0.961 . S
H603 C587 0.960 . S
C604 C605 1.391 . S
C604 C606 1.394 . S
C604 H620 0.931 . S
C605 C604 1.391 . S
C605 C609 1.376 . S
C606 C604 1.394 . S
C606 C607 1.369 . S
C606 C610 1.531 . S
C607 C606 1.369 . S
C607 C608 1.410 . S
C607 C615 1.503 . S
C608 C607 1.410 . S
C608 C609 1.392 . S
C608 C611 1.511 . S
C609 C605 1.376 . S
C609 C608 1.392 . S
C609 H621 0.929 . S
C610 C606 1.531 . S
C610 H622 0.960 . S
C610 H623 0.962 . S
C610 H624 0.960 . S
C611 C608 1.511 . S
C611 H625 0.961 . S
C611 H626 0.961 . S
C611 H627 0.961 . S
C612 C613 1.370 . S
C612 C614 1.363 . S
C612 H628 0.931 . S
C613 C612 1.370 . S
C613 C617 1.408 . S
C614 C612 1.363 . S
C614 C615 1.370 . S
C614 C618 1.524 . S
C615 C607 1.503 . S
C615 C614 1.370 . S
C615 C616 1.403 . S
C616 C615 1.403 . S
C616 C617 1.404 . S
C616 C619 1.539 . S
C617 C613 1.408 . S
C617 C616 1.404 . S
C617 H629 0.930 . S
C618 C614 1.524 . S
C618 H630 0.956 . S
C618 H631 0.961 . S
C618 H632 0.961 . S
C619 C616 1.539 . S
C619 H633 0.958 . S
C619 H634 0.961 . S
C619 H635 0.960 . S
H620 C604 0.931 . S
H621 C609 0.929 . S
H622 C610 0.960 . S
H623 C610 0.962 . S
H624 C610 0.960 . S
H625 C611 0.961 . S
H626 C611 0.961 . S
H627 C611 0.961 . S
H628 C612 0.931 . S
H629 C617 0.930 . S
H630 C618 0.956 . S
H631 C618 0.961 . S
H632 C618 0.961 . S
H633 C619 0.958 . S
H634 C619 0.961 . S
H635 C619 0.960 . S
C636 C637 1.391 . S
C636 C638 1.394 . S
C636 H652 0.931 . S
C637 C636 1.391 . S
C637 C641 1.376 . S
C638 C636 1.394 . S
C638 C639 1.369 . S
C638 C642 1.531 . S
C639 C638 1.369 . S
C639 C640 1.410 . S
C639 C647 1.503 . S
C640 C639 1.410 . S
C640 C641 1.392 . S
C640 C643 1.511 . S
C641 C637 1.376 . S
C641 C640 1.392 . S
C641 H653 0.929 . S
C642 C638 1.531 . S
C642 H654 0.960 . S
C642 H655 0.962 . S
C642 H656 0.960 . S
C643 C640 1.511 . S
C643 H657 0.961 . S
C643 H658 0.961 . S
C643 H659 0.961 . S
C644 C645 1.370 . S
C644 C646 1.363 . S
C644 H660 0.931 . S
C645 C644 1.370 . S
C645 C649 1.408 . S
C646 C644 1.363 . S
C646 C647 1.370 . S
C646 C650 1.524 . S
C647 C639 1.503 . S
C647 C646 1.370 . S
C647 C648 1.403 . S
C648 C647 1.403 . S
C648 C649 1.404 . S
C648 C651 1.539 . S
C649 C645 1.408 . S
C649 C648 1.404 . S
C649 H661 0.930 . S
C650 C646 1.524 . S
C650 H662 0.956 . S
C650 H663 0.961 . S
C650 H664 0.961 . S
C651 C648 1.539 . S
C651 H665 0.958 . S
C651 H666 0.961 . S
C651 H667 0.960 . S
H652 C636 0.931 . S
H653 C641 0.929 . S
H654 C642 0.960 . S
H655 C642 0.962 . S
H656 C642 0.960 . S
H657 C643 0.961 . S
H658 C643 0.961 . S
H659 C643 0.961 . S
H660 C644 0.931 . S
H661 C649 0.930 . S
H662 C650 0.956 . S
H663 C650 0.961 . S
H664 C650 0.961 . S
H665 C651 0.958 . S
H666 C651 0.961 . S
H667 C651 0.960 . S
C668 C669 1.391 . S
C668 C670 1.394 . S
C668 H684 0.931 . S
C669 C668 1.391 . S
C669 C673 1.376 . S
C670 C668 1.394 . S
C670 C671 1.369 . S
C670 C674 1.531 . S
C671 C670 1.369 . S
C671 C672 1.410 . S
C671 C679 1.503 . S
C672 C671 1.410 . S
C672 C673 1.392 . S
C672 C675 1.511 . S
C673 C669 1.376 . S
C673 C672 1.392 . S
C673 H685 0.929 1_655 S
C674 C670 1.531 . S
C674 H686 0.960 . S
C674 H687 0.962 . S
C674 H688 0.960 . S
C675 C672 1.511 . S
C675 H689 0.961 . S
C675 H690 0.961 . S
C675 H691 0.961 . S
C676 C677 1.370 . S
C676 C678 1.363 . S
C676 H692 0.931 . S
C677 C676 1.370 . S
C677 C681 1.408 . S
C678 C676 1.363 . S
C678 C679 1.370 . S
C678 C682 1.524 . S
C679 C671 1.503 . S
C679 C678 1.370 . S
C679 C680 1.403 . S
C680 C679 1.403 . S
C680 C681 1.404 . S
C680 C683 1.539 . S
C681 C677 1.408 . S
C681 C680 1.404 . S
C681 H693 0.930 . S
C682 C678 1.524 . S
C682 H694 0.956 . S
C682 H695 0.961 . S
C682 H696 0.961 . S
C683 C680 1.539 . S
C683 H697 0.958 . S
C683 H698 0.961 . S
C683 H699 0.960 . S
H684 C668 0.931 . S
H685 C673 0.929 1_455 S
H686 C674 0.960 . S
H687 C674 0.962 . S
H688 C674 0.960 . S
H689 C675 0.961 . S
H690 C675 0.961 . S
H691 C675 0.961 . S
H692 C676 0.931 . S
H693 C681 0.930 . S
H694 C682 0.956 . S
H695 C682 0.961 . S
H696 C682 0.961 . S
H697 C683 0.958 . S
H698 C683 0.961 . S
H699 C683 0.960 . S
C700 C701 1.391 . S
C700 C702 1.394 . S
C700 H716 0.931 . S
C701 C700 1.391 . S
C701 C705 1.376 . S
C702 C700 1.394 . S
C702 C703 1.369 . S
C702 C706 1.531 . S
C703 C702 1.369 . S
C703 C704 1.410 . S
C703 C711 1.503 . S
C704 C703 1.410 . S
C704 C705 1.392 . S
C704 C707 1.511 . S
C705 C701 1.376 . S
C705 C704 1.392 . S
C705 H717 0.929 . S
C706 C702 1.531 . S
C706 H718 0.960 . S
C706 H719 0.962 . S
C706 H720 0.960 . S
C707 C704 1.511 . S
C707 H721 0.961 . S
C707 H722 0.961 . S
C707 H723 0.961 . S
C708 C709 1.370 . S
C708 C710 1.363 . S
C708 H724 0.931 . S
C709 C708 1.370 . S
C709 C713 1.408 . S
C710 C708 1.363 . S
C710 C711 1.370 . S
C710 C714 1.524 . S
C711 C703 1.503 . S
C711 C710 1.370 . S
C711 C712 1.403 . S
C712 C711 1.403 . S
C712 C713 1.404 . S
C712 C715 1.539 . S
C713 C709 1.408 . S
C713 C712 1.404 . S
C713 H725 0.930 . S
C714 C710 1.524 . S
C714 H726 0.956 . S
C714 H727 0.961 . S
C714 H728 0.961 . S
C715 C712 1.539 . S
C715 H729 0.958 . S
C715 H730 0.961 . S
C715 H731 0.960 . S
H716 C700 0.931 . S
H717 C705 0.929 . S
H718 C706 0.960 . S
H719 C706 0.962 . S
H720 C706 0.960 . S
H721 C707 0.961 . S
H722 C707 0.961 . S
H723 C707 0.961 . S
H724 C708 0.931 . S
H725 C713 0.930 . S
H726 C714 0.956 . S
H727 C714 0.961 . S
H728 C714 0.961 . S
H729 C715 0.958 . S
H730 C715 0.961 . S
H731 C715 0.960 . S
C732 C733 1.391 . S
C732 C734 1.394 . S
C732 H748 0.931 . S
C733 C732 1.391 . S
C733 C737 1.376 . S
C734 C732 1.394 . S
C734 C735 1.369 . S
C734 C738 1.531 . S
C735 C734 1.369 . S
C735 C736 1.410 . S
C735 C743 1.503 . S
C736 C735 1.410 . S
C736 C737 1.392 . S
C736 C739 1.511 . S
C737 C733 1.376 . S
C737 C736 1.392 . S
C737 H749 0.929 . S
C738 C734 1.531 . S
C738 H750 0.960 . S
C738 H751 0.962 . S
C738 H752 0.960 . S
C739 C736 1.511 . S
C739 H753 0.961 . S
C739 H754 0.961 . S
C739 H755 0.961 . S
C740 C741 1.370 . S
C740 C742 1.363 . S
C740 H756 0.931 . S
C741 C740 1.370 . S
C741 C745 1.408 . S
C742 C740 1.363 . S
C742 C743 1.370 1_556 S
C742 C746 1.524 . S
C743 C735 1.503 . S
C743 C742 1.370 1_554 S
C743 C744 1.403 . S
C744 C743 1.403 . S
C744 C745 1.404 1_554 S
C744 C747 1.539 . S
C745 C741 1.408 . S
C745 C744 1.404 1_556 S
C745 H757 0.930 . S
C746 C742 1.524 . S
C746 H758 0.956 . S
C746 H759 0.961 1_556 S
C746 H760 0.961 . S
C747 C744 1.539 . S
C747 H761 0.958 . S
C747 H762 0.961 . S
C747 H763 0.960 . S
H748 C732 0.931 . S
H749 C737 0.929 . S
H750 C738 0.960 . S
H751 C738 0.962 . S
H752 C738 0.960 . S
H753 C739 0.961 . S
H754 C739 0.961 . S
H755 C739 0.961 . S
H756 C740 0.931 . S
H757 C745 0.930 . S
H758 C746 0.956 . S
H759 C746 0.961 1_554 S
H760 C746 0.961 . S
H761 C747 0.958 . S
H762 C747 0.961 . S
H763 C747 0.960 . S
C764 C765 1.391 . S
C764 C766 1.394 . S
C764 H780 0.931 . S
C765 C764 1.391 . S
C765 C769 1.376 . S
C766 C764 1.394 . S
C766 C767 1.369 . S
C766 C770 1.531 . S
C767 C766 1.369 . S
C767 C768 1.410 . S
C767 C775 1.503 . S
C768 C767 1.410 . S
C768 C769 1.392 . S
C768 C771 1.511 . S
C769 C765 1.376 . S
C769 C768 1.392 . S
C769 H781 0.929 . S
C770 C766 1.531 . S
C770 H782 0.960 . S
C770 H783 0.962 . S
C770 H784 0.960 . S
C771 C768 1.511 . S
C771 H785 0.961 . S
C771 H786 0.961 . S
C771 H787 0.961 . S
C772 C773 1.370 . S
C772 C774 1.363 . S
C772 H788 0.931 . S
C773 C772 1.370 . S
C773 C777 1.408 . S
C774 C772 1.363 . S
C774 C775 1.370 . S
C774 C778 1.524 . S
C775 C767 1.503 . S
C775 C774 1.370 . S
C775 C776 1.403 . S
C776 C775 1.403 . S
C776 C777 1.404 . S
C776 C779 1.539 . S
C777 C773 1.408 . S
C777 C776 1.404 . S
C777 H789 0.930 . S
C778 C774 1.524 . S
C778 H790 0.956 . S
C778 H791 0.961 . S
C778 H792 0.961 . S
C779 C776 1.539 . S
C779 H793 0.958 . S
C779 H794 0.961 . S
C779 H795 0.960 . S
H780 C764 0.931 . S
H781 C769 0.929 . S
H782 C770 0.960 . S
H783 C770 0.962 . S
H784 C770 0.960 . S
H785 C771 0.961 . S
H786 C771 0.961 . S
H787 C771 0.961 . S
H788 C772 0.931 . S
H789 C777 0.930 . S
H790 C778 0.956 . S
H791 C778 0.961 . S
H792 C778 0.961 . S
H793 C779 0.958 . S
H794 C779 0.961 . S
H795 C779 0.960 . S
C796 C797 1.391 . S
C796 C798 1.394 1_554 S
C796 H812 0.931 . S
C797 C796 1.391 . S
C797 C801 1.376 . S
C798 C796 1.394 1_556 S
C798 C799 1.369 . S
C798 C802 1.531 . S
C799 C798 1.369 . S
C799 C800 1.410 . S
C799 C807 1.503 . S
C800 C799 1.410 . S
C800 C801 1.392 1_556 S
C800 C803 1.511 . S
C801 C797 1.376 . S
C801 C800 1.392 1_554 S
C801 H813 0.929 . S
C802 C798 1.531 . S
C802 H814 0.960 . S
C802 H815 0.962 1_556 S
C802 H816 0.960 1_556 S
C803 C800 1.511 . S
C803 H817 0.961 . S
C803 H818 0.961 . S
C803 H819 0.961 . S
C804 C805 1.370 . S
C804 C806 1.363 . S
C804 H820 0.931 . S
C805 C804 1.370 . S
C805 C809 1.408 . S
C806 C804 1.363 . S
C806 C807 1.370 . S
C806 C810 1.524 . S
C807 C799 1.503 . S
C807 C806 1.370 . S
C807 C808 1.403 . S
C808 C807 1.403 . S
C808 C809 1.404 . S
C808 C811 1.539 . S
C809 C805 1.408 . S
C809 C808 1.404 . S
C809 H821 0.930 . S
C810 C806 1.524 . S
C810 H822 0.956 1_556 S
C810 H823 0.961 . S
C810 H824 0.961 . S
C811 C808 1.539 . S
C811 H825 0.958 . S
C811 H826 0.961 . S
C811 H827 0.960 . S
H812 C796 0.931 . S
H813 C801 0.929 . S
H814 C802 0.960 . S
H815 C802 0.962 1_554 S
H816 C802 0.960 1_554 S
H817 C803 0.961 . S
H818 C803 0.961 . S
H819 C803 0.961 . S
H820 C804 0.931 . S
H821 C809 0.930 . S
H822 C810 0.956 1_554 S
H823 C810 0.961 . S
H824 C810 0.961 . S
H825 C811 0.958 . S
H826 C811 0.961 . S
H827 C811 0.960 . S
C828 C829 1.391 . S
C828 C830 1.394 . S
C828 H844 0.931 . S
C829 C828 1.391 . S
C829 C833 1.376 . S
C830 C828 1.394 . S
C830 C831 1.369 . S
C830 C834 1.531 . S
C831 C830 1.369 . S
C831 C832 1.410 . S
C831 C839 1.503 . S
C832 C831 1.410 . S
C832 C833 1.392 . S
C832 C835 1.511 . S
C833 C829 1.376 . S
C833 C832 1.392 . S
C833 H845 0.929 . S
C834 C830 1.531 . S
C834 H846 0.960 . S
C834 H847 0.962 . S
C834 H848 0.960 . S
C835 C832 1.511 . S
C835 H849 0.961 . S
C835 H850 0.961 . S
C835 H851 0.961 . S
C836 C837 1.370 . S
C836 C838 1.363 . S
C836 H852 0.931 . S
C837 C836 1.370 . S
C837 C841 1.408 . S
C838 C836 1.363 . S
C838 C839 1.370 . S
C838 C842 1.524 . S
C839 C831 1.503 . S
C839 C838 1.370 . S
C839 C840 1.403 . S
C840 C839 1.403 . S
C840 C841 1.404 . S
C840 C843 1.539 . S
C841 C837 1.408 . S
C841 C840 1.404 . S
C841 H853 0.930 . S
C842 C838 1.524 . S
C842 H854 0.956 . S
C842 H855 0.961 . S
C842 H856 0.961 . S
C843 C840 1.539 . S
C843 H857 0.958 . S
C843 H858 0.961 . S
C843 H859 0.960 . S
H844 C828 0.931 . S
H845 C833 0.929 . S
H846 C834 0.960 . S
H847 C834 0.962 . S
H848 C834 0.960 . S
H849 C835 0.961 . S
H850 C835 0.961 . S
H851 C835 0.961 . S
H852 C836 0.931 . S
H853 C841 0.930 . S
H854 C842 0.956 . S
H855 C842 0.961 . S
H856 C842 0.961 . S
H857 C843 0.958 . S
H858 C843 0.961 . S
H859 C843 0.960 . S
C860 C861 1.391 . S
C860 C862 1.394 . S
C860 H876 0.931 . S
C861 C860 1.391 . S
C861 C865 1.376 . S
C862 C860 1.394 . S
C862 C863 1.369 . S
C862 C866 1.531 . S
C863 C862 1.369 . S
C863 C864 1.410 . S
C863 C871 1.503 . S
C864 C863 1.410 . S
C864 C865 1.392 . S
C864 C867 1.511 . S
C865 C861 1.376 . S
C865 C864 1.392 . S
C865 H877 0.929 . S
C866 C862 1.531 . S
C866 H878 0.960 . S
C866 H879 0.962 . S
C866 H880 0.960 . S
C867 C864 1.511 . S
C867 H881 0.961 . S
C867 H882 0.961 . S
C867 H883 0.961 . S
C868 C869 1.370 . S
C868 C870 1.363 . S
C868 H884 0.931 . S
C869 C868 1.370 . S
C869 C873 1.408 . S
C870 C868 1.363 . S
C870 C871 1.370 . S
C870 C874 1.524 . S
C871 C863 1.503 . S
C871 C870 1.370 . S
C871 C872 1.403 . S
C872 C871 1.403 . S
C872 C873 1.404 . S
C872 C875 1.539 . S
C873 C869 1.408 . S
C873 C872 1.404 . S
C873 H885 0.930 . S
C874 C870 1.524 . S
C874 H886 0.956 . S
C874 H887 0.961 . S
C874 H888 0.961 . S
C875 C872 1.539 . S
C875 H889 0.958 . S
C875 H890 0.961 . S
C875 H891 0.960 . S
H876 C860 0.931 . S
H877 C865 0.929 . S
H878 C866 0.960 . S
H879 C866 0.962 . S
H880 C866 0.960 . S
H881 C867 0.961 . S
H882 C867 0.961 . S
H883 C867 0.961 . S
H884 C868 0.931 . S
H885 C873 0.930 . S
H886 C874 0.956 . S
H887 C874 0.961 . S
H888 C874 0.961 . S
H889 C875 0.958 . S
H890 C875 0.961 . S
H891 C875 0.960 . S
C892 C893 1.391 . S
C892 C894 1.394 . S
C892 H908 0.931 . S
C893 C892 1.391 . S
C893 C897 1.376 . S
C894 C892 1.394 . S
C894 C895 1.369 . S
C894 C898 1.531 . S
C895 C894 1.369 . S
C895 C896 1.410 . S
C895 C903 1.503 . S
C896 C895 1.410 . S
C896 C897 1.392 . S
C896 C899 1.511 . S
C897 C893 1.376 . S
C897 C896 1.392 . S
C897 H909 0.929 . S
C898 C894 1.531 . S
C898 H910 0.960 . S
C898 H911 0.962 . S
C898 H912 0.960 . S
C899 C896 1.511 . S
C899 H913 0.961 . S
C899 H914 0.961 . S
C899 H915 0.961 . S
C900 C901 1.370 . S
C900 C902 1.363 . S
C900 H916 0.931 . S
C901 C900 1.370 . S
C901 C905 1.408 . S
C902 C900 1.363 . S
C902 C903 1.370 . S
C902 C906 1.524 . S
C903 C895 1.503 . S
C903 C902 1.370 . S
C903 C904 1.403 . S
C904 C903 1.403 . S
C904 C905 1.404 . S
C904 C907 1.539 . S
C905 C901 1.408 . S
C905 C904 1.404 . S
C905 H917 0.930 . S
C906 C902 1.524 . S
C906 H918 0.956 . S
C906 H919 0.961 . S
C906 H920 0.961 . S
C907 C904 1.539 . S
C907 H921 0.958 . S
C907 H922 0.961 . S
C907 H923 0.960 . S
H908 C892 0.931 . S
H909 C897 0.929 . S
H910 C898 0.960 . S
H911 C898 0.962 . S
H912 C898 0.960 . S
H913 C899 0.961 . S
H914 C899 0.961 . S
H915 C899 0.961 . S
H916 C900 0.931 . S
H917 C905 0.930 . S
H918 C906 0.956 . S
H919 C906 0.961 . S
H920 C906 0.961 . S
H921 C907 0.958 . S
H922 C907 0.961 . S
H923 C907 0.960 . S
C924 C925 1.391 . S
C924 C926 1.394 . S
C924 H940 0.931 . S
C925 C924 1.391 . S
C925 C929 1.376 . S
C926 C924 1.394 . S
C926 C927 1.369 . S
C926 C930 1.531 . S
C927 C926 1.369 . S
C927 C928 1.410 . S
C927 C935 1.503 . S
C928 C927 1.410 . S
C928 C929 1.392 . S
C928 C931 1.511 . S
C929 C925 1.376 . S
C929 C928 1.392 . S
C929 H941 0.929 . S
C930 C926 1.531 . S
C930 H942 0.960 . S
C930 H943 0.962 . S
C930 H944 0.960 . S
C931 C928 1.511 . S
C931 H945 0.961 . S
C931 H946 0.961 . S
C931 H947 0.961 . S
C932 C933 1.370 . S
C932 C934 1.363 1_565 S
C932 H948 0.931 1_565 S
C933 C932 1.370 . S
C933 C937 1.408 . S
C934 C932 1.363 1_545 S
C934 C935 1.370 . S
C934 C938 1.524 . S
C935 C927 1.503 . S
C935 C934 1.370 . S
C935 C936 1.403 1_545 S
C936 C935 1.403 1_565 S
C936 C937 1.404 . S
C936 C939 1.539 . S
C937 C933 1.408 . S
C937 C936 1.404 . S
C937 H949 0.930 . S
C938 C934 1.524 . S
C938 H950 0.956 . S
C938 H951 0.961 . S
C938 H952 0.961 . S
C939 C936 1.539 . S
C939 H953 0.958 . S
C939 H954 0.961 . S
C939 H955 0.960 . S
H940 C924 0.931 . S
H941 C929 0.929 . S
H942 C930 0.960 . S
H943 C930 0.962 . S
H944 C930 0.960 . S
H945 C931 0.961 . S
H946 C931 0.961 . S
H947 C931 0.961 . S
H948 C932 0.931 1_545 S
H949 C937 0.930 . S
H950 C938 0.956 . S
H951 C938 0.961 . S
H952 C938 0.961 . S
H953 C939 0.958 . S
H954 C939 0.961 . S
H955 C939 0.960 . S
C956 C957 1.391 . S
C956 C958 1.394 . S
C956 H972 0.931 . S
C957 C956 1.391 . S
C957 C961 1.376 . S
C958 C956 1.394 . S
C958 C959 1.369 . S
C958 C962 1.531 . S
C959 C958 1.369 . S
C959 C960 1.410 . S
C959 C967 1.503 . S
C960 C959 1.410 . S
C960 C961 1.392 . S
C960 C963 1.511 . S
C961 C957 1.376 . S
C961 C960 1.392 . S
C961 H973 0.929 . S
C962 C958 1.531 . S
C962 H974 0.960 . S
C962 H975 0.962 . S
C962 H976 0.960 . S
C963 C960 1.511 . S
C963 H977 0.961 . S
C963 H978 0.961 . S
C963 H979 0.961 . S
C964 C965 1.370 . S
C964 C966 1.363 . S
C964 H980 0.931 . S
C965 C964 1.370 . S
C965 C969 1.408 . S
C966 C964 1.363 . S
C966 C967 1.370 . S
C966 C970 1.524 . S
C967 C959 1.503 . S
C967 C966 1.370 . S
C967 C968 1.403 . S
C968 C967 1.403 . S
C968 C969 1.404 . S
C968 C971 1.539 . S
C969 C965 1.408 . S
C969 C968 1.404 . S
C969 H981 0.930 . S
C970 C966 1.524 . S
C970 H982 0.956 . S
C970 H983 0.961 . S
C970 H984 0.961 . S
C971 C968 1.539 . S
C971 H985 0.958 . S
C971 H986 0.961 . S
C971 H987 0.960 . S
H972 C956 0.931 . S
H973 C961 0.929 . S
H974 C962 0.960 . S
H975 C962 0.962 . S
H976 C962 0.960 . S
H977 C963 0.961 . S
H978 C963 0.961 . S
H979 C963 0.961 . S
H980 C964 0.931 . S
H981 C969 0.930 . S
H982 C970 0.956 . S
H983 C970 0.961 . S
H984 C970 0.961 . S
H985 C971 0.958 . S
H986 C971 0.961 . S
H987 C971 0.960 . S
C988 C989 1.391 . S
C988 C990 1.394 . S
C988 H1004 0.931 . S
C989 C988 1.391 . S
C989 C993 1.376 . S
C990 C988 1.394 . S
C990 C991 1.369 1_545 S
C990 C994 1.531 . S
C991 C990 1.369 1_565 S
C991 C992 1.410 . S
C991 C999 1.503 . S
C992 C991 1.410 . S
C992 C993 1.392 1_565 S
C992 C995 1.511 . S
C993 C989 1.376 . S
C993 C992 1.392 1_545 S
C993 H1005 0.929 . S
C994 C990 1.531 . S
C994 H1006 0.960 . S
C994 H1007 0.962 . S
C994 H1008 0.960 . S
C995 C992 1.511 . S
C995 H1009 0.961 . S
C995 H1010 0.961 . S
C995 H1011 0.961 . S
C996 C997 1.370 . S
C996 C998 1.363 . S
C996 H1012 0.931 . S
C997 C996 1.370 . S
C997 C1001 1.408 . S
C998 C996 1.363 . S
C998 C999 1.370 . S
C998 C1002 1.524 . S
C999 C991 1.503 . S
C999 C998 1.370 . S
C999 C1000 1.403 . S
C1000 C999 1.403 . S
C1000 C1001 1.404 . S
C1000 C1003 1.539 . S
C1001 C997 1.408 . S
C1001 C1000 1.404 . S
C1001 H1013 0.930 1_554 S
C1002 C998 1.524 . S
C1002 H1014 0.956 . S
C1002 H1015 0.961 . S
C1002 H1016 0.961 . S
C1003 C1000 1.539 . S
C1003 H1017 0.958 . S
C1003 H1018 0.961 . S
C1003 H1019 0.960 . S
H1004 C988 0.931 . S
H1005 C993 0.929 . S
H1006 C994 0.960 . S
H1007 C994 0.962 . S
H1008 C994 0.960 . S
H1009 C995 0.961 . S
H1010 C995 0.961 . S
H1011 C995 0.961 . S
H1012 C996 0.931 . S
H1013 C1001 0.930 1_556 S
H1014 C1002 0.956 . S
H1015 C1002 0.961 . S
H1016 C1002 0.961 . S
H1017 C1003 0.958 . S
H1018 C1003 0.961 . S
H1019 C1003 0.960 . S
C1020 C1021 1.391 . S
C1020 C1022 1.394 . S
C1020 H1036 0.931 . S
C1021 C1020 1.391 . S
C1021 C1025 1.376 . S
C1022 C1020 1.394 . S
C1022 C1023 1.369 . S
C1022 C1026 1.531 . S
C1023 C1022 1.369 . S
C1023 C1024 1.410 . S
C1023 C1031 1.503 . S
C1024 C1023 1.410 . S
C1024 C1025 1.392 . S
C1024 C1027 1.511 . S
C1025 C1021 1.376 . S
C1025 C1024 1.392 . S
C1025 H1037 0.929 . S
C1026 C1022 1.531 . S
C1026 H1038 0.960 . S
C1026 H1039 0.962 . S
C1026 H1040 0.960 . S
C1027 C1024 1.511 . S
C1027 H1041 0.961 . S
C1027 H1042 0.961 . S
C1027 H1043 0.961 . S
C1028 C1029 1.370 . S
C1028 C1030 1.363 . S
C1028 H1044 0.931 . S
C1029 C1028 1.370 . S
C1029 C1033 1.408 . S
C1030 C1028 1.363 . S
C1030 C1031 1.370 . S
C1030 C1034 1.524 . S
C1031 C1023 1.503 . S
C1031 C1030 1.370 . S
C1031 C1032 1.403 . S
C1032 C1031 1.403 . S
C1032 C1033 1.404 . S
C1032 C1035 1.539 . S
C1033 C1029 1.408 . S
C1033 C1032 1.404 . S
C1033 H1045 0.930 . S
C1034 C1030 1.524 . S
C1034 H1046 0.956 . S
C1034 H1047 0.961 . S
C1034 H1048 0.961 . S
C1035 C1032 1.539 . S
C1035 H1049 0.958 . S
C1035 H1050 0.961 . S
C1035 H1051 0.960 . S
H1036 C1020 0.931 . S
H1037 C1025 0.929 . S
H1038 C1026 0.960 . S
H1039 C1026 0.962 . S
H1040 C1026 0.960 . S
H1041 C1027 0.961 . S
H1042 C1027 0.961 . S
H1043 C1027 0.961 . S
H1044 C1028 0.931 . S
H1045 C1033 0.930 . S
H1046 C1034 0.956 . S
H1047 C1034 0.961 . S
H1048 C1034 0.961 . S
H1049 C1035 0.958 . S
H1050 C1035 0.961 . S
H1051 C1035 0.960 . S
C1052 C1053 1.391 . S
C1052 C1054 1.394 . S
C1052 H1068 0.931 . S
C1053 C1052 1.391 . S
C1053 C1057 1.376 . S
C1054 C1052 1.394 . S
C1054 C1055 1.369 . S
C1054 C1058 1.531 . S
C1055 C1054 1.369 . S
C1055 C1056 1.410 . S
C1055 C1063 1.503 . S
C1056 C1055 1.410 . S
C1056 C1057 1.392 . S
C1056 C1059 1.511 . S
C1057 C1053 1.376 . S
C1057 C1056 1.392 . S
C1057 H1069 0.929 . S
C1058 C1054 1.531 . S
C1058 H1070 0.960 . S
C1058 H1071 0.962 . S
C1058 H1072 0.960 . S
C1059 C1056 1.511 . S
C1059 H1073 0.961 . S
C1059 H1074 0.961 . S
C1059 H1075 0.961 . S
C1060 C1061 1.370 . S
C1060 C1062 1.363 . S
C1060 H1076 0.931 . S
C1061 C1060 1.370 . S
C1061 C1065 1.408 . S
C1062 C1060 1.363 . S
C1062 C1063 1.370 . S
C1062 C1066 1.524 . S
C1063 C1055 1.503 . S
C1063 C1062 1.370 . S
C1063 C1064 1.403 . S
C1064 C1063 1.403 . S
C1064 C1065 1.404 . S
C1064 C1067 1.539 . S
C1065 C1061 1.408 . S
C1065 C1064 1.404 . S
C1065 H1077 0.930 1_556 S
C1066 C1062 1.524 . S
C1066 H1078 0.956 . S
C1066 H1079 0.961 . S
C1066 H1080 0.961 . S
C1067 C1064 1.539 . S
C1067 H1081 0.958 1_556 S
C1067 H1082 0.961 1_556 S
C1067 H1083 0.960 . S
H1068 C1052 0.931 . S
H1069 C1057 0.929 . S
H1070 C1058 0.960 . S
H1071 C1058 0.962 . S
H1072 C1058 0.960 . S
H1073 C1059 0.961 . S
H1074 C1059 0.961 . S
H1075 C1059 0.961 . S
H1076 C1060 0.931 . S
H1077 C1065 0.930 1_554 S
H1078 C1066 0.956 . S
H1079 C1066 0.961 . S
H1080 C1066 0.961 . S
H1081 C1067 0.958 1_554 S
H1082 C1067 0.961 1_554 S
H1083 C1067 0.960 . S
C1084 C1085 1.391 . S
C1084 C1086 1.394 . S
C1084 H1100 0.931 . S
C1085 C1084 1.391 . S
C1085 C1089 1.376 . S
C1086 C1084 1.394 . S
C1086 C1087 1.369 . S
C1086 C1090 1.531 . S
C1087 C1086 1.369 . S
C1087 C1088 1.410 . S
C1087 C1095 1.503 . S
C1088 C1087 1.410 . S
C1088 C1089 1.392 . S
C1088 C1091 1.511 . S
C1089 C1085 1.376 . S
C1089 C1088 1.392 . S
C1089 H1101 0.929 . S
C1090 C1086 1.531 . S
C1090 H1102 0.960 . S
C1090 H1103 0.962 . S
C1090 H1104 0.960 . S
C1091 C1088 1.511 . S
C1091 H1105 0.961 . S
C1091 H1106 0.961 . S
C1091 H1107 0.961 . S
C1092 C1093 1.370 . S
C1092 C1094 1.363 . S
C1092 H1108 0.931 . S
C1093 C1092 1.370 . S
C1093 C1097 1.408 . S
C1094 C1092 1.363 . S
C1094 C1095 1.370 . S
C1094 C1098 1.524 . S
C1095 C1087 1.503 . S
C1095 C1094 1.370 . S
C1095 C1096 1.403 . S
C1096 C1095 1.403 . S
C1096 C1097 1.404 . S
C1096 C1099 1.539 . S
C1097 C1093 1.408 . S
C1097 C1096 1.404 . S
C1097 H1109 0.930 . S
C1098 C1094 1.524 . S
C1098 H1110 0.956 . S
C1098 H1111 0.961 . S
C1098 H1112 0.961 . S
C1099 C1096 1.539 . S
C1099 H1113 0.958 . S
C1099 H1114 0.961 . S
C1099 H1115 0.960 . S
H1100 C1084 0.931 . S
H1101 C1089 0.929 . S
H1102 C1090 0.960 . S
H1103 C1090 0.962 . S
H1104 C1090 0.960 . S
H1105 C1091 0.961 . S
H1106 C1091 0.961 . S
H1107 C1091 0.961 . S
H1108 C1092 0.931 . S
H1109 C1097 0.930 . S
H1110 C1098 0.956 . S
H1111 C1098 0.961 . S
H1112 C1098 0.961 . S
H1113 C1099 0.958 . S
H1114 C1099 0.961 . S
H1115 C1099 0.960 . S
C1116 C1117 1.391 . S
C1116 C1118 1.394 . S
C1116 H1132 0.931 . S
C1117 C1116 1.391 . S
C1117 C1121 1.376 . S
C1118 C1116 1.394 . S
C1118 C1119 1.369 . S
C1118 C1122 1.531 . S
C1119 C1118 1.369 . S
C1119 C1120 1.410 . S
C1119 C1127 1.503 . S
C1120 C1119 1.410 . S
C1120 C1121 1.392 . S
C1120 C1123 1.511 . S
C1121 C1117 1.376 . S
C1121 C1120 1.392 . S
C1121 H1133 0.929 . S
C1122 C1118 1.531 . S
C1122 H1134 0.960 . S
C1122 H1135 0.962 . S
C1122 H1136 0.960 . S
C1123 C1120 1.511 . S
C1123 H1137 0.961 . S
C1123 H1138 0.961 . S
C1123 H1139 0.961 . S
C1124 C1125 1.370 . S
C1124 C1126 1.363 . S
C1124 H1140 0.931 . S
C1125 C1124 1.370 . S
C1125 C1129 1.408 . S
C1126 C1124 1.363 . S
C1126 C1127 1.370 . S
C1126 C1130 1.524 . S
C1127 C1119 1.503 . S
C1127 C1126 1.370 . S
C1127 C1128 1.403 . S
C1128 C1127 1.403 . S
C1128 C1129 1.404 . S
C1128 C1131 1.539 . S
C1129 C1125 1.408 . S
C1129 C1128 1.404 . S
C1129 H1141 0.930 . S
C1130 C1126 1.524 . S
C1130 H1142 0.956 . S
C1130 H1143 0.961 . S
C1130 H1144 0.961 . S
C1131 C1128 1.539 . S
C1131 H1145 0.958 . S
C1131 H1146 0.961 . S
C1131 H1147 0.960 . S
H1132 C1116 0.931 . S
H1133 C1121 0.929 . S
H1134 C1122 0.960 . S
H1135 C1122 0.962 . S
H1136 C1122 0.960 . S
H1137 C1123 0.961 . S
H1138 C1123 0.961 . S
H1139 C1123 0.961 . S
H1140 C1124 0.931 . S
H1141 C1129 0.930 . S
H1142 C1130 0.956 . S
H1143 C1130 0.961 . S
H1144 C1130 0.961 . S
H1145 C1131 0.958 . S
H1146 C1131 0.961 . S
H1147 C1131 0.960 . S
C1148 C1149 1.391 . S
C1148 C1150 1.394 . S
C1148 H1164 0.931 . S
C1149 C1148 1.391 . S
C1149 C1153 1.376 . S
C1150 C1148 1.394 . S
C1150 C1151 1.369 . S
C1150 C1154 1.531 . S
C1151 C1150 1.369 . S
C1151 C1152 1.410 . S
C1151 C1159 1.503 . S
C1152 C1151 1.410 . S
C1152 C1153 1.392 . S
C1152 C1155 1.511 . S
C1153 C1149 1.376 . S
C1153 C1152 1.392 . S
C1153 H1165 0.929 . S
C1154 C1150 1.531 . S
C1154 H1166 0.960 . S
C1154 H1167 0.962 . S
C1154 H1168 0.960 . S
C1155 C1152 1.511 . S
C1155 H1169 0.961 . S
C1155 H1170 0.961 . S
C1155 H1171 0.961 . S
C1156 C1157 1.370 . S
C1156 C1158 1.363 . S
C1156 H1172 0.931 . S
C1157 C1156 1.370 . S
C1157 C1161 1.408 . S
C1158 C1156 1.363 . S
C1158 C1159 1.370 . S
C1158 C1162 1.524 . S
C1159 C1151 1.503 . S
C1159 C1158 1.370 . S
C1159 C1160 1.403 . S
C1160 C1159 1.403 . S
C1160 C1161 1.404 . S
C1160 C1163 1.539 . S
C1161 C1157 1.408 . S
C1161 C1160 1.404 . S
C1161 H1173 0.930 . S
C1162 C1158 1.524 . S
C1162 H1174 0.956 . S
C1162 H1175 0.961 . S
C1162 H1176 0.961 . S
C1163 C1160 1.539 . S
C1163 H1177 0.958 . S
C1163 H1178 0.961 . S
C1163 H1179 0.960 . S
H1164 C1148 0.931 . S
H1165 C1153 0.929 . S
H1166 C1154 0.960 . S
H1167 C1154 0.962 . S
H1168 C1154 0.960 . S
H1169 C1155 0.961 . S
H1170 C1155 0.961 . S
H1171 C1155 0.961 . S
H1172 C1156 0.931 . S
H1173 C1161 0.930 . S
H1174 C1162 0.956 . S
H1175 C1162 0.961 . S
H1176 C1162 0.961 . S
H1177 C1163 0.958 . S
H1178 C1163 0.961 . S
H1179 C1163 0.960 . S
C1180 C1181 1.391 . S
C1180 C1182 1.394 . S
C1180 H1196 0.931 . S
C1181 C1180 1.391 . S
C1181 C1185 1.376 . S
C1182 C1180 1.394 . S
C1182 C1183 1.369 . S
C1182 C1186 1.531 . S
C1183 C1182 1.369 . S
C1183 C1184 1.410 . S
C1183 C1191 1.503 . S
C1184 C1183 1.410 . S
C1184 C1185 1.392 . S
C1184 C1187 1.511 . S
C1185 C1181 1.376 . S
C1185 C1184 1.392 . S
C1185 H1197 0.929 . S
C1186 C1182 1.531 . S
C1186 H1198 0.960 . S
C1186 H1199 0.962 . S
C1186 H1200 0.960 . S
C1187 C1184 1.511 . S
C1187 H1201 0.961 . S
C1187 H1202 0.961 . S
C1187 H1203 0.961 . S
C1188 C1189 1.370 . S
C1188 C1190 1.363 . S
C1188 H1204 0.931 . S
C1189 C1188 1.370 . S
C1189 C1193 1.408 . S
C1190 C1188 1.363 . S
C1190 C1191 1.370 . S
C1190 C1194 1.524 . S
C1191 C1183 1.503 . S
C1191 C1190 1.370 . S
C1191 C1192 1.403 . S
C1192 C1191 1.403 . S
C1192 C1193 1.404 . S
C1192 C1195 1.539 . S
C1193 C1189 1.408 . S
C1193 C1192 1.404 . S
C1193 H1205 0.930 . S
C1194 C1190 1.524 . S
C1194 H1206 0.956 . S
C1194 H1207 0.961 . S
C1194 H1208 0.961 . S
C1195 C1192 1.539 . S
C1195 H1209 0.958 . S
C1195 H1210 0.961 . S
C1195 H1211 0.960 . S
H1196 C1180 0.931 . S
H1197 C1185 0.929 . S
H1198 C1186 0.960 . S
H1199 C1186 0.962 . S
H1200 C1186 0.960 . S
H1201 C1187 0.961 . S
H1202 C1187 0.961 . S
H1203 C1187 0.961 . S
H1204 C1188 0.931 . S
H1205 C1193 0.930 . S
H1206 C1194 0.956 . S
H1207 C1194 0.961 . S
H1208 C1194 0.961 . S
H1209 C1195 0.958 . S
H1210 C1195 0.961 . S
H1211 C1195 0.960 . S
C1212 C1213 1.391 . S
C1212 C1214 1.394 . S
C1212 H1228 0.931 . S
C1213 C1212 1.391 . S
C1213 C1217 1.376 . S
C1214 C1212 1.394 . S
C1214 C1215 1.369 . S
C1214 C1218 1.531 . S
C1215 C1214 1.369 . S
C1215 C1216 1.410 . S
C1215 C1223 1.503 . S
C1216 C1215 1.410 . S
C1216 C1217 1.392 . S
C1216 C1219 1.511 . S
C1217 C1213 1.376 . S
C1217 C1216 1.392 . S
C1217 H1229 0.929 . S
C1218 C1214 1.531 . S
C1218 H1230 0.960 1_455 S
C1218 H1231 0.962 . S
C1218 H1232 0.960 . S
C1219 C1216 1.511 . S
C1219 H1233 0.961 . S
C1219 H1234 0.961 . S
C1219 H1235 0.961 . S
C1220 C1221 1.370 . S
C1220 C1222 1.363 1_655 S
C1220 H1236 0.931 . S
C1221 C1220 1.370 . S
C1221 C1225 1.408 . S
C1222 C1220 1.363 1_455 S
C1222 C1223 1.370 . S
C1222 C1226 1.524 . S
C1223 C1215 1.503 . S
C1223 C1222 1.370 . S
C1223 C1224 1.403 1_455 S
C1224 C1223 1.403 1_655 S
C1224 C1225 1.404 . S
C1224 C1227 1.539 . S
C1225 C1221 1.408 . S
C1225 C1224 1.404 . S
C1225 H1237 0.930 . S
C1226 C1222 1.524 . S
C1226 H1238 0.956 . S
C1226 H1239 0.961 . S
C1226 H1240 0.961 . S
C1227 C1224 1.539 . S
C1227 H1241 0.958 . S
C1227 H1242 0.961 . S
C1227 H1243 0.960 1_655 S
H1228 C1212 0.931 . S
H1229 C1217 0.929 . S
H1230 C1218 0.960 1_655 S
H1231 C1218 0.962 . S
H1232 C1218 0.960 . S
H1233 C1219 0.961 . S
H1234 C1219 0.961 . S
H1235 C1219 0.961 . S
H1236 C1220 0.931 . S
H1237 C1225 0.930 . S
H1238 C1226 0.956 . S
H1239 C1226 0.961 . S
H1240 C1226 0.961 . S
H1241 C1227 0.958 . S
H1242 C1227 0.961 . S
H1243 C1227 0.960 1_455 S
C1244 C1245 1.391 . S
C1244 C1246 1.394 . S
C1244 H1260 0.931 . S
C1245 C1244 1.391 . S
C1245 C1249 1.376 . S
C1246 C1244 1.394 . S
C1246 C1247 1.369 . S
C1246 C1250 1.531 . S
C1247 C1246 1.369 . S
C1247 C1248 1.410 . S
C1247 C1255 1.503 . S
C1248 C1247 1.410 . S
C1248 C1249 1.392 . S
C1248 C1251 1.511 . S
C1249 C1245 1.376 . S
C1249 C1248 1.392 . S
C1249 H1261 0.929 . S
C1250 C1246 1.531 . S
C1250 H1262 0.960 . S
C1250 H1263 0.962 . S
C1250 H1264 0.960 . S
C1251 C1248 1.511 . S
C1251 H1265 0.961 . S
C1251 H1266 0.961 . S
C1251 H1267 0.961 . S
C1252 C1253 1.370 . S
C1252 C1254 1.363 . S
C1252 H1268 0.931 . S
C1253 C1252 1.370 . S
C1253 C1257 1.408 . S
C1254 C1252 1.363 . S
C1254 C1255 1.370 . S
C1254 C1258 1.524 . S
C1255 C1247 1.503 . S
C1255 C1254 1.370 . S
C1255 C1256 1.403 . S
C1256 C1255 1.403 . S
C1256 C1257 1.404 . S
C1256 C1259 1.539 . S
C1257 C1253 1.408 . S
C1257 C1256 1.404 . S
C1257 H1269 0.930 . S
C1258 C1254 1.524 . S
C1258 H1270 0.956 . S
C1258 H1271 0.961 . S
C1258 H1272 0.961 . S
C1259 C1256 1.539 . S
C1259 H1273 0.958 . S
C1259 H1274 0.961 . S
C1259 H1275 0.960 . S
H1260 C1244 0.931 . S
H1261 C1249 0.929 . S
H1262 C1250 0.960 . S
H1263 C1250 0.962 . S
H1264 C1250 0.960 . S
H1265 C1251 0.961 . S
H1266 C1251 0.961 . S
H1267 C1251 0.961 . S
H1268 C1252 0.931 . S
H1269 C1257 0.930 . S
H1270 C1258 0.956 . S
H1271 C1258 0.961 . S
H1272 C1258 0.961 . S
H1273 C1259 0.958 . S
H1274 C1259 0.961 . S
H1275 C1259 0.960 . S
C1276 C1277 1.391 . S
C1276 C1278 1.394 . S
C1276 H1292 0.931 . S
C1277 C1276 1.391 . S
C1277 C1281 1.376 . S
C1278 C1276 1.394 . S
C1278 C1279 1.369 . S
C1278 C1282 1.531 . S
C1279 C1278 1.369 . S
C1279 C1280 1.410 . S
C1279 C1287 1.503 . S
C1280 C1279 1.410 . S
C1280 C1281 1.392 . S
C1280 C1283 1.511 . S
C1281 C1277 1.376 . S
C1281 C1280 1.392 . S
C1281 H1293 0.929 . S
C1282 C1278 1.531 . S
C1282 H1294 0.960 . S
C1282 H1295 0.962 . S
C1282 H1296 0.960 . S
C1283 C1280 1.511 . S
C1283 H1297 0.961 . S
C1283 H1298 0.961 . S
C1283 H1299 0.961 . S
C1284 C1285 1.370 . S
C1284 C1286 1.363 . S
C1284 H1300 0.931 . S
C1285 C1284 1.370 . S
C1285 C1289 1.408 . S
C1286 C1284 1.363 . S
C1286 C1287 1.370 . S
C1286 C1290 1.524 . S
C1287 C1279 1.503 . S
C1287 C1286 1.370 . S
C1287 C1288 1.403 . S
C1288 C1287 1.403 . S
C1288 C1289 1.404 . S
C1288 C1291 1.539 . S
C1289 C1285 1.408 . S
C1289 C1288 1.404 . S
C1289 H1301 0.930 . S
C1290 C1286 1.524 . S
C1290 H1302 0.956 . S
C1290 H1303 0.961 . S
C1290 H1304 0.961 . S
C1291 C1288 1.539 . S
C1291 H1305 0.958 . S
C1291 H1306 0.961 . S
C1291 H1307 0.960 . S
H1292 C1276 0.931 . S
H1293 C1281 0.929 . S
H1294 C1282 0.960 . S
H1295 C1282 0.962 . S
H1296 C1282 0.960 . S
H1297 C1283 0.961 . S
H1298 C1283 0.961 . S
H1299 C1283 0.961 . S
H1300 C1284 0.931 . S
H1301 C1289 0.930 . S
H1302 C1290 0.956 . S
H1303 C1290 0.961 . S
H1304 C1290 0.961 . S
H1305 C1291 0.958 . S
H1306 C1291 0.961 . S
H1307 C1291 0.960 . S
C1308 C1309 1.391 . S
C1308 C1310 1.394 . S
C1308 H1324 0.931 . S
C1309 C1308 1.391 . S
C1309 C1313 1.376 . S
C1310 C1308 1.394 . S
C1310 C1311 1.369 . S
C1310 C1314 1.531 . S
C1311 C1310 1.369 . S
C1311 C1312 1.410 . S
C1311 C1319 1.503 . S
C1312 C1311 1.410 . S
C1312 C1313 1.392 . S
C1312 C1315 1.511 . S
C1313 C1309 1.376 . S
C1313 C1312 1.392 . S
C1313 H1325 0.929 . S
C1314 C1310 1.531 . S
C1314 H1326 0.960 . S
C1314 H1327 0.962 . S
C1314 H1328 0.960 . S
C1315 C1312 1.511 . S
C1315 H1329 0.961 . S
C1315 H1330 0.961 . S
C1315 H1331 0.961 . S
C1316 C1317 1.370 . S
C1316 C1318 1.363 . S
C1316 H1332 0.931 . S
C1317 C1316 1.370 . S
C1317 C1321 1.408 . S
C1318 C1316 1.363 . S
C1318 C1319 1.370 . S
C1318 C1322 1.524 . S
C1319 C1311 1.503 . S
C1319 C1318 1.370 . S
C1319 C1320 1.403 . S
C1320 C1319 1.403 . S
C1320 C1321 1.404 . S
C1320 C1323 1.539 . S
C1321 C1317 1.408 . S
C1321 C1320 1.404 . S
C1321 H1333 0.930 . S
C1322 C1318 1.524 . S
C1322 H1334 0.956 . S
C1322 H1335 0.961 . S
C1322 H1336 0.961 . S
C1323 C1320 1.539 . S
C1323 H1337 0.958 . S
C1323 H1338 0.961 . S
C1323 H1339 0.960 . S
H1324 C1308 0.931 . S
H1325 C1313 0.929 . S
H1326 C1314 0.960 . S
H1327 C1314 0.962 . S
H1328 C1314 0.960 . S
H1329 C1315 0.961 . S
H1330 C1315 0.961 . S
H1331 C1315 0.961 . S
H1332 C1316 0.931 . S
H1333 C1321 0.930 . S
H1334 C1322 0.956 . S
H1335 C1322 0.961 . S
H1336 C1322 0.961 . S
H1337 C1323 0.958 . S
H1338 C1323 0.961 . S
H1339 C1323 0.960 . S
C1340 C1341 1.391 . S
C1340 C1342 1.394 . S
C1340 H1356 0.931 . S
C1341 C1340 1.391 . S
C1341 C1345 1.376 . S
C1342 C1340 1.394 . S
C1342 C1343 1.369 . S
C1342 C1346 1.531 . S
C1343 C1342 1.369 . S
C1343 C1344 1.410 . S
C1343 C1351 1.503 . S
C1344 C1343 1.410 . S
C1344 C1345 1.392 . S
C1344 C1347 1.511 . S
C1345 C1341 1.376 . S
C1345 C1344 1.392 . S
C1345 H1357 0.929 . S
C1346 C1342 1.531 . S
C1346 H1358 0.960 . S
C1346 H1359 0.962 . S
C1346 H1360 0.960 . S
C1347 C1344 1.511 . S
C1347 H1361 0.961 . S
C1347 H1362 0.961 . S
C1347 H1363 0.961 . S
C1348 C1349 1.370 . S
C1348 C1350 1.363 . S
C1348 H1364 0.931 . S
C1349 C1348 1.370 . S
C1349 C1353 1.408 . S
C1350 C1348 1.363 . S
C1350 C1351 1.370 . S
C1350 C1354 1.524 . S
C1351 C1343 1.503 . S
C1351 C1350 1.370 . S
C1351 C1352 1.403 . S
C1352 C1351 1.403 . S
C1352 C1353 1.404 . S
C1352 C1355 1.539 . S
C1353 C1349 1.408 . S
C1353 C1352 1.404 . S
C1353 H1365 0.930 1_565 S
C1354 C1350 1.524 . S
C1354 H1366 0.956 . S
C1354 H1367 0.961 . S
C1354 H1368 0.961 . S
C1355 C1352 1.539 . S
C1355 H1369 0.958 . S
C1355 H1370 0.961 . S
C1355 H1371 0.960 . S
H1356 C1340 0.931 . S
H1357 C1345 0.929 . S
H1358 C1346 0.960 . S
H1359 C1346 0.962 . S
H1360 C1346 0.960 . S
H1361 C1347 0.961 . S
H1362 C1347 0.961 . S
H1363 C1347 0.961 . S
H1364 C1348 0.931 . S
H1365 C1353 0.930 1_545 S
H1366 C1354 0.956 . S
H1367 C1354 0.961 . S
H1368 C1354 0.961 . S
H1369 C1355 0.958 . S
H1370 C1355 0.961 . S
H1371 C1355 0.960 . S
C1372 C1373 1.391 . S
C1372 C1374 1.394 . S
C1372 H1388 0.931 . S
C1373 C1372 1.391 . S
C1373 C1377 1.376 . S
C1374 C1372 1.394 . S
C1374 C1375 1.369 . S
C1374 C1378 1.531 . S
C1375 C1374 1.369 . S
C1375 C1376 1.410 . S
C1375 C1383 1.503 . S
C1376 C1375 1.410 . S
C1376 C1377 1.392 . S
C1376 C1379 1.511 . S
C1377 C1373 1.376 . S
C1377 C1376 1.392 . S
C1377 H1389 0.929 1_545 S
C1378 C1374 1.531 . S
C1378 H1390 0.960 . S
C1378 H1391 0.962 . S
C1378 H1392 0.960 . S
C1379 C1376 1.511 . S
C1379 H1393 0.960 . S
C1379 H1394 0.961 1_655 S
C1379 H1395 0.972 . S
C1380 C1381 1.370 . S
C1380 C1382 1.363 1_455 S
C1380 H1396 0.931 . S
C1381 C1380 1.370 . S
C1381 C1385 1.408 . S
C1382 C1380 1.363 1_655 S
C1382 C1383 1.370 . S
C1382 C1386 1.524 . S
C1383 C1375 1.503 . S
C1383 C1382 1.370 . S
C1383 C1384 1.403 . S
C1384 C1383 1.403 . S
C1384 C1385 1.404 1_655 S
C1384 C1387 1.539 . S
C1385 C1381 1.408 . S
C1385 C1384 1.404 1_455 S
C1385 H1397 0.930 . S
C1386 C1382 1.524 . S
C1386 H1398 0.956 . S
C1386 H1399 0.961 . S
C1386 H1400 0.961 . S
C1387 C1384 1.539 . S
C1387 H1401 0.958 . S
C1387 H1402 0.961 1_655 S
C1387 H1403 0.960 . S
H1388 C1372 0.931 . S
H1389 C1377 0.929 1_565 S
H1390 C1378 0.960 . S
H1391 C1378 0.962 . S
H1392 C1378 0.960 . S
H1393 C1379 0.960 . S
H1394 C1379 0.961 1_455 S
H1395 C1379 0.972 . S
H1396 C1380 0.931 . S
H1397 C1385 0.930 . S
H1398 C1386 0.956 . S
H1399 C1386 0.961 . S
H1400 C1386 0.961 . S
H1401 C1387 0.958 . S
H1402 C1387 0.961 1_455 S
H1403 C1387 0.960 . S
C253 C15 1.455 . S
C261 C249 1.464 . S
C285 C207 1.470 . S
C293 C36 1.466 1_655 S
C317 C60 1.468 . S
C325 C183 1.468 . S
C349 C81 1.449 . S
C357 C228 1.461 . S
C381 C102 1.469 . S
C389 C225 1.468 1_545 S
C413 C123 1.461 1_455 S
C421 C246 1.461 . S
C445 C204 1.471 1_565 S
C453 C141 1.468 . S
C477 C162 1.452 . S
C485 C186 1.459 . S
C509 C78 1.471 . S
C517 C99 1.468 . S
C541 C18 1.464 . S
C549 C120 1.463 . S
C573 C39 1.471 . S
C581 C144 1.468 1_556 S
C605 C165 1.470 . S
C613 C57 1.468 1_554 S
C637 C13 1.197 . S
C645 C182 1.203 . S
C669 C34 1.189 . S
C677 C227 1.213 . S
C701 C248 1.193 . S
C709 C58 1.127 . S
C733 C79 1.132 . S
C741 C206 1.186 . S
C765 C100 1.194 . S
C773 C203 1.200 . S
C797 C185 1.186 . S
C805 C121 1.164 . S
C829 C224 1.228 . S
C837 C139 1.166 . S
C861 C245 1.192 . S
C869 C160 1.127 . S
C893 C17 1.230 . S
C901 C76 1.153 . S
C925 C16 1.129 . S
C933 C38 1.210 . S
C957 C37 1.194 . S
C965 C56 1.201 . S
C989 C77 1.228 . S
C997 C55 1.167 . S
C1021 C118 1.195 . S
C1029 C98 1.211 . S
C1053 C119 1.230 . S
C1061 C142 1.164 . S
C1085 C143 1.231 . S
C1093 C163 1.157 . S
C1117 C97 1.106 . S
C1125 C164 1.203 . S
C1149 C184 1.198 . S
C1157 C80 1.204 . S
C1181 C122 1.229 . S
C1189 C205 1.166 . S
C1213 C181 1.093 . S
C1221 C140 1.197 . S
C1245 C226 1.123 . S
C1253 C161 1.208 . S
C1277 C101 1.226 . S
C1285 C247 1.168 . S
C1309 C244 1.187 . S
C1317 C35 1.197 . S
C1341 C59 1.222 . S
C1349 C202 1.169 . S
C1373 C223 1.192 . S
C1381 C14 1.212 . S
