# Generated by pormake.
# Topology wna, (6)-cn, num edge types: 1
# Building blocks:
#     Node 0, Type 0, BuildingBlock: VOLQOD_clean_sbu_1, # of connection points: 6
#     Node 1, Type 0, BuildingBlock: VOLQOD_clean_sbu_1, # of connection points: 6
#     Node 2, Type 0, BuildingBlock: VOLQOD_clean_sbu_1, # of connection points: 6
#     Node 3, Type 0, BuildingBlock: VOLQOD_clean_sbu_1, # of connection points: 6
#     Node 4, Type 0, BuildingBlock: VOLQOD_clean_sbu_1, # of connection points: 6
#     Node 5, Type 0, BuildingBlock: VOLQOD_clean_sbu_1, # of connection points: 6
#     Node 6, Type 0, BuildingBlock: VOLQOD_clean_sbu_1, # of connection points: 6
#     Node 7, Type 0, BuildingBlock: VOLQOD_clean_sbu_1, # of connection points: 6
#     Node 8, Type 0, BuildingBlock: VOLQOD_clean_sbu_1, # of connection points: 6
#     Node 9, Type 0, BuildingBlock: VOLQOD_clean_sbu_1, # of connection points: 6
#     Node 10, Type 0, BuildingBlock: VOLQOD_clean_sbu_1, # of connection points: 6
#     Node 11, Type 0, BuildingBlock: VOLQOD_clean_sbu_1, # of connection points: 6
#     Node 12, Type 0, BuildingBlock: VOLQOD_clean_sbu_1, # of connection points: 6
#     Node 13, Type 0, BuildingBlock: VOLQOD_clean_sbu_1, # of connection points: 6
#     Node 14, Type 0, BuildingBlock: VOLQOD_clean_sbu_1, # of connection points: 6
#     Node 15, Type 0, BuildingBlock: VOLQOD_clean_sbu_1, # of connection points: 6
#     Node 16, Type 0, BuildingBlock: VOLQOD_clean_sbu_1, # of connection points: 6
#     Node 17, Type 0, BuildingBlock: VOLQOD_clean_sbu_1, # of connection points: 6
#     Node 18, Type 0, BuildingBlock: VOLQOD_clean_sbu_1, # of connection points: 6
#     Node 19, Type 0, BuildingBlock: VOLQOD_clean_sbu_1, # of connection points: 6
#     Node 20, Type 0, BuildingBlock: VOLQOD_clean_sbu_1, # of connection points: 6
#     Node 21, Type 0, BuildingBlock: VOLQOD_clean_sbu_1, # of connection points: 6
#     Node 22, Type 0, BuildingBlock: VOLQOD_clean_sbu_1, # of connection points: 6
#     Node 23, Type 0, BuildingBlock: VOLQOD_clean_sbu_1, # of connection points: 6
#     Node 24, Type 0, BuildingBlock: VOLQOD_clean_sbu_1, # of connection points: 6
#     Node 25, Type 0, BuildingBlock: VOLQOD_clean_sbu_1, # of connection points: 6
#     Node 26, Type 0, BuildingBlock: VOLQOD_clean_sbu_1, # of connection points: 6
#     Node 27, Type 0, BuildingBlock: VOLQOD_clean_sbu_1, # of connection points: 6
#     Node 28, Type 0, BuildingBlock: VOLQOD_clean_sbu_1, # of connection points: 6
#     Node 29, Type 0, BuildingBlock: VOLQOD_clean_sbu_1, # of connection points: 6
#     Node 30, Type 0, BuildingBlock: VOLQOD_clean_sbu_1, # of connection points: 6
#     Node 31, Type 0, BuildingBlock: VOLQOD_clean_sbu_1, # of connection points: 6
#     Node 32, Type 0, BuildingBlock: VOLQOD_clean_sbu_1, # of connection points: 6
#     Node 33, Type 0, BuildingBlock: VOLQOD_clean_sbu_1, # of connection points: 6
#     Node 34, Type 0, BuildingBlock: VOLQOD_clean_sbu_1, # of connection points: 6
#     Node 35, Type 0, BuildingBlock: VOLQOD_clean_sbu_1, # of connection points: 6
#     Edge 36, Type (0, 0), BuildingBlock: OJICUG_clean_linker_0, # of connection points: 2
#     Edge 37, Type (0, 0), BuildingBlock: OJICUG_clean_linker_0, # of connection points: 2
#     Edge 38, Type (0, 0), BuildingBlock: OJICUG_clean_linker_0, # of connection points: 2
#     Edge 39, Type (0, 0), BuildingBlock: OJICUG_clean_linker_0, # of connection points: 2
#     Edge 40, Type (0, 0), BuildingBlock: OJICUG_clean_linker_0, # of connection points: 2
#     Edge 41, Type (0, 0), BuildingBlock: OJICUG_clean_linker_0, # of connection points: 2
#     Edge 42, Type (0, 0), BuildingBlock: OJICUG_clean_linker_0, # of connection points: 2
#     Edge 43, Type (0, 0), BuildingBlock: OJICUG_clean_linker_0, # of connection points: 2
#     Edge 44, Type (0, 0), BuildingBlock: OJICUG_clean_linker_0, # of connection points: 2
#     Edge 45, Type (0, 0), BuildingBlock: OJICUG_clean_linker_0, # of connection points: 2
#     Edge 46, Type (0, 0), BuildingBlock: OJICUG_clean_linker_0, # of connection points: 2
#     Edge 47, Type (0, 0), BuildingBlock: OJICUG_clean_linker_0, # of connection points: 2
#     Edge 48, Type (0, 0), BuildingBlock: OJICUG_clean_linker_0, # of connection points: 2
#     Edge 49, Type (0, 0), BuildingBlock: OJICUG_clean_linker_0, # of connection points: 2
#     Edge 50, Type (0, 0), BuildingBlock: OJICUG_clean_linker_0, # of connection points: 2
#     Edge 51, Type (0, 0), BuildingBlock: OJICUG_clean_linker_0, # of connection points: 2
#     Edge 52, Type (0, 0), BuildingBlock: OJICUG_clean_linker_0, # of connection points: 2
#     Edge 53, Type (0, 0), BuildingBlock: OJICUG_clean_linker_0, # of connection points: 2
#     Edge 54, Type (0, 0), BuildingBlock: OJICUG_clean_linker_0, # of connection points: 2
#     Edge 55, Type (0, 0), BuildingBlock: OJICUG_clean_linker_0, # of connection points: 2
#     Edge 56, Type (0, 0), BuildingBlock: OJICUG_clean_linker_0, # of connection points: 2
#     Edge 57, Type (0, 0), BuildingBlock: OJICUG_clean_linker_0, # of connection points: 2
#     Edge 58, Type (0, 0), BuildingBlock: OJICUG_clean_linker_0, # of connection points: 2
#     Edge 59, Type (0, 0), BuildingBlock: OJICUG_clean_linker_0, # of connection points: 2
#     Edge 60, Type (0, 0), BuildingBlock: OJICUG_clean_linker_0, # of connection points: 2
#     Edge 61, Type (0, 0), BuildingBlock: OJICUG_clean_linker_0, # of connection points: 2
#     Edge 62, Type (0, 0), BuildingBlock: OJICUG_clean_linker_0, # of connection points: 2
#     Edge 63, Type (0, 0), BuildingBlock: OJICUG_clean_linker_0, # of connection points: 2
#     Edge 64, Type (0, 0), BuildingBlock: OJICUG_clean_linker_0, # of connection points: 2
#     Edge 65, Type (0, 0), BuildingBlock: OJICUG_clean_linker_0, # of connection points: 2
#     Edge 66, Type (0, 0), BuildingBlock: OJICUG_clean_linker_0, # of connection points: 2
#     Edge 67, Type (0, 0), BuildingBlock: OJICUG_clean_linker_0, # of connection points: 2
#     Edge 68, Type (0, 0), BuildingBlock: OJICUG_clean_linker_0, # of connection points: 2
#     Edge 69, Type (0, 0), BuildingBlock: OJICUG_clean_linker_0, # of connection points: 2
#     Edge 70, Type (0, 0), BuildingBlock: OJICUG_clean_linker_0, # of connection points: 2
#     Edge 71, Type (0, 0), BuildingBlock: OJICUG_clean_linker_0, # of connection points: 2
#     Edge 72, Type (0, 0), BuildingBlock: OJICUG_clean_linker_0, # of connection points: 2
#     Edge 73, Type (0, 0), BuildingBlock: OJICUG_clean_linker_0, # of connection points: 2
#     Edge 74, Type (0, 0), BuildingBlock: OJICUG_clean_linker_0, # of connection points: 2
#     Edge 75, Type (0, 0), BuildingBlock: OJICUG_clean_linker_0, # of connection points: 2
#     Edge 76, Type (0, 0), BuildingBlock: OJICUG_clean_linker_0, # of connection points: 2
#     Edge 77, Type (0, 0), BuildingBlock: OJICUG_clean_linker_0, # of connection points: 2
#     Edge 78, Type (0, 0), BuildingBlock: OJICUG_clean_linker_0, # of connection points: 2
#     Edge 79, Type (0, 0), BuildingBlock: OJICUG_clean_linker_0, # of connection points: 2
#     Edge 80, Type (0, 0), BuildingBlock: OJICUG_clean_linker_0, # of connection points: 2
#     Edge 81, Type (0, 0), BuildingBlock: OJICUG_clean_linker_0, # of connection points: 2
#     Edge 82, Type (0, 0), BuildingBlock: OJICUG_clean_linker_0, # of connection points: 2
#     Edge 83, Type (0, 0), BuildingBlock: OJICUG_clean_linker_0, # of connection points: 2
#     Edge 84, Type (0, 0), BuildingBlock: OJICUG_clean_linker_0, # of connection points: 2
#     Edge 85, Type (0, 0), BuildingBlock: OJICUG_clean_linker_0, # of connection points: 2
#     Edge 86, Type (0, 0), BuildingBlock: OJICUG_clean_linker_0, # of connection points: 2
#     Edge 87, Type (0, 0), BuildingBlock: OJICUG_clean_linker_0, # of connection points: 2
#     Edge 88, Type (0, 0), BuildingBlock: OJICUG_clean_linker_0, # of connection points: 2
#     Edge 89, Type (0, 0), BuildingBlock: OJICUG_clean_linker_0, # of connection points: 2
#     Edge 90, Type (0, 0), BuildingBlock: OJICUG_clean_linker_0, # of connection points: 2
#     Edge 91, Type (0, 0), BuildingBlock: OJICUG_clean_linker_0, # of connection points: 2
#     Edge 92, Type (0, 0), BuildingBlock: OJICUG_clean_linker_0, # of connection points: 2
#     Edge 93, Type (0, 0), BuildingBlock: OJICUG_clean_linker_0, # of connection points: 2
#     Edge 94, Type (0, 0), BuildingBlock: OJICUG_clean_linker_0, # of connection points: 2
#     Edge 95, Type (0, 0), BuildingBlock: OJICUG_clean_linker_0, # of connection points: 2
#     Edge 96, Type (0, 0), BuildingBlock: OJICUG_clean_linker_0, # of connection points: 2
#     Edge 97, Type (0, 0), BuildingBlock: OJICUG_clean_linker_0, # of connection points: 2
#     Edge 98, Type (0, 0), BuildingBlock: OJICUG_clean_linker_0, # of connection points: 2
#     Edge 99, Type (0, 0), BuildingBlock: OJICUG_clean_linker_0, # of connection points: 2
#     Edge 100, Type (0, 0), BuildingBlock: OJICUG_clean_linker_0, # of connection points: 2
#     Edge 101, Type (0, 0), BuildingBlock: OJICUG_clean_linker_0, # of connection points: 2
#     Edge 102, Type (0, 0), BuildingBlock: OJICUG_clean_linker_0, # of connection points: 2
#     Edge 103, Type (0, 0), BuildingBlock: OJICUG_clean_linker_0, # of connection points: 2
#     Edge 104, Type (0, 0), BuildingBlock: OJICUG_clean_linker_0, # of connection points: 2
#     Edge 105, Type (0, 0), BuildingBlock: OJICUG_clean_linker_0, # of connection points: 2
#     Edge 106, Type (0, 0), BuildingBlock: OJICUG_clean_linker_0, # of connection points: 2
#     Edge 107, Type (0, 0), BuildingBlock: OJICUG_clean_linker_0, # of connection points: 2
#     Edge 108, Type (0, 0), BuildingBlock: OJICUG_clean_linker_0, # of connection points: 2
#     Edge 109, Type (0, 0), BuildingBlock: OJICUG_clean_linker_0, # of connection points: 2
#     Edge 110, Type (0, 0), BuildingBlock: OJICUG_clean_linker_0, # of connection points: 2
#     Edge 111, Type (0, 0), BuildingBlock: OJICUG_clean_linker_0, # of connection points: 2
#     Edge 112, Type (0, 0), BuildingBlock: OJICUG_clean_linker_0, # of connection points: 2
#     Edge 113, Type (0, 0), BuildingBlock: OJICUG_clean_linker_0, # of connection points: 2
#     Edge 114, Type (0, 0), BuildingBlock: OJICUG_clean_linker_0, # of connection points: 2
#     Edge 115, Type (0, 0), BuildingBlock: OJICUG_clean_linker_0, # of connection points: 2
#     Edge 116, Type (0, 0), BuildingBlock: OJICUG_clean_linker_0, # of connection points: 2
#     Edge 117, Type (0, 0), BuildingBlock: OJICUG_clean_linker_0, # of connection points: 2
#     Edge 118, Type (0, 0), BuildingBlock: OJICUG_clean_linker_0, # of connection points: 2
#     Edge 119, Type (0, 0), BuildingBlock: OJICUG_clean_linker_0, # of connection points: 2
#     Edge 120, Type (0, 0), BuildingBlock: OJICUG_clean_linker_0, # of connection points: 2
#     Edge 121, Type (0, 0), BuildingBlock: OJICUG_clean_linker_0, # of connection points: 2
#     Edge 122, Type (0, 0), BuildingBlock: OJICUG_clean_linker_0, # of connection points: 2
#     Edge 123, Type (0, 0), BuildingBlock: OJICUG_clean_linker_0, # of connection points: 2
#     Edge 124, Type (0, 0), BuildingBlock: OJICUG_clean_linker_0, # of connection points: 2
#     Edge 125, Type (0, 0), BuildingBlock: OJICUG_clean_linker_0, # of connection points: 2
#     Edge 126, Type (0, 0), BuildingBlock: OJICUG_clean_linker_0, # of connection points: 2
#     Edge 127, Type (0, 0), BuildingBlock: OJICUG_clean_linker_0, # of connection points: 2
#     Edge 128, Type (0, 0), BuildingBlock: OJICUG_clean_linker_0, # of connection points: 2
#     Edge 129, Type (0, 0), BuildingBlock: OJICUG_clean_linker_0, # of connection points: 2
#     Edge 130, Type (0, 0), BuildingBlock: OJICUG_clean_linker_0, # of connection points: 2
#     Edge 131, Type (0, 0), BuildingBlock: OJICUG_clean_linker_0, # of connection points: 2
#     Edge 132, Type (0, 0), BuildingBlock: OJICUG_clean_linker_0, # of connection points: 2
#     Edge 133, Type (0, 0), BuildingBlock: OJICUG_clean_linker_0, # of connection points: 2
#     Edge 134, Type (0, 0), BuildingBlock: OJICUG_clean_linker_0, # of connection points: 2
#     Edge 135, Type (0, 0), BuildingBlock: OJICUG_clean_linker_0, # of connection points: 2
#     Edge 136, Type (0, 0), BuildingBlock: OJICUG_clean_linker_0, # of connection points: 2
#     Edge 137, Type (0, 0), BuildingBlock: OJICUG_clean_linker_0, # of connection points: 2
#     Edge 138, Type (0, 0), BuildingBlock: OJICUG_clean_linker_0, # of connection points: 2
#     Edge 139, Type (0, 0), BuildingBlock: OJICUG_clean_linker_0, # of connection points: 2
#     Edge 140, Type (0, 0), BuildingBlock: OJICUG_clean_linker_0, # of connection points: 2
#     Edge 141, Type (0, 0), BuildingBlock: OJICUG_clean_linker_0, # of connection points: 2
#     Edge 142, Type (0, 0), BuildingBlock: OJICUG_clean_linker_0, # of connection points: 2
#     Edge 143, Type (0, 0), BuildingBlock: OJICUG_clean_linker_0, # of connection points: 2
# Relax obj value: 0.190
# Max RMSD: 0.157
# Mean RMSD: 0.157
data_MOF--net-wna--node1-VOLQOD_clean_sbu_1--edge1-OJICUG_clean_linker_0
_symmetry_space_group_name_H-M    P1
_symmetry_Int_Tables_number       1
_symmetry_cell_setting            triclinic
loop_
_symmetry_equiv_pos_as_xyz
'x, y, z'
_cell_length_a     34.003558
_cell_length_b     33.951577
_cell_length_c     72.250227
_cell_angle_alpha  89.97117
_cell_angle_beta   90.002185
_cell_angle_gamma 120.05608
loop_
_atom_site_label
_atom_site_type_symbol
_atom_site_fract_x
_atom_site_fract_y
_atom_site_fract_z
_atom_type_partial_charge
O0 O 0.09156 0.1642 0.13427 0.0
Zn1 Zn 0.05325 0.19333 0.13166 0.0
O2 O 0.05963 0.22836 0.15368 0.0
Zn3 Zn 0.0975 0.29224 0.14859 0.0
Zn4 Zn 0.08567 0.21071 0.17336 0.0
Zn5 Zn 0.00111 0.21809 0.16078 0.0
O6 O 0.06648 0.32733 0.15459 0.0
O7 O -0.00524 0.27112 0.15234 0.0
O8 O 0.07192 0.23296 0.10879 0.0
O9 O 0.10783 0.30163 0.12154 0.0
O10 O 0.15888 0.31757 0.16008 0.0
O11 O 0.14956 0.25989 0.17762 0.0
O12 O 0.04917 0.19809 0.19708 0.0
O13 O -0.01076 0.14074 0.12974 0.0
O14 O -0.00687 0.20998 0.18832 0.0
O15 O 0.95277 0.15886 0.15046 0.0
C16 C 0.10125 0.14906 0.14866 0.0
C17 C 0.02444 0.31343 0.15215 0.0
C18 C 0.17464 0.29965 0.1711 0.0
C19 C 0.09503 0.27619 0.10734 0.0
C20 C 0.01368 0.20048 0.20074 0.0
C21 C 0.9532 0.13138 0.1386 0.0
O22 O 0.09424 0.15888 0.16494 0.0
O23 O 0.80688 0.91499 0.13071 0.0
Zn24 Zn 0.77575 0.8468 0.12961 0.0
O25 O 0.74063 0.82151 0.15194 0.0
Zn26 Zn 0.67696 0.79534 0.14717 0.0
Zn27 Zn 0.76051 0.86715 0.17088 0.0
Zn28 Zn 0.7484 0.77286 0.16031 0.0
O29 O 0.64124 0.72917 0.15361 0.0
O30 O 0.69718 0.71362 0.15112 0.0
O31 O 0.73538 0.82408 0.10695 0.0
O32 O 0.66747 0.7952 0.12015 0.0
O33 O 0.65288 0.83256 0.15838 0.0
O34 O 0.7114 0.88236 0.17524 0.0
O35 O 0.77614 0.84556 0.19471 0.0
O36 O 0.82709 0.83335 0.12896 0.0
O37 O 0.75056 0.77261 0.18802 0.0
O38 O 0.8089 0.78368 0.15192 0.0
C39 C 0.82182 0.94145 0.14465 0.0
C40 C 0.65498 0.70091 0.15104 0.0
C41 C 0.67136 0.86715 0.16895 0.0
C42 C 0.69224 0.80543 0.1058 0.0
C43 C 0.76641 0.80544 0.19952 0.0
C44 C 0.83646 0.80899 0.13946 0.0
O45 O 0.81144 0.92652 0.1612 0.0
O46 O 0.05307 0.88174 0.13456 0.0
Zn47 Zn 0.12098 0.91866 0.13378 0.0
O48 O 0.14544 0.90833 0.15615 0.0
Zn49 Zn 0.17094 0.8702 0.15134 0.0
Zn50 Zn 0.09925 0.88265 0.17487 0.0
Zn51 Zn 0.19405 0.96462 0.16466 0.0
O52 O 0.23714 0.9003 0.15738 0.0
O53 O 0.25288 0.97204 0.15528 0.0
O54 O 0.14329 0.90073 0.11126 0.0
O55 O 0.17025 0.85986 0.12433 0.0
O56 O 0.1335 0.80912 0.1627 0.0
O57 O 0.08339 0.81802 0.17922 0.0
O58 O 0.1204 0.91998 0.19864 0.0
O59 O 0.13519 0.98365 0.13293 0.0
O60 O 0.19369 0.9668 0.19238 0.0
O61 O 0.18392 0.01489 0.15618 0.0
C62 C 0.02605 0.86998 0.1483 0.0
C63 C 0.26533 0.94233 0.15473 0.0
C64 C 0.09854 0.79303 0.17304 0.0
C65 C 0.1606 0.87508 0.11002 0.0
C66 C 0.16039 0.95012 0.20366 0.0
C67 C 0.15938 0.01739 0.14345 0.0
O68 O 0.04029 0.8745 0.16494 0.0
O69 O 0.15147 0.09023 0.34587 0.0
Zn70 Zn 0.18325 0.05405 0.34733 0.0
O71 O 0.21926 0.06446 0.32523 0.0
Zn72 Zn 0.2827 0.10186 0.33042 0.0
Zn73 Zn 0.20065 0.0912 0.30622 0.0
Zn74 Zn 0.21182 0.0082 0.3168 0.0
O75 O 0.31878 0.07169 0.3246 0.0
O76 O 0.26251 0.00011 0.32658 0.0
O77 O 0.22254 0.07234 0.37028 0.0
O78 O 0.29087 0.1113 0.35742 0.0
O79 O 0.30767 0.16344 0.31948 0.0
O80 O 0.24967 0.15626 0.30275 0.0
O81 O 0.18659 0.05497 0.28222 0.0
O82 O 0.13255 -0.01111 0.34797 0.0
O83 O 0.21054 0.00639 0.28907 0.0
O84 O 0.15114 0.9581 0.32492 0.0
C85 C 0.13711 0.10189 0.33179 0.0
C86 C 0.3047 0.02963 0.32726 0.0
C87 C 0.28959 0.18052 0.30926 0.0
C88 C 0.26561 0.09708 0.37164 0.0
C89 C 0.19576 0.02419 0.27747 0.0
C90 C 0.12348 0.95533 0.33742 0.0
O91 O 0.14864 0.09819 0.31536 0.0
O92 O 0.86679 0.05236 0.34174 0.0
Zn93 Zn 0.90435 0.11998 0.34441 0.0
O94 O 0.89769 0.14853 0.32236 0.0
Zn95 Zn 0.86128 0.17591 0.32753 0.0
Zn96 Zn 0.86996 0.10443 0.30289 0.0
Zn97 Zn 0.95607 0.19634 0.31484 0.0
O98 O 0.89319 0.24222 0.32182 0.0
O99 O 0.96426 0.25612 0.32377 0.0
O100 O 0.88511 0.14015 0.36736 0.0
O101 O 0.85118 0.1747 0.35451 0.0
O102 O 0.79944 0.14075 0.31659 0.0
O103 O 0.8055 0.08929 0.29987 0.0
O104 O 0.90495 0.12814 0.27876 0.0
O105 O 0.96858 0.13218 0.34638 0.0
O106 O 0.96258 0.19564 0.28725 0.0
O107 O 0.00405 0.18491 0.32482 0.0
C108 C 0.85671 0.02748 0.32736 0.0
C109 C 0.93536 0.26958 0.32444 0.0
C110 C 0.7818 0.10547 0.30641 0.0
C111 C 0.86279 0.16102 0.36873 0.0
C112 C 0.94085 0.16566 0.27491 0.0
C113 C 0.00414 0.15804 0.33707 0.0
O114 O 0.86253 0.04422 0.31108 0.0
O115 O 0.90751 0.80907 0.3429 0.0
Zn116 Zn 0.83959 0.7778 0.34374 0.0
O117 O 0.81518 0.74204 0.32154 0.0
Zn118 Zn 0.78926 0.67849 0.32687 0.0
Zn119 Zn 0.86128 0.76141 0.30285 0.0
Zn120 Zn 0.76689 0.74956 0.31259 0.0
O121 O 0.72284 0.64241 0.32124 0.0
O122 O 0.70819 0.69917 0.32269 0.0
O123 O 0.81733 0.73837 0.36664 0.0
O124 O 0.79027 0.67008 0.35394 0.0
O125 O 0.82606 0.65377 0.31586 0.0
O126 O 0.87689 0.71224 0.29923 0.0
O127 O 0.84036 0.77664 0.27879 0.0
O128 O 0.82542 0.82868 0.344 0.0
O129 O 0.76705 0.7505 0.28481 0.0
O130 O 0.77763 0.81063 0.32038 0.0
C131 C 0.93447 0.82366 0.32911 0.0
C132 C 0.69529 0.65694 0.32393 0.0
C133 C 0.86128 0.67219 0.30566 0.0
C134 C 0.79994 0.69537 0.36812 0.0
C135 C 0.8005 0.76671 0.2736 0.0
C136 C 0.80179 0.83806 0.33309 0.0
O137 O 0.92018 0.81286 0.31252 0.0
O138 O 0.86823 0.80838 0.84525 0.0
Zn139 Zn 0.90644 0.77904 0.84756 0.0
O140 O 0.89971 0.74418 0.82543 0.0
Zn141 Zn 0.86231 0.6802 0.83051 0.0
Zn142 Zn 0.87295 0.76182 0.806 0.0
Zn143 Zn 0.95814 0.75481 0.81792 0.0
O144 O 0.89359 0.64542 0.82433 0.0
O145 O 0.96527 0.70196 0.82599 0.0
O146 O 0.88764 0.73927 0.87039 0.0
O147 O 0.85201 0.67067 0.85757 0.0
O148 O 0.80071 0.65458 0.81925 0.0
O149 O 0.80906 0.71242 0.80207 0.0
O150 O 0.90868 0.77463 0.78204 0.0
O151 O 0.97054 0.83151 0.84939 0.0
O152 O 0.96527 0.76319 0.79038 0.0
O153 O 0.00651 0.8141 0.82815 0.0
C154 C 0.85787 0.8234 0.831 0.0
C155 C 0.93582 0.6596 0.82632 0.0
C156 C 0.78439 0.67253 0.80853 0.0
C157 C 0.86454 0.69603 0.8718 0.0
C158 C 0.94422 0.77253 0.77813 0.0
C159 C 0.0063 0.84124 0.84024 0.0
O160 O 0.86426 0.81351 0.81463 0.0
O161 O 0.15202 0.05704 0.84935 0.0
Zn162 Zn 0.18195 0.12488 0.85139 0.0
O163 O 0.21717 0.15247 0.82923 0.0
Zn164 Zn 0.28091 0.17908 0.83432 0.0
Zn165 Zn 0.19972 0.10769 0.80999 0.0
Zn166 Zn 0.20731 0.20056 0.82142 0.0
O167 O 0.31611 0.24493 0.8276 0.0
O168 O 0.26004 0.26059 0.82929 0.0
O169 O 0.22149 0.14655 0.87429 0.0
O170 O 0.28993 0.17976 0.86138 0.0
O171 O 0.30615 0.14199 0.82382 0.0
O172 O 0.24856 0.09213 0.80666 0.0
O173 O 0.18776 0.13056 0.78577 0.0
O174 O 0.12983 0.13696 0.85274 0.0
O175 O 0.19915 0.19881 0.79388 0.0
O176 O 0.14847 0.19051 0.83143 0.0
C177 C 0.1371 0.03163 0.8351 0.0
C178 C 0.30226 0.2733 0.82951 0.0
C179 C 0.28813 0.1072 0.81336 0.0
C180 C 0.2647 0.16731 0.87563 0.0
C181 C 0.18996 0.16825 0.78172 0.0
C182 C 0.1208 0.16328 0.84341 0.0
O183 O 0.14751 0.0478 0.81872 0.0
O184 O 0.90392 0.08939 0.84762 0.0
Zn185 Zn 0.83611 0.05226 0.84778 0.0
O186 O 0.81314 0.06354 0.82525 0.0
Zn187 Zn 0.78828 0.10227 0.82976 0.0
Zn188 Zn 0.85977 0.08862 0.80675 0.0
Zn189 Zn 0.76443 0.0077 0.81662 0.0
O190 O 0.72259 0.07305 0.82299 0.0
O191 O 0.70595 0.00116 0.82591 0.0
O192 O 0.81227 0.06936 0.87008 0.0
O193 O 0.78737 0.11179 0.85678 0.0
O194 O 0.82687 0.16336 0.81855 0.0
O195 O 0.87621 0.15329 0.80201 0.0
O196 O 0.83891 0.05099 0.783 0.0
O197 O 0.82227 -0.01268 0.84828 0.0
O198 O 0.76511 0.00614 0.78896 0.0
O199 O 0.77403 0.9569 0.82485 0.0
C200 C 0.93154 0.10122 0.83409 0.0
C201 C 0.69401 0.03127 0.82596 0.0
C202 C 0.86162 0.17881 0.80812 0.0
C203 C 0.79547 0.09549 0.87116 0.0
C204 C 0.79867 0.02186 0.77783 0.0
C205 C 0.79841 0.95398 0.83754 0.0
O206 O 0.91814 0.09667 0.81732 0.0
O207 O 0.80487 0.88387 0.63472 0.0
Zn208 Zn 0.77351 0.92053 0.63385 0.0
O209 O 0.73769 0.90906 0.65606 0.0
Zn210 Zn 0.67427 0.87161 0.65093 0.0
Zn211 Zn 0.75682 0.88218 0.67478 0.0
Zn212 Zn 0.74489 0.96482 0.66492 0.0
O213 O 0.63813 0.90147 0.65713 0.0
O214 O 0.69431 0.9731 0.65516 0.0
O215 O 0.73391 0.90331 0.61097 0.0
O216 O 0.66581 0.86294 0.62389 0.0
O217 O 0.6497 0.80986 0.66163 0.0
O218 O 0.70779 0.81721 0.67836 0.0
O219 O 0.77177 0.91826 0.69885 0.0
O220 O 0.82451 0.9857 0.63378 0.0
O221 O 0.74582 0.96551 0.69263 0.0
O222 O 0.80577 0.01526 0.65724 0.0
C223 C 0.8193 0.87153 0.64856 0.0
C224 C 0.65214 0.94352 0.65447 0.0
C225 C 0.66789 0.79285 0.67183 0.0
C226 C 0.69086 0.87814 0.60964 0.0
C227 C 0.76179 0.94825 0.70393 0.0
C228 C 0.83359 0.01862 0.64472 0.0
O229 O 0.80826 0.8749 0.66512 0.0
O230 O 0.0879 0.92008 0.63647 0.0
Zn231 Zn 0.05056 0.85245 0.6341 0.0
O232 O 0.05813 0.82458 0.65618 0.0
Zn233 Zn 0.09509 0.79785 0.65095 0.0
Zn234 Zn 0.08576 0.86891 0.67555 0.0
Zn235 Zn 4e-05 0.77653 0.66387 0.0
O236 O 0.06364 0.73153 0.65664 0.0
O237 O -0.00769 0.71699 0.65492 0.0
O238 O 0.06933 0.832 0.61114 0.0
O239 O 0.10489 0.79906 0.62395 0.0
O240 O 0.157 0.83344 0.66189 0.0
O241 O 0.15027 0.88436 0.6787 0.0
O242 O 0.0509 0.84546 0.69971 0.0
O243 O -0.01376 0.83999 0.63241 0.0
O244 O -0.00608 0.77732 0.69148 0.0
O245 O 0.95152 0.78743 0.65409 0.0
C246 C 0.09836 0.94521 0.65079 0.0
C247 C 0.02149 0.70389 0.65413 0.0
C248 C 0.17428 0.86853 0.67218 0.0
C249 C 0.09237 0.81188 0.60974 0.0
C250 C 0.01544 0.80769 0.70371 0.0
C251 C 0.95097 0.81411 0.64187 0.0
O252 O 0.09304 0.92882 0.66712 0.0
O253 O 0.04883 0.16571 0.63887 0.0
Zn254 Zn 0.1164 0.19604 0.63704 0.0
O255 O 0.14309 0.23149 0.6592 0.0
Zn256 Zn 0.17026 0.29533 0.65383 0.0
Zn257 Zn 0.09772 0.21462 0.67817 0.0
Zn258 Zn 0.19059 0.22139 0.66748 0.0
O259 O 0.23639 0.33022 0.65979 0.0
O260 O 0.25042 0.27296 0.65865 0.0
O261 O 0.1373 0.23524 0.61406 0.0
O262 O 0.16978 0.3039 0.62677 0.0
O263 O 0.13421 0.32167 0.66424 0.0
O264 O 0.08207 0.26377 0.68065 0.0
O265 O 0.12001 0.20317 0.70268 0.0
O266 O 0.12915 0.14426 0.63572 0.0
O267 O 0.18852 0.21461 0.69509 0.0
O268 O 0.17999 0.16176 0.65807 0.0
C269 C 0.0228 0.15092 0.65293 0.0
C270 C 0.2638 0.31534 0.65758 0.0
C271 C 0.09831 0.30369 0.67404 0.0
C272 C 0.15726 0.27844 0.61259 0.0
C273 C 0.15756 0.20552 0.70705 0.0
C274 C 0.15423 0.13467 0.64562 0.0
O275 O 0.03817 0.16177 0.6694 0.0
O276 O 0.75008 0.49499 0.46548 0.0
Zn277 Zn 0.71321 0.52611 0.46409 0.0
O278 O 0.72304 0.56178 0.48623 0.0
Zn279 Zn 0.76097 0.62542 0.48109 0.0
Zn280 Zn 0.74847 0.54204 0.50537 0.0
Zn281 Zn 0.66665 0.5542 0.49451 0.0
O282 O 0.73064 0.66158 0.48678 0.0
O283 O 0.659 0.60538 0.48498 0.0
O284 O 0.73126 0.5658 0.44125 0.0
O285 O 0.77122 0.63419 0.45404 0.0
O286 O 0.8219 0.64967 0.49267 0.0
O287 O 0.81268 0.59142 0.5099 0.0
O288 O 0.71067 0.52604 0.52902 0.0
O289 O 0.64829 0.47499 0.46336 0.0
O290 O 0.66373 0.55197 0.52226 0.0
O291 O 0.61675 0.49368 0.48609 0.0
C292 C 0.76174 0.48041 0.47949 0.0
C293 C 0.68858 0.6476 0.48432 0.0
C294 C 0.8377 0.6314 0.5035 0.0
C295 C 0.75641 0.60889 0.43983 0.0
C296 C 0.68029 0.53573 0.53377 0.0
C297 C 0.61442 0.46596 0.4737 0.0
O298 O 0.75721 0.4911 0.49597 0.0
O299 O 0.46783 0.24992 0.46771 0.0
Zn300 Zn 0.43698 0.182 0.46655 0.0
O301 O 0.40238 0.15659 0.48891 0.0
Zn302 Zn 0.33861 0.1307 0.48424 0.0
Zn303 Zn 0.42263 0.20214 0.50789 0.0
Zn304 Zn 0.41063 0.10799 0.49698 0.0
O305 O 0.3031 0.06413 0.48986 0.0
O306 O 0.35941 0.04912 0.48739 0.0
O307 O 0.39643 0.15992 0.44409 0.0
O308 O 0.32865 0.13211 0.45729 0.0
O309 O 0.31436 0.167 0.49618 0.0
O310 O 0.37344 0.21702 0.51272 0.0
O311 O 0.43895 0.18038 0.53143 0.0
O312 O 0.48809 0.16841 0.46524 0.0
O313 O 0.41317 0.10737 0.52471 0.0
O314 O 0.47113 0.11899 0.48821 0.0
C315 C 0.48309 0.27651 0.48159 0.0
C316 C 0.31719 0.03628 0.48695 0.0
C317 C 0.33307 0.20153 0.50677 0.0
C318 C 0.35342 0.14224 0.44294 0.0
C319 C 0.42936 0.14027 0.53619 0.0
C320 C 0.49797 0.14407 0.47551 0.0
O321 O 0.47326 0.26169 0.49816 0.0
O322 O 0.71319 0.21261 0.46628 0.0
Zn323 Zn 0.78118 0.24952 0.46434 0.0
O324 O 0.80816 0.2411 0.48646 0.0
Zn325 Zn 0.8339 0.20321 0.48148 0.0
Zn326 Zn 0.76355 0.21579 0.50583 0.0
Zn327 Zn 0.85711 0.29819 0.49432 0.0
O328 O 0.90039 0.23398 0.48704 0.0
O329 O 0.91607 0.30571 0.48491 0.0
O330 O 0.80177 0.23026 0.44155 0.0
O331 O 0.83164 0.19187 0.45451 0.0
O332 O 0.79778 0.14253 0.49335 0.0
O333 O 0.7487 0.15164 0.51048 0.0
O334 O 0.78599 0.25377 0.52931 0.0
O335 O 0.79497 0.31446 0.46305 0.0
O336 O 0.8583 0.30208 0.52208 0.0
O337 O 0.84595 0.34757 0.48544 0.0
C338 C 0.68767 0.20169 0.4805 0.0
C339 C 0.92861 0.27605 0.48451 0.0
C340 C 0.76376 0.12668 0.50419 0.0
C341 C 0.82006 0.20547 0.44024 0.0
C342 C 0.82595 0.28492 0.5338 0.0
C343 C 0.82007 0.34901 0.47305 0.0
O344 O 0.70369 0.20698 0.49686 0.0
O345 O 0.82213 0.42795 0.67584 0.0
Zn346 Zn 0.8534 0.39132 0.67744 0.0
O347 O 0.88856 0.40044 0.65523 0.0
Zn348 Zn 0.95217 0.43816 0.66019 0.0
Zn349 Zn 0.86936 0.42653 0.6362 0.0
Zn350 Zn 0.88056 0.34372 0.64706 0.0
O351 O -0.01189 0.40796 0.65423 0.0
O352 O 0.93185 0.3365 0.65687 0.0
O353 O 0.89316 0.40996 0.70018 0.0
O354 O 0.96137 0.44819 0.68721 0.0
O355 O 0.97646 0.4995 0.64911 0.0
O356 O 0.91794 0.49152 0.63251 0.0
O357 O 0.85506 0.38999 0.61235 0.0
O358 O 0.80274 0.32635 0.67869 0.0
O359 O 0.87831 0.34086 0.61925 0.0
O360 O 0.82006 0.29393 0.65585 0.0
C361 C 0.80696 0.43863 0.66174 0.0
C362 C 0.97406 0.36607 0.65736 0.0
C363 C 0.95789 0.51616 0.63893 0.0
C364 C 0.93625 0.43435 0.70148 0.0
C365 C 0.86368 0.35882 0.60765 0.0
C366 C 0.79313 0.29205 0.66853 0.0
O367 O 0.81737 0.43353 0.6453 0.0
O368 O 0.53971 0.39068 0.67672 0.0
Zn369 Zn 0.57684 0.45879 0.67788 0.0
O370 O 0.56707 0.48414 0.65558 0.0
Zn371 Zn 0.53049 0.51122 0.66055 0.0
Zn372 Zn 0.53985 0.43815 0.63685 0.0
Zn373 Zn 0.62344 0.53224 0.64692 0.0
O374 O 0.56111 0.5772 0.65397 0.0
O375 O 0.6321 0.59143 0.65658 0.0
O376 O 0.55961 0.48142 0.70066 0.0
O377 O 0.5223 0.51226 0.68759 0.0
O378 O 0.46841 0.47387 0.65023 0.0
O379 O 0.47479 0.42198 0.63386 0.0
O380 O 0.57532 0.45956 0.61262 0.0
O381 O 0.64159 0.47239 0.6786 0.0
O382 O 0.62503 0.53208 0.61916 0.0
O383 O 0.67293 0.52104 0.6553 0.0
C384 C 0.52846 0.36426 0.66277 0.0
C385 C 0.60308 0.60471 0.657 0.0
C386 C 0.45084 0.43792 0.64044 0.0
C387 C 0.53621 0.50121 0.7019 0.0
C388 C 0.60649 0.49924 0.60769 0.0
C389 C 0.67525 0.49632 0.66801 0.0
O390 O 0.53299 0.37923 0.64624 0.0
O391 O 0.57799 0.14492 0.67791 0.0
Zn392 Zn 0.50999 0.11439 0.67961 0.0
O393 O 0.48333 0.0783 0.65762 0.0
Zn394 Zn 0.45714 0.0148 0.66301 0.0
Zn395 Zn 0.52812 0.0967 0.63841 0.0
Zn396 Zn 0.43466 0.08615 0.64936 0.0
O397 O 0.39107 0.97871 0.65682 0.0
O398 O 0.37584 0.03498 0.65905 0.0
O399 O 0.48805 0.07537 0.70267 0.0
O400 O 0.45751 0.00656 0.69012 0.0
O401 O 0.4939 -0.00998 0.65213 0.0
O402 O 0.54301 0.04718 0.63448 0.0
O403 O 0.5062 0.11169 0.61463 0.0
O404 O 0.49673 0.16585 0.6802 0.0
O405 O 0.43386 0.08806 0.62159 0.0
O406 O 0.44571 0.14697 0.65777 0.0
C407 C 0.60366 0.15912 0.66372 0.0
C408 C 0.36311 -0.00729 0.65953 0.0
C409 C 0.52803 0.00762 0.64134 0.0
C410 C 0.46876 0.0322 0.70425 0.0
C411 C 0.4664 0.10295 0.60997 0.0
C412 C 0.47163 0.17484 0.67002 0.0
O413 O 0.5878 0.14808 0.64735 0.0
O414 O 0.54326 0.14253 0.18028 0.0
Zn415 Zn 0.58019 0.11141 0.18098 0.0
O416 O 0.56937 0.07606 0.15867 0.0
Zn417 Zn 0.53192 0.01231 0.16378 0.0
Zn418 Zn 0.54285 0.09597 0.14003 0.0
Zn419 Zn 0.6254 0.08404 0.14969 0.0
O420 O 0.5623 0.97648 0.15755 0.0
O421 O 0.63391 0.03297 0.15874 0.0
O422 O 0.56279 0.07148 0.20373 0.0
O423 O 0.5225 0.00322 0.19087 0.0
O424 O 0.47045 -0.01206 0.15271 0.0
O425 O 0.47855 0.04644 0.13596 0.0
O426 O 0.57936 0.11232 0.11601 0.0
O427 O 0.64516 0.16246 0.18137 0.0
O428 O 0.62668 0.08639 0.12195 0.0
O429 O 0.67554 0.14472 0.15789 0.0
C430 C 0.5306 0.15708 0.16658 0.0
C431 C 0.60454 -0.00931 0.15951 0.0
C432 C 0.45397 0.00634 0.14231 0.0
C433 C 0.53762 0.0284 0.20511 0.0
C434 C 0.60948 0.1027 0.11079 0.0
C435 C 0.67842 0.172 0.17059 0.0
O436 O 0.53421 0.1466 0.14995 0.0
O437 O 0.8252 0.38712 0.17857 0.0
Zn438 Zn 0.85489 0.45463 0.18111 0.0
O439 O 0.88952 0.48312 0.15897 0.0
Zn440 Zn 0.95341 0.50964 0.16389 0.0
Zn441 Zn 0.87175 0.43898 0.13944 0.0
Zn442 Zn 0.87903 0.53122 0.15178 0.0
O443 O -0.01187 0.5761 0.15828 0.0
O444 O 0.93148 0.59084 0.16032 0.0
O445 O 0.89471 0.47486 0.20382 0.0
O446 O 0.96304 0.50807 0.19085 0.0
O447 O -0.02105 0.47385 0.15239 0.0
O448 O 0.9207 0.42377 0.13557 0.0
O449 O 0.85932 0.46278 0.1156 0.0
O450 O 0.80291 0.46668 0.1834 0.0
O451 O 0.87071 0.53073 0.12424 0.0
O452 O 0.82011 0.52024 0.16223 0.0
C453 C 0.8098 0.36206 0.16427 0.0
C454 C 0.97378 0.60389 0.16079 0.0
C455 C 0.96068 0.43915 0.14188 0.0
C456 C 0.93787 0.49493 0.20512 0.0
C457 C 0.8614 0.50056 0.11187 0.0
C458 C 0.79324 0.49299 0.17441 0.0
O459 O 0.81962 0.37866 0.14794 0.0
O460 O 0.57762 0.42303 0.1833 0.0
Zn461 Zn 0.50967 0.38609 0.18464 0.0
O462 O 0.48414 0.39572 0.1624 0.0
Zn463 Zn 0.45932 0.43442 0.16712 0.0
Zn464 Zn 0.52912 0.4203 0.14321 0.0
Zn465 Zn 0.43481 0.3392 0.15448 0.0
O466 O 0.39325 0.40477 0.16095 0.0
O467 O 0.37632 0.33277 0.1638 0.0
O468 O 0.48778 0.40454 0.20728 0.0
O469 O 0.46036 0.44497 0.19411 0.0
O470 O 0.49655 0.49503 0.15531 0.0
O471 O 0.54457 0.48448 0.13808 0.0
O472 O 0.50675 0.38193 0.11978 0.0
O473 O 0.49597 0.32113 0.1855 0.0
O474 O 0.43379 0.3359 0.12678 0.0
O475 O 0.44511 0.28904 0.16303 0.0
C476 C 0.6037 0.43409 0.16926 0.0
C477 C 0.36447 0.36296 0.16372 0.0
C478 C 0.53018 0.51008 0.14429 0.0
C479 C 0.47028 0.43008 0.20845 0.0
C480 C 0.46638 0.35192 0.11517 0.0
C481 C 0.47091 0.287 0.1753 0.0
O482 O 0.58845 0.42896 0.15276 0.0
O483 O 0.4665 0.21421 0.97139 0.0
Zn484 Zn 0.43578 0.25145 0.97089 0.0
O485 O 0.40092 0.24036 -0.00671 0.0
Zn486 Zn 0.33734 0.20254 0.98838 0.0
Zn487 Zn 0.42081 0.21365 0.01173 0.0
Zn488 Zn 0.40857 0.29625 0.00225 0.0
O489 O 0.30124 0.232 -0.00474 0.0
O490 O 0.35724 0.30359 -0.0074 0.0
O491 O 0.39562 0.23482 0.94828 0.0
O492 O 0.32768 0.1944 0.9613 0.0
O493 O 0.31373 0.1406 -0.00121 0.0
O494 O 0.37233 0.14861 0.01534 0.0
O495 O 0.43618 0.24945 0.03581 0.0
O496 O 0.48679 0.31645 0.97051 0.0
O497 O 0.41037 0.29703 0.03002 0.0
O498 O 0.46933 0.34686 -0.00592 0.0
C499 C 0.4818 0.20234 0.9851 0.0
C500 C 0.31506 0.27384 -0.00785 0.0
C501 C 0.33249 0.1239 0.00884 0.0
C502 C 0.35255 0.20996 0.94701 0.0
C503 C 0.42648 0.27948 0.04112 0.0
C504 C 0.49643 0.34979 0.98129 0.0
O505 O 0.47209 0.20664 0.00176 0.0
O506 O 0.74654 0.24958 0.96751 0.0
Zn507 Zn 0.70994 0.18149 0.96639 0.0
O508 O 0.72046 0.15638 0.98862 0.0
Zn509 Zn 0.75769 0.13011 0.98354 0.0
Zn510 Zn 0.74729 0.20223 0.00741 0.0
Zn511 Zn 0.6644 0.10776 -0.00275 0.0
O512 O 0.7276 0.06396 0.98983 0.0
O513 O 0.65627 0.04887 0.98753 0.0
O514 O 0.72718 0.15919 0.94354 0.0
O515 O 0.766 0.12984 0.95651 0.0
O516 O 0.8196 0.16757 -0.00593 0.0
O517 O 0.8124 0.21868 0.01065 0.0
O518 O 0.7116 0.18046 0.03159 0.0
O519 O 0.64507 0.1674 0.96589 0.0
O520 O 0.66297 0.10768 0.02501 0.0
O521 O 0.6144 0.11836 0.9891 0.0
C522 C 0.75803 0.27594 0.98148 0.0
C523 C 0.68565 0.03605 0.98697 0.0
C524 C 0.83669 0.20311 0.0041 0.0
C525 C 0.75142 0.14032 0.94225 0.0
C526 C 0.68096 0.14051 0.0365 0.0
C527 C 0.61163 0.14312 0.97652 0.0
O528 O 0.75401 0.26102 -0.00201 0.0
O529 O 0.71052 0.49829 0.97132 0.0
Zn530 Zn 0.77804 0.52773 0.96835 0.0
O531 O 0.80743 0.56323 -0.00975 0.0
Zn532 Zn 0.83521 0.62705 0.98485 0.0
Zn533 Zn 0.76382 0.54758 0.00989 0.0
Zn534 Zn 0.85498 0.55227 -0.00231 0.0
O535 O 0.90109 0.66152 -0.00878 0.0
O536 O 0.91509 0.60432 0.98929 0.0
O537 O 0.79836 0.56673 0.94522 0.0
O538 O 0.83504 0.63557 0.95777 0.0
O539 O 0.79952 0.65369 -0.00478 0.0
O540 O 0.74891 0.59716 0.01264 0.0
O541 O 0.78763 0.53656 0.03405 0.0
O542 O 0.78956 0.4752 0.9665 0.0
O543 O 0.85404 0.54449 0.02526 0.0
O544 O 0.84346 0.49286 0.98752 0.0
C545 C 0.68608 0.48375 0.98584 0.0
C546 C 0.92861 0.6468 0.98895 0.0
C547 C 0.76462 0.63658 0.00559 0.0
C548 C 0.82051 0.60997 0.94365 0.0
C549 C 0.82468 0.53718 0.03774 0.0
C550 C 0.81586 0.46561 0.97553 0.0
O551 O 0.70336 0.49474 0.00203 0.0
O552 O 0.41996 0.83349 0.80176 0.0
Zn553 Zn 0.38181 0.86296 0.80017 0.0
O554 O 0.38978 0.89768 0.82246 0.0
Zn555 Zn 0.42667 0.96171 0.81741 0.0
Zn556 Zn 0.41757 0.87991 0.84144 0.0
Zn557 Zn 0.33181 0.8871 0.83055 0.0
O558 O 0.39585 -0.00351 0.82432 0.0
O559 O 0.32419 0.93987 0.82297 0.0
O560 O 0.39972 0.90288 0.77743 0.0
O561 O 0.4355 0.97142 0.7903 0.0
O562 O 0.48886 -0.01279 0.82798 0.0
O563 O 0.48168 0.92947 0.84492 0.0
O564 O 0.38276 0.8666 0.86572 0.0
O565 O 0.31759 0.81063 0.79872 0.0
O566 O 0.32597 0.87835 0.85803 0.0
O567 O 0.28288 0.82804 0.82052 0.0
C568 C 0.43133 0.81852 0.81572 0.0
C569 C 0.35354 0.98225 0.82267 0.0
C570 C 0.50589 0.96933 0.83835 0.0
C571 C 0.42255 0.94613 0.77606 0.0
C572 C 0.34736 0.86866 0.86998 0.0
C573 C 0.28236 0.80095 0.80825 0.0
O574 O 0.42607 0.8284 0.83226 0.0
O575 O 0.13637 0.58555 0.79937 0.0
Zn576 Zn 0.10644 0.51794 0.79698 0.0
O577 O 0.07165 0.48972 0.81914 0.0
Zn578 Zn 0.0078 0.46324 0.81419 0.0
Zn579 Zn 0.08936 0.53405 0.83859 0.0
Zn580 Zn 0.08199 0.44163 0.82651 0.0
O581 O 0.97296 0.3969 0.82011 0.0
O582 O 0.02942 0.38182 0.81825 0.0
O583 O 0.06671 0.49745 0.77421 0.0
O584 O -0.00161 0.46426 0.7872 0.0
O585 O -0.01761 0.49951 0.8254 0.0
O586 O 0.04059 0.54962 0.84223 0.0
O587 O 0.10131 0.51035 0.8626 0.0
O588 O 0.15839 0.50585 0.79492 0.0
O589 O 0.09017 0.44244 0.85406 0.0
O590 O 0.14091 0.45239 0.81617 0.0
C591 C 0.15166 0.61065 0.81368 0.0
C592 C -0.01286 0.36888 0.81788 0.0
C593 C 0.00071 0.53436 0.83583 0.0
C594 C 0.02353 0.47723 0.77293 0.0
C595 C 0.09922 0.47259 0.86641 0.0
C596 C 0.16795 0.47961 0.80402 0.0
O597 O 0.14162 0.59417 0.83002 0.0
O598 O 0.38464 0.55291 0.7973 0.0
Zn599 Zn 0.45261 0.59005 0.79676 0.0
O600 O 0.4764 0.57889 0.81913 0.0
Zn601 Zn 0.50074 0.53982 0.81441 0.0
Zn602 Zn 0.43042 0.55419 0.8379 0.0
Zn603 Zn 0.52554 0.63465 0.82767 0.0
O604 O 0.56654 0.56869 0.82097 0.0
O605 O 0.58391 0.64088 0.81837 0.0
O606 O 0.47587 0.57277 0.77421 0.0
O607 O 0.50086 0.53024 0.78737 0.0
O608 O 0.46234 0.47891 0.82582 0.0
O609 O 0.41431 0.4898 0.84291 0.0
O610 O 0.45163 0.59212 0.86149 0.0
O611 O 0.46651 0.65509 0.79649 0.0
O612 O 0.52535 0.63657 0.85537 0.0
O613 O 0.516 0.68553 0.81954 0.0
C614 C 0.3576 0.54114 0.81104 0.0
C615 C 0.59548 0.61049 0.81826 0.0
C616 C 0.42835 0.46396 0.83666 0.0
C617 C 0.49253 0.5465 0.77303 0.0
C618 C 0.49195 0.62115 0.86657 0.0
C619 C 0.49098 0.68847 0.80714 0.0
O620 O 0.37174 0.5458 0.82771 0.0
O621 O 0.48784 0.75635 0.01094 0.0
Zn622 Zn 0.51887 0.71944 0.01113 0.0
O623 O 0.55365 0.73139 0.98866 0.0
Zn624 Zn 0.61723 0.76926 -0.00658 0.0
Zn625 Zn 0.53346 0.75802 0.97031 0.0
Zn626 Zn 0.5463 0.67579 0.97957 0.0
O627 O 0.65329 0.73986 0.98642 0.0
O628 O 0.59744 0.66825 0.98919 0.0
O629 O 0.55942 0.736 0.03367 0.0
O630 O 0.62705 0.77732 0.02047 0.0
O631 O 0.64083 0.83115 0.98293 0.0
O632 O 0.58198 0.82307 0.96655 0.0
O633 O 0.51802 0.72223 0.94615 0.0
O634 O 0.46775 0.65435 0.01124 0.0
O635 O 0.54517 0.67574 0.95186 0.0
O636 O 0.48542 0.62499 0.98737 0.0
C637 C 0.47256 0.76861 -0.00264 0.0
C638 C 0.6396 0.69803 0.98951 0.0
C639 C 0.62201 0.84779 0.97289 0.0
C640 C 0.60248 0.76133 0.03481 0.0
C641 C 0.52857 0.69284 0.94079 0.0
C642 C 0.45812 0.62153 0.00016 0.0
O643 O 0.48238 0.76499 0.98062 0.0
O644 O 0.20542 0.7207 0.01197 0.0
Zn645 Zn 0.24293 0.78838 0.01409 0.0
O646 O 0.23477 0.81586 -0.00796 0.0
Zn647 Zn 0.19768 0.84235 -0.00268 0.0
Zn648 Zn 0.207 0.77124 0.9728 0.0
Zn649 Zn 0.29251 0.86415 0.98423 0.0
O650 O 0.22827 0.9084 -0.00888 0.0
O651 O 0.29977 0.92358 -0.00697 0.0
O652 O 0.2251 0.80952 0.03709 0.0
O653 O 0.18929 0.8423 0.02435 0.0
O654 O 0.13536 0.8057 0.9869 0.0
O655 O 0.1422 0.75512 0.96988 0.0
O656 O 0.24156 0.79456 0.94856 0.0
O657 O 0.30724 0.80085 0.01542 0.0
O658 O 0.29834 0.86297 0.95664 0.0
O659 O 0.34148 0.85395 -0.0061 0.0
C660 C 0.19494 0.69544 -0.00232 0.0
C661 C 0.27034 0.93636 -0.00635 0.0
C662 C 0.11806 0.77054 0.97665 0.0
C663 C 0.20232 0.8299 0.03854 0.0
C664 C 0.27689 0.83238 0.94448 0.0
C665 C 0.34235 0.8271 0.00595 0.0
O666 O 0.20025 0.71166 0.98133 0.0
O667 O 0.24321 0.47411 0.00821 0.0
Zn668 Zn 0.1756 0.444 0.01073 0.0
O669 O 0.14723 0.40828 0.98874 0.0
Zn670 Zn 0.11934 0.34444 -0.00571 0.0
Zn671 Zn 0.19177 0.42406 0.96945 0.0
Zn672 Zn 0.09999 0.41914 0.9807 0.0
O673 O 0.0531 0.31005 0.98841 0.0
O674 O 0.03961 0.3677 0.9892 0.0
O675 O 0.15563 0.40516 0.03388 0.0
O676 O 0.12036 0.33628 0.02136 0.0
O677 O 0.15473 0.31734 0.98395 0.0
O678 O 0.2068 0.37446 0.96719 0.0
O679 O 0.169 0.4351 0.94499 0.0
O680 O 0.16326 0.49602 0.01233 0.0
O681 O 0.1019 0.42652 0.95309 0.0
O682 O 0.11129 0.47873 -0.00954 0.0
C683 C 0.2684 0.4884 -0.00611 0.0
C684 C 0.02583 0.32522 -0.00977 0.0
C685 C 0.19046 0.33478 0.97405 0.0
C686 C 0.13448 0.36194 0.03546 0.0
C687 C 0.13198 0.43418 0.9409 0.0
C688 C 0.13778 0.50574 0.00278 0.0
O689 O 0.25197 0.477 0.9776 0.0
O690 O 0.20461 0.47781 0.51465 0.0
Zn691 Zn 0.24181 0.4471 0.51646 0.0
O692 O 0.23286 0.41131 0.49444 0.0
Zn693 Zn 0.19463 0.34771 0.49961 0.0
Zn694 Zn 0.20806 0.43092 0.475 0.0
Zn695 Zn 0.28964 0.41902 0.4866 0.0
O696 O 0.22521 0.31155 0.49436 0.0
O697 O 0.29685 0.36771 0.49637 0.0
O698 O 0.22351 0.40758 0.53935 0.0
O699 O 0.18355 0.33911 0.52663 0.0
O700 O 0.13409 0.32339 0.4876 0.0
O701 O 0.14413 0.38149 0.47007 0.0
O702 O 0.24678 0.4471 0.45166 0.0
O703 O 0.30658 0.49848 0.51744 0.0
O704 O 0.29363 0.42134 0.45886 0.0
O705 O 0.33922 0.47964 0.49522 0.0
C706 C 0.1935 0.49233 0.50046 0.0
C707 C 0.2672 0.32549 0.49702 0.0
C708 C 0.1188 0.34157 0.47646 0.0
C709 C 0.19824 0.36453 0.54081 0.0
C710 C 0.27742 0.43757 0.44718 0.0
C711 C 0.34093 0.50747 0.50743 0.0
O712 O 0.19884 0.48172 0.48408 0.0
O713 O 0.48771 0.72365 0.51372 0.0
Zn714 Zn 0.5186 0.79169 0.51477 0.0
O715 O 0.55337 0.81683 0.49241 0.0
Zn716 Zn 0.61707 0.8427 0.49711 0.0
Zn717 Zn 0.53311 0.77118 0.47348 0.0
Zn718 Zn 0.54551 0.86552 0.48419 0.0
O719 O 0.65279 0.90899 0.49104 0.0
O720 O 0.5968 0.92443 0.49367 0.0
O721 O 0.55917 0.81439 0.5373 0.0
O722 O 0.62697 0.84224 0.5241 0.0
O723 O 0.64107 0.80589 0.48548 0.0
O724 O 0.58223 0.75616 0.46875 0.0
O725 O 0.51693 0.79282 0.44985 0.0
O726 O 0.46733 0.8052 0.5157 0.0
O727 O 0.54322 0.86596 0.45647 0.0
O728 O 0.48501 0.85473 0.49272 0.0
C729 C 0.47248 0.69701 0.49985 0.0
C730 C 0.63898 0.93708 0.49392 0.0
C731 C 0.62245 0.77145 0.47484 0.0
C732 C 0.60223 0.83239 0.53845 0.0
C733 C 0.52684 0.83298 0.44502 0.0
C734 C 0.45776 0.82956 0.5053 0.0
O735 O 0.48242 0.71177 0.48327 0.0
O736 O 0.24211 0.76021 0.51274 0.0
Zn737 Zn 0.17416 0.72345 0.51432 0.0
O738 O 0.14796 0.73226 0.49208 0.0
Zn739 Zn 0.12192 0.76994 0.49696 0.0
Zn740 Zn 0.19322 0.75802 0.47295 0.0
Zn741 Zn 0.09935 0.67526 0.484 0.0
O742 O 0.05555 0.73911 0.49117 0.0
O743 O 0.04026 0.66751 0.49332 0.0
O744 O 0.15315 0.74251 0.53698 0.0
O745 O 0.12343 0.78094 0.52394 0.0
O746 O 0.15833 0.83089 0.48534 0.0
O747 O 0.20842 0.82245 0.46862 0.0
O748 O 0.17123 0.72058 0.44926 0.0
O749 O 0.16013 0.65852 0.5157 0.0
O750 O 0.09881 0.67191 0.45624 0.0
O751 O 0.11025 0.62575 0.49292 0.0
C752 C 0.26817 0.77136 0.49869 0.0
C753 C 0.02751 0.697 0.49374 0.0
C754 C 0.193 0.84717 0.47484 0.0
C755 C 0.13475 0.7672 0.53824 0.0
C756 C 0.13137 0.68943 0.44462 0.0
C757 C 0.13548 0.6241 0.50557 0.0
O758 O 0.25278 0.76644 0.48223 0.0
O759 O 0.13794 0.54591 0.30328 0.0
Zn760 Zn 0.1063 0.5822 0.30119 0.0
O761 O 0.07033 0.57323 0.32319 0.0
Zn762 Zn 0.00688 0.53562 0.31789 0.0
Zn763 Zn 0.0888 0.54703 0.34248 0.0
Zn764 Zn 0.07811 0.63 0.33125 0.0
O765 O 0.97081 0.56612 0.32314 0.0
O766 O 0.02723 0.63769 0.32126 0.0
O767 O 0.06729 0.56305 0.27819 0.0
O768 O -0.00124 0.52499 0.29091 0.0
O769 O -0.01811 0.47442 0.32921 0.0
O770 O 0.03993 0.48207 0.34605 0.0
O771 O 0.10262 0.58371 0.36628 0.0
O772 O 0.15683 0.64727 0.3 0.0
O773 O 0.08006 0.63319 0.35906 0.0
O774 O 0.13867 0.67963 0.3226 0.0
C775 C 0.15245 0.53514 0.31756 0.0
C776 C -0.01495 0.60818 0.32036 0.0
C777 C 7e-05 0.4576 0.33952 0.0
C778 C 0.02424 0.53848 0.27673 0.0
C779 C 0.09427 0.61516 0.37081 0.0
C780 C 0.16601 0.68156 0.31011 0.0
O781 O 0.14107 0.53994 0.33387 0.0
O782 O 0.42091 0.58388 0.3049 0.0
Zn783 Zn 0.38397 0.51583 0.30349 0.0
O784 O 0.39307 0.48997 0.3258 0.0
Zn785 Zn 0.42947 0.46259 0.32092 0.0
Zn786 Zn 0.4202 0.53572 0.34465 0.0
Zn787 Zn 0.33625 0.44202 0.33423 0.0
O788 O 0.39798 0.39625 0.32694 0.0
O789 O 0.32716 0.38266 0.32454 0.0
O790 O 0.40223 0.49403 0.28078 0.0
O791 O 0.43916 0.46288 0.29394 0.0
O792 O 0.49114 0.49884 0.33178 0.0
O793 O 0.48501 0.55121 0.34788 0.0
O794 O 0.38427 0.51411 0.36875 0.0
O795 O 0.31923 0.50222 0.30235 0.0
O796 O 0.33412 0.44185 0.36199 0.0
O797 O 0.2872 0.45374 0.32566 0.0
C798 C 0.43214 0.61016 0.31888 0.0
C799 C 0.35592 0.36904 0.32399 0.0
C800 C 0.50877 0.53479 0.34157 0.0
C801 C 0.42587 0.4745 0.2796 0.0
C802 C 0.35277 0.47449 0.37355 0.0
C803 C 0.28528 0.47845 0.31283 0.0
O804 O 0.42761 0.59501 0.33539 0.0
O805 O 0.38148 0.82868 0.30244 0.0
Zn806 Zn 0.44944 0.85947 0.30128 0.0
O807 O 0.4747 0.89537 0.32339 0.0
Zn808 Zn 0.50041 0.95884 0.31808 0.0
Zn809 Zn 0.4293 0.87622 0.34235 0.0
Zn810 Zn 0.5234 0.88807 0.33196 0.0
O811 O 0.56638 -0.00474 0.32435 0.0
O812 O 0.58187 0.93918 0.32206 0.0
O813 O 0.47213 0.8988 0.27834 0.0
O814 O 0.50054 0.96735 0.29096 0.0
O815 O 0.46313 0.98309 0.32894 0.0
O816 O 0.41393 0.92541 0.34636 0.0
O817 O 0.45078 0.8609 0.36619 0.0
O818 O 0.46308 0.80822 0.30099 0.0
O819 O 0.5238 0.88669 0.35973 0.0
O820 O 0.51293 0.82726 0.32389 0.0
C821 C 0.35512 0.81417 0.31642 0.0
C822 C 0.59436 0.98138 0.32144 0.0
C823 C 0.42883 0.96509 0.33964 0.0
C824 C 0.49056 0.94191 0.27682 0.0
C825 C 0.49075 0.87068 0.37113 0.0
C826 C 0.48773 0.79934 0.31151 0.0
O827 O 0.37013 0.82493 0.33292 0.0
C828 C 0.1136 0.0942 0.12998 0.0
C829 C 0.12071 0.11911 0.14639 0.0
H830 H 0.12074 0.04247 0.11606 0.0
C831 C 0.14585 0.11449 0.16076 0.0
H832 H 0.09461 0.09738 0.11861 0.0
C833 C 0.1617 0.08389 0.15914 0.0
C834 C 0.15196 0.05666 0.14323 0.0
H835 H 0.15252 0.13387 0.17344 0.0
H836 H 0.17934 0.07979 0.17081 0.0
C837 C 0.12875 0.06295 0.12848 0.0
C838 C 0.88315 0.06814 0.15277 0.0
C839 C 0.9142 0.08441 0.13797 0.0
H840 H 0.83026 0.01003 0.16663 0.0
C841 C 0.91169 0.05356 0.12439 0.0
H842 H 0.88417 0.09086 0.16352 0.0
C843 C 0.88032 0.00709 0.12614 0.0
C844 C 0.85169 -0.00932 0.14167 0.0
H845 H 0.93516 0.06505 0.11284 0.0
H846 H 0.88001 0.98381 0.11581 0.0
C847 C 0.85259 0.02172 0.1547 0.0
C848 C 0.96124 0.86001 0.12852 0.0
C849 C 0.97699 0.85015 0.14488 0.0
H850 H 0.9039 0.85424 0.11381 0.0
C851 C 0.94545 0.82151 0.15813 0.0
H852 H -0.01513 0.88169 0.11799 0.0
C853 C 0.89915 0.8049 0.15555 0.0
C854 C 0.88348 0.81734 0.13981 0.0
H855 H 0.9566 0.8126 0.1707 0.0
H856 H 0.87598 0.78444 0.16643 0.0
C857 C 0.91488 0.84407 0.12608 0.0
C858 C 0.1055 0.15025 0.32135 0.0
C859 C 0.10661 0.12047 0.33452 0.0
H860 H 0.0734 0.18697 0.31224 0.0
C861 C 0.07771 0.10795 0.34997 0.0
H862 H 0.12803 0.16112 0.30949 0.0
C863 C 0.04595 0.12247 0.35152 0.0
C864 C 0.04326 0.15045 0.33782 0.0
H865 H 0.0782 0.08527 0.3604 0.0
H866 H 0.02237 0.11034 0.36303 0.0
C867 C 0.07449 0.16548 0.32308 0.0
C868 C 0.79897 0.90163 0.317 0.0
C869 C 0.80898 0.88471 0.33302 0.0
H870 H 0.80693 0.96021 0.30254 0.0
C871 C 0.83174 0.91462 0.34772 0.0
H872 H 0.78168 0.87957 0.30536 0.0
C873 C 0.84599 0.96086 0.34611 0.0
C874 C 0.83841 0.97814 0.32965 0.0
H875 H 0.83995 0.90262 0.36022 0.0
H876 H 0.86456 0.98333 0.35748 0.0
C877 C 0.81389 0.94795 0.31528 0.0
C878 C -0.00087 0.87969 0.34866 0.0
C879 C -0.01651 0.85363 0.33241 0.0
H880 H 0.0562 0.93232 0.36316 0.0
C881 C 0.01508 0.85701 0.3191 0.0
H882 H 0.97548 0.87742 0.35923 0.0
C883 C 0.06127 0.88758 0.32153 0.0
C884 C 0.07674 0.91604 0.33717 0.0
H885 H 0.00404 0.83667 0.30661 0.0
H886 H 0.08445 0.89062 0.31061 0.0
C887 C 0.04535 0.91092 0.35096 0.0
C888 C 0.84531 0.87754 0.85013 0.0
C889 C 0.83824 0.85316 0.83357 0.0
H890 H 0.83776 0.92849 0.86451 0.0
C891 C 0.81281 0.85799 0.81937 0.0
H892 H 0.86451 0.8742 0.86138 0.0
C893 C 0.79659 0.88824 0.82133 0.0
C894 C 0.80622 0.91491 0.8374 0.0
H895 H 0.80615 0.83903 0.80658 0.0
H896 H 0.77872 0.89251 0.80979 0.0
C897 C 0.82978 0.90843 0.85197 0.0
C898 C 0.07946 0.96497 0.85339 0.0
C899 C 0.10715 0.98224 0.83762 0.0
H900 H 0.02564 0.90628 0.86672 0.0
C901 C 0.10546 0.95192 0.82404 0.0
H902 H 0.08038 -0.01234 0.86413 0.0
C903 C 0.07511 0.90538 0.82574 0.0
C904 C 0.0451 0.88829 0.84087 0.0
H905 H 0.12704 0.96427 0.81191 0.0
H906 H 0.07345 0.88321 0.81462 0.0
C907 C 0.04833 0.91841 0.85491 0.0
C908 C 0.01227 0.15258 0.82536 0.0
C909 C -0.01961 0.12147 0.83791 0.0
H910 H 0.08201 0.19193 0.81774 0.0
C911 C -0.00438 0.10953 0.85388 0.0
H912 H 0.00141 0.1631 0.81315 0.0
C913 C 0.04198 0.12578 0.8565 0.0
C914 C 0.07379 0.15491 0.84336 0.0
H915 H 0.97161 0.08593 0.86386 0.0
H916 H 0.05268 0.11389 0.86834 0.0
C917 C 0.05853 0.16956 0.82817 0.0
C918 C 0.87765 0.86499 0.62981 0.0
C919 C 0.84924 0.85246 0.64542 0.0
H920 H 0.93233 0.8623 0.61629 0.0
C921 C 0.85035 0.82221 0.65835 0.0
H922 H 0.87714 0.88801 0.61955 0.0
C923 C 0.88098 0.80662 0.65626 0.0
C924 C 0.91185 0.82175 0.6414 0.0
H925 H 0.82815 0.81129 0.67032 0.0
H926 H 0.88216 0.78482 0.66694 0.0
C927 C 0.90904 0.85009 0.6279 0.0
C928 C 0.15928 0.07122 0.66057 0.0
C929 C 0.14681 0.08796 0.64518 0.0
H930 H 0.15294 0.01276 0.67454 0.0
C931 C 0.12136 0.0578 0.63091 0.0
H932 H 0.17872 0.09346 0.67186 0.0
C933 C 0.10687 0.01148 0.63243 0.0
C934 C 0.11687 -0.00553 0.6484 0.0
H935 H 0.11121 0.06968 0.6189 0.0
H936 H 0.08619 -0.01126 0.62148 0.0
C937 C 0.14407 0.02488 0.66224 0.0
C938 C 0.91147 0.06439 0.63113 0.0
C939 C 0.8804 0.05775 0.64528 0.0
H940 H -0.01901 0.09921 0.62247 0.0
C941 C 0.8962 0.08457 0.66138 0.0
H942 H 0.90037 0.04423 0.6186 0.0
C943 C 0.94242 0.11525 0.66377 0.0
C944 C 0.97369 0.12036 0.64998 0.0
H945 H 0.87325 0.08022 0.6726 0.0
H946 H 0.95373 0.13441 0.67655 0.0
C947 C 0.95765 0.09568 0.63341 0.0
C948 C 0.78607 0.39248 0.45878 0.0
C949 C 0.81233 0.38814 0.47281 0.0
H950 H 0.74957 0.42539 0.44987 0.0
C951 C 0.82506 0.41733 0.48821 0.0
H952 H 0.7757 0.3705 0.44676 0.0
C953 C 0.80924 0.44786 0.49018 0.0
C954 C 0.78109 0.45053 0.47663 0.0
H955 H 0.84514 0.41487 0.49931 0.0
H956 H 0.81832 0.46876 0.50252 0.0
C957 C 0.77092 0.42372 0.46061 0.0
C958 C 0.51649 0.35701 0.4919 0.0
C959 C 0.51291 0.32567 0.47842 0.0
H960 H 0.5502 0.42631 0.50062 0.0
C961 C 0.5387 0.34168 0.46211 0.0
H962 H 0.49637 0.34566 0.50444 0.0
C963 C 0.5699 0.38802 0.45992 0.0
C964 C 0.5752 0.41915 0.47387 0.0
H965 H 0.53628 0.31822 0.45141 0.0
H966 H 0.59113 0.39916 0.44767 0.0
C967 C 0.54698 0.40333 0.48957 0.0
C968 C 0.57459 0.17682 0.4606 0.0
C969 C 0.54471 0.15166 0.47502 0.0
H970 H 0.64347 0.21227 0.45099 0.0
C971 C 0.56181 0.13975 0.49044 0.0
H972 H 0.56246 0.18651 0.44854 0.0
C973 C 0.60818 0.15534 0.49201 0.0
C974 C 0.63833 0.18242 0.47805 0.0
H975 H 0.53982 0.12051 0.50183 0.0
H976 H 0.62053 0.14693 0.50436 0.0
C977 C 0.62098 0.19174 0.46203 0.0
C978 C 0.77332 0.48479 0.65063 0.0
C979 C 0.77683 0.45768 0.66445 0.0
H980 H 0.7396 0.51975 0.64124 0.0
C981 C 0.75077 0.44838 0.68065 0.0
H982 H 0.79366 0.49321 0.63815 0.0
C983 C 0.71947 0.46339 0.68242 0.0
C984 C 0.71431 0.48861 0.66814 0.0
H985 H 0.75313 0.42785 0.6916 0.0
H986 H 0.69811 0.45375 0.69462 0.0
C987 C 0.7427 0.50046 0.65252 0.0
C988 C 0.50504 0.25265 0.68395 0.0
C989 C 0.47917 0.22165 0.66996 0.0
H990 H 0.54083 0.32232 0.69267 0.0
C991 C 0.46646 0.23757 0.65439 0.0
H992 H 0.51537 0.24143 0.6961 0.0
C993 C 0.48188 0.28385 0.65224 0.0
C994 C 0.5096 0.31509 0.66577 0.0
H995 H 0.44667 0.21468 0.64332 0.0
H996 H 0.4728 0.29528 0.63979 0.0
C997 C 0.51979 0.29896 0.68194 0.0
C998 C 0.71668 0.24785 0.68352 0.0
C999 C 0.74654 0.25254 0.66912 0.0
H1000 H 0.64783 0.21429 0.69315 0.0
C1001 C 0.7295 0.2232 0.65379 0.0
H1002 H 0.72879 0.26991 0.69552 0.0
C1003 C 0.68315 0.19216 0.65227 0.0
C1004 C 0.65299 0.18921 0.66619 0.0
H1005 H 0.75149 0.22591 0.64242 0.0
H1006 H 0.67081 0.17117 0.63998 0.0
C1007 C 0.67033 0.21616 0.68214 0.0
C1008 C 0.48209 0.18933 0.15687 0.0
C1009 C 0.51099 0.18657 0.17002 0.0
H1010 H 0.4452 0.22197 0.14861 0.0
C1011 C 0.52149 0.21275 0.18624 0.0
H1012 H 0.47271 0.1689 0.1444 0.0
C1013 C 0.50592 0.24351 0.18865 0.0
C1014 C 0.47891 0.24801 0.17502 0.0
H1015 H 0.5434 0.21097 0.19669 0.0
H1016 H 0.51658 0.26506 0.20081 0.0
C1017 C 0.46585 0.21939 0.15943 0.0
C1018 C 0.77456 0.28244 0.15246 0.0
C1019 C 0.77968 0.31265 0.16673 0.0
H1020 H 0.73965 0.21385 0.14279 0.0
C1021 C 0.75531 0.29529 0.18329 0.0
H1022 H 0.79351 0.2948 0.13967 0.0
C1023 C 0.72418 0.24886 0.18508 0.0
C1024 C 0.71749 0.21888 0.17046 0.0
H1025 H 0.75887 0.31781 0.19459 0.0
H1026 H 0.70418 0.23673 0.19763 0.0
C1027 C 0.74409 0.23596 0.15437 0.0
C1028 C 0.71612 0.45708 0.18908 0.0
C1029 C 0.74648 0.48519 0.17532 0.0
H1030 H 0.64672 0.41898 0.198 0.0
C1031 C 0.72983 0.49977 0.16059 0.0
H1032 H 0.72793 0.4453 0.20059 0.0
C1033 C 0.68346 0.48379 0.15888 0.0
C1034 C 0.65288 0.45374 0.17207 0.0
H1035 H 0.7522 0.52136 0.14972 0.0
H1036 H 0.67142 0.4942 0.14699 0.0
C1037 C 0.66968 0.44184 0.18756 0.0
C1038 C 0.54425 0.13802 -0.00756 0.0
C1039 C 0.57258 0.15083 0.97677 0.0
H1040 H 0.49395 0.14503 0.00746 0.0
C1041 C 0.56767 0.1773 0.96298 0.0
H1042 H 0.5471 0.11769 0.00335 0.0
C1043 C 0.53689 0.19279 0.96535 0.0
C1044 C 0.51112 0.18268 0.98166 0.0
H1045 H 0.58896 0.18769 0.95075 0.0
H1046 H 0.53481 0.21438 0.95481 0.0
C1047 C 0.51416 0.15415 -0.00507 0.0
C1048 C 0.76438 0.34136 0.96309 0.0
C1049 C 0.77701 0.32509 0.97854 0.0
H1050 H 0.7671 0.39919 0.94987 0.0
C1051 C 0.80734 0.35617 -0.00849 0.0
H1052 H 0.74128 0.31802 0.95281 0.0
C1053 C 0.82302 0.40253 0.9896 0.0
C1054 C 0.80788 0.41868 0.97488 0.0
H1055 H 0.8183 0.34456 0.00336 0.0
H1056 H 0.84493 0.42529 0.00029 0.0
C1057 C 0.77934 0.38779 0.96136 0.0
C1058 C 0.57233 0.39618 0.96615 0.0
C1059 C 0.54308 0.38925 0.98108 0.0
H1060 H 0.64056 0.43172 0.95592 0.0
C1061 C 0.56073 0.41631 -0.00298 0.0
H1062 H 0.55975 0.37586 0.95369 0.0
C1063 C 0.6071 0.44756 -0.00155 0.0
C1064 C 0.63665 0.45298 0.98385 0.0
H1065 H 0.53919 0.4117 0.00882 0.0
H1066 H 0.61993 0.46687 0.01113 0.0
C1067 C 0.61862 0.42802 0.96746 0.0
C1068 C 0.47754 0.78424 0.82631 0.0
C1069 C 0.4509 0.78886 0.8126 0.0
H1070 H 0.51268 0.75009 0.835 0.0
C1071 C 0.44265 0.76447 0.79597 0.0
H1072 H 0.48512 0.80323 0.83912 0.0
C1073 C 0.45826 0.73375 0.7936 0.0
C1074 C 0.48306 0.72747 0.80769 0.0
H1075 H 0.4225 0.76765 0.78508 0.0
H1076 H 0.44936 0.71366 0.78104 0.0
C1077 C 0.49383 0.75419 0.82381 0.0
C1078 C 0.18427 0.69026 0.82503 0.0
C1079 C 0.18165 0.66004 0.81122 0.0
H1080 H 0.21696 0.75892 0.83454 0.0
C1081 C 0.20833 0.67738 0.79519 0.0
H1082 H 0.16347 0.67785 0.83738 0.0
C1083 C 0.23936 0.72391 0.79358 0.0
C1084 C 0.24352 0.75395 0.80782 0.0
H1085 H 0.20667 0.65477 0.78426 0.0
H1086 H 0.26126 0.7361 0.78154 0.0
C1087 C 0.21453 0.7368 0.82326 0.0
C1088 C 0.27743 0.48971 0.82046 0.0
C1089 C 0.30855 0.52081 0.80769 0.0
H1090 H 0.20821 0.45061 0.82884 0.0
C1091 C 0.29237 0.53292 0.79206 0.0
H1092 H 0.28902 0.47907 0.83241 0.0
C1093 C 0.24588 0.51689 0.79004 0.0
C1094 C 0.21489 0.48783 0.80343 0.0
H1095 H 0.31578 0.55654 0.78192 0.0
H1096 H 0.23448 0.52891 0.77847 0.0
C1097 C 0.23104 0.47297 0.81824 0.0
C1098 C 0.44203 0.81887 0.98844 0.0
C1099 C 0.44317 0.78803 0.00103 0.0
H1100 H 0.41055 0.85705 0.98058 0.0
C1101 C 0.41539 0.77533 0.01683 0.0
H1102 H 0.46382 0.82994 0.97634 0.0
C1103 C 0.38443 0.7906 0.01924 0.0
C1104 C 0.38145 0.81945 0.00605 0.0
H1105 H 0.41602 0.75189 0.02684 0.0
H1106 H 0.3615 0.77819 0.03096 0.0
C1107 C 0.41185 0.83483 -0.00898 0.0
C1108 C 0.18673 0.62917 0.01594 0.0
C1109 C 0.17615 0.64618 0.00014 0.0
H1110 H 0.18252 0.57084 0.02931 0.0
C1111 C 0.14804 0.61576 0.98648 0.0
H1112 H 0.20811 0.65195 0.02675 0.0
C1113 C 0.13248 0.56937 0.98816 0.0
C1114 C 0.14554 0.55257 0.00335 0.0
H1115 H 0.1387 0.62792 0.97432 0.0
H1116 H 0.11232 0.54711 0.97699 0.0
C1117 C 0.17191 0.58276 0.01746 0.0
C1118 C 0.34806 0.52459 0.98202 0.0
C1119 C 0.31774 0.51914 -0.0037 0.0
H1120 H 0.41658 0.56016 0.97232 0.0
C1121 C 0.33494 0.54381 0.01281 0.0
H1122 H 0.3359 0.5055 0.96926 0.0
C1123 C 0.38122 0.57535 0.01457 0.0
C1124 C 0.4113 0.58229 -4e-05 0.0
H1125 H 0.3124 0.54008 0.02412 0.0
H1126 H 0.39316 0.59543 0.02711 0.0
C1127 C 0.39441 0.55555 0.98389 0.0
C1128 C 0.18331 0.54887 0.51899 0.0
C1129 C 0.174 0.52218 0.50297 0.0
H1130 H 0.17798 0.60213 0.53251 0.0
C1131 C 0.14674 0.52507 0.48906 0.0
H1132 H 0.20396 0.54702 0.52999 0.0
C1133 C 0.13102 0.55576 0.49068 0.0
C1134 C 0.14297 0.58484 0.50608 0.0
H1135 H 0.13833 0.50427 0.47672 0.0
H1136 H 0.11168 0.55842 0.47932 0.0
C1137 C 0.16825 0.58023 0.52046 0.0
C1138 C 0.41621 0.63179 0.51916 0.0
C1139 C 0.44261 0.64784 0.503 0.0
H1140 H 0.36322 0.57428 0.53337 0.0
C1141 C 0.4395 0.6165 0.48961 0.0
H1142 H 0.41824 0.65526 0.52978 0.0
C1143 C 0.40892 0.57018 0.49186 0.0
C1144 C 0.38013 0.55432 0.50739 0.0
H1145 H 0.46008 0.62788 0.47718 0.0
H1146 H 0.40611 0.54722 0.48087 0.0
C1147 C 0.38491 0.58545 0.52126 0.0
C1148 C 0.3945 0.83381 0.48978 0.0
C1149 C 0.41092 0.82177 0.50539 0.0
H1150 H 0.33638 0.82658 0.47531 0.0
C1151 C 0.38036 0.79621 0.51955 0.0
H1152 H 0.41702 0.85334 0.47856 0.0
C1153 C 0.33402 0.78108 0.51769 0.0
C1154 C 0.31739 0.79059 0.5015 0.0
H1155 H 0.39195 0.78638 0.53174 0.0
H1156 H 0.31101 0.76029 0.52857 0.0
C1157 C 0.34818 0.81801 0.48778 0.0
C1158 C 0.18619 0.48953 0.32926 0.0
C1159 C 0.18298 0.51641 0.31525 0.0
H1160 H 0.21994 0.45503 0.33917 0.0
C1161 C 0.20979 0.52585 0.29926 0.0
H1162 H 0.16533 0.48103 0.34159 0.0
C1163 C 0.24142 0.51115 0.29789 0.0
C1164 C 0.24619 0.48611 0.31234 0.0
H1165 H 0.20771 0.54622 0.28818 0.0
H1166 H 0.26327 0.52085 0.28584 0.0
C1167 C 0.21716 0.47418 0.32776 0.0
C1168 C 0.47753 0.69057 0.32963 0.0
C1169 C 0.4507 0.65933 0.31593 0.0
H1170 H 0.51172 0.75968 0.33866 0.0
C1171 C 0.44105 0.67543 0.29962 0.0
H1172 H 0.48616 0.6792 0.34221 0.0
C1173 C 0.45549 0.72165 0.29759 0.0
C1174 C 0.48048 0.75264 0.31171 0.0
H1175 H 0.4207 0.65208 0.28876 0.0
H1176 H 0.44561 0.7328 0.28529 0.0
C1177 C 0.49263 0.7368 0.32747 0.0
C1178 C 0.22881 0.75045 0.32513 0.0
C1179 C 0.2126 0.72107 0.30979 0.0
H1180 H 0.28676 0.80239 0.33936 0.0
C1181 C 0.24323 0.72565 0.29575 0.0
H1182 H 0.20621 0.74785 0.33623 0.0
C1183 C 0.28951 0.75724 0.29753 0.0
C1184 C 0.30597 0.78417 0.31352 0.0
H1185 H 0.23177 0.70355 0.28375 0.0
H1186 H 0.31262 0.75904 0.2868 0.0
C1187 C 0.27507 0.78137 0.32705 0.0
C1188 C 0.25354 0.36327 0.16501 0.0
C1189 C 0.22433 0.32043 0.17286 0.0
H1190 H 0.32101 0.4103 0.15584 0.0
C1191 C 0.24263 0.29384 0.17925 0.0
H1192 H 0.2405 0.38458 0.15998 0.0
C1193 C 0.28833 0.30804 0.17646 0.0
C1194 C 0.31686 0.34948 0.16754 0.0
H1195 H 0.22118 0.26066 0.18538 0.0
H1196 H 0.30105 0.28603 0.18094 0.0
C1197 C 0.29953 0.3778 0.16248 0.0
C1198 C 0.59098 0.91114 0.1603 0.0
C1199 C 0.61956 0.9578 0.16371 0.0
H1200 H 0.58467 0.84522 0.15969 0.0
C1201 C 0.66258 0.97289 0.17153 0.0
H1202 H 0.55734 0.89846 0.15454 0.0
C1203 C 0.67778 0.94233 0.1749 0.0
C1204 C 0.65056 0.89615 0.17023 0.0
H1205 H 0.68495 0.00851 0.17473 0.0
H1206 H 0.71199 0.95556 0.18011 0.0
C1207 C 0.60645 0.8806 0.16342 0.0
C1208 C 0.02238 0.7246 0.17772 0.0
C1209 C 0.06885 0.74318 0.17379 0.0
H1210 H 0.95582 0.66638 0.1762 0.0
C1211 C 0.08427 0.71458 0.1669 0.0
H1212 H 0.00926 0.74566 0.18296 0.0
C1213 C 0.05345 0.66907 0.16291 0.0
C1214 C 0.00666 0.65147 0.16559 0.0
H1215 H 0.11985 0.72788 0.16372 0.0
H1216 H 0.06618 0.64816 0.15714 0.0
C1217 C -0.00843 0.6793 0.17353 0.0
C1218 C 0.28301 0.24986 0.30554 0.0
C1219 C 0.31034 0.23047 0.30909 0.0
H1220 H 0.27551 0.30844 0.30797 0.0
C1221 C 0.35432 0.25813 0.31622 0.0
H1222 H 0.24886 0.22952 0.30016 0.0
C1223 C 0.36948 0.30342 0.32082 0.0
C1224 C 0.3408 0.32174 0.31853 0.0
H1225 H 0.37619 0.24418 0.31911 0.0
H1226 H 0.40305 0.32355 0.32677 0.0
C1227 C 0.29796 0.29493 0.31035 0.0
C1228 C 0.65945 0.06115 0.31912 0.0
C1229 C 0.64119 0.01441 0.31586 0.0
H1230 H 0.71858 0.12739 0.31818 0.0
C1231 C 0.6676 -0.00059 0.30663 0.0
H1232 H 0.63951 0.07376 0.3259 0.0
C1233 C 0.71235 0.03015 0.30176 0.0
C1234 C 0.7319 0.07646 0.30635 0.0
H1235 H 0.65399 0.96372 0.30346 0.0
H1236 H 0.73237 0.01698 0.29549 0.0
C1237 C 0.70454 0.09192 0.31449 0.0
C1238 C 0.93735 0.6795 0.30168 0.0
C1239 C 0.89074 0.6518 0.30543 0.0
H1240 H 0.00376 0.68791 0.30396 0.0
C1241 C 0.87493 0.60797 0.31269 0.0
H1242 H 0.95079 0.71353 0.29616 0.0
C1243 C 0.90548 0.59338 0.31726 0.0
C1244 C 0.95239 0.62252 0.31481 0.0
H1245 H 0.83922 0.58582 0.31574 0.0
H1246 H 0.89246 0.55995 0.32334 0.0
C1247 C 0.96788 0.66515 0.30647 0.0
C1248 C 0.66016 0.59517 0.81867 0.0
C1249 C 0.64275 0.62361 0.81392 0.0
H1250 H 0.71907 0.58796 0.82031 0.0
C1251 C 0.67074 0.66466 0.80465 0.0
H1252 H 0.63903 0.56292 0.82555 0.0
C1253 C 0.71608 0.67843 0.80121 0.0
C1254 C 0.73462 0.65181 0.80729 0.0
H1255 H 0.65788 0.6867 0.80038 0.0
H1256 H 0.73718 0.71135 0.79482 0.0
C1257 C 0.70584 0.60928 0.81548 0.0
C1258 C 0.28155 0.03198 0.80737 0.0
C1259 C 0.3086 0.07786 0.81255 0.0
H1260 H 0.27408 0.96569 0.807 0.0
C1261 C 0.35196 0.09268 0.82003 0.0
H1262 H 0.24788 0.01929 0.80165 0.0
C1263 C 0.36695 0.06174 0.82311 0.0
C1264 C 0.33859 0.01539 0.81901 0.0
H1265 H 0.37354 0.12777 0.8242 0.0
H1266 H 0.40011 0.07385 0.82926 0.0
C1267 C 0.29622 0.00103 0.81072 0.0
C1268 C 0.93774 0.24677 0.80268 0.0
C1269 C 0.89146 0.22857 0.80689 0.0
H1270 H 0.00437 0.30508 0.80332 0.0
C1271 C 0.87638 0.25775 0.8134 0.0
H1272 H 0.9506 0.22524 0.79773 0.0
C1273 C 0.90737 0.3036 0.81669 0.0
C1274 C 0.95402 0.32096 0.81371 0.0
H1275 H 0.84094 0.24475 0.81678 0.0
H1276 H 0.89492 0.325 0.82219 0.0
C1277 C 0.96874 0.29241 0.80619 0.0
C1278 C 0.6603 0.67882 0.67084 0.0
C1279 C 0.61773 0.65189 0.66247 0.0
H1280 H 0.7088 0.74421 0.68123 0.0
C1281 C 0.58887 0.66994 0.66001 0.0
H1282 H 0.68284 0.66548 0.67336 0.0
C1283 C 0.60364 0.71514 0.66465 0.0
C1284 C 0.64739 0.74294 0.67196 0.0
H1285 H 0.5555 0.6497 0.65391 0.0
H1286 H 0.58168 0.72891 0.66162 0.0
C1287 C 0.67484 0.72377 0.67568 0.0
C1288 C 0.2888 0.97439 0.67337 0.0
C1289 C 0.3158 0.95961 0.66448 0.0
H1290 H 0.22322 0.95664 0.68363 0.0
C1291 C 0.29751 0.91302 0.66084 0.0
H1292 H 0.30233 0.00994 0.6768 0.0
C1293 C 0.25198 0.88225 0.6648 0.0
C1294 C 0.22418 0.89752 0.67266 0.0
H1295 H 0.31783 0.90058 0.65428 0.0
H1296 H 0.23806 0.84695 0.66085 0.0
C1297 C 0.24358 0.94361 0.67758 0.0
C1298 C -0.00825 0.31074 0.67241 0.0
C1299 C 0.00693 0.35225 0.66316 0.0
H1300 H 0.00918 0.26377 0.684 0.0
C1301 C 0.05372 0.38098 0.66022 0.0
H1302 H 0.956 0.28841 0.67533 0.0
C1303 C 0.08444 0.36694 0.66527 0.0
C1304 C 0.06891 0.32413 0.67352 0.0
H1305 H 0.06648 0.4136 0.65343 0.0
H1306 H 0.12002 0.38864 0.66187 0.0
C1307 C 0.02244 0.297 0.67769 0.0
C1308 C 0.90618 0.62486 0.50974 0.0
C1309 C 0.88747 0.65214 0.50487 0.0
H1310 H 0.96484 0.61725 0.5096 0.0
C1311 C 0.9162 0.69604 0.49782 0.0
H1312 H 0.88505 0.5908 0.51516 0.0
C1313 C 0.96206 0.71114 0.49458 0.0
C1314 C -0.02017 0.68241 0.49814 0.0
H1315 H 0.90282 0.71788 0.49393 0.0
H1316 H -0.0169 0.74458 0.4886 0.0
C1317 C 0.9518 0.6397 0.50627 0.0
C1318 C 0.26815 0.21501 0.5014 0.0
C1319 C 0.31213 0.23037 0.50833 0.0
H1320 H 0.21951 0.23321 0.49223 0.0
C1321 C 0.33925 0.27643 0.5132 0.0
H1322 H 0.24639 0.17971 0.49754 0.0
C1323 C 0.32428 0.30715 0.50975 0.0
C1324 C 0.28161 0.29234 0.50164 0.0
H1325 H 0.37331 0.2895 0.51856 0.0
H1326 H 0.34668 0.34272 0.51302 0.0
C1327 C 0.25294 0.24572 0.49817 0.0
C1328 C 0.71875 0.00238 0.49492 0.0
C1329 C 0.67229 0.98461 0.49854 0.0
H1330 H 0.78487 0.06162 0.49438 0.0
C1331 C 0.65786 0.01248 0.50694 0.0
H1332 H 0.73096 0.98142 0.48876 0.0
C1333 C 0.68882 0.05804 0.51058 0.0
C1334 C 0.73474 0.07684 0.50559 0.0
H1335 H 0.62242 -0.0006 0.51033 0.0
H1336 H 0.67606 0.0791 0.51617 0.0
C1337 C 0.7497 0.04818 0.49834 0.0
C1338 C 0.03625 0.63915 0.65068 0.0
C1339 C 0.00684 0.65671 0.64868 0.0
H1340 H 0.04427 0.58075 0.64857 0.0
C1341 C 0.96396 0.62944 0.64061 0.0
H1342 H 0.06988 0.65968 0.65652 0.0
C1343 C 0.94974 0.58465 0.63561 0.0
C1344 C 0.97786 0.56599 0.63886 0.0
H1345 H 0.94098 0.6424 0.63843 0.0
H1346 H 0.91556 0.5639 0.63031 0.0
C1347 C 0.02183 0.59413 0.64589 0.0
C1348 C 0.33748 0.33105 0.64376 0.0
C1349 C 0.31089 0.3474 0.65187 0.0
H1350 H 0.40217 0.34717 0.63291 0.0
C1351 C 0.32888 0.39459 0.65349 0.0
H1352 H 0.32418 0.2949 0.64187 0.0
C1353 C 0.37363 0.42472 0.64822 0.0
C1354 C 0.40106 0.40821 0.64105 0.0
H1355 H 0.30887 0.40824 0.65936 0.0
H1356 H 0.38737 0.46079 0.65057 0.0
C1357 C 0.38197 0.36115 0.63827 0.0
C1358 C 0.57252 0.92883 0.65232 0.0
C1359 C 0.61924 0.95776 0.64931 0.0
H1360 H 0.50631 0.92153 0.65164 0.0
C1361 C 0.6343 0.00013 0.6408 0.0
H1362 H 0.55985 0.8956 0.65855 0.0
C1363 C 0.60358 0.01449 0.63641 0.0
C1364 C 0.55726 -0.01294 0.64074 0.0
H1365 H 0.67 0.02268 0.63786 0.0
H1366 H 0.61673 0.04835 0.63075 0.0
C1367 C 0.5418 0.94345 0.64816 0.0
C1368 C 0.33035 0.9276 0.15303 0.0
C1369 C 0.31261 0.95649 0.14978 0.0
H1370 H 0.38929 0.92032 0.15272 0.0
C1371 C 0.34012 -0.00121 0.14126 0.0
H1372 H 0.30964 0.89443 0.15928 0.0
C1373 C 0.3853 0.01313 0.13706 0.0
C1374 C 0.40414 0.98577 0.14161 0.0
H1375 H 0.32704 0.02131 0.13813 0.0
H1376 H 0.40609 0.04692 0.13135 0.0
C1377 C 0.37581 0.94221 0.14907 0.0
C1378 C 0.02436 0.42447 0.14851 0.0
C1379 C -0.01878 0.40989 0.14085 0.0
H1380 H 0.07174 0.40518 0.15829 0.0
C1381 C 0.95416 0.36407 0.13558 0.0
H1382 H 0.046 0.45952 0.15272 0.0
C1383 C 0.96838 0.33285 0.13922 0.0
C1384 C 0.01028 0.34691 0.14787 0.0
H1385 H 0.9207 0.35157 0.12967 0.0
H1386 H 0.94612 0.29753 0.13551 0.0
C1387 C 0.03887 0.39326 0.15189 0.0
C1388 C 0.54443 0.58906 0.14895 0.0
C1389 C 0.55915 0.55976 0.14221 0.0
H1390 H 0.56337 0.65682 0.15717 0.0
C1391 C 0.60472 0.57816 0.13678 0.0
H1392 H 0.5095 0.57591 0.15322 0.0
C1393 C 0.63568 0.62419 0.13944 0.0
C1394 C 0.62155 0.65288 0.14729 0.0
H1395 H 0.61727 0.55658 0.13157 0.0
H1396 H 0.67091 0.63703 0.13573 0.0
C1397 C 0.57535 0.6353 0.15138 0.0
C1398 C 0.25506 0.00084 -0.00324 0.0
C1399 C 0.2846 0.98351 -0.001 0.0
H1400 H 0.2466 0.05901 -0.00131 0.0
C1401 C 0.32725 0.01096 0.00722 0.0
H1402 H 0.22161 0.98017 -0.00922 0.0
C1403 C 0.34109 0.05568 0.01219 0.0
C1404 C 0.31284 0.0741 0.00876 0.0
H1405 H 0.35032 -0.00182 0.00957 0.0
H1406 H 0.37508 0.07654 0.01766 0.0
C1407 C 0.26913 0.04581 0.00152 0.0
C1408 C 0.95979 0.24609 -0.00691 0.0
C1409 C 0.97809 0.29325 -0.00487 0.0
H1410 H 0.90054 0.18008 -0.00517 0.0
C1411 C 0.95093 0.30956 0.0027 0.0
H1412 H -0.01985 0.23245 0.98758 0.0
C1413 C 0.90572 0.27953 0.0073 0.0
C1414 C 0.88654 0.23258 0.00414 0.0
H1415 H 0.96437 0.34565 0.00485 0.0
H1416 H 0.88521 0.29351 0.01229 0.0
C1417 C 0.91436 0.21605 -0.00254 0.0
C1418 C 0.75039 0.69948 -0.00327 0.0
C1419 C 0.73531 0.65708 0.00528 0.0
H1420 H 0.73173 0.74549 0.98476 0.0
C1421 C 0.68911 0.63017 0.00991 0.0
H1422 H 0.78577 0.721 -0.00703 0.0
C1423 C 0.65813 0.64359 0.00475 0.0
C1424 C 0.67278 0.68459 -0.00483 0.0
H1425 H 0.67622 0.59726 0.01647 0.0
H1426 H 0.62254 0.62141 0.00801 0.0
C1427 C 0.71939 0.71323 -0.0082 0.0
C1428 C 0.62921 0.04642 0.82657 0.0
C1429 C 0.64695 0.018 0.83082 0.0
H1430 H 0.57029 0.05374 0.82605 0.0
C1431 C 0.61969 0.97703 0.84027 0.0
H1432 H 0.6498 0.07862 0.81957 0.0
C1433 C 0.57469 0.96336 0.84443 0.0
C1434 C 0.55573 -0.01 0.83888 0.0
H1435 H 0.63286 0.95502 0.84419 0.0
H1436 H 0.5541 0.93051 0.85095 0.0
C1437 C 0.58385 0.03241 0.83047 0.0
C1438 C -0.00717 0.64064 0.83854 0.0
C1439 C 0.95051 0.62634 0.83023 0.0
H1440 H 0.04108 0.62226 0.84765 0.0
C1441 C 0.92197 0.57995 0.82625 0.0
H1442 H 0.0151 0.67601 0.84219 0.0
C1443 C 0.93682 0.54892 0.82941 0.0
C1444 C -0.01977 0.56369 0.83682 0.0
H1445 H 0.88882 0.56786 0.8201 0.0
H1446 H 0.91513 0.51381 0.82528 0.0
C1447 C 0.00738 0.60959 0.84196 0.0
C1448 C 0.32161 0.35049 0.84052 0.0
C1449 C 0.33571 0.32145 0.83302 0.0
H1450 H 0.34038 0.41822 0.84834 0.0
C1451 C 0.38204 0.33862 0.82931 0.0
H1452 H 0.28627 0.33798 0.84393 0.0
C1453 C 0.41323 0.38472 0.83189 0.0
C1454 C 0.39867 0.41431 0.83842 0.0
H1455 H 0.394 0.31683 0.82379 0.0
H1456 H 0.44833 0.39753 0.82798 0.0
C1457 C 0.35283 0.39638 0.84334 0.0
C1458 C 0.61431 0.91639 0.96885 0.0
C1459 C 0.64212 0.89765 0.97263 0.0
H1460 H 0.60581 0.97443 0.97092 0.0
C1461 C 0.68595 0.92592 0.97977 0.0
H1462 H 0.58027 0.8956 0.96342 0.0
C1463 C 0.70049 0.9712 0.98418 0.0
C1464 C 0.67131 -0.01114 0.98167 0.0
H1465 H 0.70819 0.91249 0.98283 0.0
H1466 H 0.73395 -0.00817 0.99015 0.0
C1467 C 0.62862 0.96142 0.97347 0.0
C1468 C 0.00363 0.66426 0.97609 0.0
C1469 C 0.97638 0.67945 0.98446 0.0
H1470 H 0.06946 0.6816 0.96624 0.0
C1471 C -0.00528 0.72619 0.98781 0.0
H1472 H -0.00986 0.62858 0.97292 0.0
C1473 C 0.04032 0.75678 0.98391 0.0
C1474 C 0.0682 0.74122 0.9764 0.0
H1475 H 0.97427 0.73897 -0.00602 0.0
H1476 H 0.05416 0.79227 0.98753 0.0
C1477 C 0.04895 0.69486 0.97195 0.0
C1478 C 0.26632 0.34138 0.97069 0.0
C1479 C 0.21987 0.31437 0.97491 0.0
H1480 H 0.33285 0.3504 0.97339 0.0
C1481 C 0.20447 0.27209 0.98362 0.0
H1482 H 0.27948 0.3742 0.96403 0.0
C1483 C 0.23531 0.25854 0.98908 0.0
C1484 C 0.28208 0.28726 0.98609 0.0
H1485 H 0.16891 0.25051 0.98708 0.0
H1486 H 0.22268 0.22635 -0.0038 0.0
C1487 C 0.29712 0.32816 0.97638 0.0
C1488 C 0.05064 0.34801 0.46933 0.0
C1489 C 0.06911 0.32078 0.47462 0.0
H1490 H -0.00803 0.35561 0.46874 0.0
C1491 C 0.04001 0.27688 0.48159 0.0
H1492 H 0.07204 0.38207 0.46396 0.0
C1493 C -0.00602 0.26176 0.48436 0.0
C1494 C 0.9764 0.29049 0.48042 0.0
H1495 H 0.05321 0.25507 0.48578 0.0
H1496 H 0.97265 0.22835 0.49032 0.0
C1497 C 0.00483 0.33316 0.47234 0.0
C1498 C 0.61618 0.69651 0.46847 0.0
C1499 C 0.64334 0.74258 0.47332 0.0
H1500 H 0.60883 0.63026 0.46858 0.0
C1501 C 0.68737 0.75798 0.48019 0.0
H1502 H 0.58207 0.68342 0.46317 0.0
C1503 C 0.70267 0.72731 0.48334 0.0
C1504 C 0.67401 0.6807 0.47986 0.0
H1505 H 0.70914 0.79329 0.48403 0.0
H1506 H 0.73616 0.73984 0.48922 0.0
C1507 C 0.63123 0.66583 0.47185 0.0
C1508 C 0.26843 0.91605 0.46946 0.0
C1509 C 0.22217 0.89707 0.4739 0.0
H1510 H 0.33483 0.97459 0.47059 0.0
C1511 C 0.20677 0.92542 0.4811 0.0
H1512 H 0.28154 0.89523 0.46394 0.0
C1513 C 0.23751 0.97101 0.485 0.0
C1514 C 0.28421 -0.01109 0.48193 0.0
H1515 H 0.17133 0.91183 0.48464 0.0
H1516 H 0.22488 -0.00831 0.4911 0.0
C1517 C 0.29917 0.9614 0.47358 0.0
C1518 C 0.00763 0.38878 0.34296 0.0
C1519 C -0.02021 0.40773 0.33963 0.0
H1520 H 0.01593 0.33072 0.34022 0.0
C1521 C 0.93585 0.37981 0.33254 0.0
H1522 H 0.04179 0.40936 0.3483 0.0
C1523 C 0.92117 0.33472 0.32777 0.0
C1524 C 0.9503 0.31685 0.32986 0.0
H1525 H 0.91362 0.39342 0.3298 0.0
H1526 H 0.88756 0.31438 0.32189 0.0
C1527 C -0.00684 0.34391 0.33798 0.0
C1528 C 0.62247 0.64115 0.33861 0.0
C1529 C 0.64866 0.6248 0.33013 0.0
H1530 H 0.55812 0.62514 0.34979 0.0
C1531 C 0.63054 0.57762 0.32839 0.0
H1532 H 0.63594 0.67729 0.34062 0.0
C1533 C 0.58585 0.54753 0.33377 0.0
C1534 C 0.55865 0.5641 0.34115 0.0
H1535 H 0.65028 0.56398 0.32225 0.0
H1536 H 0.57189 0.51151 0.33124 0.0
C1537 C 0.57807 0.61111 0.34421 0.0
C1538 C 0.32252 0.97259 0.34054 0.0
C1539 C 0.33759 0.01523 0.33227 0.0
H1540 H 0.34006 0.92402 0.35019 0.0
C1541 C 0.38431 0.0442 0.32927 0.0
H1542 H 0.28682 0.94998 0.34346 0.0
C1543 C 0.41501 0.02941 0.3332 0.0
C1544 C 0.39953 0.98557 0.34039 0.0
H1545 H 0.397 0.07761 0.32321 0.0
H1546 H 0.45049 0.05141 0.32974 0.0
C1547 C 0.35321 0.95805 0.34471 0.0
C1548 C 0.14016 0.36672 0.07005 0.0
C1549 C 0.12544 0.34032 0.0539 0.0
H1550 H 0.14228 0.36718 0.09956 0.0
C1551 C 0.1015 0.29253 0.05545 0.0
H1552 H 0.15874 0.40353 0.06933 0.0
C1553 C 0.09204 0.2716 0.07276 0.0
C1554 C 0.10632 0.29797 0.08892 0.0
H1555 H 0.08971 0.27108 0.04327 0.0
H1556 H 0.07323 0.23478 0.07346 0.0
C1557 C 0.13071 0.34577 0.08737 0.0
C1558 C 0.59984 0.75911 0.06942 0.0
C1559 C 0.62523 0.77246 0.05301 0.0
H1560 H 0.60107 0.75916 0.09892 0.0
C1561 C 0.67303 0.79678 0.05406 0.0
H1562 H 0.56304 0.74038 0.06908 0.0
C1563 C 0.69497 0.80754 0.07117 0.0
C1564 C 0.66956 0.79435 0.08758 0.0
H1565 H 0.6937 0.80749 0.04166 0.0
H1566 H 0.73176 0.82626 0.07151 0.0
C1567 C 0.62176 0.77002 0.08652 0.0
C1568 C 0.15864 0.877 0.07548 0.0
C1569 C 0.17064 0.86299 0.09172 0.0
H1570 H 0.15912 0.87745 0.046 0.0
C1571 C 0.19281 0.83746 0.09038 0.0
H1572 H 0.14152 0.89663 0.07604 0.0
C1573 C 0.20304 0.82644 0.07313 0.0
C1574 C 0.19117 0.84062 0.05689 0.0
H1575 H 0.2026 0.82614 0.10266 0.0
H1576 H 0.22029 0.80694 0.07254 0.0
C1577 C 0.16874 0.86589 0.05825 0.0
C1578 C 0.35686 0.14434 0.4084 0.0
C1579 C 0.33103 0.13174 0.42469 0.0
H1580 H 0.35647 0.14337 0.37892 0.0
C1581 C 0.28327 0.1081 0.42345 0.0
H1582 H 0.39365 0.16258 0.40888 0.0
C1583 C 0.2618 0.09689 0.40624 0.0
C1584 C 0.28767 0.10926 0.38996 0.0
H1585 H 0.2623 0.0978 0.43577 0.0
H1586 H 0.22501 0.07846 0.40573 0.0
C1587 C 0.33543 0.1333 0.39122 0.0
C1588 C 0.82781 0.19584 0.38842 0.0
C1589 C 0.85067 0.17096 0.38707 0.0
H1590 H 0.80018 0.22625 0.4062 0.0
C1591 C 0.86231 0.15663 0.40333 0.0
H1592 H 0.81826 0.20741 0.37615 0.0
C1593 C 0.85181 0.16744 0.42057 0.0
C1594 C 0.82953 0.19288 0.42191 0.0
H1595 H 0.87981 0.13737 0.40277 0.0
H1596 H 0.86163 0.15615 0.43285 0.0
C1597 C 0.8174 0.20672 0.40565 0.0
C1598 C 0.76603 0.6257 0.38796 0.0
C1599 C 0.78955 0.6735 0.38651 0.0
H1600 H 0.73705 0.56775 0.40588 0.0
C1601 C 0.80243 0.69973 0.40271 0.0
H1602 H 0.75549 0.6044 0.37573 0.0
C1603 C 0.79192 0.67861 0.41999 0.0
C1604 C 0.76812 0.6308 0.42144 0.0
H1605 H 0.82058 0.73656 0.40206 0.0
H1606 H 0.80222 0.6999 0.43223 0.0
C1607 C 0.75535 0.60457 0.40524 0.0
C1608 C 0.82732 0.62637 0.89171 0.0
C1609 C 0.85236 0.67416 0.8902 0.0
H1610 H 0.79753 0.56854 0.90972 0.0
C1611 C 0.866 0.70046 0.90638 0.0
H1612 H 0.81619 0.60502 0.8795 0.0
C1613 C 0.85524 0.67946 0.92369 0.0
C1614 C 0.83061 0.63167 0.92521 0.0
H1615 H 0.88524 0.73727 0.90571 0.0
H1616 H 0.86658 0.70086 0.93589 0.0
C1617 C 0.81656 0.60535 0.90903 0.0
C1618 C 0.3346 0.20306 0.89524 0.0
C1619 C 0.28686 0.17796 0.89396 0.0
H1620 H 0.39281 0.23289 0.91294 0.0
C1621 C 0.26102 0.16352 0.91025 0.0
H1622 H 0.35562 0.21484 0.88295 0.0
C1623 C 0.28248 0.17389 0.92745 0.0
C1624 C 0.33023 0.19901 0.92873 0.0
H1625 H 0.22425 0.14418 0.90973 0.0
H1626 H 0.2615 0.16225 0.93976 0.0
C1627 C 0.35604 0.21351 0.91244 0.0
C1628 C 0.79601 0.09314 0.90571 0.0
C1629 C 0.78433 0.10703 0.88935 0.0
H1630 H 0.79485 0.09283 0.93519 0.0
C1631 C 0.76164 0.1321 0.89048 0.0
H1632 H 0.81347 0.07383 0.90531 0.0
C1633 C 0.75081 0.14299 0.90763 0.0
C1634 C 0.76262 0.12919 0.92398 0.0
H1635 H 0.75202 0.14324 0.8781 0.0
H1636 H 0.73331 0.16227 0.90805 0.0
C1637 C 0.78535 0.10417 0.92283 0.0
C1638 C 0.67257 0.86741 0.55785 0.0
C1639 C 0.62478 0.84348 0.55669 0.0
H1640 H 0.73103 0.89729 0.57546 0.0
C1641 C 0.59914 0.831 0.57303 0.0
H1642 H 0.69341 0.87768 0.5455 0.0
C1643 C 0.62078 0.84222 0.59018 0.0
C1644 C 0.66856 0.86632 0.59136 0.0
H1645 H 0.56235 0.8126 0.57261 0.0
H1646 H 0.59988 0.83212 0.60252 0.0
C1647 C 0.69424 0.8788 0.57502 0.0
C1648 C 0.10225 0.80455 0.55789 0.0
C1649 C 0.12511 0.77967 0.55655 0.0
H1650 H 0.07394 0.83428 0.57571 0.0
C1651 C 0.13786 0.76641 0.5728 0.0
H1652 H 0.09192 0.81534 0.54561 0.0
C1653 C 0.12758 0.77739 0.59003 0.0
C1654 C 0.10423 0.80178 0.59139 0.0
H1655 H 0.15554 0.74733 0.57225 0.0
H1656 H 0.13767 0.76631 0.6023 0.0
C1657 C 0.09187 0.81544 0.57514 0.0
C1658 C 0.20143 0.36904 0.57539 0.0
C1659 C 0.1867 0.34275 0.55922 0.0
H1660 H 0.20369 0.36937 0.60489 0.0
C1661 C 0.16158 0.29497 0.56073 0.0
H1662 H 0.22081 0.40585 0.57471 0.0
C1663 C 0.15183 0.27394 0.57803 0.0
C1664 C 0.16686 0.30023 0.59419 0.0
H1665 H 0.14971 0.27362 0.54853 0.0
H1666 H 0.13265 0.23712 0.57872 0.0
C1667 C 0.19157 0.34802 0.59269 0.0
C1668 C 0.93236 0.4326 0.73606 0.0
C1669 C 0.95834 0.4463 0.7198 0.0
H1670 H 0.93257 0.43172 0.76557 0.0
C1671 C 0.00608 0.47111 0.72113 0.0
H1672 H 0.89559 0.41354 0.73552 0.0
C1673 C 0.02739 0.48152 0.73836 0.0
C1674 C 0.00141 0.46743 0.75462 0.0
H1675 H 0.02718 0.48224 0.70885 0.0
H1676 H 0.06416 0.50035 0.7389 0.0
C1677 C 0.95367 0.44309 0.75329 0.0
C1678 C 0.50287 0.53808 0.7213 0.0
C1679 C 0.52505 0.51252 0.72015 0.0
H1680 H 0.47525 0.56894 0.73884 0.0
C1681 C 0.53633 0.49824 0.73651 0.0
H1682 H 0.49378 0.54978 0.70894 0.0
C1683 C 0.52555 0.50921 0.75366 0.0
C1684 C 0.50343 0.53483 0.7548 0.0
H1685 H 0.55338 0.47853 0.7361 0.0
H1686 H 0.53479 0.49768 0.76603 0.0
C1687 C 0.49225 0.54919 0.73844 0.0
C1688 C 0.46949 0.03687 0.73885 0.0
C1689 C 0.45773 0.01053 0.72269 0.0
H1690 H 0.46757 0.03719 0.76837 0.0
C1691 C 0.43442 0.96275 0.72421 0.0
H1692 H 0.48739 0.07368 0.73816 0.0
C1693 C 0.42292 0.94175 0.74151 0.0
C1694 C 0.43456 0.96805 0.75767 0.0
H1695 H 0.42473 0.94134 0.71202 0.0
H1696 H 0.40492 0.90492 0.74218 0.0
C1697 C 0.45806 0.01585 0.75617 0.0
C1698 C 0.53806 0.03266 0.23968 0.0
C1699 C 0.52555 0.00644 0.22348 0.0
H1700 H 0.53667 0.03287 0.26918 0.0
C1701 C 0.50113 0.95863 0.22493 0.0
H1702 H 0.5568 0.06949 0.23905 0.0
C1703 C 0.48958 0.93751 0.24222 0.0
C1704 C 0.50205 0.96375 0.25841 0.0
H1705 H 0.49101 0.93735 0.2127 0.0
H1706 H 0.4709 0.90069 0.24286 0.0
C1707 C 0.52636 0.01155 0.25696 0.0
C1708 C 0.95481 0.50078 0.25692 0.0
C1709 C 0.00252 0.52606 0.25835 0.0
H1710 H 0.89696 0.4711 0.23904 0.0
C1711 C 0.0287 0.5399 0.24214 0.0
H1712 H 0.93354 0.48948 0.26915 0.0
C1713 C 0.0076 0.52923 0.22486 0.0
C1714 C 0.95988 0.50458 0.22345 0.0
H1715 H 0.06546 0.5593 0.24277 0.0
H1716 H 0.02882 0.5408 0.21262 0.0
C1717 C 0.93373 0.4902 0.23965 0.0
C1718 C 0.47162 0.42829 0.24305 0.0
C1719 C 0.45988 0.44214 0.2267 0.0
H1720 H 0.47018 0.42773 0.27256 0.0
C1721 C 0.43726 0.46729 0.22786 0.0
H1722 H 0.48905 0.40895 0.24264 0.0
C1723 C 0.42629 0.47802 0.24501 0.0
C1724 C 0.43783 0.46397 0.26136 0.0
H1725 H 0.42764 0.47849 0.2155 0.0
H1726 H 0.4087 0.49721 0.24542 0.0
C1727 C 0.46079 0.43915 0.2602 0.0
C1728 C 0.00642 0.1972 0.25301 0.0
C1729 C 0.95917 0.17413 0.2559 0.0
H1730 H 0.06075 0.22262 0.23322 0.0
C1731 C 0.93001 0.15936 0.24054 0.0
H1732 H 0.02963 0.20865 0.26465 0.0
C1733 C 0.94785 0.16846 0.22259 0.0
C1734 C -0.0049 0.19115 0.21972 0.0
H1735 H 0.89349 0.14155 0.24242 0.0
H1736 H 0.92468 0.15721 0.21094 0.0
C1737 C 0.02422 0.205 0.23508 0.0
C1738 C 0.75244 0.7458 0.24523 0.0
C1739 C 0.79278 0.77617 0.25443 0.0
H1740 H 0.71292 0.73113 0.22043 0.0
C1741 C 0.82416 0.81681 0.2456 0.0
H1742 H 0.72765 0.71434 0.2518 0.0
C1743 C 0.81494 0.82722 0.22794 0.0
C1744 C 0.77489 0.79644 0.21864 0.0
H1745 H 0.85526 0.84099 0.25253 0.0
H1746 H 0.83951 0.85879 0.22138 0.0
C1747 C 0.74396 0.75547 0.22736 0.0
C1748 C 0.21768 -0.00387 0.24969 0.0
C1749 C 0.18723 0.00679 0.25835 0.0
H1750 H 0.23321 0.9704 0.22537 0.0
C1751 C 0.14731 -0.00212 0.24906 0.0
H1752 H 0.24857 0.00252 0.25664 0.0
C1753 C 0.13769 0.9779 0.23147 0.0
C1754 C 0.16856 0.96792 0.22272 0.0
H1755 H 0.12308 0.00533 0.25558 0.0
H1756 H 0.10667 0.97118 0.22455 0.0
C1757 C 0.20883 0.97763 0.23189 0.0
C1758 C 0.00953 0.80535 0.75604 0.0
C1759 C 0.96233 0.7821 0.75909 0.0
H1760 H 0.06345 0.83273 0.73602 0.0
C1761 C 0.93286 0.76782 0.74383 0.0
H1762 H 0.03296 0.81693 0.7676 0.0
C1763 C 0.95028 0.7757 0.72583 0.0
C1764 C -0.00252 0.79929 0.72278 0.0
H1765 H 0.89637 0.74976 0.74583 0.0
H1766 H 0.92683 0.76388 0.71427 0.0
C1767 C 0.02697 0.81453 0.73803 0.0
C1768 C 0.1492 0.20945 0.74133 0.0
C1769 C 0.16498 0.19544 0.72618 0.0
H1770 H 0.14579 0.2126 0.77089 0.0
C1771 C 0.18827 0.1716 0.7294 0.0
H1772 H 0.13119 0.22787 0.7392 0.0
C1773 C 0.19546 0.1617 0.74745 0.0
C1774 C 0.18076 0.17677 0.76261 0.0
H1775 H 0.20047 0.16011 0.71792 0.0
H1776 H 0.21339 0.14319 0.74957 0.0
C1777 C 0.15769 0.20084 0.7594 0.0
C1778 C 0.82077 -0.00605 0.74985 0.0
C1779 C 0.79027 0.00423 0.75874 0.0
H1780 H 0.83471 0.96639 0.7256 0.0
C1781 C 0.74998 -0.00511 0.74969 0.0
H1782 H 0.8518 0.00037 0.75667 0.0
C1783 C 0.74069 0.97641 0.73189 0.0
C1784 C 0.77077 0.96547 0.72308 0.0
H1785 H 0.72586 0.00236 0.75631 0.0
H1786 H 0.70975 0.97029 0.72507 0.0
C1787 C 0.81074 0.97405 0.73224 0.0
C1788 C 0.63419 0.54833 0.57958 0.0
C1789 C 0.62356 0.50743 0.5885 0.0
H1790 H 0.65985 0.5889 0.55504 0.0
C1791 C 0.63233 0.47605 0.57943 0.0
H1792 H 0.62792 0.57313 0.58636 0.0
C1793 C 0.65222 0.48587 0.56181 0.0
C1794 C 0.66225 0.52653 0.55281 0.0
H1795 H 0.6249 0.44452 0.58615 0.0
H1796 H 0.65891 0.46131 0.55508 0.0
C1797 C 0.65258 0.55741 0.56175 0.0
C1798 C 0.4891 0.15216 0.58176 0.0
C1799 C 0.45774 0.11204 0.5909 0.0
H1800 H 0.5038 0.19338 0.55735 0.0
C1801 C 0.41675 0.08179 0.58208 0.0
H1802 H 0.52072 0.17622 0.5884 0.0
C1803 C 0.40762 0.09105 0.56425 0.0
C1804 C 0.43855 0.13151 0.55522 0.0
H1805 H 0.392 0.05073 0.5889 0.0
H1806 H 0.37609 0.06683 0.55759 0.0
C1807 C 0.47924 0.16219 0.56415 0.0
C1808 C 0.81431 0.33219 0.57955 0.0
C1809 C 0.8546 0.34127 0.58855 0.0
H1810 H 0.77288 0.30553 0.55525 0.0
C1811 C 0.88503 0.33111 0.57955 0.0
H1812 H 0.79013 0.33932 0.58633 0.0
C1813 C 0.87575 0.31294 0.56168 0.0
C1814 C 0.83506 0.30302 0.55281 0.0
H1815 H 0.91624 0.33769 0.58627 0.0
H1816 H 0.90006 0.30603 0.55488 0.0
C1817 C 0.80425 0.31249 0.56192 0.0
C1818 C 0.65544 0.16299 0.06507 0.0
C1819 C 0.66411 0.13186 0.05572 0.0
H1820 H 0.62957 0.17724 0.08976 0.0
C1821 C 0.65384 0.09084 0.06444 0.0
H1822 H 0.6626 0.1946 0.05851 0.0
C1823 C 0.63601 0.08143 0.08236 0.0
C1824 C 0.62655 0.1121 0.09161 0.0
H1825 H 0.66006 0.06624 0.05746 0.0
H1826 H 0.6291 0.04989 0.08892 0.0
C1827 C 0.6361 0.15284 0.08279 0.0
C1828 C 0.8291 0.53421 0.09006 0.0
C1829 C 0.8516 0.50944 0.0929 0.0
H1830 H 0.80188 0.56149 0.0703 0.0
C1831 C 0.86466 0.4935 0.07751 0.0
H1832 H 0.81841 0.54663 0.10173 0.0
C1833 C 0.8563 0.50307 0.05959 0.0
C1834 C 0.83347 0.52751 0.05674 0.0
H1835 H 0.88209 0.4744 0.07933 0.0
H1836 H 0.86718 0.49082 0.04793 0.0
C1837 C 0.81946 0.54255 0.07213 0.0
C1838 C 0.48725 0.32457 0.08672 0.0
C1839 C 0.45681 0.33406 0.09613 0.0
H1840 H 0.50056 0.29811 0.062 0.0
C1841 C 0.4159 0.32438 0.08753 0.0
H1842 H 0.51879 0.33133 0.09318 0.0
C1843 C 0.40601 0.30645 0.06964 0.0
C1844 C 0.4361 0.29636 0.0603 0.0
H1845 H 0.39186 0.33131 0.09455 0.0
H1846 H 0.37464 0.30009 0.06314 0.0
C1847 C 0.47662 0.30516 0.06903 0.0
C1848 C 0.35919 0.87265 0.90426 0.0
C1849 C 0.32956 0.85842 0.88906 0.0
H1850 H 0.36544 0.87639 0.93381 0.0
C1851 C 0.28239 0.83479 0.89218 0.0
H1852 H 0.39565 0.89098 0.90219 0.0
C1853 C 0.2651 0.82535 0.9102 0.0
C1854 C 0.29472 0.8407 0.9254 0.0
H1855 H 0.25884 0.82323 0.88065 0.0
H1856 H 0.22863 0.80698 0.91226 0.0
C1857 C 0.3419 0.8645 0.92229 0.0
C1858 C 0.13922 0.42979 0.90655 0.0
C1859 C 0.12426 0.44432 0.9218 0.0
H1860 H 0.14198 0.42657 0.87697 0.0
C1861 C 0.10161 0.46886 0.91873 0.0
H1862 H 0.15672 0.41082 0.90856 0.0
C1863 C 0.09433 0.47898 0.90073 0.0
C1864 C 0.10829 0.46351 0.88547 0.0
H1865 H 0.09004 0.48076 0.93028 0.0
H1866 H 0.07695 0.49808 0.89874 0.0
C1867 C 0.13064 0.43867 0.88853 0.0
C1868 C 0.54111 0.64845 0.89459 0.0
C1869 C 0.50056 0.63875 0.88567 0.0
H1870 H 0.58138 0.6727 0.91922 0.0
C1871 C 0.4697 0.64816 0.89478 0.0
H1872 H 0.5655 0.64162 0.88781 0.0
C1873 C 0.47955 0.66746 0.9125 0.0
C1874 C 0.51974 0.67629 0.92154 0.0
H1875 H 0.43844 0.64142 0.88807 0.0
H1876 H 0.45528 0.6744 0.91931 0.0
C1877 C 0.55025 0.66633 0.91249 0.0
C1878 C 0.30631 0.48765 0.41925 0.0
C1879 C 0.2961 0.44693 0.42825 0.0
H1880 H 0.33407 0.5291 0.39497 0.0
C1881 C 0.30594 0.41609 0.41938 0.0
H1882 H 0.29946 0.51216 0.42592 0.0
C1883 C 0.32464 0.42525 0.40161 0.0
C1884 C 0.33541 0.46619 0.39268 0.0
H1885 H 0.29852 0.38456 0.4261 0.0
H1886 H 0.33102 0.40048 0.39487 0.0
C1887 C 0.32652 0.49754 0.4017 0.0
C1888 C 0.46782 0.82105 0.39924 0.0
C1889 C 0.49907 0.86146 0.39024 0.0
H1890 H 0.45302 0.77954 0.42356 0.0
C1891 C 0.53973 0.8919 0.39922 0.0
H1892 H 0.43647 0.79685 0.39248 0.0
C1893 C 0.54867 0.88253 0.41706 0.0
C1894 C 0.51786 0.84179 0.42595 0.0
H1895 H 0.5644 0.92319 0.39251 0.0
H1896 H 0.57995 0.90689 0.42383 0.0
C1897 C 0.47749 0.81094 0.41687 0.0
C1898 C 0.08219 0.66197 0.41656 0.0
C1899 C 0.12262 0.67158 0.42557 0.0
H1900 H 0.04198 0.63727 0.39188 0.0
C1901 C 0.15333 0.66172 0.41661 0.0
H1902 H 0.05795 0.66916 0.42324 0.0
C1903 C 0.14336 0.64186 0.399 0.0
C1904 C 0.10328 0.63301 0.38987 0.0
H1905 H 0.18449 0.66841 0.4234 0.0
H1906 H 0.16743 0.63437 0.39235 0.0
C1907 C 0.07301 0.64365 0.39871 0.0
loop_
_geom_bond_atom_site_label_1
_geom_bond_atom_site_label_2
_geom_bond_distance
_geom_bond_site_symmetry_2
_ccdc_geom_bond_type
O0 Zn1 1.953 . S
O0 C16 1.225 . S
Zn1 O0 1.953 . S
Zn1 O2 1.949 . S
Zn1 O8 1.919 . S
Zn1 O13 1.924 . S
O2 Zn1 1.949 . S
O2 Zn3 1.923 . S
O2 Zn4 1.950 . S
O2 Zn5 1.945 . S
Zn3 O2 1.923 . S
Zn3 O6 1.933 . S
Zn3 O9 1.941 . S
Zn3 O10 1.965 . S
Zn4 O2 1.950 . S
Zn4 O11 1.938 . S
Zn4 O12 1.906 . S
Zn4 O22 1.953 . S
Zn5 O2 1.945 . S
Zn5 O7 1.932 . S
Zn5 O14 1.977 . S
Zn5 O15 1.910 1_455 S
O6 Zn3 1.933 . S
O6 C17 1.226 . S
O7 Zn5 1.932 . S
O7 C17 1.307 . S
O8 Zn1 1.919 . S
O8 C19 1.253 . S
O9 Zn3 1.941 . S
O9 C19 1.283 . S
O10 Zn3 1.965 . S
O10 C18 1.303 . S
O11 Zn4 1.938 . S
O11 C18 1.247 . S
O12 Zn4 1.906 . S
O12 C20 1.304 . S
O13 Zn1 1.924 . S
O13 C21 1.311 1_455 S
O14 Zn5 1.977 . S
O14 C20 1.272 . S
O15 Zn5 1.910 1_655 S
O15 C21 1.231 . S
C16 O0 1.225 . S
C16 O22 1.298 . S
C17 O6 1.226 . S
C17 O7 1.307 . S
C18 O10 1.303 . S
C18 O11 1.247 . S
C19 O8 1.253 . S
C19 O9 1.283 . S
C20 O12 1.304 . S
C20 O14 1.272 . S
C21 O13 1.311 1_655 S
C21 O15 1.231 . S
O22 Zn4 1.953 . S
O22 C16 1.298 . S
O23 Zn24 1.953 . S
O23 C39 1.225 . S
Zn24 O23 1.953 . S
Zn24 O25 1.949 . S
Zn24 O31 1.919 . S
Zn24 O36 1.924 . S
O25 Zn24 1.949 . S
O25 Zn26 1.923 . S
O25 Zn27 1.950 . S
O25 Zn28 1.945 . S
Zn26 O25 1.923 . S
Zn26 O29 1.933 . S
Zn26 O32 1.941 . S
Zn26 O33 1.965 . S
Zn27 O25 1.950 . S
Zn27 O34 1.938 . S
Zn27 O35 1.906 . S
Zn27 O45 1.953 . S
Zn28 O25 1.945 . S
Zn28 O30 1.932 . S
Zn28 O37 1.977 . S
Zn28 O38 1.910 . S
O29 Zn26 1.933 . S
O29 C40 1.226 . S
O30 Zn28 1.932 . S
O30 C40 1.307 . S
O31 Zn24 1.919 . S
O31 C42 1.253 . S
O32 Zn26 1.941 . S
O32 C42 1.283 . S
O33 Zn26 1.965 . S
O33 C41 1.303 . S
O34 Zn27 1.938 . S
O34 C41 1.247 . S
O35 Zn27 1.906 . S
O35 C43 1.304 . S
O36 Zn24 1.924 . S
O36 C44 1.311 . S
O37 Zn28 1.977 . S
O37 C43 1.272 . S
O38 Zn28 1.910 . S
O38 C44 1.231 . S
C39 O23 1.225 . S
C39 O45 1.298 . S
C40 O29 1.226 . S
C40 O30 1.307 . S
C41 O33 1.303 . S
C41 O34 1.247 . S
C42 O31 1.253 . S
C42 O32 1.283 . S
C43 O35 1.304 . S
C43 O37 1.272 . S
C44 O36 1.311 . S
C44 O38 1.231 . S
O45 Zn27 1.953 . S
O45 C39 1.298 . S
O46 Zn47 1.953 . S
O46 C62 1.225 . S
Zn47 O46 1.953 . S
Zn47 O48 1.949 . S
Zn47 O54 1.919 . S
Zn47 O59 1.924 . S
O48 Zn47 1.949 . S
O48 Zn49 1.923 . S
O48 Zn50 1.950 . S
O48 Zn51 1.945 . S
Zn49 O48 1.923 . S
Zn49 O52 1.933 . S
Zn49 O55 1.941 . S
Zn49 O56 1.965 . S
Zn50 O48 1.950 . S
Zn50 O57 1.938 . S
Zn50 O58 1.906 . S
Zn50 O68 1.953 . S
Zn51 O48 1.945 . S
Zn51 O53 1.932 . S
Zn51 O60 1.977 . S
Zn51 O61 1.910 1_565 S
O52 Zn49 1.933 . S
O52 C63 1.226 . S
O53 Zn51 1.932 . S
O53 C63 1.307 . S
O54 Zn47 1.919 . S
O54 C65 1.253 . S
O55 Zn49 1.941 . S
O55 C65 1.283 . S
O56 Zn49 1.965 . S
O56 C64 1.303 . S
O57 Zn50 1.938 . S
O57 C64 1.247 . S
O58 Zn50 1.906 . S
O58 C66 1.304 . S
O59 Zn47 1.924 . S
O59 C67 1.311 1_565 S
O60 Zn51 1.977 . S
O60 C66 1.272 . S
O61 Zn51 1.910 1_545 S
O61 C67 1.231 . S
C62 O46 1.225 . S
C62 O68 1.298 . S
C63 O52 1.226 . S
C63 O53 1.307 . S
C64 O56 1.303 . S
C64 O57 1.247 . S
C65 O54 1.253 . S
C65 O55 1.283 . S
C66 O58 1.304 . S
C66 O60 1.272 . S
C67 O59 1.311 1_545 S
C67 O61 1.231 . S
O68 Zn50 1.953 . S
O68 C62 1.298 . S
O69 Zn70 1.953 . S
O69 C85 1.225 . S
Zn70 O69 1.953 . S
Zn70 O71 1.949 . S
Zn70 O77 1.919 . S
Zn70 O82 1.924 . S
O71 Zn70 1.949 . S
O71 Zn72 1.923 . S
O71 Zn73 1.950 . S
O71 Zn74 1.945 . S
Zn72 O71 1.923 . S
Zn72 O75 1.933 . S
Zn72 O78 1.941 . S
Zn72 O79 1.965 . S
Zn73 O71 1.950 . S
Zn73 O80 1.938 . S
Zn73 O81 1.906 . S
Zn73 O91 1.953 . S
Zn74 O71 1.945 . S
Zn74 O76 1.932 . S
Zn74 O83 1.977 . S
Zn74 O84 1.910 1_545 S
O75 Zn72 1.933 . S
O75 C86 1.226 . S
O76 Zn74 1.932 . S
O76 C86 1.307 . S
O77 Zn70 1.919 . S
O77 C88 1.253 . S
O78 Zn72 1.941 . S
O78 C88 1.283 . S
O79 Zn72 1.965 . S
O79 C87 1.303 . S
O80 Zn73 1.938 . S
O80 C87 1.247 . S
O81 Zn73 1.906 . S
O81 C89 1.304 . S
O82 Zn70 1.924 . S
O82 C90 1.311 1_545 S
O83 Zn74 1.977 . S
O83 C89 1.272 . S
O84 Zn74 1.910 1_565 S
O84 C90 1.231 . S
C85 O69 1.225 . S
C85 O91 1.298 . S
C86 O75 1.226 . S
C86 O76 1.307 . S
C87 O79 1.303 . S
C87 O80 1.247 . S
C88 O77 1.253 . S
C88 O78 1.283 . S
C89 O81 1.304 . S
C89 O83 1.272 . S
C90 O82 1.311 1_565 S
C90 O84 1.231 . S
O91 Zn73 1.953 . S
O91 C85 1.298 . S
O92 Zn93 1.953 . S
O92 C108 1.225 . S
Zn93 O92 1.953 . S
Zn93 O94 1.949 . S
Zn93 O100 1.919 . S
Zn93 O105 1.924 . S
O94 Zn93 1.949 . S
O94 Zn95 1.923 . S
O94 Zn96 1.950 . S
O94 Zn97 1.945 . S
Zn95 O94 1.923 . S
Zn95 O98 1.933 . S
Zn95 O101 1.941 . S
Zn95 O102 1.965 . S
Zn96 O94 1.950 . S
Zn96 O103 1.938 . S
Zn96 O104 1.906 . S
Zn96 O114 1.953 . S
Zn97 O94 1.945 . S
Zn97 O99 1.932 . S
Zn97 O106 1.977 . S
Zn97 O107 1.910 1_655 S
O98 Zn95 1.933 . S
O98 C109 1.226 . S
O99 Zn97 1.932 . S
O99 C109 1.307 . S
O100 Zn93 1.919 . S
O100 C111 1.253 . S
O101 Zn95 1.941 . S
O101 C111 1.283 . S
O102 Zn95 1.965 . S
O102 C110 1.303 . S
O103 Zn96 1.938 . S
O103 C110 1.247 . S
O104 Zn96 1.906 . S
O104 C112 1.304 . S
O105 Zn93 1.924 . S
O105 C113 1.311 1_655 S
O106 Zn97 1.977 . S
O106 C112 1.272 . S
O107 Zn97 1.910 1_455 S
O107 C113 1.231 . S
C108 O92 1.225 . S
C108 O114 1.298 . S
C109 O98 1.226 . S
C109 O99 1.307 . S
C110 O102 1.303 . S
C110 O103 1.247 . S
C111 O100 1.253 . S
C111 O101 1.283 . S
C112 O104 1.304 . S
C112 O106 1.272 . S
C113 O105 1.311 1_455 S
C113 O107 1.231 . S
O114 Zn96 1.953 . S
O114 C108 1.298 . S
O115 Zn116 1.953 . S
O115 C131 1.225 . S
Zn116 O115 1.953 . S
Zn116 O117 1.949 . S
Zn116 O123 1.919 . S
Zn116 O128 1.924 . S
O117 Zn116 1.949 . S
O117 Zn118 1.923 . S
O117 Zn119 1.950 . S
O117 Zn120 1.945 . S
Zn118 O117 1.923 . S
Zn118 O121 1.933 . S
Zn118 O124 1.941 . S
Zn118 O125 1.965 . S
Zn119 O117 1.950 . S
Zn119 O126 1.938 . S
Zn119 O127 1.906 . S
Zn119 O137 1.953 . S
Zn120 O117 1.945 . S
Zn120 O122 1.932 . S
Zn120 O129 1.977 . S
Zn120 O130 1.910 . S
O121 Zn118 1.933 . S
O121 C132 1.226 . S
O122 Zn120 1.932 . S
O122 C132 1.307 . S
O123 Zn116 1.919 . S
O123 C134 1.253 . S
O124 Zn118 1.941 . S
O124 C134 1.283 . S
O125 Zn118 1.965 . S
O125 C133 1.303 . S
O126 Zn119 1.938 . S
O126 C133 1.247 . S
O127 Zn119 1.906 . S
O127 C135 1.304 . S
O128 Zn116 1.924 . S
O128 C136 1.311 . S
O129 Zn120 1.977 . S
O129 C135 1.272 . S
O130 Zn120 1.910 . S
O130 C136 1.231 . S
C131 O115 1.225 . S
C131 O137 1.298 . S
C132 O121 1.226 . S
C132 O122 1.307 . S
C133 O125 1.303 . S
C133 O126 1.247 . S
C134 O123 1.253 . S
C134 O124 1.283 . S
C135 O127 1.304 . S
C135 O129 1.272 . S
C136 O128 1.311 . S
C136 O130 1.231 . S
O137 Zn119 1.953 . S
O137 C131 1.298 . S
O138 Zn139 1.953 . S
O138 C154 1.225 . S
Zn139 O138 1.953 . S
Zn139 O140 1.949 . S
Zn139 O146 1.919 . S
Zn139 O151 1.924 . S
O140 Zn139 1.949 . S
O140 Zn141 1.923 . S
O140 Zn142 1.950 . S
O140 Zn143 1.945 . S
Zn141 O140 1.923 . S
Zn141 O144 1.933 . S
Zn141 O147 1.941 . S
Zn141 O148 1.965 . S
Zn142 O140 1.950 . S
Zn142 O149 1.938 . S
Zn142 O150 1.906 . S
Zn142 O160 1.953 . S
Zn143 O140 1.945 . S
Zn143 O145 1.932 . S
Zn143 O152 1.977 . S
Zn143 O153 1.910 1_655 S
O144 Zn141 1.933 . S
O144 C155 1.226 . S
O145 Zn143 1.932 . S
O145 C155 1.307 . S
O146 Zn139 1.919 . S
O146 C157 1.253 . S
O147 Zn141 1.941 . S
O147 C157 1.283 . S
O148 Zn141 1.965 . S
O148 C156 1.303 . S
O149 Zn142 1.938 . S
O149 C156 1.247 . S
O150 Zn142 1.906 . S
O150 C158 1.304 . S
O151 Zn139 1.924 . S
O151 C159 1.311 1_655 S
O152 Zn143 1.977 . S
O152 C158 1.272 . S
O153 Zn143 1.910 1_455 S
O153 C159 1.231 . S
C154 O138 1.225 . S
C154 O160 1.298 . S
C155 O144 1.226 . S
C155 O145 1.307 . S
C156 O148 1.303 . S
C156 O149 1.247 . S
C157 O146 1.253 . S
C157 O147 1.283 . S
C158 O150 1.304 . S
C158 O152 1.272 . S
C159 O151 1.311 1_455 S
C159 O153 1.231 . S
O160 Zn142 1.953 . S
O160 C154 1.298 . S
O161 Zn162 1.953 . S
O161 C177 1.225 . S
Zn162 O161 1.953 . S
Zn162 O163 1.949 . S
Zn162 O169 1.919 . S
Zn162 O174 1.924 . S
O163 Zn162 1.949 . S
O163 Zn164 1.923 . S
O163 Zn165 1.950 . S
O163 Zn166 1.945 . S
Zn164 O163 1.923 . S
Zn164 O167 1.933 . S
Zn164 O170 1.941 . S
Zn164 O171 1.965 . S
Zn165 O163 1.950 . S
Zn165 O172 1.938 . S
Zn165 O173 1.906 . S
Zn165 O183 1.953 . S
Zn166 O163 1.945 . S
Zn166 O168 1.932 . S
Zn166 O175 1.977 . S
Zn166 O176 1.910 . S
O167 Zn164 1.933 . S
O167 C178 1.226 . S
O168 Zn166 1.932 . S
O168 C178 1.307 . S
O169 Zn162 1.919 . S
O169 C180 1.253 . S
O170 Zn164 1.941 . S
O170 C180 1.283 . S
O171 Zn164 1.965 . S
O171 C179 1.303 . S
O172 Zn165 1.938 . S
O172 C179 1.247 . S
O173 Zn165 1.906 . S
O173 C181 1.304 . S
O174 Zn162 1.924 . S
O174 C182 1.311 . S
O175 Zn166 1.977 . S
O175 C181 1.272 . S
O176 Zn166 1.910 . S
O176 C182 1.231 . S
C177 O161 1.225 . S
C177 O183 1.298 . S
C178 O167 1.226 . S
C178 O168 1.307 . S
C179 O171 1.303 . S
C179 O172 1.247 . S
C180 O169 1.253 . S
C180 O170 1.283 . S
C181 O173 1.304 . S
C181 O175 1.272 . S
C182 O174 1.311 . S
C182 O176 1.231 . S
O183 Zn165 1.953 . S
O183 C177 1.298 . S
O184 Zn185 1.953 . S
O184 C200 1.225 . S
Zn185 O184 1.953 . S
Zn185 O186 1.949 . S
Zn185 O192 1.919 . S
Zn185 O197 1.924 . S
O186 Zn185 1.949 . S
O186 Zn187 1.923 . S
O186 Zn188 1.950 . S
O186 Zn189 1.945 . S
Zn187 O186 1.923 . S
Zn187 O190 1.933 . S
Zn187 O193 1.941 . S
Zn187 O194 1.965 . S
Zn188 O186 1.950 . S
Zn188 O195 1.938 . S
Zn188 O196 1.906 . S
Zn188 O206 1.953 . S
Zn189 O186 1.945 . S
Zn189 O191 1.932 . S
Zn189 O198 1.977 . S
Zn189 O199 1.910 1_545 S
O190 Zn187 1.933 . S
O190 C201 1.226 . S
O191 Zn189 1.932 . S
O191 C201 1.307 . S
O192 Zn185 1.919 . S
O192 C203 1.253 . S
O193 Zn187 1.941 . S
O193 C203 1.283 . S
O194 Zn187 1.965 . S
O194 C202 1.303 . S
O195 Zn188 1.938 . S
O195 C202 1.247 . S
O196 Zn188 1.906 . S
O196 C204 1.304 . S
O197 Zn185 1.924 . S
O197 C205 1.311 1_545 S
O198 Zn189 1.977 . S
O198 C204 1.272 . S
O199 Zn189 1.910 1_565 S
O199 C205 1.231 . S
C200 O184 1.225 . S
C200 O206 1.298 . S
C201 O190 1.226 . S
C201 O191 1.307 . S
C202 O194 1.303 . S
C202 O195 1.247 . S
C203 O192 1.253 . S
C203 O193 1.283 . S
C204 O196 1.304 . S
C204 O198 1.272 . S
C205 O197 1.311 1_565 S
C205 O199 1.231 . S
O206 Zn188 1.953 . S
O206 C200 1.298 . S
O207 Zn208 1.953 . S
O207 C223 1.225 . S
Zn208 O207 1.953 . S
Zn208 O209 1.949 . S
Zn208 O215 1.919 . S
Zn208 O220 1.924 . S
O209 Zn208 1.949 . S
O209 Zn210 1.923 . S
O209 Zn211 1.950 . S
O209 Zn212 1.945 . S
Zn210 O209 1.923 . S
Zn210 O213 1.933 . S
Zn210 O216 1.941 . S
Zn210 O217 1.965 . S
Zn211 O209 1.950 . S
Zn211 O218 1.938 . S
Zn211 O219 1.906 . S
Zn211 O229 1.953 . S
Zn212 O209 1.945 . S
Zn212 O214 1.932 . S
Zn212 O221 1.977 . S
Zn212 O222 1.910 1_565 S
O213 Zn210 1.933 . S
O213 C224 1.226 . S
O214 Zn212 1.932 . S
O214 C224 1.307 . S
O215 Zn208 1.919 . S
O215 C226 1.253 . S
O216 Zn210 1.941 . S
O216 C226 1.283 . S
O217 Zn210 1.965 . S
O217 C225 1.303 . S
O218 Zn211 1.938 . S
O218 C225 1.247 . S
O219 Zn211 1.906 . S
O219 C227 1.304 . S
O220 Zn208 1.924 . S
O220 C228 1.311 1_565 S
O221 Zn212 1.977 . S
O221 C227 1.272 . S
O222 Zn212 1.910 1_545 S
O222 C228 1.231 . S
C223 O207 1.225 . S
C223 O229 1.298 . S
C224 O213 1.226 . S
C224 O214 1.307 . S
C225 O217 1.303 . S
C225 O218 1.247 . S
C226 O215 1.253 . S
C226 O216 1.283 . S
C227 O219 1.304 . S
C227 O221 1.272 . S
C228 O220 1.311 1_545 S
C228 O222 1.231 . S
O229 Zn211 1.953 . S
O229 C223 1.298 . S
O230 Zn231 1.953 . S
O230 C246 1.225 . S
Zn231 O230 1.953 . S
Zn231 O232 1.949 . S
Zn231 O238 1.919 . S
Zn231 O243 1.924 . S
O232 Zn231 1.949 . S
O232 Zn233 1.923 . S
O232 Zn234 1.950 . S
O232 Zn235 1.945 . S
Zn233 O232 1.923 . S
Zn233 O236 1.933 . S
Zn233 O239 1.941 . S
Zn233 O240 1.965 . S
Zn234 O232 1.950 . S
Zn234 O241 1.938 . S
Zn234 O242 1.906 . S
Zn234 O252 1.953 . S
Zn235 O232 1.945 . S
Zn235 O237 1.932 . S
Zn235 O244 1.977 . S
Zn235 O245 1.910 1_455 S
O236 Zn233 1.933 . S
O236 C247 1.226 . S
O237 Zn235 1.932 . S
O237 C247 1.307 . S
O238 Zn231 1.919 . S
O238 C249 1.253 . S
O239 Zn233 1.941 . S
O239 C249 1.283 . S
O240 Zn233 1.965 . S
O240 C248 1.303 . S
O241 Zn234 1.938 . S
O241 C248 1.247 . S
O242 Zn234 1.906 . S
O242 C250 1.304 . S
O243 Zn231 1.924 . S
O243 C251 1.311 1_455 S
O244 Zn235 1.977 . S
O244 C250 1.272 . S
O245 Zn235 1.910 1_655 S
O245 C251 1.231 . S
C246 O230 1.225 . S
C246 O252 1.298 . S
C247 O236 1.226 . S
C247 O237 1.307 . S
C248 O240 1.303 . S
C248 O241 1.247 . S
C249 O238 1.253 . S
C249 O239 1.283 . S
C250 O242 1.304 . S
C250 O244 1.272 . S
C251 O243 1.311 1_655 S
C251 O245 1.231 . S
O252 Zn234 1.953 . S
O252 C246 1.298 . S
O253 Zn254 1.953 . S
O253 C269 1.225 . S
Zn254 O253 1.953 . S
Zn254 O255 1.949 . S
Zn254 O261 1.919 . S
Zn254 O266 1.924 . S
O255 Zn254 1.949 . S
O255 Zn256 1.923 . S
O255 Zn257 1.950 . S
O255 Zn258 1.945 . S
Zn256 O255 1.923 . S
Zn256 O259 1.933 . S
Zn256 O262 1.941 . S
Zn256 O263 1.965 . S
Zn257 O255 1.950 . S
Zn257 O264 1.938 . S
Zn257 O265 1.906 . S
Zn257 O275 1.953 . S
Zn258 O255 1.945 . S
Zn258 O260 1.932 . S
Zn258 O267 1.977 . S
Zn258 O268 1.910 . S
O259 Zn256 1.933 . S
O259 C270 1.226 . S
O260 Zn258 1.932 . S
O260 C270 1.307 . S
O261 Zn254 1.919 . S
O261 C272 1.253 . S
O262 Zn256 1.941 . S
O262 C272 1.283 . S
O263 Zn256 1.965 . S
O263 C271 1.303 . S
O264 Zn257 1.938 . S
O264 C271 1.247 . S
O265 Zn257 1.906 . S
O265 C273 1.304 . S
O266 Zn254 1.924 . S
O266 C274 1.311 . S
O267 Zn258 1.977 . S
O267 C273 1.272 . S
O268 Zn258 1.910 . S
O268 C274 1.231 . S
C269 O253 1.225 . S
C269 O275 1.298 . S
C270 O259 1.226 . S
C270 O260 1.307 . S
C271 O263 1.303 . S
C271 O264 1.247 . S
C272 O261 1.253 . S
C272 O262 1.283 . S
C273 O265 1.304 . S
C273 O267 1.272 . S
C274 O266 1.311 . S
C274 O268 1.231 . S
O275 Zn257 1.953 . S
O275 C269 1.298 . S
O276 Zn277 1.953 . S
O276 C292 1.225 . S
Zn277 O276 1.953 . S
Zn277 O278 1.949 . S
Zn277 O284 1.919 . S
Zn277 O289 1.924 . S
O278 Zn277 1.949 . S
O278 Zn279 1.923 . S
O278 Zn280 1.950 . S
O278 Zn281 1.945 . S
Zn279 O278 1.923 . S
Zn279 O282 1.933 . S
Zn279 O285 1.941 . S
Zn279 O286 1.965 . S
Zn280 O278 1.950 . S
Zn280 O287 1.938 . S
Zn280 O288 1.906 . S
Zn280 O298 1.953 . S
Zn281 O278 1.945 . S
Zn281 O283 1.932 . S
Zn281 O290 1.977 . S
Zn281 O291 1.910 . S
O282 Zn279 1.933 . S
O282 C293 1.226 . S
O283 Zn281 1.932 . S
O283 C293 1.307 . S
O284 Zn277 1.919 . S
O284 C295 1.253 . S
O285 Zn279 1.941 . S
O285 C295 1.283 . S
O286 Zn279 1.965 . S
O286 C294 1.303 . S
O287 Zn280 1.938 . S
O287 C294 1.247 . S
O288 Zn280 1.906 . S
O288 C296 1.304 . S
O289 Zn277 1.924 . S
O289 C297 1.311 . S
O290 Zn281 1.977 . S
O290 C296 1.272 . S
O291 Zn281 1.910 . S
O291 C297 1.231 . S
C292 O276 1.225 . S
C292 O298 1.298 . S
C293 O282 1.226 . S
C293 O283 1.307 . S
C294 O286 1.303 . S
C294 O287 1.247 . S
C295 O284 1.253 . S
C295 O285 1.283 . S
C296 O288 1.304 . S
C296 O290 1.272 . S
C297 O289 1.311 . S
C297 O291 1.231 . S
O298 Zn280 1.953 . S
O298 C292 1.298 . S
O299 Zn300 1.953 . S
O299 C315 1.225 . S
Zn300 O299 1.953 . S
Zn300 O301 1.949 . S
Zn300 O307 1.919 . S
Zn300 O312 1.924 . S
O301 Zn300 1.949 . S
O301 Zn302 1.923 . S
O301 Zn303 1.950 . S
O301 Zn304 1.945 . S
Zn302 O301 1.923 . S
Zn302 O305 1.933 . S
Zn302 O308 1.941 . S
Zn302 O309 1.965 . S
Zn303 O301 1.950 . S
Zn303 O310 1.938 . S
Zn303 O311 1.906 . S
Zn303 O321 1.953 . S
Zn304 O301 1.945 . S
Zn304 O306 1.932 . S
Zn304 O313 1.977 . S
Zn304 O314 1.910 . S
O305 Zn302 1.933 . S
O305 C316 1.226 . S
O306 Zn304 1.932 . S
O306 C316 1.307 . S
O307 Zn300 1.919 . S
O307 C318 1.253 . S
O308 Zn302 1.941 . S
O308 C318 1.283 . S
O309 Zn302 1.965 . S
O309 C317 1.303 . S
O310 Zn303 1.938 . S
O310 C317 1.247 . S
O311 Zn303 1.906 . S
O311 C319 1.304 . S
O312 Zn300 1.924 . S
O312 C320 1.311 . S
O313 Zn304 1.977 . S
O313 C319 1.272 . S
O314 Zn304 1.910 . S
O314 C320 1.231 . S
C315 O299 1.225 . S
C315 O321 1.298 . S
C316 O305 1.226 . S
C316 O306 1.307 . S
C317 O309 1.303 . S
C317 O310 1.247 . S
C318 O307 1.253 . S
C318 O308 1.283 . S
C319 O311 1.304 . S
C319 O313 1.272 . S
C320 O312 1.311 . S
C320 O314 1.231 . S
O321 Zn303 1.953 . S
O321 C315 1.298 . S
O322 Zn323 1.953 . S
O322 C338 1.225 . S
Zn323 O322 1.953 . S
Zn323 O324 1.949 . S
Zn323 O330 1.919 . S
Zn323 O335 1.924 . S
O324 Zn323 1.949 . S
O324 Zn325 1.923 . S
O324 Zn326 1.950 . S
O324 Zn327 1.945 . S
Zn325 O324 1.923 . S
Zn325 O328 1.933 . S
Zn325 O331 1.941 . S
Zn325 O332 1.965 . S
Zn326 O324 1.950 . S
Zn326 O333 1.938 . S
Zn326 O334 1.906 . S
Zn326 O344 1.953 . S
Zn327 O324 1.945 . S
Zn327 O329 1.932 . S
Zn327 O336 1.977 . S
Zn327 O337 1.910 . S
O328 Zn325 1.933 . S
O328 C339 1.226 . S
O329 Zn327 1.932 . S
O329 C339 1.307 . S
O330 Zn323 1.919 . S
O330 C341 1.253 . S
O331 Zn325 1.941 . S
O331 C341 1.283 . S
O332 Zn325 1.965 . S
O332 C340 1.303 . S
O333 Zn326 1.938 . S
O333 C340 1.247 . S
O334 Zn326 1.906 . S
O334 C342 1.304 . S
O335 Zn323 1.924 . S
O335 C343 1.311 . S
O336 Zn327 1.977 . S
O336 C342 1.272 . S
O337 Zn327 1.910 . S
O337 C343 1.231 . S
C338 O322 1.225 . S
C338 O344 1.298 . S
C339 O328 1.226 . S
C339 O329 1.307 . S
C340 O332 1.303 . S
C340 O333 1.247 . S
C341 O330 1.253 . S
C341 O331 1.283 . S
C342 O334 1.304 . S
C342 O336 1.272 . S
C343 O335 1.311 . S
C343 O337 1.231 . S
O344 Zn326 1.953 . S
O344 C338 1.298 . S
O345 Zn346 1.953 . S
O345 C361 1.225 . S
Zn346 O345 1.953 . S
Zn346 O347 1.949 . S
Zn346 O353 1.919 . S
Zn346 O358 1.924 . S
O347 Zn346 1.949 . S
O347 Zn348 1.923 . S
O347 Zn349 1.950 . S
O347 Zn350 1.945 . S
Zn348 O347 1.923 . S
Zn348 O351 1.933 1_655 S
Zn348 O354 1.941 . S
Zn348 O355 1.965 1_655 S
Zn349 O347 1.950 . S
Zn349 O356 1.938 . S
Zn349 O357 1.906 . S
Zn349 O367 1.953 . S
Zn350 O347 1.945 . S
Zn350 O352 1.932 . S
Zn350 O359 1.977 . S
Zn350 O360 1.910 . S
O351 Zn348 1.933 1_455 S
O351 C362 1.226 1_455 S
O352 Zn350 1.932 . S
O352 C362 1.307 . S
O353 Zn346 1.919 . S
O353 C364 1.253 . S
O354 Zn348 1.941 . S
O354 C364 1.283 . S
O355 Zn348 1.965 1_455 S
O355 C363 1.303 1_455 S
O356 Zn349 1.938 . S
O356 C363 1.247 . S
O357 Zn349 1.906 . S
O357 C365 1.304 . S
O358 Zn346 1.924 . S
O358 C366 1.311 . S
O359 Zn350 1.977 . S
O359 C365 1.272 . S
O360 Zn350 1.910 . S
O360 C366 1.231 . S
C361 O345 1.225 . S
C361 O367 1.298 . S
C362 O351 1.226 1_655 S
C362 O352 1.307 . S
C363 O355 1.303 1_655 S
C363 O356 1.247 . S
C364 O353 1.253 . S
C364 O354 1.283 . S
C365 O357 1.304 . S
C365 O359 1.272 . S
C366 O358 1.311 . S
C366 O360 1.231 . S
O367 Zn349 1.953 . S
O367 C361 1.298 . S
O368 Zn369 1.953 . S
O368 C384 1.225 . S
Zn369 O368 1.953 . S
Zn369 O370 1.949 . S
Zn369 O376 1.919 . S
Zn369 O381 1.924 . S
O370 Zn369 1.949 . S
O370 Zn371 1.923 . S
O370 Zn372 1.950 . S
O370 Zn373 1.945 . S
Zn371 O370 1.923 . S
Zn371 O374 1.933 . S
Zn371 O377 1.941 . S
Zn371 O378 1.965 . S
Zn372 O370 1.950 . S
Zn372 O379 1.938 . S
Zn372 O380 1.906 . S
Zn372 O390 1.953 . S
Zn373 O370 1.945 . S
Zn373 O375 1.932 . S
Zn373 O382 1.977 . S
Zn373 O383 1.910 . S
O374 Zn371 1.933 . S
O374 C385 1.226 . S
O375 Zn373 1.932 . S
O375 C385 1.307 . S
O376 Zn369 1.919 . S
O376 C387 1.253 . S
O377 Zn371 1.941 . S
O377 C387 1.283 . S
O378 Zn371 1.965 . S
O378 C386 1.303 . S
O379 Zn372 1.938 . S
O379 C386 1.247 . S
O380 Zn372 1.906 . S
O380 C388 1.304 . S
O381 Zn369 1.924 . S
O381 C389 1.311 . S
O382 Zn373 1.977 . S
O382 C388 1.272 . S
O383 Zn373 1.910 . S
O383 C389 1.231 . S
C384 O368 1.225 . S
C384 O390 1.298 . S
C385 O374 1.226 . S
C385 O375 1.307 . S
C386 O378 1.303 . S
C386 O379 1.247 . S
C387 O376 1.253 . S
C387 O377 1.283 . S
C388 O380 1.304 . S
C388 O382 1.272 . S
C389 O381 1.311 . S
C389 O383 1.231 . S
O390 Zn372 1.953 . S
O390 C384 1.298 . S
O391 Zn392 1.953 . S
O391 C407 1.225 . S
Zn392 O391 1.953 . S
Zn392 O393 1.949 . S
Zn392 O399 1.919 . S
Zn392 O404 1.924 . S
O393 Zn392 1.949 . S
O393 Zn394 1.923 . S
O393 Zn395 1.950 . S
O393 Zn396 1.945 . S
Zn394 O393 1.923 . S
Zn394 O397 1.933 1_545 S
Zn394 O400 1.941 . S
Zn394 O401 1.965 1_545 S
Zn395 O393 1.950 . S
Zn395 O402 1.938 . S
Zn395 O403 1.906 . S
Zn395 O413 1.953 . S
Zn396 O393 1.945 . S
Zn396 O398 1.932 . S
Zn396 O405 1.977 . S
Zn396 O406 1.910 . S
O397 Zn394 1.933 1_565 S
O397 C408 1.226 1_565 S
O398 Zn396 1.932 . S
O398 C408 1.307 . S
O399 Zn392 1.919 . S
O399 C410 1.253 . S
O400 Zn394 1.941 . S
O400 C410 1.283 . S
O401 Zn394 1.965 1_565 S
O401 C409 1.303 1_565 S
O402 Zn395 1.938 . S
O402 C409 1.247 . S
O403 Zn395 1.906 . S
O403 C411 1.304 . S
O404 Zn392 1.924 . S
O404 C412 1.311 . S
O405 Zn396 1.977 . S
O405 C411 1.272 . S
O406 Zn396 1.910 . S
O406 C412 1.231 . S
C407 O391 1.225 . S
C407 O413 1.298 . S
C408 O397 1.226 1_545 S
C408 O398 1.307 . S
C409 O401 1.303 1_545 S
C409 O402 1.247 . S
C410 O399 1.253 . S
C410 O400 1.283 . S
C411 O403 1.304 . S
C411 O405 1.272 . S
C412 O404 1.311 . S
C412 O406 1.231 . S
O413 Zn395 1.953 . S
O413 C407 1.298 . S
O414 Zn415 1.953 . S
O414 C430 1.225 . S
Zn415 O414 1.953 . S
Zn415 O416 1.949 . S
Zn415 O422 1.919 . S
Zn415 O427 1.924 . S
O416 Zn415 1.949 . S
O416 Zn417 1.923 . S
O416 Zn418 1.950 . S
O416 Zn419 1.945 . S
Zn417 O416 1.923 . S
Zn417 O420 1.933 1_545 S
Zn417 O423 1.941 . S
Zn417 O424 1.965 1_545 S
Zn418 O416 1.950 . S
Zn418 O425 1.938 . S
Zn418 O426 1.906 . S
Zn418 O436 1.953 . S
Zn419 O416 1.945 . S
Zn419 O421 1.932 . S
Zn419 O428 1.977 . S
Zn419 O429 1.910 . S
O420 Zn417 1.933 1_565 S
O420 C431 1.226 1_565 S
O421 Zn419 1.932 . S
O421 C431 1.307 . S
O422 Zn415 1.919 . S
O422 C433 1.253 . S
O423 Zn417 1.941 . S
O423 C433 1.283 . S
O424 Zn417 1.965 1_565 S
O424 C432 1.303 1_565 S
O425 Zn418 1.938 . S
O425 C432 1.247 . S
O426 Zn418 1.906 . S
O426 C434 1.304 . S
O427 Zn415 1.924 . S
O427 C435 1.311 . S
O428 Zn419 1.977 . S
O428 C434 1.272 . S
O429 Zn419 1.910 . S
O429 C435 1.231 . S
C430 O414 1.225 . S
C430 O436 1.298 . S
C431 O420 1.226 1_545 S
C431 O421 1.307 . S
C432 O424 1.303 1_545 S
C432 O425 1.247 . S
C433 O422 1.253 . S
C433 O423 1.283 . S
C434 O426 1.304 . S
C434 O428 1.272 . S
C435 O427 1.311 . S
C435 O429 1.231 . S
O436 Zn418 1.953 . S
O436 C430 1.298 . S
O437 Zn438 1.953 . S
O437 C453 1.225 . S
Zn438 O437 1.953 . S
Zn438 O439 1.949 . S
Zn438 O445 1.919 . S
Zn438 O450 1.924 . S
O439 Zn438 1.949 . S
O439 Zn440 1.923 . S
O439 Zn441 1.950 . S
O439 Zn442 1.945 . S
Zn440 O439 1.923 . S
Zn440 O443 1.933 1_655 S
Zn440 O446 1.941 . S
Zn440 O447 1.965 1_655 S
Zn441 O439 1.950 . S
Zn441 O448 1.938 . S
Zn441 O449 1.906 . S
Zn441 O459 1.953 . S
Zn442 O439 1.945 . S
Zn442 O444 1.932 . S
Zn442 O451 1.977 . S
Zn442 O452 1.910 . S
O443 Zn440 1.933 1_455 S
O443 C454 1.226 1_455 S
O444 Zn442 1.932 . S
O444 C454 1.307 . S
O445 Zn438 1.919 . S
O445 C456 1.253 . S
O446 Zn440 1.941 . S
O446 C456 1.283 . S
O447 Zn440 1.965 1_455 S
O447 C455 1.303 1_455 S
O448 Zn441 1.938 . S
O448 C455 1.247 . S
O449 Zn441 1.906 . S
O449 C457 1.304 . S
O450 Zn438 1.924 . S
O450 C458 1.311 . S
O451 Zn442 1.977 . S
O451 C457 1.272 . S
O452 Zn442 1.910 . S
O452 C458 1.231 . S
C453 O437 1.225 . S
C453 O459 1.298 . S
C454 O443 1.226 1_655 S
C454 O444 1.307 . S
C455 O447 1.303 1_655 S
C455 O448 1.247 . S
C456 O445 1.253 . S
C456 O446 1.283 . S
C457 O449 1.304 . S
C457 O451 1.272 . S
C458 O450 1.311 . S
C458 O452 1.231 . S
O459 Zn441 1.953 . S
O459 C453 1.298 . S
O460 Zn461 1.953 . S
O460 C476 1.225 . S
Zn461 O460 1.953 . S
Zn461 O462 1.949 . S
Zn461 O468 1.919 . S
Zn461 O473 1.924 . S
O462 Zn461 1.949 . S
O462 Zn463 1.923 . S
O462 Zn464 1.950 . S
O462 Zn465 1.945 . S
Zn463 O462 1.923 . S
Zn463 O466 1.933 . S
Zn463 O469 1.941 . S
Zn463 O470 1.965 . S
Zn464 O462 1.950 . S
Zn464 O471 1.938 . S
Zn464 O472 1.906 . S
Zn464 O482 1.953 . S
Zn465 O462 1.945 . S
Zn465 O467 1.932 . S
Zn465 O474 1.977 . S
Zn465 O475 1.910 . S
O466 Zn463 1.933 . S
O466 C477 1.226 . S
O467 Zn465 1.932 . S
O467 C477 1.307 . S
O468 Zn461 1.919 . S
O468 C479 1.253 . S
O469 Zn463 1.941 . S
O469 C479 1.283 . S
O470 Zn463 1.965 . S
O470 C478 1.303 . S
O471 Zn464 1.938 . S
O471 C478 1.247 . S
O472 Zn464 1.906 . S
O472 C480 1.304 . S
O473 Zn461 1.924 . S
O473 C481 1.311 . S
O474 Zn465 1.977 . S
O474 C480 1.272 . S
O475 Zn465 1.910 . S
O475 C481 1.231 . S
C476 O460 1.225 . S
C476 O482 1.298 . S
C477 O466 1.226 . S
C477 O467 1.307 . S
C478 O470 1.303 . S
C478 O471 1.247 . S
C479 O468 1.253 . S
C479 O469 1.283 . S
C480 O472 1.304 . S
C480 O474 1.272 . S
C481 O473 1.311 . S
C481 O475 1.231 . S
O482 Zn464 1.953 . S
O482 C476 1.298 . S
O483 Zn484 1.953 . S
O483 C499 1.225 . S
Zn484 O483 1.953 . S
Zn484 O485 1.949 . S
Zn484 O491 1.919 . S
Zn484 O496 1.924 . S
O485 Zn484 1.949 . S
O485 Zn486 1.923 . S
O485 Zn487 1.950 1_556 S
O485 Zn488 1.945 1_556 S
Zn486 O485 1.923 . S
Zn486 O489 1.933 . S
Zn486 O492 1.941 . S
Zn486 O493 1.965 . S
Zn487 O485 1.950 1_554 S
Zn487 O494 1.938 . S
Zn487 O495 1.906 . S
Zn487 O505 1.953 . S
Zn488 O485 1.945 1_554 S
Zn488 O490 1.932 . S
Zn488 O497 1.977 . S
Zn488 O498 1.910 1_554 S
O489 Zn486 1.933 . S
O489 C500 1.226 . S
O490 Zn488 1.932 . S
O490 C500 1.307 1_554 S
O491 Zn484 1.919 . S
O491 C502 1.253 . S
O492 Zn486 1.941 . S
O492 C502 1.283 . S
O493 Zn486 1.965 . S
O493 C501 1.303 1_556 S
O494 Zn487 1.938 . S
O494 C501 1.247 . S
O495 Zn487 1.906 . S
O495 C503 1.304 . S
O496 Zn484 1.924 . S
O496 C504 1.311 . S
O497 Zn488 1.977 . S
O497 C503 1.272 . S
O498 Zn488 1.910 1_556 S
O498 C504 1.231 . S
C499 O483 1.225 . S
C499 O505 1.298 1_556 S
C500 O489 1.226 . S
C500 O490 1.307 1_556 S
C501 O493 1.303 1_554 S
C501 O494 1.247 . S
C502 O491 1.253 . S
C502 O492 1.283 . S
C503 O495 1.304 . S
C503 O497 1.272 . S
C504 O496 1.311 . S
C504 O498 1.231 . S
O505 Zn487 1.953 . S
O505 C499 1.298 1_554 S
O506 Zn507 1.953 . S
O506 C522 1.225 . S
Zn507 O506 1.953 . S
Zn507 O508 1.949 . S
Zn507 O514 1.919 . S
Zn507 O519 1.924 . S
O508 Zn507 1.949 . S
O508 Zn509 1.923 . S
O508 Zn510 1.950 1_556 S
O508 Zn511 1.945 1_556 S
Zn509 O508 1.923 . S
Zn509 O512 1.933 . S
Zn509 O515 1.941 . S
Zn509 O516 1.965 . S
Zn510 O508 1.950 1_554 S
Zn510 O517 1.938 . S
Zn510 O518 1.906 . S
Zn510 O528 1.953 . S
Zn511 O508 1.945 1_554 S
Zn511 O513 1.932 . S
Zn511 O520 1.977 . S
Zn511 O521 1.910 1_554 S
O512 Zn509 1.933 . S
O512 C523 1.226 . S
O513 Zn511 1.932 . S
O513 C523 1.307 1_554 S
O514 Zn507 1.919 . S
O514 C525 1.253 . S
O515 Zn509 1.941 . S
O515 C525 1.283 . S
O516 Zn509 1.965 . S
O516 C524 1.303 1_556 S
O517 Zn510 1.938 . S
O517 C524 1.247 . S
O518 Zn510 1.906 . S
O518 C526 1.304 . S
O519 Zn507 1.924 . S
O519 C527 1.311 . S
O520 Zn511 1.977 . S
O520 C526 1.272 . S
O521 Zn511 1.910 1_556 S
O521 C527 1.231 . S
C522 O506 1.225 . S
C522 O528 1.298 1_556 S
C523 O512 1.226 . S
C523 O513 1.307 1_556 S
C524 O516 1.303 1_554 S
C524 O517 1.247 . S
C525 O514 1.253 . S
C525 O515 1.283 . S
C526 O518 1.304 . S
C526 O520 1.272 . S
C527 O519 1.311 . S
C527 O521 1.231 . S
O528 Zn510 1.953 . S
O528 C522 1.298 1_554 S
O529 Zn530 1.953 . S
O529 C545 1.225 . S
Zn530 O529 1.953 . S
Zn530 O531 1.949 . S
Zn530 O537 1.919 . S
Zn530 O542 1.924 . S
O531 Zn530 1.949 . S
O531 Zn532 1.923 . S
O531 Zn533 1.950 1_556 S
O531 Zn534 1.945 1_556 S
Zn532 O531 1.923 . S
Zn532 O535 1.933 . S
Zn532 O538 1.941 . S
Zn532 O539 1.965 . S
Zn533 O531 1.950 1_554 S
Zn533 O540 1.938 . S
Zn533 O541 1.906 . S
Zn533 O551 1.953 . S
Zn534 O531 1.945 1_554 S
Zn534 O536 1.932 . S
Zn534 O543 1.977 . S
Zn534 O544 1.910 1_554 S
O535 Zn532 1.933 . S
O535 C546 1.226 . S
O536 Zn534 1.932 . S
O536 C546 1.307 1_554 S
O537 Zn530 1.919 . S
O537 C548 1.253 . S
O538 Zn532 1.941 . S
O538 C548 1.283 . S
O539 Zn532 1.965 . S
O539 C547 1.303 1_556 S
O540 Zn533 1.938 . S
O540 C547 1.247 . S
O541 Zn533 1.906 . S
O541 C549 1.304 . S
O542 Zn530 1.924 . S
O542 C550 1.311 . S
O543 Zn534 1.977 . S
O543 C549 1.272 . S
O544 Zn534 1.910 1_556 S
O544 C550 1.231 . S
C545 O529 1.225 . S
C545 O551 1.298 1_556 S
C546 O535 1.226 . S
C546 O536 1.307 1_556 S
C547 O539 1.303 1_554 S
C547 O540 1.247 . S
C548 O537 1.253 . S
C548 O538 1.283 . S
C549 O541 1.304 . S
C549 O543 1.272 . S
C550 O542 1.311 . S
C550 O544 1.231 . S
O551 Zn533 1.953 . S
O551 C545 1.298 1_554 S
O552 Zn553 1.953 . S
O552 C568 1.225 . S
Zn553 O552 1.953 . S
Zn553 O554 1.949 . S
Zn553 O560 1.919 . S
Zn553 O565 1.924 . S
O554 Zn553 1.949 . S
O554 Zn555 1.923 . S
O554 Zn556 1.950 . S
O554 Zn557 1.945 . S
Zn555 O554 1.923 . S
Zn555 O558 1.933 1_565 S
Zn555 O561 1.941 . S
Zn555 O562 1.965 1_565 S
Zn556 O554 1.950 . S
Zn556 O563 1.938 . S
Zn556 O564 1.906 . S
Zn556 O574 1.953 . S
Zn557 O554 1.945 . S
Zn557 O559 1.932 . S
Zn557 O566 1.977 . S
Zn557 O567 1.910 . S
O558 Zn555 1.933 1_545 S
O558 C569 1.226 1_545 S
O559 Zn557 1.932 . S
O559 C569 1.307 . S
O560 Zn553 1.919 . S
O560 C571 1.253 . S
O561 Zn555 1.941 . S
O561 C571 1.283 . S
O562 Zn555 1.965 1_545 S
O562 C570 1.303 1_545 S
O563 Zn556 1.938 . S
O563 C570 1.247 . S
O564 Zn556 1.906 . S
O564 C572 1.304 . S
O565 Zn553 1.924 . S
O565 C573 1.311 . S
O566 Zn557 1.977 . S
O566 C572 1.272 . S
O567 Zn557 1.910 . S
O567 C573 1.231 . S
C568 O552 1.225 . S
C568 O574 1.298 . S
C569 O558 1.226 1_565 S
C569 O559 1.307 . S
C570 O562 1.303 1_565 S
C570 O563 1.247 . S
C571 O560 1.253 . S
C571 O561 1.283 . S
C572 O564 1.304 . S
C572 O566 1.272 . S
C573 O565 1.311 . S
C573 O567 1.231 . S
O574 Zn556 1.953 . S
O574 C568 1.298 . S
O575 Zn576 1.953 . S
O575 C591 1.225 . S
Zn576 O575 1.953 . S
Zn576 O577 1.949 . S
Zn576 O583 1.919 . S
Zn576 O588 1.924 . S
O577 Zn576 1.949 . S
O577 Zn578 1.923 . S
O577 Zn579 1.950 . S
O577 Zn580 1.945 . S
Zn578 O577 1.923 . S
Zn578 O581 1.933 1_455 S
Zn578 O584 1.941 . S
Zn578 O585 1.965 1_455 S
Zn579 O577 1.950 . S
Zn579 O586 1.938 . S
Zn579 O587 1.906 . S
Zn579 O597 1.953 . S
Zn580 O577 1.945 . S
Zn580 O582 1.932 . S
Zn580 O589 1.977 . S
Zn580 O590 1.910 . S
O581 Zn578 1.933 1_655 S
O581 C592 1.226 1_655 S
O582 Zn580 1.932 . S
O582 C592 1.307 . S
O583 Zn576 1.919 . S
O583 C594 1.253 . S
O584 Zn578 1.941 . S
O584 C594 1.283 . S
O585 Zn578 1.965 1_655 S
O585 C593 1.303 1_655 S
O586 Zn579 1.938 . S
O586 C593 1.247 . S
O587 Zn579 1.906 . S
O587 C595 1.304 . S
O588 Zn576 1.924 . S
O588 C596 1.311 . S
O589 Zn580 1.977 . S
O589 C595 1.272 . S
O590 Zn580 1.910 . S
O590 C596 1.231 . S
C591 O575 1.225 . S
C591 O597 1.298 . S
C592 O581 1.226 1_455 S
C592 O582 1.307 . S
C593 O585 1.303 1_455 S
C593 O586 1.247 . S
C594 O583 1.253 . S
C594 O584 1.283 . S
C595 O587 1.304 . S
C595 O589 1.272 . S
C596 O588 1.311 . S
C596 O590 1.231 . S
O597 Zn579 1.953 . S
O597 C591 1.298 . S
O598 Zn599 1.953 . S
O598 C614 1.225 . S
Zn599 O598 1.953 . S
Zn599 O600 1.949 . S
Zn599 O606 1.919 . S
Zn599 O611 1.924 . S
O600 Zn599 1.949 . S
O600 Zn601 1.923 . S
O600 Zn602 1.950 . S
O600 Zn603 1.945 . S
Zn601 O600 1.923 . S
Zn601 O604 1.933 . S
Zn601 O607 1.941 . S
Zn601 O608 1.965 . S
Zn602 O600 1.950 . S
Zn602 O609 1.938 . S
Zn602 O610 1.906 . S
Zn602 O620 1.953 . S
Zn603 O600 1.945 . S
Zn603 O605 1.932 . S
Zn603 O612 1.977 . S
Zn603 O613 1.910 . S
O604 Zn601 1.933 . S
O604 C615 1.226 . S
O605 Zn603 1.932 . S
O605 C615 1.307 . S
O606 Zn599 1.919 . S
O606 C617 1.253 . S
O607 Zn601 1.941 . S
O607 C617 1.283 . S
O608 Zn601 1.965 . S
O608 C616 1.303 . S
O609 Zn602 1.938 . S
O609 C616 1.247 . S
O610 Zn602 1.906 . S
O610 C618 1.304 . S
O611 Zn599 1.924 . S
O611 C619 1.311 . S
O612 Zn603 1.977 . S
O612 C618 1.272 . S
O613 Zn603 1.910 . S
O613 C619 1.231 . S
C614 O598 1.225 . S
C614 O620 1.298 . S
C615 O604 1.226 . S
C615 O605 1.307 . S
C616 O608 1.303 . S
C616 O609 1.247 . S
C617 O606 1.253 . S
C617 O607 1.283 . S
C618 O610 1.304 . S
C618 O612 1.272 . S
C619 O611 1.311 . S
C619 O613 1.231 . S
O620 Zn602 1.953 . S
O620 C614 1.298 . S
O621 Zn622 1.953 . S
O621 C637 1.225 . S
Zn622 O621 1.953 . S
Zn622 O623 1.949 . S
Zn622 O629 1.919 . S
Zn622 O634 1.924 . S
O623 Zn622 1.949 . S
O623 Zn624 1.923 . S
O623 Zn625 1.950 1_554 S
O623 Zn626 1.945 1_554 S
Zn624 O623 1.923 . S
Zn624 O627 1.933 . S
Zn624 O630 1.941 . S
Zn624 O631 1.965 . S
Zn625 O623 1.950 1_556 S
Zn625 O632 1.938 . S
Zn625 O633 1.906 . S
Zn625 O643 1.953 . S
Zn626 O623 1.945 1_556 S
Zn626 O628 1.932 . S
Zn626 O635 1.977 . S
Zn626 O636 1.910 1_556 S
O627 Zn624 1.933 . S
O627 C638 1.226 . S
O628 Zn626 1.932 . S
O628 C638 1.307 1_556 S
O629 Zn622 1.919 . S
O629 C640 1.253 . S
O630 Zn624 1.941 . S
O630 C640 1.283 . S
O631 Zn624 1.965 . S
O631 C639 1.303 1_554 S
O632 Zn625 1.938 . S
O632 C639 1.247 . S
O633 Zn625 1.906 . S
O633 C641 1.304 . S
O634 Zn622 1.924 . S
O634 C642 1.311 . S
O635 Zn626 1.977 . S
O635 C641 1.272 . S
O636 Zn626 1.910 1_554 S
O636 C642 1.231 . S
C637 O621 1.225 . S
C637 O643 1.298 1_554 S
C638 O627 1.226 . S
C638 O628 1.307 1_554 S
C639 O631 1.303 1_556 S
C639 O632 1.247 . S
C640 O629 1.253 . S
C640 O630 1.283 . S
C641 O633 1.304 . S
C641 O635 1.272 . S
C642 O634 1.311 . S
C642 O636 1.231 . S
O643 Zn625 1.953 . S
O643 C637 1.298 1_556 S
O644 Zn645 1.953 . S
O644 C660 1.225 . S
Zn645 O644 1.953 . S
Zn645 O646 1.949 . S
Zn645 O652 1.919 . S
Zn645 O657 1.924 . S
O646 Zn645 1.949 . S
O646 Zn647 1.923 . S
O646 Zn648 1.950 1_554 S
O646 Zn649 1.945 1_554 S
Zn647 O646 1.923 . S
Zn647 O650 1.933 . S
Zn647 O653 1.941 . S
Zn647 O654 1.965 . S
Zn648 O646 1.950 1_556 S
Zn648 O655 1.938 . S
Zn648 O656 1.906 . S
Zn648 O666 1.953 . S
Zn649 O646 1.945 1_556 S
Zn649 O651 1.932 . S
Zn649 O658 1.977 . S
Zn649 O659 1.910 1_556 S
O650 Zn647 1.933 . S
O650 C661 1.226 . S
O651 Zn649 1.932 . S
O651 C661 1.307 1_556 S
O652 Zn645 1.919 . S
O652 C663 1.253 . S
O653 Zn647 1.941 . S
O653 C663 1.283 . S
O654 Zn647 1.965 . S
O654 C662 1.303 1_554 S
O655 Zn648 1.938 . S
O655 C662 1.247 . S
O656 Zn648 1.906 . S
O656 C664 1.304 . S
O657 Zn645 1.924 . S
O657 C665 1.311 . S
O658 Zn649 1.977 . S
O658 C664 1.272 . S
O659 Zn649 1.910 1_554 S
O659 C665 1.231 . S
C660 O644 1.225 . S
C660 O666 1.298 1_554 S
C661 O650 1.226 . S
C661 O651 1.307 1_554 S
C662 O654 1.303 1_556 S
C662 O655 1.247 . S
C663 O652 1.253 . S
C663 O653 1.283 . S
C664 O656 1.304 . S
C664 O658 1.272 . S
C665 O657 1.311 . S
C665 O659 1.231 . S
O666 Zn648 1.953 . S
O666 C660 1.298 1_556 S
O667 Zn668 1.953 . S
O667 C683 1.225 . S
Zn668 O667 1.953 . S
Zn668 O669 1.949 . S
Zn668 O675 1.919 . S
Zn668 O680 1.924 . S
O669 Zn668 1.949 . S
O669 Zn670 1.923 . S
O669 Zn671 1.950 1_554 S
O669 Zn672 1.945 1_554 S
Zn670 O669 1.923 . S
Zn670 O673 1.933 . S
Zn670 O676 1.941 . S
Zn670 O677 1.965 . S
Zn671 O669 1.950 1_556 S
Zn671 O678 1.938 . S
Zn671 O679 1.906 . S
Zn671 O689 1.953 . S
Zn672 O669 1.945 1_556 S
Zn672 O674 1.932 . S
Zn672 O681 1.977 . S
Zn672 O682 1.910 1_556 S
O673 Zn670 1.933 . S
O673 C684 1.226 . S
O674 Zn672 1.932 . S
O674 C684 1.307 1_556 S
O675 Zn668 1.919 . S
O675 C686 1.253 . S
O676 Zn670 1.941 . S
O676 C686 1.283 . S
O677 Zn670 1.965 . S
O677 C685 1.303 1_554 S
O678 Zn671 1.938 . S
O678 C685 1.247 . S
O679 Zn671 1.906 . S
O679 C687 1.304 . S
O680 Zn668 1.924 . S
O680 C688 1.311 . S
O681 Zn672 1.977 . S
O681 C687 1.272 . S
O682 Zn672 1.910 1_554 S
O682 C688 1.231 . S
C683 O667 1.225 . S
C683 O689 1.298 1_554 S
C684 O673 1.226 . S
C684 O674 1.307 1_554 S
C685 O677 1.303 1_556 S
C685 O678 1.247 . S
C686 O675 1.253 . S
C686 O676 1.283 . S
C687 O679 1.304 . S
C687 O681 1.272 . S
C688 O680 1.311 . S
C688 O682 1.231 . S
O689 Zn671 1.953 . S
O689 C683 1.298 1_556 S
O690 Zn691 1.953 . S
O690 C706 1.225 . S
Zn691 O690 1.953 . S
Zn691 O692 1.949 . S
Zn691 O698 1.919 . S
Zn691 O703 1.924 . S
O692 Zn691 1.949 . S
O692 Zn693 1.923 . S
O692 Zn694 1.950 . S
O692 Zn695 1.945 . S
Zn693 O692 1.923 . S
Zn693 O696 1.933 . S
Zn693 O699 1.941 . S
Zn693 O700 1.965 . S
Zn694 O692 1.950 . S
Zn694 O701 1.938 . S
Zn694 O702 1.906 . S
Zn694 O712 1.953 . S
Zn695 O692 1.945 . S
Zn695 O697 1.932 . S
Zn695 O704 1.977 . S
Zn695 O705 1.910 . S
O696 Zn693 1.933 . S
O696 C707 1.226 . S
O697 Zn695 1.932 . S
O697 C707 1.307 . S
O698 Zn691 1.919 . S
O698 C709 1.253 . S
O699 Zn693 1.941 . S
O699 C709 1.283 . S
O700 Zn693 1.965 . S
O700 C708 1.303 . S
O701 Zn694 1.938 . S
O701 C708 1.247 . S
O702 Zn694 1.906 . S
O702 C710 1.304 . S
O703 Zn691 1.924 . S
O703 C711 1.311 . S
O704 Zn695 1.977 . S
O704 C710 1.272 . S
O705 Zn695 1.910 . S
O705 C711 1.231 . S
C706 O690 1.225 . S
C706 O712 1.298 . S
C707 O696 1.226 . S
C707 O697 1.307 . S
C708 O700 1.303 . S
C708 O701 1.247 . S
C709 O698 1.253 . S
C709 O699 1.283 . S
C710 O702 1.304 . S
C710 O704 1.272 . S
C711 O703 1.311 . S
C711 O705 1.231 . S
O712 Zn694 1.953 . S
O712 C706 1.298 . S
O713 Zn714 1.953 . S
O713 C729 1.225 . S
Zn714 O713 1.953 . S
Zn714 O715 1.949 . S
Zn714 O721 1.919 . S
Zn714 O726 1.924 . S
O715 Zn714 1.949 . S
O715 Zn716 1.923 . S
O715 Zn717 1.950 . S
O715 Zn718 1.945 . S
Zn716 O715 1.923 . S
Zn716 O719 1.933 . S
Zn716 O722 1.941 . S
Zn716 O723 1.965 . S
Zn717 O715 1.950 . S
Zn717 O724 1.938 . S
Zn717 O725 1.906 . S
Zn717 O735 1.953 . S
Zn718 O715 1.945 . S
Zn718 O720 1.932 . S
Zn718 O727 1.977 . S
Zn718 O728 1.910 . S
O719 Zn716 1.933 . S
O719 C730 1.226 . S
O720 Zn718 1.932 . S
O720 C730 1.307 . S
O721 Zn714 1.919 . S
O721 C732 1.253 . S
O722 Zn716 1.941 . S
O722 C732 1.283 . S
O723 Zn716 1.965 . S
O723 C731 1.303 . S
O724 Zn717 1.938 . S
O724 C731 1.247 . S
O725 Zn717 1.906 . S
O725 C733 1.304 . S
O726 Zn714 1.924 . S
O726 C734 1.311 . S
O727 Zn718 1.977 . S
O727 C733 1.272 . S
O728 Zn718 1.910 . S
O728 C734 1.231 . S
C729 O713 1.225 . S
C729 O735 1.298 . S
C730 O719 1.226 . S
C730 O720 1.307 . S
C731 O723 1.303 . S
C731 O724 1.247 . S
C732 O721 1.253 . S
C732 O722 1.283 . S
C733 O725 1.304 . S
C733 O727 1.272 . S
C734 O726 1.311 . S
C734 O728 1.231 . S
O735 Zn717 1.953 . S
O735 C729 1.298 . S
O736 Zn737 1.953 . S
O736 C752 1.225 . S
Zn737 O736 1.953 . S
Zn737 O738 1.949 . S
Zn737 O744 1.919 . S
Zn737 O749 1.924 . S
O738 Zn737 1.949 . S
O738 Zn739 1.923 . S
O738 Zn740 1.950 . S
O738 Zn741 1.945 . S
Zn739 O738 1.923 . S
Zn739 O742 1.933 . S
Zn739 O745 1.941 . S
Zn739 O746 1.965 . S
Zn740 O738 1.950 . S
Zn740 O747 1.938 . S
Zn740 O748 1.906 . S
Zn740 O758 1.953 . S
Zn741 O738 1.945 . S
Zn741 O743 1.932 . S
Zn741 O750 1.977 . S
Zn741 O751 1.910 . S
O742 Zn739 1.933 . S
O742 C753 1.226 . S
O743 Zn741 1.932 . S
O743 C753 1.307 . S
O744 Zn737 1.919 . S
O744 C755 1.253 . S
O745 Zn739 1.941 . S
O745 C755 1.283 . S
O746 Zn739 1.965 . S
O746 C754 1.303 . S
O747 Zn740 1.938 . S
O747 C754 1.247 . S
O748 Zn740 1.906 . S
O748 C756 1.304 . S
O749 Zn737 1.924 . S
O749 C757 1.311 . S
O750 Zn741 1.977 . S
O750 C756 1.272 . S
O751 Zn741 1.910 . S
O751 C757 1.231 . S
C752 O736 1.225 . S
C752 O758 1.298 . S
C753 O742 1.226 . S
C753 O743 1.307 . S
C754 O746 1.303 . S
C754 O747 1.247 . S
C755 O744 1.253 . S
C755 O745 1.283 . S
C756 O748 1.304 . S
C756 O750 1.272 . S
C757 O749 1.311 . S
C757 O751 1.231 . S
O758 Zn740 1.953 . S
O758 C752 1.298 . S
O759 Zn760 1.953 . S
O759 C775 1.225 . S
Zn760 O759 1.953 . S
Zn760 O761 1.949 . S
Zn760 O767 1.919 . S
Zn760 O772 1.924 . S
O761 Zn760 1.949 . S
O761 Zn762 1.923 . S
O761 Zn763 1.950 . S
O761 Zn764 1.945 . S
Zn762 O761 1.923 . S
Zn762 O765 1.933 1_455 S
Zn762 O768 1.941 . S
Zn762 O769 1.965 1_455 S
Zn763 O761 1.950 . S
Zn763 O770 1.938 . S
Zn763 O771 1.906 . S
Zn763 O781 1.953 . S
Zn764 O761 1.945 . S
Zn764 O766 1.932 . S
Zn764 O773 1.977 . S
Zn764 O774 1.910 . S
O765 Zn762 1.933 1_655 S
O765 C776 1.226 1_655 S
O766 Zn764 1.932 . S
O766 C776 1.307 . S
O767 Zn760 1.919 . S
O767 C778 1.253 . S
O768 Zn762 1.941 . S
O768 C778 1.283 . S
O769 Zn762 1.965 1_655 S
O769 C777 1.303 1_655 S
O770 Zn763 1.938 . S
O770 C777 1.247 . S
O771 Zn763 1.906 . S
O771 C779 1.304 . S
O772 Zn760 1.924 . S
O772 C780 1.311 . S
O773 Zn764 1.977 . S
O773 C779 1.272 . S
O774 Zn764 1.910 . S
O774 C780 1.231 . S
C775 O759 1.225 . S
C775 O781 1.298 . S
C776 O765 1.226 1_455 S
C776 O766 1.307 . S
C777 O769 1.303 1_455 S
C777 O770 1.247 . S
C778 O767 1.253 . S
C778 O768 1.283 . S
C779 O771 1.304 . S
C779 O773 1.272 . S
C780 O772 1.311 . S
C780 O774 1.231 . S
O781 Zn763 1.953 . S
O781 C775 1.298 . S
O782 Zn783 1.953 . S
O782 C798 1.225 . S
Zn783 O782 1.953 . S
Zn783 O784 1.949 . S
Zn783 O790 1.919 . S
Zn783 O795 1.924 . S
O784 Zn783 1.949 . S
O784 Zn785 1.923 . S
O784 Zn786 1.950 . S
O784 Zn787 1.945 . S
Zn785 O784 1.923 . S
Zn785 O788 1.933 . S
Zn785 O791 1.941 . S
Zn785 O792 1.965 . S
Zn786 O784 1.950 . S
Zn786 O793 1.938 . S
Zn786 O794 1.906 . S
Zn786 O804 1.953 . S
Zn787 O784 1.945 . S
Zn787 O789 1.932 . S
Zn787 O796 1.977 . S
Zn787 O797 1.910 . S
O788 Zn785 1.933 . S
O788 C799 1.226 . S
O789 Zn787 1.932 . S
O789 C799 1.307 . S
O790 Zn783 1.919 . S
O790 C801 1.253 . S
O791 Zn785 1.941 . S
O791 C801 1.283 . S
O792 Zn785 1.965 . S
O792 C800 1.303 . S
O793 Zn786 1.938 . S
O793 C800 1.247 . S
O794 Zn786 1.906 . S
O794 C802 1.304 . S
O795 Zn783 1.924 . S
O795 C803 1.311 . S
O796 Zn787 1.977 . S
O796 C802 1.272 . S
O797 Zn787 1.910 . S
O797 C803 1.231 . S
C798 O782 1.225 . S
C798 O804 1.298 . S
C799 O788 1.226 . S
C799 O789 1.307 . S
C800 O792 1.303 . S
C800 O793 1.247 . S
C801 O790 1.253 . S
C801 O791 1.283 . S
C802 O794 1.304 . S
C802 O796 1.272 . S
C803 O795 1.311 . S
C803 O797 1.231 . S
O804 Zn786 1.953 . S
O804 C798 1.298 . S
O805 Zn806 1.953 . S
O805 C821 1.225 . S
Zn806 O805 1.953 . S
Zn806 O807 1.949 . S
Zn806 O813 1.919 . S
Zn806 O818 1.924 . S
O807 Zn806 1.949 . S
O807 Zn808 1.923 . S
O807 Zn809 1.950 . S
O807 Zn810 1.945 . S
Zn808 O807 1.923 . S
Zn808 O811 1.933 1_565 S
Zn808 O814 1.941 . S
Zn808 O815 1.965 1_565 S
Zn809 O807 1.950 . S
Zn809 O816 1.938 . S
Zn809 O817 1.906 . S
Zn809 O827 1.953 . S
Zn810 O807 1.945 . S
Zn810 O812 1.932 . S
Zn810 O819 1.977 . S
Zn810 O820 1.910 . S
O811 Zn808 1.933 1_545 S
O811 C822 1.226 1_545 S
O812 Zn810 1.932 . S
O812 C822 1.307 . S
O813 Zn806 1.919 . S
O813 C824 1.253 . S
O814 Zn808 1.941 . S
O814 C824 1.283 . S
O815 Zn808 1.965 1_545 S
O815 C823 1.303 1_545 S
O816 Zn809 1.938 . S
O816 C823 1.247 . S
O817 Zn809 1.906 . S
O817 C825 1.304 . S
O818 Zn806 1.924 . S
O818 C826 1.311 . S
O819 Zn810 1.977 . S
O819 C825 1.272 . S
O820 Zn810 1.910 . S
O820 C826 1.231 . S
C821 O805 1.225 . S
C821 O827 1.298 . S
C822 O811 1.226 1_565 S
C822 O812 1.307 . S
C823 O815 1.303 1_565 S
C823 O816 1.247 . S
C824 O813 1.253 . S
C824 O814 1.283 . S
C825 O817 1.304 . S
C825 O819 1.272 . S
C826 O818 1.311 . S
C826 O820 1.231 . S
O827 Zn809 1.953 . S
O827 C821 1.298 . S
C828 C829 1.387 . S
C828 H832 0.950 . S
C828 C837 1.390 . S
C829 C828 1.387 . S
C829 C831 1.387 . S
H830 C837 0.950 . S
C831 C829 1.387 . S
C831 C833 1.390 . S
C831 H835 0.950 . S
H832 C828 0.950 . S
C833 C831 1.390 . S
C833 C834 1.387 . S
C833 H836 0.950 . S
C834 C833 1.387 . S
C834 C837 1.387 . S
H835 C831 0.950 . S
H836 C833 0.950 . S
C837 C828 1.390 . S
C837 H830 0.950 . S
C837 C834 1.387 . S
C838 C839 1.387 . S
C838 H842 0.950 . S
C838 C847 1.390 . S
C839 C838 1.387 . S
C839 C841 1.387 . S
H840 C847 0.950 . S
C841 C839 1.387 . S
C841 C843 1.390 . S
C841 H845 0.950 . S
H842 C838 0.950 . S
C843 C841 1.390 . S
C843 C844 1.387 . S
C843 H846 0.950 . S
C844 C843 1.387 . S
C844 C847 1.387 . S
H845 C841 0.950 . S
H846 C843 0.950 . S
C847 C838 1.390 . S
C847 H840 0.950 . S
C847 C844 1.387 . S
C848 C849 1.387 . S
C848 H852 0.955 . S
C848 C857 1.390 . S
C849 C848 1.387 . S
C849 C851 1.387 . S
H850 C857 0.950 . S
C851 C849 1.387 . S
C851 C853 1.390 . S
C851 H855 0.950 . S
H852 C848 0.955 . S
C853 C851 1.390 . S
C853 C854 1.387 . S
C853 H856 0.950 . S
C854 C853 1.387 . S
C854 C857 1.387 . S
H855 C851 0.950 . S
H856 C853 0.950 . S
C857 C848 1.390 . S
C857 H850 0.950 . S
C857 C854 1.387 . S
C858 C859 1.387 . S
C858 H862 0.950 . S
C858 C867 1.390 . S
C859 C858 1.387 . S
C859 C861 1.387 . S
H860 C867 0.950 . S
C861 C859 1.387 . S
C861 C863 1.390 . S
C861 H865 0.950 . S
H862 C858 0.950 . S
C863 C861 1.390 . S
C863 C864 1.387 . S
C863 H866 0.950 . S
C864 C863 1.387 . S
C864 C867 1.387 . S
H865 C861 0.950 . S
H866 C863 0.950 . S
C867 C858 1.390 . S
C867 H860 0.950 . S
C867 C864 1.387 . S
C868 C869 1.387 . S
C868 H872 0.950 . S
C868 C877 1.390 . S
C869 C868 1.387 . S
C869 C871 1.387 . S
H870 C877 0.950 . S
C871 C869 1.387 . S
C871 C873 1.390 . S
C871 H875 0.950 . S
H872 C868 0.950 . S
C873 C871 1.390 . S
C873 C874 1.387 . S
C873 H876 0.950 . S
C874 C873 1.387 . S
C874 C877 1.387 . S
H875 C871 0.950 . S
H876 C873 0.950 . S
C877 C868 1.390 . S
C877 H870 0.950 . S
C877 C874 1.387 . S
C878 C879 1.387 . S
C878 H882 0.950 . S
C878 C887 1.390 . S
C879 C878 1.387 . S
C879 C881 1.387 . S
H880 C887 0.950 . S
C881 C879 1.387 . S
C881 C883 1.390 . S
C881 H885 0.950 . S
H882 C878 0.950 . S
C883 C881 1.390 . S
C883 C884 1.387 . S
C883 H886 0.950 . S
C884 C883 1.387 . S
C884 C887 1.387 . S
H885 C881 0.950 . S
H886 C883 0.950 . S
C887 C878 1.390 . S
C887 H880 0.950 . S
C887 C884 1.387 . S
C888 C889 1.387 . S
C888 H892 0.950 . S
C888 C897 1.390 . S
C889 C888 1.387 . S
C889 C891 1.387 . S
H890 C897 0.950 . S
C891 C889 1.387 . S
C891 C893 1.390 . S
C891 H895 0.950 . S
H892 C888 0.950 . S
C893 C891 1.390 . S
C893 C894 1.387 . S
C893 H896 0.950 . S
C894 C893 1.387 . S
C894 C897 1.387 . S
H895 C891 0.950 . S
H896 C893 0.950 . S
C897 C888 1.390 . S
C897 H890 0.950 . S
C897 C894 1.387 . S
C898 C899 1.387 . S
C898 H902 0.950 . S
C898 C907 1.390 . S
C899 C898 1.387 . S
C899 C901 1.387 . S
H900 C907 0.950 . S
C901 C899 1.387 . S
C901 C903 1.390 . S
C901 H905 0.950 . S
H902 C898 0.950 . S
C903 C901 1.390 . S
C903 C904 1.387 . S
C903 H906 0.950 . S
C904 C903 1.387 . S
C904 C907 1.387 . S
H905 C901 0.950 . S
H906 C903 0.950 . S
C907 C898 1.390 . S
C907 H900 0.950 . S
C907 C904 1.387 . S
C908 C909 1.387 . S
C908 H912 0.950 . S
C908 C917 1.390 . S
C909 C908 1.387 . S
C909 C911 1.387 . S
H910 C917 0.950 . S
C911 C909 1.387 . S
C911 C913 1.390 . S
C911 H915 0.950 1_455 S
H912 C908 0.950 . S
C913 C911 1.390 . S
C913 C914 1.387 . S
C913 H916 0.950 . S
C914 C913 1.387 . S
C914 C917 1.387 . S
H915 C911 0.950 1_655 S
H916 C913 0.950 . S
C917 C908 1.390 . S
C917 H910 0.950 . S
C917 C914 1.387 . S
C918 C919 1.387 . S
C918 H922 0.950 . S
C918 C927 1.390 . S
C919 C918 1.387 . S
C919 C921 1.387 . S
H920 C927 0.950 . S
C921 C919 1.387 . S
C921 C923 1.390 . S
C921 H925 0.950 . S
H922 C918 0.950 . S
C923 C921 1.390 . S
C923 C924 1.387 . S
C923 H926 0.950 . S
C924 C923 1.387 . S
C924 C927 1.387 . S
H925 C921 0.950 . S
H926 C923 0.950 . S
C927 C918 1.390 . S
C927 H920 0.950 . S
C927 C924 1.387 . S
C928 C929 1.387 . S
C928 H932 0.950 . S
C928 C937 1.390 . S
C929 C928 1.387 . S
C929 C931 1.387 . S
H930 C937 0.950 . S
C931 C929 1.387 . S
C931 C933 1.390 . S
C931 H935 0.950 . S
H932 C928 0.950 . S
C933 C931 1.390 . S
C933 C934 1.387 . S
C933 H936 0.950 . S
C934 C933 1.387 . S
C934 C937 1.387 . S
H935 C931 0.950 . S
H936 C933 0.950 . S
C937 C928 1.390 . S
C937 H930 0.950 . S
C937 C934 1.387 . S
C938 C939 1.387 . S
C938 H942 0.950 . S
C938 C947 1.390 . S
C939 C938 1.387 . S
C939 C941 1.387 . S
H940 C947 0.950 . S
C941 C939 1.387 . S
C941 C943 1.390 . S
C941 H945 0.950 . S
H942 C938 0.950 . S
C943 C941 1.390 . S
C943 C944 1.387 . S
C943 H946 0.950 . S
C944 C943 1.387 . S
C944 C947 1.387 . S
H945 C941 0.950 . S
H946 C943 0.950 . S
C947 C938 1.390 . S
C947 H940 0.950 . S
C947 C944 1.387 . S
C948 C949 1.387 . S
C948 H952 0.950 . S
C948 C957 1.390 . S
C949 C948 1.387 . S
C949 C951 1.387 . S
H950 C957 0.950 . S
C951 C949 1.387 . S
C951 C953 1.390 . S
C951 H955 0.950 . S
H952 C948 0.950 . S
C953 C951 1.390 . S
C953 C954 1.387 . S
C953 H956 0.950 . S
C954 C953 1.387 . S
C954 C957 1.387 . S
H955 C951 0.950 . S
H956 C953 0.950 . S
C957 C948 1.390 . S
C957 H950 0.950 . S
C957 C954 1.387 . S
C958 C959 1.387 . S
C958 H962 0.950 . S
C958 C967 1.390 . S
C959 C958 1.387 . S
C959 C961 1.387 . S
H960 C967 0.950 . S
C961 C959 1.387 . S
C961 C963 1.390 . S
C961 H965 0.950 . S
H962 C958 0.950 . S
C963 C961 1.390 . S
C963 C964 1.387 . S
C963 H966 0.950 . S
C964 C963 1.387 . S
C964 C967 1.387 . S
H965 C961 0.950 . S
H966 C963 0.950 . S
C967 C958 1.390 . S
C967 H960 0.950 . S
C967 C964 1.387 . S
C968 C969 1.387 . S
C968 H972 0.950 . S
C968 C977 1.390 . S
C969 C968 1.387 . S
C969 C971 1.387 . S
H970 C977 0.950 . S
C971 C969 1.387 . S
C971 C973 1.390 . S
C971 H975 0.950 . S
H972 C968 0.950 . S
C973 C971 1.390 . S
C973 C974 1.387 . S
C973 H976 0.950 . S
C974 C973 1.387 . S
C974 C977 1.387 . S
H975 C971 0.950 . S
H976 C973 0.950 . S
C977 C968 1.390 . S
C977 H970 0.950 . S
C977 C974 1.387 . S
C978 C979 1.387 . S
C978 H982 0.950 . S
C978 C987 1.390 . S
C979 C978 1.387 . S
C979 C981 1.387 . S
H980 C987 0.950 . S
C981 C979 1.387 . S
C981 C983 1.390 . S
C981 H985 0.950 . S
H982 C978 0.950 . S
C983 C981 1.390 . S
C983 C984 1.387 . S
C983 H986 0.950 . S
C984 C983 1.387 . S
C984 C987 1.387 . S
H985 C981 0.950 . S
H986 C983 0.950 . S
C987 C978 1.390 . S
C987 H980 0.950 . S
C987 C984 1.387 . S
C988 C989 1.387 . S
C988 H992 0.950 . S
C988 C997 1.390 . S
C989 C988 1.387 . S
C989 C991 1.387 . S
H990 C997 0.950 . S
C991 C989 1.387 . S
C991 C993 1.390 . S
C991 H995 0.950 . S
H992 C988 0.950 . S
C993 C991 1.390 . S
C993 C994 1.387 . S
C993 H996 0.950 . S
C994 C993 1.387 . S
C994 C997 1.387 . S
H995 C991 0.950 . S
H996 C993 0.950 . S
C997 C988 1.390 . S
C997 H990 0.950 . S
C997 C994 1.387 . S
C998 C999 1.387 . S
C998 H1002 0.950 . S
C998 C1007 1.390 . S
C999 C998 1.387 . S
C999 C1001 1.387 . S
H1000 C1007 0.950 . S
C1001 C999 1.387 . S
C1001 C1003 1.390 . S
C1001 H1005 0.950 . S
H1002 C998 0.950 . S
C1003 C1001 1.390 . S
C1003 C1004 1.387 . S
C1003 H1006 0.950 . S
C1004 C1003 1.387 . S
C1004 C1007 1.387 . S
H1005 C1001 0.950 . S
H1006 C1003 0.950 . S
C1007 C998 1.390 . S
C1007 H1000 0.950 . S
C1007 C1004 1.387 . S
C1008 C1009 1.387 . S
C1008 H1012 0.950 . S
C1008 C1017 1.390 . S
C1009 C1008 1.387 . S
C1009 C1011 1.387 . S
H1010 C1017 0.950 . S
C1011 C1009 1.387 . S
C1011 C1013 1.390 . S
C1011 H1015 0.950 . S
H1012 C1008 0.950 . S
C1013 C1011 1.390 . S
C1013 C1014 1.387 . S
C1013 H1016 0.950 . S
C1014 C1013 1.387 . S
C1014 C1017 1.387 . S
H1015 C1011 0.950 . S
H1016 C1013 0.950 . S
C1017 C1008 1.390 . S
C1017 H1010 0.950 . S
C1017 C1014 1.387 . S
C1018 C1019 1.387 . S
C1018 H1022 0.950 . S
C1018 C1027 1.390 . S
C1019 C1018 1.387 . S
C1019 C1021 1.387 . S
H1020 C1027 0.950 . S
C1021 C1019 1.387 . S
C1021 C1023 1.390 . S
C1021 H1025 0.950 . S
H1022 C1018 0.950 . S
C1023 C1021 1.390 . S
C1023 C1024 1.387 . S
C1023 H1026 0.950 . S
C1024 C1023 1.387 . S
C1024 C1027 1.387 . S
H1025 C1021 0.950 . S
H1026 C1023 0.950 . S
C1027 C1018 1.390 . S
C1027 H1020 0.950 . S
C1027 C1024 1.387 . S
C1028 C1029 1.387 . S
C1028 H1032 0.950 . S
C1028 C1037 1.390 . S
C1029 C1028 1.387 . S
C1029 C1031 1.387 . S
H1030 C1037 0.950 . S
C1031 C1029 1.387 . S
C1031 C1033 1.390 . S
C1031 H1035 0.950 . S
H1032 C1028 0.950 . S
C1033 C1031 1.390 . S
C1033 C1034 1.387 . S
C1033 H1036 0.950 . S
C1034 C1033 1.387 . S
C1034 C1037 1.387 . S
H1035 C1031 0.950 . S
H1036 C1033 0.950 . S
C1037 C1028 1.390 . S
C1037 H1030 0.950 . S
C1037 C1034 1.387 . S
C1038 C1039 1.390 . S
C1038 H1042 0.948 1_556 S
C1038 C1047 1.390 1_556 S
C1039 C1038 1.390 . S
C1039 C1041 1.387 . S
H1040 C1047 0.950 . S
C1041 C1039 1.387 . S
C1041 C1043 1.390 . S
C1041 H1045 0.950 . S
H1042 C1038 0.948 1_554 S
C1043 C1041 1.390 . S
C1043 C1044 1.387 . S
C1043 H1046 0.950 . S
C1044 C1043 1.387 . S
C1044 C1047 1.387 1_556 S
H1045 C1041 0.950 . S
H1046 C1043 0.950 . S
C1047 C1038 1.390 1_554 S
C1047 H1040 0.950 . S
C1047 C1044 1.387 1_554 S
C1048 C1049 1.387 . S
C1048 H1052 0.950 . S
C1048 C1057 1.390 . S
C1049 C1048 1.387 . S
C1049 C1051 1.387 . S
H1050 C1057 0.950 . S
C1051 C1049 1.387 . S
C1051 C1053 1.390 . S
C1051 H1055 0.950 . S
H1052 C1048 0.950 . S
C1053 C1051 1.390 . S
C1053 C1054 1.387 . S
C1053 H1056 0.950 . S
C1054 C1053 1.387 . S
C1054 C1057 1.387 . S
H1055 C1051 0.950 . S
H1056 C1053 0.950 . S
C1057 C1048 1.390 . S
C1057 H1050 0.950 . S
C1057 C1054 1.387 . S
C1058 C1059 1.387 . S
C1058 H1062 0.950 . S
C1058 C1067 1.390 . S
C1059 C1058 1.387 . S
C1059 C1061 1.336 1_556 S
H1060 C1067 0.950 . S
C1061 C1059 1.336 1_554 S
C1061 C1063 1.399 . S
C1061 H1065 0.995 . S
H1062 C1058 0.950 . S
C1063 C1061 1.399 . S
C1063 C1064 1.387 1_554 S
C1063 H1066 0.950 . S
C1064 C1063 1.387 1_556 S
C1064 C1067 1.387 . S
H1065 C1061 0.995 . S
H1066 C1063 0.950 . S
C1067 C1058 1.390 . S
C1067 H1060 0.950 . S
C1067 C1064 1.387 . S
C1068 C1069 1.387 . S
C1068 H1072 0.950 . S
C1068 C1077 1.390 . S
C1069 C1068 1.387 . S
C1069 C1071 1.387 . S
H1070 C1077 0.950 . S
C1071 C1069 1.387 . S
C1071 C1073 1.390 . S
C1071 H1075 0.950 . S
H1072 C1068 0.950 . S
C1073 C1071 1.390 . S
C1073 C1074 1.387 . S
C1073 H1076 0.950 . S
C1074 C1073 1.387 . S
C1074 C1077 1.387 . S
H1075 C1071 0.950 . S
H1076 C1073 0.950 . S
C1077 C1068 1.390 . S
C1077 H1070 0.950 . S
C1077 C1074 1.387 . S
C1078 C1079 1.387 . S
C1078 H1082 0.950 . S
C1078 C1087 1.390 . S
C1079 C1078 1.387 . S
C1079 C1081 1.387 . S
H1080 C1087 0.950 . S
C1081 C1079 1.387 . S
C1081 C1083 1.390 . S
C1081 H1085 0.950 . S
H1082 C1078 0.950 . S
C1083 C1081 1.390 . S
C1083 C1084 1.387 . S
C1083 H1086 0.950 . S
C1084 C1083 1.387 . S
C1084 C1087 1.387 . S
H1085 C1081 0.950 . S
H1086 C1083 0.950 . S
C1087 C1078 1.390 . S
C1087 H1080 0.950 . S
C1087 C1084 1.387 . S
C1088 C1089 1.387 . S
C1088 H1092 0.950 . S
C1088 C1097 1.390 . S
C1089 C1088 1.387 . S
C1089 C1091 1.387 . S
H1090 C1097 0.950 . S
C1091 C1089 1.387 . S
C1091 C1093 1.390 . S
C1091 H1095 0.950 . S
H1092 C1088 0.950 . S
C1093 C1091 1.390 . S
C1093 C1094 1.387 . S
C1093 H1096 0.950 . S
C1094 C1093 1.387 . S
C1094 C1097 1.387 . S
H1095 C1091 0.950 . S
H1096 C1093 0.950 . S
C1097 C1088 1.390 . S
C1097 H1090 0.950 . S
C1097 C1094 1.387 . S
C1098 C1099 1.387 1_556 S
C1098 H1102 0.950 . S
C1098 C1107 1.390 . S
C1099 C1098 1.387 1_554 S
C1099 C1101 1.387 . S
H1100 C1107 0.950 . S
C1101 C1099 1.387 . S
C1101 C1103 1.390 . S
C1101 H1105 0.950 . S
H1102 C1098 0.950 . S
C1103 C1101 1.390 . S
C1103 C1104 1.387 . S
C1103 H1106 0.950 . S
C1104 C1103 1.387 . S
C1104 C1107 1.387 1_554 S
H1105 C1101 0.950 . S
H1106 C1103 0.950 . S
C1107 C1098 1.390 . S
C1107 H1100 0.950 . S
C1107 C1104 1.387 1_556 S
C1108 C1109 1.387 . S
C1108 H1112 0.950 . S
C1108 C1117 1.390 . S
C1109 C1108 1.387 . S
C1109 C1111 1.387 1_554 S
H1110 C1117 0.950 . S
C1111 C1109 1.387 1_556 S
C1111 C1113 1.390 . S
C1111 H1115 0.950 . S
H1112 C1108 0.950 . S
C1113 C1111 1.390 . S
C1113 C1114 1.387 1_556 S
C1113 H1116 0.950 . S
C1114 C1113 1.387 1_554 S
C1114 C1117 1.387 . S
H1115 C1111 0.950 . S
H1116 C1113 0.950 . S
C1117 C1108 1.390 . S
C1117 H1110 0.950 . S
C1117 C1114 1.387 . S
C1118 C1119 1.387 1_556 S
C1118 H1122 0.950 . S
C1118 C1127 1.390 . S
C1119 C1118 1.387 1_554 S
C1119 C1121 1.387 . S
H1120 C1127 0.950 . S
C1121 C1119 1.387 . S
C1121 C1123 1.390 . S
C1121 H1125 0.950 . S
H1122 C1118 0.950 . S
C1123 C1121 1.390 . S
C1123 C1124 1.387 . S
C1123 H1126 0.950 . S
C1124 C1123 1.387 . S
C1124 C1127 1.387 1_554 S
H1125 C1121 0.950 . S
H1126 C1123 0.950 . S
C1127 C1118 1.390 . S
C1127 H1120 0.950 . S
C1127 C1124 1.387 1_556 S
C1128 C1129 1.387 . S
C1128 H1132 0.950 . S
C1128 C1137 1.390 . S
C1129 C1128 1.387 . S
C1129 C1131 1.387 . S
H1130 C1137 0.950 . S
C1131 C1129 1.387 . S
C1131 C1133 1.390 . S
C1131 H1135 0.950 . S
H1132 C1128 0.950 . S
C1133 C1131 1.390 . S
C1133 C1134 1.387 . S
C1133 H1136 0.950 . S
C1134 C1133 1.387 . S
C1134 C1137 1.387 . S
H1135 C1131 0.950 . S
H1136 C1133 0.950 . S
C1137 C1128 1.390 . S
C1137 H1130 0.950 . S
C1137 C1134 1.387 . S
C1138 C1139 1.387 . S
C1138 H1142 0.950 . S
C1138 C1147 1.390 . S
C1139 C1138 1.387 . S
C1139 C1141 1.387 . S
H1140 C1147 0.950 . S
C1141 C1139 1.387 . S
C1141 C1143 1.390 . S
C1141 H1145 0.950 . S
H1142 C1138 0.950 . S
C1143 C1141 1.390 . S
C1143 C1144 1.387 . S
C1143 H1146 0.950 . S
C1144 C1143 1.387 . S
C1144 C1147 1.387 . S
H1145 C1141 0.950 . S
H1146 C1143 0.950 . S
C1147 C1138 1.390 . S
C1147 H1140 0.950 . S
C1147 C1144 1.387 . S
C1148 C1149 1.387 . S
C1148 H1152 0.950 . S
C1148 C1157 1.390 . S
C1149 C1148 1.387 . S
C1149 C1151 1.387 . S
H1150 C1157 0.950 . S
C1151 C1149 1.387 . S
C1151 C1153 1.390 . S
C1151 H1155 0.950 . S
H1152 C1148 0.950 . S
C1153 C1151 1.390 . S
C1153 C1154 1.387 . S
C1153 H1156 0.950 . S
C1154 C1153 1.387 . S
C1154 C1157 1.387 . S
H1155 C1151 0.950 . S
H1156 C1153 0.950 . S
C1157 C1148 1.390 . S
C1157 H1150 0.950 . S
C1157 C1154 1.387 . S
C1158 C1159 1.387 . S
C1158 H1162 0.950 . S
C1158 C1167 1.390 . S
C1159 C1158 1.387 . S
C1159 C1161 1.387 . S
H1160 C1167 0.950 . S
C1161 C1159 1.387 . S
C1161 C1163 1.390 . S
C1161 H1165 0.950 . S
H1162 C1158 0.950 . S
C1163 C1161 1.390 . S
C1163 C1164 1.387 . S
C1163 H1166 0.950 . S
C1164 C1163 1.387 . S
C1164 C1167 1.387 . S
H1165 C1161 0.950 . S
H1166 C1163 0.950 . S
C1167 C1158 1.390 . S
C1167 H1160 0.950 . S
C1167 C1164 1.387 . S
C1168 C1169 1.387 . S
C1168 H1172 0.950 . S
C1168 C1177 1.390 . S
C1169 C1168 1.387 . S
C1169 C1171 1.387 . S
H1170 C1177 0.950 . S
C1171 C1169 1.387 . S
C1171 C1173 1.390 . S
C1171 H1175 0.950 . S
H1172 C1168 0.950 . S
C1173 C1171 1.390 . S
C1173 C1174 1.387 . S
C1173 H1176 0.950 . S
C1174 C1173 1.387 . S
C1174 C1177 1.387 . S
H1175 C1171 0.950 . S
H1176 C1173 0.950 . S
C1177 C1168 1.390 . S
C1177 H1170 0.950 . S
C1177 C1174 1.387 . S
C1178 C1179 1.387 . S
C1178 H1182 0.950 . S
C1178 C1187 1.390 . S
C1179 C1178 1.387 . S
C1179 C1181 1.387 . S
H1180 C1187 0.950 . S
C1181 C1179 1.387 . S
C1181 C1183 1.390 . S
C1181 H1185 0.950 . S
H1182 C1178 0.950 . S
C1183 C1181 1.390 . S
C1183 C1184 1.387 . S
C1183 H1186 0.950 . S
C1184 C1183 1.387 . S
C1184 C1187 1.387 . S
H1185 C1181 0.950 . S
H1186 C1183 0.950 . S
C1187 C1178 1.390 . S
C1187 H1180 0.950 . S
C1187 C1184 1.387 . S
C1188 C1189 1.387 . S
C1188 H1192 0.950 . S
C1188 C1197 1.390 . S
C1189 C1188 1.387 . S
C1189 C1191 1.387 . S
H1190 C1197 0.950 . S
C1191 C1189 1.387 . S
C1191 C1193 1.390 . S
C1191 H1195 0.950 . S
H1192 C1188 0.950 . S
C1193 C1191 1.390 . S
C1193 C1194 1.387 . S
C1193 H1196 0.950 . S
C1194 C1193 1.387 . S
C1194 C1197 1.387 . S
H1195 C1191 0.950 . S
H1196 C1193 0.950 . S
C1197 C1188 1.390 . S
C1197 H1190 0.950 . S
C1197 C1194 1.387 . S
C1198 C1199 1.387 . S
C1198 H1202 0.950 . S
C1198 C1207 1.390 . S
C1199 C1198 1.387 . S
C1199 C1201 1.387 . S
H1200 C1207 0.950 . S
C1201 C1199 1.387 . S
C1201 C1203 1.390 . S
C1201 H1205 0.950 . S
H1202 C1198 0.950 . S
C1203 C1201 1.390 . S
C1203 C1204 1.387 . S
C1203 H1206 0.950 . S
C1204 C1203 1.387 . S
C1204 C1207 1.387 . S
H1205 C1201 0.950 . S
H1206 C1203 0.950 . S
C1207 C1198 1.390 . S
C1207 H1200 0.950 . S
C1207 C1204 1.387 . S
C1208 C1209 1.387 . S
C1208 H1212 0.950 . S
C1208 C1217 1.390 . S
C1209 C1208 1.387 . S
C1209 C1211 1.387 . S
H1210 C1217 0.950 . S
C1211 C1209 1.387 . S
C1211 C1213 1.390 . S
C1211 H1215 0.950 . S
H1212 C1208 0.950 . S
C1213 C1211 1.390 . S
C1213 C1214 1.387 . S
C1213 H1216 0.950 . S
C1214 C1213 1.387 . S
C1214 C1217 1.387 . S
H1215 C1211 0.950 . S
H1216 C1213 0.950 . S
C1217 C1208 1.390 . S
C1217 H1210 0.950 . S
C1217 C1214 1.387 . S
C1218 C1219 1.387 . S
C1218 H1222 0.950 . S
C1218 C1227 1.390 . S
C1219 C1218 1.387 . S
C1219 C1221 1.387 . S
H1220 C1227 0.950 . S
C1221 C1219 1.387 . S
C1221 C1223 1.390 . S
C1221 H1225 0.950 . S
H1222 C1218 0.950 . S
C1223 C1221 1.390 . S
C1223 C1224 1.387 . S
C1223 H1226 0.950 . S
C1224 C1223 1.387 . S
C1224 C1227 1.387 . S
H1225 C1221 0.950 . S
H1226 C1223 0.950 . S
C1227 C1218 1.390 . S
C1227 H1220 0.950 . S
C1227 C1224 1.387 . S
C1228 C1229 1.387 . S
C1228 H1232 0.950 . S
C1228 C1237 1.390 . S
C1229 C1228 1.387 . S
C1229 C1231 1.387 . S
H1230 C1237 0.950 . S
C1231 C1229 1.387 . S
C1231 C1233 1.390 . S
C1231 H1235 0.950 . S
H1232 C1228 0.950 . S
C1233 C1231 1.390 . S
C1233 C1234 1.387 . S
C1233 H1236 0.950 . S
C1234 C1233 1.387 . S
C1234 C1237 1.387 . S
H1235 C1231 0.950 . S
H1236 C1233 0.950 . S
C1237 C1228 1.390 . S
C1237 H1230 0.950 . S
C1237 C1234 1.387 . S
C1238 C1239 1.387 . S
C1238 H1242 0.950 . S
C1238 C1247 1.390 . S
C1239 C1238 1.387 . S
C1239 C1241 1.387 . S
H1240 C1247 0.950 . S
C1241 C1239 1.387 . S
C1241 C1243 1.390 . S
C1241 H1245 0.950 . S
H1242 C1238 0.950 . S
C1243 C1241 1.390 . S
C1243 C1244 1.387 . S
C1243 H1246 0.950 . S
C1244 C1243 1.387 . S
C1244 C1247 1.387 . S
H1245 C1241 0.950 . S
H1246 C1243 0.950 . S
C1247 C1238 1.390 . S
C1247 H1240 0.950 . S
C1247 C1244 1.387 . S
C1248 C1249 1.387 . S
C1248 H1252 0.950 . S
C1248 C1257 1.390 . S
C1249 C1248 1.387 . S
C1249 C1251 1.387 . S
H1250 C1257 0.950 . S
C1251 C1249 1.387 . S
C1251 C1253 1.390 . S
C1251 H1255 0.950 . S
H1252 C1248 0.950 . S
C1253 C1251 1.390 . S
C1253 C1254 1.387 . S
C1253 H1256 0.950 . S
C1254 C1253 1.387 . S
C1254 C1257 1.387 . S
H1255 C1251 0.950 . S
H1256 C1253 0.950 . S
C1257 C1248 1.390 . S
C1257 H1250 0.950 . S
C1257 C1254 1.387 . S
C1258 C1259 1.387 . S
C1258 H1262 0.950 . S
C1258 C1267 1.390 . S
C1259 C1258 1.387 . S
C1259 C1261 1.387 . S
H1260 C1267 0.950 . S
C1261 C1259 1.387 . S
C1261 C1263 1.390 . S
C1261 H1265 0.950 . S
H1262 C1258 0.950 . S
C1263 C1261 1.390 . S
C1263 C1264 1.387 . S
C1263 H1266 0.950 . S
C1264 C1263 1.387 . S
C1264 C1267 1.387 . S
H1265 C1261 0.950 . S
H1266 C1263 0.950 . S
C1267 C1258 1.390 . S
C1267 H1260 0.950 . S
C1267 C1264 1.387 . S
C1268 C1269 1.387 . S
C1268 H1272 0.950 . S
C1268 C1277 1.390 . S
C1269 C1268 1.387 . S
C1269 C1271 1.387 . S
H1270 C1277 0.950 . S
C1271 C1269 1.387 . S
C1271 C1273 1.390 . S
C1271 H1275 0.950 . S
H1272 C1268 0.950 . S
C1273 C1271 1.390 . S
C1273 C1274 1.387 . S
C1273 H1276 0.950 . S
C1274 C1273 1.387 . S
C1274 C1277 1.387 . S
H1275 C1271 0.950 . S
H1276 C1273 0.950 . S
C1277 C1268 1.390 . S
C1277 H1270 0.950 . S
C1277 C1274 1.387 . S
C1278 C1279 1.387 . S
C1278 H1282 0.950 . S
C1278 C1287 1.390 . S
C1279 C1278 1.387 . S
C1279 C1281 1.387 . S
H1280 C1287 0.950 . S
C1281 C1279 1.387 . S
C1281 C1283 1.390 . S
C1281 H1285 0.950 . S
H1282 C1278 0.950 . S
C1283 C1281 1.390 . S
C1283 C1284 1.387 . S
C1283 H1286 0.950 . S
C1284 C1283 1.387 . S
C1284 C1287 1.387 . S
H1285 C1281 0.950 . S
H1286 C1283 0.950 . S
C1287 C1278 1.390 . S
C1287 H1280 0.950 . S
C1287 C1284 1.387 . S
C1288 C1289 1.387 . S
C1288 H1292 0.950 . S
C1288 C1297 1.390 . S
C1289 C1288 1.387 . S
C1289 C1291 1.387 . S
H1290 C1297 0.950 . S
C1291 C1289 1.387 . S
C1291 C1293 1.390 . S
C1291 H1295 0.950 . S
H1292 C1288 0.950 . S
C1293 C1291 1.390 . S
C1293 C1294 1.387 . S
C1293 H1296 0.950 . S
C1294 C1293 1.387 . S
C1294 C1297 1.387 . S
H1295 C1291 0.950 . S
H1296 C1293 0.950 . S
C1297 C1288 1.390 . S
C1297 H1290 0.950 . S
C1297 C1294 1.387 . S
C1298 C1299 1.387 . S
C1298 H1302 0.950 . S
C1298 C1307 1.390 . S
C1299 C1298 1.387 . S
C1299 C1301 1.387 . S
H1300 C1307 0.950 . S
C1301 C1299 1.387 . S
C1301 C1303 1.390 . S
C1301 H1305 0.950 . S
H1302 C1298 0.950 . S
C1303 C1301 1.390 . S
C1303 C1304 1.387 . S
C1303 H1306 0.950 . S
C1304 C1303 1.387 . S
C1304 C1307 1.387 . S
H1305 C1301 0.950 . S
H1306 C1303 0.950 . S
C1307 C1298 1.390 . S
C1307 H1300 0.950 . S
C1307 C1304 1.387 . S
C1308 C1309 1.387 . S
C1308 H1312 0.950 . S
C1308 C1317 1.390 . S
C1309 C1308 1.387 . S
C1309 C1311 1.387 . S
H1310 C1317 0.950 . S
C1311 C1309 1.387 . S
C1311 C1313 1.390 . S
C1311 H1315 0.950 . S
H1312 C1308 0.950 . S
C1313 C1311 1.390 . S
C1313 C1314 1.387 1_655 S
C1313 H1316 0.950 . S
C1314 C1313 1.387 1_455 S
C1314 C1317 1.387 1_455 S
H1315 C1311 0.950 . S
H1316 C1313 0.950 . S
C1317 C1308 1.390 . S
C1317 H1310 0.950 . S
C1317 C1314 1.387 1_655 S
C1318 C1319 1.387 . S
C1318 H1322 0.950 . S
C1318 C1327 1.390 . S
C1319 C1318 1.387 . S
C1319 C1321 1.387 . S
H1320 C1327 0.950 . S
C1321 C1319 1.387 . S
C1321 C1323 1.390 . S
C1321 H1325 0.950 . S
H1322 C1318 0.950 . S
C1323 C1321 1.390 . S
C1323 C1324 1.387 . S
C1323 H1326 0.950 . S
C1324 C1323 1.387 . S
C1324 C1327 1.387 . S
H1325 C1321 0.950 . S
H1326 C1323 0.950 . S
C1327 C1318 1.390 . S
C1327 H1320 0.950 . S
C1327 C1324 1.387 . S
C1328 C1329 1.387 1_545 S
C1328 H1332 0.950 . S
C1328 C1337 1.390 . S
C1329 C1328 1.387 1_565 S
C1329 C1331 1.387 1_565 S
H1330 C1337 0.950 . S
C1331 C1329 1.387 1_545 S
C1331 C1333 1.390 . S
C1331 H1335 0.950 . S
H1332 C1328 0.950 . S
C1333 C1331 1.390 . S
C1333 C1334 1.387 . S
C1333 H1336 0.950 . S
C1334 C1333 1.387 . S
C1334 C1337 1.387 . S
H1335 C1331 0.950 . S
H1336 C1333 0.950 . S
C1337 C1328 1.390 . S
C1337 H1330 0.950 . S
C1337 C1334 1.387 . S
C1338 C1339 1.387 . S
C1338 H1342 0.950 . S
C1338 C1347 1.390 . S
C1339 C1338 1.387 . S
C1339 C1341 1.387 . S
H1340 C1347 0.950 . S
C1341 C1339 1.387 . S
C1341 C1343 1.390 . S
C1341 H1345 0.950 . S
H1342 C1338 0.950 . S
C1343 C1341 1.390 . S
C1343 C1344 1.387 . S
C1343 H1346 0.950 . S
C1344 C1343 1.387 . S
C1344 C1347 1.387 . S
H1345 C1341 0.950 . S
H1346 C1343 0.950 . S
C1347 C1338 1.390 . S
C1347 H1340 0.950 . S
C1347 C1344 1.387 . S
C1348 C1349 1.387 . S
C1348 H1352 0.950 . S
C1348 C1357 1.390 . S
C1349 C1348 1.387 . S
C1349 C1351 1.387 . S
H1350 C1357 0.950 . S
C1351 C1349 1.387 . S
C1351 C1353 1.390 . S
C1351 H1355 0.950 . S
H1352 C1348 0.950 . S
C1353 C1351 1.390 . S
C1353 C1354 1.387 . S
C1353 H1356 0.950 . S
C1354 C1353 1.387 . S
C1354 C1357 1.387 . S
H1355 C1351 0.950 . S
H1356 C1353 0.950 . S
C1357 C1348 1.390 . S
C1357 H1350 0.950 . S
C1357 C1354 1.387 . S
C1358 C1359 1.387 . S
C1358 H1362 0.950 . S
C1358 C1367 1.390 . S
C1359 C1358 1.387 . S
C1359 C1361 1.387 . S
H1360 C1367 0.950 . S
C1361 C1359 1.387 . S
C1361 C1363 1.390 . S
C1361 H1365 0.950 . S
H1362 C1358 0.950 . S
C1363 C1361 1.390 . S
C1363 C1364 1.387 . S
C1363 H1366 0.950 . S
C1364 C1363 1.387 . S
C1364 C1367 1.387 . S
H1365 C1361 0.950 . S
H1366 C1363 0.950 . S
C1367 C1358 1.390 . S
C1367 H1360 0.950 . S
C1367 C1364 1.387 . S
C1368 C1369 1.387 . S
C1368 H1372 0.950 . S
C1368 C1377 1.390 . S
C1369 C1368 1.387 . S
C1369 C1371 1.387 . S
H1370 C1377 0.950 . S
C1371 C1369 1.387 . S
C1371 C1373 1.390 . S
C1371 H1375 0.950 . S
H1372 C1368 0.950 . S
C1373 C1371 1.390 . S
C1373 C1374 1.387 . S
C1373 H1376 0.950 . S
C1374 C1373 1.387 . S
C1374 C1377 1.387 . S
H1375 C1371 0.950 . S
H1376 C1373 0.950 . S
C1377 C1368 1.390 . S
C1377 H1370 0.950 . S
C1377 C1374 1.387 . S
C1378 C1379 1.387 . S
C1378 H1382 0.950 . S
C1378 C1387 1.390 . S
C1379 C1378 1.387 . S
C1379 C1381 1.387 . S
H1380 C1387 0.950 . S
C1381 C1379 1.387 . S
C1381 C1383 1.390 . S
C1381 H1385 0.950 . S
H1382 C1378 0.950 . S
C1383 C1381 1.390 . S
C1383 C1384 1.387 . S
C1383 H1386 0.950 . S
C1384 C1383 1.387 . S
C1384 C1387 1.387 . S
H1385 C1381 0.950 . S
H1386 C1383 0.950 . S
C1387 C1378 1.390 . S
C1387 H1380 0.950 . S
C1387 C1384 1.387 . S
C1388 C1389 1.387 . S
C1388 H1392 0.950 . S
C1388 C1397 1.390 . S
C1389 C1388 1.387 . S
C1389 C1391 1.387 . S
H1390 C1397 0.950 . S
C1391 C1389 1.387 . S
C1391 C1393 1.390 . S
C1391 H1395 0.950 . S
H1392 C1388 0.950 . S
C1393 C1391 1.390 . S
C1393 C1394 1.387 . S
C1393 H1396 0.950 . S
C1394 C1393 1.387 . S
C1394 C1397 1.387 . S
H1395 C1391 0.950 . S
H1396 C1393 0.950 . S
C1397 C1388 1.390 . S
C1397 H1390 0.950 . S
C1397 C1394 1.387 . S
C1398 C1399 1.387 1_546 S
C1398 H1402 0.950 . S
C1398 C1407 1.390 . S
C1399 C1398 1.387 1_564 S
C1399 C1401 1.387 1_565 S
H1400 C1407 0.950 . S
C1401 C1399 1.387 1_545 S
C1401 C1403 1.390 . S
C1401 H1405 0.950 . S
H1402 C1398 0.950 . S
C1403 C1401 1.390 . S
C1403 C1404 1.387 . S
C1403 H1406 0.950 . S
C1404 C1403 1.387 . S
C1404 C1407 1.387 1_554 S
H1405 C1401 0.950 . S
H1406 C1403 0.950 . S
C1407 C1398 1.390 . S
C1407 H1400 0.950 . S
C1407 C1404 1.387 1_556 S
C1408 C1409 1.387 1_656 S
C1408 H1412 0.950 . S
C1408 C1417 1.390 . S
C1409 C1408 1.387 1_454 S
C1409 C1411 1.387 1_455 S
H1410 C1417 0.950 . S
C1411 C1409 1.387 1_655 S
C1411 C1413 1.390 . S
C1411 H1415 0.950 . S
H1412 C1408 0.950 . S
C1413 C1411 1.390 . S
C1413 C1414 1.387 . S
C1413 H1416 0.950 . S
C1414 C1413 1.387 . S
C1414 C1417 1.387 1_554 S
H1415 C1411 0.950 . S
H1416 C1413 0.950 . S
C1417 C1408 1.390 . S
C1417 H1410 0.950 . S
C1417 C1414 1.387 1_556 S
C1418 C1419 1.387 1_556 S
C1418 H1422 0.950 . S
C1418 C1427 1.390 . S
C1419 C1418 1.387 1_554 S
C1419 C1421 1.387 . S
H1420 C1427 0.950 . S
C1421 C1419 1.387 . S
C1421 C1423 1.390 . S
C1421 H1425 0.950 . S
H1422 C1418 0.950 . S
C1423 C1421 1.390 . S
C1423 C1424 1.387 . S
C1423 H1426 0.950 . S
C1424 C1423 1.387 . S
C1424 C1427 1.387 1_554 S
H1425 C1421 0.950 . S
H1426 C1423 0.950 . S
C1427 C1418 1.390 . S
C1427 H1420 0.950 . S
C1427 C1424 1.387 1_556 S
C1428 C1429 1.387 . S
C1428 H1432 0.950 . S
C1428 C1437 1.390 . S
C1429 C1428 1.387 . S
C1429 C1431 1.387 . S
H1430 C1437 0.950 . S
C1431 C1429 1.387 . S
C1431 C1433 1.390 . S
C1431 H1435 0.950 . S
H1432 C1428 0.950 . S
C1433 C1431 1.390 . S
C1433 C1434 1.387 . S
C1433 H1436 0.950 . S
C1434 C1433 1.387 . S
C1434 C1437 1.387 . S
H1435 C1431 0.950 . S
H1436 C1433 0.950 . S
C1437 C1428 1.390 . S
C1437 H1430 0.950 . S
C1437 C1434 1.387 . S
C1438 C1439 1.387 . S
C1438 H1442 0.950 . S
C1438 C1447 1.390 . S
C1439 C1438 1.387 . S
C1439 C1441 1.387 . S
H1440 C1447 0.950 . S
C1441 C1439 1.387 . S
C1441 C1443 1.390 . S
C1441 H1445 0.950 . S
H1442 C1438 0.950 . S
C1443 C1441 1.390 . S
C1443 C1444 1.387 . S
C1443 H1446 0.950 . S
C1444 C1443 1.387 . S
C1444 C1447 1.387 . S
H1445 C1441 0.950 . S
H1446 C1443 0.950 . S
C1447 C1438 1.390 . S
C1447 H1440 0.950 . S
C1447 C1444 1.387 . S
C1448 C1449 1.387 . S
C1448 H1452 0.950 . S
C1448 C1457 1.390 . S
C1449 C1448 1.387 . S
C1449 C1451 1.387 . S
H1450 C1457 0.950 . S
C1451 C1449 1.387 . S
C1451 C1453 1.390 . S
C1451 H1455 0.950 . S
H1452 C1448 0.950 . S
C1453 C1451 1.390 . S
C1453 C1454 1.387 . S
C1453 H1456 0.950 . S
C1454 C1453 1.387 . S
C1454 C1457 1.387 . S
H1455 C1451 0.950 . S
H1456 C1453 0.950 . S
C1457 C1448 1.390 . S
C1457 H1450 0.950 . S
C1457 C1454 1.387 . S
C1458 C1459 1.387 . S
C1458 H1462 0.950 . S
C1458 C1467 1.390 . S
C1459 C1458 1.387 . S
C1459 C1461 1.387 1_556 S
H1460 C1467 0.950 . S
C1461 C1459 1.387 1_554 S
C1461 C1463 1.390 . S
C1461 H1465 0.950 . S
H1462 C1458 0.950 . S
C1463 C1461 1.390 . S
C1463 C1464 1.387 1_564 S
C1463 H1466 0.950 . S
C1464 C1463 1.387 1_546 S
C1464 C1467 1.387 1_545 S
H1465 C1461 0.950 . S
H1466 C1463 0.950 . S
C1467 C1458 1.390 . S
C1467 H1460 0.950 . S
C1467 C1464 1.387 1_565 S
C1468 C1469 1.387 1_455 S
C1468 H1472 0.950 . S
C1468 C1477 1.390 . S
C1469 C1468 1.387 1_655 S
C1469 C1471 1.387 1_656 S
H1470 C1477 0.950 . S
C1471 C1469 1.387 1_454 S
C1471 C1473 1.390 . S
C1471 H1475 0.950 . S
H1472 C1468 0.950 . S
C1473 C1471 1.390 . S
C1473 C1474 1.387 1_554 S
C1473 H1476 0.950 . S
C1474 C1473 1.387 1_556 S
C1474 C1477 1.387 . S
H1475 C1471 0.950 . S
H1476 C1473 0.950 . S
C1477 C1468 1.390 . S
C1477 H1470 0.950 . S
C1477 C1474 1.387 . S
C1478 C1479 1.387 . S
C1478 H1482 0.950 . S
C1478 C1487 1.390 . S
C1479 C1478 1.387 . S
C1479 C1481 1.387 1_556 S
H1480 C1487 0.950 . S
C1481 C1479 1.387 1_554 S
C1481 C1483 1.390 . S
C1481 H1485 0.950 . S
H1482 C1478 0.950 . S
C1483 C1481 1.390 . S
C1483 C1484 1.387 1_554 S
C1483 H1486 0.950 . S
C1484 C1483 1.387 1_556 S
C1484 C1487 1.387 . S
H1485 C1481 0.950 . S
H1486 C1483 0.950 . S
C1487 C1478 1.390 . S
C1487 H1480 0.950 . S
C1487 C1484 1.387 . S
C1488 C1489 1.387 . S
C1488 H1492 0.950 . S
C1488 C1497 1.390 . S
C1489 C1488 1.387 . S
C1489 C1491 1.387 . S
H1490 C1497 0.950 . S
C1491 C1489 1.387 . S
C1491 C1493 1.390 . S
C1491 H1495 0.950 . S
H1492 C1488 0.950 . S
C1493 C1491 1.390 . S
C1493 C1494 1.387 1_455 S
C1493 H1496 0.951 1_455 S
C1494 C1493 1.387 1_655 S
C1494 C1497 1.387 1_655 S
H1495 C1491 0.950 . S
H1496 C1493 0.951 1_655 S
C1497 C1488 1.390 . S
C1497 H1490 0.950 . S
C1497 C1494 1.387 1_455 S
C1498 C1499 1.387 . S
C1498 H1502 0.950 . S
C1498 C1507 1.390 . S
C1499 C1498 1.387 . S
C1499 C1501 1.387 . S
H1500 C1507 0.950 . S
C1501 C1499 1.387 . S
C1501 C1503 1.390 . S
C1501 H1505 0.950 . S
H1502 C1498 0.950 . S
C1503 C1501 1.390 . S
C1503 C1504 1.387 . S
C1503 H1506 0.950 . S
C1504 C1503 1.387 . S
C1504 C1507 1.387 . S
H1505 C1501 0.950 . S
H1506 C1503 0.950 . S
C1507 C1498 1.390 . S
C1507 H1500 0.950 . S
C1507 C1504 1.387 . S
C1508 C1509 1.387 . S
C1508 H1512 0.950 . S
C1508 C1517 1.390 . S
C1509 C1508 1.387 . S
C1509 C1511 1.387 . S
H1510 C1517 0.950 . S
C1511 C1509 1.387 . S
C1511 C1513 1.390 . S
C1511 H1515 0.950 . S
H1512 C1508 0.950 . S
C1513 C1511 1.390 . S
C1513 C1514 1.387 1_565 S
C1513 H1516 0.950 . S
C1514 C1513 1.387 1_545 S
C1514 C1517 1.387 1_545 S
H1515 C1511 0.950 . S
H1516 C1513 0.950 . S
C1517 C1508 1.390 . S
C1517 H1510 0.950 . S
C1517 C1514 1.387 1_565 S
C1518 C1519 1.387 . S
C1518 H1522 0.950 . S
C1518 C1527 1.390 . S
C1519 C1518 1.387 . S
C1519 C1521 1.387 . S
H1520 C1527 0.950 . S
C1521 C1519 1.387 . S
C1521 C1523 1.390 . S
C1521 H1525 0.950 . S
H1522 C1518 0.950 . S
C1523 C1521 1.390 . S
C1523 C1524 1.387 . S
C1523 H1526 0.950 . S
C1524 C1523 1.387 . S
C1524 C1527 1.387 . S
H1525 C1521 0.950 . S
H1526 C1523 0.950 . S
C1527 C1518 1.390 . S
C1527 H1520 0.950 . S
C1527 C1524 1.387 . S
C1528 C1529 1.387 . S
C1528 H1532 0.950 . S
C1528 C1537 1.390 . S
C1529 C1528 1.387 . S
C1529 C1531 1.387 . S
H1530 C1537 0.950 . S
C1531 C1529 1.387 . S
C1531 C1533 1.390 . S
C1531 H1535 0.950 . S
H1532 C1528 0.950 . S
C1533 C1531 1.390 . S
C1533 C1534 1.387 . S
C1533 H1536 0.950 . S
C1534 C1533 1.387 . S
C1534 C1537 1.387 . S
H1535 C1531 0.950 . S
H1536 C1533 0.950 . S
C1537 C1528 1.390 . S
C1537 H1530 0.950 . S
C1537 C1534 1.387 . S
C1538 C1539 1.387 . S
C1538 H1542 0.950 . S
C1538 C1547 1.390 . S
C1539 C1538 1.387 . S
C1539 C1541 1.387 . S
H1540 C1547 0.950 . S
C1541 C1539 1.387 . S
C1541 C1543 1.390 . S
C1541 H1545 0.950 . S
H1542 C1538 0.950 . S
C1543 C1541 1.390 . S
C1543 C1544 1.387 . S
C1543 H1546 0.950 . S
C1544 C1543 1.387 . S
C1544 C1547 1.387 . S
H1545 C1541 0.950 . S
H1546 C1543 0.950 . S
C1547 C1538 1.390 . S
C1547 H1540 0.950 . S
C1547 C1544 1.387 . S
C1548 C1549 1.387 . S
C1548 H1552 0.950 . S
C1548 C1557 1.390 . S
C1549 C1548 1.387 . S
C1549 C1551 1.387 . S
H1550 C1557 0.950 . S
C1551 C1549 1.387 . S
C1551 C1553 1.390 . S
C1551 H1555 0.950 . S
H1552 C1548 0.950 . S
C1553 C1551 1.390 . S
C1553 C1554 1.387 . S
C1553 H1556 0.950 . S
C1554 C1553 1.387 . S
C1554 C1557 1.387 . S
H1555 C1551 0.950 . S
H1556 C1553 0.950 . S
C1557 C1548 1.390 . S
C1557 H1550 0.950 . S
C1557 C1554 1.387 . S
C1558 C1559 1.387 . S
C1558 H1562 0.950 . S
C1558 C1567 1.390 . S
C1559 C1558 1.387 . S
C1559 C1561 1.387 . S
H1560 C1567 0.950 . S
C1561 C1559 1.387 . S
C1561 C1563 1.390 . S
C1561 H1565 0.950 . S
H1562 C1558 0.950 . S
C1563 C1561 1.390 . S
C1563 C1564 1.387 . S
C1563 H1566 0.950 . S
C1564 C1563 1.387 . S
C1564 C1567 1.387 . S
H1565 C1561 0.950 . S
H1566 C1563 0.950 . S
C1567 C1558 1.390 . S
C1567 H1560 0.950 . S
C1567 C1564 1.387 . S
C1568 C1569 1.387 . S
C1568 H1572 0.950 . S
C1568 C1577 1.390 . S
C1569 C1568 1.387 . S
C1569 C1571 1.387 . S
H1570 C1577 0.950 . S
C1571 C1569 1.387 . S
C1571 C1573 1.390 . S
C1571 H1575 0.950 . S
H1572 C1568 0.950 . S
C1573 C1571 1.390 . S
C1573 C1574 1.387 . S
C1573 H1576 0.950 . S
C1574 C1573 1.387 . S
C1574 C1577 1.387 . S
H1575 C1571 0.950 . S
H1576 C1573 0.950 . S
C1577 C1568 1.390 . S
C1577 H1570 0.950 . S
C1577 C1574 1.387 . S
C1578 C1579 1.387 . S
C1578 H1582 0.950 . S
C1578 C1587 1.390 . S
C1579 C1578 1.387 . S
C1579 C1581 1.387 . S
H1580 C1587 0.950 . S
C1581 C1579 1.387 . S
C1581 C1583 1.390 . S
C1581 H1585 0.950 . S
H1582 C1578 0.950 . S
C1583 C1581 1.390 . S
C1583 C1584 1.387 . S
C1583 H1586 0.950 . S
C1584 C1583 1.387 . S
C1584 C1587 1.387 . S
H1585 C1581 0.950 . S
H1586 C1583 0.950 . S
C1587 C1578 1.390 . S
C1587 H1580 0.950 . S
C1587 C1584 1.387 . S
C1588 C1589 1.387 . S
C1588 H1592 0.950 . S
C1588 C1597 1.390 . S
C1589 C1588 1.387 . S
C1589 C1591 1.387 . S
H1590 C1597 0.950 . S
C1591 C1589 1.387 . S
C1591 C1593 1.390 . S
C1591 H1595 0.950 . S
H1592 C1588 0.950 . S
C1593 C1591 1.390 . S
C1593 C1594 1.387 . S
C1593 H1596 0.950 . S
C1594 C1593 1.387 . S
C1594 C1597 1.387 . S
H1595 C1591 0.950 . S
H1596 C1593 0.950 . S
C1597 C1588 1.390 . S
C1597 H1590 0.950 . S
C1597 C1594 1.387 . S
C1598 C1599 1.387 . S
C1598 H1602 0.950 . S
C1598 C1607 1.390 . S
C1599 C1598 1.387 . S
C1599 C1601 1.387 . S
H1600 C1607 0.950 . S
C1601 C1599 1.387 . S
C1601 C1603 1.390 . S
C1601 H1605 0.950 . S
H1602 C1598 0.950 . S
C1603 C1601 1.390 . S
C1603 C1604 1.387 . S
C1603 H1606 0.950 . S
C1604 C1603 1.387 . S
C1604 C1607 1.387 . S
H1605 C1601 0.950 . S
H1606 C1603 0.950 . S
C1607 C1598 1.390 . S
C1607 H1600 0.950 . S
C1607 C1604 1.387 . S
C1608 C1609 1.387 . S
C1608 H1612 0.950 . S
C1608 C1617 1.390 . S
C1609 C1608 1.387 . S
C1609 C1611 1.387 . S
H1610 C1617 0.950 . S
C1611 C1609 1.387 . S
C1611 C1613 1.390 . S
C1611 H1615 0.950 . S
H1612 C1608 0.950 . S
C1613 C1611 1.390 . S
C1613 C1614 1.387 . S
C1613 H1616 0.950 . S
C1614 C1613 1.387 . S
C1614 C1617 1.387 . S
H1615 C1611 0.950 . S
H1616 C1613 0.950 . S
C1617 C1608 1.390 . S
C1617 H1610 0.950 . S
C1617 C1614 1.387 . S
C1618 C1619 1.387 . S
C1618 H1622 0.950 . S
C1618 C1627 1.390 . S
C1619 C1618 1.387 . S
C1619 C1621 1.387 . S
H1620 C1627 0.950 . S
C1621 C1619 1.387 . S
C1621 C1623 1.390 . S
C1621 H1625 0.950 . S
H1622 C1618 0.950 . S
C1623 C1621 1.390 . S
C1623 C1624 1.387 . S
C1623 H1626 0.950 . S
C1624 C1623 1.387 . S
C1624 C1627 1.387 . S
H1625 C1621 0.950 . S
H1626 C1623 0.950 . S
C1627 C1618 1.390 . S
C1627 H1620 0.950 . S
C1627 C1624 1.387 . S
C1628 C1629 1.387 . S
C1628 H1632 0.950 . S
C1628 C1637 1.390 . S
C1629 C1628 1.387 . S
C1629 C1631 1.387 . S
H1630 C1637 0.950 . S
C1631 C1629 1.387 . S
C1631 C1633 1.390 . S
C1631 H1635 0.950 . S
H1632 C1628 0.950 . S
C1633 C1631 1.390 . S
C1633 C1634 1.387 . S
C1633 H1636 0.950 . S
C1634 C1633 1.387 . S
C1634 C1637 1.387 . S
H1635 C1631 0.950 . S
H1636 C1633 0.950 . S
C1637 C1628 1.390 . S
C1637 H1630 0.950 . S
C1637 C1634 1.387 . S
C1638 C1639 1.387 . S
C1638 H1642 0.950 . S
C1638 C1647 1.390 . S
C1639 C1638 1.387 . S
C1639 C1641 1.387 . S
H1640 C1647 0.950 . S
C1641 C1639 1.387 . S
C1641 C1643 1.390 . S
C1641 H1645 0.950 . S
H1642 C1638 0.950 . S
C1643 C1641 1.390 . S
C1643 C1644 1.387 . S
C1643 H1646 0.950 . S
C1644 C1643 1.387 . S
C1644 C1647 1.387 . S
H1645 C1641 0.950 . S
H1646 C1643 0.950 . S
C1647 C1638 1.390 . S
C1647 H1640 0.950 . S
C1647 C1644 1.387 . S
C1648 C1649 1.387 . S
C1648 H1652 0.950 . S
C1648 C1657 1.390 . S
C1649 C1648 1.387 . S
C1649 C1651 1.387 . S
H1650 C1657 0.950 . S
C1651 C1649 1.387 . S
C1651 C1653 1.390 . S
C1651 H1655 0.950 . S
H1652 C1648 0.950 . S
C1653 C1651 1.390 . S
C1653 C1654 1.387 . S
C1653 H1656 0.950 . S
C1654 C1653 1.387 . S
C1654 C1657 1.387 . S
H1655 C1651 0.950 . S
H1656 C1653 0.950 . S
C1657 C1648 1.390 . S
C1657 H1650 0.950 . S
C1657 C1654 1.387 . S
C1658 C1659 1.387 . S
C1658 H1662 0.950 . S
C1658 C1667 1.390 . S
C1659 C1658 1.387 . S
C1659 C1661 1.387 . S
H1660 C1667 0.950 . S
C1661 C1659 1.387 . S
C1661 C1663 1.390 . S
C1661 H1665 0.950 . S
H1662 C1658 0.950 . S
C1663 C1661 1.390 . S
C1663 C1664 1.387 . S
C1663 H1666 0.950 . S
C1664 C1663 1.387 . S
C1664 C1667 1.387 . S
H1665 C1661 0.950 . S
H1666 C1663 0.950 . S
C1667 C1658 1.390 . S
C1667 H1660 0.950 . S
C1667 C1664 1.387 . S
C1668 C1669 1.387 . S
C1668 H1672 0.950 . S
C1668 C1677 1.390 . S
C1669 C1668 1.387 . S
C1669 C1671 1.387 1_655 S
H1670 C1677 0.950 . S
C1671 C1669 1.387 1_455 S
C1671 C1673 1.390 . S
C1671 H1675 0.950 . S
H1672 C1668 0.950 . S
C1673 C1671 1.390 . S
C1673 C1674 1.387 . S
C1673 H1676 0.950 . S
C1674 C1673 1.387 . S
C1674 C1677 1.387 1_455 S
H1675 C1671 0.950 . S
H1676 C1673 0.950 . S
C1677 C1668 1.390 . S
C1677 H1670 0.950 . S
C1677 C1674 1.387 1_655 S
C1678 C1679 1.387 . S
C1678 H1682 0.950 . S
C1678 C1687 1.390 . S
C1679 C1678 1.387 . S
C1679 C1681 1.387 . S
H1680 C1687 0.950 . S
C1681 C1679 1.387 . S
C1681 C1683 1.390 . S
C1681 H1685 0.950 . S
H1682 C1678 0.950 . S
C1683 C1681 1.390 . S
C1683 C1684 1.387 . S
C1683 H1686 0.950 . S
C1684 C1683 1.387 . S
C1684 C1687 1.387 . S
H1685 C1681 0.950 . S
H1686 C1683 0.950 . S
C1687 C1678 1.390 . S
C1687 H1680 0.950 . S
C1687 C1684 1.387 . S
C1688 C1689 1.387 . S
C1688 H1692 0.950 . S
C1688 C1697 1.390 1_545 S
C1689 C1688 1.387 . S
C1689 C1691 1.387 . S
H1690 C1697 0.950 . S
C1691 C1689 1.387 . S
C1691 C1693 1.390 1_545 S
C1691 H1695 0.950 . S
H1692 C1688 0.950 . S
C1693 C1691 1.390 1_565 S
C1693 C1694 1.387 . S
C1693 H1696 0.950 . S
C1694 C1693 1.387 . S
C1694 C1697 1.387 . S
H1695 C1691 0.950 . S
H1696 C1693 0.950 . S
C1697 C1688 1.390 1_565 S
C1697 H1690 0.950 . S
C1697 C1694 1.387 . S
C1698 C1699 1.387 . S
C1698 H1702 0.950 . S
C1698 C1707 1.390 1_545 S
C1699 C1698 1.387 . S
C1699 C1701 1.387 . S
H1700 C1707 0.950 . S
C1701 C1699 1.387 . S
C1701 C1703 1.390 1_545 S
C1701 H1705 0.950 . S
H1702 C1698 0.950 . S
C1703 C1701 1.390 1_565 S
C1703 C1704 1.387 . S
C1703 H1706 0.950 . S
C1704 C1703 1.387 . S
C1704 C1707 1.387 . S
H1705 C1701 0.950 . S
H1706 C1703 0.950 . S
C1707 C1698 1.390 1_565 S
C1707 H1700 0.950 . S
C1707 C1704 1.387 . S
C1708 C1709 1.387 1_655 S
C1708 H1712 0.950 . S
C1708 C1717 1.390 . S
C1709 C1708 1.387 1_455 S
C1709 C1711 1.387 . S
H1710 C1717 0.950 . S
C1711 C1709 1.387 . S
C1711 C1713 1.390 . S
C1711 H1715 0.950 . S
H1712 C1708 0.950 . S
C1713 C1711 1.390 . S
C1713 C1714 1.387 1_455 S
C1713 H1716 0.950 . S
C1714 C1713 1.387 1_655 S
C1714 C1717 1.387 . S
H1715 C1711 0.950 . S
H1716 C1713 0.950 . S
C1717 C1708 1.390 . S
C1717 H1710 0.950 . S
C1717 C1714 1.387 . S
C1718 C1719 1.387 . S
C1718 H1722 0.950 . S
C1718 C1727 1.390 . S
C1719 C1718 1.387 . S
C1719 C1721 1.387 . S
H1720 C1727 0.950 . S
C1721 C1719 1.387 . S
C1721 C1723 1.390 . S
C1721 H1725 0.950 . S
H1722 C1718 0.950 . S
C1723 C1721 1.390 . S
C1723 C1724 1.387 . S
C1723 H1726 0.950 . S
C1724 C1723 1.387 . S
C1724 C1727 1.387 . S
H1725 C1721 0.950 . S
H1726 C1723 0.950 . S
C1727 C1718 1.390 . S
C1727 H1720 0.950 . S
C1727 C1724 1.387 . S
C1728 C1729 1.387 1_455 S
C1728 H1732 0.950 . S
C1728 C1737 1.390 . S
C1729 C1728 1.387 1_655 S
C1729 C1731 1.387 . S
H1730 C1737 0.950 . S
C1731 C1729 1.387 . S
C1731 C1733 1.390 . S
C1731 H1735 0.950 . S
H1732 C1728 0.950 . S
C1733 C1731 1.390 . S
C1733 C1734 1.387 1_655 S
C1733 H1736 0.950 . S
C1734 C1733 1.387 1_455 S
C1734 C1737 1.387 . S
H1735 C1731 0.950 . S
H1736 C1733 0.950 . S
C1737 C1728 1.390 . S
C1737 H1730 0.950 . S
C1737 C1734 1.387 . S
C1738 C1739 1.387 . S
C1738 H1742 0.950 . S
C1738 C1747 1.390 . S
C1739 C1738 1.387 . S
C1739 C1741 1.387 . S
H1740 C1747 0.950 . S
C1741 C1739 1.387 . S
C1741 C1743 1.390 . S
C1741 H1745 0.950 . S
H1742 C1738 0.950 . S
C1743 C1741 1.390 . S
C1743 C1744 1.387 . S
C1743 H1746 0.950 . S
C1744 C1743 1.387 . S
C1744 C1747 1.387 . S
H1745 C1741 0.950 . S
H1746 C1743 0.950 . S
C1747 C1738 1.390 . S
C1747 H1740 0.950 . S
C1747 C1744 1.387 . S
C1748 C1749 1.387 . S
C1748 H1752 0.950 . S
C1748 C1757 1.390 1_545 S
C1749 C1748 1.387 . S
C1749 C1751 1.387 . S
H1750 C1757 0.950 . S
C1751 C1749 1.387 . S
C1751 C1753 1.390 1_545 S
C1751 H1755 0.950 . S
H1752 C1748 0.950 . S
C1753 C1751 1.390 1_565 S
C1753 C1754 1.387 . S
C1753 H1756 0.950 . S
C1754 C1753 1.387 . S
C1754 C1757 1.387 . S
H1755 C1751 0.950 . S
H1756 C1753 0.950 . S
C1757 C1748 1.390 1_565 S
C1757 H1750 0.950 . S
C1757 C1754 1.387 . S
C1758 C1759 1.387 1_455 S
C1758 H1762 0.950 . S
C1758 C1767 1.390 . S
C1759 C1758 1.387 1_655 S
C1759 C1761 1.387 . S
H1760 C1767 0.950 . S
C1761 C1759 1.387 . S
C1761 C1763 1.390 . S
C1761 H1765 0.950 . S
H1762 C1758 0.950 . S
C1763 C1761 1.390 . S
C1763 C1764 1.387 1_655 S
C1763 H1766 0.950 . S
C1764 C1763 1.387 1_455 S
C1764 C1767 1.387 . S
H1765 C1761 0.950 . S
H1766 C1763 0.950 . S
C1767 C1758 1.390 . S
C1767 H1760 0.950 . S
C1767 C1764 1.387 . S
C1768 C1769 1.387 . S
C1768 H1772 0.950 . S
C1768 C1777 1.390 . S
C1769 C1768 1.387 . S
C1769 C1771 1.387 . S
H1770 C1777 0.950 . S
C1771 C1769 1.387 . S
C1771 C1773 1.390 . S
C1771 H1775 0.950 . S
H1772 C1768 0.950 . S
C1773 C1771 1.390 . S
C1773 C1774 1.387 . S
C1773 H1776 0.950 . S
C1774 C1773 1.387 . S
C1774 C1777 1.387 . S
H1775 C1771 0.950 . S
H1776 C1773 0.950 . S
C1777 C1768 1.390 . S
C1777 H1770 0.950 . S
C1777 C1774 1.387 . S
C1778 C1779 1.387 . S
C1778 H1782 0.950 . S
C1778 C1787 1.390 1_545 S
C1779 C1778 1.387 . S
C1779 C1781 1.387 . S
H1780 C1787 0.950 . S
C1781 C1779 1.387 . S
C1781 C1783 1.390 1_545 S
C1781 H1785 0.950 . S
H1782 C1778 0.950 . S
C1783 C1781 1.390 1_565 S
C1783 C1784 1.387 . S
C1783 H1786 0.950 . S
C1784 C1783 1.387 . S
C1784 C1787 1.387 . S
H1785 C1781 0.950 . S
H1786 C1783 0.950 . S
C1787 C1778 1.390 1_565 S
C1787 H1780 0.950 . S
C1787 C1784 1.387 . S
C1788 C1789 1.387 . S
C1788 H1792 0.950 . S
C1788 C1797 1.390 . S
C1789 C1788 1.387 . S
C1789 C1791 1.387 . S
H1790 C1797 0.950 . S
C1791 C1789 1.387 . S
C1791 C1793 1.390 . S
C1791 H1795 0.950 . S
H1792 C1788 0.950 . S
C1793 C1791 1.390 . S
C1793 C1794 1.387 . S
C1793 H1796 0.950 . S
C1794 C1793 1.387 . S
C1794 C1797 1.387 . S
H1795 C1791 0.950 . S
H1796 C1793 0.950 . S
C1797 C1788 1.390 . S
C1797 H1790 0.950 . S
C1797 C1794 1.387 . S
C1798 C1799 1.387 . S
C1798 H1802 0.950 . S
C1798 C1807 1.390 . S
C1799 C1798 1.387 . S
C1799 C1801 1.387 . S
H1800 C1807 0.950 . S
C1801 C1799 1.387 . S
C1801 C1803 1.390 . S
C1801 H1805 0.950 . S
H1802 C1798 0.950 . S
C1803 C1801 1.390 . S
C1803 C1804 1.387 . S
C1803 H1806 0.950 . S
C1804 C1803 1.387 . S
C1804 C1807 1.387 . S
H1805 C1801 0.950 . S
H1806 C1803 0.950 . S
C1807 C1798 1.390 . S
C1807 H1800 0.950 . S
C1807 C1804 1.387 . S
C1808 C1809 1.387 . S
C1808 H1812 0.950 . S
C1808 C1817 1.390 . S
C1809 C1808 1.387 . S
C1809 C1811 1.387 . S
H1810 C1817 0.950 . S
C1811 C1809 1.387 . S
C1811 C1813 1.390 . S
C1811 H1815 0.950 . S
H1812 C1808 0.950 . S
C1813 C1811 1.390 . S
C1813 C1814 1.387 . S
C1813 H1816 0.950 . S
C1814 C1813 1.387 . S
C1814 C1817 1.387 . S
H1815 C1811 0.950 . S
H1816 C1813 0.950 . S
C1817 C1808 1.390 . S
C1817 H1810 0.950 . S
C1817 C1814 1.387 . S
C1818 C1819 1.387 . S
C1818 H1822 0.950 . S
C1818 C1827 1.390 . S
C1819 C1818 1.387 . S
C1819 C1821 1.387 . S
H1820 C1827 0.950 . S
C1821 C1819 1.387 . S
C1821 C1823 1.390 . S
C1821 H1825 0.950 . S
H1822 C1818 0.950 . S
C1823 C1821 1.390 . S
C1823 C1824 1.387 . S
C1823 H1826 0.950 . S
C1824 C1823 1.387 . S
C1824 C1827 1.387 . S
H1825 C1821 0.950 . S
H1826 C1823 0.950 . S
C1827 C1818 1.390 . S
C1827 H1820 0.950 . S
C1827 C1824 1.387 . S
C1828 C1829 1.387 . S
C1828 H1832 0.950 . S
C1828 C1837 1.390 . S
C1829 C1828 1.387 . S
C1829 C1831 1.387 . S
H1830 C1837 0.950 . S
C1831 C1829 1.387 . S
C1831 C1833 1.390 . S
C1831 H1835 0.950 . S
H1832 C1828 0.950 . S
C1833 C1831 1.390 . S
C1833 C1834 1.387 . S
C1833 H1836 0.950 . S
C1834 C1833 1.387 . S
C1834 C1837 1.387 . S
H1835 C1831 0.950 . S
H1836 C1833 0.950 . S
C1837 C1828 1.390 . S
C1837 H1830 0.950 . S
C1837 C1834 1.387 . S
C1838 C1839 1.387 . S
C1838 H1842 0.950 . S
C1838 C1847 1.390 . S
C1839 C1838 1.387 . S
C1839 C1841 1.387 . S
H1840 C1847 0.950 . S
C1841 C1839 1.387 . S
C1841 C1843 1.390 . S
C1841 H1845 0.950 . S
H1842 C1838 0.950 . S
C1843 C1841 1.390 . S
C1843 C1844 1.387 . S
C1843 H1846 0.950 . S
C1844 C1843 1.387 . S
C1844 C1847 1.387 . S
H1845 C1841 0.950 . S
H1846 C1843 0.950 . S
C1847 C1838 1.390 . S
C1847 H1840 0.950 . S
C1847 C1844 1.387 . S
C1848 C1849 1.387 . S
C1848 H1852 0.950 . S
C1848 C1857 1.390 . S
C1849 C1848 1.387 . S
C1849 C1851 1.387 . S
H1850 C1857 0.950 . S
C1851 C1849 1.387 . S
C1851 C1853 1.390 . S
C1851 H1855 0.950 . S
H1852 C1848 0.950 . S
C1853 C1851 1.390 . S
C1853 C1854 1.387 . S
C1853 H1856 0.950 . S
C1854 C1853 1.387 . S
C1854 C1857 1.387 . S
H1855 C1851 0.950 . S
H1856 C1853 0.950 . S
C1857 C1848 1.390 . S
C1857 H1850 0.950 . S
C1857 C1854 1.387 . S
C1858 C1859 1.387 . S
C1858 H1862 0.950 . S
C1858 C1867 1.390 . S
C1859 C1858 1.387 . S
C1859 C1861 1.387 . S
H1860 C1867 0.950 . S
C1861 C1859 1.387 . S
C1861 C1863 1.390 . S
C1861 H1865 0.950 . S
H1862 C1858 0.950 . S
C1863 C1861 1.390 . S
C1863 C1864 1.387 . S
C1863 H1866 0.950 . S
C1864 C1863 1.387 . S
C1864 C1867 1.387 . S
H1865 C1861 0.950 . S
H1866 C1863 0.950 . S
C1867 C1858 1.390 . S
C1867 H1860 0.950 . S
C1867 C1864 1.387 . S
C1868 C1869 1.387 . S
C1868 H1872 0.950 . S
C1868 C1877 1.390 . S
C1869 C1868 1.387 . S
C1869 C1871 1.387 . S
H1870 C1877 0.950 . S
C1871 C1869 1.387 . S
C1871 C1873 1.390 . S
C1871 H1875 0.950 . S
H1872 C1868 0.950 . S
C1873 C1871 1.390 . S
C1873 C1874 1.387 . S
C1873 H1876 0.950 . S
C1874 C1873 1.387 . S
C1874 C1877 1.387 . S
H1875 C1871 0.950 . S
H1876 C1873 0.950 . S
C1877 C1868 1.390 . S
C1877 H1870 0.950 . S
C1877 C1874 1.387 . S
C1878 C1879 1.387 . S
C1878 H1882 0.950 . S
C1878 C1887 1.390 . S
C1879 C1878 1.387 . S
C1879 C1881 1.387 . S
H1880 C1887 0.950 . S
C1881 C1879 1.387 . S
C1881 C1883 1.390 . S
C1881 H1885 0.950 . S
H1882 C1878 0.950 . S
C1883 C1881 1.390 . S
C1883 C1884 1.387 . S
C1883 H1886 0.950 . S
C1884 C1883 1.387 . S
C1884 C1887 1.387 . S
H1885 C1881 0.950 . S
H1886 C1883 0.950 . S
C1887 C1878 1.390 . S
C1887 H1880 0.950 . S
C1887 C1884 1.387 . S
C1888 C1889 1.387 . S
C1888 H1892 0.950 . S
C1888 C1897 1.390 . S
C1889 C1888 1.387 . S
C1889 C1891 1.387 . S
H1890 C1897 0.950 . S
C1891 C1889 1.387 . S
C1891 C1893 1.390 . S
C1891 H1895 0.950 . S
H1892 C1888 0.950 . S
C1893 C1891 1.390 . S
C1893 C1894 1.387 . S
C1893 H1896 0.950 . S
C1894 C1893 1.387 . S
C1894 C1897 1.387 . S
H1895 C1891 0.950 . S
H1896 C1893 0.950 . S
C1897 C1888 1.390 . S
C1897 H1890 0.950 . S
C1897 C1894 1.387 . S
C1898 C1899 1.387 . S
C1898 H1902 0.950 . S
C1898 C1907 1.390 . S
C1899 C1898 1.387 . S
C1899 C1901 1.387 . S
H1900 C1907 0.950 . S
C1901 C1899 1.387 . S
C1901 C1903 1.390 . S
C1901 H1905 0.950 . S
H1902 C1898 0.950 . S
C1903 C1901 1.390 . S
C1903 C1904 1.387 . S
C1903 H1906 0.950 . S
C1904 C1903 1.387 . S
C1904 C1907 1.387 . S
H1905 C1901 0.950 . S
H1906 C1903 0.950 . S
C1907 C1898 1.390 . S
C1907 H1900 0.950 . S
C1907 C1904 1.387 . S
C829 C16 1.404 . S
C834 C67 1.399 . S
C839 C21 1.398 . S
C844 C39 1.404 1_545 S
C849 C62 1.404 1_655 S
C854 C44 1.399 . S
C859 C85 1.404 . S
C864 C113 1.398 . S
C869 C136 1.399 . S
C874 C108 1.404 1_565 S
C879 C131 1.404 1_455 S
C884 C90 1.399 . S
C889 C154 1.404 . S
C894 C205 1.398 . S
C899 C177 1.404 1_565 S
C904 C159 1.398 . S
C909 C200 1.404 1_455 S
C914 C182 1.399 . S
C919 C223 1.404 . S
C924 C251 1.398 . S
C929 C274 1.399 . S
C934 C246 1.404 1_545 S
C939 C228 1.398 . S
C944 C269 1.404 1_655 S
C949 C343 1.399 . S
C954 C292 1.404 . S
C959 C315 1.404 . S
C964 C297 1.398 . S
C969 C320 1.399 . S
C974 C338 1.404 . S
C979 C361 1.404 . S
C984 C389 1.398 . S
C989 C412 1.399 . S
C994 C384 1.404 . S
C999 C366 1.399 . S
C1004 C407 1.404 . S
C1009 C430 1.404 . S
C1014 C481 1.399 . S
C1019 C453 1.404 . S
C1024 C435 1.399 . S
C1029 C458 1.398 . S
C1034 C476 1.404 . S
C1039 C527 1.399 . S
C1044 C499 1.404 . S
C1049 C522 1.404 . S
C1054 C550 1.398 . S
C1059 C504 1.399 . S
C1064 C545 1.404 . S
C1069 C568 1.404 . S
C1074 C619 1.398 . S
C1079 C591 1.404 . S
C1084 C573 1.398 . S
C1089 C614 1.404 . S
C1094 C596 1.398 . S
C1099 C637 1.404 . S
C1104 C665 1.398 . S
C1109 C660 1.404 . S
C1114 C688 1.399 . S
C1119 C683 1.404 . S
C1124 C642 1.399 . S
C1129 C706 1.404 . S
C1134 C757 1.398 . S
C1139 C729 1.404 . S
C1144 C711 1.398 . S
C1149 C734 1.399 . S
C1154 C752 1.404 . S
C1159 C775 1.404 . S
C1164 C803 1.399 . S
C1169 C798 1.404 . S
C1174 C826 1.399 . S
C1179 C780 1.399 . S
C1184 C821 1.404 . S
C1189 C18 1.268 . S
C1194 C477 1.277 . S
C1199 C431 1.277 1_565 S
C1204 C41 1.268 . S
C1209 C64 1.269 . S
C1214 C454 1.278 1_455 S
C1219 C87 1.269 . S
C1224 C799 1.278 . S
C1229 C822 1.277 1_545 S
C1234 C110 1.268 . S
C1239 C133 1.269 . S
C1244 C776 1.278 1_655 S
C1249 C615 1.278 . S
C1254 C156 1.269 . S
C1259 C179 1.268 . S
C1264 C569 1.277 1_545 S
C1269 C202 1.268 . S
C1274 C592 1.277 1_655 S
C1279 C385 1.277 . S
C1284 C225 1.268 . S
C1289 C408 1.277 1_565 S
C1294 C248 1.268 . S
C1299 C362 1.277 1_455 S
C1304 C271 1.268 . S
C1309 C294 1.269 . S
C1314 C753 1.278 . S
C1319 C317 1.268 . S
C1324 C707 1.277 . S
C1329 C730 1.277 . S
C1334 C340 1.268 . S
C1339 C247 1.277 . S
C1344 C363 1.268 1_455 S
C1349 C270 1.278 . S
C1354 C386 1.269 . S
C1359 C224 1.277 . S
C1364 C409 1.268 1_565 S
C1369 C63 1.278 . S
C1374 C432 1.269 1_565 S
C1379 C455 1.269 1_455 S
C1384 C17 1.278 . S
C1389 C478 1.269 . S
C1394 C40 1.278 . S
C1399 C661 1.278 . S
C1404 C501 1.269 . S
C1409 C684 1.278 . S
C1414 C524 1.269 . S
C1419 C547 1.269 . S
C1424 C638 1.278 . S
C1429 C201 1.277 . S
C1434 C570 1.268 1_545 S
C1439 C155 1.278 . S
C1444 C593 1.269 1_655 S
C1449 C178 1.278 . S
C1454 C616 1.269 . S
C1459 C639 1.269 . S
C1464 C523 1.278 . S
C1469 C546 1.278 . S
C1474 C662 1.269 . S
C1479 C685 1.269 . S
C1484 C500 1.278 . S
C1489 C708 1.268 . S
C1494 C339 1.277 . S
C1499 C731 1.268 . S
C1504 C293 1.277 . S
C1509 C754 1.268 . S
C1514 C316 1.277 . S
C1519 C777 1.268 1_655 S
C1524 C109 1.277 . S
C1529 C132 1.277 . S
C1534 C800 1.268 . S
C1539 C86 1.277 . S
C1544 C823 1.268 1_545 S
C1549 C686 1.309 . S
C1554 C19 1.309 . S
C1559 C640 1.309 . S
C1564 C42 1.311 . S
C1569 C65 1.310 . S
C1574 C663 1.311 . S
C1579 C318 1.309 . S
C1584 C88 1.311 . S
C1589 C111 1.311 . S
C1594 C341 1.309 . S
C1599 C134 1.309 . S
C1604 C295 1.309 . S
C1609 C157 1.311 . S
C1614 C548 1.311 . S
C1619 C180 1.309 . S
C1624 C502 1.311 . S
C1629 C203 1.309 . S
C1634 C525 1.308 . S
C1639 C732 1.308 . S
C1644 C226 1.310 . S
C1649 C755 1.309 . S
C1654 C249 1.311 . S
C1659 C709 1.311 . S
C1664 C272 1.310 . S
C1669 C364 1.309 . S
C1674 C594 1.311 . S
C1679 C387 1.311 . S
C1684 C617 1.309 . S
C1689 C410 1.311 . S
C1694 C571 1.311 . S
C1699 C433 1.309 . S
C1704 C824 1.309 . S
C1709 C778 1.310 . S
C1714 C456 1.311 . S
C1719 C479 1.310 . S
C1724 C801 1.308 . S
C1729 C112 1.823 . S
C1734 C20 1.822 . S
C1739 C135 1.824 . S
C1744 C43 1.824 . S
C1749 C89 1.824 . S
C1754 C66 1.824 . S
C1759 C158 1.822 . S
C1764 C250 1.823 . S
C1769 C273 1.823 . S
C1774 C181 1.822 . S
C1779 C204 1.824 . S
C1784 C227 1.824 . S
C1789 C388 1.824 . S
C1794 C296 1.823 . S
C1799 C411 1.822 . S
C1804 C319 1.822 . S
C1809 C365 1.822 . S
C1814 C342 1.822 . S
C1819 C526 1.824 . S
C1824 C434 1.824 . S
C1829 C457 1.822 . S
C1834 C549 1.823 . S
C1839 C480 1.824 . S
C1844 C503 1.824 . S
C1849 C572 1.823 . S
C1854 C664 1.824 . S
C1859 C687 1.823 . S
C1864 C595 1.824 . S
C1869 C618 1.824 . S
C1874 C641 1.824 . S
C1879 C710 1.824 . S
C1884 C802 1.824 . S
C1889 C825 1.824 . S
C1894 C733 1.824 . S
C1899 C756 1.822 . S
C1904 C779 1.822 . S
