# Generated by pormake.
# Topology upa, (4)-cn, num edge types: 1
# Building blocks:
#     Node 0, Type 0, BuildingBlock: QUQFOY_clean_sbu_3, # of connection points: 4
#     Node 1, Type 0, BuildingBlock: QUQFOY_clean_sbu_3, # of connection points: 4
#     Node 2, Type 0, BuildingBlock: QUQFOY_clean_sbu_3, # of connection points: 4
#     Node 3, Type 0, BuildingBlock: QUQFOY_clean_sbu_3, # of connection points: 4
#     Node 4, Type 0, BuildingBlock: QUQFOY_clean_sbu_3, # of connection points: 4
#     Node 5, Type 0, BuildingBlock: QUQFOY_clean_sbu_3, # of connection points: 4
#     Node 6, Type 0, BuildingBlock: QUQFOY_clean_sbu_3, # of connection points: 4
#     Node 7, Type 0, BuildingBlock: QUQFOY_clean_sbu_3, # of connection points: 4
#     Edge 8, Type (0, 0), BuildingBlock: OJICUG_clean_linker_0, # of connection points: 2
#     Edge 9, Type (0, 0), BuildingBlock: OJICUG_clean_linker_0, # of connection points: 2
#     Edge 10, Type (0, 0), BuildingBlock: OJICUG_clean_linker_0, # of connection points: 2
#     Edge 11, Type (0, 0), BuildingBlock: OJICUG_clean_linker_0, # of connection points: 2
#     Edge 12, Type (0, 0), BuildingBlock: OJICUG_clean_linker_0, # of connection points: 2
#     Edge 13, Type (0, 0), BuildingBlock: OJICUG_clean_linker_0, # of connection points: 2
#     Edge 14, Type (0, 0), BuildingBlock: OJICUG_clean_linker_0, # of connection points: 2
#     Edge 15, Type (0, 0), BuildingBlock: OJICUG_clean_linker_0, # of connection points: 2
#     Edge 16, Type (0, 0), BuildingBlock: OJICUG_clean_linker_0, # of connection points: 2
#     Edge 17, Type (0, 0), BuildingBlock: OJICUG_clean_linker_0, # of connection points: 2
#     Edge 18, Type (0, 0), BuildingBlock: OJICUG_clean_linker_0, # of connection points: 2
#     Edge 19, Type (0, 0), BuildingBlock: OJICUG_clean_linker_0, # of connection points: 2
#     Edge 20, Type (0, 0), BuildingBlock: OJICUG_clean_linker_0, # of connection points: 2
#     Edge 21, Type (0, 0), BuildingBlock: OJICUG_clean_linker_0, # of connection points: 2
#     Edge 22, Type (0, 0), BuildingBlock: OJICUG_clean_linker_0, # of connection points: 2
#     Edge 23, Type (0, 0), BuildingBlock: OJICUG_clean_linker_0, # of connection points: 2
# Relax obj value: 0.207
# Max RMSD: 0.129
# Mean RMSD: 0.129
data_MOF--net-upa--node1-QUQFOY_clean_sbu_3--edge1-OJICUG_clean_linker_0
_symmetry_space_group_name_H-M    P1
_symmetry_Int_Tables_number       1
_symmetry_cell_setting            triclinic
loop_
_symmetry_equiv_pos_as_xyz
'x, y, z'
_cell_length_a     19.643598
_cell_length_b     19.634069
_cell_length_c     33.726395
_cell_angle_alpha  90.024123
_cell_angle_beta   90.242582
_cell_angle_gamma 90.027592
loop_
_atom_site_label
_atom_site_type_symbol
_atom_site_fract_x
_atom_site_fract_y
_atom_site_fract_z
_atom_type_partial_charge
C0 C 0.04117 0.28846 0.30057 0.0
O1 O 0.03384 0.31599 0.33438 0.0
Cd2 Cd 0.10019 0.27962 0.39075 0.0
O3 O 0.09282 0.25105 0.29335 0.0
Cd4 Cd 0.20065 0.20987 0.32467 0.0
C5 C 0.07978 0.11041 0.3664 0.0
O6 O 0.21878 0.29122 0.37823 0.0
O7 O 0.26732 0.19347 0.38467 0.0
O8 O 0.26954 0.24571 0.26812 0.0
C9 C 0.2567 0.25234 0.39878 0.0
O10 O 0.06723 0.15918 0.39026 0.0
C11 C 0.30416 0.19101 0.26655 0.0
O12 O 0.12408 0.11618 0.33908 0.0
O13 O 0.28913 0.1442 0.29098 0.0
C14 C 0.20593 0.53597 0.80749 0.0
O15 O 0.19829 0.52588 0.84442 0.0
Cd16 Cd 0.22251 0.60105 0.89874 0.0
O17 O 0.22721 0.59319 0.79433 0.0
Cd18 Cd 0.27019 0.70252 0.82451 0.0
C19 C 0.38746 0.59819 0.86952 0.0
O20 O 0.1924 0.71322 0.87964 0.0
O21 O 0.2805 0.77747 0.88253 0.0
O22 O 0.22965 0.77019 0.76792 0.0
C23 C 0.22573 0.75797 0.89863 0.0
O24 O 0.34557 0.58676 0.89749 0.0
C25 C 0.28329 0.80639 0.76565 0.0
O26 O 0.37107 0.63426 0.8395 0.0
O27 O 0.33146 0.7925 0.78953 0.0
C28 C 0.957 0.68654 0.30612 0.0
O29 O 0.96671 0.68037 0.34323 0.0
Cd30 Cd 0.89452 0.71043 0.39775 0.0
O31 O 0.90099 0.71 0.2924 0.0
Cd32 Cd 0.7963 0.76157 0.32243 0.0
C33 C 0.9061 0.87463 0.36741 0.0
O34 O 0.77964 0.69114 0.38014 0.0
O35 O 0.72614 0.78661 0.38038 0.0
O36 O 0.70927 0.7157 0.27818 0.0
C37 C 0.73935 0.73111 0.39799 0.0
O38 O 0.91564 0.83224 0.39549 0.0
C39 C 0.68853 0.77326 0.26573 0.0
O40 O 0.86948 0.85983 0.33722 0.0
O41 O 0.72102 0.82554 0.27757 0.0
C42 C 0.80666 0.45628 0.79725 0.0
O43 O 0.83136 0.46648 0.83163 0.0
Cd44 Cd 0.79356 0.40467 0.88947 0.0
O45 O 0.7691 0.40454 0.7904 0.0
Cd46 Cd 0.72172 0.30315 0.82433 0.0
C47 C 0.62532 0.42799 0.86574 0.0
O48 O 0.79765 0.28461 0.88032 0.0
O49 O 0.69618 0.24283 0.8849 0.0
O50 O 0.76212 0.21338 0.78088 0.0
C51 C 0.75481 0.25031 0.90022 0.0
O52 O 0.6744 0.4402 0.88955 0.0
C53 C 0.70336 0.19298 0.77021 0.0
O54 O 0.63019 0.38322 0.83845 0.0
O55 O 0.65248 0.22653 0.78284 0.0
C56 C 0.53301 0.18652 0.16037 0.0
O57 O 0.52342 0.18034 0.12325 0.0
Cd58 Cd 0.59581 0.21059 0.06885 0.0
O59 O 0.58895 0.21009 0.17416 0.0
Cd60 Cd 0.69368 0.26186 0.14429 0.0
C61 C 0.58394 0.37474 0.09928 0.0
O62 O 0.71067 0.19148 0.08656 0.0
O63 O 0.76399 0.28711 0.08645 0.0
O64 O 0.78054 0.21596 0.18857 0.0
C65 C 0.75099 0.23156 0.0688 0.0
O66 O 0.57456 0.33235 0.07117 0.0
C67 C 0.80133 0.27349 0.20108 0.0
O68 O 0.62045 0.36001 0.12951 0.0
O69 O 0.76891 0.32579 0.18928 0.0
C70 C 0.28667 0.03588 0.65884 0.0
O71 O 0.29417 0.02576 0.62189 0.0
Cd72 Cd 0.2697 0.10081 0.56759 0.0
O73 O 0.26541 0.09308 0.67202 0.0
Cd74 Cd 0.22227 0.20229 0.64188 0.0
C75 C 0.10486 0.09779 0.59699 0.0
O76 O 0.29975 0.2131 0.5866 0.0
O77 O 0.21158 0.27719 0.58393 0.0
O78 O 0.26303 0.27019 0.69837 0.0
C79 C 0.26625 0.25779 0.56771 0.0
O80 O 0.14666 0.08637 0.56897 0.0
C81 C 0.20935 0.30626 0.70073 0.0
O82 O 0.12136 0.13389 0.627 0.0
O83 O 0.16105 0.29216 0.67696 0.0
C84 C 0.44893 0.78837 0.16608 0.0
O85 O 0.45643 0.81591 0.13229 0.0
Cd86 Cd 0.39029 0.77963 0.0758 0.0
O87 O 0.39719 0.751 0.17322 0.0
Cd88 Cd 0.28937 0.70989 0.14176 0.0
C89 C 0.41026 0.61037 0.10013 0.0
O90 O 0.27171 0.79127 0.08825 0.0
O91 O 0.22282 0.69369 0.08166 0.0
O92 O 0.22044 0.74583 0.19828 0.0
C93 C 0.23378 0.75251 0.06759 0.0
O94 O 0.42301 0.65915 0.07633 0.0
C95 C 0.18568 0.69117 0.19981 0.0
O96 O 0.36583 0.61614 0.12738 0.0
O97 O 0.20064 0.64435 0.17534 0.0
C98 C 0.68554 0.95616 0.66956 0.0
O99 O 0.66083 0.9663 0.63518 0.0
Cd100 Cd 0.69845 0.90441 0.57732 0.0
O101 O 0.72306 0.90444 0.6764 0.0
Cd102 Cd 0.77031 0.80297 0.64245 0.0
C103 C 0.86678 0.92768 0.60093 0.0
O104 O 0.69413 0.78439 0.58657 0.0
O105 O 0.79546 0.74248 0.58183 0.0
O106 O 0.73002 0.71328 0.68597 0.0
C107 C 0.73678 0.75001 0.5666 0.0
O108 O 0.81766 0.93988 0.57716 0.0
C109 C 0.78879 0.69292 0.69658 0.0
O110 O 0.86191 0.88296 0.62822 0.0
O111 O 0.83965 0.72645 0.68388 0.0
C112 C 0.01714 0.01801 0.33156 0.0
C113 C 0.03605 0.0496 0.3673 0.0
H114 H 0.95896 0.93926 0.30361 0.0
C115 C 0.00902 0.02554 0.40314 0.0
H116 H 0.03636 0.03643 0.30347 0.0
C117 C 0.96533 0.96928 0.40326 0.0
C118 C 0.94632 0.93787 0.36744 0.0
H119 H 0.02244 0.04956 0.43102 0.0
H120 H 0.94651 0.95028 0.43131 0.0
C121 C 0.972 0.9632 0.33159 0.0
C122 C 0.47686 0.53543 0.83267 0.0
C123 C 0.45167 0.55963 0.86894 0.0
H124 H 0.55039 0.47282 0.80351 0.0
C125 C 0.48394 0.54013 0.90441 0.0
H126 H 0.45225 0.54879 0.80493 0.0
C127 C 0.54078 0.49731 0.90352 0.0
C128 C 0.56457 0.47161 0.86727 0.0
H129 H 0.46503 0.55771 0.93275 0.0
H130 H 0.56533 0.48328 0.93116 0.0
C131 C 0.53225 0.49111 0.83188 0.0
C132 C 0.51776 0.46317 0.13504 0.0
C133 C 0.54367 0.43791 0.09922 0.0
H134 H 0.45324 0.53632 0.16309 0.0
C135 C 0.52485 0.46933 0.06338 0.0
H136 H 0.53065 0.43922 0.16302 0.0
C137 C 0.48116 0.52554 0.06347 0.0
C138 C 0.45392 0.54955 0.09927 0.0
H139 H 0.54384 0.45038 0.03536 0.0
H140 H 0.46791 0.54958 0.03558 0.0
C141 C 0.47261 0.51794 0.13502 0.0
C142 C 0.00822 0.03973 0.56217 0.0
C143 C 0.04062 0.05922 0.59762 0.0
H144 H 0.92668 0.98292 0.53547 0.0
C145 C 0.0155 0.03504 0.6339 0.0
H146 H 0.02708 0.05729 0.53381 0.0
C147 C 0.96005 0.99076 0.63472 0.0
C148 C 0.9276 0.97126 0.59936 0.0
H149 H 0.0402 0.04841 0.66162 0.0
H150 H 0.94196 0.97248 0.6631 0.0
C151 C 0.95132 -0.00306 0.56309 0.0
C152 C 0.31655 0.22339 0.4619 0.0
C153 C 0.27082 0.26549 0.44115 0.0
H154 H 0.35219 0.18897 0.51844 0.0
C155 C 0.2322 0.31329 0.46233 0.0
H156 H 0.34752 0.18655 0.44626 0.0
C157 C 0.23449 0.31431 0.50378 0.0
C158 C 0.27587 0.26801 0.52466 0.0
H159 H 0.19672 0.34658 0.44714 0.0
H160 H 0.2009 0.34866 0.51949 0.0
C161 C 0.31936 0.22489 0.50327 0.0
C162 C 0.2571 0.81443 0.96268 0.0
C163 C 0.2158 0.76818 0.94166 0.0
H164 H 0.29443 0.84665 0.01945 0.0
C165 C 0.17203 0.72511 0.96289 0.0
H166 H 0.2909 0.84873 0.94709 0.0
C167 C 0.17445 0.72362 0.00427 0.0
C168 C 0.22009 0.76566 0.02518 0.0
H169 H 0.13924 0.68925 0.9476 0.0
H170 H 0.14325 0.68682 0.01979 0.0
C171 C 0.25901 0.8134 0.00413 0.0
C172 C 0.768 0.68684 0.50535 0.0
C173 C 0.7261 0.73472 0.52426 0.0
H174 H 0.80372 0.64674 0.4503 0.0
C175 C 0.68072 0.77374 0.50142 0.0
H176 H 0.80302 0.6557 0.52237 0.0
C177 C 0.68178 0.76933 0.46006 0.0
C178 C 0.72748 0.7251 0.44102 0.0
H179 H 0.64782 0.81099 0.51528 0.0
H180 H 0.64936 0.80304 0.44297 0.0
C181 C 0.76825 0.68161 0.46409 0.0
C182 C 0.72322 0.18712 0.96137 0.0
C183 C 0.76523 0.23505 0.94257 0.0
H184 H 0.68709 0.14702 0.01632 0.0
C185 C 0.81041 0.27417 0.96553 0.0
H186 H 0.68835 0.1559 0.94425 0.0
C187 C 0.80902 0.2698 0.00689 0.0
C188 C 0.7632 0.22553 0.0258 0.0
H189 H 0.84338 0.31146 0.95177 0.0
H190 H 0.84128 0.30359 0.02407 0.0
C191 C 0.72265 0.18193 0.00263 0.0
C192 C 0.47983 0.15483 0.22562 0.0
C193 C 0.47353 0.17971 0.18677 0.0
H194 H 0.4296 0.13671 0.28114 0.0
C195 C 0.41015 0.20494 0.17388 0.0
H196 H 0.52823 0.13566 0.23632 0.0
C197 C 0.35492 0.20794 0.19975 0.0
C198 C 0.36119 0.1835 0.23859 0.0
H199 H 0.40407 0.22542 0.14424 0.0
H200 H 0.3074 0.22983 0.18947 0.0
C201 C 0.42357 0.15543 0.25112 0.0
C202 C 0.31928 0.92551 0.74936 0.0
C203 C 0.28831 0.86399 0.73768 0.0
H204 H 0.34163 0.02947 0.73381 0.0
C205 C 0.25974 0.85893 0.69966 0.0
H206 H 0.34124 0.93069 0.77872 0.0
C207 C 0.26219 0.91429 0.67368 0.0
C208 C 0.29109 0.97659 0.6857 0.0
H209 H 0.23556 0.81213 0.69001 0.0
H210 H 0.23916 0.90911 0.64458 0.0
C211 C 0.31945 0.98191 0.72383 0.0
C212 C 0.61501 0.83657 0.2169 0.0
C213 C 0.62651 0.77913 0.24089 0.0
H214 H 0.54952 0.88469 0.17412 0.0
C215 C 0.57681 0.72775 0.24219 0.0
H216 H 0.65228 0.87717 0.21556 0.0
C217 C 0.51724 0.73311 0.21964 0.0
C218 C 0.50664 0.78925 0.1945 0.0
H219 H 0.58381 0.68332 0.2608 0.0
H220 H 0.48075 0.69177 0.22072 0.0
C221 C 0.55605 0.8411 0.19345 0.0
C222 C 0.63842 0.12141 0.72107 0.0
C223 C 0.69503 0.1306 0.74613 0.0
H224 H 0.5908 0.05855 0.67674 0.0
C225 C 0.7442 0.07894 0.74858 0.0
H226 H 0.59953 0.16035 0.71888 0.0
C227 C 0.73801 0.01998 0.72573 0.0
C228 C 0.68338 0.01202 0.69906 0.0
H229 H 0.78785 0.08421 0.76809 0.0
H230 H 0.77807 0.9822 0.72756 0.0
C231 C 0.63319 0.06305 0.69722 0.0
C232 C 0.934 0.34121 0.27336 0.0
C233 C 0.98336 0.28936 0.27221 0.0
H234 H 0.83777 0.37733 0.25134 0.0
C235 C 0.97263 0.23326 0.24703 0.0
H236 H 0.94063 0.38478 0.29271 0.0
C237 C 0.91301 0.22793 0.22453 0.0
C238 C 0.86337 0.27932 0.22591 0.0
H239 H 0.00909 0.19191 0.24588 0.0
H240 H 0.90593 0.18353 0.20588 0.0
C241 C 0.87499 0.33672 0.24994 0.0
C242 C 0.17322 0.42531 0.71704 0.0
C243 C 0.2044 0.36392 0.72868 0.0
H244 H 0.15069 0.52923 0.73259 0.0
C245 C 0.23321 0.35907 0.76665 0.0
H246 H 0.15108 0.43034 0.68771 0.0
C247 C 0.23076 0.41448 0.79261 0.0
C248 C 0.20162 0.47665 0.78063 0.0
H249 H 0.25755 0.31237 0.77628 0.0
H250 H 0.25395 0.40946 0.82167 0.0
C251 C 0.17306 0.48177 0.74255 0.0
C252 C 0.13499 0.70816 0.26662 0.0
C253 C 0.12865 0.68369 0.22777 0.0
H254 H 0.08595 0.72563 0.32216 0.0
C255 C 0.06625 0.65559 0.21527 0.0
H256 H 0.18254 0.73009 0.27688 0.0
C257 C 0.01003 0.65495 0.2408 0.0
C258 C 0.01641 0.67984 0.27966 0.0
H259 H 0.06017 0.63684 0.18524 0.0
H260 H 0.96161 0.63573 0.23012 0.0
C261 C 0.07981 0.70514 0.29252 0.0
C262 C 0.75421 0.51995 0.74106 0.0
C263 C 0.80883 0.5121 0.76774 0.0
H264 H 0.70436 0.58404 0.69869 0.0
C265 C 0.85901 0.5632 0.76958 0.0
H266 H 0.71416 0.48211 0.73923 0.0
C267 C 0.85377 0.62152 0.74573 0.0
C268 C 0.79716 0.63059 0.72066 0.0
H269 H 0.90139 0.55879 0.79007 0.0
H270 H 0.89264 0.66051 0.74792 0.0
C271 C 0.74801 0.57886 0.71821 0.0
loop_
_geom_bond_atom_site_label_1
_geom_bond_atom_site_label_2
_geom_bond_distance
_geom_bond_site_symmetry_2
_ccdc_geom_bond_type
C0 O1 1.306 . S
C0 O3 1.160 . S
O1 C0 1.306 . S
O1 Cd2 2.228 . S
Cd2 O1 2.228 . S
Cd2 O6 2.273 . S
Cd2 O10 2.277 . S
O3 C0 1.160 . S
O3 Cd4 2.203 . S
Cd4 O3 2.203 . S
Cd4 O6 2.411 . S
Cd4 O7 2.333 . S
Cd4 O8 2.352 . S
Cd4 O12 2.277 . S
Cd4 O13 2.356 . S
C5 O10 1.209 . S
C5 O12 1.226 . S
O6 Cd2 2.273 . S
O6 Cd4 2.411 . S
O6 C9 1.320 . S
O7 Cd4 2.333 . S
O7 C9 1.214 . S
O8 Cd4 2.352 . S
O8 C11 1.258 . S
C9 O6 1.320 . S
C9 O7 1.214 . S
O10 Cd2 2.277 . S
O10 C5 1.209 . S
C11 O8 1.258 . S
C11 O13 1.282 . S
O12 Cd4 2.277 . S
O12 C5 1.226 . S
O13 Cd4 2.356 . S
O13 C11 1.282 . S
C14 O15 1.306 . S
C14 O17 1.160 . S
O15 C14 1.306 . S
O15 Cd16 2.228 . S
Cd16 O15 2.228 . S
Cd16 O20 2.273 . S
Cd16 O24 2.277 . S
O17 C14 1.160 . S
O17 Cd18 2.203 . S
Cd18 O17 2.203 . S
Cd18 O20 2.411 . S
Cd18 O21 2.333 . S
Cd18 O22 2.352 . S
Cd18 O26 2.277 . S
Cd18 O27 2.356 . S
C19 O24 1.209 . S
C19 O26 1.226 . S
O20 Cd16 2.273 . S
O20 Cd18 2.411 . S
O20 C23 1.320 . S
O21 Cd18 2.333 . S
O21 C23 1.214 . S
O22 Cd18 2.352 . S
O22 C25 1.258 . S
C23 O20 1.320 . S
C23 O21 1.214 . S
O24 Cd16 2.277 . S
O24 C19 1.209 . S
C25 O22 1.258 . S
C25 O27 1.282 . S
O26 Cd18 2.277 . S
O26 C19 1.226 . S
O27 Cd18 2.356 . S
O27 C25 1.282 . S
C28 O29 1.306 . S
C28 O31 1.160 . S
O29 C28 1.306 . S
O29 Cd30 2.228 . S
Cd30 O29 2.228 . S
Cd30 O34 2.273 . S
Cd30 O38 2.277 . S
O31 C28 1.160 . S
O31 Cd32 2.203 . S
Cd32 O31 2.203 . S
Cd32 O34 2.411 . S
Cd32 O35 2.333 . S
Cd32 O36 2.352 . S
Cd32 O40 2.277 . S
Cd32 O41 2.356 . S
C33 O38 1.209 . S
C33 O40 1.226 . S
O34 Cd30 2.273 . S
O34 Cd32 2.411 . S
O34 C37 1.320 . S
O35 Cd32 2.333 . S
O35 C37 1.214 . S
O36 Cd32 2.352 . S
O36 C39 1.258 . S
C37 O34 1.320 . S
C37 O35 1.214 . S
O38 Cd30 2.277 . S
O38 C33 1.209 . S
C39 O36 1.258 . S
C39 O41 1.282 . S
O40 Cd32 2.277 . S
O40 C33 1.226 . S
O41 Cd32 2.356 . S
O41 C39 1.282 . S
C42 O43 1.306 . S
C42 O45 1.160 . S
O43 C42 1.306 . S
O43 Cd44 2.228 . S
Cd44 O43 2.228 . S
Cd44 O48 2.273 . S
Cd44 O52 2.277 . S
O45 C42 1.160 . S
O45 Cd46 2.203 . S
Cd46 O45 2.203 . S
Cd46 O48 2.411 . S
Cd46 O49 2.333 . S
Cd46 O50 2.352 . S
Cd46 O54 2.277 . S
Cd46 O55 2.356 . S
C47 O52 1.209 . S
C47 O54 1.226 . S
O48 Cd44 2.273 . S
O48 Cd46 2.411 . S
O48 C51 1.320 . S
O49 Cd46 2.333 . S
O49 C51 1.214 . S
O50 Cd46 2.352 . S
O50 C53 1.258 . S
C51 O48 1.320 . S
C51 O49 1.214 . S
O52 Cd44 2.277 . S
O52 C47 1.209 . S
C53 O50 1.258 . S
C53 O55 1.282 . S
O54 Cd46 2.277 . S
O54 C47 1.226 . S
O55 Cd46 2.356 . S
O55 C53 1.282 . S
C56 O57 1.306 . S
C56 O59 1.160 . S
O57 C56 1.306 . S
O57 Cd58 2.228 . S
Cd58 O57 2.228 . S
Cd58 O62 2.273 . S
Cd58 O66 2.277 . S
O59 C56 1.160 . S
O59 Cd60 2.203 . S
Cd60 O59 2.203 . S
Cd60 O62 2.411 . S
Cd60 O63 2.333 . S
Cd60 O64 2.352 . S
Cd60 O68 2.277 . S
Cd60 O69 2.356 . S
C61 O66 1.209 . S
C61 O68 1.226 . S
O62 Cd58 2.273 . S
O62 Cd60 2.411 . S
O62 C65 1.320 . S
O63 Cd60 2.333 . S
O63 C65 1.214 . S
O64 Cd60 2.352 . S
O64 C67 1.258 . S
C65 O62 1.320 . S
C65 O63 1.214 . S
O66 Cd58 2.277 . S
O66 C61 1.209 . S
C67 O64 1.258 . S
C67 O69 1.282 . S
O68 Cd60 2.277 . S
O68 C61 1.226 . S
O69 Cd60 2.356 . S
O69 C67 1.282 . S
C70 O71 1.306 . S
C70 O73 1.160 . S
O71 C70 1.306 . S
O71 Cd72 2.228 . S
Cd72 O71 2.228 . S
Cd72 O76 2.273 . S
Cd72 O80 2.277 . S
O73 C70 1.160 . S
O73 Cd74 2.203 . S
Cd74 O73 2.203 . S
Cd74 O76 2.411 . S
Cd74 O77 2.333 . S
Cd74 O78 2.352 . S
Cd74 O82 2.277 . S
Cd74 O83 2.356 . S
C75 O80 1.209 . S
C75 O82 1.226 . S
O76 Cd72 2.273 . S
O76 Cd74 2.411 . S
O76 C79 1.320 . S
O77 Cd74 2.333 . S
O77 C79 1.214 . S
O78 Cd74 2.352 . S
O78 C81 1.258 . S
C79 O76 1.320 . S
C79 O77 1.214 . S
O80 Cd72 2.277 . S
O80 C75 1.209 . S
C81 O78 1.258 . S
C81 O83 1.282 . S
O82 Cd74 2.277 . S
O82 C75 1.226 . S
O83 Cd74 2.356 . S
O83 C81 1.282 . S
C84 O85 1.306 . S
C84 O87 1.160 . S
O85 C84 1.306 . S
O85 Cd86 2.228 . S
Cd86 O85 2.228 . S
Cd86 O90 2.273 . S
Cd86 O94 2.277 . S
O87 C84 1.160 . S
O87 Cd88 2.203 . S
Cd88 O87 2.203 . S
Cd88 O90 2.411 . S
Cd88 O91 2.333 . S
Cd88 O92 2.352 . S
Cd88 O96 2.277 . S
Cd88 O97 2.356 . S
C89 O94 1.209 . S
C89 O96 1.226 . S
O90 Cd86 2.273 . S
O90 Cd88 2.411 . S
O90 C93 1.320 . S
O91 Cd88 2.333 . S
O91 C93 1.214 . S
O92 Cd88 2.352 . S
O92 C95 1.258 . S
C93 O90 1.320 . S
C93 O91 1.214 . S
O94 Cd86 2.277 . S
O94 C89 1.209 . S
C95 O92 1.258 . S
C95 O97 1.282 . S
O96 Cd88 2.277 . S
O96 C89 1.226 . S
O97 Cd88 2.356 . S
O97 C95 1.282 . S
C98 O99 1.306 . S
C98 O101 1.160 . S
O99 C98 1.306 . S
O99 Cd100 2.228 . S
Cd100 O99 2.228 . S
Cd100 O104 2.273 . S
Cd100 O108 2.277 . S
O101 C98 1.160 . S
O101 Cd102 2.203 . S
Cd102 O101 2.203 . S
Cd102 O104 2.411 . S
Cd102 O105 2.333 . S
Cd102 O106 2.352 . S
Cd102 O110 2.277 . S
Cd102 O111 2.356 . S
C103 O108 1.209 . S
C103 O110 1.226 . S
O104 Cd100 2.273 . S
O104 Cd102 2.411 . S
O104 C107 1.320 . S
O105 Cd102 2.333 . S
O105 C107 1.214 . S
O106 Cd102 2.352 . S
O106 C109 1.258 . S
C107 O104 1.320 . S
C107 O105 1.214 . S
O108 Cd100 2.277 . S
O108 C103 1.209 . S
C109 O106 1.258 . S
C109 O111 1.282 . S
O110 Cd102 2.277 . S
O110 C103 1.226 . S
O111 Cd102 2.356 . S
O111 C109 1.282 . S
C112 C113 1.387 . S
C112 H116 0.950 . S
C112 C121 1.390 1_445 S
C113 C112 1.387 . S
C113 C115 1.387 . S
H114 C121 0.950 . S
C115 C113 1.387 . S
C115 C117 1.390 1_445 S
C115 H119 0.950 . S
H116 C112 0.950 . S
C117 C115 1.390 1_665 S
C117 C118 1.387 . S
C117 H120 0.950 . S
C118 C117 1.387 . S
C118 C121 1.387 . S
H119 C115 0.950 . S
H120 C117 0.950 . S
C121 C112 1.390 1_665 S
C121 H114 0.950 . S
C121 C118 1.387 . S
C122 C123 1.387 . S
C122 H126 0.950 . S
C122 C131 1.390 . S
C123 C122 1.387 . S
C123 C125 1.387 . S
H124 C131 0.950 . S
C125 C123 1.387 . S
C125 C127 1.390 . S
C125 H129 0.950 . S
H126 C122 0.950 . S
C127 C125 1.390 . S
C127 C128 1.387 . S
C127 H130 0.950 . S
C128 C127 1.387 . S
C128 C131 1.387 . S
H129 C125 0.950 . S
H130 C127 0.950 . S
C131 C122 1.390 . S
C131 H124 0.950 . S
C131 C128 1.387 . S
C132 C133 1.387 . S
C132 H136 0.950 . S
C132 C141 1.390 . S
C133 C132 1.387 . S
C133 C135 1.387 . S
H134 C141 0.950 . S
C135 C133 1.387 . S
C135 C137 1.390 . S
C135 H139 0.950 . S
H136 C132 0.950 . S
C137 C135 1.390 . S
C137 C138 1.387 . S
C137 H140 0.950 . S
C138 C137 1.387 . S
C138 C141 1.387 . S
H139 C135 0.950 . S
H140 C137 0.950 . S
C141 C132 1.390 . S
C141 H134 0.950 . S
C141 C138 1.387 . S
C142 C143 1.387 . S
C142 H146 0.950 . S
C142 C151 1.390 1_445 S
C143 C142 1.387 . S
C143 C145 1.387 . S
H144 C151 0.950 . S
C145 C143 1.387 . S
C145 C147 1.390 1_445 S
C145 H149 0.950 . S
H146 C142 0.950 . S
C147 C145 1.390 1_665 S
C147 C148 1.387 . S
C147 H150 0.950 . S
C148 C147 1.387 . S
C148 C151 1.387 . S
H149 C145 0.950 . S
H150 C147 0.950 . S
C151 C142 1.390 1_665 S
C151 H144 0.950 . S
C151 C148 1.387 . S
C152 C153 1.387 . S
C152 H156 0.950 . S
C152 C161 1.390 . S
C153 C152 1.387 . S
C153 C155 1.387 . S
H154 C161 0.950 . S
C155 C153 1.387 . S
C155 C157 1.390 . S
C155 H159 0.950 . S
H156 C152 0.950 . S
C157 C155 1.390 . S
C157 C158 1.387 . S
C157 H160 0.950 . S
C158 C157 1.387 . S
C158 C161 1.387 . S
H159 C155 0.950 . S
H160 C157 0.950 . S
C161 C152 1.390 . S
C161 H154 0.950 . S
C161 C158 1.387 . S
C162 C163 1.387 . S
C162 H166 0.950 . S
C162 C171 1.390 1_556 S
C163 C162 1.387 . S
C163 C165 1.387 . S
H164 C171 0.950 . S
C165 C163 1.387 . S
C165 C167 1.390 1_556 S
C165 H169 0.950 . S
H166 C162 0.950 . S
C167 C165 1.390 1_554 S
C167 C168 1.387 . S
C167 H170 0.950 . S
C168 C167 1.387 . S
C168 C171 1.387 . S
H169 C165 0.950 . S
H170 C167 0.950 . S
C171 C162 1.390 1_554 S
C171 H164 0.950 . S
C171 C168 1.387 . S
C172 C173 1.387 . S
C172 H176 0.950 . S
C172 C181 1.390 . S
C173 C172 1.387 . S
C173 C175 1.387 . S
H174 C181 0.950 . S
C175 C173 1.387 . S
C175 C177 1.390 . S
C175 H179 0.950 . S
H176 C172 0.950 . S
C177 C175 1.390 . S
C177 C178 1.387 . S
C177 H180 0.950 . S
C178 C177 1.387 . S
C178 C181 1.387 . S
H179 C175 0.950 . S
H180 C177 0.950 . S
C181 C172 1.390 . S
C181 H174 0.950 . S
C181 C178 1.387 . S
C182 C183 1.387 . S
C182 H186 0.950 . S
C182 C191 1.390 1_556 S
C183 C182 1.387 . S
C183 C185 1.387 . S
H184 C191 0.950 . S
C185 C183 1.387 . S
C185 C187 1.390 1_556 S
C185 H189 0.950 . S
H186 C182 0.950 . S
C187 C185 1.390 1_554 S
C187 C188 1.387 . S
C187 H190 0.950 . S
C188 C187 1.387 . S
C188 C191 1.387 . S
H189 C185 0.950 . S
H190 C187 0.950 . S
C191 C182 1.390 1_554 S
C191 H184 0.950 . S
C191 C188 1.387 . S
C192 C193 1.387 . S
C192 H196 0.950 . S
C192 C201 1.390 . S
C193 C192 1.387 . S
C193 C195 1.387 . S
H194 C201 0.950 . S
C195 C193 1.387 . S
C195 C197 1.390 . S
C195 H199 0.950 . S
H196 C192 0.950 . S
C197 C195 1.390 . S
C197 C198 1.387 . S
C197 H200 0.950 . S
C198 C197 1.387 . S
C198 C201 1.387 . S
H199 C195 0.950 . S
H200 C197 0.950 . S
C201 C192 1.390 . S
C201 H194 0.950 . S
C201 C198 1.387 . S
C202 C203 1.387 . S
C202 H206 0.950 . S
C202 C211 1.390 . S
C203 C202 1.387 . S
C203 C205 1.387 . S
H204 C211 0.950 . S
C205 C203 1.387 . S
C205 C207 1.390 . S
C205 H209 0.950 . S
H206 C202 0.950 . S
C207 C205 1.390 . S
C207 C208 1.387 . S
C207 H210 0.950 . S
C208 C207 1.387 . S
C208 C211 1.387 . S
H209 C205 0.950 . S
H210 C207 0.950 . S
C211 C202 1.390 . S
C211 H204 0.950 . S
C211 C208 1.387 . S
C212 C213 1.387 . S
C212 H216 0.950 . S
C212 C221 1.390 . S
C213 C212 1.387 . S
C213 C215 1.387 . S
H214 C221 0.950 . S
C215 C213 1.387 . S
C215 C217 1.390 . S
C215 H219 0.950 . S
H216 C212 0.950 . S
C217 C215 1.390 . S
C217 C218 1.387 . S
C217 H220 0.950 . S
C218 C217 1.387 . S
C218 C221 1.387 . S
H219 C215 0.950 . S
H220 C217 0.950 . S
C221 C212 1.390 . S
C221 H214 0.950 . S
C221 C218 1.387 . S
C222 C223 1.387 . S
C222 H226 0.950 . S
C222 C231 1.390 . S
C223 C222 1.387 . S
C223 C225 1.387 . S
H224 C231 0.950 . S
C225 C223 1.387 . S
C225 C227 1.390 . S
C225 H229 0.950 . S
H226 C222 0.950 . S
C227 C225 1.390 . S
C227 C228 1.387 . S
C227 H230 0.950 . S
C228 C227 1.387 . S
C228 C231 1.387 . S
H229 C225 0.950 . S
H230 C227 0.950 . S
C231 C222 1.390 . S
C231 H224 0.950 . S
C231 C228 1.387 . S
C232 C233 1.387 . S
C232 H236 0.950 . S
C232 C241 1.390 . S
C233 C232 1.387 . S
C233 C235 1.387 . S
H234 C241 0.950 . S
C235 C233 1.387 . S
C235 C237 1.390 . S
C235 H239 0.950 . S
H236 C232 0.950 . S
C237 C235 1.390 . S
C237 C238 1.387 . S
C237 H240 0.950 . S
C238 C237 1.387 . S
C238 C241 1.387 . S
H239 C235 0.950 . S
H240 C237 0.950 . S
C241 C232 1.390 . S
C241 H234 0.950 . S
C241 C238 1.387 . S
C242 C243 1.387 . S
C242 H246 0.950 . S
C242 C251 1.390 . S
C243 C242 1.387 . S
C243 C245 1.387 . S
H244 C251 0.950 . S
C245 C243 1.387 . S
C245 C247 1.390 . S
C245 H249 0.950 . S
H246 C242 0.950 . S
C247 C245 1.390 . S
C247 C248 1.387 . S
C247 H250 0.950 . S
C248 C247 1.387 . S
C248 C251 1.387 . S
H249 C245 0.950 . S
H250 C247 0.950 . S
C251 C242 1.390 . S
C251 H244 0.950 . S
C251 C248 1.387 . S
C252 C253 1.387 . S
C252 H256 0.950 . S
C252 C261 1.390 . S
C253 C252 1.387 . S
C253 C255 1.387 . S
H254 C261 0.950 . S
C255 C253 1.387 . S
C255 C257 1.390 . S
C255 H259 0.950 . S
H256 C252 0.950 . S
C257 C255 1.390 . S
C257 C258 1.387 . S
C257 H260 0.950 . S
C258 C257 1.387 . S
C258 C261 1.387 . S
H259 C255 0.950 . S
H260 C257 0.950 . S
C261 C252 1.390 . S
C261 H254 0.950 . S
C261 C258 1.387 . S
C262 C263 1.387 . S
C262 H266 0.950 . S
C262 C271 1.390 . S
C263 C262 1.387 . S
C263 C265 1.387 . S
H264 C271 0.950 . S
C265 C263 1.387 . S
C265 C267 1.390 . S
C265 H269 0.950 . S
H266 C262 0.950 . S
C267 C265 1.390 . S
C267 C268 1.387 . S
C267 H270 0.950 . S
C268 C267 1.387 . S
C268 C271 1.387 . S
H269 C265 0.950 . S
H270 C267 0.950 . S
C271 C262 1.390 . S
C271 H264 0.950 . S
C271 C268 1.387 . S
C113 C5 0.779 . S
C118 C33 0.779 . S
C123 C19 0.779 . S
C128 C47 0.779 . S
C133 C61 0.779 . S
C138 C89 0.779 . S
C143 C75 0.783 . S
C148 C103 0.783 . S
C153 C9 1.451 . S
C158 C79 1.451 . S
C163 C23 1.449 . S
C168 C93 1.450 . S
C173 C107 1.449 . S
C178 C37 1.450 . S
C183 C51 1.449 . S
C188 C65 1.450 . S
C193 C56 1.711 . S
C198 C11 1.771 . S
C203 C25 1.771 . S
C208 C70 1.712 1_565 S
C213 C39 1.768 . S
C218 C84 1.708 . S
C223 C53 1.770 . S
C228 C98 1.710 1_545 S
C233 C0 1.709 1_655 S
C238 C67 1.769 . S
C243 C81 1.771 . S
C248 C14 1.711 . S
C253 C95 1.769 . S
C258 C28 1.710 1_455 S
C263 C42 1.712 . S
C268 C109 1.771 . S
