# Generated by pormake.
# Topology sop, (7)-cn, num edge types: 1
# Building blocks:
#     Node 0, Type 0, BuildingBlock: NUHQUE_clean_sbu_2, # of connection points: 7
#     Node 1, Type 0, BuildingBlock: NUHQUE_clean_sbu_2, # of connection points: 7
#     Node 2, Type 0, BuildingBlock: NUHQUE_clean_sbu_2, # of connection points: 7
#     Node 3, Type 0, BuildingBlock: NUHQUE_clean_sbu_2, # of connection points: 7
#     Node 4, Type 0, BuildingBlock: NUHQUE_clean_sbu_2, # of connection points: 7
#     Node 5, Type 0, BuildingBlock: NUHQUE_clean_sbu_2, # of connection points: 7
#     Node 6, Type 0, BuildingBlock: NUHQUE_clean_sbu_2, # of connection points: 7
#     Node 7, Type 0, BuildingBlock: NUHQUE_clean_sbu_2, # of connection points: 7
#     Node 8, Type 0, BuildingBlock: NUHQUE_clean_sbu_2, # of connection points: 7
#     Node 9, Type 0, BuildingBlock: NUHQUE_clean_sbu_2, # of connection points: 7
#     Node 10, Type 0, BuildingBlock: NUHQUE_clean_sbu_2, # of connection points: 7
#     Node 11, Type 0, BuildingBlock: NUHQUE_clean_sbu_2, # of connection points: 7
#     Node 12, Type 0, BuildingBlock: NUHQUE_clean_sbu_2, # of connection points: 7
#     Node 13, Type 0, BuildingBlock: NUHQUE_clean_sbu_2, # of connection points: 7
#     Node 14, Type 0, BuildingBlock: NUHQUE_clean_sbu_2, # of connection points: 7
#     Node 15, Type 0, BuildingBlock: NUHQUE_clean_sbu_2, # of connection points: 7
#     Node 16, Type 0, BuildingBlock: NUHQUE_clean_sbu_2, # of connection points: 7
#     Node 17, Type 0, BuildingBlock: NUHQUE_clean_sbu_2, # of connection points: 7
#     Node 18, Type 0, BuildingBlock: NUHQUE_clean_sbu_2, # of connection points: 7
#     Node 19, Type 0, BuildingBlock: NUHQUE_clean_sbu_2, # of connection points: 7
#     Node 20, Type 0, BuildingBlock: NUHQUE_clean_sbu_2, # of connection points: 7
#     Node 21, Type 0, BuildingBlock: NUHQUE_clean_sbu_2, # of connection points: 7
#     Node 22, Type 0, BuildingBlock: NUHQUE_clean_sbu_2, # of connection points: 7
#     Node 23, Type 0, BuildingBlock: NUHQUE_clean_sbu_2, # of connection points: 7
#     Node 24, Type 0, BuildingBlock: NUHQUE_clean_sbu_2, # of connection points: 7
#     Node 25, Type 0, BuildingBlock: NUHQUE_clean_sbu_2, # of connection points: 7
#     Node 26, Type 0, BuildingBlock: NUHQUE_clean_sbu_2, # of connection points: 7
#     Node 27, Type 0, BuildingBlock: NUHQUE_clean_sbu_2, # of connection points: 7
#     Node 28, Type 0, BuildingBlock: NUHQUE_clean_sbu_2, # of connection points: 7
#     Node 29, Type 0, BuildingBlock: NUHQUE_clean_sbu_2, # of connection points: 7
#     Node 30, Type 0, BuildingBlock: NUHQUE_clean_sbu_2, # of connection points: 7
#     Node 31, Type 0, BuildingBlock: NUHQUE_clean_sbu_2, # of connection points: 7
#     Edge 32, Type (0, 0), BuildingBlock: AJUNOK_clean_linker_0, # of connection points: 2
#     Edge 33, Type (0, 0), BuildingBlock: AJUNOK_clean_linker_0, # of connection points: 2
#     Edge 34, Type (0, 0), BuildingBlock: AJUNOK_clean_linker_0, # of connection points: 2
#     Edge 35, Type (0, 0), BuildingBlock: AJUNOK_clean_linker_0, # of connection points: 2
#     Edge 36, Type (0, 0), BuildingBlock: AJUNOK_clean_linker_0, # of connection points: 2
#     Edge 37, Type (0, 0), BuildingBlock: AJUNOK_clean_linker_0, # of connection points: 2
#     Edge 38, Type (0, 0), BuildingBlock: AJUNOK_clean_linker_0, # of connection points: 2
#     Edge 39, Type (0, 0), BuildingBlock: AJUNOK_clean_linker_0, # of connection points: 2
#     Edge 40, Type (0, 0), BuildingBlock: AJUNOK_clean_linker_0, # of connection points: 2
#     Edge 41, Type (0, 0), BuildingBlock: AJUNOK_clean_linker_0, # of connection points: 2
#     Edge 42, Type (0, 0), BuildingBlock: AJUNOK_clean_linker_0, # of connection points: 2
#     Edge 43, Type (0, 0), BuildingBlock: AJUNOK_clean_linker_0, # of connection points: 2
#     Edge 44, Type (0, 0), BuildingBlock: AJUNOK_clean_linker_0, # of connection points: 2
#     Edge 45, Type (0, 0), BuildingBlock: AJUNOK_clean_linker_0, # of connection points: 2
#     Edge 46, Type (0, 0), BuildingBlock: AJUNOK_clean_linker_0, # of connection points: 2
#     Edge 47, Type (0, 0), BuildingBlock: AJUNOK_clean_linker_0, # of connection points: 2
#     Edge 48, Type (0, 0), BuildingBlock: AJUNOK_clean_linker_0, # of connection points: 2
#     Edge 49, Type (0, 0), BuildingBlock: AJUNOK_clean_linker_0, # of connection points: 2
#     Edge 50, Type (0, 0), BuildingBlock: AJUNOK_clean_linker_0, # of connection points: 2
#     Edge 51, Type (0, 0), BuildingBlock: AJUNOK_clean_linker_0, # of connection points: 2
#     Edge 52, Type (0, 0), BuildingBlock: AJUNOK_clean_linker_0, # of connection points: 2
#     Edge 53, Type (0, 0), BuildingBlock: AJUNOK_clean_linker_0, # of connection points: 2
#     Edge 54, Type (0, 0), BuildingBlock: AJUNOK_clean_linker_0, # of connection points: 2
#     Edge 55, Type (0, 0), BuildingBlock: AJUNOK_clean_linker_0, # of connection points: 2
#     Edge 56, Type (0, 0), BuildingBlock: AJUNOK_clean_linker_0, # of connection points: 2
#     Edge 57, Type (0, 0), BuildingBlock: AJUNOK_clean_linker_0, # of connection points: 2
#     Edge 58, Type (0, 0), BuildingBlock: AJUNOK_clean_linker_0, # of connection points: 2
#     Edge 59, Type (0, 0), BuildingBlock: AJUNOK_clean_linker_0, # of connection points: 2
#     Edge 60, Type (0, 0), BuildingBlock: AJUNOK_clean_linker_0, # of connection points: 2
#     Edge 61, Type (0, 0), BuildingBlock: AJUNOK_clean_linker_0, # of connection points: 2
#     Edge 62, Type (0, 0), BuildingBlock: AJUNOK_clean_linker_0, # of connection points: 2
#     Edge 63, Type (0, 0), BuildingBlock: AJUNOK_clean_linker_0, # of connection points: 2
#     Edge 64, Type (0, 0), BuildingBlock: AJUNOK_clean_linker_0, # of connection points: 2
#     Edge 65, Type (0, 0), BuildingBlock: AJUNOK_clean_linker_0, # of connection points: 2
#     Edge 66, Type (0, 0), BuildingBlock: AJUNOK_clean_linker_0, # of connection points: 2
#     Edge 67, Type (0, 0), BuildingBlock: AJUNOK_clean_linker_0, # of connection points: 2
#     Edge 68, Type (0, 0), BuildingBlock: AJUNOK_clean_linker_0, # of connection points: 2
#     Edge 69, Type (0, 0), BuildingBlock: AJUNOK_clean_linker_0, # of connection points: 2
#     Edge 70, Type (0, 0), BuildingBlock: AJUNOK_clean_linker_0, # of connection points: 2
#     Edge 71, Type (0, 0), BuildingBlock: AJUNOK_clean_linker_0, # of connection points: 2
#     Edge 72, Type (0, 0), BuildingBlock: AJUNOK_clean_linker_0, # of connection points: 2
#     Edge 73, Type (0, 0), BuildingBlock: AJUNOK_clean_linker_0, # of connection points: 2
#     Edge 74, Type (0, 0), BuildingBlock: AJUNOK_clean_linker_0, # of connection points: 2
#     Edge 75, Type (0, 0), BuildingBlock: AJUNOK_clean_linker_0, # of connection points: 2
#     Edge 76, Type (0, 0), BuildingBlock: AJUNOK_clean_linker_0, # of connection points: 2
#     Edge 77, Type (0, 0), BuildingBlock: AJUNOK_clean_linker_0, # of connection points: 2
#     Edge 78, Type (0, 0), BuildingBlock: AJUNOK_clean_linker_0, # of connection points: 2
#     Edge 79, Type (0, 0), BuildingBlock: AJUNOK_clean_linker_0, # of connection points: 2
#     Edge 80, Type (0, 0), BuildingBlock: AJUNOK_clean_linker_0, # of connection points: 2
#     Edge 81, Type (0, 0), BuildingBlock: AJUNOK_clean_linker_0, # of connection points: 2
#     Edge 82, Type (0, 0), BuildingBlock: AJUNOK_clean_linker_0, # of connection points: 2
#     Edge 83, Type (0, 0), BuildingBlock: AJUNOK_clean_linker_0, # of connection points: 2
#     Edge 84, Type (0, 0), BuildingBlock: AJUNOK_clean_linker_0, # of connection points: 2
#     Edge 85, Type (0, 0), BuildingBlock: AJUNOK_clean_linker_0, # of connection points: 2
#     Edge 86, Type (0, 0), BuildingBlock: AJUNOK_clean_linker_0, # of connection points: 2
#     Edge 87, Type (0, 0), BuildingBlock: AJUNOK_clean_linker_0, # of connection points: 2
#     Edge 88, Type (0, 0), BuildingBlock: AJUNOK_clean_linker_0, # of connection points: 2
#     Edge 89, Type (0, 0), BuildingBlock: AJUNOK_clean_linker_0, # of connection points: 2
#     Edge 90, Type (0, 0), BuildingBlock: AJUNOK_clean_linker_0, # of connection points: 2
#     Edge 91, Type (0, 0), BuildingBlock: AJUNOK_clean_linker_0, # of connection points: 2
#     Edge 92, Type (0, 0), BuildingBlock: AJUNOK_clean_linker_0, # of connection points: 2
#     Edge 93, Type (0, 0), BuildingBlock: AJUNOK_clean_linker_0, # of connection points: 2
#     Edge 94, Type (0, 0), BuildingBlock: AJUNOK_clean_linker_0, # of connection points: 2
#     Edge 95, Type (0, 0), BuildingBlock: AJUNOK_clean_linker_0, # of connection points: 2
#     Edge 96, Type (0, 0), BuildingBlock: AJUNOK_clean_linker_0, # of connection points: 2
#     Edge 97, Type (0, 0), BuildingBlock: AJUNOK_clean_linker_0, # of connection points: 2
#     Edge 98, Type (0, 0), BuildingBlock: AJUNOK_clean_linker_0, # of connection points: 2
#     Edge 99, Type (0, 0), BuildingBlock: AJUNOK_clean_linker_0, # of connection points: 2
#     Edge 100, Type (0, 0), BuildingBlock: AJUNOK_clean_linker_0, # of connection points: 2
#     Edge 101, Type (0, 0), BuildingBlock: AJUNOK_clean_linker_0, # of connection points: 2
#     Edge 102, Type (0, 0), BuildingBlock: AJUNOK_clean_linker_0, # of connection points: 2
#     Edge 103, Type (0, 0), BuildingBlock: AJUNOK_clean_linker_0, # of connection points: 2
#     Edge 104, Type (0, 0), BuildingBlock: AJUNOK_clean_linker_0, # of connection points: 2
#     Edge 105, Type (0, 0), BuildingBlock: AJUNOK_clean_linker_0, # of connection points: 2
#     Edge 106, Type (0, 0), BuildingBlock: AJUNOK_clean_linker_0, # of connection points: 2
#     Edge 107, Type (0, 0), BuildingBlock: AJUNOK_clean_linker_0, # of connection points: 2
#     Edge 108, Type (0, 0), BuildingBlock: AJUNOK_clean_linker_0, # of connection points: 2
#     Edge 109, Type (0, 0), BuildingBlock: AJUNOK_clean_linker_0, # of connection points: 2
#     Edge 110, Type (0, 0), BuildingBlock: AJUNOK_clean_linker_0, # of connection points: 2
#     Edge 111, Type (0, 0), BuildingBlock: AJUNOK_clean_linker_0, # of connection points: 2
#     Edge 112, Type (0, 0), BuildingBlock: AJUNOK_clean_linker_0, # of connection points: 2
#     Edge 113, Type (0, 0), BuildingBlock: AJUNOK_clean_linker_0, # of connection points: 2
#     Edge 114, Type (0, 0), BuildingBlock: AJUNOK_clean_linker_0, # of connection points: 2
#     Edge 115, Type (0, 0), BuildingBlock: AJUNOK_clean_linker_0, # of connection points: 2
#     Edge 116, Type (0, 0), BuildingBlock: AJUNOK_clean_linker_0, # of connection points: 2
#     Edge 117, Type (0, 0), BuildingBlock: AJUNOK_clean_linker_0, # of connection points: 2
#     Edge 118, Type (0, 0), BuildingBlock: AJUNOK_clean_linker_0, # of connection points: 2
#     Edge 119, Type (0, 0), BuildingBlock: AJUNOK_clean_linker_0, # of connection points: 2
#     Edge 120, Type (0, 0), BuildingBlock: AJUNOK_clean_linker_0, # of connection points: 2
#     Edge 121, Type (0, 0), BuildingBlock: AJUNOK_clean_linker_0, # of connection points: 2
#     Edge 122, Type (0, 0), BuildingBlock: AJUNOK_clean_linker_0, # of connection points: 2
#     Edge 123, Type (0, 0), BuildingBlock: AJUNOK_clean_linker_0, # of connection points: 2
#     Edge 124, Type (0, 0), BuildingBlock: AJUNOK_clean_linker_0, # of connection points: 2
#     Edge 125, Type (0, 0), BuildingBlock: AJUNOK_clean_linker_0, # of connection points: 2
#     Edge 126, Type (0, 0), BuildingBlock: AJUNOK_clean_linker_0, # of connection points: 2
#     Edge 127, Type (0, 0), BuildingBlock: AJUNOK_clean_linker_0, # of connection points: 2
#     Edge 128, Type (0, 0), BuildingBlock: AJUNOK_clean_linker_0, # of connection points: 2
#     Edge 129, Type (0, 0), BuildingBlock: AJUNOK_clean_linker_0, # of connection points: 2
#     Edge 130, Type (0, 0), BuildingBlock: AJUNOK_clean_linker_0, # of connection points: 2
#     Edge 131, Type (0, 0), BuildingBlock: AJUNOK_clean_linker_0, # of connection points: 2
#     Edge 132, Type (0, 0), BuildingBlock: AJUNOK_clean_linker_0, # of connection points: 2
#     Edge 133, Type (0, 0), BuildingBlock: AJUNOK_clean_linker_0, # of connection points: 2
#     Edge 134, Type (0, 0), BuildingBlock: AJUNOK_clean_linker_0, # of connection points: 2
#     Edge 135, Type (0, 0), BuildingBlock: AJUNOK_clean_linker_0, # of connection points: 2
#     Edge 136, Type (0, 0), BuildingBlock: AJUNOK_clean_linker_0, # of connection points: 2
#     Edge 137, Type (0, 0), BuildingBlock: AJUNOK_clean_linker_0, # of connection points: 2
#     Edge 138, Type (0, 0), BuildingBlock: AJUNOK_clean_linker_0, # of connection points: 2
#     Edge 139, Type (0, 0), BuildingBlock: AJUNOK_clean_linker_0, # of connection points: 2
#     Edge 140, Type (0, 0), BuildingBlock: AJUNOK_clean_linker_0, # of connection points: 2
#     Edge 141, Type (0, 0), BuildingBlock: AJUNOK_clean_linker_0, # of connection points: 2
#     Edge 142, Type (0, 0), BuildingBlock: AJUNOK_clean_linker_0, # of connection points: 2
#     Edge 143, Type (0, 0), BuildingBlock: AJUNOK_clean_linker_0, # of connection points: 2
# Relax obj value: 0.287
# Max RMSD: 0.265
# Mean RMSD: 0.265
data_MOF--net-sop--node1-NUHQUE_clean_sbu_2--edge1-AJUNOK_clean_linker_0
_symmetry_space_group_name_H-M    P1
_symmetry_Int_Tables_number       1
_symmetry_cell_setting            triclinic
loop_
_symmetry_equiv_pos_as_xyz
'x, y, z'
_cell_length_a     93.907087
_cell_length_b     19.522111
_cell_length_c     47.468469
_cell_angle_alpha  89.522656
_cell_angle_beta   89.820528
_cell_angle_gamma 89.580071
loop_
_atom_site_label
_atom_site_type_symbol
_atom_site_fract_x
_atom_site_fract_y
_atom_site_fract_z
_atom_type_partial_charge
O0 O 0.14 0.33857 0.11132 0.0
Tb1 Tb 0.12353 0.40932 0.12438 0.0
Eu2 Eu 0.09167 0.47268 0.09958 0.0
C3 C 0.13985 0.31986 0.08476 0.0
O4 O 0.13178 0.3544 0.06702 0.0
C5 C 0.09868 0.31697 0.1233 0.0
O6 O 0.08638 0.55959 0.13024 0.0
C7 C 0.073 0.47623 0.05846 0.0
C8 C 0.09652 0.58893 0.14511 0.0
O9 O 0.10927 0.56151 0.14526 0.0
C10 C 0.12396 0.55611 0.09417 0.0
C11 C 0.06126 0.48115 1.03643 0.0
C12 C 0.06306 0.46512 1.00722 0.0
C13 C 0.05189 0.47733 0.98699 0.0
C14 C 0.03899 0.50645 0.99763 0.0
C15 C 0.03661 0.51791 1.02657 0.0
C16 C 0.04784 0.50547 1.04541 0.0
O17 O 0.10986 0.33089 0.10787 0.0
O18 O 0.08954 0.36902 0.12587 0.0
O19 O 0.12705 0.38981 0.16918 0.0
O20 O 0.10739 0.43482 0.15564 0.0
C21 C 0.1145 0.41216 0.1771 0.0
O22 O 0.11014 0.54903 0.08775 0.0
O23 O 0.1311 0.50738 0.10767 0.0
O24 O 0.07049 0.49625 0.08443 0.0
O25 O 0.086 0.45182 0.05457 0.0
H26 H 0.07309 0.44288 1.00079 0.0
H27 H 0.03062 0.52222 0.9834 0.0
H28 H 0.04603 0.51509 0.06758 0.0
O29 O 0.14628 1.01329 0.11222 0.0
Tb30 Tb 0.15836 0.94285 0.13869 0.0
Eu31 Eu 0.18273 0.93532 0.10256 0.0
C32 C 0.15144 1.03382 0.08783 0.0
O33 O 0.16268 1.00278 0.07757 0.0
C34 C 0.17131 0.07991 0.14188 0.0
O35 O 0.1943 0.85189 0.12826 0.0
C36 C 0.20041 0.95743 0.05976 0.0
C37 C 0.18716 0.80254 0.141 0.0
O38 O 0.1733 0.80569 0.14195 0.0
C39 C 0.15392 0.82399 0.09972 0.0
C40 C 0.21116 0.93019 1.03854 0.0
C41 C 0.21011 0.94553 1.00912 0.0
C42 C 0.22103 0.92605 0.98947 0.0
C43 C 0.23317 0.89157 1.00077 0.0
C44 C 0.23485 0.87899 1.02995 0.0
C45 C 0.22369 0.8974 0.04832 0.0
O46 O 0.15925 1.0495 0.14714 0.0
O47 O 0.1814 1.04526 0.12703 0.0
O48 O 0.15737 0.91973 0.18301 0.0
O49 O 0.17794 0.93222 0.16211 0.0
C50 C 0.17137 0.92011 0.18618 0.0
O51 O 0.16635 0.84696 0.08888 0.0
O52 O 0.14826 0.85528 0.12129 0.0
O53 O 0.20399 0.95545 0.08646 0.0
O54 O 0.18664 0.9492 0.05638 0.0
H55 H 0.20105 0.97534 1.00204 0.0
H56 H 0.24168 0.87541 0.98693 0.0
H57 H 0.22498 0.88723 0.07065 0.0
O58 O 0.1122 1.04894 0.27628 0.0
Tb59 Tb 0.12676 1.00293 0.24572 0.0
Eu60 Eu 0.09425 0.94865 0.25077 0.0
C61 C 0.11409 0.10439 0.29191 0.0
O62 O 0.10396 0.12007 0.30994 0.0
C63 C 0.10545 1.07608 0.20479 0.0
O64 O 0.08676 0.86747 0.22074 0.0
C65 C 0.07497 0.96457 0.29112 0.0
C66 C 0.09437 0.85703 0.19788 0.0
O67 O 0.10468 0.90006 0.19203 0.0
C68 C 0.12236 0.84314 0.24801 0.0
C69 C 0.06429 0.93897 0.31315 0.0
C70 C 0.06582 0.95247 0.34259 0.0
C71 C 0.05504 0.93435 0.36282 0.0
C72 C 0.04254 0.90302 0.35208 0.0
C73 C 0.0402 0.89337 0.32292 0.0
C74 C 0.05131 0.91005 0.30402 0.0
O75 O 0.11881 1.05587 0.2081 0.0
O76 O 0.09516 1.0476 0.22081 0.0
O77 O 0.14392 0.99785 0.27672 0.0
O78 O 0.14765 1.04626 0.23769 0.0
C79 C 0.15359 1.02785 0.2614 0.0
O80 O 0.11003 0.85693 0.26093 0.0
O81 O 0.12881 0.89374 0.23475 0.0
O82 O 0.07215 0.95422 0.26437 0.0
O83 O 0.08879 0.96734 0.29593 0.0
H84 H 0.07519 0.97965 0.34928 0.0
H85 H 0.03441 0.88527 0.3665 0.0
H86 H 0.04954 0.90319 0.28169 0.0
O87 O 0.16476 0.34944 0.28475 0.0
Tb88 Tb 0.14997 0.40139 0.25624 0.0
Eu89 Eu 0.18219 0.46518 0.25164 0.0
C90 C 0.1633 0.28781 0.29656 0.0
O91 O 0.17334 0.26705 0.31392 0.0
C92 C 0.16978 0.3399 0.20933 0.0
O93 O 0.19359 0.54349 0.22484 0.0
C94 C 0.19888 0.44479 0.2957 0.0
C95 C 0.19155 0.54741 0.19752 0.0
O96 O 0.18415 0.49911 0.18536 0.0
C97 C 0.15275 0.56676 0.25265 0.0
C98 C 0.20957 0.47242 0.31669 0.0
C99 C 0.20854 0.4573 0.3461 0.0
C100 C 0.21943 0.47647 0.36557 0.0
C101 C 0.23157 0.51 0.35413 0.0
C102 C 0.23338 0.52119 0.32491 0.0
C103 C 0.22212 0.50431 0.30671 0.0
O104 O 0.15669 0.36163 0.21496 0.0
O105 O 0.18069 0.36667 0.2234 0.0
O106 O 0.13085 0.40006 0.28306 0.0
O107 O 0.13177 0.33954 0.24696 0.0
C108 C 0.12356 0.35833 0.26764 0.0
O109 O 0.16691 0.56072 0.25378 0.0
O110 O 0.14471 0.51164 0.25187 0.0
O111 O 0.20295 0.44218 0.26922 0.0
O112 O 0.18505 0.45628 0.2982 0.0
H113 H 0.19953 0.42777 0.35326 0.0
H114 H 0.24003 0.52629 0.36786 0.0
H115 H 0.22335 0.51451 0.28437 0.0
O116 O 0.8828 0.80868 0.99896 0.0
Tb117 Tb 0.90023 0.74093 0.98879 0.0
Eu118 Eu 0.9322 0.69327 0.99967 0.0
C119 C 0.88402 0.83972 1.02327 0.0
O120 O 0.89315 0.81447 1.0416 0.0
C121 C 0.92265 0.84492 0.9712 0.0
O122 O 0.94122 0.60206 0.97592 0.0
C123 C 0.94891 0.71292 1.04345 0.0
C124 C 0.94271 0.5986 0.94836 0.0
O125 O 0.9419 0.65519 0.9333 0.0
C126 C 0.90237 0.59578 1.01213 0.0
C127 C 0.95914 0.6816 0.06483 0.0
C128 C 0.9586 0.69798 0.09421 0.0
C129 C 0.96952 0.67567 0.11332 0.0
C130 C 0.98067 0.63469 0.10198 0.0
C131 C 0.98205 0.62227 0.0729 0.0
C132 C 0.97108 0.64436 0.05485 0.0
O133 O 0.91197 0.83697 0.98879 0.0
O134 O 0.9316 0.79152 0.96902 0.0
O135 O 0.89456 0.72071 0.9453 0.0
O136 O 0.91499 0.68908 0.96118 0.0
C137 C 0.90671 0.69044 0.93952 0.0
O138 O 0.91618 0.6003 1.0051 0.0
O139 O 0.89486 0.65262 1.01466 0.0
O140 O 0.95307 0.71208 1.01694 0.0
O141 O 0.93495 0.70656 1.04597 0.0
H142 H 0.95003 0.73028 0.10185 0.0
H143 H 0.98861 0.61216 0.11571 0.0
H144 H 0.97229 0.63559 1.03247 0.0
O145 O 0.87729 0.14428 0.98114 0.0
Tb146 Tb 0.86524 0.21816 0.95615 0.0
Eu147 Eu 0.8422 0.21894 0.99404 0.0
C148 C 0.87304 0.12608 1.00647 0.0
O149 O 0.86277 0.16042 1.01858 0.0
C150 C 0.85372 0.07932 0.95101 0.0
O151 O 0.82974 0.30245 0.97009 0.0
C152 C 0.82501 0.19407 1.03755 0.0
C153 C 0.83624 0.35441 0.95778 0.0
O154 O 0.85011 0.35519 0.95659 0.0
C155 C 0.87086 0.3322 0.99651 0.0
C156 C 0.8142 0.22264 0.05844 0.0
C157 C 0.81488 0.20735 0.08801 0.0
C158 C 0.80387 0.22856 0.10711 0.0
C159 C 0.79248 0.2679 0.09549 0.0
C160 C 0.79095 0.27925 0.06623 0.0
C161 C 0.80197 0.25735 0.04817 0.0
O162 O 0.86531 0.11311 0.94504 0.0
O163 O 0.84388 0.11025 0.96797 0.0
O164 O 0.86465 0.24462 0.91214 0.0
O165 O 0.8449 0.22646 0.93521 0.0
C166 C 0.8506 0.24103 0.91052 0.0
O167 O 0.85881 0.30666 1.00816 0.0
O168 O 0.87585 0.30444 0.97352 0.0
O169 O 0.82132 0.19326 1.01093 0.0
O170 O 0.83869 0.2055 1.0404 0.0
H171 H 0.82372 0.17693 0.09586 0.0
H172 H 0.78439 0.28907 0.10913 0.0
H173 H 0.80086 0.26681 1.02576 0.0
O174 O 0.91079 0.14358 0.81477 0.0
Tb175 Tb 0.89628 0.1661 0.84897 0.0
Eu176 Eu 0.92864 0.22541 0.84713 0.0
C177 C 0.90882 0.09322 0.79696 0.0
O178 O 0.91763 0.08609 0.77563 0.0
C179 C 0.91736 0.08942 0.89026 0.0
O180 O 0.93786 0.31455 0.87131 0.0
C181 C 0.94693 0.20404 0.8053 0.0
C182 C 0.93344 0.33203 0.89662 0.0
O183 O 0.92438 0.2923 0.90997 0.0
C184 C 0.89934 0.32308 0.84931 0.0
C185 C 0.95792 0.23 0.78417 0.0
C186 C 0.95661 0.21888 0.75452 0.0
C187 C 0.96782 0.23593 0.73525 0.0
C188 C 0.98058 0.26216 0.74676 0.0
C189 C 0.9822 0.27421 0.77592 0.0
C190 C 0.97078 0.25828 0.79414 0.0
O191 O 0.90393 0.10074 0.88332 0.0
O192 O 0.92776 0.12778 0.87844 0.0
O193 O 0.8784 0.18018 0.82021 0.0
O194 O 0.87639 0.10983 0.8535 0.0
C195 C 0.86953 0.13913 0.83275 0.0
O196 O 0.91171 0.31161 0.83618 0.0
O197 O 0.89373 0.2718 0.86356 0.0
O198 O 0.9502 0.20588 0.83218 0.0
O199 O 0.9332 0.2125 0.80121 0.0
H200 H 0.94693 0.19643 0.74653 0.0
H201 H 0.98959 0.27123 0.73299 0.0
H202 H 0.97207 0.26703 0.81649 0.0
O203 O 0.87297 0.81392 0.80312 0.0
Tb204 Tb 0.87042 0.7324 0.83412 0.0
Eu205 Eu 0.83702 0.68634 0.84852 0.0
C206 C 0.86772 0.87561 0.80754 0.0
O207 O 0.85672 0.88281 0.82436 0.0
C208 C 0.8521 0.81916 0.8812 0.0
O209 O 0.82454 0.61217 0.8754 0.0
C210 C 0.8229 0.70385 0.80094 0.0
C211 C 0.8271 0.60868 0.90258 0.0
O212 O 0.83491 0.65677 0.91384 0.0
C213 C 0.86319 0.58085 0.83602 0.0
C214 C 0.81257 0.6761 0.77932 0.0
C215 C 0.81437 0.68851 0.74981 0.0
C216 C 0.80368 0.67014 0.72996 0.0
C217 C 0.79094 0.64103 0.7405 0.0
C218 C 0.78874 0.62906 0.76959 0.0
C219 C 0.7997 0.64595 0.78853 0.0
O220 O 0.8646 0.79934 0.87052 0.0
O221 O 0.84023 0.78654 0.87413 0.0
O222 O 0.89317 0.72903 0.82414 0.0
O223 O 0.88516 0.67724 0.86054 0.0
C224 C 0.89625 0.68651 0.84447 0.0
O225 O 0.85288 0.59549 0.85399 0.0
O226 O 0.86619 0.62945 0.81757 0.0
O227 O 0.81774 0.715 0.82632 0.0
O228 O 0.83644 0.68494 0.80155 0.0
H229 H 0.82398 0.71317 0.74235 0.0
H230 H 0.78242 0.62999 0.72594 0.0
H231 H 0.798 0.6369 0.81084 0.0
O232 O 0.14145 0.8609 0.62723 0.0
Tb233 Tb 0.12286 0.92447 0.63652 0.0
Eu234 Eu 0.09285 0.96353 0.60224 0.0
C235 C 0.14231 0.84098 0.60078 0.0
O236 O 0.13298 0.86631 0.58285 0.0
C237 C 0.09995 0.81587 0.63727 0.0
O238 O 0.08496 1.04023 0.63358 0.0
C239 C 0.0748 0.95598 0.55973 0.0
C240 C 0.08022 0.10093 0.62588 0.0
O241 O 0.07734 0.11329 0.59926 0.0
C242 C 0.12293 1.06657 0.60339 0.0
C243 C 0.06485 0.98712 0.53767 0.0
C244 C 0.06612 0.97247 0.50825 0.0
C245 C 0.05554 0.99433 0.4882 0.0
C246 C 0.04347 1.03006 0.4992 0.0
C247 C 0.04161 1.04255 0.52832 0.0
C248 C 0.0525 1.02225 0.54694 0.0
O249 O 0.11289 0.82672 0.62799 0.0
O250 O 0.09032 0.86467 0.63167 0.0
O251 O 0.12444 0.93688 0.68191 0.0
O252 O 0.10452 0.95743 0.66133 0.0
C253 C 0.1111 0.95594 0.68539 0.0
O254 O 0.10928 1.05557 0.5959 0.0
O255 O 0.13034 1.01803 0.61622 0.0
O256 O 0.07129 0.96387 0.58633 0.0
O257 O 0.08872 0.9507 0.55617 0.0
H258 H 0.07502 0.94126 0.50146 0.0
H259 H 0.03525 1.04879 0.48515 0.0
H260 H 0.05086 1.03037 0.56926 0.0
O261 O 0.16999 0.53962 0.56598 0.0
Tb262 Tb 0.15231 0.50717 0.59266 0.0
Eu263 Eu 0.18263 0.43975 0.60348 0.0
C264 C 0.17471 0.60318 0.56342 0.0
O265 O 0.18652 0.61383 0.54921 0.0
C266 C 0.16961 0.57549 0.64104 0.0
O267 O 0.19246 0.35869 0.63131 0.0
C268 C 0.20011 0.453 0.56008 0.0
C269 C 0.18611 0.34004 0.6548 0.0
O270 O 0.17561 0.37779 0.66463 0.0
C271 C 0.15295 0.3428 0.5993 0.0
C272 C 0.21102 0.42442 0.53972 0.0
C273 C 0.20981 0.4369 0.51024 0.0
C274 C 0.22057 0.41587 0.4907 0.0
C275 C 0.23297 0.38393 0.50228 0.0
C276 C 0.23492 0.37514 0.53169 0.0
C277 C 0.22363 0.39338 0.5499 0.0
O278 O 0.15677 0.55642 0.63306 0.0
O279 O 0.18093 0.54151 0.63074 0.0
O280 O 0.13332 0.51023 0.56553 0.0
O281 O 0.13662 0.5876 0.59489 0.0
C282 C 0.1277 0.56521 0.57628 0.0
O283 O 0.16712 0.34653 0.59972 0.0
O284 O 0.1453 0.39992 0.59935 0.0
O285 O 0.20379 0.45946 0.58662 0.0
O286 O 0.18649 0.43931 0.55721 0.0
H287 H 0.20067 0.46592 0.50302 0.0
H288 H 0.24145 0.36691 0.48853 0.0
H289 H 0.22483 0.38476 0.57234 0.0
O290 O 0.13992 0.56496 0.73456 0.0
Tb291 Tb 0.12263 0.50247 0.71917 0.0
Eu292 Eu 0.0912 0.42909 0.7479 0.0
C293 C 0.13873 0.59081 0.75997 0.0
O294 O 0.12813 0.57144 0.7762 0.0
C295 C 0.09575 0.58175 0.72245 0.0
O296 O 0.08345 0.35659 0.71468 0.0
C297 C 0.07305 0.42116 0.79008 0.0
C298 C 0.0926 0.33304 0.69615 0.0
O299 O 0.10565 0.35604 0.69628 0.0
C300 C 0.12405 0.34754 0.74429 0.0
C301 C 0.06134 0.41388 0.81213 0.0
C302 C 0.06294 0.42952 0.84133 0.0
C303 C 0.05181 0.41595 0.86155 0.0
C304 C 0.03899 0.38716 0.85073 0.0
C305 C 0.03678 0.37638 0.82169 0.0
C306 C 0.04812 0.3885 0.80305 0.0
O307 O 0.10695 0.56943 0.73812 0.0
O308 O 0.08728 0.52828 0.72025 0.0
O309 O 0.12691 0.5469 0.67774 0.0
O310 O 0.10857 0.48445 0.68353 0.0
C311 C 0.11541 0.52342 0.66603 0.0
O312 O 0.11095 0.35458 0.75566 0.0
O313 O 0.12985 0.39689 0.72869 0.0
O314 O 0.07144 0.39236 0.76541 0.0
O315 O 0.08495 0.45636 0.79229 0.0
H316 H 0.0728 0.45255 0.84777 0.0
H317 H 0.0304 0.37307 0.86472 0.0
H318 H 0.04661 0.377 0.78097 0.0
O319 O 0.16663 0.89338 0.78647 0.0
Tb320 Tb 0.15111 0.9215 0.75451 0.0
Eu321 Eu 0.1835 0.96769 0.75341 0.0
C322 C 0.17023 0.82998 0.79344 0.0
O323 O 0.1807 0.81992 0.81131 0.0
C324 C 0.16999 0.83309 0.71387 0.0
O325 O 0.19215 1.05012 0.72496 0.0
C326 C 0.20244 0.95224 0.79431 0.0
C327 C 0.18641 1.06443 0.70042 0.0
O328 O 0.17681 1.02322 0.68999 0.0
C329 C 0.15603 1.07655 0.74877 0.0
C330 C 0.21316 0.98047 0.81499 0.0
C331 C 0.21178 0.96729 0.84446 0.0
C332 C 0.22228 0.98841 0.8643 0.0
C333 C 0.23448 1.02219 0.85312 0.0
C334 C 0.23652 1.03325 0.82382 0.0
C335 C 0.22567 1.01284 0.8052 0.0
O336 O 0.15691 0.85372 0.71993 0.0
O337 O 0.18115 0.86556 0.72562 0.0
O338 O 0.1335 0.94864 0.78276 0.0
O339 O 0.1309 0.86833 0.75434 0.0
C340 C 0.12433 0.90511 0.77318 0.0
O341 O 0.16827 1.06228 0.76179 0.0
O342 O 0.14932 1.02555 0.73692 0.0
O343 O 0.20551 0.95294 0.76724 0.0
O344 O 0.18872 0.95959 0.79898 0.0
H345 H 0.20275 0.93772 0.85149 0.0
H346 H 0.24274 1.03897 0.8672 0.0
H347 H 0.22711 1.02139 0.78279 0.0
O348 O 0.88596 0.30671 0.46811 0.0
Tb349 Tb 0.90373 0.2398 0.45716 0.0
Eu350 Eu 0.93245 0.17844 0.4959 0.0
C351 C 0.88525 0.32637 0.49455 0.0
O352 O 0.89357 0.29588 0.51308 0.0
C353 C 0.92895 0.32778 0.466 0.0
O354 O 0.93884 0.08663 0.47082 0.0
C355 C 0.94974 0.17565 0.53932 0.0
C356 C 0.94643 0.08729 0.44761 0.0
O357 O 0.95042 0.14567 0.43627 0.0
C358 C 0.90093 0.09154 0.48679 0.0
C359 C 0.96107 0.17171 0.5622 0.0
C360 C 0.95856 0.18609 0.59124 0.0
C361 C 0.96972 0.1798 0.61157 0.0
C362 C 0.9834 0.15821 0.60221 0.0
C363 C 0.9862 0.14333 0.57352 0.0
C364 C 0.97495 0.15111 0.55412 0.0
O365 O 0.91661 0.31599 0.47771 0.0
O366 O 0.93765 0.27404 0.46656 0.0
O367 O 0.90173 0.2689 0.413 0.0
O368 O 0.9202 0.21259 0.42641 0.0
C369 C 0.91402 0.24334 0.4053 0.0
O370 O 0.91267 0.10402 0.50216 0.0
O371 O 0.89622 0.13649 0.46791 0.0
O372 O 0.95275 0.15216 0.51412 0.0
O373 O 0.93681 0.20262 0.54138 0.0
H374 H 0.94805 0.20232 0.598 0.0
H375 H 0.99182 0.15192 0.61757 0.0
H376 H 0.97714 0.14127 0.5321 0.0
O377 O 0.85794 0.63461 0.52572 0.0
Tb378 Tb 0.87328 0.67167 0.49505 0.0
Eu379 Eu 0.84175 0.71461 0.49508 0.0
C380 C 0.85492 0.56967 0.53079 0.0
O381 O 0.84435 0.55526 0.54798 0.0
C382 C 0.85584 0.58034 0.45457 0.0
O383 O 0.83332 0.80064 0.46792 0.0
C384 C 0.82282 0.69662 0.5359 0.0
C385 C 0.83746 0.81069 0.4418 0.0
O386 O 0.84519 0.76381 0.42909 0.0
C387 C 0.86805 0.82408 0.48949 0.0
C388 C 0.81203 0.72294 0.55715 0.0
C389 C 0.81387 0.71055 0.58655 0.0
C390 C 0.80311 0.72791 0.60647 0.0
C391 C 0.79026 0.75713 0.59632 0.0
C392 C 0.78791 0.76858 0.56714 0.0
C393 C 0.79898 0.75217 0.54801 0.0
O394 O 0.86882 0.59955 0.46162 0.0
O395 O 0.84452 0.61406 0.46581 0.0
O396 O 0.88812 0.71243 0.52592 0.0
O397 O 0.89519 0.63735 0.49815 0.0
C398 C 0.89952 0.68165 0.5166 0.0
O399 O 0.85676 0.80804 0.5051 0.0
O400 O 0.8736 0.77352 0.47506 0.0
O401 O 0.81975 0.69967 0.50888 0.0
O402 O 0.83652 0.70291 0.54058 0.0
H403 H 0.82355 0.68594 0.59392 0.0
H404 H 0.78196 0.77013 0.6113 0.0
H405 H 0.79716 0.7596 0.52567 0.0
O406 O 0.8867 0.6101 0.36142 0.0
Tb407 Tb 0.90465 0.67442 0.3728 0.0
Eu408 Eu 0.93624 0.72245 0.35299 0.0
C409 C 0.88824 0.57476 0.33799 0.0
O410 O 0.89978 0.58501 0.32283 0.0
C411 C 0.92913 0.57528 0.38793 0.0
O412 O 0.94724 0.81225 0.37201 0.0
C413 C 0.95199 0.70081 0.30771 0.0
C414 C 0.95 0.81801 0.39887 0.0
O415 O 0.94823 0.76478 0.41557 0.0
C416 C 0.90572 0.81755 0.34577 0.0
C417 C 0.96215 0.733 0.28643 0.0
C418 C 0.96107 0.72026 0.25692 0.0
C419 C 0.97167 0.74319 0.23734 0.0
C420 C 0.98324 0.78113 0.24855 0.0
C421 C 0.98518 0.79037 0.27779 0.0
C422 C 0.97441 0.76724 0.29624 0.0
O423 O 0.91687 0.5788 0.37466 0.0
O424 O 0.93777 0.62926 0.38566 0.0
O425 O 0.89868 0.70271 0.41564 0.0
O426 O 0.9196 0.72578 0.40033 0.0
C427 C 0.91102 0.72993 0.42177 0.0
O428 O 0.91974 0.81556 0.35101 0.0
O429 O 0.89886 0.75915 0.34486 0.0
O430 O 0.95652 0.69772 0.33384 0.0
O431 O 0.93806 0.7106 0.30637 0.0
H432 H 0.95223 0.69012 0.24948 0.0
H433 H 0.99094 0.80462 0.23466 0.0
H434 H 0.97596 0.77316 0.31867 0.0
O435 O 0.85604 0.27935 0.31061 0.0
Tb436 Tb 0.87315 0.24214 0.33764 0.0
Eu437 Eu 0.84253 0.18585 0.34299 0.0
C438 C 0.85254 0.34457 0.30661 0.0
O439 O 0.84095 0.35909 0.29231 0.0
C440 C 0.8556 0.32016 0.38241 0.0
O441 O 0.83336 0.10459 0.37146 0.0
C442 C 0.82435 0.20065 0.30065 0.0
C443 C 0.84038 0.08418 0.39394 0.0
O444 O 0.8514 0.11975 0.40224 0.0
C445 C 0.87151 0.08427 0.34518 0.0
C446 C 0.81339 0.1714 0.28061 0.0
C447 C 0.81405 0.18439 0.25093 0.0
C448 C 0.80307 0.16278 0.23219 0.0
C449 C 0.79152 0.1261 0.24454 0.0
C450 C 0.78989 0.11792 0.27402 0.0
C451 C 0.80115 0.13877 0.29155 0.0
O452 O 0.86848 0.29848 0.37569 0.0
O453 O 0.84435 0.28811 0.37097 0.0
O454 O 0.89042 0.22028 0.3079 0.0
O455 O 0.89191 0.30466 0.33507 0.0
C456 C 0.89876 0.26909 0.31612 0.0
O457 O 0.85818 0.09192 0.3359 0.0
O458 O 0.87802 0.13931 0.3539 0.0
O459 O 0.82101 0.20455 0.32752 0.0
O460 O 0.83804 0.18936 0.29684 0.0
H461 H 0.82295 0.21333 0.24267 0.0
H462 H 0.78345 0.10413 0.23137 0.0
H463 H 0.80025 0.13028 0.31406 0.0
O464 O 0.63823 0.33405 0.62197 0.0
Tb465 Tb 0.62068 0.39879 0.63547 0.0
Eu466 Eu 0.58972 0.46275 0.59967 0.0
C467 C 0.63817 0.31615 0.59536 0.0
O468 O 0.6294 0.34809 0.5781 0.0
C469 C 0.59525 0.3133 0.6296 0.0
O470 O 0.57897 0.55193 0.62112 0.0
C471 C 0.57459 0.44174 0.5535 0.0
C472 C 0.58443 0.57525 0.64456 0.0
O473 O 0.59545 0.54347 0.65557 0.0
C474 C 0.6215 0.55065 0.60763 0.0
C475 C 0.5643 0.4725 0.53212 0.0
C476 C 0.56486 0.45606 0.50277 0.0
C477 C 0.55385 0.47747 0.48367 0.0
C478 C 0.54254 0.51749 0.49509 0.0
C479 C 0.54114 0.52965 0.52423 0.0
C480 C 0.55225 0.50875 0.54216 0.0
O481 O 0.60721 0.32314 0.61614 0.0
O482 O 0.58689 0.36823 0.63049 0.0
O483 O 0.62437 0.3637 0.67844 0.0
O484 O 0.60508 0.41774 0.66884 0.0
C485 C 0.61212 0.38495 0.68822 0.0
O486 O 0.60893 0.54072 0.59463 0.0
O487 O 0.62723 0.5038 0.62462 0.0
O488 O 0.56986 0.43747 0.57945 0.0
O489 O 0.58835 0.45422 0.55275 0.0
H490 H 0.57353 0.42437 0.49515 0.0
H491 H 0.5344 0.53824 0.48143 0.0
H492 H 0.55123 0.51925 0.56446 0.0
O493 O 0.66098 1.00234 0.56251 0.0
Tb494 Tb 0.64683 0.9741 0.59686 0.0
Eu495 Eu 0.67936 0.93073 0.59419 0.0
C496 C 0.66428 1.06586 0.55549 0.0
O497 O 0.67384 1.07636 0.53572 0.0
C498 C 0.66614 1.06561 0.63463 0.0
O499 O 0.68828 0.84601 0.62153 0.0
C500 C 0.69791 0.94794 0.55264 0.0
C501 C 0.6828 0.83044 0.64624 0.0
O502 O 0.67357 0.87235 0.65795 0.0
C503 C 0.65283 0.82108 0.60153 0.0
C504 C 0.70879 0.92156 0.53153 0.0
C505 C 0.7073 0.935 0.50211 0.0
C506 C 0.71833 0.91849 0.48261 0.0
C507 C 0.73103 0.88847 0.49318 0.0
C508 C 0.73289 0.87446 0.52231 0.0
C509 C 0.72167 0.89135 0.54103 0.0
O510 O 0.65304 1.04521 0.62947 0.0
O511 O 0.6772 1.03248 0.62239 0.0
O512 O 0.6288 0.94212 0.5713 0.0
O513 O 0.62591 1.02204 0.60003 0.0
C514 C 0.61927 0.98219 0.58254 0.0
O515 O 0.66408 0.83735 0.58573 0.0
O516 O 0.64686 0.87112 0.61569 0.0
O517 O 0.70115 0.94624 0.57959 0.0
O518 O 0.68419 0.94063 0.54837 0.0
H519 H 0.69774 0.96023 0.49446 0.0
H520 H 0.73957 0.87646 0.47859 0.0
H521 H 0.72324 0.88359 0.56342 0.0
O522 O 0.63894 1.03027 0.73087 0.0
Tb523 Tb 0.62015 0.96965 0.72201 0.0
Eu524 Eu 0.58879 0.92567 0.74528 0.0
C525 C 0.63877 1.0604 0.75564 0.0
O526 O 0.62826 1.04571 0.77297 0.0
C527 C 0.59631 1.07362 0.7115 0.0
O528 O 0.57745 0.8394 0.72399 0.0
C529 C 0.57382 0.94804 0.79164 0.0
C530 C 0.57461 0.83733 0.69694 0.0
O531 O 0.57534 0.89378 0.6818 0.0
C532 C 0.61903 0.82617 0.7492 0.0
C533 C 0.56345 0.92039 0.81365 0.0
C534 C 0.56518 0.93099 0.84323 0.0
C535 C 0.55418 0.91391 0.86304 0.0
C536 C 0.54112 0.88923 0.85206 0.0
C537 C 0.53904 0.87918 0.8229 0.0
C538 C 0.55043 0.8927 0.80436 0.0
O539 O 0.60872 1.0672 0.72392 0.0
O540 O 0.58736 1.02095 0.71377 0.0
O541 O 0.62317 0.94772 0.67744 0.0
O542 O 0.60371 0.91984 0.69765 0.0
C543 C 0.61061 0.91987 0.67391 0.0
O544 O 0.60483 0.83053 0.74648 0.0
O545 O 0.62648 0.88292 0.74824 0.0
O546 O 0.56899 0.95233 0.76575 0.0
O547 O 0.58764 0.93478 0.79225 0.0
H548 H 0.57499 0.95307 0.85075 0.0
H549 H 0.53225 0.8801 0.8662 0.0
H550 H 0.54888 0.88348 0.78211 0.0
O551 O 0.66909 0.36018 0.77937 0.0
Tb552 Tb 0.65074 0.39265 0.75459 0.0
Eu553 Eu 0.68114 0.45696 0.74524 0.0
C554 C 0.67352 0.29615 0.78288 0.0
O555 O 0.68571 0.28495 0.79564 0.0
C556 C 0.66785 0.32498 0.70644 0.0
O557 O 0.68957 0.53906 0.71624 0.0
C558 C 0.69947 0.44441 0.78726 0.0
C559 C 0.68264 0.55542 0.69312 0.0
O560 O 0.67211 0.51642 0.68492 0.0
C561 C 0.6513 0.5545 0.74814 0.0
C562 C 0.71036 0.4735 0.80729 0.0
C563 C 0.70941 0.46119 0.8369 0.0
C564 C 0.72023 0.48291 0.85595 0.0
C565 C 0.73228 0.51595 0.84386 0.0
C566 C 0.73397 0.52474 0.81443 0.0
C567 C 0.72272 0.50531 0.79663 0.0
O568 O 0.65517 0.34838 0.7136 0.0
O569 O 0.6793 0.35473 0.71789 0.0
O570 O 0.63277 0.39152 0.78431 0.0
O571 O 0.63465 0.31441 0.754 0.0
C572 C 0.62654 0.33781 0.7741 0.0
O573 O 0.66534 0.54933 0.75186 0.0
O574 O 0.64388 0.49821 0.74459 0.0
O575 O 0.70279 0.44021 0.76037 0.0
O576 O 0.68579 0.45553 0.79123 0.0
H577 H 0.70046 0.43199 0.84464 0.0
H578 H 0.74072 0.5339 0.85727 0.0
H579 H 0.72377 0.51378 0.77414 0.0
O580 O 0.38702 0.80189 0.46776 0.0
Tb581 Tb 0.40277 0.72175 0.47467 0.0
Eu582 Eu 0.43457 0.67809 0.49613 0.0
C583 C 0.38531 0.84526 0.48862 0.0
O584 O 0.38922 0.82476 0.51391 0.0
C585 C 0.42613 0.82583 0.46384 0.0
O586 O 0.44291 0.58068 0.47589 0.0
C587 C 0.45156 0.70049 0.53911 0.0
C588 C 0.44822 0.57473 0.45036 0.0
O589 O 0.4509 0.62999 0.43545 0.0
C590 C 0.40337 0.58752 0.50664 0.0
C591 C 0.46202 0.67419 0.56114 0.0
C592 C 0.4606 0.6895 0.59039 0.0
C593 C 0.47149 0.67179 0.61039 0.0
C594 C 0.48407 0.64019 0.59955 0.0
C595 C 0.48616 0.62917 0.57048 0.0
C596 C 0.47488 0.64363 0.55194 0.0
O597 O 0.4145 0.8174 0.47864 0.0
O598 O 0.43529 0.77321 0.46407 0.0
O599 O 0.39972 0.67521 0.4336 0.0
O600 O 0.42015 0.67076 0.45278 0.0
C601 C 0.41279 0.65223 0.43122 0.0
O602 O 0.41749 0.58967 0.5021 0.0
O603 O 0.39591 0.64496 0.50509 0.0
O604 O 0.45558 0.69513 0.51263 0.0
O605 O 0.43759 0.69604 0.54217 0.0
H606 H 0.45128 0.71791 0.59704 0.0
H607 H 0.4926 0.62525 0.61359 0.0
H608 H 0.47643 0.63296 0.52978 0.0
O609 O 0.37459 0.16363 0.44694 0.0
Tb610 Tb 0.3573 0.23767 0.44493 0.0
Eu611 Eu 0.34348 0.21432 0.50438 0.0
C612 C 0.37878 0.14009 0.47163 0.0
O613 O 0.37553 0.17568 0.4941 0.0
C614 C 0.34624 0.08969 0.45776 0.0
O615 O 0.33565 0.29728 0.47383 0.0
C616 C 0.3252 0.20206 0.54644 0.0
C617 C 0.3335 0.35996 0.48339 0.0
O618 O 0.33432 0.36955 0.5107 0.0
C619 C 0.36811 0.33322 0.49579 0.0
C620 C 0.31444 0.22902 0.56766 0.0
C621 C 0.31628 0.21869 0.59723 0.0
C622 C 0.30541 0.23654 0.61697 0.0
C623 C 0.29243 0.26339 0.60621 0.0
C624 C 0.2902 0.27383 0.57698 0.0
C625 C 0.30133 0.25685 0.55817 0.0
O626 O 0.34515 0.14261 0.44072 0.0
O627 O 0.34793 0.10386 0.48508 0.0
O628 O 0.36119 0.26956 0.40174 0.0
O629 O 0.34013 0.27318 0.41799 0.0
C630 C 0.34782 0.2819 0.39541 0.0
O631 O 0.36171 0.29186 0.51452 0.0
O632 O 0.36615 0.32423 0.46852 0.0
O633 O 0.32175 0.2028 0.51958 0.0
O634 O 0.33904 0.20752 0.55035 0.0
H635 H 0.32612 0.19603 0.60485 0.0
H636 H 0.28375 0.27388 0.62066 0.0
H637 H 0.29963 0.26439 0.53579 0.0
O638 O 0.40944 0.14493 0.30657 0.0
Tb639 Tb 0.39788 0.15577 0.34596 0.0
Eu640 Eu 0.43054 0.21441 0.34725 0.0
C641 C 0.40778 0.09232 0.28962 0.0
O642 O 0.41502 0.09057 0.26593 0.0
C643 C 0.41956 1.06909 0.38381 0.0
O644 O 0.44017 0.30313 0.37088 0.0
C645 C 0.44874 0.18996 0.3057 0.0
C646 C 0.44019 0.30851 0.39849 0.0
O647 O 0.43518 0.2579 0.4139 0.0
C648 C 0.40181 0.3109 0.353 0.0
C649 C 0.45964 0.21491 0.2842 0.0
C650 C 0.45833 0.20059 0.25485 0.0
C651 C 0.46926 0.21802 0.2349 0.0
C652 C 0.48176 0.24898 0.24589 0.0
C653 C 0.4838 0.25924 0.27505 0.0
C654 C 0.4725 0.24396 0.29365 0.0
O655 O 0.40686 1.07149 0.37161 0.0
O656 O 0.42907 0.11932 0.37901 0.0
O657 O 0.38108 0.17895 0.31591 0.0
O658 O 0.37611 0.11843 0.35142 0.0
C659 C 0.37077 0.14859 0.3291 0.0
O660 O 0.41374 0.30192 0.33822 0.0
O661 O 0.39672 0.25677 0.36619 0.0
O662 O 0.45208 0.194 0.3325 0.0
O663 O 0.43496 0.19755 0.3016 0.0
H664 H 0.44902 0.17313 0.2481 0.0
H665 H 0.49028 0.26409 0.23186 0.0
H666 H 0.47394 0.25344 0.3159 0.0
O667 O 0.3724 0.80945 0.33328 0.0
Tb668 Tb 0.37451 0.727 0.3642 0.0
Eu669 Eu 0.34214 0.68631 0.35229 0.0
C670 C 0.38004 0.86218 0.34131 0.0
O671 O 0.38543 0.85925 0.36671 0.0
C672 C 0.35282 0.81636 0.39708 0.0
O673 O 0.33472 0.60436 0.38337 0.0
C674 C 0.32265 0.7021 0.31271 0.0
C675 C 0.34014 0.59908 0.40888 0.0
O676 O 0.34903 0.64644 0.41717 0.0
C677 C 0.36807 0.57659 0.357 0.0
C678 C 0.31227 0.67444 0.29112 0.0
C679 C 0.31376 0.68862 0.2617 0.0
C680 C 0.30319 0.66878 0.24172 0.0
C681 C 0.29094 0.63504 0.25255 0.0
C682 C 0.28876 0.62359 0.28166 0.0
C683 C 0.29959 0.6426 0.30049 0.0
O684 O 0.36578 0.78929 0.39871 0.0
O685 O 0.3435 0.79049 0.37847 0.0
O686 O 0.3901 0.68779 0.3343 0.0
O687 O 0.3971 0.73296 0.37271 0.0
C688 C 0.40123 0.70328 0.3492 0.0
O689 O 0.35822 0.59901 0.33913 0.0
O690 O 0.37164 0.61977 0.37663 0.0
O691 O 0.31995 0.69071 0.33955 0.0
O692 O 0.33643 0.7066 0.30752 0.0
H693 H 0.32288 0.71786 0.25482 0.0
H694 H 0.28269 0.61881 0.23832 0.0
H695 H 0.29792 0.63371 0.32281 0.0
O696 O 0.62616 0.90787 0.11368 0.0
Tb697 Tb 0.61249 0.97787 0.13786 0.0
Eu698 Eu 0.59512 0.97327 0.0976 0.0
C699 C 0.62388 0.89033 0.08731 0.0
O700 O 0.61488 0.92494 0.07178 0.0
C701 C 0.60444 0.83433 0.14266 0.0
O702 O 0.5908 1.06913 0.12299 0.0
C703 C 0.57567 0.97307 0.05764 0.0
C704 C 0.57862 0.0898 0.13394 0.0
O705 O 0.56758 1.04891 0.13478 0.0
C706 C 0.62198 0.09151 0.1002 0.0
C707 C 0.5637 0.97501 1.036 0.0
C708 C 0.56578 0.96126 1.00672 0.0
C709 C 0.55432 0.96685 0.98705 0.0
C710 C 0.54074 0.98707 0.99729 0.0
C711 C 0.53833 1.00109 1.02613 0.0
C712 C 0.54989 0.99483 1.04497 0.0
O713 O 0.6147 0.87424 0.15076 0.0
O714 O 0.59529 0.86193 0.12328 0.0
O715 O 0.61277 1.00355 0.18174 0.0
O716 O 0.59272 0.97732 0.16185 0.0
C717 C 0.59896 0.99515 0.18544 0.0
O718 O 0.61284 1.05706 0.0836 0.0
O719 O 0.62332 1.06976 0.12611 0.0
O720 O 0.57304 0.98483 0.0844 0.0
O721 O 0.5891 0.95754 0.0524 0.0
H722 H 0.57624 0.94615 0.99925 0.0
H723 H 0.53194 0.99131 0.98265 0.0
H724 H 0.54813 1.0073 0.06691 0.0
O725 O 0.63691 0.57121 0.08927 0.0
Tb726 Tb 0.65377 0.50212 0.10192 0.0
Eu727 Eu 0.68531 0.44788 0.09622 0.0
C728 C 0.63978 0.61013 0.0673 0.0
O729 O 0.65078 0.59373 0.05151 0.0
C730 C 0.67654 0.60052 0.12229 0.0
O731 O 0.6944 0.3558 0.11924 0.0
C732 C 0.70221 0.46746 0.05253 0.0
C733 C 0.69394 0.34697 0.1467 0.0
O734 O 0.6915 0.40006 0.16286 0.0
C735 C 0.65551 0.3523 0.08345 0.0
C736 C 0.71244 0.43742 1.03094 0.0
C737 C 0.71089 0.45011 1.00146 0.0
C738 C 0.72143 0.42842 0.98144 0.0
C739 C 0.73382 0.39528 0.9924 0.0
C740 C 0.73611 0.38645 1.02161 0.0
C741 C 0.72513 0.40531 1.04033 0.0
O742 O 0.66673 0.59508 0.1027 0.0
O743 O 0.6846 0.54474 0.12658 0.0
O744 O 0.64649 0.49345 0.14534 0.0
O745 O 0.66634 0.4475 0.13293 0.0
C746 C 0.65769 0.45853 0.15361 0.0
O747 O 0.66901 0.35626 0.09228 0.0
O748 O 0.64841 0.40973 0.07841 0.0
O749 O 0.70632 0.46531 0.07902 0.0
O750 O 0.68823 0.46247 0.04995 0.0
H751 H 0.70175 0.47961 0.99457 0.0
H752 H 0.74207 0.37742 0.97827 0.0
H753 H 0.72674 0.39655 0.06266 0.0
O754 O 0.62237 0.56021 0.29063 0.0
Tb755 Tb 0.62061 0.47932 0.25956 0.0
Eu756 Eu 0.58796 0.43145 0.24332 0.0
C757 C 0.61796 0.62314 0.28513 0.0
O758 O 0.60755 0.63268 0.26714 0.0
C759 C 0.60286 0.56606 0.21103 0.0
O760 O 0.57643 0.36011 0.21454 0.0
C761 C 0.57252 0.44542 0.28954 0.0
C762 C 0.58188 0.35252 0.18926 0.0
O763 O 0.59217 0.39403 0.18158 0.0
C764 C 0.61417 0.3264 0.25804 0.0
C765 C 0.56215 0.41478 0.31069 0.0
C766 C 0.56313 0.42864 0.34015 0.0
C767 C 0.5524 0.40702 0.35972 0.0
C768 C 0.54085 0.36897 0.34853 0.0
C769 C 0.539 0.35901 0.3193 0.0
C770 C 0.54988 0.38096 0.30086 0.0
O771 O 0.61512 0.5453 0.22242 0.0
O772 O 0.59091 0.53299 0.21745 0.0
O773 O 0.6432 0.48248 0.27037 0.0
O774 O 0.63639 0.42677 0.23466 0.0
C775 C 0.64719 0.44058 0.25071 0.0
O776 O 0.60391 0.33965 0.23976 0.0
O777 O 0.61682 0.37547 0.27614 0.0
O778 O 0.56783 0.45449 0.26368 0.0
O779 O 0.58628 0.43063 0.29017 0.0
H780 H 0.572 0.45862 0.34755 0.0
H781 H 0.53294 0.34769 0.36247 0.0
H782 H 0.54859 0.37269 0.27847 0.0
O783 O 0.6627 0.88676 0.27798 0.0
Tb784 Tb 0.6485 0.91487 0.24384 0.0
Eu785 Eu 0.68053 0.97293 0.24756 0.0
C786 C 0.66046 0.83495 0.29542 0.0
O787 O 0.66945 0.8241 0.31614 0.0
C788 C 0.67009 0.84142 0.20287 0.0
O789 O 0.68905 1.0625 0.22239 0.0
C790 C 0.69943 0.95188 0.28816 0.0
C791 C 0.68469 0.07695 0.19672 0.0
O792 O 0.67587 1.03508 0.18426 0.0
C793 C 0.65129 1.07106 0.24518 0.0
C794 C 0.71028 0.97535 0.30979 0.0
C795 C 0.70843 0.96332 0.33931 0.0
C796 C 0.71937 0.97856 0.35911 0.0
C797 C 0.73242 1.00433 0.34845 0.0
C798 C 0.7347 1.01624 0.31936 0.0
C799 C 0.72353 1.00179 0.30048 0.0
O800 O 0.65652 0.85349 0.2087 0.0
O801 O 0.68028 0.8772 0.21615 0.0
O802 O 0.63125 0.93362 0.27357 0.0
O803 O 0.62783 0.86498 0.24048 0.0
C804 C 0.62171 0.89594 0.26164 0.0
O805 O 0.66347 1.05833 0.25878 0.0
O806 O 0.6462 1.02142 0.22973 0.0
O807 O 0.70247 0.96046 0.26133 0.0
O808 O 0.68562 0.95391 0.29296 0.0
H809 H 0.69853 0.94162 0.34684 0.0
H810 H 0.74112 1.01298 0.3629 0.0
H811 H 0.72532 1.01039 0.27818 0.0
O812 O 0.40236 0.24525 0.97936 0.0
Tb813 Tb 0.4146 0.16576 0.95779 0.0
Eu814 Eu 0.43225 0.16622 0.99591 0.0
C815 C 0.40357 0.26255 1.00595 0.0
O816 O 0.40998 0.22138 1.0238 0.0
C817 C 0.4233 0.30328 0.94825 0.0
O818 O 0.44494 0.07736 0.97571 0.0
C819 C 0.44902 0.18938 1.03969 0.0
C820 C 0.43866 1.02384 0.96446 0.0
O821 O 0.4249 1.02417 0.96114 0.0
C822 C 0.40283 1.05931 0.99483 0.0
C823 C 0.45954 0.16004 0.06099 0.0
C824 C 0.45841 0.17519 0.09028 0.0
C825 C 0.46906 0.15407 0.11015 0.0
C826 C 0.48115 0.11853 0.09914 0.0
C827 C 0.48294 0.10543 0.07001 0.0
C828 C 0.47189 0.12526 0.05149 0.0
O829 O 0.41323 0.26346 0.93932 0.0
O830 O 0.43158 0.27738 0.96955 0.0
O831 O 0.41624 0.12762 0.9156 0.0
O832 O 0.4354 0.15599 0.93798 0.0
C833 C 0.43024 0.13261 0.91423 0.0
O834 O 0.41406 0.08322 1.00957 0.0
O835 O 0.40054 0.08752 0.97037 0.0
O836 O 0.45301 0.1904 1.0132 0.0
O837 O 0.43526 0.17911 1.04225 0.0
H838 H 0.44949 0.20626 0.09706 0.0
H839 H 0.48953 0.10205 0.11319 0.0
H840 H 0.47314 0.11483 1.02923 0.0
O841 O 0.38873 0.58817 1.01051 0.0
Tb842 Tb 0.37087 0.65304 0.99959 0.0
Eu843 Eu 0.33905 0.70706 1.00132 0.0
C844 C 0.38728 0.5425 1.03079 0.0
O845 O 0.37687 0.55024 0.04906 0.0
C846 C 0.34818 0.55325 0.97835 0.0
O847 O 0.32869 0.79582 0.97801 0.0
C848 C 0.32316 0.6874 1.04642 0.0
C849 C 0.33076 0.80759 0.951 0.0
O850 O 0.33608 0.7584 0.93542 0.0
C851 C 0.36826 0.80297 1.01442 0.0
C852 C 0.31293 0.71884 0.06754 0.0
C853 C 0.31412 0.70572 0.09704 0.0
C854 C 0.30348 0.72831 0.11664 0.0
C855 C 0.29132 0.76256 0.1052 0.0
C856 C 0.2894 0.77194 0.07589 0.0
C857 C 0.30054 0.75263 0.05765 0.0
O858 O 0.35782 0.55956 0.99838 0.0
O859 O 0.34044 0.60903 0.97243 0.0
O860 O 0.38137 0.6623 0.95905 0.0
O861 O 0.36014 0.69732 0.96315 0.0
C862 C 0.37043 0.68713 0.94542 0.0
O863 O 0.35537 0.7974 1.00296 0.0
O864 O 0.37478 0.74672 1.02308 0.0
O865 O 0.31866 0.68418 1.02024 0.0
O866 O 0.33705 0.69733 0.04793 0.0
H867 H 0.32304 0.67512 0.10424 0.0
H868 H 0.28297 0.78084 0.11898 0.0
H869 H 0.29929 0.76207 1.03528 0.0
O870 O 0.41045 0.6399 0.79275 0.0
Tb871 Tb 0.40179 0.65091 0.83512 0.0
Eu872 Eu 0.43404 0.7136 0.84873 0.0
C873 C 0.40748 0.5861 0.77714 0.0
O874 O 0.41178 0.58457 0.75081 0.0
C875 C 0.42181 0.5701 0.88102 0.0
O876 O 0.4451 0.79027 0.87631 0.0
C877 C 0.45093 0.69391 0.80501 0.0
C878 C 0.44639 0.78093 0.90364 0.0
O879 O 0.44227 0.72247 0.91475 0.0
C880 C 0.40445 0.80995 0.84946 0.0
C881 C 0.46135 0.72451 0.78407 0.0
C882 C 0.46035 0.71111 0.75469 0.0
C883 C 0.47099 0.7334 0.73508 0.0
C884 C 0.48298 0.76794 0.74647 0.0
C885 C 0.48464 0.77863 0.77576 0.0
C886 C 0.47357 0.75827 0.79399 0.0
O887 O 0.40965 0.57782 0.86727 0.0
O888 O 0.43225 0.61541 0.87751 0.0
O889 O 0.37937 0.6736 0.82707 0.0
O890 O 0.38509 0.57552 0.83891 0.0
C891 C 0.37418 0.61629 0.83642 0.0
O892 O 0.41841 0.80711 0.84446 0.0
O893 O 0.39732 0.75264 0.85296 0.0
O894 O 0.45495 0.69162 0.8315 0.0
O895 O 0.43708 0.70376 0.80244 0.0
H896 H 0.45156 0.68034 0.74765 0.0
H897 H 0.49138 0.78543 0.73266 0.0
H898 H 0.47474 0.76721 0.81636 0.0
O899 O 0.37362 0.31078 0.83158 0.0
Tb900 Tb 0.37763 0.23353 0.86399 0.0
Eu901 Eu 0.34426 0.18427 0.8535 0.0
C902 C 0.37965 0.36872 0.83888 0.0
O903 O 0.38376 0.37324 0.86515 0.0
C904 C 0.35467 0.30831 0.90132 0.0
O905 O 0.33465 0.0953 0.87757 0.0
C906 C 0.32633 0.2085 0.8117 0.0
C907 C 0.33721 0.08236 0.90431 0.0
O908 O 0.34474 0.12599 0.91888 0.0
C909 C 0.37186 0.07841 0.85802 0.0
C910 C 0.31582 0.18296 0.78981 0.0
C911 C 0.31757 0.1964 0.7604 0.0
C912 C 0.30667 0.18066 0.74065 0.0
C913 C 0.2938 0.15237 0.75093 0.0
C914 C 0.29155 0.14001 0.78001 0.0
C915 C 0.30275 0.15414 0.79889 0.0
O916 O 0.36819 0.28867 0.89977 0.0
O917 O 0.34489 0.28032 0.88428 0.0
O918 O 0.39497 0.20771 0.83554 0.0
O919 O 0.3997 0.25539 0.87465 0.0
C920 C 0.40511 0.23162 0.85113 0.0
O921 O 0.36041 0.09542 0.84296 0.0
O922 O 0.37695 0.12462 0.87504 0.0
O923 O 0.32277 0.20093 0.83833 0.0
O924 O 0.34027 0.20594 0.80791 0.0
H925 H 0.32722 0.22074 0.75297 0.0
H926 H 0.28528 0.14224 0.73622 0.0
H927 H 0.30106 0.14396 0.82111 0.0
C928 C 0.04025 0.44021 0.90984 0.0
C929 C 0.05283 0.43206 0.89356 0.0
C930 C 0.04029 0.45111 0.9392 0.0
C931 C 0.0529 0.46033 0.95506 0.0
H932 H 0.02988 0.4389 0.90013 0.0
H933 H 0.02997 0.45175 0.94928 0.0
S934 S 0.08933 0.44653 0.92386 0.0
N935 N 0.07872 0.43156 0.897 0.0
N936 N 0.07876 0.46133 0.95099 0.0
C937 C 0.06572 0.45396 0.9392 0.0
C938 C 0.06569 0.43874 0.9091 0.0
C939 C 0.23338 0.95254 0.94214 0.0
C940 C 0.22057 0.94355 0.9576 0.0
C941 C 0.23369 0.96501 0.91274 0.0
C942 C 0.22121 0.97291 0.8963 0.0
H943 H 0.24356 0.95046 0.95268 0.0
H944 H 0.24408 0.96767 0.90298 0.0
S945 S 0.18444 0.95848 0.92568 0.0
N946 N 0.19476 0.94303 0.95311 0.0
N947 N 0.1953 0.97378 0.899 0.0
C948 C 0.20821 0.96611 0.91148 0.0
C949 C 0.2079 0.95051 0.94154 0.0
C950 C 0.04354 0.97193 0.44035 0.0
C951 C 0.05623 0.97791 0.45624 0.0
C952 C 0.04344 0.96016 0.41095 0.0
C953 C 0.05601 0.95005 0.39481 0.0
H954 H 0.03327 0.9758 0.45057 0.0
H955 H 0.03312 0.95971 0.40092 0.0
S956 S 0.09255 0.95795 0.42518 0.0
N957 N 0.08207 0.97401 0.45236 0.0
N958 N 0.08186 0.94536 0.3982 0.0
C959 C 0.06889 0.95452 0.41035 0.0
C960 C 0.069 0.96914 0.44046 0.0
C961 C 0.23204 0.43797 0.4422 0.0
C962 C 0.21954 0.43027 0.45867 0.0
C963 C 0.23176 0.45017 0.41282 0.0
C964 C 0.21895 0.45924 0.39742 0.0
H965 H 0.24242 0.43544 0.45191 0.0
H966 H 0.24195 0.452 0.40224 0.0
S967 S 0.18279 0.44407 0.42937 0.0
N968 N 0.19363 0.4288 0.45601 0.0
N969 N 0.19313 0.45975 0.40195 0.0
C970 C 0.20627 0.45233 0.4135 0.0
C971 C 0.20655 0.43673 0.44352 0.0
C972 C 0.95756 0.70336 0.16143 0.0
C973 C 0.97 0.69624 0.14466 0.0
C974 C 0.95811 0.71826 0.19083 0.0
C975 C 0.97114 0.72607 0.20557 0.0
H976 H 0.94722 0.69646 0.15188 0.0
H977 H 0.94812 0.72401 0.20202 0.0
S978 S 1.00704 0.7136 0.17186 0.0
N979 N 0.99586 0.70485 0.1455 0.0
N980 N 0.99695 0.72106 0.20011 0.0
C981 C 0.98364 0.71806 0.18899 0.0
C982 C 0.98306 0.70635 0.15898 0.0
C983 C 0.81608 0.18743 0.1846 0.0
C984 C 0.80323 0.17983 0.20019 0.0
C985 C 0.8163 0.20208 0.15502 0.0
C986 C 0.80369 0.20893 0.13881 0.0
H987 H 0.8262 0.1817 0.19523 0.0
H988 H 0.82654 0.20883 0.14489 0.0
S989 S 0.76697 0.19209 0.16831 0.0
N990 N 0.77737 0.18536 0.19605 0.0
N991 N 0.77785 0.20006 0.14125 0.0
C992 C 0.7908 0.199 0.154 0.0
C993 C 0.79055 0.18789 0.18418 0.0
C994 C 0.96118 0.16412 0.69166 0.0
C995 C 0.96679 0.2249 0.70326 0.0
C996 C 0.96161 0.15072 0.66214 0.0
C997 C 0.96761 0.19747 0.64257 0.0
H998 H 0.95687 0.12522 0.70558 0.0
H999 H 0.95759 0.10231 0.65468 0.0
S1000 S 0.98245 0.36702 0.66071 0.0
N1001 N 0.97744 0.3348 0.69142 0.0
N1002 N 0.97856 0.3086 0.63704 0.0
C1003 C 0.9728 0.25905 0.6537 0.0
C1004 C 0.9723 0.27299 0.68355 0.0
C1005 C 0.80821 0.74867 0.68709 0.0
C1006 C 0.80514 0.68297 0.69827 0.0
C1007 C 0.80784 0.76269 0.65759 0.0
C1008 C 0.80468 0.71146 0.6377 0.0
H1009 H 0.81038 0.79037 0.70131 0.0
H1010 H 0.80984 0.81446 0.65031 0.0
S1011 S 0.7966 0.53031 0.65526 0.0
N1012 N 0.79929 0.56574 0.68626 0.0
N1013 N 0.79884 0.59188 0.63161 0.0
C1014 C 0.80201 0.64538 0.64852 0.0
C1015 C 0.80219 0.63126 0.67844 0.0
C1016 C 0.56568 0.43361 0.40643 0.0
C1017 C 0.55275 0.42559 0.39139 0.0
C1018 C 0.56605 0.44924 0.43579 0.0
C1019 C 0.55352 0.45671 0.45229 0.0
H1020 H 0.57573 0.42741 0.39551 0.0
H1021 H 0.57634 0.45625 0.44553 0.0
S1022 S 0.51664 0.43938 0.4242 0.0
N1023 N 0.52691 0.43172 0.39622 0.0
N1024 N 0.52766 0.448 0.45081 0.0
C1025 C 0.54055 0.44643 0.43767 0.0
C1026 C 0.54015 0.4344 0.40766 0.0
C1027 C 0.71258 0.88837 0.43135 0.0
C1028 C 0.71724 0.93642 0.45141 0.0
C1029 C 0.71271 0.90293 0.40188 0.0
C1030 C 0.71772 0.96599 0.39085 0.0
H1031 H 0.70905 0.83845 0.43847 0.0
H1032 H 0.70933 0.8634 0.38755 0.0
S1033 S 0.73036 0.1108 0.43451 0.0
N1034 N 0.72645 1.05067 0.45791 0.0
N1035 N 0.72673 0.07815 0.40338 0.0
C1036 C 0.72208 1.01485 0.41091 0.0
C1037 C 0.72185 1.00009 0.44079 0.0
C1038 C 0.56186 0.99643 0.93616 0.0
C1039 C 0.55597 0.9497 0.95588 0.0
C1040 C 0.56176 0.98387 0.90657 0.0
C1041 C 0.55571 0.924 0.89502 0.0
H1042 H 0.56618 1.04425 0.94358 0.0
H1043 H 0.56601 1.02277 0.89257 0.0
S1044 S 0.54018 0.78208 0.93786 0.0
N1045 N 0.54468 0.83941 0.96155 0.0
N1046 N 0.54481 0.81478 0.907 0.0
C1047 C 0.55032 0.87587 0.91483 0.0
C1048 C 0.55036 0.88895 0.94478 0.0
C1049 C 0.73255 0.46118 0.90349 0.0
C1050 C 0.71975 0.46861 0.88801 0.0
C1051 C 0.73283 0.45063 0.93296 0.0
C1052 C 0.72034 0.44302 0.94947 0.0
H1053 H 0.74275 0.46286 0.89291 0.0
H1054 H 0.74321 0.44906 0.94271 0.0
S1055 S 0.68359 0.4558 0.92025 0.0
N1056 N 0.69392 0.46956 0.89262 0.0
N1057 N 0.69444 0.44205 0.94701 0.0
C1058 C 0.70735 0.44892 0.93436 0.0
C1059 C 0.70706 0.4627 0.90418 0.0
C1060 C 0.48315 0.69973 0.65787 0.0
C1061 C 0.47058 0.68883 0.64211 0.0
C1062 C 0.48306 0.71196 0.68717 0.0
C1063 C 0.47037 0.71794 0.70318 0.0
H1064 H 0.49344 0.6994 0.64764 0.0
H1065 H 0.49334 0.71596 0.69718 0.0
S1066 S 0.43403 0.69786 0.67287 0.0
N1067 N 0.44474 0.68409 0.64585 0.0
N1068 N 0.4445 0.71486 0.69974 0.0
C1069 C 0.45758 0.70924 0.68769 0.0
C1070 C 0.4577 0.69366 0.65775 0.0
C1071 C 0.31243 0.14869 0.68957 0.0
C1072 C 0.30794 0.19797 0.70944 0.0
C1073 C 0.31214 0.16209 0.66003 0.0
C1074 C 0.30711 0.22511 0.64875 0.0
H1075 H 0.31591 0.09864 0.69689 0.0
H1076 H 0.3154 0.12165 0.64588 0.0
S1077 S 0.29478 0.37271 0.6918 0.0
N1078 N 0.2988 0.31323 0.71548 0.0
N1079 N 0.29823 0.33854 0.66078 0.0
C1080 C 0.3029 0.27518 0.66859 0.0
C1081 C 0.30331 0.26162 0.69855 0.0
C1082 C 0.48104 0.19083 0.18713 0.0
C1083 C 0.46842 0.20143 0.20306 0.0
C1084 C 0.48101 0.17806 0.15784 0.0
C1085 C 0.46835 0.17123 0.14196 0.0
H1086 H 0.49133 0.19162 0.19721 0.0
H1087 H 0.4913 0.17415 0.14773 0.0
S1088 S 0.43194 0.19173 0.17256 0.0
N1089 N 0.44257 0.20593 0.19946 0.0
N1090 N 0.44248 0.17441 0.14564 0.0
C1091 C 0.45553 0.18024 0.15756 0.0
C1092 C 0.45557 0.19627 0.1875 0.0
C1093 C 0.29152 0.70662 0.1646 0.0
C1094 C 0.3042 0.71319 0.14861 0.0
C1095 C 0.29147 0.69508 0.194 0.0
C1096 C 0.30408 0.68542 0.20989 0.0
H1097 H 0.28123 0.70964 0.15449 0.0
H1098 H 0.28116 0.69425 0.2042 0.0
S1099 S 0.34059 0.69619 0.17923 0.0
N1100 N 0.33007 0.71174 0.1521 0.0
N1101 N 0.32994 0.68246 0.20638 0.0
C1102 C 0.31695 0.69082 0.1943 0.0
C1103 C 0.31702 0.70563 0.16419 0.0
C1104 C 0.1571 0.22314 0.08106 0.0
C1105 C 0.14313 0.24799 0.07868 0.0
C1106 C 0.15987 0.15254 0.0808 0.0
C1107 C 0.14866 0.10514 0.07965 0.0
H1108 H 0.16583 0.2582 0.08431 0.0
H1109 H 0.17074 0.13502 0.08383 0.0
S1110 S 0.11037 0.14483 0.07097 0.0
N1111 N 0.11815 0.22039 0.07185 0.0
N1112 N 0.12331 0.08754 0.07426 0.0
C1113 C 0.13475 0.12945 0.07601 0.0
C1114 C 0.132 0.20114 0.07483 0.0
C1115 C 0.13239 0.17266 0.31744 0.0
C1116 C 0.1271 0.14823 0.29167 0.0
C1117 C 0.1438 0.21895 0.31847 0.0
C1118 C 0.15049 0.2433 0.2938 0.0
H1119 H 0.12762 0.15606 0.33713 0.0
H1120 H 0.14743 0.23581 0.33889 0.0
S1121 S 0.14056 0.19654 0.22106 0.0
N1122 N 0.12868 0.15729 0.24098 0.0
N1123 N 0.15158 0.2347 0.2429 0.0
C1124 C 0.14562 0.21763 0.26799 0.0
C1125 C 0.13351 0.17306 0.26692 0.0
C1126 C 0.86451 1.00833 1.01568 0.0
C1127 C 0.87579 1.05543 1.0155 0.0
C1128 C 0.86711 0.93802 1.01918 0.0
C1129 C 0.88096 0.9135 1.02386 0.0
H1130 H 0.85372 1.02549 1.01155 0.0
H1131 H 0.85832 0.90263 1.0176 0.0
S1132 S 0.91393 1.01703 1.02692 0.0
N1133 N 0.90113 1.0735 1.02055 0.0
N1134 N 0.906 0.942 1.02955 0.0
C1135 C 0.89221 0.96073 1.02528 0.0
C1136 C 0.88962 1.03175 1.02048 0.0
C1137 C 0.8895 0.93594 0.82274 0.0
C1138 C 0.87759 0.93354 0.80483 0.0
C1139 C 0.89923 0.98997 0.821 0.0
C1140 C 0.89744 1.04273 0.80105 0.0
H1141 H 0.89132 0.89552 0.83814 0.0
H1142 H 0.90842 0.98939 0.83476 0.0
S1143 S 0.86774 1.06178 0.75035 0.0
N1144 N 0.86414 0.99016 0.76771 0.0
N1145 N 0.88282 0.09047 0.76352 0.0
C1146 C 0.88552 1.04137 0.78327 0.0
C1147 C 0.87544 0.98713 0.78547 0.0
C1148 C 0.1532 0.67779 0.56344 0.0
C1149 C 0.16674 0.66305 0.57424 0.0
C1150 C 0.14543 0.73516 0.57246 0.0
C1151 C 0.15111 0.78143 0.59201 0.0
H1152 H 0.14854 0.64451 0.54787 0.0
H1153 H 0.13482 0.74299 0.5641 0.0
S1154 S 0.18788 0.77692 0.61992 0.0
N1155 N 0.18667 0.70613 0.60122 0.0
N1156 N 0.17212 0.81496 0.61798 0.0
C1157 C 0.16511 0.77022 0.60134 0.0
C1158 C 0.17299 0.71128 0.5922 0.0
C1159 C 0.14022 0.70703 0.7806 0.0
C1160 C 0.14712 0.65099 0.7679 0.0
C1161 C 0.14777 0.76571 0.78802 0.0
C1162 C 0.16243 0.77037 0.783 0.0
H1163 H 0.12887 0.70571 0.78472 0.0
H1164 H 0.1422 0.80671 0.79872 0.0
S1165 S 0.18577 0.63355 0.75441 0.0
N1166 N 0.16958 0.60135 0.75275 0.0
N1167 N 0.1839 0.71132 0.76749 0.0
C1168 C 0.16957 0.71376 0.7713 0.0
C1169 C 0.16185 0.65431 0.76332 0.0
C1170 C 0.86386 0.40416 0.4932 0.0
C1171 C 0.87779 0.39041 0.50243 0.0
C1172 C 0.85654 0.46323 0.50215 0.0
C1173 C 0.86325 0.51256 0.51891 0.0
H1174 H 0.85842 0.36789 0.47994 0.0
H1175 H 0.84554 0.47045 0.49595 0.0
S1176 S 0.89959 0.50097 0.54851 0.0
N1177 N 0.89788 0.43024 0.53001 0.0
N1178 N 0.88439 0.5432 0.54489 0.0
C1179 C 0.87724 0.50014 0.52771 0.0
C1180 C 0.88446 0.43867 0.51984 0.0
C1181 C 0.87547 0.40773 0.30639 0.0
C1182 C 0.86149 0.40182 0.31635 0.0
C1183 C 0.88394 0.46388 0.31352 0.0
C1184 C 0.87863 0.51742 0.33045 0.0
H1185 H 0.87983 0.36922 0.29245 0.0
H1186 H 0.89477 0.46508 0.30563 0.0
S1187 S 0.84173 0.53205 0.35777 0.0
N1188 N 0.84205 0.45787 0.34123 0.0
N1189 N 0.85792 0.5638 0.35467 0.0
C1190 C 0.8644 0.51369 0.33951 0.0
C1191 C 0.85579 0.45619 0.33222 0.0
C1192 C 0.65886 0.23453 0.59306 0.0
C1193 C 0.64462 0.25055 0.58665 0.0
C1194 C 0.66515 0.17364 0.58327 0.0
C1195 C 0.65718 0.12552 0.56816 0.0
H1196 H 0.66526 0.27019 0.60484 0.0
H1197 H 0.67633 0.16409 0.58748 0.0
S1198 S 0.61956 0.14336 0.54618 0.0
N1199 N 0.62276 0.21354 0.5642 0.0
N1200 N 0.63458 0.09873 0.54656 0.0
C1201 C 0.64292 0.14045 0.56211 0.0
C1202 C 0.63662 0.20299 0.57133 0.0
C1203 C 0.65173 0.22589 0.78783 0.0
C1204 C 0.66489 0.23669 0.77466 0.0
C1205 C 0.64349 0.16848 0.78157 0.0
C1206 C 0.64827 0.11848 0.76239 0.0
H1207 H 0.64778 0.26219 0.80317 0.0
H1208 H 0.63319 0.16386 0.79172 0.0
S1209 S 0.68358 0.1152 0.72736 0.0
N1210 N 0.68342 0.18788 0.74499 0.0
N1211 N 0.66794 0.07934 0.73319 0.0
C1212 C 0.66185 0.12653 0.75039 0.0
C1213 C 0.67023 0.18539 0.75678 0.0
C1214 C 0.38296 1.0367 0.50211 0.0
C1215 C 0.3823 1.06604 0.47497 0.0
C1216 C 0.38361 0.96557 0.50608 0.0
C1217 C 0.38371 0.92025 0.48313 0.0
H1218 H 0.3825 1.0687 0.52062 0.0
H1219 H 0.38395 0.94609 0.5275 0.0
S1220 S 0.38237 0.97167 0.40776 0.0
N1221 N 0.38214 1.04466 0.42476 0.0
N1222 N 0.38337 0.9108 0.43205 0.0
C1223 C 0.38343 0.949 0.45581 0.0
C1224 C 0.38279 1.02174 0.4518 0.0
C1225 C 0.38557 1.02237 0.29719 0.0
C1226 C 0.40044 1.02984 0.29925 0.0
C1227 C 0.37869 0.96462 0.30887 0.0
C1228 C 0.38664 0.91162 0.3216 0.0
H1229 H 0.37921 1.06204 0.2872 0.0
H1230 H 0.36716 0.96308 0.30916 0.0
S1231 S 0.42605 0.90094 0.32609 0.0
N1232 N 0.4229 0.97623 0.31133 0.0
N1233 N 0.41029 0.86601 0.33148 0.0
C1234 C 0.4016 0.91591 0.32095 0.0
C1235 C 0.40845 0.97528 0.31005 0.0
C1236 C 0.64216 0.80082 0.07736 0.0
C1237 C 0.62783 0.82084 0.07859 0.0
C1238 C 0.6459 0.73276 0.0716 0.0
C1239 C 0.63539 0.68229 0.06836 0.0
H1240 H 0.65049 0.83766 0.08122 0.0
H1241 H 0.65708 0.71881 0.07125 0.0
S1242 S 0.5964 0.70931 0.06917 0.0
N1243 N 0.60309 0.78623 0.07427 0.0
N1244 N 0.6102 0.65689 0.0662 0.0
C1245 C 0.62106 0.70181 0.06928 0.0
C1246 C 0.61725 0.77162 0.07374 0.0
C1247 C 0.64109 0.67619 0.27258 0.0
C1248 C 0.62836 0.67887 0.28824 0.0
C1249 C 0.6511 0.72904 0.2739 0.0
C1250 C 0.64883 0.78581 0.29131 0.0
H1251 H 0.64324 0.63297 0.25903 0.0
H1252 H 0.66086 0.72474 0.26178 0.0
S1253 S 0.61734 0.81685 0.33681 0.0
N1254 N 0.61385 0.74357 0.32112 0.0
N1255 N 0.63315 0.84097 0.32515 0.0
C1256 C 0.63622 0.78885 0.30731 0.0
C1257 C 0.62582 0.73596 0.30529 0.0
C1258 C 0.39876 0.38375 0.99237 0.0
C1259 C 0.39999 0.33391 1.01383 0.0
C1260 C 0.39568 0.45196 0.99841 0.0
C1261 C 0.39325 0.47331 1.0262 0.0
H1262 H 0.39975 0.37002 0.97047 0.0
H1263 H 0.39441 0.48724 0.98083 0.0
S1264 S 0.39547 0.36424 0.09038 0.0
N1265 N 0.39912 0.31138 0.06428 0.0
N1266 N 0.39259 0.44004 0.07563 0.0
C1267 C 0.3946 0.42462 0.04805 0.0
C1268 C 0.39814 0.3549 1.04189 0.0
C1269 C 0.40777 0.48612 0.80957 0.0
C1270 C 0.40044 0.52547 0.78947 0.0
C1271 C 0.40111 0.4317 0.82355 0.0
C1272 C 0.38674 0.4152 0.81846 0.0
H1273 H 0.41864 0.49861 0.81507 0.0
H1274 H 0.40714 0.40385 0.83941 0.0
S1275 S 0.36327 0.49945 0.76594 0.0
N1276 N 0.37849 0.54106 0.76308 0.0
N1277 N 0.36573 0.43981 0.79043 0.0
C1278 C 0.37952 0.45153 0.79719 0.0
C1279 C 0.38644 0.50657 0.78245 0.0
C1280 C 0.11189 0.21366 0.14557 0.0
C1281 C 0.0992 0.25334 0.14332 0.0
C1282 C 0.11349 0.15729 0.16464 0.0
C1283 C 0.10253 0.1352 0.18321 0.0
H1284 H 0.12103 0.22714 0.1328 0.0
H1285 H 0.1237 0.13111 0.16493 0.0
S1286 S 0.06688 0.21983 0.18681 0.0
N1287 N 0.07523 0.26458 0.16217 0.0
N1288 N 0.07817 0.1598 0.19755 0.0
C1289 C 0.08963 0.17359 0.18105 0.0
C1290 C 0.088 0.2317 0.16147 0.0
C1291 C 0.16079 0.19665 0.15528 0.0
C1292 C 0.17286 0.1525 0.15432 0.0
C1293 C 0.16038 0.25825 0.17121 0.0
C1294 C 0.17178 0.27939 0.18853 0.0
H1295 H 0.15122 0.18237 0.14412 0.0
H1296 H 0.15059 0.28793 0.17096 0.0
S1297 S 0.20649 0.18603 0.19281 0.0
N1298 N 0.19712 0.13893 0.17092 0.0
N1299 N 0.19612 0.25107 0.20187 0.0
C1300 C 0.1842 0.23736 0.18691 0.0
C1301 C 0.18476 0.17527 0.16984 0.0
C1302 C 0.91032 0.95196 0.94953 0.0
C1303 C 0.9227 0.9098 0.95152 0.0
C1304 C 0.90911 1.00915 0.93066 0.0
C1305 C 0.92017 1.03029 0.91212 0.0
H1306 H 0.90113 0.9399 0.96241 0.0
H1307 H 0.89914 1.0373 0.93058 0.0
S1308 S 0.95535 0.94102 0.90857 0.0
N1309 N 0.94665 0.89637 0.93279 0.0
N1310 N 0.94443 1.00285 0.89801 0.0
C1311 C 0.93283 0.99001 0.91427 0.0
C1312 C 0.93405 0.93073 0.93352 0.0
C1313 C 0.86476 0.9751 0.92608 0.0
C1314 C 0.85231 1.00836 0.93652 0.0
C1315 C 0.86449 0.91495 0.90922 0.0
C1316 C 0.8517 0.88235 0.90118 0.0
H1317 H 0.87507 0.99657 0.93062 0.0
H1318 H 0.8746 0.89443 0.90204 0.0
S1319 S 0.81571 0.94566 0.92264 0.0
N1320 N 0.82654 1.00134 0.93729 0.0
N1321 N 0.82593 0.88951 0.9061 0.0
C1322 C 0.83908 0.91395 0.91191 0.0
C1323 C 0.83939 0.97582 0.92928 0.0
C1324 C 0.08613 0.71197 0.66036 0.0
C1325 C 0.09778 0.75822 0.65968 0.0
C1326 C 0.08525 0.65586 0.68033 0.0
C1327 C 0.09573 0.64374 0.70151 0.0
H1328 H 0.07784 0.71752 0.6447 0.0
H1329 H 0.07633 0.62131 0.67891 0.0
S1330 S 0.12739 0.75343 0.71152 0.0
N1331 N 0.11969 0.78728 0.68347 0.0
N1332 N 0.1174 0.68875 0.7213 0.0
C1333 C 0.10694 0.69173 0.70167 0.0
C1334 C 0.10813 0.74649 0.6809 0.0
C1335 C 0.15898 0.68565 0.66275 0.0
C1336 C 0.17081 0.64055 0.65998 0.0
C1337 C 0.1594 0.74763 0.67848 0.0
C1338 C 0.17137 0.76915 0.6942 0.0
H1339 H 0.14919 0.67431 0.65178 0.0
H1340 H 0.15014 0.78048 0.67764 0.0
S1341 S 0.20621 0.67666 0.69179 0.0
N1342 N 0.19578 0.62788 0.67255 0.0
N1343 N 0.19625 0.74137 0.70283 0.0
C1344 C 0.18356 0.72612 0.69093 0.0
C1345 C 0.18329 0.66306 0.6741 0.0
C1346 C 0.94182 0.46467 0.40892 0.0
C1347 C 0.93113 0.5168 0.41006 0.0
C1348 C 0.94164 0.40489 0.42717 0.0
C1349 C 0.93088 0.3942 0.44795 0.0
H1350 H 0.94996 0.46795 0.39278 0.0
H1351 H 0.9497 0.3657 0.42416 0.0
S1352 S 0.90248 0.52117 0.46398 0.0
N1353 N 0.9108 0.55605 0.43687 0.0
N1354 N 0.91066 0.44818 0.47051 0.0
C1355 C 0.92093 0.44862 0.45037 0.0
C1356 C 0.921 0.50809 0.4318 0.0
C1357 C 0.84243 0.47376 0.43198 0.0
C1358 C 0.85468 0.51621 0.43476 0.0
C1359 C 0.84238 0.41155 0.41539 0.0
C1360 C 0.85467 0.38664 0.40081 0.0
H1361 H 0.83278 0.48796 0.4431 0.0
H1362 H 0.83265 0.38238 0.41437 0.0
S1363 S 0.88916 0.47898 0.3985 0.0
N1364 N 0.879 0.52856 0.41821 0.0
N1365 N 0.87921 0.41372 0.39006 0.0
C1366 C 0.86677 0.42918 0.40334 0.0
C1367 C 0.8667 0.49258 0.41927 0.0
C1368 C 0.60405 0.1393 0.66701 0.0
C1369 C 0.59434 0.1325 0.68973 0.0
C1370 C 0.60388 0.19578 0.64782 0.0
C1371 C 0.59395 0.25057 0.64975 0.0
H1372 H 0.6121 0.10002 0.66402 0.0
H1373 H 0.61192 0.19672 0.6314 0.0
S1374 S 0.56577 0.25986 0.70504 0.0
N1375 N 0.5741 0.187 0.71243 0.0
N1376 N 0.57373 0.29241 0.67689 0.0
C1377 C 0.58383 0.24394 0.67196 0.0
C1378 C 0.58401 0.18564 0.6916 0.0
C1379 C 0.67984 0.17328 0.65516 0.0
C1380 C 0.66764 0.13016 0.65388 0.0
C1381 C 0.68023 0.23528 0.67177 0.0
C1382 C 0.66838 0.25883 0.68799 0.0
H1383 H 0.68917 0.15971 0.6429 0.0
H1384 H 0.68987 0.26527 0.67159 0.0
S1385 S 0.63439 0.16385 0.69469 0.0
N1386 N 0.64377 0.11645 0.67281 0.0
N1387 N 0.64447 0.22923 0.7024 0.0
C1388 C 0.65636 0.21546 0.68706 0.0
C1389 C 0.656 0.15291 0.67065 0.0
C1390 C 0.41625 0.94235 0.39917 0.0
C1391 C 0.42292 1.00644 0.4035 0.0
C1392 C 0.41783 0.88485 0.41785 0.0
C1393 C 0.42653 0.88596 0.44217 0.0
H1394 H 0.40935 0.93672 0.38119 0.0
H1395 H 0.41187 0.83893 0.41334 0.0
S1396 S 0.44702 1.03905 0.46402 0.0
N1397 N 0.43909 1.0653 0.43477 0.0
N1398 N 0.44215 0.95867 0.46918 0.0
C1399 C 0.43363 0.94897 0.44656 0.0
C1400 C 0.43193 1.00803 0.4275 0.0
C1401 C 0.34611 1.01052 0.41411 0.0
C1402 C 0.34655 1.0168 0.44403 0.0
C1403 C 0.34739 0.94666 0.3996 0.0
C1404 C 0.34947 0.88325 0.41373 0.0
H1405 H 0.3451 1.05628 0.40131 0.0
H1406 H 0.34738 0.94761 0.37679 0.0
S1407 S 0.34919 0.86537 0.49198 0.0
N1408 N 0.34757 0.94904 0.48709 0.0
N1409 N 0.35042 0.83108 0.46031 0.0
C1410 C 0.34937 0.88773 0.44368 0.0
C1411 C 0.3478 0.95314 0.45855 0.0
C1412 C 0.59196 0.71636 0.15709 0.0
C1413 C 0.6038 0.76172 0.15728 0.0
C1414 C 0.59152 0.65381 0.17383 0.0
C1415 C 0.60295 0.63158 0.19162 0.0
H1416 H 0.58273 0.73017 0.14463 0.0
H1417 H 0.582 0.62295 0.17296 0.0
S1418 S 0.63659 0.72811 0.19996 0.0
N1419 N 0.62744 0.77533 0.17741 0.0
N1420 N 0.6265 0.66205 0.2073 0.0
C1421 C 0.61483 0.67561 0.19128 0.0
C1422 C 0.61529 0.73866 0.1747 0.0
C1423 C 0.66504 0.71308 0.1404 0.0
C1424 C 0.67653 0.66535 0.14158 0.0
C1425 C 0.66365 0.77019 0.15893 0.0
C1426 C 0.67347 0.78433 0.18078 0.0
H1427 H 0.65659 0.70531 0.12539 0.0
H1428 H 0.65445 0.80332 0.15632 0.0
S1429 S 0.70614 0.67907 0.19329 0.0
N1430 N 0.69852 0.6401 0.16652 0.0
N1431 N 0.6958 0.74515 0.20119 0.0
C1432 C 0.68536 0.73878 0.1817 0.0
C1433 C 0.68685 0.68033 0.16251 0.0
C1434 C 0.4128 0.39349 0.91495 0.0
C1435 C 0.4239 0.37544 0.93397 0.0
C1436 C 0.41255 0.45487 0.89884 0.0
C1437 C 0.42324 0.50521 0.90019 0.0
H1438 H 0.40396 0.35913 0.91197 0.0
H1439 H 0.40374 0.46222 0.88457 0.0
S1440 S 0.45498 0.48808 0.94684 0.0
N1441 N 0.44615 0.41661 0.9533 0.0
N1442 N 0.4456 0.53198 0.9233 0.0
C1443 C 0.43446 0.48932 0.91942 0.0
C1444 C 0.43475 0.42545 0.93614 0.0
C1445 C 0.34175 0.48504 0.9327 0.0
C1446 C 0.3477 0.4868 0.96027 0.0
C1447 C 0.34315 0.42666 0.91447 0.0
C1448 C 0.35074 0.36618 0.9224 0.0
H1449 H 0.33652 0.53055 0.92447 0.0
H1450 H 0.33895 0.43075 0.8933 0.0
S1451 S 0.36504 0.33539 0.99434 0.0
N1452 N 0.35922 0.41533 0.99568 0.0
N1453 N 0.36208 0.30914 0.96193 0.0
C1454 C 0.3558 0.36564 0.95049 0.0
C1455 C 0.35423 0.4244 0.96909 0.0
C1456 C 0.10544 0.33238 0.21383 0.0
C1457 C 0.10816 0.39993 0.20482 0.0
C1458 C 0.10371 0.31785 0.2427 0.0
C1459 C 0.10828 0.36771 0.26182 0.0
H1460 H 0.10617 0.29044 0.19927 0.0
H1461 H 0.10356 0.26448 0.24917 0.0
S1462 S 0.10588 0.55412 0.24924 0.0
N1463 N 0.10687 0.52037 0.21744 0.0
N1464 N 0.10539 0.48897 0.27175 0.0
C1465 C 0.10549 0.43577 0.25352 0.0
C1466 C 0.10646 0.45278 0.22432 0.0
C1467 C 0.17713 1.04029 0.24171 0.0
C1468 C 0.16861 1.0056 0.26154 0.0
C1469 C 0.1813 1.00609 0.2171 0.0
C1470 C 0.17764 0.93698 0.21344 0.0
H1471 H 0.17726 0.09582 0.24146 0.0
H1472 H 0.18476 1.0365 0.19926 0.0
S1473 S 0.16627 0.81809 0.26998 0.0
N1474 N 0.1652 0.89494 0.28424 0.0
N1475 N 0.17207 0.83017 0.23741 0.0
C1476 C 0.17382 0.89909 0.23739 0.0
C1477 C 0.17017 0.93405 0.2626 0.0
C1478 C 0.90962 0.61214 0.89927 0.0
C1479 C 0.91179 0.67647 0.91134 0.0
C1480 C 0.91017 0.60606 0.8699 0.0
C1481 C 0.9105 0.66646 0.85351 0.0
H1482 H 0.90624 0.56893 0.91204 0.0
H1483 H 0.90639 0.55894 0.86072 0.0
S1484 S 0.92468 0.83258 0.87504 0.0
N1485 N 0.92117 0.79144 0.90481 0.0
N1486 N 0.92128 0.77818 0.84949 0.0
C1487 C 0.91752 0.72227 0.86494 0.0
C1488 C 0.91726 0.72968 0.8946 0.0
C1489 C 0.84173 0.15118 0.88047 0.0
C1490 C 0.84388 0.2219 0.88396 0.0
C1491 C 0.84687 0.11868 0.85618 0.0
C1492 C 0.85432 0.15729 0.83588 0.0
H1493 H 0.83885 0.11941 0.89838 0.0
H1494 H 0.84802 1.06338 0.85672 0.0
S1495 S 0.85253 0.34534 0.82722 0.0
N1496 N 0.84689 0.33066 0.85972 0.0
N1497 N 0.85543 0.26929 0.81316 0.0
C1498 C 0.85134 0.22795 0.83484 0.0
C1499 C 0.84675 0.26113 0.85987 0.0
C1500 C 0.10188 0.87541 0.7526 0.0
C1501 C 0.10918 0.92329 0.76908 0.0
C1502 C 0.09989 0.89005 0.72385 0.0
C1503 C 0.10387 0.9542 0.71283 0.0
H1504 H 0.10137 0.82237 0.75942 0.0
H1505 H 0.09703 0.84909 0.70993 0.0
S1506 S 0.10907 0.10946 0.75519 0.0
N1507 N 0.10982 1.04559 0.77828 0.0
N1508 N 0.1064 1.0744 0.72411 0.0
C1509 C 0.10558 1.00763 0.73187 0.0
C1510 C 0.10726 0.99207 0.761 0.0
C1511 C 0.11146 0.61239 0.62907 0.0
C1512 C 0.11018 0.54395 0.63821 0.0
C1513 C 0.11011 0.62874 0.60028 0.0
C1514 C 0.11225 0.57459 0.58131 0.0
H1515 H 0.11491 0.65131 0.6434 0.0
H1516 H 0.11273 0.6805 0.59377 0.0
S1517 S 0.09815 0.40106 0.594 0.0
N1518 N 0.10123 0.43149 0.62579 0.0
N1519 N 0.10217 0.46292 0.57132 0.0
C1520 C 0.10573 0.51303 0.58955 0.0
C1521 C 0.10535 0.49588 0.61878 0.0
C1522 C 0.91948 0.18795 0.35968 0.0
C1523 C 0.91957 0.24697 0.37643 0.0
C1524 C 0.91772 0.19465 0.33034 0.0
C1525 C 0.91428 0.25976 0.31909 0.0
H1526 H 0.9189 0.13762 0.36937 0.0
H1527 H 0.91523 0.14902 0.31854 0.0
S1528 S 0.92219 0.42542 0.35017 0.0
N1529 N 0.92236 0.37062 0.3769 0.0
N1530 N 0.92029 0.37918 0.32152 0.0
C1531 C 0.92024 0.31529 0.33302 0.0
C1532 C 0.92128 0.31069 0.36292 0.0
C1533 C 0.90792 0.78611 0.49616 0.0
C1534 C 0.912 0.72304 0.50853 0.0
C1535 C 0.90841 0.79293 0.4667 0.0
C1536 C 0.91569 0.74395 0.45064 0.0
H1537 H 0.90099 0.82053 0.50763 0.0
H1538 H 0.90211 0.83246 0.45645 0.0
S1539 S 0.93928 0.6071 0.47886 0.0
N1540 N 0.93032 0.63507 0.50657 0.0
N1541 N 0.93387 0.6543 0.45177 0.0
C1542 C 0.92455 0.6969 0.46489 0.0
C1543 C 0.92282 0.68716 0.49448 0.0
C1544 C 0.60709 0.29583 0.72417 0.0
C1545 C 0.60638 0.36511 0.71575 0.0
C1546 C 0.60744 0.27877 0.75299 0.0
C1547 C 0.61089 0.33161 0.7717 0.0
H1548 H 0.60898 0.25616 0.70885 0.0
H1549 H 0.60995 0.22615 0.75864 0.0
S1550 S 0.59869 0.51039 0.76298 0.0
N1551 N 0.59981 0.48035 0.73053 0.0
N1552 N 0.60266 0.44564 0.78435 0.0
C1553 C 0.60453 0.39509 0.76522 0.0
C1554 C 0.60312 0.41394 0.7363 0.0
C1555 C 0.59751 0.99996 0.6085 0.0
C1556 C 0.60494 0.95666 0.58996 0.0
C1557 C 0.59723 0.9827 0.63727 0.0
C1558 C 0.60334 0.92068 0.64663 0.0
H1559 H 0.59535 1.05268 0.60249 0.0
H1560 H 0.59375 1.02033 0.65227 0.0
S1561 S 0.60911 0.77052 0.60145 0.0
N1562 N 0.60738 0.83553 0.57913 0.0
N1563 N 0.60789 0.80265 0.6335 0.0
C1564 C 0.60542 0.86929 0.62677 0.0
C1565 C 0.60503 0.88696 0.59764 0.0
C1566 C 0.41249 0.58517 0.38752 0.0
C1567 C 0.41918 0.63444 0.40426 0.0
C1568 C 0.41163 0.5963 0.3583 0.0
C1569 C 0.41449 0.66269 0.34815 0.0
H1570 H 0.40646 0.54398 0.39711 0.0
H1571 H 0.40488 0.56298 0.34626 0.0
S1572 S 0.44111 0.77826 0.37778 0.0
N1573 N 0.43608 0.72884 0.40437 0.0
N1574 N 0.43274 0.74931 0.34975 0.0
C1575 C 0.42578 0.69539 0.36137 0.0
C1576 C 0.4276 0.68408 0.3907 0.0
C1577 C 0.3393 0.18949 0.36699 0.0
C1578 C 0.34255 0.25979 0.36801 0.0
C1579 C 0.34645 0.14739 0.3477 0.0
C1580 C 0.35617 0.17655 0.32867 0.0
H1581 H 0.33401 0.16504 0.38467 0.0
H1582 H 0.34652 0.09254 0.35139 0.0
S1583 S 0.35845 0.36044 0.31008 0.0
N1584 N 0.34961 0.35848 0.34024 0.0
N1585 N 0.36153 0.27975 0.30157 0.0
C1586 C 0.35483 0.24726 0.32321 0.0
C1587 C 0.34839 0.28974 0.34388 0.0
C1588 C 0.59847 1.02198 0.23535 0.0
C1589 C 0.5932 0.981 0.21364 0.0
C1590 C 0.60498 0.99118 0.25882 0.0
C1591 C 0.60682 0.91944 0.25963 0.0
H1592 H 0.60006 1.07626 0.23172 0.0
H1593 H 0.61128 1.0236 0.27231 0.0
S1594 S 0.58575 0.79578 0.21929 0.0
N1595 N 0.58309 0.86992 0.20295 0.0
N1596 N 0.59628 0.81169 0.24623 0.0
C1597 C 0.59754 0.88061 0.24338 0.0
C1598 C 0.59047 0.91204 0.2201 0.0
C1599 C 0.66326 0.3738 0.22366 0.0
C1600 C 0.66174 0.43226 0.24059 0.0
C1601 C 0.66232 0.38175 0.19435 0.0
C1602 C 0.66182 0.44799 0.18267 0.0
H1603 H 0.66141 0.32343 0.23265 0.0
H1604 H 0.6608 0.33715 0.18128 0.0
S1605 S 0.66912 0.60974 0.2197 0.0
N1606 N 0.66845 0.55098 0.24488 0.0
N1607 N 0.66647 0.56895 0.18983 0.0
C1608 C 0.66518 0.50387 0.19966 0.0
C1609 C 0.66643 0.4941 0.22915 0.0
C1610 C 0.42167 0.13569 0.84691 0.0
C1611 C 0.41985 0.20715 0.84901 0.0
C1612 C 0.43099 0.10177 0.86551 0.0
C1613 C 0.43747 0.13987 0.88687 0.0
H1614 H 0.41409 0.10533 0.83534 0.0
H1615 H 0.42997 1.04679 0.86795 0.0
S1616 S 0.4456 0.32388 0.88176 0.0
N1617 N 0.4319 0.31302 0.86047 0.0
N1618 N 0.44978 0.24713 0.89442 0.0
C1619 C 0.44027 0.20849 0.88025 0.0
C1620 C 0.43064 0.24393 0.86219 0.0
C1621 C 0.35963 0.68559 0.86879 0.0
C1622 C 0.36447 0.61976 0.86092 0.0
C1623 C 0.3613 0.70828 0.89657 0.0
C1624 C 0.36727 0.66443 0.91695 0.0
H1625 H 0.35679 0.72293 0.85275 0.0
H1626 H 0.35896 0.76125 0.90153 0.0
S1627 S 0.37611 0.4809 0.90913 0.0
N1628 N 0.37052 0.50536 0.87767 0.0
N1629 N 0.37467 0.54884 0.9292 0.0
C1630 C 0.36946 0.59542 0.91037 0.0
C1631 C 0.36715 0.572 0.88261 0.0
C1632 C 1.00895 0.61901 0.06981 0.0
C1633 C 0.99572 0.59282 0.06109 0.0
C1634 C 0.02193 0.59543 0.05832 0.0
C1635 C 0.02244 0.54409 1.03755 0.0
H1636 H 1.00928 0.65927 0.08535 0.0
H1637 H 0.0317 0.61835 0.06566 0.0
S1638 S 0.99091 0.45508 1.00853 0.0
N1639 N 0.98404 0.51062 1.03094 0.0
N1640 N 1.00833 0.46583 1.00966 0.0
C1641 C 1.00928 0.51698 1.02878 0.0
C1642 C 0.99602 0.5413 1.04043 0.0
C1643 C 0.26852 0.85633 0.07551 0.0
C1644 C 0.27542 0.79844 0.06404 0.0
C1645 C 0.25548 0.88145 0.06457 0.0
C1646 C 0.24864 0.84998 1.0416 0.0
H1647 H 0.27333 0.88319 0.09289 0.0
H1648 H 0.25081 0.92677 0.07395 0.0
S1649 S 0.26136 0.69273 1.00566 0.0
N1650 N 0.2737 0.70752 1.0295 0.0
N1651 N 0.24945 0.7548 1.00905 0.0
C1652 C 0.25528 0.79135 1.03029 0.0
C1653 C 0.26853 0.76566 1.04145 0.0
C1654 C 0.02538 0.82008 0.28966 0.0
C1655 C 0.02596 0.86771 0.3119 0.0
C1656 C 0.01231 0.7967 0.27862 0.0
C1657 C 0.99901 0.8194 0.28918 0.0
H1658 H 0.03517 0.79975 0.28082 0.0
H1659 H 0.01265 0.75924 0.26192 0.0
S1660 S 0.99425 0.94856 0.34561 0.0
N1661 N 1.0117 0.93988 0.34279 0.0
N1662 N 0.98739 0.89576 0.32238 0.0
C1663 C 0.99939 0.86775 0.31114 0.0
C1664 C 0.01272 0.89178 0.32235 0.0
C1665 C 0.26761 0.6273 0.31535 0.0
C1666 C 0.27475 0.59562 0.2926 0.0
C1667 C 0.25433 0.60362 0.32548 0.0
C1668 C 0.24743 0.54713 0.31333 0.0
H1669 H 0.27224 0.67169 0.32523 0.0
H1670 H 0.24935 0.6304 0.34284 0.0
S1671 S 0.26203 0.44162 0.25499 0.0
N1672 N 0.27411 0.50156 0.25945 0.0
N1673 N 0.24934 0.45756 0.27823 0.0
C1674 C 0.25454 0.51434 0.29084 0.0
C1675 C 0.26808 0.53835 0.28058 0.0
C1676 C 0.77019 0.27731 1.03192 0.0
C1677 C 0.77732 0.3096 0.05433 0.0
C1678 C 0.75703 0.30223 1.02139 0.0
C1679 C 0.75029 0.36064 1.0328 0.0
H1680 H 0.77466 0.23127 1.02277 0.0
H1681 H 0.75197 0.27463 1.0045 0.0
S1682 S 0.76516 0.46896 0.0895 0.0
N1683 N 0.777 0.40661 0.08601 0.0
N1684 N 0.7525 0.45316 0.06645 0.0
C1685 C 0.7575 0.39444 0.05471 0.0
C1686 C 0.77088 0.3691 0.06539 0.0
C1687 C 1.0024 0.27189 0.81174 0.0
C1688 C 0.996 0.30174 0.78762 0.0
C1689 C 0.01536 0.29644 0.82284 0.0
C1690 C 0.0226 0.35218 0.81039 0.0
H1691 H 0.99747 0.2282 0.82193 0.0
H1692 H 0.01988 0.27056 0.84102 0.0
S1693 S 1.00971 0.45349 0.74872 0.0
N1694 N 0.99758 0.3935 0.75293 0.0
N1695 N 0.02165 0.43956 0.77361 0.0
C1696 C 0.01612 0.38351 0.78668 0.0
C1697 C 1.00297 0.35841 0.77537 0.0
C1698 C 0.76774 0.63306 0.8035 0.0
C1699 C 0.77472 0.60177 0.78049 0.0
C1700 C 0.75463 0.60859 0.8141 0.0
C1701 C 0.7478 0.55149 0.80227 0.0
H1702 H 0.77239 0.67753 0.81328 0.0
H1703 H 0.74975 0.63515 0.83163 0.0
S1704 S 0.76209 0.44737 0.74316 0.0
N1705 N 0.77401 0.50828 0.74713 0.0
N1706 N 0.74963 0.46208 0.76701 0.0
C1707 C 0.75476 0.51926 0.77943 0.0
C1708 C 0.76808 0.54435 0.7686 0.0
C1709 C 1.00149 1.06593 0.54263 0.0
C1710 C 1.00065 0.11823 0.56306 0.0
C1711 C 0.01461 1.04335 0.53124 0.0
C1712 C 0.0277 1.07119 0.53977 0.0
H1713 H 0.99188 1.04141 0.53542 0.0
H1714 H 0.01449 1.00247 0.51595 0.0
S1715 S 0.03177 0.21123 0.59166 0.0
N1716 N 0.0144 0.19879 0.5905 0.0
N1717 N 0.03892 0.15563 0.5696 0.0
C1718 C 0.0271 0.12343 0.56019 0.0
C1719 C 0.01368 0.1469 0.57169 0.0
C1720 C 0.26938 0.26889 0.54269 0.0
C1721 C 0.27606 0.30034 0.56585 0.0
C1722 C 0.25621 0.29288 0.53186 0.0
C1723 C 0.249 0.34965 0.54361 0.0
H1724 H 0.27429 0.22459 0.53298 0.0
H1725 H 0.25155 0.26608 0.5143 0.0
S1726 S 0.26247 0.45468 0.60275 0.0
N1727 N 0.27469 0.39416 0.59901 0.0
N1728 N 0.25023 0.43933 0.57877 0.0
C1729 C 0.25569 0.38224 0.56648 0.0
C1730 C 0.26907 0.35767 0.57753 0.0
C1731 C 0.27046 1.0583 0.77864 0.0
C1732 C 0.27731 0.11472 0.79098 0.0
C1733 C 0.25736 1.03302 0.78914 0.0
C1734 C 0.25033 1.063 0.81244 0.0
H1735 H 0.27542 1.03245 0.76101 0.0
H1736 H 0.25283 0.98854 0.77916 0.0
S1737 S 0.26279 0.21716 0.85032 0.0
N1738 N 0.27534 0.20302 0.82659 0.0
N1739 N 0.2509 0.15633 0.84596 0.0
C1740 C 0.25688 0.12068 0.82444 0.0
C1741 C 0.27024 0.14623 0.81383 0.0
C1742 C 0.76003 0.87147 0.52425 0.0
C1743 C 0.74681 0.84545 0.53357 0.0
C1744 C 0.77312 0.84696 0.53524 0.0
C1745 C 0.77372 0.79521 0.55622 0.0
H1746 H 0.76028 0.91214 0.50861 0.0
H1747 H 0.78289 0.86947 0.52742 0.0
S1748 S 0.74235 0.70468 0.58603 0.0
N1749 N 0.73537 0.76124 0.56391 0.0
N1750 N 0.75975 0.71582 0.58444 0.0
C1751 C 0.7606 0.76794 0.56538 0.0
C1752 C 0.74728 0.79276 0.55414 0.0
C1753 C 0.75576 1.01088 0.28526 0.0
C1754 C 0.74892 1.0421 0.30847 0.0
C1755 C 0.76896 1.03455 0.27462 0.0
C1756 C 0.77605 0.09097 0.28651 0.0
H1757 H 0.75091 0.96712 0.27532 0.0
H1758 H 0.77369 1.00796 0.25694 0.0
S1759 S 0.76218 0.19475 0.34617 0.0
N1760 N 0.75008 0.13475 0.34213 0.0
N1761 N 0.77453 0.17967 0.32213 0.0
C1762 C 0.76922 0.12306 0.30957 0.0
C1763 C 0.75582 0.09866 0.32048 0.0
C1764 C 0.50765 0.54881 0.5707 0.0
C1765 C 0.50042 0.60577 0.55901 0.0
C1766 C 0.52081 0.5256 0.55964 0.0
C1767 C 0.52745 0.55835 0.53644 0.0
H1768 H 0.50297 0.52094 0.58819 0.0
H1769 H 0.52567 0.48045 0.56903 0.0
S1770 S 0.51383 0.71466 0.50015 0.0
N1771 N 0.50156 0.69758 0.52416 0.0
N1772 N 0.52612 0.65432 0.50366 0.0
C1773 C 0.52052 0.61653 0.52509 0.0
C1774 C 0.50712 0.64008 0.53629 0.0
C1775 C 0.51771 0.79931 0.82298 0.0
C1776 C 0.52485 0.85619 0.81132 0.0
C1777 C 0.50481 0.77522 0.81151 0.0
C1778 C 0.49831 0.80692 0.78785 0.0
H1779 H 0.5223 0.77208 0.84078 0.0
H1780 H 0.50002 0.7303 0.82101 0.0
S1781 S 0.51175 0.96263 0.75132 0.0
N1782 N 0.52376 0.94675 0.7759 0.0
N1783 N 0.49968 0.90197 0.75465 0.0
C1784 C 0.50516 0.865 0.77649 0.0
C1785 C 0.5183 0.88944 0.78812 0.0
C1786 C 0.51824 0.36333 0.28485 0.0
C1787 C 0.52519 0.3306 0.30774 0.0
C1788 C 0.50503 0.34018 0.27437 0.0
C1789 C 0.498 0.28326 0.28634 0.0
H1790 H 0.52291 0.40837 0.2752 0.0
H1791 H 0.50017 0.36799 0.25703 0.0
S1792 S 0.51216 0.17445 0.34464 0.0
N1793 N 0.5243 0.2345 0.34054 0.0
N1794 N 0.49965 0.19177 0.32123 0.0
C1795 C 0.50497 0.24915 0.30883 0.0
C1796 C 0.51844 0.27252 0.31941 0.0
C1797 C 0.50321 0.1032 1.03405 0.0
C1798 C 0.49675 1.07519 0.0585 0.0
C1799 C 0.51634 0.0782 1.02342 0.0
C1800 C 0.52382 1.02411 1.03677 0.0
H1801 H 0.49824 0.14619 1.02327 0.0
H1802 H 0.52087 0.10282 1.00496 0.0
S1803 S 0.51108 0.92714 0.09954 0.0
N1804 N 0.49857 0.98572 0.09427 0.0
N1805 N 0.52316 0.94008 0.07476 0.0
C1806 C 0.51735 0.99445 0.0608 0.0
C1807 C 0.50392 1.01955 0.07151 0.0
C1808 C 0.10697 0.70007 0.15878 0.0
C1809 C 0.09487 0.65796 0.15764 0.0
C1810 C 0.10641 0.76506 0.17077 0.0
C1811 C 0.09383 0.79054 0.18299 0.0
H1812 H 0.11708 0.6829 0.15023 0.0
H1813 H 0.11613 0.79461 0.17118 0.0
S1814 S 0.05907 0.70134 0.18561 0.0
N1815 N 0.06977 0.64707 0.16917 0.0
N1816 N 0.06883 0.76896 0.19303 0.0
C1817 C 0.08157 0.74934 0.18204 0.0
C1818 C 0.08206 0.68325 0.16901 0.0
C1819 C 0.19206 0.61549 0.15266 0.0
C1820 C 0.19482 0.61177 0.18178 0.0
C1821 C 0.19158 0.67859 0.1384 0.0
C1822 C 0.19389 0.7403 0.1526 0.0
H1823 H 0.18926 0.56991 0.14112 0.0
H1824 H 0.18819 0.67952 0.11661 0.0
S1825 S 0.20403 0.7588 0.22737 0.0
N1826 N 0.20198 0.67549 0.22333 0.0
N1827 N 0.20073 0.79397 0.19627 0.0
C1828 C 0.198 0.73718 0.18092 0.0
C1829 C 0.19858 0.67285 0.19556 0.0
C1830 C 0.94006 0.47062 0.95094 0.0
C1831 C 0.94251 0.52994 0.93452 0.0
C1832 C 0.93755 0.40674 0.93852 0.0
C1833 C 0.93764 0.39876 0.90912 0.0
H1834 H 0.93958 0.47375 0.97368 0.0
H1835 H 0.93534 0.36323 0.95209 0.0
S1836 S 0.94486 0.53583 0.85638 0.0
N1837 N 0.9458 0.57502 0.887 0.0
N1838 N 0.94129 0.45495 0.8638 0.0
C1839 C 0.94083 0.45666 0.8924 0.0
C1840 C 0.94322 0.5221 0.90504 0.0
C1841 C 0.82604 0.41766 0.917 0.0
C1842 C 0.82862 0.41413 0.94609 0.0
C1843 C 0.82407 0.48112 0.90328 0.0
C1844 C 0.82495 0.54319 0.91819 0.0
H1845 H 0.82673 0.37167 0.90443 0.0
H1846 H 0.82314 0.48152 0.88055 0.0
S1847 S 0.82982 0.55987 0.99538 0.0
N1848 N 0.83054 0.47653 0.98979 0.0
N1849 N 0.82694 0.59584 0.96427 0.0
C1850 C 0.82636 0.53954 0.94768 0.0
C1851 C 0.82822 0.47496 0.96156 0.0
C1852 C 0.07567 0.26661 0.66631 0.0
C1853 C 0.08918 0.27371 0.67864 0.0
C1854 C 0.07267 0.21031 0.64907 0.0
C1855 C 0.08291 0.15853 0.64481 0.0
H1856 H 0.06754 0.30548 0.66945 0.0
H1857 H 0.06231 0.20698 0.6392 0.0
S1858 S 0.11983 0.15381 0.67251 0.0
N1859 N 0.11289 0.22525 0.68494 0.0
N1860 N 0.10699 0.11814 0.65424 0.0
C1861 C 0.09631 0.16473 0.65755 0.0
C1862 C 0.09951 0.22274 0.67408 0.0
C1863 C 0.18753 0.19088 0.70625 0.0
C1864 C 0.18818 0.13378 0.68836 0.0
C1865 C 0.18733 0.25785 0.6953 0.0
C1866 C 0.18832 0.27005 0.66617 0.0
H1867 H 0.18643 0.18375 0.72882 0.0
H1868 H 0.18612 0.3003 0.70969 0.0
S1869 S 0.19083 0.1379 0.61053 0.0
N1870 N 0.18994 0.09354 0.64026 0.0
N1871 N 0.19044 0.21938 0.61964 0.0
C1872 C 0.18961 0.21336 0.64814 0.0
C1873 C 0.18929 0.14518 0.65925 0.0
C1874 C 0.95038 0.96166 0.45165 0.0
C1875 C 0.94984 1.02083 0.43451 0.0
C1876 C 0.95146 0.8963 0.43999 0.0
C1877 C 0.95194 0.88743 0.41066 0.0
H1878 H 0.94947 0.96564 0.47434 0.0
H1879 H 0.95118 0.85243 0.4541 0.0
S1880 S 0.9522 1.0267 0.35662 0.0
N1881 N 0.95091 1.06712 0.38694 0.0
N1882 N 0.95303 0.94434 0.3647 0.0
C1883 C 0.95231 0.9466 0.39329 0.0
C1884 C 0.95124 1.01332 0.40529 0.0
C1885 C 0.84094 0.93625 0.44615 0.0
C1886 C 0.83651 0.88054 0.42983 0.0
C1887 C 0.84174 1.00245 0.43461 0.0
C1888 C 0.8377 1.01578 0.40659 0.0
H1889 H 0.8444 0.92815 0.46768 0.0
H1890 H 0.84579 1.04326 0.44761 0.0
S1891 S 0.8241 0.88792 0.35594 0.0
N1892 N 0.82747 0.84289 0.38481 0.0
N1893 N 0.82829 0.96786 0.36328 0.0
C1894 C 0.83259 0.96085 0.39046 0.0
C1895 C 0.8322 0.89304 0.40202 0.0
C1896 C 0.58058 0.64744 0.68665 0.0
C1897 C 0.57931 0.63952 0.65743 0.0
C1898 C 0.57795 0.71061 0.69936 0.0
C1899 C 0.57428 0.76914 0.68328 0.0
H1900 H 0.58405 0.60488 0.6998 0.0
H1901 H 0.5796 0.71398 0.72188 0.0
S1902 S 0.56854 0.77395 0.60593 0.0
N1903 N 0.57312 0.69367 0.61278 0.0
N1904 N 0.56852 0.81349 0.63656 0.0
C1905 C 0.57229 0.76109 0.65409 0.0
C1906 C 0.57473 0.69604 0.64119 0.0
C1907 C 0.68645 0.74817 0.68637 0.0
C1908 C 0.68446 0.75992 0.65741 0.0
C1909 C 0.68674 0.68125 0.69751 0.0
C1910 C 0.68448 0.62405 0.68021 0.0
H1911 H 0.68763 0.79098 0.70054 0.0
H1912 H 0.68807 0.67453 0.72002 0.0
S1913 S 0.67852 0.6276 0.60308 0.0
N1914 N 0.68053 0.70882 0.61156 0.0
N1915 N 0.68019 0.58366 0.63278 0.0
C1916 C 0.68252 0.6352 0.65124 0.0
C1917 C 0.68274 0.70301 0.63976 0.0
C1918 C 0.44431 0.43545 0.39543 0.0
C1919 C 0.44427 0.37464 0.41168 0.0
C1920 C 0.44646 0.49968 0.40783 0.0
C1921 C 0.44854 0.50591 0.43705 0.0
H1922 H 0.4421 0.43393 0.37306 0.0
H1923 H 0.44578 0.54498 0.39456 0.0
S1924 S 0.45167 0.36202 0.48834 0.0
N1925 N 0.44829 0.32446 0.45806 0.0
N1926 N 0.45202 0.44503 0.4814 0.0
C1927 C 0.44936 0.4453 0.45327 0.0
C1928 C 0.44731 0.37981 0.4406 0.0
C1929 C 0.343 0.53663 0.45495 0.0
C1930 C 0.33722 0.53855 0.42761 0.0
C1931 C 0.34125 0.47967 0.47279 0.0
C1932 C 0.33385 0.42106 0.46418 0.0
H1933 H 0.34911 0.57932 0.46272 0.0
H1934 H 0.34606 0.48124 0.49342 0.0
S1935 S 0.31512 0.40206 0.39606 0.0
N1936 N 0.32279 0.47777 0.39353 0.0
N1937 N 0.31933 0.3714 0.42752 0.0
C1938 C 0.32752 0.42291 0.43737 0.0
C1939 C 0.32926 0.48132 0.41903 0.0
C1940 C 0.57044 0.1714 0.17134 0.0
C1941 C 0.57785 0.15914 0.14611 0.0
C1942 C 0.57112 0.23551 0.18457 0.0
C1943 C 0.57911 0.28964 0.17278 0.0
H1944 H 0.56463 0.13039 0.1816 0.0
H1945 H 0.56583 0.24164 0.20471 0.0
S1946 S 0.59848 0.28601 0.10452 0.0
N1947 N 0.59213 0.20787 0.1083 0.0
N1948 N 0.59316 0.32831 0.13261 0.0
C1949 C 0.58574 0.27895 0.14654 0.0
C1950 C 0.5852 0.21368 0.13337 0.0
C1951 C 0.69371 0.26582 0.18814 0.0
C1952 C 0.69344 0.27613 0.15874 0.0
C1953 C 0.69142 0.20075 0.20016 0.0
C1954 C 0.68849 0.1435 0.18332 0.0
H1955 H 0.69536 0.30865 0.20209 0.0
H1956 H 0.6914 0.19595 0.22291 0.0
S1957 S 0.68739 0.14119 0.10525 0.0
N1958 N 0.69082 0.22164 0.11301 0.0
N1959 N 0.68613 0.10047 0.13575 0.0
C1960 C 0.68855 0.15251 0.15393 0.0
C1961 C 0.69115 0.21841 0.14162 0.0
C1962 C 0.44269 0.89956 0.96561 0.0
C1963 C 0.44638 0.96341 0.95395 0.0
C1964 C 0.44414 0.83918 0.9501 0.0
C1965 C 0.44903 0.84076 0.92204 0.0
H1966 H 0.43739 0.89704 0.98591 0.0
H1967 H 0.44015 0.79216 0.95934 0.0
S1968 S 0.46288 0.99359 0.88411 0.0
N1969 N 0.45735 1.02351 0.91474 0.0
N1970 N 0.45988 0.9103 0.88506 0.0
C1971 C 0.45421 0.90338 0.91128 0.0
C1972 C 0.45292 0.96475 0.92738 0.0
C1973 C 0.33257 0.95682 0.89899 0.0
C1974 C 0.33338 1.01446 0.91656 0.0
C1975 C 0.33099 0.89046 0.91023 0.0
C1976 C 0.32991 0.87893 0.93949 0.0
H1977 H 0.33387 0.96245 0.87641 0.0
H1978 H 0.33112 0.84765 0.89585 0.0
S1979 S 0.3303 1.01351 0.99447 0.0
N1980 N 0.33217 1.05623 0.96454 0.0
N1981 N 0.32893 0.93216 0.98572 0.0
C1982 C 0.32989 0.93671 0.95719 0.0
C1983 C 0.33171 1.00421 0.94572 0.0
C1984 C 0.15397 0.6938 0.09107 0.0
C1985 C 0.14664 0.7573 0.09113 0.0
C1986 C 0.14667 0.62981 0.09064 0.0
C1987 C 0.13157 0.62508 0.08964 0.0
H1988 H 0.16544 0.69328 0.09317 0.0
H1989 H 0.153 0.58332 0.09207 0.0
S1990 S 0.10721 0.77614 0.08785 0.0
N1991 N 0.12321 0.81038 0.08937 0.0
N1992 N 0.10975 0.69237 0.08731 0.0
C1993 C 0.12419 0.68845 0.0882 0.0
C1994 C 0.1316 0.75339 0.08933 0.0
C1995 C 0.13471 0.65746 0.27164 0.0
C1996 C 0.14528 0.63785 0.25166 0.0
C1997 C 0.12723 0.72192 0.27029 0.0
C1998 C 0.12963 0.77108 0.24859 0.0
H1999 H 0.13224 0.62261 0.2888 0.0
H2000 H 0.11959 0.73356 0.28672 0.0
S2001 S 0.15427 0.74087 0.18814 0.0
N2002 N 0.15651 0.67169 0.20789 0.0
N2003 N 0.14254 0.78951 0.20475 0.0
C2004 C 0.13974 0.75043 0.22785 0.0
C2005 C 0.14746 0.68538 0.22951 0.0
C2006 C 0.8717 0.46006 1.01078 0.0
C2007 C 0.87868 0.39643 1.00669 0.0
C2008 C 0.87936 0.5228 1.01376 0.0
C2009 C 0.89452 0.52623 1.01287 0.0
H2010 H 0.86018 0.46218 1.01015 0.0
H2011 H 0.87322 0.56969 1.01567 0.0
S2012 S 0.91805 0.37322 1.00577 0.0
N2013 N 0.90185 0.34123 1.00393 0.0
N2014 N 0.91597 0.45663 1.00988 0.0
C2015 C 0.90156 0.4623 1.01011 0.0
C2016 C 0.89377 0.39872 1.00691 0.0
C2017 C 0.8829 0.49502 0.81914 0.0
C2018 C 0.87261 0.51557 0.83951 0.0
C2019 C 0.89171 0.43503 0.82254 0.0
C2020 C 0.89087 0.3914 0.84658 0.0
H2021 H 0.88411 0.52534 0.80009 0.0
H2022 H 0.89906 0.42202 0.80577 0.0
S2023 S 0.86728 0.42549 0.9081 0.0
N2024 N 0.86331 0.48833 0.88599 0.0
N2025 N 0.8795 0.37834 0.89223 0.0
C2026 C 0.881 0.4128 0.86745 0.0
C2027 C 0.87207 0.47357 0.86401 0.0
C2028 C 0.14359 0.14981 0.61429 0.0
C2029 C 0.13046 0.13731 0.6002 0.0
C2030 C 0.15068 0.21448 0.6137 0.0
C2031 C 0.14525 0.27233 0.599 0.0
H2032 H 0.14847 0.10917 0.62665 0.0
H2033 H 0.16042 0.21946 0.62556 0.0
S2034 S 0.11236 0.26779 0.55521 0.0
N2035 N 0.11308 0.19001 0.5691 0.0
N2036 N 0.12622 0.30949 0.56769 0.0
C2037 C 0.13233 0.26046 0.58419 0.0
C2038 C 0.12508 0.19427 0.58483 0.0
C2039 C 0.1485 0.19076 0.72483 0.0
C2040 C 0.14892 0.14828 0.74915 0.0
C2041 C 0.14086 0.25448 0.72395 0.0
C2042 C 0.13255 0.27919 0.7469 0.0
H2043 H 0.15409 0.17439 0.70603 0.0
H2044 H 0.14114 0.28387 0.70451 0.0
S2045 S 0.12993 0.18863 0.81597 0.0
N2046 N 0.14045 0.13797 0.79731 0.0
N2047 N 0.12572 0.25406 0.7952 0.0
C2048 C 0.13291 0.23717 0.77138 0.0
C2049 C 0.14109 0.17323 0.77258 0.0
C2050 C 0.87936 0.92911 0.46473 0.0
C2051 C 0.87558 0.89463 0.49002 0.0
C2052 C 0.88728 0.99149 0.46428 0.0
C2053 C 0.89258 1.02304 0.48901 0.0
H2054 H 0.87612 0.90761 0.44481 0.0
H2055 H 0.88952 1.01473 0.44397 0.0
S2056 S 0.8862 0.95405 0.56122 0.0
N2057 N 0.87792 0.89879 0.54088 0.0
N2058 N 0.89321 1.01233 0.53995 0.0
C2059 C 0.88904 0.98869 0.51451 0.0
C2060 C 0.8805 0.92617 0.51502 0.0
C2061 C 0.90285 0.94979 0.35156 0.0
C2062 C 0.89703 0.88577 0.34393 0.0
C2063 C 0.89459 1.01185 0.35203 0.0
C2064 C 0.87988 1.0151 0.3448 0.0
H2065 H 0.91393 0.95213 0.35775 0.0
H2066 H 0.89991 1.05824 0.35824 0.0
S2067 S 0.8591 0.86331 0.32278 0.0
N2068 N 0.87515 0.8314 0.3287 0.0
N2069 N 0.86007 0.94605 0.3294 0.0
C2070 C 0.87394 0.95164 0.33693 0.0
C2071 C 0.88232 0.88825 0.33657 0.0
C2072 C 0.63466 0.65336 0.6291 0.0
C2073 C 0.62965 0.61921 0.60477 0.0
C2074 C 0.64221 0.71673 0.6278 0.0
C2075 C 0.6459 0.74931 0.60201 0.0
H2076 H 0.63239 0.63167 0.64969 0.0
H2077 H 0.6452 0.74061 0.6474 0.0
S2078 S 0.63628 0.68129 0.53163 0.0
N2079 N 0.62945 0.62425 0.55369 0.0
N2080 N 0.64406 0.73972 0.55121 0.0
C2081 C 0.64145 0.71456 0.57744 0.0
C2082 C 0.6333 0.65103 0.5788 0.0
C2083 C 0.62844 0.62978 0.74357 0.0
C2084 C 0.64334 0.62462 0.74867 0.0
C2085 C 0.62065 0.69318 0.74457 0.0
C2086 C 0.62722 0.75661 0.75052 0.0
H2087 H 0.62265 0.58399 0.73835 0.0
H2088 H 0.60936 0.69238 0.74004 0.0
S2089 S 0.66612 0.77441 0.76468 0.0
N2090 N 0.66424 0.69144 0.75959 0.0
N2091 N 0.65007 0.80846 0.76113 0.0
C2092 C 0.64217 0.75227 0.75541 0.0
C2093 C 0.65005 0.6876 0.75455 0.0
C2094 C 0.38161 0.51221 0.52048 0.0
C2095 C 0.39536 0.51842 0.50808 0.0
C2096 C 0.37334 0.45083 0.51886 0.0
C2097 C 0.37807 0.39231 0.50394 0.0
H2098 H 0.377 0.55592 0.53115 0.0
H2099 H 0.36283 0.45058 0.52829 0.0
S2100 S 0.41309 0.37908 0.46768 0.0
N2101 N 0.41323 0.45705 0.4809 0.0
N2102 N 0.39778 0.34503 0.47727 0.0
C2103 C 0.39189 0.39727 0.49213 0.0
C2104 C 0.40043 0.45889 0.49427 0.0
C2105 C 0.39104 0.42111 0.3295 0.0
C2106 C 0.39347 0.37972 0.35383 0.0
C2107 C 0.38235 0.48209 0.33 0.0
C2108 C 0.37591 0.50685 0.35509 0.0
H2109 H 0.39564 0.40545 0.3096 0.0
H2110 H 0.38101 0.51111 0.31065 0.0
S2111 S 0.37941 0.42211 0.42489 0.0
N2112 N 0.38855 0.37094 0.40389 0.0
N2113 N 0.37325 0.48507 0.40498 0.0
C2114 C 0.37854 0.46684 0.37947 0.0
C2115 C 0.38695 0.40398 0.37882 0.0
C2116 C 0.65131 0.23179 0.10409 0.0
C2117 C 0.64757 0.28292 0.08412 0.0
C2118 C 0.64335 0.17047 0.10786 0.0
C2119 C 0.63112 0.15435 0.09165 0.0
H2120 H 0.6602 0.24043 0.11804 0.0
H2121 H 0.64678 0.13555 0.12439 0.0
S2122 S 0.61705 0.26739 1.03459 0.0
N2123 N 0.63074 0.31073 1.04685 0.0
N2124 N 0.61631 0.19548 0.05318 0.0
C2125 C 0.62757 0.20354 0.07065 0.0
C2126 C 0.63554 0.26729 0.06722 0.0
C2127 C 0.62942 0.14819 0.23365 0.0
C2128 C 0.64234 0.13793 0.24875 0.0
C2129 C 0.62053 0.20751 0.23694 0.0
C2130 C 0.62375 0.2612 0.25578 0.0
H2131 H 0.62604 0.10969 0.2189 0.0
H2132 H 0.61092 0.21108 0.22439 0.0
S2133 S 0.65644 0.26314 0.30018 0.0
N2134 N 0.65787 0.18996 0.28314 0.0
N2135 N 0.6414 0.29913 0.28949 0.0
C2136 C 0.63669 0.25193 0.27097 0.0
C2137 C 0.64581 0.19155 0.26742 0.0
C2138 C 0.38764 0.89059 1.03 0.0
C2139 C 0.37655 0.87055 1.01148 0.0
C2140 C 0.39582 0.95185 1.02564 0.0
C2141 C 0.39353 0.99627 1.00223 0.0
H2142 H 0.39011 0.85837 0.04803 0.0
H2143 H 0.4042 0.96352 1.04041 0.0
S2144 S 0.36703 0.96277 0.94532 0.0
N2145 N 0.36472 0.89876 0.96765 0.0
N2146 N 0.37943 1.01066 0.95938 0.0
C2147 C 0.38251 0.97559 0.98351 0.0
C2148 C 0.37427 0.91413 0.98809 0.0
C2149 C 0.4022 0.93924 0.86185 0.0
C2150 C 0.39613 0.87864 0.85113 0.0
C2151 C 0.39427 1.00183 0.86433 0.0
C2152 C 0.37987 1.00913 0.85539 0.0
H2153 H 0.41313 0.93811 0.86902 0.0
H2154 H 0.3996 1.04544 0.8733 0.0
S2155 S 0.35872 0.86722 0.82547 0.0
N2156 N 0.37441 0.83143 0.8317 0.0
N2157 N 0.36004 0.94781 0.83536 0.0
C2158 C 0.37373 0.94918 0.84441 0.0
C2159 C 0.38167 0.88493 0.84256 0.0
loop_
_geom_bond_atom_site_label_1
_geom_bond_atom_site_label_2
_geom_bond_distance
_geom_bond_site_symmetry_2
_ccdc_geom_bond_type
O0 Tb1 2.292 . S
O0 C3 1.255 . S
Tb1 O0 2.292 . S
Tb1 O17 2.326 . S
Tb1 O19 2.500 . S
Tb1 O20 2.473 . S
Tb1 O23 2.324 . S
Eu2 O6 2.292 . S
Eu2 C7 2.852 . S
Eu2 O18 2.324 . S
Eu2 O22 2.326 . S
Eu2 O24 2.500 . S
Eu2 O25 2.473 . S
C3 O0 1.255 . S
C3 O4 1.247 . S
O4 C3 1.247 . S
C5 O17 1.242 . S
C5 O18 1.258 . S
O6 Eu2 2.292 . S
O6 C8 1.255 . S
C7 Eu2 2.852 . S
C7 C11 1.503 . S
C7 O24 1.273 . S
C7 O25 1.257 . S
C8 O6 1.255 . S
C8 O9 1.247 . S
O9 C8 1.247 . S
C10 O22 1.242 . S
C10 O23 1.258 . S
C11 C7 1.503 . S
C11 C12 1.379 1_554 S
C11 C16 1.392 1_554 S
C12 C11 1.379 1_556 S
C12 C13 1.404 . S
C12 H26 0.929 . S
C13 C12 1.404 . S
C13 C14 1.389 . S
C14 C13 1.389 . S
C14 C15 1.399 . S
C14 H27 0.931 . S
C15 C14 1.399 . S
C15 C16 1.390 . S
C16 C11 1.392 1_556 S
C16 C15 1.390 . S
C16 H28 0.929 1_556 S
O17 Tb1 2.326 . S
O17 C5 1.242 . S
O18 Eu2 2.324 . S
O18 C5 1.258 . S
O19 Tb1 2.500 . S
O19 C21 1.273 . S
O20 Tb1 2.473 . S
O20 C21 1.257 . S
C21 O19 1.273 . S
C21 O20 1.257 . S
O22 Eu2 2.326 . S
O22 C10 1.242 . S
O23 Tb1 2.324 . S
O23 C10 1.258 . S
O24 Eu2 2.500 . S
O24 C7 1.273 . S
O25 Eu2 2.473 . S
O25 C7 1.257 . S
H26 C12 0.929 . S
H27 C14 0.931 . S
H28 C16 0.929 1_554 S
O29 Tb30 2.292 1_545 S
O29 C32 1.255 . S
Tb30 O29 2.292 1_565 S
Tb30 O46 2.326 . S
Tb30 O48 2.500 . S
Tb30 O49 2.473 . S
Tb30 O52 2.324 . S
Eu31 O35 2.292 . S
Eu31 C36 2.852 . S
Eu31 O47 2.324 . S
Eu31 O51 2.326 . S
Eu31 O53 2.500 . S
Eu31 O54 2.473 . S
C32 O29 1.255 . S
C32 O33 1.247 . S
O33 C32 1.247 . S
C34 O46 1.242 . S
C34 O47 1.258 . S
O35 Eu31 2.292 . S
O35 C37 1.255 . S
C36 Eu31 2.852 . S
C36 C40 1.503 . S
C36 O53 1.273 . S
C36 O54 1.257 . S
C37 O35 1.255 . S
C37 O38 1.247 . S
O38 C37 1.247 . S
C39 O51 1.242 . S
C39 O52 1.258 . S
C40 C36 1.503 . S
C40 C41 1.379 1_554 S
C40 C45 1.392 1_554 S
C41 C40 1.379 1_556 S
C41 C42 1.404 . S
C41 H55 0.929 . S
C42 C41 1.404 . S
C42 C43 1.389 . S
C43 C42 1.389 . S
C43 C44 1.399 . S
C43 H56 0.931 . S
C44 C43 1.399 . S
C44 C45 1.390 . S
C45 C40 1.392 1_556 S
C45 C44 1.390 . S
C45 H57 0.929 1_556 S
O46 Tb30 2.326 . S
O46 C34 1.242 . S
O47 Eu31 2.324 . S
O47 C34 1.258 . S
O48 Tb30 2.500 . S
O48 C50 1.273 . S
O49 Tb30 2.473 . S
O49 C50 1.257 . S
C50 O48 1.273 . S
C50 O49 1.257 . S
O51 Eu31 2.326 . S
O51 C39 1.242 . S
O52 Tb30 2.324 . S
O52 C39 1.258 . S
O53 Eu31 2.500 . S
O53 C36 1.273 . S
O54 Eu31 2.473 . S
O54 C36 1.257 . S
H55 C41 0.929 . S
H56 C43 0.931 . S
H57 C45 0.929 1_554 S
O58 Tb59 2.292 1_545 S
O58 C61 1.255 . S
Tb59 O58 2.292 1_565 S
Tb59 O75 2.326 . S
Tb59 O77 2.500 . S
Tb59 O78 2.473 . S
Tb59 O81 2.324 . S
Eu60 O64 2.292 . S
Eu60 C65 2.852 . S
Eu60 O76 2.324 . S
Eu60 O80 2.326 . S
Eu60 O82 2.500 . S
Eu60 O83 2.473 . S
C61 O58 1.255 . S
C61 O62 1.247 . S
O62 C61 1.247 . S
C63 O75 1.242 . S
C63 O76 1.258 . S
O64 Eu60 2.292 . S
O64 C66 1.255 . S
C65 Eu60 2.852 . S
C65 C69 1.503 . S
C65 O82 1.273 . S
C65 O83 1.257 . S
C66 O64 1.255 . S
C66 O67 1.247 . S
O67 C66 1.247 . S
C68 O80 1.242 . S
C68 O81 1.258 . S
C69 C65 1.503 . S
C69 C70 1.379 . S
C69 C74 1.392 . S
C70 C69 1.379 . S
C70 C71 1.404 . S
C70 H84 0.929 . S
C71 C70 1.404 . S
C71 C72 1.389 . S
C72 C71 1.389 . S
C72 C73 1.399 . S
C72 H85 0.931 . S
C73 C72 1.399 . S
C73 C74 1.390 . S
C74 C69 1.392 . S
C74 C73 1.390 . S
C74 H86 0.929 . S
O75 Tb59 2.326 . S
O75 C63 1.242 . S
O76 Eu60 2.324 . S
O76 C63 1.258 . S
O77 Tb59 2.500 . S
O77 C79 1.273 . S
O78 Tb59 2.473 . S
O78 C79 1.257 . S
C79 O77 1.273 . S
C79 O78 1.257 . S
O80 Eu60 2.326 . S
O80 C68 1.242 . S
O81 Tb59 2.324 . S
O81 C68 1.258 . S
O82 Eu60 2.500 . S
O82 C65 1.273 . S
O83 Eu60 2.473 . S
O83 C65 1.257 . S
H84 C70 0.929 . S
H85 C72 0.931 . S
H86 C74 0.929 . S
O87 Tb88 2.292 . S
O87 C90 1.255 . S
Tb88 O87 2.292 . S
Tb88 O104 2.326 . S
Tb88 O106 2.500 . S
Tb88 O107 2.473 . S
Tb88 O110 2.324 . S
Eu89 O93 2.292 . S
Eu89 C94 2.852 . S
Eu89 O105 2.324 . S
Eu89 O109 2.326 . S
Eu89 O111 2.500 . S
Eu89 O112 2.473 . S
C90 O87 1.255 . S
C90 O91 1.247 . S
O91 C90 1.247 . S
C92 O104 1.242 . S
C92 O105 1.258 . S
O93 Eu89 2.292 . S
O93 C95 1.255 . S
C94 Eu89 2.852 . S
C94 C98 1.503 . S
C94 O111 1.273 . S
C94 O112 1.257 . S
C95 O93 1.255 . S
C95 O96 1.247 . S
O96 C95 1.247 . S
C97 O109 1.242 . S
C97 O110 1.258 . S
C98 C94 1.503 . S
C98 C99 1.379 . S
C98 C103 1.392 . S
C99 C98 1.379 . S
C99 C100 1.404 . S
C99 H113 0.929 . S
C100 C99 1.404 . S
C100 C101 1.389 . S
C101 C100 1.389 . S
C101 C102 1.399 . S
C101 H114 0.931 . S
C102 C101 1.399 . S
C102 C103 1.390 . S
C103 C98 1.392 . S
C103 C102 1.390 . S
C103 H115 0.929 . S
O104 Tb88 2.326 . S
O104 C92 1.242 . S
O105 Eu89 2.324 . S
O105 C92 1.258 . S
O106 Tb88 2.500 . S
O106 C108 1.273 . S
O107 Tb88 2.473 . S
O107 C108 1.257 . S
C108 O106 1.273 . S
C108 O107 1.257 . S
O109 Eu89 2.326 . S
O109 C97 1.242 . S
O110 Tb88 2.324 . S
O110 C97 1.258 . S
O111 Eu89 2.500 . S
O111 C94 1.273 . S
O112 Eu89 2.473 . S
O112 C94 1.257 . S
H113 C99 0.929 . S
H114 C101 0.931 . S
H115 C103 0.929 . S
O116 Tb117 2.292 . S
O116 C119 1.255 . S
Tb117 O116 2.292 . S
Tb117 O133 2.326 . S
Tb117 O135 2.500 . S
Tb117 O136 2.473 . S
Tb117 O139 2.324 . S
Eu118 O122 2.292 . S
Eu118 C123 2.852 . S
Eu118 O134 2.324 . S
Eu118 O138 2.326 . S
Eu118 O140 2.500 . S
Eu118 O141 2.473 . S
C119 O116 1.255 . S
C119 O120 1.247 . S
O120 C119 1.247 . S
C121 O133 1.242 . S
C121 O134 1.258 . S
O122 Eu118 2.292 . S
O122 C124 1.255 . S
C123 Eu118 2.852 . S
C123 C127 1.503 . S
C123 O140 1.273 . S
C123 O141 1.257 . S
C124 O122 1.255 . S
C124 O125 1.247 . S
O125 C124 1.247 . S
C126 O138 1.242 . S
C126 O139 1.258 . S
C127 C123 1.503 . S
C127 C128 1.379 1_556 S
C127 C132 1.392 1_556 S
C128 C127 1.379 1_554 S
C128 C129 1.404 . S
C128 H142 0.929 . S
C129 C128 1.404 . S
C129 C130 1.389 . S
C130 C129 1.389 . S
C130 C131 1.399 . S
C130 H143 0.931 . S
C131 C130 1.399 . S
C131 C132 1.390 . S
C132 C127 1.392 1_554 S
C132 C131 1.390 . S
C132 H144 0.929 1_554 S
O133 Tb117 2.326 . S
O133 C121 1.242 . S
O134 Eu118 2.324 . S
O134 C121 1.258 . S
O135 Tb117 2.500 . S
O135 C137 1.273 . S
O136 Tb117 2.473 . S
O136 C137 1.257 . S
C137 O135 1.273 . S
C137 O136 1.257 . S
O138 Eu118 2.326 . S
O138 C126 1.242 . S
O139 Tb117 2.324 . S
O139 C126 1.258 . S
O140 Eu118 2.500 . S
O140 C123 1.273 . S
O141 Eu118 2.473 . S
O141 C123 1.257 . S
H142 C128 0.929 . S
H143 C130 0.931 . S
H144 C132 0.929 1_556 S
O145 Tb146 2.292 1_565 S
O145 C148 1.255 . S
Tb146 O145 2.292 1_545 S
Tb146 O162 2.326 . S
Tb146 O164 2.500 . S
Tb146 O165 2.473 . S
Tb146 O168 2.324 . S
Eu147 O151 2.292 . S
Eu147 C152 2.852 . S
Eu147 O163 2.324 . S
Eu147 O167 2.326 . S
Eu147 O169 2.500 . S
Eu147 O170 2.473 . S
C148 O145 1.255 . S
C148 O149 1.247 . S
O149 C148 1.247 . S
C150 O162 1.242 . S
C150 O163 1.258 . S
O151 Eu147 2.292 . S
O151 C153 1.255 . S
C152 Eu147 2.852 . S
C152 C156 1.503 . S
C152 O169 1.273 . S
C152 O170 1.257 . S
C153 O151 1.255 . S
C153 O154 1.247 . S
O154 C153 1.247 . S
C155 O167 1.242 . S
C155 O168 1.258 . S
C156 C152 1.503 . S
C156 C157 1.379 1_556 S
C156 C161 1.392 1_556 S
C157 C156 1.379 1_554 S
C157 C158 1.404 . S
C157 H171 0.929 . S
C158 C157 1.404 . S
C158 C159 1.389 . S
C159 C158 1.389 . S
C159 C160 1.399 . S
C159 H172 0.931 . S
C160 C159 1.399 . S
C160 C161 1.390 . S
C161 C156 1.392 1_554 S
C161 C160 1.390 . S
C161 H173 0.929 1_554 S
O162 Tb146 2.326 . S
O162 C150 1.242 . S
O163 Eu147 2.324 . S
O163 C150 1.258 . S
O164 Tb146 2.500 . S
O164 C166 1.273 . S
O165 Tb146 2.473 . S
O165 C166 1.257 . S
C166 O164 1.273 . S
C166 O165 1.257 . S
O167 Eu147 2.326 . S
O167 C155 1.242 . S
O168 Tb146 2.324 . S
O168 C155 1.258 . S
O169 Eu147 2.500 . S
O169 C152 1.273 . S
O170 Eu147 2.473 . S
O170 C152 1.257 . S
H171 C157 0.929 . S
H172 C159 0.931 . S
H173 C161 0.929 1_556 S
O174 Tb175 2.292 1_565 S
O174 C177 1.255 . S
Tb175 O174 2.292 1_545 S
Tb175 O191 2.326 . S
Tb175 O193 2.500 . S
Tb175 O194 2.473 . S
Tb175 O197 2.324 . S
Eu176 O180 2.292 . S
Eu176 C181 2.852 . S
Eu176 O192 2.324 . S
Eu176 O196 2.326 . S
Eu176 O198 2.500 . S
Eu176 O199 2.473 . S
C177 O174 1.255 . S
C177 O178 1.247 . S
O178 C177 1.247 . S
C179 O191 1.242 . S
C179 O192 1.258 . S
O180 Eu176 2.292 . S
O180 C182 1.255 . S
C181 Eu176 2.852 . S
C181 C185 1.503 . S
C181 O198 1.273 . S
C181 O199 1.257 . S
C182 O180 1.255 . S
C182 O183 1.247 . S
O183 C182 1.247 . S
C184 O196 1.242 . S
C184 O197 1.258 . S
C185 C181 1.503 . S
C185 C186 1.379 . S
C185 C190 1.392 . S
C186 C185 1.379 . S
C186 C187 1.404 . S
C186 H200 0.929 . S
C187 C186 1.404 . S
C187 C188 1.389 . S
C188 C187 1.389 . S
C188 C189 1.399 . S
C188 H201 0.931 . S
C189 C188 1.399 . S
C189 C190 1.390 . S
C190 C185 1.392 . S
C190 C189 1.390 . S
C190 H202 0.929 . S
O191 Tb175 2.326 . S
O191 C179 1.242 . S
O192 Eu176 2.324 . S
O192 C179 1.258 . S
O193 Tb175 2.500 . S
O193 C195 1.273 . S
O194 Tb175 2.473 . S
O194 C195 1.257 . S
C195 O193 1.273 . S
C195 O194 1.257 . S
O196 Eu176 2.326 . S
O196 C184 1.242 . S
O197 Tb175 2.324 . S
O197 C184 1.258 . S
O198 Eu176 2.500 . S
O198 C181 1.273 . S
O199 Eu176 2.473 . S
O199 C181 1.257 . S
H200 C186 0.929 . S
H201 C188 0.931 . S
H202 C190 0.929 . S
O203 Tb204 2.292 . S
O203 C206 1.255 . S
Tb204 O203 2.292 . S
Tb204 O220 2.326 . S
Tb204 O222 2.500 . S
Tb204 O223 2.473 . S
Tb204 O226 2.324 . S
Eu205 O209 2.292 . S
Eu205 C210 2.852 . S
Eu205 O221 2.324 . S
Eu205 O225 2.326 . S
Eu205 O227 2.500 . S
Eu205 O228 2.473 . S
C206 O203 1.255 . S
C206 O207 1.247 . S
O207 C206 1.247 . S
C208 O220 1.242 . S
C208 O221 1.258 . S
O209 Eu205 2.292 . S
O209 C211 1.255 . S
C210 Eu205 2.852 . S
C210 C214 1.503 . S
C210 O227 1.273 . S
C210 O228 1.257 . S
C211 O209 1.255 . S
C211 O212 1.247 . S
O212 C211 1.247 . S
C213 O225 1.242 . S
C213 O226 1.258 . S
C214 C210 1.503 . S
C214 C215 1.379 . S
C214 C219 1.392 . S
C215 C214 1.379 . S
C215 C216 1.404 . S
C215 H229 0.929 . S
C216 C215 1.404 . S
C216 C217 1.389 . S
C217 C216 1.389 . S
C217 C218 1.399 . S
C217 H230 0.931 . S
C218 C217 1.399 . S
C218 C219 1.390 . S
C219 C214 1.392 . S
C219 C218 1.390 . S
C219 H231 0.929 . S
O220 Tb204 2.326 . S
O220 C208 1.242 . S
O221 Eu205 2.324 . S
O221 C208 1.258 . S
O222 Tb204 2.500 . S
O222 C224 1.273 . S
O223 Tb204 2.473 . S
O223 C224 1.257 . S
C224 O222 1.273 . S
C224 O223 1.257 . S
O225 Eu205 2.326 . S
O225 C213 1.242 . S
O226 Tb204 2.324 . S
O226 C213 1.258 . S
O227 Eu205 2.500 . S
O227 C210 1.273 . S
O228 Eu205 2.473 . S
O228 C210 1.257 . S
H229 C215 0.929 . S
H230 C217 0.931 . S
H231 C219 0.929 . S
O232 Tb233 2.292 . S
O232 C235 1.255 . S
Tb233 O232 2.292 . S
Tb233 O249 2.326 . S
Tb233 O251 2.500 . S
Tb233 O252 2.473 . S
Tb233 O255 2.324 . S
Eu234 O238 2.302 . S
Eu234 C239 2.852 . S
Eu234 O250 2.324 . S
Eu234 O254 2.326 . S
Eu234 O256 2.500 . S
Eu234 O257 2.473 . S
C235 O232 1.255 . S
C235 O236 1.247 . S
O236 C235 1.247 . S
C237 O249 1.242 . S
C237 O250 1.258 . S
O238 Eu234 2.302 . S
O238 C240 1.248 1_565 S
C239 Eu234 2.852 . S
C239 C243 1.503 . S
C239 O256 1.273 . S
C239 O257 1.257 . S
C240 O238 1.248 1_545 S
C240 O241 1.247 . S
O241 C240 1.247 . S
C242 O254 1.242 . S
C242 O255 1.258 . S
C243 C239 1.503 . S
C243 C244 1.379 . S
C243 C248 1.392 . S
C244 C243 1.379 . S
C244 C245 1.404 . S
C244 H258 0.929 . S
C245 C244 1.404 . S
C245 C246 1.389 . S
C246 C245 1.389 . S
C246 C247 1.399 . S
C246 H259 0.931 . S
C247 C246 1.399 . S
C247 C248 1.390 . S
C248 C243 1.392 . S
C248 C247 1.390 . S
C248 H260 0.929 . S
O249 Tb233 2.326 . S
O249 C237 1.242 . S
O250 Eu234 2.324 . S
O250 C237 1.258 . S
O251 Tb233 2.500 . S
O251 C253 1.273 . S
O252 Tb233 2.473 . S
O252 C253 1.257 . S
C253 O251 1.273 . S
C253 O252 1.257 . S
O254 Eu234 2.326 . S
O254 C242 1.242 . S
O255 Tb233 2.324 . S
O255 C242 1.258 . S
O256 Eu234 2.500 . S
O256 C239 1.273 . S
O257 Eu234 2.473 . S
O257 C239 1.257 . S
H258 C244 0.929 . S
H259 C246 0.931 . S
H260 C248 0.929 . S
O261 Tb262 2.292 . S
O261 C264 1.255 . S
Tb262 O261 2.292 . S
Tb262 O278 2.326 . S
Tb262 O280 2.500 . S
Tb262 O281 2.473 . S
Tb262 O284 2.324 . S
Eu263 O267 2.292 . S
Eu263 C268 2.852 . S
Eu263 O279 2.324 . S
Eu263 O283 2.326 . S
Eu263 O285 2.500 . S
Eu263 O286 2.473 . S
C264 O261 1.255 . S
C264 O265 1.247 . S
O265 C264 1.247 . S
C266 O278 1.242 . S
C266 O279 1.258 . S
O267 Eu263 2.292 . S
O267 C269 1.255 . S
C268 Eu263 2.852 . S
C268 C272 1.503 . S
C268 O285 1.273 . S
C268 O286 1.257 . S
C269 O267 1.255 . S
C269 O270 1.247 . S
O270 C269 1.247 . S
C271 O283 1.242 . S
C271 O284 1.258 . S
C272 C268 1.503 . S
C272 C273 1.379 . S
C272 C277 1.392 . S
C273 C272 1.379 . S
C273 C274 1.404 . S
C273 H287 0.929 . S
C274 C273 1.404 . S
C274 C275 1.389 . S
C275 C274 1.389 . S
C275 C276 1.399 . S
C275 H288 0.931 . S
C276 C275 1.399 . S
C276 C277 1.390 . S
C277 C272 1.392 . S
C277 C276 1.390 . S
C277 H289 0.929 . S
O278 Tb262 2.326 . S
O278 C266 1.242 . S
O279 Eu263 2.324 . S
O279 C266 1.258 . S
O280 Tb262 2.500 . S
O280 C282 1.273 . S
O281 Tb262 2.473 . S
O281 C282 1.257 . S
C282 O280 1.273 . S
C282 O281 1.257 . S
O283 Eu263 2.326 . S
O283 C271 1.242 . S
O284 Tb262 2.324 . S
O284 C271 1.258 . S
O285 Eu263 2.500 . S
O285 C268 1.273 . S
O286 Eu263 2.473 . S
O286 C268 1.257 . S
H287 C273 0.929 . S
H288 C275 0.931 . S
H289 C277 0.929 . S
O290 Tb291 2.292 . S
O290 C293 1.255 . S
Tb291 O290 2.292 . S
Tb291 O307 2.326 . S
Tb291 O309 2.500 . S
Tb291 O310 2.473 . S
Tb291 O313 2.324 . S
Eu292 O296 2.292 . S
Eu292 C297 2.852 . S
Eu292 O308 2.324 . S
Eu292 O312 2.326 . S
Eu292 O314 2.500 . S
Eu292 O315 2.473 . S
C293 O290 1.255 . S
C293 O294 1.247 . S
O294 C293 1.247 . S
C295 O307 1.242 . S
C295 O308 1.258 . S
O296 Eu292 2.292 . S
O296 C298 1.255 . S
C297 Eu292 2.852 . S
C297 C301 1.503 . S
C297 O314 1.273 . S
C297 O315 1.257 . S
C298 O296 1.255 . S
C298 O299 1.247 . S
O299 C298 1.247 . S
C300 O312 1.242 . S
C300 O313 1.258 . S
C301 C297 1.503 . S
C301 C302 1.379 . S
C301 C306 1.392 . S
C302 C301 1.379 . S
C302 C303 1.404 . S
C302 H316 0.929 . S
C303 C302 1.404 . S
C303 C304 1.389 . S
C304 C303 1.389 . S
C304 C305 1.399 . S
C304 H317 0.931 . S
C305 C304 1.399 . S
C305 C306 1.390 . S
C306 C301 1.392 . S
C306 C305 1.390 . S
C306 H318 0.929 . S
O307 Tb291 2.326 . S
O307 C295 1.242 . S
O308 Eu292 2.324 . S
O308 C295 1.258 . S
O309 Tb291 2.500 . S
O309 C311 1.273 . S
O310 Tb291 2.473 . S
O310 C311 1.257 . S
C311 O309 1.273 . S
C311 O310 1.257 . S
O312 Eu292 2.326 . S
O312 C300 1.242 . S
O313 Tb291 2.324 . S
O313 C300 1.258 . S
O314 Eu292 2.500 . S
O314 C297 1.273 . S
O315 Eu292 2.473 . S
O315 C297 1.257 . S
H316 C302 0.929 . S
H317 C304 0.931 . S
H318 C306 0.929 . S
O319 Tb320 2.292 . S
O319 C322 1.255 . S
Tb320 O319 2.292 . S
Tb320 O336 2.326 . S
Tb320 O338 2.500 . S
Tb320 O339 2.473 . S
Tb320 O342 2.324 . S
Eu321 O325 2.302 . S
Eu321 C326 2.852 . S
Eu321 O337 2.324 . S
Eu321 O341 2.326 . S
Eu321 O343 2.500 . S
Eu321 O344 2.473 . S
C322 O319 1.255 . S
C322 O323 1.247 . S
O323 C322 1.247 . S
C324 O336 1.242 . S
C324 O337 1.258 . S
O325 Eu321 2.302 . S
O325 C327 1.248 1_565 S
C326 Eu321 2.852 . S
C326 C330 1.503 . S
C326 O343 1.273 . S
C326 O344 1.257 . S
C327 O325 1.248 1_545 S
C327 O328 1.247 . S
O328 C327 1.247 . S
C329 O341 1.242 . S
C329 O342 1.258 . S
C330 C326 1.503 . S
C330 C331 1.379 . S
C330 C335 1.392 . S
C331 C330 1.379 . S
C331 C332 1.404 . S
C331 H345 0.929 . S
C332 C331 1.404 . S
C332 C333 1.389 . S
C333 C332 1.389 . S
C333 C334 1.399 . S
C333 H346 0.931 . S
C334 C333 1.399 . S
C334 C335 1.390 . S
C335 C330 1.392 . S
C335 C334 1.390 . S
C335 H347 0.929 . S
O336 Tb320 2.326 . S
O336 C324 1.242 . S
O337 Eu321 2.324 . S
O337 C324 1.258 . S
O338 Tb320 2.500 . S
O338 C340 1.273 . S
O339 Tb320 2.473 . S
O339 C340 1.257 . S
C340 O338 1.273 . S
C340 O339 1.257 . S
O341 Eu321 2.326 . S
O341 C329 1.242 . S
O342 Tb320 2.324 . S
O342 C329 1.258 . S
O343 Eu321 2.500 . S
O343 C326 1.273 . S
O344 Eu321 2.473 . S
O344 C326 1.257 . S
H345 C331 0.929 . S
H346 C333 0.931 . S
H347 C335 0.929 . S
O348 Tb349 2.292 . S
O348 C351 1.255 . S
Tb349 O348 2.292 . S
Tb349 O365 2.326 . S
Tb349 O367 2.500 . S
Tb349 O368 2.473 . S
Tb349 O371 2.324 . S
Eu350 O354 2.302 . S
Eu350 C355 2.852 . S
Eu350 O366 2.324 . S
Eu350 O370 2.326 . S
Eu350 O372 2.500 . S
Eu350 O373 2.473 . S
C351 O348 1.255 . S
C351 O352 1.247 . S
O352 C351 1.247 . S
C353 O365 1.242 . S
C353 O366 1.258 . S
O354 Eu350 2.302 . S
O354 C356 1.248 1_545 S
C355 Eu350 2.852 . S
C355 C359 1.503 . S
C355 O372 1.273 . S
C355 O373 1.257 . S
C356 O354 1.248 1_565 S
C356 O357 1.247 . S
O357 C356 1.247 . S
C358 O370 1.242 . S
C358 O371 1.258 . S
C359 C355 1.503 . S
C359 C360 1.379 . S
C359 C364 1.392 . S
C360 C359 1.379 . S
C360 C361 1.404 . S
C360 H374 0.929 . S
C361 C360 1.404 . S
C361 C362 1.389 . S
C362 C361 1.389 . S
C362 C363 1.399 . S
C362 H375 0.931 . S
C363 C362 1.399 . S
C363 C364 1.390 . S
C364 C359 1.392 . S
C364 C363 1.390 . S
C364 H376 0.929 . S
O365 Tb349 2.326 . S
O365 C353 1.242 . S
O366 Eu350 2.324 . S
O366 C353 1.258 . S
O367 Tb349 2.500 . S
O367 C369 1.273 . S
O368 Tb349 2.473 . S
O368 C369 1.257 . S
C369 O367 1.273 . S
C369 O368 1.257 . S
O370 Eu350 2.326 . S
O370 C358 1.242 . S
O371 Tb349 2.324 . S
O371 C358 1.258 . S
O372 Eu350 2.500 . S
O372 C355 1.273 . S
O373 Eu350 2.473 . S
O373 C355 1.257 . S
H374 C360 0.929 . S
H375 C362 0.931 . S
H376 C364 0.929 . S
O377 Tb378 2.292 . S
O377 C380 1.255 . S
Tb378 O377 2.292 . S
Tb378 O394 2.326 . S
Tb378 O396 2.500 . S
Tb378 O397 2.473 . S
Tb378 O400 2.324 . S
Eu379 O383 2.292 . S
Eu379 C384 2.852 . S
Eu379 O395 2.324 . S
Eu379 O399 2.326 . S
Eu379 O401 2.500 . S
Eu379 O402 2.473 . S
C380 O377 1.255 . S
C380 O381 1.247 . S
O381 C380 1.247 . S
C382 O394 1.242 . S
C382 O395 1.258 . S
O383 Eu379 2.292 . S
O383 C385 1.255 . S
C384 Eu379 2.852 . S
C384 C388 1.503 . S
C384 O401 1.273 . S
C384 O402 1.257 . S
C385 O383 1.255 . S
C385 O386 1.247 . S
O386 C385 1.247 . S
C387 O399 1.242 . S
C387 O400 1.258 . S
C388 C384 1.503 . S
C388 C389 1.379 . S
C388 C393 1.392 . S
C389 C388 1.379 . S
C389 C390 1.404 . S
C389 H403 0.929 . S
C390 C389 1.404 . S
C390 C391 1.389 . S
C391 C390 1.389 . S
C391 C392 1.399 . S
C391 H404 0.931 . S
C392 C391 1.399 . S
C392 C393 1.390 . S
C393 C388 1.392 . S
C393 C392 1.390 . S
C393 H405 0.929 . S
O394 Tb378 2.326 . S
O394 C382 1.242 . S
O395 Eu379 2.324 . S
O395 C382 1.258 . S
O396 Tb378 2.500 . S
O396 C398 1.273 . S
O397 Tb378 2.473 . S
O397 C398 1.257 . S
C398 O396 1.273 . S
C398 O397 1.257 . S
O399 Eu379 2.326 . S
O399 C387 1.242 . S
O400 Tb378 2.324 . S
O400 C387 1.258 . S
O401 Eu379 2.500 . S
O401 C384 1.273 . S
O402 Eu379 2.473 . S
O402 C384 1.257 . S
H403 C389 0.929 . S
H404 C391 0.931 . S
H405 C393 0.929 . S
O406 Tb407 2.292 . S
O406 C409 1.255 . S
Tb407 O406 2.292 . S
Tb407 O423 2.326 . S
Tb407 O425 2.500 . S
Tb407 O426 2.473 . S
Tb407 O429 2.324 . S
Eu408 O412 2.292 . S
Eu408 C413 2.852 . S
Eu408 O424 2.324 . S
Eu408 O428 2.326 . S
Eu408 O430 2.500 . S
Eu408 O431 2.473 . S
C409 O406 1.255 . S
C409 O410 1.247 . S
O410 C409 1.247 . S
C411 O423 1.242 . S
C411 O424 1.258 . S
O412 Eu408 2.292 . S
O412 C414 1.255 . S
C413 Eu408 2.852 . S
C413 C417 1.503 . S
C413 O430 1.273 . S
C413 O431 1.257 . S
C414 O412 1.255 . S
C414 O415 1.247 . S
O415 C414 1.247 . S
C416 O428 1.242 . S
C416 O429 1.258 . S
C417 C413 1.503 . S
C417 C418 1.379 . S
C417 C422 1.392 . S
C418 C417 1.379 . S
C418 C419 1.404 . S
C418 H432 0.929 . S
C419 C418 1.404 . S
C419 C420 1.389 . S
C420 C419 1.389 . S
C420 C421 1.399 . S
C420 H433 0.931 . S
C421 C420 1.399 . S
C421 C422 1.390 . S
C422 C417 1.392 . S
C422 C421 1.390 . S
C422 H434 0.929 . S
O423 Tb407 2.326 . S
O423 C411 1.242 . S
O424 Eu408 2.324 . S
O424 C411 1.258 . S
O425 Tb407 2.500 . S
O425 C427 1.273 . S
O426 Tb407 2.473 . S
O426 C427 1.257 . S
C427 O425 1.273 . S
C427 O426 1.257 . S
O428 Eu408 2.326 . S
O428 C416 1.242 . S
O429 Tb407 2.324 . S
O429 C416 1.258 . S
O430 Eu408 2.500 . S
O430 C413 1.273 . S
O431 Eu408 2.473 . S
O431 C413 1.257 . S
H432 C418 0.929 . S
H433 C420 0.931 . S
H434 C422 0.929 . S
O435 Tb436 2.292 . S
O435 C438 1.255 . S
Tb436 O435 2.292 . S
Tb436 O452 2.326 . S
Tb436 O454 2.500 . S
Tb436 O455 2.473 . S
Tb436 O458 2.324 . S
Eu437 O441 2.302 . S
Eu437 C442 2.852 . S
Eu437 O453 2.324 . S
Eu437 O457 2.326 . S
Eu437 O459 2.500 . S
Eu437 O460 2.473 . S
C438 O435 1.255 . S
C438 O439 1.247 . S
O439 C438 1.247 . S
C440 O452 1.242 . S
C440 O453 1.258 . S
O441 Eu437 2.302 . S
O441 C443 1.248 1_545 S
C442 Eu437 2.852 . S
C442 C446 1.503 . S
C442 O459 1.273 . S
C442 O460 1.257 . S
C443 O441 1.248 1_565 S
C443 O444 1.247 . S
O444 C443 1.247 . S
C445 O457 1.242 . S
C445 O458 1.258 . S
C446 C442 1.503 . S
C446 C447 1.379 . S
C446 C451 1.392 . S
C447 C446 1.379 . S
C447 C448 1.404 . S
C447 H461 0.929 . S
C448 C447 1.404 . S
C448 C449 1.389 . S
C449 C448 1.389 . S
C449 C450 1.399 . S
C449 H462 0.931 . S
C450 C449 1.399 . S
C450 C451 1.390 . S
C451 C446 1.392 . S
C451 C450 1.390 . S
C451 H463 0.929 . S
O452 Tb436 2.326 . S
O452 C440 1.242 . S
O453 Eu437 2.324 . S
O453 C440 1.258 . S
O454 Tb436 2.500 . S
O454 C456 1.273 . S
O455 Tb436 2.473 . S
O455 C456 1.257 . S
C456 O454 1.273 . S
C456 O455 1.257 . S
O457 Eu437 2.326 . S
O457 C445 1.242 . S
O458 Tb436 2.324 . S
O458 C445 1.258 . S
O459 Eu437 2.500 . S
O459 C442 1.273 . S
O460 Eu437 2.473 . S
O460 C442 1.257 . S
H461 C447 0.929 . S
H462 C449 0.931 . S
H463 C451 0.929 . S
O464 Tb465 2.292 . S
O464 C467 1.255 . S
Tb465 O464 2.292 . S
Tb465 O481 2.326 . S
Tb465 O483 2.500 . S
Tb465 O484 2.473 . S
Tb465 O487 2.324 . S
Eu466 O470 2.292 . S
Eu466 C471 2.852 . S
Eu466 O482 2.324 . S
Eu466 O486 2.326 . S
Eu466 O488 2.500 . S
Eu466 O489 2.473 . S
C467 O464 1.255 . S
C467 O468 1.247 . S
O468 C467 1.247 . S
C469 O481 1.242 . S
C469 O482 1.258 . S
O470 Eu466 2.292 . S
O470 C472 1.255 . S
C471 Eu466 2.852 . S
C471 C475 1.503 . S
C471 O488 1.273 . S
C471 O489 1.257 . S
C472 O470 1.255 . S
C472 O473 1.247 . S
O473 C472 1.247 . S
C474 O486 1.242 . S
C474 O487 1.258 . S
C475 C471 1.503 . S
C475 C476 1.379 . S
C475 C480 1.392 . S
C476 C475 1.379 . S
C476 C477 1.404 . S
C476 H490 0.929 . S
C477 C476 1.404 . S
C477 C478 1.389 . S
C478 C477 1.389 . S
C478 C479 1.399 . S
C478 H491 0.931 . S
C479 C478 1.399 . S
C479 C480 1.390 . S
C480 C475 1.392 . S
C480 C479 1.390 . S
C480 H492 0.929 . S
O481 Tb465 2.326 . S
O481 C469 1.242 . S
O482 Eu466 2.324 . S
O482 C469 1.258 . S
O483 Tb465 2.500 . S
O483 C485 1.273 . S
O484 Tb465 2.473 . S
O484 C485 1.257 . S
C485 O483 1.273 . S
C485 O484 1.257 . S
O486 Eu466 2.326 . S
O486 C474 1.242 . S
O487 Tb465 2.324 . S
O487 C474 1.258 . S
O488 Eu466 2.500 . S
O488 C471 1.273 . S
O489 Eu466 2.473 . S
O489 C471 1.257 . S
H490 C476 0.929 . S
H491 C478 0.931 . S
H492 C480 0.929 . S
O493 Tb494 2.292 1_545 S
O493 C496 1.255 . S
Tb494 O493 2.292 1_565 S
Tb494 O510 2.326 . S
Tb494 O512 2.500 . S
Tb494 O513 2.473 . S
Tb494 O516 2.324 . S
Eu495 O499 2.292 . S
Eu495 C500 2.852 . S
Eu495 O511 2.324 . S
Eu495 O515 2.326 . S
Eu495 O517 2.500 . S
Eu495 O518 2.473 . S
C496 O493 1.255 . S
C496 O497 1.247 . S
O497 C496 1.247 . S
C498 O510 1.242 . S
C498 O511 1.258 . S
O499 Eu495 2.292 . S
O499 C501 1.255 . S
C500 Eu495 2.852 . S
C500 C504 1.503 . S
C500 O517 1.273 . S
C500 O518 1.257 . S
C501 O499 1.255 . S
C501 O502 1.247 . S
O502 C501 1.247 . S
C503 O515 1.242 . S
C503 O516 1.258 . S
C504 C500 1.503 . S
C504 C505 1.379 . S
C504 C509 1.392 . S
C505 C504 1.379 . S
C505 C506 1.404 . S
C505 H519 0.929 . S
C506 C505 1.404 . S
C506 C507 1.389 . S
C507 C506 1.389 . S
C507 C508 1.399 . S
C507 H520 0.931 . S
C508 C507 1.399 . S
C508 C509 1.390 . S
C509 C504 1.392 . S
C509 C508 1.390 . S
C509 H521 0.929 . S
O510 Tb494 2.326 . S
O510 C498 1.242 . S
O511 Eu495 2.324 . S
O511 C498 1.258 . S
O512 Tb494 2.500 . S
O512 C514 1.273 . S
O513 Tb494 2.473 . S
O513 C514 1.257 . S
C514 O512 1.273 . S
C514 O513 1.257 . S
O515 Eu495 2.326 . S
O515 C503 1.242 . S
O516 Tb494 2.324 . S
O516 C503 1.258 . S
O517 Eu495 2.500 . S
O517 C500 1.273 . S
O518 Eu495 2.473 . S
O518 C500 1.257 . S
H519 C505 0.929 . S
H520 C507 0.931 . S
H521 C509 0.929 . S
O522 Tb523 2.292 1_545 S
O522 C525 1.255 . S
Tb523 O522 2.292 1_565 S
Tb523 O539 2.326 . S
Tb523 O541 2.500 . S
Tb523 O542 2.473 . S
Tb523 O545 2.324 . S
Eu524 O528 2.292 . S
Eu524 C529 2.852 . S
Eu524 O540 2.324 . S
Eu524 O544 2.326 . S
Eu524 O546 2.500 . S
Eu524 O547 2.473 . S
C525 O522 1.255 . S
C525 O526 1.247 . S
O526 C525 1.247 . S
C527 O539 1.242 . S
C527 O540 1.258 . S
O528 Eu524 2.292 . S
O528 C530 1.255 . S
C529 Eu524 2.852 . S
C529 C533 1.503 . S
C529 O546 1.273 . S
C529 O547 1.257 . S
C530 O528 1.255 . S
C530 O531 1.247 . S
O531 C530 1.247 . S
C532 O544 1.242 . S
C532 O545 1.258 . S
C533 C529 1.503 . S
C533 C534 1.379 . S
C533 C538 1.392 . S
C534 C533 1.379 . S
C534 C535 1.404 . S
C534 H548 0.929 . S
C535 C534 1.404 . S
C535 C536 1.389 . S
C536 C535 1.389 . S
C536 C537 1.399 . S
C536 H549 0.931 . S
C537 C536 1.399 . S
C537 C538 1.390 . S
C538 C533 1.392 . S
C538 C537 1.390 . S
C538 H550 0.929 . S
O539 Tb523 2.326 . S
O539 C527 1.242 . S
O540 Eu524 2.324 . S
O540 C527 1.258 . S
O541 Tb523 2.500 . S
O541 C543 1.273 . S
O542 Tb523 2.473 . S
O542 C543 1.257 . S
C543 O541 1.273 . S
C543 O542 1.257 . S
O544 Eu524 2.326 . S
O544 C532 1.242 . S
O545 Tb523 2.324 . S
O545 C532 1.258 . S
O546 Eu524 2.500 . S
O546 C529 1.273 . S
O547 Eu524 2.473 . S
O547 C529 1.257 . S
H548 C534 0.929 . S
H549 C536 0.931 . S
H550 C538 0.929 . S
O551 Tb552 2.292 . S
O551 C554 1.255 . S
Tb552 O551 2.292 . S
Tb552 O568 2.326 . S
Tb552 O570 2.500 . S
Tb552 O571 2.473 . S
Tb552 O574 2.324 . S
Eu553 O557 2.292 . S
Eu553 C558 2.852 . S
Eu553 O569 2.324 . S
Eu553 O573 2.326 . S
Eu553 O575 2.500 . S
Eu553 O576 2.473 . S
C554 O551 1.255 . S
C554 O555 1.247 . S
O555 C554 1.247 . S
C556 O568 1.242 . S
C556 O569 1.258 . S
O557 Eu553 2.292 . S
O557 C559 1.255 . S
C558 Eu553 2.852 . S
C558 C562 1.503 . S
C558 O575 1.273 . S
C558 O576 1.257 . S
C559 O557 1.255 . S
C559 O560 1.247 . S
O560 C559 1.247 . S
C561 O573 1.242 . S
C561 O574 1.258 . S
C562 C558 1.503 . S
C562 C563 1.379 . S
C562 C567 1.392 . S
C563 C562 1.379 . S
C563 C564 1.404 . S
C563 H577 0.929 . S
C564 C563 1.404 . S
C564 C565 1.389 . S
C565 C564 1.389 . S
C565 C566 1.399 . S
C565 H578 0.931 . S
C566 C565 1.399 . S
C566 C567 1.390 . S
C567 C562 1.392 . S
C567 C566 1.390 . S
C567 H579 0.929 . S
O568 Tb552 2.326 . S
O568 C556 1.242 . S
O569 Eu553 2.324 . S
O569 C556 1.258 . S
O570 Tb552 2.500 . S
O570 C572 1.273 . S
O571 Tb552 2.473 . S
O571 C572 1.257 . S
C572 O570 1.273 . S
C572 O571 1.257 . S
O573 Eu553 2.326 . S
O573 C561 1.242 . S
O574 Tb552 2.324 . S
O574 C561 1.258 . S
O575 Eu553 2.500 . S
O575 C558 1.273 . S
O576 Eu553 2.473 . S
O576 C558 1.257 . S
H577 C563 0.929 . S
H578 C565 0.931 . S
H579 C567 0.929 . S
O580 Tb581 2.292 . S
O580 C583 1.255 . S
Tb581 O580 2.292 . S
Tb581 O597 2.326 . S
Tb581 O599 2.500 . S
Tb581 O600 2.473 . S
Tb581 O603 2.324 . S
Eu582 O586 2.292 . S
Eu582 C587 2.852 . S
Eu582 O598 2.324 . S
Eu582 O602 2.326 . S
Eu582 O604 2.500 . S
Eu582 O605 2.473 . S
C583 O580 1.255 . S
C583 O584 1.247 . S
O584 C583 1.247 . S
C585 O597 1.242 . S
C585 O598 1.258 . S
O586 Eu582 2.292 . S
O586 C588 1.255 . S
C587 Eu582 2.852 . S
C587 C591 1.503 . S
C587 O604 1.273 . S
C587 O605 1.257 . S
C588 O586 1.255 . S
C588 O589 1.247 . S
O589 C588 1.247 . S
C590 O602 1.242 . S
C590 O603 1.258 . S
C591 C587 1.503 . S
C591 C592 1.379 . S
C591 C596 1.392 . S
C592 C591 1.379 . S
C592 C593 1.404 . S
C592 H606 0.929 . S
C593 C592 1.404 . S
C593 C594 1.389 . S
C594 C593 1.389 . S
C594 C595 1.399 . S
C594 H607 0.931 . S
C595 C594 1.399 . S
C595 C596 1.390 . S
C596 C591 1.392 . S
C596 C595 1.390 . S
C596 H608 0.929 . S
O597 Tb581 2.326 . S
O597 C585 1.242 . S
O598 Eu582 2.324 . S
O598 C585 1.258 . S
O599 Tb581 2.500 . S
O599 C601 1.273 . S
O600 Tb581 2.473 . S
O600 C601 1.257 . S
C601 O599 1.273 . S
C601 O600 1.257 . S
O602 Eu582 2.326 . S
O602 C590 1.242 . S
O603 Tb581 2.324 . S
O603 C590 1.258 . S
O604 Eu582 2.500 . S
O604 C587 1.273 . S
O605 Eu582 2.473 . S
O605 C587 1.257 . S
H606 C592 0.929 . S
H607 C594 0.931 . S
H608 C596 0.929 . S
O609 Tb610 2.292 1_565 S
O609 C612 1.255 . S
Tb610 O609 2.292 1_545 S
Tb610 O626 2.326 . S
Tb610 O628 2.500 . S
Tb610 O629 2.473 . S
Tb610 O632 2.324 . S
Eu611 O615 2.292 . S
Eu611 C616 2.852 . S
Eu611 O627 2.324 . S
Eu611 O631 2.326 . S
Eu611 O633 2.500 . S
Eu611 O634 2.473 . S
C612 O609 1.255 . S
C612 O613 1.247 . S
O613 C612 1.247 . S
C614 O626 1.242 . S
C614 O627 1.258 . S
O615 Eu611 2.292 . S
O615 C617 1.255 . S
C616 Eu611 2.852 . S
C616 C620 1.503 . S
C616 O633 1.273 . S
C616 O634 1.257 . S
C617 O615 1.255 . S
C617 O618 1.247 . S
O618 C617 1.247 . S
C619 O631 1.242 . S
C619 O632 1.258 . S
C620 C616 1.503 . S
C620 C621 1.379 . S
C620 C625 1.392 . S
C621 C620 1.379 . S
C621 C622 1.404 . S
C621 H635 0.929 . S
C622 C621 1.404 . S
C622 C623 1.389 . S
C623 C622 1.389 . S
C623 C624 1.399 . S
C623 H636 0.931 . S
C624 C623 1.399 . S
C624 C625 1.390 . S
C625 C620 1.392 . S
C625 C624 1.390 . S
C625 H637 0.929 . S
O626 Tb610 2.326 . S
O626 C614 1.242 . S
O627 Eu611 2.324 . S
O627 C614 1.258 . S
O628 Tb610 2.500 . S
O628 C630 1.273 . S
O629 Tb610 2.473 . S
O629 C630 1.257 . S
C630 O628 1.273 . S
C630 O629 1.257 . S
O631 Eu611 2.326 . S
O631 C619 1.242 . S
O632 Tb610 2.324 . S
O632 C619 1.258 . S
O633 Eu611 2.500 . S
O633 C616 1.273 . S
O634 Eu611 2.473 . S
O634 C616 1.257 . S
H635 C621 0.929 . S
H636 C623 0.931 . S
H637 C625 0.929 . S
O638 Tb639 2.292 1_565 S
O638 C641 1.255 . S
Tb639 O638 2.292 1_545 S
Tb639 O655 2.326 . S
Tb639 O657 2.500 . S
Tb639 O658 2.473 . S
Tb639 O661 2.324 . S
Eu640 O644 2.292 . S
Eu640 C645 2.852 . S
Eu640 O656 2.324 . S
Eu640 O660 2.326 . S
Eu640 O662 2.500 . S
Eu640 O663 2.473 . S
C641 O638 1.255 . S
C641 O642 1.247 . S
O642 C641 1.247 . S
C643 O655 1.242 . S
C643 O656 1.258 . S
O644 Eu640 2.292 . S
O644 C646 1.255 . S
C645 Eu640 2.852 . S
C645 C649 1.503 . S
C645 O662 1.273 . S
C645 O663 1.257 . S
C646 O644 1.255 . S
C646 O647 1.247 . S
O647 C646 1.247 . S
C648 O660 1.242 . S
C648 O661 1.258 . S
C649 C645 1.503 . S
C649 C650 1.379 . S
C649 C654 1.392 . S
C650 C649 1.379 . S
C650 C651 1.404 . S
C650 H664 0.929 . S
C651 C650 1.404 . S
C651 C652 1.389 . S
C652 C651 1.389 . S
C652 C653 1.399 . S
C652 H665 0.931 . S
C653 C652 1.399 . S
C653 C654 1.390 . S
C654 C649 1.392 . S
C654 C653 1.390 . S
C654 H666 0.929 . S
O655 Tb639 2.326 . S
O655 C643 1.242 . S
O656 Eu640 2.324 . S
O656 C643 1.258 . S
O657 Tb639 2.500 . S
O657 C659 1.273 . S
O658 Tb639 2.473 . S
O658 C659 1.257 . S
C659 O657 1.273 . S
C659 O658 1.257 . S
O660 Eu640 2.326 . S
O660 C648 1.242 . S
O661 Tb639 2.324 . S
O661 C648 1.258 . S
O662 Eu640 2.500 . S
O662 C645 1.273 . S
O663 Eu640 2.473 . S
O663 C645 1.257 . S
H664 C650 0.929 . S
H665 C652 0.931 . S
H666 C654 0.929 . S
O667 Tb668 2.292 . S
O667 C670 1.255 . S
Tb668 O667 2.292 . S
Tb668 O684 2.326 . S
Tb668 O686 2.500 . S
Tb668 O687 2.473 . S
Tb668 O690 2.324 . S
Eu669 O673 2.292 . S
Eu669 C674 2.852 . S
Eu669 O685 2.324 . S
Eu669 O689 2.326 . S
Eu669 O691 2.500 . S
Eu669 O692 2.473 . S
C670 O667 1.255 . S
C670 O671 1.247 . S
O671 C670 1.247 . S
C672 O684 1.242 . S
C672 O685 1.258 . S
O673 Eu669 2.292 . S
O673 C675 1.255 . S
C674 Eu669 2.852 . S
C674 C678 1.503 . S
C674 O691 1.273 . S
C674 O692 1.257 . S
C675 O673 1.255 . S
C675 O676 1.247 . S
O676 C675 1.247 . S
C677 O689 1.242 . S
C677 O690 1.258 . S
C678 C674 1.503 . S
C678 C679 1.379 . S
C678 C683 1.392 . S
C679 C678 1.379 . S
C679 C680 1.404 . S
C679 H693 0.929 . S
C680 C679 1.404 . S
C680 C681 1.389 . S
C681 C680 1.389 . S
C681 C682 1.399 . S
C681 H694 0.931 . S
C682 C681 1.399 . S
C682 C683 1.390 . S
C683 C678 1.392 . S
C683 C682 1.390 . S
C683 H695 0.929 . S
O684 Tb668 2.326 . S
O684 C672 1.242 . S
O685 Eu669 2.324 . S
O685 C672 1.258 . S
O686 Tb668 2.500 . S
O686 C688 1.273 . S
O687 Tb668 2.473 . S
O687 C688 1.257 . S
C688 O686 1.273 . S
C688 O687 1.257 . S
O689 Eu669 2.326 . S
O689 C677 1.242 . S
O690 Tb668 2.324 . S
O690 C677 1.258 . S
O691 Eu669 2.500 . S
O691 C674 1.273 . S
O692 Eu669 2.473 . S
O692 C674 1.257 . S
H693 C679 0.929 . S
H694 C681 0.931 . S
H695 C683 0.929 . S
O696 Tb697 2.292 . S
O696 C699 1.255 . S
Tb697 O696 2.292 . S
Tb697 O713 2.326 . S
Tb697 O715 2.500 . S
Tb697 O716 2.473 . S
Tb697 O719 2.324 . S
Eu698 O702 2.302 . S
Eu698 C703 2.852 . S
Eu698 O714 2.324 . S
Eu698 O718 2.326 . S
Eu698 O720 2.500 . S
Eu698 O721 2.473 . S
C699 O696 1.255 . S
C699 O700 1.247 . S
O700 C699 1.247 . S
C701 O713 1.242 . S
C701 O714 1.258 . S
O702 Eu698 2.302 . S
O702 C704 1.248 1_565 S
C703 Eu698 2.852 . S
C703 C707 1.503 . S
C703 O720 1.273 . S
C703 O721 1.257 . S
C704 O702 1.248 1_545 S
C704 O705 1.247 . S
O705 C704 1.247 . S
C706 O718 1.242 . S
C706 O719 1.258 . S
C707 C703 1.503 . S
C707 C708 1.379 1_554 S
C707 C712 1.392 1_554 S
C708 C707 1.379 1_556 S
C708 C709 1.404 . S
C708 H722 0.929 . S
C709 C708 1.404 . S
C709 C710 1.389 . S
C710 C709 1.389 . S
C710 C711 1.399 . S
C710 H723 0.931 . S
C711 C710 1.399 . S
C711 C712 1.390 . S
C712 C707 1.392 1_556 S
C712 C711 1.390 . S
C712 H724 0.929 1_556 S
O713 Tb697 2.326 . S
O713 C701 1.242 . S
O714 Eu698 2.324 . S
O714 C701 1.258 . S
O715 Tb697 2.500 . S
O715 C717 1.273 . S
O716 Tb697 2.473 . S
O716 C717 1.257 . S
C717 O715 1.273 . S
C717 O716 1.257 . S
O718 Eu698 2.326 . S
O718 C706 1.242 . S
O719 Tb697 2.324 . S
O719 C706 1.258 . S
O720 Eu698 2.500 . S
O720 C703 1.273 . S
O721 Eu698 2.473 . S
O721 C703 1.257 . S
H722 C708 0.929 . S
H723 C710 0.931 . S
H724 C712 0.929 1_554 S
O725 Tb726 2.292 . S
O725 C728 1.255 . S
Tb726 O725 2.292 . S
Tb726 O742 2.326 . S
Tb726 O744 2.500 . S
Tb726 O745 2.473 . S
Tb726 O748 2.324 . S
Eu727 O731 2.292 . S
Eu727 C732 2.852 . S
Eu727 O743 2.324 . S
Eu727 O747 2.326 . S
Eu727 O749 2.500 . S
Eu727 O750 2.473 . S
C728 O725 1.255 . S
C728 O729 1.247 . S
O729 C728 1.247 . S
C730 O742 1.242 . S
C730 O743 1.258 . S
O731 Eu727 2.292 . S
O731 C733 1.255 . S
C732 Eu727 2.852 . S
C732 C736 1.503 . S
C732 O749 1.273 . S
C732 O750 1.257 . S
C733 O731 1.255 . S
C733 O734 1.247 . S
O734 C733 1.247 . S
C735 O747 1.242 . S
C735 O748 1.258 . S
C736 C732 1.503 . S
C736 C737 1.379 1_554 S
C736 C741 1.392 1_554 S
C737 C736 1.379 1_556 S
C737 C738 1.404 . S
C737 H751 0.929 . S
C738 C737 1.404 . S
C738 C739 1.389 . S
C739 C738 1.389 . S
C739 C740 1.399 . S
C739 H752 0.931 . S
C740 C739 1.399 . S
C740 C741 1.390 . S
C741 C736 1.392 1_556 S
C741 C740 1.390 . S
C741 H753 0.929 1_556 S
O742 Tb726 2.326 . S
O742 C730 1.242 . S
O743 Eu727 2.324 . S
O743 C730 1.258 . S
O744 Tb726 2.500 . S
O744 C746 1.273 . S
O745 Tb726 2.473 . S
O745 C746 1.257 . S
C746 O744 1.273 . S
C746 O745 1.257 . S
O747 Eu727 2.326 . S
O747 C735 1.242 . S
O748 Tb726 2.324 . S
O748 C735 1.258 . S
O749 Eu727 2.500 . S
O749 C732 1.273 . S
O750 Eu727 2.473 . S
O750 C732 1.257 . S
H751 C737 0.929 . S
H752 C739 0.931 . S
H753 C741 0.929 1_554 S
O754 Tb755 2.292 . S
O754 C757 1.255 . S
Tb755 O754 2.292 . S
Tb755 O771 2.326 . S
Tb755 O773 2.500 . S
Tb755 O774 2.473 . S
Tb755 O777 2.324 . S
Eu756 O760 2.292 . S
Eu756 C761 2.852 . S
Eu756 O772 2.324 . S
Eu756 O776 2.326 . S
Eu756 O778 2.500 . S
Eu756 O779 2.473 . S
C757 O754 1.255 . S
C757 O758 1.247 . S
O758 C757 1.247 . S
C759 O771 1.242 . S
C759 O772 1.258 . S
O760 Eu756 2.292 . S
O760 C762 1.255 . S
C761 Eu756 2.852 . S
C761 C765 1.503 . S
C761 O778 1.273 . S
C761 O779 1.257 . S
C762 O760 1.255 . S
C762 O763 1.247 . S
O763 C762 1.247 . S
C764 O776 1.242 . S
C764 O777 1.258 . S
C765 C761 1.503 . S
C765 C766 1.379 . S
C765 C770 1.392 . S
C766 C765 1.379 . S
C766 C767 1.404 . S
C766 H780 0.929 . S
C767 C766 1.404 . S
C767 C768 1.389 . S
C768 C767 1.389 . S
C768 C769 1.399 . S
C768 H781 0.931 . S
C769 C768 1.399 . S
C769 C770 1.390 . S
C770 C765 1.392 . S
C770 C769 1.390 . S
C770 H782 0.929 . S
O771 Tb755 2.326 . S
O771 C759 1.242 . S
O772 Eu756 2.324 . S
O772 C759 1.258 . S
O773 Tb755 2.500 . S
O773 C775 1.273 . S
O774 Tb755 2.473 . S
O774 C775 1.257 . S
C775 O773 1.273 . S
C775 O774 1.257 . S
O776 Eu756 2.326 . S
O776 C764 1.242 . S
O777 Tb755 2.324 . S
O777 C764 1.258 . S
O778 Eu756 2.500 . S
O778 C761 1.273 . S
O779 Eu756 2.473 . S
O779 C761 1.257 . S
H780 C766 0.929 . S
H781 C768 0.931 . S
H782 C770 0.929 . S
O783 Tb784 2.292 . S
O783 C786 1.255 . S
Tb784 O783 2.292 . S
Tb784 O800 2.326 . S
Tb784 O802 2.500 . S
Tb784 O803 2.473 . S
Tb784 O806 2.324 . S
Eu785 O789 2.302 . S
Eu785 C790 2.852 . S
Eu785 O801 2.324 . S
Eu785 O805 2.326 . S
Eu785 O807 2.500 . S
Eu785 O808 2.473 . S
C786 O783 1.255 . S
C786 O787 1.247 . S
O787 C786 1.247 . S
C788 O800 1.242 . S
C788 O801 1.258 . S
O789 Eu785 2.302 . S
O789 C791 1.248 1_565 S
C790 Eu785 2.852 . S
C790 C794 1.503 . S
C790 O807 1.273 . S
C790 O808 1.257 . S
C791 O789 1.248 1_545 S
C791 O792 1.247 . S
O792 C791 1.247 . S
C793 O805 1.242 . S
C793 O806 1.258 . S
C794 C790 1.503 . S
C794 C795 1.379 . S
C794 C799 1.392 . S
C795 C794 1.379 . S
C795 C796 1.404 . S
C795 H809 0.929 . S
C796 C795 1.404 . S
C796 C797 1.389 . S
C797 C796 1.389 . S
C797 C798 1.399 . S
C797 H810 0.931 . S
C798 C797 1.399 . S
C798 C799 1.390 . S
C799 C794 1.392 . S
C799 C798 1.390 . S
C799 H811 0.929 . S
O800 Tb784 2.326 . S
O800 C788 1.242 . S
O801 Eu785 2.324 . S
O801 C788 1.258 . S
O802 Tb784 2.500 . S
O802 C804 1.273 . S
O803 Tb784 2.473 . S
O803 C804 1.257 . S
C804 O802 1.273 . S
C804 O803 1.257 . S
O805 Eu785 2.326 . S
O805 C793 1.242 . S
O806 Tb784 2.324 . S
O806 C793 1.258 . S
O807 Eu785 2.500 . S
O807 C790 1.273 . S
O808 Eu785 2.473 . S
O808 C790 1.257 . S
H809 C795 0.929 . S
H810 C797 0.931 . S
H811 C799 0.929 . S
O812 Tb813 2.292 . S
O812 C815 1.255 . S
Tb813 O812 2.292 . S
Tb813 O829 2.326 . S
Tb813 O831 2.500 . S
Tb813 O832 2.473 . S
Tb813 O835 2.324 . S
Eu814 O818 2.302 . S
Eu814 C819 2.852 . S
Eu814 O830 2.324 . S
Eu814 O834 2.326 . S
Eu814 O836 2.500 . S
Eu814 O837 2.473 . S
C815 O812 1.255 . S
C815 O816 1.247 . S
O816 C815 1.247 . S
C817 O829 1.242 . S
C817 O830 1.258 . S
O818 Eu814 2.302 . S
O818 C820 1.248 1_545 S
C819 Eu814 2.852 . S
C819 C823 1.503 . S
C819 O836 1.273 . S
C819 O837 1.257 . S
C820 O818 1.248 1_565 S
C820 O821 1.247 . S
O821 C820 1.247 . S
C822 O834 1.242 . S
C822 O835 1.258 . S
C823 C819 1.503 . S
C823 C824 1.379 1_556 S
C823 C828 1.392 1_556 S
C824 C823 1.379 1_554 S
C824 C825 1.404 . S
C824 H838 0.929 . S
C825 C824 1.404 . S
C825 C826 1.389 . S
C826 C825 1.389 . S
C826 C827 1.399 . S
C826 H839 0.931 . S
C827 C826 1.399 . S
C827 C828 1.390 . S
C828 C823 1.392 1_554 S
C828 C827 1.390 . S
C828 H840 0.929 1_554 S
O829 Tb813 2.326 . S
O829 C817 1.242 . S
O830 Eu814 2.324 . S
O830 C817 1.258 . S
O831 Tb813 2.500 . S
O831 C833 1.273 . S
O832 Tb813 2.473 . S
O832 C833 1.257 . S
C833 O831 1.273 . S
C833 O832 1.257 . S
O834 Eu814 2.326 . S
O834 C822 1.242 . S
O835 Tb813 2.324 . S
O835 C822 1.258 . S
O836 Eu814 2.500 . S
O836 C819 1.273 . S
O837 Eu814 2.473 . S
O837 C819 1.257 . S
H838 C824 0.929 . S
H839 C826 0.931 . S
H840 C828 0.929 1_556 S
O841 Tb842 2.292 . S
O841 C844 1.255 . S
Tb842 O841 2.292 . S
Tb842 O858 2.326 . S
Tb842 O860 2.500 . S
Tb842 O861 2.473 . S
Tb842 O864 2.324 . S
Eu843 O847 2.292 . S
Eu843 C848 2.852 . S
Eu843 O859 2.324 . S
Eu843 O863 2.326 . S
Eu843 O865 2.500 . S
Eu843 O866 2.473 . S
C844 O841 1.255 . S
C844 O845 1.247 . S
O845 C844 1.247 . S
C846 O858 1.242 . S
C846 O859 1.258 . S
O847 Eu843 2.292 . S
O847 C849 1.255 . S
C848 Eu843 2.852 . S
C848 C852 1.503 . S
C848 O865 1.273 . S
C848 O866 1.257 . S
C849 O847 1.255 . S
C849 O850 1.247 . S
O850 C849 1.247 . S
C851 O863 1.242 . S
C851 O864 1.258 . S
C852 C848 1.503 . S
C852 C853 1.379 1_556 S
C852 C857 1.392 1_556 S
C853 C852 1.379 1_554 S
C853 C854 1.404 . S
C853 H867 0.929 . S
C854 C853 1.404 . S
C854 C855 1.389 . S
C855 C854 1.389 . S
C855 C856 1.399 . S
C855 H868 0.931 . S
C856 C855 1.399 . S
C856 C857 1.390 . S
C857 C852 1.392 1_554 S
C857 C856 1.390 . S
C857 H869 0.929 1_554 S
O858 Tb842 2.326 . S
O858 C846 1.242 . S
O859 Eu843 2.324 . S
O859 C846 1.258 . S
O860 Tb842 2.500 . S
O860 C862 1.273 . S
O861 Tb842 2.473 . S
O861 C862 1.257 . S
C862 O860 1.273 . S
C862 O861 1.257 . S
O863 Eu843 2.326 . S
O863 C851 1.242 . S
O864 Tb842 2.324 . S
O864 C851 1.258 . S
O865 Eu843 2.500 . S
O865 C848 1.273 . S
O866 Eu843 2.473 . S
O866 C848 1.257 . S
H867 C853 0.929 . S
H868 C855 0.931 . S
H869 C857 0.929 1_556 S
O870 Tb871 2.292 . S
O870 C873 1.255 . S
Tb871 O870 2.292 . S
Tb871 O887 2.326 . S
Tb871 O889 2.500 . S
Tb871 O890 2.473 . S
Tb871 O893 2.324 . S
Eu872 O876 2.292 . S
Eu872 C877 2.852 . S
Eu872 O888 2.324 . S
Eu872 O892 2.326 . S
Eu872 O894 2.500 . S
Eu872 O895 2.473 . S
C873 O870 1.255 . S
C873 O874 1.247 . S
O874 C873 1.247 . S
C875 O887 1.242 . S
C875 O888 1.258 . S
O876 Eu872 2.292 . S
O876 C878 1.255 . S
C877 Eu872 2.852 . S
C877 C881 1.503 . S
C877 O894 1.273 . S
C877 O895 1.257 . S
C878 O876 1.255 . S
C878 O879 1.247 . S
O879 C878 1.247 . S
C880 O892 1.242 . S
C880 O893 1.258 . S
C881 C877 1.503 . S
C881 C882 1.379 . S
C881 C886 1.392 . S
C882 C881 1.379 . S
C882 C883 1.404 . S
C882 H896 0.929 . S
C883 C882 1.404 . S
C883 C884 1.389 . S
C884 C883 1.389 . S
C884 C885 1.399 . S
C884 H897 0.931 . S
C885 C884 1.399 . S
C885 C886 1.390 . S
C886 C881 1.392 . S
C886 C885 1.390 . S
C886 H898 0.929 . S
O887 Tb871 2.326 . S
O887 C875 1.242 . S
O888 Eu872 2.324 . S
O888 C875 1.258 . S
O889 Tb871 2.500 . S
O889 C891 1.273 . S
O890 Tb871 2.473 . S
O890 C891 1.257 . S
C891 O889 1.273 . S
C891 O890 1.257 . S
O892 Eu872 2.326 . S
O892 C880 1.242 . S
O893 Tb871 2.324 . S
O893 C880 1.258 . S
O894 Eu872 2.500 . S
O894 C877 1.273 . S
O895 Eu872 2.473 . S
O895 C877 1.257 . S
H896 C882 0.929 . S
H897 C884 0.931 . S
H898 C886 0.929 . S
O899 Tb900 2.292 . S
O899 C902 1.255 . S
Tb900 O899 2.292 . S
Tb900 O916 2.326 . S
Tb900 O918 2.500 . S
Tb900 O919 2.473 . S
Tb900 O922 2.324 . S
Eu901 O905 2.302 . S
Eu901 C906 2.852 . S
Eu901 O917 2.324 . S
Eu901 O921 2.326 . S
Eu901 O923 2.500 . S
Eu901 O924 2.473 . S
C902 O899 1.255 . S
C902 O903 1.247 . S
O903 C902 1.247 . S
C904 O916 1.242 . S
C904 O917 1.258 . S
O905 Eu901 2.302 . S
O905 C907 1.248 1_545 S
C906 Eu901 2.852 . S
C906 C910 1.503 . S
C906 O923 1.273 . S
C906 O924 1.257 . S
C907 O905 1.248 1_565 S
C907 O908 1.247 . S
O908 C907 1.247 . S
C909 O921 1.242 . S
C909 O922 1.258 . S
C910 C906 1.503 . S
C910 C911 1.379 . S
C910 C915 1.392 . S
C911 C910 1.379 . S
C911 C912 1.404 . S
C911 H925 0.929 . S
C912 C911 1.404 . S
C912 C913 1.389 . S
C913 C912 1.389 . S
C913 C914 1.399 . S
C913 H926 0.931 . S
C914 C913 1.399 . S
C914 C915 1.390 . S
C915 C910 1.392 . S
C915 C914 1.390 . S
C915 H927 0.929 . S
O916 Tb900 2.326 . S
O916 C904 1.242 . S
O917 Eu901 2.324 . S
O917 C904 1.258 . S
O918 Tb900 2.500 . S
O918 C920 1.273 . S
O919 Tb900 2.473 . S
O919 C920 1.257 . S
C920 O918 1.273 . S
C920 O919 1.257 . S
O921 Eu901 2.326 . S
O921 C909 1.242 . S
O922 Tb900 2.324 . S
O922 C909 1.258 . S
O923 Eu901 2.500 . S
O923 C906 1.273 . S
O924 Eu901 2.473 . S
O924 C906 1.257 . S
H925 C911 0.929 . S
H926 C913 0.931 . S
H927 C915 0.929 . S
C928 C929 1.369 . S
C928 C930 1.419 . S
C928 H932 0.930 . S
C929 C928 1.369 . S
C929 C938 1.429 . S
C930 C928 1.419 . S
C930 C931 1.363 . S
C930 H933 0.929 . S
C931 C930 1.363 . S
C931 C937 1.428 . S
H932 C928 0.930 . S
H933 C930 0.929 . S
S934 N935 1.613 . S
S934 N936 1.610 . S
N935 S934 1.613 . S
N935 C938 1.350 . S
N936 S934 1.610 . S
N936 C937 1.351 . S
C937 C931 1.428 . S
C937 N936 1.351 . S
C937 C938 1.434 . S
C938 C929 1.429 . S
C938 N935 1.350 . S
C938 C937 1.434 . S
C939 C940 1.369 . S
C939 C941 1.419 . S
C939 H943 0.930 . S
C940 C939 1.369 . S
C940 C949 1.429 . S
C941 C939 1.419 . S
C941 C942 1.363 . S
C941 H944 0.929 . S
C942 C941 1.363 . S
C942 C948 1.428 . S
H943 C939 0.930 . S
H944 C941 0.929 . S
S945 N946 1.613 . S
S945 N947 1.610 . S
N946 S945 1.613 . S
N946 C949 1.350 . S
N947 S945 1.610 . S
N947 C948 1.351 . S
C948 C942 1.428 . S
C948 N947 1.351 . S
C948 C949 1.434 . S
C949 C940 1.429 . S
C949 N946 1.350 . S
C949 C948 1.434 . S
C950 C951 1.369 . S
C950 C952 1.419 . S
C950 H954 0.930 . S
C951 C950 1.369 . S
C951 C960 1.429 . S
C952 C950 1.419 . S
C952 C953 1.363 . S
C952 H955 0.929 . S
C953 C952 1.363 . S
C953 C959 1.428 . S
H954 C950 0.930 . S
H955 C952 0.929 . S
S956 N957 1.613 1_545 S
S956 N958 1.610 1_545 S
N957 S956 1.613 1_565 S
N957 C960 1.350 . S
N958 S956 1.610 1_565 S
N958 C959 1.351 . S
C959 C953 1.428 . S
C959 N958 1.351 . S
C959 C960 1.434 . S
C960 C951 1.429 . S
C960 N957 1.350 . S
C960 C959 1.434 . S
C961 C962 1.369 . S
C961 C963 1.419 . S
C961 H965 0.930 . S
C962 C961 1.369 . S
C962 C971 1.429 . S
C963 C961 1.419 . S
C963 C964 1.363 . S
C963 H966 0.929 . S
C964 C963 1.363 . S
C964 C970 1.428 . S
H965 C961 0.930 . S
H966 C963 0.929 . S
S967 N968 1.613 . S
S967 N969 1.610 . S
N968 S967 1.613 . S
N968 C971 1.350 . S
N969 S967 1.610 . S
N969 C970 1.351 . S
C970 C964 1.428 . S
C970 N969 1.351 . S
C970 C971 1.434 . S
C971 C962 1.429 . S
C971 N968 1.350 . S
C971 C970 1.434 . S
C972 C973 1.369 . S
C972 C974 1.419 . S
C972 H976 0.930 . S
C973 C972 1.369 . S
C973 C982 1.429 . S
C974 C972 1.419 . S
C974 C975 1.363 . S
C974 H977 0.929 . S
C975 C974 1.363 . S
C975 C981 1.428 . S
H976 C972 0.930 . S
H977 C974 0.929 . S
S978 N979 1.613 . S
S978 N980 1.610 . S
N979 S978 1.613 . S
N979 C982 1.350 . S
N980 S978 1.610 . S
N980 C981 1.351 . S
C981 C975 1.428 . S
C981 N980 1.351 . S
C981 C982 1.434 . S
C982 C973 1.429 . S
C982 N979 1.350 . S
C982 C981 1.434 . S
C983 C984 1.369 . S
C983 C985 1.419 . S
C983 H987 0.930 . S
C984 C983 1.369 . S
C984 C993 1.429 . S
C985 C983 1.419 . S
C985 C986 1.363 . S
C985 H988 0.929 . S
C986 C985 1.363 . S
C986 C992 1.428 . S
H987 C983 0.930 . S
H988 C985 0.929 . S
S989 N990 1.613 . S
S989 N991 1.610 . S
N990 S989 1.613 . S
N990 C993 1.350 . S
N991 S989 1.610 . S
N991 C992 1.351 . S
C992 C986 1.428 . S
C992 N991 1.351 . S
C992 C993 1.434 . S
C993 C984 1.429 . S
C993 N990 1.350 . S
C993 C992 1.434 . S
C994 C995 1.369 . S
C994 C996 1.419 . S
C994 H998 0.930 . S
C995 C994 1.369 . S
C995 C1004 1.429 . S
C996 C994 1.419 . S
C996 C997 1.363 . S
C996 H999 0.929 . S
C997 C996 1.363 . S
C997 C1003 1.428 . S
H998 C994 0.930 . S
H999 C996 0.929 . S
S1000 N1001 1.613 . S
S1000 N1002 1.610 . S
N1001 S1000 1.613 . S
N1001 C1004 1.350 . S
N1002 S1000 1.610 . S
N1002 C1003 1.351 . S
C1003 C997 1.428 . S
C1003 N1002 1.351 . S
C1003 C1004 1.434 . S
C1004 C995 1.429 . S
C1004 N1001 1.350 . S
C1004 C1003 1.434 . S
C1005 C1006 1.369 . S
C1005 C1007 1.419 . S
C1005 H1009 0.930 . S
C1006 C1005 1.369 . S
C1006 C1015 1.429 . S
C1007 C1005 1.419 . S
C1007 C1008 1.363 . S
C1007 H1010 0.929 . S
C1008 C1007 1.363 . S
C1008 C1014 1.428 . S
H1009 C1005 0.930 . S
H1010 C1007 0.929 . S
S1011 N1012 1.613 . S
S1011 N1013 1.610 . S
N1012 S1011 1.613 . S
N1012 C1015 1.350 . S
N1013 S1011 1.610 . S
N1013 C1014 1.351 . S
C1014 C1008 1.428 . S
C1014 N1013 1.351 . S
C1014 C1015 1.434 . S
C1015 C1006 1.429 . S
C1015 N1012 1.350 . S
C1015 C1014 1.434 . S
C1016 C1017 1.369 . S
C1016 C1018 1.419 . S
C1016 H1020 0.930 . S
C1017 C1016 1.369 . S
C1017 C1026 1.429 . S
C1018 C1016 1.419 . S
C1018 C1019 1.363 . S
C1018 H1021 0.929 . S
C1019 C1018 1.363 . S
C1019 C1025 1.428 . S
H1020 C1016 0.930 . S
H1021 C1018 0.929 . S
S1022 N1023 1.613 . S
S1022 N1024 1.610 . S
N1023 S1022 1.613 . S
N1023 C1026 1.350 . S
N1024 S1022 1.610 . S
N1024 C1025 1.351 . S
C1025 C1019 1.428 . S
C1025 N1024 1.351 . S
C1025 C1026 1.434 . S
C1026 C1017 1.429 . S
C1026 N1023 1.350 . S
C1026 C1025 1.434 . S
C1027 C1028 1.369 . S
C1027 C1029 1.419 . S
C1027 H1031 0.930 . S
C1028 C1027 1.369 . S
C1028 C1037 1.429 . S
C1029 C1027 1.419 . S
C1029 C1030 1.363 . S
C1029 H1032 0.929 . S
C1030 C1029 1.363 . S
C1030 C1036 1.428 . S
H1031 C1027 0.930 . S
H1032 C1029 0.929 . S
S1033 N1034 1.613 . S
S1033 N1035 1.610 . S
N1034 S1033 1.613 . S
N1034 C1037 1.350 . S
N1035 S1033 1.610 . S
N1035 C1036 1.351 . S
C1036 C1030 1.428 . S
C1036 N1035 1.351 . S
C1036 C1037 1.434 . S
C1037 C1028 1.429 . S
C1037 N1034 1.350 . S
C1037 C1036 1.434 . S
C1038 C1039 1.369 . S
C1038 C1040 1.419 . S
C1038 H1042 0.930 . S
C1039 C1038 1.369 . S
C1039 C1048 1.429 . S
C1040 C1038 1.419 . S
C1040 C1041 1.363 . S
C1040 H1043 0.929 . S
C1041 C1040 1.363 . S
C1041 C1047 1.428 . S
H1042 C1038 0.930 . S
H1043 C1040 0.929 . S
S1044 N1045 1.613 . S
S1044 N1046 1.610 . S
N1045 S1044 1.613 . S
N1045 C1048 1.350 . S
N1046 S1044 1.610 . S
N1046 C1047 1.351 . S
C1047 C1041 1.428 . S
C1047 N1046 1.351 . S
C1047 C1048 1.434 . S
C1048 C1039 1.429 . S
C1048 N1045 1.350 . S
C1048 C1047 1.434 . S
C1049 C1050 1.369 . S
C1049 C1051 1.419 . S
C1049 H1053 0.930 . S
C1050 C1049 1.369 . S
C1050 C1059 1.429 . S
C1051 C1049 1.419 . S
C1051 C1052 1.363 . S
C1051 H1054 0.929 . S
C1052 C1051 1.363 . S
C1052 C1058 1.428 . S
H1053 C1049 0.930 . S
H1054 C1051 0.929 . S
S1055 N1056 1.613 . S
S1055 N1057 1.610 . S
N1056 S1055 1.613 . S
N1056 C1059 1.350 . S
N1057 S1055 1.610 . S
N1057 C1058 1.351 . S
C1058 C1052 1.428 . S
C1058 N1057 1.351 . S
C1058 C1059 1.434 . S
C1059 C1050 1.429 . S
C1059 N1056 1.350 . S
C1059 C1058 1.434 . S
C1060 C1061 1.369 . S
C1060 C1062 1.419 . S
C1060 H1064 0.930 . S
C1061 C1060 1.369 . S
C1061 C1070 1.429 . S
C1062 C1060 1.419 . S
C1062 C1063 1.363 . S
C1062 H1065 0.929 . S
C1063 C1062 1.363 . S
C1063 C1069 1.428 . S
H1064 C1060 0.930 . S
H1065 C1062 0.929 . S
S1066 N1067 1.613 . S
S1066 N1068 1.610 . S
N1067 S1066 1.613 . S
N1067 C1070 1.350 . S
N1068 S1066 1.610 . S
N1068 C1069 1.351 . S
C1069 C1063 1.428 . S
C1069 N1068 1.351 . S
C1069 C1070 1.434 . S
C1070 C1061 1.429 . S
C1070 N1067 1.350 . S
C1070 C1069 1.434 . S
C1071 C1072 1.369 . S
C1071 C1073 1.419 . S
C1071 H1075 0.930 . S
C1072 C1071 1.369 . S
C1072 C1081 1.429 . S
C1073 C1071 1.419 . S
C1073 C1074 1.363 . S
C1073 H1076 0.929 . S
C1074 C1073 1.363 . S
C1074 C1080 1.428 . S
H1075 C1071 0.930 . S
H1076 C1073 0.929 . S
S1077 N1078 1.613 . S
S1077 N1079 1.610 . S
N1078 S1077 1.613 . S
N1078 C1081 1.350 . S
N1079 S1077 1.610 . S
N1079 C1080 1.351 . S
C1080 C1074 1.428 . S
C1080 N1079 1.351 . S
C1080 C1081 1.434 . S
C1081 C1072 1.429 . S
C1081 N1078 1.350 . S
C1081 C1080 1.434 . S
C1082 C1083 1.369 . S
C1082 C1084 1.419 . S
C1082 H1086 0.930 . S
C1083 C1082 1.369 . S
C1083 C1092 1.429 . S
C1084 C1082 1.419 . S
C1084 C1085 1.363 . S
C1084 H1087 0.929 . S
C1085 C1084 1.363 . S
C1085 C1091 1.428 . S
H1086 C1082 0.930 . S
H1087 C1084 0.929 . S
S1088 N1089 1.613 1_565 S
S1088 N1090 1.610 1_565 S
N1089 S1088 1.613 1_545 S
N1089 C1092 1.350 . S
N1090 S1088 1.610 1_545 S
N1090 C1091 1.351 . S
C1091 C1085 1.428 . S
C1091 N1090 1.351 . S
C1091 C1092 1.434 . S
C1092 C1083 1.429 . S
C1092 N1089 1.350 . S
C1092 C1091 1.434 . S
C1093 C1094 1.369 . S
C1093 C1095 1.419 . S
C1093 H1097 0.930 . S
C1094 C1093 1.369 . S
C1094 C1103 1.429 . S
C1095 C1093 1.419 . S
C1095 C1096 1.363 . S
C1095 H1098 0.929 . S
C1096 C1095 1.363 . S
C1096 C1102 1.428 . S
H1097 C1093 0.930 . S
H1098 C1095 0.929 . S
S1099 N1100 1.613 . S
S1099 N1101 1.610 . S
N1100 S1099 1.613 . S
N1100 C1103 1.350 . S
N1101 S1099 1.610 . S
N1101 C1102 1.351 . S
C1102 C1096 1.428 . S
C1102 N1101 1.351 . S
C1102 C1103 1.434 . S
C1103 C1094 1.429 . S
C1103 N1100 1.350 . S
C1103 C1102 1.434 . S
C1104 C1105 1.369 . S
C1104 C1106 1.419 . S
C1104 H1108 0.930 . S
C1105 C1104 1.369 . S
C1105 C1114 1.429 . S
C1106 C1104 1.419 . S
C1106 C1107 1.363 . S
C1106 H1109 0.929 . S
C1107 C1106 1.363 . S
C1107 C1113 1.428 . S
H1108 C1104 0.930 . S
H1109 C1106 0.929 . S
S1110 N1111 1.613 1_556 S
S1110 N1112 1.610 1_556 S
N1111 S1110 1.613 1_554 S
N1111 C1114 1.350 . S
N1112 S1110 1.610 1_554 S
N1112 C1113 1.351 . S
C1113 C1107 1.428 . S
C1113 N1112 1.351 . S
C1113 C1114 1.434 . S
C1114 C1105 1.429 . S
C1114 N1111 1.350 . S
C1114 C1113 1.434 . S
C1115 C1116 1.369 . S
C1115 C1117 1.419 . S
C1115 H1119 0.930 . S
C1116 C1115 1.369 . S
C1116 C1125 1.429 . S
C1117 C1115 1.419 . S
C1117 C1118 1.363 . S
C1117 H1120 0.929 . S
C1118 C1117 1.363 . S
C1118 C1124 1.428 . S
H1119 C1115 0.930 . S
H1120 C1117 0.929 . S
S1121 N1122 1.613 . S
S1121 N1123 1.610 . S
N1122 S1121 1.613 . S
N1122 C1125 1.350 . S
N1123 S1121 1.610 . S
N1123 C1124 1.351 . S
C1124 C1118 1.428 . S
C1124 N1123 1.351 . S
C1124 C1125 1.434 . S
C1125 C1116 1.429 . S
C1125 N1122 1.350 . S
C1125 C1124 1.434 . S
C1126 C1127 1.369 . S
C1126 C1128 1.419 . S
C1126 H1130 0.930 1_556 S
C1127 C1126 1.369 . S
C1127 C1136 1.429 . S
C1128 C1126 1.419 . S
C1128 C1129 1.363 . S
C1128 H1131 0.929 1_556 S
C1129 C1128 1.363 . S
C1129 C1135 1.428 . S
H1130 C1126 0.930 1_554 S
H1131 C1128 0.929 1_554 S
S1132 N1133 1.613 . S
S1132 N1134 1.610 . S
N1133 S1132 1.613 . S
N1133 C1136 1.350 . S
N1134 S1132 1.610 . S
N1134 C1135 1.351 . S
C1135 C1129 1.428 . S
C1135 N1134 1.351 . S
C1135 C1136 1.434 . S
C1136 C1127 1.429 . S
C1136 N1133 1.350 . S
C1136 C1135 1.434 . S
C1137 C1138 1.369 . S
C1137 C1139 1.419 . S
C1137 H1141 0.930 . S
C1138 C1137 1.369 . S
C1138 C1147 1.429 . S
C1139 C1137 1.419 . S
C1139 C1140 1.363 . S
C1139 H1142 0.929 . S
C1140 C1139 1.363 . S
C1140 C1146 1.428 . S
H1141 C1137 0.930 . S
H1142 C1139 0.929 . S
S1143 N1144 1.613 . S
S1143 N1145 1.610 . S
N1144 S1143 1.613 . S
N1144 C1147 1.350 . S
N1145 S1143 1.610 . S
N1145 C1146 1.351 . S
C1146 C1140 1.428 . S
C1146 N1145 1.351 . S
C1146 C1147 1.434 . S
C1147 C1138 1.429 . S
C1147 N1144 1.350 . S
C1147 C1146 1.434 . S
C1148 C1149 1.369 . S
C1148 C1150 1.419 . S
C1148 H1152 0.930 . S
C1149 C1148 1.369 . S
C1149 C1158 1.429 . S
C1150 C1148 1.419 . S
C1150 C1151 1.363 . S
C1150 H1153 0.929 . S
C1151 C1150 1.363 . S
C1151 C1157 1.428 . S
H1152 C1148 0.930 . S
H1153 C1150 0.929 . S
S1154 N1155 1.613 . S
S1154 N1156 1.610 . S
N1155 S1154 1.613 . S
N1155 C1158 1.350 . S
N1156 S1154 1.610 . S
N1156 C1157 1.351 . S
C1157 C1151 1.428 . S
C1157 N1156 1.351 . S
C1157 C1158 1.434 . S
C1158 C1149 1.429 . S
C1158 N1155 1.350 . S
C1158 C1157 1.434 . S
C1159 C1160 1.369 . S
C1159 C1161 1.419 . S
C1159 H1163 0.930 . S
C1160 C1159 1.369 . S
C1160 C1169 1.429 . S
C1161 C1159 1.419 . S
C1161 C1162 1.363 . S
C1161 H1164 0.929 . S
C1162 C1161 1.363 . S
C1162 C1168 1.428 . S
H1163 C1159 0.930 . S
H1164 C1161 0.929 . S
S1165 N1166 1.613 . S
S1165 N1167 1.610 . S
N1166 S1165 1.613 . S
N1166 C1169 1.350 . S
N1167 S1165 1.610 . S
N1167 C1168 1.351 . S
C1168 C1162 1.428 . S
C1168 N1167 1.351 . S
C1168 C1169 1.434 . S
C1169 C1160 1.429 . S
C1169 N1166 1.350 . S
C1169 C1168 1.434 . S
C1170 C1171 1.369 . S
C1170 C1172 1.419 . S
C1170 H1174 0.930 . S
C1171 C1170 1.369 . S
C1171 C1180 1.429 . S
C1172 C1170 1.419 . S
C1172 C1173 1.363 . S
C1172 H1175 0.929 . S
C1173 C1172 1.363 . S
C1173 C1179 1.428 . S
H1174 C1170 0.930 . S
H1175 C1172 0.929 . S
S1176 N1177 1.613 . S
S1176 N1178 1.610 . S
N1177 S1176 1.613 . S
N1177 C1180 1.350 . S
N1178 S1176 1.610 . S
N1178 C1179 1.351 . S
C1179 C1173 1.428 . S
C1179 N1178 1.351 . S
C1179 C1180 1.434 . S
C1180 C1171 1.429 . S
C1180 N1177 1.350 . S
C1180 C1179 1.434 . S
C1181 C1182 1.369 . S
C1181 C1183 1.419 . S
C1181 H1185 0.930 . S
C1182 C1181 1.369 . S
C1182 C1191 1.429 . S
C1183 C1181 1.419 . S
C1183 C1184 1.363 . S
C1183 H1186 0.929 . S
C1184 C1183 1.363 . S
C1184 C1190 1.428 . S
H1185 C1181 0.930 . S
H1186 C1183 0.929 . S
S1187 N1188 1.613 . S
S1187 N1189 1.610 . S
N1188 S1187 1.613 . S
N1188 C1191 1.350 . S
N1189 S1187 1.610 . S
N1189 C1190 1.351 . S
C1190 C1184 1.428 . S
C1190 N1189 1.351 . S
C1190 C1191 1.434 . S
C1191 C1182 1.429 . S
C1191 N1188 1.350 . S
C1191 C1190 1.434 . S
C1192 C1193 1.369 . S
C1192 C1194 1.419 . S
C1192 H1196 0.930 . S
C1193 C1192 1.369 . S
C1193 C1202 1.429 . S
C1194 C1192 1.419 . S
C1194 C1195 1.363 . S
C1194 H1197 0.929 . S
C1195 C1194 1.363 . S
C1195 C1201 1.428 . S
H1196 C1192 0.930 . S
H1197 C1194 0.929 . S
S1198 N1199 1.613 . S
S1198 N1200 1.610 . S
N1199 S1198 1.613 . S
N1199 C1202 1.350 . S
N1200 S1198 1.610 . S
N1200 C1201 1.351 . S
C1201 C1195 1.428 . S
C1201 N1200 1.351 . S
C1201 C1202 1.434 . S
C1202 C1193 1.429 . S
C1202 N1199 1.350 . S
C1202 C1201 1.434 . S
C1203 C1204 1.369 . S
C1203 C1205 1.419 . S
C1203 H1207 0.930 . S
C1204 C1203 1.369 . S
C1204 C1213 1.429 . S
C1205 C1203 1.419 . S
C1205 C1206 1.363 . S
C1205 H1208 0.929 . S
C1206 C1205 1.363 . S
C1206 C1212 1.428 . S
H1207 C1203 0.930 . S
H1208 C1205 0.929 . S
S1209 N1210 1.613 . S
S1209 N1211 1.610 . S
N1210 S1209 1.613 . S
N1210 C1213 1.350 . S
N1211 S1209 1.610 . S
N1211 C1212 1.351 . S
C1212 C1206 1.428 . S
C1212 N1211 1.351 . S
C1212 C1213 1.434 . S
C1213 C1204 1.429 . S
C1213 N1210 1.350 . S
C1213 C1212 1.434 . S
C1214 C1215 1.369 . S
C1214 C1216 1.419 . S
C1214 H1218 0.930 . S
C1215 C1214 1.369 . S
C1215 C1224 1.429 . S
C1216 C1214 1.419 . S
C1216 C1217 1.363 . S
C1216 H1219 0.929 . S
C1217 C1216 1.363 . S
C1217 C1223 1.428 . S
H1218 C1214 0.930 . S
H1219 C1216 0.929 . S
S1220 N1221 1.613 . S
S1220 N1222 1.610 . S
N1221 S1220 1.613 . S
N1221 C1224 1.350 . S
N1222 S1220 1.610 . S
N1222 C1223 1.351 . S
C1223 C1217 1.428 . S
C1223 N1222 1.351 . S
C1223 C1224 1.434 . S
C1224 C1215 1.429 . S
C1224 N1221 1.350 . S
C1224 C1223 1.434 . S
C1225 C1226 1.369 . S
C1225 C1227 1.419 . S
C1225 H1229 0.930 . S
C1226 C1225 1.369 . S
C1226 C1235 1.429 . S
C1227 C1225 1.419 . S
C1227 C1228 1.363 . S
C1227 H1230 0.929 . S
C1228 C1227 1.363 . S
C1228 C1234 1.428 . S
H1229 C1225 0.930 . S
H1230 C1227 0.929 . S
S1231 N1232 1.613 . S
S1231 N1233 1.610 . S
N1232 S1231 1.613 . S
N1232 C1235 1.350 . S
N1233 S1231 1.610 . S
N1233 C1234 1.351 . S
C1234 C1228 1.428 . S
C1234 N1233 1.351 . S
C1234 C1235 1.434 . S
C1235 C1226 1.429 . S
C1235 N1232 1.350 . S
C1235 C1234 1.434 . S
C1236 C1237 1.369 . S
C1236 C1238 1.419 . S
C1236 H1240 0.930 . S
C1237 C1236 1.369 . S
C1237 C1246 1.429 . S
C1238 C1236 1.419 . S
C1238 C1239 1.363 . S
C1238 H1241 0.929 . S
C1239 C1238 1.363 . S
C1239 C1245 1.428 . S
H1240 C1236 0.930 . S
H1241 C1238 0.929 . S
S1242 N1243 1.613 . S
S1242 N1244 1.610 . S
N1243 S1242 1.613 . S
N1243 C1246 1.350 . S
N1244 S1242 1.610 . S
N1244 C1245 1.351 . S
C1245 C1239 1.428 . S
C1245 N1244 1.351 . S
C1245 C1246 1.434 . S
C1246 C1237 1.429 . S
C1246 N1243 1.350 . S
C1246 C1245 1.434 . S
C1247 C1248 1.369 . S
C1247 C1249 1.419 . S
C1247 H1251 0.930 . S
C1248 C1247 1.369 . S
C1248 C1257 1.429 . S
C1249 C1247 1.419 . S
C1249 C1250 1.363 . S
C1249 H1252 0.929 . S
C1250 C1249 1.363 . S
C1250 C1256 1.428 . S
H1251 C1247 0.930 . S
H1252 C1249 0.929 . S
S1253 N1254 1.613 . S
S1253 N1255 1.610 . S
N1254 S1253 1.613 . S
N1254 C1257 1.350 . S
N1255 S1253 1.610 . S
N1255 C1256 1.351 . S
C1256 C1250 1.428 . S
C1256 N1255 1.351 . S
C1256 C1257 1.434 . S
C1257 C1248 1.429 . S
C1257 N1254 1.350 . S
C1257 C1256 1.434 . S
C1258 C1259 1.369 . S
C1258 C1260 1.419 . S
C1258 H1262 0.930 . S
C1259 C1258 1.369 . S
C1259 C1268 1.429 . S
C1260 C1258 1.419 . S
C1260 C1261 1.363 . S
C1260 H1263 0.929 . S
C1261 C1260 1.363 . S
C1261 C1267 1.428 . S
H1262 C1258 0.930 . S
H1263 C1260 0.929 . S
S1264 N1265 1.613 . S
S1264 N1266 1.610 . S
N1265 S1264 1.613 . S
N1265 C1268 1.350 1_554 S
N1266 S1264 1.610 . S
N1266 C1267 1.351 1_554 S
C1267 C1261 1.428 . S
C1267 N1266 1.351 1_556 S
C1267 C1268 1.434 . S
C1268 C1259 1.429 . S
C1268 N1265 1.350 1_556 S
C1268 C1267 1.434 . S
C1269 C1270 1.369 . S
C1269 C1271 1.419 . S
C1269 H1273 0.930 . S
C1270 C1269 1.369 . S
C1270 C1279 1.429 . S
C1271 C1269 1.419 . S
C1271 C1272 1.363 . S
C1271 H1274 0.929 . S
C1272 C1271 1.363 . S
C1272 C1278 1.428 . S
H1273 C1269 0.930 . S
H1274 C1271 0.929 . S
S1275 N1276 1.613 . S
S1275 N1277 1.610 . S
N1276 S1275 1.613 . S
N1276 C1279 1.350 . S
N1277 S1275 1.610 . S
N1277 C1278 1.351 . S
C1278 C1272 1.428 . S
C1278 N1277 1.351 . S
C1278 C1279 1.434 . S
C1279 C1270 1.429 . S
C1279 N1276 1.350 . S
C1279 C1278 1.434 . S
C1280 C1281 1.369 . S
C1280 C1282 1.419 . S
C1280 H1284 0.930 . S
C1281 C1280 1.369 . S
C1281 C1290 1.429 . S
C1282 C1280 1.419 . S
C1282 C1283 1.363 . S
C1282 H1285 0.929 . S
C1283 C1282 1.363 . S
C1283 C1289 1.428 . S
H1284 C1280 0.930 . S
H1285 C1282 0.929 . S
S1286 N1287 1.613 . S
S1286 N1288 1.610 . S
N1287 S1286 1.613 . S
N1287 C1290 1.350 . S
N1288 S1286 1.610 . S
N1288 C1289 1.351 . S
C1289 C1283 1.428 . S
C1289 N1288 1.351 . S
C1289 C1290 1.434 . S
C1290 C1281 1.429 . S
C1290 N1287 1.350 . S
C1290 C1289 1.434 . S
C1291 C1292 1.369 . S
C1291 C1293 1.419 . S
C1291 H1295 0.930 . S
C1292 C1291 1.369 . S
C1292 C1301 1.429 . S
C1293 C1291 1.419 . S
C1293 C1294 1.363 . S
C1293 H1296 0.929 . S
C1294 C1293 1.363 . S
C1294 C1300 1.428 . S
H1295 C1291 0.930 . S
H1296 C1293 0.929 . S
S1297 N1298 1.613 . S
S1297 N1299 1.610 . S
N1298 S1297 1.613 . S
N1298 C1301 1.350 . S
N1299 S1297 1.610 . S
N1299 C1300 1.351 . S
C1300 C1294 1.428 . S
C1300 N1299 1.351 . S
C1300 C1301 1.434 . S
C1301 C1292 1.429 . S
C1301 N1298 1.350 . S
C1301 C1300 1.434 . S
C1302 C1303 1.369 . S
C1302 C1304 1.419 . S
C1302 H1306 0.930 . S
C1303 C1302 1.369 . S
C1303 C1312 1.429 . S
C1304 C1302 1.419 . S
C1304 C1305 1.363 . S
C1304 H1307 0.929 . S
C1305 C1304 1.363 . S
C1305 C1311 1.428 . S
H1306 C1302 0.930 . S
H1307 C1304 0.929 . S
S1308 N1309 1.613 . S
S1308 N1310 1.610 . S
N1309 S1308 1.613 . S
N1309 C1312 1.350 . S
N1310 S1308 1.610 . S
N1310 C1311 1.351 . S
C1311 C1305 1.428 . S
C1311 N1310 1.351 . S
C1311 C1312 1.434 . S
C1312 C1303 1.429 . S
C1312 N1309 1.350 . S
C1312 C1311 1.434 . S
C1313 C1314 1.369 . S
C1313 C1315 1.419 . S
C1313 H1317 0.930 . S
C1314 C1313 1.369 . S
C1314 C1323 1.429 . S
C1315 C1313 1.419 . S
C1315 C1316 1.363 . S
C1315 H1318 0.929 . S
C1316 C1315 1.363 . S
C1316 C1322 1.428 . S
H1317 C1313 0.930 . S
H1318 C1315 0.929 . S
S1319 N1320 1.613 . S
S1319 N1321 1.610 . S
N1320 S1319 1.613 . S
N1320 C1323 1.350 . S
N1321 S1319 1.610 . S
N1321 C1322 1.351 . S
C1322 C1316 1.428 . S
C1322 N1321 1.351 . S
C1322 C1323 1.434 . S
C1323 C1314 1.429 . S
C1323 N1320 1.350 . S
C1323 C1322 1.434 . S
C1324 C1325 1.369 . S
C1324 C1326 1.419 . S
C1324 H1328 0.930 . S
C1325 C1324 1.369 . S
C1325 C1334 1.429 . S
C1326 C1324 1.419 . S
C1326 C1327 1.363 . S
C1326 H1329 0.929 . S
C1327 C1326 1.363 . S
C1327 C1333 1.428 . S
H1328 C1324 0.930 . S
H1329 C1326 0.929 . S
S1330 N1331 1.613 . S
S1330 N1332 1.610 . S
N1331 S1330 1.613 . S
N1331 C1334 1.350 . S
N1332 S1330 1.610 . S
N1332 C1333 1.351 . S
C1333 C1327 1.428 . S
C1333 N1332 1.351 . S
C1333 C1334 1.434 . S
C1334 C1325 1.429 . S
C1334 N1331 1.350 . S
C1334 C1333 1.434 . S
C1335 C1336 1.369 . S
C1335 C1337 1.419 . S
C1335 H1339 0.930 . S
C1336 C1335 1.369 . S
C1336 C1345 1.429 . S
C1337 C1335 1.419 . S
C1337 C1338 1.363 . S
C1337 H1340 0.929 . S
C1338 C1337 1.363 . S
C1338 C1344 1.428 . S
H1339 C1335 0.930 . S
H1340 C1337 0.929 . S
S1341 N1342 1.613 . S
S1341 N1343 1.610 . S
N1342 S1341 1.613 . S
N1342 C1345 1.350 . S
N1343 S1341 1.610 . S
N1343 C1344 1.351 . S
C1344 C1338 1.428 . S
C1344 N1343 1.351 . S
C1344 C1345 1.434 . S
C1345 C1336 1.429 . S
C1345 N1342 1.350 . S
C1345 C1344 1.434 . S
C1346 C1347 1.369 . S
C1346 C1348 1.419 . S
C1346 H1350 0.930 . S
C1347 C1346 1.369 . S
C1347 C1356 1.429 . S
C1348 C1346 1.419 . S
C1348 C1349 1.363 . S
C1348 H1351 0.929 . S
C1349 C1348 1.363 . S
C1349 C1355 1.428 . S
H1350 C1346 0.930 . S
H1351 C1348 0.929 . S
S1352 N1353 1.613 . S
S1352 N1354 1.610 . S
N1353 S1352 1.613 . S
N1353 C1356 1.350 . S
N1354 S1352 1.610 . S
N1354 C1355 1.351 . S
C1355 C1349 1.428 . S
C1355 N1354 1.351 . S
C1355 C1356 1.434 . S
C1356 C1347 1.429 . S
C1356 N1353 1.350 . S
C1356 C1355 1.434 . S
C1357 C1358 1.369 . S
C1357 C1359 1.419 . S
C1357 H1361 0.930 . S
C1358 C1357 1.369 . S
C1358 C1367 1.429 . S
C1359 C1357 1.419 . S
C1359 C1360 1.363 . S
C1359 H1362 0.929 . S
C1360 C1359 1.363 . S
C1360 C1366 1.428 . S
H1361 C1357 0.930 . S
H1362 C1359 0.929 . S
S1363 N1364 1.613 . S
S1363 N1365 1.610 . S
N1364 S1363 1.613 . S
N1364 C1367 1.350 . S
N1365 S1363 1.610 . S
N1365 C1366 1.351 . S
C1366 C1360 1.428 . S
C1366 N1365 1.351 . S
C1366 C1367 1.434 . S
C1367 C1358 1.429 . S
C1367 N1364 1.350 . S
C1367 C1366 1.434 . S
C1368 C1369 1.369 . S
C1368 C1370 1.419 . S
C1368 H1372 0.930 . S
C1369 C1368 1.369 . S
C1369 C1378 1.429 . S
C1370 C1368 1.419 . S
C1370 C1371 1.363 . S
C1370 H1373 0.929 . S
C1371 C1370 1.363 . S
C1371 C1377 1.428 . S
H1372 C1368 0.930 . S
H1373 C1370 0.929 . S
S1374 N1375 1.613 . S
S1374 N1376 1.610 . S
N1375 S1374 1.613 . S
N1375 C1378 1.350 . S
N1376 S1374 1.610 . S
N1376 C1377 1.351 . S
C1377 C1371 1.428 . S
C1377 N1376 1.351 . S
C1377 C1378 1.434 . S
C1378 C1369 1.429 . S
C1378 N1375 1.350 . S
C1378 C1377 1.434 . S
C1379 C1380 1.369 . S
C1379 C1381 1.419 . S
C1379 H1383 0.930 . S
C1380 C1379 1.369 . S
C1380 C1389 1.429 . S
C1381 C1379 1.419 . S
C1381 C1382 1.363 . S
C1381 H1384 0.929 . S
C1382 C1381 1.363 . S
C1382 C1388 1.428 . S
H1383 C1379 0.930 . S
H1384 C1381 0.929 . S
S1385 N1386 1.613 . S
S1385 N1387 1.610 . S
N1386 S1385 1.613 . S
N1386 C1389 1.350 . S
N1387 S1385 1.610 . S
N1387 C1388 1.351 . S
C1388 C1382 1.428 . S
C1388 N1387 1.351 . S
C1388 C1389 1.434 . S
C1389 C1380 1.429 . S
C1389 N1386 1.350 . S
C1389 C1388 1.434 . S
C1390 C1391 1.369 . S
C1390 C1392 1.419 . S
C1390 H1394 0.930 . S
C1391 C1390 1.369 . S
C1391 C1400 1.429 . S
C1392 C1390 1.419 . S
C1392 C1393 1.363 . S
C1392 H1395 0.929 . S
C1393 C1392 1.363 . S
C1393 C1399 1.428 . S
H1394 C1390 0.930 . S
H1395 C1392 0.929 . S
S1396 N1397 1.613 . S
S1396 N1398 1.610 . S
N1397 S1396 1.613 . S
N1397 C1400 1.350 . S
N1398 S1396 1.610 . S
N1398 C1399 1.351 . S
C1399 C1393 1.428 . S
C1399 N1398 1.351 . S
C1399 C1400 1.434 . S
C1400 C1391 1.429 . S
C1400 N1397 1.350 . S
C1400 C1399 1.434 . S
C1401 C1402 1.369 . S
C1401 C1403 1.419 . S
C1401 H1405 0.930 . S
C1402 C1401 1.369 . S
C1402 C1411 1.429 . S
C1403 C1401 1.419 . S
C1403 C1404 1.363 . S
C1403 H1406 0.929 . S
C1404 C1403 1.363 . S
C1404 C1410 1.428 . S
H1405 C1401 0.930 . S
H1406 C1403 0.929 . S
S1407 N1408 1.613 . S
S1407 N1409 1.610 . S
N1408 S1407 1.613 . S
N1408 C1411 1.350 . S
N1409 S1407 1.610 . S
N1409 C1410 1.351 . S
C1410 C1404 1.428 . S
C1410 N1409 1.351 . S
C1410 C1411 1.434 . S
C1411 C1402 1.429 . S
C1411 N1408 1.350 . S
C1411 C1410 1.434 . S
C1412 C1413 1.369 . S
C1412 C1414 1.419 . S
C1412 H1416 0.930 . S
C1413 C1412 1.369 . S
C1413 C1422 1.429 . S
C1414 C1412 1.419 . S
C1414 C1415 1.363 . S
C1414 H1417 0.929 . S
C1415 C1414 1.363 . S
C1415 C1421 1.428 . S
H1416 C1412 0.930 . S
H1417 C1414 0.929 . S
S1418 N1419 1.613 . S
S1418 N1420 1.610 . S
N1419 S1418 1.613 . S
N1419 C1422 1.350 . S
N1420 S1418 1.610 . S
N1420 C1421 1.351 . S
C1421 C1415 1.428 . S
C1421 N1420 1.351 . S
C1421 C1422 1.434 . S
C1422 C1413 1.429 . S
C1422 N1419 1.350 . S
C1422 C1421 1.434 . S
C1423 C1424 1.369 . S
C1423 C1425 1.419 . S
C1423 H1427 0.930 . S
C1424 C1423 1.369 . S
C1424 C1433 1.429 . S
C1425 C1423 1.419 . S
C1425 C1426 1.363 . S
C1425 H1428 0.929 . S
C1426 C1425 1.363 . S
C1426 C1432 1.428 . S
H1427 C1423 0.930 . S
H1428 C1425 0.929 . S
S1429 N1430 1.613 . S
S1429 N1431 1.610 . S
N1430 S1429 1.613 . S
N1430 C1433 1.350 . S
N1431 S1429 1.610 . S
N1431 C1432 1.351 . S
C1432 C1426 1.428 . S
C1432 N1431 1.351 . S
C1432 C1433 1.434 . S
C1433 C1424 1.429 . S
C1433 N1430 1.350 . S
C1433 C1432 1.434 . S
C1434 C1435 1.369 . S
C1434 C1436 1.419 . S
C1434 H1438 0.930 . S
C1435 C1434 1.369 . S
C1435 C1444 1.429 . S
C1436 C1434 1.419 . S
C1436 C1437 1.363 . S
C1436 H1439 0.929 . S
C1437 C1436 1.363 . S
C1437 C1443 1.428 . S
H1438 C1434 0.930 . S
H1439 C1436 0.929 . S
S1440 N1441 1.613 . S
S1440 N1442 1.610 . S
N1441 S1440 1.613 . S
N1441 C1444 1.350 . S
N1442 S1440 1.610 . S
N1442 C1443 1.351 . S
C1443 C1437 1.428 . S
C1443 N1442 1.351 . S
C1443 C1444 1.434 . S
C1444 C1435 1.429 . S
C1444 N1441 1.350 . S
C1444 C1443 1.434 . S
C1445 C1446 1.369 . S
C1445 C1447 1.419 . S
C1445 H1449 0.930 . S
C1446 C1445 1.369 . S
C1446 C1455 1.429 . S
C1447 C1445 1.419 . S
C1447 C1448 1.363 . S
C1447 H1450 0.929 . S
C1448 C1447 1.363 . S
C1448 C1454 1.428 . S
H1449 C1445 0.930 . S
H1450 C1447 0.929 . S
S1451 N1452 1.613 . S
S1451 N1453 1.610 . S
N1452 S1451 1.613 . S
N1452 C1455 1.350 . S
N1453 S1451 1.610 . S
N1453 C1454 1.351 . S
C1454 C1448 1.428 . S
C1454 N1453 1.351 . S
C1454 C1455 1.434 . S
C1455 C1446 1.429 . S
C1455 N1452 1.350 . S
C1455 C1454 1.434 . S
C1456 C1457 1.369 . S
C1456 C1458 1.419 . S
C1456 H1460 0.930 . S
C1457 C1456 1.369 . S
C1457 C1466 1.429 . S
C1458 C1456 1.419 . S
C1458 C1459 1.363 . S
C1458 H1461 0.929 . S
C1459 C1458 1.363 . S
C1459 C1465 1.428 . S
H1460 C1456 0.930 . S
H1461 C1458 0.929 . S
S1462 N1463 1.613 . S
S1462 N1464 1.610 . S
N1463 S1462 1.613 . S
N1463 C1466 1.350 . S
N1464 S1462 1.610 . S
N1464 C1465 1.351 . S
C1465 C1459 1.428 . S
C1465 N1464 1.351 . S
C1465 C1466 1.434 . S
C1466 C1457 1.429 . S
C1466 N1463 1.350 . S
C1466 C1465 1.434 . S
C1467 C1468 1.369 . S
C1467 C1469 1.419 . S
C1467 H1471 0.930 . S
C1468 C1467 1.369 . S
C1468 C1477 1.429 . S
C1469 C1467 1.419 . S
C1469 C1470 1.363 . S
C1469 H1472 0.929 . S
C1470 C1469 1.363 . S
C1470 C1476 1.428 . S
H1471 C1467 0.930 . S
H1472 C1469 0.929 . S
S1473 N1474 1.613 . S
S1473 N1475 1.610 . S
N1474 S1473 1.613 . S
N1474 C1477 1.350 . S
N1475 S1473 1.610 . S
N1475 C1476 1.351 . S
C1476 C1470 1.428 . S
C1476 N1475 1.351 . S
C1476 C1477 1.434 . S
C1477 C1468 1.429 . S
C1477 N1474 1.350 . S
C1477 C1476 1.434 . S
C1478 C1479 1.369 . S
C1478 C1480 1.419 . S
C1478 H1482 0.930 . S
C1479 C1478 1.369 . S
C1479 C1488 1.429 . S
C1480 C1478 1.419 . S
C1480 C1481 1.363 . S
C1480 H1483 0.929 . S
C1481 C1480 1.363 . S
C1481 C1487 1.428 . S
H1482 C1478 0.930 . S
H1483 C1480 0.929 . S
S1484 N1485 1.613 . S
S1484 N1486 1.610 . S
N1485 S1484 1.613 . S
N1485 C1488 1.350 . S
N1486 S1484 1.610 . S
N1486 C1487 1.351 . S
C1487 C1481 1.428 . S
C1487 N1486 1.351 . S
C1487 C1488 1.434 . S
C1488 C1479 1.429 . S
C1488 N1485 1.350 . S
C1488 C1487 1.434 . S
C1489 C1490 1.369 . S
C1489 C1491 1.419 . S
C1489 H1493 0.930 . S
C1490 C1489 1.369 . S
C1490 C1499 1.429 . S
C1491 C1489 1.419 . S
C1491 C1492 1.363 . S
C1491 H1494 0.929 . S
C1492 C1491 1.363 . S
C1492 C1498 1.428 . S
H1493 C1489 0.930 . S
H1494 C1491 0.929 . S
S1495 N1496 1.613 1_565 S
S1495 N1497 1.610 1_565 S
N1496 S1495 1.613 1_545 S
N1496 C1499 1.350 . S
N1497 S1495 1.610 1_545 S
N1497 C1498 1.351 . S
C1498 C1492 1.428 . S
C1498 N1497 1.351 . S
C1498 C1499 1.434 . S
C1499 C1490 1.429 . S
C1499 N1496 1.350 . S
C1499 C1498 1.434 . S
C1500 C1501 1.369 . S
C1500 C1502 1.419 . S
C1500 H1504 0.930 . S
C1501 C1500 1.369 . S
C1501 C1510 1.429 . S
C1502 C1500 1.419 . S
C1502 C1503 1.363 . S
C1502 H1505 0.929 . S
C1503 C1502 1.363 . S
C1503 C1509 1.428 . S
H1504 C1500 0.930 . S
H1505 C1502 0.929 . S
S1506 N1507 1.613 . S
S1506 N1508 1.610 . S
N1507 S1506 1.613 . S
N1507 C1510 1.350 . S
N1508 S1506 1.610 . S
N1508 C1509 1.351 . S
C1509 C1503 1.428 . S
C1509 N1508 1.351 . S
C1509 C1510 1.434 . S
C1510 C1501 1.429 . S
C1510 N1507 1.350 . S
C1510 C1509 1.434 . S
C1511 C1512 1.369 . S
C1511 C1513 1.419 . S
C1511 H1515 0.930 . S
C1512 C1511 1.369 . S
C1512 C1521 1.429 . S
C1513 C1511 1.419 . S
C1513 C1514 1.363 . S
C1513 H1516 0.929 . S
C1514 C1513 1.363 . S
C1514 C1520 1.428 . S
H1515 C1511 0.930 . S
H1516 C1513 0.929 . S
S1517 N1518 1.613 . S
S1517 N1519 1.610 . S
N1518 S1517 1.613 . S
N1518 C1521 1.350 . S
N1519 S1517 1.610 . S
N1519 C1520 1.351 . S
C1520 C1514 1.428 . S
C1520 N1519 1.351 . S
C1520 C1521 1.434 . S
C1521 C1512 1.429 . S
C1521 N1518 1.350 . S
C1521 C1520 1.434 . S
C1522 C1523 1.369 . S
C1522 C1524 1.419 . S
C1522 H1526 0.930 . S
C1523 C1522 1.369 . S
C1523 C1532 1.429 . S
C1524 C1522 1.419 . S
C1524 C1525 1.363 . S
C1524 H1527 0.929 . S
C1525 C1524 1.363 . S
C1525 C1531 1.428 . S
H1526 C1522 0.930 . S
H1527 C1524 0.929 . S
S1528 N1529 1.613 . S
S1528 N1530 1.610 . S
N1529 S1528 1.613 . S
N1529 C1532 1.350 . S
N1530 S1528 1.610 . S
N1530 C1531 1.351 . S
C1531 C1525 1.428 . S
C1531 N1530 1.351 . S
C1531 C1532 1.434 . S
C1532 C1523 1.429 . S
C1532 N1529 1.350 . S
C1532 C1531 1.434 . S
C1533 C1534 1.369 . S
C1533 C1535 1.419 . S
C1533 H1537 0.930 . S
C1534 C1533 1.369 . S
C1534 C1543 1.429 . S
C1535 C1533 1.419 . S
C1535 C1536 1.363 . S
C1535 H1538 0.929 . S
C1536 C1535 1.363 . S
C1536 C1542 1.428 . S
H1537 C1533 0.930 . S
H1538 C1535 0.929 . S
S1539 N1540 1.613 . S
S1539 N1541 1.610 . S
N1540 S1539 1.613 . S
N1540 C1543 1.350 . S
N1541 S1539 1.610 . S
N1541 C1542 1.351 . S
C1542 C1536 1.428 . S
C1542 N1541 1.351 . S
C1542 C1543 1.434 . S
C1543 C1534 1.429 . S
C1543 N1540 1.350 . S
C1543 C1542 1.434 . S
C1544 C1545 1.369 . S
C1544 C1546 1.419 . S
C1544 H1548 0.930 . S
C1545 C1544 1.369 . S
C1545 C1554 1.429 . S
C1546 C1544 1.419 . S
C1546 C1547 1.363 . S
C1546 H1549 0.929 . S
C1547 C1546 1.363 . S
C1547 C1553 1.428 . S
H1548 C1544 0.930 . S
H1549 C1546 0.929 . S
S1550 N1551 1.613 . S
S1550 N1552 1.610 . S
N1551 S1550 1.613 . S
N1551 C1554 1.350 . S
N1552 S1550 1.610 . S
N1552 C1553 1.351 . S
C1553 C1547 1.428 . S
C1553 N1552 1.351 . S
C1553 C1554 1.434 . S
C1554 C1545 1.429 . S
C1554 N1551 1.350 . S
C1554 C1553 1.434 . S
C1555 C1556 1.369 . S
C1555 C1557 1.419 . S
C1555 H1559 0.930 . S
C1556 C1555 1.369 . S
C1556 C1565 1.429 . S
C1557 C1555 1.419 . S
C1557 C1558 1.363 . S
C1557 H1560 0.929 . S
C1558 C1557 1.363 . S
C1558 C1564 1.428 . S
H1559 C1555 0.930 . S
H1560 C1557 0.929 . S
S1561 N1562 1.613 . S
S1561 N1563 1.610 . S
N1562 S1561 1.613 . S
N1562 C1565 1.350 . S
N1563 S1561 1.610 . S
N1563 C1564 1.351 . S
C1564 C1558 1.428 . S
C1564 N1563 1.351 . S
C1564 C1565 1.434 . S
C1565 C1556 1.429 . S
C1565 N1562 1.350 . S
C1565 C1564 1.434 . S
C1566 C1567 1.369 . S
C1566 C1568 1.419 . S
C1566 H1570 0.930 . S
C1567 C1566 1.369 . S
C1567 C1576 1.429 . S
C1568 C1566 1.419 . S
C1568 C1569 1.363 . S
C1568 H1571 0.929 . S
C1569 C1568 1.363 . S
C1569 C1575 1.428 . S
H1570 C1566 0.930 . S
H1571 C1568 0.929 . S
S1572 N1573 1.613 . S
S1572 N1574 1.610 . S
N1573 S1572 1.613 . S
N1573 C1576 1.350 . S
N1574 S1572 1.610 . S
N1574 C1575 1.351 . S
C1575 C1569 1.428 . S
C1575 N1574 1.351 . S
C1575 C1576 1.434 . S
C1576 C1567 1.429 . S
C1576 N1573 1.350 . S
C1576 C1575 1.434 . S
C1577 C1578 1.369 . S
C1577 C1579 1.419 . S
C1577 H1581 0.930 . S
C1578 C1577 1.369 . S
C1578 C1587 1.429 . S
C1579 C1577 1.419 . S
C1579 C1580 1.363 . S
C1579 H1582 0.929 . S
C1580 C1579 1.363 . S
C1580 C1586 1.428 . S
H1581 C1577 0.930 . S
H1582 C1579 0.929 . S
S1583 N1584 1.613 . S
S1583 N1585 1.610 . S
N1584 S1583 1.613 . S
N1584 C1587 1.350 . S
N1585 S1583 1.610 . S
N1585 C1586 1.351 . S
C1586 C1580 1.428 . S
C1586 N1585 1.351 . S
C1586 C1587 1.434 . S
C1587 C1578 1.429 . S
C1587 N1584 1.350 . S
C1587 C1586 1.434 . S
C1588 C1589 1.369 . S
C1588 C1590 1.419 . S
C1588 H1592 0.930 . S
C1589 C1588 1.369 . S
C1589 C1598 1.429 . S
C1590 C1588 1.419 . S
C1590 C1591 1.363 . S
C1590 H1593 0.929 . S
C1591 C1590 1.363 . S
C1591 C1597 1.428 . S
H1592 C1588 0.930 . S
H1593 C1590 0.929 . S
S1594 N1595 1.613 . S
S1594 N1596 1.610 . S
N1595 S1594 1.613 . S
N1595 C1598 1.350 . S
N1596 S1594 1.610 . S
N1596 C1597 1.351 . S
C1597 C1591 1.428 . S
C1597 N1596 1.351 . S
C1597 C1598 1.434 . S
C1598 C1589 1.429 . S
C1598 N1595 1.350 . S
C1598 C1597 1.434 . S
C1599 C1600 1.369 . S
C1599 C1601 1.419 . S
C1599 H1603 0.930 . S
C1600 C1599 1.369 . S
C1600 C1609 1.429 . S
C1601 C1599 1.419 . S
C1601 C1602 1.363 . S
C1601 H1604 0.929 . S
C1602 C1601 1.363 . S
C1602 C1608 1.428 . S
H1603 C1599 0.930 . S
H1604 C1601 0.929 . S
S1605 N1606 1.613 . S
S1605 N1607 1.610 . S
N1606 S1605 1.613 . S
N1606 C1609 1.350 . S
N1607 S1605 1.610 . S
N1607 C1608 1.351 . S
C1608 C1602 1.428 . S
C1608 N1607 1.351 . S
C1608 C1609 1.434 . S
C1609 C1600 1.429 . S
C1609 N1606 1.350 . S
C1609 C1608 1.434 . S
C1610 C1611 1.369 . S
C1610 C1612 1.419 . S
C1610 H1614 0.930 . S
C1611 C1610 1.369 . S
C1611 C1620 1.429 . S
C1612 C1610 1.419 . S
C1612 C1613 1.363 . S
C1612 H1615 0.929 . S
C1613 C1612 1.363 . S
C1613 C1619 1.428 . S
H1614 C1610 0.930 . S
H1615 C1612 0.929 . S
S1616 N1617 1.613 . S
S1616 N1618 1.610 . S
N1617 S1616 1.613 . S
N1617 C1620 1.350 . S
N1618 S1616 1.610 . S
N1618 C1619 1.351 . S
C1619 C1613 1.428 . S
C1619 N1618 1.351 . S
C1619 C1620 1.434 . S
C1620 C1611 1.429 . S
C1620 N1617 1.350 . S
C1620 C1619 1.434 . S
C1621 C1622 1.369 . S
C1621 C1623 1.419 . S
C1621 H1625 0.930 . S
C1622 C1621 1.369 . S
C1622 C1631 1.429 . S
C1623 C1621 1.419 . S
C1623 C1624 1.363 . S
C1623 H1626 0.929 . S
C1624 C1623 1.363 . S
C1624 C1630 1.428 . S
H1625 C1621 0.930 . S
H1626 C1623 0.929 . S
S1627 N1628 1.613 . S
S1627 N1629 1.610 . S
N1628 S1627 1.613 . S
N1628 C1631 1.350 . S
N1629 S1627 1.610 . S
N1629 C1630 1.351 . S
C1630 C1624 1.428 . S
C1630 N1629 1.351 . S
C1630 C1631 1.434 . S
C1631 C1622 1.429 . S
C1631 N1628 1.350 . S
C1631 C1630 1.434 . S
C1632 C1633 1.420 . S
C1632 C1634 1.368 1_655 S
C1632 H1636 0.930 . S
C1633 C1632 1.420 . S
C1633 C1642 1.429 1_554 S
C1634 C1632 1.368 1_455 S
C1634 C1635 1.363 1_554 S
C1634 H1637 0.929 . S
C1635 C1634 1.363 1_556 S
C1635 C1641 1.442 . S
H1636 C1632 0.930 . S
H1637 C1634 0.929 . S
S1638 N1639 1.613 . S
S1638 N1640 1.610 . S
N1639 S1638 1.613 . S
N1639 C1642 1.350 . S
N1640 S1638 1.610 . S
N1640 C1641 1.349 1_655 S
C1641 C1635 1.442 . S
C1641 N1640 1.349 1_455 S
C1641 C1642 1.420 1_455 S
C1642 C1633 1.429 1_556 S
C1642 N1639 1.350 . S
C1642 C1641 1.420 1_655 S
C1643 C1644 1.369 . S
C1643 C1645 1.419 . S
C1643 H1647 0.930 . S
C1644 C1643 1.369 . S
C1644 C1653 1.429 1_554 S
C1645 C1643 1.419 . S
C1645 C1646 1.363 1_554 S
C1645 H1648 0.929 . S
C1646 C1645 1.363 1_556 S
C1646 C1652 1.428 . S
H1647 C1643 0.930 . S
H1648 C1645 0.929 . S
S1649 N1650 1.613 . S
S1649 N1651 1.610 . S
N1650 S1649 1.613 . S
N1650 C1653 1.350 . S
N1651 S1649 1.610 . S
N1651 C1652 1.351 . S
C1652 C1646 1.428 . S
C1652 N1651 1.351 . S
C1652 C1653 1.434 . S
C1653 C1644 1.429 1_556 S
C1653 N1650 1.350 . S
C1653 C1652 1.434 . S
C1654 C1655 1.369 . S
C1654 C1656 1.419 1_455 S
C1654 H1658 0.930 . S
C1655 C1654 1.369 . S
C1655 C1664 1.465 . S
C1656 C1654 1.419 1_655 S
C1656 C1657 1.363 . S
C1656 H1659 0.929 . S
C1657 C1656 1.363 . S
C1657 C1663 1.428 . S
H1658 C1654 0.930 . S
H1659 C1656 0.929 . S
S1660 N1661 1.667 . S
S1660 N1662 1.610 . S
N1661 S1660 1.667 . S
N1661 C1664 1.345 1_655 S
N1662 S1660 1.610 . S
N1662 C1663 1.351 . S
C1663 C1657 1.428 . S
C1663 N1662 1.351 . S
C1663 C1664 1.397 1_655 S
C1664 C1655 1.465 . S
C1664 N1661 1.345 1_455 S
C1664 C1663 1.397 1_455 S
C1665 C1666 1.369 . S
C1665 C1667 1.419 . S
C1665 H1669 0.930 . S
C1666 C1665 1.369 . S
C1666 C1675 1.429 . S
C1667 C1665 1.419 . S
C1667 C1668 1.363 . S
C1667 H1670 0.929 . S
C1668 C1667 1.363 . S
C1668 C1674 1.428 . S
H1669 C1665 0.930 . S
H1670 C1667 0.929 . S
S1671 N1672 1.613 . S
S1671 N1673 1.610 . S
N1672 S1671 1.613 . S
N1672 C1675 1.350 . S
N1673 S1671 1.610 . S
N1673 C1674 1.351 . S
C1674 C1668 1.428 . S
C1674 N1673 1.351 . S
C1674 C1675 1.434 . S
C1675 C1666 1.429 . S
C1675 N1672 1.350 . S
C1675 C1674 1.434 . S
C1676 C1677 1.369 . S
C1676 C1678 1.419 1_554 S
C1676 H1680 0.930 . S
C1677 C1676 1.369 . S
C1677 C1686 1.429 . S
C1678 C1676 1.419 1_556 S
C1678 C1679 1.363 . S
C1678 H1681 0.929 . S
C1679 C1678 1.363 . S
C1679 C1685 1.428 . S
H1680 C1676 0.930 . S
H1681 C1678 0.929 . S
S1682 N1683 1.613 . S
S1682 N1684 1.610 1_554 S
N1683 S1682 1.613 . S
N1683 C1686 1.350 . S
N1684 S1682 1.610 1_556 S
N1684 C1685 1.351 . S
C1685 C1679 1.428 . S
C1685 N1684 1.351 . S
C1685 C1686 1.434 1_556 S
C1686 C1677 1.429 . S
C1686 N1683 1.350 . S
C1686 C1685 1.434 1_554 S
C1687 C1688 1.369 . S
C1687 C1689 1.419 1_655 S
C1687 H1691 0.930 . S
C1688 C1687 1.369 . S
C1688 C1697 1.429 . S
C1689 C1687 1.419 1_455 S
C1689 C1690 1.363 . S
C1689 H1692 0.929 . S
C1690 C1689 1.363 . S
C1690 C1696 1.428 . S
H1691 C1687 0.930 . S
H1692 C1689 0.929 . S
S1693 N1694 1.536 1_455 S
S1693 N1695 1.610 . S
N1694 S1693 1.536 1_655 S
N1694 C1697 1.355 . S
N1695 S1693 1.610 . S
N1695 C1696 1.351 . S
C1696 C1690 1.428 . S
C1696 N1695 1.351 . S
C1696 C1697 1.434 1_455 S
C1697 C1688 1.429 . S
C1697 N1694 1.355 . S
C1697 C1696 1.434 1_655 S
C1698 C1699 1.369 . S
C1698 C1700 1.419 . S
C1698 H1702 0.930 . S
C1699 C1698 1.369 . S
C1699 C1708 1.429 . S
C1700 C1698 1.419 . S
C1700 C1701 1.363 . S
C1700 H1703 0.929 . S
C1701 C1700 1.363 . S
C1701 C1707 1.428 . S
H1702 C1698 0.930 . S
H1703 C1700 0.929 . S
S1704 N1705 1.613 . S
S1704 N1706 1.610 . S
N1705 S1704 1.613 . S
N1705 C1708 1.350 . S
N1706 S1704 1.610 . S
N1706 C1707 1.351 . S
C1707 C1701 1.428 . S
C1707 N1706 1.351 . S
C1707 C1708 1.434 . S
C1708 C1699 1.429 . S
C1708 N1705 1.350 . S
C1708 C1707 1.434 . S
C1709 C1710 1.369 1_565 S
C1709 C1711 1.366 1_655 S
C1709 H1713 0.930 . S
C1710 C1709 1.369 1_545 S
C1710 C1719 1.440 . S
C1711 C1709 1.366 1_455 S
C1711 C1712 1.417 . S
C1711 H1714 0.929 . S
C1712 C1711 1.417 . S
C1712 C1718 1.428 1_565 S
H1713 C1709 0.930 . S
H1714 C1711 0.929 . S
S1715 N1716 1.613 . S
S1715 N1717 1.610 . S
N1716 S1715 1.613 . S
N1716 C1719 1.349 1_455 S
N1717 S1715 1.610 . S
N1717 C1718 1.351 . S
C1718 C1712 1.428 1_545 S
C1718 N1717 1.351 . S
C1718 C1719 1.423 1_455 S
C1719 C1710 1.440 . S
C1719 N1716 1.349 1_655 S
C1719 C1718 1.423 1_655 S
C1720 C1721 1.369 . S
C1720 C1722 1.419 . S
C1720 H1724 0.930 . S
C1721 C1720 1.369 . S
C1721 C1730 1.429 . S
C1722 C1720 1.419 . S
C1722 C1723 1.363 . S
C1722 H1725 0.929 . S
C1723 C1722 1.363 . S
C1723 C1729 1.428 . S
H1724 C1720 0.930 . S
H1725 C1722 0.929 . S
S1726 N1727 1.613 . S
S1726 N1728 1.610 . S
N1727 S1726 1.613 . S
N1727 C1730 1.350 . S
N1728 S1726 1.610 . S
N1728 C1729 1.351 . S
C1729 C1723 1.428 . S
C1729 N1728 1.351 . S
C1729 C1730 1.434 . S
C1730 C1721 1.429 . S
C1730 N1727 1.350 . S
C1730 C1729 1.434 . S
C1731 C1732 1.369 1_565 S
C1731 C1733 1.419 . S
C1731 H1735 0.930 . S
C1732 C1731 1.369 1_545 S
C1732 C1741 1.429 . S
C1733 C1731 1.419 . S
C1733 C1734 1.363 . S
C1733 H1736 0.929 . S
C1734 C1733 1.363 . S
C1734 C1740 1.428 1_565 S
H1735 C1731 0.930 . S
H1736 C1733 0.929 . S
S1737 N1738 1.613 . S
S1737 N1739 1.610 . S
N1738 S1737 1.613 . S
N1738 C1741 1.350 . S
N1739 S1737 1.610 . S
N1739 C1740 1.351 . S
C1740 C1734 1.428 1_545 S
C1740 N1739 1.351 . S
C1740 C1741 1.434 . S
C1741 C1732 1.429 . S
C1741 N1738 1.350 . S
C1741 C1740 1.434 . S
C1742 C1743 1.369 . S
C1742 C1744 1.419 . S
C1742 H1746 0.930 . S
C1743 C1742 1.369 . S
C1743 C1752 1.429 . S
C1744 C1742 1.419 . S
C1744 C1745 1.363 . S
C1744 H1747 0.929 . S
C1745 C1744 1.363 . S
C1745 C1751 1.428 . S
H1746 C1742 0.930 . S
H1747 C1744 0.929 . S
S1748 N1749 1.613 . S
S1748 N1750 1.610 . S
N1749 S1748 1.613 . S
N1749 C1752 1.350 . S
N1750 S1748 1.610 . S
N1750 C1751 1.351 . S
C1751 C1745 1.428 . S
C1751 N1750 1.351 . S
C1751 C1752 1.434 . S
C1752 C1743 1.429 . S
C1752 N1749 1.350 . S
C1752 C1751 1.434 . S
C1753 C1754 1.369 . S
C1753 C1755 1.419 . S
C1753 H1757 0.930 . S
C1754 C1753 1.369 . S
C1754 C1763 1.429 1_565 S
C1755 C1753 1.419 . S
C1755 C1756 1.363 1_565 S
C1755 H1758 0.929 . S
C1756 C1755 1.363 1_545 S
C1756 C1762 1.428 . S
H1757 C1753 0.930 . S
H1758 C1755 0.929 . S
S1759 N1760 1.613 . S
S1759 N1761 1.610 . S
N1760 S1759 1.613 . S
N1760 C1763 1.350 . S
N1761 S1759 1.610 . S
N1761 C1762 1.351 . S
C1762 C1756 1.428 . S
C1762 N1761 1.351 . S
C1762 C1763 1.434 . S
C1763 C1754 1.429 1_545 S
C1763 N1760 1.350 . S
C1763 C1762 1.434 . S
C1764 C1765 1.369 . S
C1764 C1766 1.419 . S
C1764 H1768 0.930 . S
C1765 C1764 1.369 . S
C1765 C1774 1.429 . S
C1766 C1764 1.419 . S
C1766 C1767 1.363 . S
C1766 H1769 0.929 . S
C1767 C1766 1.363 . S
C1767 C1773 1.428 . S
H1768 C1764 0.930 . S
H1769 C1766 0.929 . S
S1770 N1771 1.613 . S
S1770 N1772 1.610 . S
N1771 S1770 1.613 . S
N1771 C1774 1.350 . S
N1772 S1770 1.610 . S
N1772 C1773 1.351 . S
C1773 C1767 1.428 . S
C1773 N1772 1.351 . S
C1773 C1774 1.434 . S
C1774 C1765 1.429 . S
C1774 N1771 1.350 . S
C1774 C1773 1.434 . S
C1775 C1776 1.369 . S
C1775 C1777 1.419 . S
C1775 H1779 0.930 . S
C1776 C1775 1.369 . S
C1776 C1785 1.429 . S
C1777 C1775 1.419 . S
C1777 C1778 1.363 . S
C1777 H1780 0.929 . S
C1778 C1777 1.363 . S
C1778 C1784 1.428 . S
H1779 C1775 0.930 . S
H1780 C1777 0.929 . S
S1781 N1782 1.613 . S
S1781 N1783 1.610 . S
N1782 S1781 1.613 . S
N1782 C1785 1.350 . S
N1783 S1781 1.610 . S
N1783 C1784 1.351 . S
C1784 C1778 1.428 . S
C1784 N1783 1.351 . S
C1784 C1785 1.434 . S
C1785 C1776 1.429 . S
C1785 N1782 1.350 . S
C1785 C1784 1.434 . S
C1786 C1787 1.369 . S
C1786 C1788 1.419 . S
C1786 H1790 0.930 . S
C1787 C1786 1.369 . S
C1787 C1796 1.429 . S
C1788 C1786 1.419 . S
C1788 C1789 1.363 . S
C1788 H1791 0.929 . S
C1789 C1788 1.363 . S
C1789 C1795 1.428 . S
H1790 C1786 0.930 . S
H1791 C1788 0.929 . S
S1792 N1793 1.613 . S
S1792 N1794 1.610 . S
N1793 S1792 1.613 . S
N1793 C1796 1.350 . S
N1794 S1792 1.610 . S
N1794 C1795 1.351 . S
C1795 C1789 1.428 . S
C1795 N1794 1.351 . S
C1795 C1796 1.434 . S
C1796 C1787 1.429 . S
C1796 N1793 1.350 . S
C1796 C1795 1.434 . S
C1797 C1798 1.369 1_556 S
C1797 C1799 1.419 . S
C1797 H1801 0.930 . S
C1798 C1797 1.369 1_554 S
C1798 C1807 1.429 1_545 S
C1799 C1797 1.419 . S
C1799 C1800 1.363 1_545 S
C1799 H1802 0.929 . S
C1800 C1799 1.363 1_565 S
C1800 C1806 1.428 1_556 S
H1801 C1797 0.930 . S
H1802 C1799 0.929 . S
S1803 N1804 1.613 . S
S1803 N1805 1.610 . S
N1804 S1803 1.613 . S
N1804 C1807 1.350 . S
N1805 S1803 1.610 . S
N1805 C1806 1.351 . S
C1806 C1800 1.428 1_554 S
C1806 N1805 1.351 . S
C1806 C1807 1.434 . S
C1807 C1798 1.429 1_565 S
C1807 N1804 1.350 . S
C1807 C1806 1.434 . S
C1808 C1809 1.369 . S
C1808 C1810 1.419 . S
C1808 H1812 0.930 . S
C1809 C1808 1.369 . S
C1809 C1818 1.429 . S
C1810 C1808 1.419 . S
C1810 C1811 1.363 . S
C1810 H1813 0.929 . S
C1811 C1810 1.363 . S
C1811 C1817 1.428 . S
H1812 C1808 0.930 . S
H1813 C1810 0.929 . S
S1814 N1815 1.613 . S
S1814 N1816 1.610 . S
N1815 S1814 1.613 . S
N1815 C1818 1.350 . S
N1816 S1814 1.610 . S
N1816 C1817 1.351 . S
C1817 C1811 1.428 . S
C1817 N1816 1.351 . S
C1817 C1818 1.434 . S
C1818 C1809 1.429 . S
C1818 N1815 1.350 . S
C1818 C1817 1.434 . S
C1819 C1820 1.369 . S
C1819 C1821 1.419 . S
C1819 H1823 0.930 . S
C1820 C1819 1.369 . S
C1820 C1829 1.429 . S
C1821 C1819 1.419 . S
C1821 C1822 1.363 . S
C1821 H1824 0.929 . S
C1822 C1821 1.363 . S
C1822 C1828 1.428 . S
H1823 C1819 0.930 . S
H1824 C1821 0.929 . S
S1825 N1826 1.613 . S
S1825 N1827 1.610 . S
N1826 S1825 1.613 . S
N1826 C1829 1.350 . S
N1827 S1825 1.610 . S
N1827 C1828 1.351 . S
C1828 C1822 1.428 . S
C1828 N1827 1.351 . S
C1828 C1829 1.434 . S
C1829 C1820 1.429 . S
C1829 N1826 1.350 . S
C1829 C1828 1.434 . S
C1830 C1831 1.369 . S
C1830 C1832 1.419 . S
C1830 H1834 0.930 . S
C1831 C1830 1.369 . S
C1831 C1840 1.429 . S
C1832 C1830 1.419 . S
C1832 C1833 1.363 . S
C1832 H1835 0.929 . S
C1833 C1832 1.363 . S
C1833 C1839 1.428 . S
H1834 C1830 0.930 . S
H1835 C1832 0.929 . S
S1836 N1837 1.613 . S
S1836 N1838 1.610 . S
N1837 S1836 1.613 . S
N1837 C1840 1.350 . S
N1838 S1836 1.610 . S
N1838 C1839 1.351 . S
C1839 C1833 1.428 . S
C1839 N1838 1.351 . S
C1839 C1840 1.434 . S
C1840 C1831 1.429 . S
C1840 N1837 1.350 . S
C1840 C1839 1.434 . S
C1841 C1842 1.369 . S
C1841 C1843 1.419 . S
C1841 H1845 0.930 . S
C1842 C1841 1.369 . S
C1842 C1851 1.429 . S
C1843 C1841 1.419 . S
C1843 C1844 1.363 . S
C1843 H1846 0.929 . S
C1844 C1843 1.363 . S
C1844 C1850 1.428 . S
H1845 C1841 0.930 . S
H1846 C1843 0.929 . S
S1847 N1848 1.613 . S
S1847 N1849 1.610 . S
N1848 S1847 1.613 . S
N1848 C1851 1.350 . S
N1849 S1847 1.610 . S
N1849 C1850 1.351 . S
C1850 C1844 1.428 . S
C1850 N1849 1.351 . S
C1850 C1851 1.434 . S
C1851 C1842 1.429 . S
C1851 N1848 1.350 . S
C1851 C1850 1.434 . S
C1852 C1853 1.369 . S
C1852 C1854 1.419 . S
C1852 H1856 0.930 . S
C1853 C1852 1.369 . S
C1853 C1862 1.429 . S
C1854 C1852 1.419 . S
C1854 C1855 1.363 . S
C1854 H1857 0.929 . S
C1855 C1854 1.363 . S
C1855 C1861 1.428 . S
H1856 C1852 0.930 . S
H1857 C1854 0.929 . S
S1858 N1859 1.613 . S
S1858 N1860 1.610 . S
N1859 S1858 1.613 . S
N1859 C1862 1.350 . S
N1860 S1858 1.610 . S
N1860 C1861 1.351 . S
C1861 C1855 1.428 . S
C1861 N1860 1.351 . S
C1861 C1862 1.434 . S
C1862 C1853 1.429 . S
C1862 N1859 1.350 . S
C1862 C1861 1.434 . S
C1863 C1864 1.369 . S
C1863 C1865 1.419 . S
C1863 H1867 0.930 . S
C1864 C1863 1.369 . S
C1864 C1873 1.429 . S
C1865 C1863 1.419 . S
C1865 C1866 1.363 . S
C1865 H1868 0.929 . S
C1866 C1865 1.363 . S
C1866 C1872 1.428 . S
H1867 C1863 0.930 . S
H1868 C1865 0.929 . S
S1869 N1870 1.613 . S
S1869 N1871 1.610 . S
N1870 S1869 1.613 . S
N1870 C1873 1.350 . S
N1871 S1869 1.610 . S
N1871 C1872 1.351 . S
C1872 C1866 1.428 . S
C1872 N1871 1.351 . S
C1872 C1873 1.434 . S
C1873 C1864 1.429 . S
C1873 N1870 1.350 . S
C1873 C1872 1.434 . S
C1874 C1875 1.369 . S
C1874 C1876 1.419 . S
C1874 H1878 0.930 . S
C1875 C1874 1.369 . S
C1875 C1884 1.429 . S
C1876 C1874 1.419 . S
C1876 C1877 1.363 . S
C1876 H1879 0.929 . S
C1877 C1876 1.363 . S
C1877 C1883 1.428 . S
H1878 C1874 0.930 . S
H1879 C1876 0.929 . S
S1880 N1881 1.613 . S
S1880 N1882 1.610 . S
N1881 S1880 1.613 . S
N1881 C1884 1.350 . S
N1882 S1880 1.610 . S
N1882 C1883 1.351 . S
C1883 C1877 1.428 . S
C1883 N1882 1.351 . S
C1883 C1884 1.434 . S
C1884 C1875 1.429 . S
C1884 N1881 1.350 . S
C1884 C1883 1.434 . S
C1885 C1886 1.369 . S
C1885 C1887 1.419 . S
C1885 H1889 0.930 . S
C1886 C1885 1.369 . S
C1886 C1895 1.429 . S
C1887 C1885 1.419 . S
C1887 C1888 1.363 . S
C1887 H1890 0.929 . S
C1888 C1887 1.363 . S
C1888 C1894 1.428 . S
H1889 C1885 0.930 . S
H1890 C1887 0.929 . S
S1891 N1892 1.613 . S
S1891 N1893 1.610 . S
N1892 S1891 1.613 . S
N1892 C1895 1.350 . S
N1893 S1891 1.610 . S
N1893 C1894 1.351 . S
C1894 C1888 1.428 . S
C1894 N1893 1.351 . S
C1894 C1895 1.434 . S
C1895 C1886 1.429 . S
C1895 N1892 1.350 . S
C1895 C1894 1.434 . S
C1896 C1897 1.369 . S
C1896 C1898 1.419 . S
C1896 H1900 0.930 . S
C1897 C1896 1.369 . S
C1897 C1906 1.429 . S
C1898 C1896 1.419 . S
C1898 C1899 1.363 . S
C1898 H1901 0.929 . S
C1899 C1898 1.363 . S
C1899 C1905 1.428 . S
H1900 C1896 0.930 . S
H1901 C1898 0.929 . S
S1902 N1903 1.613 . S
S1902 N1904 1.610 . S
N1903 S1902 1.613 . S
N1903 C1906 1.350 . S
N1904 S1902 1.610 . S
N1904 C1905 1.351 . S
C1905 C1899 1.428 . S
C1905 N1904 1.351 . S
C1905 C1906 1.434 . S
C1906 C1897 1.429 . S
C1906 N1903 1.350 . S
C1906 C1905 1.434 . S
C1907 C1908 1.369 . S
C1907 C1909 1.419 . S
C1907 H1911 0.930 . S
C1908 C1907 1.369 . S
C1908 C1917 1.429 . S
C1909 C1907 1.419 . S
C1909 C1910 1.363 . S
C1909 H1912 0.929 . S
C1910 C1909 1.363 . S
C1910 C1916 1.428 . S
H1911 C1907 0.930 . S
H1912 C1909 0.929 . S
S1913 N1914 1.613 . S
S1913 N1915 1.610 . S
N1914 S1913 1.613 . S
N1914 C1917 1.350 . S
N1915 S1913 1.610 . S
N1915 C1916 1.351 . S
C1916 C1910 1.428 . S
C1916 N1915 1.351 . S
C1916 C1917 1.434 . S
C1917 C1908 1.429 . S
C1917 N1914 1.350 . S
C1917 C1916 1.434 . S
C1918 C1919 1.369 . S
C1918 C1920 1.419 . S
C1918 H1922 0.930 . S
C1919 C1918 1.369 . S
C1919 C1928 1.429 . S
C1920 C1918 1.419 . S
C1920 C1921 1.363 . S
C1920 H1923 0.929 . S
C1921 C1920 1.363 . S
C1921 C1927 1.428 . S
H1922 C1918 0.930 . S
H1923 C1920 0.929 . S
S1924 N1925 1.613 . S
S1924 N1926 1.610 . S
N1925 S1924 1.613 . S
N1925 C1928 1.350 . S
N1926 S1924 1.610 . S
N1926 C1927 1.351 . S
C1927 C1921 1.428 . S
C1927 N1926 1.351 . S
C1927 C1928 1.434 . S
C1928 C1919 1.429 . S
C1928 N1925 1.350 . S
C1928 C1927 1.434 . S
C1929 C1930 1.369 . S
C1929 C1931 1.419 . S
C1929 H1933 0.930 . S
C1930 C1929 1.369 . S
C1930 C1939 1.429 . S
C1931 C1929 1.419 . S
C1931 C1932 1.363 . S
C1931 H1934 0.929 . S
C1932 C1931 1.363 . S
C1932 C1938 1.428 . S
H1933 C1929 0.930 . S
H1934 C1931 0.929 . S
S1935 N1936 1.613 . S
S1935 N1937 1.610 . S
N1936 S1935 1.613 . S
N1936 C1939 1.350 . S
N1937 S1935 1.610 . S
N1937 C1938 1.351 . S
C1938 C1932 1.428 . S
C1938 N1937 1.351 . S
C1938 C1939 1.434 . S
C1939 C1930 1.429 . S
C1939 N1936 1.350 . S
C1939 C1938 1.434 . S
C1940 C1941 1.369 . S
C1940 C1942 1.419 . S
C1940 H1944 0.930 . S
C1941 C1940 1.369 . S
C1941 C1950 1.429 . S
C1942 C1940 1.419 . S
C1942 C1943 1.363 . S
C1942 H1945 0.929 . S
C1943 C1942 1.363 . S
C1943 C1949 1.428 . S
H1944 C1940 0.930 . S
H1945 C1942 0.929 . S
S1946 N1947 1.613 . S
S1946 N1948 1.610 . S
N1947 S1946 1.613 . S
N1947 C1950 1.350 . S
N1948 S1946 1.610 . S
N1948 C1949 1.351 . S
C1949 C1943 1.428 . S
C1949 N1948 1.351 . S
C1949 C1950 1.434 . S
C1950 C1941 1.429 . S
C1950 N1947 1.350 . S
C1950 C1949 1.434 . S
C1951 C1952 1.369 . S
C1951 C1953 1.419 . S
C1951 H1955 0.930 . S
C1952 C1951 1.369 . S
C1952 C1961 1.429 . S
C1953 C1951 1.419 . S
C1953 C1954 1.363 . S
C1953 H1956 0.929 . S
C1954 C1953 1.363 . S
C1954 C1960 1.428 . S
H1955 C1951 0.930 . S
H1956 C1953 0.929 . S
S1957 N1958 1.613 . S
S1957 N1959 1.610 . S
N1958 S1957 1.613 . S
N1958 C1961 1.350 . S
N1959 S1957 1.610 . S
N1959 C1960 1.351 . S
C1960 C1954 1.428 . S
C1960 N1959 1.351 . S
C1960 C1961 1.434 . S
C1961 C1952 1.429 . S
C1961 N1958 1.350 . S
C1961 C1960 1.434 . S
C1962 C1963 1.369 . S
C1962 C1964 1.419 . S
C1962 H1966 0.930 . S
C1963 C1962 1.369 . S
C1963 C1972 1.429 . S
C1964 C1962 1.419 . S
C1964 C1965 1.363 . S
C1964 H1967 0.929 . S
C1965 C1964 1.363 . S
C1965 C1971 1.428 . S
H1966 C1962 0.930 . S
H1967 C1964 0.929 . S
S1968 N1969 1.613 . S
S1968 N1970 1.610 . S
N1969 S1968 1.613 . S
N1969 C1972 1.350 . S
N1970 S1968 1.610 . S
N1970 C1971 1.351 . S
C1971 C1965 1.428 . S
C1971 N1970 1.351 . S
C1971 C1972 1.434 . S
C1972 C1963 1.429 . S
C1972 N1969 1.350 . S
C1972 C1971 1.434 . S
C1973 C1974 1.369 . S
C1973 C1975 1.419 . S
C1973 H1977 0.930 . S
C1974 C1973 1.369 . S
C1974 C1983 1.429 . S
C1975 C1973 1.419 . S
C1975 C1976 1.363 . S
C1975 H1978 0.929 . S
C1976 C1975 1.363 . S
C1976 C1982 1.428 . S
H1977 C1973 0.930 . S
H1978 C1975 0.929 . S
S1979 N1980 1.613 . S
S1979 N1981 1.610 . S
N1980 S1979 1.613 . S
N1980 C1983 1.350 . S
N1981 S1979 1.610 . S
N1981 C1982 1.351 . S
C1982 C1976 1.428 . S
C1982 N1981 1.351 . S
C1982 C1983 1.434 . S
C1983 C1974 1.429 . S
C1983 N1980 1.350 . S
C1983 C1982 1.434 . S
C1984 C1985 1.369 . S
C1984 C1986 1.419 . S
C1984 H1988 0.930 . S
C1985 C1984 1.369 . S
C1985 C1994 1.429 . S
C1986 C1984 1.419 . S
C1986 C1987 1.363 . S
C1986 H1989 0.929 . S
C1987 C1986 1.363 . S
C1987 C1993 1.428 . S
H1988 C1984 0.930 . S
H1989 C1986 0.929 . S
S1990 N1991 1.613 . S
S1990 N1992 1.610 . S
N1991 S1990 1.613 . S
N1991 C1994 1.350 . S
N1992 S1990 1.610 . S
N1992 C1993 1.351 . S
C1993 C1987 1.428 . S
C1993 N1992 1.351 . S
C1993 C1994 1.434 . S
C1994 C1985 1.429 . S
C1994 N1991 1.350 . S
C1994 C1993 1.434 . S
C1995 C1996 1.369 . S
C1995 C1997 1.419 . S
C1995 H1999 0.930 . S
C1996 C1995 1.369 . S
C1996 C2005 1.429 . S
C1997 C1995 1.419 . S
C1997 C1998 1.363 . S
C1997 H2000 0.929 . S
C1998 C1997 1.363 . S
C1998 C2004 1.428 . S
H1999 C1995 0.930 . S
H2000 C1997 0.929 . S
S2001 N2002 1.613 . S
S2001 N2003 1.610 . S
N2002 S2001 1.613 . S
N2002 C2005 1.350 . S
N2003 S2001 1.610 . S
N2003 C2004 1.351 . S
C2004 C1998 1.428 . S
C2004 N2003 1.351 . S
C2004 C2005 1.434 . S
C2005 C1996 1.429 . S
C2005 N2002 1.350 . S
C2005 C2004 1.434 . S
C2006 C2007 1.369 . S
C2006 C2008 1.419 . S
C2006 H2010 0.930 . S
C2007 C2006 1.369 . S
C2007 C2016 1.429 . S
C2008 C2006 1.419 . S
C2008 C2009 1.363 . S
C2008 H2011 0.929 . S
C2009 C2008 1.363 . S
C2009 C2015 1.428 . S
H2010 C2006 0.930 . S
H2011 C2008 0.929 . S
S2012 N2013 1.613 . S
S2012 N2014 1.610 . S
N2013 S2012 1.613 . S
N2013 C2016 1.350 . S
N2014 S2012 1.610 . S
N2014 C2015 1.351 . S
C2015 C2009 1.428 . S
C2015 N2014 1.351 . S
C2015 C2016 1.434 . S
C2016 C2007 1.429 . S
C2016 N2013 1.350 . S
C2016 C2015 1.434 . S
C2017 C2018 1.369 . S
C2017 C2019 1.419 . S
C2017 H2021 0.930 . S
C2018 C2017 1.369 . S
C2018 C2027 1.429 . S
C2019 C2017 1.419 . S
C2019 C2020 1.363 . S
C2019 H2022 0.929 . S
C2020 C2019 1.363 . S
C2020 C2026 1.428 . S
H2021 C2017 0.930 . S
H2022 C2019 0.929 . S
S2023 N2024 1.613 . S
S2023 N2025 1.610 . S
N2024 S2023 1.613 . S
N2024 C2027 1.350 . S
N2025 S2023 1.610 . S
N2025 C2026 1.351 . S
C2026 C2020 1.428 . S
C2026 N2025 1.351 . S
C2026 C2027 1.434 . S
C2027 C2018 1.429 . S
C2027 N2024 1.350 . S
C2027 C2026 1.434 . S
C2028 C2029 1.369 . S
C2028 C2030 1.419 . S
C2028 H2032 0.930 . S
C2029 C2028 1.369 . S
C2029 C2038 1.429 . S
C2030 C2028 1.419 . S
C2030 C2031 1.363 . S
C2030 H2033 0.929 . S
C2031 C2030 1.363 . S
C2031 C2037 1.428 . S
H2032 C2028 0.930 . S
H2033 C2030 0.929 . S
S2034 N2035 1.613 . S
S2034 N2036 1.610 . S
N2035 S2034 1.613 . S
N2035 C2038 1.350 . S
N2036 S2034 1.610 . S
N2036 C2037 1.351 . S
C2037 C2031 1.428 . S
C2037 N2036 1.351 . S
C2037 C2038 1.434 . S
C2038 C2029 1.429 . S
C2038 N2035 1.350 . S
C2038 C2037 1.434 . S
C2039 C2040 1.369 . S
C2039 C2041 1.419 . S
C2039 H2043 0.930 . S
C2040 C2039 1.369 . S
C2040 C2049 1.429 . S
C2041 C2039 1.419 . S
C2041 C2042 1.363 . S
C2041 H2044 0.929 . S
C2042 C2041 1.363 . S
C2042 C2048 1.428 . S
H2043 C2039 0.930 . S
H2044 C2041 0.929 . S
S2045 N2046 1.613 . S
S2045 N2047 1.610 . S
N2046 S2045 1.613 . S
N2046 C2049 1.350 . S
N2047 S2045 1.610 . S
N2047 C2048 1.351 . S
C2048 C2042 1.428 . S
C2048 N2047 1.351 . S
C2048 C2049 1.434 . S
C2049 C2040 1.429 . S
C2049 N2046 1.350 . S
C2049 C2048 1.434 . S
C2050 C2051 1.369 . S
C2050 C2052 1.419 . S
C2050 H2054 0.930 . S
C2051 C2050 1.369 . S
C2051 C2060 1.429 . S
C2052 C2050 1.419 . S
C2052 C2053 1.363 . S
C2052 H2055 0.929 . S
C2053 C2052 1.363 . S
C2053 C2059 1.428 . S
H2054 C2050 0.930 . S
H2055 C2052 0.929 . S
S2056 N2057 1.613 . S
S2056 N2058 1.610 . S
N2057 S2056 1.613 . S
N2057 C2060 1.350 . S
N2058 S2056 1.610 . S
N2058 C2059 1.351 . S
C2059 C2053 1.428 . S
C2059 N2058 1.351 . S
C2059 C2060 1.434 . S
C2060 C2051 1.429 . S
C2060 N2057 1.350 . S
C2060 C2059 1.434 . S
C2061 C2062 1.369 . S
C2061 C2063 1.419 . S
C2061 H2065 0.930 . S
C2062 C2061 1.369 . S
C2062 C2071 1.429 . S
C2063 C2061 1.419 . S
C2063 C2064 1.363 . S
C2063 H2066 0.929 . S
C2064 C2063 1.363 . S
C2064 C2070 1.428 . S
H2065 C2061 0.930 . S
H2066 C2063 0.929 . S
S2067 N2068 1.613 . S
S2067 N2069 1.610 . S
N2068 S2067 1.613 . S
N2068 C2071 1.350 . S
N2069 S2067 1.610 . S
N2069 C2070 1.351 . S
C2070 C2064 1.428 . S
C2070 N2069 1.351 . S
C2070 C2071 1.434 . S
C2071 C2062 1.429 . S
C2071 N2068 1.350 . S
C2071 C2070 1.434 . S
C2072 C2073 1.369 . S
C2072 C2074 1.419 . S
C2072 H2076 0.930 . S
C2073 C2072 1.369 . S
C2073 C2082 1.429 . S
C2074 C2072 1.419 . S
C2074 C2075 1.363 . S
C2074 H2077 0.929 . S
C2075 C2074 1.363 . S
C2075 C2081 1.428 . S
H2076 C2072 0.930 . S
H2077 C2074 0.929 . S
S2078 N2079 1.613 . S
S2078 N2080 1.610 . S
N2079 S2078 1.613 . S
N2079 C2082 1.350 . S
N2080 S2078 1.610 . S
N2080 C2081 1.351 . S
C2081 C2075 1.428 . S
C2081 N2080 1.351 . S
C2081 C2082 1.434 . S
C2082 C2073 1.429 . S
C2082 N2079 1.350 . S
C2082 C2081 1.434 . S
C2083 C2084 1.369 . S
C2083 C2085 1.419 . S
C2083 H2087 0.930 . S
C2084 C2083 1.369 . S
C2084 C2093 1.429 . S
C2085 C2083 1.419 . S
C2085 C2086 1.363 . S
C2085 H2088 0.929 . S
C2086 C2085 1.363 . S
C2086 C2092 1.428 . S
H2087 C2083 0.930 . S
H2088 C2085 0.929 . S
S2089 N2090 1.613 . S
S2089 N2091 1.610 . S
N2090 S2089 1.613 . S
N2090 C2093 1.350 . S
N2091 S2089 1.610 . S
N2091 C2092 1.351 . S
C2092 C2086 1.428 . S
C2092 N2091 1.351 . S
C2092 C2093 1.434 . S
C2093 C2084 1.429 . S
C2093 N2090 1.350 . S
C2093 C2092 1.434 . S
C2094 C2095 1.369 . S
C2094 C2096 1.419 . S
C2094 H2098 0.930 . S
C2095 C2094 1.369 . S
C2095 C2104 1.429 . S
C2096 C2094 1.419 . S
C2096 C2097 1.363 . S
C2096 H2099 0.929 . S
C2097 C2096 1.363 . S
C2097 C2103 1.428 . S
H2098 C2094 0.930 . S
H2099 C2096 0.929 . S
S2100 N2101 1.613 . S
S2100 N2102 1.610 . S
N2101 S2100 1.613 . S
N2101 C2104 1.350 . S
N2102 S2100 1.610 . S
N2102 C2103 1.351 . S
C2103 C2097 1.428 . S
C2103 N2102 1.351 . S
C2103 C2104 1.434 . S
C2104 C2095 1.429 . S
C2104 N2101 1.350 . S
C2104 C2103 1.434 . S
C2105 C2106 1.369 . S
C2105 C2107 1.419 . S
C2105 H2109 0.930 . S
C2106 C2105 1.369 . S
C2106 C2115 1.429 . S
C2107 C2105 1.419 . S
C2107 C2108 1.363 . S
C2107 H2110 0.929 . S
C2108 C2107 1.363 . S
C2108 C2114 1.428 . S
H2109 C2105 0.930 . S
H2110 C2107 0.929 . S
S2111 N2112 1.613 . S
S2111 N2113 1.610 . S
N2112 S2111 1.613 . S
N2112 C2115 1.350 . S
N2113 S2111 1.610 . S
N2113 C2114 1.351 . S
C2114 C2108 1.428 . S
C2114 N2113 1.351 . S
C2114 C2115 1.434 . S
C2115 C2106 1.429 . S
C2115 N2112 1.350 . S
C2115 C2114 1.434 . S
C2116 C2117 1.369 . S
C2116 C2118 1.419 . S
C2116 H2120 0.930 . S
C2117 C2116 1.369 . S
C2117 C2126 1.429 . S
C2118 C2116 1.419 . S
C2118 C2119 1.363 . S
C2118 H2121 0.929 . S
C2119 C2118 1.363 . S
C2119 C2125 1.428 . S
H2120 C2116 0.930 . S
H2121 C2118 0.929 . S
S2122 N2123 1.613 . S
S2122 N2124 1.610 . S
N2123 S2122 1.613 . S
N2123 C2126 1.350 1_556 S
N2124 S2122 1.610 . S
N2124 C2125 1.351 1_556 S
C2125 C2119 1.428 . S
C2125 N2124 1.351 1_554 S
C2125 C2126 1.434 . S
C2126 C2117 1.429 . S
C2126 N2123 1.350 1_554 S
C2126 C2125 1.434 . S
C2127 C2128 1.369 . S
C2127 C2129 1.419 . S
C2127 H2131 0.930 . S
C2128 C2127 1.369 . S
C2128 C2137 1.429 . S
C2129 C2127 1.419 . S
C2129 C2130 1.363 . S
C2129 H2132 0.929 . S
C2130 C2129 1.363 . S
C2130 C2136 1.428 . S
H2131 C2127 0.930 . S
H2132 C2129 0.929 . S
S2133 N2134 1.613 . S
S2133 N2135 1.610 . S
N2134 S2133 1.613 . S
N2134 C2137 1.350 . S
N2135 S2133 1.610 . S
N2135 C2136 1.351 . S
C2136 C2130 1.428 . S
C2136 N2135 1.351 . S
C2136 C2137 1.434 . S
C2137 C2128 1.429 . S
C2137 N2134 1.350 . S
C2137 C2136 1.434 . S
C2138 C2139 1.369 . S
C2138 C2140 1.419 . S
C2138 H2142 0.930 . S
C2139 C2138 1.369 . S
C2139 C2148 1.429 . S
C2140 C2138 1.419 . S
C2140 C2141 1.363 . S
C2140 H2143 0.929 . S
C2141 C2140 1.363 . S
C2141 C2147 1.428 . S
H2142 C2138 0.930 . S
H2143 C2140 0.929 . S
S2144 N2145 1.613 . S
S2144 N2146 1.610 . S
N2145 S2144 1.613 . S
N2145 C2148 1.350 . S
N2146 S2144 1.610 . S
N2146 C2147 1.351 . S
C2147 C2141 1.428 . S
C2147 N2146 1.351 . S
C2147 C2148 1.434 . S
C2148 C2139 1.429 . S
C2148 N2145 1.350 . S
C2148 C2147 1.434 . S
C2149 C2150 1.369 . S
C2149 C2151 1.419 . S
C2149 H2153 0.930 . S
C2150 C2149 1.369 . S
C2150 C2159 1.429 . S
C2151 C2149 1.419 . S
C2151 C2152 1.363 . S
C2151 H2154 0.929 . S
C2152 C2151 1.363 . S
C2152 C2158 1.428 . S
H2153 C2149 0.930 . S
H2154 C2151 0.929 . S
S2155 N2156 1.613 . S
S2155 N2157 1.610 . S
N2156 S2155 1.613 . S
N2156 C2159 1.350 . S
N2157 S2155 1.610 . S
N2157 C2158 1.351 . S
C2158 C2152 1.428 . S
C2158 N2157 1.351 . S
C2158 C2159 1.434 . S
C2159 C2150 1.429 . S
C2159 N2156 1.350 . S
C2159 C2158 1.434 . S
C929 C303 2.915 . S
C931 C13 2.921 . S
C940 C42 2.917 . S
C942 C332 2.921 . S
C951 C245 2.915 . S
C953 C71 2.921 . S
C962 C274 2.919 . S
C964 C100 2.920 . S
C973 C129 2.915 . S
C975 C419 2.919 . S
C984 C448 2.917 . S
C986 C158 2.917 . S
C995 C187 2.914 . S
C997 C361 2.921 . S
C1006 C216 2.914 . S
C1008 C390 2.920 . S
C1017 C767 2.919 . S
C1019 C477 2.916 . S
C1028 C506 2.921 . S
C1030 C796 2.915 . S
C1039 C709 2.921 . S
C1041 C535 2.915 . S
C1050 C564 2.917 . S
C1052 C738 2.921 . S
C1061 C593 2.922 . S
C1063 C883 2.916 . S
C1072 C912 2.920 . S
C1074 C622 2.915 . S
C1083 C651 2.922 . S
C1085 C825 2.916 . S
C1094 C854 2.922 . S
C1096 C680 2.917 . S
C1105 C3 0.937 . S
C1107 C32 0.923 . S
C1116 C61 0.929 . S
C1118 C90 0.928 . S
C1127 C148 0.932 . S
C1129 C119 0.926 . S
C1138 C206 0.937 . S
C1140 C177 0.923 . S
C1149 C264 0.932 . S
C1151 C235 0.925 . S
C1160 C293 0.929 . S
C1162 C322 0.930 . S
C1171 C351 0.937 . S
C1173 C380 0.923 . S
C1182 C438 0.933 . S
C1184 C409 0.926 . S
C1193 C467 0.937 . S
C1195 C496 0.923 . S
C1204 C554 0.932 . S
C1206 C525 0.926 . S
C1215 C612 0.932 . S
C1217 C583 0.926 . S
C1226 C641 0.937 . S
C1228 C670 0.923 . S
C1237 C699 0.935 . S
C1239 C728 0.923 . S
C1248 C757 0.929 . S
C1250 C786 0.928 . S
C1259 C815 0.930 . S
C1261 C844 0.928 . S
C1270 C873 0.922 . S
C1272 C902 0.934 . S
C1281 C5 2.490 . S
C1283 C63 2.493 1_545 S
C1292 C34 2.490 1_545 S
C1294 C92 2.493 . S
C1303 C121 2.493 . S
C1305 C179 2.490 1_565 S
C1314 C150 2.492 1_565 S
C1316 C208 2.492 . S
C1325 C237 2.493 . S
C1327 C295 2.490 . S
C1336 C266 2.493 . S
C1338 C324 2.490 . S
C1347 C411 2.490 . S
C1349 C353 2.493 . S
C1358 C382 2.493 . S
C1360 C440 2.490 . S
C1369 C527 2.490 1_545 S
C1371 C469 2.493 . S
C1380 C498 2.491 1_545 S
C1382 C556 2.492 . S
C1391 C643 2.490 1_565 S
C1393 C585 2.493 . S
C1402 C614 2.493 1_565 S
C1404 C672 2.490 . S
C1413 C701 2.492 . S
C1415 C759 2.492 . S
C1424 C730 2.490 . S
C1426 C788 2.493 . S
C1435 C817 2.490 . S
C1437 C875 2.493 . S
C1446 C846 2.493 . S
C1448 C904 2.490 . S
C1457 C21 0.394 . S
C1459 C108 0.390 . S
C1468 C79 0.385 . S
C1470 C50 0.402 . S
C1479 C137 0.405 . S
C1481 C224 0.385 . S
C1490 C166 0.402 . S
C1492 C195 0.389 . S
C1501 C340 0.397 . S
C1503 C253 0.388 . S
C1512 C311 0.403 . S
C1514 C282 0.385 . S
C1523 C369 0.389 . S
C1525 C456 0.399 . S
C1534 C398 0.387 . S
C1536 C427 0.397 . S
C1545 C485 0.402 . S
C1547 C572 0.385 . S
C1556 C514 0.400 . S
C1558 C543 0.387 . S
C1567 C601 0.391 . S
C1569 C688 0.398 . S
C1578 C630 0.403 . S
C1580 C659 0.386 . S
C1589 C717 0.395 . S
C1591 C804 0.396 . S
C1600 C775 0.382 . S
C1602 C746 0.402 . S
C1611 C920 0.397 . S
C1613 C833 0.393 . S
C1622 C891 0.397 . S
C1624 C862 0.393 . S
C1633 C131 3.023 . S
C1635 C15 3.024 . S
C1644 C856 3.021 . S
C1646 C44 3.025 . S
C1655 C73 3.025 . S
C1657 C421 3.022 . S
C1666 C682 3.027 . S
C1668 C102 3.020 . S
C1677 C160 3.027 . S
C1679 C740 3.020 . S
C1688 C189 3.026 . S
C1690 C305 3.021 . S
C1699 C218 3.024 . S
C1701 C566 3.022 . S
C1710 C363 3.023 . S
C1712 C247 3.023 . S
C1721 C624 3.024 . S
C1723 C276 3.022 . S
C1732 C914 3.020 . S
C1734 C334 3.026 . S
C1743 C508 3.025 . S
C1745 C392 3.021 . S
C1754 C798 3.027 . S
C1756 C450 3.020 . S
C1765 C595 3.019 . S
C1767 C479 3.026 . S
C1776 C537 3.019 . S
C1778 C885 3.026 . S
C1787 C769 3.026 . S
C1789 C653 3.021 . S
C1798 C827 3.026 . S
C1800 C711 3.021 . S
C1809 C8 0.851 . S
C1811 C66 0.838 . S
C1820 C95 0.851 . S
C1822 C37 0.838 . S
C1831 C124 0.830 . S
C1833 C182 0.841 . S
C1842 C153 0.850 . S
C1844 C211 0.842 . S
C1853 C298 0.831 . S
C1855 C240 0.839 . S
C1864 C327 0.845 . S
C1866 C269 0.848 . S
C1875 C356 0.830 . S
C1877 C414 0.841 . S
C1886 C385 0.830 . S
C1888 C443 0.844 . S
C1897 C472 0.845 . S
C1899 C530 0.833 . S
C1908 C501 0.850 . S
C1910 C559 0.836 . S
C1919 C646 0.838 . S
C1921 C588 0.849 . S
C1930 C675 0.846 . S
C1932 C617 0.833 . S
C1941 C704 0.851 . S
C1943 C762 0.840 . S
C1952 C733 0.850 . S
C1954 C791 0.836 . S
C1963 C820 0.830 . S
C1965 C878 0.844 . S
C1974 C907 0.831 . S
C1976 C849 0.839 . S
C1985 C39 3.303 . S
C1987 C10 3.308 . S
C1996 C97 3.306 . S
C1998 C68 3.304 . S
C2007 C155 3.304 . S
C2009 C126 3.308 . S
C2018 C213 3.303 . S
C2020 C184 3.306 . S
C2029 C242 3.308 1_545 S
C2031 C271 3.304 . S
C2040 C329 3.303 1_545 S
C2042 C300 3.306 . S
C2051 C387 3.307 . S
C2053 C358 3.303 1_565 S
C2062 C416 3.306 . S
C2064 C445 3.307 1_565 S
C2073 C474 3.308 . S
C2075 C503 3.304 . S
C2084 C561 3.308 . S
C2086 C532 3.305 . S
C2095 C590 3.307 . S
C2097 C619 3.303 . S
C2106 C648 3.305 . S
C2108 C677 3.307 . S
C2117 C735 3.305 . S
C2119 C706 3.307 1_545 S
C2128 C793 3.305 1_545 S
C2130 C764 3.307 . S
C2139 C851 3.303 . S
C2141 C822 3.305 1_565 S
C2150 C880 3.303 . S
C2152 C909 3.306 1_565 S
