# Generated by pormake.
# Topology nfa, (4)-cn, num edge types: 1
# Building blocks:
#     Node 0, Type 0, BuildingBlock: ESEHIV_clean_sbu_0, # of connection points: 4
#     Node 1, Type 0, BuildingBlock: ESEHIV_clean_sbu_0, # of connection points: 4
#     Node 2, Type 0, BuildingBlock: ESEHIV_clean_sbu_0, # of connection points: 4
#     Node 3, Type 0, BuildingBlock: ESEHIV_clean_sbu_0, # of connection points: 4
#     Node 4, Type 0, BuildingBlock: ESEHIV_clean_sbu_0, # of connection points: 4
#     Node 5, Type 0, BuildingBlock: ESEHIV_clean_sbu_0, # of connection points: 4
#     Node 6, Type 0, BuildingBlock: ESEHIV_clean_sbu_0, # of connection points: 4
#     Node 7, Type 0, BuildingBlock: ESEHIV_clean_sbu_0, # of connection points: 4
#     Node 8, Type 0, BuildingBlock: ESEHIV_clean_sbu_0, # of connection points: 4
#     Node 9, Type 0, BuildingBlock: ESEHIV_clean_sbu_0, # of connection points: 4
#     Node 10, Type 0, BuildingBlock: ESEHIV_clean_sbu_0, # of connection points: 4
#     Node 11, Type 0, BuildingBlock: ESEHIV_clean_sbu_0, # of connection points: 4
#     Node 12, Type 0, BuildingBlock: ESEHIV_clean_sbu_0, # of connection points: 4
#     Node 13, Type 0, BuildingBlock: ESEHIV_clean_sbu_0, # of connection points: 4
#     Node 14, Type 0, BuildingBlock: ESEHIV_clean_sbu_0, # of connection points: 4
#     Node 15, Type 0, BuildingBlock: ESEHIV_clean_sbu_0, # of connection points: 4
#     Node 16, Type 0, BuildingBlock: ESEHIV_clean_sbu_0, # of connection points: 4
#     Node 17, Type 0, BuildingBlock: ESEHIV_clean_sbu_0, # of connection points: 4
#     Node 18, Type 0, BuildingBlock: ESEHIV_clean_sbu_0, # of connection points: 4
#     Node 19, Type 0, BuildingBlock: ESEHIV_clean_sbu_0, # of connection points: 4
#     Node 20, Type 0, BuildingBlock: ESEHIV_clean_sbu_0, # of connection points: 4
#     Node 21, Type 0, BuildingBlock: ESEHIV_clean_sbu_0, # of connection points: 4
#     Node 22, Type 0, BuildingBlock: ESEHIV_clean_sbu_0, # of connection points: 4
#     Node 23, Type 0, BuildingBlock: ESEHIV_clean_sbu_0, # of connection points: 4
#     Edge 24, Type (0, 0), BuildingBlock: EZIPEK_clean_linker_0, # of connection points: 2
#     Edge 25, Type (0, 0), BuildingBlock: EZIPEK_clean_linker_0, # of connection points: 2
#     Edge 26, Type (0, 0), BuildingBlock: EZIPEK_clean_linker_0, # of connection points: 2
#     Edge 27, Type (0, 0), BuildingBlock: EZIPEK_clean_linker_0, # of connection points: 2
#     Edge 28, Type (0, 0), BuildingBlock: EZIPEK_clean_linker_0, # of connection points: 2
#     Edge 29, Type (0, 0), BuildingBlock: EZIPEK_clean_linker_0, # of connection points: 2
#     Edge 30, Type (0, 0), BuildingBlock: EZIPEK_clean_linker_0, # of connection points: 2
#     Edge 31, Type (0, 0), BuildingBlock: EZIPEK_clean_linker_0, # of connection points: 2
#     Edge 32, Type (0, 0), BuildingBlock: EZIPEK_clean_linker_0, # of connection points: 2
#     Edge 33, Type (0, 0), BuildingBlock: EZIPEK_clean_linker_0, # of connection points: 2
#     Edge 34, Type (0, 0), BuildingBlock: EZIPEK_clean_linker_0, # of connection points: 2
#     Edge 35, Type (0, 0), BuildingBlock: EZIPEK_clean_linker_0, # of connection points: 2
#     Edge 36, Type (0, 0), BuildingBlock: EZIPEK_clean_linker_0, # of connection points: 2
#     Edge 37, Type (0, 0), BuildingBlock: EZIPEK_clean_linker_0, # of connection points: 2
#     Edge 38, Type (0, 0), BuildingBlock: EZIPEK_clean_linker_0, # of connection points: 2
#     Edge 39, Type (0, 0), BuildingBlock: EZIPEK_clean_linker_0, # of connection points: 2
#     Edge 40, Type (0, 0), BuildingBlock: EZIPEK_clean_linker_0, # of connection points: 2
#     Edge 41, Type (0, 0), BuildingBlock: EZIPEK_clean_linker_0, # of connection points: 2
#     Edge 42, Type (0, 0), BuildingBlock: EZIPEK_clean_linker_0, # of connection points: 2
#     Edge 43, Type (0, 0), BuildingBlock: EZIPEK_clean_linker_0, # of connection points: 2
#     Edge 44, Type (0, 0), BuildingBlock: EZIPEK_clean_linker_0, # of connection points: 2
#     Edge 45, Type (0, 0), BuildingBlock: EZIPEK_clean_linker_0, # of connection points: 2
#     Edge 46, Type (0, 0), BuildingBlock: EZIPEK_clean_linker_0, # of connection points: 2
#     Edge 47, Type (0, 0), BuildingBlock: EZIPEK_clean_linker_0, # of connection points: 2
#     Edge 48, Type (0, 0), BuildingBlock: EZIPEK_clean_linker_0, # of connection points: 2
#     Edge 49, Type (0, 0), BuildingBlock: EZIPEK_clean_linker_0, # of connection points: 2
#     Edge 50, Type (0, 0), BuildingBlock: EZIPEK_clean_linker_0, # of connection points: 2
#     Edge 51, Type (0, 0), BuildingBlock: EZIPEK_clean_linker_0, # of connection points: 2
#     Edge 52, Type (0, 0), BuildingBlock: EZIPEK_clean_linker_0, # of connection points: 2
#     Edge 53, Type (0, 0), BuildingBlock: EZIPEK_clean_linker_0, # of connection points: 2
#     Edge 54, Type (0, 0), BuildingBlock: EZIPEK_clean_linker_0, # of connection points: 2
#     Edge 55, Type (0, 0), BuildingBlock: EZIPEK_clean_linker_0, # of connection points: 2
#     Edge 56, Type (0, 0), BuildingBlock: EZIPEK_clean_linker_0, # of connection points: 2
#     Edge 57, Type (0, 0), BuildingBlock: EZIPEK_clean_linker_0, # of connection points: 2
#     Edge 58, Type (0, 0), BuildingBlock: EZIPEK_clean_linker_0, # of connection points: 2
#     Edge 59, Type (0, 0), BuildingBlock: EZIPEK_clean_linker_0, # of connection points: 2
#     Edge 60, Type (0, 0), BuildingBlock: EZIPEK_clean_linker_0, # of connection points: 2
#     Edge 61, Type (0, 0), BuildingBlock: EZIPEK_clean_linker_0, # of connection points: 2
#     Edge 62, Type (0, 0), BuildingBlock: EZIPEK_clean_linker_0, # of connection points: 2
#     Edge 63, Type (0, 0), BuildingBlock: EZIPEK_clean_linker_0, # of connection points: 2
#     Edge 64, Type (0, 0), BuildingBlock: EZIPEK_clean_linker_0, # of connection points: 2
#     Edge 65, Type (0, 0), BuildingBlock: EZIPEK_clean_linker_0, # of connection points: 2
#     Edge 66, Type (0, 0), BuildingBlock: EZIPEK_clean_linker_0, # of connection points: 2
#     Edge 67, Type (0, 0), BuildingBlock: EZIPEK_clean_linker_0, # of connection points: 2
#     Edge 68, Type (0, 0), BuildingBlock: EZIPEK_clean_linker_0, # of connection points: 2
#     Edge 69, Type (0, 0), BuildingBlock: EZIPEK_clean_linker_0, # of connection points: 2
#     Edge 70, Type (0, 0), BuildingBlock: EZIPEK_clean_linker_0, # of connection points: 2
#     Edge 71, Type (0, 0), BuildingBlock: EZIPEK_clean_linker_0, # of connection points: 2
# Relax obj value: 0.083
# Max RMSD: 0.195
# Mean RMSD: 0.162
data_MOF--net-nfa--node1-ESEHIV_clean_sbu_0--edge1-EZIPEK_clean_linker_0
_symmetry_space_group_name_H-M    P1
_symmetry_Int_Tables_number       1
_symmetry_cell_setting            triclinic
loop_
_symmetry_equiv_pos_as_xyz
'x, y, z'
_cell_length_a     30.769982
_cell_length_b     35.617844
_cell_length_c     33.302297
_cell_angle_alpha  88.858174
_cell_angle_beta   89.072253
_cell_angle_gamma 92.146723
loop_
_atom_site_label
_atom_site_type_symbol
_atom_site_fract_x
_atom_site_fract_y
_atom_site_fract_z
_atom_type_partial_charge
Cu0 Cu 0.06869 0.39888 0.36053 0.0
N1 N 0.01153 0.38512 0.3444 0.0
N2 N 0.9532 0.34622 0.33763 0.0
C3 C 0.98034 0.36342 0.36363 0.0
C4 C 0.96656 0.35808 0.30089 0.0
C5 C 1.00254 0.38127 0.30506 0.0
O6 O 0.09117 0.3519 0.3856 0.0
C7 C 0.0744 0.45068 0.29253 0.0
O8 O 0.03475 0.45705 0.30516 0.0
H9 H 0.98016 0.35638 0.39518 0.0
H10 H 0.02414 0.38987 0.28049 0.0
N11 N 0.07743 0.43517 0.40105 0.0
N12 N 0.12011 0.48649 0.41166 0.0
C13 C 0.08784 0.47093 0.38995 0.0
C14 C 0.102 0.42954 0.43392 0.0
C15 C 0.12793 0.46095 0.44048 0.0
C16 C 0.07321 0.34216 0.41966 0.0
O17 O 0.04296 0.36339 0.43412 0.0
H18 H 0.07954 0.48201 0.36167 0.0
H19 H 0.10805 0.40277 0.44783 0.0
O20 O 0.09565 0.42478 0.31065 0.0
H21 H 0.95498 0.34653 0.27301 0.0
H22 H 0.15531 0.46245 0.4605 0.0
Cu23 Cu 0.91531 0.89607 0.65718 0.0
N24 N 0.90586 0.88945 0.60153 0.0
N25 N 0.85221 0.87611 0.55803 0.0
C26 C 0.86949 0.90117 0.58371 0.0
C27 C 0.88037 0.84815 0.55734 0.0
C28 C 0.91347 0.85669 0.58347 0.0
O29 O 0.86105 0.92384 0.67731 0.0
C30 C 0.98004 0.83833 0.66391 0.0
O31 O 1.00112 0.86385 0.64137 0.0
H32 H 0.85241 0.92485 0.59312 0.0
H33 H 0.93793 0.83761 0.59243 0.0
N34 N 0.95951 0.92865 0.67534 0.0
N35 N 0.9866 0.95173 0.73244 0.0
C36 C 0.97261 0.92099 0.71287 0.0
C37 C 0.96707 0.96595 0.67018 0.0
C38 C 0.98304 0.98029 0.70555 0.0
C39 C 0.85423 0.95747 0.66302 0.0
O40 O 0.88157 0.97167 0.63569 0.0
H41 H 0.96567 0.89418 0.72763 0.0
H42 H 0.95833 0.98231 0.64412 0.0
O43 O 0.94044 0.84526 0.67539 0.0
H44 H 0.87526 0.82187 0.542 0.0
H45 H 0.98913 1.00972 0.71171 0.0
Cu46 Cu 0.40642 0.62969 0.89629 0.0
N47 N 0.44607 0.59314 0.88365 0.0
N48 N 0.47541 0.55012 0.8447 0.0
C49 C 0.45661 0.58364 0.84583 0.0
C50 C 0.47824 0.5386 0.8834 0.0
C51 C 0.46002 0.56523 0.90741 0.0
O52 O 0.34799 0.60503 0.88695 0.0
C53 C 0.4179 0.70924 0.87575 0.0
O54 O 0.38154 0.71276 0.89612 0.0
H55 H 0.44673 0.59911 0.8194 0.0
H56 H 0.45368 0.56271 0.93941 0.0
N57 N 0.40729 0.6414 0.95123 0.0
N58 N 0.40672 0.67962 1.00387 0.0
C59 C 0.42329 0.67368 0.96689 0.0
C60 C 0.38062 0.62598 0.98005 0.0
C61 C 0.38016 0.64953 0.01254 0.0
C62 C 0.33945 0.58054 0.86013 0.0
O63 O 0.36667 0.57674 0.82999 0.0
H64 H 0.44354 0.69422 0.95033 0.0
H65 H 0.35959 0.60135 0.97612 0.0
O66 O 0.42896 0.67594 0.86773 0.0
H67 H 0.48901 0.51138 0.89321 0.0
H68 H 0.35887 0.64662 0.03872 0.0
Cu69 Cu 0.62705 0.15447 0.08052 0.0
N70 N 0.58203 0.17457 0.05247 0.0
N71 N 0.53916 0.22087 0.03584 0.0
C72 C 0.56416 0.20634 0.0643 0.0
C73 C 0.54084 0.19741 1.00465 0.0
C74 C 0.56769 0.16857 0.01507 0.0
O75 O 0.61407 0.17299 0.13398 0.0
C76 C 0.7154 0.15797 0.04629 0.0
O77 O 0.72505 0.13064 0.07109 0.0
H78 H 0.57221 0.22039 0.0919 0.0
H79 H 0.57842 0.1465 0.99584 0.0
N80 N 0.62146 0.10231 0.08124 0.0
N81 N 0.6357 0.04248 0.09309 0.0
C82 C 0.64985 0.07833 0.09653 0.0
C83 C 0.5878 0.0807 0.0684 0.0
C84 C 0.59662 0.04349 0.07561 0.0
C85 C 0.6081 0.15287 0.1658 0.0
O86 O 0.62774 0.12092 0.1692 0.0
H87 H 0.67981 0.08671 0.11088 0.0
H88 H 0.5589 0.09126 0.05481 0.0
O89 O 0.67875 0.17329 0.04948 0.0
H90 H 0.52609 0.20213 0.97579 0.0
H91 H 0.57649 0.01913 0.06815 0.0
Cu92 Cu 0.12935 0.62507 0.11957 0.0
N93 N 0.17958 0.64276 0.14407 0.0
N94 N 0.25012 0.63091 0.14811 0.0
C95 C 0.20906 0.61792 0.15541 0.0
C96 C 0.24671 0.66608 0.13326 0.0
C97 C 0.20306 0.67343 0.13099 0.0
O98 O 0.12459 0.57098 0.13669 0.0
C99 C 0.10996 0.6535 0.03974 0.0
O100 O 0.07031 0.63908 0.04464 0.0
H101 H 0.20085 0.58848 0.16119 0.0
H102 H 0.18973 0.69655 0.1143 0.0
N103 N 0.07971 0.64848 0.13681 0.0
N104 N 0.0325 0.68925 0.15897 0.0
C105 C 0.0748 0.68057 0.15678 0.0
C106 C 0.03939 0.63607 0.12748 0.0
C107 C 1.01027 0.6613 0.14073 0.0
C108 C 0.10622 0.56464 0.17118 0.0
O109 O 0.08628 0.59229 0.18816 0.0
H110 H 0.10147 0.69761 0.16834 0.0
H111 H 0.03195 0.61067 0.11129 0.0
O112 O 0.13953 0.64352 0.06379 0.0
H113 H 0.27332 0.68301 0.11989 0.0
H114 H 0.97536 0.6596 0.13697 0.0
Cu115 Cu 0.61566 0.90049 0.39293 0.0
N116 N 0.56837 0.92862 0.37561 0.0
N117 N 0.51936 0.92337 0.32581 0.0
C118 C 0.53084 0.91166 0.36318 0.0
C119 C 0.54994 0.94992 0.31544 0.0
C120 C 0.57797 0.95441 0.34631 0.0
O121 O 0.60035 0.85054 0.37209 0.0
C122 C 0.66953 0.96179 0.3919 0.0
O123 O 0.63872 0.96917 0.41806 0.0
H124 H 0.51533 0.88799 0.37899 0.0
H125 H 0.60778 0.97089 0.34324 0.0
N126 N 0.6304 0.89458 0.44721 0.0
N127 N 0.68006 0.88241 0.49405 0.0
C128 C 0.6728 0.89117 0.45532 0.0
C129 C 0.60936 0.88762 0.4825 0.0
C130 C 0.63993 0.87945 0.5113 0.0
C131 C 0.59157 0.82213 0.3953 0.0
O132 O 0.60882 0.82063 0.43101 0.0
H133 H 0.69832 0.89474 0.43268 0.0
H134 H 0.57452 0.88735 0.48699 0.0
O135 O 0.66677 0.93067 0.37312 0.0
H136 H 0.55476 0.9628 0.28592 0.0
H137 H 0.63311 0.87175 0.54243 0.0
Cu138 Cu 0.44176 0.36914 0.65993 0.0
N139 N 0.43464 0.35913 0.605 0.0
N140 N 0.42485 0.3266 0.54874 0.0
C141 C 0.43987 0.32608 0.58653 0.0
C142 C 0.4112 0.36173 0.54241 0.0
C143 C 0.41767 0.38177 0.57699 0.0
O144 O 0.47469 0.32576 0.68391 0.0
C145 C 0.35411 0.40354 0.6637 0.0
O146 O 0.34135 0.38277 0.63365 0.0
H147 H 0.45372 0.30176 0.60018 0.0
H148 H 0.40956 0.41059 0.58177 0.0
N149 N 0.48134 0.40945 0.66782 0.0
N150 N 0.4995 0.45534 0.71022 0.0
C151 C 0.46877 0.44106 0.68584 0.0
C152 C 0.52257 0.40512 0.67958 0.0
C153 C 0.53379 0.4333 0.70577 0.0
C154 C 0.47072 0.28998 0.67928 0.0
O155 O 0.43397 0.27551 0.66589 0.0
H156 H 0.43561 0.45008 0.68649 0.0
H157 H 0.54066 0.38009 0.67478 0.0
O158 O 0.38845 0.394 0.68251 0.0
H159 H 0.39718 0.37194 0.51485 0.0
H160 H 0.56269 0.43476 0.72387 0.0
Cu161 Cu 0.89506 0.12907 0.86638 0.0
N162 N 0.88273 0.07725 0.87616 0.0
N163 N 0.83895 0.02574 0.88672 0.0
C164 C 0.84548 0.06282 0.89376 0.0
C165 C 0.87387 0.01627 0.8646 0.0
C166 C 0.90055 0.04801 0.8579 0.0
O167 O 0.84263 0.15099 0.88935 0.0
C168 C 0.89849 0.12433 0.77624 0.0
O169 O 0.86157 0.10465 0.77544 0.0
H170 H 0.82197 0.07966 0.90896 0.0
H171 H 0.92923 0.05015 0.83865 0.0
N172 N 0.94466 0.15035 0.89156 0.0
N173 N 0.99828 0.19401 0.90098 0.0
C174 C 0.96937 0.17908 0.87496 0.0
C175 C 0.95911 0.14645 0.92929 0.0
C176 C 0.99197 0.17343 0.93522 0.0
C177 C 0.8429 0.1768 0.91541 0.0
O178 O 0.87688 0.2 0.91728 0.0
H179 H 0.96427 0.19056 0.84514 0.0
H180 H 0.94515 0.12685 0.95159 0.0
O181 O 0.91191 0.1372 0.80949 0.0
H182 H 0.87867 0.9887 0.85252 0.0
H183 H 1.00855 0.17866 0.96309 0.0
Cu184 Cu 0.38498 0.16634 0.3671 0.0
N185 N 0.42136 0.19157 0.32746 0.0
N186 N 0.47582 0.19363 0.28111 0.0
C187 C 0.43603 0.17859 0.29173 0.0
C188 C 0.48651 0.21719 0.31059 0.0
C189 C 0.45375 0.21538 0.33893 0.0
O190 O 0.38413 0.11333 0.3525 0.0
C191 C 0.39407 0.21991 0.42498 0.0
O192 O 0.36744 0.23538 0.39967 0.0
H193 H 0.42111 0.15529 0.27617 0.0
H194 H 0.45773 0.22521 0.36892 0.0
N195 N 0.32493 0.1736 0.37311 0.0
N196 N 0.2608 0.16478 0.40533 0.0
C197 C 0.30326 0.15709 0.40469 0.0
C198 C 0.29488 0.19242 0.35267 0.0
C199 C 0.25509 0.18702 0.37268 0.0
C200 C 0.36279 0.10892 0.32012 0.0
O201 O 0.34835 0.13938 0.3028 0.0
H202 H 0.31866 0.1401 0.42731 0.0
H203 H 0.30142 0.20896 0.32552 0.0
O204 O 0.40672 0.18653 0.41823 0.0
H205 H 0.51804 0.23133 0.31363 0.0
H206 H 0.22456 0.19883 0.36427 0.0
Cu207 Cu 0.10696 0.13983 0.6088 0.0
N208 N 0.11228 0.19172 0.59402 0.0
N209 N 0.11187 0.24154 0.55116 0.0
C210 C 0.09467 0.20699 0.56076 0.0
C211 C 0.14052 0.2491 0.58045 0.0
C212 C 0.14094 0.21833 0.60659 0.0
O213 O 0.13454 0.11499 0.56288 0.0
C214 C 0.02075 0.15005 0.63998 0.0
O215 O 0.02695 0.18479 0.62662 0.0
H216 H 0.06987 0.19299 0.54339 0.0
H217 H 0.16258 0.21483 0.63151 0.0
N218 N 0.14083 0.12495 0.65268 0.0
N219 N 0.16361 0.08563 0.70099 0.0
C220 C 0.13029 0.09511 0.67727 0.0
C221 C 0.18229 0.13466 0.66134 0.0
C222 C 0.1963 0.11061 0.69122 0.0
C223 C 0.12954 0.12497 0.52624 0.0
O224 O 0.0916 0.1364 0.51482 0.0
H225 H 0.09967 0.07921 0.67614 0.0
H226 H 0.20184 0.15622 0.64551 0.0
O227 O 0.04755 0.12545 0.62901 0.0
H228 H 0.1611 0.27435 0.5818 0.0
H229 H 0.22859 0.11042 0.70364 0.0
Cu230 Cu 0.1301 0.89088 0.89957 0.0
N231 N 0.16396 0.91629 0.85866 0.0
N232 N 0.17919 0.95892 0.80913 0.0
C233 C 0.15462 0.95 0.84216 0.0
C234 C 0.20569 0.92987 0.80481 0.0
C235 C 0.19607 0.90355 0.83521 0.0
O236 O 0.07103 0.90066 0.88395 0.0
C237 C 0.18448 0.91567 0.96089 0.0
O238 O 0.21191 0.92129 0.93054 0.0
H239 H 0.12952 0.96736 0.85339 0.0
H240 H 0.21009 0.87632 0.83881 0.0
N241 N 0.13649 0.83855 0.9016 0.0
N242 N 0.13522 0.7801 0.92816 0.0
C243 C 0.13572 0.81727 0.93571 0.0
C244 C 0.1368 0.81394 0.87145 0.0
C245 C 0.13602 0.77785 0.88776 0.0
C246 C 0.05535 0.93298 0.88753 0.0
O247 O 0.07401 0.95652 0.9123 0.0
H248 H 0.13344 0.82869 0.96552 0.0
H249 H 0.1358 0.82163 0.83989 0.0
O250 O 0.14503 0.90666 0.95362 0.0
H251 H 0.22895 0.92715 0.7804 0.0
H252 H 0.13451 0.75194 0.87131 0.0
Cu253 Cu 0.35043 0.89412 0.15257 0.0
N254 N 0.3868 0.87035 0.11569 0.0
N255 N 0.40926 0.82268 0.07877 0.0
C256 C 0.37796 0.835 0.10342 0.0
C257 C 0.4389 0.8514 0.07473 0.0
C258 C 0.42493 0.8809 0.09755 0.0
O259 O 0.29246 0.88887 0.12894 0.0
C260 C 0.39746 0.8582 0.21369 0.0
O261 O 0.41698 0.83923 0.18577 0.0
H262 H 0.34921 0.81844 0.11278 0.0
H263 H 0.44164 0.90787 0.10088 0.0
N264 N 0.362 0.94483 0.16346 0.0
N265 N 0.36507 0.99374 0.20451 0.0
C266 C 0.34762 0.95924 0.19816 0.0
C267 C 0.38839 0.97183 0.14635 0.0
C268 C 0.39032 1.00217 0.1718 0.0
C269 C 0.27524 0.91675 0.1113 0.0
O270 O 0.29138 0.95084 0.11665 0.0
H271 H 0.32589 0.94403 0.21916 0.0
H272 H 0.40652 0.969 0.11857 0.0
O273 O 0.36107 0.87273 0.20596 0.0
H274 H 0.46834 0.85103 0.05653 0.0
H275 H 0.40937 0.02809 0.16707 0.0
Cu276 Cu 0.4046 0.40908 0.15307 0.0
N277 N 0.44301 0.40178 0.11097 0.0
N278 N 0.47731 0.36378 0.07005 0.0
C279 C 0.46038 0.36806 0.10696 0.0
C280 C 0.47093 0.39618 0.04977 0.0
C281 C 0.4496 0.41983 0.07531 0.0
O282 O 0.43841 0.3918 0.19981 0.0
C283 C 0.31377 0.40185 0.13015 0.0
O284 O 0.30709 0.43005 0.1539 0.0
H285 H 0.45702 0.34574 0.12948 0.0
H286 H 0.43684 0.44679 0.06737 0.0
N287 N 0.39534 0.45931 0.16277 0.0
N288 N 0.36721 0.51596 0.15881 0.0
C289 C 0.38437 0.48769 0.13797 0.0
C290 C 0.38671 0.47087 0.2001 0.0
C291 C 0.36931 0.50556 0.19781 0.0
C292 C 0.42983 0.38346 0.23665 0.0
O293 O 0.38907 0.37985 0.24892 0.0
H294 H 0.3856 0.48644 0.10555 0.0
H295 H 0.38922 0.45381 0.22697 0.0
O296 O 0.35002 0.38532 0.1319 0.0
H297 H 0.47868 0.40132 0.01827 0.0
H298 H 0.35652 0.52105 0.22275 0.0
Cu299 Cu 0.86334 0.88724 0.1278 0.0
N300 N 0.80481 0.89314 0.13565 0.0
N301 N 0.74239 0.92175 0.13238 0.0
C302 C 0.78551 0.92518 0.12645 0.0
C303 C 0.73377 0.88628 0.14577 0.0
C304 C 0.77282 0.86844 0.14775 0.0
O305 O 0.88821 0.93675 0.14344 0.0
C306 C 0.89933 0.8571 0.05259 0.0
O307 O 0.9387 0.86313 0.06623 0.0
H308 H 0.80261 0.95025 0.11463 0.0
H309 H 0.77749 0.83945 0.15638 0.0
N310 N 0.88116 0.85058 0.16366 0.0
N311 N 0.92258 0.80665 0.18935 0.0
C312 C 0.91189 0.82589 0.15611 0.0
C313 C 0.87165 0.84657 0.2032 0.0
C314 C 0.8978 0.81969 0.21936 0.0
C315 C 0.91196 0.94055 0.17443 0.0
O316 O 0.93131 0.91133 0.18927 0.0
H317 H 0.92776 0.82302 0.12731 0.0
H318 H 0.84894 0.86331 0.21945 0.0
O319 O 0.86664 0.86817 0.07247 0.0
H320 H 0.70167 0.87413 0.15257 0.0
H321 H 0.89904 0.81074 0.25056 0.0
Cu322 Cu 0.16725 0.62067 0.66657 0.0
N323 N 0.20963 0.58875 0.6934 0.0
N324 N 0.25335 0.53788 0.69773 0.0
C325 C 0.24213 0.56891 0.67579 0.0
C326 C 0.22714 0.53815 0.7303 0.0
C327 C 0.20084 0.56843 0.72759 0.0
O328 O 0.18374 0.6169 0.60951 0.0
C329 C 0.10958 0.61421 0.72679 0.0
O330 O 0.14415 0.63174 0.74121 0.0
H331 H 0.25491 0.57496 0.64591 0.0
H332 H 0.17384 0.57191 0.74782 0.0
N333 N 0.15531 0.67393 0.67217 0.0
N334 N 0.11287 0.72554 0.6728 0.0
C335 C 0.11428 0.6875 0.66952 0.0
C336 C 0.18091 0.70506 0.67641 0.0
C337 C 0.1552 0.73644 0.67664 0.0
C338 C 0.22161 0.63226 0.6029 0.0
O339 O 0.24156 0.64842 0.63296 0.0
H340 H 0.0855 0.66956 0.66588 0.0
H341 H 0.21589 0.70522 0.67904 0.0
O342 O 0.11176 0.60234 0.69063 0.0
H343 H 0.22488 0.51619 0.75325 0.0
H344 H 0.16684 0.76524 0.68001 0.0
Cu345 Cu 0.64681 0.85145 0.89119 0.0
N346 N 0.65573 0.85565 0.8361 0.0
N347 N 0.65228 0.88577 0.77726 0.0
C348 C 0.64091 0.88554 0.81627 0.0
C349 C 0.67521 0.8547 0.77182 0.0
C350 C 0.67712 0.83582 0.80854 0.0
O351 O 0.67048 0.90048 0.91006 0.0
C352 C 0.57621 0.80213 0.8832 0.0
O353 O 0.60887 0.78212 0.8713 0.0
H354 H 0.62341 0.90759 0.8306 0.0
H355 H 0.69378 0.81022 0.81478 0.0
N356 N 0.67787 0.81449 0.91729 0.0
N357 N 0.69486 0.77465 0.96646 0.0
C358 C 0.66638 0.79981 0.95365 0.0
C359 C 0.71504 0.79811 0.90684 0.0
C360 C 0.72559 0.77329 0.93729 0.0
C361 C 0.71002 0.90779 0.89853 0.0
O362 O 0.7303 0.88236 0.87816 0.0
H363 H 0.6376 0.80732 0.97034 0.0
H364 H 0.73331 0.80391 0.87928 0.0
O365 O 0.58464 0.83539 0.89593 0.0
H366 H 0.69039 0.84698 0.74379 0.0
H367 H 0.7534 0.75557 0.93799 0.0
Cu368 Cu 0.86103 0.12893 0.36744 0.0
N369 N 0.87175 0.13543 0.42306 0.0
N370 N 0.87223 0.1622 0.48368 0.0
C371 C 0.86677 0.1673 0.4439 0.0
C372 C 0.88169 0.12576 0.48848 0.0
C373 C 0.88187 0.10947 0.45104 0.0
O374 O 0.87243 0.17682 0.34023 0.0
C375 C 0.77698 0.09718 0.38683 0.0
O376 O 0.779 0.11542 0.42069 0.0
H377 H 0.85865 0.19393 0.43083 0.0
H378 H 0.88793 0.08043 0.44482 0.0
N379 N 0.89644 0.09456 0.34233 0.0
N380 N 0.91374 0.05153 0.29725 0.0
C381 C 0.88524 0.07752 0.30795 0.0
C382 C 0.93359 0.07898 0.35369 0.0
C383 C 0.94438 0.05234 0.3258 0.0
C384 C 0.85412 0.20648 0.35083 0.0
O385 O 0.81728 0.20363 0.37138 0.0
H386 H 0.85586 0.08314 0.29177 0.0
H387 H 0.9509 0.08574 0.38077 0.0
O388 O 0.80431 0.1055 0.35886 0.0
H389 H 0.88752 0.11191 0.51701 0.0
H390 H 0.97192 0.03434 0.32686 0.0
Cu391 Cu 0.65557 0.11331 0.64756 0.0
N392 N 0.66708 0.12042 0.59265 0.0
N393 N 0.67565 0.1511 0.53358 0.0
C394 C 0.65501 0.14971 0.56977 0.0
C395 C 0.70093 0.12094 0.53358 0.0
C396 C 0.6944 0.10151 0.56942 0.0
O397 O 0.61717 0.15684 0.66116 0.0
C398 C 0.74763 0.08877 0.69091 0.0
O399 O 0.76775 0.11383 0.71305 0.0
H400 H 0.6327 0.17041 0.57997 0.0
H401 H 0.70839 0.07537 0.5779 0.0
N402 N 0.62097 0.07023 0.65557 0.0
N403 N 0.61023 0.01319 0.68312 0.0
C404 C 0.63779 0.03639 0.66182 0.0
C405 C 0.58088 0.06805 0.67244 0.0
C406 C 0.57414 0.03268 0.68952 0.0
C407 C 0.61371 0.18252 0.68749 0.0
O408 O 0.64178 0.18465 0.7167 0.0
H409 H 0.67168 0.03076 0.65625 0.0
H410 H 0.56044 0.09177 0.67658 0.0
O411 O 0.71184 0.09827 0.67404 0.0
H412 H 0.72267 0.1135 0.50935 0.0
H413 H 0.54708 0.02344 0.70892 0.0
Cu414 Cu 0.14668 0.40085 0.88784 0.0
N415 N 0.099 0.42279 0.86187 0.0
N416 N 0.05042 0.43164 0.81295 0.0
C417 C 0.08369 0.41113 0.82606 0.0
C418 C 0.04476 0.45761 0.84134 0.0
C419 C 0.07468 0.4521 0.87145 0.0
O420 O 0.13474 0.34641 0.87899 0.0
C421 C 0.20207 0.46362 0.87872 0.0
O422 O 0.17075 0.47579 0.90172 0.0
H423 H 0.09654 0.38775 0.80998 0.0
H424 H 0.07844 0.4684 0.8983 0.0
N425 N 0.15257 0.40542 0.94423 0.0
N426 N 0.1867 0.40443 1.00359 0.0
C427 C 0.18865 0.39574 0.96423 0.0
C428 C 0.12676 0.42062 0.97211 0.0
C429 C 0.14773 0.42004 1.00868 0.0
C430 C 0.09914 0.33411 0.89619 0.0
O431 O 0.07748 0.35745 0.91827 0.0
H432 H 0.2165 0.38362 0.94988 0.0
H433 H 0.09546 0.43217 0.96614 0.0
O434 O 0.19908 0.42952 0.86665 0.0
H435 H 0.02038 0.47874 0.84055 0.0
H436 H 0.13575 0.43102 0.03666 0.0
Cu437 Cu 0.37842 0.63151 0.39189 0.0
N438 N 0.33239 0.60514 0.36807 0.0
N439 N 0.26733 0.57513 0.36733 0.0
C440 C 0.28886 0.60875 0.37091 0.0
C441 C 0.29836 0.55023 0.36035 0.0
C442 C 0.33796 0.56863 0.36081 0.0
O443 O 0.3649 0.6249 0.44946 0.0
C444 C 0.42953 0.61408 0.32771 0.0
O445 O 0.39324 0.62352 0.31061 0.0
H446 H 0.27356 0.63465 0.3781 0.0
H447 H 0.36903 0.55543 0.36059 0.0
N448 N 0.38696 0.68265 0.38132 0.0
N449 N 0.4348 0.73112 0.37439 0.0
C450 C 0.4218 0.70086 0.39686 0.0
C451 C 0.37685 0.70263 0.34831 0.0
C452 C 0.40658 0.73258 0.34389 0.0
C453 C 0.33143 0.64291 0.45993 0.0
O454 O 0.31537 0.66666 0.43396 0.0
H455 H 0.44044 0.68956 0.42129 0.0
H456 H 0.35373 0.6933 0.32616 0.0
O457 O 0.43098 0.61258 0.36621 0.0
H458 H 0.2928 0.52016 0.35794 0.0
H459 H 0.41004 0.75106 0.31792 0.0
Cu460 Cu 0.88944 0.64999 0.8678 0.0
N461 N 0.84825 0.63971 0.82841 0.0
N462 N 0.81731 0.59241 0.79401 0.0
C463 C 0.8546 0.61162 0.80255 0.0
C464 C 0.78588 0.61004 0.81405 0.0
C465 C 0.80487 0.63942 0.83457 0.0
O466 O 0.94448 0.63925 0.8423 0.0
C467 C 0.86881 0.61932 0.9474 0.0
O468 O 0.89166 0.64712 0.96275 0.0
H469 H 0.88643 0.60225 0.79429 0.0
H470 H 0.78846 0.65655 0.85588 0.0
N471 N 0.89414 0.70084 0.88448 0.0
N472 N 0.89788 0.75293 0.9219 0.0
C473 C 0.87772 0.71888 0.91663 0.0
C474 C 0.92512 0.72492 0.86898 0.0
C475 C 0.92762 0.75669 0.89185 0.0
C476 C 0.9621 0.60779 0.83812 0.0
O477 O 0.94526 0.57755 0.85649 0.0
H478 H 0.85375 0.70678 0.93754 0.0
H479 H 0.94646 0.71872 0.84405 0.0
O480 O 0.87011 0.61429 0.90982 0.0
H481 H 0.75206 0.60057 0.81621 0.0
H482 H 0.95081 0.78014 0.88781 0.0
Cu483 Cu 0.66556 0.60829 0.14171 0.0
N484 N 0.68104 0.5815 0.09613 0.0
N485 N 0.72176 0.56853 0.04262 0.0
C486 C 0.72032 0.5854 0.07808 0.0
C487 C 0.68171 0.55294 0.03745 0.0
C488 C 0.65653 0.56086 0.07088 0.0
O489 O 0.66715 0.66144 0.12505 0.0
C490 C 0.72593 0.56576 0.18575 0.0
O491 O 0.74556 0.55917 0.15164 0.0
H492 H 0.74742 0.60154 0.08976 0.0
H493 H 0.62224 0.55404 0.07514 0.0
N494 N 0.6086 0.5966 0.15843 0.0
N495 N 0.55196 0.59107 0.20096 0.0
C496 C 0.5955 0.59503 0.19722 0.0
C497 C 0.57207 0.59362 0.13686 0.0
C498 C 0.53693 0.59028 0.16316 0.0
C499 C 0.69877 0.67713 0.10517 0.0
O500 O 0.73777 0.66395 0.10854 0.0
H501 H 0.6171 0.59968 0.22213 0.0
H502 H 0.57085 0.59625 0.10451 0.0
O503 O 0.69926 0.59222 0.18778 0.0
H504 H 0.67074 0.53948 0.01038 0.0
H505 H 0.50292 0.59008 0.15528 0.0
Cu506 Cu 0.66258 0.37166 0.37144 0.0
N507 N 0.69384 0.3878 0.32636 0.0
N508 N 0.71731 0.43097 0.28141 0.0
C509 C 0.68606 0.42081 0.30835 0.0
C510 C 0.74616 0.40339 0.28212 0.0
C511 C 0.73158 0.37661 0.31041 0.0
O512 O 0.60352 0.38829 0.35687 0.0
C513 C 0.70051 0.38905 0.45086 0.0
O514 O 0.67075 0.36713 0.46899 0.0
H515 H 0.65905 0.43802 0.31623 0.0
H516 H 0.74827 0.35194 0.32013 0.0
N517 N 0.66381 0.31917 0.37716 0.0
N518 N 0.66437 0.26316 0.40867 0.0
C519 C 0.67825 0.29953 0.40894 0.0
C520 C 0.64265 0.29365 0.3546 0.0
C521 C 0.64204 0.25933 0.3744 0.0
C522 C 0.56921 0.36718 0.35326 0.0
O523 O 0.56706 0.33372 0.37046 0.0
H524 H 0.69647 0.31178 0.4331 0.0
H525 H 0.62597 0.30005 0.32715 0.0
O526 O 0.69779 0.39643 0.41335 0.0
H527 H 0.77605 0.40337 0.26455 0.0
H528 H 0.62497 0.23388 0.36519 0.0
Cu529 Cu 0.86736 0.38117 0.63287 0.0
N530 N 0.85438 0.32957 0.63287 0.0
N531 N 0.85067 0.27348 0.60377 0.0
C532 C 0.86966 0.30814 0.60322 0.0
C533 C 0.82218 0.27282 0.63506 0.0
C534 C 0.82441 0.30767 0.65296 0.0
O535 O 0.85434 0.39075 0.57571 0.0
C536 C 0.94145 0.41689 0.67264 0.0
O537 O 0.92577 0.44912 0.66128 0.0
H538 H 0.89244 0.31855 0.58011 0.0
H539 H 0.80393 0.31699 0.67722 0.0
N540 N 0.82765 0.40991 0.6619 0.0
N541 N 0.8109 0.4598 0.69921 0.0
C542 C 0.8328 0.4273 0.69748 0.0
C543 C 0.79906 0.43049 0.64205 0.0
C544 C 0.79016 0.46148 0.6638 0.0
C545 C 0.84796 0.42041 0.55486 0.0
O546 O 0.86547 0.45259 0.56611 0.0
H547 H 0.85361 0.41706 0.72068 0.0
H548 H 0.78813 0.42506 0.61212 0.0
O549 O 0.92558 0.38667 0.6577 0.0
H550 H 0.79996 0.2495 0.64308 0.0
H551 H 0.77124 0.48458 0.6532 0.0
C552 C 0.05173 0.28941 0.46745 0.0
C553 C 0.0859 0.30971 0.44619 0.0
C554 C 0.13793 0.27756 0.48929 0.0
C555 C 0.10335 0.26398 0.51526 0.0
N556 N 0.02683 0.26347 0.53175 0.0
N557 N 0.16296 0.32562 0.44087 0.0
C558 C 0.06004 0.27142 0.50488 0.0
C559 C 0.12956 0.30426 0.45789 0.0
N560 N 0.01104 0.2872 0.45174 0.0
N561 N 0.17848 0.26395 0.49354 0.0
H562 H 0.15873 0.34527 0.41786 0.0
H563 H 0.19454 0.32564 0.45175 0.0
H564 H 0.1851 0.24301 0.5146 0.0
H565 H 0.20397 0.27028 0.47326 0.0
H566 H 0.98586 0.27008 0.46416 0.0
H567 H 1.00417 0.29906 0.42384 0.0
H568 H 0.99502 0.27141 0.52701 0.0
H569 H 0.03188 0.25287 0.56063 0.0
C570 C 0.97342 0.93009 0.80359 0.0
C571 C 0.99721 0.95317 0.77479 0.0
C572 C 0.04065 0.97762 0.82998 0.0
C573 C 0.02669 0.94638 0.85477 0.0
N574 N 0.97658 0.89332 0.8654 0.0
N575 N 0.05878 0.99616 0.76163 0.0
C576 C 0.99195 0.92271 0.84163 0.0
C577 C 0.03202 0.97664 0.78829 0.0
N578 N 0.93228 0.91706 0.79559 0.0
N579 N 0.06175 1.00815 0.84572 0.0
H580 H 0.05826 0.99204 0.7308 0.0
H581 H 0.08501 0.01306 0.77063 0.0
H582 H 0.06525 1.01158 0.87645 0.0
H583 H 0.07004 0.03232 0.8287 0.0
H584 H 0.91263 0.90219 0.81667 0.0
H585 H 0.916 0.92549 0.76992 0.0
H586 H 0.95466 0.87271 0.85527 0.0
H587 H 0.98713 0.88904 0.89472 0.0
C588 C 0.38273 0.78001 0.02623 0.0
C589 C 0.40955 0.78663 0.05963 0.0
C590 C 0.43592 0.72256 0.05532 0.0
C591 C 0.40678 0.7153 0.0237 0.0
N592 N 0.34662 0.73438 0.98384 0.0
N593 N 0.45722 0.76341 0.10991 0.0
C594 C 0.37833 0.74326 0.01064 0.0
C595 C 0.43501 0.75761 0.0753 0.0
N596 N 0.36312 0.80951 1.00838 0.0
N597 N 0.46484 0.69603 0.06558 0.0
H598 H 0.45711 0.78894 0.12474 0.0
H599 H 0.47316 0.7424 0.12529 0.0
H600 H 0.46527 0.66999 0.05176 0.0
H601 H 0.48987 0.70057 0.08578 0.0
H602 H 0.34602 0.80761 0.98173 0.0
H603 H 0.36847 0.83682 0.01815 0.0
H604 H 0.32213 0.75244 0.97605 0.0
H605 H 0.34278 0.70773 0.97172 0.0
C606 C 0.51763 0.14428 0.24665 0.0
C607 C 0.50597 0.18224 0.25019 0.0
C608 C 0.56549 0.20116 0.20339 0.0
C609 C 0.5735 0.16288 0.19566 0.0
N610 N 0.54374 0.09865 0.2006 0.0
N611 N 0.51132 0.24509 0.22267 0.0
C612 C 0.54578 0.13446 0.21456 0.0
C613 C 0.52758 0.21011 0.22559 0.0
N614 N 0.50374 0.11775 0.27456 0.0
N615 N 0.59485 0.22907 0.19158 0.0
H616 H 0.4831 0.25237 0.23799 0.0
H617 H 0.5229 0.26477 0.20115 0.0
H618 H 0.62492 0.22383 0.17843 0.0
H619 H 0.5915 0.25703 0.19943 0.0
H620 H 0.51449 0.09032 0.27449 0.0
H621 H 0.48591 0.12408 0.30022 0.0
H622 H 0.52148 0.07819 0.21203 0.0
H623 H 0.55933 0.09078 0.17426 0.0
C624 C 0.16287 0.72265 0.96111 0.0
C625 C 0.12985 0.7491 0.95696 0.0
C626 C 0.0882 0.71661 0.01158 0.0
C627 C 0.11794 0.6868 0.01168 0.0
N628 N 0.18161 0.65982 0.98236 0.0
N629 N 0.0571 0.76706 0.9731 0.0
C630 C 0.15496 0.68947 0.98544 0.0
C631 C 0.09139 0.7449 0.98079 0.0
N632 N 0.20228 0.72986 0.94261 0.0
N633 N 0.0583 0.71931 0.04209 0.0
H634 H 0.05775 0.78724 0.94996 0.0
H635 H 0.02661 0.76268 0.98686 0.0
H636 H 0.05663 0.70102 0.06689 0.0
H637 H 0.03876 0.74238 0.04528 0.0
H638 H 0.22932 0.71376 0.9476 0.0
H639 H 0.20897 0.75412 0.92517 0.0
H640 H 0.20652 0.65875 0.96091 0.0
H641 H 0.1764 0.63476 0.99872 0.0
C642 C 0.47101 0.92932 0.26648 0.0
C643 C 0.48665 0.90748 0.29907 0.0
C644 C 0.436 0.85644 0.27972 0.0
C645 C 0.42593 0.87604 0.24415 0.0
N646 N 0.44963 0.92578 0.19756 0.0
N647 N 0.49729 0.84302 0.3199 0.0
C648 C 0.44821 0.91091 0.23549 0.0
C649 C 0.47246 0.86901 0.30192 0.0
N650 N 0.47618 0.96754 0.26534 0.0
N651 N 0.41239 0.82511 0.29179 0.0
H652 H 0.52923 0.84932 0.32789 0.0
H653 H 0.48909 0.81436 0.31919 0.0
H654 H 0.38617 0.81429 0.27558 0.0
H655 H 0.4168 0.81313 0.3202 0.0
H656 H 0.46455 0.98407 0.24194 0.0
H657 H 0.48522 0.98279 0.29045 0.0
H658 H 0.46879 0.94966 0.18962 0.0
H659 H 0.4359 0.9117 0.17356 0.0
C660 C 0.39841 0.26258 0.52864 0.0
C661 C 0.42349 0.29629 0.52046 0.0
C662 C 0.43239 0.2785 0.45053 0.0
C663 C 0.40988 0.24331 0.45886 0.0
N664 N 0.37789 0.19938 0.50799 0.0
N665 N 0.47535 0.33008 0.47761 0.0
C666 C 0.39563 0.23429 0.49883 0.0
C667 C 0.44424 0.30197 0.4827 0.0
N668 N 0.37462 0.25876 0.56354 0.0
N669 N 0.44019 0.29109 0.41196 0.0
H670 H 0.48519 0.3472 0.50112 0.0
H671 H 0.49454 0.33352 0.45161 0.0
H672 H 0.43 0.27669 0.38683 0.0
H673 H 0.45251 0.31811 0.40488 0.0
H674 H 0.35211 0.2367 0.56943 0.0
H675 H 0.3743 0.27945 0.58519 0.0
H676 H 0.37074 0.19006 0.53728 0.0
H677 H 0.37354 0.17862 0.48665 0.0
C678 C 0.96051 0.10959 0.67572 0.0
C679 C 0.98877 0.14215 0.67422 0.0
C680 C 0.95075 0.16543 0.73376 0.0
C681 C 0.92679 0.13074 0.73902 0.0
N682 N 0.91707 0.06613 0.71822 0.0
N683 N 0.01899 0.19456 0.71128 0.0
C684 C 0.93373 0.10173 0.71079 0.0
C685 C 0.98622 0.16825 0.70591 0.0
N686 N 0.95847 0.08648 0.64353 0.0
N687 N 0.93903 0.19634 0.7544 0.0
H688 H 0.0478 0.19557 0.69432 0.0
H689 H 0.02001 0.21198 0.73607 0.0
H690 H 0.91136 0.19651 0.77289 0.0
H691 H 0.95364 0.22291 0.74907 0.0
H692 H 0.93541 0.06447 0.64132 0.0
H693 H 0.97695 0.09157 0.61734 0.0
H694 H 0.92326 0.04361 0.6998 0.0
H695 H 0.90088 0.0579 0.74481 0.0
C696 C 0.28165 0.57678 0.11522 0.0
C697 C 0.28619 0.60701 0.14196 0.0
C698 C 0.3555 0.58323 0.16331 0.0
C699 C 0.34508 0.54858 0.14489 0.0
N700 N 0.2946 0.51157 0.10482 0.0
N701 N 0.32725 0.6395 0.19212 0.0
C702 C 0.30769 0.5452 0.12041 0.0
C703 C 0.32358 0.61085 0.16568 0.0
N704 N 0.25206 0.5783 0.08519 0.0
N705 N 0.39568 0.58898 0.17932 0.0
H706 H 0.30409 0.66004 0.19434 0.0
H707 H 0.35162 0.64141 0.21342 0.0
H708 H 0.41959 0.56902 0.17712 0.0
H709 H 0.40647 0.61454 0.19098 0.0
H710 H 0.24975 0.55836 0.06275 0.0
H711 H 0.23345 0.60179 0.08024 0.0
H712 H 0.26462 0.50713 0.09123 0.0
H713 H 0.31168 0.48724 0.10785 0.0
C714 C 0.80712 0.97076 0.92497 0.0
C715 C 0.80158 1.00109 0.89764 0.0
C716 C 0.72661 0.97702 0.8852 0.0
C717 C 0.73527 0.94353 0.90702 0.0
N718 N 0.78145 0.90942 0.95106 0.0
N719 N 0.75498 0.0359 0.85454 0.0
C720 C 0.77468 0.94105 0.92845 0.0
C721 C 0.76059 1.00544 0.87918 0.0
N722 N 0.84339 0.97101 0.94804 0.0
N723 N 0.68629 0.98094 0.86938 0.0
H724 H 0.77934 0.05646 0.84881 0.0
H725 H 0.72715 0.04044 0.83816 0.0
H726 H 0.66136 0.96052 0.87335 0.0
H727 H 0.67621 1.00495 0.85455 0.0
H728 H 0.84829 0.95188 0.97136 0.0
H729 H 0.86715 0.9927 0.94603 0.0
H730 H 0.81099 0.9033 0.96392 0.0
H731 H 0.75715 0.88857 0.95632 0.0
C732 C 0.72823 0.04968 0.35162 0.0
C733 C 0.7531 0.06011 0.38552 0.0
C734 C 0.72936 1.00174 0.42034 0.0
C735 C 0.70546 0.99047 0.38619 0.0
N736 N 0.69207 0.99911 0.31555 0.0
N737 N 0.79047 0.03816 0.44441 0.0
C738 C 0.70842 0.01282 0.35041 0.0
C739 C 0.75766 0.0338 0.41757 0.0
N740 N 0.72166 0.07543 0.32159 0.0
N741 N 0.72437 0.98258 0.45614 0.0
H742 H 0.81406 0.05973 0.44197 0.0
H743 H 0.79755 0.0177 0.46591 0.0
H744 H 0.70559 0.95795 0.45966 0.0
H745 H 0.73657 0.99275 0.48303 0.0
H746 H 0.70028 0.07064 0.29815 0.0
H747 H 0.73455 0.10291 0.32198 0.0
H748 H 0.69637 0.01293 0.28784 0.0
H749 H 0.67838 0.97202 0.31364 0.0
C750 C 0.67821 0.98895 0.07214 0.0
C751 C 0.65981 1.01011 0.10323 0.0
C752 C 0.69699 0.97306 0.1538 0.0
C753 C 0.7122 0.95 0.12297 0.0
N754 N 0.71452 0.93233 0.05376 0.0
N755 N 0.64679 0.02056 0.1734 0.0
C756 C 0.70178 0.95681 0.08235 0.0
C757 C 0.66783 1.00163 0.1441 0.0
N758 N 0.67512 1.00092 0.03309 0.0
N759 N 0.71191 0.96837 0.19191 0.0
H760 H 0.62472 0.04125 0.16682 0.0
H761 H 0.64841 0.0138 0.20388 0.0
H762 H 0.73304 0.94726 0.19968 0.0
H763 H 0.70587 0.98679 0.21506 0.0
H764 H 0.69151 0.98895 0.00924 0.0
H765 H 0.65894 0.025 0.02478 0.0
H766 H 0.70478 0.93369 0.02399 0.0
H767 H 0.73229 0.90873 0.06064 0.0
C768 C 0.2784 0.48786 0.65083 0.0
C769 C 0.28162 0.50677 0.68779 0.0
C770 C 0.32889 0.45604 0.71163 0.0
C771 C 0.33036 0.43995 0.67262 0.0
N772 N 0.31762 0.45307 0.60181 0.0
N773 N 0.31987 0.51278 0.74995 0.0
C774 C 0.30841 0.45952 0.64124 0.0
C775 C 0.31007 0.49205 0.71706 0.0
N776 N 0.24524 0.49501 0.62547 0.0
N777 N 0.34298 0.43647 0.74424 0.0
H778 H 0.30838 0.53967 0.75387 0.0
H779 H 0.34315 0.50509 0.77065 0.0
H780 H 0.35384 0.40921 0.74275 0.0
H781 H 0.33873 0.44558 0.77354 0.0
H782 H 0.23978 0.4796 0.5996 0.0
H783 H 0.22025 0.51267 0.6329 0.0
H784 H 0.3045 0.46878 0.5785 0.0
H785 H 0.34277 0.43644 0.59252 0.0
C786 C 0.16224 0.54588 0.42085 0.0
C787 C 0.15183 0.51456 0.39703 0.0
C788 C 0.20439 0.5382 0.34614 0.0
C789 C 0.22205 0.56396 0.37366 0.0
N790 N 0.21722 0.5922 0.43921 0.0
N791 N 0.17217 0.47607 0.34122 0.0
C792 C 0.20036 0.5685 0.41137 0.0
C793 C 0.17473 0.50961 0.36028 0.0
N794 N 0.136 0.55338 0.45289 0.0
N795 N 0.21926 0.53932 0.30731 0.0
H796 H 0.15646 0.45226 0.35399 0.0
H797 H 0.19072 0.47043 0.31573 0.0
H798 H 0.24136 0.56037 0.29675 0.0
H799 H 0.20631 0.52206 0.28523 0.0
H800 H 0.13935 0.57772 0.46956 0.0
H801 H 0.10834 0.53668 0.46039 0.0
H802 H 0.20547 0.59296 0.46866 0.0
H803 H 0.24429 0.60985 0.43392 0.0
C804 C 0.2639 0.55459 0.84459 0.0
C805 C 0.3032 0.55135 0.86586 0.0
C806 C 0.28014 0.48658 0.88718 0.0
C807 C 0.23941 0.49077 0.86846 0.0
N808 N 0.19094 0.52951 0.83139 0.0
N809 N 0.34615 0.51666 0.91253 0.0
C810 C 0.23097 0.52506 0.84768 0.0
C811 C 0.3106 0.51793 0.88851 0.0
N812 N 0.25831 0.58592 0.82114 0.0
N813 N 0.28982 0.45253 0.90369 0.0
H814 H 0.369 0.5389 0.91427 0.0
H815 H 0.35127 0.49506 0.93322 0.0
H816 H 0.2681 0.42936 0.90405 0.0
H817 H 0.32043 0.44623 0.91418 0.0
H818 H 0.23211 0.58941 0.80234 0.0
H819 H 0.28102 0.60841 0.81941 0.0
H820 H 0.17999 0.55511 0.82086 0.0
H821 H 0.1677 0.50752 0.82967 0.0
C822 C 0.66437 0.71996 1.00514 0.0
C823 C 0.69192 0.75257 1.00312 0.0
C824 C 0.71823 0.73924 0.07087 0.0
C825 C 0.69127 0.70583 0.0729 0.0
N826 N 0.63273 0.66768 0.04427 0.0
N827 N 0.73905 0.79756 0.03481 0.0
C828 C 0.66209 0.69744 0.04101 0.0
C829 C 0.71705 0.76349 0.03635 0.0
N830 N 0.64247 0.70933 0.97155 0.0
N831 N 0.74527 0.74749 0.10192 0.0
H832 H 0.7387 0.81545 0.00962 0.0
H833 H 0.75526 0.80935 0.05895 0.0
H834 H 0.74397 0.73246 0.12916 0.0
H835 H 0.76964 0.76854 0.10067 0.0
H836 H 0.62611 0.68345 0.96863 0.0
H837 H 0.64326 0.72547 0.94505 0.0
H838 H 0.60687 0.6637 0.02486 0.0
H839 H 0.63227 0.64749 0.06718 0.0
C840 C 0.54177 0.36429 0.28226 0.0
C841 C 0.53585 0.37615 0.32243 0.0
C842 C 0.46399 0.39876 0.3043 0.0
C843 C 0.46658 0.38101 0.26627 0.0
N844 N 0.50747 0.34236 0.22157 0.0
N845 N 0.4893 0.40151 0.37292 0.0
C846 C 0.50558 0.36282 0.25579 0.0
C847 C 0.49632 0.39238 0.33378 0.0
N848 N 0.58209 0.35441 0.26937 0.0
N849 N 0.43241 0.42381 0.3116 0.0
H850 H 0.51289 0.39881 0.39486 0.0
H851 H 0.45914 0.40927 0.38401 0.0
H852 H 0.40972 0.4314 0.29039 0.0
H853 H 0.4319 0.44042 0.337 0.0
H854 H 0.58983 0.34928 0.23947 0.0
H855 H 0.60911 0.3552 0.28785 0.0
H856 H 0.53429 0.32725 0.21321 0.0
H857 H 0.48074 0.33726 0.2034 0.0
C858 C 0.89539 0.22591 0.57115 0.0
C859 C 0.85603 0.24521 0.57368 0.0
C860 C 0.8264 0.20759 0.5189 0.0
C861 C 0.86676 0.18994 0.51446 0.0
N862 N 0.9425 0.1879 0.53071 0.0
N863 N 0.78841 0.26114 0.5438 0.0
C864 C 0.90211 0.20062 0.53913 0.0
C865 C 0.82272 0.23799 0.54572 0.0
N866 N 0.92596 0.23138 0.5999 0.0
N867 N 0.79103 0.19425 0.49869 0.0
H868 H 0.78518 0.28386 0.56277 0.0
H869 H 0.76572 0.26013 0.52093 0.0
H870 H 0.7918 0.17068 0.48068 0.0
H871 H 0.76005 0.20425 0.50293 0.0
H872 H 0.95366 0.21565 0.60213 0.0
H873 H 0.92177 0.24975 0.62355 0.0
H874 H 0.9705 0.197 0.54533 0.0
H875 H 0.94864 0.17063 0.50651 0.0
C876 C 0.03265 0.63587 0.8122 0.0
C877 C 1.00088 0.60625 0.81094 0.0
C878 C 0.04199 0.57892 0.75538 0.0
C879 C 0.06958 0.61175 0.7528 0.0
N880 N 0.08055 0.67673 0.77256 0.0
N881 N 0.97033 0.55402 0.77384 0.0
C882 C 0.06179 0.64179 0.77936 0.0
C883 C 1.00407 0.57886 0.78051 0.0
N884 N 0.03585 0.65804 0.84515 0.0
N885 N 0.05242 0.54725 0.73552 0.0
H886 H 0.94128 0.55388 0.79011 0.0
H887 H 0.96961 0.53644 0.74918 0.0
H888 H 0.08074 0.54518 0.71831 0.0
H889 H 0.03498 0.5218 0.73971 0.0
H890 H 0.0611 0.67803 0.84857 0.0
H891 H 0.01659 0.65337 0.87097 0.0
H892 H 0.07243 0.69997 0.78929 0.0
H893 H 0.09977 0.68368 0.74742 0.0
C894 C 0.66034 0.24433 0.4812 0.0
C895 C 0.66804 0.23523 0.44043 0.0
C896 C 0.67281 0.1694 0.46109 0.0
C897 C 0.67279 0.17956 0.50213 0.0
N898 N 0.68191 0.23044 0.54884 0.0
N899 N 0.69478 0.18989 0.39406 0.0
C900 C 0.67094 0.21816 0.51169 0.0
C901 C 0.67838 0.19796 0.43105 0.0
N902 N 0.64091 0.27675 0.4911 0.0
N903 N 0.66516 0.13301 0.45045 0.0
H904 H 0.70245 0.21068 0.37233 0.0
H905 H 0.7056 0.16335 0.3871 0.0
H906 H 0.6558 0.11187 0.47124 0.0
H907 H 0.66241 0.12508 0.42058 0.0
H908 H 0.63256 0.28288 0.52068 0.0
H909 H 0.62788 0.29465 0.4697 0.0
H910 H 0.68354 0.2589 0.55573 0.0
H911 H 0.69533 0.21303 0.57048 0.0
C912 C 0.98367 0.40643 0.78024 0.0
C913 C 0.02471 0.42573 0.77715 0.0
C914 C 0.01314 0.43677 0.70469 0.0
C915 C 0.9726 0.41603 0.70734 0.0
N916 N 0.92377 0.37459 0.74707 0.0
N917 N 0.08151 0.45517 0.73626 0.0
C918 C 0.95937 0.39872 0.74488 0.0
C919 C 0.04037 0.4395 0.73918 0.0
N920 N 0.96715 0.39658 0.81743 0.0
N921 N 0.02538 0.45431 0.6692 0.0
H922 H 0.10106 0.45906 0.76126 0.0
H923 H 0.09719 0.46254 0.70916 0.0
H924 H 1.00819 0.45059 0.64275 0.0
H925 H 0.05147 0.47366 0.66618 0.0
H926 H 0.93522 0.38679 0.82269 0.0
H927 H 0.98457 0.40076 0.84367 0.0
H928 H 0.91573 0.35785 0.77228 0.0
H929 H 0.90401 0.36853 0.72285 0.0
C930 C 0.88669 0.81731 0.9469 0.0
C931 C 0.89315 0.7786 0.95496 0.0
C932 C 0.89068 0.79129 0.02708 0.0
C933 C 0.89254 0.83055 0.01881 0.0
N934 N 0.8959 0.88134 0.96995 0.0
N935 N 0.91175 0.73088 1.00351 0.0
C936 C 0.89145 0.84374 0.97838 0.0
C937 C 0.89761 0.76601 0.99533 0.0
N938 N 0.87477 0.82859 0.9094 0.0
N939 N 0.88171 0.77798 0.06513 0.0
H940 H 0.92174 0.71306 0.98105 0.0
H941 H 0.91896 0.72156 0.03243 0.0
H942 H 0.87363 0.79564 0.08842 0.0
H943 H 0.87679 0.74945 0.07208 0.0
H944 H 0.866 0.8559 0.90242 0.0
H945 H 0.86926 0.80962 0.88639 0.0
H946 H 0.89994 0.89237 0.94085 0.0
H947 H 0.89827 0.90132 0.99238 0.0
C948 C 0.48691 0.57402 0.29716 0.0
C949 C 0.46818 0.60969 0.30096 0.0
C950 C 0.51289 0.63422 0.24372 0.0
C951 C 0.52666 0.59764 0.23662 0.0
N952 N 0.52806 0.53236 0.25487 0.0
N953 N 0.46044 0.67311 0.27487 0.0
C954 C 0.51446 0.56746 0.26323 0.0
C955 C 0.48073 0.6397 0.27363 0.0
N956 N 0.47747 0.54632 0.32526 0.0
N957 N 0.531 0.66389 0.22187 0.0
H958 H 0.43865 0.67953 0.29752 0.0
H959 H 0.46351 0.69381 0.25235 0.0
H960 H 0.55393 0.66066 0.19892 0.0
H961 H 0.52633 0.69186 0.22877 0.0
H962 H 0.49242 0.52061 0.3261 0.0
H963 H 0.45638 0.54986 0.34958 0.0
H964 H 0.51732 0.50802 0.27036 0.0
H965 H 0.54891 0.52744 0.23066 0.0
C966 C 0.79435 1.00052 0.64233 0.0
C967 C 0.81683 0.98276 0.67425 0.0
C968 C 0.78533 0.03017 0.71904 0.0
C969 C 0.76881 0.05078 0.68552 0.0
N970 N 0.77559 0.06042 0.6141 0.0
N971 N 0.83772 0.98547 0.74339 0.0
C972 C 0.77789 0.03712 0.64682 0.0
C973 C 0.81308 0.99877 0.71291 0.0
N974 N 0.78841 0.98241 0.60719 0.0
N975 N 0.77457 0.04039 0.75701 0.0
H976 H 0.85692 0.96218 0.74025 0.0
H977 H 0.84131 0.99893 0.77069 0.0
H978 H 0.75384 0.06217 0.76297 0.0
H979 H 0.78292 0.02485 0.78227 0.0
H980 H 0.77022 0.99326 0.58377 0.0
H981 H 0.79588 0.95447 0.60447 0.0
H982 H 0.78592 0.05278 0.58551 0.0
H983 H 0.76854 0.08871 0.61656 0.0
C984 C 0.10197 0.49357 0.18772 0.0
C985 C 0.11412 0.53106 0.19778 0.0
C986 C 0.10278 0.51526 0.26845 0.0
C987 C 0.09363 0.47672 0.26006 0.0
N988 N 0.09241 0.42818 0.21057 0.0
N989 N 0.14457 0.57123 0.24826 0.0
C990 C 0.09655 0.46538 0.21926 0.0
C991 C 0.12227 0.53897 0.2384 0.0
N992 N 0.0932 0.48534 0.14881 0.0
N993 N 0.08731 0.53123 0.3024 0.0
H994 H 0.15922 0.58921 0.22647 0.0
H995 H 0.15182 0.57782 0.27784 0.0
H996 H 0.06088 0.51951 0.31846 0.0
H997 H 0.09316 0.55946 0.30892 0.0
H998 H 0.07956 0.45962 0.14013 0.0
H999 H 0.0978 0.50514 0.12549 0.0
H1000 H 0.09734 0.41798 0.18182 0.0
H1001 H 0.08755 0.4074 0.23287 0.0
C1002 C 0.77242 0.884 0.56792 0.0
C1003 C 0.80824 0.87534 0.5427 0.0
C1004 C 0.75643 0.86111 0.4897 0.0
C1005 C 0.72255 0.87805 0.5118 0.0
N1006 N 0.70476 0.91581 0.56912 0.0
N1007 N 0.83381 0.86277 0.47565 0.0
C1008 C 0.73218 0.89238 0.55026 0.0
C1009 C 0.80015 0.86595 0.50234 0.0
N1010 N 0.77583 0.88256 0.60868 0.0
N1011 N 0.74691 0.83877 0.45801 0.0
H1012 H 0.86613 0.86821 0.48329 0.0
H1013 H 0.829 0.85882 0.44507 0.0
H1014 H 0.71504 0.83099 0.45072 0.0
H1015 H 0.77054 0.8241 0.44272 0.0
H1016 H 0.74934 0.88657 0.62787 0.0
H1017 H 0.80337 0.87298 0.62289 0.0
H1018 H 0.71243 0.92831 0.5963 0.0
H1019 H 0.67772 0.92668 0.55529 0.0
C1020 C 0.45251 0.495 0.80513 0.0
C1021 C 0.48011 0.52731 0.80964 0.0
C1022 C 0.51588 0.51479 0.74508 0.0
C1023 C 0.49224 0.48 0.74343 0.0
N1024 N 0.44421 0.43343 0.77644 0.0
N1025 N 0.5402 0.56709 0.78592 0.0
C1026 C 0.46203 0.46913 0.77464 0.0
C1027 C 0.51229 0.53711 0.77997 0.0
N1028 N 0.41641 0.48969 0.82925 0.0
N1029 N 0.54101 0.52665 0.7128 0.0
H1030 H 0.53812 0.58377 0.81123 0.0
H1031 H 0.56709 0.5738 0.76744 0.0
H1032 H 0.54396 0.51067 0.68703 0.0
H1033 H 0.55605 0.55327 0.71025 0.0
H1034 H 0.39283 0.46845 0.82502 0.0
H1035 H 0.40772 0.50894 0.85083 0.0
H1036 H 0.42504 0.42306 0.80056 0.0
H1037 H 0.45229 0.41288 0.75609 0.0
C1038 C 0.82191 0.17714 0.98954 0.0
C1039 C 0.8091 0.1756 0.94856 0.0
C1040 C 0.73341 0.16273 0.97167 0.0
C1041 C 0.746 0.16809 0.01217 0.0
N1042 N 0.8005 0.18985 0.0581 0.0
N1043 N 0.75068 0.17451 0.90109 0.0
C1044 C 0.78968 0.17848 0.0205 0.0
C1045 C 0.7642 0.17071 0.93977 0.0
N1046 N 0.86454 0.17417 0.9996 0.0
N1047 N 0.6929 0.14805 0.96355 0.0
H1048 H 0.77199 0.18128 0.87714 0.0
H1049 H 0.71801 0.17477 0.89338 0.0
H1050 H 0.66949 0.14125 0.98574 0.0
H1051 H 0.68383 0.13947 0.93506 0.0
H1052 H 0.87465 0.17141 0.02919 0.0
H1053 H 0.88926 0.16963 0.97882 0.0
H1054 H 0.83112 0.20135 0.06481 0.0
H1055 H 0.77759 0.19151 0.0814 0.0
C1056 C 0.1983 0.12384 0.42918 0.0
C1057 C 0.22928 0.15322 0.43631 0.0
C1058 C 0.20254 0.15658 0.50614 0.0
C1059 C 0.16769 0.13037 0.4976 0.0
N1060 N 0.13233 0.08905 0.45077 0.0
N1061 N 0.25961 0.1999 0.47965 0.0
C1062 C 0.16569 0.11398 0.45899 0.0
C1063 C 0.23123 0.16998 0.47443 0.0
N1064 N 0.20121 0.10458 0.39426 0.0
N1065 N 0.20855 0.16876 0.54438 0.0
H1066 H 0.28057 0.21045 0.45686 0.0
H1067 H 0.26026 0.21627 0.50517 0.0
H1068 H 0.18846 0.16078 0.56858 0.0
H1069 H 0.23583 0.18446 0.55319 0.0
H1070 H 0.18273 0.0803 0.38839 0.0
H1071 H 0.22473 0.11142 0.37211 0.0
H1072 H 0.12557 0.07965 0.42206 0.0
H1073 H 0.11022 0.07861 0.4727 0.0
C1074 C 0.16296 0.01634 0.71374 0.0
C1075 C 0.16573 0.05351 0.72838 0.0
C1076 C 0.1804 0.02808 0.79591 0.0
C1077 C 0.17446 0.99088 0.7819 0.0
N1078 N 0.14869 0.95026 0.72979 0.0
N1079 N 0.16801 0.09444 0.78475 0.0
C1080 C 0.16271 0.98515 0.74135 0.0
C1081 C 0.17183 0.05924 0.76995 0.0
N1082 N 0.16211 1.01075 0.67333 0.0
N1083 N 0.19591 0.03364 0.83358 0.0
H1084 H 0.16098 0.11749 0.76649 0.0
H1085 H 0.16771 0.10005 0.81533 0.0
H1086 H 0.20369 1.01149 0.85277 0.0
H1087 H 0.20485 0.06003 0.84432 0.0
H1088 H 0.16426 0.98434 0.66071 0.0
H1089 H 0.16345 0.03284 0.65229 0.0
H1090 H 0.13537 0.94506 0.70179 0.0
H1091 H 0.14581 0.92734 0.74975 0.0
C1092 C 0.26586 0.89519 0.04067 0.0
C1093 C 0.24757 0.91077 0.0756 0.0
C1094 C 0.18468 0.92934 0.03595 0.0
C1095 C 0.20214 0.91099 1.00209 0.0
N1096 N 0.25101 0.8643 0.97855 0.0
N1097 N 0.18604 0.93733 0.10842 0.0
C1098 C 0.23995 0.88995 1.00654 0.0
C1099 C 0.20562 0.92598 0.07389 0.0
N1100 N 0.30915 0.88865 0.03815 0.0
N1101 N 0.14979 0.95154 0.03154 0.0
H1102 H 0.20089 0.93533 0.13631 0.0
H1103 H 0.15394 0.94555 0.10992 0.0
H1104 H 0.13403 0.95494 1.00432 0.0
H1105 H 0.13851 0.96875 0.05406 0.0
H1106 H 0.32427 0.88381 0.01059 0.0
H1107 H 0.33049 0.89331 0.06161 0.0
H1108 H 0.27693 0.84658 0.98242 0.0
H1109 H 0.23136 0.85769 0.95424 0.0
C1110 C 0.32425 0.07178 0.26755 0.0
C1111 C 0.35569 0.07244 0.29861 0.0
C1112 C 0.3768 1.01057 0.27592 0.0
C1113 C 0.35725 0.01743 0.23841 0.0
N1114 N 0.30856 0.05388 0.1994 0.0
N1115 N 0.41131 0.03791 0.33341 0.0
C1116 C 0.32986 0.04798 0.23442 0.0
C1117 C 0.38166 0.0404 0.30355 0.0
N1118 N 0.28767 0.09211 0.27093 0.0
N1119 N 0.38803 0.97518 0.2864 0.0
H1120 H 0.41428 0.05661 0.35676 0.0
H1121 H 0.4341 0.01697 0.3342 0.0
H1122 H 0.38274 0.95251 0.26767 0.0
H1123 H 0.39821 0.96796 0.31516 0.0
H1124 H 0.26256 0.09058 0.25032 0.0
H1125 H 0.27989 0.10616 0.29717 0.0
H1126 H 0.29142 0.07806 0.19367 0.0
H1127 H 0.31004 0.03542 0.17551 0.0
C1128 C 0.55133 0.28936 0.03493 0.0
C1129 C 0.52208 0.2577 0.03693 0.0
C1130 C 0.46182 0.29815 0.05149 0.0
C1131 C 0.49192 0.32905 0.05453 0.0
N1132 N 0.56545 0.35414 0.05351 0.0
N1133 N 0.45097 0.23031 0.05115 0.0
C1134 C 0.53676 0.32481 0.04695 0.0
C1135 C 0.47754 0.26166 0.04593 0.0
N1136 N 0.59303 0.28518 0.02159 0.0
N1137 N 0.41827 0.30404 0.05358 0.0
H1138 H 0.46185 0.20328 0.04676 0.0
H1139 H 0.41918 0.23089 0.06225 0.0
H1140 H 0.40607 0.33077 0.05684 0.0
H1141 H 0.39446 0.28323 0.04844 0.0
H1142 H 0.61521 0.30759 0.01626 0.0
H1143 H 0.60423 0.25935 0.01249 0.0
H1144 H 0.59908 0.3518 0.05287 0.0
H1145 H 0.55546 0.38042 0.06241 0.0
C1146 C 0.07122 0.22759 0.90077 0.0
C1147 C 0.02547 0.22819 0.89544 0.0
C1148 C 0.03356 0.29517 0.87686 0.0
C1149 C 0.07768 0.29623 0.88889 0.0
N1150 N 0.13811 0.26307 0.91521 0.0
N1151 N 0.96233 0.26524 0.88593 0.0
C1152 C 0.09664 0.26221 0.90126 0.0
C1153 C 1.00648 0.26266 0.88513 0.0
N1154 N 0.09044 0.19384 0.90443 0.0
N1155 N 0.01749 0.32531 0.85695 0.0
H1156 H 0.94135 0.24288 0.89458 0.0
H1157 H 0.94685 0.29062 0.88261 0.0
H1158 H 0.03674 0.34916 0.84957 0.0
H1159 H 0.98697 0.32465 0.84381 0.0
H1160 H 0.12402 0.19112 0.90476 0.0
H1161 H 0.07275 0.16832 0.9033 0.0
H1162 H 0.15202 0.24002 0.92896 0.0
H1163 H 0.1577 0.2876 0.91522 0.0
C1164 C 0.97664 0.71465 0.20233 0.0
C1165 C 0.01282 0.7213 0.17612 0.0
C1166 C 0.99674 0.78778 0.17337 0.0
C1167 C 0.95531 0.779 0.19103 0.0
N1168 N 0.90324 0.73185 0.21717 0.0
N1169 N 0.05559 0.76474 0.13323 0.0
C1170 C 0.94466 0.74196 0.20494 0.0
C1171 C 0.0231 0.75818 0.16116 0.0
N1172 N 0.97248 0.68159 0.22366 0.0
N1173 N 1.01049 0.82444 0.16806 0.0
H1174 H 0.07541 0.74396 0.12271 0.0
H1175 H 0.06062 0.79047 0.1181 0.0
H1176 H 0.99208 0.84654 0.17808 0.0
H1177 H 0.04176 0.83251 0.15796 0.0
H1178 H 0.94819 0.67625 0.24543 0.0
H1179 H 0.99626 0.66146 0.22243 0.0
H1180 H 0.89322 0.70409 0.22371 0.0
H1181 H 0.87779 0.75029 0.21685 0.0
C1182 C 0.51425 0.74251 0.36239 0.0
C1183 C 0.47423 0.75374 0.37925 0.0
C1184 C 0.51175 0.80792 0.40904 0.0
C1185 C 0.55108 0.79887 0.38876 0.0
N1186 N 0.58839 0.76045 0.34172 0.0
N1187 N 0.43323 0.79872 0.4147 0.0
C1188 C 0.55187 0.76705 0.36394 0.0
C1189 C 0.47262 0.7869 0.40154 0.0
N1190 N 0.51663 0.70761 0.3466 0.0
N1191 N 0.5118 0.83642 0.43583 0.0
H1192 H 0.40428 0.78319 0.41054 0.0
H1193 H 0.42878 0.82496 0.42704 0.0
H1194 H 0.53854 0.85462 0.43957 0.0
H1195 H 0.48595 0.84117 0.45541 0.0
H1196 H 0.5455 0.69628 0.33667 0.0
H1197 H 0.4902 0.6885 0.34737 0.0
H1198 H 0.58954 0.73994 0.31991 0.0
H1199 H 0.61667 0.77747 0.34296 0.0
C1200 C 0.06959 0.77537 0.70631 0.0
C1201 C 0.07469 0.74969 0.67444 0.0
C1202 C 1.00552 0.77284 0.64674 0.0
C1203 C 1.00507 0.80296 0.67425 0.0
N1204 N 0.04086 0.83393 0.72891 0.0
N1205 N 0.04864 0.72799 0.61078 0.0
C1206 C 0.03819 0.80424 0.70378 0.0
C1207 C 0.04255 0.74917 0.64395 0.0
N1208 N 0.09388 0.77156 0.73997 0.0
N1209 N 0.97017 0.76667 0.62328 0.0
H1210 H 0.07606 0.71217 0.60652 0.0
H1211 H 0.02886 0.72916 0.58574 0.0
H1212 H 0.94226 0.78213 0.62656 0.0
H1213 H 0.9665 0.74365 0.60466 0.0
H1214 H 0.08873 0.78675 0.76592 0.0
H1215 H 0.11597 0.75035 0.7436 0.0
H1216 H 0.06744 0.83949 0.74716 0.0
H1217 H 0.01738 0.85407 0.72981 0.0
C1218 C 0.94944 0.27787 0.35105 0.0
C1219 C 0.92806 0.31188 0.34471 0.0
C1220 C 0.85879 0.27668 0.33795 0.0
C1221 C 0.87942 0.24294 0.34873 0.0
N1222 N 0.9431 0.21483 0.37775 0.0
N1223 N 0.86218 0.34496 0.33815 0.0
C1224 C 0.92437 0.2444 0.35883 0.0
C1225 C 0.88252 0.31162 0.34025 0.0
N1226 N 0.99372 0.27705 0.34794 0.0
N1227 N 0.81751 0.27529 0.32341 0.0
H1228 H 0.8793 0.37077 0.33934 0.0
H1229 H 0.82849 0.3469 0.33885 0.0
H1230 H 0.79975 0.25019 0.31937 0.0
H1231 H 0.80254 0.2987 0.31158 0.0
H1232 H 1.01039 0.25209 0.34804 0.0
H1233 H 0.01357 0.30083 0.34161 0.0
H1234 H 0.97438 0.21672 0.38931 0.0
H1235 H 0.92639 0.19002 0.38631 0.0
C1236 C 0.48307 0.74254 0.83991 0.0
C1237 C 0.45167 0.74152 0.87182 0.0
C1238 C 0.49946 0.78493 0.90961 0.0
C1239 C 0.53087 0.78582 0.87801 0.0
N1240 N 0.5451 0.77574 0.8077 0.0
N1241 N 0.42308 0.77843 0.92614 0.0
C1242 C 0.52038 0.76768 0.84147 0.0
C1243 C 0.45752 0.7678 0.90336 0.0
N1244 N 0.47707 0.7199 0.80772 0.0
N1245 N 0.50975 0.79883 0.94632 0.0
H1246 H 0.39097 0.77189 0.91901 0.0
H1247 H 0.42603 0.79937 0.94744 0.0
H1248 H 0.54009 0.8111 0.9526 0.0
H1249 H 0.48929 0.7949 0.97146 0.0
H1250 H 0.50144 0.71522 0.78652 0.0
H1251 H 0.44778 0.70517 0.80273 0.0
H1252 H 0.53717 0.76605 0.77935 0.0
H1253 H 0.5709 0.79563 0.80715 0.0
C1254 C 0.61193 0.91323 0.7212 0.0
C1255 C 0.6455 0.91628 0.7496 0.0
C1256 C 0.65322 0.98386 0.73638 0.0
C1257 C 0.62227 0.98038 0.70544 0.0
N1258 N 0.57593 0.9419 0.66457 0.0
N1259 N 0.7036 0.95223 0.77945 0.0
C1260 C 0.60276 0.94499 0.69667 0.0
C1261 C 0.66801 0.95098 0.75549 0.0
N1262 N 0.58766 0.88049 0.71914 0.0
N1263 N 0.66629 0.01861 0.74922 0.0
H1264 H 0.71512 0.92829 0.79366 0.0
H1265 H 0.72374 0.97612 0.78234 0.0
H1266 H 0.65464 0.04344 0.73718 0.0
H1267 H 0.68489 0.02268 0.77471 0.0
H1268 H 0.55967 0.87758 0.70216 0.0
H1269 H 0.59408 0.8568 0.7367 0.0
H1270 H 0.56358 0.91631 0.65425 0.0
H1271 H 0.56863 0.96498 0.64644 0.0
C1272 C 0.26002 0.42205 0.02967 0.0
C1273 C 0.22036 0.40059 0.03351 0.0
C1274 C 0.24346 0.37658 0.09965 0.0
C1275 C 0.28401 0.39674 0.09497 0.0
N1276 N 0.33432 0.43222 0.0513 0.0
N1277 N 0.1778 0.35186 0.06805 0.0
C1278 C 0.29339 0.41723 0.05847 0.0
C1279 C 0.21317 0.37618 0.06738 0.0
N1280 N 0.26472 0.44888 0.99987 0.0
N1281 N 0.2335 0.35844 0.13531 0.0
H1282 H 0.15573 0.35073 0.0446 0.0
H1283 H 0.1724 0.33078 0.08985 0.0
H1284 H 0.25567 0.35674 0.15861 0.0
H1285 H 0.20274 0.34686 0.14257 0.0
H1286 H 0.29085 0.46831 0.9978 0.0
H1287 H 0.24036 0.4541 0.97932 0.0
H1288 H 0.34456 0.44411 0.02376 0.0
H1289 H 0.35918 0.42974 0.07187 0.0
C1290 C 0.87752 0.9973 0.26404 0.0
C1291 C 0.91043 0.02624 0.26384 0.0
C1292 C 0.94116 1.00224 0.20109 0.0
C1293 C 0.90783 0.97364 0.20089 0.0
N1294 N 0.83892 0.9487 0.22722 0.0
N1295 N 0.96752 0.06149 0.22862 0.0
C1296 C 0.87414 0.97287 0.23073 0.0
C1297 C 0.94044 0.03026 0.23118 0.0
N1298 N 0.85105 0.99191 0.29717 0.0
N1299 N 0.97411 1.00198 0.17315 0.0
H1300 H 0.96721 0.08239 0.25013 0.0
H1301 H 0.98751 0.06824 0.20381 0.0
H1302 H 0.97435 0.98295 0.14972 0.0
H1303 H 1.00206 0.0193 0.17423 0.0
H1304 H 0.82931 0.969 0.30126 0.0
H1305 H 0.85334 1.00877 0.32234 0.0
H1306 H 0.81123 0.94929 0.24556 0.0
H1307 H 0.83566 0.93016 0.20358 0.0
C1308 C 0.26206 0.66858 0.54872 0.0
C1309 C 0.24497 0.63323 0.56313 0.0
C1310 C 0.28842 0.60207 0.51134 0.0
C1311 C 0.30803 0.63751 0.49943 0.0
N1312 N 0.3207 0.70303 0.51328 0.0
N1313 N 0.24416 0.56567 0.56032 0.0
C1314 C 0.2969 0.67028 0.52016 0.0
C1315 C 0.25875 0.59974 0.545 0.0
N1316 N 0.24391 0.70078 0.56158 0.0
N1317 N 0.29615 0.57098 0.48929 0.0
H1318 H 0.21992 0.56286 0.58245 0.0
H1319 H 0.25727 0.54031 0.55232 0.0
H1320 H 0.31769 0.57122 0.46485 0.0
H1321 H 0.27883 0.54547 0.49318 0.0
H1322 H 0.25199 0.7273 0.5493 0.0
H1323 H 0.21734 0.70051 0.58149 0.0
H1324 H 0.31698 0.72704 0.53016 0.0
H1325 H 0.34747 0.70491 0.49357 0.0
C1326 C 0.79494 0.55723 0.01629 0.0
C1327 C 0.75573 0.57655 0.01339 0.0
C1328 C 0.78954 0.62099 0.9645 0.0
C1329 C 0.83006 0.60371 0.96982 0.0
N1330 N 0.87269 0.55658 1.00141 0.0
N1331 N 0.71654 0.62946 0.98969 0.0
C1332 C 0.83315 0.57195 0.99581 0.0
C1333 C 0.75314 0.6089 0.98846 0.0
N1334 N 0.79512 0.52496 0.0391 0.0
N1335 N 0.78567 0.6489 0.93624 0.0
H1336 H 0.68852 0.62079 1.00576 0.0
H1337 H 0.71474 0.65627 0.97697 0.0
H1338 H 0.81176 0.65958 0.91892 0.0
H1339 H 0.75609 0.65947 0.92754 0.0
H1340 H 0.82148 0.50762 0.0411 0.0
H1341 H 0.76728 0.51424 0.05432 0.0
H1342 H 0.8783 0.53532 0.02234 0.0
H1343 H 0.90083 0.56643 0.9861 0.0
C1344 C 0.74702 0.49565 0.26999 0.0
C1345 C 0.71923 0.46537 0.25828 0.0
C1346 C 0.68893 0.50458 0.2055 0.0
C1347 C 0.72034 0.53353 0.21412 0.0
N1348 N 0.78053 0.55684 0.25282 0.0
N1349 N 0.66595 0.43893 0.21415 0.0
C1350 C 0.74965 0.52922 0.24607 0.0
C1351 C 0.69049 0.46941 0.226 0.0
N1352 N 0.76969 0.4925 0.30473 0.0
N1353 N 0.65753 0.51081 0.17782 0.0
H1354 H 0.66673 0.41275 0.22869 0.0
H1355 H 0.64742 0.43855 0.18829 0.0
H1356 H 0.65636 0.53558 0.16088 0.0
H1357 H 0.63075 0.49268 0.17362 0.0
H1358 H 0.78731 0.51471 0.31731 0.0
H1359 H 0.76823 0.46812 0.32266 0.0
H1360 H 0.80598 0.55382 0.2727 0.0
H1361 H 0.7819 0.58241 0.23689 0.0
C1362 C 0.77611 0.44049 0.52425 0.0
C1363 C 0.81382 0.41808 0.52258 0.0
C1364 C 0.78004 0.38245 0.46723 0.0
C1365 C 0.7405 0.40123 0.47315 0.0
N1366 N 0.69965 0.44657 0.50863 0.0
N1367 N 0.85108 0.36712 0.4922 0.0
C1368 C 0.73839 0.42995 0.50183 0.0
C1369 C 0.81554 0.38901 0.4938 0.0
N1370 N 0.77577 0.47201 0.547 0.0
N1371 N 0.78398 0.35859 0.43581 0.0
H1372 H 0.87964 0.37343 0.50753 0.0
H1373 H 0.85181 0.34193 0.47691 0.0
H1374 H 0.75884 0.35256 0.4161 0.0
H1375 H 0.81316 0.34706 0.42705 0.0
H1376 H 0.75183 0.49182 0.54498 0.0
H1377 H 0.80061 0.48058 0.56579 0.0
H1378 H 0.6937 0.46367 0.53295 0.0
H1379 H 0.6722 0.44129 0.49133 0.0
C1380 C 0.84289 0.5279 0.78202 0.0
C1381 C 0.8132 0.55656 0.77423 0.0
C1382 C 0.77402 0.51246 0.73174 0.0
C1383 C 0.81069 0.48937 0.72912 0.0
N1384 N 0.88592 0.48235 0.74964 0.0
N1385 N 0.7531 0.57682 0.73441 0.0
C1386 C 0.84686 0.49861 0.75402 0.0
C1387 C 0.77928 0.54909 0.74707 0.0
N1388 N 0.86608 0.52775 0.81653 0.0
N1389 N 0.7338 0.49906 0.72129 0.0
H1390 H 0.75816 0.60482 0.74219 0.0
H1391 H 0.72972 0.57237 0.71248 0.0
H1392 H 0.72782 0.47089 0.71442 0.0
H1393 H 0.70602 0.51467 0.72485 0.0
H1394 H 0.8859 0.50574 0.82443 0.0
H1395 H 0.86113 0.5471 0.83911 0.0
H1396 H 0.91257 0.48932 0.7673 0.0
H1397 H 0.89389 0.46679 0.72495 0.0
C1398 C 0.5784 0.2401 0.65623 0.0
C1399 C 0.57715 0.21032 0.68551 0.0
C1400 C 0.50709 0.23364 0.71177 0.0
C1401 C 0.50928 0.26446 0.68372 0.0
N1402 N 0.54972 0.29887 0.63131 0.0
N1403 N 0.54212 0.18071 0.74364 0.0
C1404 C 0.54583 0.2682 0.65665 0.0
C1405 C 0.54197 0.2078 0.71397 0.0
N1406 N 0.61058 0.24119 0.6274 0.0
N1407 N 0.47105 0.22872 0.73613 0.0
H1408 H 0.56522 0.16004 0.74482 0.0
H1409 H 0.52094 0.17969 0.76832 0.0
H1410 H 0.44676 0.24831 0.73771 0.0
H1411 H 0.464 0.20459 0.75349 0.0
H1412 H 0.61088 0.25867 0.60199 0.0
H1413 H 0.63619 0.22284 0.62762 0.0
H1414 H 0.57748 0.30599 0.61417 0.0
H1415 H 0.52615 0.31897 0.62901 0.0
loop_
_geom_bond_atom_site_label_1
_geom_bond_atom_site_label_2
_geom_bond_distance
_geom_bond_site_symmetry_2
_ccdc_geom_bond_type
Cu0 N1 1.999 . S
Cu0 O6 1.974 . S
Cu0 N11 1.985 . S
Cu0 O20 1.959 . S
N1 Cu0 1.999 . S
N1 C3 1.263 . S
N1 C5 1.389 . S
N2 C3 1.353 1_655 S
N2 C4 1.398 1_655 S
C3 N1 1.263 . S
C3 N2 1.353 1_455 S
C3 H9 0.930 . S
C4 N2 1.398 1_455 S
C4 C5 1.351 . S
C4 H21 0.930 . S
C5 N1 1.389 . S
C5 C4 1.351 . S
C5 H10 0.930 . S
O6 Cu0 1.974 . S
O6 C16 1.282 . S
C7 O8 1.261 . S
C7 O20 1.251 . S
O8 C7 1.261 . S
H9 C3 0.930 . S
H10 C5 0.930 . S
N11 Cu0 1.985 . S
N11 C13 1.335 . S
N11 C14 1.390 . S
N12 C13 1.345 . S
N12 C15 1.336 . S
C13 N11 1.335 . S
C13 N12 1.345 . S
C13 H18 0.930 . S
C14 N11 1.390 . S
C14 C15 1.346 . S
C14 H19 0.930 . S
C15 N12 1.336 . S
C15 C14 1.346 . S
C15 H22 0.929 . S
C16 O6 1.282 . S
C16 O17 1.216 . S
O17 C16 1.216 . S
H18 C13 0.930 . S
H19 C14 0.930 . S
O20 Cu0 1.959 . S
O20 C7 1.251 . S
H21 C4 0.930 . S
H22 C15 0.929 . S
Cu23 N24 1.999 . S
Cu23 O29 1.974 . S
Cu23 N34 1.985 . S
Cu23 O43 1.959 . S
N24 Cu23 1.999 . S
N24 C26 1.263 . S
N24 C28 1.389 . S
N25 C26 1.358 . S
N25 C27 1.400 . S
C26 N24 1.263 . S
C26 N25 1.358 . S
C26 H32 0.930 . S
C27 N25 1.400 . S
C27 C28 1.351 . S
C27 H44 0.930 . S
C28 N24 1.389 . S
C28 C27 1.351 . S
C28 H33 0.930 . S
O29 Cu23 1.974 . S
O29 C39 1.282 . S
C30 O31 1.261 . S
C30 O43 1.251 . S
O31 C30 1.261 . S
H32 C26 0.930 . S
H33 C28 0.930 . S
N34 Cu23 1.985 . S
N34 C36 1.335 . S
N34 C37 1.390 . S
N35 C36 1.345 . S
N35 C38 1.336 . S
C36 N34 1.335 . S
C36 N35 1.345 . S
C36 H41 0.930 . S
C37 N34 1.390 . S
C37 C38 1.346 . S
C37 H42 0.930 . S
C38 N35 1.336 . S
C38 C37 1.346 . S
C38 H45 0.929 . S
C39 O29 1.282 . S
C39 O40 1.216 . S
O40 C39 1.216 . S
H41 C36 0.930 . S
H42 C37 0.930 . S
O43 Cu23 1.959 . S
O43 C30 1.251 . S
H44 C27 0.930 . S
H45 C38 0.929 . S
Cu46 N47 1.999 . S
Cu46 O52 1.974 . S
Cu46 N57 1.985 . S
Cu46 O66 1.959 . S
N47 Cu46 1.999 . S
N47 C49 1.263 . S
N47 C51 1.389 . S
N48 C49 1.358 . S
N48 C50 1.400 . S
C49 N47 1.263 . S
C49 N48 1.358 . S
C49 H55 0.930 . S
C50 N48 1.400 . S
C50 C51 1.351 . S
C50 H67 0.930 . S
C51 N47 1.389 . S
C51 C50 1.351 . S
C51 H56 0.930 . S
O52 Cu46 1.974 . S
O52 C62 1.282 . S
C53 O54 1.261 . S
C53 O66 1.251 . S
O54 C53 1.261 . S
H55 C49 0.930 . S
H56 C51 0.930 . S
N57 Cu46 1.985 . S
N57 C59 1.335 . S
N57 C60 1.390 . S
N58 C59 1.345 . S
N58 C61 1.336 . S
C59 N57 1.335 . S
C59 N58 1.345 . S
C59 H64 0.930 . S
C60 N57 1.390 . S
C60 C61 1.346 . S
C60 H65 0.930 . S
C61 N58 1.336 . S
C61 C60 1.346 . S
C61 H68 0.929 . S
C62 O52 1.282 . S
C62 O63 1.216 . S
O63 C62 1.216 . S
H64 C59 0.930 . S
H65 C60 0.930 . S
O66 Cu46 1.959 . S
O66 C53 1.251 . S
H67 C50 0.930 . S
H68 C61 0.929 . S
Cu69 N70 1.999 . S
Cu69 O75 1.974 . S
Cu69 N80 1.985 . S
Cu69 O89 1.959 . S
N70 Cu69 1.999 . S
N70 C72 1.263 . S
N70 C74 1.389 . S
N71 C72 1.358 . S
N71 C73 1.400 . S
C72 N70 1.263 . S
C72 N71 1.358 . S
C72 H78 0.930 . S
C73 N71 1.400 . S
C73 C74 1.351 . S
C73 H90 0.930 . S
C74 N70 1.389 . S
C74 C73 1.351 . S
C74 H79 0.930 . S
O75 Cu69 1.974 . S
O75 C85 1.282 . S
C76 O77 1.261 . S
C76 O89 1.251 . S
O77 C76 1.261 . S
H78 C72 0.930 . S
H79 C74 0.930 . S
N80 Cu69 1.985 . S
N80 C82 1.335 . S
N80 C83 1.390 . S
N81 C82 1.345 . S
N81 C84 1.336 . S
C82 N80 1.335 . S
C82 N81 1.345 . S
C82 H87 0.930 . S
C83 N80 1.390 . S
C83 C84 1.346 . S
C83 H88 0.930 . S
C84 N81 1.336 . S
C84 C83 1.346 . S
C84 H91 0.929 . S
C85 O75 1.282 . S
C85 O86 1.216 . S
O86 C85 1.216 . S
H87 C82 0.930 . S
H88 C83 0.930 . S
O89 Cu69 1.959 . S
O89 C76 1.251 . S
H90 C73 0.930 . S
H91 C84 0.929 . S
Cu92 N93 1.999 . S
Cu92 O98 1.974 . S
Cu92 N103 1.985 . S
Cu92 O112 1.959 . S
N93 Cu92 1.999 . S
N93 C95 1.263 . S
N93 C97 1.389 . S
N94 C95 1.358 . S
N94 C96 1.400 . S
C95 N93 1.263 . S
C95 N94 1.358 . S
C95 H101 0.930 . S
C96 N94 1.400 . S
C96 C97 1.351 . S
C96 H113 0.930 . S
C97 N93 1.389 . S
C97 C96 1.351 . S
C97 H102 0.930 . S
O98 Cu92 1.974 . S
O98 C108 1.282 . S
C99 O100 1.261 . S
C99 O112 1.251 . S
O100 C99 1.261 . S
H101 C95 0.930 . S
H102 C97 0.930 . S
N103 Cu92 1.985 . S
N103 C105 1.335 . S
N103 C106 1.390 . S
N104 C105 1.345 1_655 S
N104 C107 1.336 . S
C105 N103 1.335 . S
C105 N104 1.345 1_455 S
C105 H110 0.930 . S
C106 N103 1.390 . S
C106 C107 1.346 1_455 S
C106 H111 0.930 . S
C107 N104 1.336 . S
C107 C106 1.346 1_655 S
C107 H114 0.929 . S
C108 O98 1.282 . S
C108 O109 1.216 . S
O109 C108 1.216 . S
H110 C105 0.930 . S
H111 C106 0.930 . S
O112 Cu92 1.959 . S
O112 C99 1.251 . S
H113 C96 0.930 . S
H114 C107 0.929 . S
Cu115 N116 1.999 . S
Cu115 O121 1.974 . S
Cu115 N126 1.985 . S
Cu115 O135 1.959 . S
N116 Cu115 1.999 . S
N116 C118 1.263 . S
N116 C120 1.389 . S
N117 C118 1.358 . S
N117 C119 1.400 . S
C118 N116 1.263 . S
C118 N117 1.358 . S
C118 H124 0.930 . S
C119 N117 1.400 . S
C119 C120 1.351 . S
C119 H136 0.930 . S
C120 N116 1.389 . S
C120 C119 1.351 . S
C120 H125 0.930 . S
O121 Cu115 1.974 . S
O121 C131 1.282 . S
C122 O123 1.261 . S
C122 O135 1.251 . S
O123 C122 1.261 . S
H124 C118 0.930 . S
H125 C120 0.930 . S
N126 Cu115 1.985 . S
N126 C128 1.335 . S
N126 C129 1.390 . S
N127 C128 1.345 . S
N127 C130 1.336 . S
C128 N126 1.335 . S
C128 N127 1.345 . S
C128 H133 0.930 . S
C129 N126 1.390 . S
C129 C130 1.346 . S
C129 H134 0.930 . S
C130 N127 1.336 . S
C130 C129 1.346 . S
C130 H137 0.929 . S
C131 O121 1.282 . S
C131 O132 1.216 . S
O132 C131 1.216 . S
H133 C128 0.930 . S
H134 C129 0.930 . S
O135 Cu115 1.959 . S
O135 C122 1.251 . S
H136 C119 0.930 . S
H137 C130 0.929 . S
Cu138 N139 1.999 . S
Cu138 O144 1.974 . S
Cu138 N149 1.985 . S
Cu138 O158 1.959 . S
N139 Cu138 1.999 . S
N139 C141 1.263 . S
N139 C143 1.389 . S
N140 C141 1.358 . S
N140 C142 1.400 . S
C141 N139 1.263 . S
C141 N140 1.358 . S
C141 H147 0.930 . S
C142 N140 1.400 . S
C142 C143 1.351 . S
C142 H159 0.930 . S
C143 N139 1.389 . S
C143 C142 1.351 . S
C143 H148 0.930 . S
O144 Cu138 1.974 . S
O144 C154 1.282 . S
C145 O146 1.261 . S
C145 O158 1.251 . S
O146 C145 1.261 . S
H147 C141 0.930 . S
H148 C143 0.930 . S
N149 Cu138 1.985 . S
N149 C151 1.335 . S
N149 C152 1.390 . S
N150 C151 1.345 . S
N150 C153 1.336 . S
C151 N149 1.335 . S
C151 N150 1.345 . S
C151 H156 0.930 . S
C152 N149 1.390 . S
C152 C153 1.346 . S
C152 H157 0.930 . S
C153 N150 1.336 . S
C153 C152 1.346 . S
C153 H160 0.929 . S
C154 O144 1.282 . S
C154 O155 1.216 . S
O155 C154 1.216 . S
H156 C151 0.930 . S
H157 C152 0.930 . S
O158 Cu138 1.959 . S
O158 C145 1.251 . S
H159 C142 0.930 . S
H160 C153 0.929 . S
Cu161 N162 1.999 . S
Cu161 O167 1.974 . S
Cu161 N172 1.985 . S
Cu161 O181 1.959 . S
N162 Cu161 1.999 . S
N162 C164 1.263 . S
N162 C166 1.389 . S
N163 C164 1.358 . S
N163 C165 1.400 . S
C164 N162 1.263 . S
C164 N163 1.358 . S
C164 H170 0.930 . S
C165 N163 1.400 . S
C165 C166 1.351 . S
C165 H182 0.930 1_545 S
C166 N162 1.389 . S
C166 C165 1.351 . S
C166 H171 0.930 . S
O167 Cu161 1.974 . S
O167 C177 1.282 . S
C168 O169 1.261 . S
C168 O181 1.251 . S
O169 C168 1.261 . S
H170 C164 0.930 . S
H171 C166 0.930 . S
N172 Cu161 1.985 . S
N172 C174 1.335 . S
N172 C175 1.390 . S
N173 C174 1.345 . S
N173 C176 1.336 . S
C174 N172 1.335 . S
C174 N173 1.345 . S
C174 H179 0.930 . S
C175 N172 1.390 . S
C175 C176 1.346 . S
C175 H180 0.930 . S
C176 N173 1.336 . S
C176 C175 1.346 . S
C176 H183 0.929 . S
C177 O167 1.282 . S
C177 O178 1.216 . S
O178 C177 1.216 . S
H179 C174 0.930 . S
H180 C175 0.930 . S
O181 Cu161 1.959 . S
O181 C168 1.251 . S
H182 C165 0.930 1_565 S
H183 C176 0.929 . S
Cu184 N185 1.999 . S
Cu184 O190 1.974 . S
Cu184 N195 1.985 . S
Cu184 O204 1.959 . S
N185 Cu184 1.999 . S
N185 C187 1.263 . S
N185 C189 1.389 . S
N186 C187 1.358 . S
N186 C188 1.400 . S
C187 N185 1.263 . S
C187 N186 1.358 . S
C187 H193 0.930 . S
C188 N186 1.400 . S
C188 C189 1.351 . S
C188 H205 0.930 . S
C189 N185 1.389 . S
C189 C188 1.351 . S
C189 H194 0.930 . S
O190 Cu184 1.974 . S
O190 C200 1.282 . S
C191 O192 1.261 . S
C191 O204 1.251 . S
O192 C191 1.261 . S
H193 C187 0.930 . S
H194 C189 0.930 . S
N195 Cu184 1.985 . S
N195 C197 1.335 . S
N195 C198 1.390 . S
N196 C197 1.345 . S
N196 C199 1.336 . S
C197 N195 1.335 . S
C197 N196 1.345 . S
C197 H202 0.930 . S
C198 N195 1.390 . S
C198 C199 1.346 . S
C198 H203 0.930 . S
C199 N196 1.336 . S
C199 C198 1.346 . S
C199 H206 0.929 . S
C200 O190 1.282 . S
C200 O201 1.216 . S
O201 C200 1.216 . S
H202 C197 0.930 . S
H203 C198 0.930 . S
O204 Cu184 1.959 . S
O204 C191 1.251 . S
H205 C188 0.930 . S
H206 C199 0.929 . S
Cu207 N208 1.999 . S
Cu207 O213 1.974 . S
Cu207 N218 1.985 . S
Cu207 O227 1.959 . S
N208 Cu207 1.999 . S
N208 C210 1.263 . S
N208 C212 1.389 . S
N209 C210 1.358 . S
N209 C211 1.400 . S
C210 N208 1.263 . S
C210 N209 1.358 . S
C210 H216 0.930 . S
C211 N209 1.400 . S
C211 C212 1.351 . S
C211 H228 0.930 . S
C212 N208 1.389 . S
C212 C211 1.351 . S
C212 H217 0.930 . S
O213 Cu207 1.974 . S
O213 C223 1.282 . S
C214 O215 1.261 . S
C214 O227 1.251 . S
O215 C214 1.261 . S
H216 C210 0.930 . S
H217 C212 0.930 . S
N218 Cu207 1.985 . S
N218 C220 1.335 . S
N218 C221 1.390 . S
N219 C220 1.345 . S
N219 C222 1.336 . S
C220 N218 1.335 . S
C220 N219 1.345 . S
C220 H225 0.930 . S
C221 N218 1.390 . S
C221 C222 1.346 . S
C221 H226 0.930 . S
C222 N219 1.336 . S
C222 C221 1.346 . S
C222 H229 0.929 . S
C223 O213 1.282 . S
C223 O224 1.216 . S
O224 C223 1.216 . S
H225 C220 0.930 . S
H226 C221 0.930 . S
O227 Cu207 1.959 . S
O227 C214 1.251 . S
H228 C211 0.930 . S
H229 C222 0.929 . S
Cu230 N231 1.999 . S
Cu230 O236 1.974 . S
Cu230 N241 1.985 . S
Cu230 O250 1.959 . S
N231 Cu230 1.999 . S
N231 C233 1.263 . S
N231 C235 1.389 . S
N232 C233 1.358 . S
N232 C234 1.400 . S
C233 N231 1.263 . S
C233 N232 1.358 . S
C233 H239 0.930 . S
C234 N232 1.400 . S
C234 C235 1.351 . S
C234 H251 0.930 . S
C235 N231 1.389 . S
C235 C234 1.351 . S
C235 H240 0.930 . S
O236 Cu230 1.974 . S
O236 C246 1.282 . S
C237 O238 1.261 . S
C237 O250 1.251 . S
O238 C237 1.261 . S
H239 C233 0.930 . S
H240 C235 0.930 . S
N241 Cu230 1.985 . S
N241 C243 1.335 . S
N241 C244 1.390 . S
N242 C243 1.345 . S
N242 C245 1.336 . S
C243 N241 1.335 . S
C243 N242 1.345 . S
C243 H248 0.930 . S
C244 N241 1.390 . S
C244 C245 1.346 . S
C244 H249 0.930 . S
C245 N242 1.336 . S
C245 C244 1.346 . S
C245 H252 0.929 . S
C246 O236 1.282 . S
C246 O247 1.216 . S
O247 C246 1.216 . S
H248 C243 0.930 . S
H249 C244 0.930 . S
O250 Cu230 1.959 . S
O250 C237 1.251 . S
H251 C234 0.930 . S
H252 C245 0.929 . S
Cu253 N254 1.999 . S
Cu253 O259 1.974 . S
Cu253 N264 1.985 . S
Cu253 O273 1.959 . S
N254 Cu253 1.999 . S
N254 C256 1.263 . S
N254 C258 1.389 . S
N255 C256 1.358 . S
N255 C257 1.400 . S
C256 N254 1.263 . S
C256 N255 1.358 . S
C256 H262 0.930 . S
C257 N255 1.400 . S
C257 C258 1.351 . S
C257 H274 0.930 . S
C258 N254 1.389 . S
C258 C257 1.351 . S
C258 H263 0.930 . S
O259 Cu253 1.974 . S
O259 C269 1.282 . S
C260 O261 1.261 . S
C260 O273 1.251 . S
O261 C260 1.261 . S
H262 C256 0.930 . S
H263 C258 0.930 . S
N264 Cu253 1.985 . S
N264 C266 1.335 . S
N264 C267 1.390 . S
N265 C266 1.345 . S
N265 C268 1.336 . S
C266 N264 1.335 . S
C266 N265 1.345 . S
C266 H271 0.930 . S
C267 N264 1.390 . S
C267 C268 1.346 . S
C267 H272 0.930 . S
C268 N265 1.336 . S
C268 C267 1.346 . S
C268 H275 0.929 . S
C269 O259 1.282 . S
C269 O270 1.216 . S
O270 C269 1.216 . S
H271 C266 0.930 . S
H272 C267 0.930 . S
O273 Cu253 1.959 . S
O273 C260 1.251 . S
H274 C257 0.930 . S
H275 C268 0.929 . S
Cu276 N277 1.999 . S
Cu276 O282 1.974 . S
Cu276 N287 1.985 . S
Cu276 O296 1.959 . S
N277 Cu276 1.999 . S
N277 C279 1.263 . S
N277 C281 1.389 . S
N278 C279 1.358 . S
N278 C280 1.400 . S
C279 N277 1.263 . S
C279 N278 1.358 . S
C279 H285 0.930 . S
C280 N278 1.400 . S
C280 C281 1.351 . S
C280 H297 0.930 . S
C281 N277 1.389 . S
C281 C280 1.351 . S
C281 H286 0.930 . S
O282 Cu276 1.974 . S
O282 C292 1.282 . S
C283 O284 1.261 . S
C283 O296 1.251 . S
O284 C283 1.261 . S
H285 C279 0.930 . S
H286 C281 0.930 . S
N287 Cu276 1.985 . S
N287 C289 1.335 . S
N287 C290 1.390 . S
N288 C289 1.345 . S
N288 C291 1.336 . S
C289 N287 1.335 . S
C289 N288 1.345 . S
C289 H294 0.930 . S
C290 N287 1.390 . S
C290 C291 1.346 . S
C290 H295 0.930 . S
C291 N288 1.336 . S
C291 C290 1.346 . S
C291 H298 0.929 . S
C292 O282 1.282 . S
C292 O293 1.216 . S
O293 C292 1.216 . S
H294 C289 0.930 . S
H295 C290 0.930 . S
O296 Cu276 1.959 . S
O296 C283 1.251 . S
H297 C280 0.930 . S
H298 C291 0.929 . S
Cu299 N300 1.999 . S
Cu299 O305 1.974 . S
Cu299 N310 1.985 . S
Cu299 O319 1.959 . S
N300 Cu299 1.999 . S
N300 C302 1.263 . S
N300 C304 1.389 . S
N301 C302 1.358 . S
N301 C303 1.400 . S
C302 N300 1.263 . S
C302 N301 1.358 . S
C302 H308 0.930 . S
C303 N301 1.400 . S
C303 C304 1.351 . S
C303 H320 0.930 . S
C304 N300 1.389 . S
C304 C303 1.351 . S
C304 H309 0.930 . S
O305 Cu299 1.974 . S
O305 C315 1.282 . S
C306 O307 1.261 . S
C306 O319 1.251 . S
O307 C306 1.261 . S
H308 C302 0.930 . S
H309 C304 0.930 . S
N310 Cu299 1.985 . S
N310 C312 1.335 . S
N310 C313 1.390 . S
N311 C312 1.345 . S
N311 C314 1.336 . S
C312 N310 1.335 . S
C312 N311 1.345 . S
C312 H317 0.930 . S
C313 N310 1.390 . S
C313 C314 1.346 . S
C313 H318 0.930 . S
C314 N311 1.336 . S
C314 C313 1.346 . S
C314 H321 0.929 1_655 S
C315 O305 1.282 . S
C315 O316 1.216 . S
O316 C315 1.216 . S
H317 C312 0.930 . S
H318 C313 0.930 . S
O319 Cu299 1.959 . S
O319 C306 1.251 . S
H320 C303 0.930 . S
H321 C314 0.929 1_455 S
Cu322 N323 1.999 . S
Cu322 O328 1.974 . S
Cu322 N333 1.985 . S
Cu322 O342 1.959 . S
N323 Cu322 1.999 . S
N323 C325 1.263 . S
N323 C327 1.389 . S
N324 C325 1.358 . S
N324 C326 1.400 . S
C325 N323 1.263 . S
C325 N324 1.358 . S
C325 H331 0.930 . S
C326 N324 1.400 . S
C326 C327 1.351 . S
C326 H343 0.930 . S
C327 N323 1.389 . S
C327 C326 1.351 . S
C327 H332 0.930 . S
O328 Cu322 1.974 . S
O328 C338 1.282 . S
C329 O330 1.261 . S
C329 O342 1.251 . S
O330 C329 1.261 . S
H331 C325 0.930 . S
H332 C327 0.930 . S
N333 Cu322 1.985 . S
N333 C335 1.335 . S
N333 C336 1.390 . S
N334 C335 1.345 . S
N334 C337 1.336 . S
C335 N333 1.335 . S
C335 N334 1.345 . S
C335 H340 0.930 . S
C336 N333 1.390 . S
C336 C337 1.346 . S
C336 H341 0.930 . S
C337 N334 1.336 . S
C337 C336 1.346 . S
C337 H344 0.929 . S
C338 O328 1.282 . S
C338 O339 1.216 . S
O339 C338 1.216 . S
H340 C335 0.930 . S
H341 C336 0.930 . S
O342 Cu322 1.959 . S
O342 C329 1.251 . S
H343 C326 0.930 . S
H344 C337 0.929 . S
Cu345 N346 1.999 . S
Cu345 O351 1.974 . S
Cu345 N356 1.985 . S
Cu345 O365 1.959 . S
N346 Cu345 1.999 . S
N346 C348 1.263 . S
N346 C350 1.389 . S
N347 C348 1.358 . S
N347 C349 1.400 . S
C348 N346 1.263 . S
C348 N347 1.358 . S
C348 H354 0.930 . S
C349 N347 1.400 . S
C349 C350 1.351 . S
C349 H366 0.930 . S
C350 N346 1.389 . S
C350 C349 1.351 . S
C350 H355 0.930 . S
O351 Cu345 1.974 . S
O351 C361 1.282 . S
C352 O353 1.261 . S
C352 O365 1.251 . S
O353 C352 1.261 . S
H354 C348 0.930 . S
H355 C350 0.930 . S
N356 Cu345 1.985 . S
N356 C358 1.335 . S
N356 C359 1.390 . S
N357 C358 1.345 . S
N357 C360 1.336 . S
C358 N356 1.335 . S
C358 N357 1.345 . S
C358 H363 0.930 . S
C359 N356 1.390 . S
C359 C360 1.346 . S
C359 H364 0.930 . S
C360 N357 1.336 . S
C360 C359 1.346 . S
C360 H367 0.929 . S
C361 O351 1.282 . S
C361 O362 1.216 . S
O362 C361 1.216 . S
H363 C358 0.930 . S
H364 C359 0.930 . S
O365 Cu345 1.959 . S
O365 C352 1.251 . S
H366 C349 0.930 . S
H367 C360 0.929 . S
Cu368 N369 1.999 . S
Cu368 O374 1.974 . S
Cu368 N379 1.985 . S
Cu368 O388 1.959 . S
N369 Cu368 1.999 . S
N369 C371 1.263 . S
N369 C373 1.389 . S
N370 C371 1.358 . S
N370 C372 1.400 . S
C371 N369 1.263 . S
C371 N370 1.358 . S
C371 H377 0.930 . S
C372 N370 1.400 . S
C372 C373 1.351 . S
C372 H389 0.930 . S
C373 N369 1.389 . S
C373 C372 1.351 . S
C373 H378 0.930 . S
O374 Cu368 1.974 . S
O374 C384 1.282 . S
C375 O376 1.261 . S
C375 O388 1.251 . S
O376 C375 1.261 . S
H377 C371 0.930 . S
H378 C373 0.930 . S
N379 Cu368 1.985 . S
N379 C381 1.335 . S
N379 C382 1.390 . S
N380 C381 1.345 . S
N380 C383 1.336 . S
C381 N379 1.335 . S
C381 N380 1.345 . S
C381 H386 0.930 . S
C382 N379 1.390 . S
C382 C383 1.346 . S
C382 H387 0.930 . S
C383 N380 1.336 . S
C383 C382 1.346 . S
C383 H390 0.929 . S
C384 O374 1.282 . S
C384 O385 1.216 . S
O385 C384 1.216 . S
H386 C381 0.930 . S
H387 C382 0.930 . S
O388 Cu368 1.959 . S
O388 C375 1.251 . S
H389 C372 0.930 . S
H390 C383 0.929 . S
Cu391 N392 1.999 . S
Cu391 O397 1.974 . S
Cu391 N402 1.985 . S
Cu391 O411 1.959 . S
N392 Cu391 1.999 . S
N392 C394 1.263 . S
N392 C396 1.389 . S
N393 C394 1.358 . S
N393 C395 1.400 . S
C394 N392 1.263 . S
C394 N393 1.358 . S
C394 H400 0.930 . S
C395 N393 1.400 . S
C395 C396 1.351 . S
C395 H412 0.930 . S
C396 N392 1.389 . S
C396 C395 1.351 . S
C396 H401 0.930 . S
O397 Cu391 1.974 . S
O397 C407 1.282 . S
C398 O399 1.261 . S
C398 O411 1.251 . S
O399 C398 1.261 . S
H400 C394 0.930 . S
H401 C396 0.930 . S
N402 Cu391 1.985 . S
N402 C404 1.335 . S
N402 C405 1.390 . S
N403 C404 1.345 . S
N403 C406 1.336 . S
C404 N402 1.335 . S
C404 N403 1.345 . S
C404 H409 0.930 . S
C405 N402 1.390 . S
C405 C406 1.346 . S
C405 H410 0.930 . S
C406 N403 1.336 . S
C406 C405 1.346 . S
C406 H413 0.929 . S
C407 O397 1.282 . S
C407 O408 1.216 . S
O408 C407 1.216 . S
H409 C404 0.930 . S
H410 C405 0.930 . S
O411 Cu391 1.959 . S
O411 C398 1.251 . S
H412 C395 0.930 . S
H413 C406 0.929 . S
Cu414 N415 1.999 . S
Cu414 O420 1.974 . S
Cu414 N425 1.985 . S
Cu414 O434 1.959 . S
N415 Cu414 1.999 . S
N415 C417 1.263 . S
N415 C419 1.389 . S
N416 C417 1.358 . S
N416 C418 1.400 . S
C417 N415 1.263 . S
C417 N416 1.358 . S
C417 H423 0.930 . S
C418 N416 1.400 . S
C418 C419 1.351 . S
C418 H435 0.930 . S
C419 N415 1.389 . S
C419 C418 1.351 . S
C419 H424 0.930 . S
O420 Cu414 1.974 . S
O420 C430 1.282 . S
C421 O422 1.261 . S
C421 O434 1.251 . S
O422 C421 1.261 . S
H423 C417 0.930 . S
H424 C419 0.930 . S
N425 Cu414 1.985 . S
N425 C427 1.335 . S
N425 C428 1.390 . S
N426 C427 1.345 . S
N426 C429 1.336 . S
C427 N425 1.335 . S
C427 N426 1.345 . S
C427 H432 0.930 . S
C428 N425 1.390 . S
C428 C429 1.346 . S
C428 H433 0.930 . S
C429 N426 1.336 . S
C429 C428 1.346 . S
C429 H436 0.929 . S
C430 O420 1.282 . S
C430 O431 1.216 . S
O431 C430 1.216 . S
H432 C427 0.930 . S
H433 C428 0.930 . S
O434 Cu414 1.959 . S
O434 C421 1.251 . S
H435 C418 0.930 . S
H436 C429 0.929 . S
Cu437 N438 1.999 . S
Cu437 O443 1.974 . S
Cu437 N448 1.985 . S
Cu437 O457 1.959 . S
N438 Cu437 1.999 . S
N438 C440 1.263 . S
N438 C442 1.389 . S
N439 C440 1.358 . S
N439 C441 1.400 . S
C440 N438 1.263 . S
C440 N439 1.358 . S
C440 H446 0.930 . S
C441 N439 1.400 . S
C441 C442 1.351 . S
C441 H458 0.930 . S
C442 N438 1.389 . S
C442 C441 1.351 . S
C442 H447 0.930 . S
O443 Cu437 1.974 . S
O443 C453 1.282 . S
C444 O445 1.261 . S
C444 O457 1.251 . S
O445 C444 1.261 . S
H446 C440 0.930 . S
H447 C442 0.930 . S
N448 Cu437 1.985 . S
N448 C450 1.335 . S
N448 C451 1.390 . S
N449 C450 1.345 . S
N449 C452 1.336 . S
C450 N448 1.335 . S
C450 N449 1.345 . S
C450 H455 0.930 . S
C451 N448 1.390 . S
C451 C452 1.346 . S
C451 H456 0.930 . S
C452 N449 1.336 . S
C452 C451 1.346 . S
C452 H459 0.929 . S
C453 O443 1.282 . S
C453 O454 1.216 . S
O454 C453 1.216 . S
H455 C450 0.930 . S
H456 C451 0.930 . S
O457 Cu437 1.959 . S
O457 C444 1.251 . S
H458 C441 0.930 . S
H459 C452 0.929 . S
Cu460 N461 1.999 . S
Cu460 O466 1.974 . S
Cu460 N471 1.985 . S
Cu460 O480 1.959 . S
N461 Cu460 1.999 . S
N461 C463 1.263 . S
N461 C465 1.389 . S
N462 C463 1.358 . S
N462 C464 1.400 . S
C463 N461 1.263 . S
C463 N462 1.358 . S
C463 H469 0.930 . S
C464 N462 1.400 . S
C464 C465 1.351 . S
C464 H481 0.930 . S
C465 N461 1.389 . S
C465 C464 1.351 . S
C465 H470 0.930 . S
O466 Cu460 1.974 . S
O466 C476 1.282 . S
C467 O468 1.261 . S
C467 O480 1.251 . S
O468 C467 1.261 . S
H469 C463 0.930 . S
H470 C465 0.930 . S
N471 Cu460 1.985 . S
N471 C473 1.335 . S
N471 C474 1.390 . S
N472 C473 1.345 . S
N472 C475 1.336 . S
C473 N471 1.335 . S
C473 N472 1.345 . S
C473 H478 0.930 . S
C474 N471 1.390 . S
C474 C475 1.346 . S
C474 H479 0.930 . S
C475 N472 1.336 . S
C475 C474 1.346 . S
C475 H482 0.929 . S
C476 O466 1.282 . S
C476 O477 1.216 . S
O477 C476 1.216 . S
H478 C473 0.930 . S
H479 C474 0.930 . S
O480 Cu460 1.959 . S
O480 C467 1.251 . S
H481 C464 0.930 . S
H482 C475 0.929 . S
Cu483 N484 1.999 . S
Cu483 O489 1.974 . S
Cu483 N494 1.985 . S
Cu483 O503 1.959 . S
N484 Cu483 1.999 . S
N484 C486 1.263 . S
N484 C488 1.389 . S
N485 C486 1.358 . S
N485 C487 1.400 . S
C486 N484 1.263 . S
C486 N485 1.358 . S
C486 H492 0.930 . S
C487 N485 1.400 . S
C487 C488 1.351 . S
C487 H504 0.930 . S
C488 N484 1.389 . S
C488 C487 1.351 . S
C488 H493 0.930 . S
O489 Cu483 1.974 . S
O489 C499 1.282 . S
C490 O491 1.261 . S
C490 O503 1.251 . S
O491 C490 1.261 . S
H492 C486 0.930 . S
H493 C488 0.930 . S
N494 Cu483 1.985 . S
N494 C496 1.335 . S
N494 C497 1.390 . S
N495 C496 1.345 . S
N495 C498 1.336 . S
C496 N494 1.335 . S
C496 N495 1.345 . S
C496 H501 0.930 . S
C497 N494 1.390 . S
C497 C498 1.346 . S
C497 H502 0.930 . S
C498 N495 1.336 . S
C498 C497 1.346 . S
C498 H505 0.929 . S
C499 O489 1.282 . S
C499 O500 1.216 . S
O500 C499 1.216 . S
H501 C496 0.930 . S
H502 C497 0.930 . S
O503 Cu483 1.959 . S
O503 C490 1.251 . S
H504 C487 0.930 . S
H505 C498 0.929 . S
Cu506 N507 1.999 . S
Cu506 O512 1.974 . S
Cu506 N517 1.985 . S
Cu506 O526 1.959 . S
N507 Cu506 1.999 . S
N507 C509 1.263 . S
N507 C511 1.389 . S
N508 C509 1.358 . S
N508 C510 1.400 . S
C509 N507 1.263 . S
C509 N508 1.358 . S
C509 H515 0.930 . S
C510 N508 1.400 . S
C510 C511 1.351 . S
C510 H527 0.930 . S
C511 N507 1.389 . S
C511 C510 1.351 . S
C511 H516 0.930 . S
O512 Cu506 1.974 . S
O512 C522 1.282 . S
C513 O514 1.261 . S
C513 O526 1.251 . S
O514 C513 1.261 . S
H515 C509 0.930 . S
H516 C511 0.930 . S
N517 Cu506 1.985 . S
N517 C519 1.335 . S
N517 C520 1.390 . S
N518 C519 1.345 . S
N518 C521 1.336 . S
C519 N517 1.335 . S
C519 N518 1.345 . S
C519 H524 0.930 . S
C520 N517 1.390 . S
C520 C521 1.346 . S
C520 H525 0.930 . S
C521 N518 1.336 . S
C521 C520 1.346 . S
C521 H528 0.929 . S
C522 O512 1.282 . S
C522 O523 1.216 . S
O523 C522 1.216 . S
H524 C519 0.930 . S
H525 C520 0.930 . S
O526 Cu506 1.959 . S
O526 C513 1.251 . S
H527 C510 0.930 . S
H528 C521 0.929 . S
Cu529 N530 1.999 . S
Cu529 O535 1.974 . S
Cu529 N540 1.985 . S
Cu529 O549 1.959 . S
N530 Cu529 1.999 . S
N530 C532 1.263 . S
N530 C534 1.389 . S
N531 C532 1.358 . S
N531 C533 1.400 . S
C532 N530 1.263 . S
C532 N531 1.358 . S
C532 H538 0.930 . S
C533 N531 1.400 . S
C533 C534 1.351 . S
C533 H550 0.930 . S
C534 N530 1.389 . S
C534 C533 1.351 . S
C534 H539 0.930 . S
O535 Cu529 1.974 . S
O535 C545 1.282 . S
C536 O537 1.261 . S
C536 O549 1.251 . S
O537 C536 1.261 . S
H538 C532 0.930 . S
H539 C534 0.930 . S
N540 Cu529 1.985 . S
N540 C542 1.335 . S
N540 C543 1.390 . S
N541 C542 1.345 . S
N541 C544 1.336 . S
C542 N540 1.335 . S
C542 N541 1.345 . S
C542 H547 0.930 . S
C543 N540 1.390 . S
C543 C544 1.346 . S
C543 H548 0.930 . S
C544 N541 1.336 . S
C544 C543 1.346 . S
C544 H551 0.929 . S
C545 O535 1.282 . S
C545 O546 1.216 . S
O546 C545 1.216 . S
H547 C542 0.930 . S
H548 C543 0.930 . S
O549 Cu529 1.959 . S
O549 C536 1.251 . S
H550 C533 0.930 . S
H551 C544 0.929 . S
C552 C553 1.363 . S
C552 C558 1.379 . S
C552 N560 1.356 . S
C553 C552 1.363 . S
C553 C559 1.363 . S
C554 C555 1.363 . S
C554 C559 1.379 . S
C554 N561 1.356 . S
C555 C554 1.363 . S
C555 C558 1.363 . S
N556 C558 1.356 . S
N556 H568 0.984 . S
N556 H569 0.985 . S
N557 C559 1.356 . S
N557 H562 0.984 . S
N557 H563 0.985 . S
C558 C552 1.379 . S
C558 C555 1.363 . S
C558 N556 1.356 . S
C559 C553 1.363 . S
C559 C554 1.379 . S
C559 N557 1.356 . S
N560 C552 1.356 . S
N560 H566 0.994 . S
N560 H567 0.984 . S
N561 C554 1.356 . S
N561 H564 0.984 . S
N561 H565 0.985 . S
H562 N557 0.984 . S
H563 N557 0.985 . S
H564 N561 0.984 . S
H565 N561 0.985 . S
H566 N560 0.994 . S
H567 N560 0.984 . S
H568 N556 0.984 . S
H569 N556 0.985 . S
C570 C571 1.363 . S
C570 C576 1.379 1_655 S
C570 N578 1.356 . S
C571 C570 1.363 . S
C571 C577 1.363 1_655 S
C572 C573 1.363 . S
C572 C577 1.379 . S
C572 N579 1.356 . S
C573 C572 1.363 . S
C573 C576 1.363 . S
N574 C576 1.356 . S
N574 H586 0.984 1_455 S
N574 H587 0.985 . S
N575 C577 1.356 . S
N575 H580 0.984 . S
N575 H581 0.985 . S
C576 C570 1.379 1_455 S
C576 C573 1.363 . S
C576 N574 1.356 . S
C577 C571 1.363 1_455 S
C577 C572 1.379 . S
C577 N575 1.356 . S
N578 C570 1.356 . S
N578 H584 0.984 . S
N578 H585 0.984 . S
N579 C572 1.356 . S
N579 H582 0.984 . S
N579 H583 0.985 . S
H580 N575 0.984 . S
H581 N575 0.985 . S
H582 N579 0.984 . S
H583 N579 0.985 . S
H584 N578 0.984 . S
H585 N578 0.984 . S
H586 N574 0.984 1_655 S
H587 N574 0.985 . S
C588 C589 1.363 . S
C588 C594 1.379 1_554 S
C588 N596 1.356 . S
C589 C588 1.363 . S
C589 C595 1.363 . S
C590 C591 1.363 1_554 S
C590 C595 1.379 . S
C590 N597 1.356 . S
C591 C590 1.363 1_556 S
C591 C594 1.363 . S
N592 C594 1.356 . S
N592 H604 0.984 . S
N592 H605 0.985 . S
N593 C595 1.356 . S
N593 H598 0.984 . S
N593 H599 0.985 . S
C594 C588 1.379 1_556 S
C594 C591 1.363 . S
C594 N592 1.356 . S
C595 C589 1.363 . S
C595 C590 1.379 . S
C595 N593 1.356 . S
N596 C588 1.356 . S
N596 H602 0.977 1_554 S
N596 H603 0.984 . S
N597 C590 1.356 . S
N597 H600 0.984 . S
N597 H601 0.985 . S
H598 N593 0.984 . S
H599 N593 0.985 . S
H600 N597 0.984 . S
H601 N597 0.985 . S
H602 N596 0.977 1_556 S
H603 N596 0.984 . S
H604 N592 0.984 . S
H605 N592 0.985 . S
C606 C607 1.363 . S
C606 C612 1.379 . S
C606 N614 1.356 . S
C607 C606 1.363 . S
C607 C613 1.363 . S
C608 C609 1.363 . S
C608 C613 1.379 . S
C608 N615 1.356 . S
C609 C608 1.363 . S
C609 C612 1.363 . S
N610 C612 1.356 . S
N610 H622 0.984 . S
N610 H623 0.985 . S
N611 C613 1.356 . S
N611 H616 0.984 . S
N611 H617 0.985 . S
C612 C606 1.379 . S
C612 C609 1.363 . S
C612 N610 1.356 . S
C613 C607 1.363 . S
C613 C608 1.379 . S
C613 N611 1.356 . S
N614 C606 1.356 . S
N614 H620 0.984 . S
N614 H621 0.984 . S
N615 C608 1.356 . S
N615 H618 0.984 . S
N615 H619 0.985 . S
H616 N611 0.984 . S
H617 N611 0.985 . S
H618 N615 0.984 . S
H619 N615 0.985 . S
H620 N614 0.984 . S
H621 N614 0.984 . S
H622 N610 0.984 . S
H623 N610 0.985 . S
C624 C625 1.363 1_556 S
C624 C630 1.379 1_556 S
C624 N632 1.356 . S
C625 C624 1.363 1_554 S
C625 C631 1.363 . S
C626 C627 1.363 . S
C626 C631 1.379 . S
C626 N633 1.356 . S
C627 C626 1.363 . S
C627 C630 1.363 . S
N628 C630 1.356 . S
N628 H640 0.984 1_554 S
N628 H641 0.985 . S
N629 C631 1.356 . S
N629 H634 0.984 . S
N629 H635 0.985 . S
C630 C624 1.379 1_554 S
C630 C627 1.363 . S
C630 N628 1.356 . S
C631 C625 1.363 . S
C631 C626 1.379 . S
C631 N629 1.356 . S
N632 C624 1.356 . S
N632 H638 0.984 . S
N632 H639 0.984 . S
N633 C626 1.356 . S
N633 H636 0.984 . S
N633 H637 0.985 . S
H634 N629 0.984 . S
H635 N629 0.985 . S
H636 N633 0.984 . S
H637 N633 0.985 . S
H638 N632 0.984 . S
H639 N632 0.984 . S
H640 N628 0.984 1_556 S
H641 N628 0.985 . S
C642 C643 1.363 . S
C642 C648 1.379 . S
C642 N650 1.356 . S
C643 C642 1.363 . S
C643 C649 1.363 . S
C644 C645 1.363 . S
C644 C649 1.379 . S
C644 N651 1.356 . S
C645 C644 1.363 . S
C645 C648 1.363 . S
N646 C648 1.356 . S
N646 H658 0.984 . S
N646 H659 0.985 . S
N647 C649 1.356 . S
N647 H652 0.984 . S
N647 H653 0.985 . S
C648 C642 1.379 . S
C648 C645 1.363 . S
C648 N646 1.356 . S
C649 C643 1.363 . S
C649 C644 1.379 . S
C649 N647 1.356 . S
N650 C642 1.356 . S
N650 H656 0.984 . S
N650 H657 0.984 . S
N651 C644 1.356 . S
N651 H654 0.984 . S
N651 H655 0.985 . S
H652 N647 0.984 . S
H653 N647 0.985 . S
H654 N651 0.984 . S
H655 N651 0.985 . S
H656 N650 0.984 . S
H657 N650 0.984 . S
H658 N646 0.984 . S
H659 N646 0.985 . S
C660 C661 1.363 . S
C660 C666 1.379 . S
C660 N668 1.356 . S
C661 C660 1.363 . S
C661 C667 1.363 . S
C662 C663 1.363 . S
C662 C667 1.379 . S
C662 N669 1.356 . S
C663 C662 1.363 . S
C663 C666 1.363 . S
N664 C666 1.356 . S
N664 H676 0.984 . S
N664 H677 0.985 . S
N665 C667 1.356 . S
N665 H670 0.984 . S
N665 H671 0.985 . S
C666 C660 1.379 . S
C666 C663 1.363 . S
C666 N664 1.356 . S
C667 C661 1.363 . S
C667 C662 1.379 . S
C667 N665 1.356 . S
N668 C660 1.356 . S
N668 H674 0.984 . S
N668 H675 0.984 . S
N669 C662 1.356 . S
N669 H672 0.984 . S
N669 H673 0.985 . S
H670 N665 0.984 . S
H671 N665 0.985 . S
H672 N669 0.984 . S
H673 N669 0.985 . S
H674 N668 0.984 . S
H675 N668 0.984 . S
H676 N664 0.984 . S
H677 N664 0.985 . S
C678 C679 1.363 1_655 S
C678 C684 1.379 . S
C678 N686 1.356 1_655 S
C679 C678 1.363 1_455 S
C679 C685 1.363 . S
C680 C681 1.363 . S
C680 C685 1.379 1_655 S
C680 N687 1.356 . S
C681 C680 1.363 . S
C681 C684 1.363 . S
N682 C684 1.356 . S
N682 H694 0.984 . S
N682 H695 0.985 . S
N683 C685 1.356 . S
N683 H688 0.984 . S
N683 H689 0.985 . S
C684 C678 1.379 . S
C684 C681 1.363 . S
C684 N682 1.356 . S
C685 C679 1.363 . S
C685 C680 1.379 1_455 S
C685 N683 1.356 . S
N686 C678 1.356 1_455 S
N686 H692 0.984 1_455 S
N686 H693 0.984 . S
N687 C680 1.356 . S
N687 H690 0.984 . S
N687 H691 0.985 . S
H688 N683 0.984 . S
H689 N683 0.985 . S
H690 N687 0.984 . S
H691 N687 0.985 . S
H692 N686 0.984 1_655 S
H693 N686 0.984 . S
H694 N682 0.984 . S
H695 N682 0.985 . S
C696 C697 1.363 . S
C696 C702 1.379 . S
C696 N704 1.356 . S
C697 C696 1.363 . S
C697 C703 1.363 . S
C698 C699 1.363 . S
C698 C703 1.379 . S
C698 N705 1.356 . S
C699 C698 1.363 . S
C699 C702 1.363 . S
N700 C702 1.356 . S
N700 H712 0.984 . S
N700 H713 0.985 . S
N701 C703 1.356 . S
N701 H706 0.984 . S
N701 H707 0.985 . S
C702 C696 1.379 . S
C702 C699 1.363 . S
C702 N700 1.356 . S
C703 C697 1.363 . S
C703 C698 1.379 . S
C703 N701 1.356 . S
N704 C696 1.356 . S
N704 H710 0.984 . S
N704 H711 0.984 . S
N705 C698 1.356 . S
N705 H708 0.984 . S
N705 H709 0.985 . S
H706 N701 0.984 . S
H707 N701 0.985 . S
H708 N705 0.984 . S
H709 N705 0.985 . S
H710 N704 0.984 . S
H711 N704 0.984 . S
H712 N700 0.984 . S
H713 N700 0.985 . S
C714 C715 1.363 . S
C714 C720 1.379 . S
C714 N722 1.356 . S
C715 C714 1.363 . S
C715 C721 1.363 . S
C716 C717 1.363 . S
C716 C721 1.379 . S
C716 N723 1.356 . S
C717 C716 1.363 . S
C717 C720 1.363 . S
N718 C720 1.356 . S
N718 H730 0.984 . S
N718 H731 0.985 . S
N719 C721 1.356 1_545 S
N719 H724 0.984 . S
N719 H725 0.985 . S
C720 C714 1.379 . S
C720 C717 1.363 . S
C720 N718 1.356 . S
C721 C715 1.363 . S
C721 C716 1.379 . S
C721 N719 1.356 1_565 S
N722 C714 1.356 . S
N722 H728 0.984 . S
N722 H729 0.984 . S
N723 C716 1.356 . S
N723 H726 0.984 . S
N723 H727 0.985 . S
H724 N719 0.984 . S
H725 N719 0.985 . S
H726 N723 0.984 . S
H727 N723 0.985 . S
H728 N722 0.984 . S
H729 N722 0.984 . S
H730 N718 0.984 . S
H731 N718 0.985 . S
C732 C733 1.363 . S
C732 C738 1.379 . S
C732 N740 1.356 . S
C733 C732 1.363 . S
C733 C739 1.363 . S
C734 C735 1.363 . S
C734 C739 1.379 1_565 S
C734 N741 1.356 . S
C735 C734 1.363 . S
C735 C738 1.363 1_565 S
N736 C738 1.356 1_565 S
N736 H748 0.984 1_565 S
N736 H749 0.985 . S
N737 C739 1.356 . S
N737 H742 0.984 . S
N737 H743 0.985 . S
C738 C732 1.379 . S
C738 C735 1.363 1_545 S
C738 N736 1.356 1_545 S
C739 C733 1.363 . S
C739 C734 1.379 1_545 S
C739 N737 1.356 . S
N740 C732 1.356 . S
N740 H746 0.984 . S
N740 H747 0.984 . S
N741 C734 1.356 . S
N741 H744 0.984 . S
N741 H745 0.985 . S
H742 N737 0.984 . S
H743 N737 0.985 . S
H744 N741 0.984 . S
H745 N741 0.985 . S
H746 N740 0.984 . S
H747 N740 0.984 . S
H748 N736 0.984 1_545 S
H749 N736 0.985 . S
C750 C751 1.363 1_565 S
C750 C756 1.379 . S
C750 N758 1.356 . S
C751 C750 1.363 1_545 S
C751 C757 1.363 . S
C752 C753 1.363 . S
C752 C757 1.379 1_565 S
C752 N759 1.356 . S
C753 C752 1.363 . S
C753 C756 1.363 . S
N754 C756 1.356 . S
N754 H766 0.984 . S
N754 H767 0.985 . S
N755 C757 1.356 . S
N755 H760 0.984 . S
N755 H761 0.985 . S
C756 C750 1.379 . S
C756 C753 1.363 . S
C756 N754 1.356 . S
C757 C751 1.363 . S
C757 C752 1.379 1_545 S
C757 N755 1.356 . S
N758 C750 1.356 . S
N758 H764 0.984 . S
N758 H765 0.984 1_565 S
N759 C752 1.356 . S
N759 H762 0.984 . S
N759 H763 0.985 . S
H760 N755 0.984 . S
H761 N755 0.985 . S
H762 N759 0.984 . S
H763 N759 0.985 . S
H764 N758 0.984 . S
H765 N758 0.984 1_545 S
H766 N754 0.984 . S
H767 N754 0.985 . S
C768 C769 1.363 . S
C768 C774 1.379 . S
C768 N776 1.356 . S
C769 C768 1.363 . S
C769 C775 1.363 . S
C770 C771 1.363 . S
C770 C775 1.379 . S
C770 N777 1.356 . S
C771 C770 1.363 . S
C771 C774 1.363 . S
N772 C774 1.356 . S
N772 H784 0.984 . S
N772 H785 0.985 . S
N773 C775 1.356 . S
N773 H778 0.984 . S
N773 H779 0.985 . S
C774 C768 1.379 . S
C774 C771 1.363 . S
C774 N772 1.356 . S
C775 C769 1.363 . S
C775 C770 1.379 . S
C775 N773 1.356 . S
N776 C768 1.356 . S
N776 H782 0.984 . S
N776 H783 0.984 . S
N777 C770 1.356 . S
N777 H780 0.984 . S
N777 H781 0.985 . S
H778 N773 0.984 . S
H779 N773 0.985 . S
H780 N777 0.984 . S
H781 N777 0.985 . S
H782 N776 0.984 . S
H783 N776 0.984 . S
H784 N772 0.984 . S
H785 N772 0.985 . S
C786 C787 1.363 . S
C786 C792 1.379 . S
C786 N794 1.356 . S
C787 C786 1.363 . S
C787 C793 1.363 . S
C788 C789 1.363 . S
C788 C793 1.379 . S
C788 N795 1.356 . S
C789 C788 1.363 . S
C789 C792 1.363 . S
N790 C792 1.356 . S
N790 H802 0.984 . S
N790 H803 0.985 . S
N791 C793 1.356 . S
N791 H796 0.984 . S
N791 H797 0.985 . S
C792 C786 1.379 . S
C792 C789 1.363 . S
C792 N790 1.356 . S
C793 C787 1.363 . S
C793 C788 1.379 . S
C793 N791 1.356 . S
N794 C786 1.356 . S
N794 H800 0.984 . S
N794 H801 0.984 . S
N795 C788 1.356 . S
N795 H798 0.984 . S
N795 H799 0.985 . S
H796 N791 0.984 . S
H797 N791 0.985 . S
H798 N795 0.984 . S
H799 N795 0.985 . S
H800 N794 0.984 . S
H801 N794 0.984 . S
H802 N790 0.984 . S
H803 N790 0.985 . S
C804 C805 1.363 . S
C804 C810 1.379 . S
C804 N812 1.356 . S
C805 C804 1.363 . S
C805 C811 1.363 . S
C806 C807 1.363 . S
C806 C811 1.379 . S
C806 N813 1.356 . S
C807 C806 1.363 . S
C807 C810 1.363 . S
N808 C810 1.356 . S
N808 H820 0.984 . S
N808 H821 0.985 . S
N809 C811 1.356 . S
N809 H814 0.984 . S
N809 H815 0.985 . S
C810 C804 1.379 . S
C810 C807 1.363 . S
C810 N808 1.356 . S
C811 C805 1.363 . S
C811 C806 1.379 . S
C811 N809 1.356 . S
N812 C804 1.356 . S
N812 H818 0.984 . S
N812 H819 0.984 . S
N813 C806 1.356 . S
N813 H816 0.984 . S
N813 H817 0.985 . S
H814 N809 0.984 . S
H815 N809 0.985 . S
H816 N813 0.984 . S
H817 N813 0.985 . S
H818 N812 0.984 . S
H819 N812 0.984 . S
H820 N808 0.984 . S
H821 N808 0.985 . S
C822 C823 1.363 1_556 S
C822 C828 1.379 1_556 S
C822 N830 1.356 . S
C823 C822 1.363 1_554 S
C823 C829 1.364 . S
C824 C825 1.363 . S
C824 C829 1.379 . S
C824 N831 1.356 . S
C825 C824 1.363 . S
C825 C828 1.363 . S
N826 C828 1.356 . S
N826 H838 0.984 . S
N826 H839 0.985 . S
N827 C829 1.356 . S
N827 H832 0.984 . S
N827 H833 0.985 . S
C828 C822 1.379 1_554 S
C828 C825 1.363 . S
C828 N826 1.356 . S
C829 C823 1.364 . S
C829 C824 1.379 . S
C829 N827 1.356 . S
N830 C822 1.356 . S
N830 H836 0.984 . S
N830 H837 0.984 . S
N831 C824 1.356 . S
N831 H834 0.984 . S
N831 H835 0.985 . S
H832 N827 0.984 . S
H833 N827 0.985 . S
H834 N831 0.984 . S
H835 N831 0.985 . S
H836 N830 0.984 . S
H837 N830 0.984 . S
H838 N826 0.984 . S
H839 N826 0.985 . S
C840 C841 1.363 . S
C840 C846 1.379 . S
C840 N848 1.356 . S
C841 C840 1.363 . S
C841 C847 1.363 . S
C842 C843 1.363 . S
C842 C847 1.379 . S
C842 N849 1.356 . S
C843 C842 1.363 . S
C843 C846 1.363 . S
N844 C846 1.356 . S
N844 H856 0.984 . S
N844 H857 0.985 . S
N845 C847 1.356 . S
N845 H850 0.984 . S
N845 H851 0.985 . S
C846 C840 1.379 . S
C846 C843 1.363 . S
C846 N844 1.356 . S
C847 C841 1.363 . S
C847 C842 1.379 . S
C847 N845 1.356 . S
N848 C840 1.356 . S
N848 H854 0.984 . S
N848 H855 0.984 . S
N849 C842 1.356 . S
N849 H852 0.984 . S
N849 H853 0.985 . S
H850 N845 0.984 . S
H851 N845 0.985 . S
H852 N849 0.984 . S
H853 N849 0.985 . S
H854 N848 0.984 . S
H855 N848 0.984 . S
H856 N844 0.984 . S
H857 N844 0.985 . S
C858 C859 1.363 . S
C858 C864 1.379 . S
C858 N866 1.356 . S
C859 C858 1.363 . S
C859 C865 1.363 . S
C860 C861 1.363 . S
C860 C865 1.379 . S
C860 N867 1.356 . S
C861 C860 1.363 . S
C861 C864 1.363 . S
N862 C864 1.356 . S
N862 H874 0.984 . S
N862 H875 0.985 . S
N863 C865 1.356 . S
N863 H868 0.984 . S
N863 H869 0.985 . S
C864 C858 1.379 . S
C864 C861 1.363 . S
C864 N862 1.356 . S
C865 C859 1.363 . S
C865 C860 1.379 . S
C865 N863 1.356 . S
N866 C858 1.356 . S
N866 H872 0.984 . S
N866 H873 0.984 . S
N867 C860 1.356 . S
N867 H870 0.984 . S
N867 H871 0.985 . S
H868 N863 0.984 . S
H869 N863 0.985 . S
H870 N867 0.984 . S
H871 N867 0.985 . S
H872 N866 0.984 . S
H873 N866 0.984 . S
H874 N862 0.984 . S
H875 N862 0.985 . S
C876 C877 1.363 1_455 S
C876 C882 1.379 . S
C876 N884 1.356 1_455 S
C877 C876 1.363 1_655 S
C877 C883 1.363 1_655 S
C878 C879 1.363 . S
C878 C883 1.379 . S
C878 N885 1.356 . S
C879 C878 1.363 . S
C879 C882 1.363 . S
N880 C882 1.356 . S
N880 H892 0.984 . S
N880 H893 0.985 . S
N881 C883 1.356 1_655 S
N881 H886 0.984 . S
N881 H887 0.985 . S
C882 C876 1.379 . S
C882 C879 1.363 . S
C882 N880 1.356 . S
C883 C877 1.363 1_455 S
C883 C878 1.379 . S
C883 N881 1.356 1_455 S
N884 C876 1.356 1_655 S
N884 H890 0.984 . S
N884 H891 0.984 . S
N885 C878 1.356 . S
N885 H888 0.984 . S
N885 H889 0.985 . S
H886 N881 0.984 . S
H887 N881 0.985 . S
H888 N885 0.984 . S
H889 N885 0.985 . S
H890 N884 0.984 . S
H891 N884 0.984 . S
H892 N880 0.984 . S
H893 N880 0.985 . S
C894 C895 1.363 . S
C894 C900 1.379 . S
C894 N902 1.356 . S
C895 C894 1.363 . S
C895 C901 1.363 . S
C896 C897 1.363 . S
C896 C901 1.379 . S
C896 N903 1.356 . S
C897 C896 1.363 . S
C897 C900 1.363 . S
N898 C900 1.356 . S
N898 H910 0.984 . S
N898 H911 0.985 . S
N899 C901 1.356 . S
N899 H904 0.984 . S
N899 H905 0.985 . S
C900 C894 1.379 . S
C900 C897 1.363 . S
C900 N898 1.356 . S
C901 C895 1.363 . S
C901 C896 1.379 . S
C901 N899 1.356 . S
N902 C894 1.356 . S
N902 H908 0.984 . S
N902 H909 0.984 . S
N903 C896 1.356 . S
N903 H906 0.984 . S
N903 H907 0.985 . S
H904 N899 0.984 . S
H905 N899 0.985 . S
H906 N903 0.984 . S
H907 N903 0.985 . S
H908 N902 0.984 . S
H909 N902 0.984 . S
H910 N898 0.984 . S
H911 N898 0.985 . S
C912 C913 1.363 1_655 S
C912 C918 1.379 . S
C912 N920 1.356 . S
C913 C912 1.363 1_455 S
C913 C919 1.363 . S
C914 C915 1.363 . S
C914 C919 1.379 1_655 S
C914 N921 1.356 . S
C915 C914 1.363 . S
C915 C918 1.363 . S
N916 C918 1.356 . S
N916 H928 0.984 . S
N916 H929 0.985 . S
N917 C919 1.356 . S
N917 H922 0.984 . S
N917 H923 0.985 . S
C918 C912 1.379 . S
C918 C915 1.363 . S
C918 N916 1.356 . S
C919 C913 1.363 . S
C919 C914 1.379 1_455 S
C919 N917 1.356 . S
N920 C912 1.356 . S
N920 H926 0.984 . S
N920 H927 0.984 1_655 S
N921 C914 1.356 . S
N921 H924 0.984 . S
N921 H925 0.985 1_655 S
H922 N917 0.984 . S
H923 N917 0.985 . S
H924 N921 0.984 . S
H925 N921 0.985 1_455 S
H926 N920 0.984 . S
H927 N920 0.984 1_455 S
H928 N916 0.984 . S
H929 N916 0.985 . S
C930 C931 1.363 . S
C930 C936 1.379 . S
C930 N938 1.356 . S
C931 C930 1.363 . S
C931 C937 1.363 . S
C932 C933 1.363 . S
C932 C937 1.379 1_554 S
C932 N939 1.356 . S
C933 C932 1.363 . S
C933 C936 1.363 1_554 S
N934 C936 1.356 . S
N934 H946 0.984 . S
N934 H947 0.985 1_556 S
N935 C937 1.356 . S
N935 H940 0.984 . S
N935 H941 0.985 . S
C936 C930 1.379 . S
C936 C933 1.363 1_556 S
C936 N934 1.356 . S
C937 C931 1.363 . S
C937 C932 1.379 1_556 S
C937 N935 1.356 . S
N938 C930 1.356 . S
N938 H944 0.984 . S
N938 H945 0.984 . S
N939 C932 1.356 . S
N939 H942 0.984 . S
N939 H943 0.985 . S
H940 N935 0.984 . S
H941 N935 0.985 . S
H942 N939 0.984 . S
H943 N939 0.985 . S
H944 N938 0.984 . S
H945 N938 0.984 . S
H946 N934 0.984 . S
H947 N934 0.985 1_554 S
C948 C949 1.363 . S
C948 C954 1.379 . S
C948 N956 1.356 . S
C949 C948 1.363 . S
C949 C955 1.363 . S
C950 C951 1.363 . S
C950 C955 1.379 . S
C950 N957 1.356 . S
C951 C950 1.363 . S
C951 C954 1.363 . S
N952 C954 1.356 . S
N952 H964 0.984 . S
N952 H965 0.985 . S
N953 C955 1.356 . S
N953 H958 0.984 . S
N953 H959 0.985 . S
C954 C948 1.379 . S
C954 C951 1.363 . S
C954 N952 1.356 . S
C955 C949 1.363 . S
C955 C950 1.379 . S
C955 N953 1.356 . S
N956 C948 1.356 . S
N956 H962 0.984 . S
N956 H963 0.984 . S
N957 C950 1.356 . S
N957 H960 0.984 . S
N957 H961 0.985 . S
H958 N953 0.984 . S
H959 N953 0.985 . S
H960 N957 0.984 . S
H961 N957 0.985 . S
H962 N956 0.984 . S
H963 N956 0.984 . S
H964 N952 0.984 . S
H965 N952 0.985 . S
C966 C967 1.363 . S
C966 C972 1.379 . S
C966 N974 1.356 . S
C967 C966 1.363 . S
C967 C973 1.363 . S
C968 C969 1.363 . S
C968 C973 1.394 . S
C968 N975 1.356 . S
C969 C968 1.363 . S
C969 C972 1.363 . S
N970 C972 1.356 . S
N970 H982 0.984 . S
N970 H983 0.985 . S
N971 C973 1.340 1_565 S
N971 H976 0.984 . S
N971 H977 0.985 . S
C972 C966 1.379 . S
C972 C969 1.363 . S
C972 N970 1.356 . S
C973 C967 1.363 . S
C973 C968 1.394 . S
C973 N971 1.340 1_545 S
N974 C966 1.356 . S
N974 H980 0.984 . S
N974 H981 0.984 . S
N975 C968 1.356 . S
N975 H978 0.984 . S
N975 H979 0.985 . S
H976 N971 0.984 . S
H977 N971 0.985 . S
H978 N975 0.984 . S
H979 N975 0.985 . S
H980 N974 0.984 . S
H981 N974 0.984 . S
H982 N970 0.984 . S
H983 N970 0.985 . S
C984 C985 1.363 . S
C984 C990 1.379 . S
C984 N992 1.356 . S
C985 C984 1.363 . S
C985 C991 1.363 . S
C986 C987 1.363 . S
C986 C991 1.379 . S
C986 N993 1.356 . S
C987 C986 1.363 . S
C987 C990 1.363 . S
N988 C990 1.356 . S
N988 H1000 0.984 . S
N988 H1001 0.985 . S
N989 C991 1.356 . S
N989 H994 0.984 . S
N989 H995 0.985 . S
C990 C984 1.379 . S
C990 C987 1.363 . S
C990 N988 1.356 . S
C991 C985 1.363 . S
C991 C986 1.379 . S
C991 N989 1.356 . S
N992 C984 1.356 . S
N992 H998 0.984 . S
N992 H999 0.984 . S
N993 C986 1.356 . S
N993 H996 0.984 . S
N993 H997 0.985 . S
H994 N989 0.984 . S
H995 N989 0.985 . S
H996 N993 0.984 . S
H997 N993 0.985 . S
H998 N992 0.984 . S
H999 N992 0.984 . S
H1000 N988 0.984 . S
H1001 N988 0.985 . S
C1002 C1003 1.363 . S
C1002 C1008 1.379 . S
C1002 N1010 1.356 . S
C1003 C1002 1.363 . S
C1003 C1009 1.363 . S
C1004 C1005 1.363 . S
C1004 C1009 1.379 . S
C1004 N1011 1.356 . S
C1005 C1004 1.363 . S
C1005 C1008 1.363 . S
N1006 C1008 1.356 . S
N1006 H1018 0.984 . S
N1006 H1019 0.985 . S
N1007 C1009 1.356 . S
N1007 H1012 0.984 . S
N1007 H1013 0.985 . S
C1008 C1002 1.379 . S
C1008 C1005 1.363 . S
C1008 N1006 1.356 . S
C1009 C1003 1.363 . S
C1009 C1004 1.379 . S
C1009 N1007 1.356 . S
N1010 C1002 1.356 . S
N1010 H1016 0.984 . S
N1010 H1017 0.984 . S
N1011 C1004 1.356 . S
N1011 H1014 0.984 . S
N1011 H1015 0.985 . S
H1012 N1007 0.984 . S
H1013 N1007 0.985 . S
H1014 N1011 0.984 . S
H1015 N1011 0.985 . S
H1016 N1010 0.984 . S
H1017 N1010 0.984 . S
H1018 N1006 0.984 . S
H1019 N1006 0.985 . S
C1020 C1021 1.363 . S
C1020 C1026 1.379 . S
C1020 N1028 1.356 . S
C1021 C1020 1.363 . S
C1021 C1027 1.363 . S
C1022 C1023 1.363 . S
C1022 C1027 1.379 . S
C1022 N1029 1.356 . S
C1023 C1022 1.363 . S
C1023 C1026 1.363 . S
N1024 C1026 1.356 . S
N1024 H1036 0.984 . S
N1024 H1037 0.985 . S
N1025 C1027 1.356 . S
N1025 H1030 0.984 . S
N1025 H1031 0.985 . S
C1026 C1020 1.379 . S
C1026 C1023 1.363 . S
C1026 N1024 1.356 . S
C1027 C1021 1.363 . S
C1027 C1022 1.379 . S
C1027 N1025 1.356 . S
N1028 C1020 1.356 . S
N1028 H1034 0.984 . S
N1028 H1035 0.984 . S
N1029 C1022 1.356 . S
N1029 H1032 0.984 . S
N1029 H1033 0.985 . S
H1030 N1025 0.984 . S
H1031 N1025 0.985 . S
H1032 N1029 0.984 . S
H1033 N1029 0.985 . S
H1034 N1028 0.984 . S
H1035 N1028 0.984 . S
H1036 N1024 0.984 . S
H1037 N1024 0.985 . S
C1038 C1039 1.363 . S
C1038 C1044 1.379 1_556 S
C1038 N1046 1.356 . S
C1039 C1038 1.363 . S
C1039 C1045 1.363 . S
C1040 C1041 1.363 1_556 S
C1040 C1045 1.379 . S
C1040 N1047 1.356 1_556 S
C1041 C1040 1.363 1_554 S
C1041 C1044 1.363 . S
N1042 C1044 1.356 . S
N1042 H1054 0.984 . S
N1042 H1055 0.985 . S
N1043 C1045 1.356 . S
N1043 H1048 0.984 . S
N1043 H1049 0.985 . S
C1044 C1038 1.379 1_554 S
C1044 C1041 1.363 . S
C1044 N1042 1.356 . S
C1045 C1039 1.363 . S
C1045 C1040 1.379 . S
C1045 N1043 1.356 . S
N1046 C1038 1.356 . S
N1046 H1052 0.984 . S
N1046 H1053 0.984 . S
N1047 C1040 1.356 1_554 S
N1047 H1050 0.984 . S
N1047 H1051 0.985 1_554 S
H1048 N1043 0.984 . S
H1049 N1043 0.985 . S
H1050 N1047 0.984 . S
H1051 N1047 0.985 1_556 S
H1052 N1046 0.984 . S
H1053 N1046 0.984 . S
H1054 N1042 0.984 . S
H1055 N1042 0.985 . S
C1056 C1057 1.363 . S
C1056 C1062 1.379 . S
C1056 N1064 1.356 . S
C1057 C1056 1.363 . S
C1057 C1063 1.363 . S
C1058 C1059 1.363 . S
C1058 C1063 1.379 . S
C1058 N1065 1.356 . S
C1059 C1058 1.363 . S
C1059 C1062 1.363 . S
N1060 C1062 1.356 . S
N1060 H1072 0.984 . S
N1060 H1073 0.985 . S
N1061 C1063 1.356 . S
N1061 H1066 0.984 . S
N1061 H1067 0.985 . S
C1062 C1056 1.379 . S
C1062 C1059 1.363 . S
C1062 N1060 1.356 . S
C1063 C1057 1.363 . S
C1063 C1058 1.379 . S
C1063 N1061 1.356 . S
N1064 C1056 1.356 . S
N1064 H1070 0.984 . S
N1064 H1071 0.984 . S
N1065 C1058 1.356 . S
N1065 H1068 0.984 . S
N1065 H1069 0.985 . S
H1066 N1061 0.984 . S
H1067 N1061 0.985 . S
H1068 N1065 0.984 . S
H1069 N1065 0.985 . S
H1070 N1064 0.984 . S
H1071 N1064 0.984 . S
H1072 N1060 0.984 . S
H1073 N1060 0.985 . S
C1074 C1075 1.363 1_565 S
C1074 C1080 1.378 . S
C1074 N1082 1.356 1_565 S
C1075 C1074 1.363 1_545 S
C1075 C1081 1.363 . S
C1076 C1077 1.363 1_545 S
C1076 C1081 1.379 . S
C1076 N1083 1.356 1_545 S
C1077 C1076 1.363 1_565 S
C1077 C1080 1.363 . S
N1078 C1080 1.356 . S
N1078 H1090 0.984 . S
N1078 H1091 0.985 . S
N1079 C1081 1.356 . S
N1079 H1084 0.984 . S
N1079 H1085 0.985 . S
C1080 C1074 1.378 . S
C1080 C1077 1.363 . S
C1080 N1078 1.356 . S
C1081 C1075 1.363 . S
C1081 C1076 1.379 . S
C1081 N1079 1.356 . S
N1082 C1074 1.356 1_545 S
N1082 H1088 0.984 1_545 S
N1082 H1089 0.984 . S
N1083 C1076 1.356 1_565 S
N1083 H1086 0.984 . S
N1083 H1087 0.985 1_565 S
H1084 N1079 0.984 . S
H1085 N1079 0.985 . S
H1086 N1083 0.984 . S
H1087 N1083 0.985 1_545 S
H1088 N1082 0.984 1_565 S
H1089 N1082 0.984 . S
H1090 N1078 0.984 . S
H1091 N1078 0.985 . S
C1092 C1093 1.363 . S
C1092 C1098 1.379 . S
C1092 N1100 1.356 . S
C1093 C1092 1.363 . S
C1093 C1099 1.363 . S
C1094 C1095 1.363 1_554 S
C1094 C1099 1.379 . S
C1094 N1101 1.356 . S
C1095 C1094 1.363 1_556 S
C1095 C1098 1.363 1_556 S
N1096 C1098 1.356 1_556 S
N1096 H1108 0.984 . S
N1096 H1109 0.985 . S
N1097 C1099 1.356 . S
N1097 H1102 0.984 . S
N1097 H1103 0.985 . S
C1098 C1092 1.379 . S
C1098 C1095 1.363 1_554 S
C1098 N1096 1.356 1_554 S
C1099 C1093 1.363 . S
C1099 C1094 1.379 . S
C1099 N1097 1.356 . S
N1100 C1092 1.356 . S
N1100 H1106 0.984 . S
N1100 H1107 0.984 . S
N1101 C1094 1.356 . S
N1101 H1104 0.984 1_554 S
N1101 H1105 0.985 . S
H1102 N1097 0.984 . S
H1103 N1097 0.985 . S
H1104 N1101 0.984 1_556 S
H1105 N1101 0.985 . S
H1106 N1100 0.984 . S
H1107 N1100 0.984 . S
H1108 N1096 0.984 . S
H1109 N1096 0.985 . S
C1110 C1111 1.363 . S
C1110 C1116 1.379 . S
C1110 N1118 1.356 . S
C1111 C1110 1.363 . S
C1111 C1117 1.363 . S
C1112 C1113 1.363 . S
C1112 C1117 1.379 1_565 S
C1112 N1119 1.356 . S
C1113 C1112 1.363 . S
C1113 C1116 1.363 1_565 S
N1114 C1116 1.356 . S
N1114 H1126 0.984 . S
N1114 H1127 0.985 1_545 S
N1115 C1117 1.356 . S
N1115 H1120 0.984 . S
N1115 H1121 0.985 . S
C1116 C1110 1.379 . S
C1116 C1113 1.363 1_545 S
C1116 N1114 1.356 . S
C1117 C1111 1.363 . S
C1117 C1112 1.379 1_545 S
C1117 N1115 1.356 . S
N1118 C1110 1.356 . S
N1118 H1124 0.984 . S
N1118 H1125 0.984 . S
N1119 C1112 1.356 . S
N1119 H1122 0.984 . S
N1119 H1123 0.985 . S
H1120 N1115 0.984 . S
H1121 N1115 0.985 . S
H1122 N1119 0.984 . S
H1123 N1119 0.985 . S
H1124 N1118 0.984 . S
H1125 N1118 0.984 . S
H1126 N1114 0.984 . S
H1127 N1114 0.985 1_565 S
C1128 C1129 1.363 . S
C1128 C1134 1.379 . S
C1128 N1136 1.356 . S
C1129 C1128 1.363 . S
C1129 C1135 1.363 . S
C1130 C1131 1.363 . S
C1130 C1135 1.379 . S
C1130 N1137 1.356 . S
C1131 C1130 1.363 . S
C1131 C1134 1.363 . S
N1132 C1134 1.356 . S
N1132 H1144 0.984 . S
N1132 H1145 0.985 . S
N1133 C1135 1.356 . S
N1133 H1138 0.984 . S
N1133 H1139 0.985 . S
C1134 C1128 1.379 . S
C1134 C1131 1.363 . S
C1134 N1132 1.356 . S
C1135 C1129 1.363 . S
C1135 C1130 1.379 . S
C1135 N1133 1.356 . S
N1136 C1128 1.356 . S
N1136 H1142 0.984 . S
N1136 H1143 0.984 . S
N1137 C1130 1.356 . S
N1137 H1140 0.984 . S
N1137 H1141 0.985 . S
H1138 N1133 0.984 . S
H1139 N1133 0.985 . S
H1140 N1137 0.984 . S
H1141 N1137 0.985 . S
H1142 N1136 0.984 . S
H1143 N1136 0.984 . S
H1144 N1132 0.984 . S
H1145 N1132 0.985 . S
C1146 C1147 1.363 1_455 S
C1146 C1152 1.379 . S
C1146 N1154 1.356 . S
C1147 C1146 1.363 1_655 S
C1147 C1153 1.363 . S
C1148 C1149 1.363 . S
C1148 C1153 1.379 1_455 S
C1148 N1155 1.356 . S
C1149 C1148 1.363 . S
C1149 C1152 1.363 . S
N1150 C1152 1.356 . S
N1150 H1162 0.984 . S
N1150 H1163 0.985 . S
N1151 C1153 1.356 . S
N1151 H1156 0.984 . S
N1151 H1157 0.985 . S
C1152 C1146 1.379 . S
C1152 C1149 1.363 . S
C1152 N1150 1.356 . S
C1153 C1147 1.363 . S
C1153 C1148 1.379 1_655 S
C1153 N1151 1.356 . S
N1154 C1146 1.356 . S
N1154 H1160 0.984 . S
N1154 H1161 0.984 . S
N1155 C1148 1.356 . S
N1155 H1158 0.984 . S
N1155 H1159 0.985 1_455 S
H1156 N1151 0.984 . S
H1157 N1151 0.985 . S
H1158 N1155 0.984 . S
H1159 N1155 0.985 1_655 S
H1160 N1154 0.984 . S
H1161 N1154 0.984 . S
H1162 N1150 0.984 . S
H1163 N1150 0.985 . S
C1164 C1165 1.363 . S
C1164 C1170 1.379 . S
C1164 N1172 1.356 . S
C1165 C1164 1.363 . S
C1165 C1171 1.363 1_655 S
C1166 C1167 1.363 1_455 S
C1166 C1171 1.379 . S
C1166 N1173 1.356 . S
C1167 C1166 1.363 1_655 S
C1167 C1170 1.363 . S
N1168 C1170 1.356 . S
N1168 H1180 0.984 . S
N1168 H1181 0.985 . S
N1169 C1171 1.356 . S
N1169 H1174 0.984 . S
N1169 H1175 0.985 . S
C1170 C1164 1.379 . S
C1170 C1167 1.363 . S
C1170 N1168 1.356 . S
C1171 C1165 1.363 1_455 S
C1171 C1166 1.379 . S
C1171 N1169 1.356 . S
N1172 C1164 1.356 . S
N1172 H1178 0.984 . S
N1172 H1179 0.984 . S
N1173 C1166 1.356 . S
N1173 H1176 0.984 . S
N1173 H1177 0.985 . S
H1174 N1169 0.984 . S
H1175 N1169 0.985 . S
H1176 N1173 0.984 . S
H1177 N1173 0.985 . S
H1178 N1172 0.984 . S
H1179 N1172 0.984 . S
H1180 N1168 0.984 . S
H1181 N1168 0.985 . S
C1182 C1183 1.363 . S
C1182 C1188 1.379 . S
C1182 N1190 1.356 . S
C1183 C1182 1.363 . S
C1183 C1189 1.363 . S
C1184 C1185 1.363 . S
C1184 C1189 1.379 . S
C1184 N1191 1.356 . S
C1185 C1184 1.363 . S
C1185 C1188 1.363 . S
N1186 C1188 1.356 . S
N1186 H1198 0.984 . S
N1186 H1199 0.985 . S
N1187 C1189 1.356 . S
N1187 H1192 0.984 . S
N1187 H1193 0.985 . S
C1188 C1182 1.379 . S
C1188 C1185 1.363 . S
C1188 N1186 1.356 . S
C1189 C1183 1.363 . S
C1189 C1184 1.379 . S
C1189 N1187 1.356 . S
N1190 C1182 1.356 . S
N1190 H1196 0.984 . S
N1190 H1197 0.984 . S
N1191 C1184 1.356 . S
N1191 H1194 0.984 . S
N1191 H1195 0.985 . S
H1192 N1187 0.984 . S
H1193 N1187 0.985 . S
H1194 N1191 0.984 . S
H1195 N1191 0.985 . S
H1196 N1190 0.984 . S
H1197 N1190 0.984 . S
H1198 N1186 0.984 . S
H1199 N1186 0.985 . S
C1200 C1201 1.363 . S
C1200 C1206 1.379 . S
C1200 N1208 1.356 . S
C1201 C1200 1.363 . S
C1201 C1207 1.363 . S
C1202 C1203 1.363 . S
C1202 C1207 1.379 1_655 S
C1202 N1209 1.356 . S
C1203 C1202 1.363 . S
C1203 C1206 1.363 1_655 S
N1204 C1206 1.357 . S
N1204 H1216 0.988 . S
N1204 H1217 0.980 1_455 S
N1205 C1207 1.356 . S
N1205 H1210 0.984 . S
N1205 H1211 0.985 1_455 S
C1206 C1200 1.379 . S
C1206 C1203 1.363 1_455 S
C1206 N1204 1.357 . S
C1207 C1201 1.363 . S
C1207 C1202 1.379 1_455 S
C1207 N1205 1.356 . S
N1208 C1200 1.356 . S
N1208 H1214 0.984 . S
N1208 H1215 0.984 . S
N1209 C1202 1.356 . S
N1209 H1212 0.984 . S
N1209 H1213 0.985 . S
H1210 N1205 0.984 . S
H1211 N1205 0.985 1_655 S
H1212 N1209 0.984 . S
H1213 N1209 0.985 . S
H1214 N1208 0.984 . S
H1215 N1208 0.984 . S
H1216 N1204 0.988 . S
H1217 N1204 0.980 1_655 S
C1218 C1219 1.363 . S
C1218 C1224 1.379 . S
C1218 N1226 1.356 1_655 S
C1219 C1218 1.363 . S
C1219 C1225 1.363 . S
C1220 C1221 1.363 . S
C1220 C1225 1.379 . S
C1220 N1227 1.356 . S
C1221 C1220 1.363 . S
C1221 C1224 1.363 . S
N1222 C1224 1.356 . S
N1222 H1234 0.984 . S
N1222 H1235 0.985 . S
N1223 C1225 1.356 . S
N1223 H1228 0.984 . S
N1223 H1229 0.985 . S
C1224 C1218 1.379 . S
C1224 C1221 1.363 . S
C1224 N1222 1.356 . S
C1225 C1219 1.363 . S
C1225 C1220 1.379 . S
C1225 N1223 1.356 . S
N1226 C1218 1.356 1_455 S
N1226 H1232 0.984 . S
N1226 H1233 0.984 . S
N1227 C1220 1.356 . S
N1227 H1230 0.984 . S
N1227 H1231 0.985 . S
H1228 N1223 0.984 . S
H1229 N1223 0.985 . S
H1230 N1227 0.984 . S
H1231 N1227 0.985 . S
H1232 N1226 0.984 . S
H1233 N1226 0.984 . S
H1234 N1222 0.984 . S
H1235 N1222 0.985 . S
C1236 C1237 1.363 . S
C1236 C1242 1.379 . S
C1236 N1244 1.356 . S
C1237 C1236 1.363 . S
C1237 C1243 1.363 . S
C1238 C1239 1.363 . S
C1238 C1243 1.379 . S
C1238 N1245 1.356 . S
C1239 C1238 1.363 . S
C1239 C1242 1.363 . S
N1240 C1242 1.356 . S
N1240 H1252 0.984 . S
N1240 H1253 0.985 . S
N1241 C1243 1.356 . S
N1241 H1246 0.984 . S
N1241 H1247 0.985 . S
C1242 C1236 1.379 . S
C1242 C1239 1.363 . S
C1242 N1240 1.356 . S
C1243 C1237 1.363 . S
C1243 C1238 1.379 . S
C1243 N1241 1.356 . S
N1244 C1236 1.356 . S
N1244 H1250 0.984 . S
N1244 H1251 0.984 . S
N1245 C1238 1.356 . S
N1245 H1248 0.984 . S
N1245 H1249 0.985 . S
H1246 N1241 0.984 . S
H1247 N1241 0.985 . S
H1248 N1245 0.984 . S
H1249 N1245 0.985 . S
H1250 N1244 0.984 . S
H1251 N1244 0.984 . S
H1252 N1240 0.984 . S
H1253 N1240 0.985 . S
C1254 C1255 1.363 . S
C1254 C1260 1.379 1_565 S
C1254 N1262 1.356 . S
C1255 C1254 1.363 . S
C1255 C1261 1.363 . S
C1256 C1257 1.363 1_565 S
C1256 C1261 1.379 . S
C1256 N1263 1.356 1_565 S
C1257 C1256 1.363 1_545 S
C1257 C1260 1.363 . S
N1258 C1260 1.356 . S
N1258 H1270 0.984 . S
N1258 H1271 0.985 . S
N1259 C1261 1.356 . S
N1259 H1264 0.984 . S
N1259 H1265 0.985 . S
C1260 C1254 1.379 1_545 S
C1260 C1257 1.363 . S
C1260 N1258 1.356 . S
C1261 C1255 1.363 . S
C1261 C1256 1.379 . S
C1261 N1259 1.356 . S
N1262 C1254 1.356 . S
N1262 H1268 0.984 . S
N1262 H1269 0.984 . S
N1263 C1256 1.356 1_545 S
N1263 H1266 0.984 . S
N1263 H1267 0.985 1_545 S
H1264 N1259 0.984 . S
H1265 N1259 0.985 . S
H1266 N1263 0.984 . S
H1267 N1263 0.985 1_565 S
H1268 N1262 0.984 . S
H1269 N1262 0.984 . S
H1270 N1258 0.984 . S
H1271 N1258 0.985 . S
C1272 C1273 1.363 . S
C1272 C1278 1.379 1_556 S
C1272 N1280 1.356 . S
C1273 C1272 1.363 . S
C1273 C1279 1.363 1_556 S
C1274 C1275 1.363 . S
C1274 C1279 1.379 . S
C1274 N1281 1.356 . S
C1275 C1274 1.363 . S
C1275 C1278 1.363 . S
N1276 C1278 1.356 . S
N1276 H1288 0.984 . S
N1276 H1289 0.985 . S
N1277 C1279 1.356 1_556 S
N1277 H1282 0.984 . S
N1277 H1283 0.985 1_556 S
C1278 C1272 1.379 1_554 S
C1278 C1275 1.363 . S
C1278 N1276 1.356 . S
C1279 C1273 1.363 1_554 S
C1279 C1274 1.379 . S
C1279 N1277 1.356 1_554 S
N1280 C1272 1.356 . S
N1280 H1286 0.984 . S
N1280 H1287 0.984 . S
N1281 C1274 1.356 . S
N1281 H1284 0.984 . S
N1281 H1285 0.985 . S
H1282 N1277 0.984 . S
H1283 N1277 0.985 1_554 S
H1284 N1281 0.984 . S
H1285 N1281 0.985 . S
H1286 N1280 0.984 . S
H1287 N1280 0.984 . S
H1288 N1276 0.984 . S
H1289 N1276 0.985 . S
C1290 C1291 1.363 . S
C1290 C1296 1.379 . S
C1290 N1298 1.356 . S
C1291 C1290 1.363 . S
C1291 C1297 1.363 . S
C1292 C1293 1.363 . S
C1292 C1297 1.379 . S
C1292 N1299 1.356 . S
C1293 C1292 1.363 . S
C1293 C1296 1.363 . S
N1294 C1296 1.356 . S
N1294 H1306 0.984 . S
N1294 H1307 0.985 . S
N1295 C1297 1.356 1_545 S
N1295 H1300 0.984 . S
N1295 H1301 0.985 . S
C1296 C1290 1.379 . S
C1296 C1293 1.363 . S
C1296 N1294 1.356 . S
C1297 C1291 1.363 . S
C1297 C1292 1.379 . S
C1297 N1295 1.356 1_565 S
N1298 C1290 1.356 . S
N1298 H1304 0.984 . S
N1298 H1305 0.984 1_565 S
N1299 C1292 1.356 . S
N1299 H1302 0.984 . S
N1299 H1303 0.985 . S
H1300 N1295 0.984 . S
H1301 N1295 0.985 . S
H1302 N1299 0.984 . S
H1303 N1299 0.985 . S
H1304 N1298 0.984 . S
H1305 N1298 0.984 1_545 S
H1306 N1294 0.984 . S
H1307 N1294 0.985 . S
C1308 C1309 1.363 . S
C1308 C1314 1.379 . S
C1308 N1316 1.356 . S
C1309 C1308 1.363 . S
C1309 C1315 1.363 . S
C1310 C1311 1.363 . S
C1310 C1315 1.379 . S
C1310 N1317 1.356 . S
C1311 C1310 1.363 . S
C1311 C1314 1.363 . S
N1312 C1314 1.356 . S
N1312 H1324 0.984 . S
N1312 H1325 0.985 . S
N1313 C1315 1.356 . S
N1313 H1318 0.984 . S
N1313 H1319 0.985 . S
C1314 C1308 1.379 . S
C1314 C1311 1.363 . S
C1314 N1312 1.356 . S
C1315 C1309 1.363 . S
C1315 C1310 1.379 . S
C1315 N1313 1.356 . S
N1316 C1308 1.356 . S
N1316 H1322 0.984 . S
N1316 H1323 0.984 . S
N1317 C1310 1.356 . S
N1317 H1320 0.984 . S
N1317 H1321 0.985 . S
H1318 N1313 0.984 . S
H1319 N1313 0.985 . S
H1320 N1317 0.984 . S
H1321 N1317 0.985 . S
H1322 N1316 0.984 . S
H1323 N1316 0.984 . S
H1324 N1312 0.984 . S
H1325 N1312 0.985 . S
C1326 C1327 1.363 1_556 S
C1326 C1332 1.379 . S
C1326 N1334 1.356 1_556 S
C1327 C1326 1.363 1_554 S
C1327 C1333 1.363 1_554 S
C1328 C1329 1.363 . S
C1328 C1333 1.379 . S
C1328 N1335 1.356 . S
C1329 C1328 1.363 . S
C1329 C1332 1.363 . S
N1330 C1332 1.356 . S
N1330 H1342 0.984 . S
N1330 H1343 0.985 . S
N1331 C1333 1.356 1_554 S
N1331 H1336 0.984 . S
N1331 H1337 0.985 1_554 S
C1332 C1326 1.379 . S
C1332 C1329 1.363 . S
C1332 N1330 1.356 . S
C1333 C1327 1.363 1_556 S
C1333 C1328 1.379 . S
C1333 N1331 1.356 1_556 S
N1334 C1326 1.356 1_554 S
N1334 H1340 0.984 . S
N1334 H1341 0.984 . S
N1335 C1328 1.356 . S
N1335 H1338 0.984 . S
N1335 H1339 0.985 . S
H1336 N1331 0.984 . S
H1337 N1331 0.985 1_556 S
H1338 N1335 0.984 . S
H1339 N1335 0.985 . S
H1340 N1334 0.984 . S
H1341 N1334 0.984 . S
H1342 N1330 0.984 . S
H1343 N1330 0.985 . S
C1344 C1345 1.363 . S
C1344 C1350 1.379 . S
C1344 N1352 1.356 . S
C1345 C1344 1.363 . S
C1345 C1351 1.363 . S
C1346 C1347 1.363 . S
C1346 C1351 1.379 . S
C1346 N1353 1.356 . S
C1347 C1346 1.363 . S
C1347 C1350 1.363 . S
N1348 C1350 1.356 . S
N1348 H1360 0.984 . S
N1348 H1361 0.985 . S
N1349 C1351 1.356 . S
N1349 H1354 0.984 . S
N1349 H1355 0.985 . S
C1350 C1344 1.379 . S
C1350 C1347 1.363 . S
C1350 N1348 1.356 . S
C1351 C1345 1.363 . S
C1351 C1346 1.379 . S
C1351 N1349 1.356 . S
N1352 C1344 1.356 . S
N1352 H1358 0.984 . S
N1352 H1359 0.984 . S
N1353 C1346 1.356 . S
N1353 H1356 0.984 . S
N1353 H1357 0.985 . S
H1354 N1349 0.984 . S
H1355 N1349 0.985 . S
H1356 N1353 0.984 . S
H1357 N1353 0.985 . S
H1358 N1352 0.984 . S
H1359 N1352 0.984 . S
H1360 N1348 0.984 . S
H1361 N1348 0.985 . S
C1362 C1363 1.363 . S
C1362 C1368 1.379 . S
C1362 N1370 1.356 . S
C1363 C1362 1.363 . S
C1363 C1369 1.363 . S
C1364 C1365 1.363 . S
C1364 C1369 1.379 . S
C1364 N1371 1.356 . S
C1365 C1364 1.363 . S
C1365 C1368 1.363 . S
N1366 C1368 1.356 . S
N1366 H1378 0.984 . S
N1366 H1379 0.985 . S
N1367 C1369 1.356 . S
N1367 H1372 0.984 . S
N1367 H1373 0.985 . S
C1368 C1362 1.379 . S
C1368 C1365 1.363 . S
C1368 N1366 1.356 . S
C1369 C1363 1.363 . S
C1369 C1364 1.379 . S
C1369 N1367 1.356 . S
N1370 C1362 1.356 . S
N1370 H1376 0.984 . S
N1370 H1377 0.984 . S
N1371 C1364 1.356 . S
N1371 H1374 0.984 . S
N1371 H1375 0.985 . S
H1372 N1367 0.984 . S
H1373 N1367 0.985 . S
H1374 N1371 0.984 . S
H1375 N1371 0.985 . S
H1376 N1370 0.984 . S
H1377 N1370 0.984 . S
H1378 N1366 0.984 . S
H1379 N1366 0.985 . S
C1380 C1381 1.363 . S
C1380 C1386 1.379 . S
C1380 N1388 1.356 . S
C1381 C1380 1.363 . S
C1381 C1387 1.363 . S
C1382 C1383 1.363 . S
C1382 C1387 1.379 . S
C1382 N1389 1.356 . S
C1383 C1382 1.363 . S
C1383 C1386 1.363 . S
N1384 C1386 1.356 . S
N1384 H1396 0.984 . S
N1384 H1397 0.985 . S
N1385 C1387 1.356 . S
N1385 H1390 0.984 . S
N1385 H1391 0.985 . S
C1386 C1380 1.379 . S
C1386 C1383 1.363 . S
C1386 N1384 1.356 . S
C1387 C1381 1.363 . S
C1387 C1382 1.379 . S
C1387 N1385 1.356 . S
N1388 C1380 1.356 . S
N1388 H1394 0.984 . S
N1388 H1395 0.984 . S
N1389 C1382 1.356 . S
N1389 H1392 0.984 . S
N1389 H1393 0.985 . S
H1390 N1385 0.984 . S
H1391 N1385 0.985 . S
H1392 N1389 0.984 . S
H1393 N1389 0.985 . S
H1394 N1388 0.984 . S
H1395 N1388 0.984 . S
H1396 N1384 0.984 . S
H1397 N1384 0.985 . S
C1398 C1399 1.363 . S
C1398 C1404 1.379 . S
C1398 N1406 1.356 . S
C1399 C1398 1.363 . S
C1399 C1405 1.363 . S
C1400 C1401 1.363 . S
C1400 C1405 1.379 . S
C1400 N1407 1.356 . S
C1401 C1400 1.363 . S
C1401 C1404 1.363 . S
N1402 C1404 1.356 . S
N1402 H1414 0.984 . S
N1402 H1415 0.985 . S
N1403 C1405 1.356 . S
N1403 H1408 0.984 . S
N1403 H1409 0.985 . S
C1404 C1398 1.379 . S
C1404 C1401 1.363 . S
C1404 N1402 1.356 . S
C1405 C1399 1.363 . S
C1405 C1400 1.379 . S
C1405 N1403 1.356 . S
N1406 C1398 1.356 . S
N1406 H1412 0.984 . S
N1406 H1413 0.984 . S
N1407 C1400 1.356 . S
N1407 H1410 0.984 . S
N1407 H1411 0.985 . S
H1408 N1403 0.984 . S
H1409 N1403 0.985 . S
H1410 N1407 0.984 . S
H1411 N1407 0.985 . S
H1412 N1406 0.984 . S
H1413 N1406 0.984 . S
H1414 N1402 0.984 . S
H1415 N1402 0.985 . S
C553 C16 1.641 . S
C555 N209 1.656 . S
C571 N35 1.393 . S
C573 C246 1.357 . S
C589 N255 1.442 . S
C591 N58 1.423 . S
C607 N186 1.545 . S
C609 C85 1.573 . S
C625 N242 1.621 1_554 S
C627 C99 1.645 . S
C643 N117 1.417 . S
C645 C260 1.404 . S
C661 N140 1.447 . S
C663 C191 1.476 . S
C679 C214 1.493 . S
C681 C168 1.494 . S
C697 N94 1.099 . S
C699 N288 1.179 . S
C715 N163 1.605 1_565 S
C717 C361 1.615 . S
C733 C375 1.396 . S
C735 C122 1.389 . S
C751 N81 1.028 . S
C753 N301 0.988 . S
C769 N324 1.945 . S
C771 C145 1.959 . S
C787 N12 1.325 . S
C789 N439 1.360 . S
C805 C62 1.663 . S
C807 C421 1.672 . S
C823 N357 1.221 1_554 S
C825 C499 1.263 . S
C841 C522 1.676 . S
C843 C292 1.700 . S
C859 N531 1.388 . S
C861 N370 1.403 . S
C877 C476 1.563 . S
C879 C329 1.581 . S
C895 N518 1.296 . S
C897 N393 1.265 . S
C913 N416 1.673 . S
C915 C536 1.680 . S
C931 N472 1.481 . S
C933 C306 1.488 . S
C949 C444 1.507 . S
C951 N495 1.471 . S
C967 C39 2.043 1_545 S
C969 C398 2.048 . S
C985 C108 1.461 . S
C987 C7 1.464 . S
C1003 N25 0.983 . S
C1005 N127 0.998 . S
C1021 N48 1.136 . S
C1023 N150 1.153 . S
C1039 C177 1.161 . S
C1041 C76 1.170 . S
C1057 N196 1.231 . S
C1059 C223 1.217 . S
C1075 N219 1.293 . S
C1077 N232 1.310 . S
C1093 C269 1.048 . S
C1095 C237 1.064 . S
C1111 C200 1.277 . S
C1113 N265 1.253 . S
C1129 N71 0.791 . S
C1131 N278 0.786 . S
C1147 N173 1.343 . S
C1149 C430 1.349 . S
C1165 N104 0.959 . S
C1167 N311 0.954 . S
C1183 N449 1.123 . S
C1185 C131 1.148 . S
C1201 N334 1.625 . S
C1203 C30 1.655 . S
C1219 N2 1.123 . S
C1221 C384 1.125 . S
C1237 C53 1.473 . S
C1239 C352 1.473 . S
C1255 N347 1.061 . S
C1257 N403 1.070 . S
C1273 N426 1.317 . S
C1275 C283 1.341 . S
C1291 N380 1.172 1_565 S
C1293 C315 1.179 . S
C1309 C338 1.153 . S
C1311 C453 1.159 . S
C1327 N485 1.283 . S
C1329 C467 1.291 . S
C1345 N508 1.126 . S
C1347 C490 1.124 . S
C1363 C545 1.322 . S
C1365 C513 1.339 . S
C1381 N462 1.103 . S
C1383 N541 1.120 . S
C1399 C407 1.731 . S
C1401 C154 1.731 . S
