# Generated by pormake.
# Topology wgu, (5)-cn, num edge types: 1
# Building blocks:
#     Node 0, Type 0, BuildingBlock: XOMCOT_clean_sbu_0, # of connection points: 5
#     Node 1, Type 0, BuildingBlock: XOMCOT_clean_sbu_0, # of connection points: 5
#     Node 2, Type 0, BuildingBlock: XOMCOT_clean_sbu_0, # of connection points: 5
#     Node 3, Type 0, BuildingBlock: XOMCOT_clean_sbu_0, # of connection points: 5
#     Node 4, Type 0, BuildingBlock: XOMCOT_clean_sbu_0, # of connection points: 5
#     Node 5, Type 0, BuildingBlock: XOMCOT_clean_sbu_0, # of connection points: 5
#     Node 6, Type 0, BuildingBlock: XOMCOT_clean_sbu_0, # of connection points: 5
#     Node 7, Type 0, BuildingBlock: XOMCOT_clean_sbu_0, # of connection points: 5
#     Edge 8, Type (0, 0), BuildingBlock: AJUNOK_clean_linker_0, # of connection points: 2
#     Edge 9, Type (0, 0), BuildingBlock: AJUNOK_clean_linker_0, # of connection points: 2
#     Edge 10, Type (0, 0), BuildingBlock: AJUNOK_clean_linker_0, # of connection points: 2
#     Edge 11, Type (0, 0), BuildingBlock: AJUNOK_clean_linker_0, # of connection points: 2
#     Edge 12, Type (0, 0), BuildingBlock: AJUNOK_clean_linker_0, # of connection points: 2
#     Edge 13, Type (0, 0), BuildingBlock: AJUNOK_clean_linker_0, # of connection points: 2
#     Edge 14, Type (0, 0), BuildingBlock: AJUNOK_clean_linker_0, # of connection points: 2
#     Edge 15, Type (0, 0), BuildingBlock: AJUNOK_clean_linker_0, # of connection points: 2
#     Edge 16, Type (0, 0), BuildingBlock: AJUNOK_clean_linker_0, # of connection points: 2
#     Edge 17, Type (0, 0), BuildingBlock: AJUNOK_clean_linker_0, # of connection points: 2
#     Edge 18, Type (0, 0), BuildingBlock: AJUNOK_clean_linker_0, # of connection points: 2
#     Edge 19, Type (0, 0), BuildingBlock: AJUNOK_clean_linker_0, # of connection points: 2
#     Edge 20, Type (0, 0), BuildingBlock: AJUNOK_clean_linker_0, # of connection points: 2
#     Edge 21, Type (0, 0), BuildingBlock: AJUNOK_clean_linker_0, # of connection points: 2
#     Edge 22, Type (0, 0), BuildingBlock: AJUNOK_clean_linker_0, # of connection points: 2
#     Edge 23, Type (0, 0), BuildingBlock: AJUNOK_clean_linker_0, # of connection points: 2
#     Edge 24, Type (0, 0), BuildingBlock: AJUNOK_clean_linker_0, # of connection points: 2
#     Edge 25, Type (0, 0), BuildingBlock: AJUNOK_clean_linker_0, # of connection points: 2
#     Edge 26, Type (0, 0), BuildingBlock: AJUNOK_clean_linker_0, # of connection points: 2
#     Edge 27, Type (0, 0), BuildingBlock: AJUNOK_clean_linker_0, # of connection points: 2
# Relax obj value: 0.189
# Max RMSD: 0.155
# Mean RMSD: 0.155
data_MOF--net-wgu--node1-XOMCOT_clean_sbu_0--edge1-AJUNOK_clean_linker_0
_symmetry_space_group_name_H-M    P1
_symmetry_Int_Tables_number       1
_symmetry_cell_setting            triclinic
loop_
_symmetry_equiv_pos_as_xyz
'x, y, z'
_cell_length_a     24.736377
_cell_length_b     24.713213
_cell_length_c     21.834096
_cell_angle_alpha  89.987448
_cell_angle_beta   90.761682
_cell_angle_gamma 89.911714
loop_
_atom_site_label
_atom_site_type_symbol
_atom_site_fract_x
_atom_site_fract_y
_atom_site_fract_z
_atom_type_partial_charge
Co0 Co 0.3308 0.39453 0.12197 0.0
C1 C 0.35041 0.28891 0.06776 0.0
C2 C 0.41214 0.30785 0.13405 0.0
C3 C 0.41687 0.25402 0.11835 0.0
N4 N 0.37079 0.32987 0.1016 0.0
N5 N 0.37762 0.24238 0.07706 0.0
H6 H 0.31285 0.29152 0.04191 0.0
H7 H 0.4347 0.32843 0.16984 0.0
C8 C 0.4429 0.43785 0.08728 0.0
O9 O 0.45725 0.39122 0.06385 0.0
N10 N 0.2895 0.45856 0.14349 0.0
C11 C 0.26193 0.46847 0.19534 0.0
C12 C 0.23706 0.51806 0.19037 0.0
C13 C 0.28144 0.50276 0.10817 0.0
N14 N 0.24891 0.53923 0.13537 0.0
C15 C 0.24954 0.39738 1.02941 0.0
C16 C 0.31597 0.38661 0.92949 0.0
C17 C 0.25996 0.38031 0.92118 0.0
C18 C 0.22657 0.3876 0.97177 0.0
C19 C 0.33737 0.397 0.98808 0.0
N20 N 0.30432 0.40017 0.03758 0.0
H21 H 0.22327 0.39955 0.0685 0.0
H22 H 0.38049 0.39852 0.99376 0.0
H23 H 0.25926 0.44189 0.23438 0.0
H24 H 0.29916 0.5081 0.06352 0.0
O25 O 0.27457 0.34778 0.15174 0.0
O26 O 0.34283 0.37858 0.20837 0.0
O27 O 0.39514 0.44454 0.10829 0.0
C28 C 0.29973 0.34829 0.20429 0.0
H29 H 0.44501 0.22513 0.13815 0.0
H30 H 0.2113 0.5367 0.2241 0.0
H31 H 0.34315 0.38139 0.89144 0.0
H32 H 0.1832 0.38236 0.96773 0.0
Co33 Co 0.65138 0.32777 0.62206 0.0
C34 C 0.75756 0.33832 0.56785 0.0
C35 C 0.73609 0.41233 0.61288 0.0
C36 C 0.78839 0.41678 0.59185 0.0
N37 N 0.71703 0.36307 0.59739 0.0
N38 N 0.8012 0.37029 0.56313 0.0
H39 H 0.75607 0.2966 0.55279 0.0
H40 H 0.71463 0.44195 0.63966 0.0
C41 C 0.59515 0.43269 0.63468 0.0
O42 O 0.61649 0.43361 0.69001 0.0
N43 N 0.5855 0.29175 0.64694 0.0
C44 C 0.57367 0.27028 0.70208 0.0
C45 C 0.52363 0.24624 0.69847 0.0
C46 C 0.54191 0.28128 0.61108 0.0
N47 N 0.50412 0.25263 0.64108 0.0
C48 C 0.64463 0.24312 0.53424 0.0
C49 C 0.66252 0.3074 0.43286 0.0
C50 C 0.6682 0.251 0.42737 0.0
C51 C 0.65588 0.21877 0.47817 0.0
C52 C 0.64981 0.3302 0.48963 0.0
N53 N 0.64394 0.29808 0.54 0.0
H54 H 0.63976 0.21782 0.57418 0.0
H55 H 0.6499 0.37374 0.49439 0.0
H56 H 0.59934 0.27111 0.74242 0.0
H57 H 0.53798 0.29435 0.56393 0.0
O58 O 0.69515 0.27037 0.65713 0.0
O59 O 0.6698 0.34353 0.7072 0.0
O60 O 0.60622 0.39338 0.59878 0.0
C61 C 0.69693 0.29829 0.70738 0.0
H62 H 0.8153 0.45087 0.5983 0.0
H63 H 0.50368 0.22454 0.73482 0.0
H64 H 0.67136 0.33389 0.39477 0.0
H65 H 0.65745 0.17505 0.47549 0.0
Co66 Co 0.71527 0.65484 0.12945 0.0
C67 C 0.70618 0.7614 0.07477 0.0
C68 C 0.63152 0.74055 0.11771 0.0
C69 C 0.62843 0.79366 0.09797 0.0
N70 N 0.68038 0.72065 0.10282 0.0
N71 N 0.67556 0.80621 0.07109 0.0
H72 H 0.74792 0.75935 0.06059 0.0
H73 H 0.60141 0.71921 0.14366 0.0
C74 C 0.60986 0.59968 0.13908 0.0
O75 O 0.60779 0.62143 0.19382 0.0
N76 N 0.75092 0.58881 0.1566 0.0
C77 C 0.76835 0.57614 0.21376 0.0
C78 C 0.79128 0.52548 0.21304 0.0
C79 C 0.76299 0.54516 0.12215 0.0
N80 N 0.78783 0.5062 0.15551 0.0
C81 C 0.80084 0.64938 0.04387 0.0
C82 C 0.73701 0.66598 0.94062 0.0
C83 C 0.79324 0.67284 0.93633 0.0
C84 C 0.82533 0.66138 0.98821 0.0
C85 C 0.71409 0.65293 0.99708 0.0
N86 N 0.7459 0.64754 0.04832 0.0
H87 H 0.82591 0.64495 0.08451 0.0
H88 H 0.67056 0.6523 1.00074 0.0
H89 H 0.76522 0.60151 0.25374 0.0
H90 H 0.75365 0.54172 0.07374 0.0
O91 O 0.77199 0.69858 0.16554 0.0
O92 O 0.69824 0.67322 0.21392 0.0
O93 O 0.6501 0.60994 0.10476 0.0
C94 C 0.74314 0.7007 0.2146 0.0
H95 H 0.5949 0.8212 0.10424 0.0
H96 H 0.81013 0.50492 0.25158 0.0
H97 H 0.71061 0.67411 0.90172 0.0
H98 H 0.86897 0.66398 0.98659 0.0
Co99 Co 0.39085 0.71348 0.62384 0.0
C100 C 0.28629 0.69989 0.5635 0.0
C101 C 0.30085 0.63541 0.62715 0.0
C102 C 0.24732 0.63374 0.60866 0.0
N103 N 0.32545 0.67661 0.59808 0.0
N104 N 0.2384 0.67445 0.56866 0.0
H105 H 0.29107 0.73844 0.54077 0.0
H106 H 0.31932 0.61114 0.66297 0.0
C107 C 0.43238 0.60055 0.58683 0.0
O108 O 0.38587 0.58722 0.5616 0.0
N109 N 0.45553 0.75187 0.6508 0.0
C110 C 0.46821 0.76925 0.70794 0.0
C111 C 0.51742 0.79492 0.70694 0.0
C112 C 0.49796 0.76654 0.61624 0.0
N113 N 0.53566 0.79366 0.6492 0.0
C114 C 0.39433 0.79667 0.53426 0.0
C115 C 0.3918 0.73125 0.43177 0.0
C116 C 0.38286 0.78706 0.4245 0.0
C117 C 0.38594 0.81999 0.47666 0.0
C118 C 0.39995 0.70946 0.49044 0.0
N119 N 0.39917 0.74191 0.54103 0.0
H120 H 0.39377 0.8225 0.57416 0.0
H121 H 0.40321 0.66632 0.49493 0.0
H122 H 0.44394 0.76392 0.74821 0.0
H123 H 0.5017 0.75693 0.56814 0.0
O124 O 0.3455 0.77059 0.65511 0.0
O125 O 0.37236 0.69921 0.70857 0.0
O126 O 0.43947 0.64806 0.60919 0.0
C127 C 0.34452 0.74409 0.70643 0.0
H128 H 0.21657 0.60697 0.62627 0.0
H129 H 0.53801 0.81364 0.74553 0.0
H130 H 0.39007 0.7043 0.39269 0.0
H131 H 0.37835 0.86308 0.47376 0.0
Co132 Co 0.8325 0.15455 1.00441 0.0
C133 C 0.83999 0.26082 0.0601 0.0
C134 C 0.91432 0.24202 1.01518 0.0
C135 C 0.91695 0.29458 0.0368 0.0
N136 N 0.86598 0.22117 1.03025 0.0
N137 N 0.87025 0.3057 0.06544 0.0
H138 H 0.79844 0.25782 0.0747 0.0
H139 H 0.94442 0.22161 0.98818 0.0
C140 C 0.93881 0.1013 0.99045 0.0
O141 O 0.9388 0.12281 0.93549 0.0
N142 N 0.79834 0.0876 0.97823 0.0
C143 C 0.78081 0.0739 0.92144 0.0
C144 C 0.75728 1.02358 0.92371 0.0
C145 C 0.78618 0.04478 1.01382 0.0
N146 N 0.76012 1.00582 0.98192 0.0
C147 C 0.74984 0.1457 0.09318 0.0
C148 C 0.81608 0.16164 0.19457 0.0
C149 C 0.75972 0.16483 0.20154 0.0
C150 C 0.72662 0.1546 0.15021 0.0
C151 C 0.83774 0.15139 0.13675 0.0
N152 N 0.80462 0.14583 0.08664 0.0
H153 H 0.72372 0.14163 0.05336 0.0
H154 H 0.88109 0.1529 0.13133 0.0
H155 H 0.78411 0.09847 0.88079 0.0
H156 H 0.79625 0.04201 0.06209 0.0
O157 O 0.77315 0.19645 0.97097 0.0
O158 O 0.84611 0.17407 0.9194 0.0
O159 O 0.89965 0.1114 1.02639 0.0
C160 C 0.80003 0.19973 0.9206 0.0
H161 H 0.94987 0.3228 1.03072 0.0
H162 H 0.73838 1.00219 0.88584 0.0
H163 H 0.84338 0.17052 0.23239 0.0
H164 H 0.68299 0.15592 0.1535 0.0
Co165 Co 0.8877 0.83551 0.51063 0.0
C166 C 0.78162 0.84653 0.56475 0.0
C167 C 0.80318 0.92026 0.51936 0.0
C168 C 0.75017 0.92423 0.53808 0.0
N169 N 0.82259 0.87142 0.53629 0.0
N170 N 0.73705 0.87765 0.5664 0.0
H171 H 0.78327 0.80494 0.58035 0.0
H172 H 0.82469 0.94968 0.49245 0.0
C173 C 0.94175 0.94061 0.49291 0.0
O174 O 0.91964 0.93925 0.438 0.0
N175 N 0.95301 0.79884 0.48416 0.0
C176 C 0.9626 0.77708 0.42855 0.0
C177 C 1.01279 0.75343 0.42933 0.0
C178 C 0.99825 0.78864 0.51764 0.0
N179 N 0.03525 0.76085 0.48518 0.0
C180 C 0.89752 0.75292 0.60105 0.0
C181 C 0.88242 0.81974 0.70099 0.0
C182 C 0.87912 0.76338 0.70927 0.0
C183 C 0.88899 0.72999 0.65861 0.0
C184 C 0.89238 0.84107 0.64275 0.0
N185 N 0.89744 0.8077 0.59334 0.0
H186 H 0.90102 0.72661 0.56174 0.0
H187 H 0.89103 0.88444 0.63638 0.0
H188 H 0.93532 0.77738 0.38962 0.0
H189 H 1.00402 0.80106 0.56483 0.0
O190 O 0.84332 0.7773 0.47833 0.0
O191 O 0.86684 0.84961 0.42588 0.0
O192 O 0.93297 0.90183 0.53037 0.0
C193 C 0.83997 0.80439 0.4275 0.0
H194 H 0.72298 0.95789 0.52987 0.0
H195 H 0.0307 0.73108 0.39206 0.0
H196 H 0.87379 0.84738 0.73804 0.0
H197 H 0.88761 0.68635 0.66277 0.0
Co198 Co 0.21859 0.89515 0.99956 0.0
C199 C 0.19968 0.78939 0.05361 0.0
C200 C 0.13688 0.80885 0.98875 0.0
C201 C 0.13242 0.75495 1.00422 0.0
N202 N 0.17875 0.8306 1.02046 0.0
N203 N 0.1723 0.74301 0.04466 0.0
H204 H 0.23766 0.79172 0.07867 0.0
H205 H 0.11376 0.82967 0.95353 0.0
C206 C 0.10726 0.93906 0.03688 0.0
O207 O 0.09317 0.89237 0.06026 0.0
N208 N 0.25975 0.95895 0.97747 0.0
C209 C 0.28754 0.96846 0.9257 0.0
C210 C 0.31266 1.01788 0.93058 0.0
C211 C 0.26792 1.00317 1.01265 0.0
N212 N 0.30074 0.03928 0.98546 0.0
C213 C 0.30152 0.89793 0.09041 0.0
C214 C 0.23685 0.88377 0.19125 0.0
C215 C 0.29303 0.87789 0.19815 0.0
C216 C 0.32557 0.88719 0.14735 0.0
C217 C 0.21439 0.89565 0.13352 0.0
N218 N 0.24657 0.90022 0.08343 0.0
H219 H 0.32711 0.90109 0.05083 0.0
H220 H 0.17117 0.89674 0.12873 0.0
H221 H 0.29033 0.94164 0.88689 0.0
H222 H 0.25022 1.00868 0.05728 0.0
O223 O 0.27406 0.8481 0.96838 0.0
O224 O 0.20498 0.87968 0.91336 0.0
O225 O 0.15467 0.94558 1.01488 0.0
C226 C 0.24787 0.84888 0.91646 0.0
H227 H 0.10398 0.72621 0.98485 0.0
H228 H 0.33871 0.03617 0.89695 0.0
H229 H 0.2104 0.8769 0.22961 0.0
H230 H 0.36907 0.88255 0.15062 0.0
Co231 Co 0.15065 0.21921 0.49664 0.0
C232 C 0.25571 0.20083 0.55443 0.0
C233 C 0.23662 0.13653 0.49207 0.0
C234 C 0.29005 0.13152 0.5101 0.0
N235 N 0.21492 0.17961 0.52075 0.0
N236 N 0.30186 0.17243 0.54884 0.0
H237 H 0.25329 0.23947 0.57757 0.0
H238 H 0.21612 0.11267 0.45736 0.0
C239 C 0.10537 0.10792 0.53436 0.0
O240 O 0.15132 0.09241 0.55947 0.0
N241 N 0.0868 0.25979 0.47125 0.0
C242 C 0.07487 0.28043 0.4153 0.0
C243 C 0.02436 0.30362 0.41652 0.0
C244 C 0.0429 0.2704 0.50541 0.0
N245 N 1.0045 0.29721 0.4731 0.0
C246 C 0.14915 0.30246 0.58591 0.0
C247 C 0.15899 0.23704 0.68804 0.0
C248 C 0.16772 0.29288 0.69443 0.0
C249 C 0.16073 0.32588 0.64278 0.0
C250 C 0.14706 0.21522 0.63022 0.0
N251 N 0.1446 0.24765 0.5796 0.0
H252 H 0.14741 0.32819 0.5459 0.0
H253 H 0.14414 0.17206 0.62592 0.0
H254 H 0.10035 0.27868 0.3756 0.0
H255 H 0.03861 0.25793 0.55262 0.0
O256 O 0.19748 0.27469 0.465 0.0
O257 O 0.16742 0.20468 0.41146 0.0
O258 O 0.1002 0.15572 0.51217 0.0
C259 C 0.19711 0.24829 0.41359 0.0
H260 H 0.31852 0.10178 0.49363 0.0
H261 H 1.00396 0.32404 0.37889 0.0
H262 H 0.16374 0.21018 0.72695 0.0
H263 H 0.16771 0.36907 0.64534 0.0
C264 C 0.32505 0.13495 0.97099 0.0
C265 C 0.32051 0.08974 1.00967 0.0
C266 C 0.34453 0.18444 0.99326 0.0
C267 C 0.36108 0.19021 0.05471 0.0
H268 H 0.31259 0.13222 0.92336 0.0
H269 H 0.34666 0.2186 0.96231 0.0
S270 S 0.35771 0.08403 0.17468 0.0
N271 N 0.33481 0.05361 0.11221 0.0
N272 N 0.37097 0.14694 0.15425 0.0
C273 C 0.35716 0.14526 0.09385 0.0
C274 C 0.33687 0.09495 0.0713 0.0
C275 C 0.95005 0.3437 0.55081 0.0
C276 C 0.95324 0.31602 0.49471 0.0
C277 C 0.9004 0.3632 0.57203 0.0
C278 C 0.85236 0.3546 0.53836 0.0
H279 H 0.98629 0.35062 0.57804 0.0
H280 H 0.89924 0.38379 0.61577 0.0
S281 S 0.83921 0.28421 0.38904 0.0
N282 N 0.90442 0.28111 0.40596 0.0
N283 N 0.81101 0.31717 0.44619 0.0
C284 C 0.8551 0.32704 0.48223 0.0
C285 C 0.90561 0.30792 0.46027 0.0
C286 C 0.74285 0.90828 0.97105 0.0
C287 C 0.73785 0.95629 1.00497 0.0
C288 C 0.72143 0.85957 0.99254 0.0
C289 C 0.69331 0.85745 0.048 0.0
H290 H 0.76438 0.90829 0.92819 0.0
H291 H 0.72699 0.82311 0.9658 0.0
S292 S 0.66845 0.97196 0.15346 0.0
N293 N 0.70219 0.99899 0.09631 0.0
N294 N 0.66185 0.9071 0.13665 0.0
C295 C 0.68739 0.90521 0.08201 0.0
C296 C 0.70981 0.95473 0.06054 0.0
C297 C 0.09234 0.71737 0.56485 0.0
C298 C 0.08671 0.74025 0.50613 0.0
C299 C 0.14161 0.69458 0.58455 0.0
C300 C 0.18708 0.69444 0.54639 0.0
H301 H 0.05816 0.71639 0.59535 0.0
H302 H 0.14448 0.67795 0.63034 0.0
S303 S 0.19332 0.75018 0.38904 0.0
N304 N 0.13084 0.76237 0.41069 0.0
N305 N 0.22308 0.71887 0.44722 0.0
C306 C 0.18188 0.71736 0.48773 0.0
C307 C 0.13183 0.74037 0.4677 0.0
C308 C 0.83781 0.45353 0.0788 0.0
C309 C 0.80892 0.45562 0.13381 0.0
C310 C 0.8597 0.40468 0.05768 0.0
C311 C 0.85254 0.35633 0.09045 0.0
H312 H 0.84383 0.49004 0.05231 0.0
H313 H 0.88101 0.40434 1.01469 0.0
S314 S 0.78005 0.34024 0.2368 0.0
N315 N 0.7744 0.40529 0.2205 0.0
N316 N 0.81538 0.31349 0.18071 0.0
C317 C 0.82396 0.35798 0.14557 0.0
C318 C 0.80221 0.40765 0.16733 0.0
C319 C 0.63285 0.81125 0.66382 0.0
C320 C 0.58547 0.81642 0.62804 0.0
C321 C 0.682 0.83246 0.64386 0.0
C322 C 0.68527 0.86053 0.58805 0.0
H323 H 0.63207 0.78958 0.7069 0.0
H324 H 0.71795 0.82665 0.67199 0.0
S325 S 0.57251 0.8865 0.47839 0.0
N326 N 0.54444 0.85264 0.53491 0.0
N327 N 0.63709 0.89268 0.49739 0.0
C328 C 0.63804 0.86693 0.55235 0.0
C329 C 0.58807 0.84469 0.5723 0.0
C330 C 0.22527 0.63512 0.15008 0.0
C331 C 0.22952 0.58995 0.11126 0.0
C332 C 0.20583 0.68476 0.12804 0.0
C333 C 0.18902 0.69075 0.0667 0.0
H334 H 0.23785 0.63221 0.19765 0.0
H335 H 0.20387 0.71885 0.15911 0.0
S336 S 0.19195 0.585 0.94633 0.0
N337 N 0.21496 0.55424 1.00861 0.0
N338 N 0.17881 0.64789 0.96705 0.0
C339 C 0.19278 0.64594 1.02738 0.0
C340 C 0.21306 0.59545 0.04969 0.0
C341 C 0.35842 0.21094 0.63133 0.0
C342 C 0.35393 0.18913 0.57202 0.0
C343 C 0.40766 0.23132 0.65363 0.0
C344 C 0.45403 0.23137 0.6171 0.0
H345 H 0.3234 0.21245 0.66054 0.0
H346 H 0.40927 0.24811 0.69942 0.0
S347 S 0.4638 0.17861 0.45858 0.0
N348 N 0.39999 0.16894 0.47699 0.0
N349 N 0.49285 0.20648 0.51932 0.0
C350 C 0.45025 0.20932 0.55784 0.0
C351 C 0.40014 0.18825 0.53523 0.0
C352 C 0.51602 0.56254 0.1492 0.0
C353 C 0.56633 0.56132 0.11963 0.0
C354 C 0.47569 0.524 0.1365 0.0
C355 C 0.48404 0.48183 0.09427 0.0
H356 H 0.50787 0.59315 0.18338 0.0
H357 H 0.43834 0.52631 0.16173 0.0
S358 S 0.60754 0.46206 1.00149 0.0
N359 N 0.62114 0.51592 0.04365 0.0
N360 N 0.54592 0.44313 1.02022 0.0
C361 C 0.53358 0.4811 0.06284 0.0
C362 C 0.57447 0.52088 0.07531 0.0
C363 C 0.55723 0.52617 0.64797 0.0
C364 C 0.55637 0.47642 0.6164 0.0
C365 C 0.5184 0.56661 0.63635 0.0
C366 C 0.47622 0.55896 0.59324 0.0
H367 H 0.58784 0.53382 0.68283 0.0
H368 H 0.52058 0.60353 0.66301 0.0
S369 S 0.45703 0.43696 0.49568 0.0
N370 N 0.5111 0.42279 0.53789 0.0
N371 N 0.43771 0.49818 0.51652 0.0
C372 C 0.47571 0.50991 0.56002 0.0
C373 C 0.51583 0.46893 0.57137 0.0
C374 C 0.07294 0.02492 0.98783 0.0
C375 C 0.06605 0.98325 1.03104 0.0
C376 C 0.03223 0.06355 0.97638 0.0
C377 C 0.98304 0.06292 1.00828 0.0
H378 H 0.10935 0.02673 0.96088 0.0
H379 H 0.03916 0.09374 0.94139 0.0
S380 S 0.94599 0.96505 0.12967 0.0
N381 N 1.00684 0.94564 0.10839 0.0
N382 N 0.93098 1.01853 0.08739 0.0
C383 C 0.97646 1.02295 0.05352 0.0
C384 C 1.01768 0.9831 0.06468 0.0
C385 C 1.02347 0.97734 0.54907 0.0
C386 C 0.9794 0.98575 0.50877 0.0
C387 C 0.06311 1.01751 0.55834 0.0
C388 C 0.05999 0.06812 0.52839 0.0
H389 H 0.02862 0.93865 0.57176 0.0
H390 H 0.09708 1.00824 0.58836 0.0
S391 S 0.94914 0.11245 0.42316 0.0
N392 N 0.93281 0.04995 0.44208 0.0
N393 N 1.00636 0.12532 0.46 0.0
C394 C 1.01454 0.07787 0.4903 0.0
C395 C 0.97461 0.03678 0.48033 0.0
C396 C 0.28733 0.33765 0.3171 0.0
C397 C 0.2778 0.31866 0.25734 0.0
C398 C 0.26196 0.3137 0.36735 0.0
C399 C 0.22662 0.26939 0.35987 0.0
H400 H 0.31296 0.37254 0.32494 0.0
H401 H 0.26944 0.3308 0.41234 0.0
S402 S 0.19363 0.20036 0.21316 0.0
N403 N 0.23428 0.25025 0.19372 0.0
N404 N 0.18706 0.20485 0.28815 0.0
C405 C 0.21894 0.24832 0.30058 0.0
C406 C 0.24437 0.27309 0.24933 0.0
C407 C 0.79008 0.21223 0.80726 0.0
C408 C 0.77732 0.22884 0.86686 0.0
C409 C 0.7645 0.23573 0.75598 0.0
C410 C 0.72599 0.27739 0.76234 0.0
H411 H 0.81855 0.17954 0.80021 0.0
H412 H 0.77459 0.2206 0.71099 0.0
S413 S 0.68224 0.3388 0.90863 0.0
N414 N 0.72611 0.29161 0.92941 0.0
N415 N 0.67888 0.33637 0.83309 0.0
C416 C 0.71469 0.29598 0.82164 0.0
C417 C 0.7401 0.27149 0.87388 0.0
C418 C 0.78019 0.73434 0.37908 0.0
C419 C 0.81078 0.78214 0.37328 0.0
C420 C 0.75601 0.70944 0.32787 0.0
C421 C 0.7624 0.73093 0.26892 0.0
H422 H 0.77573 0.71525 0.42339 0.0
H423 H 0.73413 0.67196 0.33421 0.0
S424 S 0.83232 0.85858 0.22921 0.0
N425 N 0.84125 0.85271 0.30402 0.0
N426 N 0.79686 0.8051 0.20785 0.0
C427 C 0.79071 0.77982 0.26262 0.0
C428 C 0.81461 0.80568 0.3148 0.0
C429 C 0.25931 0.83804 0.80355 0.0
C430 C 0.26807 0.81838 0.86318 0.0
C431 C 0.28317 0.8128 0.75307 0.0
C432 C 0.31608 0.76651 0.76024 0.0
H433 H 0.23556 0.87436 0.796 0.0
H434 H 0.27653 0.83046 0.70818 0.0
S435 S 0.34564 0.69525 0.9066 0.0
N436 N 0.30793 0.74741 0.92639 0.0
N437 N 0.35221 0.69955 0.83158 0.0
C438 C 0.32278 0.74487 0.81944 0.0
C439 C 0.29897 0.77095 0.87089 0.0
C440 C 0.80086 0.67574 0.82151 0.0
C441 C 0.81772 0.69495 0.8793 0.0
C442 C 0.82163 0.69748 0.76727 0.0
C443 C 0.86028 0.73941 0.76825 0.0
H444 H 0.77118 0.64367 0.81806 0.0
H445 H 0.80619 0.68198 0.72407 0.0
S446 S 0.91779 0.80446 0.90782 0.0
N447 N 0.87465 0.75951 0.9342 0.0
N448 N 0.91538 0.79848 0.83253 0.0
C449 C 0.87792 0.75867 0.82581 0.0
C450 C 0.85639 0.73685 0.88112 0.0
C451 C 0.32241 0.7833 0.33157 0.0
C452 C 0.36382 0.80983 0.36463 0.0
C453 C 0.29914 0.80624 0.27869 0.0
C454 C 0.31712 0.85617 0.25585 0.0
H455 H 0.30689 0.74494 0.34747 0.0
H456 H 0.26716 0.78438 0.25505 0.0
S457 S 0.42754 0.94013 0.32165 0.0
N458 N 0.42392 0.88766 0.36831 0.0
N459 N 0.38057 0.93036 0.26831 0.0
C460 C 0.35969 0.8824 0.28703 0.0
C461 C 0.38292 0.85939 0.3415 0.0
C462 C 0.23514 0.29194 0.78109 0.0
C463 C 0.1895 0.31582 0.75282 0.0
C464 C 0.25842 0.31398 0.83446 0.0
C465 C 0.23681 0.3606 0.86198 0.0
H466 H 0.25351 0.25626 0.76134 0.0
H467 H 0.29303 0.2937 0.855 0.0
S468 S 0.11794 0.43885 0.80604 0.0
N469 N 0.12364 0.38883 0.75636 0.0
N470 N 0.1676 0.43041 0.85649 0.0
C471 C 0.19131 0.38501 0.83414 0.0
C472 C 0.16772 0.36269 0.77959 0.0
C473 C 0.69415 0.22324 0.25854 0.0
C474 C 0.73541 0.18379 0.26001 0.0
C475 C 0.67218 0.24414 0.31256 0.0
C476 C 0.69034 0.22639 0.37048 0.0
H477 H 0.67952 0.23924 0.2152 0.0
H478 H 0.6408 0.27462 0.30885 0.0
S479 S 0.79746 0.12361 0.39993 0.0
N480 N 0.79269 0.12695 0.32455 0.0
N481 N 0.75291 0.16743 0.426 0.0
C482 C 0.73138 0.18669 0.37269 0.0
C483 C 0.75362 0.16526 0.3176 0.0
loop_
_geom_bond_atom_site_label_1
_geom_bond_atom_site_label_2
_geom_bond_distance
_geom_bond_site_symmetry_2
_ccdc_geom_bond_type
Co0 N4 2.148 . S
Co0 N10 2.128 . S
Co0 N20 2.194 1_554 S
Co0 O25 2.351 . S
Co0 O26 2.155 . S
Co0 O27 2.096 . S
C1 N4 1.301 . S
C1 N5 1.328 . S
C1 H6 0.930 . S
C2 C3 1.333 . S
C2 N4 1.317 . S
C2 H7 0.930 . S
C3 C2 1.333 . S
C3 N5 1.350 . S
C3 H29 0.931 . S
N4 Co0 2.148 . S
N4 C1 1.301 . S
N4 C2 1.317 . S
N5 C1 1.328 . S
N5 C3 1.350 . S
H6 C1 0.930 . S
H7 C2 0.930 . S
C8 O9 1.224 1_554 S
C8 O27 1.247 . S
O9 C8 1.224 1_556 S
N10 Co0 2.128 . S
N10 C11 1.355 . S
N10 C13 1.311 . S
C11 N10 1.355 . S
C11 C12 1.363 . S
C11 H23 0.929 . S
C12 C11 1.363 . S
C12 N14 1.375 . S
C12 H30 0.931 . S
C13 N10 1.311 . S
C13 N14 1.347 . S
C13 H24 0.929 . S
N14 C12 1.375 . S
N14 C13 1.347 . S
C15 C18 1.365 . S
C15 N20 1.328 . S
C15 H21 0.929 1_556 S
C16 C17 1.362 . S
C16 C19 1.378 . S
C16 H31 0.929 . S
C17 C16 1.362 . S
C17 C18 1.366 . S
C18 C15 1.365 . S
C18 C17 1.366 . S
C18 H32 0.930 . S
C19 C16 1.378 . S
C19 N20 1.315 . S
C19 H22 0.930 . S
N20 Co0 2.194 1_556 S
N20 C15 1.328 . S
N20 C19 1.315 . S
H21 C15 0.929 1_554 S
H22 C19 0.930 . S
H23 C11 0.929 . S
H24 C13 0.929 . S
O25 Co0 2.351 . S
O25 C28 1.244 . S
O26 Co0 2.155 . S
O26 C28 1.240 . S
O27 Co0 2.096 . S
O27 C8 1.247 . S
C28 O25 1.244 . S
C28 O26 1.240 . S
H29 C3 0.931 . S
H30 C12 0.931 . S
H31 C16 0.929 . S
H32 C18 0.930 . S
Co33 N37 2.148 . S
Co33 N43 2.128 . S
Co33 N53 2.194 . S
Co33 O58 2.351 . S
Co33 O59 2.155 . S
Co33 O60 2.096 . S
C34 N37 1.301 . S
C34 N38 1.328 . S
C34 H39 0.930 . S
C35 C36 1.333 . S
C35 N37 1.317 . S
C35 H40 0.930 . S
C36 C35 1.333 . S
C36 N38 1.350 . S
C36 H62 0.931 . S
N37 Co33 2.148 . S
N37 C34 1.301 . S
N37 C35 1.317 . S
N38 C34 1.328 . S
N38 C36 1.350 . S
H39 C34 0.930 . S
H40 C35 0.930 . S
C41 O42 1.224 . S
C41 O60 1.247 . S
O42 C41 1.224 . S
N43 Co33 2.128 . S
N43 C44 1.355 . S
N43 C46 1.311 . S
C44 N43 1.355 . S
C44 C45 1.363 . S
C44 H56 0.929 . S
C45 C44 1.363 . S
C45 N47 1.375 . S
C45 H63 0.931 . S
C46 N43 1.311 . S
C46 N47 1.347 . S
C46 H57 0.929 . S
N47 C45 1.375 . S
N47 C46 1.347 . S
C48 C51 1.365 . S
C48 N53 1.328 . S
C48 H54 0.929 . S
C49 C50 1.362 . S
C49 C52 1.378 . S
C49 H64 0.929 . S
C50 C49 1.362 . S
C50 C51 1.366 . S
C51 C48 1.365 . S
C51 C50 1.366 . S
C51 H65 0.930 . S
C52 C49 1.378 . S
C52 N53 1.315 . S
C52 H55 0.930 . S
N53 Co33 2.194 . S
N53 C48 1.328 . S
N53 C52 1.315 . S
H54 C48 0.929 . S
H55 C52 0.930 . S
H56 C44 0.929 . S
H57 C46 0.929 . S
O58 Co33 2.351 . S
O58 C61 1.244 . S
O59 Co33 2.155 . S
O59 C61 1.240 . S
O60 Co33 2.096 . S
O60 C41 1.247 . S
C61 O58 1.244 . S
C61 O59 1.240 . S
H62 C36 0.931 . S
H63 C45 0.931 . S
H64 C49 0.929 . S
H65 C51 0.930 . S
Co66 N70 2.148 . S
Co66 N76 2.128 . S
Co66 N86 2.194 1_554 S
Co66 O91 2.351 . S
Co66 O92 2.155 . S
Co66 O93 2.096 . S
C67 N70 1.301 . S
C67 N71 1.328 . S
C67 H72 0.930 . S
C68 C69 1.333 . S
C68 N70 1.317 . S
C68 H73 0.930 . S
C69 C68 1.333 . S
C69 N71 1.350 . S
C69 H95 0.931 . S
N70 Co66 2.148 . S
N70 C67 1.301 . S
N70 C68 1.317 . S
N71 C67 1.328 . S
N71 C69 1.350 . S
H72 C67 0.930 . S
H73 C68 0.930 . S
C74 O75 1.224 1_554 S
C74 O93 1.247 . S
O75 C74 1.224 1_556 S
N76 Co66 2.128 . S
N76 C77 1.355 . S
N76 C79 1.311 . S
C77 N76 1.355 . S
C77 C78 1.363 . S
C77 H89 0.929 . S
C78 C77 1.363 . S
C78 N80 1.375 . S
C78 H96 0.931 . S
C79 N76 1.311 . S
C79 N80 1.347 . S
C79 H90 0.929 . S
N80 C78 1.375 . S
N80 C79 1.347 . S
C81 C84 1.365 . S
C81 N86 1.328 . S
C81 H87 0.929 1_556 S
C82 C83 1.362 . S
C82 C85 1.378 . S
C82 H97 0.929 . S
C83 C82 1.362 . S
C83 C84 1.366 . S
C84 C81 1.365 . S
C84 C83 1.366 . S
C84 H98 0.930 . S
C85 C82 1.378 . S
C85 N86 1.315 . S
C85 H88 0.930 . S
N86 Co66 2.194 1_556 S
N86 C81 1.328 . S
N86 C85 1.315 . S
H87 C81 0.929 1_554 S
H88 C85 0.930 . S
H89 C77 0.929 . S
H90 C79 0.929 . S
O91 Co66 2.351 . S
O91 C94 1.244 . S
O92 Co66 2.155 . S
O92 C94 1.240 . S
O93 Co66 2.096 . S
O93 C74 1.247 . S
C94 O91 1.244 . S
C94 O92 1.240 . S
H95 C69 0.931 . S
H96 C78 0.931 . S
H97 C82 0.929 . S
H98 C84 0.930 . S
Co99 N103 2.148 . S
Co99 N109 2.128 . S
Co99 N119 2.194 . S
Co99 O124 2.351 . S
Co99 O125 2.155 . S
Co99 O126 2.096 . S
C100 N103 1.301 . S
C100 N104 1.328 . S
C100 H105 0.930 . S
C101 C102 1.333 . S
C101 N103 1.317 . S
C101 H106 0.930 . S
C102 C101 1.333 . S
C102 N104 1.350 . S
C102 H128 0.931 . S
N103 Co99 2.148 . S
N103 C100 1.301 . S
N103 C101 1.317 . S
N104 C100 1.328 . S
N104 C102 1.350 . S
H105 C100 0.930 . S
H106 C101 0.930 . S
C107 O108 1.224 . S
C107 O126 1.247 . S
O108 C107 1.224 . S
N109 Co99 2.128 . S
N109 C110 1.355 . S
N109 C112 1.311 . S
C110 N109 1.355 . S
C110 C111 1.363 . S
C110 H122 0.929 . S
C111 C110 1.363 . S
C111 N113 1.375 . S
C111 H129 0.931 . S
C112 N109 1.311 . S
C112 N113 1.347 . S
C112 H123 0.929 . S
N113 C111 1.375 . S
N113 C112 1.347 . S
C114 C117 1.365 . S
C114 N119 1.328 . S
C114 H120 0.929 . S
C115 C116 1.362 . S
C115 C118 1.378 . S
C115 H130 0.929 . S
C116 C115 1.362 . S
C116 C117 1.366 . S
C117 C114 1.365 . S
C117 C116 1.366 . S
C117 H131 0.930 . S
C118 C115 1.378 . S
C118 N119 1.315 . S
C118 H121 0.930 . S
N119 Co99 2.194 . S
N119 C114 1.328 . S
N119 C118 1.315 . S
H120 C114 0.929 . S
H121 C118 0.930 . S
H122 C110 0.929 . S
H123 C112 0.929 . S
O124 Co99 2.351 . S
O124 C127 1.244 . S
O125 Co99 2.155 . S
O125 C127 1.240 . S
O126 Co99 2.096 . S
O126 C107 1.247 . S
C127 O124 1.244 . S
C127 O125 1.240 . S
H128 C102 0.931 . S
H129 C111 0.931 . S
H130 C115 0.929 . S
H131 C117 0.930 . S
Co132 N136 2.148 . S
Co132 N142 2.128 . S
Co132 N152 2.194 1_556 S
Co132 O157 2.351 . S
Co132 O158 2.155 . S
Co132 O159 2.096 . S
C133 N136 1.301 . S
C133 N137 1.328 . S
C133 H138 0.930 . S
C134 C135 1.333 . S
C134 N136 1.317 . S
C134 H139 0.930 . S
C135 C134 1.333 . S
C135 N137 1.350 . S
C135 H161 0.931 . S
N136 Co132 2.148 . S
N136 C133 1.301 . S
N136 C134 1.317 . S
N137 C133 1.328 . S
N137 C135 1.350 . S
H138 C133 0.930 . S
H139 C134 0.930 . S
C140 O141 1.224 . S
C140 O159 1.247 1_554 S
O141 C140 1.224 . S
N142 Co132 2.128 . S
N142 C143 1.355 1_546 S
N142 C145 1.311 1_545 S
C143 N142 1.355 1_564 S
C143 C144 1.363 . S
C143 H155 0.929 1_565 S
C144 C143 1.363 . S
C144 N146 1.375 . S
C144 H162 0.931 . S
C145 N142 1.311 1_565 S
C145 N146 1.347 1_556 S
C145 H156 0.929 . S
N146 C144 1.375 . S
N146 C145 1.347 1_554 S
C147 C150 1.365 . S
C147 N152 1.328 . S
C147 H153 0.929 . S
C148 C149 1.362 . S
C148 C151 1.378 . S
C148 H163 0.929 . S
C149 C148 1.362 . S
C149 C150 1.366 . S
C150 C147 1.365 . S
C150 C149 1.366 . S
C150 H164 0.930 . S
C151 C148 1.378 . S
C151 N152 1.315 . S
C151 H154 0.930 . S
N152 Co132 2.194 1_554 S
N152 C147 1.328 . S
N152 C151 1.315 . S
H153 C147 0.929 . S
H154 C151 0.930 . S
H155 C143 0.929 1_545 S
H156 C145 0.929 . S
O157 Co132 2.351 . S
O157 C160 1.244 . S
O158 Co132 2.155 . S
O158 C160 1.240 . S
O159 Co132 2.096 . S
O159 C140 1.247 1_556 S
C160 O157 1.244 . S
C160 O158 1.240 . S
H161 C135 0.931 . S
H162 C144 0.931 . S
H163 C148 0.929 . S
H164 C150 0.930 . S
Co165 N169 2.148 . S
Co165 N175 2.128 . S
Co165 N185 2.194 . S
Co165 O190 2.351 . S
Co165 O191 2.155 . S
Co165 O192 2.096 . S
C166 N169 1.301 . S
C166 N170 1.328 . S
C166 H171 0.930 . S
C167 C168 1.333 . S
C167 N169 1.317 . S
C167 H172 0.930 . S
C168 C167 1.333 . S
C168 N170 1.350 . S
C168 H194 0.931 . S
N169 Co165 2.148 . S
N169 C166 1.301 . S
N169 C167 1.317 . S
N170 C166 1.328 . S
N170 C168 1.350 . S
H171 C166 0.930 . S
H172 C167 0.930 . S
C173 O174 1.224 . S
C173 O192 1.247 . S
O174 C173 1.224 . S
N175 Co165 2.128 . S
N175 C176 1.355 1_655 S
N175 C178 1.311 1_655 S
C176 N175 1.355 1_455 S
C176 C177 1.363 . S
C176 H188 0.929 1_455 S
C177 C176 1.363 . S
C177 N179 1.375 . S
C177 H195 0.931 . S
C178 N175 1.311 1_455 S
C178 N179 1.347 . S
C178 H189 0.929 . S
N179 C177 1.375 . S
N179 C178 1.347 . S
C180 C183 1.365 . S
C180 N185 1.328 . S
C180 H186 0.929 . S
C181 C182 1.362 . S
C181 C184 1.378 . S
C181 H196 0.929 . S
C182 C181 1.362 . S
C182 C183 1.366 . S
C183 C180 1.365 . S
C183 C182 1.366 . S
C183 H197 0.930 . S
C184 C181 1.378 . S
C184 N185 1.315 . S
C184 H187 0.930 . S
N185 Co165 2.194 . S
N185 C180 1.328 . S
N185 C184 1.315 . S
H186 C180 0.929 . S
H187 C184 0.930 . S
H188 C176 0.929 1_655 S
H189 C178 0.929 . S
O190 Co165 2.351 . S
O190 C193 1.244 . S
O191 Co165 2.155 . S
O191 C193 1.240 . S
O192 Co165 2.096 . S
O192 C173 1.247 . S
C193 O190 1.244 . S
C193 O191 1.240 . S
H194 C168 0.931 . S
H195 C177 0.931 . S
H196 C181 0.929 . S
H197 C183 0.930 . S
Co198 N202 2.148 . S
Co198 N208 2.128 . S
Co198 N218 2.194 1_556 S
Co198 O223 2.351 . S
Co198 O224 2.155 . S
Co198 O225 2.096 . S
C199 N202 1.301 . S
C199 N203 1.328 . S
C199 H204 0.930 . S
C200 C201 1.333 . S
C200 N202 1.317 . S
C200 H205 0.930 . S
C201 C200 1.333 . S
C201 N203 1.350 . S
C201 H227 0.931 . S
N202 Co198 2.148 . S
N202 C199 1.301 . S
N202 C200 1.317 . S
N203 C199 1.328 . S
N203 C201 1.350 . S
H204 C199 0.930 . S
H205 C200 0.930 . S
C206 O207 1.224 . S
C206 O225 1.247 1_554 S
O207 C206 1.224 . S
N208 Co198 2.128 . S
N208 C209 1.355 1_566 S
N208 C211 1.311 1_565 S
C209 N208 1.355 1_544 S
C209 C210 1.363 . S
C209 H221 0.929 1_545 S
C210 C209 1.363 . S
C210 N212 1.375 . S
C210 H228 0.931 . S
C211 N208 1.311 1_545 S
C211 N212 1.347 1_556 S
C211 H222 0.929 . S
N212 C210 1.375 . S
N212 C211 1.347 1_554 S
C213 C216 1.365 . S
C213 N218 1.328 . S
C213 H219 0.929 . S
C214 C215 1.362 . S
C214 C217 1.378 . S
C214 H229 0.929 . S
C215 C214 1.362 . S
C215 C216 1.366 . S
C216 C213 1.365 . S
C216 C215 1.366 . S
C216 H230 0.930 . S
C217 C214 1.378 . S
C217 N218 1.315 . S
C217 H220 0.930 . S
N218 Co198 2.194 1_554 S
N218 C213 1.328 . S
N218 C217 1.315 . S
H219 C213 0.929 . S
H220 C217 0.930 . S
H221 C209 0.929 1_565 S
H222 C211 0.929 . S
O223 Co198 2.351 . S
O223 C226 1.244 . S
O224 Co198 2.155 . S
O224 C226 1.240 . S
O225 Co198 2.096 . S
O225 C206 1.247 1_556 S
C226 O223 1.244 . S
C226 O224 1.240 . S
H227 C201 0.931 . S
H228 C210 0.931 . S
H229 C214 0.929 . S
H230 C216 0.930 . S
Co231 N235 2.148 . S
Co231 N241 2.128 . S
Co231 N251 2.194 . S
Co231 O256 2.351 . S
Co231 O257 2.155 . S
Co231 O258 2.096 . S
C232 N235 1.301 . S
C232 N236 1.328 . S
C232 H237 0.930 . S
C233 C234 1.333 . S
C233 N235 1.317 . S
C233 H238 0.930 . S
C234 C233 1.333 . S
C234 N236 1.350 . S
C234 H260 0.931 . S
N235 Co231 2.148 . S
N235 C232 1.301 . S
N235 C233 1.317 . S
N236 C232 1.328 . S
N236 C234 1.350 . S
H237 C232 0.930 . S
H238 C233 0.930 . S
C239 O240 1.224 . S
C239 O258 1.247 . S
O240 C239 1.224 . S
N241 Co231 2.128 . S
N241 C242 1.355 1_455 S
N241 C244 1.311 1_455 S
C242 N241 1.355 1_655 S
C242 C243 1.363 . S
C242 H254 0.929 1_655 S
C243 C242 1.363 . S
C243 N245 1.375 . S
C243 H261 0.931 . S
C244 N241 1.311 1_655 S
C244 N245 1.347 . S
C244 H255 0.929 . S
N245 C243 1.375 . S
N245 C244 1.347 . S
C246 C249 1.365 . S
C246 N251 1.328 . S
C246 H252 0.929 . S
C247 C248 1.362 . S
C247 C250 1.378 . S
C247 H262 0.929 . S
C248 C247 1.362 . S
C248 C249 1.366 . S
C249 C246 1.365 . S
C249 C248 1.366 . S
C249 H263 0.930 . S
C250 C247 1.378 . S
C250 N251 1.315 . S
C250 H253 0.930 . S
N251 Co231 2.194 . S
N251 C246 1.328 . S
N251 C250 1.315 . S
H252 C246 0.929 . S
H253 C250 0.930 . S
H254 C242 0.929 1_455 S
H255 C244 0.929 . S
O256 Co231 2.351 . S
O256 C259 1.244 . S
O257 Co231 2.155 . S
O257 C259 1.240 . S
O258 Co231 2.096 . S
O258 C239 1.247 . S
C259 O256 1.244 . S
C259 O257 1.240 . S
H260 C234 0.931 . S
H261 C243 0.931 . S
H262 C247 0.929 . S
H263 C249 0.930 . S
C264 C265 1.369 . S
C264 C266 1.419 . S
C264 H268 0.930 1_554 S
C265 C264 1.369 . S
C265 C274 1.429 . S
C266 C264 1.419 . S
C266 C267 1.363 . S
C266 H269 0.929 . S
C267 C266 1.363 . S
C267 C273 1.428 . S
H268 C264 0.930 1_556 S
H269 C266 0.929 . S
S270 N271 1.613 . S
S270 N272 1.610 . S
N271 S270 1.613 . S
N271 C274 1.350 . S
N272 S270 1.610 . S
N272 C273 1.351 . S
C273 C267 1.428 . S
C273 N272 1.351 . S
C273 C274 1.434 . S
C274 C265 1.429 . S
C274 N271 1.350 . S
C274 C273 1.434 . S
C275 C276 1.369 . S
C275 C277 1.419 . S
C275 H279 0.930 . S
C276 C275 1.369 . S
C276 C285 1.429 . S
C277 C275 1.419 . S
C277 C278 1.363 . S
C277 H280 0.929 . S
C278 C277 1.363 . S
C278 C284 1.428 . S
H279 C275 0.930 . S
H280 C277 0.929 . S
S281 N282 1.613 . S
S281 N283 1.610 . S
N282 S281 1.613 . S
N282 C285 1.350 . S
N283 S281 1.610 . S
N283 C284 1.351 . S
C284 C278 1.428 . S
C284 N283 1.351 . S
C284 C285 1.434 . S
C285 C276 1.429 . S
C285 N282 1.350 . S
C285 C284 1.434 . S
C286 C287 1.369 1_556 S
C286 C288 1.419 1_556 S
C286 H290 0.930 . S
C287 C286 1.369 1_554 S
C287 C296 1.429 . S
C288 C286 1.419 1_554 S
C288 C289 1.363 . S
C288 H291 0.929 1_554 S
C289 C288 1.363 . S
C289 C295 1.428 . S
H290 C286 0.930 . S
H291 C288 0.929 1_556 S
S292 N293 1.613 . S
S292 N294 1.610 . S
N293 S292 1.613 . S
N293 C296 1.350 . S
N294 S292 1.610 . S
N294 C295 1.351 . S
C295 C289 1.428 . S
C295 N294 1.351 . S
C295 C296 1.434 . S
C296 C287 1.429 . S
C296 N293 1.350 . S
C296 C295 1.434 . S
C297 C298 1.369 . S
C297 C299 1.419 . S
C297 H301 0.930 . S
C298 C297 1.369 . S
C298 C307 1.429 . S
C299 C297 1.419 . S
C299 C300 1.363 . S
C299 H302 0.929 . S
C300 C299 1.363 . S
C300 C306 1.428 . S
H301 C297 0.930 . S
H302 C299 0.929 . S
S303 N304 1.613 . S
S303 N305 1.610 . S
N304 S303 1.613 . S
N304 C307 1.350 . S
N305 S303 1.610 . S
N305 C306 1.351 . S
C306 C300 1.428 . S
C306 N305 1.351 . S
C306 C307 1.434 . S
C307 C298 1.429 . S
C307 N304 1.350 . S
C307 C306 1.434 . S
C308 C309 1.369 . S
C308 C310 1.419 1_554 S
C308 H312 0.930 . S
C309 C308 1.369 . S
C309 C318 1.429 . S
C310 C308 1.419 1_556 S
C310 C311 1.363 . S
C310 H313 0.929 . S
C311 C310 1.363 . S
C311 C317 1.428 1_556 S
H312 C308 0.930 . S
H313 C310 0.929 . S
S314 N315 1.613 . S
S314 N316 1.610 . S
N315 S314 1.613 . S
N315 C318 1.350 . S
N316 S314 1.610 . S
N316 C317 1.351 . S
C317 C311 1.428 1_554 S
C317 N316 1.351 . S
C317 C318 1.434 . S
C318 C309 1.429 . S
C318 N315 1.350 . S
C318 C317 1.434 . S
C319 C320 1.369 . S
C319 C321 1.419 . S
C319 H323 0.930 . S
C320 C319 1.369 . S
C320 C329 1.429 . S
C321 C319 1.419 . S
C321 C322 1.363 . S
C321 H324 0.929 . S
C322 C321 1.363 . S
C322 C328 1.428 . S
H323 C319 0.930 . S
H324 C321 0.929 . S
S325 N326 1.613 . S
S325 N327 1.610 . S
N326 S325 1.613 . S
N326 C329 1.350 . S
N327 S325 1.610 . S
N327 C328 1.351 . S
C328 C322 1.428 . S
C328 N327 1.351 . S
C328 C329 1.434 . S
C329 C320 1.429 . S
C329 N326 1.350 . S
C329 C328 1.434 . S
C330 C331 1.369 . S
C330 C332 1.419 . S
C330 H334 0.930 . S
C331 C330 1.369 . S
C331 C340 1.429 . S
C332 C330 1.419 . S
C332 C333 1.363 1_554 S
C332 H335 0.929 . S
C333 C332 1.363 1_556 S
C333 C339 1.430 . S
H334 C330 0.930 . S
H335 C332 0.929 . S
S336 N337 1.613 1_556 S
S336 N338 1.610 . S
N337 S336 1.613 1_554 S
N337 C340 1.350 . S
N338 S336 1.610 . S
N338 C339 1.357 . S
C339 C333 1.430 . S
C339 N338 1.357 . S
C339 C340 1.427 1_556 S
C340 C331 1.429 . S
C340 N337 1.350 . S
C340 C339 1.427 1_554 S
C341 C342 1.369 . S
C341 C343 1.419 . S
C341 H345 0.930 . S
C342 C341 1.369 . S
C342 C351 1.429 . S
C343 C341 1.419 . S
C343 C344 1.363 . S
C343 H346 0.929 . S
C344 C343 1.363 . S
C344 C350 1.428 . S
H345 C341 0.930 . S
H346 C343 0.929 . S
S347 N348 1.613 . S
S347 N349 1.610 . S
N348 S347 1.613 . S
N348 C351 1.350 . S
N349 S347 1.610 . S
N349 C350 1.351 . S
C350 C344 1.428 . S
C350 N349 1.351 . S
C350 C351 1.434 . S
C351 C342 1.429 . S
C351 N348 1.350 . S
C351 C350 1.434 . S
C352 C353 1.369 . S
C352 C354 1.419 . S
C352 H356 0.930 . S
C353 C352 1.369 . S
C353 C362 1.429 1_554 S
C354 C352 1.419 . S
C354 C355 1.363 . S
C354 H357 0.929 . S
C355 C354 1.363 . S
C355 C361 1.428 1_554 S
H356 C352 0.930 . S
H357 C354 0.929 . S
S358 N359 1.613 . S
S358 N360 1.610 . S
N359 S358 1.613 . S
N359 C362 1.350 . S
N360 S358 1.610 . S
N360 C361 1.351 . S
C361 C355 1.428 1_556 S
C361 N360 1.351 . S
C361 C362 1.434 . S
C362 C353 1.429 1_556 S
C362 N359 1.350 . S
C362 C361 1.434 . S
C363 C364 1.369 . S
C363 C365 1.419 . S
C363 H367 0.930 . S
C364 C363 1.369 . S
C364 C373 1.429 . S
C365 C363 1.419 . S
C365 C366 1.363 . S
C365 H368 0.929 . S
C366 C365 1.363 . S
C366 C372 1.428 . S
H367 C363 0.930 . S
H368 C365 0.929 . S
S369 N370 1.613 . S
S369 N371 1.610 . S
N370 S369 1.613 . S
N370 C373 1.350 . S
N371 S369 1.610 . S
N371 C372 1.351 . S
C372 C366 1.428 . S
C372 N371 1.351 . S
C372 C373 1.434 . S
C373 C364 1.429 . S
C373 N370 1.350 . S
C373 C372 1.434 . S
C374 C375 1.369 1_546 S
C374 C376 1.419 1_455 S
C374 H378 0.930 . S
C375 C374 1.369 1_564 S
C375 C384 1.429 . S
C376 C374 1.419 1_655 S
C376 C377 1.363 1_556 S
C376 H379 0.929 . S
C377 C376 1.363 1_554 S
C377 C383 1.428 1_545 S
H378 C374 0.930 . S
H379 C376 0.929 . S
S380 N381 1.613 1_655 S
S380 N382 1.610 . S
N381 S380 1.613 1_455 S
N381 C384 1.350 . S
N382 S380 1.610 . S
N382 C383 1.351 . S
C383 C377 1.428 1_565 S
C383 N382 1.351 . S
C383 C384 1.434 1_655 S
C384 C375 1.429 . S
C384 N381 1.350 . S
C384 C383 1.434 1_455 S
C385 C386 1.369 1_455 S
C385 C387 1.419 1_565 S
C385 H389 0.930 . S
C386 C385 1.369 1_655 S
C386 C395 1.429 . S
C387 C385 1.419 1_545 S
C387 C388 1.363 . S
C387 H390 0.929 . S
C388 C387 1.363 . S
C388 C394 1.428 1_455 S
H389 C385 0.930 . S
H390 C387 0.929 . S
S391 N392 1.613 1_545 S
S391 N393 1.610 . S
N392 S391 1.613 1_565 S
N392 C395 1.350 . S
N393 S391 1.610 . S
N393 C394 1.351 . S
C394 C388 1.428 1_655 S
C394 N393 1.351 . S
C394 C395 1.434 1_545 S
C395 C386 1.429 . S
C395 N392 1.350 . S
C395 C394 1.434 1_565 S
C396 C397 1.369 . S
C396 C398 1.419 . S
C396 H400 0.930 . S
C397 C396 1.369 . S
C397 C406 1.429 . S
C398 C396 1.419 . S
C398 C399 1.363 . S
C398 H401 0.929 . S
C399 C398 1.363 . S
C399 C405 1.428 . S
H400 C396 0.930 . S
H401 C398 0.929 . S
S402 N403 1.613 . S
S402 N404 1.610 . S
N403 S402 1.613 . S
N403 C406 1.350 . S
N404 S402 1.610 . S
N404 C405 1.351 . S
C405 C399 1.428 . S
C405 N404 1.351 . S
C405 C406 1.434 . S
C406 C397 1.429 . S
C406 N403 1.350 . S
C406 C405 1.434 . S
C407 C408 1.369 . S
C407 C409 1.419 . S
C407 H411 0.930 . S
C408 C407 1.369 . S
C408 C417 1.429 . S
C409 C407 1.419 . S
C409 C410 1.363 . S
C409 H412 0.929 . S
C410 C409 1.363 . S
C410 C416 1.428 . S
H411 C407 0.930 . S
H412 C409 0.929 . S
S413 N414 1.613 . S
S413 N415 1.610 . S
N414 S413 1.613 . S
N414 C417 1.350 . S
N415 S413 1.610 . S
N415 C416 1.351 . S
C416 C410 1.428 . S
C416 N415 1.351 . S
C416 C417 1.434 . S
C417 C408 1.429 . S
C417 N414 1.350 . S
C417 C416 1.434 . S
C418 C419 1.369 . S
C418 C420 1.419 . S
C418 H422 0.930 . S
C419 C418 1.369 . S
C419 C428 1.429 . S
C420 C418 1.419 . S
C420 C421 1.363 . S
C420 H423 0.929 . S
C421 C420 1.363 . S
C421 C427 1.428 . S
H422 C418 0.930 . S
H423 C420 0.929 . S
S424 N425 1.613 . S
S424 N426 1.610 . S
N425 S424 1.613 . S
N425 C428 1.350 . S
N426 S424 1.610 . S
N426 C427 1.351 . S
C427 C421 1.428 . S
C427 N426 1.351 . S
C427 C428 1.434 . S
C428 C419 1.429 . S
C428 N425 1.350 . S
C428 C427 1.434 . S
C429 C430 1.369 . S
C429 C431 1.419 . S
C429 H433 0.930 . S
C430 C429 1.369 . S
C430 C439 1.429 . S
C431 C429 1.419 . S
C431 C432 1.363 . S
C431 H434 0.929 . S
C432 C431 1.363 . S
C432 C438 1.428 . S
H433 C429 0.930 . S
H434 C431 0.929 . S
S435 N436 1.613 . S
S435 N437 1.610 . S
N436 S435 1.613 . S
N436 C439 1.350 . S
N437 S435 1.610 . S
N437 C438 1.351 . S
C438 C432 1.428 . S
C438 N437 1.351 . S
C438 C439 1.434 . S
C439 C430 1.429 . S
C439 N436 1.350 . S
C439 C438 1.434 . S
C440 C441 1.369 . S
C440 C442 1.419 . S
C440 H444 0.930 . S
C441 C440 1.369 . S
C441 C450 1.429 . S
C442 C440 1.419 . S
C442 C443 1.363 . S
C442 H445 0.929 . S
C443 C442 1.363 . S
C443 C449 1.428 . S
H444 C440 0.930 . S
H445 C442 0.929 . S
S446 N447 1.613 . S
S446 N448 1.610 . S
N447 S446 1.613 . S
N447 C450 1.350 . S
N448 S446 1.610 . S
N448 C449 1.351 . S
C449 C443 1.428 . S
C449 N448 1.351 . S
C449 C450 1.434 . S
C450 C441 1.429 . S
C450 N447 1.350 . S
C450 C449 1.434 . S
C451 C452 1.369 . S
C451 C453 1.419 . S
C451 H455 0.930 . S
C452 C451 1.369 . S
C452 C461 1.429 . S
C453 C451 1.419 . S
C453 C454 1.363 . S
C453 H456 0.929 . S
C454 C453 1.363 . S
C454 C460 1.428 . S
H455 C451 0.930 . S
H456 C453 0.929 . S
S457 N458 1.613 . S
S457 N459 1.610 . S
N458 S457 1.613 . S
N458 C461 1.350 . S
N459 S457 1.610 . S
N459 C460 1.351 . S
C460 C454 1.428 . S
C460 N459 1.351 . S
C460 C461 1.434 . S
C461 C452 1.429 . S
C461 N458 1.350 . S
C461 C460 1.434 . S
C462 C463 1.369 . S
C462 C464 1.419 . S
C462 H466 0.930 . S
C463 C462 1.369 . S
C463 C472 1.429 . S
C464 C462 1.419 . S
C464 C465 1.363 . S
C464 H467 0.929 . S
C465 C464 1.363 . S
C465 C471 1.428 . S
H466 C462 0.930 . S
H467 C464 0.929 . S
S468 N469 1.613 . S
S468 N470 1.610 . S
N469 S468 1.613 . S
N469 C472 1.350 . S
N470 S468 1.610 . S
N470 C471 1.351 . S
C471 C465 1.428 . S
C471 N470 1.351 . S
C471 C472 1.434 . S
C472 C463 1.429 . S
C472 N469 1.350 . S
C472 C471 1.434 . S
C473 C474 1.369 . S
C473 C475 1.419 . S
C473 H477 0.930 . S
C474 C473 1.369 . S
C474 C483 1.429 . S
C475 C473 1.419 . S
C475 C476 1.363 . S
C475 H478 0.929 . S
C476 C475 1.363 . S
C476 C482 1.428 . S
H477 C473 0.930 . S
H478 C475 0.929 . S
S479 N480 1.613 . S
S479 N481 1.610 . S
N480 S479 1.613 . S
N480 C483 1.350 . S
N481 S479 1.610 . S
N481 C482 1.351 . S
C482 C476 1.428 . S
C482 N481 1.351 . S
C482 C483 1.434 . S
C483 C474 1.429 . S
C483 N480 1.350 . S
C483 C482 1.434 . S
C265 N212 0.973 . S
C267 N5 0.996 . S
C276 N245 0.986 . S
C278 N38 0.989 . S
C287 N146 0.980 . S
C289 N71 0.998 . S
C298 N179 0.988 . S
C300 N104 0.991 . S
C309 N80 0.974 . S
C311 N137 0.992 . S
C320 N113 0.985 . S
C322 N170 0.996 . S
C331 N14 0.973 . S
C333 N203 0.995 . S
C342 N236 0.992 . S
C344 N47 0.975 . S
C353 C74 2.445 . S
C355 C8 2.445 . S
C364 C41 2.445 . S
C366 C107 2.445 . S
C375 C206 2.445 . S
C377 C140 2.445 . S
C386 C173 2.445 . S
C388 C239 2.445 . S
C397 C28 1.954 . S
C399 C259 1.953 . S
C408 C160 1.952 . S
C410 C61 1.951 . S
C419 C193 1.951 . S
C421 C94 1.951 . S
C430 C226 1.952 . S
C432 C127 1.952 . S
C441 C83 1.202 . S
C443 C182 1.206 . S
C452 C116 1.205 . S
C454 C215 1.209 . S
C463 C248 1.211 . S
C465 C17 1.209 . S
C474 C149 1.210 . S
C476 C50 1.207 . S
