# Generated by pormake.
# Topology eta, (3)-cn, num edge types: 1
# Building blocks:
#     Node 0, Type 0, BuildingBlock: WUSLED_clean_sbu_0, # of connection points: 3
#     Node 1, Type 0, BuildingBlock: WUSLED_clean_sbu_0, # of connection points: 3
#     Node 2, Type 0, BuildingBlock: WUSLED_clean_sbu_0, # of connection points: 3
#     Node 3, Type 0, BuildingBlock: WUSLED_clean_sbu_0, # of connection points: 3
#     Node 4, Type 0, BuildingBlock: WUSLED_clean_sbu_0, # of connection points: 3
#     Node 5, Type 0, BuildingBlock: WUSLED_clean_sbu_0, # of connection points: 3
#     Edge 6, Type (0, 0), BuildingBlock: EZIPEK_clean_linker_0, # of connection points: 2
#     Edge 7, Type (0, 0), BuildingBlock: EZIPEK_clean_linker_0, # of connection points: 2
#     Edge 8, Type (0, 0), BuildingBlock: EZIPEK_clean_linker_0, # of connection points: 2
#     Edge 9, Type (0, 0), BuildingBlock: EZIPEK_clean_linker_0, # of connection points: 2
#     Edge 10, Type (0, 0), BuildingBlock: EZIPEK_clean_linker_0, # of connection points: 2
#     Edge 11, Type (0, 0), BuildingBlock: EZIPEK_clean_linker_0, # of connection points: 2
#     Edge 12, Type (0, 0), BuildingBlock: EZIPEK_clean_linker_0, # of connection points: 2
#     Edge 13, Type (0, 0), BuildingBlock: EZIPEK_clean_linker_0, # of connection points: 2
#     Edge 14, Type (0, 0), BuildingBlock: EZIPEK_clean_linker_0, # of connection points: 2
# Relax obj value: 0.000
# Max RMSD: 0.005
# Mean RMSD: 0.004
data_MOF--net-eta--node1-WUSLED_clean_sbu_0--edge1-EZIPEK_clean_linker_0
_symmetry_space_group_name_H-M    P1
_symmetry_Int_Tables_number       1
_symmetry_cell_setting            triclinic
loop_
_symmetry_equiv_pos_as_xyz
'x, y, z'
_cell_length_a     54.762199
_cell_length_b     55.258993
_cell_length_c     44.944601
_cell_angle_alpha  89.23584
_cell_angle_beta   90.18928
_cell_angle_gamma 120.82846
loop_
_atom_site_label
_atom_site_type_symbol
_atom_site_fract_x
_atom_site_fract_y
_atom_site_fract_z
_atom_type_partial_charge
C0 C 0.26832 0.61642 0.11501 0.0
C1 C 0.2936 0.6168 0.12187 0.0
C2 C 0.30573 0.62122 0.06921 0.0
C3 C 0.31212 0.61906 0.09908 0.0
C4 C 0.28062 0.62107 0.06245 0.0
C5 C 0.26207 0.61865 0.08516 0.0
U6 U 0.24956 0.63127 0.19259 0.0
O7 O 0.21628 0.64051 0.20502 0.0
O8 O 0.21536 0.6031 0.22351 0.0
C9 C 0.20209 0.61722 0.22096 0.0
C10 C 0.24793 0.6134 0.13831 0.0
C11 C 0.17125 0.6003 0.21542 0.0
C12 C 0.13032 0.56243 0.19018 0.0
C13 C 0.15985 0.57903 0.19395 0.0
C14 C 0.12338 0.58859 0.22876 0.0
C15 C 0.11191 0.56698 0.20776 0.0
C16 C 0.15282 0.6051 0.23256 0.0
C17 C 0.30961 0.67838 0.24686 0.0
C18 C 0.30772 0.7057 0.28793 0.0
C19 C 0.34674 0.69704 0.28441 0.0
C20 C 0.33495 0.68167 0.25847 0.0
C21 C 0.33342 0.70948 0.29911 0.0
C22 C 0.29583 0.69017 0.26202 0.0
C23 C 0.29882 0.6637 0.21835 0.0
O24 O 0.24653 0.59887 0.16234 0.0
O25 O 0.24723 0.63627 0.14412 0.0
O26 O 0.2865 0.67337 0.20064 0.0
O27 O 0.28545 0.63603 0.21958 0.0
H28 H 0.29896 0.61523 0.14475 0.0
H29 H 0.3314 0.61912 0.10469 0.0
H30 H 0.27533 0.6227 0.03955 0.0
H31 H 0.24272 0.61841 0.07938 0.0
H32 H 0.12181 0.54584 0.17386 0.0
H33 H 0.17374 0.57507 0.18042 0.0
H34 H 0.10949 0.59238 0.24249 0.0
H35 H 0.16121 0.62142 0.24919 0.0
H36 H 0.29716 0.71516 0.29899 0.0
H37 H 0.36657 0.69974 0.2927 0.0
H38 H 0.3459 0.67275 0.24713 0.0
H39 H 0.27618 0.68781 0.25357 0.0
C40 C 0.63186 0.24937 0.60639 0.0
C41 C 0.656 0.2766 0.60741 0.0
C42 C 0.63558 0.28808 0.64907 0.0
C43 C 0.6579 0.29579 0.62872 0.0
C44 C 0.61141 0.26095 0.64784 0.0
C45 C 0.6096 0.24175 0.6267 0.0
U46 U 0.64799 0.22976 0.53035 0.0
O47 O 0.65791 0.19709 0.51878 0.0
O48 O 0.61989 0.1954 0.50045 0.0
C49 C 0.63448 0.18262 0.5033 0.0
C50 C 0.6294 0.22857 0.5845 0.0
C51 C 0.61783 0.1521 0.50983 0.0
C52 C 0.58142 0.11176 0.53792 0.0
C53 C 0.59712 0.14091 0.53245 0.0
C54 C 0.60715 0.10476 0.49845 0.0
C55 C 0.58634 0.09351 0.52091 0.0
C56 C 0.62275 0.13383 0.49295 0.0
C57 C 0.69433 0.28902 0.47421 0.0
C58 C 0.69924 0.28232 0.42164 0.0
C59 C 0.72851 0.32835 0.44343 0.0
C60 C 0.71564 0.31746 0.47109 0.0
C61 C 0.72022 0.31094 0.41846 0.0
C62 C 0.68639 0.27139 0.44939 0.0
C63 C 0.68011 0.27855 0.50326 0.0
O64 O 0.61468 0.22639 0.56049 0.0
O65 O 0.65279 0.22825 0.57883 0.0
O66 O 0.69036 0.26661 0.52068 0.0
O67 O 0.65217 0.2649 0.50288 0.0
H68 H 0.67337 0.28299 0.59183 0.0
H69 H 0.6767 0.31664 0.62933 0.0
H70 H 0.59399 0.25464 0.66334 0.0
H71 H 0.59079 0.22088 0.62624 0.0
H72 H 0.56549 0.10341 0.5554 0.0
H73 H 0.59309 0.15469 0.5458 0.0
H74 H 0.61126 0.09099 0.48518 0.0
H75 H 0.63867 0.14208 0.47545 0.0
H76 H 0.69256 0.26861 0.40258 0.0
H77 H 0.74463 0.35047 0.44137 0.0
H78 H 0.72203 0.33136 0.48999 0.0
H79 H 0.67001 0.24935 0.45139 0.0
C80 C 0.46946 0.66517 0.78223 0.0
C81 C 0.4431 0.66292 0.77649 0.0
C82 C 0.46392 0.69626 0.73509 0.0
C83 C 0.44035 0.67828 0.75301 0.0
C84 C 0.4904 0.69913 0.74137 0.0
C85 C 0.49311 0.68363 0.7647 0.0
U86 U 0.45371 0.63016 0.85984 0.0
O87 O 0.44445 0.58772 0.87307 0.0
O88 O 0.48191 0.62511 0.89098 0.0
C89 C 0.46776 0.59749 0.88892 0.0
C90 C 0.47258 0.64779 0.8055 0.0
C91 C 0.4849 0.5843 0.88373 0.0
C92 C 0.52293 0.58222 0.85823 0.0
C93 C 0.50641 0.59472 0.86194 0.0
C94 C 0.49627 0.54851 0.8976 0.0
C95 C 0.51806 0.55914 0.8762 0.0
C96 C 0.47984 0.56102 0.90134 0.0
C97 C 0.40517 0.64099 0.91315 0.0
C98 C 0.39042 0.61922 0.9623 0.0
C99 C 0.37523 0.65095 0.94424 0.0
C100 C 0.39012 0.65489 0.91769 0.0
C101 C 0.37516 0.63302 0.96668 0.0
C102 C 0.40534 0.62317 0.93564 0.0
C103 C 0.42033 0.64538 0.88477 0.0
O104 O 0.48681 0.66117 0.82935 0.0
O105 O 0.44978 0.62326 0.81161 0.0
O106 O 0.4109 0.62312 0.86787 0.0
O107 O 0.44822 0.66045 0.88602 0.0
H108 H 0.42455 0.64897 0.7898 0.0
H109 H 0.41975 0.67582 0.7485 0.0
H110 H 0.50882 0.71292 0.72781 0.0
H111 H 0.51362 0.68572 0.76875 0.0
H112 H 0.53965 0.59066 0.84158 0.0
H113 H 0.51056 0.6126 0.84803 0.0
H114 H 0.49221 0.53073 0.91164 0.0
H115 H 0.46331 0.55264 0.91821 0.0
H116 H 0.39061 0.60534 0.97942 0.0
H117 H 0.36361 0.66178 0.94725 0.0
H118 H 0.38979 0.66874 0.9006 0.0
H119 H 0.4169 0.6123 0.93251 0.0
C120 C 0.82796 0.44285 0.11396 0.0
C121 C 0.7992 0.42807 0.12252 0.0
C122 C 0.78532 0.4328 0.0723 0.0
C123 C 0.77803 0.42312 0.10183 0.0
C124 C 0.81405 0.44755 0.06373 0.0
C125 C 0.83525 0.45256 0.08446 0.0
U126 U 0.8504 0.43222 0.19094 0.0
O127 O 0.88515 0.42574 0.20502 0.0
O128 O 0.88388 0.46252 0.2208 0.0
C129 C 0.89827 0.44946 0.21979 0.0
C130 C 0.85038 0.44825 0.13562 0.0
C131 C 0.9292 0.46744 0.2148 0.0
C132 C 0.97132 0.48604 0.18329 0.0
C133 C 0.94167 0.46996 0.18676 0.0
C134 C 0.97622 0.49772 0.2356 0.0
C135 C 0.98877 0.49989 0.20777 0.0
C136 C 0.94669 0.48161 0.23907 0.0
C137 C 0.79124 0.38507 0.24695 0.0
C138 C 0.79803 0.38183 0.30007 0.0
C139 C 0.75222 0.35041 0.27779 0.0
C140 C 0.76299 0.36291 0.24994 0.0
C141 C 0.76958 0.35994 0.30309 0.0
C142 C 0.80884 0.3943 0.27214 0.0
C143 C 0.80151 0.39867 0.21758 0.0
O144 O 0.85172 0.4632 0.15873 0.0
O145 O 0.8526 0.42633 0.14285 0.0
O146 O 0.815 0.38941 0.20157 0.0
O147 O 0.81367 0.42626 0.2168 0.0
H148 H 0.79318 0.42038 0.14519 0.0
H149 H 0.75595 0.41167 0.10878 0.0
H150 H 0.82001 0.45514 0.04103 0.0
H151 H 0.85733 0.464 0.07748 0.0
H152 H 0.98067 0.48747 0.16166 0.0
H153 H 0.92857 0.45924 0.1677 0.0
H154 H 0.98935 0.50822 0.25472 0.0
H155 H 0.9375 0.47992 0.26086 0.0
H156 H 0.8117 0.38947 0.31939 0.0
H157 H 0.73022 0.33359 0.27972 0.0
H158 H 0.74911 0.35551 0.23076 0.0
H159 H 0.83074 0.41136 0.27024 0.0
C160 C 0.41857 0.81706 0.44827 0.0
C161 C 0.41715 0.79099 0.44626 0.0
C162 C 0.38874 0.78027 0.40126 0.0
C163 C 0.4024 0.77276 0.42284 0.0
C164 C 0.38961 0.806 0.40373 0.0
C165 C 0.40446 0.82426 0.42702 0.0
U166 U 0.45175 0.83574 0.52627 0.0
O167 O 0.49389 0.86992 0.54004 0.0
O168 O 0.45555 0.86832 0.55695 0.0
C169 C 0.48345 0.88279 0.55519 0.0
C170 C 0.43531 0.83741 0.47166 0.0
C171 C 0.49663 0.91334 0.54941 0.0
C172 C 0.51854 0.95411 0.51594 0.0
C173 C 0.50477 0.92488 0.52056 0.0
C174 C 0.51552 0.96055 0.56875 0.0
C175 C 0.5242 0.97215 0.54005 0.0
C176 C 0.5019 0.93138 0.57338 0.0
C177 C 0.44053 0.77581 0.58008 0.0
C178 C 0.46876 0.78013 0.62383 0.0
C179 C 0.42443 0.73655 0.61504 0.0
C180 C 0.42037 0.74823 0.58906 0.0
C181 C 0.44879 0.75229 0.63245 0.0
C182 C 0.46463 0.79187 0.59782 0.0
C183 C 0.43641 0.7868 0.5516 0.0
O184 O 0.42105 0.83697 0.49532 0.0
O185 O 0.45992 0.83988 0.47809 0.0
O186 O 0.45904 0.80066 0.53454 0.0
O187 O 0.42086 0.79863 0.55264 0.0
H188 H 0.42777 0.78495 0.46252 0.0
H189 H 0.40196 0.753 0.42127 0.0
H190 H 0.37921 0.81214 0.38729 0.0
H191 H 0.40527 0.84423 0.42821 0.0
H192 H 0.52506 0.9627 0.49364 0.0
H193 H 0.5008 0.91134 0.50172 0.0
H194 H 0.51967 0.97414 0.58759 0.0
H195 H 0.49575 0.92289 0.59578 0.0
H196 H 0.4877 0.79255 0.63698 0.0
H197 H 0.40883 0.71505 0.62133 0.0
H198 H 0.40166 0.73552 0.57567 0.0
H199 H 0.48041 0.81324 0.59132 0.0
C200 C 0.6318 0.39713 0.78228 0.0
C201 C 0.65703 0.39655 0.77896 0.0
C202 C 0.63569 0.3628 0.73888 0.0
C203 C 0.65899 0.3796 0.7573 0.0
C204 C 0.61049 0.3633 0.74233 0.0
C205 C 0.60859 0.38036 0.7638 0.0
U206 U 0.64615 0.43049 0.85958 0.0
O207 O 0.65516 0.4724 0.87306 0.0
O208 O 0.61688 0.43451 0.88987 0.0
C209 C 0.63134 0.46218 0.88831 0.0
C210 C 0.62902 0.41482 0.80479 0.0
C211 C 0.61448 0.47583 0.88337 0.0
C212 C 0.59692 0.49967 0.85163 0.0
C213 C 0.61226 0.48584 0.85516 0.0
C214 C 0.58548 0.49317 0.90426 0.0
C215 C 0.58351 0.5035 0.87622 0.0
C216 C 0.60085 0.47948 0.90779 0.0
C217 C 0.68999 0.41579 0.91606 0.0
C218 C 0.70664 0.43929 0.96348 0.0
C219 C 0.70838 0.39747 0.95368 0.0
C220 C 0.69728 0.39609 0.92529 0.0
C221 C 0.7113 0.4178 0.97457 0.0
C222 C 0.69534 0.4378 0.93507 0.0
C223 C 0.67726 0.41311 0.88644 0.0
O224 O 0.61361 0.40128 0.8283 0.0
O225 O 0.65228 0.43864 0.81133 0.0
O226 O 0.6881 0.4362 0.86998 0.0
O227 O 0.64935 0.39825 0.88572 0.0
H228 H 0.67517 0.40916 0.79308 0.0
H229 H 0.67861 0.37948 0.75496 0.0
H230 H 0.59229 0.35047 0.72835 0.0
H231 H 0.58894 0.38045 0.76602 0.0
H232 H 0.59564 0.50755 0.82984 0.0
H233 H 0.62255 0.48319 0.83598 0.0
H234 H 0.57531 0.49595 0.92347 0.0
H235 H 0.6023 0.47193 0.92972 0.0
H236 H 0.71218 0.45796 0.9758 0.0
H237 H 0.71506 0.38257 0.95867 0.0
H238 H 0.69454 0.37961 0.9104 0.0
H239 H 0.69109 0.45407 0.92784 0.0
C240 C 0.33203 0.60369 0.99899 0.0
C241 C 0.35877 0.62873 0.99462 0.0
C242 C 0.35113 0.64887 0.03954 0.0
C243 C 0.32501 0.62331 0.04468 0.0
N244 N 0.2935 0.57437 0.03314 0.0
N245 N 0.39653 0.67268 1.01366 0.0
C246 C 0.31637 0.60007 1.02555 0.0
C247 C 0.36918 0.65056 1.01586 0.0
N248 N 0.32103 0.58387 0.97721 0.0
N249 N 0.35812 0.67192 0.05643 0.0
H250 H 0.41029 0.67457 0.99658 0.0
H251 H 0.40639 0.68778 0.03008 0.0
H252 H 0.34553 0.67154 0.074 0.0
H253 H 0.37522 0.69199 0.05163 0.0
H254 H 0.30026 0.56679 0.97753 0.0
H255 H 0.33192 0.58559 0.95756 0.0
H256 H 0.28787 0.55594 1.02177 0.0
H257 H 0.28162 0.57092 0.0525 0.0
C258 C 0.75337 0.31799 0.37604 0.0
C259 C 0.73277 0.32313 0.38873 0.0
C260 C 0.73876 0.35472 0.34687 0.0
C261 C 0.75743 0.34763 0.3329 0.0
N262 N 0.77945 0.31944 0.33182 0.0
N263 N 0.70213 0.34241 0.38407 0.0
C264 C 0.76393 0.32841 0.34685 0.0
C265 C 0.72442 0.34041 0.37353 0.0
N266 N 0.76348 0.30389 0.39226 0.0
N267 N 0.73541 0.3758 0.33514 0.0
H268 H 0.69104 0.33221 0.40349 0.0
H269 H 0.69301 0.35212 0.37228 0.0
H270 H 0.74557 0.38683 0.31567 0.0
H271 H 0.72459 0.38407 0.34601 0.0
H272 H 0.78071 0.30215 0.38562 0.0
H273 H 0.75609 0.29578 0.41358 0.0
H274 H 0.78227 0.30315 0.33938 0.0
H275 H 0.78772 0.32678 0.31055 0.0
C276 C 0.46198 0.7024 0.67972 0.0
C277 C 0.46062 0.71119 0.7089 0.0
C278 C 0.45014 0.74622 0.68809 0.0
C279 C 0.45382 0.73895 0.65895 0.0
N280 N 0.46874 0.71409 0.62709 0.0
N281 N 0.45827 0.74456 0.741 0.0
C282 C 0.46137 0.71818 0.6548 0.0
C283 C 0.45608 0.73401 0.71314 0.0
N284 N 0.46272 0.67829 0.67576 0.0
N285 N 0.44005 0.76406 0.69183 0.0
H286 H 0.46262 0.73618 0.75983 0.0
H287 H 0.45818 0.76301 0.74513 0.0
H288 H 0.43564 0.77353 0.67404 0.0
H289 H 0.4339 0.76773 0.71237 0.0
H290 H 0.46056 0.66914 0.65508 0.0
H291 H 0.46291 0.66592 0.6934 0.0
H292 H 0.47739 0.70146 0.62318 0.0
H293 H 0.4687 0.72533 0.60828 0.0
C294 C 0.75472 0.4476 0.04504 0.0
C295 C 0.76266 0.42719 0.05038 0.0
C296 C 0.72487 0.39509 1.01678 0.0
C297 C 0.72225 0.41792 1.00599 0.0
N298 N 0.71599 0.4534 1.0291 0.0
N299 N 0.75427 0.38041 0.04215 0.0
C300 C 0.73193 0.44118 1.02529 0.0
C301 C 0.7472 0.40044 0.03677 0.0
N302 N 0.76872 0.47305 0.05879 0.0
N303 N 0.70381 0.36812 1.01121 0.0
H304 H 0.7703 0.38337 0.05691 0.0
H305 H 0.74555 0.36172 0.03028 0.0
H306 H 0.68524 0.36382 1.00014 0.0
H307 H 0.70312 0.35048 1.02077 0.0
H308 H 0.76537 0.48951 0.05322 0.0
H309 H 0.78486 0.47824 0.07427 0.0
H310 H 0.72078 0.46896 0.04476 0.0
H311 H 0.69557 0.44447 1.02021 0.0
C312 C 0.34816 0.73617 0.37905 0.0
C313 C 0.37451 0.7618 0.37528 0.0
C314 C 0.37214 0.75444 0.32137 0.0
C315 C 0.34723 0.72759 0.32544 0.0
N316 N 0.31381 0.69081 0.3585 0.0
N317 N 0.41427 0.79289 0.34377 0.0
C318 C 0.33583 0.71786 0.35441 0.0
C319 C 0.38726 0.77025 0.34667 0.0
N320 N 0.33449 0.72975 0.40593 0.0
N321 N 0.38084 0.76527 0.29329 0.0
H322 H 0.42617 0.80492 0.36177 0.0
H323 H 0.42586 0.7982 0.32399 0.0
H324 H 0.37024 0.75446 0.27416 0.0
H325 H 0.39698 0.78595 0.289 0.0
H326 H 0.31383 0.71296 0.40923 0.0
H327 H 0.34288 0.7426 0.42446 0.0
H328 H 0.30658 0.68147 0.37939 0.0
H329 H 0.3042 0.67685 0.341 0.0
C330 C 0.6378 0.35141 0.68523 0.0
C331 C 0.63749 0.34458 0.71585 0.0
C332 C 0.64064 0.30335 0.70236 0.0
C333 C 0.63741 0.30827 0.67191 0.0
N334 N 0.62878 0.33471 0.63451 0.0
N335 N 0.6344 0.31179 0.75378 0.0
C336 C 0.63496 0.33176 0.66334 0.0
C337 C 0.63787 0.31997 0.72451 0.0
N338 N 0.64155 0.37702 0.67706 0.0
N339 N 0.6471 0.28326 0.71007 0.0
H340 H 0.63216 0.32326 0.77069 0.0
H341 H 0.63132 0.29244 0.76104 0.0
H342 H 0.64949 0.27082 0.69445 0.0
H343 H 0.65265 0.2807 0.73156 0.0
H344 H 0.64495 0.38443 0.65514 0.0
H345 H 0.64393 0.39204 0.69246 0.0
H346 H 0.62359 0.34959 0.62762 0.0
H347 H 0.62643 0.32075 0.61782 0.0
C348 C 0.06628 0.52171 0.21923 0.0
C349 C 0.08047 0.54863 0.20507 0.0
C350 C 1.03449 0.54344 0.19174 0.0
C351 C 1.02035 0.51604 0.20484 0.0
N352 N 1.02252 0.47669 0.22542 0.0
N353 N 0.07877 0.583 0.17299 0.0
C354 C 1.03621 0.50444 0.21685 0.0
C355 C 0.06474 0.55883 0.18978 0.0
N356 N 0.08142 0.51311 0.23598 0.0
N357 N 1.01908 0.55521 0.1823 0.0
H358 H 0.1009 0.59483 0.17126 0.0
H359 H 0.06857 0.59005 0.15882 0.0
H360 H 0.99691 0.54449 0.18305 0.0
H361 H 1.0282 0.57623 0.1757 0.0
H362 H 0.072 0.49527 0.24972 0.0
H363 H 0.1035 0.52493 0.23795 0.0
H364 H 1.03306 0.46616 0.23145 0.0
H365 H 1.00052 0.46341 0.22396 0.0
C366 C 0.58279 0.04968 0.54269 0.0
C367 C 0.56994 0.06252 0.52665 0.0
C368 C 0.52611 1.01646 0.52185 0.0
C369 C 0.53991 1.00333 0.53541 0.0
N370 N 0.58274 1.00673 0.55461 0.0
N371 N 0.53097 0.05811 0.49731 0.0
C372 C 0.56864 1.01976 0.54477 0.0
C373 C 0.542 0.04589 0.51523 0.0
N374 N 0.60825 0.06614 0.55657 0.0
N375 N 0.49761 1.00094 0.51613 0.0
H376 H 0.54178 0.07964 0.49234 0.0
H377 H 0.5121 0.04667 0.48552 0.0
H378 H 0.48531 0.97935 0.52059 0.0
H379 H 0.48566 1.00977 0.50926 0.0
H380 H 0.61722 0.0582 0.57132 0.0
H381 H 0.61935 0.08811 0.55535 0.0
H382 H 0.60452 1.01737 0.55865 0.0
H383 H 0.57317 0.98488 0.55636 0.0
C384 C 0.52526 0.5202 0.85859 0.0
C385 C 0.5361 0.54628 0.87334 0.0
C386 C 0.58018 0.54659 0.88451 0.0
C387 C 0.56788 0.51892 0.87314 0.0
N388 N 0.52771 0.478 0.85184 0.0
N389 N 0.57254 0.5832 0.90311 0.0
C390 C 0.5402 0.5054 0.86062 0.0
C391 C 0.5633 0.55929 0.8869 0.0
N392 N 0.50091 0.50986 0.84225 0.0
N393 N 0.60821 0.56092 0.89247 0.0
H394 H 0.56103 0.5934 0.90503 0.0
H395 H 0.59058 0.59181 0.91645 0.0
H396 H 0.6212 0.55228 0.89096 0.0
H397 H 0.61926 0.58216 0.89801 0.0
H398 H 0.49343 0.49251 0.82844 0.0
H399 H 0.48939 0.5201 0.84047 0.0
H400 H 0.50644 0.4659 0.84573 0.0
H401 H 0.53806 0.46656 0.85268 0.0
loop_
_geom_bond_atom_site_label_1
_geom_bond_atom_site_label_2
_geom_bond_distance
_geom_bond_site_symmetry_2
_ccdc_geom_bond_type
C0 C1 1.264 . S
C0 C5 1.479 . S
C0 C10 1.465 . S
C1 C0 1.264 . S
C1 C3 1.339 . S
C1 H28 0.931 . S
C2 C3 1.395 . S
C2 C4 1.320 . S
C3 C1 1.339 . S
C3 C2 1.395 . S
C3 H29 0.929 . S
C4 C2 1.320 . S
C4 C5 1.405 . S
C4 H30 0.930 . S
C5 C0 1.479 . S
C5 C4 1.405 . S
C5 H31 0.931 . S
U6 O7 2.454 . S
U6 O8 2.458 . S
U6 C9 2.984 . S
U6 C10 2.847 . S
U6 C23 2.882 . S
U6 O24 2.441 . S
U6 O25 2.420 . S
U6 O26 2.455 . S
U6 O27 2.449 . S
O7 U6 2.454 . S
O7 C9 1.353 . S
O8 U6 2.458 . S
O8 C9 1.286 . S
C9 U6 2.984 . S
C9 O7 1.353 . S
C9 O8 1.286 . S
C9 C11 1.363 . S
C10 C0 1.465 . S
C10 U6 2.847 . S
C10 O24 1.249 . S
C10 O25 1.202 . S
C11 C9 1.363 . S
C11 C13 1.408 . S
C11 C16 1.342 . S
C12 C13 1.310 . S
C12 C15 1.461 . S
C12 H32 0.932 . S
C13 C11 1.408 . S
C13 C12 1.310 . S
C13 H33 0.930 . S
C14 C15 1.474 . S
C14 C16 1.285 . S
C14 H34 0.929 . S
C15 C12 1.461 . S
C15 C14 1.474 . S
C16 C11 1.342 . S
C16 C14 1.285 . S
C16 H35 0.930 . S
C17 C20 1.424 . S
C17 C22 1.245 . S
C17 C23 1.428 . S
C18 C21 1.260 . S
C18 C22 1.477 . S
C18 H36 0.932 . S
C19 C20 1.384 . S
C19 C21 1.479 . S
C19 H37 0.929 . S
C20 C17 1.424 . S
C20 C19 1.384 . S
C20 H38 0.928 . S
C21 C18 1.260 . S
C21 C19 1.479 . S
C22 C17 1.245 . S
C22 C18 1.477 . S
C22 H39 0.932 . S
C23 U6 2.882 . S
C23 C17 1.428 . S
C23 O26 1.301 . S
C23 O27 1.282 . S
O24 U6 2.441 . S
O24 C10 1.249 . S
O25 U6 2.420 . S
O25 C10 1.202 . S
O26 U6 2.455 . S
O26 C23 1.301 . S
O27 U6 2.449 . S
O27 C23 1.282 . S
H28 C1 0.931 . S
H29 C3 0.929 . S
H30 C4 0.930 . S
H31 C5 0.931 . S
H32 C12 0.932 . S
H33 C13 0.930 . S
H34 C14 0.929 . S
H35 C16 0.930 . S
H36 C18 0.932 . S
H37 C19 0.929 . S
H38 C20 0.928 . S
H39 C22 0.932 . S
C40 C41 1.264 . S
C40 C45 1.479 . S
C40 C50 1.465 . S
C41 C40 1.264 . S
C41 C43 1.339 . S
C41 H68 0.931 . S
C42 C43 1.395 . S
C42 C44 1.320 . S
C43 C41 1.339 . S
C43 C42 1.395 . S
C43 H69 0.929 . S
C44 C42 1.320 . S
C44 C45 1.405 . S
C44 H70 0.930 . S
C45 C40 1.479 . S
C45 C44 1.405 . S
C45 H71 0.931 . S
U46 O47 2.454 . S
U46 O48 2.458 . S
U46 C49 2.984 . S
U46 C50 2.847 . S
U46 C63 2.882 . S
U46 O64 2.441 . S
U46 O65 2.420 . S
U46 O66 2.455 . S
U46 O67 2.449 . S
O47 U46 2.454 . S
O47 C49 1.353 . S
O48 U46 2.458 . S
O48 C49 1.286 . S
C49 U46 2.984 . S
C49 O47 1.353 . S
C49 O48 1.286 . S
C49 C51 1.363 . S
C50 C40 1.465 . S
C50 U46 2.847 . S
C50 O64 1.249 . S
C50 O65 1.202 . S
C51 C49 1.363 . S
C51 C53 1.408 . S
C51 C56 1.342 . S
C52 C53 1.310 . S
C52 C55 1.461 . S
C52 H72 0.932 . S
C53 C51 1.408 . S
C53 C52 1.310 . S
C53 H73 0.930 . S
C54 C55 1.474 . S
C54 C56 1.285 . S
C54 H74 0.929 . S
C55 C52 1.461 . S
C55 C54 1.474 . S
C56 C51 1.342 . S
C56 C54 1.285 . S
C56 H75 0.930 . S
C57 C60 1.424 . S
C57 C62 1.245 . S
C57 C63 1.428 . S
C58 C61 1.260 . S
C58 C62 1.477 . S
C58 H76 0.932 . S
C59 C60 1.384 . S
C59 C61 1.479 . S
C59 H77 0.929 . S
C60 C57 1.424 . S
C60 C59 1.384 . S
C60 H78 0.928 . S
C61 C58 1.260 . S
C61 C59 1.479 . S
C62 C57 1.245 . S
C62 C58 1.477 . S
C62 H79 0.932 . S
C63 U46 2.882 . S
C63 C57 1.428 . S
C63 O66 1.301 . S
C63 O67 1.282 . S
O64 U46 2.441 . S
O64 C50 1.249 . S
O65 U46 2.420 . S
O65 C50 1.202 . S
O66 U46 2.455 . S
O66 C63 1.301 . S
O67 U46 2.449 . S
O67 C63 1.282 . S
H68 C41 0.931 . S
H69 C43 0.929 . S
H70 C44 0.930 . S
H71 C45 0.931 . S
H72 C52 0.932 . S
H73 C53 0.930 . S
H74 C54 0.929 . S
H75 C56 0.930 . S
H76 C58 0.932 . S
H77 C59 0.929 . S
H78 C60 0.928 . S
H79 C62 0.932 . S
C80 C81 1.264 . S
C80 C85 1.479 . S
C80 C90 1.465 . S
C81 C80 1.264 . S
C81 C83 1.339 . S
C81 H108 0.931 . S
C82 C83 1.395 . S
C82 C84 1.320 . S
C83 C81 1.339 . S
C83 C82 1.395 . S
C83 H109 0.929 . S
C84 C82 1.320 . S
C84 C85 1.405 . S
C84 H110 0.930 . S
C85 C80 1.479 . S
C85 C84 1.405 . S
C85 H111 0.931 . S
U86 O87 2.454 . S
U86 O88 2.458 . S
U86 C89 2.984 . S
U86 C90 2.847 . S
U86 C103 2.882 . S
U86 O104 2.441 . S
U86 O105 2.420 . S
U86 O106 2.455 . S
U86 O107 2.449 . S
O87 U86 2.454 . S
O87 C89 1.353 . S
O88 U86 2.458 . S
O88 C89 1.286 . S
C89 U86 2.984 . S
C89 O87 1.353 . S
C89 O88 1.286 . S
C89 C91 1.363 . S
C90 C80 1.465 . S
C90 U86 2.847 . S
C90 O104 1.249 . S
C90 O105 1.202 . S
C91 C89 1.363 . S
C91 C93 1.408 . S
C91 C96 1.342 . S
C92 C93 1.310 . S
C92 C95 1.461 . S
C92 H112 0.932 . S
C93 C91 1.408 . S
C93 C92 1.310 . S
C93 H113 0.930 . S
C94 C95 1.474 . S
C94 C96 1.285 . S
C94 H114 0.929 . S
C95 C92 1.461 . S
C95 C94 1.474 . S
C96 C91 1.342 . S
C96 C94 1.285 . S
C96 H115 0.930 . S
C97 C100 1.424 . S
C97 C102 1.245 . S
C97 C103 1.428 . S
C98 C101 1.260 . S
C98 C102 1.477 . S
C98 H116 0.932 . S
C99 C100 1.384 . S
C99 C101 1.479 . S
C99 H117 0.929 . S
C100 C97 1.424 . S
C100 C99 1.384 . S
C100 H118 0.928 . S
C101 C98 1.260 . S
C101 C99 1.479 . S
C102 C97 1.245 . S
C102 C98 1.477 . S
C102 H119 0.932 . S
C103 U86 2.882 . S
C103 C97 1.428 . S
C103 O106 1.301 . S
C103 O107 1.282 . S
O104 U86 2.441 . S
O104 C90 1.249 . S
O105 U86 2.420 . S
O105 C90 1.202 . S
O106 U86 2.455 . S
O106 C103 1.301 . S
O107 U86 2.449 . S
O107 C103 1.282 . S
H108 C81 0.931 . S
H109 C83 0.929 . S
H110 C84 0.930 . S
H111 C85 0.931 . S
H112 C92 0.932 . S
H113 C93 0.930 . S
H114 C94 0.929 . S
H115 C96 0.930 . S
H116 C98 0.932 . S
H117 C99 0.929 . S
H118 C100 0.928 . S
H119 C102 0.932 . S
C120 C121 1.264 . S
C120 C125 1.479 . S
C120 C130 1.465 . S
C121 C120 1.264 . S
C121 C123 1.339 . S
C121 H148 0.931 . S
C122 C123 1.395 . S
C122 C124 1.320 . S
C123 C121 1.339 . S
C123 C122 1.395 . S
C123 H149 0.929 . S
C124 C122 1.320 . S
C124 C125 1.405 . S
C124 H150 0.930 . S
C125 C120 1.479 . S
C125 C124 1.405 . S
C125 H151 0.931 . S
U126 O127 2.454 . S
U126 O128 2.458 . S
U126 C129 2.984 . S
U126 C130 2.847 . S
U126 C143 2.882 . S
U126 O144 2.441 . S
U126 O145 2.420 . S
U126 O146 2.455 . S
U126 O147 2.449 . S
O127 U126 2.454 . S
O127 C129 1.353 . S
O128 U126 2.458 . S
O128 C129 1.286 . S
C129 U126 2.984 . S
C129 O127 1.353 . S
C129 O128 1.286 . S
C129 C131 1.363 . S
C130 C120 1.465 . S
C130 U126 2.847 . S
C130 O144 1.249 . S
C130 O145 1.202 . S
C131 C129 1.363 . S
C131 C133 1.408 . S
C131 C136 1.342 . S
C132 C133 1.310 . S
C132 C135 1.461 . S
C132 H152 0.932 . S
C133 C131 1.408 . S
C133 C132 1.310 . S
C133 H153 0.930 . S
C134 C135 1.474 . S
C134 C136 1.285 . S
C134 H154 0.929 . S
C135 C132 1.461 . S
C135 C134 1.474 . S
C136 C131 1.342 . S
C136 C134 1.285 . S
C136 H155 0.930 . S
C137 C140 1.424 . S
C137 C142 1.245 . S
C137 C143 1.428 . S
C138 C141 1.260 . S
C138 C142 1.477 . S
C138 H156 0.932 . S
C139 C140 1.384 . S
C139 C141 1.479 . S
C139 H157 0.929 . S
C140 C137 1.424 . S
C140 C139 1.384 . S
C140 H158 0.928 . S
C141 C138 1.260 . S
C141 C139 1.479 . S
C142 C137 1.245 . S
C142 C138 1.477 . S
C142 H159 0.932 . S
C143 U126 2.882 . S
C143 C137 1.428 . S
C143 O146 1.301 . S
C143 O147 1.282 . S
O144 U126 2.441 . S
O144 C130 1.249 . S
O145 U126 2.420 . S
O145 C130 1.202 . S
O146 U126 2.455 . S
O146 C143 1.301 . S
O147 U126 2.449 . S
O147 C143 1.282 . S
H148 C121 0.931 . S
H149 C123 0.929 . S
H150 C124 0.930 . S
H151 C125 0.931 . S
H152 C132 0.932 . S
H153 C133 0.930 . S
H154 C134 0.929 . S
H155 C136 0.930 . S
H156 C138 0.932 . S
H157 C139 0.929 . S
H158 C140 0.928 . S
H159 C142 0.932 . S
C160 C161 1.264 . S
C160 C165 1.479 . S
C160 C170 1.465 . S
C161 C160 1.264 . S
C161 C163 1.339 . S
C161 H188 0.931 . S
C162 C163 1.395 . S
C162 C164 1.320 . S
C163 C161 1.339 . S
C163 C162 1.395 . S
C163 H189 0.929 . S
C164 C162 1.320 . S
C164 C165 1.405 . S
C164 H190 0.930 . S
C165 C160 1.479 . S
C165 C164 1.405 . S
C165 H191 0.931 . S
U166 O167 2.454 . S
U166 O168 2.458 . S
U166 C169 2.984 . S
U166 C170 2.847 . S
U166 C183 2.882 . S
U166 O184 2.441 . S
U166 O185 2.420 . S
U166 O186 2.455 . S
U166 O187 2.449 . S
O167 U166 2.454 . S
O167 C169 1.353 . S
O168 U166 2.458 . S
O168 C169 1.286 . S
C169 U166 2.984 . S
C169 O167 1.353 . S
C169 O168 1.286 . S
C169 C171 1.363 . S
C170 C160 1.465 . S
C170 U166 2.847 . S
C170 O184 1.249 . S
C170 O185 1.202 . S
C171 C169 1.363 . S
C171 C173 1.408 . S
C171 C176 1.342 . S
C172 C173 1.310 . S
C172 C175 1.461 . S
C172 H192 0.932 . S
C173 C171 1.408 . S
C173 C172 1.310 . S
C173 H193 0.930 . S
C174 C175 1.474 . S
C174 C176 1.285 . S
C174 H194 0.929 . S
C175 C172 1.461 . S
C175 C174 1.474 . S
C176 C171 1.342 . S
C176 C174 1.285 . S
C176 H195 0.930 . S
C177 C180 1.424 . S
C177 C182 1.245 . S
C177 C183 1.428 . S
C178 C181 1.260 . S
C178 C182 1.477 . S
C178 H196 0.932 . S
C179 C180 1.384 . S
C179 C181 1.479 . S
C179 H197 0.929 . S
C180 C177 1.424 . S
C180 C179 1.384 . S
C180 H198 0.928 . S
C181 C178 1.260 . S
C181 C179 1.479 . S
C182 C177 1.245 . S
C182 C178 1.477 . S
C182 H199 0.932 . S
C183 U166 2.882 . S
C183 C177 1.428 . S
C183 O186 1.301 . S
C183 O187 1.282 . S
O184 U166 2.441 . S
O184 C170 1.249 . S
O185 U166 2.420 . S
O185 C170 1.202 . S
O186 U166 2.455 . S
O186 C183 1.301 . S
O187 U166 2.449 . S
O187 C183 1.282 . S
H188 C161 0.931 . S
H189 C163 0.929 . S
H190 C164 0.930 . S
H191 C165 0.931 . S
H192 C172 0.932 . S
H193 C173 0.930 . S
H194 C174 0.929 . S
H195 C176 0.930 . S
H196 C178 0.932 . S
H197 C179 0.929 . S
H198 C180 0.928 . S
H199 C182 0.932 . S
C200 C201 1.264 . S
C200 C205 1.479 . S
C200 C210 1.465 . S
C201 C200 1.264 . S
C201 C203 1.339 . S
C201 H228 0.931 . S
C202 C203 1.395 . S
C202 C204 1.320 . S
C203 C201 1.339 . S
C203 C202 1.395 . S
C203 H229 0.929 . S
C204 C202 1.320 . S
C204 C205 1.405 . S
C204 H230 0.930 . S
C205 C200 1.479 . S
C205 C204 1.405 . S
C205 H231 0.931 . S
U206 O207 2.454 . S
U206 O208 2.458 . S
U206 C209 2.984 . S
U206 C210 2.847 . S
U206 C223 2.882 . S
U206 O224 2.441 . S
U206 O225 2.420 . S
U206 O226 2.455 . S
U206 O227 2.449 . S
O207 U206 2.454 . S
O207 C209 1.353 . S
O208 U206 2.458 . S
O208 C209 1.286 . S
C209 U206 2.984 . S
C209 O207 1.353 . S
C209 O208 1.286 . S
C209 C211 1.363 . S
C210 C200 1.465 . S
C210 U206 2.847 . S
C210 O224 1.249 . S
C210 O225 1.202 . S
C211 C209 1.363 . S
C211 C213 1.408 . S
C211 C216 1.342 . S
C212 C213 1.310 . S
C212 C215 1.461 . S
C212 H232 0.932 . S
C213 C211 1.408 . S
C213 C212 1.310 . S
C213 H233 0.930 . S
C214 C215 1.474 . S
C214 C216 1.285 . S
C214 H234 0.929 . S
C215 C212 1.461 . S
C215 C214 1.474 . S
C216 C211 1.342 . S
C216 C214 1.285 . S
C216 H235 0.930 . S
C217 C220 1.424 . S
C217 C222 1.245 . S
C217 C223 1.428 . S
C218 C221 1.260 . S
C218 C222 1.477 . S
C218 H236 0.932 . S
C219 C220 1.384 . S
C219 C221 1.479 . S
C219 H237 0.929 . S
C220 C217 1.424 . S
C220 C219 1.384 . S
C220 H238 0.928 . S
C221 C218 1.260 . S
C221 C219 1.479 . S
C222 C217 1.245 . S
C222 C218 1.477 . S
C222 H239 0.932 . S
C223 U206 2.882 . S
C223 C217 1.428 . S
C223 O226 1.301 . S
C223 O227 1.282 . S
O224 U206 2.441 . S
O224 C210 1.249 . S
O225 U206 2.420 . S
O225 C210 1.202 . S
O226 U206 2.455 . S
O226 C223 1.301 . S
O227 U206 2.449 . S
O227 C223 1.282 . S
H228 C201 0.931 . S
H229 C203 0.929 . S
H230 C204 0.930 . S
H231 C205 0.931 . S
H232 C212 0.932 . S
H233 C213 0.930 . S
H234 C214 0.929 . S
H235 C216 0.930 . S
H236 C218 0.932 . S
H237 C219 0.929 . S
H238 C220 0.928 . S
H239 C222 0.932 . S
C240 C241 1.363 . S
C240 C246 1.374 1_556 S
C240 N248 1.356 . S
C241 C240 1.363 . S
C241 C247 1.363 . S
C242 C243 1.363 . S
C242 C247 1.379 1_554 S
C242 N249 1.356 . S
C243 C242 1.363 . S
C243 C246 1.368 . S
N244 C246 1.358 . S
N244 H256 0.984 1_554 S
N244 H257 0.985 . S
N245 C247 1.356 . S
N245 H250 0.984 . S
N245 H251 0.994 . S
C246 C240 1.374 1_554 S
C246 C243 1.368 . S
C246 N244 1.358 . S
C247 C241 1.363 . S
C247 C242 1.379 1_556 S
C247 N245 1.356 . S
N248 C240 1.356 . S
N248 H254 0.984 . S
N248 H255 0.984 . S
N249 C242 1.356 . S
N249 H252 0.984 . S
N249 H253 0.985 . S
H250 N245 0.984 . S
H251 N245 0.994 . S
H252 N249 0.984 . S
H253 N249 0.985 . S
H254 N248 0.984 . S
H255 N248 0.984 . S
H256 N244 0.984 1_556 S
H257 N244 0.985 . S
C258 C259 1.363 . S
C258 C264 1.379 . S
C258 N266 1.356 . S
C259 C258 1.363 . S
C259 C265 1.363 . S
C260 C261 1.363 . S
C260 C265 1.379 . S
C260 N267 1.356 . S
C261 C260 1.363 . S
C261 C264 1.363 . S
N262 C264 1.356 . S
N262 H274 0.984 . S
N262 H275 0.985 . S
N263 C265 1.356 . S
N263 H268 0.984 . S
N263 H269 0.985 . S
C264 C258 1.379 . S
C264 C261 1.363 . S
C264 N262 1.356 . S
C265 C259 1.363 . S
C265 C260 1.379 . S
C265 N263 1.356 . S
N266 C258 1.356 . S
N266 H272 0.984 . S
N266 H273 0.984 . S
N267 C260 1.356 . S
N267 H270 0.984 . S
N267 H271 0.985 . S
H268 N263 0.984 . S
H269 N263 0.985 . S
H270 N267 0.984 . S
H271 N267 0.985 . S
H272 N266 0.984 . S
H273 N266 0.984 . S
H274 N262 0.984 . S
H275 N262 0.985 . S
C276 C277 1.363 . S
C276 C282 1.379 . S
C276 N284 1.356 . S
C277 C276 1.363 . S
C277 C283 1.363 . S
C278 C279 1.363 . S
C278 C283 1.379 . S
C278 N285 1.356 . S
C279 C278 1.363 . S
C279 C282 1.363 . S
N280 C282 1.356 . S
N280 H292 0.984 . S
N280 H293 0.985 . S
N281 C283 1.356 . S
N281 H286 0.984 . S
N281 H287 0.985 . S
C282 C276 1.379 . S
C282 C279 1.363 . S
C282 N280 1.356 . S
C283 C277 1.363 . S
C283 C278 1.379 . S
C283 N281 1.356 . S
N284 C276 1.356 . S
N284 H290 0.984 . S
N284 H291 0.984 . S
N285 C278 1.356 . S
N285 H288 0.984 . S
N285 H289 0.985 . S
H286 N281 0.984 . S
H287 N281 0.985 . S
H288 N285 0.984 . S
H289 N285 0.985 . S
H290 N284 0.984 . S
H291 N284 0.984 . S
H292 N280 0.984 . S
H293 N280 0.985 . S
C294 C295 1.363 . S
C294 C300 1.379 1_554 S
C294 N302 1.356 . S
C295 C294 1.363 . S
C295 C301 1.363 . S
C296 C297 1.363 . S
C296 C301 1.379 1_556 S
C296 N303 1.356 . S
C297 C296 1.363 . S
C297 C300 1.363 . S
N298 C300 1.356 . S
N298 H310 0.999 . S
N298 H311 0.985 . S
N299 C301 1.356 . S
N299 H304 0.984 . S
N299 H305 0.985 . S
C300 C294 1.379 1_556 S
C300 C297 1.363 . S
C300 N298 1.356 . S
C301 C295 1.363 . S
C301 C296 1.379 1_554 S
C301 N299 1.356 . S
N302 C294 1.356 . S
N302 H308 0.984 . S
N302 H309 0.984 . S
N303 C296 1.356 . S
N303 H306 0.984 . S
N303 H307 0.985 . S
H304 N299 0.984 . S
H305 N299 0.985 . S
H306 N303 0.984 . S
H307 N303 0.985 . S
H308 N302 0.984 . S
H309 N302 0.984 . S
H310 N298 0.999 . S
H311 N298 0.985 . S
C312 C313 1.363 . S
C312 C318 1.379 . S
C312 N320 1.356 . S
C313 C312 1.363 . S
C313 C319 1.363 . S
C314 C315 1.363 . S
C314 C319 1.379 . S
C314 N321 1.356 . S
C315 C314 1.363 . S
C315 C318 1.363 . S
N316 C318 1.356 . S
N316 H328 0.984 . S
N316 H329 0.985 . S
N317 C319 1.356 . S
N317 H322 0.984 . S
N317 H323 0.985 . S
C318 C312 1.379 . S
C318 C315 1.363 . S
C318 N316 1.356 . S
C319 C313 1.363 . S
C319 C314 1.379 . S
C319 N317 1.356 . S
N320 C312 1.356 . S
N320 H326 0.984 . S
N320 H327 0.984 . S
N321 C314 1.356 . S
N321 H324 0.984 . S
N321 H325 0.985 . S
H322 N317 0.984 . S
H323 N317 0.985 . S
H324 N321 0.984 . S
H325 N321 0.985 . S
H326 N320 0.984 . S
H327 N320 0.984 . S
H328 N316 0.984 . S
H329 N316 0.985 . S
C330 C331 1.363 . S
C330 C336 1.379 . S
C330 N338 1.356 . S
C331 C330 1.363 . S
C331 C337 1.363 . S
C332 C333 1.363 . S
C332 C337 1.379 . S
C332 N339 1.356 . S
C333 C332 1.363 . S
C333 C336 1.363 . S
N334 C336 1.356 . S
N334 H346 0.984 . S
N334 H347 0.985 . S
N335 C337 1.356 . S
N335 H340 0.984 . S
N335 H341 0.985 . S
C336 C330 1.379 . S
C336 C333 1.363 . S
C336 N334 1.356 . S
C337 C331 1.363 . S
C337 C332 1.379 . S
C337 N335 1.356 . S
N338 C330 1.356 . S
N338 H344 0.984 . S
N338 H345 0.984 . S
N339 C332 1.356 . S
N339 H342 0.984 . S
N339 H343 0.985 . S
H340 N335 0.984 . S
H341 N335 0.985 . S
H342 N339 0.984 . S
H343 N339 0.985 . S
H344 N338 0.984 . S
H345 N338 0.984 . S
H346 N334 0.984 . S
H347 N334 0.985 . S
C348 C349 1.363 . S
C348 C354 1.379 1_455 S
C348 N356 1.356 . S
C349 C348 1.363 . S
C349 C355 1.363 . S
C350 C351 1.363 . S
C350 C355 1.379 1_655 S
C350 N357 1.356 . S
C351 C350 1.363 . S
C351 C354 1.363 . S
N352 C354 1.356 . S
N352 H364 0.984 . S
N352 H365 0.985 . S
N353 C355 1.356 . S
N353 H358 0.984 . S
N353 H359 0.985 . S
C354 C348 1.379 1_655 S
C354 C351 1.363 . S
C354 N352 1.356 . S
C355 C349 1.363 . S
C355 C350 1.379 1_455 S
C355 N353 1.356 . S
N356 C348 1.356 . S
N356 H362 0.984 . S
N356 H363 0.984 . S
N357 C350 1.356 . S
N357 H360 0.984 . S
N357 H361 0.985 . S
H358 N353 0.984 . S
H359 N353 0.985 . S
H360 N357 0.984 . S
H361 N357 0.985 . S
H362 N356 0.984 . S
H363 N356 0.984 . S
H364 N352 0.984 . S
H365 N352 0.985 . S
C366 C367 1.363 . S
C366 C372 1.379 1_545 S
C366 N374 1.356 . S
C367 C366 1.363 . S
C367 C373 1.363 . S
C368 C369 1.363 . S
C368 C373 1.379 1_565 S
C368 N375 1.356 . S
C369 C368 1.363 . S
C369 C372 1.363 . S
N370 C372 1.356 . S
N370 H382 0.984 . S
N370 H383 0.985 . S
N371 C373 1.356 . S
N371 H376 0.984 . S
N371 H377 0.985 . S
C372 C366 1.379 1_565 S
C372 C369 1.363 . S
C372 N370 1.356 . S
C373 C367 1.363 . S
C373 C368 1.379 1_545 S
C373 N371 1.356 . S
N374 C366 1.356 . S
N374 H380 0.984 . S
N374 H381 0.984 . S
N375 C368 1.356 . S
N375 H378 0.984 . S
N375 H379 0.985 . S
H376 N371 0.984 . S
H377 N371 0.985 . S
H378 N375 0.984 . S
H379 N375 0.985 . S
H380 N374 0.984 . S
H381 N374 0.984 . S
H382 N370 0.984 . S
H383 N370 0.985 . S
C384 C385 1.363 . S
C384 C390 1.379 . S
C384 N392 1.356 . S
C385 C384 1.363 . S
C385 C391 1.363 . S
C386 C387 1.363 . S
C386 C391 1.379 . S
C386 N393 1.356 . S
C387 C386 1.363 . S
C387 C390 1.363 . S
N388 C390 1.356 . S
N388 H400 0.984 . S
N388 H401 0.985 . S
N389 C391 1.356 . S
N389 H394 0.984 . S
N389 H395 0.985 . S
C390 C384 1.379 . S
C390 C387 1.363 . S
C390 N388 1.356 . S
C391 C385 1.363 . S
C391 C386 1.379 . S
C391 N389 1.356 . S
N392 C384 1.356 . S
N392 H398 0.984 . S
N392 H399 0.984 . S
N393 C386 1.356 . S
N393 H396 0.984 . S
N393 H397 0.985 . S
H394 N389 0.984 . S
H395 N389 0.985 . S
H396 N393 0.984 . S
H397 N393 0.985 . S
H398 N392 0.984 . S
H399 N392 0.984 . S
H400 N388 0.984 . S
H401 N388 0.985 . S
C241 C101 1.487 . S
C243 C2 1.487 . S
C259 C61 1.492 . S
C261 C141 1.486 . S
C277 C82 1.484 . S
C279 C181 1.491 . S
C295 C122 1.488 . S
C297 C221 1.488 . S
C313 C162 1.491 . S
C315 C21 1.486 . S
C331 C202 1.485 . S
C333 C42 1.490 . S
C349 C15 1.504 . S
C351 C135 1.504 . S
C367 C55 1.500 . S
C369 C175 1.500 . S
C385 C95 1.505 . S
C387 C215 1.505 . S
