# Generated by pormake.
# Topology cab, (5)-cn, num edge types: 1
# Building blocks:
#     Node 0, Type 0, BuildingBlock: BEQFEK_clean_sbu_0, # of connection points: 5
#     Node 1, Type 0, BuildingBlock: BEQFEK_clean_sbu_0, # of connection points: 5
#     Node 2, Type 0, BuildingBlock: BEQFEK_clean_sbu_0, # of connection points: 5
#     Node 3, Type 0, BuildingBlock: BEQFEK_clean_sbu_0, # of connection points: 5
#     Node 4, Type 0, BuildingBlock: BEQFEK_clean_sbu_0, # of connection points: 5
#     Node 5, Type 0, BuildingBlock: BEQFEK_clean_sbu_0, # of connection points: 5
#     Edge 6, Type (0, 0), BuildingBlock: ZUJKAS_clean_linker_0, # of connection points: 2
#     Edge 7, Type (0, 0), BuildingBlock: ZUJKAS_clean_linker_0, # of connection points: 2
#     Edge 8, Type (0, 0), BuildingBlock: ZUJKAS_clean_linker_0, # of connection points: 2
#     Edge 9, Type (0, 0), BuildingBlock: ZUJKAS_clean_linker_0, # of connection points: 2
#     Edge 10, Type (0, 0), BuildingBlock: ZUJKAS_clean_linker_0, # of connection points: 2
#     Edge 11, Type (0, 0), BuildingBlock: ZUJKAS_clean_linker_0, # of connection points: 2
#     Edge 12, Type (0, 0), BuildingBlock: ZUJKAS_clean_linker_0, # of connection points: 2
#     Edge 13, Type (0, 0), BuildingBlock: ZUJKAS_clean_linker_0, # of connection points: 2
#     Edge 14, Type (0, 0), BuildingBlock: ZUJKAS_clean_linker_0, # of connection points: 2
#     Edge 15, Type (0, 0), BuildingBlock: ZUJKAS_clean_linker_0, # of connection points: 2
#     Edge 16, Type (0, 0), BuildingBlock: ZUJKAS_clean_linker_0, # of connection points: 2
#     Edge 17, Type (0, 0), BuildingBlock: ZUJKAS_clean_linker_0, # of connection points: 2
#     Edge 18, Type (0, 0), BuildingBlock: ZUJKAS_clean_linker_0, # of connection points: 2
#     Edge 19, Type (0, 0), BuildingBlock: ZUJKAS_clean_linker_0, # of connection points: 2
#     Edge 20, Type (0, 0), BuildingBlock: ZUJKAS_clean_linker_0, # of connection points: 2
# Relax obj value: 1.222
# Max RMSD: 0.227
# Mean RMSD: 0.212
data_MOF--net-cab--node1-BEQFEK_clean_sbu_0--edge1-ZUJKAS_clean_linker_0
_symmetry_space_group_name_H-M    P1
_symmetry_Int_Tables_number       1
_symmetry_cell_setting            triclinic
loop_
_symmetry_equiv_pos_as_xyz
'x, y, z'
_cell_length_a     39.509642
_cell_length_b     38.702687
_cell_length_c     40.315797
_cell_angle_alpha  112.78035
_cell_angle_beta   96.212426
_cell_angle_gamma 130.29418
loop_
_atom_site_label
_atom_site_type_symbol
_atom_site_fract_x
_atom_site_fract_y
_atom_site_fract_z
_atom_type_partial_charge
Co0 Co 0.3751 0.55404 0.72128 0.0
Co1 Co 0.26461 0.49804 0.67956 0.0
C2 C 0.29381 0.45193 0.63097 0.0
O3 O 0.33852 0.489 0.66245 0.0
O4 O 0.26201 0.45184 0.63327 0.0
C5 C 0.46635 0.60966 0.72085 0.0
O6 O 0.43924 0.60024 0.68947 0.0
C7 C 0.17249 0.44793 0.61665 0.0
C8 C 0.12076 0.41899 0.6421 0.0
C9 C 0.1218 0.41523 0.60668 0.0
N10 N 0.19991 0.46948 0.6559 0.0
N11 N 0.169 0.45315 0.6713 0.0
C12 C 0.1926 0.45161 0.58726 0.0
H13 H 0.17072 0.40849 0.56061 0.0
H14 H 0.23434 0.47971 0.60339 0.0
H15 H 0.18708 0.46934 0.57448 0.0
C16 C 0.40497 0.65482 0.73766 0.0
N17 N 0.36931 0.60074 0.72473 0.0
N18 N 0.32313 0.57664 0.70534 0.0
C19 C 0.32819 0.614 0.70405 0.0
C20 C 0.38034 0.66459 0.72373 0.0
C21 C 0.46216 0.69706 0.76228 0.0
H22 H 0.47173 0.68651 0.78061 0.0
H23 H 0.47774 0.69771 0.74098 0.0
H24 H 0.48112 0.74037 0.78386 0.0
O25 O 0.3442 0.51905 0.74891 0.0
O26 O 0.26597 0.47844 0.71809 0.0
H27 H 0.25086 0.57132 0.68236 0.0
H28 H 0.29495 0.63715 0.68878 0.0
C29 C 0.2841 0.5988 0.67887 0.0
H30 H 0.27238 0.57544 0.64543 0.0
H31 H 0.17976 0.46142 0.70045 0.0
O32 O 0.44725 0.59502 0.7424 0.0
C33 C 0.29853 0.48757 0.74268 0.0
Co34 Co 0.11584 0.01783 0.79723 0.0
Co35 Co 0.00753 0.96835 0.76372 0.0
C36 C 0.09694 0.08001 0.84596 0.0
O37 O 0.12482 0.0748 0.8403 0.0
O38 O 0.04909 0.04068 0.81931 0.0
C39 C 0.19399 0.05894 0.86188 0.0
O40 O 0.16165 0.04855 0.87511 0.0
C41 C 0.91446 0.9267 0.76361 0.0
C42 C 0.85621 0.86679 0.69654 0.0
C43 C 0.8628 0.88881 0.73623 0.0
N44 N 0.93752 0.92745 0.74131 0.0
N45 N 0.90266 0.89201 0.70121 0.0
C46 C 0.94043 0.95702 0.8099 0.0
H47 H 0.97197 0.96284 0.8203 0.0
H48 H 0.91255 0.93313 0.81894 0.0
H49 H 0.95732 0.99951 0.8261 0.0
C50 C 0.05221 0.90697 0.78281 0.0
N51 N 0.05718 0.94365 0.78023 0.0
N52 N 0.01215 0.92347 0.76704 0.0
C53 C 0.97736 0.87356 0.76123 0.0
C54 C 0.00163 0.86179 0.77156 0.0
C55 C 0.09613 0.91773 0.79977 0.0
H56 H 0.12553 0.94277 0.79229 0.0
H57 H 0.11387 0.9415 0.83419 0.0
H58 H 0.08281 0.87745 0.78653 0.0
O59 O 0.11009 0.02401 0.75117 0.0
O60 O 0.03519 0.99252 0.72968 0.0
H61 H 0.9046 0.8324 0.71951 0.0
H62 H 0.89951 0.79562 0.73923 0.0
C63 C 0.92198 0.83811 0.74735 0.0
H64 H 0.9195 0.85974 0.77282 0.0
H65 H 0.91021 0.88372 0.67699 0.0
O66 O 0.1816 0.04612 0.82536 0.0
C67 C 0.07643 0.01511 0.72842 0.0
Co68 Co 0.65446 0.43172 0.31651 0.0
Co69 Co 0.67375 0.47304 0.40764 0.0
C70 C 0.56795 0.37877 0.337 0.0
O71 O 0.58573 0.38209 0.31243 0.0
O72 O 0.59791 0.41305 0.37647 0.0
C73 C 0.60473 0.40595 0.24231 0.0
O74 O 0.58824 0.41984 0.26462 0.0
C75 C 0.67618 0.51316 0.48815 0.0
C76 C 0.75938 0.5799 0.53366 0.0
C77 C 0.71246 0.55422 0.53072 0.0
N78 N 0.70059 0.51429 0.46698 0.0
N79 N 0.75022 0.55392 0.49444 0.0
C80 C 0.62037 0.47787 0.46772 0.0
H81 H 0.59647 0.43388 0.45666 0.0
H82 H 0.60939 0.47627 0.44026 0.0
H83 H 0.6118 0.49503 0.48947 0.0
C84 C 0.71385 0.54907 0.35255 0.0
N85 N 0.69706 0.50886 0.35709 0.0
N86 N 0.70052 0.52453 0.39375 0.0
C87 C 0.71645 0.57369 0.4126 0.0
C88 C 0.72526 0.59101 0.38696 0.0
C89 C 0.71776 0.54665 0.31533 0.0
H90 H 0.72721 0.52479 0.30268 0.0
H91 H 0.68051 0.52255 0.29041 0.0
H92 H 0.74778 0.59011 0.324 0.0
O93 O 0.68497 0.41157 0.33024 0.0
O94 O 0.69127 0.43251 0.39192 0.0
H95 H 0.74942 0.62424 0.47888 0.0
H96 H 0.70816 0.62228 0.45165 0.0
C97 C 0.71344 0.59701 0.45021 0.0
H98 H 0.68057 0.56182 0.4496 0.0
H99 H 0.77813 0.56448 0.48633 0.0
O100 O 0.63801 0.41087 0.25936 0.0
C101 C 0.69501 0.41149 0.36122 0.0
Co102 Co 0.43094 0.78788 0.37973 0.0
Co103 Co 0.41426 0.73923 0.28883 0.0
C104 C 0.33215 0.66906 0.3064 0.0
O105 O 0.36065 0.70716 0.34579 0.0
O106 O 0.34871 0.67757 0.28209 0.0
C107 C 0.44133 0.78621 0.4477 0.0
O108 O 0.42664 0.74071 0.41913 0.0
C109 C 0.3763 0.65153 0.20619 0.0
C110 C 0.41676 0.69738 0.18062 0.0
C111 C 0.38013 0.64379 0.17096 0.0
N112 N 0.40846 0.70706 0.23547 0.0
N113 N 0.43275 0.7344 0.22006 0.0
C114 C 0.34485 0.60682 0.21265 0.0
H115 H 0.36525 0.62486 0.24568 0.0
H116 H 0.33712 0.57069 0.19203 0.0
H117 H 0.30732 0.59046 0.20493 0.0
C118 C 0.52251 0.81307 0.39598 0.0
N119 N 0.48022 0.79364 0.37051 0.0
N120 N 0.47092 0.76936 0.33197 0.0
C121 C 0.50542 0.7701 0.33136 0.0
C122 C 0.53958 0.79807 0.37207 0.0
C123 C 0.54745 0.84726 0.4426 0.0
H124 H 0.54166 0.8731 0.45439 0.0
H125 H 0.53003 0.81844 0.45166 0.0
H126 H 0.5894 0.87567 0.45742 0.0
O127 O 0.42445 0.82659 0.36397 0.0
O128 O 0.41736 0.79627 0.30135 0.0
H129 H 0.5141 0.76185 0.27828 0.0
H130 H 0.52439 0.73197 0.29678 0.0
C131 C 0.50126 0.73832 0.2918 0.0
H132 H 0.46053 0.69598 0.26885 0.0
H133 H 0.45983 0.77818 0.23627 0.0
O134 O 0.44783 0.81731 0.43854 0.0
C135 C 0.41882 0.82578 0.33181 0.0
Co136 Co 0.72327 0.03648 0.10772 0.0
Co137 Co 0.64525 0.92189 0.0969 0.0
C138 C 0.75009 0.02327 0.17172 0.0
O139 O 0.75909 0.05091 0.15772 0.0
O140 O 0.70726 0.97089 0.15085 0.0
C141 C 0.81973 0.11812 0.12079 0.0
O142 O 0.81701 0.08193 0.1196 0.0
C143 C 0.60976 0.8232 0.08513 0.0
C144 C 0.52479 0.7577 0.0521 0.0
C145 C 0.56503 0.76664 0.06659 0.0
N146 N 0.59684 0.84661 0.08122 0.0
N147 N 0.54598 0.80752 0.06188 0.0
C148 C 0.66445 0.85556 0.10718 0.0
H149 H 0.68121 0.88373 0.14136 0.0
H150 H 0.68763 0.8829 0.09782 0.0
H151 H 0.6675 0.82751 0.10121 0.0
C152 C 0.69778 0.96173 0.02419 0.0
N153 N 0.69231 0.97011 0.05787 0.0
N154 N 0.66027 0.9218 0.05292 0.0
C155 C 0.64483 0.88107 0.01568 0.0
C156 C 0.66847 0.90529 0.99647 0.0
C157 C 0.72933 0.00663 0.01796 0.0
H158 H 0.72827 0.03658 0.03232 0.0
H159 H 0.76991 0.03058 0.03309 0.0
H160 H 0.7148 0.98746 0.98417 0.0
O161 O 0.67149 0.03067 0.11361 0.0
O162 O 0.61892 0.95272 0.11054 0.0
H163 H 0.575 0.80258 0.00067 0.0
H164 H 0.60051 0.79434 0.96772 0.0
C165 C 0.61079 0.82108 0.99997 0.0
H166 H 0.63117 0.82063 0.02063 0.0
H167 H 0.52571 0.81435 0.05427 0.0
O168 O 0.77985 0.10588 0.1131 0.0
C169 C 0.6331 0.99605 0.11629 0.0
Co170 Co 0.00063 0.82395 0.22629 0.0
Co171 Co 0.97004 0.75334 0.13297 0.0
C172 C 0.04893 0.878 0.1841 0.0
O173 O 0.04314 0.87878 0.21464 0.0
O174 O 0.02208 0.83138 0.14881 0.0
C175 C 0.00913 0.90157 0.28251 0.0
O176 O 0.988 0.89086 0.24727 0.0
C177 C 0.93552 0.70874 0.04539 0.0
C178 C 0.91551 0.63203 0.01709 0.0
C179 C 0.91893 0.66504 0.00823 0.0
N180 N 0.94121 0.7016 0.07475 0.0
N181 N 0.92864 0.65533 0.05757 0.0
C182 C 0.95232 0.76056 0.0547 0.0
H183 H 0.99418 0.79427 0.06597 0.0
H184 H 0.94592 0.77641 0.07966 0.0
H185 H 0.93171 0.75236 0.02677 0.0
C186 C 0.88807 0.74509 0.18586 0.0
N187 N 0.93017 0.76322 0.18431 0.0
N188 N 0.91735 0.73515 0.14496 0.0
C189 C 0.8667 0.69903 0.12022 0.0
C190 C 0.84653 0.7044 0.1454 0.0
C191 C 0.88746 0.76691 0.22534 0.0
H192 H 0.91696 0.78055 0.25104 0.0
H193 H 0.89601 0.80374 0.23429 0.0
H194 H 0.84878 0.73363 0.22064 0.0
O195 O 0.02881 0.79767 0.23048 0.0
O196 O 0.00942 0.75053 0.16474 0.0
H197 H 0.84268 0.63626 0.06071 0.0
H198 H 0.79859 0.63893 0.05947 0.0
C199 C 0.8398 0.66475 0.07356 0.0
H200 H 0.85917 0.69365 0.06466 0.0
H201 H 0.93086 0.64085 0.07386 0.0
O202 O 0.01492 0.87249 0.28141 0.0
C203 C 0.0309 0.76986 0.20266 0.0
H204 H 0.43864 0.85091 0.50504 0.0
H205 H 0.44424 0.86452 0.57116 0.0
H206 H 0.469 0.76636 0.54999 0.0
H207 H 0.46278 0.75201 0.48423 0.0
H208 H 0.37471 0.76653 0.57337 0.0
H209 H 0.581 0.91071 0.67501 0.0
H210 H 0.55797 0.9074 0.63132 0.0
H211 H 0.5536 0.85511 0.62272 0.0
C212 C 0.44613 0.83312 0.51497 0.0
C213 C 0.45002 0.80016 0.48948 0.0
C214 C 0.44931 0.84092 0.55262 0.0
C215 C 0.4577 0.81706 0.56561 0.0
C216 C 0.46337 0.78591 0.54084 0.0
H217 H 0.42747 0.67593 0.67874 0.0
H218 H 0.45299 0.73048 0.65179 0.0
C219 C 0.45939 0.77737 0.5031 0.0
C220 C 0.45523 0.81868 0.60244 0.0
H221 H 0.52103 0.84631 0.68891 0.0
C222 C 0.40698 0.7855 0.59956 0.0
C223 C 0.49752 0.84371 0.63646 0.0
C224 C 0.55061 0.88172 0.64188 0.0
C225 C 0.39859 0.77158 0.62736 0.0
C226 C 0.43994 0.79245 0.65919 0.0
C227 C 0.48935 0.83022 0.66444 0.0
C228 C 0.43061 0.76666 0.68114 0.0
C229 C 0.34459 0.73039 0.61999 0.0
C230 C 0.41075 0.77002 0.7076 0.0
C231 C 0.39628 0.7388 0.72334 0.0
C232 C 0.40184 0.7043 0.71292 0.0
C233 C 0.42374 0.70309 0.68796 0.0
C234 C 0.43813 0.73407 0.67238 0.0
H235 H 0.31593 0.71371 0.59122 0.0
H236 H 0.33272 0.69397 0.61728 0.0
H237 H 0.34362 0.75202 0.64697 0.0
H238 H 0.40521 0.79547 0.71512 0.0
H239 H 0.37952 0.74033 0.74263 0.0
H240 H 0.73794 0.98764 0.22114 0.0
H241 H 0.79581 0.04734 0.2966 0.0
H242 H 0.90471 0.19069 0.29588 0.0
H243 H 0.84789 0.13199 0.22102 0.0
H244 H 0.91179 0.12633 0.34661 0.0
H245 H 0.85854 0.23316 0.37915 0.0
H246 H 0.81866 0.1643 0.3308 0.0
H247 H 0.87562 0.22743 0.33932 0.0
C248 C 0.77468 0.03156 0.23689 0.0
C249 C 0.78798 0.05517 0.21511 0.0
C250 C 0.80753 0.06559 0.27998 0.0
C251 C 0.85392 0.12352 0.30173 0.0
C252 C 0.86865 0.14623 0.27965 0.0
H253 H 0.10642 0.42916 0.54727 0.0
H254 H 0.03733 0.35433 0.47381 0.0
C255 C 0.83611 0.11246 0.2368 0.0
C256 C 0.88623 0.16156 0.34781 0.0
H257 H 0.93058 0.27566 0.43569 0.0
C258 C 0.91549 0.15852 0.36629 0.0
C259 C 0.89084 0.20343 0.37315 0.0
C260 C 0.859 0.20726 0.35478 0.0
C261 C 0.95116 0.1981 0.40949 0.0
C262 C 0.95673 0.24097 0.43474 0.0
C263 C 0.92625 0.24281 0.41629 0.0
C264 C 0.99617 0.28631 0.47991 0.0
C265 C 0.98423 0.19532 0.4274 0.0
C266 C 0.9949 0.27319 0.50801 0.0
C267 C 0.03466 0.31584 0.54988 0.0
C268 C 0.07628 0.37224 0.56425 0.0
C269 C 0.07579 0.38579 0.53668 0.0
C270 C 0.03609 0.34316 0.49484 0.0
H271 H 0.9831 0.1679 0.40261 0.0
H272 H 0.02495 0.23838 0.44973 0.0
H273 H 0.96991 0.17741 0.44459 0.0
H274 H 0.96377 0.2298 0.49736 0.0
H275 H 0.03393 0.30427 0.57055 0.0
H276 H 0.33224 0.41237 0.62313 0.0
H277 H 0.28988 0.32026 0.56429 0.0
H278 H 0.16987 0.28784 0.49499 0.0
H279 H 0.21163 0.37935 0.5534 0.0
H280 H 0.18301 0.21489 0.53344 0.0
H281 H 0.21019 0.2427 0.41011 0.0
H282 H 0.25186 0.30177 0.46508 0.0
H283 H 0.18935 0.26866 0.43618 0.0
C284 C 0.29764 0.38634 0.5949 0.0
C285 C 0.27514 0.403 0.59292 0.0
C286 C 0.27337 0.33364 0.56149 0.0
C287 C 0.2269 0.29751 0.52542 0.0
C288 C 0.20601 0.31546 0.52244 0.0
H289 H 0.9914 0.96151 0.29586 0.0
H290 H 0.04399 0.05632 0.35813 0.0
C291 C 0.22988 0.36772 0.55588 0.0
C292 C 0.19737 0.23891 0.4924 0.0
H293 H 0.14622 0.14788 0.38834 0.0
C294 C 0.17539 0.20017 0.50177 0.0
C295 C 0.18737 0.22013 0.45124 0.0
C296 C 0.21123 0.26049 0.43995 0.0
C297 C 0.14186 0.14235 0.47051 0.0
C298 C 0.13106 0.12331 0.42909 0.0
C299 C 0.15426 0.16251 0.42007 0.0
C300 C 0.09519 0.06287 0.39418 0.0
C301 C 0.11678 0.10191 0.48175 0.0
C302 C 0.10553 0.03436 0.3943 0.0
C303 C 0.07506 0.97974 0.35885 0.0
C304 C 0.03437 0.95332 0.32255 0.0
C305 C 0.02262 0.98089 0.3233 0.0
C306 C 0.05273 0.03512 0.3588 0.0
H307 H 0.11843 0.12043 0.51178 0.0
H308 H 0.07582 0.06135 0.45686 0.0
H309 H 0.1374 0.09227 0.4852 0.0
H310 H 0.13862 0.05533 0.42099 0.0
H311 H 0.08532 0.95975 0.35905 0.0
H312 H 0.63689 0.48744 0.54484 0.0
H313 H 0.61678 0.51744 0.59663 0.0
H314 H 0.75081 0.69228 0.6476 0.0
H315 H 0.77099 0.66246 0.59562 0.0
H316 H 0.69977 0.63153 0.70197 0.0
H317 H 0.59501 0.61889 0.58451 0.0
H318 H 0.59943 0.57208 0.56746 0.0
H319 H 0.65594 0.64642 0.59356 0.0
C320 C 0.66236 0.53229 0.56743 0.0
C321 C 0.70468 0.57257 0.56567 0.0
C322 C 0.6512 0.54938 0.59721 0.0
C323 C 0.68235 0.60696 0.62577 0.0
C324 C 0.7266 0.64767 0.62592 0.0
H325 H 0.54416 0.69513 0.72008 0.0
H326 H 0.61099 0.70957 0.70952 0.0
C327 C 0.73792 0.63058 0.59619 0.0
C328 C 0.66394 0.62299 0.65062 0.0
H329 H 0.58375 0.63203 0.64209 0.0
C330 C 0.67498 0.63256 0.6894 0.0
C331 C 0.63205 0.6246 0.63409 0.0
C332 C 0.61967 0.61505 0.59264 0.0
C333 C 0.65358 0.64233 0.71171 0.0
C334 C 0.61947 0.64115 0.69412 0.0
C335 C 0.61 0.63328 0.65585 0.0
C336 C 0.59006 0.644 0.71266 0.0
C337 C 0.66762 0.65348 0.75363 0.0
C338 C 0.558 0.60475 0.72044 0.0
C339 C 0.52083 0.59773 0.72772 0.0
C340 C 0.51421 0.62864 0.72603 0.0
C341 C 0.54859 0.67074 0.72136 0.0
C342 C 0.58665 0.67887 0.71527 0.0
H343 H 0.70734 0.67538 0.76967 0.0
H344 H 0.66501 0.67965 0.77434 0.0
H345 H 0.64085 0.61236 0.74888 0.0
H346 H 0.55877 0.57632 0.71762 0.0
H347 H 0.49421 0.5645 0.73073 0.0
H348 H 0.8615 0.66311 0.96182 0.0
H349 H 0.8662 0.67196 0.90525 0.0
H350 H 0.96817 0.6607 0.90888 0.0
H351 H 0.96526 0.65446 0.96701 0.0
H352 H 0.00894 0.7523 0.91581 0.0
H353 H 0.80909 0.57093 0.78282 0.0
H354 H 0.81162 0.60736 0.829 0.0
H355 H 0.82839 0.57322 0.82704 0.0
C356 C 0.8846 0.66215 0.95027 0.0
C357 C 0.91416 0.65974 0.96933 0.0
C358 C 0.88653 0.66612 0.91743 0.0
C359 C 0.91716 0.66645 0.90246 0.0
C360 C 0.94412 0.6603 0.91979 0.0
H361 H 0.99758 0.78161 0.74401 0.0
H362 H 0.97518 0.72445 0.76901 0.0
C363 C 0.94238 0.65664 0.95287 0.0
C364 C 0.92665 0.68145 0.87331 0.0
H365 H 0.86572 0.65629 0.78576 0.0
C366 C 0.97771 0.73022 0.8867 0.0
C367 C 0.88598 0.65265 0.83524 0.0
C368 C 0.83079 0.59778 0.81753 0.0
C369 C 0.98873 0.75333 0.86476 0.0
C370 C 0.94771 0.7271 0.8287 0.0
C371 C 0.89701 0.67636 0.81366 0.0
C372 C 0.95655 0.75644 0.81015 0.0
C373 C 0.0438 0.80778 0.88165 0.0
C374 C 0.95288 0.7925 0.82483 0.0
C375 C 0.96623 0.82542 0.81119 0.0
C376 C 0.9832 0.82256 0.78244 0.0
C377 C 0.9852 0.78494 0.7666 0.0
C378 C 0.97209 0.75211 0.78053 0.0
H379 H 0.07167 0.82088 0.90848 0.0
H380 H 0.05351 0.80267 0.85661 0.0
H381 H 0.04831 0.84227 0.89205 0.0
H382 H 0.94127 0.79654 0.84793 0.0
H383 H 0.9649 0.85456 0.82418 0.0
H384 H 0.53574 0.3938 0.19901 0.0
H385 H 0.4851 0.33733 0.12358 0.0
H386 H 0.56812 0.30208 0.10735 0.0
H387 H 0.61863 0.35793 0.18346 0.0
H388 H 0.50626 0.33835 0.06029 0.0
H389 H 0.4191 0.14418 0.04465 0.0
H390 H 0.45843 0.2106 0.09496 0.0
H391 H 0.48786 0.20132 0.06743 0.0
C392 C 0.54384 0.37471 0.17958 0.0
C393 C 0.58059 0.37953 0.1972 0.0
C394 C 0.51497 0.34262 0.13638 0.0
C395 C 0.52222 0.3147 0.10981 0.0
C396 C 0.56129 0.32246 0.1273 0.0
H397 H 0.27814 0.1047 0.85175 0.0
H398 H 0.36494 0.16286 0.90408 0.0
C399 C 0.59026 0.35459 0.17076 0.0
C400 C 0.48498 0.27359 0.06422 0.0
H401 H 0.37697 0.13122 0.98814 0.0
C402 C 0.4787 0.29301 0.04391 0.0
C403 C 0.44922 0.21449 0.04306 0.0
C404 C 0.45351 0.19103 0.06349 0.0
C405 C 0.43504 0.25499 0.00461 0.0
C406 C 0.39728 0.19602 0.98493 0.0
C407 C 0.40609 0.1765 0.00343 0.0
C408 C 0.34446 0.15552 0.95053 0.0
C409 C 0.42739 0.27836 0.98628 0.0
C410 C 0.30397 0.13046 0.95874 0.0
C411 C 0.25476 0.09729 0.92913 0.0
C412 C 0.24482 0.08834 0.89051 0.0
C413 C 0.28474 0.11111 0.88135 0.0
C414 C 0.33434 0.14454 0.91123 0.0
H415 H 0.45815 0.32547 0.00763 0.0
H416 H 0.42758 0.26525 0.95654 0.0
H417 H 0.38951 0.26104 0.9792 0.0
H418 H 0.31091 0.13836 0.98886 0.0
H419 H 0.22486 0.08003 0.9371 0.0
H420 H 0.05313 0.11236 0.86673 0.0
H421 H 0.09854 0.2087 0.91953 0.0
H422 H 0.24387 0.27029 0.95689 0.0
H423 H 0.19936 0.17476 0.90495 0.0
H424 H 0.18009 0.28916 0.01448 0.0
H425 H 0.24936 0.3645 0.92006 0.0
H426 H 0.19253 0.29045 0.89661 0.0
H427 H 0.25539 0.32363 0.92378 0.0
C428 C 0.09466 0.14621 0.8866 0.0
C429 C 0.12256 0.13578 0.8814 0.0
C430 C 0.1205 0.20118 0.91655 0.0
C431 C 0.17448 0.24644 0.94141 0.0
C432 C 0.20221 0.23587 0.9375 0.0
H433 H 0.41501 0.61081 0.12947 0.0
H434 H 0.36314 0.51346 0.07069 0.0
C435 C 0.17655 0.1811 0.90791 0.0
C436 C 0.20237 0.30508 0.97147 0.0
H437 H 0.28172 0.4336 0.98927 0.0
C438 C 0.20197 0.32074 0.00895 0.0
C439 C 0.23124 0.34598 0.96409 0.0
C440 C 0.23218 0.33058 0.92389 0.0
C441 C 0.23075 0.37687 0.03989 0.0
C442 C 0.25945 0.41794 0.03249 0.0
C443 C 0.25955 0.40205 0.99478 0.0
C444 C 0.29008 0.47769 0.06396 0.0
C445 C 0.23148 0.39199 0.08078 0.0
C446 C 0.26596 0.49017 0.07816 0.0
C447 C 0.29544 0.54522 0.11172 0.0
C448 C 0.3494 0.58891 0.13108 0.0
C449 C 0.37339 0.57759 0.11487 0.0
C450 C 0.34384 0.52213 0.0815 0.0
H451 H 0.21981 0.36038 0.08584 0.0
H452 H 0.27042 0.43455 0.10764 0.0
H453 H 0.20382 0.3927 0.08038 0.0
H454 H 0.22445 0.45688 0.06427 0.0
H455 H 0.27621 0.55334 0.12353 0.0
H456 H 0.75319 0.94473 0.99243 0.0
H457 H 0.75873 0.91088 0.93059 0.0
H458 H 0.59281 0.77505 0.85359 0.0
H459 H 0.58741 0.81069 0.91595 0.0
H460 H 0.71902 0.8086 0.87369 0.0
H461 H 0.63843 0.85058 0.79576 0.0
H462 H 0.65617 0.87634 0.84937 0.0
H463 H 0.59909 0.80218 0.80753 0.0
C464 C 0.71789 0.90766 0.96232 0.0
C465 C 0.66994 0.88045 0.95883 0.0
C466 C 0.72101 0.88808 0.92702 0.0
C467 C 0.67625 0.8407 0.88734 0.0
C468 C 0.62791 0.81214 0.88378 0.0
H469 H 0.76753 0.78108 0.69964 0.0
H470 H 0.70653 0.75294 0.72505 0.0
C471 C 0.62481 0.8321 0.91937 0.0
C472 C 0.68206 0.82403 0.85042 0.0
H473 H 0.68307 0.8374 0.77145 0.0
C474 C 0.70966 0.813 0.85041 0.0
C475 C 0.66976 0.82975 0.82002 0.0
C476 C 0.63941 0.84057 0.81798 0.0
C477 C 0.72942 0.81288 0.82355 0.0
C478 C 0.7209 0.82348 0.79573 0.0
C479 C 0.68952 0.82948 0.79303 0.0
C480 C 0.75206 0.83883 0.77546 0.0
C481 C 0.76399 0.80761 0.82823 0.0
C482 C 0.79691 0.89643 0.79476 0.0
C483 C 0.83175 0.91261 0.78059 0.0
C484 C 0.82229 0.8714 0.7469 0.0
C485 C 0.7757 0.81363 0.72578 0.0
C486 C 0.74089 0.79746 0.74019 0.0
H487 H 0.76192 0.79295 0.84758 0.0
H488 H 0.75347 0.77753 0.79716 0.0
H489 H 0.80451 0.84961 0.84329 0.0
H490 H 0.80612 0.92894 0.82202 0.0
H491 H 0.86693 0.9574 0.79684 0.0
H492 H 0.66356 0.56806 0.32332 0.0
H493 H 0.65316 0.62397 0.3263 0.0
H494 H 0.77002 0.75407 0.4573 0.0
H495 H 0.78494 0.70036 0.45307 0.0
H496 H 0.615 0.63879 0.36886 0.0
H497 H 0.8001 0.8517 0.42373 0.0
H498 H 0.7899 0.79343 0.40514 0.0
H499 H 0.80496 0.8339 0.45761 0.0
C500 C 0.68948 0.61001 0.35217 0.0
C501 C 0.72561 0.62998 0.38785 0.0
C502 C 0.68277 0.6417 0.35405 0.0
C503 C 0.7106 0.69328 0.39202 0.0
C504 C 0.74866 0.71495 0.4274 0.0
H505 H 0.55031 0.77165 0.42289 0.0
H506 H 0.6019 0.75914 0.43605 0.0
C507 C 0.7567 0.68389 0.42511 0.0
C508 C 0.69355 0.71861 0.3952 0.0
H509 H 0.73261 0.83959 0.42425 0.0
C510 C 0.64087 0.68267 0.38073 0.0
C511 C 0.7271 0.77582 0.41064 0.0
C512 C 0.78357 0.81583 0.42479 0.0
C513 C 0.62052 0.70162 0.38043 0.0
C514 C 0.6542 0.75929 0.39729 0.0
C515 C 0.70703 0.79564 0.41197 0.0
C516 C 0.6341 0.78116 0.3983 0.0
C517 C 0.56271 0.65882 0.36064 0.0
C518 C 0.63871 0.80266 0.37581 0.0
C519 C 0.6108 0.81229 0.36974 0.0
C520 C 0.57717 0.79943 0.38533 0.0
C521 C 0.576 0.78234 0.41062 0.0
C522 C 0.60495 0.77432 0.41768 0.0
H523 H 0.54198 0.61469 0.33863 0.0
H524 H 0.55257 0.66136 0.38544 0.0
H525 H 0.5485 0.66715 0.34328 0.0
H526 H 0.66151 0.80889 0.36099 0.0
H527 H 0.61334 0.82686 0.35098 0.0
H528 H 0.51448 0.36385 0.37838 0.0
H529 H 0.42171 0.28335 0.34895 0.0
H530 H 0.40072 0.20766 0.22588 0.0
H531 H 0.49317 0.28862 0.25476 0.0
H532 H 0.32363 0.19538 0.22465 0.0
H533 H 0.35431 0.1306 0.31426 0.0
H534 H 0.38694 0.20183 0.34673 0.0
H535 H 0.40539 0.18374 0.31064 0.0
C536 C 0.49014 0.3303 0.34501 0.0
C537 C 0.51139 0.33237 0.31903 0.0
C538 C 0.43713 0.28421 0.32827 0.0
C539 C 0.40452 0.23895 0.28537 0.0
C540 C 0.42525 0.24198 0.2591 0.0
H541 H 0.09135 0.89637 0.13475 0.0
H542 H 0.17517 0.98699 0.15645 0.0
C543 C 0.47817 0.28828 0.27573 0.0
C544 C 0.34924 0.18734 0.26816 0.0
H545 H 0.26893 0.08063 0.27677 0.0
C546 C 0.31159 0.1702 0.23596 0.0
C547 C 0.33369 0.1542 0.28266 0.0
C548 C 0.37215 0.1681 0.31516 0.0
C549 C 0.25871 0.12133 0.2185 0.0
C550 C 0.24341 0.08905 0.23364 0.0
C551 C 0.28098 0.10599 0.2656 0.0
C552 C 0.18869 0.03692 0.2168 0.0
C553 C 0.21947 0.1048 0.18447 0.0
C554 C 0.16809 0.03545 0.24307 0.0
C555 C 0.12042 0.98399 0.23085 0.0
C556 C 0.09267 0.93284 0.19223 0.0
C557 C 0.11169 0.93497 0.16464 0.0
C558 C 0.15954 0.98671 0.17696 0.0
H559 H 0.2372 0.13907 0.18098 0.0
H560 H 0.20108 0.06634 0.15428 0.0
H561 H 0.18864 0.09424 0.1911 0.0
H562 H 0.19012 0.0738 0.27396 0.0
H563 H 0.10675 0.984 0.25275 0.0
H564 H 0.91225 0.15894 0.14772 0.0
H565 H 0.99664 0.25392 0.17797 0.0
H566 H 0.92623 0.29953 0.15654 0.0
H567 H 0.84105 0.20432 0.12711 0.0
H568 H 0.03632 0.31084 0.14603 0.0
H569 H 0.03395 0.42502 0.27997 0.0
H570 H 0.98664 0.34881 0.2468 0.0
H571 H 0.98142 0.3824 0.22954 0.0
C572 C 0.91446 0.18895 0.14921 0.0
C573 C 0.86992 0.17418 0.13526 0.0
C574 C 0.96286 0.24333 0.16658 0.0
C575 C 0.96787 0.28415 0.17025 0.0
C576 C 0.92335 0.26908 0.15496 0.0
H577 H 0.25342 0.59731 0.2274 0.0
H578 H 0.1646 0.50542 0.19481 0.0
C579 C 0.8747 0.21456 0.13781 0.0
C580 C 0.02002 0.3422 0.19013 0.0
H581 H 0.10618 0.48159 0.27282 0.0
C582 C 0.05156 0.3482 0.1737 0.0
C583 C 0.04008 0.39073 0.22665 0.0
C584 C 0.00902 0.38661 0.24709 0.0
C585 C 0.10268 0.40128 0.19282 0.0
C586 C 0.12235 0.45004 0.22871 0.0
C587 C 0.09086 0.44416 0.24517 0.0
C588 C 0.1756 0.50742 0.24955 0.0
C589 C 0.13549 0.40423 0.17503 0.0
C590 C 0.21079 0.54031 0.29182 0.0
C591 C 0.26172 0.5935 0.31084 0.0
C592 C 0.27814 0.61424 0.2877 0.0
C593 C 0.2423 0.58186 0.24578 0.0
C594 C 0.19149 0.52925 0.22704 0.0
H595 H 0.12 0.36246 0.15597 0.0
H596 H 0.1358 0.41668 0.15437 0.0
H597 H 0.17589 0.43611 0.20023 0.0
H598 H 0.19911 0.52435 0.30984 0.0
H599 H 0.28844 0.61772 0.34325 0.0
H600 H 0.83709 0.77168 0.16843 0.0
H601 H 0.75841 0.74368 0.14731 0.0
H602 H 0.66722 0.56707 0.07223 0.0
H603 H 0.74711 0.59558 0.09343 0.0
H604 H 0.63434 0.5879 0.02969 0.0
H605 H 0.6536 0.68256 0.1831 0.0
H606 H 0.71351 0.73518 0.18709 0.0
H607 H 0.6905 0.67107 0.17475 0.0
C608 C 0.80025 0.72688 0.14808 0.0
C609 C 0.7979 0.68571 0.1329 0.0
C610 C 0.75525 0.71084 0.13618 0.0
C611 C 0.70677 0.65323 0.10918 0.0
C612 C 0.70419 0.61174 0.09363 0.0
H613 H 0.51911 0.69772 0.09066 0.0
H614 H 0.52944 0.6414 0.09045 0.0
C615 C 0.74961 0.62794 0.10557 0.0
C616 C 0.65996 0.63807 0.09501 0.0
H617 H 0.6154 0.68619 0.13355 0.0
C618 C 0.62894 0.60779 0.05223 0.0
C619 C 0.65103 0.66161 0.12398 0.0
C620 C 0.67862 0.68876 0.16971 0.0
C621 C 0.59424 0.60718 0.03845 0.0
C622 C 0.59209 0.63934 0.06837 0.0
C623 C 0.61782 0.66278 0.11042 0.0
C624 C 0.57305 0.65911 0.05874 0.0
C625 C 0.56225 0.57441 0.99215 0.0
C626 C 0.59217 0.68588 0.03957 0.0
C627 C 0.58565 0.71706 0.03924 0.0
C628 C 0.5612 0.72355 0.0591 0.0
C629 C 0.53847 0.69348 0.07546 0.0
C630 C 0.54446 0.66148 0.07536 0.0
H631 H 0.54854 0.53359 0.97455 0.0
H632 H 0.52833 0.56532 0.98417 0.0
H633 H 0.58651 0.59913 0.9816 0.0
H634 H 0.61565 0.68648 0.02761 0.0
H635 H 0.60286 0.73939 0.02594 0.0
H636 H 0.02115 0.01896 0.68613 0.0
H637 H 0.05908 0.09826 0.68422 0.0
H638 H 0.20632 0.16424 0.7297 0.0
H639 H 0.16899 0.08528 0.73199 0.0
H640 H 0.20363 0.23543 0.78366 0.0
H641 H 0.11992 0.16345 0.62123 0.0
H642 H 0.07373 0.12146 0.6338 0.0
H643 H 0.12011 0.12307 0.63312 0.0
C644 C 0.06106 0.04884 0.69399 0.0
C645 C 0.09232 0.0465 0.71034 0.0
C646 C 0.08271 0.09431 0.69288 0.0
C647 C 0.13565 0.13749 0.70744 0.0
C648 C 0.16543 0.13147 0.71869 0.0
H649 H 0.35027 0.4781 0.78167 0.0
H650 H 0.31049 0.39523 0.77889 0.0
C651 C 0.14383 0.08599 0.71971 0.0
C652 C 0.16126 0.19273 0.71779 0.0
H653 H 0.1653 0.25612 0.6761 0.0
C654 C 0.19565 0.24016 0.76014 0.0
C655 C 0.15004 0.19838 0.68711 0.0
C656 C 0.11426 0.14905 0.64121 0.0
C657 C 0.21879 0.29314 0.7727 0.0
C658 C 0.20779 0.29891 0.742 0.0
C659 C 0.17335 0.25143 0.69964 0.0
C660 C 0.2333 0.35423 0.75254 0.0
C661 C 0.25391 0.34209 0.81872 0.0
C662 C 0.20347 0.35986 0.74038 0.0
C663 C 0.2261 0.40729 0.74192 0.0
C664 C 0.2789 0.44954 0.7551 0.0
C665 C 0.30952 0.44641 0.77124 0.0
C666 C 0.28681 0.39891 0.76966 0.0
H667 H 0.24661 0.3271 0.83836 0.0
H668 H 0.29459 0.36891 0.82692 0.0
H669 H 0.24906 0.36894 0.82655 0.0
H670 H 0.16213 0.32594 0.72734 0.0
H671 H 0.20134 0.40839 0.72952 0.0
H672 H 0.60033 0.97943 0.17011 0.0
H673 H 0.59817 0.03778 0.22082 0.0
H674 H 0.62229 0.11573 0.15987 0.0
H675 H 0.62573 0.05864 0.10972 0.0
H676 H 0.69549 0.16509 0.26894 0.0
H677 H 0.51257 0.08898 0.19419 0.0
H678 H 0.51729 0.04229 0.17767 0.0
H679 H 0.54122 0.08824 0.1625 0.0
C680 C 0.60284 0.00713 0.16635 0.0
C681 C 0.6134 0.01471 0.13606 0.0
C682 C 0.60198 0.0407 0.19555 0.0
C683 C 0.61019 0.081 0.19404 0.0
C684 C 0.61547 0.08447 0.16128 0.0
H685 H 0.74468 0.3992 0.32609 0.0
H686 H 0.72732 0.31754 0.29612 0.0
C687 C 0.61732 0.05177 0.13261 0.0
C688 C 0.62223 0.12598 0.22996 0.0
H689 H 0.58442 0.18584 0.25501 0.0
C690 C 0.6707 0.16904 0.26646 0.0
C691 C 0.58981 0.13084 0.2265 0.0
C692 C 0.53707 0.08497 0.18825 0.0
C693 C 0.68909 0.21891 0.29838 0.0
C694 C 0.65805 0.22539 0.29362 0.0
C695 C 0.60809 0.18057 0.25853 0.0
C696 C 0.67903 0.28087 0.32102 0.0
C697 C 0.74249 0.26555 0.33601 0.0
C698 C 0.6596 0.28848 0.34658 0.0
C699 C 0.67051 0.3359 0.36458 0.0
C700 C 0.69972 0.37524 0.35615 0.0
C701 C 0.72241 0.36972 0.3333 0.0
C702 C 0.71239 0.32304 0.31609 0.0
H703 H 0.7569 0.24959 0.33967 0.0
H704 H 0.76937 0.29902 0.33232 0.0
H705 H 0.74293 0.28534 0.36494 0.0
H706 H 0.63347 0.25605 0.35041 0.0
H707 H 0.65188 0.33868 0.38152 0.0
H708 H 0.08895 0.81308 0.28153 0.0
H709 H 0.16108 0.83018 0.30566 0.0
H710 H 0.12774 0.74446 0.179 0.0
H711 H 0.05507 0.7263 0.15433 0.0
H712 H 0.15458 0.71932 0.2246 0.0
H713 H 0.29571 0.95217 0.31238 0.0
H714 H 0.24733 0.91978 0.32638 0.0
H715 H 0.22879 0.90144 0.27472 0.0
C716 C 0.09625 0.79684 0.25862 0.0
C717 C 0.06661 0.769 0.21603 0.0
C718 C 0.13786 0.80724 0.27258 0.0
C719 C 0.15064 0.7902 0.24425 0.0
C720 C 0.11888 0.75869 0.20141 0.0
H721 H 0.38786 0.81737 0.26221 0.0
H722 H 0.32857 0.81882 0.24182 0.0
C723 C 0.07719 0.74813 0.18737 0.0
C724 C 0.19788 0.80648 0.25926 0.0
H725 H 0.32933 0.92081 0.32055 0.0
C726 C 0.19279 0.76331 0.24538 0.0
C727 C 0.24766 0.86404 0.28625 0.0
C728 C 0.25546 0.91211 0.30057 0.0
C729 C 0.23613 0.7761 0.25848 0.0
C730 C 0.28586 0.8336 0.28562 0.0
C731 C 0.2911 0.87686 0.29951 0.0
C732 C 0.33223 0.84868 0.30133 0.0
C733 C 0.22838 0.728 0.24396 0.0
C734 C 0.35698 0.86956 0.34259 0.0
C735 C 0.39112 0.86908 0.35451 0.0
C736 C 0.40054 0.84725 0.32511 0.0
C737 C 0.3809 0.83362 0.28548 0.0
C738 C 0.34678 0.83414 0.27364 0.0
H739 H 0.18744 0.68692 0.22943 0.0
H740 H 0.24027 0.72329 0.22038 0.0
H741 H 0.25255 0.73711 0.27052 0.0
H742 H 0.34653 0.88154 0.36449 0.0
H743 H 0.40612 0.8807 0.38549 0.0
loop_
_geom_bond_atom_site_label_1
_geom_bond_atom_site_label_2
_geom_bond_distance
_geom_bond_site_symmetry_2
_ccdc_geom_bond_type
Co0 O3 1.970 . S
Co0 N17 1.989 . S
Co0 O25 1.967 . S
Co0 O32 1.920 . S
Co1 O4 1.966 . S
Co1 N10 2.022 . S
Co1 N18 1.993 . S
Co1 O26 1.941 . S
C2 O3 1.258 . S
C2 O4 1.263 . S
O3 Co0 1.970 . S
O3 C2 1.258 . S
O4 Co1 1.966 . S
O4 C2 1.263 . S
C5 O6 1.235 . S
C5 O32 1.289 . S
O6 C5 1.235 . S
C7 C9 1.400 . S
C7 N10 1.351 . S
C7 C12 1.501 . S
C8 C9 1.387 . S
C8 N11 1.341 . S
C9 C7 1.400 . S
C9 C8 1.387 . S
N10 Co1 2.022 . S
N10 C7 1.351 . S
N10 N11 1.365 . S
N11 C8 1.341 . S
N11 N10 1.365 . S
N11 H31 0.862 . S
C12 C7 1.501 . S
C12 H13 0.961 . S
C12 H14 0.961 . S
C12 H15 0.960 . S
H13 C12 0.961 . S
H14 C12 0.961 . S
H15 C12 0.960 . S
C16 N17 1.342 . S
C16 C20 1.401 . S
C16 C21 1.499 . S
N17 Co0 1.989 . S
N17 C16 1.342 . S
N17 N18 1.388 . S
N18 Co1 1.993 . S
N18 N17 1.388 . S
N18 C19 1.346 . S
C19 N18 1.346 . S
C19 C20 1.396 . S
C19 C29 1.510 . S
C20 C16 1.401 . S
C20 C19 1.396 . S
C21 C16 1.499 . S
C21 H22 0.959 . S
C21 H23 0.960 . S
C21 H24 0.961 . S
H22 C21 0.959 . S
H23 C21 0.960 . S
H24 C21 0.961 . S
O25 Co0 1.967 . S
O25 C33 1.258 . S
O26 Co1 1.941 . S
O26 C33 1.266 . S
H27 C29 0.959 . S
H28 C29 0.961 . S
C29 C19 1.510 . S
C29 H27 0.959 . S
C29 H28 0.961 . S
C29 H30 0.960 . S
H30 C29 0.960 . S
H31 N11 0.862 . S
O32 Co0 1.920 . S
O32 C5 1.289 . S
C33 O25 1.258 . S
C33 O26 1.266 . S
Co34 O37 1.970 . S
Co34 N51 1.989 1_545 S
Co34 O59 1.967 . S
Co34 O66 1.920 . S
Co35 O38 1.966 1_565 S
Co35 N44 2.022 1_455 S
Co35 N52 1.993 . S
Co35 O60 1.941 . S
C36 O37 1.258 . S
C36 O38 1.263 . S
O37 Co34 1.970 . S
O37 C36 1.258 . S
O38 Co35 1.966 1_545 S
O38 C36 1.263 . S
C39 O40 1.235 . S
C39 O66 1.289 . S
O40 C39 1.235 . S
C41 C43 1.400 . S
C41 N44 1.351 . S
C41 C46 1.501 1_565 S
C42 C43 1.387 . S
C42 N45 1.341 . S
C43 C41 1.400 . S
C43 C42 1.387 . S
N44 Co35 2.022 1_655 S
N44 C41 1.351 . S
N44 N45 1.365 . S
N45 C42 1.341 . S
N45 N44 1.365 . S
N45 H65 0.862 . S
C46 C41 1.501 1_545 S
C46 H47 0.961 1_655 S
C46 H48 0.961 . S
C46 H49 0.960 . S
H47 C46 0.961 1_455 S
H48 C46 0.961 . S
H49 C46 0.960 . S
C50 N51 1.342 . S
C50 C54 1.401 . S
C50 C55 1.499 . S
N51 Co34 1.989 1_565 S
N51 C50 1.342 . S
N51 N52 1.388 . S
N52 Co35 1.993 . S
N52 N51 1.388 . S
N52 C53 1.346 . S
C53 N52 1.346 . S
C53 C54 1.396 . S
C53 C63 1.510 1_455 S
C54 C50 1.401 . S
C54 C53 1.396 . S
C55 C50 1.499 . S
C55 H56 0.959 . S
C55 H57 0.960 . S
C55 H58 0.961 . S
H56 C55 0.959 . S
H57 C55 0.960 . S
H58 C55 0.961 . S
O59 Co34 1.967 . S
O59 C67 1.258 . S
O60 Co35 1.941 . S
O60 C67 1.266 1_565 S
H61 C63 0.959 . S
H62 C63 0.961 . S
C63 C53 1.510 1_655 S
C63 H61 0.959 . S
C63 H62 0.961 . S
C63 H64 0.960 . S
H64 C63 0.960 . S
H65 N45 0.862 . S
O66 Co34 1.920 . S
O66 C39 1.289 . S
C67 O59 1.258 . S
C67 O60 1.266 1_545 S
Co68 O71 1.970 . S
Co68 N85 1.989 . S
Co68 O93 1.967 . S
Co68 O100 1.920 . S
Co69 O72 1.966 . S
Co69 N78 2.022 . S
Co69 N86 1.993 . S
Co69 O94 1.941 . S
C70 O71 1.258 . S
C70 O72 1.263 . S
O71 Co68 1.970 . S
O71 C70 1.258 . S
O72 Co69 1.966 . S
O72 C70 1.263 . S
C73 O74 1.235 . S
C73 O100 1.289 . S
O74 C73 1.235 . S
C75 C77 1.400 . S
C75 N78 1.351 . S
C75 C80 1.501 . S
C76 C77 1.387 . S
C76 N79 1.341 . S
C77 C75 1.400 . S
C77 C76 1.387 . S
N78 Co69 2.022 . S
N78 C75 1.351 . S
N78 N79 1.365 . S
N79 C76 1.341 . S
N79 N78 1.365 . S
N79 H99 0.862 . S
C80 C75 1.501 . S
C80 H81 0.961 . S
C80 H82 0.961 . S
C80 H83 0.960 . S
H81 C80 0.961 . S
H82 C80 0.961 . S
H83 C80 0.960 . S
C84 N85 1.342 . S
C84 C88 1.401 . S
C84 C89 1.499 . S
N85 Co68 1.989 . S
N85 C84 1.342 . S
N85 N86 1.388 . S
N86 Co69 1.993 . S
N86 N85 1.388 . S
N86 C87 1.346 . S
C87 N86 1.346 . S
C87 C88 1.396 . S
C87 C97 1.510 . S
C88 C84 1.401 . S
C88 C87 1.396 . S
C89 C84 1.499 . S
C89 H90 0.959 . S
C89 H91 0.960 . S
C89 H92 0.961 . S
H90 C89 0.959 . S
H91 C89 0.960 . S
H92 C89 0.961 . S
O93 Co68 1.967 . S
O93 C101 1.258 . S
O94 Co69 1.941 . S
O94 C101 1.266 . S
H95 C97 0.959 . S
H96 C97 0.961 . S
C97 C87 1.510 . S
C97 H95 0.959 . S
C97 H96 0.961 . S
C97 H98 0.960 . S
H98 C97 0.960 . S
H99 N79 0.862 . S
O100 Co68 1.920 . S
O100 C73 1.289 . S
C101 O93 1.258 . S
C101 O94 1.266 . S
Co102 O105 1.970 . S
Co102 N119 1.989 . S
Co102 O127 1.967 . S
Co102 O134 1.920 . S
Co103 O106 1.966 . S
Co103 N112 2.022 . S
Co103 N120 1.993 . S
Co103 O128 1.941 . S
C104 O105 1.258 . S
C104 O106 1.263 . S
O105 Co102 1.970 . S
O105 C104 1.258 . S
O106 Co103 1.966 . S
O106 C104 1.263 . S
C107 O108 1.235 . S
C107 O134 1.289 . S
O108 C107 1.235 . S
C109 C111 1.400 . S
C109 N112 1.351 . S
C109 C114 1.501 . S
C110 C111 1.387 . S
C110 N113 1.341 . S
C111 C109 1.400 . S
C111 C110 1.387 . S
N112 Co103 2.022 . S
N112 C109 1.351 . S
N112 N113 1.365 . S
N113 C110 1.341 . S
N113 N112 1.365 . S
N113 H133 0.862 . S
C114 C109 1.501 . S
C114 H115 0.961 . S
C114 H116 0.961 . S
C114 H117 0.960 . S
H115 C114 0.961 . S
H116 C114 0.961 . S
H117 C114 0.960 . S
C118 N119 1.342 . S
C118 C122 1.401 . S
C118 C123 1.499 . S
N119 Co102 1.989 . S
N119 C118 1.342 . S
N119 N120 1.388 . S
N120 Co103 1.993 . S
N120 N119 1.388 . S
N120 C121 1.346 . S
C121 N120 1.346 . S
C121 C122 1.396 . S
C121 C131 1.510 . S
C122 C118 1.401 . S
C122 C121 1.396 . S
C123 C118 1.499 . S
C123 H124 0.959 . S
C123 H125 0.960 . S
C123 H126 0.961 . S
H124 C123 0.959 . S
H125 C123 0.960 . S
H126 C123 0.961 . S
O127 Co102 1.967 . S
O127 C135 1.258 . S
O128 Co103 1.941 . S
O128 C135 1.266 . S
H129 C131 0.959 . S
H130 C131 0.961 . S
C131 C121 1.510 . S
C131 H129 0.959 . S
C131 H130 0.961 . S
C131 H132 0.960 . S
H132 C131 0.960 . S
H133 N113 0.862 . S
O134 Co102 1.920 . S
O134 C107 1.289 . S
C135 O127 1.258 . S
C135 O128 1.266 . S
Co136 O139 1.970 . S
Co136 N153 1.989 . S
Co136 O161 1.967 . S
Co136 O168 1.920 . S
Co137 O140 1.966 1_565 S
Co137 N146 2.022 . S
Co137 N154 1.993 . S
Co137 O162 1.941 . S
C138 O139 1.258 . S
C138 O140 1.263 . S
O139 Co136 1.970 . S
O139 C138 1.258 . S
O140 Co137 1.966 1_545 S
O140 C138 1.263 . S
C141 O142 1.235 . S
C141 O168 1.289 . S
O142 C141 1.235 . S
C143 C145 1.400 . S
C143 N146 1.351 . S
C143 C148 1.501 . S
C144 C145 1.387 . S
C144 N147 1.341 . S
C145 C143 1.400 . S
C145 C144 1.387 . S
N146 Co137 2.022 . S
N146 C143 1.351 . S
N146 N147 1.365 . S
N147 C144 1.341 . S
N147 N146 1.365 . S
N147 H167 0.862 . S
C148 C143 1.501 . S
C148 H149 0.961 . S
C148 H150 0.961 . S
C148 H151 0.960 . S
H149 C148 0.961 . S
H150 C148 0.961 . S
H151 C148 0.960 . S
C152 N153 1.342 . S
C152 C156 1.401 1_545 S
C152 C157 1.499 . S
N153 Co136 1.989 . S
N153 C152 1.342 . S
N153 N154 1.388 1_545 S
N154 Co137 1.993 . S
N154 N153 1.388 1_565 S
N154 C155 1.346 . S
C155 N154 1.346 . S
C155 C156 1.396 . S
C155 C165 1.510 . S
C156 C152 1.401 1_565 S
C156 C155 1.396 . S
C157 C152 1.499 . S
C157 H158 0.959 . S
C157 H159 0.960 . S
C157 H160 0.961 . S
H158 C157 0.959 . S
H159 C157 0.960 . S
H160 C157 0.961 . S
O161 Co136 1.967 . S
O161 C169 1.258 . S
O162 Co137 1.941 . S
O162 C169 1.266 1_565 S
H163 C165 0.959 1_556 S
H164 C165 0.961 . S
C165 C155 1.510 . S
C165 H163 0.959 1_554 S
C165 H164 0.961 . S
C165 H166 0.960 . S
H166 C165 0.960 . S
H167 N147 0.862 . S
O168 Co136 1.920 . S
O168 C141 1.289 . S
C169 O161 1.258 . S
C169 O162 1.266 1_545 S
Co170 O173 1.970 . S
Co170 N187 1.989 1_455 S
Co170 O195 1.967 . S
Co170 O202 1.920 . S
Co171 O174 1.966 1_655 S
Co171 N180 2.022 . S
Co171 N188 1.993 . S
Co171 O196 1.941 . S
C172 O173 1.258 . S
C172 O174 1.263 . S
O173 Co170 1.970 . S
O173 C172 1.258 . S
O174 Co171 1.966 1_455 S
O174 C172 1.263 . S
C175 O176 1.235 . S
C175 O202 1.289 . S
O176 C175 1.235 . S
C177 C179 1.400 . S
C177 N180 1.351 . S
C177 C182 1.501 1_655 S
C178 C179 1.387 . S
C178 N181 1.341 . S
C179 C177 1.400 . S
C179 C178 1.387 . S
N180 Co171 2.022 . S
N180 C177 1.351 . S
N180 N181 1.365 . S
N181 C178 1.341 . S
N181 N180 1.365 . S
N181 H201 0.862 . S
C182 C177 1.501 1_455 S
C182 H183 0.961 . S
C182 H184 0.961 . S
C182 H185 0.960 . S
H183 C182 0.961 . S
H184 C182 0.961 . S
H185 C182 0.960 . S
C186 N187 1.342 . S
C186 C190 1.401 . S
C186 C191 1.499 . S
N187 Co170 1.989 1_655 S
N187 C186 1.342 . S
N187 N188 1.388 . S
N188 Co171 1.993 . S
N188 N187 1.388 . S
N188 C189 1.346 . S
C189 N188 1.346 . S
C189 C190 1.396 . S
C189 C199 1.510 . S
C190 C186 1.401 . S
C190 C189 1.396 . S
C191 C186 1.499 . S
C191 H192 0.959 . S
C191 H193 0.960 . S
C191 H194 0.961 . S
H192 C191 0.959 . S
H193 C191 0.960 . S
H194 C191 0.961 . S
O195 Co170 1.967 . S
O195 C203 1.258 . S
O196 Co171 1.941 . S
O196 C203 1.266 1_655 S
H197 C199 0.959 . S
H198 C199 0.961 . S
C199 C189 1.510 . S
C199 H197 0.959 . S
C199 H198 0.961 . S
C199 H200 0.960 . S
H200 C199 0.960 . S
H201 N181 0.862 . S
O202 Co170 1.920 . S
O202 C175 1.289 . S
C203 O195 1.258 . S
C203 O196 1.266 1_455 S
H204 C212 0.929 . S
H205 C214 0.930 . S
H206 C216 0.930 . S
H207 C219 0.929 . S
H208 C222 0.930 . S
H209 C224 0.960 . S
H210 C224 0.960 . S
H211 C224 0.960 . S
C212 H204 0.929 . S
C212 C213 1.377 . S
C212 C214 1.384 . S
C213 C212 1.377 . S
C213 C219 1.390 . S
C214 H205 0.930 . S
C214 C212 1.384 . S
C214 C215 1.372 . S
C215 C214 1.372 . S
C215 C216 1.400 . S
C215 C220 1.490 . S
C216 H206 0.930 . S
C216 C215 1.400 . S
C216 C219 1.386 . S
H217 C233 0.930 . S
H218 C234 0.931 . S
C219 H207 0.929 . S
C219 C213 1.390 . S
C219 C216 1.386 . S
C220 C215 1.490 . S
C220 C222 1.395 . S
C220 C223 1.403 . S
H221 C227 0.930 . S
C222 H208 0.930 . S
C222 C220 1.395 . S
C222 C225 1.403 . S
C223 C220 1.403 . S
C223 C224 1.524 . S
C223 C227 1.400 . S
C224 H209 0.960 . S
C224 H210 0.960 . S
C224 H211 0.960 . S
C224 C223 1.524 . S
C225 C222 1.403 . S
C225 C226 1.392 . S
C225 C229 1.495 . S
C226 C225 1.392 . S
C226 C227 1.385 . S
C226 C228 1.478 . S
C227 H221 0.930 . S
C227 C223 1.400 . S
C227 C226 1.385 . S
C228 C226 1.478 . S
C228 C230 1.381 . S
C228 C234 1.383 . S
C229 C225 1.495 . S
C229 H235 0.959 . S
C229 H236 0.961 . S
C229 H237 0.960 . S
C230 C228 1.381 . S
C230 C231 1.394 . S
C230 H238 0.930 . S
C231 C230 1.394 . S
C231 C232 1.383 . S
C231 H239 0.929 . S
C232 C231 1.383 . S
C232 C233 1.377 . S
C233 H217 0.930 . S
C233 C232 1.377 . S
C233 C234 1.379 . S
C234 H218 0.931 . S
C234 C228 1.383 . S
C234 C233 1.379 . S
H235 C229 0.959 . S
H236 C229 0.961 . S
H237 C229 0.960 . S
H238 C230 0.930 . S
H239 C231 0.929 . S
H240 C248 0.929 . S
H241 C250 0.930 . S
H242 C252 0.930 . S
H243 C255 0.929 . S
H244 C258 0.930 . S
H245 C260 0.960 . S
H246 C260 0.960 . S
H247 C260 0.960 . S
C248 H240 0.929 . S
C248 C249 1.377 . S
C248 C250 1.384 . S
C249 C248 1.377 . S
C249 C255 1.390 . S
C250 H241 0.930 . S
C250 C248 1.384 . S
C250 C251 1.372 . S
C251 C250 1.372 . S
C251 C252 1.400 . S
C251 C256 1.490 . S
C252 H242 0.930 . S
C252 C251 1.400 . S
C252 C255 1.386 . S
H253 C269 0.930 . S
H254 C270 0.931 . S
C255 H243 0.929 . S
C255 C249 1.390 . S
C255 C252 1.386 . S
C256 C251 1.490 . S
C256 C258 1.395 . S
C256 C259 1.403 . S
H257 C263 0.930 . S
C258 H244 0.930 . S
C258 C256 1.395 . S
C258 C261 1.403 . S
C259 C256 1.403 . S
C259 C260 1.524 . S
C259 C263 1.400 . S
C260 H245 0.960 . S
C260 H246 0.960 . S
C260 H247 0.960 . S
C260 C259 1.524 . S
C261 C258 1.403 . S
C261 C262 1.392 . S
C261 C265 1.495 . S
C262 C261 1.392 . S
C262 C263 1.385 . S
C262 C264 1.478 . S
C263 H257 0.930 . S
C263 C259 1.400 . S
C263 C262 1.385 . S
C264 C262 1.478 . S
C264 C266 1.381 . S
C264 C270 1.383 1_655 S
C265 C261 1.495 . S
C265 H271 0.959 . S
C265 H272 0.961 . S
C265 H273 0.960 . S
C266 C264 1.381 . S
C266 C267 1.394 1_655 S
C266 H274 0.930 . S
C267 C266 1.394 1_455 S
C267 C268 1.383 . S
C267 H275 0.929 1_455 S
C268 C267 1.383 . S
C268 C269 1.377 . S
C269 H253 0.930 . S
C269 C268 1.377 . S
C269 C270 1.379 . S
C270 H254 0.931 . S
C270 C264 1.383 1_455 S
C270 C269 1.379 . S
H271 C265 0.959 . S
H272 C265 0.961 . S
H273 C265 0.960 . S
H274 C266 0.930 . S
H275 C267 0.929 1_655 S
H276 C284 0.929 . S
H277 C286 0.930 . S
H278 C288 0.930 . S
H279 C291 0.929 . S
H280 C294 0.930 . S
H281 C296 0.960 . S
H282 C296 0.960 . S
H283 C296 0.960 . S
C284 H276 0.929 . S
C284 C285 1.377 . S
C284 C286 1.384 . S
C285 C284 1.377 . S
C285 C291 1.390 . S
C286 H277 0.930 . S
C286 C284 1.384 . S
C286 C287 1.372 . S
C287 C286 1.372 . S
C287 C288 1.400 . S
C287 C292 1.490 . S
C288 H278 0.930 . S
C288 C287 1.400 . S
C288 C291 1.386 . S
H289 C305 0.930 1_655 S
H290 C306 0.931 . S
C291 H279 0.929 . S
C291 C285 1.390 . S
C291 C288 1.386 . S
C292 C287 1.490 . S
C292 C294 1.395 . S
C292 C295 1.403 . S
H293 C299 0.930 . S
C294 H280 0.930 . S
C294 C292 1.395 . S
C294 C297 1.403 . S
C295 C292 1.403 . S
C295 C296 1.524 . S
C295 C299 1.400 . S
C296 H281 0.960 . S
C296 H282 0.960 . S
C296 H283 0.960 . S
C296 C295 1.524 . S
C297 C294 1.403 . S
C297 C298 1.392 . S
C297 C301 1.495 . S
C298 C297 1.392 . S
C298 C299 1.385 . S
C298 C300 1.478 . S
C299 H293 0.930 . S
C299 C295 1.400 . S
C299 C298 1.385 . S
C300 C298 1.478 . S
C300 C302 1.381 1_545 S
C300 C306 1.383 1_545 S
C301 C297 1.495 . S
C301 H307 0.959 . S
C301 H308 0.961 . S
C301 H309 0.960 . S
C302 C300 1.381 1_565 S
C302 C303 1.394 . S
C302 H310 0.930 1_565 S
C303 C302 1.394 . S
C303 C304 1.383 . S
C303 H311 0.929 . S
C304 C303 1.383 . S
C304 C305 1.377 . S
C305 H289 0.930 1_455 S
C305 C304 1.377 . S
C305 C306 1.379 . S
C306 H290 0.931 . S
C306 C300 1.383 1_565 S
C306 C305 1.379 . S
H307 C301 0.959 . S
H308 C301 0.961 . S
H309 C301 0.960 . S
H310 C302 0.930 1_545 S
H311 C303 0.929 . S
H312 C320 0.929 . S
H313 C322 0.930 . S
H314 C324 0.930 . S
H315 C327 0.929 . S
H316 C330 0.930 . S
H317 C332 0.960 . S
H318 C332 0.960 . S
H319 C332 0.960 . S
C320 H312 0.929 . S
C320 C321 1.377 . S
C320 C322 1.384 . S
C321 C320 1.377 . S
C321 C327 1.390 . S
C322 H313 0.930 . S
C322 C320 1.384 . S
C322 C323 1.372 . S
C323 C322 1.372 . S
C323 C324 1.400 . S
C323 C328 1.490 . S
C324 H314 0.930 . S
C324 C323 1.400 . S
C324 C327 1.386 . S
H325 C341 0.930 . S
H326 C342 0.931 . S
C327 H315 0.929 . S
C327 C321 1.390 . S
C327 C324 1.386 . S
C328 C323 1.490 . S
C328 C330 1.395 . S
C328 C331 1.403 . S
H329 C335 0.930 . S
C330 H316 0.930 . S
C330 C328 1.395 . S
C330 C333 1.403 . S
C331 C328 1.403 . S
C331 C332 1.524 . S
C331 C335 1.400 . S
C332 H317 0.960 . S
C332 H318 0.960 . S
C332 H319 0.960 . S
C332 C331 1.524 . S
C333 C330 1.403 . S
C333 C334 1.392 . S
C333 C337 1.495 . S
C334 C333 1.392 . S
C334 C335 1.385 . S
C334 C336 1.478 . S
C335 H329 0.930 . S
C335 C331 1.400 . S
C335 C334 1.385 . S
C336 C334 1.478 . S
C336 C338 1.381 . S
C336 C342 1.383 . S
C337 C333 1.495 . S
C337 H343 0.959 . S
C337 H344 0.961 . S
C337 H345 0.960 . S
C338 C336 1.381 . S
C338 C339 1.394 . S
C338 H346 0.930 . S
C339 C338 1.394 . S
C339 C340 1.383 . S
C339 H347 0.929 . S
C340 C339 1.383 . S
C340 C341 1.377 . S
C341 H325 0.930 . S
C341 C340 1.377 . S
C341 C342 1.379 . S
C342 H326 0.931 . S
C342 C336 1.383 . S
C342 C341 1.379 . S
H343 C337 0.959 . S
H344 C337 0.961 . S
H345 C337 0.960 . S
H346 C338 0.930 . S
H347 C339 0.929 . S
H348 C356 0.929 . S
H349 C358 0.929 . S
H350 C360 0.930 . S
H351 C363 0.929 . S
H352 C366 0.930 . S
H353 C368 0.960 . S
H354 C368 0.960 . S
H355 C368 0.960 . S
C356 H348 0.929 . S
C356 C357 1.377 . S
C356 C358 1.384 1_554 S
C357 C356 1.377 . S
C357 C363 1.390 1_554 S
C358 H349 0.929 . S
C358 C356 1.384 1_556 S
C358 C359 1.372 . S
C359 C358 1.372 . S
C359 C360 1.400 . S
C359 C364 1.490 . S
C360 H350 0.930 . S
C360 C359 1.400 . S
C360 C363 1.386 . S
H361 C377 0.930 . S
H362 C378 0.931 . S
C363 H351 0.929 . S
C363 C357 1.390 1_556 S
C363 C360 1.386 . S
C364 C359 1.490 . S
C364 C366 1.395 1_655 S
C364 C367 1.403 . S
H365 C371 0.930 . S
C366 H352 0.930 . S
C366 C364 1.395 1_455 S
C366 C369 1.403 . S
C367 C364 1.403 . S
C367 C368 1.524 . S
C367 C371 1.400 . S
C368 H353 0.960 . S
C368 H354 0.960 . S
C368 H355 0.960 . S
C368 C367 1.524 . S
C369 C366 1.403 . S
C369 C370 1.392 . S
C369 C373 1.495 . S
C370 C369 1.392 . S
C370 C371 1.385 1_455 S
C370 C372 1.478 . S
C371 H365 0.930 . S
C371 C367 1.400 . S
C371 C370 1.385 1_655 S
C372 C370 1.478 . S
C372 C374 1.381 . S
C372 C378 1.383 . S
C373 C369 1.495 . S
C373 H379 0.959 . S
C373 H380 0.961 . S
C373 H381 0.960 . S
C374 C372 1.381 . S
C374 C375 1.394 . S
C374 H382 0.930 . S
C375 C374 1.394 . S
C375 C376 1.383 . S
C375 H383 0.929 . S
C376 C375 1.383 . S
C376 C377 1.377 . S
C377 H361 0.930 . S
C377 C376 1.377 . S
C377 C378 1.379 . S
C378 H362 0.931 . S
C378 C372 1.383 . S
C378 C377 1.379 . S
H379 C373 0.959 . S
H380 C373 0.961 . S
H381 C373 0.960 . S
H382 C374 0.930 . S
H383 C375 0.929 . S
H384 C392 0.929 . S
H385 C394 0.930 . S
H386 C396 0.930 . S
H387 C399 0.929 . S
H388 C402 0.930 . S
H389 C404 0.960 . S
H390 C404 0.960 . S
H391 C404 0.960 . S
C392 H384 0.929 . S
C392 C393 1.377 . S
C392 C394 1.384 . S
C393 C392 1.377 . S
C393 C399 1.390 . S
C394 H385 0.930 . S
C394 C392 1.384 . S
C394 C395 1.372 . S
C395 C394 1.372 . S
C395 C396 1.400 . S
C395 C400 1.490 . S
C396 H386 0.930 . S
C396 C395 1.400 . S
C396 C399 1.386 . S
H397 C413 0.930 . S
H398 C414 0.931 . S
C399 H387 0.929 . S
C399 C393 1.390 . S
C399 C396 1.386 . S
C400 C395 1.490 . S
C400 C402 1.395 . S
C400 C403 1.403 . S
H401 C407 0.930 . S
C402 H388 0.930 . S
C402 C400 1.395 . S
C402 C405 1.403 . S
C403 C400 1.403 . S
C403 C404 1.524 . S
C403 C407 1.400 . S
C404 H389 0.960 . S
C404 H390 0.960 . S
C404 H391 0.960 . S
C404 C403 1.524 . S
C405 C402 1.403 . S
C405 C406 1.389 . S
C405 C409 1.495 . S
C406 C405 1.389 . S
C406 C407 1.410 . S
C406 C408 1.458 1_554 S
C407 H401 0.930 . S
C407 C403 1.400 . S
C407 C406 1.410 . S
C408 C406 1.458 1_556 S
C408 C410 1.381 . S
C408 C414 1.383 . S
C409 C405 1.495 . S
C409 H415 0.959 . S
C409 H416 0.961 1_554 S
C409 H417 0.960 1_554 S
C410 C408 1.381 . S
C410 C411 1.394 . S
C410 H418 0.930 . S
C411 C410 1.394 . S
C411 C412 1.383 . S
C411 H419 0.929 . S
C412 C411 1.383 . S
C412 C413 1.377 . S
C413 H397 0.930 . S
C413 C412 1.377 . S
C413 C414 1.379 . S
C414 H398 0.931 . S
C414 C408 1.383 . S
C414 C413 1.379 . S
H415 C409 0.959 . S
H416 C409 0.961 1_556 S
H417 C409 0.960 1_556 S
H418 C410 0.930 . S
H419 C411 0.929 . S
H420 C428 0.929 . S
H421 C430 0.930 . S
H422 C432 0.930 . S
H423 C435 0.929 . S
H424 C438 0.930 . S
H425 C440 0.960 . S
H426 C440 0.960 . S
H427 C440 0.960 . S
C428 H420 0.929 . S
C428 C429 1.377 . S
C428 C430 1.384 . S
C429 C428 1.377 . S
C429 C435 1.390 . S
C430 H421 0.930 . S
C430 C428 1.384 . S
C430 C431 1.372 . S
C431 C430 1.372 . S
C431 C432 1.400 . S
C431 C436 1.490 . S
C432 H422 0.930 . S
C432 C431 1.400 . S
C432 C435 1.386 . S
H433 C449 0.930 . S
H434 C450 0.931 . S
C435 H423 0.929 . S
C435 C429 1.390 . S
C435 C432 1.386 . S
C436 C431 1.490 . S
C436 C438 1.395 . S
C436 C439 1.403 . S
H437 C443 0.930 . S
C438 H424 0.930 . S
C438 C436 1.395 . S
C438 C441 1.403 1_556 S
C439 C436 1.403 . S
C439 C440 1.524 . S
C439 C443 1.400 . S
C440 H425 0.960 . S
C440 H426 0.960 . S
C440 H427 0.960 . S
C440 C439 1.524 . S
C441 C438 1.403 1_554 S
C441 C442 1.392 . S
C441 C445 1.495 . S
C442 C441 1.392 . S
C442 C443 1.385 1_554 S
C442 C444 1.478 . S
C443 H437 0.930 . S
C443 C439 1.400 . S
C443 C442 1.385 1_556 S
C444 C442 1.478 . S
C444 C446 1.381 . S
C444 C450 1.383 . S
C445 C441 1.495 . S
C445 H451 0.959 . S
C445 H452 0.961 . S
C445 H453 0.960 . S
C446 C444 1.381 . S
C446 C447 1.394 . S
C446 H454 0.930 . S
C447 C446 1.394 . S
C447 C448 1.383 . S
C447 H455 0.929 . S
C448 C447 1.383 . S
C448 C449 1.377 . S
C449 H433 0.930 . S
C449 C448 1.377 . S
C449 C450 1.379 . S
C450 H434 0.931 . S
C450 C444 1.383 . S
C450 C449 1.379 . S
H451 C445 0.959 . S
H452 C445 0.961 . S
H453 C445 0.960 . S
H454 C446 0.930 . S
H455 C447 0.929 . S
H456 C464 0.929 1_545 S
H457 C466 0.930 1_545 S
H458 C468 0.930 . S
H459 C471 0.929 . S
H460 C474 0.930 1_545 S
H461 C476 0.960 . S
H462 C476 0.960 . S
H463 C476 0.960 . S
C464 H456 0.929 1_565 S
C464 C465 1.377 . S
C464 C466 1.384 . S
C465 C464 1.377 . S
C465 C471 1.390 . S
C466 H457 0.930 1_565 S
C466 C464 1.384 . S
C466 C467 1.372 . S
C467 C466 1.372 . S
C467 C468 1.400 . S
C467 C472 1.490 . S
C468 H458 0.930 . S
C468 C467 1.400 . S
C468 C471 1.386 . S
H469 C485 0.930 . S
H470 C486 0.931 . S
C471 H459 0.929 . S
C471 C465 1.390 . S
C471 C468 1.386 . S
C472 C467 1.490 . S
C472 C474 1.395 . S
C472 C475 1.403 . S
H473 C479 0.930 . S
C474 H460 0.930 1_565 S
C474 C472 1.395 . S
C474 C477 1.403 . S
C475 C472 1.403 . S
C475 C476 1.524 . S
C475 C479 1.400 . S
C476 H461 0.960 . S
C476 H462 0.960 . S
C476 H463 0.960 . S
C476 C475 1.524 . S
C477 C474 1.403 . S
C477 C478 1.392 . S
C477 C481 1.495 1_565 S
C478 C477 1.392 . S
C478 C479 1.385 . S
C478 C480 1.478 . S
C479 H473 0.930 . S
C479 C475 1.400 . S
C479 C478 1.385 . S
C480 C478 1.478 . S
C480 C482 1.381 . S
C480 C486 1.383 . S
C481 C477 1.495 1_545 S
C481 H487 0.959 . S
C481 H488 0.961 . S
C481 H489 0.960 . S
C482 C480 1.381 . S
C482 C483 1.394 . S
C482 H490 0.905 1_565 S
C483 C482 1.394 . S
C483 C484 1.383 . S
C483 H491 0.929 . S
C484 C483 1.383 . S
C484 C485 1.377 . S
C485 H469 0.930 . S
C485 C484 1.377 . S
C485 C486 1.379 . S
C486 H470 0.931 . S
C486 C480 1.383 . S
C486 C485 1.379 . S
H487 C481 0.959 . S
H488 C481 0.961 . S
H489 C481 0.960 . S
H490 C482 0.905 1_545 S
H491 C483 0.929 . S
H492 C500 0.929 . S
H493 C502 0.930 . S
H494 C504 0.930 . S
H495 C507 0.929 . S
H496 C510 0.930 . S
H497 C512 0.960 . S
H498 C512 0.960 . S
H499 C512 0.960 . S
C500 H492 0.929 . S
C500 C501 1.377 . S
C500 C502 1.384 . S
C501 C500 1.377 . S
C501 C507 1.390 . S
C502 H493 0.930 . S
C502 C500 1.384 . S
C502 C503 1.372 . S
C503 C502 1.372 . S
C503 C504 1.400 . S
C503 C508 1.490 . S
C504 H494 0.930 . S
C504 C503 1.400 . S
C504 C507 1.386 . S
H505 C521 0.930 . S
H506 C522 0.931 . S
C507 H495 0.929 . S
C507 C501 1.390 . S
C507 C504 1.386 . S
C508 C503 1.490 . S
C508 C510 1.395 . S
C508 C511 1.403 . S
H509 C515 0.930 . S
C510 H496 0.930 . S
C510 C508 1.395 . S
C510 C513 1.403 . S
C511 C508 1.403 . S
C511 C512 1.524 . S
C511 C515 1.400 . S
C512 H497 0.960 . S
C512 H498 0.960 . S
C512 H499 0.960 . S
C512 C511 1.524 . S
C513 C510 1.403 . S
C513 C514 1.392 . S
C513 C517 1.495 . S
C514 C513 1.392 . S
C514 C515 1.385 . S
C514 C516 1.478 . S
C515 H509 0.930 . S
C515 C511 1.400 . S
C515 C514 1.385 . S
C516 C514 1.478 . S
C516 C518 1.381 . S
C516 C522 1.383 . S
C517 C513 1.495 . S
C517 H523 0.959 . S
C517 H524 0.961 . S
C517 H525 0.960 . S
C518 C516 1.381 . S
C518 C519 1.394 . S
C518 H526 0.930 . S
C519 C518 1.394 . S
C519 C520 1.383 . S
C519 H527 0.929 . S
C520 C519 1.383 . S
C520 C521 1.377 . S
C521 H505 0.930 . S
C521 C520 1.377 . S
C521 C522 1.379 . S
C522 H506 0.931 . S
C522 C516 1.383 . S
C522 C521 1.379 . S
H523 C517 0.959 . S
H524 C517 0.961 . S
H525 C517 0.960 . S
H526 C518 0.930 . S
H527 C519 0.929 . S
H528 C536 0.929 . S
H529 C538 0.930 . S
H530 C540 0.930 . S
H531 C543 0.929 . S
H532 C546 0.930 . S
H533 C548 0.960 . S
H534 C548 0.960 . S
H535 C548 0.960 . S
C536 H528 0.929 . S
C536 C537 1.377 . S
C536 C538 1.384 . S
C537 C536 1.377 . S
C537 C543 1.390 . S
C538 H529 0.930 . S
C538 C536 1.384 . S
C538 C539 1.372 . S
C539 C538 1.372 . S
C539 C540 1.400 . S
C539 C544 1.490 . S
C540 H530 0.930 . S
C540 C539 1.400 . S
C540 C543 1.386 . S
H541 C557 0.930 . S
H542 C558 0.931 . S
C543 H531 0.929 . S
C543 C537 1.390 . S
C543 C540 1.386 . S
C544 C539 1.490 . S
C544 C546 1.395 . S
C544 C547 1.403 . S
H545 C551 0.930 . S
C546 H532 0.930 . S
C546 C544 1.395 . S
C546 C549 1.403 . S
C547 C544 1.403 . S
C547 C548 1.524 . S
C547 C551 1.400 . S
C548 H533 0.960 . S
C548 H534 0.960 . S
C548 H535 0.960 . S
C548 C547 1.524 . S
C549 C546 1.403 . S
C549 C550 1.392 . S
C549 C553 1.495 . S
C550 C549 1.392 . S
C550 C551 1.385 . S
C550 C552 1.478 . S
C551 H545 0.930 . S
C551 C547 1.400 . S
C551 C550 1.385 . S
C552 C550 1.478 . S
C552 C554 1.381 . S
C552 C558 1.383 1_545 S
C553 C549 1.495 . S
C553 H559 0.959 . S
C553 H560 0.961 . S
C553 H561 0.960 . S
C554 C552 1.381 . S
C554 C555 1.394 1_545 S
C554 H562 0.930 . S
C555 C554 1.394 1_565 S
C555 C556 1.383 . S
C555 H563 0.929 . S
C556 C555 1.383 . S
C556 C557 1.377 . S
C557 H541 0.930 . S
C557 C556 1.377 . S
C557 C558 1.379 . S
C558 H542 0.931 . S
C558 C552 1.383 1_565 S
C558 C557 1.379 . S
H559 C553 0.959 . S
H560 C553 0.961 . S
H561 C553 0.960 . S
H562 C554 0.930 . S
H563 C555 0.929 . S
H564 C572 0.929 . S
H565 C574 0.930 . S
H566 C576 0.930 . S
H567 C579 0.929 . S
H568 C582 0.930 1_655 S
H569 C584 0.961 1_455 S
H570 C584 0.959 . S
H571 C584 0.979 . S
C572 H564 0.929 . S
C572 C573 1.377 . S
C572 C574 1.384 . S
C573 C572 1.377 . S
C573 C579 1.390 . S
C574 H565 0.930 . S
C574 C572 1.384 . S
C574 C575 1.372 . S
C575 C574 1.372 . S
C575 C576 1.400 . S
C575 C580 1.490 . S
C576 H566 0.930 . S
C576 C575 1.400 . S
C576 C579 1.386 . S
H577 C593 0.930 . S
H578 C594 0.931 . S
C579 H567 0.929 . S
C579 C573 1.390 . S
C579 C576 1.386 . S
C580 C575 1.490 . S
C580 C582 1.395 1_655 S
C580 C583 1.403 1_655 S
H581 C587 0.930 . S
C582 H568 0.930 1_455 S
C582 C580 1.395 1_455 S
C582 C585 1.403 . S
C583 C580 1.403 1_455 S
C583 C584 1.506 1_455 S
C583 C587 1.400 . S
C584 H569 0.961 1_655 S
C584 H570 0.959 . S
C584 H571 0.979 . S
C584 C583 1.506 1_655 S
C585 C582 1.403 . S
C585 C586 1.392 . S
C585 C589 1.495 . S
C586 C585 1.392 . S
C586 C587 1.385 . S
C586 C588 1.478 . S
C587 H581 0.930 . S
C587 C583 1.400 . S
C587 C586 1.385 . S
C588 C586 1.478 . S
C588 C590 1.381 . S
C588 C594 1.383 . S
C589 C585 1.495 . S
C589 H595 0.959 . S
C589 H596 0.961 . S
C589 H597 0.960 . S
C590 C588 1.381 . S
C590 C591 1.394 . S
C590 H598 0.930 . S
C591 C590 1.394 . S
C591 C592 1.383 . S
C591 H599 0.929 . S
C592 C591 1.383 . S
C592 C593 1.377 . S
C593 H577 0.930 . S
C593 C592 1.377 . S
C593 C594 1.379 . S
C594 H578 0.931 . S
C594 C588 1.383 . S
C594 C593 1.379 . S
H595 C589 0.959 . S
H596 C589 0.961 . S
H597 C589 0.960 . S
H598 C590 0.930 . S
H599 C591 0.929 . S
H600 C608 0.929 . S
H601 C610 0.930 . S
H602 C612 0.930 . S
H603 C615 0.929 . S
H604 C618 0.930 . S
H605 C620 0.960 . S
H606 C620 0.960 . S
H607 C620 0.960 . S
C608 H600 0.929 . S
C608 C609 1.377 . S
C608 C610 1.384 . S
C609 C608 1.377 . S
C609 C615 1.390 . S
C610 H601 0.930 . S
C610 C608 1.384 . S
C610 C611 1.372 . S
C611 C610 1.372 . S
C611 C612 1.400 . S
C611 C616 1.490 . S
C612 H602 0.930 . S
C612 C611 1.400 . S
C612 C615 1.386 . S
H613 C629 0.930 . S
H614 C630 0.931 . S
C615 H603 0.929 . S
C615 C609 1.390 . S
C615 C612 1.386 . S
C616 C611 1.490 . S
C616 C618 1.395 . S
C616 C619 1.403 . S
H617 C623 0.930 . S
C618 H604 0.930 . S
C618 C616 1.395 . S
C618 C621 1.403 . S
C619 C616 1.403 . S
C619 C620 1.524 . S
C619 C623 1.400 . S
C620 H605 0.960 . S
C620 H606 0.960 . S
C620 H607 0.960 . S
C620 C619 1.524 . S
C621 C618 1.403 . S
C621 C622 1.392 . S
C621 C625 1.495 . S
C622 C621 1.392 . S
C622 C623 1.385 . S
C622 C624 1.478 . S
C623 H617 0.930 . S
C623 C619 1.400 . S
C623 C622 1.385 . S
C624 C622 1.478 . S
C624 C626 1.381 . S
C624 C630 1.383 . S
C625 C621 1.495 . S
C625 H631 0.959 . S
C625 H632 0.961 . S
C625 H633 0.960 . S
C626 C624 1.381 . S
C626 C627 1.394 . S
C626 H634 0.930 . S
C627 C626 1.394 . S
C627 C628 1.383 . S
C627 H635 0.929 . S
C628 C627 1.383 . S
C628 C629 1.377 . S
C629 H613 0.930 . S
C629 C628 1.377 . S
C629 C630 1.379 . S
C630 H614 0.931 . S
C630 C624 1.383 . S
C630 C629 1.379 . S
H631 C625 0.959 . S
H632 C625 0.961 . S
H633 C625 0.960 . S
H634 C626 0.930 . S
H635 C627 0.929 . S
H636 C644 0.929 . S
H637 C646 0.930 . S
H638 C648 0.930 . S
H639 C651 0.929 . S
H640 C654 0.930 . S
H641 C656 0.960 . S
H642 C656 0.960 . S
H643 C656 0.960 . S
C644 H636 0.929 . S
C644 C645 1.377 . S
C644 C646 1.384 . S
C645 C644 1.377 . S
C645 C651 1.390 . S
C646 H637 0.930 . S
C646 C644 1.384 . S
C646 C647 1.372 . S
C647 C646 1.372 . S
C647 C648 1.400 . S
C647 C652 1.490 . S
C648 H638 0.930 . S
C648 C647 1.400 . S
C648 C651 1.386 . S
H649 C665 0.930 . S
H650 C666 0.931 . S
C651 H639 0.929 . S
C651 C645 1.390 . S
C651 C648 1.386 . S
C652 C647 1.490 . S
C652 C654 1.395 . S
C652 C655 1.403 . S
H653 C659 0.930 . S
C654 H640 0.930 . S
C654 C652 1.395 . S
C654 C657 1.403 . S
C655 C652 1.403 . S
C655 C656 1.524 . S
C655 C659 1.400 . S
C656 H641 0.960 . S
C656 H642 0.960 . S
C656 H643 0.960 . S
C656 C655 1.524 . S
C657 C654 1.403 . S
C657 C658 1.392 . S
C657 C661 1.495 . S
C658 C657 1.392 . S
C658 C659 1.385 . S
C658 C660 1.478 . S
C659 H653 0.930 . S
C659 C655 1.400 . S
C659 C658 1.385 . S
C660 C658 1.478 . S
C660 C662 1.381 . S
C660 C666 1.383 . S
C661 C657 1.495 . S
C661 H667 0.959 . S
C661 H668 0.961 . S
C661 H669 0.960 . S
C662 C660 1.381 . S
C662 C663 1.394 . S
C662 H670 0.930 . S
C663 C662 1.394 . S
C663 C664 1.383 . S
C663 H671 0.929 . S
C664 C663 1.383 . S
C664 C665 1.377 . S
C665 H649 0.930 . S
C665 C664 1.377 . S
C665 C666 1.379 . S
C666 H650 0.931 . S
C666 C660 1.383 . S
C666 C665 1.379 . S
H667 C661 0.959 . S
H668 C661 0.961 . S
H669 C661 0.960 . S
H670 C662 0.930 . S
H671 C663 0.929 . S
H672 C680 0.929 . S
H673 C682 0.930 . S
H674 C684 0.930 . S
H675 C687 0.929 . S
H676 C690 0.930 . S
H677 C692 0.960 . S
H678 C692 0.960 . S
H679 C692 0.960 . S
C680 H672 0.929 . S
C680 C681 1.377 . S
C680 C682 1.384 . S
C681 C680 1.377 . S
C681 C687 1.390 . S
C682 H673 0.930 . S
C682 C680 1.384 . S
C682 C683 1.372 . S
C683 C682 1.372 . S
C683 C684 1.400 . S
C683 C688 1.490 . S
C684 H674 0.930 . S
C684 C683 1.400 . S
C684 C687 1.386 . S
H685 C701 0.930 . S
H686 C702 0.931 . S
C687 H675 0.929 . S
C687 C681 1.390 . S
C687 C684 1.386 . S
C688 C683 1.490 . S
C688 C690 1.395 . S
C688 C691 1.403 . S
H689 C695 0.930 . S
C690 H676 0.930 . S
C690 C688 1.395 . S
C690 C693 1.403 . S
C691 C688 1.403 . S
C691 C692 1.524 . S
C691 C695 1.400 . S
C692 H677 0.960 . S
C692 H678 0.960 . S
C692 H679 0.960 . S
C692 C691 1.524 . S
C693 C690 1.403 . S
C693 C694 1.392 . S
C693 C697 1.495 . S
C694 C693 1.392 . S
C694 C695 1.385 . S
C694 C696 1.478 . S
C695 H689 0.930 . S
C695 C691 1.400 . S
C695 C694 1.385 . S
C696 C694 1.478 . S
C696 C698 1.381 . S
C696 C702 1.383 . S
C697 C693 1.495 . S
C697 H703 0.959 . S
C697 H704 0.961 . S
C697 H705 0.960 . S
C698 C696 1.381 . S
C698 C699 1.394 . S
C698 H706 0.930 . S
C699 C698 1.394 . S
C699 C700 1.383 . S
C699 H707 0.929 . S
C700 C699 1.383 . S
C700 C701 1.377 . S
C701 H685 0.930 . S
C701 C700 1.377 . S
C701 C702 1.379 . S
C702 H686 0.931 . S
C702 C696 1.383 . S
C702 C701 1.379 . S
H703 C697 0.959 . S
H704 C697 0.961 . S
H705 C697 0.960 . S
H706 C698 0.930 . S
H707 C699 0.929 . S
H708 C716 0.929 1_655 S
H709 C718 0.930 . S
H710 C720 0.930 . S
H711 C723 0.929 . S
H712 C726 0.930 . S
H713 C728 0.960 . S
H714 C728 0.960 . S
H715 C728 0.960 . S
C716 H708 0.929 1_455 S
C716 C717 1.377 . S
C716 C718 1.384 . S
C717 C716 1.377 . S
C717 C723 1.390 . S
C718 H709 0.930 . S
C718 C716 1.384 . S
C718 C719 1.372 . S
C719 C718 1.372 . S
C719 C720 1.400 . S
C719 C724 1.490 . S
C720 H710 0.930 . S
C720 C719 1.400 . S
C720 C723 1.386 . S
H721 C737 0.930 . S
H722 C738 0.931 . S
C723 H711 0.929 . S
C723 C717 1.390 . S
C723 C720 1.386 . S
C724 C719 1.490 . S
C724 C726 1.395 . S
C724 C727 1.403 . S
H725 C731 0.930 . S
C726 H712 0.930 . S
C726 C724 1.395 . S
C726 C729 1.403 . S
C727 C724 1.403 . S
C727 C728 1.524 . S
C727 C731 1.400 . S
C728 H713 0.960 . S
C728 H714 0.960 . S
C728 H715 0.960 . S
C728 C727 1.524 . S
C729 C726 1.403 . S
C729 C730 1.392 . S
C729 C733 1.495 . S
C730 C729 1.392 . S
C730 C731 1.385 . S
C730 C732 1.478 . S
C731 H725 0.930 . S
C731 C727 1.400 . S
C731 C730 1.385 . S
C732 C730 1.478 . S
C732 C734 1.381 . S
C732 C738 1.383 . S
C733 C729 1.495 . S
C733 H739 0.959 . S
C733 H740 0.961 . S
C733 H741 0.960 . S
C734 C732 1.381 . S
C734 C735 1.394 . S
C734 H742 0.930 . S
C735 C734 1.394 . S
C735 C736 1.383 . S
C735 H743 0.929 . S
C736 C735 1.383 . S
C736 C737 1.377 . S
C737 H721 0.930 . S
C737 C736 1.377 . S
C737 C738 1.379 . S
C738 H722 0.931 . S
C738 C732 1.383 . S
C738 C737 1.379 . S
H739 C733 0.959 . S
H740 C733 0.961 . S
H741 C733 0.960 . S
H742 C734 0.930 . S
H743 C735 0.929 . S
C213 C107 1.212 . S
C232 C20 1.215 . S
C249 C138 1.231 . S
C268 C9 1.227 . S
C285 C2 1.152 . S
C304 C175 1.075 . S
C321 C77 1.112 . S
C340 C5 1.068 . S
C357 C179 0.983 . S
C376 C54 0.885 . S
C393 C73 0.934 . S
C412 C39 0.931 . S
C429 C36 0.890 . S
C448 C111 0.868 . S
C465 C156 1.138 1_556 S
C484 C43 1.148 . S
C501 C88 1.172 . S
C520 C122 1.132 . S
C537 C70 1.373 . S
C556 C172 1.377 . S
C573 C141 0.885 . S
C592 C104 0.957 . S
C609 C190 1.237 . S
C628 C145 1.207 . S
C645 C67 1.405 . S
C664 C33 1.449 . S
C681 C169 1.343 . S
C700 C101 1.377 . S
C717 C203 1.050 . S
C736 C135 0.985 . S
