# Generated by pormake.
# Topology ung, (4)-cn, num edge types: 1
# Building blocks:
#     Node 0, Type 0, BuildingBlock: NAWXER_clean_sbu_0, # of connection points: 4
#     Node 1, Type 0, BuildingBlock: NAWXER_clean_sbu_0, # of connection points: 4
#     Node 2, Type 0, BuildingBlock: NAWXER_clean_sbu_0, # of connection points: 4
#     Node 3, Type 0, BuildingBlock: NAWXER_clean_sbu_0, # of connection points: 4
#     Node 4, Type 0, BuildingBlock: NAWXER_clean_sbu_0, # of connection points: 4
#     Node 5, Type 0, BuildingBlock: NAWXER_clean_sbu_0, # of connection points: 4
#     Node 6, Type 0, BuildingBlock: NAWXER_clean_sbu_0, # of connection points: 4
#     Node 7, Type 0, BuildingBlock: NAWXER_clean_sbu_0, # of connection points: 4
#     Node 8, Type 0, BuildingBlock: NAWXER_clean_sbu_0, # of connection points: 4
#     Node 9, Type 0, BuildingBlock: NAWXER_clean_sbu_0, # of connection points: 4
#     Node 10, Type 0, BuildingBlock: NAWXER_clean_sbu_0, # of connection points: 4
#     Node 11, Type 0, BuildingBlock: NAWXER_clean_sbu_0, # of connection points: 4
#     Node 12, Type 0, BuildingBlock: NAWXER_clean_sbu_0, # of connection points: 4
#     Node 13, Type 0, BuildingBlock: NAWXER_clean_sbu_0, # of connection points: 4
#     Node 14, Type 0, BuildingBlock: NAWXER_clean_sbu_0, # of connection points: 4
#     Node 15, Type 0, BuildingBlock: NAWXER_clean_sbu_0, # of connection points: 4
#     Node 16, Type 0, BuildingBlock: NAWXER_clean_sbu_0, # of connection points: 4
#     Node 17, Type 0, BuildingBlock: NAWXER_clean_sbu_0, # of connection points: 4
#     Edge 18, Type (0, 0), None
#     Edge 19, Type (0, 0), None
#     Edge 20, Type (0, 0), None
#     Edge 21, Type (0, 0), None
#     Edge 22, Type (0, 0), None
#     Edge 23, Type (0, 0), None
#     Edge 24, Type (0, 0), None
#     Edge 25, Type (0, 0), None
#     Edge 26, Type (0, 0), None
#     Edge 27, Type (0, 0), None
#     Edge 28, Type (0, 0), None
#     Edge 29, Type (0, 0), None
#     Edge 30, Type (0, 0), None
#     Edge 31, Type (0, 0), None
#     Edge 32, Type (0, 0), None
#     Edge 33, Type (0, 0), None
#     Edge 34, Type (0, 0), None
#     Edge 35, Type (0, 0), None
#     Edge 36, Type (0, 0), None
#     Edge 37, Type (0, 0), None
#     Edge 38, Type (0, 0), None
#     Edge 39, Type (0, 0), None
#     Edge 40, Type (0, 0), None
#     Edge 41, Type (0, 0), None
#     Edge 42, Type (0, 0), None
#     Edge 43, Type (0, 0), None
#     Edge 44, Type (0, 0), None
#     Edge 45, Type (0, 0), None
#     Edge 46, Type (0, 0), None
#     Edge 47, Type (0, 0), None
#     Edge 48, Type (0, 0), None
#     Edge 49, Type (0, 0), None
#     Edge 50, Type (0, 0), None
#     Edge 51, Type (0, 0), None
#     Edge 52, Type (0, 0), None
#     Edge 53, Type (0, 0), None
# Relax obj value: 0.020
# Max RMSD: 0.247
# Mean RMSD: 0.247
data_MOF--net-ung--node1-NAWXER_clean_sbu_0--edge1-none
_symmetry_space_group_name_H-M    P1
_symmetry_Int_Tables_number       1
_symmetry_cell_setting            triclinic
loop_
_symmetry_equiv_pos_as_xyz
'x, y, z'
_cell_length_a     33.748963
_cell_length_b     33.748936
_cell_length_c     9.7176909
_cell_angle_alpha  90.00638
_cell_angle_beta   89.993484
_cell_angle_gamma 119.98595
loop_
_atom_site_label
_atom_site_type_symbol
_atom_site_fract_x
_atom_site_fract_y
_atom_site_fract_z
_atom_type_partial_charge
C0 C 0.09411 0.60513 0.4427 0.0
C1 C 0.04192 0.68112 0.12015 0.0
O2 O 0.05497 0.60213 0.44067 0.0
Zn3 Zn 0.06629 0.6435 0.28908 0.0
O4 O 0.12503 0.63137 0.35782 0.0
Zn5 Zn 0.13216 0.6764 0.19479 0.0
O6 O 0.18005 0.73403 0.26884 0.0
O7 O 0.1143 0.70822 0.37859 0.0
O8 O 0.08417 0.69315 0.10523 0.0
O9 O 1.01842 0.65328 0.21501 0.0
O10 O 0.07339 0.60557 0.12604 0.0
O11 O 0.14346 0.64632 0.04321 0.0
C12 C 0.15656 0.73841 0.36367 0.0
C13 C 0.10431 0.61022 0.04116 0.0
C14 C 0.4527 0.5027 0.36367 0.0
C15 C 0.58087 0.57863 0.04111 0.0
O16 O 0.45705 0.53055 0.26883 0.0
Zn17 Zn 0.51469 0.54029 0.19476 0.0
O18 O 0.48291 0.49064 0.37857 0.0
Zn19 Zn 0.54763 0.50735 0.28901 0.0
O20 O 0.589 0.53741 0.44059 0.0
O21 O 0.55972 0.5782 0.35778 0.0
O22 O 0.58554 0.55238 0.12598 0.0
O23 O 0.54475 0.58166 0.04317 0.0
O24 O 0.49798 0.47557 0.10521 0.0
O25 O 0.53789 0.44971 0.21494 0.0
C26 C 0.58598 0.57353 0.44265 0.0
C27 C 0.51003 0.44536 0.12011 0.0
C28 C 0.68846 0.03459 0.36363 0.0
C29 C 0.61247 0.08678 0.04109 0.0
O30 O 0.66063 1.01109 0.26877 0.0
Zn31 Zn 0.65085 0.05897 0.19471 0.0
O32 O 0.70049 0.07684 0.37855 0.0
Zn33 Zn 0.68375 0.12483 0.28899 0.0
O34 O 0.65367 0.13614 0.44058 0.0
O35 O 0.61292 0.06607 0.35775 0.0
O36 O 0.63872 0.11771 0.12597 0.0
O37 O 0.60947 0.04764 0.04313 0.0
O38 O 0.71556 0.10697 0.10518 0.0
O39 O 0.74138 0.17272 0.21494 0.0
C40 C 0.61757 0.09699 0.44263 0.0
C41 C 0.74575 0.14923 0.1201 0.0
C42 C 0.04186 0.44534 0.62013 0.0
C43 C 0.09409 0.57352 0.94269 0.0
O44 O 0.08412 0.47553 0.60521 0.0
Zn45 Zn 0.13212 0.54025 0.69475 0.0
O46 O 1.01837 0.44971 0.71496 0.0
Zn47 Zn 0.06625 0.50734 0.78904 0.0
O48 O 0.07338 0.55238 0.62602 0.0
O49 O 0.14344 0.58163 0.54318 0.0
O50 O 0.05495 0.53741 0.94064 0.0
O51 O 0.12501 0.57817 0.8578 0.0
O52 O 0.18 0.53048 0.7688 0.0
O53 O 0.11425 0.4906 0.87859 0.0
C54 C 0.1043 0.57862 0.54115 0.0
C55 C 0.1565 0.50264 0.86366 0.0
C56 C 0.6884 0.7384 0.86367 0.0
C57 C 0.61246 0.61023 0.54111 0.0
O58 O 0.70046 0.70819 0.87856 0.0
Zn59 Zn 0.68375 0.64346 0.78901 0.0
O60 O 0.66055 0.73404 0.76883 0.0
Zn61 Zn 0.65081 0.6764 0.69476 0.0
O62 O 0.6129 0.63138 0.85778 0.0
O63 O 0.65369 0.60209 0.94059 0.0
O64 O 0.60944 0.64635 0.54317 0.0
O65 O 0.63872 0.60555 0.62598 0.0
O66 O 0.74139 0.6532 0.71494 0.0
O67 O 0.71553 0.69312 0.60521 0.0
C68 C 0.61757 0.60512 0.94265 0.0
C69 C 0.74574 0.68106 0.62011 0.0
C70 C 0.58087 0.08677 0.54111 0.0
C71 C 0.45269 0.03453 0.86365 0.0
O72 O 0.58552 0.11769 0.62599 0.0
Zn73 Zn 0.54759 0.12479 0.78904 0.0
O74 O 0.54477 0.04762 0.54316 0.0
Zn75 Zn 0.51469 0.05892 0.69475 0.0
O76 O 0.49795 0.10691 0.6052 0.0
O77 O 0.53782 0.17267 0.71498 0.0
O78 O 0.45706 1.01103 0.76881 0.0
O79 O 0.48288 0.07679 0.87856 0.0
O80 O 0.58897 0.13611 0.94062 0.0
O81 O 0.55972 0.06605 0.85777 0.0
C82 C 0.50998 0.14917 0.62012 0.0
C83 C 0.58597 0.09698 0.94265 0.0
C84 C 0.76079 0.93847 0.77599 0.0
C85 C 0.7086 1.01445 0.45345 0.0
O86 O 0.72165 0.93546 0.77396 0.0
Zn87 Zn 0.73297 0.97684 0.62238 0.0
O88 O 0.79171 0.96471 0.69111 0.0
Zn89 Zn 0.79884 1.00975 0.52809 0.0
O90 O 0.84673 0.06738 0.60216 0.0
O91 O 0.78098 0.04156 0.71191 0.0
O92 O 0.75085 0.02649 0.43853 0.0
O93 O 0.6851 0.98662 0.54832 0.0
O94 O 0.74008 0.93891 0.45933 0.0
O95 O 0.81015 0.97967 0.3765 0.0
C96 C 0.82324 0.07175 0.69699 0.0
C97 C 0.771 0.94356 0.37445 0.0
C98 C 0.11937 0.83604 0.69699 0.0
C99 C 0.24753 0.91197 0.37441 0.0
O100 O 0.12372 0.86389 0.60215 0.0
Zn101 Zn 0.18136 0.87363 0.52807 0.0
O102 O 0.14958 0.82398 0.71189 0.0
Zn103 Zn 0.2143 0.84069 0.62232 0.0
O104 O 0.25567 0.87075 0.77389 0.0
O105 O 0.22639 0.91154 0.69108 0.0
O106 O 0.2522 0.88571 0.45928 0.0
O107 O 0.21141 0.915 0.37647 0.0
O108 O 0.16464 0.8089 0.43853 0.0
O109 O 0.20455 0.78305 0.54826 0.0
C110 C 0.25264 0.90687 0.77595 0.0
C111 C 0.1767 0.77869 0.45344 0.0
C112 C 0.41242 0.48256 0.45345 0.0
C113 C 0.28424 0.43033 0.77599 0.0
O114 O 0.40805 0.50606 0.54828 0.0
Zn115 Zn 0.35042 0.45817 0.62235 0.0
O116 O 0.38223 0.4403 0.43853 0.0
Zn117 Zn 0.31751 0.3923 0.52806 0.0
O118 O 0.27614 0.38098 0.37648 0.0
O119 O 0.30538 0.45104 0.45933 0.0
O120 O 0.27959 0.39941 0.6911 0.0
O121 O 0.32034 0.46947 0.77394 0.0
O122 O 0.36716 0.41018 0.7119 0.0
O123 O 0.32729 0.34442 0.60211 0.0
C124 C 0.27914 0.42012 0.37445 0.0
C125 C 0.35512 0.36792 0.69698 0.0
C126 C 0.82318 0.83598 0.19698 0.0
C127 C 0.77098 0.91196 0.87444 0.0
O128 O 0.78092 0.82394 0.2119 0.0
Zn129 Zn 0.73293 0.84068 0.12234 0.0
O130 O 0.84668 0.86381 0.10211 0.0
Zn131 Zn 0.7988 0.87358 0.02805 0.0
O132 O 0.7917 0.91151 0.19109 0.0
O133 O 0.72163 0.87076 0.27392 0.0
O134 O 0.81012 0.91496 0.87647 0.0
O135 O 0.74006 0.88571 0.95931 0.0
O136 O 0.68504 0.78305 0.04828 0.0
O137 O 0.7508 0.80887 0.93852 0.0
C138 C 0.76078 0.90686 0.27597 0.0
C139 C 0.70854 0.77868 0.95344 0.0
C140 C 0.35507 0.07173 0.19698 0.0
C141 C 0.27913 0.94357 0.87441 0.0
O142 O 0.36712 0.04152 0.21188 0.0
Zn143 Zn 0.35041 0.9768 0.12232 0.0
O144 O 0.32722 0.06738 0.10214 0.0
Zn145 Zn 0.31747 1.00974 0.02806 0.0
O146 O 0.27956 0.96471 0.19108 0.0
O147 O 0.32035 0.93542 0.27389 0.0
O148 O 0.27611 0.97969 0.87647 0.0
O149 O 0.30539 0.93889 0.95928 0.0
O150 O 0.40805 0.98654 0.04825 0.0
O151 O 0.3822 0.02645 0.93852 0.0
C152 C 0.28423 0.93845 0.27595 0.0
C153 C 0.4124 1.01439 0.95342 0.0
C154 C 0.17664 0.4825 0.95348 0.0
C155 C 0.25263 0.43031 0.276 0.0
O156 O 0.16461 0.44025 0.93855 0.0
Zn157 Zn 0.18135 0.39226 0.02811 0.0
O158 O 0.20448 0.506 0.04834 0.0
Zn159 Zn 0.21426 0.45813 0.12239 0.0
O160 O 0.25218 0.45103 0.95935 0.0
O161 O 0.21143 0.38096 0.87651 0.0
O162 O 0.25563 0.46945 0.27397 0.0
O163 O 0.22639 0.39939 0.19113 0.0
O164 O 0.12372 0.34437 0.10217 0.0
O165 O 0.14954 0.41012 0.21192 0.0
C166 C 0.24754 0.42011 0.87446 0.0
C167 C 0.11935 0.36786 0.197 0.0
C168 C 0.42745 0.2718 0.10933 0.0
C169 C 0.37526 0.34778 0.7868 0.0
O170 O 0.38831 0.26879 0.1073 0.0
Zn171 Zn 0.39963 0.31017 0.95572 0.0
O172 O 0.45837 0.29804 0.02445 0.0
Zn173 Zn 0.4655 0.34307 0.86143 0.0
O174 O 0.51339 0.40071 0.93549 0.0
O175 O 0.44764 0.37489 0.04525 0.0
O176 O 0.41751 0.35982 0.77188 0.0
O177 O 0.35176 0.31995 0.88166 0.0
O178 O 0.40674 0.27224 0.79268 0.0
O179 O 0.4768 0.313 0.70984 0.0
C180 C 0.4899 0.40508 0.03033 0.0
C181 C 0.43766 0.27689 0.70779 0.0
C182 C 0.78604 0.16937 0.03033 0.0
C183 C 0.91421 0.2453 0.70779 0.0
O184 O 0.79039 0.19722 0.93549 0.0
Zn185 Zn 0.84803 0.20696 0.86143 0.0
O186 O 0.81624 0.15731 0.04523 0.0
Zn187 Zn 0.88097 0.17402 0.95568 0.0
O188 O 0.92234 0.20407 0.10727 0.0
O189 O 0.89305 0.24487 0.02446 0.0
O190 O 0.91888 0.21904 0.79265 0.0
O191 O 0.87809 0.24833 0.70984 0.0
O192 O 0.83132 0.14224 0.77187 0.0
O193 O 0.87123 0.11638 0.88161 0.0
C194 C 0.91931 0.2402 0.10932 0.0
C195 C 0.84337 0.11203 0.78677 0.0
C196 C 1.02179 0.70126 0.03032 0.0
C197 C 0.94581 0.75346 0.70779 0.0
O198 O 0.99395 0.67776 0.93545 0.0
Zn199 Zn 0.98418 0.72564 0.8614 0.0
O200 O 0.03382 0.74351 0.04525 0.0
Zn201 Zn 1.01709 0.79151 0.95569 0.0
O202 O 0.98701 0.80282 0.10728 0.0
O203 O 0.94626 0.73275 0.02445 0.0
O204 O 0.97205 0.78438 0.79267 0.0
O205 O 0.94281 0.71432 0.70983 0.0
O206 O 0.0489 0.77364 0.77186 0.0
O207 O 0.07472 0.8394 0.88162 0.0
C208 C 0.95091 0.76367 0.10933 0.0
C209 C 0.07909 0.8159 0.78678 0.0
C210 C 0.3752 0.11201 0.28677 0.0
C211 C 0.42744 0.24019 0.60932 0.0
O212 O 0.41746 0.1422 0.27185 0.0
Zn213 Zn 0.46546 0.20692 0.36139 0.0
O214 O 0.35171 0.11638 0.3816 0.0
Zn215 Zn 0.3996 0.17401 0.45567 0.0
O216 O 0.40672 0.21904 0.29265 0.0
O217 O 0.47678 0.24829 0.20981 0.0
O218 O 0.38829 0.20409 0.60727 0.0
O219 O 0.45836 0.24484 0.52443 0.0
O220 O 0.51334 0.19714 0.43544 0.0
O221 O 0.44759 0.15727 0.54522 0.0
C222 C 0.43765 0.24529 0.20778 0.0
C223 C 0.48984 0.16931 0.5303 0.0
C224 C 1.02173 0.40506 0.53034 0.0
C225 C 0.9458 0.27689 0.20779 0.0
O226 O 0.03379 0.37485 0.54524 0.0
Zn227 Zn 1.01708 0.31013 0.45568 0.0
O228 O 0.99388 0.40071 0.4355 0.0
Zn229 Zn 0.98414 0.34307 0.36143 0.0
O230 O 0.94623 0.29805 0.52446 0.0
O231 O 0.98702 0.26876 0.60727 0.0
O232 O 0.94277 0.31301 0.20984 0.0
O233 O 0.97205 0.27222 0.29266 0.0
O234 O 0.07472 0.31987 0.38161 0.0
O235 O 0.04886 0.35978 0.27188 0.0
C236 C 0.9509 0.27179 0.60932 0.0
C237 C 0.07907 0.34772 0.28678 0.0
C238 C 0.84332 0.81584 0.2868 0.0
C239 C 0.9193 0.76365 0.60935 0.0
O240 O 0.83128 0.77359 0.27188 0.0
Zn241 Zn 0.84803 0.7256 0.36145 0.0
O242 O 0.87115 0.83934 0.38167 0.0
Zn243 Zn 0.88093 0.79147 0.45573 0.0
O244 O 0.91886 0.78437 0.29269 0.0
O245 O 0.87811 0.7143 0.20986 0.0
O246 O 0.9223 0.80279 0.60732 0.0
O247 O 0.89306 0.73273 0.52447 0.0
O248 O 0.79039 0.67771 0.4355 0.0
O249 O 0.81621 0.74346 0.54526 0.0
C250 C 0.91421 0.75345 0.20781 0.0
C251 C 0.78602 0.7012 0.53034 0.0
loop_
_geom_bond_atom_site_label_1
_geom_bond_atom_site_label_2
_geom_bond_distance
_geom_bond_site_symmetry_2
_ccdc_geom_bond_type
C0 O2 1.247 . S
C0 O4 1.258 . S
C1 O8 1.247 . S
C1 O9 1.258 . S
O2 C0 1.247 . S
O2 Zn3 2.028 . S
Zn3 O2 2.028 . S
Zn3 O7 2.035 . S
Zn3 O9 2.035 . S
Zn3 O10 2.028 . S
O4 C0 1.258 . S
O4 Zn5 2.035 . S
Zn5 O4 2.035 . S
Zn5 O6 2.028 . S
Zn5 O8 2.028 . S
Zn5 O11 2.035 . S
O6 Zn5 2.028 . S
O6 C12 1.247 . S
O7 Zn3 2.035 . S
O7 C12 1.258 . S
O8 C1 1.247 . S
O8 Zn5 2.028 . S
O9 C1 1.258 . S
O9 Zn3 2.035 . S
O10 Zn3 2.028 . S
O10 C13 1.247 . S
O11 Zn5 2.035 . S
O11 C13 1.258 . S
C12 O6 1.247 . S
C12 O7 1.258 . S
C13 O10 1.247 . S
C13 O11 1.258 . S
C14 O16 1.247 . S
C14 O18 1.258 . S
C15 O22 1.247 . S
C15 O23 1.258 . S
O16 C14 1.247 . S
O16 Zn17 2.028 . S
Zn17 O16 2.028 . S
Zn17 O21 2.035 . S
Zn17 O23 2.035 . S
Zn17 O24 2.028 . S
O18 C14 1.258 . S
O18 Zn19 2.035 . S
Zn19 O18 2.035 . S
Zn19 O20 2.028 . S
Zn19 O22 2.028 . S
Zn19 O25 2.035 . S
O20 Zn19 2.028 . S
O20 C26 1.247 . S
O21 Zn17 2.035 . S
O21 C26 1.258 . S
O22 C15 1.247 . S
O22 Zn19 2.028 . S
O23 C15 1.258 . S
O23 Zn17 2.035 . S
O24 Zn17 2.028 . S
O24 C27 1.247 . S
O25 Zn19 2.035 . S
O25 C27 1.258 . S
C26 O20 1.247 . S
C26 O21 1.258 . S
C27 O24 1.247 . S
C27 O25 1.258 . S
C28 O30 1.247 . S
C28 O32 1.258 . S
C29 O36 1.247 . S
C29 O37 1.258 . S
O30 C28 1.247 . S
O30 Zn31 2.028 . S
Zn31 O30 2.028 . S
Zn31 O35 2.035 . S
Zn31 O37 2.035 . S
Zn31 O38 2.028 . S
O32 C28 1.258 . S
O32 Zn33 2.035 . S
Zn33 O32 2.035 . S
Zn33 O34 2.028 . S
Zn33 O36 2.028 . S
Zn33 O39 2.035 . S
O34 Zn33 2.028 . S
O34 C40 1.247 . S
O35 Zn31 2.035 . S
O35 C40 1.258 . S
O36 C29 1.247 . S
O36 Zn33 2.028 . S
O37 C29 1.258 . S
O37 Zn31 2.035 . S
O38 Zn31 2.028 . S
O38 C41 1.247 . S
O39 Zn33 2.035 . S
O39 C41 1.258 . S
C40 O34 1.247 . S
C40 O35 1.258 . S
C41 O38 1.247 . S
C41 O39 1.258 . S
C42 O44 1.247 . S
C42 O46 1.258 . S
C43 O50 1.247 . S
C43 O51 1.258 . S
O44 C42 1.247 . S
O44 Zn45 2.028 . S
Zn45 O44 2.028 . S
Zn45 O49 2.035 . S
Zn45 O51 2.035 . S
Zn45 O52 2.028 . S
O46 C42 1.258 . S
O46 Zn47 2.035 . S
Zn47 O46 2.035 . S
Zn47 O48 2.028 . S
Zn47 O50 2.028 . S
Zn47 O53 2.035 . S
O48 Zn47 2.028 . S
O48 C54 1.247 . S
O49 Zn45 2.035 . S
O49 C54 1.258 . S
O50 C43 1.247 . S
O50 Zn47 2.028 . S
O51 C43 1.258 . S
O51 Zn45 2.035 . S
O52 Zn45 2.028 . S
O52 C55 1.247 . S
O53 Zn47 2.035 . S
O53 C55 1.258 . S
C54 O48 1.247 . S
C54 O49 1.258 . S
C55 O52 1.247 . S
C55 O53 1.258 . S
C56 O58 1.247 . S
C56 O60 1.258 . S
C57 O64 1.247 . S
C57 O65 1.258 . S
O58 C56 1.247 . S
O58 Zn59 2.028 . S
Zn59 O58 2.028 . S
Zn59 O63 2.035 . S
Zn59 O65 2.035 . S
Zn59 O66 2.028 . S
O60 C56 1.258 . S
O60 Zn61 2.035 . S
Zn61 O60 2.035 . S
Zn61 O62 2.028 . S
Zn61 O64 2.028 . S
Zn61 O67 2.035 . S
O62 Zn61 2.028 . S
O62 C68 1.247 . S
O63 Zn59 2.035 . S
O63 C68 1.258 . S
O64 C57 1.247 . S
O64 Zn61 2.028 . S
O65 C57 1.258 . S
O65 Zn59 2.035 . S
O66 Zn59 2.028 . S
O66 C69 1.247 . S
O67 Zn61 2.035 . S
O67 C69 1.258 . S
C68 O62 1.247 . S
C68 O63 1.258 . S
C69 O66 1.247 . S
C69 O67 1.258 . S
C70 O72 1.247 . S
C70 O74 1.258 . S
C71 O78 1.247 . S
C71 O79 1.258 . S
O72 C70 1.247 . S
O72 Zn73 2.028 . S
Zn73 O72 2.028 . S
Zn73 O77 2.035 . S
Zn73 O79 2.035 . S
Zn73 O80 2.028 . S
O74 C70 1.258 . S
O74 Zn75 2.035 . S
Zn75 O74 2.035 . S
Zn75 O76 2.028 . S
Zn75 O78 2.028 . S
Zn75 O81 2.035 . S
O76 Zn75 2.028 . S
O76 C82 1.247 . S
O77 Zn73 2.035 . S
O77 C82 1.258 . S
O78 C71 1.247 . S
O78 Zn75 2.028 . S
O79 C71 1.258 . S
O79 Zn73 2.035 . S
O80 Zn73 2.028 . S
O80 C83 1.247 . S
O81 Zn75 2.035 . S
O81 C83 1.258 . S
C82 O76 1.247 . S
C82 O77 1.258 . S
C83 O80 1.247 . S
C83 O81 1.258 . S
C84 O86 1.247 . S
C84 O88 1.258 . S
C85 O92 1.247 . S
C85 O93 1.258 1_545 S
O86 C84 1.247 . S
O86 Zn87 2.028 . S
Zn87 O86 2.028 . S
Zn87 O91 2.035 1_565 S
Zn87 O93 2.035 . S
Zn87 O94 2.028 . S
O88 C84 1.258 . S
O88 Zn89 2.035 1_565 S
Zn89 O88 2.035 1_545 S
Zn89 O90 2.028 . S
Zn89 O92 2.028 . S
Zn89 O95 2.035 1_545 S
O90 Zn89 2.028 . S
O90 C96 1.247 . S
O91 Zn87 2.035 1_545 S
O91 C96 1.258 . S
O92 C85 1.247 . S
O92 Zn89 2.028 . S
O93 C85 1.258 1_565 S
O93 Zn87 2.035 . S
O94 Zn87 2.028 . S
O94 C97 1.247 . S
O95 Zn89 2.035 1_565 S
O95 C97 1.258 . S
C96 O90 1.247 . S
C96 O91 1.258 . S
C97 O94 1.247 . S
C97 O95 1.258 . S
C98 O100 1.247 . S
C98 O102 1.258 . S
C99 O106 1.247 . S
C99 O107 1.258 . S
O100 C98 1.247 . S
O100 Zn101 2.028 . S
Zn101 O100 2.028 . S
Zn101 O105 2.035 . S
Zn101 O107 2.035 . S
Zn101 O108 2.028 . S
O102 C98 1.258 . S
O102 Zn103 2.035 . S
Zn103 O102 2.035 . S
Zn103 O104 2.028 . S
Zn103 O106 2.028 . S
Zn103 O109 2.035 . S
O104 Zn103 2.028 . S
O104 C110 1.247 . S
O105 Zn101 2.035 . S
O105 C110 1.258 . S
O106 C99 1.247 . S
O106 Zn103 2.028 . S
O107 C99 1.258 . S
O107 Zn101 2.035 . S
O108 Zn101 2.028 . S
O108 C111 1.247 . S
O109 Zn103 2.035 . S
O109 C111 1.258 . S
C110 O104 1.247 . S
C110 O105 1.258 . S
C111 O108 1.247 . S
C111 O109 1.258 . S
C112 O114 1.247 . S
C112 O116 1.258 . S
C113 O120 1.247 . S
C113 O121 1.258 . S
O114 C112 1.247 . S
O114 Zn115 2.028 . S
Zn115 O114 2.028 . S
Zn115 O119 2.035 . S
Zn115 O121 2.035 . S
Zn115 O122 2.028 . S
O116 C112 1.258 . S
O116 Zn117 2.035 . S
Zn117 O116 2.035 . S
Zn117 O118 2.028 . S
Zn117 O120 2.028 . S
Zn117 O123 2.035 . S
O118 Zn117 2.028 . S
O118 C124 1.247 . S
O119 Zn115 2.035 . S
O119 C124 1.258 . S
O120 C113 1.247 . S
O120 Zn117 2.028 . S
O121 C113 1.258 . S
O121 Zn115 2.035 . S
O122 Zn115 2.028 . S
O122 C125 1.247 . S
O123 Zn117 2.035 . S
O123 C125 1.258 . S
C124 O118 1.247 . S
C124 O119 1.258 . S
C125 O122 1.247 . S
C125 O123 1.258 . S
C126 O128 1.247 . S
C126 O130 1.258 . S
C127 O134 1.247 . S
C127 O135 1.258 . S
O128 C126 1.247 . S
O128 Zn129 2.028 . S
Zn129 O128 2.028 . S
Zn129 O133 2.035 . S
Zn129 O135 2.035 1_554 S
Zn129 O136 2.028 1_554 S
O130 C126 1.258 . S
O130 Zn131 2.035 . S
Zn131 O130 2.035 . S
Zn131 O132 2.028 . S
Zn131 O134 2.028 1_554 S
Zn131 O137 2.035 1_554 S
O132 Zn131 2.028 . S
O132 C138 1.247 . S
O133 Zn129 2.035 . S
O133 C138 1.258 . S
O134 C127 1.247 . S
O134 Zn131 2.028 1_556 S
O135 C127 1.258 . S
O135 Zn129 2.035 1_556 S
O136 Zn129 2.028 1_556 S
O136 C139 1.247 . S
O137 Zn131 2.035 1_556 S
O137 C139 1.258 . S
C138 O132 1.247 . S
C138 O133 1.258 . S
C139 O136 1.247 . S
C139 O137 1.258 . S
C140 O142 1.247 . S
C140 O144 1.258 . S
C141 O148 1.247 . S
C141 O149 1.258 . S
O142 C140 1.247 . S
O142 Zn143 2.028 1_545 S
Zn143 O142 2.028 1_565 S
Zn143 O147 2.035 . S
Zn143 O149 2.035 1_554 S
Zn143 O150 2.028 1_554 S
O144 C140 1.258 . S
O144 Zn145 2.035 . S
Zn145 O144 2.035 . S
Zn145 O146 2.028 1_545 S
Zn145 O148 2.028 1_544 S
Zn145 O151 2.035 1_554 S
O146 Zn145 2.028 1_565 S
O146 C152 1.247 . S
O147 Zn143 2.035 . S
O147 C152 1.258 . S
O148 C141 1.247 . S
O148 Zn145 2.028 1_566 S
O149 C141 1.258 . S
O149 Zn143 2.035 1_556 S
O150 Zn143 2.028 1_556 S
O150 C153 1.247 1_565 S
O151 Zn145 2.035 1_556 S
O151 C153 1.258 . S
C152 O146 1.247 . S
C152 O147 1.258 . S
C153 O150 1.247 1_545 S
C153 O151 1.258 . S
C154 O156 1.247 . S
C154 O158 1.258 . S
C155 O162 1.247 . S
C155 O163 1.258 . S
O156 C154 1.247 . S
O156 Zn157 2.028 1_556 S
Zn157 O156 2.028 1_554 S
Zn157 O161 2.035 1_554 S
Zn157 O163 2.035 . S
Zn157 O164 2.028 . S
O158 C154 1.258 . S
O158 Zn159 2.035 1_556 S
Zn159 O158 2.035 1_554 S
Zn159 O160 2.028 1_554 S
Zn159 O162 2.028 . S
Zn159 O165 2.035 . S
O160 Zn159 2.028 1_556 S
O160 C166 1.247 . S
O161 Zn157 2.035 1_556 S
O161 C166 1.258 . S
O162 C155 1.247 . S
O162 Zn159 2.028 . S
O163 C155 1.258 . S
O163 Zn157 2.035 . S
O164 Zn157 2.028 . S
O164 C167 1.247 . S
O165 Zn159 2.035 . S
O165 C167 1.258 . S
C166 O160 1.247 . S
C166 O161 1.258 . S
C167 O164 1.247 . S
C167 O165 1.258 . S
C168 O170 1.247 . S
C168 O172 1.258 . S
C169 O176 1.247 . S
C169 O177 1.258 . S
O170 C168 1.247 . S
O170 Zn171 2.028 1_554 S
Zn171 O170 2.028 1_556 S
Zn171 O175 2.035 1_556 S
Zn171 O177 2.035 . S
Zn171 O178 2.028 . S
O172 C168 1.258 . S
O172 Zn173 2.035 1_554 S
Zn173 O172 2.035 1_556 S
Zn173 O174 2.028 1_556 S
Zn173 O176 2.028 . S
Zn173 O179 2.035 . S
O174 Zn173 2.028 1_554 S
O174 C180 1.247 . S
O175 Zn171 2.035 1_554 S
O175 C180 1.258 . S
O176 C169 1.247 . S
O176 Zn173 2.028 . S
O177 C169 1.258 . S
O177 Zn171 2.035 . S
O178 Zn171 2.028 . S
O178 C181 1.247 . S
O179 Zn173 2.035 . S
O179 C181 1.258 . S
C180 O174 1.247 . S
C180 O175 1.258 . S
C181 O178 1.247 . S
C181 O179 1.258 . S
C182 O184 1.247 . S
C182 O186 1.258 . S
C183 O190 1.247 . S
C183 O191 1.258 . S
O184 C182 1.247 . S
O184 Zn185 2.028 1_554 S
Zn185 O184 2.028 1_556 S
Zn185 O189 2.035 1_556 S
Zn185 O191 2.035 . S
Zn185 O192 2.028 . S
O186 C182 1.258 . S
O186 Zn187 2.035 1_554 S
Zn187 O186 2.035 1_556 S
Zn187 O188 2.028 1_556 S
Zn187 O190 2.028 . S
Zn187 O193 2.035 . S
O188 Zn187 2.028 1_554 S
O188 C194 1.247 . S
O189 Zn185 2.035 1_554 S
O189 C194 1.258 . S
O190 C183 1.247 . S
O190 Zn187 2.028 . S
O191 C183 1.258 . S
O191 Zn185 2.035 . S
O192 Zn185 2.028 . S
O192 C195 1.247 . S
O193 Zn187 2.035 . S
O193 C195 1.258 . S
C194 O188 1.247 . S
C194 O189 1.258 . S
C195 O192 1.247 . S
C195 O193 1.258 . S
C196 O198 1.247 1_455 S
C196 O200 1.258 . S
C197 O204 1.247 . S
C197 O205 1.258 . S
O198 C196 1.247 1_655 S
O198 Zn199 2.028 1_554 S
Zn199 O198 2.028 1_556 S
Zn199 O203 2.035 1_556 S
Zn199 O205 2.035 . S
Zn199 O206 2.028 1_655 S
O200 C196 1.258 . S
O200 Zn201 2.035 1_554 S
Zn201 O200 2.035 1_556 S
Zn201 O202 2.028 1_456 S
Zn201 O204 2.028 1_455 S
Zn201 O207 2.035 . S
O202 Zn201 2.028 1_654 S
O202 C208 1.247 . S
O203 Zn199 2.035 1_554 S
O203 C208 1.258 . S
O204 C197 1.247 . S
O204 Zn201 2.028 1_655 S
O205 C197 1.258 . S
O205 Zn199 2.035 . S
O206 Zn199 2.028 1_455 S
O206 C209 1.247 . S
O207 Zn201 2.035 . S
O207 C209 1.258 . S
C208 O202 1.247 . S
C208 O203 1.258 . S
C209 O206 1.247 . S
C209 O207 1.258 . S
C210 O212 1.247 . S
C210 O214 1.258 . S
C211 O218 1.247 . S
C211 O219 1.258 . S
O212 C210 1.247 . S
O212 Zn213 2.028 . S
Zn213 O212 2.028 . S
Zn213 O217 2.035 . S
Zn213 O219 2.035 . S
Zn213 O220 2.028 . S
O214 C210 1.258 . S
O214 Zn215 2.035 . S
Zn215 O214 2.035 . S
Zn215 O216 2.028 . S
Zn215 O218 2.028 . S
Zn215 O221 2.035 . S
O216 Zn215 2.028 . S
O216 C222 1.247 . S
O217 Zn213 2.035 . S
O217 C222 1.258 . S
O218 C211 1.247 . S
O218 Zn215 2.028 . S
O219 C211 1.258 . S
O219 Zn213 2.035 . S
O220 Zn213 2.028 . S
O220 C223 1.247 . S
O221 Zn215 2.035 . S
O221 C223 1.258 . S
C222 O216 1.247 . S
C222 O217 1.258 . S
C223 O220 1.247 . S
C223 O221 1.258 . S
C224 O226 1.247 . S
C224 O228 1.258 1_455 S
C225 O232 1.247 . S
C225 O233 1.258 . S
O226 C224 1.247 . S
O226 Zn227 2.028 . S
Zn227 O226 2.028 . S
Zn227 O231 2.035 1_455 S
Zn227 O233 2.035 1_455 S
Zn227 O234 2.028 . S
O228 C224 1.258 1_655 S
O228 Zn229 2.035 . S
Zn229 O228 2.035 . S
Zn229 O230 2.028 . S
Zn229 O232 2.028 . S
Zn229 O235 2.035 1_655 S
O230 Zn229 2.028 . S
O230 C236 1.247 . S
O231 Zn227 2.035 1_655 S
O231 C236 1.258 . S
O232 C225 1.247 . S
O232 Zn229 2.028 . S
O233 C225 1.258 . S
O233 Zn227 2.035 1_655 S
O234 Zn227 2.028 . S
O234 C237 1.247 . S
O235 Zn229 2.035 1_455 S
O235 C237 1.258 . S
C236 O230 1.247 . S
C236 O231 1.258 . S
C237 O234 1.247 . S
C237 O235 1.258 . S
C238 O240 1.247 . S
C238 O242 1.258 . S
C239 O246 1.247 . S
C239 O247 1.258 . S
O240 C238 1.247 . S
O240 Zn241 2.028 . S
Zn241 O240 2.028 . S
Zn241 O245 2.035 . S
Zn241 O247 2.035 . S
Zn241 O248 2.028 . S
O242 C238 1.258 . S
O242 Zn243 2.035 . S
Zn243 O242 2.035 . S
Zn243 O244 2.028 . S
Zn243 O246 2.028 . S
Zn243 O249 2.035 . S
O244 Zn243 2.028 . S
O244 C250 1.247 . S
O245 Zn241 2.035 . S
O245 C250 1.258 . S
O246 C239 1.247 . S
O246 Zn243 2.028 . S
O247 C239 1.258 . S
O247 Zn241 2.035 . S
O248 Zn241 2.028 . S
O248 C251 1.247 . S
O249 Zn243 2.035 . S
O249 C251 1.258 . S
C250 O244 1.247 . S
C250 O245 1.258 . S
C251 O248 1.247 . S
C251 O249 1.258 . S
C43 C13 2.241 1_556 S
C68 C15 2.251 1_556 S
C29 C83 2.245 1_554 S
C40 C70 2.241 . S
C0 C54 2.245 . S
C57 C26 2.236 . S
C138 C97 2.249 . S
C99 C152 2.251 . S
C124 C155 2.237 . S
C166 C113 2.249 . S
C127 C84 2.238 . S
C141 C110 2.236 . S
C181 C211 2.242 . S
C183 C236 2.250 . S
C197 C239 2.245 . S
C250 C208 2.241 . S
C222 C168 2.244 . S
C225 C194 2.236 . S
C12 C111 1.931 . S
C14 C112 1.927 . S
C85 C28 1.932 . S
C41 C182 1.931 . S
C196 C1 1.932 . S
C180 C27 1.932 . S
C224 C42 1.936 . S
C69 C251 1.927 . S
C223 C82 1.932 . S
C153 C71 1.927 . S
C55 C154 1.932 . S
C56 C139 1.931 . S
C96 C195 1.931 . S
C98 C209 1.931 . S
C125 C169 1.936 . S
C237 C167 1.927 . S
C238 C126 1.936 . S
C140 C210 1.936 . S
