# Generated by pormake.
# Topology uom, (4)-cn, num edge types: 1
# Building blocks:
#     Node 0, Type 0, BuildingBlock: ESEHIV_clean_sbu_0, # of connection points: 4
#     Node 1, Type 0, BuildingBlock: ESEHIV_clean_sbu_0, # of connection points: 4
#     Node 2, Type 0, BuildingBlock: ESEHIV_clean_sbu_0, # of connection points: 4
#     Node 3, Type 0, BuildingBlock: ESEHIV_clean_sbu_0, # of connection points: 4
#     Node 4, Type 0, BuildingBlock: ESEHIV_clean_sbu_0, # of connection points: 4
#     Node 5, Type 0, BuildingBlock: ESEHIV_clean_sbu_0, # of connection points: 4
#     Edge 6, Type (0, 0), BuildingBlock: FUNLAD_clean_linker_0, # of connection points: 2
#     Edge 7, Type (0, 0), BuildingBlock: FUNLAD_clean_linker_0, # of connection points: 2
#     Edge 8, Type (0, 0), BuildingBlock: FUNLAD_clean_linker_0, # of connection points: 2
#     Edge 9, Type (0, 0), BuildingBlock: FUNLAD_clean_linker_0, # of connection points: 2
#     Edge 10, Type (0, 0), BuildingBlock: FUNLAD_clean_linker_0, # of connection points: 2
#     Edge 11, Type (0, 0), BuildingBlock: FUNLAD_clean_linker_0, # of connection points: 2
#     Edge 12, Type (0, 0), BuildingBlock: FUNLAD_clean_linker_0, # of connection points: 2
#     Edge 13, Type (0, 0), BuildingBlock: FUNLAD_clean_linker_0, # of connection points: 2
#     Edge 14, Type (0, 0), BuildingBlock: FUNLAD_clean_linker_0, # of connection points: 2
#     Edge 15, Type (0, 0), BuildingBlock: FUNLAD_clean_linker_0, # of connection points: 2
#     Edge 16, Type (0, 0), BuildingBlock: FUNLAD_clean_linker_0, # of connection points: 2
#     Edge 17, Type (0, 0), BuildingBlock: FUNLAD_clean_linker_0, # of connection points: 2
# Relax obj value: 0.103
# Max RMSD: 0.201
# Mean RMSD: 0.160
data_MOF--net-uom--node1-ESEHIV_clean_sbu_0--edge1-FUNLAD_clean_linker_0
_symmetry_space_group_name_H-M    P1
_symmetry_Int_Tables_number       1
_symmetry_cell_setting            triclinic
loop_
_symmetry_equiv_pos_as_xyz
'x, y, z'
_cell_length_a     34.243787
_cell_length_b     33.244427
_cell_length_c     53.713592
_cell_angle_alpha  89.744381
_cell_angle_beta   90.241492
_cell_angle_gamma 125.06684
loop_
_atom_site_label
_atom_site_type_symbol
_atom_site_fract_x
_atom_site_fract_y
_atom_site_fract_z
_atom_type_partial_charge
Cu0 Cu 0.37979 0.04559 0.04412 0.0
N1 N 0.35737 -0.00619 1.02147 0.0
N2 N 0.3376 0.95242 0.98549 0.0
C3 C 0.35245 -0.00453 0.99661 0.0
C4 C 0.33344 0.92282 1.00416 0.0
C5 C 0.34584 0.94846 1.02622 0.0
O6 O 0.44912 0.07875 0.04655 0.0
C7 C 0.31309 0.06184 1.02866 0.0
O8 O 0.28803 0.01365 1.02784 0.0
H9 H 0.35946 0.02764 0.98698 0.0
H10 H 0.34722 0.93523 0.0444 0.0
N11 N 0.35313 0.02317 0.07582 0.0
N12 N 0.33584 0.0281 0.11537 0.0
C13 C 0.36545 0.05219 0.09594 0.0
C14 C 0.31429 0.97911 0.08265 0.0
C15 C 0.30364 0.98198 0.10706 0.0
C16 C 0.46272 0.0564 0.05937 0.0
O17 O 0.43019 0.01522 0.0706 0.0
H18 H 0.39399 0.09101 0.0958 0.0
H19 H 0.29384 0.94778 0.07046 0.0
O20 O 0.35742 0.08582 0.03406 0.0
H21 H 0.3233 0.88562 1.00203 0.0
H22 H 0.27384 0.95267 0.11764 0.0
Cu23 Cu 0.32817 0.24456 0.38014 0.0
N24 N 0.31266 0.2375 0.34632 0.0
N25 N 0.30293 0.21244 0.30675 0.0
C26 C 0.31892 0.21147 0.32966 0.0
C27 C 0.28606 0.2403 0.30921 0.0
C28 C 0.29216 0.25572 0.33361 0.0
O29 O 0.39614 0.29422 0.38368 0.0
C30 C 0.31025 0.17032 0.41465 0.0
O31 O 0.32991 0.20544 0.43137 0.0
H32 H 0.33401 0.19141 0.33444 0.0
H33 H 0.28214 0.2784 0.34155 0.0
N34 N 0.29352 0.26276 0.39793 0.0
N35 N 0.24653 0.26279 0.42691 0.0
C36 C 0.26053 0.23662 0.41575 0.0
C37 C 0.30023 0.30676 0.39752 0.0
C38 C 0.27137 0.30692 0.4153 0.0
C39 C 0.41463 0.31859 0.40363 0.0
O40 O 0.38728 0.30891 0.42302 0.0
H41 H 0.24767 0.1994 0.42071 0.0
H42 H 0.32576 0.33724 0.38578 0.0
O43 O 0.30984 0.18099 0.39194 0.0
H44 H 0.27073 0.2493 0.29442 0.0
H45 H 0.27051 0.33801 0.42001 0.0
Cu46 Cu 0.99222 0.19966 0.68591 0.0
N47 N 0.93839 0.16273 0.70638 0.0
N48 N 0.89769 0.12585 0.7414 0.0
C49 C 0.94113 0.15486 0.73076 0.0
C50 C 0.86627 0.11514 0.72291 0.0
C51 C 0.89145 0.13774 0.70132 0.0
O52 O 0.02217 0.2689 0.69269 0.0
C53 C 1.01102 0.13133 0.69107 0.0
O54 O 0.96763 0.10555 0.68174 0.0
H55 H 0.97463 0.17033 0.74045 0.0
H56 H 0.87638 0.13538 0.68325 0.0
N57 N 0.97982 0.18948 0.6516 0.0
N58 N 0.9949 0.18972 0.61096 0.0
C59 C 1.01126 0.19483 0.63452 0.0
C60 C 0.9422 0.1808 0.63846 0.0
C61 C 0.95127 0.1807 0.61346 0.0
C62 C 0.99566 0.28415 0.69052 0.0
O63 O 0.95072 0.25256 0.68426 0.0
H64 H 0.04634 0.20439 0.63936 0.0
H65 H 0.91107 0.17658 0.64631 0.0
O66 O 0.03175 0.17725 0.69435 0.0
H67 H 0.82782 0.09172 0.72468 0.0
H68 H 0.92767 0.17511 0.59834 0.0
Cu69 Cu 0.87633 0.03477 0.03773 0.0
N70 N 0.85283 0.00938 1.00588 0.0
N71 N 0.84595 0.00586 0.96429 0.0
C72 C 0.87377 0.03147 0.98409 0.0
C73 C 0.80604 0.9659 0.97417 0.0
C74 C 0.81035 0.96828 0.99976 0.0
O75 O 0.84454 0.06545 0.04833 0.0
C76 C 0.9754 0.0862 0.0514 0.0
O77 O 0.95983 0.07194 0.07423 0.0
H78 H 0.90793 0.06673 0.98295 0.0
H79 H 0.78396 0.94243 1.01302 0.0
N80 N 0.86047 0.98323 0.05964 0.0
N81 N 0.85039 0.94045 0.09435 0.0
C82 C 0.86029 0.98316 0.0848 0.0
C83 C 0.85021 0.93912 0.0531 0.0
C84 C 0.84384 0.91269 0.07436 0.0
C85 C 0.84012 0.09278 0.03358 0.0
O86 O 0.86361 0.10643 1.01244 0.0
H87 H 0.86809 0.01414 0.09583 0.0
H88 H 0.84884 0.92752 0.03415 0.0
O89 O 0.9458 0.07794 0.03426 0.0
H90 H 0.77562 0.93706 0.96375 0.0
H91 H 0.83683 0.87654 0.075 0.0
Cu92 Cu 0.89799 0.79456 0.37508 0.0
N93 N 0.92109 0.81941 0.34282 0.0
N94 N 0.9281 0.84948 0.30433 0.0
C95 C 0.8996 0.82815 0.32451 0.0
C96 C 0.96876 0.8539 0.31019 0.0
C97 C 0.96437 0.83548 0.33377 0.0
O98 O 0.84072 0.72852 0.37231 0.0
C99 C 0.90481 0.87238 0.40425 0.0
O100 O 0.88428 0.88983 0.41628 0.0
H101 H 0.86447 0.82055 0.32631 0.0
H102 H 0.99179 0.83572 0.3439 0.0
N103 N 0.94241 0.79119 0.39417 0.0
N104 N 0.98588 0.79271 0.42609 0.0
C105 C 0.95244 0.79993 0.41874 0.0
C106 C 0.96938 0.77652 0.38595 0.0
C107 C 0.99643 0.77788 0.40539 0.0
C108 C 0.81758 0.70697 0.39208 0.0
O109 O 0.83394 0.73001 0.41345 0.0
H110 H 0.93469 0.8102 0.43106 0.0
H111 H 0.96903 0.76501 0.36711 0.0
O112 O 0.87894 0.83288 0.39178 0.0
H113 H 0.99979 0.86969 0.29835 0.0
H114 H 0.02224 0.76905 0.40419 0.0
Cu115 Cu 0.1882 0.81914 0.70064 0.0
N116 N 0.24111 0.84833 0.722 0.0
N117 N 0.28208 0.87626 0.7578 0.0
C118 C 0.23892 0.85371 0.74669 0.0
C119 C 0.31264 0.88522 0.73922 0.0
C120 C 0.28724 0.86784 0.71718 0.0
O121 O 0.15684 0.74858 0.70206 0.0
C122 C 0.17041 0.88597 0.7148 0.0
O123 O 0.21672 0.9146 0.71111 0.0
H124 H 0.20616 0.8421 0.75613 0.0
H125 H 0.30139 0.86929 0.69898 0.0
N126 N 0.20315 0.83964 0.66741 0.0
N127 N 0.18926 0.84488 0.62711 0.0
C128 C 0.17213 0.81813 0.6483 0.0
C129 C 0.24139 0.88151 0.65804 0.0
C130 C 0.23297 0.8848 0.63318 0.0
C131 C 0.18014 0.73287 0.69317 0.0
O132 O 0.2223 0.76473 0.68338 0.0
H133 H 0.13653 0.78487 0.65033 0.0
H134 H 0.27222 0.90882 0.66878 0.0
O135 O 0.14851 0.83983 0.71165 0.0
H136 H 0.35057 0.90261 0.74135 0.0
H137 H 0.25676 0.9148 0.62072 0.0
C138 C 0.29378 0.02938 0.15255 0.0
C139 C 0.33621 0.04885 0.13905 0.0
C140 C 0.29393 0.0508 0.17499 0.0
C141 C 0.33662 0.09234 0.18448 0.0
C142 C 0.37914 0.11094 0.17131 0.0
C143 C 0.37894 0.08971 0.14882 0.0
C144 C 0.33848 0.11662 0.20821 0.0
C145 C 0.30093 0.11482 0.21752 0.0
C146 C 0.30293 0.14056 0.24071 0.0
C147 C 0.26904 0.15113 0.24402 0.0
C148 C 0.2692 0.17483 0.26552 0.0
C149 C 0.303 0.18814 0.28448 0.0
H150 H 0.36255 0.1449 0.25833 0.0
C151 C 0.33659 0.17701 0.28135 0.0
C152 C 0.33659 0.15349 0.25976 0.0
H153 H 0.36324 0.18683 0.29549 0.0
H154 H 0.26019 -0.00193 0.14559 0.0
H155 H 0.26059 0.03433 0.18489 0.0
H156 H 0.41267 0.14246 0.17829 0.0
H157 H 0.41237 0.10517 0.13915 0.0
H158 H 0.3729 0.13917 0.2174 0.0
H159 H 0.26776 0.09595 0.20706 0.0
H160 H 0.24234 0.14119 0.22985 0.0
H161 H 0.24229 0.18201 0.26743 0.0
C162 C 0.19395 0.2732 0.45369 0.0
C163 C 0.21522 0.24853 0.44819 0.0
C164 C 0.16567 0.26124 0.47495 0.0
C165 C 0.15745 0.2238 0.49128 0.0
C166 C 0.17841 0.19892 0.48567 0.0
C167 C 0.20675 0.21094 0.46443 0.0
C168 C 0.12938 0.21111 0.51483 0.0
C169 C 0.09875 0.22342 0.51956 0.0
C170 C 0.07161 0.21224 0.54334 0.0
C171 C 0.03322 0.21671 0.54379 0.0
C172 C 1.00781 0.20874 0.56574 0.0
C173 C 1.02017 0.19625 0.58804 0.0
H174 H 0.11384 0.19669 0.56648 0.0
C175 C 0.05848 0.19151 0.58762 0.0
C176 C 0.08398 0.19954 0.56563 0.0
H177 H 0.06893 0.18162 0.60431 0.0
H178 H 0.19927 0.30209 0.44162 0.0
H179 H 0.15145 0.2824 0.47867 0.0
H180 H 0.17321 0.17023 0.49791 0.0
H181 H 0.22292 0.19147 0.46119 0.0
H182 H 0.13352 0.18962 0.52844 0.0
H183 H 0.09188 0.24156 0.50515 0.0
H184 H 0.02297 0.22685 0.52706 0.0
H185 H 0.97914 0.21352 0.56525 0.0
C186 C 0.81837 0.00041 0.92076 0.0
C187 C 0.8557 0.0198 0.93827 0.0
C188 C 0.82774 0.01463 0.89569 0.0
C189 C 0.87481 0.04907 0.88745 0.0
C190 C 0.91209 0.06781 0.90488 0.0
C191 C 0.90274 0.05351 0.92991 0.0
C192 C 0.88693 0.0656 0.86094 0.0
C193 C 0.85521 0.06014 0.84378 0.0
C194 C 0.86756 0.07741 0.81738 0.0
C195 C 0.83522 0.0813 0.80321 0.0
C196 C 0.84494 0.09698 0.77837 0.0
C197 C 0.88734 0.10919 0.76698 0.0
H198 H 0.935 0.08491 0.81555 0.0
C199 C 0.91949 0.10477 0.78101 0.0
C200 C 0.90969 0.08887 0.80582 0.0
H201 H 0.95196 0.11274 0.77269 0.0
H202 H 0.78167 0.97456 0.92638 0.0
H203 H 0.79786 -0.00202 0.88296 0.0
H204 H 0.94877 0.0939 0.89914 0.0
H205 H 0.93257 0.06867 0.94263 0.0
H206 H 0.92421 0.08499 0.85585 0.0
H207 H 0.81865 0.04411 0.84936 0.0
H208 H 0.80232 0.07246 0.81144 0.0
H209 H 0.81951 0.10021 0.76821 0.0
C210 C 0.87847 0.96449 0.13804 0.0
C211 C 0.85043 0.9279 0.1202 0.0
C212 C 0.88099 0.95182 0.16267 0.0
C213 C 0.85551 0.90212 0.17006 0.0
C214 C 0.82612 0.86579 0.15243 0.0
C215 C 0.82378 0.87842 0.12785 0.0
C216 C 0.85859 0.88642 0.19573 0.0
C217 C 0.89619 0.91416 0.21112 0.0
C218 C 0.90228 0.89699 0.23569 0.0
C219 C 0.94851 0.92105 0.24561 0.0
C220 C 0.9567 0.90579 0.26812 0.0
C221 C 0.91879 0.8662 0.2816 0.0
H222 H 0.82759 0.8393 0.2429 0.0
C223 C 0.87218 0.84294 0.27217 0.0
C224 C 0.86396 0.85806 0.24945 0.0
H225 H 0.84218 0.81243 0.28211 0.0
H226 H 0.89948 0.00294 0.13286 0.0
H227 H 0.90292 0.98115 0.17576 0.0
H228 H 0.80555 0.82726 0.15755 0.0
H229 H 0.80111 0.84928 0.11479 0.0
H230 H 0.83055 0.8491 0.2012 0.0
H231 H 0.92598 0.94993 0.20472 0.0
H232 H 0.97872 0.95149 0.2357 0.0
H233 H 0.99293 0.92532 0.27501 0.0
C234 C 0.17344 0.87302 0.58785 0.0
C235 C 0.1643 0.83463 0.60366 0.0
C236 C 0.1484 0.86294 0.56539 0.0
C237 C 0.11368 0.81411 0.55815 0.0
C238 C 0.10514 0.77584 0.57379 0.0
C239 C 0.12979 0.78592 0.59633 0.0
C240 C 0.08732 0.80151 0.53401 0.0
C241 C 0.07894 0.83153 0.52185 0.0
C242 C 0.05304 0.8189 0.49754 0.0
C243 C 0.03054 0.84183 0.49082 0.0
C244 C 1.00746 0.83231 0.46777 0.0
C245 C 1.00707 0.80029 0.45056 0.0
H246 H 0.06988 0.76867 0.4846 0.0
C247 C 0.02939 0.77712 0.45739 0.0
C248 C 0.0521 0.7863 0.4805 0.0
H249 H 0.02952 0.75182 0.44486 0.0
H250 H 0.19957 0.91095 0.59296 0.0
H251 H 0.15701 0.89349 0.55361 0.0
H252 H 0.07906 0.73787 0.56861 0.0
H253 H 0.12227 0.75549 0.60788 0.0
H254 H 0.07251 0.76507 0.52663 0.0
H255 H 0.08981 0.86606 0.53039 0.0
H256 H 0.03088 0.86736 0.50344 0.0
H257 H 0.99082 0.85091 0.46331 0.0
C258 C 0.35 0.97745 0.94092 0.0
C259 C 0.32848 0.94043 0.95927 0.0
C260 C 0.34125 0.96556 0.91555 0.0
C261 C 0.31081 0.91618 0.90788 0.0
C262 C 0.28901 0.87939 0.92625 0.0
C263 C 0.29778 0.89124 0.95154 0.0
C264 C 0.29927 0.90125 0.88118 0.0
C265 C 0.32553 0.92988 0.86168 0.0
C266 C 0.31341 0.91429 0.83507 0.0
C267 C 0.34918 0.93936 0.8169 0.0
C268 C 0.33917 0.92667 0.79169 0.0
C269 C 0.2929 0.88869 0.78391 0.0
H270 H 0.23791 0.85687 0.84036 0.0
C271 C 0.25706 0.86368 0.80209 0.0
C272 C 0.26703 0.87639 0.82727 0.0
H273 H 0.22108 0.83402 0.79695 0.0
H274 H 0.37398 0.01571 0.94609 0.0
H275 H 0.35791 -0.00469 0.90218 0.0
H276 H 0.26497 0.84108 0.92103 0.0
H277 H 0.27986 0.86173 0.96503 0.0
H278 H 0.26861 0.86401 0.87769 0.0
H279 H 0.3584 0.96562 0.86516 0.0
H280 H 0.38512 0.96903 0.82222 0.0
H281 H 0.36759 0.9473 0.77829 0.0
C282 C 0.24344 0.06122 1.01444 0.0
C283 C 0.28717 0.08534 1.02724 0.0
C284 C 0.21313 0.0764 1.01694 0.0
C285 C 0.22568 0.11618 0.03246 0.0
C286 C 0.27047 0.14175 0.04438 0.0
C287 C 0.30117 0.12682 0.04162 0.0
C288 C 0.19054 0.12756 0.03884 0.0
C289 C 0.15341 0.11576 1.02399 0.0
C290 C 0.1123 0.11707 0.03182 0.0
C291 C 0.08178 0.11472 1.01338 0.0
C292 C 0.03871 0.10786 1.01977 0.0
C293 C 0.02473 0.10264 0.04483 0.0
H294 H 0.12141 0.11528 0.07181 0.0
C295 C 0.05638 0.10753 0.06337 0.0
C296 C 0.09959 0.1146 0.05698 0.0
H297 H 0.04681 0.10361 0.08286 0.0
H298 H 0.23152 0.02894 1.00333 0.0
H299 H 0.17867 0.05479 1.00787 0.0
H300 H 0.28099 0.17226 0.05661 0.0
H301 H 0.33434 0.14574 0.052 0.0
H302 H 0.19479 0.14477 0.05671 0.0
H303 H 0.15197 0.10287 1.00524 0.0
H304 H 0.09039 0.11631 0.99386 0.0
H305 H 1.01534 0.10427 1.00496 0.0
C306 C 0.97958 0.91322 0.42935 0.0
C307 C 0.95671 0.8978 0.40614 0.0
C308 C 0.02893 0.93691 0.43115 0.0
C309 C 0.05627 0.94605 0.40961 0.0
C310 C 0.03311 0.93163 0.38639 0.0
C311 C 0.98395 0.90829 0.38469 0.0
C312 C 0.10919 0.97528 0.4099 0.0
C313 C 0.13642 0.98765 0.43052 0.0
C314 C 0.18811 0.02765 0.42967 0.0
C315 C 0.20799 0.06272 0.44878 0.0
C316 C 0.25155 0.10813 0.44514 0.0
C317 C 0.27561 0.11879 0.42232 0.0
H318 H 0.2022 0.0084 0.39387 0.0
C319 C 0.25895 0.08112 0.40473 0.0
C320 C 0.21567 0.03571 0.40845 0.0
H321 H 0.27735 0.08807 0.38718 0.0
H322 H 0.95917 0.90638 0.44613 0.0
H323 H 0.04519 0.94879 0.44934 0.0
H324 H 0.05328 0.93959 0.36938 0.0
H325 H 0.96747 0.90026 0.36657 0.0
H326 H 0.12657 -0.00932 0.39209 0.0
H327 H 0.12017 0.97393 0.44865 0.0
H328 H 0.18775 0.05698 0.46549 0.0
H329 H 0.26369 0.13636 0.45913 0.0
C330 C 1.00815 0.055 0.69531 0.0
C331 C 0.03369 0.1062 0.69816 0.0
C332 C 0.02869 0.03037 0.70173 0.0
C333 C 0.07535 0.05633 0.71134 0.0
C334 C 0.101 0.10756 0.71412 0.0
C335 C 0.08031 0.1323 0.70773 0.0
C336 C 0.09943 0.03168 0.71671 0.0
C337 C 0.07577 0.98324 0.72184 0.0
C338 C 0.09954 0.95742 0.72336 0.0
C339 C 0.07302 0.90702 0.71772 0.0
C340 C 0.09539 0.88273 0.71606 0.0
C341 C 0.14472 0.90853 0.72009 0.0
H342 H 0.16955 0.02033 0.73475 0.0
C343 C 0.17058 0.95803 0.72739 0.0
C344 C 0.14824 0.98217 0.72917 0.0
H345 H 0.2085 0.97863 0.73117 0.0
H346 H 0.97221 0.03373 0.68785 0.0
H347 H 1.00822 -0.00876 0.69837 0.0
H348 H 0.13724 0.12855 0.72118 0.0
H349 H 0.10092 0.17177 0.71011 0.0
H350 H 0.13804 0.05439 0.71536 0.0
H351 H 0.03715 0.96071 0.72328 0.0
H352 H 0.03528 0.88687 0.71352 0.0
H353 H 0.07449 0.84447 0.71055 0.0
C354 C 0.77151 0.08073 0.05822 0.0
C355 C 0.80313 0.10229 0.03798 0.0
C356 C 0.73278 0.08435 0.06036 0.0
C357 C 0.72482 0.10996 0.04233 0.0
C358 C 0.75741 0.13277 1.0226 0.0
C359 C 0.79607 0.12918 1.02048 0.0
C360 C 0.68126 0.11041 0.04216 0.0
C361 C 0.65303 0.09973 0.06216 0.0
C362 C 0.6061 0.09349 0.06144 0.0
C363 C 0.57326 0.06583 0.08049 0.0
C364 C 0.52758 0.05554 0.08006 0.0
C365 C 0.5134 0.07325 0.06076 0.0
H366 H 0.61726 0.13565 1.02782 0.0
C367 C 0.54683 0.1031 0.04226 0.0
C368 C 0.59272 0.11301 0.04251 0.0
H369 H 0.53702 0.11736 1.02715 0.0
H370 H 0.77554 0.05939 0.07194 0.0
H371 H 0.70825 0.06512 0.07559 0.0
H372 H 0.75236 0.15259 1.00836 0.0
H373 H 0.81955 0.14626 1.00461 0.0
H374 H 0.67157 0.11834 1.02449 0.0
H375 H 0.66308 0.09228 0.07986 0.0
H376 H 0.58243 0.05068 0.09545 0.0
H377 H 0.50294 0.03277 0.09475 0.0
C378 C 0.74563 0.63552 0.41304 0.0
C379 C 0.7719 0.6576 0.39114 0.0
C380 C 0.70158 0.58986 0.41227 0.0
C381 C 0.68284 0.56483 0.38954 0.0
C382 C 0.70925 0.58689 0.36767 0.0
C383 C 0.75336 0.63268 0.36844 0.0
C384 C 0.63487 0.51737 0.38765 0.0
C385 C 0.61179 0.48697 0.40713 0.0
C386 C 0.56206 0.44213 0.40571 0.0
C387 C 0.53443 0.42544 0.42749 0.0
C388 C 0.48682 0.38489 0.42689 0.0
C389 C 0.46588 0.35966 0.4045 0.0
H390 H 0.5621 0.42659 0.36643 0.0
C391 C 0.49398 0.37516 0.38286 0.0
C392 C 0.54159 0.41597 0.38343 0.0
H393 H 0.47905 0.35624 0.36535 0.0
H394 H 0.75866 0.65388 0.43083 0.0
H395 H 0.68201 0.57535 0.4295 0.0
H396 H 0.69558 0.56877 0.34986 0.0
H397 H 0.77263 0.64874 0.3512 0.0
H398 H 0.61776 0.508 0.36951 0.0
H399 H 0.62872 0.4961 0.42529 0.0
H400 H 0.54941 0.44457 0.44496 0.0
H401 H 0.46631 0.37371 0.44394 0.0
C402 C 0.11842 0.64556 0.7064 0.0
C403 C 0.16133 0.68008 0.69412 0.0
C404 C 0.10169 0.59595 0.70751 0.0
C405 C 0.12742 0.57978 0.69612 0.0
C406 C 0.17042 0.61452 0.68407 0.0
C407 C 0.18712 0.66393 0.68302 0.0
C408 C 0.11141 0.52751 0.69649 0.0
C409 C 0.06615 0.48906 0.70093 0.0
C410 C 0.04959 0.43675 0.69917 0.0
C411 C 1.00092 0.40081 0.69495 0.0
C412 C 0.98363 0.35144 0.69239 0.0
C413 C 1.01455 0.33655 0.6942 0.0
H414 H 0.11803 0.448 0.70567 0.0
C415 C 0.06314 0.37219 0.69909 0.0
C416 C 0.08052 0.42179 0.70162 0.0
H417 H 0.08781 0.36184 0.70083 0.0
H418 H 0.09797 0.65691 0.71538 0.0
H419 H 0.0691 0.57088 0.71764 0.0
H420 H 0.19119 0.60339 0.67524 0.0
H421 H 0.22041 0.68948 0.67346 0.0
H422 H 0.13762 0.52059 0.69125 0.0
H423 H 0.03899 0.49559 0.70419 0.0
H424 H 0.97614 0.41103 0.69321 0.0
H425 H 0.94591 0.325 0.68881 0.0
loop_
_geom_bond_atom_site_label_1
_geom_bond_atom_site_label_2
_geom_bond_distance
_geom_bond_site_symmetry_2
_ccdc_geom_bond_type
Cu0 N1 1.999 1_554 S
Cu0 O6 1.974 . S
Cu0 N11 1.985 . S
Cu0 O20 1.959 . S
N1 Cu0 1.999 1_556 S
N1 C3 1.263 . S
N1 C5 1.389 . S
N2 C3 1.358 . S
N2 C4 1.400 . S
C3 N1 1.263 . S
C3 N2 1.358 . S
C3 H9 0.930 1_545 S
C4 N2 1.400 . S
C4 C5 1.351 . S
C4 H21 0.930 . S
C5 N1 1.389 . S
C5 C4 1.351 . S
C5 H10 0.930 . S
O6 Cu0 1.974 . S
O6 C16 1.282 . S
C7 O8 1.261 1_545 S
C7 O20 1.251 . S
O8 C7 1.261 1_565 S
H9 C3 0.930 1_565 S
H10 C5 0.930 . S
N11 Cu0 1.985 . S
N11 C13 1.335 . S
N11 C14 1.390 . S
N12 C13 1.345 . S
N12 C15 1.336 . S
C13 N11 1.335 . S
C13 N12 1.345 . S
C13 H18 0.930 . S
C14 N11 1.390 . S
C14 C15 1.346 . S
C14 H19 0.930 . S
C15 N12 1.336 . S
C15 C14 1.346 . S
C15 H22 0.929 . S
C16 O6 1.282 . S
C16 O17 1.216 1_545 S
O17 C16 1.216 1_565 S
H18 C13 0.930 . S
H19 C14 0.930 . S
O20 Cu0 1.959 . S
O20 C7 1.251 . S
H21 C4 0.930 . S
H22 C15 0.929 . S
Cu23 N24 1.999 . S
Cu23 O29 1.974 . S
Cu23 N34 1.985 . S
Cu23 O43 1.959 . S
N24 Cu23 1.999 . S
N24 C26 1.263 . S
N24 C28 1.389 . S
N25 C26 1.358 . S
N25 C27 1.400 . S
C26 N24 1.263 . S
C26 N25 1.358 . S
C26 H32 0.930 . S
C27 N25 1.400 . S
C27 C28 1.351 . S
C27 H44 0.930 . S
C28 N24 1.389 . S
C28 C27 1.351 . S
C28 H33 0.930 . S
O29 Cu23 1.974 . S
O29 C39 1.282 . S
C30 O31 1.261 . S
C30 O43 1.251 . S
O31 C30 1.261 . S
H32 C26 0.930 . S
H33 C28 0.930 . S
N34 Cu23 1.985 . S
N34 C36 1.335 . S
N34 C37 1.390 . S
N35 C36 1.345 . S
N35 C38 1.336 . S
C36 N34 1.335 . S
C36 N35 1.345 . S
C36 H41 0.930 . S
C37 N34 1.390 . S
C37 C38 1.346 . S
C37 H42 0.930 . S
C38 N35 1.336 . S
C38 C37 1.346 . S
C38 H45 0.929 . S
C39 O29 1.282 . S
C39 O40 1.216 . S
O40 C39 1.216 . S
H41 C36 0.930 . S
H42 C37 0.930 . S
O43 Cu23 1.959 . S
O43 C30 1.251 . S
H44 C27 0.930 . S
H45 C38 0.929 . S
Cu46 N47 1.999 . S
Cu46 O52 1.974 . S
Cu46 N57 1.985 . S
Cu46 O66 1.959 . S
N47 Cu46 1.999 . S
N47 C49 1.263 1_455 S
N47 C51 1.389 . S
N48 C49 1.358 . S
N48 C50 1.400 . S
C49 N47 1.263 1_655 S
C49 N48 1.358 . S
C49 H55 0.930 . S
C50 N48 1.400 . S
C50 C51 1.351 1_655 S
C50 H67 0.930 1_655 S
C51 N47 1.389 . S
C51 C50 1.351 1_455 S
C51 H56 0.930 . S
O52 Cu46 1.974 . S
O52 C62 1.282 1_455 S
C53 O54 1.261 . S
C53 O66 1.251 1_655 S
O54 C53 1.261 . S
H55 C49 0.930 . S
H56 C51 0.930 . S
N57 Cu46 1.985 . S
N57 C59 1.335 . S
N57 C60 1.390 . S
N58 C59 1.345 . S
N58 C61 1.336 . S
C59 N57 1.335 . S
C59 N58 1.345 . S
C59 H64 0.930 . S
C60 N57 1.390 . S
C60 C61 1.346 . S
C60 H65 0.930 . S
C61 N58 1.336 . S
C61 C60 1.346 . S
C61 H68 0.929 . S
C62 O52 1.282 1_655 S
C62 O63 1.216 . S
O63 C62 1.216 . S
H64 C59 0.930 . S
H65 C60 0.930 . S
O66 Cu46 1.959 . S
O66 C53 1.251 1_455 S
H67 C50 0.930 1_455 S
H68 C61 0.929 . S
Cu69 N70 1.999 1_554 S
Cu69 O75 1.974 . S
Cu69 N80 1.985 . S
Cu69 O89 1.959 . S
N70 Cu69 1.999 1_556 S
N70 C72 1.263 . S
N70 C74 1.389 . S
N71 C72 1.358 . S
N71 C73 1.400 . S
C72 N70 1.263 . S
C72 N71 1.358 . S
C72 H78 0.930 . S
C73 N71 1.400 . S
C73 C74 1.351 . S
C73 H90 0.930 . S
C74 N70 1.389 . S
C74 C73 1.351 . S
C74 H79 0.930 1_545 S
O75 Cu69 1.974 . S
O75 C85 1.282 . S
C76 O77 1.261 . S
C76 O89 1.251 . S
O77 C76 1.261 . S
H78 C72 0.930 . S
H79 C74 0.930 1_565 S
N80 Cu69 1.985 . S
N80 C82 1.326 1_545 S
N80 C83 1.397 . S
N81 C82 1.345 . S
N81 C84 1.336 . S
C82 N80 1.326 1_565 S
C82 N81 1.345 . S
C82 H87 0.930 . S
C83 N80 1.397 . S
C83 C84 1.346 1_545 S
C83 H88 0.930 . S
C84 N81 1.336 . S
C84 C83 1.346 1_565 S
C84 H91 0.929 1_565 S
C85 O75 1.282 . S
C85 O86 1.216 . S
O86 C85 1.216 . S
H87 C82 0.930 . S
H88 C83 0.930 . S
O89 Cu69 1.959 . S
O89 C76 1.251 . S
H90 C73 0.930 . S
H91 C84 0.929 1_545 S
Cu92 N93 1.999 . S
Cu92 O98 1.974 . S
Cu92 N103 1.985 . S
Cu92 O112 1.959 . S
N93 Cu92 1.999 . S
N93 C95 1.263 . S
N93 C97 1.389 . S
N94 C95 1.358 . S
N94 C96 1.400 . S
C95 N93 1.263 . S
C95 N94 1.358 . S
C95 H101 0.930 . S
C96 N94 1.400 . S
C96 C97 1.351 . S
C96 H113 0.930 . S
C97 N93 1.389 . S
C97 C96 1.351 . S
C97 H102 0.930 . S
O98 Cu92 1.974 . S
O98 C108 1.282 . S
C99 O100 1.261 . S
C99 O112 1.251 . S
O100 C99 1.261 . S
H101 C95 0.930 . S
H102 C97 0.930 . S
N103 Cu92 1.985 . S
N103 C105 1.335 . S
N103 C106 1.390 . S
N104 C105 1.345 . S
N104 C107 1.336 . S
C105 N103 1.335 . S
C105 N104 1.345 . S
C105 H110 0.930 . S
C106 N103 1.390 . S
C106 C107 1.346 . S
C106 H111 0.930 . S
C107 N104 1.336 . S
C107 C106 1.346 . S
C107 H114 0.929 . S
C108 O98 1.282 . S
C108 O109 1.216 . S
O109 C108 1.216 . S
H110 C105 0.930 . S
H111 C106 0.930 . S
O112 Cu92 1.959 . S
O112 C99 1.251 . S
H113 C96 0.930 . S
H114 C107 0.929 . S
Cu115 N116 1.999 . S
Cu115 O121 1.974 . S
Cu115 N126 1.985 . S
Cu115 O135 1.959 . S
N116 Cu115 1.999 . S
N116 C118 1.263 . S
N116 C120 1.389 . S
N117 C118 1.358 . S
N117 C119 1.400 . S
C118 N116 1.263 . S
C118 N117 1.358 . S
C118 H124 0.930 . S
C119 N117 1.400 . S
C119 C120 1.351 . S
C119 H136 0.930 . S
C120 N116 1.389 . S
C120 C119 1.351 . S
C120 H125 0.930 . S
O121 Cu115 1.974 . S
O121 C131 1.282 . S
C122 O123 1.261 . S
C122 O135 1.251 . S
O123 C122 1.261 . S
H124 C118 0.930 . S
H125 C120 0.930 . S
N126 Cu115 1.985 . S
N126 C128 1.335 . S
N126 C129 1.390 . S
N127 C128 1.345 . S
N127 C130 1.336 . S
C128 N126 1.335 . S
C128 N127 1.345 . S
C128 H133 0.930 . S
C129 N126 1.390 . S
C129 C130 1.346 . S
C129 H134 0.930 . S
C130 N127 1.336 . S
C130 C129 1.346 . S
C130 H137 0.929 . S
C131 O121 1.282 . S
C131 O132 1.216 . S
O132 C131 1.216 . S
H133 C128 0.930 . S
H134 C129 0.930 . S
O135 Cu115 1.959 . S
O135 C122 1.251 . S
H136 C119 0.930 . S
H137 C130 0.929 . S
C138 C139 1.386 . S
C138 C140 1.383 . S
C138 H154 0.951 . S
C139 C138 1.386 . S
C139 C143 1.383 . S
C140 C138 1.383 . S
C140 C141 1.402 . S
C140 H155 0.951 . S
C141 C140 1.402 . S
C141 C142 1.375 . S
C141 C144 1.481 . S
C142 C141 1.375 . S
C142 C143 1.367 . S
C142 H156 0.951 . S
C143 C139 1.383 . S
C143 C142 1.367 . S
C143 H157 0.950 . S
C144 C141 1.481 . S
C144 C145 1.297 . S
C144 H158 0.950 . S
C145 C144 1.297 . S
C145 C146 1.479 . S
C145 H159 0.950 . S
C146 C145 1.479 . S
C146 C147 1.375 . S
C146 C152 1.404 . S
C147 C146 1.375 . S
C147 C148 1.369 . S
C147 H160 0.950 . S
C148 C147 1.369 . S
C148 C149 1.392 . S
C148 H161 0.951 . S
C149 C148 1.392 . S
C149 C151 1.384 . S
H150 C152 0.949 . S
C151 C149 1.384 . S
C151 C152 1.385 . S
C151 H153 0.950 . S
C152 C146 1.404 . S
C152 H150 0.949 . S
C152 C151 1.385 . S
H153 C151 0.950 . S
H154 C138 0.951 . S
H155 C140 0.951 . S
H156 C142 0.951 . S
H157 C143 0.950 . S
H158 C144 0.950 . S
H159 C145 0.950 . S
H160 C147 0.950 . S
H161 C148 0.951 . S
C162 C163 1.386 . S
C162 C164 1.383 . S
C162 H178 0.951 . S
C163 C162 1.386 . S
C163 C167 1.383 . S
C164 C162 1.383 . S
C164 C165 1.402 . S
C164 H179 0.951 . S
C165 C164 1.402 . S
C165 C166 1.375 . S
C165 C168 1.481 . S
C166 C165 1.375 . S
C166 C167 1.367 . S
C166 H180 0.951 . S
C167 C163 1.383 . S
C167 C166 1.367 . S
C167 H181 0.950 . S
C168 C165 1.481 . S
C168 C169 1.297 . S
C168 H182 0.950 . S
C169 C168 1.297 . S
C169 C170 1.479 . S
C169 H183 0.950 . S
C170 C169 1.479 . S
C170 C171 1.375 . S
C170 C176 1.404 . S
C171 C170 1.375 . S
C171 C172 1.369 . S
C171 H184 0.950 . S
C172 C171 1.369 . S
C172 C173 1.392 . S
C172 H185 0.951 . S
C173 C172 1.392 . S
C173 C175 1.384 . S
H174 C176 0.949 . S
C175 C173 1.384 . S
C175 C176 1.385 . S
C175 H177 0.950 . S
C176 C170 1.404 . S
C176 H174 0.949 . S
C176 C175 1.385 . S
H177 C175 0.950 . S
H178 C162 0.951 . S
H179 C164 0.951 . S
H180 C166 0.951 . S
H181 C167 0.950 . S
H182 C168 0.950 . S
H183 C169 0.950 . S
H184 C171 0.950 . S
H185 C172 0.951 . S
C186 C187 1.386 . S
C186 C188 1.383 . S
C186 H202 0.951 . S
C187 C186 1.386 . S
C187 C191 1.383 . S
C188 C186 1.383 . S
C188 C189 1.402 . S
C188 H203 0.951 . S
C189 C188 1.402 . S
C189 C190 1.375 . S
C189 C192 1.481 . S
C190 C189 1.375 . S
C190 C191 1.367 . S
C190 H204 0.951 . S
C191 C187 1.383 . S
C191 C190 1.367 . S
C191 H205 0.950 . S
C192 C189 1.481 . S
C192 C193 1.297 . S
C192 H206 0.950 . S
C193 C192 1.297 . S
C193 C194 1.479 . S
C193 H207 0.950 . S
C194 C193 1.479 . S
C194 C195 1.375 . S
C194 C200 1.404 . S
C195 C194 1.375 . S
C195 C196 1.369 . S
C195 H208 0.950 . S
C196 C195 1.369 . S
C196 C197 1.392 . S
C196 H209 0.951 . S
C197 C196 1.392 . S
C197 C199 1.384 . S
H198 C200 0.949 . S
C199 C197 1.384 . S
C199 C200 1.385 . S
C199 H201 0.950 1_655 S
C200 C194 1.404 . S
C200 H198 0.949 . S
C200 C199 1.385 . S
H201 C199 0.950 1_455 S
H202 C186 0.951 . S
H203 C188 0.951 . S
H204 C190 0.951 . S
H205 C191 0.950 . S
H206 C192 0.950 . S
H207 C193 0.950 . S
H208 C195 0.950 . S
H209 C196 0.951 . S
C210 C211 1.386 . S
C210 C212 1.383 . S
C210 H226 0.951 . S
C211 C210 1.386 . S
C211 C215 1.383 . S
C212 C210 1.383 . S
C212 C213 1.402 . S
C212 H227 0.951 . S
C213 C212 1.402 . S
C213 C214 1.375 . S
C213 C216 1.481 . S
C214 C213 1.375 . S
C214 C215 1.367 . S
C214 H228 0.951 . S
C215 C211 1.383 . S
C215 C214 1.367 . S
C215 H229 0.950 1_565 S
C216 C213 1.481 . S
C216 C217 1.297 . S
C216 H230 0.950 . S
C217 C216 1.297 . S
C217 C218 1.479 . S
C217 H231 0.950 . S
C218 C217 1.479 . S
C218 C219 1.375 . S
C218 C224 1.404 . S
C219 C218 1.375 . S
C219 C220 1.369 . S
C219 H232 0.950 . S
C220 C219 1.369 . S
C220 C221 1.392 . S
C220 H233 0.951 . S
C221 C220 1.392 . S
C221 C223 1.384 . S
H222 C224 0.949 . S
C223 C221 1.384 . S
C223 C224 1.385 . S
C223 H225 0.950 . S
C224 C218 1.404 . S
C224 H222 0.949 . S
C224 C223 1.385 . S
H225 C223 0.950 . S
H226 C210 0.951 . S
H227 C212 0.951 . S
H228 C214 0.951 . S
H229 C215 0.950 1_545 S
H230 C216 0.950 . S
H231 C217 0.950 . S
H232 C219 0.950 . S
H233 C220 0.951 . S
C234 C235 1.386 . S
C234 C236 1.383 . S
C234 H250 0.951 . S
C235 C234 1.386 . S
C235 C239 1.383 . S
C236 C234 1.383 . S
C236 C237 1.402 . S
C236 H251 0.951 . S
C237 C236 1.402 . S
C237 C238 1.375 . S
C237 C240 1.481 . S
C238 C237 1.375 . S
C238 C239 1.367 . S
C238 H252 0.951 . S
C239 C235 1.383 . S
C239 C238 1.367 . S
C239 H253 0.950 . S
C240 C237 1.481 . S
C240 C241 1.297 . S
C240 H254 0.950 1_455 S
C241 C240 1.297 . S
C241 C242 1.479 1_455 S
C241 H255 0.950 . S
C242 C241 1.479 1_655 S
C242 C243 1.385 1_655 S
C242 C248 1.404 . S
C243 C242 1.385 1_455 S
C243 C244 1.354 1_455 S
C243 H256 0.955 . S
C244 C243 1.354 1_655 S
C244 C245 1.392 . S
C244 H257 0.951 . S
C245 C244 1.392 . S
C245 C247 1.384 . S
H246 C248 0.949 . S
C247 C245 1.384 . S
C247 C248 1.385 . S
C247 H249 0.950 . S
C248 C242 1.404 . S
C248 H246 0.949 . S
C248 C247 1.385 . S
H249 C247 0.950 . S
H250 C234 0.951 . S
H251 C236 0.951 . S
H252 C238 0.951 . S
H253 C239 0.950 . S
H254 C240 0.950 1_655 S
H255 C241 0.950 . S
H256 C243 0.955 . S
H257 C244 0.951 . S
C258 C259 1.386 . S
C258 C260 1.383 . S
C258 H274 0.951 1_565 S
C259 C258 1.386 . S
C259 C263 1.383 . S
C260 C258 1.383 . S
C260 C261 1.402 . S
C260 H275 0.951 . S
C261 C260 1.402 . S
C261 C262 1.375 . S
C261 C264 1.481 . S
C262 C261 1.375 . S
C262 C263 1.367 . S
C262 H276 0.951 . S
C263 C259 1.383 . S
C263 C262 1.367 . S
C263 H277 0.950 . S
C264 C261 1.481 . S
C264 C265 1.297 . S
C264 H278 0.950 . S
C265 C264 1.297 . S
C265 C266 1.479 . S
C265 H279 0.950 . S
C266 C265 1.479 . S
C266 C267 1.375 . S
C266 C272 1.404 . S
C267 C266 1.375 . S
C267 C268 1.369 . S
C267 H280 0.950 . S
C268 C267 1.369 . S
C268 C269 1.392 . S
C268 H281 0.951 . S
C269 C268 1.392 . S
C269 C271 1.384 . S
H270 C272 0.949 . S
C271 C269 1.384 . S
C271 C272 1.385 . S
C271 H273 0.950 . S
C272 C266 1.404 . S
C272 H270 0.949 . S
C272 C271 1.385 . S
H273 C271 0.950 . S
H274 C258 0.951 1_545 S
H275 C260 0.951 . S
H276 C262 0.951 . S
H277 C263 0.950 . S
H278 C264 0.950 . S
H279 C265 0.950 . S
H280 C267 0.950 . S
H281 C268 0.951 . S
C282 C283 1.386 1_565 S
C282 C284 1.383 . S
C282 H298 0.951 . S
C283 C282 1.386 1_545 S
C283 C287 1.383 . S
C284 C282 1.383 . S
C284 C285 1.402 1_565 S
C284 H299 0.951 . S
C285 C284 1.402 1_545 S
C285 C286 1.375 . S
C285 C288 1.481 . S
C286 C285 1.375 . S
C286 C287 1.367 . S
C286 H300 0.951 . S
C287 C283 1.383 . S
C287 C286 1.367 . S
C287 H301 0.950 . S
C288 C285 1.481 . S
C288 C289 1.297 . S
C288 H302 0.950 . S
C289 C288 1.297 . S
C289 C290 1.479 . S
C289 H303 0.950 1_545 S
C290 C289 1.479 . S
C290 C291 1.375 1_445 S
C290 C296 1.404 . S
C291 C290 1.375 1_665 S
C291 C292 1.369 . S
C291 H304 0.950 . S
C292 C291 1.369 . S
C292 C293 1.392 1_565 S
C292 H305 0.951 . S
C293 C292 1.392 1_545 S
C293 C295 1.384 . S
H294 C296 0.949 . S
C295 C293 1.384 . S
C295 C296 1.385 1_655 S
C295 H297 0.949 . S
C296 C290 1.404 . S
C296 H294 0.949 . S
C296 C295 1.385 1_455 S
H297 C295 0.949 . S
H298 C282 0.951 . S
H299 C284 0.951 . S
H300 C286 0.951 . S
H301 C287 0.950 . S
H302 C288 0.950 . S
H303 C289 0.950 1_565 S
H304 C291 0.950 . S
H305 C292 0.951 . S
C306 C307 1.386 . S
C306 C308 1.383 1_655 S
C306 H322 0.951 . S
C307 C306 1.386 . S
C307 C311 1.383 . S
C308 C306 1.383 1_455 S
C308 C309 1.402 . S
C308 H323 0.951 . S
C309 C308 1.402 . S
C309 C310 1.376 . S
C309 C312 1.481 1_565 S
C310 C309 1.376 . S
C310 C311 1.366 1_455 S
C310 H324 0.952 . S
C311 C307 1.383 . S
C311 C310 1.366 1_655 S
C311 H325 0.950 . S
C312 C309 1.481 1_545 S
C312 C313 1.297 . S
C312 H326 0.950 . S
C313 C312 1.297 . S
C313 C314 1.479 . S
C313 H327 0.950 . S
C314 C313 1.479 . S
C314 C315 1.375 . S
C314 C320 1.404 . S
C315 C314 1.375 . S
C315 C316 1.369 . S
C315 H328 0.950 . S
C316 C315 1.369 . S
C316 C317 1.392 . S
C316 H329 0.951 . S
C317 C316 1.392 . S
C317 C319 1.384 . S
H318 C320 0.949 . S
C319 C317 1.384 . S
C319 C320 1.385 . S
C319 H321 0.950 . S
C320 C314 1.404 . S
C320 H318 0.949 . S
C320 C319 1.385 . S
H321 C319 0.950 . S
H322 C306 0.951 . S
H323 C308 0.951 . S
H324 C310 0.952 . S
H325 C311 0.950 . S
H326 C312 0.950 . S
H327 C313 0.950 . S
H328 C315 0.950 . S
H329 C316 0.951 . S
C330 C331 1.386 . S
C330 C332 1.383 . S
C330 H346 0.951 1_455 S
C331 C330 1.386 . S
C331 C335 1.383 . S
C332 C330 1.383 . S
C332 C333 1.402 . S
C332 H347 0.951 . S
C333 C332 1.402 . S
C333 C334 1.375 . S
C333 C336 1.481 . S
C334 C333 1.375 . S
C334 C335 1.367 . S
C334 H348 0.951 . S
C335 C331 1.383 . S
C335 C334 1.367 . S
C335 H349 0.950 . S
C336 C333 1.481 . S
C336 C337 1.297 . S
C336 H350 0.950 . S
C337 C336 1.297 . S
C337 C338 1.479 . S
C337 H351 0.950 . S
C338 C337 1.479 . S
C338 C339 1.375 1_545 S
C338 C344 1.404 . S
C339 C338 1.375 1_565 S
C339 C340 1.369 . S
C339 H352 0.950 . S
C340 C339 1.369 . S
C340 C341 1.392 . S
C340 H353 0.951 . S
C341 C340 1.392 . S
C341 C343 1.384 1_565 S
H342 C344 0.949 . S
C343 C341 1.384 1_545 S
C343 C344 1.385 . S
C343 H345 0.950 . S
C344 C338 1.404 . S
C344 H342 0.949 . S
C344 C343 1.385 . S
H345 C343 0.950 . S
H346 C330 0.951 1_655 S
H347 C332 0.951 . S
H348 C334 0.951 . S
H349 C335 0.950 . S
H350 C336 0.950 . S
H351 C337 0.950 . S
H352 C339 0.950 . S
H353 C340 0.951 . S
C354 C355 1.386 . S
C354 C356 1.383 . S
C354 H370 0.951 1_545 S
C355 C354 1.386 . S
C355 C359 1.383 . S
C356 C354 1.383 . S
C356 C357 1.402 . S
C356 H371 0.951 1_545 S
C357 C356 1.402 . S
C357 C358 1.375 . S
C357 C360 1.481 . S
C358 C357 1.375 . S
C358 C359 1.367 . S
C358 H372 0.951 . S
C359 C355 1.383 . S
C359 C358 1.367 . S
C359 H373 0.950 . S
C360 C357 1.481 . S
C360 C361 1.297 . S
C360 H374 0.950 . S
C361 C360 1.297 . S
C361 C362 1.479 . S
C361 H375 0.950 1_545 S
C362 C361 1.479 . S
C362 C363 1.375 1_545 S
C362 C368 1.404 . S
C363 C362 1.375 1_565 S
C363 C364 1.369 . S
C363 H376 0.950 . S
C364 C363 1.369 . S
C364 C365 1.392 1_565 S
C364 H377 0.951 . S
C365 C364 1.392 1_545 S
C365 C367 1.384 . S
H366 C368 0.949 . S
C367 C365 1.384 . S
C367 C368 1.385 . S
C367 H369 0.950 . S
C368 C362 1.404 . S
C368 H366 0.949 . S
C368 C367 1.385 . S
H369 C367 0.950 . S
H370 C354 0.951 1_565 S
H371 C356 0.951 1_565 S
H372 C358 0.951 . S
H373 C359 0.950 . S
H374 C360 0.950 . S
H375 C361 0.950 1_565 S
H376 C363 0.950 . S
H377 C364 0.951 . S
C378 C379 1.386 . S
C378 C380 1.383 . S
C378 H394 0.951 . S
C379 C378 1.386 . S
C379 C383 1.383 . S
C380 C378 1.383 . S
C380 C381 1.402 . S
C380 H395 0.951 . S
C381 C380 1.402 . S
C381 C382 1.375 . S
C381 C384 1.481 . S
C382 C381 1.375 . S
C382 C383 1.367 . S
C382 H396 0.951 . S
C383 C379 1.383 . S
C383 C382 1.367 . S
C383 H397 0.950 . S
C384 C381 1.481 . S
C384 C385 1.297 . S
C384 H398 0.950 . S
C385 C384 1.297 . S
C385 C386 1.479 . S
C385 H399 0.950 . S
C386 C385 1.479 . S
C386 C387 1.375 . S
C386 C392 1.404 . S
C387 C386 1.375 . S
C387 C388 1.369 . S
C387 H400 0.950 . S
C388 C387 1.369 . S
C388 C389 1.392 . S
C388 H401 0.951 . S
C389 C388 1.392 . S
C389 C391 1.384 . S
H390 C392 0.949 . S
C391 C389 1.384 . S
C391 C392 1.385 . S
C391 H393 0.950 . S
C392 C386 1.404 . S
C392 H390 0.949 . S
C392 C391 1.385 . S
H393 C391 0.950 . S
H394 C378 0.951 . S
H395 C380 0.951 . S
H396 C382 0.951 . S
H397 C383 0.950 . S
H398 C384 0.950 . S
H399 C385 0.950 . S
H400 C387 0.950 . S
H401 C388 0.951 . S
C402 C403 1.386 . S
C402 C404 1.383 . S
C402 H418 0.951 . S
C403 C402 1.386 . S
C403 C407 1.383 . S
C404 C402 1.383 . S
C404 C405 1.402 . S
C404 H419 0.951 . S
C405 C404 1.402 . S
C405 C406 1.375 . S
C405 C408 1.481 . S
C406 C405 1.375 . S
C406 C407 1.367 . S
C406 H420 0.951 . S
C407 C403 1.383 . S
C407 C406 1.367 . S
C407 H421 0.950 . S
C408 C405 1.481 . S
C408 C409 1.297 . S
C408 H422 0.950 . S
C409 C408 1.297 . S
C409 C410 1.479 . S
C409 H423 0.950 . S
C410 C409 1.479 . S
C410 C411 1.375 . S
C410 C416 1.404 . S
C411 C410 1.375 . S
C411 C412 1.369 1_455 S
C411 H424 0.949 . S
C412 C411 1.369 1_655 S
C412 C413 1.392 1_655 S
C412 H425 0.951 . S
C413 C412 1.392 1_455 S
C413 C415 1.384 . S
H414 C416 0.949 . S
C415 C413 1.384 . S
C415 C416 1.385 . S
C415 H417 0.950 . S
C416 C410 1.404 . S
C416 H414 0.949 . S
C416 C415 1.385 . S
H417 C415 0.950 . S
H418 C402 0.951 . S
H419 C404 0.951 . S
H420 C406 0.951 . S
H421 C407 0.950 . S
H422 C408 0.950 . S
H423 C409 0.950 . S
H424 C411 0.949 . S
H425 C412 0.951 . S
C139 N12 1.707 . S
C149 N25 1.638 . S
C163 N35 1.691 . S
C173 N58 1.666 . S
C187 N71 1.710 . S
C197 N48 1.716 . S
C211 N81 1.720 . S
C221 N94 1.559 . S
C235 N127 1.660 . S
C245 N104 1.693 . S
C259 N2 1.736 1_565 S
C269 N117 1.741 . S
C283 C7 1.770 . S
C293 C76 1.762 . S
C307 C99 0.186 . S
C317 C30 0.303 . S
C331 C53 1.454 1_455 S
C341 C122 1.513 . S
C355 C85 1.803 . S
C365 C16 1.783 . S
C379 C108 1.207 . S
C389 C39 1.197 . S
C403 C131 2.021 . S
C413 C62 2.040 1_455 S
