# Generated by pormake.
# Topology smc, (6)-cn, num edge types: 1
# Building blocks:
#     Node 0, Type 0, BuildingBlock: UKALOJ_clean_sbu_0, # of connection points: 6
#     Node 1, Type 0, BuildingBlock: UKALOJ_clean_sbu_0, # of connection points: 6
#     Node 2, Type 0, BuildingBlock: UKALOJ_clean_sbu_0, # of connection points: 6
#     Node 3, Type 0, BuildingBlock: UKALOJ_clean_sbu_0, # of connection points: 6
#     Node 4, Type 0, BuildingBlock: UKALOJ_clean_sbu_0, # of connection points: 6
#     Node 5, Type 0, BuildingBlock: UKALOJ_clean_sbu_0, # of connection points: 6
#     Node 6, Type 0, BuildingBlock: UKALOJ_clean_sbu_0, # of connection points: 6
#     Node 7, Type 0, BuildingBlock: UKALOJ_clean_sbu_0, # of connection points: 6
#     Node 8, Type 0, BuildingBlock: UKALOJ_clean_sbu_0, # of connection points: 6
#     Edge 9, Type (0, 0), BuildingBlock: TEMPAE_clean_linker_10, # of connection points: 2
#     Edge 10, Type (0, 0), BuildingBlock: TEMPAE_clean_linker_10, # of connection points: 2
#     Edge 11, Type (0, 0), BuildingBlock: TEMPAE_clean_linker_10, # of connection points: 2
#     Edge 12, Type (0, 0), BuildingBlock: TEMPAE_clean_linker_10, # of connection points: 2
#     Edge 13, Type (0, 0), BuildingBlock: TEMPAE_clean_linker_10, # of connection points: 2
#     Edge 14, Type (0, 0), BuildingBlock: TEMPAE_clean_linker_10, # of connection points: 2
#     Edge 15, Type (0, 0), BuildingBlock: TEMPAE_clean_linker_10, # of connection points: 2
#     Edge 16, Type (0, 0), BuildingBlock: TEMPAE_clean_linker_10, # of connection points: 2
#     Edge 17, Type (0, 0), BuildingBlock: TEMPAE_clean_linker_10, # of connection points: 2
#     Edge 18, Type (0, 0), BuildingBlock: TEMPAE_clean_linker_10, # of connection points: 2
#     Edge 19, Type (0, 0), BuildingBlock: TEMPAE_clean_linker_10, # of connection points: 2
#     Edge 20, Type (0, 0), BuildingBlock: TEMPAE_clean_linker_10, # of connection points: 2
#     Edge 21, Type (0, 0), BuildingBlock: TEMPAE_clean_linker_10, # of connection points: 2
#     Edge 22, Type (0, 0), BuildingBlock: TEMPAE_clean_linker_10, # of connection points: 2
#     Edge 23, Type (0, 0), BuildingBlock: TEMPAE_clean_linker_10, # of connection points: 2
#     Edge 24, Type (0, 0), BuildingBlock: TEMPAE_clean_linker_10, # of connection points: 2
#     Edge 25, Type (0, 0), BuildingBlock: TEMPAE_clean_linker_10, # of connection points: 2
#     Edge 26, Type (0, 0), BuildingBlock: TEMPAE_clean_linker_10, # of connection points: 2
#     Edge 27, Type (0, 0), BuildingBlock: TEMPAE_clean_linker_10, # of connection points: 2
#     Edge 28, Type (0, 0), BuildingBlock: TEMPAE_clean_linker_10, # of connection points: 2
#     Edge 29, Type (0, 0), BuildingBlock: TEMPAE_clean_linker_10, # of connection points: 2
#     Edge 30, Type (0, 0), BuildingBlock: TEMPAE_clean_linker_10, # of connection points: 2
#     Edge 31, Type (0, 0), BuildingBlock: TEMPAE_clean_linker_10, # of connection points: 2
#     Edge 32, Type (0, 0), BuildingBlock: TEMPAE_clean_linker_10, # of connection points: 2
#     Edge 33, Type (0, 0), BuildingBlock: TEMPAE_clean_linker_10, # of connection points: 2
#     Edge 34, Type (0, 0), BuildingBlock: TEMPAE_clean_linker_10, # of connection points: 2
#     Edge 35, Type (0, 0), BuildingBlock: TEMPAE_clean_linker_10, # of connection points: 2
# Relax obj value: 0.107
# Max RMSD: 0.212
# Mean RMSD: 0.212
data_MOF--net-smc--node1-UKALOJ_clean_sbu_0--edge1-TEMPAE_clean_linker_10
_symmetry_space_group_name_H-M    P1
_symmetry_Int_Tables_number       1
_symmetry_cell_setting            triclinic
loop_
_symmetry_equiv_pos_as_xyz
'x, y, z'
_cell_length_a     28.245582
_cell_length_b     28.245352
_cell_length_c     60.55731
_cell_angle_alpha  89.948321
_cell_angle_beta   90.07131
_cell_angle_gamma 119.9383
loop_
_atom_site_label
_atom_site_type_symbol
_atom_site_fract_x
_atom_site_fract_y
_atom_site_fract_z
_atom_type_partial_charge
Zn0 Zn 0.02384 0.42994 0.05759 0.0
O1 O 0.08787 0.51059 0.0558 0.0
C2 C 0.10145 0.39614 0.04408 0.0
Zn3 Zn 0.01941 0.41742 0.02085 0.0
C4 C 0.09936 0.53131 0.03656 0.0
O5 O 0.07707 0.50167 0.01966 0.0
C6 C 0.93836 0.31819 0.04208 0.0
O7 O 0.95801 0.43835 0.01704 0.0
O8 O 0.96957 0.45969 0.05239 0.0
N9 N 0.02613 0.41217 0.98699 0.0
C10 C 0.99021 0.39111 0.97004 0.0
C11 C 0.06987 0.4216 0.9566 0.0
N12 N 0.07549 0.43122 0.97847 0.0
N13 N 0.01676 0.39654 0.95071 0.0
C14 C 0.04769 0.43874 0.10899 0.0
C15 C 0.97269 0.42706 0.12204 0.0
N16 N 0.01597 0.43482 0.09157 0.0
N17 N 0.96952 0.42794 0.09983 0.0
N18 N 0.02133 0.43345 0.12827 0.0
H19 H 0.12497 0.47524 0.09233 0.0
H20 H 0.12903 0.47208 0.12209 0.0
H21 H 0.1046 0.41079 0.106 0.0
C22 C 0.10517 0.45022 0.10721 0.0
C23 C 0.92941 0.36327 0.97267 0.0
H24 H 0.91704 0.34973 0.98989 0.0
H25 H 0.91542 0.39252 0.96841 0.0
H26 H 0.90905 0.32769 0.96137 0.0
O27 O 0.95991 0.33445 0.02316 0.0
O28 O 0.95821 0.34983 0.0586 0.0
C29 C 0.94779 0.45853 0.03388 0.0
O30 O 0.08001 0.40275 0.0614 0.0
O31 O 0.0831 0.39915 0.02526 0.0
Zn32 Zn 0.61311 0.60681 0.05499 0.0
O33 O 0.53053 0.58221 0.0576 0.0
C34 C 0.63684 0.7141 0.03699 0.0
Zn35 Zn 0.60793 0.6066 0.01792 0.0
C36 C 0.5025 0.57537 0.04027 0.0
O37 O 0.52511 0.58566 0.02139 0.0
C38 C 0.7168 0.63018 0.03341 0.0
O39 O 0.58118 0.52344 0.01733 0.0
O40 O 0.58967 0.52282 0.05349 0.0
N41 N 0.60063 0.60767 0.98396 0.0
C42 C 0.62558 0.59792 0.96697 0.0
C43 C 0.57009 0.62013 0.95307 0.0
N44 N 0.56608 0.62128 0.9752 0.0
N45 N 0.60727 0.60572 0.94739 0.0
C46 C 0.61633 0.63539 0.10561 0.0
C47 C 0.63628 0.57893 0.12023 0.0
N48 N 0.62015 0.60544 0.08903 0.0
N49 N 0.63239 0.57033 0.09825 0.0
N50 N 0.62659 0.61973 0.12532 0.0
H51 H 0.57063 0.66663 0.08864 0.0
H52 H 0.58013 0.68174 0.11789 0.0
H53 H 0.63639 0.71753 0.09915 0.0
C54 C 0.59956 0.67759 0.10266 0.0
C55 C 0.66528 0.57779 0.96957 0.0
H56 H 0.66418 0.55358 0.95495 0.0
H57 H 0.70709 0.61338 0.97114 0.0
H58 H 0.65594 0.5523 0.98463 0.0
O59 O 0.69028 0.62507 0.01573 0.0
O60 O 0.69481 0.62802 0.05194 0.0
C61 C 0.57625 0.49765 0.03513 0.0
O62 O 0.63381 0.69011 0.05517 0.0
O63 O 0.63143 0.68909 0.01893 0.0
Zn64 Zn 0.43502 0.02165 0.0155 0.0
O65 O 0.51533 0.08622 0.0173 0.0
C66 C 0.40011 0.09708 0.0306 0.0
Zn67 Zn 0.4226 0.01426 0.05229 0.0
C68 C 0.53628 0.09612 0.03649 0.0
O69 O 0.5069 0.07222 0.05325 0.0
C70 C 0.32376 0.93394 0.03092 0.0
O71 O 0.44418 0.95296 0.05479 0.0
O72 O 0.46598 0.96815 0.01954 0.0
N73 N 0.41933 0.01907 0.08648 0.0
C74 C 0.38725 0.98487 0.1026 0.0
C75 C 0.44584 0.05869 0.11823 0.0
N76 N 0.45559 0.06478 0.09636 0.0
N77 N 0.40305 0.00893 0.1227 0.0
C78 C 0.4473 0.05005 0.96431 0.0
C79 C 0.43262 0.97463 0.9505 0.0
N80 N 0.4396 0.01602 0.98138 0.0
N81 N 0.43074 0.96931 0.97265 0.0
N82 N 0.44269 0.0249 0.94471 0.0
H83 H 0.48366 0.12513 0.98277 0.0
H84 H 0.48828 0.13344 0.95303 0.0
H85 H 0.42406 0.11079 0.96673 0.0
C86 C 0.46207 0.10845 0.9669 0.0
C87 C 0.34296 0.92719 0.09871 0.0
H88 H 0.35428 0.90895 0.08492 0.0
H89 H 0.33521 0.90202 0.11379 0.0
H90 H 0.30482 0.92702 0.09415 0.0
O91 O 0.33985 0.95445 0.05002 0.0
O92 O 0.3552 0.95516 0.01443 0.0
C93 C 0.46508 0.9449 0.03764 0.0
O94 O 0.40673 0.07703 0.01286 0.0
O95 O 0.40371 0.07771 0.04911 0.0
Zn96 Zn 0.67248 0.75756 0.38666 0.0
O97 O 0.72689 0.84112 0.39001 0.0
C98 C 0.76255 0.73652 0.37409 0.0
Zn99 Zn 0.68957 0.76548 0.35019 0.0
C100 C 0.75483 0.86999 0.37379 0.0
O101 O 0.75089 0.84805 0.35503 0.0
C102 C 0.60068 0.65446 0.36339 0.0
O103 O 0.63386 0.79307 0.34632 0.0
O104 O 0.61017 0.77727 0.38139 0.0
N105 N 0.70589 0.77328 0.31652 0.0
C106 C 0.67447 0.75015 0.29846 0.0
C107 C 0.75657 0.79827 0.28733 0.0
N108 N 0.75678 0.80347 0.30946 0.0
N109 N 0.70539 0.76516 0.27991 0.0
C110 C 0.68919 0.75933 0.43817 0.0
C111 C 0.60792 0.72668 0.45009 0.0
N112 N 0.65675 0.74983 0.42035 0.0
N113 N 0.6063 0.72976 0.42789 0.0
N114 N 0.6595 0.74471 0.457 0.0
H115 H 0.76658 0.81172 0.42244 0.0
H116 H 0.76897 0.81004 0.45228 0.0
H117 H 0.76086 0.75268 0.43644 0.0
C118 C 0.75004 0.78534 0.43722 0.0
C119 C 0.61496 0.70848 0.2995 0.0
H120 H 0.59533 0.71764 0.3134 0.0
H121 H 0.59316 0.70654 0.28407 0.0
H122 H 0.61093 0.66777 0.30213 0.0
O123 O 0.62581 0.68332 0.34663 0.0
O124 O 0.61549 0.6745 0.3826 0.0
C125 C 0.60569 0.79413 0.36244 0.0
O126 O 0.73721 0.74066 0.39068 0.0
O127 O 0.74767 0.74079 0.35474 0.0
Zn128 Zn 0.26848 0.94526 0.34941 0.0
O129 O 0.24182 0.86193 0.346 0.0
C130 C 0.38004 0.96953 0.36251 0.0
Zn131 Zn 0.2771 0.93786 0.38611 0.0
C132 C 0.24103 0.83369 0.36248 0.0
O133 O 0.25756 0.85598 0.38128 0.0
C134 C 0.29715 0.0479 0.37296 0.0
O135 O 0.19319 0.90873 0.3895 0.0
O136 O 0.18587 0.92325 0.35417 0.0
N137 N 0.28579 0.93066 0.41995 0.0
C138 C 0.27721 0.95403 0.43784 0.0
C139 C 0.30948 0.90481 0.44957 0.0
N140 N 0.30569 0.89997 0.42739 0.0
N141 N 0.29221 0.93888 0.45661 0.0
C142 C 0.27859 0.93835 0.29743 0.0
C143 C 0.24572 0.98762 0.28643 0.0
N144 N 0.26161 0.9537 0.31558 0.0
N145 N 0.24085 0.98391 0.30857 0.0
N146 N 0.26931 0.95945 0.27883 0.0
H147 H 0.31748 0.90024 0.31512 0.0
H148 H 0.27763 0.8632 0.29184 0.0
H149 H 0.343 0.92336 0.28742 0.0
C150 C 0.30619 0.90478 0.29811 0.0
C151 C 0.25156 0.98925 0.43704 0.0
H152 H 0.22523 0.97989 0.42225 0.0
H153 H 0.22689 0.98334 0.45212 0.0
H154 H 0.2844 0.0326 0.4364 0.0
O155 O 0.29396 0.01931 0.38975 0.0
O156 O 0.29206 0.02785 0.35375 0.0
C157 C 0.16414 0.90659 0.37306 0.0
O158 O 0.35069 0.96513 0.34584 0.0
O159 O 0.36022 0.96398 0.38178 0.0
Zn160 Zn 0.0963 0.36028 0.39014 0.0
O161 O 0.12487 0.30474 0.39188 0.0
C162 C 0.9849 0.27127 0.37758 0.0
Zn163 Zn 0.08611 0.34528 0.35353 0.0
C164 C 0.12557 0.27821 0.37507 0.0
O165 O 0.10765 0.284 0.35657 0.0
C166 C 0.06383 0.43299 0.36844 0.0
O167 O 0.16934 0.40146 0.34946 0.0
O168 O 0.17818 0.42237 0.38485 0.0
N169 N 0.07528 0.33236 0.31978 0.0
C170 C 0.0897 0.36624 0.30214 0.0
C171 C 0.03808 0.28536 0.29032 0.0
N172 N 0.04359 0.28216 0.31227 0.0
N173 N 0.06653 0.33766 0.28339 0.0
C174 C 0.08331 0.3405 0.4416 0.0
C175 C 0.13527 0.4205 0.45418 0.0
N176 N 0.10616 0.37371 0.424 0.0
N177 N 0.13864 0.42336 0.43194 0.0
N178 N 0.10057 0.36891 0.46071 0.0
H179 H 0.05511 0.26347 0.42511 0.0
H180 H 0.05113 0.25949 0.45494 0.0
H181 H 0.0035 0.27125 0.43957 0.0
C182 C 0.04636 0.28003 0.44016 0.0
C183 C 0.12431 0.4272 0.30349 0.0
H184 H 0.13052 0.44184 0.32072 0.0
H185 H 0.1652 0.43992 0.29651 0.0
H186 H 0.10558 0.44691 0.29373 0.0
O187 O 0.06656 0.40796 0.3515 0.0
O188 O 0.07075 0.41839 0.38747 0.0
C189 C 0.19901 0.42832 0.36573 0.0
O190 O 0.0146 0.29582 0.39423 0.0
O191 O 0.00386 0.28686 0.35829 0.0
Zn192 Zn 0.33438 0.08842 0.68279 0.0
O193 O 0.27148 0.10741 0.68677 0.0
C194 C 0.25946 0.98533 0.70352 0.0
Zn195 Zn 0.35012 0.09434 0.71922 0.0
C196 C 0.26787 0.12586 0.70542 0.0
O197 O 0.2962 0.12523 0.72158 0.0
C198 C 0.42301 0.06552 0.69632 0.0
O199 O 0.41407 0.17552 0.71732 0.0
O200 O 0.39039 0.17302 0.68239 0.0
N201 N 0.35375 0.09384 0.75346 0.0
C202 C 0.38976 0.09588 0.76875 0.0
C203 C 0.31792 0.08121 0.78598 0.0
N204 N 0.30946 0.08509 0.76435 0.0
N205 N 0.36803 0.0879 0.7893 0.0
C206 C 0.32846 0.05753 0.63231 0.0
C207 C 0.30208 0.10916 0.61779 0.0
N208 N 0.32482 0.08794 0.64877 0.0
N209 N 0.30855 0.12001 0.63961 0.0
N210 N 0.31443 0.07016 0.61269 0.0
H211 H 0.32165 0.98047 0.62334 0.0
H212 H 0.38733 0.03128 0.63377 0.0
H213 H 0.33117 0.99602 0.65255 0.0
C214 C 0.34256 0.01347 0.63572 0.0
C215 C 0.44369 0.10083 0.76323 0.0
H216 H 0.46257 0.12898 0.74904 0.0
H217 H 0.47196 0.11561 0.77752 0.0
H218 H 0.43694 0.05999 0.75849 0.0
O219 O 0.40603 0.06653 0.71567 0.0
O220 O 0.39965 0.07267 0.67969 0.0
C221 C 0.41849 0.19971 0.69906 0.0
O222 O 0.27625 0.00509 0.6844 0.0
O223 O 0.28367 0.01381 0.72045 0.0
Zn224 Zn 0.93988 0.27643 0.68634 0.0
O225 O 0.92246 0.19524 0.68467 0.0
C226 C 0.04108 0.30188 0.70811 0.0
Zn227 Zn 0.92896 0.2767 0.72296 0.0
C228 C 0.90187 0.16816 0.70227 0.0
O229 O 0.90021 0.19223 0.71974 0.0
C230 C 0.95854 0.38293 0.7061 0.0
O231 O 0.84719 0.25834 0.72046 0.0
O232 O 0.85489 0.24642 0.68496 0.0
N233 N 0.92348 0.26808 0.75712 0.0
C234 C 0.9213 0.29822 0.77404 0.0
C235 C 0.92462 0.23087 0.78817 0.0
N236 N 0.92533 0.22623 0.76606 0.0
N237 N 0.92233 0.27585 0.79373 0.0
C238 C 0.97215 0.27838 0.63563 0.0
C239 C 0.92722 0.31334 0.62176 0.0
N240 N 0.94377 0.2847 0.65228 0.0
N241 N 0.91567 0.30596 0.64344 0.0
N242 N 0.96271 0.29656 0.61627 0.0
H243 H 0.01671 0.25105 0.65618 0.0
H244 H 0.99301 0.21616 0.63051 0.0
H245 H 0.05029 0.28449 0.63058 0.0
C246 C 0.01053 0.25668 0.63857 0.0
C247 C 0.91488 0.34737 0.77121 0.0
H248 H 0.88877 0.34206 0.75665 0.0
H249 H 0.89629 0.35431 0.7861 0.0
H250 H 0.95567 0.38381 0.7685 0.0
O251 O 0.955 0.36034 0.72464 0.0
O252 O 0.95444 0.35682 0.68847 0.0
C253 C 0.82558 0.243 0.70147 0.0
O254 O 0.02357 0.30366 0.68896 0.0
O255 O 0.01008 0.29226 0.72473 0.0
Zn256 Zn 0.74413 0.6789 0.72016 0.0
O257 O 0.76169 0.61524 0.72095 0.0
C258 C 0.64057 0.60229 0.70053 0.0
Zn259 Zn 0.75073 0.68816 0.68339 0.0
C260 C 0.77994 0.60739 0.70299 0.0
O261 O 0.77987 0.6323 0.6855 0.0
C262 C 0.72298 0.76569 0.70144 0.0
O263 O 0.83249 0.7514 0.68407 0.0
O264 O 0.8291 0.73386 0.71969 0.0
N265 N 0.75101 0.68359 0.64907 0.0
C266 C 0.74828 0.71383 0.63226 0.0
C267 C 0.74274 0.64223 0.61806 0.0
N268 N 0.74791 0.63942 0.64006 0.0
N269 N 0.74299 0.68858 0.61264 0.0
C270 C 0.72084 0.64911 0.77123 0.0
C271 C 0.76521 0.72924 0.78481 0.0
N272 N 0.74519 0.68413 0.75422 0.0
N273 N 0.77299 0.73368 0.76284 0.0
N274 N 0.73259 0.67663 0.79066 0.0
H275 H 0.67387 0.57702 0.75114 0.0
H276 H 0.70531 0.56737 0.77498 0.0
H277 H 0.64622 0.57486 0.77842 0.0
C278 C 0.68411 0.58871 0.76864 0.0
C279 C 0.74557 0.76502 0.63536 0.0
H280 H 0.77673 0.79188 0.64758 0.0
H281 H 0.75201 0.78779 0.61974 0.0
H282 H 0.70451 0.75395 0.64171 0.0
O283 O 0.72461 0.74571 0.68287 0.0
O284 O 0.72916 0.74467 0.71897 0.0
C285 C 0.85633 0.75877 0.70261 0.0
O286 O 0.6602 0.62226 0.71937 0.0
O287 O 0.66967 0.62303 0.68338 0.0
C288 C 0.41017 0.56319 0.03365 0.0
C289 C 0.44307 0.54317 0.04171 0.0
C290 C 0.35309 0.53071 0.0345 0.0
C291 C 0.32915 0.47633 0.04255 0.0
C292 C 0.36268 0.45557 0.04998 0.0
C293 C 0.41939 0.48985 0.04996 0.0
C294 C 0.31847 0.55486 0.02719 0.0
C295 C 0.33877 0.39724 0.05777 0.0
C296 C 0.1867 0.42098 0.06469 0.0
C297 C 0.15537 0.39969 0.0455 0.0
C298 C 0.24342 0.44391 0.06429 0.0
C299 C 0.26902 0.44271 0.04444 0.0
C300 C 0.23694 0.41448 0.02584 0.0
C301 C 0.18032 0.39401 0.02645 0.0
C302 C 0.2761 0.47452 0.08441 0.0
C303 C 0.26275 0.40967 1.00479 0.0
H304 H 0.42908 0.60444 0.02715 0.0
H305 H 0.44548 0.47451 0.05588 0.0
H306 H 0.29221 0.53121 0.01309 0.0
H307 H 0.29105 0.55226 0.04083 0.0
H308 H 0.34357 0.59829 0.0221 0.0
H309 H 0.37083 0.38683 0.06192 0.0
H310 H 0.31306 0.39016 0.07259 0.0
H311 H 0.31192 0.36883 0.04476 0.0
H312 H 0.16792 0.42474 0.07955 0.0
H313 H 0.15628 0.37677 1.01161 0.0
H314 H 0.29872 0.51897 0.08077 0.0
H315 H 0.30675 0.46239 0.08864 0.0
H316 H 0.24977 0.46754 0.09906 0.0
H317 H 0.28179 0.44927 0.99588 0.0
H318 H 0.23216 0.37775 0.99368 0.0
H319 H 0.29542 0.39987 1.00844 0.0
C320 C 0.55164 0.94503 0.03262 0.0
C321 C 0.49697 0.9172 0.0394 0.0
C322 C 0.58389 0.92035 0.03396 0.0
C323 C 0.55992 0.86566 0.0413 0.0
C324 C 0.50468 0.83758 0.04845 0.0
C325 C 0.47406 0.8643 0.04786 0.0
C326 C 0.64318 0.95237 0.02716 0.0
C327 C 0.47726 0.77862 0.05574 0.0
C328 C 0.60982 0.77467 0.01796 0.0
C329 C 0.63175 0.76365 0.03679 0.0
C330 C 0.58816 0.80957 0.01904 0.0
C331 C 0.59042 0.83579 0.03921 0.0
C332 C 0.61786 0.82961 0.0576 0.0
C333 C 0.63768 0.79292 0.05626 0.0
C334 C 0.55868 0.81455 0.99909 0.0
C335 C 0.62322 0.85893 0.07908 0.0
H336 H 0.56928 0.9864 0.02636 0.0
H337 H 0.43174 0.84324 0.05315 0.0
H338 H 0.66949 0.95208 0.04072 0.0
H339 H 0.65038 0.93302 0.0126 0.0
H340 H 0.65613 0.99546 0.02296 0.0
H341 H 0.43447 0.76315 0.06121 0.0
H342 H 0.47699 0.75275 0.04189 0.0
H343 H 0.50043 0.77381 0.06951 0.0
H344 H 0.60517 0.75241 1.00279 0.0
H345 H 0.65532 0.78521 0.07075 0.0
H346 H 0.57462 0.85809 0.99483 0.0
H347 H 0.51458 0.79656 1.00293 0.0
H348 H 0.56275 0.79338 0.98438 0.0
H349 H 0.63476 0.90212 0.07602 0.0
H350 H 0.65409 0.85794 0.09016 0.0
H351 H 0.58333 0.83907 0.08775 0.0
C352 C 0.23935 0.85426 0.04612 0.0
C353 C 0.27619 0.87862 0.02865 0.0
C354 C 0.20374 0.79758 0.04656 0.0
C355 C 0.20672 0.76489 0.02951 0.0
C356 C 0.24089 0.78974 1.01107 0.0
C357 C 0.27436 0.84648 1.01065 0.0
C358 C 0.16569 0.77245 0.06595 0.0
C359 C 0.24615 0.75624 0.99279 0.0
C360 C 0.17828 0.62309 0.04497 0.0
C361 C 0.12875 0.59067 0.03411 0.0
C362 C 0.20438 0.68018 0.04348 0.0
C363 C 0.17856 0.70478 0.03185 0.0
C364 C 0.12756 0.67187 0.02147 0.0
C365 C 0.10396 0.61505 0.02223 0.0
C366 C 0.25983 0.7141 0.05406 0.0
C367 C 0.09774 0.69659 1.00979 0.0
H368 H 0.24027 0.87903 0.05996 0.0
H369 H 0.3027 0.86495 0.99705 0.0
H370 H 0.12474 0.74019 0.06031 0.0
H371 H 0.18205 0.75296 0.07716 0.0
H372 H 0.16109 0.80346 0.07551 0.0
H373 H 0.26514 0.73299 0.99947 0.0
H374 H 0.20542 0.72608 0.98624 0.0
H375 H 0.27166 0.78201 0.97889 0.0
H376 H 0.19688 0.60373 0.05425 0.0
H377 H 0.06501 0.58949 0.01417 0.0
H378 H 0.25789 0.74101 0.06692 0.0
H379 H 0.28991 0.74087 0.04149 0.0
H380 H 0.275 0.68848 0.06178 0.0
H381 H 0.09337 0.72524 0.021 0.0
H382 H 0.05646 0.66507 1.00409 0.0
H383 H 0.12157 0.72052 0.99527 0.0
C384 C 0.42211 0.18263 1.01086 0.0
C385 C 0.40281 0.15065 0.02999 0.0
C386 C 0.44426 0.23925 1.01172 0.0
C387 C 0.44453 0.264 0.03203 0.0
C388 C 0.41832 0.23115 0.0507 0.0
C389 C 0.39837 0.17469 0.04956 0.0
C390 C 0.4724 0.27283 0.99145 0.0
C391 C 0.41526 0.25601 0.07232 0.0
C392 C 0.56504 0.40573 0.04187 0.0
C393 C 0.54349 0.43815 0.03487 0.0
C394 C 0.53291 0.34859 0.04115 0.0
C395 C 0.47759 0.32412 0.03418 0.0
C396 C 0.45534 0.35719 0.02794 0.0
C397 C 0.48906 0.41397 0.02791 0.0
C398 C 0.55852 0.31447 0.04721 0.0
C399 C 0.39611 0.3327 0.0213 0.0
H400 H 0.42484 0.16442 0.99561 0.0
H401 H 0.38265 0.1501 0.06437 0.0
H402 H 0.45884 0.30279 0.98805 0.0
H403 H 0.51716 0.29629 0.99439 0.0
H404 H 0.46458 0.24706 0.97654 0.0
H405 H 0.38477 0.22482 0.08368 0.0
H406 H 0.45577 0.27531 0.08053 0.0
H407 H 0.4045 0.28834 0.06953 0.0
H408 H 0.60726 0.42502 0.04726 0.0
H409 H 0.47269 0.43971 0.0227 0.0
H410 H 0.55545 0.2881 0.03307 0.0
H411 H 0.5362 0.28716 0.06125 0.0
H412 H 0.60224 0.33993 0.05186 0.0
H413 H 0.38699 0.30541 1.00685 0.0
H414 H 0.38526 0.36441 0.01709 0.0
H415 H 0.36947 0.30731 0.03501 0.0
C416 C 0.62836 0.17589 0.02931 0.0
C417 C 0.59564 0.12462 0.03882 0.0
C418 C 0.68543 0.20128 0.03072 0.0
C419 C 0.70962 0.17314 0.04085 0.0
C420 C 0.67636 0.12046 0.04981 0.0
C421 C 0.6196 0.09742 0.04919 0.0
C422 C 0.71977 0.25839 0.02165 0.0
C423 C 0.70062 0.08828 0.05982 0.0
C424 C 0.85871 0.23551 0.02581 0.0
C425 C 0.88341 0.26982 0.04401 0.0
C426 C 0.80202 0.20001 0.02529 0.0
C427 C 0.7697 0.20036 0.04306 0.0
C428 C 0.79494 0.23143 0.0622 0.0
C429 C 0.85169 0.26494 0.06261 0.0
C430 C 0.77647 0.16524 1.00506 0.0
C431 C 0.76183 0.23363 0.08136 0.0
H432 H 0.60929 0.19633 0.02116 0.0
H433 H 0.59376 0.05716 0.05618 0.0
H434 H 0.74675 0.28608 0.03481 0.0
H435 H 0.74648 0.25845 1.00824 0.0
H436 H 0.69446 0.2752 0.01504 0.0
H437 H 0.66881 0.04625 0.06458 0.0
H438 H 0.7289 0.08545 0.04789 0.0
H439 H 0.72485 0.10947 0.0747 0.0
H440 H 0.88309 0.23871 1.01148 0.0
H441 H 0.87045 0.29106 0.07682 0.0
H442 H 0.75732 0.18373 0.99483 0.0
H443 H 0.7439 0.1236 1.00981 0.0
H444 H 0.80719 0.16182 0.99479 0.0
H445 H 0.739 0.25421 0.07599 0.0
H446 H 0.78786 0.2563 0.0957 0.0
H447 H 0.73134 0.1919 0.08684 0.0
C448 C 0.86563 0.46505 0.02408 0.0
C449 C 0.91974 0.48984 0.03127 0.0
C450 C 0.8385 0.49524 0.02297 0.0
C451 C 0.86727 0.55172 0.02832 0.0
C452 C 0.92302 0.57732 0.03434 0.0
C453 C 0.94825 0.54568 0.03622 0.0
C454 C 0.7785 0.46617 0.01716 0.0
C455 C 0.95562 0.63777 0.03924 0.0
C456 C 0.79162 0.62631 0.01281 0.0
C457 C 0.76586 0.62428 0.03285 0.0
C458 C 0.82797 0.60611 1.01131 0.0
C459 C 0.83732 0.58219 0.03015 0.0
C460 C 0.81451 0.5837 0.05073 0.0
C461 C 0.77993 0.60571 0.0519 0.0
C462 C 0.85361 0.60739 0.98931 0.0
C463 C 0.82295 0.55804 0.07119 0.0
H464 H 0.84405 0.42177 0.02024 0.0
H465 H 0.99045 0.56458 0.04158 0.0
H466 H 0.75473 0.46815 0.03136 0.0
H467 H 0.77121 0.48667 1.00302 0.0
H468 H 0.76263 0.42257 0.01286 0.0
H469 H -0.00088 0.65153 0.04296 0.0
H470 H 0.95383 0.66128 0.02489 0.0
H471 H 0.93778 0.64784 0.05354 0.0
H472 H 0.78146 0.64126 0.99811 0.0
H473 H 0.76038 0.60407 0.06751 0.0
H474 H 0.83269 0.5659 0.98196 0.0
H475 H 0.89734 0.61981 0.9914 0.0
H476 H 0.85038 0.63584 0.97754 0.0
H477 H 0.80499 0.51343 0.06857 0.0
H478 H 0.80382 0.56441 0.08606 0.0
H479 H 0.86715 0.57517 0.07449 0.0
C480 C 0.8421 0.73123 0.35917 0.0
C481 C 0.81636 0.74055 0.37707 0.0
C482 C 0.89852 0.75055 0.3595 0.0
C483 C 0.92969 0.78072 0.37797 0.0
C484 C 0.90314 0.78582 0.39684 0.0
C485 C 0.84663 0.76507 0.39623 0.0
C486 C 0.92524 0.74257 0.33938 0.0
C487 C 0.93492 0.81802 0.41683 0.0
C488 C 0.07929 0.82367 0.38433 0.0
C489 C 0.10456 0.87611 0.37506 0.0
C490 C 0.02227 0.79125 0.3848 0.0
C491 C 0.99011 0.81287 0.37655 0.0
C492 C 0.01568 0.86629 0.36743 0.0
C493 C 0.07286 0.89693 0.36638 0.0
C494 C -0.00345 0.73382 0.39381 0.0
C495 C 0.98267 0.89118 0.35891 0.0
H496 H 0.81884 0.71191 0.34435 0.0
H497 H 0.82736 0.77282 0.41005 0.0
H498 H 0.94622 0.7813 0.32989 0.0
H499 H 0.95654 0.73172 0.34422 0.0
H500 H 0.89493 0.71017 0.32834 0.0
H501 H 0.90781 0.81276 0.43102 0.0
H502 H 0.9648 0.80563 0.42205 0.0
H503 H 0.95831 0.86209 0.41254 0.0
H504 H 0.10427 0.80732 0.39054 0.0
H505 H 0.09284 0.93738 0.35906 0.0
H506 H 0.96877 0.7043 0.3813 0.0
H507 H 0.97149 0.72976 0.40854 0.0
H508 H 0.02753 0.72232 0.39851 0.0
H509 H 0.95608 0.86626 0.34511 0.0
H510 H 0.00893 0.93375 0.35298 0.0
H511 H 0.95563 0.89133 0.37216 0.0
C512 C 0.21065 0.2778 0.38362 0.0
C513 C 0.15658 0.24952 0.37607 0.0
C514 C 0.2432 0.25331 0.38335 0.0
C515 C 0.2202 0.19864 0.37612 0.0
C516 C 0.16523 0.16977 0.36864 0.0
C517 C 0.1343 0.19612 0.36828 0.0
C518 C 0.30213 0.28602 0.3906 0.0
C519 C 0.13899 0.11097 0.3612 0.0
C520 C 0.29921 0.13062 0.3573 0.0
C521 C 0.29325 0.09779 0.37566 0.0
C522 C 0.27957 0.16746 0.35779 0.0
C523 C 0.25262 0.17057 0.37695 0.0
C524 C 0.25113 0.14138 0.39616 0.0
C525 C 0.27212 0.10582 0.39534 0.0
C526 C 0.28369 0.19956 0.33723 0.0
C527 C 0.22251 0.14338 0.4169 0.0
H528 H 0.22795 0.31976 0.38914 0.0
H529 H 0.09254 0.17483 0.36228 0.0
H530 H 0.30861 0.2675 0.40563 0.0
H531 H 0.3293 0.28524 0.37757 0.0
H532 H 0.31466 0.32928 0.39422 0.0
H533 H 0.09549 0.09409 0.35643 0.0
H534 H 0.1615 0.10758 0.34686 0.0
H535 H 0.14115 0.08539 0.37465 0.0
H536 H 0.31601 0.12503 0.34208 0.0
H537 H 0.26727 0.08073 0.40957 0.0
H538 H 0.29523 0.24221 0.34144 0.0
H539 H 0.2433 0.18065 0.32891 0.0
H540 H 0.31403 0.20029 0.32537 0.0
H541 H 0.23581 0.18621 0.4215 0.0
H542 H 0.23024 0.12314 0.43108 0.0
H543 H 0.17781 0.12242 0.41386 0.0
C544 C 0.90028 0.19272 0.36215 0.0
C545 C 0.93507 0.21751 0.38024 0.0
C546 C 0.86351 0.13629 0.36194 0.0
C547 C 0.86243 0.10417 0.38009 0.0
C548 C 0.89361 0.12971 0.39919 0.0
C549 C 0.92914 0.18626 0.3991 0.0
C550 C 0.82931 0.11062 0.34158 0.0
C551 C 0.89375 0.09687 0.41887 0.0
C552 C 0.756 0.95441 0.38514 0.0
C553 C 0.78352 0.92956 0.3758 0.0
C554 C 0.78043 0.01136 0.38604 0.0
C555 C 0.83434 0.04388 0.37811 0.0
C556 C 0.86245 0.01877 0.3688 0.0
C557 C 0.83612 0.96164 0.36735 0.0
C558 C 0.74849 0.03663 0.39527 0.0
C559 C 0.92044 0.05221 0.36055 0.0
H560 H 0.90433 0.21676 0.34756 0.0
H561 H 0.95585 0.20484 0.41308 0.0
H562 H 0.84741 0.09028 0.33189 0.0
H563 H 0.78715 0.07896 0.34614 0.0
H564 H 0.82726 0.14147 0.33085 0.0
H565 H 0.91527 0.1232 0.43329 0.0
H566 H 0.85144 0.06669 0.42384 0.0
H567 H 0.91457 0.07373 0.41434 0.0
H568 H 0.7146 0.92916 0.39116 0.0
H569 H 0.85687 0.94199 0.35998 0.0
H570 H 0.74772 0.06577 0.38318 0.0
H571 H 0.76868 0.06014 0.41043 0.0
H572 H 0.70572 0.00549 0.39938 0.0
H573 H 0.92237 0.07973 0.34706 0.0
H574 H 0.93683 0.02628 0.35427 0.0
H575 H 0.94736 0.07835 0.37406 0.0
C576 C 0.23221 0.74206 0.36666 0.0
C577 C 0.20925 0.77418 0.36105 0.0
C578 C 0.20002 0.68491 0.3667 0.0
C579 C 0.14334 0.66003 0.36191 0.0
C580 C 0.12001 0.69275 0.35659 0.0
C581 C 0.15362 0.74958 0.35584 0.0
C582 C 0.22656 0.6512 0.37198 0.0
C583 C 0.05952 0.66795 0.35231 0.0
C584 C 0.08068 0.51227 0.34506 0.0
C585 C 0.06678 0.48638 0.36574 0.0
C586 C 0.10268 0.56885 0.34329 0.0
C587 C 0.10896 0.59971 0.36256 0.0
C588 C 0.08826 0.5728 0.38296 0.0
C589 C 0.06781 0.51632 0.38437 0.0
C590 C 0.12441 0.59602 0.32123 0.0
C591 C 0.09215 0.60418 0.4037 0.0
H592 H 0.27523 0.76165 0.37089 0.0
H593 H 0.13601 0.77508 0.35199 0.0
H594 H 0.20889 0.62764 0.38739 0.0
H595 H 0.21828 0.6213 0.35856 0.0
H596 H 0.27149 0.6768 0.37415 0.0
H597 H 0.04795 0.69937 0.34855 0.0
H598 H 0.04691 0.6389 0.33829 0.0
H599 H 0.03614 0.64441 0.36699 0.0
H600 H 0.07917 0.48934 0.3305 0.0
H601 H 0.05629 0.49643 0.40035 0.0
H602 H 0.16975 0.61802 0.32161 0.0
H603 H 0.11171 0.62662 0.31774 0.0
H604 H 0.11035 0.56602 0.30746 0.0
H605 H 0.13496 0.62546 0.40974 0.0
H606 H 0.06554 0.57686 0.41704 0.0
H607 H 0.08063 0.63574 0.40034 0.0
C608 C 0.28291 0.42803 0.35489 0.0
C609 C 0.25845 0.45682 0.36334 0.0
C610 C 0.33984 0.45188 0.35421 0.0
C611 C 0.37274 0.50644 0.36139 0.0
C612 C 0.34798 0.53596 0.36961 0.0
C613 C 0.29085 0.51024 0.37092 0.0
C614 C 0.36466 0.41845 0.34618 0.0
C615 C 0.3818 0.59467 0.37699 0.0
C616 C 0.52047 0.57155 0.37903 0.0
C617 C 0.54681 0.60466 0.36069 0.0
C618 C 0.46387 0.5355 0.37886 0.0
C619 C 0.43312 0.53345 0.36005 0.0
C620 C 0.46018 0.56272 0.34078 0.0
C621 C 0.51689 0.59747 0.34127 0.0
C622 C 0.43657 0.50324 0.39945 0.0
C623 C 0.42886 0.56183 0.3204 0.0
H624 H 0.25736 0.38607 0.34954 0.0
H625 H 0.27146 0.53194 0.37763 0.0
H626 H 0.38973 0.43757 0.33125 0.0
H627 H 0.39227 0.41748 0.35899 0.0
H628 H 0.33316 0.37575 0.34215 0.0
H629 H 0.35612 0.61236 0.38213 0.0
H630 H 0.4082 0.59746 0.39109 0.0
H631 H 0.40907 0.61994 0.3634 0.0
H632 H 0.54343 0.57648 0.39405 0.0
H633 H 0.53667 0.62271 0.32703 0.0
H634 H 0.40477 0.46088 0.39522 0.0
H635 H 0.41609 0.52262 0.40818 0.0
H636 H 0.46642 0.50165 0.41095 0.0
H637 H 0.45619 0.58157 0.30604 0.0
H638 H 0.40639 0.58392 0.32386 0.0
H639 H 0.39821 0.51932 0.31586 0.0
C640 C 0.4626 0.97113 0.37795 0.0
C641 C 0.43042 0.96667 0.35955 0.0
C642 C 0.49875 0.95072 0.37726 0.0
C643 C 0.50184 0.92455 0.35784 0.0
C644 C 0.47389 0.92521 0.33855 0.0
C645 C 0.43911 0.94716 0.33955 0.0
C646 C 0.52971 0.95276 0.39791 0.0
C647 C 0.47608 0.89765 0.31753 0.0
C648 C 0.60709 0.87946 0.35266 0.0
C649 C 0.5775 0.82546 0.36023 0.0
C650 C 0.5834 0.91272 0.35211 0.0
C651 C 0.52827 0.89056 0.35856 0.0
C652 C 0.49791 0.8355 0.36584 0.0
C653 C 0.5234 0.80382 0.36703 0.0
C654 C 0.61764 0.97171 0.34514 0.0
C655 C 0.43862 0.81017 0.37245 0.0
H656 H 0.45668 0.98695 0.39338 0.0
H657 H 0.41494 0.94418 0.32517 0.0
H658 H 0.50958 0.91187 0.40583 0.0
H659 H 0.57223 0.96348 0.3939 0.0
H660 H 0.53083 0.9828 0.41003 0.0
H661 H 0.45781 0.90779 0.30332 0.0
H662 H 0.51879 0.90947 0.31337 0.0
H663 H 0.45319 0.85269 0.31993 0.0
H664 H 0.64953 0.89626 0.34792 0.0
H665 H 0.50106 0.76211 0.37304 0.0
H666 H 0.61898 -0.00111 0.35864 0.0
H667 H 0.599 0.97999 0.33059 0.0
H668 H 0.66021 0.98268 0.34094 0.0
H669 H 0.43483 0.83194 0.38698 0.0
H670 H 0.42022 0.76617 0.37666 0.0
H671 H 0.41466 0.81433 0.35881 0.0
C672 C 0.74183 0.16133 0.68847 0.0
C673 C 0.76598 0.21198 0.69923 0.0
C674 C 0.68496 0.12827 0.68741 0.0
C675 C 0.6517 0.14768 0.69644 0.0
C676 C 0.67607 0.19937 0.70705 0.0
C677 C 0.73318 0.23046 0.70878 0.0
C678 C 0.66057 0.07249 0.67687 0.0
C679 C 0.64187 0.22205 0.71637 0.0
C680 C 0.50905 0.0993 0.67518 0.0
C681 C 0.47755 0.07127 0.69366 0.0
C682 C 0.56589 0.12213 0.67538 0.0
C683 C 0.59144 0.11509 0.6942 0.0
C684 C 0.55922 0.08141 0.71179 0.0
C685 C 0.50252 0.06033 0.71143 0.0
C686 C 0.59883 0.15822 0.65638 0.0
C687 C 0.5849 0.07108 0.73173 0.0
H688 H 0.76756 0.14679 0.68145 0.0
H689 H 0.75224 0.26956 0.71719 0.0
H690 H 0.63173 0.04081 0.68848 0.0
H691 H 0.63692 0.07074 0.66196 0.0
H692 H 0.69224 0.06212 0.67202 0.0
H693 H 0.66726 0.26362 0.7234 0.0
H694 H 0.61541 0.22393 0.70323 0.0
H695 H 0.61463 0.19468 0.72951 0.0
H696 H 0.49009 0.10795 0.66137 0.0
H697 H 0.47824 0.0381 0.72563 0.0
H698 H 0.6296 0.14748 0.65072 0.0
H699 H 0.62131 0.20139 0.66197 0.0
H700 H 0.57268 0.15516 0.64211 0.0
H701 H 0.61726 0.06195 0.72667 0.0
H702 H 0.55422 0.03664 0.74189 0.0
H703 H 0.60437 0.10825 0.7422 0.0
C704 C 0.93285 0.44207 0.68514 0.0
C705 C 0.95266 0.43191 0.7048 0.0
C706 C 0.91001 0.476 0.68494 0.0
C707 C 0.90908 0.50219 0.70468 0.0
C708 C 0.93471 0.49719 0.72394 0.0
C709 C 0.95561 0.46134 0.72387 0.0
C710 C 0.88237 0.47961 0.66413 0.0
C711 C 0.93675 0.52667 0.745 0.0
C712 C 0.86647 0.6084 0.69681 0.0
C713 C 0.81171 0.57949 0.70342 0.0
C714 C 0.89966 0.58478 0.69826 0.0
C715 C 0.87655 0.53011 0.70552 0.0
C716 C 0.82091 0.50059 0.71208 0.0
C717 C 0.78936 0.52628 0.71146 0.0
C718 C 0.95931 0.61831 0.69212 0.0
C719 C 0.79439 0.44153 0.71921 0.0
H720 H 0.93061 0.41973 0.67026 0.0
H721 H 0.97151 0.45419 0.73903 0.0
H722 H 0.83762 0.45954 0.66693 0.0
H723 H 0.8968 0.52283 0.65978 0.0
H724 H 0.8898 0.45955 0.64983 0.0
H725 H 0.96661 0.52671 0.75697 0.0
H726 H 0.94776 0.56953 0.7415 0.0
H727 H 0.89584 0.50621 0.75286 0.0
H728 H 0.88366 0.65007 0.69096 0.0
H729 H 0.74699 0.50448 0.71668 0.0
H730 H 0.96872 0.59899 0.67816 0.0
H731 H 0.98504 0.61985 0.70628 0.0
H732 H 0.97107 0.66079 0.68737 0.0
H733 H 0.79772 0.41661 0.70579 0.0
H734 H 0.75053 0.42427 0.7234 0.0
H735 H 0.81588 0.43763 0.73383 0.0
C736 C 0.5619 0.52087 0.71797 0.0
C737 C 0.59123 0.54777 0.69892 0.0
C738 C 0.52643 0.46414 0.71795 0.0
C739 C 0.52132 0.43394 0.69858 0.0
C740 C 0.54686 0.46151 0.67882 0.0
C741 C 0.5808 0.51828 0.67915 0.0
C742 C 0.4979 0.43622 0.7391 0.0
C743 C 0.54275 0.43073 0.65784 0.0
C744 C 0.50002 0.29117 0.70564 0.0
C745 C 0.44608 0.25937 0.69852 0.0
C746 C 0.52512 0.34836 0.7057 0.0
C747 C 0.49444 0.37356 0.69943 0.0
C748 C 0.43922 0.34114 0.69299 0.0
C749 C 0.41603 0.28434 0.69217 0.0
C750 C 0.5846 0.38178 0.71214 0.0
C751 C 0.40457 0.36632 0.68715 0.0
H752 H 0.56928 0.54346 0.73326 0.0
H753 H 0.60291 0.53874 0.66427 0.0
H754 H 0.4551 0.404 0.73579 0.0
H755 H 0.51919 0.41619 0.74667 0.0
H756 H 0.49776 0.46562 0.75124 0.0
H757 H 0.56104 0.45844 0.64346 0.0
H758 H 0.56438 0.40733 0.66014 0.0
H759 H 0.49952 0.40089 0.65397 0.0
H760 H 0.52269 0.27134 0.71074 0.0
H761 H 0.37373 0.25916 0.68715 0.0
H762 H 0.58906 0.40731 0.72676 0.0
H763 H 0.60827 0.40989 0.69848 0.0
H764 H 0.60284 0.35585 0.71608 0.0
H765 H 0.40491 0.39224 0.70098 0.0
H766 H 0.36151 0.335 0.68354 0.0
H767 H 0.42173 0.39317 0.67251 0.0
C768 C 0.74991 0.85155 0.72178 0.0
C769 C 0.72857 0.82044 0.70251 0.0
C770 C 0.77253 0.90828 0.72142 0.0
C771 C 0.77204 0.93416 0.7015 0.0
C772 C 0.74494 0.90239 0.68269 0.0
C773 C 0.72389 0.8457 0.68335 0.0
C774 C 0.80139 0.94079 0.74181 0.0
C775 C 0.74162 0.92852 0.66143 0.0
C776 C 0.81479 0.08313 0.70807 0.0
C777 C 0.86952 0.10859 0.70141 0.0
C778 C 0.78149 0.02638 0.70697 0.0
C779 C 0.80441 0.99446 0.69997 0.0
C780 C 0.85982 0.02017 0.69309 0.0
C781 C 0.89156 0.07737 0.69344 0.0
C782 C 0.72211 0.00068 0.7135 0.0
C783 C 0.88597 0.98723 0.68603 0.0
H784 H 0.75342 0.83237 0.73673 0.0
H785 H 0.70666 0.82177 0.66851 0.0
H786 H 0.78722 0.9699 0.74597 0.0
H787 H 0.79475 0.91422 0.75637 0.0
H788 H 0.84596 0.96514 0.73857 0.0
H789 H 0.71101 0.89805 0.64988 0.0
H790 H 0.73092 0.96069 0.66474 0.0
H791 H 0.78205 0.94833 0.65317 0.0
H792 H 0.7978 0.10787 0.71386 0.0
H793 H 0.93388 0.0976 0.68818 0.0
H794 H 0.7143 0.97535 0.72852 0.0
H795 H 0.6957 0.97319 0.70018 0.0
H796 H 0.7098 0.0317 0.71686 0.0
H797 H 0.88411 0.96033 0.69978 0.0
H798 H 0.92937 0.01354 0.68111 0.0
H799 H 0.86321 0.96047 0.67192 0.0
C800 C 0.94739 0.83864 0.69378 0.0
C801 C 0.91606 0.7876 0.7037 0.0
C802 C 0.00463 0.86511 0.69454 0.0
C803 C 0.0305 0.83841 0.70452 0.0
C804 C -0.00134 0.78592 0.71388 0.0
C805 C 0.94171 0.7617 0.71382 0.0
C806 C 0.03737 0.92194 0.68503 0.0
C807 C 0.02464 0.75523 0.72377 0.0
C808 C 0.17902 0.90213 0.68804 0.0
C809 C 0.20462 0.93707 0.70598 0.0
C810 C 0.12238 0.86622 0.68805 0.0
C811 C 0.09087 0.86687 0.70609 0.0
C812 C 0.11706 0.89905 0.7249 0.0
C813 C 0.17383 0.93301 0.72478 0.0
C814 C 0.09595 0.83044 0.66815 0.0
C815 C 0.08483 0.90165 0.7443 0.0
H816 H 0.92713 0.85822 0.6859 0.0
H817 H 0.91703 0.72165 0.72117 0.0
H818 H 0.06465 0.95054 0.69791 0.0
H819 H 0.06373 0.92212 0.67144 0.0
H820 H 0.01092 0.93754 0.67853 0.0
H821 H 0.99379 0.71361 0.72939 0.0
H822 H 0.05158 0.75152 0.7114 0.0
H823 H 0.05062 0.77808 0.73804 0.0
H824 H 0.20277 0.90494 0.67354 0.0
H825 H 0.19328 0.96005 0.73868 0.0
H826 H 0.07527 0.84774 0.65815 0.0
H827 H 0.06443 0.78872 0.6733 0.0
H828 H 0.12636 0.82744 0.65751 0.0
H829 H 0.06098 0.92122 0.73903 0.0
H830 H 0.11158 0.92542 0.75831 0.0
H831 H 0.05528 0.86003 0.75024 0.0
C832 C 0.18677 0.13664 0.69878 0.0
C833 C 0.23937 0.15703 0.70729 0.0
C834 C 0.16081 0.16789 0.69987 0.0
C835 C 0.18936 0.2215 0.70877 0.0
C836 C 0.24326 0.24273 0.71674 0.0
C837 C 0.26721 0.20968 0.71633 0.0
C838 C 0.1027 0.14337 0.6917 0.0
C839 C 0.27579 0.30039 0.72544 0.0
C840 C 0.12386 0.30464 0.69207 0.0
C841 C 0.09035 0.29667 0.71039 0.0
C842 C 0.16007 0.2842 0.69197 0.0
C843 C 0.16165 0.25419 0.71041 0.0
C844 C 0.1316 0.25035 0.72965 0.0
C845 C 0.09695 0.27247 0.72952 0.0
C846 C 0.19332 0.29105 0.67149 0.0
C847 C 0.13177 0.21824 0.74959 0.0
H848 H 0.16574 0.09601 0.69165 0.0
H849 H 0.30854 0.22568 0.72245 0.0
H850 H 0.07619 0.14391 0.7051 0.0
H851 H 0.10077 0.16811 0.67786 0.0
H852 H 0.08581 0.10059 0.68593 0.0
H853 H 0.31828 0.31152 0.72989 0.0
H854 H 0.27739 0.32969 0.71283 0.0
H855 H 0.25559 0.30527 0.74026 0.0
H856 H 0.11937 0.32378 0.6773 0.0
H857 H 0.07141 0.2663 0.74381 0.0
H858 H 0.17446 0.25208 0.66215 0.0
H859 H 0.23551 0.30125 0.67591 0.0
H860 H 0.19534 0.32348 0.66047 0.0
H861 H 0.11091 0.17413 0.74536 0.0
H862 H 0.11051 0.22373 0.76394 0.0
H863 H 0.17415 0.23051 0.75455 0.0
C864 C 0.0149 0.32972 0.24944 0.0
C865 C 0.06406 0.35627 0.26135 0.0
C866 C 0.01103 0.3454 0.2278 0.0
C867 C 0.05748 0.38908 0.21767 0.0
C868 C 0.10732 0.41625 0.22957 0.0
C869 C 0.11018 0.39913 0.25116 0.0
C870 C 0.9572 0.31478 0.21571 0.0
C871 C 0.15776 0.46302 0.21939 0.0
C872 C 0.05527 0.39067 0.15475 0.0
C873 C 0.03603 0.42691 0.15043 0.0
C874 C 0.06424 0.37943 0.1765 0.0
C875 C 0.05374 0.40508 0.19444 0.0
C876 C 0.03569 0.44287 0.19011 0.0
C877 C 0.0265 0.45285 0.16818 0.0
C878 C 0.08257 0.33819 0.18029 0.0
C879 C 0.02452 0.47154 0.20868 0.0
H880 H 0.97915 0.29647 0.25717 0.0
H881 H 0.14886 0.41847 0.25977 0.0
H882 H 0.94287 0.34336 0.21077 0.0
H883 H 0.96253 0.29649 0.20037 0.0
H884 H 0.92497 0.28169 0.2259 0.0
H885 H 0.19256 0.48172 0.23116 0.0
H886 H 0.17028 0.4484 0.20473 0.0
H887 H 0.14882 0.49505 0.21361 0.0
H888 H 0.06097 0.3692 0.14114 0.0
H889 H 0.01123 0.48052 0.16483 0.0
H890 H 0.04966 0.30173 0.18875 0.0
H891 H 0.11895 0.35555 0.19122 0.0
H892 H 0.0927 0.32482 0.16462 0.0
H893 H 0.9893 0.44127 0.21857 0.0
H894 H 0.01519 0.50307 0.20254 0.0
H895 H 0.06028 0.49128 0.21992 0.0
C896 C 0.64833 0.74696 0.24638 0.0
C897 C 0.69101 0.74535 0.25755 0.0
C898 C 0.63429 0.7273 0.2246 0.0
C899 C 0.66488 0.70725 0.21348 0.0
C900 C 0.70922 0.70734 0.2245 0.0
C901 C 0.72156 0.7262 0.24637 0.0
C902 C 0.58662 0.72773 0.21353 0.0
C903 C 0.74361 0.68734 0.21321 0.0
C904 C 0.60705 0.60806 0.16518 0.0
C905 C 0.63137 0.6426 0.14704 0.0
C906 C 0.61559 0.62889 0.1868 0.0
C907 C 0.65051 0.68558 0.19044 0.0
C908 C 0.67448 0.7208 0.17208 0.0
C909 C 0.66438 0.69889 0.15059 0.0
C910 C 0.58847 0.58998 0.2058 0.0
C911 C 0.71278 0.78126 0.17518 0.0
H912 H 0.62634 0.76418 0.25459 0.0
H913 H 0.75505 0.72569 0.2549 0.0
H914 H 0.60062 0.75339 0.19844 0.0
H915 H 0.55606 0.68572 0.20827 0.0
H916 H 0.56628 0.74356 0.22456 0.0
H917 H 0.77783 0.69193 0.22377 0.0
H918 H 0.71786 0.6436 0.20877 0.0
H919 H 0.76077 0.71031 0.19763 0.0
H920 H 0.58173 0.56453 0.16238 0.0
H921 H 0.68425 0.72542 0.13661 0.0
H922 H 0.56658 0.60478 0.21644 0.0
H923 H 0.61994 0.5882 0.21618 0.0
H924 H 0.55899 0.54797 0.2001 0.0
H925 H 0.69337 0.79917 0.18555 0.0
H926 H 0.72509 0.80358 0.15921 0.0
H927 H 0.75011 0.78787 0.18395 0.0
C928 C 0.32442 0.96731 0.14842 0.0
C929 C 0.3805 0.98993 0.14444 0.0
C930 C 0.30354 0.95656 0.17013 0.0
C931 C 0.33959 0.9685 0.18829 0.0
C932 C 0.39591 0.98904 0.18421 0.0
C933 C 0.41564 -5e-05 0.16241 0.0
C934 C 0.24338 0.93529 0.17366 0.0
C935 C 0.43583 0.00183 0.20293 0.0
C936 C 0.30499 0.00821 0.24358 0.0
C937 C 0.28654 0.96045 0.25619 0.0
C938 C 0.32141 0.01093 0.22149 0.0
C939 C 0.3197 0.96473 0.21154 0.0
C940 C 0.30054 0.91606 0.22404 0.0
C941 C 0.28367 0.91432 0.24611 0.0
C942 C 0.34109 0.0636 0.20886 0.0
C943 C 0.29804 0.86589 0.2141 0.0
H944 H 0.29732 0.96068 0.13464 0.0
H945 H 0.45901 0.01761 0.15935 0.0
H946 H 0.22608 0.89988 0.1851 0.0
H947 H 0.23756 0.9676 0.18141 0.0
H948 H 0.21999 0.92271 0.15794 0.0
H949 H 0.47713 0.01238 0.19696 0.0
H950 H 0.43942 0.03681 0.21261 0.0
H951 H 0.42088 0.96643 0.21432 0.0
H952 H 0.30709 0.04396 0.25114 0.0
H953 H 0.26735 0.87652 0.25525 0.0
H954 H 0.31681 0.05589 0.19351 0.0
H955 H 0.38432 0.08016 0.2039 0.0
H956 H 0.33803 0.09515 0.21869 0.0
H957 H 0.27124 0.85273 0.19932 0.0
H958 H 0.2824 0.8313 0.22596 0.0
H959 H 0.33935 0.87557 0.20856 0.0
C960 C 0.46573 0.0276 0.90526 0.0
C961 C 0.44244 0.04276 0.92234 0.0
C962 C 0.4602 0.03845 0.883 0.0
C963 C 0.43008 0.06467 0.87758 0.0
C964 C 0.40788 0.08158 0.89481 0.0
C965 C 0.41406 0.07017 0.91693 0.0
C966 C 0.48459 0.01972 0.86524 0.0
C967 C 0.37518 0.10931 0.88985 0.0
C968 C 0.43589 0.12188 0.81967 0.0
C969 C 0.38765 0.08029 0.81025 0.0
C970 C 0.45115 0.11699 0.84139 0.0
C971 C 0.41711 0.06954 0.85397 0.0
C972 C 0.36896 0.02702 0.84423 0.0
C973 C 0.3548 0.0331 0.8226 0.0
C974 C 0.50265 0.1633 0.85113 0.0
C975 C 0.33145 0.97564 0.85688 0.0
H976 H 0.48735 0.00608 0.90937 0.0
H977 H 0.39427 0.08029 0.92987 0.0
H978 H 0.45136 0.98619 0.8556 0.0
H979 H 0.50897 0.05359 0.85358 0.0
H980 H 0.51114 0.00474 0.87218 0.0
H981 H 0.36522 0.12464 0.90503 0.0
H982 H 0.39799 0.14411 0.87839 0.0
H983 H 0.3364 0.08002 0.88156 0.0
H984 H 0.4605 0.159 0.81035 0.0
H985 H 0.31725 0.00125 0.81534 0.0
H986 H 0.52879 0.14775 0.85794 0.0
H987 H 0.49204 0.1819 0.86501 0.0
H988 H 0.5266 0.19561 0.83877 0.0
H989 H 0.35457 0.95609 0.86307 0.0
H990 H 0.29682 0.94553 0.84664 0.0
H991 H 0.31466 0.986 0.87147 0.0
C992 C 0.02217 0.35652 0.91538 0.0
C993 C -0.00362 0.37764 0.92865 0.0
C994 C 0.00608 0.34089 0.8934 0.0
C995 C 0.96299 0.34653 0.88425 0.0
C996 C 0.93645 0.36758 0.89756 0.0
C997 C 0.95367 0.38319 0.91956 0.0
C998 C 0.03567 0.31872 0.87992 0.0
C999 C 0.89046 0.37438 0.88844 0.0
C1000 C 0.96291 0.35058 0.82127 0.0
C1001 C 0.92636 0.29579 0.81602 0.0
C1002 C 0.97312 0.36836 0.84338 0.0
C1003 C 0.94637 0.3304 0.86071 0.0
C1004 C 0.90774 0.27554 0.85541 0.0
C1005 C 0.89854 0.2589 0.83319 0.0
C1006 C 0.01489 0.42712 0.84822 0.0
C1007 C 0.87807 0.2337 0.87326 0.0
H1008 H 0.05531 0.35234 0.92228 0.0
H1009 H 0.93473 0.40114 0.9294 0.0
H1010 H 0.0063 0.27705 0.87392 0.0
H1011 H 0.05446 0.34481 0.86518 0.0
H1012 H 0.06825 0.31681 0.8895 0.0
H1013 H 0.87265 0.38937 0.9011 0.0
H1014 H 0.9056 0.40374 0.87448 0.0
H1015 H 0.85764 0.33484 0.88187 0.0
H1016 H 0.98572 0.37893 0.80816 0.0
H1017 H 0.87052 0.21649 0.82917 0.0
H1018 H 0.05162 0.42909 0.8558 0.0
H1019 H -0.00159 0.44481 0.86024 0.0
H1020 H 0.0276 0.45272 0.83307 0.0
H1021 H 0.90753 0.22587 0.88242 0.0
H1022 H 0.84537 0.19433 0.86646 0.0
H1023 H 0.85962 0.24932 0.88532 0.0
C1024 C 0.69818 0.69151 0.8257 0.0
C1025 C 0.71133 0.65866 0.81267 0.0
C1026 C 0.68087 0.67781 0.84765 0.0
C1027 C 0.67627 0.62972 0.85698 0.0
C1028 C 0.68891 0.59588 0.84389 0.0
C1029 C 0.70673 0.61098 0.82193 0.0
C1030 C 0.66812 0.71533 0.86093 0.0
C1031 C 0.68445 0.54426 0.85321 0.0
C1032 C 0.68063 0.63132 0.91984 0.0
C1033 C 0.62492 0.6046 0.92515 0.0
C1034 C 0.69806 0.63722 0.89774 0.0
C1035 C 0.6588 0.61589 0.88052 0.0
C1036 C 0.6025 0.58669 0.88591 0.0
C1037 C 0.5863 0.58187 0.90813 0.0
C1038 C 0.75845 0.66919 0.89279 0.0
C1039 C 0.55926 0.56285 0.86816 0.0
H1040 H 0.70176 0.72844 0.81865 0.0
H1041 H 0.71859 0.58636 0.81232 0.0
H1042 H 0.62529 0.69268 0.86688 0.0
H1043 H 0.69492 0.73028 0.8757 0.0
H1044 H 0.67381 0.7512 0.85123 0.0
H1045 H 0.69293 0.5209 0.84061 0.0
H1046 H 0.71378 0.55453 0.86704 0.0
H1047 H 0.64291 0.51765 0.86001 0.0
H1048 H 0.71057 0.65019 0.93289 0.0
H1049 H 0.54324 0.56139 0.91224 0.0
H1050 H 0.76851 0.70865 0.88494 0.0
H1051 H 0.76982 0.6466 0.88095 0.0
H1052 H 0.78371 0.67785 0.90793 0.0
H1053 H 0.55874 0.59638 0.85881 0.0
H1054 H 0.51786 0.53604 0.87509 0.0
H1055 H 0.56868 0.53888 0.85624 0.0
C1056 C 0.71029 0.72177 0.48424 0.0
C1057 C 0.67611 0.74322 0.47944 0.0
C1058 C 0.72353 0.71646 0.50616 0.0
C1059 C 0.70175 0.7326 0.52379 0.0
C1060 C 0.66777 0.75498 0.51901 0.0
C1061 C 0.65506 0.75962 0.49691 0.0
C1062 C 0.75936 0.6918 0.51045 0.0
C1063 C 0.64379 0.77282 0.53726 0.0
C1064 C 0.68621 0.6623 0.57916 0.0
C1065 C 0.73168 0.70151 0.59092 0.0
C1066 C 0.67561 0.67226 0.55749 0.0
C1067 C 0.71166 0.72269 0.54718 0.0
C1068 C 0.75769 0.76261 0.55903 0.0
C1069 C 0.76735 0.75137 0.58073 0.0
C1070 C 0.62621 0.62841 0.54552 0.0
C1071 C 0.79719 0.81677 0.54865 0.0
H1072 H 0.72505 0.7072 0.47088 0.0
H1073 H 0.62832 0.77582 0.49322 0.0
H1074 H 0.79408 0.71899 0.52129 0.0
H1075 H 0.73552 0.65225 0.5192 0.0
H1076 H 0.77585 0.68459 0.49496 0.0
H1077 H 0.621 0.79253 0.53079 0.0
H1078 H 0.61552 0.73694 0.54735 0.0
H1079 H 0.67666 0.80195 0.5484 0.0
H1080 H 0.65896 0.62359 0.58703 0.0
H1081 H 0.80337 0.78102 0.58959 0.0
H1082 H 0.63931 0.61545 0.53054 0.0
H1083 H 0.59967 0.64473 0.54 0.0
H1084 H 0.60166 0.59191 0.55602 0.0
H1085 H 0.8169 0.81003 0.53409 0.0
H1086 H 0.82956 0.84436 0.56036 0.0
H1087 H 0.77497 0.83747 0.54268 0.0
C1088 C 0.27585 0.91813 0.49643 0.0
C1089 C 0.29352 0.95629 0.47916 0.0
C1090 C 0.2786 0.93447 0.51858 0.0
C1091 C 0.3005 0.99056 0.52369 0.0
C1092 C 0.31906 0.02934 0.50629 0.0
C1093 C 0.31534 0.01174 0.48428 0.0
C1094 C 0.25786 0.89167 0.53653 0.0
C1095 C 0.34336 0.08956 0.51093 0.0
C1096 C 0.26396 0.0333 0.57789 0.0
C1097 C 0.31002 0.04705 0.59099 0.0
C1098 C 0.2598 0.0137 0.55622 0.0
C1099 C 0.30333 0.0087 0.54716 0.0
C1100 C 0.34999 0.02242 0.56036 0.0
C1101 C 0.35267 0.04123 0.58214 0.0
C1102 C 0.20903 -0.00106 0.54293 0.0
C1103 C 0.39766 0.01852 0.5513 0.0
H1104 H 0.25943 0.87532 0.4925 0.0
H1105 H 0.33082 0.04157 0.47109 0.0
H1106 H 0.2912 0.90027 0.54837 0.0
H1107 H 0.22487 0.89303 0.54594 0.0
H1108 H 0.24177 0.84977 0.52985 0.0
H1109 H 0.3564 0.11454 0.49561 0.0
H1110 H 0.31309 0.09697 0.5196 0.0
H1111 H 0.37927 0.10379 0.52199 0.0
H1112 H 0.23104 0.03791 0.58472 0.0
H1113 H 0.38882 0.05301 0.59205 0.0
H1114 H 0.19064 0.95632 0.53684 0.0
H1115 H 0.21982 0.02588 0.52825 0.0
H1116 H 0.17787 0.00287 0.55269 0.0
H1117 H 0.38368 0.97646 0.54532 0.0
H1118 H 0.43029 0.02934 0.56381 0.0
H1119 H 0.41538 0.04636 0.53695 0.0
C1120 C 0.00107 0.35231 0.58284 0.0
C1121 C 0.98811 0.30476 0.5948 0.0
C1122 C 0.02141 0.36017 0.56121 0.0
C1123 C 0.02945 0.31955 0.5511 0.0
C1124 C 0.01759 0.27184 0.56319 0.0
C1125 C -0.00343 0.26476 0.58483 0.0
C1126 C 0.03301 0.4115 0.54898 0.0
C1127 C 0.02579 0.22767 0.55307 0.0
C1128 C 0.0272 0.32092 0.4882 0.0
C1129 C 0.08295 0.35148 0.4831 0.0
C1130 C 0.0093 0.30827 0.5102 0.0
C1131 C 0.04812 0.3266 0.52759 0.0
C1132 C 0.10459 0.35609 0.52245 0.0
C1133 C 0.12126 0.36867 0.50029 0.0
C1134 C 0.94873 0.27757 0.51487 0.0
C1135 C 0.14736 0.37595 0.5404 0.0
H1136 H 0.99459 0.38334 0.59042 0.0
H1137 H 0.98496 0.2271 0.59353 0.0
H1138 H 0.07609 0.43363 0.54332 0.0
H1139 H 0.00676 0.40067 0.53407 0.0
H1140 H 0.02554 0.43957 0.55933 0.0
H1141 H 0.01892 0.19525 0.56515 0.0
H1142 H -0.00289 0.20862 0.53905 0.0
H1143 H 0.06782 0.2455 0.54637 0.0
H1144 H -0.00255 0.30899 0.47503 0.0
H1145 H 0.16435 0.39252 0.49633 0.0
H1146 H 0.9371 0.30477 0.52361 0.0
H1147 H 0.93818 0.24221 0.52584 0.0
H1148 H 0.92399 0.2625 0.49953 0.0
H1149 H 0.14523 0.40778 0.55036 0.0
H1150 H 0.18934 0.3935 0.53362 0.0
H1151 H 0.13953 0.3419 0.55173 0.0
loop_
_geom_bond_atom_site_label_1
_geom_bond_atom_site_label_2
_geom_bond_distance
_geom_bond_site_symmetry_2
_ccdc_geom_bond_type
Zn0 O1 2.055 . S
Zn0 O8 2.046 1_455 S
Zn0 N16 2.036 . S
Zn0 O28 2.053 1_455 S
Zn0 O30 2.066 . S
O1 Zn0 2.055 . S
O1 C4 1.259 . S
C2 O30 1.256 . S
C2 O31 1.244 . S
Zn3 O5 2.038 1_556 S
Zn3 O7 2.043 1_456 S
Zn3 N9 2.086 . S
Zn3 O27 2.061 1_456 S
Zn3 O31 2.039 1_556 S
C4 O1 1.259 . S
C4 O5 1.254 . S
O5 Zn3 2.038 1_554 S
O5 C4 1.254 . S
C6 O27 1.256 . S
C6 O28 1.244 . S
O7 Zn3 2.043 1_654 S
O7 C29 1.259 . S
O8 Zn0 2.046 1_655 S
O8 C29 1.254 . S
N9 Zn3 2.086 . S
N9 C10 1.298 1_455 S
N9 N12 1.398 . S
C10 N9 1.298 1_655 S
C10 N13 1.367 . S
C10 C23 1.481 . S
C11 N12 1.299 . S
C11 N13 1.379 1_455 S
N12 N9 1.398 . S
N12 C11 1.299 . S
N13 C10 1.367 . S
N13 C11 1.379 1_655 S
C14 N16 1.298 . S
C14 N18 1.367 . S
C14 C22 1.481 . S
C15 N17 1.299 . S
C15 N18 1.379 1_655 S
N16 Zn0 2.036 . S
N16 C14 1.298 . S
N16 N17 1.398 1_455 S
N17 C15 1.299 . S
N17 N16 1.398 1_655 S
N18 C14 1.367 . S
N18 C15 1.379 1_455 S
H19 C22 0.980 . S
H20 C22 0.981 . S
H21 C22 0.981 . S
C22 C14 1.481 . S
C22 H19 0.980 . S
C22 H20 0.981 . S
C22 H21 0.981 . S
C23 C10 1.481 . S
C23 H24 0.980 . S
C23 H25 0.981 . S
C23 H26 0.981 . S
H24 C23 0.980 . S
H25 C23 0.981 . S
H26 C23 0.981 . S
O27 Zn3 2.061 1_654 S
O27 C6 1.256 . S
O28 Zn0 2.053 1_655 S
O28 C6 1.244 . S
C29 O7 1.259 . S
C29 O8 1.254 . S
O30 Zn0 2.066 . S
O30 C2 1.256 . S
O31 C2 1.244 . S
O31 Zn3 2.039 1_554 S
Zn32 O33 2.055 . S
Zn32 O40 2.046 . S
Zn32 N48 2.036 . S
Zn32 O60 2.053 . S
Zn32 O62 2.066 . S
O33 Zn32 2.055 . S
O33 C36 1.259 . S
C34 O62 1.256 . S
C34 O63 1.244 . S
Zn35 O37 2.038 1_556 S
Zn35 O39 2.043 1_556 S
Zn35 N41 2.086 . S
Zn35 O59 2.061 1_556 S
Zn35 O63 2.039 1_556 S
C36 O33 1.259 . S
C36 O37 1.254 . S
O37 Zn35 2.038 1_554 S
O37 C36 1.254 . S
C38 O59 1.256 . S
C38 O60 1.244 . S
O39 Zn35 2.043 1_554 S
O39 C61 1.259 . S
O40 Zn32 2.046 . S
O40 C61 1.254 . S
N41 Zn35 2.086 . S
N41 C42 1.298 . S
N41 N44 1.398 . S
C42 N41 1.298 . S
C42 N45 1.367 . S
C42 C55 1.481 . S
C43 N44 1.299 . S
C43 N45 1.379 . S
N44 N41 1.398 . S
N44 C43 1.299 . S
N45 C42 1.367 . S
N45 C43 1.379 . S
C46 N48 1.298 . S
C46 N50 1.367 . S
C46 C54 1.481 . S
C47 N49 1.299 . S
C47 N50 1.379 . S
N48 Zn32 2.036 . S
N48 C46 1.298 . S
N48 N49 1.398 . S
N49 C47 1.299 . S
N49 N48 1.398 . S
N50 C46 1.367 . S
N50 C47 1.379 . S
H51 C54 0.980 . S
H52 C54 0.981 . S
H53 C54 0.981 . S
C54 C46 1.481 . S
C54 H51 0.980 . S
C54 H52 0.981 . S
C54 H53 0.981 . S
C55 C42 1.481 . S
C55 H56 0.980 . S
C55 H57 0.981 . S
C55 H58 0.981 . S
H56 C55 0.980 . S
H57 C55 0.981 . S
H58 C55 0.981 . S
O59 Zn35 2.061 1_554 S
O59 C38 1.256 . S
O60 Zn32 2.053 . S
O60 C38 1.244 . S
C61 O39 1.259 . S
C61 O40 1.254 . S
O62 Zn32 2.066 . S
O62 C34 1.256 . S
O63 C34 1.244 . S
O63 Zn35 2.039 1_554 S
Zn64 O65 2.043 1_556 S
Zn64 O72 2.038 1_546 S
Zn64 N80 2.086 . S
Zn64 O92 2.039 1_546 S
Zn64 O94 2.061 1_556 S
O65 Zn64 2.043 1_554 S
O65 C68 1.259 . S
C66 O94 1.256 . S
C66 O95 1.244 . S
Zn67 O69 2.046 . S
Zn67 O71 2.055 1_545 S
Zn67 N73 2.036 . S
Zn67 O91 2.066 1_545 S
Zn67 O95 2.053 . S
C68 O65 1.259 . S
C68 O69 1.254 . S
O69 Zn67 2.046 . S
O69 C68 1.254 . S
C70 O91 1.256 . S
C70 O92 1.244 . S
O71 Zn67 2.055 1_565 S
O71 C93 1.259 . S
O72 Zn64 2.038 1_564 S
O72 C93 1.254 . S
N73 Zn67 2.036 . S
N73 C74 1.298 1_545 S
N73 N76 1.398 . S
C74 N73 1.298 1_565 S
C74 N77 1.367 . S
C74 C87 1.481 . S
C75 N76 1.299 . S
C75 N77 1.379 1_545 S
N76 N73 1.398 . S
N76 C75 1.299 . S
N77 C74 1.367 . S
N77 C75 1.379 1_565 S
C78 N80 1.298 . S
C78 N82 1.367 . S
C78 C86 1.481 . S
C79 N81 1.299 . S
C79 N82 1.379 1_565 S
N80 Zn64 2.086 . S
N80 C78 1.298 . S
N80 N81 1.398 1_545 S
N81 C79 1.299 . S
N81 N80 1.398 1_565 S
N82 C78 1.367 . S
N82 C79 1.379 1_545 S
H83 C86 0.980 . S
H84 C86 0.981 . S
H85 C86 0.981 . S
C86 C78 1.481 . S
C86 H83 0.980 . S
C86 H84 0.981 . S
C86 H85 0.981 . S
C87 C74 1.481 . S
C87 H88 0.980 . S
C87 H89 0.981 . S
C87 H90 0.981 . S
H88 C87 0.980 . S
H89 C87 0.981 . S
H90 C87 0.981 . S
O91 Zn67 2.066 1_565 S
O91 C70 1.256 . S
O92 Zn64 2.039 1_564 S
O92 C70 1.244 . S
C93 O71 1.259 . S
C93 O72 1.254 . S
O94 Zn64 2.061 1_554 S
O94 C66 1.256 . S
O95 C66 1.244 . S
O95 Zn67 2.053 . S
Zn96 O97 2.055 . S
Zn96 O104 2.046 . S
Zn96 N112 2.036 . S
Zn96 O124 2.053 . S
Zn96 O126 2.066 . S
O97 Zn96 2.055 . S
O97 C100 1.259 . S
C98 O126 1.256 . S
C98 O127 1.244 . S
Zn99 O101 2.046 . S
Zn99 O103 2.055 . S
Zn99 N105 2.036 . S
Zn99 O123 2.066 . S
Zn99 O127 2.053 . S
C100 O97 1.259 . S
C100 O101 1.254 . S
O101 Zn99 2.046 . S
O101 C100 1.254 . S
C102 O123 1.256 . S
C102 O124 1.244 . S
O103 Zn99 2.055 . S
O103 C125 1.259 . S
O104 Zn96 2.046 . S
O104 C125 1.254 . S
N105 Zn99 2.036 . S
N105 C106 1.298 . S
N105 N108 1.398 . S
C106 N105 1.298 . S
C106 N109 1.367 . S
C106 C119 1.481 . S
C107 N108 1.299 . S
C107 N109 1.379 . S
N108 N105 1.398 . S
N108 C107 1.299 . S
N109 C106 1.367 . S
N109 C107 1.379 . S
C110 N112 1.298 . S
C110 N114 1.367 . S
C110 C118 1.481 . S
C111 N113 1.299 . S
C111 N114 1.379 . S
N112 Zn96 2.036 . S
N112 C110 1.298 . S
N112 N113 1.398 . S
N113 C111 1.299 . S
N113 N112 1.398 . S
N114 C110 1.367 . S
N114 C111 1.379 . S
H115 C118 0.980 . S
H116 C118 0.981 . S
H117 C118 0.981 . S
C118 C110 1.481 . S
C118 H115 0.980 . S
C118 H116 0.981 . S
C118 H117 0.981 . S
C119 C106 1.481 . S
C119 H120 0.980 . S
C119 H121 0.981 . S
C119 H122 0.981 . S
H120 C119 0.980 . S
H121 C119 0.981 . S
H122 C119 0.981 . S
O123 Zn99 2.066 . S
O123 C102 1.256 . S
O124 Zn96 2.053 . S
O124 C102 1.244 . S
C125 O103 1.259 . S
C125 O104 1.254 . S
O126 Zn96 2.066 . S
O126 C98 1.256 . S
O127 C98 1.244 . S
O127 Zn99 2.053 . S
Zn128 O129 2.055 . S
Zn128 O136 2.046 . S
Zn128 N144 2.036 . S
Zn128 O156 2.053 . S
Zn128 O158 2.066 . S
O129 Zn128 2.055 . S
O129 C132 1.259 . S
C130 O158 1.256 . S
C130 O159 1.244 . S
Zn131 O133 2.046 . S
Zn131 O135 2.055 . S
Zn131 N137 2.036 . S
Zn131 O155 2.066 . S
Zn131 O159 2.053 . S
C132 O129 1.259 . S
C132 O133 1.254 . S
O133 Zn131 2.046 . S
O133 C132 1.254 . S
C134 O155 1.256 . S
C134 O156 1.244 . S
O135 Zn131 2.055 . S
O135 C157 1.259 . S
O136 Zn128 2.046 . S
O136 C157 1.254 . S
N137 Zn131 2.036 . S
N137 C138 1.298 . S
N137 N140 1.398 . S
C138 N137 1.298 . S
C138 N141 1.367 . S
C138 C151 1.481 . S
C139 N140 1.299 . S
C139 N141 1.379 . S
N140 N137 1.398 . S
N140 C139 1.299 . S
N141 C138 1.367 . S
N141 C139 1.379 . S
C142 N144 1.298 . S
C142 N146 1.367 . S
C142 C150 1.481 . S
C143 N145 1.299 . S
C143 N146 1.379 . S
N144 Zn128 2.036 . S
N144 C142 1.298 . S
N144 N145 1.398 . S
N145 C143 1.299 . S
N145 N144 1.398 . S
N146 C142 1.367 . S
N146 C143 1.379 . S
H147 C150 0.980 . S
H148 C150 0.981 . S
H149 C150 0.981 . S
C150 C142 1.481 . S
C150 H147 0.980 . S
C150 H148 0.981 . S
C150 H149 0.981 . S
C151 C138 1.481 . S
C151 H152 0.980 . S
C151 H153 0.981 . S
C151 H154 0.981 . S
H152 C151 0.980 . S
H153 C151 0.981 . S
H154 C151 0.981 . S
O155 Zn131 2.066 . S
O155 C134 1.256 . S
O156 Zn128 2.053 . S
O156 C134 1.244 . S
C157 O135 1.259 . S
C157 O136 1.254 . S
O158 Zn128 2.066 . S
O158 C130 1.256 . S
O159 C130 1.244 . S
O159 Zn131 2.053 . S
Zn160 O161 2.055 . S
Zn160 O168 2.046 . S
Zn160 N176 2.036 . S
Zn160 O188 2.053 . S
Zn160 O190 2.066 . S
O161 Zn160 2.055 . S
O161 C164 1.259 . S
C162 O190 1.256 . S
C162 O191 1.244 . S
Zn163 O165 2.046 . S
Zn163 O167 2.055 . S
Zn163 N169 2.036 . S
Zn163 O187 2.066 . S
Zn163 O191 2.053 . S
C164 O161 1.259 . S
C164 O165 1.254 . S
O165 Zn163 2.046 . S
O165 C164 1.254 . S
C166 O187 1.256 . S
C166 O188 1.244 . S
O167 Zn163 2.055 . S
O167 C189 1.259 . S
O168 Zn160 2.046 . S
O168 C189 1.254 . S
N169 Zn163 2.036 . S
N169 C170 1.298 . S
N169 N172 1.398 . S
C170 N169 1.298 . S
C170 N173 1.367 . S
C170 C183 1.481 . S
C171 N172 1.299 . S
C171 N173 1.379 . S
N172 N169 1.398 . S
N172 C171 1.299 . S
N173 C170 1.367 . S
N173 C171 1.379 . S
C174 N176 1.298 . S
C174 N178 1.367 . S
C174 C182 1.481 . S
C175 N177 1.299 . S
C175 N178 1.379 . S
N176 Zn160 2.036 . S
N176 C174 1.298 . S
N176 N177 1.398 . S
N177 C175 1.299 . S
N177 N176 1.398 . S
N178 C174 1.367 . S
N178 C175 1.379 . S
H179 C182 0.980 . S
H180 C182 0.981 . S
H181 C182 0.981 . S
C182 C174 1.481 . S
C182 H179 0.980 . S
C182 H180 0.981 . S
C182 H181 0.981 . S
C183 C170 1.481 . S
C183 H184 0.980 . S
C183 H185 0.981 . S
C183 H186 0.981 . S
H184 C183 0.980 . S
H185 C183 0.981 . S
H186 C183 0.981 . S
O187 Zn163 2.066 . S
O187 C166 1.256 . S
O188 Zn160 2.053 . S
O188 C166 1.244 . S
C189 O167 1.259 . S
C189 O168 1.254 . S
O190 Zn160 2.066 . S
O190 C162 1.256 . S
O191 C162 1.244 . S
O191 Zn163 2.053 . S
Zn192 O193 2.055 . S
Zn192 O200 2.046 . S
Zn192 N208 2.036 . S
Zn192 O220 2.053 . S
Zn192 O222 2.066 . S
O193 Zn192 2.055 . S
O193 C196 1.259 . S
C194 O222 1.256 . S
C194 O223 1.244 . S
Zn195 O197 2.046 . S
Zn195 O199 2.055 . S
Zn195 N201 2.036 . S
Zn195 O219 2.066 . S
Zn195 O223 2.053 . S
C196 O193 1.259 . S
C196 O197 1.254 . S
O197 Zn195 2.046 . S
O197 C196 1.254 . S
C198 O219 1.256 . S
C198 O220 1.244 . S
O199 Zn195 2.055 . S
O199 C221 1.259 . S
O200 Zn192 2.046 . S
O200 C221 1.254 . S
N201 Zn195 2.036 . S
N201 C202 1.298 . S
N201 N204 1.398 . S
C202 N201 1.298 . S
C202 N205 1.367 . S
C202 C215 1.481 . S
C203 N204 1.299 . S
C203 N205 1.379 . S
N204 N201 1.398 . S
N204 C203 1.299 . S
N205 C202 1.367 . S
N205 C203 1.379 . S
C206 N208 1.298 . S
C206 N210 1.367 . S
C206 C214 1.481 . S
C207 N209 1.299 . S
C207 N210 1.379 . S
N208 Zn192 2.036 . S
N208 C206 1.298 . S
N208 N209 1.398 . S
N209 C207 1.299 . S
N209 N208 1.398 . S
N210 C206 1.367 . S
N210 C207 1.379 . S
H211 C214 0.980 . S
H212 C214 0.981 . S
H213 C214 0.981 . S
C214 C206 1.481 . S
C214 H211 0.980 . S
C214 H212 0.981 . S
C214 H213 0.981 . S
C215 C202 1.481 . S
C215 H216 0.980 . S
C215 H217 0.981 . S
C215 H218 0.981 . S
H216 C215 0.980 . S
H217 C215 0.981 . S
H218 C215 0.981 . S
O219 Zn195 2.066 . S
O219 C198 1.256 . S
O220 Zn192 2.053 . S
O220 C198 1.244 . S
C221 O199 1.259 . S
C221 O200 1.254 . S
O222 Zn192 2.066 . S
O222 C194 1.256 . S
O223 C194 1.244 . S
O223 Zn195 2.053 . S
Zn224 O225 2.055 . S
Zn224 O232 2.046 . S
Zn224 N240 2.036 . S
Zn224 O252 2.053 . S
Zn224 O254 2.066 . S
O225 Zn224 2.055 . S
O225 C228 1.259 . S
C226 O254 1.256 . S
C226 O255 1.244 . S
Zn227 O229 2.046 . S
Zn227 O231 2.055 . S
Zn227 N233 2.036 . S
Zn227 O251 2.066 . S
Zn227 O255 2.053 . S
C228 O225 1.259 . S
C228 O229 1.254 . S
O229 Zn227 2.046 . S
O229 C228 1.254 . S
C230 O251 1.256 . S
C230 O252 1.244 . S
O231 Zn227 2.055 . S
O231 C253 1.259 . S
O232 Zn224 2.046 . S
O232 C253 1.254 . S
N233 Zn227 2.036 . S
N233 C234 1.298 . S
N233 N236 1.398 . S
C234 N233 1.298 . S
C234 N237 1.367 . S
C234 C247 1.481 . S
C235 N236 1.299 . S
C235 N237 1.379 . S
N236 N233 1.398 . S
N236 C235 1.299 . S
N237 C234 1.367 . S
N237 C235 1.379 . S
C238 N240 1.298 . S
C238 N242 1.367 . S
C238 C246 1.481 . S
C239 N241 1.299 . S
C239 N242 1.379 . S
N240 Zn224 2.036 . S
N240 C238 1.298 . S
N240 N241 1.398 . S
N241 C239 1.299 . S
N241 N240 1.398 . S
N242 C238 1.367 . S
N242 C239 1.379 . S
H243 C246 0.980 . S
H244 C246 0.981 . S
H245 C246 0.981 . S
C246 C238 1.481 . S
C246 H243 0.980 . S
C246 H244 0.981 . S
C246 H245 0.981 . S
C247 C234 1.481 . S
C247 H248 0.980 . S
C247 H249 0.981 . S
C247 H250 0.981 . S
H248 C247 0.980 . S
H249 C247 0.981 . S
H250 C247 0.981 . S
O251 Zn227 2.066 . S
O251 C230 1.256 . S
O252 Zn224 2.053 . S
O252 C230 1.244 . S
C253 O231 1.259 . S
C253 O232 1.254 . S
O254 Zn224 2.066 . S
O254 C226 1.256 . S
O255 C226 1.244 . S
O255 Zn227 2.053 . S
Zn256 O257 2.055 . S
Zn256 O264 2.046 . S
Zn256 N272 2.036 . S
Zn256 O284 2.053 . S
Zn256 O286 2.066 . S
O257 Zn256 2.055 . S
O257 C260 1.259 . S
C258 O286 1.256 . S
C258 O287 1.244 . S
Zn259 O261 2.046 . S
Zn259 O263 2.055 . S
Zn259 N265 2.036 . S
Zn259 O283 2.066 . S
Zn259 O287 2.053 . S
C260 O257 1.259 . S
C260 O261 1.254 . S
O261 Zn259 2.046 . S
O261 C260 1.254 . S
C262 O283 1.256 . S
C262 O284 1.244 . S
O263 Zn259 2.055 . S
O263 C285 1.259 . S
O264 Zn256 2.046 . S
O264 C285 1.254 . S
N265 Zn259 2.036 . S
N265 C266 1.298 . S
N265 N268 1.398 . S
C266 N265 1.298 . S
C266 N269 1.367 . S
C266 C279 1.481 . S
C267 N268 1.299 . S
C267 N269 1.379 . S
N268 N265 1.398 . S
N268 C267 1.299 . S
N269 C266 1.367 . S
N269 C267 1.379 . S
C270 N272 1.298 . S
C270 N274 1.367 . S
C270 C278 1.481 . S
C271 N273 1.299 . S
C271 N274 1.379 . S
N272 Zn256 2.036 . S
N272 C270 1.298 . S
N272 N273 1.398 . S
N273 C271 1.299 . S
N273 N272 1.398 . S
N274 C270 1.367 . S
N274 C271 1.379 . S
H275 C278 0.980 . S
H276 C278 0.981 . S
H277 C278 0.981 . S
C278 C270 1.481 . S
C278 H275 0.980 . S
C278 H276 0.981 . S
C278 H277 0.981 . S
C279 C266 1.481 . S
C279 H280 0.980 . S
C279 H281 0.981 . S
C279 H282 0.981 . S
H280 C279 0.980 . S
H281 C279 0.981 . S
H282 C279 0.981 . S
O283 Zn259 2.066 . S
O283 C262 1.256 . S
O284 Zn256 2.053 . S
O284 C262 1.244 . S
C285 O263 1.259 . S
C285 O264 1.254 . S
O286 Zn256 2.066 . S
O286 C258 1.256 . S
O287 C258 1.244 . S
O287 Zn259 2.053 . S
C288 C289 1.391 . S
C288 C290 1.394 . S
C288 H304 0.931 . S
C289 C288 1.391 . S
C289 C293 1.376 . S
C290 C288 1.394 . S
C290 C291 1.369 . S
C290 C294 1.531 . S
C291 C290 1.369 . S
C291 C292 1.410 . S
C291 C299 1.503 . S
C292 C291 1.410 . S
C292 C293 1.392 . S
C292 C295 1.511 . S
C293 C289 1.376 . S
C293 C292 1.392 . S
C293 H305 0.929 . S
C294 C290 1.531 . S
C294 H306 0.960 . S
C294 H307 0.962 . S
C294 H308 0.960 . S
C295 C292 1.511 . S
C295 H309 0.961 . S
C295 H310 0.961 . S
C295 H311 0.961 . S
C296 C297 1.370 . S
C296 C298 1.363 . S
C296 H312 0.931 . S
C297 C296 1.370 . S
C297 C301 1.408 . S
C298 C296 1.363 . S
C298 C299 1.370 . S
C298 C302 1.524 . S
C299 C291 1.503 . S
C299 C298 1.370 . S
C299 C300 1.403 . S
C300 C299 1.403 . S
C300 C301 1.404 . S
C300 C303 1.539 1_554 S
C301 C297 1.408 . S
C301 C300 1.404 . S
C301 H313 0.930 1_554 S
C302 C298 1.524 . S
C302 H314 0.956 . S
C302 H315 0.961 . S
C302 H316 0.961 . S
C303 C300 1.539 1_556 S
C303 H317 0.958 . S
C303 H318 0.961 . S
C303 H319 0.960 . S
H304 C288 0.931 . S
H305 C293 0.929 . S
H306 C294 0.960 . S
H307 C294 0.962 . S
H308 C294 0.960 . S
H309 C295 0.961 . S
H310 C295 0.961 . S
H311 C295 0.961 . S
H312 C296 0.931 . S
H313 C301 0.930 1_556 S
H314 C302 0.956 . S
H315 C302 0.961 . S
H316 C302 0.961 . S
H317 C303 0.958 . S
H318 C303 0.961 . S
H319 C303 0.960 . S
C320 C321 1.391 . S
C320 C322 1.394 . S
C320 H336 0.931 . S
C321 C320 1.391 . S
C321 C325 1.376 . S
C322 C320 1.394 . S
C322 C323 1.369 . S
C322 C326 1.531 . S
C323 C322 1.369 . S
C323 C324 1.410 . S
C323 C331 1.503 . S
C324 C323 1.410 . S
C324 C325 1.392 . S
C324 C327 1.511 . S
C325 C321 1.376 . S
C325 C324 1.392 . S
C325 H337 0.929 . S
C326 C322 1.531 . S
C326 H338 0.960 . S
C326 H339 0.962 . S
C326 H340 0.960 . S
C327 C324 1.511 . S
C327 H341 0.961 . S
C327 H342 0.961 . S
C327 H343 0.961 . S
C328 C329 1.370 . S
C328 C330 1.363 . S
C328 H344 0.931 1_554 S
C329 C328 1.370 . S
C329 C333 1.408 . S
C330 C328 1.363 . S
C330 C331 1.370 . S
C330 C334 1.524 1_554 S
C331 C323 1.503 . S
C331 C330 1.370 . S
C331 C332 1.403 . S
C332 C331 1.403 . S
C332 C333 1.404 . S
C332 C335 1.539 . S
C333 C329 1.408 . S
C333 C332 1.404 . S
C333 H345 0.930 . S
C334 C330 1.524 1_556 S
C334 H346 0.956 . S
C334 H347 0.961 . S
C334 H348 0.961 . S
C335 C332 1.539 . S
C335 H349 0.958 . S
C335 H350 0.961 . S
C335 H351 0.960 . S
H336 C320 0.931 . S
H337 C325 0.929 . S
H338 C326 0.960 . S
H339 C326 0.962 . S
H340 C326 0.960 . S
H341 C327 0.961 . S
H342 C327 0.961 . S
H343 C327 0.961 . S
H344 C328 0.931 1_556 S
H345 C333 0.930 . S
H346 C334 0.956 . S
H347 C334 0.961 . S
H348 C334 0.961 . S
H349 C335 0.958 . S
H350 C335 0.961 . S
H351 C335 0.960 . S
C352 C353 1.391 . S
C352 C354 1.394 . S
C352 H368 0.931 . S
C353 C352 1.391 . S
C353 C357 1.376 . S
C354 C352 1.394 . S
C354 C355 1.369 . S
C354 C358 1.531 . S
C355 C354 1.369 . S
C355 C356 1.410 . S
C355 C363 1.503 . S
C356 C355 1.410 . S
C356 C357 1.392 . S
C356 C359 1.511 . S
C357 C353 1.376 . S
C357 C356 1.392 . S
C357 H369 0.929 . S
C358 C354 1.531 . S
C358 H370 0.960 . S
C358 H371 0.962 . S
C358 H372 0.960 . S
C359 C356 1.511 . S
C359 H373 0.961 . S
C359 H374 0.961 . S
C359 H375 0.961 1_554 S
C360 C361 1.370 . S
C360 C362 1.363 . S
C360 H376 0.931 . S
C361 C360 1.370 . S
C361 C365 1.408 . S
C362 C360 1.363 . S
C362 C363 1.370 . S
C362 C366 1.524 . S
C363 C355 1.503 . S
C363 C362 1.370 . S
C363 C364 1.403 . S
C364 C363 1.403 . S
C364 C365 1.404 . S
C364 C367 1.539 1_554 S
C365 C361 1.408 . S
C365 C364 1.404 . S
C365 H377 0.930 1_554 S
C366 C362 1.524 . S
C366 H378 0.956 . S
C366 H379 0.961 . S
C366 H380 0.961 . S
C367 C364 1.539 1_556 S
C367 H381 0.958 . S
C367 H382 0.961 . S
C367 H383 0.960 . S
H368 C352 0.931 . S
H369 C357 0.929 . S
H370 C358 0.960 . S
H371 C358 0.962 . S
H372 C358 0.960 . S
H373 C359 0.961 . S
H374 C359 0.961 . S
H375 C359 0.961 1_556 S
H376 C360 0.931 . S
H377 C365 0.930 1_556 S
H378 C366 0.956 . S
H379 C366 0.961 . S
H380 C366 0.961 . S
H381 C367 0.958 . S
H382 C367 0.961 . S
H383 C367 0.960 . S
C384 C385 1.391 . S
C384 C386 1.394 . S
C384 H400 0.931 1_554 S
C385 C384 1.391 . S
C385 C389 1.376 . S
C386 C384 1.394 . S
C386 C387 1.369 . S
C386 C390 1.531 1_554 S
C387 C386 1.369 . S
C387 C388 1.410 . S
C387 C395 1.503 . S
C388 C387 1.410 . S
C388 C389 1.392 . S
C388 C391 1.511 . S
C389 C385 1.376 . S
C389 C388 1.392 . S
C389 H401 0.929 . S
C390 C386 1.531 1_556 S
C390 H402 0.960 . S
C390 H403 0.962 . S
C390 H404 0.960 . S
C391 C388 1.511 . S
C391 H405 0.961 . S
C391 H406 0.961 . S
C391 H407 0.961 . S
C392 C393 1.370 . S
C392 C394 1.363 . S
C392 H408 0.931 . S
C393 C392 1.370 . S
C393 C397 1.408 . S
C394 C392 1.363 . S
C394 C395 1.370 . S
C394 C398 1.524 . S
C395 C387 1.503 . S
C395 C394 1.370 . S
C395 C396 1.403 . S
C396 C395 1.403 . S
C396 C397 1.404 . S
C396 C399 1.539 . S
C397 C393 1.408 . S
C397 C396 1.404 . S
C397 H409 0.930 . S
C398 C394 1.524 . S
C398 H410 0.956 . S
C398 H411 0.961 . S
C398 H412 0.961 . S
C399 C396 1.539 . S
C399 H413 0.958 . S
C399 H414 0.961 . S
C399 H415 0.960 . S
H400 C384 0.931 1_556 S
H401 C389 0.929 . S
H402 C390 0.960 . S
H403 C390 0.962 . S
H404 C390 0.960 . S
H405 C391 0.961 . S
H406 C391 0.961 . S
H407 C391 0.961 . S
H408 C392 0.931 . S
H409 C397 0.930 . S
H410 C398 0.956 . S
H411 C398 0.961 . S
H412 C398 0.961 . S
H413 C399 0.958 . S
H414 C399 0.961 . S
H415 C399 0.960 . S
C416 C417 1.391 . S
C416 C418 1.394 . S
C416 H432 0.931 1_554 S
C417 C416 1.391 . S
C417 C421 1.376 . S
C418 C416 1.394 . S
C418 C419 1.369 . S
C418 C422 1.531 1_554 S
C419 C418 1.369 . S
C419 C420 1.410 . S
C419 C427 1.503 . S
C420 C419 1.410 . S
C420 C421 1.392 . S
C420 C423 1.511 . S
C421 C417 1.376 . S
C421 C420 1.392 . S
C421 H433 0.929 . S
C422 C418 1.531 1_556 S
C422 H434 0.960 . S
C422 H435 0.962 . S
C422 H436 0.960 . S
C423 C420 1.511 . S
C423 H437 0.961 . S
C423 H438 0.961 . S
C423 H439 0.961 . S
C424 C425 1.370 . S
C424 C426 1.363 . S
C424 H440 0.931 . S
C425 C424 1.370 . S
C425 C429 1.408 . S
C426 C424 1.363 . S
C426 C427 1.370 . S
C426 C430 1.524 . S
C427 C419 1.503 . S
C427 C426 1.370 . S
C427 C428 1.403 . S
C428 C427 1.403 . S
C428 C429 1.404 . S
C428 C431 1.539 . S
C429 C425 1.408 . S
C429 C428 1.404 . S
C429 H441 0.930 . S
C430 C426 1.524 . S
C430 H442 0.956 . S
C430 H443 0.961 . S
C430 H444 0.961 . S
C431 C428 1.539 . S
C431 H445 0.958 . S
C431 H446 0.961 . S
C431 H447 0.960 . S
H432 C416 0.931 1_556 S
H433 C421 0.929 . S
H434 C422 0.960 . S
H435 C422 0.962 . S
H436 C422 0.960 . S
H437 C423 0.961 . S
H438 C423 0.961 . S
H439 C423 0.961 . S
H440 C424 0.931 . S
H441 C429 0.930 . S
H442 C430 0.956 . S
H443 C430 0.961 . S
H444 C430 0.961 . S
H445 C431 0.958 . S
H446 C431 0.961 . S
H447 C431 0.960 . S
C448 C449 1.391 . S
C448 C450 1.394 . S
C448 H464 0.931 . S
C449 C448 1.391 . S
C449 C453 1.376 . S
C450 C448 1.394 . S
C450 C451 1.369 . S
C450 C454 1.531 . S
C451 C450 1.369 . S
C451 C452 1.410 . S
C451 C459 1.503 . S
C452 C451 1.410 . S
C452 C453 1.392 . S
C452 C455 1.511 . S
C453 C449 1.376 . S
C453 C452 1.392 . S
C453 H465 0.929 . S
C454 C450 1.531 . S
C454 H466 0.960 . S
C454 H467 0.962 . S
C454 H468 0.960 . S
C455 C452 1.511 . S
C455 H469 0.961 . S
C455 H470 0.961 . S
C455 H471 0.961 . S
C456 C457 1.370 . S
C456 C458 1.363 . S
C456 H472 0.931 1_554 S
C457 C456 1.370 . S
C457 C461 1.408 . S
C458 C456 1.363 . S
C458 C459 1.370 . S
C458 C462 1.524 1_554 S
C459 C451 1.503 . S
C459 C458 1.370 . S
C459 C460 1.403 . S
C460 C459 1.403 . S
C460 C461 1.404 . S
C460 C463 1.539 . S
C461 C457 1.408 . S
C461 C460 1.404 . S
C461 H473 0.930 . S
C462 C458 1.524 1_556 S
C462 H474 0.956 . S
C462 H475 0.961 . S
C462 H476 0.961 . S
C463 C460 1.539 . S
C463 H477 0.958 . S
C463 H478 0.961 . S
C463 H479 0.960 . S
H464 C448 0.931 . S
H465 C453 0.929 . S
H466 C454 0.960 . S
H467 C454 0.962 . S
H468 C454 0.960 . S
H469 C455 0.961 . S
H470 C455 0.961 . S
H471 C455 0.961 . S
H472 C456 0.931 1_556 S
H473 C461 0.930 . S
H474 C462 0.956 . S
H475 C462 0.961 . S
H476 C462 0.961 . S
H477 C463 0.958 . S
H478 C463 0.961 . S
H479 C463 0.960 . S
C480 C481 1.391 . S
C480 C482 1.394 . S
C480 H496 0.931 . S
C481 C480 1.391 . S
C481 C485 1.376 . S
C482 C480 1.394 . S
C482 C483 1.369 . S
C482 C486 1.531 . S
C483 C482 1.369 . S
C483 C484 1.410 . S
C483 C491 1.503 . S
C484 C483 1.410 . S
C484 C485 1.392 . S
C484 C487 1.511 . S
C485 C481 1.376 . S
C485 C484 1.392 . S
C485 H497 0.929 . S
C486 C482 1.531 . S
C486 H498 0.960 . S
C486 H499 0.962 . S
C486 H500 0.960 . S
C487 C484 1.511 . S
C487 H501 0.961 . S
C487 H502 0.961 . S
C487 H503 0.961 . S
C488 C489 1.370 . S
C488 C490 1.363 1_455 S
C488 H504 0.931 . S
C489 C488 1.370 . S
C489 C493 1.408 . S
C490 C488 1.363 1_655 S
C490 C491 1.370 . S
C490 C494 1.524 . S
C491 C483 1.503 . S
C491 C490 1.370 . S
C491 C492 1.403 1_655 S
C492 C491 1.403 1_455 S
C492 C493 1.404 . S
C492 C495 1.539 . S
C493 C489 1.408 . S
C493 C492 1.404 . S
C493 H505 0.930 . S
C494 C490 1.524 . S
C494 H506 0.956 . S
C494 H507 0.961 . S
C494 H508 0.961 . S
C495 C492 1.539 . S
C495 H509 0.958 . S
C495 H510 0.961 . S
C495 H511 0.960 1_455 S
H496 C480 0.931 . S
H497 C485 0.929 . S
H498 C486 0.960 . S
H499 C486 0.962 . S
H500 C486 0.960 . S
H501 C487 0.961 . S
H502 C487 0.961 . S
H503 C487 0.961 . S
H504 C488 0.931 . S
H505 C493 0.930 . S
H506 C494 0.956 . S
H507 C494 0.961 . S
H508 C494 0.961 . S
H509 C495 0.958 . S
H510 C495 0.961 . S
H511 C495 0.960 1_655 S
C512 C513 1.391 . S
C512 C514 1.394 . S
C512 H528 0.931 . S
C513 C512 1.391 . S
C513 C517 1.376 . S
C514 C512 1.394 . S
C514 C515 1.369 . S
C514 C518 1.531 . S
C515 C514 1.369 . S
C515 C516 1.410 . S
C515 C523 1.503 . S
C516 C515 1.410 . S
C516 C517 1.392 . S
C516 C519 1.511 . S
C517 C513 1.376 . S
C517 C516 1.392 . S
C517 H529 0.929 . S
C518 C514 1.531 . S
C518 H530 0.960 . S
C518 H531 0.962 . S
C518 H532 0.960 . S
C519 C516 1.511 . S
C519 H533 0.961 . S
C519 H534 0.961 . S
C519 H535 0.961 . S
C520 C521 1.370 . S
C520 C522 1.363 . S
C520 H536 0.931 . S
C521 C520 1.370 . S
C521 C525 1.408 . S
C522 C520 1.363 . S
C522 C523 1.370 . S
C522 C526 1.524 . S
C523 C515 1.503 . S
C523 C522 1.370 . S
C523 C524 1.403 . S
C524 C523 1.403 . S
C524 C525 1.404 . S
C524 C527 1.539 . S
C525 C521 1.408 . S
C525 C524 1.404 . S
C525 H537 0.930 . S
C526 C522 1.524 . S
C526 H538 0.956 . S
C526 H539 0.961 . S
C526 H540 0.961 . S
C527 C524 1.539 . S
C527 H541 0.958 . S
C527 H542 0.961 . S
C527 H543 0.960 . S
H528 C512 0.931 . S
H529 C517 0.929 . S
H530 C518 0.960 . S
H531 C518 0.962 . S
H532 C518 0.960 . S
H533 C519 0.961 . S
H534 C519 0.961 . S
H535 C519 0.961 . S
H536 C520 0.931 . S
H537 C525 0.930 . S
H538 C526 0.956 . S
H539 C526 0.961 . S
H540 C526 0.961 . S
H541 C527 0.958 . S
H542 C527 0.961 . S
H543 C527 0.960 . S
C544 C545 1.391 1_655 S
C544 C546 1.394 . S
C544 H560 0.931 . S
C545 C544 1.391 1_455 S
C545 C549 1.376 . S
C546 C544 1.394 . S
C546 C547 1.369 . S
C546 C550 1.531 . S
C547 C546 1.369 . S
C547 C548 1.410 . S
C547 C555 1.503 . S
C548 C547 1.410 . S
C548 C549 1.392 1_655 S
C548 C551 1.511 . S
C549 C545 1.376 . S
C549 C548 1.392 1_455 S
C549 H561 0.929 . S
C550 C546 1.531 . S
C550 H562 0.960 . S
C550 H563 0.962 . S
C550 H564 0.960 . S
C551 C548 1.511 . S
C551 H565 0.961 . S
C551 H566 0.961 . S
C551 H567 0.961 1_655 S
C552 C553 1.370 1_545 S
C552 C554 1.363 . S
C552 H568 0.931 1_545 S
C553 C552 1.370 1_565 S
C553 C557 1.408 . S
C554 C552 1.363 . S
C554 C555 1.370 . S
C554 C558 1.524 . S
C555 C547 1.503 . S
C555 C554 1.370 . S
C555 C556 1.403 . S
C556 C555 1.403 . S
C556 C557 1.404 1_545 S
C556 C559 1.539 . S
C557 C553 1.408 . S
C557 C556 1.404 1_565 S
C557 H569 0.930 . S
C558 C554 1.524 . S
C558 H570 0.956 . S
C558 H571 0.961 . S
C558 H572 0.961 . S
C559 C556 1.539 . S
C559 H573 0.958 . S
C559 H574 0.961 . S
C559 H575 0.960 . S
H560 C544 0.931 . S
H561 C549 0.929 . S
H562 C550 0.960 . S
H563 C550 0.962 . S
H564 C550 0.960 . S
H565 C551 0.961 . S
H566 C551 0.961 . S
H567 C551 0.961 1_455 S
H568 C552 0.931 1_565 S
H569 C557 0.930 . S
H570 C558 0.956 . S
H571 C558 0.961 . S
H572 C558 0.961 . S
H573 C559 0.958 . S
H574 C559 0.961 . S
H575 C559 0.960 . S
C576 C577 1.391 . S
C576 C578 1.394 . S
C576 H592 0.931 . S
C577 C576 1.391 . S
C577 C581 1.376 . S
C578 C576 1.394 . S
C578 C579 1.369 . S
C578 C582 1.531 . S
C579 C578 1.369 . S
C579 C580 1.410 . S
C579 C587 1.503 . S
C580 C579 1.410 . S
C580 C581 1.392 . S
C580 C583 1.511 . S
C581 C577 1.376 . S
C581 C580 1.392 . S
C581 H593 0.929 . S
C582 C578 1.531 . S
C582 H594 0.960 . S
C582 H595 0.962 . S
C582 H596 0.960 . S
C583 C580 1.511 . S
C583 H597 0.961 . S
C583 H598 0.961 . S
C583 H599 0.961 . S
C584 C585 1.370 . S
C584 C586 1.363 . S
C584 H600 0.931 . S
C585 C584 1.370 . S
C585 C589 1.408 . S
C586 C584 1.363 . S
C586 C587 1.370 . S
C586 C590 1.524 . S
C587 C579 1.503 . S
C587 C586 1.370 . S
C587 C588 1.403 . S
C588 C587 1.403 . S
C588 C589 1.404 . S
C588 C591 1.539 . S
C589 C585 1.408 . S
C589 C588 1.404 . S
C589 H601 0.930 . S
C590 C586 1.524 . S
C590 H602 0.956 . S
C590 H603 0.961 . S
C590 H604 0.961 . S
C591 C588 1.539 . S
C591 H605 0.958 . S
C591 H606 0.961 . S
C591 H607 0.960 . S
H592 C576 0.931 . S
H593 C581 0.929 . S
H594 C582 0.960 . S
H595 C582 0.962 . S
H596 C582 0.960 . S
H597 C583 0.961 . S
H598 C583 0.961 . S
H599 C583 0.961 . S
H600 C584 0.931 . S
H601 C589 0.930 . S
H602 C590 0.956 . S
H603 C590 0.961 . S
H604 C590 0.961 . S
H605 C591 0.958 . S
H606 C591 0.961 . S
H607 C591 0.960 . S
C608 C609 1.391 . S
C608 C610 1.394 . S
C608 H624 0.931 . S
C609 C608 1.391 . S
C609 C613 1.376 . S
C610 C608 1.394 . S
C610 C611 1.369 . S
C610 C614 1.531 . S
C611 C610 1.369 . S
C611 C612 1.410 . S
C611 C619 1.503 . S
C612 C611 1.410 . S
C612 C613 1.392 . S
C612 C615 1.511 . S
C613 C609 1.376 . S
C613 C612 1.392 . S
C613 H625 0.929 . S
C614 C610 1.531 . S
C614 H626 0.960 . S
C614 H627 0.962 . S
C614 H628 0.960 . S
C615 C612 1.511 . S
C615 H629 0.961 . S
C615 H630 0.961 . S
C615 H631 0.961 . S
C616 C617 1.370 . S
C616 C618 1.363 . S
C616 H632 0.931 . S
C617 C616 1.370 . S
C617 C621 1.408 . S
C618 C616 1.363 . S
C618 C619 1.370 . S
C618 C622 1.524 . S
C619 C611 1.503 . S
C619 C618 1.370 . S
C619 C620 1.403 . S
C620 C619 1.403 . S
C620 C621 1.404 . S
C620 C623 1.539 . S
C621 C617 1.408 . S
C621 C620 1.404 . S
C621 H633 0.930 . S
C622 C618 1.524 . S
C622 H634 0.956 . S
C622 H635 0.961 . S
C622 H636 0.961 . S
C623 C620 1.539 . S
C623 H637 0.958 . S
C623 H638 0.961 . S
C623 H639 0.960 . S
H624 C608 0.931 . S
H625 C613 0.929 . S
H626 C614 0.960 . S
H627 C614 0.962 . S
H628 C614 0.960 . S
H629 C615 0.961 . S
H630 C615 0.961 . S
H631 C615 0.961 . S
H632 C616 0.931 . S
H633 C621 0.930 . S
H634 C622 0.956 . S
H635 C622 0.961 . S
H636 C622 0.961 . S
H637 C623 0.958 . S
H638 C623 0.961 . S
H639 C623 0.960 . S
C640 C641 1.391 . S
C640 C642 1.394 . S
C640 H656 0.931 . S
C641 C640 1.391 . S
C641 C645 1.376 . S
C642 C640 1.394 . S
C642 C643 1.369 . S
C642 C646 1.531 . S
C643 C642 1.369 . S
C643 C644 1.410 . S
C643 C651 1.503 . S
C644 C643 1.410 . S
C644 C645 1.392 . S
C644 C647 1.511 . S
C645 C641 1.376 . S
C645 C644 1.392 . S
C645 H657 0.929 . S
C646 C642 1.531 . S
C646 H658 0.960 . S
C646 H659 0.962 . S
C646 H660 0.960 . S
C647 C644 1.511 . S
C647 H661 0.961 . S
C647 H662 0.961 . S
C647 H663 0.961 . S
C648 C649 1.370 . S
C648 C650 1.363 . S
C648 H664 0.931 . S
C649 C648 1.370 . S
C649 C653 1.408 . S
C650 C648 1.363 . S
C650 C651 1.370 . S
C650 C654 1.524 . S
C651 C643 1.503 . S
C651 C650 1.370 . S
C651 C652 1.403 . S
C652 C651 1.403 . S
C652 C653 1.404 . S
C652 C655 1.539 . S
C653 C649 1.408 . S
C653 C652 1.404 . S
C653 H665 0.930 . S
C654 C650 1.524 . S
C654 H666 0.956 . S
C654 H667 0.961 . S
C654 H668 0.961 . S
C655 C652 1.539 . S
C655 H669 0.958 . S
C655 H670 0.961 . S
C655 H671 0.960 . S
H656 C640 0.931 . S
H657 C645 0.929 . S
H658 C646 0.960 . S
H659 C646 0.962 . S
H660 C646 0.960 . S
H661 C647 0.961 . S
H662 C647 0.961 . S
H663 C647 0.961 . S
H664 C648 0.931 . S
H665 C653 0.930 . S
H666 C654 0.956 . S
H667 C654 0.961 . S
H668 C654 0.961 . S
H669 C655 0.958 . S
H670 C655 0.961 . S
H671 C655 0.960 . S
C672 C673 1.391 . S
C672 C674 1.394 . S
C672 H688 0.931 . S
C673 C672 1.391 . S
C673 C677 1.376 . S
C674 C672 1.394 . S
C674 C675 1.369 . S
C674 C678 1.531 . S
C675 C674 1.369 . S
C675 C676 1.410 . S
C675 C683 1.503 . S
C676 C675 1.410 . S
C676 C677 1.392 . S
C676 C679 1.511 . S
C677 C673 1.376 . S
C677 C676 1.392 . S
C677 H689 0.929 . S
C678 C674 1.531 . S
C678 H690 0.960 . S
C678 H691 0.962 . S
C678 H692 0.960 . S
C679 C676 1.511 . S
C679 H693 0.961 . S
C679 H694 0.961 . S
C679 H695 0.961 . S
C680 C681 1.370 . S
C680 C682 1.363 . S
C680 H696 0.931 . S
C681 C680 1.370 . S
C681 C685 1.408 . S
C682 C680 1.363 . S
C682 C683 1.370 . S
C682 C686 1.524 . S
C683 C675 1.503 . S
C683 C682 1.370 . S
C683 C684 1.403 . S
C684 C683 1.403 . S
C684 C685 1.404 . S
C684 C687 1.539 . S
C685 C681 1.408 . S
C685 C684 1.404 . S
C685 H697 0.930 . S
C686 C682 1.524 . S
C686 H698 0.956 . S
C686 H699 0.961 . S
C686 H700 0.961 . S
C687 C684 1.539 . S
C687 H701 0.958 . S
C687 H702 0.961 . S
C687 H703 0.960 . S
H688 C672 0.931 . S
H689 C677 0.929 . S
H690 C678 0.960 . S
H691 C678 0.962 . S
H692 C678 0.960 . S
H693 C679 0.961 . S
H694 C679 0.961 . S
H695 C679 0.961 . S
H696 C680 0.931 . S
H697 C685 0.930 . S
H698 C686 0.956 . S
H699 C686 0.961 . S
H700 C686 0.961 . S
H701 C687 0.958 . S
H702 C687 0.961 . S
H703 C687 0.960 . S
C704 C705 1.391 . S
C704 C706 1.394 . S
C704 H720 0.931 . S
C705 C704 1.391 . S
C705 C709 1.376 . S
C706 C704 1.394 . S
C706 C707 1.369 . S
C706 C710 1.531 . S
C707 C706 1.369 . S
C707 C708 1.410 . S
C707 C715 1.503 . S
C708 C707 1.410 . S
C708 C709 1.392 . S
C708 C711 1.511 . S
C709 C705 1.376 . S
C709 C708 1.392 . S
C709 H721 0.929 . S
C710 C706 1.531 . S
C710 H722 0.960 . S
C710 H723 0.962 . S
C710 H724 0.960 . S
C711 C708 1.511 . S
C711 H725 0.961 . S
C711 H726 0.961 . S
C711 H727 0.961 . S
C712 C713 1.370 . S
C712 C714 1.363 . S
C712 H728 0.931 . S
C713 C712 1.370 . S
C713 C717 1.408 . S
C714 C712 1.363 . S
C714 C715 1.370 . S
C714 C718 1.524 . S
C715 C707 1.503 . S
C715 C714 1.370 . S
C715 C716 1.403 . S
C716 C715 1.403 . S
C716 C717 1.404 . S
C716 C719 1.539 . S
C717 C713 1.408 . S
C717 C716 1.404 . S
C717 H729 0.930 . S
C718 C714 1.524 . S
C718 H730 0.956 . S
C718 H731 0.961 . S
C718 H732 0.961 . S
C719 C716 1.539 . S
C719 H733 0.958 . S
C719 H734 0.961 . S
C719 H735 0.960 . S
H720 C704 0.931 . S
H721 C709 0.929 . S
H722 C710 0.960 . S
H723 C710 0.962 . S
H724 C710 0.960 . S
H725 C711 0.961 . S
H726 C711 0.961 . S
H727 C711 0.961 . S
H728 C712 0.931 . S
H729 C717 0.930 . S
H730 C718 0.956 . S
H731 C718 0.961 . S
H732 C718 0.961 . S
H733 C719 0.958 . S
H734 C719 0.961 . S
H735 C719 0.960 . S
C736 C737 1.391 . S
C736 C738 1.394 . S
C736 H752 0.931 . S
C737 C736 1.391 . S
C737 C741 1.376 . S
C738 C736 1.394 . S
C738 C739 1.369 . S
C738 C742 1.531 . S
C739 C738 1.369 . S
C739 C740 1.410 . S
C739 C747 1.503 . S
C740 C739 1.410 . S
C740 C741 1.392 . S
C740 C743 1.511 . S
C741 C737 1.376 . S
C741 C740 1.392 . S
C741 H753 0.929 . S
C742 C738 1.531 . S
C742 H754 0.960 . S
C742 H755 0.962 . S
C742 H756 0.960 . S
C743 C740 1.511 . S
C743 H757 0.961 . S
C743 H758 0.961 . S
C743 H759 0.961 . S
C744 C745 1.370 . S
C744 C746 1.363 . S
C744 H760 0.931 . S
C745 C744 1.370 . S
C745 C749 1.408 . S
C746 C744 1.363 . S
C746 C747 1.370 . S
C746 C750 1.524 . S
C747 C739 1.503 . S
C747 C746 1.370 . S
C747 C748 1.403 . S
C748 C747 1.403 . S
C748 C749 1.404 . S
C748 C751 1.539 . S
C749 C745 1.408 . S
C749 C748 1.404 . S
C749 H761 0.930 . S
C750 C746 1.524 . S
C750 H762 0.956 . S
C750 H763 0.961 . S
C750 H764 0.961 . S
C751 C748 1.539 . S
C751 H765 0.958 . S
C751 H766 0.961 . S
C751 H767 0.960 . S
H752 C736 0.931 . S
H753 C741 0.929 . S
H754 C742 0.960 . S
H755 C742 0.962 . S
H756 C742 0.960 . S
H757 C743 0.961 . S
H758 C743 0.961 . S
H759 C743 0.961 . S
H760 C744 0.931 . S
H761 C749 0.930 . S
H762 C750 0.956 . S
H763 C750 0.961 . S
H764 C750 0.961 . S
H765 C751 0.958 . S
H766 C751 0.961 . S
H767 C751 0.960 . S
C768 C769 1.391 . S
C768 C770 1.394 . S
C768 H784 0.931 . S
C769 C768 1.391 . S
C769 C773 1.376 . S
C770 C768 1.394 . S
C770 C771 1.369 . S
C770 C774 1.531 . S
C771 C770 1.369 . S
C771 C772 1.410 . S
C771 C779 1.503 . S
C772 C771 1.410 . S
C772 C773 1.392 . S
C772 C775 1.511 . S
C773 C769 1.376 . S
C773 C772 1.392 . S
C773 H785 0.929 . S
C774 C770 1.531 . S
C774 H786 0.960 . S
C774 H787 0.962 . S
C774 H788 0.960 . S
C775 C772 1.511 . S
C775 H789 0.961 . S
C775 H790 0.961 . S
C775 H791 0.961 . S
C776 C777 1.370 . S
C776 C778 1.363 1_545 S
C776 H792 0.931 . S
C777 C776 1.370 . S
C777 C781 1.408 . S
C778 C776 1.363 1_565 S
C778 C779 1.370 . S
C778 C782 1.524 . S
C779 C771 1.503 . S
C779 C778 1.370 . S
C779 C780 1.403 1_565 S
C780 C779 1.403 1_545 S
C780 C781 1.404 . S
C780 C783 1.539 1_545 S
C781 C777 1.408 . S
C781 C780 1.404 . S
C781 H793 0.930 . S
C782 C778 1.524 . S
C782 H794 0.956 . S
C782 H795 0.961 . S
C782 H796 0.961 . S
C783 C780 1.539 1_565 S
C783 H797 0.958 . S
C783 H798 0.961 1_565 S
C783 H799 0.960 . S
H784 C768 0.931 . S
H785 C773 0.929 . S
H786 C774 0.960 . S
H787 C774 0.962 . S
H788 C774 0.960 . S
H789 C775 0.961 . S
H790 C775 0.961 . S
H791 C775 0.961 . S
H792 C776 0.931 . S
H793 C781 0.930 . S
H794 C782 0.956 . S
H795 C782 0.961 . S
H796 C782 0.961 . S
H797 C783 0.958 . S
H798 C783 0.961 1_545 S
H799 C783 0.960 . S
C800 C801 1.391 . S
C800 C802 1.394 1_655 S
C800 H816 0.931 . S
C801 C800 1.391 . S
C801 C805 1.376 1_655 S
C802 C800 1.394 1_455 S
C802 C803 1.369 . S
C802 C806 1.531 . S
C803 C802 1.369 . S
C803 C804 1.410 . S
C803 C811 1.503 . S
C804 C803 1.410 . S
C804 C805 1.392 . S
C804 C807 1.511 . S
C805 C801 1.376 1_455 S
C805 C804 1.392 . S
C805 H817 0.929 1_455 S
C806 C802 1.531 . S
C806 H818 0.960 . S
C806 H819 0.962 . S
C806 H820 0.960 . S
C807 C804 1.511 . S
C807 H821 0.961 . S
C807 H822 0.961 . S
C807 H823 0.961 . S
C808 C809 1.370 1_565 S
C808 C810 1.363 . S
C808 H824 0.931 1_565 S
C809 C808 1.370 1_545 S
C809 C813 1.408 1_545 S
C810 C808 1.363 . S
C810 C811 1.370 . S
C810 C814 1.524 . S
C811 C803 1.503 . S
C811 C810 1.370 . S
C811 C812 1.403 . S
C812 C811 1.403 . S
C812 C813 1.404 . S
C812 C815 1.539 . S
C813 C809 1.408 1_565 S
C813 C812 1.404 . S
C813 H825 0.930 1_565 S
C814 C810 1.524 . S
C814 H826 0.956 . S
C814 H827 0.961 . S
C814 H828 0.961 . S
C815 C812 1.539 . S
C815 H829 0.958 . S
C815 H830 0.961 . S
C815 H831 0.960 . S
H816 C800 0.931 . S
H817 C805 0.929 1_655 S
H818 C806 0.960 . S
H819 C806 0.962 . S
H820 C806 0.960 . S
H821 C807 0.961 . S
H822 C807 0.961 . S
H823 C807 0.961 . S
H824 C808 0.931 1_545 S
H825 C813 0.930 1_545 S
H826 C814 0.956 . S
H827 C814 0.961 . S
H828 C814 0.961 . S
H829 C815 0.958 . S
H830 C815 0.961 . S
H831 C815 0.960 . S
C832 C833 1.391 . S
C832 C834 1.394 . S
C832 H848 0.931 . S
C833 C832 1.391 . S
C833 C837 1.376 . S
C834 C832 1.394 . S
C834 C835 1.369 . S
C834 C838 1.531 . S
C835 C834 1.369 . S
C835 C836 1.410 . S
C835 C843 1.503 . S
C836 C835 1.410 . S
C836 C837 1.392 . S
C836 C839 1.511 . S
C837 C833 1.376 . S
C837 C836 1.392 . S
C837 H849 0.929 . S
C838 C834 1.531 . S
C838 H850 0.960 . S
C838 H851 0.962 . S
C838 H852 0.960 . S
C839 C836 1.511 . S
C839 H853 0.961 . S
C839 H854 0.961 . S
C839 H855 0.961 . S
C840 C841 1.370 . S
C840 C842 1.363 . S
C840 H856 0.931 . S
C841 C840 1.370 . S
C841 C845 1.408 . S
C842 C840 1.363 . S
C842 C843 1.370 . S
C842 C846 1.524 . S
C843 C835 1.503 . S
C843 C842 1.370 . S
C843 C844 1.403 . S
C844 C843 1.403 . S
C844 C845 1.404 . S
C844 C847 1.539 . S
C845 C841 1.408 . S
C845 C844 1.404 . S
C845 H857 0.930 . S
C846 C842 1.524 . S
C846 H858 0.956 . S
C846 H859 0.961 . S
C846 H860 0.961 . S
C847 C844 1.539 . S
C847 H861 0.958 . S
C847 H862 0.961 . S
C847 H863 0.960 . S
H848 C832 0.931 . S
H849 C837 0.929 . S
H850 C838 0.960 . S
H851 C838 0.962 . S
H852 C838 0.960 . S
H853 C839 0.961 . S
H854 C839 0.961 . S
H855 C839 0.961 . S
H856 C840 0.931 . S
H857 C845 0.930 . S
H858 C846 0.956 . S
H859 C846 0.961 . S
H860 C846 0.961 . S
H861 C847 0.958 . S
H862 C847 0.961 . S
H863 C847 0.960 . S
C864 C865 1.391 . S
C864 C866 1.394 . S
C864 H880 0.931 . S
C865 C864 1.391 . S
C865 C869 1.376 . S
C866 C864 1.394 . S
C866 C867 1.369 . S
C866 C870 1.531 . S
C867 C866 1.369 . S
C867 C868 1.410 . S
C867 C875 1.503 . S
C868 C867 1.410 . S
C868 C869 1.392 . S
C868 C871 1.511 . S
C869 C865 1.376 . S
C869 C868 1.392 . S
C869 H881 0.929 . S
C870 C866 1.531 . S
C870 H882 0.960 . S
C870 H883 0.962 . S
C870 H884 0.954 1_455 S
C871 C868 1.511 . S
C871 H885 0.961 . S
C871 H886 0.961 . S
C871 H887 0.961 . S
C872 C873 1.370 . S
C872 C874 1.363 . S
C872 H888 0.931 . S
C873 C872 1.370 . S
C873 C877 1.408 . S
C874 C872 1.363 . S
C874 C875 1.370 . S
C874 C878 1.524 . S
C875 C867 1.503 . S
C875 C874 1.370 . S
C875 C876 1.403 . S
C876 C875 1.403 . S
C876 C877 1.404 . S
C876 C879 1.539 . S
C877 C873 1.408 . S
C877 C876 1.404 . S
C877 H889 0.930 . S
C878 C874 1.524 . S
C878 H890 0.956 . S
C878 H891 0.961 . S
C878 H892 0.961 . S
C879 C876 1.539 . S
C879 H893 0.958 1_455 S
C879 H894 0.961 . S
C879 H895 0.960 . S
H880 C864 0.931 . S
H881 C869 0.929 . S
H882 C870 0.960 . S
H883 C870 0.962 . S
H884 C870 0.954 1_655 S
H885 C871 0.961 . S
H886 C871 0.961 . S
H887 C871 0.961 . S
H888 C872 0.931 . S
H889 C877 0.930 . S
H890 C878 0.956 . S
H891 C878 0.961 . S
H892 C878 0.961 . S
H893 C879 0.958 1_655 S
H894 C879 0.961 . S
H895 C879 0.960 . S
C896 C897 1.391 . S
C896 C898 1.394 . S
C896 H912 0.931 . S
C897 C896 1.391 . S
C897 C901 1.376 . S
C898 C896 1.394 . S
C898 C899 1.369 . S
C898 C902 1.531 . S
C899 C898 1.369 . S
C899 C900 1.410 . S
C899 C907 1.503 . S
C900 C899 1.410 . S
C900 C901 1.392 . S
C900 C903 1.511 . S
C901 C897 1.376 . S
C901 C900 1.392 . S
C901 H913 0.929 . S
C902 C898 1.531 . S
C902 H914 0.960 . S
C902 H915 0.962 . S
C902 H916 0.960 . S
C903 C900 1.511 . S
C903 H917 0.961 . S
C903 H918 0.961 . S
C903 H919 0.961 . S
C904 C905 1.370 . S
C904 C906 1.363 . S
C904 H920 0.931 . S
C905 C904 1.370 . S
C905 C909 1.408 . S
C906 C904 1.363 . S
C906 C907 1.370 . S
C906 C910 1.524 . S
C907 C899 1.503 . S
C907 C906 1.370 . S
C907 C908 1.403 . S
C908 C907 1.403 . S
C908 C909 1.404 . S
C908 C911 1.539 . S
C909 C905 1.408 . S
C909 C908 1.404 . S
C909 H921 0.930 . S
C910 C906 1.524 . S
C910 H922 0.956 . S
C910 H923 0.961 . S
C910 H924 0.961 . S
C911 C908 1.539 . S
C911 H925 0.958 . S
C911 H926 0.961 . S
C911 H927 0.960 . S
H912 C896 0.931 . S
H913 C901 0.929 . S
H914 C902 0.960 . S
H915 C902 0.962 . S
H916 C902 0.960 . S
H917 C903 0.961 . S
H918 C903 0.961 . S
H919 C903 0.961 . S
H920 C904 0.931 . S
H921 C909 0.930 . S
H922 C910 0.956 . S
H923 C910 0.961 . S
H924 C910 0.961 . S
H925 C911 0.958 . S
H926 C911 0.961 . S
H927 C911 0.960 . S
C928 C929 1.391 . S
C928 C930 1.394 . S
C928 H944 0.931 . S
C929 C928 1.391 . S
C929 C933 1.376 . S
C930 C928 1.394 . S
C930 C931 1.369 . S
C930 C934 1.531 . S
C931 C930 1.369 . S
C931 C932 1.410 . S
C931 C939 1.503 . S
C932 C931 1.410 . S
C932 C933 1.392 . S
C932 C935 1.511 1_565 S
C933 C929 1.376 . S
C933 C932 1.392 . S
C933 H945 0.929 1_565 S
C934 C930 1.531 . S
C934 H946 0.960 . S
C934 H947 0.962 . S
C934 H948 0.960 . S
C935 C932 1.511 1_545 S
C935 H949 0.961 . S
C935 H950 0.961 . S
C935 H951 0.961 1_545 S
C936 C937 1.370 . S
C936 C938 1.363 . S
C936 H952 0.931 . S
C937 C936 1.370 . S
C937 C941 1.408 . S
C938 C936 1.363 . S
C938 C939 1.370 . S
C938 C942 1.524 . S
C939 C931 1.503 . S
C939 C938 1.370 . S
C939 C940 1.403 . S
C940 C939 1.403 . S
C940 C941 1.404 . S
C940 C943 1.539 . S
C941 C937 1.408 . S
C941 C940 1.404 . S
C941 H953 0.930 . S
C942 C938 1.524 . S
C942 H954 0.956 . S
C942 H955 0.961 1_565 S
C942 H956 0.961 1_565 S
C943 C940 1.539 . S
C943 H957 0.958 . S
C943 H958 0.961 . S
C943 H959 0.960 . S
H944 C928 0.931 . S
H945 C933 0.929 1_545 S
H946 C934 0.960 . S
H947 C934 0.962 . S
H948 C934 0.960 . S
H949 C935 0.961 . S
H950 C935 0.961 . S
H951 C935 0.961 1_565 S
H952 C936 0.931 . S
H953 C941 0.930 . S
H954 C942 0.956 . S
H955 C942 0.961 1_545 S
H956 C942 0.961 1_545 S
H957 C943 0.958 . S
H958 C943 0.961 . S
H959 C943 0.960 . S
C960 C961 1.391 . S
C960 C962 1.394 . S
C960 H976 0.931 . S
C961 C960 1.391 . S
C961 C965 1.376 . S
C962 C960 1.394 . S
C962 C963 1.369 . S
C962 C966 1.531 . S
C963 C962 1.369 . S
C963 C964 1.410 . S
C963 C971 1.503 . S
C964 C963 1.410 . S
C964 C965 1.392 . S
C964 C967 1.511 . S
C965 C961 1.376 . S
C965 C964 1.392 . S
C965 H977 0.929 . S
C966 C962 1.531 . S
C966 H978 0.960 . S
C966 H979 0.962 . S
C966 H980 0.970 . S
C967 C964 1.511 . S
C967 H981 0.961 . S
C967 H982 0.961 . S
C967 H983 0.961 . S
C968 C969 1.370 . S
C968 C970 1.363 . S
C968 H984 0.931 . S
C969 C968 1.370 . S
C969 C973 1.408 . S
C970 C968 1.363 . S
C970 C971 1.370 . S
C970 C974 1.524 . S
C971 C963 1.503 . S
C971 C970 1.370 . S
C971 C972 1.403 . S
C972 C971 1.403 . S
C972 C973 1.404 . S
C972 C975 1.539 . S
C973 C969 1.408 . S
C973 C972 1.404 . S
C973 H985 0.930 . S
C974 C970 1.524 . S
C974 H986 0.956 . S
C974 H987 0.961 . S
C974 H988 0.961 . S
C975 C972 1.539 . S
C975 H989 0.958 1_545 S
C975 H990 0.961 . S
C975 H991 0.960 . S
H976 C960 0.931 . S
H977 C965 0.929 . S
H978 C966 0.960 . S
H979 C966 0.962 . S
H980 C966 0.970 . S
H981 C967 0.961 . S
H982 C967 0.961 . S
H983 C967 0.961 . S
H984 C968 0.931 . S
H985 C973 0.930 . S
H986 C974 0.956 . S
H987 C974 0.961 . S
H988 C974 0.961 . S
H989 C975 0.958 1_565 S
H990 C975 0.961 . S
H991 C975 0.960 . S
C992 C993 1.391 . S
C992 C994 1.394 . S
C992 H1008 0.931 1_655 S
C993 C992 1.391 . S
C993 C997 1.376 . S
C994 C992 1.394 . S
C994 C995 1.369 . S
C994 C998 1.531 1_655 S
C995 C994 1.369 . S
C995 C996 1.410 . S
C995 C1003 1.503 . S
C996 C995 1.410 . S
C996 C997 1.392 . S
C996 C999 1.511 . S
C997 C993 1.376 . S
C997 C996 1.392 . S
C997 H1009 0.929 . S
C998 C994 1.531 1_455 S
C998 H1010 0.960 1_455 S
C998 H1011 0.962 . S
C998 H1012 0.960 . S
C999 C996 1.511 . S
C999 H1013 0.961 . S
C999 H1014 0.961 . S
C999 H1015 0.961 . S
C1000 C1001 1.370 . S
C1000 C1002 1.363 . S
C1000 H1016 0.931 . S
C1001 C1000 1.370 . S
C1001 C1005 1.408 . S
C1002 C1000 1.363 . S
C1002 C1003 1.370 . S
C1002 C1006 1.524 . S
C1003 C995 1.503 . S
C1003 C1002 1.370 . S
C1003 C1004 1.403 . S
C1004 C1003 1.403 . S
C1004 C1005 1.404 . S
C1004 C1007 1.539 . S
C1005 C1001 1.408 . S
C1005 C1004 1.404 . S
C1005 H1017 0.930 . S
C1006 C1002 1.524 . S
C1006 H1018 0.956 1_655 S
C1006 H1019 0.961 . S
C1006 H1020 0.961 . S
C1007 C1004 1.539 . S
C1007 H1021 0.958 . S
C1007 H1022 0.961 . S
C1007 H1023 0.960 . S
H1008 C992 0.931 1_455 S
H1009 C997 0.929 . S
H1010 C998 0.960 1_655 S
H1011 C998 0.962 . S
H1012 C998 0.960 . S
H1013 C999 0.961 . S
H1014 C999 0.961 . S
H1015 C999 0.961 . S
H1016 C1000 0.931 . S
H1017 C1005 0.930 . S
H1018 C1006 0.956 1_455 S
H1019 C1006 0.961 . S
H1020 C1006 0.961 . S
H1021 C1007 0.958 . S
H1022 C1007 0.961 . S
H1023 C1007 0.960 . S
C1024 C1025 1.391 . S
C1024 C1026 1.394 . S
C1024 H1040 0.931 . S
C1025 C1024 1.391 . S
C1025 C1029 1.376 . S
C1026 C1024 1.394 . S
C1026 C1027 1.369 . S
C1026 C1030 1.531 . S
C1027 C1026 1.369 . S
C1027 C1028 1.410 . S
C1027 C1035 1.503 . S
C1028 C1027 1.410 . S
C1028 C1029 1.392 . S
C1028 C1031 1.511 . S
C1029 C1025 1.376 . S
C1029 C1028 1.392 . S
C1029 H1041 0.929 . S
C1030 C1026 1.531 . S
C1030 H1042 0.960 . S
C1030 H1043 0.962 . S
C1030 H1044 0.960 . S
C1031 C1028 1.511 . S
C1031 H1045 0.961 . S
C1031 H1046 0.961 . S
C1031 H1047 0.961 . S
C1032 C1033 1.370 . S
C1032 C1034 1.363 . S
C1032 H1048 0.931 . S
C1033 C1032 1.370 . S
C1033 C1037 1.408 . S
C1034 C1032 1.363 . S
C1034 C1035 1.370 . S
C1034 C1038 1.524 . S
C1035 C1027 1.503 . S
C1035 C1034 1.370 . S
C1035 C1036 1.403 . S
C1036 C1035 1.403 . S
C1036 C1037 1.404 . S
C1036 C1039 1.539 . S
C1037 C1033 1.408 . S
C1037 C1036 1.404 . S
C1037 H1049 0.930 . S
C1038 C1034 1.524 . S
C1038 H1050 0.956 . S
C1038 H1051 0.961 . S
C1038 H1052 0.961 . S
C1039 C1036 1.539 . S
C1039 H1053 0.958 . S
C1039 H1054 0.961 . S
C1039 H1055 0.960 . S
H1040 C1024 0.931 . S
H1041 C1029 0.929 . S
H1042 C1030 0.960 . S
H1043 C1030 0.962 . S
H1044 C1030 0.960 . S
H1045 C1031 0.961 . S
H1046 C1031 0.961 . S
H1047 C1031 0.961 . S
H1048 C1032 0.931 . S
H1049 C1037 0.930 . S
H1050 C1038 0.956 . S
H1051 C1038 0.961 . S
H1052 C1038 0.961 . S
H1053 C1039 0.958 . S
H1054 C1039 0.961 . S
H1055 C1039 0.960 . S
C1056 C1057 1.391 . S
C1056 C1058 1.394 . S
C1056 H1072 0.931 . S
C1057 C1056 1.391 . S
C1057 C1061 1.376 . S
C1058 C1056 1.394 . S
C1058 C1059 1.369 . S
C1058 C1062 1.531 . S
C1059 C1058 1.369 . S
C1059 C1060 1.410 . S
C1059 C1067 1.503 . S
C1060 C1059 1.410 . S
C1060 C1061 1.392 . S
C1060 C1063 1.511 . S
C1061 C1057 1.376 . S
C1061 C1060 1.392 . S
C1061 H1073 0.929 . S
C1062 C1058 1.531 . S
C1062 H1074 0.960 . S
C1062 H1075 0.962 . S
C1062 H1076 0.960 . S
C1063 C1060 1.511 . S
C1063 H1077 0.961 . S
C1063 H1078 0.961 . S
C1063 H1079 0.961 . S
C1064 C1065 1.370 . S
C1064 C1066 1.363 . S
C1064 H1080 0.931 . S
C1065 C1064 1.370 . S
C1065 C1069 1.408 . S
C1066 C1064 1.363 . S
C1066 C1067 1.370 . S
C1066 C1070 1.524 . S
C1067 C1059 1.503 . S
C1067 C1066 1.370 . S
C1067 C1068 1.403 . S
C1068 C1067 1.403 . S
C1068 C1069 1.404 . S
C1068 C1071 1.539 . S
C1069 C1065 1.408 . S
C1069 C1068 1.404 . S
C1069 H1081 0.930 . S
C1070 C1066 1.524 . S
C1070 H1082 0.956 . S
C1070 H1083 0.961 . S
C1070 H1084 0.961 . S
C1071 C1068 1.539 . S
C1071 H1085 0.958 . S
C1071 H1086 0.961 . S
C1071 H1087 0.960 . S
H1072 C1056 0.931 . S
H1073 C1061 0.929 . S
H1074 C1062 0.960 . S
H1075 C1062 0.962 . S
H1076 C1062 0.960 . S
H1077 C1063 0.961 . S
H1078 C1063 0.961 . S
H1079 C1063 0.961 . S
H1080 C1064 0.931 . S
H1081 C1069 0.930 . S
H1082 C1070 0.956 . S
H1083 C1070 0.961 . S
H1084 C1070 0.961 . S
H1085 C1071 0.958 . S
H1086 C1071 0.961 . S
H1087 C1071 0.960 . S
C1088 C1089 1.391 . S
C1088 C1090 1.394 . S
C1088 H1104 0.931 . S
C1089 C1088 1.391 . S
C1089 C1093 1.376 1_565 S
C1090 C1088 1.394 . S
C1090 C1091 1.369 1_565 S
C1090 C1094 1.531 . S
C1091 C1090 1.369 1_545 S
C1091 C1092 1.410 . S
C1091 C1099 1.503 . S
C1092 C1091 1.410 . S
C1092 C1093 1.392 . S
C1092 C1095 1.511 . S
C1093 C1089 1.376 1_545 S
C1093 C1092 1.392 . S
C1093 H1105 0.929 . S
C1094 C1090 1.531 . S
C1094 H1106 0.960 . S
C1094 H1107 0.962 . S
C1094 H1108 0.960 . S
C1095 C1092 1.511 . S
C1095 H1109 0.961 . S
C1095 H1110 0.961 . S
C1095 H1111 0.961 . S
C1096 C1097 1.370 . S
C1096 C1098 1.363 . S
C1096 H1112 0.931 . S
C1097 C1096 1.370 . S
C1097 C1101 1.408 . S
C1098 C1096 1.363 . S
C1098 C1099 1.370 . S
C1098 C1102 1.524 . S
C1099 C1091 1.503 . S
C1099 C1098 1.370 . S
C1099 C1100 1.403 . S
C1100 C1099 1.403 . S
C1100 C1101 1.404 . S
C1100 C1103 1.539 . S
C1101 C1097 1.408 . S
C1101 C1100 1.404 . S
C1101 H1113 0.930 . S
C1102 C1098 1.524 . S
C1102 H1114 0.956 . S
C1102 H1115 0.961 . S
C1102 H1116 0.961 . S
C1103 C1100 1.539 . S
C1103 H1117 0.958 1_545 S
C1103 H1118 0.961 . S
C1103 H1119 0.960 . S
H1104 C1088 0.931 . S
H1105 C1093 0.929 . S
H1106 C1094 0.960 . S
H1107 C1094 0.962 . S
H1108 C1094 0.960 . S
H1109 C1095 0.961 . S
H1110 C1095 0.961 . S
H1111 C1095 0.961 . S
H1112 C1096 0.931 . S
H1113 C1101 0.930 . S
H1114 C1102 0.956 . S
H1115 C1102 0.961 . S
H1116 C1102 0.961 . S
H1117 C1103 0.958 1_565 S
H1118 C1103 0.961 . S
H1119 C1103 0.960 . S
C1120 C1121 1.391 . S
C1120 C1122 1.394 . S
C1120 H1136 0.931 . S
C1121 C1120 1.391 . S
C1121 C1125 1.376 . S
C1122 C1120 1.394 . S
C1122 C1123 1.369 1_655 S
C1122 C1126 1.531 1_655 S
C1123 C1122 1.369 1_455 S
C1123 C1124 1.410 . S
C1123 C1131 1.503 . S
C1124 C1123 1.410 . S
C1124 C1125 1.392 1_455 S
C1124 C1127 1.511 . S
C1125 C1121 1.376 . S
C1125 C1124 1.392 1_655 S
C1125 H1137 0.929 . S
C1126 C1122 1.531 1_455 S
C1126 H1138 0.960 . S
C1126 H1139 0.962 1_455 S
C1126 H1140 0.970 . S
C1127 C1124 1.511 . S
C1127 H1141 0.961 . S
C1127 H1142 0.961 . S
C1127 H1143 0.961 . S
C1128 C1129 1.370 . S
C1128 C1130 1.363 . S
C1128 H1144 0.931 . S
C1129 C1128 1.370 . S
C1129 C1133 1.408 . S
C1130 C1128 1.363 . S
C1130 C1131 1.370 . S
C1130 C1134 1.524 1_455 S
C1131 C1123 1.503 . S
C1131 C1130 1.370 . S
C1131 C1132 1.403 . S
C1132 C1131 1.403 . S
C1132 C1133 1.404 . S
C1132 C1135 1.539 . S
C1133 C1129 1.408 . S
C1133 C1132 1.404 . S
C1133 H1145 0.930 . S
C1134 C1130 1.524 1_655 S
C1134 H1146 0.956 . S
C1134 H1147 0.961 . S
C1134 H1148 0.961 . S
C1135 C1132 1.539 . S
C1135 H1149 0.958 . S
C1135 H1150 0.961 . S
C1135 H1151 0.960 . S
H1136 C1120 0.931 . S
H1137 C1125 0.929 . S
H1138 C1126 0.960 . S
H1139 C1126 0.962 1_655 S
H1140 C1126 0.970 . S
H1141 C1127 0.961 . S
H1142 C1127 0.961 . S
H1143 C1127 0.961 . S
H1144 C1128 0.931 . S
H1145 C1133 0.930 . S
H1146 C1134 0.956 . S
H1147 C1134 0.961 . S
H1148 C1134 0.961 . S
H1149 C1135 0.958 . S
H1150 C1135 0.961 . S
H1151 C1135 0.960 . S
C289 C36 1.104 . S
C297 C2 1.097 . S
C321 C93 1.106 . S
C329 C34 1.089 . S
C353 C70 1.097 . S
C361 C4 1.106 . S
C385 C66 1.120 . S
C393 C61 1.099 . S
C417 C68 1.118 . S
C425 C6 1.083 . S
C449 C29 1.100 . S
C457 C38 1.100 . S
C481 C98 1.064 . S
C489 C157 1.112 . S
C513 C164 1.102 . S
C521 C134 1.091 1_545 S
C545 C162 1.069 . S
C553 C100 1.112 . S
C577 C132 1.087 . S
C585 C166 1.106 . S
C609 C189 1.115 . S
C617 C102 1.083 . S
C641 C130 1.069 . S
C649 C125 1.109 . S
C673 C253 1.108 . S
C681 C198 1.088 . S
C705 C230 1.063 . S
C713 C260 1.111 . S
C737 C258 1.097 . S
C745 C221 1.106 . S
C769 C262 1.085 . S
C777 C228 1.105 . S
C801 C285 1.104 . S
C809 C194 1.097 . S
C833 C196 1.107 . S
C841 C226 1.095 1_455 S
C865 N173 1.839 . S
C873 N18 1.851 . S
C897 N109 1.838 . S
C905 N50 1.843 . S
C929 N77 1.866 . S
C937 N146 1.856 . S
C961 N82 1.824 . S
C969 N205 1.842 . S
C993 N13 1.845 . S
C1001 N237 1.853 . S
C1025 N274 1.851 . S
C1033 N45 1.855 . S
C1057 N114 1.867 . S
C1065 N269 1.858 . S
C1089 N141 1.824 . S
C1097 N210 1.841 . S
C1121 N242 1.838 . S
C1129 N178 1.851 . S
