# Generated by pormake.
# Topology som, (6)-cn, num edge types: 1
# Building blocks:
#     Node 0, Type 0, BuildingBlock: CUKXOW_clean_sbu_0, # of connection points: 6
#     Node 1, Type 0, BuildingBlock: CUKXOW_clean_sbu_0, # of connection points: 6
#     Node 2, Type 0, BuildingBlock: CUKXOW_clean_sbu_0, # of connection points: 6
#     Node 3, Type 0, BuildingBlock: CUKXOW_clean_sbu_0, # of connection points: 6
#     Node 4, Type 0, BuildingBlock: CUKXOW_clean_sbu_0, # of connection points: 6
#     Node 5, Type 0, BuildingBlock: CUKXOW_clean_sbu_0, # of connection points: 6
#     Node 6, Type 0, BuildingBlock: CUKXOW_clean_sbu_0, # of connection points: 6
#     Node 7, Type 0, BuildingBlock: CUKXOW_clean_sbu_0, # of connection points: 6
#     Node 8, Type 0, BuildingBlock: CUKXOW_clean_sbu_0, # of connection points: 6
#     Node 9, Type 0, BuildingBlock: CUKXOW_clean_sbu_0, # of connection points: 6
#     Node 10, Type 0, BuildingBlock: CUKXOW_clean_sbu_0, # of connection points: 6
#     Node 11, Type 0, BuildingBlock: CUKXOW_clean_sbu_0, # of connection points: 6
#     Node 12, Type 0, BuildingBlock: CUKXOW_clean_sbu_0, # of connection points: 6
#     Node 13, Type 0, BuildingBlock: CUKXOW_clean_sbu_0, # of connection points: 6
#     Node 14, Type 0, BuildingBlock: CUKXOW_clean_sbu_0, # of connection points: 6
#     Node 15, Type 0, BuildingBlock: CUKXOW_clean_sbu_0, # of connection points: 6
#     Node 16, Type 0, BuildingBlock: CUKXOW_clean_sbu_0, # of connection points: 6
#     Node 17, Type 0, BuildingBlock: CUKXOW_clean_sbu_0, # of connection points: 6
#     Node 18, Type 0, BuildingBlock: CUKXOW_clean_sbu_0, # of connection points: 6
#     Node 19, Type 0, BuildingBlock: CUKXOW_clean_sbu_0, # of connection points: 6
#     Node 20, Type 0, BuildingBlock: CUKXOW_clean_sbu_0, # of connection points: 6
#     Node 21, Type 0, BuildingBlock: CUKXOW_clean_sbu_0, # of connection points: 6
#     Node 22, Type 0, BuildingBlock: CUKXOW_clean_sbu_0, # of connection points: 6
#     Node 23, Type 0, BuildingBlock: CUKXOW_clean_sbu_0, # of connection points: 6
#     Node 24, Type 0, BuildingBlock: CUKXOW_clean_sbu_0, # of connection points: 6
#     Node 25, Type 0, BuildingBlock: CUKXOW_clean_sbu_0, # of connection points: 6
#     Node 26, Type 0, BuildingBlock: CUKXOW_clean_sbu_0, # of connection points: 6
#     Node 27, Type 0, BuildingBlock: CUKXOW_clean_sbu_0, # of connection points: 6
#     Node 28, Type 0, BuildingBlock: CUKXOW_clean_sbu_0, # of connection points: 6
#     Node 29, Type 0, BuildingBlock: CUKXOW_clean_sbu_0, # of connection points: 6
#     Node 30, Type 0, BuildingBlock: CUKXOW_clean_sbu_0, # of connection points: 6
#     Node 31, Type 0, BuildingBlock: CUKXOW_clean_sbu_0, # of connection points: 6
#     Edge 32, Type (0, 0), BuildingBlock: OJICUG_clean_linker_0, # of connection points: 2
#     Edge 33, Type (0, 0), BuildingBlock: OJICUG_clean_linker_0, # of connection points: 2
#     Edge 34, Type (0, 0), BuildingBlock: OJICUG_clean_linker_0, # of connection points: 2
#     Edge 35, Type (0, 0), BuildingBlock: OJICUG_clean_linker_0, # of connection points: 2
#     Edge 36, Type (0, 0), BuildingBlock: OJICUG_clean_linker_0, # of connection points: 2
#     Edge 37, Type (0, 0), BuildingBlock: OJICUG_clean_linker_0, # of connection points: 2
#     Edge 38, Type (0, 0), BuildingBlock: OJICUG_clean_linker_0, # of connection points: 2
#     Edge 39, Type (0, 0), BuildingBlock: OJICUG_clean_linker_0, # of connection points: 2
#     Edge 40, Type (0, 0), BuildingBlock: OJICUG_clean_linker_0, # of connection points: 2
#     Edge 41, Type (0, 0), BuildingBlock: OJICUG_clean_linker_0, # of connection points: 2
#     Edge 42, Type (0, 0), BuildingBlock: OJICUG_clean_linker_0, # of connection points: 2
#     Edge 43, Type (0, 0), BuildingBlock: OJICUG_clean_linker_0, # of connection points: 2
#     Edge 44, Type (0, 0), BuildingBlock: OJICUG_clean_linker_0, # of connection points: 2
#     Edge 45, Type (0, 0), BuildingBlock: OJICUG_clean_linker_0, # of connection points: 2
#     Edge 46, Type (0, 0), BuildingBlock: OJICUG_clean_linker_0, # of connection points: 2
#     Edge 47, Type (0, 0), BuildingBlock: OJICUG_clean_linker_0, # of connection points: 2
#     Edge 48, Type (0, 0), BuildingBlock: OJICUG_clean_linker_0, # of connection points: 2
#     Edge 49, Type (0, 0), BuildingBlock: OJICUG_clean_linker_0, # of connection points: 2
#     Edge 50, Type (0, 0), BuildingBlock: OJICUG_clean_linker_0, # of connection points: 2
#     Edge 51, Type (0, 0), BuildingBlock: OJICUG_clean_linker_0, # of connection points: 2
#     Edge 52, Type (0, 0), BuildingBlock: OJICUG_clean_linker_0, # of connection points: 2
#     Edge 53, Type (0, 0), BuildingBlock: OJICUG_clean_linker_0, # of connection points: 2
#     Edge 54, Type (0, 0), BuildingBlock: OJICUG_clean_linker_0, # of connection points: 2
#     Edge 55, Type (0, 0), BuildingBlock: OJICUG_clean_linker_0, # of connection points: 2
#     Edge 56, Type (0, 0), BuildingBlock: OJICUG_clean_linker_0, # of connection points: 2
#     Edge 57, Type (0, 0), BuildingBlock: OJICUG_clean_linker_0, # of connection points: 2
#     Edge 58, Type (0, 0), BuildingBlock: OJICUG_clean_linker_0, # of connection points: 2
#     Edge 59, Type (0, 0), BuildingBlock: OJICUG_clean_linker_0, # of connection points: 2
#     Edge 60, Type (0, 0), BuildingBlock: OJICUG_clean_linker_0, # of connection points: 2
#     Edge 61, Type (0, 0), BuildingBlock: OJICUG_clean_linker_0, # of connection points: 2
#     Edge 62, Type (0, 0), BuildingBlock: OJICUG_clean_linker_0, # of connection points: 2
#     Edge 63, Type (0, 0), BuildingBlock: OJICUG_clean_linker_0, # of connection points: 2
#     Edge 64, Type (0, 0), BuildingBlock: OJICUG_clean_linker_0, # of connection points: 2
#     Edge 65, Type (0, 0), BuildingBlock: OJICUG_clean_linker_0, # of connection points: 2
#     Edge 66, Type (0, 0), BuildingBlock: OJICUG_clean_linker_0, # of connection points: 2
#     Edge 67, Type (0, 0), BuildingBlock: OJICUG_clean_linker_0, # of connection points: 2
#     Edge 68, Type (0, 0), BuildingBlock: OJICUG_clean_linker_0, # of connection points: 2
#     Edge 69, Type (0, 0), BuildingBlock: OJICUG_clean_linker_0, # of connection points: 2
#     Edge 70, Type (0, 0), BuildingBlock: OJICUG_clean_linker_0, # of connection points: 2
#     Edge 71, Type (0, 0), BuildingBlock: OJICUG_clean_linker_0, # of connection points: 2
#     Edge 72, Type (0, 0), BuildingBlock: OJICUG_clean_linker_0, # of connection points: 2
#     Edge 73, Type (0, 0), BuildingBlock: OJICUG_clean_linker_0, # of connection points: 2
#     Edge 74, Type (0, 0), BuildingBlock: OJICUG_clean_linker_0, # of connection points: 2
#     Edge 75, Type (0, 0), BuildingBlock: OJICUG_clean_linker_0, # of connection points: 2
#     Edge 76, Type (0, 0), BuildingBlock: OJICUG_clean_linker_0, # of connection points: 2
#     Edge 77, Type (0, 0), BuildingBlock: OJICUG_clean_linker_0, # of connection points: 2
#     Edge 78, Type (0, 0), BuildingBlock: OJICUG_clean_linker_0, # of connection points: 2
#     Edge 79, Type (0, 0), BuildingBlock: OJICUG_clean_linker_0, # of connection points: 2
#     Edge 80, Type (0, 0), BuildingBlock: OJICUG_clean_linker_0, # of connection points: 2
#     Edge 81, Type (0, 0), BuildingBlock: OJICUG_clean_linker_0, # of connection points: 2
#     Edge 82, Type (0, 0), BuildingBlock: OJICUG_clean_linker_0, # of connection points: 2
#     Edge 83, Type (0, 0), BuildingBlock: OJICUG_clean_linker_0, # of connection points: 2
#     Edge 84, Type (0, 0), BuildingBlock: OJICUG_clean_linker_0, # of connection points: 2
#     Edge 85, Type (0, 0), BuildingBlock: OJICUG_clean_linker_0, # of connection points: 2
#     Edge 86, Type (0, 0), BuildingBlock: OJICUG_clean_linker_0, # of connection points: 2
#     Edge 87, Type (0, 0), BuildingBlock: OJICUG_clean_linker_0, # of connection points: 2
#     Edge 88, Type (0, 0), BuildingBlock: OJICUG_clean_linker_0, # of connection points: 2
#     Edge 89, Type (0, 0), BuildingBlock: OJICUG_clean_linker_0, # of connection points: 2
#     Edge 90, Type (0, 0), BuildingBlock: OJICUG_clean_linker_0, # of connection points: 2
#     Edge 91, Type (0, 0), BuildingBlock: OJICUG_clean_linker_0, # of connection points: 2
#     Edge 92, Type (0, 0), BuildingBlock: OJICUG_clean_linker_0, # of connection points: 2
#     Edge 93, Type (0, 0), BuildingBlock: OJICUG_clean_linker_0, # of connection points: 2
#     Edge 94, Type (0, 0), BuildingBlock: OJICUG_clean_linker_0, # of connection points: 2
#     Edge 95, Type (0, 0), BuildingBlock: OJICUG_clean_linker_0, # of connection points: 2
#     Edge 96, Type (0, 0), BuildingBlock: OJICUG_clean_linker_0, # of connection points: 2
#     Edge 97, Type (0, 0), BuildingBlock: OJICUG_clean_linker_0, # of connection points: 2
#     Edge 98, Type (0, 0), BuildingBlock: OJICUG_clean_linker_0, # of connection points: 2
#     Edge 99, Type (0, 0), BuildingBlock: OJICUG_clean_linker_0, # of connection points: 2
#     Edge 100, Type (0, 0), BuildingBlock: OJICUG_clean_linker_0, # of connection points: 2
#     Edge 101, Type (0, 0), BuildingBlock: OJICUG_clean_linker_0, # of connection points: 2
#     Edge 102, Type (0, 0), BuildingBlock: OJICUG_clean_linker_0, # of connection points: 2
#     Edge 103, Type (0, 0), BuildingBlock: OJICUG_clean_linker_0, # of connection points: 2
#     Edge 104, Type (0, 0), BuildingBlock: OJICUG_clean_linker_0, # of connection points: 2
#     Edge 105, Type (0, 0), BuildingBlock: OJICUG_clean_linker_0, # of connection points: 2
#     Edge 106, Type (0, 0), BuildingBlock: OJICUG_clean_linker_0, # of connection points: 2
#     Edge 107, Type (0, 0), BuildingBlock: OJICUG_clean_linker_0, # of connection points: 2
#     Edge 108, Type (0, 0), BuildingBlock: OJICUG_clean_linker_0, # of connection points: 2
#     Edge 109, Type (0, 0), BuildingBlock: OJICUG_clean_linker_0, # of connection points: 2
#     Edge 110, Type (0, 0), BuildingBlock: OJICUG_clean_linker_0, # of connection points: 2
#     Edge 111, Type (0, 0), BuildingBlock: OJICUG_clean_linker_0, # of connection points: 2
#     Edge 112, Type (0, 0), BuildingBlock: OJICUG_clean_linker_0, # of connection points: 2
#     Edge 113, Type (0, 0), BuildingBlock: OJICUG_clean_linker_0, # of connection points: 2
#     Edge 114, Type (0, 0), BuildingBlock: OJICUG_clean_linker_0, # of connection points: 2
#     Edge 115, Type (0, 0), BuildingBlock: OJICUG_clean_linker_0, # of connection points: 2
#     Edge 116, Type (0, 0), BuildingBlock: OJICUG_clean_linker_0, # of connection points: 2
#     Edge 117, Type (0, 0), BuildingBlock: OJICUG_clean_linker_0, # of connection points: 2
#     Edge 118, Type (0, 0), BuildingBlock: OJICUG_clean_linker_0, # of connection points: 2
#     Edge 119, Type (0, 0), BuildingBlock: OJICUG_clean_linker_0, # of connection points: 2
#     Edge 120, Type (0, 0), BuildingBlock: OJICUG_clean_linker_0, # of connection points: 2
#     Edge 121, Type (0, 0), BuildingBlock: OJICUG_clean_linker_0, # of connection points: 2
#     Edge 122, Type (0, 0), BuildingBlock: OJICUG_clean_linker_0, # of connection points: 2
#     Edge 123, Type (0, 0), BuildingBlock: OJICUG_clean_linker_0, # of connection points: 2
#     Edge 124, Type (0, 0), BuildingBlock: OJICUG_clean_linker_0, # of connection points: 2
#     Edge 125, Type (0, 0), BuildingBlock: OJICUG_clean_linker_0, # of connection points: 2
#     Edge 126, Type (0, 0), BuildingBlock: OJICUG_clean_linker_0, # of connection points: 2
#     Edge 127, Type (0, 0), BuildingBlock: OJICUG_clean_linker_0, # of connection points: 2
# Relax obj value: 0.130
# Max RMSD: 0.182
# Mean RMSD: 0.182
data_MOF--net-som--node1-CUKXOW_clean_sbu_0--edge1-OJICUG_clean_linker_0
_symmetry_space_group_name_H-M    P1
_symmetry_Int_Tables_number       1
_symmetry_cell_setting            triclinic
loop_
_symmetry_equiv_pos_as_xyz
'x, y, z'
_cell_length_a     10.251176
_cell_length_b     55.45326
_cell_length_c     89.327533
_cell_angle_alpha  90.010333
_cell_angle_beta   90.319049
_cell_angle_gamma 89.959614
loop_
_atom_site_label
_atom_site_type_symbol
_atom_site_fract_x
_atom_site_fract_y
_atom_site_fract_z
_atom_type_partial_charge
Tb0 Tb 0.08239 0.46652 0.05904 0.0
C1 C 0.14614 0.49255 0.08915 0.0
Tb2 Tb 0.1143 0.52057 0.05872 0.0
O3 O 0.28506 0.46006 0.06552 0.0
O4 O 0.23557 0.49072 0.05332 0.0
O5 O 0.08792 0.47362 0.08299 0.0
C6 C 0.17137 0.56752 0.06075 0.0
O7 O 0.18211 0.5116 0.08121 0.0
C8 C 0.87073 0.50572 0.05705 0.0
C9 C 0.0781 0.49467 0.02833 0.0
O10 O 0.11825 0.55467 0.07117 0.0
O11 O 0.19567 0.55382 0.04935 0.0
O12 O 0.91201 0.52584 0.05157 0.0
O13 O 0.96154 0.49625 0.06452 0.0
O14 O 0.13727 0.51286 0.03513 0.0
O15 O 1.02914 0.47624 0.03597 0.0
C16 C 1.00269 0.42067 0.05729 0.0
O17 O 0.07553 0.43151 0.04759 0.0
O18 O 0.97327 0.43568 0.06787 0.0
C19 C 0.32646 0.48055 0.06047 0.0
Tb20 Tb 0.27943 0.77225 0.05936 0.0
C21 C 0.22325 0.74605 0.08942 0.0
Tb22 Tb 0.2496 0.71815 0.05875 0.0
O23 O 0.07942 0.77755 0.06685 0.0
O24 O 0.12665 0.74787 0.05356 0.0
O25 O 0.27835 0.76522 0.08326 0.0
C26 C 0.19477 0.67117 0.06101 0.0
O27 O 0.18746 0.72691 0.08147 0.0
C28 C 0.49163 0.7334 0.05695 0.0
C29 C 0.28063 0.74459 0.02836 0.0
O30 O 0.2613 0.68364 0.07063 0.0
O31 O 0.15617 0.68526 0.05027 0.0
O32 O 0.44998 0.71348 0.05114 0.0
O33 O 0.40175 0.74254 0.06464 0.0
O34 O 0.22812 0.72567 0.03507 0.0
O35 O 0.32437 0.7635 0.03601 0.0
C36 C 0.35485 0.81831 0.0579 0.0
O37 O 0.25368 0.80923 0.05122 0.0
O38 O 0.41489 0.80137 0.06523 0.0
C39 C 1.03719 0.75751 0.06114 0.0
Tb40 Tb 1.06025 0.77285 0.18284 0.0
C41 C 0.12081 0.74634 0.15288 0.0
Tb42 Tb 0.09434 0.71859 0.18346 0.0
O43 O 0.26268 0.77926 0.17643 0.0
O44 O 0.21456 0.74872 0.18872 0.0
O45 O 0.06286 0.76532 0.15896 0.0
C46 C 0.15877 0.67174 0.18197 0.0
O47 O 0.15806 0.72736 0.16087 0.0
C48 C 0.84975 0.73314 0.18469 0.0
C49 C 1.06013 0.74516 0.21358 0.0
O50 O 0.12212 0.685 0.17077 0.0
O51 O 0.16225 0.68499 0.1939 0.0
O52 O 0.89131 0.71284 0.18997 0.0
O53 O 0.94063 0.74278 0.17745 0.0
O54 O 0.12279 0.72733 0.20688 0.0
O55 O 1.00738 0.76317 0.20582 0.0
C56 C 0.9805 0.81886 0.18441 0.0
O57 O 1.05345 0.80799 0.19421 0.0
O58 O 0.95085 0.80376 0.17385 0.0
C59 C 0.30486 0.75882 0.18155 0.0
Tb60 Tb 0.31838 0.46733 0.18295 0.0
C61 C 0.2537 0.49297 0.15269 0.0
Tb62 Tb 0.28425 0.52164 0.18295 0.0
O63 O 0.11504 0.46083 0.17676 0.0
O64 O 0.16541 0.49165 0.18873 0.0
O65 O 0.31202 0.47412 0.15896 0.0
C66 C 0.2194 0.56833 0.18096 0.0
O67 O 0.21783 0.51219 0.16049 0.0
C68 C 0.52838 0.50701 0.18446 0.0
C69 C 0.33392 0.49634 0.21343 0.0
O70 O 0.29194 0.55668 0.17157 0.0
O71 O 0.18088 0.55357 0.19129 0.0
O72 O 0.48682 0.52722 0.18987 0.0
O73 O 0.43711 0.49723 0.17717 0.0
O74 O 0.27507 0.51471 0.20675 0.0
O75 O 0.37682 0.47734 0.20581 0.0
C76 C 0.39624 0.42123 0.18468 0.0
O77 O 0.32453 0.43228 0.19442 0.0
O78 O 0.426 0.43622 0.17409 0.0
C79 C 0.07373 0.48137 0.18176 0.0
Tb80 Tb 1.01421 0.4688 0.93315 0.0
C81 C 1.05136 0.49476 0.96356 0.0
Tb82 Tb 1.04614 0.5231 0.93286 0.0
O83 O 0.21625 0.46352 0.94033 0.0
O84 O 0.16692 0.49328 0.92743 0.0
O85 O 0.99325 0.47643 0.95677 0.0
C86 C 0.12451 0.56913 0.93459 0.0
O87 O 0.09913 0.51333 0.95593 0.0
C88 C 0.80222 0.50879 0.93135 0.0
C89 C 0.98397 0.49697 0.90272 0.0
O90 O 1.05067 0.55827 0.94419 0.0
O91 O 0.15582 0.55401 0.92413 0.0
O92 O 0.84322 0.52932 0.92631 0.0
O93 O 0.89356 0.49877 0.9385 0.0
O94 O 1.04164 0.51593 0.90892 0.0
O95 O 0.94775 0.47788 0.91061 0.0
C96 C 0.95598 0.42183 0.93103 0.0
O97 O 1.01502 0.43445 0.92093 0.0
O98 O 0.9266 0.43578 0.94216 0.0
C99 C 0.2576 0.48368 0.93489 0.0
Tb100 Tb 0.86563 0.27106 0.93296 0.0
C101 C 0.83123 0.24512 0.96337 0.0
Tb102 Tb 0.83375 0.21677 0.93267 0.0
O103 O 0.66426 0.27634 0.94011 0.0
O104 O 0.71238 0.24657 0.92721 0.0
O105 O 0.8887 0.26345 0.95659 0.0
C106 C 0.75651 0.17069 0.93453 0.0
O107 O 0.78275 0.22656 0.95573 0.0
C108 C 0.07749 0.23107 0.9312 0.0
C109 C 0.89432 0.24284 0.90255 0.0
O110 O 0.83101 0.18169 0.9441 0.0
O111 O 0.72385 0.1857 0.92402 0.0
O112 O 1.03605 0.21054 0.92615 0.0
O113 O 0.9868 0.2411 0.93835 0.0
O114 O 0.83699 0.22387 0.90872 0.0
O115 O 0.93066 0.26196 0.91046 0.0
C116 C 0.92339 0.31805 0.93092 0.0
O117 O 0.86381 0.30544 0.92078 0.0
O118 O 0.95362 0.30407 0.94205 0.0
C119 C 0.6224 0.25618 0.93466 0.0
Tb120 Tb 1.03251 0.2714 0.80888 0.0
C121 C 0.07841 0.24574 0.77852 0.0
Tb122 Tb 0.06695 0.21715 0.80907 0.0
O123 O 0.23476 0.27722 0.80223 0.0
O124 O 0.18632 0.24709 0.81482 0.0
O125 O 1.01852 0.26398 0.78514 0.0
C126 C 0.145 0.17109 0.80739 0.0
O127 O 0.12387 0.227 0.78622 0.0
C128 C 0.82217 0.23117 0.81014 0.0
C129 C 1.00248 0.24295 0.83917 0.0
O130 O 0.07264 0.1821 0.79761 0.0
O131 O 0.17518 0.18608 0.818 0.0
O132 O 0.8639 0.21066 0.8152 0.0
O133 O 0.91341 0.24134 0.80316 0.0
O134 O 0.06145 0.22412 0.83303 0.0
O135 O 0.96586 0.26205 0.83126 0.0
C136 C 0.96798 0.31811 0.8108 0.0
O137 O 1.03097 0.30594 0.82089 0.0
O138 O 0.9386 0.30387 0.79978 0.0
C139 C 0.27688 0.257 0.8076 0.0
Tb140 Tb 0.84828 0.46833 0.80877 0.0
C141 C 0.80254 0.49409 0.7784 0.0
Tb142 Tb 0.81436 0.52262 0.80901 0.0
O143 O 0.64563 0.46266 0.80195 0.0
O144 O 0.69511 0.49269 0.81462 0.0
O145 O 0.86232 0.47578 0.78504 0.0
C146 C 0.73603 0.56869 0.80738 0.0
O147 O 0.75698 0.51276 0.7861 0.0
C148 C 1.059 0.50848 0.81025 0.0
C149 C 0.87866 0.49671 0.83914 0.0
O150 O 0.80801 0.55774 0.79762 0.0
O151 O 0.70642 0.55363 0.81793 0.0
O152 O 1.01777 0.52899 0.81531 0.0
O153 O 0.96732 0.49838 0.8032 0.0
O154 O 0.81979 0.51555 0.83295 0.0
O155 O 0.91529 0.47762 0.83126 0.0
C156 C 0.91209 0.42158 0.81074 0.0
O157 O 0.84983 0.4338 0.82079 0.0
O158 O 0.9412 0.43579 0.79974 0.0
C159 C 0.60404 0.48287 0.80733 0.0
Tb160 Tb 1.05822 0.96693 0.55915 0.0
C161 C 0.12666 0.99255 0.58929 0.0
Tb162 Tb 0.09116 0.02093 0.55907 0.0
O163 O 0.26133 0.96031 0.56532 0.0
O164 O 0.21129 0.99111 0.55327 0.0
O165 O 0.06711 0.97374 0.58314 0.0
C166 C 0.1503 0.06776 0.5611 0.0
O167 O 0.16171 0.01168 0.58138 0.0
C168 C 0.84718 0.00634 0.55764 0.0
C169 C 1.04517 -0.00439 0.52861 0.0
O170 O 0.08946 0.05534 0.57115 0.0
O171 O 0.18101 0.0537 0.55007 0.0
O172 O 0.88858 0.02648 0.55218 0.0
O173 O 0.93835 -0.00335 0.56497 0.0
O174 O 0.10514 0.01378 0.53534 0.0
O175 O 1.00028 0.97681 0.53624 0.0
C176 C 0.98044 0.92098 0.55745 0.0
O177 O 1.05219 0.93194 0.54769 0.0
O178 O 0.95062 0.93596 0.56804 0.0
C179 C 0.30271 0.98078 0.56026 0.0
Tb180 Tb 0.26521 0.27226 0.55937 0.0
C181 C 0.20139 0.24585 0.58919 0.0
Tb182 Tb 0.23377 0.21828 0.5585 0.0
O183 O 0.06445 0.27782 0.56646 0.0
O184 O 0.11212 0.24814 0.55316 0.0
O185 O 0.25891 0.265 0.58326 0.0
C186 C 0.17791 0.17135 0.56069 0.0
O187 O 0.16672 0.22687 0.58104 0.0
C188 C 0.47672 0.23316 0.55719 0.0
C189 C 0.27233 0.24479 0.52827 0.0
O190 O 0.24124 0.1839 0.57054 0.0
O191 O 0.14304 0.18531 0.54973 0.0
O192 O 0.43501 0.21333 0.55129 0.0
O193 O 0.38631 0.24242 0.56476 0.0
O194 O 0.21718 0.22594 0.53478 0.0
O195 O 0.31474 0.26361 0.53611 0.0
C196 C 0.34101 0.31834 0.55808 0.0
O197 O 0.24191 0.30918 0.55103 0.0
O198 O 0.39893 0.30146 0.56568 0.0
C199 C 1.02212 0.25789 0.56062 0.0
Tb200 Tb 0.07628 0.2746 0.683 0.0
C201 C 0.10456 0.24473 0.65282 0.0
Tb202 Tb 0.11124 0.2167 0.68356 0.0
O203 O 0.28657 0.28347 0.68435 0.0
O204 O 0.22293 0.24853 0.68468 0.0
O205 O 1.05568 0.26426 0.65948 0.0
C206 C 0.18309 0.17068 0.68485 0.0
O207 O 0.14401 0.22511 0.66013 0.0
C208 C 0.86243 0.23051 0.68157 0.0
C209 C 0.10396 0.24671 0.71378 0.0
O210 O 0.22023 0.1859 0.67462 0.0
O211 O 0.11035 0.18169 0.69453 0.0
O212 O 0.90013 0.20824 0.6821 0.0
O213 O 0.96463 0.24288 0.68178 0.0
O214 O 0.14874 0.22721 0.70676 0.0
O215 O 1.05769 0.26607 0.7067 0.0
C216 C 0.98297 0.3194 0.68236 0.0
O217 O 0.95033 0.30301 0.69205 0.0
O218 O 0.06579 0.31039 0.67296 0.0
C219 C 0.32459 0.26113 0.68475 0.0
Tb220 Tb 0.30159 0.9662 0.68293 0.0
C221 C 0.24302 0.99232 0.65266 0.0
Tb222 Tb 0.2724 0.02022 0.68327 0.0
O223 O 0.09988 0.96023 0.67608 0.0
O224 O 0.14956 0.99059 0.6886 0.0
O225 O 0.29645 0.97301 0.65894 0.0
C226 C 0.22309 0.06735 0.68127 0.0
O227 O 0.21096 0.01177 0.66046 0.0
C228 C 0.51374 0.00459 0.68554 0.0
C229 C 0.30709 0.99454 0.71379 0.0
O230 O 0.31185 0.05585 0.67388 0.0
O231 O 0.15901 0.05217 0.6895 0.0
O232 O 0.47161 0.02425 0.69162 0.0
O233 O 0.42428 -0.00439 0.67761 0.0
O234 O 0.25388 0.01335 0.70698 0.0
O235 O 0.35143 0.97562 0.70619 0.0
C236 C 0.379 0.92029 0.68484 0.0
O237 O 0.30216 0.93105 0.69417 0.0
O238 O 0.41368 0.9354 0.67454 0.0
C239 C 1.05888 0.98067 0.68127 0.0
Tb240 Tb 1.00643 0.96785 0.4335 0.0
C241 C 1.01562 -0.00243 0.46386 0.0
Tb242 Tb 1.04008 0.02566 0.4332 0.0
O243 O 0.21731 0.95938 0.43208 0.0
O244 O 0.15253 0.99404 0.43185 0.0
O245 O 0.9705 0.97817 0.45672 0.0
C246 C 0.12834 0.07066 0.43231 0.0
O247 O 0.06109 0.01703 0.45688 0.0
C248 C 0.79232 0.01213 0.43495 0.0
C249 C 1.01128 -0.0039 0.40285 0.0
O250 O 0.16729 0.05431 0.44178 0.0
O251 O 1.04235 0.06149 0.42327 0.0
O252 O 0.83 0.03446 0.43475 0.0
O253 O 0.89399 -0.00046 0.43466 0.0
O254 O 1.05952 0.0156 0.40964 0.0
O255 O 0.97274 0.97635 0.41006 0.0
C256 C 0.93612 0.92188 0.43492 0.0
O257 O 0.89722 0.93697 0.42465 0.0
O258 O 1.00974 0.93297 0.44455 0.0
C259 C 0.25474 0.98165 0.43166 0.0
Tb260 Tb 0.85522 0.77151 0.43367 0.0
C261 C 0.83015 0.74518 0.46412 0.0
Tb262 Tb 0.82935 0.7176 0.43294 0.0
O263 O 0.65809 0.77502 0.44236 0.0
O264 O 0.70399 0.74686 0.4279 0.0
O265 O 0.87743 0.76451 0.45736 0.0
C266 C 0.75727 0.67147 0.43439 0.0
O267 O 0.78921 0.72598 0.45651 0.0
C268 C 0.06973 0.73295 0.4308 0.0
C269 C 0.87731 0.74417 0.40276 0.0
O270 O 0.86041 0.68057 0.44064 0.0
O271 O 0.69335 0.68841 0.42753 0.0
O272 O 1.02801 0.713 0.42491 0.0
O273 O 0.98069 0.74211 0.43865 0.0
O274 O 0.82696 0.72464 0.40903 0.0
O275 O 0.91056 0.76352 0.41063 0.0
C276 C 0.90137 0.81864 0.43156 0.0
O277 O 0.8104 0.80706 0.42449 0.0
O278 O 0.96928 0.80357 0.43955 0.0
C279 C 0.61567 0.75557 0.43602 0.0
Tb280 Tb 1.00774 0.77209 0.30865 0.0
C281 C 1.03663 0.74556 0.27828 0.0
Tb282 Tb 1.03818 0.71797 0.3093 0.0
O283 O 0.20815 0.77683 0.30111 0.0
O284 O 0.16032 0.74769 0.31457 0.0
O285 O 0.98344 0.76438 0.28504 0.0
C286 C 0.11553 0.67194 0.308 0.0
O287 O 0.08186 0.72673 0.28591 0.0
C288 C 0.79572 0.73275 0.31108 0.0
C289 C 0.98006 0.74436 0.3393 0.0
O290 O 1.01356 0.68083 0.30135 0.0
O291 O 0.1752 0.68906 0.31519 0.0
O292 O 0.83796 0.71269 0.31678 0.0
O293 O 0.88534 0.74231 0.3035 0.0
O294 O 1.03603 0.72519 0.33319 0.0
O295 O 0.94419 0.76344 0.33131 0.0
C296 C 0.95387 0.81916 0.3108 0.0
O297 O 1.01526 0.80646 0.32075 0.0
O298 O 0.91949 0.80525 0.2998 0.0
C299 C 0.25004 0.75693 0.30691 0.0
Tb300 Tb 0.8806 0.96983 0.30863 0.0
C301 C 0.83752 -0.0043 0.27837 0.0
Tb302 Tb 0.84717 0.02386 0.30915 0.0
O303 O 0.67822 0.96445 0.30165 0.0
O304 O 0.72734 0.99404 0.31471 0.0
O305 O 0.8979 0.97744 0.28497 0.0
C306 C 0.76586 0.0697 0.30763 0.0
O307 O 0.79071 0.01419 0.28616 0.0
C308 C 0.09185 0.00998 0.31017 0.0
C309 C 0.91663 -0.00243 0.33905 0.0
O310 O 0.83739 0.05891 0.29776 0.0
O311 O 0.7387 0.05464 0.31826 0.0
O312 O 1.05047 0.03042 0.31533 0.0
O313 O 1.00027 -0.00015 0.30312 0.0
O314 O 0.85637 0.01647 0.33308 0.0
O315 O 0.95216 0.97866 0.33097 0.0
C316 C 0.93708 0.92287 0.31071 0.0
O317 O 0.87958 0.93561 0.32088 0.0
O318 O 0.96621 0.9367 0.29952 0.0
C319 C 0.63647 0.98443 0.3073 0.0
Tb320 Tb 0.56215 0.46457 0.55886 0.0
C321 C 0.60362 0.49395 0.58911 0.0
Tb322 Tb 0.59602 0.5225 0.55861 0.0
O323 O 0.77215 0.45589 0.5568 0.0
O324 O 0.70766 0.49073 0.55665 0.0
O325 O 0.55165 0.47453 0.58257 0.0
C326 C 0.66839 0.56853 0.55744 0.0
O327 O 0.63977 0.51365 0.58172 0.0
C328 C 0.34792 0.50859 0.56121 0.0
C329 C 0.57439 0.49324 0.52823 0.0
O330 O 0.70734 0.55314 0.56752 0.0
O331 O 0.59324 0.55772 0.54784 0.0
O332 O 0.38533 0.53086 0.56063 0.0
O333 O 0.45043 0.49625 0.56091 0.0
O334 O 0.62352 0.51243 0.53524 0.0
O335 O 0.53198 0.47362 0.53532 0.0
C336 C 0.47412 0.41934 0.55975 0.0
O337 O 0.43441 0.43579 0.55039 0.0
O338 O 0.56072 0.42855 0.5687 0.0
C339 C 0.80976 0.47822 0.5564 0.0
Tb340 Tb 0.80122 0.77294 0.55971 0.0
C341 C 0.74306 0.74664 0.58984 0.0
Tb342 Tb 0.77127 0.71886 0.55921 0.0
O343 O 0.59975 0.77893 0.56641 0.0
O344 O 0.64877 0.74864 0.55384 0.0
O345 O 0.79702 0.76594 0.58367 0.0
C346 C 0.71926 0.67179 0.56099 0.0
O347 O 0.71056 0.72727 0.58196 0.0
C348 C 1.01289 0.73429 0.55722 0.0
C349 C 0.80769 0.74472 0.52884 0.0
O350 O 0.80921 0.683 0.56846 0.0
O351 O 0.65567 0.68722 0.55279 0.0
O352 O 0.97041 0.71464 0.55113 0.0
O353 O 0.92369 0.74337 0.56506 0.0
O354 O 0.75385 0.72591 0.5355 0.0
O355 O 0.85173 0.76359 0.53654 0.0
C356 C 0.87676 0.81898 0.55779 0.0
O357 O 0.79988 0.80808 0.54844 0.0
O358 O 0.91272 0.80392 0.56812 0.0
C359 C 0.55839 0.75856 0.56112 0.0
Tb360 Tb 0.56575 0.77271 0.68313 0.0
C361 C 0.62441 0.74647 0.65298 0.0
Tb362 Tb 0.59445 0.71873 0.68355 0.0
O363 O 0.7668 0.77871 0.67635 0.0
O364 O 0.71823 0.74833 0.68887 0.0
O365 O 0.57038 0.76576 0.65916 0.0
C366 C 0.63779 0.67142 0.68146 0.0
O367 O 0.65655 0.72707 0.66085 0.0
C368 C 0.35361 0.73448 0.68582 0.0
C369 C 0.56375 0.74454 0.71402 0.0
O370 O 0.55079 0.68338 0.67397 0.0
O371 O 0.70393 0.68625 0.68982 0.0
O372 O 0.39633 0.71493 0.69201 0.0
O373 O 0.44221 0.74335 0.67783 0.0
O374 O 0.61649 0.72571 0.70724 0.0
O375 O 0.5183 0.76338 0.70639 0.0
C376 C 0.48833 0.81862 0.68494 0.0
O377 O 0.56575 0.8079 0.69432 0.0
O378 O 0.45306 0.80346 0.67464 0.0
C379 C 0.80823 0.75827 0.68156 0.0
Tb380 Tb 0.75753 0.46534 0.6828 0.0
C381 C 0.71116 0.49369 0.65269 0.0
Tb382 Tb 0.72463 0.52162 0.68356 0.0
O383 O 0.55615 0.46017 0.67563 0.0
O384 O 0.60706 0.49063 0.68808 0.0
O385 O 0.76197 0.47407 0.65901 0.0
C386 C 0.65775 0.5679 0.68529 0.0
O387 O 0.67762 0.51327 0.66035 0.0
C388 C 0.97367 0.50892 0.68057 0.0
C389 C 0.75847 0.49331 0.71373 0.0
O390 O 0.61326 0.55279 0.67533 0.0
O391 O 0.73454 0.55661 0.69448 0.0
O392 O 0.93387 0.53099 0.68136 0.0
O393 O 0.87319 0.49615 0.68116 0.0
O394 O 0.70386 0.51221 0.70705 0.0
O395 O 0.80218 0.47429 0.70615 0.0
C396 C 0.83766 0.41969 0.68406 0.0
O397 O 0.74346 0.4288 0.69191 0.0
O398 O 0.88798 0.43638 0.67568 0.0
C399 C 0.51619 0.48084 0.68063 0.0
Tb400 Tb 0.50995 0.46762 0.43317 0.0
C401 C 0.53257 0.49677 0.46354 0.0
Tb402 Tb 0.54315 0.52538 0.43294 0.0
O403 O 0.72063 0.45926 0.43119 0.0
O404 O 0.65527 0.49383 0.4306 0.0
O405 O 0.48262 0.47767 0.45653 0.0
C406 C 0.63089 0.57049 0.43204 0.0
O407 O 0.57514 0.51634 0.45644 0.0
C408 C 0.29582 0.5118 0.43568 0.0
C409 C 0.49751 0.49621 0.4027 0.0
O410 O 0.67211 0.55399 0.44127 0.0
O411 O 0.54301 0.5614 0.42321 0.0
O412 O 0.33356 0.53413 0.43532 0.0
O413 O 0.3977 0.49926 0.43522 0.0
O414 O 0.55042 0.5156 0.40918 0.0
O415 O 0.46261 0.47648 0.41013 0.0
C416 C 0.44031 0.42159 0.43463 0.0
O417 O 0.40262 0.43657 0.42425 0.0
O418 O 0.51235 0.43282 0.44434 0.0
C419 C 0.75794 0.48152 0.43049 0.0
Tb420 Tb 0.35919 0.27123 0.43336 0.0
C421 C 0.32378 0.24497 0.46372 0.0
Tb422 Tb 0.33101 0.21747 0.43255 0.0
O423 O 0.16091 0.27521 0.4416 0.0
O424 O 0.20727 0.24688 0.42726 0.0
O425 O 0.37457 0.26419 0.45716 0.0
C426 C 0.25771 0.17146 0.43403 0.0
O427 O 0.28431 0.22587 0.45594 0.0
C428 C 0.57257 0.23234 0.43094 0.0
C429 C 0.38677 0.24378 0.40249 0.0
O430 O 0.35857 0.18063 0.44071 0.0
O431 O 0.19678 0.18826 0.42668 0.0
O432 O 0.53068 0.21247 0.42498 0.0
O433 O 0.48296 0.2417 0.43863 0.0
O434 O 0.33391 0.22436 0.40862 0.0
O435 O 0.41886 0.26311 0.41046 0.0
C436 C 0.40719 0.31831 0.43132 0.0
O437 O 0.31811 0.30675 0.42394 0.0
O438 O 0.47242 0.30323 0.43961 0.0
C439 C 0.11834 0.25582 0.43522 0.0
Tb440 Tb 0.53408 0.27121 0.30864 0.0
C441 C 0.56587 0.24516 0.27824 0.0
Tb442 Tb 0.56397 0.21704 0.3092 0.0
O443 O 0.7327 0.27525 0.30039 0.0
O444 O 0.68668 0.24661 0.31442 0.0
O445 O 0.51308 0.26403 0.28497 0.0
C446 C 0.64301 0.1711 0.30758 0.0
O447 O 0.61112 0.22632 0.2859 0.0
C448 C 0.32118 0.23157 0.31072 0.0
C449 C 0.50503 0.24361 0.3393 0.0
O450 O 0.56447 0.18161 0.29822 0.0
O451 O 0.6784 0.18648 0.31775 0.0
O452 O 0.36241 0.21113 0.31595 0.0
O453 O 0.41167 0.24137 0.30342 0.0
O454 O 0.55894 0.22426 0.33315 0.0
O455 O 0.47264 0.26295 0.33138 0.0
C456 C 0.4863 0.31847 0.31054 0.0
O457 O 0.57367 0.30681 0.31817 0.0
O458 O 0.42254 0.30337 0.30213 0.0
C459 C 0.77545 0.25565 0.30652 0.0
Tb460 Tb 0.38361 0.4683 0.30837 0.0
C461 C 0.37061 0.4982 0.27815 0.0
Tb462 Tb 0.34909 0.52627 0.30896 0.0
O463 O 0.1726 0.45999 0.30996 0.0
O464 O 0.23772 0.49453 0.31074 0.0
O465 O 0.41684 0.47874 0.28515 0.0
C466 C 0.2577 0.57131 0.30978 0.0
O467 O 0.32593 0.51763 0.28527 0.0
C468 C 0.5968 0.5127 0.30668 0.0
C469 C 0.39118 0.49656 0.33905 0.0
O470 O 0.21773 0.55461 0.30061 0.0
O471 O 0.34662 0.56245 0.31859 0.0
O472 O 0.55897 0.53505 0.30714 0.0
O473 O 0.495 0.50013 0.3069 0.0
O474 O 0.33912 0.51608 0.33262 0.0
O475 O 0.42701 0.47691 0.33156 0.0
C476 C 0.45253 0.42205 0.30709 0.0
O477 O 0.49004 0.43714 0.31742 0.0
O478 O 0.38134 0.43332 0.29729 0.0
C479 C 0.13515 0.48224 0.31074 0.0
Tb480 Tb 0.57753 0.96436 0.05913 0.0
C481 C 0.60672 0.994 0.08944 0.0
Tb482 Tb 0.61173 0.02237 0.05879 0.0
O483 O 0.78785 0.95564 0.05778 0.0
O484 O 0.72352 0.99054 0.05766 0.0
O485 O 0.5582 0.97448 0.08268 0.0
C486 C 0.68273 0.06847 0.05755 0.0
O487 O 0.64529 0.01373 0.08222 0.0
C488 C 0.36334 0.00849 0.06063 0.0
C489 C 0.60466 0.99247 0.02846 0.0
O490 O 0.72176 0.05318 0.06771 0.0
O491 O 0.60849 0.05749 0.04793 0.0
O492 O 0.40075 0.03077 0.06022 0.0
O493 O 0.4656 -0.0039 0.06038 0.0
O494 O 0.64848 0.01198 0.0356 0.0
O495 O 0.55906 0.97299 0.03542 0.0
C496 C 0.48884 0.91921 0.0598 0.0
O497 O 0.44927 0.93579 0.05051 0.0
O498 O 0.57563 0.92826 0.0688 0.0
C499 C 0.8254 0.97799 0.05752 0.0
Tb500 Tb 0.80958 0.27315 0.05902 0.0
C501 C 0.75373 0.2469 0.08924 0.0
Tb502 Tb 0.78013 0.21901 0.05861 0.0
O503 O 0.60825 0.27912 0.06581 0.0
O504 O 0.65718 0.24876 0.05331 0.0
O505 O 0.80661 0.26622 0.08298 0.0
C506 C 0.72987 0.17187 0.0606 0.0
O507 O 0.72096 0.22747 0.08142 0.0
C508 C 1.02135 0.23461 0.05641 0.0
C509 C 0.81272 0.24486 0.02814 0.0
O510 O 0.81981 0.18328 0.06796 0.0
O511 O 0.66531 0.18714 0.05239 0.0
O512 O 0.97886 0.21493 0.05034 0.0
O513 O 0.93237 0.24361 0.0643 0.0
O514 O 0.7601 0.22601 0.0349 0.0
O515 O 0.85752 0.26376 0.03577 0.0
C516 C 0.88739 0.31909 0.05723 0.0
O517 O 0.80923 0.30844 0.0479 0.0
O518 O 0.92313 0.30384 0.06746 0.0
C519 C 0.56695 0.25868 0.06061 0.0
Tb520 Tb 0.5832 0.27304 0.18272 0.0
C521 C 0.6451 0.24687 0.15264 0.0
Tb522 Tb 0.61494 0.21878 0.18305 0.0
O523 O 0.78515 0.27935 0.17622 0.0
O524 O 0.73658 0.24869 0.18841 0.0
O525 O 0.58734 0.26584 0.15877 0.0
C526 C 0.66922 0.17163 0.18102 0.0
O527 O 0.6811 0.22776 0.16058 0.0
C528 C 0.3719 0.23389 0.18482 0.0
C529 C 0.58212 0.24476 0.21345 0.0
O530 O 0.61035 0.18438 0.17089 0.0
O531 O 0.70104 0.18555 0.19211 0.0
O532 O 0.41372 0.21379 0.19036 0.0
O533 O 0.46189 0.24328 0.1773 0.0
O534 O 0.63939 0.2264 0.20666 0.0
O535 O 0.53326 0.2633 0.20583 0.0
C536 C 0.50529 0.31912 0.18453 0.0
O537 O 0.58004 0.30817 0.1941 0.0
O538 O 0.47272 0.30406 0.17405 0.0
C539 C 0.82689 0.25883 0.18126 0.0
Tb540 Tb 0.77747 0.96645 0.183 0.0
C541 C 0.70659 0.99273 0.15313 0.0
Tb542 Tb 0.74401 0.02064 0.1835 0.0
O543 O 0.57424 0.95985 0.1769 0.0
O544 O 0.62437 0.99058 0.18903 0.0
O545 O 0.76693 0.97381 0.15908 0.0
C546 C 0.68849 0.06773 0.18134 0.0
O547 O 0.67179 0.0117 0.16121 0.0
C548 C 0.98802 0.00584 0.18486 0.0
C549 C 0.78676 0.99473 0.21377 0.0
O550 O 0.74635 0.05491 0.17123 0.0
O551 O 0.65847 0.0539 0.19251 0.0
O552 O 0.94661 0.02587 0.19049 0.0
O553 O 0.8968 -0.00365 0.17745 0.0
O554 O 0.7267 0.01303 0.20716 0.0
O555 O 0.83338 0.9762 0.206 0.0
C556 C 0.8587 0.92051 0.18451 0.0
O557 O 0.78594 0.93125 0.19428 0.0
O558 O 0.88731 0.9357 0.17399 0.0
C559 C 0.53284 0.98031 0.18202 0.0
Tb560 Tb 0.53661 0.96822 0.9332 0.0
C561 C 0.58298 0.99374 0.96367 0.0
Tb562 Tb 0.57011 0.02253 0.93315 0.0
O563 O 0.73922 0.96252 0.94003 0.0
O564 O 0.68952 0.99264 0.92743 0.0
O565 O 0.52405 0.97543 0.95694 0.0
C566 C 0.64769 0.06862 0.93483 0.0
O567 O 0.62735 0.01261 0.95607 0.0
C568 C 0.32561 0.00839 0.93189 0.0
C569 C 0.50518 -0.00319 0.90294 0.0
O570 O 0.57547 0.05765 0.94455 0.0
O571 O 0.67806 0.05356 0.9243 0.0
O572 O 0.36662 0.02894 0.9269 0.0
O573 O 0.41749 -0.00177 0.9389 0.0
O574 O 0.56369 0.01565 0.90918 0.0
O575 O 0.4693 0.97763 0.91077 0.0
C576 C 0.47255 0.92149 0.93123 0.0
O577 O 0.5382 0.9335 0.92137 0.0
O578 O 0.4403 0.9359 0.94203 0.0
C579 C 0.78066 0.98277 0.9347 0.0
Tb580 Tb 0.35236 0.77124 0.93343 0.0
C581 C 0.31171 0.74508 0.96368 0.0
Tb582 Tb 0.3186 0.71696 0.93299 0.0
O583 O 0.15007 0.77695 0.94015 0.0
O584 O 0.19869 0.74697 0.92747 0.0
O585 O 0.37145 0.76334 0.95708 0.0
C586 C 0.23987 0.67095 0.9346 0.0
O587 O 0.26373 0.72665 0.95591 0.0
C588 C 0.56315 0.73105 0.93181 0.0
C589 C 0.38094 0.74307 0.90299 0.0
O590 O 0.31258 0.68187 0.94439 0.0
O591 O 0.20991 0.686 0.92402 0.0
O592 O 0.52152 0.71057 0.92671 0.0
O593 O 0.47208 0.74112 0.93888 0.0
O594 O 0.32225 0.72421 0.90909 0.0
O595 O 0.41803 0.76209 0.91095 0.0
C596 C 0.41596 0.81803 0.93157 0.0
O597 O 0.35871 0.80557 0.92118 0.0
O598 O 0.4402 0.80403 0.94287 0.0
C599 C 0.10816 0.75675 0.93476 0.0
Tb600 Tb 0.51365 0.77101 0.80915 0.0
C601 C 0.54742 0.74498 0.77877 0.0
Tb602 Tb 0.54586 0.71672 0.80948 0.0
O603 O 0.71497 0.77627 0.80198 0.0
O604 O 0.66708 0.74653 0.81489 0.0
O605 O 0.48967 0.7633 0.78555 0.0
C606 C 0.62374 0.67065 0.80766 0.0
O607 O 0.5965 0.72647 0.78641 0.0
C608 C 0.30203 0.73104 0.81098 0.0
C609 C 0.4859 0.74291 0.83957 0.0
O610 O 0.54926 0.68162 0.79807 0.0
O611 O 0.65598 0.68569 0.81816 0.0
O612 O 0.34366 0.71051 0.81603 0.0
O613 O 0.39258 0.74104 0.80381 0.0
O614 O 0.54336 0.72394 0.83341 0.0
O615 O 0.44895 0.76198 0.83166 0.0
C616 C 0.45562 0.818 0.81119 0.0
O617 O 0.51417 0.80534 0.82139 0.0
O618 O 0.42658 0.80408 0.8 0.0
C619 C 0.75697 0.75612 0.80743 0.0
Tb620 Tb 0.36633 0.96877 0.80903 0.0
C621 C 0.32978 0.9946 0.77857 0.0
Tb622 Tb 0.3343 0.02305 0.80925 0.0
O623 O 0.16447 0.96353 0.8018 0.0
O624 O 0.2135 0.99329 0.81471 0.0
O625 O 0.38749 0.97625 0.7854 0.0
C626 C 0.25614 0.0691 0.80744 0.0
O627 O 0.28201 0.01322 0.78616 0.0
C628 C 0.5782 0.00872 0.81081 0.0
C629 C 0.39703 -0.00296 0.83942 0.0
O630 O 0.33051 0.0582 0.7979 0.0
O631 O 0.22414 0.05401 0.81788 0.0
O632 O 0.53708 0.02927 0.81582 0.0
O633 O 0.48697 -0.00131 0.80364 0.0
O634 O 0.33932 0.01601 0.83321 0.0
O635 O 0.43297 0.97791 0.83154 0.0
C636 C 0.42416 0.92178 0.81119 0.0
O637 O 0.36431 0.93441 0.82123 0.0
O638 O 0.45461 0.93573 0.8001 0.0
C639 C 0.12297 0.98369 0.80724 0.0
C640 C 0.96041 0.38216 0.07071 0.0
C641 C 0.97081 0.39481 0.05717 0.0
H642 H 0.93041 0.34789 0.08127 0.0
C643 C 0.95524 0.38237 0.04358 0.0
H644 H 0.97312 0.39138 0.08131 0.0
C645 C 0.92684 0.35768 0.04357 0.0
C646 C 0.91903 0.34496 0.05712 0.0
H647 H 0.96321 0.39182 0.03301 0.0
H648 H 0.91288 0.34846 0.03299 0.0
C649 C 0.93709 0.35733 0.07068 0.0
C650 C 0.51911 0.87687 0.06842 0.0
C651 C 0.45171 0.89355 0.05941 0.0
H652 H 0.54238 0.83988 0.07481 0.0
C653 C 0.3529 0.88531 0.04975 0.0
H654 H 0.59625 0.88274 0.07591 0.0
C655 C 0.32168 0.86075 0.04918 0.0
C656 C 0.38978 0.84408 0.05814 0.0
H657 H 0.29986 0.89782 0.04266 0.0
H658 H 0.24449 0.8548 0.04172 0.0
C659 C 0.48887 0.85234 0.06773 0.0
C660 C 0.90518 0.88199 0.19813 0.0
C661 C 0.89228 0.89463 0.18458 0.0
H662 H 0.94678 0.84799 0.20868 0.0
C663 C 0.90719 0.88216 0.17102 0.0
H664 H 0.89382 0.89124 0.20872 0.0
C665 C 0.93227 0.85734 0.17099 0.0
C666 C 0.9475 0.84477 0.18453 0.0
H667 H 0.89671 0.89149 0.16042 0.0
H668 H 0.94236 0.84807 0.16038 0.0
C669 C 0.93515 0.85732 0.19811 0.0
C670 C 0.43753 0.38262 0.17117 0.0
C671 C 0.42627 0.39521 0.18474 0.0
H672 H 0.46672 0.34836 0.16053 0.0
C673 C 0.43907 0.38256 0.19829 0.0
H674 H 0.42689 0.39197 0.16059 0.0
C675 C 0.46571 0.35776 0.19825 0.0
C676 C 0.47463 0.34512 0.18467 0.0
H677 H 0.43034 0.39191 0.20889 0.0
H678 H 0.47762 0.34842 0.20882 0.0
C679 C 0.45919 0.3577 0.17114 0.0
C680 C 0.17126 0.60756 0.92115 0.0
C681 C 0.15616 0.59507 0.9347 0.0
H682 H 0.20505 0.64169 0.91055 0.0
C683 C 0.16707 0.60774 0.94826 0.0
H684 H 0.16224 0.59819 0.91055 0.0
C685 C 0.19546 0.63246 0.94827 0.0
C686 C 0.20809 0.64502 0.9347 0.0
H687 H 0.15549 0.59847 0.95885 0.0
H688 H 0.20572 0.64183 0.95885 0.0
C689 C 0.19468 0.63242 0.92115 0.0
C690 C 0.71667 0.13214 0.94831 0.0
C691 C 0.72602 0.1447 0.93471 0.0
H692 H 0.68097 0.09807 0.959 0.0
C693 C 0.71105 0.13205 0.9212 0.0
H694 H 0.72822 0.14155 0.95887 0.0
C695 C 0.68941 0.10714 0.92127 0.0
C696 C 0.67769 0.09463 0.93486 0.0
H697 H 0.7189 0.14133 0.91057 0.0
H698 H 0.67913 0.09773 0.9107 0.0
C699 C 0.69004 0.10735 0.94839 0.0
C700 C 0.18785 0.13248 0.82086 0.0
C701 C 0.17564 0.14511 0.8073 0.0
H702 H 0.21831 0.0982 0.83146 0.0
C703 C 0.18813 0.13253 0.79374 0.0
H704 H 0.17748 0.14178 0.83145 0.0
C705 C 0.21535 0.10776 0.79375 0.0
C706 C 0.22518 0.09507 0.80732 0.0
H707 H 0.17869 0.14191 0.78315 0.0
H708 H 0.22696 0.09846 0.78318 0.0
C709 C 0.2101 0.10759 0.82086 0.0
C710 C 0.66465 0.63212 0.79388 0.0
C711 C 0.65493 0.64469 0.80748 0.0
H712 H 0.70153 0.59807 0.7832 0.0
C713 C 0.67045 0.63207 0.821 0.0
H714 H 0.6527 0.6415 0.78333 0.0
C715 C 0.69304 0.60718 0.82093 0.0
C716 C 0.70516 0.59467 0.80734 0.0
H717 H 0.66234 0.64136 0.83162 0.0
H718 H 0.70372 0.5978 0.8315 0.0
C719 C 0.6922 0.60736 0.79381 0.0
C720 C 0.93753 0.88237 0.54392 0.0
C721 C 0.95135 0.895 0.55745 0.0
H722 H 0.89957 0.84817 0.53346 0.0
C723 C 0.94267 0.88245 0.57104 0.0
H724 H 0.94437 0.89173 0.53331 0.0
C725 C 0.92256 0.85752 0.57112 0.0
C726 C 0.90613 0.84494 0.55761 0.0
H727 H 0.95425 0.89183 0.58161 0.0
H728 H 0.91695 0.84816 0.58174 0.0
C729 C 0.91239 0.85756 0.54401 0.0
C730 C 0.30905 0.36067 0.54913 0.0
C731 C 0.37585 0.34413 0.5583 0.0
H732 H 0.28788 0.39765 0.54239 0.0
C733 C 0.47341 0.35254 0.56806 0.0
H734 H 0.23306 0.35462 0.54154 0.0
C735 C 0.50346 0.37709 0.56867 0.0
C736 C 0.43727 0.39364 0.55945 0.0
H737 H 0.52593 0.34017 0.57529 0.0
H738 H 0.57945 0.38308 0.57628 0.0
C739 C 0.33995 0.38525 0.54965 0.0
C740 C 0.85285 0.35318 0.69332 0.0
C741 C 0.9426 0.34488 0.68268 0.0
H742 H 0.74917 0.38363 0.70211 0.0
C743 C 0.99806 0.36134 0.67261 0.0
H744 H 0.80922 0.34083 0.70124 0.0
C745 C 0.96505 0.38574 0.67322 0.0
C746 C 0.87522 0.39407 0.68382 0.0
H747 H 0.06794 0.3554 0.66434 0.0
H748 H 1.00922 0.39805 0.66531 0.0
C749 C 0.81899 0.37761 0.69385 0.0
C750 C 0.44732 0.8571 0.69859 0.0
C751 C 0.45785 0.8445 0.68502 0.0
H752 H 0.4103 0.89123 0.70913 0.0
C753 C 0.44422 0.85699 0.67145 0.0
H754 H 0.45795 0.84776 0.70917 0.0
C755 C 0.42261 0.88187 0.67143 0.0
C756 C 0.40947 0.89441 0.68498 0.0
H757 H 0.45316 0.84761 0.66086 0.0
H758 H 0.41329 0.89122 0.66082 0.0
C759 C 0.42052 0.88185 0.69856 0.0
C760 C 0.26255 0.10467 0.44233 0.0
C761 C 0.16464 0.09628 0.43262 0.0
H762 H 0.36907 0.13536 0.45037 0.0
C763 C 0.09695 0.11276 0.42351 0.0
H764 H 0.31568 0.09228 0.44949 0.0
C765 C 0.12597 0.1373 0.42416 0.0
C766 C 0.22408 0.14572 0.43382 0.0
H767 H 1.02047 0.10672 0.41597 0.0
H768 H 0.07232 0.14965 0.41702 0.0
C769 C 0.29258 0.12925 0.44287 0.0
C770 C 0.62382 0.6374 0.42466 0.0
C771 C 0.72435 0.64568 0.43404 0.0
H772 H 0.5172 0.60691 0.41651 0.0
C773 C 0.79603 0.62902 0.44262 0.0
H774 H 0.56769 0.64988 0.41787 0.0
C775 C 0.76675 0.60442 0.44191 0.0
C776 C 0.66645 0.59616 0.43247 0.0
H777 H 0.87443 0.63502 0.4499 0.0
H778 H 0.82236 0.59189 0.44872 0.0
C779 C 0.59558 0.61282 0.42382 0.0
C780 C 0.28552 0.61377 0.31834 0.0
C781 C 0.21838 0.5969 0.30946 0.0
H782 H 0.30659 0.65085 0.32465 0.0
C783 C 0.11757 0.60486 0.29998 0.0
H784 H 0.36411 0.60812 0.3257 0.0
C785 C 0.08427 0.62935 0.29943 0.0
C786 C 0.15219 0.64623 0.30825 0.0
H787 H 0.06461 0.5922 0.29299 0.0
H788 H 1.00567 0.63507 0.2921 0.0
C789 C 0.25314 0.63823 0.31769 0.0
C790 C 0.7144 0.10787 0.29396 0.0
C791 C 0.73216 0.09552 0.30753 0.0
H792 H 0.66851 0.14165 0.28337 0.0
C793 C 0.72188 0.1082 0.32107 0.0
H794 H 0.72216 0.09842 0.28338 0.0
C795 C 0.69654 0.13298 0.32104 0.0
C796 C 0.67634 0.14526 0.30749 0.0
H797 H 0.73619 0.09905 0.33167 0.0
H798 H 0.69005 0.14245 0.33162 0.0
C799 C 0.68404 0.1325 0.29395 0.0
C800 C 0.18582 0.47067 0.1133 0.0
C801 C 0.1732 0.49247 0.10541 0.0
H802 H 0.22355 0.45371 0.13447 0.0
C803 C 0.18759 0.51435 0.11317 0.0
H804 H 0.1758 0.45354 0.10758 0.0
C805 C 0.21271 0.51445 0.12855 0.0
C806 C 0.22678 0.49267 0.13643 0.0
H807 H 0.17789 0.53144 0.10739 0.0
H808 H 0.22264 0.53161 0.13423 0.0
C809 C 0.21383 0.47076 0.12865 0.0
C810 C 0.18393 0.76807 0.11342 0.0
C811 C 0.19764 0.74618 0.10566 0.0
H812 H 0.14667 0.78528 0.13445 0.0
C813 C 0.18551 0.72438 0.11353 0.0
H814 H 0.1921 0.78515 0.10761 0.0
C815 C 0.16157 0.72446 0.1289 0.0
C816 C 0.14646 0.74634 0.13664 0.0
H817 H 0.19604 0.70724 0.10784 0.0
H818 H 0.15338 0.70737 0.1347 0.0
C819 C 0.15719 0.76815 0.12875 0.0
C820 C 0.91738 0.51881 0.86322 0.0
C821 C 0.90547 0.49693 0.8554 0.0
H822 H 0.95389 0.536 0.88434 0.0
C823 C 0.92005 0.47513 0.86325 0.0
H824 H 0.90723 0.53589 0.85744 0.0
C825 C 0.94452 0.4752 0.87864 0.0
C826 C 0.95776 0.49706 0.88645 0.0
H827 H 0.91091 0.45798 0.85752 0.0
H828 H 0.95456 0.4581 0.8844 0.0
C829 C 0.94475 0.51888 0.87858 0.0
C830 C 0.95983 0.26453 0.86318 0.0
C831 C 0.97514 0.24272 0.85539 0.0
H832 H 0.92384 0.28163 0.88424 0.0
C833 C 0.96284 0.22085 0.8632 0.0
H834 H 0.96915 0.28167 0.85747 0.0
C835 C 0.93445 0.22083 0.8785 0.0
C836 C 0.92078 0.24267 0.88632 0.0
H837 H 0.97345 0.20377 0.85744 0.0
H838 H 0.92515 0.20372 0.88426 0.0
C839 C 0.93433 0.26451 0.87852 0.0
C840 C 0.17567 0.01405 0.61323 0.0
C841 C 0.15656 0.99227 0.60549 0.0
H842 H 0.21669 0.03111 0.63422 0.0
C843 C 0.16753 0.9704 0.61335 0.0
H844 H 0.1675 0.0312 0.6075 0.0
C845 C 0.19805 0.97034 0.62864 0.0
C846 C 0.21541 0.99217 0.6364 0.0
H847 H 0.15402 0.95333 0.60765 0.0
H848 H 0.20594 0.95324 0.63443 0.0
C849 C 0.20347 0.01401 0.62855 0.0
C850 C 0.16316 0.26739 0.61343 0.0
C851 C 0.17239 0.2457 0.60537 0.0
H852 H 0.13158 0.28411 0.63473 0.0
C853 C 0.15359 0.22376 0.61292 0.0
H854 H 0.17621 0.28458 0.60789 0.0
C855 C 0.12953 0.22347 0.6283 0.0
C856 C 0.12112 0.24514 0.63639 0.0
H857 H 0.16016 0.20674 0.60701 0.0
H858 H 0.11795 0.20625 0.63386 0.0
C859 C 0.1365 0.26712 0.62877 0.0
C860 C 0.98887 0.97504 0.37821 0.0
C861 C 0.99509 -0.00336 0.3864 0.0
H862 H 0.96071 0.95845 0.35682 0.0
C863 C 0.97842 0.01866 0.37883 0.0
H864 H 1.00157 0.95779 0.38373 0.0
C865 C 0.95254 0.01902 0.36344 0.0
C866 C 0.94551 -0.00261 0.35528 0.0
H867 H 0.98173 0.0356 0.38487 0.0
H868 H 0.9383 0.03623 0.35793 0.0
C869 C 0.96567 0.97543 0.36279 0.0
C870 C 0.93677 0.76607 0.36328 0.0
C871 C 0.95341 0.74426 0.35552 0.0
H872 H 0.90094 0.78312 0.38437 0.0
C873 C 0.9433 0.72239 0.36337 0.0
H874 H 0.94433 0.7832 0.35753 0.0
C875 C 0.91627 0.72234 0.37868 0.0
C876 C 0.90138 0.74416 0.38648 0.0
H877 H 0.95488 0.7053 0.35765 0.0
H878 H 0.90911 0.70522 0.38445 0.0
C879 C 0.91231 0.76602 0.37865 0.0
C880 C 0.64102 0.47177 0.61323 0.0
C881 C 0.6263 0.49365 0.60547 0.0
H882 H 0.68216 0.45459 0.63424 0.0
C883 C 0.6406 0.51544 0.61334 0.0
H884 H 0.63173 0.45469 0.60744 0.0
C885 C 0.66859 0.51539 0.62865 0.0
C886 C 0.68513 0.49355 0.63639 0.0
H887 H 0.62982 0.53261 0.60768 0.0
H888 H 0.67841 0.53251 0.63438 0.0
C889 C 0.67128 0.47172 0.62854 0.0
C890 C 0.6997 0.76861 0.61383 0.0
C891 C 0.71456 0.74678 0.60603 0.0
H892 H 0.65712 0.78565 0.63479 0.0
C893 C 0.69876 0.72493 0.61377 0.0
H894 H 0.71048 0.78573 0.60813 0.0
C895 C 0.66979 0.72489 0.62902 0.0
C896 C 0.65352 0.74669 0.6368 0.0
H897 H 0.70988 0.70782 0.60807 0.0
H898 H 0.6589 0.70774 0.63468 0.0
C899 C 0.6682 0.76857 0.62906 0.0
C900 C 0.42935 0.47488 0.3632 0.0
C901 C 0.4145 0.49673 0.35541 0.0
H902 H 0.46717 0.45761 0.38416 0.0
C903 C 0.42898 0.51855 0.36327 0.0
H904 H 0.41888 0.45775 0.35748 0.0
C905 C 0.45912 0.51846 0.37858 0.0
C906 C 0.47304 0.49657 0.38636 0.0
H907 H 0.41934 0.53568 0.35754 0.0
H908 H 0.4695 0.53553 0.38437 0.0
C909 C 0.4572 0.4748 0.37851 0.0
C910 C 0.43051 0.22177 0.37853 0.0
C911 C 0.4157 0.24364 0.38629 0.0
H912 H 0.47269 0.20459 0.35761 0.0
C913 C 0.43163 0.26544 0.37851 0.0
H914 H 0.41972 0.20467 0.38426 0.0
C915 C 0.46038 0.26538 0.36324 0.0
C916 C 0.47636 0.24353 0.3555 0.0
H917 H 0.42065 0.28258 0.38418 0.0
H918 H 0.47125 0.2825 0.35754 0.0
C919 C 0.46179 0.22171 0.3633 0.0
C920 C 0.65524 0.01477 0.12942 0.0
C921 C 0.67633 0.99283 0.13693 0.0
H922 H 0.61723 0.03233 0.10852 0.0
C923 C 0.66861 0.97117 0.12881 0.0
H924 H 0.66064 0.03177 0.13537 0.0
C925 C 0.64126 0.97148 0.11345 0.0
C926 C 0.62375 0.99348 0.10588 0.0
H927 H 0.68349 0.95398 0.13433 0.0
H928 H 0.63758 0.95453 0.10743 0.0
C929 C 0.63053 0.0151 0.11403 0.0
C930 C 0.71585 0.22523 0.11335 0.0
C931 C 0.72762 0.24706 0.10549 0.0
H932 H 0.68194 0.2081 0.13443 0.0
C933 C 0.71182 0.2689 0.11326 0.0
H934 H 0.72785 0.20811 0.10768 0.0
C935 C 0.68321 0.26889 0.12856 0.0
C936 C 0.67258 0.24704 0.13642 0.0
H937 H 0.71958 0.286 0.10747 0.0
H938 H 0.67102 0.28598 0.13425 0.0
C939 C 0.68993 0.22523 0.12868 0.0
C940 C 0.43777 0.97533 0.86347 0.0
C941 C 0.42385 -0.00282 0.85568 0.0
H942 H 0.47275 0.95812 0.88455 0.0
C943 C 0.43706 0.01901 0.86354 0.0
H944 H 0.42761 0.95822 0.85773 0.0
C945 C 0.46529 0.01896 0.87888 0.0
C946 C 0.47789 -0.00293 0.88669 0.0
H947 H 0.42743 0.03613 0.85779 0.0
H948 H 0.47553 0.03603 0.88467 0.0
C949 C 0.46313 0.97528 0.87885 0.0
C950 C 0.447 0.76466 0.86361 0.0
C951 C 0.46016 0.7428 0.85581 0.0
H952 H 0.41332 0.78184 0.8847 0.0
C953 C 0.44701 0.72097 0.86363 0.0
H954 H 0.45712 0.78176 0.85788 0.0
C955 C 0.41953 0.72102 0.87895 0.0
C956 C 0.40762 0.74289 0.88677 0.0
H957 H 0.45604 0.70386 0.85788 0.0
H958 H 0.40929 0.70393 0.88471 0.0
C959 C 0.4224 0.7647 0.87897 0.0
C960 C 0.17372 0.63209 0.04751 0.0
C961 C 0.18412 0.64473 0.06107 0.0
H962 H 0.16645 0.59752 0.0368 0.0
C963 C 0.19308 0.63182 0.07456 0.0
H964 H 0.16821 0.64168 0.03696 0.0
C965 C 0.18927 0.6066 0.07449 0.0
C966 C 0.1812 0.59398 0.0609 0.0
H967 H 0.20198 0.64124 0.08514 0.0
H968 H 0.19388 0.59696 0.08503 0.0
C969 C 0.17425 0.60689 0.04741 0.0
C970 C 0.16332 0.63184 0.19482 0.0
C971 C 0.17643 0.64535 0.18162 0.0
H972 H 0.16264 0.5967 0.20483 0.0
C973 C 0.20073 0.63331 0.16808 0.0
H974 H 0.14346 0.64069 0.20538 0.0
C975 C 0.21426 0.60817 0.16782 0.0
C976 C 0.19964 0.59467 0.18101 0.0
H977 H 0.21058 0.64335 0.15775 0.0
H978 H 0.23528 0.59928 0.15731 0.0
C979 C 0.17307 0.6067 0.19448 0.0
C980 C 0.93872 0.35731 0.9444 0.0
C981 C 0.93546 0.34453 0.93084 0.0
H982 H 0.94302 0.39197 0.95505 0.0
C983 C 0.93604 0.35736 0.91729 0.0
H984 H 0.93691 0.34781 0.955 0.0
C985 C 0.9424 0.38259 0.91731 0.0
C986 C 0.94359 0.39535 0.93089 0.0
H987 H 0.93281 0.34787 0.90669 0.0
H988 H 0.94524 0.39213 0.90674 0.0
C989 C 0.94078 0.38252 0.94443 0.0
C990 C 0.93375 0.38243 0.82444 0.0
C991 C 0.92974 0.39519 0.81087 0.0
H992 H 0.95155 0.3478 0.83504 0.0
C993 C 0.93572 0.38242 0.79732 0.0
H994 H 0.92862 0.39193 0.83502 0.0
C995 C 0.94375 0.35724 0.79733 0.0
C996 C 0.95005 0.34449 0.81089 0.0
H997 H 0.93146 0.39186 0.78671 0.0
H998 H 0.94786 0.34778 0.78673 0.0
C999 C 0.94622 0.35728 0.82445 0.0
C1000 C 0.16222 0.10682 0.54747 0.0
C1001 C 0.16179 0.09419 0.56108 0.0
H1002 H 0.16267 0.1414 0.53672 0.0
C1003 C 0.16366 0.10708 0.5746 0.0
H1004 H 0.15929 0.09722 0.5369 0.0
C1005 C 0.16848 0.1323 0.57449 0.0
C1006 C 0.16661 0.14492 0.56087 0.0
H1007 H 0.16256 0.09767 0.58522 0.0
H1008 H 0.17245 0.14193 0.58504 0.0
C1009 C 0.16258 0.13202 0.54736 0.0
C1010 C 0.27614 0.13351 0.67316 0.0
C1011 C 0.19905 0.14433 0.68422 0.0
H1012 H 0.34368 0.10038 0.66352 0.0
C1013 C 0.12841 0.12967 0.69411 0.0
H1014 H 0.33067 0.14445 0.66534 0.0
C1015 C 0.1337 0.1046 0.69289 0.0
C1016 C 0.21088 0.09376 0.68187 0.0
H1017 H 0.0673 0.13757 0.70267 0.0
H1018 H 0.07851 0.09372 0.70069 0.0
C1019 C 0.28266 0.10837 0.67206 0.0
C1020 C 0.9914 0.85601 0.44296 0.0
C1021 C 0.91235 0.84502 0.43209 0.0
H1022 H 1.05787 0.88911 0.45258 0.0
C1023 C 0.8374 0.85945 0.42238 0.0
H1024 H 1.04901 0.84525 0.45067 0.0
C1025 C 0.84261 0.88458 0.42344 0.0
C1026 C 0.92149 0.89554 0.43435 0.0
H1027 H 0.77495 0.85131 0.41397 0.0
H1028 H 0.78569 0.8954 0.41569 0.0
C1029 C 0.99531 0.88107 0.44414 0.0
C1030 C 0.94938 0.85845 0.32442 0.0
C1031 C 0.94525 0.84564 0.31087 0.0
H1032 H 0.94806 0.89324 0.33497 0.0
C1033 C 0.94184 0.85837 0.2973 0.0
H1034 H 0.95293 0.84895 0.33501 0.0
C1035 C 0.94424 0.88357 0.29726 0.0
C1036 C 0.94615 0.8964 0.31081 0.0
H1037 H 0.94021 0.84885 0.2867 0.0
H1038 H 0.9416 0.89303 0.28665 0.0
C1039 C 0.94748 0.88368 0.32439 0.0
C1040 C 0.76697 0.60539 0.56903 0.0
C1041 C 0.68662 0.59485 0.55808 0.0
H1042 H 0.83984 0.63826 0.57857 0.0
C1043 C 0.61569 0.60978 0.54827 0.0
H1044 H 0.82187 0.59425 0.57679 0.0
C1045 C 0.62399 0.63484 0.54945 0.0
C1046 C 0.70444 0.6454 0.56037 0.0
H1047 H 0.55216 0.60211 0.53979 0.0
H1048 H 0.56848 0.64593 0.54173 0.0
C1049 C 0.7764 0.63051 0.57011 0.0
C1050 C 0.72202 0.60857 0.69438 0.0
C1051 C 0.64634 0.59434 0.68464 0.0
H1052 H 0.78076 0.64419 0.70078 0.0
C1053 C 0.56948 0.6056 0.67365 0.0
H1054 H 0.78312 0.60031 0.70289 0.0
C1055 C 0.56833 0.63076 0.67244 0.0
C1056 C 0.64505 0.64494 0.68212 0.0
H1057 H 0.51127 0.595 0.66592 0.0
H1058 H 0.50744 0.63911 0.66395 0.0
C1059 C 0.72185 0.63365 0.69309 0.0
C1060 C 0.3498 0.3842 0.42297 0.0
C1061 C 0.4262 0.39524 0.43408 0.0
H1062 H 0.28459 0.35089 0.41335 0.0
C1063 C 0.49814 0.38083 0.44409 0.0
H1064 H 0.29438 0.39497 0.41506 0.0
C1065 C 0.49473 0.35575 0.44294 0.0
C1066 C 0.41814 0.3447 0.43186 0.0
H1067 H 0.5588 0.38893 0.4527 0.0
H1068 H 0.55075 0.34504 0.45082 0.0
C1069 C 0.34517 0.35907 0.42192 0.0
C1070 C 0.54707 0.3594 0.31997 0.0
C1071 C 0.47535 0.34495 0.30996 0.0
H1072 H 0.59663 0.39535 0.32689 0.0
C1073 C 0.39962 0.35602 0.29879 0.0
H1074 H 0.60695 0.35125 0.32863 0.0
C1075 C 0.39583 0.38113 0.29762 0.0
C1076 C 0.46658 0.39562 0.3077 0.0
H1077 H 0.34445 0.34528 0.29085 0.0
H1078 H 0.33585 0.38919 0.28894 0.0
C1079 C 0.54209 0.38457 0.31891 0.0
C1080 C 0.77972 0.10561 0.06901 0.0
C1081 C 0.6999 0.09483 0.0581 0.0
H1082 H 0.85139 0.1387 0.07838 0.0
C1083 C 0.62851 0.10956 0.04821 0.0
H1084 H 0.83495 0.09464 0.07682 0.0
C1085 C 0.63589 0.13464 0.04927 0.0
C1086 C 0.71591 0.14545 0.06013 0.0
H1087 H 0.56533 0.1017 0.03976 0.0
H1088 H 0.58005 0.14556 0.04147 0.0
C1089 C 0.78828 0.13076 0.06995 0.0
C1090 C 0.68017 0.1324 0.1946 0.0
C1091 C 0.67806 0.14509 0.181 0.0
H1092 H 0.68025 0.09779 0.20532 0.0
C1093 C 0.67608 0.13218 0.16748 0.0
H1094 H 0.68021 0.14196 0.20517 0.0
C1095 C 0.67885 0.10693 0.16756 0.0
C1096 C 0.67895 0.09425 0.18117 0.0
H1097 H 0.6736 0.14161 0.15686 0.0
H1098 H 0.67988 0.09732 0.157 0.0
C1099 C 0.67867 0.10717 0.19468 0.0
C1100 C 0.43404 0.85742 0.94488 0.0
C1101 C 0.43347 0.84441 0.93139 0.0
H1102 H 0.44228 0.89222 0.95531 0.0
C1103 C 0.4431 0.85695 0.91778 0.0
H1104 H 0.42541 0.84816 0.9555 0.0
C1105 C 0.4558 0.8821 0.9177 0.0
C1106 C 0.45434 0.89511 0.93118 0.0
H1107 H 0.44225 0.84728 0.90724 0.0
H1108 H 0.46553 0.89139 0.90709 0.0
C1109 C 0.44238 0.88259 0.94476 0.0
C1110 C 0.44206 0.85726 0.82487 0.0
C1111 C 0.44366 0.84448 0.8113 0.0
H1112 H 0.43239 0.89201 0.83545 0.0
C1113 C 0.44166 0.85729 0.79775 0.0
H1114 H 0.44428 0.84774 0.83545 0.0
C1115 C 0.43991 0.88251 0.79775 0.0
C1116 C 0.43616 0.8953 0.81131 0.0
H1117 H 0.44426 0.84783 0.78714 0.0
H1118 H 0.43867 0.89199 0.78715 0.0
C1119 C 0.43601 0.8825 0.82487 0.0
C1120 C 0.63742 0.5133 0.0506 0.0
C1121 C 0.7319 0.49902 0.05784 0.0
H1122 H 0.4342 0.51878 0.04587 0.0
C1123 C 0.692 0.47882 0.06608 0.0
H1124 H 0.6657 0.52902 0.04419 0.0
C1125 C 0.55967 0.47299 0.06703 0.0
C1126 C 0.46525 0.48727 0.05976 0.0
H1127 H 0.76283 0.46761 0.07183 0.0
H1128 H 0.5313 0.45728 0.07343 0.0
C1129 C 0.50509 0.50751 0.05158 0.0
C1130 C 0.72365 0.72639 0.05 0.0
C1131 C 0.63077 0.73987 0.05796 0.0
H1132 H 0.92592 0.72125 0.0449 0.0
C1133 C 0.67273 0.75887 0.06715 0.0
H1134 H 0.6938 0.71157 0.04286 0.0
C1135 C 0.80543 0.76439 0.0683 0.0
C1136 C 0.89819 0.75096 0.06031 0.0
H1137 H 0.60333 0.76934 0.07354 0.0
H1138 H 0.83538 0.77921 0.07544 0.0
C1139 C 0.85634 0.73184 0.0512 0.0
C1140 C 0.61677 0.72561 0.19107 0.0
C1141 C 0.71078 0.73996 0.18393 0.0
H1142 H 0.41395 0.7202 0.19581 0.0
C1143 C 0.6702 0.76037 0.17588 0.0
H1144 H 0.64549 0.70973 0.19734 0.0
C1145 C 0.53777 0.76634 0.17502 0.0
C1146 C 0.44383 0.752 0.18219 0.0
H1147 H 0.74058 0.77165 0.17022 0.0
H1148 H 0.50894 0.78222 0.16876 0.0
C1149 C 0.48437 0.73154 0.19018 0.0
C1150 C 0.89416 0.5086 0.19036 0.0
C1151 C 0.93466 0.4882 0.18235 0.0
H1152 H 0.73303 0.53035 0.1974 0.0
C1153 C 0.84047 0.47387 0.17508 0.0
H1154 H 0.96465 0.5199 0.19609 0.0
C1155 C 0.70799 0.4798 0.17583 0.0
C1156 C 0.66746 0.50017 0.18386 0.0
H1157 H 0.86914 0.45802 0.16881 0.0
H1158 H 0.63753 0.46852 0.17008 0.0
C1159 C 0.76167 0.5145 0.19113 0.0
C1160 C 0.62356 0.48182 0.94031 0.0
C1161 C 0.66341 0.50204 0.9321 0.0
H1162 H 0.46285 0.46037 0.94775 0.0
C1163 C 0.56888 0.51631 0.92485 0.0
H1164 H 0.6945 0.47056 0.94602 0.0
C1165 C 0.43651 0.51053 0.92585 0.0
C1166 C 0.39656 0.49036 0.9341 0.0
H1167 H 0.59718 0.53201 0.91843 0.0
H1168 H 0.36569 0.52175 0.9201 0.0
C1169 C 0.49114 0.47607 0.94133 0.0
C1170 C 0.44255 0.22933 0.92565 0.0
C1171 C 0.48336 0.24952 0.93388 0.0
H1172 H 0.2811 0.20783 0.91827 0.0
C1173 C 0.38955 0.26383 0.94112 0.0
H1174 H 0.51278 0.21809 0.91991 0.0
C1175 C 0.25703 0.25807 0.94012 0.0
C1176 C 0.21634 0.23784 0.93192 0.0
H1177 H 0.41852 0.27955 0.94752 0.0
H1178 H 0.18669 0.26935 0.94582 0.0
C1179 C 0.31009 0.22355 0.92467 0.0
C1180 C 0.64209 0.25857 0.80167 0.0
C1181 C 0.68318 0.23807 0.80959 0.0
H1182 H 0.48039 0.28046 0.79475 0.0
C1183 C 0.58964 0.22371 0.81682 0.0
H1184 H 0.71213 0.26991 0.79599 0.0
C1185 C 0.45718 0.2297 0.81611 0.0
C1186 C 0.416 0.25016 0.80817 0.0
H1187 H 0.61881 0.20779 0.82302 0.0
H1188 H 0.38724 0.21838 0.82183 0.0
C1189 C 0.50956 0.26454 0.80095 0.0
C1190 C 0.2923 0.51595 0.81685 0.0
C1191 C 0.19793 0.50162 0.80962 0.0
H1192 H 0.49532 0.52131 0.82176 0.0
C1193 C 0.23811 0.48122 0.8016 0.0
H1194 H 0.26383 0.5318 0.82313 0.0
C1195 C 0.37057 0.47531 0.80076 0.0
C1196 C 0.46497 0.48966 0.80799 0.0
H1197 H 0.16739 0.46991 0.79591 0.0
H1198 H 0.39903 0.45946 0.79449 0.0
C1199 C 0.4247 0.51003 0.81604 0.0
C1200 C 0.53561 0.97325 0.567 0.0
C1201 C 0.44155 0.98758 0.55971 0.0
H1202 H 0.73845 0.96791 0.57204 0.0
C1203 C 0.48185 0.00799 0.55172 0.0
H1204 H 0.50693 0.9574 0.57326 0.0
C1205 C 0.61421 0.01388 0.55096 0.0
C1206 C 0.70832 -0.00045 0.55825 0.0
H1207 H 0.41131 0.0193 0.54599 0.0
H1208 H 0.64282 0.02973 0.5447 0.0
C1209 C 0.66797 0.97918 0.56628 0.0
C1210 C 0.7084 0.22631 0.55002 0.0
C1211 C 0.61583 0.23976 0.55805 0.0
H1212 H 0.91033 0.22135 0.54464 0.0
C1213 C 0.65811 0.25892 0.56709 0.0
H1214 H 0.67833 0.21137 0.54298 0.0
C1215 C 0.79075 0.26461 0.56801 0.0
C1216 C 0.88318 0.25121 0.55994 0.0
H1217 H 0.58902 0.26938 0.57352 0.0
H1218 H 0.82092 0.27954 0.57505 0.0
C1219 C 0.84104 0.23194 0.55098 0.0
C1220 C 0.62501 0.22139 0.68358 0.0
C1221 C 0.72524 0.2386 0.68216 0.0
H1222 H 0.41919 0.21498 0.68562 0.0
C1223 C 0.69244 0.26309 0.68158 0.0
H1224 H 0.64762 0.20232 0.68405 0.0
C1225 C 0.56184 0.27027 0.68255 0.0
C1226 C 0.4617 0.25308 0.68402 0.0
H1227 H 0.76734 0.27664 0.68032 0.0
H1228 H 0.53921 0.28934 0.68207 0.0
C1229 C 0.49434 0.22856 0.68449 0.0
C1230 C 0.87916 0.00661 0.69105 0.0
C1231 C 0.91995 0.98715 0.68221 0.0
H1232 H 0.71743 0.02715 0.69918 0.0
C1233 C 0.82623 0.97327 0.67456 0.0
H1234 H 0.94951 0.01751 0.6971 0.0
C1235 C 0.69365 0.97873 0.67576 0.0
C1236 C 0.65278 -0.00185 0.68463 0.0
H1237 H 0.85534 0.95816 0.66766 0.0
H1238 H 0.62338 0.96786 0.66968 0.0
C1239 C 0.74652 0.01202 0.69229 0.0
C1240 C 0.62286 0.97959 0.43465 0.0
C1241 C 0.6553 0.0041 0.43424 0.0
H1242 H 0.46963 0.95339 0.43412 0.0
C1243 C 0.55505 0.02134 0.43281 0.0
H1244 H 0.69817 0.966 0.43573 0.0
C1245 C 0.42445 0.01419 0.43181 0.0
C1246 C 0.39184 0.9897 0.43232 0.0
H1247 H 0.57761 0.04041 0.43237 0.0
H1248 H 0.34943 0.02775 0.43055 0.0
C1249 C 0.49217 0.97246 0.43371 0.0
C1250 C 0.43401 0.73114 0.42515 0.0
C1251 C 0.4764 0.74945 0.43485 0.0
H1252 H 0.27086 0.71177 0.41617 0.0
C1253 C 0.38392 0.76266 0.44303 0.0
H1254 H 0.50323 0.72089 0.41861 0.0
C1255 C 0.251 0.75763 0.44154 0.0
C1256 C 0.20875 0.73923 0.4319 0.0
H1257 H 0.41422 0.77695 0.45055 0.0
H1258 H 0.18159 0.76796 0.44802 0.0
C1259 C 0.30117 0.72606 0.4237 0.0
C1260 C 0.43138 0.7315 0.31712 0.0
C1261 C 0.38927 0.75048 0.30791 0.0
H1262 H 0.59412 0.71116 0.32541 0.0
C1263 C 0.48205 0.76393 0.29994 0.0
H1264 H 0.36209 0.72107 0.32353 0.0
C1265 C 0.6148 0.75846 0.30113 0.0
C1266 C 0.65674 0.73936 0.31025 0.0
H1267 H 0.45208 0.77874 0.29279 0.0
H1268 H 0.68432 0.76902 0.29482 0.0
C1269 C 0.56408 0.72597 0.31826 0.0
C1270 C 0.27096 0.98287 0.30142 0.0
C1271 C 0.23067 0.00315 0.30955 0.0
H1272 H 0.432 0.96122 0.29424 0.0
C1273 C 0.32475 0.01736 0.31691 0.0
H1274 H 0.20037 0.97165 0.29564 0.0
C1275 C 0.45711 0.01143 0.31613 0.0
C1276 C 0.49751 0.99119 0.30796 0.0
H1277 H 0.29609 0.03311 0.32328 0.0
H1278 H 0.52758 0.02261 0.32195 0.0
C1279 C 0.40337 0.97697 0.3006 0.0
C1280 C 0.11046 0.51783 0.55875 0.0
C1281 C 0.2106 0.50055 0.56024 0.0
H1282 H 0.90482 0.52439 0.55624 0.0
C1283 C 0.17759 0.47606 0.56044 0.0
H1284 H 0.13314 0.5369 0.55857 0.0
C1285 C 1.04702 0.46897 0.55902 0.0
C1286 C 0.94696 0.48625 0.55749 0.0
H1287 H 0.25229 0.46244 0.56173 0.0
H1288 H 1.02433 0.4499 0.55923 0.0
C1289 C 0.9798 0.51075 0.55739 0.0
C1290 C 0.3264 0.76583 0.56796 0.0
C1291 C 0.41939 0.75199 0.56026 0.0
H1292 H 0.12409 0.77114 0.57298 0.0
C1293 C 0.37773 0.73248 0.55148 0.0
H1294 H 0.35615 0.78099 0.57483 0.0
C1295 C 0.24501 0.72697 0.55036 0.0
C1296 C 0.15201 0.74081 0.55807 0.0
H1297 H 0.44743 0.72161 0.54539 0.0
H1298 H 0.21528 0.7118 0.54351 0.0
C1299 C 0.19374 0.76029 0.56688 0.0
C1300 C 0.98894 0.73241 0.69136 0.0
C1301 C 0.94719 0.75181 0.68249 0.0
H1302 H 0.15162 0.71195 0.69952 0.0
C1303 C 1.03999 0.76567 0.6748 0.0
H1304 H 0.91927 0.72152 0.69743 0.0
C1305 C 0.17269 0.76025 0.67599 0.0
C1306 C 0.21453 0.74089 0.6849 0.0
H1307 H 1.01006 0.78074 0.66787 0.0
H1308 H 0.24227 0.77109 0.66989 0.0
C1309 C 0.12172 0.72704 0.69259 0.0
C1310 C 0.14919 0.47838 0.67587 0.0
C1311 C 0.11173 0.50137 0.68068 0.0
H1312 H 0.3074 0.45404 0.67186 0.0
C1313 C 0.20839 0.51777 0.68539 0.0
H1314 H 0.07709 0.46563 0.67194 0.0
C1315 C 0.34019 0.51117 0.68549 0.0
C1316 C 0.37773 0.4882 0.6806 0.0
H1317 H 0.18196 0.5357 0.68913 0.0
H1318 H 0.41254 0.52405 0.6893 0.0
C1319 C 0.28113 0.4719 0.67572 0.0
C1320 C 0.92826 0.51405 0.43145 0.0
C1321 C 0.89514 0.48957 0.43162 0.0
H1322 H 0.08156 0.54019 0.43278 0.0
C1323 C 0.99512 0.47227 0.43319 0.0
H1324 H 0.85375 0.52767 0.43006 0.0
C1325 C 0.12572 0.47932 0.43464 0.0
C1326 C 0.15862 0.50382 0.43458 0.0
H1327 H 0.97237 0.4532 0.43335 0.0
H1328 H 0.20063 0.46567 0.43581 0.0
C1329 C 1.05875 0.52112 0.43298 0.0
C1330 C 0.93637 0.23097 0.42474 0.0
C1331 C 0.97913 0.24951 0.43424 0.0
H1332 H 0.77299 0.21118 0.41619 0.0
C1333 C 0.88703 0.2627 0.44249 0.0
H1334 H 1.00524 0.22071 0.41815 0.0
C1335 C 0.75415 0.25742 0.44128 0.0
C1336 C 0.71154 0.23879 0.43185 0.0
H1337 H 0.9176 0.27717 0.44987 0.0
H1338 H 0.68509 0.26776 0.44781 0.0
C1339 C 0.80358 0.22564 0.42357 0.0
C1340 C 0.14052 0.25757 0.30093 0.0
C1341 C 0.18217 0.23813 0.30979 0.0
H1342 H 0.97794 0.27812 0.29281 0.0
C1343 C 0.08915 0.22432 0.31747 0.0
H1344 H 0.2103 0.26842 0.29485 0.0
C1345 C 0.95646 0.22981 0.3163 0.0
C1346 C 0.91468 0.24919 0.30741 0.0
H1347 H 0.11889 0.20923 0.3244 0.0
H1348 H 0.88683 0.21899 0.32241 0.0
C1349 C 1.00771 0.26301 0.29972 0.0
C1350 C 0.96452 0.51476 0.3106 0.0
C1351 C 0.99783 0.49031 0.30989 0.0
H1352 H 0.81092 0.54094 0.30998 0.0
C1353 C 0.89786 0.47309 0.30814 0.0
H1354 H 1.03902 0.52832 0.31219 0.0
C1355 C 0.76707 0.48019 0.30701 0.0
C1356 C 0.73402 0.50468 0.30758 0.0
H1357 H 0.92076 0.45403 0.30758 0.0
H1358 H 0.69216 0.46659 0.30566 0.0
C1359 C 0.83386 0.52189 0.30938 0.0
C1360 C 0.99499 0.01054 0.05774 0.0
C1361 C 0.96246 0.98604 0.05825 0.0
H1362 H 0.14834 0.03673 0.05812 0.0
C1363 C 0.06273 0.96882 0.05974 0.0
H1364 H 0.91971 0.02413 0.0566 0.0
C1365 C 0.1934 0.97596 0.06068 0.0
C1366 C 0.22612 0.00044 0.06005 0.0
H1367 H 1.04016 0.94975 0.06026 0.0
H1368 H 0.26841 0.9624 0.06197 0.0
C1369 C 0.12576 0.01767 0.05862 0.0
C1370 C 0.20208 0.26052 0.06617 0.0
C1371 C 0.16049 0.24109 0.05731 0.0
H1372 H 0.36437 0.28114 0.07425 0.0
C1373 C 0.25366 0.22724 0.04964 0.0
H1374 H 0.13231 0.27137 0.07226 0.0
C1375 C 0.3864 0.23269 0.05085 0.0
C1376 C 0.42791 0.25216 0.05969 0.0
H1377 H 0.22406 0.21211 0.04275 0.0
H1378 H 0.45625 0.22181 0.04479 0.0
C1379 C 0.33475 0.26601 0.06735 0.0
C1380 C 1.00678 0.23199 0.19026 0.0
C1381 C 0.96582 0.25214 0.182 0.0
H1382 H 0.16849 0.21064 0.19775 0.0
C1383 C 1.05933 0.26639 0.1747 0.0
H1384 H 0.93662 0.22075 0.196 0.0
C1385 C 0.19187 0.26065 0.1757 0.0
C1386 C 0.23291 0.24055 0.18401 0.0
H1387 H 1.03008 0.28204 0.16824 0.0
H1388 H 0.26197 0.27184 0.16992 0.0
C1389 C 0.13933 0.22629 0.19129 0.0
C1390 C 0.35351 0.00739 0.19074 0.0
C1391 C 0.39393 0.98712 0.18262 0.0
H1392 H 0.19241 0.029 0.19793 0.0
C1393 C 0.2999 0.9729 0.17524 0.0
H1394 H 0.42401 0.01862 0.19654 0.0
C1395 C 0.16747 0.97882 0.17601 0.0
C1396 C 0.12698 -0.00095 0.18419 0.0
H1397 H 0.32865 0.95717 0.16887 0.0
H1398 H 0.09705 0.96766 0.17018 0.0
C1399 C 0.22108 0.01326 0.19156 0.0
C1400 C 1.01414 0.97519 0.94129 0.0
C1401 C 0.9197 0.98956 0.93408 0.0
H1402 H 0.21731 0.96976 0.94617 0.0
C1403 C 0.95992 0.00996 0.92607 0.0
H1404 H 0.98571 0.95931 0.94754 0.0
C1405 C 0.0923 0.01589 0.92528 0.0
C1406 C 0.18671 0.00152 0.9325 0.0
H1407 H 0.8893 0.02127 0.92036 0.0
H1408 H 0.12072 0.03176 0.91903 0.0
C1409 C 0.14658 0.98109 0.94048 0.0
C1410 C 0.87517 0.76429 0.94129 0.0
C1411 C 0.96908 0.74996 0.93408 0.0
H1412 H 0.67237 0.76967 0.94613 0.0
C1413 C 0.92833 0.72957 0.92603 0.0
H1414 H 0.90402 0.78015 0.94756 0.0
C1415 C 0.79592 0.72362 0.92522 0.0
C1416 C 0.70206 0.73793 0.93244 0.0
H1417 H 0.99855 0.7183 0.92032 0.0
H1418 H 0.76706 0.70776 0.91894 0.0
C1419 C 0.74271 0.75836 0.94045 0.0
C1420 C 0.06943 0.7235 0.81747 0.0
C1421 C 0.16313 0.73779 0.81023 0.0
H1422 H 0.86674 0.71805 0.82221 0.0
C1423 C 0.12234 0.75801 0.80202 0.0
H1424 H 0.09848 0.7078 0.82389 0.0
C1425 C 0.98979 0.76376 0.801 0.0
C1426 C 0.89604 0.74945 0.80823 0.0
H1427 H 0.19265 0.76928 0.79632 0.0
H1428 H 0.96076 0.77946 0.79458 0.0
C1429 C 0.93693 0.72928 0.81648 0.0
C1430 C 0.75707 0.98177 0.80183 0.0
C1431 C 0.71703 0.00198 0.81005 0.0
H1432 H 0.91799 0.96034 0.79438 0.0
C1433 C 0.8114 0.01627 0.8173 0.0
H1434 H 0.68624 0.9705 0.79613 0.0
C1435 C 0.94381 0.01051 0.81629 0.0
C1436 C 0.98396 0.99035 0.80803 0.0
H1437 H 0.78293 0.03197 0.82372 0.0
H1438 H 1.01453 0.02174 0.82204 0.0
C1439 C 0.88954 0.97604 0.8008 0.0
C1440 C 0.1227 0.514 0.00351 0.0
C1441 C 0.07025 0.49472 0.01177 0.0
H1442 H 0.15844 0.52914 0.98189 0.0
C1443 C 1.01229 0.47543 0.00402 0.0
H1444 H 0.16826 0.52916 0.00911 0.0
C1445 C 1.00695 0.47542 0.98838 0.0
C1446 C 1.05938 0.4947 0.98012 0.0
H1447 H 0.97116 0.46028 0.01001 0.0
H1448 H 0.96135 0.46026 0.98279 0.0
C1449 C 0.11734 0.51399 0.98787 0.0
C1450 C 0.35125 0.76447 0.98863 0.0
C1451 C 0.30178 0.74505 0.98021 0.0
H1452 H 0.38372 0.77958 0.01036 0.0
C1453 C 0.24501 0.72551 0.98776 0.0
H1454 H 0.3957 0.77983 0.98318 0.0
C1455 C 0.2384 0.72536 0.00339 0.0
C1456 C 0.28822 0.74476 0.01181 0.0
H1457 H 0.20611 0.71025 0.98164 0.0
H1458 H 0.19413 0.70999 0.00884 0.0
C1459 C 0.34451 0.76433 0.00424 0.0
C1460 C 0.10031 0.72607 0.25408 0.0
C1461 C 1.04267 0.74543 0.26173 0.0
H1462 H 0.15078 0.71076 0.23293 0.0
C1463 C 0.98984 0.76466 0.25339 0.0
H1464 H 0.14182 0.71095 0.26013 0.0
C1465 C 0.99468 0.76454 0.23776 0.0
C1466 C 1.05272 0.74522 0.23012 0.0
H1467 H 0.94445 0.77987 0.25892 0.0
H1468 H 0.95336 0.77967 0.2317 0.0
C1469 C 0.10537 0.72597 0.23845 0.0
C1470 C 0.40261 0.47741 0.2378 0.0
C1471 C 0.34919 0.49704 0.22993 0.0
H1472 H 0.45166 0.46233 0.25915 0.0
C1473 C 0.30727 0.51735 0.23803 0.0
H1474 H 0.43601 0.4615 0.23192 0.0
C1475 C 0.3163 0.51786 0.25363 0.0
C1476 C 0.36743 0.49808 0.26155 0.0
H1477 H 0.26602 0.53287 0.23236 0.0
H1478 H 0.28151 0.53372 0.25946 0.0
C1479 C 0.41156 0.47791 0.25344 0.0
C1480 C 0.8758 0.26463 0.98819 0.0
C1481 C 0.82506 0.24513 0.97993 0.0
H1482 H 0.91226 0.27985 0.00983 0.0
C1483 C 0.77089 0.22554 0.98767 0.0
H1484 H 0.91843 0.28003 0.9826 0.0
C1485 C 0.76775 0.22542 0.0033 0.0
C1486 C 0.81856 0.24491 0.01157 0.0
H1487 H 0.7312 0.2102 0.98167 0.0
H1488 H 0.72507 0.21002 0.00889 0.0
C1489 C 0.87255 0.26453 0.00383 0.0
C1490 C 0.14441 0.22656 0.75421 0.0
C1491 C 0.09119 0.24622 0.76201 0.0
H1492 H 0.19058 0.21124 0.73288 0.0
C1493 C 1.04684 0.26632 0.75384 0.0
H1494 H 0.17966 0.2108 0.76015 0.0
C1495 C 1.0532 0.2666 0.73825 0.0
C1496 C 0.10396 0.24678 0.73039 0.0
H1497 H 1.00571 0.28184 0.75947 0.0
H1498 H 1.01652 0.28231 0.73237 0.0
C1499 C 0.15062 0.22683 0.73856 0.0
C1500 C 0.83605 0.47409 0.75354 0.0
C1501 C 0.78893 0.49376 0.76188 0.0
H1502 H 0.86359 0.45848 0.73189 0.0
C1503 C 0.73068 0.51315 0.75425 0.0
H1504 H 0.88151 0.45882 0.75904 0.0
C1505 C 0.72054 0.51295 0.73863 0.0
C1506 C 0.76826 0.49334 0.73029 0.0
H1507 H 0.69343 0.52859 0.7603 0.0
H1508 H 0.67551 0.52827 0.73313 0.0
C1509 C 0.82582 0.47388 0.73794 0.0
C1510 C 0.97903 0.97667 0.50414 0.0
C1511 C 1.03147 -0.00371 0.51209 0.0
H1512 H 0.93255 0.96163 0.4827 0.0
C1513 C 0.07406 0.01661 0.50407 0.0
H1514 H 0.94516 0.96075 0.50997 0.0
C1515 C 0.06674 0.01715 0.48847 0.0
C1516 C 1.01673 -0.00262 0.48046 0.0
H1517 H 0.11449 0.03213 0.50982 0.0
H1518 H 0.10202 0.03303 0.48271 0.0
C1519 C 0.97185 0.97719 0.48849 0.0
C1520 C 0.25524 0.22506 0.48764 0.0
C1521 C 0.31081 0.24488 0.48024 0.0
H1522 H 0.19953 0.20946 0.50853 0.0
C1523 C 0.35392 0.26467 0.48879 0.0
H1524 H 0.22099 0.20952 0.48142 0.0
C1525 C 0.34168 0.26465 0.50437 0.0
C1526 C 0.28589 0.24484 0.51176 0.0
H1527 H 0.39732 0.28025 0.48347 0.0
H1528 H 0.37589 0.28019 0.51059 0.0
C1529 C 0.2429 0.22505 0.50322 0.0
C1530 C 0.26814 0.0141 0.7542 0.0
C1531 C 0.32257 0.99452 0.76201 0.0
H1532 H 0.22114 0.02954 0.73293 0.0
C1533 C 0.37259 0.97494 0.7538 0.0
H1534 H 0.229 0.02949 0.76015 0.0
C1535 C 0.36835 0.97496 0.73816 0.0
C1536 C 0.31407 0.99456 0.73035 0.0
H1537 H 0.41541 0.95954 0.75944 0.0
H1538 H 0.4075 0.95958 0.7322 0.0
C1539 C 0.264 0.01413 0.73856 0.0
C1540 C 0.77487 0.72498 0.48837 0.0
C1541 C 0.82498 0.74498 0.48068 0.0
H1542 H 0.73057 0.70915 0.50953 0.0
C1543 C 0.87113 0.76482 0.48898 0.0
H1544 H 0.73874 0.70938 0.48234 0.0
C1545 C 0.86674 0.76469 0.50462 0.0
C1546 C 0.81597 0.74473 0.5123 0.0
H1547 H 0.9107 0.78054 0.48343 0.0
H1548 H 0.9025 0.78031 0.51065 0.0
C1549 C 0.77039 0.72485 0.50399 0.0
C1550 C 0.86186 0.97585 0.23784 0.0
C1551 C 0.80027 0.99497 0.23029 0.0
H1552 H 0.92168 0.96105 0.25888 0.0
C1553 C 0.75062 0.01435 0.23871 0.0
H1554 H 0.90111 0.96064 0.23173 0.0
C1555 C 0.76228 0.01459 0.2543 0.0
C1556 C 0.8239 -0.00453 0.26185 0.0
H1557 H 0.70247 0.0294 0.23327 0.0
H1558 H 0.72306 0.0298 0.26042 0.0
C1559 C 0.87353 0.9761 0.25344 0.0
C1560 C 0.51159 0.47455 0.50364 0.0
C1561 C 0.56546 0.49397 0.51167 0.0
H1562 H 0.45831 0.4602 0.48226 0.0
C1563 C 0.60751 0.51442 0.50372 0.0
H1564 H 0.47778 0.45853 0.50936 0.0
C1565 C 0.59593 0.51542 0.48813 0.0
C1566 C 0.54196 0.49601 0.48011 0.0
H1567 H 0.64919 0.52977 0.50951 0.0
H1568 H 0.62971 0.53144 0.48241 0.0
C1569 C 0.5 0.47555 0.48805 0.0
C1570 C 0.60736 0.72534 0.75448 0.0
C1571 C 0.55308 0.74494 0.76222 0.0
H1572 H 0.65273 0.70978 0.73325 0.0
C1573 C 0.50171 0.7644 0.75396 0.0
H1574 H 0.64752 0.71004 0.76047 0.0
C1575 C 0.50444 0.76425 0.73832 0.0
C1576 C 0.55852 0.74463 0.73058 0.0
H1577 H 0.45899 0.7798 0.75955 0.0
H1578 H 0.46424 0.77954 0.73232 0.0
C1579 C 0.60998 0.72518 0.73884 0.0
C1580 C 0.52003 0.26453 0.25341 0.0
C1581 C 0.5712 0.24505 0.26167 0.0
H1582 H 0.48267 0.27971 0.23178 0.0
C1583 C 0.62501 0.22541 0.25392 0.0
H1584 H 0.47748 0.27995 0.259 0.0
C1585 C 0.62773 0.22528 0.23827 0.0
C1586 C 0.57661 0.24478 0.23002 0.0
H1587 H 0.66497 0.2101 0.25991 0.0
H1588 H 0.67021 0.20986 0.23267 0.0
C1589 C 0.52263 0.26439 0.23777 0.0
C1590 C 0.65053 0.01267 0.00383 0.0
C1591 C 0.60566 0.99249 0.01186 0.0
H1592 H 0.67911 0.02894 0.98233 0.0
C1593 C 0.55802 0.97252 0.00384 0.0
H1594 H 0.6881 0.02838 0.00962 0.0
C1595 C 0.55285 0.97287 0.98823 0.0
C1596 C 0.59527 0.99319 0.9802 0.0
H1597 H 0.52292 0.95664 0.00961 0.0
H1598 H 0.51409 0.95721 0.98249 0.0
C1599 C 0.64549 0.01301 0.98817 0.0
loop_
_geom_bond_atom_site_label_1
_geom_bond_atom_site_label_2
_geom_bond_distance
_geom_bond_site_symmetry_2
_ccdc_geom_bond_type
Tb0 O3 2.453 . S
Tb0 O4 2.596 . S
Tb0 O5 2.374 . S
Tb0 O13 2.343 1_455 S
Tb0 O15 2.353 . S
Tb0 O17 2.427 1_455 S
Tb0 O18 2.513 1_455 S
C1 O5 1.251 . S
C1 O7 1.263 . S
Tb2 O4 2.343 1_655 S
Tb2 O7 2.353 1_655 S
Tb2 O10 2.427 1_655 S
Tb2 O11 2.513 1_655 S
Tb2 O12 2.453 . S
Tb2 O13 2.596 . S
Tb2 O14 2.374 . S
O3 Tb0 2.453 . S
O3 C19 1.245 . S
O4 Tb0 2.596 . S
O4 Tb2 2.343 1_455 S
O4 C19 1.259 . S
O5 Tb0 2.374 . S
O5 C1 1.251 . S
C6 O10 1.275 . S
C6 O11 1.246 . S
O7 C1 1.263 . S
O7 Tb2 2.353 1_455 S
C8 O12 1.245 . S
C8 O13 1.259 . S
C9 O14 1.250 . S
C9 O15 1.263 1_655 S
O10 Tb2 2.427 1_455 S
O10 C6 1.275 . S
O11 Tb2 2.513 1_455 S
O11 C6 1.246 . S
O12 Tb2 2.453 . S
O12 C8 1.245 . S
O13 Tb0 2.343 1_655 S
O13 Tb2 2.596 . S
O13 C8 1.259 . S
O14 Tb2 2.374 . S
O14 C9 1.250 . S
O15 Tb0 2.353 . S
O15 C9 1.263 1_455 S
C16 O17 1.275 . S
C16 O18 1.246 . S
O17 Tb0 2.427 1_655 S
O17 C16 1.275 . S
O18 Tb0 2.513 1_655 S
O18 C16 1.246 . S
C19 O3 1.245 . S
C19 O4 1.259 . S
Tb20 O23 2.453 1_455 S
Tb20 O24 2.596 . S
Tb20 O25 2.374 . S
Tb20 O33 2.343 . S
Tb20 O35 2.353 . S
Tb20 O37 2.427 . S
Tb20 O38 2.513 . S
C21 O25 1.251 . S
C21 O27 1.263 . S
Tb22 O24 2.343 . S
Tb22 O27 2.353 . S
Tb22 O30 2.427 . S
Tb22 O31 2.513 . S
Tb22 O32 2.453 . S
Tb22 O33 2.596 . S
Tb22 O34 2.374 . S
O23 Tb20 2.453 1_655 S
O23 C39 1.245 . S
O24 Tb20 2.596 . S
O24 Tb22 2.343 . S
O24 C39 1.259 1_455 S
O25 Tb20 2.374 . S
O25 C21 1.251 . S
C26 O30 1.275 . S
C26 O31 1.246 . S
O27 C21 1.263 . S
O27 Tb22 2.353 . S
C28 O32 1.245 . S
C28 O33 1.259 . S
C29 O34 1.250 . S
C29 O35 1.263 . S
O30 Tb22 2.427 . S
O30 C26 1.275 . S
O31 Tb22 2.513 . S
O31 C26 1.246 . S
O32 Tb22 2.453 . S
O32 C28 1.245 . S
O33 Tb20 2.343 . S
O33 Tb22 2.596 . S
O33 C28 1.259 . S
O34 Tb22 2.374 . S
O34 C29 1.250 . S
O35 Tb20 2.353 . S
O35 C29 1.263 . S
C36 O37 1.275 . S
C36 O38 1.246 . S
O37 Tb20 2.427 . S
O37 C36 1.275 . S
O38 Tb20 2.513 . S
O38 C36 1.246 . S
C39 O23 1.245 . S
C39 O24 1.259 1_655 S
Tb40 O43 2.453 . S
Tb40 O44 2.596 . S
Tb40 O45 2.374 . S
Tb40 O53 2.343 1_455 S
Tb40 O55 2.353 . S
Tb40 O57 2.427 1_455 S
Tb40 O58 2.513 1_455 S
C41 O45 1.251 . S
C41 O47 1.263 . S
Tb42 O44 2.343 1_655 S
Tb42 O47 2.353 1_655 S
Tb42 O50 2.427 1_655 S
Tb42 O51 2.513 1_655 S
Tb42 O52 2.453 . S
Tb42 O53 2.596 . S
Tb42 O54 2.374 . S
O43 Tb40 2.453 . S
O43 C59 1.245 . S
O44 Tb40 2.596 . S
O44 Tb42 2.343 1_455 S
O44 C59 1.259 . S
O45 Tb40 2.374 . S
O45 C41 1.251 . S
C46 O50 1.275 . S
C46 O51 1.246 . S
O47 C41 1.263 . S
O47 Tb42 2.353 1_455 S
C48 O52 1.245 . S
C48 O53 1.259 . S
C49 O54 1.250 . S
C49 O55 1.263 1_655 S
O50 Tb42 2.427 1_455 S
O50 C46 1.275 . S
O51 Tb42 2.513 1_455 S
O51 C46 1.246 . S
O52 Tb42 2.453 . S
O52 C48 1.245 . S
O53 Tb40 2.343 1_655 S
O53 Tb42 2.596 . S
O53 C48 1.259 . S
O54 Tb42 2.374 . S
O54 C49 1.250 . S
O55 Tb40 2.353 . S
O55 C49 1.263 1_455 S
C56 O57 1.275 . S
C56 O58 1.246 . S
O57 Tb40 2.427 1_655 S
O57 C56 1.275 . S
O58 Tb40 2.513 1_655 S
O58 C56 1.246 . S
C59 O43 1.245 . S
C59 O44 1.259 . S
Tb60 O63 2.453 1_455 S
Tb60 O64 2.596 . S
Tb60 O65 2.374 . S
Tb60 O73 2.343 . S
Tb60 O75 2.353 . S
Tb60 O77 2.427 . S
Tb60 O78 2.513 . S
C61 O65 1.251 . S
C61 O67 1.263 . S
Tb62 O64 2.343 . S
Tb62 O67 2.353 . S
Tb62 O70 2.427 . S
Tb62 O71 2.513 . S
Tb62 O72 2.453 . S
Tb62 O73 2.596 . S
Tb62 O74 2.374 . S
O63 Tb60 2.453 1_655 S
O63 C79 1.245 . S
O64 Tb60 2.596 . S
O64 Tb62 2.343 . S
O64 C79 1.259 1_455 S
O65 Tb60 2.374 . S
O65 C61 1.251 . S
C66 O70 1.275 . S
C66 O71 1.246 . S
O67 C61 1.263 . S
O67 Tb62 2.353 . S
C68 O72 1.245 . S
C68 O73 1.259 . S
C69 O74 1.250 . S
C69 O75 1.263 . S
O70 Tb62 2.427 . S
O70 C66 1.275 . S
O71 Tb62 2.513 . S
O71 C66 1.246 . S
O72 Tb62 2.453 . S
O72 C68 1.245 . S
O73 Tb60 2.343 . S
O73 Tb62 2.596 . S
O73 C68 1.259 . S
O74 Tb62 2.374 . S
O74 C69 1.250 . S
O75 Tb60 2.353 . S
O75 C69 1.263 . S
C76 O77 1.275 . S
C76 O78 1.246 . S
O77 Tb60 2.427 . S
O77 C76 1.275 . S
O78 Tb60 2.513 . S
O78 C76 1.246 . S
C79 O63 1.245 . S
C79 O64 1.259 1_655 S
Tb80 O83 2.453 . S
Tb80 O84 2.596 . S
Tb80 O85 2.374 . S
Tb80 O93 2.343 1_455 S
Tb80 O95 2.353 1_455 S
Tb80 O97 2.427 1_455 S
Tb80 O98 2.513 1_455 S
C81 O85 1.251 . S
C81 O87 1.263 1_455 S
Tb82 O84 2.343 1_655 S
Tb82 O87 2.353 . S
Tb82 O90 2.427 1_655 S
Tb82 O91 2.513 1_655 S
Tb82 O92 2.453 . S
Tb82 O93 2.596 . S
Tb82 O94 2.374 . S
O83 Tb80 2.453 . S
O83 C99 1.245 . S
O84 Tb80 2.596 . S
O84 Tb82 2.343 1_455 S
O84 C99 1.259 . S
O85 Tb80 2.374 . S
O85 C81 1.251 . S
C86 O90 1.275 . S
C86 O91 1.246 . S
O87 C81 1.263 1_655 S
O87 Tb82 2.353 . S
C88 O92 1.245 . S
C88 O93 1.259 . S
C89 O94 1.250 . S
C89 O95 1.263 . S
O90 Tb82 2.427 1_455 S
O90 C86 1.275 . S
O91 Tb82 2.513 1_455 S
O91 C86 1.246 . S
O92 Tb82 2.453 . S
O92 C88 1.245 . S
O93 Tb80 2.343 1_655 S
O93 Tb82 2.596 . S
O93 C88 1.259 . S
O94 Tb82 2.374 . S
O94 C89 1.250 . S
O95 Tb80 2.353 1_655 S
O95 C89 1.263 . S
C96 O97 1.275 . S
C96 O98 1.246 . S
O97 Tb80 2.427 1_655 S
O97 C96 1.275 . S
O98 Tb80 2.513 1_655 S
O98 C96 1.246 . S
C99 O83 1.245 . S
C99 O84 1.259 . S
Tb100 O103 2.453 . S
Tb100 O104 2.596 . S
Tb100 O105 2.374 . S
Tb100 O113 2.343 . S
Tb100 O115 2.353 . S
Tb100 O117 2.427 . S
Tb100 O118 2.513 . S
C101 O105 1.251 . S
C101 O107 1.263 . S
Tb102 O104 2.343 . S
Tb102 O107 2.353 . S
Tb102 O110 2.427 . S
Tb102 O111 2.513 . S
Tb102 O112 2.453 1_655 S
Tb102 O113 2.596 . S
Tb102 O114 2.374 . S
O103 Tb100 2.453 . S
O103 C119 1.245 . S
O104 Tb100 2.596 . S
O104 Tb102 2.343 . S
O104 C119 1.259 . S
O105 Tb100 2.374 . S
O105 C101 1.251 . S
C106 O110 1.275 . S
C106 O111 1.246 . S
O107 C101 1.263 . S
O107 Tb102 2.353 . S
C108 O112 1.245 . S
C108 O113 1.259 1_455 S
C109 O114 1.250 . S
C109 O115 1.263 . S
O110 Tb102 2.427 . S
O110 C106 1.275 . S
O111 Tb102 2.513 . S
O111 C106 1.246 . S
O112 Tb102 2.453 1_455 S
O112 C108 1.245 . S
O113 Tb100 2.343 . S
O113 Tb102 2.596 . S
O113 C108 1.259 1_655 S
O114 Tb102 2.374 . S
O114 C109 1.250 . S
O115 Tb100 2.353 . S
O115 C109 1.263 . S
C116 O117 1.275 . S
C116 O118 1.246 . S
O117 Tb100 2.427 . S
O117 C116 1.275 . S
O118 Tb100 2.513 . S
O118 C116 1.246 . S
C119 O103 1.245 . S
C119 O104 1.259 . S
Tb120 O123 2.453 . S
Tb120 O124 2.596 . S
Tb120 O125 2.374 . S
Tb120 O133 2.343 1_455 S
Tb120 O135 2.353 1_455 S
Tb120 O137 2.427 1_455 S
Tb120 O138 2.513 1_455 S
C121 O125 1.251 . S
C121 O127 1.263 1_455 S
Tb122 O124 2.343 1_655 S
Tb122 O127 2.353 . S
Tb122 O130 2.427 1_655 S
Tb122 O131 2.513 1_655 S
Tb122 O132 2.453 . S
Tb122 O133 2.596 . S
Tb122 O134 2.374 . S
O123 Tb120 2.453 . S
O123 C139 1.245 . S
O124 Tb120 2.596 . S
O124 Tb122 2.343 1_455 S
O124 C139 1.259 . S
O125 Tb120 2.374 . S
O125 C121 1.251 . S
C126 O130 1.275 . S
C126 O131 1.246 . S
O127 C121 1.263 1_655 S
O127 Tb122 2.353 . S
C128 O132 1.245 . S
C128 O133 1.259 . S
C129 O134 1.250 . S
C129 O135 1.263 . S
O130 Tb122 2.427 1_455 S
O130 C126 1.275 . S
O131 Tb122 2.513 1_455 S
O131 C126 1.246 . S
O132 Tb122 2.453 . S
O132 C128 1.245 . S
O133 Tb120 2.343 1_655 S
O133 Tb122 2.596 . S
O133 C128 1.259 . S
O134 Tb122 2.374 . S
O134 C129 1.250 . S
O135 Tb120 2.353 1_655 S
O135 C129 1.263 . S
C136 O137 1.275 . S
C136 O138 1.246 . S
O137 Tb120 2.427 1_655 S
O137 C136 1.275 . S
O138 Tb120 2.513 1_655 S
O138 C136 1.246 . S
C139 O123 1.245 . S
C139 O124 1.259 . S
Tb140 O143 2.453 . S
Tb140 O144 2.596 . S
Tb140 O145 2.374 . S
Tb140 O153 2.343 . S
Tb140 O155 2.353 . S
Tb140 O157 2.427 . S
Tb140 O158 2.513 . S
C141 O145 1.251 . S
C141 O147 1.263 . S
Tb142 O144 2.343 . S
Tb142 O147 2.353 . S
Tb142 O150 2.427 . S
Tb142 O151 2.513 . S
Tb142 O152 2.453 1_655 S
Tb142 O153 2.596 . S
Tb142 O154 2.374 . S
O143 Tb140 2.453 . S
O143 C159 1.245 . S
O144 Tb140 2.596 . S
O144 Tb142 2.343 . S
O144 C159 1.259 . S
O145 Tb140 2.374 . S
O145 C141 1.251 . S
C146 O150 1.275 . S
C146 O151 1.246 . S
O147 C141 1.263 . S
O147 Tb142 2.353 . S
C148 O152 1.245 . S
C148 O153 1.259 1_455 S
C149 O154 1.250 . S
C149 O155 1.263 . S
O150 Tb142 2.427 . S
O150 C146 1.275 . S
O151 Tb142 2.513 . S
O151 C146 1.246 . S
O152 Tb142 2.453 1_455 S
O152 C148 1.245 . S
O153 Tb140 2.343 . S
O153 Tb142 2.596 . S
O153 C148 1.259 1_655 S
O154 Tb142 2.374 . S
O154 C149 1.250 . S
O155 Tb140 2.353 . S
O155 C149 1.263 . S
C156 O157 1.275 . S
C156 O158 1.246 . S
O157 Tb140 2.427 . S
O157 C156 1.275 . S
O158 Tb140 2.513 . S
O158 C156 1.246 . S
C159 O143 1.245 . S
C159 O144 1.259 . S
Tb160 O163 2.453 . S
Tb160 O164 2.596 1_565 S
Tb160 O165 2.374 . S
Tb160 O173 2.343 1_455 S
Tb160 O175 2.353 . S
Tb160 O177 2.427 1_455 S
Tb160 O178 2.513 1_455 S
C161 O165 1.290 . S
C161 O167 1.227 1_565 S
Tb162 O164 2.343 1_655 S
Tb162 O167 2.353 1_655 S
Tb162 O170 2.427 1_655 S
Tb162 O171 2.513 1_655 S
Tb162 O172 2.453 . S
Tb162 O173 2.596 1_545 S
Tb162 O174 2.374 . S
O163 Tb160 2.453 . S
O163 C179 1.245 1_565 S
O164 Tb160 2.596 1_545 S
O164 Tb162 2.343 1_455 S
O164 C179 1.259 . S
O165 Tb160 2.374 . S
O165 C161 1.290 . S
C166 O170 1.275 . S
C166 O171 1.246 . S
O167 C161 1.227 1_545 S
O167 Tb162 2.353 1_455 S
C168 O172 1.245 1_565 S
C168 O173 1.259 . S
C169 O174 1.280 . S
C169 O175 1.235 1_645 S
O170 Tb162 2.427 1_455 S
O170 C166 1.275 . S
O171 Tb162 2.513 1_455 S
O171 C166 1.246 . S
O172 Tb162 2.453 . S
O172 C168 1.245 1_545 S
O173 Tb160 2.343 1_655 S
O173 Tb162 2.596 1_565 S
O173 C168 1.259 . S
O174 Tb162 2.374 . S
O174 C169 1.280 . S
O175 Tb160 2.353 . S
O175 C169 1.235 1_465 S
C176 O177 1.275 . S
C176 O178 1.246 . S
O177 Tb160 2.427 1_655 S
O177 C176 1.275 . S
O178 Tb160 2.513 1_655 S
O178 C176 1.246 . S
C179 O163 1.245 1_545 S
C179 O164 1.259 . S
Tb180 O183 2.453 1_455 S
Tb180 O184 2.596 . S
Tb180 O185 2.374 . S
Tb180 O193 2.343 . S
Tb180 O195 2.353 . S
Tb180 O197 2.427 . S
Tb180 O198 2.513 . S
C181 O185 1.251 . S
C181 O187 1.263 . S
Tb182 O184 2.343 . S
Tb182 O187 2.353 . S
Tb182 O190 2.427 . S
Tb182 O191 2.513 . S
Tb182 O192 2.453 . S
Tb182 O193 2.596 . S
Tb182 O194 2.374 . S
O183 Tb180 2.453 1_655 S
O183 C199 1.245 . S
O184 Tb180 2.596 . S
O184 Tb182 2.343 . S
O184 C199 1.259 1_455 S
O185 Tb180 2.374 . S
O185 C181 1.251 . S
C186 O190 1.275 . S
C186 O191 1.246 . S
O187 C181 1.263 . S
O187 Tb182 2.353 . S
C188 O192 1.245 . S
C188 O193 1.259 . S
C189 O194 1.250 . S
C189 O195 1.263 . S
O190 Tb182 2.427 . S
O190 C186 1.275 . S
O191 Tb182 2.513 . S
O191 C186 1.246 . S
O192 Tb182 2.453 . S
O192 C188 1.245 . S
O193 Tb180 2.343 . S
O193 Tb182 2.596 . S
O193 C188 1.259 . S
O194 Tb182 2.374 . S
O194 C189 1.250 . S
O195 Tb180 2.353 . S
O195 C189 1.263 . S
C196 O197 1.275 . S
C196 O198 1.246 . S
O197 Tb180 2.427 . S
O197 C196 1.275 . S
O198 Tb180 2.513 . S
O198 C196 1.246 . S
C199 O183 1.245 . S
C199 O184 1.259 1_655 S
Tb200 O203 2.453 . S
Tb200 O204 2.596 . S
Tb200 O205 2.374 . S
Tb200 O213 2.343 1_455 S
Tb200 O215 2.353 . S
Tb200 O217 2.427 1_455 S
Tb200 O218 2.513 1_455 S
C201 O205 1.251 . S
C201 O207 1.263 . S
Tb202 O204 2.343 1_655 S
Tb202 O207 2.353 1_655 S
Tb202 O210 2.427 1_655 S
Tb202 O211 2.513 1_655 S
Tb202 O212 2.453 . S
Tb202 O213 2.596 . S
Tb202 O214 2.374 . S
O203 Tb200 2.453 . S
O203 C219 1.245 . S
O204 Tb200 2.596 . S
O204 Tb202 2.343 1_455 S
O204 C219 1.259 . S
O205 Tb200 2.374 . S
O205 C201 1.251 . S
C206 O210 1.275 . S
C206 O211 1.246 . S
O207 C201 1.263 . S
O207 Tb202 2.353 1_455 S
C208 O212 1.245 . S
C208 O213 1.259 . S
C209 O214 1.250 . S
C209 O215 1.263 1_655 S
O210 Tb202 2.427 1_455 S
O210 C206 1.275 . S
O211 Tb202 2.513 1_455 S
O211 C206 1.246 . S
O212 Tb202 2.453 . S
O212 C208 1.245 . S
O213 Tb200 2.343 1_655 S
O213 Tb202 2.596 . S
O213 C208 1.259 . S
O214 Tb202 2.374 . S
O214 C209 1.250 . S
O215 Tb200 2.353 . S
O215 C209 1.263 1_455 S
C216 O217 1.275 . S
C216 O218 1.246 . S
O217 Tb200 2.427 1_655 S
O217 C216 1.275 . S
O218 Tb200 2.513 1_655 S
O218 C216 1.246 . S
C219 O203 1.245 . S
C219 O204 1.259 . S
Tb220 O223 2.453 1_455 S
Tb220 O224 2.596 1_565 S
Tb220 O225 2.374 . S
Tb220 O233 2.343 . S
Tb220 O235 2.353 . S
Tb220 O237 2.427 . S
Tb220 O238 2.513 . S
C221 O225 1.290 . S
C221 O227 1.227 1_565 S
Tb222 O224 2.343 . S
Tb222 O227 2.353 . S
Tb222 O230 2.427 . S
Tb222 O231 2.513 . S
Tb222 O232 2.453 . S
Tb222 O233 2.596 1_545 S
Tb222 O234 2.374 . S
O223 Tb220 2.453 1_655 S
O223 C239 1.245 1_565 S
O224 Tb220 2.596 1_545 S
O224 Tb222 2.343 . S
O224 C239 1.259 1_455 S
O225 Tb220 2.374 . S
O225 C221 1.290 . S
C226 O230 1.275 . S
C226 O231 1.246 . S
O227 C221 1.227 1_545 S
O227 Tb222 2.353 . S
C228 O232 1.245 1_565 S
C228 O233 1.259 . S
C229 O234 1.280 . S
C229 O235 1.235 1_545 S
O230 Tb222 2.427 . S
O230 C226 1.275 . S
O231 Tb222 2.513 . S
O231 C226 1.246 . S
O232 Tb222 2.453 . S
O232 C228 1.245 1_545 S
O233 Tb220 2.343 . S
O233 Tb222 2.596 1_565 S
O233 C228 1.259 . S
O234 Tb222 2.374 . S
O234 C229 1.280 . S
O235 Tb220 2.353 . S
O235 C229 1.235 1_565 S
C236 O237 1.275 . S
C236 O238 1.246 . S
O237 Tb220 2.427 . S
O237 C236 1.275 . S
O238 Tb220 2.513 . S
O238 C236 1.246 . S
C239 O223 1.245 1_545 S
C239 O224 1.259 1_655 S
Tb240 O243 2.453 . S
Tb240 O244 2.596 1_565 S
Tb240 O245 2.374 . S
Tb240 O253 2.343 1_455 S
Tb240 O255 2.353 1_455 S
Tb240 O257 2.427 1_455 S
Tb240 O258 2.513 1_455 S
C241 O245 1.280 . S
C241 O247 1.235 1_465 S
Tb242 O244 2.343 1_655 S
Tb242 O247 2.353 . S
Tb242 O250 2.427 1_655 S
Tb242 O251 2.513 1_655 S
Tb242 O252 2.453 . S
Tb242 O253 2.596 1_545 S
Tb242 O254 2.374 . S
O243 Tb240 2.453 . S
O243 C259 1.245 1_565 S
O244 Tb240 2.596 1_545 S
O244 Tb242 2.343 1_455 S
O244 C259 1.259 . S
O245 Tb240 2.374 . S
O245 C241 1.280 . S
C246 O250 1.275 . S
C246 O251 1.246 . S
O247 C241 1.235 1_645 S
O247 Tb242 2.353 . S
C248 O252 1.245 1_565 S
C248 O253 1.259 . S
C249 O254 1.290 . S
C249 O255 1.227 1_545 S
O250 Tb242 2.427 1_455 S
O250 C246 1.275 . S
O251 Tb242 2.513 1_455 S
O251 C246 1.246 . S
O252 Tb242 2.453 . S
O252 C248 1.245 1_545 S
O253 Tb240 2.343 1_655 S
O253 Tb242 2.596 1_565 S
O253 C248 1.259 . S
O254 Tb242 2.374 . S
O254 C249 1.290 . S
O255 Tb240 2.353 1_655 S
O255 C249 1.227 1_565 S
C256 O257 1.275 . S
C256 O258 1.246 . S
O257 Tb240 2.427 1_655 S
O257 C256 1.275 . S
O258 Tb240 2.513 1_655 S
O258 C256 1.246 . S
C259 O243 1.245 1_545 S
C259 O244 1.259 . S
Tb260 O263 2.453 . S
Tb260 O264 2.596 . S
Tb260 O265 2.374 . S
Tb260 O273 2.343 . S
Tb260 O275 2.353 . S
Tb260 O277 2.427 . S
Tb260 O278 2.513 . S
C261 O265 1.251 . S
C261 O267 1.263 . S
Tb262 O264 2.343 . S
Tb262 O267 2.353 . S
Tb262 O270 2.427 . S
Tb262 O271 2.513 . S
Tb262 O272 2.453 1_655 S
Tb262 O273 2.596 . S
Tb262 O274 2.374 . S
O263 Tb260 2.453 . S
O263 C279 1.245 . S
O264 Tb260 2.596 . S
O264 Tb262 2.343 . S
O264 C279 1.259 . S
O265 Tb260 2.374 . S
O265 C261 1.251 . S
C266 O270 1.275 . S
C266 O271 1.246 . S
O267 C261 1.263 . S
O267 Tb262 2.353 . S
C268 O272 1.245 . S
C268 O273 1.259 1_455 S
C269 O274 1.250 . S
C269 O275 1.263 . S
O270 Tb262 2.427 . S
O270 C266 1.275 . S
O271 Tb262 2.513 . S
O271 C266 1.246 . S
O272 Tb262 2.453 1_455 S
O272 C268 1.245 . S
O273 Tb260 2.343 . S
O273 Tb262 2.596 . S
O273 C268 1.259 1_655 S
O274 Tb262 2.374 . S
O274 C269 1.250 . S
O275 Tb260 2.353 . S
O275 C269 1.263 . S
C276 O277 1.275 . S
C276 O278 1.246 . S
O277 Tb260 2.427 . S
O277 C276 1.275 . S
O278 Tb260 2.513 . S
O278 C276 1.246 . S
C279 O263 1.245 . S
C279 O264 1.259 . S
Tb280 O283 2.453 . S
Tb280 O284 2.596 . S
Tb280 O285 2.374 . S
Tb280 O293 2.343 1_455 S
Tb280 O295 2.353 1_455 S
Tb280 O297 2.427 1_455 S
Tb280 O298 2.513 1_455 S
C281 O285 1.251 . S
C281 O287 1.263 1_455 S
Tb282 O284 2.343 1_655 S
Tb282 O287 2.353 . S
Tb282 O290 2.427 1_655 S
Tb282 O291 2.513 1_655 S
Tb282 O292 2.453 . S
Tb282 O293 2.596 . S
Tb282 O294 2.374 . S
O283 Tb280 2.453 . S
O283 C299 1.245 . S
O284 Tb280 2.596 . S
O284 Tb282 2.343 1_455 S
O284 C299 1.259 . S
O285 Tb280 2.374 . S
O285 C281 1.251 . S
C286 O290 1.275 . S
C286 O291 1.246 . S
O287 C281 1.263 1_655 S
O287 Tb282 2.353 . S
C288 O292 1.245 . S
C288 O293 1.259 . S
C289 O294 1.250 . S
C289 O295 1.263 . S
O290 Tb282 2.427 1_455 S
O290 C286 1.275 . S
O291 Tb282 2.513 1_455 S
O291 C286 1.246 . S
O292 Tb282 2.453 . S
O292 C288 1.245 . S
O293 Tb280 2.343 1_655 S
O293 Tb282 2.596 . S
O293 C288 1.259 . S
O294 Tb282 2.374 . S
O294 C289 1.250 . S
O295 Tb280 2.353 1_655 S
O295 C289 1.263 . S
C296 O297 1.275 . S
C296 O298 1.246 . S
O297 Tb280 2.427 1_655 S
O297 C296 1.275 . S
O298 Tb280 2.513 1_655 S
O298 C296 1.246 . S
C299 O283 1.245 . S
C299 O284 1.259 . S
Tb300 O303 2.453 . S
Tb300 O304 2.596 1_565 S
Tb300 O305 2.374 . S
Tb300 O313 2.343 . S
Tb300 O315 2.353 . S
Tb300 O317 2.427 . S
Tb300 O318 2.513 . S
C301 O305 1.280 . S
C301 O307 1.235 1_565 S
Tb302 O304 2.343 . S
Tb302 O307 2.353 . S
Tb302 O310 2.427 . S
Tb302 O311 2.513 . S
Tb302 O312 2.453 1_655 S
Tb302 O313 2.596 1_545 S
Tb302 O314 2.374 . S
O303 Tb300 2.453 . S
O303 C319 1.245 1_565 S
O304 Tb300 2.596 1_545 S
O304 Tb302 2.343 . S
O304 C319 1.259 . S
O305 Tb300 2.374 . S
O305 C301 1.280 . S
C306 O310 1.275 . S
C306 O311 1.246 . S
O307 C301 1.235 1_545 S
O307 Tb302 2.353 . S
C308 O312 1.245 1_565 S
C308 O313 1.259 1_455 S
C309 O314 1.290 . S
C309 O315 1.227 1_545 S
O310 Tb302 2.427 . S
O310 C306 1.275 . S
O311 Tb302 2.513 . S
O311 C306 1.246 . S
O312 Tb302 2.453 1_455 S
O312 C308 1.245 1_545 S
O313 Tb300 2.343 . S
O313 Tb302 2.596 1_565 S
O313 C308 1.259 1_655 S
O314 Tb302 2.374 . S
O314 C309 1.290 . S
O315 Tb300 2.353 . S
O315 C309 1.227 1_565 S
C316 O317 1.275 . S
C316 O318 1.246 . S
O317 Tb300 2.427 . S
O317 C316 1.275 . S
O318 Tb300 2.513 . S
O318 C316 1.246 . S
C319 O303 1.245 1_545 S
C319 O304 1.259 . S
Tb320 O323 2.453 . S
Tb320 O324 2.596 . S
Tb320 O325 2.374 . S
Tb320 O333 2.343 . S
Tb320 O335 2.353 . S
Tb320 O337 2.427 . S
Tb320 O338 2.513 . S
C321 O325 1.251 . S
C321 O327 1.263 . S
Tb322 O324 2.343 . S
Tb322 O327 2.353 . S
Tb322 O330 2.427 . S
Tb322 O331 2.513 . S
Tb322 O332 2.453 . S
Tb322 O333 2.596 . S
Tb322 O334 2.374 . S
O323 Tb320 2.453 . S
O323 C339 1.245 . S
O324 Tb320 2.596 . S
O324 Tb322 2.343 . S
O324 C339 1.259 . S
O325 Tb320 2.374 . S
O325 C321 1.251 . S
C326 O330 1.275 . S
C326 O331 1.246 . S
O327 C321 1.263 . S
O327 Tb322 2.353 . S
C328 O332 1.245 . S
C328 O333 1.259 . S
C329 O334 1.250 . S
C329 O335 1.263 . S
O330 Tb322 2.427 . S
O330 C326 1.275 . S
O331 Tb322 2.513 . S
O331 C326 1.246 . S
O332 Tb322 2.453 . S
O332 C328 1.245 . S
O333 Tb320 2.343 . S
O333 Tb322 2.596 . S
O333 C328 1.259 . S
O334 Tb322 2.374 . S
O334 C329 1.250 . S
O335 Tb320 2.353 . S
O335 C329 1.263 . S
C336 O337 1.275 . S
C336 O338 1.246 . S
O337 Tb320 2.427 . S
O337 C336 1.275 . S
O338 Tb320 2.513 . S
O338 C336 1.246 . S
C339 O323 1.245 . S
C339 O324 1.259 . S
Tb340 O343 2.453 . S
Tb340 O344 2.596 . S
Tb340 O345 2.374 . S
Tb340 O353 2.343 . S
Tb340 O355 2.353 . S
Tb340 O357 2.427 . S
Tb340 O358 2.513 . S
C341 O345 1.251 . S
C341 O347 1.263 . S
Tb342 O344 2.343 . S
Tb342 O347 2.353 . S
Tb342 O350 2.427 . S
Tb342 O351 2.513 . S
Tb342 O352 2.453 . S
Tb342 O353 2.596 . S
Tb342 O354 2.374 . S
O343 Tb340 2.453 . S
O343 C359 1.245 . S
O344 Tb340 2.596 . S
O344 Tb342 2.343 . S
O344 C359 1.259 . S
O345 Tb340 2.374 . S
O345 C341 1.251 . S
C346 O350 1.275 . S
C346 O351 1.246 . S
O347 C341 1.263 . S
O347 Tb342 2.353 . S
C348 O352 1.245 . S
C348 O353 1.259 . S
C349 O354 1.250 . S
C349 O355 1.263 . S
O350 Tb342 2.427 . S
O350 C346 1.275 . S
O351 Tb342 2.513 . S
O351 C346 1.246 . S
O352 Tb342 2.453 . S
O352 C348 1.245 . S
O353 Tb340 2.343 . S
O353 Tb342 2.596 . S
O353 C348 1.259 . S
O354 Tb342 2.374 . S
O354 C349 1.250 . S
O355 Tb340 2.353 . S
O355 C349 1.263 . S
C356 O357 1.275 . S
C356 O358 1.246 . S
O357 Tb340 2.427 . S
O357 C356 1.275 . S
O358 Tb340 2.513 . S
O358 C356 1.246 . S
C359 O343 1.245 . S
C359 O344 1.259 . S
Tb360 O363 2.453 . S
Tb360 O364 2.596 . S
Tb360 O365 2.374 . S
Tb360 O373 2.343 . S
Tb360 O375 2.353 . S
Tb360 O377 2.427 . S
Tb360 O378 2.513 . S
C361 O365 1.251 . S
C361 O367 1.263 . S
Tb362 O364 2.343 . S
Tb362 O367 2.353 . S
Tb362 O370 2.427 . S
Tb362 O371 2.513 . S
Tb362 O372 2.453 . S
Tb362 O373 2.596 . S
Tb362 O374 2.374 . S
O363 Tb360 2.453 . S
O363 C379 1.245 . S
O364 Tb360 2.596 . S
O364 Tb362 2.343 . S
O364 C379 1.259 . S
O365 Tb360 2.374 . S
O365 C361 1.251 . S
C366 O370 1.275 . S
C366 O371 1.246 . S
O367 C361 1.263 . S
O367 Tb362 2.353 . S
C368 O372 1.245 . S
C368 O373 1.259 . S
C369 O374 1.250 . S
C369 O375 1.263 . S
O370 Tb362 2.427 . S
O370 C366 1.275 . S
O371 Tb362 2.513 . S
O371 C366 1.246 . S
O372 Tb362 2.453 . S
O372 C368 1.245 . S
O373 Tb360 2.343 . S
O373 Tb362 2.596 . S
O373 C368 1.259 . S
O374 Tb362 2.374 . S
O374 C369 1.250 . S
O375 Tb360 2.353 . S
O375 C369 1.263 . S
C376 O377 1.275 . S
C376 O378 1.246 . S
O377 Tb360 2.427 . S
O377 C376 1.275 . S
O378 Tb360 2.513 . S
O378 C376 1.246 . S
C379 O363 1.245 . S
C379 O364 1.259 . S
Tb380 O383 2.453 . S
Tb380 O384 2.596 . S
Tb380 O385 2.374 . S
Tb380 O393 2.343 . S
Tb380 O395 2.353 . S
Tb380 O397 2.427 . S
Tb380 O398 2.513 . S
C381 O385 1.251 . S
C381 O387 1.263 . S
Tb382 O384 2.343 . S
Tb382 O387 2.353 . S
Tb382 O390 2.427 . S
Tb382 O391 2.513 . S
Tb382 O392 2.453 . S
Tb382 O393 2.596 . S
Tb382 O394 2.374 . S
O383 Tb380 2.453 . S
O383 C399 1.245 . S
O384 Tb380 2.596 . S
O384 Tb382 2.343 . S
O384 C399 1.259 . S
O385 Tb380 2.374 . S
O385 C381 1.251 . S
C386 O390 1.275 . S
C386 O391 1.246 . S
O387 C381 1.263 . S
O387 Tb382 2.353 . S
C388 O392 1.245 . S
C388 O393 1.259 . S
C389 O394 1.250 . S
C389 O395 1.263 . S
O390 Tb382 2.427 . S
O390 C386 1.275 . S
O391 Tb382 2.513 . S
O391 C386 1.246 . S
O392 Tb382 2.453 . S
O392 C388 1.245 . S
O393 Tb380 2.343 . S
O393 Tb382 2.596 . S
O393 C388 1.259 . S
O394 Tb382 2.374 . S
O394 C389 1.250 . S
O395 Tb380 2.353 . S
O395 C389 1.263 . S
C396 O397 1.275 . S
C396 O398 1.246 . S
O397 Tb380 2.427 . S
O397 C396 1.275 . S
O398 Tb380 2.513 . S
O398 C396 1.246 . S
C399 O383 1.245 . S
C399 O384 1.259 . S
Tb400 O403 2.453 . S
Tb400 O404 2.596 . S
Tb400 O405 2.374 . S
Tb400 O413 2.343 . S
Tb400 O415 2.353 . S
Tb400 O417 2.427 . S
Tb400 O418 2.513 . S
C401 O405 1.251 . S
C401 O407 1.263 . S
Tb402 O404 2.343 . S
Tb402 O407 2.353 . S
Tb402 O410 2.427 . S
Tb402 O411 2.513 . S
Tb402 O412 2.453 . S
Tb402 O413 2.596 . S
Tb402 O414 2.374 . S
O403 Tb400 2.453 . S
O403 C419 1.245 . S
O404 Tb400 2.596 . S
O404 Tb402 2.343 . S
O404 C419 1.259 . S
O405 Tb400 2.374 . S
O405 C401 1.251 . S
C406 O410 1.275 . S
C406 O411 1.246 . S
O407 C401 1.263 . S
O407 Tb402 2.353 . S
C408 O412 1.245 . S
C408 O413 1.259 . S
C409 O414 1.250 . S
C409 O415 1.263 . S
O410 Tb402 2.427 . S
O410 C406 1.275 . S
O411 Tb402 2.513 . S
O411 C406 1.246 . S
O412 Tb402 2.453 . S
O412 C408 1.245 . S
O413 Tb400 2.343 . S
O413 Tb402 2.596 . S
O413 C408 1.259 . S
O414 Tb402 2.374 . S
O414 C409 1.250 . S
O415 Tb400 2.353 . S
O415 C409 1.263 . S
C416 O417 1.275 . S
C416 O418 1.246 . S
O417 Tb400 2.427 . S
O417 C416 1.275 . S
O418 Tb400 2.513 . S
O418 C416 1.246 . S
C419 O403 1.245 . S
C419 O404 1.259 . S
Tb420 O423 2.453 . S
Tb420 O424 2.596 . S
Tb420 O425 2.374 . S
Tb420 O433 2.343 . S
Tb420 O435 2.353 . S
Tb420 O437 2.427 . S
Tb420 O438 2.513 . S
C421 O425 1.251 . S
C421 O427 1.263 . S
Tb422 O424 2.343 . S
Tb422 O427 2.353 . S
Tb422 O430 2.427 . S
Tb422 O431 2.513 . S
Tb422 O432 2.453 . S
Tb422 O433 2.596 . S
Tb422 O434 2.374 . S
O423 Tb420 2.453 . S
O423 C439 1.245 . S
O424 Tb420 2.596 . S
O424 Tb422 2.343 . S
O424 C439 1.259 . S
O425 Tb420 2.374 . S
O425 C421 1.251 . S
C426 O430 1.275 . S
C426 O431 1.246 . S
O427 C421 1.263 . S
O427 Tb422 2.353 . S
C428 O432 1.245 . S
C428 O433 1.259 . S
C429 O434 1.250 . S
C429 O435 1.263 . S
O430 Tb422 2.427 . S
O430 C426 1.275 . S
O431 Tb422 2.513 . S
O431 C426 1.246 . S
O432 Tb422 2.453 . S
O432 C428 1.245 . S
O433 Tb420 2.343 . S
O433 Tb422 2.596 . S
O433 C428 1.259 . S
O434 Tb422 2.374 . S
O434 C429 1.250 . S
O435 Tb420 2.353 . S
O435 C429 1.263 . S
C436 O437 1.275 . S
C436 O438 1.246 . S
O437 Tb420 2.427 . S
O437 C436 1.275 . S
O438 Tb420 2.513 . S
O438 C436 1.246 . S
C439 O423 1.245 . S
C439 O424 1.259 . S
Tb440 O443 2.453 . S
Tb440 O444 2.596 . S
Tb440 O445 2.374 . S
Tb440 O453 2.343 . S
Tb440 O455 2.353 . S
Tb440 O457 2.427 . S
Tb440 O458 2.513 . S
C441 O445 1.251 . S
C441 O447 1.263 . S
Tb442 O444 2.343 . S
Tb442 O447 2.353 . S
Tb442 O450 2.427 . S
Tb442 O451 2.513 . S
Tb442 O452 2.453 . S
Tb442 O453 2.596 . S
Tb442 O454 2.374 . S
O443 Tb440 2.453 . S
O443 C459 1.245 . S
O444 Tb440 2.596 . S
O444 Tb442 2.343 . S
O444 C459 1.259 . S
O445 Tb440 2.374 . S
O445 C441 1.251 . S
C446 O450 1.275 . S
C446 O451 1.246 . S
O447 C441 1.263 . S
O447 Tb442 2.353 . S
C448 O452 1.245 . S
C448 O453 1.259 . S
C449 O454 1.250 . S
C449 O455 1.263 . S
O450 Tb442 2.427 . S
O450 C446 1.275 . S
O451 Tb442 2.513 . S
O451 C446 1.246 . S
O452 Tb442 2.453 . S
O452 C448 1.245 . S
O453 Tb440 2.343 . S
O453 Tb442 2.596 . S
O453 C448 1.259 . S
O454 Tb442 2.374 . S
O454 C449 1.250 . S
O455 Tb440 2.353 . S
O455 C449 1.263 . S
C456 O457 1.275 . S
C456 O458 1.246 . S
O457 Tb440 2.427 . S
O457 C456 1.275 . S
O458 Tb440 2.513 . S
O458 C456 1.246 . S
C459 O443 1.245 . S
C459 O444 1.259 . S
Tb460 O463 2.453 . S
Tb460 O464 2.596 . S
Tb460 O465 2.374 . S
Tb460 O473 2.343 . S
Tb460 O475 2.353 . S
Tb460 O477 2.427 . S
Tb460 O478 2.513 . S
C461 O465 1.251 . S
C461 O467 1.263 . S
Tb462 O464 2.343 . S
Tb462 O467 2.353 . S
Tb462 O470 2.427 . S
Tb462 O471 2.513 . S
Tb462 O472 2.453 . S
Tb462 O473 2.596 . S
Tb462 O474 2.374 . S
O463 Tb460 2.453 . S
O463 C479 1.245 . S
O464 Tb460 2.596 . S
O464 Tb462 2.343 . S
O464 C479 1.259 . S
O465 Tb460 2.374 . S
O465 C461 1.251 . S
C466 O470 1.275 . S
C466 O471 1.246 . S
O467 C461 1.263 . S
O467 Tb462 2.353 . S
C468 O472 1.245 . S
C468 O473 1.259 . S
C469 O474 1.250 . S
C469 O475 1.263 . S
O470 Tb462 2.427 . S
O470 C466 1.275 . S
O471 Tb462 2.513 . S
O471 C466 1.246 . S
O472 Tb462 2.453 . S
O472 C468 1.245 . S
O473 Tb460 2.343 . S
O473 Tb462 2.596 . S
O473 C468 1.259 . S
O474 Tb462 2.374 . S
O474 C469 1.250 . S
O475 Tb460 2.353 . S
O475 C469 1.263 . S
C476 O477 1.275 . S
C476 O478 1.246 . S
O477 Tb460 2.427 . S
O477 C476 1.275 . S
O478 Tb460 2.513 . S
O478 C476 1.246 . S
C479 O463 1.245 . S
C479 O464 1.259 . S
Tb480 O483 2.453 . S
Tb480 O484 2.596 1_565 S
Tb480 O485 2.374 . S
Tb480 O493 2.343 . S
Tb480 O495 2.353 . S
Tb480 O497 2.427 . S
Tb480 O498 2.513 . S
C481 O485 1.290 . S
C481 O487 1.227 1_565 S
Tb482 O484 2.343 . S
Tb482 O487 2.353 . S
Tb482 O490 2.427 . S
Tb482 O491 2.513 . S
Tb482 O492 2.453 . S
Tb482 O493 2.596 1_545 S
Tb482 O494 2.374 . S
O483 Tb480 2.453 . S
O483 C499 1.245 1_565 S
O484 Tb480 2.596 1_545 S
O484 Tb482 2.343 . S
O484 C499 1.259 . S
O485 Tb480 2.374 . S
O485 C481 1.290 . S
C486 O490 1.275 . S
C486 O491 1.246 . S
O487 C481 1.227 1_545 S
O487 Tb482 2.353 . S
C488 O492 1.245 1_565 S
C488 O493 1.259 . S
C489 O494 1.280 . S
C489 O495 1.235 1_545 S
O490 Tb482 2.427 . S
O490 C486 1.275 . S
O491 Tb482 2.513 . S
O491 C486 1.246 . S
O492 Tb482 2.453 . S
O492 C488 1.245 1_545 S
O493 Tb480 2.343 . S
O493 Tb482 2.596 1_565 S
O493 C488 1.259 . S
O494 Tb482 2.374 . S
O494 C489 1.280 . S
O495 Tb480 2.353 . S
O495 C489 1.235 1_565 S
C496 O497 1.275 . S
C496 O498 1.246 . S
O497 Tb480 2.427 . S
O497 C496 1.275 . S
O498 Tb480 2.513 . S
O498 C496 1.246 . S
C499 O483 1.245 1_545 S
C499 O484 1.259 . S
Tb500 O503 2.453 . S
Tb500 O504 2.596 . S
Tb500 O505 2.374 . S
Tb500 O513 2.343 . S
Tb500 O515 2.353 . S
Tb500 O517 2.427 . S
Tb500 O518 2.513 . S
C501 O505 1.251 . S
C501 O507 1.263 . S
Tb502 O504 2.343 . S
Tb502 O507 2.353 . S
Tb502 O510 2.427 . S
Tb502 O511 2.513 . S
Tb502 O512 2.453 . S
Tb502 O513 2.596 . S
Tb502 O514 2.374 . S
O503 Tb500 2.453 . S
O503 C519 1.245 . S
O504 Tb500 2.596 . S
O504 Tb502 2.343 . S
O504 C519 1.259 . S
O505 Tb500 2.374 . S
O505 C501 1.251 . S
C506 O510 1.275 . S
C506 O511 1.246 . S
O507 C501 1.263 . S
O507 Tb502 2.353 . S
C508 O512 1.245 . S
C508 O513 1.259 . S
C509 O514 1.250 . S
C509 O515 1.263 . S
O510 Tb502 2.427 . S
O510 C506 1.275 . S
O511 Tb502 2.513 . S
O511 C506 1.246 . S
O512 Tb502 2.453 . S
O512 C508 1.245 . S
O513 Tb500 2.343 . S
O513 Tb502 2.596 . S
O513 C508 1.259 . S
O514 Tb502 2.374 . S
O514 C509 1.250 . S
O515 Tb500 2.353 . S
O515 C509 1.263 . S
C516 O517 1.275 . S
C516 O518 1.246 . S
O517 Tb500 2.427 . S
O517 C516 1.275 . S
O518 Tb500 2.513 . S
O518 C516 1.246 . S
C519 O503 1.245 . S
C519 O504 1.259 . S
Tb520 O523 2.453 . S
Tb520 O524 2.596 . S
Tb520 O525 2.374 . S
Tb520 O533 2.343 . S
Tb520 O535 2.353 . S
Tb520 O537 2.427 . S
Tb520 O538 2.513 . S
C521 O525 1.251 . S
C521 O527 1.263 . S
Tb522 O524 2.343 . S
Tb522 O527 2.353 . S
Tb522 O530 2.427 . S
Tb522 O531 2.513 . S
Tb522 O532 2.453 . S
Tb522 O533 2.596 . S
Tb522 O534 2.374 . S
O523 Tb520 2.453 . S
O523 C539 1.245 . S
O524 Tb520 2.596 . S
O524 Tb522 2.343 . S
O524 C539 1.259 . S
O525 Tb520 2.374 . S
O525 C521 1.251 . S
C526 O530 1.275 . S
C526 O531 1.246 . S
O527 C521 1.263 . S
O527 Tb522 2.353 . S
C528 O532 1.245 . S
C528 O533 1.259 . S
C529 O534 1.250 . S
C529 O535 1.263 . S
O530 Tb522 2.427 . S
O530 C526 1.275 . S
O531 Tb522 2.513 . S
O531 C526 1.246 . S
O532 Tb522 2.453 . S
O532 C528 1.245 . S
O533 Tb520 2.343 . S
O533 Tb522 2.596 . S
O533 C528 1.259 . S
O534 Tb522 2.374 . S
O534 C529 1.250 . S
O535 Tb520 2.353 . S
O535 C529 1.263 . S
C536 O537 1.275 . S
C536 O538 1.246 . S
O537 Tb520 2.427 . S
O537 C536 1.275 . S
O538 Tb520 2.513 . S
O538 C536 1.246 . S
C539 O523 1.245 . S
C539 O524 1.259 . S
Tb540 O543 2.453 . S
Tb540 O544 2.596 1_565 S
Tb540 O545 2.374 . S
Tb540 O553 2.343 . S
Tb540 O555 2.353 . S
Tb540 O557 2.427 . S
Tb540 O558 2.513 . S
C541 O545 1.290 . S
C541 O547 1.227 1_565 S
Tb542 O544 2.343 . S
Tb542 O547 2.353 . S
Tb542 O550 2.427 . S
Tb542 O551 2.513 . S
Tb542 O552 2.453 . S
Tb542 O553 2.596 1_545 S
Tb542 O554 2.374 . S
O543 Tb540 2.453 . S
O543 C559 1.245 1_565 S
O544 Tb540 2.596 1_545 S
O544 Tb542 2.343 . S
O544 C559 1.259 . S
O545 Tb540 2.374 . S
O545 C541 1.290 . S
C546 O550 1.275 . S
C546 O551 1.246 . S
O547 C541 1.227 1_545 S
O547 Tb542 2.353 . S
C548 O552 1.245 1_565 S
C548 O553 1.259 . S
C549 O554 1.280 . S
C549 O555 1.235 1_545 S
O550 Tb542 2.427 . S
O550 C546 1.275 . S
O551 Tb542 2.513 . S
O551 C546 1.246 . S
O552 Tb542 2.453 . S
O552 C548 1.245 1_545 S
O553 Tb540 2.343 . S
O553 Tb542 2.596 1_565 S
O553 C548 1.259 . S
O554 Tb542 2.374 . S
O554 C549 1.280 . S
O555 Tb540 2.353 . S
O555 C549 1.235 1_565 S
C556 O557 1.275 . S
C556 O558 1.246 . S
O557 Tb540 2.427 . S
O557 C556 1.275 . S
O558 Tb540 2.513 . S
O558 C556 1.246 . S
C559 O543 1.245 1_545 S
C559 O544 1.259 . S
Tb560 O563 2.453 . S
Tb560 O564 2.596 1_565 S
Tb560 O565 2.374 . S
Tb560 O573 2.343 . S
Tb560 O575 2.353 . S
Tb560 O577 2.427 . S
Tb560 O578 2.513 . S
C561 O565 1.280 . S
C561 O567 1.235 1_565 S
Tb562 O564 2.343 . S
Tb562 O567 2.353 . S
Tb562 O570 2.427 . S
Tb562 O571 2.513 . S
Tb562 O572 2.453 . S
Tb562 O573 2.596 1_545 S
Tb562 O574 2.374 . S
O563 Tb560 2.453 . S
O563 C579 1.245 1_565 S
O564 Tb560 2.596 1_545 S
O564 Tb562 2.343 . S
O564 C579 1.259 . S
O565 Tb560 2.374 . S
O565 C561 1.280 . S
C566 O570 1.275 . S
C566 O571 1.246 . S
O567 C561 1.235 1_545 S
O567 Tb562 2.353 . S
C568 O572 1.245 1_565 S
C568 O573 1.259 . S
C569 O574 1.290 . S
C569 O575 1.227 1_545 S
O570 Tb562 2.427 . S
O570 C566 1.275 . S
O571 Tb562 2.513 . S
O571 C566 1.246 . S
O572 Tb562 2.453 . S
O572 C568 1.245 1_545 S
O573 Tb560 2.343 . S
O573 Tb562 2.596 1_565 S
O573 C568 1.259 . S
O574 Tb562 2.374 . S
O574 C569 1.290 . S
O575 Tb560 2.353 . S
O575 C569 1.227 1_565 S
C576 O577 1.275 . S
C576 O578 1.246 . S
O577 Tb560 2.427 . S
O577 C576 1.275 . S
O578 Tb560 2.513 . S
O578 C576 1.246 . S
C579 O563 1.245 1_545 S
C579 O564 1.259 . S
Tb580 O583 2.453 . S
Tb580 O584 2.596 . S
Tb580 O585 2.374 . S
Tb580 O593 2.343 . S
Tb580 O595 2.353 . S
Tb580 O597 2.427 . S
Tb580 O598 2.513 . S
C581 O585 1.251 . S
C581 O587 1.263 . S
Tb582 O584 2.343 . S
Tb582 O587 2.353 . S
Tb582 O590 2.427 . S
Tb582 O591 2.513 . S
Tb582 O592 2.453 . S
Tb582 O593 2.596 . S
Tb582 O594 2.374 . S
O583 Tb580 2.453 . S
O583 C599 1.245 . S
O584 Tb580 2.596 . S
O584 Tb582 2.343 . S
O584 C599 1.259 . S
O585 Tb580 2.374 . S
O585 C581 1.251 . S
C586 O590 1.275 . S
C586 O591 1.246 . S
O587 C581 1.263 . S
O587 Tb582 2.353 . S
C588 O592 1.245 . S
C588 O593 1.259 . S
C589 O594 1.250 . S
C589 O595 1.263 . S
O590 Tb582 2.427 . S
O590 C586 1.275 . S
O591 Tb582 2.513 . S
O591 C586 1.246 . S
O592 Tb582 2.453 . S
O592 C588 1.245 . S
O593 Tb580 2.343 . S
O593 Tb582 2.596 . S
O593 C588 1.259 . S
O594 Tb582 2.374 . S
O594 C589 1.250 . S
O595 Tb580 2.353 . S
O595 C589 1.263 . S
C596 O597 1.275 . S
C596 O598 1.246 . S
O597 Tb580 2.427 . S
O597 C596 1.275 . S
O598 Tb580 2.513 . S
O598 C596 1.246 . S
C599 O583 1.245 . S
C599 O584 1.259 . S
Tb600 O603 2.453 . S
Tb600 O604 2.596 . S
Tb600 O605 2.374 . S
Tb600 O613 2.343 . S
Tb600 O615 2.353 . S
Tb600 O617 2.427 . S
Tb600 O618 2.513 . S
C601 O605 1.251 . S
C601 O607 1.263 . S
Tb602 O604 2.343 . S
Tb602 O607 2.353 . S
Tb602 O610 2.427 . S
Tb602 O611 2.513 . S
Tb602 O612 2.453 . S
Tb602 O613 2.596 . S
Tb602 O614 2.374 . S
O603 Tb600 2.453 . S
O603 C619 1.245 . S
O604 Tb600 2.596 . S
O604 Tb602 2.343 . S
O604 C619 1.259 . S
O605 Tb600 2.374 . S
O605 C601 1.251 . S
C606 O610 1.275 . S
C606 O611 1.246 . S
O607 C601 1.263 . S
O607 Tb602 2.353 . S
C608 O612 1.245 . S
C608 O613 1.259 . S
C609 O614 1.250 . S
C609 O615 1.263 . S
O610 Tb602 2.427 . S
O610 C606 1.275 . S
O611 Tb602 2.513 . S
O611 C606 1.246 . S
O612 Tb602 2.453 . S
O612 C608 1.245 . S
O613 Tb600 2.343 . S
O613 Tb602 2.596 . S
O613 C608 1.259 . S
O614 Tb602 2.374 . S
O614 C609 1.250 . S
O615 Tb600 2.353 . S
O615 C609 1.263 . S
C616 O617 1.275 . S
C616 O618 1.246 . S
O617 Tb600 2.427 . S
O617 C616 1.275 . S
O618 Tb600 2.513 . S
O618 C616 1.246 . S
C619 O603 1.245 . S
C619 O604 1.259 . S
Tb620 O623 2.453 . S
Tb620 O624 2.596 1_565 S
Tb620 O625 2.374 . S
Tb620 O633 2.343 . S
Tb620 O635 2.353 . S
Tb620 O637 2.427 . S
Tb620 O638 2.513 . S
C621 O625 1.280 . S
C621 O627 1.235 1_565 S
Tb622 O624 2.343 . S
Tb622 O627 2.353 . S
Tb622 O630 2.427 . S
Tb622 O631 2.513 . S
Tb622 O632 2.453 . S
Tb622 O633 2.596 1_545 S
Tb622 O634 2.374 . S
O623 Tb620 2.453 . S
O623 C639 1.245 1_565 S
O624 Tb620 2.596 1_545 S
O624 Tb622 2.343 . S
O624 C639 1.259 . S
O625 Tb620 2.374 . S
O625 C621 1.280 . S
C626 O630 1.275 . S
C626 O631 1.246 . S
O627 C621 1.235 1_545 S
O627 Tb622 2.353 . S
C628 O632 1.245 1_565 S
C628 O633 1.259 . S
C629 O634 1.290 . S
C629 O635 1.227 1_545 S
O630 Tb622 2.427 . S
O630 C626 1.275 . S
O631 Tb622 2.513 . S
O631 C626 1.246 . S
O632 Tb622 2.453 . S
O632 C628 1.245 1_545 S
O633 Tb620 2.343 . S
O633 Tb622 2.596 1_565 S
O633 C628 1.259 . S
O634 Tb622 2.374 . S
O634 C629 1.290 . S
O635 Tb620 2.353 . S
O635 C629 1.227 1_565 S
C636 O637 1.275 . S
C636 O638 1.246 . S
O637 Tb620 2.427 . S
O637 C636 1.275 . S
O638 Tb620 2.513 . S
O638 C636 1.246 . S
C639 O623 1.245 1_545 S
C639 O624 1.259 . S
C640 C641 1.387 . S
C640 H644 0.950 . S
C640 C649 1.390 . S
C641 C640 1.387 . S
C641 C643 1.387 . S
H642 C649 0.950 . S
C643 C641 1.387 . S
C643 C645 1.390 . S
C643 H647 0.950 . S
H644 C640 0.950 . S
C645 C643 1.390 . S
C645 C646 1.387 . S
C645 H648 0.950 . S
C646 C645 1.387 . S
C646 C649 1.387 . S
H647 C643 0.950 . S
H648 C645 0.950 . S
C649 C640 1.390 . S
C649 H642 0.950 . S
C649 C646 1.387 . S
C650 C651 1.387 . S
C650 H654 0.950 . S
C650 C659 1.390 . S
C651 C650 1.387 . S
C651 C653 1.387 . S
H652 C659 0.950 . S
C653 C651 1.387 . S
C653 C655 1.390 . S
C653 H657 0.950 . S
H654 C650 0.950 . S
C655 C653 1.390 . S
C655 C656 1.387 . S
C655 H658 0.950 . S
C656 C655 1.387 . S
C656 C659 1.387 . S
H657 C653 0.950 . S
H658 C655 0.950 . S
C659 C650 1.390 . S
C659 H652 0.950 . S
C659 C656 1.387 . S
C660 C661 1.387 . S
C660 H664 0.950 . S
C660 C669 1.390 . S
C661 C660 1.387 . S
C661 C663 1.387 . S
H662 C669 0.950 . S
C663 C661 1.387 . S
C663 C665 1.390 . S
C663 H667 0.950 . S
H664 C660 0.950 . S
C665 C663 1.390 . S
C665 C666 1.387 . S
C665 H668 0.950 . S
C666 C665 1.387 . S
C666 C669 1.387 . S
H667 C663 0.950 . S
H668 C665 0.950 . S
C669 C660 1.390 . S
C669 H662 0.950 . S
C669 C666 1.387 . S
C670 C671 1.387 . S
C670 H674 0.950 . S
C670 C679 1.390 . S
C671 C670 1.387 . S
C671 C673 1.387 . S
H672 C679 0.950 . S
C673 C671 1.387 . S
C673 C675 1.390 . S
C673 H677 0.950 . S
H674 C670 0.950 . S
C675 C673 1.390 . S
C675 C676 1.387 . S
C675 H678 0.950 . S
C676 C675 1.387 . S
C676 C679 1.387 . S
H677 C673 0.950 . S
H678 C675 0.950 . S
C679 C670 1.390 . S
C679 H672 0.950 . S
C679 C676 1.387 . S
C680 C681 1.387 . S
C680 H684 0.950 . S
C680 C689 1.390 . S
C681 C680 1.387 . S
C681 C683 1.387 . S
H682 C689 0.950 . S
C683 C681 1.387 . S
C683 C685 1.390 . S
C683 H687 0.950 . S
H684 C680 0.950 . S
C685 C683 1.390 . S
C685 C686 1.387 . S
C685 H688 0.950 . S
C686 C685 1.387 . S
C686 C689 1.387 . S
H687 C683 0.950 . S
H688 C685 0.950 . S
C689 C680 1.390 . S
C689 H682 0.950 . S
C689 C686 1.387 . S
C690 C691 1.387 . S
C690 H694 0.950 . S
C690 C699 1.390 . S
C691 C690 1.387 . S
C691 C693 1.387 . S
H692 C699 0.950 . S
C693 C691 1.387 . S
C693 C695 1.390 . S
C693 H697 0.950 . S
H694 C690 0.950 . S
C695 C693 1.390 . S
C695 C696 1.387 . S
C695 H698 0.950 . S
C696 C695 1.387 . S
C696 C699 1.387 . S
H697 C693 0.950 . S
H698 C695 0.950 . S
C699 C690 1.390 . S
C699 H692 0.950 . S
C699 C696 1.387 . S
C700 C701 1.387 . S
C700 H704 0.950 . S
C700 C709 1.390 . S
C701 C700 1.387 . S
C701 C703 1.387 . S
H702 C709 0.950 . S
C703 C701 1.387 . S
C703 C705 1.390 . S
C703 H707 0.950 . S
H704 C700 0.950 . S
C705 C703 1.390 . S
C705 C706 1.387 . S
C705 H708 0.950 . S
C706 C705 1.387 . S
C706 C709 1.387 . S
H707 C703 0.950 . S
H708 C705 0.950 . S
C709 C700 1.390 . S
C709 H702 0.950 . S
C709 C706 1.387 . S
C710 C711 1.387 . S
C710 H714 0.950 . S
C710 C719 1.390 . S
C711 C710 1.387 . S
C711 C713 1.387 . S
H712 C719 0.950 . S
C713 C711 1.387 . S
C713 C715 1.390 . S
C713 H717 0.950 . S
H714 C710 0.950 . S
C715 C713 1.390 . S
C715 C716 1.387 . S
C715 H718 0.950 . S
C716 C715 1.387 . S
C716 C719 1.387 . S
H717 C713 0.950 . S
H718 C715 0.950 . S
C719 C710 1.390 . S
C719 H712 0.950 . S
C719 C716 1.387 . S
C720 C721 1.387 . S
C720 H724 0.950 . S
C720 C729 1.390 . S
C721 C720 1.387 . S
C721 C723 1.387 . S
H722 C729 0.950 . S
C723 C721 1.387 . S
C723 C725 1.390 . S
C723 H727 0.950 . S
H724 C720 0.950 . S
C725 C723 1.390 . S
C725 C726 1.387 . S
C725 H728 0.950 . S
C726 C725 1.387 . S
C726 C729 1.387 . S
H727 C723 0.950 . S
H728 C725 0.950 . S
C729 C720 1.390 . S
C729 H722 0.950 . S
C729 C726 1.387 . S
C730 C731 1.387 . S
C730 H734 0.950 . S
C730 C739 1.390 . S
C731 C730 1.387 . S
C731 C733 1.387 . S
H732 C739 0.950 . S
C733 C731 1.387 . S
C733 C735 1.390 . S
C733 H737 0.950 . S
H734 C730 0.950 . S
C735 C733 1.390 . S
C735 C736 1.387 . S
C735 H738 0.950 . S
C736 C735 1.387 . S
C736 C739 1.387 . S
H737 C733 0.950 . S
H738 C735 0.950 . S
C739 C730 1.390 . S
C739 H732 0.950 . S
C739 C736 1.387 . S
C740 C741 1.387 . S
C740 H744 0.950 . S
C740 C749 1.390 . S
C741 C740 1.387 . S
C741 C743 1.387 . S
H742 C749 0.950 . S
C743 C741 1.387 . S
C743 C745 1.390 . S
C743 H747 0.950 . S
H744 C740 0.950 . S
C745 C743 1.390 . S
C745 C746 1.387 . S
C745 H748 0.950 . S
C746 C745 1.387 . S
C746 C749 1.387 . S
H747 C743 0.950 . S
H748 C745 0.950 . S
C749 C740 1.390 . S
C749 H742 0.950 . S
C749 C746 1.387 . S
C750 C751 1.387 . S
C750 H754 0.950 . S
C750 C759 1.390 . S
C751 C750 1.387 . S
C751 C753 1.387 . S
H752 C759 0.950 . S
C753 C751 1.387 . S
C753 C755 1.390 . S
C753 H757 0.950 . S
H754 C750 0.950 . S
C755 C753 1.390 . S
C755 C756 1.387 . S
C755 H758 0.950 . S
C756 C755 1.387 . S
C756 C759 1.387 . S
H757 C753 0.950 . S
H758 C755 0.950 . S
C759 C750 1.390 . S
C759 H752 0.950 . S
C759 C756 1.387 . S
C760 C761 1.387 . S
C760 H764 0.950 . S
C760 C769 1.390 . S
C761 C760 1.387 . S
C761 C763 1.387 . S
H762 C769 0.950 . S
C763 C761 1.387 . S
C763 C765 1.390 . S
C763 H767 0.950 . S
H764 C760 0.950 . S
C765 C763 1.390 . S
C765 C766 1.387 . S
C765 H768 0.950 . S
C766 C765 1.387 . S
C766 C769 1.387 . S
H767 C763 0.950 . S
H768 C765 0.950 . S
C769 C760 1.390 . S
C769 H762 0.950 . S
C769 C766 1.387 . S
C770 C771 1.387 . S
C770 H774 0.950 . S
C770 C779 1.390 . S
C771 C770 1.387 . S
C771 C773 1.387 . S
H772 C779 0.950 . S
C773 C771 1.387 . S
C773 C775 1.390 . S
C773 H777 0.950 . S
H774 C770 0.950 . S
C775 C773 1.390 . S
C775 C776 1.387 . S
C775 H778 0.950 . S
C776 C775 1.387 . S
C776 C779 1.387 . S
H777 C773 0.950 . S
H778 C775 0.950 . S
C779 C770 1.390 . S
C779 H772 0.950 . S
C779 C776 1.387 . S
C780 C781 1.387 . S
C780 H784 0.950 . S
C780 C789 1.390 . S
C781 C780 1.387 . S
C781 C783 1.387 . S
H782 C789 0.950 . S
C783 C781 1.387 . S
C783 C785 1.390 . S
C783 H787 0.950 . S
H784 C780 0.950 . S
C785 C783 1.390 . S
C785 C786 1.387 . S
C785 H788 0.950 . S
C786 C785 1.387 . S
C786 C789 1.387 . S
H787 C783 0.950 . S
H788 C785 0.950 . S
C789 C780 1.390 . S
C789 H782 0.950 . S
C789 C786 1.387 . S
C790 C791 1.387 . S
C790 H794 0.950 . S
C790 C799 1.390 . S
C791 C790 1.387 . S
C791 C793 1.387 . S
H792 C799 0.950 . S
C793 C791 1.387 . S
C793 C795 1.390 . S
C793 H797 0.950 . S
H794 C790 0.950 . S
C795 C793 1.390 . S
C795 C796 1.387 . S
C795 H798 0.950 . S
C796 C795 1.387 . S
C796 C799 1.387 . S
H797 C793 0.950 . S
H798 C795 0.950 . S
C799 C790 1.390 . S
C799 H792 0.950 . S
C799 C796 1.387 . S
C800 C801 1.387 . S
C800 H804 0.950 . S
C800 C809 1.390 . S
C801 C800 1.387 . S
C801 C803 1.387 . S
H802 C809 0.950 . S
C803 C801 1.387 . S
C803 C805 1.390 . S
C803 H807 0.950 . S
H804 C800 0.950 . S
C805 C803 1.390 . S
C805 C806 1.387 . S
C805 H808 0.950 . S
C806 C805 1.387 . S
C806 C809 1.387 . S
H807 C803 0.950 . S
H808 C805 0.950 . S
C809 C800 1.390 . S
C809 H802 0.950 . S
C809 C806 1.387 . S
C810 C811 1.387 . S
C810 H814 0.950 . S
C810 C819 1.390 . S
C811 C810 1.387 . S
C811 C813 1.387 . S
H812 C819 0.950 . S
C813 C811 1.387 . S
C813 C815 1.390 . S
C813 H817 0.950 . S
H814 C810 0.950 . S
C815 C813 1.390 . S
C815 C816 1.387 . S
C815 H818 0.950 . S
C816 C815 1.387 . S
C816 C819 1.387 . S
H817 C813 0.950 . S
H818 C815 0.950 . S
C819 C810 1.390 . S
C819 H812 0.950 . S
C819 C816 1.387 . S
C820 C821 1.387 . S
C820 H824 0.950 . S
C820 C829 1.390 . S
C821 C820 1.387 . S
C821 C823 1.387 . S
H822 C829 0.950 . S
C823 C821 1.387 . S
C823 C825 1.390 . S
C823 H827 0.950 . S
H824 C820 0.950 . S
C825 C823 1.390 . S
C825 C826 1.387 . S
C825 H828 0.950 . S
C826 C825 1.387 . S
C826 C829 1.387 . S
H827 C823 0.950 . S
H828 C825 0.950 . S
C829 C820 1.390 . S
C829 H822 0.950 . S
C829 C826 1.387 . S
C830 C831 1.387 . S
C830 H834 0.950 . S
C830 C839 1.390 . S
C831 C830 1.387 . S
C831 C833 1.387 . S
H832 C839 0.950 . S
C833 C831 1.387 . S
C833 C835 1.390 . S
C833 H837 0.950 . S
H834 C830 0.950 . S
C835 C833 1.390 . S
C835 C836 1.387 . S
C835 H838 0.950 . S
C836 C835 1.387 . S
C836 C839 1.387 . S
H837 C833 0.950 . S
H838 C835 0.950 . S
C839 C830 1.390 . S
C839 H832 0.950 . S
C839 C836 1.387 . S
C840 C841 1.406 . S
C840 H844 0.950 . S
C840 C849 1.390 . S
C841 C840 1.406 . S
C841 C843 1.369 1_545 S
H842 C849 0.950 . S
C843 C841 1.369 1_565 S
C843 C845 1.390 . S
C843 H847 0.950 . S
H844 C840 0.950 . S
C845 C843 1.390 . S
C845 C846 1.369 1_565 S
C845 H848 0.950 . S
C846 C845 1.369 1_545 S
C846 C849 1.406 . S
H847 C843 0.950 . S
H848 C845 0.950 . S
C849 C840 1.390 . S
C849 H842 0.950 . S
C849 C846 1.406 . S
C850 C851 1.387 . S
C850 H854 0.950 . S
C850 C859 1.390 . S
C851 C850 1.387 . S
C851 C853 1.387 . S
H852 C859 0.950 . S
C853 C851 1.387 . S
C853 C855 1.390 . S
C853 H857 0.950 . S
H854 C850 0.950 . S
C855 C853 1.390 . S
C855 C856 1.387 . S
C855 H858 0.950 . S
C856 C855 1.387 . S
C856 C859 1.387 . S
H857 C853 0.950 . S
H858 C855 0.950 . S
C859 C850 1.390 . S
C859 H852 0.950 . S
C859 C856 1.387 . S
C860 C861 1.406 . S
C860 H864 0.950 . S
C860 C869 1.390 . S
C861 C860 1.406 . S
C861 C863 1.369 1_565 S
H862 C869 0.950 . S
C863 C861 1.369 1_545 S
C863 C865 1.390 . S
C863 H867 0.950 . S
H864 C860 0.950 . S
C865 C863 1.390 . S
C865 C866 1.369 1_545 S
C865 H868 0.950 . S
C866 C865 1.369 1_565 S
C866 C869 1.406 . S
H867 C863 0.950 . S
H868 C865 0.950 . S
C869 C860 1.390 . S
C869 H862 0.950 . S
C869 C866 1.406 . S
C870 C871 1.387 . S
C870 H874 0.950 . S
C870 C879 1.390 . S
C871 C870 1.387 . S
C871 C873 1.387 . S
H872 C879 0.950 . S
C873 C871 1.387 . S
C873 C875 1.390 . S
C873 H877 0.950 . S
H874 C870 0.950 . S
C875 C873 1.390 . S
C875 C876 1.387 . S
C875 H878 0.950 . S
C876 C875 1.387 . S
C876 C879 1.387 . S
H877 C873 0.950 . S
H878 C875 0.950 . S
C879 C870 1.390 . S
C879 H872 0.950 . S
C879 C876 1.387 . S
C880 C881 1.387 . S
C880 H884 0.950 . S
C880 C889 1.390 . S
C881 C880 1.387 . S
C881 C883 1.387 . S
H882 C889 0.950 . S
C883 C881 1.387 . S
C883 C885 1.390 . S
C883 H887 0.950 . S
H884 C880 0.950 . S
C885 C883 1.390 . S
C885 C886 1.387 . S
C885 H888 0.950 . S
C886 C885 1.387 . S
C886 C889 1.387 . S
H887 C883 0.950 . S
H888 C885 0.950 . S
C889 C880 1.390 . S
C889 H882 0.950 . S
C889 C886 1.387 . S
C890 C891 1.387 . S
C890 H894 0.950 . S
C890 C899 1.390 . S
C891 C890 1.387 . S
C891 C893 1.387 . S
H892 C899 0.950 . S
C893 C891 1.387 . S
C893 C895 1.390 . S
C893 H897 0.950 . S
H894 C890 0.950 . S
C895 C893 1.390 . S
C895 C896 1.387 . S
C895 H898 0.950 . S
C896 C895 1.387 . S
C896 C899 1.387 . S
H897 C893 0.950 . S
H898 C895 0.950 . S
C899 C890 1.390 . S
C899 H892 0.950 . S
C899 C896 1.387 . S
C900 C901 1.387 . S
C900 H904 0.950 . S
C900 C909 1.390 . S
C901 C900 1.387 . S
C901 C903 1.387 . S
H902 C909 0.950 . S
C903 C901 1.387 . S
C903 C905 1.390 . S
C903 H907 0.950 . S
H904 C900 0.950 . S
C905 C903 1.390 . S
C905 C906 1.387 . S
C905 H908 0.950 . S
C906 C905 1.387 . S
C906 C909 1.387 . S
H907 C903 0.950 . S
H908 C905 0.950 . S
C909 C900 1.390 . S
C909 H902 0.950 . S
C909 C906 1.387 . S
C910 C911 1.387 . S
C910 H914 0.950 . S
C910 C919 1.390 . S
C911 C910 1.387 . S
C911 C913 1.387 . S
H912 C919 0.950 . S
C913 C911 1.387 . S
C913 C915 1.390 . S
C913 H917 0.950 . S
H914 C910 0.950 . S
C915 C913 1.390 . S
C915 C916 1.387 . S
C915 H918 0.950 . S
C916 C915 1.387 . S
C916 C919 1.387 . S
H917 C913 0.950 . S
H918 C915 0.950 . S
C919 C910 1.390 . S
C919 H912 0.950 . S
C919 C916 1.387 . S
C920 C921 1.406 . S
C920 H924 0.950 . S
C920 C929 1.390 . S
C921 C920 1.406 . S
C921 C923 1.369 1_545 S
H922 C929 0.950 . S
C923 C921 1.369 1_565 S
C923 C925 1.390 . S
C923 H927 0.950 . S
H924 C920 0.950 . S
C925 C923 1.390 . S
C925 C926 1.369 1_565 S
C925 H928 0.950 . S
C926 C925 1.369 1_545 S
C926 C929 1.406 . S
H927 C923 0.950 . S
H928 C925 0.950 . S
C929 C920 1.390 . S
C929 H922 0.950 . S
C929 C926 1.406 . S
C930 C931 1.387 . S
C930 H934 0.950 . S
C930 C939 1.390 . S
C931 C930 1.387 . S
C931 C933 1.387 . S
H932 C939 0.950 . S
C933 C931 1.387 . S
C933 C935 1.390 . S
C933 H937 0.950 . S
H934 C930 0.950 . S
C935 C933 1.390 . S
C935 C936 1.387 . S
C935 H938 0.950 . S
C936 C935 1.387 . S
C936 C939 1.387 . S
H937 C933 0.950 . S
H938 C935 0.950 . S
C939 C930 1.390 . S
C939 H932 0.950 . S
C939 C936 1.387 . S
C940 C941 1.406 . S
C940 H944 0.950 . S
C940 C949 1.390 . S
C941 C940 1.406 . S
C941 C943 1.369 1_565 S
H942 C949 0.950 . S
C943 C941 1.369 1_545 S
C943 C945 1.390 . S
C943 H947 0.950 . S
H944 C940 0.950 . S
C945 C943 1.390 . S
C945 C946 1.369 1_545 S
C945 H948 0.950 . S
C946 C945 1.369 1_565 S
C946 C949 1.406 . S
H947 C943 0.950 . S
H948 C945 0.950 . S
C949 C940 1.390 . S
C949 H942 0.950 . S
C949 C946 1.406 . S
C950 C951 1.387 . S
C950 H954 0.950 . S
C950 C959 1.390 . S
C951 C950 1.387 . S
C951 C953 1.387 . S
H952 C959 0.950 . S
C953 C951 1.387 . S
C953 C955 1.390 . S
C953 H957 0.950 . S
H954 C950 0.950 . S
C955 C953 1.390 . S
C955 C956 1.387 . S
C955 H958 0.950 . S
C956 C955 1.387 . S
C956 C959 1.387 . S
H957 C953 0.950 . S
H958 C955 0.950 . S
C959 C950 1.390 . S
C959 H952 0.950 . S
C959 C956 1.387 . S
C960 C961 1.387 . S
C960 H964 0.950 . S
C960 C969 1.390 . S
C961 C960 1.387 . S
C961 C963 1.387 . S
H962 C969 0.950 . S
C963 C961 1.387 . S
C963 C965 1.390 . S
C963 H967 0.950 . S
H964 C960 0.950 . S
C965 C963 1.390 . S
C965 C966 1.387 . S
C965 H968 0.950 . S
C966 C965 1.387 . S
C966 C969 1.387 . S
H967 C963 0.950 . S
H968 C965 0.950 . S
C969 C960 1.390 . S
C969 H962 0.950 . S
C969 C966 1.387 . S
C970 C971 1.387 . S
C970 H974 0.950 . S
C970 C979 1.390 . S
C971 C970 1.387 . S
C971 C973 1.387 . S
H972 C979 0.950 . S
C973 C971 1.387 . S
C973 C975 1.390 . S
C973 H977 0.950 . S
H974 C970 0.950 . S
C975 C973 1.390 . S
C975 C976 1.387 . S
C975 H978 0.950 . S
C976 C975 1.387 . S
C976 C979 1.387 . S
H977 C973 0.950 . S
H978 C975 0.950 . S
C979 C970 1.390 . S
C979 H972 0.950 . S
C979 C976 1.387 . S
C980 C981 1.387 . S
C980 H984 0.950 . S
C980 C989 1.390 . S
C981 C980 1.387 . S
C981 C983 1.387 . S
H982 C989 0.950 . S
C983 C981 1.387 . S
C983 C985 1.390 . S
C983 H987 0.950 . S
H984 C980 0.950 . S
C985 C983 1.390 . S
C985 C986 1.387 . S
C985 H988 0.950 . S
C986 C985 1.387 . S
C986 C989 1.387 . S
H987 C983 0.950 . S
H988 C985 0.950 . S
C989 C980 1.390 . S
C989 H982 0.950 . S
C989 C986 1.387 . S
C990 C991 1.387 . S
C990 H994 0.950 . S
C990 C999 1.390 . S
C991 C990 1.387 . S
C991 C993 1.387 . S
H992 C999 0.950 . S
C993 C991 1.387 . S
C993 C995 1.390 . S
C993 H997 0.950 . S
H994 C990 0.950 . S
C995 C993 1.390 . S
C995 C996 1.387 . S
C995 H998 0.950 . S
C996 C995 1.387 . S
C996 C999 1.387 . S
H997 C993 0.950 . S
H998 C995 0.950 . S
C999 C990 1.390 . S
C999 H992 0.950 . S
C999 C996 1.387 . S
C1000 C1001 1.387 . S
C1000 H1004 0.950 . S
C1000 C1009 1.390 . S
C1001 C1000 1.387 . S
C1001 C1003 1.387 . S
H1002 C1009 0.950 . S
C1003 C1001 1.387 . S
C1003 C1005 1.390 . S
C1003 H1007 0.950 . S
H1004 C1000 0.950 . S
C1005 C1003 1.390 . S
C1005 C1006 1.387 . S
C1005 H1008 0.950 . S
C1006 C1005 1.387 . S
C1006 C1009 1.387 . S
H1007 C1003 0.950 . S
H1008 C1005 0.950 . S
C1009 C1000 1.390 . S
C1009 H1002 0.950 . S
C1009 C1006 1.387 . S
C1010 C1011 1.387 . S
C1010 H1014 0.950 . S
C1010 C1019 1.390 . S
C1011 C1010 1.387 . S
C1011 C1013 1.387 . S
H1012 C1019 0.950 . S
C1013 C1011 1.387 . S
C1013 C1015 1.390 . S
C1013 H1017 0.950 . S
H1014 C1010 0.950 . S
C1015 C1013 1.390 . S
C1015 C1016 1.387 . S
C1015 H1018 0.950 . S
C1016 C1015 1.387 . S
C1016 C1019 1.387 . S
H1017 C1013 0.950 . S
H1018 C1015 0.950 . S
C1019 C1010 1.390 . S
C1019 H1012 0.950 . S
C1019 C1016 1.387 . S
C1020 C1021 1.387 . S
C1020 H1024 0.950 . S
C1020 C1029 1.390 . S
C1021 C1020 1.387 . S
C1021 C1023 1.387 . S
H1022 C1029 0.950 . S
C1023 C1021 1.387 . S
C1023 C1025 1.390 . S
C1023 H1027 0.950 . S
H1024 C1020 0.950 . S
C1025 C1023 1.390 . S
C1025 C1026 1.387 . S
C1025 H1028 0.950 . S
C1026 C1025 1.387 . S
C1026 C1029 1.387 . S
H1027 C1023 0.950 . S
H1028 C1025 0.950 . S
C1029 C1020 1.390 . S
C1029 H1022 0.950 . S
C1029 C1026 1.387 . S
C1030 C1031 1.387 . S
C1030 H1034 0.950 . S
C1030 C1039 1.390 . S
C1031 C1030 1.387 . S
C1031 C1033 1.387 . S
H1032 C1039 0.950 . S
C1033 C1031 1.387 . S
C1033 C1035 1.390 . S
C1033 H1037 0.950 . S
H1034 C1030 0.950 . S
C1035 C1033 1.390 . S
C1035 C1036 1.387 . S
C1035 H1038 0.950 . S
C1036 C1035 1.387 . S
C1036 C1039 1.387 . S
H1037 C1033 0.950 . S
H1038 C1035 0.950 . S
C1039 C1030 1.390 . S
C1039 H1032 0.950 . S
C1039 C1036 1.387 . S
C1040 C1041 1.387 . S
C1040 H1044 0.950 . S
C1040 C1049 1.390 . S
C1041 C1040 1.387 . S
C1041 C1043 1.387 . S
H1042 C1049 0.950 . S
C1043 C1041 1.387 . S
C1043 C1045 1.390 . S
C1043 H1047 0.950 . S
H1044 C1040 0.950 . S
C1045 C1043 1.390 . S
C1045 C1046 1.387 . S
C1045 H1048 0.950 . S
C1046 C1045 1.387 . S
C1046 C1049 1.387 . S
H1047 C1043 0.950 . S
H1048 C1045 0.950 . S
C1049 C1040 1.390 . S
C1049 H1042 0.950 . S
C1049 C1046 1.387 . S
C1050 C1051 1.387 . S
C1050 H1054 0.950 . S
C1050 C1059 1.390 . S
C1051 C1050 1.387 . S
C1051 C1053 1.387 . S
H1052 C1059 0.950 . S
C1053 C1051 1.387 . S
C1053 C1055 1.390 . S
C1053 H1057 0.950 . S
H1054 C1050 0.950 . S
C1055 C1053 1.390 . S
C1055 C1056 1.387 . S
C1055 H1058 0.950 . S
C1056 C1055 1.387 . S
C1056 C1059 1.387 . S
H1057 C1053 0.950 . S
H1058 C1055 0.950 . S
C1059 C1050 1.390 . S
C1059 H1052 0.950 . S
C1059 C1056 1.387 . S
C1060 C1061 1.387 . S
C1060 H1064 0.950 . S
C1060 C1069 1.390 . S
C1061 C1060 1.387 . S
C1061 C1063 1.387 . S
H1062 C1069 0.950 . S
C1063 C1061 1.387 . S
C1063 C1065 1.390 . S
C1063 H1067 0.950 . S
H1064 C1060 0.950 . S
C1065 C1063 1.390 . S
C1065 C1066 1.387 . S
C1065 H1068 0.950 . S
C1066 C1065 1.387 . S
C1066 C1069 1.387 . S
H1067 C1063 0.950 . S
H1068 C1065 0.950 . S
C1069 C1060 1.390 . S
C1069 H1062 0.950 . S
C1069 C1066 1.387 . S
C1070 C1071 1.387 . S
C1070 H1074 0.950 . S
C1070 C1079 1.390 . S
C1071 C1070 1.387 . S
C1071 C1073 1.387 . S
H1072 C1079 0.950 . S
C1073 C1071 1.387 . S
C1073 C1075 1.390 . S
C1073 H1077 0.950 . S
H1074 C1070 0.950 . S
C1075 C1073 1.390 . S
C1075 C1076 1.387 . S
C1075 H1078 0.950 . S
C1076 C1075 1.387 . S
C1076 C1079 1.387 . S
H1077 C1073 0.950 . S
H1078 C1075 0.950 . S
C1079 C1070 1.390 . S
C1079 H1072 0.950 . S
C1079 C1076 1.387 . S
C1080 C1081 1.387 . S
C1080 H1084 0.950 . S
C1080 C1089 1.390 . S
C1081 C1080 1.387 . S
C1081 C1083 1.387 . S
H1082 C1089 0.950 . S
C1083 C1081 1.387 . S
C1083 C1085 1.390 . S
C1083 H1087 0.950 . S
H1084 C1080 0.950 . S
C1085 C1083 1.390 . S
C1085 C1086 1.387 . S
C1085 H1088 0.950 . S
C1086 C1085 1.387 . S
C1086 C1089 1.387 . S
H1087 C1083 0.950 . S
H1088 C1085 0.950 . S
C1089 C1080 1.390 . S
C1089 H1082 0.950 . S
C1089 C1086 1.387 . S
C1090 C1091 1.387 . S
C1090 H1094 0.950 . S
C1090 C1099 1.390 . S
C1091 C1090 1.387 . S
C1091 C1093 1.387 . S
H1092 C1099 0.950 . S
C1093 C1091 1.387 . S
C1093 C1095 1.390 . S
C1093 H1097 0.950 . S
H1094 C1090 0.950 . S
C1095 C1093 1.390 . S
C1095 C1096 1.387 . S
C1095 H1098 0.950 . S
C1096 C1095 1.387 . S
C1096 C1099 1.387 . S
H1097 C1093 0.950 . S
H1098 C1095 0.950 . S
C1099 C1090 1.390 . S
C1099 H1092 0.950 . S
C1099 C1096 1.387 . S
C1100 C1101 1.387 . S
C1100 H1104 0.950 . S
C1100 C1109 1.390 . S
C1101 C1100 1.387 . S
C1101 C1103 1.387 . S
H1102 C1109 0.950 . S
C1103 C1101 1.387 . S
C1103 C1105 1.390 . S
C1103 H1107 0.950 . S
H1104 C1100 0.950 . S
C1105 C1103 1.390 . S
C1105 C1106 1.387 . S
C1105 H1108 0.950 . S
C1106 C1105 1.387 . S
C1106 C1109 1.387 . S
H1107 C1103 0.950 . S
H1108 C1105 0.950 . S
C1109 C1100 1.390 . S
C1109 H1102 0.950 . S
C1109 C1106 1.387 . S
C1110 C1111 1.387 . S
C1110 H1114 0.950 . S
C1110 C1119 1.390 . S
C1111 C1110 1.387 . S
C1111 C1113 1.387 . S
H1112 C1119 0.950 . S
C1113 C1111 1.387 . S
C1113 C1115 1.390 . S
C1113 H1117 0.950 . S
H1114 C1110 0.950 . S
C1115 C1113 1.390 . S
C1115 C1116 1.387 . S
C1115 H1118 0.950 . S
C1116 C1115 1.387 . S
C1116 C1119 1.387 . S
H1117 C1113 0.950 . S
H1118 C1115 0.950 . S
C1119 C1110 1.390 . S
C1119 H1112 0.950 . S
C1119 C1116 1.387 . S
C1120 C1121 1.387 . S
C1120 H1124 0.950 . S
C1120 C1129 1.390 . S
C1121 C1120 1.387 . S
C1121 C1123 1.387 . S
H1122 C1129 0.950 . S
C1123 C1121 1.387 . S
C1123 C1125 1.390 . S
C1123 H1127 0.950 . S
H1124 C1120 0.950 . S
C1125 C1123 1.390 . S
C1125 C1126 1.387 . S
C1125 H1128 0.950 . S
C1126 C1125 1.387 . S
C1126 C1129 1.387 . S
H1127 C1123 0.950 . S
H1128 C1125 0.950 . S
C1129 C1120 1.390 . S
C1129 H1122 0.950 . S
C1129 C1126 1.387 . S
C1130 C1131 1.387 . S
C1130 H1134 0.950 . S
C1130 C1139 1.390 . S
C1131 C1130 1.387 . S
C1131 C1133 1.387 . S
H1132 C1139 0.950 . S
C1133 C1131 1.387 . S
C1133 C1135 1.390 . S
C1133 H1137 0.950 . S
H1134 C1130 0.950 . S
C1135 C1133 1.390 . S
C1135 C1136 1.387 . S
C1135 H1138 0.950 . S
C1136 C1135 1.387 . S
C1136 C1139 1.387 . S
H1137 C1133 0.950 . S
H1138 C1135 0.950 . S
C1139 C1130 1.390 . S
C1139 H1132 0.950 . S
C1139 C1136 1.387 . S
C1140 C1141 1.387 . S
C1140 H1144 0.950 . S
C1140 C1149 1.390 . S
C1141 C1140 1.387 . S
C1141 C1143 1.387 . S
H1142 C1149 0.950 . S
C1143 C1141 1.387 . S
C1143 C1145 1.390 . S
C1143 H1147 0.950 . S
H1144 C1140 0.950 . S
C1145 C1143 1.390 . S
C1145 C1146 1.387 . S
C1145 H1148 0.950 . S
C1146 C1145 1.387 . S
C1146 C1149 1.387 . S
H1147 C1143 0.950 . S
H1148 C1145 0.950 . S
C1149 C1140 1.390 . S
C1149 H1142 0.950 . S
C1149 C1146 1.387 . S
C1150 C1151 1.387 . S
C1150 H1154 0.950 . S
C1150 C1159 1.390 . S
C1151 C1150 1.387 . S
C1151 C1153 1.387 . S
H1152 C1159 0.950 . S
C1153 C1151 1.387 . S
C1153 C1155 1.390 . S
C1153 H1157 0.950 . S
H1154 C1150 0.950 . S
C1155 C1153 1.390 . S
C1155 C1156 1.387 . S
C1155 H1158 0.950 . S
C1156 C1155 1.387 . S
C1156 C1159 1.387 . S
H1157 C1153 0.950 . S
H1158 C1155 0.950 . S
C1159 C1150 1.390 . S
C1159 H1152 0.950 . S
C1159 C1156 1.387 . S
C1160 C1161 1.387 . S
C1160 H1164 0.950 . S
C1160 C1169 1.390 . S
C1161 C1160 1.387 . S
C1161 C1163 1.387 . S
H1162 C1169 0.950 . S
C1163 C1161 1.387 . S
C1163 C1165 1.390 . S
C1163 H1167 0.950 . S
H1164 C1160 0.950 . S
C1165 C1163 1.390 . S
C1165 C1166 1.387 . S
C1165 H1168 0.950 . S
C1166 C1165 1.387 . S
C1166 C1169 1.387 . S
H1167 C1163 0.950 . S
H1168 C1165 0.950 . S
C1169 C1160 1.390 . S
C1169 H1162 0.950 . S
C1169 C1166 1.387 . S
C1170 C1171 1.387 . S
C1170 H1174 0.950 . S
C1170 C1179 1.390 . S
C1171 C1170 1.387 . S
C1171 C1173 1.387 . S
H1172 C1179 0.950 . S
C1173 C1171 1.387 . S
C1173 C1175 1.390 . S
C1173 H1177 0.950 . S
H1174 C1170 0.950 . S
C1175 C1173 1.390 . S
C1175 C1176 1.387 . S
C1175 H1178 0.950 . S
C1176 C1175 1.387 . S
C1176 C1179 1.387 . S
H1177 C1173 0.950 . S
H1178 C1175 0.950 . S
C1179 C1170 1.390 . S
C1179 H1172 0.950 . S
C1179 C1176 1.387 . S
C1180 C1181 1.387 . S
C1180 H1184 0.950 . S
C1180 C1189 1.390 . S
C1181 C1180 1.387 . S
C1181 C1183 1.387 . S
H1182 C1189 0.950 . S
C1183 C1181 1.387 . S
C1183 C1185 1.390 . S
C1183 H1187 0.950 . S
H1184 C1180 0.950 . S
C1185 C1183 1.390 . S
C1185 C1186 1.387 . S
C1185 H1188 0.950 . S
C1186 C1185 1.387 . S
C1186 C1189 1.387 . S
H1187 C1183 0.950 . S
H1188 C1185 0.950 . S
C1189 C1180 1.390 . S
C1189 H1182 0.950 . S
C1189 C1186 1.387 . S
C1190 C1191 1.387 . S
C1190 H1194 0.950 . S
C1190 C1199 1.390 . S
C1191 C1190 1.387 . S
C1191 C1193 1.387 . S
H1192 C1199 0.950 . S
C1193 C1191 1.387 . S
C1193 C1195 1.390 . S
C1193 H1197 0.950 . S
H1194 C1190 0.950 . S
C1195 C1193 1.390 . S
C1195 C1196 1.387 . S
C1195 H1198 0.950 . S
C1196 C1195 1.387 . S
C1196 C1199 1.387 . S
H1197 C1193 0.950 . S
H1198 C1195 0.950 . S
C1199 C1190 1.390 . S
C1199 H1192 0.950 . S
C1199 C1196 1.387 . S
C1200 C1201 1.387 1_565 S
C1200 H1204 0.950 . S
C1200 C1209 1.390 . S
C1201 C1200 1.387 1_545 S
C1201 C1203 1.387 . S
H1202 C1209 0.950 . S
C1203 C1201 1.387 . S
C1203 C1205 1.390 . S
C1203 H1207 0.950 . S
H1204 C1200 0.950 . S
C1205 C1203 1.390 . S
C1205 C1206 1.387 1_545 S
C1205 H1208 0.950 . S
C1206 C1205 1.387 1_565 S
C1206 C1209 1.387 . S
H1207 C1203 0.950 . S
H1208 C1205 0.950 . S
C1209 C1200 1.390 . S
C1209 H1202 0.950 . S
C1209 C1206 1.387 . S
C1210 C1211 1.387 . S
C1210 H1214 0.950 . S
C1210 C1219 1.390 . S
C1211 C1210 1.387 . S
C1211 C1213 1.387 . S
H1212 C1219 0.950 . S
C1213 C1211 1.387 . S
C1213 C1215 1.390 . S
C1213 H1217 0.950 . S
H1214 C1210 0.950 . S
C1215 C1213 1.390 . S
C1215 C1216 1.387 . S
C1215 H1218 0.950 . S
C1216 C1215 1.387 . S
C1216 C1219 1.387 . S
H1217 C1213 0.950 . S
H1218 C1215 0.950 . S
C1219 C1210 1.390 . S
C1219 H1212 0.950 . S
C1219 C1216 1.387 . S
C1220 C1221 1.387 . S
C1220 H1224 0.950 . S
C1220 C1229 1.390 . S
C1221 C1220 1.387 . S
C1221 C1223 1.387 . S
H1222 C1229 0.950 . S
C1223 C1221 1.387 . S
C1223 C1225 1.390 . S
C1223 H1227 0.950 . S
H1224 C1220 0.950 . S
C1225 C1223 1.390 . S
C1225 C1226 1.387 . S
C1225 H1228 0.950 . S
C1226 C1225 1.387 . S
C1226 C1229 1.387 . S
H1227 C1223 0.950 . S
H1228 C1225 0.950 . S
C1229 C1220 1.390 . S
C1229 H1222 0.950 . S
C1229 C1226 1.387 . S
C1230 C1231 1.387 . S
C1230 H1234 0.950 . S
C1230 C1239 1.391 1_545 S
C1231 C1230 1.387 . S
C1231 C1233 1.387 1_545 S
H1232 C1239 0.950 1_545 S
C1233 C1231 1.387 1_565 S
C1233 C1235 1.391 . S
C1233 H1237 0.950 . S
H1234 C1230 0.950 . S
C1235 C1233 1.391 . S
C1235 C1236 1.387 . S
C1235 H1238 0.950 . S
C1236 C1235 1.387 . S
C1236 C1239 1.387 . S
H1237 C1233 0.950 . S
H1238 C1235 0.950 . S
C1239 C1230 1.391 1_565 S
C1239 H1232 0.950 1_565 S
C1239 C1236 1.387 . S
C1240 C1241 1.387 . S
C1240 H1244 0.950 . S
C1240 C1249 1.390 1_565 S
C1241 C1240 1.387 . S
C1241 C1243 1.387 1_565 S
H1242 C1249 0.950 . S
C1243 C1241 1.387 1_545 S
C1243 C1245 1.390 . S
C1243 H1247 0.950 . S
H1244 C1240 0.950 . S
C1245 C1243 1.390 . S
C1245 C1246 1.387 . S
C1245 H1248 0.950 . S
C1246 C1245 1.387 . S
C1246 C1249 1.387 . S
H1247 C1243 0.950 . S
H1248 C1245 0.950 . S
C1249 C1240 1.390 1_545 S
C1249 H1242 0.950 . S
C1249 C1246 1.387 . S
C1250 C1251 1.387 . S
C1250 H1254 0.950 . S
C1250 C1259 1.390 . S
C1251 C1250 1.387 . S
C1251 C1253 1.387 . S
H1252 C1259 0.950 . S
C1253 C1251 1.387 . S
C1253 C1255 1.390 . S
C1253 H1257 0.950 . S
H1254 C1250 0.950 . S
C1255 C1253 1.390 . S
C1255 C1256 1.387 . S
C1255 H1258 0.950 . S
C1256 C1255 1.387 . S
C1256 C1259 1.387 . S
H1257 C1253 0.950 . S
H1258 C1255 0.950 . S
C1259 C1250 1.390 . S
C1259 H1252 0.950 . S
C1259 C1256 1.387 . S
C1260 C1261 1.387 . S
C1260 H1264 0.950 . S
C1260 C1269 1.390 . S
C1261 C1260 1.387 . S
C1261 C1263 1.387 . S
H1262 C1269 0.950 . S
C1263 C1261 1.387 . S
C1263 C1265 1.390 . S
C1263 H1267 0.950 . S
H1264 C1260 0.950 . S
C1265 C1263 1.390 . S
C1265 C1266 1.387 . S
C1265 H1268 0.950 . S
C1266 C1265 1.387 . S
C1266 C1269 1.387 . S
H1267 C1263 0.950 . S
H1268 C1265 0.950 . S
C1269 C1260 1.390 . S
C1269 H1262 0.950 . S
C1269 C1266 1.387 . S
C1270 C1271 1.387 . S
C1270 H1274 0.950 . S
C1270 C1279 1.390 . S
C1271 C1270 1.387 . S
C1271 C1273 1.387 1_565 S
H1272 C1279 0.950 . S
C1273 C1271 1.387 1_545 S
C1273 C1275 1.390 . S
C1273 H1277 0.950 . S
H1274 C1270 0.950 . S
C1275 C1273 1.390 . S
C1275 C1276 1.387 . S
C1275 H1278 0.950 . S
C1276 C1275 1.387 . S
C1276 C1279 1.387 1_545 S
H1277 C1273 0.950 . S
H1278 C1275 0.950 . S
C1279 C1270 1.390 . S
C1279 H1272 0.950 . S
C1279 C1276 1.387 1_565 S
C1280 C1281 1.387 . S
C1280 H1284 0.950 . S
C1280 C1289 1.390 1_455 S
C1281 C1280 1.387 . S
C1281 C1283 1.387 . S
H1282 C1289 0.950 . S
C1283 C1281 1.387 . S
C1283 C1285 1.390 1_455 S
C1283 H1287 0.950 . S
H1284 C1280 0.950 . S
C1285 C1283 1.390 1_655 S
C1285 C1286 1.387 . S
C1285 H1288 0.950 . S
C1286 C1285 1.387 . S
C1286 C1289 1.387 . S
H1287 C1283 0.950 . S
H1288 C1285 0.950 . S
C1289 C1280 1.390 1_655 S
C1289 H1282 0.950 . S
C1289 C1286 1.387 . S
C1290 C1291 1.387 . S
C1290 H1294 0.950 . S
C1290 C1299 1.390 . S
C1291 C1290 1.387 . S
C1291 C1293 1.387 . S
H1292 C1299 0.950 . S
C1293 C1291 1.387 . S
C1293 C1295 1.390 . S
C1293 H1297 0.950 . S
H1294 C1290 0.950 . S
C1295 C1293 1.390 . S
C1295 C1296 1.387 . S
C1295 H1298 0.950 . S
C1296 C1295 1.387 . S
C1296 C1299 1.387 . S
H1297 C1293 0.950 . S
H1298 C1295 0.950 . S
C1299 C1290 1.390 . S
C1299 H1292 0.950 . S
C1299 C1296 1.387 . S
C1300 C1301 1.387 . S
C1300 H1304 0.950 . S
C1300 C1309 1.390 1_655 S
C1301 C1300 1.387 . S
C1301 C1303 1.387 . S
H1302 C1309 0.950 . S
C1303 C1301 1.387 . S
C1303 C1305 1.390 1_655 S
C1303 H1307 0.950 . S
H1304 C1300 0.950 . S
C1305 C1303 1.390 1_455 S
C1305 C1306 1.387 . S
C1305 H1308 0.950 . S
C1306 C1305 1.387 . S
C1306 C1309 1.387 . S
H1307 C1303 0.950 . S
H1308 C1305 0.950 . S
C1309 C1300 1.390 1_455 S
C1309 H1302 0.950 . S
C1309 C1306 1.387 . S
C1310 C1311 1.387 . S
C1310 H1314 0.950 . S
C1310 C1319 1.390 . S
C1311 C1310 1.387 . S
C1311 C1313 1.387 . S
H1312 C1319 0.950 . S
C1313 C1311 1.387 . S
C1313 C1315 1.390 . S
C1313 H1317 0.950 . S
H1314 C1310 0.950 . S
C1315 C1313 1.390 . S
C1315 C1316 1.387 . S
C1315 H1318 0.950 . S
C1316 C1315 1.387 . S
C1316 C1319 1.387 . S
H1317 C1313 0.950 . S
H1318 C1315 0.950 . S
C1319 C1310 1.390 . S
C1319 H1312 0.950 . S
C1319 C1316 1.387 . S
C1320 C1321 1.387 . S
C1320 H1324 0.950 . S
C1320 C1329 1.390 1_655 S
C1321 C1320 1.387 . S
C1321 C1323 1.387 . S
H1322 C1329 0.950 . S
C1323 C1321 1.387 . S
C1323 C1325 1.390 1_655 S
C1323 H1327 0.950 . S
H1324 C1320 0.950 . S
C1325 C1323 1.390 1_455 S
C1325 C1326 1.387 . S
C1325 H1328 0.950 . S
C1326 C1325 1.387 . S
C1326 C1329 1.387 . S
H1327 C1323 0.950 . S
H1328 C1325 0.950 . S
C1329 C1320 1.390 1_455 S
C1329 H1322 0.950 . S
C1329 C1326 1.387 . S
C1330 C1331 1.387 . S
C1330 H1334 0.950 . S
C1330 C1339 1.390 . S
C1331 C1330 1.387 . S
C1331 C1333 1.387 . S
H1332 C1339 0.950 . S
C1333 C1331 1.387 . S
C1333 C1335 1.390 . S
C1333 H1337 0.950 . S
H1334 C1330 0.950 . S
C1335 C1333 1.390 . S
C1335 C1336 1.387 . S
C1335 H1338 0.950 . S
C1336 C1335 1.387 . S
C1336 C1339 1.387 . S
H1337 C1333 0.950 . S
H1338 C1335 0.950 . S
C1339 C1330 1.390 . S
C1339 H1332 0.950 . S
C1339 C1336 1.387 . S
C1340 C1341 1.387 . S
C1340 H1344 0.950 . S
C1340 C1349 1.390 1_455 S
C1341 C1340 1.387 . S
C1341 C1343 1.387 . S
H1342 C1349 0.950 . S
C1343 C1341 1.387 . S
C1343 C1345 1.390 1_455 S
C1343 H1347 0.950 . S
H1344 C1340 0.950 . S
C1345 C1343 1.390 1_655 S
C1345 C1346 1.387 . S
C1345 H1348 0.950 . S
C1346 C1345 1.387 . S
C1346 C1349 1.387 . S
H1347 C1343 0.950 . S
H1348 C1345 0.950 . S
C1349 C1340 1.390 1_655 S
C1349 H1342 0.950 . S
C1349 C1346 1.387 . S
C1350 C1351 1.387 . S
C1350 H1354 0.950 . S
C1350 C1359 1.390 . S
C1351 C1350 1.387 . S
C1351 C1353 1.387 . S
H1352 C1359 0.950 . S
C1353 C1351 1.387 . S
C1353 C1355 1.390 . S
C1353 H1357 0.950 . S
H1354 C1350 0.950 . S
C1355 C1353 1.390 . S
C1355 C1356 1.387 . S
C1355 H1358 0.950 . S
C1356 C1355 1.387 . S
C1356 C1359 1.387 . S
H1357 C1353 0.950 . S
H1358 C1355 0.950 . S
C1359 C1350 1.390 . S
C1359 H1352 0.950 . S
C1359 C1356 1.387 . S
C1360 C1361 1.387 . S
C1360 H1364 0.950 . S
C1360 C1369 1.390 1_655 S
C1361 C1360 1.387 . S
C1361 C1363 1.387 1_545 S
H1362 C1369 0.950 . S
C1363 C1361 1.387 1_565 S
C1363 C1365 1.390 1_655 S
C1363 H1367 0.950 . S
H1364 C1360 0.950 . S
C1365 C1363 1.390 1_455 S
C1365 C1366 1.387 . S
C1365 H1368 0.950 . S
C1366 C1365 1.387 . S
C1366 C1369 1.387 1_565 S
H1367 C1363 0.950 . S
H1368 C1365 0.950 . S
C1369 C1360 1.390 1_455 S
C1369 H1362 0.950 . S
C1369 C1366 1.387 1_545 S
C1370 C1371 1.387 . S
C1370 H1374 0.950 . S
C1370 C1379 1.390 . S
C1371 C1370 1.387 . S
C1371 C1373 1.387 . S
H1372 C1379 0.950 . S
C1373 C1371 1.387 . S
C1373 C1375 1.390 . S
C1373 H1377 0.950 . S
H1374 C1370 0.950 . S
C1375 C1373 1.390 . S
C1375 C1376 1.387 . S
C1375 H1378 0.950 . S
C1376 C1375 1.387 . S
C1376 C1379 1.387 . S
H1377 C1373 0.950 . S
H1378 C1375 0.950 . S
C1379 C1370 1.390 . S
C1379 H1372 0.950 . S
C1379 C1376 1.387 . S
C1380 C1381 1.387 . S
C1380 H1384 0.950 . S
C1380 C1389 1.390 1_655 S
C1381 C1380 1.387 . S
C1381 C1383 1.387 . S
H1382 C1389 0.950 . S
C1383 C1381 1.387 . S
C1383 C1385 1.390 1_655 S
C1383 H1387 0.950 . S
H1384 C1380 0.950 . S
C1385 C1383 1.390 1_455 S
C1385 C1386 1.387 . S
C1385 H1388 0.950 . S
C1386 C1385 1.387 . S
C1386 C1389 1.387 . S
H1387 C1383 0.950 . S
H1388 C1385 0.950 . S
C1389 C1380 1.390 1_455 S
C1389 H1382 0.950 . S
C1389 C1386 1.387 . S
C1390 C1391 1.387 . S
C1390 H1394 0.950 . S
C1390 C1399 1.390 . S
C1391 C1390 1.387 . S
C1391 C1393 1.387 1_545 S
H1392 C1399 0.950 . S
C1393 C1391 1.387 1_565 S
C1393 C1395 1.390 . S
C1393 H1397 0.950 . S
H1394 C1390 0.950 . S
C1395 C1393 1.390 . S
C1395 C1396 1.387 . S
C1395 H1398 0.950 . S
C1396 C1395 1.387 . S
C1396 C1399 1.387 1_565 S
H1397 C1393 0.950 . S
H1398 C1395 0.950 . S
C1399 C1390 1.390 . S
C1399 H1392 0.950 . S
C1399 C1396 1.387 1_545 S
C1400 C1401 1.387 1_565 S
C1400 H1404 0.950 . S
C1400 C1409 1.390 1_655 S
C1401 C1400 1.387 1_545 S
C1401 C1403 1.387 . S
H1402 C1409 0.950 . S
C1403 C1401 1.387 . S
C1403 C1405 1.390 1_655 S
C1403 H1407 0.950 . S
H1404 C1400 0.950 . S
C1405 C1403 1.390 1_455 S
C1405 C1406 1.387 1_545 S
C1405 H1408 0.950 . S
C1406 C1405 1.387 1_565 S
C1406 C1409 1.387 . S
H1407 C1403 0.950 . S
H1408 C1405 0.950 . S
C1409 C1400 1.390 1_455 S
C1409 H1402 0.950 . S
C1409 C1406 1.387 . S
C1410 C1411 1.387 . S
C1410 H1414 0.950 . S
C1410 C1419 1.390 . S
C1411 C1410 1.387 . S
C1411 C1413 1.387 . S
H1412 C1419 0.950 . S
C1413 C1411 1.387 . S
C1413 C1415 1.390 . S
C1413 H1417 0.950 . S
H1414 C1410 0.950 . S
C1415 C1413 1.390 . S
C1415 C1416 1.387 . S
C1415 H1418 0.950 . S
C1416 C1415 1.387 . S
C1416 C1419 1.387 . S
H1417 C1413 0.950 . S
H1418 C1415 0.950 . S
C1419 C1410 1.390 . S
C1419 H1412 0.950 . S
C1419 C1416 1.387 . S
C1420 C1421 1.387 . S
C1420 H1424 0.950 . S
C1420 C1429 1.390 1_455 S
C1421 C1420 1.387 . S
C1421 C1423 1.387 . S
H1422 C1429 0.950 . S
C1423 C1421 1.387 . S
C1423 C1425 1.390 1_455 S
C1423 H1427 0.950 . S
H1424 C1420 0.950 . S
C1425 C1423 1.390 1_655 S
C1425 C1426 1.387 . S
C1425 H1428 0.950 . S
C1426 C1425 1.387 . S
C1426 C1429 1.387 . S
H1427 C1423 0.950 . S
H1428 C1425 0.950 . S
C1429 C1420 1.390 1_655 S
C1429 H1422 0.950 . S
C1429 C1426 1.387 . S
C1430 C1431 1.387 . S
C1430 H1434 0.950 . S
C1430 C1439 1.390 . S
C1431 C1430 1.387 . S
C1431 C1433 1.387 1_565 S
H1432 C1439 0.950 . S
C1433 C1431 1.387 1_545 S
C1433 C1435 1.390 . S
C1433 H1437 0.950 . S
H1434 C1430 0.950 . S
C1435 C1433 1.390 . S
C1435 C1436 1.387 . S
C1435 H1438 0.950 . S
C1436 C1435 1.387 . S
C1436 C1439 1.387 1_545 S
H1437 C1433 0.950 . S
H1438 C1435 0.950 . S
C1439 C1430 1.390 . S
C1439 H1432 0.950 . S
C1439 C1436 1.387 1_565 S
C1440 C1441 1.387 . S
C1440 H1444 0.950 . S
C1440 C1449 1.390 1_654 S
C1441 C1440 1.387 . S
C1441 C1443 1.387 . S
H1442 C1449 0.950 . S
C1443 C1441 1.387 . S
C1443 C1445 1.390 1_654 S
C1443 H1447 0.950 . S
H1444 C1440 0.950 . S
C1445 C1443 1.390 1_456 S
C1445 C1446 1.387 . S
C1445 H1448 0.950 . S
C1446 C1445 1.387 . S
C1446 C1449 1.387 . S
H1447 C1443 0.950 . S
H1448 C1445 0.950 . S
C1449 C1440 1.390 1_456 S
C1449 H1442 0.950 . S
C1449 C1446 1.387 . S
C1450 C1451 1.387 . S
C1450 H1454 0.950 . S
C1450 C1459 1.390 1_556 S
C1451 C1450 1.387 . S
C1451 C1453 1.387 . S
H1452 C1459 0.950 . S
C1453 C1451 1.387 . S
C1453 C1455 1.390 1_556 S
C1453 H1457 0.950 . S
H1454 C1450 0.950 . S
C1455 C1453 1.390 1_554 S
C1455 C1456 1.387 . S
C1455 H1458 0.950 . S
C1456 C1455 1.387 . S
C1456 C1459 1.387 . S
H1457 C1453 0.950 . S
H1458 C1455 0.950 . S
C1459 C1450 1.390 1_554 S
C1459 H1452 0.950 . S
C1459 C1456 1.387 . S
C1460 C1461 1.387 . S
C1460 H1464 0.950 . S
C1460 C1469 1.390 1_455 S
C1461 C1460 1.387 . S
C1461 C1463 1.387 . S
H1462 C1469 0.950 . S
C1463 C1461 1.387 . S
C1463 C1465 1.390 1_455 S
C1463 H1467 0.950 . S
H1464 C1460 0.950 . S
C1465 C1463 1.390 1_655 S
C1465 C1466 1.387 . S
C1465 H1468 0.950 . S
C1466 C1465 1.387 . S
C1466 C1469 1.387 . S
H1467 C1463 0.950 . S
H1468 C1465 0.950 . S
C1469 C1460 1.390 1_655 S
C1469 H1462 0.950 . S
C1469 C1466 1.387 . S
C1470 C1471 1.387 . S
C1470 H1474 0.950 . S
C1470 C1479 1.390 . S
C1471 C1470 1.387 . S
C1471 C1473 1.387 . S
H1472 C1479 0.950 . S
C1473 C1471 1.387 . S
C1473 C1475 1.390 . S
C1473 H1477 0.950 . S
H1474 C1470 0.950 . S
C1475 C1473 1.390 . S
C1475 C1476 1.387 . S
C1475 H1478 0.950 . S
C1476 C1475 1.387 . S
C1476 C1479 1.387 . S
H1477 C1473 0.950 . S
H1478 C1475 0.950 . S
C1479 C1470 1.390 . S
C1479 H1472 0.950 . S
C1479 C1476 1.387 . S
C1480 C1481 1.387 . S
C1480 H1484 0.950 . S
C1480 C1489 1.390 1_556 S
C1481 C1480 1.387 . S
C1481 C1483 1.387 . S
H1482 C1489 0.950 . S
C1483 C1481 1.387 . S
C1483 C1485 1.390 1_556 S
C1483 H1487 0.950 . S
H1484 C1480 0.950 . S
C1485 C1483 1.390 1_554 S
C1485 C1486 1.387 . S
C1485 H1488 0.950 . S
C1486 C1485 1.387 . S
C1486 C1489 1.387 . S
H1487 C1483 0.950 . S
H1488 C1485 0.950 . S
C1489 C1480 1.390 1_554 S
C1489 H1482 0.950 . S
C1489 C1486 1.387 . S
C1490 C1491 1.387 . S
C1490 H1494 0.950 . S
C1490 C1499 1.390 1_455 S
C1491 C1490 1.387 . S
C1491 C1493 1.387 . S
H1492 C1499 0.950 . S
C1493 C1491 1.387 . S
C1493 C1495 1.390 1_455 S
C1493 H1497 0.950 . S
H1494 C1490 0.950 . S
C1495 C1493 1.390 1_655 S
C1495 C1496 1.387 . S
C1495 H1498 0.950 . S
C1496 C1495 1.387 . S
C1496 C1499 1.387 . S
H1497 C1493 0.950 . S
H1498 C1495 0.950 . S
C1499 C1490 1.390 1_655 S
C1499 H1492 0.950 . S
C1499 C1496 1.387 . S
C1500 C1501 1.387 . S
C1500 H1504 0.950 . S
C1500 C1509 1.390 . S
C1501 C1500 1.387 . S
C1501 C1503 1.387 . S
H1502 C1509 0.950 . S
C1503 C1501 1.387 . S
C1503 C1505 1.390 . S
C1503 H1507 0.950 . S
H1504 C1500 0.950 . S
C1505 C1503 1.390 . S
C1505 C1506 1.387 . S
C1505 H1508 0.950 . S
C1506 C1505 1.387 . S
C1506 C1509 1.387 . S
H1507 C1503 0.950 . S
H1508 C1505 0.950 . S
C1509 C1500 1.390 . S
C1509 H1502 0.950 . S
C1509 C1506 1.387 . S
C1510 C1511 1.405 . S
C1510 H1514 0.950 . S
C1510 C1519 1.390 1_655 S
C1511 C1510 1.405 . S
C1511 C1513 1.370 1_565 S
H1512 C1519 0.950 . S
C1513 C1511 1.370 1_545 S
C1513 C1515 1.390 1_655 S
C1513 H1517 0.950 . S
H1514 C1510 0.950 . S
C1515 C1513 1.390 1_455 S
C1515 C1516 1.395 . S
C1515 H1518 0.950 . S
C1516 C1515 1.395 . S
C1516 C1519 1.380 1_545 S
H1517 C1513 0.950 . S
H1518 C1515 0.950 . S
C1519 C1510 1.390 1_455 S
C1519 H1512 0.950 . S
C1519 C1516 1.380 1_565 S
C1520 C1521 1.387 . S
C1520 H1524 0.950 . S
C1520 C1529 1.390 . S
C1521 C1520 1.387 . S
C1521 C1523 1.387 . S
H1522 C1529 0.950 . S
C1523 C1521 1.387 . S
C1523 C1525 1.390 . S
C1523 H1527 0.950 . S
H1524 C1520 0.950 . S
C1525 C1523 1.390 . S
C1525 C1526 1.387 . S
C1525 H1528 0.950 . S
C1526 C1525 1.387 . S
C1526 C1529 1.387 . S
H1527 C1523 0.950 . S
H1528 C1525 0.950 . S
C1529 C1520 1.390 . S
C1529 H1522 0.950 . S
C1529 C1526 1.387 . S
C1530 C1531 1.405 . S
C1530 H1534 0.950 . S
C1530 C1539 1.390 . S
C1531 C1530 1.405 . S
C1531 C1533 1.370 1_545 S
H1532 C1539 0.950 . S
C1533 C1531 1.370 1_565 S
C1533 C1535 1.390 . S
C1533 H1537 0.950 . S
H1534 C1530 0.950 . S
C1535 C1533 1.390 . S
C1535 C1536 1.395 . S
C1535 H1538 0.950 . S
C1536 C1535 1.395 . S
C1536 C1539 1.379 1_565 S
H1537 C1533 0.950 . S
H1538 C1535 0.950 . S
C1539 C1530 1.390 . S
C1539 H1532 0.950 . S
C1539 C1536 1.379 1_545 S
C1540 C1541 1.387 . S
C1540 H1544 0.950 . S
C1540 C1549 1.390 . S
C1541 C1540 1.387 . S
C1541 C1543 1.387 . S
H1542 C1549 0.950 . S
C1543 C1541 1.387 . S
C1543 C1545 1.390 . S
C1543 H1547 0.950 . S
H1544 C1540 0.950 . S
C1545 C1543 1.390 . S
C1545 C1546 1.387 . S
C1545 H1548 0.950 . S
C1546 C1545 1.387 . S
C1546 C1549 1.387 . S
H1547 C1543 0.950 . S
H1548 C1545 0.950 . S
C1549 C1540 1.390 . S
C1549 H1542 0.950 . S
C1549 C1546 1.387 . S
C1550 C1551 1.405 . S
C1550 H1554 0.950 . S
C1550 C1559 1.390 . S
C1551 C1550 1.405 . S
C1551 C1553 1.370 1_565 S
H1552 C1559 0.950 . S
C1553 C1551 1.370 1_545 S
C1553 C1555 1.390 . S
C1553 H1557 0.950 . S
H1554 C1550 0.950 . S
C1555 C1553 1.390 . S
C1555 C1556 1.395 . S
C1555 H1558 0.950 . S
C1556 C1555 1.395 . S
C1556 C1559 1.380 1_545 S
H1557 C1553 0.950 . S
H1558 C1555 0.950 . S
C1559 C1550 1.390 . S
C1559 H1552 0.950 . S
C1559 C1556 1.380 1_565 S
C1560 C1561 1.387 . S
C1560 H1564 0.950 . S
C1560 C1569 1.390 . S
C1561 C1560 1.387 . S
C1561 C1563 1.387 . S
H1562 C1569 0.950 . S
C1563 C1561 1.387 . S
C1563 C1565 1.390 . S
C1563 H1567 0.950 . S
H1564 C1560 0.950 . S
C1565 C1563 1.390 . S
C1565 C1566 1.387 . S
C1565 H1568 0.950 . S
C1566 C1565 1.387 . S
C1566 C1569 1.387 . S
H1567 C1563 0.950 . S
H1568 C1565 0.950 . S
C1569 C1560 1.390 . S
C1569 H1562 0.950 . S
C1569 C1566 1.387 . S
C1570 C1571 1.387 . S
C1570 H1574 0.950 . S
C1570 C1579 1.390 . S
C1571 C1570 1.387 . S
C1571 C1573 1.387 . S
H1572 C1579 0.950 . S
C1573 C1571 1.387 . S
C1573 C1575 1.390 . S
C1573 H1577 0.950 . S
H1574 C1570 0.950 . S
C1575 C1573 1.390 . S
C1575 C1576 1.387 . S
C1575 H1578 0.950 . S
C1576 C1575 1.387 . S
C1576 C1579 1.387 . S
H1577 C1573 0.950 . S
H1578 C1575 0.950 . S
C1579 C1570 1.390 . S
C1579 H1572 0.950 . S
C1579 C1576 1.387 . S
C1580 C1581 1.387 . S
C1580 H1584 0.950 . S
C1580 C1589 1.390 . S
C1581 C1580 1.387 . S
C1581 C1583 1.387 . S
H1582 C1589 0.950 . S
C1583 C1581 1.387 . S
C1583 C1585 1.390 . S
C1583 H1587 0.950 . S
H1584 C1580 0.950 . S
C1585 C1583 1.390 . S
C1585 C1586 1.387 . S
C1585 H1588 0.950 . S
C1586 C1585 1.387 . S
C1586 C1589 1.387 . S
H1587 C1583 0.950 . S
H1588 C1585 0.950 . S
C1589 C1580 1.390 . S
C1589 H1582 0.950 . S
C1589 C1586 1.387 . S
C1590 C1591 1.370 1_545 S
C1590 H1594 0.950 . S
C1590 C1599 1.390 1_554 S
C1591 C1590 1.370 1_565 S
C1591 C1593 1.405 . S
H1592 C1599 0.950 . S
C1593 C1591 1.405 . S
C1593 C1595 1.390 1_554 S
C1593 H1597 0.950 . S
H1594 C1590 0.950 . S
C1595 C1593 1.390 1_556 S
C1595 C1596 1.380 1_565 S
C1595 H1598 0.950 . S
C1596 C1595 1.380 1_545 S
C1596 C1599 1.395 . S
H1597 C1593 0.950 . S
H1598 C1595 0.950 . S
C1599 C1590 1.390 1_556 S
C1599 H1592 0.950 . S
C1599 C1596 1.395 . S
C641 C16 1.652 . S
C646 C516 1.652 . S
C651 C496 1.639 . S
C656 C36 1.634 . S
C661 C556 1.643 . S
C666 C56 1.638 . S
C671 C76 1.652 . S
C676 C536 1.652 . S
C681 C86 1.656 . S
C686 C586 1.656 . S
C691 C106 1.639 . S
C696 C566 1.634 . S
C701 C126 1.643 . S
C706 C626 1.638 . S
C711 C606 1.652 . S
C716 C146 1.652 . S
C721 C176 1.643 . S
C726 C356 1.638 . S
C731 C196 1.656 . S
C736 C336 1.656 . S
C741 C216 1.656 . S
C746 C396 1.656 . S
C751 C376 1.643 . S
C756 C236 1.638 . S
C761 C246 1.639 . S
C766 C426 1.634 . S
C771 C266 1.656 . S
C776 C406 1.656 . S
C781 C466 1.656 . S
C786 C286 1.656 . S
C791 C306 1.639 . S
C796 C446 1.634 . S
C801 C1 1.496 . S
C806 C61 1.496 . S
C811 C21 1.498 . S
C816 C41 1.498 . S
C821 C149 1.497 . S
C826 C89 1.497 . S
C831 C129 1.498 . S
C836 C109 1.498 . S
C841 C161 1.494 1_545 S
C846 C221 1.494 1_545 S
C851 C181 1.493 . S
C856 C201 1.493 . S
C861 C249 1.493 1_565 S
C866 C309 1.493 1_565 S
C871 C289 1.493 . S
C876 C269 1.493 . S
C881 C321 1.496 . S
C886 C381 1.496 . S
C891 C341 1.498 . S
C896 C361 1.498 . S
C901 C469 1.496 . S
C906 C409 1.496 . S
C911 C429 1.499 . S
C916 C449 1.499 . S
C921 C541 1.494 1_545 S
C926 C481 1.494 1_545 S
C931 C501 1.494 . S
C936 C521 1.494 . S
C941 C629 1.493 1_565 S
C946 C569 1.493 1_565 S
C951 C609 1.493 . S
C956 C589 1.493 . S
C961 C26 1.590 . S
C966 C6 1.590 . S
C971 C46 1.590 . S
C976 C66 1.590 . S
C981 C116 1.585 . S
C986 C96 1.585 . S
C991 C156 1.590 . S
C996 C136 1.590 . S
C1001 C166 1.603 . S
C1006 C186 1.609 . S
C1011 C206 1.598 . S
C1016 C226 1.603 . S
C1021 C276 1.598 . S
C1026 C256 1.603 . S
C1031 C296 1.603 . S
C1036 C316 1.608 . S
C1041 C326 1.585 . S
C1046 C346 1.585 . S
C1051 C386 1.590 . S
C1056 C366 1.590 . S
C1061 C416 1.590 . S
C1066 C436 1.590 . S
C1071 C456 1.590 . S
C1076 C476 1.590 . S
C1081 C486 1.598 . S
C1086 C506 1.604 . S
C1091 C526 1.603 . S
C1096 C546 1.608 . S
C1101 C596 1.598 . S
C1106 C576 1.603 . S
C1111 C616 1.603 . S
C1116 C636 1.608 . S
C1121 C8 1.848 . S
C1126 C19 1.848 . S
C1131 C28 1.848 . S
C1136 C39 1.848 . S
C1141 C48 1.848 . S
C1146 C59 1.848 . S
C1151 C79 1.848 . S
C1156 C68 1.848 . S
C1161 C88 1.852 . S
C1166 C99 1.852 . S
C1171 C119 1.848 . S
C1176 C108 1.848 . S
C1181 C128 1.852 . S
C1186 C139 1.852 . S
C1191 C148 1.848 . S
C1196 C159 1.848 . S
C1201 C179 1.852 . S
C1206 C168 1.852 . S
C1211 C188 1.849 . S
C1216 C199 1.849 . S
C1221 C208 1.850 . S
C1226 C219 1.850 . S
C1231 C239 1.848 . S
C1236 C228 1.848 . S
C1241 C248 1.848 . S
C1246 C259 1.848 . S
C1251 C279 1.849 . S
C1256 C268 1.849 . S
C1261 C299 1.849 . S
C1266 C288 1.849 . S
C1271 C308 1.852 . S
C1276 C319 1.852 . S
C1281 C328 1.851 . S
C1286 C339 1.851 . S
C1291 C359 1.852 . S
C1296 C348 1.852 1_455 S
C1301 C379 1.848 . S
C1306 C368 1.848 . S
C1311 C388 1.849 1_455 S
C1316 C399 1.849 . S
C1321 C419 1.852 . S
C1326 C408 1.852 . S
C1331 C439 1.848 1_655 S
C1336 C428 1.848 . S
C1341 C448 1.852 . S
C1346 C459 1.852 . S
C1351 C479 1.850 1_655 S
C1356 C468 1.850 . S
C1361 C499 1.851 . S
C1366 C488 1.851 . S
C1371 C508 1.853 1_455 S
C1376 C519 1.853 . S
C1381 C539 1.849 . S
C1386 C528 1.849 . S
C1391 C559 1.848 . S
C1396 C548 1.848 1_455 S
C1401 C579 1.852 . S
C1406 C568 1.852 . S
C1411 C599 1.853 1_655 S
C1416 C588 1.853 . S
C1421 C608 1.849 . S
C1426 C619 1.849 . S
C1431 C628 1.852 . S
C1436 C639 1.852 1_655 S
C1441 C9 1.527 . S
C1446 C81 1.527 . S
C1451 C581 1.524 . S
C1456 C29 1.524 . S
C1461 C281 1.527 . S
C1466 C49 1.527 . S
C1471 C69 1.524 . S
C1476 C461 1.524 . S
C1481 C101 1.524 . S
C1486 C509 1.524 . S
C1491 C121 1.528 . S
C1496 C209 1.528 . S
C1501 C141 1.524 . S
C1506 C389 1.524 . S
C1511 C169 1.521 1_565 S
C1516 C241 1.521 1_545 S
C1521 C421 1.527 . S
C1526 C189 1.527 . S
C1531 C621 1.524 1_545 S
C1536 C229 1.524 1_565 S
C1541 C261 1.527 . S
C1546 C349 1.527 . S
C1551 C549 1.521 1_565 S
C1556 C301 1.521 1_545 S
C1561 C329 1.524 . S
C1566 C401 1.524 . S
C1571 C601 1.527 . S
C1576 C369 1.528 . S
C1581 C441 1.524 . S
C1586 C529 1.524 . S
C1591 C489 1.524 1_565 S
C1596 C561 1.524 1_545 S
