# Generated by pormake.
# Topology ecc, (8)-cn, num edge types: 1
# Building blocks:
#     Node 0, Type 0, BuildingBlock: EBIMEJ_clean_sbu_0, # of connection points: 8
#     Node 1, Type 0, BuildingBlock: EBIMEJ_clean_sbu_0, # of connection points: 8
#     Node 2, Type 0, BuildingBlock: EBIMEJ_clean_sbu_0, # of connection points: 8
#     Node 3, Type 0, BuildingBlock: EBIMEJ_clean_sbu_0, # of connection points: 8
#     Node 4, Type 0, BuildingBlock: EBIMEJ_clean_sbu_0, # of connection points: 8
#     Node 5, Type 0, BuildingBlock: EBIMEJ_clean_sbu_0, # of connection points: 8
#     Node 6, Type 0, BuildingBlock: EBIMEJ_clean_sbu_0, # of connection points: 8
#     Node 7, Type 0, BuildingBlock: EBIMEJ_clean_sbu_0, # of connection points: 8
#     Node 8, Type 0, BuildingBlock: EBIMEJ_clean_sbu_0, # of connection points: 8
#     Node 9, Type 0, BuildingBlock: EBIMEJ_clean_sbu_0, # of connection points: 8
#     Node 10, Type 0, BuildingBlock: EBIMEJ_clean_sbu_0, # of connection points: 8
#     Node 11, Type 0, BuildingBlock: EBIMEJ_clean_sbu_0, # of connection points: 8
#     Node 12, Type 0, BuildingBlock: EBIMEJ_clean_sbu_0, # of connection points: 8
#     Node 13, Type 0, BuildingBlock: EBIMEJ_clean_sbu_0, # of connection points: 8
#     Node 14, Type 0, BuildingBlock: EBIMEJ_clean_sbu_0, # of connection points: 8
#     Node 15, Type 0, BuildingBlock: EBIMEJ_clean_sbu_0, # of connection points: 8
#     Node 16, Type 0, BuildingBlock: EBIMEJ_clean_sbu_0, # of connection points: 8
#     Node 17, Type 0, BuildingBlock: EBIMEJ_clean_sbu_0, # of connection points: 8
#     Edge 18, Type (0, 0), BuildingBlock: CIFDUS_clean_linker_0, # of connection points: 2
#     Edge 19, Type (0, 0), BuildingBlock: CIFDUS_clean_linker_0, # of connection points: 2
#     Edge 20, Type (0, 0), BuildingBlock: CIFDUS_clean_linker_0, # of connection points: 2
#     Edge 21, Type (0, 0), BuildingBlock: CIFDUS_clean_linker_0, # of connection points: 2
#     Edge 22, Type (0, 0), BuildingBlock: CIFDUS_clean_linker_0, # of connection points: 2
#     Edge 23, Type (0, 0), BuildingBlock: CIFDUS_clean_linker_0, # of connection points: 2
#     Edge 24, Type (0, 0), BuildingBlock: CIFDUS_clean_linker_0, # of connection points: 2
#     Edge 25, Type (0, 0), BuildingBlock: CIFDUS_clean_linker_0, # of connection points: 2
#     Edge 26, Type (0, 0), BuildingBlock: CIFDUS_clean_linker_0, # of connection points: 2
#     Edge 27, Type (0, 0), BuildingBlock: CIFDUS_clean_linker_0, # of connection points: 2
#     Edge 28, Type (0, 0), BuildingBlock: CIFDUS_clean_linker_0, # of connection points: 2
#     Edge 29, Type (0, 0), BuildingBlock: CIFDUS_clean_linker_0, # of connection points: 2
#     Edge 30, Type (0, 0), BuildingBlock: CIFDUS_clean_linker_0, # of connection points: 2
#     Edge 31, Type (0, 0), BuildingBlock: CIFDUS_clean_linker_0, # of connection points: 2
#     Edge 32, Type (0, 0), BuildingBlock: CIFDUS_clean_linker_0, # of connection points: 2
#     Edge 33, Type (0, 0), BuildingBlock: CIFDUS_clean_linker_0, # of connection points: 2
#     Edge 34, Type (0, 0), BuildingBlock: CIFDUS_clean_linker_0, # of connection points: 2
#     Edge 35, Type (0, 0), BuildingBlock: CIFDUS_clean_linker_0, # of connection points: 2
#     Edge 36, Type (0, 0), BuildingBlock: CIFDUS_clean_linker_0, # of connection points: 2
#     Edge 37, Type (0, 0), BuildingBlock: CIFDUS_clean_linker_0, # of connection points: 2
#     Edge 38, Type (0, 0), BuildingBlock: CIFDUS_clean_linker_0, # of connection points: 2
#     Edge 39, Type (0, 0), BuildingBlock: CIFDUS_clean_linker_0, # of connection points: 2
#     Edge 40, Type (0, 0), BuildingBlock: CIFDUS_clean_linker_0, # of connection points: 2
#     Edge 41, Type (0, 0), BuildingBlock: CIFDUS_clean_linker_0, # of connection points: 2
#     Edge 42, Type (0, 0), BuildingBlock: CIFDUS_clean_linker_0, # of connection points: 2
#     Edge 43, Type (0, 0), BuildingBlock: CIFDUS_clean_linker_0, # of connection points: 2
#     Edge 44, Type (0, 0), BuildingBlock: CIFDUS_clean_linker_0, # of connection points: 2
#     Edge 45, Type (0, 0), BuildingBlock: CIFDUS_clean_linker_0, # of connection points: 2
#     Edge 46, Type (0, 0), BuildingBlock: CIFDUS_clean_linker_0, # of connection points: 2
#     Edge 47, Type (0, 0), BuildingBlock: CIFDUS_clean_linker_0, # of connection points: 2
#     Edge 48, Type (0, 0), BuildingBlock: CIFDUS_clean_linker_0, # of connection points: 2
#     Edge 49, Type (0, 0), BuildingBlock: CIFDUS_clean_linker_0, # of connection points: 2
#     Edge 50, Type (0, 0), BuildingBlock: CIFDUS_clean_linker_0, # of connection points: 2
#     Edge 51, Type (0, 0), BuildingBlock: CIFDUS_clean_linker_0, # of connection points: 2
#     Edge 52, Type (0, 0), BuildingBlock: CIFDUS_clean_linker_0, # of connection points: 2
#     Edge 53, Type (0, 0), BuildingBlock: CIFDUS_clean_linker_0, # of connection points: 2
#     Edge 54, Type (0, 0), BuildingBlock: CIFDUS_clean_linker_0, # of connection points: 2
#     Edge 55, Type (0, 0), BuildingBlock: CIFDUS_clean_linker_0, # of connection points: 2
#     Edge 56, Type (0, 0), BuildingBlock: CIFDUS_clean_linker_0, # of connection points: 2
#     Edge 57, Type (0, 0), BuildingBlock: CIFDUS_clean_linker_0, # of connection points: 2
#     Edge 58, Type (0, 0), BuildingBlock: CIFDUS_clean_linker_0, # of connection points: 2
#     Edge 59, Type (0, 0), BuildingBlock: CIFDUS_clean_linker_0, # of connection points: 2
#     Edge 60, Type (0, 0), BuildingBlock: CIFDUS_clean_linker_0, # of connection points: 2
#     Edge 61, Type (0, 0), BuildingBlock: CIFDUS_clean_linker_0, # of connection points: 2
#     Edge 62, Type (0, 0), BuildingBlock: CIFDUS_clean_linker_0, # of connection points: 2
#     Edge 63, Type (0, 0), BuildingBlock: CIFDUS_clean_linker_0, # of connection points: 2
#     Edge 64, Type (0, 0), BuildingBlock: CIFDUS_clean_linker_0, # of connection points: 2
#     Edge 65, Type (0, 0), BuildingBlock: CIFDUS_clean_linker_0, # of connection points: 2
#     Edge 66, Type (0, 0), BuildingBlock: CIFDUS_clean_linker_0, # of connection points: 2
#     Edge 67, Type (0, 0), BuildingBlock: CIFDUS_clean_linker_0, # of connection points: 2
#     Edge 68, Type (0, 0), BuildingBlock: CIFDUS_clean_linker_0, # of connection points: 2
#     Edge 69, Type (0, 0), BuildingBlock: CIFDUS_clean_linker_0, # of connection points: 2
#     Edge 70, Type (0, 0), BuildingBlock: CIFDUS_clean_linker_0, # of connection points: 2
#     Edge 71, Type (0, 0), BuildingBlock: CIFDUS_clean_linker_0, # of connection points: 2
#     Edge 72, Type (0, 0), BuildingBlock: CIFDUS_clean_linker_0, # of connection points: 2
#     Edge 73, Type (0, 0), BuildingBlock: CIFDUS_clean_linker_0, # of connection points: 2
#     Edge 74, Type (0, 0), BuildingBlock: CIFDUS_clean_linker_0, # of connection points: 2
#     Edge 75, Type (0, 0), BuildingBlock: CIFDUS_clean_linker_0, # of connection points: 2
#     Edge 76, Type (0, 0), BuildingBlock: CIFDUS_clean_linker_0, # of connection points: 2
#     Edge 77, Type (0, 0), BuildingBlock: CIFDUS_clean_linker_0, # of connection points: 2
#     Edge 78, Type (0, 0), BuildingBlock: CIFDUS_clean_linker_0, # of connection points: 2
#     Edge 79, Type (0, 0), BuildingBlock: CIFDUS_clean_linker_0, # of connection points: 2
#     Edge 80, Type (0, 0), BuildingBlock: CIFDUS_clean_linker_0, # of connection points: 2
#     Edge 81, Type (0, 0), BuildingBlock: CIFDUS_clean_linker_0, # of connection points: 2
#     Edge 82, Type (0, 0), BuildingBlock: CIFDUS_clean_linker_0, # of connection points: 2
#     Edge 83, Type (0, 0), BuildingBlock: CIFDUS_clean_linker_0, # of connection points: 2
#     Edge 84, Type (0, 0), BuildingBlock: CIFDUS_clean_linker_0, # of connection points: 2
#     Edge 85, Type (0, 0), BuildingBlock: CIFDUS_clean_linker_0, # of connection points: 2
#     Edge 86, Type (0, 0), BuildingBlock: CIFDUS_clean_linker_0, # of connection points: 2
#     Edge 87, Type (0, 0), BuildingBlock: CIFDUS_clean_linker_0, # of connection points: 2
#     Edge 88, Type (0, 0), BuildingBlock: CIFDUS_clean_linker_0, # of connection points: 2
#     Edge 89, Type (0, 0), BuildingBlock: CIFDUS_clean_linker_0, # of connection points: 2
# Relax obj value: 0.330
# Max RMSD: 0.288
# Mean RMSD: 0.288
data_MOF--net-ecc--node1-EBIMEJ_clean_sbu_0--edge1-CIFDUS_clean_linker_0
_symmetry_space_group_name_H-M    P1
_symmetry_Int_Tables_number       1
_symmetry_cell_setting            triclinic
loop_
_symmetry_equiv_pos_as_xyz
'x, y, z'
_cell_length_a     53.670654
_cell_length_b     53.678654
_cell_length_c     23.196575
_cell_angle_alpha  89.889641
_cell_angle_beta   90.229499
_cell_angle_gamma 119.99571
loop_
_atom_site_label
_atom_site_type_symbol
_atom_site_fract_x
_atom_site_fract_y
_atom_site_fract_z
_atom_type_partial_charge
Co0 Co 0.14599 1.01128 0.70874 0.0
Co1 Co 0.18662 0.03632 0.81957 0.0
Co2 Co 0.20408 1.01046 0.72429 0.0
H3 H 0.17463 1.00941 0.73218 0.0
O4 O 0.1679 1.00397 0.76634 0.0
H5 H 0.2155 0.03467 0.81985 0.0
O6 O 0.22342 0.03965 0.78627 0.0
Co7 Co 0.24283 0.03273 0.85325 0.0
O8 O 0.24127 0.06195 0.91114 0.0
O9 O 0.2063 0.06842 0.87432 0.0
O10 O 0.2574 0.01344 0.79283 0.0
O11 O 0.2409 0.01327 0.70251 0.0
O12 O 0.10553 1.00458 0.72407 0.0
O13 O 0.11315 0.97013 0.72322 0.0
O14 O 0.21209 1.0001 0.90151 0.0
O15 O 0.17461 1.0063 0.88288 0.0
C16 C 0.15989 0.97545 0.63083 0.0
C17 C 0.14481 0.05105 0.79319 0.0
C18 C 0.29267 0.05411 0.89548 0.0
C19 C 0.19809 0.05631 0.65202 0.0
C20 C 0.22623 0.0746 0.91107 0.0
C21 C 0.25731 1.00952 0.73755 0.0
C22 C 0.09505 0.97805 0.73106 0.0
C23 C 0.18589 0.99334 0.90929 0.0
O24 O 0.1445 0.98671 0.64232 0.0
O25 O 0.1829 0.98128 0.65948 0.0
O26 O 0.15096 0.03832 0.83263 0.0
O27 O 0.14804 0.04736 0.74006 0.0
O28 O 0.26987 0.03919 0.9233 0.0
O29 O 0.2871 0.05646 0.84373 0.0
O30 O 0.17184 0.04657 0.66458 0.0
O31 O 0.21242 0.04435 0.66995 0.0
Co32 Co 0.04173 0.1639 0.70978 0.0
Co33 Co 1.01175 0.17812 0.81628 0.0
Co34 Co 0.04666 0.22411 0.72971 0.0
H35 H 0.04432 0.19413 0.73642 0.0
O36 O 0.04678 0.19056 0.77147 0.0
H37 H 1.01691 0.20993 0.81755 0.0
O38 O 1.0143 0.21478 0.78348 0.0
Co39 Co 0.02198 0.2396 0.85357 0.0
O40 O 0.99288 0.20877 0.91215 0.0
O41 O 0.97753 0.16755 0.8639 0.0
O42 O 0.04384 0.2749 0.79722 0.0
O43 O 0.04846 0.26055 0.70776 0.0
O44 O 0.04897 0.13035 0.72363 0.0
O45 O 0.08297 0.17236 0.72809 0.0
O46 O 0.05621 0.23941 0.89276 0.0
O47 O 0.03772 0.19199 0.88632 0.0
C48 C 0.08232 0.21466 0.63994 0.0
C49 C 1.00003 0.12026 0.79163 0.0
C50 C 1.00003 0.26739 0.89669 0.0
C51 C 1.00236 0.177 0.64598 0.0
C52 C 0.97579 0.1814 0.90676 0.0
C53 C 0.05031 0.27984 0.74295 0.0
C54 C 0.07524 0.14626 0.7338 0.0
C55 C 0.05634 0.21648 0.9069 0.0
O56 O 0.06604 0.18744 0.64271 0.0
O57 O 0.07964 0.23197 0.67464 0.0
O58 O 1.00598 0.13895 0.83123 0.0
O59 O 1.00784 0.12718 0.73932 0.0
O60 O 1.01439 0.25875 0.92463 0.0
O61 O 0.99851 0.26053 0.84449 0.0
O62 O 1.00798 0.1577 0.66198 0.0
O63 O 1.01655 0.20303 0.66533 0.0
Co64 Co 0.89087 0.90382 0.70872 0.0
Co65 Co 0.87331 0.86308 0.81849 0.0
Co66 Co 0.82885 0.8502 0.72688 0.0
H67 H 0.85911 0.87778 0.7335 0.0
O68 O 0.8618 0.88474 0.76781 0.0
H69 H 0.84162 0.83663 0.81955 0.0
O70 O 0.83715 0.82839 0.78615 0.0
Co71 Co 0.8118 0.81285 0.8556 0.0
O72 O 0.84203 0.81772 0.91941 0.0
O73 O 0.88337 0.84021 0.87066 0.0
O74 O 0.77732 0.79786 0.79638 0.0
O75 O 0.79252 0.81536 0.70626 0.0
O76 O 0.92868 0.94162 0.69963 0.0
O77 O 0.89661 0.93929 0.75364 0.0
O78 O 0.81182 0.84694 0.89495 0.0
O79 O 0.85893 0.87678 0.88499 0.0
C80 C 0.84058 0.89524 0.63502 0.0
C81 C 0.93056 0.90262 0.7923 0.0
C82 C 0.78445 0.76294 0.89716 0.0
C83 C 0.87539 0.85139 0.64353 0.0
C84 C 0.86914 0.82646 0.91489 0.0
C85 C 0.77288 0.7985 0.74146 0.0
C86 C 0.9216 0.95482 0.73456 0.0
C87 C 0.83463 0.87052 0.90695 0.0
O88 O 0.86764 0.90768 0.64416 0.0
O89 O 0.8222 0.8736 0.66517 0.0
O90 O 0.91218 0.89666 0.83218 0.0
O91 O 0.92299 0.8982 0.73952 0.0
O92 O 0.79133 0.78554 0.92508 0.0
O93 O 0.7927 0.76876 0.84578 0.0
O94 O 0.89451 0.87695 0.65547 0.0
O95 O 0.85015 0.83919 0.66674 0.0
Co96 Co 0.80964 0.02546 0.18318 0.0
Co97 Co 0.84724 0.04761 0.31196 0.0
Co98 Co 0.86147 0.01608 0.22292 0.0
H99 H 0.83419 0.02039 0.22007 0.0
O100 O 0.82602 0.01672 0.25347 0.0
H101 H 0.87544 0.04644 0.30572 0.0
O102 O 0.88227 0.05024 0.27132 0.0
Co103 Co 0.90246 0.04309 0.33296 0.0
O104 O 0.90517 0.06918 0.39737 0.0
O105 O 0.87009 0.07864 0.37332 0.0
O106 O 0.89969 1.00633 0.30518 0.0
O107 O 0.89615 1.01203 0.21131 0.0
O108 O 0.78332 0.03429 0.13058 0.0
O109 O 0.77001 0.99248 0.15484 0.0
O110 O 0.8749 1.00803 0.3761 0.0
O111 O 0.83772 0.01588 0.37288 0.0
C112 C 0.82272 0.97943 0.13128 0.0
C113 C 0.79427 0.0493 0.29701 0.0
C114 C 0.95481 0.07476 0.32476 0.0
C115 C 0.86748 0.06067 0.13223 0.0
C116 C 0.89192 0.08302 0.40467 0.0
C117 C 0.90526 1.0033 0.25329 0.0
C118 C 0.76365 1.00846 0.12635 0.0
C119 C 0.84978 1.00175 0.39143 0.0
O120 O 0.81106 0.99536 0.12686 0.0
O121 O 0.83967 0.98244 0.17267 0.0
O122 O 0.81174 0.04749 0.3323 0.0
O123 O 0.79349 0.04388 0.24225 0.0
O124 O 0.94201 0.0637 0.37114 0.0
O125 O 0.93783 0.06798 0.28282 0.0
O126 O 0.84397 0.05989 0.14482 0.0
O127 O 0.87402 0.0428 0.15425 0.0
Co128 Co 0.02919 0.8144 0.18493 0.0
Co129 Co 1.00637 0.83141 0.31 0.0
Co130 Co 0.03615 0.87569 0.2172 0.0
H131 H 0.03288 0.84444 0.21774 0.0
O132 O 0.03701 0.84098 0.25181 0.0
H133 H 1.00667 0.86024 0.3015 0.0
O134 O 1.00248 0.86255 0.26682 0.0
Co135 Co 1.00923 0.89075 0.32566 0.0
O136 O 0.98423 0.86795 0.39217 0.0
O137 O 0.97563 0.82341 0.37101 0.0
O138 O 0.04442 0.92575 0.29578 0.0
O139 O 0.03978 0.91421 0.20248 0.0
O140 O 0.03587 0.79461 0.11409 0.0
O141 O 0.05355 0.79442 0.19325 0.0
O142 O 0.04161 0.8981 0.37873 0.0
O143 O 0.03811 0.85496 0.3694 0.0
C144 C 0.07069 0.87217 0.12365 0.0
C145 C 1.00738 0.77764 0.30223 0.0
C146 C 0.97968 0.91134 0.29303 0.0
C147 C 0.99149 0.83393 0.1293 0.0
C148 C 0.97102 0.84092 0.40118 0.0
C149 C 0.04834 0.93301 0.24282 0.0
C150 C 0.0512 0.78694 0.14127 0.0
C151 C 0.04987 0.88036 0.39146 0.0
O152 O 0.05416 0.84461 0.12122 0.0
O153 O 0.06931 0.88693 0.16515 0.0
O154 O 1.00813 0.79739 0.33426 0.0
O155 O 1.0121 0.78057 0.24698 0.0
O156 O 0.99695 0.92082 0.33479 0.0
O157 O 0.97853 0.88955 0.27062 0.0
O158 O 0.99576 0.81305 0.14046 0.0
O159 O 1.00704 0.85892 0.15163 0.0
Co160 Co 0.23792 0.2429 0.18286 0.0
Co161 Co 0.22278 0.20542 0.31063 0.0
Co162 Co 0.17681 0.19168 0.22229 0.0
H163 H 0.20846 0.21845 0.2192 0.0
O164 O 0.21318 0.22665 0.25259 0.0
H165 H 0.19333 0.17695 0.30468 0.0
O166 O 0.19012 0.17039 0.27004 0.0
Co167 Co 0.16311 0.14952 0.3319 0.0
O168 O 0.18774 0.14517 0.39158 0.0
O169 O 0.23144 0.18264 0.37084 0.0
O170 O 0.13415 0.16062 0.30673 0.0
O171 O 0.1374 0.158 0.21275 0.0
O172 O 0.25711 0.26922 0.11156 0.0
O173 O 0.25941 0.28711 0.1917 0.0
O174 O 0.16035 0.17402 0.39273 0.0
O175 O 0.19986 0.21532 0.36898 0.0
C176 C 0.17911 0.22982 0.12955 0.0
C177 C 0.27784 0.25782 0.2958 0.0
C178 C 0.13051 0.0984 0.30741 0.0
C179 C 0.21438 0.18492 0.13119 0.0
C180 C 0.21479 0.15967 0.39971 0.0
C181 C 0.122 0.15259 0.25783 0.0
C182 C 0.26606 0.29222 0.13942 0.0
C183 C 0.17662 0.20093 0.39871 0.0
O184 O 0.20659 0.24068 0.12448 0.0
O185 O 0.16537 0.21394 0.1722 0.0
O186 O 0.25838 0.24099 0.33133 0.0
O187 O 0.27307 0.2582 0.24091 0.0
O188 O 0.12647 0.11134 0.34811 0.0
O189 O 0.15362 0.11425 0.28143 0.0
O190 O 0.23725 0.20849 0.14317 0.0
O191 O 0.19014 0.17849 0.1537 0.0
Co192 Co 0.81339 0.34598 0.04536 0.0
Co193 Co 0.85721 0.37337 0.15285 0.0
Co194 Co 0.87066 0.34313 0.06067 0.0
H195 H 0.84194 0.34371 0.06881 0.0
O196 O 0.83579 0.3397 0.10363 0.0
H197 H 0.88349 0.3678 0.15488 0.0
O198 O 0.8921 0.37206 0.12196 0.0
Co199 Co 0.90636 0.36058 0.19163 0.0
O200 O 0.90134 0.38632 0.25389 0.0
O201 O 0.88006 0.40638 0.20437 0.0
O202 O 0.92239 0.34335 0.12933 0.0
O203 O 0.90622 0.34339 0.03863 0.0
O204 O 0.77389 0.34095 0.06607 0.0
O205 O 0.77962 0.30546 0.06257 0.0
O206 O 0.87102 0.32561 0.22542 0.0
O207 O 0.84345 0.34568 0.22013 0.0
C208 C 0.82596 0.30961 0.9668 0.0
C209 C 0.81679 0.3902 0.12422 0.0
C210 C 0.95077 0.37784 0.2537 0.0
C211 C 0.86569 0.38848 0.98401 0.0
C212 C 0.89322 0.40515 0.24905 0.0
C213 C 0.92252 0.33957 0.07395 0.0
C214 C 0.76247 0.31433 0.07307 0.0
C215 C 0.84831 0.32612 0.23938 0.0
O216 O 0.81143 0.32189 0.97761 0.0
O217 O 0.84821 0.31415 0.99659 0.0
O218 O 0.82369 0.37893 0.16519 0.0
O219 O 0.81777 0.38385 0.07168 0.0
O220 O 0.92599 0.3701 0.27212 0.0
O221 O 0.95037 0.37534 0.19974 0.0
O222 O 0.83929 0.37885 0.99519 0.0
O223 O 0.88011 0.37724 1.00557 0.0
Co224 Co 0.71147 0.49969 0.04014 0.0
Co225 Co 0.68388 0.51349 0.15004 0.0
Co226 Co 0.71338 0.5587 0.05837 0.0
H227 H 0.71328 0.52976 0.06548 0.0
O228 O 0.71749 0.52735 0.10008 0.0
H229 H 0.68584 0.54415 0.15001 0.0
O230 O 0.68202 0.54781 0.11586 0.0
Co231 Co 0.68752 0.57313 0.18393 0.0
O232 O 0.65872 0.54223 0.24193 0.0
O233 O 0.65072 0.5009 0.20224 0.0
O234 O 0.70714 0.60785 0.12564 0.0
O235 O 0.71193 0.59344 0.03652 0.0
O236 O 0.71994 0.46693 0.05165 0.0
O237 O 0.75313 0.50951 0.05684 0.0
O238 O 0.7202 0.57515 0.23212 0.0
O239 O 0.71275 0.53092 0.21541 0.0
C240 C 0.7486 0.55027 0.96548 0.0
C241 C 0.67371 0.45664 0.12638 0.0
C242 C 0.66546 0.6006 0.22726 0.0
C243 C 0.6692 0.50954 0.97874 0.0
C244 C 0.64531 0.51455 0.24044 0.0
C245 C 0.71323 0.61262 0.07123 0.0
C246 C 0.74613 0.48354 0.06144 0.0
C247 C 0.72618 0.55526 0.24107 0.0
O248 O 0.73498 0.52311 0.97274 0.0
O249 O 0.7446 0.5676 0.99772 0.0
O250 O 0.68166 0.47585 0.16562 0.0
O251 O 0.67882 0.46308 0.07307 0.0
O252 O 0.6804 0.59256 0.2548 0.0
O253 O 0.6634 0.59336 0.17517 0.0
O254 O 0.6767 0.49146 0.99373 0.0
O255 O 0.68211 0.53558 0.99781 0.0
Co256 Co 0.55812 0.2402 0.04291 0.0
Co257 Co 0.54076 0.20151 0.1549 0.0
Co258 Co 0.49685 0.18489 0.06016 0.0
H259 H 0.52644 0.21349 0.06678 0.0
O260 O 0.52813 0.22081 0.10051 0.0
H261 H 0.51009 0.17276 0.15467 0.0
O262 O 0.5068 0.16488 0.12094 0.0
Co263 Co 0.48081 0.14577 0.18851 0.0
O264 O 0.51176 0.14539 0.24369 0.0
O265 O 0.55296 0.1817 0.21023 0.0
O266 O 0.44668 0.13021 0.12841 0.0
O267 O 0.46177 0.14881 0.03906 0.0
O268 O 0.59595 0.27767 0.03015 0.0
O269 O 0.56529 0.2766 0.08647 0.0
O270 O 0.47855 0.17675 0.234 0.0
O271 O 0.52274 0.21369 0.21757 0.0
C272 C 0.50717 0.22902 0.96764 0.0
C273 C 0.59747 0.24222 0.13109 0.0
C274 C 0.45189 0.10004 0.2448 0.0
C275 C 0.5447 0.18793 0.97874 0.0
C276 C 0.53939 0.16083 0.2449 0.0
C277 C 0.44227 0.13126 0.07365 0.0
C278 C 0.58989 0.29163 0.06521 0.0
C279 C 0.49826 0.2027 0.24259 0.0
O280 O 0.53412 0.24272 0.97828 0.0
O281 O 0.48913 0.20681 0.99694 0.0
O282 O 0.5784 0.23697 0.16925 0.0
O283 O 0.59048 0.23626 0.07828 0.0
O284 O 0.44768 0.12107 0.2458 0.0
O285 O 0.47213 0.10487 0.21117 0.0
O286 O 0.56306 0.21384 0.99023 0.0
O287 O 0.51948 0.17499 1.00172 0.0
Co288 Co 0.47787 0.36038 0.51518 0.0
Co289 Co 0.51634 0.38128 0.6428 0.0
Co290 Co 0.52701 0.34742 0.55344 0.0
H291 H 0.50136 0.35391 0.55153 0.0
O292 O 0.49345 0.35084 0.58511 0.0
H293 H 0.54389 0.37885 0.6352 0.0
O294 O 0.55 0.3818 0.60029 0.0
Co295 Co 0.57121 0.37513 0.66025 0.0
O296 O 0.57313 0.39885 0.72875 0.0
O297 O 0.54043 0.41159 0.70392 0.0
O298 O 0.5648 0.33638 0.63613 0.0
O299 O 0.55932 0.33976 0.54184 0.0
O300 O 0.45087 0.35298 0.44438 0.0
O301 O 0.43361 0.33651 0.5243 0.0
O302 O 0.54397 0.34203 0.70879 0.0
O303 O 0.50625 0.34915 0.70288 0.0
C304 C 0.48991 0.31549 0.45818 0.0
C305 C 0.46437 0.38515 0.62972 0.0
C306 C 0.62222 0.40751 0.63437 0.0
C307 C 0.53575 0.39331 0.46354 0.0
C308 C 0.56092 0.4137 0.7367 0.0
C309 C 0.5657 0.32884 0.58444 0.0
C310 C 0.42805 0.33815 0.47223 0.0
C311 C 0.5186 0.33555 0.72298 0.0
O312 O 0.4825 0.33482 0.45248 0.0
O313 O 0.50268 0.31406 0.50343 0.0
O314 O 0.48183 0.38301 0.66461 0.0
O315 O 0.46313 0.37962 0.57497 0.0
O316 O 0.61028 0.38063 0.63438 0.0
O317 O 0.60551 0.41607 0.65055 0.0
O318 O 0.51288 0.39378 0.4764 0.0
O319 O 0.54101 0.37438 0.48493 0.0
Co320 Co 0.69538 0.14745 0.52163 0.0
Co321 Co 0.67361 0.1649 0.64644 0.0
Co322 Co 0.70573 0.20952 0.55623 0.0
H323 H 0.70085 0.17775 0.55575 0.0
O324 O 0.70448 0.17366 0.58964 0.0
H325 H 0.67485 0.19417 0.63798 0.0
O326 O 0.67136 0.19703 0.60314 0.0
Co327 Co 0.67807 0.22475 0.6633 0.0
O328 O 0.65562 0.20271 0.73285 0.0
O329 O 0.64274 0.15755 0.70648 0.0
O330 O 0.71239 0.2605 0.63331 0.0
O331 O 0.71066 0.2484 0.54068 0.0
O332 O 0.71754 0.12531 0.52969 0.0
O333 O 0.70198 0.12822 0.44976 0.0
O334 O 0.71361 0.23294 0.70625 0.0
O335 O 0.70524 0.18773 0.70656 0.0
C336 C 0.74083 0.20547 0.4653 0.0
C337 C 0.67301 0.11042 0.63824 0.0
C338 C 0.6427 0.24046 0.64686 0.0
C339 C 0.66101 0.17026 0.46626 0.0
C340 C 0.64058 0.17561 0.73983 0.0
C341 C 0.71774 0.26731 0.58032 0.0
C342 C 0.71586 0.11888 0.47721 0.0
C343 C 0.71974 0.21414 0.72312 0.0
O344 O 0.72397 0.17796 0.46161 0.0
O345 O 0.73927 0.21992 0.5072 0.0
O346 O 0.67403 0.13019 0.67058 0.0
O347 O 0.67772 0.11343 0.58302 0.0
O348 O 0.65662 0.23715 0.60737 0.0
O349 O 0.64889 0.23496 0.69574 0.0
O350 O 0.66142 0.14745 0.48038 0.0
O351 O 0.67908 0.19475 0.48756 0.0
Co352 Co 0.90537 0.57661 0.51362 0.0
Co353 Co 0.88943 0.53748 0.64134 0.0
Co354 Co 0.84464 0.52334 0.54966 0.0
H355 H 0.87592 0.55113 0.54923 0.0
O356 O 0.88003 0.55901 0.58301 0.0
H357 H 0.85916 0.50978 0.63566 0.0
O358 O 0.8566 0.50259 0.60161 0.0
Co359 Co 0.82755 0.48388 0.66133 0.0
O360 O 0.85191 0.47947 0.72314 0.0
O361 O 0.89707 0.51371 0.7004 0.0
O362 O 0.7954 0.48886 0.62833 0.0
O363 O 0.80623 0.48881 0.53612 0.0
O364 O 0.91463 0.59652 0.43362 0.0
O365 O 0.9345 0.62074 0.50602 0.0
O366 O 0.82365 0.51109 0.71317 0.0
O367 O 0.86851 0.54805 0.70326 0.0
C368 C 0.84752 0.56091 0.45457 0.0
C369 C 0.94442 0.59114 0.62783 0.0
C370 C 0.79567 0.43245 0.63953 0.0
C371 C 0.8862 0.51898 0.46401 0.0
C372 C 0.87911 0.49179 0.73051 0.0
C373 C 0.78772 0.48314 0.57576 0.0
C374 C 0.93199 0.62124 0.45211 0.0
C375 C 0.84317 0.53637 0.72584 0.0
O376 O 0.87496 0.57197 0.45127 0.0
O377 O 0.83324 0.54489 0.49649 0.0
O378 O 0.92555 0.57255 0.66204 0.0
O379 O 0.93948 0.59306 0.57367 0.0
O380 O 0.79008 0.4462 0.67605 0.0
O381 O 0.81979 0.44769 0.61655 0.0
O382 O 0.9073 0.54383 0.47555 0.0
O383 O 0.86105 0.51011 0.48501 0.0
Co384 Co 0.48162 0.68302 0.37323 0.0
Co385 Co 0.522 0.70603 0.48323 0.0
Co386 Co 0.53566 0.67508 0.39248 0.0
H387 H 0.50779 0.6774 0.3984 0.0
O388 O 0.50079 0.67289 0.4326 0.0
H389 H 0.54909 0.7016 0.48467 0.0
O390 O 0.55715 0.70547 0.45117 0.0
Co391 Co 0.5739 0.69659 0.52032 0.0
O392 O 0.57221 0.72529 0.58017 0.0
O393 O 0.5441 0.73896 0.53497 0.0
O394 O 0.58853 0.67646 0.46212 0.0
O395 O 0.57075 0.67412 0.37213 0.0
O396 O 0.44335 0.68144 0.35724 0.0
O397 O 0.44595 0.65507 0.42011 0.0
O398 O 0.54021 0.66226 0.56044 0.0
O399 O 0.50925 0.67821 0.54992 0.0
C400 C 0.49085 0.64134 0.30096 0.0
C401 C 0.48156 0.72284 0.45703 0.0
C402 C 0.62356 0.71855 0.5633 0.0
C403 C 0.53449 0.72072 0.30975 0.0
C404 C 0.56079 0.74147 0.57647 0.0
C405 C 0.58767 0.67128 0.40725 0.0
C406 C 0.43011 0.66285 0.39543 0.0
C407 C 0.51629 0.66077 0.57227 0.0
O408 O 0.47817 0.65575 0.30956 0.0
O409 O 0.51258 0.64485 0.33129 0.0
O410 O 0.48784 0.71045 0.49674 0.0
O411 O 0.4863 0.72024 0.40429 0.0
O412 O 0.60071 0.70385 0.59116 0.0
O413 O 0.61811 0.72031 0.51122 0.0
O414 O 0.50905 0.71457 0.32204 0.0
O415 O 0.54636 0.70714 0.33204 0.0
Co416 Co 0.37314 0.83106 0.3753 0.0
Co417 Co 0.34459 0.84614 0.48301 0.0
Co418 Co 0.3791 0.89111 0.39532 0.0
H419 H 0.37663 0.86131 0.40268 0.0
O420 O 0.37933 0.85781 0.43761 0.0
H421 H 0.35021 0.8782 0.48403 0.0
O422 O 0.34733 0.88268 0.44983 0.0
Co423 Co 0.35575 0.90837 0.51871 0.0
O424 O 0.32665 0.87766 0.57825 0.0
O425 O 0.31071 0.83615 0.5307 0.0
O426 O 0.379 0.94358 0.46145 0.0
O427 O 0.3808 0.92688 0.37258 0.0
O428 O 0.37918 0.79713 0.39533 0.0
O429 O 0.4142 0.83847 0.38881 0.0
O430 O 0.38957 0.90748 0.55848 0.0
O431 O 0.37083 0.85993 0.55278 0.0
C432 C 0.41421 0.88112 0.30487 0.0
C433 C 0.32889 0.79042 0.45099 0.0
C434 C 0.33405 0.93654 0.5608 0.0
C435 C 0.33489 0.84431 0.31001 0.0
C436 C 0.3094 0.85022 0.57353 0.0
C437 C 0.38492 0.94729 0.40669 0.0
C438 C 0.40589 0.81265 0.39992 0.0
C439 C 0.38954 0.88449 0.57304 0.0
O440 O 0.39833 0.85389 0.30877 0.0
O441 O 0.41156 0.89857 0.33918 0.0
O442 O 0.338 0.80658 0.49542 0.0
O443 O 0.33325 0.80155 0.40094 0.0
O444 O 0.34874 0.92836 0.5889 0.0
O445 O 0.3321 0.92906 0.50892 0.0
O446 O 0.34055 0.8249 0.32466 0.0
O447 O 0.34861 0.86996 0.3314 0.0
Co448 Co 0.22316 0.57097 0.37325 0.0
Co449 Co 0.20728 0.52953 0.48246 0.0
Co450 Co 0.16254 0.51625 0.39136 0.0
H451 H 0.19213 0.54425 0.39881 0.0
O452 O 0.19487 0.55097 0.43331 0.0
H453 H 0.17554 0.50236 0.48321 0.0
O454 O 0.17154 0.49454 0.44941 0.0
Co455 Co 0.14536 0.47731 0.51761 0.0
O456 O 0.17611 0.47889 0.57718 0.0
O457 O 0.21804 0.507 0.53285 0.0
O458 O 0.11122 0.46051 0.456 0.0
O459 O 0.12759 0.48107 0.36832 0.0
O460 O 0.24961 0.61055 0.33922 0.0
O461 O 0.2333 0.60658 0.42239 0.0
O462 O 0.14514 0.51139 0.55789 0.0
O463 O 0.19229 0.54179 0.55012 0.0
C464 C 0.17255 0.56161 0.30109 0.0
C465 C 0.26488 0.57377 0.45714 0.0
C466 C 0.1163 0.42866 0.56454 0.0
C467 C 0.21072 0.5185 0.31223 0.0
C468 C 0.20373 0.49025 0.57396 0.0
C469 C 0.10797 0.46222 0.40077 0.0
C470 C 0.24901 0.62349 0.3838 0.0
C471 C 0.16771 0.53503 0.5713 0.0
O472 O 0.19962 0.57472 0.30961 0.0
O473 O 0.15483 0.53947 0.33088 0.0
O474 O 0.24612 0.56376 0.49729 0.0
O475 O 0.25754 0.56974 0.40425 0.0
O476 O 0.116 0.43361 0.51164 0.0
O477 O 0.13276 0.45149 0.59116 0.0
O478 O 0.22989 0.54343 0.32795 0.0
O479 O 0.18465 0.50678 0.33078 0.0
Co480 Co 0.14369 0.69159 0.84769 0.0
Co481 Co 0.18182 0.7139 0.97551 0.0
Co482 Co 0.19535 0.68201 0.88589 0.0
H483 H 0.1684 0.68665 0.88374 0.0
O484 O 0.16036 0.68308 0.91729 0.0
H485 H 0.20986 0.71219 0.96957 0.0
O486 O 0.21665 0.71597 0.93513 0.0
Co487 Co 0.23665 0.70815 0.99635 0.0
O488 O 0.24208 0.73781 0.0554 0.0
O489 O 0.20478 0.74473 0.03655 0.0
O490 O 0.22671 0.66886 0.96823 0.0
O491 O 0.22925 0.67679 0.87482 0.0
O492 O 0.11684 0.68503 0.77721 0.0
O493 O 0.09953 0.66745 0.8566 0.0
O494 O 0.21049 0.67756 0.05051 0.0
O495 O 0.17166 0.68219 0.03666 0.0
C496 C 0.15673 0.64616 0.79292 0.0
C497 C 0.12946 0.7169 0.96055 0.0
C498 C 0.28842 0.72869 0.97844 0.0
C499 C 0.20165 0.72721 0.79645 0.0
C500 C 0.22796 0.75066 0.06463 0.0
C501 C 0.23532 0.66647 0.91872 0.0
C502 C 0.09403 0.66983 0.80486 0.0
C503 C 0.18459 0.6702 0.06139 0.0
O504 O 0.1455 0.66252 0.78859 0.0
O505 O 0.17317 0.64864 0.83492 0.0
O506 O 0.14658 0.71445 0.99576 0.0
O507 O 0.12861 0.71153 0.90572 0.0
O508 O 0.27567 0.71431 0.02235 0.0
O509 O 0.27196 0.73233 0.94541 0.0
O510 O 0.17788 0.726 0.8087 0.0
O511 O 0.20835 0.70936 0.8181 0.0
Co512 Co 0.3616 0.48068 0.8492 0.0
Co513 Co 0.33964 0.49633 0.97659 0.0
Co514 Co 0.37089 0.54169 0.88657 0.0
H515 H 0.36658 0.51028 0.88503 0.0
O516 O 0.37037 0.50592 0.91856 0.0
H517 H 0.34109 0.52593 0.97019 0.0
O518 O 0.33708 0.52884 0.93576 0.0
Co519 Co 0.34515 0.55677 0.99646 0.0
O520 O 0.31819 0.53294 0.05964 0.0
O521 O 0.30899 0.48829 0.0377 0.0
O522 O 0.38233 0.5893 0.96668 0.0
O523 O 0.37521 0.58031 0.87316 0.0
O524 O 0.36877 0.46107 0.77886 0.0
O525 O 0.3859 0.46085 0.8588 0.0
O526 O 0.37881 0.56294 0.04325 0.0
O527 O 0.37147 0.51815 0.03753 0.0
C528 C 0.40661 0.53894 0.79414 0.0
C529 C 0.33659 0.44113 0.96158 0.0
C530 C 0.3203 0.58449 0.9858 0.0
C531 C 0.3258 0.50248 0.797 0.0
C532 C 0.3046 0.50588 0.06805 0.0
C533 C 0.38468 0.59809 0.91498 0.0
C534 C 0.38389 0.45339 0.80691 0.0
C535 C 0.38521 0.54403 0.05756 0.0
O536 O 0.39033 0.5114 0.78993 0.0
O537 O 0.40417 0.55294 0.83587 0.0
O538 O 0.33946 0.4607 0.99702 0.0
O539 O 0.34149 0.44566 0.90672 0.0
O540 O 0.33289 0.58382 0.03103 0.0
O541 O 0.3212 0.56882 0.94679 0.0
O542 O 0.32706 0.47996 0.80939 0.0
O543 O 0.34351 0.52696 0.81891 0.0
Co544 Co 0.57165 0.9098 0.84831 0.0
Co545 Co 0.55532 0.8739 0.97819 0.0
Co546 Co 0.51047 0.85783 0.88654 0.0
H547 H 0.54181 0.8854 0.88414 0.0
O548 O 0.54577 0.89395 0.91716 0.0
H549 H 0.52695 0.84446 0.9705 0.0
O550 O 0.52478 0.83805 0.93582 0.0
Co551 Co 0.49712 0.81564 0.99526 0.0
O552 O 0.52228 0.81129 0.05343 0.0
O553 O 0.56397 0.85279 0.04249 0.0
O554 O 0.46294 0.81828 0.96797 0.0
O555 O 0.47206 0.82276 0.8742 0.0
O556 O 0.58081 0.92916 0.76778 0.0
O557 O 0.60181 0.95346 0.83951 0.0
O558 O 0.4896 0.84057 0.04687 0.0
O559 O 0.53028 0.88247 0.03319 0.0
C560 C 0.51197 0.89655 0.79574 0.0
C561 C 0.60991 0.92479 0.96429 0.0
C562 C 0.46842 0.76339 0.98121 0.0
C563 C 0.54981 0.85201 0.79816 0.0
C564 C 0.54843 0.82809 0.06689 0.0
C565 C 0.45425 0.81333 0.91596 0.0
C566 C 0.59886 0.95378 0.78572 0.0
C567 C 0.50528 0.86728 0.05644 0.0
O568 O 0.53969 0.90882 0.79258 0.0
O569 O 0.49799 0.87888 0.83586 0.0
O570 O 0.58934 0.91029 0.99956 0.0
O571 O 0.60624 0.92386 0.90863 0.0
O572 O 0.46737 0.77628 0.02544 0.0
O573 O 0.48657 0.78012 0.94538 0.0
O574 O 0.57248 0.87541 0.81194 0.0
O575 O 0.52519 0.84569 0.81842 0.0
H576 H 0.06221 0.10061 0.80237 0.0
H577 H 0.13135 0.16804 0.70504 0.0
H578 H 0.16144 0.14645 0.72407 0.0
H579 H 0.16527 0.10502 0.75731 0.0
H580 H 0.09619 0.03728 0.85392 0.0
H581 H 0.06873 0.06254 0.84737 0.0
C582 C 0.08385 0.1105 0.7854 0.0
C583 C 0.09439 0.1353 0.75094 0.0
C584 C 0.10093 0.09804 0.79684 0.0
C585 C 0.12282 0.14873 0.73111 0.0
C586 C 0.13994 0.1364 0.74196 0.0
C587 C 0.14458 0.09634 0.77848 0.0
C588 C 0.13261 0.06949 0.80606 0.0
C589 C 0.12889 0.11065 0.77335 0.0
C590 C 0.10584 0.05815 0.83322 0.0
C591 C 0.09005 0.07239 0.82871 0.0
H592 H 1.01673 0.08278 0.76344 0.0
H593 H 0.94817 0.08852 0.84615 0.0
H594 H 0.91756 0.03586 0.84093 0.0
H595 H 0.90873 0.98953 0.79851 0.0
H596 H 0.97834 0.98649 0.71225 0.0
H597 H 1.01056 0.03707 0.73374 0.0
C598 C 0.99547 0.07258 0.78188 0.0
C599 C 0.98464 0.08937 0.80479 0.0
C600 C 0.9781 0.04289 0.77695 0.0
C601 C 0.95695 0.07584 0.82863 0.0
C602 C 0.9394 0.04586 0.8249 0.0
C603 C 0.93102 0.99999 0.78496 0.0
C604 C 0.94105 0.98466 0.75249 0.0
C605 C 0.94942 0.02933 0.79677 0.0
C606 C 0.97001 0.99812 0.73596 0.0
C607 C 0.98847 0.02695 0.74848 0.0
H608 H 0.96605 0.88365 0.76327 0.0
H609 H 0.9633 0.95444 0.84379 0.0
H610 H 1.01564 0.98457 0.83398 0.0
H611 H 0.06067 0.99211 0.79011 0.0
H612 H 0.06316 0.92072 0.71102 0.0
H613 H 1.01216 0.88912 0.73263 0.0
C614 C 0.9772 0.90536 0.7805 0.0
C615 C 0.96133 0.917 0.80438 0.0
C616 C 1.00693 0.92244 0.77373 0.0
C617 C 0.97547 0.94511 0.82617 0.0
C618 C 1.00522 0.96237 0.81974 0.0
C619 C 0.05001 0.96957 0.77813 0.0
C620 C 0.06518 0.9587 0.74804 0.0
C621 C 0.02093 0.95154 0.7915 0.0
C622 C 0.0516 0.92944 0.7337 0.0
C623 C 0.02257 0.91142 0.74612 0.0
H624 H 0.99162 0.96475 0.31782 0.0
H625 H 0.93437 0.89047 0.21667 0.0
H626 H 0.90801 0.91468 0.18516 0.0
H627 H 0.89826 0.95533 0.19752 0.0
H628 H 0.95849 0.02921 0.29606 0.0
H629 H 0.98768 1.00748 0.31504 0.0
C630 C 0.97375 0.95398 0.28798 0.0
C631 C 0.96457 0.92579 0.27044 0.0
C632 C 0.9595 0.96818 0.26899 0.0
C633 C 0.94142 0.91212 0.23157 0.0
C634 C 0.92649 0.92598 0.21337 0.0
C635 C 0.91838 0.96696 0.22106 0.0
C636 C 0.92632 0.99386 0.24546 0.0
C637 C 0.93493 0.95384 0.23306 0.0
C638 C 0.95215 1.00869 0.27658 0.0
C639 C 0.96868 0.99607 0.28815 0.0
H640 H 0.1369 0.06472 0.22699 0.0
H641 H 0.07748 0.06509 0.35158 0.0
H642 H 0.04419 0.01442 0.33303 0.0
H643 H 0.03523 0.96928 0.29226 0.0
H644 H 0.09374 0.96622 0.17036 0.0
H645 H 0.12414 0.01897 0.17574 0.0
C646 C 0.11655 0.05367 0.24958 0.0
C647 C 0.10991 0.06838 0.29163 0.0
C648 C 0.09748 0.02425 0.23906 0.0
C649 C 0.08332 0.05407 0.32 0.0
C650 C 0.06421 0.02515 0.30923 0.0
C651 C 0.05405 0.98022 0.26535 0.0
C652 C 0.06222 0.96407 0.23103 0.0
C653 C 0.07149 1.00994 0.27028 0.0
C654 C 0.08691 0.97836 0.1967 0.0
C655 C 0.10443 1.0084 0.20048 0.0
H656 H 0.0879 0.13449 0.34992 0.0
H657 H 0.08476 0.13675 0.164 0.0
H658 H 0.03188 0.11312 0.16806 0.0
H659 H 0.98685 0.09225 0.22627 0.0
H660 H 0.993 0.09198 0.41207 0.0
H661 H 0.04502 0.11499 0.40603 0.0
C662 C 0.07591 0.13003 0.30985 0.0
C663 C 0.09028 0.13755 0.25666 0.0
C664 C 0.04616 0.11701 0.3127 0.0
C665 C 0.07415 0.13116 0.20549 0.0
C666 C 0.04402 0.11778 0.20791 0.0
C667 C 0.99972 0.09757 0.26527 0.0
C668 C 0.98625 0.09067 0.31963 0.0
C669 C 0.02982 0.11078 0.26149 0.0
C670 C 1.00294 0.09725 0.36989 0.0
C671 C 0.03263 0.11029 0.36648 0.0
H672 H 0.83631 0.44281 0.08141 0.0
H673 H 0.77 0.37839 0.1887 0.0
H674 H 0.74262 0.40371 0.18232 0.0
H675 H 0.73502 0.44043 0.13472 0.0
H676 H 0.80136 0.50469 0.02708 0.0
H677 H 0.83187 0.48349 0.04556 0.0
C678 C 0.81629 0.43494 0.10482 0.0
C679 C 0.80498 0.40901 0.13547 0.0
C680 C 0.80068 0.44929 0.09999 0.0
C681 C 0.7791 0.39862 0.16561 0.0
C682 C 0.76336 0.41286 0.16128 0.0
C683 C 0.75619 0.44973 0.11554 0.0
C684 C 0.76582 0.4734 0.07832 0.0
C685 C 0.77346 0.43754 0.12666 0.0
C686 C 0.79362 0.48621 0.05536 0.0
C687 C 0.81094 0.4741 0.06585 0.0
H688 H 0.68879 0.41845 0.09378 0.0
H689 H 0.62343 0.42585 0.18623 0.0
H690 H 0.5914 0.37347 0.17993 0.0
H691 H 0.58 0.32708 0.13384 0.0
H692 H 0.64605 0.32231 0.03698 0.0
H693 H 0.68009 0.37234 0.05948 0.0
C694 C 0.66795 0.40859 0.11424 0.0
C695 C 0.65845 0.42583 0.14041 0.0
C696 C 0.64959 0.37904 0.10825 0.0
C697 C 0.63128 0.41281 0.16653 0.0
C698 C 0.61286 0.38298 0.16203 0.0
C699 C 0.60191 0.33706 0.11804 0.0
C700 C 0.61036 0.32138 0.08245 0.0
C701 C 0.62138 0.36611 0.13058 0.0
C702 C 0.63887 0.33422 0.0631 0.0
C703 C 0.6584 0.36274 0.07627 0.0
H704 H 0.72834 0.3304 0.12847 0.0
H705 H 0.72967 0.25659 0.05882 0.0
H706 H 0.6786 0.22614 0.08085 0.0
H707 H 0.63269 0.22199 0.10861 0.0
H708 H 0.63073 0.29512 0.1791 0.0
H709 H 0.6832 0.32442 0.16965 0.0
C710 C 0.71742 0.30758 0.11867 0.0
C711 C 0.73243 0.29574 0.09108 0.0
C712 C 0.68816 0.29017 0.13211 0.0
C713 C 0.71838 0.26613 0.07956 0.0
C714 C 0.68925 0.24875 0.09221 0.0
C715 C 0.644 0.24407 0.12386 0.0
C716 C 0.62823 0.25652 0.14473 0.0
C717 C 0.67383 0.26069 0.11716 0.0
C718 C 0.6427 0.28512 0.16383 0.0
C719 C 0.67257 0.30191 0.15756 0.0
H720 H 0.55749 0.28738 0.65785 0.0
H721 H 0.59715 0.32478 0.49501 0.0
H722 H 0.62279 0.29752 0.49717 0.0
H723 H 0.63861 0.26837 0.55287 0.0
H724 H 0.60146 0.23547 0.72003 0.0
H725 H 0.57017 0.25602 0.70916 0.0
C726 C 0.57145 0.28927 0.62234 0.0
C727 C 0.57587 0.30826 0.57676 0.0
C728 C 0.58684 0.27475 0.62533 0.0
C729 C 0.59349 0.3102 0.53048 0.0
C730 C 0.60833 0.2949 0.53212 0.0
C731 C 0.62333 0.26542 0.58639 0.0
C732 C 0.62234 0.25071 0.63738 0.0
C733 C 0.60595 0.27796 0.58045 0.0
C734 C 0.60268 0.247 0.68077 0.0
C735 C 0.58478 0.25864 0.6745 0.0
H736 H 0.80463 0.39867 0.56465 0.0
H737 H 0.7413 0.39914 0.67819 0.0
H738 H 0.70878 0.34826 0.65912 0.0
H739 H 0.70114 0.30279 0.62126 0.0
H740 H 0.76468 0.30038 0.51224 0.0
H741 H 0.79404 0.35314 0.51646 0.0
C742 C 0.78362 0.3876 0.58478 0.0
C743 C 0.77559 0.40233 0.62393 0.0
C744 C 0.7651 0.35818 0.57408 0.0
C745 C 0.74816 0.38804 0.64895 0.0
C746 C 0.72951 0.35902 0.63783 0.0
C747 C 0.72112 0.31396 0.59727 0.0
C748 C 0.73105 0.29805 0.56704 0.0
C749 C 0.73814 0.34377 0.60203 0.0
C750 C 0.75669 0.31242 0.53555 0.0
C751 C 0.77359 0.34246 0.53873 0.0
H752 H 0.7519 0.50156 0.60585 0.0
H753 H 0.75486 0.43122 0.52376 0.0
H754 H 0.7024 0.4012 0.53222 0.0
H755 H 0.65688 0.39359 0.57454 0.0
H756 H 0.65476 0.46454 0.65689 0.0
H757 H 0.70585 0.49594 0.63674 0.0
C758 C 0.74082 0.47995 0.58809 0.0
C759 C 0.75681 0.4685 0.56384 0.0
C760 C 0.71102 0.46288 0.59431 0.0
C761 C 0.74266 0.44049 0.54151 0.0
C762 C 0.71281 0.42327 0.5472 0.0
C763 C 0.66763 0.416 0.58758 0.0
C764 C 0.65237 0.42673 0.618 0.0
C765 C 0.69695 0.43396 0.57543 0.0
C766 C 0.66623 0.45584 0.63386 0.0
C767 C 0.69538 0.47377 0.6223 0.0
H768 H 0.50024 0.77749 0.42952 0.0
H769 H 0.42938 0.70296 0.50726 0.0
H770 H 0.3992 0.72524 0.49875 0.0
H771 H 0.39169 0.7634 0.45719 0.0
H772 H 0.46318 0.83801 0.38013 0.0
H773 H 0.49469 0.81833 0.40037 0.0
C774 C 0.47848 0.76668 0.44639 0.0
C775 C 0.46689 0.73893 0.46931 0.0
C776 C 0.46136 0.77937 0.44028 0.0
C777 C 0.4387 0.72465 0.4905 0.0
C778 C 0.42141 0.73719 0.48479 0.0
C779 C 0.41424 0.77537 0.44535 0.0
C780 C 0.42514 0.80178 0.41633 0.0
C781 C 0.43225 0.76409 0.45776 0.0
C782 C 0.45441 0.8175 0.40207 0.0
C783 C 0.47239 0.8063 0.41368 0.0
H784 H 0.32632 0.75637 0.36538 0.0
H785 H 0.30008 0.75353 0.54207 0.0
H786 H 0.27303 0.70052 0.53768 0.0
H787 H 0.25485 0.65543 0.47991 0.0
H788 H 0.28244 0.6614 0.30311 0.0
H789 H 0.3112 0.71333 0.31139 0.0
C790 C 0.31487 0.74437 0.40341 0.0
C791 C 0.31488 0.75882 0.4538 0.0
C792 C 0.29949 0.71457 0.4002 0.0
C793 C 0.30028 0.7428 0.50271 0.0
C794 C 0.28475 0.7126 0.50001 0.0
C795 C 0.26716 0.66823 0.44336 0.0
C796 C 0.26625 0.65478 0.39064 0.0
C797 C 0.28379 0.69831 0.44842 0.0
C798 C 0.28256 0.67134 0.3438 0.0
C799 C 0.29907 0.70099 0.34852 0.0
H800 H 0.2996 0.62403 0.40806 0.0
H801 H 0.29925 0.56339 0.53017 0.0
H802 H 0.35212 0.58777 0.52584 0.0
H803 H 0.39733 0.62208 0.47521 0.0
H804 H 0.39531 0.68075 0.3501 0.0
H805 H 0.34423 0.66141 0.36768 0.0
C806 C 0.31112 0.61663 0.43499 0.0
C807 C 0.29577 0.592 0.46909 0.0
C808 C 0.34096 0.63003 0.43058 0.0
C809 C 0.3108 0.5825 0.5039 0.0
C810 C 0.34092 0.5962 0.50072 0.0
C811 C 0.38567 0.6307 0.45223 0.0
C812 C 0.39982 0.6523 0.41035 0.0
C813 C 0.35608 0.61924 0.46222 0.0
C814 C 0.38472 0.66373 0.38161 0.0
C815 C 0.35557 0.65278 0.3918 0.0
H816 H 0.29636 0.59279 0.88874 0.0
H817 H 0.31591 0.61757 0.06762 0.0
H818 H 0.29352 0.64713 0.05962 0.0
H819 H 0.26591 0.66286 1.00543 0.0
H820 H 0.24508 0.63967 0.82653 0.0
H821 H 0.27088 0.61248 0.83061 0.0
C822 C 0.29565 0.60471 0.92579 0.0
C823 C 0.30727 0.60269 0.97902 0.0
C824 C 0.28266 0.62177 0.9209 0.0
C825 C 0.30677 0.61853 0.02651 0.0
C826 C 0.29405 0.63547 0.02197 0.0
C827 C 0.26719 0.65223 0.96682 0.0
C828 C 0.25341 0.65303 0.91588 0.0
C829 C 0.28159 0.6368 0.96982 0.0
C830 C 0.25554 0.63929 0.86628 0.0
C831 C 0.2701 0.62366 0.86881 0.0
H832 H 0.37677 0.63298 0.98294 0.0
H833 H 0.42196 0.63269 0.83012 0.0
H834 H 0.45144 0.68552 0.83461 0.0
H835 H 0.46798 0.73071 0.89072 0.0
H836 H 0.42326 0.72795 0.04723 0.0
H837 H 0.38979 0.67704 0.03279 0.0
C838 C 0.39269 0.64448 0.94987 0.0
C839 C 0.39757 0.6292 0.90677 0.0
C840 C 0.40994 0.67414 0.95429 0.0
C841 C 0.41794 0.64421 0.86371 0.0
C842 C 0.43495 0.67427 0.8668 0.0
C843 C 0.45087 0.71885 0.92146 0.0
C844 C 0.44838 0.73278 0.97062 0.0
C845 C 0.43185 0.68931 0.91335 0.0
C846 C 0.42593 0.71749 1.00976 0.0
C847 C 0.40667 0.68847 1.00137 0.0
H848 H 0.41891 0.76807 0.97879 0.0
H849 H 0.41975 0.81929 0.83495 0.0
H850 H 0.36688 0.79552 0.83851 0.0
H851 H 0.32141 0.76434 0.89181 0.0
H852 H 0.32321 0.71483 0.03723 0.0
H853 H 0.37442 0.73358 0.02337 0.0
C854 C 0.40758 0.77354 0.94713 0.0
C855 C 0.42305 0.7954 0.90695 0.0
C856 C 0.37778 0.7604 0.9505 0.0
C857 C 0.40814 0.80237 0.86615 0.0
C858 C 0.37802 0.78901 0.86868 0.0
C859 C 0.33309 0.7576 0.92009 0.0
C860 C 0.31885 0.73885 0.96641 0.0
C861 C 0.36275 0.76872 0.91217 0.0
C862 C 0.33391 0.72978 1.00221 0.0
C863 C 0.36312 0.74035 0.99416 0.0
H864 H 0.22562 0.06768 0.54634 0.0
H865 H 0.19835 0.105 0.67864 0.0
H866 H 0.2061 0.14411 0.61423 0.0
H867 H 0.21239 0.16302 0.51547 0.0
H868 H 0.23865 0.12602 0.38123 0.0
H869 H 0.24021 0.0922 0.45049 0.0
C870 C 0.22256 0.08503 0.56165 0.0
C871 C 0.21156 0.08343 0.61758 0.0
C872 C 0.22659 0.1075 0.5235 0.0
C873 C 0.20698 0.10577 0.6361 0.0
C874 C 0.21122 0.12811 0.59905 0.0
C875 C 0.21979 0.14846 0.50205 0.0
C876 C 0.2261 0.14756 0.44352 0.0
C877 C 0.21992 0.12862 0.54197 0.0
C878 C 0.23454 0.12777 0.42631 0.0
C879 C 0.23498 0.10808 0.46587 0.0
H880 H 0.94652 0.1333 0.64489 0.0
H881 H 1.01027 0.20084 0.53884 0.0
H882 H 0.97943 0.17991 0.45372 0.0
H883 H 0.93728 0.13809 0.40744 0.0
H884 H 0.87288 0.07178 0.51453 0.0
H885 H 0.90038 0.09665 0.60092 0.0
C886 C 0.95321 0.14398 0.60346 0.0
C887 C 0.98066 0.16883 0.5985 0.0
C888 C 0.93514 0.13188 0.55464 0.0
C889 C 0.98914 0.1821 0.54424 0.0
C890 C 0.97155 0.1699 0.49535 0.0
C891 C 0.92858 0.12987 0.44985 0.0
C892 C 0.90249 0.1034 0.45436 0.0
C893 C 0.94483 0.14431 0.49966 0.0
C894 C 0.89226 0.09248 0.50971 0.0
C895 C 0.9083 0.10652 0.5592 0.0
H896 H 0.92029 0.84158 0.64267 0.0
H897 H 0.8498 0.83262 0.53828 0.0
H898 H 0.87152 0.82445 0.45269 0.0
H899 H 0.91475 0.82769 0.40541 0.0
H900 H 0.98457 0.83584 0.51107 0.0
H901 H 0.95896 0.83597 0.59803 0.0
C902 C 0.9091 0.83664 0.60158 0.0
C903 C 0.88316 0.83727 0.59718 0.0
C904 C 0.92188 0.8321 0.55249 0.0
C905 C 0.86932 0.83156 0.54329 0.0
C906 C 0.88201 0.82727 0.49411 0.0
C907 C 0.9237 0.82815 0.44765 0.0
C908 C 0.95132 0.83103 0.45171 0.0
C909 C 0.9088 0.82847 0.49779 0.0
C910 C 0.96309 0.83275 0.50673 0.0
C911 C 0.94856 0.83321 0.55652 0.0
H912 H 0.11371 0.25789 0.92922 0.0
H913 H 0.04499 0.17543 0.98628 0.0
H914 H 0.07652 0.1728 0.05854 0.0
H915 H 0.12314 0.19283 0.10552 0.0
H916 H 0.19418 0.27358 0.04837 0.0
H917 H 0.16254 0.27779 0.97635 0.0
C918 C 0.10565 0.23949 0.9578 0.0
C919 C 0.0767 0.21692 0.95214 0.0
C920 C 0.12442 0.23767 0.99917 0.0
C921 C 0.06695 0.19308 0.98918 0.0
C922 C 0.08504 0.19152 0.03074 0.0
C923 C 0.1319 0.21155 0.07763 0.0
C924 C 0.16114 0.23303 0.08325 0.0
C925 C 0.11376 0.21355 0.03604 0.0
C926 C 0.17188 0.2567 0.04544 0.0
C927 C 0.15368 0.25912 1.00428 0.0
H928 H 0.85892 0.95941 0.10793 0.0
H929 H 0.77867 0.95121 0.05034 0.0
H930 H 0.77408 0.91568 0.97765 0.0
H931 H 0.79366 0.88687 0.92958 0.0
H932 H 0.87567 0.89916 0.98693 0.0
H933 H 0.8785 0.93271 0.06049 0.0
C934 C 0.84021 0.94984 0.07986 0.0
C935 C 0.81901 0.95797 0.08546 0.0
C936 C 0.83803 0.92994 0.03779 0.0
C937 C 0.79534 0.9455 0.04744 0.0
C938 C 0.79271 0.92507 1.00585 0.0
C939 C 0.81203 0.89682 0.95843 0.0
C940 C 0.83445 0.89029 0.95244 0.0
C941 C 0.81397 0.91705 1.0005 0.0
C942 C 0.85821 0.90374 0.98997 0.0
C943 C 0.85986 0.92299 0.03228 0.0
H944 H 0.12982 0.94844 0.90129 0.0
H945 H 0.20262 0.98719 1.01671 0.0
H946 H 0.17427 0.95264 0.092 0.0
H947 H 0.12779 0.91274 0.12744 0.0
H948 H 0.05631 0.87055 1.00991 0.0
H949 H 0.08488 0.9045 0.93344 0.0
C950 C 0.1395 0.94919 0.94284 0.0
C951 C 0.16838 0.97075 0.95333 0.0
C952 C 0.12323 0.9284 0.98567 0.0
C953 C 0.18057 0.97101 1.00727 0.0
C954 C 0.1643 0.9512 0.0505 0.0
C955 C 0.1187 0.91055 0.08466 0.0
C956 C 0.08993 0.88881 0.07444 0.0
C957 C 0.13553 0.92993 0.04049 0.0
C958 C 0.07847 0.88659 1.01882 0.0
C959 C 0.09478 0.90628 0.97518 0.0
H960 H 0.82263 0.93509 0.62778 0.0
H961 H 0.84223 0.8803 0.52532 0.0
H962 H 0.8433 0.90651 0.43823 0.0
H963 H 0.84603 0.94947 0.39356 0.0
H964 H 0.82582 1.0044 0.49387 0.0
H965 H 0.81707 0.97365 0.57871 0.0
C966 C 0.82589 0.92817 0.586 0.0
C967 C 0.83173 0.90527 0.58298 0.0
C968 C 0.82679 0.94373 0.53567 0.0
C969 C 0.83695 0.89728 0.5287 0.0
C970 C 0.83792 0.91253 0.47889 0.0
C971 C 0.83874 0.95416 0.4335 0.0
C972 C 0.8364 0.97917 0.43708 0.0
C973 C 0.83388 0.9364 0.4821 0.0
C974 C 0.8273 0.98509 0.48945 0.0
C975 C 0.82264 0.96764 0.53825 0.0
H976 H 0.10565 0.92422 0.39098 0.0
H977 H 0.04207 0.85745 0.49868 0.0
H978 H 0.07297 0.87889 0.58339 0.0
H979 H 0.11499 0.92077 0.62852 0.0
H980 H 0.17933 0.98669 0.52069 0.0
H981 H 0.15192 0.96123 0.43444 0.0
C982 C 0.09907 0.91384 0.43272 0.0
C983 C 0.07168 0.88907 0.43843 0.0
C984 C 0.11718 0.92625 0.48131 0.0
C985 C 0.0632 0.87615 0.49294 0.0
C986 C 0.08081 0.8886 0.54151 0.0
C987 C 0.12366 0.9288 0.58599 0.0
C988 C 0.1496 0.95529 0.58105 0.0
C989 C 0.10749 0.91413 0.53653 0.0
C990 C 0.15996 0.96599 0.52569 0.0
C991 C 0.14399 0.95162 0.47634 0.0
H992 H 0.18701 0.21864 0.51226 0.0
H993 H 0.13529 0.21185 0.3643 0.0
H994 H 0.10259 0.21935 0.42516 0.0
H995 H 0.08432 0.21998 0.52269 0.0
H996 H 0.13622 0.22801 0.67097 0.0
H997 H 0.17315 0.22841 0.6086 0.0
C998 C 0.16936 0.22017 0.49311 0.0
C999 C 0.16405 0.21531 0.43338 0.0
C1000 C 0.1503 0.22433 0.52886 0.0
C1001 C 0.14035 0.21626 0.40974 0.0
C1002 C 0.12136 0.22019 0.44475 0.0
C1003 C 0.10432 0.22315 0.54106 0.0
C1004 C 0.10776 0.22468 0.60147 0.0
C1005 C 0.12551 0.22324 0.50467 0.0
C1006 C 0.13338 0.22769 0.62465 0.0
C1007 C 0.15438 0.22751 0.5889 0.0
H1008 H 0.94392 0.84066 0.13968 0.0
H1009 H 0.98941 0.81735 1.01839 0.0
H1010 H 0.95512 0.81164 0.94245 0.0
H1011 H 0.91318 0.81506 0.90897 0.0
H1012 H 0.86478 0.83428 0.03079 0.0
H1013 H 0.89857 0.83928 0.10779 0.0
C1014 C 0.94618 0.83421 0.09664 0.0
C1015 C 0.96946 0.82968 0.08465 0.0
C1016 C 0.92562 0.82999 0.05327 0.0
C1017 C 0.97183 0.821 0.02881 0.0
C1018 C 0.95217 0.81773 0.98532 0.0
C1019 C 0.90967 0.81979 0.95263 0.0
C1020 C 0.8862 0.82406 0.96391 0.0
C1021 C 0.92906 0.82229 0.99685 0.0
C1022 C 0.88222 0.83034 0.02084 0.0
C1023 C 0.90181 0.83353 0.06484 0.0
H1024 H 0.25709 0.17147 0.10428 0.0
H1025 H 0.17138 0.15245 0.0574 0.0
H1026 H 0.16809 0.11762 0.98673 0.0
H1027 H 0.18822 0.09171 0.93906 0.0
H1028 H 0.27273 0.10711 0.98486 0.0
H1029 H 0.27763 0.14374 0.05511 0.0
C1030 C 0.23782 0.15981 0.07827 0.0
C1031 C 0.21448 0.16478 0.08651 0.0
C1032 C 0.2357 0.13892 0.03771 0.0
C1033 C 0.1896 0.14913 0.05263 0.0
C1034 C 0.18766 0.12912 1.01197 0.0
C1035 C 0.20793 0.10304 0.96401 0.0
C1036 C 0.23017 0.09656 0.95589 0.0
C1037 C 0.2104 0.12369 1.00438 0.0
C1038 C 0.25519 0.11144 0.98985 0.0
C1039 C 0.25801 0.13252 0.02999 0.0
H1040 H 0.95491 0.1249 0.92898 0.0
H1041 H 0.94938 0.19773 0.9902 0.0
H1042 H 0.91422 0.16693 0.0635 0.0
H1043 H 0.88485 0.11839 0.11089 0.0
H1044 H 0.89461 0.04779 0.05022 0.0
H1045 H 0.92782 0.07842 0.97609 0.0
C1046 C 0.94596 0.13421 0.95794 0.0
C1047 C 0.95469 0.16373 0.95312 0.0
C1048 C 0.92627 0.11654 1.00037 0.0
C1049 C 0.94313 0.1752 0.99241 0.0
C1050 C 0.92292 0.15748 0.03434 0.0
C1051 C 0.89413 0.10975 0.08114 0.0
C1052 C 0.88693 0.08056 0.08625 0.0
C1053 C 0.91421 0.12798 0.03881 0.0
C1054 C 0.89963 0.06999 0.0477 0.0
C1055 C 0.91871 0.08755 1.0051 0.0
H1056 H 0.88795 0.39674 0.87351 0.0
H1057 H 0.87071 0.4392 1.01211 0.0
H1058 H 0.87701 0.47769 0.94713 0.0
H1059 H 0.87975 0.49536 0.84763 0.0
H1060 H 0.89739 0.45385 0.70812 0.0
H1061 H 0.89913 0.41958 0.77583 0.0
C1062 C 0.88689 0.41509 0.88993 0.0
C1063 C 0.87928 0.41519 0.94814 0.0
C1064 C 0.8902 0.43728 0.8516 0.0
C1065 C 0.877 0.43875 0.96796 0.0
C1066 C 0.88031 0.4607 0.93055 0.0
C1067 C 0.88518 0.47956 0.83246 0.0
C1068 C 0.88907 0.47763 0.77292 0.0
C1069 C 0.88587 0.4597 0.87182 0.0
C1070 C 0.89508 0.45635 0.75379 0.0
C1071 C 0.89572 0.43647 0.79257 0.0
H1072 H 0.60019 0.47142 0.74425 0.0
H1073 H 0.54616 0.39644 0.84612 0.0
H1074 H 0.57342 0.42079 0.93285 0.0
H1075 H 0.61723 0.46045 0.97676 0.0
H1076 H 0.67105 0.53631 0.87703 0.0
H1077 H 0.63935 0.51502 0.79306 0.0
C1078 C 0.5936 0.46099 0.78593 0.0
C1079 C 0.57067 0.4323 0.78886 0.0
C1080 C 0.6098 0.47514 0.83595 0.0
C1081 C 0.56315 0.41869 0.84291 0.0
C1082 C 0.57903 0.43251 0.89246 0.0
C1083 C 0.62152 0.47267 0.93712 0.0
C1084 C 0.64648 0.49999 0.93327 0.0
C1085 C 0.60307 0.4603 0.88914 0.0
C1086 C 0.65183 0.51545 0.88146 0.0
C1087 C 0.6338 0.50311 0.83322 0.0
H1088 H 0.58341 0.15922 0.74452 0.0
H1089 H 0.65611 0.17506 0.8499 0.0
H1090 H 0.63098 0.17677 0.93613 0.0
H1091 H 0.59165 0.18157 0.97912 0.0
H1092 H 0.51837 0.16538 0.87544 0.0
H1093 H 0.53991 0.15557 0.79151 0.0
C1094 C 0.59311 0.16164 0.78675 0.0
C1095 C 0.62138 0.16623 0.79092 0.0
C1096 C 0.57854 0.16306 0.83643 0.0
C1097 C 0.63414 0.17061 0.84571 0.0
C1098 C 0.61989 0.172 0.89499 0.0
C1099 C 0.57992 0.17483 0.93864 0.0
C1100 C 0.55326 0.17389 0.93375 0.0
C1101 C 0.59254 0.16932 0.89062 0.0
C1102 C 0.53858 0.16568 0.88073 0.0
C1103 C 0.55111 0.1604 0.83251 0.0
H1104 H 0.77377 0.54894 0.23044 0.0
H1105 H 0.72826 0.57202 0.35212 0.0
H1106 H 0.76219 0.57698 0.42831 0.0
H1107 H 0.80359 0.57245 0.46187 0.0
H1108 H 0.85236 0.55434 0.3389 0.0
H1109 H 0.81893 0.55015 0.2619 0.0
C1110 C 0.77145 0.55523 0.27359 0.0
C1111 C 0.74826 0.55981 0.2857 0.0
C1112 C 0.7918 0.55908 0.31697 0.0
C1113 C 0.74581 0.56833 0.34165 0.0
C1114 C 0.76523 0.57114 0.38528 0.0
C1115 C 0.80723 0.56816 0.41796 0.0
C1116 C 0.8306 0.56384 0.40624 0.0
C1117 C 0.78818 0.56634 0.37366 0.0
C1118 C 0.83489 0.55819 0.34907 0.0
C1119 C 0.81555 0.55551 0.30509 0.0
H1120 H 0.47531 0.25909 0.46143 0.0
H1121 H 0.50194 0.3303 0.34445 0.0
H1122 H 0.50776 0.30235 0.26738 0.0
H1123 H 0.50793 0.25811 0.23464 0.0
H1124 H 0.47698 0.18574 0.35016 0.0
H1125 H 0.47031 0.21346 0.42599 0.0
C1126 C 0.48183 0.26828 0.41871 0.0
C1127 C 0.48799 0.29675 0.40876 0.0
C1128 C 0.48475 0.25189 0.37438 0.0
C1129 C 0.49656 0.30834 0.35315 0.0
C1130 C 0.50021 0.29242 0.30919 0.0
C1131 C 0.49961 0.24844 0.27637 0.0
C1132 C 0.49325 0.21991 0.28685 0.0
C1133 C 0.49484 0.2643 0.31949 0.0
C1134 C 0.48208 0.20758 0.34091 0.0
C1135 C 0.47827 0.22346 0.38437 0.0
H1136 H 0.75859 0.26068 0.43808 0.0
H1137 H 0.76909 0.18958 0.38495 0.0
H1138 H 0.8042 0.22054 0.31158 0.0
H1139 H 0.83251 0.26892 0.26283 0.0
H1140 H 0.81825 0.33772 0.31699 0.0
H1141 H 0.78449 0.30672 0.38968 0.0
C1142 C 0.76858 0.25176 0.41082 0.0
C1143 C 0.76132 0.22275 0.41794 0.0
C1144 C 0.78831 0.2695 0.36867 0.0
C1145 C 0.77418 0.21173 0.38084 0.0
C1146 C 0.79437 0.22955 0.33894 0.0
C1147 C 0.82206 0.27708 0.29072 0.0
C1148 C 0.82814 0.30587 0.28405 0.0
C1149 C 0.80178 0.25864 0.33252 0.0
C1150 C 0.81405 0.31582 0.32044 0.0
C1151 C 0.79467 0.29806 0.36231 0.0
H1152 H 0.51516 0.28344 0.72584 0.0
H1153 H 0.49347 0.3379 0.82398 0.0
H1154 H 0.4836 0.30683 0.90869 0.0
H1155 H 0.48865 0.26824 0.95864 0.0
H1156 H 0.50972 0.21386 0.8585 0.0
H1157 H 0.51193 0.24034 0.77102 0.0
C1158 C 0.50734 0.28797 0.76526 0.0
C1159 C 0.5049 0.31293 0.76836 0.0
C1160 C 0.5018 0.27001 0.81376 0.0
C1161 C 0.49506 0.31864 0.81999 0.0
C1162 C 0.48974 0.30099 0.86871 0.0
C1163 C 0.49239 0.2614 0.91719 0.0
C1164 C 0.49832 0.23855 0.91497 0.0
C1165 C 0.49394 0.27711 0.86671 0.0
C1166 C 0.50426 0.23072 0.86119 0.0
C1167 C 0.50591 0.24616 0.8112 0.0
H1168 H 0.78636 0.25235 0.95927 0.0
H1169 H 0.84239 0.32657 0.85748 0.0
H1170 H 0.81605 0.30195 0.76998 0.0
H1171 H 0.77237 0.26242 0.7252 0.0
H1172 H 0.71659 0.18744 0.82548 0.0
H1173 H 0.74755 0.20879 0.91029 0.0
C1174 C 0.79356 0.26254 0.91752 0.0
C1175 C 0.81676 0.29107 0.91471 0.0
C1176 C 0.77794 0.24825 0.86719 0.0
C1177 C 0.82517 0.30442 0.86057 0.0
C1178 C 0.80981 0.29045 0.8106 0.0
C1179 C 0.76752 0.25037 0.76517 0.0
C1180 C 0.7422 0.22332 0.76894 0.0
C1181 C 0.7855 0.26281 0.8137 0.0
C1182 C 0.7361 0.20807 0.82114 0.0
C1183 C 0.75369 0.22045 0.86986 0.0
H1184 H 0.80409 0.56141 0.96313 0.0
H1185 H 0.7368 0.55774 0.85555 0.0
H1186 H 0.7624 0.55671 0.76928 0.0
H1187 H 0.7999 0.54878 0.72566 0.0
H1188 H 0.86786 0.55327 0.83225 0.0
H1189 H 0.84654 0.56248 0.91723 0.0
C1190 C 0.79579 0.56185 0.92066 0.0
C1191 C 0.76887 0.56051 0.91587 0.0
C1192 C 0.81061 0.56088 0.87096 0.0
C1193 C 0.75783 0.55977 0.8605 0.0
C1194 C 0.77231 0.55872 0.8111 0.0
C1195 C 0.81068 0.55295 0.76713 0.0
C1196 C 0.83576 0.55077 0.7723 0.0
C1197 C 0.79818 0.5582 0.81587 0.0
C1198 C 0.84903 0.55552 0.82666 0.0
C1199 C 0.83657 0.56043 0.87547 0.0
H1200 H 0.59578 0.1967 0.26948 0.0
H1201 H 0.52433 0.11474 0.32046 0.0
H1202 H 0.55557 0.10909 0.3912 0.0
H1203 H 0.60394 0.12856 0.44051 0.0
H1204 H 0.67303 0.21184 0.38814 0.0
H1205 H 0.64207 0.21551 0.3162 0.0
C1206 C 0.58674 0.17736 0.29561 0.0
C1207 C 0.55746 0.15611 0.28885 0.0
C1208 C 0.60466 0.17447 0.33638 0.0
C1209 C 0.54663 0.13153 0.32425 0.0
C1210 C 0.5646 0.12829 0.36479 0.0
C1211 C 0.61221 0.14734 0.41293 0.0
C1212 C 0.64105 0.16992 0.42017 0.0
C1213 C 0.59378 0.14972 0.3715 0.0
C1214 C 0.65111 0.1942 0.38422 0.0
C1215 C 0.63335 0.19636 0.34281 0.0
H1216 H 0.86892 0.46104 0.46729 0.0
H1217 H 0.91444 0.53715 0.36264 0.0
H1218 H 0.92217 0.50942 0.28859 0.0
H1219 H 0.91427 0.46298 0.25093 0.0
H1220 H 0.87285 0.38749 0.35796 0.0
H1221 H 0.86556 0.41523 0.43344 0.0
C1222 C 0.88054 0.47148 0.42827 0.0
C1223 C 0.89078 0.50116 0.42034 0.0
C1224 C 0.88588 0.45548 0.38633 0.0
C1225 C 0.90624 0.51441 0.36988 0.0
C1226 C 0.91069 0.49853 0.32742 0.0
C1227 C 0.90428 0.45279 0.2914 0.0
C1228 C 0.8945 0.42326 0.29904 0.0
C1229 C 0.90052 0.46903 0.33492 0.0
C1230 C 0.88122 0.4103 0.35145 0.0
C1231 C 0.87672 0.42613 0.39437 0.0
H1232 H 0.55015 0.44969 0.43651 0.0
H1233 H 0.56756 0.38211 0.38934 0.0
H1234 H 0.60193 0.41319 0.31741 0.0
H1235 H 0.62787 0.45923 0.26854 0.0
H1236 H 0.6139 0.52898 0.31525 0.0
H1237 H 0.57787 0.49771 0.3867 0.0
C1238 C 0.56139 0.44179 0.41027 0.0
C1239 C 0.55607 0.41336 0.41876 0.0
C1240 C 0.58198 0.46027 0.369 0.0
C1241 C 0.57118 0.40375 0.38448 0.0
C1242 C 0.59091 0.42156 0.34306 0.0
C1243 C 0.61691 0.46777 0.29387 0.0
C1244 C 0.62359 0.49656 0.28559 0.0
C1245 C 0.5966 0.44983 0.33511 0.0
C1246 C 0.60933 0.50703 0.32023 0.0
C1247 C 0.58862 0.48904 0.36111 0.0
H1248 H 0.54571 0.7761 0.30857 0.0
H1249 H 0.55275 0.71343 0.20503 0.0
H1250 H 0.56226 0.74377 0.11946 0.0
H1251 H 0.56053 0.78447 0.07181 0.0
H1252 H 0.55548 0.84798 0.17626 0.0
H1253 H 0.55388 0.82154 0.26362 0.0
C1254 C 0.55047 0.76964 0.26767 0.0
C1255 C 0.54881 0.7426 0.26339 0.0
C1256 C 0.55607 0.78737 0.21862 0.0
C1257 C 0.55445 0.7343 0.20984 0.0
C1258 C 0.55957 0.75156 0.16071 0.0
C1259 C 0.56052 0.79324 0.1139 0.0
C1260 C 0.5588 0.81862 0.11743 0.0
C1261 C 0.55945 0.7777 0.16416 0.0
C1262 C 0.55774 0.8291 0.17228 0.0
C1263 C 0.55635 0.81366 0.22228 0.0
H1264 H 0.2786 0.802 0.30701 0.0
H1265 H 0.34521 0.8679 0.20278 0.0
H1266 H 0.31596 0.84672 0.11591 0.0
H1267 H 0.27444 0.80496 0.06844 0.0
H1268 H 0.20705 0.7403 0.17325 0.0
H1269 H 0.23303 0.76557 0.26074 0.0
C1270 C 0.28619 0.81236 0.2655 0.0
C1271 C 0.31395 0.83681 0.26158 0.0
C1272 C 0.26908 0.80006 0.21564 0.0
C1273 C 0.32373 0.84956 0.20728 0.0
C1274 C 0.30709 0.83719 0.15743 0.0
C1275 C 0.26485 0.79717 0.11044 0.0
C1276 C 0.23842 0.77106 0.11417 0.0
C1277 C 0.2801 0.8119 0.16082 0.0
C1278 C 0.22683 0.76072 0.16904 0.0
C1279 C 0.24195 0.77499 0.21917 0.0
H1280 H 0.24772 0.49073 0.07449 0.0
H1281 H 0.3202 0.50371 0.17736 0.0
H1282 H 0.29599 0.5058 0.26475 0.0
H1283 H 0.25755 0.51158 0.30978 0.0
H1284 H 0.18403 0.4971 0.20872 0.0
H1285 H 0.2048 0.48747 0.12336 0.0
C1286 C 0.25756 0.4926 0.11637 0.0
C1287 C 0.28552 0.49631 0.11944 0.0
C1288 C 0.24345 0.49404 0.16681 0.0
C1289 C 0.29842 0.49991 0.17391 0.0
C1290 C 0.28471 0.50154 0.22389 0.0
C1291 C 0.24561 0.50533 0.26951 0.0
C1292 C 0.21913 0.5049 0.26584 0.0
C1293 C 0.25769 0.4997 0.22065 0.0
C1294 C 0.20414 0.49712 0.21311 0.0
C1295 C 0.21623 0.49192 0.16405 0.0
H1296 H 0.44741 0.9252 0.59395 0.0
H1297 H 0.37747 0.8444 0.65491 0.0
H1298 H 0.4087 0.84176 0.72787 0.0
H1299 H 0.45537 0.86102 0.77365 0.0
H1300 H 0.52767 0.94008 0.71325 0.0
H1301 H 0.49632 0.94458 0.64091 0.0
C1302 C 0.43903 0.90716 0.62353 0.0
C1303 C 0.40982 0.88503 0.61867 0.0
C1304 C 0.45762 0.90532 0.66537 0.0
C1305 C 0.39964 0.86167 0.65709 0.0
C1306 C 0.41755 0.86012 0.69905 0.0
C1307 C 0.46453 0.8795 0.74516 0.0
C1308 C 0.49405 0.90037 0.74997 0.0
C1309 C 0.44653 0.88165 0.70343 0.0
C1310 C 0.50516 0.92368 0.71119 0.0
C1311 C 0.48712 0.92626 0.66975 0.0
H1312 H 0.12759 0.55324 0.59069 0.0
H1313 H 0.20703 0.56171 0.65506 0.0
H1314 H 0.21005 0.59569 0.72778 0.0
H1315 H 0.19151 0.62397 0.77259 0.0
H1316 H 0.1139 0.61955 0.70851 0.0
H1317 H 0.10899 0.58358 0.63654 0.0
C1318 C 0.14537 0.56235 0.62101 0.0
C1319 C 0.16702 0.55454 0.61718 0.0
C1320 C 0.14748 0.58291 0.6627 0.0
C1321 C 0.1901 0.56711 0.65652 0.0
C1322 C 0.19188 0.58667 0.69833 0.0
C1323 C 0.17329 0.61516 0.74325 0.0
C1324 C 0.15295 0.62457 0.74692 0.0
C1325 C 0.17089 0.59489 0.70167 0.0
C1326 C 0.12993 0.61295 0.70723 0.0
C1327 C 0.1271 0.59222 0.66602 0.0
H1328 H 0.4272 0.59529 0.77174 0.0
H1329 H 0.43407 0.52299 0.71194 0.0
H1330 H 0.4699 0.55422 0.63995 0.0
H1331 H 0.49942 0.60305 0.59326 0.0
H1332 H 0.48854 0.67304 0.65359 0.0
H1333 H 0.45466 0.64193 0.72618 0.0
C1334 C 0.43654 0.58614 0.74337 0.0
C1335 C 0.42794 0.55666 0.74813 0.0
C1336 C 0.45669 0.60406 0.70194 0.0
C1337 C 0.44012 0.54548 0.70967 0.0
C1338 C 0.46074 0.56345 0.66853 0.0
C1339 C 0.48976 0.61145 0.62265 0.0
C1340 C 0.49679 0.64061 0.61781 0.0
C1341 C 0.46931 0.59293 0.66418 0.0
C1342 C 0.48364 0.65087 0.6559 0.0
C1343 C 0.46417 0.63303 0.6976 0.0
H1344 H 0.17304 0.61484 0.06108 0.0
H1345 H 0.16809 0.67769 0.16784 0.0
H1346 H 0.15982 0.64732 0.25296 0.0
H1347 H 0.16166 0.60621 0.2988 0.0
H1348 H 0.16556 0.54308 0.191 0.0
H1349 H 0.16599 0.56965 0.10476 0.0
C1350 C 0.16895 0.6213 0.10264 0.0
C1351 C 0.17069 0.64833 0.10786 0.0
C1352 C 0.16428 0.60367 0.15145 0.0
C1353 C 0.16613 0.65675 0.1623 0.0
C1354 C 0.16178 0.63949 0.21117 0.0
C1355 C 0.16125 0.59763 0.2563 0.0
C1356 C 0.16284 0.57222 0.25136 0.0
C1357 C 0.16175 0.61331 0.20662 0.0
C1358 C 0.16346 0.56202 0.19599 0.0
C1359 C 0.16411 0.57748 0.14663 0.0
H1360 H 0.43775 0.59196 0.05929 0.0
H1361 H 0.38204 0.51734 0.16038 0.0
H1362 H 0.41257 0.53943 0.24558 0.0
H1363 H 0.45099 0.58364 0.29443 0.0
H1364 H 0.50636 0.65764 0.19134 0.0
H1365 H 0.48059 0.63222 0.10409 0.0
C1366 C 0.43288 0.58008 0.0995 0.0
C1367 C 0.40773 0.55288 0.10324 0.0
C1368 C 0.45044 0.59308 0.1483 0.0
C1369 C 0.4015 0.53799 0.15591 0.0
C1370 C 0.41881 0.55085 0.20489 0.0
C1371 C 0.45812 0.59366 0.25253 0.0
C1372 C 0.48102 0.62237 0.24929 0.0
C1373 C 0.44281 0.57885 0.20215 0.0
C1374 C 0.48934 0.63541 0.19486 0.0
C1375 C 0.47436 0.62096 0.14497 0.0
H1376 H 0.51946 0.89264 0.16469 0.0
H1377 H 0.45745 0.86806 0.02696 0.0
H1378 H 0.42464 0.87399 0.09018 0.0
H1379 H 0.41018 0.87847 0.18844 0.0
H1380 H 0.47134 0.90341 0.3274 0.0
H1381 H 0.50774 0.90553 0.26064 0.0
C1382 C 0.49933 0.88985 0.14799 0.0
C1383 C 0.49117 0.88029 0.09067 0.0
C1384 C 0.48009 0.89296 0.18532 0.0
C1385 C 0.4645 0.87586 0.07043 0.0
C1386 C 0.44552 0.87897 0.10683 0.0
C1387 C 0.43187 0.88556 0.20356 0.0
C1388 C 0.43819 0.89137 0.26263 0.0
C1389 C 0.4526 0.88647 0.16488 0.0
C1390 C 0.46614 0.89962 0.28192 0.0
C1391 C 0.48687 0.90044 0.24375 0.0
H1392 H 0.2682 0.46121 0.77502 0.0
H1393 H 0.33755 0.54305 0.71681 0.0
H1394 H 0.30622 0.54594 0.64453 0.0
H1395 H 0.25968 0.52658 0.59848 0.0
H1396 H 0.18794 0.44625 0.65544 0.0
H1397 H 0.21932 0.44165 0.72768 0.0
C1398 C 0.27642 0.47951 0.74615 0.0
C1399 C 0.30548 0.50188 0.75155 0.0
C1400 C 0.25776 0.48148 0.7047 0.0
C1401 C 0.31548 0.52559 0.71412 0.0
C1402 C 0.29752 0.5273 0.67258 0.0
C1403 C 0.25066 0.50782 0.62625 0.0
C1404 C 0.22133 0.48661 0.62056 0.0
C1405 C 0.26867 0.50555 0.66767 0.0
C1406 C 0.21032 0.46293 0.65838 0.0
C1407 C 0.22838 0.46029 0.69965 0.0
H1408 H 0.58995 0.83397 0.77892 0.0
H1409 H 0.51043 0.82541 0.71465 0.0
H1410 H 0.50745 0.79151 0.64191 0.0
H1411 H 0.52596 0.76338 0.59722 0.0
H1412 H 0.60378 0.76796 0.66058 0.0
H1413 H 0.60867 0.80382 0.73284 0.0
C1414 C 0.57215 0.82483 0.74863 0.0
C1415 C 0.55045 0.83252 0.75249 0.0
C1416 C 0.57008 0.80436 0.7069 0.0
C1417 C 0.52737 0.82001 0.71318 0.0
C1418 C 0.52561 0.80052 0.67137 0.0
C1419 C 0.54423 0.77219 0.62645 0.0
C1420 C 0.56463 0.7629 0.62259 0.0
C1421 C 0.54664 0.79238 0.66802 0.0
C1422 C 0.58771 0.77451 0.6621 0.0
C1423 C 0.59053 0.79515 0.70343 0.0
H1424 H 0.21788 0.78487 0.77612 0.0
H1425 H 0.23056 0.71602 0.71563 0.0
H1426 H 0.26412 0.74764 0.6431 0.0
H1427 H 0.29041 0.79428 0.59687 0.0
H1428 H 0.28193 0.86558 0.65712 0.0
H1429 H 0.24675 0.83392 0.72973 0.0
C1430 C 0.22789 0.77683 0.74677 0.0
C1431 C 0.22137 0.74779 0.75149 0.0
C1432 C 0.24816 0.79567 0.70527 0.0
C1433 C 0.23502 0.73804 0.71346 0.0
C1434 C 0.2543 0.75618 0.67176 0.0
C1435 C 0.28087 0.80313 0.62553 0.0
C1436 C 0.28875 0.83244 0.62054 0.0
C1437 C 0.26112 0.78497 0.66735 0.0
C1438 C 0.27639 0.84324 0.65946 0.0
C1439 C 0.25614 0.82501 0.70095 0.0
H1440 H 0.26036 0.99518 0.62527 0.0
H1441 H 0.29522 0.9972 0.79435 0.0
H1442 H 0.32218 0.9754 0.75526 0.0
H1443 H 0.33499 0.95423 0.67294 0.0
H1444 H 0.29969 0.95259 0.50469 0.0
H1445 H 0.27395 0.97554 0.54359 0.0
C1446 C 0.27399 0.99113 0.65382 0.0
C1447 C 0.27555 0.99803 0.71306 0.0
C1448 C 0.28939 0.9784 0.63107 0.0
C1449 C 0.29342 0.9923 0.74873 0.0
C1450 C 0.30887 0.97971 0.72634 0.0
C1451 C 0.32179 0.95905 0.64475 0.0
C1452 C 0.3194 0.95161 0.58571 0.0
C1453 C 0.30689 0.97242 0.66759 0.0
C1454 C 0.30207 0.95802 0.55009 0.0
C1455 C 0.28727 0.97118 0.57238 0.0
H1456 H 0.04803 0.29628 0.63223 0.0
H1457 H 0.07991 0.33108 0.80137 0.0
H1458 H 0.10297 0.37997 0.76199 0.0
H1459 H 0.11553 0.41315 0.67824 0.0
H1460 H 0.08186 0.37778 0.5102 0.0
H1461 H 0.05806 0.32922 0.5503 0.0
C1462 C 0.05985 0.31455 0.66067 0.0
C1463 C 0.06216 0.30979 0.71989 0.0
C1464 C 0.07285 0.3427 0.63776 0.0
C1465 C 0.07747 0.33391 0.75585 0.0
C1466 C 0.09083 0.36196 0.73321 0.0
C1467 C 0.10282 0.39482 0.65049 0.0
C1468 C 0.10067 0.39929 0.59101 0.0
C1469 C 0.08887 0.36668 0.67409 0.0
C1470 C 0.08405 0.37516 0.55592 0.0
C1471 C 0.0704 0.34727 0.57888 0.0
H1472 H 0.64028 0.71841 0.67592 0.0
H1473 H 0.67368 0.75304 0.50757 0.0
H1474 H 0.72225 0.77982 0.54718 0.0
H1475 H 0.75533 0.79453 0.62927 0.0
H1476 H 0.72303 0.7604 0.79858 0.0
H1477 H 0.67431 0.73232 0.75893 0.0
C1478 C 0.65823 0.73169 0.6479 0.0
C1479 C 0.65317 0.73362 0.58864 0.0
C1480 C 0.68643 0.74721 0.67114 0.0
C1481 C 0.67678 0.75103 0.55315 0.0
C1482 C 0.70466 0.76643 0.57584 0.0
C1483 C 0.73777 0.78088 0.6578 0.0
C1484 C 0.74319 0.77984 0.71721 0.0
C1485 C 0.70975 0.76483 0.63475 0.0
C1486 C 0.7198 0.76183 0.75284 0.0
C1487 C 0.69181 0.74573 0.73012 0.0
H1488 H 0.92677 0.32653 0.96129 0.0
H1489 H 0.95956 0.3262 0.13133 0.0
H1490 H 0.98657 0.30443 0.09227 0.0
H1491 H 0.99995 0.28387 1.00959 0.0
H1492 H 0.96665 0.2846 0.84042 0.0
H1493 H 0.94097 0.30758 0.87938 0.0
C1494 C 0.93996 0.32197 0.99008 0.0
C1495 C 0.94091 0.3282 0.04958 0.0
C1496 C 0.95538 0.30924 0.96734 0.0
C1497 C 0.95824 0.32184 0.08552 0.0
C1498 C 0.97371 0.30925 0.06313 0.0
C1499 C 0.98719 0.2892 0.98123 0.0
C1500 C 0.98536 0.28241 0.92188 0.0
C1501 C 0.9723 0.3026 1.00411 0.0
C1502 C 0.9686 0.2895 0.88605 0.0
C1503 C 0.95383 0.30269 0.90838 0.0
H1504 H 0.72901 0.63093 0.96019 0.0
H1505 H 0.72268 0.66183 0.1281 0.0
H1506 H 0.74358 0.71073 0.0896 0.0
H1507 H 0.7652 0.74534 1.00815 0.0
H1508 H 0.77107 0.71336 0.84123 0.0
H1509 H 0.74899 0.66459 0.87953 0.0
C1510 C 0.73194 0.6482 0.98863 0.0
C1511 C 0.72412 0.64234 0.04732 0.0
C1512 C 0.74412 0.67635 0.96627 0.0
C1513 C 0.72833 0.66539 0.08287 0.0
C1514 C 0.7404 0.69349 0.06083 0.0
C1515 C 0.76148 0.72766 0.98014 0.0
C1516 C 0.76985 0.73318 0.92167 0.0
C1517 C 0.74862 0.69933 1.00262 0.0
C1518 C 0.76488 0.70991 0.8862 0.0
C1519 C 0.75223 0.68191 0.90814 0.0
H1520 H 0.30945 0.0528 1.00757 0.0
H1521 H 0.34295 0.08857 0.83995 0.0
H1522 H 0.39163 0.11435 0.87945 0.0
H1523 H 0.4248 0.12797 0.9614 0.0
H1524 H 0.39227 0.09284 0.13002 0.0
H1525 H 0.3435 0.06557 0.09028 0.0
C1526 C 0.32744 0.06611 0.97966 0.0
C1527 C 0.32237 0.06865 0.92064 0.0
C1528 C 0.3557 0.08105 1.00284 0.0
C1529 C 0.34604 0.08609 0.88533 0.0
C1530 C 0.37399 0.10091 0.90796 0.0
C1531 C 0.40719 0.11423 0.98974 0.0
C1532 C 0.41259 0.11267 0.04901 0.0
C1533 C 0.3791 0.09871 0.96666 0.0
C1534 C 0.3891 0.09461 0.08438 0.0
C1535 C 0.36106 0.079 0.06162 0.0
H1536 H 0.78914 0.0608 0.40953 0.0
H1537 H 0.75715 0.0627 0.2395 0.0
H1538 H 0.72963 0.08377 0.27972 0.0
H1539 H 0.71592 0.10345 0.36363 0.0
H1540 H 0.74878 0.10099 0.53237 0.0
H1541 H 0.77466 0.07859 0.49204 0.0
C1542 C 0.77606 0.06558 0.3809 0.0
C1543 C 0.77544 0.06005 0.32119 0.0
C1544 C 0.76045 0.07784 0.40424 0.0
C1545 C 0.75815 0.06654 0.2855 0.0
C1546 C 0.74244 0.07873 0.30854 0.0
C1547 C 0.72859 0.09781 0.39155 0.0
C1548 C 0.73029 0.10394 0.45118 0.0
C1549 C 0.7436 0.08475 0.36788 0.0
C1550 C 0.74693 0.09653 0.48655 0.0
C1551 C 0.76182 0.0837 0.46345 0.0
H1552 H 0.97388 0.72125 0.26441 0.0
H1553 H 0.02251 0.77193 0.41075 0.0
H1554 H 1.0044 0.72871 0.46946 0.0
H1555 H 0.97222 0.67653 0.48233 0.0
H1556 H 0.9229 0.62527 0.33736 0.0
H1557 H 0.9435 0.66809 0.27607 0.0
C1558 C 0.981 0.72273 0.30871 0.0
C1559 C 0.9997 0.75004 0.33273 0.0
C1560 C 0.96996 0.6975 0.34322 0.0
C1561 C 1.00818 0.75136 0.3908 0.0
C1562 C 0.99771 0.72657 0.42474 0.0
C1563 C 0.96612 0.67469 0.43724 0.0
C1564 C 0.94593 0.64757 0.4148 0.0
C1565 C 0.97812 0.69955 0.40193 0.0
C1566 C 0.93838 0.64576 0.35606 0.0
C1567 C 0.95019 0.67034 0.3208 0.0
H1568 H 0.41087 0.3381 0.35961 0.0
H1569 H 0.37807 0.30348 0.52827 0.0
H1570 H 0.32938 0.27663 0.48929 0.0
H1571 H 0.29595 0.2619 0.40772 0.0
H1572 H 0.32756 0.29594 0.23806 0.0
H1573 H 0.37646 0.32404 0.27701 0.0
C1574 C 0.39302 0.3248 0.38784 0.0
C1575 C 0.39833 0.32294 0.44706 0.0
C1576 C 0.36471 0.30923 0.36494 0.0
C1577 C 0.37482 0.30549 0.48275 0.0
C1578 C 0.34686 0.29003 0.46042 0.0
C1579 C 0.31338 0.27555 0.37894 0.0
C1580 C 0.30769 0.27655 0.31963 0.0
C1581 C 0.34152 0.29161 0.40161 0.0
C1582 C 0.33096 0.29454 0.28372 0.0
C1583 C 0.35907 0.31064 0.30605 0.0
H1584 H 0.05 0.76982 0.02846 0.0
H1585 H 0.08638 0.77151 0.19561 0.0
H1586 H 0.11268 0.74954 0.15507 0.0
H1587 H 0.1264 0.73082 0.07267 0.0
H1588 H 0.09082 0.72865 0.90429 0.0
H1589 H 0.06315 0.74949 0.94483 0.0
C1590 C 0.06356 0.76522 0.05603 0.0
C1591 C 0.06609 0.77238 0.11528 0.0
C1592 C 0.07883 0.75244 0.0322 0.0
C1593 C 0.08388 0.76627 0.1501 0.0
C1594 C 0.099 0.75368 0.12687 0.0
C1595 C 0.11253 0.73468 0.04446 0.0
C1596 C 0.11094 0.72804 0.98506 0.0
C1597 C 0.09678 0.74679 0.06801 0.0
C1598 C 0.09265 0.7334 0.94998 0.0
C1599 C 0.07681 0.74543 0.97323 0.0
H1600 H 0.32427 0.42397 0.07384 0.0
H1601 H 0.32316 0.39091 0.90375 0.0
H1602 H 0.30188 0.34215 0.94328 0.0
H1603 H 0.28192 0.30838 0.02647 0.0
H1604 H 0.28364 0.34267 0.19547 0.0
H1605 H 0.30617 0.3912 0.15592 0.0
C1606 C 0.3196 0.40624 0.04508 0.0
C1607 C 0.32539 0.41143 0.98553 0.0
C1608 C 0.30725 0.37824 0.06804 0.0
C1609 C 0.31904 0.38784 0.94962 0.0
C1610 C 0.30677 0.35984 0.97226 0.0
C1611 C 0.2874 0.32652 0.05462 0.0
C1612 C 0.28102 0.32174 0.11404 0.0
C1613 C 0.30052 0.35469 0.03142 0.0
C1614 C 0.28826 0.34556 0.14975 0.0
C1615 C 0.30117 0.37341 0.12711 0.0
H1616 H 0.65487 0.98168 0.9685 0.0
H1617 H 0.63059 0.89529 0.02009 0.0
H1618 H 0.67547 0.91303 0.07365 0.0
H1619 H 0.72095 0.95299 0.10986 0.0
H1620 H 0.74593 0.03995 0.06195 0.0
H1621 H 0.70199 0.02236 1.00379 0.0
C1622 C 0.65973 0.9668 0.99067 0.0
C1623 C 0.6394 0.93707 0.98964 0.0
C1624 C 0.6857 0.97732 0.02291 0.0
C1625 C 0.64586 0.91819 0.01972 0.0
C1626 C 0.67153 0.92834 0.0507 0.0
C1627 C 0.71684 0.96815 0.0867 0.0
C1628 C 0.73682 0.99783 0.09071 0.0
C1629 C 0.69147 0.95786 0.05335 0.0
C1630 C 0.731 0.01702 0.06 0.0
C1631 C 0.70581 1.00693 0.02654 0.0
H1632 H 0.66623 0.61732 0.34009 0.0
H1633 H 0.63097 0.61676 0.17231 0.0
H1634 H 0.60487 0.63902 0.21255 0.0
H1635 H 0.59099 0.65768 0.29496 0.0
H1636 H 0.62564 0.65877 0.46381 0.0
H1637 H 0.65304 0.63762 0.42356 0.0
C1638 C 0.65295 0.62222 0.31233 0.0
C1639 C 0.65065 0.61529 0.253 0.0
C1640 C 0.63782 0.63518 0.33596 0.0
C1641 C 0.63325 0.6218 0.2179 0.0
C1642 C 0.61825 0.63456 0.24096 0.0
C1643 C 0.60461 0.65351 0.3233 0.0
C1644 C 0.606 0.65993 0.38276 0.0
C1645 C 0.62024 0.64122 0.2999 0.0
C1646 C 0.62395 0.65419 0.41807 0.0
C1647 C 0.63965 0.64198 0.39499 0.0
H1648 H 0.46228 0.05563 0.25223 0.0
H1649 H 0.40729 0.08539 0.32074 0.0
H1650 H 0.38273 0.04212 0.38115 0.0
H1651 H 0.37573 0.99414 0.41223 0.0
H1652 H 0.43167 0.96601 0.34077 0.0
H1653 H 0.45688 1.01 0.28498 0.0
C1654 C 0.4449 0.05271 0.28031 0.0
C1655 C 0.43655 0.0737 0.28142 0.0
C1656 C 0.43101 0.02788 0.31502 0.0
C1657 C 0.41408 0.06951 0.31858 0.0
C1658 C 0.40006 0.04475 0.35335 0.0
C1659 C 0.39375 0.99797 0.38524 0.0
C1660 C 0.40172 0.97664 0.38092 0.0
C1661 C 0.40821 0.02358 0.35188 0.0
C1662 C 0.42495 0.9819 0.34498 0.0
C1663 C 0.43942 1.0071 0.31274 0.0
H1664 H 0.05162 0.43788 0.43987 0.0
H1665 H 0.10201 0.44199 0.29194 0.0
H1666 H 0.05854 0.41594 0.23419 0.0
H1667 H 1.00616 0.39444 0.22259 0.0
H1668 H 0.95499 0.39028 0.36887 0.0
H1669 H 0.99821 0.41356 0.42938 0.0
C1670 C 0.053 0.43254 0.3954 0.0
C1671 C 0.08031 0.44204 0.37065 0.0
C1672 C 0.02759 0.41771 0.36144 0.0
C1673 C 0.08148 0.43516 0.31243 0.0
C1674 C 0.05653 0.42026 0.27905 0.0
C1675 C 1.00442 0.3984 0.26782 0.0
C1676 C 0.97722 0.39054 0.29087 0.0
C1677 C 0.02948 0.41189 0.30259 0.0
C1678 C 0.97554 0.39597 0.34974 0.0
C1679 C 1.00034 0.40936 0.38453 0.0
H1680 H 0.46097 0.39906 0.74168 0.0
H1681 H 0.42541 0.39588 0.57277 0.0
H1682 H 0.39703 0.41605 0.61225 0.0
H1683 H 0.38327 0.43614 0.69486 0.0
H1684 H 0.41926 0.43874 0.86289 0.0
H1685 H 0.44637 0.41739 0.82354 0.0
C1686 C 0.44695 0.40257 0.71322 0.0
C1687 C 0.44559 0.3959 0.65398 0.0
C1688 C 0.43072 0.41427 0.73616 0.0
C1689 C 0.42709 0.40074 0.6184 0.0
C1690 C 0.41082 0.41236 0.641 0.0
C1691 C 0.39692 0.43186 0.72287 0.0
C1692 C 0.39915 0.4391 0.78192 0.0
C1693 C 0.4126 0.41944 0.6998 0.0
C1694 C 0.41702 0.43342 0.81744 0.0
C1695 C 0.43261 0.4212 0.79492 0.0
H1696 H 0.63972 0.0542 0.59957 0.0
H1697 H 0.68823 0.10448 0.74643 0.0
H1698 H 0.67067 0.06105 0.8042 0.0
H1699 H 0.63901 1.00885 0.81614 0.0
H1700 H 0.58951 0.9579 0.67103 0.0
H1701 H 0.60972 1.00095 0.61035 0.0
C1702 C 0.64689 0.05554 0.64379 0.0
C1703 C 0.66538 0.08278 0.6683 0.0
C1704 C 0.63617 0.0302 0.67775 0.0
C1705 C 0.67401 0.08396 0.72619 0.0
C1706 C 0.66388 0.05906 0.75956 0.0
C1707 C 0.63283 1.00711 0.77112 0.0
C1708 C 0.61272 0.98004 0.74842 0.0
C1709 C 0.6445 0.03208 0.73631 0.0
C1710 C 0.60498 0.97836 0.68984 0.0
C1711 C 0.61654 1.00306 0.65498 0.0
H1712 H 0.96222 0.59421 0.73951 0.0
H1713 H 0.99385 0.63078 0.57138 0.0
H1714 H 0.04265 0.65869 0.61081 0.0
H1715 H 0.07698 0.67154 0.69313 0.0
H1716 H 0.04415 0.63433 0.8602 0.0
H1717 H 0.9955 0.60794 0.82097 0.0
C1718 C 0.97963 0.60839 0.7112 0.0
C1719 C 0.97401 0.61016 0.65219 0.0
C1720 C 1.00769 0.62427 0.73408 0.0
C1721 C 0.99722 0.62884 0.61685 0.0
C1722 C 0.02527 0.6448 0.63942 0.0
C1723 C 0.05913 0.65778 0.72095 0.0
C1724 C 0.06438 0.655 0.77973 0.0
C1725 C 0.03086 0.64251 0.69795 0.0
C1726 C 0.04091 0.637 0.81499 0.0
C1727 C 1.01298 0.62183 0.79253 0.0
loop_
_geom_bond_atom_site_label_1
_geom_bond_atom_site_label_2
_geom_bond_distance
_geom_bond_site_symmetry_2
_ccdc_geom_bond_type
Co0 H3 2.400 1_545 S
Co0 O4 2.009 1_545 S
Co0 O12 2.108 . S
Co0 O13 2.315 1_545 S
Co0 O24 2.053 1_545 S
Co0 O27 2.094 . S
Co0 O30 2.122 . S
Co1 O4 2.126 1_545 S
Co1 H5 2.388 . S
Co1 O6 2.053 . S
Co1 O9 2.047 . S
Co1 O15 2.113 1_545 S
Co1 O26 2.063 . S
Co2 H3 2.388 . S
Co2 O4 2.053 . S
Co2 O6 2.126 1_565 S
Co2 O11 2.063 . S
Co2 O25 2.047 . S
Co2 O31 2.113 1_565 S
H3 Co0 2.400 1_565 S
H3 Co2 2.388 . S
H3 O4 0.760 . S
O4 Co0 2.009 1_565 S
O4 Co1 2.126 1_565 S
O4 Co2 2.053 . S
O4 H3 0.760 . S
H5 Co1 2.388 . S
H5 O6 0.760 . S
H5 Co7 2.400 . S
O6 Co1 2.053 . S
O6 Co2 2.126 1_545 S
O6 H5 0.760 . S
O6 Co7 2.009 . S
Co7 H5 2.400 . S
Co7 O6 2.009 . S
Co7 O8 2.053 . S
Co7 O10 2.094 1_545 S
Co7 O14 2.122 1_545 S
Co7 O28 2.115 . S
Co7 O29 2.315 . S
O8 Co7 2.053 . S
O8 C20 1.259 . S
O9 Co1 2.047 . S
O9 C20 1.257 . S
O10 Co7 2.094 1_565 S
O10 C21 1.253 . S
O11 Co2 2.063 . S
O11 C21 1.268 . S
O12 Co0 2.108 . S
O12 C22 1.275 1_545 S
O13 Co0 2.315 1_565 S
O13 C22 1.252 . S
O14 Co7 2.122 1_565 S
O14 C23 1.272 . S
O15 Co1 2.113 1_565 S
O15 C23 1.245 . S
C16 O24 1.259 . S
C16 O25 1.257 . S
C17 O26 1.268 . S
C17 O27 1.253 . S
C18 O28 1.281 . S
C18 O29 1.252 . S
C19 O30 1.272 . S
C19 O31 1.245 . S
C20 O8 1.259 . S
C20 O9 1.257 . S
C21 O10 1.253 . S
C21 O11 1.268 . S
C22 O12 1.275 1_565 S
C22 O13 1.252 . S
C23 O14 1.272 . S
C23 O15 1.245 . S
O24 Co0 2.053 1_565 S
O24 C16 1.259 . S
O25 Co2 2.047 . S
O25 C16 1.257 . S
O26 Co1 2.063 . S
O26 C17 1.268 . S
O27 Co0 2.094 . S
O27 C17 1.253 . S
O28 Co7 2.115 . S
O28 C18 1.281 . S
O29 Co7 2.315 . S
O29 C18 1.252 . S
O30 Co0 2.122 . S
O30 C19 1.272 . S
O31 Co2 2.113 1_545 S
O31 C19 1.245 . S
Co32 H35 2.400 . S
Co32 O36 2.009 . S
Co32 O44 2.115 . S
Co32 O45 2.315 . S
Co32 O56 2.053 . S
Co32 O59 2.094 1_455 S
Co32 O62 2.122 1_455 S
Co33 O36 2.126 1_655 S
Co33 H37 2.388 . S
Co33 O38 2.053 . S
Co33 O41 2.047 . S
Co33 O47 2.113 1_655 S
Co33 O58 2.063 . S
Co34 H35 2.388 . S
Co34 O36 2.053 . S
Co34 O38 2.126 1_455 S
Co34 O43 2.063 . S
Co34 O57 2.047 . S
Co34 O63 2.113 1_455 S
H35 Co32 2.400 . S
H35 Co34 2.388 . S
H35 O36 0.760 . S
O36 Co32 2.009 . S
O36 Co33 2.126 1_455 S
O36 Co34 2.053 . S
O36 H35 0.760 . S
H37 Co33 2.388 . S
H37 O38 0.760 . S
H37 Co39 2.400 . S
O38 Co33 2.053 . S
O38 Co34 2.126 1_655 S
O38 H37 0.760 . S
O38 Co39 2.007 . S
Co39 H37 2.400 . S
Co39 O38 2.007 . S
Co39 O40 2.056 . S
Co39 O42 2.091 1_655 S
Co39 O46 2.114 1_655 S
Co39 O60 2.119 . S
Co39 O61 2.324 . S
O40 Co39 2.056 . S
O40 C52 1.259 . S
O41 Co33 2.047 . S
O41 C52 1.257 . S
O42 Co39 2.091 1_455 S
O42 C53 1.253 . S
O43 Co34 2.063 . S
O43 C53 1.268 . S
O44 Co32 2.115 . S
O44 C54 1.281 . S
O45 Co32 2.315 . S
O45 C54 1.252 . S
O46 Co39 2.114 1_455 S
O46 C55 1.272 . S
O47 Co33 2.113 1_455 S
O47 C55 1.245 . S
C48 O56 1.259 . S
C48 O57 1.257 . S
C49 O58 1.268 . S
C49 O59 1.253 . S
C50 O60 1.281 . S
C50 O61 1.252 . S
C51 O62 1.272 . S
C51 O63 1.245 . S
C52 O40 1.259 . S
C52 O41 1.257 . S
C53 O42 1.253 . S
C53 O43 1.268 . S
C54 O44 1.281 . S
C54 O45 1.252 . S
C55 O46 1.272 . S
C55 O47 1.245 . S
O56 Co32 2.053 . S
O56 C48 1.259 . S
O57 Co34 2.047 . S
O57 C48 1.257 . S
O58 Co33 2.063 . S
O58 C49 1.268 . S
O59 Co32 2.094 1_655 S
O59 C49 1.253 . S
O60 Co39 2.119 . S
O60 C50 1.281 . S
O61 Co39 2.324 . S
O61 C50 1.252 . S
O62 Co32 2.122 1_655 S
O62 C51 1.272 . S
O63 Co34 2.113 1_655 S
O63 C51 1.245 . S
Co64 H67 2.400 . S
Co64 O68 2.009 . S
Co64 O76 2.115 . S
Co64 O77 2.315 . S
Co64 O88 2.053 . S
Co64 O91 2.094 . S
Co64 O94 2.122 . S
Co65 O68 2.126 . S
Co65 H69 2.388 . S
Co65 O70 2.053 . S
Co65 O73 2.047 . S
Co65 O79 2.113 . S
Co65 O90 2.063 . S
Co66 H67 2.388 . S
Co66 O68 2.053 . S
Co66 O70 2.126 . S
Co66 O75 2.063 . S
Co66 O89 2.047 . S
Co66 O95 2.113 . S
H67 Co64 2.400 . S
H67 Co66 2.388 . S
H67 O68 0.760 . S
O68 Co64 2.009 . S
O68 Co65 2.126 . S
O68 Co66 2.053 . S
O68 H67 0.760 . S
H69 Co65 2.388 . S
H69 O70 0.760 . S
H69 Co71 2.400 . S
O70 Co65 2.053 . S
O70 Co66 2.126 . S
O70 H69 0.760 . S
O70 Co71 2.009 . S
Co71 H69 2.400 . S
Co71 O70 2.009 . S
Co71 O72 2.053 . S
Co71 O74 2.094 . S
Co71 O78 2.122 . S
Co71 O92 2.115 . S
Co71 O93 2.315 . S
O72 Co71 2.053 . S
O72 C84 1.259 . S
O73 Co65 2.047 . S
O73 C84 1.257 . S
O74 Co71 2.094 . S
O74 C85 1.253 . S
O75 Co66 2.063 . S
O75 C85 1.268 . S
O76 Co64 2.115 . S
O76 C86 1.281 . S
O77 Co64 2.315 . S
O77 C86 1.252 . S
O78 Co71 2.122 . S
O78 C87 1.272 . S
O79 Co65 2.113 . S
O79 C87 1.245 . S
C80 O88 1.259 . S
C80 O89 1.257 . S
C81 O90 1.268 . S
C81 O91 1.253 . S
C82 O92 1.281 . S
C82 O93 1.252 . S
C83 O94 1.272 . S
C83 O95 1.245 . S
C84 O72 1.259 . S
C84 O73 1.257 . S
C85 O74 1.253 . S
C85 O75 1.268 . S
C86 O76 1.281 . S
C86 O77 1.252 . S
C87 O78 1.272 . S
C87 O79 1.245 . S
O88 Co64 2.053 . S
O88 C80 1.259 . S
O89 Co66 2.047 . S
O89 C80 1.257 . S
O90 Co65 2.063 . S
O90 C81 1.268 . S
O91 Co64 2.094 . S
O91 C81 1.253 . S
O92 Co71 2.115 . S
O92 C82 1.281 . S
O93 Co71 2.315 . S
O93 C82 1.252 . S
O94 Co64 2.122 . S
O94 C83 1.272 . S
O95 Co66 2.113 . S
O95 C83 1.245 . S
Co96 H99 2.400 1_545 S
Co96 O100 2.009 . S
Co96 O108 2.115 . S
Co96 O109 2.315 1_545 S
Co96 O120 2.053 1_545 S
Co96 O123 2.094 . S
Co96 O126 2.122 . S
Co97 O100 2.126 . S
Co97 H101 2.388 . S
Co97 O102 2.053 . S
Co97 O105 2.047 . S
Co97 O111 2.113 . S
Co97 O122 2.063 . S
Co98 H99 2.384 . S
Co98 O100 2.046 1_565 S
Co98 O102 2.119 1_565 S
Co98 O107 2.057 . S
Co98 O121 2.054 . S
Co98 O127 2.105 1_565 S
H99 Co96 2.400 1_565 S
H99 Co98 2.384 . S
H99 O100 0.760 1_565 S
O100 Co96 2.009 . S
O100 Co97 2.126 . S
O100 Co98 2.046 1_545 S
O100 H99 0.760 1_545 S
H101 Co97 2.388 . S
H101 O102 0.760 . S
H101 Co103 2.400 . S
O102 Co97 2.053 . S
O102 Co98 2.119 1_545 S
O102 H101 0.760 . S
O102 Co103 2.009 . S
Co103 H101 2.400 . S
Co103 O102 2.009 . S
Co103 O104 2.053 . S
Co103 O106 2.097 1_545 S
Co103 O110 2.122 1_545 S
Co103 O124 2.115 . S
Co103 O125 2.315 . S
O104 Co103 2.053 . S
O104 C116 1.259 . S
O105 Co97 2.047 . S
O105 C116 1.257 . S
O106 Co103 2.097 1_565 S
O106 C117 1.253 . S
O107 Co98 2.057 . S
O107 C117 1.280 . S
O108 Co96 2.115 . S
O108 C118 1.281 1_545 S
O109 Co96 2.315 1_565 S
O109 C118 1.252 . S
O110 Co103 2.122 1_565 S
O110 C119 1.272 . S
O111 Co97 2.113 . S
O111 C119 1.245 1_545 S
C112 O120 1.259 . S
C112 O121 1.257 . S
C113 O122 1.268 . S
C113 O123 1.253 . S
C114 O124 1.281 . S
C114 O125 1.252 . S
C115 O126 1.272 . S
C115 O127 1.245 . S
C116 O104 1.259 . S
C116 O105 1.257 . S
C117 O106 1.253 . S
C117 O107 1.280 . S
C118 O108 1.281 1_565 S
C118 O109 1.252 . S
C119 O110 1.272 . S
C119 O111 1.245 1_565 S
O120 Co96 2.053 1_565 S
O120 C112 1.259 . S
O121 Co98 2.054 . S
O121 C112 1.257 . S
O122 Co97 2.063 . S
O122 C113 1.268 . S
O123 Co96 2.094 . S
O123 C113 1.253 . S
O124 Co103 2.115 . S
O124 C114 1.281 . S
O125 Co103 2.315 . S
O125 C114 1.252 . S
O126 Co96 2.122 . S
O126 C115 1.272 . S
O127 Co98 2.105 1_545 S
O127 C115 1.245 . S
Co128 H131 2.400 . S
Co128 O132 2.009 . S
Co128 O140 2.115 . S
Co128 O141 2.315 . S
Co128 O152 2.053 . S
Co128 O155 2.094 1_455 S
Co128 O158 2.122 1_455 S
Co129 O132 2.126 1_655 S
Co129 H133 2.388 . S
Co129 O134 2.053 . S
Co129 O137 2.047 . S
Co129 O143 2.113 1_655 S
Co129 O154 2.063 . S
Co130 H131 2.388 . S
Co130 O132 2.053 . S
Co130 O134 2.126 1_455 S
Co130 O139 2.063 . S
Co130 O153 2.047 . S
Co130 O159 2.113 1_455 S
H131 Co128 2.400 . S
H131 Co130 2.388 . S
H131 O132 0.760 . S
O132 Co128 2.009 . S
O132 Co129 2.126 1_455 S
O132 Co130 2.053 . S
O132 H131 0.760 . S
H133 Co129 2.388 . S
H133 O134 0.760 . S
H133 Co135 2.400 . S
O134 Co129 2.053 . S
O134 Co130 2.126 1_655 S
O134 H133 0.760 . S
O134 Co135 2.009 . S
Co135 H133 2.400 . S
Co135 O134 2.009 . S
Co135 O136 2.053 . S
Co135 O138 2.094 1_655 S
Co135 O142 2.122 1_655 S
Co135 O156 2.115 . S
Co135 O157 2.315 . S
O136 Co135 2.053 . S
O136 C148 1.259 . S
O137 Co129 2.047 . S
O137 C148 1.257 . S
O138 Co135 2.094 1_455 S
O138 C149 1.253 . S
O139 Co130 2.063 . S
O139 C149 1.268 . S
O140 Co128 2.115 . S
O140 C150 1.281 . S
O141 Co128 2.315 . S
O141 C150 1.252 . S
O142 Co135 2.122 1_455 S
O142 C151 1.272 . S
O143 Co129 2.113 1_455 S
O143 C151 1.245 . S
C144 O152 1.259 . S
C144 O153 1.257 . S
C145 O154 1.268 . S
C145 O155 1.253 . S
C146 O156 1.281 . S
C146 O157 1.252 . S
C147 O158 1.272 . S
C147 O159 1.245 . S
C148 O136 1.259 . S
C148 O137 1.257 . S
C149 O138 1.253 . S
C149 O139 1.268 . S
C150 O140 1.281 . S
C150 O141 1.252 . S
C151 O142 1.272 . S
C151 O143 1.245 . S
O152 Co128 2.053 . S
O152 C144 1.259 . S
O153 Co130 2.047 . S
O153 C144 1.257 . S
O154 Co129 2.063 . S
O154 C145 1.268 . S
O155 Co128 2.094 1_655 S
O155 C145 1.253 . S
O156 Co135 2.115 . S
O156 C146 1.281 . S
O157 Co135 2.315 . S
O157 C146 1.252 . S
O158 Co128 2.122 1_655 S
O158 C147 1.272 . S
O159 Co130 2.113 1_655 S
O159 C147 1.245 . S
Co160 H163 2.400 . S
Co160 O164 2.009 . S
Co160 O172 2.115 . S
Co160 O173 2.315 . S
Co160 O184 2.053 . S
Co160 O187 2.094 . S
Co160 O190 2.122 . S
Co161 O164 2.126 . S
Co161 H165 2.388 . S
Co161 O166 2.053 . S
Co161 O169 2.047 . S
Co161 O175 2.113 . S
Co161 O186 2.063 . S
Co162 H163 2.388 . S
Co162 O164 2.053 . S
Co162 O166 2.126 . S
Co162 O171 2.063 . S
Co162 O185 2.047 . S
Co162 O191 2.113 . S
H163 Co160 2.400 . S
H163 Co162 2.388 . S
H163 O164 0.760 . S
O164 Co160 2.009 . S
O164 Co161 2.126 . S
O164 Co162 2.053 . S
O164 H163 0.760 . S
H165 Co161 2.388 . S
H165 O166 0.760 . S
H165 Co167 2.400 . S
O166 Co161 2.053 . S
O166 Co162 2.126 . S
O166 H165 0.760 . S
O166 Co167 2.009 . S
Co167 H165 2.400 . S
Co167 O166 2.009 . S
Co167 O168 2.053 . S
Co167 O170 2.094 . S
Co167 O174 2.122 . S
Co167 O188 2.115 . S
Co167 O189 2.315 . S
O168 Co167 2.053 . S
O168 C180 1.259 . S
O169 Co161 2.047 . S
O169 C180 1.257 . S
O170 Co167 2.094 . S
O170 C181 1.253 . S
O171 Co162 2.063 . S
O171 C181 1.268 . S
O172 Co160 2.115 . S
O172 C182 1.281 . S
O173 Co160 2.315 . S
O173 C182 1.252 . S
O174 Co167 2.122 . S
O174 C183 1.272 . S
O175 Co161 2.113 . S
O175 C183 1.245 . S
C176 O184 1.259 . S
C176 O185 1.257 . S
C177 O186 1.268 . S
C177 O187 1.253 . S
C178 O188 1.281 . S
C178 O189 1.252 . S
C179 O190 1.272 . S
C179 O191 1.245 . S
C180 O168 1.259 . S
C180 O169 1.257 . S
C181 O170 1.253 . S
C181 O171 1.268 . S
C182 O172 1.281 . S
C182 O173 1.252 . S
C183 O174 1.272 . S
C183 O175 1.245 . S
O184 Co160 2.053 . S
O184 C176 1.259 . S
O185 Co162 2.047 . S
O185 C176 1.257 . S
O186 Co161 2.063 . S
O186 C177 1.268 . S
O187 Co160 2.094 . S
O187 C177 1.253 . S
O188 Co167 2.115 . S
O188 C178 1.281 . S
O189 Co167 2.315 . S
O189 C178 1.252 . S
O190 Co160 2.122 . S
O190 C179 1.272 . S
O191 Co162 2.113 . S
O191 C179 1.245 . S
Co192 H195 2.400 . S
Co192 O196 2.009 . S
Co192 O204 2.115 1_554 S
Co192 O205 2.315 . S
Co192 O216 2.053 1_554 S
Co192 O219 2.094 . S
Co192 O222 2.122 1_554 S
Co193 O196 2.126 . S
Co193 H197 2.388 . S
Co193 O198 2.053 . S
Co193 O201 2.047 . S
Co193 O207 2.113 . S
Co193 O218 2.063 . S
Co194 H195 2.388 . S
Co194 O196 2.053 . S
Co194 O198 2.126 . S
Co194 O203 2.063 . S
Co194 O217 2.047 1_554 S
Co194 O223 2.113 1_554 S
H195 Co192 2.400 . S
H195 Co194 2.388 . S
H195 O196 0.760 . S
O196 Co192 2.009 . S
O196 Co193 2.126 . S
O196 Co194 2.053 . S
O196 H195 0.760 . S
H197 Co193 2.388 . S
H197 O198 0.760 . S
H197 Co199 2.400 . S
O198 Co193 2.053 . S
O198 Co194 2.126 . S
O198 H197 0.760 . S
O198 Co199 2.009 . S
Co199 H197 2.400 . S
Co199 O198 2.009 . S
Co199 O200 2.053 . S
Co199 O202 2.094 . S
Co199 O206 2.122 . S
Co199 O220 2.115 . S
Co199 O221 2.315 . S
O200 Co199 2.053 . S
O200 C212 1.259 . S
O201 Co193 2.047 . S
O201 C212 1.257 . S
O202 Co199 2.094 . S
O202 C213 1.253 . S
O203 Co194 2.063 . S
O203 C213 1.268 . S
O204 Co192 2.115 1_556 S
O204 C214 1.281 . S
O205 Co192 2.315 . S
O205 C214 1.252 1_554 S
O206 Co199 2.122 . S
O206 C215 1.272 . S
O207 Co193 2.113 . S
O207 C215 1.245 . S
C208 O216 1.259 . S
C208 O217 1.257 . S
C209 O218 1.268 . S
C209 O219 1.253 . S
C210 O220 1.281 . S
C210 O221 1.252 . S
C211 O222 1.272 . S
C211 O223 1.245 . S
C212 O200 1.259 . S
C212 O201 1.257 . S
C213 O202 1.253 . S
C213 O203 1.268 . S
C214 O204 1.281 . S
C214 O205 1.252 1_556 S
C215 O206 1.272 . S
C215 O207 1.245 . S
O216 Co192 2.053 1_556 S
O216 C208 1.259 . S
O217 Co194 2.047 1_556 S
O217 C208 1.257 . S
O218 Co193 2.063 . S
O218 C209 1.268 . S
O219 Co192 2.094 . S
O219 C209 1.253 . S
O220 Co199 2.115 . S
O220 C210 1.281 . S
O221 Co199 2.315 . S
O221 C210 1.252 . S
O222 Co192 2.122 1_556 S
O222 C211 1.272 . S
O223 Co194 2.113 1_556 S
O223 C211 1.245 . S
Co224 H227 2.400 . S
Co224 O228 2.009 . S
Co224 O236 2.115 1_554 S
Co224 O237 2.315 . S
Co224 O248 2.053 1_554 S
Co224 O251 2.094 . S
Co224 O254 2.122 1_554 S
Co225 O228 2.126 . S
Co225 H229 2.388 . S
Co225 O230 2.053 . S
Co225 O233 2.047 . S
Co225 O239 2.113 . S
Co225 O250 2.063 . S
Co226 H227 2.388 . S
Co226 O228 2.053 . S
Co226 O230 2.126 . S
Co226 O235 2.063 . S
Co226 O249 2.047 1_554 S
Co226 O255 2.113 1_554 S
H227 Co224 2.400 . S
H227 Co226 2.388 . S
H227 O228 0.760 . S
O228 Co224 2.009 . S
O228 Co225 2.126 . S
O228 Co226 2.053 . S
O228 H227 0.760 . S
H229 Co225 2.388 . S
H229 O230 0.760 . S
H229 Co231 2.400 . S
O230 Co225 2.053 . S
O230 Co226 2.126 . S
O230 H229 0.760 . S
O230 Co231 2.009 . S
Co231 H229 2.400 . S
Co231 O230 2.009 . S
Co231 O232 2.053 . S
Co231 O234 2.094 . S
Co231 O238 2.122 . S
Co231 O252 2.115 . S
Co231 O253 2.315 . S
O232 Co231 2.053 . S
O232 C244 1.259 . S
O233 Co225 2.047 . S
O233 C244 1.257 . S
O234 Co231 2.094 . S
O234 C245 1.253 . S
O235 Co226 2.063 . S
O235 C245 1.268 . S
O236 Co224 2.115 1_556 S
O236 C246 1.281 . S
O237 Co224 2.315 . S
O237 C246 1.252 1_554 S
O238 Co231 2.122 . S
O238 C247 1.272 . S
O239 Co225 2.113 . S
O239 C247 1.245 . S
C240 O248 1.259 . S
C240 O249 1.257 . S
C241 O250 1.268 . S
C241 O251 1.253 . S
C242 O252 1.281 . S
C242 O253 1.252 . S
C243 O254 1.272 . S
C243 O255 1.245 . S
C244 O232 1.259 . S
C244 O233 1.257 . S
C245 O234 1.253 . S
C245 O235 1.268 . S
C246 O236 1.281 . S
C246 O237 1.252 1_556 S
C247 O238 1.272 . S
C247 O239 1.245 . S
O248 Co224 2.053 1_556 S
O248 C240 1.259 . S
O249 Co226 2.047 1_556 S
O249 C240 1.257 . S
O250 Co225 2.063 . S
O250 C241 1.268 . S
O251 Co224 2.094 . S
O251 C241 1.253 . S
O252 Co231 2.115 . S
O252 C242 1.281 . S
O253 Co231 2.315 . S
O253 C242 1.252 . S
O254 Co224 2.122 1_556 S
O254 C243 1.272 . S
O255 Co226 2.113 1_556 S
O255 C243 1.245 . S
Co256 H259 2.400 . S
Co256 O260 2.009 . S
Co256 O268 2.115 1_554 S
Co256 O269 2.315 . S
Co256 O280 2.053 1_554 S
Co256 O283 2.094 . S
Co256 O286 2.122 1_554 S
Co257 O260 2.126 . S
Co257 H261 2.388 . S
Co257 O262 2.053 . S
Co257 O265 2.047 . S
Co257 O271 2.113 . S
Co257 O282 2.063 . S
Co258 H259 2.388 . S
Co258 O260 2.053 . S
Co258 O262 2.126 . S
Co258 O267 2.063 . S
Co258 O281 2.047 1_554 S
Co258 O287 2.113 1_554 S
H259 Co256 2.400 . S
H259 Co258 2.388 . S
H259 O260 0.760 . S
O260 Co256 2.009 . S
O260 Co257 2.126 . S
O260 Co258 2.053 . S
O260 H259 0.760 . S
H261 Co257 2.388 . S
H261 O262 0.760 . S
H261 Co263 2.400 . S
O262 Co257 2.053 . S
O262 Co258 2.126 . S
O262 H261 0.760 . S
O262 Co263 2.009 . S
Co263 H261 2.400 . S
Co263 O262 2.009 . S
Co263 O264 2.053 . S
Co263 O266 2.094 . S
Co263 O270 2.122 . S
Co263 O284 2.115 . S
Co263 O285 2.315 . S
O264 Co263 2.053 . S
O264 C276 1.259 . S
O265 Co257 2.047 . S
O265 C276 1.257 . S
O266 Co263 2.094 . S
O266 C277 1.253 . S
O267 Co258 2.063 . S
O267 C277 1.268 . S
O268 Co256 2.115 1_556 S
O268 C278 1.281 . S
O269 Co256 2.315 . S
O269 C278 1.252 1_554 S
O270 Co263 2.122 . S
O270 C279 1.272 . S
O271 Co257 2.113 . S
O271 C279 1.245 . S
C272 O280 1.259 . S
C272 O281 1.257 . S
C273 O282 1.268 . S
C273 O283 1.253 . S
C274 O284 1.281 . S
C274 O285 1.252 . S
C275 O286 1.272 . S
C275 O287 1.245 . S
C276 O264 1.259 . S
C276 O265 1.257 . S
C277 O266 1.253 . S
C277 O267 1.268 . S
C278 O268 1.281 . S
C278 O269 1.252 1_556 S
C279 O270 1.272 . S
C279 O271 1.245 . S
O280 Co256 2.053 1_556 S
O280 C272 1.259 . S
O281 Co258 2.047 1_556 S
O281 C272 1.257 . S
O282 Co257 2.063 . S
O282 C273 1.268 . S
O283 Co256 2.094 . S
O283 C273 1.253 . S
O284 Co263 2.115 . S
O284 C274 1.281 . S
O285 Co263 2.315 . S
O285 C274 1.252 . S
O286 Co256 2.122 1_556 S
O286 C275 1.272 . S
O287 Co258 2.113 1_556 S
O287 C275 1.245 . S
Co288 H291 2.400 . S
Co288 O292 2.009 . S
Co288 O300 2.115 . S
Co288 O301 2.315 . S
Co288 O312 2.053 . S
Co288 O315 2.094 . S
Co288 O318 2.122 . S
Co289 O292 2.126 . S
Co289 H293 2.388 . S
Co289 O294 2.053 . S
Co289 O297 2.047 . S
Co289 O303 2.113 . S
Co289 O314 2.063 . S
Co290 H291 2.388 . S
Co290 O292 2.053 . S
Co290 O294 2.126 . S
Co290 O299 2.063 . S
Co290 O313 2.047 . S
Co290 O319 2.113 . S
H291 Co288 2.400 . S
H291 Co290 2.388 . S
H291 O292 0.760 . S
O292 Co288 2.009 . S
O292 Co289 2.126 . S
O292 Co290 2.053 . S
O292 H291 0.760 . S
H293 Co289 2.388 . S
H293 O294 0.760 . S
H293 Co295 2.400 . S
O294 Co289 2.053 . S
O294 Co290 2.126 . S
O294 H293 0.760 . S
O294 Co295 2.009 . S
Co295 H293 2.400 . S
Co295 O294 2.009 . S
Co295 O296 2.053 . S
Co295 O298 2.094 . S
Co295 O302 2.122 . S
Co295 O316 2.115 . S
Co295 O317 2.315 . S
O296 Co295 2.053 . S
O296 C308 1.259 . S
O297 Co289 2.047 . S
O297 C308 1.257 . S
O298 Co295 2.094 . S
O298 C309 1.253 . S
O299 Co290 2.063 . S
O299 C309 1.268 . S
O300 Co288 2.115 . S
O300 C310 1.281 . S
O301 Co288 2.315 . S
O301 C310 1.252 . S
O302 Co295 2.122 . S
O302 C311 1.272 . S
O303 Co289 2.113 . S
O303 C311 1.245 . S
C304 O312 1.259 . S
C304 O313 1.257 . S
C305 O314 1.268 . S
C305 O315 1.253 . S
C306 O316 1.281 . S
C306 O317 1.252 . S
C307 O318 1.272 . S
C307 O319 1.245 . S
C308 O296 1.259 . S
C308 O297 1.257 . S
C309 O298 1.253 . S
C309 O299 1.268 . S
C310 O300 1.281 . S
C310 O301 1.252 . S
C311 O302 1.272 . S
C311 O303 1.245 . S
O312 Co288 2.053 . S
O312 C304 1.259 . S
O313 Co290 2.047 . S
O313 C304 1.257 . S
O314 Co289 2.063 . S
O314 C305 1.268 . S
O315 Co288 2.094 . S
O315 C305 1.253 . S
O316 Co295 2.115 . S
O316 C306 1.281 . S
O317 Co295 2.315 . S
O317 C306 1.252 . S
O318 Co288 2.122 . S
O318 C307 1.272 . S
O319 Co290 2.113 . S
O319 C307 1.245 . S
Co320 H323 2.400 . S
Co320 O324 2.009 . S
Co320 O332 2.115 . S
Co320 O333 2.315 . S
Co320 O344 2.053 . S
Co320 O347 2.094 . S
Co320 O350 2.122 . S
Co321 O324 2.126 . S
Co321 H325 2.388 . S
Co321 O326 2.053 . S
Co321 O329 2.047 . S
Co321 O335 2.113 . S
Co321 O346 2.063 . S
Co322 H323 2.388 . S
Co322 O324 2.053 . S
Co322 O326 2.126 . S
Co322 O331 2.063 . S
Co322 O345 2.047 . S
Co322 O351 2.113 . S
H323 Co320 2.400 . S
H323 Co322 2.388 . S
H323 O324 0.760 . S
O324 Co320 2.009 . S
O324 Co321 2.126 . S
O324 Co322 2.053 . S
O324 H323 0.760 . S
H325 Co321 2.388 . S
H325 O326 0.760 . S
H325 Co327 2.400 . S
O326 Co321 2.053 . S
O326 Co322 2.126 . S
O326 H325 0.760 . S
O326 Co327 2.009 . S
Co327 H325 2.400 . S
Co327 O326 2.009 . S
Co327 O328 2.053 . S
Co327 O330 2.094 . S
Co327 O334 2.122 . S
Co327 O348 2.115 . S
Co327 O349 2.315 . S
O328 Co327 2.053 . S
O328 C340 1.259 . S
O329 Co321 2.047 . S
O329 C340 1.257 . S
O330 Co327 2.094 . S
O330 C341 1.253 . S
O331 Co322 2.063 . S
O331 C341 1.268 . S
O332 Co320 2.115 . S
O332 C342 1.281 . S
O333 Co320 2.315 . S
O333 C342 1.252 . S
O334 Co327 2.122 . S
O334 C343 1.272 . S
O335 Co321 2.113 . S
O335 C343 1.245 . S
C336 O344 1.259 . S
C336 O345 1.257 . S
C337 O346 1.268 . S
C337 O347 1.253 . S
C338 O348 1.281 . S
C338 O349 1.252 . S
C339 O350 1.272 . S
C339 O351 1.245 . S
C340 O328 1.259 . S
C340 O329 1.257 . S
C341 O330 1.253 . S
C341 O331 1.268 . S
C342 O332 1.281 . S
C342 O333 1.252 . S
C343 O334 1.272 . S
C343 O335 1.245 . S
O344 Co320 2.053 . S
O344 C336 1.259 . S
O345 Co322 2.047 . S
O345 C336 1.257 . S
O346 Co321 2.063 . S
O346 C337 1.268 . S
O347 Co320 2.094 . S
O347 C337 1.253 . S
O348 Co327 2.115 . S
O348 C338 1.281 . S
O349 Co327 2.315 . S
O349 C338 1.252 . S
O350 Co320 2.122 . S
O350 C339 1.272 . S
O351 Co322 2.113 . S
O351 C339 1.245 . S
Co352 H355 2.400 . S
Co352 O356 2.009 . S
Co352 O364 2.115 . S
Co352 O365 2.315 . S
Co352 O376 2.053 . S
Co352 O379 2.094 . S
Co352 O382 2.122 . S
Co353 O356 2.126 . S
Co353 H357 2.388 . S
Co353 O358 2.053 . S
Co353 O361 2.047 . S
Co353 O367 2.113 . S
Co353 O378 2.063 . S
Co354 H355 2.388 . S
Co354 O356 2.053 . S
Co354 O358 2.126 . S
Co354 O363 2.063 . S
Co354 O377 2.047 . S
Co354 O383 2.113 . S
H355 Co352 2.400 . S
H355 Co354 2.388 . S
H355 O356 0.760 . S
O356 Co352 2.009 . S
O356 Co353 2.126 . S
O356 Co354 2.053 . S
O356 H355 0.760 . S
H357 Co353 2.388 . S
H357 O358 0.760 . S
H357 Co359 2.400 . S
O358 Co353 2.053 . S
O358 Co354 2.126 . S
O358 H357 0.760 . S
O358 Co359 2.009 . S
Co359 H357 2.400 . S
Co359 O358 2.009 . S
Co359 O360 2.053 . S
Co359 O362 2.094 . S
Co359 O366 2.122 . S
Co359 O380 2.115 . S
Co359 O381 2.315 . S
O360 Co359 2.053 . S
O360 C372 1.259 . S
O361 Co353 2.047 . S
O361 C372 1.257 . S
O362 Co359 2.094 . S
O362 C373 1.253 . S
O363 Co354 2.063 . S
O363 C373 1.268 . S
O364 Co352 2.115 . S
O364 C374 1.281 . S
O365 Co352 2.315 . S
O365 C374 1.252 . S
O366 Co359 2.122 . S
O366 C375 1.272 . S
O367 Co353 2.113 . S
O367 C375 1.245 . S
C368 O376 1.259 . S
C368 O377 1.257 . S
C369 O378 1.268 . S
C369 O379 1.253 . S
C370 O380 1.281 . S
C370 O381 1.252 . S
C371 O382 1.272 . S
C371 O383 1.245 . S
C372 O360 1.259 . S
C372 O361 1.257 . S
C373 O362 1.253 . S
C373 O363 1.268 . S
C374 O364 1.281 . S
C374 O365 1.252 . S
C375 O366 1.272 . S
C375 O367 1.245 . S
O376 Co352 2.053 . S
O376 C368 1.259 . S
O377 Co354 2.047 . S
O377 C368 1.257 . S
O378 Co353 2.063 . S
O378 C369 1.268 . S
O379 Co352 2.094 . S
O379 C369 1.253 . S
O380 Co359 2.115 . S
O380 C370 1.281 . S
O381 Co359 2.315 . S
O381 C370 1.252 . S
O382 Co352 2.122 . S
O382 C371 1.272 . S
O383 Co354 2.113 . S
O383 C371 1.245 . S
Co384 H387 2.400 . S
Co384 O388 2.009 . S
Co384 O396 2.115 . S
Co384 O397 2.315 . S
Co384 O408 2.053 . S
Co384 O411 2.094 . S
Co384 O414 2.122 . S
Co385 O388 2.126 . S
Co385 H389 2.388 . S
Co385 O390 2.053 . S
Co385 O393 2.047 . S
Co385 O399 2.113 . S
Co385 O410 2.063 . S
Co386 H387 2.388 . S
Co386 O388 2.053 . S
Co386 O390 2.126 . S
Co386 O395 2.063 . S
Co386 O409 2.047 . S
Co386 O415 2.113 . S
H387 Co384 2.400 . S
H387 Co386 2.388 . S
H387 O388 0.760 . S
O388 Co384 2.009 . S
O388 Co385 2.126 . S
O388 Co386 2.053 . S
O388 H387 0.760 . S
H389 Co385 2.388 . S
H389 O390 0.760 . S
H389 Co391 2.400 . S
O390 Co385 2.053 . S
O390 Co386 2.126 . S
O390 H389 0.760 . S
O390 Co391 2.009 . S
Co391 H389 2.400 . S
Co391 O390 2.009 . S
Co391 O392 2.053 . S
Co391 O394 2.094 . S
Co391 O398 2.122 . S
Co391 O412 2.115 . S
Co391 O413 2.315 . S
O392 Co391 2.053 . S
O392 C404 1.259 . S
O393 Co385 2.047 . S
O393 C404 1.257 . S
O394 Co391 2.094 . S
O394 C405 1.253 . S
O395 Co386 2.063 . S
O395 C405 1.268 . S
O396 Co384 2.115 . S
O396 C406 1.281 . S
O397 Co384 2.315 . S
O397 C406 1.252 . S
O398 Co391 2.122 . S
O398 C407 1.272 . S
O399 Co385 2.113 . S
O399 C407 1.245 . S
C400 O408 1.259 . S
C400 O409 1.257 . S
C401 O410 1.268 . S
C401 O411 1.253 . S
C402 O412 1.281 . S
C402 O413 1.252 . S
C403 O414 1.272 . S
C403 O415 1.245 . S
C404 O392 1.259 . S
C404 O393 1.257 . S
C405 O394 1.253 . S
C405 O395 1.268 . S
C406 O396 1.281 . S
C406 O397 1.252 . S
C407 O398 1.272 . S
C407 O399 1.245 . S
O408 Co384 2.053 . S
O408 C400 1.259 . S
O409 Co386 2.047 . S
O409 C400 1.257 . S
O410 Co385 2.063 . S
O410 C401 1.268 . S
O411 Co384 2.094 . S
O411 C401 1.253 . S
O412 Co391 2.115 . S
O412 C402 1.281 . S
O413 Co391 2.315 . S
O413 C402 1.252 . S
O414 Co384 2.122 . S
O414 C403 1.272 . S
O415 Co386 2.113 . S
O415 C403 1.245 . S
Co416 H419 2.400 . S
Co416 O420 2.009 . S
Co416 O428 2.115 . S
Co416 O429 2.315 . S
Co416 O440 2.053 . S
Co416 O443 2.094 . S
Co416 O446 2.122 . S
Co417 O420 2.126 . S
Co417 H421 2.388 . S
Co417 O422 2.053 . S
Co417 O425 2.047 . S
Co417 O431 2.113 . S
Co417 O442 2.063 . S
Co418 H419 2.388 . S
Co418 O420 2.053 . S
Co418 O422 2.126 . S
Co418 O427 2.063 . S
Co418 O441 2.047 . S
Co418 O447 2.113 . S
H419 Co416 2.400 . S
H419 Co418 2.388 . S
H419 O420 0.760 . S
O420 Co416 2.009 . S
O420 Co417 2.126 . S
O420 Co418 2.053 . S
O420 H419 0.760 . S
H421 Co417 2.388 . S
H421 O422 0.760 . S
H421 Co423 2.400 . S
O422 Co417 2.053 . S
O422 Co418 2.126 . S
O422 H421 0.760 . S
O422 Co423 2.009 . S
Co423 H421 2.400 . S
Co423 O422 2.009 . S
Co423 O424 2.053 . S
Co423 O426 2.094 . S
Co423 O430 2.122 . S
Co423 O444 2.115 . S
Co423 O445 2.315 . S
O424 Co423 2.053 . S
O424 C436 1.259 . S
O425 Co417 2.047 . S
O425 C436 1.257 . S
O426 Co423 2.094 . S
O426 C437 1.253 . S
O427 Co418 2.063 . S
O427 C437 1.268 . S
O428 Co416 2.115 . S
O428 C438 1.281 . S
O429 Co416 2.315 . S
O429 C438 1.252 . S
O430 Co423 2.122 . S
O430 C439 1.272 . S
O431 Co417 2.113 . S
O431 C439 1.245 . S
C432 O440 1.259 . S
C432 O441 1.257 . S
C433 O442 1.268 . S
C433 O443 1.253 . S
C434 O444 1.281 . S
C434 O445 1.252 . S
C435 O446 1.272 . S
C435 O447 1.245 . S
C436 O424 1.259 . S
C436 O425 1.257 . S
C437 O426 1.253 . S
C437 O427 1.268 . S
C438 O428 1.281 . S
C438 O429 1.252 . S
C439 O430 1.272 . S
C439 O431 1.245 . S
O440 Co416 2.053 . S
O440 C432 1.259 . S
O441 Co418 2.047 . S
O441 C432 1.257 . S
O442 Co417 2.063 . S
O442 C433 1.268 . S
O443 Co416 2.094 . S
O443 C433 1.253 . S
O444 Co423 2.115 . S
O444 C434 1.281 . S
O445 Co423 2.315 . S
O445 C434 1.252 . S
O446 Co416 2.122 . S
O446 C435 1.272 . S
O447 Co418 2.113 . S
O447 C435 1.245 . S
Co448 H451 2.400 . S
Co448 O452 2.009 . S
Co448 O460 2.115 . S
Co448 O461 2.315 . S
Co448 O472 2.053 . S
Co448 O475 2.094 . S
Co448 O478 2.122 . S
Co449 O452 2.126 . S
Co449 H453 2.388 . S
Co449 O454 2.053 . S
Co449 O457 2.047 . S
Co449 O463 2.113 . S
Co449 O474 2.063 . S
Co450 H451 2.388 . S
Co450 O452 2.053 . S
Co450 O454 2.126 . S
Co450 O459 2.063 . S
Co450 O473 2.047 . S
Co450 O479 2.113 . S
H451 Co448 2.400 . S
H451 Co450 2.388 . S
H451 O452 0.760 . S
O452 Co448 2.009 . S
O452 Co449 2.126 . S
O452 Co450 2.053 . S
O452 H451 0.760 . S
H453 Co449 2.388 . S
H453 O454 0.760 . S
H453 Co455 2.400 . S
O454 Co449 2.053 . S
O454 Co450 2.126 . S
O454 H453 0.760 . S
O454 Co455 2.009 . S
Co455 H453 2.400 . S
Co455 O454 2.009 . S
Co455 O456 2.053 . S
Co455 O458 2.094 . S
Co455 O462 2.122 . S
Co455 O476 2.115 . S
Co455 O477 2.315 . S
O456 Co455 2.053 . S
O456 C468 1.259 . S
O457 Co449 2.047 . S
O457 C468 1.257 . S
O458 Co455 2.094 . S
O458 C469 1.253 . S
O459 Co450 2.063 . S
O459 C469 1.268 . S
O460 Co448 2.115 . S
O460 C470 1.281 . S
O461 Co448 2.315 . S
O461 C470 1.252 . S
O462 Co455 2.122 . S
O462 C471 1.272 . S
O463 Co449 2.113 . S
O463 C471 1.245 . S
C464 O472 1.259 . S
C464 O473 1.257 . S
C465 O474 1.268 . S
C465 O475 1.253 . S
C466 O476 1.281 . S
C466 O477 1.252 . S
C467 O478 1.272 . S
C467 O479 1.245 . S
C468 O456 1.259 . S
C468 O457 1.257 . S
C469 O458 1.253 . S
C469 O459 1.268 . S
C470 O460 1.281 . S
C470 O461 1.252 . S
C471 O462 1.272 . S
C471 O463 1.245 . S
O472 Co448 2.053 . S
O472 C464 1.259 . S
O473 Co450 2.047 . S
O473 C464 1.257 . S
O474 Co449 2.063 . S
O474 C465 1.268 . S
O475 Co448 2.094 . S
O475 C465 1.253 . S
O476 Co455 2.115 . S
O476 C466 1.281 . S
O477 Co455 2.315 . S
O477 C466 1.252 . S
O478 Co448 2.122 . S
O478 C467 1.272 . S
O479 Co450 2.113 . S
O479 C467 1.245 . S
Co480 H483 2.400 . S
Co480 O484 2.009 . S
Co480 O492 2.115 . S
Co480 O493 2.315 . S
Co480 O504 2.053 . S
Co480 O507 2.094 . S
Co480 O510 2.122 . S
Co481 O484 2.126 . S
Co481 H485 2.388 . S
Co481 O486 2.053 . S
Co481 O489 2.047 1_556 S
Co481 O495 2.113 1_556 S
Co481 O506 2.063 . S
Co482 H483 2.388 . S
Co482 O484 2.053 . S
Co482 O486 2.126 . S
Co482 O491 2.063 . S
Co482 O505 2.047 . S
Co482 O511 2.113 . S
H483 Co480 2.400 . S
H483 Co482 2.388 . S
H483 O484 0.760 . S
O484 Co480 2.009 . S
O484 Co481 2.126 . S
O484 Co482 2.053 . S
O484 H483 0.760 . S
H485 Co481 2.388 . S
H485 O486 0.760 . S
H485 Co487 2.400 . S
O486 Co481 2.053 . S
O486 Co482 2.126 . S
O486 H485 0.760 . S
O486 Co487 2.009 . S
Co487 H485 2.400 . S
Co487 O486 2.009 . S
Co487 O488 2.053 1_556 S
Co487 O490 2.094 . S
Co487 O494 2.122 1_556 S
Co487 O508 2.115 1_556 S
Co487 O509 2.315 . S
O488 Co487 2.053 1_554 S
O488 C500 1.259 . S
O489 Co481 2.047 1_554 S
O489 C500 1.257 . S
O490 Co487 2.094 . S
O490 C501 1.253 . S
O491 Co482 2.063 . S
O491 C501 1.268 . S
O492 Co480 2.115 . S
O492 C502 1.281 . S
O493 Co480 2.315 . S
O493 C502 1.252 . S
O494 Co487 2.122 1_554 S
O494 C503 1.272 . S
O495 Co481 2.113 1_554 S
O495 C503 1.245 . S
C496 O504 1.259 . S
C496 O505 1.257 . S
C497 O506 1.268 . S
C497 O507 1.253 . S
C498 O508 1.281 . S
C498 O509 1.252 1_554 S
C499 O510 1.272 . S
C499 O511 1.245 . S
C500 O488 1.259 . S
C500 O489 1.257 . S
C501 O490 1.253 . S
C501 O491 1.268 . S
C502 O492 1.281 . S
C502 O493 1.252 . S
C503 O494 1.272 . S
C503 O495 1.245 . S
O504 Co480 2.053 . S
O504 C496 1.259 . S
O505 Co482 2.047 . S
O505 C496 1.257 . S
O506 Co481 2.063 . S
O506 C497 1.268 . S
O507 Co480 2.094 . S
O507 C497 1.253 . S
O508 Co487 2.115 1_554 S
O508 C498 1.281 . S
O509 Co487 2.315 . S
O509 C498 1.252 1_556 S
O510 Co480 2.122 . S
O510 C499 1.272 . S
O511 Co482 2.113 . S
O511 C499 1.245 . S
Co512 H515 2.400 . S
Co512 O516 2.009 . S
Co512 O524 2.115 . S
Co512 O525 2.315 . S
Co512 O536 2.053 . S
Co512 O539 2.094 . S
Co512 O542 2.122 . S
Co513 O516 2.126 . S
Co513 H517 2.388 . S
Co513 O518 2.053 . S
Co513 O521 2.047 1_556 S
Co513 O527 2.113 1_556 S
Co513 O538 2.063 . S
Co514 H515 2.388 . S
Co514 O516 2.053 . S
Co514 O518 2.126 . S
Co514 O523 2.063 . S
Co514 O537 2.047 . S
Co514 O543 2.113 . S
H515 Co512 2.400 . S
H515 Co514 2.388 . S
H515 O516 0.760 . S
O516 Co512 2.009 . S
O516 Co513 2.126 . S
O516 Co514 2.053 . S
O516 H515 0.760 . S
H517 Co513 2.388 . S
H517 O518 0.760 . S
H517 Co519 2.400 . S
O518 Co513 2.053 . S
O518 Co514 2.126 . S
O518 H517 0.760 . S
O518 Co519 2.009 . S
Co519 H517 2.400 . S
Co519 O518 2.009 . S
Co519 O520 2.053 1_556 S
Co519 O522 2.094 . S
Co519 O526 2.122 1_556 S
Co519 O540 2.115 1_556 S
Co519 O541 2.315 . S
O520 Co519 2.053 1_554 S
O520 C532 1.259 . S
O521 Co513 2.047 1_554 S
O521 C532 1.257 . S
O522 Co519 2.094 . S
O522 C533 1.253 . S
O523 Co514 2.063 . S
O523 C533 1.268 . S
O524 Co512 2.115 . S
O524 C534 1.281 . S
O525 Co512 2.315 . S
O525 C534 1.252 . S
O526 Co519 2.122 1_554 S
O526 C535 1.272 . S
O527 Co513 2.113 1_554 S
O527 C535 1.245 . S
C528 O536 1.259 . S
C528 O537 1.257 . S
C529 O538 1.268 . S
C529 O539 1.253 . S
C530 O540 1.281 . S
C530 O541 1.252 1_554 S
C531 O542 1.272 . S
C531 O543 1.245 . S
C532 O520 1.259 . S
C532 O521 1.257 . S
C533 O522 1.253 . S
C533 O523 1.268 . S
C534 O524 1.281 . S
C534 O525 1.252 . S
C535 O526 1.272 . S
C535 O527 1.245 . S
O536 Co512 2.053 . S
O536 C528 1.259 . S
O537 Co514 2.047 . S
O537 C528 1.257 . S
O538 Co513 2.063 . S
O538 C529 1.268 . S
O539 Co512 2.094 . S
O539 C529 1.253 . S
O540 Co519 2.115 1_554 S
O540 C530 1.281 . S
O541 Co519 2.315 . S
O541 C530 1.252 1_556 S
O542 Co512 2.122 . S
O542 C531 1.272 . S
O543 Co514 2.113 . S
O543 C531 1.245 . S
Co544 H547 2.400 . S
Co544 O548 2.009 . S
Co544 O556 2.115 . S
Co544 O557 2.315 . S
Co544 O568 2.053 . S
Co544 O571 2.094 . S
Co544 O574 2.122 . S
Co545 O548 2.126 . S
Co545 H549 2.388 . S
Co545 O550 2.053 . S
Co545 O553 2.047 1_556 S
Co545 O559 2.113 1_556 S
Co545 O570 2.063 . S
Co546 H547 2.388 . S
Co546 O548 2.053 . S
Co546 O550 2.126 . S
Co546 O555 2.063 . S
Co546 O569 2.047 . S
Co546 O575 2.113 . S
H547 Co544 2.400 . S
H547 Co546 2.388 . S
H547 O548 0.760 . S
O548 Co544 2.009 . S
O548 Co545 2.126 . S
O548 Co546 2.053 . S
O548 H547 0.760 . S
H549 Co545 2.388 . S
H549 O550 0.760 . S
H549 Co551 2.400 . S
O550 Co545 2.053 . S
O550 Co546 2.126 . S
O550 H549 0.760 . S
O550 Co551 2.009 . S
Co551 H549 2.400 . S
Co551 O550 2.009 . S
Co551 O552 2.053 1_556 S
Co551 O554 2.094 . S
Co551 O558 2.122 1_556 S
Co551 O572 2.115 1_556 S
Co551 O573 2.315 . S
O552 Co551 2.053 1_554 S
O552 C564 1.259 . S
O553 Co545 2.047 1_554 S
O553 C564 1.257 . S
O554 Co551 2.094 . S
O554 C565 1.253 . S
O555 Co546 2.063 . S
O555 C565 1.268 . S
O556 Co544 2.115 . S
O556 C566 1.281 . S
O557 Co544 2.315 . S
O557 C566 1.252 . S
O558 Co551 2.122 1_554 S
O558 C567 1.272 . S
O559 Co545 2.113 1_554 S
O559 C567 1.245 . S
C560 O568 1.259 . S
C560 O569 1.257 . S
C561 O570 1.268 . S
C561 O571 1.253 . S
C562 O572 1.281 . S
C562 O573 1.252 1_554 S
C563 O574 1.272 . S
C563 O575 1.245 . S
C564 O552 1.259 . S
C564 O553 1.257 . S
C565 O554 1.253 . S
C565 O555 1.268 . S
C566 O556 1.281 . S
C566 O557 1.252 . S
C567 O558 1.272 . S
C567 O559 1.245 . S
O568 Co544 2.053 . S
O568 C560 1.259 . S
O569 Co546 2.047 . S
O569 C560 1.257 . S
O570 Co545 2.063 . S
O570 C561 1.268 . S
O571 Co544 2.094 . S
O571 C561 1.253 . S
O572 Co551 2.115 1_554 S
O572 C562 1.281 . S
O573 Co551 2.315 . S
O573 C562 1.252 1_556 S
O574 Co544 2.122 . S
O574 C563 1.272 . S
O575 Co546 2.113 . S
O575 C563 1.245 . S
H576 C582 0.930 . S
H577 C585 0.930 . S
H578 C586 0.930 . S
H579 C587 0.930 . S
H580 C590 0.930 . S
H581 C591 0.930 . S
C582 H576 0.930 . S
C582 C583 1.355 . S
C582 C584 1.415 . S
C583 C582 1.355 . S
C583 C585 1.419 . S
C584 C582 1.415 . S
C584 C589 1.425 . S
C584 C591 1.409 . S
C585 H577 0.930 . S
C585 C583 1.419 . S
C585 C586 1.362 . S
C586 H578 0.930 . S
C586 C585 1.362 . S
C586 C589 1.409 . S
C587 H579 0.930 . S
C587 C588 1.355 . S
C587 C589 1.415 . S
C588 C587 1.355 . S
C588 C590 1.419 . S
C589 C584 1.425 . S
C589 C586 1.409 . S
C589 C587 1.415 . S
C590 H580 0.930 . S
C590 C588 1.419 . S
C590 C591 1.362 . S
C591 H581 0.930 . S
C591 C584 1.409 . S
C591 C590 1.362 . S
H592 C598 0.930 1_455 S
H593 C601 0.930 . S
H594 C602 0.930 . S
H595 C603 0.930 . S
H596 C606 0.930 . S
H597 C607 0.901 1_455 S
C598 H592 0.930 1_655 S
C598 C599 1.355 . S
C598 C600 1.415 . S
C599 C598 1.355 . S
C599 C601 1.419 . S
C600 C598 1.415 . S
C600 C605 1.425 . S
C600 C607 1.409 . S
C601 H593 0.930 . S
C601 C599 1.419 . S
C601 C602 1.362 . S
C602 H594 0.930 . S
C602 C601 1.362 . S
C602 C605 1.409 . S
C603 H595 0.930 . S
C603 C604 1.355 . S
C603 C605 1.415 1_565 S
C604 C603 1.355 . S
C604 C606 1.419 . S
C605 C600 1.425 . S
C605 C602 1.409 . S
C605 C603 1.415 1_545 S
C606 H596 0.930 . S
C606 C604 1.419 . S
C606 C607 1.362 1_565 S
C607 H597 0.901 1_655 S
C607 C600 1.409 . S
C607 C606 1.362 1_545 S
H608 C614 0.930 . S
H609 C617 0.930 . S
H610 C618 0.930 . S
H611 C619 0.930 1_545 S
H612 C622 0.930 . S
H613 C623 0.934 1_655 S
C614 H608 0.930 . S
C614 C615 1.355 . S
C614 C616 1.415 . S
C615 C614 1.355 . S
C615 C617 1.419 . S
C616 C614 1.415 . S
C616 C621 1.425 . S
C616 C623 1.387 1_655 S
C617 H609 0.930 . S
C617 C615 1.419 . S
C617 C618 1.362 . S
C618 H610 0.930 . S
C618 C617 1.362 . S
C618 C621 1.409 . S
C619 H611 0.930 1_565 S
C619 C620 1.355 . S
C619 C621 1.415 1_455 S
C620 C619 1.355 . S
C620 C622 1.419 . S
C621 C616 1.425 . S
C621 C618 1.409 . S
C621 C619 1.415 1_655 S
C622 H612 0.930 . S
C622 C620 1.419 . S
C622 C623 1.382 . S
C623 H613 0.934 1_455 S
C623 C616 1.387 1_455 S
C623 C622 1.382 . S
H624 C630 0.930 . S
H625 C633 0.930 . S
H626 C634 0.930 . S
H627 C635 0.930 . S
H628 C638 0.930 1_545 S
H629 C639 0.930 . S
C630 H624 0.930 . S
C630 C631 1.355 . S
C630 C632 1.415 . S
C631 C630 1.355 . S
C631 C633 1.419 . S
C632 C630 1.415 . S
C632 C637 1.425 . S
C632 C639 1.409 . S
C633 H625 0.930 . S
C633 C631 1.419 . S
C633 C634 1.362 . S
C634 H626 0.930 . S
C634 C633 1.362 . S
C634 C637 1.409 . S
C635 H627 0.930 . S
C635 C636 1.355 . S
C635 C637 1.415 . S
C636 C635 1.355 . S
C636 C638 1.419 . S
C637 C632 1.425 . S
C637 C634 1.409 . S
C637 C635 1.415 . S
C638 H628 0.930 1_565 S
C638 C636 1.419 . S
C638 C639 1.362 . S
C639 H629 0.930 . S
C639 C632 1.409 . S
C639 C638 1.362 . S
H640 C646 0.930 . S
H641 C649 0.930 . S
H642 C650 0.930 1_565 S
H643 C651 0.930 . S
H644 C654 0.930 . S
H645 C655 0.931 1_545 S
C646 H640 0.930 . S
C646 C647 1.355 . S
C646 C648 1.415 . S
C647 C646 1.355 . S
C647 C649 1.419 . S
C648 C646 1.415 . S
C648 C653 1.425 1_545 S
C648 C655 1.411 1_545 S
C649 H641 0.930 . S
C649 C647 1.419 . S
C649 C650 1.362 . S
C650 H642 0.930 1_545 S
C650 C649 1.362 . S
C650 C653 1.409 1_545 S
C651 H643 0.930 . S
C651 C652 1.355 . S
C651 C653 1.415 . S
C652 C651 1.355 . S
C652 C654 1.419 . S
C653 C648 1.425 1_565 S
C653 C650 1.409 1_565 S
C653 C651 1.415 . S
C654 H644 0.930 . S
C654 C652 1.419 . S
C654 C655 1.359 . S
C655 H645 0.931 1_565 S
C655 C648 1.411 1_565 S
C655 C654 1.359 . S
H656 C662 0.930 . S
H657 C665 0.930 . S
H658 C666 0.930 . S
H659 C667 0.930 . S
H660 C670 0.930 . S
H661 C671 0.930 . S
C662 H656 0.930 . S
C662 C663 1.355 . S
C662 C664 1.415 . S
C663 C662 1.355 . S
C663 C665 1.419 . S
C664 C662 1.415 . S
C664 C669 1.425 . S
C664 C671 1.409 . S
C665 H657 0.930 . S
C665 C663 1.419 . S
C665 C666 1.362 . S
C666 H658 0.930 . S
C666 C665 1.362 . S
C666 C669 1.409 . S
C667 H659 0.930 . S
C667 C668 1.355 . S
C667 C669 1.415 1_655 S
C668 C667 1.355 . S
C668 C670 1.419 . S
C669 C664 1.425 . S
C669 C666 1.409 . S
C669 C667 1.415 1_455 S
C670 H660 0.930 . S
C670 C668 1.419 . S
C670 C671 1.362 1_655 S
C671 H661 0.930 . S
C671 C664 1.409 . S
C671 C670 1.362 1_455 S
H672 C678 0.930 . S
H673 C681 0.930 . S
H674 C682 0.930 . S
H675 C683 0.930 1_556 S
H676 C686 0.930 . S
H677 C687 0.930 . S
C678 H672 0.930 . S
C678 C679 1.355 . S
C678 C680 1.415 . S
C679 C678 1.355 . S
C679 C681 1.419 . S
C680 C678 1.415 . S
C680 C685 1.425 . S
C680 C687 1.409 . S
C681 H673 0.930 . S
C681 C679 1.419 . S
C681 C682 1.362 . S
C682 H674 0.930 . S
C682 C681 1.362 . S
C682 C685 1.409 . S
C683 H675 0.930 1_554 S
C683 C684 1.355 . S
C683 C685 1.415 . S
C684 C683 1.355 . S
C684 C686 1.419 . S
C685 C680 1.425 . S
C685 C682 1.409 . S
C685 C683 1.415 . S
C686 H676 0.930 . S
C686 C684 1.419 . S
C686 C687 1.362 . S
C687 H677 0.930 . S
C687 C680 1.409 . S
C687 C686 1.362 . S
H688 C694 0.930 . S
H689 C697 0.930 . S
H690 C698 0.930 1_556 S
H691 C699 0.931 1_556 S
H692 C702 0.930 . S
H693 C703 0.930 . S
C694 H688 0.930 . S
C694 C695 1.355 . S
C694 C696 1.415 . S
C695 C694 1.355 . S
C695 C697 1.419 . S
C696 C694 1.415 . S
C696 C701 1.425 . S
C696 C703 1.409 . S
C697 H689 0.930 . S
C697 C695 1.419 . S
C697 C698 1.362 . S
C698 H690 0.930 1_554 S
C698 C697 1.362 . S
C698 C701 1.409 . S
C699 H691 0.931 1_554 S
C699 C700 1.354 . S
C699 C701 1.414 . S
C700 C699 1.354 . S
C700 C702 1.419 . S
C701 C696 1.425 . S
C701 C698 1.409 . S
C701 C699 1.414 . S
C702 H692 0.930 . S
C702 C700 1.419 . S
C702 C703 1.362 . S
C703 H693 0.930 . S
C703 C696 1.409 . S
C703 C702 1.362 . S
H704 C710 0.930 1_556 S
H705 C713 0.930 . S
H706 C714 0.930 . S
H707 C715 0.930 . S
H708 C718 0.930 . S
H709 C719 0.930 . S
C710 H704 0.930 1_554 S
C710 C711 1.355 . S
C710 C712 1.415 . S
C711 C710 1.355 . S
C711 C713 1.419 . S
C712 C710 1.415 . S
C712 C717 1.425 . S
C712 C719 1.409 . S
C713 H705 0.930 . S
C713 C711 1.419 . S
C713 C714 1.362 . S
C714 H706 0.930 . S
C714 C713 1.362 . S
C714 C717 1.409 . S
C715 H707 0.930 . S
C715 C716 1.355 . S
C715 C717 1.415 . S
C716 C715 1.355 . S
C716 C718 1.419 . S
C717 C712 1.425 . S
C717 C714 1.409 . S
C717 C715 1.415 . S
C718 H708 0.930 . S
C718 C716 1.419 . S
C718 C719 1.362 . S
C719 H709 0.930 . S
C719 C712 1.409 . S
C719 C718 1.362 . S
H720 C726 0.930 . S
H721 C729 0.930 . S
H722 C730 0.930 . S
H723 C731 0.930 . S
H724 C734 0.930 . S
H725 C735 0.930 . S
C726 H720 0.930 . S
C726 C727 1.355 . S
C726 C728 1.415 . S
C727 C726 1.355 . S
C727 C729 1.419 . S
C728 C726 1.415 . S
C728 C733 1.425 . S
C728 C735 1.409 . S
C729 H721 0.930 . S
C729 C727 1.419 . S
C729 C730 1.362 . S
C730 H722 0.930 . S
C730 C729 1.362 . S
C730 C733 1.409 . S
C731 H723 0.930 . S
C731 C732 1.355 . S
C731 C733 1.415 . S
C732 C731 1.355 . S
C732 C734 1.419 . S
C733 C728 1.425 . S
C733 C730 1.409 . S
C733 C731 1.415 . S
C734 H724 0.930 . S
C734 C732 1.419 . S
C734 C735 1.362 . S
C735 H725 0.930 . S
C735 C728 1.409 . S
C735 C734 1.362 . S
H736 C742 0.930 . S
H737 C745 0.930 . S
H738 C746 0.930 . S
H739 C747 0.930 . S
H740 C750 0.930 . S
H741 C751 0.930 . S
C742 H736 0.930 . S
C742 C743 1.355 . S
C742 C744 1.415 . S
C743 C742 1.355 . S
C743 C745 1.419 . S
C744 C742 1.415 . S
C744 C749 1.425 . S
C744 C751 1.409 . S
C745 H737 0.930 . S
C745 C743 1.419 . S
C745 C746 1.362 . S
C746 H738 0.930 . S
C746 C745 1.362 . S
C746 C749 1.409 . S
C747 H739 0.930 . S
C747 C748 1.355 . S
C747 C749 1.415 . S
C748 C747 1.355 . S
C748 C750 1.419 . S
C749 C744 1.425 . S
C749 C746 1.409 . S
C749 C747 1.415 . S
C750 H740 0.930 . S
C750 C748 1.419 . S
C750 C751 1.362 . S
C751 H741 0.930 . S
C751 C744 1.409 . S
C751 C750 1.362 . S
H752 C758 0.930 . S
H753 C761 0.930 . S
H754 C762 0.930 . S
H755 C763 0.930 . S
H756 C766 0.930 . S
H757 C767 0.930 . S
C758 H752 0.930 . S
C758 C759 1.355 . S
C758 C760 1.415 . S
C759 C758 1.355 . S
C759 C761 1.419 . S
C760 C758 1.415 . S
C760 C765 1.425 . S
C760 C767 1.409 . S
C761 H753 0.930 . S
C761 C759 1.419 . S
C761 C762 1.362 . S
C762 H754 0.930 . S
C762 C761 1.362 . S
C762 C765 1.409 . S
C763 H755 0.930 . S
C763 C764 1.355 . S
C763 C765 1.415 . S
C764 C763 1.355 . S
C764 C766 1.419 . S
C765 C760 1.425 . S
C765 C762 1.409 . S
C765 C763 1.415 . S
C766 H756 0.930 . S
C766 C764 1.419 . S
C766 C767 1.362 . S
C767 H757 0.930 . S
C767 C760 1.409 . S
C767 C766 1.362 . S
H768 C774 0.930 . S
H769 C777 0.930 . S
H770 C778 0.930 . S
H771 C779 0.930 . S
H772 C782 0.930 . S
H773 C783 0.930 . S
C774 H768 0.930 . S
C774 C775 1.355 . S
C774 C776 1.415 . S
C775 C774 1.355 . S
C775 C777 1.419 . S
C776 C774 1.415 . S
C776 C781 1.425 . S
C776 C783 1.409 . S
C777 H769 0.930 . S
C777 C775 1.419 . S
C777 C778 1.362 . S
C778 H770 0.930 . S
C778 C777 1.362 . S
C778 C781 1.409 . S
C779 H771 0.930 . S
C779 C780 1.355 . S
C779 C781 1.415 . S
C780 C779 1.355 . S
C780 C782 1.419 . S
C781 C776 1.425 . S
C781 C778 1.409 . S
C781 C779 1.415 . S
C782 H772 0.930 . S
C782 C780 1.419 . S
C782 C783 1.362 . S
C783 H773 0.930 . S
C783 C776 1.409 . S
C783 C782 1.362 . S
H784 C790 0.930 . S
H785 C793 0.930 . S
H786 C794 0.930 . S
H787 C795 0.930 . S
H788 C798 0.930 . S
H789 C799 0.930 . S
C790 H784 0.930 . S
C790 C791 1.355 . S
C790 C792 1.415 . S
C791 C790 1.355 . S
C791 C793 1.419 . S
C792 C790 1.415 . S
C792 C797 1.425 . S
C792 C799 1.409 . S
C793 H785 0.930 . S
C793 C791 1.419 . S
C793 C794 1.362 . S
C794 H786 0.930 . S
C794 C793 1.362 . S
C794 C797 1.409 . S
C795 H787 0.930 . S
C795 C796 1.355 . S
C795 C797 1.415 . S
C796 C795 1.355 . S
C796 C798 1.419 . S
C797 C792 1.425 . S
C797 C794 1.409 . S
C797 C795 1.415 . S
C798 H788 0.930 . S
C798 C796 1.419 . S
C798 C799 1.362 . S
C799 H789 0.930 . S
C799 C792 1.409 . S
C799 C798 1.362 . S
H800 C806 0.930 . S
H801 C809 0.930 . S
H802 C810 0.930 . S
H803 C811 0.930 . S
H804 C814 0.930 . S
H805 C815 0.930 . S
C806 H800 0.930 . S
C806 C807 1.355 . S
C806 C808 1.415 . S
C807 C806 1.355 . S
C807 C809 1.419 . S
C808 C806 1.415 . S
C808 C813 1.425 . S
C808 C815 1.409 . S
C809 H801 0.930 . S
C809 C807 1.419 . S
C809 C810 1.362 . S
C810 H802 0.930 . S
C810 C809 1.362 . S
C810 C813 1.409 . S
C811 H803 0.930 . S
C811 C812 1.355 . S
C811 C813 1.415 . S
C812 C811 1.355 . S
C812 C814 1.419 . S
C813 C808 1.425 . S
C813 C810 1.409 . S
C813 C811 1.415 . S
C814 H804 0.930 . S
C814 C812 1.419 . S
C814 C815 1.362 . S
C815 H805 0.930 . S
C815 C808 1.409 . S
C815 C814 1.362 . S
H816 C822 0.930 . S
H817 C825 0.930 . S
H818 C826 0.930 . S
H819 C827 0.930 . S
H820 C830 0.930 . S
H821 C831 0.930 . S
C822 H816 0.930 . S
C822 C823 1.355 . S
C822 C824 1.415 . S
C823 C822 1.355 . S
C823 C825 1.419 1_556 S
C824 C822 1.415 . S
C824 C829 1.425 . S
C824 C831 1.409 . S
C825 H817 0.930 . S
C825 C823 1.419 1_554 S
C825 C826 1.362 . S
C826 H818 0.930 . S
C826 C825 1.362 . S
C826 C829 1.409 1_554 S
C827 H819 0.930 . S
C827 C828 1.355 . S
C827 C829 1.415 . S
C828 C827 1.355 . S
C828 C830 1.419 . S
C829 C824 1.425 . S
C829 C826 1.409 1_556 S
C829 C827 1.415 . S
C830 H820 0.930 . S
C830 C828 1.419 . S
C830 C831 1.362 . S
C831 H821 0.930 . S
C831 C824 1.409 . S
C831 C830 1.362 . S
H832 C838 0.930 . S
H833 C841 0.930 . S
H834 C842 0.930 . S
H835 C843 0.930 1_554 S
H836 C846 0.930 . S
H837 C847 0.930 . S
C838 H832 0.930 . S
C838 C839 1.355 . S
C838 C840 1.415 . S
C839 C838 1.355 . S
C839 C841 1.419 . S
C840 C838 1.415 . S
C840 C845 1.425 . S
C840 C847 1.409 . S
C841 H833 0.930 . S
C841 C839 1.419 . S
C841 C842 1.362 . S
C842 H834 0.930 . S
C842 C841 1.362 . S
C842 C845 1.409 . S
C843 H835 0.930 1_556 S
C843 C844 1.355 . S
C843 C845 1.415 . S
C844 C843 1.355 . S
C844 C846 1.419 . S
C845 C840 1.425 . S
C845 C842 1.409 . S
C845 C843 1.415 . S
C846 H836 0.930 . S
C846 C844 1.419 . S
C846 C847 1.362 . S
C847 H837 0.930 . S
C847 C840 1.409 . S
C847 C846 1.362 . S
H848 C854 0.930 . S
H849 C857 0.930 . S
H850 C858 0.930 . S
H851 C859 0.928 1_554 S
H852 C862 0.930 . S
H853 C863 0.930 . S
C854 H848 0.930 . S
C854 C855 1.355 . S
C854 C856 1.415 . S
C855 C854 1.355 . S
C855 C857 1.419 . S
C856 C854 1.415 . S
C856 C861 1.425 . S
C856 C863 1.409 . S
C857 H849 0.930 . S
C857 C855 1.419 . S
C857 C858 1.362 . S
C858 H850 0.930 . S
C858 C857 1.362 . S
C858 C861 1.409 . S
C859 H851 0.928 1_556 S
C859 C860 1.355 . S
C859 C861 1.416 . S
C860 C859 1.355 . S
C860 C862 1.419 . S
C861 C856 1.425 . S
C861 C858 1.409 . S
C861 C859 1.416 . S
C862 H852 0.930 . S
C862 C860 1.419 . S
C862 C863 1.362 . S
C863 H853 0.930 . S
C863 C856 1.409 . S
C863 C862 1.362 . S
H864 C870 0.930 . S
H865 C873 0.930 . S
H866 C874 0.930 . S
H867 C875 0.930 . S
H868 C878 0.930 . S
H869 C879 0.930 . S
C870 H864 0.930 . S
C870 C871 1.355 . S
C870 C872 1.415 . S
C871 C870 1.355 . S
C871 C873 1.419 . S
C872 C870 1.415 . S
C872 C877 1.425 . S
C872 C879 1.409 . S
C873 H865 0.930 . S
C873 C871 1.419 . S
C873 C874 1.362 . S
C874 H866 0.930 . S
C874 C873 1.362 . S
C874 C877 1.409 . S
C875 H867 0.930 . S
C875 C876 1.355 . S
C875 C877 1.415 . S
C876 C875 1.355 . S
C876 C878 1.419 . S
C877 C872 1.425 . S
C877 C874 1.409 . S
C877 C875 1.415 . S
C878 H868 0.930 . S
C878 C876 1.419 . S
C878 C879 1.362 . S
C879 H869 0.930 . S
C879 C872 1.409 . S
C879 C878 1.362 . S
H880 C886 0.930 . S
H881 C889 0.930 . S
H882 C890 0.930 . S
H883 C891 0.930 . S
H884 C894 0.930 . S
H885 C895 0.930 . S
C886 H880 0.930 . S
C886 C887 1.355 . S
C886 C888 1.415 . S
C887 C886 1.355 . S
C887 C889 1.419 . S
C888 C886 1.415 . S
C888 C893 1.425 . S
C888 C895 1.409 . S
C889 H881 0.930 . S
C889 C887 1.419 . S
C889 C890 1.362 . S
C890 H882 0.930 . S
C890 C889 1.362 . S
C890 C893 1.409 . S
C891 H883 0.930 . S
C891 C892 1.355 . S
C891 C893 1.415 . S
C892 C891 1.355 . S
C892 C894 1.419 . S
C893 C888 1.425 . S
C893 C890 1.409 . S
C893 C891 1.415 . S
C894 H884 0.930 . S
C894 C892 1.419 . S
C894 C895 1.362 . S
C895 H885 0.930 . S
C895 C888 1.409 . S
C895 C894 1.362 . S
H896 C902 0.930 . S
H897 C905 0.930 . S
H898 C906 0.930 . S
H899 C907 0.930 . S
H900 C910 0.930 . S
H901 C911 0.930 . S
C902 H896 0.930 . S
C902 C903 1.355 . S
C902 C904 1.415 . S
C903 C902 1.355 . S
C903 C905 1.419 . S
C904 C902 1.415 . S
C904 C909 1.425 . S
C904 C911 1.409 . S
C905 H897 0.930 . S
C905 C903 1.419 . S
C905 C906 1.362 . S
C906 H898 0.930 . S
C906 C905 1.362 . S
C906 C909 1.409 . S
C907 H899 0.930 . S
C907 C908 1.355 . S
C907 C909 1.415 . S
C908 C907 1.355 . S
C908 C910 1.419 . S
C909 C904 1.425 . S
C909 C906 1.409 . S
C909 C907 1.415 . S
C910 H900 0.930 . S
C910 C908 1.419 . S
C910 C911 1.362 . S
C911 H901 0.930 . S
C911 C904 1.409 . S
C911 C910 1.362 . S
H912 C918 0.930 . S
H913 C921 0.930 . S
H914 C922 0.930 . S
H915 C923 0.930 1_556 S
H916 C926 0.930 . S
H917 C927 0.930 . S
C918 H912 0.930 . S
C918 C919 1.355 . S
C918 C920 1.415 1_556 S
C919 C918 1.355 . S
C919 C921 1.419 . S
C920 C918 1.415 1_554 S
C920 C925 1.425 1_554 S
C920 C927 1.409 . S
C921 H913 0.930 . S
C921 C919 1.419 . S
C921 C922 1.362 . S
C922 H914 0.930 . S
C922 C921 1.362 . S
C922 C925 1.409 . S
C923 H915 0.930 1_554 S
C923 C924 1.355 . S
C923 C925 1.415 1_554 S
C924 C923 1.355 . S
C924 C926 1.419 . S
C925 C920 1.425 1_556 S
C925 C922 1.409 . S
C925 C923 1.415 1_556 S
C926 H916 0.930 . S
C926 C924 1.419 . S
C926 C927 1.362 . S
C927 H917 0.930 . S
C927 C920 1.409 . S
C927 C926 1.362 . S
H928 C934 0.930 . S
H929 C937 0.930 . S
H930 C938 0.930 . S
H931 C939 0.930 . S
H932 C942 0.930 . S
H933 C943 0.930 . S
C934 H928 0.930 . S
C934 C935 1.355 . S
C934 C936 1.415 1_554 S
C935 C934 1.355 . S
C935 C937 1.419 . S
C936 C934 1.415 1_556 S
C936 C941 1.425 . S
C936 C943 1.409 . S
C937 H929 0.930 . S
C937 C935 1.419 . S
C937 C938 1.362 . S
C938 H930 0.930 . S
C938 C937 1.362 . S
C938 C941 1.409 1_554 S
C939 H931 0.930 . S
C939 C940 1.355 . S
C939 C941 1.415 . S
C940 C939 1.355 . S
C940 C942 1.419 . S
C941 C936 1.425 . S
C941 C938 1.409 1_556 S
C941 C939 1.415 . S
C942 H932 0.930 . S
C942 C940 1.419 . S
C942 C943 1.362 . S
C943 H933 0.930 . S
C943 C936 1.409 . S
C943 C942 1.362 . S
H944 C950 0.930 . S
H945 C953 0.930 . S
H946 C954 0.930 . S
H947 C955 0.930 . S
H948 C958 0.930 . S
H949 C959 0.930 . S
C950 H944 0.930 . S
C950 C951 1.355 . S
C950 C952 1.415 . S
C951 C950 1.355 . S
C951 C953 1.419 . S
C952 C950 1.415 . S
C952 C957 1.425 . S
C952 C959 1.409 1_556 S
C953 H945 0.930 . S
C953 C951 1.419 . S
C953 C954 1.362 . S
C954 H946 0.930 . S
C954 C953 1.362 . S
C954 C957 1.409 . S
C955 H947 0.930 . S
C955 C956 1.355 . S
C955 C957 1.415 1_554 S
C956 C955 1.355 . S
C956 C958 1.419 . S
C957 C952 1.425 . S
C957 C954 1.409 . S
C957 C955 1.415 1_556 S
C958 H948 0.930 . S
C958 C956 1.419 . S
C958 C959 1.362 . S
C959 H949 0.930 . S
C959 C952 1.409 1_554 S
C959 C958 1.362 . S
H960 C966 0.930 . S
H961 C969 0.930 . S
H962 C970 0.930 . S
H963 C971 0.930 . S
H964 C974 0.930 . S
H965 C975 0.930 . S
C966 H960 0.930 . S
C966 C967 1.355 . S
C966 C968 1.415 . S
C967 C966 1.355 . S
C967 C969 1.419 . S
C968 C966 1.415 . S
C968 C973 1.425 . S
C968 C975 1.409 . S
C969 H961 0.930 . S
C969 C967 1.419 . S
C969 C970 1.362 . S
C970 H962 0.930 . S
C970 C969 1.362 . S
C970 C973 1.409 . S
C971 H963 0.930 . S
C971 C972 1.355 . S
C971 C973 1.415 . S
C972 C971 1.355 . S
C972 C974 1.419 . S
C973 C968 1.425 . S
C973 C970 1.409 . S
C973 C971 1.415 . S
C974 H964 0.930 . S
C974 C972 1.419 . S
C974 C975 1.362 . S
C975 H965 0.930 . S
C975 C968 1.409 . S
C975 C974 1.362 . S
H976 C982 0.930 . S
H977 C985 0.930 . S
H978 C986 0.930 . S
H979 C987 0.930 . S
H980 C990 0.930 . S
H981 C991 0.930 . S
C982 H976 0.930 . S
C982 C983 1.355 . S
C982 C984 1.415 . S
C983 C982 1.355 . S
C983 C985 1.419 . S
C984 C982 1.415 . S
C984 C989 1.425 . S
C984 C991 1.409 . S
C985 H977 0.930 . S
C985 C983 1.419 . S
C985 C986 1.362 . S
C986 H978 0.930 . S
C986 C985 1.362 . S
C986 C989 1.409 . S
C987 H979 0.930 . S
C987 C988 1.355 . S
C987 C989 1.415 . S
C988 C987 1.355 . S
C988 C990 1.419 . S
C989 C984 1.425 . S
C989 C986 1.409 . S
C989 C987 1.415 . S
C990 H980 0.930 . S
C990 C988 1.419 . S
C990 C991 1.362 . S
C991 H981 0.930 . S
C991 C984 1.409 . S
C991 C990 1.362 . S
H992 C998 0.930 . S
H993 C1001 0.930 . S
H994 C1002 0.930 . S
H995 C1003 0.930 . S
H996 C1006 0.930 . S
H997 C1007 0.930 . S
C998 H992 0.930 . S
C998 C999 1.355 . S
C998 C1000 1.415 . S
C999 C998 1.355 . S
C999 C1001 1.419 . S
C1000 C998 1.415 . S
C1000 C1005 1.425 . S
C1000 C1007 1.409 . S
C1001 H993 0.930 . S
C1001 C999 1.419 . S
C1001 C1002 1.362 . S
C1002 H994 0.930 . S
C1002 C1001 1.362 . S
C1002 C1005 1.409 . S
C1003 H995 0.930 . S
C1003 C1004 1.355 . S
C1003 C1005 1.415 . S
C1004 C1003 1.355 . S
C1004 C1006 1.419 . S
C1005 C1000 1.425 . S
C1005 C1002 1.409 . S
C1005 C1003 1.415 . S
C1006 H996 0.930 . S
C1006 C1004 1.419 . S
C1006 C1007 1.362 . S
C1007 H997 0.930 . S
C1007 C1000 1.409 . S
C1007 C1006 1.362 . S
H1008 C1014 0.930 . S
H1009 C1017 0.930 . S
H1010 C1018 0.930 1_556 S
H1011 C1019 0.930 . S
H1012 C1022 0.930 . S
H1013 C1023 0.930 . S
C1014 H1008 0.930 . S
C1014 C1015 1.355 . S
C1014 C1016 1.415 . S
C1015 C1014 1.355 . S
C1015 C1017 1.419 . S
C1016 C1014 1.415 . S
C1016 C1021 1.425 1_554 S
C1016 C1023 1.409 . S
C1017 H1009 0.930 . S
C1017 C1015 1.419 . S
C1017 C1018 1.362 . S
C1018 H1010 0.930 1_554 S
C1018 C1017 1.362 . S
C1018 C1021 1.409 1_554 S
C1019 H1011 0.930 . S
C1019 C1020 1.355 . S
C1019 C1021 1.415 . S
C1020 C1019 1.355 . S
C1020 C1022 1.419 . S
C1021 C1016 1.425 1_556 S
C1021 C1018 1.409 1_556 S
C1021 C1019 1.415 . S
C1022 H1012 0.930 . S
C1022 C1020 1.419 . S
C1022 C1023 1.362 1_556 S
C1023 H1013 0.930 . S
C1023 C1016 1.409 . S
C1023 C1022 1.362 1_554 S
H1024 C1030 0.930 . S
H1025 C1033 0.930 . S
H1026 C1034 0.930 . S
H1027 C1035 0.930 1_554 S
H1028 C1038 0.930 . S
H1029 C1039 0.930 . S
C1030 H1024 0.930 . S
C1030 C1031 1.355 . S
C1030 C1032 1.415 1_554 S
C1031 C1030 1.355 . S
C1031 C1033 1.419 . S
C1032 C1030 1.415 1_556 S
C1032 C1037 1.425 1_556 S
C1032 C1039 1.409 . S
C1033 H1025 0.930 . S
C1033 C1031 1.419 . S
C1033 C1034 1.362 . S
C1034 H1026 0.930 . S
C1034 C1033 1.362 . S
C1034 C1037 1.409 . S
C1035 H1027 0.930 1_556 S
C1035 C1036 1.355 . S
C1035 C1037 1.415 1_556 S
C1036 C1035 1.355 . S
C1036 C1038 1.419 . S
C1037 C1032 1.425 1_554 S
C1037 C1034 1.409 . S
C1037 C1035 1.415 1_554 S
C1038 H1028 0.930 . S
C1038 C1036 1.419 . S
C1038 C1039 1.362 . S
C1039 H1029 0.930 . S
C1039 C1032 1.409 . S
C1039 C1038 1.362 . S
H1040 C1046 0.930 . S
H1041 C1049 0.930 . S
H1042 C1050 0.930 . S
H1043 C1051 0.930 . S
H1044 C1054 0.930 . S
H1045 C1055 0.930 . S
C1046 H1040 0.930 . S
C1046 C1047 1.355 . S
C1046 C1048 1.415 . S
C1047 C1046 1.355 . S
C1047 C1049 1.419 . S
C1048 C1046 1.415 . S
C1048 C1053 1.425 1_556 S
C1048 C1055 1.409 . S
C1049 H1041 0.930 . S
C1049 C1047 1.419 . S
C1049 C1050 1.362 1_556 S
C1050 H1042 0.930 . S
C1050 C1049 1.362 1_554 S
C1050 C1053 1.409 . S
C1051 H1043 0.930 . S
C1051 C1052 1.355 . S
C1051 C1053 1.415 . S
C1052 C1051 1.355 . S
C1052 C1054 1.419 . S
C1053 C1048 1.425 1_554 S
C1053 C1050 1.409 . S
C1053 C1051 1.415 . S
C1054 H1044 0.930 . S
C1054 C1052 1.419 . S
C1054 C1055 1.362 1_554 S
C1055 H1045 0.930 . S
C1055 C1048 1.409 . S
C1055 C1054 1.362 1_556 S
H1056 C1062 0.930 . S
H1057 C1065 0.930 . S
H1058 C1066 0.930 . S
H1059 C1067 0.930 . S
H1060 C1070 0.930 . S
H1061 C1071 0.930 . S
C1062 H1056 0.930 . S
C1062 C1063 1.355 . S
C1062 C1064 1.415 . S
C1063 C1062 1.355 . S
C1063 C1065 1.419 . S
C1064 C1062 1.415 . S
C1064 C1069 1.425 . S
C1064 C1071 1.409 . S
C1065 H1057 0.930 . S
C1065 C1063 1.419 . S
C1065 C1066 1.362 . S
C1066 H1058 0.930 . S
C1066 C1065 1.362 . S
C1066 C1069 1.409 . S
C1067 H1059 0.930 . S
C1067 C1068 1.355 . S
C1067 C1069 1.415 . S
C1068 C1067 1.355 . S
C1068 C1070 1.419 . S
C1069 C1064 1.425 . S
C1069 C1066 1.409 . S
C1069 C1067 1.415 . S
C1070 H1060 0.930 . S
C1070 C1068 1.419 . S
C1070 C1071 1.362 . S
C1071 H1061 0.930 . S
C1071 C1064 1.409 . S
C1071 C1070 1.362 . S
H1072 C1078 0.930 . S
H1073 C1081 0.930 . S
H1074 C1082 0.930 . S
H1075 C1083 0.930 . S
H1076 C1086 0.930 . S
H1077 C1087 0.930 . S
C1078 H1072 0.930 . S
C1078 C1079 1.355 . S
C1078 C1080 1.415 . S
C1079 C1078 1.355 . S
C1079 C1081 1.419 . S
C1080 C1078 1.415 . S
C1080 C1085 1.425 . S
C1080 C1087 1.409 . S
C1081 H1073 0.930 . S
C1081 C1079 1.419 . S
C1081 C1082 1.362 . S
C1082 H1074 0.930 . S
C1082 C1081 1.362 . S
C1082 C1085 1.409 . S
C1083 H1075 0.930 . S
C1083 C1084 1.355 . S
C1083 C1085 1.415 . S
C1084 C1083 1.355 . S
C1084 C1086 1.419 . S
C1085 C1080 1.425 . S
C1085 C1082 1.409 . S
C1085 C1083 1.415 . S
C1086 H1076 0.930 . S
C1086 C1084 1.419 . S
C1086 C1087 1.362 . S
C1087 H1077 0.930 . S
C1087 C1080 1.409 . S
C1087 C1086 1.362 . S
H1088 C1094 0.930 . S
H1089 C1097 0.930 . S
H1090 C1098 0.930 . S
H1091 C1099 0.930 . S
H1092 C1102 0.930 . S
H1093 C1103 0.930 . S
C1094 H1088 0.930 . S
C1094 C1095 1.355 . S
C1094 C1096 1.415 . S
C1095 C1094 1.355 . S
C1095 C1097 1.419 . S
C1096 C1094 1.415 . S
C1096 C1101 1.425 . S
C1096 C1103 1.409 . S
C1097 H1089 0.930 . S
C1097 C1095 1.419 . S
C1097 C1098 1.362 . S
C1098 H1090 0.930 . S
C1098 C1097 1.362 . S
C1098 C1101 1.409 . S
C1099 H1091 0.930 . S
C1099 C1100 1.355 . S
C1099 C1101 1.415 . S
C1100 C1099 1.355 . S
C1100 C1102 1.419 . S
C1101 C1096 1.425 . S
C1101 C1098 1.409 . S
C1101 C1099 1.415 . S
C1102 H1092 0.930 . S
C1102 C1100 1.419 . S
C1102 C1103 1.362 . S
C1103 H1093 0.930 . S
C1103 C1096 1.409 . S
C1103 C1102 1.362 . S
H1104 C1110 0.930 . S
H1105 C1113 0.930 . S
H1106 C1114 0.930 . S
H1107 C1115 0.930 . S
H1108 C1118 0.930 . S
H1109 C1119 0.930 . S
C1110 H1104 0.930 . S
C1110 C1111 1.355 . S
C1110 C1112 1.415 . S
C1111 C1110 1.355 . S
C1111 C1113 1.419 . S
C1112 C1110 1.415 . S
C1112 C1117 1.425 . S
C1112 C1119 1.409 . S
C1113 H1105 0.930 . S
C1113 C1111 1.419 . S
C1113 C1114 1.362 . S
C1114 H1106 0.930 . S
C1114 C1113 1.362 . S
C1114 C1117 1.409 . S
C1115 H1107 0.930 . S
C1115 C1116 1.355 . S
C1115 C1117 1.415 . S
C1116 C1115 1.355 . S
C1116 C1118 1.419 . S
C1117 C1112 1.425 . S
C1117 C1114 1.409 . S
C1117 C1115 1.415 . S
C1118 H1108 0.930 . S
C1118 C1116 1.419 . S
C1118 C1119 1.362 . S
C1119 H1109 0.930 . S
C1119 C1112 1.409 . S
C1119 C1118 1.362 . S
H1120 C1126 0.930 . S
H1121 C1129 0.930 . S
H1122 C1130 0.930 . S
H1123 C1131 0.930 . S
H1124 C1134 0.930 . S
H1125 C1135 0.930 . S
C1126 H1120 0.930 . S
C1126 C1127 1.355 . S
C1126 C1128 1.415 . S
C1127 C1126 1.355 . S
C1127 C1129 1.419 . S
C1128 C1126 1.415 . S
C1128 C1133 1.425 . S
C1128 C1135 1.409 . S
C1129 H1121 0.930 . S
C1129 C1127 1.419 . S
C1129 C1130 1.362 . S
C1130 H1122 0.930 . S
C1130 C1129 1.362 . S
C1130 C1133 1.409 . S
C1131 H1123 0.930 . S
C1131 C1132 1.355 . S
C1131 C1133 1.415 . S
C1132 C1131 1.355 . S
C1132 C1134 1.419 . S
C1133 C1128 1.425 . S
C1133 C1130 1.409 . S
C1133 C1131 1.415 . S
C1134 H1124 0.930 . S
C1134 C1132 1.419 . S
C1134 C1135 1.362 . S
C1135 H1125 0.930 . S
C1135 C1128 1.409 . S
C1135 C1134 1.362 . S
H1136 C1142 0.930 . S
H1137 C1145 0.930 . S
H1138 C1146 0.930 . S
H1139 C1147 0.930 . S
H1140 C1150 0.930 . S
H1141 C1151 0.930 . S
C1142 H1136 0.930 . S
C1142 C1143 1.355 . S
C1142 C1144 1.415 . S
C1143 C1142 1.355 . S
C1143 C1145 1.419 . S
C1144 C1142 1.415 . S
C1144 C1149 1.425 . S
C1144 C1151 1.409 . S
C1145 H1137 0.930 . S
C1145 C1143 1.419 . S
C1145 C1146 1.362 . S
C1146 H1138 0.930 . S
C1146 C1145 1.362 . S
C1146 C1149 1.409 . S
C1147 H1139 0.930 . S
C1147 C1148 1.355 . S
C1147 C1149 1.415 . S
C1148 C1147 1.355 . S
C1148 C1150 1.419 . S
C1149 C1144 1.425 . S
C1149 C1146 1.409 . S
C1149 C1147 1.415 . S
C1150 H1140 0.930 . S
C1150 C1148 1.419 . S
C1150 C1151 1.362 . S
C1151 H1141 0.930 . S
C1151 C1144 1.409 . S
C1151 C1150 1.362 . S
H1152 C1158 0.930 . S
H1153 C1161 0.930 . S
H1154 C1162 0.930 . S
H1155 C1163 0.930 . S
H1156 C1166 0.930 . S
H1157 C1167 0.930 . S
C1158 H1152 0.930 . S
C1158 C1159 1.355 . S
C1158 C1160 1.415 . S
C1159 C1158 1.355 . S
C1159 C1161 1.419 . S
C1160 C1158 1.415 . S
C1160 C1165 1.425 . S
C1160 C1167 1.409 . S
C1161 H1153 0.930 . S
C1161 C1159 1.419 . S
C1161 C1162 1.362 . S
C1162 H1154 0.930 . S
C1162 C1161 1.362 . S
C1162 C1165 1.409 . S
C1163 H1155 0.930 . S
C1163 C1164 1.355 . S
C1163 C1165 1.415 . S
C1164 C1163 1.355 . S
C1164 C1166 1.419 . S
C1165 C1160 1.425 . S
C1165 C1162 1.409 . S
C1165 C1163 1.415 . S
C1166 H1156 0.930 . S
C1166 C1164 1.419 . S
C1166 C1167 1.362 . S
C1167 H1157 0.930 . S
C1167 C1160 1.409 . S
C1167 C1166 1.362 . S
H1168 C1174 0.930 . S
H1169 C1177 0.930 . S
H1170 C1178 0.930 . S
H1171 C1179 0.930 . S
H1172 C1182 0.930 . S
H1173 C1183 0.930 . S
C1174 H1168 0.930 . S
C1174 C1175 1.355 . S
C1174 C1176 1.415 . S
C1175 C1174 1.355 . S
C1175 C1177 1.419 . S
C1176 C1174 1.415 . S
C1176 C1181 1.425 . S
C1176 C1183 1.409 . S
C1177 H1169 0.930 . S
C1177 C1175 1.419 . S
C1177 C1178 1.362 . S
C1178 H1170 0.930 . S
C1178 C1177 1.362 . S
C1178 C1181 1.409 . S
C1179 H1171 0.930 . S
C1179 C1180 1.355 . S
C1179 C1181 1.415 . S
C1180 C1179 1.355 . S
C1180 C1182 1.419 . S
C1181 C1176 1.425 . S
C1181 C1178 1.409 . S
C1181 C1179 1.415 . S
C1182 H1172 0.930 . S
C1182 C1180 1.419 . S
C1182 C1183 1.362 . S
C1183 H1173 0.930 . S
C1183 C1176 1.409 . S
C1183 C1182 1.362 . S
H1184 C1190 0.930 . S
H1185 C1193 0.930 . S
H1186 C1194 0.930 . S
H1187 C1195 0.930 . S
H1188 C1198 0.930 . S
H1189 C1199 0.930 . S
C1190 H1184 0.930 . S
C1190 C1191 1.355 . S
C1190 C1192 1.415 . S
C1191 C1190 1.355 . S
C1191 C1193 1.419 . S
C1192 C1190 1.415 . S
C1192 C1197 1.425 . S
C1192 C1199 1.409 . S
C1193 H1185 0.930 . S
C1193 C1191 1.419 . S
C1193 C1194 1.362 . S
C1194 H1186 0.930 . S
C1194 C1193 1.362 . S
C1194 C1197 1.409 . S
C1195 H1187 0.930 . S
C1195 C1196 1.355 . S
C1195 C1197 1.415 . S
C1196 C1195 1.355 . S
C1196 C1198 1.419 . S
C1197 C1192 1.425 . S
C1197 C1194 1.409 . S
C1197 C1195 1.415 . S
C1198 H1188 0.930 . S
C1198 C1196 1.419 . S
C1198 C1199 1.362 . S
C1199 H1189 0.930 . S
C1199 C1192 1.409 . S
C1199 C1198 1.362 . S
H1200 C1206 0.930 . S
H1201 C1209 0.930 . S
H1202 C1210 0.930 . S
H1203 C1211 0.930 . S
H1204 C1214 0.930 . S
H1205 C1215 0.930 . S
C1206 H1200 0.930 . S
C1206 C1207 1.355 . S
C1206 C1208 1.415 . S
C1207 C1206 1.355 . S
C1207 C1209 1.419 . S
C1208 C1206 1.415 . S
C1208 C1213 1.425 . S
C1208 C1215 1.409 . S
C1209 H1201 0.930 . S
C1209 C1207 1.419 . S
C1209 C1210 1.362 . S
C1210 H1202 0.930 . S
C1210 C1209 1.362 . S
C1210 C1213 1.409 . S
C1211 H1203 0.930 . S
C1211 C1212 1.355 . S
C1211 C1213 1.415 . S
C1212 C1211 1.355 . S
C1212 C1214 1.419 . S
C1213 C1208 1.425 . S
C1213 C1210 1.409 . S
C1213 C1211 1.415 . S
C1214 H1204 0.930 . S
C1214 C1212 1.419 . S
C1214 C1215 1.362 . S
C1215 H1205 0.930 . S
C1215 C1208 1.409 . S
C1215 C1214 1.362 . S
H1216 C1222 0.930 . S
H1217 C1225 0.930 . S
H1218 C1226 0.930 . S
H1219 C1227 0.930 . S
H1220 C1230 0.930 . S
H1221 C1231 0.930 . S
C1222 H1216 0.930 . S
C1222 C1223 1.355 . S
C1222 C1224 1.415 . S
C1223 C1222 1.355 . S
C1223 C1225 1.419 . S
C1224 C1222 1.415 . S
C1224 C1229 1.425 . S
C1224 C1231 1.409 . S
C1225 H1217 0.930 . S
C1225 C1223 1.419 . S
C1225 C1226 1.362 . S
C1226 H1218 0.930 . S
C1226 C1225 1.362 . S
C1226 C1229 1.409 . S
C1227 H1219 0.930 . S
C1227 C1228 1.355 . S
C1227 C1229 1.415 . S
C1228 C1227 1.355 . S
C1228 C1230 1.419 . S
C1229 C1224 1.425 . S
C1229 C1226 1.409 . S
C1229 C1227 1.415 . S
C1230 H1220 0.930 . S
C1230 C1228 1.419 . S
C1230 C1231 1.362 . S
C1231 H1221 0.930 . S
C1231 C1224 1.409 . S
C1231 C1230 1.362 . S
H1232 C1238 0.930 . S
H1233 C1241 0.930 . S
H1234 C1242 0.930 . S
H1235 C1243 0.930 . S
H1236 C1246 0.930 . S
H1237 C1247 0.930 . S
C1238 H1232 0.930 . S
C1238 C1239 1.355 . S
C1238 C1240 1.415 . S
C1239 C1238 1.355 . S
C1239 C1241 1.419 . S
C1240 C1238 1.415 . S
C1240 C1245 1.425 . S
C1240 C1247 1.409 . S
C1241 H1233 0.930 . S
C1241 C1239 1.419 . S
C1241 C1242 1.362 . S
C1242 H1234 0.930 . S
C1242 C1241 1.362 . S
C1242 C1245 1.409 . S
C1243 H1235 0.930 . S
C1243 C1244 1.355 . S
C1243 C1245 1.415 . S
C1244 C1243 1.355 . S
C1244 C1246 1.419 . S
C1245 C1240 1.425 . S
C1245 C1242 1.409 . S
C1245 C1243 1.415 . S
C1246 H1236 0.930 . S
C1246 C1244 1.419 . S
C1246 C1247 1.362 . S
C1247 H1237 0.930 . S
C1247 C1240 1.409 . S
C1247 C1246 1.362 . S
H1248 C1254 0.930 . S
H1249 C1257 0.930 . S
H1250 C1258 0.930 . S
H1251 C1259 0.930 . S
H1252 C1262 0.930 . S
H1253 C1263 0.930 . S
C1254 H1248 0.930 . S
C1254 C1255 1.355 . S
C1254 C1256 1.415 . S
C1255 C1254 1.355 . S
C1255 C1257 1.419 . S
C1256 C1254 1.415 . S
C1256 C1261 1.425 . S
C1256 C1263 1.409 . S
C1257 H1249 0.930 . S
C1257 C1255 1.419 . S
C1257 C1258 1.362 . S
C1258 H1250 0.930 . S
C1258 C1257 1.362 . S
C1258 C1261 1.409 . S
C1259 H1251 0.930 . S
C1259 C1260 1.355 . S
C1259 C1261 1.415 . S
C1260 C1259 1.355 . S
C1260 C1262 1.419 . S
C1261 C1256 1.425 . S
C1261 C1258 1.409 . S
C1261 C1259 1.415 . S
C1262 H1252 0.930 . S
C1262 C1260 1.419 . S
C1262 C1263 1.362 . S
C1263 H1253 0.930 . S
C1263 C1256 1.409 . S
C1263 C1262 1.362 . S
H1264 C1270 0.930 . S
H1265 C1273 0.930 . S
H1266 C1274 0.930 . S
H1267 C1275 0.930 . S
H1268 C1278 0.930 . S
H1269 C1279 0.930 . S
C1270 H1264 0.930 . S
C1270 C1271 1.355 . S
C1270 C1272 1.415 . S
C1271 C1270 1.355 . S
C1271 C1273 1.419 . S
C1272 C1270 1.415 . S
C1272 C1277 1.425 . S
C1272 C1279 1.409 . S
C1273 H1265 0.930 . S
C1273 C1271 1.419 . S
C1273 C1274 1.362 . S
C1274 H1266 0.930 . S
C1274 C1273 1.362 . S
C1274 C1277 1.409 . S
C1275 H1267 0.930 . S
C1275 C1276 1.355 . S
C1275 C1277 1.415 . S
C1276 C1275 1.355 . S
C1276 C1278 1.419 . S
C1277 C1272 1.425 . S
C1277 C1274 1.409 . S
C1277 C1275 1.415 . S
C1278 H1268 0.930 . S
C1278 C1276 1.419 . S
C1278 C1279 1.362 . S
C1279 H1269 0.930 . S
C1279 C1272 1.409 . S
C1279 C1278 1.362 . S
H1280 C1286 0.930 . S
H1281 C1289 0.930 . S
H1282 C1290 0.930 . S
H1283 C1291 0.930 . S
H1284 C1294 0.930 . S
H1285 C1295 0.930 . S
C1286 H1280 0.930 . S
C1286 C1287 1.355 . S
C1286 C1288 1.415 . S
C1287 C1286 1.355 . S
C1287 C1289 1.419 . S
C1288 C1286 1.415 . S
C1288 C1293 1.425 . S
C1288 C1295 1.409 . S
C1289 H1281 0.930 . S
C1289 C1287 1.419 . S
C1289 C1290 1.362 . S
C1290 H1282 0.930 . S
C1290 C1289 1.362 . S
C1290 C1293 1.409 . S
C1291 H1283 0.930 . S
C1291 C1292 1.355 . S
C1291 C1293 1.415 . S
C1292 C1291 1.355 . S
C1292 C1294 1.419 . S
C1293 C1288 1.425 . S
C1293 C1290 1.409 . S
C1293 C1291 1.415 . S
C1294 H1284 0.930 . S
C1294 C1292 1.419 . S
C1294 C1295 1.362 . S
C1295 H1285 0.930 . S
C1295 C1288 1.409 . S
C1295 C1294 1.362 . S
H1296 C1302 0.930 . S
H1297 C1305 0.930 . S
H1298 C1306 0.930 . S
H1299 C1307 0.930 . S
H1300 C1310 0.930 . S
H1301 C1311 0.930 . S
C1302 H1296 0.930 . S
C1302 C1303 1.355 . S
C1302 C1304 1.415 . S
C1303 C1302 1.355 . S
C1303 C1305 1.419 . S
C1304 C1302 1.415 . S
C1304 C1309 1.425 . S
C1304 C1311 1.409 . S
C1305 H1297 0.930 . S
C1305 C1303 1.419 . S
C1305 C1306 1.362 . S
C1306 H1298 0.930 . S
C1306 C1305 1.362 . S
C1306 C1309 1.409 . S
C1307 H1299 0.930 . S
C1307 C1308 1.355 . S
C1307 C1309 1.415 . S
C1308 C1307 1.355 . S
C1308 C1310 1.419 . S
C1309 C1304 1.425 . S
C1309 C1306 1.409 . S
C1309 C1307 1.415 . S
C1310 H1300 0.930 . S
C1310 C1308 1.419 . S
C1310 C1311 1.362 . S
C1311 H1301 0.930 . S
C1311 C1304 1.409 . S
C1311 C1310 1.362 . S
H1312 C1318 0.930 . S
H1313 C1321 0.930 . S
H1314 C1322 0.930 . S
H1315 C1323 0.930 . S
H1316 C1326 0.930 . S
H1317 C1327 0.930 . S
C1318 H1312 0.930 . S
C1318 C1319 1.355 . S
C1318 C1320 1.415 . S
C1319 C1318 1.355 . S
C1319 C1321 1.419 . S
C1320 C1318 1.415 . S
C1320 C1325 1.425 . S
C1320 C1327 1.409 . S
C1321 H1313 0.930 . S
C1321 C1319 1.419 . S
C1321 C1322 1.362 . S
C1322 H1314 0.930 . S
C1322 C1321 1.362 . S
C1322 C1325 1.409 . S
C1323 H1315 0.930 . S
C1323 C1324 1.355 . S
C1323 C1325 1.415 . S
C1324 C1323 1.355 . S
C1324 C1326 1.419 . S
C1325 C1320 1.425 . S
C1325 C1322 1.409 . S
C1325 C1323 1.415 . S
C1326 H1316 0.930 . S
C1326 C1324 1.419 . S
C1326 C1327 1.362 . S
C1327 H1317 0.930 . S
C1327 C1320 1.409 . S
C1327 C1326 1.362 . S
H1328 C1334 0.930 . S
H1329 C1337 0.930 . S
H1330 C1338 0.930 . S
H1331 C1339 0.930 . S
H1332 C1342 0.930 . S
H1333 C1343 0.930 . S
C1334 H1328 0.930 . S
C1334 C1335 1.355 . S
C1334 C1336 1.415 . S
C1335 C1334 1.355 . S
C1335 C1337 1.419 . S
C1336 C1334 1.415 . S
C1336 C1341 1.425 . S
C1336 C1343 1.409 . S
C1337 H1329 0.930 . S
C1337 C1335 1.419 . S
C1337 C1338 1.362 . S
C1338 H1330 0.930 . S
C1338 C1337 1.362 . S
C1338 C1341 1.409 . S
C1339 H1331 0.930 . S
C1339 C1340 1.355 . S
C1339 C1341 1.415 . S
C1340 C1339 1.355 . S
C1340 C1342 1.419 . S
C1341 C1336 1.425 . S
C1341 C1338 1.409 . S
C1341 C1339 1.415 . S
C1342 H1332 0.930 . S
C1342 C1340 1.419 . S
C1342 C1343 1.362 . S
C1343 H1333 0.930 . S
C1343 C1336 1.409 . S
C1343 C1342 1.362 . S
H1344 C1350 0.930 . S
H1345 C1353 0.930 . S
H1346 C1354 0.930 . S
H1347 C1355 0.930 . S
H1348 C1358 0.930 . S
H1349 C1359 0.930 . S
C1350 H1344 0.930 . S
C1350 C1351 1.355 . S
C1350 C1352 1.415 . S
C1351 C1350 1.355 . S
C1351 C1353 1.419 . S
C1352 C1350 1.415 . S
C1352 C1357 1.425 . S
C1352 C1359 1.409 . S
C1353 H1345 0.930 . S
C1353 C1351 1.419 . S
C1353 C1354 1.362 . S
C1354 H1346 0.930 . S
C1354 C1353 1.362 . S
C1354 C1357 1.409 . S
C1355 H1347 0.930 . S
C1355 C1356 1.355 . S
C1355 C1357 1.415 . S
C1356 C1355 1.355 . S
C1356 C1358 1.419 . S
C1357 C1352 1.425 . S
C1357 C1354 1.409 . S
C1357 C1355 1.415 . S
C1358 H1348 0.930 . S
C1358 C1356 1.419 . S
C1358 C1359 1.362 . S
C1359 H1349 0.930 . S
C1359 C1352 1.409 . S
C1359 C1358 1.362 . S
H1360 C1366 0.930 . S
H1361 C1369 0.930 . S
H1362 C1370 0.930 . S
H1363 C1371 0.930 . S
H1364 C1374 0.930 . S
H1365 C1375 0.930 . S
C1366 H1360 0.930 . S
C1366 C1367 1.355 . S
C1366 C1368 1.415 . S
C1367 C1366 1.355 . S
C1367 C1369 1.419 . S
C1368 C1366 1.415 . S
C1368 C1373 1.425 . S
C1368 C1375 1.409 . S
C1369 H1361 0.930 . S
C1369 C1367 1.419 . S
C1369 C1370 1.362 . S
C1370 H1362 0.930 . S
C1370 C1369 1.362 . S
C1370 C1373 1.409 . S
C1371 H1363 0.930 . S
C1371 C1372 1.355 . S
C1371 C1373 1.415 . S
C1372 C1371 1.355 . S
C1372 C1374 1.419 . S
C1373 C1368 1.425 . S
C1373 C1370 1.409 . S
C1373 C1371 1.415 . S
C1374 H1364 0.930 . S
C1374 C1372 1.419 . S
C1374 C1375 1.362 . S
C1375 H1365 0.930 . S
C1375 C1368 1.409 . S
C1375 C1374 1.362 . S
H1376 C1382 0.930 . S
H1377 C1385 0.930 . S
H1378 C1386 0.930 . S
H1379 C1387 0.930 . S
H1380 C1390 0.930 . S
H1381 C1391 0.930 . S
C1382 H1376 0.930 . S
C1382 C1383 1.355 . S
C1382 C1384 1.415 . S
C1383 C1382 1.355 . S
C1383 C1385 1.419 . S
C1384 C1382 1.415 . S
C1384 C1389 1.425 . S
C1384 C1391 1.409 . S
C1385 H1377 0.930 . S
C1385 C1383 1.419 . S
C1385 C1386 1.362 . S
C1386 H1378 0.930 . S
C1386 C1385 1.362 . S
C1386 C1389 1.409 . S
C1387 H1379 0.930 . S
C1387 C1388 1.355 . S
C1387 C1389 1.415 . S
C1388 C1387 1.355 . S
C1388 C1390 1.419 . S
C1389 C1384 1.425 . S
C1389 C1386 1.409 . S
C1389 C1387 1.415 . S
C1390 H1380 0.930 . S
C1390 C1388 1.419 . S
C1390 C1391 1.362 . S
C1391 H1381 0.930 . S
C1391 C1384 1.409 . S
C1391 C1390 1.362 . S
H1392 C1398 0.930 . S
H1393 C1401 0.930 . S
H1394 C1402 0.930 . S
H1395 C1403 0.930 . S
H1396 C1406 0.930 . S
H1397 C1407 0.930 . S
C1398 H1392 0.930 . S
C1398 C1399 1.355 . S
C1398 C1400 1.415 . S
C1399 C1398 1.355 . S
C1399 C1401 1.419 . S
C1400 C1398 1.415 . S
C1400 C1405 1.425 . S
C1400 C1407 1.409 . S
C1401 H1393 0.930 . S
C1401 C1399 1.419 . S
C1401 C1402 1.362 . S
C1402 H1394 0.930 . S
C1402 C1401 1.362 . S
C1402 C1405 1.409 . S
C1403 H1395 0.930 . S
C1403 C1404 1.355 . S
C1403 C1405 1.415 . S
C1404 C1403 1.355 . S
C1404 C1406 1.419 . S
C1405 C1400 1.425 . S
C1405 C1402 1.409 . S
C1405 C1403 1.415 . S
C1406 H1396 0.930 . S
C1406 C1404 1.419 . S
C1406 C1407 1.362 . S
C1407 H1397 0.930 . S
C1407 C1400 1.409 . S
C1407 C1406 1.362 . S
H1408 C1414 0.930 . S
H1409 C1417 0.930 . S
H1410 C1418 0.930 . S
H1411 C1419 0.930 . S
H1412 C1422 0.930 . S
H1413 C1423 0.930 . S
C1414 H1408 0.930 . S
C1414 C1415 1.355 . S
C1414 C1416 1.415 . S
C1415 C1414 1.355 . S
C1415 C1417 1.419 . S
C1416 C1414 1.415 . S
C1416 C1421 1.425 . S
C1416 C1423 1.409 . S
C1417 H1409 0.930 . S
C1417 C1415 1.419 . S
C1417 C1418 1.362 . S
C1418 H1410 0.930 . S
C1418 C1417 1.362 . S
C1418 C1421 1.409 . S
C1419 H1411 0.930 . S
C1419 C1420 1.355 . S
C1419 C1421 1.415 . S
C1420 C1419 1.355 . S
C1420 C1422 1.419 . S
C1421 C1416 1.425 . S
C1421 C1418 1.409 . S
C1421 C1419 1.415 . S
C1422 H1412 0.930 . S
C1422 C1420 1.419 . S
C1422 C1423 1.362 . S
C1423 H1413 0.930 . S
C1423 C1416 1.409 . S
C1423 C1422 1.362 . S
H1424 C1430 0.930 . S
H1425 C1433 0.930 . S
H1426 C1434 0.930 . S
H1427 C1435 0.930 . S
H1428 C1438 0.930 . S
H1429 C1439 0.930 . S
C1430 H1424 0.930 . S
C1430 C1431 1.355 . S
C1430 C1432 1.415 . S
C1431 C1430 1.355 . S
C1431 C1433 1.419 . S
C1432 C1430 1.415 . S
C1432 C1437 1.425 . S
C1432 C1439 1.409 . S
C1433 H1425 0.930 . S
C1433 C1431 1.419 . S
C1433 C1434 1.362 . S
C1434 H1426 0.930 . S
C1434 C1433 1.362 . S
C1434 C1437 1.409 . S
C1435 H1427 0.930 . S
C1435 C1436 1.355 . S
C1435 C1437 1.415 . S
C1436 C1435 1.355 . S
C1436 C1438 1.419 . S
C1437 C1432 1.425 . S
C1437 C1434 1.409 . S
C1437 C1435 1.415 . S
C1438 H1428 0.930 . S
C1438 C1436 1.419 . S
C1438 C1439 1.362 . S
C1439 H1429 0.930 . S
C1439 C1432 1.409 . S
C1439 C1438 1.362 . S
H1440 C1446 0.930 . S
H1441 C1449 0.930 1_545 S
H1442 C1450 0.930 1_545 S
H1443 C1451 0.930 . S
H1444 C1454 0.930 . S
H1445 C1455 0.930 . S
C1446 H1440 0.930 . S
C1446 C1447 1.355 . S
C1446 C1448 1.415 . S
C1447 C1446 1.355 . S
C1447 C1449 1.419 . S
C1448 C1446 1.415 . S
C1448 C1453 1.425 . S
C1448 C1455 1.409 . S
C1449 H1441 0.930 1_565 S
C1449 C1447 1.419 . S
C1449 C1450 1.362 . S
C1450 H1442 0.930 1_565 S
C1450 C1449 1.362 . S
C1450 C1453 1.409 . S
C1451 H1443 0.930 . S
C1451 C1452 1.355 . S
C1451 C1453 1.415 . S
C1452 C1451 1.355 . S
C1452 C1454 1.419 . S
C1453 C1448 1.425 . S
C1453 C1450 1.409 . S
C1453 C1451 1.415 . S
C1454 H1444 0.930 . S
C1454 C1452 1.419 . S
C1454 C1455 1.362 . S
C1455 H1445 0.930 . S
C1455 C1448 1.409 . S
C1455 C1454 1.362 . S
H1456 C1462 0.930 . S
H1457 C1465 0.930 . S
H1458 C1466 0.930 . S
H1459 C1467 0.930 . S
H1460 C1470 0.930 . S
H1461 C1471 0.930 . S
C1462 H1456 0.930 . S
C1462 C1463 1.355 . S
C1462 C1464 1.415 . S
C1463 C1462 1.355 . S
C1463 C1465 1.419 . S
C1464 C1462 1.415 . S
C1464 C1469 1.425 . S
C1464 C1471 1.409 . S
C1465 H1457 0.930 . S
C1465 C1463 1.419 . S
C1465 C1466 1.362 . S
C1466 H1458 0.930 . S
C1466 C1465 1.362 . S
C1466 C1469 1.409 . S
C1467 H1459 0.930 . S
C1467 C1468 1.355 . S
C1467 C1469 1.415 . S
C1468 C1467 1.355 . S
C1468 C1470 1.419 . S
C1469 C1464 1.425 . S
C1469 C1466 1.409 . S
C1469 C1467 1.415 . S
C1470 H1460 0.930 . S
C1470 C1468 1.419 . S
C1470 C1471 1.362 . S
C1471 H1461 0.930 . S
C1471 C1464 1.409 . S
C1471 C1470 1.362 . S
H1472 C1478 0.930 . S
H1473 C1481 0.930 . S
H1474 C1482 0.930 . S
H1475 C1483 0.930 . S
H1476 C1486 0.930 . S
H1477 C1487 0.930 . S
C1478 H1472 0.930 . S
C1478 C1479 1.355 . S
C1478 C1480 1.415 . S
C1479 C1478 1.355 . S
C1479 C1481 1.419 . S
C1480 C1478 1.415 . S
C1480 C1485 1.425 . S
C1480 C1487 1.409 . S
C1481 H1473 0.930 . S
C1481 C1479 1.419 . S
C1481 C1482 1.362 . S
C1482 H1474 0.930 . S
C1482 C1481 1.362 . S
C1482 C1485 1.409 . S
C1483 H1475 0.930 . S
C1483 C1484 1.355 . S
C1483 C1485 1.415 . S
C1484 C1483 1.355 . S
C1484 C1486 1.419 . S
C1485 C1480 1.425 . S
C1485 C1482 1.409 . S
C1485 C1483 1.415 . S
C1486 H1476 0.930 . S
C1486 C1484 1.419 . S
C1486 C1487 1.362 . S
C1487 H1477 0.930 . S
C1487 C1480 1.409 . S
C1487 C1486 1.362 . S
H1488 C1494 0.930 . S
H1489 C1497 0.930 . S
H1490 C1498 0.930 1_554 S
H1491 C1499 0.930 . S
H1492 C1502 0.930 . S
H1493 C1503 0.930 . S
C1494 H1488 0.930 . S
C1494 C1495 1.355 1_556 S
C1494 C1496 1.415 . S
C1495 C1494 1.355 1_554 S
C1495 C1497 1.419 . S
C1496 C1494 1.415 . S
C1496 C1501 1.425 . S
C1496 C1503 1.409 . S
C1497 H1489 0.930 . S
C1497 C1495 1.419 . S
C1497 C1498 1.362 1_554 S
C1498 H1490 0.930 1_556 S
C1498 C1497 1.362 1_556 S
C1498 C1501 1.409 . S
C1499 H1491 0.930 . S
C1499 C1500 1.355 . S
C1499 C1501 1.415 . S
C1500 C1499 1.355 . S
C1500 C1502 1.419 . S
C1501 C1496 1.425 . S
C1501 C1498 1.409 . S
C1501 C1499 1.415 . S
C1502 H1492 0.930 . S
C1502 C1500 1.419 . S
C1502 C1503 1.362 . S
C1503 H1493 0.930 . S
C1503 C1496 1.409 . S
C1503 C1502 1.362 . S
H1504 C1510 0.930 . S
H1505 C1513 0.930 1_554 S
H1506 C1514 0.930 . S
H1507 C1515 0.930 . S
H1508 C1518 0.930 . S
H1509 C1519 0.930 . S
C1510 H1504 0.930 . S
C1510 C1511 1.355 1_556 S
C1510 C1512 1.415 . S
C1511 C1510 1.355 1_554 S
C1511 C1513 1.419 1_554 S
C1512 C1510 1.415 . S
C1512 C1517 1.425 . S
C1512 C1519 1.409 . S
C1513 H1505 0.930 1_556 S
C1513 C1511 1.419 1_556 S
C1513 C1514 1.362 . S
C1514 H1506 0.930 . S
C1514 C1513 1.362 . S
C1514 C1517 1.409 . S
C1515 H1507 0.930 . S
C1515 C1516 1.355 . S
C1515 C1517 1.415 . S
C1516 C1515 1.355 . S
C1516 C1518 1.419 . S
C1517 C1512 1.425 . S
C1517 C1514 1.409 . S
C1517 C1515 1.415 . S
C1518 H1508 0.930 . S
C1518 C1516 1.419 . S
C1518 C1519 1.362 . S
C1519 H1509 0.930 . S
C1519 C1512 1.409 . S
C1519 C1518 1.362 . S
H1520 C1526 0.930 . S
H1521 C1529 0.930 . S
H1522 C1530 0.930 . S
H1523 C1531 0.930 . S
H1524 C1534 0.930 . S
H1525 C1535 0.930 . S
C1526 H1520 0.930 . S
C1526 C1527 1.355 . S
C1526 C1528 1.415 . S
C1527 C1526 1.355 . S
C1527 C1529 1.419 . S
C1528 C1526 1.415 . S
C1528 C1533 1.425 . S
C1528 C1535 1.409 1_556 S
C1529 H1521 0.930 . S
C1529 C1527 1.419 . S
C1529 C1530 1.362 . S
C1530 H1522 0.930 . S
C1530 C1529 1.362 . S
C1530 C1533 1.409 . S
C1531 H1523 0.930 . S
C1531 C1532 1.355 1_556 S
C1531 C1533 1.415 . S
C1532 C1531 1.355 1_554 S
C1532 C1534 1.419 . S
C1533 C1528 1.425 . S
C1533 C1530 1.409 . S
C1533 C1531 1.415 . S
C1534 H1524 0.930 . S
C1534 C1532 1.419 . S
C1534 C1535 1.362 . S
C1535 H1525 0.930 . S
C1535 C1528 1.409 1_554 S
C1535 C1534 1.362 . S
H1536 C1542 0.930 . S
H1537 C1545 0.930 . S
H1538 C1546 0.930 . S
H1539 C1547 0.930 . S
H1540 C1550 0.930 . S
H1541 C1551 0.930 . S
C1542 H1536 0.930 . S
C1542 C1543 1.355 . S
C1542 C1544 1.415 . S
C1543 C1542 1.355 . S
C1543 C1545 1.419 . S
C1544 C1542 1.415 . S
C1544 C1549 1.425 . S
C1544 C1551 1.409 . S
C1545 H1537 0.930 . S
C1545 C1543 1.419 . S
C1545 C1546 1.362 . S
C1546 H1538 0.930 . S
C1546 C1545 1.362 . S
C1546 C1549 1.409 . S
C1547 H1539 0.930 . S
C1547 C1548 1.355 . S
C1547 C1549 1.415 . S
C1548 C1547 1.355 . S
C1548 C1550 1.419 . S
C1549 C1544 1.425 . S
C1549 C1546 1.409 . S
C1549 C1547 1.415 . S
C1550 H1540 0.930 . S
C1550 C1548 1.419 . S
C1550 C1551 1.362 . S
C1551 H1541 0.930 . S
C1551 C1544 1.409 . S
C1551 C1550 1.362 . S
H1552 C1558 0.930 . S
H1553 C1561 0.930 . S
H1554 C1562 0.930 . S
H1555 C1563 0.930 . S
H1556 C1566 0.930 . S
H1557 C1567 0.930 . S
C1558 H1552 0.930 . S
C1558 C1559 1.355 . S
C1558 C1560 1.415 . S
C1559 C1558 1.355 . S
C1559 C1561 1.419 . S
C1560 C1558 1.415 . S
C1560 C1565 1.425 . S
C1560 C1567 1.409 . S
C1561 H1553 0.930 . S
C1561 C1559 1.419 . S
C1561 C1562 1.362 . S
C1562 H1554 0.930 . S
C1562 C1561 1.362 . S
C1562 C1565 1.409 . S
C1563 H1555 0.930 . S
C1563 C1564 1.355 . S
C1563 C1565 1.415 . S
C1564 C1563 1.355 . S
C1564 C1566 1.419 . S
C1565 C1560 1.425 . S
C1565 C1562 1.409 . S
C1565 C1563 1.415 . S
C1566 H1556 0.930 . S
C1566 C1564 1.419 . S
C1566 C1567 1.362 . S
C1567 H1557 0.930 . S
C1567 C1560 1.409 . S
C1567 C1566 1.362 . S
H1568 C1574 0.930 . S
H1569 C1577 0.930 . S
H1570 C1578 0.930 . S
H1571 C1579 0.930 . S
H1572 C1582 0.930 . S
H1573 C1583 0.930 . S
C1574 H1568 0.930 . S
C1574 C1575 1.355 . S
C1574 C1576 1.415 . S
C1575 C1574 1.355 . S
C1575 C1577 1.419 . S
C1576 C1574 1.415 . S
C1576 C1581 1.425 . S
C1576 C1583 1.409 . S
C1577 H1569 0.930 . S
C1577 C1575 1.419 . S
C1577 C1578 1.362 . S
C1578 H1570 0.930 . S
C1578 C1577 1.362 . S
C1578 C1581 1.409 . S
C1579 H1571 0.930 . S
C1579 C1580 1.355 . S
C1579 C1581 1.415 . S
C1580 C1579 1.355 . S
C1580 C1582 1.419 . S
C1581 C1576 1.425 . S
C1581 C1578 1.409 . S
C1581 C1579 1.415 . S
C1582 H1572 0.930 . S
C1582 C1580 1.419 . S
C1582 C1583 1.362 . S
C1583 H1573 0.930 . S
C1583 C1576 1.409 . S
C1583 C1582 1.362 . S
H1584 C1590 0.930 . S
H1585 C1593 0.930 . S
H1586 C1594 0.930 . S
H1587 C1595 0.930 . S
H1588 C1598 0.930 . S
H1589 C1599 0.930 . S
C1590 H1584 0.930 . S
C1590 C1591 1.355 . S
C1590 C1592 1.415 . S
C1591 C1590 1.355 . S
C1591 C1593 1.419 . S
C1592 C1590 1.415 . S
C1592 C1597 1.425 . S
C1592 C1599 1.409 1_554 S
C1593 H1585 0.930 . S
C1593 C1591 1.419 . S
C1593 C1594 1.362 . S
C1594 H1586 0.930 . S
C1594 C1593 1.362 . S
C1594 C1597 1.409 . S
C1595 H1587 0.930 . S
C1595 C1596 1.355 1_554 S
C1595 C1597 1.415 . S
C1596 C1595 1.355 1_556 S
C1596 C1598 1.419 . S
C1597 C1592 1.425 . S
C1597 C1594 1.409 . S
C1597 C1595 1.415 . S
C1598 H1588 0.930 . S
C1598 C1596 1.419 . S
C1598 C1599 1.362 . S
C1599 H1589 0.930 . S
C1599 C1592 1.409 1_556 S
C1599 C1598 1.362 . S
H1600 C1606 0.930 . S
H1601 C1609 0.930 . S
H1602 C1610 0.930 . S
H1603 C1611 0.930 . S
H1604 C1614 0.930 . S
H1605 C1615 0.930 . S
C1606 H1600 0.930 . S
C1606 C1607 1.355 1_554 S
C1606 C1608 1.415 . S
C1607 C1606 1.355 1_556 S
C1607 C1609 1.419 . S
C1608 C1606 1.415 . S
C1608 C1613 1.425 . S
C1608 C1615 1.409 . S
C1609 H1601 0.930 . S
C1609 C1607 1.419 . S
C1609 C1610 1.362 . S
C1610 H1602 0.930 . S
C1610 C1609 1.362 . S
C1610 C1613 1.409 1_556 S
C1611 H1603 0.930 . S
C1611 C1612 1.355 . S
C1611 C1613 1.415 . S
C1612 C1611 1.355 . S
C1612 C1614 1.419 . S
C1613 C1608 1.425 . S
C1613 C1610 1.409 1_554 S
C1613 C1611 1.415 . S
C1614 H1604 0.930 . S
C1614 C1612 1.419 . S
C1614 C1615 1.362 . S
C1615 H1605 0.930 . S
C1615 C1608 1.409 . S
C1615 C1614 1.362 . S
H1616 C1622 0.930 1_556 S
H1617 C1625 0.930 . S
H1618 C1626 0.930 . S
H1619 C1627 0.930 . S
H1620 C1630 0.930 1_545 S
H1621 C1631 0.930 . S
C1622 H1616 0.930 1_554 S
C1622 C1623 1.355 1_554 S
C1622 C1624 1.415 . S
C1623 C1622 1.355 1_556 S
C1623 C1625 1.419 1_556 S
C1624 C1622 1.415 . S
C1624 C1629 1.425 . S
C1624 C1631 1.409 . S
C1625 H1617 0.930 . S
C1625 C1623 1.419 1_554 S
C1625 C1626 1.362 . S
C1626 H1618 0.930 . S
C1626 C1625 1.362 . S
C1626 C1629 1.409 . S
C1627 H1619 0.930 . S
C1627 C1628 1.355 . S
C1627 C1629 1.415 . S
C1628 C1627 1.355 . S
C1628 C1630 1.419 . S
C1629 C1624 1.425 . S
C1629 C1626 1.409 . S
C1629 C1627 1.415 . S
C1630 H1620 0.930 1_565 S
C1630 C1628 1.419 . S
C1630 C1631 1.362 . S
C1631 H1621 0.930 . S
C1631 C1624 1.409 . S
C1631 C1630 1.362 . S
H1632 C1638 0.930 . S
H1633 C1641 0.930 . S
H1634 C1642 0.930 . S
H1635 C1643 0.930 . S
H1636 C1646 0.930 . S
H1637 C1647 0.930 . S
C1638 H1632 0.930 . S
C1638 C1639 1.355 . S
C1638 C1640 1.415 . S
C1639 C1638 1.355 . S
C1639 C1641 1.419 . S
C1640 C1638 1.415 . S
C1640 C1645 1.425 . S
C1640 C1647 1.409 . S
C1641 H1633 0.930 . S
C1641 C1639 1.419 . S
C1641 C1642 1.362 . S
C1642 H1634 0.930 . S
C1642 C1641 1.362 . S
C1642 C1645 1.409 . S
C1643 H1635 0.930 . S
C1643 C1644 1.355 . S
C1643 C1645 1.415 . S
C1644 C1643 1.355 . S
C1644 C1646 1.419 . S
C1645 C1640 1.425 . S
C1645 C1642 1.409 . S
C1645 C1643 1.415 . S
C1646 H1636 0.930 . S
C1646 C1644 1.419 . S
C1646 C1647 1.362 . S
C1647 H1637 0.930 . S
C1647 C1640 1.409 . S
C1647 C1646 1.362 . S
H1648 C1654 0.930 . S
H1649 C1657 0.930 . S
H1650 C1658 0.930 . S
H1651 C1659 0.930 . S
H1652 C1662 0.930 . S
H1653 C1663 0.930 . S
C1654 H1648 0.930 . S
C1654 C1655 1.355 . S
C1654 C1656 1.415 . S
C1655 C1654 1.355 . S
C1655 C1657 1.419 . S
C1656 C1654 1.415 . S
C1656 C1661 1.425 . S
C1656 C1663 1.409 1_545 S
C1657 H1649 0.930 . S
C1657 C1655 1.419 . S
C1657 C1658 1.362 . S
C1658 H1650 0.930 . S
C1658 C1657 1.362 . S
C1658 C1661 1.409 . S
C1659 H1651 0.930 . S
C1659 C1660 1.355 . S
C1659 C1661 1.415 1_565 S
C1660 C1659 1.355 . S
C1660 C1662 1.419 . S
C1661 C1656 1.425 . S
C1661 C1658 1.409 . S
C1661 C1659 1.415 1_545 S
C1662 H1652 0.930 . S
C1662 C1660 1.419 . S
C1662 C1663 1.362 . S
C1663 H1653 0.930 . S
C1663 C1656 1.409 1_565 S
C1663 C1662 1.362 . S
H1664 C1670 0.930 . S
H1665 C1673 0.930 . S
H1666 C1674 0.930 . S
H1667 C1675 0.930 . S
H1668 C1678 0.930 . S
H1669 C1679 0.930 . S
C1670 H1664 0.930 . S
C1670 C1671 1.355 . S
C1670 C1672 1.415 . S
C1671 C1670 1.355 . S
C1671 C1673 1.419 . S
C1672 C1670 1.415 . S
C1672 C1677 1.425 . S
C1672 C1679 1.409 1_455 S
C1673 H1665 0.930 . S
C1673 C1671 1.419 . S
C1673 C1674 1.362 . S
C1674 H1666 0.930 . S
C1674 C1673 1.362 . S
C1674 C1677 1.409 . S
C1675 H1667 0.930 . S
C1675 C1676 1.355 1_455 S
C1675 C1677 1.415 . S
C1676 C1675 1.355 1_655 S
C1676 C1678 1.419 . S
C1677 C1672 1.425 . S
C1677 C1674 1.409 . S
C1677 C1675 1.415 . S
C1678 H1668 0.930 . S
C1678 C1676 1.419 . S
C1678 C1679 1.362 . S
C1679 H1669 0.930 . S
C1679 C1672 1.409 1_655 S
C1679 C1678 1.362 . S
H1680 C1686 0.930 . S
H1681 C1689 0.930 . S
H1682 C1690 0.930 . S
H1683 C1691 0.930 . S
H1684 C1694 0.930 . S
H1685 C1695 0.930 . S
C1686 H1680 0.930 . S
C1686 C1687 1.355 . S
C1686 C1688 1.415 . S
C1687 C1686 1.355 . S
C1687 C1689 1.419 . S
C1688 C1686 1.415 . S
C1688 C1693 1.425 . S
C1688 C1695 1.409 . S
C1689 H1681 0.930 . S
C1689 C1687 1.419 . S
C1689 C1690 1.362 . S
C1690 H1682 0.930 . S
C1690 C1689 1.362 . S
C1690 C1693 1.409 . S
C1691 H1683 0.930 . S
C1691 C1692 1.355 . S
C1691 C1693 1.415 . S
C1692 C1691 1.355 . S
C1692 C1694 1.419 . S
C1693 C1688 1.425 . S
C1693 C1690 1.409 . S
C1693 C1691 1.415 . S
C1694 H1684 0.930 . S
C1694 C1692 1.419 . S
C1694 C1695 1.362 . S
C1695 H1685 0.930 . S
C1695 C1688 1.409 . S
C1695 C1694 1.362 . S
H1696 C1702 0.930 . S
H1697 C1705 0.930 . S
H1698 C1706 0.930 . S
H1699 C1707 0.930 . S
H1700 C1710 0.930 . S
H1701 C1711 0.930 . S
C1702 H1696 0.930 . S
C1702 C1703 1.355 . S
C1702 C1704 1.415 . S
C1703 C1702 1.355 . S
C1703 C1705 1.419 . S
C1704 C1702 1.415 . S
C1704 C1709 1.425 . S
C1704 C1711 1.409 1_545 S
C1705 H1697 0.930 . S
C1705 C1703 1.419 . S
C1705 C1706 1.362 . S
C1706 H1698 0.930 . S
C1706 C1705 1.362 . S
C1706 C1709 1.409 . S
C1707 H1699 0.930 . S
C1707 C1708 1.355 1_545 S
C1707 C1709 1.415 . S
C1708 C1707 1.355 1_565 S
C1708 C1710 1.419 . S
C1709 C1704 1.425 . S
C1709 C1706 1.409 . S
C1709 C1707 1.415 . S
C1710 H1700 0.930 . S
C1710 C1708 1.419 . S
C1710 C1711 1.362 . S
C1711 H1701 0.930 . S
C1711 C1704 1.409 1_565 S
C1711 C1710 1.362 . S
H1712 C1718 0.930 . S
H1713 C1721 0.930 . S
H1714 C1722 0.930 . S
H1715 C1723 0.930 . S
H1716 C1726 0.930 . S
H1717 C1727 0.930 . S
C1718 H1712 0.930 . S
C1718 C1719 1.355 . S
C1718 C1720 1.415 . S
C1719 C1718 1.355 . S
C1719 C1721 1.419 . S
C1720 C1718 1.415 . S
C1720 C1725 1.425 1_655 S
C1720 C1727 1.409 . S
C1721 H1713 0.930 . S
C1721 C1719 1.419 . S
C1721 C1722 1.362 1_655 S
C1722 H1714 0.930 . S
C1722 C1721 1.362 1_455 S
C1722 C1725 1.409 . S
C1723 H1715 0.930 . S
C1723 C1724 1.355 . S
C1723 C1725 1.415 . S
C1724 C1723 1.355 . S
C1724 C1726 1.419 . S
C1725 C1720 1.425 1_455 S
C1725 C1722 1.409 . S
C1725 C1723 1.415 . S
C1726 H1716 0.930 . S
C1726 C1724 1.419 . S
C1726 C1727 1.362 1_455 S
C1727 H1717 0.930 . S
C1727 C1720 1.409 . S
C1727 C1726 1.362 1_655 S
C583 C54 1.228 . S
C588 C17 1.218 . S
C599 C49 1.172 . S
C604 C86 1.274 . S
C615 C81 1.261 . S
C620 C22 1.266 . S
C631 C146 1.209 . S
C636 C117 1.162 . S
C647 C178 1.302 . S
C652 C149 1.215 . S
C663 C181 1.228 . S
C668 C114 1.307 . S
C679 C209 1.232 . S
C684 C246 1.238 1_554 S
C695 C241 1.142 . S
C700 C278 1.228 1_554 S
C711 C214 1.211 1_554 S
C716 C273 1.181 . S
C727 C309 1.222 . S
C732 C338 1.231 . S
C743 C370 1.251 . S
C748 C341 1.152 . S
C759 C373 1.219 . S
C764 C306 1.229 . S
C775 C401 1.253 . S
C780 C438 1.256 . S
C791 C433 1.190 . S
C796 C470 1.288 . S
C807 C465 1.203 . S
C812 C406 1.296 . S
C823 C530 1.312 1_556 S
C828 C501 1.259 . S
C839 C533 1.177 . S
C844 C562 1.278 1_556 S
C855 C565 1.164 . S
C860 C498 1.266 1_556 S
C871 C19 1.361 . S
C876 C180 1.411 . S
C887 C51 1.351 . S
C892 C116 1.442 . S
C903 C83 1.428 . S
C908 C148 1.407 . S
C919 C55 1.718 . S
C924 C176 1.670 . S
C935 C112 1.707 . S
C940 C87 1.723 . S
C951 C23 1.721 . S
C956 C144 1.675 . S
C967 C80 1.422 . S
C972 C119 1.415 . S
C983 C151 1.358 . S
C988 C16 1.447 . S
C999 C183 1.406 . S
C1004 C48 1.380 . S
C1015 C147 1.721 . S
C1020 C84 1.674 . S
C1031 C179 1.719 . S
C1036 C20 1.683 . S
C1047 C52 1.713 . S
C1052 C115 1.726 . S
C1063 C211 1.428 . S
C1068 C372 1.380 . S
C1079 C308 1.404 . S
C1084 C243 1.429 . S
C1095 C340 1.416 . S
C1100 C275 1.421 . S
C1111 C247 1.723 . S
C1116 C368 1.682 . S
C1127 C304 1.668 . S
C1132 C279 1.719 . S
C1143 C336 1.703 . S
C1148 C215 1.723 . S
C1159 C311 1.433 . S
C1164 C272 1.389 . S
C1175 C208 1.435 . S
C1180 C343 1.399 . S
C1191 C240 1.432 . S
C1196 C375 1.349 . S
C1207 C276 1.684 . S
C1212 C339 1.719 . S
C1223 C371 1.718 . S
C1228 C212 1.670 . S
C1239 C307 1.720 . S
C1244 C244 1.692 . S
C1255 C403 1.393 . S
C1260 C564 1.439 . S
C1271 C435 1.349 . S
C1276 C500 1.435 . S
C1287 C532 1.402 . S
C1292 C467 1.430 . S
C1303 C439 1.727 . S
C1308 C560 1.713 . S
C1319 C471 1.719 . S
C1324 C496 1.682 . S
C1335 C528 1.698 . S
C1340 C407 1.721 . S
C1351 C503 1.394 . S
C1356 C464 1.438 . S
C1367 C535 1.429 . S
C1372 C400 1.380 . S
C1383 C567 1.352 . S
C1388 C432 1.444 . S
C1399 C531 1.721 . S
C1404 C468 1.693 . S
C1415 C563 1.727 . S
C1420 C404 1.713 . S
C1431 C499 1.726 . S
C1436 C436 1.713 . S
C1447 C21 2.291 . S
C1452 C434 2.195 . S
C1463 C53 2.266 . S
C1468 C466 2.204 . S
C1479 C402 2.168 . S
C1484 C85 2.276 . S
C1495 C213 2.276 . S
C1500 C50 2.222 . S
C1511 C245 2.289 . S
C1516 C82 2.188 . S
C1527 C18 2.193 . S
C1532 C277 2.291 . S
C1543 C113 2.283 . S
C1548 C342 2.224 . S
C1559 C145 2.263 . S
C1564 C374 2.178 . S
C1575 C310 2.196 . S
C1580 C177 2.292 . S
C1591 C150 2.222 . S
C1596 C497 2.288 . S
C1607 C529 2.292 . S
C1612 C182 2.200 . S
C1623 C561 2.272 . S
C1628 C118 2.217 . S
C1639 C242 2.180 . S
C1644 C405 2.286 . S
C1655 C274 2.202 . S
C1660 C437 2.265 . S
C1671 C469 2.265 . S
C1676 C210 2.173 . S
C1687 C305 2.277 . S
C1692 C534 2.169 . S
C1703 C337 2.262 . S
C1708 C566 2.186 . S
C1719 C369 2.292 . S
C1724 C502 2.216 . S
