# Generated by pormake.
# Topology uog, (4)-cn, num edge types: 1
# Building blocks:
#     Node 0, Type 0, BuildingBlock: KUFVIS_clean_sbu_0, # of connection points: 4
#     Node 1, Type 0, BuildingBlock: KUFVIS_clean_sbu_0, # of connection points: 4
#     Node 2, Type 0, BuildingBlock: KUFVIS_clean_sbu_0, # of connection points: 4
#     Node 3, Type 0, BuildingBlock: KUFVIS_clean_sbu_0, # of connection points: 4
#     Node 4, Type 0, BuildingBlock: KUFVIS_clean_sbu_0, # of connection points: 4
#     Node 5, Type 0, BuildingBlock: KUFVIS_clean_sbu_0, # of connection points: 4
#     Edge 6, Type (0, 0), BuildingBlock: AJUNOK_clean_linker_0, # of connection points: 2
#     Edge 7, Type (0, 0), BuildingBlock: AJUNOK_clean_linker_0, # of connection points: 2
#     Edge 8, Type (0, 0), BuildingBlock: AJUNOK_clean_linker_0, # of connection points: 2
#     Edge 9, Type (0, 0), BuildingBlock: AJUNOK_clean_linker_0, # of connection points: 2
#     Edge 10, Type (0, 0), BuildingBlock: AJUNOK_clean_linker_0, # of connection points: 2
#     Edge 11, Type (0, 0), BuildingBlock: AJUNOK_clean_linker_0, # of connection points: 2
#     Edge 12, Type (0, 0), BuildingBlock: AJUNOK_clean_linker_0, # of connection points: 2
#     Edge 13, Type (0, 0), BuildingBlock: AJUNOK_clean_linker_0, # of connection points: 2
#     Edge 14, Type (0, 0), BuildingBlock: AJUNOK_clean_linker_0, # of connection points: 2
#     Edge 15, Type (0, 0), BuildingBlock: AJUNOK_clean_linker_0, # of connection points: 2
#     Edge 16, Type (0, 0), BuildingBlock: AJUNOK_clean_linker_0, # of connection points: 2
#     Edge 17, Type (0, 0), BuildingBlock: AJUNOK_clean_linker_0, # of connection points: 2
# Relax obj value: 0.105
# Max RMSD: 0.203
# Mean RMSD: 0.201
data_MOF--net-uog--node1-KUFVIS_clean_sbu_0--edge1-AJUNOK_clean_linker_0
_symmetry_space_group_name_H-M    P1
_symmetry_Int_Tables_number       1
_symmetry_cell_setting            triclinic
loop_
_symmetry_equiv_pos_as_xyz
'x, y, z'
_cell_length_a     21.793485
_cell_length_b     20.743779
_cell_length_c     30.03563
_cell_angle_alpha  90.089648
_cell_angle_beta   90.204363
_cell_angle_gamma 119.25768
loop_
_atom_site_label
_atom_site_type_symbol
_atom_site_fract_x
_atom_site_fract_y
_atom_site_fract_z
_atom_type_partial_charge
Mn0 Mn 0.58159 0.30135 0.15581 0.0
Mn1 Mn 0.7196 0.47004 0.16412 0.0
C2 C 0.6246 0.37099 0.09094 0.0
C3 C 0.54188 0.17339 0.15356 0.0
C4 C 0.57432 0.43187 0.1941 0.0
O5 O 0.62103 0.30788 0.21832 0.0
O6 O 0.72832 0.40696 0.21101 0.0
C7 C 0.84072 0.45024 0.14112 0.0
N8 N 0.8015 0.48388 0.13402 0.0
C9 C 0.88973 0.57535 0.08689 0.0
C10 C 0.93024 0.54071 0.09248 0.0
C11 C 0.90566 0.47757 0.11961 0.0
C12 C 0.82411 0.54344 0.10723 0.0
H13 H 0.82263 0.40348 0.16324 0.0
C14 C 0.6829 0.35093 0.23304 0.0
O15 O 0.50221 0.19946 0.16816 0.0
O16 O 0.60382 0.22154 0.13978 0.0
N17 N 0.7165 0.53621 0.12089 0.0
C18 C 0.66624 0.55593 0.11318 0.0
C19 C 0.68216 0.61776 0.08667 0.0
C20 C 0.74971 0.65884 0.06858 0.0
C21 C 0.79928 0.63511 0.0751 0.0
C22 C 0.77951 0.57187 0.10082 0.0
H23 H 0.61458 0.52523 0.12717 0.0
O24 O 0.56233 0.31327 0.09192 0.0
O25 O 0.66079 0.3833 0.12756 0.0
O26 O 0.54112 0.36844 0.17534 0.0
O27 O 0.64086 0.46712 0.19695 0.0
C28 C 0.86773 0.67182 0.05747 0.0
C29 C 0.9125 0.6411 0.06259 0.0
H30 H 0.98012 0.56311 0.07578 0.0
H31 H 0.93689 0.45076 0.12486 0.0
H32 H 0.64291 0.6345 0.08094 0.0
H33 H 0.76246 0.70775 0.0492 0.0
H34 H 0.88584 0.72249 0.03881 0.0
H35 H 0.96415 0.66831 0.04753 0.0
Mn36 Mn 0.31945 0.60314 0.4844 0.0
Mn37 Mn 0.26785 0.7341 0.48112 0.0
C38 C 0.31339 0.65281 0.4176 0.0
C39 C 0.4104 0.57049 0.49343 0.0
C40 C 0.16448 0.57338 0.48237 0.0
O41 O 0.32652 0.63319 0.54841 0.0
O42 O 0.28059 0.70922 0.5441 0.0
C43 C 0.38249 0.86369 0.52385 0.0
N44 N 0.34696 0.83088 0.48564 0.0
C45 C 0.38447 0.94946 0.4517 0.0
C46 C 0.4171 0.98369 0.49171 0.0
C47 C 0.4172 0.94073 0.5277 0.0
C48 C 0.34703 0.87212 0.45063 0.0
H49 H 0.38041 0.8314 0.55246 0.0
C50 C 0.30461 0.67352 0.56648 0.0
O51 O 0.34438 0.52318 0.49983 0.0
O52 O 0.42325 0.63627 0.48256 0.0
N53 N 0.25333 0.76381 0.42341 0.0
C54 C 0.19867 0.72603 0.39463 0.0
C55 C 0.19374 0.76027 0.35559 0.0
C56 C 0.2421 0.83487 0.34804 0.0
C57 C 0.29434 0.87446 0.37991 0.0
C58 C 0.29947 0.83594 0.41683 0.0
H59 H 0.15974 0.66983 0.40114 0.0
O60 O 0.31365 0.59055 0.41987 0.0
O61 O 0.32179 0.68919 0.455 0.0
O62 O 0.2081 0.54888 0.48858 0.0
O63 O 0.18281 0.64075 0.47649 0.0
C64 C 0.33832 0.95152 0.37795 0.0
C65 C 0.38207 0.98929 0.41441 0.0
H66 H 0.44093 0.04303 0.49536 0.0
H67 H 0.44171 0.96664 0.55896 0.0
H68 H 0.15165 0.72974 0.33198 0.0
H69 H 0.23667 0.86199 0.31869 0.0
H70 H 0.33555 0.98275 0.34988 0.0
H71 H 0.41185 0.04911 0.41409 0.0
Mn72 Mn 0.68968 0.29061 0.85186 0.0
Mn73 Mn 0.74057 0.47271 0.84096 0.0
C74 C 0.69247 0.35881 0.91381 0.0
C75 C 0.59911 0.16494 0.84759 0.0
C76 C 0.84369 0.41718 0.85 0.0
O77 O 0.6872 0.30174 0.78508 0.0
O78 O 0.72387 0.42326 0.78143 0.0
C79 C 0.62111 0.47401 0.7971 0.0
N80 N 0.66178 0.48825 0.83426 0.0
C81 C 0.62946 0.5776 0.8599 0.0
C82 C 0.59054 0.56647 0.8209 0.0
C83 C 0.58526 0.51357 0.78965 0.0
C84 C 0.66619 0.5384 0.86489 0.0
H85 H 0.61952 0.43615 0.77186 0.0
C86 C 0.70457 0.36036 0.76299 0.0
O87 O 0.66527 0.18372 0.84449 0.0
O88 O 0.586 0.21897 0.85286 0.0
N89 N 0.75937 0.52809 0.89479 0.0
C90 C 0.81622 0.55071 0.92211 0.0
C91 C 0.83105 0.60607 0.95363 0.0
C92 C 0.78771 0.63834 0.95661 0.0
C93 C 0.72976 0.61462 0.9281 0.0
C94 C 0.71695 0.55831 0.8975 0.0
H95 H 0.85135 0.52837 0.91896 0.0
O96 O 0.69185 0.29622 0.91739 0.0
O97 O 0.68646 0.37882 0.87336 0.0
O98 O 0.79996 0.34748 0.85038 0.0
O99 O 0.82581 0.46661 0.84728 0.0
C100 C 0.68828 0.64942 0.92623 0.0
C101 C 0.63866 0.63154 0.89174 0.0
H102 H 0.56685 0.60062 0.81406 0.0
H103 H 0.55572 0.50508 0.75914 0.0
H104 H 0.8779 0.6261 0.9738 0.0
H105 H 0.80157 0.68427 0.97896 0.0
H106 H 0.69697 0.69301 0.94955 0.0
H107 H 0.61008 0.66186 0.88887 0.0
Mn108 Mn 0.4208 0.73132 0.15199 0.0
Mn109 Mn 0.28239 0.56224 0.16077 0.0
C110 C 0.37562 0.66056 0.08734 0.0
C111 C 0.45823 0.85869 0.15036 0.0
C112 C 0.42933 0.60031 0.18887 0.0
O113 O 0.3845 0.72613 0.21485 0.0
O114 O 0.27797 0.62531 0.20951 0.0
C115 C 0.16447 0.58932 0.14051 0.0
N116 N 0.19993 0.55183 0.13274 0.0
C117 C 0.11034 0.4675 0.08272 0.0
C118 C 0.07367 0.50617 0.08904 0.0
C119 C 0.1008 0.56757 0.11806 0.0
C120 C 0.1749 0.49383 0.10431 0.0
H121 H 0.18496 0.63544 0.16346 0.0
C122 C 0.32404 0.68248 0.23071 0.0
O123 O 0.4999 0.83426 0.16382 0.0
O124 O 0.39644 0.80954 0.13663 0.0
N125 N 0.28069 0.49553 0.11612 0.0
C126 C 0.32859 0.47305 0.10726 0.0
C127 C 0.30972 0.41183 0.07934 0.0
C128 C 0.2418 0.37442 0.06091 0.0
C129 C 0.19483 0.40127 0.06852 0.0
C130 C 0.21711 0.46304 0.0962 0.0
H131 H 0.38057 0.50118 0.12149 0.0
O132 O 0.43771 0.71857 0.08782 0.0
O133 O 0.34084 0.64857 0.12433 0.0
O134 O 0.46203 0.66462 0.17129 0.0
O135 O 0.36265 0.56303 0.19065 0.0
C136 C 0.12669 0.36925 0.05003 0.0
C137 C 0.0853 0.40372 0.05593 0.0
H138 H 0.02499 0.48856 0.07123 0.0
H139 H 0.07285 0.59778 0.12369 0.0
H140 H 0.347 0.39276 0.07268 0.0
H141 H 0.22684 0.32587 0.04054 0.0
H142 H 0.1061 0.31916 0.03036 0.0
H143 H 0.03425 0.38057 0.0399 0.0
Mn144 Mn 0.71893 0.4452 0.4858 0.0
Mn145 Mn 0.75377 0.30189 0.4839 0.0
C146 C 0.71989 0.39192 0.419 0.0
C147 C 0.63328 0.48539 0.49438 0.0
C148 C 0.86773 0.46034 0.49072 0.0
O149 O 0.71087 0.41515 0.5501 0.0
O150 O 0.73114 0.31873 0.54644 0.0
C151 C 0.62635 0.17049 0.51257 0.0
N152 N 0.66974 0.20943 0.47866 0.0
C153 C 0.62143 0.10129 0.43163 0.0
C154 C 0.57692 0.06024 0.46628 0.0
C155 C 0.58058 0.09485 0.50723 0.0
C156 C 0.66967 0.17565 0.43999 0.0
H157 H 0.62972 0.19584 0.54452 0.0
C158 C 0.71712 0.36329 0.56836 0.0
O159 O 0.70011 0.52971 0.50094 0.0
O160 O 0.61663 0.4183 0.48388 0.0
N161 N 0.77615 0.28067 0.42594 0.0
C162 C 0.8364 0.31947 0.40219 0.0
C163 C 0.84352 0.29269 0.36068 0.0
C164 C 0.79 0.22442 0.34494 0.0
C165 C 0.73048 0.18317 0.37126 0.0
C166 C 0.72504 0.21426 0.41153 0.0
H167 H 0.87864 0.37042 0.41479 0.0
O168 O 0.72452 0.4566 0.42087 0.0
O169 O 0.70998 0.35657 0.45673 0.0
O170 O 0.82928 0.49181 0.48949 0.0
O171 O 0.84351 0.3911 0.48897 0.0
C172 C 0.67802 0.11102 0.36012 0.0
C173 C 0.62419 0.06951 0.39072 0.0
H174 H 0.54247 1.00135 0.46245 0.0
H175 H 0.54983 0.06331 0.53524 0.0
H176 H 0.89064 0.32404 0.34124 0.0
H177 H 0.79629 0.20307 0.31337 0.0
H178 H 0.68065 0.0856 0.32917 0.0
H179 H 0.58667 1.01243 0.38315 0.0
Mn180 Mn 0.29182 0.72448 0.85041 0.0
Mn181 Mn 0.25664 0.54771 0.8358 0.0
C182 C 0.29383 0.6578 0.91152 0.0
C183 C 0.37666 0.85239 0.8472 0.0
C184 C 0.14365 0.59107 0.84003 0.0
O185 O 0.29538 0.71486 0.78352 0.0
O186 O 0.28229 0.60081 0.77772 0.0
C187 C 0.38607 0.5555 0.80329 0.0
N188 N 0.33906 0.53811 0.83696 0.0
C189 C 0.37605 0.45677 0.86982 0.0
C190 C 0.42436 0.47367 0.83535 0.0
C191 C 0.42842 0.52227 0.80153 0.0
C192 C 0.33276 0.48916 0.86883 0.0
H193 H 0.38827 0.59094 0.77639 0.0
C194 C 0.29243 0.66181 0.7606 0.0
O195 O 0.30954 0.82932 0.84393 0.0
O196 O 0.39395 0.80134 0.85206 0.0
N197 N 0.23026 0.49 0.88877 0.0
C198 C 0.16848 0.46316 0.91129 0.0
C199 C 0.15071 0.40678 0.94244 0.0
C200 C 0.19656 0.3785 0.95011 0.0
C201 C 0.26045 0.40793 0.92737 0.0
C202 C 0.27547 0.46427 0.89658 0.0
H203 H 0.13159 0.48242 0.90431 0.0
O204 O 0.29011 0.71802 0.91585 0.0
O205 O 0.30162 0.64019 0.87084 0.0
O206 O 0.18213 0.66023 0.84874 0.0
O207 O 0.16779 0.54741 0.83348 0.0
C208 C 0.30682 0.37917 0.93139 0.0
C209 C 0.36451 0.40336 0.90242 0.0
H210 H 0.45574 0.44637 0.83339 0.0
H211 H 0.4624 0.53254 0.77324 0.0
H212 H 0.10035 0.38308 0.95892 0.0
H213 H 0.18071 0.33156 0.97176 0.0
H214 H 0.29661 0.33578 0.95509 0.0
H215 H 0.39755 0.37784 0.90403 0.0
C216 C 0.56931 0.06899 0.14924 0.0
C217 C 0.519 0.09281 0.15333 0.0
C218 C 0.54961 0.99344 0.14899 0.0
C219 C 0.47862 0.93851 0.15184 0.0
H220 H 0.62466 0.10906 0.14654 0.0
H221 H 0.59025 0.97801 0.14581 0.0
S222 S 0.32628 0.9709 0.16437 0.0
N223 N 0.39499 0.05466 0.16162 0.0
N224 N 0.35789 0.91326 0.16015 0.0
C225 C 0.42778 0.96148 0.15612 0.0
C226 C 0.44795 0.03835 0.15715 0.0
C227 C 0.45233 0.47578 0.49648 0.0
C228 C 0.4682 0.55033 0.49646 0.0
C229 C 0.50577 0.45577 0.49642 0.0
C230 C 0.57798 0.50918 0.49698 0.0
H231 H 0.39802 0.4322 0.49552 0.0
H232 H 0.49006 0.39753 0.4956 0.0
S233 S 0.64862 0.71235 0.49927 0.0
N234 N 0.56245 0.67803 0.49832 0.0
N235 N 0.6619 0.64049 0.49891 0.0
C236 C 0.59462 0.58392 0.49813 0.0
C237 C 0.5402 0.60437 0.49765 0.0
C238 C 0.95983 0.4919 0.88598 0.0
C239 C 0.92035 0.44733 0.84978 0.0
C240 C 0.03157 0.54387 0.88171 0.0
C241 C 0.06624 0.55349 0.84094 0.0
H242 H 0.93449 0.48796 0.91757 0.0
H243 H 0.06053 0.57499 0.9108 0.0
S244 S 0.98719 0.45027 0.73628 0.0
N245 N 0.92135 0.41678 0.77198 0.0
N246 N 0.05654 0.51246 0.76414 0.0
C247 C 0.02765 0.50835 0.80479 0.0
C248 C 0.95477 0.45577 0.80915 0.0
C249 C 0.05327 0.5156 0.52501 0.0
C250 C 0.08723 0.52668 0.48368 0.0
C251 C 0.98309 0.50129 0.52779 0.0
C252 C 0.94535 0.50159 0.48962 0.0
H253 H 0.08203 0.52089 0.55554 0.0
H254 H 0.95768 0.4887 0.56 0.0
S255 S 0.00938 0.52562 0.37344 0.0
N256 N 0.0756 0.53186 0.4036 0.0
N257 N 0.94712 0.51281 0.40926 0.0
C258 C 0.97898 0.51317 0.4483 0.0
C259 C 0.04867 0.52344 0.44525 0.0
C260 C 0.50382 0.95303 0.84669 0.0
C261 C 0.43176 0.93264 0.84599 0.0
C262 C 0.55718 0.02766 0.8466 0.0
C263 C 0.54126 0.08581 0.8461 0.0
H264 H 0.51948 0.91089 0.84749 0.0
H265 H 0.61146 0.03973 0.84745 0.0
S266 S 0.36111 0.06321 0.8431 0.0
N267 N 0.34776 0.97772 0.84387 0.0
N268 N 0.44729 0.11722 0.84399 0.0
C269 C 0.4694 0.0663 0.84499 0.0
C270 C 0.41503 0.99018 0.84484 0.0
C271 C 0.42943 0.48135 0.20227 0.0
C272 C 0.46704 0.55956 0.20133 0.0
C273 C 0.46402 0.43962 0.20327 0.0
C274 C 0.53751 0.47419 0.20542 0.0
H275 H 0.37273 0.45144 0.19874 0.0
H276 H 0.43302 0.38013 0.19993 0.0
S277 S 0.65901 0.67696 0.21731 0.0
N278 N 0.58053 0.66933 0.21071 0.0
N279 N 0.64606 0.59166 0.21664 0.0
C280 C 0.57511 0.55219 0.21102 0.0
C281 C 0.53984 0.5947 0.20791 0.0
C282 C 0.73615 0.39966 0.99047 0.0
C283 C 0.69095 0.39591 0.95568 0.0
C284 C 0.71925 0.40229 0.03525 0.0
C285 C 0.65643 0.40127 0.04692 0.0
H286 H 0.78119 0.39257 0.98321 0.0
H287 H 0.75119 0.39575 0.06056 0.0
S288 S 0.52768 0.40742 0.96839 0.0
N289 N 0.58631 0.40271 0.93581 0.0
N290 N 0.55499 0.40899 0.02 0.0
C291 C 0.61539 0.40689 0.01238 0.0
C292 C 0.6326 0.40405 0.96668 0.0
C293 C 0.25321 0.63144 0.29963 0.0
C294 C 0.31087 0.69038 0.27854 0.0
C295 C 0.25099 0.62423 0.3459 0.0
C296 C 0.30497 0.6767 0.37307 0.0
H297 H 0.21251 0.58669 0.28036 0.0
H298 H 0.20916 0.5743 0.36039 0.0
S299 S 0.45865 0.85026 0.33588 0.0
N300 N 0.41689 0.80955 0.28935 0.0
N301 N 0.4121 0.79482 0.37671 0.0
C302 C 0.35846 0.74026 0.35318 0.0
C303 C 0.36125 0.74765 0.30577 0.0
C304 C 0.70488 0.41429 0.68849 0.0
C305 C 0.70412 0.35663 0.71343 0.0
C306 C 0.70766 0.41467 0.64197 0.0
C307 C 0.7106 0.35777 0.61787 0.0
H308 H 0.70362 0.46011 0.70498 0.0
H309 H 0.70871 0.46116 0.62492 0.0
S310 S 0.70926 0.19298 0.66719 0.0
N311 N 0.70552 0.24 0.7105 0.0
N312 N 0.7116 0.2412 0.62294 0.0
C313 C 0.70923 0.29917 0.64232 0.0
C314 C 0.7057 0.29844 0.68998 0.0
C315 C 0.25574 0.6176 0.9884 0.0
C316 C 0.30003 0.62279 0.95294 0.0
C317 C 0.27716 0.62137 0.03285 0.0
C318 C 0.34265 0.62779 0.0437 0.0
H319 H 0.208 0.62005 0.98173 0.0
H320 H 0.24598 0.6285 0.05822 0.0
S321 S 0.47212 0.62877 0.96349 0.0
N322 N 0.4087 0.62581 0.93175 0.0
N323 N 0.44685 0.62752 0.01545 0.0
C324 C 0.38335 0.62341 0.00869 0.0
C325 C 0.36232 0.62158 0.96324 0.0
C326 C 0.77291 0.40738 0.34492 0.0
C327 C 0.71929 0.3621 0.37446 0.0
C328 C 0.76375 0.39768 0.29883 0.0
C329 C 0.69957 0.34346 0.28034 0.0
H330 H 0.82039 0.45437 0.35751 0.0
H331 H 0.80521 0.43733 0.27775 0.0
S332 S 0.54721 0.20229 0.34424 0.0
N333 N 0.60352 0.25551 0.38279 0.0
N334 N 0.58582 0.23556 0.29599 0.0
C335 C 0.64834 0.2926 0.3098 0.0
C336 C 0.65807 0.3027 0.35694 0.0
C337 C 0.31348 0.62129 0.68654 0.0
C338 C 0.29905 0.66975 0.7114 0.0
C339 C 0.31643 0.62432 0.64007 0.0
C340 C 0.30438 0.67548 0.61604 0.0
H341 H 0.3222 0.58003 0.703 0.0
H342 H 0.32704 0.58485 0.62293 0.0
S343 S 0.26587 0.81617 0.66521 0.0
N344 N 0.27402 0.77203 0.70854 0.0
N345 N 0.27882 0.77709 0.62099 0.0
C346 C 0.29074 0.72509 0.64043 0.0
C347 C 0.28838 0.72247 0.68804 0.0
loop_
_geom_bond_atom_site_label_1
_geom_bond_atom_site_label_2
_geom_bond_distance
_geom_bond_site_symmetry_2
_ccdc_geom_bond_type
Mn0 O5 2.095 . S
Mn0 O15 2.162 . S
Mn0 O16 2.297 . S
Mn0 O24 2.385 . S
Mn0 O25 2.209 . S
Mn0 O26 2.094 . S
Mn1 O6 2.121 . S
Mn1 N8 2.257 . S
Mn1 N17 2.282 . S
Mn1 O25 2.215 . S
Mn1 O27 2.117 . S
C2 O24 1.234 . S
C2 O25 1.283 . S
C3 O15 1.281 . S
C3 O16 1.236 . S
C4 O26 1.240 . S
C4 O27 1.264 . S
O5 Mn0 2.095 . S
O5 C14 1.250 . S
O6 Mn1 2.121 . S
O6 C14 1.258 . S
C7 N8 1.326 . S
C7 C11 1.460 . S
C7 H13 0.929 . S
N8 Mn1 2.257 . S
N8 C7 1.326 . S
N8 C12 1.362 . S
C9 C10 1.258 . S
C9 C12 1.431 . S
C9 C29 1.449 . S
C10 C9 1.258 . S
C10 C11 1.477 . S
C10 H30 0.931 1_655 S
C11 C7 1.460 . S
C11 C10 1.477 . S
C11 H31 0.930 . S
C12 N8 1.362 . S
C12 C9 1.431 . S
C12 C22 1.476 . S
H13 C7 0.929 . S
C14 O5 1.250 . S
C14 O6 1.258 . S
O15 Mn0 2.162 . S
O15 C3 1.281 . S
O16 Mn0 2.297 . S
O16 C3 1.236 . S
N17 Mn1 2.282 . S
N17 C18 1.328 . S
N17 C22 1.318 . S
C18 N17 1.328 . S
C18 C19 1.457 . S
C18 H23 0.929 . S
C19 C18 1.457 . S
C19 C20 1.291 . S
C19 H32 0.931 1_554 S
C20 C19 1.291 . S
C20 C21 1.373 . S
C20 H33 0.929 1_554 S
C21 C20 1.373 . S
C21 C22 1.396 . S
C21 C28 1.403 . S
C22 C12 1.476 . S
C22 N17 1.318 . S
C22 C21 1.396 . S
H23 C18 0.929 . S
O24 Mn0 2.385 . S
O24 C2 1.234 . S
O25 Mn0 2.209 . S
O25 Mn1 2.215 . S
O25 C2 1.283 . S
O26 Mn0 2.094 . S
O26 C4 1.240 . S
O27 Mn1 2.117 . S
O27 C4 1.264 . S
C28 C21 1.403 . S
C28 C29 1.399 . S
C28 H34 0.929 1_554 S
C29 C9 1.449 . S
C29 C28 1.399 . S
C29 H35 0.930 . S
H30 C10 0.931 1_455 S
H31 C11 0.930 . S
H32 C19 0.931 1_556 S
H33 C20 0.929 1_556 S
H34 C28 0.929 1_556 S
H35 C29 0.930 . S
Mn36 O41 2.095 . S
Mn36 O51 2.162 . S
Mn36 O52 2.297 . S
Mn36 O60 2.385 . S
Mn36 O61 2.209 . S
Mn36 O62 2.094 . S
Mn37 O42 2.121 . S
Mn37 N44 2.257 . S
Mn37 N53 2.282 . S
Mn37 O61 2.215 . S
Mn37 O63 2.117 . S
C38 O60 1.234 . S
C38 O61 1.283 . S
C39 O51 1.281 . S
C39 O52 1.236 . S
C40 O62 1.240 . S
C40 O63 1.264 . S
O41 Mn36 2.095 . S
O41 C50 1.250 . S
O42 Mn37 2.121 . S
O42 C50 1.258 . S
C43 N44 1.326 . S
C43 C47 1.460 . S
C43 H49 0.929 . S
N44 Mn37 2.257 . S
N44 C43 1.326 . S
N44 C48 1.362 . S
C45 C46 1.258 . S
C45 C48 1.431 . S
C45 C65 1.449 . S
C46 C45 1.258 . S
C46 C47 1.477 . S
C46 H66 0.931 1_565 S
C47 C43 1.460 . S
C47 C46 1.477 . S
C47 H67 0.930 . S
C48 N44 1.362 . S
C48 C45 1.431 . S
C48 C58 1.476 . S
H49 C43 0.929 . S
C50 O41 1.250 . S
C50 O42 1.258 . S
O51 Mn36 2.162 . S
O51 C39 1.281 . S
O52 Mn36 2.297 . S
O52 C39 1.236 . S
N53 Mn37 2.282 . S
N53 C54 1.328 . S
N53 C58 1.318 . S
C54 N53 1.328 . S
C54 C55 1.457 . S
C54 H59 0.929 . S
C55 C54 1.457 . S
C55 C56 1.291 . S
C55 H68 0.931 . S
C56 C55 1.291 . S
C56 C57 1.373 . S
C56 H69 0.929 . S
C57 C56 1.373 . S
C57 C58 1.396 . S
C57 C64 1.403 . S
C58 C48 1.476 . S
C58 N53 1.318 . S
C58 C57 1.396 . S
H59 C54 0.929 . S
O60 Mn36 2.385 . S
O60 C38 1.234 . S
O61 Mn36 2.209 . S
O61 Mn37 2.215 . S
O61 C38 1.283 . S
O62 Mn36 2.094 . S
O62 C40 1.240 . S
O63 Mn37 2.117 . S
O63 C40 1.264 . S
C64 C57 1.403 . S
C64 C65 1.399 . S
C64 H70 0.929 . S
C65 C45 1.449 . S
C65 C64 1.399 . S
C65 H71 0.930 . S
H66 C46 0.931 1_545 S
H67 C47 0.930 . S
H68 C55 0.931 . S
H69 C56 0.929 . S
H70 C64 0.929 . S
H71 C65 0.930 . S
Mn72 O77 2.095 . S
Mn72 O87 2.162 . S
Mn72 O88 2.297 . S
Mn72 O96 2.385 . S
Mn72 O97 2.209 . S
Mn72 O98 2.094 . S
Mn73 O78 2.121 . S
Mn73 N80 2.257 . S
Mn73 N89 2.282 . S
Mn73 O97 2.215 . S
Mn73 O99 2.117 . S
C74 O96 1.234 . S
C74 O97 1.283 . S
C75 O87 1.281 . S
C75 O88 1.236 . S
C76 O98 1.240 . S
C76 O99 1.264 . S
O77 Mn72 2.095 . S
O77 C86 1.250 . S
O78 Mn73 2.121 . S
O78 C86 1.258 . S
C79 N80 1.326 . S
C79 C83 1.460 . S
C79 H85 0.929 . S
N80 Mn73 2.257 . S
N80 C79 1.326 . S
N80 C84 1.362 . S
C81 C82 1.258 . S
C81 C84 1.431 . S
C81 C101 1.449 . S
C82 C81 1.258 . S
C82 C83 1.477 . S
C82 H102 0.931 . S
C83 C79 1.460 . S
C83 C82 1.477 . S
C83 H103 0.930 . S
C84 N80 1.362 . S
C84 C81 1.431 . S
C84 C94 1.476 . S
H85 C79 0.929 . S
C86 O77 1.250 . S
C86 O78 1.258 . S
O87 Mn72 2.162 . S
O87 C75 1.281 . S
O88 Mn72 2.297 . S
O88 C75 1.236 . S
N89 Mn73 2.282 . S
N89 C90 1.328 . S
N89 C94 1.318 . S
C90 N89 1.328 . S
C90 C91 1.457 . S
C90 H95 0.929 . S
C91 C90 1.457 . S
C91 C92 1.290 1_556 S
C91 H104 0.931 1_556 S
C92 C91 1.290 1_554 S
C92 C93 1.370 1_554 S
C92 H105 0.933 . S
C93 C92 1.370 1_556 S
C93 C94 1.396 . S
C93 C100 1.403 . S
C94 C84 1.476 . S
C94 N89 1.318 . S
C94 C93 1.396 . S
H95 C90 0.929 . S
O96 Mn72 2.385 . S
O96 C74 1.234 . S
O97 Mn72 2.209 . S
O97 Mn73 2.215 . S
O97 C74 1.283 . S
O98 Mn72 2.094 . S
O98 C76 1.240 . S
O99 Mn73 2.117 . S
O99 C76 1.264 . S
C100 C93 1.403 . S
C100 C101 1.399 . S
C100 H106 0.929 1_556 S
C101 C81 1.449 . S
C101 C100 1.399 . S
C101 H107 0.930 . S
H102 C82 0.931 . S
H103 C83 0.930 . S
H104 C91 0.931 1_554 S
H105 C92 0.933 . S
H106 C100 0.929 1_554 S
H107 C101 0.930 . S
Mn108 O113 2.095 . S
Mn108 O123 2.162 . S
Mn108 O124 2.297 . S
Mn108 O132 2.385 . S
Mn108 O133 2.209 . S
Mn108 O134 2.094 . S
Mn109 O114 2.121 . S
Mn109 N116 2.257 . S
Mn109 N125 2.282 . S
Mn109 O133 2.215 . S
Mn109 O135 2.117 . S
C110 O132 1.234 . S
C110 O133 1.283 . S
C111 O123 1.281 . S
C111 O124 1.236 . S
C112 O134 1.240 . S
C112 O135 1.264 . S
O113 Mn108 2.095 . S
O113 C122 1.250 . S
O114 Mn109 2.121 . S
O114 C122 1.258 . S
C115 N116 1.326 . S
C115 C119 1.460 . S
C115 H121 0.929 . S
N116 Mn109 2.257 . S
N116 C115 1.326 . S
N116 C120 1.362 . S
C117 C118 1.258 . S
C117 C120 1.431 . S
C117 C137 1.449 . S
C118 C117 1.258 . S
C118 C119 1.477 . S
C118 H138 0.931 1_455 S
C119 C115 1.460 . S
C119 C118 1.477 . S
C119 H139 0.930 . S
C120 N116 1.362 . S
C120 C117 1.431 . S
C120 C130 1.476 . S
H121 C115 0.929 . S
C122 O113 1.250 . S
C122 O114 1.258 . S
O123 Mn108 2.162 . S
O123 C111 1.281 . S
O124 Mn108 2.297 . S
O124 C111 1.236 . S
N125 Mn109 2.282 . S
N125 C126 1.328 . S
N125 C130 1.318 . S
C126 N125 1.328 . S
C126 C127 1.457 . S
C126 H131 0.929 . S
C127 C126 1.457 . S
C127 C128 1.291 . S
C127 H140 0.931 1_554 S
C128 C127 1.291 . S
C128 C129 1.373 . S
C128 H141 0.929 1_554 S
C129 C128 1.373 . S
C129 C130 1.396 . S
C129 C136 1.403 . S
C130 C120 1.476 . S
C130 N125 1.318 . S
C130 C129 1.396 . S
H131 C126 0.929 . S
O132 Mn108 2.385 . S
O132 C110 1.234 . S
O133 Mn108 2.209 . S
O133 Mn109 2.215 . S
O133 C110 1.283 . S
O134 Mn108 2.094 . S
O134 C112 1.240 . S
O135 Mn109 2.117 . S
O135 C112 1.264 . S
C136 C129 1.403 . S
C136 C137 1.399 . S
C136 H142 0.929 1_554 S
C137 C117 1.449 . S
C137 C136 1.399 . S
C137 H143 0.930 . S
H138 C118 0.931 1_655 S
H139 C119 0.930 . S
H140 C127 0.931 1_556 S
H141 C128 0.929 1_556 S
H142 C136 0.929 1_556 S
H143 C137 0.930 . S
Mn144 O149 2.095 . S
Mn144 O159 2.162 . S
Mn144 O160 2.297 . S
Mn144 O168 2.385 . S
Mn144 O169 2.209 . S
Mn144 O170 2.094 . S
Mn145 O150 2.121 . S
Mn145 N152 2.257 . S
Mn145 N161 2.282 . S
Mn145 O169 2.215 . S
Mn145 O171 2.117 . S
C146 O168 1.234 . S
C146 O169 1.283 . S
C147 O159 1.281 . S
C147 O160 1.236 . S
C148 O170 1.240 . S
C148 O171 1.264 . S
O149 Mn144 2.095 . S
O149 C158 1.250 . S
O150 Mn145 2.121 . S
O150 C158 1.258 . S
C151 N152 1.326 . S
C151 C155 1.460 . S
C151 H157 0.929 . S
N152 Mn145 2.257 . S
N152 C151 1.326 . S
N152 C156 1.362 . S
C153 C154 1.258 . S
C153 C156 1.431 . S
C153 C173 1.449 . S
C154 C153 1.258 . S
C154 C155 1.477 . S
C154 H174 0.931 1_545 S
C155 C151 1.460 . S
C155 C154 1.477 . S
C155 H175 0.930 . S
C156 N152 1.362 . S
C156 C153 1.431 . S
C156 C166 1.476 . S
H157 C151 0.929 . S
C158 O149 1.250 . S
C158 O150 1.258 . S
O159 Mn144 2.162 . S
O159 C147 1.281 . S
O160 Mn144 2.297 . S
O160 C147 1.236 . S
N161 Mn145 2.282 . S
N161 C162 1.328 . S
N161 C166 1.318 . S
C162 N161 1.328 . S
C162 C163 1.457 . S
C162 H167 0.929 . S
C163 C162 1.457 . S
C163 C164 1.291 . S
C163 H176 0.931 . S
C164 C163 1.291 . S
C164 C165 1.373 . S
C164 H177 0.929 . S
C165 C164 1.373 . S
C165 C166 1.396 . S
C165 C172 1.403 . S
C166 C156 1.476 . S
C166 N161 1.318 . S
C166 C165 1.396 . S
H167 C162 0.929 . S
O168 Mn144 2.385 . S
O168 C146 1.234 . S
O169 Mn144 2.209 . S
O169 Mn145 2.215 . S
O169 C146 1.283 . S
O170 Mn144 2.094 . S
O170 C148 1.240 . S
O171 Mn145 2.117 . S
O171 C148 1.264 . S
C172 C165 1.403 . S
C172 C173 1.399 . S
C172 H178 0.929 . S
C173 C153 1.449 . S
C173 C172 1.399 . S
C173 H179 0.930 . S
H174 C154 0.931 1_565 S
H175 C155 0.930 . S
H176 C163 0.931 . S
H177 C164 0.929 . S
H178 C172 0.929 . S
H179 C173 0.930 . S
Mn180 O185 2.095 . S
Mn180 O195 2.162 . S
Mn180 O196 2.297 . S
Mn180 O204 2.385 . S
Mn180 O205 2.209 . S
Mn180 O206 2.094 . S
Mn181 O186 2.121 . S
Mn181 N188 2.257 . S
Mn181 N197 2.282 . S
Mn181 O205 2.215 . S
Mn181 O207 2.117 . S
C182 O204 1.234 . S
C182 O205 1.283 . S
C183 O195 1.281 . S
C183 O196 1.236 . S
C184 O206 1.240 . S
C184 O207 1.264 . S
O185 Mn180 2.095 . S
O185 C194 1.250 . S
O186 Mn181 2.121 . S
O186 C194 1.258 . S
C187 N188 1.326 . S
C187 C191 1.460 . S
C187 H193 0.929 . S
N188 Mn181 2.257 . S
N188 C187 1.326 . S
N188 C192 1.362 . S
C189 C190 1.258 . S
C189 C192 1.431 . S
C189 C209 1.449 . S
C190 C189 1.258 . S
C190 C191 1.477 . S
C190 H210 0.931 . S
C191 C187 1.460 . S
C191 C190 1.477 . S
C191 H211 0.930 . S
C192 N188 1.362 . S
C192 C189 1.431 . S
C192 C202 1.476 . S
H193 C187 0.929 . S
C194 O185 1.250 . S
C194 O186 1.258 . S
O195 Mn180 2.162 . S
O195 C183 1.281 . S
O196 Mn180 2.297 . S
O196 C183 1.236 . S
N197 Mn181 2.282 . S
N197 C198 1.328 . S
N197 C202 1.318 . S
C198 N197 1.328 . S
C198 C199 1.457 . S
C198 H203 0.929 . S
C199 C198 1.457 . S
C199 C200 1.290 1_556 S
C199 H212 0.931 1_556 S
C200 C199 1.290 1_554 S
C200 C201 1.370 1_554 S
C200 H213 0.933 . S
C201 C200 1.370 1_556 S
C201 C202 1.396 . S
C201 C208 1.403 . S
C202 C192 1.476 . S
C202 N197 1.318 . S
C202 C201 1.396 . S
H203 C198 0.929 . S
O204 Mn180 2.385 . S
O204 C182 1.234 . S
O205 Mn180 2.209 . S
O205 Mn181 2.215 . S
O205 C182 1.283 . S
O206 Mn180 2.094 . S
O206 C184 1.240 . S
O207 Mn181 2.117 . S
O207 C184 1.264 . S
C208 C201 1.403 . S
C208 C209 1.399 . S
C208 H214 0.929 1_556 S
C209 C189 1.449 . S
C209 C208 1.399 . S
C209 H215 0.930 . S
H210 C190 0.931 . S
H211 C191 0.930 . S
H212 C199 0.931 1_554 S
H213 C200 0.933 . S
H214 C208 0.929 1_554 S
H215 C209 0.930 . S
C216 C217 1.369 . S
C216 C218 1.419 1_545 S
C216 H220 0.930 . S
C217 C216 1.369 . S
C217 C226 1.429 . S
C218 C216 1.419 1_565 S
C218 C219 1.363 . S
C218 H221 0.929 . S
C219 C218 1.363 . S
C219 C225 1.428 . S
H220 C216 0.930 . S
H221 C218 0.929 . S
S222 N223 1.613 1_565 S
S222 N224 1.610 . S
N223 S222 1.613 1_545 S
N223 C226 1.350 . S
N224 S222 1.610 . S
N224 C225 1.351 . S
C225 C219 1.428 . S
C225 N224 1.351 . S
C225 C226 1.434 1_565 S
C226 C217 1.429 . S
C226 N223 1.350 . S
C226 C225 1.434 1_545 S
C227 C228 1.369 . S
C227 C229 1.419 . S
C227 H231 0.930 . S
C228 C227 1.369 . S
C228 C237 1.429 . S
C229 C227 1.419 . S
C229 C230 1.363 . S
C229 H232 0.929 . S
C230 C229 1.363 . S
C230 C236 1.428 . S
H231 C227 0.930 . S
H232 C229 0.929 . S
S233 N234 1.613 . S
S233 N235 1.610 . S
N234 S233 1.613 . S
N234 C237 1.350 . S
N235 S233 1.610 . S
N235 C236 1.351 . S
C236 C230 1.428 . S
C236 N235 1.351 . S
C236 C237 1.434 . S
C237 C228 1.429 . S
C237 N234 1.350 . S
C237 C236 1.434 . S
C238 C239 1.369 . S
C238 C240 1.419 1_655 S
C238 H242 0.930 . S
C239 C238 1.369 . S
C239 C248 1.429 . S
C240 C238 1.419 1_455 S
C240 C241 1.363 . S
C240 H243 0.929 . S
C241 C240 1.363 . S
C241 C247 1.428 . S
H242 C238 0.930 . S
H243 C240 0.929 . S
S244 N245 1.613 1_455 S
S244 N246 1.610 . S
N245 S244 1.613 1_655 S
N245 C248 1.350 . S
N246 S244 1.610 . S
N246 C247 1.351 . S
C247 C241 1.428 . S
C247 N246 1.351 . S
C247 C248 1.434 1_455 S
C248 C239 1.429 . S
C248 N245 1.350 . S
C248 C247 1.434 1_655 S
C249 C250 1.369 . S
C249 C251 1.419 1_455 S
C249 H253 0.930 . S
C250 C249 1.369 . S
C250 C259 1.429 . S
C251 C249 1.419 1_655 S
C251 C252 1.363 . S
C251 H254 0.929 . S
C252 C251 1.363 . S
C252 C258 1.428 . S
H253 C249 0.930 . S
H254 C251 0.929 . S
S255 N256 1.613 1_655 S
S255 N257 1.610 . S
N256 S255 1.613 1_455 S
N256 C259 1.350 . S
N257 S255 1.610 . S
N257 C258 1.351 . S
C258 C252 1.428 . S
C258 N257 1.351 . S
C258 C259 1.434 1_655 S
C259 C250 1.429 . S
C259 N256 1.350 . S
C259 C258 1.434 1_455 S
C260 C261 1.369 . S
C260 C262 1.419 1_565 S
C260 H264 0.930 . S
C261 C260 1.369 . S
C261 C270 1.429 . S
C262 C260 1.419 1_545 S
C262 C263 1.363 . S
C262 H265 0.929 . S
C263 C262 1.363 . S
C263 C269 1.428 . S
H264 C260 0.930 . S
H265 C262 0.929 . S
S266 N267 1.613 1_545 S
S266 N268 1.610 . S
N267 S266 1.613 1_565 S
N267 C270 1.350 . S
N268 S266 1.610 . S
N268 C269 1.351 . S
C269 C263 1.428 . S
C269 N268 1.351 . S
C269 C270 1.434 1_545 S
C270 C261 1.429 . S
C270 N267 1.350 . S
C270 C269 1.434 1_565 S
C271 C272 1.369 . S
C271 C273 1.419 . S
C271 H275 0.930 . S
C272 C271 1.369 . S
C272 C281 1.429 . S
C273 C271 1.419 . S
C273 C274 1.363 . S
C273 H276 0.929 . S
C274 C273 1.363 . S
C274 C280 1.428 . S
H275 C271 0.930 . S
H276 C273 0.929 . S
S277 N278 1.613 . S
S277 N279 1.610 . S
N278 S277 1.613 . S
N278 C281 1.350 . S
N279 S277 1.610 . S
N279 C280 1.351 . S
C280 C274 1.428 . S
C280 N279 1.351 . S
C280 C281 1.434 . S
C281 C272 1.429 . S
C281 N278 1.350 . S
C281 C280 1.434 . S
C282 C283 1.369 . S
C282 C284 1.419 1_556 S
C282 H286 0.930 . S
C283 C282 1.369 . S
C283 C292 1.429 . S
C284 C282 1.419 1_554 S
C284 C285 1.363 . S
C284 H287 0.929 . S
C285 C284 1.363 . S
C285 C291 1.428 . S
H286 C282 0.930 . S
H287 C284 0.929 . S
S288 N289 1.613 1_554 S
S288 N290 1.610 . S
N289 S288 1.613 1_556 S
N289 C292 1.350 . S
N290 S288 1.610 . S
N290 C291 1.351 . S
C291 C285 1.428 . S
C291 N290 1.351 . S
C291 C292 1.434 1_554 S
C292 C283 1.429 . S
C292 N289 1.350 . S
C292 C291 1.434 1_556 S
C293 C294 1.369 . S
C293 C295 1.419 . S
C293 H297 0.930 . S
C294 C293 1.369 . S
C294 C303 1.429 . S
C295 C293 1.419 . S
C295 C296 1.363 . S
C295 H298 0.929 . S
C296 C295 1.363 . S
C296 C302 1.428 . S
H297 C293 0.930 . S
H298 C295 0.929 . S
S299 N300 1.613 . S
S299 N301 1.610 . S
N300 S299 1.613 . S
N300 C303 1.350 . S
N301 S299 1.610 . S
N301 C302 1.351 . S
C302 C296 1.428 . S
C302 N301 1.351 . S
C302 C303 1.434 . S
C303 C294 1.429 . S
C303 N300 1.350 . S
C303 C302 1.434 . S
C304 C305 1.369 . S
C304 C306 1.419 . S
C304 H308 0.930 . S
C305 C304 1.369 . S
C305 C314 1.429 . S
C306 C304 1.419 . S
C306 C307 1.363 . S
C306 H309 0.929 . S
C307 C306 1.363 . S
C307 C313 1.428 . S
H308 C304 0.930 . S
H309 C306 0.929 . S
S310 N311 1.613 . S
S310 N312 1.610 . S
N311 S310 1.613 . S
N311 C314 1.350 . S
N312 S310 1.610 . S
N312 C313 1.351 . S
C313 C307 1.428 . S
C313 N312 1.351 . S
C313 C314 1.434 . S
C314 C305 1.429 . S
C314 N311 1.350 . S
C314 C313 1.434 . S
C315 C316 1.369 . S
C315 C317 1.419 1_556 S
C315 H319 0.930 . S
C316 C315 1.369 . S
C316 C325 1.429 . S
C317 C315 1.419 1_554 S
C317 C318 1.363 . S
C317 H320 0.929 . S
C318 C317 1.363 . S
C318 C324 1.428 . S
H319 C315 0.930 . S
H320 C317 0.929 . S
S321 N322 1.613 1_554 S
S321 N323 1.610 . S
N322 S321 1.613 1_556 S
N322 C325 1.350 . S
N323 S321 1.610 . S
N323 C324 1.351 . S
C324 C318 1.428 . S
C324 N323 1.351 . S
C324 C325 1.434 1_554 S
C325 C316 1.429 . S
C325 N322 1.350 . S
C325 C324 1.434 1_556 S
C326 C327 1.369 . S
C326 C328 1.419 . S
C326 H330 0.930 . S
C327 C326 1.369 . S
C327 C336 1.429 . S
C328 C326 1.419 . S
C328 C329 1.363 . S
C328 H331 0.929 . S
C329 C328 1.363 . S
C329 C335 1.428 . S
H330 C326 0.930 . S
H331 C328 0.929 . S
S332 N333 1.613 . S
S332 N334 1.610 . S
N333 S332 1.613 . S
N333 C336 1.350 . S
N334 S332 1.610 . S
N334 C335 1.351 . S
C335 C329 1.428 . S
C335 N334 1.351 . S
C335 C336 1.434 . S
C336 C327 1.429 . S
C336 N333 1.350 . S
C336 C335 1.434 . S
C337 C338 1.369 . S
C337 C339 1.419 . S
C337 H341 0.930 . S
C338 C337 1.369 . S
C338 C347 1.429 . S
C339 C337 1.419 . S
C339 C340 1.363 . S
C339 H342 0.929 . S
C340 C339 1.363 . S
C340 C346 1.428 . S
H341 C337 0.930 . S
H342 C339 0.929 . S
S343 N344 1.613 . S
S343 N345 1.610 . S
N344 S343 1.613 . S
N344 C347 1.350 . S
N345 S343 1.610 . S
N345 C346 1.351 . S
C346 C340 1.428 . S
C346 N345 1.351 . S
C346 C347 1.434 . S
C347 C338 1.429 . S
C347 N344 1.350 . S
C347 C346 1.434 . S
C217 C3 1.466 . S
C219 C111 1.466 . S
C228 C39 1.456 . S
C230 C147 1.458 . S
C239 C76 1.444 . S
C241 C184 1.440 . S
C250 C40 1.430 . S
C252 C148 1.432 . S
C261 C183 1.457 . S
C263 C75 1.455 . S
C272 C112 1.445 . S
C274 C4 1.440 . S
C283 C74 1.310 . S
C285 C2 1.305 . S
C294 C122 1.442 . S
C296 C38 1.331 . S
C305 C86 1.467 . S
C307 C158 1.469 . S
C316 C182 1.311 . S
C318 C110 1.304 . S
C327 C146 1.333 . S
C329 C14 1.435 . S
C338 C194 1.466 . S
C340 C50 1.469 . S
