# Generated by pormake.
# Topology ukb, (4)-cn, num edge types: 1
# Building blocks:
#     Node 0, Type 0, BuildingBlock: TATPOV_clean_sbu_0, # of connection points: 4
#     Node 1, Type 0, BuildingBlock: TATPOV_clean_sbu_0, # of connection points: 4
#     Node 2, Type 0, BuildingBlock: TATPOV_clean_sbu_0, # of connection points: 4
#     Node 3, Type 0, BuildingBlock: TATPOV_clean_sbu_0, # of connection points: 4
#     Node 4, Type 0, BuildingBlock: TATPOV_clean_sbu_0, # of connection points: 4
#     Node 5, Type 0, BuildingBlock: TATPOV_clean_sbu_0, # of connection points: 4
#     Node 6, Type 0, BuildingBlock: TATPOV_clean_sbu_0, # of connection points: 4
#     Node 7, Type 0, BuildingBlock: TATPOV_clean_sbu_0, # of connection points: 4
#     Node 8, Type 0, BuildingBlock: TATPOV_clean_sbu_0, # of connection points: 4
#     Node 9, Type 0, BuildingBlock: TATPOV_clean_sbu_0, # of connection points: 4
#     Node 10, Type 0, BuildingBlock: TATPOV_clean_sbu_0, # of connection points: 4
#     Node 11, Type 0, BuildingBlock: TATPOV_clean_sbu_0, # of connection points: 4
#     Node 12, Type 0, BuildingBlock: TATPOV_clean_sbu_0, # of connection points: 4
#     Node 13, Type 0, BuildingBlock: TATPOV_clean_sbu_0, # of connection points: 4
#     Node 14, Type 0, BuildingBlock: TATPOV_clean_sbu_0, # of connection points: 4
#     Node 15, Type 0, BuildingBlock: TATPOV_clean_sbu_0, # of connection points: 4
#     Edge 16, Type (0, 0), BuildingBlock: EZIPEK_clean_linker_0, # of connection points: 2
#     Edge 17, Type (0, 0), BuildingBlock: EZIPEK_clean_linker_0, # of connection points: 2
#     Edge 18, Type (0, 0), BuildingBlock: EZIPEK_clean_linker_0, # of connection points: 2
#     Edge 19, Type (0, 0), BuildingBlock: EZIPEK_clean_linker_0, # of connection points: 2
#     Edge 20, Type (0, 0), BuildingBlock: EZIPEK_clean_linker_0, # of connection points: 2
#     Edge 21, Type (0, 0), BuildingBlock: EZIPEK_clean_linker_0, # of connection points: 2
#     Edge 22, Type (0, 0), BuildingBlock: EZIPEK_clean_linker_0, # of connection points: 2
#     Edge 23, Type (0, 0), BuildingBlock: EZIPEK_clean_linker_0, # of connection points: 2
#     Edge 24, Type (0, 0), BuildingBlock: EZIPEK_clean_linker_0, # of connection points: 2
#     Edge 25, Type (0, 0), BuildingBlock: EZIPEK_clean_linker_0, # of connection points: 2
#     Edge 26, Type (0, 0), BuildingBlock: EZIPEK_clean_linker_0, # of connection points: 2
#     Edge 27, Type (0, 0), BuildingBlock: EZIPEK_clean_linker_0, # of connection points: 2
#     Edge 28, Type (0, 0), BuildingBlock: EZIPEK_clean_linker_0, # of connection points: 2
#     Edge 29, Type (0, 0), BuildingBlock: EZIPEK_clean_linker_0, # of connection points: 2
#     Edge 30, Type (0, 0), BuildingBlock: EZIPEK_clean_linker_0, # of connection points: 2
#     Edge 31, Type (0, 0), BuildingBlock: EZIPEK_clean_linker_0, # of connection points: 2
#     Edge 32, Type (0, 0), BuildingBlock: EZIPEK_clean_linker_0, # of connection points: 2
#     Edge 33, Type (0, 0), BuildingBlock: EZIPEK_clean_linker_0, # of connection points: 2
#     Edge 34, Type (0, 0), BuildingBlock: EZIPEK_clean_linker_0, # of connection points: 2
#     Edge 35, Type (0, 0), BuildingBlock: EZIPEK_clean_linker_0, # of connection points: 2
#     Edge 36, Type (0, 0), BuildingBlock: EZIPEK_clean_linker_0, # of connection points: 2
#     Edge 37, Type (0, 0), BuildingBlock: EZIPEK_clean_linker_0, # of connection points: 2
#     Edge 38, Type (0, 0), BuildingBlock: EZIPEK_clean_linker_0, # of connection points: 2
#     Edge 39, Type (0, 0), BuildingBlock: EZIPEK_clean_linker_0, # of connection points: 2
#     Edge 40, Type (0, 0), BuildingBlock: EZIPEK_clean_linker_0, # of connection points: 2
#     Edge 41, Type (0, 0), BuildingBlock: EZIPEK_clean_linker_0, # of connection points: 2
#     Edge 42, Type (0, 0), BuildingBlock: EZIPEK_clean_linker_0, # of connection points: 2
#     Edge 43, Type (0, 0), BuildingBlock: EZIPEK_clean_linker_0, # of connection points: 2
#     Edge 44, Type (0, 0), BuildingBlock: EZIPEK_clean_linker_0, # of connection points: 2
#     Edge 45, Type (0, 0), BuildingBlock: EZIPEK_clean_linker_0, # of connection points: 2
#     Edge 46, Type (0, 0), BuildingBlock: EZIPEK_clean_linker_0, # of connection points: 2
#     Edge 47, Type (0, 0), BuildingBlock: EZIPEK_clean_linker_0, # of connection points: 2
# Relax obj value: 0.142
# Max RMSD: 0.150
# Mean RMSD: 0.150
data_MOF--net-ukb--node1-TATPOV_clean_sbu_0--edge1-EZIPEK_clean_linker_0
_symmetry_space_group_name_H-M    P1
_symmetry_Int_Tables_number       1
_symmetry_cell_setting            triclinic
loop_
_symmetry_equiv_pos_as_xyz
'x, y, z'
_cell_length_a     32.521393
_cell_length_b     32.726148
_cell_length_c     28.982627
_cell_angle_alpha  89.836339
_cell_angle_beta   90.012334
_cell_angle_gamma 90.141207
loop_
_atom_site_label
_atom_site_type_symbol
_atom_site_fract_x
_atom_site_fract_y
_atom_site_fract_z
_atom_type_partial_charge
Zn0 Zn 0.58423 0.21432 0.11639 0.0
Zn1 Zn 0.51731 0.18416 0.15727 0.0
O2 O 0.49344 0.2051 0.09556 0.0
O3 O 0.54904 0.23139 0.06327 0.0
O4 O 0.46967 0.15566 0.18779 0.0
O5 O 0.61204 0.15948 0.11555 0.0
O6 O 0.55816 0.13608 0.15237 0.0
C7 C 0.51093 0.22372 0.06224 0.0
C8 C 0.56491 0.25467 0.20162 0.0
O9 O 0.53411 0.23047 0.20202 0.0
O10 O 0.59122 0.25318 0.16951 0.0
C11 C 0.43934 0.17236 0.20774 0.0
O12 O 0.43674 0.21232 0.21009 0.0
C13 C 0.59318 0.1298 0.13408 0.0
Zn14 Zn 0.27653 0.59526 0.61821 0.0
Zn15 Zn 0.30964 0.52585 0.64343 0.0
O16 O 0.30175 0.51633 0.57308 0.0
O17 O 0.27229 0.57466 0.55448 0.0
O18 O 0.34039 0.47622 0.66642 0.0
O19 O 0.32397 0.62942 0.63825 0.0
O20 O 0.35152 0.57139 0.66092 0.0
C21 C 0.28521 0.53971 0.54313 0.0
C22 C 0.22692 0.554 0.68354 0.0
O23 O 0.255 0.52688 0.68126 0.0
O24 O 0.22947 0.58655 0.66023 0.0
C25 C 0.32484 0.44426 0.68441 0.0
O26 O 0.28474 0.44051 0.68773 0.0
C27 C 0.35305 0.61023 0.65732 0.0
Zn28 Zn 0.90696 0.27647 0.10015 0.0
Zn29 Zn 0.95887 0.30385 0.1551 0.0
O30 O 0.99241 0.28657 0.09655 0.0
O31 O 0.94618 0.25324 0.05593 0.0
O32 O 0.0016 0.3351 0.19116 0.0
O33 O 0.87903 0.32983 0.08589 0.0
O34 O 0.90888 0.34394 0.15158 0.0
C35 C 0.98286 0.26462 0.06187 0.0
C36 C 0.90884 0.23454 0.18851 0.0
O37 O 0.94164 0.25503 0.1952 0.0
O38 O 0.88725 0.24064 0.15275 0.0
C39 C 0.0356 0.31857 0.20196 0.0
O40 O 0.04184 0.27983 0.19256 0.0
C41 C 0.8809 0.35142 0.1218 0.0
Zn42 Zn 0.21749 0.88791 0.63987 0.0
Zn43 Zn 0.18145 0.9559 0.66137 0.0
O44 O 0.19653 0.966 0.59245 0.0
O45 O 0.2272 0.90775 0.57662 0.0
O46 O 0.1503 0.00632 0.68038 0.0
O47 O 0.16778 0.85432 0.65506 0.0
O48 O 0.13614 0.91191 0.67057 0.0
C49 C 0.21511 0.94273 0.56409 0.0
C50 C 0.25924 0.92573 0.71271 0.0
O51 O 0.23021 0.95173 0.70864 0.0
O52 O 0.26108 0.89524 0.68625 0.0
C53 C 0.16579 0.03791 0.69896 0.0
O54 O 0.20559 0.0401 0.70617 0.0
C55 C 0.13581 0.87306 0.66782 0.0
Zn56 Zn 0.58907 0.28348 0.83775 0.0
Zn57 Zn 0.52369 0.3064 0.78945 0.0
O58 O 0.49894 0.291 0.85313 0.0
O59 O 0.55372 0.27135 0.89219 0.0
O60 O 0.47632 0.33197 0.75446 0.0
O61 O 0.61733 0.33768 0.83187 0.0
O62 O 0.56532 0.35467 0.78804 0.0
C63 C 0.51537 0.27714 0.88986 0.0
C64 C 0.57304 0.23267 0.75797 0.0
O65 O 0.54171 0.25552 0.75213 0.0
O66 O 0.59776 0.23913 0.79093 0.0
C67 C 0.43867 0.32907 0.76588 0.0
O68 O 0.42787 0.30578 0.80079 0.0
C69 C 0.59954 0.36396 0.80684 0.0
Zn70 Zn 0.21022 0.5824 0.27952 0.0
Zn71 Zn 0.1764 0.51984 0.27914 0.0
O72 O 0.19773 0.5189 0.34621 0.0
O73 O 0.24886 0.55896 0.32728 0.0
O74 O 0.14443 0.46806 0.26791 0.0
O75 O 0.16229 0.61723 0.29717 0.0
O76 O 0.13039 0.56352 0.2706 0.0
C77 C 0.23205 0.53548 0.35641 0.0
C78 C 0.24204 0.54636 0.20864 0.0
O79 O 0.22667 0.5179 0.23347 0.0
O80 O 0.22967 0.58249 0.21452 0.0
C81 C 0.1578 0.43167 0.26902 0.0
O82 O 0.19639 0.42448 0.27956 0.0
C83 C 0.12927 0.60056 0.28391 0.0
Zn84 Zn 0.91021 0.20564 0.85289 0.0
Zn85 Zn 0.96789 0.17607 0.80257 0.0
O86 O -0.00303 0.18998 0.86472 0.0
O87 O 0.94799 0.22114 0.9034 0.0
O88 O 0.01154 0.14382 0.76965 0.0
O89 O 0.87752 0.15331 0.85684 0.0
O90 O 0.91745 0.13686 0.79907 0.0
C91 C 0.98486 0.20953 0.90014 0.0
C92 C 0.92636 0.25135 0.76833 0.0
O93 O 0.95691 0.22735 0.76405 0.0
O94 O 0.90113 0.2469 0.80132 0.0
C95 C 0.04848 0.15611 0.76582 0.0
O96 O 0.05892 0.19231 0.78143 0.0
C97 C 0.88509 0.1304 0.82295 0.0
Zn98 Zn 0.28438 0.90018 0.30084 0.0
Zn99 Zn 0.31957 0.96139 0.29598 0.0
O100 O 0.29917 0.96296 0.36359 0.0
O101 O 0.24555 0.92575 0.34657 0.0
O102 O 0.34936 0.01428 0.28379 0.0
O103 O 0.33292 0.86707 0.32168 0.0
O104 O 0.36507 0.91716 0.28746 0.0
C105 C 0.26435 0.94815 0.37505 0.0
C106 C 0.25474 0.93314 0.22621 0.0
O107 O 0.27038 0.96248 0.2492 0.0
O108 O 0.26507 0.89697 0.23585 0.0
C109 C 0.33066 0.04771 0.27638 0.0
O110 O 0.29039 0.04912 0.27939 0.0
C111 C 0.36605 0.88166 0.30574 0.0
Zn112 Zn 0.40698 0.77574 0.82316 0.0
Zn113 Zn 0.46383 0.8078 0.8007 0.0
O114 O 0.46912 0.79854 0.87254 0.0
O115 O 0.43792 0.73998 0.86669 0.0
O116 O 0.51403 0.84034 0.78126 0.0
O117 O 0.37951 0.82836 0.8444 0.0
O118 O 0.41404 0.84497 0.78298 0.0
C119 C 0.45874 0.76447 0.89065 0.0
C120 C 0.42943 0.73773 0.74719 0.0
O121 O 0.46269 0.75316 0.76293 0.0
O122 O 0.39534 0.75085 0.76184 0.0
C123 C 0.54555 0.82587 0.76119 0.0
O124 O 0.54756 0.78661 0.75222 0.0
C125 C 0.38339 0.85113 0.80953 0.0
Zn126 Zn 0.72591 0.39578 0.29886 0.0
Zn127 Zn 0.69101 0.45753 0.28347 0.0
O128 O 0.70978 0.46299 0.35252 0.0
O129 O 0.76197 0.4216 0.34638 0.0
O130 O 0.65775 0.50806 0.26809 0.0
O131 O 0.67516 0.36296 0.31482 0.0
O132 O 0.64665 0.41244 0.27601 0.0
C133 C 0.74202 0.44705 0.37 0.0
C134 C 0.75545 0.42323 0.21745 0.0
O135 O 0.73763 0.45514 0.23289 0.0
O136 O 0.75023 0.38931 0.2374 0.0
C137 C 0.67082 0.53895 0.24574 0.0
O138 O 0.70941 0.54064 0.23255 0.0
C139 C 0.64367 0.37739 0.29506 0.0
Zn140 Zn 0.08851 0.6908 0.80681 0.0
Zn141 Zn 0.02241 0.67266 0.80066 0.0
O142 O 0.01581 0.68842 0.86925 0.0
O143 O 0.07731 0.71578 0.86863 0.0
O144 O 0.97234 0.64146 0.77931 0.0
O145 O 0.07229 0.62727 0.79337 0.0
O146 O 0.07199 0.62775 0.79377 0.0
C147 C 0.04406 0.7084 0.88979 0.0
C148 C 0.058 0.74229 0.74274 0.0
O149 O 0.02583 0.72508 0.759 0.0
O150 O 0.09306 0.72958 0.75452 0.0
C151 C 0.93507 0.65216 0.78412 0.0
O152 O 0.92613 0.68608 0.806 0.0
C153 C 0.08754 0.61916 0.75452 0.0
Zn154 Zn 0.74662 0.07683 0.29794 0.0
Zn155 Zn 0.78583 0.02337 0.27304 0.0
O156 O 0.77843 0.01545 0.3449 0.0
O157 O 0.71709 0.04201 0.34425 0.0
O158 O 0.82225 0.9787 0.24758 0.0
O159 O 0.79515 0.11315 0.31401 0.0
O160 O 0.81876 0.07582 0.25748 0.0
C161 C 0.74483 0.0232 0.36591 0.0
C162 C 0.71218 0.05135 0.21954 0.0
O163 O 0.73242 0.02015 0.23299 0.0
O164 O 0.71816 0.08549 0.23848 0.0
C165 C 0.83569 0.94716 0.26825 0.0
O166 O 0.82545 0.94023 0.3114 0.0
C167 C 0.82037 0.10846 0.28128 0.0
Zn168 Zn 0.39241 0.71095 0.15751 0.0
Zn169 Zn 0.45996 0.67562 0.17231 0.0
O170 O 0.47033 0.69496 0.10522 0.0
O171 O 0.41507 0.7333 0.09893 0.0
O172 O 0.51055 0.64392 0.1912 0.0
O173 O 0.35787 0.66073 0.15689 0.0
O174 O 0.41531 0.62937 0.1749 0.0
C175 C 0.44843 0.7201 0.08228 0.0
C176 C 0.42846 0.74861 0.23117 0.0
O177 O 0.45743 0.72451 0.21924 0.0
O178 O 0.39379 0.74662 0.21181 0.0
C179 C 0.54766 0.65397 0.18323 0.0
O180 O 0.55589 0.68815 0.16122 0.0
C181 C 0.3767 0.62821 0.16703 0.0
Zn182 Zn 0.7665 0.39038 0.64059 0.0
Zn183 Zn 0.80258 0.45827 0.66352 0.0
O184 O 0.79381 0.46822 0.59311 0.0
O185 O 0.75811 0.4126 0.57765 0.0
O186 O 0.83417 0.50714 0.68729 0.0
O187 O 0.81573 0.35578 0.6543 0.0
O188 O 0.84487 0.41251 0.67723 0.0
C189 C 0.77392 0.44604 0.5646 0.0
C190 C 0.72145 0.42995 0.70943 0.0
O191 O 0.74936 0.45704 0.70387 0.0
O192 O 0.72231 0.39708 0.68678 0.0
C193 C 0.81869 0.54045 0.70143 0.0
O194 O 0.77877 0.54609 0.69942 0.0
C195 C 0.84671 0.37408 0.67076 0.0
Zn196 Zn 0.10277 0.77623 0.15782 0.0
Zn197 Zn 0.03739 0.81138 0.16571 0.0
O198 O 0.03088 0.79541 0.09682 0.0
O199 O 0.08096 0.75071 0.10013 0.0
O200 O 0.98761 0.84317 0.18659 0.0
O201 O 0.13966 0.82458 0.15523 0.0
O202 O 0.0827 0.8562 0.17345 0.0
C203 C 0.05174 0.76702 0.07795 0.0
C204 C 0.06447 0.73734 0.22632 0.0
O205 O 0.03608 0.75956 0.20905 0.0
O206 O 0.10128 0.74271 0.21411 0.0
C207 C 0.9502 0.83998 0.17449 0.0
O208 O 0.93947 0.81324 0.14297 0.0
C209 C 0.1214 0.85705 0.16651 0.0
Zn210 Zn 0.73731 0.08432 0.63882 0.0
Zn211 Zn 0.6959 0.01921 0.66238 0.0
O212 O 0.70969 0.00923 0.59275 0.0
O213 O 0.74471 0.06478 0.57502 0.0
O214 O 0.66197 0.96961 0.68076 0.0
O215 O 0.68985 0.12067 0.65647 0.0
O216 O 0.65383 0.06546 0.67261 0.0
C217 C 0.72939 0.03082 0.56337 0.0
C218 C 0.77487 0.04671 0.71434 0.0
O219 O 0.74357 0.02321 0.71099 0.0
O220 O 0.78086 0.07464 0.68497 0.0
C221 C 0.67194 0.94277 0.71051 0.0
O222 O 0.70793 0.94477 0.73094 0.0
C223 C 0.65686 0.10426 0.67053 0.0
C224 C 0.41387 0.12911 0.27313 0.0
C225 C 0.40741 0.146 0.22862 0.0
C226 C 0.34848 0.10055 0.21646 0.0
C227 C 0.35443 0.08407 0.26139 0.0
N228 N 0.38635 0.08851 0.33623 0.0
N229 N 0.36418 0.15486 0.16195 0.0
C230 C 0.38523 0.10018 0.29091 0.0
C231 C 0.37308 0.13412 0.20171 0.0
N232 N 0.44804 0.13989 0.2978 0.0
N233 N 0.32132 0.08249 0.18675 0.0
H234 H 0.38212 0.1791 0.14983 0.0
H235 H 0.33723 0.15051 0.14317 0.0
H236 H 0.30309 0.05746 0.19574 0.0
H237 H 0.31911 0.0901 0.15194 0.0
H238 H 0.45728 0.12507 0.32788 0.0
H239 H 0.4686 0.16242 0.28676 0.0
H240 H 0.40547 0.10196 0.3607 0.0
H241 H 0.36542 0.06778 0.35043 0.0
C242 C 0.35267 0.37268 0.69126 0.0
C243 C 0.35233 0.41386 0.70658 0.0
C244 C 0.40951 0.39952 0.7594 0.0
C245 C 0.40849 0.35789 0.7458 0.0
N246 N 0.37552 0.303 0.70463 0.0
N247 N 0.3737 0.46429 0.76232 0.0
C248 C 0.3788 0.34386 0.71363 0.0
C249 C 0.37898 0.42673 0.74255 0.0
N250 N 0.32951 0.36157 0.65394 0.0
N251 N 0.43978 0.41319 0.78835 0.0
H252 H 0.35085 0.48469 0.75203 0.0
H253 H 0.38917 0.47378 0.79187 0.0
H254 H 0.46116 0.39394 0.80403 0.0
H255 H 0.44539 0.44402 0.79461 0.0
H256 H 0.33172 0.33325 0.63789 0.0
H257 H 0.31018 0.38183 0.63659 0.0
H258 H 0.35165 0.29023 0.68551 0.0
H259 H 0.39518 0.2813 0.71906 0.0
C260 C 0.06601 0.35939 0.26666 0.0
C261 C 0.06926 0.34402 0.22107 0.0
C262 C 0.13443 0.381 0.20989 0.0
C263 C 0.13004 0.39805 0.25464 0.0
N264 N 0.09245 0.40514 0.32571 0.0
N265 N 0.10784 0.33551 0.15068 0.0
C266 C 0.09615 0.38742 0.2832 0.0
C267 C 0.10407 0.35322 0.19322 0.0
N268 N 0.03482 0.34584 0.29452 0.0
N269 N 0.16625 0.39358 0.18229 0.0
H270 H 0.08495 0.31751 0.1358 0.0
H271 H 0.13417 0.33694 0.13043 0.0
H272 H 0.18931 0.41342 0.19343 0.0
H273 H 0.16936 0.38614 0.14764 0.0
H274 H 0.0322 0.35268 0.32939 0.0
H275 H 0.01244 0.32517 0.28345 0.0
H276 H 0.0665 0.40284 0.3465 0.0
H277 H 0.11526 0.42371 0.33997 0.0
C278 C 0.13419 0.10774 0.6947 0.0
C279 C 0.1381 0.06961 0.7177 0.0
C280 C 0.08792 0.09118 0.77583 0.0
C281 C 0.08052 0.1273 0.74992 0.0
N282 N 0.09335 0.16891 0.68269 0.0
N283 N 0.11707 0.02314 0.77813 0.0
C284 C 0.10306 0.13554 0.70899 0.0
C285 C 0.11444 0.06077 0.75767 0.0
N286 N 0.16023 0.1173 0.65923 0.0
N287 N 0.07108 0.08683 0.81884 0.0
H288 H 0.13814 0.00093 0.76799 0.0
H289 H 0.09678 0.01294 0.80347 0.0
H290 H 0.05224 0.10884 0.83387 0.0
H291 H 0.07873 0.06333 0.84152 0.0
H292 H 0.16203 0.14619 0.64423 0.0
H293 H 0.18232 0.09706 0.6468 0.0
H294 H 0.10535 0.17433 0.64995 0.0
H295 H 0.07083 0.18991 0.69214 0.0
C296 C 0.59962 0.87702 0.78322 0.0
C297 C 0.58003 0.85353 0.74846 0.0
C298 C 0.62591 0.88368 0.69026 0.0
C299 C 0.64169 0.91084 0.72405 0.0
N300 N 0.63857 0.93799 0.8014 0.0
N301 N 0.57031 0.83858 0.66763 0.0
C302 C 0.62738 0.90866 0.77029 0.0
C303 C 0.59218 0.85774 0.70161 0.0
N304 N 0.59269 0.86828 0.82873 0.0
N305 N 0.64391 0.88185 0.6477 0.0
H306 H 0.54505 0.8198 0.67429 0.0
H307 H 0.5749 0.84414 0.63261 0.0
H308 H 0.66895 0.90006 0.63833 0.0
H309 H 0.63661 0.8597 0.62328 0.0
H310 H 0.60936 0.88152 0.85552 0.0
H311 H 0.57318 0.84481 0.83962 0.0
H312 H 0.62542 0.94047 0.83404 0.0
H313 H 0.65814 0.96224 0.79329 0.0
C314 C 0.58323 0.58632 0.17667 0.0
C315 C 0.58131 0.62581 0.19689 0.0
C316 C 0.64036 0.60947 0.24665 0.0
C317 C 0.64092 0.5694 0.2281 0.0
N318 N 0.61822 0.52086 0.1711 0.0
N319 N 0.60463 0.67431 0.25366 0.0
C320 C 0.61361 0.55804 0.19204 0.0
C321 C 0.60934 0.63744 0.23215 0.0
N322 N 0.55561 0.57591 0.143 0.0
N323 N 0.66987 0.6208 0.27777 0.0
H324 H 0.58238 0.69558 0.24404 0.0
H325 H 0.62082 0.68314 0.28294 0.0
H326 H 0.69187 0.60059 0.29059 0.0
H327 H 0.67439 0.65063 0.289 0.0
H328 H 0.55157 0.54652 0.13025 0.0
H329 H 0.53538 0.5968 0.12807 0.0
H330 H 0.60195 0.51136 0.14218 0.0
H331 H 0.64046 0.49966 0.18097 0.0
C332 C 0.89576 0.58617 0.78544 0.0
C333 C 0.90204 0.62545 0.7657 0.0
C334 C 0.85245 0.60964 0.70423 0.0
C335 C 0.84549 0.57079 0.72467 0.0
N336 N 0.85348 0.52506 0.78939 0.0
N337 N 0.88254 0.67738 0.71068 0.0
C338 C 0.86521 0.55987 0.76662 0.0
C339 C 0.87892 0.63816 0.72662 0.0
N340 N 0.91931 0.57384 0.82201 0.0
N341 N 0.83548 0.6184 0.66216 0.0
H342 H 0.90322 0.69846 0.72444 0.0
H343 H 0.86326 0.69001 0.68581 0.0
H344 H 0.81579 0.59839 0.64492 0.0
H345 H 0.84299 0.6441 0.64267 0.0
H346 H 0.92026 0.54386 0.83405 0.0
H347 H 0.93974 0.5932 0.83912 0.0
H348 H 0.86344 0.51738 0.82241 0.0
H349 H 0.83077 0.50535 0.77703 0.0
C350 C 0.85498 0.87725 0.2392 0.0
C351 C 0.86451 0.9194 0.24392 0.0
C352 C 0.92596 0.91007 0.19611 0.0
C353 C 0.9192 0.86719 0.19615 0.0
N354 N 0.88089 0.80913 0.22495 0.0
N355 N 0.91356 0.97437 0.23458 0.0
C356 C 0.88459 0.85048 0.21951 0.0
C357 C 0.90123 0.93543 0.22443 0.0
N358 N 0.81713 0.86295 0.25197 0.0
N359 N 0.95512 0.92681 0.16776 0.0
H360 H 0.8971 -0.00635 0.25638 0.0
H361 H 0.9422 0.98608 0.22524 0.0
H362 H 0.97299 0.90944 0.14532 0.0
H363 H 0.95854 0.95819 0.16293 0.0
H364 H 0.80694 0.83345 0.24471 0.0
H365 H 0.79438 0.88162 0.26591 0.0
H366 H 0.85873 0.79558 0.24599 0.0
H367 H 0.90223 0.78839 0.21201 0.0
C368 C 0.56163 0.32799 0.22425 0.0
C369 C 0.56971 0.28686 0.23684 0.0
C370 C 0.60655 0.31023 0.30543 0.0
C371 C 0.6074 0.35009 0.28618 0.0
N372 N 0.56631 0.39958 0.24571 0.0
N373 N 0.59426 0.2379 0.29243 0.0
C374 C 0.57862 0.36004 0.25128 0.0
C375 C 0.5895 0.27769 0.27915 0.0
N376 N 0.53951 0.33616 0.18522 0.0
N377 N 0.62076 0.30424 0.34923 0.0
H378 H 0.58075 0.21374 0.2745 0.0
H379 H 0.61257 0.22877 0.32005 0.0
H380 H 0.63013 0.32866 0.36986 0.0
H381 H 0.61882 0.27649 0.36674 0.0
H382 H 0.53676 0.36521 0.17086 0.0
H383 H 0.52497 0.31321 0.16624 0.0
H384 H 0.54364 0.40868 0.22253 0.0
H385 H 0.57499 0.42244 0.2688 0.0
C386 C 0.15236 0.54209 0.69347 0.0
C387 C 0.19094 0.54984 0.71405 0.0
C388 C 0.15914 0.59239 0.7729 0.0
C389 C 0.12074 0.58844 0.74928 0.0
N390 N 0.07813 0.54989 0.69726 0.0
N391 N 0.22927 0.5676 0.7814 0.0
C392 C 0.11648 0.55967 0.7131 0.0
C393 C 0.19335 0.56943 0.7571 0.0
N394 N 0.15082 0.52019 0.65348 0.0
N395 N 0.16442 0.62062 0.8071 0.0
H396 H 0.25459 0.55128 0.76921 0.0
H397 H 0.23247 0.57841 0.81498 0.0
H398 H 0.14103 0.63851 0.82051 0.0
H399 H 0.19306 0.62824 0.82069 0.0
H400 H 0.12455 0.51709 0.63327 0.0
H401 H 0.17688 0.50588 0.64008 0.0
H402 H 0.07248 0.52713 0.67305 0.0
H403 H 0.05149 0.5623 0.71157 0.0
C404 C 0.88874 0.13653 0.25534 0.0
C405 C 0.8466 0.14312 0.26595 0.0
C406 C 0.85393 0.21475 0.24281 0.0
C407 C 0.89274 0.20586 0.22356 0.0
N408 N 0.94787 0.15835 0.2103 0.0
N409 N 0.7871 0.18782 0.26148 0.0
C410 C 0.91078 0.16691 0.23008 0.0
C411 C 0.8287 0.18225 0.25833 0.0
N412 N 0.90768 0.10155 0.26984 0.0
N413 N 0.84087 0.25435 0.24519 0.0
H414 H 0.76624 0.16447 0.26856 0.0
H415 H 0.77262 0.21484 0.25164 0.0
H416 H 0.85901 0.2788 0.23393 0.0
H417 H 0.81432 0.26305 0.26272 0.0
H418 H 0.93915 0.09652 0.26654 0.0
H419 H 0.89253 0.07918 0.28918 0.0
H420 H 0.96035 0.1291 0.20912 0.0
H421 H 0.9652 0.18033 0.19279 0.0
C422 C 0.32884 0.93678 0.74592 0.0
C423 C 0.28738 0.92537 0.75254 0.0
C424 C 0.30756 0.87013 0.80364 0.0
C425 C 0.34996 0.88016 0.79623 0.0
N426 N 0.39887 0.93247 0.77425 0.0
N427 N 0.23725 0.89476 0.80211 0.0
C428 C 0.35999 0.91681 0.77205 0.0
C429 C 0.27706 0.89751 0.78761 0.0
N430 N 0.33833 0.96513 0.71302 0.0
N431 N 0.2956 0.83284 0.82042 0.0
H432 H 0.21452 0.91411 0.78904 0.0
H433 H 0.2282 0.8767 0.83003 0.0
H434 H 0.31531 0.80851 0.82652 0.0
H435 H 0.26488 0.82387 0.82239 0.0
H436 H 0.36833 0.97154 0.70261 0.0
H437 H 0.31548 0.98098 0.6951 0.0
H438 H 0.40703 0.96048 0.75968 0.0
H439 H 0.42169 0.9196 0.79497 0.0
C440 C 0.58323 0.158 0.75241 0.0
C441 C 0.58028 0.19598 0.7293 0.0
C442 C 0.61147 0.16531 0.66087 0.0
C443 C 0.62358 0.13116 0.688 0.0
N444 N 0.62238 0.09609 0.76196 0.0
N445 N 0.58995 0.23628 0.66047 0.0
C446 C 0.60897 0.12711 0.73409 0.0
C447 C 0.59305 0.1996 0.68276 0.0
N448 N 0.56195 0.15199 0.79252 0.0
N449 N 0.61773 0.16477 0.61427 0.0
H450 H 0.57568 0.26159 0.67517 0.0
H451 H 0.60327 0.24216 0.62846 0.0
H452 H 0.63043 0.13959 0.59748 0.0
H453 H 0.60667 0.18722 0.592 0.0
H454 H 0.55989 0.12372 0.80901 0.0
H455 H 0.54278 0.17437 0.80639 0.0
H456 H 0.61648 0.09499 0.79727 0.0
H457 H 0.6422 0.07311 0.75127 0.0
C458 C 0.32424 0.58216 0.13226 0.0
C459 C 0.35254 0.58954 0.16864 0.0
C460 C 0.31693 0.53784 0.21494 0.0
C461 C 0.28243 0.54193 0.18562 0.0
N462 N 0.25516 0.55996 0.11178 0.0
N463 N 0.37852 0.5705 0.24399 0.0
C464 C 0.28731 0.56052 0.142 0.0
C465 C 0.3506 0.56524 0.20931 0.0
N466 N 0.3325 0.5969 0.08913 0.0
N467 N 0.31649 0.50909 0.24907 0.0
H468 H 0.40415 0.58942 0.24112 0.0
H469 H 0.37521 0.55739 0.27657 0.0
H470 H 0.29235 0.48825 0.25248 0.0
H471 H 0.34174 0.5029 0.27005 0.0
H472 H 0.31433 0.59073 0.06039 0.0
H473 H 0.35991 0.61223 0.08164 0.0
H474 H 0.25444 0.57671 0.0812 0.0
H475 H 0.22856 0.54305 0.11871 0.0
C476 C 0.88907 0.31071 0.66435 0.0
C477 C 0.88285 0.34909 0.68574 0.0
C478 C 0.92224 0.32629 0.75288 0.0
C479 C 0.91998 0.28568 0.73588 0.0
N480 N 0.90481 0.23882 0.67405 0.0
N481 N 0.91264 0.39863 0.73751 0.0
C482 C 0.90561 0.2779 0.69056 0.0
C483 C 0.90545 0.35878 0.72614 0.0
N484 N 0.87991 0.30641 0.61862 0.0
N485 N 0.93915 0.33333 0.79533 0.0
H486 H 0.90567 0.42276 0.71543 0.0
H487 H 0.93061 0.40775 0.76536 0.0
H488 H 0.95424 0.31059 0.81411 0.0
H489 H 0.93711 0.36104 0.81269 0.0
H490 H 0.88645 0.28032 0.59956 0.0
H491 H 0.86981 0.33104 0.59865 0.0
H492 H 0.89 0.23041 0.64367 0.0
H493 H 0.9174 0.21416 0.69193 0.0
C494 C 0.1455 0.91817 0.21334 0.0
C495 C 0.14646 0.89486 0.17197 0.0
C496 C 0.21537 0.92075 0.15456 0.0
C497 C 0.2167 0.93822 0.19893 0.0
N498 N 0.17857 0.97098 0.25921 0.0
N499 N 0.17369 0.88881 0.09511 0.0
C500 C 0.17987 0.94336 0.22408 0.0
C501 C 0.17848 0.90169 0.13955 0.0
N502 N 0.11394 0.914 0.24408 0.0
N503 N 0.25033 0.92 0.12859 0.0
H504 H 0.14634 0.87539 0.08374 0.0
H505 H 0.19486 0.89487 0.06902 0.0
H506 H 0.277 0.93521 0.13915 0.0
H507 H 0.25315 0.90372 0.09794 0.0
H508 H 0.11491 0.92577 0.27741 0.0
H509 H 0.08718 0.89771 0.23723 0.0
H510 H 0.15178 0.97819 0.27706 0.0
H511 H 0.20343 0.99004 0.26668 0.0
C512 C 0.40675 0.66456 0.65111 0.0
C513 C 0.38683 0.63428 0.67839 0.0
C514 C 0.41852 0.66335 0.74739 0.0
C515 C 0.42875 0.69871 0.72175 0.0
N516 N 0.43728 0.73251 0.64893 0.0
N517 N 0.37311 0.60516 0.75389 0.0
C518 C 0.42512 0.69882 0.67324 0.0
C519 C 0.39348 0.6329 0.72685 0.0
N520 N 0.40753 0.66049 0.60425 0.0
N521 N 0.43173 0.65984 0.79192 0.0
H522 H 0.35404 0.58235 0.74094 0.0
H523 H 0.37283 0.60653 0.78979 0.0
H524 H 0.45073 0.68184 0.80691 0.0
H525 H 0.42786 0.63349 0.81172 0.0
H526 H 0.42394 0.67991 0.58245 0.0
H527 H 0.39468 0.63521 0.58766 0.0
H528 H 0.43143 0.7367 0.61392 0.0
H529 H 0.45232 0.75698 0.66476 0.0
C530 C 0.80486 0.36973 0.12538 0.0
C531 C 0.84702 0.38046 0.13313 0.0
C532 C 0.82479 0.43635 0.18359 0.0
C533 C 0.78357 0.42369 0.17745 0.0
N534 N 0.7339 0.39248 0.12809 0.0
N535 N 0.89514 0.43293 0.15585 0.0
C536 C 0.77377 0.39598 0.14218 0.0
C537 C 0.85633 0.41701 0.15751 0.0
N538 N 0.79373 0.33269 0.10743 0.0
N539 N 0.83393 0.46476 0.2164 0.0
H540 H 0.91832 0.41999 0.13576 0.0
H541 H 0.90301 0.46098 0.17033 0.0
H542 H 0.81106 0.48036 0.23438 0.0
H543 H 0.86384 0.47167 0.22667 0.0
H544 H 0.76327 0.32287 0.10576 0.0
H545 H 0.81404 0.30939 0.09929 0.0
H546 H 0.72499 0.37468 0.10002 0.0
H547 H 0.71085 0.41103 0.14184 0.0
C548 C 0.06909 0.78037 0.66957 0.0
C549 C 0.05637 0.78075 0.71611 0.0
C550 C 0.08156 0.85066 0.72539 0.0
C551 C 0.09902 0.84838 0.68044 0.0
N552 N 0.09586 0.8191 0.6045 0.0
N553 N 0.03545 0.81986 0.78179 0.0
C554 C 0.08777 0.81591 0.6506 0.0
C555 C 0.05697 0.81755 0.74145 0.0
N556 N 0.06555 0.74514 0.64476 0.0
N557 N 0.09122 0.88225 0.75419 0.0
H558 H 0.01771 0.79549 0.79395 0.0
H559 H 0.03183 0.84677 0.80043 0.0
H560 H 0.10814 0.90771 0.74402 0.0
H561 H 0.0839 0.8825 0.78916 0.0
H562 H 0.07852 0.74101 0.61228 0.0
H563 H 0.05036 0.71948 0.65794 0.0
H564 H 0.08619 0.79771 0.58026 0.0
H565 H 0.10898 0.84539 0.59018 0.0
C566 C 0.60538 0.06415 0.17826 0.0
C567 C 0.61545 0.09024 0.14085 0.0
C568 C 0.68577 0.06427 0.14092 0.0
C569 C 0.67854 0.04874 0.18575 0.0
N570 N 0.63133 0.02616 0.24425 0.0
N571 N 0.65677 0.09677 0.07264 0.0
C572 C 0.63792 0.04506 0.20285 0.0
C573 C 0.65303 0.08394 0.11728 0.0
N574 N 0.5652 0.05703 0.18918 0.0
N575 N 0.72459 0.06294 0.12311 0.0
H576 H 0.63184 0.10919 0.05478 0.0
H577 H 0.68262 0.09165 0.05233 0.0
H578 H 0.7483 0.0474 0.13995 0.0
H579 H 0.7334 0.07746 0.09269 0.0
H580 H 0.55582 0.03677 0.21487 0.0
H581 H 0.54126 0.06742 0.1683 0.0
H582 H 0.60337 0.02671 0.26171 0.0
H583 H 0.65479 0.01078 0.26167 0.0
C584 C 0.4179 0.78099 0.30734 0.0
C585 C 0.43522 0.78325 0.26271 0.0
C586 C 0.43013 0.85786 0.26419 0.0
C587 C 0.40239 0.8539 0.30156 0.0
N588 N 0.38845 0.81799 0.37213 0.0
N589 N 0.46552 0.8231 0.20176 0.0
C590 C 0.40277 0.81735 0.3279 0.0
C591 C 0.44499 0.8217 0.24282 0.0
N592 N 0.41317 0.7437 0.32789 0.0
N593 N 0.44272 0.8957 0.25018 0.0
H594 H 0.47788 0.79691 0.1867 0.0
H595 H 0.46932 0.84958 0.18223 0.0
H596 H 0.43534 0.92195 0.26869 0.0
H597 H 0.46443 0.90063 0.22437 0.0
H598 H 0.39689 0.73888 0.35834 0.0
H599 H 0.42541 0.71722 0.31333 0.0
H600 H 0.38937 0.79303 0.39443 0.0
H601 H 0.37907 0.84521 0.38762 0.0
C602 C 0.64672 0.43701 0.72411 0.0
C603 C 0.68718 0.43531 0.74219 0.0
C604 C 0.66017 0.41094 0.81585 0.0
C605 C 0.62268 0.40175 0.79321 0.0
N606 N 0.57359 0.42799 0.73867 0.0
N607 N 0.73238 0.42886 0.80747 0.0
C608 C 0.61355 0.42209 0.75133 0.0
C609 C 0.6937 0.42618 0.78939 0.0
N610 N 0.64079 0.45047 0.67997 0.0
N611 N 0.66304 0.40522 0.86239 0.0
H612 H 0.75692 0.44128 0.78891 0.0
H613 H 0.74034 0.41815 0.84011 0.0
H614 H 0.6376 0.39615 0.88192 0.0
H615 H 0.68865 0.4133 0.88191 0.0
H616 H 0.61295 0.44811 0.66245 0.0
H617 H 0.66468 0.46319 0.66055 0.0
H618 H 0.56474 0.44427 0.70943 0.0
H619 H 0.54929 0.42096 0.76084 0.0
C620 C 0.06701 0.62692 0.23996 0.0
C621 C 0.09155 0.62639 0.28059 0.0
C622 C 0.07185 0.69672 0.29782 0.0
C623 C 0.05558 0.69983 0.25286 0.0
N624 N 0.02184 0.66659 0.18979 0.0
N625 N 0.10018 0.65246 0.35732 0.0
C626 C 0.04727 0.6641 0.22717 0.0
C627 C 0.08758 0.65855 0.31293 0.0
N628 N 0.06441 0.59311 0.21264 0.0
N629 N 0.07498 0.73107 0.32415 0.0
H630 H 0.11115 0.6241 0.36842 0.0
H631 H 0.09632 0.67379 0.38353 0.0
H632 H 0.0623 0.7588 0.31335 0.0
H633 H 0.09057 0.73229 0.35549 0.0
H634 H 0.05226 0.59326 0.17943 0.0
H635 H 0.07344 0.56425 0.22374 0.0
H636 H 0.01244 0.64158 0.17035 0.0
H637 H 0.00727 0.69383 0.18074 0.0
C638 C 0.86812 0.06247 0.78664 0.0
C639 C 0.85428 0.09935 0.80741 0.0
C640 C 0.78354 0.07883 0.78937 0.0
C641 C 0.79862 0.05015 0.75753 0.0
N642 N 0.85496 0.01154 0.72748 0.0
N643 N 0.79632 0.14509 0.82156 0.0
C644 C 0.84086 0.04042 0.75733 0.0
C645 C 0.81115 0.10786 0.80825 0.0
N646 N 0.90698 0.0486 0.79499 0.0
N647 N 0.74237 0.0805 0.79822 0.0
H648 H 0.81453 0.17003 0.83019 0.0
H649 H 0.76547 0.15312 0.81829 0.0
H650 H 0.72173 0.05976 0.78359 0.0
H651 H 0.72981 0.09921 0.82361 0.0
H652 H 0.91766 0.02055 0.7831 0.0
H653 H 0.92684 0.06313 0.81802 0.0
H654 H 0.88609 0.00615 0.72168 0.0
H655 H 0.83487 -0.00584 0.70732 0.0
C656 C 0.48383 0.20843 -0.01588 0.0
C657 C 0.48809 0.23657 0.02078 0.0
C658 C 0.48701 0.29399 0.96683 0.0
C659 C 0.49059 0.26563 0.93039 0.0
N660 N 0.47878 0.19827 0.90102 0.0
N661 N 0.47978 0.30453 0.04965 0.0
C662 C 0.48357 0.22351 0.93808 0.0
C663 C 0.48418 0.27902 0.0128 0.0
N664 N 0.4834 0.16752 -0.00643 0.0
N665 N 0.48941 0.3348 0.95729 0.0
H666 H 0.47773 0.29324 0.08334 0.0
H667 H 0.47533 0.33591 0.04696 0.0
H668 H 0.49027 0.34577 0.92342 0.0
H669 H 0.49081 0.35754 -0.01776 0.0
H670 H 0.48437 0.14479 0.96859 0.0
H671 H 0.48236 0.15636 0.02732 0.0
H672 H 0.47206 0.16725 0.90347 0.0
H673 H 0.47874 0.20956 0.86727 0.0
C674 C 0.24802 0.4951 0.4295 0.0
C675 C 0.25057 0.53192 0.40325 0.0
C676 C 0.29461 0.56084 0.46292 0.0
C677 C 0.28303 0.52937 0.49354 0.0
N678 N 0.247 0.46579 0.5065 0.0
N679 N 0.26754 0.60451 0.40413 0.0
C680 C 0.25966 0.49582 0.47698 0.0
C681 C 0.27201 0.56605 0.42199 0.0
N682 N 0.23572 0.45951 0.40924 0.0
N683 N 0.32539 0.58732 0.4745 0.0
H684 H 0.24578 0.61197 0.37914 0.0
H685 H 0.28091 0.63019 0.41926 0.0
H686 H 0.34242 0.58387 0.50483 0.0
H687 H 0.33647 0.60949 0.4517 0.0
H688 H 0.23642 0.43143 0.42627 0.0
H689 H 0.22935 0.45725 0.37409 0.0
H690 H 0.22597 0.44322 0.49709 0.0
H691 H 0.25581 0.46481 0.54105 0.0
C692 C 0.01849 0.20992 0.02067 0.0
C693 C 0.01301 0.25239 0.02662 0.0
C694 C 0.02042 0.26319 0.94391 0.0
C695 C 0.013 0.22095 0.93783 0.0
N696 N 0.01636 0.15259 0.96718 0.0
N697 N 0.02116 0.32044 -0.0024 0.0
C698 C 0.01723 0.19363 0.97528 0.0
C699 C 0.01958 0.27944 -0.01067 0.0
N700 N 0.02168 0.1857 0.05888 0.0
N701 N 0.0252 0.28735 0.90583 0.0
H702 H 0.02116 0.3319 0.03118 0.0
H703 H 0.02301 0.34272 0.97203 0.0
H704 H 0.02549 0.27488 0.87267 0.0
H705 H 0.03099 0.3186 0.90689 0.0
H706 H 0.0263 0.15428 0.05796 0.0
H707 H 0.02201 0.19833 0.09197 0.0
H708 H 0.01623 0.13038 -0.00709 0.0
H709 H 0.01609 0.141 0.93364 0.0
C710 C 0.22786 0.91642 0.44223 0.0
C711 C 0.24827 0.95097 0.42296 0.0
C712 C 0.24156 0.98599 0.49747 0.0
C713 C 0.21844 0.95232 0.51436 0.0
N714 N 0.17609 0.89409 0.49615 0.0
N715 N 0.2646 0.02295 0.42949 0.0
C716 C 0.2065 0.92089 0.484 0.0
C717 C 0.25209 0.98728 0.44965 0.0
N718 N 0.23204 0.87828 0.42365 0.0
N719 N 0.2549 0.01559 0.52699 0.0
H720 H 0.27063 0.02552 0.39428 0.0
H721 H 0.26471 0.05082 0.4468 0.0
H722 H 0.24703 0.0159 0.56185 0.0
H723 H 0.27569 0.03833 0.51729 0.0
H724 H 0.21958 0.85223 0.43911 0.0
H725 H 0.25278 0.87152 0.39738 0.0
H726 H 0.16471 0.87209 0.47348 0.0
H727 H 0.15949 0.89709 0.52681 0.0
C728 C 0.42122 0.74348 0.96079 0.0
C729 C 0.45865 0.75737 0.94117 0.0
C730 C 0.49226 0.74767 0.01631 0.0
C731 C 0.4559 0.72835 0.03282 0.0
N732 N 0.39107 0.69606 0.01438 0.0
N733 N 0.53158 0.76907 0.94891 0.0
C734 C 0.42215 0.7224 0.00291 0.0
C735 C 0.49489 0.7586 0.96853 0.0
N736 N 0.38437 0.75177 0.94012 0.0
N737 N 0.52341 0.75667 0.04618 0.0
H738 H 0.53418 0.77759 0.91433 0.0
H739 H 0.55959 0.7667 0.96612 0.0
H740 H 0.5224 0.74868 0.08103 0.0
H741 H 0.54883 0.77434 0.03703 0.0
H742 H 0.35621 0.74465 0.95543 0.0
H743 H 0.38184 0.77027 0.91091 0.0
H744 H 0.3674 0.68861 -0.00842 0.0
H745 H 0.39166 0.67815 0.04423 0.0
C746 C 0.75592 0.4882 0.4934 0.0
C747 C 0.7746 0.45359 0.5142 0.0
C748 C 0.76741 0.41551 0.44318 0.0
C749 C 0.75244 0.4508 0.41992 0.0
N750 N 0.74114 0.52385 0.42163 0.0
N751 N 0.81257 0.39127 0.50297 0.0
C752 C 0.7493 0.4883 0.44456 0.0
C753 C 0.78577 0.41996 0.48668 0.0
N754 N 0.74318 0.51999 0.52011 0.0
N755 N 0.76071 0.37709 0.42627 0.0
H756 H 0.82718 0.39419 0.5349 0.0
H757 H 0.82339 0.36741 0.48252 0.0
H758 H 0.74148 0.37115 0.39828 0.0
H759 H 0.76909 0.35078 0.44433 0.0
H760 H 0.72543 0.54398 0.50739 0.0
H761 H 0.74844 0.52101 0.55558 0.0
H762 H 0.74186 0.55234 0.43755 0.0
H763 H 0.73764 0.52526 0.38592 0.0
C764 C 0.08246 0.74377 0.00416 0.0
C765 C 0.04654 0.75493 0.02873 0.0
C766 C 0.00597 0.73786 0.95975 0.0
C767 C 0.04163 0.72035 0.93927 0.0
N768 N 0.10988 0.69334 0.95299 0.0
N769 N 0.97207 0.75469 0.03175 0.0
C770 C 0.07859 0.71898 0.96502 0.0
C771 C 0.00749 0.74982 0.00717 0.0
N772 N 0.12033 0.75804 0.0168 0.0
N773 N 0.97145 0.7447 0.93413 0.0
H774 H 0.97171 0.76184 0.06672 0.0
H775 H 0.94319 0.7476 0.01833 0.0
H776 H 0.96934 0.73768 0.8992 0.0
H777 H 0.94632 0.76093 0.94672 0.0
H778 H 0.14674 0.75203 -0.00245 0.0
H779 H 0.12438 0.78012 0.04232 0.0
H780 H 0.13634 0.69019 0.97305 0.0
H781 H 0.10698 0.67168 0.92681 0.0
C782 C 0.71175 0.0538 0.48527 0.0
C783 C 0.72753 0.02224 0.51331 0.0
C784 C 0.75118 0.98665 0.44364 0.0
C785 C 0.74143 0.02195 0.41709 0.0
N786 N 0.72552 0.09442 0.41819 0.0
N787 N 0.76525 0.95928 0.52026 0.0
C788 C 0.72523 0.05703 0.43939 0.0
C789 C 0.74794 0.98852 0.49287 0.0
N790 N 0.68427 0.08125 0.50274 0.0
N791 N 0.76249 0.9514 0.42209 0.0
H792 H 0.76241 0.95956 0.55612 0.0
H793 H 0.78423 0.93629 0.50762 0.0
H794 H 0.76474 0.94911 0.3863 0.0
H795 H 0.76643 0.92377 0.43944 0.0
H796 H 0.6696 0.10301 0.4822 0.0
H797 H 0.67285 0.07914 0.53634 0.0
H798 H 0.71675 0.12115 0.43499 0.0
H799 H 0.73978 0.09977 0.38653 0.0
loop_
_geom_bond_atom_site_label_1
_geom_bond_atom_site_label_2
_geom_bond_distance
_geom_bond_site_symmetry_2
_ccdc_geom_bond_type
Zn0 O3 2.031 . S
Zn0 O5 2.049 . S
Zn0 O10 2.067 . S
Zn1 O2 1.962 . S
Zn1 O4 1.986 . S
Zn1 O6 1.996 . S
Zn1 O9 1.943 . S
O2 Zn1 1.962 . S
O2 C7 1.254 . S
O3 Zn0 2.031 . S
O3 C7 1.269 . S
O4 Zn1 1.986 . S
O4 C11 1.262 . S
O5 Zn0 2.049 . S
O5 C13 1.260 . S
O6 Zn1 1.996 . S
O6 C13 1.257 . S
C7 O2 1.254 . S
C7 O3 1.269 . S
C8 O9 1.249 . S
C8 O10 1.270 . S
O9 Zn1 1.943 . S
O9 C8 1.249 . S
O10 Zn0 2.067 . S
O10 C8 1.270 . S
C11 O4 1.262 . S
C11 O12 1.232 . S
O12 C11 1.232 . S
C13 O5 1.260 . S
C13 O6 1.257 . S
Zn14 O17 2.031 . S
Zn14 O19 2.049 . S
Zn14 O24 2.067 . S
Zn15 O16 1.962 . S
Zn15 O18 1.986 . S
Zn15 O20 1.996 . S
Zn15 O23 1.943 . S
O16 Zn15 1.962 . S
O16 C21 1.254 . S
O17 Zn14 2.031 . S
O17 C21 1.269 . S
O18 Zn15 1.986 . S
O18 C25 1.262 . S
O19 Zn14 2.049 . S
O19 C27 1.260 . S
O20 Zn15 1.996 . S
O20 C27 1.257 . S
C21 O16 1.254 . S
C21 O17 1.269 . S
C22 O23 1.249 . S
C22 O24 1.270 . S
O23 Zn15 1.943 . S
O23 C22 1.249 . S
O24 Zn14 2.067 . S
O24 C22 1.270 . S
C25 O18 1.262 . S
C25 O26 1.232 . S
O26 C25 1.232 . S
C27 O19 1.260 . S
C27 O20 1.257 . S
Zn28 O31 2.031 . S
Zn28 O33 2.049 . S
Zn28 O38 2.067 . S
Zn29 O30 1.962 . S
Zn29 O32 1.986 . S
Zn29 O34 1.996 . S
Zn29 O37 1.943 . S
O30 Zn29 1.962 . S
O30 C35 1.254 . S
O31 Zn28 2.031 . S
O31 C35 1.269 . S
O32 Zn29 1.986 . S
O32 C39 1.262 1_655 S
O33 Zn28 2.049 . S
O33 C41 1.260 . S
O34 Zn29 1.996 . S
O34 C41 1.257 . S
C35 O30 1.254 . S
C35 O31 1.269 . S
C36 O37 1.249 . S
C36 O38 1.270 . S
O37 Zn29 1.943 . S
O37 C36 1.249 . S
O38 Zn28 2.067 . S
O38 C36 1.270 . S
C39 O32 1.262 1_455 S
C39 O40 1.232 . S
O40 C39 1.232 . S
C41 O33 1.260 . S
C41 O34 1.257 . S
Zn42 O45 2.031 . S
Zn42 O47 2.049 . S
Zn42 O52 2.067 . S
Zn43 O44 1.962 . S
Zn43 O46 1.986 . S
Zn43 O48 1.996 . S
Zn43 O51 1.943 . S
O44 Zn43 1.962 . S
O44 C49 1.254 . S
O45 Zn42 2.031 . S
O45 C49 1.269 . S
O46 Zn43 1.986 . S
O46 C53 1.262 1_565 S
O47 Zn42 2.049 . S
O47 C55 1.260 . S
O48 Zn43 1.996 . S
O48 C55 1.257 . S
C49 O44 1.254 . S
C49 O45 1.269 . S
C50 O51 1.249 . S
C50 O52 1.270 . S
O51 Zn43 1.943 . S
O51 C50 1.249 . S
O52 Zn42 2.067 . S
O52 C50 1.270 . S
C53 O46 1.262 1_545 S
C53 O54 1.232 . S
O54 C53 1.232 . S
C55 O47 1.260 . S
C55 O48 1.257 . S
Zn56 O59 2.031 . S
Zn56 O61 2.049 . S
Zn56 O66 2.067 . S
Zn57 O58 1.962 . S
Zn57 O60 1.986 . S
Zn57 O62 1.996 . S
Zn57 O65 1.943 . S
O58 Zn57 1.962 . S
O58 C63 1.254 . S
O59 Zn56 2.031 . S
O59 C63 1.269 . S
O60 Zn57 1.986 . S
O60 C67 1.262 . S
O61 Zn56 2.049 . S
O61 C69 1.260 . S
O62 Zn57 1.996 . S
O62 C69 1.257 . S
C63 O58 1.254 . S
C63 O59 1.269 . S
C64 O65 1.249 . S
C64 O66 1.270 . S
O65 Zn57 1.943 . S
O65 C64 1.249 . S
O66 Zn56 2.067 . S
O66 C64 1.270 . S
C67 O60 1.262 . S
C67 O68 1.232 . S
O68 C67 1.232 . S
C69 O61 1.260 . S
C69 O62 1.257 . S
Zn70 O73 2.031 . S
Zn70 O75 2.049 . S
Zn70 O80 2.067 . S
Zn71 O72 1.962 . S
Zn71 O74 1.986 . S
Zn71 O76 1.996 . S
Zn71 O79 1.943 . S
O72 Zn71 1.962 . S
O72 C77 1.254 . S
O73 Zn70 2.031 . S
O73 C77 1.269 . S
O74 Zn71 1.986 . S
O74 C81 1.262 . S
O75 Zn70 2.049 . S
O75 C83 1.260 . S
O76 Zn71 1.996 . S
O76 C83 1.257 . S
C77 O72 1.254 . S
C77 O73 1.269 . S
C78 O79 1.249 . S
C78 O80 1.270 . S
O79 Zn71 1.943 . S
O79 C78 1.249 . S
O80 Zn70 2.067 . S
O80 C78 1.270 . S
C81 O74 1.262 . S
C81 O82 1.232 . S
O82 C81 1.232 . S
C83 O75 1.260 . S
C83 O76 1.257 . S
Zn84 O87 2.031 . S
Zn84 O89 2.049 . S
Zn84 O94 2.067 . S
Zn85 O86 1.962 . S
Zn85 O88 1.986 . S
Zn85 O90 1.996 . S
Zn85 O93 1.943 . S
O86 Zn85 1.962 . S
O86 C91 1.254 . S
O87 Zn84 2.031 . S
O87 C91 1.269 . S
O88 Zn85 1.986 . S
O88 C95 1.262 1_655 S
O89 Zn84 2.049 . S
O89 C97 1.260 . S
O90 Zn85 1.996 . S
O90 C97 1.257 . S
C91 O86 1.254 . S
C91 O87 1.269 . S
C92 O93 1.249 . S
C92 O94 1.270 . S
O93 Zn85 1.943 . S
O93 C92 1.249 . S
O94 Zn84 2.067 . S
O94 C92 1.270 . S
C95 O88 1.262 1_455 S
C95 O96 1.232 . S
O96 C95 1.232 . S
C97 O89 1.260 . S
C97 O90 1.257 . S
Zn98 O101 2.031 . S
Zn98 O103 2.049 . S
Zn98 O108 2.067 . S
Zn99 O100 1.962 . S
Zn99 O102 1.986 . S
Zn99 O104 1.996 . S
Zn99 O107 1.943 . S
O100 Zn99 1.962 . S
O100 C105 1.254 . S
O101 Zn98 2.031 . S
O101 C105 1.269 . S
O102 Zn99 1.986 . S
O102 C109 1.262 1_565 S
O103 Zn98 2.049 . S
O103 C111 1.260 . S
O104 Zn99 1.996 . S
O104 C111 1.257 . S
C105 O100 1.254 . S
C105 O101 1.269 . S
C106 O107 1.249 . S
C106 O108 1.270 . S
O107 Zn99 1.943 . S
O107 C106 1.249 . S
O108 Zn98 2.067 . S
O108 C106 1.270 . S
C109 O102 1.262 1_545 S
C109 O110 1.232 . S
O110 C109 1.232 . S
C111 O103 1.260 . S
C111 O104 1.257 . S
Zn112 O115 2.031 . S
Zn112 O117 2.049 . S
Zn112 O122 2.067 . S
Zn113 O114 1.962 . S
Zn113 O116 1.986 . S
Zn113 O118 1.996 . S
Zn113 O121 1.943 . S
O114 Zn113 1.962 . S
O114 C119 1.254 . S
O115 Zn112 2.031 . S
O115 C119 1.269 . S
O116 Zn113 1.986 . S
O116 C123 1.262 . S
O117 Zn112 2.049 . S
O117 C125 1.260 . S
O118 Zn113 1.996 . S
O118 C125 1.257 . S
C119 O114 1.254 . S
C119 O115 1.269 . S
C120 O121 1.249 . S
C120 O122 1.270 . S
O121 Zn113 1.943 . S
O121 C120 1.249 . S
O122 Zn112 2.067 . S
O122 C120 1.270 . S
C123 O116 1.262 . S
C123 O124 1.232 . S
O124 C123 1.232 . S
C125 O117 1.260 . S
C125 O118 1.257 . S
Zn126 O129 2.031 . S
Zn126 O131 2.049 . S
Zn126 O136 2.067 . S
Zn127 O128 1.962 . S
Zn127 O130 1.986 . S
Zn127 O132 1.996 . S
Zn127 O135 1.943 . S
O128 Zn127 1.962 . S
O128 C133 1.254 . S
O129 Zn126 2.031 . S
O129 C133 1.269 . S
O130 Zn127 1.986 . S
O130 C137 1.262 . S
O131 Zn126 2.049 . S
O131 C139 1.260 . S
O132 Zn127 1.996 . S
O132 C139 1.257 . S
C133 O128 1.254 . S
C133 O129 1.269 . S
C134 O135 1.249 . S
C134 O136 1.270 . S
O135 Zn127 1.943 . S
O135 C134 1.249 . S
O136 Zn126 2.067 . S
O136 C134 1.270 . S
C137 O130 1.262 . S
C137 O138 1.232 . S
O138 C137 1.232 . S
C139 O131 1.260 . S
C139 O132 1.257 . S
Zn140 O143 2.031 . S
Zn140 O145 2.049 . S
Zn140 O150 2.067 . S
Zn141 O142 1.962 . S
Zn141 O144 1.986 . S
Zn141 O146 1.996 . S
Zn141 O149 1.943 . S
O142 Zn141 1.962 . S
O142 C147 1.254 . S
O143 Zn140 2.031 . S
O143 C147 1.269 . S
O144 Zn141 1.986 . S
O144 C151 1.262 1_455 S
O145 Zn140 2.049 . S
O145 C153 1.260 . S
O146 Zn141 1.996 . S
O146 C153 1.257 . S
C147 O142 1.254 . S
C147 O143 1.269 . S
C148 O149 1.249 . S
C148 O150 1.270 . S
O149 Zn141 1.943 . S
O149 C148 1.249 . S
O150 Zn140 2.067 . S
O150 C148 1.270 . S
C151 O144 1.262 1_655 S
C151 O152 1.232 . S
O152 C151 1.232 . S
C153 O145 1.260 . S
C153 O146 1.257 . S
Zn154 O157 2.031 . S
Zn154 O159 2.049 . S
Zn154 O164 2.067 . S
Zn155 O156 1.962 . S
Zn155 O158 1.986 . S
Zn155 O160 1.996 . S
Zn155 O163 1.943 . S
O156 Zn155 1.962 . S
O156 C161 1.254 . S
O157 Zn154 2.031 . S
O157 C161 1.269 . S
O158 Zn155 1.986 . S
O158 C165 1.262 1_545 S
O159 Zn154 2.049 . S
O159 C167 1.260 . S
O160 Zn155 1.996 . S
O160 C167 1.257 . S
C161 O156 1.254 . S
C161 O157 1.269 . S
C162 O163 1.249 . S
C162 O164 1.270 . S
O163 Zn155 1.943 . S
O163 C162 1.249 . S
O164 Zn154 2.067 . S
O164 C162 1.270 . S
C165 O158 1.262 1_565 S
C165 O166 1.232 . S
O166 C165 1.232 . S
C167 O159 1.260 . S
C167 O160 1.257 . S
Zn168 O171 2.031 . S
Zn168 O173 2.049 . S
Zn168 O178 2.067 . S
Zn169 O170 1.962 . S
Zn169 O172 1.986 . S
Zn169 O174 1.996 . S
Zn169 O177 1.943 . S
O170 Zn169 1.962 . S
O170 C175 1.254 . S
O171 Zn168 2.031 . S
O171 C175 1.269 . S
O172 Zn169 1.986 . S
O172 C179 1.262 . S
O173 Zn168 2.049 . S
O173 C181 1.260 . S
O174 Zn169 1.996 . S
O174 C181 1.257 . S
C175 O170 1.254 . S
C175 O171 1.269 . S
C176 O177 1.249 . S
C176 O178 1.270 . S
O177 Zn169 1.943 . S
O177 C176 1.249 . S
O178 Zn168 2.067 . S
O178 C176 1.270 . S
C179 O172 1.262 . S
C179 O180 1.232 . S
O180 C179 1.232 . S
C181 O173 1.260 . S
C181 O174 1.257 . S
Zn182 O185 2.031 . S
Zn182 O187 2.049 . S
Zn182 O192 2.067 . S
Zn183 O184 1.962 . S
Zn183 O186 1.986 . S
Zn183 O188 1.996 . S
Zn183 O191 1.943 . S
O184 Zn183 1.962 . S
O184 C189 1.254 . S
O185 Zn182 2.031 . S
O185 C189 1.269 . S
O186 Zn183 1.986 . S
O186 C193 1.262 . S
O187 Zn182 2.049 . S
O187 C195 1.260 . S
O188 Zn183 1.996 . S
O188 C195 1.257 . S
C189 O184 1.254 . S
C189 O185 1.269 . S
C190 O191 1.249 . S
C190 O192 1.270 . S
O191 Zn183 1.943 . S
O191 C190 1.249 . S
O192 Zn182 2.067 . S
O192 C190 1.270 . S
C193 O186 1.262 . S
C193 O194 1.232 . S
O194 C193 1.232 . S
C195 O187 1.260 . S
C195 O188 1.257 . S
Zn196 O199 2.031 . S
Zn196 O201 2.049 . S
Zn196 O206 2.067 . S
Zn197 O198 1.962 . S
Zn197 O200 1.986 . S
Zn197 O202 1.996 . S
Zn197 O205 1.943 . S
O198 Zn197 1.962 . S
O198 C203 1.254 . S
O199 Zn196 2.031 . S
O199 C203 1.269 . S
O200 Zn197 1.986 . S
O200 C207 1.262 1_455 S
O201 Zn196 2.049 . S
O201 C209 1.260 . S
O202 Zn197 1.996 . S
O202 C209 1.257 . S
C203 O198 1.254 . S
C203 O199 1.269 . S
C204 O205 1.249 . S
C204 O206 1.270 . S
O205 Zn197 1.943 . S
O205 C204 1.249 . S
O206 Zn196 2.067 . S
O206 C204 1.270 . S
C207 O200 1.262 1_655 S
C207 O208 1.232 . S
O208 C207 1.232 . S
C209 O201 1.260 . S
C209 O202 1.257 . S
Zn210 O213 2.031 . S
Zn210 O215 2.049 . S
Zn210 O220 2.067 . S
Zn211 O212 1.962 . S
Zn211 O214 1.986 . S
Zn211 O216 1.996 . S
Zn211 O219 1.943 . S
O212 Zn211 1.962 . S
O212 C217 1.254 . S
O213 Zn210 2.031 . S
O213 C217 1.269 . S
O214 Zn211 1.986 . S
O214 C221 1.262 1_545 S
O215 Zn210 2.049 . S
O215 C223 1.260 . S
O216 Zn211 1.996 . S
O216 C223 1.257 . S
C217 O212 1.254 . S
C217 O213 1.269 . S
C218 O219 1.249 . S
C218 O220 1.270 . S
O219 Zn211 1.943 . S
O219 C218 1.249 . S
O220 Zn210 2.067 . S
O220 C218 1.270 . S
C221 O214 1.262 1_565 S
C221 O222 1.232 . S
O222 C221 1.232 . S
C223 O215 1.260 . S
C223 O216 1.257 . S
C224 C225 1.363 . S
C224 C230 1.379 . S
C224 N232 1.356 . S
C225 C224 1.363 . S
C225 C231 1.363 . S
C226 C227 1.363 . S
C226 C231 1.379 . S
C226 N233 1.356 . S
C227 C226 1.363 . S
C227 C230 1.363 . S
N228 C230 1.356 . S
N228 H240 0.984 . S
N228 H241 0.985 . S
N229 C231 1.356 . S
N229 H234 0.984 . S
N229 H235 0.985 . S
C230 C224 1.379 . S
C230 C227 1.363 . S
C230 N228 1.356 . S
C231 C225 1.363 . S
C231 C226 1.379 . S
C231 N229 1.356 . S
N232 C224 1.356 . S
N232 H238 0.984 . S
N232 H239 0.984 . S
N233 C226 1.356 . S
N233 H236 0.984 . S
N233 H237 0.985 . S
H234 N229 0.984 . S
H235 N229 0.985 . S
H236 N233 0.984 . S
H237 N233 0.985 . S
H238 N232 0.984 . S
H239 N232 0.984 . S
H240 N228 0.984 . S
H241 N228 0.985 . S
C242 C243 1.363 . S
C242 C248 1.379 . S
C242 N250 1.356 . S
C243 C242 1.363 . S
C243 C249 1.363 . S
C244 C245 1.363 . S
C244 C249 1.379 . S
C244 N251 1.356 . S
C245 C244 1.363 . S
C245 C248 1.363 . S
N246 C248 1.356 . S
N246 H258 0.984 . S
N246 H259 0.985 . S
N247 C249 1.356 . S
N247 H252 0.984 . S
N247 H253 0.985 . S
C248 C242 1.379 . S
C248 C245 1.363 . S
C248 N246 1.356 . S
C249 C243 1.363 . S
C249 C244 1.379 . S
C249 N247 1.356 . S
N250 C242 1.356 . S
N250 H256 0.984 . S
N250 H257 0.984 . S
N251 C244 1.356 . S
N251 H254 0.984 . S
N251 H255 0.985 . S
H252 N247 0.984 . S
H253 N247 0.985 . S
H254 N251 0.984 . S
H255 N251 0.985 . S
H256 N250 0.984 . S
H257 N250 0.984 . S
H258 N246 0.984 . S
H259 N246 0.985 . S
C260 C261 1.363 . S
C260 C266 1.379 . S
C260 N268 1.356 . S
C261 C260 1.363 . S
C261 C267 1.363 . S
C262 C263 1.363 . S
C262 C267 1.379 . S
C262 N269 1.356 . S
C263 C262 1.363 . S
C263 C266 1.363 . S
N264 C266 1.356 . S
N264 H276 0.984 . S
N264 H277 0.985 . S
N265 C267 1.356 . S
N265 H270 0.984 . S
N265 H271 0.985 . S
C266 C260 1.379 . S
C266 C263 1.363 . S
C266 N264 1.356 . S
C267 C261 1.363 . S
C267 C262 1.379 . S
C267 N265 1.356 . S
N268 C260 1.356 . S
N268 H274 0.984 . S
N268 H275 0.984 . S
N269 C262 1.356 . S
N269 H272 0.984 . S
N269 H273 0.985 . S
H270 N265 0.984 . S
H271 N265 0.985 . S
H272 N269 0.984 . S
H273 N269 0.985 . S
H274 N268 0.984 . S
H275 N268 0.984 . S
H276 N264 0.984 . S
H277 N264 0.985 . S
C278 C279 1.363 . S
C278 C284 1.379 . S
C278 N286 1.356 . S
C279 C278 1.363 . S
C279 C285 1.363 . S
C280 C281 1.363 . S
C280 C285 1.379 . S
C280 N287 1.356 . S
C281 C280 1.363 . S
C281 C284 1.363 . S
N282 C284 1.356 . S
N282 H294 0.984 . S
N282 H295 0.985 . S
N283 C285 1.356 . S
N283 H288 0.984 . S
N283 H289 0.985 . S
C284 C278 1.379 . S
C284 C281 1.363 . S
C284 N282 1.356 . S
C285 C279 1.363 . S
C285 C280 1.379 . S
C285 N283 1.356 . S
N286 C278 1.356 . S
N286 H292 0.984 . S
N286 H293 0.984 . S
N287 C280 1.356 . S
N287 H290 0.984 . S
N287 H291 0.985 . S
H288 N283 0.984 . S
H289 N283 0.985 . S
H290 N287 0.984 . S
H291 N287 0.985 . S
H292 N286 0.984 . S
H293 N286 0.984 . S
H294 N282 0.984 . S
H295 N282 0.985 . S
C296 C297 1.363 . S
C296 C302 1.379 . S
C296 N304 1.356 . S
C297 C296 1.363 . S
C297 C303 1.363 . S
C298 C299 1.363 . S
C298 C303 1.379 . S
C298 N305 1.356 . S
C299 C298 1.363 . S
C299 C302 1.363 . S
N300 C302 1.356 . S
N300 H312 0.984 . S
N300 H313 0.985 . S
N301 C303 1.356 . S
N301 H306 0.984 . S
N301 H307 0.985 . S
C302 C296 1.379 . S
C302 C299 1.363 . S
C302 N300 1.356 . S
C303 C297 1.363 . S
C303 C298 1.379 . S
C303 N301 1.356 . S
N304 C296 1.356 . S
N304 H310 0.984 . S
N304 H311 0.984 . S
N305 C298 1.356 . S
N305 H308 0.984 . S
N305 H309 0.985 . S
H306 N301 0.984 . S
H307 N301 0.985 . S
H308 N305 0.984 . S
H309 N305 0.985 . S
H310 N304 0.984 . S
H311 N304 0.984 . S
H312 N300 0.984 . S
H313 N300 0.985 . S
C314 C315 1.363 . S
C314 C320 1.379 . S
C314 N322 1.356 . S
C315 C314 1.363 . S
C315 C321 1.363 . S
C316 C317 1.363 . S
C316 C321 1.379 . S
C316 N323 1.356 . S
C317 C316 1.363 . S
C317 C320 1.363 . S
N318 C320 1.356 . S
N318 H330 0.984 . S
N318 H331 0.985 . S
N319 C321 1.356 . S
N319 H324 0.984 . S
N319 H325 0.985 . S
C320 C314 1.379 . S
C320 C317 1.363 . S
C320 N318 1.356 . S
C321 C315 1.363 . S
C321 C316 1.379 . S
C321 N319 1.356 . S
N322 C314 1.356 . S
N322 H328 0.984 . S
N322 H329 0.984 . S
N323 C316 1.356 . S
N323 H326 0.984 . S
N323 H327 0.985 . S
H324 N319 0.984 . S
H325 N319 0.985 . S
H326 N323 0.984 . S
H327 N323 0.985 . S
H328 N322 0.984 . S
H329 N322 0.984 . S
H330 N318 0.984 . S
H331 N318 0.985 . S
C332 C333 1.363 . S
C332 C338 1.379 . S
C332 N340 1.356 . S
C333 C332 1.363 . S
C333 C339 1.363 . S
C334 C335 1.363 . S
C334 C339 1.379 . S
C334 N341 1.356 . S
C335 C334 1.363 . S
C335 C338 1.363 . S
N336 C338 1.356 . S
N336 H348 0.984 . S
N336 H349 0.985 . S
N337 C339 1.356 . S
N337 H342 0.984 . S
N337 H343 0.985 . S
C338 C332 1.379 . S
C338 C335 1.363 . S
C338 N336 1.356 . S
C339 C333 1.363 . S
C339 C334 1.379 . S
C339 N337 1.356 . S
N340 C332 1.356 . S
N340 H346 0.984 . S
N340 H347 0.984 . S
N341 C334 1.356 . S
N341 H344 0.984 . S
N341 H345 0.985 . S
H342 N337 0.984 . S
H343 N337 0.985 . S
H344 N341 0.984 . S
H345 N341 0.985 . S
H346 N340 0.984 . S
H347 N340 0.984 . S
H348 N336 0.984 . S
H349 N336 0.985 . S
C350 C351 1.363 . S
C350 C356 1.379 . S
C350 N358 1.356 . S
C351 C350 1.363 . S
C351 C357 1.363 . S
C352 C353 1.363 . S
C352 C357 1.379 . S
C352 N359 1.356 . S
C353 C352 1.363 . S
C353 C356 1.363 . S
N354 C356 1.356 . S
N354 H366 0.984 . S
N354 H367 0.985 . S
N355 C357 1.356 . S
N355 H360 0.984 1_565 S
N355 H361 0.985 1_565 S
C356 C350 1.379 . S
C356 C353 1.363 . S
C356 N354 1.356 . S
C357 C351 1.363 . S
C357 C352 1.379 . S
C357 N355 1.356 . S
N358 C350 1.356 . S
N358 H364 0.984 . S
N358 H365 0.984 . S
N359 C352 1.356 . S
N359 H362 0.984 . S
N359 H363 0.985 1_655 S
H360 N355 0.984 1_545 S
H361 N355 0.985 1_545 S
H362 N359 0.984 . S
H363 N359 0.985 1_455 S
H364 N358 0.984 . S
H365 N358 0.984 . S
H366 N354 0.984 . S
H367 N354 0.985 . S
C368 C369 1.363 . S
C368 C374 1.379 . S
C368 N376 1.356 . S
C369 C368 1.363 . S
C369 C375 1.363 . S
C370 C371 1.363 . S
C370 C375 1.379 . S
C370 N377 1.356 . S
C371 C370 1.363 . S
C371 C374 1.363 . S
N372 C374 1.356 . S
N372 H384 0.984 . S
N372 H385 0.985 . S
N373 C375 1.356 . S
N373 H378 0.984 . S
N373 H379 0.985 . S
C374 C368 1.379 . S
C374 C371 1.363 . S
C374 N372 1.356 . S
C375 C369 1.363 . S
C375 C370 1.379 . S
C375 N373 1.356 . S
N376 C368 1.356 . S
N376 H382 0.984 . S
N376 H383 0.984 . S
N377 C370 1.356 . S
N377 H380 0.984 . S
N377 H381 0.985 . S
H378 N373 0.984 . S
H379 N373 0.985 . S
H380 N377 0.984 . S
H381 N377 0.985 . S
H382 N376 0.984 . S
H383 N376 0.984 . S
H384 N372 0.984 . S
H385 N372 0.985 . S
C386 C387 1.363 . S
C386 C392 1.379 . S
C386 N394 1.356 . S
C387 C386 1.363 . S
C387 C393 1.363 . S
C388 C389 1.363 . S
C388 C393 1.379 . S
C388 N395 1.356 . S
C389 C388 1.363 . S
C389 C392 1.363 . S
N390 C392 1.356 . S
N390 H402 0.984 . S
N390 H403 0.985 . S
N391 C393 1.356 . S
N391 H396 0.984 . S
N391 H397 0.985 . S
C392 C386 1.379 . S
C392 C389 1.363 . S
C392 N390 1.356 . S
C393 C387 1.363 . S
C393 C388 1.379 . S
C393 N391 1.356 . S
N394 C386 1.356 . S
N394 H400 0.984 . S
N394 H401 0.984 . S
N395 C388 1.356 . S
N395 H398 0.984 . S
N395 H399 0.985 . S
H396 N391 0.984 . S
H397 N391 0.985 . S
H398 N395 0.984 . S
H399 N395 0.985 . S
H400 N394 0.984 . S
H401 N394 0.984 . S
H402 N390 0.984 . S
H403 N390 0.985 . S
C404 C405 1.363 . S
C404 C410 1.379 . S
C404 N412 1.356 . S
C405 C404 1.363 . S
C405 C411 1.363 . S
C406 C407 1.363 . S
C406 C411 1.379 . S
C406 N413 1.356 . S
C407 C406 1.363 . S
C407 C410 1.363 . S
N408 C410 1.356 . S
N408 H420 0.984 1_655 S
N408 H421 0.985 . S
N409 C411 1.356 . S
N409 H414 0.984 . S
N409 H415 0.985 . S
C410 C404 1.379 . S
C410 C407 1.363 . S
C410 N408 1.356 . S
C411 C405 1.363 . S
C411 C406 1.379 . S
C411 N409 1.356 . S
N412 C404 1.356 . S
N412 H418 0.984 . S
N412 H419 0.984 . S
N413 C406 1.356 . S
N413 H416 0.984 . S
N413 H417 0.985 . S
H414 N409 0.984 . S
H415 N409 0.985 . S
H416 N413 0.984 . S
H417 N413 0.985 . S
H418 N412 0.984 . S
H419 N412 0.984 . S
H420 N408 0.984 1_455 S
H421 N408 0.985 . S
C422 C423 1.363 . S
C422 C428 1.379 . S
C422 N430 1.356 . S
C423 C422 1.363 . S
C423 C429 1.363 . S
C424 C425 1.363 . S
C424 C429 1.379 . S
C424 N431 1.356 . S
C425 C424 1.363 . S
C425 C428 1.363 . S
N426 C428 1.356 . S
N426 H438 0.984 . S
N426 H439 0.985 . S
N427 C429 1.356 . S
N427 H432 0.984 . S
N427 H433 0.985 . S
C428 C422 1.379 . S
C428 C425 1.363 . S
C428 N426 1.356 . S
C429 C423 1.363 . S
C429 C424 1.379 . S
C429 N427 1.356 . S
N430 C422 1.356 . S
N430 H436 0.984 1_565 S
N430 H437 0.984 . S
N431 C424 1.356 . S
N431 H434 0.984 . S
N431 H435 0.985 . S
H432 N427 0.984 . S
H433 N427 0.985 . S
H434 N431 0.984 . S
H435 N431 0.985 . S
H436 N430 0.984 1_545 S
H437 N430 0.984 . S
H438 N426 0.984 . S
H439 N426 0.985 . S
C440 C441 1.363 . S
C440 C446 1.379 . S
C440 N448 1.356 . S
C441 C440 1.363 . S
C441 C447 1.363 . S
C442 C443 1.363 . S
C442 C447 1.379 . S
C442 N449 1.356 . S
C443 C442 1.363 . S
C443 C446 1.363 . S
N444 C446 1.356 . S
N444 H456 0.984 . S
N444 H457 0.985 . S
N445 C447 1.356 . S
N445 H450 0.984 . S
N445 H451 0.985 . S
C446 C440 1.379 . S
C446 C443 1.363 . S
C446 N444 1.356 . S
C447 C441 1.363 . S
C447 C442 1.379 . S
C447 N445 1.356 . S
N448 C440 1.356 . S
N448 H454 0.984 . S
N448 H455 0.984 . S
N449 C442 1.356 . S
N449 H452 0.984 . S
N449 H453 0.985 . S
H450 N445 0.984 . S
H451 N445 0.985 . S
H452 N449 0.984 . S
H453 N449 0.985 . S
H454 N448 0.984 . S
H455 N448 0.984 . S
H456 N444 0.984 . S
H457 N444 0.985 . S
C458 C459 1.363 . S
C458 C464 1.379 . S
C458 N466 1.356 . S
C459 C458 1.363 . S
C459 C465 1.363 . S
C460 C461 1.363 . S
C460 C465 1.379 . S
C460 N467 1.356 . S
C461 C460 1.363 . S
C461 C464 1.363 . S
N462 C464 1.356 . S
N462 H474 0.984 . S
N462 H475 0.985 . S
N463 C465 1.356 . S
N463 H468 0.984 . S
N463 H469 0.985 . S
C464 C458 1.379 . S
C464 C461 1.363 . S
C464 N462 1.356 . S
C465 C459 1.363 . S
C465 C460 1.379 . S
C465 N463 1.356 . S
N466 C458 1.356 . S
N466 H472 0.984 . S
N466 H473 0.984 . S
N467 C460 1.356 . S
N467 H470 0.984 . S
N467 H471 0.985 . S
H468 N463 0.984 . S
H469 N463 0.985 . S
H470 N467 0.984 . S
H471 N467 0.985 . S
H472 N466 0.984 . S
H473 N466 0.984 . S
H474 N462 0.984 . S
H475 N462 0.985 . S
C476 C477 1.363 . S
C476 C482 1.379 . S
C476 N484 1.356 . S
C477 C476 1.363 . S
C477 C483 1.363 . S
C478 C479 1.363 . S
C478 C483 1.379 . S
C478 N485 1.356 . S
C479 C478 1.363 . S
C479 C482 1.363 . S
N480 C482 1.356 . S
N480 H492 0.984 . S
N480 H493 0.985 . S
N481 C483 1.356 . S
N481 H486 0.984 . S
N481 H487 0.985 . S
C482 C476 1.379 . S
C482 C479 1.363 . S
C482 N480 1.356 . S
C483 C477 1.363 . S
C483 C478 1.379 . S
C483 N481 1.356 . S
N484 C476 1.356 . S
N484 H490 0.984 . S
N484 H491 0.984 . S
N485 C478 1.356 . S
N485 H488 0.984 . S
N485 H489 0.985 . S
H486 N481 0.984 . S
H487 N481 0.985 . S
H488 N485 0.984 . S
H489 N485 0.985 . S
H490 N484 0.984 . S
H491 N484 0.984 . S
H492 N480 0.984 . S
H493 N480 0.985 . S
C494 C495 1.363 . S
C494 C500 1.379 . S
C494 N502 1.356 . S
C495 C494 1.363 . S
C495 C501 1.363 . S
C496 C497 1.363 . S
C496 C501 1.379 . S
C496 N503 1.356 . S
C497 C496 1.363 . S
C497 C500 1.363 . S
N498 C500 1.356 . S
N498 H510 0.984 . S
N498 H511 0.985 . S
N499 C501 1.356 . S
N499 H504 0.984 . S
N499 H505 0.985 . S
C500 C494 1.379 . S
C500 C497 1.363 . S
C500 N498 1.356 . S
C501 C495 1.363 . S
C501 C496 1.379 . S
C501 N499 1.356 . S
N502 C494 1.356 . S
N502 H508 0.984 . S
N502 H509 0.984 . S
N503 C496 1.356 . S
N503 H506 0.984 . S
N503 H507 0.985 . S
H504 N499 0.984 . S
H505 N499 0.985 . S
H506 N503 0.984 . S
H507 N503 0.985 . S
H508 N502 0.984 . S
H509 N502 0.984 . S
H510 N498 0.984 . S
H511 N498 0.985 . S
C512 C513 1.363 . S
C512 C518 1.379 . S
C512 N520 1.356 . S
C513 C512 1.363 . S
C513 C519 1.363 . S
C514 C515 1.363 . S
C514 C519 1.379 . S
C514 N521 1.356 . S
C515 C514 1.363 . S
C515 C518 1.363 . S
N516 C518 1.356 . S
N516 H528 0.984 . S
N516 H529 0.985 . S
N517 C519 1.356 . S
N517 H522 0.984 . S
N517 H523 0.985 . S
C518 C512 1.379 . S
C518 C515 1.363 . S
C518 N516 1.356 . S
C519 C513 1.363 . S
C519 C514 1.379 . S
C519 N517 1.356 . S
N520 C512 1.356 . S
N520 H526 0.984 . S
N520 H527 0.984 . S
N521 C514 1.356 . S
N521 H524 0.984 . S
N521 H525 0.985 . S
H522 N517 0.984 . S
H523 N517 0.985 . S
H524 N521 0.984 . S
H525 N521 0.985 . S
H526 N520 0.984 . S
H527 N520 0.984 . S
H528 N516 0.984 . S
H529 N516 0.985 . S
C530 C531 1.363 . S
C530 C536 1.379 . S
C530 N538 1.356 . S
C531 C530 1.363 . S
C531 C537 1.363 . S
C532 C533 1.363 . S
C532 C537 1.379 . S
C532 N539 1.356 . S
C533 C532 1.363 . S
C533 C536 1.363 . S
N534 C536 1.356 . S
N534 H546 0.984 . S
N534 H547 0.985 . S
N535 C537 1.356 . S
N535 H540 0.984 . S
N535 H541 0.985 . S
C536 C530 1.379 . S
C536 C533 1.363 . S
C536 N534 1.356 . S
C537 C531 1.363 . S
C537 C532 1.379 . S
C537 N535 1.356 . S
N538 C530 1.356 . S
N538 H544 0.984 . S
N538 H545 0.984 . S
N539 C532 1.356 . S
N539 H542 0.984 . S
N539 H543 0.985 . S
H540 N535 0.984 . S
H541 N535 0.985 . S
H542 N539 0.984 . S
H543 N539 0.985 . S
H544 N538 0.984 . S
H545 N538 0.984 . S
H546 N534 0.984 . S
H547 N534 0.985 . S
C548 C549 1.363 . S
C548 C554 1.379 . S
C548 N556 1.356 . S
C549 C548 1.363 . S
C549 C555 1.363 . S
C550 C551 1.363 . S
C550 C555 1.379 . S
C550 N557 1.356 . S
C551 C550 1.363 . S
C551 C554 1.363 . S
N552 C554 1.356 . S
N552 H564 0.984 . S
N552 H565 0.985 . S
N553 C555 1.356 . S
N553 H558 0.984 . S
N553 H559 0.985 . S
C554 C548 1.379 . S
C554 C551 1.363 . S
C554 N552 1.356 . S
C555 C549 1.363 . S
C555 C550 1.379 . S
C555 N553 1.356 . S
N556 C548 1.356 . S
N556 H562 0.984 . S
N556 H563 0.984 . S
N557 C550 1.356 . S
N557 H560 0.984 . S
N557 H561 0.985 . S
H558 N553 0.984 . S
H559 N553 0.985 . S
H560 N557 0.984 . S
H561 N557 0.985 . S
H562 N556 0.984 . S
H563 N556 0.984 . S
H564 N552 0.984 . S
H565 N552 0.985 . S
C566 C567 1.363 . S
C566 C572 1.379 . S
C566 N574 1.356 . S
C567 C566 1.363 . S
C567 C573 1.363 . S
C568 C569 1.363 . S
C568 C573 1.379 . S
C568 N575 1.356 . S
C569 C568 1.363 . S
C569 C572 1.363 . S
N570 C572 1.356 . S
N570 H582 0.984 . S
N570 H583 0.985 . S
N571 C573 1.356 . S
N571 H576 0.984 . S
N571 H577 0.985 . S
C572 C566 1.379 . S
C572 C569 1.363 . S
C572 N570 1.356 . S
C573 C567 1.363 . S
C573 C568 1.379 . S
C573 N571 1.356 . S
N574 C566 1.356 . S
N574 H580 0.984 . S
N574 H581 0.984 . S
N575 C568 1.356 . S
N575 H578 0.984 . S
N575 H579 0.985 . S
H576 N571 0.984 . S
H577 N571 0.985 . S
H578 N575 0.984 . S
H579 N575 0.985 . S
H580 N574 0.984 . S
H581 N574 0.984 . S
H582 N570 0.984 . S
H583 N570 0.985 . S
C584 C585 1.363 . S
C584 C590 1.379 . S
C584 N592 1.356 . S
C585 C584 1.363 . S
C585 C591 1.363 . S
C586 C587 1.363 . S
C586 C591 1.379 . S
C586 N593 1.356 . S
C587 C586 1.363 . S
C587 C590 1.363 . S
N588 C590 1.356 . S
N588 H600 0.984 . S
N588 H601 0.985 . S
N589 C591 1.356 . S
N589 H594 0.984 . S
N589 H595 0.985 . S
C590 C584 1.379 . S
C590 C587 1.363 . S
C590 N588 1.356 . S
C591 C585 1.363 . S
C591 C586 1.379 . S
C591 N589 1.356 . S
N592 C584 1.356 . S
N592 H598 0.984 . S
N592 H599 0.984 . S
N593 C586 1.356 . S
N593 H596 0.984 . S
N593 H597 0.985 . S
H594 N589 0.984 . S
H595 N589 0.985 . S
H596 N593 0.984 . S
H597 N593 0.985 . S
H598 N592 0.984 . S
H599 N592 0.984 . S
H600 N588 0.984 . S
H601 N588 0.985 . S
C602 C603 1.363 . S
C602 C608 1.379 . S
C602 N610 1.356 . S
C603 C602 1.363 . S
C603 C609 1.363 . S
C604 C605 1.363 . S
C604 C609 1.379 . S
C604 N611 1.356 . S
C605 C604 1.363 . S
C605 C608 1.363 . S
N606 C608 1.356 . S
N606 H618 0.984 . S
N606 H619 0.985 . S
N607 C609 1.356 . S
N607 H612 0.984 . S
N607 H613 0.985 . S
C608 C602 1.379 . S
C608 C605 1.363 . S
C608 N606 1.356 . S
C609 C603 1.363 . S
C609 C604 1.379 . S
C609 N607 1.356 . S
N610 C602 1.356 . S
N610 H616 0.984 . S
N610 H617 0.984 . S
N611 C604 1.356 . S
N611 H614 0.984 . S
N611 H615 0.985 . S
H612 N607 0.984 . S
H613 N607 0.985 . S
H614 N611 0.984 . S
H615 N611 0.985 . S
H616 N610 0.984 . S
H617 N610 0.984 . S
H618 N606 0.984 . S
H619 N606 0.985 . S
C620 C621 1.363 . S
C620 C626 1.379 . S
C620 N628 1.356 . S
C621 C620 1.363 . S
C621 C627 1.363 . S
C622 C623 1.363 . S
C622 C627 1.379 . S
C622 N629 1.356 . S
C623 C622 1.363 . S
C623 C626 1.363 . S
N624 C626 1.356 . S
N624 H636 0.984 . S
N624 H637 0.985 . S
N625 C627 1.356 . S
N625 H630 0.984 . S
N625 H631 0.985 . S
C626 C620 1.379 . S
C626 C623 1.363 . S
C626 N624 1.356 . S
C627 C621 1.363 . S
C627 C622 1.379 . S
C627 N625 1.356 . S
N628 C620 1.356 . S
N628 H634 0.984 . S
N628 H635 0.984 . S
N629 C622 1.356 . S
N629 H632 0.984 . S
N629 H633 0.985 . S
H630 N625 0.984 . S
H631 N625 0.985 . S
H632 N629 0.984 . S
H633 N629 0.985 . S
H634 N628 0.984 . S
H635 N628 0.984 . S
H636 N624 0.984 . S
H637 N624 0.985 . S
C638 C639 1.363 . S
C638 C644 1.379 . S
C638 N646 1.356 . S
C639 C638 1.363 . S
C639 C645 1.363 . S
C640 C641 1.363 . S
C640 C645 1.379 . S
C640 N647 1.356 . S
C641 C640 1.363 . S
C641 C644 1.363 . S
N642 C644 1.356 . S
N642 H654 0.984 1_545 S
N642 H655 0.985 . S
N643 C645 1.356 . S
N643 H648 0.984 . S
N643 H649 0.985 . S
C644 C638 1.379 . S
C644 C641 1.363 . S
C644 N642 1.356 . S
C645 C639 1.363 . S
C645 C640 1.379 . S
C645 N643 1.356 . S
N646 C638 1.356 . S
N646 H652 0.984 . S
N646 H653 0.984 . S
N647 C640 1.356 . S
N647 H650 0.984 . S
N647 H651 0.985 . S
H648 N643 0.984 . S
H649 N643 0.985 . S
H650 N647 0.984 . S
H651 N647 0.985 . S
H652 N646 0.984 . S
H653 N646 0.984 . S
H654 N642 0.984 1_565 S
H655 N642 0.985 . S
C656 C657 1.363 . S
C656 C662 1.379 1_554 S
C656 N664 1.356 . S
C657 C656 1.363 . S
C657 C663 1.363 . S
C658 C659 1.363 . S
C658 C663 1.379 1_556 S
C658 N665 1.356 . S
C659 C658 1.363 . S
C659 C662 1.363 . S
N660 C662 1.356 . S
N660 H672 0.984 . S
N660 H673 0.985 . S
N661 C663 1.356 . S
N661 H666 0.984 . S
N661 H667 0.985 . S
C662 C656 1.379 1_556 S
C662 C659 1.363 . S
C662 N660 1.356 . S
C663 C657 1.363 . S
C663 C658 1.379 1_554 S
C663 N661 1.356 . S
N664 C656 1.356 . S
N664 H670 0.984 . S
N664 H671 0.984 . S
N665 C658 1.356 . S
N665 H668 0.984 . S
N665 H669 0.985 . S
H666 N661 0.984 . S
H667 N661 0.985 . S
H668 N665 0.984 . S
H669 N665 0.985 . S
H670 N664 0.984 . S
H671 N664 0.984 . S
H672 N660 0.984 . S
H673 N660 0.985 . S
C674 C675 1.363 . S
C674 C680 1.379 . S
C674 N682 1.356 . S
C675 C674 1.363 . S
C675 C681 1.363 . S
C676 C677 1.363 . S
C676 C681 1.379 . S
C676 N683 1.356 . S
C677 C676 1.363 . S
C677 C680 1.363 . S
N678 C680 1.356 . S
N678 H690 0.984 . S
N678 H691 0.985 . S
N679 C681 1.356 . S
N679 H684 0.984 . S
N679 H685 0.985 . S
C680 C674 1.379 . S
C680 C677 1.363 . S
C680 N678 1.356 . S
C681 C675 1.363 . S
C681 C676 1.379 . S
C681 N679 1.356 . S
N682 C674 1.356 . S
N682 H688 0.984 . S
N682 H689 0.984 . S
N683 C676 1.356 . S
N683 H686 0.984 . S
N683 H687 0.985 . S
H684 N679 0.984 . S
H685 N679 0.985 . S
H686 N683 0.984 . S
H687 N683 0.985 . S
H688 N682 0.984 . S
H689 N682 0.984 . S
H690 N678 0.984 . S
H691 N678 0.985 . S
C692 C693 1.363 . S
C692 C698 1.379 1_554 S
C692 N700 1.356 . S
C693 C692 1.363 . S
C693 C699 1.363 . S
C694 C695 1.363 . S
C694 C699 1.379 1_556 S
C694 N701 1.356 . S
C695 C694 1.363 . S
C695 C698 1.363 . S
N696 C698 1.356 . S
N696 H708 0.984 1_655 S
N696 H709 0.985 . S
N697 C699 1.356 . S
N697 H702 0.984 . S
N697 H703 0.985 . S
C698 C692 1.379 1_556 S
C698 C695 1.363 . S
C698 N696 1.356 . S
C699 C693 1.363 . S
C699 C694 1.379 1_554 S
C699 N697 1.356 . S
N700 C692 1.356 . S
N700 H706 0.984 1_655 S
N700 H707 0.984 . S
N701 C694 1.356 . S
N701 H704 0.984 . S
N701 H705 0.985 . S
H702 N697 0.984 . S
H703 N697 0.985 . S
H704 N701 0.984 . S
H705 N701 0.985 . S
H706 N700 0.984 1_455 S
H707 N700 0.984 . S
H708 N696 0.984 1_455 S
H709 N696 0.985 . S
C710 C711 1.363 . S
C710 C716 1.379 . S
C710 N718 1.356 . S
C711 C710 1.363 . S
C711 C717 1.363 . S
C712 C713 1.363 . S
C712 C717 1.379 . S
C712 N719 1.356 1_565 S
C713 C712 1.363 . S
C713 C716 1.363 . S
N714 C716 1.356 . S
N714 H726 0.984 . S
N714 H727 0.985 . S
N715 C717 1.356 1_545 S
N715 H720 0.984 . S
N715 H721 0.985 . S
C716 C710 1.379 . S
C716 C713 1.363 . S
C716 N714 1.356 . S
C717 C711 1.363 . S
C717 C712 1.379 . S
C717 N715 1.356 1_565 S
N718 C710 1.356 . S
N718 H724 0.984 . S
N718 H725 0.984 . S
N719 C712 1.356 1_545 S
N719 H722 0.984 . S
N719 H723 0.985 . S
H720 N715 0.984 . S
H721 N715 0.985 . S
H722 N719 0.984 . S
H723 N719 0.985 . S
H724 N718 0.984 . S
H725 N718 0.984 . S
H726 N714 0.984 . S
H727 N714 0.985 . S
C728 C729 1.363 . S
C728 C734 1.379 1_556 S
C728 N736 1.356 . S
C729 C728 1.363 . S
C729 C735 1.363 . S
C730 C731 1.363 . S
C730 C735 1.379 1_554 S
C730 N737 1.356 . S
C731 C730 1.363 . S
C731 C734 1.363 . S
N732 C734 1.356 . S
N732 H744 0.984 . S
N732 H745 0.985 . S
N733 C735 1.356 . S
N733 H738 0.984 . S
N733 H739 0.985 . S
C734 C728 1.379 1_554 S
C734 C731 1.363 . S
C734 N732 1.356 . S
C735 C729 1.363 . S
C735 C730 1.379 1_556 S
C735 N733 1.356 . S
N736 C728 1.356 . S
N736 H742 0.984 . S
N736 H743 0.984 . S
N737 C730 1.356 . S
N737 H740 0.984 . S
N737 H741 0.985 . S
H738 N733 0.984 . S
H739 N733 0.985 . S
H740 N737 0.984 . S
H741 N737 0.985 . S
H742 N736 0.984 . S
H743 N736 0.984 . S
H744 N732 0.984 . S
H745 N732 0.985 . S
C746 C747 1.363 . S
C746 C752 1.379 . S
C746 N754 1.356 . S
C747 C746 1.363 . S
C747 C753 1.363 . S
C748 C749 1.363 . S
C748 C753 1.379 . S
C748 N755 1.356 . S
C749 C748 1.363 . S
C749 C752 1.363 . S
N750 C752 1.356 . S
N750 H762 0.984 . S
N750 H763 0.985 . S
N751 C753 1.356 . S
N751 H756 0.984 . S
N751 H757 0.985 . S
C752 C746 1.379 . S
C752 C749 1.363 . S
C752 N750 1.356 . S
C753 C747 1.363 . S
C753 C748 1.379 . S
C753 N751 1.356 . S
N754 C746 1.356 . S
N754 H760 0.984 . S
N754 H761 0.984 . S
N755 C748 1.356 . S
N755 H758 0.984 . S
N755 H759 0.985 . S
H756 N751 0.984 . S
H757 N751 0.985 . S
H758 N755 0.984 . S
H759 N755 0.985 . S
H760 N754 0.984 . S
H761 N754 0.984 . S
H762 N750 0.984 . S
H763 N750 0.985 . S
C764 C765 1.363 . S
C764 C770 1.379 1_554 S
C764 N772 1.356 . S
C765 C764 1.363 . S
C765 C771 1.363 . S
C766 C767 1.363 . S
C766 C771 1.379 1_556 S
C766 N773 1.356 1_455 S
C767 C766 1.363 . S
C767 C770 1.363 . S
N768 C770 1.356 . S
N768 H780 0.984 . S
N768 H781 0.985 . S
N769 C771 1.356 1_655 S
N769 H774 0.984 . S
N769 H775 0.985 . S
C770 C764 1.379 1_556 S
C770 C767 1.363 . S
C770 N768 1.356 . S
C771 C765 1.363 . S
C771 C766 1.379 1_554 S
C771 N769 1.356 1_455 S
N772 C764 1.356 . S
N772 H778 0.984 . S
N772 H779 0.984 . S
N773 C766 1.356 1_655 S
N773 H776 0.984 . S
N773 H777 0.985 . S
H774 N769 0.984 . S
H775 N769 0.985 . S
H776 N773 0.984 . S
H777 N773 0.985 . S
H778 N772 0.984 . S
H779 N772 0.984 . S
H780 N768 0.984 . S
H781 N768 0.985 . S
C782 C783 1.363 . S
C782 C788 1.379 . S
C782 N790 1.356 . S
C783 C782 1.363 . S
C783 C789 1.363 . S
C784 C785 1.363 . S
C784 C789 1.379 . S
C784 N791 1.356 1_545 S
C785 C784 1.363 . S
C785 C788 1.363 . S
N786 C788 1.356 . S
N786 H798 0.984 . S
N786 H799 0.985 . S
N787 C789 1.356 1_565 S
N787 H792 0.984 . S
N787 H793 0.985 . S
C788 C782 1.379 . S
C788 C785 1.363 . S
C788 N786 1.356 . S
C789 C783 1.363 . S
C789 C784 1.379 . S
C789 N787 1.356 1_545 S
N790 C782 1.356 . S
N790 H796 0.984 . S
N790 H797 0.984 . S
N791 C784 1.356 1_565 S
N791 H794 0.984 . S
N791 H795 0.985 . S
H792 N787 0.984 . S
H793 N787 0.985 . S
H794 N791 0.984 . S
H795 N791 0.985 . S
H796 N790 0.984 . S
H797 N790 0.984 . S
H798 N786 0.984 . S
H799 N786 0.985 . S
C225 C11 1.297 . S
C227 C109 1.297 . S
C243 C25 1.297 . S
C245 C67 1.297 . S
C261 C39 1.297 . S
C263 C81 1.297 . S
C279 C53 1.297 . S
C281 C95 1.297 . S
C297 C123 1.297 . S
C299 C221 1.297 . S
C315 C179 1.297 . S
C317 C137 1.297 . S
C333 C151 1.297 . S
C335 C193 1.297 . S
C351 C165 1.297 . S
C353 C207 1.297 . S
C369 C8 1.238 . S
C371 C139 1.310 . S
C387 C22 1.238 . S
C389 C153 1.310 . S
C405 C167 1.310 . S
C407 C36 1.238 . S
C423 C50 1.238 . S
C425 C125 1.309 . S
C441 C64 1.238 . S
C443 C223 1.310 . S
C459 C181 1.310 . S
C461 C78 1.238 . S
C477 C195 1.309 . S
C479 C92 1.238 . S
C495 C209 1.310 . S
C497 C106 1.238 . S
C513 C27 1.310 . S
C515 C120 1.238 . S
C531 C41 1.310 . S
C533 C134 1.238 . S
C549 C148 1.238 . S
C551 C55 1.310 . S
C567 C13 1.309 . S
C569 C162 1.238 . S
C585 C176 1.238 . S
C587 C111 1.310 . S
C603 C190 1.238 . S
C605 C69 1.310 . S
C621 C83 1.309 . S
C623 C204 1.238 . S
C639 C97 1.310 . S
C641 C218 1.238 . S
C657 C7 1.502 . S
C659 C63 1.502 . S
C675 C77 1.502 . S
C677 C21 1.502 . S
C693 C35 1.502 . S
C695 C91 1.502 . S
C711 C105 1.502 . S
C713 C49 1.502 . S
C729 C119 1.502 . S
C731 C175 1.502 . S
C747 C189 1.502 . S
C749 C133 1.502 . S
C765 C203 1.502 . S
C767 C147 1.502 . S
C783 C217 1.502 . S
C785 C161 1.502 . S
