# Generated by pormake.
# Topology wiu, (6)-cn, num edge types: 1
# Building blocks:
#     Node 0, Type 0, BuildingBlock: BETDEL_clean_sbu_0, # of connection points: 6
#     Node 1, Type 0, BuildingBlock: BETDEL_clean_sbu_0, # of connection points: 6
#     Node 2, Type 0, BuildingBlock: BETDEL_clean_sbu_0, # of connection points: 6
#     Node 3, Type 0, BuildingBlock: BETDEL_clean_sbu_0, # of connection points: 6
#     Node 4, Type 0, BuildingBlock: BETDEL_clean_sbu_0, # of connection points: 6
#     Node 5, Type 0, BuildingBlock: BETDEL_clean_sbu_0, # of connection points: 6
#     Node 6, Type 0, BuildingBlock: BETDEL_clean_sbu_0, # of connection points: 6
#     Node 7, Type 0, BuildingBlock: BETDEL_clean_sbu_0, # of connection points: 6
#     Node 8, Type 0, BuildingBlock: BETDEL_clean_sbu_0, # of connection points: 6
#     Node 9, Type 0, BuildingBlock: BETDEL_clean_sbu_0, # of connection points: 6
#     Node 10, Type 0, BuildingBlock: BETDEL_clean_sbu_0, # of connection points: 6
#     Node 11, Type 0, BuildingBlock: BETDEL_clean_sbu_0, # of connection points: 6
#     Node 12, Type 0, BuildingBlock: BETDEL_clean_sbu_0, # of connection points: 6
#     Node 13, Type 0, BuildingBlock: BETDEL_clean_sbu_0, # of connection points: 6
#     Node 14, Type 0, BuildingBlock: BETDEL_clean_sbu_0, # of connection points: 6
#     Node 15, Type 0, BuildingBlock: BETDEL_clean_sbu_0, # of connection points: 6
#     Edge 16, Type (0, 0), None
#     Edge 17, Type (0, 0), None
#     Edge 18, Type (0, 0), None
#     Edge 19, Type (0, 0), None
#     Edge 20, Type (0, 0), None
#     Edge 21, Type (0, 0), None
#     Edge 22, Type (0, 0), None
#     Edge 23, Type (0, 0), None
#     Edge 24, Type (0, 0), None
#     Edge 25, Type (0, 0), None
#     Edge 26, Type (0, 0), None
#     Edge 27, Type (0, 0), None
#     Edge 28, Type (0, 0), None
#     Edge 29, Type (0, 0), None
#     Edge 30, Type (0, 0), None
#     Edge 31, Type (0, 0), None
#     Edge 32, Type (0, 0), None
#     Edge 33, Type (0, 0), None
#     Edge 34, Type (0, 0), None
#     Edge 35, Type (0, 0), None
#     Edge 36, Type (0, 0), None
#     Edge 37, Type (0, 0), None
#     Edge 38, Type (0, 0), None
#     Edge 39, Type (0, 0), None
#     Edge 40, Type (0, 0), None
#     Edge 41, Type (0, 0), None
#     Edge 42, Type (0, 0), None
#     Edge 43, Type (0, 0), None
#     Edge 44, Type (0, 0), None
#     Edge 45, Type (0, 0), None
#     Edge 46, Type (0, 0), None
#     Edge 47, Type (0, 0), None
#     Edge 48, Type (0, 0), None
#     Edge 49, Type (0, 0), None
#     Edge 50, Type (0, 0), None
#     Edge 51, Type (0, 0), None
#     Edge 52, Type (0, 0), None
#     Edge 53, Type (0, 0), None
#     Edge 54, Type (0, 0), None
#     Edge 55, Type (0, 0), None
#     Edge 56, Type (0, 0), None
#     Edge 57, Type (0, 0), None
#     Edge 58, Type (0, 0), None
#     Edge 59, Type (0, 0), None
#     Edge 60, Type (0, 0), None
#     Edge 61, Type (0, 0), None
#     Edge 62, Type (0, 0), None
#     Edge 63, Type (0, 0), None
# Relax obj value: 0.427
# Max RMSD: 0.293
# Mean RMSD: 0.293
data_MOF--net-wiu--node1-BETDEL_clean_sbu_0--edge1-none
_symmetry_space_group_name_H-M    P1
_symmetry_Int_Tables_number       1
_symmetry_cell_setting            triclinic
loop_
_symmetry_equiv_pos_as_xyz
'x, y, z'
_cell_length_a     15.950177
_cell_length_b     15.949872
_cell_length_c     24.988029
_cell_angle_alpha  89.999995
_cell_angle_beta   90.00001
_cell_angle_gamma 90.00102
loop_
_atom_site_label
_atom_site_type_symbol
_atom_site_fract_x
_atom_site_fract_y
_atom_site_fract_z
_atom_type_partial_charge
Dy0 Dy 0.29023 0.19711 0.20616 0.0
C1 C 0.46102 0.00438 0.10864 0.0
C2 C 0.22826 0.34886 0.2368 0.0
Dy3 Dy 0.34837 0.06216 0.1725 0.0
O4 O 0.28475 0.30725 0.26303 0.0
O5 O 0.20051 0.30458 0.19755 0.0
O6 O 0.38236 0.26409 0.15051 0.0
O7 O 0.42453 0.16885 0.19802 0.0
C8 C 0.44833 0.22392 0.16571 0.0
C9 C 0.18779 0.02653 0.18827 0.0
O10 O 0.39699 0.01784 0.24865 0.0
O11 O 0.32809 0.12935 0.28657 0.0
O12 O 0.42973 0.95884 0.14746 0.0
O13 O 0.42958 0.07844 0.10379 0.0
O14 O 0.23521 0.98639 0.15483 0.0
O15 O 0.22883 0.07629 0.21815 0.0
O16 O 0.19837 0.17683 0.13543 0.0
O17 O 0.29548 0.09999 0.09406 0.0
C18 C 0.3763 0.05993 0.29155 0.0
C19 C 0.2222 0.13538 0.09238 0.0
Dy20 Dy 0.53642 0.54033 0.45617 0.0
C21 C 0.72937 0.71115 0.3586 0.0
C22 C 0.38464 0.47838 0.48677 0.0
Dy23 Dy 0.67152 0.59851 0.42246 0.0
O24 O 0.42618 0.53495 0.51298 0.0
O25 O 0.42901 0.45053 0.44759 0.0
O26 O 0.46947 0.63248 0.40052 0.0
O27 O 0.56479 0.67459 0.44798 0.0
C28 C 0.50972 0.69843 0.41568 0.0
C29 C 0.70698 0.43789 0.4382 0.0
O30 O 0.71575 0.64706 0.49866 0.0
O31 O 0.60423 0.57813 0.53656 0.0
O32 O 0.7749 0.67981 0.39742 0.0
O33 O 0.65528 0.67979 0.35377 0.0
O34 O 0.74717 0.48528 0.40478 0.0
O35 O 0.65729 0.47898 0.46809 0.0
O36 O 0.55665 0.44851 0.38542 0.0
O37 O 0.63355 0.5456 0.34404 0.0
C38 C 0.67366 0.62633 0.54155 0.0
C39 C 0.59812 0.47234 0.34237 0.0
Dy40 Dy 0.19327 0.78641 0.70616 0.0
C41 C 0.02248 0.97914 0.60864 0.0
C42 C 0.25524 0.63466 0.7368 0.0
Dy43 Dy 0.13513 0.92136 0.6725 0.0
O44 O 0.19875 0.67627 0.76303 0.0
O45 O 0.28299 0.67893 0.69756 0.0
O46 O 0.10114 0.71943 0.65051 0.0
O47 O 0.05897 0.81466 0.69802 0.0
C48 C 0.03517 0.7596 0.66571 0.0
C49 C 0.29571 0.95699 0.68827 0.0
O50 O 0.08651 0.96568 0.74865 0.0
O51 O 0.15541 0.85417 0.78657 0.0
O52 O 0.05377 0.02467 0.64746 0.0
O53 O 0.05392 0.90508 0.60379 0.0
O54 O 0.24829 -0.00287 0.65483 0.0
O55 O 0.25467 0.90723 0.71815 0.0
O56 O 0.28513 0.80669 0.63543 0.0
O57 O 0.18802 0.88352 0.59406 0.0
C58 C 0.1072 0.92359 0.79155 0.0
C59 C 0.2613 0.84814 0.59238 0.0
Dy60 Dy 0.94708 0.44319 0.95617 0.0
C61 C 0.75413 0.27237 0.8586 0.0
C62 C 0.09886 0.50514 0.98677 0.0
Dy63 Dy 0.81198 0.38501 0.92246 0.0
O64 O 0.05732 0.44857 1.01298 0.0
O65 O 0.05449 0.53299 0.94759 0.0
O66 O 0.01403 0.35104 0.90052 0.0
O67 O 0.91871 0.30892 0.94798 0.0
C68 C 0.97378 0.28509 0.91568 0.0
C69 C 0.77652 0.54563 0.9382 0.0
O70 O 0.76775 0.33646 0.99866 0.0
O71 O 0.87927 0.40539 1.03656 0.0
O72 O 0.7086 0.30371 0.89742 0.0
O73 O 0.82822 0.30373 0.85377 0.0
O74 O 0.73633 0.49824 0.90478 0.0
O75 O 0.82622 0.50454 0.96809 0.0
O76 O 0.92685 0.53501 0.88542 0.0
O77 O 0.84995 0.43792 0.84404 0.0
C78 C 0.80984 0.35719 1.04155 0.0
C79 C 0.88538 0.51118 0.84237 0.0
Dy80 Dy 0.63682 0.9194 1.01051 0.0
C81 C 0.75511 0.63334 0.9472 0.0
C82 C 0.5246 0.97725 1.0747 0.0
Dy83 Dy 0.69371 0.78568 0.97761 0.0
O84 O 0.55527 0.02253 1.03556 0.0
O85 O 0.55651 0.90341 1.07974 0.0
O86 O 0.74858 -0.00303 1.02781 0.0
O87 O 0.75741 0.90528 0.96542 0.0
C88 C 0.79694 0.95665 0.99505 0.0
C89 C 0.53516 0.75952 1.01741 0.0
O90 O 0.78634 0.80655 1.04801 0.0
O91 O 0.68893 0.88263 1.0893 0.0
O92 O 0.70097 0.6765 0.91998 0.0
O93 O 0.78074 0.67614 0.98765 0.0
O94 O 0.60097 0.71992 1.03352 0.0
O95 O 0.55938 0.81382 0.98474 0.0
O96 O 0.58757 0.96474 0.93484 0.0
O97 O 0.65562 0.85294 0.89696 0.0
C98 C 0.76247 0.84799 1.09106 0.0
C99 C 0.60762 0.92249 0.89193 0.0
Dy100 Dy 0.31395 0.38673 0.76054 0.0
C101 C 0.60014 0.5051 0.69719 0.0
C102 C 0.25602 0.27454 0.82474 0.0
Dy103 Dy 0.44779 0.44365 0.72759 0.0
O104 O 0.21076 0.30525 0.7856 0.0
O105 O 0.3299 0.30637 0.82975 0.0
O106 O 0.23649 0.49856 0.77787 0.0
O107 O 0.32815 0.5073 0.71545 0.0
C108 C 0.27681 0.54687 0.74508 0.0
C109 C 0.47386 0.2851 0.76743 0.0
O110 O 0.42694 0.53627 0.798 0.0
O111 O 0.35085 0.43886 0.83931 0.0
O112 O 0.55706 0.45084 0.67002 0.0
O113 O 0.55726 0.53077 0.7376 0.0
O114 O 0.51353 0.3509 0.7835 0.0
O115 O 0.41956 0.30935 0.73477 0.0
O116 O 0.26866 0.33754 0.68485 0.0
O117 O 0.38048 0.40559 0.64696 0.0
C118 C 0.38551 0.51239 0.84106 0.0
C119 C 0.31091 0.3576 0.64193 0.0
Dy120 Dy 0.84668 0.06412 0.51051 0.0
C121 C 0.72839 0.35018 0.4472 0.0
C122 C 0.95889 0.00627 0.5747 0.0
Dy123 Dy 0.78979 0.19784 0.47761 0.0
O124 O 0.92823 0.96098 0.53556 0.0
O125 O 0.92699 0.08011 0.57974 0.0
O126 O 0.73492 0.98655 0.52781 0.0
O127 O 0.72609 0.07824 0.46542 0.0
C128 C 0.68656 0.02687 0.49505 0.0
C129 C 0.94834 0.224 0.51741 0.0
O130 O 0.69715 0.17697 0.54801 0.0
O131 O 0.79457 0.10089 0.5893 0.0
O132 O 0.78253 0.30702 0.41998 0.0
O133 O 0.70276 0.30738 0.48765 0.0
O134 O 0.88253 0.26359 0.53352 0.0
O135 O 0.92412 0.1697 0.48474 0.0
O136 O 0.89592 0.01877 0.43484 0.0
O137 O 0.82788 0.13058 0.39696 0.0
C138 C 0.72103 0.13553 0.59106 0.0
C139 C 0.87588 0.06103 0.39193 0.0
Dy140 Dy 0.16955 0.59679 0.26054 0.0
C141 C 0.88336 0.47842 0.19719 0.0
C142 C 0.22748 0.70897 0.32474 0.0
Dy143 Dy 0.03571 0.53987 0.22759 0.0
O144 O 0.27274 0.67827 0.2856 0.0
O145 O 0.1536 0.67715 0.32975 0.0
O146 O 0.24701 0.48496 0.27787 0.0
O147 O 0.15535 0.47622 0.21545 0.0
C148 C 0.20669 0.43665 0.24508 0.0
C149 C 0.00964 0.69841 0.26743 0.0
O150 O 0.05656 0.44725 0.298 0.0
O151 O 0.13265 0.54466 0.33931 0.0
O152 O 0.92644 0.53268 0.17002 0.0
O153 O 0.92624 0.45275 0.2376 0.0
O154 O 0.96997 0.63262 0.2835 0.0
O155 O 0.06394 0.67417 0.23477 0.0
O156 O 0.21484 0.64598 0.18485 0.0
O157 O 0.10302 0.57793 0.14696 0.0
C158 C 0.09799 0.47112 0.34106 0.0
C159 C 0.17259 0.62592 0.14193 0.0
Dy160 Dy 0.79039 0.69701 0.70614 0.0
C161 C 0.96106 0.50442 0.60865 0.0
C162 C 0.72844 0.84881 0.7367 0.0
Dy163 Dy 0.84844 0.56227 0.67254 0.0
O164 O 0.78498 0.80728 0.76293 0.0
O165 O 0.70063 0.80444 0.69752 0.0
O166 O 0.88242 0.76388 0.65037 0.0
O167 O 0.92474 0.66888 0.69811 0.0
C168 C 0.94843 0.72401 0.66581 0.0
C169 C 0.68789 0.52646 0.6883 0.0
O170 O 0.89708 0.51777 0.74864 0.0
O171 O 0.82817 0.62926 0.78656 0.0
O172 O 0.92974 0.45891 0.64748 0.0
O173 O 0.92969 0.57851 0.60383 0.0
O174 O 0.73533 0.48644 0.65483 0.0
O175 O 0.72885 0.57628 0.71818 0.0
O176 O 0.69844 0.67675 0.63545 0.0
O177 O 0.79562 0.60008 0.59407 0.0
C178 C 0.87637 0.55984 0.79154 0.0
C179 C 0.7223 0.63537 0.59238 0.0
Dy180 Dy 0.03646 0.04031 0.95613 0.0
C181 C 0.22885 0.21099 0.85869 0.0
C182 C 0.88466 0.9784 0.98669 0.0
Dy183 Dy 0.17107 0.09835 0.92258 0.0
O184 O 0.9263 0.0348 1.01298 0.0
O185 O 0.92894 0.95065 0.94746 0.0
O186 O 0.96957 0.13232 0.90034 0.0
O187 O 0.06449 0.1747 0.94815 0.0
C188 C 0.00937 0.19836 0.91584 0.0
C189 C 0.207 0.93781 0.93833 0.0
O190 O 0.21562 0.14705 0.99865 0.0
O191 O 0.10416 0.07812 1.03657 0.0
O192 O 0.27437 0.17971 0.89753 0.0
O193 O 0.15479 0.17955 0.85384 0.0
O194 O 0.24702 0.98531 0.90489 0.0
O195 O 0.15715 0.97872 0.96821 0.0
O196 O 0.05675 0.94833 0.88545 0.0
O197 O 0.13337 0.04555 0.84408 0.0
C198 C 0.17356 0.12634 1.04155 0.0
C199 C 0.09812 0.97222 0.84239 0.0
Dy200 Dy 0.69311 0.28651 0.20614 0.0
C201 C 0.52244 0.4791 0.10865 0.0
C202 C 0.75506 0.1347 0.2367 0.0
Dy203 Dy 0.63506 0.42125 0.17254 0.0
O204 O 0.69852 0.17624 0.26293 0.0
O205 O 0.78287 0.17907 0.19752 0.0
O206 O 0.60108 0.21964 0.15037 0.0
O207 O 0.55876 0.31464 0.19811 0.0
C208 C 0.53507 0.25951 0.16581 0.0
C209 C 0.79561 0.45706 0.1883 0.0
O210 O 0.58642 0.46575 0.24864 0.0
O211 O 0.65533 0.35426 0.28656 0.0
O212 O 0.55376 0.52461 0.14748 0.0
O213 O 0.55381 0.40501 0.10383 0.0
O214 O 0.74817 0.49708 0.15483 0.0
O215 O 0.75465 0.40724 0.21818 0.0
O216 O 0.78506 0.30677 0.13545 0.0
O217 O 0.68788 0.38344 0.09407 0.0
C218 C 0.60713 0.42368 0.29154 0.0
C219 C 0.7612 0.34815 0.09238 0.0
Dy220 Dy 0.44703 0.94321 0.45613 0.0
C221 C 0.25465 0.77253 0.35869 0.0
C222 C 0.59884 0.00512 0.48669 0.0
Dy223 Dy 0.31243 0.88517 0.42258 0.0
O224 O 0.5572 0.94871 0.51298 0.0
O225 O 0.55456 0.03287 0.44746 0.0
O226 O 0.51393 0.85119 0.40034 0.0
O227 O 0.41901 0.80882 0.44815 0.0
C228 C 0.47413 0.78516 0.41584 0.0
C229 C 0.2765 0.04571 0.43833 0.0
O230 O 0.26788 0.83647 0.49865 0.0
O231 O 0.37934 0.9054 0.53657 0.0
O232 O 0.20913 0.8038 0.39753 0.0
O233 O 0.32871 0.80397 0.35384 0.0
O234 O 0.23648 -0.00179 0.40489 0.0
O235 O 0.32635 0.0048 0.46821 0.0
O236 O 0.42675 0.03519 0.38546 0.0
O237 O 0.35013 0.93797 0.34408 0.0
C238 C 0.30994 0.85718 0.54155 0.0
C239 C 0.38538 0.0113 0.34239 0.0
Dy240 Dy 0.13676 0.41928 0.51046 0.0
C241 C 0.25493 0.13339 0.4473 0.0
C242 C 0.02458 0.47721 0.57468 0.0
Dy243 Dy 0.19356 0.28579 0.47763 0.0
O244 O 0.05527 0.52246 0.53553 0.0
O245 O 0.05643 0.40334 0.5797 0.0
O246 O 0.24846 0.49694 0.5278 0.0
O247 O 0.25741 0.40529 0.46538 0.0
C248 C 0.29686 0.45673 0.49501 0.0
C249 C 0.03507 0.25943 0.51731 0.0
O250 O 0.28629 0.30665 0.54798 0.0
O251 O 0.18881 0.38256 0.58929 0.0
O252 O 0.20078 0.1765 0.42007 0.0
O253 O 0.28059 0.17628 0.4877 0.0
O254 O 0.10091 0.22015 0.53366 0.0
O255 O 0.05918 0.31379 0.48464 0.0
O256 O 0.08749 0.46482 0.43486 0.0
O257 O 0.15554 0.35303 0.39696 0.0
C258 C 0.26239 0.34801 0.59105 0.0
C259 C 0.10755 0.42259 0.39194 0.0
Dy260 Dy 0.81441 0.88689 0.26042 0.0
C261 C 0.10011 0.00504 0.19728 0.0
C262 C 0.75655 0.77471 0.32465 0.0
Dy263 Dy 0.94773 0.94364 0.22764 0.0
O264 O 0.71129 0.80535 0.28549 0.0
O265 O 0.83039 0.80662 0.32969 0.0
O266 O 0.73663 -0.00149 0.27775 0.0
O267 O 0.8283 0.00757 0.21534 0.0
C268 C 0.77679 0.04694 0.24495 0.0
C269 C 0.9742 0.78515 0.26728 0.0
O270 O 0.92684 0.03643 0.29797 0.0
O271 O 0.851 0.93892 0.33928 0.0
O272 O 0.05693 0.95097 0.17002 0.0
O273 O 0.05732 0.03059 0.23775 0.0
O274 O 0.01339 0.85102 0.28369 0.0
O275 O 0.91985 0.80922 0.2346 0.0
O276 O 0.76877 0.83755 0.18486 0.0
O277 O 0.88054 0.90558 0.14696 0.0
C278 C 0.8855 0.01252 0.34104 0.0
C279 C 0.81099 0.85758 0.14194 0.0
Dy280 Dy 0.34674 0.56424 1.01046 0.0
C281 C 0.22857 0.85013 0.9473 0.0
C282 C 0.45892 0.50631 1.07468 0.0
Dy283 Dy 0.28994 0.69773 0.97763 0.0
O284 O 0.42823 0.46106 1.03553 0.0
O285 O 0.42707 0.58018 1.0797 0.0
O286 O 0.23504 0.48658 1.0278 0.0
O287 O 0.22609 0.57823 0.96538 0.0
C288 C 0.18665 0.52679 0.99501 0.0
C289 C 0.44843 0.72409 1.01731 0.0
O290 O 0.19721 0.67687 1.04798 0.0
O291 O 0.29469 0.60096 1.08929 0.0
O292 O 0.28272 0.80702 0.92007 0.0
O293 O 0.20291 0.80724 0.9877 0.0
O294 O 0.38259 0.76337 1.03366 0.0
O295 O 0.42432 0.66973 0.98464 0.0
O296 O 0.39601 0.5187 0.93486 0.0
O297 O 0.32796 0.63049 0.89696 0.0
C298 C 0.22111 0.63551 1.09105 0.0
C299 C 0.37595 0.56093 0.89194 0.0
Dy300 Dy 0.66909 0.09663 0.76042 0.0
C301 C 0.38339 0.97848 0.69728 0.0
C302 C 0.72695 0.20881 0.82465 0.0
Dy303 Dy 0.53577 0.03987 0.72764 0.0
O304 O 0.77221 0.17817 0.78549 0.0
O305 O 0.65311 0.1769 0.82969 0.0
O306 O 0.74687 0.98501 0.77775 0.0
O307 O 0.6552 0.97595 0.71534 0.0
C308 C 0.70671 0.93658 0.74495 0.0
C309 C 0.5093 0.19837 0.76728 0.0
O310 O 0.55666 0.94709 0.79797 0.0
O311 O 0.6325 0.0446 0.83928 0.0
O312 O 0.42657 0.03255 0.67002 0.0
O313 O 0.42618 0.95293 0.73775 0.0
O314 O 0.47011 0.1325 0.78368 0.0
O315 O 0.56365 0.17429 0.7346 0.0
O316 O 0.71473 0.14597 0.68486 0.0
O317 O 0.60296 0.07794 0.64696 0.0
C318 C 0.598 0.971 0.84104 0.0
C319 C 0.67251 0.12594 0.64194 0.0
loop_
_geom_bond_atom_site_label_1
_geom_bond_atom_site_label_2
_geom_bond_distance
_geom_bond_site_symmetry_2
_ccdc_geom_bond_type
Dy0 O4 2.398 . S
Dy0 O5 2.491 . S
Dy0 O6 2.403 . S
Dy0 O7 2.664 . S
Dy0 O11 2.326 . S
Dy0 O15 2.310 . S
Dy0 O16 2.351 . S
C1 O12 1.185 . S
C1 O13 1.355 1_565 S
C2 O4 1.185 . S
C2 O5 1.355 . S
Dy3 O7 2.310 . S
Dy3 O10 2.351 . S
Dy3 O12 2.398 1_545 S
Dy3 O13 2.491 . S
Dy3 O14 2.403 1_545 S
Dy3 O15 2.664 . S
Dy3 O17 2.326 . S
O4 Dy0 2.398 . S
O4 C2 1.185 . S
O5 Dy0 2.491 . S
O5 C2 1.355 . S
O6 Dy0 2.403 . S
O6 C8 1.254 . S
O7 Dy0 2.664 . S
O7 Dy3 2.310 . S
O7 C8 1.268 . S
C8 O6 1.254 . S
C8 O7 1.268 . S
C9 O14 1.254 1_545 S
C9 O15 1.268 . S
O10 Dy3 2.351 . S
O10 C18 1.249 . S
O11 Dy0 2.326 . S
O11 C18 1.267 . S
O12 C1 1.185 . S
O12 Dy3 2.398 1_565 S
O13 C1 1.355 1_545 S
O13 Dy3 2.491 . S
O14 Dy3 2.403 1_565 S
O14 C9 1.254 1_565 S
O15 Dy0 2.310 . S
O15 Dy3 2.664 . S
O15 C9 1.268 . S
O16 Dy0 2.351 . S
O16 C19 1.246 1_554 S
O17 Dy3 2.326 . S
O17 C19 1.265 1_554 S
C18 O10 1.249 . S
C18 O11 1.267 . S
C19 O16 1.246 1_556 S
C19 O17 1.265 1_556 S
Dy20 O24 2.398 . S
Dy20 O25 2.491 . S
Dy20 O26 2.403 . S
Dy20 O27 2.664 . S
Dy20 O31 2.326 . S
Dy20 O35 2.310 . S
Dy20 O36 2.351 . S
C21 O32 1.185 . S
C21 O33 1.355 . S
C22 O24 1.185 . S
C22 O25 1.355 . S
Dy23 O27 2.310 . S
Dy23 O30 2.351 . S
Dy23 O32 2.398 . S
Dy23 O33 2.491 . S
Dy23 O34 2.403 . S
Dy23 O35 2.664 . S
Dy23 O37 2.326 . S
O24 Dy20 2.398 . S
O24 C22 1.185 . S
O25 Dy20 2.491 . S
O25 C22 1.355 . S
O26 Dy20 2.403 . S
O26 C28 1.254 . S
O27 Dy20 2.664 . S
O27 Dy23 2.310 . S
O27 C28 1.268 . S
C28 O26 1.254 . S
C28 O27 1.268 . S
C29 O34 1.254 . S
C29 O35 1.268 . S
O30 Dy23 2.351 . S
O30 C38 1.249 . S
O31 Dy20 2.326 . S
O31 C38 1.267 . S
O32 C21 1.185 . S
O32 Dy23 2.398 . S
O33 C21 1.355 . S
O33 Dy23 2.491 . S
O34 Dy23 2.403 . S
O34 C29 1.254 . S
O35 Dy20 2.310 . S
O35 Dy23 2.664 . S
O35 C29 1.268 . S
O36 Dy20 2.351 . S
O36 C39 1.249 . S
O37 Dy23 2.326 . S
O37 C39 1.267 . S
C38 O30 1.249 . S
C38 O31 1.267 . S
C39 O36 1.249 . S
C39 O37 1.267 . S
Dy40 O44 2.398 . S
Dy40 O45 2.491 . S
Dy40 O46 2.403 . S
Dy40 O47 2.664 . S
Dy40 O51 2.326 . S
Dy40 O55 2.310 . S
Dy40 O56 2.351 . S
C41 O52 1.185 . S
C41 O53 1.355 1_545 S
C42 O44 1.185 . S
C42 O45 1.355 . S
Dy43 O47 2.310 . S
Dy43 O50 2.351 . S
Dy43 O52 2.398 1_565 S
Dy43 O53 2.491 . S
Dy43 O54 2.403 1_565 S
Dy43 O55 2.664 . S
Dy43 O57 2.326 . S
O44 Dy40 2.398 . S
O44 C42 1.185 . S
O45 Dy40 2.491 . S
O45 C42 1.355 . S
O46 Dy40 2.403 . S
O46 C48 1.254 . S
O47 Dy40 2.664 . S
O47 Dy43 2.310 . S
O47 C48 1.268 . S
C48 O46 1.254 . S
C48 O47 1.268 . S
C49 O54 1.254 1_565 S
C49 O55 1.268 . S
O50 Dy43 2.351 . S
O50 C58 1.249 . S
O51 Dy40 2.326 . S
O51 C58 1.267 . S
O52 C41 1.185 . S
O52 Dy43 2.398 1_545 S
O53 C41 1.355 1_565 S
O53 Dy43 2.491 . S
O54 Dy43 2.403 1_545 S
O54 C49 1.254 1_545 S
O55 Dy40 2.310 . S
O55 Dy43 2.664 . S
O55 C49 1.268 . S
O56 Dy40 2.351 . S
O56 C59 1.249 . S
O57 Dy43 2.326 . S
O57 C59 1.267 . S
C58 O50 1.249 . S
C58 O51 1.267 . S
C59 O56 1.249 . S
C59 O57 1.267 . S
Dy60 O64 2.398 . S
Dy60 O65 2.491 . S
Dy60 O66 2.403 . S
Dy60 O67 2.664 1_455 S
Dy60 O71 2.326 1_455 S
Dy60 O75 2.310 1_455 S
Dy60 O76 2.351 1_455 S
C61 O72 1.185 . S
C61 O73 1.355 . S
C62 O64 1.185 . S
C62 O65 1.355 . S
Dy63 O67 2.310 . S
Dy63 O70 2.351 . S
Dy63 O72 2.398 . S
Dy63 O73 2.491 . S
Dy63 O74 2.403 . S
Dy63 O75 2.664 . S
Dy63 O77 2.326 . S
O64 Dy60 2.398 . S
O64 C62 1.185 . S
O65 Dy60 2.491 . S
O65 C62 1.355 . S
O66 Dy60 2.403 . S
O66 C68 1.254 1_455 S
O67 Dy60 2.664 1_655 S
O67 Dy63 2.310 . S
O67 C68 1.269 . S
C68 O66 1.254 1_655 S
C68 O67 1.269 . S
C69 O74 1.254 . S
C69 O75 1.268 . S
O70 Dy63 2.351 . S
O70 C78 1.249 . S
O71 Dy60 2.326 1_655 S
O71 C78 1.267 . S
O72 C61 1.185 . S
O72 Dy63 2.398 . S
O73 C61 1.355 . S
O73 Dy63 2.491 . S
O74 Dy63 2.403 . S
O74 C69 1.254 . S
O75 Dy60 2.310 1_655 S
O75 Dy63 2.664 . S
O75 C69 1.268 . S
O76 Dy60 2.351 1_655 S
O76 C79 1.249 . S
O77 Dy63 2.326 . S
O77 C79 1.267 . S
C78 O70 1.249 . S
C78 O71 1.267 . S
C79 O76 1.249 . S
C79 O77 1.267 . S
Dy80 O84 2.398 1_565 S
Dy80 O85 2.491 . S
Dy80 O86 2.403 1_565 S
Dy80 O87 2.664 . S
Dy80 O91 2.326 . S
Dy80 O95 2.310 . S
Dy80 O96 2.351 . S
C81 O92 1.185 . S
C81 O93 1.355 . S
C82 O84 1.185 . S
C82 O85 1.355 1_545 S
Dy83 O87 2.310 . S
Dy83 O90 2.351 . S
Dy83 O92 2.398 . S
Dy83 O93 2.491 . S
Dy83 O94 2.403 . S
Dy83 O95 2.664 . S
Dy83 O97 2.326 . S
O84 Dy80 2.398 1_545 S
O84 C82 1.185 . S
O85 Dy80 2.491 . S
O85 C82 1.355 1_565 S
O86 Dy80 2.403 1_545 S
O86 C88 1.254 1_545 S
O87 Dy80 2.664 . S
O87 Dy83 2.310 . S
O87 C88 1.268 . S
C88 O86 1.254 1_565 S
C88 O87 1.268 . S
C89 O94 1.254 . S
C89 O95 1.268 . S
O90 Dy83 2.351 . S
O90 C98 1.246 1_556 S
O91 Dy80 2.326 . S
O91 C98 1.265 1_556 S
O92 C81 1.185 . S
O92 Dy83 2.398 . S
O93 C81 1.355 . S
O93 Dy83 2.491 . S
O94 Dy83 2.403 . S
O94 C89 1.254 . S
O95 Dy80 2.310 . S
O95 Dy83 2.664 . S
O95 C89 1.268 . S
O96 Dy80 2.351 . S
O96 C99 1.249 . S
O97 Dy83 2.326 . S
O97 C99 1.267 . S
C98 O90 1.246 1_554 S
C98 O91 1.265 1_554 S
C99 O96 1.249 . S
C99 O97 1.267 . S
Dy100 O104 2.398 . S
Dy100 O105 2.491 . S
Dy100 O106 2.403 . S
Dy100 O107 2.664 . S
Dy100 O111 2.326 . S
Dy100 O115 2.310 . S
Dy100 O116 2.351 . S
C101 O112 1.185 . S
C101 O113 1.355 . S
C102 O104 1.185 . S
C102 O105 1.355 . S
Dy103 O107 2.310 . S
Dy103 O110 2.351 . S
Dy103 O112 2.398 . S
Dy103 O113 2.491 . S
Dy103 O114 2.403 . S
Dy103 O115 2.664 . S
Dy103 O117 2.326 . S
O104 Dy100 2.398 . S
O104 C102 1.185 . S
O105 Dy100 2.491 . S
O105 C102 1.355 . S
O106 Dy100 2.403 . S
O106 C108 1.254 . S
O107 Dy100 2.664 . S
O107 Dy103 2.310 . S
O107 C108 1.268 . S
C108 O106 1.254 . S
C108 O107 1.268 . S
C109 O114 1.254 . S
C109 O115 1.268 . S
O110 Dy103 2.351 . S
O110 C118 1.249 . S
O111 Dy100 2.326 . S
O111 C118 1.267 . S
O112 C101 1.185 . S
O112 Dy103 2.398 . S
O113 C101 1.355 . S
O113 Dy103 2.491 . S
O114 Dy103 2.403 . S
O114 C109 1.254 . S
O115 Dy100 2.310 . S
O115 Dy103 2.664 . S
O115 C109 1.268 . S
O116 Dy100 2.351 . S
O116 C119 1.249 . S
O117 Dy103 2.326 . S
O117 C119 1.267 . S
C118 O110 1.249 . S
C118 O111 1.267 . S
C119 O116 1.249 . S
C119 O117 1.267 . S
Dy120 O124 2.398 1_545 S
Dy120 O125 2.491 . S
Dy120 O126 2.403 1_545 S
Dy120 O127 2.664 . S
Dy120 O131 2.326 . S
Dy120 O135 2.310 . S
Dy120 O136 2.351 . S
C121 O132 1.185 . S
C121 O133 1.355 . S
C122 O124 1.185 . S
C122 O125 1.355 1_565 S
Dy123 O127 2.310 . S
Dy123 O130 2.351 . S
Dy123 O132 2.398 . S
Dy123 O133 2.491 . S
Dy123 O134 2.403 . S
Dy123 O135 2.664 . S
Dy123 O137 2.326 . S
O124 Dy120 2.398 1_565 S
O124 C122 1.185 . S
O125 Dy120 2.491 . S
O125 C122 1.355 1_545 S
O126 Dy120 2.403 1_565 S
O126 C128 1.254 1_565 S
O127 Dy120 2.664 . S
O127 Dy123 2.310 . S
O127 C128 1.268 . S
C128 O126 1.254 1_545 S
C128 O127 1.268 . S
C129 O134 1.254 . S
C129 O135 1.268 . S
O130 Dy123 2.351 . S
O130 C138 1.249 . S
O131 Dy120 2.326 . S
O131 C138 1.267 . S
O132 C121 1.185 . S
O132 Dy123 2.398 . S
O133 C121 1.355 . S
O133 Dy123 2.491 . S
O134 Dy123 2.403 . S
O134 C129 1.254 . S
O135 Dy120 2.310 . S
O135 Dy123 2.664 . S
O135 C129 1.268 . S
O136 Dy120 2.351 . S
O136 C139 1.249 . S
O137 Dy123 2.326 . S
O137 C139 1.267 . S
C138 O130 1.249 . S
C138 O131 1.267 . S
C139 O136 1.249 . S
C139 O137 1.267 . S
Dy140 O144 2.398 . S
Dy140 O145 2.491 . S
Dy140 O146 2.403 . S
Dy140 O147 2.664 . S
Dy140 O151 2.326 . S
Dy140 O155 2.310 . S
Dy140 O156 2.351 . S
C141 O152 1.185 . S
C141 O153 1.355 . S
C142 O144 1.185 . S
C142 O145 1.355 . S
Dy143 O147 2.310 1_655 S
Dy143 O150 2.351 1_655 S
Dy143 O152 2.398 . S
Dy143 O153 2.491 . S
Dy143 O154 2.403 . S
Dy143 O155 2.664 1_655 S
Dy143 O157 2.326 1_655 S
O144 Dy140 2.398 . S
O144 C142 1.185 . S
O145 Dy140 2.491 . S
O145 C142 1.355 . S
O146 Dy140 2.403 . S
O146 C148 1.254 . S
O147 Dy140 2.664 . S
O147 Dy143 2.310 1_455 S
O147 C148 1.268 . S
C148 O146 1.254 . S
C148 O147 1.268 . S
C149 O154 1.254 1_455 S
C149 O155 1.269 . S
O150 Dy143 2.351 1_455 S
O150 C158 1.249 . S
O151 Dy140 2.326 . S
O151 C158 1.267 . S
O152 C141 1.185 . S
O152 Dy143 2.398 . S
O153 C141 1.355 . S
O153 Dy143 2.491 . S
O154 Dy143 2.403 . S
O154 C149 1.254 1_655 S
O155 Dy140 2.310 . S
O155 Dy143 2.664 1_455 S
O155 C149 1.269 . S
O156 Dy140 2.351 . S
O156 C159 1.249 . S
O157 Dy143 2.326 1_455 S
O157 C159 1.267 . S
C158 O150 1.249 . S
C158 O151 1.267 . S
C159 O156 1.249 . S
C159 O157 1.267 . S
Dy160 O164 2.398 . S
Dy160 O165 2.491 . S
Dy160 O166 2.403 . S
Dy160 O167 2.664 . S
Dy160 O171 2.326 . S
Dy160 O175 2.310 . S
Dy160 O176 2.351 . S
C161 O172 1.185 . S
C161 O173 1.355 . S
C162 O164 1.185 . S
C162 O165 1.355 . S
Dy163 O167 2.310 . S
Dy163 O170 2.351 . S
Dy163 O172 2.398 . S
Dy163 O173 2.491 . S
Dy163 O174 2.403 . S
Dy163 O175 2.664 . S
Dy163 O177 2.326 . S
O164 Dy160 2.398 . S
O164 C162 1.185 . S
O165 Dy160 2.491 . S
O165 C162 1.355 . S
O166 Dy160 2.403 . S
O166 C168 1.254 . S
O167 Dy160 2.664 . S
O167 Dy163 2.310 . S
O167 C168 1.268 . S
C168 O166 1.254 . S
C168 O167 1.268 . S
C169 O174 1.254 . S
C169 O175 1.268 . S
O170 Dy163 2.351 . S
O170 C178 1.249 . S
O171 Dy160 2.326 . S
O171 C178 1.267 . S
O172 C161 1.185 . S
O172 Dy163 2.398 . S
O173 C161 1.355 . S
O173 Dy163 2.491 . S
O174 Dy163 2.403 . S
O174 C169 1.254 . S
O175 Dy160 2.310 . S
O175 Dy163 2.664 . S
O175 C169 1.268 . S
O176 Dy160 2.351 . S
O176 C179 1.249 . S
O177 Dy163 2.326 . S
O177 C179 1.267 . S
C178 O170 1.249 . S
C178 O171 1.267 . S
C179 O176 1.249 . S
C179 O177 1.267 . S
Dy180 O184 2.398 1_545 S
Dy180 O185 2.491 1_545 S
Dy180 O186 2.403 . S
Dy180 O187 2.664 1_655 S
Dy180 O191 2.326 1_655 S
Dy180 O195 2.310 1_645 S
Dy180 O196 2.351 1_655 S
C181 O192 1.185 . S
C181 O193 1.355 . S
C182 O184 1.185 . S
C182 O185 1.355 . S
Dy183 O187 2.310 . S
Dy183 O190 2.351 . S
Dy183 O192 2.398 . S
Dy183 O193 2.491 . S
Dy183 O194 2.403 1_545 S
Dy183 O195 2.664 1_545 S
Dy183 O197 2.326 . S
O184 Dy180 2.398 1_565 S
O184 C182 1.185 . S
O185 Dy180 2.491 1_565 S
O185 C182 1.355 . S
O186 Dy180 2.403 . S
O186 C188 1.254 1_655 S
O187 Dy180 2.664 1_455 S
O187 Dy183 2.310 . S
O187 C188 1.269 . S
C188 O186 1.254 1_455 S
C188 O187 1.269 . S
C189 O194 1.254 . S
C189 O195 1.268 . S
O190 Dy183 2.351 . S
O190 C198 1.249 . S
O191 Dy180 2.326 1_455 S
O191 C198 1.267 . S
O192 C181 1.185 . S
O192 Dy183 2.398 . S
O193 C181 1.355 . S
O193 Dy183 2.491 . S
O194 Dy183 2.403 1_565 S
O194 C189 1.254 . S
O195 Dy180 2.310 1_465 S
O195 Dy183 2.664 1_565 S
O195 C189 1.268 . S
O196 Dy180 2.351 1_455 S
O196 C199 1.249 . S
O197 Dy183 2.326 . S
O197 C199 1.267 . S
C198 O190 1.249 . S
C198 O191 1.267 . S
C199 O196 1.249 . S
C199 O197 1.267 . S
Dy200 O204 2.398 . S
Dy200 O205 2.491 . S
Dy200 O206 2.403 . S
Dy200 O207 2.664 . S
Dy200 O211 2.326 . S
Dy200 O215 2.310 . S
Dy200 O216 2.351 . S
C201 O212 1.185 . S
C201 O213 1.355 . S
C202 O204 1.185 . S
C202 O205 1.355 . S
Dy203 O207 2.310 . S
Dy203 O210 2.351 . S
Dy203 O212 2.398 . S
Dy203 O213 2.491 . S
Dy203 O214 2.403 . S
Dy203 O215 2.664 . S
Dy203 O217 2.326 . S
O204 Dy200 2.398 . S
O204 C202 1.185 . S
O205 Dy200 2.491 . S
O205 C202 1.355 . S
O206 Dy200 2.403 . S
O206 C208 1.254 . S
O207 Dy200 2.664 . S
O207 Dy203 2.310 . S
O207 C208 1.268 . S
C208 O206 1.254 . S
C208 O207 1.268 . S
C209 O214 1.254 . S
C209 O215 1.268 . S
O210 Dy203 2.351 . S
O210 C218 1.249 . S
O211 Dy200 2.326 . S
O211 C218 1.267 . S
O212 C201 1.185 . S
O212 Dy203 2.398 . S
O213 C201 1.355 . S
O213 Dy203 2.491 . S
O214 Dy203 2.403 . S
O214 C209 1.254 . S
O215 Dy200 2.310 . S
O215 Dy203 2.664 . S
O215 C209 1.268 . S
O216 Dy200 2.351 . S
O216 C219 1.246 1_554 S
O217 Dy203 2.326 . S
O217 C219 1.265 1_554 S
C218 O210 1.249 . S
C218 O211 1.267 . S
C219 O216 1.246 1_556 S
C219 O217 1.265 1_556 S
Dy220 O224 2.398 1_565 S
Dy220 O225 2.491 1_565 S
Dy220 O226 2.403 . S
Dy220 O227 2.664 . S
Dy220 O231 2.326 . S
Dy220 O235 2.310 1_565 S
Dy220 O236 2.351 . S
C221 O232 1.185 . S
C221 O233 1.355 . S
C222 O224 1.185 . S
C222 O225 1.355 . S
Dy223 O227 2.310 . S
Dy223 O230 2.351 . S
Dy223 O232 2.398 . S
Dy223 O233 2.491 . S
Dy223 O234 2.403 1_565 S
Dy223 O235 2.664 1_565 S
Dy223 O237 2.326 . S
O224 Dy220 2.398 1_545 S
O224 C222 1.185 . S
O225 Dy220 2.491 1_545 S
O225 C222 1.355 . S
O226 Dy220 2.403 . S
O226 C228 1.254 . S
O227 Dy220 2.664 . S
O227 Dy223 2.310 . S
O227 C228 1.268 . S
C228 O226 1.254 . S
C228 O227 1.268 . S
C229 O234 1.254 . S
C229 O235 1.268 . S
O230 Dy223 2.351 . S
O230 C238 1.249 . S
O231 Dy220 2.326 . S
O231 C238 1.267 . S
O232 C221 1.185 . S
O232 Dy223 2.398 . S
O233 C221 1.355 . S
O233 Dy223 2.491 . S
O234 Dy223 2.403 1_545 S
O234 C229 1.254 . S
O235 Dy220 2.310 1_545 S
O235 Dy223 2.664 1_545 S
O235 C229 1.268 . S
O236 Dy220 2.351 . S
O236 C239 1.249 . S
O237 Dy223 2.326 . S
O237 C239 1.267 . S
C238 O230 1.249 . S
C238 O231 1.267 . S
C239 O236 1.249 . S
C239 O237 1.267 . S
Dy240 O244 2.398 . S
Dy240 O245 2.491 . S
Dy240 O246 2.403 . S
Dy240 O247 2.664 . S
Dy240 O251 2.326 . S
Dy240 O255 2.310 . S
Dy240 O256 2.351 . S
C241 O252 1.185 . S
C241 O253 1.355 . S
C242 O244 1.185 . S
C242 O245 1.355 . S
Dy243 O247 2.310 . S
Dy243 O250 2.351 . S
Dy243 O252 2.398 . S
Dy243 O253 2.491 . S
Dy243 O254 2.403 . S
Dy243 O255 2.664 . S
Dy243 O257 2.326 . S
O244 Dy240 2.398 . S
O244 C242 1.185 . S
O245 Dy240 2.491 . S
O245 C242 1.355 . S
O246 Dy240 2.403 . S
O246 C248 1.254 . S
O247 Dy240 2.664 . S
O247 Dy243 2.310 . S
O247 C248 1.268 . S
C248 O246 1.254 . S
C248 O247 1.268 . S
C249 O254 1.254 . S
C249 O255 1.268 . S
O250 Dy243 2.351 . S
O250 C258 1.249 . S
O251 Dy240 2.326 . S
O251 C258 1.267 . S
O252 C241 1.185 . S
O252 Dy243 2.398 . S
O253 C241 1.355 . S
O253 Dy243 2.491 . S
O254 Dy243 2.403 . S
O254 C249 1.254 . S
O255 Dy240 2.310 . S
O255 Dy243 2.664 . S
O255 C249 1.268 . S
O256 Dy240 2.351 . S
O256 C259 1.249 . S
O257 Dy243 2.326 . S
O257 C259 1.267 . S
C258 O250 1.249 . S
C258 O251 1.267 . S
C259 O256 1.249 . S
C259 O257 1.267 . S
Dy260 O264 2.398 . S
Dy260 O265 2.491 . S
Dy260 O266 2.403 1_565 S
Dy260 O267 2.664 1_565 S
Dy260 O271 2.326 . S
Dy260 O275 2.310 . S
Dy260 O276 2.351 . S
C261 O272 1.185 . S
C261 O273 1.355 . S
C262 O264 1.185 . S
C262 O265 1.355 . S
Dy263 O267 2.310 1_465 S
Dy263 O270 2.351 1_455 S
Dy263 O272 2.398 1_565 S
Dy263 O273 2.491 1_565 S
Dy263 O274 2.403 . S
Dy263 O275 2.664 1_455 S
Dy263 O277 2.326 1_455 S
O264 Dy260 2.398 . S
O264 C262 1.185 . S
O265 Dy260 2.491 . S
O265 C262 1.355 . S
O266 Dy260 2.403 1_545 S
O266 C268 1.254 . S
O267 Dy260 2.664 1_545 S
O267 Dy263 2.310 1_645 S
O267 C268 1.268 . S
C268 O266 1.254 . S
C268 O267 1.268 . S
C269 O274 1.254 1_655 S
C269 O275 1.269 . S
O270 Dy263 2.351 1_655 S
O270 C278 1.249 . S
O271 Dy260 2.326 . S
O271 C278 1.267 . S
O272 C261 1.185 . S
O272 Dy263 2.398 1_545 S
O273 C261 1.355 . S
O273 Dy263 2.491 1_545 S
O274 Dy263 2.403 . S
O274 C269 1.254 1_455 S
O275 Dy260 2.310 . S
O275 Dy263 2.664 1_655 S
O275 C269 1.269 . S
O276 Dy260 2.351 . S
O276 C279 1.249 . S
O277 Dy263 2.326 1_655 S
O277 C279 1.267 . S
C278 O270 1.249 . S
C278 O271 1.267 . S
C279 O276 1.249 . S
C279 O277 1.267 . S
Dy280 O284 2.398 . S
Dy280 O285 2.491 . S
Dy280 O286 2.403 . S
Dy280 O287 2.664 . S
Dy280 O291 2.326 . S
Dy280 O295 2.310 . S
Dy280 O296 2.351 . S
C281 O292 1.185 . S
C281 O293 1.355 . S
C282 O284 1.185 . S
C282 O285 1.355 . S
Dy283 O287 2.310 . S
Dy283 O290 2.351 . S
Dy283 O292 2.398 . S
Dy283 O293 2.491 . S
Dy283 O294 2.403 . S
Dy283 O295 2.664 . S
Dy283 O297 2.326 . S
O284 Dy280 2.398 . S
O284 C282 1.185 . S
O285 Dy280 2.491 . S
O285 C282 1.355 . S
O286 Dy280 2.403 . S
O286 C288 1.254 . S
O287 Dy280 2.664 . S
O287 Dy283 2.310 . S
O287 C288 1.268 . S
C288 O286 1.254 . S
C288 O287 1.268 . S
C289 O294 1.254 . S
C289 O295 1.268 . S
O290 Dy283 2.351 . S
O290 C298 1.246 1_556 S
O291 Dy280 2.326 . S
O291 C298 1.265 1_556 S
O292 C281 1.185 . S
O292 Dy283 2.398 . S
O293 C281 1.355 . S
O293 Dy283 2.491 . S
O294 Dy283 2.403 . S
O294 C289 1.254 . S
O295 Dy280 2.310 . S
O295 Dy283 2.664 . S
O295 C289 1.268 . S
O296 Dy280 2.351 . S
O296 C299 1.249 . S
O297 Dy283 2.326 . S
O297 C299 1.267 . S
C298 O290 1.246 1_554 S
C298 O291 1.265 1_554 S
C299 O296 1.249 . S
C299 O297 1.267 . S
Dy300 O304 2.398 . S
Dy300 O305 2.491 . S
Dy300 O306 2.403 1_545 S
Dy300 O307 2.664 1_545 S
Dy300 O311 2.326 . S
Dy300 O315 2.310 . S
Dy300 O316 2.351 . S
C301 O312 1.185 . S
C301 O313 1.355 . S
C302 O304 1.185 . S
C302 O305 1.355 . S
Dy303 O307 2.310 1_545 S
Dy303 O310 2.351 . S
Dy303 O312 2.398 1_545 S
Dy303 O313 2.491 1_545 S
Dy303 O314 2.403 . S
Dy303 O315 2.664 . S
Dy303 O317 2.326 . S
O304 Dy300 2.398 . S
O304 C302 1.185 . S
O305 Dy300 2.491 . S
O305 C302 1.355 . S
O306 Dy300 2.403 1_565 S
O306 C308 1.254 . S
O307 Dy300 2.664 1_565 S
O307 Dy303 2.310 1_565 S
O307 C308 1.268 . S
C308 O306 1.254 . S
C308 O307 1.268 . S
C309 O314 1.254 . S
C309 O315 1.268 . S
O310 Dy303 2.351 . S
O310 C318 1.249 . S
O311 Dy300 2.326 . S
O311 C318 1.267 . S
O312 C301 1.185 . S
O312 Dy303 2.398 1_565 S
O313 C301 1.355 . S
O313 Dy303 2.491 1_565 S
O314 Dy303 2.403 . S
O314 C309 1.254 . S
O315 Dy300 2.310 . S
O315 Dy303 2.664 . S
O315 C309 1.268 . S
O316 Dy300 2.351 . S
O316 C319 1.249 . S
O317 Dy303 2.326 . S
O317 C319 1.267 . S
C318 O310 1.249 . S
C318 O311 1.267 . S
C319 O316 1.249 . S
C319 O317 1.267 . S
C8 C208 2.071 . S
C28 C228 2.071 . S
C48 C168 2.071 1_455 S
C188 C68 2.071 1_455 S
C89 C289 2.071 . S
C309 C109 2.071 . S
C249 C129 2.071 1_455 S
C149 C269 2.071 1_455 S
C1 C82 2.821 1_564 S
C21 C262 2.821 . S
C41 C122 2.821 1_445 S
C61 C302 2.821 . S
C102 C181 2.821 . S
C221 C142 2.821 . S
C242 C161 2.821 1_455 S
C201 C282 2.821 1_554 S
C2 C148 1.565 . S
C22 C248 1.565 . S
C42 C108 1.565 . S
C62 C288 1.565 . S
C69 C81 1.565 . S
C101 C169 1.565 . S
C121 C29 1.565 . S
C209 C141 1.565 . S
C162 C308 1.565 . S
C88 C182 1.565 . S
C268 C202 1.565 . S
C128 C222 1.565 . S
C241 C229 1.565 . S
C261 C9 1.565 . S
C189 C281 1.565 . S
C301 C49 1.565 . S
C19 C198 3.529 . S
C218 C39 3.526 . S
C59 C238 3.526 . S
C178 C79 3.526 . S
C279 C98 3.529 . S
C299 C118 3.526 . S
C319 C138 3.526 . S
C259 C158 3.526 . S
C38 C179 3.526 . S
C58 C199 3.526 1_565 S
C78 C219 3.529 . S
C239 C18 3.526 1_565 S
C119 C258 3.526 . S
C139 C278 3.526 1_545 S
C159 C298 3.529 . S
C99 C318 3.526 1_565 S
