# Generated by pormake.
# Topology bcs, (6)-cn, num edge types: 1
# Building blocks:
#     Node 0, Type 0, BuildingBlock: CIFDUS_clean_sbu_1, # of connection points: 6
#     Node 1, Type 0, BuildingBlock: CIFDUS_clean_sbu_1, # of connection points: 6
#     Node 2, Type 0, BuildingBlock: CIFDUS_clean_sbu_1, # of connection points: 6
#     Node 3, Type 0, BuildingBlock: CIFDUS_clean_sbu_1, # of connection points: 6
#     Node 4, Type 0, BuildingBlock: CIFDUS_clean_sbu_1, # of connection points: 6
#     Node 5, Type 0, BuildingBlock: CIFDUS_clean_sbu_1, # of connection points: 6
#     Node 6, Type 0, BuildingBlock: CIFDUS_clean_sbu_1, # of connection points: 6
#     Node 7, Type 0, BuildingBlock: CIFDUS_clean_sbu_1, # of connection points: 6
#     Node 8, Type 0, BuildingBlock: CIFDUS_clean_sbu_1, # of connection points: 6
#     Node 9, Type 0, BuildingBlock: CIFDUS_clean_sbu_1, # of connection points: 6
#     Node 10, Type 0, BuildingBlock: CIFDUS_clean_sbu_1, # of connection points: 6
#     Node 11, Type 0, BuildingBlock: CIFDUS_clean_sbu_1, # of connection points: 6
#     Node 12, Type 0, BuildingBlock: CIFDUS_clean_sbu_1, # of connection points: 6
#     Node 13, Type 0, BuildingBlock: CIFDUS_clean_sbu_1, # of connection points: 6
#     Node 14, Type 0, BuildingBlock: CIFDUS_clean_sbu_1, # of connection points: 6
#     Node 15, Type 0, BuildingBlock: CIFDUS_clean_sbu_1, # of connection points: 6
#     Edge 16, Type (0, 0), BuildingBlock: OJICUG_clean_linker_0, # of connection points: 2
#     Edge 17, Type (0, 0), BuildingBlock: OJICUG_clean_linker_0, # of connection points: 2
#     Edge 18, Type (0, 0), BuildingBlock: OJICUG_clean_linker_0, # of connection points: 2
#     Edge 19, Type (0, 0), BuildingBlock: OJICUG_clean_linker_0, # of connection points: 2
#     Edge 20, Type (0, 0), BuildingBlock: OJICUG_clean_linker_0, # of connection points: 2
#     Edge 21, Type (0, 0), BuildingBlock: OJICUG_clean_linker_0, # of connection points: 2
#     Edge 22, Type (0, 0), BuildingBlock: OJICUG_clean_linker_0, # of connection points: 2
#     Edge 23, Type (0, 0), BuildingBlock: OJICUG_clean_linker_0, # of connection points: 2
#     Edge 24, Type (0, 0), BuildingBlock: OJICUG_clean_linker_0, # of connection points: 2
#     Edge 25, Type (0, 0), BuildingBlock: OJICUG_clean_linker_0, # of connection points: 2
#     Edge 26, Type (0, 0), BuildingBlock: OJICUG_clean_linker_0, # of connection points: 2
#     Edge 27, Type (0, 0), BuildingBlock: OJICUG_clean_linker_0, # of connection points: 2
#     Edge 28, Type (0, 0), BuildingBlock: OJICUG_clean_linker_0, # of connection points: 2
#     Edge 29, Type (0, 0), BuildingBlock: OJICUG_clean_linker_0, # of connection points: 2
#     Edge 30, Type (0, 0), BuildingBlock: OJICUG_clean_linker_0, # of connection points: 2
#     Edge 31, Type (0, 0), BuildingBlock: OJICUG_clean_linker_0, # of connection points: 2
#     Edge 32, Type (0, 0), BuildingBlock: OJICUG_clean_linker_0, # of connection points: 2
#     Edge 33, Type (0, 0), BuildingBlock: OJICUG_clean_linker_0, # of connection points: 2
#     Edge 34, Type (0, 0), BuildingBlock: OJICUG_clean_linker_0, # of connection points: 2
#     Edge 35, Type (0, 0), BuildingBlock: OJICUG_clean_linker_0, # of connection points: 2
#     Edge 36, Type (0, 0), BuildingBlock: OJICUG_clean_linker_0, # of connection points: 2
#     Edge 37, Type (0, 0), BuildingBlock: OJICUG_clean_linker_0, # of connection points: 2
#     Edge 38, Type (0, 0), BuildingBlock: OJICUG_clean_linker_0, # of connection points: 2
#     Edge 39, Type (0, 0), BuildingBlock: OJICUG_clean_linker_0, # of connection points: 2
#     Edge 40, Type (0, 0), BuildingBlock: OJICUG_clean_linker_0, # of connection points: 2
#     Edge 41, Type (0, 0), BuildingBlock: OJICUG_clean_linker_0, # of connection points: 2
#     Edge 42, Type (0, 0), BuildingBlock: OJICUG_clean_linker_0, # of connection points: 2
#     Edge 43, Type (0, 0), BuildingBlock: OJICUG_clean_linker_0, # of connection points: 2
#     Edge 44, Type (0, 0), BuildingBlock: OJICUG_clean_linker_0, # of connection points: 2
#     Edge 45, Type (0, 0), BuildingBlock: OJICUG_clean_linker_0, # of connection points: 2
#     Edge 46, Type (0, 0), BuildingBlock: OJICUG_clean_linker_0, # of connection points: 2
#     Edge 47, Type (0, 0), BuildingBlock: OJICUG_clean_linker_0, # of connection points: 2
#     Edge 48, Type (0, 0), BuildingBlock: OJICUG_clean_linker_0, # of connection points: 2
#     Edge 49, Type (0, 0), BuildingBlock: OJICUG_clean_linker_0, # of connection points: 2
#     Edge 50, Type (0, 0), BuildingBlock: OJICUG_clean_linker_0, # of connection points: 2
#     Edge 51, Type (0, 0), BuildingBlock: OJICUG_clean_linker_0, # of connection points: 2
#     Edge 52, Type (0, 0), BuildingBlock: OJICUG_clean_linker_0, # of connection points: 2
#     Edge 53, Type (0, 0), BuildingBlock: OJICUG_clean_linker_0, # of connection points: 2
#     Edge 54, Type (0, 0), BuildingBlock: OJICUG_clean_linker_0, # of connection points: 2
#     Edge 55, Type (0, 0), BuildingBlock: OJICUG_clean_linker_0, # of connection points: 2
#     Edge 56, Type (0, 0), BuildingBlock: OJICUG_clean_linker_0, # of connection points: 2
#     Edge 57, Type (0, 0), BuildingBlock: OJICUG_clean_linker_0, # of connection points: 2
#     Edge 58, Type (0, 0), BuildingBlock: OJICUG_clean_linker_0, # of connection points: 2
#     Edge 59, Type (0, 0), BuildingBlock: OJICUG_clean_linker_0, # of connection points: 2
#     Edge 60, Type (0, 0), BuildingBlock: OJICUG_clean_linker_0, # of connection points: 2
#     Edge 61, Type (0, 0), BuildingBlock: OJICUG_clean_linker_0, # of connection points: 2
#     Edge 62, Type (0, 0), BuildingBlock: OJICUG_clean_linker_0, # of connection points: 2
#     Edge 63, Type (0, 0), BuildingBlock: OJICUG_clean_linker_0, # of connection points: 2
# Relax obj value: 0.276
# Max RMSD: 0.277
# Mean RMSD: 0.249
data_MOF--net-bcs--node1-CIFDUS_clean_sbu_1--edge1-OJICUG_clean_linker_0
_symmetry_space_group_name_H-M    P1
_symmetry_Int_Tables_number       1
_symmetry_cell_setting            triclinic
loop_
_symmetry_equiv_pos_as_xyz
'x, y, z'
_cell_length_a     23.739111
_cell_length_b     24.978852
_cell_length_c     27.83257
_cell_angle_alpha  89.108984
_cell_angle_beta   90.829045
_cell_angle_gamma 96.610876
loop_
_atom_site_label
_atom_site_type_symbol
_atom_site_fract_x
_atom_site_fract_y
_atom_site_fract_z
_atom_type_partial_charge
O0 O 0.99212 0.04031 0.93628 0.0
Mn1 Mn 0.04189 0.01327 -0.00814 0.0
O2 O 0.99508 0.12935 0.95207 0.0
Mn3 Mn 0.05412 0.13722 -0.00181 0.0
O4 O 0.09137 0.9862 0.04761 0.0
O5 O 0.99069 0.94332 -0.00365 0.0
Mn6 Mn 1.03014 0.88964 -0.01487 0.0
O7 O 0.09713 0.98069 0.94481 0.0
O8 O 0.08817 0.89707 0.03211 0.0
O9 O 0.98699 0.04602 0.03926 0.0
O10 O 1.03028 0.12585 0.06032 0.0
O11 O 0.95776 0.85906 -0.00019 0.0
O12 O 0.05496 0.90074 0.92326 0.0
C13 C 0.13496 0.11777 0.97415 0.0
C14 C 0.97481 0.08693 0.92927 0.0
C15 C 0.10814 0.93945 0.05511 0.0
C16 C 0.94849 0.9082 0.00762 0.0
C17 C 0.09379 0.93942 0.9177 0.0
C18 C 0.99102 0.08755 0.06617 0.0
O19 O 0.09298 0.08321 -0.01299 0.0
O20 O 0.12638 0.1671 -0.01813 0.0
O21 O 0.34146 0.80321 0.29115 0.0
Mn22 Mn 0.28503 0.76034 0.2448 0.0
O23 O 0.42444 0.76745 0.28163 0.0
Mn24 Mn 0.40427 0.72343 0.2286 0.0
O25 O 0.22916 0.71741 0.19813 0.0
O26 O 0.22004 0.76554 0.28902 0.0
Mn27 Mn 0.16429 0.79467 0.26061 0.0
O28 O 0.26682 0.8302 0.20639 0.0
O29 O 0.14445 0.74951 0.20826 0.0
O30 O 0.3031 0.69067 0.28338 0.0
O31 O 0.36996 0.65546 0.24335 0.0
O32 O 0.13967 0.77415 0.32169 0.0
O33 O 0.19634 0.86308 0.24421 0.0
C34 C 0.3831 0.76606 0.16477 0.0
C35 C 0.39359 0.79885 0.3024 0.0
C36 C 0.17672 0.71993 0.18691 0.0
C37 C 0.18745 0.75414 0.32519 0.0
C38 C 0.23335 0.86691 0.21147 0.0
C39 C 0.33495 0.65287 0.2775 0.0
O40 O 0.34993 0.75489 0.20057 0.0
O41 O 0.43002 0.74451 0.16807 0.0
O42 O 0.56869 0.95278 0.53418 0.0
Mn43 Mn 0.53929 0.01247 0.49208 0.0
O44 O 0.66321 0.96216 0.52059 0.0
Mn45 Mn 0.67103 0.02785 0.4867 0.0
O46 O 0.51023 0.0724 0.45018 0.0
O47 O 0.46573 0.96631 0.47991 0.0
Mn48 Mn 0.4089 0.99923 0.49945 0.0
O49 O 0.50606 0.0474 0.55349 0.0
O50 O 0.41601 0.06417 0.46461 0.0
O51 O 0.57382 0.97818 0.43057 0.0
O52 O 0.66088 0.02208 0.42163 0.0
O53 O 0.37674 0.93583 0.47253 0.0
O54 O 0.41856 0.00642 0.56443 0.0
C55 C 0.64576 0.0948 0.52538 0.0
C56 C 0.61819 0.93725 0.53901 0.0
C57 C 0.46105 0.08868 0.44595 0.0
C58 C 0.42871 0.92923 0.46318 0.0
C59 C 0.46049 0.03843 0.57869 0.0
C60 C 0.62018 0.98897 0.4065 0.0
O61 O 0.61215 0.0585 0.50412 0.0
O62 O 0.6987 0.09074 0.51795 0.0
O63 O 0.27089 0.20419 0.79656 0.0
Mn64 Mn 0.2899 0.26144 0.74134 0.0
O65 O 0.1822 0.16606 0.78216 0.0
Mn66 Mn 0.16317 0.22012 0.74166 0.0
O67 O 0.30932 0.31867 0.68597 0.0
O68 O 0.35918 0.28868 0.77987 0.0
Mn69 Mn 0.41685 0.30407 0.74148 0.0
O70 O 0.3373 0.20641 0.70683 0.0
O71 O 0.39681 0.35874 0.70223 0.0
O72 O 0.24277 0.31684 0.77616 0.0
O73 O 0.15079 0.28352 0.76995 0.0
O74 O 0.44568 0.31865 0.80162 0.0
O75 O 0.42907 0.24127 0.7118 0.0
C76 C 0.18516 0.21626 0.66901 0.0
C77 C 0.22906 0.16805 0.80522 0.0
C78 C 0.35071 0.35559 0.67799 0.0
C79 C 0.39385 0.30407 0.81443 0.0
C80 C 0.39061 0.20441 0.69887 0.0
C81 C 0.18947 0.3197 0.78364 0.0
O82 O 0.2206 0.23357 0.70259 0.0
O83 O 0.13327 0.20339 0.6825 0.0
O84 O 0.0968 0.06469 0.52498 0.0
Mn85 Mn 0.04038 0.00597 0.49317 0.0
O86 O 0.18448 0.0481 0.5026 0.0
Mn87 Mn 0.1615 0.99159 0.46109 0.0
O88 O 0.98382 0.94795 0.46077 0.0
O89 O 0.98473 0.00377 0.5488 0.0
Mn90 Mn 0.92043 0.02267 0.52491 0.0
O91 O 1.00326 0.06552 0.45507 0.0
O92 O 0.89682 0.96862 0.4811 0.0
O93 O 0.0775 0.94618 0.53099 0.0
O94 O 0.15068 0.92408 0.48913 0.0
O95 O 0.90706 0.00883 0.58865 0.0
O96 O 0.93337 0.09087 0.49871 0.0
C97 C 0.1224 0.0195 0.39763 0.0
C98 C 0.15114 0.07589 0.52454 0.0
C99 C 0.92928 0.93984 0.45924 0.0
C100 C 0.95707 0.99286 0.5886 0.0
C101 C 0.96555 0.09715 0.46261 0.0
C102 C 0.11675 0.91601 0.52401 0.0
O103 O 0.09587 0.00773 0.43775 0.0
O104 O 0.1728 0.0045 0.39679 0.0
O105 O 0.33532 0.72319 0.79616 0.0
Mn106 Mn 0.28918 0.75841 0.74399 0.0
O107 O 0.42282 0.72898 0.76328 0.0
Mn108 Mn 0.4133 0.77801 0.71285 0.0
O109 O 0.24338 0.79347 0.69136 0.0
O110 O 0.21874 0.70396 0.75334 0.0
Mn111 Mn 0.16435 0.73933 0.77383 0.0
O112 O 0.26326 0.81347 0.79283 0.0
O113 O 0.15516 0.78719 0.72253 0.0
O114 O 0.31483 0.70326 0.69502 0.0
O115 O 0.38575 0.74871 0.65559 0.0
O116 O 0.13179 0.66965 0.76531 0.0
O117 O 0.19025 0.76962 0.83111 0.0
C118 C 0.39916 0.8534 0.74231 0.0
C119 C 0.38753 0.71379 0.79674 0.0
C120 C 0.19096 0.80206 0.68944 0.0
C121 C 0.17962 0.66378 0.74546 0.0
C122 C 0.22851 0.80926 0.82779 0.0
C123 C 0.34867 0.70818 0.65943 0.0
O124 O 0.35984 0.81304 0.7355 0.0
O125 O 0.44612 0.84784 0.72089 0.0
O126 O 0.4869 0.95404 0.03594 0.0
Mn127 Mn 0.53613 0.00937 -0.00632 0.0
O128 O 0.39786 0.9757 0.02381 0.0
Mn129 Mn 0.41501 0.02426 0.97324 0.0
O130 O 0.58419 0.0652 0.9512 0.0
O131 O 0.60198 0.01969 0.0473 0.0
Mn132 Mn 0.65188 0.99189 0.00991 0.0
O133 O 0.56592 0.94473 0.95492 0.0
O134 O 0.67099 0.0385 0.95835 0.0
O135 O 0.50425 0.0741 0.03106 0.0
O136 O 0.43126 0.09565 -0.01222 0.0
O137 O 0.69267 0.00506 0.0628 0.0
O138 O 0.63566 0.91987 -0.00138 0.0
C139 C 0.43225 0.99194 0.90715 0.0
C140 C 0.43333 0.94759 0.04402 0.0
C141 C 0.63686 0.06939 0.94051 0.0
C142 C 0.64684 0.02324 0.07704 0.0
C143 C 0.60051 0.91006 0.965 0.0
C144 C 0.46699 0.10658 0.02116 0.0
O145 O 0.47107 0.99996 0.94159 0.0
O146 O 0.38341 0.00806 0.91535 0.0
O147 O 0.23021 0.28259 0.19206 0.0
Mn148 Mn 0.28794 0.26148 0.24298 0.0
O149 O 0.22152 0.36878 0.21084 0.0
Mn150 Mn 0.28141 0.37938 0.25478 0.0
O151 O 0.34541 0.24006 0.29391 0.0
O152 O 0.24346 0.18531 0.24982 0.0
Mn153 Mn 0.295 0.14537 0.22886 0.0
O154 O 0.34378 0.24185 0.18778 0.0
O155 O 0.356 0.15534 0.27188 0.0
O156 O 0.23224 0.28195 0.29799 0.0
O157 O 0.2613 0.36646 0.31729 0.0
O158 O 0.23478 0.09671 0.24198 0.0
O159 O 0.31239 0.15919 0.16583 0.0
C160 C 0.365 0.38275 0.22937 0.0
C161 C 0.20651 0.32595 0.18711 0.0
C162 C 0.36989 0.19701 0.29744 0.0
C163 C 0.21244 0.13866 0.25606 0.0
C164 C 0.34355 0.20268 0.15831 0.0
C165 C 0.2306 0.32274 0.32548 0.0
O166 O 0.33222 0.33739 0.2365 0.0
O167 O 0.34371 0.42597 0.24165 0.0
O168 O 0.59543 0.56515 0.02007 0.0
Mn169 Mn 0.53899 0.505 -0.00891 0.0
O170 O 0.68282 0.54652 -0.00121 0.0
Mn171 Mn 0.6596 0.48911 0.95815 0.0
O172 O 0.48208 0.44457 0.9624 0.0
O173 O 0.4849 0.50585 0.04722 0.0
Mn174 Mn 0.41884 0.52115 0.02434 0.0
O175 O 0.5006 0.56271 0.95146 0.0
O176 O 0.39503 0.4629 -0.01504 0.0
O177 O 0.57785 0.44759 0.03071 0.0
O178 O 0.649 0.42258 -0.01201 0.0
O179 O 0.40908 0.51105 0.08912 0.0
O180 O 0.42927 0.58744 -0.00591 0.0
C181 C 0.61936 0.5161 0.89476 0.0
C182 C 0.64976 0.57539 0.01984 0.0
C183 C 0.42772 0.43376 0.96378 0.0
C184 C 0.45928 0.49561 0.08797 0.0
C185 C 0.46208 0.5937 0.95834 0.0
C186 C 0.61681 0.41693 0.02418 0.0
O187 O 0.5935 0.50438 0.9352 0.0
O188 O 0.66962 0.50081 0.89347 0.0
O189 O 0.83294 0.22014 0.29796 0.0
Mn190 Mn 0.79026 0.25869 0.24534 0.0
O191 O 0.92125 0.22589 0.26643 0.0
Mn192 Mn 0.91493 0.27875 0.21876 0.0
O193 O 0.74809 0.29734 0.19238 0.0
O194 O 0.7179 0.20302 0.2473 0.0
Mn195 Mn 0.66727 0.24079 0.27187 0.0
O196 O 0.76191 0.31237 0.29408 0.0
O197 O 0.65957 0.2918 0.22298 0.0
O198 O 0.81899 0.20638 0.19546 0.0
O199 O 0.88971 0.25496 0.15907 0.0
O200 O 0.62959 0.17376 0.26464 0.0
O201 O 0.69101 0.26624 0.33136 0.0
C202 C 0.90317 0.35231 0.25203 0.0
C203 C 0.88497 0.20994 0.29897 0.0
C204 C 0.69607 0.3074 0.19059 0.0
C205 C 0.67544 0.16448 0.24313 0.0
C206 C 0.72752 0.30702 0.32904 0.0
C207 C 0.85318 0.21394 0.16031 0.0
O208 O 0.86239 0.31349 0.24337 0.0
O209 O 0.95005 0.34669 0.23048 0.0
O210 O 0.99256 0.45292 0.53673 0.0
Mn211 Mn 0.04053 0.51134 0.49739 0.0
O212 O 0.90931 0.48572 0.53784 0.0
Mn213 Mn 0.92224 0.52864 0.48264 0.0
O214 O 0.09058 0.56872 0.45805 0.0
O215 O 0.10552 0.51676 0.55027 0.0
Mn216 Mn 0.15949 0.49256 0.51556 0.0
O217 O 0.07069 0.44861 0.45643 0.0
O218 O 0.17846 0.54374 0.46719 0.0
O219 O 1.00886 0.57549 0.53674 0.0
O220 O 0.93755 0.60067 0.49297 0.0
O221 O 0.19347 0.50272 0.57298 0.0
O222 O 0.14198 0.42216 0.49836 0.0
C223 C 0.93174 0.48221 0.42368 0.0
C224 C 0.94172 0.45128 0.55132 0.0
C225 C 0.1439 0.57441 0.44932 0.0
C226 C 0.14607 0.5204 0.58371 0.0
C227 C 0.10619 0.41414 0.46475 0.0
C228 C 0.97352 0.61014 0.52659 0.0
O229 O 0.97645 0.50976 0.44426 0.0
O230 O 0.88237 0.4959 0.43443 0.0
O231 O 0.75878 0.70432 0.29021 0.0
Mn232 Mn 0.78165 0.76191 0.23621 0.0
O233 O 0.66492 0.67982 0.28023 0.0
Mn234 Mn 0.65115 0.73211 0.23522 0.0
O235 O 0.80338 0.81952 0.18204 0.0
O236 O 0.85296 0.78661 0.27458 0.0
Mn237 Mn 0.91094 0.79253 0.23558 0.0
O238 O 0.82506 0.70435 0.19955 0.0
O239 O 0.89687 0.84514 0.19126 0.0
O240 O 0.7381 0.81908 0.27289 0.0
O241 O 0.64449 0.79948 0.25826 0.0
O242 O 0.94227 0.81179 0.29353 0.0
O243 O 0.91866 0.72555 0.21271 0.0
C244 C 0.67633 0.72056 0.16399 0.0
C245 C 0.71239 0.67492 0.30103 0.0
C246 C 0.84906 0.84974 0.17112 0.0
C247 C 0.88999 0.80385 0.30717 0.0
C248 C 0.8773 0.69434 0.19619 0.0
C249 C 0.686 0.82963 0.27609 0.0
O250 O 0.71071 0.73779 0.1982 0.0
O251 O 0.62334 0.71285 0.17555 0.0
O252 O 0.84441 0.30408 0.78407 0.0
Mn253 Mn 0.78504 0.25809 0.7426 0.0
O254 O 0.92443 0.26315 0.77607 0.0
Mn255 Mn 0.90196 0.21801 0.72406 0.0
O256 O 0.72573 0.2119 0.70121 0.0
O257 O 0.72276 0.26677 0.78865 0.0
Mn258 Mn 0.66742 0.29735 0.76107 0.0
O259 O 0.76477 0.32541 0.70139 0.0
O260 O 0.64498 0.25158 0.70956 0.0
O261 O 0.80524 0.19067 0.78385 0.0
O262 O 0.8665 0.1512 0.74103 0.0
O263 O 0.64388 0.27761 0.82263 0.0
O264 O 0.70166 0.36428 0.74292 0.0
C265 C 0.88057 0.2614 0.66058 0.0
C266 C 0.8962 0.29802 0.79507 0.0
C267 C 0.67369 0.21719 0.69045 0.0
C268 C 0.69046 0.25543 0.82501 0.0
C269 C 0.7343 0.36436 0.70723 0.0
C270 C 0.83498 0.15131 0.77738 0.0
O271 O 0.84747 0.24973 0.69643 0.0
O272 O 0.92655 0.23825 0.66299 0.0
O273 O 0.73142 0.78517 0.69367 0.0
Mn274 Mn 0.78694 0.76087 0.74518 0.0
O275 O 0.72304 0.87045 0.71611 0.0
Mn276 Mn 0.78198 0.87855 0.76132 0.0
O277 O 0.84262 0.73718 0.79657 0.0
O278 O 0.74165 0.68483 0.7496 0.0
Mn279 Mn 0.79296 0.64478 0.72852 0.0
O280 O 0.84447 0.74221 0.69105 0.0
O281 O 0.85292 0.65298 0.77275 0.0
O282 O 0.72981 0.77983 0.79945 0.0
O283 O 0.76086 0.86224 0.82327 0.0
O284 O 0.7316 0.59661 0.73965 0.0
O285 O 0.81249 0.66078 0.66626 0.0
C286 C 0.86547 0.88149 0.73501 0.0
C287 C 0.70877 0.82933 0.68988 0.0
C288 C 0.86671 0.69386 0.79934 0.0
C289 C 0.70979 0.63846 0.75467 0.0
C290 C 0.84503 0.70387 0.66084 0.0
C291 C 0.7289 0.81874 0.82908 0.0
O292 O 0.83184 0.83656 0.74135 0.0
O293 O 0.84553 0.92448 0.74965 0.0
O294 O 0.48696 0.53835 0.43601 0.0
Mn295 Mn 0.53633 0.50957 0.49064 0.0
O296 O 0.48838 0.62634 0.45531 0.0
Mn297 Mn 0.54775 0.63316 0.50132 0.0
O298 O 0.5856 0.48054 0.54552 0.0
O299 O 0.48562 0.43934 0.49321 0.0
Mn300 Mn 0.5244 0.38577 0.48046 0.0
O301 O 0.59185 0.47898 0.44248 0.0
O302 O 0.58282 0.3921 0.52724 0.0
O303 O 0.48104 0.54048 0.53874 0.0
O304 O 0.52431 0.61889 0.56331 0.0
O305 O 0.45196 0.35558 0.49652 0.0
O306 O 0.5488 0.40004 0.41871 0.0
C307 C 0.62784 0.6147 0.4743 0.0
C308 C 0.469 0.58487 0.43077 0.0
C309 C 0.60251 0.43361 0.55158 0.0
C310 C 0.44381 0.4046 0.50598 0.0
C311 C 0.58812 0.43858 0.41424 0.0
C312 C 0.48518 0.5802 0.56771 0.0
O313 O 0.58672 0.57981 0.48812 0.0
O314 O 0.61967 0.66362 0.48417 0.0
O315 O 0.06245 0.44619 0.0344 0.0
Mn316 Mn 0.03617 0.50747 -0.00769 0.0
O317 O 0.15711 0.4535 0.02234 0.0
Mn318 Mn 0.16623 0.5192 -0.01102 0.0
O319 O 1.00929 0.5685 0.95046 0.0
O320 O 0.96321 0.46234 0.97696 0.0
Mn321 Mn 0.9049 0.49345 -0.00468 0.0
O322 O 0.99946 0.54163 0.05267 0.0
O323 O 0.9146 0.56024 0.96339 0.0
O324 O 0.07177 0.47329 0.93141 0.0
O325 O 0.15991 0.51374 0.92365 0.0
O326 O 0.87567 0.43167 0.9636 0.0
O327 O 0.91319 0.49681 0.06066 0.0
C328 C 0.14722 0.58898 0.02564 0.0
C329 C 0.11117 0.42911 0.03948 0.0
C330 C 0.96025 0.58515 0.94603 0.0
C331 C 0.92838 0.42638 0.9563 0.0
C332 C 0.95286 0.53061 0.07619 0.0
C333 C 0.11844 0.48242 0.90764 0.0
O334 O 0.10957 0.55285 0.00801 0.0
O335 O 0.19914 0.58123 0.01729 0.0
C336 C 0.18561 0.091 0.85324 0.0
C337 C 0.22821 0.13475 0.84954 0.0
H338 H 0.11727 0.05657 0.89519 0.0
C339 C 0.25334 0.15685 0.89186 0.0
H340 H 0.16601 0.07268 0.82114 0.0
C341 C 0.22807 0.14298 0.93621 0.0
C342 C 0.17724 0.10791 0.93813 0.0
H343 H 0.28673 0.19026 0.89024 0.0
H344 H 0.24322 0.16576 0.96759 0.0
C345 C 0.15846 0.07963 0.89675 0.0
C346 C 0.19104 0.89499 0.08508 0.0
C347 C 0.15245 0.93278 0.09209 0.0
H348 H 0.25047 0.84682 0.11716 0.0
C349 C 0.15323 0.95925 0.13626 0.0
H350 H 0.19232 0.87481 0.05101 0.0
C351 C 0.1866 0.94291 0.17461 0.0
C352 C 0.22021 0.90038 0.16911 0.0
H353 H 0.12449 0.98905 0.14246 0.0
H354 H 0.18194 0.95996 0.2097 0.0
C355 C 0.2252 0.87954 0.12295 0.0
C356 C 0.45848 0.91059 0.38128 0.0
C357 C 0.43971 0.89082 0.42645 0.0
H358 H 0.45802 0.89607 0.30532 0.0
C359 C 0.41363 0.83776 0.431 0.0
H360 H 0.47626 0.95226 0.37683 0.0
C361 C 0.40242 0.80623 0.39036 0.0
C362 C 0.41695 0.82759 0.3448 0.0
H363 H 0.39744 0.82241 0.46536 0.0
H364 H 0.37887 0.76663 0.39416 0.0
C365 C 0.44711 0.87899 0.34044 0.0
C366 C 0.46285 0.16696 0.64861 0.0
C367 C 0.41019 0.15918 0.6721 0.0
H368 H 0.51992 0.13535 0.60092 0.0
C369 C 0.3781 0.10855 0.66966 0.0
H370 H 0.48892 0.20549 0.64968 0.0
C371 C 0.39724 0.06742 0.64271 0.0
C372 C 0.44845 0.07631 0.61692 0.0
H373 H 0.33802 0.1009 0.68805 0.0
H374 H 0.37043 0.0294 0.64024 0.0
C375 C 0.48146 0.12627 0.62117 0.0
C376 C 0.09722 0.87216 0.60416 0.0
C377 C 0.13101 0.8791 0.56304 0.0
H378 H 0.08994 0.84327 0.67667 0.0
C379 C 0.18312 0.85743 0.56287 0.0
H380 H 0.05687 0.88815 0.60536 0.0
C381 C 0.20255 0.83239 0.60395 0.0
C382 C 0.17001 0.82797 0.64586 0.0
H383 H 0.21028 0.86194 0.53178 0.0
H384 H 0.24341 0.8171 0.60295 0.0
C385 C 0.11646 0.8468 0.64516 0.0
C386 C 0.38579 0.87204 0.82982 0.0
C387 C 0.40302 0.8907 0.78388 0.0
H388 H 0.38444 0.88881 0.90524 0.0
C389 C 0.43673 0.94099 0.78022 0.0
H390 H 0.36262 0.83246 0.83459 0.0
C391 C 0.45108 0.97255 0.82104 0.0
C392 C 0.43356 0.95391 0.86685 0.0
H393 H 0.45233 0.95583 0.74553 0.0
H394 H 0.47435 0.0122 0.81659 0.0
C395 C 0.40048 0.90341 0.8706 0.0
C396 C 0.41406 0.1846 0.04141 0.0
C397 C 0.45278 0.14818 0.05572 0.0
H398 H 0.34877 0.23169 0.06329 0.0
C399 C 0.46524 0.14335 0.10498 0.0
H400 H 0.4036 0.18982 0.00373 0.0
C401 C 0.43441 0.1685 0.13905 0.0
C402 C 0.39059 0.19903 0.12461 0.0
H403 H 0.49413 0.11565 0.1175 0.0
H404 H 0.44057 0.15917 0.17679 0.0
C405 C 0.38278 0.20917 0.07549 0.0
C406 C 0.14053 0.11492 0.37291 0.0
C407 C 0.1116 0.06343 0.36363 0.0
H408 H 0.19586 0.18171 0.34446 0.0
C409 C 0.09927 0.04979 0.31566 0.0
H410 H 0.15133 0.12636 0.4096 0.0
C411 C 0.12389 0.0822 0.27817 0.0
C412 C 0.1625 0.12812 0.288 0.0
H413 H 0.07782 0.01033 0.30719 0.0
H414 H 0.11992 0.0666 0.242 0.0
C415 C 0.16624 0.14695 0.33536 0.0
C416 C 0.87475 0.17209 0.08397 0.0
C417 C 0.86773 0.16733 0.13371 0.0
H418 H 0.91863 0.14749 0.02317 0.0
C419 C 0.89147 0.12604 0.15923 0.0
H420 H 0.85769 0.20418 0.06386 0.0
C421 C 0.92791 0.09458 0.13622 0.0
C422 C 0.93935 0.10335 0.08737 0.0
H423 H 0.88741 0.12249 0.19792 0.0
H424 H 0.95092 0.06724 0.15732 0.0
C425 C 0.90976 0.13977 0.06086 0.0
C426 C 0.16379 0.67279 0.4375 0.0
C427 C 0.16657 0.62079 0.42023 0.0
H428 H 0.17153 0.75718 0.42051 0.0
C429 C 0.18603 0.61382 0.37378 0.0
H430 H 0.14867 0.67861 0.47339 0.0
C431 C 0.19826 0.65855 0.34342 0.0
C432 C 0.19331 0.71062 0.35997 0.0
H433 H 0.18752 0.57373 0.35987 0.0
H434 H 0.20613 0.65184 0.30593 0.0
C435 C 0.1774 0.71752 0.40758 0.0
C436 C 0.6681 0.85944 0.56457 0.0
C437 C 0.62601 0.89324 0.57292 0.0
H438 H 0.72636 0.80959 0.59653 0.0
C439 C 0.60091 0.89286 0.61824 0.0
H440 H 0.68759 0.85895 0.52963 0.0
C441 C 0.62379 0.86558 0.65654 0.0
C442 C 0.67076 0.83743 0.64935 0.0
H443 H 0.56837 0.91866 0.6254 0.0
H444 H 0.60853 0.87088 0.69248 0.0
C445 C 0.68995 0.83097 0.60266 0.0
C446 C 0.43053 0.34072 0.93571 0.0
C447 C 0.40199 0.3867 0.9374 0.0
H448 H 0.44522 0.27244 0.89469 0.0
C449 C 0.35421 0.39042 0.90774 0.0
H450 H 0.46643 0.33632 0.95937 0.0
C451 C 0.34206 0.35366 0.87066 0.0
C452 C 0.37781 0.31365 0.86358 0.0
H453 H 0.33094 0.42521 0.9092 0.0
H454 H 0.3113 0.36218 0.84339 0.0
C455 C 0.41758 0.30359 0.89937 0.0
C456 C 0.90669 0.80963 0.39365 0.0
C457 C 0.87645 0.82535 0.35316 0.0
H458 H 0.94844 0.83512 0.45958 0.0
C459 C 0.85503 0.87526 0.35246 0.0
H460 H 0.92533 0.772 0.39392 0.0
C461 C 0.8672 0.91086 0.39027 0.0
C462 C 0.9031 0.89751 0.42789 0.0
H463 H 0.83503 0.88943 0.32017 0.0
H464 H 0.85392 0.9509 0.3874 0.0
C465 C 0.92065 0.8459 0.43066 0.0
C466 C 0.42729 0.59086 0.64005 0.0
C467 C 0.43353 0.59434 0.59016 0.0
H468 H 0.39092 0.62348 0.70156 0.0
C469 C 0.39903 0.62569 0.56276 0.0
H470 H 0.45422 0.56761 0.66176 0.0
C471 C 0.36435 0.65884 0.58536 0.0
C472 C 0.36239 0.65952 0.63555 0.0
H473 H 0.40393 0.62939 0.52418 0.0
H474 H 0.34361 0.68763 0.56394 0.0
C475 C 0.39098 0.62268 0.66263 0.0
C476 C 0.66006 0.16771 0.93255 0.0
C477 C 0.66038 0.11655 0.91273 0.0
H478 H 0.67284 0.25296 0.92009 0.0
C479 C 0.68066 0.11155 0.86623 0.0
H480 H 0.64482 0.17203 0.96866 0.0
C481 C 0.69616 0.1578 0.83833 0.0
C482 C 0.69354 0.20921 0.85746 0.0
H483 H 0.68077 0.07217 0.85048 0.0
H484 H 0.70499 0.15313 0.80069 0.0
C485 C 0.67682 0.21377 0.90516 0.0
C486 C 0.15824 0.34931 0.06317 0.0
C487 C 0.11724 0.38398 0.07244 0.0
H488 H 0.21818 0.30064 0.09414 0.0
C489 C 0.09386 0.38456 0.11834 0.0
H490 H 0.17622 0.34801 0.02769 0.0
C491 C 0.11857 0.35839 0.15635 0.0
C492 C 0.16556 0.3306 0.14816 0.0
H493 H 0.06204 0.41092 0.1261 0.0
H494 H 0.10526 0.36498 0.19267 0.0
C495 C 0.18199 0.32205 0.10103 0.0
C496 C 0.59639 0.54886 0.81346 0.0
C497 C 0.60924 0.56112 0.86165 0.0
H498 H 0.61637 0.56753 0.73995 0.0
C499 C 0.6389 0.61208 0.87177 0.0
H500 H 0.57442 0.50983 0.80431 0.0
C501 C 0.66456 0.64491 0.83468 0.0
C502 C 0.66007 0.62746 0.78688 0.0
H503 H 0.65018 0.62247 0.90862 0.0
H504 H 0.69463 0.67915 0.84428 0.0
C505 C 0.62092 0.58212 0.77643 0.0
C506 C 0.62476 0.35824 0.14921 0.0
C507 C 0.67557 0.33465 0.14765 0.0
H508 H 0.56574 0.40155 0.11108 0.0
C509 C 0.70425 0.334 0.10394 0.0
H510 H 0.60146 0.35901 0.18234 0.0
C511 C 0.68309 0.35766 0.06276 0.0
C512 C 0.63318 0.38293 0.0647 0.0
H513 H 0.74287 0.315 0.10144 0.0
H514 H 0.70691 0.35762 0.02986 0.0
C515 C 0.60387 0.38215 0.1082 0.0
C516 C 0.89124 0.40043 0.38025 0.0
C517 C 0.93228 0.44598 0.38184 0.0
H518 H 0.85097 0.33458 0.33939 0.0
C519 C 0.96199 0.46151 0.33979 0.0
H520 H 0.86713 0.38771 0.41204 0.0
C521 C 0.94983 0.43264 0.29702 0.0
C522 C 0.90771 0.38762 0.29519 0.0
H523 H 0.99278 0.49706 0.33941 0.0
H524 H 0.97382 0.44538 0.26521 0.0
C525 C 0.87988 0.37118 0.33792 0.0
C526 C 0.64199 0.58288 0.39254 0.0
C527 C 0.66597 0.60669 0.43448 0.0
H528 H 0.64119 0.5838 0.31597 0.0
C529 C 0.71749 0.64055 0.43127 0.0
H530 H 0.60071 0.55966 0.393 0.0
C531 C 0.73928 0.65723 0.38626 0.0
C532 C 0.70964 0.6398 0.3443 0.0
H533 H 0.73641 0.66002 0.4631 0.0
H534 H 0.77432 0.68908 0.38464 0.0
C535 C 0.66452 0.59832 0.34785 0.0
C536 C 0.93804 0.38444 0.83036 0.0
C537 C 0.92188 0.32897 0.8355 0.0
H538 H 0.95654 0.45956 0.86674 0.0
C539 C 0.92096 0.30474 0.88131 0.0
H540 H 0.93841 0.40365 0.79517 0.0
C541 C 0.93076 0.33655 0.92204 0.0
C542 C 0.94282 0.39259 0.91713 0.0
H543 H 0.90776 0.26199 0.88577 0.0
H544 H 0.92395 0.31801 0.95725 0.0
C545 C 0.94892 0.41614 0.8711 0.0
C546 C 0.82714 0.86539 0.08495 0.0
C547 C 0.85082 0.88549 0.12846 0.0
H548 H 0.84006 0.86002 0.00927 0.0
C549 C 0.89314 0.92962 0.12731 0.0
H550 H 0.79417 0.83156 0.0848 0.0
C551 C 0.92093 0.94417 0.08459 0.0
C552 C 0.90419 0.91725 0.04202 0.0
H553 H 0.91167 0.94611 0.16052 0.0
H554 H 0.96131 0.96856 0.08744 0.0
C555 C 0.8537 0.88162 0.04165 0.0
C556 C 0.85305 0.1446 0.86561 0.0
C557 C 0.85372 0.12117 0.82008 0.0
H558 H 0.89205 0.15301 0.93522 0.0
C559 C 0.88715 0.07857 0.814 0.0
H560 H 0.82788 0.17728 0.8719 0.0
C561 C 0.92404 0.0644 0.85072 0.0
C562 C 0.92857 0.09305 0.89386 0.0
H563 H 0.8885 0.05943 0.77943 0.0
H564 H 0.95205 0.03414 0.84389 0.0
C565 C 0.89064 0.13125 0.90179 0.0
C566 C 0.63912 0.12978 0.65335 0.0
C567 C 0.64838 0.18607 0.64997 0.0
H568 H 0.62715 0.05585 0.61456 0.0
C569 C 0.64356 0.21193 0.60523 0.0
H570 H 0.64323 0.10936 0.68764 0.0
C571 C 0.63544 0.1815 0.5635 0.0
C572 C 0.63039 0.12513 0.56654 0.0
H573 H 0.65143 0.25544 0.6021 0.0
H574 H 0.63797 0.20189 0.52882 0.0
C575 C 0.62951 0.09939 0.61176 0.0
C576 C 0.60069 0.93265 0.33185 0.0
C577 C 0.63622 0.95093 0.3702 0.0
H578 H 0.58944 0.88101 0.27073 0.0
C579 C 0.68941 0.93144 0.37542 0.0
H580 H 0.56003 0.94755 0.32653 0.0
C581 C 0.70615 0.89359 0.34397 0.0
C582 C 0.67111 0.87493 0.30563 0.0
H583 H 0.71748 0.9439 0.40527 0.0
H584 H 0.74494 0.87654 0.35147 0.0
C585 C 0.61806 0.89509 0.2997 0.0
C586 C 0.955 0.15592 0.33797 0.0
C587 C 0.90593 0.18198 0.34123 0.0
H588 H 1.01291 0.10966 0.37408 0.0
C589 C 0.87973 0.18447 0.38589 0.0
H590 H 0.97633 0.15371 0.30401 0.0
C591 C 0.90151 0.16006 0.42642 0.0
C592 C 0.9495 0.13222 0.42281 0.0
H593 H 0.84261 0.2055 0.38961 0.0
H594 H 0.87956 0.16152 0.46014 0.0
C595 C 0.97646 0.13124 0.37831 0.0
C596 C 0.61392 0.10515 0.18602 0.0
C597 C 0.669 0.1238 0.20379 0.0
H598 H 0.56333 0.05879 0.1328 0.0
C599 C 0.71547 0.10591 0.18128 0.0
H600 H 0.57656 0.11767 0.20241 0.0
C601 C 0.70739 0.07233 0.14119 0.0
C602 C 0.65249 0.05564 0.12208 0.0
H603 H 0.758 0.11776 0.19447 0.0
H604 H 0.74489 0.0605 0.12448 0.0
C605 C 0.60585 0.07177 0.14566 0.0
C606 C 0.63824 0.85448 0.8463 0.0
C607 C 0.68023 0.82197 0.86114 0.0
H608 H 0.57814 0.90724 0.86773 0.0
C609 C 0.68433 0.80819 0.90991 0.0
H610 H 0.63487 0.86637 0.80884 0.0
C611 C 0.65145 0.8313 0.94372 0.0
C612 C 0.61485 0.86967 0.9295 0.0
H613 H 0.71674 0.78391 0.92239 0.0
H614 H 0.65923 0.82349 -0.0185 0.0
C615 C 0.60565 0.878 0.88011 0.0
C616 C 0.93522 0.89891 0.61632 0.0
C617 C 0.96672 0.94964 0.62376 0.0
H618 H 0.87737 0.83564 0.64702 0.0
C619 C 0.98043 0.96469 0.6712 0.0
H620 H 0.92318 0.88649 0.5801 0.0
C621 C 0.95502 0.93471 0.70985 0.0
C622 C 0.91443 0.88978 0.70175 0.0
H623 H 1.00377 0.0037 0.6783 0.0
H624 H 0.96046 0.95156 0.7455 0.0
C625 C 0.90877 0.86939 0.65496 0.0
C626 C 0.19095 0.8971 0.82503 0.0
C627 C 0.21642 0.85813 0.85216 0.0
H628 H 0.13015 0.95463 0.82511 0.0
C629 C 0.21213 0.85733 0.90223 0.0
H630 H 0.19293 0.89753 0.78614 0.0
C631 C 0.17765 0.89094 0.92439 0.0
C632 C 0.14585 0.92446 0.89661 0.0
H633 H 0.23055 0.82699 0.92361 0.0
H634 H 0.17058 0.886 0.96264 0.0
C635 C 0.15492 0.92962 0.84713 0.0
C636 C 0.89338 0.40674 0.62297 0.0
C637 C 0.91707 0.4032 0.5775 0.0
H638 H 0.86466 0.36317 0.68642 0.0
C639 C 0.9184 0.35265 0.55669 0.0
H640 H 0.89216 0.4456 0.63945 0.0
C641 C 0.89934 0.30582 0.58219 0.0
C642 C 0.87946 0.30883 0.62914 0.0
H643 H 0.93585 0.34936 0.52122 0.0
H644 H 0.904 0.26711 0.56657 0.0
C645 C 0.87585 0.35964 0.64917 0.0
C646 C 0.47929 0.13521 0.36778 0.0
C647 C 0.45371 0.13356 0.41294 0.0
H648 H 0.47171 0.15844 0.29386 0.0
C649 C 0.41172 0.16725 0.42192 0.0
H650 H 0.51202 0.10975 0.36025 0.0
C651 C 0.38984 0.19629 0.38427 0.0
C652 C 0.40896 0.19044 0.33747 0.0
H653 H 0.3921 0.167 0.45685 0.0
H654 H 0.35317 0.21721 0.39071 0.0
C655 C 0.45641 0.1631 0.32989 0.0
C656 C 0.71181 0.61332 0.08585 0.0
C657 C 0.67465 0.62139 0.04759 0.0
H658 H 0.74176 0.641 0.1549 0.0
C659 C 0.65269 0.67087 0.04206 0.0
H660 H 0.72866 0.57505 0.09072 0.0
C661 C 0.66256 0.70958 0.07756 0.0
C662 C 0.69329 0.69843 0.1192 0.0
H663 H 0.62396 0.6776 0.01252 0.0
H664 H 0.64019 0.74503 0.07536 0.0
C665 C 0.72032 0.65151 0.12205 0.0
C666 C 0.2349 0.15951 0.61718 0.0
C667 C 0.20053 0.20128 0.62098 0.0
H668 H 0.24517 0.08506 0.58276 0.0
C669 C 0.16121 0.20927 0.58421 0.0
H670 H 0.26495 0.15232 0.64546 0.0
C671 C 0.14808 0.16982 0.54986 0.0
C672 C 0.17584 0.12327 0.551 0.0
H673 H 0.13441 0.24145 0.5865 0.0
H674 H 0.11296 0.17346 0.52515 0.0
C675 C 0.22259 0.12038 0.58201 0.0
C676 C 0.70882 0.3587 0.40128 0.0
C677 C 0.71141 0.35577 0.35125 0.0
H678 H 0.66887 0.39139 0.4607 0.0
C679 C 0.68313 0.39134 0.32243 0.0
H680 H 0.72947 0.33101 0.42401 0.0
C681 C 0.64676 0.42443 0.34325 0.0
C682 C 0.64014 0.42354 0.39312 0.0
H683 H 0.68383 0.3889 0.2836 0.0
H684 H 0.62015 0.4467 0.32033 0.0
C685 C 0.67414 0.3932 0.42211 0.0
C686 C 0.39045 0.90779 0.11925 0.0
C687 C 0.41075 0.90124 0.07301 0.0
H688 H 0.3664 0.86847 0.18583 0.0
C689 C 0.41172 0.84949 0.05465 0.0
H690 H 0.38973 0.94771 0.13375 0.0
C691 C 0.39579 0.80438 0.08342 0.0
C692 C 0.3791 0.81063 0.13089 0.0
H693 H 0.42691 0.84406 0.0187 0.0
H694 H 0.40033 0.76472 0.06975 0.0
C695 C 0.37554 0.86255 0.14844 0.0
C696 C 0.97759 0.63173 0.86799 0.0
C697 C 0.95346 0.63068 0.91369 0.0
H698 H 0.96768 0.65408 0.79409 0.0
C699 C 0.91187 0.66458 0.92338 0.0
H700 H 1.00987 0.60598 0.85989 0.0
C701 C 0.88872 0.69307 0.88601 0.0
C702 C 0.90629 0.68655 0.83884 0.0
H703 H 0.89327 0.66462 0.95872 0.0
H704 H 0.85236 0.71417 0.8931 0.0
C705 C 0.95347 0.65911 0.83042 0.0
C706 C 0.4821 0.46637 0.17015 0.0
C707 C 0.46987 0.45201 0.12233 0.0
H708 H 0.45977 0.45194 0.24378 0.0
C709 C 0.43989 0.40083 0.1137 0.0
H710 H 0.50451 0.50556 0.17813 0.0
C711 C 0.41251 0.37047 0.15144 0.0
C712 C 0.41595 0.3905 0.1984 0.0
H713 H 0.4293 0.38876 0.07712 0.0
H714 H 0.3819 0.3364 0.14254 0.0
C715 C 0.45592 0.4355 0.20791 0.0
C716 C 0.40064 0.65926 0.92295 0.0
C717 C 0.44797 0.63057 0.91923 0.0
H718 H 0.34396 0.70746 0.88681 0.0
C719 C 0.47681 0.63183 0.87545 0.0
H720 H 0.37742 0.65928 0.95616 0.0
C721 C 0.45755 0.65934 0.8357 0.0
C722 C 0.40872 0.68578 0.8389 0.0
H723 H 0.51295 0.60987 0.87125 0.0
H724 H 0.47996 0.65851 0.80212 0.0
C725 C 0.38102 0.68635 0.88307 0.0
C726 C 0.18248 0.54162 0.66685 0.0
C727 C 0.14751 0.55402 0.62757 0.0
H728 H 0.22175 0.56693 0.73435 0.0
C729 C 0.12676 0.60436 0.62658 0.0
H730 H 0.20013 0.50349 0.6683 0.0
C731 C 0.14092 0.64126 0.66369 0.0
C732 C 0.17646 0.62902 0.70252 0.0
H733 H 0.10158 0.61612 0.59628 0.0
H734 H 0.12339 0.67946 0.66241 0.0
C735 C 0.19636 0.57841 0.70406 0.0
C736 C 0.39662 0.43058 0.62875 0.0
C737 C 0.35278 0.38798 0.633 0.0
H738 H 0.46542 0.46267 0.58619 0.0
C739 C 0.32691 0.36592 0.59091 0.0
H740 H 0.41703 0.44883 0.66056 0.0
C741 C 0.35186 0.37907 0.54626 0.0
C742 C 0.40314 0.41342 0.5437 0.0
H743 H 0.2927 0.3333 0.5929 0.0
H744 H 0.33562 0.35667 0.515 0.0
C745 C 0.42355 0.44087 0.58503 0.0
C746 C 0.11808 0.64481 0.14503 0.0
C747 C 0.15545 0.6925 0.14313 0.0
H748 H 0.08558 0.57331 0.10745 0.0
C749 C 0.17896 0.71086 0.0992 0.0
H750 H 0.1 0.63004 0.17891 0.0
C751 C 0.16928 0.67959 0.05832 0.0
C752 C 0.13638 0.6293 0.06094 0.0
H753 H 0.20787 0.74771 0.09722 0.0
H754 H 0.19179 0.69238 0.02576 0.0
C755 C 0.10886 0.61301 0.10399 0.0
C756 C 0.71959 0.37221 0.61864 0.0
C757 C 0.71735 0.39511 0.66429 0.0
H758 H 0.68384 0.3656 0.54774 0.0
C759 C 0.68437 0.43812 0.66973 0.0
H760 H 0.74429 0.33905 0.61291 0.0
C761 C 0.64969 0.45362 0.63196 0.0
C762 C 0.64684 0.42587 0.58835 0.0
H763 H 0.68172 0.45673 0.70442 0.0
H764 H 0.62196 0.48429 0.63818 0.0
C765 C 0.68415 0.3869 0.58136 0.0
C766 C 0.86574 0.63403 0.12507 0.0
C767 C 0.89295 0.64797 0.1687 0.0
H768 H 0.8638 0.58613 0.06204 0.0
C769 C 0.94162 0.62317 0.18201 0.0
H770 H 0.83133 0.65517 0.11206 0.0
C771 C 0.96224 0.58504 0.15229 0.0
C772 C 0.93424 0.57093 0.10894 0.0
H773 H 0.96444 0.63412 0.21506 0.0
H774 H 0.99952 0.56653 0.16325 0.0
C775 C 0.88561 0.59553 0.09588 0.0
C776 C 0.92459 0.69034 0.54748 0.0
C777 C 0.95968 0.65082 0.56207 0.0
H778 H 0.86037 0.73939 0.56799 0.0
C779 C 0.96749 0.64189 0.61155 0.0
H780 H 0.91788 0.69861 0.50963 0.0
C781 C 0.93498 0.66615 0.64496 0.0
C782 C 0.89432 0.69989 0.62962 0.0
H783 H 0.99363 0.61166 0.62423 0.0
H784 H 0.93717 0.65384 0.6824 0.0
C785 C 0.89173 0.71415 0.58088 0.0
C786 C 0.38592 0.6304 0.40251 0.0
C787 C 0.42358 0.59191 0.39489 0.0
H788 H 0.32447 0.67732 0.37185 0.0
C789 C 0.41962 0.56354 0.35158 0.0
H790 H 0.3869 0.65196 0.43603 0.0
C791 C 0.3838 0.57838 0.31439 0.0
C792 C 0.35087 0.62131 0.32019 0.0
H793 H 0.44742 0.53303 0.345 0.0
H794 H 0.38586 0.55967 0.27968 0.0
C795 C 0.34928 0.64432 0.36584 0.0
C796 C 0.20332 0.41421 0.8167 0.0
C797 C 0.17006 0.36449 0.81135 0.0
H798 H 0.21173 0.49177 0.84937 0.0
C799 C 0.1164 0.35688 0.8333 0.0
H800 H 0.24432 0.42175 0.79977 0.0
C801 C 0.09774 0.39664 0.86184 0.0
C802 C 0.13165 0.44567 0.86878 0.0
H803 H 0.08941 0.31902 0.83018 0.0
H804 H 0.0583 0.38745 0.88075 0.0
C805 C 0.18412 0.45451 0.84475 0.0
C806 C 0.14213 0.36153 0.3444 0.0
C807 C 0.18263 0.32688 0.35813 0.0
H808 H 0.08429 0.41569 0.36751 0.0
C809 C 0.18618 0.31121 0.40647 0.0
H810 H 0.13918 0.37484 0.30728 0.0
C811 C 0.15441 0.33446 0.44106 0.0
C812 C 0.11931 0.37457 0.42805 0.0
H813 H 0.21746 0.28527 0.41812 0.0
H814 H 0.16186 0.32509 0.4786 0.0
C815 C 0.11055 0.385 0.37896 0.0
loop_
_geom_bond_atom_site_label_1
_geom_bond_atom_site_label_2
_geom_bond_distance
_geom_bond_site_symmetry_2
_ccdc_geom_bond_type
O0 Mn1 2.163 1_656 S
O0 C14 1.244 . S
Mn1 O0 2.163 1_454 S
Mn1 O4 2.160 1_545 S
Mn1 O5 2.221 1_445 S
Mn1 O7 2.163 1_544 S
Mn1 O9 2.160 1_455 S
Mn1 O19 2.221 1_554 S
O2 Mn3 2.087 1_655 S
O2 C14 1.256 . S
Mn3 O2 2.087 1_455 S
Mn3 O10 2.089 1_456 S
Mn3 O19 2.290 . S
Mn3 O20 2.251 . S
O4 Mn1 2.160 1_565 S
O4 C15 1.239 . S
O5 Mn1 2.221 1_665 S
O5 Mn6 2.290 1_655 S
O5 C16 1.278 . S
Mn6 O5 2.290 1_455 S
Mn6 O8 2.089 . S
Mn6 O11 2.251 1_455 S
Mn6 O12 2.087 1_554 S
O7 Mn1 2.163 1_566 S
O7 C17 1.244 . S
O8 Mn6 2.089 . S
O8 C15 1.256 . S
O9 Mn1 2.160 1_655 S
O9 C18 1.239 . S
O10 Mn3 2.089 1_654 S
O10 C18 1.256 . S
O11 Mn6 2.251 1_655 S
O11 C16 1.241 . S
O12 Mn6 2.087 1_556 S
O12 C17 1.256 . S
C13 O19 1.278 . S
C13 O20 1.241 . S
C14 O0 1.244 . S
C14 O2 1.256 . S
C15 O4 1.239 . S
C15 O8 1.256 . S
C16 O5 1.278 . S
C16 O11 1.241 . S
C17 O7 1.244 . S
C17 O12 1.256 . S
C18 O9 1.239 . S
C18 O10 1.256 . S
O19 Mn1 2.221 1_556 S
O19 Mn3 2.290 . S
O19 C13 1.278 . S
O20 Mn3 2.251 . S
O20 C13 1.241 . S
O21 Mn22 2.163 . S
O21 C35 1.244 . S
Mn22 O21 2.163 . S
Mn22 O25 2.160 . S
Mn22 O26 2.221 . S
Mn22 O28 2.163 . S
Mn22 O30 2.160 . S
Mn22 O40 2.221 . S
O23 Mn24 2.087 . S
O23 C35 1.256 . S
Mn24 O23 2.087 . S
Mn24 O31 2.089 . S
Mn24 O40 2.290 . S
Mn24 O41 2.251 . S
O25 Mn22 2.160 . S
O25 C36 1.239 . S
O26 Mn22 2.221 . S
O26 Mn27 2.290 . S
O26 C37 1.278 . S
Mn27 O26 2.290 . S
Mn27 O29 2.089 . S
Mn27 O32 2.251 . S
Mn27 O33 2.087 . S
O28 Mn22 2.163 . S
O28 C38 1.244 . S
O29 Mn27 2.089 . S
O29 C36 1.256 . S
O30 Mn22 2.160 . S
O30 C39 1.239 . S
O31 Mn24 2.089 . S
O31 C39 1.256 . S
O32 Mn27 2.251 . S
O32 C37 1.241 . S
O33 Mn27 2.087 . S
O33 C38 1.256 . S
C34 O40 1.278 . S
C34 O41 1.241 . S
C35 O21 1.244 . S
C35 O23 1.256 . S
C36 O25 1.239 . S
C36 O29 1.256 . S
C37 O26 1.278 . S
C37 O32 1.241 . S
C38 O28 1.244 . S
C38 O33 1.256 . S
C39 O30 1.239 . S
C39 O31 1.256 . S
O40 Mn22 2.221 . S
O40 Mn24 2.290 . S
O40 C34 1.278 . S
O41 Mn24 2.251 . S
O41 C34 1.241 . S
O42 Mn43 2.163 1_565 S
O42 C56 1.244 . S
Mn43 O42 2.163 1_545 S
Mn43 O46 2.160 . S
Mn43 O47 2.221 1_545 S
Mn43 O49 2.163 . S
Mn43 O51 2.160 1_545 S
Mn43 O61 2.221 . S
O44 Mn45 2.087 1_565 S
O44 C56 1.256 . S
Mn45 O44 2.087 1_545 S
Mn45 O52 2.089 1_545 S
Mn45 O61 2.290 . S
Mn45 O62 2.251 . S
O46 Mn43 2.160 . S
O46 C57 1.239 . S
O47 Mn43 2.221 1_565 S
O47 Mn48 2.290 1_565 S
O47 C58 1.278 . S
Mn48 O47 2.290 1_545 S
Mn48 O50 2.089 . S
Mn48 O53 2.251 1_545 S
Mn48 O54 2.087 . S
O49 Mn43 2.163 . S
O49 C59 1.244 . S
O50 Mn48 2.089 . S
O50 C57 1.256 . S
O51 Mn43 2.160 1_565 S
O51 C60 1.239 . S
O52 Mn45 2.089 1_565 S
O52 C60 1.256 . S
O53 Mn48 2.251 1_565 S
O53 C58 1.241 . S
O54 Mn48 2.087 . S
O54 C59 1.256 . S
C55 O61 1.278 . S
C55 O62 1.241 . S
C56 O42 1.244 . S
C56 O44 1.256 . S
C57 O46 1.239 . S
C57 O50 1.256 . S
C58 O47 1.278 . S
C58 O53 1.241 . S
C59 O49 1.244 . S
C59 O54 1.256 . S
C60 O51 1.239 . S
C60 O52 1.256 . S
O61 Mn43 2.221 . S
O61 Mn45 2.290 . S
O61 C55 1.278 . S
O62 Mn45 2.251 . S
O62 C55 1.241 . S
O63 Mn64 2.163 . S
O63 C77 1.244 . S
Mn64 O63 2.163 . S
Mn64 O67 2.160 . S
Mn64 O68 2.221 . S
Mn64 O70 2.163 . S
Mn64 O72 2.160 . S
Mn64 O82 2.221 . S
O65 Mn66 2.087 . S
O65 C77 1.256 . S
Mn66 O65 2.087 . S
Mn66 O73 2.089 . S
Mn66 O82 2.290 . S
Mn66 O83 2.251 . S
O67 Mn64 2.160 . S
O67 C78 1.239 . S
O68 Mn64 2.221 . S
O68 Mn69 2.290 . S
O68 C79 1.278 . S
Mn69 O68 2.290 . S
Mn69 O71 2.089 . S
Mn69 O74 2.251 . S
Mn69 O75 2.087 . S
O70 Mn64 2.163 . S
O70 C80 1.244 . S
O71 Mn69 2.089 . S
O71 C78 1.256 . S
O72 Mn64 2.160 . S
O72 C81 1.239 . S
O73 Mn66 2.089 . S
O73 C81 1.256 . S
O74 Mn69 2.251 . S
O74 C79 1.241 . S
O75 Mn69 2.087 . S
O75 C80 1.256 . S
C76 O82 1.278 . S
C76 O83 1.241 . S
C77 O63 1.244 . S
C77 O65 1.256 . S
C78 O67 1.239 . S
C78 O71 1.256 . S
C79 O68 1.278 . S
C79 O74 1.241 . S
C80 O70 1.244 . S
C80 O75 1.256 . S
C81 O72 1.239 . S
C81 O73 1.256 . S
O82 Mn64 2.221 . S
O82 Mn66 2.290 . S
O82 C76 1.278 . S
O83 Mn66 2.251 . S
O83 C76 1.241 . S
O84 Mn85 2.163 1_545 S
O84 C98 1.244 . S
Mn85 O84 2.163 1_565 S
Mn85 O88 2.160 1_455 S
Mn85 O89 2.221 1_455 S
Mn85 O91 2.163 1_465 S
Mn85 O93 2.160 . S
Mn85 O103 2.221 1_565 S
O86 Mn87 2.087 . S
O86 C98 1.256 . S
Mn87 O86 2.087 . S
Mn87 O94 2.089 1_545 S
Mn87 O103 2.290 . S
Mn87 O104 2.251 . S
O88 Mn85 2.160 1_655 S
O88 C99 1.239 . S
O89 Mn85 2.221 1_655 S
O89 Mn90 2.290 . S
O89 C100 1.278 . S
Mn90 O89 2.290 . S
Mn90 O92 2.089 . S
Mn90 O95 2.251 . S
Mn90 O96 2.087 1_565 S
O91 Mn85 2.163 1_645 S
O91 C101 1.244 . S
O92 Mn90 2.089 . S
O92 C99 1.256 . S
O93 Mn85 2.160 . S
O93 C102 1.239 . S
O94 Mn87 2.089 1_565 S
O94 C102 1.256 . S
O95 Mn90 2.251 . S
O95 C100 1.241 . S
O96 Mn90 2.087 1_545 S
O96 C101 1.256 . S
C97 O103 1.278 . S
C97 O104 1.241 . S
C98 O84 1.244 . S
C98 O86 1.256 . S
C99 O88 1.239 . S
C99 O92 1.256 . S
C100 O89 1.278 . S
C100 O95 1.241 . S
C101 O91 1.244 . S
C101 O96 1.256 . S
C102 O93 1.239 . S
C102 O94 1.256 . S
O103 Mn85 2.221 1_545 S
O103 Mn87 2.290 . S
O103 C97 1.278 . S
O104 Mn87 2.251 . S
O104 C97 1.241 . S
O105 Mn106 2.163 . S
O105 C119 1.244 . S
Mn106 O105 2.163 . S
Mn106 O109 2.160 . S
Mn106 O110 2.221 . S
Mn106 O112 2.163 . S
Mn106 O114 2.160 . S
Mn106 O124 2.221 . S
O107 Mn108 2.087 . S
O107 C119 1.256 . S
Mn108 O107 2.087 . S
Mn108 O115 2.089 . S
Mn108 O124 2.290 . S
Mn108 O125 2.251 . S
O109 Mn106 2.160 . S
O109 C120 1.239 . S
O110 Mn106 2.221 . S
O110 Mn111 2.290 . S
O110 C121 1.278 . S
Mn111 O110 2.290 . S
Mn111 O113 2.089 . S
Mn111 O116 2.251 . S
Mn111 O117 2.087 . S
O112 Mn106 2.163 . S
O112 C122 1.244 . S
O113 Mn111 2.089 . S
O113 C120 1.256 . S
O114 Mn106 2.160 . S
O114 C123 1.239 . S
O115 Mn108 2.089 . S
O115 C123 1.256 . S
O116 Mn111 2.251 . S
O116 C121 1.241 . S
O117 Mn111 2.087 . S
O117 C122 1.256 . S
C118 O124 1.278 . S
C118 O125 1.241 . S
C119 O105 1.244 . S
C119 O107 1.256 . S
C120 O109 1.239 . S
C120 O113 1.256 . S
C121 O110 1.278 . S
C121 O116 1.241 . S
C122 O112 1.244 . S
C122 O117 1.256 . S
C123 O114 1.239 . S
C123 O115 1.256 . S
O124 Mn106 2.221 . S
O124 Mn108 2.290 . S
O124 C118 1.278 . S
O125 Mn108 2.251 . S
O125 C118 1.241 . S
O126 Mn127 2.163 1_565 S
O126 C140 1.244 . S
Mn127 O126 2.163 1_545 S
Mn127 O130 2.160 1_554 S
Mn127 O131 2.221 . S
Mn127 O133 2.163 1_544 S
Mn127 O135 2.160 . S
Mn127 O145 2.221 1_544 S
O128 Mn129 2.087 . S
O128 C140 1.256 . S
Mn129 O128 2.087 . S
Mn129 O136 2.089 1_565 S
Mn129 O145 2.290 1_554 S
Mn129 O146 2.251 1_554 S
O130 Mn127 2.160 1_556 S
O130 C141 1.239 . S
O131 Mn127 2.221 . S
O131 Mn132 2.290 . S
O131 C142 1.278 . S
Mn132 O131 2.290 . S
Mn132 O134 2.089 1_554 S
Mn132 O137 2.251 . S
Mn132 O138 2.087 1_545 S
O133 Mn127 2.163 1_566 S
O133 C143 1.244 . S
O134 Mn132 2.089 1_556 S
O134 C141 1.256 . S
O135 Mn127 2.160 . S
O135 C144 1.239 . S
O136 Mn129 2.089 1_545 S
O136 C144 1.256 . S
O137 Mn132 2.251 . S
O137 C142 1.241 . S
O138 Mn132 2.087 1_565 S
O138 C143 1.256 1_554 S
C139 O145 1.278 . S
C139 O146 1.241 . S
C140 O126 1.244 . S
C140 O128 1.256 . S
C141 O130 1.239 . S
C141 O134 1.256 . S
C142 O131 1.278 . S
C142 O137 1.241 . S
C143 O133 1.244 . S
C143 O138 1.256 1_556 S
C144 O135 1.239 . S
C144 O136 1.256 . S
O145 Mn127 2.221 1_566 S
O145 Mn129 2.290 1_556 S
O145 C139 1.278 . S
O146 Mn129 2.251 1_556 S
O146 C139 1.241 . S
O147 Mn148 2.163 . S
O147 C161 1.244 . S
Mn148 O147 2.163 . S
Mn148 O151 2.160 . S
Mn148 O152 2.221 . S
Mn148 O154 2.163 . S
Mn148 O156 2.160 . S
Mn148 O166 2.221 . S
O149 Mn150 2.087 . S
O149 C161 1.256 . S
Mn150 O149 2.087 . S
Mn150 O157 2.089 . S
Mn150 O166 2.290 . S
Mn150 O167 2.251 . S
O151 Mn148 2.160 . S
O151 C162 1.239 . S
O152 Mn148 2.221 . S
O152 Mn153 2.290 . S
O152 C163 1.278 . S
Mn153 O152 2.290 . S
Mn153 O155 2.089 . S
Mn153 O158 2.251 . S
Mn153 O159 2.087 . S
O154 Mn148 2.163 . S
O154 C164 1.244 . S
O155 Mn153 2.089 . S
O155 C162 1.256 . S
O156 Mn148 2.160 . S
O156 C165 1.239 . S
O157 Mn150 2.089 . S
O157 C165 1.256 . S
O158 Mn153 2.251 . S
O158 C163 1.241 . S
O159 Mn153 2.087 . S
O159 C164 1.256 . S
C160 O166 1.278 . S
C160 O167 1.241 . S
C161 O147 1.244 . S
C161 O149 1.256 . S
C162 O151 1.239 . S
C162 O155 1.256 . S
C163 O152 1.278 . S
C163 O158 1.241 . S
C164 O154 1.244 . S
C164 O159 1.256 . S
C165 O156 1.239 . S
C165 O157 1.256 . S
O166 Mn148 2.221 . S
O166 Mn150 2.290 . S
O166 C160 1.278 . S
O167 Mn150 2.251 . S
O167 C160 1.241 . S
O168 Mn169 2.161 1_554 S
O168 C182 1.244 . S
Mn169 O168 2.161 1_556 S
Mn169 O172 2.162 . S
Mn169 O173 2.220 1_556 S
Mn169 O175 2.164 . S
Mn169 O177 2.159 1_556 S
Mn169 O187 2.223 . S
O170 Mn171 2.087 . S
O170 C182 1.256 . S
Mn171 O170 2.087 . S
Mn171 O178 2.089 . S
Mn171 O187 2.290 1_554 S
Mn171 O188 2.251 1_554 S
O172 Mn169 2.162 . S
O172 C183 1.239 . S
O173 Mn169 2.220 1_554 S
O173 Mn174 2.290 1_554 S
O173 C184 1.278 . S
Mn174 O173 2.290 1_556 S
Mn174 O176 2.089 . S
Mn174 O179 2.251 1_556 S
Mn174 O180 2.087 . S
O175 Mn169 2.164 . S
O175 C185 1.244 . S
O176 Mn174 2.089 . S
O176 C183 1.256 . S
O177 Mn169 2.159 1_554 S
O177 C186 1.239 . S
O178 Mn171 2.089 . S
O178 C186 1.256 . S
O179 Mn174 2.251 1_554 S
O179 C184 1.241 . S
O180 Mn174 2.087 . S
O180 C185 1.256 . S
C181 O187 1.278 . S
C181 O188 1.241 . S
C182 O168 1.244 . S
C182 O170 1.256 . S
C183 O172 1.239 . S
C183 O176 1.256 . S
C184 O173 1.278 . S
C184 O179 1.241 . S
C185 O175 1.244 . S
C185 O180 1.256 . S
C186 O177 1.239 . S
C186 O178 1.256 . S
O187 Mn169 2.223 . S
O187 Mn171 2.290 1_556 S
O187 C181 1.278 . S
O188 Mn171 2.251 1_556 S
O188 C181 1.241 . S
O189 Mn190 2.163 . S
O189 C203 1.244 . S
Mn190 O189 2.163 . S
Mn190 O193 2.160 . S
Mn190 O194 2.221 . S
Mn190 O196 2.163 . S
Mn190 O198 2.160 . S
Mn190 O208 2.221 . S
O191 Mn192 2.087 . S
O191 C203 1.256 . S
Mn192 O191 2.087 . S
Mn192 O199 2.089 . S
Mn192 O208 2.290 . S
Mn192 O209 2.251 . S
O193 Mn190 2.160 . S
O193 C204 1.239 . S
O194 Mn190 2.221 . S
O194 Mn195 2.290 . S
O194 C205 1.278 . S
Mn195 O194 2.290 . S
Mn195 O197 2.089 . S
Mn195 O200 2.251 . S
Mn195 O201 2.087 . S
O196 Mn190 2.163 . S
O196 C206 1.244 . S
O197 Mn195 2.089 . S
O197 C204 1.256 . S
O198 Mn190 2.160 . S
O198 C207 1.239 . S
O199 Mn192 2.089 . S
O199 C207 1.256 . S
O200 Mn195 2.251 . S
O200 C205 1.241 . S
O201 Mn195 2.087 . S
O201 C206 1.256 . S
C202 O208 1.278 . S
C202 O209 1.241 . S
C203 O189 1.244 . S
C203 O191 1.256 . S
C204 O193 1.239 . S
C204 O197 1.256 . S
C205 O194 1.278 . S
C205 O200 1.241 . S
C206 O196 1.244 . S
C206 O201 1.256 . S
C207 O198 1.239 . S
C207 O199 1.256 . S
O208 Mn190 2.221 . S
O208 Mn192 2.290 . S
O208 C202 1.278 . S
O209 Mn192 2.251 . S
O209 C202 1.241 . S
O210 Mn211 2.163 1_655 S
O210 C224 1.244 . S
Mn211 O210 2.163 1_455 S
Mn211 O214 2.160 . S
Mn211 O215 2.221 . S
Mn211 O217 2.163 . S
Mn211 O219 2.160 1_455 S
Mn211 O229 2.221 1_455 S
O212 Mn213 2.087 . S
O212 C224 1.256 . S
Mn213 O212 2.087 . S
Mn213 O220 2.089 . S
Mn213 O229 2.290 . S
Mn213 O230 2.251 . S
O214 Mn211 2.160 . S
O214 C225 1.239 . S
O215 Mn211 2.221 . S
O215 Mn216 2.290 . S
O215 C226 1.278 . S
Mn216 O215 2.290 . S
Mn216 O218 2.089 . S
Mn216 O221 2.251 . S
Mn216 O222 2.087 . S
O217 Mn211 2.163 . S
O217 C227 1.244 . S
O218 Mn216 2.089 . S
O218 C225 1.256 . S
O219 Mn211 2.160 1_655 S
O219 C228 1.239 . S
O220 Mn213 2.089 . S
O220 C228 1.256 . S
O221 Mn216 2.251 . S
O221 C226 1.241 . S
O222 Mn216 2.087 . S
O222 C227 1.256 . S
C223 O229 1.278 . S
C223 O230 1.241 . S
C224 O210 1.244 . S
C224 O212 1.256 . S
C225 O214 1.239 . S
C225 O218 1.256 . S
C226 O215 1.278 . S
C226 O221 1.241 . S
C227 O217 1.244 . S
C227 O222 1.256 . S
C228 O219 1.239 . S
C228 O220 1.256 . S
O229 Mn211 2.221 1_655 S
O229 Mn213 2.290 . S
O229 C223 1.278 . S
O230 Mn213 2.251 . S
O230 C223 1.241 . S
O231 Mn232 2.163 . S
O231 C245 1.244 . S
Mn232 O231 2.163 . S
Mn232 O235 2.160 . S
Mn232 O236 2.221 . S
Mn232 O238 2.163 . S
Mn232 O240 2.160 . S
Mn232 O250 2.221 . S
O233 Mn234 2.087 . S
O233 C245 1.256 . S
Mn234 O233 2.087 . S
Mn234 O241 2.089 . S
Mn234 O250 2.290 . S
Mn234 O251 2.251 . S
O235 Mn232 2.160 . S
O235 C246 1.239 . S
O236 Mn232 2.221 . S
O236 Mn237 2.290 . S
O236 C247 1.278 . S
Mn237 O236 2.290 . S
Mn237 O239 2.089 . S
Mn237 O242 2.251 . S
Mn237 O243 2.087 . S
O238 Mn232 2.163 . S
O238 C248 1.244 . S
O239 Mn237 2.089 . S
O239 C246 1.256 . S
O240 Mn232 2.160 . S
O240 C249 1.239 . S
O241 Mn234 2.089 . S
O241 C249 1.256 . S
O242 Mn237 2.251 . S
O242 C247 1.241 . S
O243 Mn237 2.087 . S
O243 C248 1.256 . S
C244 O250 1.278 . S
C244 O251 1.241 . S
C245 O231 1.244 . S
C245 O233 1.256 . S
C246 O235 1.239 . S
C246 O239 1.256 . S
C247 O236 1.278 . S
C247 O242 1.241 . S
C248 O238 1.244 . S
C248 O243 1.256 . S
C249 O240 1.239 . S
C249 O241 1.256 . S
O250 Mn232 2.221 . S
O250 Mn234 2.290 . S
O250 C244 1.278 . S
O251 Mn234 2.251 . S
O251 C244 1.241 . S
O252 Mn253 2.163 . S
O252 C266 1.244 . S
Mn253 O252 2.163 . S
Mn253 O256 2.160 . S
Mn253 O257 2.221 . S
Mn253 O259 2.163 . S
Mn253 O261 2.160 . S
Mn253 O271 2.221 . S
O254 Mn255 2.087 . S
O254 C266 1.256 . S
Mn255 O254 2.087 . S
Mn255 O262 2.089 . S
Mn255 O271 2.290 . S
Mn255 O272 2.251 . S
O256 Mn253 2.160 . S
O256 C267 1.239 . S
O257 Mn253 2.221 . S
O257 Mn258 2.290 . S
O257 C268 1.278 . S
Mn258 O257 2.290 . S
Mn258 O260 2.089 . S
Mn258 O263 2.251 . S
Mn258 O264 2.087 . S
O259 Mn253 2.163 . S
O259 C269 1.244 . S
O260 Mn258 2.089 . S
O260 C267 1.256 . S
O261 Mn253 2.160 . S
O261 C270 1.239 . S
O262 Mn255 2.089 . S
O262 C270 1.256 . S
O263 Mn258 2.251 . S
O263 C268 1.241 . S
O264 Mn258 2.087 . S
O264 C269 1.256 . S
C265 O271 1.278 . S
C265 O272 1.241 . S
C266 O252 1.244 . S
C266 O254 1.256 . S
C267 O256 1.239 . S
C267 O260 1.256 . S
C268 O257 1.278 . S
C268 O263 1.241 . S
C269 O259 1.244 . S
C269 O264 1.256 . S
C270 O261 1.239 . S
C270 O262 1.256 . S
O271 Mn253 2.221 . S
O271 Mn255 2.290 . S
O271 C265 1.278 . S
O272 Mn255 2.251 . S
O272 C265 1.241 . S
O273 Mn274 2.163 . S
O273 C287 1.244 . S
Mn274 O273 2.163 . S
Mn274 O277 2.160 . S
Mn274 O278 2.221 . S
Mn274 O280 2.163 . S
Mn274 O282 2.160 . S
Mn274 O292 2.221 . S
O275 Mn276 2.087 . S
O275 C287 1.256 . S
Mn276 O275 2.087 . S
Mn276 O283 2.089 . S
Mn276 O292 2.290 . S
Mn276 O293 2.251 . S
O277 Mn274 2.160 . S
O277 C288 1.239 . S
O278 Mn274 2.221 . S
O278 Mn279 2.290 . S
O278 C289 1.278 . S
Mn279 O278 2.290 . S
Mn279 O281 2.089 . S
Mn279 O284 2.251 . S
Mn279 O285 2.087 . S
O280 Mn274 2.163 . S
O280 C290 1.244 . S
O281 Mn279 2.089 . S
O281 C288 1.256 . S
O282 Mn274 2.160 . S
O282 C291 1.239 . S
O283 Mn276 2.089 . S
O283 C291 1.256 . S
O284 Mn279 2.251 . S
O284 C289 1.241 . S
O285 Mn279 2.087 . S
O285 C290 1.256 . S
C286 O292 1.278 . S
C286 O293 1.241 . S
C287 O273 1.244 . S
C287 O275 1.256 . S
C288 O277 1.239 . S
C288 O281 1.256 . S
C289 O278 1.278 . S
C289 O284 1.241 . S
C290 O280 1.244 . S
C290 O285 1.256 . S
C291 O282 1.239 . S
C291 O283 1.256 . S
O292 Mn274 2.221 . S
O292 Mn276 2.290 . S
O292 C286 1.278 . S
O293 Mn276 2.251 . S
O293 C286 1.241 . S
O294 Mn295 2.163 . S
O294 C308 1.244 . S
Mn295 O294 2.163 . S
Mn295 O298 2.160 . S
Mn295 O299 2.221 . S
Mn295 O301 2.163 . S
Mn295 O303 2.160 . S
Mn295 O313 2.221 . S
O296 Mn297 2.087 . S
O296 C308 1.256 . S
Mn297 O296 2.087 . S
Mn297 O304 2.089 . S
Mn297 O313 2.290 . S
Mn297 O314 2.251 . S
O298 Mn295 2.160 . S
O298 C309 1.239 . S
O299 Mn295 2.221 . S
O299 Mn300 2.290 . S
O299 C310 1.278 . S
Mn300 O299 2.290 . S
Mn300 O302 2.089 . S
Mn300 O305 2.251 . S
Mn300 O306 2.087 . S
O301 Mn295 2.163 . S
O301 C311 1.244 . S
O302 Mn300 2.089 . S
O302 C309 1.256 . S
O303 Mn295 2.160 . S
O303 C312 1.239 . S
O304 Mn297 2.089 . S
O304 C312 1.256 . S
O305 Mn300 2.251 . S
O305 C310 1.241 . S
O306 Mn300 2.087 . S
O306 C311 1.256 . S
C307 O313 1.278 . S
C307 O314 1.241 . S
C308 O294 1.244 . S
C308 O296 1.256 . S
C309 O298 1.239 . S
C309 O302 1.256 . S
C310 O299 1.278 . S
C310 O305 1.241 . S
C311 O301 1.244 . S
C311 O306 1.256 . S
C312 O303 1.239 . S
C312 O304 1.256 . S
O313 Mn295 2.221 . S
O313 Mn297 2.290 . S
O313 C307 1.278 . S
O314 Mn297 2.251 . S
O314 C307 1.241 . S
O315 Mn316 2.163 . S
O315 C329 1.244 . S
Mn316 O315 2.163 . S
Mn316 O319 2.160 1_454 S
Mn316 O320 2.221 1_454 S
Mn316 O322 2.163 1_455 S
Mn316 O324 2.160 1_554 S
Mn316 O334 2.221 . S
O317 Mn318 2.087 . S
O317 C329 1.256 . S
Mn318 O317 2.087 . S
Mn318 O325 2.089 1_554 S
Mn318 O334 2.290 . S
Mn318 O335 2.251 . S
O319 Mn316 2.160 1_656 S
O319 C330 1.239 . S
O320 Mn316 2.221 1_656 S
O320 Mn321 2.290 . S
O320 C331 1.278 . S
Mn321 O320 2.290 . S
Mn321 O323 2.089 . S
Mn321 O326 2.251 . S
Mn321 O327 2.087 1_556 S
O322 Mn316 2.163 1_655 S
O322 C332 1.244 . S
O323 Mn321 2.089 . S
O323 C330 1.256 . S
O324 Mn316 2.160 1_556 S
O324 C333 1.239 . S
O325 Mn318 2.089 1_556 S
O325 C333 1.256 . S
O326 Mn321 2.251 . S
O326 C331 1.241 . S
O327 Mn321 2.087 1_554 S
O327 C332 1.256 . S
C328 O334 1.278 . S
C328 O335 1.241 . S
C329 O315 1.244 . S
C329 O317 1.256 . S
C330 O319 1.239 . S
C330 O323 1.256 . S
C331 O320 1.278 . S
C331 O326 1.241 . S
C332 O322 1.244 . S
C332 O327 1.256 . S
C333 O324 1.239 . S
C333 O325 1.256 . S
O334 Mn316 2.221 . S
O334 Mn318 2.290 . S
O334 C328 1.278 . S
O335 Mn318 2.251 . S
O335 C328 1.241 . S
C336 C337 1.387 . S
C336 H340 0.950 . S
C336 C345 1.390 . S
C337 C336 1.387 . S
C337 C339 1.387 . S
H338 C345 0.950 . S
C339 C337 1.387 . S
C339 C341 1.390 . S
C339 H343 0.950 . S
H340 C336 0.950 . S
C341 C339 1.390 . S
C341 C342 1.387 . S
C341 H344 0.950 . S
C342 C341 1.387 . S
C342 C345 1.387 . S
H343 C339 0.950 . S
H344 C341 0.950 . S
C345 C336 1.390 . S
C345 H338 0.950 . S
C345 C342 1.387 . S
C346 C347 1.387 . S
C346 H350 0.950 . S
C346 C355 1.390 . S
C347 C346 1.387 . S
C347 C349 1.387 . S
H348 C355 0.950 . S
C349 C347 1.387 . S
C349 C351 1.390 . S
C349 H353 0.950 . S
H350 C346 0.950 . S
C351 C349 1.390 . S
C351 C352 1.387 . S
C351 H354 0.950 . S
C352 C351 1.387 . S
C352 C355 1.387 . S
H353 C349 0.950 . S
H354 C351 0.950 . S
C355 C346 1.390 . S
C355 H348 0.950 . S
C355 C352 1.387 . S
C356 C357 1.387 . S
C356 H360 0.950 . S
C356 C365 1.390 . S
C357 C356 1.387 . S
C357 C359 1.387 . S
H358 C365 0.950 . S
C359 C357 1.387 . S
C359 C361 1.390 . S
C359 H363 0.950 . S
H360 C356 0.950 . S
C361 C359 1.390 . S
C361 C362 1.387 . S
C361 H364 0.950 . S
C362 C361 1.387 . S
C362 C365 1.387 . S
H363 C359 0.950 . S
H364 C361 0.950 . S
C365 C356 1.390 . S
C365 H358 0.950 . S
C365 C362 1.387 . S
C366 C367 1.387 . S
C366 H370 0.950 . S
C366 C375 1.390 . S
C367 C366 1.387 . S
C367 C369 1.387 . S
H368 C375 0.950 . S
C369 C367 1.387 . S
C369 C371 1.390 . S
C369 H373 0.950 . S
H370 C366 0.950 . S
C371 C369 1.390 . S
C371 C372 1.387 . S
C371 H374 0.950 . S
C372 C371 1.387 . S
C372 C375 1.387 . S
H373 C369 0.950 . S
H374 C371 0.950 . S
C375 C366 1.390 . S
C375 H368 0.950 . S
C375 C372 1.387 . S
C376 C377 1.387 . S
C376 H380 0.950 . S
C376 C385 1.390 . S
C377 C376 1.387 . S
C377 C379 1.387 . S
H378 C385 0.950 . S
C379 C377 1.387 . S
C379 C381 1.390 . S
C379 H383 0.950 . S
H380 C376 0.950 . S
C381 C379 1.390 . S
C381 C382 1.387 . S
C381 H384 0.950 . S
C382 C381 1.387 . S
C382 C385 1.387 . S
H383 C379 0.950 . S
H384 C381 0.950 . S
C385 C376 1.390 . S
C385 H378 0.950 . S
C385 C382 1.387 . S
C386 C387 1.387 . S
C386 H390 0.950 . S
C386 C395 1.390 . S
C387 C386 1.387 . S
C387 C389 1.387 . S
H388 C395 0.950 . S
C389 C387 1.387 . S
C389 C391 1.390 . S
C389 H393 0.950 . S
H390 C386 0.950 . S
C391 C389 1.390 . S
C391 C392 1.387 . S
C391 H394 0.950 . S
C392 C391 1.387 . S
C392 C395 1.387 . S
H393 C389 0.950 . S
H394 C391 0.950 . S
C395 C386 1.390 . S
C395 H388 0.950 . S
C395 C392 1.387 . S
C396 C397 1.387 . S
C396 H400 0.950 . S
C396 C405 1.390 . S
C397 C396 1.387 . S
C397 C399 1.387 . S
H398 C405 0.950 . S
C399 C397 1.387 . S
C399 C401 1.390 . S
C399 H403 0.950 . S
H400 C396 0.950 . S
C401 C399 1.390 . S
C401 C402 1.387 . S
C401 H404 0.950 . S
C402 C401 1.387 . S
C402 C405 1.387 . S
H403 C399 0.950 . S
H404 C401 0.950 . S
C405 C396 1.390 . S
C405 H398 0.950 . S
C405 C402 1.387 . S
C406 C407 1.387 . S
C406 H410 0.950 . S
C406 C415 1.390 . S
C407 C406 1.387 . S
C407 C409 1.387 . S
H408 C415 0.950 . S
C409 C407 1.387 . S
C409 C411 1.390 . S
C409 H413 0.950 . S
H410 C406 0.950 . S
C411 C409 1.390 . S
C411 C412 1.387 . S
C411 H414 0.950 . S
C412 C411 1.387 . S
C412 C415 1.387 . S
H413 C409 0.950 . S
H414 C411 0.950 . S
C415 C406 1.390 . S
C415 H408 0.950 . S
C415 C412 1.387 . S
C416 C417 1.387 . S
C416 H420 0.950 . S
C416 C425 1.390 . S
C417 C416 1.387 . S
C417 C419 1.387 . S
H418 C425 0.950 . S
C419 C417 1.387 . S
C419 C421 1.390 . S
C419 H423 0.950 . S
H420 C416 0.950 . S
C421 C419 1.390 . S
C421 C422 1.387 . S
C421 H424 0.950 . S
C422 C421 1.387 . S
C422 C425 1.387 . S
H423 C419 0.950 . S
H424 C421 0.950 . S
C425 C416 1.390 . S
C425 H418 0.950 . S
C425 C422 1.387 . S
C426 C427 1.387 . S
C426 H430 0.950 . S
C426 C435 1.390 . S
C427 C426 1.387 . S
C427 C429 1.387 . S
H428 C435 0.950 . S
C429 C427 1.387 . S
C429 C431 1.390 . S
C429 H433 0.950 . S
H430 C426 0.950 . S
C431 C429 1.390 . S
C431 C432 1.387 . S
C431 H434 0.950 . S
C432 C431 1.387 . S
C432 C435 1.387 . S
H433 C429 0.950 . S
H434 C431 0.950 . S
C435 C426 1.390 . S
C435 H428 0.950 . S
C435 C432 1.387 . S
C436 C437 1.387 . S
C436 H440 0.950 . S
C436 C445 1.390 . S
C437 C436 1.387 . S
C437 C439 1.387 . S
H438 C445 0.950 . S
C439 C437 1.387 . S
C439 C441 1.390 . S
C439 H443 0.950 . S
H440 C436 0.950 . S
C441 C439 1.390 . S
C441 C442 1.387 . S
C441 H444 0.950 . S
C442 C441 1.387 . S
C442 C445 1.387 . S
H443 C439 0.950 . S
H444 C441 0.950 . S
C445 C436 1.390 . S
C445 H438 0.950 . S
C445 C442 1.387 . S
C446 C447 1.387 . S
C446 H450 0.950 . S
C446 C455 1.390 . S
C447 C446 1.387 . S
C447 C449 1.387 . S
H448 C455 0.950 . S
C449 C447 1.387 . S
C449 C451 1.390 . S
C449 H453 0.950 . S
H450 C446 0.950 . S
C451 C449 1.390 . S
C451 C452 1.387 . S
C451 H454 0.950 . S
C452 C451 1.387 . S
C452 C455 1.387 . S
H453 C449 0.950 . S
H454 C451 0.950 . S
C455 C446 1.390 . S
C455 H448 0.950 . S
C455 C452 1.387 . S
C456 C457 1.387 . S
C456 H460 0.950 . S
C456 C465 1.390 . S
C457 C456 1.387 . S
C457 C459 1.387 . S
H458 C465 0.950 . S
C459 C457 1.387 . S
C459 C461 1.390 . S
C459 H463 0.950 . S
H460 C456 0.950 . S
C461 C459 1.390 . S
C461 C462 1.387 . S
C461 H464 0.950 . S
C462 C461 1.387 . S
C462 C465 1.387 . S
H463 C459 0.950 . S
H464 C461 0.950 . S
C465 C456 1.390 . S
C465 H458 0.950 . S
C465 C462 1.387 . S
C466 C467 1.387 . S
C466 H470 0.950 . S
C466 C475 1.390 . S
C467 C466 1.387 . S
C467 C469 1.387 . S
H468 C475 0.950 . S
C469 C467 1.387 . S
C469 C471 1.390 . S
C469 H473 0.950 . S
H470 C466 0.950 . S
C471 C469 1.390 . S
C471 C472 1.387 . S
C471 H474 0.950 . S
C472 C471 1.387 . S
C472 C475 1.387 . S
H473 C469 0.950 . S
H474 C471 0.950 . S
C475 C466 1.390 . S
C475 H468 0.950 . S
C475 C472 1.387 . S
C476 C477 1.387 . S
C476 H480 0.950 . S
C476 C485 1.390 . S
C477 C476 1.387 . S
C477 C479 1.387 . S
H478 C485 0.950 . S
C479 C477 1.387 . S
C479 C481 1.390 . S
C479 H483 0.950 . S
H480 C476 0.950 . S
C481 C479 1.390 . S
C481 C482 1.387 . S
C481 H484 0.950 . S
C482 C481 1.387 . S
C482 C485 1.387 . S
H483 C479 0.950 . S
H484 C481 0.950 . S
C485 C476 1.390 . S
C485 H478 0.950 . S
C485 C482 1.387 . S
C486 C487 1.387 . S
C486 H490 0.950 . S
C486 C495 1.390 . S
C487 C486 1.387 . S
C487 C489 1.387 . S
H488 C495 0.950 . S
C489 C487 1.387 . S
C489 C491 1.390 . S
C489 H493 0.950 . S
H490 C486 0.950 . S
C491 C489 1.390 . S
C491 C492 1.387 . S
C491 H494 0.950 . S
C492 C491 1.387 . S
C492 C495 1.387 . S
H493 C489 0.950 . S
H494 C491 0.950 . S
C495 C486 1.390 . S
C495 H488 0.950 . S
C495 C492 1.387 . S
C496 C497 1.387 . S
C496 H500 0.950 . S
C496 C505 1.390 . S
C497 C496 1.387 . S
C497 C499 1.387 . S
H498 C505 0.950 . S
C499 C497 1.387 . S
C499 C501 1.390 . S
C499 H503 0.950 . S
H500 C496 0.950 . S
C501 C499 1.390 . S
C501 C502 1.387 . S
C501 H504 0.950 . S
C502 C501 1.387 . S
C502 C505 1.387 . S
H503 C499 0.950 . S
H504 C501 0.950 . S
C505 C496 1.390 . S
C505 H498 0.950 . S
C505 C502 1.387 . S
C506 C507 1.387 . S
C506 H510 0.950 . S
C506 C515 1.390 . S
C507 C506 1.387 . S
C507 C509 1.387 . S
H508 C515 0.950 . S
C509 C507 1.387 . S
C509 C511 1.390 . S
C509 H513 0.950 . S
H510 C506 0.950 . S
C511 C509 1.390 . S
C511 C512 1.387 . S
C511 H514 0.950 . S
C512 C511 1.387 . S
C512 C515 1.387 . S
H513 C509 0.950 . S
H514 C511 0.950 . S
C515 C506 1.390 . S
C515 H508 0.950 . S
C515 C512 1.387 . S
C516 C517 1.387 . S
C516 H520 0.950 . S
C516 C525 1.390 . S
C517 C516 1.387 . S
C517 C519 1.387 . S
H518 C525 0.950 . S
C519 C517 1.387 . S
C519 C521 1.390 . S
C519 H523 0.950 . S
H520 C516 0.950 . S
C521 C519 1.390 . S
C521 C522 1.387 . S
C521 H524 0.950 . S
C522 C521 1.387 . S
C522 C525 1.387 . S
H523 C519 0.950 . S
H524 C521 0.950 . S
C525 C516 1.390 . S
C525 H518 0.950 . S
C525 C522 1.387 . S
C526 C527 1.387 . S
C526 H530 0.950 . S
C526 C535 1.390 . S
C527 C526 1.387 . S
C527 C529 1.387 . S
H528 C535 0.950 . S
C529 C527 1.387 . S
C529 C531 1.390 . S
C529 H533 0.950 . S
H530 C526 0.950 . S
C531 C529 1.390 . S
C531 C532 1.387 . S
C531 H534 0.950 . S
C532 C531 1.387 . S
C532 C535 1.387 . S
H533 C529 0.950 . S
H534 C531 0.950 . S
C535 C526 1.390 . S
C535 H528 0.950 . S
C535 C532 1.387 . S
C536 C537 1.387 . S
C536 H540 0.950 . S
C536 C545 1.390 . S
C537 C536 1.387 . S
C537 C539 1.387 . S
H538 C545 0.950 . S
C539 C537 1.387 . S
C539 C541 1.390 . S
C539 H543 0.950 . S
H540 C536 0.950 . S
C541 C539 1.390 . S
C541 C542 1.387 . S
C541 H544 0.950 . S
C542 C541 1.387 . S
C542 C545 1.387 . S
H543 C539 0.950 . S
H544 C541 0.950 . S
C545 C536 1.390 . S
C545 H538 0.950 . S
C545 C542 1.387 . S
C546 C547 1.387 . S
C546 H550 0.950 . S
C546 C555 1.390 . S
C547 C546 1.387 . S
C547 C549 1.387 . S
H548 C555 0.950 . S
C549 C547 1.387 . S
C549 C551 1.390 . S
C549 H553 0.950 . S
H550 C546 0.950 . S
C551 C549 1.390 . S
C551 C552 1.387 . S
C551 H554 0.950 . S
C552 C551 1.387 . S
C552 C555 1.387 . S
H553 C549 0.950 . S
H554 C551 0.950 . S
C555 C546 1.390 . S
C555 H548 0.950 . S
C555 C552 1.387 . S
C556 C557 1.387 . S
C556 H560 0.950 . S
C556 C565 1.390 . S
C557 C556 1.387 . S
C557 C559 1.387 . S
H558 C565 0.950 . S
C559 C557 1.387 . S
C559 C561 1.390 . S
C559 H563 0.950 . S
H560 C556 0.950 . S
C561 C559 1.390 . S
C561 C562 1.387 . S
C561 H564 0.950 . S
C562 C561 1.387 . S
C562 C565 1.387 . S
H563 C559 0.950 . S
H564 C561 0.950 . S
C565 C556 1.390 . S
C565 H558 0.950 . S
C565 C562 1.387 . S
C566 C567 1.387 . S
C566 H570 0.950 . S
C566 C575 1.390 . S
C567 C566 1.387 . S
C567 C569 1.387 . S
H568 C575 0.950 . S
C569 C567 1.387 . S
C569 C571 1.390 . S
C569 H573 0.950 . S
H570 C566 0.950 . S
C571 C569 1.390 . S
C571 C572 1.387 . S
C571 H574 0.950 . S
C572 C571 1.387 . S
C572 C575 1.387 . S
H573 C569 0.950 . S
H574 C571 0.950 . S
C575 C566 1.390 . S
C575 H568 0.950 . S
C575 C572 1.387 . S
C576 C577 1.387 . S
C576 H580 0.950 . S
C576 C585 1.390 . S
C577 C576 1.387 . S
C577 C579 1.387 . S
H578 C585 0.950 . S
C579 C577 1.387 . S
C579 C581 1.390 . S
C579 H583 0.950 . S
H580 C576 0.950 . S
C581 C579 1.390 . S
C581 C582 1.387 . S
C581 H584 0.950 . S
C582 C581 1.387 . S
C582 C585 1.387 . S
H583 C579 0.950 . S
H584 C581 0.950 . S
C585 C576 1.390 . S
C585 H578 0.950 . S
C585 C582 1.387 . S
C586 C587 1.387 . S
C586 H590 0.950 . S
C586 C595 1.390 . S
C587 C586 1.387 . S
C587 C589 1.387 . S
H588 C595 0.950 . S
C589 C587 1.387 . S
C589 C591 1.390 . S
C589 H593 0.950 . S
H590 C586 0.950 . S
C591 C589 1.390 . S
C591 C592 1.387 . S
C591 H594 0.950 . S
C592 C591 1.387 . S
C592 C595 1.387 . S
H593 C589 0.950 . S
H594 C591 0.950 . S
C595 C586 1.390 . S
C595 H588 0.950 . S
C595 C592 1.387 . S
C596 C597 1.387 . S
C596 H600 0.950 . S
C596 C605 1.390 . S
C597 C596 1.387 . S
C597 C599 1.387 . S
H598 C605 0.950 . S
C599 C597 1.387 . S
C599 C601 1.390 . S
C599 H603 0.950 . S
H600 C596 0.950 . S
C601 C599 1.390 . S
C601 C602 1.387 . S
C601 H604 0.950 . S
C602 C601 1.387 . S
C602 C605 1.387 . S
H603 C599 0.950 . S
H604 C601 0.950 . S
C605 C596 1.390 . S
C605 H598 0.950 . S
C605 C602 1.387 . S
C606 C607 1.387 . S
C606 H610 0.950 . S
C606 C615 1.390 . S
C607 C606 1.387 . S
C607 C609 1.387 . S
H608 C615 0.950 . S
C609 C607 1.387 . S
C609 C611 1.390 . S
C609 H613 0.950 . S
H610 C606 0.950 . S
C611 C609 1.390 . S
C611 C612 1.387 . S
C611 H614 0.950 . S
C612 C611 1.387 . S
C612 C615 1.387 . S
H613 C609 0.950 . S
H614 C611 0.950 . S
C615 C606 1.390 . S
C615 H608 0.950 . S
C615 C612 1.387 . S
C616 C617 1.387 . S
C616 H620 0.950 . S
C616 C625 1.390 . S
C617 C616 1.387 . S
C617 C619 1.387 . S
H618 C625 0.950 . S
C619 C617 1.387 . S
C619 C621 1.390 . S
C619 H623 0.950 . S
H620 C616 0.950 . S
C621 C619 1.390 . S
C621 C622 1.387 . S
C621 H624 0.950 . S
C622 C621 1.387 . S
C622 C625 1.387 . S
H623 C619 0.950 . S
H624 C621 0.950 . S
C625 C616 1.390 . S
C625 H618 0.950 . S
C625 C622 1.387 . S
C626 C627 1.387 . S
C626 H630 0.950 . S
C626 C635 1.390 . S
C627 C626 1.387 . S
C627 C629 1.387 . S
H628 C635 0.950 . S
C629 C627 1.387 . S
C629 C631 1.390 . S
C629 H633 0.950 . S
H630 C626 0.950 . S
C631 C629 1.390 . S
C631 C632 1.387 . S
C631 H634 0.950 . S
C632 C631 1.387 . S
C632 C635 1.387 . S
H633 C629 0.950 . S
H634 C631 0.950 . S
C635 C626 1.390 . S
C635 H628 0.950 . S
C635 C632 1.387 . S
C636 C637 1.387 . S
C636 H640 0.950 . S
C636 C645 1.390 . S
C637 C636 1.387 . S
C637 C639 1.387 . S
H638 C645 0.950 . S
C639 C637 1.387 . S
C639 C641 1.390 . S
C639 H643 0.950 . S
H640 C636 0.950 . S
C641 C639 1.390 . S
C641 C642 1.387 . S
C641 H644 0.950 . S
C642 C641 1.387 . S
C642 C645 1.387 . S
H643 C639 0.950 . S
H644 C641 0.950 . S
C645 C636 1.390 . S
C645 H638 0.950 . S
C645 C642 1.387 . S
C646 C647 1.387 . S
C646 H650 0.950 . S
C646 C655 1.390 . S
C647 C646 1.387 . S
C647 C649 1.387 . S
H648 C655 0.950 . S
C649 C647 1.387 . S
C649 C651 1.390 . S
C649 H653 0.950 . S
H650 C646 0.950 . S
C651 C649 1.390 . S
C651 C652 1.387 . S
C651 H654 0.950 . S
C652 C651 1.387 . S
C652 C655 1.387 . S
H653 C649 0.950 . S
H654 C651 0.950 . S
C655 C646 1.390 . S
C655 H648 0.950 . S
C655 C652 1.387 . S
C656 C657 1.387 . S
C656 H660 0.950 . S
C656 C665 1.390 . S
C657 C656 1.387 . S
C657 C659 1.387 . S
H658 C665 0.950 . S
C659 C657 1.387 . S
C659 C661 1.390 . S
C659 H663 0.950 . S
H660 C656 0.950 . S
C661 C659 1.390 . S
C661 C662 1.387 . S
C661 H664 0.950 . S
C662 C661 1.387 . S
C662 C665 1.387 . S
H663 C659 0.950 . S
H664 C661 0.950 . S
C665 C656 1.390 . S
C665 H658 0.950 . S
C665 C662 1.387 . S
C666 C667 1.387 . S
C666 H670 0.950 . S
C666 C675 1.390 . S
C667 C666 1.387 . S
C667 C669 1.387 . S
H668 C675 0.950 . S
C669 C667 1.387 . S
C669 C671 1.390 . S
C669 H673 0.950 . S
H670 C666 0.950 . S
C671 C669 1.390 . S
C671 C672 1.387 . S
C671 H674 0.950 . S
C672 C671 1.387 . S
C672 C675 1.387 . S
H673 C669 0.950 . S
H674 C671 0.950 . S
C675 C666 1.390 . S
C675 H668 0.950 . S
C675 C672 1.387 . S
C676 C677 1.387 . S
C676 H680 0.950 . S
C676 C685 1.390 . S
C677 C676 1.387 . S
C677 C679 1.387 . S
H678 C685 0.950 . S
C679 C677 1.387 . S
C679 C681 1.390 . S
C679 H683 0.950 . S
H680 C676 0.950 . S
C681 C679 1.390 . S
C681 C682 1.387 . S
C681 H684 0.950 . S
C682 C681 1.387 . S
C682 C685 1.387 . S
H683 C679 0.950 . S
H684 C681 0.950 . S
C685 C676 1.390 . S
C685 H678 0.950 . S
C685 C682 1.387 . S
C686 C687 1.387 . S
C686 H690 0.950 . S
C686 C695 1.390 . S
C687 C686 1.387 . S
C687 C689 1.387 . S
H688 C695 0.950 . S
C689 C687 1.387 . S
C689 C691 1.390 . S
C689 H693 0.950 . S
H690 C686 0.950 . S
C691 C689 1.390 . S
C691 C692 1.387 . S
C691 H694 0.950 . S
C692 C691 1.387 . S
C692 C695 1.387 . S
H693 C689 0.950 . S
H694 C691 0.950 . S
C695 C686 1.390 . S
C695 H688 0.950 . S
C695 C692 1.387 . S
C696 C697 1.387 . S
C696 H700 0.950 . S
C696 C705 1.390 . S
C697 C696 1.387 . S
C697 C699 1.387 . S
H698 C705 0.950 . S
C699 C697 1.387 . S
C699 C701 1.390 . S
C699 H703 0.950 . S
H700 C696 0.950 . S
C701 C699 1.390 . S
C701 C702 1.387 . S
C701 H704 0.950 . S
C702 C701 1.387 . S
C702 C705 1.387 . S
H703 C699 0.950 . S
H704 C701 0.950 . S
C705 C696 1.390 . S
C705 H698 0.950 . S
C705 C702 1.387 . S
C706 C707 1.387 . S
C706 H710 0.950 . S
C706 C715 1.390 . S
C707 C706 1.387 . S
C707 C709 1.387 . S
H708 C715 0.950 . S
C709 C707 1.387 . S
C709 C711 1.390 . S
C709 H713 0.950 . S
H710 C706 0.950 . S
C711 C709 1.390 . S
C711 C712 1.387 . S
C711 H714 0.950 . S
C712 C711 1.387 . S
C712 C715 1.387 . S
H713 C709 0.950 . S
H714 C711 0.950 . S
C715 C706 1.390 . S
C715 H708 0.950 . S
C715 C712 1.387 . S
C716 C717 1.387 . S
C716 H720 0.950 . S
C716 C725 1.390 . S
C717 C716 1.387 . S
C717 C719 1.387 . S
H718 C725 0.950 . S
C719 C717 1.387 . S
C719 C721 1.390 . S
C719 H723 0.950 . S
H720 C716 0.950 . S
C721 C719 1.390 . S
C721 C722 1.387 . S
C721 H724 0.950 . S
C722 C721 1.387 . S
C722 C725 1.387 . S
H723 C719 0.950 . S
H724 C721 0.950 . S
C725 C716 1.390 . S
C725 H718 0.950 . S
C725 C722 1.387 . S
C726 C727 1.387 . S
C726 H730 0.950 . S
C726 C735 1.390 . S
C727 C726 1.387 . S
C727 C729 1.387 . S
H728 C735 0.950 . S
C729 C727 1.387 . S
C729 C731 1.390 . S
C729 H733 0.950 . S
H730 C726 0.950 . S
C731 C729 1.390 . S
C731 C732 1.387 . S
C731 H734 0.950 . S
C732 C731 1.387 . S
C732 C735 1.387 . S
H733 C729 0.950 . S
H734 C731 0.950 . S
C735 C726 1.390 . S
C735 H728 0.950 . S
C735 C732 1.387 . S
C736 C737 1.387 . S
C736 H740 0.950 . S
C736 C745 1.390 . S
C737 C736 1.387 . S
C737 C739 1.387 . S
H738 C745 0.950 . S
C739 C737 1.387 . S
C739 C741 1.390 . S
C739 H743 0.950 . S
H740 C736 0.950 . S
C741 C739 1.390 . S
C741 C742 1.387 . S
C741 H744 0.950 . S
C742 C741 1.387 . S
C742 C745 1.387 . S
H743 C739 0.950 . S
H744 C741 0.950 . S
C745 C736 1.390 . S
C745 H738 0.950 . S
C745 C742 1.387 . S
C746 C747 1.387 . S
C746 H750 0.950 . S
C746 C755 1.390 . S
C747 C746 1.387 . S
C747 C749 1.387 . S
H748 C755 0.950 . S
C749 C747 1.387 . S
C749 C751 1.390 . S
C749 H753 0.950 . S
H750 C746 0.950 . S
C751 C749 1.390 . S
C751 C752 1.387 . S
C751 H754 0.950 . S
C752 C751 1.387 . S
C752 C755 1.387 . S
H753 C749 0.950 . S
H754 C751 0.950 . S
C755 C746 1.390 . S
C755 H748 0.950 . S
C755 C752 1.387 . S
C756 C757 1.387 . S
C756 H760 0.950 . S
C756 C765 1.390 . S
C757 C756 1.387 . S
C757 C759 1.387 . S
H758 C765 0.950 . S
C759 C757 1.387 . S
C759 C761 1.390 . S
C759 H763 0.950 . S
H760 C756 0.950 . S
C761 C759 1.390 . S
C761 C762 1.387 . S
C761 H764 0.950 . S
C762 C761 1.387 . S
C762 C765 1.387 . S
H763 C759 0.950 . S
H764 C761 0.950 . S
C765 C756 1.390 . S
C765 H758 0.950 . S
C765 C762 1.387 . S
C766 C767 1.387 . S
C766 H770 0.950 . S
C766 C775 1.390 . S
C767 C766 1.387 . S
C767 C769 1.387 . S
H768 C775 0.950 . S
C769 C767 1.387 . S
C769 C771 1.390 . S
C769 H773 0.950 . S
H770 C766 0.950 . S
C771 C769 1.390 . S
C771 C772 1.387 . S
C771 H774 0.950 . S
C772 C771 1.387 . S
C772 C775 1.387 . S
H773 C769 0.950 . S
H774 C771 0.950 . S
C775 C766 1.390 . S
C775 H768 0.950 . S
C775 C772 1.387 . S
C776 C777 1.387 . S
C776 H780 0.950 . S
C776 C785 1.390 . S
C777 C776 1.387 . S
C777 C779 1.387 . S
H778 C785 0.950 . S
C779 C777 1.387 . S
C779 C781 1.390 . S
C779 H783 0.950 . S
H780 C776 0.950 . S
C781 C779 1.390 . S
C781 C782 1.387 . S
C781 H784 0.950 . S
C782 C781 1.387 . S
C782 C785 1.387 . S
H783 C779 0.950 . S
H784 C781 0.950 . S
C785 C776 1.390 . S
C785 H778 0.950 . S
C785 C782 1.387 . S
C786 C787 1.387 . S
C786 H790 0.950 . S
C786 C795 1.390 . S
C787 C786 1.387 . S
C787 C789 1.387 . S
H788 C795 0.950 . S
C789 C787 1.387 . S
C789 C791 1.390 . S
C789 H793 0.950 . S
H790 C786 0.950 . S
C791 C789 1.390 . S
C791 C792 1.387 . S
C791 H794 0.950 . S
C792 C791 1.387 . S
C792 C795 1.387 . S
H793 C789 0.950 . S
H794 C791 0.950 . S
C795 C786 1.390 . S
C795 H788 0.950 . S
C795 C792 1.387 . S
C796 C797 1.387 . S
C796 H800 0.950 . S
C796 C805 1.390 . S
C797 C796 1.387 . S
C797 C799 1.387 . S
H798 C805 0.950 . S
C799 C797 1.387 . S
C799 C801 1.390 . S
C799 H803 0.950 . S
H800 C796 0.950 . S
C801 C799 1.390 . S
C801 C802 1.387 . S
C801 H804 0.950 . S
C802 C801 1.387 . S
C802 C805 1.387 . S
H803 C799 0.950 . S
H804 C801 0.950 . S
C805 C796 1.390 . S
C805 H798 0.950 . S
C805 C802 1.387 . S
C806 C807 1.387 . S
C806 H810 0.950 . S
C806 C815 1.390 . S
C807 C806 1.387 . S
C807 C809 1.387 . S
H808 C815 0.950 . S
C809 C807 1.387 . S
C809 C811 1.390 . S
C809 H813 0.950 . S
H810 C806 0.950 . S
C811 C809 1.390 . S
C811 C812 1.387 . S
C811 H814 0.950 . S
C812 C811 1.387 . S
C812 C815 1.387 . S
H813 C809 0.950 . S
H814 C811 0.950 . S
C815 C806 1.390 . S
C815 H808 0.950 . S
C815 C812 1.387 . S
C337 C77 1.086 . S
C342 C13 0.986 . S
C347 C15 1.218 . S
C352 C38 1.406 . S
C357 C58 0.919 . S
C362 C35 1.103 . S
C367 C80 1.550 . S
C372 C59 1.550 . S
C377 C102 1.301 . S
C382 C120 1.227 . S
C387 C118 1.088 . S
C392 C139 1.116 . S
C397 C144 1.475 . S
C402 C164 1.548 . S
C407 C97 1.192 . S
C412 C163 1.008 . S
C417 C207 1.446 . S
C422 C18 1.450 . S
C427 C225 1.057 . S
C432 C37 0.912 . S
C437 C56 1.265 . S
C442 C287 1.288 . S
C447 C183 1.072 . S
C452 C79 0.928 . S
C457 C247 0.925 . S
C462 C99 1.071 . S
C467 C312 1.450 . S
C472 C123 1.444 . S
C477 C141 1.057 . S
C482 C268 0.912 . S
C487 C329 1.265 . S
C492 C161 1.288 . S
C497 C181 1.187 . S
C502 C289 1.013 . S
C507 C204 1.228 . S
C512 C186 1.302 . S
C517 C223 1.113 . S
C522 C202 1.088 . S
C527 C307 0.986 . S
C532 C245 1.086 . S
C537 C266 1.103 . S
C542 C331 0.920 . S
C547 C246 1.061 . S
C552 C16 1.007 . S
C557 C270 1.364 . S
C562 C14 1.188 . S
C567 C267 1.097 . S
C572 C55 0.937 . S
C577 C60 1.630 . S
C582 C249 1.617 . S
C587 C203 1.195 . S
C592 C101 1.303 . S
C597 C205 1.048 . S
C602 C142 1.090 . S
C607 C291 1.627 . S
C612 C143 1.576 . S
C617 C100 1.122 . S
C622 C286 1.001 . S
C627 C122 1.593 . S
C632 C17 1.587 . S
C637 C224 1.079 . S
C642 C265 0.953 . S
C647 C57 1.225 . S
C652 C162 1.206 . S
C657 C182 1.080 . S
C662 C244 0.958 . S
C667 C76 0.959 . S
C672 C98 1.081 . S
C677 C206 1.590 . S
C682 C311 1.587 . S
C687 C140 1.077 . S
C692 C34 0.951 . S
C697 C330 1.225 . S
C702 C288 1.208 . S
C707 C184 1.126 . S
C712 C160 0.996 . S
C717 C185 1.300 . S
C722 C119 1.191 . S
C727 C226 1.094 . S
C732 C121 1.046 . S
C737 C78 1.063 . S
C742 C310 1.002 . S
C747 C36 1.096 . S
C752 C328 0.939 . S
C757 C269 1.406 . S
C762 C309 1.220 . S
C767 C248 1.551 . S
C772 C332 1.549 . S
C777 C228 1.475 . S
C782 C290 1.548 . S
C787 C308 1.190 . S
C792 C39 1.363 . S
C797 C81 1.616 . S
C802 C333 1.632 . S
C807 C165 1.627 . S
C812 C227 1.576 . S
