# Generated by pormake.
# Topology zga, (5)-cn, num edge types: 1
# Building blocks:
#     Node 0, Type 0, BuildingBlock: XOMCOT_clean_sbu_0, # of connection points: 5
#     Node 1, Type 0, BuildingBlock: XOMCOT_clean_sbu_0, # of connection points: 5
#     Node 2, Type 0, BuildingBlock: XOMCOT_clean_sbu_0, # of connection points: 5
#     Node 3, Type 0, BuildingBlock: XOMCOT_clean_sbu_0, # of connection points: 5
#     Node 4, Type 0, BuildingBlock: XOMCOT_clean_sbu_0, # of connection points: 5
#     Node 5, Type 0, BuildingBlock: XOMCOT_clean_sbu_0, # of connection points: 5
#     Node 6, Type 0, BuildingBlock: XOMCOT_clean_sbu_0, # of connection points: 5
#     Node 7, Type 0, BuildingBlock: XOMCOT_clean_sbu_0, # of connection points: 5
#     Node 8, Type 0, BuildingBlock: XOMCOT_clean_sbu_0, # of connection points: 5
#     Node 9, Type 0, BuildingBlock: XOMCOT_clean_sbu_0, # of connection points: 5
#     Node 10, Type 0, BuildingBlock: XOMCOT_clean_sbu_0, # of connection points: 5
#     Node 11, Type 0, BuildingBlock: XOMCOT_clean_sbu_0, # of connection points: 5
#     Node 12, Type 0, BuildingBlock: XOMCOT_clean_sbu_0, # of connection points: 5
#     Node 13, Type 0, BuildingBlock: XOMCOT_clean_sbu_0, # of connection points: 5
#     Node 14, Type 0, BuildingBlock: XOMCOT_clean_sbu_0, # of connection points: 5
#     Node 15, Type 0, BuildingBlock: XOMCOT_clean_sbu_0, # of connection points: 5
#     Edge 16, Type (0, 0), BuildingBlock: KIFKEQ_clean_linker_1, # of connection points: 2
#     Edge 17, Type (0, 0), BuildingBlock: KIFKEQ_clean_linker_1, # of connection points: 2
#     Edge 18, Type (0, 0), BuildingBlock: KIFKEQ_clean_linker_1, # of connection points: 2
#     Edge 19, Type (0, 0), BuildingBlock: KIFKEQ_clean_linker_1, # of connection points: 2
#     Edge 20, Type (0, 0), BuildingBlock: KIFKEQ_clean_linker_1, # of connection points: 2
#     Edge 21, Type (0, 0), BuildingBlock: KIFKEQ_clean_linker_1, # of connection points: 2
#     Edge 22, Type (0, 0), BuildingBlock: KIFKEQ_clean_linker_1, # of connection points: 2
#     Edge 23, Type (0, 0), BuildingBlock: KIFKEQ_clean_linker_1, # of connection points: 2
#     Edge 24, Type (0, 0), BuildingBlock: KIFKEQ_clean_linker_1, # of connection points: 2
#     Edge 25, Type (0, 0), BuildingBlock: KIFKEQ_clean_linker_1, # of connection points: 2
#     Edge 26, Type (0, 0), BuildingBlock: KIFKEQ_clean_linker_1, # of connection points: 2
#     Edge 27, Type (0, 0), BuildingBlock: KIFKEQ_clean_linker_1, # of connection points: 2
#     Edge 28, Type (0, 0), BuildingBlock: KIFKEQ_clean_linker_1, # of connection points: 2
#     Edge 29, Type (0, 0), BuildingBlock: KIFKEQ_clean_linker_1, # of connection points: 2
#     Edge 30, Type (0, 0), BuildingBlock: KIFKEQ_clean_linker_1, # of connection points: 2
#     Edge 31, Type (0, 0), BuildingBlock: KIFKEQ_clean_linker_1, # of connection points: 2
#     Edge 32, Type (0, 0), BuildingBlock: KIFKEQ_clean_linker_1, # of connection points: 2
#     Edge 33, Type (0, 0), BuildingBlock: KIFKEQ_clean_linker_1, # of connection points: 2
#     Edge 34, Type (0, 0), BuildingBlock: KIFKEQ_clean_linker_1, # of connection points: 2
#     Edge 35, Type (0, 0), BuildingBlock: KIFKEQ_clean_linker_1, # of connection points: 2
#     Edge 36, Type (0, 0), BuildingBlock: KIFKEQ_clean_linker_1, # of connection points: 2
#     Edge 37, Type (0, 0), BuildingBlock: KIFKEQ_clean_linker_1, # of connection points: 2
#     Edge 38, Type (0, 0), BuildingBlock: KIFKEQ_clean_linker_1, # of connection points: 2
#     Edge 39, Type (0, 0), BuildingBlock: KIFKEQ_clean_linker_1, # of connection points: 2
#     Edge 40, Type (0, 0), BuildingBlock: KIFKEQ_clean_linker_1, # of connection points: 2
#     Edge 41, Type (0, 0), BuildingBlock: KIFKEQ_clean_linker_1, # of connection points: 2
#     Edge 42, Type (0, 0), BuildingBlock: KIFKEQ_clean_linker_1, # of connection points: 2
#     Edge 43, Type (0, 0), BuildingBlock: KIFKEQ_clean_linker_1, # of connection points: 2
#     Edge 44, Type (0, 0), BuildingBlock: KIFKEQ_clean_linker_1, # of connection points: 2
#     Edge 45, Type (0, 0), BuildingBlock: KIFKEQ_clean_linker_1, # of connection points: 2
#     Edge 46, Type (0, 0), BuildingBlock: KIFKEQ_clean_linker_1, # of connection points: 2
#     Edge 47, Type (0, 0), BuildingBlock: KIFKEQ_clean_linker_1, # of connection points: 2
#     Edge 48, Type (0, 0), BuildingBlock: KIFKEQ_clean_linker_1, # of connection points: 2
#     Edge 49, Type (0, 0), BuildingBlock: KIFKEQ_clean_linker_1, # of connection points: 2
#     Edge 50, Type (0, 0), BuildingBlock: KIFKEQ_clean_linker_1, # of connection points: 2
#     Edge 51, Type (0, 0), BuildingBlock: KIFKEQ_clean_linker_1, # of connection points: 2
#     Edge 52, Type (0, 0), BuildingBlock: KIFKEQ_clean_linker_1, # of connection points: 2
#     Edge 53, Type (0, 0), BuildingBlock: KIFKEQ_clean_linker_1, # of connection points: 2
#     Edge 54, Type (0, 0), BuildingBlock: KIFKEQ_clean_linker_1, # of connection points: 2
#     Edge 55, Type (0, 0), BuildingBlock: KIFKEQ_clean_linker_1, # of connection points: 2
# Relax obj value: 0.027
# Max RMSD: 0.076
# Mean RMSD: 0.076
data_MOF--net-zga--node1-XOMCOT_clean_sbu_0--edge1-KIFKEQ_clean_linker_1
_symmetry_space_group_name_H-M    P1
_symmetry_Int_Tables_number       1
_symmetry_cell_setting            triclinic
loop_
_symmetry_equiv_pos_as_xyz
'x, y, z'
_cell_length_a     50.95117
_cell_length_b     106.26672
_cell_length_c     17.891148
_cell_angle_alpha  92.052155
_cell_angle_beta   89.94147
_cell_angle_gamma 90.045062
loop_
_atom_site_label
_atom_site_type_symbol
_atom_site_fract_x
_atom_site_fract_y
_atom_site_fract_z
_atom_type_partial_charge
Co0 Co 0.12774 0.54505 0.12642 0.0
C1 C 0.13424 0.54576 0.95984 0.0
C2 C 0.15109 0.52931 1.00614 0.0
C3 C 0.1533 0.52829 0.92953 0.0
N4 N 0.13963 0.54039 0.02561 0.0
N5 N 0.1426 0.53861 0.90029 0.0
H6 H 0.12364 0.55445 0.95488 0.0
H7 H 0.15653 0.5222 0.045 0.0
C8 C 0.1857 0.53928 0.1434 0.0
O9 O 0.19057 0.54547 0.08262 0.0
N10 N 0.11557 0.54941 0.22653 0.0
C11 C 0.09793 0.55841 0.245 0.0
C12 C 0.096 0.55943 0.32174 0.0
C13 C 0.12407 0.545 0.2922 0.0
N14 N 0.11252 0.55104 0.35153 0.0
C15 C 0.12456 0.57042 0.07698 0.0
C16 C 0.16454 0.58068 0.16342 0.0
C17 C 0.14943 0.58882 0.12036 0.0
C18 C 0.12924 0.58339 0.0767 0.0
C19 C 0.15909 0.56768 0.16236 0.0
N20 N 0.1396 0.56258 0.11813 0.0
H21 H 0.10776 0.56682 0.04654 0.0
H22 H 0.16987 0.56188 0.1999 0.0
H23 H 0.08757 0.56404 0.20541 0.0
H24 H 0.13894 0.53782 0.29658 0.0
O25 O 0.09212 0.5467 0.08863 0.0
O26 O 0.1091 0.52905 0.1283 0.0
O27 O 0.16233 0.53901 0.16974 0.0
C28 C 0.0891 0.53476 0.09969 0.0
H29 H 0.16095 0.52025 0.89774 0.0
H30 H 0.08341 0.56591 0.35306 0.0
H31 H 0.18022 0.58431 0.19883 0.0
H32 H 0.11617 0.58916 0.04482 0.0
Co33 Co 0.12746 0.7288 0.14382 0.0
C34 C 0.13498 0.72787 0.31006 0.0
C35 C 0.14966 0.7448 0.26386 0.0
C36 C 0.15185 0.74585 0.34037 0.0
N37 N 0.13943 0.73346 0.24439 0.0
N38 N 0.14255 0.73521 0.3698 0.0
H39 H 0.12556 0.71886 0.3146 0.0
H40 H 0.15415 0.75208 0.22504 0.0
C41 C 0.18535 0.73479 0.12721 0.0
O42 O 0.19013 0.72877 0.18862 0.0
N43 N 0.11523 0.72447 0.0438 0.0
C44 C 0.09638 0.71603 0.02536 0.0
C45 C 0.09408 0.71525 0.94861 0.0
C46 C 0.12424 0.72867 0.97816 0.0
N47 N 0.11167 0.72316 0.91899 0.0
C48 C 0.12409 0.70339 0.1924 0.0
C49 C 0.16441 0.69321 0.10678 0.0
C50 C 0.14914 0.68503 0.14931 0.0
C51 C 0.12878 0.69042 0.19254 0.0
C52 C 0.15894 0.70622 0.10796 0.0
N53 N 0.13929 0.71126 0.15179 0.0
H54 H 0.10727 0.70697 0.22288 0.0
H55 H 0.1699 0.71205 0.07092 0.0
H56 H 0.08537 0.71066 0.06492 0.0
H57 H 0.13958 0.73564 0.9736 0.0
O58 O 0.09187 0.72713 0.18213 0.0
O59 O 0.1088 0.74479 0.1422 0.0
O60 O 0.16206 0.73486 0.1003 0.0
C61 C 0.08883 0.73907 0.17114 0.0
H62 H 0.15849 0.75414 0.37171 0.0
H63 H 0.08096 0.70906 0.91701 0.0
H64 H 0.18023 0.68962 0.07174 0.0
H65 H 0.11562 0.68462 0.22407 0.0
Co66 Co 0.88515 0.47884 0.89137 0.0
C67 C 0.87993 0.47866 0.05839 0.0
C68 C 0.85659 0.49301 1.01047 0.0
C69 C 0.8546 0.49421 0.08715 0.0
N70 N 0.87191 0.48303 0.99186 0.0
N71 N 0.86936 0.48519 0.11746 0.0
H72 H 0.89423 0.47132 0.06418 0.0
H73 H 0.84853 0.49948 0.9713 0.0
C74 C 0.82721 0.48374 0.86257 0.0
O75 O 0.82075 0.476 0.91524 0.0
N76 N 0.89855 0.47498 0.79169 0.0
C77 C 0.91691 0.46631 0.77338 0.0
C78 C 0.91945 0.46556 0.69669 0.0
C79 C 0.89021 0.47943 0.72592 0.0
N80 N 0.90256 0.47377 0.66663 0.0
C81 C 0.88513 0.4535 0.94288 0.0
C82 C 0.85066 0.44316 0.8388 0.0
C83 C 0.86251 0.43515 0.88979 0.0
C84 C 0.87987 0.44058 0.94238 0.0
C85 C 0.85615 0.45617 0.84213 0.0
N86 N 0.8728 0.46131 0.89504 0.0
H87 H 0.90047 0.45701 0.9791 0.0
H88 H 0.84785 0.46199 0.7999 0.0
H89 H 0.92728 0.46068 0.81299 0.0
H90 H 0.87481 0.48635 0.72136 0.0
O91 O 0.92013 0.47678 0.93291 0.0
O92 O 0.90417 0.49472 0.89401 0.0
O93 O 0.85138 0.48526 0.84554 0.0
C94 C 0.92362 0.48875 0.92381 0.0
H95 H 0.84426 0.50161 0.11807 0.0
H96 H 0.93267 0.45936 0.66566 0.0
H97 H 0.83752 0.43939 0.79605 0.0
H98 H 0.89045 0.43478 0.98075 0.0
Co99 Co 0.88322 0.29499 0.86027 0.0
C100 C 0.87797 0.2994 0.69727 0.0
C101 C 0.84759 0.28738 0.73719 0.0
C102 C 0.84477 0.28829 0.66128 0.0
N103 N 0.8683 0.29439 0.76016 0.0
N104 N 0.86393 0.29579 0.63585 0.0
H105 H 0.89531 0.30528 0.69623 0.0
H106 H 0.83593 0.2815 0.77211 0.0
C107 C 0.82896 0.29231 0.93841 0.0
O108 O 0.82847 0.30403 0.9642 0.0
N109 N 0.89861 0.29525 0.96128 0.0
C110 C 0.92447 0.2948 0.97834 0.0
C111 C 0.92755 0.29538 0.05464 0.0
C112 C 0.88648 0.29615 0.0288 0.0
N113 N 0.90366 0.29624 0.08648 0.0
C114 C 0.89258 0.32089 0.89987 0.0
C115 C 0.84605 0.33074 0.84871 0.0
C116 C 0.86517 0.33913 0.87807 0.0
C117 C 0.88869 0.33392 0.90358 0.0
C118 C 0.85077 0.31766 0.84594 0.0
N119 N 0.87366 0.31284 0.87281 0.0
H120 H 0.9114 0.3173 0.91661 0.0
H121 H 0.83604 0.31143 0.82178 0.0
H122 H 0.94045 0.29435 0.93872 0.0
H123 H 0.86563 0.2966 0.03666 0.0
O124 O 0.91793 0.29714 0.81687 0.0
O125 O 0.89955 0.27876 0.8382 0.0
O126 O 0.84865 0.28812 0.90046 0.0
C127 C 0.91962 0.2849 0.81285 0.0
H128 H 0.83056 0.2832 0.62695 0.0
H129 H 0.94606 0.29544 0.08428 0.0
H130 H 0.82757 0.33422 0.828 0.0
H131 H 0.90454 0.33988 0.92416 0.0
Co132 Co 0.12797 0.04508 0.63123 0.0
C133 C 0.13416 0.0458 0.46471 0.0
C134 C 0.15332 0.02997 0.51136 0.0
C135 C 0.15557 0.02896 0.43474 0.0
N136 N 0.14036 0.04066 0.5306 0.0
N137 N 0.14343 0.0389 0.40527 0.0
H138 H 0.12234 0.05411 0.45962 0.0
H139 H 0.1597 0.02304 0.55029 0.0
C140 C 0.18626 0.03987 0.65269 0.0
O141 O 0.19194 0.04669 0.595 0.0
N142 N 0.11544 0.04924 0.73129 0.0
C143 C 0.09726 0.058 0.74969 0.0
C144 C 0.09518 0.05896 0.82641 0.0
C145 C 0.12413 0.04494 0.79702 0.0
N146 N 0.11216 0.05078 0.85631 0.0
C147 C 0.12404 0.0704 0.58251 0.0
C148 C 0.16317 0.08111 0.67056 0.0
C149 C 0.14732 0.08901 0.62846 0.0
C150 C 0.12774 0.08343 0.58369 0.0
C151 C 0.1585 0.06801 0.66876 0.0
N152 N 0.13937 0.06271 0.62389 0.0
H153 H 0.10764 0.06664 0.55106 0.0
H154 H 0.1694 0.06232 0.70659 0.0
H155 H 0.08663 0.06351 0.71008 0.0
H156 H 0.13945 0.03797 0.8015 0.0
O157 O 0.09241 0.04664 0.59288 0.0
O158 O 0.10959 0.029 0.63184 0.0
O159 O 0.16246 0.03908 0.67517 0.0
C160 C 0.0895 0.03469 0.60358 0.0
H161 H 0.16427 0.02116 0.40313 0.0
H162 H 0.08217 0.06524 0.85763 0.0
H163 H 0.17807 0.08507 0.70756 0.0
H164 H 0.11476 0.08917 0.55118 0.0
Co165 Co 0.12617 0.22879 0.63011 0.0
C166 C 0.13318 0.22816 0.79646 0.0
C167 C 0.14896 0.24481 0.74949 0.0
C168 C 0.15108 0.24593 0.82603 0.0
N169 N 0.13804 0.2336 0.73054 0.0
N170 N 0.14109 0.23547 0.85596 0.0
H171 H 0.12326 0.21929 0.80129 0.0
H172 H 0.15398 0.25195 0.7103 0.0
C173 C 0.18427 0.23443 0.61197 0.0
O174 O 0.18949 0.228 0.67156 0.0
N175 N 0.11416 0.22432 0.53009 0.0
C176 C 0.09535 0.21586 0.51153 0.0
C177 C 0.09304 0.21512 0.43476 0.0
C178 C 0.12313 0.22857 0.46452 0.0
N179 N 0.11057 0.22308 0.40526 0.0
C180 C 0.12205 0.20355 0.68 0.0
C181 C 0.16235 0.1929 0.59608 0.0
C182 C 0.14612 0.18498 0.63707 0.0
C183 C 0.12595 0.19054 0.67982 0.0
C184 C 0.15749 0.20598 0.5968 0.0
N185 N 0.13777 0.21124 0.63963 0.0
H186 H 0.10534 0.20729 0.7102 0.0
H187 H 0.16878 0.21166 0.55972 0.0
H188 H 0.08432 0.21049 0.55103 0.0
H189 H 0.13839 0.23559 0.46009 0.0
O190 O 0.09054 0.22726 0.66814 0.0
O191 O 0.10748 0.24478 0.62652 0.0
O192 O 0.16077 0.23481 0.58689 0.0
C193 C 0.08742 0.23912 0.65543 0.0
H194 H 0.15824 0.25416 0.85701 0.0
H195 H 0.0799 0.20896 0.40305 0.0
H196 H 0.17775 0.18896 0.56065 0.0
H197 H 0.11271 0.18479 0.71159 0.0
Co198 Co 0.88413 0.97785 0.41422 0.0
C199 C 0.88344 0.98068 0.58182 0.0
C200 C 0.84496 0.98189 0.53412 0.0
C201 C 0.84263 0.98248 0.6107 0.0
N202 N 0.87055 0.98077 0.51545 0.0
N203 N 0.86677 0.98172 0.64073 0.0
H204 H 0.90437 0.97932 0.58741 0.0
H205 H 0.82874 0.98182 0.49529 0.0
C206 C 0.83426 0.98162 0.31771 0.0
O207 O 0.83932 0.97189 0.27257 0.0
N208 N 0.89783 0.97474 0.31319 0.0
C209 C 0.91474 0.96547 0.29283 0.0
C210 C 0.91801 0.96527 0.21664 0.0
C211 C 0.89211 0.98049 0.24865 0.0
N212 N 0.9036 0.97461 0.18865 0.0
C213 C 0.89229 0.95163 0.43895 0.0
C214 C 0.84246 0.94269 0.4091 0.0
C215 C 0.86228 0.93397 0.42489 0.0
C216 C 0.88734 0.93872 0.4411 0.0
C217 C 0.84824 0.95568 0.40839 0.0
N218 N 0.87333 0.96001 0.41942 0.0
H219 H 0.9119 0.95475 0.45213 0.0
H220 H 0.8323 0.96212 0.40039 0.0
H221 H 0.92393 0.95909 0.33022 0.0
H222 H 0.87885 0.98838 0.2449 0.0
O223 O 0.91965 0.97648 0.45327 0.0
O224 O 0.9017 0.9942 0.4187 0.0
O225 O 0.84929 0.98421 0.37359 0.0
C226 C 0.92205 0.98852 0.44554 0.0
H227 H 0.82446 0.98319 0.642 0.0
H228 H 0.92962 0.95856 0.18392 0.0
H229 H 0.82253 0.93954 0.39878 0.0
H230 H 0.90337 0.93248 0.45402 0.0
Co231 Co 0.88486 0.79461 0.38389 0.0
C232 C 0.87777 0.79551 0.21761 0.0
C233 C 0.85906 0.77961 0.2648 0.0
C234 C 0.85701 0.77849 0.18825 0.0
N235 N 0.87167 0.7904 0.28376 0.0
N236 N 0.86885 0.78848 0.15812 0.0
H237 H 0.88961 0.80382 0.21259 0.0
H238 H 0.85308 0.77261 0.30383 0.0
C239 C 0.82712 0.789 0.40926 0.0
O240 O 0.82094 0.79626 0.35401 0.0
N241 N 0.89819 0.79845 0.48355 0.0
C242 C 0.91765 0.80657 0.50191 0.0
C243 C 0.92029 0.80717 0.57865 0.0
C244 C 0.88915 0.79428 0.54928 0.0
N245 N 0.90227 0.79949 0.60837 0.0
C246 C 0.88542 0.82022 0.33673 0.0
C247 C 0.84846 0.8298 0.43621 0.0
C248 C 0.86137 0.8382 0.3895 0.0
C249 C 0.88001 0.83315 0.33912 0.0
C250 C 0.85437 0.81685 0.43165 0.0
N251 N 0.87225 0.81209 0.38091 0.0
H252 H 0.90145 0.81694 0.30201 0.0
H253 H 0.84538 0.81081 0.47157 0.0
H254 H 0.92877 0.8119 0.46238 0.0
H255 H 0.87327 0.7876 0.55409 0.0
O256 O 0.91981 0.79679 0.34192 0.0
O257 O 0.90411 0.7788 0.38087 0.0
O258 O 0.85111 0.788 0.42934 0.0
C259 C 0.92346 0.78482 0.35085 0.0
H260 H 0.84874 0.77049 0.15747 0.0
H261 H 0.93387 0.81312 0.61023 0.0
H262 H 0.8342 0.8332 0.47703 0.0
H263 H 0.89142 0.83921 0.30413 0.0
Co264 Co 0.62845 0.54433 0.61755 0.0
C265 C 0.63267 0.54384 0.44985 0.0
C266 C 0.65681 0.52994 0.49896 0.0
C267 C 0.65862 0.52849 0.42241 0.0
N268 N 0.64119 0.53985 0.51679 0.0
N269 N 0.64338 0.53724 0.39126 0.0
H270 H 0.6174 0.5507 0.44342 0.0
H271 H 0.66543 0.52374 0.53873 0.0
C272 C 0.68665 0.53998 0.64273 0.0
O273 O 0.69205 0.54715 0.58636 0.0
N274 N 0.61553 0.54838 0.71735 0.0
C275 C 0.59861 0.55765 0.7367 0.0
C276 C 0.596 0.55817 0.81339 0.0
C277 C 0.6229 0.54333 0.78234 0.0
N278 N 0.61133 0.54918 0.84233 0.0
C279 C 0.62743 0.56933 0.56197 0.0
C280 C 0.66039 0.58064 0.66665 0.0
C281 C 0.64733 0.58836 0.61618 0.0
C282 C 0.63132 0.58234 0.56201 0.0
C283 C 0.65644 0.56748 0.6634 0.0
N284 N 0.64013 0.56192 0.6111 0.0
H285 H 0.61264 0.56544 0.52529 0.0
H286 H 0.66526 0.56191 0.70601 0.0
H287 H 0.58944 0.56385 0.69788 0.0
H288 H 0.63659 0.5356 0.78555 0.0
O289 O 0.59311 0.54604 0.57828 0.0
O290 O 0.61003 0.52829 0.61716 0.0
O291 O 0.66279 0.53848 0.66301 0.0
C292 C 0.59011 0.53407 0.58842 0.0
H293 H 0.66986 0.52131 0.39237 0.0
H294 H 0.58437 0.56497 0.84528 0.0
H295 H 0.67252 0.58473 0.71082 0.0
H296 H 0.62089 0.58765 0.52097 0.0
Co297 Co 0.62739 0.7289 0.6552 0.0
C298 C 0.63454 0.72831 0.82207 0.0
C299 C 0.65125 0.74464 0.77405 0.0
C300 C 0.65332 0.74591 0.85055 0.0
N301 N 0.63982 0.73352 0.75565 0.0
N302 N 0.64273 0.73564 0.88115 0.0
H303 H 0.62403 0.71965 0.82779 0.0
H304 H 0.65658 0.75167 0.73447 0.0
C305 C 0.68552 0.73401 0.63616 0.0
O306 O 0.69027 0.72774 0.69665 0.0
N307 N 0.61483 0.72473 0.5553 0.0
C308 C 0.59598 0.71632 0.5365 0.0
C309 C 0.5935 0.71573 0.45973 0.0
C310 C 0.62363 0.72913 0.48992 0.0
N311 N 0.61097 0.72375 0.43052 0.0
C312 C 0.62393 0.70374 0.7069 0.0
C313 C 0.66072 0.69268 0.61232 0.0
C314 C 0.64582 0.68484 0.65805 0.0
C315 C 0.62775 0.69073 0.70714 0.0
C316 C 0.65669 0.70583 0.61517 0.0
N317 N 0.63858 0.71128 0.66278 0.0
H318 H 0.60796 0.70759 0.73978 0.0
H319 H 0.66709 0.71146 0.57577 0.0
H320 H 0.58511 0.71082 0.5758 0.0
H321 H 0.63889 0.73614 0.48572 0.0
O322 O 0.59187 0.72745 0.69397 0.0
O323 O 0.60922 0.74502 0.65403 0.0
O324 O 0.66207 0.73462 0.61092 0.0
C325 C 0.58911 0.73939 0.68295 0.0
H326 H 0.6608 0.75412 0.88096 0.0
H327 H 0.58036 0.7096 0.42781 0.0
H328 H 0.67448 0.68869 0.57191 0.0
H329 H 0.61581 0.68533 0.74442 0.0
Co330 Co 0.38466 0.47839 0.39122 0.0
C331 C 0.3795 0.47846 0.5583 0.0
C332 C 0.35813 0.49345 0.50981 0.0
C333 C 0.35622 0.49476 0.58637 0.0
N334 N 0.37221 0.48304 0.49169 0.0
N335 N 0.36978 0.48536 0.61722 0.0
H336 H 0.39306 0.4708 0.5641 0.0
H337 H 0.35065 0.5 0.47018 0.0
C338 C 0.32663 0.48367 0.36688 0.0
O339 O 0.32058 0.47659 0.42309 0.0
N340 N 0.39724 0.47406 0.29144 0.0
C341 C 0.41379 0.46462 0.27241 0.0
C342 C 0.41616 0.46391 0.19567 0.0
C343 C 0.38983 0.47901 0.22619 0.0
N344 N 0.40105 0.47294 0.16633 0.0
C345 C 0.38633 0.45321 0.44351 0.0
C346 C 0.3484 0.44269 0.35069 0.0
C347 C 0.36242 0.43468 0.39739 0.0
C348 C 0.38164 0.44025 0.44402 0.0
C349 C 0.35397 0.45569 0.35132 0.0
N350 N 0.37234 0.46092 0.39887 0.0
H351 H 0.40255 0.45683 0.47615 0.0
H352 H 0.34424 0.46139 0.31105 0.0
H353 H 0.42289 0.45844 0.3115 0.0
H354 H 0.37636 0.48682 0.22274 0.0
O355 O 0.41992 0.47647 0.43082 0.0
O356 O 0.40383 0.49425 0.39014 0.0
O357 O 0.35059 0.48467 0.34626 0.0
C358 C 0.42344 0.48837 0.41976 0.0
H359 H 0.34606 0.50229 0.61662 0.0
H360 H 0.4275 0.45695 0.16411 0.0
H361 H 0.33354 0.43898 0.31277 0.0
H362 H 0.39408 0.43461 0.47854 0.0
Co363 Co 0.38499 0.29529 0.37424 0.0
C364 C 0.37849 0.29576 0.2076 0.0
C365 C 0.36327 0.27899 0.25485 0.0
C366 C 0.36167 0.27769 0.17831 0.0
N367 N 0.3735 0.29038 0.27365 0.0
N368 N 0.37135 0.2882 0.1485 0.0
H369 H 0.38861 0.30459 0.2021 0.0
H370 H 0.35829 0.27188 0.29427 0.0
C371 C 0.3271 0.28923 0.38913 0.0
O372 O 0.32261 0.29512 0.32711 0.0
N373 N 0.39681 0.29988 0.47432 0.0
C374 C 0.41535 0.30848 0.4924 0.0
C375 C 0.4174 0.30948 0.56909 0.0
C376 C 0.3878 0.29577 0.54016 0.0
N377 N 0.39997 0.30152 0.59946 0.0
C378 C 0.3887 0.32061 0.32484 0.0
C379 C 0.34783 0.33086 0.40821 0.0
C380 C 0.36405 0.33895 0.36846 0.0
C381 C 0.38455 0.33363 0.32604 0.0
C382 C 0.35301 0.31783 0.40679 0.0
N383 N 0.37307 0.31277 0.36444 0.0
H384 H 0.40555 0.31699 0.29471 0.0
H385 H 0.3417 0.31204 0.44313 0.0
H386 H 0.42646 0.31375 0.45258 0.0
H387 H 0.37233 0.28887 0.54442 0.0
O388 O 0.42072 0.29695 0.33698 0.0
O389 O 0.40379 0.27936 0.37774 0.0
O390 O 0.35025 0.28924 0.41706 0.0
C391 C 0.42383 0.28506 0.349 0.0
H392 H 0.35453 0.26948 0.14701 0.0
H393 H 0.43087 0.31561 0.59967 0.0
H394 H 0.33219 0.33465 0.44333 0.0
H395 H 0.39779 0.33955 0.29541 0.0
Co396 Co 0.63102 0.04542 0.12065 0.0
C397 C 0.63219 0.04494 0.9535 0.0
C398 C 0.65882 0.03166 0.99946 0.0
C399 C 0.65922 0.03013 0.92287 0.0
N400 N 0.64206 0.04101 0.01898 0.0
N401 N 0.64237 0.03841 0.89371 0.0
H402 H 0.6169 0.05194 0.94975 0.0
H403 H 0.66919 0.02589 0.0381 0.0
C404 C 0.67957 0.0399 0.21881 0.0
O405 O 0.67234 0.04802 0.27188 0.0
N406 N 0.61924 0.04972 0.22195 0.0
C407 C 0.60785 0.06066 0.24437 0.0
C408 C 0.60289 0.06045 0.31981 0.0
C409 C 0.62001 0.04277 0.28394 0.0
N410 N 0.61083 0.04927 0.34513 0.0
C411 C 0.62651 0.07092 0.07331 0.0
C412 C 0.67077 0.0808 0.14201 0.0
C413 C 0.653 0.08915 0.10999 0.0
C414 C 0.63103 0.08393 0.07334 0.0
C415 C 0.66568 0.06777 0.13988 0.0
N416 N 0.64309 0.06295 0.10885 0.0
H417 H 0.60876 0.0674 0.04743 0.0
H418 H 0.67996 0.06179 0.16426 0.0
H419 H 0.60375 0.06842 0.20888 0.0
H420 H 0.62814 0.03337 0.28478 0.0
O421 O 0.59494 0.04717 0.08664 0.0
O422 O 0.61232 0.02942 0.12302 0.0
O423 O 0.66667 0.03896 0.15718 0.0
C424 C 0.59201 0.03521 0.09668 0.0
H425 H 0.67077 0.02325 0.89129 0.0
H426 H 0.59516 0.0682 0.354 0.0
H427 H 0.68847 0.0843 0.16902 0.0
H428 H 0.61666 0.0899 0.04763 0.0
Co429 Co 0.62886 0.22845 0.15607 0.0
C430 C 0.63063 0.22894 0.32229 0.0
C431 C 0.66087 0.24042 0.27633 0.0
C432 C 0.66257 0.24129 0.35309 0.0
N433 N 0.64098 0.2326 0.25684 0.0
N434 N 0.64351 0.23412 0.38199 0.0
H435 H 0.61399 0.22266 0.32622 0.0
H436 H 0.67306 0.24544 0.23792 0.0
C437 C 0.67836 0.23262 0.05881 0.0
O438 O 0.67338 0.22297 0.01302 0.0
N439 N 0.61639 0.22431 0.05543 0.0
C440 C 0.60214 0.2141 0.03455 0.0
C441 C 0.59819 0.21408 0.95865 0.0
C442 C 0.62004 0.23063 0.99187 0.0
N443 N 0.60962 0.22442 0.93127 0.0
C444 C 0.62256 0.20253 0.19291 0.0
C445 C 0.67092 0.1935 0.14733 0.0
C446 C 0.65167 0.1848 0.16813 0.0
C447 C 0.62754 0.1896 0.19336 0.0
C448 C 0.66525 0.2065 0.14912 0.0
N449 N 0.64067 0.21086 0.16706 0.0
H450 H 0.60342 0.20569 0.21081 0.0
H451 H 0.68085 0.21287 0.13643 0.0
H452 H 0.59519 0.20701 0.07141 0.0
H453 H 0.63061 0.23944 0.98999 0.0
O454 O 0.59316 0.22688 0.19354 0.0
O455 O 0.61033 0.24452 0.15482 0.0
O456 O 0.66374 0.23493 0.11598 0.0
C457 C 0.59024 0.23882 0.18315 0.0
H458 H 0.67627 0.24708 0.38524 0.0
H459 H 0.58843 0.2067 0.92609 0.0
H460 H 0.69027 0.1903 0.13031 0.0
H461 H 0.61206 0.18335 0.21079 0.0
Co462 Co 0.38624 0.97948 0.89943 0.0
C463 C 0.37861 0.97866 0.06561 0.0
C464 C 0.36444 0.99568 0.01945 0.0
C465 C 0.36232 0.99675 0.09601 0.0
N466 N 0.37432 0.98427 0.99995 0.0
N467 N 0.37131 0.98605 0.12543 0.0
H468 H 0.38773 0.96959 0.07006 0.0
H469 H 0.36015 1.00297 0.98062 0.0
C470 C 0.32846 0.98566 0.88274 0.0
O471 O 0.32361 0.97978 0.94464 0.0
N472 N 0.39842 0.97502 0.79944 0.0
C473 C 0.41704 0.96648 0.78092 0.0
C474 C 0.41932 0.96567 0.70413 0.0
C475 C 0.38954 0.97927 0.7338 0.0
N476 N 0.40195 0.97368 0.67454 0.0
C477 C 0.3897 0.95412 0.94774 0.0
C478 C 0.34929 0.94383 0.86288 0.0
C479 C 0.36549 0.93573 0.90259 0.0
C480 C 0.38568 0.94111 0.94597 0.0
C481 C 0.35428 0.9569 0.86518 0.0
N482 N 0.37415 0.96198 0.90816 0.0
H483 H 0.40642 0.95774 0.97847 0.0
H484 H 0.343 0.96272 0.829 0.0
H485 H 0.42791 0.96106 0.82046 0.0
H486 H 0.37442 0.98633 0.7293 0.0
O487 O 0.42165 0.97771 0.93828 0.0
O488 O 0.40545 0.99538 0.89692 0.0
O489 O 0.35175 0.98562 0.85565 0.0
C490 C 0.42515 0.98959 0.9267 0.0
H491 H 0.35594 1.00508 0.12739 0.0
H492 H 0.43228 0.95941 0.67248 0.0
H493 H 0.33385 0.94003 0.82714 0.0
H494 H 0.39886 0.93522 0.97689 0.0
Co495 Co 0.3845 0.79588 0.88 0.0
C496 C 0.37819 0.79654 0.71358 0.0
C497 C 0.35905 0.7807 0.76041 0.0
C498 C 0.35688 0.77966 0.68376 0.0
N499 N 0.37194 0.79142 0.77957 0.0
N500 N 0.36902 0.78961 0.65417 0.0
H501 H 0.39004 0.80486 0.7084 0.0
H502 H 0.35271 0.77376 0.79938 0.0
C503 C 0.32645 0.79041 0.90271 0.0
O504 O 0.32058 0.7973 0.84553 0.0
N505 N 0.39722 0.80006 0.97984 0.0
C506 C 0.41526 0.8089 0.99808 0.0
C507 C 0.41742 0.80984 0.07481 0.0
C508 C 0.38869 0.79569 0.04568 0.0
N509 N 0.40063 0.80157 0.10489 0.0
C510 C 0.38769 0.82125 0.83158 0.0
C511 C 0.34901 0.8317 0.92245 0.0
C512 C 0.36456 0.83973 0.88015 0.0
C513 C 0.38388 0.83428 0.83386 0.0
C514 C 0.35377 0.81862 0.91948 0.0
N515 N 0.37269 0.81345 0.87331 0.0
H516 H 0.40398 0.81761 0.79922 0.0
H517 H 0.34317 0.81283 0.95758 0.0
H518 H 0.42573 0.81448 0.95836 0.0
H519 H 0.3735 0.78865 0.05031 0.0
O520 O 0.4198 0.79763 0.84002 0.0
O521 O 0.40329 0.77991 0.88035 0.0
O522 O 0.35028 0.78967 0.92473 0.0
C523 C 0.42304 0.7857 0.85071 0.0
H524 H 0.34826 0.77183 0.65223 0.0
H525 H 0.43034 0.81619 0.10589 0.0
H526 H 0.33433 0.83556 0.96059 0.0
H527 H 0.39664 0.84012 0.80115 0.0
H528 H 0.3333 0.50307 0.27149 0.0
H529 H 0.27305 0.48213 0.38255 0.0
H530 H 0.30007 0.51676 0.22062 0.0
H531 H 0.23954 0.49543 0.32886 0.0
H532 H 0.18585 0.52836 0.28057 0.0
H533 H 0.21966 0.51515 0.33368 0.0
H534 H 0.26673 0.51903 0.13463 0.0
H535 H 0.23347 0.53267 0.08356 0.0
C536 C 0.31289 0.50126 0.28424 0.0
C537 C 0.30596 0.49145 0.33134 0.0
C538 C 0.29367 0.50911 0.25461 0.0
C539 C 0.2668 0.50735 0.27026 0.0
C540 C 0.25991 0.49736 0.31641 0.0
C541 C 0.27919 0.4896 0.34679 0.0
C542 C 0.20352 0.52647 0.24842 0.0
C543 C 0.20688 0.53167 0.17781 0.0
C544 C 0.22293 0.51875 0.27862 0.0
C545 C 0.24619 0.51585 0.23874 0.0
C546 C 0.24949 0.52114 0.16815 0.0
C547 C 0.23025 0.52897 0.13846 0.0
H548 H 0.04107 0.729 0.20552 0.0
H549 H 0.08136 0.76451 0.18988 0.0
H550 H 1.00139 0.73999 0.24662 0.0
H551 H 0.0422 0.77557 0.23481 0.0
H552 H 0.96113 0.79335 0.2559 0.0
H553 H 1.00019 0.78238 0.20966 0.0
H554 H 0.98082 0.75071 0.34461 0.0
H555 H 0.94107 0.76149 0.38735 0.0
C556 C 0.04148 0.73918 0.21124 0.0
C557 C 0.06439 0.74587 0.1941 0.0
C558 C 0.01871 0.74553 0.23563 0.0
C559 C 0.01827 0.75877 0.2449 0.0
C560 C 0.04133 0.76543 0.22739 0.0
C561 C 0.06396 0.75907 0.20187 0.0
C562 C 0.96527 0.78404 0.27574 0.0
C563 C 0.94794 0.77831 0.32537 0.0
C564 C 0.98785 0.77774 0.2495 0.0
C565 C 0.99403 0.76556 0.27296 0.0
C566 C 0.97671 0.75992 0.32357 0.0
C567 C 0.95392 0.76616 0.34884 0.0
H568 H 0.27292 0.79161 0.88472 0.0
H569 H 0.33295 0.77132 1.0003 0.0
H570 H 0.23937 0.77828 0.93846 0.0
H571 H 0.2997 0.75761 0.05128 0.0
H572 H 0.23272 0.74181 0.18781 0.0
H573 H 0.26599 0.75544 0.13633 0.0
H574 H 0.21981 0.75847 0.93521 0.0
H575 H 0.18596 0.74527 0.98869 0.0
C576 C 0.279 0.78428 0.92149 0.0
C577 C 0.30573 0.78262 0.93823 0.0
C578 C 0.25971 0.7765 0.95192 0.0
C579 C 0.26653 0.7667 0.9994 0.0
C580 C 0.29334 0.76512 0.01626 0.0
C581 C 0.31258 0.77299 0.98657 0.0
C582 C 0.2297 0.74532 0.13238 0.0
C583 C 0.20655 0.74239 0.09257 0.0
C584 C 0.24895 0.75314 0.10244 0.0
C585 C 0.2459 0.7582 0.03114 0.0
C586 C 0.22287 0.75506 0.9908 0.0
C587 C 0.20344 0.74735 0.02123 0.0
H588 H 0.96128 0.4804 0.01891 0.0
H589 H 0.94113 0.51207 0.88615 0.0
H590 H 1.00037 0.49145 0.06421 0.0
H591 H 0.98092 0.52292 0.92798 0.0
H592 H 0.04134 0.5448 0.06562 0.0
H593 H 1.00159 0.53376 0.02544 0.0
H594 H 0.04236 0.49821 0.03771 0.0
H595 H 0.08158 0.50931 0.0817 0.0
C596 C 0.96541 0.48968 0.99858 0.0
C597 C 0.94806 0.49534 0.94885 0.0
C598 C 0.98801 0.49603 0.02428 0.0
C599 C 0.99417 0.50818 1.00013 0.0
C600 C 0.97682 0.51374 0.94948 0.0
C601 C 0.95401 0.50746 0.92476 0.0
C602 C 0.04172 0.53461 0.0602 0.0
C603 C 0.06464 0.52795 0.0772 0.0
C604 C 0.01892 0.52824 0.03634 0.0
C605 C 0.01845 0.515 0.02751 0.0
C606 C 0.04152 0.50836 0.04483 0.0
C607 C 0.06419 0.51474 0.06981 0.0
H608 H 0.83429 0.50439 0.77707 0.0
H609 H 0.77353 0.48132 0.8698 0.0
H610 H 0.80117 0.51826 0.72743 0.0
H611 H 0.74019 0.49483 0.81707 0.0
H612 H 0.68524 0.52746 0.77446 0.0
H613 H 0.71897 0.51414 0.82691 0.0
H614 H 0.76927 0.52123 0.63823 0.0
H615 H 0.73599 0.53499 0.58812 0.0
C616 C 0.81381 0.50215 0.786 0.0
C617 C 0.80669 0.49169 0.82766 0.0
C618 C 0.79465 0.51012 0.75704 0.0
C619 C 0.76767 0.50781 0.76786 0.0
C620 C 0.76061 0.49718 0.80853 0.0
C621 C 0.77981 0.4893 0.83833 0.0
C622 C 0.7036 0.52626 0.74451 0.0
C623 C 0.70784 0.53238 0.67708 0.0
C624 C 0.72297 0.51848 0.77427 0.0
C625 C 0.74711 0.51642 0.73703 0.0
C626 C 0.75131 0.52266 0.66974 0.0
C627 C 0.73208 0.53056 0.64058 0.0
H628 H 0.04658 0.23071 0.73923 0.0
H629 H 0.07204 0.26279 0.61702 0.0
H630 H 0.00652 0.24178 0.77547 0.0
H631 H 0.03134 0.27375 0.65027 0.0
H632 H 0.9679 0.29509 0.78495 0.0
H633 H 0.00802 0.28419 0.74628 0.0
H634 H 0.96577 0.24886 0.73683 0.0
H635 H 0.92608 0.25977 0.77881 0.0
C636 C 0.04347 0.2401 0.7193 0.0
C637 C 0.06257 0.24585 0.67515 0.0
C638 C 0.0203 0.24646 0.7397 0.0
C639 C 0.01531 0.25873 0.71584 0.0
C640 C 0.03445 0.26443 0.67101 0.0
C641 C 0.0578 0.2581 0.65134 0.0
C642 C 0.96719 0.285 0.77438 0.0
C643 C 0.94375 0.27831 0.78527 0.0
C644 C 0.99024 0.27871 0.75167 0.0
C645 C 0.99048 0.26555 0.73832 0.0
C646 C 0.96676 0.25893 0.74792 0.0
C647 C 0.94382 0.26521 0.7715 0.0
H648 H 0.68346 0.25757 0.09842 0.0
H649 H 0.72428 0.22699 0.98455 0.0
H650 H 0.71887 0.27186 0.06872 0.0
H651 H 0.76091 0.24093 0.95963 0.0
H652 H 0.81469 0.2702 0.86526 0.0
H653 H 0.77869 0.25622 0.893 0.0
H654 H 0.75923 0.2798 0.08746 0.0
H655 H 0.79396 0.29432 0.05501 0.0
C656 C 0.70031 0.25385 0.06806 0.0
C657 C 0.70095 0.24112 0.04378 0.0
C658 C 0.72094 0.26206 0.05132 0.0
C659 C 0.74333 0.25776 1.01139 0.0
C660 C 0.74404 0.24488 0.98863 0.0
C661 C 0.72304 0.23676 1.00361 0.0
C662 C 0.80255 0.27248 0.91348 0.0
C663 C 0.80715 0.28353 0.95716 0.0
C664 C 0.78189 0.2643 0.93033 0.0
C665 C 0.76552 0.26664 0.99304 0.0
C666 C 0.77059 0.27763 0.03757 0.0
C667 C 0.79081 0.286 0.01934 0.0
H668 H 0.32789 0.99584 0.74322 0.0
H669 H 0.28095 0.99268 0.94253 0.0
H670 H 0.29383 1.0087 0.68826 0.0
H671 H 0.24747 1.00596 0.88955 0.0
H672 H 0.18023 0.02101 0.75209 0.0
H673 H 0.2138 1.00766 0.80431 0.0
H674 H 0.27364 0.02834 0.68893 0.0
H675 H 0.23977 0.0413 0.63398 0.0
C676 C 0.31033 0.99791 0.7755 0.0
C677 C 0.30723 0.99313 0.84732 0.0
C678 C 0.29078 1.00542 0.74419 0.0
C679 C 0.26761 1.00854 0.78408 0.0
C680 C 0.2646 1.00368 0.85594 0.0
C681 C 0.28398 0.99605 0.88676 0.0
C682 C 0.20056 0.02276 0.73804 0.0
C683 C 0.20717 0.03228 0.68866 0.0
C684 C 0.21999 0.0151 0.76845 0.0
C685 C 0.24677 0.01679 0.75134 0.0
C686 C 0.25335 0.02648 0.7027 0.0
C687 C 0.23386 0.03405 0.67156 0.0
H688 H 0.17868 0.25298 0.51056 0.0
H689 H 0.23759 0.23338 0.63444 0.0
H690 H 0.21236 0.26648 0.45995 0.0
H691 H 0.27163 0.24646 0.581 0.0
H692 H 0.32556 0.27919 0.52887 0.0
H693 H 0.29133 0.26617 0.58198 0.0
H694 H 0.24672 0.26841 0.37743 0.0
H695 H 0.28031 0.28189 0.32638 0.0
C696 C 0.19892 0.25141 0.52616 0.0
C697 C 0.20531 0.24204 0.57672 0.0
C698 C 0.21841 0.25916 0.4967 0.0
C699 C 0.24506 0.2577 0.51594 0.0
C700 C 0.25144 0.24815 0.56564 0.0
C701 C 0.23186 0.24051 0.5959 0.0
C702 C 0.30833 0.27698 0.49552 0.0
C703 C 0.30573 0.28169 0.42338 0.0
C704 C 0.28869 0.26937 0.52574 0.0
C705 C 0.26597 0.26607 0.48436 0.0
C706 C 0.26348 0.27084 0.41216 0.0
C707 C 0.28292 0.27858 0.38246 0.0
H708 H 0.96109 0.98043 0.53634 0.0
H709 H 0.93812 0.01211 0.40737 0.0
H710 H 1.00063 0.99155 0.57666 0.0
H711 H 0.97845 0.02307 0.44407 0.0
H712 H 0.04148 0.04482 0.57366 0.0
H713 H 1.00117 0.03388 0.53765 0.0
H714 H 0.04195 0.99826 0.54459 0.0
H715 H 0.08177 1.00926 0.58463 0.0
C716 C 0.96467 0.98974 0.51584 0.0
C717 C 0.94642 0.99537 0.46857 0.0
C718 C 0.98756 0.99613 0.53858 0.0
C719 C 0.99318 1.00829 0.51374 0.0
C720 C 0.97484 0.01386 0.46589 0.0
C721 C 0.9517 1.00753 0.44418 0.0
C722 C 0.04175 0.03464 0.56786 0.0
C723 C 0.06484 0.02792 0.5824 0.0
C724 C 0.01861 0.02832 0.54643 0.0
C725 C 0.01794 0.01508 0.53763 0.0
C726 C 0.04123 1.0084 0.552 0.0
C727 C 0.06426 0.01472 0.57463 0.0
H728 H 0.70357 0.0352 0.35157 0.0
H729 H 0.7081 0.02559 0.11556 0.0
H730 H 0.73985 0.02105 0.37502 0.0
H731 H 0.74511 1.01168 0.13845 0.0
H732 H 0.79542 0.97849 0.21142 0.0
H733 H 0.75849 0.99239 0.1872 0.0
H734 H 0.78495 0.01799 0.36452 0.0
H735 H 0.8211 1.0039 0.39033 0.0
C736 C 0.71252 0.03019 0.30433 0.0
C737 C 0.70277 0.0316 0.23154 0.0
C738 C 0.73354 0.02205 0.31779 0.0
C739 C 0.74577 0.01512 0.25881 0.0
C740 C 0.7361 0.01662 0.18577 0.0
C741 C 0.71487 0.0247 0.17241 0.0
C742 C 0.79328 0.98706 0.24552 0.0
C743 C 0.81131 0.98998 0.30315 0.0
C744 C 0.77213 0.99513 0.23118 0.0
C745 C 0.76843 1.00643 0.27372 0.0
C746 C 0.7866 1.00933 0.3312 0.0
C747 C 0.80758 1.00123 0.34585 0.0
H748 H 0.73373 0.74023 0.69453 0.0
H749 H 0.68576 0.74483 0.4988 0.0
H750 H 0.76729 0.75366 0.64239 0.0
H751 H 0.71981 0.75782 0.44472 0.0
H752 H 0.77354 0.79071 0.39529 0.0
H753 H 0.73999 0.77747 0.44967 0.0
H754 H 0.80047 0.75582 0.55517 0.0
H755 H 0.8338 0.76944 0.50351 0.0
C756 C 0.73049 0.74394 0.6397 0.0
C757 C 0.70693 0.74141 0.60107 0.0
C758 C 0.7499 0.75165 0.6094 0.0
C759 C 0.74654 0.75698 0.53894 0.0
C760 C 0.72311 0.7542 0.49969 0.0
C761 C 0.70356 0.74661 0.53047 0.0
C762 C 0.77967 0.78317 0.43054 0.0
C763 C 0.80647 0.78121 0.44501 0.0
C764 C 0.76037 0.77545 0.46133 0.0
C765 C 0.76723 0.76541 0.50693 0.0
C766 C 0.79412 0.76352 0.52159 0.0
C767 C 0.81338 0.77133 0.49151 0.0
H768 H 0.46144 0.79386 0.75738 0.0
H769 H 0.44001 0.76237 0.89028 0.0
H770 H 0.50074 0.78276 0.71467 0.0
H771 H 0.48004 0.75144 0.851 0.0
H772 H 0.54117 0.72944 0.71602 0.0
H773 H 0.50134 0.74052 0.75481 0.0
H774 H 0.54247 0.77602 0.74363 0.0
H775 H 0.58182 0.76487 0.701 0.0
C776 C 0.46533 0.78461 0.77831 0.0
C777 C 0.44755 0.77902 0.82731 0.0
C778 C 0.48806 0.77822 0.75412 0.0
C779 C 0.49395 0.76611 0.77908 0.0
C780 C 0.47617 0.76061 0.82897 0.0
C781 C 0.45322 0.76693 0.85221 0.0
C782 C 0.54163 0.73962 0.72146 0.0
C783 C 0.56468 0.74626 0.70509 0.0
C784 C 0.51877 0.74601 0.7445 0.0
C785 C 0.51837 0.75926 0.7531 0.0
C786 C 0.54159 0.76587 0.7366 0.0
C787 C 0.56433 0.75947 0.71242 0.0
H788 H 0.58239 0.50864 0.56958 0.0
H789 H 0.54244 0.54423 0.5547 0.0
H790 H 0.54293 0.49765 0.52651 0.0
H791 H 0.50247 0.5333 0.51545 0.0
H792 H 0.44088 0.51162 0.37986 0.0
H793 H 0.48107 0.52243 0.41912 0.0
H794 H 0.50108 0.49107 0.55572 0.0
H795 H 0.46163 0.48009 0.51305 0.0
C796 C 0.56503 0.51411 0.55806 0.0
C797 C 0.56561 0.52732 0.56562 0.0
C798 C 0.54222 0.5078 0.53365 0.0
C799 C 0.51915 0.51449 0.51714 0.0
C800 C 0.51978 0.52774 0.52583 0.0
C801 C 0.54272 0.53405 0.54912 0.0
C802 C 0.45398 0.50703 0.41796 0.0
C803 C 0.44807 0.49496 0.44296 0.0
C804 C 0.47702 0.51327 0.44119 0.0
C805 C 0.49464 0.50773 0.49115 0.0
C806 C 0.48851 0.49564 0.5162 0.0
C807 C 0.4657 0.48933 0.49203 0.0
H808 H 0.43149 0.25963 0.33169 0.0
H809 H 0.4717 0.29516 0.31597 0.0
H810 H 0.47093 0.24857 0.28931 0.0
H811 H 0.5117 0.28416 0.27746 0.0
H812 H 0.57348 0.26219 0.14317 0.0
H813 H 0.53342 0.27318 0.18211 0.0
H814 H 0.51253 0.24193 0.31869 0.0
H815 H 0.55177 0.23078 0.27632 0.0
C816 C 0.44893 0.26507 0.32025 0.0
C817 C 0.44841 0.27828 0.32736 0.0
C818 C 0.47173 0.25872 0.2962 0.0
C819 C 0.49489 0.26537 0.27963 0.0
C820 C 0.49433 0.27862 0.28792 0.0
C821 C 0.47138 0.28497 0.31082 0.0
C822 C 0.56021 0.25767 0.18119 0.0
C823 C 0.56578 0.24558 0.20618 0.0
C824 C 0.53724 0.26402 0.20423 0.0
C825 C 0.51939 0.25854 0.25402 0.0
C826 C 0.52524 0.24644 0.27921 0.0
C827 C 0.54795 0.24003 0.2552 0.0
H828 H 0.46355 0.98119 0.01878 0.0
H829 H 0.44236 0.01303 0.8888 0.0
H830 H 0.50289 0.99214 0.06227 0.0
H831 H 0.48249 0.02384 0.92897 0.0
H832 H 0.54411 0.04539 0.06534 0.0
H833 H 0.5041 0.03451 0.02576 0.0
H834 H 0.54466 0.99885 0.03405 0.0
H835 H 0.58415 1.00978 0.07739 0.0
C836 C 0.4675 0.99049 0.9986 0.0
C837 C 0.44976 0.99621 0.95015 0.0
C838 C 0.49027 0.99679 0.02328 0.0
C839 C 0.49628 1.00896 0.99942 0.0
C840 C 0.47855 0.01461 0.95011 0.0
C841 C 0.45554 1.00836 0.92633 0.0
C842 C 0.54439 0.03521 0.05923 0.0
C843 C 0.56735 0.02847 0.07497 0.0
C844 C 0.52143 0.02893 0.03568 0.0
C845 C 0.5208 0.0157 0.02596 0.0
C846 C 0.54391 1.00899 0.04193 0.0
C847 C 0.56675 0.01527 0.06657 0.0
H848 H 0.1064 0.56836 0.46545 0.0
H849 H 0.13009 0.52993 0.41698 0.0
H850 H 0.11417 0.56558 0.59786 0.0
H851 H 0.13769 0.52708 0.54995 0.0
H852 H 0.17296 0.53006 0.78485 0.0
H853 H 0.16617 0.53312 0.65195 0.0
H854 H 0.09687 0.55517 0.7037 0.0
H855 H 0.10386 0.55218 0.83658 0.0
C856 C 0.113 0.55926 0.48301 0.0
C857 C 0.11746 0.54935 0.43021 0.0
C858 C 0.11747 0.55766 0.55923 0.0
C859 C 0.12647 0.54609 0.58505 0.0
C860 C 0.1311 0.53619 0.53221 0.0
C861 C 0.1267 0.53781 0.4558 0.0
C862 C 0.15622 0.53552 0.76788 0.0
C863 C 0.13897 0.54086 0.82168 0.0
C864 C 0.15227 0.53726 0.69151 0.0
C865 C 0.1309 0.54436 0.66668 0.0
C866 C 0.11377 0.5498 0.72057 0.0
C867 C 0.11778 0.54809 0.79701 0.0
H868 H 0.07642 0.72125 0.80606 0.0
H869 H 0.15797 0.72896 0.85355 0.0
H870 H 0.08451 0.72383 0.67333 0.0
H871 H 0.16641 0.7312 0.7205 0.0
H872 H 0.16717 0.74711 0.48747 0.0
H873 H 0.15954 0.74433 0.61949 0.0
H874 H 0.10416 0.71457 0.56557 0.0
H875 H 0.11051 0.71789 0.43326 0.0
C876 C 0.09616 0.72338 0.78798 0.0
C877 C 0.11653 0.72491 0.84046 0.0
C878 C 0.10087 0.72481 0.71166 0.0
C879 C 0.12617 0.72768 0.68552 0.0
C880 C 0.14657 0.7292 0.73825 0.0
C881 C 0.14177 0.7279 0.81472 0.0
C882 C 0.15313 0.74005 0.5033 0.0
C883 C 0.13929 0.73285 0.44866 0.0
C884 C 0.14902 0.73832 0.57958 0.0
C885 C 0.13113 0.72924 0.60387 0.0
C886 C 0.11775 0.72182 0.54935 0.0
C887 C 0.12169 0.72362 0.47294 0.0
H888 H 0.88135 0.49428 0.60232 0.0
H889 H 0.91271 0.45723 0.55055 0.0
H890 H 0.87338 0.49714 0.46957 0.0
H891 H 0.90482 0.4601 0.4184 0.0
H892 H 0.91211 0.47451 0.18133 0.0
H893 H 0.92015 0.47193 0.31399 0.0
H894 H 0.84581 0.48961 0.36672 0.0
H895 H 0.83771 0.49217 0.23394 0.0
C896 C 0.88641 0.48671 0.56295 0.0
C897 C 0.89782 0.47554 0.58778 0.0
C898 C 0.88182 0.48835 0.48661 0.0
C899 C 0.88852 0.47887 0.43292 0.0
C900 C 0.89985 0.46771 0.45778 0.0
C901 C 0.9044 0.46606 0.53396 0.0
C902 C 0.8973 0.47774 0.2209 0.0
C903 C 0.87419 0.48354 0.19635 0.0
C904 C 0.90195 0.47627 0.29729 0.0
C905 C 0.88365 0.48056 0.35142 0.0
C906 C 0.86056 0.48637 0.32691 0.0
C907 C 0.8559 0.48783 0.25053 0.0
H908 H 0.93271 0.28698 0.19878 0.0
H909 H 0.86172 0.30755 0.15452 0.0
H910 H 0.92336 0.28839 0.33212 0.0
H911 H 0.85243 0.30913 0.28837 0.0
H912 H 0.8293 0.29557 0.52109 0.0
H913 H 0.83914 0.29641 0.38851 0.0
H914 H 0.92116 0.30226 0.44029 0.0
H915 H 0.91138 0.30081 0.57328 0.0
C916 C 0.91524 0.29195 0.21755 0.0
C917 C 0.89796 0.29713 0.16569 0.0
C918 C 0.90991 0.29281 0.29427 0.0
C919 C 0.88717 0.29892 0.32147 0.0
C920 C 0.86995 0.3042 0.26959 0.0
C921 C 0.87524 0.30328 0.19269 0.0
C922 C 0.84945 0.29703 0.50434 0.0
C923 C 0.86957 0.29796 0.5581 0.0
C924 C 0.85508 0.29766 0.42807 0.0
C925 C 0.881 0.29931 0.40323 0.0
C926 C 0.90102 0.30077 0.45717 0.0
C927 C 0.89537 0.3001 0.53366 0.0
H928 H 0.17453 0.03104 0.28968 0.0
H929 H 0.10317 0.05145 0.34138 0.0
H930 H 0.16731 0.03393 0.15679 0.0
H931 H 0.09584 0.05428 0.20852 0.0
H932 H 0.1044 0.06789 0.97062 0.0
H933 H 0.1123 0.06519 0.10301 0.0
H934 H 0.13925 0.02723 0.0546 0.0
H935 H 0.13145 0.02999 0.92164 0.0
C936 C 0.1572 0.03608 0.27275 0.0
C937 C 0.13945 0.041 0.32657 0.0
C938 C 0.15302 0.03772 0.19637 0.0
C939 C 0.13094 0.04431 0.17154 0.0
C940 C 0.11328 0.04932 0.22542 0.0
C941 C 0.11749 0.0477 0.30187 0.0
C942 C 0.11177 0.05892 0.98802 0.0
C943 C 0.11713 0.04914 0.93505 0.0
C944 C 0.11632 0.05736 0.06425 0.0
C945 C 0.12634 0.04597 0.08993 0.0
C946 C 0.13186 0.0362 0.03695 0.0
C947 C 0.12735 0.03777 0.96054 0.0
H948 H 0.07514 0.22134 0.29274 0.0
H949 H 0.15674 0.229 0.33953 0.0
H950 H 0.08299 0.22413 0.1601 0.0
H951 H 0.16496 0.23145 0.20653 0.0
H952 H 0.16566 0.24741 0.97376 0.0
H953 H 0.15805 0.24463 0.10579 0.0
H954 H 0.10243 0.21498 0.05192 0.0
H955 H 0.10874 0.2183 0.91972 0.0
C956 C 0.09484 0.2235 0.27451 0.0
C957 C 0.11529 0.22495 0.32678 0.0
C958 C 0.09942 0.22505 0.19824 0.0
C959 C 0.12468 0.22797 0.17189 0.0
C960 C 0.14515 0.22942 0.22443 0.0
C961 C 0.14048 0.228 0.30087 0.0
C962 C 0.15156 0.24038 0.98957 0.0
C963 C 0.13768 0.2332 0.93492 0.0
C964 C 0.14745 0.23866 0.06589 0.0
C965 C 0.12953 0.22959 0.09022 0.0
C966 C 0.11605 0.22222 0.03571 0.0
C967 C 0.11998 0.22402 0.9593 0.0
H968 H 0.89984 0.99661 0.11619 0.0
H969 H 0.89539 0.95627 0.08391 0.0
H970 H 0.89194 0.99897 0.98125 0.0
H971 H 0.88708 0.95859 0.95079 0.0
H972 H 0.83845 0.96995 0.74473 0.0
H973 H 0.84762 0.96899 0.87836 0.0
H974 H 0.91753 0.99125 0.85013 0.0
H975 H 0.90848 0.99204 0.71503 0.0
C976 C 0.89709 0.98829 0.08032 0.0
C977 C 0.89837 0.97626 0.11032 0.0
C978 C 0.89276 0.98962 1.00333 0.0
C979 C 0.88896 0.97895 0.95565 0.0
C980 C 0.88992 0.96697 0.98613 0.0
C981 C 0.89479 0.96564 0.06224 0.0
C982 C 0.85572 0.97468 0.76697 0.0
C983 C 0.87274 0.98108 0.71942 0.0
C984 C 0.861 0.97411 0.84341 0.0
C985 C 0.8832 0.9801 0.87465 0.0
C986 C 0.90016 0.98664 0.82752 0.0
C987 C 0.89513 0.987 0.75035 0.0
H988 H 0.90372 0.80456 0.09429 0.0
H989 H 0.84352 0.77703 0.03991 0.0
H990 H 0.91096 0.80751 0.96213 0.0
H991 H 0.85202 0.77939 0.90809 0.0
H992 H 0.85552 0.79469 0.6741 0.0
H993 H 0.84689 0.79254 0.80703 0.0
H994 H 0.92943 0.79799 0.85386 0.0
H995 H 0.93772 0.80052 0.72108 0.0
C996 C 0.89197 0.7991 0.05471 0.0
C997 C 0.87303 0.79048 0.07907 0.0
C998 C 0.89643 0.80068 0.97828 0.0
C999 C 0.88225 0.79364 0.92367 0.0
C1000 C 0.86318 0.78512 0.94798 0.0
C1001 C 0.85855 0.78362 0.02428 0.0
C1002 C 0.87182 0.79534 0.7128 0.0
C1003 C 0.89731 0.79778 0.68692 0.0
C1004 C 0.86691 0.79408 0.78925 0.0
C1005 C 0.88743 0.79509 0.84194 0.0
C1006 C 0.91299 0.79741 0.81564 0.0
C1007 C 0.91782 0.79881 0.73929 0.0
H1008 H 0.57928 0.55584 0.95895 0.0
H1009 H 0.65285 0.53737 0.90579 0.0
H1010 H 0.58699 0.5529 0.0913 0.0
H1011 H 0.66031 0.5343 0.03839 0.0
H1012 H 0.65093 0.51992 0.27688 0.0
H1013 H 0.64316 0.5226 0.14432 0.0
H1014 H 0.61642 0.56058 0.19177 0.0
H1015 H 0.62452 0.55801 0.32452 0.0
C1016 C 0.59718 0.55121 0.97517 0.0
C1017 C 0.61546 0.54692 0.92092 0.0
C1018 C 0.60159 0.54952 0.05138 0.0
C1019 C 0.62433 0.54341 0.07572 0.0
C1020 C 0.64244 0.53893 0.02164 0.0
C1021 C 0.63811 0.54068 0.94532 0.0
C1022 C 0.64364 0.52891 0.25945 0.0
C1023 C 0.6384 0.53875 0.31225 0.0
C1024 C 0.63916 0.53043 0.18306 0.0
C1025 C 0.62915 0.5418 0.15717 0.0
C1026 C 0.62379 0.55162 0.20978 0.0
C1027 C 0.62841 0.55014 0.28616 0.0
H1028 H 0.60985 0.71874 0.94551 0.0
H1029 H 0.66697 0.7478 0.99893 0.0
H1030 H 0.60315 0.71567 0.07764 0.0
H1031 H 0.65895 0.74527 0.13099 0.0
H1032 H 0.6572 0.72972 0.36525 0.0
H1033 H 0.66557 0.73219 0.23237 0.0
H1034 H 0.58363 0.72493 0.18518 0.0
H1035 H 0.57562 0.72211 0.31775 0.0
C1036 C 0.62105 0.72451 0.98488 0.0
C1037 C 0.63895 0.73359 0.96027 0.0
C1038 C 0.61689 0.72285 0.06131 0.0
C1039 C 0.63031 0.73028 0.11568 0.0
C1040 C 0.64839 0.73926 0.09119 0.0
C1041 C 0.65274 0.74084 0.01482 0.0
C1042 C 0.64097 0.72874 0.32647 0.0
C1043 C 0.61575 0.72569 0.35213 0.0
C1044 C 0.64573 0.73018 0.25009 0.0
C1045 C 0.62532 0.72874 0.19736 0.0
C1046 C 0.60001 0.72584 0.22348 0.0
C1047 C 0.59534 0.72428 0.2997 0.0
H1048 H 0.36028 0.48536 0.10292 0.0
H1049 H 0.43214 0.4654 0.0491 0.0
H1050 H 0.35281 0.48838 0.97033 0.0
H1051 H 0.42434 0.46828 0.91677 0.0
H1052 H 0.38612 0.46403 0.68361 0.0
H1053 H 0.39388 0.46119 0.81635 0.0
H1054 H 0.3713 0.49977 0.86456 0.0
H1055 H 0.36394 0.50272 0.73229 0.0
C1056 C 0.37464 0.48169 0.06329 0.0
C1057 C 0.39683 0.47508 0.08759 0.0
C1058 C 0.37029 0.48342 0.98695 0.0
C1059 C 0.3879 0.47852 0.9327 0.0
C1060 C 0.41013 0.47199 0.95685 0.0
C1061 C 0.41459 0.47034 0.0331 0.0
C1062 C 0.38303 0.47197 0.72212 0.0
C1063 C 0.37435 0.48361 0.69626 0.0
C1064 C 0.38747 0.47032 0.7985 0.0
C1065 C 0.38318 0.48025 0.8513 0.0
C1066 C 0.37443 0.49186 0.82567 0.0
C1067 C 0.37017 0.49354 0.74936 0.0
H1068 H 0.38084 0.27061 0.03849 0.0
H1069 H 0.37116 0.31058 0.08005 0.0
H1070 H 0.38732 0.27399 0.90617 0.0
H1071 H 0.37708 0.31403 0.94676 0.0
H1072 H 0.41528 0.31686 0.71721 0.0
H1073 H 0.40859 0.31365 0.84916 0.0
H1074 H 0.36556 0.27948 0.79541 0.0
H1075 H 0.37354 0.28227 0.66331 0.0
C1076 C 0.37975 0.28013 0.01919 0.0
C1077 C 0.37533 0.29032 0.06995 0.0
C1078 C 0.38341 0.28208 0.94301 0.0
C1079 C 0.38258 0.29428 0.91513 0.0
C1080 C 0.37822 0.3045 0.96605 0.0
C1081 C 0.37477 0.30255 0.04254 0.0
C1082 C 0.40466 0.30856 0.73295 0.0
C1083 C 0.3952 0.29979 0.67843 0.0
C1084 C 0.40047 0.30681 0.80922 0.0
C1085 C 0.38653 0.29629 0.83354 0.0
C1086 C 0.37675 0.28761 0.77915 0.0
C1087 C 0.38108 0.2893 0.70283 0.0
H1088 H 0.57901 0.0572 0.45868 0.0
H1089 H 0.6474 0.03447 0.40898 0.0
H1090 H 0.58522 0.05415 0.59188 0.0
H1091 H 0.6538 0.03146 0.54234 0.0
H1092 H 0.64582 0.02008 0.78426 0.0
H1093 H 0.63661 0.02187 0.65185 0.0
H1094 H 0.61461 0.06079 0.69124 0.0
H1095 H 0.62379 0.05896 0.82439 0.0
C1096 C 0.59535 0.05151 0.47619 0.0
C1097 C 0.61275 0.04612 0.42295 0.0
C1098 C 0.59899 0.04981 0.55272 0.0
C1099 C 0.62019 0.04267 0.57834 0.0
C1100 C 0.6371 0.03692 0.52488 0.0
C1101 C 0.6334 0.03861 0.44819 0.0
C1102 C 0.63922 0.02907 0.76489 0.0
C1103 C 0.63581 0.03942 0.81536 0.0
C1104 C 0.6339 0.03009 0.68861 0.0
C1105 C 0.62498 0.04149 0.66032 0.0
C1106 C 0.62113 0.0518 0.71094 0.0
C1107 C 0.62643 0.05077 0.78745 0.0
H1108 H 0.64555 0.23989 0.86802 0.0
H1109 H 0.58016 0.21527 0.8146 0.0
H1110 H 0.65237 0.24304 0.73546 0.0
H1111 H 0.58813 0.21768 0.68261 0.0
H1112 H 0.5957 0.23143 0.44625 0.0
H1113 H 0.58602 0.2304 0.5796 0.0
H1114 H 0.66905 0.23262 0.62846 0.0
H1115 H 0.67835 0.23412 0.49565 0.0
C1116 C 0.6325 0.23518 0.8284 0.0
C1117 C 0.61244 0.22721 0.85287 0.0
C1118 C 0.63669 0.23684 0.75187 0.0
C1119 C 0.62108 0.23048 0.69749 0.0
C1120 C 0.60051 0.22283 0.72219 0.0
C1121 C 0.59615 0.2213 0.79853 0.0
C1122 C 0.61182 0.23162 0.48566 0.0
C1123 C 0.63777 0.23286 0.46044 0.0
C1124 C 0.60633 0.23102 0.56229 0.0
C1125 C 0.62672 0.23147 0.61564 0.0
C1126 C 0.65271 0.23255 0.58982 0.0
C1127 C 0.65812 0.23332 0.51344 0.0
H1128 H 0.35588 0.97987 0.60942 0.0
H1129 H 0.4371 0.97146 0.56119 0.0
H1130 H 0.34753 0.98222 0.47649 0.0
H1131 H 0.4291 0.97415 0.42855 0.0
H1132 H 0.40282 0.96852 0.18853 0.0
H1133 H 0.40913 0.96513 0.32074 0.0
H1134 H 0.35482 0.99528 0.37542 0.0
H1135 H 0.34723 0.99814 0.24349 0.0
C1136 C 0.37204 0.97868 0.57047 0.0
C1137 C 0.39715 0.97546 0.59601 0.0
C1138 C 0.36728 0.98004 0.49405 0.0
C1139 C 0.3876 0.97836 0.44109 0.0
C1140 C 0.41278 0.97526 0.46703 0.0
C1141 C 0.41745 0.97377 0.54331 0.0
C1142 C 0.39186 0.97432 0.22835 0.0
C1143 C 0.37457 0.98368 0.20428 0.0
C1144 C 0.39579 0.97248 0.30472 0.0
C1145 C 0.38269 0.97999 0.35946 0.0
C1146 C 0.36512 0.98921 0.33538 0.0
C1147 C 0.36103 0.99097 0.25913 0.0
H1148 H 0.38151 0.78071 0.17025 0.0
H1149 H 0.40837 0.81866 0.21944 0.0
H1150 H 0.3737 0.77791 0.30319 0.0
H1151 H 0.40047 0.8159 0.35183 0.0
H1152 H 0.4093 0.80223 0.59034 0.0
H1153 H 0.4168 0.80506 0.4575 0.0
H1154 H 0.34558 0.78449 0.40548 0.0
H1155 H 0.3382 0.78161 0.53835 0.0
C1156 C 0.38557 0.7885 0.20918 0.0
C1157 C 0.39573 0.79989 0.1837 0.0
C1158 C 0.38106 0.7869 0.28561 0.0
C1159 C 0.38651 0.79667 0.33868 0.0
C1160 C 0.3965 0.80808 0.31303 0.0
C1161 C 0.40105 0.80966 0.23677 0.0
C1162 C 0.39507 0.79843 0.55077 0.0
C1163 C 0.37312 0.79168 0.57543 0.0
C1164 C 0.39938 0.80004 0.47432 0.0
C1165 C 0.38184 0.79499 0.42033 0.0
C1166 C 0.35979 0.78833 0.4451 0.0
C1167 C 0.35551 0.78669 0.5215 0.0
H1168 H 0.16508 0.60426 0.24015 0.0
H1169 H 0.14267 0.60562 1.00781 0.0
H1170 H 0.16877 0.62709 0.24666 0.0
H1171 H 0.14446 0.62843 0.01579 0.0
H1172 H 0.1653 0.66964 0.02982 0.0
H1173 H 0.16912 0.64681 0.02333 0.0
H1174 H 0.14396 0.6454 0.25359 0.0
H1175 H 0.14204 0.66821 0.26159 0.0
C1176 C 0.16107 0.60936 0.19015 0.0
C1177 C 0.15338 0.6029 0.12355 0.0
C1178 C 0.16277 0.62258 0.19423 0.0
C1179 C 0.15665 0.62983 0.13204 0.0
C1180 C 0.14962 0.62334 0.06496 0.0
C1181 C 0.14817 0.61014 0.06069 0.0
C1182 C 0.16113 0.66452 0.0797 0.0
C1183 C 0.15316 0.67096 0.14613 0.0
C1184 C 0.1629 0.65131 0.07562 0.0
C1185 C 0.15659 0.64404 0.13764 0.0
C1186 C 0.14928 0.65051 0.20455 0.0
C1187 C 0.14775 0.66371 0.20883 0.0
H1188 H 0.86158 0.4189 0.76613 0.0
H1189 H 0.85444 0.4196 1.00645 0.0
H1190 H 0.85992 0.39589 0.76321 0.0
H1191 H 0.85202 0.39671 1.00381 0.0
H1192 H 0.8817 0.35638 0.98621 0.0
H1193 H 0.87905 0.37915 0.98673 0.0
H1194 H 0.83604 0.37693 0.77872 0.0
H1195 H 0.84004 0.35401 0.77613 0.0
C1196 C 0.85912 0.41416 0.81826 0.0
C1197 C 0.85838 0.42115 0.88657 0.0
C1198 C 0.85814 0.40091 0.81668 0.0
C1199 C 0.85618 0.39426 0.88337 0.0
C1200 C 0.85428 0.40135 0.95129 0.0
C1201 C 0.85551 0.41454 0.95287 0.0
C1202 C 0.87182 0.36069 0.94006 0.0
C1203 C 0.86133 0.3532 0.88076 0.0
C1204 C 0.86994 0.37385 0.94092 0.0
C1205 C 0.85726 0.38008 0.88284 0.0
C1206 C 0.84625 0.37259 0.82413 0.0
C1207 C 0.84824 0.35937 0.82314 0.0
H1208 H 0.10868 0.10555 0.6676 0.0
H1209 H 0.19018 0.10419 0.60355 0.0
H1210 H 0.1099 0.1284 0.67091 0.0
H1211 H 0.19133 0.12726 0.60248 0.0
H1212 H 0.18927 0.17009 0.66332 0.0
H1213 H 0.191 0.14703 0.66497 0.0
H1214 H 0.10974 0.1453 0.59573 0.0
H1215 H 0.10793 0.16814 0.59838 0.0
C1216 C 0.12689 0.11019 0.65374 0.0
C1217 C 0.14927 0.10305 0.63489 0.0
C1218 C 0.12759 0.12337 0.65476 0.0
C1219 C 0.15057 0.12991 0.6353 0.0
C1220 C 0.17325 0.12271 0.61825 0.0
C1221 C 0.17264 0.10945 0.6186 0.0
C1222 C 0.17188 0.16471 0.64828 0.0
C1223 C 0.14839 0.17094 0.63155 0.0
C1224 C 0.17283 0.15145 0.64895 0.0
C1225 C 0.15038 0.14409 0.63178 0.0
C1226 C 0.12726 0.15046 0.61199 0.0
C1227 C 0.12623 0.16363 0.61268 0.0
H1228 H 0.83365 0.91926 0.32433 0.0
H1229 H 0.88039 0.91693 0.52432 0.0
H1230 H 0.82989 0.89627 0.31743 0.0
H1231 H 0.87733 0.89407 0.51639 0.0
H1232 H 0.85333 0.85313 0.51682 0.0
H1233 H 0.84962 0.87601 0.52772 0.0
H1234 H 0.85703 0.87809 0.28807 0.0
H1235 H 0.85977 0.85521 0.27695 0.0
C1236 C 0.84286 0.91387 0.36733 0.0
C1237 C 0.85749 0.92001 0.42454 0.0
C1238 C 0.84098 0.90065 0.36293 0.0
C1239 C 0.85346 0.89319 0.41604 0.0
C1240 C 0.86724 0.8994 0.47472 0.0
C1241 C 0.86924 0.91257 0.47885 0.0
C1242 C 0.85366 0.85842 0.46621 0.0
C1243 C 0.85698 0.8522 0.39598 0.0
C1244 C 0.85185 0.87161 0.47256 0.0
C1245 C 0.85321 0.87903 0.40887 0.0
C1246 C 0.85568 0.87278 0.33846 0.0
C1247 C 0.85757 0.8596 0.33214 0.0
H1248 H 0.68887 0.66953 0.62449 0.0
H1249 H 0.60612 0.66763 0.67611 0.0
H1250 H 0.69035 0.64653 0.61326 0.0
H1251 H 0.60811 0.645 0.6713 0.0
H1252 H 0.6084 0.60533 0.58515 0.0
H1253 H 0.60987 0.62797 0.59023 0.0
H1254 H 0.6893 0.62695 0.67405 0.0
H1255 H 0.68861 0.60394 0.66273 0.0
C1256 C 0.67102 0.66429 0.63385 0.0
C1257 C 0.64743 0.67066 0.65184 0.0
C1258 C 0.67195 0.65102 0.62841 0.0
C1259 C 0.64933 0.64371 0.64095 0.0
C1260 C 0.62592 0.65013 0.65958 0.0
C1261 C 0.62492 0.66328 0.66398 0.0
C1262 C 0.62654 0.60979 0.60307 0.0
C1263 C 0.64853 0.60255 0.6224 0.0
C1264 C 0.62718 0.62295 0.60758 0.0
C1265 C 0.6496 0.62952 0.63349 0.0
C1266 C 0.67168 0.62234 0.65319 0.0
C1267 C 0.67117 0.60907 0.64766 0.0
H1268 H 0.34766 0.4188 0.27785 0.0
H1269 H 0.36825 0.41819 0.51217 0.0
H1270 H 0.34525 0.3958 0.27334 0.0
H1271 H 0.36732 0.39529 0.5056 0.0
H1272 H 0.4004 0.35585 0.42013 0.0
H1273 H 0.39719 0.37885 0.42891 0.0
H1274 H 0.31876 0.37678 0.33877 0.0
H1275 H 0.32174 0.35361 0.33208 0.0
C1276 C 0.35137 0.41389 0.32869 0.0
C1277 C 0.35853 0.42058 0.39519 0.0
C1278 C 0.35011 0.40064 0.32581 0.0
C1279 C 0.35638 0.39371 0.38889 0.0
C1280 C 0.36275 0.40034 0.45573 0.0
C1281 C 0.36349 0.41354 0.45912 0.0
C1282 C 0.38241 0.3603 0.40265 0.0
C1283 C 0.3613 0.35293 0.37557 0.0
C1284 C 0.38054 0.37346 0.40784 0.0
C1285 C 0.35774 0.37964 0.38448 0.0
C1286 C 0.33662 0.37229 0.35693 0.0
C1287 C 0.33825 0.35905 0.35347 0.0
H1288 H 0.63857 0.16706 0.26969 0.0
H1289 H 0.67416 0.1708 0.05271 0.0
H1290 H 0.64134 0.14417 0.25498 0.0
H1291 H 0.6772 0.14783 0.03815 0.0
H1292 H 0.6445 0.10687 1.00389 0.0
H1293 H 0.64688 0.12978 0.01898 0.0
H1294 H 0.67195 0.12628 0.24763 0.0
H1295 H 0.6692 0.10337 0.23287 0.0
C1296 C 0.6472 0.163 0.219 0.0
C1297 C 0.65606 0.17083 0.1623 0.0
C1298 C 0.64897 0.14984 0.21076 0.0
C1299 C 0.65941 0.14407 0.1452 0.0
C1300 C 0.6688 0.1519 0.08911 0.0
C1301 C 0.66732 0.1651 0.09777 0.0
C1302 C 0.65059 0.11097 0.05738 0.0
C1303 C 0.65658 0.10318 0.11717 0.0
C1304 C 0.65219 0.12414 0.06586 0.0
C1305 C 0.65954 0.12997 0.13464 0.0
C1306 C 0.66598 0.12218 0.19403 0.0
C1307 C 0.66466 0.109 0.18531 0.0
H1308 H 0.40347 0.85619 0.91825 0.0
H1309 H 0.32148 0.85496 0.85994 0.0
H1310 H 0.4022 0.87904 0.92471 0.0
H1311 H 0.32025 0.87805 0.86201 0.0
H1312 H 0.32258 0.92066 0.929 0.0
H1313 H 0.32095 0.89757 0.92707 0.0
H1314 H 0.40171 0.89629 0.85251 0.0
H1315 H 0.40345 0.91913 0.85883 0.0
C1316 C 0.38514 0.86087 0.90626 0.0
C1317 C 0.36264 0.85376 0.88812 0.0
C1318 C 0.38441 0.87405 0.90912 0.0
C1319 C 0.36125 0.88064 0.89226 0.0
C1320 C 0.33847 0.87346 0.87582 0.0
C1321 C 0.33913 0.86019 0.87435 0.0
C1322 C 0.33987 0.91536 0.91203 0.0
C1323 C 0.36322 0.92171 0.89488 0.0
C1324 C 0.33899 0.9021 0.91063 0.0
C1325 C 0.36134 0.89484 0.8909 0.0
C1326 C 0.38429 0.90135 0.87069 0.0
C1327 C 0.38527 0.91452 0.87347 0.0
loop_
_geom_bond_atom_site_label_1
_geom_bond_atom_site_label_2
_geom_bond_distance
_geom_bond_site_symmetry_2
_ccdc_geom_bond_type
Co0 N4 2.148 . S
Co0 N10 2.128 . S
Co0 N20 2.194 . S
Co0 O25 2.351 . S
Co0 O26 2.155 . S
Co0 O27 2.096 . S
C1 N4 1.301 1_556 S
C1 N5 1.328 . S
C1 H6 0.930 . S
C2 C3 1.333 . S
C2 N4 1.317 1_556 S
C2 H7 0.930 1_556 S
C3 C2 1.333 . S
C3 N5 1.350 . S
C3 H29 0.931 . S
N4 Co0 2.148 . S
N4 C1 1.301 1_554 S
N4 C2 1.317 1_554 S
N5 C1 1.328 . S
N5 C3 1.350 . S
H6 C1 0.930 . S
H7 C2 0.930 1_554 S
C8 O9 1.224 . S
C8 O27 1.247 . S
O9 C8 1.224 . S
N10 Co0 2.128 . S
N10 C11 1.355 . S
N10 C13 1.311 . S
C11 N10 1.355 . S
C11 C12 1.363 . S
C11 H23 0.929 . S
C12 C11 1.363 . S
C12 N14 1.375 . S
C12 H30 0.931 . S
C13 N10 1.311 . S
C13 N14 1.347 . S
C13 H24 0.929 . S
N14 C12 1.375 . S
N14 C13 1.347 . S
C15 C18 1.365 . S
C15 N20 1.328 . S
C15 H21 0.929 . S
C16 C17 1.362 . S
C16 C19 1.378 . S
C16 H31 0.929 . S
C17 C16 1.362 . S
C17 C18 1.366 . S
C18 C15 1.365 . S
C18 C17 1.366 . S
C18 H32 0.930 . S
C19 C16 1.378 . S
C19 N20 1.315 . S
C19 H22 0.930 . S
N20 Co0 2.194 . S
N20 C15 1.328 . S
N20 C19 1.315 . S
H21 C15 0.929 . S
H22 C19 0.930 . S
H23 C11 0.929 . S
H24 C13 0.929 . S
O25 Co0 2.351 . S
O25 C28 1.244 . S
O26 Co0 2.155 . S
O26 C28 1.240 . S
O27 Co0 2.096 . S
O27 C8 1.247 . S
C28 O25 1.244 . S
C28 O26 1.240 . S
H29 C3 0.931 . S
H30 C12 0.931 . S
H31 C16 0.929 . S
H32 C18 0.930 . S
Co33 N37 2.148 . S
Co33 N43 2.128 . S
Co33 N53 2.194 . S
Co33 O58 2.351 . S
Co33 O59 2.155 . S
Co33 O60 2.096 . S
C34 N37 1.301 . S
C34 N38 1.328 . S
C34 H39 0.930 . S
C35 C36 1.333 . S
C35 N37 1.317 . S
C35 H40 0.930 . S
C36 C35 1.333 . S
C36 N38 1.350 . S
C36 H62 0.931 . S
N37 Co33 2.148 . S
N37 C34 1.301 . S
N37 C35 1.317 . S
N38 C34 1.328 . S
N38 C36 1.350 . S
H39 C34 0.930 . S
H40 C35 0.930 . S
C41 O42 1.224 . S
C41 O60 1.247 . S
O42 C41 1.224 . S
N43 Co33 2.128 . S
N43 C44 1.355 1_554 S
N43 C46 1.311 1_554 S
C44 N43 1.355 1_556 S
C44 C45 1.363 . S
C44 H56 0.929 1_556 S
C45 C44 1.363 . S
C45 N47 1.375 . S
C45 H63 0.931 . S
C46 N43 1.311 1_556 S
C46 N47 1.347 . S
C46 H57 0.929 . S
N47 C45 1.375 . S
N47 C46 1.347 . S
C48 C51 1.365 . S
C48 N53 1.328 . S
C48 H54 0.929 . S
C49 C50 1.362 . S
C49 C52 1.378 . S
C49 H64 0.929 . S
C50 C49 1.362 . S
C50 C51 1.366 . S
C51 C48 1.365 . S
C51 C50 1.366 . S
C51 H65 0.930 . S
C52 C49 1.378 . S
C52 N53 1.315 . S
C52 H55 0.930 . S
N53 Co33 2.194 . S
N53 C48 1.328 . S
N53 C52 1.315 . S
H54 C48 0.929 . S
H55 C52 0.930 . S
H56 C44 0.929 1_554 S
H57 C46 0.929 . S
O58 Co33 2.351 . S
O58 C61 1.244 . S
O59 Co33 2.155 . S
O59 C61 1.240 . S
O60 Co33 2.096 . S
O60 C41 1.247 . S
C61 O58 1.244 . S
C61 O59 1.240 . S
H62 C36 0.931 . S
H63 C45 0.931 . S
H64 C49 0.929 . S
H65 C51 0.930 . S
Co66 N70 2.148 . S
Co66 N76 2.128 . S
Co66 N86 2.194 . S
Co66 O91 2.351 . S
Co66 O92 2.155 . S
Co66 O93 2.096 . S
C67 N70 1.301 1_554 S
C67 N71 1.328 . S
C67 H72 0.930 . S
C68 C69 1.333 . S
C68 N70 1.317 1_554 S
C68 H73 0.930 1_554 S
C69 C68 1.333 . S
C69 N71 1.350 . S
C69 H95 0.931 . S
N70 Co66 2.148 . S
N70 C67 1.301 1_556 S
N70 C68 1.317 1_556 S
N71 C67 1.328 . S
N71 C69 1.350 . S
H72 C67 0.930 . S
H73 C68 0.930 1_556 S
C74 O75 1.224 . S
C74 O93 1.247 . S
O75 C74 1.224 . S
N76 Co66 2.128 . S
N76 C77 1.355 . S
N76 C79 1.311 . S
C77 N76 1.355 . S
C77 C78 1.363 . S
C77 H89 0.929 . S
C78 C77 1.363 . S
C78 N80 1.375 . S
C78 H96 0.931 . S
C79 N76 1.311 . S
C79 N80 1.347 . S
C79 H90 0.929 . S
N80 C78 1.375 . S
N80 C79 1.347 . S
C81 C84 1.365 . S
C81 N86 1.328 . S
C81 H87 0.929 . S
C82 C83 1.362 . S
C82 C85 1.378 . S
C82 H97 0.929 . S
C83 C82 1.362 . S
C83 C84 1.366 . S
C84 C81 1.365 . S
C84 C83 1.366 . S
C84 H98 0.930 . S
C85 C82 1.378 . S
C85 N86 1.315 . S
C85 H88 0.930 . S
N86 Co66 2.194 . S
N86 C81 1.328 . S
N86 C85 1.315 . S
H87 C81 0.929 . S
H88 C85 0.930 . S
H89 C77 0.929 . S
H90 C79 0.929 . S
O91 Co66 2.351 . S
O91 C94 1.244 . S
O92 Co66 2.155 . S
O92 C94 1.240 . S
O93 Co66 2.096 . S
O93 C74 1.247 . S
C94 O91 1.244 . S
C94 O92 1.240 . S
H95 C69 0.931 . S
H96 C78 0.931 . S
H97 C82 0.929 . S
H98 C84 0.930 . S
Co99 N103 2.148 . S
Co99 N109 2.128 . S
Co99 N119 2.194 . S
Co99 O124 2.351 . S
Co99 O125 2.155 . S
Co99 O126 2.096 . S
C100 N103 1.301 . S
C100 N104 1.328 . S
C100 H105 0.930 . S
C101 C102 1.333 . S
C101 N103 1.317 . S
C101 H106 0.930 . S
C102 C101 1.333 . S
C102 N104 1.350 . S
C102 H128 0.931 . S
N103 Co99 2.148 . S
N103 C100 1.301 . S
N103 C101 1.317 . S
N104 C100 1.328 . S
N104 C102 1.350 . S
H105 C100 0.930 . S
H106 C101 0.930 . S
C107 O108 1.224 . S
C107 O126 1.247 . S
O108 C107 1.224 . S
N109 Co99 2.128 . S
N109 C110 1.355 1_556 S
N109 C112 1.311 1_556 S
C110 N109 1.355 1_554 S
C110 C111 1.363 . S
C110 H122 0.929 1_554 S
C111 C110 1.363 . S
C111 N113 1.375 . S
C111 H129 0.931 . S
C112 N109 1.311 1_554 S
C112 N113 1.347 . S
C112 H123 0.929 . S
N113 C111 1.375 . S
N113 C112 1.347 . S
C114 C117 1.365 . S
C114 N119 1.328 . S
C114 H120 0.929 . S
C115 C116 1.362 . S
C115 C118 1.378 . S
C115 H130 0.929 . S
C116 C115 1.362 . S
C116 C117 1.366 . S
C117 C114 1.365 . S
C117 C116 1.366 . S
C117 H131 0.930 . S
C118 C115 1.378 . S
C118 N119 1.315 . S
C118 H121 0.930 . S
N119 Co99 2.194 . S
N119 C114 1.328 . S
N119 C118 1.315 . S
H120 C114 0.929 . S
H121 C118 0.930 . S
H122 C110 0.929 1_556 S
H123 C112 0.929 . S
O124 Co99 2.351 . S
O124 C127 1.244 . S
O125 Co99 2.155 . S
O125 C127 1.240 . S
O126 Co99 2.096 . S
O126 C107 1.247 . S
C127 O124 1.244 . S
C127 O125 1.240 . S
H128 C102 0.931 . S
H129 C111 0.931 . S
H130 C115 0.929 . S
H131 C117 0.930 . S
Co132 N136 2.148 . S
Co132 N142 2.128 . S
Co132 N152 2.194 . S
Co132 O157 2.351 . S
Co132 O158 2.155 . S
Co132 O159 2.096 . S
C133 N136 1.301 . S
C133 N137 1.328 . S
C133 H138 0.930 . S
C134 C135 1.333 . S
C134 N136 1.317 . S
C134 H139 0.930 . S
C135 C134 1.333 . S
C135 N137 1.350 . S
C135 H161 0.931 . S
N136 Co132 2.148 . S
N136 C133 1.301 . S
N136 C134 1.317 . S
N137 C133 1.328 . S
N137 C135 1.350 . S
H138 C133 0.930 . S
H139 C134 0.930 . S
C140 O141 1.224 . S
C140 O159 1.247 . S
O141 C140 1.224 . S
N142 Co132 2.128 . S
N142 C143 1.355 . S
N142 C145 1.311 . S
C143 N142 1.355 . S
C143 C144 1.363 . S
C143 H155 0.929 . S
C144 C143 1.363 . S
C144 N146 1.375 . S
C144 H162 0.931 . S
C145 N142 1.311 . S
C145 N146 1.347 . S
C145 H156 0.929 . S
N146 C144 1.375 . S
N146 C145 1.347 . S
C147 C150 1.365 . S
C147 N152 1.328 . S
C147 H153 0.929 . S
C148 C149 1.362 . S
C148 C151 1.378 . S
C148 H163 0.929 . S
C149 C148 1.362 . S
C149 C150 1.366 . S
C150 C147 1.365 . S
C150 C149 1.366 . S
C150 H164 0.930 . S
C151 C148 1.378 . S
C151 N152 1.315 . S
C151 H154 0.930 . S
N152 Co132 2.194 . S
N152 C147 1.328 . S
N152 C151 1.315 . S
H153 C147 0.929 . S
H154 C151 0.930 . S
H155 C143 0.929 . S
H156 C145 0.929 . S
O157 Co132 2.351 . S
O157 C160 1.244 . S
O158 Co132 2.155 . S
O158 C160 1.240 . S
O159 Co132 2.096 . S
O159 C140 1.247 . S
C160 O157 1.244 . S
C160 O158 1.240 . S
H161 C135 0.931 . S
H162 C144 0.931 . S
H163 C148 0.929 . S
H164 C150 0.930 . S
Co165 N169 2.148 . S
Co165 N175 2.128 . S
Co165 N185 2.194 . S
Co165 O190 2.351 . S
Co165 O191 2.155 . S
Co165 O192 2.096 . S
C166 N169 1.301 . S
C166 N170 1.328 . S
C166 H171 0.930 . S
C167 C168 1.333 . S
C167 N169 1.317 . S
C167 H172 0.930 . S
C168 C167 1.333 . S
C168 N170 1.350 . S
C168 H194 0.931 . S
N169 Co165 2.148 . S
N169 C166 1.301 . S
N169 C167 1.317 . S
N170 C166 1.328 . S
N170 C168 1.350 . S
H171 C166 0.930 . S
H172 C167 0.930 . S
C173 O174 1.224 . S
C173 O192 1.247 . S
O174 C173 1.224 . S
N175 Co165 2.128 . S
N175 C176 1.355 . S
N175 C178 1.311 . S
C176 N175 1.355 . S
C176 C177 1.363 . S
C176 H188 0.929 . S
C177 C176 1.363 . S
C177 N179 1.375 . S
C177 H195 0.931 . S
C178 N175 1.311 . S
C178 N179 1.347 . S
C178 H189 0.929 . S
N179 C177 1.375 . S
N179 C178 1.347 . S
C180 C183 1.365 . S
C180 N185 1.328 . S
C180 H186 0.929 . S
C181 C182 1.362 . S
C181 C184 1.378 . S
C181 H196 0.929 . S
C182 C181 1.362 . S
C182 C183 1.366 . S
C183 C180 1.365 . S
C183 C182 1.366 . S
C183 H197 0.930 . S
C184 C181 1.378 . S
C184 N185 1.315 . S
C184 H187 0.930 . S
N185 Co165 2.194 . S
N185 C180 1.328 . S
N185 C184 1.315 . S
H186 C180 0.929 . S
H187 C184 0.930 . S
H188 C176 0.929 . S
H189 C178 0.929 . S
O190 Co165 2.351 . S
O190 C193 1.244 . S
O191 Co165 2.155 . S
O191 C193 1.240 . S
O192 Co165 2.096 . S
O192 C173 1.247 . S
C193 O190 1.244 . S
C193 O191 1.240 . S
H194 C168 0.931 . S
H195 C177 0.931 . S
H196 C181 0.929 . S
H197 C183 0.930 . S
Co198 N202 2.148 . S
Co198 N208 2.128 . S
Co198 N218 2.194 . S
Co198 O223 2.351 . S
Co198 O224 2.155 . S
Co198 O225 2.096 . S
C199 N202 1.301 . S
C199 N203 1.328 . S
C199 H204 0.930 . S
C200 C201 1.333 . S
C200 N202 1.317 . S
C200 H205 0.930 . S
C201 C200 1.333 . S
C201 N203 1.350 . S
C201 H227 0.931 . S
N202 Co198 2.148 . S
N202 C199 1.301 . S
N202 C200 1.317 . S
N203 C199 1.328 . S
N203 C201 1.350 . S
H204 C199 0.930 . S
H205 C200 0.930 . S
C206 O207 1.224 . S
C206 O225 1.247 . S
O207 C206 1.224 . S
N208 Co198 2.128 . S
N208 C209 1.355 . S
N208 C211 1.311 . S
C209 N208 1.355 . S
C209 C210 1.363 . S
C209 H221 0.929 . S
C210 C209 1.363 . S
C210 N212 1.375 . S
C210 H228 0.931 . S
C211 N208 1.311 . S
C211 N212 1.347 . S
C211 H222 0.929 . S
N212 C210 1.375 . S
N212 C211 1.347 . S
C213 C216 1.365 . S
C213 N218 1.328 . S
C213 H219 0.929 . S
C214 C215 1.362 . S
C214 C217 1.378 . S
C214 H229 0.929 . S
C215 C214 1.362 . S
C215 C216 1.366 . S
C216 C213 1.365 . S
C216 C215 1.366 . S
C216 H230 0.930 . S
C217 C214 1.378 . S
C217 N218 1.315 . S
C217 H220 0.930 . S
N218 Co198 2.194 . S
N218 C213 1.328 . S
N218 C217 1.315 . S
H219 C213 0.929 . S
H220 C217 0.930 . S
H221 C209 0.929 . S
H222 C211 0.929 . S
O223 Co198 2.351 . S
O223 C226 1.244 . S
O224 Co198 2.155 . S
O224 C226 1.240 . S
O225 Co198 2.096 . S
O225 C206 1.247 . S
C226 O223 1.244 . S
C226 O224 1.240 . S
H227 C201 0.931 . S
H228 C210 0.931 . S
H229 C214 0.929 . S
H230 C216 0.930 . S
Co231 N235 2.148 . S
Co231 N241 2.128 . S
Co231 N251 2.194 . S
Co231 O256 2.351 . S
Co231 O257 2.155 . S
Co231 O258 2.096 . S
C232 N235 1.301 . S
C232 N236 1.328 . S
C232 H237 0.930 . S
C233 C234 1.333 . S
C233 N235 1.317 . S
C233 H238 0.930 . S
C234 C233 1.333 . S
C234 N236 1.350 . S
C234 H260 0.931 . S
N235 Co231 2.148 . S
N235 C232 1.301 . S
N235 C233 1.317 . S
N236 C232 1.328 . S
N236 C234 1.350 . S
H237 C232 0.930 . S
H238 C233 0.930 . S
C239 O240 1.224 . S
C239 O258 1.247 . S
O240 C239 1.224 . S
N241 Co231 2.128 . S
N241 C242 1.355 . S
N241 C244 1.311 . S
C242 N241 1.355 . S
C242 C243 1.363 . S
C242 H254 0.929 . S
C243 C242 1.363 . S
C243 N245 1.375 . S
C243 H261 0.931 . S
C244 N241 1.311 . S
C244 N245 1.347 . S
C244 H255 0.929 . S
N245 C243 1.375 . S
N245 C244 1.347 . S
C246 C249 1.365 . S
C246 N251 1.328 . S
C246 H252 0.929 . S
C247 C248 1.362 . S
C247 C250 1.378 . S
C247 H262 0.929 . S
C248 C247 1.362 . S
C248 C249 1.366 . S
C249 C246 1.365 . S
C249 C248 1.366 . S
C249 H263 0.930 . S
C250 C247 1.378 . S
C250 N251 1.315 . S
C250 H253 0.930 . S
N251 Co231 2.194 . S
N251 C246 1.328 . S
N251 C250 1.315 . S
H252 C246 0.929 . S
H253 C250 0.930 . S
H254 C242 0.929 . S
H255 C244 0.929 . S
O256 Co231 2.351 . S
O256 C259 1.244 . S
O257 Co231 2.155 . S
O257 C259 1.240 . S
O258 Co231 2.096 . S
O258 C239 1.247 . S
C259 O256 1.244 . S
C259 O257 1.240 . S
H260 C234 0.931 . S
H261 C243 0.931 . S
H262 C247 0.929 . S
H263 C249 0.930 . S
Co264 N268 2.148 . S
Co264 N274 2.128 . S
Co264 N284 2.194 . S
Co264 O289 2.351 . S
Co264 O290 2.155 . S
Co264 O291 2.096 . S
C265 N268 1.301 . S
C265 N269 1.328 . S
C265 H270 0.930 . S
C266 C267 1.333 . S
C266 N268 1.317 . S
C266 H271 0.930 . S
C267 C266 1.333 . S
C267 N269 1.350 . S
C267 H293 0.931 . S
N268 Co264 2.148 . S
N268 C265 1.301 . S
N268 C266 1.317 . S
N269 C265 1.328 . S
N269 C267 1.350 . S
H270 C265 0.930 . S
H271 C266 0.930 . S
C272 O273 1.224 . S
C272 O291 1.247 . S
O273 C272 1.224 . S
N274 Co264 2.128 . S
N274 C275 1.355 . S
N274 C277 1.311 . S
C275 N274 1.355 . S
C275 C276 1.363 . S
C275 H287 0.929 . S
C276 C275 1.363 . S
C276 N278 1.375 . S
C276 H294 0.931 . S
C277 N274 1.311 . S
C277 N278 1.347 . S
C277 H288 0.929 . S
N278 C276 1.375 . S
N278 C277 1.347 . S
C279 C282 1.365 . S
C279 N284 1.328 . S
C279 H285 0.929 . S
C280 C281 1.362 . S
C280 C283 1.378 . S
C280 H295 0.929 . S
C281 C280 1.362 . S
C281 C282 1.366 . S
C282 C279 1.365 . S
C282 C281 1.366 . S
C282 H296 0.930 . S
C283 C280 1.378 . S
C283 N284 1.315 . S
C283 H286 0.930 . S
N284 Co264 2.194 . S
N284 C279 1.328 . S
N284 C283 1.315 . S
H285 C279 0.929 . S
H286 C283 0.930 . S
H287 C275 0.929 . S
H288 C277 0.929 . S
O289 Co264 2.351 . S
O289 C292 1.244 . S
O290 Co264 2.155 . S
O290 C292 1.240 . S
O291 Co264 2.096 . S
O291 C272 1.247 . S
C292 O289 1.244 . S
C292 O290 1.240 . S
H293 C267 0.931 . S
H294 C276 0.931 . S
H295 C280 0.929 . S
H296 C282 0.930 . S
Co297 N301 2.148 . S
Co297 N307 2.128 . S
Co297 N317 2.194 . S
Co297 O322 2.351 . S
Co297 O323 2.155 . S
Co297 O324 2.096 . S
C298 N301 1.301 . S
C298 N302 1.328 . S
C298 H303 0.930 . S
C299 C300 1.333 . S
C299 N301 1.317 . S
C299 H304 0.930 . S
C300 C299 1.333 . S
C300 N302 1.350 . S
C300 H326 0.931 . S
N301 Co297 2.148 . S
N301 C298 1.301 . S
N301 C299 1.317 . S
N302 C298 1.328 . S
N302 C300 1.350 . S
H303 C298 0.930 . S
H304 C299 0.930 . S
C305 O306 1.224 . S
C305 O324 1.247 . S
O306 C305 1.224 . S
N307 Co297 2.128 . S
N307 C308 1.355 . S
N307 C310 1.311 . S
C308 N307 1.355 . S
C308 C309 1.363 . S
C308 H320 0.929 . S
C309 C308 1.363 . S
C309 N311 1.375 . S
C309 H327 0.931 . S
C310 N307 1.311 . S
C310 N311 1.347 . S
C310 H321 0.929 . S
N311 C309 1.375 . S
N311 C310 1.347 . S
C312 C315 1.365 . S
C312 N317 1.328 . S
C312 H318 0.929 . S
C313 C314 1.362 . S
C313 C316 1.378 . S
C313 H328 0.929 . S
C314 C313 1.362 . S
C314 C315 1.366 . S
C315 C312 1.365 . S
C315 C314 1.366 . S
C315 H329 0.930 . S
C316 C313 1.378 . S
C316 N317 1.315 . S
C316 H319 0.930 . S
N317 Co297 2.194 . S
N317 C312 1.328 . S
N317 C316 1.315 . S
H318 C312 0.929 . S
H319 C316 0.930 . S
H320 C308 0.929 . S
H321 C310 0.929 . S
O322 Co297 2.351 . S
O322 C325 1.244 . S
O323 Co297 2.155 . S
O323 C325 1.240 . S
O324 Co297 2.096 . S
O324 C305 1.247 . S
C325 O322 1.244 . S
C325 O323 1.240 . S
H326 C300 0.931 . S
H327 C309 0.931 . S
H328 C313 0.929 . S
H329 C315 0.930 . S
Co330 N334 2.148 . S
Co330 N340 2.128 . S
Co330 N350 2.194 . S
Co330 O355 2.351 . S
Co330 O356 2.155 . S
Co330 O357 2.096 . S
C331 N334 1.301 . S
C331 N335 1.328 . S
C331 H336 0.930 . S
C332 C333 1.333 . S
C332 N334 1.317 . S
C332 H337 0.930 . S
C333 C332 1.333 . S
C333 N335 1.350 . S
C333 H359 0.931 . S
N334 Co330 2.148 . S
N334 C331 1.301 . S
N334 C332 1.317 . S
N335 C331 1.328 . S
N335 C333 1.350 . S
H336 C331 0.930 . S
H337 C332 0.930 . S
C338 O339 1.224 . S
C338 O357 1.247 . S
O339 C338 1.224 . S
N340 Co330 2.128 . S
N340 C341 1.355 . S
N340 C343 1.311 . S
C341 N340 1.355 . S
C341 C342 1.363 . S
C341 H353 0.929 . S
C342 C341 1.363 . S
C342 N344 1.375 . S
C342 H360 0.931 . S
C343 N340 1.311 . S
C343 N344 1.347 . S
C343 H354 0.929 . S
N344 C342 1.375 . S
N344 C343 1.347 . S
C345 C348 1.365 . S
C345 N350 1.328 . S
C345 H351 0.929 . S
C346 C347 1.362 . S
C346 C349 1.378 . S
C346 H361 0.929 . S
C347 C346 1.362 . S
C347 C348 1.366 . S
C348 C345 1.365 . S
C348 C347 1.366 . S
C348 H362 0.930 . S
C349 C346 1.378 . S
C349 N350 1.315 . S
C349 H352 0.930 . S
N350 Co330 2.194 . S
N350 C345 1.328 . S
N350 C349 1.315 . S
H351 C345 0.929 . S
H352 C349 0.930 . S
H353 C341 0.929 . S
H354 C343 0.929 . S
O355 Co330 2.351 . S
O355 C358 1.244 . S
O356 Co330 2.155 . S
O356 C358 1.240 . S
O357 Co330 2.096 . S
O357 C338 1.247 . S
C358 O355 1.244 . S
C358 O356 1.240 . S
H359 C333 0.931 . S
H360 C342 0.931 . S
H361 C346 0.929 . S
H362 C348 0.930 . S
Co363 N367 2.148 . S
Co363 N373 2.128 . S
Co363 N383 2.194 . S
Co363 O388 2.351 . S
Co363 O389 2.155 . S
Co363 O390 2.096 . S
C364 N367 1.301 . S
C364 N368 1.328 . S
C364 H369 0.930 . S
C365 C366 1.333 . S
C365 N367 1.317 . S
C365 H370 0.930 . S
C366 C365 1.333 . S
C366 N368 1.350 . S
C366 H392 0.931 . S
N367 Co363 2.148 . S
N367 C364 1.301 . S
N367 C365 1.317 . S
N368 C364 1.328 . S
N368 C366 1.350 . S
H369 C364 0.930 . S
H370 C365 0.930 . S
C371 O372 1.224 . S
C371 O390 1.247 . S
O372 C371 1.224 . S
N373 Co363 2.128 . S
N373 C374 1.355 . S
N373 C376 1.311 . S
C374 N373 1.355 . S
C374 C375 1.363 . S
C374 H386 0.929 . S
C375 C374 1.363 . S
C375 N377 1.375 . S
C375 H393 0.931 . S
C376 N373 1.311 . S
C376 N377 1.347 . S
C376 H387 0.929 . S
N377 C375 1.375 . S
N377 C376 1.347 . S
C378 C381 1.365 . S
C378 N383 1.328 . S
C378 H384 0.929 . S
C379 C380 1.362 . S
C379 C382 1.378 . S
C379 H394 0.929 . S
C380 C379 1.362 . S
C380 C381 1.366 . S
C381 C378 1.365 . S
C381 C380 1.366 . S
C381 H395 0.930 . S
C382 C379 1.378 . S
C382 N383 1.315 . S
C382 H385 0.930 . S
N383 Co363 2.194 . S
N383 C378 1.328 . S
N383 C382 1.315 . S
H384 C378 0.929 . S
H385 C382 0.930 . S
H386 C374 0.929 . S
H387 C376 0.929 . S
O388 Co363 2.351 . S
O388 C391 1.244 . S
O389 Co363 2.155 . S
O389 C391 1.240 . S
O390 Co363 2.096 . S
O390 C371 1.247 . S
C391 O388 1.244 . S
C391 O389 1.240 . S
H392 C366 0.931 . S
H393 C375 0.931 . S
H394 C379 0.929 . S
H395 C381 0.930 . S
Co396 N400 2.148 . S
Co396 N406 2.128 . S
Co396 N416 2.194 . S
Co396 O421 2.351 . S
Co396 O422 2.155 . S
Co396 O423 2.096 . S
C397 N400 1.301 1_556 S
C397 N401 1.328 . S
C397 H402 0.930 . S
C398 C399 1.333 . S
C398 N400 1.317 1_556 S
C398 H403 0.930 1_556 S
C399 C398 1.333 . S
C399 N401 1.350 . S
C399 H425 0.931 . S
N400 Co396 2.148 . S
N400 C397 1.301 1_554 S
N400 C398 1.317 1_554 S
N401 C397 1.328 . S
N401 C399 1.350 . S
H402 C397 0.930 . S
H403 C398 0.930 1_554 S
C404 O405 1.224 . S
C404 O423 1.247 . S
O405 C404 1.224 . S
N406 Co396 2.128 . S
N406 C407 1.355 . S
N406 C409 1.311 . S
C407 N406 1.355 . S
C407 C408 1.363 . S
C407 H419 0.929 . S
C408 C407 1.363 . S
C408 N410 1.375 . S
C408 H426 0.931 . S
C409 N406 1.311 . S
C409 N410 1.347 . S
C409 H420 0.929 . S
N410 C408 1.375 . S
N410 C409 1.347 . S
C411 C414 1.365 . S
C411 N416 1.328 . S
C411 H417 0.929 . S
C412 C413 1.362 . S
C412 C415 1.378 . S
C412 H427 0.929 . S
C413 C412 1.362 . S
C413 C414 1.366 . S
C414 C411 1.365 . S
C414 C413 1.366 . S
C414 H428 0.930 . S
C415 C412 1.378 . S
C415 N416 1.315 . S
C415 H418 0.930 . S
N416 Co396 2.194 . S
N416 C411 1.328 . S
N416 C415 1.315 . S
H417 C411 0.929 . S
H418 C415 0.930 . S
H419 C407 0.929 . S
H420 C409 0.929 . S
O421 Co396 2.351 . S
O421 C424 1.244 . S
O422 Co396 2.155 . S
O422 C424 1.240 . S
O423 Co396 2.096 . S
O423 C404 1.247 . S
C424 O421 1.244 . S
C424 O422 1.240 . S
H425 C399 0.931 . S
H426 C408 0.931 . S
H427 C412 0.929 . S
H428 C414 0.930 . S
Co429 N433 2.148 . S
Co429 N439 2.128 . S
Co429 N449 2.194 . S
Co429 O454 2.351 . S
Co429 O455 2.155 . S
Co429 O456 2.096 . S
C430 N433 1.301 . S
C430 N434 1.328 . S
C430 H435 0.930 . S
C431 C432 1.333 . S
C431 N433 1.317 . S
C431 H436 0.930 . S
C432 C431 1.333 . S
C432 N434 1.350 . S
C432 H458 0.931 . S
N433 Co429 2.148 . S
N433 C430 1.301 . S
N433 C431 1.317 . S
N434 C430 1.328 . S
N434 C432 1.350 . S
H435 C430 0.930 . S
H436 C431 0.930 . S
C437 O438 1.224 . S
C437 O456 1.247 . S
O438 C437 1.224 . S
N439 Co429 2.128 . S
N439 C440 1.355 1_554 S
N439 C442 1.311 1_554 S
C440 N439 1.355 1_556 S
C440 C441 1.363 . S
C440 H452 0.929 1_556 S
C441 C440 1.363 . S
C441 N443 1.375 . S
C441 H459 0.931 . S
C442 N439 1.311 1_556 S
C442 N443 1.347 . S
C442 H453 0.929 . S
N443 C441 1.375 . S
N443 C442 1.347 . S
C444 C447 1.365 . S
C444 N449 1.328 . S
C444 H450 0.929 . S
C445 C446 1.362 . S
C445 C448 1.378 . S
C445 H460 0.929 . S
C446 C445 1.362 . S
C446 C447 1.366 . S
C447 C444 1.365 . S
C447 C446 1.366 . S
C447 H461 0.930 . S
C448 C445 1.378 . S
C448 N449 1.315 . S
C448 H451 0.930 . S
N449 Co429 2.194 . S
N449 C444 1.328 . S
N449 C448 1.315 . S
H450 C444 0.929 . S
H451 C448 0.930 . S
H452 C440 0.929 1_554 S
H453 C442 0.929 . S
O454 Co429 2.351 . S
O454 C457 1.244 . S
O455 Co429 2.155 . S
O455 C457 1.240 . S
O456 Co429 2.096 . S
O456 C437 1.247 . S
C457 O454 1.244 . S
C457 O455 1.240 . S
H458 C432 0.931 . S
H459 C441 0.931 . S
H460 C445 0.929 . S
H461 C447 0.930 . S
Co462 N466 2.148 . S
Co462 N472 2.128 . S
Co462 N482 2.194 . S
Co462 O487 2.351 . S
Co462 O488 2.155 . S
Co462 O489 2.096 . S
C463 N466 1.301 1_554 S
C463 N467 1.328 . S
C463 H468 0.930 . S
C464 C465 1.333 . S
C464 N466 1.317 1_554 S
C464 H469 0.930 1_554 S
C465 C464 1.333 . S
C465 N467 1.350 . S
C465 H491 0.931 . S
N466 Co462 2.148 . S
N466 C463 1.301 1_556 S
N466 C464 1.317 1_556 S
N467 C463 1.328 . S
N467 C465 1.350 . S
H468 C463 0.930 . S
H469 C464 0.930 1_556 S
C470 O471 1.224 . S
C470 O489 1.247 . S
O471 C470 1.224 . S
N472 Co462 2.128 . S
N472 C473 1.355 . S
N472 C475 1.311 . S
C473 N472 1.355 . S
C473 C474 1.363 . S
C473 H485 0.929 . S
C474 C473 1.363 . S
C474 N476 1.375 . S
C474 H492 0.931 . S
C475 N472 1.311 . S
C475 N476 1.347 . S
C475 H486 0.929 . S
N476 C474 1.375 . S
N476 C475 1.347 . S
C477 C480 1.365 . S
C477 N482 1.328 . S
C477 H483 0.929 . S
C478 C479 1.362 . S
C478 C481 1.378 . S
C478 H493 0.929 . S
C479 C478 1.362 . S
C479 C480 1.366 . S
C480 C477 1.365 . S
C480 C479 1.366 . S
C480 H494 0.930 . S
C481 C478 1.378 . S
C481 N482 1.315 . S
C481 H484 0.930 . S
N482 Co462 2.194 . S
N482 C477 1.328 . S
N482 C481 1.315 . S
H483 C477 0.929 . S
H484 C481 0.930 . S
H485 C473 0.929 . S
H486 C475 0.929 . S
O487 Co462 2.351 . S
O487 C490 1.244 . S
O488 Co462 2.155 . S
O488 C490 1.240 . S
O489 Co462 2.096 . S
O489 C470 1.247 . S
C490 O487 1.244 . S
C490 O488 1.240 . S
H491 C465 0.931 . S
H492 C474 0.931 . S
H493 C478 0.929 . S
H494 C480 0.930 . S
Co495 N499 2.148 . S
Co495 N505 2.128 . S
Co495 N515 2.194 . S
Co495 O520 2.351 . S
Co495 O521 2.155 . S
Co495 O522 2.096 . S
C496 N499 1.301 . S
C496 N500 1.328 . S
C496 H501 0.930 . S
C497 C498 1.333 . S
C497 N499 1.317 . S
C497 H502 0.930 . S
C498 C497 1.333 . S
C498 N500 1.350 . S
C498 H524 0.931 . S
N499 Co495 2.148 . S
N499 C496 1.301 . S
N499 C497 1.317 . S
N500 C496 1.328 . S
N500 C498 1.350 . S
H501 C496 0.930 . S
H502 C497 0.930 . S
C503 O504 1.224 . S
C503 O522 1.247 . S
O504 C503 1.224 . S
N505 Co495 2.128 . S
N505 C506 1.355 1_556 S
N505 C508 1.311 1_556 S
C506 N505 1.355 1_554 S
C506 C507 1.363 . S
C506 H518 0.929 1_554 S
C507 C506 1.363 . S
C507 N509 1.375 . S
C507 H525 0.931 . S
C508 N505 1.311 1_554 S
C508 N509 1.347 . S
C508 H519 0.929 . S
N509 C507 1.375 . S
N509 C508 1.347 . S
C510 C513 1.365 . S
C510 N515 1.328 . S
C510 H516 0.929 . S
C511 C512 1.362 . S
C511 C514 1.378 . S
C511 H526 0.929 . S
C512 C511 1.362 . S
C512 C513 1.366 . S
C513 C510 1.365 . S
C513 C512 1.366 . S
C513 H527 0.930 . S
C514 C511 1.378 . S
C514 N515 1.315 . S
C514 H517 0.930 . S
N515 Co495 2.194 . S
N515 C510 1.328 . S
N515 C514 1.315 . S
H516 C510 0.929 . S
H517 C514 0.930 . S
H518 C506 0.929 1_556 S
H519 C508 0.929 . S
O520 Co495 2.351 . S
O520 C523 1.244 . S
O521 Co495 2.155 . S
O521 C523 1.240 . S
O522 Co495 2.096 . S
O522 C503 1.247 . S
C523 O520 1.244 . S
C523 O521 1.240 . S
H524 C498 0.931 . S
H525 C507 0.931 . S
H526 C511 0.929 . S
H527 C513 0.930 . S
H528 C536 0.950 . S
H529 C541 0.950 . S
H530 C538 0.950 . S
H531 C540 0.950 . S
H532 C542 0.950 . S
H533 C544 0.950 . S
H534 C546 0.950 . S
H535 C547 0.950 . S
C536 H528 0.950 . S
C536 C537 1.386 . S
C536 C538 1.391 . S
C537 C536 1.386 . S
C537 C541 1.393 . S
C538 H530 0.950 . S
C538 C536 1.391 . S
C538 C539 1.400 . S
C539 C538 1.400 . S
C539 C540 1.398 . S
C539 C545 1.491 . S
C540 H531 0.950 . S
C540 C539 1.398 . S
C540 C541 1.391 . S
C541 H529 0.950 . S
C541 C537 1.393 . S
C541 C540 1.391 . S
C542 H532 0.950 . S
C542 C543 1.386 . S
C542 C544 1.391 . S
C543 C542 1.386 . S
C543 C547 1.393 . S
C544 H533 0.950 . S
C544 C542 1.391 . S
C544 C545 1.400 . S
C545 C539 1.491 . S
C545 C544 1.400 . S
C545 C546 1.398 . S
C546 H534 0.950 . S
C546 C545 1.398 . S
C546 C547 1.391 . S
C547 H535 0.950 . S
C547 C543 1.393 . S
C547 C546 1.391 . S
H548 C556 0.950 . S
H549 C561 0.950 . S
H550 C558 0.950 1_655 S
H551 C560 0.950 . S
H552 C562 0.950 . S
H553 C564 0.950 1_455 S
H554 C566 0.950 . S
H555 C567 0.950 . S
C556 H548 0.950 . S
C556 C557 1.386 . S
C556 C558 1.391 . S
C557 C556 1.386 . S
C557 C561 1.393 . S
C558 H550 0.950 1_455 S
C558 C556 1.391 . S
C558 C559 1.400 . S
C559 C558 1.400 . S
C559 C560 1.398 . S
C559 C565 1.491 1_455 S
C560 H551 0.950 . S
C560 C559 1.398 . S
C560 C561 1.391 . S
C561 H549 0.950 . S
C561 C557 1.393 . S
C561 C560 1.391 . S
C562 H552 0.950 . S
C562 C563 1.386 . S
C562 C564 1.391 . S
C563 C562 1.386 . S
C563 C567 1.393 . S
C564 H553 0.950 1_655 S
C564 C562 1.391 . S
C564 C565 1.400 . S
C565 C559 1.491 1_655 S
C565 C564 1.400 . S
C565 C566 1.398 . S
C566 H554 0.950 . S
C566 C565 1.398 . S
C566 C567 1.391 . S
C567 H555 0.950 . S
C567 C563 1.393 . S
C567 C566 1.391 . S
H568 C576 0.950 . S
H569 C581 0.950 . S
H570 C578 0.950 . S
H571 C580 0.950 . S
H572 C582 0.950 . S
H573 C584 0.950 . S
H574 C586 0.950 . S
H575 C587 0.950 . S
C576 H568 0.950 . S
C576 C577 1.386 . S
C576 C578 1.391 . S
C577 C576 1.386 . S
C577 C581 1.393 1_556 S
C578 H570 0.950 . S
C578 C576 1.391 . S
C578 C579 1.400 . S
C579 C578 1.400 . S
C579 C580 1.398 1_556 S
C579 C585 1.491 1_556 S
C580 H571 0.950 . S
C580 C579 1.398 1_554 S
C580 C581 1.391 . S
C581 H569 0.950 . S
C581 C577 1.393 1_554 S
C581 C580 1.391 . S
C582 H572 0.950 . S
C582 C583 1.386 . S
C582 C584 1.391 . S
C583 C582 1.386 . S
C583 C587 1.393 1_554 S
C584 H573 0.950 . S
C584 C582 1.391 . S
C584 C585 1.400 . S
C585 C579 1.491 1_554 S
C585 C584 1.400 . S
C585 C586 1.398 1_554 S
C586 H574 0.950 . S
C586 C585 1.398 1_556 S
C586 C587 1.391 . S
C587 H575 0.950 . S
C587 C583 1.393 1_556 S
C587 C586 1.391 . S
H588 C596 0.950 . S
H589 C601 0.950 . S
H590 C598 0.950 . S
H591 C600 0.950 . S
H592 C602 0.950 . S
H593 C604 0.950 . S
H594 C606 0.950 . S
H595 C607 0.950 . S
C596 H588 0.950 . S
C596 C597 1.386 1_554 S
C596 C598 1.391 . S
C597 C596 1.386 1_556 S
C597 C601 1.393 . S
C598 H590 0.950 . S
C598 C596 1.391 . S
C598 C599 1.400 1_554 S
C599 C598 1.400 1_556 S
C599 C600 1.398 . S
C599 C605 1.491 1_656 S
C600 H591 0.950 . S
C600 C599 1.398 . S
C600 C601 1.391 . S
C601 H589 0.950 . S
C601 C597 1.393 . S
C601 C600 1.391 . S
C602 H592 0.950 . S
C602 C603 1.386 1_556 S
C602 C604 1.391 . S
C603 C602 1.386 1_554 S
C603 C607 1.393 . S
C604 H593 0.950 . S
C604 C602 1.391 . S
C604 C605 1.400 1_556 S
C605 C599 1.491 1_454 S
C605 C604 1.400 1_554 S
C605 C606 1.398 . S
C606 H594 0.950 . S
C606 C605 1.398 . S
C606 C607 1.391 . S
C607 H595 0.950 . S
C607 C603 1.393 . S
C607 C606 1.391 . S
H608 C616 0.950 . S
H609 C621 0.950 . S
H610 C618 0.950 . S
H611 C620 0.950 . S
H612 C622 0.950 . S
H613 C624 0.950 . S
H614 C626 0.950 . S
H615 C627 0.950 . S
C616 H608 0.950 . S
C616 C617 1.386 . S
C616 C618 1.391 . S
C617 C616 1.386 . S
C617 C621 1.393 . S
C618 H610 0.950 . S
C618 C616 1.391 . S
C618 C619 1.400 . S
C619 C618 1.400 . S
C619 C620 1.398 . S
C619 C625 1.491 . S
C620 H611 0.950 . S
C620 C619 1.398 . S
C620 C621 1.391 . S
C621 H609 0.950 . S
C621 C617 1.393 . S
C621 C620 1.391 . S
C622 H612 0.950 . S
C622 C623 1.386 . S
C622 C624 1.391 . S
C623 C622 1.386 . S
C623 C627 1.393 . S
C624 H613 0.950 . S
C624 C622 1.391 . S
C624 C625 1.400 . S
C625 C619 1.491 . S
C625 C624 1.400 . S
C625 C626 1.398 . S
C626 H614 0.950 . S
C626 C625 1.398 . S
C626 C627 1.391 . S
C627 H615 0.950 . S
C627 C623 1.393 . S
C627 C626 1.391 . S
H628 C636 0.950 . S
H629 C641 0.950 . S
H630 C638 0.950 1_655 S
H631 C640 0.950 . S
H632 C642 0.950 . S
H633 C644 0.950 1_455 S
H634 C646 0.950 . S
H635 C647 0.950 . S
C636 H628 0.950 . S
C636 C637 1.386 . S
C636 C638 1.391 . S
C637 C636 1.386 . S
C637 C641 1.393 . S
C638 H630 0.950 1_455 S
C638 C636 1.391 . S
C638 C639 1.400 . S
C639 C638 1.400 . S
C639 C640 1.398 . S
C639 C645 1.491 1_455 S
C640 H631 0.950 . S
C640 C639 1.398 . S
C640 C641 1.391 . S
C641 H629 0.950 . S
C641 C637 1.393 . S
C641 C640 1.391 . S
C642 H632 0.950 . S
C642 C643 1.386 . S
C642 C644 1.391 . S
C643 C642 1.386 . S
C643 C647 1.393 . S
C644 H633 0.950 1_655 S
C644 C642 1.391 . S
C644 C645 1.400 . S
C645 C639 1.491 1_655 S
C645 C644 1.400 . S
C645 C646 1.398 . S
C646 H634 0.950 . S
C646 C645 1.398 . S
C646 C647 1.391 . S
C647 H635 0.950 . S
C647 C643 1.393 . S
C647 C646 1.391 . S
H648 C656 0.950 . S
H649 C661 0.950 . S
H650 C658 0.950 1_556 S
H651 C660 0.950 . S
H652 C662 0.950 . S
H653 C664 0.950 1_554 S
H654 C666 0.950 . S
H655 C667 0.950 . S
C656 H648 0.950 . S
C656 C657 1.386 . S
C656 C658 1.391 . S
C657 C656 1.386 . S
C657 C661 1.393 . S
C658 H650 0.950 1_554 S
C658 C656 1.391 . S
C658 C659 1.400 . S
C659 C658 1.400 . S
C659 C660 1.398 . S
C659 C665 1.491 1_554 S
C660 H651 0.950 . S
C660 C659 1.398 . S
C660 C661 1.391 . S
C661 H649 0.950 . S
C661 C657 1.393 . S
C661 C660 1.391 . S
C662 H652 0.950 . S
C662 C663 1.386 . S
C662 C664 1.391 . S
C663 C662 1.386 . S
C663 C667 1.393 . S
C664 H653 0.950 1_556 S
C664 C662 1.391 . S
C664 C665 1.400 . S
C665 C659 1.491 1_556 S
C665 C664 1.400 . S
C665 C666 1.398 . S
C666 H654 0.950 . S
C666 C665 1.398 . S
C666 C667 1.391 . S
C667 H655 0.950 . S
C667 C663 1.393 . S
C667 C666 1.391 . S
H668 C676 0.950 . S
H669 C681 0.950 . S
H670 C678 0.950 . S
H671 C680 0.950 . S
H672 C682 0.950 . S
H673 C684 0.950 . S
H674 C686 0.950 . S
H675 C687 0.950 . S
C676 H668 0.950 . S
C676 C677 1.386 . S
C676 C678 1.391 1_565 S
C677 C676 1.386 . S
C677 C681 1.393 . S
C678 H670 0.950 . S
C678 C676 1.391 1_545 S
C678 C679 1.400 1_545 S
C679 C678 1.400 1_565 S
C679 C680 1.398 . S
C679 C685 1.491 1_565 S
C680 H671 0.950 . S
C680 C679 1.398 . S
C680 C681 1.391 . S
C681 H669 0.950 . S
C681 C677 1.393 . S
C681 C680 1.391 . S
C682 H672 0.950 . S
C682 C683 1.386 . S
C682 C684 1.391 1_545 S
C683 C682 1.386 . S
C683 C687 1.393 . S
C684 H673 0.950 . S
C684 C682 1.391 1_565 S
C684 C685 1.400 1_565 S
C685 C679 1.491 1_545 S
C685 C684 1.400 1_545 S
C685 C686 1.398 . S
C686 H674 0.950 . S
C686 C685 1.398 . S
C686 C687 1.391 . S
C687 H675 0.950 . S
C687 C683 1.393 . S
C687 C686 1.391 . S
H688 C696 0.950 . S
H689 C701 0.950 . S
H690 C698 0.950 . S
H691 C700 0.950 . S
H692 C702 0.950 . S
H693 C704 0.950 . S
H694 C706 0.950 . S
H695 C707 0.950 . S
C696 H688 0.950 . S
C696 C697 1.386 . S
C696 C698 1.391 . S
C697 C696 1.386 . S
C697 C701 1.393 . S
C698 H690 0.950 . S
C698 C696 1.391 . S
C698 C699 1.400 . S
C699 C698 1.400 . S
C699 C700 1.398 . S
C699 C705 1.491 . S
C700 H691 0.950 . S
C700 C699 1.398 . S
C700 C701 1.391 . S
C701 H689 0.950 . S
C701 C697 1.393 . S
C701 C700 1.391 . S
C702 H692 0.950 . S
C702 C703 1.386 . S
C702 C704 1.391 . S
C703 C702 1.386 . S
C703 C707 1.393 . S
C704 H693 0.950 . S
C704 C702 1.391 . S
C704 C705 1.400 . S
C705 C699 1.491 . S
C705 C704 1.400 . S
C705 C706 1.398 . S
C706 H694 0.950 . S
C706 C705 1.398 . S
C706 C707 1.391 . S
C707 H695 0.950 . S
C707 C703 1.393 . S
C707 C706 1.391 . S
H708 C716 0.950 . S
H709 C721 0.950 . S
H710 C718 0.950 . S
H711 C720 0.950 1_545 S
H712 C722 0.950 . S
H713 C724 0.950 . S
H714 C726 0.950 1_565 S
H715 C727 0.950 . S
C716 H708 0.950 . S
C716 C717 1.386 . S
C716 C718 1.391 . S
C717 C716 1.386 . S
C717 C721 1.393 . S
C718 H710 0.950 . S
C718 C716 1.391 . S
C718 C719 1.400 . S
C719 C718 1.400 . S
C719 C720 1.398 . S
C719 C725 1.491 1_665 S
C720 H711 0.950 1_565 S
C720 C719 1.398 . S
C720 C721 1.391 . S
C721 H709 0.950 . S
C721 C717 1.393 . S
C721 C720 1.391 . S
C722 H712 0.950 . S
C722 C723 1.386 . S
C722 C724 1.391 . S
C723 C722 1.386 . S
C723 C727 1.393 . S
C724 H713 0.950 . S
C724 C722 1.391 . S
C724 C725 1.400 . S
C725 C719 1.491 1_445 S
C725 C724 1.400 . S
C725 C726 1.398 . S
C726 H714 0.950 1_545 S
C726 C725 1.398 . S
C726 C727 1.391 . S
C727 H715 0.950 . S
C727 C723 1.393 . S
C727 C726 1.391 . S
H728 C736 0.950 . S
H729 C741 0.950 . S
H730 C738 0.950 . S
H731 C740 0.950 . S
H732 C742 0.950 . S
H733 C744 0.950 . S
H734 C746 0.950 . S
H735 C747 0.950 . S
C736 H728 0.950 . S
C736 C737 1.386 . S
C736 C738 1.391 . S
C737 C736 1.386 . S
C737 C741 1.393 . S
C738 H730 0.950 . S
C738 C736 1.391 . S
C738 C739 1.400 . S
C739 C738 1.400 . S
C739 C740 1.398 1_545 S
C739 C745 1.491 1_545 S
C740 H731 0.950 . S
C740 C739 1.398 1_565 S
C740 C741 1.391 1_565 S
C741 H729 0.950 . S
C741 C737 1.393 . S
C741 C740 1.391 1_545 S
C742 H732 0.950 . S
C742 C743 1.386 . S
C742 C744 1.391 . S
C743 C742 1.386 . S
C743 C747 1.393 . S
C744 H733 0.950 . S
C744 C742 1.391 . S
C744 C745 1.400 . S
C745 C739 1.491 1_565 S
C745 C744 1.400 . S
C745 C746 1.398 1_565 S
C746 H734 0.950 . S
C746 C745 1.398 1_545 S
C746 C747 1.391 1_545 S
C747 H735 0.950 . S
C747 C743 1.393 . S
C747 C746 1.391 1_565 S
H748 C756 0.950 . S
H749 C761 0.950 . S
H750 C758 0.950 . S
H751 C760 0.950 . S
H752 C762 0.950 . S
H753 C764 0.950 . S
H754 C766 0.950 . S
H755 C767 0.950 . S
C756 H748 0.950 . S
C756 C757 1.386 . S
C756 C758 1.391 . S
C757 C756 1.386 . S
C757 C761 1.393 . S
C758 H750 0.950 . S
C758 C756 1.391 . S
C758 C759 1.400 . S
C759 C758 1.400 . S
C759 C760 1.398 . S
C759 C765 1.491 . S
C760 H751 0.950 . S
C760 C759 1.398 . S
C760 C761 1.391 . S
C761 H749 0.950 . S
C761 C757 1.393 . S
C761 C760 1.391 . S
C762 H752 0.950 . S
C762 C763 1.386 . S
C762 C764 1.391 . S
C763 C762 1.386 . S
C763 C767 1.393 . S
C764 H753 0.950 . S
C764 C762 1.391 . S
C764 C765 1.400 . S
C765 C759 1.491 . S
C765 C764 1.400 . S
C765 C766 1.398 . S
C766 H754 0.950 . S
C766 C765 1.398 . S
C766 C767 1.391 . S
C767 H755 0.950 . S
C767 C763 1.393 . S
C767 C766 1.391 . S
H768 C776 0.950 . S
H769 C781 0.950 . S
H770 C778 0.950 . S
H771 C780 0.950 . S
H772 C782 0.950 . S
H773 C784 0.950 . S
H774 C786 0.950 . S
H775 C787 0.950 . S
C776 H768 0.950 . S
C776 C777 1.386 . S
C776 C778 1.391 . S
C777 C776 1.386 . S
C777 C781 1.393 . S
C778 H770 0.950 . S
C778 C776 1.391 . S
C778 C779 1.400 . S
C779 C778 1.400 . S
C779 C780 1.398 . S
C779 C785 1.491 . S
C780 H771 0.950 . S
C780 C779 1.398 . S
C780 C781 1.391 . S
C781 H769 0.950 . S
C781 C777 1.393 . S
C781 C780 1.391 . S
C782 H772 0.950 . S
C782 C783 1.386 . S
C782 C784 1.391 . S
C783 C782 1.386 . S
C783 C787 1.393 . S
C784 H773 0.950 . S
C784 C782 1.391 . S
C784 C785 1.400 . S
C785 C779 1.491 . S
C785 C784 1.400 . S
C785 C786 1.398 . S
C786 H774 0.950 . S
C786 C785 1.398 . S
C786 C787 1.391 . S
C787 H775 0.950 . S
C787 C783 1.393 . S
C787 C786 1.391 . S
H788 C796 0.950 . S
H789 C801 0.950 . S
H790 C798 0.950 . S
H791 C800 0.950 . S
H792 C802 0.950 . S
H793 C804 0.950 . S
H794 C806 0.950 . S
H795 C807 0.950 . S
C796 H788 0.950 . S
C796 C797 1.386 . S
C796 C798 1.391 . S
C797 C796 1.386 . S
C797 C801 1.393 . S
C798 H790 0.950 . S
C798 C796 1.391 . S
C798 C799 1.400 . S
C799 C798 1.400 . S
C799 C800 1.398 . S
C799 C805 1.491 . S
C800 H791 0.950 . S
C800 C799 1.398 . S
C800 C801 1.391 . S
C801 H789 0.950 . S
C801 C797 1.393 . S
C801 C800 1.391 . S
C802 H792 0.950 . S
C802 C803 1.386 . S
C802 C804 1.391 . S
C803 C802 1.386 . S
C803 C807 1.393 . S
C804 H793 0.950 . S
C804 C802 1.391 . S
C804 C805 1.400 . S
C805 C799 1.491 . S
C805 C804 1.400 . S
C805 C806 1.398 . S
C806 H794 0.950 . S
C806 C805 1.398 . S
C806 C807 1.391 . S
C807 H795 0.950 . S
C807 C803 1.393 . S
C807 C806 1.391 . S
H808 C816 0.950 . S
H809 C821 0.950 . S
H810 C818 0.950 . S
H811 C820 0.950 . S
H812 C822 0.950 . S
H813 C824 0.950 . S
H814 C826 0.950 . S
H815 C827 0.950 . S
C816 H808 0.950 . S
C816 C817 1.386 . S
C816 C818 1.391 . S
C817 C816 1.386 . S
C817 C821 1.393 . S
C818 H810 0.950 . S
C818 C816 1.391 . S
C818 C819 1.400 . S
C819 C818 1.400 . S
C819 C820 1.398 . S
C819 C825 1.491 . S
C820 H811 0.950 . S
C820 C819 1.398 . S
C820 C821 1.391 . S
C821 H809 0.950 . S
C821 C817 1.393 . S
C821 C820 1.391 . S
C822 H812 0.950 . S
C822 C823 1.386 . S
C822 C824 1.391 . S
C823 C822 1.386 . S
C823 C827 1.393 . S
C824 H813 0.950 . S
C824 C822 1.391 . S
C824 C825 1.400 . S
C825 C819 1.491 . S
C825 C824 1.400 . S
C825 C826 1.398 . S
C826 H814 0.950 . S
C826 C825 1.398 . S
C826 C827 1.391 . S
C827 H815 0.950 . S
C827 C823 1.393 . S
C827 C826 1.391 . S
H828 C836 0.950 . S
H829 C841 0.954 1_545 S
H830 C838 0.950 1_554 S
H831 C840 0.950 . S
H832 C842 0.950 . S
H833 C844 0.950 1_556 S
H834 C846 0.950 . S
H835 C847 0.954 1_565 S
C836 H828 0.950 . S
C836 C837 1.386 . S
C836 C838 1.391 . S
C837 C836 1.386 . S
C837 C841 1.393 . S
C838 H830 0.950 1_556 S
C838 C836 1.391 . S
C838 C839 1.400 . S
C839 C838 1.400 . S
C839 C840 1.398 1_565 S
C839 C845 1.491 1_566 S
C840 H831 0.950 . S
C840 C839 1.398 1_545 S
C840 C841 1.391 1_545 S
C841 H829 0.954 1_565 S
C841 C837 1.393 . S
C841 C840 1.391 1_565 S
C842 H832 0.950 . S
C842 C843 1.386 . S
C842 C844 1.391 . S
C843 C842 1.386 . S
C843 C847 1.393 . S
C844 H833 0.950 1_554 S
C844 C842 1.391 . S
C844 C845 1.400 . S
C845 C839 1.491 1_544 S
C845 C844 1.400 . S
C845 C846 1.398 1_545 S
C846 H834 0.950 . S
C846 C845 1.398 1_565 S
C846 C847 1.391 1_565 S
C847 H835 0.954 1_545 S
C847 C843 1.393 . S
C847 C846 1.391 1_545 S
H848 C856 0.950 . S
H849 C861 0.950 . S
H850 C858 0.950 . S
H851 C860 0.950 . S
H852 C862 0.950 . S
H853 C864 0.950 . S
H854 C866 0.950 . S
H855 C867 0.950 . S
C856 H848 0.950 . S
C856 C857 1.386 . S
C856 C858 1.391 . S
C857 C856 1.386 . S
C857 C861 1.393 . S
C858 H850 0.950 . S
C858 C856 1.391 . S
C858 C859 1.400 . S
C859 C858 1.400 . S
C859 C860 1.398 . S
C859 C865 1.491 . S
C860 H851 0.950 . S
C860 C859 1.398 . S
C860 C861 1.391 . S
C861 H849 0.950 . S
C861 C857 1.393 . S
C861 C860 1.391 . S
C862 H852 0.950 . S
C862 C863 1.386 . S
C862 C864 1.391 . S
C863 C862 1.386 . S
C863 C867 1.393 . S
C864 H853 0.950 . S
C864 C862 1.391 . S
C864 C865 1.400 . S
C865 C859 1.491 . S
C865 C864 1.400 . S
C865 C866 1.398 . S
C866 H854 0.950 . S
C866 C865 1.398 . S
C866 C867 1.391 . S
C867 H855 0.950 . S
C867 C863 1.393 . S
C867 C866 1.391 . S
H868 C876 0.950 . S
H869 C881 0.950 . S
H870 C878 0.950 . S
H871 C880 0.950 . S
H872 C882 0.950 . S
H873 C884 0.950 . S
H874 C886 0.950 . S
H875 C887 0.950 . S
C876 H868 0.950 . S
C876 C877 1.386 . S
C876 C878 1.391 . S
C877 C876 1.386 . S
C877 C881 1.393 . S
C878 H870 0.950 . S
C878 C876 1.391 . S
C878 C879 1.400 . S
C879 C878 1.400 . S
C879 C880 1.398 . S
C879 C885 1.491 . S
C880 H871 0.950 . S
C880 C879 1.398 . S
C880 C881 1.391 . S
C881 H869 0.950 . S
C881 C877 1.393 . S
C881 C880 1.391 . S
C882 H872 0.950 . S
C882 C883 1.386 . S
C882 C884 1.391 . S
C883 C882 1.386 . S
C883 C887 1.393 . S
C884 H873 0.950 . S
C884 C882 1.391 . S
C884 C885 1.400 . S
C885 C879 1.491 . S
C885 C884 1.400 . S
C885 C886 1.398 . S
C886 H874 0.950 . S
C886 C885 1.398 . S
C886 C887 1.391 . S
C887 H875 0.950 . S
C887 C883 1.393 . S
C887 C886 1.391 . S
H888 C896 0.950 . S
H889 C901 0.950 . S
H890 C898 0.950 . S
H891 C900 0.950 . S
H892 C902 0.950 . S
H893 C904 0.950 . S
H894 C906 0.950 . S
H895 C907 0.950 . S
C896 H888 0.950 . S
C896 C897 1.386 . S
C896 C898 1.391 . S
C897 C896 1.386 . S
C897 C901 1.393 . S
C898 H890 0.950 . S
C898 C896 1.391 . S
C898 C899 1.400 . S
C899 C898 1.400 . S
C899 C900 1.398 . S
C899 C905 1.491 . S
C900 H891 0.950 . S
C900 C899 1.398 . S
C900 C901 1.391 . S
C901 H889 0.950 . S
C901 C897 1.393 . S
C901 C900 1.391 . S
C902 H892 0.950 . S
C902 C903 1.386 . S
C902 C904 1.391 . S
C903 C902 1.386 . S
C903 C907 1.393 . S
C904 H893 0.950 . S
C904 C902 1.391 . S
C904 C905 1.400 . S
C905 C899 1.491 . S
C905 C904 1.400 . S
C905 C906 1.398 . S
C906 H894 0.950 . S
C906 C905 1.398 . S
C906 C907 1.391 . S
C907 H895 0.950 . S
C907 C903 1.393 . S
C907 C906 1.391 . S
H908 C916 0.950 . S
H909 C921 0.950 . S
H910 C918 0.950 . S
H911 C920 0.950 . S
H912 C922 0.950 . S
H913 C924 0.950 . S
H914 C926 0.950 . S
H915 C927 0.950 . S
C916 H908 0.950 . S
C916 C917 1.386 . S
C916 C918 1.391 . S
C917 C916 1.386 . S
C917 C921 1.393 . S
C918 H910 0.950 . S
C918 C916 1.391 . S
C918 C919 1.400 . S
C919 C918 1.400 . S
C919 C920 1.398 . S
C919 C925 1.491 . S
C920 H911 0.950 . S
C920 C919 1.398 . S
C920 C921 1.391 . S
C921 H909 0.950 . S
C921 C917 1.393 . S
C921 C920 1.391 . S
C922 H912 0.950 . S
C922 C923 1.386 . S
C922 C924 1.391 . S
C923 C922 1.386 . S
C923 C927 1.393 . S
C924 H913 0.950 . S
C924 C922 1.391 . S
C924 C925 1.400 . S
C925 C919 1.491 . S
C925 C924 1.400 . S
C925 C926 1.398 . S
C926 H914 0.950 . S
C926 C925 1.398 . S
C926 C927 1.391 . S
C927 H915 0.950 . S
C927 C923 1.393 . S
C927 C926 1.391 . S
H928 C936 0.950 . S
H929 C941 0.950 . S
H930 C938 0.950 . S
H931 C940 0.950 . S
H932 C942 0.950 . S
H933 C944 0.950 . S
H934 C946 0.950 . S
H935 C947 0.950 . S
C936 H928 0.950 . S
C936 C937 1.386 . S
C936 C938 1.391 . S
C937 C936 1.386 . S
C937 C941 1.393 . S
C938 H930 0.950 . S
C938 C936 1.391 . S
C938 C939 1.400 . S
C939 C938 1.400 . S
C939 C940 1.398 . S
C939 C945 1.491 . S
C940 H931 0.950 . S
C940 C939 1.398 . S
C940 C941 1.391 . S
C941 H929 0.950 . S
C941 C937 1.393 . S
C941 C940 1.391 . S
C942 H932 0.950 . S
C942 C943 1.386 . S
C942 C944 1.391 1_556 S
C943 C942 1.386 . S
C943 C947 1.393 . S
C944 H933 0.950 . S
C944 C942 1.391 1_554 S
C944 C945 1.400 . S
C945 C939 1.491 . S
C945 C944 1.400 . S
C945 C946 1.398 . S
C946 H934 0.950 . S
C946 C945 1.398 . S
C946 C947 1.391 1_554 S
C947 H935 0.950 . S
C947 C943 1.393 . S
C947 C946 1.391 1_556 S
H948 C956 0.950 . S
H949 C961 0.950 . S
H950 C958 0.950 . S
H951 C960 0.950 . S
H952 C962 0.950 . S
H953 C964 0.950 . S
H954 C966 0.950 . S
H955 C967 0.950 . S
C956 H948 0.950 . S
C956 C957 1.386 . S
C956 C958 1.391 . S
C957 C956 1.386 . S
C957 C961 1.393 . S
C958 H950 0.950 . S
C958 C956 1.391 . S
C958 C959 1.400 . S
C959 C958 1.400 . S
C959 C960 1.398 . S
C959 C965 1.491 . S
C960 H951 0.950 . S
C960 C959 1.398 . S
C960 C961 1.391 . S
C961 H949 0.950 . S
C961 C957 1.393 . S
C961 C960 1.391 . S
C962 H952 0.950 . S
C962 C963 1.386 . S
C962 C964 1.391 1_556 S
C963 C962 1.386 . S
C963 C967 1.393 . S
C964 H953 0.950 . S
C964 C962 1.391 1_554 S
C964 C965 1.400 . S
C965 C959 1.491 . S
C965 C964 1.400 . S
C965 C966 1.398 . S
C966 H954 0.950 . S
C966 C965 1.398 . S
C966 C967 1.391 1_554 S
C967 H955 0.950 . S
C967 C963 1.393 . S
C967 C966 1.391 1_556 S
H968 C976 0.950 . S
H969 C981 0.950 . S
H970 C978 0.950 . S
H971 C980 0.950 . S
H972 C982 0.950 . S
H973 C984 0.950 . S
H974 C986 0.950 . S
H975 C987 0.950 . S
C976 H968 0.950 . S
C976 C977 1.386 . S
C976 C978 1.391 1_554 S
C977 C976 1.386 . S
C977 C981 1.393 . S
C978 H970 0.950 . S
C978 C976 1.391 1_556 S
C978 C979 1.400 . S
C979 C978 1.400 . S
C979 C980 1.398 . S
C979 C985 1.491 . S
C980 H971 0.950 . S
C980 C979 1.398 . S
C980 C981 1.391 1_556 S
C981 H969 0.950 . S
C981 C977 1.393 . S
C981 C980 1.391 1_554 S
C982 H972 0.950 . S
C982 C983 1.386 . S
C982 C984 1.391 . S
C983 C982 1.386 . S
C983 C987 1.393 . S
C984 H973 0.950 . S
C984 C982 1.391 . S
C984 C985 1.400 . S
C985 C979 1.491 . S
C985 C984 1.400 . S
C985 C986 1.398 . S
C986 H974 0.950 . S
C986 C985 1.398 . S
C986 C987 1.391 . S
C987 H975 0.950 . S
C987 C983 1.393 . S
C987 C986 1.391 . S
H988 C996 0.950 . S
H989 C1001 0.950 . S
H990 C998 0.950 . S
H991 C1000 0.950 . S
H992 C1002 0.950 . S
H993 C1004 0.950 . S
H994 C1006 0.950 . S
H995 C1007 0.950 . S
C996 H988 0.950 . S
C996 C997 1.386 . S
C996 C998 1.391 1_554 S
C997 C996 1.386 . S
C997 C1001 1.393 . S
C998 H990 0.950 . S
C998 C996 1.391 1_556 S
C998 C999 1.400 . S
C999 C998 1.400 . S
C999 C1000 1.398 . S
C999 C1005 1.491 . S
C1000 H991 0.950 . S
C1000 C999 1.398 . S
C1000 C1001 1.391 1_556 S
C1001 H989 0.950 . S
C1001 C997 1.393 . S
C1001 C1000 1.391 1_554 S
C1002 H992 0.950 . S
C1002 C1003 1.386 . S
C1002 C1004 1.391 . S
C1003 C1002 1.386 . S
C1003 C1007 1.393 . S
C1004 H993 0.950 . S
C1004 C1002 1.391 . S
C1004 C1005 1.400 . S
C1005 C999 1.491 . S
C1005 C1004 1.400 . S
C1005 C1006 1.398 . S
C1006 H994 0.950 . S
C1006 C1005 1.398 . S
C1006 C1007 1.391 . S
C1007 H995 0.950 . S
C1007 C1003 1.393 . S
C1007 C1006 1.391 . S
H1008 C1016 0.950 . S
H1009 C1021 0.950 . S
H1010 C1018 0.950 . S
H1011 C1020 0.950 . S
H1012 C1022 0.950 . S
H1013 C1024 0.950 . S
H1014 C1026 0.950 . S
H1015 C1027 0.950 . S
C1016 H1008 0.950 . S
C1016 C1017 1.386 . S
C1016 C1018 1.391 1_556 S
C1017 C1016 1.386 . S
C1017 C1021 1.393 . S
C1018 H1010 0.950 . S
C1018 C1016 1.391 1_554 S
C1018 C1019 1.400 . S
C1019 C1018 1.400 . S
C1019 C1020 1.398 . S
C1019 C1025 1.491 . S
C1020 H1011 0.950 . S
C1020 C1019 1.398 . S
C1020 C1021 1.391 1_554 S
C1021 H1009 0.950 . S
C1021 C1017 1.393 . S
C1021 C1020 1.391 1_556 S
C1022 H1012 0.950 . S
C1022 C1023 1.386 . S
C1022 C1024 1.391 . S
C1023 C1022 1.386 . S
C1023 C1027 1.393 . S
C1024 H1013 0.950 . S
C1024 C1022 1.391 . S
C1024 C1025 1.400 . S
C1025 C1019 1.491 . S
C1025 C1024 1.400 . S
C1025 C1026 1.398 . S
C1026 H1014 0.950 . S
C1026 C1025 1.398 . S
C1026 C1027 1.391 . S
C1027 H1015 0.950 . S
C1027 C1023 1.393 . S
C1027 C1026 1.391 . S
H1028 C1036 0.950 . S
H1029 C1041 0.950 . S
H1030 C1038 0.950 . S
H1031 C1040 0.950 . S
H1032 C1042 0.950 . S
H1033 C1044 0.950 . S
H1034 C1046 0.950 . S
H1035 C1047 0.950 . S
C1036 H1028 0.950 . S
C1036 C1037 1.386 . S
C1036 C1038 1.391 1_556 S
C1037 C1036 1.386 . S
C1037 C1041 1.393 . S
C1038 H1030 0.950 . S
C1038 C1036 1.391 1_554 S
C1038 C1039 1.400 . S
C1039 C1038 1.400 . S
C1039 C1040 1.398 . S
C1039 C1045 1.491 . S
C1040 H1031 0.950 . S
C1040 C1039 1.398 . S
C1040 C1041 1.391 1_554 S
C1041 H1029 0.950 . S
C1041 C1037 1.393 . S
C1041 C1040 1.391 1_556 S
C1042 H1032 0.950 . S
C1042 C1043 1.386 . S
C1042 C1044 1.391 . S
C1043 C1042 1.386 . S
C1043 C1047 1.393 . S
C1044 H1033 0.950 . S
C1044 C1042 1.391 . S
C1044 C1045 1.400 . S
C1045 C1039 1.491 . S
C1045 C1044 1.400 . S
C1045 C1046 1.398 . S
C1046 H1034 0.950 . S
C1046 C1045 1.398 . S
C1046 C1047 1.391 . S
C1047 H1035 0.950 . S
C1047 C1043 1.393 . S
C1047 C1046 1.391 . S
H1048 C1056 0.950 . S
H1049 C1061 0.950 . S
H1050 C1058 0.950 . S
H1051 C1060 0.950 . S
H1052 C1062 0.950 . S
H1053 C1064 0.950 . S
H1054 C1066 0.950 . S
H1055 C1067 0.950 . S
C1056 H1048 0.950 . S
C1056 C1057 1.386 . S
C1056 C1058 1.391 1_554 S
C1057 C1056 1.386 . S
C1057 C1061 1.393 . S
C1058 H1050 0.950 . S
C1058 C1056 1.391 1_556 S
C1058 C1059 1.400 . S
C1059 C1058 1.400 . S
C1059 C1060 1.398 . S
C1059 C1065 1.491 . S
C1060 H1051 0.950 . S
C1060 C1059 1.398 . S
C1060 C1061 1.391 1_556 S
C1061 H1049 0.950 . S
C1061 C1057 1.393 . S
C1061 C1060 1.391 1_554 S
C1062 H1052 0.950 . S
C1062 C1063 1.386 . S
C1062 C1064 1.391 . S
C1063 C1062 1.386 . S
C1063 C1067 1.393 . S
C1064 H1053 0.950 . S
C1064 C1062 1.391 . S
C1064 C1065 1.400 . S
C1065 C1059 1.491 . S
C1065 C1064 1.400 . S
C1065 C1066 1.398 . S
C1066 H1054 0.950 . S
C1066 C1065 1.398 . S
C1066 C1067 1.391 . S
C1067 H1055 0.950 . S
C1067 C1063 1.393 . S
C1067 C1066 1.391 . S
H1068 C1076 0.950 . S
H1069 C1081 0.950 . S
H1070 C1078 0.950 . S
H1071 C1080 0.950 . S
H1072 C1082 0.950 . S
H1073 C1084 0.950 . S
H1074 C1086 0.950 . S
H1075 C1087 0.950 . S
C1076 H1068 0.950 . S
C1076 C1077 1.386 . S
C1076 C1078 1.391 1_554 S
C1077 C1076 1.386 . S
C1077 C1081 1.393 . S
C1078 H1070 0.950 . S
C1078 C1076 1.391 1_556 S
C1078 C1079 1.400 . S
C1079 C1078 1.400 . S
C1079 C1080 1.398 . S
C1079 C1085 1.491 . S
C1080 H1071 0.950 . S
C1080 C1079 1.398 . S
C1080 C1081 1.391 1_556 S
C1081 H1069 0.950 . S
C1081 C1077 1.393 . S
C1081 C1080 1.391 1_554 S
C1082 H1072 0.950 . S
C1082 C1083 1.386 . S
C1082 C1084 1.391 . S
C1083 C1082 1.386 . S
C1083 C1087 1.393 . S
C1084 H1073 0.950 . S
C1084 C1082 1.391 . S
C1084 C1085 1.400 . S
C1085 C1079 1.491 . S
C1085 C1084 1.400 . S
C1085 C1086 1.398 . S
C1086 H1074 0.950 . S
C1086 C1085 1.398 . S
C1086 C1087 1.391 . S
C1087 H1075 0.950 . S
C1087 C1083 1.393 . S
C1087 C1086 1.391 . S
H1088 C1096 0.950 . S
H1089 C1101 0.950 . S
H1090 C1098 0.950 . S
H1091 C1100 0.950 . S
H1092 C1102 0.950 . S
H1093 C1104 0.950 . S
H1094 C1106 0.950 . S
H1095 C1107 0.950 . S
C1096 H1088 0.950 . S
C1096 C1097 1.386 . S
C1096 C1098 1.391 . S
C1097 C1096 1.386 . S
C1097 C1101 1.393 . S
C1098 H1090 0.950 . S
C1098 C1096 1.391 . S
C1098 C1099 1.400 . S
C1099 C1098 1.400 . S
C1099 C1100 1.398 . S
C1099 C1105 1.491 . S
C1100 H1091 0.950 . S
C1100 C1099 1.398 . S
C1100 C1101 1.391 . S
C1101 H1089 0.950 . S
C1101 C1097 1.393 . S
C1101 C1100 1.391 . S
C1102 H1092 0.950 . S
C1102 C1103 1.386 . S
C1102 C1104 1.391 . S
C1103 C1102 1.386 . S
C1103 C1107 1.393 . S
C1104 H1093 0.950 . S
C1104 C1102 1.391 . S
C1104 C1105 1.400 . S
C1105 C1099 1.491 . S
C1105 C1104 1.400 . S
C1105 C1106 1.398 . S
C1106 H1094 0.950 . S
C1106 C1105 1.398 . S
C1106 C1107 1.391 . S
C1107 H1095 0.950 . S
C1107 C1103 1.393 . S
C1107 C1106 1.391 . S
H1108 C1116 0.950 . S
H1109 C1121 0.950 . S
H1110 C1118 0.950 . S
H1111 C1120 0.950 . S
H1112 C1122 0.950 . S
H1113 C1124 0.950 . S
H1114 C1126 0.950 . S
H1115 C1127 0.950 . S
C1116 H1108 0.950 . S
C1116 C1117 1.386 . S
C1116 C1118 1.391 . S
C1117 C1116 1.386 . S
C1117 C1121 1.393 . S
C1118 H1110 0.950 . S
C1118 C1116 1.391 . S
C1118 C1119 1.400 . S
C1119 C1118 1.400 . S
C1119 C1120 1.398 . S
C1119 C1125 1.491 . S
C1120 H1111 0.950 . S
C1120 C1119 1.398 . S
C1120 C1121 1.391 . S
C1121 H1109 0.950 . S
C1121 C1117 1.393 . S
C1121 C1120 1.391 . S
C1122 H1112 0.950 . S
C1122 C1123 1.386 . S
C1122 C1124 1.391 . S
C1123 C1122 1.386 . S
C1123 C1127 1.393 . S
C1124 H1113 0.950 . S
C1124 C1122 1.391 . S
C1124 C1125 1.400 . S
C1125 C1119 1.491 . S
C1125 C1124 1.400 . S
C1125 C1126 1.398 . S
C1126 H1114 0.950 . S
C1126 C1125 1.398 . S
C1126 C1127 1.391 . S
C1127 H1115 0.950 . S
C1127 C1123 1.393 . S
C1127 C1126 1.391 . S
H1128 C1136 0.950 . S
H1129 C1141 0.950 . S
H1130 C1138 0.950 . S
H1131 C1140 0.950 . S
H1132 C1142 0.950 . S
H1133 C1144 0.950 . S
H1134 C1146 0.950 . S
H1135 C1147 0.950 . S
C1136 H1128 0.950 . S
C1136 C1137 1.386 . S
C1136 C1138 1.391 . S
C1137 C1136 1.386 . S
C1137 C1141 1.393 . S
C1138 H1130 0.950 . S
C1138 C1136 1.391 . S
C1138 C1139 1.400 . S
C1139 C1138 1.400 . S
C1139 C1140 1.398 . S
C1139 C1145 1.491 . S
C1140 H1131 0.950 . S
C1140 C1139 1.398 . S
C1140 C1141 1.391 . S
C1141 H1129 0.950 . S
C1141 C1137 1.393 . S
C1141 C1140 1.391 . S
C1142 H1132 0.950 . S
C1142 C1143 1.386 . S
C1142 C1144 1.391 . S
C1143 C1142 1.386 . S
C1143 C1147 1.393 . S
C1144 H1133 0.950 . S
C1144 C1142 1.391 . S
C1144 C1145 1.400 . S
C1145 C1139 1.491 . S
C1145 C1144 1.400 . S
C1145 C1146 1.398 . S
C1146 H1134 0.950 . S
C1146 C1145 1.398 . S
C1146 C1147 1.391 . S
C1147 H1135 0.950 . S
C1147 C1143 1.393 . S
C1147 C1146 1.391 . S
H1148 C1156 0.950 . S
H1149 C1161 0.950 . S
H1150 C1158 0.950 . S
H1151 C1160 0.950 . S
H1152 C1162 0.950 . S
H1153 C1164 0.950 . S
H1154 C1166 0.950 . S
H1155 C1167 0.950 . S
C1156 H1148 0.950 . S
C1156 C1157 1.386 . S
C1156 C1158 1.391 . S
C1157 C1156 1.386 . S
C1157 C1161 1.393 . S
C1158 H1150 0.950 . S
C1158 C1156 1.391 . S
C1158 C1159 1.400 . S
C1159 C1158 1.400 . S
C1159 C1160 1.398 . S
C1159 C1165 1.491 . S
C1160 H1151 0.950 . S
C1160 C1159 1.398 . S
C1160 C1161 1.391 . S
C1161 H1149 0.950 . S
C1161 C1157 1.393 . S
C1161 C1160 1.391 . S
C1162 H1152 0.950 . S
C1162 C1163 1.386 . S
C1162 C1164 1.391 . S
C1163 C1162 1.386 . S
C1163 C1167 1.393 . S
C1164 H1153 0.950 . S
C1164 C1162 1.391 . S
C1164 C1165 1.400 . S
C1165 C1159 1.491 . S
C1165 C1164 1.400 . S
C1165 C1166 1.398 . S
C1166 H1154 0.950 . S
C1166 C1165 1.398 . S
C1166 C1167 1.391 . S
C1167 H1155 0.950 . S
C1167 C1163 1.393 . S
C1167 C1166 1.391 . S
H1168 C1176 0.950 . S
H1169 C1181 0.950 . S
H1170 C1178 0.950 . S
H1171 C1180 0.950 . S
H1172 C1182 0.950 . S
H1173 C1184 0.950 . S
H1174 C1186 0.950 . S
H1175 C1187 0.950 . S
C1176 H1168 0.950 . S
C1176 C1177 1.386 . S
C1176 C1178 1.391 . S
C1177 C1176 1.386 . S
C1177 C1181 1.393 . S
C1178 H1170 0.950 . S
C1178 C1176 1.391 . S
C1178 C1179 1.400 . S
C1179 C1178 1.400 . S
C1179 C1180 1.398 . S
C1179 C1185 1.491 . S
C1180 H1171 0.950 . S
C1180 C1179 1.398 . S
C1180 C1181 1.391 . S
C1181 H1169 0.950 . S
C1181 C1177 1.393 . S
C1181 C1180 1.391 . S
C1182 H1172 0.950 . S
C1182 C1183 1.386 . S
C1182 C1184 1.391 . S
C1183 C1182 1.386 . S
C1183 C1187 1.393 . S
C1184 H1173 0.950 . S
C1184 C1182 1.391 . S
C1184 C1185 1.400 . S
C1185 C1179 1.491 . S
C1185 C1184 1.400 . S
C1185 C1186 1.398 . S
C1186 H1174 0.950 . S
C1186 C1185 1.398 . S
C1186 C1187 1.391 . S
C1187 H1175 0.950 . S
C1187 C1183 1.393 . S
C1187 C1186 1.391 . S
H1188 C1196 0.950 . S
H1189 C1201 0.950 . S
H1190 C1198 0.950 . S
H1191 C1200 0.950 . S
H1192 C1202 0.950 . S
H1193 C1204 0.950 . S
H1194 C1206 0.950 . S
H1195 C1207 0.950 . S
C1196 H1188 0.950 . S
C1196 C1197 1.386 . S
C1196 C1198 1.391 . S
C1197 C1196 1.386 . S
C1197 C1201 1.393 . S
C1198 H1190 0.950 . S
C1198 C1196 1.391 . S
C1198 C1199 1.400 . S
C1199 C1198 1.400 . S
C1199 C1200 1.398 . S
C1199 C1205 1.491 . S
C1200 H1191 0.950 . S
C1200 C1199 1.398 . S
C1200 C1201 1.391 . S
C1201 H1189 0.950 . S
C1201 C1197 1.393 . S
C1201 C1200 1.391 . S
C1202 H1192 0.950 . S
C1202 C1203 1.386 . S
C1202 C1204 1.391 . S
C1203 C1202 1.386 . S
C1203 C1207 1.393 . S
C1204 H1193 0.950 . S
C1204 C1202 1.391 . S
C1204 C1205 1.400 . S
C1205 C1199 1.491 . S
C1205 C1204 1.400 . S
C1205 C1206 1.398 . S
C1206 H1194 0.950 . S
C1206 C1205 1.398 . S
C1206 C1207 1.391 . S
C1207 H1195 0.950 . S
C1207 C1203 1.393 . S
C1207 C1206 1.391 . S
H1208 C1216 0.950 . S
H1209 C1221 0.950 . S
H1210 C1218 0.950 . S
H1211 C1220 0.950 . S
H1212 C1222 0.950 . S
H1213 C1224 0.950 . S
H1214 C1226 0.950 . S
H1215 C1227 0.950 . S
C1216 H1208 0.950 . S
C1216 C1217 1.386 . S
C1216 C1218 1.391 . S
C1217 C1216 1.386 . S
C1217 C1221 1.393 . S
C1218 H1210 0.950 . S
C1218 C1216 1.391 . S
C1218 C1219 1.400 . S
C1219 C1218 1.400 . S
C1219 C1220 1.398 . S
C1219 C1225 1.491 . S
C1220 H1211 0.950 . S
C1220 C1219 1.398 . S
C1220 C1221 1.391 . S
C1221 H1209 0.950 . S
C1221 C1217 1.393 . S
C1221 C1220 1.391 . S
C1222 H1212 0.950 . S
C1222 C1223 1.386 . S
C1222 C1224 1.391 . S
C1223 C1222 1.386 . S
C1223 C1227 1.393 . S
C1224 H1213 0.950 . S
C1224 C1222 1.391 . S
C1224 C1225 1.400 . S
C1225 C1219 1.491 . S
C1225 C1224 1.400 . S
C1225 C1226 1.398 . S
C1226 H1214 0.950 . S
C1226 C1225 1.398 . S
C1226 C1227 1.391 . S
C1227 H1215 0.950 . S
C1227 C1223 1.393 . S
C1227 C1226 1.391 . S
H1228 C1236 0.950 . S
H1229 C1241 0.950 . S
H1230 C1238 0.950 . S
H1231 C1240 0.950 . S
H1232 C1242 0.950 . S
H1233 C1244 0.950 . S
H1234 C1246 0.950 . S
H1235 C1247 0.950 . S
C1236 H1228 0.950 . S
C1236 C1237 1.386 . S
C1236 C1238 1.391 . S
C1237 C1236 1.386 . S
C1237 C1241 1.393 . S
C1238 H1230 0.950 . S
C1238 C1236 1.391 . S
C1238 C1239 1.400 . S
C1239 C1238 1.400 . S
C1239 C1240 1.398 . S
C1239 C1245 1.491 . S
C1240 H1231 0.950 . S
C1240 C1239 1.398 . S
C1240 C1241 1.391 . S
C1241 H1229 0.950 . S
C1241 C1237 1.393 . S
C1241 C1240 1.391 . S
C1242 H1232 0.950 . S
C1242 C1243 1.386 . S
C1242 C1244 1.391 . S
C1243 C1242 1.386 . S
C1243 C1247 1.393 . S
C1244 H1233 0.950 . S
C1244 C1242 1.391 . S
C1244 C1245 1.400 . S
C1245 C1239 1.491 . S
C1245 C1244 1.400 . S
C1245 C1246 1.398 . S
C1246 H1234 0.950 . S
C1246 C1245 1.398 . S
C1246 C1247 1.391 . S
C1247 H1235 0.950 . S
C1247 C1243 1.393 . S
C1247 C1246 1.391 . S
H1248 C1256 0.950 . S
H1249 C1261 0.950 . S
H1250 C1258 0.950 . S
H1251 C1260 0.950 . S
H1252 C1262 0.950 . S
H1253 C1264 0.950 . S
H1254 C1266 0.950 . S
H1255 C1267 0.950 . S
C1256 H1248 0.950 . S
C1256 C1257 1.386 . S
C1256 C1258 1.391 . S
C1257 C1256 1.386 . S
C1257 C1261 1.393 . S
C1258 H1250 0.950 . S
C1258 C1256 1.391 . S
C1258 C1259 1.400 . S
C1259 C1258 1.400 . S
C1259 C1260 1.398 . S
C1259 C1265 1.491 . S
C1260 H1251 0.950 . S
C1260 C1259 1.398 . S
C1260 C1261 1.391 . S
C1261 H1249 0.950 . S
C1261 C1257 1.393 . S
C1261 C1260 1.391 . S
C1262 H1252 0.950 . S
C1262 C1263 1.386 . S
C1262 C1264 1.391 . S
C1263 C1262 1.386 . S
C1263 C1267 1.393 . S
C1264 H1253 0.950 . S
C1264 C1262 1.391 . S
C1264 C1265 1.400 . S
C1265 C1259 1.491 . S
C1265 C1264 1.400 . S
C1265 C1266 1.398 . S
C1266 H1254 0.950 . S
C1266 C1265 1.398 . S
C1266 C1267 1.391 . S
C1267 H1255 0.950 . S
C1267 C1263 1.393 . S
C1267 C1266 1.391 . S
H1268 C1276 0.950 . S
H1269 C1281 0.950 . S
H1270 C1278 0.950 . S
H1271 C1280 0.950 . S
H1272 C1282 0.950 . S
H1273 C1284 0.950 . S
H1274 C1286 0.950 . S
H1275 C1287 0.950 . S
C1276 H1268 0.950 . S
C1276 C1277 1.386 . S
C1276 C1278 1.391 . S
C1277 C1276 1.386 . S
C1277 C1281 1.393 . S
C1278 H1270 0.950 . S
C1278 C1276 1.391 . S
C1278 C1279 1.400 . S
C1279 C1278 1.400 . S
C1279 C1280 1.398 . S
C1279 C1285 1.491 . S
C1280 H1271 0.950 . S
C1280 C1279 1.398 . S
C1280 C1281 1.391 . S
C1281 H1269 0.950 . S
C1281 C1277 1.393 . S
C1281 C1280 1.391 . S
C1282 H1272 0.950 . S
C1282 C1283 1.386 . S
C1282 C1284 1.391 . S
C1283 C1282 1.386 . S
C1283 C1287 1.393 . S
C1284 H1273 0.950 . S
C1284 C1282 1.391 . S
C1284 C1285 1.400 . S
C1285 C1279 1.491 . S
C1285 C1284 1.400 . S
C1285 C1286 1.398 . S
C1286 H1274 0.950 . S
C1286 C1285 1.398 . S
C1286 C1287 1.391 . S
C1287 H1275 0.950 . S
C1287 C1283 1.393 . S
C1287 C1286 1.391 . S
H1288 C1296 0.950 . S
H1289 C1301 0.950 . S
H1290 C1298 0.950 . S
H1291 C1300 0.950 . S
H1292 C1302 0.950 . S
H1293 C1304 0.950 . S
H1294 C1306 0.950 . S
H1295 C1307 0.950 . S
C1296 H1288 0.950 . S
C1296 C1297 1.386 . S
C1296 C1298 1.391 . S
C1297 C1296 1.386 . S
C1297 C1301 1.393 . S
C1298 H1290 0.950 . S
C1298 C1296 1.391 . S
C1298 C1299 1.400 . S
C1299 C1298 1.400 . S
C1299 C1300 1.398 . S
C1299 C1305 1.491 . S
C1300 H1291 0.950 . S
C1300 C1299 1.398 . S
C1300 C1301 1.391 . S
C1301 H1289 0.950 . S
C1301 C1297 1.393 . S
C1301 C1300 1.391 . S
C1302 H1292 0.950 . S
C1302 C1303 1.386 . S
C1302 C1304 1.391 . S
C1303 C1302 1.386 . S
C1303 C1307 1.393 . S
C1304 H1293 0.950 . S
C1304 C1302 1.391 . S
C1304 C1305 1.400 . S
C1305 C1299 1.491 . S
C1305 C1304 1.400 . S
C1305 C1306 1.398 . S
C1306 H1294 0.950 . S
C1306 C1305 1.398 . S
C1306 C1307 1.391 . S
C1307 H1295 0.950 . S
C1307 C1303 1.393 . S
C1307 C1306 1.391 . S
H1308 C1316 0.950 . S
H1309 C1321 0.950 . S
H1310 C1318 0.950 . S
H1311 C1320 0.950 . S
H1312 C1322 0.950 . S
H1313 C1324 0.950 . S
H1314 C1326 0.950 . S
H1315 C1327 0.950 . S
C1316 H1308 0.950 . S
C1316 C1317 1.386 . S
C1316 C1318 1.391 . S
C1317 C1316 1.386 . S
C1317 C1321 1.393 . S
C1318 H1310 0.950 . S
C1318 C1316 1.391 . S
C1318 C1319 1.400 . S
C1319 C1318 1.400 . S
C1319 C1320 1.398 . S
C1319 C1325 1.491 . S
C1320 H1311 0.950 . S
C1320 C1319 1.398 . S
C1320 C1321 1.391 . S
C1321 H1309 0.950 . S
C1321 C1317 1.393 . S
C1321 C1320 1.391 . S
C1322 H1312 0.950 . S
C1322 C1323 1.386 . S
C1322 C1324 1.391 . S
C1323 C1322 1.386 . S
C1323 C1327 1.393 . S
C1324 H1313 0.950 . S
C1324 C1322 1.391 . S
C1324 C1325 1.400 . S
C1325 C1319 1.491 . S
C1325 C1324 1.400 . S
C1325 C1326 1.398 . S
C1326 H1314 0.950 . S
C1326 C1325 1.398 . S
C1326 C1327 1.391 . S
C1327 H1315 0.950 . S
C1327 C1323 1.393 . S
C1327 C1326 1.391 . S
C537 C338 1.506 . S
C543 C8 1.506 . S
C557 C61 1.506 . S
C563 C259 1.506 . S
C577 C503 1.507 . S
C583 C41 1.507 . S
C597 C94 1.510 . S
C603 C28 1.510 . S
C617 C74 1.507 . S
C623 C272 1.507 . S
C637 C193 1.506 . S
C643 C127 1.506 . S
C657 C437 1.511 . S
C663 C107 1.511 . S
C677 C470 1.505 . S
C683 C140 1.505 . S
C697 C173 1.510 . S
C703 C371 1.510 . S
C717 C226 1.510 . S
C723 C160 1.510 . S
C737 C404 1.505 . S
C743 C206 1.505 . S
C757 C305 1.505 . S
C763 C239 1.505 . S
C777 C523 1.509 . S
C783 C325 1.509 . S
C797 C292 1.510 . S
C803 C358 1.510 . S
C817 C391 1.510 . S
C823 C457 1.510 . S
C837 C490 1.508 . S
C843 C424 1.509 . S
C857 N14 1.360 . S
C863 N5 1.364 . S
C877 N47 1.372 . S
C883 N38 1.376 . S
C897 N80 1.358 . S
C903 N71 1.363 . S
C917 N113 1.356 . S
C923 N104 1.363 . S
C937 N137 1.372 . S
C943 N146 1.367 . S
C957 N179 1.373 . S
C963 N170 1.376 . S
C977 N212 1.355 . S
C983 N203 1.361 . S
C997 N236 1.361 . S
C1003 N245 1.355 . S
C1017 N278 1.364 . S
C1023 N269 1.368 . S
C1037 N302 1.376 . S
C1043 N311 1.372 . S
C1057 N344 1.362 . S
C1063 N335 1.366 . S
C1077 N368 1.362 . S
C1083 N377 1.357 . S
C1097 N410 1.367 . S
C1103 N401 1.371 . S
C1117 N443 1.359 . S
C1123 N434 1.365 . S
C1137 N476 1.365 . S
C1143 N467 1.369 . S
C1157 N509 1.360 . S
C1163 N500 1.365 . S
C1177 C17 1.497 . S
C1183 C50 1.496 . S
C1197 C83 1.498 . S
C1203 C116 1.499 . S
C1217 C149 1.501 . S
C1223 C182 1.500 . S
C1237 C215 1.498 . S
C1243 C248 1.498 . S
C1257 C314 1.496 . S
C1263 C281 1.495 . S
C1277 C347 1.499 . S
C1283 C380 1.500 . S
C1297 C446 1.498 . S
C1303 C413 1.499 . S
C1317 C512 1.495 . S
C1323 C479 1.495 . S
