# Generated by pormake.
# Topology snl, (6)-cn, num edge types: 1
# Building blocks:
#     Node 0, Type 0, BuildingBlock: MIFKUJ_clean_sbu_0, # of connection points: 6
#     Node 1, Type 0, BuildingBlock: MIFKUJ_clean_sbu_0, # of connection points: 6
#     Node 2, Type 0, BuildingBlock: MIFKUJ_clean_sbu_0, # of connection points: 6
#     Node 3, Type 0, BuildingBlock: MIFKUJ_clean_sbu_0, # of connection points: 6
#     Node 4, Type 0, BuildingBlock: MIFKUJ_clean_sbu_0, # of connection points: 6
#     Node 5, Type 0, BuildingBlock: MIFKUJ_clean_sbu_0, # of connection points: 6
#     Node 6, Type 0, BuildingBlock: MIFKUJ_clean_sbu_0, # of connection points: 6
#     Node 7, Type 0, BuildingBlock: MIFKUJ_clean_sbu_0, # of connection points: 6
#     Node 8, Type 0, BuildingBlock: MIFKUJ_clean_sbu_0, # of connection points: 6
#     Node 9, Type 0, BuildingBlock: MIFKUJ_clean_sbu_0, # of connection points: 6
#     Node 10, Type 0, BuildingBlock: MIFKUJ_clean_sbu_0, # of connection points: 6
#     Node 11, Type 0, BuildingBlock: MIFKUJ_clean_sbu_0, # of connection points: 6
#     Node 12, Type 0, BuildingBlock: MIFKUJ_clean_sbu_0, # of connection points: 6
#     Node 13, Type 0, BuildingBlock: MIFKUJ_clean_sbu_0, # of connection points: 6
#     Node 14, Type 0, BuildingBlock: MIFKUJ_clean_sbu_0, # of connection points: 6
#     Node 15, Type 0, BuildingBlock: MIFKUJ_clean_sbu_0, # of connection points: 6
#     Edge 16, Type (0, 0), BuildingBlock: KIFKEQ_clean_linker_1, # of connection points: 2
#     Edge 17, Type (0, 0), BuildingBlock: KIFKEQ_clean_linker_1, # of connection points: 2
#     Edge 18, Type (0, 0), BuildingBlock: KIFKEQ_clean_linker_1, # of connection points: 2
#     Edge 19, Type (0, 0), BuildingBlock: KIFKEQ_clean_linker_1, # of connection points: 2
#     Edge 20, Type (0, 0), BuildingBlock: KIFKEQ_clean_linker_1, # of connection points: 2
#     Edge 21, Type (0, 0), BuildingBlock: KIFKEQ_clean_linker_1, # of connection points: 2
#     Edge 22, Type (0, 0), BuildingBlock: KIFKEQ_clean_linker_1, # of connection points: 2
#     Edge 23, Type (0, 0), BuildingBlock: KIFKEQ_clean_linker_1, # of connection points: 2
#     Edge 24, Type (0, 0), BuildingBlock: KIFKEQ_clean_linker_1, # of connection points: 2
#     Edge 25, Type (0, 0), BuildingBlock: KIFKEQ_clean_linker_1, # of connection points: 2
#     Edge 26, Type (0, 0), BuildingBlock: KIFKEQ_clean_linker_1, # of connection points: 2
#     Edge 27, Type (0, 0), BuildingBlock: KIFKEQ_clean_linker_1, # of connection points: 2
#     Edge 28, Type (0, 0), BuildingBlock: KIFKEQ_clean_linker_1, # of connection points: 2
#     Edge 29, Type (0, 0), BuildingBlock: KIFKEQ_clean_linker_1, # of connection points: 2
#     Edge 30, Type (0, 0), BuildingBlock: KIFKEQ_clean_linker_1, # of connection points: 2
#     Edge 31, Type (0, 0), BuildingBlock: KIFKEQ_clean_linker_1, # of connection points: 2
#     Edge 32, Type (0, 0), BuildingBlock: KIFKEQ_clean_linker_1, # of connection points: 2
#     Edge 33, Type (0, 0), BuildingBlock: KIFKEQ_clean_linker_1, # of connection points: 2
#     Edge 34, Type (0, 0), BuildingBlock: KIFKEQ_clean_linker_1, # of connection points: 2
#     Edge 35, Type (0, 0), BuildingBlock: KIFKEQ_clean_linker_1, # of connection points: 2
#     Edge 36, Type (0, 0), BuildingBlock: KIFKEQ_clean_linker_1, # of connection points: 2
#     Edge 37, Type (0, 0), BuildingBlock: KIFKEQ_clean_linker_1, # of connection points: 2
#     Edge 38, Type (0, 0), BuildingBlock: KIFKEQ_clean_linker_1, # of connection points: 2
#     Edge 39, Type (0, 0), BuildingBlock: KIFKEQ_clean_linker_1, # of connection points: 2
#     Edge 40, Type (0, 0), BuildingBlock: KIFKEQ_clean_linker_1, # of connection points: 2
#     Edge 41, Type (0, 0), BuildingBlock: KIFKEQ_clean_linker_1, # of connection points: 2
#     Edge 42, Type (0, 0), BuildingBlock: KIFKEQ_clean_linker_1, # of connection points: 2
#     Edge 43, Type (0, 0), BuildingBlock: KIFKEQ_clean_linker_1, # of connection points: 2
#     Edge 44, Type (0, 0), BuildingBlock: KIFKEQ_clean_linker_1, # of connection points: 2
#     Edge 45, Type (0, 0), BuildingBlock: KIFKEQ_clean_linker_1, # of connection points: 2
#     Edge 46, Type (0, 0), BuildingBlock: KIFKEQ_clean_linker_1, # of connection points: 2
#     Edge 47, Type (0, 0), BuildingBlock: KIFKEQ_clean_linker_1, # of connection points: 2
#     Edge 48, Type (0, 0), BuildingBlock: KIFKEQ_clean_linker_1, # of connection points: 2
#     Edge 49, Type (0, 0), BuildingBlock: KIFKEQ_clean_linker_1, # of connection points: 2
#     Edge 50, Type (0, 0), BuildingBlock: KIFKEQ_clean_linker_1, # of connection points: 2
#     Edge 51, Type (0, 0), BuildingBlock: KIFKEQ_clean_linker_1, # of connection points: 2
#     Edge 52, Type (0, 0), BuildingBlock: KIFKEQ_clean_linker_1, # of connection points: 2
#     Edge 53, Type (0, 0), BuildingBlock: KIFKEQ_clean_linker_1, # of connection points: 2
#     Edge 54, Type (0, 0), BuildingBlock: KIFKEQ_clean_linker_1, # of connection points: 2
#     Edge 55, Type (0, 0), BuildingBlock: KIFKEQ_clean_linker_1, # of connection points: 2
#     Edge 56, Type (0, 0), BuildingBlock: KIFKEQ_clean_linker_1, # of connection points: 2
#     Edge 57, Type (0, 0), BuildingBlock: KIFKEQ_clean_linker_1, # of connection points: 2
#     Edge 58, Type (0, 0), BuildingBlock: KIFKEQ_clean_linker_1, # of connection points: 2
#     Edge 59, Type (0, 0), BuildingBlock: KIFKEQ_clean_linker_1, # of connection points: 2
#     Edge 60, Type (0, 0), BuildingBlock: KIFKEQ_clean_linker_1, # of connection points: 2
#     Edge 61, Type (0, 0), BuildingBlock: KIFKEQ_clean_linker_1, # of connection points: 2
#     Edge 62, Type (0, 0), BuildingBlock: KIFKEQ_clean_linker_1, # of connection points: 2
#     Edge 63, Type (0, 0), BuildingBlock: KIFKEQ_clean_linker_1, # of connection points: 2
# Relax obj value: 0.124
# Max RMSD: 0.180
# Mean RMSD: 0.162
data_MOF--net-snl--node1-MIFKUJ_clean_sbu_0--edge1-KIFKEQ_clean_linker_1
_symmetry_space_group_name_H-M    P1
_symmetry_Int_Tables_number       1
_symmetry_cell_setting            triclinic
loop_
_symmetry_equiv_pos_as_xyz
'x, y, z'
_cell_length_a     61.896888
_cell_length_b     63.299299
_cell_length_c     18.773778
_cell_angle_alpha  89.14539
_cell_angle_beta   90.909411
_cell_angle_gamma 90.05549
loop_
_atom_site_label
_atom_site_type_symbol
_atom_site_fract_x
_atom_site_fract_y
_atom_site_fract_z
_atom_type_partial_charge
Zn0 Zn 0.13284 0.61464 0.22544 0.0
Zn1 Zn 0.11524 0.62204 0.04675 0.0
C2 C 0.17689 0.60499 0.25499 0.0
O3 O 0.16744 0.58763 0.27788 0.0
C4 C 0.07002 0.63397 0.04221 0.0
O5 O 0.07662 0.64563 0.98833 0.0
O6 O 0.12492 0.61062 0.32824 0.0
O7 O 0.11769 0.64186 0.19381 0.0
O8 O 0.13189 0.64645 0.08836 0.0
C9 C 0.1275 0.62639 0.36866 0.0
O10 O 0.13489 0.64417 0.34145 0.0
O11 O 0.16522 0.61964 0.22765 0.0
C12 C 0.10599 0.61393 0.89929 0.0
O13 O 0.09451 0.59847 0.92695 0.0
O14 O 0.116 0.62646 0.94057 0.0
O15 O 0.12641 0.59255 0.06083 0.0
O16 O 0.12813 0.58639 0.1773 0.0
O17 O 0.08377 0.62287 0.07726 0.0
C18 C 0.12569 0.65405 0.14673 0.0
C19 C 0.1284 0.57986 0.11352 0.0
Zn20 Zn 0.61865 0.87865 0.44686 0.0
Zn21 Zn 0.61448 0.87222 0.27544 0.0
C22 C 0.63321 0.91945 0.48961 0.0
O23 O 0.64781 0.90741 0.52148 0.0
C24 C 0.60322 0.82818 0.28234 0.0
O25 O 0.58751 0.8352 0.24046 0.0
O26 O 0.62109 0.86963 0.55059 0.0
O27 O 0.58838 0.86921 0.41366 0.0
O28 O 0.58768 0.88583 0.30986 0.0
C29 C 0.60776 0.87791 0.59286 0.0
O30 O 0.59279 0.89063 0.56642 0.0
O31 O 0.6188 0.91079 0.45056 0.0
C32 C 0.62741 0.86842 0.12794 0.0
O33 O 0.64659 0.86498 0.15678 0.0
O34 O 0.61152 0.87198 0.16815 0.0
O35 O 0.64162 0.8877 0.29887 0.0
O36 O 0.64685 0.86987 0.39919 0.0
O37 O 0.61677 0.84138 0.3074 0.0
C38 C 0.57787 0.87857 0.36366 0.0
C39 C 0.65436 0.88016 0.34623 0.0
Zn40 Zn 0.37386 0.37589 0.72233 0.0
Zn41 Zn 0.37517 0.37035 0.55238 0.0
C42 C 0.33141 0.38992 0.74678 0.0
O43 O 0.3425 0.4069 0.76351 0.0
C44 C 0.42011 0.36161 0.53805 0.0
O45 O 0.41221 0.34804 0.49219 0.0
O46 O 0.3816 0.37929 0.82677 0.0
O47 O 0.38584 0.3476 0.69272 0.0
O48 O 0.36489 0.34328 0.59802 0.0
C49 C 0.37684 0.36422 0.86933 0.0
O50 O 0.36847 0.34684 0.84313 0.0
O51 O 0.34139 0.37399 0.72325 0.0
C52 C 0.38168 0.38079 0.40499 0.0
O53 O 0.3933 0.39581 0.43433 0.0
O54 O 0.37179 0.36774 0.44518 0.0
O55 O 0.36089 0.39758 0.57749 0.0
O56 O 0.38223 0.40298 0.67043 0.0
O57 O 0.40718 0.373 0.57273 0.0
C58 C 0.37597 0.33547 0.64958 0.0
C59 C 0.37103 0.41019 0.61808 0.0
Zn60 Zn 0.87011 0.11965 0.95615 0.0
Zn61 Zn 0.87614 0.13568 0.77574 0.0
C62 C 0.85447 0.07811 0.99808 0.0
O63 O 0.83847 0.08907 0.02407 0.0
C64 C 0.88536 0.17836 0.81073 0.0
O65 O 0.9045 0.17195 0.79101 0.0
O66 O 0.866 0.12956 0.05732 0.0
O67 O 0.90122 0.12632 0.92846 0.0
O68 O 0.9053 0.12702 0.81133 0.0
C69 C 0.88148 0.136 0.09675 0.0
O70 O 0.90094 0.13752 0.07025 0.0
O71 O 0.86935 0.08777 0.96478 0.0
C72 C 0.8635 0.14454 0.62891 0.0
O73 O 0.84547 0.15089 0.65774 0.0
O74 O 0.87871 0.1376 0.66905 0.0
O75 O 0.85173 0.11564 0.79451 0.0
O76 O 0.8433 0.12888 0.89817 0.0
O77 O 0.86973 0.16528 0.81007 0.0
C78 C 0.91324 0.12671 0.87404 0.0
C79 C 0.83758 0.12081 0.83909 0.0
Zn80 Zn 0.14178 0.38139 0.99328 0.0
Zn81 Zn 0.1343 0.37464 0.82314 0.0
C82 C 0.15238 0.42432 0.0236 0.0
O83 O 0.16831 0.41458 0.05749 0.0
C84 C 0.12309 0.33105 0.84216 0.0
O85 O 0.1045 0.33847 0.81815 0.0
O86 O 0.146 0.37478 0.09851 0.0
O87 O 0.11273 0.3685 0.96784 0.0
O88 O 0.10665 0.38475 0.86484 0.0
C89 C 0.132 0.38251 0.13967 0.0
O90 O 0.11592 0.39349 0.11151 0.0
O91 O 0.1389 0.41337 0.9879 0.0
C92 C 0.14688 0.37257 0.67667 0.0
O93 O 0.16586 0.36907 0.7069 0.0
O94 O 0.13063 0.37554 0.71594 0.0
O95 O 0.16077 0.39159 0.84582 0.0
O96 O 0.16904 0.37275 0.94166 0.0
O97 O 0.13888 0.34373 0.85017 0.0
C98 C 0.09961 0.37605 0.92127 0.0
C99 C 0.1749 0.38308 0.88657 0.0
Zn100 Zn 0.85781 0.88748 0.23097 0.0
Zn101 Zn 0.89901 0.88481 0.05335 0.0
C102 C 0.8141 0.8995 0.26384 0.0
O103 O 0.82327 0.918 0.27315 0.0
C104 C 0.94475 0.87965 0.03194 0.0
O105 O 0.93766 0.86918 0.97636 0.0
O106 O 0.87025 0.89095 0.33075 0.0
O107 O 0.86822 0.85955 0.19312 0.0
O108 O 0.8897 0.85755 0.09968 0.0
C109 C 0.86317 0.8784 0.37859 0.0
O110 O 0.8492 0.86375 0.36006 0.0
O111 O 0.82559 0.88409 0.24399 0.0
C112 C 0.89835 0.8963 0.90269 0.0
O113 O 0.90604 0.91425 0.92651 0.0
O114 O 0.89422 0.88147 0.94693 0.0
O115 O 0.88375 0.91153 0.0804 0.0
O116 O 0.8621 0.91452 0.17311 0.0
O117 O 0.93115 0.88801 0.0731 0.0
C118 C 0.8789 0.84881 0.14905 0.0
C119 C 0.87144 0.92246 0.11899 0.0
Zn120 Zn 0.37505 0.6067 0.44139 0.0
Zn121 Zn 0.37763 0.64523 0.25672 0.0
C122 C 0.36511 0.56698 0.51157 0.0
O123 O 0.35373 0.57935 0.55217 0.0
C124 C 0.3936 0.68761 0.26536 0.0
O125 O 0.41197 0.67777 0.2558 0.0
O126 O 0.37253 0.62014 0.53821 0.0
O127 O 0.40455 0.61431 0.40275 0.0
O128 O 0.40483 0.63472 0.30558 0.0
C129 C 0.38802 0.61765 0.58292 0.0
O130 O 0.4054 0.60752 0.56318 0.0
O131 O 0.37545 0.57507 0.45984 0.0
C132 C 0.37089 0.65085 0.10446 0.0
O133 O 0.35822 0.66617 0.12493 0.0
O134 O 0.38084 0.63972 0.15148 0.0
O135 O 0.34906 0.63293 0.2855 0.0
O136 O 0.34767 0.6128 0.3834 0.0
O137 O 0.37627 0.67687 0.26848 0.0
C138 C 0.41471 0.62432 0.35447 0.0
C139 C 0.33852 0.62171 0.32966 0.0
Zn140 Zn 0.63409 0.11044 0.70803 0.0
Zn141 Zn 0.61879 0.11853 0.53196 0.0
C142 C 0.67922 0.10032 0.71926 0.0
O143 O 0.67116 0.08127 0.72819 0.0
C144 C 0.57605 0.13565 0.54908 0.0
O145 O 0.58475 0.15191 0.51594 0.0
O146 O 0.62815 0.10707 0.81276 0.0
O147 O 0.61862 0.13758 0.67763 0.0
O148 O 0.63513 0.14264 0.57622 0.0
C149 C 0.63095 0.12326 0.85115 0.0
O150 O 0.63684 0.14112 0.8206 0.0
O151 O 0.66641 0.11565 0.70616 0.0
C152 C 0.63235 0.11421 0.38758 0.0
O153 O 0.64723 0.10245 0.41915 0.0
O154 O 0.61845 0.12344 0.4254 0.0
O155 O 0.62923 0.08878 0.54596 0.0
O156 O 0.62759 0.08207 0.66186 0.0
O157 O 0.58767 0.11951 0.56305 0.0
C158 C 0.62663 0.15011 0.63151 0.0
C159 C 0.62898 0.07576 0.598 0.0
Zn160 Zn 0.89432 0.37041 0.98702 0.0
Zn161 Zn 0.85632 0.37487 0.80246 0.0
C162 C 0.93895 0.35884 0.98826 0.0
O163 O 0.93127 0.34206 0.02122 0.0
C164 C 0.81497 0.38962 0.75119 0.0
O165 O 0.82611 0.40689 0.73806 0.0
O166 O 0.89138 0.3667 0.09352 0.0
O167 O 0.88024 0.39807 0.95985 0.0
O168 O 0.86072 0.4014 0.86 0.0
C169 C 0.89622 0.38152 0.13593 0.0
O170 O 0.90332 0.39954 0.10976 0.0
O171 O 0.92597 0.37328 0.96746 0.0
C172 C 0.86361 0.36482 0.65957 0.0
O173 O 0.84949 0.35036 0.6785 0.0
O174 O 0.87033 0.3778 0.70609 0.0
O175 O 0.86379 0.34608 0.84405 0.0
O176 O 0.88384 0.3434 0.94292 0.0
O177 O 0.82444 0.37383 0.78032 0.0
C178 C 0.86894 0.40917 0.91636 0.0
C179 C 0.87316 0.33499 0.89239 0.0
Zn180 Zn 0.38001 0.13385 0.72827 0.0
Zn181 Zn 0.37289 0.12971 0.55738 0.0
C182 C 0.39194 0.17745 0.71833 0.0
O183 O 0.40921 0.16997 0.75158 0.0
C184 C 0.35786 0.08881 0.52729 0.0
O185 O 0.34169 0.10053 0.50354 0.0
O186 O 0.38335 0.13243 0.83577 0.0
O187 O 0.35241 0.11883 0.70526 0.0
O188 O 0.34544 0.13796 0.60863 0.0
C189 C 0.37118 0.14349 0.87451 0.0
O190 O 0.35662 0.1558 0.84364 0.0
O191 O 0.3769 0.16474 0.70099 0.0
C192 C 0.38461 0.13299 0.41204 0.0
O193 O 0.4021 0.12429 0.44008 0.0
O194 O 0.36915 0.13764 0.45286 0.0
O195 O 0.40246 0.14096 0.58691 0.0
O196 O 0.40729 0.12264 0.68655 0.0
O197 O 0.37397 0.09783 0.55681 0.0
C198 C 0.33887 0.12751 0.66261 0.0
C199 C 0.41503 0.13197 0.63228 0.0
Zn200 Zn 0.62127 0.63366 0.435 0.0
Zn201 Zn 0.62928 0.62867 0.26519 0.0
C202 C 0.57597 0.64362 0.41309 0.0
O203 O 0.58258 0.66239 0.43301 0.0
C204 C 0.67258 0.61411 0.24804 0.0
O205 O 0.66178 0.59781 0.22356 0.0
O206 O 0.62237 0.63642 0.54186 0.0
O207 O 0.63824 0.60753 0.41245 0.0
O208 O 0.61874 0.60194 0.31585 0.0
C209 C 0.61935 0.6206 0.58304 0.0
O210 O 0.6155 0.60202 0.55522 0.0
O211 O 0.58972 0.62879 0.40858 0.0
C212 C 0.63247 0.63728 0.11686 0.0
O213 O 0.64529 0.65201 0.14237 0.0
O214 O 0.62299 0.62488 0.16021 0.0
O215 O 0.6173 0.65777 0.28778 0.0
O216 O 0.6312 0.66177 0.39556 0.0
O217 O 0.66209 0.62961 0.27262 0.0
C218 C 0.62911 0.59474 0.37002 0.0
C219 C 0.6236 0.66973 0.33793 0.0
Zn220 Zn 0.1402 0.85541 0.22615 0.0
Zn221 Zn 0.14671 0.89752 0.04623 0.0
C222 C 0.12611 0.81229 0.22311 0.0
O223 O 0.10946 0.82096 0.25392 0.0
C224 C 0.15873 0.94268 0.04526 0.0
O225 O 0.17764 0.93585 0.0685 0.0
O226 O 0.13791 0.85805 0.33409 0.0
O227 O 0.16784 0.8696 0.19503 0.0
O228 O 0.17417 0.89139 0.10374 0.0
C229 C 0.14909 0.87112 0.37017 0.0
O230 O 0.16247 0.88384 0.3369 0.0
O231 O 0.14187 0.82405 0.2051 0.0
C232 C 0.13418 0.88899 0.90137 0.0
O233 O 0.1164 0.89799 0.92302 0.0
O234 O 0.14973 0.88628 0.94579 0.0
O235 O 0.11843 0.88745 0.08819 0.0
O236 O 0.11247 0.86646 0.18185 0.0
O237 O 0.14368 0.9294 0.03353 0.0
C238 C 0.18068 0.88097 0.15858 0.0
C239 C 0.10557 0.87796 0.1302 0.0
Zn240 Zn 0.87414 0.64697 0.22817 0.0
Zn241 Zn 0.86806 0.60737 0.04958 0.0
C242 C 0.88846 0.6902 0.21333 0.0
O243 O 0.90749 0.68143 0.22402 0.0
C244 C 0.85436 0.56568 0.00881 0.0
O245 O 0.83763 0.57637 0.98382 0.0
O246 O 0.87784 0.64191 0.33431 0.0
O247 O 0.84549 0.63415 0.19879 0.0
O248 O 0.84092 0.61367 0.10457 0.0
C249 C 0.86288 0.64675 0.37677 0.0
O250 O 0.845 0.6552 0.35074 0.0
O251 O 0.87172 0.67854 0.21244 0.0
C252 C 0.87756 0.61123 0.90267 0.0
O253 O 0.89192 0.59708 0.92356 0.0
O254 O 0.86494 0.61885 0.9486 0.0
O255 O 0.89724 0.61681 0.08746 0.0
O256 O 0.90162 0.63715 0.18206 0.0
O257 O 0.86948 0.57556 0.04079 0.0
C258 C 0.83344 0.62313 0.15824 0.0
C259 C 0.90936 0.62656 0.13139 0.0
Zn260 Zn 0.11664 0.13604 0.01109 0.0
Zn261 Zn 0.13946 0.13176 0.8308 0.0
C262 C 0.07386 0.14366 0.9528 0.0
O263 O 0.08118 0.16311 0.94939 0.0
C264 C 0.17958 0.11804 0.76815 0.0
O265 O 0.16643 0.10733 0.72655 0.0
O266 O 0.11445 0.13904 0.11702 0.0
O267 O 0.13738 0.11191 0.99662 0.0
O268 O 0.12966 0.10514 0.88398 0.0
C269 C 0.11318 0.12326 0.15939 0.0
O270 O 0.11295 0.1041 0.13341 0.0
O271 O 0.08638 0.12899 0.97531 0.0
C272 C 0.13288 0.14439 0.68659 0.0
O273 O 0.14657 0.15903 0.7073 0.0
O274 O 0.12647 0.13075 0.73195 0.0
O275 O 0.1354 0.16173 0.86533 0.0
O276 O 0.12524 0.16488 0.97717 0.0
O277 O 0.17176 0.12898 0.81784 0.0
C278 C 0.1353 0.09887 0.94623 0.0
C279 C 0.13109 0.17308 0.91854 0.0
Zn280 Zn 0.61828 0.35237 0.6839 0.0
Zn281 Zn 0.62141 0.39477 0.50335 0.0
C282 C 0.60727 0.308 0.68537 0.0
O283 O 0.58996 0.3152 0.71653 0.0
C284 C 0.63569 0.43746 0.47513 0.0
O285 O 0.65433 0.42772 0.47036 0.0
O286 O 0.61536 0.35582 0.79132 0.0
O287 O 0.64509 0.36708 0.65126 0.0
O288 O 0.64923 0.38918 0.55944 0.0
C289 C 0.62949 0.36486 0.83039 0.0
O290 O 0.64688 0.37269 0.80082 0.0
O291 O 0.6217 0.32106 0.66556 0.0
C292 C 0.60952 0.38708 0.3578 0.0
O293 O 0.59217 0.39716 0.37806 0.0
O294 O 0.62453 0.38342 0.40345 0.0
O295 O 0.59301 0.38422 0.54401 0.0
O296 O 0.59063 0.36244 0.63802 0.0
O297 O 0.61895 0.42666 0.49004 0.0
C298 C 0.65689 0.37897 0.61304 0.0
C299 C 0.58191 0.37361 0.5886 0.0
Zn300 Zn 0.37862 0.88939 0.24677 0.0
Zn301 Zn 0.37292 0.89071 0.41443 0.0
C302 C 0.39216 0.84694 0.23978 0.0
O303 O 0.40722 0.85647 0.20259 0.0
C304 C 0.35655 0.93187 0.43627 0.0
O305 O 0.34072 0.92034 0.46185 0.0
O306 O 0.38125 0.89246 0.13958 0.0
O307 O 0.35052 0.90271 0.27372 0.0
O308 O 0.34618 0.87981 0.36142 0.0
C309 C 0.36581 0.88691 0.09835 0.0
O310 O 0.34781 0.87986 0.12632 0.0
O311 O 0.37733 0.85802 0.26665 0.0
C312 C 0.38207 0.89429 0.56229 0.0
O313 O 0.39641 0.90732 0.53519 0.0
O314 O 0.36968 0.88418 0.52003 0.0
O315 O 0.40296 0.88075 0.38882 0.0
O316 O 0.40618 0.90013 0.29093 0.0
O317 O 0.37254 0.92263 0.40868 0.0
C318 C 0.33816 0.89115 0.31104 0.0
C319 C 0.41478 0.89009 0.34325 0.0
H320 H 0.13253 0.64066 0.82601 0.0
H321 H 0.08386 0.59249 0.79584 0.0
H322 H 0.13686 0.64358 0.69776 0.0
H323 H 0.08768 0.5959 0.6671 0.0
H324 H 0.11862 0.59071 0.44704 0.0
H325 H 0.11265 0.58799 0.57492 0.0
H326 H 0.11922 0.65575 0.59128 0.0
H327 H 0.12587 0.65835 0.4641 0.0
C328 C 0.12258 0.63085 0.79194 0.0
C329 C 0.10788 0.61631 0.82115 0.0
C330 C 0.12497 0.6326 0.71827 0.0
C331 C 0.1126 0.61999 0.67194 0.0
C332 C 0.09769 0.60563 0.70121 0.0
C333 C 0.0954 0.60377 0.77501 0.0
C334 C 0.11871 0.60502 0.47797 0.0
C335 C 0.12284 0.62473 0.44554 0.0
C336 C 0.11517 0.60349 0.55124 0.0
C337 C 0.11553 0.62165 0.59357 0.0
C338 C 0.11923 0.6414 0.56064 0.0
C339 C 0.12293 0.6429 0.48757 0.0
H340 H 0.58934 0.86998 0.05228 0.0
H341 H 0.65845 0.86655 0.02599 0.0
H342 H 0.58418 0.8704 0.92347 0.0
H343 H 0.65335 0.86764 0.89695 0.0
H344 H 0.6361 0.85205 0.66673 0.0
H345 H 0.64043 0.84826 0.79584 0.0
H346 H 0.58925 0.89361 0.8244 0.0
H347 H 0.58451 0.89687 0.69609 0.0
C348 C 0.60345 0.86941 0.019 0.0
C349 C 0.62431 0.86833 0.04948 0.0
C350 C 0.6005 0.86974 0.94502 0.0
C351 C 0.61835 0.86917 0.89957 0.0
C352 C 0.63921 0.86782 0.93017 0.0
C353 C 0.64215 0.86735 0.00425 0.0
C354 C 0.62567 0.86107 0.70068 0.0
C355 C 0.60994 0.87474 0.67103 0.0
C356 C 0.62825 0.85902 0.77471 0.0
C357 C 0.61521 0.87065 0.82075 0.0
C358 C 0.59935 0.88413 0.79083 0.0
C359 C 0.59671 0.8861 0.71702 0.0
H360 H 0.4062 0.40173 0.30698 0.0
H361 H 0.35579 0.35481 0.32518 0.0
H362 H 0.40606 0.39751 0.17836 0.0
H363 H 0.35505 0.35112 0.19613 0.0
H364 H 0.37344 0.33351 0.97209 0.0
H365 H 0.37511 0.33751 0.10077 0.0
H366 H 0.3858 0.40459 0.07259 0.0
H367 H 0.3849 0.4004 0.94368 0.0
C368 C 0.39493 0.39064 0.28345 0.0
C369 C 0.38102 0.37859 0.32644 0.0
C370 C 0.39477 0.38829 0.20948 0.0
C371 C 0.38056 0.37395 0.17644 0.0
C372 C 0.3665 0.36204 0.21958 0.0
C373 C 0.3668 0.36426 0.29366 0.0
C374 C 0.37629 0.3491 0.99335 0.0
C375 C 0.37904 0.36663 0.94756 0.0
C376 C 0.37706 0.35143 0.06729 0.0
C377 C 0.38042 0.37141 0.09748 0.0
C378 C 0.38346 0.38891 0.0515 0.0
C379 C 0.38287 0.38654 0.97746 0.0
H380 H 0.8983 0.13172 0.55304 0.0
H381 H 0.83432 0.1583 0.52722 0.0
H382 H 0.90209 0.13135 0.42432 0.0
H383 H 0.83833 0.15835 0.39805 0.0
H384 H 0.84451 0.13003 0.1729 0.0
H385 H 0.84003 0.13346 0.30101 0.0
H386 H 0.90621 0.15451 0.3221 0.0
H387 H 0.91085 0.15064 0.19439 0.0
C388 C 0.88509 0.13764 0.51992 0.0
C389 C 0.86598 0.14499 0.55051 0.0
C390 C 0.88733 0.13757 0.446 0.0
C391 C 0.87054 0.14487 0.40073 0.0
C392 C 0.85148 0.15239 0.43134 0.0
C393 C 0.84923 0.15246 0.5054 0.0
C394 C 0.85805 0.13557 0.20476 0.0
C395 C 0.87808 0.13992 0.1734 0.0
C396 C 0.85545 0.13763 0.27823 0.0
C397 C 0.87281 0.14412 0.32199 0.0
C398 C 0.89262 0.1491 0.29018 0.0
C399 C 0.89524 0.14701 0.21682 0.0
H400 H 0.16098 0.35821 0.21686 0.0
H401 H 0.10764 0.40139 0.2402 0.0
H402 H 0.16423 0.35471 0.34631 0.0
H403 H 0.1113 0.39848 0.36895 0.0
H404 H 0.10954 0.37418 0.5967 0.0
H405 H 0.10582 0.37523 0.46733 0.0
H406 H 0.17533 0.37395 0.44913 0.0
H407 H 0.17899 0.37218 0.57843 0.0
C408 C 0.15 0.367 0.24958 0.0
C409 C 0.13403 0.38004 0.21814 0.0
C410 C 0.15193 0.36511 0.32384 0.0
C411 C 0.13802 0.37631 0.36836 0.0
C412 C 0.12205 0.38931 0.33661 0.0
C413 C 0.12004 0.39109 0.26256 0.0
C414 C 0.12403 0.37408 0.56508 0.0
C415 C 0.14456 0.37314 0.59795 0.0
C416 C 0.12191 0.37479 0.49079 0.0
C417 C 0.14027 0.37475 0.44749 0.0
C418 C 0.16081 0.37369 0.48055 0.0
C419 C 0.16292 0.37282 0.55483 0.0
H420 H 0.89893 0.92645 0.79682 0.0
H421 H 0.88891 0.85965 0.83335 0.0
H422 H 0.89127 0.92197 0.67023 0.0
H423 H 0.88203 0.85499 0.70651 0.0
H424 H 0.84618 0.85786 0.49334 0.0
H425 H 0.85533 0.86221 0.61844 0.0
H426 H 0.90422 0.90801 0.56182 0.0
H427 H 0.89444 0.90417 0.43609 0.0
C428 C 0.8953 0.91076 0.77772 0.0
C429 C 0.89441 0.89343 0.8253 0.0
C430 C 0.89104 0.90815 0.70493 0.0
C431 C 0.88595 0.88811 0.6778 0.0
C432 C 0.88547 0.87073 0.72545 0.0
C433 C 0.88953 0.87337 0.79827 0.0
C434 C 0.85895 0.86883 0.5074 0.0
C435 C 0.86957 0.88067 0.45458 0.0
C436 C 0.86431 0.87123 0.57937 0.0
C437 C 0.8806 0.88541 0.60064 0.0
C438 C 0.89139 0.89715 0.54765 0.0
C439 C 0.88589 0.89485 0.47547 0.0
H440 H 0.35222 0.6335 0.64762 0.0
H441 H 0.41896 0.61667 0.68818 0.0
H442 H 0.34817 0.64188 0.77313 0.0
H443 H 0.41509 0.62554 0.81303 0.0
H444 H 0.39385 0.61901 0.04401 0.0
H445 H 0.39796 0.61193 0.9178 0.0
H446 H 0.35856 0.66639 0.86436 0.0
H447 H 0.35399 0.67315 0.99072 0.0
C448 C 0.3661 0.63184 0.6831 0.0
C449 C 0.38588 0.62433 0.65786 0.0
C450 C 0.36381 0.63672 0.75509 0.0
C451 C 0.38127 0.63427 0.80347 0.0
C452 C 0.40118 0.62723 0.77768 0.0
C453 C 0.40344 0.62229 0.70587 0.0
C454 C 0.38606 0.62948 0.00538 0.0
C455 C 0.37357 0.64664 0.02757 0.0
C456 C 0.38853 0.62551 0.93288 0.0
C457 C 0.37866 0.63862 0.88069 0.0
C458 C 0.36618 0.6558 0.90298 0.0
C459 C 0.36365 0.65974 0.97552 0.0
H460 H 0.63051 0.15577 0.94488 0.0
H461 H 0.62708 0.08768 0.93462 0.0
H462 H 0.62971 0.15355 0.07465 0.0
H463 H 0.62624 0.08553 0.06462 0.0
H464 H 0.65499 0.0912 0.29256 0.0
H465 H 0.65298 0.09324 0.16293 0.0
H466 H 0.60517 0.14264 0.17446 0.0
H467 H 0.60714 0.14066 0.30463 0.0
C468 C 0.62943 0.14033 0.97028 0.0
C469 C 0.62896 0.12188 0.92949 0.0
C470 C 0.62886 0.13909 0.04459 0.0
C471 C 0.62801 0.11937 0.0797 0.0
C472 C 0.62712 0.10093 0.03893 0.0
C473 C 0.62748 0.10218 0.96453 0.0
C474 C 0.64406 0.10253 0.26758 0.0
C475 C 0.63126 0.11581 0.30891 0.0
C476 C 0.64279 0.10356 0.1933 0.0
C477 C 0.62885 0.11803 0.15863 0.0
C478 C 0.61614 0.13142 0.19983 0.0
C479 C 0.61723 0.13024 0.27428 0.0
H480 H 0.89733 0.41186 0.23812 0.0
H481 H 0.88862 0.34479 0.20969 0.0
H482 H 0.8908 0.40747 0.36513 0.0
H483 H 0.88291 0.34023 0.33698 0.0
H484 H 0.84727 0.34323 0.54656 0.0
H485 H 0.8563 0.34717 0.42188 0.0
H486 H 0.90439 0.39406 0.47634 0.0
H487 H 0.89468 0.39063 0.60167 0.0
C488 C 0.89427 0.39613 0.25914 0.0
C489 C 0.89333 0.37869 0.21369 0.0
C490 C 0.89066 0.39358 0.33216 0.0
C491 C 0.88621 0.3735 0.3616 0.0
C492 C 0.88584 0.356 0.31617 0.0
C493 C 0.88923 0.35858 0.24311 0.0
C494 C 0.85986 0.35432 0.53218 0.0
C495 C 0.87024 0.36663 0.58419 0.0
C496 C 0.86516 0.35649 0.46045 0.0
C497 C 0.88115 0.37089 0.43868 0.0
C498 C 0.89179 0.38301 0.49092 0.0
C499 C 0.88633 0.38096 0.56286 0.0
H500 H 0.41647 0.12957 0.3143 0.0
H501 H 0.34843 0.14318 0.33245 0.0
H502 H 0.41337 0.13291 0.18535 0.0
H503 H 0.34512 0.14586 0.20289 0.0
H504 H 0.35086 0.16815 0.97128 0.0
H505 H 0.3543 0.16669 0.10072 0.0
H506 H 0.39903 0.11462 0.08572 0.0
H507 H 0.39611 0.11656 0.95628 0.0
C508 C 0.40081 0.13324 0.29073 0.0
C509 C 0.38268 0.13607 0.33374 0.0
C510 C 0.39899 0.135 0.21659 0.0
C511 C 0.37896 0.13948 0.18333 0.0
C512 C 0.36087 0.14263 0.22651 0.0
C513 C 0.36273 0.14101 0.30087 0.0
C514 C 0.36146 0.15641 0.99561 0.0
C515 C 0.37325 0.1425 0.95333 0.0
C516 C 0.36333 0.15549 0.06997 0.0
C517 C 0.37696 0.14055 0.10401 0.0
C518 C 0.38868 0.12659 0.06154 0.0
C519 C 0.38691 0.1276 0.98718 0.0
H520 H 0.65331 0.65901 0.01188 0.0
H521 H 0.60555 0.61017 0.04515 0.0
H522 H 0.64968 0.6548 0.88378 0.0
H523 H 0.60145 0.60635 0.91642 0.0
H524 H 0.6178 0.58957 0.68592 0.0
H525 H 0.62047 0.59361 0.8147 0.0
H526 H 0.6252 0.66132 0.7862 0.0
H527 H 0.62316 0.65723 0.65754 0.0
C528 C 0.64189 0.64748 0.99185 0.0
C529 C 0.62972 0.63493 0.03883 0.0
C530 C 0.63971 0.64515 0.91822 0.0
C531 C 0.62522 0.63028 0.88957 0.0
C532 C 0.61296 0.61777 0.93661 0.0
C533 C 0.61521 0.62005 0.01042 0.0
C534 C 0.61939 0.60532 0.70716 0.0
C535 C 0.62038 0.62307 0.66139 0.0
C536 C 0.62078 0.60765 0.78108 0.0
C537 C 0.6231 0.62779 0.81098 0.0
C538 C 0.6238 0.64554 0.76508 0.0
C539 C 0.62251 0.64321 0.69122 0.0
H540 H 0.17501 0.8925 0.46369 0.0
H541 H 0.11896 0.85183 0.45499 0.0
H542 H 0.17166 0.89476 0.59259 0.0
H543 H 0.11566 0.85411 0.58432 0.0
H544 H 0.10246 0.88779 0.79881 0.0
H545 H 0.10634 0.88189 0.67161 0.0
H546 H 0.17492 0.87247 0.70317 0.0
H547 H 0.17107 0.87842 0.8308 0.0
C548 C 0.16199 0.88398 0.48925 0.0
C549 C 0.1472 0.87204 0.44886 0.0
C550 C 0.16019 0.88516 0.56329 0.0
C551 C 0.14342 0.87459 0.59879 0.0
C552 C 0.12867 0.86255 0.5585 0.0
C553 C 0.13061 0.86119 0.48443 0.0
C554 C 0.11836 0.88429 0.77884 0.0
C555 C 0.13647 0.88366 0.82506 0.0
C556 C 0.12055 0.88079 0.70589 0.0
C557 C 0.14095 0.87679 0.67717 0.0
C558 C 0.15902 0.87574 0.72355 0.0
C559 C 0.15679 0.87901 0.79675 0.0
H560 H 0.89781 0.59332 0.79081 0.0
H561 H 0.85319 0.6431 0.84166 0.0
H562 H 0.89431 0.60247 0.66511 0.0
H563 H 0.85026 0.65285 0.71553 0.0
H564 H 0.83186 0.64891 0.47839 0.0
H565 H 0.83559 0.641 0.60533 0.0
H566 H 0.90353 0.62814 0.57822 0.0
H567 H 0.89955 0.63529 0.45086 0.0
C568 C 0.8874 0.60639 0.77523 0.0
C569 C 0.87576 0.61747 0.82637 0.0
C570 C 0.88551 0.61175 0.70295 0.0
C571 C 0.87205 0.62847 0.6798 0.0
C572 C 0.86054 0.63969 0.73114 0.0
C573 C 0.86231 0.63419 0.80357 0.0
C574 C 0.8476 0.64443 0.49956 0.0
C575 C 0.86538 0.64262 0.45439 0.0
C576 C 0.84979 0.64002 0.57257 0.0
C577 C 0.86986 0.63387 0.60236 0.0
C578 C 0.88772 0.63244 0.55715 0.0
C579 C 0.88548 0.63665 0.48406 0.0
H580 H 0.10626 0.1151 0.62445 0.0
H581 H 0.14651 0.16909 0.57586 0.0
H582 H 0.09899 0.11042 0.49749 0.0
H583 H 0.1397 0.1641 0.4494 0.0
H584 H 0.11041 0.16068 0.22917 0.0
H585 H 0.11241 0.16637 0.35704 0.0
H586 H 0.11845 0.09906 0.39375 0.0
H587 H 0.1159 0.09331 0.26577 0.0
C588 C 0.11346 0.12604 0.58676 0.0
C589 C 0.12701 0.14244 0.61027 0.0
C590 C 0.10941 0.12326 0.51399 0.0
C591 C 0.11882 0.13683 0.46322 0.0
C592 C 0.13194 0.15353 0.487 0.0
C593 C 0.13595 0.15633 0.55963 0.0
C594 C 0.11201 0.14707 0.26451 0.0
C595 C 0.11313 0.12654 0.23725 0.0
C596 C 0.11326 0.15035 0.33784 0.0
C597 C 0.11575 0.13319 0.38567 0.0
C598 C 0.1163 0.11261 0.35848 0.0
C599 C 0.11496 0.10932 0.28505 0.0
H600 H 0.5796 0.39097 0.24982 0.0
H601 H 0.64521 0.37078 0.29337 0.0
H602 H 0.58437 0.38433 0.12356 0.0
H603 H 0.64987 0.36387 0.16687 0.0
H604 H 0.65774 0.38105 0.92876 0.0
H605 H 0.65273 0.38473 0.05637 0.0
H606 H 0.58954 0.35618 0.03717 0.0
H607 H 0.59444 0.3527 0.90897 0.0
C608 C 0.59499 0.38493 0.23261 0.0
C609 C 0.61205 0.38151 0.28181 0.0
C610 C 0.59768 0.381 0.16014 0.0
C611 C 0.61753 0.37364 0.13493 0.0
C612 C 0.63446 0.3698 0.18435 0.0
C613 C 0.63174 0.37363 0.25696 0.0
C614 C 0.64277 0.3755 0.95162 0.0
C615 C 0.62646 0.36664 0.90842 0.0
C616 C 0.63997 0.37748 0.02501 0.0
C617 C 0.62075 0.37072 0.05715 0.0
C618 C 0.60447 0.36173 0.01404 0.0
C619 C 0.60731 0.35966 0.94058 0.0
H620 H 0.33457 0.88106 0.99578 0.0
H621 H 0.40261 0.89449 0.02311 0.0
H622 H 0.33853 0.88241 0.86685 0.0
H623 H 0.40675 0.89512 0.89433 0.0
H624 H 0.40242 0.91778 0.66368 0.0
H625 H 0.3983 0.91589 0.79199 0.0
H626 H 0.35308 0.86431 0.76793 0.0
H627 H 0.35668 0.86674 0.63866 0.0
C628 C 0.35041 0.88419 0.97428 0.0
C629 C 0.36825 0.88778 0.01984 0.0
C630 C 0.35272 0.8848 0.90022 0.0
C631 C 0.37297 0.88887 0.86979 0.0
C632 C 0.39083 0.8923 0.91558 0.0
C633 C 0.38848 0.89185 0.9896 0.0
C634 C 0.39162 0.90597 0.68562 0.0
C635 C 0.37989 0.8924 0.64075 0.0
C636 C 0.38936 0.9048 0.7595 0.0
C637 C 0.37541 0.8899 0.79077 0.0
C638 C 0.36375 0.87619 0.74584 0.0
C639 C 0.36592 0.87747 0.67168 0.0
H640 H 0.11176 0.67585 0.26221 0.0
H641 H 0.14113 0.68489 0.0567 0.0
H642 H 0.1126 0.71384 0.28051 0.0
H643 H 0.14151 0.723 0.07441 0.0
H644 H 0.15811 0.78869 0.16296 0.0
H645 H 0.15856 0.75053 0.14503 0.0
H646 H 0.09508 0.74552 0.23613 0.0
H647 H 0.0948 0.78343 0.25523 0.0
C648 C 0.11838 0.68592 0.22082 0.0
C649 C 0.12636 0.67725 0.15793 0.0
C650 C 0.11873 0.70777 0.23113 0.0
C651 C 0.12704 0.72155 0.17883 0.0
C652 C 0.1352 0.71287 0.11617 0.0
C653 C 0.13485 0.691 0.10583 0.0
C654 C 0.14426 0.77943 0.17915 0.0
C655 C 0.12645 0.78916 0.21072 0.0
C656 C 0.14447 0.75755 0.16854 0.0
C657 C 0.12688 0.74488 0.18935 0.0
C658 C 0.10905 0.75468 0.22051 0.0
C659 C 0.10884 0.7765 0.23105 0.0
H660 H 0.54909 0.85527 0.44265 0.0
H661 H 0.55279 0.9068 0.29006 0.0
H662 H 0.50966 0.85774 0.4393 0.0
H663 H 0.51377 0.91002 0.28916 0.0
H664 H 0.44398 0.89645 0.23801 0.0
H665 H 0.48302 0.89319 0.24568 0.0
H666 H 0.4788 0.8774 0.46996 0.0
H667 H 0.43947 0.87971 0.46108 0.0
C668 C 0.54149 0.86728 0.40912 0.0
C669 C 0.55404 0.88068 0.36606 0.0
C670 C 0.51887 0.8688 0.40739 0.0
C671 C 0.50836 0.88394 0.36329 0.0
C672 C 0.52111 0.89775 0.32221 0.0
C673 C 0.54358 0.89601 0.3231 0.0
C674 C 0.45138 0.89234 0.28903 0.0
C675 C 0.43862 0.88845 0.349 0.0
C676 C 0.47385 0.89057 0.29364 0.0
C677 C 0.48426 0.88523 0.35869 0.0
C678 C 0.47144 0.88129 0.41876 0.0
C679 C 0.44887 0.88275 0.41383 0.0
H680 H 0.39564 0.31356 0.75903 0.0
H681 H 0.36081 0.30472 0.56035 0.0
H682 H 0.39922 0.27547 0.77367 0.0
H683 H 0.36486 0.26654 0.57423 0.0
H684 H 0.35684 0.19875 0.66287 0.0
H685 H 0.35274 0.23683 0.64567 0.0
H686 H 0.41806 0.24616 0.72362 0.0
H687 H 0.42197 0.20823 0.74242 0.0
C688 C 0.38883 0.3035 0.71824 0.0
C689 C 0.37796 0.31223 0.65845 0.0
C690 C 0.391 0.28163 0.72644 0.0
C691 C 0.38244 0.2679 0.67494 0.0
C692 C 0.37145 0.27663 0.61531 0.0
C693 C 0.36922 0.29854 0.60719 0.0
C694 C 0.37035 0.20893 0.6761 0.0
C695 C 0.3897 0.20045 0.70434 0.0
C696 C 0.36803 0.23077 0.66593 0.0
C697 C 0.38503 0.24461 0.68361 0.0
C698 C 0.4045 0.23603 0.71066 0.0
C699 C 0.40679 0.21424 0.721 0.0
H700 H 0.94324 0.13722 0.77448 0.0
H701 H 0.93723 0.11783 0.99503 0.0
H702 H 0.98231 0.13972 0.79045 0.0
H703 H 0.97647 0.12033 0.01071 0.0
H704 H 0.05003 0.1085 0.98743 0.0
H705 H 0.01124 0.10303 0.9669 0.0
H706 H 0.00695 0.16384 0.86044 0.0
H707 H 0.0455 0.16938 0.88105 0.0
C708 C 0.95025 0.13334 0.82627 0.0
C709 C 0.93707 0.12739 0.88357 0.0
C710 C 0.97263 0.13487 0.83542 0.0
C711 C 0.98243 0.13025 0.90181 0.0
C712 C 0.96936 0.12383 0.95878 0.0
C713 C 0.94689 0.12254 0.94989 0.0
C714 C 0.04082 0.1206 0.95906 0.0
C715 C 0.05083 0.13938 0.93589 0.0
C716 C 0.01862 0.11753 0.9478 0.0
C717 C 0.00609 0.13302 0.91218 0.0
C718 C 0.01622 0.15154 0.88752 0.0
C719 C 0.0383 0.15474 0.89959 0.0
H720 H 0.16036 0.30765 0.8498 0.0
H721 H 0.0911 0.30272 0.86961 0.0
H722 H 0.16365 0.26939 0.8704 0.0
H723 H 0.09447 0.26474 0.89127 0.0
H724 H 0.11247 0.20211 0.00444 0.0
H725 H 0.1117 0.24045 0.98903 0.0
H726 H 0.15054 0.23554 0.8012 0.0
H727 H 0.15114 0.19701 0.81579 0.0
C728 C 0.14589 0.29844 0.85914 0.0
C729 C 0.12547 0.30817 0.85799 0.0
C730 C 0.14777 0.27658 0.8705 0.0
C731 C 0.12931 0.26414 0.88247 0.0
C732 C 0.10898 0.27396 0.88267 0.0
C733 C 0.10706 0.29569 0.86997 0.0
C734 C 0.12101 0.20916 0.96011 0.0
C735 C 0.13184 0.19646 0.91123 0.0
C736 C 0.12047 0.23112 0.95119 0.0
C737 C 0.13102 0.24094 0.8939 0.0
C738 C 0.14238 0.22837 0.8461 0.0
C739 C 0.14263 0.20632 0.85429 0.0
H740 H 0.07302 0.86389 0.21619 0.0
H741 H 0.08434 0.89672 0.0167 0.0
H742 H 0.03413 0.86585 0.19341 0.0
H743 H 0.04548 0.89849 0.99398 0.0
H744 H 0.97761 0.87043 0.94261 0.0
H745 H 0.01636 0.87151 0.9679 0.0
H746 H 0.00399 0.89305 0.1805 0.0
H747 H 0.96509 0.89207 0.15521 0.0
C748 C 0.06726 0.8716 0.16762 0.0
C749 C 0.08188 0.88002 0.11801 0.0
C750 C 0.04496 0.87281 0.15483 0.0
C751 C 0.03679 0.88225 0.09181 0.0
C752 C 0.05134 0.89093 0.04269 0.0
C753 C 0.07362 0.88995 0.05584 0.0
C754 C 0.98312 0.87549 0.99469 0.0
C755 C 0.96826 0.88112 0.04695 0.0
C756 C 0.00533 0.87622 0.00898 0.0
C757 C 0.01319 0.88237 0.07615 0.0
C758 C 0.99837 0.88812 0.12841 0.0
C759 C 0.97612 0.88765 0.11379 0.0
H760 H 0.42796 0.71442 0.27568 0.0
H761 H 0.3582 0.71359 0.26308 0.0
H762 H 0.42753 0.75284 0.27552 0.0
H763 H 0.35778 0.75215 0.26086 0.0
H764 H 0.36456 0.82204 0.31732 0.0
H765 H 0.3649 0.78355 0.32959 0.0
H766 H 0.42011 0.78088 0.19193 0.0
H767 H 0.42012 0.81915 0.18131 0.0
C768 C 0.41251 0.72244 0.27281 0.0
C769 C 0.39312 0.71095 0.26895 0.0
C770 C 0.41227 0.7445 0.27234 0.0
C771 C 0.39263 0.75562 0.26747 0.0
C772 C 0.37319 0.74411 0.26534 0.0
C773 C 0.37343 0.722 0.26623 0.0
C774 C 0.37681 0.8132 0.28998 0.0
C775 C 0.39233 0.82366 0.24843 0.0
C776 C 0.37694 0.79115 0.29669 0.0
C777 C 0.39257 0.7791 0.26191 0.0
C778 C 0.40807 0.78964 0.22052 0.0
C779 C 0.40799 0.81163 0.21403 0.0
H780 H 0.54696 0.16766 0.52719 0.0
H781 H 0.55236 0.1038 0.61007 0.0
H782 H 0.50835 0.16729 0.55054 0.0
H783 H 0.51364 0.10328 0.63204 0.0
H784 H 0.44687 0.11658 0.72194 0.0
H785 H 0.48585 0.11818 0.70574 0.0
H786 H 0.4759 0.15079 0.50411 0.0
H787 H 0.437 0.14959 0.52089 0.0
C788 C 0.53993 0.15354 0.55044 0.0
C789 C 0.55276 0.13573 0.56646 0.0
C790 C 0.51774 0.15328 0.56342 0.0
C791 C 0.50783 0.13521 0.59274 0.0
C792 C 0.52076 0.11754 0.61008 0.0
C793 C 0.54296 0.1178 0.59712 0.0
C794 C 0.45299 0.12412 0.67419 0.0
C795 C 0.43877 0.13294 0.62272 0.0
C796 C 0.47536 0.12495 0.66475 0.0
C797 C 0.48405 0.13462 0.60363 0.0
C798 C 0.46981 0.1435 0.55233 0.0
C799 C 0.44746 0.14269 0.56176 0.0
H800 H 0.84717 0.20002 0.82352 0.0
H801 H 0.91643 0.2074 0.84141 0.0
H802 H 0.8426 0.23762 0.84884 0.0
H803 H 0.91185 0.24472 0.86655 0.0
H804 H 0.89595 0.30621 0.97377 0.0
H805 H 0.89736 0.26802 0.96024 0.0
H806 H 0.85108 0.27231 0.78623 0.0
H807 H 0.84953 0.31061 0.79964 0.0
C808 C 0.86138 0.2096 0.83342 0.0
C809 C 0.88217 0.20073 0.83028 0.0
C810 C 0.85877 0.23113 0.84749 0.0
C811 C 0.87686 0.24413 0.85974 0.0
C812 C 0.89758 0.2351 0.85814 0.0
C813 C 0.9002 0.21372 0.84328 0.0
C814 C 0.88589 0.29906 0.93299 0.0
C815 C 0.87272 0.31157 0.88751 0.0
C816 C 0.88679 0.27715 0.92509 0.0
C817 C 0.87443 0.26716 0.87193 0.0
C818 C 0.86068 0.27953 0.82803 0.0
C819 C 0.8599 0.3015 0.8355 0.0
H820 H 0.57664 0.79642 0.23742 0.0
H821 H 0.63589 0.80753 0.3557 0.0
H822 H 0.58168 0.75849 0.25228 0.0
H823 H 0.6412 0.76943 0.36935 0.0
H824 H 0.63239 0.69985 0.43793 0.0
H825 H 0.62727 0.73795 0.42719 0.0
H826 H 0.60442 0.73068 0.21032 0.0
H827 H 0.60911 0.69256 0.2215 0.0
C828 C 0.59076 0.79079 0.2667 0.0
C829 C 0.60588 0.80508 0.29524 0.0
C830 C 0.59375 0.76897 0.27474 0.0
C831 C 0.61195 0.7608 0.31148 0.0
C832 C 0.62689 0.77511 0.34124 0.0
C833 C 0.62389 0.79699 0.33322 0.0
C834 C 0.62632 0.70636 0.38784 0.0
C835 C 0.62112 0.69305 0.33063 0.0
C836 C 0.62347 0.72827 0.38159 0.0
C837 C 0.61536 0.73747 0.31797 0.0
C838 C 0.61036 0.72416 0.26056 0.0
C839 C 0.61318 0.70226 0.26682 0.0
H840 H 0.92114 0.71885 0.19807 0.0
H841 H 0.85156 0.71406 0.20531 0.0
H842 H 0.91822 0.75702 0.18187 0.0
H843 H 0.84868 0.75232 0.18862 0.0
H844 H 0.85556 0.82363 0.24006 0.0
H845 H 0.85747 0.78527 0.25473 0.0
H846 H 0.90524 0.78268 0.08996 0.0
H847 H 0.90351 0.82093 0.07541 0.0
C848 C 0.90522 0.72592 0.19609 0.0
C849 C 0.88659 0.71339 0.20294 0.0
C850 C 0.90355 0.7478 0.18641 0.0
C851 C 0.88322 0.75769 0.18382 0.0
C852 C 0.86457 0.74518 0.191 0.0
C853 C 0.86623 0.72326 0.20015 0.0
C854 C 0.86643 0.81489 0.20678 0.0
C855 C 0.87941 0.82543 0.15664 0.0
C856 C 0.86743 0.7929 0.21498 0.0
C857 C 0.88156 0.78097 0.17368 0.0
C858 C 0.89439 0.79146 0.1232 0.0
C859 C 0.89328 0.8134 0.11461 0.0
H860 H 0.63867 0.18144 0.53772 0.0
H861 H 0.60904 0.1714 0.74233 0.0
H862 H 0.63388 0.21948 0.54923 0.0
H863 H 0.60473 0.20939 0.75455 0.0
H864 H 0.57915 0.27626 0.7197 0.0
H865 H 0.58392 0.23839 0.70549 0.0
H866 H 0.64686 0.24948 0.61589 0.0
H867 H 0.64188 0.28747 0.62868 0.0
C868 C 0.63126 0.18733 0.58538 0.0
C869 C 0.62422 0.17332 0.63905 0.0
C870 C 0.62861 0.20918 0.59215 0.0
C871 C 0.61888 0.21756 0.65277 0.0
C872 C 0.61198 0.20352 0.70661 0.0
C873 C 0.61459 0.18169 0.69981 0.0
C874 C 0.594 0.27066 0.69679 0.0
C875 C 0.61013 0.28494 0.6754 0.0
C876 C 0.5968 0.24889 0.68907 0.0
C877 C 0.61582 0.24081 0.65984 0.0
C878 C 0.6319 0.25513 0.63788 0.0
C879 C 0.62909 0.27692 0.64556 0.0
H880 H 0.96014 0.39223 0.92707 0.0
H881 H 0.97095 0.33074 0.02434 0.0
H882 H 0.99891 0.39642 0.91137 0.0
H883 H 0.0097 0.33477 0.00723 0.0
H884 H 0.07875 0.35954 0.03679 0.0
H885 H 0.03996 0.3554 0.05238 0.0
H886 H 0.02835 0.38242 0.84257 0.0
H887 H 0.06709 0.38696 0.82744 0.0
C888 C 0.97077 0.37954 0.94472 0.0
C889 C 0.96245 0.36116 0.97706 0.0
C890 C 0.993 0.38191 0.93537 0.0
C891 C 0.00741 0.36594 0.95807 0.0
C892 C 0.99906 0.3475 0.99005 0.0
C893 C 0.97683 0.34514 0.99945 0.0
C894 C 0.06793 0.36461 0.99396 0.0
C895 C 0.07604 0.3736 0.93089 0.0
C896 C 0.0457 0.36212 1.00276 0.0
C897 C 0.03106 0.36855 0.94868 0.0
C898 C 0.03917 0.37755 0.88564 0.0
C899 C 0.0614 0.38007 0.87685 0.0
H900 H 0.44227 0.60361 0.44828 0.0
H901 H 0.4418 0.64673 0.26749 0.0
H902 H 0.48155 0.60715 0.45804 0.0
H903 H 0.48086 0.6504 0.27819 0.0
H904 H 0.54429 0.67289 0.38935 0.0
H905 H 0.50569 0.66678 0.37123 0.0
H906 H 0.51611 0.59947 0.38824 0.0
H907 H 0.55492 0.60554 0.40584 0.0
C908 C 0.45048 0.61373 0.41036 0.0
C909 C 0.43874 0.62506 0.35756 0.0
C910 C 0.47301 0.61568 0.41585 0.0
C911 C 0.48424 0.62919 0.36923 0.0
C912 C 0.4726 0.64009 0.31546 0.0
C913 C 0.45018 0.63794 0.30936 0.0
C914 C 0.5384 0.65677 0.38889 0.0
C915 C 0.55268 0.63971 0.39907 0.0
C916 C 0.51629 0.65328 0.37817 0.0
C917 C 0.50788 0.63265 0.37833 0.0
C918 C 0.52213 0.61554 0.3883 0.0
C919 C 0.54435 0.61903 0.39795 0.0
H920 H 0.45133 0.34784 0.44927 0.0
H921 H 0.44225 0.3815 0.64514 0.0
H922 H 0.49035 0.35241 0.46168 0.0
H923 H 0.48143 0.38588 0.6577 0.0
H924 H 0.55287 0.36225 0.69017 0.0
H925 H 0.5136 0.3606 0.67825 0.0
H926 H 0.51757 0.38323 0.46082 0.0
H927 H 0.55693 0.38507 0.4726 0.0
C928 C 0.45766 0.35617 0.49506 0.0
C929 C 0.44373 0.36426 0.54636 0.0
C930 C 0.47998 0.35892 0.5018 0.0
C931 C 0.48886 0.36955 0.56049 0.0
C932 C 0.47497 0.37756 0.61207 0.0
C933 C 0.45259 0.37509 0.60477 0.0
C934 C 0.54539 0.367 0.63989 0.0
C935 C 0.55804 0.37373 0.58221 0.0
C936 C 0.5229 0.36616 0.6333 0.0
C937 C 0.51259 0.37174 0.56861 0.0
C938 C 0.52516 0.37871 0.51114 0.0
C939 C 0.54766 0.37986 0.51804 0.0
H940 H 0.0508 0.61736 0.16158 0.0
H941 H 0.03628 0.6479 0.95912 0.0
H942 H 0.01204 0.61484 0.18544 0.0
H943 H 0.99777 0.6452 0.98278 0.0
H944 H 0.93147 0.6141 0.01406 0.0
H945 H 0.97036 0.61551 0.99501 0.0
H946 H 0.98017 0.64001 0.20636 0.0
H947 H 0.94119 0.63877 0.22561 0.0
C948 C 0.03937 0.62354 0.12227 0.0
C949 C 0.04665 0.63283 0.05846 0.0
C950 C 0.01721 0.62216 0.13605 0.0
C951 C 0.00187 0.62972 0.08578 0.0
C952 C 0.00918 0.63903 0.02217 0.0
C953 C 0.03128 0.64069 0.00888 0.0
C954 C 0.94188 0.61967 0.05675 0.0
C955 C 0.93315 0.62637 0.12134 0.0
C956 C 0.96416 0.62059 0.04562 0.0
C957 C 0.9783 0.62795 0.09909 0.0
C958 C 0.96968 0.63415 0.16434 0.0
C959 C 0.94734 0.63353 0.17517 0.0
H960 H 0.13814 0.54814 0.21001 0.0
H961 H 0.12547 0.55966 0.98569 0.0
H962 H 0.1437 0.51074 0.18648 0.0
H963 H 0.13128 0.52234 0.96232 0.0
H964 H 0.12115 0.44986 0.96246 0.0
H965 H 0.11492 0.48735 0.9841 0.0
H966 H 0.17015 0.4883 0.1275 0.0
H967 H 0.17627 0.45094 0.10654 0.0
C968 C 0.13651 0.54273 0.15573 0.0
C969 C 0.13138 0.55698 0.09981 0.0
C970 C 0.13984 0.5213 0.14217 0.0
C971 C 0.13801 0.51355 0.07244 0.0
C972 C 0.13262 0.52774 0.01669 0.0
C973 C 0.12942 0.54918 0.03014 0.0
C974 C 0.13203 0.45811 0.99828 0.0
C975 C 0.1492 0.44736 0.03277 0.0
C976 C 0.12849 0.47961 0.01055 0.0
C977 C 0.14196 0.4908 0.05791 0.0
C978 C 0.15927 0.48009 0.0916 0.0
C979 C 0.16287 0.45867 0.07907 0.0
H980 H 0.67466 0.90697 0.25429 0.0
H981 H 0.6875 0.8598 0.41832 0.0
H982 H 0.71328 0.91147 0.23716 0.0
H983 H 0.7264 0.86433 0.40063 0.0
H984 H 0.79182 0.86228 0.27738 0.0
H985 H 0.75336 0.85758 0.30125 0.0
H986 H 0.74534 0.92527 0.30684 0.0
H987 H 0.78372 0.93003 0.28326 0.0
C988 C 0.68572 0.89756 0.28685 0.0
C989 C 0.67797 0.883 0.33771 0.0
C990 C 0.70787 0.90025 0.2772 0.0
C991 C 0.72285 0.88828 0.3176 0.0
C992 C 0.71519 0.87367 0.36844 0.0
C993 C 0.69295 0.87116 0.3788 0.0
C994 C 0.78185 0.87616 0.28367 0.0
C995 C 0.7908 0.89654 0.27807 0.0
C996 C 0.75988 0.87345 0.29789 0.0
C997 C 0.74637 0.89105 0.30586 0.0
C998 C 0.75534 0.91141 0.3004 0.0
C999 C 0.77733 0.91412 0.28709 0.0
H1000 H 0.38286 0.44237 0.70641 0.0
H1001 H 0.3574 0.43006 0.4954 0.0
H1002 H 0.38167 0.48033 0.68052 0.0
H1003 H 0.35625 0.46796 0.46975 0.0
H1004 H 0.3812 0.53588 0.42752 0.0
H1005 H 0.38281 0.49796 0.45374 0.0
H1006 H 0.35309 0.5082 0.65681 0.0
H1007 H 0.3514 0.54605 0.63078 0.0
C1008 C 0.37703 0.44776 0.65456 0.0
C1009 C 0.37019 0.43321 0.60302 0.0
C1010 C 0.37625 0.46948 0.63989 0.0
C1011 C 0.36889 0.47709 0.57308 0.0
C1012 C 0.36218 0.46254 0.52145 0.0
C1013 C 0.3627 0.44085 0.53639 0.0
C1014 C 0.37501 0.53004 0.47775 0.0
C1015 C 0.36614 0.54398 0.52699 0.0
C1016 C 0.37585 0.50833 0.4926 0.0
C1017 C 0.36808 0.50014 0.55734 0.0
C1018 C 0.35937 0.51408 0.60677 0.0
C1019 C 0.35829 0.53575 0.5916 0.0
H1020 H 0.80242 0.13695 0.90705 0.0
H1021 H 0.82013 0.09883 0.72807 0.0
H1022 H 0.76423 0.1327 0.87444 0.0
H1023 H 0.78206 0.09455 0.69606 0.0
H1024 H 0.71146 0.07097 0.72259 0.0
H1025 H 0.7497 0.07641 0.75034 0.0
H1026 H 0.73831 0.14324 0.77226 0.0
H1027 H 0.69995 0.13786 0.744 0.0
C1028 C 0.79819 0.12765 0.86089 0.0
C1029 C 0.81435 0.11819 0.8203 0.0
C1030 C 0.77634 0.12535 0.84197 0.0
C1031 C 0.77017 0.11329 0.78268 0.0
C1032 C 0.78631 0.10379 0.74231 0.0
C1033 C 0.80813 0.10632 0.76061 0.0
C1034 C 0.71711 0.08686 0.73276 0.0
C1035 C 0.70267 0.10399 0.73097 0.0
C1036 C 0.73903 0.08997 0.74846 0.0
C1037 C 0.74698 0.11024 0.7637 0.0
C1038 C 0.73259 0.12742 0.76134 0.0
C1039 C 0.71069 0.12435 0.74459 0.0
H1040 H 0.8243 0.53977 0.94696 0.0
H1041 H 0.88806 0.53935 0.04402 0.0
H1042 H 0.82709 0.50196 0.92608 0.0
H1043 H 0.89107 0.50167 0.0216 0.0
H1044 H 0.88111 0.43066 0.03598 0.0
H1045 H 0.87692 0.46806 0.05954 0.0
H1046 H 0.84594 0.47707 0.85349 0.0
H1047 H 0.84968 0.43945 0.83047 0.0
C1048 C 0.83894 0.53163 0.96376 0.0
C1049 C 0.85594 0.5426 0.99732 0.0
C1050 C 0.84059 0.50995 0.95133 0.0
C1051 C 0.85931 0.49872 0.97206 0.0
C1052 C 0.87628 0.50972 0.00585 0.0
C1053 C 0.8746 0.53138 0.01842 0.0
C1054 C 0.87337 0.44055 0.99562 0.0
C1055 C 0.86581 0.43196 0.93117 0.0
C1056 C 0.87107 0.46209 0.00903 0.0
C1057 C 0.86121 0.47566 0.9583 0.0
C1058 C 0.85341 0.46705 0.89414 0.0
C1059 C 0.85565 0.44547 0.88078 0.0
H1060 H 0.21191 0.13442 0.85182 0.0
H1061 H 0.20034 0.10309 0.65183 0.0
H1062 H 0.25038 0.13658 0.82567 0.0
H1063 H 0.23881 0.10527 0.62589 0.0
H1064 H 0.30468 0.13651 0.57263 0.0
H1065 H 0.26615 0.13378 0.59858 0.0
H1066 H 0.28178 0.11199 0.81223 0.0
H1067 H 0.32017 0.11472 0.78663 0.0
C1068 C 0.21757 0.12792 0.80246 0.0
C1069 C 0.20306 0.11856 0.75397 0.0
C1070 C 0.23962 0.12909 0.78761 0.0
C1071 C 0.24759 0.12115 0.72363 0.0
C1072 C 0.2331 0.11173 0.67526 0.0
C1073 C 0.21109 0.11035 0.69044 0.0
C1074 C 0.29988 0.13116 0.62511 0.0
C1075 C 0.31549 0.12583 0.67751 0.0
C1076 C 0.27783 0.12947 0.63982 0.0
C1077 C 0.27096 0.12269 0.70747 0.0
C1078 C 0.28658 0.11745 0.75985 0.0
C1079 C 0.30858 0.11889 0.74495 0.0
H1080 H 0.65357 0.57399 0.47143 0.0
H1081 H 0.60633 0.56319 0.30395 0.0
H1082 H 0.65468 0.53616 0.4979 0.0
H1083 H 0.60748 0.52528 0.33068 0.0
H1084 H 0.59932 0.46178 0.45486 0.0
H1085 H 0.59748 0.4998 0.42951 0.0
H1086 H 0.66712 0.50337 0.43877 0.0
H1087 H 0.66901 0.46552 0.464 0.0
C1088 C 0.64343 0.56357 0.44015 0.0
C1089 C 0.6299 0.57166 0.3854 0.0
C1090 C 0.64414 0.54186 0.45521 0.0
C1091 C 0.63117 0.52771 0.41639 0.0
C1092 C 0.61752 0.53579 0.36197 0.0
C1093 C 0.61698 0.55751 0.34637 0.0
C1094 C 0.61423 0.4707 0.45173 0.0
C1095 C 0.63431 0.4606 0.46153 0.0
C1096 C 0.61317 0.49244 0.43675 0.0
C1097 C 0.63216 0.5046 0.43214 0.0
C1098 C 0.6522 0.49451 0.44263 0.0
C1099 C 0.65326 0.47277 0.45677 0.0
H1100 H 0.30926 0.86013 0.34679 0.0
H1101 H 0.31442 0.91948 0.23208 0.0
H1102 H 0.27153 0.85727 0.30908 0.0
H1103 H 0.27649 0.91729 0.19734 0.0
H1104 H 0.21455 0.89797 0.08474 0.0
H1105 H 0.25229 0.90003 0.12207 0.0
H1106 H 0.23661 0.86999 0.32312 0.0
H1107 H 0.19919 0.86683 0.28396 0.0
C1108 C 0.30222 0.87273 0.31439 0.0
C1109 C 0.31484 0.88999 0.29228 0.0
C1110 C 0.28051 0.87116 0.29293 0.0
C1111 C 0.27079 0.88701 0.24974 0.0
C1112 C 0.28341 0.9045 0.22908 0.0
C1113 C 0.30517 0.90588 0.24957 0.0
C1114 C 0.21917 0.89175 0.13684 0.0
C1115 C 0.20375 0.8823 0.18133 0.0
C1116 C 0.24085 0.89308 0.15864 0.0
C1117 C 0.24767 0.88529 0.22602 0.0
C1118 C 0.23218 0.87587 0.27047 0.0
C1119 C 0.21058 0.87424 0.2482 0.0
H1120 H 0.60621 0.94962 0.43063 0.0
H1121 H 0.65917 0.94145 0.58117 0.0
H1122 H 0.60499 0.98725 0.45783 0.0
H1123 H 0.65803 0.97897 0.60781 0.0
H1124 H 0.63355 0.04244 0.69285 0.0
H1125 H 0.63436 0.00474 0.66621 0.0
H1126 H 0.62705 0.01943 0.44179 0.0
H1127 H 0.62607 0.05693 0.46809 0.0
C1128 C 0.61765 0.95584 0.46921 0.0
C1129 C 0.6328 0.94249 0.50358 0.0
C1130 C 0.617 0.97742 0.48467 0.0
C1131 C 0.63138 0.98612 0.53521 0.0
C1132 C 0.64654 0.97275 0.56936 0.0
C1133 C 0.64729 0.95124 0.55359 0.0
C1134 C 0.6321 0.03763 0.63786 0.0
C1135 C 0.62974 0.05278 0.58274 0.0
C1136 C 0.63267 0.01603 0.62254 0.0
C1137 C 0.63072 0.00906 0.55183 0.0
C1138 C 0.62832 0.02421 0.49686 0.0
C1139 C 0.62792 0.04576 0.51204 0.0
H1140 H 0.20881 0.35963 0.94044 0.0
H1141 H 0.19302 0.40906 0.78705 0.0
H1142 H 0.24655 0.36098 0.90348 0.0
H1143 H 0.23061 0.41039 0.75067 0.0
H1144 H 0.3043 0.42267 0.77295 0.0
H1145 H 0.26644 0.42087 0.8069 0.0
H1146 H 0.26795 0.35292 0.79091 0.0
H1147 H 0.3059 0.35467 0.75651 0.0
C1148 C 0.21339 0.37083 0.89919 0.0
C1149 C 0.19793 0.38426 0.8668 0.0
C1150 C 0.23493 0.37148 0.87769 0.0
C1151 C 0.24146 0.38577 0.82414 0.0
C1152 C 0.22606 0.39933 0.79239 0.0
C1153 C 0.20452 0.39851 0.81317 0.0
C1154 C 0.29653 0.40735 0.77614 0.0
C1155 C 0.30807 0.38881 0.76197 0.0
C1156 C 0.27485 0.40634 0.79543 0.0
C1157 C 0.26432 0.38675 0.80184 0.0
C1158 C 0.27576 0.36821 0.78703 0.0
C1159 C 0.2974 0.36924 0.76675 0.0
H1160 H 0.85157 0.953 0.19726 0.0
H1161 H 0.88331 0.94328 0.99708 0.0
H1162 H 0.84697 0.99033 0.16654 0.0
H1163 H 0.87818 0.98029 0.96557 0.0
H1164 H 0.88787 0.05169 0.96711 0.0
H1165 H 0.89138 0.01428 0.99634 0.0
H1166 H 0.82791 0.0146 0.08901 0.0
H1167 H 0.82468 0.05227 0.06161 0.0
C1168 C 0.85744 0.95876 0.14649 0.0
C1169 C 0.86797 0.9451 0.09993 0.0
C1170 C 0.85468 0.98017 0.12864 0.0
C1171 C 0.86228 0.98842 0.06361 0.0
C1172 C 0.87249 0.97465 0.01669 0.0
C1173 C 0.87535 0.95333 0.03469 0.0
C1174 C 0.8746 0.04378 0.99338 0.0
C1175 C 0.856 0.05502 0.01202 0.0
C1176 C 0.87657 0.02225 0.00991 0.0
C1177 C 0.85993 0.01133 0.04512 0.0
C1178 C 0.84119 0.02253 0.06288 0.0
C1179 C 0.83927 0.04412 0.04665 0.0
H1180 H 0.20168 0.63988 0.22446 0.0
H1181 H 0.2059 0.57572 0.30525 0.0
H1182 H 0.24058 0.64404 0.24297 0.0
H1183 H 0.24472 0.5797 0.32211 0.0
H1184 H 0.30953 0.60103 0.41531 0.0
H1185 H 0.27066 0.5974 0.39678 0.0
H1186 H 0.27494 0.63262 0.19861 0.0
H1187 H 0.31368 0.63671 0.21784 0.0
C1188 C 0.21091 0.62662 0.24566 0.0
C1189 C 0.20063 0.60749 0.2635 0.0
C1190 C 0.23325 0.62897 0.256 0.0
C1191 C 0.24584 0.61223 0.28431 0.0
C1192 C 0.23553 0.59305 0.3014 0.0
C1193 C 0.21324 0.59073 0.29123 0.0
C1194 C 0.30221 0.60801 0.36776 0.0
C1195 C 0.31482 0.61917 0.31816 0.0
C1196 C 0.2799 0.60583 0.35691 0.0
C1197 C 0.2696 0.6147 0.29611 0.0
C1198 C 0.28223 0.62584 0.24652 0.0
C1199 C 0.30452 0.62806 0.2574 0.0
H1200 H 0.32416 0.95611 0.48814 0.0
H1201 H 0.389 0.96008 0.40696 0.0
H1202 H 0.32473 0.99384 0.51131 0.0
H1203 H 0.38943 0.99802 0.42935 0.0
H1204 H 0.39026 0.06017 0.5555 0.0
H1205 H 0.38998 0.0223 0.5316 0.0
H1206 H 0.32488 0.0276 0.44694 0.0
H1207 H 0.32502 0.06522 0.4716 0.0
C1208 C 0.33849 0.96506 0.47466 0.0
C1209 C 0.35653 0.95507 0.44565 0.0
C1210 C 0.33878 0.98672 0.48774 0.0
C1211 C 0.35714 0.99894 0.47233 0.0
C1212 C 0.37514 0.989 0.44264 0.0
C1213 C 0.37482 0.9673 0.42924 0.0
C1214 C 0.37586 0.05321 0.53215 0.0
C1215 C 0.35765 0.06572 0.51561 0.0
C1216 C 0.37577 0.03156 0.51791 0.0
C1217 C 0.35742 0.02195 0.48723 0.0
C1218 C 0.33919 0.03446 0.47129 0.0
C1219 C 0.33931 0.05606 0.48522 0.0
H1220 H 0.81165 0.63973 0.27059 0.0
H1221 H 0.80186 0.60286 0.08091 0.0
H1222 H 0.7733 0.63709 0.29597 0.0
H1223 H 0.76339 0.6007 0.10534 0.0
H1224 H 0.69943 0.58284 0.20426 0.0
H1225 H 0.73819 0.58469 0.18537 0.0
H1226 H 0.73856 0.64951 0.25441 0.0
H1227 H 0.69977 0.64746 0.275 0.0
C1228 C 0.80135 0.63111 0.23409 0.0
C1229 C 0.80997 0.62149 0.17368 0.0
C1230 C 0.77927 0.62971 0.24848 0.0
C1231 C 0.76516 0.61868 0.2028 0.0
C1232 C 0.77378 0.60905 0.14239 0.0
C1233 C 0.79588 0.6104 0.12808 0.0
C1234 C 0.70777 0.59746 0.2159 0.0
C1235 C 0.69644 0.61501 0.24107 0.0
C1236 C 0.73002 0.59857 0.2045 0.0
C1237 C 0.74156 0.6173 0.21773 0.0
C1238 C 0.73029 0.63475 0.24428 0.0
C1239 C 0.708 0.63361 0.2559 0.0
H1240 H 0.15152 0.08002 0.06812 0.0
H1241 H 0.12698 0.06572 0.85745 0.0
H1242 H 0.15698 0.04241 0.0923 0.0
H1243 H 0.13254 0.02812 0.88179 0.0
H1244 H 0.12337 0.96182 0.98276 0.0
H1245 H 0.11772 0.99948 0.9591 0.0
H1246 H 0.18031 0.01309 0.05237 0.0
H1247 H 0.18596 0.97548 0.07639 0.0
C1248 C 0.1473 0.06889 0.0269 0.0
C1249 C 0.13879 0.07595 0.9608 0.0
C1250 C 0.15054 0.04732 0.04069 0.0
C1251 C 0.14518 0.03225 0.989 0.0
C1252 C 0.13662 0.0393 0.92301 0.0
C1253 C 0.13356 0.06088 0.90895 0.0
C1254 C 0.13592 0.97284 0.99837 0.0
C1255 C 0.15512 0.9656 0.03156 0.0
C1256 C 0.13273 0.99441 0.9844 0.0
C1257 C 0.14857 0.00929 0.00382 0.0
C1258 C 0.1677 1.00207 0.03741 0.0
C1259 C 0.17097 0.98048 0.05085 0.0
H1260 H 0.67898 0.35819 0.71992 0.0
H1261 H 0.68773 0.40358 0.54838 0.0
H1262 H 0.71678 0.36147 0.7532 0.0
H1263 H 0.72603 0.40612 0.57993 0.0
H1264 H 0.78845 0.42162 0.7042 0.0
H1265 H 0.75035 0.4193 0.66998 0.0
H1266 H 0.75158 0.35205 0.7135 0.0
H1267 H 0.78936 0.35452 0.74989 0.0
C1268 C 0.68895 0.36889 0.68914 0.0
C1269 C 0.68018 0.38077 0.63178 0.0
C1270 C 0.71077 0.37058 0.70782 0.0
C1271 C 0.72453 0.384 0.66915 0.0
C1272 C 0.71584 0.39584 0.61149 0.0
C1273 C 0.6939 0.39427 0.59307 0.0
C1274 C 0.78055 0.40636 0.70658 0.0
C1275 C 0.79188 0.38828 0.73021 0.0
C1276 C 0.75874 0.405 0.68647 0.0
C1277 C 0.74784 0.3855 0.68912 0.0
C1278 C 0.75931 0.3674 0.71206 0.0
C1279 C 0.78103 0.3688 0.73266 0.0
loop_
_geom_bond_atom_site_label_1
_geom_bond_atom_site_label_2
_geom_bond_distance
_geom_bond_site_symmetry_2
_ccdc_geom_bond_type
Zn0 O6 1.969 . S
Zn0 O7 1.965 . S
Zn0 O11 2.024 . S
Zn0 O16 1.969 . S
Zn1 O8 1.969 . S
Zn1 O14 1.969 1_554 S
Zn1 O15 1.965 . S
Zn1 O17 2.024 . S
C2 O3 1.229 . S
C2 O11 1.058 . S
O3 C2 1.229 . S
C4 O5 1.229 . S
C4 O17 1.058 . S
O5 C4 1.229 . S
O6 Zn0 1.969 . S
O6 C9 1.267 . S
O7 Zn0 1.965 . S
O7 C18 1.260 . S
O8 Zn1 1.969 . S
O8 C18 1.258 . S
C9 O6 1.267 . S
C9 O10 1.228 . S
O10 C9 1.228 . S
O11 Zn0 2.024 . S
O11 C2 1.058 . S
C12 O13 1.228 . S
C12 O14 1.267 . S
O13 C12 1.228 . S
O14 Zn1 1.969 1_556 S
O14 C12 1.267 . S
O15 Zn1 1.965 . S
O15 C19 1.260 . S
O16 Zn0 1.969 . S
O16 C19 1.258 . S
O17 Zn1 2.024 . S
O17 C4 1.058 . S
C18 O7 1.260 . S
C18 O8 1.258 . S
C19 O15 1.260 . S
C19 O16 1.258 . S
Zn20 O26 1.969 . S
Zn20 O27 1.965 . S
Zn20 O31 2.024 . S
Zn20 O36 1.969 . S
Zn21 O28 1.969 . S
Zn21 O34 1.969 . S
Zn21 O35 1.965 . S
Zn21 O37 2.024 . S
C22 O23 1.229 . S
C22 O31 1.058 . S
O23 C22 1.229 . S
C24 O25 1.229 . S
C24 O37 1.058 . S
O25 C24 1.229 . S
O26 Zn20 1.969 . S
O26 C29 1.267 . S
O27 Zn20 1.965 . S
O27 C38 1.260 . S
O28 Zn21 1.969 . S
O28 C38 1.258 . S
C29 O26 1.267 . S
C29 O30 1.228 . S
O30 C29 1.228 . S
O31 Zn20 2.024 . S
O31 C22 1.058 . S
C32 O33 1.228 . S
C32 O34 1.267 . S
O33 C32 1.228 . S
O34 Zn21 1.969 . S
O34 C32 1.267 . S
O35 Zn21 1.965 . S
O35 C39 1.260 . S
O36 Zn20 1.969 . S
O36 C39 1.258 . S
O37 Zn21 2.024 . S
O37 C24 1.058 . S
C38 O27 1.260 . S
C38 O28 1.258 . S
C39 O35 1.260 . S
C39 O36 1.258 . S
Zn40 O46 1.969 . S
Zn40 O47 1.965 . S
Zn40 O51 2.024 . S
Zn40 O56 1.969 . S
Zn41 O48 1.969 . S
Zn41 O54 1.969 . S
Zn41 O55 1.965 . S
Zn41 O57 2.024 . S
C42 O43 1.229 . S
C42 O51 1.058 . S
O43 C42 1.229 . S
C44 O45 1.229 . S
C44 O57 1.058 . S
O45 C44 1.229 . S
O46 Zn40 1.969 . S
O46 C49 1.267 . S
O47 Zn40 1.965 . S
O47 C58 1.260 . S
O48 Zn41 1.969 . S
O48 C58 1.258 . S
C49 O46 1.267 . S
C49 O50 1.228 . S
O50 C49 1.228 . S
O51 Zn40 2.024 . S
O51 C42 1.058 . S
C52 O53 1.228 . S
C52 O54 1.267 . S
O53 C52 1.228 . S
O54 Zn41 1.969 . S
O54 C52 1.267 . S
O55 Zn41 1.965 . S
O55 C59 1.260 . S
O56 Zn40 1.969 . S
O56 C59 1.258 . S
O57 Zn41 2.024 . S
O57 C44 1.058 . S
C58 O47 1.260 . S
C58 O48 1.258 . S
C59 O55 1.260 . S
C59 O56 1.258 . S
Zn60 O66 1.969 . S
Zn60 O67 1.965 1_554 S
Zn60 O71 2.024 1_554 S
Zn60 O76 1.969 1_554 S
Zn61 O68 1.969 . S
Zn61 O74 1.969 . S
Zn61 O75 1.965 . S
Zn61 O77 2.024 . S
C62 O63 1.229 . S
C62 O71 1.058 1_554 S
O63 C62 1.229 . S
C64 O65 1.229 . S
C64 O77 1.058 . S
O65 C64 1.229 . S
O66 Zn60 1.969 . S
O66 C69 1.267 . S
O67 Zn60 1.965 1_556 S
O67 C78 1.260 . S
O68 Zn61 1.969 . S
O68 C78 1.258 . S
C69 O66 1.267 . S
C69 O70 1.228 . S
O70 C69 1.228 . S
O71 Zn60 2.024 1_556 S
O71 C62 1.058 1_556 S
C72 O73 1.228 . S
C72 O74 1.267 . S
O73 C72 1.228 . S
O74 Zn61 1.969 . S
O74 C72 1.267 . S
O75 Zn61 1.965 . S
O75 C79 1.260 . S
O76 Zn60 1.969 1_556 S
O76 C79 1.258 . S
O77 Zn61 2.024 . S
O77 C64 1.058 . S
C78 O67 1.260 . S
C78 O68 1.258 . S
C79 O75 1.260 . S
C79 O76 1.258 . S
Zn80 O86 1.969 . S
Zn80 O87 1.965 1_554 S
Zn80 O91 2.024 1_554 S
Zn80 O96 1.969 1_554 S
Zn81 O88 1.969 . S
Zn81 O94 1.969 . S
Zn81 O95 1.965 . S
Zn81 O97 2.024 . S
C82 O83 1.229 . S
C82 O91 1.058 1_554 S
O83 C82 1.229 . S
C84 O85 1.229 . S
C84 O97 1.058 . S
O85 C84 1.229 . S
O86 Zn80 1.969 . S
O86 C89 1.267 . S
O87 Zn80 1.965 1_556 S
O87 C98 1.260 . S
O88 Zn81 1.969 . S
O88 C98 1.258 . S
C89 O86 1.267 . S
C89 O90 1.228 . S
O90 C89 1.228 . S
O91 Zn80 2.024 1_556 S
O91 C82 1.058 1_556 S
C92 O93 1.228 . S
C92 O94 1.267 . S
O93 C92 1.228 . S
O94 Zn81 1.969 . S
O94 C92 1.267 . S
O95 Zn81 1.965 . S
O95 C99 1.260 . S
O96 Zn80 1.969 1_556 S
O96 C99 1.258 . S
O97 Zn81 2.024 . S
O97 C84 1.058 . S
C98 O87 1.260 . S
C98 O88 1.258 . S
C99 O95 1.260 . S
C99 O96 1.258 . S
Zn100 O106 1.969 . S
Zn100 O107 1.965 . S
Zn100 O111 2.024 . S
Zn100 O116 1.969 . S
Zn101 O108 1.969 . S
Zn101 O114 1.969 1_554 S
Zn101 O115 1.965 . S
Zn101 O117 2.024 . S
C102 O103 1.229 . S
C102 O111 1.058 . S
O103 C102 1.229 . S
C104 O105 1.229 . S
C104 O117 1.058 . S
O105 C104 1.229 . S
O106 Zn100 1.969 . S
O106 C109 1.267 . S
O107 Zn100 1.965 . S
O107 C118 1.260 . S
O108 Zn101 1.969 . S
O108 C118 1.258 . S
C109 O106 1.267 . S
C109 O110 1.228 . S
O110 C109 1.228 . S
O111 Zn100 2.024 . S
O111 C102 1.058 . S
C112 O113 1.228 . S
C112 O114 1.267 . S
O113 C112 1.228 . S
O114 Zn101 1.969 1_556 S
O114 C112 1.267 . S
O115 Zn101 1.965 . S
O115 C119 1.260 . S
O116 Zn100 1.969 . S
O116 C119 1.258 . S
O117 Zn101 2.024 . S
O117 C104 1.058 . S
C118 O107 1.260 . S
C118 O108 1.258 . S
C119 O115 1.260 . S
C119 O116 1.258 . S
Zn120 O126 1.969 . S
Zn120 O127 1.965 . S
Zn120 O131 2.024 . S
Zn120 O136 1.969 . S
Zn121 O128 1.969 . S
Zn121 O134 1.969 . S
Zn121 O135 1.965 . S
Zn121 O137 2.024 . S
C122 O123 1.229 . S
C122 O131 1.058 . S
O123 C122 1.229 . S
C124 O125 1.229 . S
C124 O137 1.058 . S
O125 C124 1.229 . S
O126 Zn120 1.969 . S
O126 C129 1.267 . S
O127 Zn120 1.965 . S
O127 C138 1.260 . S
O128 Zn121 1.969 . S
O128 C138 1.258 . S
C129 O126 1.267 . S
C129 O130 1.228 . S
O130 C129 1.228 . S
O131 Zn120 2.024 . S
O131 C122 1.058 . S
C132 O133 1.228 . S
C132 O134 1.267 . S
O133 C132 1.228 . S
O134 Zn121 1.969 . S
O134 C132 1.267 . S
O135 Zn121 1.965 . S
O135 C139 1.260 . S
O136 Zn120 1.969 . S
O136 C139 1.258 . S
O137 Zn121 2.024 . S
O137 C124 1.058 . S
C138 O127 1.260 . S
C138 O128 1.258 . S
C139 O135 1.260 . S
C139 O136 1.258 . S
Zn140 O146 1.969 . S
Zn140 O147 1.965 . S
Zn140 O151 2.024 . S
Zn140 O156 1.969 . S
Zn141 O148 1.969 . S
Zn141 O154 1.969 . S
Zn141 O155 1.965 . S
Zn141 O157 2.024 . S
C142 O143 1.229 . S
C142 O151 1.058 . S
O143 C142 1.229 . S
C144 O145 1.229 . S
C144 O157 1.058 . S
O145 C144 1.229 . S
O146 Zn140 1.969 . S
O146 C149 1.267 . S
O147 Zn140 1.965 . S
O147 C158 1.260 . S
O148 Zn141 1.969 . S
O148 C158 1.258 . S
C149 O146 1.267 . S
C149 O150 1.228 . S
O150 C149 1.228 . S
O151 Zn140 2.024 . S
O151 C142 1.058 . S
C152 O153 1.228 . S
C152 O154 1.267 . S
O153 C152 1.228 . S
O154 Zn141 1.969 . S
O154 C152 1.267 . S
O155 Zn141 1.965 . S
O155 C159 1.260 . S
O156 Zn140 1.969 . S
O156 C159 1.258 . S
O157 Zn141 2.024 . S
O157 C144 1.058 . S
C158 O147 1.260 . S
C158 O148 1.258 . S
C159 O155 1.260 . S
C159 O156 1.258 . S
Zn160 O166 1.969 1_556 S
Zn160 O167 1.965 . S
Zn160 O171 2.024 . S
Zn160 O176 1.969 . S
Zn161 O168 1.969 . S
Zn161 O174 1.969 . S
Zn161 O175 1.965 . S
Zn161 O177 2.024 . S
C162 O163 1.229 . S
C162 O171 1.058 . S
O163 C162 1.229 . S
C164 O165 1.229 . S
C164 O177 1.058 . S
O165 C164 1.229 . S
O166 Zn160 1.969 1_554 S
O166 C169 1.267 . S
O167 Zn160 1.965 . S
O167 C178 1.260 . S
O168 Zn161 1.969 . S
O168 C178 1.258 . S
C169 O166 1.267 . S
C169 O170 1.228 . S
O170 C169 1.228 . S
O171 Zn160 2.024 . S
O171 C162 1.058 . S
C172 O173 1.228 . S
C172 O174 1.267 . S
O173 C172 1.228 . S
O174 Zn161 1.969 . S
O174 C172 1.267 . S
O175 Zn161 1.965 . S
O175 C179 1.260 . S
O176 Zn160 1.969 . S
O176 C179 1.258 . S
O177 Zn161 2.024 . S
O177 C164 1.058 . S
C178 O167 1.260 . S
C178 O168 1.258 . S
C179 O175 1.260 . S
C179 O176 1.258 . S
Zn180 O186 1.969 . S
Zn180 O187 1.965 . S
Zn180 O191 2.024 . S
Zn180 O196 1.969 . S
Zn181 O188 1.969 . S
Zn181 O194 1.969 . S
Zn181 O195 1.965 . S
Zn181 O197 2.024 . S
C182 O183 1.229 . S
C182 O191 1.058 . S
O183 C182 1.229 . S
C184 O185 1.229 . S
C184 O197 1.058 . S
O185 C184 1.229 . S
O186 Zn180 1.969 . S
O186 C189 1.267 . S
O187 Zn180 1.965 . S
O187 C198 1.260 . S
O188 Zn181 1.969 . S
O188 C198 1.258 . S
C189 O186 1.267 . S
C189 O190 1.228 . S
O190 C189 1.228 . S
O191 Zn180 2.024 . S
O191 C182 1.058 . S
C192 O193 1.228 . S
C192 O194 1.267 . S
O193 C192 1.228 . S
O194 Zn181 1.969 . S
O194 C192 1.267 . S
O195 Zn181 1.965 . S
O195 C199 1.260 . S
O196 Zn180 1.969 . S
O196 C199 1.258 . S
O197 Zn181 2.024 . S
O197 C184 1.058 . S
C198 O187 1.260 . S
C198 O188 1.258 . S
C199 O195 1.260 . S
C199 O196 1.258 . S
Zn200 O206 1.969 . S
Zn200 O207 1.965 . S
Zn200 O211 2.024 . S
Zn200 O216 1.969 . S
Zn201 O208 1.969 . S
Zn201 O214 1.969 . S
Zn201 O215 1.965 . S
Zn201 O217 2.024 . S
C202 O203 1.229 . S
C202 O211 1.058 . S
O203 C202 1.229 . S
C204 O205 1.229 . S
C204 O217 1.058 . S
O205 C204 1.229 . S
O206 Zn200 1.969 . S
O206 C209 1.267 . S
O207 Zn200 1.965 . S
O207 C218 1.260 . S
O208 Zn201 1.969 . S
O208 C218 1.258 . S
C209 O206 1.267 . S
C209 O210 1.228 . S
O210 C209 1.228 . S
O211 Zn200 2.024 . S
O211 C202 1.058 . S
C212 O213 1.228 . S
C212 O214 1.267 . S
O213 C212 1.228 . S
O214 Zn201 1.969 . S
O214 C212 1.267 . S
O215 Zn201 1.965 . S
O215 C219 1.260 . S
O216 Zn200 1.969 . S
O216 C219 1.258 . S
O217 Zn201 2.024 . S
O217 C204 1.058 . S
C218 O207 1.260 . S
C218 O208 1.258 . S
C219 O215 1.260 . S
C219 O216 1.258 . S
Zn220 O226 1.969 . S
Zn220 O227 1.965 . S
Zn220 O231 2.024 . S
Zn220 O236 1.969 . S
Zn221 O228 1.969 . S
Zn221 O234 1.969 1_554 S
Zn221 O235 1.965 . S
Zn221 O237 2.024 . S
C222 O223 1.229 . S
C222 O231 1.058 . S
O223 C222 1.229 . S
C224 O225 1.229 1_554 S
C224 O237 1.058 . S
O225 C224 1.229 1_556 S
O226 Zn220 1.969 . S
O226 C229 1.267 . S
O227 Zn220 1.965 . S
O227 C238 1.260 . S
O228 Zn221 1.969 . S
O228 C238 1.258 . S
C229 O226 1.267 . S
C229 O230 1.228 . S
O230 C229 1.228 . S
O231 Zn220 2.024 . S
O231 C222 1.058 . S
C232 O233 1.228 . S
C232 O234 1.267 . S
O233 C232 1.228 . S
O234 Zn221 1.969 1_556 S
O234 C232 1.267 . S
O235 Zn221 1.965 . S
O235 C239 1.260 . S
O236 Zn220 1.969 . S
O236 C239 1.258 . S
O237 Zn221 2.024 . S
O237 C224 1.058 . S
C238 O227 1.260 . S
C238 O228 1.258 . S
C239 O235 1.260 . S
C239 O236 1.258 . S
Zn240 O246 1.969 . S
Zn240 O247 1.965 . S
Zn240 O251 2.024 . S
Zn240 O256 1.969 . S
Zn241 O248 1.969 1_556 S
Zn241 O254 1.969 . S
Zn241 O255 1.965 1_556 S
Zn241 O257 2.024 1_556 S
C242 O243 1.229 . S
C242 O251 1.058 . S
O243 C242 1.229 . S
C244 O245 1.229 . S
C244 O257 1.058 1_556 S
O245 C244 1.229 . S
O246 Zn240 1.969 . S
O246 C249 1.267 . S
O247 Zn240 1.965 . S
O247 C258 1.260 . S
O248 Zn241 1.969 1_554 S
O248 C258 1.258 . S
C249 O246 1.267 . S
C249 O250 1.228 . S
O250 C249 1.228 . S
O251 Zn240 2.024 . S
O251 C242 1.058 . S
C252 O253 1.228 . S
C252 O254 1.267 . S
O253 C252 1.228 . S
O254 Zn241 1.969 . S
O254 C252 1.267 . S
O255 Zn241 1.965 1_554 S
O255 C259 1.260 . S
O256 Zn240 1.969 . S
O256 C259 1.258 . S
O257 Zn241 2.024 1_554 S
O257 C244 1.058 1_554 S
C258 O247 1.260 . S
C258 O248 1.258 . S
C259 O255 1.260 . S
C259 O256 1.258 . S
Zn260 O266 1.969 1_556 S
Zn260 O267 1.965 . S
Zn260 O271 2.024 . S
Zn260 O276 1.969 . S
Zn261 O268 1.969 . S
Zn261 O274 1.969 . S
Zn261 O275 1.965 . S
Zn261 O277 2.024 . S
C262 O263 1.229 . S
C262 O271 1.058 . S
O263 C262 1.229 . S
C264 O265 1.229 . S
C264 O277 1.058 . S
O265 C264 1.229 . S
O266 Zn260 1.969 1_554 S
O266 C269 1.267 . S
O267 Zn260 1.965 . S
O267 C278 1.260 . S
O268 Zn261 1.969 . S
O268 C278 1.258 . S
C269 O266 1.267 . S
C269 O270 1.228 . S
O270 C269 1.228 . S
O271 Zn260 2.024 . S
O271 C262 1.058 . S
C272 O273 1.228 . S
C272 O274 1.267 . S
O273 C272 1.228 . S
O274 Zn261 1.969 . S
O274 C272 1.267 . S
O275 Zn261 1.965 . S
O275 C279 1.260 . S
O276 Zn260 1.969 . S
O276 C279 1.258 . S
O277 Zn261 2.024 . S
O277 C264 1.058 . S
C278 O267 1.260 . S
C278 O268 1.258 . S
C279 O275 1.260 . S
C279 O276 1.258 . S
Zn280 O286 1.969 . S
Zn280 O287 1.965 . S
Zn280 O291 2.024 . S
Zn280 O296 1.969 . S
Zn281 O288 1.969 . S
Zn281 O294 1.969 . S
Zn281 O295 1.965 . S
Zn281 O297 2.024 . S
C282 O283 1.229 . S
C282 O291 1.058 . S
O283 C282 1.229 . S
C284 O285 1.229 . S
C284 O297 1.058 . S
O285 C284 1.229 . S
O286 Zn280 1.969 . S
O286 C289 1.267 . S
O287 Zn280 1.965 . S
O287 C298 1.260 . S
O288 Zn281 1.969 . S
O288 C298 1.258 . S
C289 O286 1.267 . S
C289 O290 1.228 . S
O290 C289 1.228 . S
O291 Zn280 2.024 . S
O291 C282 1.058 . S
C292 O293 1.228 . S
C292 O294 1.267 . S
O293 C292 1.228 . S
O294 Zn281 1.969 . S
O294 C292 1.267 . S
O295 Zn281 1.965 . S
O295 C299 1.260 . S
O296 Zn280 1.969 . S
O296 C299 1.258 . S
O297 Zn281 2.024 . S
O297 C284 1.058 . S
C298 O287 1.260 . S
C298 O288 1.258 . S
C299 O295 1.260 . S
C299 O296 1.258 . S
Zn300 O306 1.969 . S
Zn300 O307 1.965 . S
Zn300 O311 2.024 . S
Zn300 O316 1.969 . S
Zn301 O308 1.969 . S
Zn301 O314 1.969 . S
Zn301 O315 1.965 . S
Zn301 O317 2.024 . S
C302 O303 1.229 . S
C302 O311 1.058 . S
O303 C302 1.229 . S
C304 O305 1.229 . S
C304 O317 1.058 . S
O305 C304 1.229 . S
O306 Zn300 1.969 . S
O306 C309 1.267 . S
O307 Zn300 1.965 . S
O307 C318 1.260 . S
O308 Zn301 1.969 . S
O308 C318 1.258 . S
C309 O306 1.267 . S
C309 O310 1.228 . S
O310 C309 1.228 . S
O311 Zn300 2.024 . S
O311 C302 1.058 . S
C312 O313 1.228 . S
C312 O314 1.267 . S
O313 C312 1.228 . S
O314 Zn301 1.969 . S
O314 C312 1.267 . S
O315 Zn301 1.965 . S
O315 C319 1.260 . S
O316 Zn300 1.969 . S
O316 C319 1.258 . S
O317 Zn301 2.024 . S
O317 C304 1.058 . S
C318 O307 1.260 . S
C318 O308 1.258 . S
C319 O315 1.260 . S
C319 O316 1.258 . S
H320 C328 0.950 . S
H321 C333 0.950 . S
H322 C330 0.950 . S
H323 C332 0.950 . S
H324 C334 0.950 . S
H325 C336 0.950 . S
H326 C338 0.950 . S
H327 C339 0.950 . S
C328 H320 0.950 . S
C328 C329 1.386 . S
C328 C330 1.391 . S
C329 C328 1.386 . S
C329 C333 1.393 . S
C330 H322 0.950 . S
C330 C328 1.391 . S
C330 C331 1.400 . S
C331 C330 1.400 . S
C331 C332 1.398 . S
C331 C337 1.491 . S
C332 H323 0.950 . S
C332 C331 1.398 . S
C332 C333 1.391 . S
C333 H321 0.950 . S
C333 C329 1.393 . S
C333 C332 1.391 . S
C334 H324 0.950 . S
C334 C335 1.386 . S
C334 C336 1.391 . S
C335 C334 1.386 . S
C335 C339 1.393 . S
C336 H325 0.950 . S
C336 C334 1.391 . S
C336 C337 1.400 . S
C337 C331 1.491 . S
C337 C336 1.400 . S
C337 C338 1.398 . S
C338 H326 0.950 . S
C338 C337 1.398 . S
C338 C339 1.391 . S
C339 H327 0.950 . S
C339 C335 1.393 . S
C339 C338 1.391 . S
H340 C348 0.950 . S
H341 C353 0.950 . S
H342 C350 0.950 . S
H343 C352 0.950 . S
H344 C354 0.950 . S
H345 C356 0.950 . S
H346 C358 0.950 . S
H347 C359 0.950 . S
C348 H340 0.950 . S
C348 C349 1.386 . S
C348 C350 1.391 1_554 S
C349 C348 1.386 . S
C349 C353 1.393 . S
C350 H342 0.950 . S
C350 C348 1.391 1_556 S
C350 C351 1.400 . S
C351 C350 1.400 . S
C351 C352 1.398 . S
C351 C357 1.491 . S
C352 H343 0.950 . S
C352 C351 1.398 . S
C352 C353 1.391 1_556 S
C353 H341 0.950 . S
C353 C349 1.393 . S
C353 C352 1.391 1_554 S
C354 H344 0.950 . S
C354 C355 1.386 . S
C354 C356 1.391 . S
C355 C354 1.386 . S
C355 C359 1.393 . S
C356 H345 0.950 . S
C356 C354 1.391 . S
C356 C357 1.400 . S
C357 C351 1.491 . S
C357 C356 1.400 . S
C357 C358 1.398 . S
C358 H346 0.950 . S
C358 C357 1.398 . S
C358 C359 1.391 . S
C359 H347 0.950 . S
C359 C355 1.393 . S
C359 C358 1.391 . S
H360 C368 0.950 . S
H361 C373 0.950 . S
H362 C370 0.950 . S
H363 C372 0.950 . S
H364 C374 0.950 . S
H365 C376 0.950 . S
H366 C378 0.950 . S
H367 C379 0.950 1_556 S
C368 H360 0.950 . S
C368 C369 1.386 . S
C368 C370 1.391 . S
C369 C368 1.386 . S
C369 C373 1.393 . S
C370 H362 0.950 . S
C370 C368 1.391 . S
C370 C371 1.400 . S
C371 C370 1.400 . S
C371 C372 1.398 . S
C371 C377 1.491 . S
C372 H363 0.950 . S
C372 C371 1.398 . S
C372 C373 1.391 . S
C373 H361 0.950 . S
C373 C369 1.393 . S
C373 C372 1.391 . S
C374 H364 0.950 . S
C374 C375 1.386 1_554 S
C374 C376 1.391 . S
C375 C374 1.386 1_556 S
C375 C379 1.393 1_556 S
C376 H365 0.950 . S
C376 C374 1.391 . S
C376 C377 1.400 . S
C377 C371 1.491 . S
C377 C376 1.400 . S
C377 C378 1.398 . S
C378 H366 0.950 . S
C378 C377 1.398 . S
C378 C379 1.391 . S
C379 H367 0.950 1_554 S
C379 C375 1.393 1_554 S
C379 C378 1.391 . S
H380 C388 0.950 . S
H381 C393 0.950 . S
H382 C390 0.950 . S
H383 C392 0.950 . S
H384 C394 0.950 . S
H385 C396 0.950 . S
H386 C398 0.950 . S
H387 C399 0.950 . S
C388 H380 0.950 . S
C388 C389 1.386 . S
C388 C390 1.391 . S
C389 C388 1.386 . S
C389 C393 1.393 . S
C390 H382 0.950 . S
C390 C388 1.391 . S
C390 C391 1.400 . S
C391 C390 1.400 . S
C391 C392 1.398 . S
C391 C397 1.491 . S
C392 H383 0.950 . S
C392 C391 1.398 . S
C392 C393 1.391 . S
C393 H381 0.950 . S
C393 C389 1.393 . S
C393 C392 1.391 . S
C394 H384 0.950 . S
C394 C395 1.386 . S
C394 C396 1.391 . S
C395 C394 1.386 . S
C395 C399 1.393 . S
C396 H385 0.950 . S
C396 C394 1.391 . S
C396 C397 1.400 . S
C397 C391 1.491 . S
C397 C396 1.400 . S
C397 C398 1.398 . S
C398 H386 0.950 . S
C398 C397 1.398 . S
C398 C399 1.391 . S
C399 H387 0.950 . S
C399 C395 1.393 . S
C399 C398 1.391 . S
H400 C408 0.950 . S
H401 C413 0.950 . S
H402 C410 0.950 . S
H403 C412 0.950 . S
H404 C414 0.950 . S
H405 C416 0.950 . S
H406 C418 0.950 . S
H407 C419 0.950 . S
C408 H400 0.950 . S
C408 C409 1.386 . S
C408 C410 1.391 . S
C409 C408 1.386 . S
C409 C413 1.393 . S
C410 H402 0.950 . S
C410 C408 1.391 . S
C410 C411 1.400 . S
C411 C410 1.400 . S
C411 C412 1.398 . S
C411 C417 1.491 . S
C412 H403 0.950 . S
C412 C411 1.398 . S
C412 C413 1.391 . S
C413 H401 0.950 . S
C413 C409 1.393 . S
C413 C412 1.391 . S
C414 H404 0.950 . S
C414 C415 1.386 . S
C414 C416 1.391 . S
C415 C414 1.386 . S
C415 C419 1.393 . S
C416 H405 0.950 . S
C416 C414 1.391 . S
C416 C417 1.400 . S
C417 C411 1.491 . S
C417 C416 1.400 . S
C417 C418 1.398 . S
C418 H406 0.950 . S
C418 C417 1.398 . S
C418 C419 1.391 . S
C419 H407 0.950 . S
C419 C415 1.393 . S
C419 C418 1.391 . S
H420 C428 0.950 . S
H421 C433 0.950 . S
H422 C430 0.950 . S
H423 C432 0.950 . S
H424 C434 0.950 . S
H425 C436 0.950 . S
H426 C438 0.950 . S
H427 C439 0.950 . S
C428 H420 0.950 . S
C428 C429 1.386 . S
C428 C430 1.391 . S
C429 C428 1.386 . S
C429 C433 1.393 . S
C430 H422 0.950 . S
C430 C428 1.391 . S
C430 C431 1.400 . S
C431 C430 1.400 . S
C431 C432 1.398 . S
C431 C437 1.491 . S
C432 H423 0.950 . S
C432 C431 1.398 . S
C432 C433 1.391 . S
C433 H421 0.950 . S
C433 C429 1.393 . S
C433 C432 1.391 . S
C434 H424 0.950 . S
C434 C435 1.386 . S
C434 C436 1.391 . S
C435 C434 1.386 . S
C435 C439 1.393 . S
C436 H425 0.950 . S
C436 C434 1.391 . S
C436 C437 1.400 . S
C437 C431 1.491 . S
C437 C436 1.400 . S
C437 C438 1.398 . S
C438 H426 0.950 . S
C438 C437 1.398 . S
C438 C439 1.391 . S
C439 H427 0.950 . S
C439 C435 1.393 . S
C439 C438 1.391 . S
H440 C448 0.950 . S
H441 C453 0.950 . S
H442 C450 0.950 . S
H443 C452 0.950 . S
H444 C454 0.950 . S
H445 C456 0.950 . S
H446 C458 0.950 . S
H447 C459 0.950 . S
C448 H440 0.950 . S
C448 C449 1.386 . S
C448 C450 1.391 . S
C449 C448 1.386 . S
C449 C453 1.393 . S
C450 H442 0.950 . S
C450 C448 1.391 . S
C450 C451 1.400 . S
C451 C450 1.400 . S
C451 C452 1.398 . S
C451 C457 1.491 . S
C452 H443 0.950 . S
C452 C451 1.398 . S
C452 C453 1.391 . S
C453 H441 0.950 . S
C453 C449 1.393 . S
C453 C452 1.391 . S
C454 H444 0.950 . S
C454 C455 1.386 . S
C454 C456 1.391 1_554 S
C455 C454 1.386 . S
C455 C459 1.393 . S
C456 H445 0.950 . S
C456 C454 1.391 1_556 S
C456 C457 1.400 . S
C457 C451 1.491 . S
C457 C456 1.400 . S
C457 C458 1.398 . S
C458 H446 0.950 . S
C458 C457 1.398 . S
C458 C459 1.391 1_556 S
C459 H447 0.950 . S
C459 C455 1.393 . S
C459 C458 1.391 1_554 S
H460 C468 0.950 1_556 S
H461 C473 0.950 . S
H462 C470 0.950 . S
H463 C472 0.950 . S
H464 C474 0.950 . S
H465 C476 0.950 . S
H466 C478 0.950 . S
H467 C479 0.950 . S
C468 H460 0.950 1_554 S
C468 C469 1.386 1_554 S
C468 C470 1.391 . S
C469 C468 1.386 1_556 S
C469 C473 1.393 1_556 S
C470 H462 0.950 . S
C470 C468 1.391 . S
C470 C471 1.400 . S
C471 C470 1.400 . S
C471 C472 1.398 . S
C471 C477 1.491 . S
C472 H463 0.950 . S
C472 C471 1.398 . S
C472 C473 1.391 . S
C473 H461 0.950 . S
C473 C469 1.393 1_554 S
C473 C472 1.391 . S
C474 H464 0.950 . S
C474 C475 1.386 . S
C474 C476 1.391 . S
C475 C474 1.386 . S
C475 C479 1.393 . S
C476 H465 0.950 . S
C476 C474 1.391 . S
C476 C477 1.400 . S
C477 C471 1.491 . S
C477 C476 1.400 . S
C477 C478 1.398 . S
C478 H466 0.950 . S
C478 C477 1.398 . S
C478 C479 1.391 . S
C479 H467 0.950 . S
C479 C475 1.393 . S
C479 C478 1.391 . S
H480 C488 0.950 . S
H481 C493 0.950 . S
H482 C490 0.950 . S
H483 C492 0.950 . S
H484 C494 0.950 . S
H485 C496 0.950 . S
H486 C498 0.950 . S
H487 C499 0.950 . S
C488 H480 0.950 . S
C488 C489 1.386 . S
C488 C490 1.391 . S
C489 C488 1.386 . S
C489 C493 1.393 . S
C490 H482 0.950 . S
C490 C488 1.391 . S
C490 C491 1.400 . S
C491 C490 1.400 . S
C491 C492 1.398 . S
C491 C497 1.491 . S
C492 H483 0.950 . S
C492 C491 1.398 . S
C492 C493 1.391 . S
C493 H481 0.950 . S
C493 C489 1.393 . S
C493 C492 1.391 . S
C494 H484 0.950 . S
C494 C495 1.386 . S
C494 C496 1.391 . S
C495 C494 1.386 . S
C495 C499 1.393 . S
C496 H485 0.950 . S
C496 C494 1.391 . S
C496 C497 1.400 . S
C497 C491 1.491 . S
C497 C496 1.400 . S
C497 C498 1.398 . S
C498 H486 0.950 . S
C498 C497 1.398 . S
C498 C499 1.391 . S
C499 H487 0.950 . S
C499 C495 1.393 . S
C499 C498 1.391 . S
H500 C508 0.950 . S
H501 C513 0.950 . S
H502 C510 0.950 . S
H503 C512 0.950 . S
H504 C514 0.950 . S
H505 C516 0.950 . S
H506 C518 0.950 . S
H507 C519 0.950 . S
C508 H500 0.950 . S
C508 C509 1.386 . S
C508 C510 1.391 . S
C509 C508 1.386 . S
C509 C513 1.393 . S
C510 H502 0.950 . S
C510 C508 1.391 . S
C510 C511 1.400 . S
C511 C510 1.400 . S
C511 C512 1.398 . S
C511 C517 1.491 . S
C512 H503 0.950 . S
C512 C511 1.398 . S
C512 C513 1.391 . S
C513 H501 0.950 . S
C513 C509 1.393 . S
C513 C512 1.391 . S
C514 H504 0.950 . S
C514 C515 1.386 . S
C514 C516 1.391 1_556 S
C515 C514 1.386 . S
C515 C519 1.393 . S
C516 H505 0.950 . S
C516 C514 1.391 1_554 S
C516 C517 1.400 . S
C517 C511 1.491 . S
C517 C516 1.400 . S
C517 C518 1.398 . S
C518 H506 0.950 . S
C518 C517 1.398 . S
C518 C519 1.391 1_554 S
C519 H507 0.950 . S
C519 C515 1.393 . S
C519 C518 1.391 1_556 S
H520 C528 0.950 . S
H521 C533 0.950 . S
H522 C530 0.950 . S
H523 C532 0.950 . S
H524 C534 0.950 . S
H525 C536 0.950 . S
H526 C538 0.950 . S
H527 C539 0.950 . S
C528 H520 0.950 . S
C528 C529 1.386 . S
C528 C530 1.391 . S
C529 C528 1.386 . S
C529 C533 1.393 . S
C530 H522 0.950 . S
C530 C528 1.391 . S
C530 C531 1.400 . S
C531 C530 1.400 . S
C531 C532 1.398 . S
C531 C537 1.491 . S
C532 H523 0.950 . S
C532 C531 1.398 . S
C532 C533 1.391 . S
C533 H521 0.950 . S
C533 C529 1.393 . S
C533 C532 1.391 . S
C534 H524 0.950 . S
C534 C535 1.386 . S
C534 C536 1.391 . S
C535 C534 1.386 . S
C535 C539 1.393 . S
C536 H525 0.950 . S
C536 C534 1.391 . S
C536 C537 1.400 . S
C537 C531 1.491 . S
C537 C536 1.400 . S
C537 C538 1.398 . S
C538 H526 0.950 . S
C538 C537 1.398 . S
C538 C539 1.391 . S
C539 H527 0.950 . S
C539 C535 1.393 . S
C539 C538 1.391 . S
H540 C548 0.950 . S
H541 C553 0.950 . S
H542 C550 0.950 . S
H543 C552 0.950 . S
H544 C554 0.950 . S
H545 C556 0.950 . S
H546 C558 0.950 . S
H547 C559 0.950 . S
C548 H540 0.950 . S
C548 C549 1.386 . S
C548 C550 1.391 . S
C549 C548 1.386 . S
C549 C553 1.393 . S
C550 H542 0.950 . S
C550 C548 1.391 . S
C550 C551 1.400 . S
C551 C550 1.400 . S
C551 C552 1.398 . S
C551 C557 1.491 . S
C552 H543 0.950 . S
C552 C551 1.398 . S
C552 C553 1.391 . S
C553 H541 0.950 . S
C553 C549 1.393 . S
C553 C552 1.391 . S
C554 H544 0.950 . S
C554 C555 1.386 . S
C554 C556 1.391 . S
C555 C554 1.386 . S
C555 C559 1.393 . S
C556 H545 0.950 . S
C556 C554 1.391 . S
C556 C557 1.400 . S
C557 C551 1.491 . S
C557 C556 1.400 . S
C557 C558 1.398 . S
C558 H546 0.950 . S
C558 C557 1.398 . S
C558 C559 1.391 . S
C559 H547 0.950 . S
C559 C555 1.393 . S
C559 C558 1.391 . S
H560 C568 0.950 . S
H561 C573 0.950 . S
H562 C570 0.950 . S
H563 C572 0.950 . S
H564 C574 0.950 . S
H565 C576 0.950 . S
H566 C578 0.950 . S
H567 C579 0.950 . S
C568 H560 0.950 . S
C568 C569 1.386 . S
C568 C570 1.391 . S
C569 C568 1.386 . S
C569 C573 1.393 . S
C570 H562 0.950 . S
C570 C568 1.391 . S
C570 C571 1.400 . S
C571 C570 1.400 . S
C571 C572 1.398 . S
C571 C577 1.491 . S
C572 H563 0.950 . S
C572 C571 1.398 . S
C572 C573 1.391 . S
C573 H561 0.950 . S
C573 C569 1.393 . S
C573 C572 1.391 . S
C574 H564 0.950 . S
C574 C575 1.386 . S
C574 C576 1.391 . S
C575 C574 1.386 . S
C575 C579 1.393 . S
C576 H565 0.950 . S
C576 C574 1.391 . S
C576 C577 1.400 . S
C577 C571 1.491 . S
C577 C576 1.400 . S
C577 C578 1.398 . S
C578 H566 0.950 . S
C578 C577 1.398 . S
C578 C579 1.391 . S
C579 H567 0.950 . S
C579 C575 1.393 . S
C579 C578 1.391 . S
H580 C588 0.950 . S
H581 C593 0.950 . S
H582 C590 0.950 . S
H583 C592 0.950 . S
H584 C594 0.950 . S
H585 C596 0.950 . S
H586 C598 0.950 . S
H587 C599 0.950 . S
C588 H580 0.950 . S
C588 C589 1.386 . S
C588 C590 1.391 . S
C589 C588 1.386 . S
C589 C593 1.393 . S
C590 H582 0.950 . S
C590 C588 1.391 . S
C590 C591 1.400 . S
C591 C590 1.400 . S
C591 C592 1.398 . S
C591 C597 1.491 . S
C592 H583 0.950 . S
C592 C591 1.398 . S
C592 C593 1.391 . S
C593 H581 0.950 . S
C593 C589 1.393 . S
C593 C592 1.391 . S
C594 H584 0.950 . S
C594 C595 1.386 . S
C594 C596 1.391 . S
C595 C594 1.386 . S
C595 C599 1.393 . S
C596 H585 0.950 . S
C596 C594 1.391 . S
C596 C597 1.400 . S
C597 C591 1.491 . S
C597 C596 1.400 . S
C597 C598 1.398 . S
C598 H586 0.950 . S
C598 C597 1.398 . S
C598 C599 1.391 . S
C599 H587 0.950 . S
C599 C595 1.393 . S
C599 C598 1.391 . S
H600 C608 0.950 . S
H601 C613 0.950 . S
H602 C610 0.950 . S
H603 C612 0.950 . S
H604 C614 0.950 . S
H605 C616 0.950 1_554 S
H606 C618 0.950 1_554 S
H607 C619 0.950 . S
C608 H600 0.950 . S
C608 C609 1.386 . S
C608 C610 1.391 . S
C609 C608 1.386 . S
C609 C613 1.393 . S
C610 H602 0.950 . S
C610 C608 1.391 . S
C610 C611 1.400 . S
C611 C610 1.400 . S
C611 C612 1.398 . S
C611 C617 1.491 . S
C612 H603 0.950 . S
C612 C611 1.398 . S
C612 C613 1.391 . S
C613 H601 0.950 . S
C613 C609 1.393 . S
C613 C612 1.391 . S
C614 H604 0.950 . S
C614 C615 1.386 . S
C614 C616 1.391 . S
C615 C614 1.386 . S
C615 C619 1.393 . S
C616 H605 0.950 1_556 S
C616 C614 1.391 . S
C616 C617 1.400 1_556 S
C617 C611 1.491 . S
C617 C616 1.400 1_554 S
C617 C618 1.398 1_554 S
C618 H606 0.950 1_556 S
C618 C617 1.398 1_556 S
C618 C619 1.391 . S
C619 H607 0.950 . S
C619 C615 1.393 . S
C619 C618 1.391 . S
H620 C628 0.950 . S
H621 C633 0.950 . S
H622 C630 0.950 . S
H623 C632 0.950 . S
H624 C634 0.950 . S
H625 C636 0.950 . S
H626 C638 0.950 . S
H627 C639 0.950 . S
C628 H620 0.950 . S
C628 C629 1.386 . S
C628 C630 1.391 . S
C629 C628 1.386 . S
C629 C633 1.393 . S
C630 H622 0.950 . S
C630 C628 1.391 . S
C630 C631 1.400 . S
C631 C630 1.400 . S
C631 C632 1.398 . S
C631 C637 1.491 . S
C632 H623 0.950 . S
C632 C631 1.398 . S
C632 C633 1.391 . S
C633 H621 0.950 . S
C633 C629 1.393 . S
C633 C632 1.391 . S
C634 H624 0.950 . S
C634 C635 1.386 . S
C634 C636 1.391 . S
C635 C634 1.386 . S
C635 C639 1.393 . S
C636 H625 0.950 . S
C636 C634 1.391 . S
C636 C637 1.400 . S
C637 C631 1.491 . S
C637 C636 1.400 . S
C637 C638 1.398 . S
C638 H626 0.950 . S
C638 C637 1.398 . S
C638 C639 1.391 . S
C639 H627 0.950 . S
C639 C635 1.393 . S
C639 C638 1.391 . S
H640 C648 0.950 . S
H641 C653 0.950 . S
H642 C650 0.950 . S
H643 C652 0.950 . S
H644 C654 0.950 . S
H645 C656 0.950 . S
H646 C658 0.950 . S
H647 C659 0.950 . S
C648 H640 0.950 . S
C648 C649 1.386 . S
C648 C650 1.391 . S
C649 C648 1.386 . S
C649 C653 1.393 . S
C650 H642 0.950 . S
C650 C648 1.391 . S
C650 C651 1.400 . S
C651 C650 1.400 . S
C651 C652 1.398 . S
C651 C657 1.491 . S
C652 H643 0.950 . S
C652 C651 1.398 . S
C652 C653 1.391 . S
C653 H641 0.950 . S
C653 C649 1.393 . S
C653 C652 1.391 . S
C654 H644 0.950 . S
C654 C655 1.386 . S
C654 C656 1.391 . S
C655 C654 1.386 . S
C655 C659 1.393 . S
C656 H645 0.950 . S
C656 C654 1.391 . S
C656 C657 1.400 . S
C657 C651 1.491 . S
C657 C656 1.400 . S
C657 C658 1.398 . S
C658 H646 0.950 . S
C658 C657 1.398 . S
C658 C659 1.391 . S
C659 H647 0.950 . S
C659 C655 1.393 . S
C659 C658 1.391 . S
H660 C668 0.950 . S
H661 C673 0.950 . S
H662 C670 0.950 . S
H663 C672 0.950 . S
H664 C674 0.950 . S
H665 C676 0.950 . S
H666 C678 0.950 . S
H667 C679 0.950 . S
C668 H660 0.950 . S
C668 C669 1.386 . S
C668 C670 1.391 . S
C669 C668 1.386 . S
C669 C673 1.393 . S
C670 H662 0.950 . S
C670 C668 1.391 . S
C670 C671 1.400 . S
C671 C670 1.400 . S
C671 C672 1.398 . S
C671 C677 1.491 . S
C672 H663 0.950 . S
C672 C671 1.398 . S
C672 C673 1.391 . S
C673 H661 0.950 . S
C673 C669 1.393 . S
C673 C672 1.391 . S
C674 H664 0.950 . S
C674 C675 1.386 . S
C674 C676 1.391 . S
C675 C674 1.386 . S
C675 C679 1.393 . S
C676 H665 0.950 . S
C676 C674 1.391 . S
C676 C677 1.400 . S
C677 C671 1.491 . S
C677 C676 1.400 . S
C677 C678 1.398 . S
C678 H666 0.950 . S
C678 C677 1.398 . S
C678 C679 1.391 . S
C679 H667 0.950 . S
C679 C675 1.393 . S
C679 C678 1.391 . S
H680 C688 0.950 . S
H681 C693 0.950 . S
H682 C690 0.950 . S
H683 C692 0.950 . S
H684 C694 0.950 . S
H685 C696 0.950 . S
H686 C698 0.950 . S
H687 C699 0.950 . S
C688 H680 0.950 . S
C688 C689 1.386 . S
C688 C690 1.391 . S
C689 C688 1.386 . S
C689 C693 1.393 . S
C690 H682 0.950 . S
C690 C688 1.391 . S
C690 C691 1.400 . S
C691 C690 1.400 . S
C691 C692 1.398 . S
C691 C697 1.491 . S
C692 H683 0.950 . S
C692 C691 1.398 . S
C692 C693 1.391 . S
C693 H681 0.950 . S
C693 C689 1.393 . S
C693 C692 1.391 . S
C694 H684 0.950 . S
C694 C695 1.386 . S
C694 C696 1.391 . S
C695 C694 1.386 . S
C695 C699 1.393 . S
C696 H685 0.950 . S
C696 C694 1.391 . S
C696 C697 1.400 . S
C697 C691 1.491 . S
C697 C696 1.400 . S
C697 C698 1.398 . S
C698 H686 0.950 . S
C698 C697 1.398 . S
C698 C699 1.391 . S
C699 H687 0.950 . S
C699 C695 1.393 . S
C699 C698 1.391 . S
H700 C708 0.950 . S
H701 C713 0.950 . S
H702 C710 0.950 . S
H703 C712 0.950 . S
H704 C714 0.950 . S
H705 C716 0.950 . S
H706 C718 0.950 . S
H707 C719 0.950 . S
C708 H700 0.950 . S
C708 C709 1.386 . S
C708 C710 1.391 . S
C709 C708 1.386 . S
C709 C713 1.393 . S
C710 H702 0.950 . S
C710 C708 1.391 . S
C710 C711 1.400 . S
C711 C710 1.400 . S
C711 C712 1.398 . S
C711 C717 1.491 . S
C712 H703 0.950 . S
C712 C711 1.398 . S
C712 C713 1.391 . S
C713 H701 0.950 . S
C713 C709 1.393 . S
C713 C712 1.391 . S
C714 H704 0.950 . S
C714 C715 1.386 . S
C714 C716 1.391 . S
C715 C714 1.386 . S
C715 C719 1.393 . S
C716 H705 0.950 . S
C716 C714 1.391 . S
C716 C717 1.400 1_455 S
C717 C711 1.491 . S
C717 C716 1.400 1_655 S
C717 C718 1.398 1_655 S
C718 H706 0.950 . S
C718 C717 1.398 1_455 S
C718 C719 1.391 . S
C719 H707 0.950 . S
C719 C715 1.393 . S
C719 C718 1.391 . S
H720 C728 0.950 . S
H721 C733 0.950 . S
H722 C730 0.950 . S
H723 C732 0.950 . S
H724 C734 0.950 . S
H725 C736 0.950 . S
H726 C738 0.950 . S
H727 C739 0.950 . S
C728 H720 0.950 . S
C728 C729 1.386 . S
C728 C730 1.391 . S
C729 C728 1.386 . S
C729 C733 1.393 . S
C730 H722 0.950 . S
C730 C728 1.391 . S
C730 C731 1.400 . S
C731 C730 1.400 . S
C731 C732 1.398 . S
C731 C737 1.491 . S
C732 H723 0.950 . S
C732 C731 1.398 . S
C732 C733 1.391 . S
C733 H721 0.950 . S
C733 C729 1.393 . S
C733 C732 1.391 . S
C734 H724 0.950 . S
C734 C735 1.386 . S
C734 C736 1.391 . S
C735 C734 1.386 . S
C735 C739 1.393 . S
C736 H725 0.950 . S
C736 C734 1.391 . S
C736 C737 1.400 . S
C737 C731 1.491 . S
C737 C736 1.400 . S
C737 C738 1.398 . S
C738 H726 0.950 . S
C738 C737 1.398 . S
C738 C739 1.391 . S
C739 H727 0.950 . S
C739 C735 1.393 . S
C739 C738 1.391 . S
H740 C748 0.950 . S
H741 C753 0.950 1_556 S
H742 C750 0.950 . S
H743 C752 0.950 1_556 S
H744 C754 0.951 1_556 S
H745 C756 0.950 1_456 S
H746 C758 0.950 1_455 S
H747 C759 0.950 . S
C748 H740 0.950 . S
C748 C749 1.386 . S
C748 C750 1.391 . S
C749 C748 1.386 . S
C749 C753 1.393 . S
C750 H742 0.950 . S
C750 C748 1.391 . S
C750 C751 1.400 . S
C751 C750 1.400 . S
C751 C752 1.398 . S
C751 C757 1.491 . S
C752 H743 0.950 1_554 S
C752 C751 1.398 . S
C752 C753 1.391 . S
C753 H741 0.950 1_554 S
C753 C749 1.393 . S
C753 C752 1.391 . S
C754 H744 0.951 1_554 S
C754 C755 1.386 . S
C754 C756 1.391 . S
C755 C754 1.386 . S
C755 C759 1.393 . S
C756 H745 0.950 1_654 S
C756 C754 1.391 . S
C756 C757 1.400 1_655 S
C757 C751 1.491 . S
C757 C756 1.400 1_455 S
C757 C758 1.398 1_455 S
C758 H746 0.950 1_655 S
C758 C757 1.398 1_655 S
C758 C759 1.391 . S
C759 H747 0.950 . S
C759 C755 1.393 . S
C759 C758 1.391 . S
H760 C768 0.950 . S
H761 C773 0.950 . S
H762 C770 0.950 . S
H763 C772 0.950 . S
H764 C774 0.950 . S
H765 C776 0.950 . S
H766 C778 0.950 . S
H767 C779 0.950 . S
C768 H760 0.950 . S
C768 C769 1.386 . S
C768 C770 1.391 . S
C769 C768 1.386 . S
C769 C773 1.393 . S
C770 H762 0.950 . S
C770 C768 1.391 . S
C770 C771 1.400 . S
C771 C770 1.400 . S
C771 C772 1.398 . S
C771 C777 1.491 . S
C772 H763 0.950 . S
C772 C771 1.398 . S
C772 C773 1.391 . S
C773 H761 0.950 . S
C773 C769 1.393 . S
C773 C772 1.391 . S
C774 H764 0.950 . S
C774 C775 1.386 . S
C774 C776 1.391 . S
C775 C774 1.386 . S
C775 C779 1.393 . S
C776 H765 0.950 . S
C776 C774 1.391 . S
C776 C777 1.400 . S
C777 C771 1.491 . S
C777 C776 1.400 . S
C777 C778 1.398 . S
C778 H766 0.950 . S
C778 C777 1.398 . S
C778 C779 1.391 . S
C779 H767 0.950 . S
C779 C775 1.393 . S
C779 C778 1.391 . S
H780 C788 0.950 . S
H781 C793 0.950 . S
H782 C790 0.950 . S
H783 C792 0.950 . S
H784 C794 0.950 . S
H785 C796 0.950 . S
H786 C798 0.950 . S
H787 C799 0.950 . S
C788 H780 0.950 . S
C788 C789 1.386 . S
C788 C790 1.391 . S
C789 C788 1.386 . S
C789 C793 1.393 . S
C790 H782 0.950 . S
C790 C788 1.391 . S
C790 C791 1.400 . S
C791 C790 1.400 . S
C791 C792 1.398 . S
C791 C797 1.491 . S
C792 H783 0.950 . S
C792 C791 1.398 . S
C792 C793 1.391 . S
C793 H781 0.950 . S
C793 C789 1.393 . S
C793 C792 1.391 . S
C794 H784 0.950 . S
C794 C795 1.386 . S
C794 C796 1.391 . S
C795 C794 1.386 . S
C795 C799 1.393 . S
C796 H785 0.950 . S
C796 C794 1.391 . S
C796 C797 1.400 . S
C797 C791 1.491 . S
C797 C796 1.400 . S
C797 C798 1.398 . S
C798 H786 0.950 . S
C798 C797 1.398 . S
C798 C799 1.391 . S
C799 H787 0.950 . S
C799 C795 1.393 . S
C799 C798 1.391 . S
H800 C808 0.950 . S
H801 C813 0.950 . S
H802 C810 0.950 . S
H803 C812 0.950 . S
H804 C814 0.950 . S
H805 C816 0.950 . S
H806 C818 0.950 . S
H807 C819 0.950 . S
C808 H800 0.950 . S
C808 C809 1.386 . S
C808 C810 1.391 . S
C809 C808 1.386 . S
C809 C813 1.393 . S
C810 H802 0.950 . S
C810 C808 1.391 . S
C810 C811 1.400 . S
C811 C810 1.400 . S
C811 C812 1.398 . S
C811 C817 1.491 . S
C812 H803 0.950 . S
C812 C811 1.398 . S
C812 C813 1.391 . S
C813 H801 0.950 . S
C813 C809 1.393 . S
C813 C812 1.391 . S
C814 H804 0.950 . S
C814 C815 1.386 . S
C814 C816 1.391 . S
C815 C814 1.386 . S
C815 C819 1.393 . S
C816 H805 0.950 . S
C816 C814 1.391 . S
C816 C817 1.400 . S
C817 C811 1.491 . S
C817 C816 1.400 . S
C817 C818 1.398 . S
C818 H806 0.950 . S
C818 C817 1.398 . S
C818 C819 1.391 . S
C819 H807 0.950 . S
C819 C815 1.393 . S
C819 C818 1.391 . S
H820 C828 0.950 . S
H821 C833 0.950 . S
H822 C830 0.950 . S
H823 C832 0.950 . S
H824 C834 0.950 . S
H825 C836 0.950 . S
H826 C838 0.950 . S
H827 C839 0.950 . S
C828 H820 0.950 . S
C828 C829 1.386 . S
C828 C830 1.391 . S
C829 C828 1.386 . S
C829 C833 1.393 . S
C830 H822 0.950 . S
C830 C828 1.391 . S
C830 C831 1.400 . S
C831 C830 1.400 . S
C831 C832 1.398 . S
C831 C837 1.491 . S
C832 H823 0.950 . S
C832 C831 1.398 . S
C832 C833 1.391 . S
C833 H821 0.950 . S
C833 C829 1.393 . S
C833 C832 1.391 . S
C834 H824 0.950 . S
C834 C835 1.386 . S
C834 C836 1.391 . S
C835 C834 1.386 . S
C835 C839 1.393 . S
C836 H825 0.950 . S
C836 C834 1.391 . S
C836 C837 1.400 . S
C837 C831 1.491 . S
C837 C836 1.400 . S
C837 C838 1.398 . S
C838 H826 0.950 . S
C838 C837 1.398 . S
C838 C839 1.391 . S
C839 H827 0.950 . S
C839 C835 1.393 . S
C839 C838 1.391 . S
H840 C848 0.950 . S
H841 C853 0.950 . S
H842 C850 0.950 . S
H843 C852 0.950 . S
H844 C854 0.950 . S
H845 C856 0.950 . S
H846 C858 0.950 . S
H847 C859 0.950 . S
C848 H840 0.950 . S
C848 C849 1.386 . S
C848 C850 1.391 . S
C849 C848 1.386 . S
C849 C853 1.393 . S
C850 H842 0.950 . S
C850 C848 1.391 . S
C850 C851 1.400 . S
C851 C850 1.400 . S
C851 C852 1.398 . S
C851 C857 1.491 . S
C852 H843 0.950 . S
C852 C851 1.398 . S
C852 C853 1.391 . S
C853 H841 0.950 . S
C853 C849 1.393 . S
C853 C852 1.391 . S
C854 H844 0.950 . S
C854 C855 1.386 . S
C854 C856 1.391 . S
C855 C854 1.386 . S
C855 C859 1.393 . S
C856 H845 0.950 . S
C856 C854 1.391 . S
C856 C857 1.400 . S
C857 C851 1.491 . S
C857 C856 1.400 . S
C857 C858 1.398 . S
C858 H846 0.950 . S
C858 C857 1.398 . S
C858 C859 1.391 . S
C859 H847 0.950 . S
C859 C855 1.393 . S
C859 C858 1.391 . S
H860 C868 0.950 . S
H861 C873 0.950 . S
H862 C870 0.950 . S
H863 C872 0.950 . S
H864 C874 0.950 . S
H865 C876 0.950 . S
H866 C878 0.950 . S
H867 C879 0.950 . S
C868 H860 0.950 . S
C868 C869 1.386 . S
C868 C870 1.391 . S
C869 C868 1.386 . S
C869 C873 1.393 . S
C870 H862 0.950 . S
C870 C868 1.391 . S
C870 C871 1.400 . S
C871 C870 1.400 . S
C871 C872 1.398 . S
C871 C877 1.491 . S
C872 H863 0.950 . S
C872 C871 1.398 . S
C872 C873 1.391 . S
C873 H861 0.950 . S
C873 C869 1.393 . S
C873 C872 1.391 . S
C874 H864 0.950 . S
C874 C875 1.386 . S
C874 C876 1.391 . S
C875 C874 1.386 . S
C875 C879 1.393 . S
C876 H865 0.950 . S
C876 C874 1.391 . S
C876 C877 1.400 . S
C877 C871 1.491 . S
C877 C876 1.400 . S
C877 C878 1.398 . S
C878 H866 0.950 . S
C878 C877 1.398 . S
C878 C879 1.391 . S
C879 H867 0.950 . S
C879 C875 1.393 . S
C879 C878 1.391 . S
H880 C888 0.950 . S
H881 C893 0.950 . S
H882 C890 0.950 1_455 S
H883 C892 0.950 . S
H884 C894 0.950 1_554 S
H885 C896 0.950 . S
H886 C898 0.950 . S
H887 C899 0.950 . S
C888 H880 0.950 . S
C888 C889 1.386 . S
C888 C890 1.391 . S
C889 C888 1.386 . S
C889 C893 1.393 . S
C890 H882 0.950 1_655 S
C890 C888 1.391 . S
C890 C891 1.400 1_655 S
C891 C890 1.400 1_455 S
C891 C892 1.398 1_455 S
C891 C897 1.491 . S
C892 H883 0.950 . S
C892 C891 1.398 1_655 S
C892 C893 1.391 . S
C893 H881 0.950 . S
C893 C889 1.393 . S
C893 C892 1.391 . S
C894 H884 0.950 1_556 S
C894 C895 1.386 . S
C894 C896 1.391 . S
C895 C894 1.386 . S
C895 C899 1.393 . S
C896 H885 0.950 . S
C896 C894 1.391 . S
C896 C897 1.400 . S
C897 C891 1.491 . S
C897 C896 1.400 . S
C897 C898 1.398 . S
C898 H886 0.950 . S
C898 C897 1.398 . S
C898 C899 1.391 . S
C899 H887 0.950 . S
C899 C895 1.393 . S
C899 C898 1.391 . S
H900 C908 0.950 . S
H901 C913 0.950 . S
H902 C910 0.950 . S
H903 C912 0.950 . S
H904 C914 0.950 . S
H905 C916 0.950 . S
H906 C918 0.950 . S
H907 C919 0.950 . S
C908 H900 0.950 . S
C908 C909 1.386 . S
C908 C910 1.391 . S
C909 C908 1.386 . S
C909 C913 1.393 . S
C910 H902 0.950 . S
C910 C908 1.391 . S
C910 C911 1.400 . S
C911 C910 1.400 . S
C911 C912 1.398 . S
C911 C917 1.491 . S
C912 H903 0.950 . S
C912 C911 1.398 . S
C912 C913 1.391 . S
C913 H901 0.950 . S
C913 C909 1.393 . S
C913 C912 1.391 . S
C914 H904 0.950 . S
C914 C915 1.386 . S
C914 C916 1.391 . S
C915 C914 1.386 . S
C915 C919 1.393 . S
C916 H905 0.950 . S
C916 C914 1.391 . S
C916 C917 1.400 . S
C917 C911 1.491 . S
C917 C916 1.400 . S
C917 C918 1.398 . S
C918 H906 0.950 . S
C918 C917 1.398 . S
C918 C919 1.391 . S
C919 H907 0.950 . S
C919 C915 1.393 . S
C919 C918 1.391 . S
H920 C928 0.950 . S
H921 C933 0.950 . S
H922 C930 0.950 . S
H923 C932 0.950 . S
H924 C934 0.950 . S
H925 C936 0.950 . S
H926 C938 0.950 . S
H927 C939 0.950 . S
C928 H920 0.950 . S
C928 C929 1.386 . S
C928 C930 1.391 . S
C929 C928 1.386 . S
C929 C933 1.393 . S
C930 H922 0.950 . S
C930 C928 1.391 . S
C930 C931 1.400 . S
C931 C930 1.400 . S
C931 C932 1.398 . S
C931 C937 1.491 . S
C932 H923 0.950 . S
C932 C931 1.398 . S
C932 C933 1.391 . S
C933 H921 0.950 . S
C933 C929 1.393 . S
C933 C932 1.391 . S
C934 H924 0.950 . S
C934 C935 1.386 . S
C934 C936 1.391 . S
C935 C934 1.386 . S
C935 C939 1.393 . S
C936 H925 0.950 . S
C936 C934 1.391 . S
C936 C937 1.400 . S
C937 C931 1.491 . S
C937 C936 1.400 . S
C937 C938 1.398 . S
C938 H926 0.950 . S
C938 C937 1.398 . S
C938 C939 1.391 . S
C939 H927 0.950 . S
C939 C935 1.393 . S
C939 C938 1.391 . S
H940 C948 0.950 . S
H941 C953 0.950 1_556 S
H942 C950 0.922 1_655 S
H943 C952 0.950 1_556 S
H944 C954 0.950 . S
H945 C956 0.950 1_556 S
H946 C958 0.950 . S
H947 C959 0.950 . S
C948 H940 0.950 . S
C948 C949 1.386 . S
C948 C950 1.391 . S
C949 C948 1.386 . S
C949 C953 1.393 . S
C950 H942 0.922 1_455 S
C950 C948 1.391 . S
C950 C951 1.400 1_455 S
C951 C950 1.400 1_655 S
C951 C952 1.398 1_655 S
C951 C957 1.491 . S
C952 H943 0.950 1_554 S
C952 C951 1.398 1_455 S
C952 C953 1.391 . S
C953 H941 0.950 1_554 S
C953 C949 1.393 . S
C953 C952 1.391 . S
C954 H944 0.950 . S
C954 C955 1.386 1_556 S
C954 C956 1.391 1_556 S
C955 C954 1.386 1_554 S
C955 C959 1.393 . S
C956 H945 0.950 1_554 S
C956 C954 1.391 1_554 S
C956 C957 1.400 . S
C957 C951 1.491 . S
C957 C956 1.400 . S
C957 C958 1.398 . S
C958 H946 0.950 . S
C958 C957 1.398 . S
C958 C959 1.391 . S
C959 H947 0.950 . S
C959 C955 1.393 . S
C959 C958 1.391 . S
H960 C968 0.950 . S
H961 C973 0.950 . S
H962 C970 0.950 . S
H963 C972 0.950 1_556 S
H964 C974 0.950 . S
H965 C976 0.950 . S
H966 C978 0.950 . S
H967 C979 0.950 . S
C968 H960 0.950 . S
C968 C969 1.386 . S
C968 C970 1.391 . S
C969 C968 1.386 . S
C969 C973 1.393 . S
C970 H962 0.950 . S
C970 C968 1.391 . S
C970 C971 1.400 . S
C971 C970 1.400 . S
C971 C972 1.398 . S
C971 C977 1.491 . S
C972 H963 0.950 1_554 S
C972 C971 1.398 . S
C972 C973 1.391 . S
C973 H961 0.950 . S
C973 C969 1.393 . S
C973 C972 1.391 . S
C974 H964 0.950 . S
C974 C975 1.386 1_556 S
C974 C976 1.391 . S
C975 C974 1.386 1_554 S
C975 C979 1.393 . S
C976 H965 0.950 . S
C976 C974 1.391 . S
C976 C977 1.400 1_556 S
C977 C971 1.491 . S
C977 C976 1.400 1_554 S
C977 C978 1.398 . S
C978 H966 0.950 . S
C978 C977 1.398 . S
C978 C979 1.391 . S
C979 H967 0.950 . S
C979 C975 1.393 . S
C979 C978 1.391 . S
H980 C988 0.950 . S
H981 C993 0.950 . S
H982 C990 0.950 . S
H983 C992 0.950 . S
H984 C994 0.950 . S
H985 C996 0.950 . S
H986 C998 0.950 . S
H987 C999 0.950 . S
C988 H980 0.950 . S
C988 C989 1.386 . S
C988 C990 1.391 . S
C989 C988 1.386 . S
C989 C993 1.393 . S
C990 H982 0.950 . S
C990 C988 1.391 . S
C990 C991 1.400 . S
C991 C990 1.400 . S
C991 C992 1.398 . S
C991 C997 1.491 . S
C992 H983 0.950 . S
C992 C991 1.398 . S
C992 C993 1.391 . S
C993 H981 0.950 . S
C993 C989 1.393 . S
C993 C992 1.391 . S
C994 H984 0.950 . S
C994 C995 1.386 . S
C994 C996 1.391 . S
C995 C994 1.386 . S
C995 C999 1.393 . S
C996 H985 0.950 . S
C996 C994 1.391 . S
C996 C997 1.400 . S
C997 C991 1.491 . S
C997 C996 1.400 . S
C997 C998 1.398 . S
C998 H986 0.950 . S
C998 C997 1.398 . S
C998 C999 1.391 . S
C999 H987 0.950 . S
C999 C995 1.393 . S
C999 C998 1.391 . S
H1000 C1008 0.950 . S
H1001 C1013 0.950 . S
H1002 C1010 0.950 . S
H1003 C1012 0.950 . S
H1004 C1014 0.950 . S
H1005 C1016 0.950 . S
H1006 C1018 0.950 . S
H1007 C1019 0.950 . S
C1008 H1000 0.950 . S
C1008 C1009 1.386 . S
C1008 C1010 1.391 . S
C1009 C1008 1.386 . S
C1009 C1013 1.393 . S
C1010 H1002 0.950 . S
C1010 C1008 1.391 . S
C1010 C1011 1.400 . S
C1011 C1010 1.400 . S
C1011 C1012 1.398 . S
C1011 C1017 1.491 . S
C1012 H1003 0.950 . S
C1012 C1011 1.398 . S
C1012 C1013 1.391 . S
C1013 H1001 0.950 . S
C1013 C1009 1.393 . S
C1013 C1012 1.391 . S
C1014 H1004 0.950 . S
C1014 C1015 1.386 . S
C1014 C1016 1.391 . S
C1015 C1014 1.386 . S
C1015 C1019 1.393 . S
C1016 H1005 0.950 . S
C1016 C1014 1.391 . S
C1016 C1017 1.400 . S
C1017 C1011 1.491 . S
C1017 C1016 1.400 . S
C1017 C1018 1.398 . S
C1018 H1006 0.950 . S
C1018 C1017 1.398 . S
C1018 C1019 1.391 . S
C1019 H1007 0.950 . S
C1019 C1015 1.393 . S
C1019 C1018 1.391 . S
H1020 C1028 0.950 . S
H1021 C1033 0.950 . S
H1022 C1030 0.950 . S
H1023 C1032 0.950 . S
H1024 C1034 0.950 . S
H1025 C1036 0.950 . S
H1026 C1038 0.950 . S
H1027 C1039 0.950 . S
C1028 H1020 0.950 . S
C1028 C1029 1.386 . S
C1028 C1030 1.391 . S
C1029 C1028 1.386 . S
C1029 C1033 1.393 . S
C1030 H1022 0.950 . S
C1030 C1028 1.391 . S
C1030 C1031 1.400 . S
C1031 C1030 1.400 . S
C1031 C1032 1.398 . S
C1031 C1037 1.491 . S
C1032 H1023 0.950 . S
C1032 C1031 1.398 . S
C1032 C1033 1.391 . S
C1033 H1021 0.950 . S
C1033 C1029 1.393 . S
C1033 C1032 1.391 . S
C1034 H1024 0.950 . S
C1034 C1035 1.386 . S
C1034 C1036 1.391 . S
C1035 C1034 1.386 . S
C1035 C1039 1.393 . S
C1036 H1025 0.950 . S
C1036 C1034 1.391 . S
C1036 C1037 1.400 . S
C1037 C1031 1.491 . S
C1037 C1036 1.400 . S
C1037 C1038 1.398 . S
C1038 H1026 0.950 . S
C1038 C1037 1.398 . S
C1038 C1039 1.391 . S
C1039 H1027 0.950 . S
C1039 C1035 1.393 . S
C1039 C1038 1.391 . S
H1040 C1048 0.950 . S
H1041 C1053 0.950 . S
H1042 C1050 0.950 . S
H1043 C1052 0.950 . S
H1044 C1054 0.950 . S
H1045 C1056 0.950 . S
H1046 C1058 0.950 . S
H1047 C1059 0.950 . S
C1048 H1040 0.950 . S
C1048 C1049 1.386 . S
C1048 C1050 1.391 . S
C1049 C1048 1.386 . S
C1049 C1053 1.393 . S
C1050 H1042 0.950 . S
C1050 C1048 1.391 . S
C1050 C1051 1.400 . S
C1051 C1050 1.400 . S
C1051 C1052 1.398 . S
C1051 C1057 1.491 . S
C1052 H1043 0.950 . S
C1052 C1051 1.398 . S
C1052 C1053 1.391 . S
C1053 H1041 0.950 . S
C1053 C1049 1.393 . S
C1053 C1052 1.391 . S
C1054 H1044 0.950 . S
C1054 C1055 1.386 . S
C1054 C1056 1.391 . S
C1055 C1054 1.386 . S
C1055 C1059 1.393 . S
C1056 H1045 0.950 . S
C1056 C1054 1.391 . S
C1056 C1057 1.400 . S
C1057 C1051 1.491 . S
C1057 C1056 1.400 . S
C1057 C1058 1.398 . S
C1058 H1046 0.950 . S
C1058 C1057 1.398 . S
C1058 C1059 1.391 . S
C1059 H1047 0.950 . S
C1059 C1055 1.393 . S
C1059 C1058 1.391 . S
H1060 C1068 0.950 . S
H1061 C1073 0.950 . S
H1062 C1070 0.950 . S
H1063 C1072 0.950 . S
H1064 C1074 0.950 . S
H1065 C1076 0.950 . S
H1066 C1078 0.950 . S
H1067 C1079 0.950 . S
C1068 H1060 0.950 . S
C1068 C1069 1.386 . S
C1068 C1070 1.391 . S
C1069 C1068 1.386 . S
C1069 C1073 1.393 . S
C1070 H1062 0.950 . S
C1070 C1068 1.391 . S
C1070 C1071 1.400 . S
C1071 C1070 1.400 . S
C1071 C1072 1.398 . S
C1071 C1077 1.491 . S
C1072 H1063 0.950 . S
C1072 C1071 1.398 . S
C1072 C1073 1.391 . S
C1073 H1061 0.950 . S
C1073 C1069 1.393 . S
C1073 C1072 1.391 . S
C1074 H1064 0.950 . S
C1074 C1075 1.386 . S
C1074 C1076 1.391 . S
C1075 C1074 1.386 . S
C1075 C1079 1.393 . S
C1076 H1065 0.950 . S
C1076 C1074 1.391 . S
C1076 C1077 1.400 . S
C1077 C1071 1.491 . S
C1077 C1076 1.400 . S
C1077 C1078 1.398 . S
C1078 H1066 0.950 . S
C1078 C1077 1.398 . S
C1078 C1079 1.391 . S
C1079 H1067 0.950 . S
C1079 C1075 1.393 . S
C1079 C1078 1.391 . S
H1080 C1088 0.950 . S
H1081 C1093 0.950 . S
H1082 C1090 0.950 . S
H1083 C1092 0.950 . S
H1084 C1094 0.950 . S
H1085 C1096 0.950 . S
H1086 C1098 0.950 . S
H1087 C1099 0.950 . S
C1088 H1080 0.950 . S
C1088 C1089 1.386 . S
C1088 C1090 1.391 . S
C1089 C1088 1.386 . S
C1089 C1093 1.393 . S
C1090 H1082 0.950 . S
C1090 C1088 1.391 . S
C1090 C1091 1.400 . S
C1091 C1090 1.400 . S
C1091 C1092 1.398 . S
C1091 C1097 1.491 . S
C1092 H1083 0.950 . S
C1092 C1091 1.398 . S
C1092 C1093 1.391 . S
C1093 H1081 0.950 . S
C1093 C1089 1.393 . S
C1093 C1092 1.391 . S
C1094 H1084 0.950 . S
C1094 C1095 1.386 . S
C1094 C1096 1.391 . S
C1095 C1094 1.386 . S
C1095 C1099 1.393 . S
C1096 H1085 0.950 . S
C1096 C1094 1.391 . S
C1096 C1097 1.400 . S
C1097 C1091 1.491 . S
C1097 C1096 1.400 . S
C1097 C1098 1.398 . S
C1098 H1086 0.950 . S
C1098 C1097 1.398 . S
C1098 C1099 1.391 . S
C1099 H1087 0.950 . S
C1099 C1095 1.393 . S
C1099 C1098 1.391 . S
H1100 C1108 0.950 . S
H1101 C1113 0.950 . S
H1102 C1110 0.950 . S
H1103 C1112 0.950 . S
H1104 C1114 0.950 . S
H1105 C1116 0.950 . S
H1106 C1118 0.950 . S
H1107 C1119 0.950 . S
C1108 H1100 0.950 . S
C1108 C1109 1.386 . S
C1108 C1110 1.391 . S
C1109 C1108 1.386 . S
C1109 C1113 1.393 . S
C1110 H1102 0.950 . S
C1110 C1108 1.391 . S
C1110 C1111 1.400 . S
C1111 C1110 1.400 . S
C1111 C1112 1.398 . S
C1111 C1117 1.491 . S
C1112 H1103 0.950 . S
C1112 C1111 1.398 . S
C1112 C1113 1.391 . S
C1113 H1101 0.950 . S
C1113 C1109 1.393 . S
C1113 C1112 1.391 . S
C1114 H1104 0.950 . S
C1114 C1115 1.386 . S
C1114 C1116 1.391 . S
C1115 C1114 1.386 . S
C1115 C1119 1.393 . S
C1116 H1105 0.950 . S
C1116 C1114 1.391 . S
C1116 C1117 1.400 . S
C1117 C1111 1.491 . S
C1117 C1116 1.400 . S
C1117 C1118 1.398 . S
C1118 H1106 0.950 . S
C1118 C1117 1.398 . S
C1118 C1119 1.391 . S
C1119 H1107 0.950 . S
C1119 C1115 1.393 . S
C1119 C1118 1.391 . S
H1120 C1128 0.950 . S
H1121 C1133 0.950 . S
H1122 C1130 0.950 1_545 S
H1123 C1132 0.950 . S
H1124 C1134 0.950 . S
H1125 C1136 0.950 . S
H1126 C1138 0.950 . S
H1127 C1139 0.950 . S
C1128 H1120 0.950 . S
C1128 C1129 1.386 . S
C1128 C1130 1.391 . S
C1129 C1128 1.386 . S
C1129 C1133 1.393 . S
C1130 H1122 0.950 1_565 S
C1130 C1128 1.391 . S
C1130 C1131 1.393 1_565 S
C1131 C1130 1.393 1_545 S
C1131 C1132 1.377 1_545 S
C1131 C1137 1.519 . S
C1132 H1123 0.950 . S
C1132 C1131 1.377 1_565 S
C1132 C1133 1.391 . S
C1133 H1121 0.950 . S
C1133 C1129 1.393 . S
C1133 C1132 1.391 . S
C1134 H1124 0.950 . S
C1134 C1135 1.386 . S
C1134 C1136 1.391 . S
C1135 C1134 1.386 . S
C1135 C1139 1.393 . S
C1136 H1125 0.950 . S
C1136 C1134 1.391 . S
C1136 C1137 1.400 . S
C1137 C1131 1.519 . S
C1137 C1136 1.400 . S
C1137 C1138 1.398 . S
C1138 H1126 0.950 . S
C1138 C1137 1.398 . S
C1138 C1139 1.391 . S
C1139 H1127 0.950 . S
C1139 C1135 1.393 . S
C1139 C1138 1.391 . S
H1140 C1148 0.950 . S
H1141 C1153 0.950 . S
H1142 C1150 0.950 . S
H1143 C1152 0.950 . S
H1144 C1154 0.950 . S
H1145 C1156 0.950 . S
H1146 C1158 0.950 . S
H1147 C1159 0.950 . S
C1148 H1140 0.950 . S
C1148 C1149 1.386 . S
C1148 C1150 1.391 . S
C1149 C1148 1.386 . S
C1149 C1153 1.393 . S
C1150 H1142 0.950 . S
C1150 C1148 1.391 . S
C1150 C1151 1.400 . S
C1151 C1150 1.400 . S
C1151 C1152 1.398 . S
C1151 C1157 1.491 . S
C1152 H1143 0.950 . S
C1152 C1151 1.398 . S
C1152 C1153 1.391 . S
C1153 H1141 0.950 . S
C1153 C1149 1.393 . S
C1153 C1152 1.391 . S
C1154 H1144 0.950 . S
C1154 C1155 1.386 . S
C1154 C1156 1.391 . S
C1155 C1154 1.386 . S
C1155 C1159 1.393 . S
C1156 H1145 0.950 . S
C1156 C1154 1.391 . S
C1156 C1157 1.400 . S
C1157 C1151 1.491 . S
C1157 C1156 1.400 . S
C1157 C1158 1.398 . S
C1158 H1146 0.950 . S
C1158 C1157 1.398 . S
C1158 C1159 1.391 . S
C1159 H1147 0.950 . S
C1159 C1155 1.393 . S
C1159 C1158 1.391 . S
H1160 C1168 0.950 . S
H1161 C1173 0.950 . S
H1162 C1170 0.950 . S
H1163 C1172 0.950 . S
H1164 C1174 0.950 . S
H1165 C1176 0.950 . S
H1166 C1178 0.950 . S
H1167 C1179 0.950 . S
C1168 H1160 0.950 . S
C1168 C1169 1.386 . S
C1168 C1170 1.391 . S
C1169 C1168 1.386 . S
C1169 C1173 1.393 . S
C1170 H1162 0.950 . S
C1170 C1168 1.391 . S
C1170 C1171 1.400 . S
C1171 C1170 1.400 . S
C1171 C1172 1.398 . S
C1171 C1177 1.487 . S
C1172 H1163 0.950 . S
C1172 C1171 1.398 . S
C1172 C1173 1.391 . S
C1173 H1161 0.950 . S
C1173 C1169 1.393 . S
C1173 C1172 1.391 . S
C1174 H1164 0.950 . S
C1174 C1175 1.386 . S
C1174 C1176 1.391 . S
C1175 C1174 1.386 . S
C1175 C1179 1.393 . S
C1176 H1165 0.950 . S
C1176 C1174 1.391 . S
C1176 C1177 1.402 1_545 S
C1177 C1171 1.487 . S
C1177 C1176 1.402 1_565 S
C1177 C1178 1.400 1_565 S
C1178 H1166 0.950 . S
C1178 C1177 1.400 1_545 S
C1178 C1179 1.391 . S
C1179 H1167 0.950 . S
C1179 C1175 1.393 . S
C1179 C1178 1.391 . S
H1180 C1188 0.950 . S
H1181 C1193 0.950 . S
H1182 C1190 0.950 . S
H1183 C1192 0.950 . S
H1184 C1194 0.950 . S
H1185 C1196 0.950 . S
H1186 C1198 0.950 . S
H1187 C1199 0.950 . S
C1188 H1180 0.950 . S
C1188 C1189 1.386 . S
C1188 C1190 1.391 . S
C1189 C1188 1.386 . S
C1189 C1193 1.393 . S
C1190 H1182 0.950 . S
C1190 C1188 1.391 . S
C1190 C1191 1.400 . S
C1191 C1190 1.400 . S
C1191 C1192 1.398 . S
C1191 C1197 1.491 . S
C1192 H1183 0.950 . S
C1192 C1191 1.398 . S
C1192 C1193 1.391 . S
C1193 H1181 0.950 . S
C1193 C1189 1.393 . S
C1193 C1192 1.391 . S
C1194 H1184 0.950 . S
C1194 C1195 1.386 . S
C1194 C1196 1.391 . S
C1195 C1194 1.386 . S
C1195 C1199 1.393 . S
C1196 H1185 0.950 . S
C1196 C1194 1.391 . S
C1196 C1197 1.400 . S
C1197 C1191 1.491 . S
C1197 C1196 1.400 . S
C1197 C1198 1.398 . S
C1198 H1186 0.950 . S
C1198 C1197 1.398 . S
C1198 C1199 1.391 . S
C1199 H1187 0.950 . S
C1199 C1195 1.393 . S
C1199 C1198 1.391 . S
H1200 C1208 0.950 . S
H1201 C1213 0.950 . S
H1202 C1210 0.950 . S
H1203 C1212 0.950 1_545 S
H1204 C1214 0.950 . S
H1205 C1216 0.950 . S
H1206 C1218 0.950 . S
H1207 C1219 0.950 . S
C1208 H1200 0.950 . S
C1208 C1209 1.386 . S
C1208 C1210 1.391 . S
C1209 C1208 1.386 . S
C1209 C1213 1.393 . S
C1210 H1202 0.950 . S
C1210 C1208 1.391 . S
C1210 C1211 1.400 . S
C1211 C1210 1.400 . S
C1211 C1212 1.398 . S
C1211 C1217 1.491 1_565 S
C1212 H1203 0.950 1_565 S
C1212 C1211 1.398 . S
C1212 C1213 1.391 . S
C1213 H1201 0.950 . S
C1213 C1209 1.393 . S
C1213 C1212 1.391 . S
C1214 H1204 0.950 . S
C1214 C1215 1.386 . S
C1214 C1216 1.391 . S
C1215 C1214 1.386 . S
C1215 C1219 1.393 . S
C1216 H1205 0.950 . S
C1216 C1214 1.391 . S
C1216 C1217 1.400 . S
C1217 C1211 1.491 1_545 S
C1217 C1216 1.400 . S
C1217 C1218 1.398 . S
C1218 H1206 0.950 . S
C1218 C1217 1.398 . S
C1218 C1219 1.391 . S
C1219 H1207 0.950 . S
C1219 C1215 1.393 . S
C1219 C1218 1.391 . S
H1220 C1228 0.950 . S
H1221 C1233 0.950 . S
H1222 C1230 0.950 . S
H1223 C1232 0.950 . S
H1224 C1234 0.950 . S
H1225 C1236 0.950 . S
H1226 C1238 0.950 . S
H1227 C1239 0.950 . S
C1228 H1220 0.950 . S
C1228 C1229 1.386 . S
C1228 C1230 1.391 . S
C1229 C1228 1.386 . S
C1229 C1233 1.393 . S
C1230 H1222 0.950 . S
C1230 C1228 1.391 . S
C1230 C1231 1.400 . S
C1231 C1230 1.400 . S
C1231 C1232 1.398 . S
C1231 C1237 1.491 . S
C1232 H1223 0.950 . S
C1232 C1231 1.398 . S
C1232 C1233 1.391 . S
C1233 H1221 0.950 . S
C1233 C1229 1.393 . S
C1233 C1232 1.391 . S
C1234 H1224 0.950 . S
C1234 C1235 1.386 . S
C1234 C1236 1.391 . S
C1235 C1234 1.386 . S
C1235 C1239 1.393 . S
C1236 H1225 0.950 . S
C1236 C1234 1.391 . S
C1236 C1237 1.400 . S
C1237 C1231 1.491 . S
C1237 C1236 1.400 . S
C1237 C1238 1.398 . S
C1238 H1226 0.950 . S
C1238 C1237 1.398 . S
C1238 C1239 1.391 . S
C1239 H1227 0.950 . S
C1239 C1235 1.393 . S
C1239 C1238 1.391 . S
H1240 C1248 0.950 . S
H1241 C1253 0.950 . S
H1242 C1250 0.950 . S
H1243 C1252 0.950 . S
H1244 C1254 0.950 . S
H1245 C1256 0.950 . S
H1246 C1258 0.950 1_544 S
H1247 C1259 0.950 . S
C1248 H1240 0.950 . S
C1248 C1249 1.386 . S
C1248 C1250 1.391 . S
C1249 C1248 1.386 . S
C1249 C1253 1.393 . S
C1250 H1242 0.950 . S
C1250 C1248 1.391 . S
C1250 C1251 1.400 . S
C1251 C1250 1.400 . S
C1251 C1252 1.398 . S
C1251 C1257 1.491 . S
C1252 H1243 0.950 . S
C1252 C1251 1.398 . S
C1252 C1253 1.391 . S
C1253 H1241 0.950 . S
C1253 C1249 1.393 . S
C1253 C1252 1.391 . S
C1254 H1244 0.950 . S
C1254 C1255 1.386 1_556 S
C1254 C1256 1.391 . S
C1255 C1254 1.386 1_554 S
C1255 C1259 1.393 . S
C1256 H1245 0.950 . S
C1256 C1254 1.391 . S
C1256 C1257 1.400 1_565 S
C1257 C1251 1.491 . S
C1257 C1256 1.400 1_545 S
C1257 C1258 1.398 1_545 S
C1258 H1246 0.950 1_566 S
C1258 C1257 1.398 1_565 S
C1258 C1259 1.391 1_556 S
C1259 H1247 0.950 . S
C1259 C1255 1.393 . S
C1259 C1258 1.391 1_554 S
H1260 C1268 0.950 . S
H1261 C1273 0.950 . S
H1262 C1270 0.950 . S
H1263 C1272 0.950 . S
H1264 C1274 0.950 . S
H1265 C1276 0.950 . S
H1266 C1278 0.950 . S
H1267 C1279 0.950 . S
C1268 H1260 0.950 . S
C1268 C1269 1.386 . S
C1268 C1270 1.391 . S
C1269 C1268 1.386 . S
C1269 C1273 1.393 . S
C1270 H1262 0.950 . S
C1270 C1268 1.391 . S
C1270 C1271 1.400 . S
C1271 C1270 1.400 . S
C1271 C1272 1.398 . S
C1271 C1277 1.491 . S
C1272 H1263 0.950 . S
C1272 C1271 1.398 . S
C1272 C1273 1.391 . S
C1273 H1261 0.950 . S
C1273 C1269 1.393 . S
C1273 C1272 1.391 . S
C1274 H1264 0.950 . S
C1274 C1275 1.386 . S
C1274 C1276 1.391 . S
C1275 C1274 1.386 . S
C1275 C1279 1.393 . S
C1276 H1265 0.950 . S
C1276 C1274 1.391 . S
C1276 C1277 1.400 . S
C1277 C1271 1.491 . S
C1277 C1276 1.400 . S
C1277 C1278 1.398 . S
C1278 H1266 0.950 . S
C1278 C1277 1.398 . S
C1278 C1279 1.391 . S
C1279 H1267 0.950 . S
C1279 C1275 1.393 . S
C1279 C1278 1.391 . S
C329 C12 1.589 . S
C335 C9 1.589 . S
C349 C32 1.568 . S
C355 C29 1.568 . S
C369 C52 1.558 . S
C375 C49 1.558 . S
C389 C72 1.599 . S
C395 C69 1.599 . S
C409 C89 1.568 . S
C415 C92 1.568 . S
C429 C112 1.604 . S
C435 C109 1.604 . S
C449 C129 1.583 . S
C455 C132 1.583 . S
C469 C149 1.600 . S
C475 C152 1.600 . S
C489 C169 1.586 . S
C495 C172 1.586 . S
C509 C192 1.547 . S
C515 C189 1.547 . S
C529 C212 1.574 1_556 S
C535 C209 1.574 . S
C549 C229 1.616 . S
C555 C232 1.616 . S
C569 C252 1.564 . S
C575 C249 1.564 . S
C589 C272 1.584 . S
C595 C269 1.584 . S
C609 C292 1.587 . S
C615 C289 1.587 . S
C629 C309 1.618 1_556 S
C635 C312 1.618 . S
C649 C18 1.814 . S
C655 C222 1.794 . S
C669 C38 2.007 . S
C675 C319 2.012 . S
C689 C58 1.431 . S
C695 C182 1.420 . S
C709 C78 1.563 . S
C715 C262 1.560 . S
C729 C84 1.684 . S
C735 C279 1.688 . S
C749 C239 1.804 . S
C755 C104 1.786 . S
C769 C124 1.364 . S
C775 C302 1.410 . S
C789 C144 1.486 . S
C795 C199 1.494 . S
C809 C64 1.732 . S
C815 C179 1.734 . S
C829 C24 1.817 . S
C835 C219 1.808 . S
C849 C242 1.712 . S
C855 C118 1.718 . S
C869 C158 1.686 . S
C875 C282 1.691 . S
C889 C162 1.516 . S
C895 C98 1.521 . S
C909 C138 1.443 . S
C915 C202 1.435 . S
C929 C44 1.524 . S
C935 C299 1.533 . S
C949 C4 1.555 . S
C955 C259 1.574 . S
C969 C19 1.620 . S
C975 C82 1.543 . S
C989 C39 1.754 . S
C995 C102 1.702 . S
C1009 C59 1.356 . S
C1015 C122 1.276 . S
C1029 C79 1.519 . S
C1035 C142 1.435 . S
C1049 C244 1.606 . S
C1055 C178 1.686 . S
C1069 C264 1.395 . S
C1075 C198 1.437 . S
C1089 C218 1.629 . S
C1095 C284 1.542 . S
C1109 C318 1.946 . S
C1115 C238 1.941 . S
C1129 C22 1.707 . S
C1135 C159 1.813 . S
C1149 C99 1.542 . S
C1155 C42 1.456 . S
C1169 C119 1.622 . S
C1175 C62 1.570 . S
C1189 C2 1.301 . S
C1195 C139 1.348 . S
C1209 C304 1.175 . S
C1215 C184 1.180 . S
C1229 C258 1.531 . S
C1235 C204 1.466 . S
C1249 C278 1.691 . S
C1255 C224 1.608 . S
C1269 C298 1.467 . S
C1275 C164 1.414 . S
