# Generated by pormake.
# Topology unp, (4)-cn, num edge types: 1
# Building blocks:
#     Node 0, Type 0, BuildingBlock: QUQFOY_clean_sbu_3, # of connection points: 4
#     Node 1, Type 0, BuildingBlock: QUQFOY_clean_sbu_3, # of connection points: 4
#     Node 2, Type 0, BuildingBlock: QUQFOY_clean_sbu_3, # of connection points: 4
#     Node 3, Type 0, BuildingBlock: QUQFOY_clean_sbu_3, # of connection points: 4
#     Node 4, Type 0, BuildingBlock: QUQFOY_clean_sbu_3, # of connection points: 4
#     Node 5, Type 0, BuildingBlock: QUQFOY_clean_sbu_3, # of connection points: 4
#     Node 6, Type 0, BuildingBlock: QUQFOY_clean_sbu_3, # of connection points: 4
#     Node 7, Type 0, BuildingBlock: QUQFOY_clean_sbu_3, # of connection points: 4
#     Node 8, Type 0, BuildingBlock: QUQFOY_clean_sbu_3, # of connection points: 4
#     Node 9, Type 0, BuildingBlock: QUQFOY_clean_sbu_3, # of connection points: 4
#     Node 10, Type 0, BuildingBlock: QUQFOY_clean_sbu_3, # of connection points: 4
#     Node 11, Type 0, BuildingBlock: QUQFOY_clean_sbu_3, # of connection points: 4
#     Node 12, Type 0, BuildingBlock: QUQFOY_clean_sbu_3, # of connection points: 4
#     Node 13, Type 0, BuildingBlock: QUQFOY_clean_sbu_3, # of connection points: 4
#     Node 14, Type 0, BuildingBlock: QUQFOY_clean_sbu_3, # of connection points: 4
#     Node 15, Type 0, BuildingBlock: QUQFOY_clean_sbu_3, # of connection points: 4
#     Node 16, Type 0, BuildingBlock: QUQFOY_clean_sbu_3, # of connection points: 4
#     Node 17, Type 0, BuildingBlock: QUQFOY_clean_sbu_3, # of connection points: 4
#     Edge 18, Type (0, 0), BuildingBlock: EZIPEK_clean_linker_0, # of connection points: 2
#     Edge 19, Type (0, 0), BuildingBlock: EZIPEK_clean_linker_0, # of connection points: 2
#     Edge 20, Type (0, 0), BuildingBlock: EZIPEK_clean_linker_0, # of connection points: 2
#     Edge 21, Type (0, 0), BuildingBlock: EZIPEK_clean_linker_0, # of connection points: 2
#     Edge 22, Type (0, 0), BuildingBlock: EZIPEK_clean_linker_0, # of connection points: 2
#     Edge 23, Type (0, 0), BuildingBlock: EZIPEK_clean_linker_0, # of connection points: 2
#     Edge 24, Type (0, 0), BuildingBlock: EZIPEK_clean_linker_0, # of connection points: 2
#     Edge 25, Type (0, 0), BuildingBlock: EZIPEK_clean_linker_0, # of connection points: 2
#     Edge 26, Type (0, 0), BuildingBlock: EZIPEK_clean_linker_0, # of connection points: 2
#     Edge 27, Type (0, 0), BuildingBlock: EZIPEK_clean_linker_0, # of connection points: 2
#     Edge 28, Type (0, 0), BuildingBlock: EZIPEK_clean_linker_0, # of connection points: 2
#     Edge 29, Type (0, 0), BuildingBlock: EZIPEK_clean_linker_0, # of connection points: 2
#     Edge 30, Type (0, 0), BuildingBlock: EZIPEK_clean_linker_0, # of connection points: 2
#     Edge 31, Type (0, 0), BuildingBlock: EZIPEK_clean_linker_0, # of connection points: 2
#     Edge 32, Type (0, 0), BuildingBlock: EZIPEK_clean_linker_0, # of connection points: 2
#     Edge 33, Type (0, 0), BuildingBlock: EZIPEK_clean_linker_0, # of connection points: 2
#     Edge 34, Type (0, 0), BuildingBlock: EZIPEK_clean_linker_0, # of connection points: 2
#     Edge 35, Type (0, 0), BuildingBlock: EZIPEK_clean_linker_0, # of connection points: 2
#     Edge 36, Type (0, 0), BuildingBlock: EZIPEK_clean_linker_0, # of connection points: 2
#     Edge 37, Type (0, 0), BuildingBlock: EZIPEK_clean_linker_0, # of connection points: 2
#     Edge 38, Type (0, 0), BuildingBlock: EZIPEK_clean_linker_0, # of connection points: 2
#     Edge 39, Type (0, 0), BuildingBlock: EZIPEK_clean_linker_0, # of connection points: 2
#     Edge 40, Type (0, 0), BuildingBlock: EZIPEK_clean_linker_0, # of connection points: 2
#     Edge 41, Type (0, 0), BuildingBlock: EZIPEK_clean_linker_0, # of connection points: 2
#     Edge 42, Type (0, 0), BuildingBlock: EZIPEK_clean_linker_0, # of connection points: 2
#     Edge 43, Type (0, 0), BuildingBlock: EZIPEK_clean_linker_0, # of connection points: 2
#     Edge 44, Type (0, 0), BuildingBlock: EZIPEK_clean_linker_0, # of connection points: 2
#     Edge 45, Type (0, 0), BuildingBlock: EZIPEK_clean_linker_0, # of connection points: 2
#     Edge 46, Type (0, 0), BuildingBlock: EZIPEK_clean_linker_0, # of connection points: 2
#     Edge 47, Type (0, 0), BuildingBlock: EZIPEK_clean_linker_0, # of connection points: 2
#     Edge 48, Type (0, 0), BuildingBlock: EZIPEK_clean_linker_0, # of connection points: 2
#     Edge 49, Type (0, 0), BuildingBlock: EZIPEK_clean_linker_0, # of connection points: 2
#     Edge 50, Type (0, 0), BuildingBlock: EZIPEK_clean_linker_0, # of connection points: 2
#     Edge 51, Type (0, 0), BuildingBlock: EZIPEK_clean_linker_0, # of connection points: 2
#     Edge 52, Type (0, 0), BuildingBlock: EZIPEK_clean_linker_0, # of connection points: 2
#     Edge 53, Type (0, 0), BuildingBlock: EZIPEK_clean_linker_0, # of connection points: 2
# Relax obj value: 0.404
# Max RMSD: 0.185
# Mean RMSD: 0.185
data_MOF--net-unp--node1-QUQFOY_clean_sbu_3--edge1-EZIPEK_clean_linker_0
_symmetry_space_group_name_H-M    P1
_symmetry_Int_Tables_number       1
_symmetry_cell_setting            triclinic
loop_
_symmetry_equiv_pos_as_xyz
'x, y, z'
_cell_length_a     39.30292
_cell_length_b     39.19475
_cell_length_c     41.832638
_cell_angle_alpha  90.534905
_cell_angle_beta   89.53488
_cell_angle_gamma 120.02232
loop_
_atom_site_label
_atom_site_type_symbol
_atom_site_fract_x
_atom_site_fract_y
_atom_site_fract_z
_atom_type_partial_charge
C0 C 0.09265 0.04524 0.13216 0.0
O1 O 0.10464 0.04951 0.10363 0.0
Cd2 Cd 0.05953 0.06541 0.07853 0.0
O3 O 0.0867 0.07197 0.14373 0.0
Cd4 Cd 0.11476 0.14021 0.11819 0.0
C5 C 0.02504 0.11143 0.13405 0.0
O6 O 0.10331 0.1258 0.06118 0.0
O7 O 0.14264 0.18671 0.07184 0.0
O8 O 0.1774 0.14755 0.13 0.0
C9 C 0.12775 0.15943 0.0512 0.0
O10 O 0.02196 0.08458 0.11487 0.0
C11 C 0.19084 0.18154 0.14256 0.0
O12 O 0.05823 0.1415 0.14034 0.0
O13 O 0.1675 0.19493 0.14676 0.0
C14 C 0.87331 0.02324 0.13206 0.0
O15 O 0.87995 0.0076 0.10784 0.0
Cd16 Cd 0.83346 0.95528 0.07553 0.0
O17 O 0.8386 0.01153 0.14234 0.0
Cd18 Cd 0.77142 0.96077 0.12552 0.0
C19 C 0.79086 0.88752 0.13677 0.0
O20 O 0.78996 -0.02067 0.07115 0.0
O21 O 0.72963 0.93466 0.07722 0.0
O22 O 0.76026 0.01178 0.14492 0.0
C23 C 0.75681 0.95796 0.05864 0.0
O24 O 0.81086 0.89993 0.11115 0.0
C25 C 0.72394 -0.01088 0.15034 0.0
O26 O 0.77358 0.90464 0.14907 0.0
O27 O 0.71055 0.95222 0.14822 0.0
C28 C 0.8759 0.82415 0.13413 0.0
O29 O 0.8817 0.8369 0.10564 0.0
Cd30 Cd 0.93156 0.84304 0.07093 0.0
O31 O 0.8955 0.80949 0.14632 0.0
Cd32 Cd -0.0542 0.79072 0.12853 0.0
C33 C 0.00719 0.87769 0.13111 0.0
O34 O 0.92236 0.77989 0.07366 0.0
O35 O -0.02136 0.78398 0.07992 0.0
O36 O 0.89519 0.72674 0.14322 0.0
C37 C -0.04966 0.77706 0.06157 0.0
O38 O -0.01921 0.86556 0.11013 0.0
C39 C 0.91805 0.71488 0.15248 0.0
O40 O 0.00482 0.852 0.15056 0.0
O41 O -0.0455 0.73994 0.1544 0.0
C42 C 0.01303 0.0988 0.84834 0.0
O43 O 0.00644 0.08285 0.87575 0.0
Cd44 Cd 0.05116 0.07624 0.9082 0.0
O45 O 0.04732 0.11576 0.83557 0.0
Cd46 Cd 0.11738 0.13412 0.84948 0.0
C47 C 0.09466 0.04934 0.84493 0.0
O48 O 0.1025 0.14137 0.90522 0.0
O49 O 0.15734 0.14247 0.89772 0.0
O50 O 0.12833 0.19738 0.8348 0.0
C51 C 0.13444 0.1469 0.91662 0.0
O52 O 0.0821 0.06349 0.86584 0.0
C53 C 0.16402 0.21122 0.82709 0.0
O54 O 0.11717 0.07388 0.82434 0.0
O55 O 0.17731 0.1876 0.8258 0.0
C56 C 0.80999 0.89949 0.84922 0.0
O57 O 0.83072 0.91422 0.87407 0.0
Cd58 Cd 0.83356 -0.03442 0.90568 0.0
O59 O 0.78792 0.91198 0.83853 0.0
Cd60 Cd 0.77103 -0.03657 0.85485 0.0
C61 C 0.86355 0.03665 0.84634 0.0
O62 O 0.76586 0.94258 0.90946 0.0
O63 O 0.76003 -0.00622 0.90365 0.0
O64 O 0.71148 0.9137 0.82928 0.0
C65 C 0.75836 -0.03255 0.92198 0.0
O66 O 0.86883 0.0228 0.87201 0.0
C67 C 0.69522 0.93462 0.829 0.0
O68 O 0.83031 0.02014 0.83246 0.0
O69 O 0.71624 -0.0293 0.83659 0.0
C70 C 0.01189 0.88161 0.84914 0.0
O71 O 0.01656 0.87832 0.87856 0.0
Cd72 Cd -0.04499 0.85995 0.90457 0.0
O73 O -0.01846 0.85384 0.83575 0.0
Cd74 Cd 0.93957 0.78502 0.85931 0.0
C75 C 0.87733 0.81452 0.84703 0.0
O76 O 0.94116 0.79842 0.91541 0.0
O77 O 0.92489 0.73866 0.90597 0.0
O78 O -0.00572 0.77802 0.84542 0.0
C79 C 0.93451 0.76598 0.92626 0.0
O80 O 0.8996 0.84072 0.86722 0.0
C81 C -0.02647 0.744 0.83303 0.0
O82 O 0.88201 0.78555 0.83943 0.0
O83 O 0.9368 0.73073 0.82941 0.0
C84 C 0.76162 0.37959 0.47996 0.0
O85 O 0.79507 0.39995 0.4675 0.0
Cd86 Cd 0.78207 0.45391 0.45597 0.0
O87 O 0.74135 0.39619 0.48367 0.0
Cd88 Cd 0.78196 0.46773 0.46056 0.0
C89 C 0.7014 0.45 0.46851 0.0
O90 O 0.79714 0.45642 0.40357 0.0
O91 O 0.77601 0.49727 0.40889 0.0
O92 O 0.84551 0.47992 0.48165 0.0
C93 C 0.78928 0.48052 0.39068 0.0
O94 O 0.70991 0.42897 0.45086 0.0
C95 C 0.85954 0.51675 0.48469 0.0
O96 O 0.72935 0.47866 0.48314 0.0
O97 O 0.8365 0.53017 0.48023 0.0
C98 C 0.54181 0.3595 0.45227 0.0
O99 O 0.54538 0.33958 0.42964 0.0
Cd100 Cd 0.4996 0.28014 0.40248 0.0
O101 O 0.5084 0.35033 0.46447 0.0
Cd102 Cd 0.43848 0.29777 0.45526 0.0
C103 C 0.45926 0.22356 0.47096 0.0
O104 O 0.44515 0.28751 0.40026 0.0
O105 O 0.39588 0.29481 0.40946 0.0
O106 O 0.42783 0.34974 0.47303 0.0
C107 C 0.41785 0.29158 0.38906 0.0
O108 O 0.48003 0.23333 0.44554 0.0
C109 C 0.39352 0.327 0.48395 0.0
O110 O 0.44068 0.241 0.48012 0.0
O111 O 0.38189 0.29028 0.48555 0.0
C112 C 0.53489 0.15312 0.47198 0.0
O113 O 0.53873 0.16545 0.44357 0.0
Cd114 Cd 0.59882 0.18114 0.42281 0.0
O115 O 0.55784 0.14172 0.48311 0.0
Cd116 Cd 0.60775 0.12496 0.45775 0.0
C117 C 0.66573 0.21338 0.47976 0.0
O118 O 0.58259 0.11758 0.4038 0.0
O119 O 0.63864 0.1207 0.40689 0.0
O120 O 0.55956 0.06145 0.47679 0.0
C121 C 0.60947 0.11432 0.38997 0.0
O122 O 0.63346 0.21102 0.47249 0.0
C123 C 0.58304 0.04866 0.48105 0.0
O124 O 0.6697 0.18363 0.4747 0.0
O125 O 0.61949 0.07285 0.47756 0.0
C126 C 0.68644 0.44873 0.16583 0.0
O127 O 0.68912 0.4684 0.19063 0.0
Cd128 Cd 0.71495 0.43933 0.22548 0.0
O129 O 0.71377 0.44088 0.16044 0.0
Cd130 Cd 0.78096 0.47273 0.1869 0.0
C131 C 0.74688 0.38078 0.18375 0.0
O132 O 0.77397 0.49315 0.24085 0.0
O133 O 0.81116 0.46751 0.23686 0.0
O134 O 0.79472 0.53448 0.166 0.0
C135 C 0.79782 0.48507 0.25399 0.0
O136 O 0.72305 0.38551 0.20165 0.0
C137 C 0.83099 0.54709 0.16112 0.0
O138 O 0.77723 0.41071 0.17251 0.0
O139 O 0.84331 0.52276 0.1639 0.0
C140 C 0.47656 0.23343 0.19157 0.0
O141 O 0.48876 0.25106 0.21823 0.0
Cd142 Cd 0.48269 0.29986 0.24604 0.0
O143 O 0.45432 0.2406 0.17441 0.0
Cd144 Cd 0.43117 0.28825 0.18908 0.0
C145 C 0.52519 0.3621 0.18685 0.0
O146 O 0.41501 0.2714 0.2445 0.0
O147 O 0.42642 0.32945 0.2334 0.0
O148 O 0.37022 0.23635 0.16931 0.0
C149 C 0.41474 0.30193 0.25371 0.0
O150 O 0.5205 0.36177 0.21694 0.0
C151 C 0.3578 0.25878 0.1598 0.0
O152 O 0.49764 0.33668 0.16928 0.0
O153 O 0.38194 0.29574 0.15961 0.0
C154 C 0.68294 0.2141 0.16554 0.0
O155 O 0.69652 0.19413 0.17774 0.0
Cd156 Cd 0.63046 0.13774 0.18629 0.0
O157 O 0.64649 0.19606 0.15981 0.0
Cd158 Cd 0.61383 0.12343 0.18238 0.0
C159 C 0.55133 0.14132 0.1795 0.0
O160 O 0.64053 0.13288 0.23896 0.0
O161 O 0.57786 0.09713 0.23481 0.0
O162 O 0.66453 0.10787 0.16426 0.0
C163 C 0.60795 0.11204 0.25257 0.0
O164 O 0.58449 0.16252 0.19229 0.0
C165 C 0.63992 0.07232 0.15774 0.0
O166 O 0.54659 0.11085 0.16481 0.0
O167 O 0.60361 0.06167 0.15876 0.0
C168 C 0.4351 0.7132 0.81926 0.0
O169 O 0.46869 0.73581 0.8078 0.0
Cd170 Cd 0.45089 0.78608 0.79566 0.0
O171 O 0.41328 0.72795 0.8236 0.0
Cd172 Cd 0.44949 0.7997 0.79862 0.0
C173 C 0.36655 0.77612 0.80333 0.0
O174 O 0.46443 0.78603 0.74261 0.0
O175 O 0.44425 0.82772 0.74577 0.0
O176 O 0.51622 0.81644 0.8149 0.0
C177 C 0.45674 0.80951 0.72849 0.0
O178 O 0.37891 0.75457 0.79155 0.0
C179 C 0.52734 0.852 0.82158 0.0
O180 O 0.39225 0.80894 0.81496 0.0
O181 O 0.50164 0.86266 0.82134 0.0
C182 C 0.1996 0.69778 0.78411 0.0
O183 O 0.19384 0.69485 0.75419 0.0
Cd184 Cd 0.16505 0.6288 0.73374 0.0
O185 O 0.17204 0.6744 0.80277 0.0
Cd186 Cd 0.09962 0.62865 0.7901 0.0
C187 C 0.13183 0.56661 0.80259 0.0
O188 O 0.10588 0.6229 0.73525 0.0
O189 O 0.0514 0.61947 0.74477 0.0
O190 O 0.09731 0.68442 0.80989 0.0
C191 C 0.07607 0.62197 0.72413 0.0
O192 O 0.15394 0.58367 0.77848 0.0
C193 C 0.06154 0.66411 0.81867 0.0
O194 O 0.10494 0.57381 0.81175 0.0
O195 O 0.04579 0.62666 0.81911 0.0
C196 C 0.20956 0.49262 0.80095 0.0
O197 O 0.21542 0.50501 0.77241 0.0
Cd198 Cd 0.26371 0.50781 0.73767 0.0
O199 O 0.22794 0.47664 0.81291 0.0
Cd200 Cd 0.27514 0.45516 0.79359 0.0
C201 C 0.34317 0.5494 0.79238 0.0
O202 O 0.25125 0.44335 0.73965 0.0
O203 O 0.30596 0.44428 0.74559 0.0
O204 O 0.22553 0.39647 0.81956 0.0
C205 C 0.27844 0.43943 0.72719 0.0
O206 O 0.32191 0.54805 0.76903 0.0
C207 C 0.24653 0.38041 0.82146 0.0
O208 O 0.3334 0.51843 0.80859 0.0
O209 O 0.28291 0.40166 0.81508 0.0
C210 C 0.34667 0.77 0.51307 0.0
O211 O 0.33914 0.75874 0.54185 0.0
Cd212 Cd 0.38385 0.7522 0.57419 0.0
O213 O 0.38146 0.78496 0.5018 0.0
Cd214 Cd 0.44841 0.8081 0.52548 0.0
C215 C 0.4219 0.71483 0.51633 0.0
O216 O 0.43649 0.8164 0.58056 0.0
O217 O 0.48567 0.80734 0.57278 0.0
O218 O 0.46638 0.87397 0.51209 0.0
C219 C 0.46604 0.81618 0.59191 0.0
O220 O 0.40091 0.71136 0.5408 0.0
C221 C 0.4996 0.88279 0.50037 0.0
O222 O 0.44372 0.74814 0.50342 0.0
O223 O 0.50827 0.85568 0.49779 0.0
C224 C 0.13696 0.55924 0.51799 0.0
O225 O 0.15942 0.57617 0.5416 0.0
Cd226 Cd 0.16359 0.62992 0.57152 0.0
O227 O 0.1138 0.57057 0.50776 0.0
Cd228 Cd 0.10143 0.62497 0.52416 0.0
C229 C 0.19514 0.69376 0.50926 0.0
O230 O 0.09682 0.61008 0.5801 0.0
O231 O 0.09856 0.66475 0.56957 0.0
O232 O 0.03537 0.57594 0.51251 0.0
C233 C 0.09216 0.63808 0.58964 0.0
O234 O 0.20101 0.68619 0.53749 0.0
C235 C 0.02588 0.5993 0.50007 0.0
O236 O 0.16153 0.67396 0.49627 0.0
O237 O 0.05265 0.63495 0.49616 0.0
C238 C 0.33857 0.56145 0.51753 0.0
O239 O 0.32365 0.56709 0.54268 0.0
Cd240 Cd 0.27413 0.52016 0.57654 0.0
O241 O 0.32765 0.52696 0.50669 0.0
Cd242 Cd 0.27939 0.45811 0.52333 0.0
C243 C 0.20276 0.47442 0.51783 0.0
O244 O 0.29773 0.47627 0.57767 0.0
O245 O 0.25471 0.41536 0.57105 0.0
O246 O 0.33189 0.44905 0.50313 0.0
C247 C 0.27682 0.44284 0.58998 0.0
O248 O 0.21677 0.49482 0.54316 0.0
C249 C 0.31048 0.41231 0.49817 0.0
O250 O 0.2199 0.45811 0.5037 0.0
O251 O 0.27351 0.39768 0.50063 0.0
C252 C 0.29967 0.24624 0.12661 0.0
C253 C 0.31512 0.24277 0.15605 0.0
C254 C 0.24853 0.20293 0.17826 0.0
C255 C 0.23323 0.20601 0.1487 0.0
N256 N 0.24247 0.23573 0.09681 0.0
N257 N 0.30574 0.22464 0.21189 0.0
C258 C 0.25834 0.22943 0.12352 0.0
C259 C 0.28992 0.22307 0.18251 0.0
N260 N 0.32436 0.26389 0.10124 0.0
N261 N 0.22332 0.18032 0.20199 0.0
H262 H 0.33582 0.24027 0.21633 0.0
H263 H 0.28941 0.21306 0.23267 0.0
H264 H 0.19285 0.167 0.20002 0.0
H265 H 0.23201 0.1733 0.22317 0.0
H266 H 0.31489 0.26381 0.07808 0.0
H267 H 0.35481 0.27674 0.10281 0.0
H268 H 0.25888 0.25524 0.07874 0.0
H269 H 0.21232 0.22364 0.09378 0.0
C270 C 0.69767 0.0274 0.12395 0.0
C271 C 0.69738 0.00536 0.15082 0.0
C272 C 0.64891 0.01759 0.17743 0.0
C273 C 0.65394 0.04436 0.15262 0.0
N274 N 0.68495 0.07742 0.10352 0.0
N275 N 0.6744 -0.02009 0.20358 0.0
C276 C 0.67873 0.04989 0.12615 0.0
C277 C 0.67293 -5e-05 0.17753 0.0
N278 N 0.71481 0.02557 0.09586 0.0
N279 N 0.622 0.00988 0.20125 0.0
H280 H 0.69162 -0.03345 0.20423 0.0
H281 H 0.66071 -0.02146 0.22531 0.0
H282 H 0.60519 0.02359 0.20299 0.0
H283 H 0.61418 -0.01213 0.21817 0.0
H284 H 0.71288 0.0382 0.07466 0.0
H285 H 0.72744 0.00787 0.09275 0.0
H286 H 0.70704 0.08683 0.08627 0.0
H287 H 0.66934 0.09249 0.10303 0.0
C288 C 0.88407 0.60807 0.13436 0.0
C289 C 0.85834 0.58997 0.16052 0.0
C290 C 0.87588 0.65433 0.18352 0.0
C291 C 0.90227 0.67261 0.15784 0.0
N292 N 0.93643 0.6682 0.11109 0.0
N293 N 0.83845 0.59519 0.21438 0.0
C294 C 0.90829 0.64984 0.13415 0.0
C295 C 0.85684 0.61292 0.18643 0.0
N296 N 0.88368 0.58557 0.10903 0.0
N297 N 0.86823 0.67645 0.20472 0.0
H298 H 0.8256 0.56498 0.21811 0.0
H299 H 0.8396 0.61073 0.23506 0.0
H300 H 0.88354 0.7072 0.2047 0.0
H301 H 0.84511 0.66427 0.22111 0.0
H302 H 0.89843 0.59714 0.08759 0.0
H303 H 0.86635 0.55493 0.10863 0.0
H304 H -0.05505 0.65333 0.09512 0.0
H305 H -0.04658 0.69873 0.10917 0.0
C306 C 0.23751 0.31814 0.84624 0.0
C307 C 0.22752 0.33695 0.82237 0.0
C308 C 0.18036 0.27287 0.79875 0.0
C309 C 0.18941 0.25403 0.82316 0.0
N310 N 0.22198 0.25724 0.87279 0.0
N311 N 0.19591 0.33334 0.77201 0.0
C312 C 0.21728 0.27622 0.84736 0.0
C313 C 0.2005 0.3146 0.79765 0.0
N314 N 0.26641 0.3404 0.86774 0.0
N315 N 0.1516 0.25062 0.77707 0.0
H316 H 0.21103 0.36379 0.76934 0.0
H317 H 0.17964 0.31894 0.7518 0.0
H318 H 0.13879 0.22006 0.77527 0.0
H319 H 0.13885 0.26183 0.76181 0.0
H320 H 0.27871 0.32897 0.88325 0.0
H321 H 0.27988 0.37103 0.86898 0.0
H322 H 0.23781 0.27146 0.89323 0.0
H323 H 0.20789 0.22666 0.87467 0.0
C324 C 0.63367 0.92682 0.8043 0.0
C325 C 0.65194 0.91578 0.82788 0.0
C326 C 0.58778 0.87034 0.85192 0.0
C327 C 0.56941 0.87944 0.82713 0.0
N328 N 0.57333 0.91316 0.77802 0.0
N329 N 0.64787 0.88202 0.87713 0.0
C330 C 0.59192 0.90745 0.80319 0.0
C331 C 0.62936 0.88874 0.85247 0.0
N332 N 0.65631 0.95575 0.78295 0.0
N333 N 0.56496 0.84292 0.87432 0.0
H334 H 0.67821 0.89485 0.87873 0.0
H335 H 0.63379 0.86546 0.89725 0.0
H336 H 0.53471 0.83174 0.87623 0.0
H337 H 0.57517 0.83021 0.89054 0.0
H338 H 0.64538 -0.0313 0.76762 0.0
H339 H 0.68679 -0.03146 0.78163 0.0
H340 H 0.58763 0.92877 0.75754 0.0
H341 H 0.54293 0.90052 0.77666 0.0
C342 C 0.03741 0.70711 0.79647 0.0
C343 C 0.03718 0.68289 0.82177 0.0
C344 C -0.01358 0.69062 0.84939 0.0
C345 C -0.00859 0.71949 0.82666 0.0
N346 N 0.02437 0.75858 0.78038 0.0
N347 N 0.01476 0.65488 0.87407 0.0
C348 C 0.01778 0.72879 0.80076 0.0
C349 C 0.01229 0.67519 0.84864 0.0
N350 N 0.05438 0.70773 0.76763 0.0
N351 N -0.04289 0.67806 0.87175 0.0
H352 H 0.03409 0.64395 0.87465 0.0
H353 H 0.00035 0.65194 0.89574 0.0
H354 H 0.93776 0.68889 0.87325 0.0
H355 H -0.0504 0.65435 0.88687 0.0
H356 H 0.05172 0.7217 0.74752 0.0
H357 H 0.06747 0.69087 0.76248 0.0
H358 H 0.04704 0.76997 0.76356 0.0
H359 H 0.00871 0.7736 0.78162 0.0
C360 C 0.92609 0.54011 0.46203 0.0
C361 C 0.90238 0.54301 0.48651 0.0
C362 C -0.03876 0.59295 0.514 0.0
C363 C -0.01548 0.58508 0.49233 0.0
N364 N -0.01014 0.54977 0.4469 0.0
N365 N 0.89631 0.57059 0.53646 0.0
C366 C -0.03283 0.5584 0.46656 0.0
C367 C 0.9196 0.56952 0.51246 0.0
N368 N 0.90944 0.52104 0.43395 0.0
N369 N -0.02102 0.6223 0.53633 0.0
H370 H 0.86572 0.55378 0.53599 0.0
H371 H 0.90715 0.58599 0.55781 0.0
H372 H 0.0094 0.63919 0.53878 0.0
H373 H -0.03618 0.63206 0.55076 0.0
H374 H 0.92572 0.52114 0.41415 0.0
H375 H 0.87953 0.50853 0.42912 0.0
H376 H -0.02177 0.5266 0.43045 0.0
H377 H 0.02047 0.56446 0.44828 0.0
C378 C 0.31863 0.35922 0.47085 0.0
C379 C 0.3284 0.38694 0.49604 0.0
C380 C 0.3778 0.37161 0.51576 0.0
C381 C 0.36734 0.34305 0.49121 0.0
N382 N 0.3224 0.30364 0.44924 0.0
N383 N 0.3581 0.4103 0.54798 0.0
C384 C 0.33574 0.33465 0.47017 0.0
C385 C 0.35537 0.39052 0.52012 0.0
N386 N 0.29483 0.35791 0.44663 0.0
N387 N 0.40945 0.38099 0.53479 0.0
H388 H 0.34046 0.42255 0.55315 0.0
H389 H 0.37461 0.41075 0.5675 0.0
H390 H 0.42485 0.3657 0.53397 0.0
H391 H 0.4217 0.40532 0.55011 0.0
H392 H 0.2901 0.34151 0.42575 0.0
H393 H 0.28226 0.37585 0.4461 0.0
H394 H 0.29689 0.29356 0.43585 0.0
H395 H 0.33475 0.28563 0.44711 0.0
C396 C 0.54123 -0.01898 0.45952 0.0
C397 C 0.56741 0.00587 0.48363 0.0
C398 C 0.55795 0.94804 0.51298 0.0
C399 C 0.52722 0.9238 0.49157 0.0
N400 N 0.48792 0.91627 0.44531 0.0
N401 N 0.60025 0.01405 0.53389 0.0
C402 C 0.5186 0.94 0.46491 0.0
C403 C 0.57631 -0.01028 0.51029 0.0
N404 N 0.53882 -0.00338 0.43108 0.0
N405 N 0.56889 0.93117 0.53622 0.0
H406 H 0.61413 0.04468 0.53263 0.0
H407 H 0.60443 0.00408 0.55567 0.0
H408 H 0.55518 0.90079 0.53948 0.0
H409 H 0.59343 0.94692 0.55066 0.0
H410 H 0.52332 -0.02041 0.41141 0.0
H411 H 0.5554 0.02657 0.42593 0.0
H412 H 0.47666 0.92704 0.42818 0.0
H413 H 0.47223 0.88564 0.44732 0.0
C414 C -0.02967 0.075 0.17131 0.0
C415 C -0.01161 0.10561 0.14868 0.0
C416 C 0.92428 0.09337 0.13107 0.0
C417 C 0.90735 0.05686 0.14709 0.0
N418 N 0.9105 0.01562 0.18755 0.0
N419 N -0.0154 0.15045 0.11238 0.0
C420 C 0.92908 0.04915 0.16972 0.0
C421 C -0.03419 0.11771 0.13105 0.0
N422 N -0.00661 0.06971 0.19259 0.0
N423 N 0.90049 0.1031 0.11463 0.0
H424 H 0.01509 0.16864 0.11301 0.0
H425 H -0.02948 0.15953 0.0965 0.0
H426 H 0.86996 0.08496 0.11471 0.0
H427 H 0.91033 0.12971 0.10289 0.0
H428 H -0.01738 0.04862 0.21053 0.0
H429 H 0.02376 0.08878 0.19327 0.0
H430 H 0.92477 0.00598 0.2027 0.0
H431 H 0.88004 -0.00283 0.18685 0.0
C432 C 0.7816 0.82074 0.13891 0.0
C433 C 0.795 0.85741 0.15435 0.0
C434 C 0.85357 0.85742 0.17299 0.0
C435 C 0.84409 0.82538 0.15203 0.0
N436 N 0.79459 0.76777 0.1252 0.0
N437 N 0.83281 0.90104 0.19682 0.0
C438 C 0.80591 0.80351 0.13906 0.0
C439 C 0.82691 0.87182 0.17577 0.0
N440 N 0.7476 0.80491 0.1218 0.0
N441 N 0.88932 0.87593 0.18766 0.0
H442 H 0.81318 0.91161 0.19846 0.0
H443 H 0.85466 0.91213 0.21416 0.0
H444 H 0.90864 0.86498 0.18625 0.0
H445 H 0.90005 0.9022 0.20046 0.0
H446 H 0.73746 0.78007 0.10724 0.0
H447 H 0.7298 0.81771 0.12225 0.0
H448 H 0.7667 0.74931 0.11597 0.0
H449 H 0.81292 0.75557 0.12521 0.0
C450 C 0.08195 -0.01635 0.16058 0.0
C451 C 0.06735 0.00366 0.14206 0.0
C452 C 0.02806 0.94469 0.11187 0.0
C453 C 0.03501 0.92136 0.13357 0.0
N454 N 0.07145 0.92085 0.18019 0.0
N455 N 0.0127 -0.00373 0.11127 0.0
C456 C 0.06261 0.94129 0.15884 0.0
C457 C 0.03516 -0.01851 0.12202 0.0
N458 N 0.11456 0.00504 0.17884 0.0
N459 N 0.01729 0.93334 0.08091 0.0
H460 H 0.01556 0.02195 0.12119 0.0
H461 H -0.01154 -0.01992 0.09646 0.0
H462 H 0.01852 0.90967 0.0705 0.0
H463 H 0.01322 0.95115 0.06477 0.0
H464 H 0.12919 -0.00727 0.19045 0.0
H465 H 0.12765 0.03561 0.1811 0.0
H466 H 0.08758 0.93365 0.20089 0.0
H467 H 0.0627 0.89121 0.17737 0.0
C468 C 0.01814 0.9458 0.85728 0.0
C469 C 0.02838 0.92277 0.83811 0.0
C470 C 0.08568 -0.01577 0.81927 0.0
C471 C 0.07795 0.00544 0.8437 0.0
N472 N 0.0484 -0.00379 0.89658 0.0
N473 N 0.07389 0.91955 0.80135 0.0
C474 C 0.04761 -0.01666 0.86601 0.0
C475 C 0.06273 0.94183 0.81889 0.0
N476 N -0.01886 0.93082 0.86915 0.0
N477 N 0.11511 0.00358 0.79753 0.0
H478 H 0.05647 0.8889 0.80011 0.0
H479 H 0.10068 0.93123 0.78932 0.0
H480 H 0.13608 0.03327 0.79957 0.0
H481 H 0.11854 -0.01016 0.77732 0.0
H482 H -0.02715 0.94759 0.88326 0.0
H483 H -0.04145 0.90377 0.86116 0.0
H484 H 0.02669 -0.02073 0.9133 0.0
H485 H 0.07345 0.02009 0.90635 0.0
C486 C -0.03667 0.11932 0.85122 0.0
C487 C -0.02005 0.10036 0.83342 0.0
C488 C 0.91718 0.05965 0.80675 0.0
C489 C 0.89901 0.06946 0.83163 0.0
N490 N 0.90327 0.11493 0.87208 0.0
N491 N -0.02411 0.05845 0.78962 0.0
C492 C 0.92189 0.10254 0.85134 0.0
C493 C -0.04187 0.07327 0.80887 0.0
N494 N -0.0127 0.1516 0.86935 0.0
N495 N 0.89474 0.03581 0.78243 0.0
H496 H 0.00608 0.06905 0.79056 0.0
H497 H -0.03913 0.03551 0.77337 0.0
H498 H 0.86478 0.02622 0.78098 0.0
H499 H 0.90619 0.02875 0.76257 0.0
H500 H -0.02233 0.16786 0.88246 0.0
H501 H 0.01777 0.16361 0.86925 0.0
H502 H 0.91743 0.13641 0.88961 0.0
H503 H 0.87277 0.10269 0.87158 0.0
C504 C 0.85596 0.84793 0.80951 0.0
C505 C 0.84545 0.81901 0.83335 0.0
C506 C 0.79273 0.83005 0.85171 0.0
C507 C 0.81061 0.86564 0.83437 0.0
N508 N 0.85264 0.90522 0.7918 0.0
N509 N 0.79946 0.77589 0.87239 0.0
C510 C 0.83937 0.87287 0.81082 0.0
C511 C 0.8114 0.80704 0.85221 0.0
N512 N 0.88335 0.8525 0.78712 0.0
N513 N 0.75939 0.82001 0.8689 0.0
H514 H 0.81273 0.7585 0.87212 0.0
H515 H 0.77716 0.76749 0.88929 0.0
H516 H 0.746 0.83727 0.86849 0.0
H517 H 0.74367 0.79383 0.88148 0.0
H518 H 0.89183 0.87209 0.76814 0.0
H519 H 0.8955 0.83412 0.78661 0.0
H520 H 0.87607 0.9146 0.77588 0.0
H521 H 0.83978 0.92296 0.79234 0.0
C522 C 0.63708 0.41523 0.497 0.0
C523 C 0.65993 0.43996 0.47161 0.0
C524 C 0.60008 0.42499 0.44281 0.0
C525 C 0.57833 0.39373 0.46427 0.0
N526 N 0.57372 0.36104 0.51387 0.0
N527 N 0.6644 0.47247 0.42202 0.0
C528 C 0.5959 0.39016 0.49258 0.0
C529 C 0.64167 0.4468 0.44533 0.0
N530 N 0.65514 0.41499 0.52468 0.0
N531 N 0.58062 0.4329 0.41976 0.0
H532 H 0.69485 0.49003 0.42419 0.0
H533 H 0.65348 0.47561 0.40034 0.0
H534 H 0.55 0.41706 0.418 0.0
H535 H 0.59409 0.45688 0.40443 0.0
H536 H 0.64017 0.39969 0.54508 0.0
H537 H 0.68533 0.43298 0.52805 0.0
H538 H 0.58524 0.35367 0.53318 0.0
H539 H 0.54334 0.34325 0.51163 0.0
C540 C 0.49526 0.20942 0.51126 0.0
C541 C 0.46199 0.19444 0.49127 0.0
C542 C 0.46643 0.13545 0.48103 0.0
C543 C 0.50558 0.15633 0.49201 0.0
N544 N 0.55494 0.20825 0.52418 0.0
N545 N 0.40929 0.13956 0.46445 0.0
C546 C 0.51864 0.19108 0.51047 0.0
C547 C 0.44467 0.15543 0.47951 0.0
N548 N 0.50556 0.24268 0.52879 0.0
N549 N 0.452 0.09794 0.4698 0.0
H550 H 0.39356 0.15456 0.46381 0.0
H551 H 0.39576 0.11234 0.4529 0.0
H552 H 0.46878 0.08406 0.47065 0.0
H553 H 0.42341 0.08014 0.46167 0.0
H554 H 0.52881 0.25497 0.54486 0.0
H555 H 0.48837 0.25614 0.5287 0.0
H556 H 0.56846 0.23588 0.53509 0.0
H557 H 0.5717 0.19436 0.52423 0.0
C558 C 0.74655 0.31519 0.50516 0.0
C559 C 0.74244 0.3363 0.47948 0.0
C560 C 0.70324 0.27492 0.45028 0.0
C561 C 0.70008 0.2536 0.47828 0.0
N562 N 0.72048 0.25181 0.53185 0.0
N563 N 0.71402 0.33606 0.42823 0.0
C564 C 0.72277 0.27319 0.50556 0.0
C565 C 0.72019 0.31614 0.4521 0.0
N566 N 0.77283 0.33527 0.52894 0.0
N567 N 0.68975 0.2553 0.4219 0.0
H568 H 0.72715 0.36667 0.42757 0.0
H569 H 0.69351 0.32189 0.41012 0.0
H570 H 0.67867 0.225 0.41993 0.0
H571 H 0.69363 0.26939 0.40006 0.0
H572 H 0.77969 0.32159 0.54694 0.0
H573 H 0.78983 0.36597 0.52929 0.0
H574 H 0.73343 0.26436 0.55368 0.0
H575 H 0.70436 0.22106 0.53178 0.0
C576 C 0.70233 0.27289 0.19995 0.0
C577 C 0.70422 0.25737 0.16968 0.0
C578 C 0.7403 0.3243 0.14789 0.0
C579 C 0.73907 0.3397 0.17866 0.0
N580 N 0.7332 0.32881 0.2356 0.0
N581 N 0.73276 0.2678 0.11715 0.0
C582 C 0.72454 0.31396 0.2052 0.0
C583 C 0.72593 0.28297 0.14437 0.0
N584 N 0.67846 0.24863 0.22359 0.0
N585 N 0.75293 0.34827 0.1218 0.0
H586 H 0.7218 0.23763 0.11393 0.0
H587 H 0.75186 0.28519 0.09914 0.0
H588 H 0.76334 0.37842 0.12295 0.0
H589 H 0.75061 0.33779 0.09849 0.0
H590 H 0.67255 0.25927 0.2446 0.0
H591 H 0.66198 0.21805 0.22126 0.0
H592 H 0.72581 0.31109 0.25581 0.0
H593 H 0.75214 0.35868 0.24026 0.0
C594 C 0.62136 0.43651 0.14611 0.0
C595 C 0.64575 0.42123 0.15529 0.0
C596 C 0.59183 0.36879 0.18429 0.0
C597 C 0.56613 0.38238 0.17451 0.0
N598 N 0.5548 0.42509 0.14056 0.0
N599 N 0.64732 0.36241 0.16828 0.0
C600 C 0.58019 0.41464 0.1531 0.0
C601 C 0.62847 0.38362 0.16903 0.0
N602 N 0.63811 0.47269 0.13217 0.0
N603 N 0.58287 0.34347 0.20923 0.0
H604 H 0.67267 0.37127 0.15464 0.0
H605 H 0.63472 0.3339 0.17738 0.0
H606 H 0.55572 0.3292 0.2207 0.0
H607 H 0.6038 0.33792 0.21936 0.0
H608 H 0.62303 0.48773 0.12789 0.0
H609 H 0.66788 0.48795 0.12595 0.0
H610 H 0.56292 0.44646 0.12298 0.0
H611 H 0.52495 0.41042 0.14635 0.0
C612 C 0.47339 0.17211 0.1629 0.0
C613 C 0.49277 0.20769 0.18131 0.0
C614 C 0.53246 0.185 0.20543 0.0
C615 C 0.52195 0.15478 0.18272 0.0
N616 N 0.48063 0.11989 0.1372 0.0
N617 N 0.55648 0.25359 0.20241 0.0
C618 C 0.49166 0.14803 0.16041 0.0
C619 C 0.52745 0.21602 0.19703 0.0
N620 N 0.43832 0.16093 0.14857 0.0
N621 N 0.549 0.18536 0.23399 0.0
H622 H 0.55552 0.27642 0.19078 0.0
H623 H 0.58279 0.26022 0.21357 0.0
H624 H 0.54977 0.16061 0.24203 0.0
H625 H 0.55732 0.20843 0.2504 0.0
H626 H 0.42175 0.13362 0.1374 0.0
H627 H 0.4248 0.17795 0.14947 0.0
H628 H 0.4618 0.117 0.11866 0.0
H629 H 0.49131 0.10042 0.1359 0.0
C630 C 0.26662 0.71064 0.77395 0.0
C631 C 0.24143 0.71708 0.7941 0.0
C632 C 0.29975 0.76549 0.82395 0.0
C633 C 0.32407 0.76296 0.79957 0.0
N634 N 0.32672 0.74466 0.74457 0.0
N635 N 0.23425 0.7538 0.83764 0.0
C636 C 0.30614 0.73948 0.77227 0.0
C637 C 0.25795 0.74553 0.8191 0.0
N638 N 0.25319 0.67631 0.75718 0.0
N639 N 0.31586 0.78538 0.85172 0.0
H640 H 0.20381 0.73902 0.83485 0.0
H641 H 0.24508 0.77678 0.85427 0.0
H642 H 0.34598 0.80036 0.85594 0.0
H643 H 0.29903 0.78485 0.87128 0.0
H644 H 0.27176 0.67022 0.74334 0.0
H645 H 0.22515 0.65235 0.76097 0.0
H646 H 0.31348 0.72857 0.72384 0.0
H647 H 0.35527 0.76818 0.7415 0.0
C648 C 0.1421 0.47849 0.8104 0.0
C649 C 0.18178 0.49923 0.82006 0.0
C650 C 0.17426 0.55443 0.83795 0.0
C651 C 0.13932 0.53849 0.81988 0.0
N652 N 0.0849 0.48292 0.79485 0.0
N653 N 0.23391 0.55245 0.84919 0.0
C654 C 0.12093 0.49904 0.80892 0.0
C655 C 0.19682 0.53527 0.83695 0.0
N656 N 0.12617 0.44013 0.80088 0.0
N657 N 0.18642 0.58889 0.85429 0.0
H658 H 0.25011 0.53795 0.84907 0.0
H659 H 0.24866 0.58068 0.85899 0.0
H660 H 0.16972 0.60289 0.85463 0.0
H661 H 0.21089 0.60185 0.86912 0.0
H662 H 0.09691 0.42226 0.79438 0.0
H663 H 0.14232 0.42559 0.80182 0.0
H664 H 0.071 0.45554 0.78354 0.0
H665 H 0.06903 0.49776 0.79447 0.0
C666 C 0.40463 0.65653 0.78199 0.0
C667 C 0.41699 0.67047 0.81351 0.0
C668 C 0.39159 0.60249 0.83172 0.0
C669 C 0.37796 0.58897 0.80003 0.0
N670 N 0.39135 0.60478 0.74411 0.0
N671 N 0.43166 0.6588 0.86654 0.0
C672 C 0.39129 0.6167 0.77489 0.0
C673 C 0.41354 0.64407 0.8379 0.0
N674 N 0.40405 0.68077 0.75893 0.0
N675 N 0.38358 0.57625 0.85578 0.0
H676 H 0.44717 0.68898 0.8715 0.0
H677 H 0.43381 0.64163 0.88436 0.0
H678 H 0.37345 0.54649 0.85174 0.0
H679 H 0.38778 0.58414 0.87986 0.0
H680 H 0.39088 0.67029 0.73672 0.0
H681 H 0.41332 0.71046 0.7628 0.0
H682 H 0.40308 0.62441 0.72509 0.0
H683 H 0.38403 0.57588 0.73852 0.0
C684 C 0.38834 0.6593 0.47849 0.0
C685 C 0.41738 0.6782 0.50223 0.0
C686 C 0.40747 0.61461 0.51942 0.0
C687 C 0.37142 0.59647 0.50279 0.0
N688 N 0.3296 0.59886 0.46245 0.0
N689 N 0.46102 0.6759 0.54064 0.0
C690 C 0.36311 0.61785 0.48017 0.0
C691 C 0.42981 0.65637 0.52054 0.0
N692 N 0.38413 0.68138 0.45554 0.0
N693 N 0.41868 0.59162 0.53535 0.0
H694 H 0.478 0.70663 0.54072 0.0
H695 H 0.46965 0.66212 0.55723 0.0
H696 H 0.40193 0.56089 0.53455 0.0
H697 H 0.44544 0.60254 0.54705 0.0
H698 H 0.36474 0.66942 0.43645 0.0
H699 H 0.4027 0.71186 0.45448 0.0
H700 H 0.31927 0.61324 0.44807 0.0
H701 H 0.31158 0.56826 0.463 0.0
C702 C 0.25074 0.69556 0.4813 0.0
C703 C 0.2308 0.71604 0.48957 0.0
C704 C 0.29316 0.77808 0.49043 0.0
C705 C 0.31248 0.75597 0.49186 0.0
N706 N 0.31215 0.69507 0.48368 0.0
N707 N 0.23056 0.77679 0.4942 0.0
C708 C 0.29214 0.71524 0.48435 0.0
C709 C 0.25131 0.75764 0.49074 0.0
N710 N 0.22947 0.65662 0.47311 0.0
N711 N 0.31513 0.81818 0.49038 0.0
H712 H 0.19986 0.76144 0.49372 0.0
H713 H 0.24335 0.80709 0.49747 0.0
H714 H 0.34582 0.8326 0.49026 0.0
H715 H 0.3034 0.83668 0.48816 0.0
H716 H 0.24185 0.6398 0.4657 0.0
H717 H 0.19891 0.64212 0.47136 0.0
H718 H 0.29886 0.66452 0.48233 0.0
H719 H 0.34268 0.7095 0.48553 0.0
C720 C 0.17584 0.50058 0.47795 0.0
C721 C 0.16855 0.47494 0.5039 0.0
C722 C 0.11946 0.48997 0.52514 0.0
C723 C 0.13564 0.5234 0.50517 0.0
N724 N 0.17081 0.55594 0.45755 0.0
N725 N 0.12592 0.43567 0.54608 0.0
C726 C 0.16041 0.52659 0.47929 0.0
C727 C 0.1367 0.46561 0.52484 0.0
N728 N 0.19888 0.50101 0.45323 0.0
N729 N 0.08943 0.48348 0.54542 0.0
H730 H 0.13868 0.41782 0.54532 0.0
H731 H 0.10479 0.42832 0.56387 0.0
H732 H 0.07684 0.50147 0.54535 0.0
H733 H 0.07567 0.45965 0.56083 0.0
H734 H 0.20481 0.51817 0.43288 0.0
H735 H 0.20943 0.48132 0.45219 0.0
H736 H 0.1917 0.56273 0.43963 0.0
H737 H 0.15788 0.57361 0.45776 0.0
C738 C 0.13403 0.1897 -0.00281 0.0
C739 C 0.13978 0.1643 0.01738 0.0
C740 C 0.14799 0.13043 0.97114 0.0
C741 C 0.14262 0.15605 0.95085 0.0
N742 N 0.14206 0.21681 0.94405 0.0
N743 N 0.16471 0.11972 0.0242 0.0
C744 C 0.13954 0.18804 0.96379 0.0
C745 C 0.1511 0.13782 0.00447 0.0
N746 N 0.12091 0.21347 0.00951 0.0
N747 N 0.14722 0.0975 0.9591 0.0
H748 H 0.16819 0.12531 0.04876 0.0
H749 H 0.17644 0.10264 0.0158 0.0
H750 H 0.14421 0.09033 0.93486 0.0
H751 H 0.14624 0.07548 0.97352 0.0
H752 H 0.11162 0.22896 -0.00465 0.0
H753 H 0.11671 0.21566 0.03391 0.0
H754 H 0.14338 0.24257 0.9524 0.0
H755 H 0.14688 0.21677 0.91947 0.0
C756 C 0.77639 0.00112 0.97584 0.0
C757 C 0.75248 -0.03262 0.95693 0.0
C758 C 0.72915 0.92675 0.00496 0.0
C759 C 0.75116 0.96093 0.02406 0.0
N760 N 0.78448 0.03217 0.02746 0.0
N761 N 0.69693 0.90144 0.95441 0.0
C762 C 0.77113 -0.00134 0.00944 0.0
C763 C 0.72576 0.93132 0.97186 0.0
N764 N 0.80581 0.03468 0.96233 0.0
N765 N 0.71384 0.88984 0.01751 0.0
H766 H 0.69328 0.90442 0.93024 0.0
H767 H 0.67431 0.87591 0.96465 0.0
H768 H 0.71753 0.88437 0.04114 0.0
H769 H 0.70102 0.86437 0.00345 0.0
H770 H 0.82659 0.05831 0.97588 0.0
H771 H 0.81201 0.03764 0.93794 0.0
H772 H 0.79634 0.0601 0.01742 0.0
H773 H 0.77946 0.03173 0.05199 0.0
C774 C 0.90999 0.7356 0.98025 0.0
C775 C 0.94106 0.76231 0.96035 0.0
C776 C -0.01885 0.79655 0.00702 0.0
C777 C -0.0496 0.76933 0.02704 0.0
N778 N 0.89069 0.70679 0.03292 0.0
N779 N 0.00998 0.80972 0.95406 0.0
C780 C 0.91648 0.73675 0.01365 0.0
C781 C -0.02204 0.78993 0.97357 0.0
N782 N 0.87374 0.71087 0.96767 0.0
N783 N 0.01191 0.83014 0.01943 0.0
H784 H 0.00879 0.80489 0.92941 0.0
H785 H 0.03838 0.82758 0.96269 0.0
H786 H 0.01512 0.83704 0.04372 0.0
H787 H 0.03254 0.85298 0.00527 0.0
H788 H 0.84884 0.69423 0.98167 0.0
H789 H 0.86785 0.70908 0.94328 0.0
H790 H 0.86723 0.68071 0.02416 0.0
H791 H 0.89515 0.70631 0.05744 0.0
C792 C 0.8252 0.51774 0.30668 0.0
C793 C 0.79845 0.48386 0.28904 0.0
C794 C 0.76223 0.45199 0.33776 0.0
C795 C 0.79069 0.48426 0.35576 0.0
N796 N 0.85117 0.54643 0.35886 0.0
N797 N 0.74561 0.41627 0.28764 0.0
C798 C 0.82272 0.51694 0.34066 0.0
C799 C 0.76822 0.45022 0.30457 0.0
N800 N 0.85249 0.55062 0.29088 0.0
N801 N 0.72875 0.42367 0.35232 0.0
H802 H 0.7487 0.41388 0.26311 0.0
H803 H 0.72617 0.38948 0.29827 0.0
H804 H 0.72311 0.42432 0.37667 0.0
H805 H 0.7049 0.40167 0.33987 0.0
H806 H 0.87007 0.57775 0.30195 0.0
H807 H 0.85629 0.5512 0.26614 0.0
H808 H 0.87739 0.56904 0.3496 0.0
H809 H 0.84944 0.54714 0.38374 0.0
C810 C 0.44773 0.33322 0.30575 0.0
C811 C 0.4129 0.30815 0.28847 0.0
C812 C 0.38043 0.27312 0.33757 0.0
C813 C 0.41521 0.29798 0.35476 0.0
N814 N 0.47754 0.35864 0.35737 0.0
N815 N 0.34332 0.26353 0.28904 0.0
C816 C 0.44756 0.33019 0.33951 0.0
C817 C 0.37829 0.28108 0.30488 0.0
N818 N 0.48152 0.35867 0.29001 0.0
N819 N 0.35026 0.2409 0.35198 0.0
H820 H 0.34122 0.27109 0.26561 0.0
H821 H 0.31632 0.24552 0.30004 0.0
H822 H 0.35096 0.23389 0.37586 0.0
H823 H 0.32596 0.21939 0.33961 0.0
H824 H 0.50902 0.37284 0.30085 0.0
H825 H 0.48246 0.36455 0.26576 0.0
H826 H 0.49985 0.38485 0.3478 0.0
H827 H 0.47821 0.35805 0.38227 0.0
C828 C 0.60094 0.07764 0.33832 0.0
C829 C 0.61091 0.11327 0.35473 0.0
C830 C 0.61313 0.1454 0.30434 0.0
C831 C 0.60544 0.11066 0.28768 0.0
N832 N 0.59553 0.04485 0.28738 0.0
N833 N 0.6347 0.18308 0.3534 0.0
C834 C 0.60008 0.07691 0.30426 0.0
C835 C 0.61918 0.14769 0.33774 0.0
N836 N 0.59195 0.04458 0.35536 0.0
N837 N 0.61398 0.17603 0.28823 0.0
H838 H 0.64087 0.18605 0.37774 0.0
H839 H 0.64526 0.20999 0.34191 0.0
H840 H 0.61096 0.17603 0.26351 0.0
H841 H 0.6145 0.20007 0.29953 0.0
H842 H 0.58008 0.01654 0.34534 0.0
H843 H 0.59512 0.04506 0.3801 0.0
H844 H 0.59562 0.02083 0.29767 0.0
H845 H 0.59367 0.04313 0.26249 0.0
C846 C 0.44299 0.77825 0.64208 0.0
C847 C 0.46911 0.81406 0.62677 0.0
C848 C 0.4896 0.84734 0.6787 0.0
C849 C 0.4596 0.81266 0.69344 0.0
N850 N 0.40344 0.74717 0.68888 0.0
N851 N 0.51707 0.88317 0.62926 0.0
C852 C 0.4351 0.77865 0.67505 0.0
C853 C 0.49256 0.84882 0.64474 0.0
N854 N 0.42672 0.74365 0.62523 0.0
N855 N 0.51585 0.87816 0.69716 0.0
H856 H 0.52128 0.88447 0.60453 0.0
H857 H 0.53192 0.91051 0.6406 0.0
H858 H 0.51392 0.87825 0.72203 0.0
H859 H 0.54089 0.9025 0.68811 0.0
H860 H 0.40999 0.71611 0.63574 0.0
H861 H 0.43367 0.74227 0.60131 0.0
H862 H 0.38203 0.72347 0.67582 0.0
H863 H 0.3965 0.74637 0.71308 0.0
C864 C 0.11309 0.66848 0.64394 0.0
C865 C 0.08348 0.64044 0.62362 0.0
C866 C 0.04459 0.60288 0.66989 0.0
C867 C 0.07452 0.63064 0.69013 0.0
N868 N 0.13033 0.69584 0.69737 0.0
N869 N 0.01695 0.58763 0.61648 0.0
C870 C 0.10651 0.66549 0.67739 0.0
C871 C 0.04774 0.60986 0.63644 0.0
N872 N 0.14842 0.69632 0.63157 0.0
N873 N 0.0146 0.56887 0.68231 0.0
H874 H 0.01854 0.5925 0.59188 0.0
H875 H -0.01104 0.56712 0.62454 0.0
H876 H 0.01123 0.56304 0.70676 0.0
H877 H -0.00553 0.54541 0.66831 0.0
H878 H 0.17279 0.71417 0.64565 0.0
H879 H 0.15435 0.69984 0.60712 0.0
H880 H 0.15208 0.72329 0.68925 0.0
H881 H 0.1256 0.69498 0.72201 0.0
C882 C 0.24321 0.41317 0.64246 0.0
C883 C 0.27802 0.43731 0.6248 0.0
C884 C 0.3144 0.46302 0.67467 0.0
C885 C 0.2805 0.43616 0.69211 0.0
N886 N 0.21678 0.37727 0.6914 0.0
N887 N 0.34922 0.47461 0.62462 0.0
C888 C 0.24627 0.40842 0.67557 0.0
C889 C 0.31447 0.45886 0.64104 0.0
N890 N 0.20698 0.397 0.62862 0.0
N891 N 0.34552 0.49401 0.6895 0.0
H892 H 0.35078 0.46995 0.6002 0.0
H893 H 0.37643 0.48801 0.63598 0.0
H894 H 0.34618 0.49995 0.71387 0.0
H895 H 0.36893 0.51635 0.67686 0.0
H896 H 0.18095 0.38223 0.64173 0.0
H897 H 0.20247 0.40211 0.60509 0.0
H898 H 0.19273 0.3543 0.67981 0.0
H899 H 0.21895 0.37227 0.71546 0.0
loop_
_geom_bond_atom_site_label_1
_geom_bond_atom_site_label_2
_geom_bond_distance
_geom_bond_site_symmetry_2
_ccdc_geom_bond_type
C0 O1 1.306 . S
C0 O3 1.160 . S
O1 C0 1.306 . S
O1 Cd2 2.228 . S
Cd2 O1 2.228 . S
Cd2 O6 2.273 . S
Cd2 O10 2.277 . S
O3 C0 1.160 . S
O3 Cd4 2.203 . S
Cd4 O3 2.203 . S
Cd4 O6 2.411 . S
Cd4 O7 2.333 . S
Cd4 O8 2.352 . S
Cd4 O12 2.277 . S
Cd4 O13 2.356 . S
C5 O10 1.209 . S
C5 O12 1.226 . S
O6 Cd2 2.273 . S
O6 Cd4 2.411 . S
O6 C9 1.320 . S
O7 Cd4 2.333 . S
O7 C9 1.214 . S
O8 Cd4 2.352 . S
O8 C11 1.258 . S
C9 O6 1.320 . S
C9 O7 1.214 . S
O10 Cd2 2.277 . S
O10 C5 1.209 . S
C11 O8 1.258 . S
C11 O13 1.282 . S
O12 Cd4 2.277 . S
O12 C5 1.226 . S
O13 Cd4 2.356 . S
O13 C11 1.282 . S
C14 O15 1.306 . S
C14 O17 1.160 . S
O15 C14 1.306 . S
O15 Cd16 2.228 . S
Cd16 O15 2.228 . S
Cd16 O20 2.273 . S
Cd16 O24 2.277 1_545 S
O17 C14 1.160 . S
O17 Cd18 2.203 1_545 S
Cd18 O17 2.203 1_565 S
Cd18 O20 2.411 1_565 S
Cd18 O21 2.333 . S
Cd18 O22 2.348 1_565 S
Cd18 O26 2.280 . S
Cd18 O27 2.355 . S
C19 O24 1.209 . S
C19 O26 1.226 . S
O20 Cd16 2.273 . S
O20 Cd18 2.411 1_545 S
O20 C23 1.320 1_545 S
O21 Cd18 2.333 . S
O21 C23 1.214 . S
O22 Cd18 2.348 1_545 S
O22 C25 1.258 . S
C23 O20 1.320 1_565 S
C23 O21 1.214 . S
O24 Cd16 2.277 1_565 S
O24 C19 1.209 . S
C25 O22 1.258 . S
C25 O27 1.282 1_545 S
O26 Cd18 2.280 . S
O26 C19 1.226 . S
O27 Cd18 2.355 . S
O27 C25 1.282 1_565 S
C28 O29 1.306 . S
C28 O31 1.160 . S
O29 C28 1.306 . S
O29 Cd30 2.228 . S
Cd30 O29 2.228 . S
Cd30 O34 2.273 . S
Cd30 O38 2.277 1_655 S
O31 C28 1.160 . S
O31 Cd32 2.207 . S
Cd32 O31 2.207 . S
Cd32 O34 2.412 . S
Cd32 O35 2.330 1_655 S
Cd32 O36 2.353 . S
Cd32 O40 2.274 1_655 S
Cd32 O41 2.354 1_655 S
C33 O38 1.209 . S
C33 O40 1.226 . S
O34 Cd30 2.273 . S
O34 Cd32 2.412 . S
O34 C37 1.320 1_655 S
O35 Cd32 2.330 1_455 S
O35 C37 1.214 . S
O36 Cd32 2.353 . S
O36 C39 1.258 . S
C37 O34 1.320 1_455 S
C37 O35 1.214 . S
O38 Cd30 2.277 1_455 S
O38 C33 1.209 . S
C39 O36 1.258 . S
C39 O41 1.282 1_655 S
O40 Cd32 2.274 1_455 S
O40 C33 1.226 . S
O41 Cd32 2.354 1_455 S
O41 C39 1.282 1_455 S
C42 O43 1.306 . S
C42 O45 1.160 . S
O43 C42 1.306 . S
O43 Cd44 2.228 . S
Cd44 O43 2.228 . S
Cd44 O48 2.273 . S
Cd44 O52 2.277 . S
O45 C42 1.160 . S
O45 Cd46 2.203 . S
Cd46 O45 2.203 . S
Cd46 O48 2.411 . S
Cd46 O49 2.333 . S
Cd46 O50 2.352 . S
Cd46 O54 2.277 . S
Cd46 O55 2.356 . S
C47 O52 1.209 . S
C47 O54 1.226 . S
O48 Cd44 2.273 . S
O48 Cd46 2.411 . S
O48 C51 1.320 . S
O49 Cd46 2.333 . S
O49 C51 1.214 . S
O50 Cd46 2.352 . S
O50 C53 1.258 . S
C51 O48 1.320 . S
C51 O49 1.214 . S
O52 Cd44 2.277 . S
O52 C47 1.209 . S
C53 O50 1.258 . S
C53 O55 1.282 . S
O54 Cd46 2.277 . S
O54 C47 1.226 . S
O55 Cd46 2.356 . S
O55 C53 1.282 . S
C56 O57 1.306 . S
C56 O59 1.160 . S
O57 C56 1.306 . S
O57 Cd58 2.228 . S
Cd58 O57 2.228 . S
Cd58 O62 2.273 . S
Cd58 O66 2.277 1_565 S
O59 C56 1.160 . S
O59 Cd60 2.210 . S
Cd60 O59 2.210 . S
Cd60 O62 2.413 . S
Cd60 O63 2.328 1_565 S
Cd60 O64 2.354 . S
Cd60 O68 2.272 1_565 S
Cd60 O69 2.352 1_565 S
C61 O66 1.209 . S
C61 O68 1.226 . S
O62 Cd58 2.273 . S
O62 Cd60 2.413 . S
O62 C65 1.320 1_565 S
O63 Cd60 2.328 1_545 S
O63 C65 1.214 . S
O64 Cd60 2.354 . S
O64 C67 1.258 . S
C65 O62 1.320 1_545 S
C65 O63 1.214 . S
O66 Cd58 2.277 1_545 S
O66 C61 1.209 . S
C67 O64 1.258 . S
C67 O69 1.282 1_565 S
O68 Cd60 2.272 1_545 S
O68 C61 1.226 . S
O69 Cd60 2.352 1_545 S
O69 C67 1.282 1_545 S
C70 O71 1.306 . S
C70 O73 1.160 . S
O71 C70 1.306 . S
O71 Cd72 2.228 . S
Cd72 O71 2.228 . S
Cd72 O76 2.273 . S
Cd72 O80 2.277 1_455 S
O73 C70 1.160 . S
O73 Cd74 2.203 1_455 S
Cd74 O73 2.203 1_655 S
Cd74 O76 2.411 1_655 S
Cd74 O77 2.333 . S
Cd74 O78 2.350 1_655 S
Cd74 O82 2.278 . S
Cd74 O83 2.356 . S
C75 O80 1.209 . S
C75 O82 1.226 . S
O76 Cd72 2.273 . S
O76 Cd74 2.411 1_455 S
O76 C79 1.320 1_455 S
O77 Cd74 2.333 . S
O77 C79 1.214 . S
O78 Cd74 2.350 1_455 S
O78 C81 1.258 . S
C79 O76 1.320 1_655 S
C79 O77 1.214 . S
O80 Cd72 2.277 1_655 S
O80 C75 1.209 . S
C81 O78 1.258 . S
C81 O83 1.282 1_455 S
O82 Cd74 2.278 . S
O82 C75 1.226 . S
O83 Cd74 2.356 . S
O83 C81 1.282 1_655 S
C84 O85 1.306 . S
C84 O87 1.160 . S
O85 C84 1.306 . S
O85 Cd86 2.228 . S
Cd86 O85 2.228 . S
Cd86 O90 2.273 . S
Cd86 O94 2.277 . S
O87 C84 1.160 . S
O87 Cd88 2.203 . S
Cd88 O87 2.203 . S
Cd88 O90 2.411 . S
Cd88 O91 2.333 . S
Cd88 O92 2.352 . S
Cd88 O96 2.277 . S
Cd88 O97 2.356 . S
C89 O94 1.209 . S
C89 O96 1.226 . S
O90 Cd86 2.273 . S
O90 Cd88 2.411 . S
O90 C93 1.320 . S
O91 Cd88 2.333 . S
O91 C93 1.214 . S
O92 Cd88 2.352 . S
O92 C95 1.258 . S
C93 O90 1.320 . S
C93 O91 1.214 . S
O94 Cd86 2.277 . S
O94 C89 1.209 . S
C95 O92 1.258 . S
C95 O97 1.282 . S
O96 Cd88 2.277 . S
O96 C89 1.226 . S
O97 Cd88 2.356 . S
O97 C95 1.282 . S
C98 O99 1.306 . S
C98 O101 1.160 . S
O99 C98 1.306 . S
O99 Cd100 2.228 . S
Cd100 O99 2.228 . S
Cd100 O104 2.273 . S
Cd100 O108 2.277 . S
O101 C98 1.160 . S
O101 Cd102 2.203 . S
Cd102 O101 2.203 . S
Cd102 O104 2.411 . S
Cd102 O105 2.333 . S
Cd102 O106 2.352 . S
Cd102 O110 2.277 . S
Cd102 O111 2.356 . S
C103 O108 1.209 . S
C103 O110 1.226 . S
O104 Cd100 2.273 . S
O104 Cd102 2.411 . S
O104 C107 1.320 . S
O105 Cd102 2.333 . S
O105 C107 1.214 . S
O106 Cd102 2.352 . S
O106 C109 1.258 . S
C107 O104 1.320 . S
C107 O105 1.214 . S
O108 Cd100 2.277 . S
O108 C103 1.209 . S
C109 O106 1.258 . S
C109 O111 1.282 . S
O110 Cd102 2.277 . S
O110 C103 1.226 . S
O111 Cd102 2.356 . S
O111 C109 1.282 . S
C112 O113 1.306 . S
C112 O115 1.160 . S
O113 C112 1.306 . S
O113 Cd114 2.228 . S
Cd114 O113 2.228 . S
Cd114 O118 2.273 . S
Cd114 O122 2.277 . S
O115 C112 1.160 . S
O115 Cd116 2.203 . S
Cd116 O115 2.203 . S
Cd116 O118 2.411 . S
Cd116 O119 2.333 . S
Cd116 O120 2.352 . S
Cd116 O124 2.277 . S
Cd116 O125 2.356 . S
C117 O122 1.209 . S
C117 O124 1.226 . S
O118 Cd114 2.273 . S
O118 Cd116 2.411 . S
O118 C121 1.320 . S
O119 Cd116 2.333 . S
O119 C121 1.214 . S
O120 Cd116 2.352 . S
O120 C123 1.258 . S
C121 O118 1.320 . S
C121 O119 1.214 . S
O122 Cd114 2.277 . S
O122 C117 1.209 . S
C123 O120 1.258 . S
C123 O125 1.282 . S
O124 Cd116 2.277 . S
O124 C117 1.226 . S
O125 Cd116 2.356 . S
O125 C123 1.282 . S
C126 O127 1.306 . S
C126 O129 1.160 . S
O127 C126 1.306 . S
O127 Cd128 2.228 . S
Cd128 O127 2.228 . S
Cd128 O132 2.273 . S
Cd128 O136 2.277 . S
O129 C126 1.160 . S
O129 Cd130 2.203 . S
Cd130 O129 2.203 . S
Cd130 O132 2.411 . S
Cd130 O133 2.333 . S
Cd130 O134 2.352 . S
Cd130 O138 2.277 . S
Cd130 O139 2.356 . S
C131 O136 1.209 . S
C131 O138 1.226 . S
O132 Cd128 2.273 . S
O132 Cd130 2.411 . S
O132 C135 1.320 . S
O133 Cd130 2.333 . S
O133 C135 1.214 . S
O134 Cd130 2.352 . S
O134 C137 1.258 . S
C135 O132 1.320 . S
C135 O133 1.214 . S
O136 Cd128 2.277 . S
O136 C131 1.209 . S
C137 O134 1.258 . S
C137 O139 1.282 . S
O138 Cd130 2.277 . S
O138 C131 1.226 . S
O139 Cd130 2.356 . S
O139 C137 1.282 . S
C140 O141 1.306 . S
C140 O143 1.160 . S
O141 C140 1.306 . S
O141 Cd142 2.228 . S
Cd142 O141 2.228 . S
Cd142 O146 2.273 . S
Cd142 O150 2.277 . S
O143 C140 1.160 . S
O143 Cd144 2.203 . S
Cd144 O143 2.203 . S
Cd144 O146 2.411 . S
Cd144 O147 2.333 . S
Cd144 O148 2.352 . S
Cd144 O152 2.277 . S
Cd144 O153 2.356 . S
C145 O150 1.209 . S
C145 O152 1.226 . S
O146 Cd142 2.273 . S
O146 Cd144 2.411 . S
O146 C149 1.320 . S
O147 Cd144 2.333 . S
O147 C149 1.214 . S
O148 Cd144 2.352 . S
O148 C151 1.258 . S
C149 O146 1.320 . S
C149 O147 1.214 . S
O150 Cd142 2.277 . S
O150 C145 1.209 . S
C151 O148 1.258 . S
C151 O153 1.282 . S
O152 Cd144 2.277 . S
O152 C145 1.226 . S
O153 Cd144 2.356 . S
O153 C151 1.282 . S
C154 O155 1.306 . S
C154 O157 1.160 . S
O155 C154 1.306 . S
O155 Cd156 2.228 . S
Cd156 O155 2.228 . S
Cd156 O160 2.273 . S
Cd156 O164 2.277 . S
O157 C154 1.160 . S
O157 Cd158 2.203 . S
Cd158 O157 2.203 . S
Cd158 O160 2.411 . S
Cd158 O161 2.333 . S
Cd158 O162 2.352 . S
Cd158 O166 2.277 . S
Cd158 O167 2.356 . S
C159 O164 1.209 . S
C159 O166 1.226 . S
O160 Cd156 2.273 . S
O160 Cd158 2.411 . S
O160 C163 1.320 . S
O161 Cd158 2.333 . S
O161 C163 1.214 . S
O162 Cd158 2.352 . S
O162 C165 1.258 . S
C163 O160 1.320 . S
C163 O161 1.214 . S
O164 Cd156 2.277 . S
O164 C159 1.209 . S
C165 O162 1.258 . S
C165 O167 1.282 . S
O166 Cd158 2.277 . S
O166 C159 1.226 . S
O167 Cd158 2.356 . S
O167 C165 1.282 . S
C168 O169 1.306 . S
C168 O171 1.160 . S
O169 C168 1.306 . S
O169 Cd170 2.228 . S
Cd170 O169 2.228 . S
Cd170 O174 2.273 . S
Cd170 O178 2.277 . S
O171 C168 1.160 . S
O171 Cd172 2.203 . S
Cd172 O171 2.203 . S
Cd172 O174 2.411 . S
Cd172 O175 2.333 . S
Cd172 O176 2.352 . S
Cd172 O180 2.277 . S
Cd172 O181 2.356 . S
C173 O178 1.209 . S
C173 O180 1.226 . S
O174 Cd170 2.273 . S
O174 Cd172 2.411 . S
O174 C177 1.320 . S
O175 Cd172 2.333 . S
O175 C177 1.214 . S
O176 Cd172 2.352 . S
O176 C179 1.258 . S
C177 O174 1.320 . S
C177 O175 1.214 . S
O178 Cd170 2.277 . S
O178 C173 1.209 . S
C179 O176 1.258 . S
C179 O181 1.282 . S
O180 Cd172 2.277 . S
O180 C173 1.226 . S
O181 Cd172 2.356 . S
O181 C179 1.282 . S
C182 O183 1.306 . S
C182 O185 1.160 . S
O183 C182 1.306 . S
O183 Cd184 2.228 . S
Cd184 O183 2.228 . S
Cd184 O188 2.273 . S
Cd184 O192 2.277 . S
O185 C182 1.160 . S
O185 Cd186 2.203 . S
Cd186 O185 2.203 . S
Cd186 O188 2.411 . S
Cd186 O189 2.333 . S
Cd186 O190 2.352 . S
Cd186 O194 2.277 . S
Cd186 O195 2.356 . S
C187 O192 1.209 . S
C187 O194 1.226 . S
O188 Cd184 2.273 . S
O188 Cd186 2.411 . S
O188 C191 1.320 . S
O189 Cd186 2.333 . S
O189 C191 1.214 . S
O190 Cd186 2.352 . S
O190 C193 1.258 . S
C191 O188 1.320 . S
C191 O189 1.214 . S
O192 Cd184 2.277 . S
O192 C187 1.209 . S
C193 O190 1.258 . S
C193 O195 1.282 . S
O194 Cd186 2.277 . S
O194 C187 1.226 . S
O195 Cd186 2.356 . S
O195 C193 1.282 . S
C196 O197 1.306 . S
C196 O199 1.160 . S
O197 C196 1.306 . S
O197 Cd198 2.228 . S
Cd198 O197 2.228 . S
Cd198 O202 2.273 . S
Cd198 O206 2.277 . S
O199 C196 1.160 . S
O199 Cd200 2.203 . S
Cd200 O199 2.203 . S
Cd200 O202 2.411 . S
Cd200 O203 2.333 . S
Cd200 O204 2.352 . S
Cd200 O208 2.277 . S
Cd200 O209 2.356 . S
C201 O206 1.209 . S
C201 O208 1.226 . S
O202 Cd198 2.273 . S
O202 Cd200 2.411 . S
O202 C205 1.320 . S
O203 Cd200 2.333 . S
O203 C205 1.214 . S
O204 Cd200 2.352 . S
O204 C207 1.258 . S
C205 O202 1.320 . S
C205 O203 1.214 . S
O206 Cd198 2.277 . S
O206 C201 1.209 . S
C207 O204 1.258 . S
C207 O209 1.282 . S
O208 Cd200 2.277 . S
O208 C201 1.226 . S
O209 Cd200 2.356 . S
O209 C207 1.282 . S
C210 O211 1.306 . S
C210 O213 1.160 . S
O211 C210 1.306 . S
O211 Cd212 2.228 . S
Cd212 O211 2.228 . S
Cd212 O216 2.273 . S
Cd212 O220 2.277 . S
O213 C210 1.160 . S
O213 Cd214 2.203 . S
Cd214 O213 2.203 . S
Cd214 O216 2.411 . S
Cd214 O217 2.333 . S
Cd214 O218 2.352 . S
Cd214 O222 2.277 . S
Cd214 O223 2.356 . S
C215 O220 1.209 . S
C215 O222 1.226 . S
O216 Cd212 2.273 . S
O216 Cd214 2.411 . S
O216 C219 1.320 . S
O217 Cd214 2.333 . S
O217 C219 1.214 . S
O218 Cd214 2.352 . S
O218 C221 1.258 . S
C219 O216 1.320 . S
C219 O217 1.214 . S
O220 Cd212 2.277 . S
O220 C215 1.209 . S
C221 O218 1.258 . S
C221 O223 1.282 . S
O222 Cd214 2.277 . S
O222 C215 1.226 . S
O223 Cd214 2.356 . S
O223 C221 1.282 . S
C224 O225 1.306 . S
C224 O227 1.160 . S
O225 C224 1.306 . S
O225 Cd226 2.228 . S
Cd226 O225 2.228 . S
Cd226 O230 2.273 . S
Cd226 O234 2.277 . S
O227 C224 1.160 . S
O227 Cd228 2.203 . S
Cd228 O227 2.203 . S
Cd228 O230 2.411 . S
Cd228 O231 2.333 . S
Cd228 O232 2.352 . S
Cd228 O236 2.277 . S
Cd228 O237 2.356 . S
C229 O234 1.209 . S
C229 O236 1.226 . S
O230 Cd226 2.273 . S
O230 Cd228 2.411 . S
O230 C233 1.320 . S
O231 Cd228 2.333 . S
O231 C233 1.214 . S
O232 Cd228 2.352 . S
O232 C235 1.258 . S
C233 O230 1.320 . S
C233 O231 1.214 . S
O234 Cd226 2.277 . S
O234 C229 1.209 . S
C235 O232 1.258 . S
C235 O237 1.282 . S
O236 Cd228 2.277 . S
O236 C229 1.226 . S
O237 Cd228 2.356 . S
O237 C235 1.282 . S
C238 O239 1.306 . S
C238 O241 1.160 . S
O239 C238 1.306 . S
O239 Cd240 2.228 . S
Cd240 O239 2.228 . S
Cd240 O244 2.273 . S
Cd240 O248 2.277 . S
O241 C238 1.160 . S
O241 Cd242 2.203 . S
Cd242 O241 2.203 . S
Cd242 O244 2.411 . S
Cd242 O245 2.333 . S
Cd242 O246 2.352 . S
Cd242 O250 2.277 . S
Cd242 O251 2.356 . S
C243 O248 1.209 . S
C243 O250 1.226 . S
O244 Cd240 2.273 . S
O244 Cd242 2.411 . S
O244 C247 1.320 . S
O245 Cd242 2.333 . S
O245 C247 1.214 . S
O246 Cd242 2.352 . S
O246 C249 1.258 . S
C247 O244 1.320 . S
C247 O245 1.214 . S
O248 Cd240 2.277 . S
O248 C243 1.209 . S
C249 O246 1.258 . S
C249 O251 1.282 . S
O250 Cd242 2.277 . S
O250 C243 1.226 . S
O251 Cd242 2.356 . S
O251 C249 1.282 . S
C252 C253 1.363 . S
C252 C258 1.379 . S
C252 N260 1.356 . S
C253 C252 1.363 . S
C253 C259 1.363 . S
C254 C255 1.363 . S
C254 C259 1.379 . S
C254 N261 1.356 . S
C255 C254 1.363 . S
C255 C258 1.363 . S
N256 C258 1.356 . S
N256 H268 0.984 . S
N256 H269 0.985 . S
N257 C259 1.356 . S
N257 H262 0.984 . S
N257 H263 0.985 . S
C258 C252 1.379 . S
C258 C255 1.363 . S
C258 N256 1.356 . S
C259 C253 1.363 . S
C259 C254 1.379 . S
C259 N257 1.356 . S
N260 C252 1.356 . S
N260 H266 0.984 . S
N260 H267 0.984 . S
N261 C254 1.356 . S
N261 H264 0.984 . S
N261 H265 0.985 . S
H262 N257 0.984 . S
H263 N257 0.985 . S
H264 N261 0.984 . S
H265 N261 0.985 . S
H266 N260 0.984 . S
H267 N260 0.984 . S
H268 N256 0.984 . S
H269 N256 0.985 . S
C270 C271 1.363 . S
C270 C276 1.379 . S
C270 N278 1.356 . S
C271 C270 1.363 . S
C271 C277 1.363 . S
C272 C273 1.363 . S
C272 C277 1.379 . S
C272 N279 1.356 . S
C273 C272 1.363 . S
C273 C276 1.363 . S
N274 C276 1.356 . S
N274 H286 0.984 . S
N274 H287 0.985 . S
N275 C277 1.356 . S
N275 H280 0.984 . S
N275 H281 0.985 . S
C276 C270 1.379 . S
C276 C273 1.363 . S
C276 N274 1.356 . S
C277 C271 1.363 . S
C277 C272 1.379 . S
C277 N275 1.356 . S
N278 C270 1.356 . S
N278 H284 0.984 . S
N278 H285 0.984 . S
N279 C272 1.356 . S
N279 H282 0.984 . S
N279 H283 0.985 . S
H280 N275 0.984 . S
H281 N275 0.985 . S
H282 N279 0.984 . S
H283 N279 0.985 . S
H284 N278 0.984 . S
H285 N278 0.984 . S
H286 N274 0.984 . S
H287 N274 0.985 . S
C288 C289 1.363 . S
C288 C294 1.379 . S
C288 N296 1.356 . S
C289 C288 1.363 . S
C289 C295 1.363 . S
C290 C291 1.363 . S
C290 C295 1.379 . S
C290 N297 1.356 . S
C291 C290 1.363 . S
C291 C294 1.363 . S
N292 C294 1.356 . S
N292 H304 1.002 . S
N292 H305 0.985 . S
N293 C295 1.356 . S
N293 H298 0.984 . S
N293 H299 0.985 . S
C294 C288 1.379 . S
C294 C291 1.363 . S
C294 N292 1.356 . S
C295 C289 1.363 . S
C295 C290 1.379 . S
C295 N293 1.356 . S
N296 C288 1.356 . S
N296 H302 0.984 . S
N296 H303 0.984 . S
N297 C290 1.356 . S
N297 H300 0.984 . S
N297 H301 0.985 . S
H298 N293 0.984 . S
H299 N293 0.985 . S
H300 N297 0.984 . S
H301 N297 0.985 . S
H302 N296 0.984 . S
H303 N296 0.984 . S
H304 N292 1.002 . S
H305 N292 0.985 . S
C306 C307 1.363 . S
C306 C312 1.379 . S
C306 N314 1.356 . S
C307 C306 1.363 . S
C307 C313 1.363 . S
C308 C309 1.363 . S
C308 C313 1.379 . S
C308 N315 1.356 . S
C309 C308 1.363 . S
C309 C312 1.363 . S
N310 C312 1.356 . S
N310 H322 0.984 . S
N310 H323 0.985 . S
N311 C313 1.356 . S
N311 H316 0.984 . S
N311 H317 0.985 . S
C312 C306 1.379 . S
C312 C309 1.363 . S
C312 N310 1.356 . S
C313 C307 1.363 . S
C313 C308 1.379 . S
C313 N311 1.356 . S
N314 C306 1.356 . S
N314 H320 0.984 . S
N314 H321 0.984 . S
N315 C308 1.356 . S
N315 H318 0.984 . S
N315 H319 0.985 . S
H316 N311 0.984 . S
H317 N311 0.985 . S
H318 N315 0.984 . S
H319 N315 0.985 . S
H320 N314 0.984 . S
H321 N314 0.984 . S
H322 N310 0.984 . S
H323 N310 0.985 . S
C324 C325 1.363 . S
C324 C330 1.379 . S
C324 N332 1.356 . S
C325 C324 1.363 . S
C325 C331 1.363 . S
C326 C327 1.363 . S
C326 C331 1.379 . S
C326 N333 1.356 . S
C327 C326 1.363 . S
C327 C330 1.363 . S
N328 C330 1.356 . S
N328 H340 0.984 . S
N328 H341 0.985 . S
N329 C331 1.356 . S
N329 H334 0.984 . S
N329 H335 0.985 . S
C330 C324 1.379 . S
C330 C327 1.363 . S
C330 N328 1.356 . S
C331 C325 1.363 . S
C331 C326 1.379 . S
C331 N329 1.356 . S
N332 C324 1.356 . S
N332 H338 0.984 . S
N332 H339 0.984 . S
N333 C326 1.356 . S
N333 H336 0.984 . S
N333 H337 0.985 . S
H334 N329 0.984 . S
H335 N329 0.985 . S
H336 N333 0.984 . S
H337 N333 0.985 . S
H338 N332 0.984 . S
H339 N332 0.984 . S
H340 N328 0.984 . S
H341 N328 0.985 . S
C342 C343 1.363 . S
C342 C348 1.379 . S
C342 N350 1.356 . S
C343 C342 1.363 . S
C343 C349 1.363 . S
C344 C345 1.363 . S
C344 C349 1.379 . S
C344 N351 1.356 . S
C345 C344 1.363 . S
C345 C348 1.363 . S
N346 C348 1.356 . S
N346 H358 0.984 . S
N346 H359 0.985 . S
N347 C349 1.356 . S
N347 H352 0.984 . S
N347 H353 0.985 . S
C348 C342 1.379 . S
C348 C345 1.363 . S
C348 N346 1.356 . S
C349 C343 1.363 . S
C349 C344 1.379 . S
C349 N347 1.356 . S
N350 C342 1.356 . S
N350 H356 0.984 . S
N350 H357 0.984 . S
N351 C344 1.356 . S
N351 H354 0.984 . S
N351 H355 0.985 . S
H352 N347 0.984 . S
H353 N347 0.985 . S
H354 N351 0.984 . S
H355 N351 0.985 . S
H356 N350 0.984 . S
H357 N350 0.984 . S
H358 N346 0.984 . S
H359 N346 0.985 . S
C360 C361 1.363 . S
C360 C366 1.379 1_655 S
C360 N368 1.356 . S
C361 C360 1.363 . S
C361 C367 1.363 . S
C362 C363 1.363 . S
C362 C367 1.379 1_455 S
C362 N369 1.356 . S
C363 C362 1.363 . S
C363 C366 1.363 . S
N364 C366 1.356 . S
N364 H376 0.984 . S
N364 H377 0.985 . S
N365 C367 1.356 . S
N365 H370 0.984 . S
N365 H371 0.985 . S
C366 C360 1.379 1_455 S
C366 C363 1.363 . S
C366 N364 1.356 . S
C367 C361 1.363 . S
C367 C362 1.379 1_655 S
C367 N365 1.356 . S
N368 C360 1.356 . S
N368 H374 0.984 . S
N368 H375 0.984 . S
N369 C362 1.356 . S
N369 H372 0.984 . S
N369 H373 0.985 . S
H370 N365 0.984 . S
H371 N365 0.985 . S
H372 N369 0.984 . S
H373 N369 0.985 . S
H374 N368 0.984 . S
H375 N368 0.984 . S
H376 N364 0.984 . S
H377 N364 0.985 . S
C378 C379 1.363 . S
C378 C384 1.379 . S
C378 N386 1.356 . S
C379 C378 1.363 . S
C379 C385 1.363 . S
C380 C381 1.363 . S
C380 C385 1.379 . S
C380 N387 1.356 . S
C381 C380 1.363 . S
C381 C384 1.363 . S
N382 C384 1.356 . S
N382 H394 0.984 . S
N382 H395 0.985 . S
N383 C385 1.356 . S
N383 H388 0.984 . S
N383 H389 0.985 . S
C384 C378 1.379 . S
C384 C381 1.363 . S
C384 N382 1.356 . S
C385 C379 1.363 . S
C385 C380 1.379 . S
C385 N383 1.356 . S
N386 C378 1.356 . S
N386 H392 0.984 . S
N386 H393 0.984 . S
N387 C380 1.356 . S
N387 H390 0.984 . S
N387 H391 0.985 . S
H388 N383 0.984 . S
H389 N383 0.985 . S
H390 N387 0.984 . S
H391 N387 0.985 . S
H392 N386 0.984 . S
H393 N386 0.984 . S
H394 N382 0.984 . S
H395 N382 0.985 . S
C396 C397 1.363 . S
C396 C402 1.379 1_545 S
C396 N404 1.356 . S
C397 C396 1.363 . S
C397 C403 1.363 . S
C398 C399 1.363 . S
C398 C403 1.379 1_565 S
C398 N405 1.356 . S
C399 C398 1.363 . S
C399 C402 1.363 . S
N400 C402 1.356 . S
N400 H412 0.984 . S
N400 H413 0.985 . S
N401 C403 1.356 . S
N401 H406 0.984 . S
N401 H407 0.985 . S
C402 C396 1.379 1_565 S
C402 C399 1.363 . S
C402 N400 1.356 . S
C403 C397 1.363 . S
C403 C398 1.379 1_545 S
C403 N401 1.356 . S
N404 C396 1.356 . S
N404 H410 0.984 . S
N404 H411 0.984 . S
N405 C398 1.356 . S
N405 H408 0.984 . S
N405 H409 0.985 . S
H406 N401 0.984 . S
H407 N401 0.985 . S
H408 N405 0.984 . S
H409 N405 0.985 . S
H410 N404 0.984 . S
H411 N404 0.984 . S
H412 N400 0.984 . S
H413 N400 0.985 . S
C414 C415 1.363 . S
C414 C420 1.379 1_455 S
C414 N422 1.356 . S
C415 C414 1.363 . S
C415 C421 1.363 . S
C416 C417 1.363 . S
C416 C421 1.379 1_655 S
C416 N423 1.356 . S
C417 C416 1.363 . S
C417 C420 1.363 . S
N418 C420 1.356 . S
N418 H430 0.984 . S
N418 H431 0.985 . S
N419 C421 1.356 . S
N419 H424 0.984 . S
N419 H425 0.985 . S
C420 C414 1.379 1_655 S
C420 C417 1.363 . S
C420 N418 1.356 . S
C421 C415 1.363 . S
C421 C416 1.379 1_455 S
C421 N419 1.356 . S
N422 C414 1.356 . S
N422 H428 0.984 . S
N422 H429 0.984 . S
N423 C416 1.356 . S
N423 H426 0.984 . S
N423 H427 0.985 . S
H424 N419 0.984 . S
H425 N419 0.985 . S
H426 N423 0.984 . S
H427 N423 0.985 . S
H428 N422 0.984 . S
H429 N422 0.984 . S
H430 N418 0.984 . S
H431 N418 0.985 . S
C432 C433 1.363 . S
C432 C438 1.379 . S
C432 N440 1.356 . S
C433 C432 1.363 . S
C433 C439 1.363 . S
C434 C435 1.363 . S
C434 C439 1.379 . S
C434 N441 1.356 . S
C435 C434 1.363 . S
C435 C438 1.363 . S
N436 C438 1.356 . S
N436 H448 0.984 . S
N436 H449 0.985 . S
N437 C439 1.356 . S
N437 H442 0.984 . S
N437 H443 0.985 . S
C438 C432 1.379 . S
C438 C435 1.363 . S
C438 N436 1.356 . S
C439 C433 1.363 . S
C439 C434 1.379 . S
C439 N437 1.356 . S
N440 C432 1.356 . S
N440 H446 0.984 . S
N440 H447 0.984 . S
N441 C434 1.356 . S
N441 H444 0.984 . S
N441 H445 0.985 . S
H442 N437 0.984 . S
H443 N437 0.985 . S
H444 N441 0.984 . S
H445 N441 0.985 . S
H446 N440 0.984 . S
H447 N440 0.984 . S
H448 N436 0.984 . S
H449 N436 0.985 . S
C450 C451 1.363 . S
C450 C456 1.379 1_545 S
C450 N458 1.356 . S
C451 C450 1.363 . S
C451 C457 1.363 . S
C452 C453 1.363 . S
C452 C457 1.379 1_565 S
C452 N459 1.356 . S
C453 C452 1.363 . S
C453 C456 1.363 . S
N454 C456 1.356 . S
N454 H466 0.984 . S
N454 H467 0.985 . S
N455 C457 1.356 . S
N455 H460 0.984 . S
N455 H461 0.985 . S
C456 C450 1.379 1_565 S
C456 C453 1.363 . S
C456 N454 1.356 . S
C457 C451 1.363 . S
C457 C452 1.379 1_545 S
C457 N455 1.356 . S
N458 C450 1.356 . S
N458 H464 0.984 . S
N458 H465 0.984 . S
N459 C452 1.356 . S
N459 H462 0.984 . S
N459 H463 0.985 . S
H460 N455 0.984 . S
H461 N455 0.985 . S
H462 N459 0.984 . S
H463 N459 0.985 . S
H464 N458 0.984 . S
H465 N458 0.984 . S
H466 N454 0.984 . S
H467 N454 0.985 . S
C468 C469 1.363 . S
C468 C474 1.379 1_565 S
C468 N476 1.356 . S
C469 C468 1.363 . S
C469 C475 1.363 . S
C470 C471 1.363 . S
C470 C475 1.379 1_545 S
C470 N477 1.356 . S
C471 C470 1.363 . S
C471 C474 1.363 . S
N472 C474 1.356 . S
N472 H484 0.984 . S
N472 H485 0.985 . S
N473 C475 1.356 . S
N473 H478 0.984 . S
N473 H479 0.985 . S
C474 C468 1.379 1_545 S
C474 C471 1.363 . S
C474 N472 1.356 . S
C475 C469 1.363 . S
C475 C470 1.379 1_565 S
C475 N473 1.356 . S
N476 C468 1.356 . S
N476 H482 0.984 . S
N476 H483 0.984 . S
N477 C470 1.356 . S
N477 H480 0.984 . S
N477 H481 0.985 . S
H478 N473 0.984 . S
H479 N473 0.985 . S
H480 N477 0.984 . S
H481 N477 0.985 . S
H482 N476 0.984 . S
H483 N476 0.984 . S
H484 N472 0.984 . S
H485 N472 0.985 . S
C486 C487 1.363 . S
C486 C492 1.379 1_455 S
C486 N494 1.356 . S
C487 C486 1.363 . S
C487 C493 1.363 . S
C488 C489 1.363 . S
C488 C493 1.379 1_655 S
C488 N495 1.356 . S
C489 C488 1.363 . S
C489 C492 1.363 . S
N490 C492 1.356 . S
N490 H502 0.984 . S
N490 H503 0.985 . S
N491 C493 1.356 . S
N491 H496 0.984 . S
N491 H497 0.985 . S
C492 C486 1.379 1_655 S
C492 C489 1.363 . S
C492 N490 1.356 . S
C493 C487 1.363 . S
C493 C488 1.379 1_455 S
C493 N491 1.356 . S
N494 C486 1.356 . S
N494 H500 0.984 . S
N494 H501 0.984 . S
N495 C488 1.356 . S
N495 H498 0.984 . S
N495 H499 0.985 . S
H496 N491 0.984 . S
H497 N491 0.985 . S
H498 N495 0.984 . S
H499 N495 0.985 . S
H500 N494 0.984 . S
H501 N494 0.984 . S
H502 N490 0.984 . S
H503 N490 0.985 . S
C504 C505 1.363 . S
C504 C510 1.379 . S
C504 N512 1.356 . S
C505 C504 1.363 . S
C505 C511 1.363 . S
C506 C507 1.363 . S
C506 C511 1.379 . S
C506 N513 1.356 . S
C507 C506 1.363 . S
C507 C510 1.363 . S
N508 C510 1.356 . S
N508 H520 0.984 . S
N508 H521 0.985 . S
N509 C511 1.356 . S
N509 H514 0.984 . S
N509 H515 0.985 . S
C510 C504 1.379 . S
C510 C507 1.363 . S
C510 N508 1.356 . S
C511 C505 1.363 . S
C511 C506 1.379 . S
C511 N509 1.356 . S
N512 C504 1.356 . S
N512 H518 0.984 . S
N512 H519 0.984 . S
N513 C506 1.356 . S
N513 H516 0.984 . S
N513 H517 0.985 . S
H514 N509 0.984 . S
H515 N509 0.985 . S
H516 N513 0.984 . S
H517 N513 0.985 . S
H518 N512 0.984 . S
H519 N512 0.984 . S
H520 N508 0.984 . S
H521 N508 0.985 . S
C522 C523 1.363 . S
C522 C528 1.379 . S
C522 N530 1.356 . S
C523 C522 1.363 . S
C523 C529 1.363 . S
C524 C525 1.363 . S
C524 C529 1.379 . S
C524 N531 1.356 . S
C525 C524 1.363 . S
C525 C528 1.363 . S
N526 C528 1.356 . S
N526 H538 0.984 . S
N526 H539 0.985 . S
N527 C529 1.356 . S
N527 H532 0.984 . S
N527 H533 0.985 . S
C528 C522 1.379 . S
C528 C525 1.363 . S
C528 N526 1.356 . S
C529 C523 1.363 . S
C529 C524 1.379 . S
C529 N527 1.356 . S
N530 C522 1.356 . S
N530 H536 0.984 . S
N530 H537 0.984 . S
N531 C524 1.356 . S
N531 H534 0.984 . S
N531 H535 0.985 . S
H532 N527 0.984 . S
H533 N527 0.985 . S
H534 N531 0.984 . S
H535 N531 0.985 . S
H536 N530 0.984 . S
H537 N530 0.984 . S
H538 N526 0.984 . S
H539 N526 0.985 . S
C540 C541 1.363 . S
C540 C546 1.379 . S
C540 N548 1.356 . S
C541 C540 1.363 . S
C541 C547 1.363 . S
C542 C543 1.363 . S
C542 C547 1.379 . S
C542 N549 1.356 . S
C543 C542 1.363 . S
C543 C546 1.363 . S
N544 C546 1.356 . S
N544 H556 0.984 . S
N544 H557 0.985 . S
N545 C547 1.356 . S
N545 H550 0.984 . S
N545 H551 0.985 . S
C546 C540 1.379 . S
C546 C543 1.363 . S
C546 N544 1.356 . S
C547 C541 1.363 . S
C547 C542 1.379 . S
C547 N545 1.356 . S
N548 C540 1.356 . S
N548 H554 0.984 . S
N548 H555 0.984 . S
N549 C542 1.356 . S
N549 H552 0.984 . S
N549 H553 0.985 . S
H550 N545 0.984 . S
H551 N545 0.985 . S
H552 N549 0.984 . S
H553 N549 0.985 . S
H554 N548 0.984 . S
H555 N548 0.984 . S
H556 N544 0.984 . S
H557 N544 0.985 . S
C558 C559 1.363 . S
C558 C564 1.379 . S
C558 N566 1.356 . S
C559 C558 1.363 . S
C559 C565 1.363 . S
C560 C561 1.363 . S
C560 C565 1.379 . S
C560 N567 1.356 . S
C561 C560 1.363 . S
C561 C564 1.363 . S
N562 C564 1.356 . S
N562 H574 0.984 . S
N562 H575 0.985 . S
N563 C565 1.356 . S
N563 H568 0.984 . S
N563 H569 0.985 . S
C564 C558 1.379 . S
C564 C561 1.363 . S
C564 N562 1.356 . S
C565 C559 1.363 . S
C565 C560 1.379 . S
C565 N563 1.356 . S
N566 C558 1.356 . S
N566 H572 0.984 . S
N566 H573 0.984 . S
N567 C560 1.356 . S
N567 H570 0.984 . S
N567 H571 0.985 . S
H568 N563 0.984 . S
H569 N563 0.985 . S
H570 N567 0.984 . S
H571 N567 0.985 . S
H572 N566 0.984 . S
H573 N566 0.984 . S
H574 N562 0.984 . S
H575 N562 0.985 . S
C576 C577 1.363 . S
C576 C582 1.379 . S
C576 N584 1.356 . S
C577 C576 1.363 . S
C577 C583 1.363 . S
C578 C579 1.363 . S
C578 C583 1.379 . S
C578 N585 1.356 . S
C579 C578 1.363 . S
C579 C582 1.363 . S
N580 C582 1.356 . S
N580 H592 0.984 . S
N580 H593 0.985 . S
N581 C583 1.356 . S
N581 H586 0.984 . S
N581 H587 0.985 . S
C582 C576 1.379 . S
C582 C579 1.363 . S
C582 N580 1.356 . S
C583 C577 1.363 . S
C583 C578 1.379 . S
C583 N581 1.356 . S
N584 C576 1.356 . S
N584 H590 0.984 . S
N584 H591 0.984 . S
N585 C578 1.356 . S
N585 H588 0.984 . S
N585 H589 0.985 . S
H586 N581 0.984 . S
H587 N581 0.985 . S
H588 N585 0.984 . S
H589 N585 0.985 . S
H590 N584 0.984 . S
H591 N584 0.984 . S
H592 N580 0.984 . S
H593 N580 0.985 . S
C594 C595 1.363 . S
C594 C600 1.379 . S
C594 N602 1.356 . S
C595 C594 1.363 . S
C595 C601 1.363 . S
C596 C597 1.363 . S
C596 C601 1.379 . S
C596 N603 1.356 . S
C597 C596 1.363 . S
C597 C600 1.363 . S
N598 C600 1.356 . S
N598 H610 0.984 . S
N598 H611 0.985 . S
N599 C601 1.356 . S
N599 H604 0.984 . S
N599 H605 0.985 . S
C600 C594 1.379 . S
C600 C597 1.363 . S
C600 N598 1.356 . S
C601 C595 1.363 . S
C601 C596 1.379 . S
C601 N599 1.356 . S
N602 C594 1.356 . S
N602 H608 0.984 . S
N602 H609 0.984 . S
N603 C596 1.356 . S
N603 H606 0.984 . S
N603 H607 0.985 . S
H604 N599 0.984 . S
H605 N599 0.985 . S
H606 N603 0.984 . S
H607 N603 0.985 . S
H608 N602 0.984 . S
H609 N602 0.984 . S
H610 N598 0.984 . S
H611 N598 0.985 . S
C612 C613 1.363 . S
C612 C618 1.379 . S
C612 N620 1.356 . S
C613 C612 1.363 . S
C613 C619 1.363 . S
C614 C615 1.363 . S
C614 C619 1.379 . S
C614 N621 1.356 . S
C615 C614 1.363 . S
C615 C618 1.363 . S
N616 C618 1.356 . S
N616 H628 0.984 . S
N616 H629 0.985 . S
N617 C619 1.356 . S
N617 H622 0.984 . S
N617 H623 0.985 . S
C618 C612 1.379 . S
C618 C615 1.363 . S
C618 N616 1.356 . S
C619 C613 1.363 . S
C619 C614 1.379 . S
C619 N617 1.356 . S
N620 C612 1.356 . S
N620 H626 0.984 . S
N620 H627 0.984 . S
N621 C614 1.356 . S
N621 H624 0.984 . S
N621 H625 0.985 . S
H622 N617 0.984 . S
H623 N617 0.985 . S
H624 N621 0.984 . S
H625 N621 0.985 . S
H626 N620 0.984 . S
H627 N620 0.984 . S
H628 N616 0.984 . S
H629 N616 0.985 . S
C630 C631 1.363 . S
C630 C636 1.379 . S
C630 N638 1.356 . S
C631 C630 1.363 . S
C631 C637 1.363 . S
C632 C633 1.363 . S
C632 C637 1.379 . S
C632 N639 1.356 . S
C633 C632 1.363 . S
C633 C636 1.363 . S
N634 C636 1.356 . S
N634 H646 0.984 . S
N634 H647 0.985 . S
N635 C637 1.356 . S
N635 H640 0.984 . S
N635 H641 0.985 . S
C636 C630 1.379 . S
C636 C633 1.363 . S
C636 N634 1.356 . S
C637 C631 1.363 . S
C637 C632 1.379 . S
C637 N635 1.356 . S
N638 C630 1.356 . S
N638 H644 0.984 . S
N638 H645 0.984 . S
N639 C632 1.356 . S
N639 H642 0.984 . S
N639 H643 0.985 . S
H640 N635 0.984 . S
H641 N635 0.985 . S
H642 N639 0.984 . S
H643 N639 0.985 . S
H644 N638 0.984 . S
H645 N638 0.984 . S
H646 N634 0.984 . S
H647 N634 0.985 . S
C648 C649 1.363 . S
C648 C654 1.379 . S
C648 N656 1.356 . S
C649 C648 1.363 . S
C649 C655 1.363 . S
C650 C651 1.363 . S
C650 C655 1.379 . S
C650 N657 1.356 . S
C651 C650 1.363 . S
C651 C654 1.363 . S
N652 C654 1.356 . S
N652 H664 0.984 . S
N652 H665 0.985 . S
N653 C655 1.356 . S
N653 H658 0.984 . S
N653 H659 0.985 . S
C654 C648 1.379 . S
C654 C651 1.363 . S
C654 N652 1.356 . S
C655 C649 1.363 . S
C655 C650 1.379 . S
C655 N653 1.356 . S
N656 C648 1.356 . S
N656 H662 0.984 . S
N656 H663 0.984 . S
N657 C650 1.356 . S
N657 H660 0.984 . S
N657 H661 0.985 . S
H658 N653 0.984 . S
H659 N653 0.985 . S
H660 N657 0.984 . S
H661 N657 0.985 . S
H662 N656 0.984 . S
H663 N656 0.984 . S
H664 N652 0.984 . S
H665 N652 0.985 . S
C666 C667 1.363 . S
C666 C672 1.379 . S
C666 N674 1.356 . S
C667 C666 1.363 . S
C667 C673 1.363 . S
C668 C669 1.363 . S
C668 C673 1.379 . S
C668 N675 1.356 . S
C669 C668 1.363 . S
C669 C672 1.363 . S
N670 C672 1.356 . S
N670 H682 0.984 . S
N670 H683 0.985 . S
N671 C673 1.356 . S
N671 H676 0.984 . S
N671 H677 0.985 . S
C672 C666 1.379 . S
C672 C669 1.363 . S
C672 N670 1.356 . S
C673 C667 1.363 . S
C673 C668 1.379 . S
C673 N671 1.356 . S
N674 C666 1.356 . S
N674 H680 0.984 . S
N674 H681 0.984 . S
N675 C668 1.356 . S
N675 H678 0.984 . S
N675 H679 0.985 . S
H676 N671 0.984 . S
H677 N671 0.985 . S
H678 N675 0.984 . S
H679 N675 0.985 . S
H680 N674 0.984 . S
H681 N674 0.984 . S
H682 N670 0.984 . S
H683 N670 0.985 . S
C684 C685 1.363 . S
C684 C690 1.379 . S
C684 N692 1.356 . S
C685 C684 1.363 . S
C685 C691 1.363 . S
C686 C687 1.363 . S
C686 C691 1.379 . S
C686 N693 1.356 . S
C687 C686 1.363 . S
C687 C690 1.363 . S
N688 C690 1.356 . S
N688 H700 0.984 . S
N688 H701 0.985 . S
N689 C691 1.356 . S
N689 H694 0.984 . S
N689 H695 0.985 . S
C690 C684 1.379 . S
C690 C687 1.363 . S
C690 N688 1.356 . S
C691 C685 1.363 . S
C691 C686 1.379 . S
C691 N689 1.356 . S
N692 C684 1.356 . S
N692 H698 0.984 . S
N692 H699 0.984 . S
N693 C686 1.356 . S
N693 H696 0.984 . S
N693 H697 0.985 . S
H694 N689 0.984 . S
H695 N689 0.985 . S
H696 N693 0.984 . S
H697 N693 0.985 . S
H698 N692 0.984 . S
H699 N692 0.984 . S
H700 N688 0.984 . S
H701 N688 0.985 . S
C702 C703 1.363 . S
C702 C708 1.379 . S
C702 N710 1.356 . S
C703 C702 1.363 . S
C703 C709 1.363 . S
C704 C705 1.363 . S
C704 C709 1.379 . S
C704 N711 1.356 . S
C705 C704 1.363 . S
C705 C708 1.363 . S
N706 C708 1.356 . S
N706 H718 0.984 . S
N706 H719 0.985 . S
N707 C709 1.356 . S
N707 H712 0.984 . S
N707 H713 0.985 . S
C708 C702 1.379 . S
C708 C705 1.363 . S
C708 N706 1.356 . S
C709 C703 1.363 . S
C709 C704 1.379 . S
C709 N707 1.356 . S
N710 C702 1.356 . S
N710 H716 0.984 . S
N710 H717 0.984 . S
N711 C704 1.356 . S
N711 H714 0.984 . S
N711 H715 0.985 . S
H712 N707 0.984 . S
H713 N707 0.985 . S
H714 N711 0.984 . S
H715 N711 0.985 . S
H716 N710 0.984 . S
H717 N710 0.984 . S
H718 N706 0.984 . S
H719 N706 0.985 . S
C720 C721 1.363 . S
C720 C726 1.379 . S
C720 N728 1.356 . S
C721 C720 1.363 . S
C721 C727 1.363 . S
C722 C723 1.363 . S
C722 C727 1.379 . S
C722 N729 1.356 . S
C723 C722 1.363 . S
C723 C726 1.363 . S
N724 C726 1.356 . S
N724 H736 0.984 . S
N724 H737 0.985 . S
N725 C727 1.356 . S
N725 H730 0.984 . S
N725 H731 0.985 . S
C726 C720 1.379 . S
C726 C723 1.363 . S
C726 N724 1.356 . S
C727 C721 1.363 . S
C727 C722 1.379 . S
C727 N725 1.356 . S
N728 C720 1.356 . S
N728 H734 0.984 . S
N728 H735 0.984 . S
N729 C722 1.356 . S
N729 H732 0.984 . S
N729 H733 0.985 . S
H730 N725 0.984 . S
H731 N725 0.985 . S
H732 N729 0.984 . S
H733 N729 0.985 . S
H734 N728 0.984 . S
H735 N728 0.984 . S
H736 N724 0.984 . S
H737 N724 0.985 . S
C738 C739 1.363 . S
C738 C744 1.379 1_554 S
C738 N746 1.356 . S
C739 C738 1.363 . S
C739 C745 1.363 . S
C740 C741 1.363 . S
C740 C745 1.379 1_556 S
C740 N747 1.356 . S
C741 C740 1.363 . S
C741 C744 1.363 . S
N742 C744 1.356 . S
N742 H754 0.984 . S
N742 H755 0.985 . S
N743 C745 1.356 . S
N743 H748 0.984 . S
N743 H749 0.985 . S
C744 C738 1.379 1_556 S
C744 C741 1.363 . S
C744 N742 1.356 . S
C745 C739 1.363 . S
C745 C740 1.379 1_554 S
C745 N743 1.356 . S
N746 C738 1.356 . S
N746 H752 0.984 . S
N746 H753 0.984 . S
N747 C740 1.356 . S
N747 H750 0.984 . S
N747 H751 0.985 . S
H748 N743 0.984 . S
H749 N743 0.985 . S
H750 N747 0.984 . S
H751 N747 0.985 . S
H752 N746 0.984 . S
H753 N746 0.984 . S
H754 N742 0.984 . S
H755 N742 0.985 . S
C756 C757 1.363 . S
C756 C762 1.379 1_556 S
C756 N764 1.356 . S
C757 C756 1.363 . S
C757 C763 1.363 1_545 S
C758 C759 1.363 . S
C758 C763 1.379 1_554 S
C758 N765 1.356 . S
C759 C758 1.363 . S
C759 C762 1.363 1_565 S
N760 C762 1.356 . S
N760 H772 0.984 . S
N760 H773 0.985 . S
N761 C763 1.356 . S
N761 H766 0.984 . S
N761 H767 0.985 . S
C762 C756 1.379 1_554 S
C762 C759 1.363 1_545 S
C762 N760 1.356 . S
C763 C757 1.363 1_565 S
C763 C758 1.379 1_556 S
C763 N761 1.356 . S
N764 C756 1.356 . S
N764 H770 0.984 . S
N764 H771 0.984 . S
N765 C758 1.356 . S
N765 H768 0.984 . S
N765 H769 0.985 . S
H766 N761 0.984 . S
H767 N761 0.985 . S
H768 N765 0.984 . S
H769 N765 0.985 . S
H770 N764 0.984 . S
H771 N764 0.984 . S
H772 N760 0.984 . S
H773 N760 0.985 . S
C774 C775 1.363 . S
C774 C780 1.379 1_556 S
C774 N782 1.356 . S
C775 C774 1.363 . S
C775 C781 1.363 1_655 S
C776 C777 1.363 . S
C776 C781 1.379 1_554 S
C776 N783 1.356 . S
C777 C776 1.363 . S
C777 C780 1.363 1_455 S
N778 C780 1.356 . S
N778 H790 0.984 . S
N778 H791 0.985 . S
N779 C781 1.356 . S
N779 H784 0.984 . S
N779 H785 0.985 . S
C780 C774 1.379 1_554 S
C780 C777 1.363 1_655 S
C780 N778 1.356 . S
C781 C775 1.363 1_455 S
C781 C776 1.379 1_556 S
C781 N779 1.356 . S
N782 C774 1.356 . S
N782 H788 0.984 . S
N782 H789 0.984 . S
N783 C776 1.356 . S
N783 H786 0.984 . S
N783 H787 0.985 . S
H784 N779 0.984 . S
H785 N779 0.985 . S
H786 N783 0.984 . S
H787 N783 0.985 . S
H788 N782 0.984 . S
H789 N782 0.984 . S
H790 N778 0.984 . S
H791 N778 0.985 . S
C792 C793 1.363 . S
C792 C798 1.379 . S
C792 N800 1.356 . S
C793 C792 1.363 . S
C793 C799 1.363 . S
C794 C795 1.363 . S
C794 C799 1.379 . S
C794 N801 1.356 . S
C795 C794 1.363 . S
C795 C798 1.363 . S
N796 C798 1.356 . S
N796 H808 0.984 . S
N796 H809 0.985 . S
N797 C799 1.356 . S
N797 H802 0.984 . S
N797 H803 0.985 . S
C798 C792 1.379 . S
C798 C795 1.363 . S
C798 N796 1.356 . S
C799 C793 1.363 . S
C799 C794 1.379 . S
C799 N797 1.356 . S
N800 C792 1.356 . S
N800 H806 0.984 . S
N800 H807 0.984 . S
N801 C794 1.356 . S
N801 H804 0.984 . S
N801 H805 0.985 . S
H802 N797 0.984 . S
H803 N797 0.985 . S
H804 N801 0.984 . S
H805 N801 0.985 . S
H806 N800 0.984 . S
H807 N800 0.984 . S
H808 N796 0.984 . S
H809 N796 0.985 . S
C810 C811 1.363 . S
C810 C816 1.379 . S
C810 N818 1.356 . S
C811 C810 1.363 . S
C811 C817 1.363 . S
C812 C813 1.363 . S
C812 C817 1.379 . S
C812 N819 1.356 . S
C813 C812 1.363 . S
C813 C816 1.363 . S
N814 C816 1.356 . S
N814 H826 0.984 . S
N814 H827 0.985 . S
N815 C817 1.356 . S
N815 H820 0.984 . S
N815 H821 0.985 . S
C816 C810 1.379 . S
C816 C813 1.363 . S
C816 N814 1.356 . S
C817 C811 1.363 . S
C817 C812 1.379 . S
C817 N815 1.356 . S
N818 C810 1.356 . S
N818 H824 0.984 . S
N818 H825 0.984 . S
N819 C812 1.356 . S
N819 H822 0.984 . S
N819 H823 0.985 . S
H820 N815 0.984 . S
H821 N815 0.985 . S
H822 N819 0.984 . S
H823 N819 0.985 . S
H824 N818 0.984 . S
H825 N818 0.984 . S
H826 N814 0.984 . S
H827 N814 0.985 . S
C828 C829 1.363 . S
C828 C834 1.379 . S
C828 N836 1.356 . S
C829 C828 1.363 . S
C829 C835 1.363 . S
C830 C831 1.363 . S
C830 C835 1.379 . S
C830 N837 1.356 . S
C831 C830 1.363 . S
C831 C834 1.363 . S
N832 C834 1.356 . S
N832 H844 0.984 . S
N832 H845 0.985 . S
N833 C835 1.356 . S
N833 H838 0.984 . S
N833 H839 0.985 . S
C834 C828 1.379 . S
C834 C831 1.363 . S
C834 N832 1.356 . S
C835 C829 1.363 . S
C835 C830 1.379 . S
C835 N833 1.356 . S
N836 C828 1.356 . S
N836 H842 0.984 . S
N836 H843 0.984 . S
N837 C830 1.356 . S
N837 H840 0.984 . S
N837 H841 0.985 . S
H838 N833 0.984 . S
H839 N833 0.985 . S
H840 N837 0.984 . S
H841 N837 0.985 . S
H842 N836 0.984 . S
H843 N836 0.984 . S
H844 N832 0.984 . S
H845 N832 0.985 . S
C846 C847 1.363 . S
C846 C852 1.379 . S
C846 N854 1.356 . S
C847 C846 1.363 . S
C847 C853 1.363 . S
C848 C849 1.363 . S
C848 C853 1.379 . S
C848 N855 1.356 . S
C849 C848 1.363 . S
C849 C852 1.363 . S
N850 C852 1.356 . S
N850 H862 0.984 . S
N850 H863 0.985 . S
N851 C853 1.356 . S
N851 H856 0.984 . S
N851 H857 0.985 . S
C852 C846 1.379 . S
C852 C849 1.363 . S
C852 N850 1.356 . S
C853 C847 1.363 . S
C853 C848 1.379 . S
C853 N851 1.356 . S
N854 C846 1.356 . S
N854 H860 0.984 . S
N854 H861 0.984 . S
N855 C848 1.356 . S
N855 H858 0.984 . S
N855 H859 0.985 . S
H856 N851 0.984 . S
H857 N851 0.985 . S
H858 N855 0.984 . S
H859 N855 0.985 . S
H860 N854 0.984 . S
H861 N854 0.984 . S
H862 N850 0.984 . S
H863 N850 0.985 . S
C864 C865 1.363 . S
C864 C870 1.379 . S
C864 N872 1.356 . S
C865 C864 1.363 . S
C865 C871 1.363 . S
C866 C867 1.363 . S
C866 C871 1.379 . S
C866 N873 1.356 . S
C867 C866 1.363 . S
C867 C870 1.363 . S
N868 C870 1.356 . S
N868 H880 0.984 . S
N868 H881 0.985 . S
N869 C871 1.356 . S
N869 H874 0.984 . S
N869 H875 0.985 . S
C870 C864 1.379 . S
C870 C867 1.363 . S
C870 N868 1.356 . S
C871 C865 1.363 . S
C871 C866 1.379 . S
C871 N869 1.356 . S
N872 C864 1.356 . S
N872 H878 0.984 . S
N872 H879 0.984 . S
N873 C866 1.356 . S
N873 H876 0.984 . S
N873 H877 0.985 . S
H874 N869 0.984 . S
H875 N869 0.985 . S
H876 N873 0.984 . S
H877 N873 0.985 . S
H878 N872 0.984 . S
H879 N872 0.984 . S
H880 N868 0.984 . S
H881 N868 0.985 . S
C882 C883 1.363 . S
C882 C888 1.379 . S
C882 N890 1.356 . S
C883 C882 1.363 . S
C883 C889 1.363 . S
C884 C885 1.363 . S
C884 C889 1.379 . S
C884 N891 1.356 . S
C885 C884 1.363 . S
C885 C888 1.363 . S
N886 C888 1.356 . S
N886 H898 0.984 . S
N886 H899 0.985 . S
N887 C889 1.356 . S
N887 H892 0.984 . S
N887 H893 0.985 . S
C888 C882 1.379 . S
C888 C885 1.363 . S
C888 N886 1.356 . S
C889 C883 1.363 . S
C889 C884 1.379 . S
C889 N887 1.356 . S
N890 C882 1.356 . S
N890 H896 0.984 . S
N890 H897 0.984 . S
N891 C884 1.356 . S
N891 H894 0.984 . S
N891 H895 0.985 . S
H892 N887 0.984 . S
H893 N887 0.985 . S
H894 N891 0.984 . S
H895 N891 0.985 . S
H896 N890 0.984 . S
H897 N890 0.984 . S
H898 N886 0.984 . S
H899 N886 0.985 . S
C253 C151 1.297 . S
C255 C11 1.297 . S
C271 C25 1.297 . S
C273 C165 1.297 . S
C289 C137 1.298 . S
C291 C39 1.297 . S
C307 C207 1.298 . S
C309 C53 1.298 . S
C325 C67 1.298 . S
C327 C179 1.298 . S
C343 C193 1.298 . S
C345 C81 1.298 . S
C361 C95 1.298 . S
C363 C235 1.298 . S
C379 C249 1.298 . S
C381 C109 1.298 . S
C397 C123 1.298 . S
C399 C221 1.298 . S
C415 C5 1.231 . S
C417 C14 1.241 . S
C433 C19 1.230 . S
C435 C28 1.241 . S
C451 C0 1.241 . S
C453 C33 1.230 . S
C469 C70 1.241 . S
C471 C47 1.231 . S
C487 C42 1.241 . S
C489 C61 1.230 . S
C505 C75 1.230 . S
C507 C56 1.241 . S
C523 C89 1.231 . S
C525 C98 1.242 . S
C541 C103 1.230 . S
C543 C112 1.241 . S
C559 C84 1.241 . S
C561 C117 1.230 . S
C577 C154 1.241 . S
C579 C131 1.231 . S
C595 C126 1.241 . S
C597 C145 1.230 . S
C613 C140 1.241 . S
C615 C159 1.230 . S
C631 C182 1.241 . S
C633 C173 1.231 . S
C649 C196 1.241 . S
C651 C187 1.230 . S
C667 C168 1.241 . S
C669 C201 1.230 . S
C685 C215 1.231 . S
C687 C238 1.241 . S
C703 C229 1.230 . S
C705 C210 1.241 . S
C721 C243 1.230 . S
C723 C224 1.241 . S
C739 C9 1.707 . S
C741 C51 1.707 . S
C757 C65 1.706 . S
C759 C23 1.706 . S
C775 C79 1.706 . S
C777 C37 1.706 . S
C793 C135 1.707 . S
C795 C93 1.707 . S
C811 C149 1.706 . S
C813 C107 1.706 . S
C829 C121 1.706 . S
C831 C163 1.706 . S
C847 C219 1.707 . S
C849 C177 1.707 . S
C865 C233 1.706 . S
C867 C191 1.706 . S
C883 C247 1.706 . S
C885 C205 1.706 . S
