# Generated by pormake.
# Topology vba, (4)-cn, num edge types: 1
# Building blocks:
#     Node 0, Type 0, BuildingBlock: QUQFOY_clean_sbu_1, # of connection points: 4
#     Node 1, Type 0, BuildingBlock: QUQFOY_clean_sbu_1, # of connection points: 4
#     Node 2, Type 0, BuildingBlock: QUQFOY_clean_sbu_1, # of connection points: 4
#     Node 3, Type 0, BuildingBlock: QUQFOY_clean_sbu_1, # of connection points: 4
#     Node 4, Type 0, BuildingBlock: QUQFOY_clean_sbu_1, # of connection points: 4
#     Node 5, Type 0, BuildingBlock: QUQFOY_clean_sbu_1, # of connection points: 4
#     Node 6, Type 0, BuildingBlock: QUQFOY_clean_sbu_1, # of connection points: 4
#     Node 7, Type 0, BuildingBlock: QUQFOY_clean_sbu_1, # of connection points: 4
#     Node 8, Type 0, BuildingBlock: QUQFOY_clean_sbu_1, # of connection points: 4
#     Node 9, Type 0, BuildingBlock: QUQFOY_clean_sbu_1, # of connection points: 4
#     Node 10, Type 0, BuildingBlock: QUQFOY_clean_sbu_1, # of connection points: 4
#     Node 11, Type 0, BuildingBlock: QUQFOY_clean_sbu_1, # of connection points: 4
#     Node 12, Type 0, BuildingBlock: QUQFOY_clean_sbu_1, # of connection points: 4
#     Node 13, Type 0, BuildingBlock: QUQFOY_clean_sbu_1, # of connection points: 4
#     Node 14, Type 0, BuildingBlock: QUQFOY_clean_sbu_1, # of connection points: 4
#     Node 15, Type 0, BuildingBlock: QUQFOY_clean_sbu_1, # of connection points: 4
#     Node 16, Type 0, BuildingBlock: QUQFOY_clean_sbu_1, # of connection points: 4
#     Node 17, Type 0, BuildingBlock: QUQFOY_clean_sbu_1, # of connection points: 4
#     Node 18, Type 0, BuildingBlock: QUQFOY_clean_sbu_1, # of connection points: 4
#     Node 19, Type 0, BuildingBlock: QUQFOY_clean_sbu_1, # of connection points: 4
#     Node 20, Type 0, BuildingBlock: QUQFOY_clean_sbu_1, # of connection points: 4
#     Node 21, Type 0, BuildingBlock: QUQFOY_clean_sbu_1, # of connection points: 4
#     Node 22, Type 0, BuildingBlock: QUQFOY_clean_sbu_1, # of connection points: 4
#     Node 23, Type 0, BuildingBlock: QUQFOY_clean_sbu_1, # of connection points: 4
#     Node 24, Type 0, BuildingBlock: QUQFOY_clean_sbu_1, # of connection points: 4
#     Node 25, Type 0, BuildingBlock: QUQFOY_clean_sbu_1, # of connection points: 4
#     Node 26, Type 0, BuildingBlock: QUQFOY_clean_sbu_1, # of connection points: 4
#     Node 27, Type 0, BuildingBlock: QUQFOY_clean_sbu_1, # of connection points: 4
#     Node 28, Type 0, BuildingBlock: QUQFOY_clean_sbu_1, # of connection points: 4
#     Node 29, Type 0, BuildingBlock: QUQFOY_clean_sbu_1, # of connection points: 4
#     Node 30, Type 0, BuildingBlock: QUQFOY_clean_sbu_1, # of connection points: 4
#     Node 31, Type 0, BuildingBlock: QUQFOY_clean_sbu_1, # of connection points: 4
#     Edge 32, Type (0, 0), BuildingBlock: KIFKEQ_clean_linker_1, # of connection points: 2
#     Edge 33, Type (0, 0), BuildingBlock: KIFKEQ_clean_linker_1, # of connection points: 2
#     Edge 34, Type (0, 0), BuildingBlock: KIFKEQ_clean_linker_1, # of connection points: 2
#     Edge 35, Type (0, 0), BuildingBlock: KIFKEQ_clean_linker_1, # of connection points: 2
#     Edge 36, Type (0, 0), BuildingBlock: KIFKEQ_clean_linker_1, # of connection points: 2
#     Edge 37, Type (0, 0), BuildingBlock: KIFKEQ_clean_linker_1, # of connection points: 2
#     Edge 38, Type (0, 0), BuildingBlock: KIFKEQ_clean_linker_1, # of connection points: 2
#     Edge 39, Type (0, 0), BuildingBlock: KIFKEQ_clean_linker_1, # of connection points: 2
#     Edge 40, Type (0, 0), BuildingBlock: KIFKEQ_clean_linker_1, # of connection points: 2
#     Edge 41, Type (0, 0), BuildingBlock: KIFKEQ_clean_linker_1, # of connection points: 2
#     Edge 42, Type (0, 0), BuildingBlock: KIFKEQ_clean_linker_1, # of connection points: 2
#     Edge 43, Type (0, 0), BuildingBlock: KIFKEQ_clean_linker_1, # of connection points: 2
#     Edge 44, Type (0, 0), BuildingBlock: KIFKEQ_clean_linker_1, # of connection points: 2
#     Edge 45, Type (0, 0), BuildingBlock: KIFKEQ_clean_linker_1, # of connection points: 2
#     Edge 46, Type (0, 0), BuildingBlock: KIFKEQ_clean_linker_1, # of connection points: 2
#     Edge 47, Type (0, 0), BuildingBlock: KIFKEQ_clean_linker_1, # of connection points: 2
#     Edge 48, Type (0, 0), BuildingBlock: KIFKEQ_clean_linker_1, # of connection points: 2
#     Edge 49, Type (0, 0), BuildingBlock: KIFKEQ_clean_linker_1, # of connection points: 2
#     Edge 50, Type (0, 0), BuildingBlock: KIFKEQ_clean_linker_1, # of connection points: 2
#     Edge 51, Type (0, 0), BuildingBlock: KIFKEQ_clean_linker_1, # of connection points: 2
#     Edge 52, Type (0, 0), BuildingBlock: KIFKEQ_clean_linker_1, # of connection points: 2
#     Edge 53, Type (0, 0), BuildingBlock: KIFKEQ_clean_linker_1, # of connection points: 2
#     Edge 54, Type (0, 0), BuildingBlock: KIFKEQ_clean_linker_1, # of connection points: 2
#     Edge 55, Type (0, 0), BuildingBlock: KIFKEQ_clean_linker_1, # of connection points: 2
#     Edge 56, Type (0, 0), BuildingBlock: KIFKEQ_clean_linker_1, # of connection points: 2
#     Edge 57, Type (0, 0), BuildingBlock: KIFKEQ_clean_linker_1, # of connection points: 2
#     Edge 58, Type (0, 0), BuildingBlock: KIFKEQ_clean_linker_1, # of connection points: 2
#     Edge 59, Type (0, 0), BuildingBlock: KIFKEQ_clean_linker_1, # of connection points: 2
#     Edge 60, Type (0, 0), BuildingBlock: KIFKEQ_clean_linker_1, # of connection points: 2
#     Edge 61, Type (0, 0), BuildingBlock: KIFKEQ_clean_linker_1, # of connection points: 2
#     Edge 62, Type (0, 0), BuildingBlock: KIFKEQ_clean_linker_1, # of connection points: 2
#     Edge 63, Type (0, 0), BuildingBlock: KIFKEQ_clean_linker_1, # of connection points: 2
#     Edge 64, Type (0, 0), BuildingBlock: KIFKEQ_clean_linker_1, # of connection points: 2
#     Edge 65, Type (0, 0), BuildingBlock: KIFKEQ_clean_linker_1, # of connection points: 2
#     Edge 66, Type (0, 0), BuildingBlock: KIFKEQ_clean_linker_1, # of connection points: 2
#     Edge 67, Type (0, 0), BuildingBlock: KIFKEQ_clean_linker_1, # of connection points: 2
#     Edge 68, Type (0, 0), BuildingBlock: KIFKEQ_clean_linker_1, # of connection points: 2
#     Edge 69, Type (0, 0), BuildingBlock: KIFKEQ_clean_linker_1, # of connection points: 2
#     Edge 70, Type (0, 0), BuildingBlock: KIFKEQ_clean_linker_1, # of connection points: 2
#     Edge 71, Type (0, 0), BuildingBlock: KIFKEQ_clean_linker_1, # of connection points: 2
#     Edge 72, Type (0, 0), BuildingBlock: KIFKEQ_clean_linker_1, # of connection points: 2
#     Edge 73, Type (0, 0), BuildingBlock: KIFKEQ_clean_linker_1, # of connection points: 2
#     Edge 74, Type (0, 0), BuildingBlock: KIFKEQ_clean_linker_1, # of connection points: 2
#     Edge 75, Type (0, 0), BuildingBlock: KIFKEQ_clean_linker_1, # of connection points: 2
#     Edge 76, Type (0, 0), BuildingBlock: KIFKEQ_clean_linker_1, # of connection points: 2
#     Edge 77, Type (0, 0), BuildingBlock: KIFKEQ_clean_linker_1, # of connection points: 2
#     Edge 78, Type (0, 0), BuildingBlock: KIFKEQ_clean_linker_1, # of connection points: 2
#     Edge 79, Type (0, 0), BuildingBlock: KIFKEQ_clean_linker_1, # of connection points: 2
#     Edge 80, Type (0, 0), BuildingBlock: KIFKEQ_clean_linker_1, # of connection points: 2
#     Edge 81, Type (0, 0), BuildingBlock: KIFKEQ_clean_linker_1, # of connection points: 2
#     Edge 82, Type (0, 0), BuildingBlock: KIFKEQ_clean_linker_1, # of connection points: 2
#     Edge 83, Type (0, 0), BuildingBlock: KIFKEQ_clean_linker_1, # of connection points: 2
#     Edge 84, Type (0, 0), BuildingBlock: KIFKEQ_clean_linker_1, # of connection points: 2
#     Edge 85, Type (0, 0), BuildingBlock: KIFKEQ_clean_linker_1, # of connection points: 2
#     Edge 86, Type (0, 0), BuildingBlock: KIFKEQ_clean_linker_1, # of connection points: 2
#     Edge 87, Type (0, 0), BuildingBlock: KIFKEQ_clean_linker_1, # of connection points: 2
#     Edge 88, Type (0, 0), BuildingBlock: KIFKEQ_clean_linker_1, # of connection points: 2
#     Edge 89, Type (0, 0), BuildingBlock: KIFKEQ_clean_linker_1, # of connection points: 2
#     Edge 90, Type (0, 0), BuildingBlock: KIFKEQ_clean_linker_1, # of connection points: 2
#     Edge 91, Type (0, 0), BuildingBlock: KIFKEQ_clean_linker_1, # of connection points: 2
#     Edge 92, Type (0, 0), BuildingBlock: KIFKEQ_clean_linker_1, # of connection points: 2
#     Edge 93, Type (0, 0), BuildingBlock: KIFKEQ_clean_linker_1, # of connection points: 2
#     Edge 94, Type (0, 0), BuildingBlock: KIFKEQ_clean_linker_1, # of connection points: 2
#     Edge 95, Type (0, 0), BuildingBlock: KIFKEQ_clean_linker_1, # of connection points: 2
# Relax obj value: 0.116
# Max RMSD: 0.329
# Mean RMSD: 0.329
data_MOF--net-vba--node1-QUQFOY_clean_sbu_1--edge1-KIFKEQ_clean_linker_1
_symmetry_space_group_name_H-M    P1
_symmetry_Int_Tables_number       1
_symmetry_cell_setting            triclinic
loop_
_symmetry_equiv_pos_as_xyz
'x, y, z'
_cell_length_a     16.549749
_cell_length_b     108.94242
_cell_length_c     57.112975
_cell_angle_alpha  90.01705
_cell_angle_beta   90.002117
_cell_angle_gamma 89.997629
loop_
_atom_site_label
_atom_site_type_symbol
_atom_site_fract_x
_atom_site_fract_y
_atom_site_fract_z
_atom_type_partial_charge
O0 O 0.33483 0.07381 0.98309 0.0
Cd1 Cd 0.32441 0.07155 0.01777 0.0
Cd2 Cd 0.17399 0.06769 0.01239 0.0
O3 O 0.22767 0.06183 0.97997 0.0
O4 O 0.41621 0.06119 0.03158 0.0
O5 O 0.29993 0.05348 0.01978 0.0
C6 C 0.37106 0.05166 0.02796 0.0
C7 C 0.14078 0.05784 0.04811 0.0
C8 C 0.29029 0.06687 0.97076 0.0
C9 C 0.20216 0.09188 0.02778 0.0
O10 O 0.15577 0.08589 0.01423 0.0
O11 O 0.26864 0.08699 0.03476 0.0
O12 O 0.09133 0.05742 0.03055 0.0
O13 O 0.20779 0.06357 0.04535 0.0
O14 O 0.93364 0.19663 0.98342 0.0
Cd15 Cd 0.92513 0.19993 0.01785 0.0
Cd16 Cd 0.07478 0.20471 0.01757 0.0
O17 O 0.03421 0.20998 0.98309 0.0
O18 O 0.82652 0.21044 0.02666 0.0
O19 O 0.94714 0.21804 0.01922 0.0
C20 C 0.8725 0.21997 0.02389 0.0
C21 C 0.09653 0.21471 0.05393 0.0
C22 C 0.98008 0.20377 0.97214 0.0
C23 C 0.04403 0.18036 0.03252 0.0
O24 O 0.09403 0.18654 0.02046 0.0
O25 O 0.97479 0.185 0.03753 0.0
O26 O 0.15153 0.21491 0.03779 0.0
O27 O 0.02956 0.20929 0.04926 0.0
O28 O 0.34197 0.1995 0.2937 0.0
Cd29 Cd 0.3334 0.20122 0.25894 0.0
Cd30 Cd 0.18444 0.20625 0.2633 0.0
O31 O 0.23956 0.21246 0.29553 0.0
O32 O 0.42662 0.21143 0.2452 0.0
O33 O 0.30985 0.21927 0.25615 0.0
C34 C 0.38159 0.22101 0.24847 0.0
C35 C 0.15764 0.21525 0.22612 0.0
C36 C 0.30014 0.20714 0.30532 0.0
C37 C 0.20574 0.18148 0.25073 0.0
O38 O 0.16067 0.1882 0.26336 0.0
O39 O 0.27371 0.18569 0.24335 0.0
O40 O 0.10767 0.21672 0.24334 0.0
O41 O 0.22167 0.20892 0.2299 0.0
O42 O 0.95306 0.07491 0.30068 0.0
Cd43 Cd 0.90429 0.07571 0.26826 0.0
Cd44 Cd 0.04884 0.06709 0.25608 0.0
O45 O 0.02652 0.05905 0.28946 0.0
O46 O 0.79027 0.06864 0.26947 0.0
O47 O 0.89744 0.05879 0.25616 0.0
C48 C 0.82257 0.05855 0.26195 0.0
C49 C 0.06959 0.05737 0.21957 0.0
C50 C 0.99267 0.06531 0.3057 0.0
C51 C 0.01718 0.09369 0.24891 0.0
O52 O 0.06935 0.08573 0.25505 0.0
O53 O 0.94223 0.09084 0.24858 0.0
O54 O 0.12819 0.0584 0.23444 0.0
O55 O -0.00028 0.06133 0.22578 0.0
O56 O 0.69786 0.94897 0.04674 0.0
Cd57 Cd 0.64793 0.94785 0.01452 0.0
Cd58 Cd 0.79128 0.9564 1.0019 0.0
O59 O 0.77086 0.96479 0.03511 0.0
O60 O 0.53447 0.95493 0.01646 0.0
O61 O 0.63989 0.96456 1.00143 0.0
C62 C 0.56599 0.96493 1.00826 0.0
C63 C 0.81603 0.9655 0.96499 0.0
C64 C 0.73759 0.95859 0.05153 0.0
C65 C 0.759 0.92951 0.99652 0.0
O66 O 0.81073 0.93771 1.0018 0.0
O67 O 0.68389 0.93223 0.99604 0.0
O68 O 0.8735 0.96435 0.98019 0.0
O69 O 0.74469 0.96215 0.97119 0.0
O70 O 0.07046 0.82396 0.05299 0.0
Cd71 Cd 0.09182 0.82442 0.01829 0.0
Cd72 Cd 0.94293 0.81652 0.01524 0.0
O73 O 0.98993 0.80823 0.04643 0.0
O74 O 0.20554 0.81781 0.01282 0.0
O75 O 0.09365 0.80704 1.00798 0.0
C76 C 0.17103 0.80735 1.00871 0.0
C77 C 0.91739 0.80789 0.97787 0.0
C78 C 0.0369 0.8142 0.06017 0.0
C79 C 0.96548 0.84253 1.00613 0.0
O80 O 0.91932 0.83492 0.01649 0.0
O81 O 0.03763 0.83934 1.00074 0.0
O82 O 0.86368 0.80716 0.99428 0.0
O83 O 0.98456 0.81317 0.98278 0.0
O84 O 0.65272 0.82288 0.73782 0.0
Cd85 Cd 0.66188 0.82154 0.77259 0.0
Cd86 Cd 0.81159 0.81701 0.76848 0.0
O87 O 0.75879 0.81059 0.73616 0.0
O88 O 0.56881 0.81159 0.78681 0.0
O89 O 0.68553 0.80353 0.77627 0.0
C90 C 0.61371 0.80194 0.7841 0.0
C91 C 0.84105 0.80815 0.8055 0.0
C92 C 0.69705 0.81554 0.72629 0.0
C93 C 0.78653 0.84182 0.78045 0.0
O94 O 0.83342 0.83511 0.76836 0.0
O95 O 0.71853 0.83749 0.78756 0.0
O96 O 0.89096 0.80693 0.78819 0.0
O97 O 0.7754 0.81411 0.80183 0.0
O98 O 0.07837 0.94771 0.72256 0.0
Cd99 Cd 0.08782 0.94875 0.75757 0.0
Cd100 Cd 0.93664 0.95484 0.75621 0.0
O101 O 0.98687 0.96236 0.72464 0.0
O102 O 0.19708 0.95635 0.76532 0.0
O103 O 0.08185 0.9666 0.76496 0.0
C104 C 0.15909 0.96672 0.76676 0.0
C105 C 0.90389 0.96408 0.79256 0.0
C106 C 0.04137 0.9566 0.71306 0.0
C107 C 0.96554 0.92967 0.76939 0.0
O108 O 0.9192 0.93633 0.75694 0.0
O109 O 0.0347 0.93383 0.77568 0.0
O110 O 0.85233 0.96419 0.77552 0.0
O111 O 0.97297 0.95913 0.78877 0.0
O112 O 0.30535 0.57153 0.48188 0.0
Cd113 Cd 0.32153 0.57035 0.51659 0.0
Cd114 Cd 0.17238 0.56496 0.52054 0.0
O115 O 0.2068 0.55803 0.48666 0.0
O116 O 0.42428 0.56063 0.52447 0.0
O117 O 0.30265 0.55246 0.5225 0.0
C118 C 0.37896 0.55092 0.52484 0.0
C119 C 0.16164 0.55665 0.55893 0.0
C120 C 0.25771 0.56358 0.47341 0.0
C121 C 0.20165 0.59011 0.52997 0.0
O122 O 0.14977 0.58311 0.52044 0.0
O123 O 0.27309 0.58605 0.53419 0.0
O124 O 0.10472 0.55497 0.54369 0.0
O125 O 0.22466 0.56256 0.5522 0.0
O126 O 0.92145 0.69631 0.47466 0.0
Cd127 Cd 0.91054 0.69758 0.50961 0.0
Cd128 Cd 0.06168 0.70361 0.50886 0.0
O129 O 0.01609 0.71052 0.47633 0.0
O130 O 0.80143 0.70524 0.51739 0.0
O131 O 0.91665 0.71548 0.51647 0.0
C132 C 0.83952 0.71561 0.51864 0.0
C133 C 0.09343 0.71324 0.54483 0.0
C134 C 0.96177 0.70473 0.46472 0.0
C135 C 0.03215 0.6785 0.52219 0.0
O136 O 0.07958 0.68517 0.51015 0.0
O137 O 0.96254 0.68266 0.52804 0.0
O138 O 0.14568 0.71309 0.52797 0.0
O139 O 0.02422 0.70832 0.54105 0.0
O140 O 0.28921 0.6984 0.79887 0.0
Cd141 Cd 0.34217 0.69785 0.76702 0.0
Cd142 Cd 0.19903 0.70585 0.75388 0.0
O143 O 0.21578 0.71415 0.78729 0.0
O144 O 0.45431 0.70523 0.7703 0.0
O145 O 0.34958 0.71472 0.75453 0.0
C146 C 0.42258 0.71522 0.76213 0.0
C147 C 0.17526 0.71508 0.71712 0.0
C148 C 0.24823 0.70788 0.80373 0.0
C149 C 0.23672 0.67916 0.74793 0.0
O150 O 0.18306 0.68707 0.7532 0.0
O151 O 0.31123 0.68224 0.74788 0.0
O152 O 0.11697 0.7136 0.73194 0.0
O153 O 0.24677 0.71199 0.72365 0.0
O154 O 0.90129 0.57287 0.79886 0.0
Cd155 Cd 0.9166 0.57174 0.76431 0.0
Cd156 Cd 0.06584 0.5665 0.76997 0.0
O157 O 0.00479 0.56009 0.80135 0.0
O158 O 0.82648 0.56182 0.74834 0.0
O159 O 0.94037 0.5537 0.761 0.0
C160 C 0.87042 0.55214 0.7519 0.0
C161 C 0.08812 0.55806 0.7317 0.0
C162 C 0.94182 0.56509 0.8105 0.0
C163 C 0.04789 0.59141 0.75817 0.0
O164 O 0.09208 0.58452 0.7708 0.0
O165 O 0.97997 0.58737 0.75039 0.0
O166 O 0.13659 0.55545 0.74878 0.0
O167 O 0.02839 0.56513 0.73628 0.0
O168 O 0.6786 0.44719 0.54185 0.0
Cd169 Cd 0.66117 0.44758 0.50711 0.0
Cd170 Cd 0.81223 0.45424 0.5057 0.0
O171 O 0.76877 0.46192 0.53781 0.0
O172 O 0.54897 0.45467 0.50159 0.0
O173 O 0.66243 0.46522 0.49815 0.0
C174 C 0.58494 0.46511 0.49848 0.0
C175 C 0.84127 0.46363 0.46937 0.0
C176 C 0.71698 0.4562 0.55043 0.0
C177 C 0.782 0.42852 0.49479 0.0
O178 O 0.8307 0.43571 0.50525 0.0
O179 O 0.71077 0.43226 0.48959 0.0
O180 O 0.89483 0.46355 0.48589 0.0
O181 O 0.77244 0.45871 0.47367 0.0
O182 O 0.10096 0.32162 0.54213 0.0
Cd183 Cd 0.08389 0.31986 0.50768 0.0
Cd184 Cd 0.93474 0.31594 0.51486 0.0
O185 O 0.99477 0.30952 0.54623 0.0
O186 O 0.17173 0.30929 0.49224 0.0
O187 O 0.05654 0.30188 0.50551 0.0
C188 C 0.12596 0.29988 0.49635 0.0
C189 C 0.89942 0.3069 0.47829 0.0
C190 C 0.05944 0.31435 0.55464 0.0
C191 C 0.95989 0.34037 0.50077 0.0
O192 O 0.91565 0.33414 0.51452 0.0
O193 O 0.02532 0.33565 0.49263 0.0
O194 O 0.85203 0.30579 0.4962 0.0
O195 O 0.96552 0.31285 0.48107 0.0
O196 O 0.67015 0.32532 0.23263 0.0
Cd197 Cd 0.65181 0.32465 0.26726 0.0
Cd198 Cd 0.80003 0.31724 0.26944 0.0
O199 O 0.75616 0.31002 0.23681 0.0
O200 O 0.53954 0.31748 0.27265 0.0
O201 O 0.65308 0.30687 0.2751 0.0
C202 C 0.57562 0.30699 0.27503 0.0
C203 C 0.82238 0.30802 0.30648 0.0
C204 C 0.70674 0.31615 0.22403 0.0
C205 C 0.77743 0.34294 0.28016 0.0
O206 O 0.82445 0.33552 0.26966 0.0
O207 O 0.70528 0.33958 0.28526 0.0
O208 O 0.87675 0.30732 0.29024 0.0
O209 O 0.75621 0.31359 0.30158 0.0
O210 O 0.09032 0.44726 0.22723 0.0
Cd211 Cd 0.10181 0.44857 0.26211 0.0
Cd212 Cd 0.95219 0.45513 0.26163 0.0
O213 O -0.00159 0.46188 0.22907 0.0
O214 O 0.21126 0.45623 0.26975 0.0
O215 O 0.09641 0.46655 0.26851 0.0
C216 C 0.17353 0.46664 0.27067 0.0
C217 C 0.92355 0.46466 0.29788 0.0
C218 C 0.05141 0.45586 0.21737 0.0
C219 C 0.97675 0.42993 0.27461 0.0
O220 O 0.93052 0.43683 0.26265 0.0
O221 O 0.04721 0.43377 0.28044 0.0
O222 O 0.87104 0.46494 0.28108 0.0
O223 O 0.99145 0.45938 0.29389 0.0
O224 O 0.8531 0.07126 0.48179 0.0
Cd225 Cd 0.83868 0.07023 0.51627 0.0
Cd226 Cd 0.68863 0.06512 0.51165 0.0
O227 O 0.74714 0.05894 0.47964 0.0
O228 O 0.9289 0.06046 0.53243 0.0
O229 O 0.81514 0.05218 0.51995 0.0
C230 C 0.88494 0.05076 0.52927 0.0
C231 C 0.66895 0.05647 0.54974 0.0
C232 C 0.81029 0.06375 0.47022 0.0
C233 C 0.70726 0.08998 0.52352 0.0
O234 O 0.66026 0.08307 0.51182 0.0
O235 O 0.77711 0.08607 0.52996 0.0
O236 O 0.6199 0.05386 0.53279 0.0
O237 O 0.72824 0.06363 0.54505 0.0
O238 O 0.42073 0.19607 0.47846 0.0
Cd239 Cd 0.38397 0.19545 0.51188 0.0
Cd240 Cd 0.53597 0.20314 0.52026 0.0
O241 O 0.50597 0.21099 0.48702 0.0
O242 O 0.27084 0.20272 0.51269 0.0
O243 O 0.38173 0.21244 0.52369 0.0
C244 C 0.30588 0.21283 0.51905 0.0
C245 C 0.56356 0.21317 0.55613 0.0
C246 C 0.46124 0.20536 0.47217 0.0
C247 C 0.49815 0.17669 0.52868 0.0
O248 O 0.55151 0.1844 0.52221 0.0
O249 O 0.4237 0.17981 0.52967 0.0
O250 O 0.61974 0.21185 0.54058 0.0
O251 O 0.49257 0.20929 0.55094 0.0
O252 O 0.85189 0.19729 0.78918 0.0
Cd253 Cd 0.83736 0.20033 0.75494 0.0
Cd254 Cd 0.68919 0.20459 0.76228 0.0
O255 O 0.74816 0.20972 0.79461 0.0
O256 O 0.92683 0.21085 0.74026 0.0
O257 O 0.8137 0.21848 0.75459 0.0
C258 C 0.88285 0.22035 0.74514 0.0
C259 C 0.65394 0.21463 0.7268 0.0
C260 C 0.81034 0.20405 0.80271 0.0
C261 C 0.71159 0.18049 0.7457 0.0
O262 O 0.66785 0.18648 0.75997 0.0
O263 O 0.77758 0.18524 0.73806 0.0
O264 O 0.60655 0.21525 0.74481 0.0
O265 O 0.72035 0.20868 0.72901 0.0
O266 O 0.40894 0.07505 0.7899 0.0
Cd267 Cd 0.4147 0.07278 0.75528 0.0
Cd268 Cd 0.56473 0.06799 0.75817 0.0
O269 O 0.51392 0.06254 0.79149 0.0
O270 O 0.32102 0.06234 0.74261 0.0
O271 O 0.43861 0.0547 0.75338 0.0
C272 C 0.36628 0.05281 0.74624 0.0
C273 C 0.58269 0.0584 0.72092 0.0
C274 C 0.45369 0.06782 0.80154 0.0
C275 C 0.54111 0.09251 0.74428 0.0
O276 O 0.5893 0.08603 0.75642 0.0
O277 O 0.47174 0.08815 0.73844 0.0
O278 O 0.63456 0.05669 0.73758 0.0
O279 O 0.52125 0.06516 0.72551 0.0
O280 O 0.20596 0.94736 0.54774 0.0
Cd281 Cd 0.14895 0.94641 0.51654 0.0
Cd282 Cd 0.29063 0.95523 0.50124 0.0
O283 O 0.27378 0.96342 0.53492 0.0
O284 O 0.03709 0.95379 0.52052 0.0
O285 O 0.13992 0.96301 0.5032 0.0
C286 C 0.06789 0.96365 0.51149 0.0
C287 C 0.31244 0.96504 0.46483 0.0
C288 C 0.24436 0.95717 0.55188 0.0
C289 C 0.25447 0.9283 0.49525 0.0
O290 O 0.30805 0.93643 0.49925 0.0
O291 O 0.17961 0.93094 0.49728 0.0
O292 O 0.37132 0.96341 0.4794 0.0
O293 O 0.24134 0.9618 0.47146 0.0
O294 O 0.58044 0.82382 0.54569 0.0
Cd295 Cd 0.57739 0.82157 0.51095 0.0
Cd296 Cd 0.42552 0.81747 0.51407 0.0
O297 O 0.47445 0.81152 0.54718 0.0
O298 O 0.67232 0.81124 0.49904 0.0
O299 O 0.55332 0.80359 0.50844 0.0
C300 C 0.6265 0.80171 0.50201 0.0
C301 C 0.39357 0.80783 0.47803 0.0
C302 C 0.53515 0.81664 0.55727 0.0
C303 C 0.45753 0.84171 0.49906 0.0
O304 O 0.40828 0.83569 0.51166 0.0
O305 O 0.52575 0.83698 0.49331 0.0
O306 O 0.34249 0.80766 0.49521 0.0
O307 O 0.46217 0.81301 0.4815 0.0
O308 O 0.21449 0.82472 0.22142 0.0
Cd309 Cd 0.15418 0.82599 0.25209 0.0
Cd310 Cd 0.29435 0.8177 0.26888 0.0
O311 O 0.27954 0.80881 0.2358 0.0
O312 O 0.04333 0.81847 0.24721 0.0
O313 O 0.14359 0.80956 0.26633 0.0
C314 C 0.07297 0.80875 0.25709 0.0
C315 C 0.31512 0.8083 0.30567 0.0
C316 C 0.2521 0.81475 0.2182 0.0
C317 C 0.25515 0.84471 0.27303 0.0
O318 O 0.3098 0.83661 0.27002 0.0
O319 O 0.18078 0.84187 0.27054 0.0
O320 O 0.37459 0.80994 0.29133 0.0
O321 O 0.24403 0.81134 0.29866 0.0
O322 O 0.59386 0.95124 0.22767 0.0
Cd323 Cd 0.5785 0.95241 0.26225 0.0
Cd324 Cd 0.42804 0.9566 0.2561 0.0
O325 O 0.4867 0.96325 0.22465 0.0
O326 O 0.6684 0.96225 0.27822 0.0
O327 O 0.5539 0.97039 0.26594 0.0
C328 C 0.62388 0.9719 0.27512 0.0
C329 C 0.39349 0.96558 0.2927 0.0
C330 C 0.55115 0.95861 0.21571 0.0
C331 C 0.45394 0.932 0.26939 0.0
O332 O 0.4075 0.9384 0.25656 0.0
O333 O 0.52113 0.93648 0.27671 0.0
O334 O 0.34576 0.96672 0.27487 0.0
O335 O 0.45962 0.95965 0.28976 0.0
O336 O 0.7889 0.5748 0.97817 0.0
Cd337 Cd 0.84357 0.57551 1.00976 0.0
Cd338 Cd 0.70192 0.56717 0.02373 0.0
O339 O 0.71922 0.55879 0.99035 0.0
O340 O 0.95626 0.56829 1.00614 0.0
O341 O 0.85267 0.55866 0.02218 0.0
C342 C 0.92546 0.55826 0.01443 0.0
C343 C 0.6835 0.5579 0.06076 0.0
C344 C 0.7497 0.5651 0.97365 0.0
C345 C 0.73631 0.59392 0.02939 0.0
O346 O 0.68317 0.58589 0.02429 0.0
O347 O 0.81113 0.591 0.02915 0.0
O348 O 0.62368 0.55899 0.04632 0.0
O349 O 0.75347 0.56147 0.05376 0.0
O350 O 0.39987 0.70007 0.97937 0.0
Cd351 Cd 0.41705 0.70151 0.01388 0.0
Cd352 Cd 0.56541 0.70628 1.00691 0.0
O353 O 0.50377 0.71268 0.97579 0.0
O354 O 0.32785 0.71156 0.02993 0.0
O355 O 0.44116 0.71956 0.01655 0.0
C356 C 0.3718 0.72119 0.026 0.0
C357 C 0.5974 0.71525 0.04384 0.0
C358 C 0.43997 0.70768 0.96718 0.0
C359 C 0.54567 0.68158 0.01998 0.0
O360 O 0.5886 0.68818 1.0065 0.0
O361 O 0.47941 0.68592 0.02834 0.0
O362 O 0.64462 0.71684 0.02603 0.0
O363 O 0.53355 0.70879 0.04083 0.0
O364 O 0.85239 0.7006 0.28442 0.0
Cd365 Cd 0.8438 0.7018 0.24964 0.0
Cd366 Cd 0.69379 0.70618 0.25299 0.0
O367 O 0.74483 0.71261 0.28561 0.0
O368 O 0.93636 0.71181 0.23528 0.0
O369 O 0.8194 0.7198 0.24582 0.0
C370 C 0.89103 0.72142 0.23786 0.0
C371 C 0.6684 0.71505 0.21565 0.0
C372 C 0.80669 0.70783 0.29574 0.0
C373 C 0.71952 0.68138 0.24137 0.0
O374 O 0.67139 0.68809 0.25305 0.0
O375 O 0.78799 0.68574 0.23471 0.0
O376 O 0.61724 0.71644 0.23261 0.0
O377 O 0.73287 0.70889 0.21981 0.0
O378 O 0.41575 0.57504 0.29672 0.0
Cd379 Cd 0.42956 0.57274 0.2622 0.0
Cd380 Cd 0.5796 0.56894 0.26881 0.0
O381 O 0.52159 0.56284 0.30061 0.0
O382 O 0.33911 0.56218 0.24811 0.0
O383 O 0.45492 0.55469 0.26072 0.0
C384 C 0.38412 0.55271 0.25244 0.0
C385 C 0.61416 0.55924 0.23288 0.0
C386 C 0.4577 0.56781 0.30922 0.0
C387 C 0.55226 0.5931 0.25304 0.0
O388 O 0.59727 0.5872 0.26711 0.0
O389 O 0.48665 0.58816 0.24554 0.0
O390 O 0.66277 0.55868 0.25062 0.0
O391 O 0.54728 0.565 0.23556 0.0
O392 O 0.15675 0.45032 0.0374 0.0
Cd393 Cd 0.16153 0.45172 1.00261 0.0
Cd394 Cd 0.31349 0.4555 1.00515 0.0
O395 O 0.26569 0.46204 0.03802 0.0
O396 O 0.06747 0.46189 0.98967 0.0
O397 O 0.1867 0.46965 0.99861 0.0
C398 C 0.1138 0.47142 0.99178 0.0
C399 C 0.34176 0.46473 0.9685 0.0
C400 C 0.20392 0.45743 0.04846 0.0
C401 C 0.28062 0.43095 0.99248 0.0
O402 O 0.33163 0.43726 1.00391 0.0
O403 O 0.21201 0.4356 0.98681 0.0
O404 O 0.39357 0.46539 0.98545 0.0
O405 O 0.27485 0.45914 0.9724 0.0
O406 O 0.5827 0.32585 0.04756 0.0
Cd407 Cd 0.59514 0.32464 0.01277 0.0
Cd408 Cd 0.44243 0.31864 0.01247 0.0
O409 O 0.48718 0.31179 0.0453 0.0
O410 O 0.70377 0.31665 1.00545 0.0
O411 O 0.5873 0.30676 1.00579 0.0
C412 C 0.66451 0.30639 1.00404 0.0
C413 C 0.41153 0.30864 0.97682 0.0
C414 C 0.54174 0.31741 0.05716 0.0
C415 C 0.47432 0.3438 0.99905 0.0
O416 O 0.42426 0.33708 1.01006 0.0
O417 O 0.54556 0.33981 0.99461 0.0
O418 O 0.35891 0.30896 0.99357 0.0
O419 O 0.4807 0.31358 0.98055 0.0
O420 O 0.20646 0.32393 0.72459 0.0
Cd421 Cd 0.15803 0.32445 0.75706 0.0
Cd422 Cd 0.30318 0.31603 0.76861 0.0
O423 O 0.28204 0.30816 0.73502 0.0
O424 O 0.04482 0.31717 0.75567 0.0
O425 O 0.15268 0.30749 0.76901 0.0
C426 C 0.07796 0.30711 0.76303 0.0
C427 C 0.32856 0.30647 0.805 0.0
C428 C 0.24731 0.31453 0.7191 0.0
C429 C 0.26905 0.34263 0.77601 0.0
O430 O 0.32135 0.33471 0.76976 0.0
O431 O 0.1943 0.33969 0.77662 0.0
O432 O 0.38588 0.30782 0.78981 0.0
O433 O 0.25715 0.30989 0.79905 0.0
O434 O 0.58026 0.44771 0.72516 0.0
Cd435 Cd 0.59244 0.44841 0.76005 0.0
Cd436 Cd 0.44354 0.45553 0.76002 0.0
O437 O 0.49194 0.46278 0.72808 0.0
O438 O 0.70323 0.45559 0.76757 0.0
O439 O 0.58949 0.46623 0.76765 0.0
C440 C 0.66673 0.46608 0.76929 0.0
C441 C 0.41672 0.46473 0.79676 0.0
C442 C 0.54396 0.45676 0.71601 0.0
C443 C 0.4655 0.43 0.77141 0.0
O444 O 0.42009 0.43723 0.7599 0.0
O445 O 0.53618 0.43356 0.77761 0.0
O446 O 0.3642 0.46542 0.78002 0.0
O447 O 0.48329 0.45911 0.79255 0.0
H448 H 0.99822 0.05914 0.07212 0.0
H449 H 0.24302 0.04588 0.07707 0.0
H450 H 0.98081 0.05605 0.11413 0.0
H451 H 0.22504 0.04208 0.11876 0.0
H452 H 0.2094 0.05732 0.19406 0.0
H453 H 0.22238 0.05429 0.15202 0.0
H454 H 0.96974 0.04431 0.14807 0.0
H455 H 0.95648 0.04798 0.18996 0.0
C456 C 0.04709 0.05507 0.08207 0.0
C457 C 0.12194 0.0528 0.07145 0.0
C458 C 0.03742 0.05329 0.10623 0.0
C459 C 0.10213 0.04902 0.12016 0.0
C460 C 0.17462 0.04574 0.10891 0.0
C461 C 0.18467 0.04776 0.08492 0.0
C462 C 0.15719 0.05422 0.18427 0.0
C463 C 0.08189 0.053 0.19527 0.0
C464 C 0.16446 0.05243 0.16006 0.0
C465 C 0.09678 0.04917 0.14634 0.0
C466 C 0.02275 0.04712 0.1578 0.0
C467 C 0.01528 0.0491 0.1819 0.0
H468 H 0.26693 0.22562 0.19706 0.0
H469 H 0.01701 0.21473 0.201 0.0
H470 H 0.25336 0.22919 0.15516 0.0
H471 H 0.00377 0.21749 0.1588 0.0
H472 H 0.98518 0.22491 0.08285 0.0
H473 H 0.99782 0.22872 0.1247 0.0
H474 H 0.24864 0.21761 0.12154 0.0
H475 H 0.23633 0.21457 0.07944 0.0
C476 C 0.20855 0.22418 0.1889 0.0
C477 C 0.14292 0.21993 0.20221 0.0
C478 C 0.20095 0.22605 0.16478 0.0
C479 C 0.12797 0.22339 0.15318 0.0
C480 C 0.06089 0.2198 0.16689 0.0
C481 C 0.06815 0.2182 0.19119 0.0
C482 C 0.04357 0.22362 0.09108 0.0
C483 C 0.10983 0.21944 0.07792 0.0
C484 C 0.05066 0.22565 0.11519 0.0
C485 C 0.1238 0.22326 0.12692 0.0
C486 C 0.19137 0.21973 0.11335 0.0
C487 C 0.18459 0.21796 0.0891 0.0
H488 H 0.00691 0.9747 0.82336 0.0
H489 H 0.75961 0.96289 0.81593 0.0
H490 H 0.98564 0.97825 0.86497 0.0
H491 H 0.73879 0.96571 0.85789 0.0
H492 H 0.70733 0.97457 0.93356 0.0
H493 H 0.72582 0.97744 0.8916 0.0
H494 H 0.97611 0.96658 0.89855 0.0
H495 H 0.95804 0.96438 0.9406 0.0
C496 C 0.94749 0.97301 0.83066 0.0
C497 C 0.88489 0.9685 0.81644 0.0
C498 C 0.93547 0.9749 0.85463 0.0
C499 C 0.86097 0.97203 0.86518 0.0
C500 C 0.79691 0.96816 0.85058 0.0
C501 C 0.80861 0.96652 0.82643 0.0
C502 C 0.76676 0.97306 0.92613 0.0
C503 C 0.83124 0.96922 0.9404 0.0
C504 C 0.77723 0.97458 0.90197 0.0
C505 C 0.85219 0.97209 0.89133 0.0
C506 C 0.91762 0.96879 0.90591 0.0
C507 C 0.9074 0.96748 0.93014 0.0
H508 H 0.73484 0.79777 0.83556 0.0
H509 H 0.98355 0.80906 0.82964 0.0
H510 H 0.75253 0.7943 0.87736 0.0
H511 H 0.00083 0.80642 0.87173 0.0
H512 H 0.02741 0.79861 0.94746 0.0
H513 H 0.01122 0.79519 0.90561 0.0
H514 H 0.75969 0.80567 0.91112 0.0
H515 H 0.77561 0.80828 0.95324 0.0
C516 C 0.79381 0.79934 0.84326 0.0
C517 C 0.85793 0.80366 0.82942 0.0
C518 C 0.80378 0.79752 0.86733 0.0
C519 C 0.87765 0.80031 0.87835 0.0
C520 C 0.94313 0.80401 0.8641 0.0
C521 C 0.93352 0.80554 0.83987 0.0
C522 C 0.96819 0.79987 0.93972 0.0
C523 C 0.90272 0.80372 0.95357 0.0
C524 C 0.95903 0.79806 0.91562 0.0
C525 C 0.88451 0.80036 0.90456 0.0
C526 C 0.81796 0.80363 0.91878 0.0
C527 C 0.82684 0.80517 0.94303 0.0
H528 H 0.27425 0.55934 0.59325 0.0
H529 H 0.0332 0.54553 0.58125 0.0
H530 H 0.25776 0.55642 0.63499 0.0
H531 H 0.01757 0.54208 0.62333 0.0
H532 H 0.97652 0.55835 0.69711 0.0
H533 H 0.99626 0.5549 0.65574 0.0
H534 H 0.24356 0.54411 0.66886 0.0
H535 H 0.22403 0.54809 0.71078 0.0
C536 C 0.21809 0.55542 0.59948 0.0
C537 C 0.15445 0.55286 0.58386 0.0
C538 C 0.20895 0.55361 0.62356 0.0
C539 C 0.136 0.54912 0.63279 0.0
C540 C 0.0741 0.5458 0.61698 0.0
C541 C 0.08311 0.5477 0.5928 0.0
C542 C 0.03508 0.5551 0.6913 0.0
C543 C 0.0992 0.5537 0.70726 0.0
C544 C 0.04616 0.55298 0.66743 0.0
C545 C 0.12174 0.54931 0.65869 0.0
C546 C 0.18479 0.54715 0.67486 0.0
C547 C 0.17361 0.54931 0.69893 0.0
H548 H 0.23703 0.71221 0.56855 0.0
H549 H 0.98975 0.72421 0.57499 0.0
H550 H 0.25647 0.71528 0.6105 0.0
H551 H 0.00967 0.72798 0.61659 0.0
H552 H 0.03425 0.71392 0.69227 0.0
H553 H 0.01779 0.71618 0.65019 0.0
H554 H 0.26796 0.72724 0.64413 0.0
H555 H 0.28487 0.72434 0.68614 0.0
C556 C 0.18777 0.71594 0.57882 0.0
C557 C 0.11184 0.71789 0.56858 0.0
C558 C 0.19868 0.71772 0.60295 0.0
C559 C 0.13416 0.72169 0.61728 0.0
C560 C 0.06013 0.72456 0.60645 0.0
C561 C 0.04889 0.72254 0.5825 0.0
C562 C 0.08521 0.71708 0.682 0.0
C563 C 0.16091 0.71886 0.69252 0.0
C564 C 0.0759 0.71842 0.65775 0.0
C565 C 0.14181 0.72179 0.64344 0.0
C566 C 0.21625 0.72434 0.65433 0.0
C567 C 0.2258 0.7228 0.67851 0.0
H568 H 0.78037 0.46399 0.32169 0.0
H569 H 0.02973 0.47491 0.32826 0.0
H570 H 0.76221 0.46658 0.36374 0.0
H571 H 0.01119 0.47825 0.37007 0.0
H572 H 0.984 0.4631 0.44525 0.0
H573 H 0.00181 0.46628 0.40333 0.0
H574 H 0.75266 0.47797 0.39775 0.0
H575 H 0.73445 0.47405 0.43938 0.0
C576 C 0.83041 0.46741 0.33204 0.0
C577 C 0.90645 0.46917 0.32178 0.0
C578 C 0.82025 0.46892 0.35624 0.0
C579 C 0.88566 0.47246 0.37065 0.0
C580 C 0.95998 0.47517 0.35985 0.0
C581 C 0.97044 0.4734 0.33579 0.0
C582 C 0.93379 0.46662 0.4351 0.0
C583 C 0.85783 0.46824 0.4455 0.0
C584 C 0.94377 0.46848 0.41098 0.0
C585 C 0.87827 0.47223 0.39681 0.0
C586 C 0.80394 0.47474 0.40777 0.0
C587 C 0.79366 0.47263 0.43173 0.0
H588 H 0.96387 0.30703 0.33124 0.0
H589 H 0.70899 0.29933 0.3365 0.0
H590 H 0.97838 0.30388 0.37326 0.0
H591 H 0.72349 0.29543 0.37826 0.0
H592 H 0.75667 0.30892 0.45456 0.0
H593 H 0.73798 0.30648 0.41245 0.0
H594 H 0.98066 0.292 0.4066 0.0
H595 H 2e-05 0.29523 0.44842 0.0
C596 C 0.9115 0.30424 0.34129 0.0
C597 C 0.83534 0.30351 0.33065 0.0
C598 C 0.91957 0.30239 0.36549 0.0
C599 C 0.85181 0.29953 0.37953 0.0
C600 C 0.77672 0.29795 0.36836 0.0
C601 C 0.76848 0.30005 0.34432 0.0
C602 C 0.80491 0.30489 0.44429 0.0
C603 C 0.87966 0.30228 0.45467 0.0
C604 C 0.79452 0.30348 0.42005 0.0
C605 C 0.85836 0.29922 0.40574 0.0
C606 C 0.93086 0.29566 0.4167 0.0
C607 C 0.94167 0.29733 0.44077 0.0
H608 H 0.53525 0.04571 0.57026 0.0
H609 H 0.77902 0.05761 0.58475 0.0
H610 H 0.51429 0.04203 0.61216 0.0
H611 H 0.75758 0.0545 0.62614 0.0
H612 H 0.71592 0.04716 0.70115 0.0
H613 H 0.73647 0.04247 0.65962 0.0
H614 H 0.49367 0.05485 0.64467 0.0
H615 H 0.47252 0.05894 0.68578 0.0
C616 C 0.58463 0.04736 0.5823 0.0
C617 C 0.65819 0.05216 0.57419 0.0
C618 C 0.57259 0.04535 0.60636 0.0
C619 C 0.63382 0.04813 0.62277 0.0
C620 C 0.70905 0.05212 0.61428 0.0
C621 C 0.72106 0.05406 0.59039 0.0
C622 C 0.66655 0.04858 0.68901 0.0
C623 C 0.59318 0.05361 0.69676 0.0
C624 C 0.67835 0.046 0.66514 0.0
C625 C 0.61715 0.04845 0.64854 0.0
C626 C 0.54214 0.0527 0.65672 0.0
C627 C 0.53031 0.0552 0.68044 0.0
H628 H 0.4556 0.22339 0.58629 0.0
H629 H 0.70635 0.21303 0.58033 0.0
H630 H 0.47408 0.22756 0.62784 0.0
H631 H 0.72451 0.2166 0.62209 0.0
H632 H 0.75444 0.22598 0.69645 0.0
H633 H 0.73259 0.22926 0.65474 0.0
H634 H 0.48703 0.21622 0.66223 0.0
H635 H 0.5085 0.21362 0.70421 0.0
C636 C 0.51508 0.22215 0.59386 0.0
C637 C 0.57951 0.21783 0.58007 0.0
C638 C 0.52553 0.22443 0.61778 0.0
C639 C 0.60043 0.22225 0.62866 0.0
C640 C 0.66603 0.21856 0.61448 0.0
C641 C 0.65579 0.21647 0.59044 0.0
C642 C 0.695 0.22421 0.68922 0.0
C643 C 0.63306 0.21956 0.7035 0.0
C644 C 0.68271 0.22592 0.66523 0.0
C645 C 0.60863 0.22274 0.65478 0.0
C646 C 0.54483 0.21889 0.66949 0.0
C647 C 0.55681 0.2174 0.69364 0.0
H648 H 0.20104 0.97438 0.43442 0.0
H649 H 0.453 0.9646 0.4397 0.0
H650 H 0.21695 0.97795 0.39256 0.0
H651 H 0.46852 0.96752 0.39775 0.0
H652 H 0.49545 0.97657 0.32312 0.0
H653 H 0.47508 0.97981 0.36488 0.0
H654 H 0.22945 0.96668 0.35813 0.0
H655 H 0.24936 0.96418 0.31602 0.0
C656 C 0.26017 0.97312 0.42664 0.0
C657 C 0.32578 0.96917 0.44038 0.0
C658 C 0.26916 0.97504 0.40254 0.0
C659 C 0.34376 0.97289 0.39142 0.0
C660 C 0.41025 0.96948 0.40549 0.0
C661 C 0.40148 0.96775 0.42967 0.0
C662 C 0.43638 0.97474 0.33054 0.0
C663 C 0.37389 0.97014 0.3164 0.0
C664 C 0.42491 0.97643 0.35457 0.0
C665 C 0.35118 0.97324 0.36525 0.0
C666 C 0.28698 0.96935 0.35071 0.0
C667 C 0.2981 0.96792 0.32649 0.0
H668 H 0.49559 0.7967 0.44766 0.0
H669 H 0.25001 0.8094 0.45447 0.0
H670 H 0.47558 0.79351 0.40588 0.0
H671 H 0.23055 0.80693 0.41237 0.0
H672 H 0.20278 0.79916 0.33605 0.0
H673 H 0.21799 0.79562 0.37795 0.0
H674 H 0.4699 0.80589 0.37305 0.0
H675 H 0.45508 0.80879 0.33108 0.0
C676 C 0.43672 0.79862 0.44019 0.0
C677 C 0.37432 0.80331 0.45426 0.0
C678 C 0.42546 0.79695 0.41614 0.0
C679 C 0.35203 0.80023 0.40539 0.0
C680 C 0.28786 0.80419 0.41985 0.0
C681 C 0.29876 0.80561 0.44407 0.0
C682 C 0.26181 0.80041 0.3439 0.0
C683 C 0.32772 0.8043 0.33024 0.0
C684 C 0.27041 0.79849 0.36802 0.0
C685 C 0.34493 0.80059 0.37921 0.0
C686 C 0.41169 0.80396 0.36523 0.0
C687 C 0.4033 0.80569 0.34105 0.0
H688 H 0.79846 0.54928 0.09074 0.0
H689 H 0.54453 0.55799 0.08667 0.0
H690 H 0.78622 0.54604 0.13279 0.0
H691 H 0.53255 0.55537 0.12882 0.0
H692 H 0.51297 0.54711 0.2039 0.0
H693 H 0.5311 0.54333 0.16221 0.0
H694 H 0.77409 0.55779 0.16673 0.0
H695 H 0.75658 0.56085 0.20878 0.0
C696 C 0.73969 0.55037 0.09884 0.0
C697 C 0.67246 0.55393 0.08539 0.0
C698 C 0.7328 0.54863 0.12304 0.0
C699 C 0.65868 0.55059 0.13453 0.0
C700 C 0.59056 0.55358 0.12077 0.0
C701 C 0.59728 0.55513 0.0965 0.0
C702 C 0.57111 0.5491 0.19603 0.0
C703 C 0.63347 0.55425 0.2095 0.0
C704 C 0.58123 0.5471 0.17203 0.0
C705 C 0.65338 0.55052 0.16074 0.0
C706 C 0.71775 0.55493 0.17465 0.0
C707 C 0.70803 0.55669 0.19884 0.0
H708 H 0.52703 0.71535 0.19083 0.0
H709 H 0.77975 0.72457 0.18609 0.0
H710 H 0.51286 0.71831 0.14872 0.0
H711 H 0.76546 0.72832 0.14427 0.0
H712 H 0.73945 0.71428 0.06819 0.0
H713 H 0.75554 0.71706 0.1103 0.0
H714 H 0.50844 0.72983 0.11502 0.0
H715 H 0.49191 0.72624 0.07321 0.0
C716 C 0.5788 0.71847 0.18086 0.0
C717 C 0.65443 0.71966 0.19165 0.0
C718 C 0.57097 0.7202 0.15662 0.0
C719 C 0.6384 0.7234 0.1427 0.0
C720 C 0.71262 0.7255 0.15405 0.0
C721 C 0.7207 0.7235 0.17813 0.0
C722 C 0.68957 0.718 0.07821 0.0
C723 C 0.61457 0.72003 0.06752 0.0
C724 C 0.69845 0.71961 0.10246 0.0
C725 C 0.6328 0.7235 0.11646 0.0
C726 C 0.55974 0.72647 0.10518 0.0
C727 C 0.55048 0.72459 0.0811 0.0
H728 H 0.52572 0.47466 0.82662 0.0
H729 H 0.27465 0.46451 0.8212 0.0
H730 H 0.50951 0.47834 0.8684 0.0
H731 H 0.25874 0.4674 0.86327 0.0
H732 H 0.2349 0.47529 0.93881 0.0
H733 H 0.25182 0.47894 0.89703 0.0
H734 H 0.50029 0.46684 0.90211 0.0
H735 H 0.4838 0.46398 0.94415 0.0
C736 C 0.4666 0.47338 0.83441 0.0
C737 C 0.40139 0.46929 0.82073 0.0
C738 C 0.45745 0.47534 0.85846 0.0
C739 C 0.38325 0.47295 0.8696 0.0
C740 C 0.31676 0.46951 0.85552 0.0
C741 C 0.32562 0.46782 0.8313 0.0
C742 C 0.29374 0.47376 0.931 0.0
C743 C 0.35811 0.46935 0.94465 0.0
C744 C 0.30326 0.47569 0.90695 0.0
C745 C 0.37694 0.47296 0.8958 0.0
C746 C 0.44273 0.46921 0.90987 0.0
C747 C 0.43355 0.46754 0.93407 0.0
H748 H 0.47024 0.30761 0.82952 0.0
H749 H 0.2204 0.29682 0.83587 0.0
H750 H 0.4874 0.3053 0.87159 0.0
H751 H 0.23802 0.29386 0.87784 0.0
H752 H 0.26794 0.30933 0.95309 0.0
H753 H 0.24873 0.30601 0.91122 0.0
H754 H 0.49623 0.2936 0.90537 0.0
H755 H 0.51588 0.29761 0.94691 0.0
C756 C 0.41969 0.30434 0.83983 0.0
C757 C 0.34392 0.30249 0.82941 0.0
C758 C 0.42938 0.30297 0.86406 0.0
C759 C 0.36377 0.29952 0.87843 0.0
C760 C 0.28944 0.29684 0.8676 0.0
C761 C 0.2795 0.29841 0.84345 0.0
C762 C 0.31741 0.3056 0.9429 0.0
C763 C 0.39344 0.30381 0.95318 0.0
C764 C 0.30663 0.30368 0.91881 0.0
C765 C 0.3714 0.29972 0.90458 0.0
C766 C 0.44557 0.297 0.91545 0.0
C767 C 0.45666 0.29916 0.93937 0.0
H768 H 0.27878 0.03122 0.03227 0.0
H769 H 0.52736 0.04309 0.02866 0.0
H770 H 0.3211 1.00998 0.02783 0.0
H771 H 0.57032 0.02167 0.02475 0.0
H772 H 0.60697 0.98585 0.98533 0.0
H773 H 0.56089 1.0066 0.99346 0.0
H774 H 0.39124 0.99246 0.04422 0.0
H775 H 0.43694 0.97155 0.03577 0.0
C776 C 0.34283 0.02926 0.03104 0.0
C777 C 0.39978 0.03885 0.03059 0.0
C778 C 0.36707 0.01704 0.02857 0.0
C779 C 0.44896 0.0141 0.02551 0.0
C780 C 0.50649 0.02365 0.02655 0.0
C781 C 0.48215 0.03591 0.02912 0.0
C782 C 0.55879 0.98713 0.99795 0.0
C783 C 0.52536 0.97703 1.00984 0.0
C784 C 0.53326 0.99906 1.00288 0.0
C785 C 0.47365 1.00126 0.01989 0.0
C786 C 0.43737 0.99111 0.03103 0.0
C787 C 0.46298 0.97911 0.02605 0.0
H788 H 0.81122 0.3 0.02245 0.0
H789 H 0.60466 0.28526 0.98595 0.0
H790 H 0.86043 0.2792 0.02955 0.0
H791 H 0.65495 0.26451 0.99207 0.0
H792 H 0.71529 0.22839 0.02702 0.0
H793 H 0.66883 0.24956 0.02177 0.0
H794 H 0.91636 0.26147 0.01345 0.0
H795 H 0.9622 0.24068 0.01977 0.0
C796 C 0.77784 0.29232 0.01527 0.0
C797 C 0.70444 0.29425 1.00356 0.0
C798 C 0.80562 0.28036 0.01945 0.0
C799 C 0.76106 0.27008 1.01173 0.0
C800 C 0.68978 0.27212 0.99891 0.0
C801 C 0.66162 0.28404 0.99503 0.0
C802 C 0.75956 0.23559 0.02451 0.0
C803 C 0.8423 0.2328 0.02376 0.0
C804 C 0.73307 0.24772 0.02117 0.0
C805 C 0.78875 0.25729 0.01686 0.0
C806 C 0.87152 0.25447 0.01693 0.0
C807 C 0.89783 0.24245 0.02046 0.0
H808 H 0.28996 0.24147 0.24444 0.0
H809 H 0.53822 0.22955 0.24922 0.0
H810 H 0.33086 0.26248 0.25161 0.0
H811 H 0.58031 0.25086 0.25537 0.0
H812 H 0.61959 0.28581 0.29618 0.0
H813 H 0.57338 0.26521 0.28664 0.0
H814 H 0.39615 0.28051 0.23929 0.0
H815 H 0.44096 0.30119 0.24967 0.0
C816 C 0.35383 0.2434 0.2464 0.0
C817 C 0.41087 0.23381 0.24653 0.0
C818 C 0.37734 0.25552 0.25046 0.0
C819 C 0.45875 0.25841 0.25459 0.0
C820 C 0.51669 0.24893 0.25293 0.0
C821 C 0.49295 0.23673 0.24898 0.0
C822 C 0.56916 0.28476 0.28424 0.0
C823 C 0.53316 0.2951 0.27388 0.0
C824 C 0.54374 0.27293 0.27837 0.0
C825 C 0.48232 0.27111 0.26172 0.0
C826 C 0.44347 0.28152 0.25224 0.0
C827 C 0.46843 0.2934 0.25835 0.0
H828 H 0.78013 0.9803 0.27784 0.0
H829 H 0.5316 0.99224 0.2809 0.0
H830 H 0.82381 1.00175 0.27585 0.0
H831 H 0.57469 0.01354 0.27835 0.0
H832 H 0.69192 0.0518 0.28872 0.0
H833 H 0.64481 0.03081 0.29602 0.0
H834 H 0.81577 0.01715 0.24512 0.0
H835 H 0.86311 0.03794 0.23816 0.0
C836 C 0.73506 0.98749 0.27864 0.0
C837 C 0.65255 0.98458 0.27932 0.0
C838 C 0.75983 0.99978 0.27717 0.0
C839 C 0.70256 1.00937 0.27643 0.0
C840 C 0.62043 1.00643 0.27885 0.0
C841 C 0.59577 0.99419 0.28025 0.0
C842 C 0.71791 0.04432 0.27873 0.0
C843 C 0.78106 0.04653 0.26285 0.0
C844 C 0.69155 0.03229 0.28305 0.0
C845 C 0.72788 0.02225 0.27155 0.0
C846 C 0.78816 0.02459 0.25483 0.0
C847 C 0.81442 0.03655 0.25057 0.0
H848 H 0.46439 0.74155 0.03011 0.0
H849 H 0.21555 0.72969 0.02835 0.0
H850 H 0.42207 0.76273 0.0254 0.0
H851 H 0.17242 0.7511 0.02444 0.0
H852 H 0.12819 0.78662 0.98582 0.0
H853 H 0.17691 0.76591 0.99329 0.0
H854 H 0.356 0.78043 0.04092 0.0
H855 H 0.3081 0.80126 0.03284 0.0
C856 C 0.40026 0.74352 0.02933 0.0
C857 C 0.34322 0.73393 0.02936 0.0
C858 C 0.37601 0.75571 0.02667 0.0
C859 C 0.29395 0.75864 0.02404 0.0
C860 C 0.23638 0.74912 0.02581 0.0
C861 C 0.2608 0.73687 0.02845 0.0
C862 C 0.17942 0.7854 0.99742 0.0
C863 C 0.21486 0.79555 1.0086 0.0
C864 C 0.20635 0.77351 1.00206 0.0
C865 C 0.269 0.77144 0.0182 0.0
C866 C 0.30757 0.78167 0.0284 0.0
C867 C 0.28085 0.79363 0.02359 0.0
H868 H 0.45702 0.79354 0.78331 0.0
H869 H 0.70429 0.7815 0.79053 0.0
H870 H 0.41399 0.77213 0.77919 0.0
H871 H 0.66213 0.76028 0.78578 0.0
H872 H 0.54714 0.72186 0.79126 0.0
H873 H 0.59049 0.74277 0.80069 0.0
H874 H 0.42671 0.75702 0.74842 0.0
H875 H 0.38265 0.73626 0.73942 0.0
C876 C 0.50183 0.78632 0.78457 0.0
C877 C 0.58398 0.78921 0.78707 0.0
C878 C 0.47752 0.77406 0.78185 0.0
C879 C 0.53486 0.76447 0.78165 0.0
C880 C 0.61624 0.76737 0.78584 0.0
C881 C 0.64042 0.77957 0.78851 0.0
C882 C 0.52185 0.72946 0.78146 0.0
C883 C 0.46174 0.72739 0.76453 0.0
C884 C 0.54612 0.74146 0.78698 0.0
C885 C 0.51089 0.75163 0.77565 0.0
C886 C 0.45345 0.74947 0.758 0.0
C887 C 0.42913 0.73753 0.75256 0.0
H888 H 0.10415 0.98792 0.7857 0.0
H889 H 0.3036 0.97273 0.74665 0.0
H890 H 0.15455 1.00857 0.77853 0.0
H891 H 0.35289 0.99344 0.73855 0.0
H892 H 0.4571 0.03213 0.74763 0.0
H893 H 0.41202 0.01126 0.75379 0.0
H894 H 0.16369 0.02319 0.74791 0.0
H895 H 0.20948 0.0444 0.74282 0.0
C896 C 0.15973 0.98902 0.77589 0.0
C897 C 0.20049 0.97873 0.76694 0.0
C898 C 0.18783 1.00087 0.77138 0.0
C899 C 0.2569 1.00276 0.7575 0.0
C900 C 0.29974 0.99239 0.74942 0.0
C901 C 0.27203 0.98049 0.75421 0.0
C902 C 0.39272 0.03033 0.74736 0.0
C903 C 0.33676 0.03998 0.74495 0.0
C904 C 0.36685 0.01828 0.75081 0.0
C905 C 0.28412 0.01548 0.75173 0.0
C906 C 0.22797 0.02504 0.74791 0.0
C907 C 0.25403 0.03718 0.74461 0.0
H908 H 0.62794 0.48614 0.47639 0.0
H909 H 0.45031 0.47107 0.52356 0.0
H910 H 0.57892 0.50677 0.48455 0.0
H911 H 0.40337 0.49173 0.53277 0.0
H912 H 0.29207 0.52992 0.52835 0.0
H913 H 0.33594 0.50919 0.52046 0.0
H914 H 0.58234 0.52193 0.51382 0.0
H915 H 0.53687 0.54303 0.52049 0.0
C916 C 0.57724 0.48726 0.48821 0.0
C917 C 0.54215 0.477 0.49911 0.0
C918 C 0.55015 0.49911 0.49328 0.0
C919 C 0.48815 0.50104 0.50973 0.0
C920 C 0.45075 0.49068 0.51986 0.0
C921 C 0.47709 0.47879 0.51446 0.0
C922 C 0.35594 0.52834 0.52547 0.0
C923 C 0.41095 0.5382 0.52488 0.0
C924 C 0.38124 0.51635 0.52103 0.0
C925 C 0.46266 0.51379 0.51615 0.0
C926 C 0.51869 0.52357 0.51688 0.0
C927 C 0.49304 0.53566 0.5211 0.0
H928 H 0.78309 0.79342 0.49716 0.0
H929 H 0.53675 0.78093 0.50475 0.0
H930 H 0.83028 0.77225 0.50139 0.0
H931 H 0.58345 0.76008 0.51007 0.0
H932 H 0.69196 0.72168 0.50043 0.0
H933 H 0.6407 0.74241 0.49361 0.0
H934 H 0.8447 0.7574 0.53134 0.0
H935 H 0.89695 0.73675 0.53719 0.0
C936 C 0.73906 0.78617 0.49945 0.0
C937 C 0.65634 0.7889 0.50074 0.0
C938 C 0.766 0.77404 0.50223 0.0
C939 C 0.71078 0.76441 0.50651 0.0
C940 C 0.6279 0.76715 0.50668 0.0
C941 C 0.60111 0.77919 0.50372 0.0
C942 C 0.72454 0.72941 0.50773 0.0
C943 C 0.79814 0.72762 0.51941 0.0
C944 C 0.69562 0.74133 0.5037 0.0
C945 C 0.7393 0.75167 0.51153 0.0
C946 C 0.81063 0.74974 0.52438 0.0
C947 C 0.8399 0.73788 0.52812 0.0
H948 H 0.71378 0.54381 0.74851 0.0
H949 H 0.96208 0.53164 0.74897 0.0
H950 H 0.66921 0.52248 0.75239 0.0
H951 H 0.91841 0.51059 0.75393 0.0
H952 H 0.8079 0.47208 0.74732 0.0
H953 H 0.85609 0.49284 0.73907 0.0
H954 H 0.66681 0.50769 0.78292 0.0
H955 H 0.61743 0.48702 0.79028 0.0
C956 C 0.75866 0.53658 0.74894 0.0
C957 C 0.84128 0.53942 0.74863 0.0
C958 C 0.73338 0.52436 0.75159 0.0
C959 C 0.79028 0.51478 0.75407 0.0
C960 C 0.87271 0.51763 0.75208 0.0
C961 C 0.89778 0.52976 0.7493 0.0
C962 C 0.77832 0.47979 0.7557 0.0
C963 C 0.70945 0.47795 0.76958 0.0
C964 C 0.80528 0.49171 0.7508 0.0
C965 C 0.76428 0.50202 0.7599 0.0
C966 C 0.69836 0.50005 0.77496 0.0
C967 C 0.671 0.48818 0.77959 0.0
H968 H 0.03019 0.27986 0.49195 0.0
H969 H 0.28075 0.29072 0.49546 0.0
H970 H 0.0684 0.25852 0.49736 0.0
H971 H 0.31973 0.26917 0.50022 0.0
H972 H 0.35088 0.2338 0.54108 0.0
H973 H 0.30831 0.25462 0.53199 0.0
H974 H 0.13397 0.24044 0.48258 0.0
H975 H 0.1759 0.21948 0.49211 0.0
C976 C 0.09385 0.27763 0.49328 0.0
C977 C 0.15252 0.28699 0.4935 0.0
C978 C 0.11574 0.26536 0.49634 0.0
C979 C 0.19699 0.26211 0.49971 0.0
C980 C 0.25631 0.27139 0.49824 0.0
C981 C 0.23429 0.28372 0.49513 0.0
C982 C 0.30222 0.2351 0.52863 0.0
C983 C 0.26636 0.22498 0.51742 0.0
C984 C 0.27878 0.24707 0.5231 0.0
C985 C 0.21907 0.24926 0.50612 0.0
C986 C 0.18022 0.2391 0.49574 0.0
C987 C 0.20358 0.22708 0.50136 0.0
H988 H 0.11646 0.48795 0.28857 0.0
H989 H 0.32117 0.47254 0.25218 0.0
H990 H 0.16835 0.50854 0.28185 0.0
H991 H 0.37226 0.49323 0.2446 0.0
H992 H 0.47512 0.53206 0.25519 0.0
H993 H 0.42924 0.51115 0.26063 0.0
H994 H 0.18219 0.52301 0.25106 0.0
H995 H 0.2285 0.54422 0.24663 0.0
C996 C 0.17341 0.48899 0.27941 0.0
C997 C 0.21514 0.47864 0.27104 0.0
C998 C 0.20246 0.50081 0.27518 0.0
C999 C 0.27361 0.50263 0.26218 0.0
C1000 C 0.3174 0.49222 0.25474 0.0
C1001 C 0.28862 0.48034 0.25923 0.0
C1002 C 0.41092 0.53022 0.25396 0.0
C1003 C 0.3553 0.53986 0.25071 0.0
C1004 C 0.38461 0.51816 0.25699 0.0
C1005 C 0.30185 0.51534 0.25669 0.0
C1006 C 0.24636 0.52488 0.25202 0.0
C1007 C 0.27281 0.53702 0.2491 0.0
H1008 H 0.94691 0.97078 0.54148 0.0
H1009 H 0.10591 0.98431 0.48737 0.0
H1010 H 0.9057 0.99187 0.55032 0.0
H1011 H 0.06429 1.00523 0.49592 0.0
H1012 H 0.04087 0.04212 0.52933 0.0
H1013 H 0.08202 0.02056 0.52656 0.0
H1014 H 0.83311 1.00933 0.53441 0.0
H1015 H 0.79276 0.03072 0.53768 0.0
C1016 C 0.97142 0.97821 0.53108 0.0
C1017 C 0.02936 0.97586 0.51367 0.0
C1018 C 0.94847 0.99031 0.53628 0.0
C1019 C 0.98307 1.00028 0.52418 0.0
C1020 C 0.03822 0.99783 0.50608 0.0
C1021 C 0.06109 0.9858 0.50091 0.0
C1022 C 0.99556 0.03502 0.53122 0.0
C1023 C 0.91369 0.0381 0.53355 0.0
C1024 C 0.01876 0.02267 0.52927 0.0
C1025 C 0.96054 0.01321 0.52975 0.0
C1026 C 0.87955 0.01633 0.53395 0.0
C1027 C 0.85644 0.02862 0.53578 0.0
H1028 H 0.03855 0.22902 0.74206 0.0
H1029 H 0.78929 0.24071 0.74243 0.0
H1030 H 0.0815 0.25047 0.74539 0.0
H1031 H 0.8317 0.26198 0.74627 0.0
H1032 H 0.123 0.28614 0.78502 0.0
H1033 H 0.0764 0.26539 0.77717 0.0
H1034 H 0.89881 0.27959 0.72881 0.0
H1035 H 0.94522 0.30052 0.73696 0.0
C1036 C 0.99311 0.23617 0.74235 0.0
C1037 C 0.9107 0.23317 0.7422 0.0
C1038 C 0.0175 0.24845 0.74457 0.0
C1039 C 0.95991 0.25795 0.74655 0.0
C1040 C 0.87767 0.25495 0.74478 0.0
C1041 C 0.85342 0.24273 0.74267 0.0
C1042 C 0.07307 0.28488 0.77297 0.0
C1043 C 0.03761 0.295 0.76165 0.0
C1044 C 0.0472 0.27294 0.76821 0.0
C1045 C 0.98515 0.27078 0.75195 0.0
C1046 C 0.94691 0.28093 0.74141 0.0
C1047 C 0.97293 0.29294 0.74621 0.0
H1048 H 0.95361 0.80145 0.2267 0.0
H1049 H 0.11079 0.7881 0.28141 0.0
H1050 H 0.9128 0.78035 0.21796 0.0
H1051 H 0.06947 0.76715 0.27297 0.0
H1052 H 0.04685 0.73013 0.23932 0.0
H1053 H 0.08784 0.75167 0.24269 0.0
H1054 H 0.83952 0.76295 0.23366 0.0
H1055 H 0.79934 0.74158 0.22978 0.0
C1056 C 0.97784 0.79406 0.23725 0.0
C1057 C 0.03511 0.79647 0.25482 0.0
C1058 C 0.95505 0.78194 0.23212 0.0
C1059 C 0.9891 0.772 0.24445 0.0
C1060 C 0.04373 0.77452 0.26266 0.0
C1061 C 0.06645 0.78657 0.26776 0.0
C1062 C 0.00162 0.73724 0.23737 0.0
C1063 C 0.91994 0.73416 0.23445 0.0
C1064 C 0.02474 0.74958 0.23965 0.0
C1065 C 0.96666 0.75905 0.23892 0.0
C1066 C 0.88589 0.75595 0.2343 0.0
C1067 C 0.86286 0.74366 0.23213 0.0
H1068 H 0.95778 0.48004 0.99367 0.0
H1069 H 0.20518 0.4918 0.98519 0.0
H1070 H 0.91609 0.50149 0.99808 0.0
H1071 H 0.16426 0.51307 0.99017 0.0
H1072 H 0.04823 0.55158 0.98466 0.0
H1073 H 0.09137 0.53064 0.97532 0.0
H1074 H 0.93225 0.51657 0.02893 0.0
H1075 H 0.88857 0.53734 0.03791 0.0
C1076 C 0.0029 0.4872 0.99223 0.0
C1077 C 0.08472 0.48422 0.98926 0.0
C1078 C 0.97935 0.49948 0.9951 0.0
C1079 C 0.03712 0.50901 0.99497 0.0
C1080 C 0.1181 0.50603 0.99037 0.0
C1081 C 0.14155 0.49379 0.98757 0.0
C1082 C 0.02403 0.54403 0.99479 0.0
C1083 C 0.96524 0.54613 0.01207 0.0
C1084 C 0.04815 0.53201 0.98931 0.0
C1085 C 0.01397 0.52187 1.00103 0.0
C1086 C 0.95809 0.52409 0.01906 0.0
C1087 C 0.93399 0.53604 0.02447 0.0
H1088 H 0.43662 0.07146 0.95104 0.0
H1089 H 0.20065 0.05676 0.93484 0.0
H1090 H 0.47673 0.06924 0.91042 0.0
H1091 H 0.24158 0.05443 0.89378 0.0
H1092 H 0.30825 0.07204 0.82188 0.0
H1093 H 0.26955 0.06937 0.86245 0.0
H1094 H 0.50624 0.05482 0.87804 0.0
H1095 H 0.54578 0.05759 0.8369 0.0
C1096 C 0.3933 0.06764 0.93882 0.0
C1097 C 0.31481 0.06445 0.94617 0.0
C1098 C 0.41687 0.06624 0.91552 0.0
C1099 C 0.36249 0.06168 0.89881 0.0
C1100 C 0.28474 0.05807 0.90623 0.0
C1101 C 0.26126 0.05938 0.92973 0.0
C1102 C 0.35229 0.0682 0.83384 0.0
C1103 C 0.43071 0.06519 0.82617 0.0
C1104 C 0.32952 0.06653 0.85712 0.0
C1105 C 0.38462 0.06188 0.87353 0.0
C1106 C 0.46251 0.0585 0.86581 0.0
C1107 C 0.48518 0.06006 0.84229 0.0
H1108 H 0.98889 0.22435 0.94395 0.0
H1109 H 0.93731 0.18552 0.94303 0.0
H1110 H 0.94752 0.22575 0.90245 0.0
H1111 H 0.89728 0.18688 0.90219 0.0
H1112 H 0.92616 0.19061 0.82432 0.0
H1113 H 0.97367 0.19193 0.86428 0.0
H1114 H 0.80695 0.22153 0.87786 0.0
H1115 H 0.75818 0.22027 0.8371 0.0
C1116 C 0.97026 0.21612 0.93478 0.0
C1117 C 0.96698 0.20481 0.9466 0.0
C1118 C 0.94558 0.21695 0.91124 0.0
C1119 C 0.91898 0.20642 0.89917 0.0
C1120 C 0.91779 0.19513 0.91097 0.0
C1121 C 0.94094 0.19435 0.93435 0.0
C1122 C 0.8993 0.19748 0.83561 0.0
C1123 C 0.83757 0.20527 0.82743 0.0
C1124 C 0.92688 0.19822 0.85859 0.0
C1125 C 0.89405 0.20681 0.87418 0.0
C1126 C 0.83371 0.21487 0.86608 0.0
C1127 C 0.80528 0.21407 0.84288 0.0
H1128 H 0.31335 0.20863 0.45416 0.0
H1129 H 0.56577 0.21315 0.4375 0.0
H1130 H 0.27715 0.21225 0.41361 0.0
H1131 H 0.52951 0.21708 0.39639 0.0
H1132 H 0.43862 0.19977 0.32667 0.0
H1133 H 0.48146 0.20318 0.36658 0.0
H1134 H 0.26763 0.22494 0.37925 0.0
H1135 H 0.2233 0.2213 0.33884 0.0
C1136 C 0.36107 0.21073 0.44179 0.0
C1137 C 0.44247 0.21044 0.44882 0.0
C1138 C 0.3402 0.21292 0.41852 0.0
C1139 C 0.4003 0.21481 0.40157 0.0
C1140 C 0.48172 0.21546 0.40897 0.0
C1141 C 0.50267 0.21333 0.43248 0.0
C1142 C 0.40049 0.20536 0.33782 0.0
C1143 C 0.32655 0.21009 0.32957 0.0
C1144 C 0.42596 0.20747 0.36074 0.0
C1145 C 0.37834 0.21436 0.37623 0.0
C1146 C 0.30559 0.21949 0.36782 0.0
C1147 C 0.28006 0.21741 0.34469 0.0
H1148 H 0.96601 0.06221 0.45679 0.0
H1149 H 0.72354 0.05701 0.43075 0.0
H1150 H 0.01986 0.05933 0.41767 0.0
H1151 H 0.77796 0.05438 0.39094 0.0
H1152 H 0.90892 0.04563 0.32205 0.0
H1153 H 0.86594 0.04241 0.36282 0.0
H1154 H 0.01388 0.0731 0.38422 0.0
H1155 H 0.05572 0.07623 0.34379 0.0
C1156 C 0.92407 0.06036 0.44265 0.0
C1157 C 0.84029 0.06009 0.44676 0.0
C1158 C 0.95511 0.05871 0.42019 0.0
C1159 C 0.9033 0.05686 0.40107 0.0
C1160 C 0.81959 0.05576 0.40533 0.0
C1161 C 0.78829 0.05731 0.42806 0.0
C1162 C 0.9347 0.0513 0.33574 0.0
C1163 C 0.98742 0.06096 0.33002 0.0
C1164 C 0.90901 0.04961 0.35896 0.0
C1165 C 0.93632 0.0575 0.3768 0.0
C1166 C 0.99252 0.06672 0.37105 0.0
C1167 C 0.01711 0.06849 0.34792 0.0
H1168 H 0.65278 0.97805 0.06842 0.0
H1169 H 0.80385 0.94776 0.08922 0.0
H1170 H 0.60944 0.9808 0.10925 0.0
H1171 H 0.76128 0.95036 0.12968 0.0
H1172 H 0.70762 0.95983 0.20268 0.0
H1173 H 0.76321 0.96316 0.16392 0.0
H1174 H 0.52265 0.96879 0.13663 0.0
H1175 H 0.46657 0.96575 0.17611 0.0
C1176 C 0.67952 0.97237 0.08193 0.0
C1177 C 0.7335 0.96293 0.07589 0.0
C1178 C 0.65353 0.97377 0.1052 0.0
C1179 C 0.68156 0.96578 0.1228 0.0
C1180 C 0.73926 0.95682 0.11676 0.0
C1181 C 0.76433 0.95536 0.09358 0.0
C1182 C 0.66632 0.96189 0.18849 0.0
C1183 C 0.58241 0.96228 0.19238 0.0
C1184 C 0.69838 0.9638 0.16622 0.0
C1185 C 0.64751 0.96601 0.14702 0.0
C1186 C 0.56367 0.96714 0.15106 0.0
C1187 C 0.53138 0.96535 0.17362 0.0
H1188 H 0.1916 0.8084 0.06836 0.0
H1189 H 0.95694 0.80856 0.10112 0.0
H1190 H 0.25536 0.80445 0.10609 0.0
H1191 H 0.02093 0.80476 0.13931 0.0
H1192 H 0.15808 0.79548 0.20559 0.0
H1193 H 0.10662 0.79154 0.16597 0.0
H1194 H 0.27001 0.81896 0.13873 0.0
H1195 H 0.31994 0.8229 0.17815 0.0
C1196 C 0.15353 0.80726 0.08366 0.0
C1197 C 0.06946 0.80881 0.08193 0.0
C1198 C 0.19009 0.80506 0.10528 0.0
C1199 C 0.14351 0.80447 0.1258 0.0
C1200 C 0.05856 0.80509 0.12382 0.0
C1201 C 0.02175 0.80726 0.102 0.0
C1202 C 0.1856 0.80019 0.1909 0.0
C1203 C 0.24456 0.80925 0.19475 0.0
C1204 C 0.15513 0.7981 0.1683 0.0
C1205 C 0.18387 0.80496 0.14916 0.0
C1206 C 0.24717 0.81338 0.15295 0.0
C1207 C 0.27646 0.81559 0.17551 0.0
H1208 H 0.7895 0.80584 0.6905 0.0
H1209 H 0.54918 0.81876 0.70677 0.0
H1210 H 0.74944 0.80336 0.64937 0.0
H1211 H 0.50994 0.81643 0.66613 0.0
H1212 H 0.4446 0.80562 0.59214 0.0
H1213 H 0.48439 0.80247 0.63314 0.0
H1214 H 0.71825 0.81828 0.61847 0.0
H1215 H 0.67942 0.82131 0.57803 0.0
C1216 C 0.72809 0.80799 0.68539 0.0
C1217 C 0.67307 0.81267 0.70184 0.0
C1218 C 0.70512 0.80662 0.66186 0.0
C1219 C 0.62645 0.80976 0.65442 0.0
C1220 C 0.5706 0.81381 0.67119 0.0
C1221 C 0.59362 0.81528 0.69452 0.0
C1222 C 0.50464 0.8083 0.59769 0.0
C1223 C 0.5582 0.81388 0.58186 0.0
C1224 C 0.52749 0.80651 0.62115 0.0
C1225 C 0.60466 0.81012 0.6291 0.0
C1226 C 0.65891 0.81524 0.61297 0.0
C1227 C 0.63599 0.81712 0.58975 0.0
H1228 H 0.15538 0.97655 0.56708 0.0
H1229 H 0.31105 0.94736 0.59061 0.0
H1230 H 0.10764 0.97965 0.60739 0.0
H1231 H 0.26438 0.95035 0.6306 0.0
H1232 H 0.19803 0.95971 0.70253 0.0
H1233 H 0.2584 0.96358 0.66445 0.0
H1234 H 0.0204 0.96722 0.63417 0.0
H1235 H 0.95967 0.96363 0.67293 0.0
C1236 C 0.1823 0.97123 0.58109 0.0
C1237 C 0.23867 0.96196 0.57593 0.0
C1238 C 0.15382 0.97282 0.60406 0.0
C1239 C 0.18181 0.96523 0.62228 0.0
C1240 C 0.24221 0.95651 0.61717 0.0
C1241 C 0.26968 0.95483 0.59427 0.0
C1242 C 0.15849 0.96155 0.68781 0.0
C1243 C 0.07412 0.96117 0.69057 0.0
C1244 C 0.19316 0.96374 0.66596 0.0
C1245 C 0.14445 0.96546 0.6461 0.0
C1246 C 0.05979 0.96596 0.64911 0.0
C1247 C 0.02483 0.96387 0.67125 0.0
H1248 H 0.19241 0.57545 0.43661 0.0
H1249 H 0.35357 0.54592 0.4548 0.0
H1250 H 0.23941 0.57465 0.39624 0.0
H1251 H 0.40028 0.54481 0.41407 0.0
H1252 H 0.54056 0.5604 0.34886 0.0
H1253 H 0.48352 0.55703 0.38805 0.0
H1254 H 0.24404 0.56367 0.36066 0.0
H1255 H 0.3009 0.56746 0.32225 0.0
C1256 C 0.23538 0.56841 0.43162 0.0
C1257 C 0.26767 0.56051 0.44853 0.0
C1258 C 0.2629 0.56797 0.4085 0.0
C1259 C 0.32404 0.55966 0.40177 0.0
C1260 C 0.35384 0.55139 0.41862 0.0
C1261 C 0.32607 0.55185 0.44181 0.0
C1262 C 0.4758 0.56104 0.35131 0.0
C1263 C 0.42554 0.56445 0.33261 0.0
C1264 C 0.44288 0.55904 0.3737 0.0
C1265 C 0.35902 0.56026 0.37767 0.0
C1266 C 0.30891 0.56298 0.35852 0.0
C1267 C 0.34168 0.56513 0.33642 0.0
H1268 H 0.7102 0.71661 0.33148 0.0
H1269 H 0.95491 0.70566 0.31553 0.0
H1270 H 0.74781 0.71888 0.37286 0.0
H1271 H 0.99185 0.7078 0.35641 0.0
H1272 H 0.05013 0.71745 0.43146 0.0
H1273 H 0.01128 0.72135 0.39057 0.0
H1274 H 0.78199 0.70353 0.40277 0.0
H1275 H 0.81997 0.69976 0.44304 0.0
C1276 C 0.77206 0.71487 0.33671 0.0
C1277 C 0.82908 0.71076 0.32029 0.0
C1278 C 0.79365 0.71613 0.36039 0.0
C1279 C 0.87288 0.71345 0.36799 0.0
C1280 C 0.93067 0.71005 0.35123 0.0
C1281 C 0.90902 0.70868 0.32777 0.0
C1282 C 0.99123 0.71451 0.42539 0.0
C1283 C 0.93888 0.70812 0.44041 0.0
C1284 C 0.96892 0.71672 0.40201 0.0
C1285 C 0.89339 0.71274 0.39338 0.0
C1286 C 0.84003 0.70687 0.4088 0.0
C1287 C 0.86252 0.70455 0.4319 0.0
H1288 H 0.51997 0.71589 0.92758 0.0
H1289 H 0.28266 0.70763 0.9547 0.0
H1290 H 0.46105 0.71897 0.88847 0.0
H1291 H 0.22413 0.71102 0.91634 0.0
H1292 H 0.18616 0.69623 0.84107 0.0
H1293 H 0.2288 0.69875 0.88151 0.0
H1294 H 0.36917 0.73059 0.862 0.0
H1295 H 0.32584 0.72792 0.82115 0.0
C1296 C 0.45529 0.71497 0.92529 0.0
C1297 C 0.40633 0.71123 0.94407 0.0
C1298 C 0.42135 0.7168 0.90296 0.0
C1299 C 0.33784 0.71504 0.89917 0.0
C1300 C 0.28876 0.71215 0.91843 0.0
C1301 C 0.3225 0.7102 0.94047 0.0
C1302 C 0.22302 0.7041 0.84565 0.0
C1303 C 0.25085 0.71207 0.82819 0.0
C1304 C 0.24814 0.70552 0.86882 0.0
C1305 C 0.30285 0.71486 0.87508 0.0
C1306 C 0.32747 0.72326 0.85775 0.0
C1307 C 0.30141 0.7219 0.83449 0.0
H1308 H 0.78465 0.56406 0.82272 0.0
H1309 H 0.02362 0.55742 0.85021 0.0
H1310 H 0.72662 0.56058 0.86114 0.0
H1311 H 0.96516 0.55425 0.88936 0.0
H1312 H 0.83157 0.54529 0.957 0.0
H1313 H 0.87563 0.54239 0.91627 0.0
H1314 H 0.72855 0.5733 0.89549 0.0
H1315 H 0.6853 0.57605 0.93583 0.0
C1316 C 0.82493 0.5618 0.83705 0.0
C1317 C 0.90899 0.56127 0.83355 0.0
C1318 C 0.7915 0.5598 0.85911 0.0
C1319 C 0.84114 0.55737 0.87849 0.0
C1320 C 0.92506 0.55607 0.87479 0.0
C1321 C 0.95872 0.55794 0.85243 0.0
C1322 C 0.80591 0.55104 0.94343 0.0
C1323 C 0.75326 0.56068 0.94934 0.0
C1324 C 0.83234 0.54955 0.92022 0.0
C1325 C 0.80599 0.55763 0.90257 0.0
C1326 C 0.74928 0.56677 0.90845 0.0
C1327 C 0.72382 0.56832 0.93157 0.0
H1328 H 0.56784 0.45477 0.56912 0.0
H1329 H 0.8092 0.46734 0.58481 0.0
H1330 H 0.52663 0.45869 0.60912 0.0
H1331 H 0.76738 0.47143 0.62542 0.0
H1332 H 0.69124 0.45329 0.69684 0.0
H1333 H 0.7341 0.45702 0.65695 0.0
H1334 H 0.50147 0.47305 0.64137 0.0
H1335 H 0.45783 0.46916 0.68188 0.0
C1336 C 0.612 0.45855 0.58113 0.0
C1337 C 0.69237 0.46049 0.57398 0.0
C1338 C 0.58789 0.46097 0.60405 0.0
C1339 C 0.64365 0.46531 0.62058 0.0
C1340 C 0.72311 0.46797 0.61311 0.0
C1341 C 0.74714 0.46567 0.58991 0.0
C1342 C 0.64919 0.45773 0.68502 0.0
C1343 C 0.57036 0.46069 0.69236 0.0
C1344 C 0.67439 0.46004 0.66216 0.0
C1345 C 0.6213 0.46529 0.64587 0.0
C1346 C 0.54366 0.46889 0.6535 0.0
C1347 C 0.51858 0.46669 0.67664 0.0
H1348 H 0.21602 0.31488 0.56795 0.0
H1349 H 0.97796 0.3062 0.59409 0.0
H1350 H 0.27259 0.31183 0.60664 0.0
H1351 H 0.03508 0.30341 0.63352 0.0
H1352 H 0.17163 0.29442 0.70117 0.0
H1353 H 0.12863 0.29182 0.66024 0.0
H1354 H 0.2632 0.32435 0.64142 0.0
H1355 H 0.30532 0.32682 0.68195 0.0
C1356 C 0.17555 0.31229 0.58202 0.0
C1357 C 0.09204 0.31104 0.57803 0.0
C1358 C 0.20822 0.31053 0.60425 0.0
C1359 C 0.15838 0.30759 0.62331 0.0
C1360 C 0.07529 0.30563 0.61917 0.0
C1361 C 0.04239 0.30729 0.59666 0.0
C1362 C 0.19469 0.30065 0.68797 0.0
C1363 C 0.24359 0.31063 0.69447 0.0
C1364 C 0.16888 0.29931 0.66467 0.0
C1365 C 0.1922 0.30789 0.64752 0.0
C1366 C 0.24495 0.31745 0.654 0.0
C1367 C 0.26972 0.31885 0.67721 0.0
H1368 H 0.45154 0.30535 0.09095 0.0
H1369 H 0.68746 0.32077 0.07755 0.0
H1370 H 0.49225 0.30118 0.13161 0.0
H1371 H 0.72729 0.31676 0.11757 0.0
H1372 H 0.79877 0.30522 0.18935 0.0
H1373 H 0.75787 0.30186 0.14842 0.0
H1374 H 0.51792 0.31492 0.16478 0.0
H1375 H 0.55825 0.31812 0.20512 0.0
C1376 C 0.5121 0.3077 0.09656 0.0
C1377 C 0.56552 0.31362 0.08116 0.0
C1378 C 0.53552 0.30533 0.11981 0.0
C1379 C 0.61315 0.30866 0.12789 0.0
C1380 C 0.66758 0.31393 0.11199 0.0
C1381 C 0.64406 0.3164 0.08905 0.0
C1382 C 0.73703 0.3071 0.18419 0.0
C1383 C 0.68228 0.31216 0.20027 0.0
C1384 C 0.71353 0.30523 0.16079 0.0
C1385 C 0.63463 0.30822 0.15325 0.0
C1386 C 0.57877 0.31242 0.16988 0.0
C1387 C 0.60236 0.3144 0.19301 0.0
H1388 H 0.96405 0.46867 0.18407 0.0
H1389 H 0.19297 0.45064 0.19586 0.0
H1390 H 0.00293 0.4723 0.14309 0.0
H1391 H 0.23097 0.45414 0.1555 0.0
H1392 H 0.30223 0.46634 0.08368 0.0
H1393 H 0.26577 0.46914 0.12503 0.0
H1394 H 0.02045 0.45835 0.10948 0.0
H1395 H 0.05621 0.45569 0.06865 0.0
C1396 C 0.02273 0.46561 0.17802 0.0
C1397 C 0.07465 0.45918 0.1931 0.0
C1398 C 0.04505 0.46766 0.1546 0.0
C1399 C 0.12016 0.46349 0.14601 0.0
C1400 C 0.17326 0.45762 0.16151 0.0
C1401 C 0.15076 0.45546 0.18465 0.0
C1402 C 0.24039 0.46477 0.0891 0.0
C1403 C 0.18262 0.46058 0.07297 0.0
C1404 C 0.21944 0.46634 0.11275 0.0
C1405 C 0.14015 0.46391 0.12058 0.0
C1406 C 0.0817 0.46042 0.1041 0.0
C1407 C 0.10268 0.45875 0.08067 0.0
H1408 H 0.19394 0.17018 0.03117 0.0
H1409 H 0.94645 0.1616 0.0487 0.0
H1410 H 0.23065 0.14879 0.03537 0.0
H1411 H 0.984 0.14 0.05364 0.0
H1412 H 0.05683 0.10283 0.02009 0.0
H1413 H 0.01836 0.12393 0.02702 0.0
H1414 H 0.25081 0.1309 0.05881 0.0
H1415 H 0.29059 0.10959 0.0512 0.0
C1416 C 0.1474 0.16375 0.03639 0.0
C1417 C 0.06678 0.16762 0.03923 0.0
C1418 C 0.16885 0.15143 0.03903 0.0
C1419 C 0.11037 0.14256 0.04464 0.0
C1420 C 0.03049 0.14654 0.04891 0.0
C1421 C 0.00893 0.15894 0.04626 0.0
C1422 C 0.09989 0.10878 0.02876 0.0
C1423 C 0.17749 0.1045 0.03478 0.0
C1424 C 0.07721 0.12093 0.033 0.0
C1425 C 0.13131 0.12922 0.04343 0.0
C1426 C 0.20783 0.12482 0.05044 0.0
C1427 C 0.23064 0.11259 0.04619 0.0
H1428 H 0.28826 0.16253 0.22895 0.0
H1429 H 0.05872 0.17164 0.26054 0.0
H1430 H 0.24191 0.14133 0.22357 0.0
H1431 H 0.014 0.15069 0.25591 0.0
H1432 H 0.92648 0.11365 0.23518 0.0
H1433 H 0.97215 0.13483 0.23046 0.0
H1434 H 0.21596 0.12373 0.24735 0.0
H1435 H 0.1711 0.10264 0.25119 0.0
C1436 C 0.22793 0.16006 0.23457 0.0
C1437 C 0.1777 0.1688 0.24534 0.0
C1438 C 0.2014 0.1479 0.23163 0.0
C1439 C 0.12403 0.14422 0.23935 0.0
C1440 C 0.07328 0.15312 0.24937 0.0
C1441 C 0.09956 0.16519 0.25226 0.0
C1442 C 0.98997 0.11571 0.23756 0.0
C1443 C 0.04474 0.10642 0.24382 0.0
C1444 C 0.01624 0.12788 0.23499 0.0
C1445 C 0.09783 0.13108 0.23876 0.0
C1446 C 0.15298 0.12167 0.24403 0.0
C1447 C 0.12689 0.10953 0.24645 0.0
H1448 H 0.81979 0.85212 0.01881 0.0
H1449 H 0.03934 0.86134 0.98187 0.0
H1450 H 0.76925 0.87273 0.01274 0.0
H1451 H 0.98718 0.88204 0.97503 0.0
H1452 H 0.91457 0.92128 0.9972 0.0
H1453 H 0.96254 0.90029 0.99633 0.0
H1454 H 0.7179 0.88747 0.98619 0.0
H1455 H 0.66918 0.90864 0.98794 0.0
C1456 C 0.85712 0.85851 1.0091 0.0
C1457 C 0.93419 0.85505 1.001 0.0
C1458 C 0.82751 0.87036 1.00541 0.0
C1459 C 0.87376 0.87914 0.99335 0.0
C1460 C 0.95014 0.8756 0.98469 0.0
C1461 C 0.98011 0.86371 0.98852 0.0
C1462 C 0.8707 0.91402 0.99457 0.0
C1463 C 0.78763 0.91669 0.99292 0.0
C1464 C 0.89859 0.90192 0.99387 0.0
C1465 C 0.84435 0.89209 0.99135 0.0
C1466 C 0.76147 0.89478 0.9886 0.0
C1467 C 0.7334 0.90693 0.98943 0.0
H1468 H 0.93795 0.85123 0.77678 0.0
H1469 H 0.69355 0.86157 0.7945 0.0
H1470 H 0.97946 0.87252 0.77848 0.0
H1471 H 0.73593 0.88312 0.79675 0.0
H1472 H 0.81853 0.91931 0.76073 0.0
H1473 H 0.77463 0.89846 0.76842 0.0
H1474 H 0.00394 0.89062 0.80131 0.0
H1475 H 0.04899 0.91159 0.79308 0.0
C1476 C 0.89311 0.85805 0.78144 0.0
C1477 C 0.812 0.85467 0.78521 0.0
C1478 C 0.91731 0.87031 0.78263 0.0
C1479 C 0.86117 0.87962 0.7876 0.0
C1480 C 0.78065 0.87621 0.79254 0.0
C1481 C 0.75636 0.86385 0.79144 0.0
C1482 C 0.85974 0.9132 0.76976 0.0
C1483 C 0.93791 0.91713 0.77602 0.0
C1484 C 0.83399 0.90123 0.77441 0.0
C1485 C 0.88557 0.89279 0.78546 0.0
C1486 C 0.96286 0.89683 0.79249 0.0
C1487 C 0.98871 0.90886 0.78785 0.0
H1488 H 0.94743 0.66042 0.54556 0.0
H1489 H 0.17804 0.66793 0.51313 0.0
H1490 H 0.99056 0.63928 0.55295 0.0
H1491 H 0.21979 0.64693 0.5198 0.0
H1492 H 0.29811 0.6096 0.54335 0.0
H1493 H 0.25828 0.63119 0.54663 0.0
H1494 H 0.01194 0.62133 0.53001 0.0
H1495 H 0.05085 0.59997 0.52749 0.0
C1496 C 0.00734 0.65761 0.54014 0.0
C1497 C 0.05874 0.66588 0.52854 0.0
C1498 C 0.03207 0.64547 0.54427 0.0
C1499 C 0.10872 0.64132 0.53687 0.0
C1500 C 0.16093 0.64976 0.52607 0.0
C1501 C 0.1364 0.66184 0.52201 0.0
C1502 C 0.23529 0.61204 0.54083 0.0
C1503 C 0.17805 0.60304 0.53491 0.0
C1504 C 0.21241 0.62443 0.54254 0.0
C1505 C 0.13181 0.62807 0.53838 0.0
C1506 C 0.07423 0.61895 0.5336 0.0
C1507 C 0.09695 0.60664 0.53192 0.0
H1508 H 0.33182 0.65871 0.74072 0.0
H1509 H 0.0828 0.67023 0.74647 0.0
H1510 H 0.28773 0.63731 0.73893 0.0
H1511 H 0.03926 0.649 0.74547 0.0
H1512 H 0.97448 0.60937 0.73147 0.0
H1513 H 0.02283 0.63028 0.7243 0.0
H1514 H 0.2349 0.62283 0.76609 0.0
H1515 H 0.18822 0.60207 0.77263 0.0
C1516 C 0.26777 0.65671 0.74138 0.0
C1517 C 0.21112 0.66622 0.74398 0.0
C1518 C 0.24238 0.64443 0.74053 0.0
C1519 C 0.15978 0.64136 0.74232 0.0
C1520 C 0.10316 0.65094 0.7438 0.0
C1521 C 0.12843 0.66317 0.74457 0.0
C1522 C 0.03168 0.61219 0.73894 0.0
C1523 C 0.07701 0.60402 0.75273 0.0
C1524 C 0.05939 0.62419 0.73491 0.0
C1525 C 0.13301 0.6283 0.7446 0.0
C1526 C 0.17881 0.62001 0.75795 0.0
C1527 C 0.15136 0.60807 0.76191 0.0
H1528 H 0.69137 0.4089 0.47914 0.0
H1529 H 0.93359 0.41905 0.49966 0.0
H1530 H 0.73469 0.3875 0.47551 0.0
H1531 H 0.97602 0.3978 0.49658 0.0
H1532 H 0.04605 0.35882 0.47875 0.0
H1533 H 0.00266 0.38008 0.4722 0.0
H1534 H 0.77073 0.3717 0.503 0.0
H1535 H 0.81297 0.35067 0.50904 0.0
C1536 C 0.75391 0.40662 0.48263 0.0
C1537 C 0.80858 0.41571 0.48995 0.0
C1538 C 0.77875 0.39433 0.48068 0.0
C1539 C 0.85887 0.39087 0.48593 0.0
C1540 C 0.9142 0.40008 0.49215 0.0
C1541 C 0.88944 0.41231 0.49413 0.0
C1542 C 0.98551 0.3615 0.4838 0.0
C1543 C 0.93347 0.35304 0.49463 0.0
C1544 C 0.96068 0.3737 0.48017 0.0
C1545 C 0.88309 0.37766 0.48713 0.0
C1546 C 0.83036 0.36902 0.4971 0.0
C1547 C 0.85514 0.35693 0.5008 0.0
H1548 H 0.93054 0.35162 0.27452 0.0
H1549 H 0.69258 0.36291 0.29698 0.0
H1550 H 0.97816 0.37257 0.2778 0.0
H1551 H 0.74132 0.38403 0.30095 0.0
H1552 H 0.82547 0.42073 0.26825 0.0
H1553 H 0.77822 0.39996 0.2743 0.0
H1554 H 0.01213 0.38984 0.3018 0.0
H1555 H 0.06065 0.41079 0.29507 0.0
C1556 C 0.88845 0.35855 0.28054 0.0
C1557 C 0.80719 0.35557 0.28518 0.0
C1558 C 0.91623 0.37061 0.28265 0.0
C1559 C 0.86372 0.38007 0.28951 0.0
C1560 C 0.78326 0.37701 0.29525 0.0
C1561 C 0.75531 0.36489 0.29312 0.0
C1562 C 0.86705 0.41415 0.27577 0.0
C1563 C 0.94743 0.41744 0.28089 0.0
C1564 C 0.83941 0.4022 0.27949 0.0
C1565 C 0.89116 0.39314 0.2885 0.0
C1566 C 0.9708 0.39653 0.29453 0.0
C1567 C -0.00139 0.40856 0.2908 0.0
H1568 H 0.55546 0.09682 0.53565 0.0
H1569 H 0.79453 0.11134 0.52433 0.0
H1570 H 0.50336 0.11745 0.54151 0.0
H1571 H 0.7421 0.13216 0.52841 0.0
H1572 H 0.64143 0.16897 0.54682 0.0
H1573 H 0.69159 0.14805 0.54999 0.0
H1574 H 0.4656 0.13461 0.5217 0.0
H1575 H 0.41425 0.15552 0.52022 0.0
C1576 C 0.5969 0.10449 0.53441 0.0
C1577 C 0.67901 0.10249 0.52949 0.0
C1578 C 0.56688 0.11638 0.53751 0.0
C1579 C 0.61768 0.12667 0.53508 0.0
C1580 C 0.70069 0.12458 0.5308 0.0
C1581 C 0.7311 0.11262 0.52834 0.0
C1582 C 0.60208 0.16149 0.54171 0.0
C1583 C 0.52384 0.16388 0.5333 0.0
C1584 C 0.63119 0.14945 0.54324 0.0
C1585 C 0.58363 0.13946 0.53581 0.0
C1586 C 0.50419 0.14191 0.52802 0.0
C1587 C 0.47442 0.15395 0.52706 0.0
H1588 H 0.44881 0.11128 0.72588 0.0
H1589 H 0.69128 0.10248 0.74831 0.0
H1590 H 0.4897 0.13268 0.72011 0.0
H1591 H 0.73123 0.1237 0.74313 0.0
H1592 H 0.7992 0.16216 0.72393 0.0
H1593 H 0.75709 0.14085 0.71754 0.0
H1594 H 0.52212 0.14925 0.74634 0.0
H1595 H 0.56315 0.17036 0.75217 0.0
C1596 C 0.51091 0.11386 0.7293 0.0
C1597 C 0.56632 0.10517 0.73785 0.0
C1598 C 0.53435 0.12613 0.72611 0.0
C1599 C 0.61377 0.12998 0.73132 0.0
C1600 C 0.66994 0.12112 0.73867 0.0
C1601 C 0.64658 0.10892 0.74189 0.0
C1602 C 0.73817 0.15948 0.72848 0.0
C1603 C 0.68505 0.16795 0.73884 0.0
C1604 C 0.71408 0.14725 0.72495 0.0
C1605 C 0.63623 0.14326 0.73158 0.0
C1606 C 0.58208 0.15194 0.74076 0.0
C1607 C 0.60612 0.16408 0.74434 0.0
H1608 H 0.39857 0.92088 0.47684 0.0
H1609 H 0.17164 0.90691 0.50279 0.0
H1610 H 0.44918 0.90002 0.4726 0.0
H1611 H 0.22321 0.88607 0.49984 0.0
H1612 H 0.31086 0.84874 0.48325 0.0
H1613 H 0.26128 0.86953 0.47735 0.0
H1614 H 0.49815 0.88372 0.49458 0.0
H1615 H 0.54834 0.86274 0.49896 0.0
C1616 C 0.35931 0.91332 0.48156 0.0
C1617 C 0.28105 0.91556 0.49018 0.0
C1618 C 0.38865 0.90132 0.47933 0.0
C1619 C 0.34102 0.89122 0.48606 0.0
C1620 C 0.26167 0.8935 0.49404 0.0
C1621 C 0.23187 0.9055 0.49586 0.0
C1622 C 0.35265 0.85633 0.48522 0.0
C1623 C 0.43337 0.85416 0.49158 0.0
C1624 C 0.32403 0.86829 0.48215 0.0
C1625 C 0.37483 0.87845 0.48598 0.0
C1626 C 0.45697 0.87621 0.49123 0.0
C1627 C 0.48607 0.86417 0.49379 0.0
H1628 H 0.30254 0.92464 0.28043 0.0
H1629 H 0.5452 0.91101 0.27176 0.0
H1630 H 0.25304 0.90383 0.28577 0.0
H1631 H 0.49554 0.88998 0.27545 0.0
H1632 H 0.395 0.85281 0.2931 0.0
H1633 H 0.4429 0.87386 0.29667 0.0
H1634 H 0.22194 0.88673 0.26445 0.0
H1635 H 0.17271 0.86574 0.26233 0.0
C1636 C 0.34538 0.91713 0.27973 0.0
C1637 C 0.42767 0.91942 0.27562 0.0
C1638 C 0.31688 0.90514 0.28251 0.0
C1639 C 0.36954 0.89504 0.28059 0.0
C1640 C 0.45275 0.89742 0.27733 0.0
C1641 C 0.48156 0.90949 0.27513 0.0
C1642 C 0.35623 0.86019 0.28714 0.0
C1643 C 0.27998 0.8576 0.27744 0.0
C1644 C 0.38407 0.87229 0.28896 0.0
C1645 C 0.33711 0.88216 0.28067 0.0
C1646 C 0.25979 0.87952 0.27149 0.0
C1647 C 0.23133 0.86743 0.27013 0.0
H1648 H 0.68699 0.67101 1.00632 0.0
H1649 H 0.47088 0.66353 0.04629 0.0
H1650 H 0.73341 0.65026 0.01274 0.0
H1651 H 0.51901 0.64257 0.05334 0.0
H1652 H 0.58181 0.6027 0.03031 0.0
H1653 H 0.5373 0.62389 0.0318 0.0
H1654 H 0.7849 0.63573 0.03992 0.0
H1655 H 0.82997 0.6144 0.03765 0.0
C1656 C 0.64951 0.66497 0.01676 0.0
C1657 C 0.5746 0.66898 0.02563 0.0
C1658 C 0.67684 0.65303 0.02066 0.0
C1659 C 0.63037 0.64466 0.03364 0.0
C1660 C 0.55615 0.64872 0.04304 0.0
C1661 C 0.52858 0.66075 0.0391 0.0
C1662 C 0.62701 0.60978 0.03266 0.0
C1663 C 0.70981 0.6068 0.03354 0.0
C1664 C 0.60118 0.62199 0.03371 0.0
C1665 C 0.65732 0.6316 0.03576 0.0
C1666 C 0.73992 0.62859 0.03787 0.0
C1667 C 0.76587 0.61634 0.03672 0.0
H1668 H 0.56913 0.67154 0.24546 0.0
H1669 H 0.81393 0.66191 0.22676 0.0
H1670 H 0.52993 0.65014 0.2435 0.0
H1671 H 0.7739 0.64028 0.22426 0.0
H1672 H 0.69804 0.60394 0.26075 0.0
H1673 H 0.7385 0.62489 0.25279 0.0
H1674 H 0.50694 0.63189 0.22054 0.0
H1675 H 0.46536 0.61075 0.22902 0.0
C1676 C 0.61454 0.66486 0.24053 0.0
C1677 C 0.69515 0.66847 0.23658 0.0
C1678 C 0.59165 0.65254 0.23918 0.0
C1679 C 0.64865 0.64341 0.23388 0.0
C1680 C 0.72855 0.64706 0.22873 0.0
C1681 C 0.75151 0.65946 0.23 0.0
C1682 C 0.6556 0.60987 0.25178 0.0
C1683 C 0.57783 0.60565 0.2458 0.0
C1684 C 0.67939 0.62191 0.24697 0.0
C1685 C 0.62617 0.63015 0.23604 0.0
C1686 C 0.54928 0.62583 0.22923 0.0
C1687 C 0.52545 0.6137 0.23399 0.0
H1688 H 0.42283 0.42285 0.97488 0.0
H1689 H 0.18945 0.41022 0.99801 0.0
H1690 H 0.46942 0.40175 0.9714 0.0
H1691 H 0.23699 0.38905 0.99636 0.0
H1692 H 0.32538 0.35091 0.98449 0.0
H1693 H 0.27638 0.37163 0.97756 0.0
H1694 H 0.51433 0.38583 0.99361 0.0
H1695 H 0.56382 0.36495 0.99879 0.0
C1696 C 0.38124 0.41548 0.97902 0.0
C1697 C 0.30245 0.41814 0.9866 0.0
C1698 C 0.40828 0.40334 0.97738 0.0
C1699 C 0.35804 0.3935 0.98402 0.0
C1700 C 0.27775 0.39623 0.99073 0.0
C1701 C 0.25007 0.4084 0.99174 0.0
C1702 C 0.36741 0.35849 0.9861 0.0
C1703 C 0.44844 0.35632 0.99219 0.0
C1704 C 0.3391 0.37043 0.98239 0.0
C1705 C 0.3905 0.38062 0.98532 0.0
C1706 C 0.47253 0.37835 0.99074 0.0
C1707 C 0.50129 0.36634 0.99385 0.0
H1708 H 0.54253 0.41114 0.79481 0.0
H1709 H 0.31905 0.42035 0.75986 0.0
H1710 H 0.49296 0.39021 0.80088 0.0
H1711 H 0.27114 0.39957 0.76516 0.0
H1712 H 0.1775 0.36295 0.78732 0.0
H1713 H 0.22385 0.38417 0.79099 0.0
H1714 H 0.46912 0.37237 0.77801 0.0
H1715 H 0.42357 0.3513 0.77523 0.0
C1716 C 0.4829 0.40874 0.78852 0.0
C1717 C 0.43526 0.41744 0.7767 0.0
C1718 C 0.45447 0.39672 0.79188 0.0
C1719 C 0.37789 0.39313 0.78345 0.0
C1720 C 0.32968 0.40197 0.77227 0.0
C1721 C 0.35781 0.41393 0.76901 0.0
C1722 C 0.24138 0.36488 0.78562 0.0
C1723 C 0.29646 0.3554 0.78075 0.0
C1724 C 0.26808 0.37706 0.78756 0.0
C1725 C 0.35037 0.38006 0.78457 0.0
C1726 C 0.40559 0.37048 0.78071 0.0
C1727 C 0.37908 0.35834 0.7789 0.0
loop_
_geom_bond_atom_site_label_1
_geom_bond_atom_site_label_2
_geom_bond_distance
_geom_bond_site_symmetry_2
_ccdc_geom_bond_type
O0 Cd1 2.223 . S
O0 C8 1.315 . S
Cd1 O0 2.223 . S
Cd1 O4 2.297 . S
Cd1 O5 2.439 1_556 S
Cd1 O11 2.240 1_556 S
Cd2 O3 2.240 1_554 S
Cd2 O10 2.223 1_554 S
Cd2 O12 2.297 . S
Cd2 O13 2.439 . S
O3 Cd2 2.240 1_556 S
O3 C8 1.279 . S
O4 Cd1 2.297 . S
O4 C6 1.276 . S
O5 Cd1 2.439 1_554 S
O5 C6 1.186 1_554 S
C6 O4 1.276 . S
C6 O5 1.186 1_556 S
C7 O12 1.247 . S
C7 O13 1.208 . S
C8 O0 1.315 . S
C8 O3 1.279 . S
C9 O10 1.314 1_554 S
C9 O11 1.280 . S
O10 Cd2 2.223 1_556 S
O10 C9 1.314 1_556 S
O11 Cd1 2.240 1_554 S
O11 C9 1.280 . S
O12 Cd2 2.297 . S
O12 C7 1.247 . S
O13 Cd2 2.439 . S
O13 C7 1.208 . S
O14 Cd15 2.223 . S
O14 C22 1.315 . S
Cd15 O14 2.223 . S
Cd15 O18 2.297 . S
Cd15 O19 2.439 1_556 S
Cd15 O25 2.240 1_556 S
Cd16 O17 2.240 1_454 S
Cd16 O24 2.223 1_454 S
Cd16 O26 2.297 . S
Cd16 O27 2.439 1_455 S
O17 Cd16 2.240 1_656 S
O17 C22 1.279 . S
O18 Cd15 2.297 . S
O18 C20 1.276 . S
O19 Cd15 2.439 1_554 S
O19 C20 1.186 1_554 S
C20 O18 1.276 . S
C20 O19 1.186 1_556 S
C21 O26 1.247 . S
C21 O27 1.208 1_455 S
C22 O14 1.315 . S
C22 O17 1.279 . S
C23 O24 1.314 1_554 S
C23 O25 1.280 . S
O24 Cd16 2.223 1_656 S
O24 C23 1.314 1_556 S
O25 Cd15 2.240 1_554 S
O25 C23 1.280 . S
O26 Cd16 2.297 . S
O26 C21 1.247 . S
O27 Cd16 2.439 1_655 S
O27 C21 1.208 1_655 S
O28 Cd29 2.223 . S
O28 C36 1.315 . S
Cd29 O28 2.223 . S
Cd29 O32 2.297 . S
Cd29 O33 2.439 . S
Cd29 O39 2.240 . S
Cd30 O31 2.240 . S
Cd30 O38 2.223 . S
Cd30 O40 2.297 . S
Cd30 O41 2.439 . S
O31 Cd30 2.240 . S
O31 C36 1.279 . S
O32 Cd29 2.297 . S
O32 C34 1.247 . S
O33 Cd29 2.439 . S
O33 C34 1.208 . S
C34 O32 1.247 . S
C34 O33 1.208 . S
C35 O40 1.247 . S
C35 O41 1.208 . S
C36 O28 1.315 . S
C36 O31 1.279 . S
C37 O38 1.315 . S
C37 O39 1.279 . S
O38 Cd30 2.223 . S
O38 C37 1.315 . S
O39 Cd29 2.240 . S
O39 C37 1.279 . S
O40 Cd30 2.297 . S
O40 C35 1.247 . S
O41 Cd30 2.439 . S
O41 C35 1.208 . S
O42 Cd43 2.223 . S
O42 C50 1.315 . S
Cd43 O42 2.223 . S
Cd43 O46 2.297 . S
Cd43 O47 2.439 . S
Cd43 O53 2.240 . S
Cd44 O45 2.240 1_455 S
Cd44 O52 2.223 1_455 S
Cd44 O54 2.297 . S
Cd44 O55 2.439 1_455 S
O45 Cd44 2.240 1_655 S
O45 C50 1.279 . S
O46 Cd43 2.297 . S
O46 C48 1.247 . S
O47 Cd43 2.439 . S
O47 C48 1.208 . S
C48 O46 1.247 . S
C48 O47 1.208 . S
C49 O54 1.247 . S
C49 O55 1.208 1_455 S
C50 O42 1.315 . S
C50 O45 1.279 . S
C51 O52 1.315 . S
C51 O53 1.279 . S
O52 Cd44 2.223 1_655 S
O52 C51 1.315 . S
O53 Cd43 2.240 . S
O53 C51 1.279 . S
O54 Cd44 2.297 . S
O54 C49 1.247 . S
O55 Cd44 2.439 1_655 S
O55 C49 1.208 1_655 S
O56 Cd57 2.223 . S
O56 C64 1.315 . S
Cd57 O56 2.223 . S
Cd57 O60 2.297 . S
Cd57 O61 2.439 1_554 S
Cd57 O67 2.240 1_554 S
Cd58 O59 2.240 1_556 S
Cd58 O66 2.223 1_556 S
Cd58 O68 2.297 . S
Cd58 O69 2.439 . S
O59 Cd58 2.240 1_554 S
O59 C64 1.279 . S
O60 Cd57 2.297 . S
O60 C62 1.276 . S
O61 Cd57 2.439 1_556 S
O61 C62 1.186 1_556 S
C62 O60 1.276 . S
C62 O61 1.186 1_554 S
C63 O68 1.247 . S
C63 O69 1.208 . S
C64 O56 1.315 . S
C64 O59 1.279 . S
C65 O66 1.314 1_556 S
C65 O67 1.280 . S
O66 Cd58 2.223 1_554 S
O66 C65 1.314 1_554 S
O67 Cd57 2.240 1_556 S
O67 C65 1.280 . S
O68 Cd58 2.297 . S
O68 C63 1.247 . S
O69 Cd58 2.439 . S
O69 C63 1.208 . S
O70 Cd71 2.223 . S
O70 C78 1.315 . S
Cd71 O70 2.223 . S
Cd71 O74 2.297 . S
Cd71 O75 2.439 1_554 S
Cd71 O81 2.240 1_554 S
Cd72 O73 2.240 1_656 S
Cd72 O80 2.223 1_656 S
Cd72 O82 2.297 . S
Cd72 O83 2.439 1_655 S
O73 Cd72 2.240 1_454 S
O73 C78 1.279 . S
O74 Cd71 2.297 . S
O74 C76 1.276 . S
O75 Cd71 2.439 1_556 S
O75 C76 1.186 1_556 S
C76 O74 1.276 . S
C76 O75 1.186 1_554 S
C77 O82 1.247 . S
C77 O83 1.208 1_655 S
C78 O70 1.315 . S
C78 O73 1.279 . S
C79 O80 1.314 1_556 S
C79 O81 1.280 . S
O80 Cd72 2.223 1_454 S
O80 C79 1.314 1_554 S
O81 Cd71 2.240 1_556 S
O81 C79 1.280 . S
O82 Cd72 2.297 . S
O82 C77 1.247 . S
O83 Cd72 2.439 1_455 S
O83 C77 1.208 1_455 S
O84 Cd85 2.223 . S
O84 C92 1.315 . S
Cd85 O84 2.223 . S
Cd85 O88 2.297 . S
Cd85 O89 2.439 . S
Cd85 O95 2.240 . S
Cd86 O87 2.240 . S
Cd86 O94 2.223 . S
Cd86 O96 2.297 . S
Cd86 O97 2.439 . S
O87 Cd86 2.240 . S
O87 C92 1.279 . S
O88 Cd85 2.297 . S
O88 C90 1.247 . S
O89 Cd85 2.439 . S
O89 C90 1.208 . S
C90 O88 1.247 . S
C90 O89 1.208 . S
C91 O96 1.247 . S
C91 O97 1.208 . S
C92 O84 1.315 . S
C92 O87 1.279 . S
C93 O94 1.315 . S
C93 O95 1.279 . S
O94 Cd86 2.223 . S
O94 C93 1.315 . S
O95 Cd85 2.240 . S
O95 C93 1.279 . S
O96 Cd86 2.297 . S
O96 C91 1.247 . S
O97 Cd86 2.439 . S
O97 C91 1.208 . S
O98 Cd99 2.223 . S
O98 C106 1.315 . S
Cd99 O98 2.223 . S
Cd99 O102 2.297 . S
Cd99 O103 2.439 . S
Cd99 O109 2.240 . S
Cd100 O101 2.240 1_655 S
Cd100 O108 2.223 1_655 S
Cd100 O110 2.297 . S
Cd100 O111 2.439 1_655 S
O101 Cd100 2.240 1_455 S
O101 C106 1.279 . S
O102 Cd99 2.297 . S
O102 C104 1.247 . S
O103 Cd99 2.439 . S
O103 C104 1.208 . S
C104 O102 1.247 . S
C104 O103 1.208 . S
C105 O110 1.247 . S
C105 O111 1.208 1_655 S
C106 O98 1.315 . S
C106 O101 1.279 . S
C107 O108 1.315 . S
C107 O109 1.279 . S
O108 Cd100 2.223 1_455 S
O108 C107 1.315 . S
O109 Cd99 2.240 . S
O109 C107 1.279 . S
O110 Cd100 2.297 . S
O110 C105 1.247 . S
O111 Cd100 2.439 1_455 S
O111 C105 1.208 1_455 S
O112 Cd113 2.223 . S
O112 C120 1.315 . S
Cd113 O112 2.223 . S
Cd113 O116 2.297 . S
Cd113 O117 2.439 . S
Cd113 O123 2.240 . S
Cd114 O115 2.240 . S
Cd114 O122 2.223 . S
Cd114 O124 2.297 . S
Cd114 O125 2.439 . S
O115 Cd114 2.240 . S
O115 C120 1.279 . S
O116 Cd113 2.297 . S
O116 C118 1.247 . S
O117 Cd113 2.439 . S
O117 C118 1.208 . S
C118 O116 1.247 . S
C118 O117 1.208 . S
C119 O124 1.247 . S
C119 O125 1.208 . S
C120 O112 1.315 . S
C120 O115 1.279 . S
C121 O122 1.315 . S
C121 O123 1.279 . S
O122 Cd114 2.223 . S
O122 C121 1.315 . S
O123 Cd113 2.240 . S
O123 C121 1.279 . S
O124 Cd114 2.297 . S
O124 C119 1.247 . S
O125 Cd114 2.439 . S
O125 C119 1.208 . S
O126 Cd127 2.223 . S
O126 C134 1.315 . S
Cd127 O126 2.223 . S
Cd127 O130 2.297 . S
Cd127 O131 2.439 . S
Cd127 O137 2.240 . S
Cd128 O129 2.240 1_455 S
Cd128 O136 2.223 1_455 S
Cd128 O138 2.297 . S
Cd128 O139 2.439 1_455 S
O129 Cd128 2.240 1_655 S
O129 C134 1.279 . S
O130 Cd127 2.297 . S
O130 C132 1.247 . S
O131 Cd127 2.439 . S
O131 C132 1.208 . S
C132 O130 1.247 . S
C132 O131 1.208 . S
C133 O138 1.247 . S
C133 O139 1.208 1_455 S
C134 O126 1.315 . S
C134 O129 1.279 . S
C135 O136 1.315 . S
C135 O137 1.279 . S
O136 Cd128 2.223 1_655 S
O136 C135 1.315 . S
O137 Cd127 2.240 . S
O137 C135 1.279 . S
O138 Cd128 2.297 . S
O138 C133 1.247 . S
O139 Cd128 2.439 1_655 S
O139 C133 1.208 1_655 S
O140 Cd141 2.223 . S
O140 C148 1.315 . S
Cd141 O140 2.223 . S
Cd141 O144 2.297 . S
Cd141 O145 2.439 . S
Cd141 O151 2.240 . S
Cd142 O143 2.240 . S
Cd142 O150 2.223 . S
Cd142 O152 2.297 . S
Cd142 O153 2.439 . S
O143 Cd142 2.240 . S
O143 C148 1.279 . S
O144 Cd141 2.297 . S
O144 C146 1.247 . S
O145 Cd141 2.439 . S
O145 C146 1.208 . S
C146 O144 1.247 . S
C146 O145 1.208 . S
C147 O152 1.247 . S
C147 O153 1.208 . S
C148 O140 1.315 . S
C148 O143 1.279 . S
C149 O150 1.315 . S
C149 O151 1.279 . S
O150 Cd142 2.223 . S
O150 C149 1.315 . S
O151 Cd141 2.240 . S
O151 C149 1.279 . S
O152 Cd142 2.297 . S
O152 C147 1.247 . S
O153 Cd142 2.439 . S
O153 C147 1.208 . S
O154 Cd155 2.223 . S
O154 C162 1.315 . S
Cd155 O154 2.223 . S
Cd155 O158 2.297 . S
Cd155 O159 2.439 . S
Cd155 O165 2.240 . S
Cd156 O157 2.240 1_455 S
Cd156 O164 2.223 1_455 S
Cd156 O166 2.297 . S
Cd156 O167 2.439 1_455 S
O157 Cd156 2.240 1_655 S
O157 C162 1.279 . S
O158 Cd155 2.297 . S
O158 C160 1.247 . S
O159 Cd155 2.439 . S
O159 C160 1.208 . S
C160 O158 1.247 . S
C160 O159 1.208 . S
C161 O166 1.247 . S
C161 O167 1.208 1_455 S
C162 O154 1.315 . S
C162 O157 1.279 . S
C163 O164 1.315 . S
C163 O165 1.279 . S
O164 Cd156 2.223 1_655 S
O164 C163 1.315 . S
O165 Cd155 2.240 . S
O165 C163 1.279 . S
O166 Cd156 2.297 . S
O166 C161 1.247 . S
O167 Cd156 2.439 1_655 S
O167 C161 1.208 1_655 S
O168 Cd169 2.223 . S
O168 C176 1.315 . S
Cd169 O168 2.223 . S
Cd169 O172 2.297 . S
Cd169 O173 2.439 . S
Cd169 O179 2.240 . S
Cd170 O171 2.240 . S
Cd170 O178 2.223 . S
Cd170 O180 2.297 . S
Cd170 O181 2.439 . S
O171 Cd170 2.240 . S
O171 C176 1.279 . S
O172 Cd169 2.297 . S
O172 C174 1.247 . S
O173 Cd169 2.439 . S
O173 C174 1.208 . S
C174 O172 1.247 . S
C174 O173 1.208 . S
C175 O180 1.247 . S
C175 O181 1.208 . S
C176 O168 1.315 . S
C176 O171 1.279 . S
C177 O178 1.315 . S
C177 O179 1.279 . S
O178 Cd170 2.223 . S
O178 C177 1.315 . S
O179 Cd169 2.240 . S
O179 C177 1.279 . S
O180 Cd170 2.297 . S
O180 C175 1.247 . S
O181 Cd170 2.439 . S
O181 C175 1.208 . S
O182 Cd183 2.223 . S
O182 C190 1.315 . S
Cd183 O182 2.223 . S
Cd183 O186 2.297 . S
Cd183 O187 2.439 . S
Cd183 O193 2.240 . S
Cd184 O185 2.240 1_655 S
Cd184 O192 2.223 1_655 S
Cd184 O194 2.297 . S
Cd184 O195 2.439 1_655 S
O185 Cd184 2.240 1_455 S
O185 C190 1.279 . S
O186 Cd183 2.297 . S
O186 C188 1.247 . S
O187 Cd183 2.439 . S
O187 C188 1.208 . S
C188 O186 1.247 . S
C188 O187 1.208 . S
C189 O194 1.247 . S
C189 O195 1.208 1_655 S
C190 O182 1.315 . S
C190 O185 1.279 . S
C191 O192 1.315 . S
C191 O193 1.279 . S
O192 Cd184 2.223 1_455 S
O192 C191 1.315 . S
O193 Cd183 2.240 . S
O193 C191 1.279 . S
O194 Cd184 2.297 . S
O194 C189 1.247 . S
O195 Cd184 2.439 1_455 S
O195 C189 1.208 1_455 S
O196 Cd197 2.223 . S
O196 C204 1.315 . S
Cd197 O196 2.223 . S
Cd197 O200 2.297 . S
Cd197 O201 2.439 . S
Cd197 O207 2.240 . S
Cd198 O199 2.240 . S
Cd198 O206 2.223 . S
Cd198 O208 2.297 . S
Cd198 O209 2.439 . S
O199 Cd198 2.240 . S
O199 C204 1.279 . S
O200 Cd197 2.297 . S
O200 C202 1.247 . S
O201 Cd197 2.439 . S
O201 C202 1.208 . S
C202 O200 1.247 . S
C202 O201 1.208 . S
C203 O208 1.247 . S
C203 O209 1.208 . S
C204 O196 1.315 . S
C204 O199 1.279 . S
C205 O206 1.315 . S
C205 O207 1.279 . S
O206 Cd198 2.223 . S
O206 C205 1.315 . S
O207 Cd197 2.240 . S
O207 C205 1.279 . S
O208 Cd198 2.297 . S
O208 C203 1.247 . S
O209 Cd198 2.439 . S
O209 C203 1.208 . S
O210 Cd211 2.223 . S
O210 C218 1.315 . S
Cd211 O210 2.223 . S
Cd211 O214 2.297 . S
Cd211 O215 2.439 . S
Cd211 O221 2.240 . S
Cd212 O213 2.240 1_655 S
Cd212 O220 2.223 1_655 S
Cd212 O222 2.297 . S
Cd212 O223 2.439 1_655 S
O213 Cd212 2.240 1_455 S
O213 C218 1.279 . S
O214 Cd211 2.297 . S
O214 C216 1.247 . S
O215 Cd211 2.439 . S
O215 C216 1.208 . S
C216 O214 1.247 . S
C216 O215 1.208 . S
C217 O222 1.247 . S
C217 O223 1.208 1_655 S
C218 O210 1.315 . S
C218 O213 1.279 . S
C219 O220 1.315 . S
C219 O221 1.279 . S
O220 Cd212 2.223 1_455 S
O220 C219 1.315 . S
O221 Cd211 2.240 . S
O221 C219 1.279 . S
O222 Cd212 2.297 . S
O222 C217 1.247 . S
O223 Cd212 2.439 1_455 S
O223 C217 1.208 1_455 S
O224 Cd225 2.223 . S
O224 C232 1.315 . S
Cd225 O224 2.223 . S
Cd225 O228 2.297 1_655 S
Cd225 O229 2.439 . S
Cd225 O235 2.240 . S
Cd226 O227 2.240 . S
Cd226 O234 2.223 . S
Cd226 O236 2.297 . S
Cd226 O237 2.439 . S
O227 Cd226 2.240 . S
O227 C232 1.279 . S
O228 Cd225 2.297 1_455 S
O228 C230 1.247 . S
O229 Cd225 2.439 . S
O229 C230 1.208 1_655 S
C230 O228 1.247 . S
C230 O229 1.208 1_455 S
C231 O236 1.247 . S
C231 O237 1.208 . S
C232 O224 1.315 . S
C232 O227 1.279 . S
C233 O234 1.315 . S
C233 O235 1.279 . S
O234 Cd226 2.223 . S
O234 C233 1.315 . S
O235 Cd225 2.240 . S
O235 C233 1.279 . S
O236 Cd226 2.297 . S
O236 C231 1.247 . S
O237 Cd226 2.439 . S
O237 C231 1.208 . S
O238 Cd239 2.223 . S
O238 C246 1.315 . S
Cd239 O238 2.223 . S
Cd239 O242 2.297 . S
Cd239 O243 2.439 . S
Cd239 O249 2.240 . S
Cd240 O241 2.240 . S
Cd240 O248 2.223 . S
Cd240 O250 2.297 . S
Cd240 O251 2.439 . S
O241 Cd240 2.240 . S
O241 C246 1.279 . S
O242 Cd239 2.297 . S
O242 C244 1.247 . S
O243 Cd239 2.439 . S
O243 C244 1.208 . S
C244 O242 1.247 . S
C244 O243 1.208 . S
C245 O250 1.247 . S
C245 O251 1.208 . S
C246 O238 1.315 . S
C246 O241 1.279 . S
C247 O248 1.315 . S
C247 O249 1.279 . S
O248 Cd240 2.223 . S
O248 C247 1.315 . S
O249 Cd239 2.240 . S
O249 C247 1.279 . S
O250 Cd240 2.297 . S
O250 C245 1.247 . S
O251 Cd240 2.439 . S
O251 C245 1.208 . S
O252 Cd253 2.223 . S
O252 C260 1.315 . S
Cd253 O252 2.223 . S
Cd253 O256 2.297 1_655 S
Cd253 O257 2.439 . S
Cd253 O263 2.240 . S
Cd254 O255 2.240 . S
Cd254 O262 2.223 . S
Cd254 O264 2.297 . S
Cd254 O265 2.439 . S
O255 Cd254 2.240 . S
O255 C260 1.279 . S
O256 Cd253 2.297 1_455 S
O256 C258 1.247 . S
O257 Cd253 2.439 . S
O257 C258 1.208 1_655 S
C258 O256 1.247 . S
C258 O257 1.208 1_455 S
C259 O264 1.247 . S
C259 O265 1.208 . S
C260 O252 1.315 . S
C260 O255 1.279 . S
C261 O262 1.315 . S
C261 O263 1.279 . S
O262 Cd254 2.223 . S
O262 C261 1.315 . S
O263 Cd253 2.240 . S
O263 C261 1.279 . S
O264 Cd254 2.297 . S
O264 C259 1.247 . S
O265 Cd254 2.439 . S
O265 C259 1.208 . S
O266 Cd267 2.223 . S
O266 C274 1.315 . S
Cd267 O266 2.223 . S
Cd267 O270 2.297 . S
Cd267 O271 2.439 . S
Cd267 O277 2.240 . S
Cd268 O269 2.240 . S
Cd268 O276 2.223 . S
Cd268 O278 2.297 . S
Cd268 O279 2.439 . S
O269 Cd268 2.240 . S
O269 C274 1.279 . S
O270 Cd267 2.297 . S
O270 C272 1.247 . S
O271 Cd267 2.439 . S
O271 C272 1.208 . S
C272 O270 1.247 . S
C272 O271 1.208 . S
C273 O278 1.247 . S
C273 O279 1.208 . S
C274 O266 1.315 . S
C274 O269 1.279 . S
C275 O276 1.315 . S
C275 O277 1.279 . S
O276 Cd268 2.223 . S
O276 C275 1.315 . S
O277 Cd267 2.240 . S
O277 C275 1.279 . S
O278 Cd268 2.297 . S
O278 C273 1.247 . S
O279 Cd268 2.439 . S
O279 C273 1.208 . S
O280 Cd281 2.223 . S
O280 C288 1.315 . S
Cd281 O280 2.223 . S
Cd281 O284 2.297 1_455 S
Cd281 O285 2.439 . S
Cd281 O291 2.240 . S
Cd282 O283 2.240 . S
Cd282 O290 2.223 . S
Cd282 O292 2.297 . S
Cd282 O293 2.439 . S
O283 Cd282 2.240 . S
O283 C288 1.279 . S
O284 Cd281 2.297 1_655 S
O284 C286 1.247 . S
O285 Cd281 2.439 . S
O285 C286 1.208 1_455 S
C286 O284 1.247 . S
C286 O285 1.208 1_655 S
C287 O292 1.247 . S
C287 O293 1.208 . S
C288 O280 1.315 . S
C288 O283 1.279 . S
C289 O290 1.315 . S
C289 O291 1.279 . S
O290 Cd282 2.223 . S
O290 C289 1.315 . S
O291 Cd281 2.240 . S
O291 C289 1.279 . S
O292 Cd282 2.297 . S
O292 C287 1.247 . S
O293 Cd282 2.439 . S
O293 C287 1.208 . S
O294 Cd295 2.223 . S
O294 C302 1.315 . S
Cd295 O294 2.223 . S
Cd295 O298 2.297 . S
Cd295 O299 2.439 . S
Cd295 O305 2.240 . S
Cd296 O297 2.240 . S
Cd296 O304 2.223 . S
Cd296 O306 2.297 . S
Cd296 O307 2.439 . S
O297 Cd296 2.240 . S
O297 C302 1.279 . S
O298 Cd295 2.297 . S
O298 C300 1.247 . S
O299 Cd295 2.439 . S
O299 C300 1.208 . S
C300 O298 1.247 . S
C300 O299 1.208 . S
C301 O306 1.247 . S
C301 O307 1.208 . S
C302 O294 1.315 . S
C302 O297 1.279 . S
C303 O304 1.315 . S
C303 O305 1.279 . S
O304 Cd296 2.223 . S
O304 C303 1.315 . S
O305 Cd295 2.240 . S
O305 C303 1.279 . S
O306 Cd296 2.297 . S
O306 C301 1.247 . S
O307 Cd296 2.439 . S
O307 C301 1.208 . S
O308 Cd309 2.223 . S
O308 C316 1.315 . S
Cd309 O308 2.223 . S
Cd309 O312 2.297 1_455 S
Cd309 O313 2.439 . S
Cd309 O319 2.240 . S
Cd310 O311 2.240 . S
Cd310 O318 2.223 . S
Cd310 O320 2.297 . S
Cd310 O321 2.439 . S
O311 Cd310 2.240 . S
O311 C316 1.279 . S
O312 Cd309 2.297 1_655 S
O312 C314 1.247 . S
O313 Cd309 2.439 . S
O313 C314 1.208 1_455 S
C314 O312 1.247 . S
C314 O313 1.208 1_655 S
C315 O320 1.247 . S
C315 O321 1.208 . S
C316 O308 1.315 . S
C316 O311 1.279 . S
C317 O318 1.315 . S
C317 O319 1.279 . S
O318 Cd310 2.223 . S
O318 C317 1.315 . S
O319 Cd309 2.240 . S
O319 C317 1.279 . S
O320 Cd310 2.297 . S
O320 C315 1.247 . S
O321 Cd310 2.439 . S
O321 C315 1.208 . S
O322 Cd323 2.223 . S
O322 C330 1.315 . S
Cd323 O322 2.223 . S
Cd323 O326 2.297 . S
Cd323 O327 2.439 . S
Cd323 O333 2.240 . S
Cd324 O325 2.240 . S
Cd324 O332 2.223 . S
Cd324 O334 2.297 . S
Cd324 O335 2.439 . S
O325 Cd324 2.240 . S
O325 C330 1.279 . S
O326 Cd323 2.297 . S
O326 C328 1.247 . S
O327 Cd323 2.439 . S
O327 C328 1.208 . S
C328 O326 1.247 . S
C328 O327 1.208 . S
C329 O334 1.247 . S
C329 O335 1.208 . S
C330 O322 1.315 . S
C330 O325 1.279 . S
C331 O332 1.315 . S
C331 O333 1.279 . S
O332 Cd324 2.223 . S
O332 C331 1.315 . S
O333 Cd323 2.240 . S
O333 C331 1.279 . S
O334 Cd324 2.297 . S
O334 C329 1.247 . S
O335 Cd324 2.439 . S
O335 C329 1.208 . S
O336 Cd337 2.223 . S
O336 C344 1.315 . S
Cd337 O336 2.223 . S
Cd337 O340 2.297 1_655 S
Cd337 O341 2.439 1_556 S
Cd337 O347 2.240 1_556 S
Cd338 O339 2.240 1_554 S
Cd338 O346 2.223 1_554 S
Cd338 O348 2.297 . S
Cd338 O349 2.439 . S
O339 Cd338 2.240 1_556 S
O339 C344 1.279 . S
O340 Cd337 2.297 1_455 S
O340 C342 1.276 . S
O341 Cd337 2.439 1_554 S
O341 C342 1.186 1_654 S
C342 O340 1.276 . S
C342 O341 1.186 1_456 S
C343 O348 1.247 . S
C343 O349 1.208 . S
C344 O336 1.315 . S
C344 O339 1.279 . S
C345 O346 1.314 1_554 S
C345 O347 1.281 . S
O346 Cd338 2.223 1_556 S
O346 C345 1.314 1_556 S
O347 Cd337 2.240 1_554 S
O347 C345 1.281 . S
O348 Cd338 2.297 . S
O348 C343 1.247 . S
O349 Cd338 2.439 . S
O349 C343 1.208 . S
O350 Cd351 2.223 . S
O350 C358 1.315 . S
Cd351 O350 2.223 . S
Cd351 O354 2.297 . S
Cd351 O355 2.439 1_556 S
Cd351 O361 2.240 1_556 S
Cd352 O353 2.240 1_554 S
Cd352 O360 2.223 1_554 S
Cd352 O362 2.297 . S
Cd352 O363 2.439 . S
O353 Cd352 2.240 1_556 S
O353 C358 1.279 . S
O354 Cd351 2.297 . S
O354 C356 1.275 . S
O355 Cd351 2.439 1_554 S
O355 C356 1.187 1_554 S
C356 O354 1.275 . S
C356 O355 1.187 1_556 S
C357 O362 1.247 . S
C357 O363 1.208 . S
C358 O350 1.315 . S
C358 O353 1.279 . S
C359 O360 1.314 1_554 S
C359 O361 1.281 . S
O360 Cd352 2.223 1_556 S
O360 C359 1.314 1_556 S
O361 Cd351 2.240 1_554 S
O361 C359 1.281 . S
O362 Cd352 2.297 . S
O362 C357 1.247 . S
O363 Cd352 2.439 . S
O363 C357 1.208 . S
O364 Cd365 2.223 . S
O364 C372 1.315 . S
Cd365 O364 2.223 . S
Cd365 O368 2.297 1_655 S
Cd365 O369 2.439 . S
Cd365 O375 2.240 . S
Cd366 O367 2.240 . S
Cd366 O374 2.223 . S
Cd366 O376 2.297 . S
Cd366 O377 2.439 . S
O367 Cd366 2.240 . S
O367 C372 1.279 . S
O368 Cd365 2.297 1_455 S
O368 C370 1.247 . S
O369 Cd365 2.439 . S
O369 C370 1.208 1_655 S
C370 O368 1.247 . S
C370 O369 1.208 1_455 S
C371 O376 1.247 . S
C371 O377 1.208 . S
C372 O364 1.315 . S
C372 O367 1.279 . S
C373 O374 1.315 . S
C373 O375 1.279 . S
O374 Cd366 2.223 . S
O374 C373 1.315 . S
O375 Cd365 2.240 . S
O375 C373 1.279 . S
O376 Cd366 2.297 . S
O376 C371 1.247 . S
O377 Cd366 2.439 . S
O377 C371 1.208 . S
O378 Cd379 2.223 . S
O378 C386 1.315 . S
Cd379 O378 2.223 . S
Cd379 O382 2.297 . S
Cd379 O383 2.439 . S
Cd379 O389 2.240 . S
Cd380 O381 2.240 . S
Cd380 O388 2.223 . S
Cd380 O390 2.297 . S
Cd380 O391 2.439 . S
O381 Cd380 2.240 . S
O381 C386 1.279 . S
O382 Cd379 2.297 . S
O382 C384 1.247 . S
O383 Cd379 2.439 . S
O383 C384 1.208 . S
C384 O382 1.247 . S
C384 O383 1.208 . S
C385 O390 1.247 . S
C385 O391 1.208 . S
C386 O378 1.315 . S
C386 O381 1.279 . S
C387 O388 1.315 . S
C387 O389 1.279 . S
O388 Cd380 2.223 . S
O388 C387 1.315 . S
O389 Cd379 2.240 . S
O389 C387 1.279 . S
O390 Cd380 2.297 . S
O390 C385 1.247 . S
O391 Cd380 2.439 . S
O391 C385 1.208 . S
O392 Cd393 2.223 . S
O392 C400 1.315 . S
Cd393 O392 2.223 . S
Cd393 O396 2.297 1_455 S
Cd393 O397 2.439 1_554 S
Cd393 O403 2.240 1_554 S
Cd394 O395 2.240 1_556 S
Cd394 O402 2.223 1_556 S
Cd394 O404 2.297 . S
Cd394 O405 2.439 . S
O395 Cd394 2.240 1_554 S
O395 C400 1.279 . S
O396 Cd393 2.297 1_655 S
O396 C398 1.276 . S
O397 Cd393 2.439 1_556 S
O397 C398 1.186 1_456 S
C398 O396 1.276 . S
C398 O397 1.186 1_654 S
C399 O404 1.247 . S
C399 O405 1.208 . S
C400 O392 1.315 . S
C400 O395 1.279 . S
C401 O402 1.314 1_556 S
C401 O403 1.281 . S
O402 Cd394 2.223 1_554 S
O402 C401 1.314 1_554 S
O403 Cd393 2.240 1_556 S
O403 C401 1.281 . S
O404 Cd394 2.297 . S
O404 C399 1.247 . S
O405 Cd394 2.439 . S
O405 C399 1.208 . S
O406 Cd407 2.223 . S
O406 C414 1.315 . S
Cd407 O406 2.223 . S
Cd407 O410 2.297 . S
Cd407 O411 2.439 1_554 S
Cd407 O417 2.240 1_554 S
Cd408 O409 2.240 1_556 S
Cd408 O416 2.223 1_556 S
Cd408 O418 2.297 . S
Cd408 O419 2.439 . S
O409 Cd408 2.240 1_554 S
O409 C414 1.279 . S
O410 Cd407 2.297 . S
O410 C412 1.275 . S
O411 Cd407 2.439 1_556 S
O411 C412 1.187 1_556 S
C412 O410 1.275 . S
C412 O411 1.187 1_554 S
C413 O418 1.247 . S
C413 O419 1.208 . S
C414 O406 1.315 . S
C414 O409 1.279 . S
C415 O416 1.314 1_556 S
C415 O417 1.281 . S
O416 Cd408 2.223 1_554 S
O416 C415 1.314 1_554 S
O417 Cd407 2.240 1_556 S
O417 C415 1.281 . S
O418 Cd408 2.297 . S
O418 C413 1.247 . S
O419 Cd408 2.439 . S
O419 C413 1.208 . S
O420 Cd421 2.223 . S
O420 C428 1.315 . S
Cd421 O420 2.223 . S
Cd421 O424 2.297 1_455 S
Cd421 O425 2.439 . S
Cd421 O431 2.240 . S
Cd422 O423 2.240 . S
Cd422 O430 2.223 . S
Cd422 O432 2.297 . S
Cd422 O433 2.439 . S
O423 Cd422 2.240 . S
O423 C428 1.279 . S
O424 Cd421 2.297 1_655 S
O424 C426 1.247 . S
O425 Cd421 2.439 . S
O425 C426 1.208 1_455 S
C426 O424 1.247 . S
C426 O425 1.208 1_655 S
C427 O432 1.247 . S
C427 O433 1.208 . S
C428 O420 1.315 . S
C428 O423 1.279 . S
C429 O430 1.315 . S
C429 O431 1.279 . S
O430 Cd422 2.223 . S
O430 C429 1.315 . S
O431 Cd421 2.240 . S
O431 C429 1.279 . S
O432 Cd422 2.297 . S
O432 C427 1.247 . S
O433 Cd422 2.439 . S
O433 C427 1.208 . S
O434 Cd435 2.223 . S
O434 C442 1.315 . S
Cd435 O434 2.223 . S
Cd435 O438 2.297 . S
Cd435 O439 2.439 . S
Cd435 O445 2.240 . S
Cd436 O437 2.240 . S
Cd436 O444 2.223 . S
Cd436 O446 2.297 . S
Cd436 O447 2.439 . S
O437 Cd436 2.240 . S
O437 C442 1.279 . S
O438 Cd435 2.297 . S
O438 C440 1.247 . S
O439 Cd435 2.439 . S
O439 C440 1.208 . S
C440 O438 1.247 . S
C440 O439 1.208 . S
C441 O446 1.247 . S
C441 O447 1.208 . S
C442 O434 1.315 . S
C442 O437 1.279 . S
C443 O444 1.315 . S
C443 O445 1.279 . S
O444 Cd436 2.223 . S
O444 C443 1.315 . S
O445 Cd435 2.240 . S
O445 C443 1.279 . S
O446 Cd436 2.297 . S
O446 C441 1.247 . S
O447 Cd436 2.439 . S
O447 C441 1.208 . S
H448 C456 0.950 . S
H449 C461 0.950 . S
H450 C458 0.950 . S
H451 C460 0.950 . S
H452 C462 0.950 . S
H453 C464 0.950 . S
H454 C466 0.950 . S
H455 C467 0.950 1_655 S
C456 H448 0.950 . S
C456 C457 1.386 . S
C456 C458 1.391 . S
C457 C456 1.386 . S
C457 C461 1.393 . S
C458 H450 0.950 . S
C458 C456 1.391 . S
C458 C459 1.400 . S
C459 C458 1.400 . S
C459 C460 1.398 . S
C459 C465 1.491 . S
C460 H451 0.950 . S
C460 C459 1.398 . S
C460 C461 1.391 . S
C461 H449 0.950 . S
C461 C457 1.393 . S
C461 C460 1.391 . S
C462 H452 0.950 . S
C462 C463 1.386 . S
C462 C464 1.391 . S
C463 C462 1.386 . S
C463 C467 1.393 . S
C464 H453 0.950 . S
C464 C462 1.391 . S
C464 C465 1.400 . S
C465 C459 1.491 . S
C465 C464 1.400 . S
C465 C466 1.398 . S
C466 H454 0.950 . S
C466 C465 1.398 . S
C466 C467 1.391 . S
C467 H455 0.950 1_455 S
C467 C463 1.393 . S
C467 C466 1.391 . S
H468 C476 0.950 . S
H469 C481 0.950 . S
H470 C478 0.950 . S
H471 C480 0.950 . S
H472 C482 0.950 1_655 S
H473 C484 0.950 . S
H474 C486 0.950 . S
H475 C487 0.950 . S
C476 H468 0.950 . S
C476 C477 1.386 . S
C476 C478 1.391 . S
C477 C476 1.386 . S
C477 C481 1.393 . S
C478 H470 0.950 . S
C478 C476 1.391 . S
C478 C479 1.400 . S
C479 C478 1.400 . S
C479 C480 1.398 . S
C479 C485 1.491 . S
C480 H471 0.950 . S
C480 C479 1.398 . S
C480 C481 1.391 . S
C481 H469 0.950 . S
C481 C477 1.393 . S
C481 C480 1.391 . S
C482 H472 0.950 1_455 S
C482 C483 1.386 . S
C482 C484 1.391 . S
C483 C482 1.386 . S
C483 C487 1.393 . S
C484 H473 0.950 . S
C484 C482 1.391 . S
C484 C485 1.400 . S
C485 C479 1.491 . S
C485 C484 1.400 . S
C485 C486 1.398 . S
C486 H474 0.950 . S
C486 C485 1.398 . S
C486 C487 1.391 . S
C487 H475 0.950 . S
C487 C483 1.393 . S
C487 C486 1.391 . S
H488 C496 0.950 1_455 S
H489 C501 0.950 . S
H490 C498 0.950 1_455 S
H491 C500 0.950 . S
H492 C502 0.950 . S
H493 C504 0.950 . S
H494 C506 0.950 . S
H495 C507 0.950 . S
C496 H488 0.950 1_655 S
C496 C497 1.386 . S
C496 C498 1.391 . S
C497 C496 1.386 . S
C497 C501 1.393 . S
C498 H490 0.950 1_655 S
C498 C496 1.391 . S
C498 C499 1.400 . S
C499 C498 1.400 . S
C499 C500 1.398 . S
C499 C505 1.491 . S
C500 H491 0.950 . S
C500 C499 1.398 . S
C500 C501 1.391 . S
C501 H489 0.950 . S
C501 C497 1.393 . S
C501 C500 1.391 . S
C502 H492 0.950 . S
C502 C503 1.386 . S
C502 C504 1.391 . S
C503 C502 1.386 . S
C503 C507 1.393 . S
C504 H493 0.950 . S
C504 C502 1.391 . S
C504 C505 1.400 . S
C505 C499 1.491 . S
C505 C504 1.400 . S
C505 C506 1.398 . S
C506 H494 0.950 . S
C506 C505 1.398 . S
C506 C507 1.391 . S
C507 H495 0.950 . S
C507 C503 1.393 . S
C507 C506 1.391 . S
H508 C516 0.950 . S
H509 C521 0.950 . S
H510 C518 0.950 . S
H511 C520 0.950 . S
H512 C522 0.950 1_455 S
H513 C524 0.950 . S
H514 C526 0.950 . S
H515 C527 0.950 . S
C516 H508 0.950 . S
C516 C517 1.386 . S
C516 C518 1.391 . S
C517 C516 1.386 . S
C517 C521 1.393 . S
C518 H510 0.950 . S
C518 C516 1.391 . S
C518 C519 1.400 . S
C519 C518 1.400 . S
C519 C520 1.398 . S
C519 C525 1.491 . S
C520 H511 0.950 . S
C520 C519 1.398 . S
C520 C521 1.391 . S
C521 H509 0.950 . S
C521 C517 1.393 . S
C521 C520 1.391 . S
C522 H512 0.950 1_655 S
C522 C523 1.386 . S
C522 C524 1.391 . S
C523 C522 1.386 . S
C523 C527 1.393 . S
C524 H513 0.950 . S
C524 C522 1.391 . S
C524 C525 1.400 . S
C525 C519 1.491 . S
C525 C524 1.400 . S
C525 C526 1.398 . S
C526 H514 0.950 . S
C526 C525 1.398 . S
C526 C527 1.391 . S
C527 H515 0.950 . S
C527 C523 1.393 . S
C527 C526 1.391 . S
H528 C536 0.950 . S
H529 C541 0.950 . S
H530 C538 0.950 . S
H531 C540 0.950 . S
H532 C542 0.950 . S
H533 C544 0.950 . S
H534 C546 0.950 . S
H535 C547 0.950 . S
C536 H528 0.950 . S
C536 C537 1.386 . S
C536 C538 1.391 . S
C537 C536 1.386 . S
C537 C541 1.393 . S
C538 H530 0.950 . S
C538 C536 1.391 . S
C538 C539 1.400 . S
C539 C538 1.400 . S
C539 C540 1.398 . S
C539 C545 1.491 . S
C540 H531 0.950 . S
C540 C539 1.398 . S
C540 C541 1.391 . S
C541 H529 0.950 . S
C541 C537 1.393 . S
C541 C540 1.391 . S
C542 H532 0.950 . S
C542 C543 1.386 . S
C542 C544 1.391 . S
C543 C542 1.386 . S
C543 C547 1.393 . S
C544 H533 0.950 . S
C544 C542 1.391 . S
C544 C545 1.400 . S
C545 C539 1.491 . S
C545 C544 1.400 . S
C545 C546 1.398 . S
C546 H534 0.950 . S
C546 C545 1.398 . S
C546 C547 1.391 . S
C547 H535 0.950 . S
C547 C543 1.393 . S
C547 C546 1.391 . S
H548 C556 0.950 . S
H549 C561 0.950 1_655 S
H550 C558 0.950 . S
H551 C560 0.950 . S
H552 C562 0.950 . S
H553 C564 0.950 . S
H554 C566 0.950 . S
H555 C567 0.950 . S
C556 H548 0.950 . S
C556 C557 1.386 . S
C556 C558 1.391 . S
C557 C556 1.386 . S
C557 C561 1.393 . S
C558 H550 0.950 . S
C558 C556 1.391 . S
C558 C559 1.400 . S
C559 C558 1.400 . S
C559 C560 1.398 . S
C559 C565 1.491 . S
C560 H551 0.950 . S
C560 C559 1.398 . S
C560 C561 1.391 . S
C561 H549 0.950 1_455 S
C561 C557 1.393 . S
C561 C560 1.391 . S
C562 H552 0.950 . S
C562 C563 1.386 . S
C562 C564 1.391 . S
C563 C562 1.386 . S
C563 C567 1.393 . S
C564 H553 0.950 . S
C564 C562 1.391 . S
C564 C565 1.400 . S
C565 C559 1.491 . S
C565 C564 1.400 . S
C565 C566 1.398 . S
C566 H554 0.950 . S
C566 C565 1.398 . S
C566 C567 1.391 . S
C567 H555 0.950 . S
C567 C563 1.393 . S
C567 C566 1.391 . S
H568 C576 0.950 . S
H569 C581 0.950 1_455 S
H570 C578 0.950 . S
H571 C580 0.950 1_455 S
H572 C582 0.950 . S
H573 C584 0.950 . S
H574 C586 0.950 . S
H575 C587 0.950 . S
C576 H568 0.950 . S
C576 C577 1.386 . S
C576 C578 1.391 . S
C577 C576 1.386 . S
C577 C581 1.393 . S
C578 H570 0.950 . S
C578 C576 1.391 . S
C578 C579 1.400 . S
C579 C578 1.400 . S
C579 C580 1.398 . S
C579 C585 1.491 . S
C580 H571 0.950 1_655 S
C580 C579 1.398 . S
C580 C581 1.391 . S
C581 H569 0.950 1_655 S
C581 C577 1.393 . S
C581 C580 1.391 . S
C582 H572 0.950 . S
C582 C583 1.386 . S
C582 C584 1.391 . S
C583 C582 1.386 . S
C583 C587 1.393 . S
C584 H573 0.950 . S
C584 C582 1.391 . S
C584 C585 1.400 . S
C585 C579 1.491 . S
C585 C584 1.400 . S
C585 C586 1.398 . S
C586 H574 0.950 . S
C586 C585 1.398 . S
C586 C587 1.391 . S
C587 H575 0.950 . S
C587 C583 1.393 . S
C587 C586 1.391 . S
H588 C596 0.950 . S
H589 C601 0.950 . S
H590 C598 0.950 . S
H591 C600 0.950 . S
H592 C602 0.950 . S
H593 C604 0.950 . S
H594 C606 0.950 1_455 S
H595 C607 0.950 1_455 S
C596 H588 0.950 . S
C596 C597 1.386 . S
C596 C598 1.391 . S
C597 C596 1.386 . S
C597 C601 1.393 . S
C598 H590 0.950 . S
C598 C596 1.391 . S
C598 C599 1.400 . S
C599 C598 1.400 . S
C599 C600 1.398 . S
C599 C605 1.491 . S
C600 H591 0.950 . S
C600 C599 1.398 . S
C600 C601 1.391 . S
C601 H589 0.950 . S
C601 C597 1.393 . S
C601 C600 1.391 . S
C602 H592 0.950 . S
C602 C603 1.386 . S
C602 C604 1.391 . S
C603 C602 1.386 . S
C603 C607 1.393 . S
C604 H593 0.950 . S
C604 C602 1.391 . S
C604 C605 1.400 . S
C605 C599 1.491 . S
C605 C604 1.400 . S
C605 C606 1.398 . S
C606 H594 0.950 1_655 S
C606 C605 1.398 . S
C606 C607 1.391 . S
C607 H595 0.950 1_655 S
C607 C603 1.393 . S
C607 C606 1.391 . S
H608 C616 0.950 . S
H609 C621 0.950 . S
H610 C618 0.950 . S
H611 C620 0.950 . S
H612 C622 0.950 . S
H613 C624 0.950 . S
H614 C626 0.950 . S
H615 C627 0.950 . S
C616 H608 0.950 . S
C616 C617 1.386 . S
C616 C618 1.391 . S
C617 C616 1.386 . S
C617 C621 1.393 . S
C618 H610 0.950 . S
C618 C616 1.391 . S
C618 C619 1.400 . S
C619 C618 1.400 . S
C619 C620 1.398 . S
C619 C625 1.491 . S
C620 H611 0.950 . S
C620 C619 1.398 . S
C620 C621 1.391 . S
C621 H609 0.950 . S
C621 C617 1.393 . S
C621 C620 1.391 . S
C622 H612 0.950 . S
C622 C623 1.386 . S
C622 C624 1.391 . S
C623 C622 1.386 . S
C623 C627 1.393 . S
C624 H613 0.950 . S
C624 C622 1.391 . S
C624 C625 1.400 . S
C625 C619 1.491 . S
C625 C624 1.400 . S
C625 C626 1.398 . S
C626 H614 0.950 . S
C626 C625 1.398 . S
C626 C627 1.391 . S
C627 H615 0.950 . S
C627 C623 1.393 . S
C627 C626 1.391 . S
H628 C636 0.950 . S
H629 C641 0.950 . S
H630 C638 0.950 . S
H631 C640 0.950 . S
H632 C642 0.950 . S
H633 C644 0.950 . S
H634 C646 0.950 . S
H635 C647 0.950 . S
C636 H628 0.950 . S
C636 C637 1.386 . S
C636 C638 1.391 . S
C637 C636 1.386 . S
C637 C641 1.393 . S
C638 H630 0.950 . S
C638 C636 1.391 . S
C638 C639 1.400 . S
C639 C638 1.400 . S
C639 C640 1.398 . S
C639 C645 1.491 . S
C640 H631 0.950 . S
C640 C639 1.398 . S
C640 C641 1.391 . S
C641 H629 0.950 . S
C641 C637 1.393 . S
C641 C640 1.391 . S
C642 H632 0.950 . S
C642 C643 1.386 . S
C642 C644 1.391 . S
C643 C642 1.386 . S
C643 C647 1.393 . S
C644 H633 0.950 . S
C644 C642 1.391 . S
C644 C645 1.400 . S
C645 C639 1.491 . S
C645 C644 1.400 . S
C645 C646 1.398 . S
C646 H634 0.950 . S
C646 C645 1.398 . S
C646 C647 1.391 . S
C647 H635 0.950 . S
C647 C643 1.393 . S
C647 C646 1.391 . S
H648 C656 0.950 . S
H649 C661 0.950 . S
H650 C658 0.950 . S
H651 C660 0.950 . S
H652 C662 0.950 . S
H653 C664 0.950 . S
H654 C666 0.950 . S
H655 C667 0.950 . S
C656 H648 0.950 . S
C656 C657 1.386 . S
C656 C658 1.391 . S
C657 C656 1.386 . S
C657 C661 1.393 . S
C658 H650 0.950 . S
C658 C656 1.391 . S
C658 C659 1.400 . S
C659 C658 1.400 . S
C659 C660 1.398 . S
C659 C665 1.491 . S
C660 H651 0.950 . S
C660 C659 1.398 . S
C660 C661 1.391 . S
C661 H649 0.950 . S
C661 C657 1.393 . S
C661 C660 1.391 . S
C662 H652 0.950 . S
C662 C663 1.386 . S
C662 C664 1.391 . S
C663 C662 1.386 . S
C663 C667 1.393 . S
C664 H653 0.950 . S
C664 C662 1.391 . S
C664 C665 1.400 . S
C665 C659 1.491 . S
C665 C664 1.400 . S
C665 C666 1.398 . S
C666 H654 0.950 . S
C666 C665 1.398 . S
C666 C667 1.391 . S
C667 H655 0.950 . S
C667 C663 1.393 . S
C667 C666 1.391 . S
H668 C676 0.950 . S
H669 C681 0.950 . S
H670 C678 0.950 . S
H671 C680 0.950 . S
H672 C682 0.950 . S
H673 C684 0.950 . S
H674 C686 0.950 . S
H675 C687 0.950 . S
C676 H668 0.950 . S
C676 C677 1.386 . S
C676 C678 1.391 . S
C677 C676 1.386 . S
C677 C681 1.393 . S
C678 H670 0.950 . S
C678 C676 1.391 . S
C678 C679 1.400 . S
C679 C678 1.400 . S
C679 C680 1.398 . S
C679 C685 1.491 . S
C680 H671 0.950 . S
C680 C679 1.398 . S
C680 C681 1.391 . S
C681 H669 0.950 . S
C681 C677 1.393 . S
C681 C680 1.391 . S
C682 H672 0.950 . S
C682 C683 1.386 . S
C682 C684 1.391 . S
C683 C682 1.386 . S
C683 C687 1.393 . S
C684 H673 0.950 . S
C684 C682 1.391 . S
C684 C685 1.400 . S
C685 C679 1.491 . S
C685 C684 1.400 . S
C685 C686 1.398 . S
C686 H674 0.950 . S
C686 C685 1.398 . S
C686 C687 1.391 . S
C687 H675 0.950 . S
C687 C683 1.393 . S
C687 C686 1.391 . S
H688 C696 0.950 . S
H689 C701 0.950 . S
H690 C698 0.950 . S
H691 C700 0.950 . S
H692 C702 0.950 . S
H693 C704 0.950 . S
H694 C706 0.950 . S
H695 C707 0.950 . S
C696 H688 0.950 . S
C696 C697 1.386 . S
C696 C698 1.391 . S
C697 C696 1.386 . S
C697 C701 1.393 . S
C698 H690 0.950 . S
C698 C696 1.391 . S
C698 C699 1.400 . S
C699 C698 1.400 . S
C699 C700 1.398 . S
C699 C705 1.491 . S
C700 H691 0.950 . S
C700 C699 1.398 . S
C700 C701 1.391 . S
C701 H689 0.950 . S
C701 C697 1.393 . S
C701 C700 1.391 . S
C702 H692 0.950 . S
C702 C703 1.386 . S
C702 C704 1.391 . S
C703 C702 1.386 . S
C703 C707 1.393 . S
C704 H693 0.950 . S
C704 C702 1.391 . S
C704 C705 1.400 . S
C705 C699 1.491 . S
C705 C704 1.400 . S
C705 C706 1.398 . S
C706 H694 0.950 . S
C706 C705 1.398 . S
C706 C707 1.391 . S
C707 H695 0.950 . S
C707 C703 1.393 . S
C707 C706 1.391 . S
H708 C716 0.950 . S
H709 C721 0.950 . S
H710 C718 0.950 . S
H711 C720 0.950 . S
H712 C722 0.950 . S
H713 C724 0.950 . S
H714 C726 0.950 . S
H715 C727 0.950 . S
C716 H708 0.950 . S
C716 C717 1.386 . S
C716 C718 1.391 . S
C717 C716 1.386 . S
C717 C721 1.393 . S
C718 H710 0.950 . S
C718 C716 1.391 . S
C718 C719 1.400 . S
C719 C718 1.400 . S
C719 C720 1.398 . S
C719 C725 1.491 . S
C720 H711 0.950 . S
C720 C719 1.398 . S
C720 C721 1.391 . S
C721 H709 0.950 . S
C721 C717 1.393 . S
C721 C720 1.391 . S
C722 H712 0.950 . S
C722 C723 1.386 . S
C722 C724 1.391 . S
C723 C722 1.386 . S
C723 C727 1.393 . S
C724 H713 0.950 . S
C724 C722 1.391 . S
C724 C725 1.400 . S
C725 C719 1.491 . S
C725 C724 1.400 . S
C725 C726 1.398 . S
C726 H714 0.950 . S
C726 C725 1.398 . S
C726 C727 1.391 . S
C727 H715 0.950 . S
C727 C723 1.393 . S
C727 C726 1.391 . S
H728 C736 0.950 . S
H729 C741 0.950 . S
H730 C738 0.950 . S
H731 C740 0.950 . S
H732 C742 0.950 . S
H733 C744 0.950 . S
H734 C746 0.950 . S
H735 C747 0.950 . S
C736 H728 0.950 . S
C736 C737 1.386 . S
C736 C738 1.391 . S
C737 C736 1.386 . S
C737 C741 1.393 . S
C738 H730 0.950 . S
C738 C736 1.391 . S
C738 C739 1.400 . S
C739 C738 1.400 . S
C739 C740 1.398 . S
C739 C745 1.491 . S
C740 H731 0.950 . S
C740 C739 1.398 . S
C740 C741 1.391 . S
C741 H729 0.950 . S
C741 C737 1.393 . S
C741 C740 1.391 . S
C742 H732 0.950 . S
C742 C743 1.386 . S
C742 C744 1.391 . S
C743 C742 1.386 . S
C743 C747 1.393 . S
C744 H733 0.950 . S
C744 C742 1.391 . S
C744 C745 1.400 . S
C745 C739 1.491 . S
C745 C744 1.400 . S
C745 C746 1.398 . S
C746 H734 0.950 . S
C746 C745 1.398 . S
C746 C747 1.391 . S
C747 H735 0.950 . S
C747 C743 1.393 . S
C747 C746 1.391 . S
H748 C756 0.950 . S
H749 C761 0.950 . S
H750 C758 0.950 . S
H751 C760 0.950 . S
H752 C762 0.950 . S
H753 C764 0.950 . S
H754 C766 0.950 . S
H755 C767 0.950 . S
C756 H748 0.950 . S
C756 C757 1.386 . S
C756 C758 1.391 . S
C757 C756 1.386 . S
C757 C761 1.393 . S
C758 H750 0.950 . S
C758 C756 1.391 . S
C758 C759 1.400 . S
C759 C758 1.400 . S
C759 C760 1.398 . S
C759 C765 1.491 . S
C760 H751 0.950 . S
C760 C759 1.398 . S
C760 C761 1.391 . S
C761 H749 0.950 . S
C761 C757 1.393 . S
C761 C760 1.391 . S
C762 H752 0.950 . S
C762 C763 1.386 . S
C762 C764 1.391 . S
C763 C762 1.386 . S
C763 C767 1.393 . S
C764 H753 0.950 . S
C764 C762 1.391 . S
C764 C765 1.400 . S
C765 C759 1.491 . S
C765 C764 1.400 . S
C765 C766 1.398 . S
C766 H754 0.950 . S
C766 C765 1.398 . S
C766 C767 1.391 . S
C767 H755 0.950 . S
C767 C763 1.393 . S
C767 C766 1.391 . S
H768 C776 0.950 . S
H769 C781 0.950 . S
H770 C778 0.950 . S
H771 C780 0.950 . S
H772 C782 0.950 . S
H773 C784 0.950 . S
H774 C786 0.950 . S
H775 C787 0.950 . S
C776 H768 0.950 . S
C776 C777 1.385 1_554 S
C776 C778 1.391 . S
C777 C776 1.385 1_556 S
C777 C781 1.393 . S
C778 H770 0.950 . S
C778 C776 1.391 . S
C778 C779 1.397 1_554 S
C779 C778 1.397 1_556 S
C779 C780 1.402 . S
C779 C785 1.490 1_546 S
C780 H771 0.950 . S
C780 C779 1.402 . S
C780 C781 1.391 . S
C781 H769 0.950 . S
C781 C777 1.393 . S
C781 C780 1.391 . S
C782 H772 0.950 . S
C782 C783 1.385 1_556 S
C782 C784 1.391 . S
C783 C782 1.385 1_554 S
C783 C787 1.393 . S
C784 H773 0.950 . S
C784 C782 1.391 . S
C784 C785 1.397 1_556 S
C785 C779 1.490 1_564 S
C785 C784 1.397 1_554 S
C785 C786 1.402 . S
C786 H774 0.950 . S
C786 C785 1.402 . S
C786 C787 1.391 . S
C787 H775 0.950 . S
C787 C783 1.393 . S
C787 C786 1.391 . S
H788 C796 0.950 . S
H789 C801 0.950 . S
H790 C798 0.950 . S
H791 C800 0.950 . S
H792 C802 0.950 . S
H793 C804 0.950 . S
H794 C806 0.950 . S
H795 C807 0.950 . S
C796 H788 0.950 . S
C796 C797 1.367 1_554 S
C796 C798 1.391 . S
C797 C796 1.367 1_556 S
C797 C801 1.412 . S
C798 H790 0.950 . S
C798 C796 1.391 . S
C798 C799 1.403 1_554 S
C799 C798 1.403 1_556 S
C799 C800 1.396 . S
C799 C805 1.491 1_556 S
C800 H791 0.950 . S
C800 C799 1.396 . S
C800 C801 1.391 . S
C801 H789 0.950 . S
C801 C797 1.412 . S
C801 C800 1.391 . S
C802 H792 0.950 . S
C802 C803 1.368 1_556 S
C802 C804 1.391 . S
C803 C802 1.368 1_554 S
C803 C807 1.410 . S
C804 H793 0.950 . S
C804 C802 1.391 . S
C804 C805 1.404 1_556 S
C805 C799 1.491 1_554 S
C805 C804 1.404 1_554 S
C805 C806 1.394 . S
C806 H794 0.950 . S
C806 C805 1.394 . S
C806 C807 1.391 . S
C807 H795 0.950 . S
C807 C803 1.410 . S
C807 C806 1.391 . S
H808 C816 0.950 . S
H809 C821 0.950 . S
H810 C818 0.950 . S
H811 C820 0.950 . S
H812 C822 0.950 . S
H813 C824 0.950 . S
H814 C826 0.950 . S
H815 C827 0.950 . S
C816 H808 0.950 . S
C816 C817 1.386 . S
C816 C818 1.391 . S
C817 C816 1.386 . S
C817 C821 1.393 . S
C818 H810 0.950 . S
C818 C816 1.391 . S
C818 C819 1.400 . S
C819 C818 1.400 . S
C819 C820 1.398 . S
C819 C825 1.491 . S
C820 H811 0.950 . S
C820 C819 1.398 . S
C820 C821 1.391 . S
C821 H809 0.950 . S
C821 C817 1.393 . S
C821 C820 1.391 . S
C822 H812 0.950 . S
C822 C823 1.386 . S
C822 C824 1.391 . S
C823 C822 1.386 . S
C823 C827 1.393 . S
C824 H813 0.950 . S
C824 C822 1.391 . S
C824 C825 1.400 . S
C825 C819 1.491 . S
C825 C824 1.400 . S
C825 C826 1.398 . S
C826 H814 0.950 . S
C826 C825 1.398 . S
C826 C827 1.391 . S
C827 H815 0.950 . S
C827 C823 1.393 . S
C827 C826 1.391 . S
H828 C836 0.950 . S
H829 C841 0.950 . S
H830 C838 0.950 . S
H831 C840 0.950 . S
H832 C842 0.950 . S
H833 C844 0.950 . S
H834 C846 0.950 . S
H835 C847 0.950 . S
C836 H828 0.950 . S
C836 C837 1.386 . S
C836 C838 1.391 . S
C837 C836 1.386 . S
C837 C841 1.393 . S
C838 H830 0.950 . S
C838 C836 1.391 . S
C838 C839 1.400 . S
C839 C838 1.400 . S
C839 C840 1.398 . S
C839 C845 1.491 1_565 S
C840 H831 0.950 . S
C840 C839 1.398 . S
C840 C841 1.391 . S
C841 H829 0.950 . S
C841 C837 1.393 . S
C841 C840 1.391 . S
C842 H832 0.950 . S
C842 C843 1.386 . S
C842 C844 1.391 . S
C843 C842 1.386 . S
C843 C847 1.393 . S
C844 H833 0.950 . S
C844 C842 1.391 . S
C844 C845 1.400 . S
C845 C839 1.491 1_545 S
C845 C844 1.400 . S
C845 C846 1.398 . S
C846 H834 0.950 . S
C846 C845 1.398 . S
C846 C847 1.391 . S
C847 H835 0.950 . S
C847 C843 1.393 . S
C847 C846 1.391 . S
H848 C856 0.950 . S
H849 C861 0.950 . S
H850 C858 0.950 . S
H851 C860 0.953 . S
H852 C862 0.950 . S
H853 C864 0.950 . S
H854 C866 0.953 . S
H855 C867 0.950 . S
C856 H848 0.950 . S
C856 C857 1.386 . S
C856 C858 1.391 . S
C857 C856 1.386 . S
C857 C861 1.393 1_556 S
C858 H850 0.950 . S
C858 C856 1.391 . S
C858 C859 1.401 . S
C859 C858 1.401 . S
C859 C860 1.396 1_556 S
C859 C865 1.490 1_556 S
C860 H851 0.953 . S
C860 C859 1.396 1_554 S
C860 C861 1.393 . S
C861 H849 0.950 . S
C861 C857 1.393 1_554 S
C861 C860 1.393 . S
C862 H852 0.950 . S
C862 C863 1.386 . S
C862 C864 1.391 . S
C863 C862 1.386 . S
C863 C867 1.393 1_554 S
C864 H853 0.950 . S
C864 C862 1.391 . S
C864 C865 1.401 . S
C865 C859 1.490 1_554 S
C865 C864 1.401 . S
C865 C866 1.396 1_554 S
C866 H854 0.953 . S
C866 C865 1.396 1_556 S
C866 C867 1.392 . S
C867 H855 0.950 . S
C867 C863 1.393 1_556 S
C867 C866 1.392 . S
H868 C876 0.950 . S
H869 C881 0.950 . S
H870 C878 0.950 . S
H871 C880 0.950 . S
H872 C882 0.950 . S
H873 C884 0.950 . S
H874 C886 0.950 . S
H875 C887 0.950 . S
C876 H868 0.950 . S
C876 C877 1.386 . S
C876 C878 1.391 . S
C877 C876 1.386 . S
C877 C881 1.393 . S
C878 H870 0.950 . S
C878 C876 1.391 . S
C878 C879 1.400 . S
C879 C878 1.400 . S
C879 C880 1.398 . S
C879 C885 1.491 . S
C880 H871 0.950 . S
C880 C879 1.398 . S
C880 C881 1.391 . S
C881 H869 0.950 . S
C881 C877 1.393 . S
C881 C880 1.391 . S
C882 H872 0.950 . S
C882 C883 1.386 . S
C882 C884 1.391 . S
C883 C882 1.386 . S
C883 C887 1.393 . S
C884 H873 0.950 . S
C884 C882 1.391 . S
C884 C885 1.400 . S
C885 C879 1.491 . S
C885 C884 1.400 . S
C885 C886 1.398 . S
C886 H874 0.950 . S
C886 C885 1.398 . S
C886 C887 1.391 . S
C887 H875 0.950 . S
C887 C883 1.393 . S
C887 C886 1.391 . S
H888 C896 0.950 . S
H889 C901 0.950 . S
H890 C898 0.950 . S
H891 C900 0.950 . S
H892 C902 0.950 . S
H893 C904 0.950 . S
H894 C906 0.950 . S
H895 C907 0.950 . S
C896 H888 0.950 . S
C896 C897 1.386 . S
C896 C898 1.391 . S
C897 C896 1.386 . S
C897 C901 1.393 . S
C898 H890 0.950 . S
C898 C896 1.391 . S
C898 C899 1.400 . S
C899 C898 1.400 . S
C899 C900 1.398 . S
C899 C905 1.491 1_565 S
C900 H891 0.950 . S
C900 C899 1.398 . S
C900 C901 1.391 . S
C901 H889 0.950 . S
C901 C897 1.393 . S
C901 C900 1.391 . S
C902 H892 0.950 . S
C902 C903 1.386 . S
C902 C904 1.391 . S
C903 C902 1.386 . S
C903 C907 1.393 . S
C904 H893 0.950 . S
C904 C902 1.391 . S
C904 C905 1.400 . S
C905 C899 1.491 1_545 S
C905 C904 1.400 . S
C905 C906 1.398 . S
C906 H894 0.950 . S
C906 C905 1.398 . S
C906 C907 1.391 . S
C907 H895 0.950 . S
C907 C903 1.393 . S
C907 C906 1.391 . S
H908 C916 0.950 . S
H909 C921 0.950 . S
H910 C918 0.950 . S
H911 C920 0.950 . S
H912 C922 0.950 . S
H913 C924 0.950 . S
H914 C926 0.950 . S
H915 C927 0.950 . S
C916 H908 0.950 . S
C916 C917 1.386 . S
C916 C918 1.391 . S
C917 C916 1.386 . S
C917 C921 1.393 . S
C918 H910 0.950 . S
C918 C916 1.391 . S
C918 C919 1.400 . S
C919 C918 1.400 . S
C919 C920 1.398 . S
C919 C925 1.491 . S
C920 H911 0.950 . S
C920 C919 1.398 . S
C920 C921 1.391 . S
C921 H909 0.950 . S
C921 C917 1.393 . S
C921 C920 1.391 . S
C922 H912 0.950 . S
C922 C923 1.386 . S
C922 C924 1.391 . S
C923 C922 1.386 . S
C923 C927 1.393 . S
C924 H913 0.950 . S
C924 C922 1.391 . S
C924 C925 1.400 . S
C925 C919 1.491 . S
C925 C924 1.400 . S
C925 C926 1.398 . S
C926 H914 0.950 . S
C926 C925 1.398 . S
C926 C927 1.391 . S
C927 H915 0.950 . S
C927 C923 1.393 . S
C927 C926 1.391 . S
H928 C936 0.950 . S
H929 C941 0.950 . S
H930 C938 0.950 . S
H931 C940 0.950 . S
H932 C942 0.950 . S
H933 C944 0.950 . S
H934 C946 0.950 . S
H935 C947 0.950 . S
C936 H928 0.950 . S
C936 C937 1.386 . S
C936 C938 1.391 . S
C937 C936 1.386 . S
C937 C941 1.393 . S
C938 H930 0.950 . S
C938 C936 1.391 . S
C938 C939 1.400 . S
C939 C938 1.400 . S
C939 C940 1.398 . S
C939 C945 1.491 . S
C940 H931 0.950 . S
C940 C939 1.398 . S
C940 C941 1.391 . S
C941 H929 0.950 . S
C941 C937 1.393 . S
C941 C940 1.391 . S
C942 H932 0.950 . S
C942 C943 1.386 . S
C942 C944 1.391 . S
C943 C942 1.386 . S
C943 C947 1.393 . S
C944 H933 0.950 . S
C944 C942 1.391 . S
C944 C945 1.400 . S
C945 C939 1.491 . S
C945 C944 1.400 . S
C945 C946 1.398 . S
C946 H934 0.950 . S
C946 C945 1.398 . S
C946 C947 1.391 . S
C947 H935 0.950 . S
C947 C943 1.393 . S
C947 C946 1.391 . S
H948 C956 0.950 . S
H949 C961 0.950 . S
H950 C958 0.950 . S
H951 C960 0.950 . S
H952 C962 0.950 . S
H953 C964 0.950 . S
H954 C966 0.950 . S
H955 C967 0.950 . S
C956 H948 0.950 . S
C956 C957 1.386 . S
C956 C958 1.391 . S
C957 C956 1.386 . S
C957 C961 1.393 . S
C958 H950 0.950 . S
C958 C956 1.391 . S
C958 C959 1.400 . S
C959 C958 1.400 . S
C959 C960 1.398 . S
C959 C965 1.491 . S
C960 H951 0.950 . S
C960 C959 1.398 . S
C960 C961 1.391 . S
C961 H949 0.950 . S
C961 C957 1.393 . S
C961 C960 1.391 . S
C962 H952 0.950 . S
C962 C963 1.386 . S
C962 C964 1.391 . S
C963 C962 1.386 . S
C963 C967 1.393 . S
C964 H953 0.950 . S
C964 C962 1.391 . S
C964 C965 1.400 . S
C965 C959 1.491 . S
C965 C964 1.400 . S
C965 C966 1.398 . S
C966 H954 0.950 . S
C966 C965 1.398 . S
C966 C967 1.391 . S
C967 H955 0.950 . S
C967 C963 1.393 . S
C967 C966 1.391 . S
H968 C976 0.950 . S
H969 C981 0.950 . S
H970 C978 0.950 . S
H971 C980 0.950 . S
H972 C982 0.950 . S
H973 C984 0.950 . S
H974 C986 0.950 . S
H975 C987 0.950 . S
C976 H968 0.950 . S
C976 C977 1.386 . S
C976 C978 1.391 . S
C977 C976 1.386 . S
C977 C981 1.393 . S
C978 H970 0.950 . S
C978 C976 1.391 . S
C978 C979 1.400 . S
C979 C978 1.400 . S
C979 C980 1.398 . S
C979 C985 1.491 . S
C980 H971 0.950 . S
C980 C979 1.398 . S
C980 C981 1.391 . S
C981 H969 0.950 . S
C981 C977 1.393 . S
C981 C980 1.391 . S
C982 H972 0.950 . S
C982 C983 1.386 . S
C982 C984 1.391 . S
C983 C982 1.386 . S
C983 C987 1.393 . S
C984 H973 0.950 . S
C984 C982 1.391 . S
C984 C985 1.400 . S
C985 C979 1.491 . S
C985 C984 1.400 . S
C985 C986 1.398 . S
C986 H974 0.950 . S
C986 C985 1.398 . S
C986 C987 1.391 . S
C987 H975 0.950 . S
C987 C983 1.393 . S
C987 C986 1.391 . S
H988 C996 0.950 . S
H989 C1001 0.950 . S
H990 C998 0.950 . S
H991 C1000 0.950 . S
H992 C1002 0.950 . S
H993 C1004 0.950 . S
H994 C1006 0.950 . S
H995 C1007 0.950 . S
C996 H988 0.950 . S
C996 C997 1.386 . S
C996 C998 1.391 . S
C997 C996 1.386 . S
C997 C1001 1.393 . S
C998 H990 0.950 . S
C998 C996 1.391 . S
C998 C999 1.400 . S
C999 C998 1.400 . S
C999 C1000 1.398 . S
C999 C1005 1.491 . S
C1000 H991 0.950 . S
C1000 C999 1.398 . S
C1000 C1001 1.391 . S
C1001 H989 0.950 . S
C1001 C997 1.393 . S
C1001 C1000 1.391 . S
C1002 H992 0.950 . S
C1002 C1003 1.386 . S
C1002 C1004 1.391 . S
C1003 C1002 1.386 . S
C1003 C1007 1.393 . S
C1004 H993 0.950 . S
C1004 C1002 1.391 . S
C1004 C1005 1.400 . S
C1005 C999 1.491 . S
C1005 C1004 1.400 . S
C1005 C1006 1.398 . S
C1006 H994 0.950 . S
C1006 C1005 1.398 . S
C1006 C1007 1.391 . S
C1007 H995 0.950 . S
C1007 C1003 1.393 . S
C1007 C1006 1.391 . S
H1008 C1016 0.950 . S
H1009 C1021 0.950 . S
H1010 C1018 0.950 . S
H1011 C1020 0.950 . S
H1012 C1022 0.950 . S
H1013 C1024 0.950 . S
H1014 C1026 0.950 . S
H1015 C1027 0.950 . S
C1016 H1008 0.950 . S
C1016 C1017 1.386 . S
C1016 C1018 1.391 . S
C1017 C1016 1.386 . S
C1017 C1021 1.393 1_655 S
C1018 H1010 0.950 . S
C1018 C1016 1.391 . S
C1018 C1019 1.400 . S
C1019 C1018 1.400 . S
C1019 C1020 1.398 1_655 S
C1019 C1025 1.491 1_665 S
C1020 H1011 0.950 . S
C1020 C1019 1.398 1_455 S
C1020 C1021 1.391 . S
C1021 H1009 0.950 . S
C1021 C1017 1.393 1_455 S
C1021 C1020 1.391 . S
C1022 H1012 0.950 . S
C1022 C1023 1.386 . S
C1022 C1024 1.391 . S
C1023 C1022 1.386 . S
C1023 C1027 1.393 1_455 S
C1024 H1013 0.950 . S
C1024 C1022 1.391 . S
C1024 C1025 1.400 . S
C1025 C1019 1.491 1_445 S
C1025 C1024 1.400 . S
C1025 C1026 1.398 1_455 S
C1026 H1014 0.950 . S
C1026 C1025 1.398 1_655 S
C1026 C1027 1.391 . S
C1027 H1015 0.950 . S
C1027 C1023 1.393 1_655 S
C1027 C1026 1.391 . S
H1028 C1036 0.950 . S
H1029 C1041 0.950 1_655 S
H1030 C1038 0.950 . S
H1031 C1040 0.950 . S
H1032 C1042 0.950 . S
H1033 C1044 0.950 . S
H1034 C1046 0.950 . S
H1035 C1047 0.949 1_455 S
C1036 H1028 0.950 . S
C1036 C1037 1.386 . S
C1036 C1038 1.391 . S
C1037 C1036 1.386 . S
C1037 C1041 1.393 . S
C1038 H1030 0.950 . S
C1038 C1036 1.391 . S
C1038 C1039 1.400 . S
C1039 C1038 1.400 . S
C1039 C1040 1.398 1_455 S
C1039 C1045 1.491 1_455 S
C1040 H1031 0.950 . S
C1040 C1039 1.398 1_655 S
C1040 C1041 1.391 1_655 S
C1041 H1029 0.950 1_455 S
C1041 C1037 1.393 . S
C1041 C1040 1.391 1_455 S
C1042 H1032 0.950 . S
C1042 C1043 1.386 . S
C1042 C1044 1.391 . S
C1043 C1042 1.386 . S
C1043 C1047 1.394 . S
C1044 H1033 0.950 . S
C1044 C1042 1.391 . S
C1044 C1045 1.400 . S
C1045 C1039 1.491 1_655 S
C1045 C1044 1.400 . S
C1045 C1046 1.398 1_655 S
C1046 H1034 0.950 . S
C1046 C1045 1.398 1_455 S
C1046 C1047 1.390 1_455 S
C1047 H1035 0.949 1_655 S
C1047 C1043 1.394 . S
C1047 C1046 1.390 1_655 S
H1048 C1056 0.950 . S
H1049 C1061 0.950 . S
H1050 C1058 0.950 . S
H1051 C1060 0.950 . S
H1052 C1062 0.950 . S
H1053 C1064 0.950 . S
H1054 C1066 0.950 . S
H1055 C1067 0.950 . S
C1056 H1048 0.950 . S
C1056 C1057 1.386 . S
C1056 C1058 1.391 . S
C1057 C1056 1.386 . S
C1057 C1061 1.393 1_655 S
C1058 H1050 0.950 . S
C1058 C1056 1.391 . S
C1058 C1059 1.400 . S
C1059 C1058 1.400 . S
C1059 C1060 1.398 1_655 S
C1059 C1065 1.491 1_655 S
C1060 H1051 0.950 . S
C1060 C1059 1.398 1_455 S
C1060 C1061 1.391 . S
C1061 H1049 0.950 . S
C1061 C1057 1.393 1_455 S
C1061 C1060 1.391 . S
C1062 H1052 0.950 . S
C1062 C1063 1.386 . S
C1062 C1064 1.391 . S
C1063 C1062 1.386 . S
C1063 C1067 1.393 1_455 S
C1064 H1053 0.950 . S
C1064 C1062 1.391 . S
C1064 C1065 1.400 . S
C1065 C1059 1.491 1_455 S
C1065 C1064 1.400 . S
C1065 C1066 1.398 1_455 S
C1066 H1054 0.950 . S
C1066 C1065 1.398 1_655 S
C1066 C1067 1.391 . S
C1067 H1055 0.950 . S
C1067 C1063 1.393 1_655 S
C1067 C1066 1.391 . S
H1068 C1076 0.950 . S
H1069 C1081 0.950 . S
H1070 C1078 0.950 . S
H1071 C1080 0.950 . S
H1072 C1082 0.950 . S
H1073 C1084 0.950 . S
H1074 C1086 0.950 . S
H1075 C1087 0.950 . S
C1076 H1068 0.950 . S
C1076 C1077 1.384 . S
C1076 C1078 1.391 . S
C1077 C1076 1.384 . S
C1077 C1081 1.395 1_654 S
C1078 H1070 0.950 . S
C1078 C1076 1.391 . S
C1078 C1079 1.403 . S
C1079 C1078 1.403 . S
C1079 C1080 1.396 1_654 S
C1079 C1085 1.490 1_654 S
C1080 H1071 0.950 . S
C1080 C1079 1.396 1_456 S
C1080 C1081 1.391 . S
C1081 H1069 0.950 . S
C1081 C1077 1.395 1_456 S
C1081 C1080 1.391 . S
C1082 H1072 0.950 . S
C1082 C1083 1.384 . S
C1082 C1084 1.391 . S
C1083 C1082 1.384 . S
C1083 C1087 1.395 1_456 S
C1084 H1073 0.950 . S
C1084 C1082 1.391 . S
C1084 C1085 1.403 . S
C1085 C1079 1.490 1_456 S
C1085 C1084 1.403 . S
C1085 C1086 1.396 1_456 S
C1086 H1074 0.950 . S
C1086 C1085 1.396 1_654 S
C1086 C1087 1.391 . S
C1087 H1075 0.950 . S
C1087 C1083 1.395 1_654 S
C1087 C1086 1.391 . S
H1088 C1096 0.950 . S
H1089 C1101 0.950 . S
H1090 C1098 0.950 . S
H1091 C1100 0.950 . S
H1092 C1102 0.950 . S
H1093 C1104 0.950 . S
H1094 C1106 0.950 . S
H1095 C1107 0.950 . S
C1096 H1088 0.950 . S
C1096 C1097 1.386 . S
C1096 C1098 1.391 . S
C1097 C1096 1.386 . S
C1097 C1101 1.393 . S
C1098 H1090 0.950 . S
C1098 C1096 1.391 . S
C1098 C1099 1.400 . S
C1099 C1098 1.400 . S
C1099 C1100 1.398 . S
C1099 C1105 1.491 . S
C1100 H1091 0.950 . S
C1100 C1099 1.398 . S
C1100 C1101 1.391 . S
C1101 H1089 0.950 . S
C1101 C1097 1.393 . S
C1101 C1100 1.391 . S
C1102 H1092 0.950 . S
C1102 C1103 1.386 . S
C1102 C1104 1.391 . S
C1103 C1102 1.386 . S
C1103 C1107 1.393 . S
C1104 H1093 0.950 . S
C1104 C1102 1.391 . S
C1104 C1105 1.400 . S
C1105 C1099 1.491 . S
C1105 C1104 1.400 . S
C1105 C1106 1.398 . S
C1106 H1094 0.950 . S
C1106 C1105 1.398 . S
C1106 C1107 1.391 . S
C1107 H1095 0.950 . S
C1107 C1103 1.393 . S
C1107 C1106 1.391 . S
H1108 C1116 0.950 . S
H1109 C1121 0.950 . S
H1110 C1118 0.950 . S
H1111 C1120 0.950 . S
H1112 C1122 0.950 . S
H1113 C1124 0.950 . S
H1114 C1126 0.950 . S
H1115 C1127 0.950 . S
C1116 H1108 0.950 . S
C1116 C1117 1.386 . S
C1116 C1118 1.391 . S
C1117 C1116 1.386 . S
C1117 C1121 1.393 . S
C1118 H1110 0.950 . S
C1118 C1116 1.391 . S
C1118 C1119 1.400 . S
C1119 C1118 1.400 . S
C1119 C1120 1.398 . S
C1119 C1125 1.491 . S
C1120 H1111 0.950 . S
C1120 C1119 1.398 . S
C1120 C1121 1.391 . S
C1121 H1109 0.950 . S
C1121 C1117 1.393 . S
C1121 C1120 1.391 . S
C1122 H1112 0.950 . S
C1122 C1123 1.386 . S
C1122 C1124 1.391 . S
C1123 C1122 1.386 . S
C1123 C1127 1.393 . S
C1124 H1113 0.950 . S
C1124 C1122 1.391 . S
C1124 C1125 1.400 . S
C1125 C1119 1.491 . S
C1125 C1124 1.400 . S
C1125 C1126 1.398 . S
C1126 H1114 0.950 . S
C1126 C1125 1.398 . S
C1126 C1127 1.391 . S
C1127 H1115 0.950 . S
C1127 C1123 1.393 . S
C1127 C1126 1.391 . S
H1128 C1136 0.950 . S
H1129 C1141 0.950 . S
H1130 C1138 0.950 . S
H1131 C1140 0.950 . S
H1132 C1142 0.950 . S
H1133 C1144 0.950 . S
H1134 C1146 0.950 . S
H1135 C1147 0.950 . S
C1136 H1128 0.950 . S
C1136 C1137 1.386 . S
C1136 C1138 1.391 . S
C1137 C1136 1.386 . S
C1137 C1141 1.393 . S
C1138 H1130 0.950 . S
C1138 C1136 1.391 . S
C1138 C1139 1.400 . S
C1139 C1138 1.400 . S
C1139 C1140 1.398 . S
C1139 C1145 1.491 . S
C1140 H1131 0.950 . S
C1140 C1139 1.398 . S
C1140 C1141 1.391 . S
C1141 H1129 0.950 . S
C1141 C1137 1.393 . S
C1141 C1140 1.391 . S
C1142 H1132 0.950 . S
C1142 C1143 1.386 . S
C1142 C1144 1.391 . S
C1143 C1142 1.386 . S
C1143 C1147 1.393 . S
C1144 H1133 0.950 . S
C1144 C1142 1.391 . S
C1144 C1145 1.400 . S
C1145 C1139 1.491 . S
C1145 C1144 1.400 . S
C1145 C1146 1.398 . S
C1146 H1134 0.950 . S
C1146 C1145 1.398 . S
C1146 C1147 1.391 . S
C1147 H1135 0.950 . S
C1147 C1143 1.393 . S
C1147 C1146 1.391 . S
H1148 C1156 0.950 . S
H1149 C1161 0.950 . S
H1150 C1158 0.950 . S
H1151 C1160 0.950 . S
H1152 C1162 0.950 . S
H1153 C1164 0.950 . S
H1154 C1166 0.950 . S
H1155 C1167 0.950 1_455 S
C1156 H1148 0.950 . S
C1156 C1157 1.386 . S
C1156 C1158 1.391 . S
C1157 C1156 1.386 . S
C1157 C1161 1.393 . S
C1158 H1150 0.950 . S
C1158 C1156 1.391 . S
C1158 C1159 1.400 . S
C1159 C1158 1.400 . S
C1159 C1160 1.398 . S
C1159 C1165 1.491 . S
C1160 H1151 0.950 . S
C1160 C1159 1.398 . S
C1160 C1161 1.391 . S
C1161 H1149 0.950 . S
C1161 C1157 1.393 . S
C1161 C1160 1.391 . S
C1162 H1152 0.950 . S
C1162 C1163 1.386 . S
C1162 C1164 1.391 . S
C1163 C1162 1.386 . S
C1163 C1167 1.393 . S
C1164 H1153 0.950 . S
C1164 C1162 1.391 . S
C1164 C1165 1.400 . S
C1165 C1159 1.491 . S
C1165 C1164 1.400 . S
C1165 C1166 1.398 . S
C1166 H1154 0.950 . S
C1166 C1165 1.398 . S
C1166 C1167 1.391 . S
C1167 H1155 0.950 1_655 S
C1167 C1163 1.393 . S
C1167 C1166 1.391 . S
H1168 C1176 0.950 . S
H1169 C1181 0.950 . S
H1170 C1178 0.950 . S
H1171 C1180 0.950 . S
H1172 C1182 0.950 . S
H1173 C1184 0.950 . S
H1174 C1186 0.950 . S
H1175 C1187 0.950 . S
C1176 H1168 0.950 . S
C1176 C1177 1.386 . S
C1176 C1178 1.391 . S
C1177 C1176 1.386 . S
C1177 C1181 1.393 . S
C1178 H1170 0.950 . S
C1178 C1176 1.391 . S
C1178 C1179 1.400 . S
C1179 C1178 1.400 . S
C1179 C1180 1.398 . S
C1179 C1185 1.491 . S
C1180 H1171 0.950 . S
C1180 C1179 1.398 . S
C1180 C1181 1.391 . S
C1181 H1169 0.950 . S
C1181 C1177 1.393 . S
C1181 C1180 1.391 . S
C1182 H1172 0.950 . S
C1182 C1183 1.386 . S
C1182 C1184 1.391 . S
C1183 C1182 1.386 . S
C1183 C1187 1.393 . S
C1184 H1173 0.950 . S
C1184 C1182 1.391 . S
C1184 C1185 1.400 . S
C1185 C1179 1.491 . S
C1185 C1184 1.400 . S
C1185 C1186 1.398 . S
C1186 H1174 0.950 . S
C1186 C1185 1.398 . S
C1186 C1187 1.391 . S
C1187 H1175 0.950 . S
C1187 C1183 1.393 . S
C1187 C1186 1.391 . S
H1188 C1196 0.950 . S
H1189 C1201 0.950 . S
H1190 C1198 0.950 . S
H1191 C1200 0.950 . S
H1192 C1202 0.950 . S
H1193 C1204 0.950 . S
H1194 C1206 0.950 . S
H1195 C1207 0.950 . S
C1196 H1188 0.950 . S
C1196 C1197 1.386 . S
C1196 C1198 1.391 . S
C1197 C1196 1.386 . S
C1197 C1201 1.393 . S
C1198 H1190 0.950 . S
C1198 C1196 1.391 . S
C1198 C1199 1.400 . S
C1199 C1198 1.400 . S
C1199 C1200 1.398 . S
C1199 C1205 1.491 . S
C1200 H1191 0.950 . S
C1200 C1199 1.398 . S
C1200 C1201 1.391 . S
C1201 H1189 0.950 . S
C1201 C1197 1.393 . S
C1201 C1200 1.391 . S
C1202 H1192 0.950 . S
C1202 C1203 1.386 . S
C1202 C1204 1.391 . S
C1203 C1202 1.386 . S
C1203 C1207 1.393 . S
C1204 H1193 0.950 . S
C1204 C1202 1.391 . S
C1204 C1205 1.400 . S
C1205 C1199 1.491 . S
C1205 C1204 1.400 . S
C1205 C1206 1.398 . S
C1206 H1194 0.950 . S
C1206 C1205 1.398 . S
C1206 C1207 1.391 . S
C1207 H1195 0.950 . S
C1207 C1203 1.393 . S
C1207 C1206 1.391 . S
H1208 C1216 0.950 . S
H1209 C1221 0.950 . S
H1210 C1218 0.950 . S
H1211 C1220 0.950 . S
H1212 C1222 0.950 . S
H1213 C1224 0.950 . S
H1214 C1226 0.950 . S
H1215 C1227 0.950 . S
C1216 H1208 0.950 . S
C1216 C1217 1.386 . S
C1216 C1218 1.391 . S
C1217 C1216 1.386 . S
C1217 C1221 1.393 . S
C1218 H1210 0.950 . S
C1218 C1216 1.391 . S
C1218 C1219 1.400 . S
C1219 C1218 1.400 . S
C1219 C1220 1.398 . S
C1219 C1225 1.491 . S
C1220 H1211 0.950 . S
C1220 C1219 1.398 . S
C1220 C1221 1.391 . S
C1221 H1209 0.950 . S
C1221 C1217 1.393 . S
C1221 C1220 1.391 . S
C1222 H1212 0.950 . S
C1222 C1223 1.386 . S
C1222 C1224 1.391 . S
C1223 C1222 1.386 . S
C1223 C1227 1.393 . S
C1224 H1213 0.950 . S
C1224 C1222 1.391 . S
C1224 C1225 1.400 . S
C1225 C1219 1.491 . S
C1225 C1224 1.400 . S
C1225 C1226 1.398 . S
C1226 H1214 0.950 . S
C1226 C1225 1.398 . S
C1226 C1227 1.391 . S
C1227 H1215 0.950 . S
C1227 C1223 1.393 . S
C1227 C1226 1.391 . S
H1228 C1236 0.950 . S
H1229 C1241 0.950 . S
H1230 C1238 0.950 . S
H1231 C1240 0.950 . S
H1232 C1242 0.950 . S
H1233 C1244 0.950 . S
H1234 C1246 0.950 . S
H1235 C1247 0.950 . S
C1236 H1228 0.950 . S
C1236 C1237 1.386 . S
C1236 C1238 1.391 . S
C1237 C1236 1.386 . S
C1237 C1241 1.393 . S
C1238 H1230 0.950 . S
C1238 C1236 1.391 . S
C1238 C1239 1.400 . S
C1239 C1238 1.400 . S
C1239 C1240 1.398 . S
C1239 C1245 1.491 . S
C1240 H1231 0.950 . S
C1240 C1239 1.398 . S
C1240 C1241 1.391 . S
C1241 H1229 0.950 . S
C1241 C1237 1.393 . S
C1241 C1240 1.391 . S
C1242 H1232 0.950 . S
C1242 C1243 1.386 . S
C1242 C1244 1.391 . S
C1243 C1242 1.386 . S
C1243 C1247 1.393 . S
C1244 H1233 0.950 . S
C1244 C1242 1.391 . S
C1244 C1245 1.400 . S
C1245 C1239 1.491 . S
C1245 C1244 1.400 . S
C1245 C1246 1.398 . S
C1246 H1234 0.950 . S
C1246 C1245 1.398 . S
C1246 C1247 1.391 . S
C1247 H1235 0.950 . S
C1247 C1243 1.393 . S
C1247 C1246 1.391 . S
H1248 C1256 0.950 . S
H1249 C1261 0.950 . S
H1250 C1258 0.950 . S
H1251 C1260 0.950 . S
H1252 C1262 0.950 . S
H1253 C1264 0.950 . S
H1254 C1266 0.950 . S
H1255 C1267 0.950 . S
C1256 H1248 0.950 . S
C1256 C1257 1.386 . S
C1256 C1258 1.391 . S
C1257 C1256 1.386 . S
C1257 C1261 1.393 . S
C1258 H1250 0.950 . S
C1258 C1256 1.391 . S
C1258 C1259 1.400 . S
C1259 C1258 1.400 . S
C1259 C1260 1.398 . S
C1259 C1265 1.491 . S
C1260 H1251 0.950 . S
C1260 C1259 1.398 . S
C1260 C1261 1.391 . S
C1261 H1249 0.950 . S
C1261 C1257 1.393 . S
C1261 C1260 1.391 . S
C1262 H1252 0.950 . S
C1262 C1263 1.386 . S
C1262 C1264 1.391 . S
C1263 C1262 1.386 . S
C1263 C1267 1.393 . S
C1264 H1253 0.950 . S
C1264 C1262 1.391 . S
C1264 C1265 1.400 . S
C1265 C1259 1.491 . S
C1265 C1264 1.400 . S
C1265 C1266 1.398 . S
C1266 H1254 0.950 . S
C1266 C1265 1.398 . S
C1266 C1267 1.391 . S
C1267 H1255 0.950 . S
C1267 C1263 1.393 . S
C1267 C1266 1.391 . S
H1268 C1276 0.950 . S
H1269 C1281 0.950 . S
H1270 C1278 0.950 . S
H1271 C1280 0.950 . S
H1272 C1282 0.950 1_455 S
H1273 C1284 0.958 . S
H1274 C1286 0.950 . S
H1275 C1287 0.950 . S
C1276 H1268 0.950 . S
C1276 C1277 1.386 . S
C1276 C1278 1.391 . S
C1277 C1276 1.386 . S
C1277 C1281 1.393 . S
C1278 H1270 0.950 . S
C1278 C1276 1.391 . S
C1278 C1279 1.400 . S
C1279 C1278 1.400 . S
C1279 C1280 1.398 . S
C1279 C1285 1.491 . S
C1280 H1271 0.950 . S
C1280 C1279 1.398 . S
C1280 C1281 1.391 . S
C1281 H1269 0.950 . S
C1281 C1277 1.393 . S
C1281 C1280 1.391 . S
C1282 H1272 0.950 1_655 S
C1282 C1283 1.386 . S
C1282 C1284 1.391 . S
C1283 C1282 1.386 . S
C1283 C1287 1.393 . S
C1284 H1273 0.958 . S
C1284 C1282 1.391 . S
C1284 C1285 1.400 . S
C1285 C1279 1.491 . S
C1285 C1284 1.400 . S
C1285 C1286 1.398 . S
C1286 H1274 0.950 . S
C1286 C1285 1.398 . S
C1286 C1287 1.391 . S
C1287 H1275 0.950 . S
C1287 C1283 1.393 . S
C1287 C1286 1.391 . S
H1288 C1296 0.950 . S
H1289 C1301 0.950 . S
H1290 C1298 0.950 . S
H1291 C1300 0.950 . S
H1292 C1302 0.950 . S
H1293 C1304 0.950 . S
H1294 C1306 0.950 . S
H1295 C1307 0.950 . S
C1296 H1288 0.950 . S
C1296 C1297 1.386 . S
C1296 C1298 1.391 . S
C1297 C1296 1.386 . S
C1297 C1301 1.393 . S
C1298 H1290 0.950 . S
C1298 C1296 1.391 . S
C1298 C1299 1.400 . S
C1299 C1298 1.400 . S
C1299 C1300 1.398 . S
C1299 C1305 1.491 . S
C1300 H1291 0.950 . S
C1300 C1299 1.398 . S
C1300 C1301 1.391 . S
C1301 H1289 0.950 . S
C1301 C1297 1.393 . S
C1301 C1300 1.391 . S
C1302 H1292 0.950 . S
C1302 C1303 1.386 . S
C1302 C1304 1.391 . S
C1303 C1302 1.386 . S
C1303 C1307 1.393 . S
C1304 H1293 0.950 . S
C1304 C1302 1.391 . S
C1304 C1305 1.400 . S
C1305 C1299 1.491 . S
C1305 C1304 1.400 . S
C1305 C1306 1.398 . S
C1306 H1294 0.950 . S
C1306 C1305 1.398 . S
C1306 C1307 1.391 . S
C1307 H1295 0.950 . S
C1307 C1303 1.393 . S
C1307 C1306 1.391 . S
H1308 C1316 0.950 . S
H1309 C1321 0.950 . S
H1310 C1318 0.950 . S
H1311 C1320 0.950 . S
H1312 C1322 0.950 . S
H1313 C1324 0.950 . S
H1314 C1326 0.950 . S
H1315 C1327 0.950 . S
C1316 H1308 0.950 . S
C1316 C1317 1.386 . S
C1316 C1318 1.391 . S
C1317 C1316 1.386 . S
C1317 C1321 1.393 . S
C1318 H1310 0.950 . S
C1318 C1316 1.391 . S
C1318 C1319 1.400 . S
C1319 C1318 1.400 . S
C1319 C1320 1.398 . S
C1319 C1325 1.491 . S
C1320 H1311 0.950 . S
C1320 C1319 1.398 . S
C1320 C1321 1.391 . S
C1321 H1309 0.950 . S
C1321 C1317 1.393 . S
C1321 C1320 1.391 . S
C1322 H1312 0.950 . S
C1322 C1323 1.386 . S
C1322 C1324 1.391 . S
C1323 C1322 1.386 . S
C1323 C1327 1.393 . S
C1324 H1313 0.950 . S
C1324 C1322 1.391 . S
C1324 C1325 1.400 . S
C1325 C1319 1.491 . S
C1325 C1324 1.400 . S
C1325 C1326 1.398 . S
C1326 H1314 0.950 . S
C1326 C1325 1.398 . S
C1326 C1327 1.391 . S
C1327 H1315 0.950 . S
C1327 C1323 1.393 . S
C1327 C1326 1.391 . S
H1328 C1336 0.950 . S
H1329 C1341 0.950 . S
H1330 C1338 0.950 . S
H1331 C1340 0.950 . S
H1332 C1342 0.950 . S
H1333 C1344 0.950 . S
H1334 C1346 0.950 . S
H1335 C1347 0.950 . S
C1336 H1328 0.950 . S
C1336 C1337 1.386 . S
C1336 C1338 1.391 . S
C1337 C1336 1.386 . S
C1337 C1341 1.393 . S
C1338 H1330 0.950 . S
C1338 C1336 1.391 . S
C1338 C1339 1.400 . S
C1339 C1338 1.400 . S
C1339 C1340 1.398 . S
C1339 C1345 1.491 . S
C1340 H1331 0.950 . S
C1340 C1339 1.398 . S
C1340 C1341 1.391 . S
C1341 H1329 0.950 . S
C1341 C1337 1.393 . S
C1341 C1340 1.391 . S
C1342 H1332 0.950 . S
C1342 C1343 1.386 . S
C1342 C1344 1.391 . S
C1343 C1342 1.386 . S
C1343 C1347 1.393 . S
C1344 H1333 0.950 . S
C1344 C1342 1.391 . S
C1344 C1345 1.400 . S
C1345 C1339 1.491 . S
C1345 C1344 1.400 . S
C1345 C1346 1.398 . S
C1346 H1334 0.950 . S
C1346 C1345 1.398 . S
C1346 C1347 1.391 . S
C1347 H1335 0.950 . S
C1347 C1343 1.393 . S
C1347 C1346 1.391 . S
H1348 C1356 0.950 . S
H1349 C1361 0.950 1_655 S
H1350 C1358 0.950 . S
H1351 C1360 0.950 . S
H1352 C1362 0.950 . S
H1353 C1364 0.950 . S
H1354 C1366 0.950 . S
H1355 C1367 0.950 . S
C1356 H1348 0.950 . S
C1356 C1357 1.386 . S
C1356 C1358 1.391 . S
C1357 C1356 1.386 . S
C1357 C1361 1.393 . S
C1358 H1350 0.950 . S
C1358 C1356 1.391 . S
C1358 C1359 1.400 . S
C1359 C1358 1.400 . S
C1359 C1360 1.398 . S
C1359 C1365 1.491 . S
C1360 H1351 0.950 . S
C1360 C1359 1.398 . S
C1360 C1361 1.391 . S
C1361 H1349 0.950 1_455 S
C1361 C1357 1.393 . S
C1361 C1360 1.391 . S
C1362 H1352 0.950 . S
C1362 C1363 1.386 . S
C1362 C1364 1.391 . S
C1363 C1362 1.386 . S
C1363 C1367 1.393 . S
C1364 H1353 0.950 . S
C1364 C1362 1.391 . S
C1364 C1365 1.400 . S
C1365 C1359 1.491 . S
C1365 C1364 1.400 . S
C1365 C1366 1.398 . S
C1366 H1354 0.950 . S
C1366 C1365 1.398 . S
C1366 C1367 1.391 . S
C1367 H1355 0.950 . S
C1367 C1363 1.393 . S
C1367 C1366 1.391 . S
H1368 C1376 0.950 . S
H1369 C1381 0.950 . S
H1370 C1378 0.950 . S
H1371 C1380 0.950 . S
H1372 C1382 0.950 . S
H1373 C1384 0.950 . S
H1374 C1386 0.950 . S
H1375 C1387 0.950 . S
C1376 H1368 0.950 . S
C1376 C1377 1.386 . S
C1376 C1378 1.391 . S
C1377 C1376 1.386 . S
C1377 C1381 1.393 . S
C1378 H1370 0.950 . S
C1378 C1376 1.391 . S
C1378 C1379 1.400 . S
C1379 C1378 1.400 . S
C1379 C1380 1.398 . S
C1379 C1385 1.491 . S
C1380 H1371 0.950 . S
C1380 C1379 1.398 . S
C1380 C1381 1.391 . S
C1381 H1369 0.950 . S
C1381 C1377 1.393 . S
C1381 C1380 1.391 . S
C1382 H1372 0.950 . S
C1382 C1383 1.386 . S
C1382 C1384 1.391 . S
C1383 C1382 1.386 . S
C1383 C1387 1.393 . S
C1384 H1373 0.950 . S
C1384 C1382 1.391 . S
C1384 C1385 1.400 . S
C1385 C1379 1.491 . S
C1385 C1384 1.400 . S
C1385 C1386 1.398 . S
C1386 H1374 0.950 . S
C1386 C1385 1.398 . S
C1386 C1387 1.391 . S
C1387 H1375 0.950 . S
C1387 C1383 1.393 . S
C1387 C1386 1.391 . S
H1388 C1396 0.950 1_655 S
H1389 C1401 0.950 . S
H1390 C1398 0.950 . S
H1391 C1400 0.950 . S
H1392 C1402 0.950 . S
H1393 C1404 0.950 . S
H1394 C1406 0.950 . S
H1395 C1407 0.950 . S
C1396 H1388 0.950 1_455 S
C1396 C1397 1.386 . S
C1396 C1398 1.391 . S
C1397 C1396 1.386 . S
C1397 C1401 1.393 . S
C1398 H1390 0.950 . S
C1398 C1396 1.391 . S
C1398 C1399 1.400 . S
C1399 C1398 1.400 . S
C1399 C1400 1.398 . S
C1399 C1405 1.491 . S
C1400 H1391 0.950 . S
C1400 C1399 1.398 . S
C1400 C1401 1.391 . S
C1401 H1389 0.950 . S
C1401 C1397 1.393 . S
C1401 C1400 1.391 . S
C1402 H1392 0.950 . S
C1402 C1403 1.386 . S
C1402 C1404 1.391 . S
C1403 C1402 1.386 . S
C1403 C1407 1.393 . S
C1404 H1393 0.950 . S
C1404 C1402 1.391 . S
C1404 C1405 1.400 . S
C1405 C1399 1.491 . S
C1405 C1404 1.400 . S
C1405 C1406 1.398 . S
C1406 H1394 0.950 . S
C1406 C1405 1.398 . S
C1406 C1407 1.391 . S
C1407 H1395 0.950 . S
C1407 C1403 1.393 . S
C1407 C1406 1.391 . S
H1408 C1416 0.950 . S
H1409 C1421 0.950 . S
H1410 C1418 0.950 . S
H1411 C1420 0.950 . S
H1412 C1422 0.950 . S
H1413 C1424 0.950 . S
H1414 C1426 0.950 . S
H1415 C1427 0.950 . S
C1416 H1408 0.950 . S
C1416 C1417 1.394 1_455 S
C1416 C1418 1.391 . S
C1417 C1416 1.394 1_655 S
C1417 C1421 1.384 1_556 S
C1418 H1410 0.950 . S
C1418 C1416 1.391 . S
C1418 C1419 1.420 . S
C1419 C1418 1.420 . S
C1419 C1420 1.378 1_556 S
C1419 C1425 1.492 . S
C1420 H1411 0.950 . S
C1420 C1419 1.378 1_554 S
C1420 C1421 1.391 1_455 S
C1421 H1409 0.950 . S
C1421 C1417 1.384 1_554 S
C1421 C1420 1.391 1_655 S
C1422 H1412 0.950 . S
C1422 C1423 1.386 1_554 S
C1422 C1424 1.391 . S
C1423 C1422 1.386 1_556 S
C1423 C1427 1.393 . S
C1424 H1413 0.950 . S
C1424 C1422 1.391 . S
C1424 C1425 1.400 1_554 S
C1425 C1419 1.492 . S
C1425 C1424 1.400 1_556 S
C1425 C1426 1.398 . S
C1426 H1414 0.950 . S
C1426 C1425 1.398 . S
C1426 C1427 1.391 . S
C1427 H1415 0.950 . S
C1427 C1423 1.393 . S
C1427 C1426 1.391 . S
H1428 C1436 0.950 . S
H1429 C1441 0.950 . S
H1430 C1438 0.950 . S
H1431 C1440 0.950 . S
H1432 C1442 0.950 . S
H1433 C1444 0.950 . S
H1434 C1446 0.950 . S
H1435 C1447 0.949 1_655 S
C1436 H1428 0.950 . S
C1436 C1437 1.386 . S
C1436 C1438 1.391 . S
C1437 C1436 1.386 . S
C1437 C1441 1.393 . S
C1438 H1430 0.950 . S
C1438 C1436 1.391 . S
C1438 C1439 1.400 . S
C1439 C1438 1.400 . S
C1439 C1440 1.398 . S
C1439 C1445 1.491 . S
C1440 H1431 0.950 . S
C1440 C1439 1.398 . S
C1440 C1441 1.391 . S
C1441 H1429 0.950 . S
C1441 C1437 1.393 . S
C1441 C1440 1.391 . S
C1442 H1432 0.950 . S
C1442 C1443 1.386 . S
C1442 C1444 1.391 1_655 S
C1443 C1442 1.386 . S
C1443 C1447 1.393 1_655 S
C1444 H1433 0.950 . S
C1444 C1442 1.391 1_455 S
C1444 C1445 1.400 . S
C1445 C1439 1.491 . S
C1445 C1444 1.400 . S
C1445 C1446 1.398 . S
C1446 H1434 0.950 . S
C1446 C1445 1.398 . S
C1446 C1447 1.391 . S
C1447 H1435 0.949 1_455 S
C1447 C1443 1.393 1_455 S
C1447 C1446 1.391 . S
H1448 C1456 0.950 . S
H1449 C1461 0.950 . S
H1450 C1458 0.950 . S
H1451 C1460 0.950 . S
H1452 C1462 0.950 . S
H1453 C1464 0.950 . S
H1454 C1466 0.950 . S
H1455 C1467 0.950 . S
C1456 H1448 0.950 . S
C1456 C1457 1.386 1_655 S
C1456 C1458 1.391 . S
C1457 C1456 1.386 1_455 S
C1457 C1461 1.393 1_554 S
C1458 H1450 0.950 . S
C1458 C1456 1.391 . S
C1458 C1459 1.400 . S
C1459 C1458 1.400 . S
C1459 C1460 1.398 1_554 S
C1459 C1465 1.492 . S
C1460 H1451 0.950 . S
C1460 C1459 1.398 1_556 S
C1460 C1461 1.391 1_655 S
C1461 H1449 0.950 . S
C1461 C1457 1.393 1_556 S
C1461 C1460 1.391 1_455 S
C1462 H1452 0.950 . S
C1462 C1463 1.381 1_556 S
C1462 C1464 1.391 . S
C1463 C1462 1.381 1_554 S
C1463 C1467 1.397 . S
C1464 H1453 0.950 . S
C1464 C1462 1.391 . S
C1464 C1465 1.390 1_556 S
C1465 C1459 1.492 . S
C1465 C1464 1.390 1_554 S
C1465 C1466 1.408 . S
C1466 H1454 0.950 . S
C1466 C1465 1.408 . S
C1466 C1467 1.391 . S
C1467 H1455 0.950 . S
C1467 C1463 1.397 . S
C1467 C1466 1.391 . S
H1468 C1476 0.950 . S
H1469 C1481 0.950 . S
H1470 C1478 0.950 . S
H1471 C1480 0.950 . S
H1472 C1482 0.950 . S
H1473 C1484 0.950 . S
H1474 C1486 0.950 . S
H1475 C1487 0.950 . S
C1476 H1468 0.950 . S
C1476 C1477 1.386 . S
C1476 C1478 1.391 . S
C1477 C1476 1.386 . S
C1477 C1481 1.393 . S
C1478 H1470 0.950 . S
C1478 C1476 1.391 . S
C1478 C1479 1.400 . S
C1479 C1478 1.400 . S
C1479 C1480 1.398 . S
C1479 C1485 1.491 . S
C1480 H1471 0.950 . S
C1480 C1479 1.398 . S
C1480 C1481 1.391 . S
C1481 H1469 0.950 . S
C1481 C1477 1.393 . S
C1481 C1480 1.391 . S
C1482 H1472 0.950 . S
C1482 C1483 1.386 . S
C1482 C1484 1.391 1_455 S
C1483 C1482 1.386 . S
C1483 C1487 1.393 . S
C1484 H1473 0.950 . S
C1484 C1482 1.391 1_655 S
C1484 C1485 1.400 . S
C1485 C1479 1.491 . S
C1485 C1484 1.400 . S
C1485 C1486 1.398 . S
C1486 H1474 0.950 . S
C1486 C1485 1.398 . S
C1486 C1487 1.391 1_655 S
C1487 H1475 0.950 . S
C1487 C1483 1.393 . S
C1487 C1486 1.391 1_455 S
H1488 C1496 0.950 . S
H1489 C1501 0.950 . S
H1490 C1498 0.950 . S
H1491 C1500 0.950 . S
H1492 C1502 0.950 . S
H1493 C1504 0.950 . S
H1494 C1506 0.950 . S
H1495 C1507 0.950 . S
C1496 H1488 0.950 . S
C1496 C1497 1.386 . S
C1496 C1498 1.391 1_655 S
C1497 C1496 1.386 . S
C1497 C1501 1.393 1_655 S
C1498 H1490 0.950 . S
C1498 C1496 1.391 1_455 S
C1498 C1499 1.400 . S
C1499 C1498 1.400 . S
C1499 C1500 1.398 . S
C1499 C1505 1.491 . S
C1500 H1491 0.950 . S
C1500 C1499 1.398 . S
C1500 C1501 1.391 . S
C1501 H1489 0.950 . S
C1501 C1497 1.393 1_455 S
C1501 C1500 1.391 . S
C1502 H1492 0.950 . S
C1502 C1503 1.386 . S
C1502 C1504 1.391 . S
C1503 C1502 1.386 . S
C1503 C1507 1.393 . S
C1504 H1493 0.950 . S
C1504 C1502 1.391 . S
C1504 C1505 1.400 . S
C1505 C1499 1.491 . S
C1505 C1504 1.400 . S
C1505 C1506 1.398 . S
C1506 H1494 0.950 . S
C1506 C1505 1.398 . S
C1506 C1507 1.391 . S
C1507 H1495 0.950 . S
C1507 C1503 1.393 . S
C1507 C1506 1.391 . S
H1508 C1516 0.950 . S
H1509 C1521 0.950 . S
H1510 C1518 0.950 . S
H1511 C1520 0.950 . S
H1512 C1522 0.950 . S
H1513 C1524 0.950 . S
H1514 C1526 0.950 . S
H1515 C1527 0.950 . S
C1516 H1508 0.950 . S
C1516 C1517 1.386 . S
C1516 C1518 1.391 . S
C1517 C1516 1.386 . S
C1517 C1521 1.393 . S
C1518 H1510 0.950 . S
C1518 C1516 1.391 . S
C1518 C1519 1.400 . S
C1519 C1518 1.400 . S
C1519 C1520 1.398 . S
C1519 C1525 1.491 . S
C1520 H1511 0.950 . S
C1520 C1519 1.398 . S
C1520 C1521 1.391 . S
C1521 H1509 0.950 . S
C1521 C1517 1.393 . S
C1521 C1520 1.391 . S
C1522 H1512 0.950 . S
C1522 C1523 1.386 . S
C1522 C1524 1.391 1_655 S
C1523 C1522 1.386 . S
C1523 C1527 1.393 1_655 S
C1524 H1513 0.950 . S
C1524 C1522 1.391 1_455 S
C1524 C1525 1.400 . S
C1525 C1519 1.491 . S
C1525 C1524 1.400 . S
C1525 C1526 1.398 . S
C1526 H1514 0.950 . S
C1526 C1525 1.398 . S
C1526 C1527 1.391 . S
C1527 H1515 0.950 . S
C1527 C1523 1.393 1_455 S
C1527 C1526 1.391 . S
H1528 C1536 0.950 . S
H1529 C1541 0.950 . S
H1530 C1538 0.950 . S
H1531 C1540 0.950 . S
H1532 C1542 0.950 . S
H1533 C1544 0.950 . S
H1534 C1546 0.950 . S
H1535 C1547 0.950 . S
C1536 H1528 0.950 . S
C1536 C1537 1.386 . S
C1536 C1538 1.391 . S
C1537 C1536 1.386 . S
C1537 C1541 1.393 . S
C1538 H1530 0.950 . S
C1538 C1536 1.391 . S
C1538 C1539 1.400 . S
C1539 C1538 1.400 . S
C1539 C1540 1.398 . S
C1539 C1545 1.491 . S
C1540 H1531 0.950 . S
C1540 C1539 1.398 . S
C1540 C1541 1.391 . S
C1541 H1529 0.950 . S
C1541 C1537 1.393 . S
C1541 C1540 1.391 . S
C1542 H1532 0.950 . S
C1542 C1543 1.386 . S
C1542 C1544 1.391 1_455 S
C1543 C1542 1.386 . S
C1543 C1547 1.393 1_455 S
C1544 H1533 0.950 . S
C1544 C1542 1.391 1_655 S
C1544 C1545 1.400 . S
C1545 C1539 1.491 . S
C1545 C1544 1.400 . S
C1545 C1546 1.398 . S
C1546 H1534 0.950 . S
C1546 C1545 1.398 . S
C1546 C1547 1.391 . S
C1547 H1535 0.950 . S
C1547 C1543 1.393 1_655 S
C1547 C1546 1.391 . S
H1548 C1556 0.950 . S
H1549 C1561 0.950 . S
H1550 C1558 0.950 . S
H1551 C1560 0.950 . S
H1552 C1562 0.950 . S
H1553 C1564 0.950 . S
H1554 C1566 0.950 . S
H1555 C1567 0.950 . S
C1556 H1548 0.950 . S
C1556 C1557 1.386 . S
C1556 C1558 1.391 . S
C1557 C1556 1.386 . S
C1557 C1561 1.393 . S
C1558 H1550 0.950 . S
C1558 C1556 1.391 . S
C1558 C1559 1.400 . S
C1559 C1558 1.400 . S
C1559 C1560 1.398 . S
C1559 C1565 1.491 . S
C1560 H1551 0.950 . S
C1560 C1559 1.398 . S
C1560 C1561 1.391 . S
C1561 H1549 0.950 . S
C1561 C1557 1.393 . S
C1561 C1560 1.391 . S
C1562 H1552 0.950 . S
C1562 C1563 1.386 1_655 S
C1562 C1564 1.391 . S
C1563 C1562 1.386 1_455 S
C1563 C1567 1.393 . S
C1564 H1553 0.950 . S
C1564 C1562 1.391 . S
C1564 C1565 1.400 . S
C1565 C1559 1.491 . S
C1565 C1564 1.400 . S
C1565 C1566 1.398 . S
C1566 H1554 0.950 . S
C1566 C1565 1.398 . S
C1566 C1567 1.391 1_655 S
C1567 H1555 0.950 . S
C1567 C1563 1.393 . S
C1567 C1566 1.391 1_455 S
H1568 C1576 0.950 . S
H1569 C1581 0.950 . S
H1570 C1578 0.950 . S
H1571 C1580 0.950 . S
H1572 C1582 0.950 . S
H1573 C1584 0.950 . S
H1574 C1586 0.950 . S
H1575 C1587 0.950 . S
C1576 H1568 0.950 . S
C1576 C1577 1.386 . S
C1576 C1578 1.391 . S
C1577 C1576 1.386 . S
C1577 C1581 1.393 . S
C1578 H1570 0.950 . S
C1578 C1576 1.391 . S
C1578 C1579 1.400 . S
C1579 C1578 1.400 . S
C1579 C1580 1.398 . S
C1579 C1585 1.491 . S
C1580 H1571 0.950 . S
C1580 C1579 1.398 . S
C1580 C1581 1.391 . S
C1581 H1569 0.950 . S
C1581 C1577 1.393 . S
C1581 C1580 1.391 . S
C1582 H1572 0.950 . S
C1582 C1583 1.386 . S
C1582 C1584 1.391 . S
C1583 C1582 1.386 . S
C1583 C1587 1.393 . S
C1584 H1573 0.950 . S
C1584 C1582 1.391 . S
C1584 C1585 1.400 . S
C1585 C1579 1.491 . S
C1585 C1584 1.400 . S
C1585 C1586 1.398 . S
C1586 H1574 0.950 . S
C1586 C1585 1.398 . S
C1586 C1587 1.391 . S
C1587 H1575 0.950 . S
C1587 C1583 1.393 . S
C1587 C1586 1.391 . S
H1588 C1596 0.950 . S
H1589 C1601 0.950 . S
H1590 C1598 0.950 . S
H1591 C1600 0.950 . S
H1592 C1602 0.950 . S
H1593 C1604 0.950 . S
H1594 C1606 0.950 . S
H1595 C1607 0.950 . S
C1596 H1588 0.950 . S
C1596 C1597 1.386 . S
C1596 C1598 1.391 . S
C1597 C1596 1.386 . S
C1597 C1601 1.393 . S
C1598 H1590 0.950 . S
C1598 C1596 1.391 . S
C1598 C1599 1.400 . S
C1599 C1598 1.400 . S
C1599 C1600 1.398 . S
C1599 C1605 1.491 . S
C1600 H1591 0.950 . S
C1600 C1599 1.398 . S
C1600 C1601 1.391 . S
C1601 H1589 0.950 . S
C1601 C1597 1.393 . S
C1601 C1600 1.391 . S
C1602 H1592 0.950 . S
C1602 C1603 1.386 . S
C1602 C1604 1.391 . S
C1603 C1602 1.386 . S
C1603 C1607 1.393 . S
C1604 H1593 0.950 . S
C1604 C1602 1.391 . S
C1604 C1605 1.400 . S
C1605 C1599 1.491 . S
C1605 C1604 1.400 . S
C1605 C1606 1.398 . S
C1606 H1594 0.950 . S
C1606 C1605 1.398 . S
C1606 C1607 1.391 . S
C1607 H1595 0.950 . S
C1607 C1603 1.393 . S
C1607 C1606 1.391 . S
H1608 C1616 0.950 . S
H1609 C1621 0.950 . S
H1610 C1618 0.950 . S
H1611 C1620 0.950 . S
H1612 C1622 0.950 . S
H1613 C1624 0.950 . S
H1614 C1626 0.950 . S
H1615 C1627 0.950 . S
C1616 H1608 0.950 . S
C1616 C1617 1.386 . S
C1616 C1618 1.391 . S
C1617 C1616 1.386 . S
C1617 C1621 1.393 . S
C1618 H1610 0.950 . S
C1618 C1616 1.391 . S
C1618 C1619 1.400 . S
C1619 C1618 1.400 . S
C1619 C1620 1.398 . S
C1619 C1625 1.491 . S
C1620 H1611 0.950 . S
C1620 C1619 1.398 . S
C1620 C1621 1.391 . S
C1621 H1609 0.950 . S
C1621 C1617 1.393 . S
C1621 C1620 1.391 . S
C1622 H1612 0.950 . S
C1622 C1623 1.386 . S
C1622 C1624 1.391 . S
C1623 C1622 1.386 . S
C1623 C1627 1.393 . S
C1624 H1613 0.950 . S
C1624 C1622 1.391 . S
C1624 C1625 1.400 . S
C1625 C1619 1.491 . S
C1625 C1624 1.400 . S
C1625 C1626 1.398 . S
C1626 H1614 0.950 . S
C1626 C1625 1.398 . S
C1626 C1627 1.391 . S
C1627 H1615 0.950 . S
C1627 C1623 1.393 . S
C1627 C1626 1.391 . S
H1628 C1636 0.950 . S
H1629 C1641 0.950 . S
H1630 C1638 0.950 . S
H1631 C1640 0.950 . S
H1632 C1642 0.950 . S
H1633 C1644 0.950 . S
H1634 C1646 0.950 . S
H1635 C1647 0.950 . S
C1636 H1628 0.950 . S
C1636 C1637 1.386 . S
C1636 C1638 1.391 . S
C1637 C1636 1.386 . S
C1637 C1641 1.393 . S
C1638 H1630 0.950 . S
C1638 C1636 1.391 . S
C1638 C1639 1.400 . S
C1639 C1638 1.400 . S
C1639 C1640 1.398 . S
C1639 C1645 1.491 . S
C1640 H1631 0.950 . S
C1640 C1639 1.398 . S
C1640 C1641 1.391 . S
C1641 H1629 0.950 . S
C1641 C1637 1.393 . S
C1641 C1640 1.391 . S
C1642 H1632 0.950 . S
C1642 C1643 1.386 . S
C1642 C1644 1.391 . S
C1643 C1642 1.386 . S
C1643 C1647 1.393 . S
C1644 H1633 0.950 . S
C1644 C1642 1.391 . S
C1644 C1645 1.400 . S
C1645 C1639 1.491 . S
C1645 C1644 1.400 . S
C1645 C1646 1.398 . S
C1646 H1634 0.950 . S
C1646 C1645 1.398 . S
C1646 C1647 1.391 . S
C1647 H1635 0.950 . S
C1647 C1643 1.393 . S
C1647 C1646 1.391 . S
H1648 C1656 0.950 . S
H1649 C1661 0.950 . S
H1650 C1658 0.950 . S
H1651 C1660 0.950 . S
H1652 C1662 0.950 . S
H1653 C1664 0.950 . S
H1654 C1666 0.950 . S
H1655 C1667 0.950 . S
C1656 H1648 0.950 . S
C1656 C1657 1.395 . S
C1656 C1658 1.391 . S
C1657 C1656 1.395 . S
C1657 C1661 1.384 1_556 S
C1658 H1650 0.950 . S
C1658 C1656 1.391 . S
C1658 C1659 1.421 . S
C1659 C1658 1.421 . S
C1659 C1660 1.377 1_556 S
C1659 C1665 1.492 . S
C1660 H1651 0.950 . S
C1660 C1659 1.377 1_554 S
C1660 C1661 1.391 . S
C1661 H1649 0.950 . S
C1661 C1657 1.384 1_554 S
C1661 C1660 1.391 . S
C1662 H1652 0.950 . S
C1662 C1663 1.386 1_554 S
C1662 C1664 1.391 . S
C1663 C1662 1.386 1_556 S
C1663 C1667 1.393 . S
C1664 H1653 0.950 . S
C1664 C1662 1.391 . S
C1664 C1665 1.400 1_554 S
C1665 C1659 1.492 . S
C1665 C1664 1.400 1_556 S
C1665 C1666 1.398 . S
C1666 H1654 0.950 . S
C1666 C1665 1.398 . S
C1666 C1667 1.391 . S
C1667 H1655 0.950 . S
C1667 C1663 1.393 . S
C1667 C1666 1.391 . S
H1668 C1676 0.950 . S
H1669 C1681 0.950 . S
H1670 C1678 0.950 . S
H1671 C1680 0.950 . S
H1672 C1682 0.950 . S
H1673 C1684 0.950 . S
H1674 C1686 0.950 . S
H1675 C1687 0.950 . S
C1676 H1668 0.950 . S
C1676 C1677 1.386 . S
C1676 C1678 1.391 . S
C1677 C1676 1.386 . S
C1677 C1681 1.393 . S
C1678 H1670 0.950 . S
C1678 C1676 1.391 . S
C1678 C1679 1.400 . S
C1679 C1678 1.400 . S
C1679 C1680 1.398 . S
C1679 C1685 1.491 . S
C1680 H1671 0.950 . S
C1680 C1679 1.398 . S
C1680 C1681 1.391 . S
C1681 H1669 0.950 . S
C1681 C1677 1.393 . S
C1681 C1680 1.391 . S
C1682 H1672 0.950 . S
C1682 C1683 1.386 . S
C1682 C1684 1.391 . S
C1683 C1682 1.386 . S
C1683 C1687 1.393 . S
C1684 H1673 0.950 . S
C1684 C1682 1.391 . S
C1684 C1685 1.400 . S
C1685 C1679 1.491 . S
C1685 C1684 1.400 . S
C1685 C1686 1.398 . S
C1686 H1674 0.950 . S
C1686 C1685 1.398 . S
C1686 C1687 1.391 . S
C1687 H1675 0.950 . S
C1687 C1683 1.393 . S
C1687 C1686 1.391 . S
H1688 C1696 0.949 . S
H1689 C1701 0.950 . S
H1690 C1698 0.948 1_556 S
H1691 C1700 0.950 . S
H1692 C1702 0.950 . S
H1693 C1704 0.950 . S
H1694 C1706 0.950 . S
H1695 C1707 0.950 . S
C1696 H1688 0.949 . S
C1696 C1697 1.388 . S
C1696 C1698 1.391 . S
C1697 C1696 1.388 . S
C1697 C1701 1.393 . S
C1698 H1690 0.948 1_554 S
C1698 C1696 1.391 . S
C1698 C1699 1.401 . S
C1699 C1698 1.401 . S
C1699 C1700 1.398 . S
C1699 C1705 1.492 . S
C1700 H1691 0.950 . S
C1700 C1699 1.398 . S
C1700 C1701 1.391 . S
C1701 H1689 0.950 . S
C1701 C1697 1.393 . S
C1701 C1700 1.391 . S
C1702 H1692 0.950 . S
C1702 C1703 1.386 . S
C1702 C1704 1.391 . S
C1703 C1702 1.386 . S
C1703 C1707 1.392 1_554 S
C1704 H1693 0.950 . S
C1704 C1702 1.391 . S
C1704 C1705 1.402 . S
C1705 C1699 1.492 . S
C1705 C1704 1.402 . S
C1705 C1706 1.396 1_554 S
C1706 H1694 0.950 . S
C1706 C1705 1.396 1_556 S
C1706 C1707 1.391 . S
C1707 H1695 0.950 . S
C1707 C1703 1.392 1_556 S
C1707 C1706 1.391 . S
H1708 C1716 0.950 . S
H1709 C1721 0.950 . S
H1710 C1718 0.950 . S
H1711 C1720 0.950 . S
H1712 C1722 0.950 . S
H1713 C1724 0.950 . S
H1714 C1726 0.950 . S
H1715 C1727 0.950 . S
C1716 H1708 0.950 . S
C1716 C1717 1.386 . S
C1716 C1718 1.391 . S
C1717 C1716 1.386 . S
C1717 C1721 1.393 . S
C1718 H1710 0.950 . S
C1718 C1716 1.391 . S
C1718 C1719 1.400 . S
C1719 C1718 1.400 . S
C1719 C1720 1.398 . S
C1719 C1725 1.491 . S
C1720 H1711 0.950 . S
C1720 C1719 1.398 . S
C1720 C1721 1.391 . S
C1721 H1709 0.950 . S
C1721 C1717 1.393 . S
C1721 C1720 1.391 . S
C1722 H1712 0.950 . S
C1722 C1723 1.386 . S
C1722 C1724 1.391 . S
C1723 C1722 1.386 . S
C1723 C1727 1.393 . S
C1724 H1713 0.950 . S
C1724 C1722 1.391 . S
C1724 C1725 1.400 . S
C1725 C1719 1.491 . S
C1725 C1724 1.400 . S
C1725 C1726 1.398 . S
C1726 H1714 0.950 . S
C1726 C1725 1.398 . S
C1726 C1727 1.391 . S
C1727 H1715 0.950 . S
C1727 C1723 1.393 . S
C1727 C1726 1.391 . S
C457 C7 1.218 . S
C463 C49 1.213 . S
C477 C35 1.211 . S
C483 C21 1.219 . S
C497 C105 1.219 . S
C503 C63 1.210 . S
C517 C91 1.218 . S
C523 C77 1.211 . S
C537 C119 1.213 . S
C543 C161 1.215 . S
C557 C133 1.219 . S
C563 C147 1.210 . S
C577 C217 1.211 . S
C583 C175 1.219 . S
C597 C203 1.210 . S
C603 C189 1.219 . S
C617 C231 1.217 . S
C623 C273 1.212 . S
C637 C245 1.210 . S
C643 C259 1.218 . S
C657 C287 1.218 . S
C663 C329 1.211 . S
C677 C301 1.218 . S
C683 C315 1.211 . S
C697 C343 1.211 . S
C703 C385 1.218 . S
C717 C371 1.219 . S
C723 C357 1.211 . S
C737 C441 1.219 . S
C743 C399 1.210 . S
C757 C427 1.213 . S
C763 C413 1.218 . S
C777 C6 1.957 . S
C783 C62 1.957 . S
C797 C412 1.953 1_556 S
C803 C20 1.953 1_554 S
C817 C34 1.958 . S
C823 C202 1.958 . S
C837 C328 1.968 . S
C843 C48 1.968 . S
C857 C356 1.962 . S
C863 C76 1.962 . S
C877 C90 1.956 . S
C883 C146 1.956 . S
C897 C104 1.963 . S
C903 C272 1.963 . S
C917 C174 1.972 . S
C923 C118 1.972 . S
C937 C300 1.955 . S
C943 C132 1.955 . S
C957 C160 1.956 . S
C963 C440 1.956 . S
C977 C188 1.973 . S
C983 C244 1.973 . S
C997 C216 1.972 . S
C1003 C384 1.972 . S
C1017 C286 1.965 . S
C1023 C230 1.965 . S
C1037 C258 1.954 . S
C1043 C426 1.954 . S
C1057 C314 1.957 . S
C1063 C370 1.957 . S
C1077 C398 1.956 . S
C1083 C342 1.956 . S
C1097 C8 1.394 . S
C1103 C274 1.395 . S
C1117 C22 1.413 . S
C1123 C260 1.413 . S
C1137 C246 1.398 . S
C1143 C36 1.400 . S
C1157 C232 1.409 . S
C1163 C50 1.410 . S
C1177 C64 1.409 . S
C1183 C330 1.409 . S
C1197 C78 1.413 . S
C1203 C316 1.413 . S
C1217 C92 1.388 . S
C1223 C302 1.389 . S
C1237 C288 1.387 . S
C1243 C106 1.386 . S
C1257 C120 1.393 . S
C1263 C386 1.392 . S
C1277 C372 1.391 . S
C1283 C134 1.389 . S
C1297 C358 1.414 . S
C1303 C148 1.414 . S
C1317 C162 1.387 . S
C1323 C344 1.388 . S
C1337 C176 1.393 . S
C1343 C442 1.391 . S
C1357 C190 1.411 . S
C1363 C428 1.410 . S
C1377 C414 1.386 . S
C1383 C204 1.386 . S
C1397 C218 1.390 . S
C1403 C400 1.391 . S
C1417 C23 1.439 1_556 S
C1423 C9 1.443 1_556 S
C1437 C37 1.477 . S
C1443 C51 1.474 . S
C1457 C79 1.468 1_554 S
C1463 C65 1.464 1_554 S
C1477 C93 1.480 . S
C1483 C107 1.479 . S
C1497 C135 1.436 . S
C1503 C121 1.434 . S
C1517 C149 1.435 . S
C1523 C163 1.433 . S
C1537 C177 1.437 . S
C1543 C191 1.440 . S
C1557 C205 1.446 . S
C1563 C219 1.442 . S
C1577 C233 1.463 . S
C1583 C247 1.468 . S
C1597 C275 1.431 . S
C1603 C261 1.430 . S
C1617 C289 1.466 . S
C1623 C303 1.462 . S
C1637 C331 1.458 . S
C1643 C317 1.453 . S
C1657 C359 1.439 1_556 S
C1663 C345 1.443 1_556 S
C1677 C373 1.468 . S
C1683 C387 1.471 . S
C1697 C401 1.459 1_554 S
C1703 C415 1.454 1_554 S
C1717 C443 1.431 . S
C1723 C429 1.431 . S
