# Generated by pormake.
# Topology zfe, (5)-cn, num edge types: 1
# Building blocks:
#     Node 0, Type 0, BuildingBlock: XOMCOT_clean_sbu_0, # of connection points: 5
#     Node 1, Type 0, BuildingBlock: XOMCOT_clean_sbu_0, # of connection points: 5
#     Node 2, Type 0, BuildingBlock: XOMCOT_clean_sbu_0, # of connection points: 5
#     Node 3, Type 0, BuildingBlock: XOMCOT_clean_sbu_0, # of connection points: 5
#     Node 4, Type 0, BuildingBlock: XOMCOT_clean_sbu_0, # of connection points: 5
#     Node 5, Type 0, BuildingBlock: XOMCOT_clean_sbu_0, # of connection points: 5
#     Node 6, Type 0, BuildingBlock: XOMCOT_clean_sbu_0, # of connection points: 5
#     Node 7, Type 0, BuildingBlock: XOMCOT_clean_sbu_0, # of connection points: 5
#     Node 8, Type 0, BuildingBlock: XOMCOT_clean_sbu_0, # of connection points: 5
#     Node 9, Type 0, BuildingBlock: XOMCOT_clean_sbu_0, # of connection points: 5
#     Node 10, Type 0, BuildingBlock: XOMCOT_clean_sbu_0, # of connection points: 5
#     Node 11, Type 0, BuildingBlock: XOMCOT_clean_sbu_0, # of connection points: 5
#     Node 12, Type 0, BuildingBlock: XOMCOT_clean_sbu_0, # of connection points: 5
#     Node 13, Type 0, BuildingBlock: XOMCOT_clean_sbu_0, # of connection points: 5
#     Node 14, Type 0, BuildingBlock: XOMCOT_clean_sbu_0, # of connection points: 5
#     Node 15, Type 0, BuildingBlock: XOMCOT_clean_sbu_0, # of connection points: 5
#     Edge 16, Type (0, 0), BuildingBlock: TEMPAE_clean_linker_10, # of connection points: 2
#     Edge 17, Type (0, 0), BuildingBlock: TEMPAE_clean_linker_10, # of connection points: 2
#     Edge 18, Type (0, 0), BuildingBlock: TEMPAE_clean_linker_10, # of connection points: 2
#     Edge 19, Type (0, 0), BuildingBlock: TEMPAE_clean_linker_10, # of connection points: 2
#     Edge 20, Type (0, 0), BuildingBlock: TEMPAE_clean_linker_10, # of connection points: 2
#     Edge 21, Type (0, 0), BuildingBlock: TEMPAE_clean_linker_10, # of connection points: 2
#     Edge 22, Type (0, 0), BuildingBlock: TEMPAE_clean_linker_10, # of connection points: 2
#     Edge 23, Type (0, 0), BuildingBlock: TEMPAE_clean_linker_10, # of connection points: 2
#     Edge 24, Type (0, 0), BuildingBlock: TEMPAE_clean_linker_10, # of connection points: 2
#     Edge 25, Type (0, 0), BuildingBlock: TEMPAE_clean_linker_10, # of connection points: 2
#     Edge 26, Type (0, 0), BuildingBlock: TEMPAE_clean_linker_10, # of connection points: 2
#     Edge 27, Type (0, 0), BuildingBlock: TEMPAE_clean_linker_10, # of connection points: 2
#     Edge 28, Type (0, 0), BuildingBlock: TEMPAE_clean_linker_10, # of connection points: 2
#     Edge 29, Type (0, 0), BuildingBlock: TEMPAE_clean_linker_10, # of connection points: 2
#     Edge 30, Type (0, 0), BuildingBlock: TEMPAE_clean_linker_10, # of connection points: 2
#     Edge 31, Type (0, 0), BuildingBlock: TEMPAE_clean_linker_10, # of connection points: 2
#     Edge 32, Type (0, 0), BuildingBlock: TEMPAE_clean_linker_10, # of connection points: 2
#     Edge 33, Type (0, 0), BuildingBlock: TEMPAE_clean_linker_10, # of connection points: 2
#     Edge 34, Type (0, 0), BuildingBlock: TEMPAE_clean_linker_10, # of connection points: 2
#     Edge 35, Type (0, 0), BuildingBlock: TEMPAE_clean_linker_10, # of connection points: 2
#     Edge 36, Type (0, 0), BuildingBlock: TEMPAE_clean_linker_10, # of connection points: 2
#     Edge 37, Type (0, 0), BuildingBlock: TEMPAE_clean_linker_10, # of connection points: 2
#     Edge 38, Type (0, 0), BuildingBlock: TEMPAE_clean_linker_10, # of connection points: 2
#     Edge 39, Type (0, 0), BuildingBlock: TEMPAE_clean_linker_10, # of connection points: 2
#     Edge 40, Type (0, 0), BuildingBlock: TEMPAE_clean_linker_10, # of connection points: 2
#     Edge 41, Type (0, 0), BuildingBlock: TEMPAE_clean_linker_10, # of connection points: 2
#     Edge 42, Type (0, 0), BuildingBlock: TEMPAE_clean_linker_10, # of connection points: 2
#     Edge 43, Type (0, 0), BuildingBlock: TEMPAE_clean_linker_10, # of connection points: 2
#     Edge 44, Type (0, 0), BuildingBlock: TEMPAE_clean_linker_10, # of connection points: 2
#     Edge 45, Type (0, 0), BuildingBlock: TEMPAE_clean_linker_10, # of connection points: 2
#     Edge 46, Type (0, 0), BuildingBlock: TEMPAE_clean_linker_10, # of connection points: 2
#     Edge 47, Type (0, 0), BuildingBlock: TEMPAE_clean_linker_10, # of connection points: 2
#     Edge 48, Type (0, 0), BuildingBlock: TEMPAE_clean_linker_10, # of connection points: 2
#     Edge 49, Type (0, 0), BuildingBlock: TEMPAE_clean_linker_10, # of connection points: 2
#     Edge 50, Type (0, 0), BuildingBlock: TEMPAE_clean_linker_10, # of connection points: 2
#     Edge 51, Type (0, 0), BuildingBlock: TEMPAE_clean_linker_10, # of connection points: 2
#     Edge 52, Type (0, 0), BuildingBlock: TEMPAE_clean_linker_10, # of connection points: 2
#     Edge 53, Type (0, 0), BuildingBlock: TEMPAE_clean_linker_10, # of connection points: 2
#     Edge 54, Type (0, 0), BuildingBlock: TEMPAE_clean_linker_10, # of connection points: 2
#     Edge 55, Type (0, 0), BuildingBlock: TEMPAE_clean_linker_10, # of connection points: 2
# Relax obj value: 0.211
# Max RMSD: 0.180
# Mean RMSD: 0.180
data_MOF--net-zfe--node1-XOMCOT_clean_sbu_0--edge1-TEMPAE_clean_linker_10
_symmetry_space_group_name_H-M    P1
_symmetry_Int_Tables_number       1
_symmetry_cell_setting            triclinic
loop_
_symmetry_equiv_pos_as_xyz
'x, y, z'
_cell_length_a     55.72879
_cell_length_b     55.736019
_cell_length_c     28.048432
_cell_angle_alpha  89.954664
_cell_angle_beta   90.021
_cell_angle_gamma 89.984807
loop_
_atom_site_label
_atom_site_type_symbol
_atom_site_fract_x
_atom_site_fract_y
_atom_site_fract_z
_atom_type_partial_charge
Co0 Co 0.04785 0.22526 0.04954 0.0
C1 C 0.08962 0.25832 0.0433 0.0
C2 C 0.05938 0.27016 1.00183 0.0
C3 C 0.07798 0.28584 0.99448 0.0
N4 N 0.06673 0.25279 0.03188 0.0
N5 N 0.09691 0.27838 0.02043 0.0
H6 H 0.10076 0.24778 0.067 0.0
H7 H 0.04168 0.27133 0.98622 0.0
C8 C 0.02585 0.20893 0.95672 0.0
O9 O 0.02912 0.1865 0.96966 0.0
N10 N 0.02789 0.19804 0.06694 0.0
C11 C 0.03344 0.17788 0.09122 0.0
C12 C 0.01322 0.16377 0.09452 0.0
C13 C 0.00418 0.19628 0.05767 0.0
N14 N 0.99488 0.1753 0.07306 0.0
C15 C 0.08734 0.19351 0.06392 0.0
C16 C 0.09695 0.18309 0.96966 0.0
C17 C 0.10871 0.17009 1.00555 0.0
C18 C 0.10446 0.17626 0.05306 0.0
C19 C 0.08025 0.20083 0.9823 0.0
N20 N 0.07406 0.20429 0.02901 0.0
H21 H 0.08414 0.1973 0.10101 0.0
H22 H 0.07221 0.21138 0.95433 0.0
H23 H 0.05068 0.17351 0.10622 0.0
H24 H 0.99417 0.2098 0.03839 0.0
O25 O 0.05722 0.22888 0.11508 0.0
O26 O 0.02524 0.24596 0.0832 0.0
O27 O 0.03265 0.22604 0.98395 0.0
C28 C 0.03819 0.24187 0.1211 0.0
H29 H 0.07757 0.3018 0.97243 0.0
H30 H 0.01211 0.14642 0.11174 0.0
H31 H 0.10045 0.1794 0.9324 0.0
H32 H 0.11336 0.1669 0.08197 0.0
Co33 Co 0.77116 0.04544 0.04885 0.0
C34 C 0.73474 0.08604 0.0405 0.0
C35 C 0.72228 0.05157 0.01747 0.0
C36 C 0.7041 0.0678 0.01124 0.0
N37 N 0.74164 0.06285 0.03548 0.0
N38 N 0.71181 0.0895 0.02587 0.0
H39 H 0.74577 0.10011 0.0549 0.0
H40 H 0.72158 0.03267 0.00881 0.0
C41 C 0.76621 0.0442 0.94337 0.0
O42 O 0.76147 0.06725 0.94626 0.0
N43 N 0.79956 0.02677 0.06153 0.0
C44 C 0.81868 0.0327 0.08839 0.0
C45 C 0.83453 0.01369 0.08819 0.0
C46 C 0.80379 0.00434 0.04586 0.0
N47 N 0.82508 0.99588 0.06147 0.0
C48 C 0.79291 0.09146 0.06026 0.0
C49 C 0.82925 0.08442 0.99482 0.0
C50 C 0.83097 0.10373 0.02666 0.0
C51 C 0.81192 0.10769 0.05826 0.0
C52 C 0.80971 0.06873 0.99758 0.0
N53 N 0.79188 0.07213 0.03044 0.0
H54 H 0.78022 0.09338 0.08898 0.0
H55 H 0.81037 0.05255 0.97651 0.0
H56 H 0.82086 0.04956 0.10699 0.0
H57 H 0.7915 0.99449 0.02332 0.0
O58 O 0.76876 0.05291 0.11562 0.0
O59 O 0.7522 0.02108 0.08209 0.0
O60 O 0.77052 0.03225 0.98145 0.0
C61 C 0.75658 0.03329 0.12082 0.0
H62 H 0.68662 0.06386 0.99635 0.0
H63 H 0.85144 0.01286 0.10712 0.0
H64 H 0.84382 0.08021 0.97068 0.0
H65 H 0.81243 0.12235 0.08357 0.0
Co66 Co 0.95863 0.77247 0.05042 0.0
C67 C 0.91817 0.73595 0.04761 0.0
C68 C 0.95076 0.7247 0.01385 0.0
C69 C 0.93456 0.70632 0.01083 0.0
N70 N 0.94052 0.74354 0.03605 0.0
N71 N 0.91406 0.71328 0.03223 0.0
H72 H 0.90547 0.74603 0.0684 0.0
H73 H 0.96905 0.72431 1.001 0.0
C74 C 0.96033 0.76837 0.94503 0.0
O75 O 0.93708 0.76463 0.94749 0.0
N76 N 0.978 0.80022 0.06432 0.0
C77 C 0.97292 0.81851 0.09398 0.0
C78 C 0.9923 0.8339 0.09468 0.0
C79 C 1.0002 0.80456 0.04754 0.0
N80 N 0.00937 0.82507 0.06537 0.0
C81 C 0.91286 0.79551 0.05913 0.0
C82 C 0.92209 0.83179 0.99453 0.0
C83 C 0.90192 0.83372 0.02411 0.0
C84 C 0.89696 0.81477 0.0555 0.0
C85 C 0.93742 0.81207 0.99896 0.0
N86 N 0.93285 0.79415 0.03112 0.0
H87 H 0.91014 0.78297 0.08779 0.0
H88 H 0.95413 0.81252 0.97955 0.0
H89 H 0.95639 0.82043 0.11382 0.0
H90 H 0.0097 0.7926 0.02373 0.0
O91 O 0.95039 0.76997 0.11676 0.0
O92 O 0.98206 0.75262 0.08407 0.0
O93 O 0.97234 0.77178 0.9834 0.0
C94 C 0.9696 0.75716 0.12244 0.0
H95 H 0.93775 0.68911 0.99419 0.0
H96 H 0.99365 0.85036 0.11496 0.0
H97 H 0.92712 0.84628 0.97081 0.0
H98 H 0.88167 0.81549 0.07928 0.0
Co99 Co 0.23058 0.95773 0.06224 0.0
C100 C 0.2634 0.91438 0.05682 0.0
C101 C 0.28191 0.94802 0.06202 0.0
C102 C 0.29865 0.93002 0.06121 0.0
N103 N 0.2597 0.93838 0.06006 0.0
N104 N 0.28702 0.90896 0.05791 0.0
H105 H 0.24953 0.90104 0.05313 0.0
H106 H 0.28582 0.96699 0.06348 0.0
C107 C 0.24427 0.95787 0.95933 0.0
O108 O 0.24909 0.9349 0.96342 0.0
N109 N 0.20245 0.97777 0.06433 0.0
C110 C 0.1813 0.973 0.08546 0.0
C111 C 0.16612 0.99213 0.07777 0.0
C112 C 0.20001 0.99963 0.04442 0.0
N113 N 0.17793 0.00885 0.05191 0.0
C114 C 0.20564 0.91324 0.07016 0.0
C115 C 0.1766 0.91963 0.99131 0.0
C116 C 0.17094 0.90137 0.02384 0.0
C117 C 0.18627 0.89781 0.06286 0.0
C118 C 0.19607 0.93479 1.00011 0.0
N119 N 0.2103 0.93165 0.03939 0.0
H120 H 0.21607 0.91124 0.10239 0.0
H121 H 0.19819 0.95029 0.97746 0.0
H122 H 0.17718 0.95671 0.10479 0.0
H123 H 0.2143 0.00876 0.02563 0.0
O124 O 0.22755 0.95176 0.12975 0.0
O125 O 0.24786 0.98202 0.09843 0.0
O126 O 0.23712 0.96971 0.99563 0.0
C127 C 0.24054 0.97078 0.1365 0.0
H128 H 0.31795 0.93221 0.06187 0.0
H129 H 0.14774 0.99349 0.08993 0.0
H130 H 0.16529 0.92312 0.96068 0.0
H131 H 0.1824 0.88434 0.08961 0.0
Co132 Co 0.0485 0.77648 0.52163 0.0
C133 C 0.09129 0.74443 0.52757 0.0
C134 C 0.06113 0.73185 0.56835 0.0
C135 C 0.08001 0.71655 0.57589 0.0
N136 N 0.06822 0.74942 0.53857 0.0
N137 N 0.09893 0.72446 0.55044 0.0
H138 H 0.10231 0.75532 0.50431 0.0
H139 H 0.04342 0.73037 0.58384 0.0
C140 C 0.02936 0.79397 0.61567 0.0
O141 O 0.0326 0.81609 0.60075 0.0
N142 N 0.0274 0.80304 0.50562 0.0
C143 C 0.03149 0.82379 0.48217 0.0
C144 C 0.01073 0.83728 0.48265 0.0
C145 C 0.00405 0.8039 0.51823 0.0
N146 N 0.99359 0.82482 0.5059 0.0
C147 C 0.08642 0.80937 0.50213 0.0
C148 C 0.09961 0.81931 0.59489 0.0
C149 C 0.10971 0.83271 0.55763 0.0
C150 C 0.10365 0.82683 0.51077 0.0
C151 C 0.08275 0.80136 0.5844 0.0
N152 N 0.07479 0.79811 0.53868 0.0
H153 H 0.08181 0.80577 0.46555 0.0
H154 H 0.07596 0.7905 0.61321 0.0
H155 H 0.04815 0.82922 0.46604 0.0
H156 H 0.99511 0.78959 0.53732 0.0
O157 O 0.0564 0.77252 0.45545 0.0
O158 O 0.02555 0.75499 0.49042 0.0
O159 O 0.03506 0.77627 0.5889 0.0
C160 C 0.03755 0.75912 0.4513 0.0
H161 H 0.0798 0.70056 0.59784 0.0
H162 H 0.00872 0.8552 0.46833 0.0
H163 H 0.10453 0.82281 0.63158 0.0
H164 H 0.11127 0.83651 0.48086 0.0
Co165 Co 0.22941 0.04894 0.53858 0.0
C166 C 0.2631 0.0905 0.54163 0.0
C167 C 0.27535 0.05999 0.58177 0.0
C168 C 0.29188 0.07804 0.58658 0.0
N169 N 0.25725 0.06782 0.55406 0.0
N170 N 0.28419 0.09721 0.56151 0.0
H171 H 0.25217 0.10181 0.51896 0.0
H172 H 0.27657 0.04223 0.5971 0.0
C173 C 0.21385 0.02785 0.63275 0.0
O174 O 0.19133 0.03084 0.6202 0.0
N175 N 0.20205 0.02877 0.52366 0.0
C176 C 0.18081 0.03395 0.50296 0.0
C177 C 0.16698 0.01344 0.50222 0.0
C178 C 0.20109 0.0051 0.5335 0.0
N179 N 0.17971 0.99539 0.52197 0.0
C180 C 0.19775 0.08836 0.52269 0.0
C181 C 0.18646 0.09824 0.61643 0.0
C182 C 0.17334 0.10943 0.57996 0.0
C183 C 0.18001 0.10513 0.53272 0.0
C184 C 0.20473 0.08193 0.60463 0.0
N185 N 0.2086 0.07552 0.55816 0.0
H186 H 0.20153 0.08478 0.48574 0.0
H187 H 0.21522 0.07422 0.63305 0.0
H188 H 0.17535 0.0512 0.48947 0.0
H189 H 0.21571 0.99535 0.54995 0.0
O190 O 0.23241 0.05725 0.47232 0.0
O191 O 0.24971 0.02574 0.50539 0.0
O192 O 0.23077 0.03469 0.60506 0.0
C193 C 0.24524 0.03808 0.46687 0.0
H194 H 0.30864 0.07693 0.60599 0.0
H195 H 0.1487 0.01216 0.48944 0.0
H196 H 0.18241 0.1018 0.65351 0.0
H197 H 0.17055 0.11355 0.50337 0.0
Co198 Co 0.95853 0.22763 0.52526 0.0
C199 C 0.9156 0.26127 0.53037 0.0
C200 C 0.94964 0.27908 0.52624 0.0
C201 C 0.932 0.29619 0.5266 0.0
N202 N 0.93956 0.25706 0.52769 0.0
N203 N 0.9107 0.285 0.52922 0.0
H204 H 0.90193 0.24769 0.53365 0.0
H205 H 0.9687 0.28264 0.52531 0.0
C206 C 0.95758 0.2399 0.62869 0.0
O207 O 0.93463 0.24468 0.62392 0.0
N208 N 0.97838 0.19933 0.52313 0.0
C209 C 0.97377 0.17826 0.50157 0.0
C210 C 0.9931 0.16322 0.50877 0.0
C211 C 1.00032 0.19698 0.54279 0.0
N212 N 0.00976 0.17504 0.53474 0.0
C213 C 0.91363 0.20392 0.51449 0.0
C214 C 0.91887 0.17305 0.5909 0.0
C215 C 0.90071 0.16852 0.55743 0.0
C216 C 0.89774 0.18478 0.51974 0.0
C217 C 0.93446 0.19243 0.58427 0.0
N218 N 0.93191 0.20752 0.5461 0.0
H219 H 0.91209 0.21504 0.48309 0.0
H220 H 0.94981 0.19384 0.60755 0.0
H221 H 0.95755 0.17415 0.48206 0.0
H222 H 0.00938 0.21129 0.56159 0.0
O223 O 0.95315 0.22517 0.4576 0.0
O224 O 0.98341 0.24486 0.49041 0.0
O225 O 0.96985 0.23336 0.59252 0.0
C226 C 0.97239 0.23793 0.45181 0.0
H227 H 0.93457 0.31544 0.52595 0.0
H228 H 0.99465 0.14497 0.49605 0.0
H229 H 0.92192 0.16095 0.62052 0.0
H230 H 0.88438 0.1818 0.49232 0.0
Co231 Co 0.77462 0.95491 0.52035 0.0
C232 C 0.74197 0.91268 0.52574 0.0
C233 C 0.73094 0.94189 0.57072 0.0
C234 C 0.71531 0.92318 0.57728 0.0
N235 N 0.74777 0.93526 0.53891 0.0
N236 N 0.72224 0.90486 0.54913 0.0
H237 H 0.75202 0.90219 0.50015 0.0
H238 H 0.73 0.95923 0.58785 0.0
C239 C 0.79266 0.97502 0.6138 0.0
O240 O 0.81479 0.97179 0.59895 0.0
N241 N 0.80106 0.97571 0.50224 0.0
C242 C 0.81989 0.97165 0.47308 0.0
C243 C 0.83359 0.99222 0.47058 0.0
C244 C 0.8031 0.99891 0.51529 0.0
N245 N 0.82308 0.00921 0.49763 0.0
C246 C 0.80734 0.91683 0.50088 0.0
C247 C 0.81899 0.90495 0.59357 0.0
C248 C 0.83185 0.89449 0.55599 0.0
C249 C 0.82511 0.89987 0.50927 0.0
C250 C 0.80065 0.92147 0.58338 0.0
N251 N 0.79653 0.92881 0.53751 0.0
H252 H 0.80298 0.92078 0.46433 0.0
H253 H 0.7902 0.92851 0.61252 0.0
H254 H 0.82359 0.95522 0.45429 0.0
H255 H 0.79023 0.00806 0.53774 0.0
O256 O 0.76997 0.94641 0.45461 0.0
O257 O 0.75287 0.97761 0.48902 0.0
O258 O 0.77496 0.969 0.5872 0.0
C259 C 0.75662 0.96528 0.45018 0.0
H260 H 0.69965 0.9232 0.60012 0.0
H261 H 0.85025 0.99433 0.45121 0.0
H262 H 0.82318 0.90054 0.63026 0.0
H263 H 0.83432 0.8919 0.47917 0.0
Co264 Co 0.54529 0.72872 0.5308 0.0
C265 C 0.58648 0.7647 0.52861 0.0
C266 C 0.55332 0.7772 0.49893 0.0
C267 C 0.56978 0.79535 0.49579 0.0
N268 N 0.56368 0.75779 0.51887 0.0
N269 N 0.59065 0.78761 0.51464 0.0
H270 H 0.59964 0.75386 0.54658 0.0
H271 H 0.53483 0.77807 0.48734 0.0
C272 C 0.54419 0.73459 0.42553 0.0
O273 O 0.56748 0.73812 0.42807 0.0
N274 N 0.52549 0.70093 0.54173 0.0
C275 C 0.53041 0.68101 0.56707 0.0
C276 C 0.51075 0.66599 0.56474 0.0
C277 C 0.50308 0.69798 0.52485 0.0
N278 N 0.4936 0.67672 0.53806 0.0
C279 C 0.59063 0.70555 0.54144 0.0
C280 C 0.58222 0.66946 0.47611 0.0
C281 C 0.60139 0.66699 0.50817 0.0
C282 C 0.60614 0.68597 0.53947 0.0
C283 C 0.56732 0.68966 0.47866 0.0
N284 N 0.57131 0.7073 0.51171 0.0
H285 H 0.59292 0.71795 0.57048 0.0
H286 H 0.55117 0.6897 0.4574 0.0
H287 H 0.54709 0.67762 0.58561 0.0
H288 H 0.49378 0.71144 0.50407 0.0
O289 O 0.55273 0.73004 0.59757 0.0
O290 O 0.52154 0.74811 0.56454 0.0
O291 O 0.53222 0.73059 0.46361 0.0
C292 C 0.53352 0.74284 0.60316 0.0
H293 H 0.56655 0.81288 0.4805 0.0
H294 H 0.50935 0.64845 0.58106 0.0
H295 H 0.57749 0.65505 0.45202 0.0
H296 H 0.62077 0.68496 0.56482 0.0
Co297 Co 0.27447 0.54883 0.54895 0.0
C298 C 0.23911 0.58898 0.54377 0.0
C299 C 0.2276 0.55699 0.50764 0.0
C300 C 0.21003 0.57403 0.50287 0.0
N301 N 0.24579 0.56632 0.53308 0.0
N302 N 0.21714 0.59412 0.52572 0.0
H303 H 0.24983 0.60118 0.56491 0.0
H304 H 0.22711 0.53892 0.49365 0.0
C305 C 0.29114 0.52817 0.4553 0.0
O306 O 0.31347 0.5319 0.46835 0.0
N307 N 0.30274 0.52994 0.56423 0.0
C308 C 0.32436 0.53648 0.58163 0.0
C309 C 0.33921 0.51669 0.58178 0.0
C310 C 0.30454 0.50616 0.55594 0.0
N311 N 0.32671 0.49773 0.56528 0.0
C312 C 0.30424 0.58982 0.56413 0.0
C313 C 0.31587 0.59889 0.47022 0.0
C314 C 0.32874 0.61051 0.50645 0.0
C315 C 0.32176 0.60678 0.55372 0.0
C316 C 0.29784 0.58242 0.48236 0.0
N317 N 0.29402 0.57627 0.52898 0.0
H318 H 0.30039 0.58641 0.60114 0.0
H319 H 0.28762 0.57428 0.45408 0.0
H320 H 0.32949 0.5542 0.59289 0.0
H321 H 0.29025 0.49557 0.54042 0.0
O322 O 0.27102 0.55714 0.61517 0.0
O323 O 0.25512 0.52487 0.5823 0.0
O324 O 0.27383 0.53441 0.48262 0.0
C325 C 0.25889 0.53751 0.62067 0.0
H326 H 0.19334 0.57179 0.48367 0.0
H327 H 0.35785 0.51634 0.59265 0.0
H328 H 0.32009 0.60209 0.43306 0.0
H329 H 0.33097 0.6156 0.58287 0.0
Co330 Co 0.45688 0.27481 0.53621 0.0
C331 C 0.41794 0.23843 0.53045 0.0
C332 C 0.44774 0.23045 0.48456 0.0
C333 C 0.43096 0.21258 0.47974 0.0
N334 N 0.43956 0.24667 0.51613 0.0
N335 N 0.41225 0.21753 0.50866 0.0
H336 H 0.40697 0.24713 0.55711 0.0
H337 H 0.46488 0.23138 0.46661 0.0
C338 C 0.47861 0.29544 0.4456 0.0
O339 O 0.47676 0.31715 0.46343 0.0
N340 N 0.47504 0.30263 0.5563 0.0
C341 C 0.46738 0.32311 0.57681 0.0
C342 C 0.48686 0.33801 0.58339 0.0
C343 C 0.49903 0.30505 0.55207 0.0
N344 N 0.50671 0.32665 0.56753 0.0
C345 C 0.41298 0.29887 0.55777 0.0
C346 C 0.40974 0.32652 0.47656 0.0
C347 C 0.39656 0.3333 0.51704 0.0
C348 C 0.39682 0.31785 0.55635 0.0
C349 C 0.42516 0.30663 0.47899 0.0
N350 N 0.42877 0.2949 0.52127 0.0
H351 H 0.41364 0.28853 0.59011 0.0
H352 H 0.43438 0.30142 0.4471 0.0
H353 H 0.44906 0.3272 0.58612 0.0
H354 H 0.5104 0.29164 0.53572 0.0
O355 O 0.44915 0.26847 0.60179 0.0
O356 O 0.48142 0.25438 0.56638 0.0
O357 O 0.47099 0.27725 0.46917 0.0
C358 C 0.46888 0.25647 0.60546 0.0
H359 H 0.43248 0.19712 0.4566 0.0
H360 H 0.48639 0.35583 0.59861 0.0
H361 H 0.40919 0.33708 0.44416 0.0
H362 H 0.38568 0.32123 0.58726 0.0
Co363 Co 0.73123 0.45694 0.57804 0.0
C364 C 0.76636 0.41511 0.57474 0.0
C365 C 0.78212 0.4498 0.564 0.0
C366 C 0.80005 0.433 0.56281 0.0
N367 N 0.76094 0.4388 0.57189 0.0
N368 N 0.79019 0.41123 0.56965 0.0
H369 H 0.7536 0.40089 0.5803 0.0
H370 H 0.78437 0.46891 0.55909 0.0
C371 C 0.74195 0.45725 0.47399 0.0
O372 O 0.74743 0.43442 0.4782 0.0
N373 N 0.70259 0.47614 0.58382 0.0
C374 C 0.68223 0.4708 0.60739 0.0
C375 C 0.66623 0.48942 0.60109 0.0
C376 C 0.69889 0.49786 0.56405 0.0
N377 N 0.67675 0.5064 0.57381 0.0
C378 C 0.70819 0.4116 0.5885 0.0
C379 C 0.67551 0.41786 0.51545 0.0
C380 C 0.67169 0.3994 0.54859 0.0
C381 C 0.68896 0.39576 0.58417 0.0
C382 C 0.69521 0.43319 0.5207 0.0
N383 N 0.71113 0.43025 0.55743 0.0
H384 H 0.71967 0.40988 0.6193 0.0
H385 H 0.69608 0.44883 0.49807 0.0
H386 H 0.67922 0.45451 0.62748 0.0
H387 H 0.71208 0.50707 0.54246 0.0
O388 O 0.73038 0.4506 0.64551 0.0
O389 O 0.74893 0.48159 0.61271 0.0
O390 O 0.73531 0.46914 0.51065 0.0
C391 C 0.74294 0.46996 0.65127 0.0
H392 H 0.8189 0.43648 0.55649 0.0
H393 H 0.64837 0.49049 0.61608 0.0
H394 H 0.66237 0.42175 0.48806 0.0
H395 H 0.68687 0.38165 0.61042 0.0
Co396 Co 0.54564 0.27534 1.00607 0.0
C397 C 0.58746 0.24198 0.01195 0.0
C398 C 0.5577 0.23135 0.05595 0.0
C399 C 0.57619 0.21556 0.06342 0.0
N400 N 0.56479 0.24803 0.02421 0.0
N401 N 0.59484 0.22225 0.03592 0.0
H402 H 0.5984 0.252 0.98702 0.0
H403 H 0.54027 0.23079 0.07284 0.0
C404 C 0.52939 0.29469 0.10052 0.0
O405 O 0.53501 0.3162 0.08487 0.0
N406 N 0.52504 0.30218 0.98872 0.0
C407 C 0.52778 0.31944 0.95533 0.0
C408 C 0.50727 0.33328 0.95393 0.0
C409 C 0.50251 0.30522 1.00536 0.0
N410 N 0.49151 0.32438 0.98579 0.0
C411 C 0.58282 0.30892 0.98566 0.0
C412 C 0.5991 0.3161 0.07747 0.0
C413 C 0.60792 0.33066 0.04059 0.0
C414 C 0.60029 0.32616 0.99403 0.0
C415 C 0.58194 0.29841 0.06708 0.0
N416 N 0.57237 0.29661 0.02225 0.0
H417 H 0.57759 0.3058 0.9493 0.0
H418 H 0.57591 0.28673 0.09537 0.0
H419 H 0.54301 0.32162 0.93212 0.0
H420 H 0.49408 0.29327 0.03073 0.0
O421 O 0.55382 0.2707 0.94029 0.0
O422 O 0.52237 0.25405 0.97491 0.0
O423 O 0.53216 0.27632 0.07364 0.0
C424 C 0.53468 0.25779 0.93594 0.0
H425 H 0.5759 0.20009 0.0868 0.0
H426 H 0.50424 0.34871 0.93126 0.0
H427 H 0.60525 0.3185 0.11378 0.0
H428 H 0.60704 0.33658 0.96429 0.0
Co429 Co 0.72828 0.54702 0.05062 0.0
C430 C 0.76301 0.58805 0.05462 0.0
C431 C 0.77187 0.55929 0.10242 0.0
C432 C 0.78858 0.57714 0.10794 0.0
N433 N 0.75557 0.56622 0.06969 0.0
N434 N 0.78299 0.59521 0.07802 0.0
H435 H 0.7543 0.59845 0.02713 0.0
H436 H 0.772 0.54215 0.12043 0.0
C437 C 0.71248 0.5207 0.14149 0.0
O438 O 0.69083 0.51717 0.12443 0.0
N439 N 0.70159 0.52701 0.03148 0.0
C440 C 0.67963 0.53342 0.01581 0.0
C441 C 0.66604 0.51293 0.01008 0.0
C442 C 0.70136 0.50283 0.03313 0.0
N443 N 0.67967 0.49375 0.0217 0.0
C444 C 0.70375 0.59087 0.03274 0.0
C445 C 0.67051 0.58786 0.10526 0.0
C446 C 0.66612 0.6035 0.06704 0.0
C447 C 0.68398 0.60609 0.03244 0.0
C448 C 0.69102 0.57326 0.10481 0.0
N449 N 0.70632 0.57341 0.06665 0.0
H450 H 0.71595 0.59222 1.00317 0.0
H451 H 0.69358 0.56134 0.13426 0.0
H452 H 0.67354 0.55161 0.01035 0.0
H453 H 0.71646 0.49223 0.04519 0.0
O454 O 0.73308 0.55523 0.98482 0.0
O455 O 0.75001 0.52411 0.0198 0.0
O456 O 0.72794 0.53288 0.11779 0.0
C457 C 0.74646 0.53639 0.9808 0.0
H458 H 0.80413 0.57656 0.13107 0.0
H459 H 0.64724 0.51235 1.00052 0.0
H460 H 0.65756 0.58576 0.13373 0.0
H461 H 0.68199 0.61876 1.00339 0.0
Co462 Co 0.45226 0.72523 1.00425 0.0
C463 C 0.41144 0.75984 0.00799 0.0
C464 C 0.44509 0.77486 0.03084 0.0
C465 C 0.42805 0.79263 0.03188 0.0
N466 N 0.43476 0.75442 0.01565 0.0
N467 N 0.407 0.78317 0.01759 0.0
H468 H 0.39822 0.7473 0.9947 0.0
H469 H 0.46387 0.77675 0.03983 0.0
C470 C 0.47031 0.70999 0.10036 0.0
O471 O 0.46547 0.68774 0.08821 0.0
N472 N 0.47119 0.69652 0.99292 0.0
C473 C 0.46516 0.67506 0.97416 0.0
C474 C 0.48479 0.66005 0.97662 0.0
C475 C 0.49461 0.6945 1.00452 0.0
N476 N 0.50321 0.6723 0.99609 0.0
C477 C 0.41172 0.69485 0.98919 0.0
C478 C 0.39974 0.68725 0.08346 0.0
C479 C 0.38907 0.67302 0.04813 0.0
C480 C 0.39428 0.67794 1.0004 0.0
C481 C 0.41672 0.70462 0.07034 0.0
N482 N 0.42432 0.70639 0.02408 0.0
H483 H 0.41611 0.69733 0.95211 0.0
H484 H 0.42418 0.71594 0.09773 0.0
H485 H 0.44794 0.67021 0.95974 0.0
H486 H 0.50476 0.70872 0.02132 0.0
O487 O 0.44508 0.72719 0.93722 0.0
O488 O 0.47695 0.7436 0.97084 0.0
O489 O 0.46549 0.72723 0.07163 0.0
C490 C 0.4648 0.73922 0.93208 0.0
H491 H 0.43082 0.8111 0.04248 0.0
H492 H 0.48542 0.64153 0.96511 0.0
H493 H 0.39541 0.6846 0.12073 0.0
H494 H 0.38617 0.66765 0.97187 0.0
Co495 Co 0.27114 0.45715 0.0237 0.0
C496 C 0.23567 0.41561 0.02581 0.0
C497 C 0.22173 0.4495 0.04903 0.0
C498 C 0.20383 0.43281 0.05249 0.0
N499 N 0.24182 0.43887 0.03276 0.0
N500 N 0.21245 0.41146 0.03768 0.0
H501 H 0.24749 0.40203 0.01198 0.0
H502 H 0.22033 0.46826 0.05848 0.0
C503 C 0.2627 0.45789 0.12838 0.0
O504 O 0.25832 0.43478 0.12514 0.0
N505 N 0.29927 0.47677 0.01555 0.0
C506 C 0.31982 0.47162 0.99257 0.0
C507 C 0.33493 0.49114 0.99641 0.0
C508 C 0.30194 0.49917 0.03257 0.0
N509 N 0.32363 0.50844 0.02166 0.0
C510 C 0.29483 0.41201 0.01363 0.0
C511 C 0.32795 0.41905 0.08554 0.0
C512 C 0.33171 0.40033 0.05301 0.0
C513 C 0.31433 0.39643 0.01775 0.0
C514 C 0.30824 0.43433 0.08003 0.0
N515 N 0.29196 0.43089 0.0441 0.0
H516 H 0.28334 0.41008 0.98295 0.0
H517 H 0.30756 0.45018 0.10199 0.0
H518 H 0.32359 0.45487 0.9746 0.0
H519 H 0.28801 0.50862 0.05174 0.0
O520 O 0.27108 0.45021 0.95655 0.0
O521 O 0.25254 0.48123 0.98912 0.0
O522 O 0.26797 0.46987 0.0909 0.0
C523 C 0.25837 0.46947 0.95062 0.0
H524 H 0.18592 0.43619 0.06573 0.0
H525 H 0.3529 0.49235 0.98203 0.0
H526 H 0.34092 0.42285 0.11329 0.0
H527 H 0.31674 0.38269 0.99088 0.0
C528 C 0.13045 0.2994 0.98249 0.0
C529 C 0.11946 0.29071 0.02391 0.0
C530 C 0.14948 0.31577 0.98499 0.0
C531 C 0.15728 0.32408 0.03009 0.0
C532 C 0.14747 0.31388 0.07213 0.0
C533 C 0.12873 0.29709 0.06849 0.0
C534 C 0.15971 0.32576 0.93926 0.0
C535 C 0.1551 0.32237 0.1209 0.0
C536 C 0.21064 0.3669 0.03637 0.0
C537 C 0.19906 0.38928 0.03505 0.0
C538 C 0.1974 0.34538 0.03504 0.0
C539 C 0.17202 0.34631 0.03284 0.0
C540 C 0.1603 0.36882 0.03151 0.0
C541 C 0.17392 0.3899 0.0321 0.0
C542 C 0.21049 0.32168 0.03585 0.0
C543 C 0.13325 0.37073 0.02914 0.0
H544 H 0.1233 0.2942 0.94807 0.0
H545 H 0.12006 0.29041 0.10043 0.0
H546 H 0.15258 0.3441 0.93329 0.0
H547 H 0.17954 0.32712 0.94146 0.0
H548 H 0.1549 0.31453 0.90797 0.0
H549 H 0.14892 0.31003 0.14949 0.0
H550 H 0.17489 0.32409 0.12303 0.0
H551 H 0.14732 0.34038 0.12764 0.0
H552 H 0.23001 0.36616 0.03901 0.0
H553 H 0.16472 0.40695 0.0298 0.0
H554 H 0.20592 0.31116 1.00353 0.0
H555 H 0.20469 0.31097 0.06713 0.0
H556 H 0.23028 0.32399 0.0374 0.0
H557 H 0.12663 0.36258 0.99555 0.0
H558 H 0.12691 0.38961 0.03065 0.0
H559 H 0.12502 0.36069 0.05914 0.0
C560 C 0.67276 0.11035 0.02766 0.0
C561 C 0.69791 0.11142 0.0262 0.0
C562 C 0.65874 0.1312 0.0269 0.0
C563 C 0.67005 0.15392 0.02538 0.0
C564 C 0.69542 0.15529 0.02415 0.0
C565 C 0.70908 0.13401 0.02445 0.0
C566 C 0.63172 0.12884 0.0284 0.0
C567 C 0.70809 0.1792 0.02292 0.0
C568 C 0.62651 0.20287 0.98831 0.0
C569 C 0.61727 0.20963 0.0327 0.0
C570 C 0.6452 0.18595 0.98517 0.0
C571 C 0.65494 0.17595 0.0275 0.0
C572 C 0.64708 0.18451 0.07236 0.0
C573 C 0.62819 0.20108 0.07436 0.0
C574 C 0.65298 0.17726 0.93666 0.0
C575 C 0.65717 0.17469 0.11838 0.0
H576 H 0.66388 0.09314 0.03008 0.0
H577 H 0.72845 0.13508 0.02282 0.0
H578 H 0.62469 0.13711 0.06155 0.0
H579 H 0.62357 0.13854 0.99788 0.0
H580 H 0.62573 0.10984 0.0272 0.0
H581 H 0.72791 0.17722 0.02099 0.0
H582 H 0.70193 0.18978 0.99172 0.0
H583 H 0.70352 0.18967 0.05529 0.0
H584 H 0.61793 0.20943 0.95617 0.0
H585 H 0.62111 0.20658 0.10865 0.0
H586 H 0.64539 0.15913 0.93025 0.0
H587 H 0.67279 0.17569 0.93476 0.0
H588 H 0.64673 0.18938 0.90774 0.0
H589 H 0.65031 0.15623 0.12415 0.0
H590 H 0.65199 0.18583 0.14956 0.0
H591 H 0.67703 0.17365 0.1167 0.0
C592 C 0.8009 0.62589 0.02546 0.0
C593 C 0.79685 0.61672 0.07126 0.0
C594 C 0.81762 0.64442 0.01801 0.0
C595 C 0.83031 0.65405 0.05742 0.0
C596 C 0.82488 0.64603 0.10406 0.0
C597 C 0.80831 0.62738 0.11034 0.0
C598 C 0.82295 0.65241 0.96771 0.0
C599 C 0.83774 0.65597 0.14713 0.0
C600 C 0.89474 0.67364 0.03943 0.0
C601 C 0.89285 0.69875 0.0388 0.0
C602 C 0.87447 0.65904 0.04448 0.0
C603 C 0.85158 0.66972 0.04965 0.0
C604 C 0.84942 0.69504 0.04933 0.0
C605 C 0.87011 0.70928 0.04384 0.0
C606 C 0.87763 0.6321 0.04482 0.0
C607 C 0.82532 0.70704 0.05501 0.0
H608 H 0.7921 0.61761 0.99521 0.0
H609 H 0.80484 0.62055 0.14586 0.0
H610 H 0.82376 0.67227 0.96555 0.0
H611 H 0.84077 0.64542 0.9568 0.0
H612 H 0.80931 0.64581 0.94197 0.0
H613 H 0.82921 0.65021 0.18106 0.0
H614 H 0.85662 0.64965 0.14711 0.0
H615 H 0.83809 0.67586 0.14594 0.0
H616 H 0.9122 0.66527 0.03662 0.0
H617 H 0.86843 0.72863 0.04292 0.0
H618 H 0.86621 0.6238 0.01694 0.0
H619 H 0.87182 0.62471 0.07969 0.0
H620 H 0.89654 0.62664 0.0385 0.0
H621 H 0.81288 0.70082 0.02671 0.0
H622 H 0.82661 0.72691 0.05326 0.0
H623 H 0.81727 0.70193 0.08973 0.0
C624 C 0.31759 0.88043 0.08455 0.0
C625 C 0.29831 0.88586 0.05449 0.0
C626 C 0.33166 0.85997 0.07709 0.0
C627 C 0.32657 0.84477 0.03793 0.0
C628 C 0.30615 0.84935 0.00918 0.0
C629 C 0.2921 0.86986 0.01805 0.0
C630 C 0.35298 0.8556 0.10922 0.0
C631 C 0.30017 0.83366 0.96704 0.0
C632 C 0.38449 0.81854 0.99192 0.0
C633 C 0.38479 0.79608 0.01414 0.0
C634 C 0.36459 0.83375 0.99593 0.0
C635 C 0.34468 0.82646 0.02378 0.0
C636 C 0.34422 0.80305 0.04357 0.0
C637 C 0.36432 0.78799 0.0382 0.0
C638 C 0.36574 0.85835 0.97343 0.0
C639 C 0.3234 0.79462 0.07356 0.0
H640 H 0.32214 0.89278 0.11299 0.0
H641 H 0.27722 0.87422 0.9947 0.0
H642 H 0.35343 0.83662 0.12112 0.0
H643 H 0.36979 0.85912 0.0892 0.0
H644 H 0.35274 0.86735 0.1412 0.0
H645 H 0.28168 0.83697 0.95372 0.0
H646 H 0.31296 0.83744 0.93767 0.0
H647 H 0.30199 0.8144 0.97639 0.0
H648 H 0.40035 0.82458 0.97306 0.0
H649 H 0.36474 0.77062 0.05556 0.0
H650 H 0.36804 0.87209 1.00168 0.0
H651 H 0.34878 0.86243 0.95435 0.0
H652 H 0.3809 0.86 0.94793 0.0
H653 H 0.32428 0.80337 0.10904 0.0
H654 H 0.32371 0.77487 0.07889 0.0
H655 H 0.30606 0.79976 0.05701 0.0
C656 C 0.13249 0.70823 0.5033 0.0
C657 C 0.12179 0.71262 0.54757 0.0
C658 C 0.1517 0.69197 0.49927 0.0
C659 C 0.16041 0.68016 0.54062 0.0
C660 C 0.15113 0.68645 0.58588 0.0
C661 C 0.13182 0.70248 0.58871 0.0
C662 C 0.16108 0.68578 0.45035 0.0
C663 C 0.16004 0.6746 0.63096 0.0
C664 C 0.1782 0.61489 0.52901 0.0
C665 C 0.20334 0.61591 0.5304 0.0
C666 C 0.16423 0.6357 0.53152 0.0
C667 C 0.17559 0.65829 0.53606 0.0
C668 C 0.20096 0.65957 0.53803 0.0
C669 C 0.21458 0.63831 0.53518 0.0
C670 C 0.13721 0.63341 0.52967 0.0
C671 C 0.21365 0.68334 0.5431 0.0
H672 H 0.12467 0.71606 0.47151 0.0
H673 H 0.12368 0.70621 0.62301 0.0
H674 H 0.18093 0.6844 0.45063 0.0
H675 H 0.15387 0.66805 0.43944 0.0
H676 H 0.15563 0.69928 0.42326 0.0
H677 H 0.15399 0.68431 0.66339 0.0
H678 H 0.15309 0.65597 0.63272 0.0
H679 H 0.17991 0.67361 0.63122 0.0
H680 H 0.16933 0.59767 0.52644 0.0
H681 H 0.23399 0.63926 0.53593 0.0
H682 H 0.12992 0.64445 0.50008 0.0
H683 H 0.12926 0.64023 0.5633 0.0
H684 H 0.13126 0.61457 0.52451 0.0
H685 H 0.20879 0.69528 0.51295 0.0
H686 H 0.23348 0.6813 0.54403 0.0
H687 H 0.20777 0.6924 0.57631 0.0
C688 C 0.39273 0.17786 0.50916 0.0
C689 C 0.3913 0.20275 0.51594 0.0
C690 C 0.37271 0.16306 0.5159 0.0
C691 C 0.35058 0.17332 0.52996 0.0
C692 C 0.34887 0.19845 0.53656 0.0
C693 C 0.36929 0.21289 0.52958 0.0
C694 C 0.37542 0.13631 0.5089 0.0
C695 C 0.32556 0.21001 0.55143 0.0
C696 C 0.29814 0.13085 0.51124 0.0
C697 C 0.29727 0.11929 0.55558 0.0
C698 C 0.31434 0.14977 0.50308 0.0
C699 C 0.32986 0.15726 0.54027 0.0
C700 C 0.32766 0.14684 0.58608 0.0
C701 C 0.31142 0.12799 0.5931 0.0
C702 C 0.31605 0.1605 0.4538 0.0
C703 C 0.34369 0.15437 0.62686 0.0
H704 H 0.40971 0.16979 0.49949 0.0
H705 H 0.36799 0.23212 0.53436 0.0
H706 H 0.37198 0.12685 0.54304 0.0
H707 H 0.36203 0.12976 0.48269 0.0
H708 H 0.39362 0.1313 0.49614 0.0
H709 H 0.3269 0.22988 0.553 0.0
H710 H 0.31108 0.20509 0.52611 0.0
H711 H 0.32015 0.20327 0.58707 0.0
H712 H 0.28724 0.12413 0.48217 0.0
H713 H 0.31042 0.11937 0.62768 0.0
H714 H 0.33269 0.15406 0.43626 0.0
H715 H 0.31712 0.18035 0.45576 0.0
H716 H 0.3005 0.15545 0.43114 0.0
H717 H 0.3623 0.14821 0.61988 0.0
H718 H 0.33771 0.14668 0.66143 0.0
H719 H 0.34417 0.17419 0.63002 0.0
C720 C 0.82626 0.38792 0.58916 0.0
C721 C 0.80305 0.38881 0.57008 0.0
C722 C 0.84059 0.36743 0.58428 0.0
C723 C 0.83155 0.34727 0.55941 0.0
C724 C 0.80756 0.34747 0.54256 0.0
C725 C 0.79352 0.36829 0.54824 0.0
C726 C 0.86595 0.36797 0.60333 0.0
C727 C 0.79724 0.32633 0.51605 0.0
C728 C 0.8826 0.31498 0.49868 0.0
C729 C 0.88787 0.29686 0.53157 0.0
C730 C 0.86289 0.33022 0.50523 0.0
C731 C 0.84838 0.32756 0.54633 0.0
C732 C 0.85266 0.30818 0.57802 0.0
C733 C 0.87238 0.29289 0.57004 0.0
C734 C 0.85882 0.35035 0.47006 0.0
C735 C 0.83768 0.30475 0.62227 0.0
H736 H 0.83346 0.40361 0.60688 0.0
H737 H 0.77558 0.36897 0.53339 0.0
H738 H 0.86963 0.35169 0.6249 0.0
H739 H 0.87882 0.36807 0.57314 0.0
H740 H 0.86942 0.38404 0.6257 0.0
H741 H 0.77745 0.32769 0.51219 0.0
H742 H 0.8053 0.32545 0.47992 0.0
H743 H 0.80166 0.30929 0.53455 0.0
H744 H 0.89464 0.31784 0.46887 0.0
H745 H 0.87667 0.27893 0.59557 0.0
H746 H 0.86389 0.36767 0.48672 0.0
H747 H 0.83958 0.3515 0.46017 0.0
H748 H 0.86959 0.34802 0.43706 0.0
H749 H 0.84269 0.31852 0.64903 0.0
H750 H 0.84045 0.28675 0.6384 0.0
H751 H 0.81834 0.30711 0.6142 0.0
C752 C 0.61105 0.82672 0.52161 0.0
C753 C 0.61235 0.80159 0.51975 0.0
C754 C 0.63175 0.84083 0.525 0.0
C755 C 0.65451 0.82963 0.52735 0.0
C756 C 0.65608 0.80427 0.52601 0.0
C757 C 0.63497 0.79053 0.52209 0.0
C758 C 0.62917 0.86783 0.52651 0.0
C759 C 0.68003 0.79172 0.52886 0.0
C760 C 0.70456 0.87338 0.49845 0.0
C761 C 0.70955 0.88257 0.54381 0.0
C762 C 0.68789 0.85466 0.49255 0.0
C763 C 0.67629 0.84484 0.53311 0.0
C764 C 0.68299 0.85266 0.57922 0.0
C765 C 0.6994 0.87156 0.58395 0.0
C766 C 0.6812 0.84691 0.44277 0.0
C767 C 0.67139 0.84248 0.62347 0.0
H768 H 0.59373 0.8355 0.52097 0.0
H769 H 0.6362 0.77116 0.52027 0.0
H770 H 0.63606 0.87477 0.56095 0.0
H771 H 0.64 0.87614 0.49772 0.0
H772 H 0.61024 0.87373 0.52237 0.0
H773 H 0.67824 0.77189 0.52701 0.0
H774 H 0.69178 0.79779 0.49931 0.0
H775 H 0.68917 0.79649 0.56269 0.0
H776 H 0.71235 0.88198 0.46745 0.0
H777 H 0.70356 0.87852 0.61906 0.0
H778 H 0.66329 0.85432 0.4336 0.0
H779 H 0.67993 0.82708 0.44053 0.0
H780 H 0.69434 0.85333 0.41586 0.0
H781 H 0.65272 0.84926 0.62627 0.0
H782 H 0.68122 0.84766 0.65637 0.0
H783 H 0.67051 0.82263 0.62156 0.0
C784 C 0.1513 0.04371 0.06338 0.0
C785 C 0.16912 0.032 0.0369 0.0
C786 C 0.14306 0.06655 0.05035 0.0
C787 C 0.15286 0.07808 0.00976 0.0
C788 C 0.17051 0.06622 0.98222 0.0
C789 C 0.17849 0.04334 0.99619 0.0
C790 C 0.12417 0.07856 0.08074 0.0
C791 C 0.18132 0.07788 0.93866 0.0
C792 C 0.11374 0.12969 0.96876 0.0
C793 C 0.12353 0.14865 0.99516 0.0
C794 C 0.12428 0.10679 0.9699 0.0
C795 C 0.14508 0.10293 0.99794 0.0
C796 C 0.15632 0.12262 0.02067 0.0
C797 C 0.14535 0.14525 0.0191 0.0
C798 C 0.11189 0.08633 0.94472 0.0
C799 C 0.17871 0.11939 0.05029 0.0
H800 H 0.14419 0.03527 0.09513 0.0
H801 H 0.19201 0.03428 0.97509 0.0
H802 H 0.13154 0.09526 0.09649 0.0
H803 H 0.10853 0.08369 0.05846 0.0
H804 H 0.11779 0.06682 0.11014 0.0
H805 H 0.19219 0.06507 0.91741 0.0
H806 H 0.1671 0.0855 0.91547 0.0
H807 H 0.19307 0.09293 0.94984 0.0
H808 H 0.09679 0.13223 0.95043 0.0
H809 H 0.15305 0.15999 0.03915 0.0
H810 H 0.10247 0.07502 0.97137 0.0
H811 H 0.12513 0.07477 0.92618 0.0
H812 H 0.0985 0.09282 0.91834 0.0
H813 H 0.17412 0.10978 0.08374 0.0
H814 H 0.18707 0.13684 0.05982 0.0
H815 H 0.19209 0.10834 0.03096 0.0
C816 C 0.96664 0.14168 0.06158 0.0
C817 C 0.97087 0.16642 0.06521 0.0
C818 C 0.94349 0.1327 0.05329 0.0
C819 C 0.92402 0.14885 0.04855 0.0
C820 C 0.92815 0.17386 0.05179 0.0
C821 C 0.95153 0.18234 0.06006 0.0
C822 C 0.93986 0.1059 0.04992 0.0
C823 C 0.90782 0.19162 0.04723 0.0
C824 C 0.86737 0.12382 0.9913 0.0
C825 C 0.85378 0.11747 0.03149 0.0
C826 C 0.88999 0.13473 0.99619 0.0
C827 C 0.89923 0.13937 0.04234 0.0
C828 C 0.88531 0.13365 0.08293 0.0
C829 C 0.86285 0.12271 0.07703 0.0
C830 C 0.90431 0.14065 0.95204 0.0
C831 C 0.8945 0.13825 0.13277 0.0
H832 H 0.98152 0.12927 0.06459 0.0
H833 H 0.95459 0.20145 0.06324 0.0
H834 H 0.92755 0.09982 0.07856 0.0
H835 H 0.93135 0.10128 0.01536 0.0
H836 H 0.95698 0.09581 0.05313 0.0
H837 H 0.91416 0.2105 0.04866 0.0
H838 H 0.89815 0.18879 0.01312 0.0
H839 H 0.8947 0.18875 0.07643 0.0
H840 H 0.86044 0.12 0.95601 0.0
H841 H 0.85281 0.11742 0.1084 0.0
H842 H 0.92088 0.12961 0.95124 0.0
H843 H 0.90994 0.15974 0.95267 0.0
H844 H 0.89402 0.13729 0.91879 0.0
H845 H 0.91049 0.1269 0.13967 0.0
H846 H 0.8808 0.13429 0.16045 0.0
H847 H 0.90019 0.15723 0.1365 0.0
C848 C 0.88129 0.86588 0.07115 0.0
C849 C 0.88809 0.85657 0.02664 0.0
C850 C 0.87005 0.8883 0.07498 0.0
C851 C 0.86564 0.90197 0.03336 0.0
C852 C 0.87201 0.89256 0.9882 0.0
C853 C 0.88313 0.86995 0.98537 0.0
C854 C 0.86351 0.89767 0.12382 0.0
C855 C 0.86756 0.9066 0.94302 0.0
C856 C 0.82032 0.95263 0.04453 0.0
C857 C 0.83525 0.9725 0.05251 0.0
C858 C 0.82995 0.92965 0.03711 0.0
C859 C 0.85515 0.92645 0.03758 0.0
C860 C 0.87034 0.9465 0.04465 0.0
C861 C 0.8602 0.96926 0.05214 0.0
C862 C 0.81316 0.9087 0.03004 0.0
C863 C 0.8973 0.94386 0.04508 0.0
H864 H 0.88549 0.85601 0.10338 0.0
H865 H 0.88816 0.86284 0.95084 0.0
H866 H 0.87403 0.9141 0.13165 0.0
H867 H 0.84425 0.90269 0.12486 0.0
H868 H 0.867 0.88431 0.1524 0.0
H869 H 0.87268 0.89639 0.91059 0.0
H870 H 0.84832 0.91157 0.94034 0.0
H871 H 0.878 0.92355 0.94385 0.0
H872 H 0.80103 0.9549 0.04532 0.0
H873 H 0.87185 0.98457 0.0575 0.0
H874 H 0.81514 0.89587 0.06006 0.0
H875 H 0.81782 0.89892 0.99688 0.0
H876 H 0.79408 0.91439 0.02795 0.0
H877 H 0.9028 0.93208 0.07507 0.0
H878 H 0.90661 0.96138 0.04888 0.0
H879 H 0.90346 0.93518 0.01167 0.0
C880 C 0.12661 0.90052 0.00846 0.0
C881 C 0.14771 0.88821 0.02084 0.0
C882 C 0.10409 0.88938 0.01149 0.0
C883 C 0.10252 0.8654 0.02781 0.0
C884 C 0.12377 0.85252 0.03842 0.0
C885 C 0.14611 0.86404 0.03463 0.0
C886 C 0.08187 0.90369 0.99948 0.0
C887 C 0.12284 0.82691 0.05588 0.0
C888 C 0.04485 0.84809 0.09114 0.0
C889 C 0.03274 0.83506 0.05587 0.0
C890 C 0.06768 0.85778 0.08258 0.0
C891 C 0.0786 0.85454 0.03744 0.0
C892 C 0.06647 0.84141 1.0016 0.0
C893 C 0.04371 0.83174 0.01133 0.0
C894 C 0.08011 0.8715 0.12189 0.0
C895 C 0.07739 0.83781 0.95287 0.0
H896 H 0.1275 0.91929 0.99853 0.0
H897 H 0.16231 0.85428 0.04361 0.0
H898 H 0.07015 0.89343 0.97487 0.0
H899 H 0.07143 0.9071 0.03246 0.0
H900 H 0.08625 0.92122 0.98274 0.0
H901 H 0.14099 0.81881 0.05905 0.0
H902 H 0.11406 0.8263 0.09136 0.0
H903 H 0.11192 0.81576 0.03136 0.0
H904 H 0.0366 0.8504 0.12579 0.0
H905 H 0.0343 0.82191 0.98376 0.0
H906 H 0.08355 0.89021 0.11023 0.0
H907 H 0.09777 0.86319 0.12981 0.0
H908 H 0.06938 0.87198 0.15525 0.0
H909 H 0.08046 0.85547 0.93563 0.0
H910 H 0.06579 0.82681 0.92922 0.0
H911 H 0.09511 0.8289 0.95619 0.0
C912 C 0.18125 0.9584 0.5707 0.0
C913 C 0.1716 0.97134 0.53217 0.0
C914 C 0.17331 0.93509 0.58137 0.0
C915 C 0.1552 0.92451 0.553 0.0
C916 C 0.14529 0.93752 0.51428 0.0
C917 C 0.15364 0.96073 0.50431 0.0
C918 C 0.18431 0.9218 0.62291 0.0
C919 C 0.12589 0.92687 0.48317 0.0
C920 C 0.14586 0.85759 0.54005 0.0
C921 C 0.12473 0.85418 0.56628 0.0
C922 C 0.15705 0.88011 0.53823 0.0
C923 C 0.14668 0.89969 0.56287 0.0
C924 C 0.12641 0.89587 0.59241 0.0
C925 C 0.11571 0.87306 0.59392 0.0
C926 C 0.17888 0.88331 0.50702 0.0
C927 C 0.11482 0.91627 0.61925 0.0
H928 H 0.19478 0.96661 0.59307 0.0
H929 H 0.14627 0.97048 0.47429 0.0
H930 H 0.17015 0.91661 0.64872 0.0
H931 H 0.19285 0.905 0.61017 0.0
H932 H 0.19802 0.93269 0.64183 0.0
H933 H 0.1197 0.93954 0.45514 0.0
H934 H 0.13264 0.91036 0.46563 0.0
H935 H 0.11024 0.92167 0.50534 0.0
H936 H 0.1529 0.84292 0.51886 0.0
H937 H 0.09924 0.8705 0.61384 0.0
H938 H 0.19294 0.89366 0.52602 0.0
H939 H 0.17387 0.89366 0.47469 0.0
H940 H 0.18658 0.86585 0.49558 0.0
H941 H 0.12853 0.92709 0.63818 0.0
H942 H 0.10141 0.90978 0.64557 0.0
H943 H 0.1056 0.92833 0.59361 0.0
C944 C 0.04499 0.14893 0.52218 0.0
C945 C 0.03315 0.1665 0.5491 0.0
C946 C 0.06808 0.14106 0.53449 0.0
C947 C 0.07975 0.151 0.57479 0.0
C948 C 0.06778 0.1684 0.60274 0.0
C949 C 0.04463 0.17597 0.58955 0.0
C950 C 0.08021 0.12243 0.50367 0.0
C951 C 0.07958 0.17933 0.64602 0.0
C952 C 0.13251 0.1132 0.61569 0.0
C953 C 0.15126 0.1235 0.58943 0.0
C954 C 0.10928 0.12301 0.61419 0.0
C955 C 0.10484 0.14363 0.58596 0.0
C956 C 0.12423 0.15532 0.56304 0.0
C957 C 0.1472 0.14506 0.56494 0.0
C958 C 0.08916 0.11009 0.63942 0.0
C959 C 0.12039 0.17753 0.53315 0.0
H960 H 0.03644 0.14172 0.49063 0.0
H961 H 0.0355 0.18927 0.61103 0.0
H962 H 0.09665 0.13014 0.48744 0.0
H963 H 0.0858 0.10688 0.52573 0.0
H964 H 0.06836 0.11587 0.47461 0.0
H965 H 0.06713 0.19106 0.66631 0.0
H966 H 0.08633 0.16506 0.67014 0.0
H967 H 0.09528 0.19017 0.63478 0.0
H968 H 0.13554 0.09642 0.63436 0.0
H969 H 0.16175 0.15314 0.54491 0.0
H970 H 0.07805 0.10044 0.61278 0.0
H971 H 0.07729 0.123 0.65808 0.0
H972 H 0.096 0.09682 0.66571 0.0
H973 H 0.11075 0.17262 0.49994 0.0
H974 H 0.13761 0.18625 0.52321 0.0
H975 H 0.10912 0.19073 0.55249 0.0
C976 C 0.84549 0.04559 0.47493 0.0
C977 C 0.83229 0.03268 0.50879 0.0
C978 C 0.8553 0.06811 0.48595 0.0
C979 C 0.85205 0.07782 0.53218 0.0
C980 C 0.8386 0.06492 0.56648 0.0
C981 C 0.82878 0.04255 0.55428 0.0
C982 C 0.86934 0.0814 0.44823 0.0
C983 C 0.83501 0.07449 0.61632 0.0
C984 C 0.89887 0.12387 0.5678 0.0
C985 C 0.88704 0.14555 0.55781 0.0
C986 C 0.8873 0.10172 0.56169 0.0
C987 C 0.86338 0.10117 0.54473 0.0
C988 C 0.85097 0.12296 0.53663 0.0
C989 C 0.86291 0.14488 0.54344 0.0
C990 C 0.90111 0.07889 0.57114 0.0
C991 C 0.82543 0.12311 0.51867 0.0
H992 H 0.84803 0.03808 0.43968 0.0
H993 H 0.81892 0.03244 0.58082 0.0
H994 H 0.86153 0.09949 0.44256 0.0
H995 H 0.88814 0.08394 0.46026 0.0
H996 H 0.86955 0.07174 0.4136 0.0
H997 H 0.82361 0.0625 0.63843 0.0
H998 H 0.85265 0.0766 0.63418 0.0
H999 H 0.82656 0.0925 0.61492 0.0
H1000 H 0.91759 0.12409 0.57819 0.0
H1001 H 0.85353 0.16153 0.53628 0.0
H1002 H 0.9044 0.0694 0.537 0.0
H1003 H 0.89052 0.06666 0.5942 0.0
H1004 H 0.91868 0.08237 0.58854 0.0
H1005 H 0.82481 0.11543 0.4822 0.0
H1006 H 0.81772 0.14148 0.51754 0.0
H1007 H 0.81394 0.1117 0.54166 0.0
C1008 C 0.95801 0.8501 0.49072 0.0
C1009 C 0.96983 0.83292 0.51865 0.0
C1010 C 0.93511 0.8585 0.50316 0.0
C1011 C 0.92365 0.84943 0.54451 0.0
C1012 C 0.93547 0.83211 0.57299 0.0
C1013 C 0.95843 0.82411 0.55979 0.0
C1014 C 0.92314 0.87704 0.47185 0.0
C1015 C 0.92385 0.82201 0.61729 0.0
C1016 C 0.87321 0.88948 0.58824 0.0
C1017 C 0.85357 0.8797 0.56387 0.0
C1018 C 0.89603 0.87888 0.58493 0.0
C1019 C 0.8991 0.85793 0.55695 0.0
C1020 C 0.87884 0.84685 0.53592 0.0
C1021 C 0.85633 0.85797 0.53939 0.0
C1022 C 0.91715 0.89126 0.60793 0.0
C1023 C 0.88123 0.82429 0.50656 0.0
H1024 H 0.96657 0.85683 0.45875 0.0
H1025 H 0.9676 0.81121 0.58221 0.0
H1026 H 0.90615 0.86973 0.45725 0.0
H1027 H 0.91851 0.89314 0.49322 0.0
H1028 H 0.93471 0.88269 0.44161 0.0
H1029 H 0.93563 0.80899 0.63609 0.0
H1030 H 0.91925 0.83673 0.64226 0.0
H1031 H 0.90683 0.81288 0.60772 0.0
H1032 H 0.87113 0.90642 0.60677 0.0
H1033 H 0.84109 0.85038 0.52066 0.0
H1034 H 0.92815 0.90004 0.57994 0.0
H1035 H 0.9288 0.87811 0.62651 0.0
H1036 H 0.91139 0.90517 0.63388 0.0
H1037 H 0.89034 0.82857 0.47242 0.0
H1038 H 0.86351 0.81615 0.49835 0.0
H1039 H 0.89241 0.81083 0.52545 0.0
C1040 C 0.64175 0.53166 0.55347 0.0
C1041 C 0.66664 0.52905 0.55884 0.0
C1042 C 0.63159 0.55385 0.54096 0.0
C1043 C 0.64666 0.57399 0.5338 0.0
C1044 C 0.67185 0.57132 0.53778 0.0
C1045 C 0.68153 0.5489 0.5502 0.0
C1046 C 0.60465 0.55591 0.53677 0.0
C1047 C 0.68853 0.59236 0.53073 0.0
C1048 C 0.62027 0.62955 0.47408 0.0
C1049 C 0.61419 0.64365 0.51373 0.0
C1050 C 0.63111 0.60691 0.47988 0.0
C1051 C 0.63596 0.59821 0.52638 0.0
C1052 C 0.63009 0.61246 0.56641 0.0
C1053 C 0.6192 0.63486 0.55962 0.0
C1054 C 0.6371 0.59218 0.43635 0.0
C1055 C 0.6349 0.60386 0.61663 0.0
H1056 H 0.63017 0.51634 0.55917 0.0
H1057 H 0.70074 0.54713 0.55465 0.0
H1058 H 0.5977 0.56787 0.56519 0.0
H1059 H 0.59971 0.56409 0.50206 0.0
H1060 H 0.59558 0.53823 0.53992 0.0
H1061 H 0.7077 0.58691 0.53114 0.0
H1062 H 0.68464 0.60144 0.49637 0.0
H1063 H 0.68559 0.6057 0.55949 0.0
H1064 H 0.61654 0.63621 0.43853 0.0
H1065 H 0.614 0.64524 0.5906 0.0
H1066 H 0.62701 0.57503 0.43726 0.0
H1067 H 0.65648 0.58761 0.43624 0.0
H1068 H 0.63272 0.60172 0.40266 0.0
H1069 H 0.6245 0.58728 0.62377 0.0
H1070 H 0.63003 0.61748 0.64386 0.0
H1071 H 0.65418 0.59934 0.62088 0.0
C1072 C 0.35543 0.64591 0.52012 0.0
C1073 C 0.35106 0.62414 0.49668 0.0
C1074 C 0.37847 0.65604 0.52084 0.0
C1075 C 0.39763 0.64397 0.49796 0.0
C1076 C 0.39293 0.62293 0.47125 0.0
C1077 C 0.36963 0.6133 0.47077 0.0
C1078 C 0.38261 0.67874 0.54901 0.0
C1079 C 0.41283 0.60949 0.44638 0.0
C1080 C 0.45755 0.67619 0.48637 0.0
C1081 C 0.46991 0.66781 0.52679 0.0
C1082 C 0.43412 0.66844 0.47609 0.0
C1083 C 0.42281 0.65176 0.50675 0.0
C1084 C 0.43534 0.64285 0.547 0.0
C1085 C 0.45867 0.65102 0.55658 0.0
C1086 C 0.42137 0.67835 0.43284 0.0
C1087 C 0.42395 0.62494 0.58051 0.0
H1088 H 0.34103 0.65438 0.53993 0.0
H1089 H 0.36638 0.59633 0.45304 0.0
H1090 H 0.39283 0.67444 0.58189 0.0
H1091 H 0.39347 0.69167 0.52808 0.0
H1092 H 0.36551 0.68752 0.55945 0.0
H1093 H 0.40579 0.59549 0.42191 0.0
H1094 H 0.42431 0.62199 0.42573 0.0
H1095 H 0.4244 0.60067 0.47341 0.0
H1096 H 0.46619 0.68881 0.46255 0.0
H1097 H 0.46788 0.64462 0.58809 0.0
H1098 H 0.40519 0.68845 0.44419 0.0
H1099 H 0.41519 0.66349 0.40961 0.0
H1100 H 0.43299 0.6905 0.41156 0.0
H1101 H 0.40781 0.63296 0.59729 0.0
H1102 H 0.43641 0.61909 0.60918 0.0
H1103 H 0.41798 0.60887 0.5604 0.0
C1104 C 0.35928 0.47093 0.53885 0.0
C1105 C 0.33567 0.47407 0.55491 0.0
C1106 C 0.36824 0.44801 0.52834 0.0
C1107 C 0.35332 0.42769 0.53467 0.0
C1108 C 0.32932 0.43079 0.5501 0.0
C1109 C 0.32075 0.45398 0.55975 0.0
C1110 C 0.39384 0.44549 0.51145 0.0
C1111 C 0.31298 0.40957 0.55802 0.0
C1112 C 0.37302 0.36785 0.48161 0.0
C1113 C 0.38448 0.35711 0.52078 0.0
C1114 C 0.3626 0.3908 0.4855 0.0
C1115 C 0.36355 0.40315 0.52961 0.0
C1116 C 0.37489 0.39233 0.56923 0.0
C1117 C 0.38539 0.36967 0.56419 0.0
C1118 C 0.35084 0.40194 0.44236 0.0
C1119 C 0.37627 0.40483 0.61696 0.0
H1120 H 0.37069 0.48647 0.5341 0.0
H1121 H 0.30252 0.45637 0.57231 0.0
H1122 H 0.40456 0.43582 0.53873 0.0
H1123 H 0.39451 0.4347 0.47825 0.0
H1124 H 0.40243 0.46315 0.50461 0.0
H1125 H 0.29436 0.41511 0.56689 0.0
H1126 H 0.3125 0.39808 0.52576 0.0
H1127 H 0.32003 0.39842 0.58769 0.0
H1128 H 0.37212 0.35833 0.448 0.0
H1129 H 0.39483 0.362 0.59435 0.0
H1130 H 0.35996 0.41903 0.43323 0.0
H1131 H 0.33185 0.40632 0.45037 0.0
H1132 H 0.3514 0.38994 0.41078 0.0
H1133 H 0.3868 0.42162 0.61354 0.0
H1134 H 0.38476 0.39346 0.64481 0.0
H1135 H 0.35802 0.40987 0.62916 0.0
C1136 C 0.55065 0.32069 0.56495 0.0
C1137 C 0.53075 0.33613 0.56423 0.0
C1138 C 0.57412 0.32963 0.56077 0.0
C1139 C 0.5778 0.35464 0.55577 0.0
C1140 C 0.5578 0.37031 0.55478 0.0
C1141 C 0.53455 0.36087 0.55906 0.0
C1142 C 0.59499 0.31237 0.56231 0.0
C1143 C 0.56097 0.39709 0.54943 0.0
C1144 C 0.637 0.3822 0.59388 0.0
C1145 C 0.64846 0.38618 0.54999 0.0
C1146 C 0.6143 0.37145 0.59624 0.0
C1147 C 0.60257 0.3646 0.55364 0.0
C1148 C 0.61414 0.36814 0.50922 0.0
C1149 C 0.63696 0.37891 0.50791 0.0
C1150 C 0.60257 0.36805 0.64433 0.0
C1151 C 0.60221 0.36099 0.46304 0.0
H1152 H 0.5479 0.30159 0.56945 0.0
H1153 H 0.5193 0.37288 0.55762 0.0
H1154 H 0.60625 0.31455 0.52999 0.0
H1155 H 0.6065 0.31639 0.59357 0.0
H1156 H 0.58906 0.29337 0.56463 0.0
H1157 H 0.54355 0.40677 0.54822 0.0
H1158 H 0.57165 0.40418 0.57969 0.0
H1159 H 0.57106 0.40112 0.51629 0.0
H1160 H 0.64543 0.38824 0.62656 0.0
H1161 H 0.64573 0.38179 0.4739 0.0
H1162 H 0.59717 0.34905 0.64916 0.0
H1163 H 0.58603 0.37909 0.6464 0.0
H1164 H 0.61459 0.37321 0.67421 0.0
H1165 H 0.59709 0.34177 0.46419 0.0
H1166 H 0.61398 0.36402 0.43166 0.0
H1167 H 0.58546 0.37148 0.45813 0.0
C1168 C 0.68243 0.45435 0.06201 0.0
C1169 C 0.67174 0.46928 0.02762 0.0
C1170 C 0.67429 0.4308 0.06944 0.0
C1171 C 0.65493 0.42196 0.04198 0.0
C1172 C 0.64409 0.4369 0.00719 0.0
C1173 C 0.65264 0.46035 1.00043 0.0
C1174 C 0.6863 0.41544 0.10685 0.0
C1175 C 0.62339 0.42813 0.9771 0.0
C1176 C 0.64358 0.35583 0.02072 0.0
C1177 C 0.62346 0.35174 0.04959 0.0
C1178 C 0.65503 0.37824 0.02017 0.0
C1179 C 0.64599 0.39703 0.04895 0.0
C1180 C 0.6268 0.39244 0.0808 0.0
C1181 C 0.61579 0.36975 0.08087 0.0
C1182 C 0.67569 0.38225 0.98629 0.0
C1183 C 0.61667 0.41197 0.11215 0.0
H1184 H 0.69685 0.46122 0.08397 0.0
H1185 H 0.64444 0.47169 0.97361 0.0
H1186 H 0.673 0.40992 0.13416 0.0
H1187 H 0.69341 0.39881 0.09034 0.0
H1188 H 0.70129 0.42493 0.12492 0.0
H1189 H 0.61678 0.44208 0.952 0.0
H1190 H 0.62899 0.41219 0.95621 0.0
H1191 H 0.60832 0.42252 1.0004 0.0
H1192 H 0.6496 0.34183 0.99669 0.0
H1193 H 0.60009 0.36669 0.10287 0.0
H1194 H 0.69073 0.39141 1.00472 0.0
H1195 H 0.66979 0.39408 0.95667 0.0
H1196 H 0.68242 0.36518 0.97084 0.0
H1197 H 0.63128 0.4216 0.13097 0.0
H1198 H 0.60389 0.40481 0.139 0.0
H1199 H 0.6071 0.42529 0.08969 0.0
C1200 C 0.52931 0.63907 0.02255 0.0
C1201 C 0.5265 0.66317 0.00923 0.0
C1202 C 0.55183 0.62998 0.03583 0.0
C1203 C 0.57208 0.64532 0.03546 0.0
C1204 C 0.5693 0.66976 0.02282 0.0
C1205 C 0.54653 0.67839 0.00996 0.0
C1206 C 0.55403 0.60384 0.04935 0.0
C1207 C 0.59049 0.68661 0.02149 0.0
C1208 C 0.62918 0.62462 0.09811 0.0
C1209 C 0.6423 0.61508 0.05988 0.0
C1210 C 0.60632 0.63474 0.09081 0.0
C1211 C 0.59643 0.63528 0.04425 0.0
C1212 C 0.60964 0.62577 1.00563 0.0
C1213 C 0.63225 0.61568 0.01395 0.0
C1214 C 0.59266 0.64467 0.13286 0.0
C1215 C 0.59975 0.62594 0.95543 0.0
H1216 H 0.51382 0.62735 0.02302 0.0
H1217 H 0.54448 0.69698 0.99943 0.0
H1218 H 0.56543 0.59439 0.02294 0.0
H1219 H 0.56292 0.60207 0.08458 0.0
H1220 H 0.53633 0.59472 0.05091 0.0
H1221 H 0.58506 0.70543 0.01408 0.0
H1222 H 0.60026 0.68608 0.05594 0.0
H1223 H 0.60323 0.68078 0.9934 0.0
H1224 H 0.63682 0.62428 0.13364 0.0
H1225 H 0.64189 0.60776 0.98433 0.0
H1226 H 0.57541 0.63497 0.13697 0.0
H1227 H 0.58828 0.66384 0.12664 0.0
H1228 H 0.60294 0.64314 0.16667 0.0
H1229 H 0.58301 0.61521 0.95389 0.0
H1230 H 0.61265 0.6185 0.92911 0.0
H1231 H 0.59513 0.64453 0.94466 0.0
C1232 C 0.32291 0.54482 0.07233 0.0
C1233 C 0.33234 0.53214 0.03327 0.0
C1234 C 0.33034 0.56835 0.08251 0.0
C1235 C 0.34776 0.57943 0.05317 0.0
C1236 C 0.3578 0.56653 0.01451 0.0
C1237 C 0.34993 0.54312 1.00497 0.0
C1238 C 0.31926 0.5815 0.12407 0.0
C1239 C 0.37654 0.57766 0.98247 0.0
C1240 C 0.35362 0.64643 0.03506 0.0
C1241 C 0.37493 0.65129 0.05978 0.0
C1242 C 0.34344 0.62341 0.03569 0.0
C1243 C 0.35503 0.6048 0.06126 0.0
C1244 C 0.37542 0.61014 0.08949 0.0
C1245 C 0.38509 0.63341 0.08856 0.0
C1246 C 0.32142 0.61861 1.00584 0.0
C1247 C 0.38831 0.59084 0.11728 0.0
H1248 H 0.30967 0.53637 0.09505 0.0
H1249 H 0.35716 0.53365 0.97452 0.0
H1250 H 0.33348 0.5881 0.14845 0.0
H1251 H 0.30931 0.59744 0.11094 0.0
H1252 H 0.3067 0.57001 0.14467 0.0
H1253 H 0.38331 0.56487 0.95524 0.0
H1254 H 0.36886 0.59347 0.96388 0.0
H1255 H 0.39196 0.58407 1.00402 0.0
H1256 H 0.34568 0.66031 0.01299 0.0
H1257 H 0.40171 0.63706 0.10733 0.0
H1258 H 0.30814 0.6079 0.02623 0.0
H1259 H 0.32654 0.60799 0.97397 0.0
H1260 H 0.31271 0.63546 0.99363 0.0
H1261 H 0.37536 0.57942 0.13695 0.0
H1262 H 0.40137 0.59849 0.14306 0.0
H1263 H 0.3982 0.57906 0.09217 0.0
C1264 C 0.45911 0.33117 0.04425 0.0
C1265 C 0.46812 0.33365 0.99777 0.0
C1266 C 0.4367 0.34073 0.05696 0.0
C1267 C 0.42288 0.35297 0.02228 0.0
C1268 C 0.43171 0.35522 0.97512 0.0
C1269 C 0.45426 0.34563 0.9635 0.0
C1270 C 0.42804 0.33816 0.10772 0.0
C1271 C 0.41744 0.36799 0.93699 0.0
C1272 C 0.35585 0.36283 0.03863 0.0
C1273 C 0.355 0.38718 0.05133 0.0
C1274 C 0.37785 0.35121 0.03049 0.0
C1275 C 0.39954 0.36419 0.03544 0.0
C1276 C 0.39887 0.38843 0.05036 0.0
C1277 C 0.37665 0.39965 0.05789 0.0
C1278 C 0.37784 0.32531 0.0148 0.0
C1279 C 0.4216 0.40288 0.05636 0.0
H1280 H 0.46989 0.32225 0.07109 0.0
H1281 H 0.46101 0.34734 0.92745 0.0
H1282 H 0.42611 0.35616 0.12415 0.0
H1283 H 0.4101 0.32956 0.10838 0.0
H1284 H 0.44052 0.32733 0.12994 0.0
H1285 H 0.42648 0.36752 0.90172 0.0
H1286 H 0.39945 0.35965 0.93342 0.0
H1287 H 0.41464 0.387 0.94729 0.0
H1288 H 0.33925 0.35297 0.03403 0.0
H1289 H 0.37628 0.41855 0.06682 0.0
H1290 H 0.38984 0.31452 0.03798 0.0
H1291 H 0.3849 0.324 0.9779 0.0
H1292 H 0.35959 0.31729 0.01565 0.0
H1293 H 0.43444 0.39319 0.07966 0.0
H1294 H 0.41812 0.42087 0.07193 0.0
H1295 H 0.43038 0.4053 0.02119 0.0
C1296 C 0.99704 0.2624 0.39464 0.0
C1297 C 0.98155 0.24309 0.40341 0.0
C1298 C 0.00601 0.26673 0.34847 0.0
C1299 C 0.99989 0.25092 0.31079 0.0
C1300 C 0.98397 0.23162 0.31957 0.0
C1301 C 0.97478 0.22816 0.36555 0.0
C1302 C 0.02236 0.28789 0.34021 0.0
C1303 C 0.97742 0.21395 0.28085 0.0
C1304 C 0.00935 0.26159 0.17806 0.0
C1305 C 0.03028 0.24825 0.16993 0.0
C1306 C 1.00011 0.26427 0.22452 0.0
C1307 C 0.01178 0.25282 0.26332 0.0
C1308 C 0.03357 0.24043 0.25545 0.0
C1309 C 0.04267 0.23857 0.20906 0.0
C1310 C 0.97724 0.27827 0.23171 0.0
C1311 C 0.0464 0.22751 0.29544 0.0
H1312 H 0.00208 0.27413 0.42377 0.0
H1313 H 0.96286 0.21315 0.37219 0.0
H1314 H 0.04085 0.28148 0.33304 0.0
H1315 H 0.01641 0.29818 0.30843 0.0
H1316 H 0.02289 0.30014 0.37142 0.0
H1317 H 0.96434 0.20026 0.29327 0.0
H1318 H 0.9696 0.2235 0.24983 0.0
H1319 H 0.9938 0.20458 0.26824 0.0
H1320 H 0.99976 0.26925 0.14806 0.0
H1321 H 0.05891 0.22827 0.20326 0.0
H1322 H 0.97868 0.29001 0.26352 0.0
H1323 H 0.96216 0.26568 0.23799 0.0
H1324 H 0.9728 0.28951 0.20017 0.0
H1325 H 0.04937 0.23976 0.32599 0.0
H1326 H 0.06401 0.22015 0.28405 0.0
H1327 H 0.03509 0.21246 0.30835 0.0
C1328 C 0.76016 0.9627 0.36194 0.0
C1329 C 0.74962 0.97368 0.40183 0.0
C1330 C 0.7574 0.9722 0.316 0.0
C1331 C 0.74311 0.9929 0.30916 0.0
C1332 C 0.73092 0.00308 0.34873 0.0
C1333 C 0.73463 0.99358 0.39482 0.0
C1334 C 0.7713 0.96105 0.27538 0.0
C1335 C 0.71485 0.02465 0.3427 0.0
C1336 C 0.76465 0.03252 0.20793 0.0
C1337 C 0.75086 0.02437 0.16935 0.0
C1338 C 0.76163 0.02305 0.25385 0.0
C1339 C 0.74381 0.00543 0.26203 0.0
C1340 C 0.72887 0.99805 0.22375 0.0
C1341 C 0.73287 0.00728 0.17756 0.0
C1342 C 0.77851 0.03097 0.29298 0.0
C1343 C 0.70915 0.97992 0.23132 0.0
H1344 H 0.7718 0.9473 0.3668 0.0
H1345 H 0.7263 0.00208 0.42536 0.0
H1346 H 0.7592 0.957 0.24508 0.0
H1347 H 0.785 0.97394 0.26237 0.0
H1348 H 0.78055 0.94423 0.28611 0.0
H1349 H 0.70329 0.02756 0.37443 0.0
H1350 H 0.72598 0.04092 0.33731 0.0
H1351 H 0.70327 0.02256 0.31077 0.0
H1352 H 0.7787 0.04562 0.20187 0.0
H1353 H 0.72203 1.00107 0.14794 0.0
H1354 H 0.7894 0.01546 0.30519 0.0
H1355 H 0.76822 0.03757 0.32414 0.0
H1356 H 0.7909 0.04541 0.28113 0.0
H1357 H 0.71707 0.96186 0.23666 0.0
H1358 H 0.6967 0.97908 0.20041 0.0
H1359 H 0.69871 0.98433 0.26386 0.0
C1360 C 0.96825 0.76344 0.21016 0.0
C1361 C 0.97796 0.75101 0.17118 0.0
C1362 C 0.97758 0.76065 0.25623 0.0
C1363 C 0.99676 0.74446 0.26409 0.0
C1364 C 0.00561 0.73061 0.22547 0.0
C1365 C 0.99637 0.73434 0.17921 0.0
C1366 C 0.96796 0.77632 0.29582 0.0
C1367 C 0.02547 0.71258 0.23264 0.0
C1368 C 0.03838 0.7642 0.3633 0.0
C1369 C 0.02888 0.75227 0.40315 0.0
C1370 C 0.02873 0.76098 0.31765 0.0
C1371 C 0.00945 0.74481 0.31102 0.0
C1372 C 1.00076 0.73146 0.35052 0.0
C1373 C 0.0103 0.73565 0.39639 0.0
C1374 C 0.0382 0.77615 0.27709 0.0
C1375 C 0.9808 0.71343 0.34464 0.0
H1376 H 0.95405 0.77642 0.20436 0.0
H1377 H 0.00382 0.72453 0.14932 0.0
H1378 H 0.96272 0.76522 0.32692 0.0
H1379 H 0.9822 0.78884 0.3079 0.0
H1380 H 0.95216 0.78704 0.28441 0.0
H1381 H 0.02723 0.70027 0.2017 0.0
H1382 H 0.04277 0.7221 0.23744 0.0
H1383 H 0.02223 0.70179 0.26529 0.0
H1384 H 0.0527 0.77715 0.36805 0.0
H1385 H 0.00297 0.72625 0.42693 0.0
H1386 H 0.02385 0.78837 0.26423 0.0
H1387 H 0.04354 0.76464 0.24669 0.0
H1388 H 0.0539 0.78718 0.28778 0.0
H1389 H 0.96351 0.72297 0.33963 0.0
H1390 H 0.97913 0.70152 0.37625 0.0
H1391 H 0.98385 0.70222 0.31252 0.0
C1392 C 0.26404 0.00821 0.41068 0.0
C1393 C 0.25102 0.0294 0.41822 0.0
C1394 C 0.26632 0.99843 0.36456 0.0
C1395 C 0.25483 0.00982 0.32549 0.0
C1396 C 0.24261 0.03177 0.33277 0.0
C1397 C 0.24112 0.04139 0.37879 0.0
C1398 C 0.28011 0.97537 0.358 0.0
C1399 C 0.22968 0.04435 0.29248 0.0
C1400 C 0.26496 0.99494 0.19445 0.0
C1401 C 0.24561 0.97956 0.18525 0.0
C1402 C 0.26914 0.00384 0.2407 0.0
C1403 C 0.25313 0.99779 0.2781 0.0
C1404 C 0.23382 0.98192 0.26896 0.0
C1405 C 0.2305 0.97278 0.22286 0.0
C1406 C 0.2903 0.02015 0.24929 0.0
C1407 C 0.21595 0.97544 0.30737 0.0
H1408 H 0.27182 0.9989 0.4409 0.0
H1409 H 0.23105 0.05781 0.38412 0.0
H1410 H 0.26739 0.96042 0.35153 0.0
H1411 H 0.29206 0.97662 0.32645 0.0
H1412 H 0.29111 0.97089 0.38983 0.0
H1413 H 0.22213 0.06193 0.30353 0.0
H1414 H 0.24201 0.04733 0.26204 0.0
H1415 H 0.21477 0.03287 0.27954 0.0
H1416 H 0.27684 0.99999 0.16554 0.0
H1417 H 0.21546 0.96096 0.21589 0.0
H1418 H 0.30041 0.01422 0.28131 0.0
H1419 H 0.2839 0.03866 0.25621 0.0
H1420 H 0.30272 0.0206 0.21833 0.0
H1421 H 0.22534 0.96785 0.33881 0.0
H1422 H 0.20242 0.96223 0.29487 0.0
H1423 H 0.20641 0.99184 0.3194 0.0
C1424 C 0.9583 0.76695 0.85604 0.0
C1425 C 0.9719 0.77062 0.89755 0.0
C1426 C 0.96833 0.77019 0.81062 0.0
C1427 C 0.99263 0.77721 0.80637 0.0
C1428 C 0.00663 0.78057 0.84805 0.0
C1429 C 0.99609 0.77725 0.89317 0.0
C1430 C 0.95274 0.76652 0.76714 0.0
C1431 C 0.03262 0.78803 0.84498 0.0
C1432 C 0.02194 0.76682 0.68553 0.0
C1433 C 0.02029 0.78965 0.66465 0.0
C1434 C 0.01355 0.76263 0.73207 0.0
C1435 C 0.00305 0.78167 0.7582 0.0
C1436 C 0.00141 0.80476 0.73734 0.0
C1437 C 0.01013 0.80848 0.69094 0.0
C1438 C 0.01571 0.73778 0.7531 0.0
C1439 C 0.99008 0.82547 0.76373 0.0
H1440 H 0.93961 0.76179 0.85891 0.0
H1441 H 0.00673 0.78018 0.925 0.0
H1442 H 0.95148 0.7835 0.74659 0.0
H1443 H 0.96091 0.7529 0.74332 0.0
H1444 H 0.9343 0.7606 0.77651 0.0
H1445 H 0.04128 0.78907 0.88061 0.0
H1446 H 0.04277 0.77513 0.82262 0.0
H1447 H 0.034 0.80586 0.82758 0.0
H1448 H 0.02991 0.75219 0.66562 0.0
H1449 H 0.00868 0.82615 0.67504 0.0
H1450 H 0.99758 0.73046 0.76053 0.0
H1451 H 0.02546 0.73856 0.78756 0.0
H1452 H 0.02527 0.7252 0.72899 0.0
H1453 H 0.971 0.82134 0.77146 0.0
H1454 H 0.99089 0.84248 0.74314 0.0
H1455 H 0.99922 0.8282 0.79845 0.0
C1456 C 0.20171 0.00682 0.70786 0.0
C1457 C 0.21964 0.01778 0.68035 0.0
C1458 C 0.20684 0.99736 0.75315 0.0
C1459 C 0.23044 0.99902 0.77158 0.0
C1460 C 0.24863 0.01008 0.74403 0.0
C1461 C 0.24304 0.01924 0.69867 0.0
C1462 C 0.18697 0.98555 0.78126 0.0
C1463 C 0.27395 0.01239 0.76264 0.0
C1464 C 0.23652 0.99324 0.90617 0.0
C1465 C 0.2431 0.96906 0.91133 0.0
C1466 C 0.23305 0.00343 0.86088 0.0
C1467 C 0.23603 0.98907 0.81967 0.0
C1468 C 0.24335 0.96486 0.82455 0.0
C1469 C 0.24688 0.95518 0.87027 0.0
C1470 C 0.22538 0.02935 0.85732 0.0
C1471 C 0.2467 0.94895 0.7815 0.0
H1472 H 0.18363 0.00549 0.69389 0.0
H1473 H 0.257 0.02777 0.67779 0.0
H1474 H 0.19194 0.96674 0.78976 0.0
H1475 H 0.1844 0.99505 0.81562 0.0
H1476 H 0.16965 0.98548 0.76167 0.0
H1477 H 0.28601 0.02152 0.73685 0.0
H1478 H 0.27394 0.02271 0.79647 0.0
H1479 H 0.28139 0.99438 0.77066 0.0
H1480 H 0.23355 0.00414 0.9376 0.0
H1481 H 0.25196 0.93649 0.87379 0.0
H1482 H 0.2063 0.03025 0.84615 0.0
H1483 H 0.23612 0.03895 0.83 0.0
H1484 H 0.22728 0.03891 0.89187 0.0
H1485 H 0.22934 0.94684 0.76258 0.0
H1486 H 0.25351 0.93086 0.7912 0.0
H1487 H 0.25945 0.95733 0.75611 0.0
C1488 C 0.00564 0.1963 0.88096 0.0
C1489 C 0.01584 0.21448 0.90894 0.0
C1490 C 0.99636 0.20126 0.83543 0.0
C1491 C 0.99744 0.22496 0.81726 0.0
C1492 C 0.00776 0.24338 0.84526 0.0
C1493 C 0.01674 0.23795 0.8908 0.0
C1494 C 0.98535 0.18115 0.80679 0.0
C1495 C 0.00948 0.26881 0.82695 0.0
C1496 C 0.99256 0.23195 0.68269 0.0
C1497 C 0.96831 0.23818 0.67702 0.0
C1498 C 0.00243 0.22815 0.72816 0.0
C1499 C 0.98767 0.23043 0.769 0.0
C1500 C 0.96335 0.23728 0.76361 0.0
C1501 C 0.95399 0.24116 0.71774 0.0
C1502 C 0.02849 0.22102 0.7323 0.0
C1503 C 0.94702 0.23987 0.80626 0.0
H1504 H 0.0048 0.17814 0.89471 0.0
H1505 H 0.0247 0.25211 0.91198 0.0
H1506 H 0.96647 0.18558 0.79781 0.0
H1507 H 0.99518 0.17896 0.77268 0.0
H1508 H 0.98566 0.16377 0.82621 0.0
H1509 H 0.01814 0.28105 0.85304 0.0
H1510 H 0.01997 0.26918 0.79333 0.0
H1511 H 0.9913 0.27578 0.81864 0.0
H1512 H 0.0038 0.22958 0.65151 0.0
H1513 H 0.93524 0.24593 0.7138 0.0
H1514 H 0.02974 0.20204 0.74402 0.0
H1515 H 0.03771 0.23212 0.75952 0.0
H1516 H 0.03817 0.2229 0.69789 0.0
H1517 H 0.94538 0.22236 0.82484 0.0
H1518 H 0.92877 0.2461 0.79618 0.0
H1519 H 0.95477 0.25279 0.83207 0.0
C1520 C 0.80699 0.99505 0.68856 0.0
C1521 C 0.78826 0.98447 0.66254 0.0
C1522 C 0.80319 0.00402 0.73476 0.0
C1523 C 0.78014 0.00225 0.75575 0.0
C1524 C 0.7612 0.99142 0.72983 0.0
C1525 C 0.76546 0.98277 0.6835 0.0
C1526 C 0.8238 0.01568 0.76091 0.0
C1527 C 0.73639 0.98909 0.75094 0.0
C1528 C 0.77571 0.00881 0.8909 0.0
C1529 C 0.76872 0.03289 0.89563 0.0
C1530 C 0.7792 0.99847 0.84563 0.0
C1531 C 0.77567 0.01255 0.80409 0.0
C1532 C 0.76831 0.03674 0.80868 0.0
C1533 C 0.76489 0.04657 0.85425 0.0
C1534 C 0.78696 0.97258 0.84226 0.0
C1535 C 0.7644 0.05241 0.76539 0.0
H1536 H 0.82464 0.99656 0.67261 0.0
H1537 H 0.75091 0.9745 0.66385 0.0
H1538 H 0.81935 0.03466 0.76891 0.0
H1539 H 0.82685 0.00649 0.79549 0.0
H1540 H 0.84074 0.01523 0.74004 0.0
H1541 H 0.72381 0.97954 0.72679 0.0
H1542 H 0.73729 0.97925 0.78528 0.0
H1543 H 0.72898 0.00716 0.75861 0.0
H1544 H 0.77874 0.99808 0.92259 0.0
H1545 H 0.75947 0.06518 0.85736 0.0
H1546 H 0.80473 0.97145 0.82458 0.0
H1547 H 0.77409 0.96234 0.82 0.0
H1548 H 0.78824 0.96386 0.8778 0.0
H1549 H 0.78133 0.0539 0.74478 0.0
H1550 H 0.75829 0.07075 0.77498 0.0
H1551 H 0.75083 0.04416 0.74155 0.0
C1552 C 0.4646 0.73262 0.84447 0.0
C1553 C 0.47372 0.74522 0.88378 0.0
C1554 C 0.4741 0.73587 0.79867 0.0
C1555 C 0.49282 0.75266 0.79153 0.0
C1556 C 0.5012 0.76647 0.8306 0.0
C1557 C 0.49181 0.7623 0.87653 0.0
C1558 C 0.46503 0.72026 0.7585 0.0
C1559 C 0.52061 0.78505 0.82417 0.0
C1560 C 0.53466 0.73582 0.69065 0.0
C1561 C 0.5247 0.74825 0.65186 0.0
C1562 C 0.52506 0.73793 0.73659 0.0
C1563 C 0.50531 0.75338 0.7445 0.0
C1564 C 0.49607 0.76717 0.70609 0.0
C1565 C 0.50566 0.76417 0.65995 0.0
C1566 C 0.53514 0.72241 0.77603 0.0
C1567 C 0.47551 0.78438 0.7134 0.0
H1568 H 0.45068 0.71931 0.84978 0.0
H1569 H 0.49877 0.77223 0.90674 0.0
H1570 H 0.45931 0.73148 0.72789 0.0
H1571 H 0.47971 0.70842 0.74581 0.0
H1572 H 0.44967 0.70883 0.76951 0.0
H1573 H 0.52241 0.7968 0.85594 0.0
H1574 H 0.53806 0.77602 0.81792 0.0
H1575 H 0.51679 0.79638 0.7925 0.0
H1576 H 0.54935 0.72342 0.68481 0.0
H1577 H 0.498 0.77395 0.6302 0.0
H1578 H 0.52128 0.70944 0.788 0.0
H1579 H 0.54006 0.73356 0.80725 0.0
H1580 H 0.55125 0.71219 0.76454 0.0
H1581 H 0.45866 0.77417 0.71887 0.0
H1582 H 0.47304 0.7965 0.68231 0.0
H1583 H 0.47852 0.79542 0.74578 0.0
C1584 C 0.23551 0.49574 0.89321 0.0
C1585 C 0.25322 0.47842 0.90191 0.0
C1586 C 0.23201 0.50509 0.84699 0.0
C1587 C 0.2471 0.49749 0.80918 0.0
C1588 C 0.26462 0.47962 0.81781 0.0
C1589 C 0.26722 0.47012 0.86379 0.0
C1590 C 0.21264 0.52358 0.83892 0.0
C1591 C 0.28157 0.47139 0.77905 0.0
C1592 C 0.23761 0.50918 0.67658 0.0
C1593 C 0.25272 0.52895 0.66922 0.0
C1594 C 0.23413 0.49971 0.72269 0.0
C1595 C 0.24662 0.50981 0.76191 0.0
C1596 C 0.26118 0.5303 0.75473 0.0
C1597 C 0.26377 0.53976 0.70871 0.0
C1598 C 0.21788 0.47831 0.72913 0.0
C1599 C 0.27534 0.54134 0.79509 0.0
H1600 H 0.22452 0.50208 0.92248 0.0
H1601 H 0.28105 0.45681 0.87024 0.0
H1602 H 0.22094 0.5414 0.83286 0.0
H1603 H 0.20207 0.51909 0.80659 0.0
H1604 H 0.20026 0.52496 0.86983 0.0
H1605 H 0.29365 0.45676 0.7912 0.0
H1606 H 0.27132 0.46496 0.74768 0.0
H1607 H 0.29277 0.48671 0.76706 0.0
H1608 H 0.22889 0.50084 0.64628 0.0
H1609 H 0.27553 0.55502 0.70343 0.0
H1610 H 0.2061 0.48083 0.76063 0.0
H1611 H 0.22885 0.46203 0.73561 0.0
H1612 H 0.2065 0.47512 0.69723 0.0
H1613 H 0.26337 0.54563 0.82547 0.0
H1614 H 0.28478 0.55801 0.78411 0.0
H1615 H 0.2889 0.52829 0.8081 0.0
C1616 C 0.53251 0.26673 0.84954 0.0
C1617 C 0.52596 0.25165 0.88746 0.0
C1618 C 0.52354 0.26324 0.80343 0.0
C1619 C 0.50813 0.2436 0.79417 0.0
C1620 C 0.50236 0.22751 0.83178 0.0
C1621 C 0.51093 0.23202 0.87837 0.0
C1622 C 0.52955 0.28144 0.76525 0.0
C1623 C 0.48672 0.20588 0.82304 0.0
C1624 C 0.4648 0.25704 0.69376 0.0
C1625 C 0.47745 0.24899 0.65348 0.0
C1626 C 0.47393 0.2541 0.73994 0.0
C1627 C 0.49603 0.24208 0.74663 0.0
C1628 C 0.50799 0.23214 0.70652 0.0
C1629 C 0.49876 0.23606 0.66023 0.0
C1630 C 0.46082 0.26569 0.7811 0.0
C1631 C 0.53113 0.21841 0.71226 0.0
H1632 H 0.54394 0.2821 0.85631 0.0
H1633 H 0.50596 0.22022 0.90746 0.0
H1634 H 0.53777 0.27243 0.73404 0.0
H1635 H 0.51287 0.29034 0.75275 0.0
H1636 H 0.54212 0.29548 0.77814 0.0
H1637 H 0.48763 0.19288 0.85304 0.0
H1638 H 0.4678 0.21162 0.81869 0.0
H1639 H 0.49216 0.19666 0.78967 0.0
H1640 H 0.44824 0.26699 0.68919 0.0
H1641 H 0.50856 0.22958 0.62944 0.0
H1642 H 0.4718 0.28061 0.79558 0.0
H1643 H 0.45805 0.25261 0.81035 0.0
H1644 H 0.44307 0.273 0.77038 0.0
H1645 H 0.54608 0.23115 0.71853 0.0
H1646 H 0.5354 0.20767 0.68001 0.0
H1647 H 0.53016 0.20624 0.74355 0.0
C1648 C 0.73321 0.47254 0.73747 0.0
C1649 C 0.74848 0.47877 0.69976 0.0
C1650 C 0.73689 0.48156 0.78352 0.0
C1651 C 0.75682 0.49665 0.79261 0.0
C1652 C 0.77303 0.50206 0.75512 0.0
C1653 C 0.76841 0.49341 0.7088 0.0
C1654 C 0.71872 0.47587 0.82188 0.0
C1655 C 0.79491 0.5174 0.76371 0.0
C1656 C 0.74519 0.54058 0.89262 0.0
C1657 C 0.75361 0.52797 0.93266 0.0
C1658 C 0.7473 0.53114 0.84657 0.0
C1659 C 0.75879 0.50876 0.83988 0.0
C1660 C 0.76916 0.49686 0.87962 0.0
C1661 C 0.76615 0.50644 0.92577 0.0
C1662 C 0.73547 0.54426 0.80565 0.0
C1663 C 0.78231 0.47339 0.87371 0.0
H1664 H 0.71772 0.46129 0.73058 0.0
H1665 H 0.7804 0.49801 0.67978 0.0
H1666 H 0.72772 0.46772 0.85321 0.0
H1667 H 0.70999 0.49268 0.8341 0.0
H1668 H 0.70455 0.46336 0.80926 0.0
H1669 H 0.80755 0.51687 0.73312 0.0
H1670 H 0.78938 0.53628 0.76953 0.0
H1671 H 0.80446 0.51136 0.79631 0.0
H1672 H 0.7356 0.55732 0.89738 0.0
H1673 H 0.77285 0.49666 0.95643 0.0
H1674 H 0.72018 0.53348 0.79207 0.0
H1675 H 0.74825 0.54664 0.77576 0.0
H1676 H 0.72862 0.56219 0.8163 0.0
H1677 H 0.76917 0.45874 0.86787 0.0
H1678 H 0.79319 0.4689 0.90569 0.0
H1679 H 0.79427 0.47403 0.84209 0.0
C1680 C 0.50301 0.27713 0.16399 0.0
C1681 C 0.52234 0.29178 0.15099 0.0
C1682 C 0.49533 0.27583 0.21181 0.0
C1683 C 0.50786 0.28881 0.2475 0.0
C1684 C 0.52808 0.30277 0.2345 0.0
C1685 C 0.53477 0.30444 0.18635 0.0
C1686 C 0.47324 0.26139 0.22381 0.0
C1687 C 0.54243 0.31633 0.27137 0.0
C1688 C 0.47763 0.30992 0.36154 0.0
C1689 C 0.48531 0.29277 0.39479 0.0
C1690 C 0.48394 0.30816 0.3132 0.0
C1691 C 0.49906 0.28924 0.29787 0.0
C1692 C 0.50676 0.27175 0.33132 0.0
C1693 C 0.49941 0.27348 0.37929 0.0
C1694 C 0.47466 0.32678 0.27864 0.0
C1695 C 0.52345 0.25172 0.31681 0.0
H1696 H 0.49332 0.26747 0.13652 0.0
H1697 H 0.54991 0.31557 0.1763 0.0
H1698 H 0.47721 0.24839 0.2527 0.0
H1699 H 0.45897 0.27356 0.23713 0.0
H1700 H 0.46619 0.25143 0.1925 0.0
H1701 H 0.55899 0.32435 0.25615 0.0
H1702 H 0.53135 0.33094 0.28669 0.0
H1703 H 0.54754 0.3042 0.30109 0.0
H1704 H 0.4664 0.32467 0.3733 0.0
H1705 H 0.50538 0.26023 0.40502 0.0
H1706 H 0.46624 0.31793 0.2474 0.0
H1707 H 0.48979 0.33779 0.26515 0.0
H1708 H 0.46128 0.33894 0.2953 0.0
H1709 H 0.51573 0.24152 0.28656 0.0
H1710 H 0.52712 0.23909 0.34659 0.0
H1711 H 0.54074 0.2594 0.30445 0.0
C1712 C 0.72989 0.4909 0.41941 0.0
C1713 C 0.74044 0.46825 0.42582 0.0
C1714 C 0.72645 0.50051 0.37355 0.0
C1715 C 0.73383 0.48721 0.33309 0.0
C1716 C 0.74521 0.46472 0.33942 0.0
C1717 C 0.74833 0.4555 0.38564 0.0
C1718 C 0.7142 0.52453 0.36834 0.0
C1719 C 0.75345 0.45003 0.29726 0.0
C1720 C 0.70172 0.49782 0.21531 0.0
C1721 C 0.71815 0.51227 0.19051 0.0
C1722 C 0.70656 0.48971 0.26173 0.0
C1723 C 0.72842 0.49613 0.28408 0.0
C1724 C 0.74511 0.5107 0.25934 0.0
C1725 C 0.73978 0.5186 0.21288 0.0
C1726 C 0.68829 0.47418 0.2868 0.0
C1727 C 0.76862 0.5179 0.28192 0.0
H1728 H 0.7237 0.5009 0.45016 0.0
H1729 H 0.75661 0.43805 0.39017 0.0
H1730 H 0.72531 0.53675 0.34625 0.0
H1731 H 0.6968 0.5222 0.34969 0.0
H1732 H 0.71079 0.53323 0.40332 0.0
H1733 H 0.76329 0.4336 0.30828 0.0
H1734 H 0.7377 0.4446 0.27558 0.0
H1735 H 0.76529 0.46091 0.27397 0.0
H1736 H 0.68499 0.49272 0.1984 0.0
H1737 H 0.75255 0.52983 0.19424 0.0
H1738 H 0.68274 0.48273 0.32076 0.0
H1739 H 0.69636 0.45655 0.29585 0.0
H1740 H 0.67203 0.47104 0.26472 0.0
H1741 H 0.76523 0.52776 0.31559 0.0
H1742 H 0.77961 0.52942 0.25807 0.0
H1743 H 0.77916 0.50165 0.29115 0.0
C1744 C 0.54588 0.73595 0.3364 0.0
C1745 C 0.53232 0.73332 0.37823 0.0
C1746 C 0.53532 0.7334 0.29125 0.0
C1747 C 0.51052 0.72822 0.28768 0.0
C1748 C 0.49656 0.72615 0.32971 0.0
C1749 C 0.50764 0.72865 0.37448 0.0
C1750 C 0.55087 0.73558 0.24737 0.0
C1751 C 0.47005 0.72071 0.32743 0.0
C1752 C 0.48071 0.73825 0.167 0.0
C1753 C 0.48038 0.71491 0.14831 0.0
C1754 C 0.49006 0.74283 0.21269 0.0
C1755 C 0.49957 0.72367 0.24004 0.0
C1756 C 0.4993 0.7001 0.22127 0.0
C1757 C 0.48963 0.69601 0.17582 0.0
C1758 C 0.48985 0.76817 0.23165 0.0
C1759 C 0.50952 0.67921 0.24899 0.0
H1760 H 0.56495 0.73959 0.33883 0.0
H1761 H 0.49698 0.7266 0.40655 0.0
H1762 H 0.55114 0.71823 0.228 0.0
H1763 H 0.54334 0.74921 0.22272 0.0
H1764 H 0.56964 0.74065 0.25614 0.0
H1765 H 0.46139 0.72158 0.36306 0.0
H1766 H 0.46089 0.73354 0.30324 0.0
H1767 H 0.46728 0.70247 0.31262 0.0
H1768 H 0.47348 0.75294 0.14608 0.0
H1769 H 0.48958 0.67793 0.1616 0.0
H1770 H 0.50849 0.77426 0.23842 0.0
H1771 H 0.48018 0.76878 0.2662 0.0
H1772 H 0.48117 0.78094 0.20659 0.0
H1773 H 0.52882 0.68236 0.25643 0.0
H1774 H 0.5077 0.66194 0.22956 0.0
H1775 H 0.50029 0.67756 0.28387 0.0
C1776 C 0.26114 0.45551 0.21743 0.0
C1777 C 0.26453 0.46927 0.17605 0.0
C1778 C 0.26457 0.46544 0.26288 0.0
C1779 C 0.27141 0.4898 0.2672 0.0
C1780 C 0.27423 0.50399 0.22566 0.0
C1781 C 0.27082 0.49354 0.18057 0.0
C1782 C 0.26147 0.44967 0.30628 0.0
C1783 C 0.28139 0.53007 0.22877 0.0
C1784 C 0.26275 0.5195 0.3881 0.0
C1785 C 0.286 0.5184 0.40723 0.0
C1786 C 0.25779 0.51059 0.34229 0.0
C1787 C 0.27647 0.50009 0.31517 0.0
C1788 C 0.29995 0.49888 0.33434 0.0
C1789 C 0.30444 0.50813 0.38002 0.0
C1790 C 0.23257 0.51238 0.32293 0.0
C1791 C 0.3203 0.4876 0.30677 0.0
H1792 H 0.25627 0.43675 0.21438 0.0
H1793 H 0.27349 0.50434 0.14885 0.0
H1794 H 0.27876 0.44826 0.32572 0.0
H1795 H 0.24826 0.45777 0.33108 0.0
H1796 H 0.25534 0.43131 0.29692 0.0
H1797 H 0.28098 0.53909 0.19344 0.0
H1798 H 0.26923 0.53982 0.25337 0.0
H1799 H 0.29981 0.53151 0.24349 0.0
H1800 H 0.24841 0.52753 0.40874 0.0
H1801 H 0.32244 0.50711 0.39459 0.0
H1802 H 0.22545 0.49418 0.3155 0.0
H1803 H 0.23264 0.52235 0.28867 0.0
H1804 H 0.2202 0.52157 0.34804 0.0
H1805 H 0.316 0.46859 0.29872 0.0
H1806 H 0.33755 0.48822 0.32659 0.0
H1807 H 0.32268 0.49697 0.27218 0.0
loop_
_geom_bond_atom_site_label_1
_geom_bond_atom_site_label_2
_geom_bond_distance
_geom_bond_site_symmetry_2
_ccdc_geom_bond_type
Co0 N4 2.148 . S
Co0 N10 2.128 . S
Co0 N20 2.194 . S
Co0 O25 2.351 . S
Co0 O26 2.155 . S
Co0 O27 2.096 1_554 S
C1 N4 1.301 . S
C1 N5 1.328 . S
C1 H6 0.930 . S
C2 C3 1.333 . S
C2 N4 1.317 1_556 S
C2 H7 0.930 . S
C3 C2 1.333 . S
C3 N5 1.350 1_556 S
C3 H29 0.931 . S
N4 Co0 2.148 . S
N4 C1 1.301 . S
N4 C2 1.317 1_554 S
N5 C1 1.328 . S
N5 C3 1.350 1_554 S
H6 C1 0.930 . S
H7 C2 0.930 . S
C8 O9 1.224 . S
C8 O27 1.247 . S
O9 C8 1.224 . S
N10 Co0 2.128 . S
N10 C11 1.355 . S
N10 C13 1.311 1_454 S
C11 N10 1.355 . S
C11 C12 1.363 1_455 S
C11 H23 0.929 . S
C12 C11 1.363 1_655 S
C12 N14 1.375 . S
C12 H30 0.931 . S
C13 N10 1.311 1_656 S
C13 N14 1.347 1_556 S
C13 H24 0.929 . S
N14 C12 1.375 . S
N14 C13 1.347 1_554 S
C15 C18 1.365 . S
C15 N20 1.328 . S
C15 H21 0.929 . S
C16 C17 1.362 1_556 S
C16 C19 1.378 . S
C16 H31 0.929 . S
C17 C16 1.362 1_554 S
C17 C18 1.366 . S
C18 C15 1.365 . S
C18 C17 1.366 . S
C18 H32 0.930 . S
C19 C16 1.378 . S
C19 N20 1.315 1_556 S
C19 H22 0.930 . S
N20 Co0 2.194 . S
N20 C15 1.328 . S
N20 C19 1.315 1_554 S
H21 C15 0.929 . S
H22 C19 0.930 . S
H23 C11 0.929 . S
H24 C13 0.929 . S
O25 Co0 2.351 . S
O25 C28 1.244 . S
O26 Co0 2.155 . S
O26 C28 1.240 . S
O27 Co0 2.096 1_556 S
O27 C8 1.247 . S
C28 O25 1.244 . S
C28 O26 1.240 . S
H29 C3 0.931 . S
H30 C12 0.931 . S
H31 C16 0.929 . S
H32 C18 0.930 . S
Co33 N37 2.148 . S
Co33 N43 2.128 . S
Co33 N53 2.194 . S
Co33 O58 2.351 . S
Co33 O59 2.155 . S
Co33 O60 2.096 1_554 S
C34 N37 1.301 . S
C34 N38 1.328 . S
C34 H39 0.930 . S
C35 C36 1.333 . S
C35 N37 1.317 1_556 S
C35 H40 0.930 . S
C36 C35 1.333 . S
C36 N38 1.350 1_556 S
C36 H62 0.931 . S
N37 Co33 2.148 . S
N37 C34 1.301 . S
N37 C35 1.317 1_554 S
N38 C34 1.328 . S
N38 C36 1.350 1_554 S
H39 C34 0.930 . S
H40 C35 0.930 . S
C41 O42 1.224 . S
C41 O60 1.247 . S
O42 C41 1.224 . S
N43 Co33 2.128 . S
N43 C44 1.355 . S
N43 C46 1.311 1_544 S
C44 N43 1.355 . S
C44 C45 1.363 1_545 S
C44 H56 0.929 . S
C45 C44 1.363 1_565 S
C45 N47 1.375 . S
C45 H63 0.931 . S
C46 N43 1.311 1_566 S
C46 N47 1.347 1_556 S
C46 H57 0.929 . S
N47 C45 1.375 . S
N47 C46 1.347 1_554 S
C48 C51 1.365 . S
C48 N53 1.328 . S
C48 H54 0.929 . S
C49 C50 1.362 1_556 S
C49 C52 1.378 . S
C49 H64 0.929 . S
C50 C49 1.362 1_554 S
C50 C51 1.366 . S
C51 C48 1.365 . S
C51 C50 1.366 . S
C51 H65 0.930 . S
C52 C49 1.378 . S
C52 N53 1.315 1_556 S
C52 H55 0.930 . S
N53 Co33 2.194 . S
N53 C48 1.328 . S
N53 C52 1.315 1_554 S
H54 C48 0.929 . S
H55 C52 0.930 . S
H56 C44 0.929 . S
H57 C46 0.929 . S
O58 Co33 2.351 . S
O58 C61 1.244 . S
O59 Co33 2.155 . S
O59 C61 1.240 . S
O60 Co33 2.096 1_556 S
O60 C41 1.247 . S
C61 O58 1.244 . S
C61 O59 1.240 . S
H62 C36 0.931 . S
H63 C45 0.931 . S
H64 C49 0.929 . S
H65 C51 0.930 . S
Co66 N70 2.148 . S
Co66 N76 2.128 . S
Co66 N86 2.194 . S
Co66 O91 2.351 . S
Co66 O92 2.155 . S
Co66 O93 2.096 1_554 S
C67 N70 1.301 . S
C67 N71 1.328 . S
C67 H72 0.930 . S
C68 C69 1.333 . S
C68 N70 1.317 1_556 S
C68 H73 0.930 . S
C69 C68 1.333 . S
C69 N71 1.350 1_556 S
C69 H95 0.931 . S
N70 Co66 2.148 . S
N70 C67 1.301 . S
N70 C68 1.317 1_554 S
N71 C67 1.328 . S
N71 C69 1.350 1_554 S
H72 C67 0.930 . S
H73 C68 0.930 . S
C74 O75 1.224 . S
C74 O93 1.247 . S
O75 C74 1.224 . S
N76 Co66 2.128 . S
N76 C77 1.355 . S
N76 C79 1.311 1_654 S
C77 N76 1.355 . S
C77 C78 1.363 1_655 S
C77 H89 0.929 . S
C78 C77 1.363 1_455 S
C78 N80 1.375 . S
C78 H96 0.931 . S
C79 N76 1.311 1_456 S
C79 N80 1.347 1_556 S
C79 H90 0.929 . S
N80 C78 1.375 . S
N80 C79 1.347 1_554 S
C81 C84 1.365 . S
C81 N86 1.328 . S
C81 H87 0.929 . S
C82 C83 1.362 1_556 S
C82 C85 1.378 . S
C82 H97 0.929 . S
C83 C82 1.362 1_554 S
C83 C84 1.366 . S
C84 C81 1.365 . S
C84 C83 1.366 . S
C84 H98 0.930 . S
C85 C82 1.378 . S
C85 N86 1.315 1_556 S
C85 H88 0.930 . S
N86 Co66 2.194 . S
N86 C81 1.328 . S
N86 C85 1.315 1_554 S
H87 C81 0.929 . S
H88 C85 0.930 . S
H89 C77 0.929 . S
H90 C79 0.929 . S
O91 Co66 2.351 . S
O91 C94 1.244 . S
O92 Co66 2.155 . S
O92 C94 1.240 . S
O93 Co66 2.096 1_556 S
O93 C74 1.247 . S
C94 O91 1.244 . S
C94 O92 1.240 . S
H95 C69 0.931 . S
H96 C78 0.931 . S
H97 C82 0.929 . S
H98 C84 0.930 . S
Co99 N103 2.148 . S
Co99 N109 2.128 . S
Co99 N119 2.194 . S
Co99 O124 2.351 . S
Co99 O125 2.155 . S
Co99 O126 2.096 1_554 S
C100 N103 1.301 . S
C100 N104 1.328 . S
C100 H105 0.930 . S
C101 C102 1.333 . S
C101 N103 1.317 1_556 S
C101 H106 0.930 . S
C102 C101 1.333 . S
C102 N104 1.350 1_556 S
C102 H128 0.931 . S
N103 Co99 2.148 . S
N103 C100 1.301 . S
N103 C101 1.317 1_554 S
N104 C100 1.328 . S
N104 C102 1.350 1_554 S
H105 C100 0.930 . S
H106 C101 0.930 . S
C107 O108 1.224 . S
C107 O126 1.247 . S
O108 C107 1.224 . S
N109 Co99 2.128 . S
N109 C110 1.355 . S
N109 C112 1.311 1_564 S
C110 N109 1.355 . S
C110 C111 1.363 1_565 S
C110 H122 0.929 . S
C111 C110 1.363 1_545 S
C111 N113 1.375 . S
C111 H129 0.931 . S
C112 N109 1.311 1_546 S
C112 N113 1.347 1_556 S
C112 H123 0.929 . S
N113 C111 1.375 . S
N113 C112 1.347 1_554 S
C114 C117 1.365 . S
C114 N119 1.328 . S
C114 H120 0.929 . S
C115 C116 1.362 1_556 S
C115 C118 1.378 . S
C115 H130 0.929 . S
C116 C115 1.362 1_554 S
C116 C117 1.366 . S
C117 C114 1.365 . S
C117 C116 1.366 . S
C117 H131 0.930 . S
C118 C115 1.378 . S
C118 N119 1.315 1_556 S
C118 H121 0.930 . S
N119 Co99 2.194 . S
N119 C114 1.328 . S
N119 C118 1.315 1_554 S
H120 C114 0.929 . S
H121 C118 0.930 . S
H122 C110 0.929 . S
H123 C112 0.929 . S
O124 Co99 2.351 . S
O124 C127 1.244 . S
O125 Co99 2.155 . S
O125 C127 1.240 . S
O126 Co99 2.096 1_556 S
O126 C107 1.247 . S
C127 O124 1.244 . S
C127 O125 1.240 . S
H128 C102 0.931 . S
H129 C111 0.931 . S
H130 C115 0.929 . S
H131 C117 0.930 . S
Co132 N136 2.148 . S
Co132 N142 2.128 . S
Co132 N152 2.194 . S
Co132 O157 2.351 . S
Co132 O158 2.155 . S
Co132 O159 2.096 . S
C133 N136 1.301 . S
C133 N137 1.328 . S
C133 H138 0.930 . S
C134 C135 1.333 . S
C134 N136 1.317 . S
C134 H139 0.930 . S
C135 C134 1.333 . S
C135 N137 1.350 . S
C135 H161 0.931 . S
N136 Co132 2.148 . S
N136 C133 1.301 . S
N136 C134 1.317 . S
N137 C133 1.328 . S
N137 C135 1.350 . S
H138 C133 0.930 . S
H139 C134 0.930 . S
C140 O141 1.224 . S
C140 O159 1.247 . S
O141 C140 1.224 . S
N142 Co132 2.128 . S
N142 C143 1.355 . S
N142 C145 1.311 1_455 S
C143 N142 1.355 . S
C143 C144 1.363 1_455 S
C143 H155 0.929 . S
C144 C143 1.363 1_655 S
C144 N146 1.375 . S
C144 H162 0.931 . S
C145 N142 1.311 1_655 S
C145 N146 1.347 . S
C145 H156 0.929 . S
N146 C144 1.375 . S
N146 C145 1.347 . S
C147 C150 1.365 . S
C147 N152 1.328 . S
C147 H153 0.929 . S
C148 C149 1.362 . S
C148 C151 1.378 . S
C148 H163 0.929 . S
C149 C148 1.362 . S
C149 C150 1.366 . S
C150 C147 1.365 . S
C150 C149 1.366 . S
C150 H164 0.930 . S
C151 C148 1.378 . S
C151 N152 1.315 . S
C151 H154 0.930 . S
N152 Co132 2.194 . S
N152 C147 1.328 . S
N152 C151 1.315 . S
H153 C147 0.929 . S
H154 C151 0.930 . S
H155 C143 0.929 . S
H156 C145 0.929 . S
O157 Co132 2.351 . S
O157 C160 1.244 . S
O158 Co132 2.155 . S
O158 C160 1.240 . S
O159 Co132 2.096 . S
O159 C140 1.247 . S
C160 O157 1.244 . S
C160 O158 1.240 . S
H161 C135 0.931 . S
H162 C144 0.931 . S
H163 C148 0.929 . S
H164 C150 0.930 . S
Co165 N169 2.148 . S
Co165 N175 2.128 . S
Co165 N185 2.194 . S
Co165 O190 2.351 . S
Co165 O191 2.155 . S
Co165 O192 2.096 . S
C166 N169 1.301 . S
C166 N170 1.328 . S
C166 H171 0.930 . S
C167 C168 1.333 . S
C167 N169 1.317 . S
C167 H172 0.930 . S
C168 C167 1.333 . S
C168 N170 1.350 . S
C168 H194 0.931 . S
N169 Co165 2.148 . S
N169 C166 1.301 . S
N169 C167 1.317 . S
N170 C166 1.328 . S
N170 C168 1.350 . S
H171 C166 0.930 . S
H172 C167 0.930 . S
C173 O174 1.224 . S
C173 O192 1.247 . S
O174 C173 1.224 . S
N175 Co165 2.128 . S
N175 C176 1.355 . S
N175 C178 1.311 1_545 S
C176 N175 1.355 . S
C176 C177 1.363 1_545 S
C176 H188 0.929 . S
C177 C176 1.363 1_565 S
C177 N179 1.375 . S
C177 H195 0.931 . S
C178 N175 1.311 1_565 S
C178 N179 1.347 . S
C178 H189 0.929 . S
N179 C177 1.375 . S
N179 C178 1.347 . S
C180 C183 1.365 . S
C180 N185 1.328 . S
C180 H186 0.929 . S
C181 C182 1.362 . S
C181 C184 1.378 . S
C181 H196 0.929 . S
C182 C181 1.362 . S
C182 C183 1.366 . S
C183 C180 1.365 . S
C183 C182 1.366 . S
C183 H197 0.930 . S
C184 C181 1.378 . S
C184 N185 1.315 . S
C184 H187 0.930 . S
N185 Co165 2.194 . S
N185 C180 1.328 . S
N185 C184 1.315 . S
H186 C180 0.929 . S
H187 C184 0.930 . S
H188 C176 0.929 . S
H189 C178 0.929 . S
O190 Co165 2.351 . S
O190 C193 1.244 . S
O191 Co165 2.155 . S
O191 C193 1.240 . S
O192 Co165 2.096 . S
O192 C173 1.247 . S
C193 O190 1.244 . S
C193 O191 1.240 . S
H194 C168 0.931 . S
H195 C177 0.931 . S
H196 C181 0.929 . S
H197 C183 0.930 . S
Co198 N202 2.148 . S
Co198 N208 2.128 . S
Co198 N218 2.194 . S
Co198 O223 2.351 . S
Co198 O224 2.155 . S
Co198 O225 2.096 . S
C199 N202 1.301 . S
C199 N203 1.328 . S
C199 H204 0.930 . S
C200 C201 1.333 . S
C200 N202 1.317 . S
C200 H205 0.930 . S
C201 C200 1.333 . S
C201 N203 1.350 . S
C201 H227 0.931 . S
N202 Co198 2.148 . S
N202 C199 1.301 . S
N202 C200 1.317 . S
N203 C199 1.328 . S
N203 C201 1.350 . S
H204 C199 0.930 . S
H205 C200 0.930 . S
C206 O207 1.224 . S
C206 O225 1.247 . S
O207 C206 1.224 . S
N208 Co198 2.128 . S
N208 C209 1.355 . S
N208 C211 1.311 1_655 S
C209 N208 1.355 . S
C209 C210 1.363 1_655 S
C209 H221 0.929 . S
C210 C209 1.363 1_455 S
C210 N212 1.375 . S
C210 H228 0.931 . S
C211 N208 1.311 1_455 S
C211 N212 1.347 . S
C211 H222 0.929 . S
N212 C210 1.375 . S
N212 C211 1.347 . S
C213 C216 1.365 . S
C213 N218 1.328 . S
C213 H219 0.929 . S
C214 C215 1.362 . S
C214 C217 1.378 . S
C214 H229 0.929 . S
C215 C214 1.362 . S
C215 C216 1.366 . S
C216 C213 1.365 . S
C216 C215 1.366 . S
C216 H230 0.930 . S
C217 C214 1.378 . S
C217 N218 1.315 . S
C217 H220 0.930 . S
N218 Co198 2.194 . S
N218 C213 1.328 . S
N218 C217 1.315 . S
H219 C213 0.929 . S
H220 C217 0.930 . S
H221 C209 0.929 . S
H222 C211 0.929 . S
O223 Co198 2.351 . S
O223 C226 1.244 . S
O224 Co198 2.155 . S
O224 C226 1.240 . S
O225 Co198 2.096 . S
O225 C206 1.247 . S
C226 O223 1.244 . S
C226 O224 1.240 . S
H227 C201 0.931 . S
H228 C210 0.931 . S
H229 C214 0.929 . S
H230 C216 0.930 . S
Co231 N235 2.148 . S
Co231 N241 2.128 . S
Co231 N251 2.194 . S
Co231 O256 2.351 . S
Co231 O257 2.155 . S
Co231 O258 2.096 . S
C232 N235 1.301 . S
C232 N236 1.328 . S
C232 H237 0.930 . S
C233 C234 1.333 . S
C233 N235 1.317 . S
C233 H238 0.930 . S
C234 C233 1.333 . S
C234 N236 1.350 . S
C234 H260 0.931 . S
N235 Co231 2.148 . S
N235 C232 1.301 . S
N235 C233 1.317 . S
N236 C232 1.328 . S
N236 C234 1.350 . S
H237 C232 0.930 . S
H238 C233 0.930 . S
C239 O240 1.224 . S
C239 O258 1.247 . S
O240 C239 1.224 . S
N241 Co231 2.128 . S
N241 C242 1.355 . S
N241 C244 1.311 1_565 S
C242 N241 1.355 . S
C242 C243 1.363 1_565 S
C242 H254 0.929 . S
C243 C242 1.363 1_545 S
C243 N245 1.375 . S
C243 H261 0.931 . S
C244 N241 1.311 1_545 S
C244 N245 1.347 . S
C244 H255 0.929 . S
N245 C243 1.375 . S
N245 C244 1.347 . S
C246 C249 1.365 . S
C246 N251 1.328 . S
C246 H252 0.929 . S
C247 C248 1.362 . S
C247 C250 1.378 . S
C247 H262 0.929 . S
C248 C247 1.362 . S
C248 C249 1.366 . S
C249 C246 1.365 . S
C249 C248 1.366 . S
C249 H263 0.930 . S
C250 C247 1.378 . S
C250 N251 1.315 . S
C250 H253 0.930 . S
N251 Co231 2.194 . S
N251 C246 1.328 . S
N251 C250 1.315 . S
H252 C246 0.929 . S
H253 C250 0.930 . S
H254 C242 0.929 . S
H255 C244 0.929 . S
O256 Co231 2.351 . S
O256 C259 1.244 . S
O257 Co231 2.155 . S
O257 C259 1.240 . S
O258 Co231 2.096 . S
O258 C239 1.247 . S
C259 O256 1.244 . S
C259 O257 1.240 . S
H260 C234 0.931 . S
H261 C243 0.931 . S
H262 C247 0.929 . S
H263 C249 0.930 . S
Co264 N268 2.148 . S
Co264 N274 2.128 . S
Co264 N284 2.194 . S
Co264 O289 2.351 . S
Co264 O290 2.155 . S
Co264 O291 2.096 . S
C265 N268 1.301 . S
C265 N269 1.328 . S
C265 H270 0.930 . S
C266 C267 1.333 . S
C266 N268 1.317 . S
C266 H271 0.930 . S
C267 C266 1.333 . S
C267 N269 1.350 . S
C267 H293 0.931 . S
N268 Co264 2.148 . S
N268 C265 1.301 . S
N268 C266 1.317 . S
N269 C265 1.328 . S
N269 C267 1.350 . S
H270 C265 0.930 . S
H271 C266 0.930 . S
C272 O273 1.224 . S
C272 O291 1.247 . S
O273 C272 1.224 . S
N274 Co264 2.128 . S
N274 C275 1.355 . S
N274 C277 1.311 . S
C275 N274 1.355 . S
C275 C276 1.363 . S
C275 H287 0.929 . S
C276 C275 1.363 . S
C276 N278 1.375 . S
C276 H294 0.931 . S
C277 N274 1.311 . S
C277 N278 1.347 . S
C277 H288 0.929 . S
N278 C276 1.375 . S
N278 C277 1.347 . S
C279 C282 1.365 . S
C279 N284 1.328 . S
C279 H285 0.929 . S
C280 C281 1.362 . S
C280 C283 1.378 . S
C280 H295 0.929 . S
C281 C280 1.362 . S
C281 C282 1.366 . S
C282 C279 1.365 . S
C282 C281 1.366 . S
C282 H296 0.930 . S
C283 C280 1.378 . S
C283 N284 1.315 . S
C283 H286 0.930 . S
N284 Co264 2.194 . S
N284 C279 1.328 . S
N284 C283 1.315 . S
H285 C279 0.929 . S
H286 C283 0.930 . S
H287 C275 0.929 . S
H288 C277 0.929 . S
O289 Co264 2.351 . S
O289 C292 1.244 . S
O290 Co264 2.155 . S
O290 C292 1.240 . S
O291 Co264 2.096 . S
O291 C272 1.247 . S
C292 O289 1.244 . S
C292 O290 1.240 . S
H293 C267 0.931 . S
H294 C276 0.931 . S
H295 C280 0.929 . S
H296 C282 0.930 . S
Co297 N301 2.148 . S
Co297 N307 2.128 . S
Co297 N317 2.194 . S
Co297 O322 2.351 . S
Co297 O323 2.155 . S
Co297 O324 2.096 . S
C298 N301 1.301 . S
C298 N302 1.328 . S
C298 H303 0.930 . S
C299 C300 1.333 . S
C299 N301 1.317 . S
C299 H304 0.930 . S
C300 C299 1.333 . S
C300 N302 1.350 . S
C300 H326 0.931 . S
N301 Co297 2.148 . S
N301 C298 1.301 . S
N301 C299 1.317 . S
N302 C298 1.328 . S
N302 C300 1.350 . S
H303 C298 0.930 . S
H304 C299 0.930 . S
C305 O306 1.224 . S
C305 O324 1.247 . S
O306 C305 1.224 . S
N307 Co297 2.128 . S
N307 C308 1.355 . S
N307 C310 1.311 . S
C308 N307 1.355 . S
C308 C309 1.363 . S
C308 H320 0.929 . S
C309 C308 1.363 . S
C309 N311 1.375 . S
C309 H327 0.931 . S
C310 N307 1.311 . S
C310 N311 1.347 . S
C310 H321 0.929 . S
N311 C309 1.375 . S
N311 C310 1.347 . S
C312 C315 1.365 . S
C312 N317 1.328 . S
C312 H318 0.929 . S
C313 C314 1.362 . S
C313 C316 1.378 . S
C313 H328 0.929 . S
C314 C313 1.362 . S
C314 C315 1.366 . S
C315 C312 1.365 . S
C315 C314 1.366 . S
C315 H329 0.930 . S
C316 C313 1.378 . S
C316 N317 1.315 . S
C316 H319 0.930 . S
N317 Co297 2.194 . S
N317 C312 1.328 . S
N317 C316 1.315 . S
H318 C312 0.929 . S
H319 C316 0.930 . S
H320 C308 0.929 . S
H321 C310 0.929 . S
O322 Co297 2.351 . S
O322 C325 1.244 . S
O323 Co297 2.155 . S
O323 C325 1.240 . S
O324 Co297 2.096 . S
O324 C305 1.247 . S
C325 O322 1.244 . S
C325 O323 1.240 . S
H326 C300 0.931 . S
H327 C309 0.931 . S
H328 C313 0.929 . S
H329 C315 0.930 . S
Co330 N334 2.148 . S
Co330 N340 2.128 . S
Co330 N350 2.194 . S
Co330 O355 2.351 . S
Co330 O356 2.155 . S
Co330 O357 2.096 . S
C331 N334 1.301 . S
C331 N335 1.328 . S
C331 H336 0.930 . S
C332 C333 1.333 . S
C332 N334 1.317 . S
C332 H337 0.930 . S
C333 C332 1.333 . S
C333 N335 1.350 . S
C333 H359 0.931 . S
N334 Co330 2.148 . S
N334 C331 1.301 . S
N334 C332 1.317 . S
N335 C331 1.328 . S
N335 C333 1.350 . S
H336 C331 0.930 . S
H337 C332 0.930 . S
C338 O339 1.224 . S
C338 O357 1.247 . S
O339 C338 1.224 . S
N340 Co330 2.128 . S
N340 C341 1.355 . S
N340 C343 1.311 . S
C341 N340 1.355 . S
C341 C342 1.363 . S
C341 H353 0.929 . S
C342 C341 1.363 . S
C342 N344 1.375 . S
C342 H360 0.931 . S
C343 N340 1.311 . S
C343 N344 1.347 . S
C343 H354 0.929 . S
N344 C342 1.375 . S
N344 C343 1.347 . S
C345 C348 1.365 . S
C345 N350 1.328 . S
C345 H351 0.929 . S
C346 C347 1.362 . S
C346 C349 1.378 . S
C346 H361 0.929 . S
C347 C346 1.362 . S
C347 C348 1.366 . S
C348 C345 1.365 . S
C348 C347 1.366 . S
C348 H362 0.930 . S
C349 C346 1.378 . S
C349 N350 1.315 . S
C349 H352 0.930 . S
N350 Co330 2.194 . S
N350 C345 1.328 . S
N350 C349 1.315 . S
H351 C345 0.929 . S
H352 C349 0.930 . S
H353 C341 0.929 . S
H354 C343 0.929 . S
O355 Co330 2.351 . S
O355 C358 1.244 . S
O356 Co330 2.155 . S
O356 C358 1.240 . S
O357 Co330 2.096 . S
O357 C338 1.247 . S
C358 O355 1.244 . S
C358 O356 1.240 . S
H359 C333 0.931 . S
H360 C342 0.931 . S
H361 C346 0.929 . S
H362 C348 0.930 . S
Co363 N367 2.148 . S
Co363 N373 2.128 . S
Co363 N383 2.194 . S
Co363 O388 2.351 . S
Co363 O389 2.155 . S
Co363 O390 2.096 . S
C364 N367 1.301 . S
C364 N368 1.328 . S
C364 H369 0.930 . S
C365 C366 1.333 . S
C365 N367 1.317 . S
C365 H370 0.930 . S
C366 C365 1.333 . S
C366 N368 1.350 . S
C366 H392 0.931 . S
N367 Co363 2.148 . S
N367 C364 1.301 . S
N367 C365 1.317 . S
N368 C364 1.328 . S
N368 C366 1.350 . S
H369 C364 0.930 . S
H370 C365 0.930 . S
C371 O372 1.224 . S
C371 O390 1.247 . S
O372 C371 1.224 . S
N373 Co363 2.128 . S
N373 C374 1.355 . S
N373 C376 1.311 . S
C374 N373 1.355 . S
C374 C375 1.363 . S
C374 H386 0.929 . S
C375 C374 1.363 . S
C375 N377 1.375 . S
C375 H393 0.931 . S
C376 N373 1.311 . S
C376 N377 1.347 . S
C376 H387 0.929 . S
N377 C375 1.375 . S
N377 C376 1.347 . S
C378 C381 1.365 . S
C378 N383 1.328 . S
C378 H384 0.929 . S
C379 C380 1.362 . S
C379 C382 1.378 . S
C379 H394 0.929 . S
C380 C379 1.362 . S
C380 C381 1.366 . S
C381 C378 1.365 . S
C381 C380 1.366 . S
C381 H395 0.930 . S
C382 C379 1.378 . S
C382 N383 1.315 . S
C382 H385 0.930 . S
N383 Co363 2.194 . S
N383 C378 1.328 . S
N383 C382 1.315 . S
H384 C378 0.929 . S
H385 C382 0.930 . S
H386 C374 0.929 . S
H387 C376 0.929 . S
O388 Co363 2.351 . S
O388 C391 1.244 . S
O389 Co363 2.155 . S
O389 C391 1.240 . S
O390 Co363 2.096 . S
O390 C371 1.247 . S
C391 O388 1.244 . S
C391 O389 1.240 . S
H392 C366 0.931 . S
H393 C375 0.931 . S
H394 C379 0.929 . S
H395 C381 0.930 . S
Co396 N400 2.148 . S
Co396 N406 2.128 . S
Co396 N416 2.194 . S
Co396 O421 2.351 1_554 S
Co396 O422 2.155 1_554 S
Co396 O423 2.096 . S
C397 N400 1.301 . S
C397 N401 1.328 . S
C397 H402 0.912 1_554 S
C398 C399 1.333 . S
C398 N400 1.317 . S
C398 H403 0.930 . S
C399 C398 1.333 . S
C399 N401 1.350 . S
C399 H425 0.931 . S
N400 Co396 2.148 . S
N400 C397 1.301 . S
N400 C398 1.317 . S
N401 C397 1.328 . S
N401 C399 1.350 . S
H402 C397 0.912 1_556 S
H403 C398 0.930 . S
C404 O405 1.224 . S
C404 O423 1.247 . S
O405 C404 1.224 . S
N406 Co396 2.128 . S
N406 C407 1.355 . S
N406 C409 1.311 . S
C407 N406 1.355 . S
C407 C408 1.363 . S
C407 H419 0.929 1_554 S
C408 C407 1.363 . S
C408 N410 1.375 . S
C408 H426 0.931 . S
C409 N406 1.311 . S
C409 N410 1.347 . S
C409 H420 0.929 . S
N410 C408 1.375 . S
N410 C409 1.347 . S
C411 C414 1.365 . S
C411 N416 1.328 . S
C411 H417 0.929 1_554 S
C412 C413 1.362 . S
C412 C415 1.378 . S
C412 H427 0.929 . S
C413 C412 1.362 . S
C413 C414 1.366 . S
C414 C411 1.365 . S
C414 C413 1.366 . S
C414 H428 0.930 1_554 S
C415 C412 1.378 . S
C415 N416 1.315 . S
C415 H418 0.930 . S
N416 Co396 2.194 . S
N416 C411 1.328 . S
N416 C415 1.315 . S
H417 C411 0.929 1_556 S
H418 C415 0.930 . S
H419 C407 0.929 1_556 S
H420 C409 0.929 . S
O421 Co396 2.351 1_556 S
O421 C424 1.244 . S
O422 Co396 2.155 1_556 S
O422 C424 1.240 . S
O423 Co396 2.096 . S
O423 C404 1.247 . S
C424 O421 1.244 . S
C424 O422 1.240 . S
H425 C399 0.931 . S
H426 C408 0.931 . S
H427 C412 0.929 . S
H428 C414 0.930 1_556 S
Co429 N433 2.148 . S
Co429 N439 2.128 . S
Co429 N449 2.194 . S
Co429 O454 2.351 1_554 S
Co429 O455 2.155 1_554 S
Co429 O456 2.096 . S
C430 N433 1.301 . S
C430 N434 1.328 . S
C430 H435 0.912 1_554 S
C431 C432 1.333 . S
C431 N433 1.317 . S
C431 H436 0.930 . S
C432 C431 1.333 . S
C432 N434 1.350 . S
C432 H458 0.931 . S
N433 Co429 2.148 . S
N433 C430 1.301 . S
N433 C431 1.317 . S
N434 C430 1.328 . S
N434 C432 1.350 . S
H435 C430 0.912 1_556 S
H436 C431 0.930 . S
C437 O438 1.224 . S
C437 O456 1.247 . S
O438 C437 1.224 . S
N439 Co429 2.128 . S
N439 C440 1.355 . S
N439 C442 1.311 . S
C440 N439 1.355 . S
C440 C441 1.363 . S
C440 H452 0.929 1_554 S
C441 C440 1.363 . S
C441 N443 1.375 . S
C441 H459 0.931 . S
C442 N439 1.311 . S
C442 N443 1.347 . S
C442 H453 0.929 . S
N443 C441 1.375 . S
N443 C442 1.347 . S
C444 C447 1.365 . S
C444 N449 1.328 . S
C444 H450 0.929 1_554 S
C445 C446 1.362 . S
C445 C448 1.378 . S
C445 H460 0.929 . S
C446 C445 1.362 . S
C446 C447 1.366 . S
C447 C444 1.365 . S
C447 C446 1.366 . S
C447 H461 0.930 1_554 S
C448 C445 1.378 . S
C448 N449 1.315 . S
C448 H451 0.930 . S
N449 Co429 2.194 . S
N449 C444 1.328 . S
N449 C448 1.315 . S
H450 C444 0.929 1_556 S
H451 C448 0.930 . S
H452 C440 0.929 1_556 S
H453 C442 0.929 . S
O454 Co429 2.351 1_556 S
O454 C457 1.244 . S
O455 Co429 2.155 1_556 S
O455 C457 1.240 . S
O456 Co429 2.096 . S
O456 C437 1.247 . S
C457 O454 1.244 . S
C457 O455 1.240 . S
H458 C432 0.931 . S
H459 C441 0.931 . S
H460 C445 0.929 . S
H461 C447 0.930 1_556 S
Co462 N466 2.148 . S
Co462 N472 2.128 . S
Co462 N482 2.194 . S
Co462 O487 2.351 1_554 S
Co462 O488 2.155 1_554 S
Co462 O489 2.096 . S
C463 N466 1.301 . S
C463 N467 1.328 . S
C463 H468 0.912 1_554 S
C464 C465 1.333 . S
C464 N466 1.317 . S
C464 H469 0.930 . S
C465 C464 1.333 . S
C465 N467 1.350 . S
C465 H491 0.931 . S
N466 Co462 2.148 . S
N466 C463 1.301 . S
N466 C464 1.317 . S
N467 C463 1.328 . S
N467 C465 1.350 . S
H468 C463 0.912 1_556 S
H469 C464 0.930 . S
C470 O471 1.224 . S
C470 O489 1.247 . S
O471 C470 1.224 . S
N472 Co462 2.128 . S
N472 C473 1.355 . S
N472 C475 1.311 . S
C473 N472 1.355 . S
C473 C474 1.363 . S
C473 H485 0.929 1_554 S
C474 C473 1.363 . S
C474 N476 1.375 . S
C474 H492 0.931 . S
C475 N472 1.311 . S
C475 N476 1.347 . S
C475 H486 0.929 . S
N476 C474 1.375 . S
N476 C475 1.347 . S
C477 C480 1.365 . S
C477 N482 1.328 . S
C477 H483 0.929 1_554 S
C478 C479 1.362 . S
C478 C481 1.378 . S
C478 H493 0.929 . S
C479 C478 1.362 . S
C479 C480 1.366 . S
C480 C477 1.365 . S
C480 C479 1.366 . S
C480 H494 0.930 1_554 S
C481 C478 1.378 . S
C481 N482 1.315 . S
C481 H484 0.930 . S
N482 Co462 2.194 . S
N482 C477 1.328 . S
N482 C481 1.315 . S
H483 C477 0.929 1_556 S
H484 C481 0.930 . S
H485 C473 0.929 1_556 S
H486 C475 0.929 . S
O487 Co462 2.351 1_556 S
O487 C490 1.244 . S
O488 Co462 2.155 1_556 S
O488 C490 1.240 . S
O489 Co462 2.096 . S
O489 C470 1.247 . S
C490 O487 1.244 . S
C490 O488 1.240 . S
H491 C465 0.931 . S
H492 C474 0.931 . S
H493 C478 0.929 . S
H494 C480 0.930 1_556 S
Co495 N499 2.148 . S
Co495 N505 2.128 . S
Co495 N515 2.194 . S
Co495 O520 2.351 1_554 S
Co495 O521 2.155 1_554 S
Co495 O522 2.096 . S
C496 N499 1.301 . S
C496 N500 1.328 . S
C496 H501 0.912 1_554 S
C497 C498 1.333 . S
C497 N499 1.317 . S
C497 H502 0.930 . S
C498 C497 1.333 . S
C498 N500 1.350 . S
C498 H524 0.931 . S
N499 Co495 2.148 . S
N499 C496 1.301 . S
N499 C497 1.317 . S
N500 C496 1.328 . S
N500 C498 1.350 . S
H501 C496 0.912 1_556 S
H502 C497 0.930 . S
C503 O504 1.224 . S
C503 O522 1.247 . S
O504 C503 1.224 . S
N505 Co495 2.128 . S
N505 C506 1.355 . S
N505 C508 1.311 . S
C506 N505 1.355 . S
C506 C507 1.363 . S
C506 H518 0.929 1_554 S
C507 C506 1.363 . S
C507 N509 1.375 . S
C507 H525 0.931 . S
C508 N505 1.311 . S
C508 N509 1.347 . S
C508 H519 0.929 . S
N509 C507 1.375 . S
N509 C508 1.347 . S
C510 C513 1.365 . S
C510 N515 1.328 . S
C510 H516 0.929 1_554 S
C511 C512 1.362 . S
C511 C514 1.378 . S
C511 H526 0.929 . S
C512 C511 1.362 . S
C512 C513 1.366 . S
C513 C510 1.365 . S
C513 C512 1.366 . S
C513 H527 0.930 1_554 S
C514 C511 1.378 . S
C514 N515 1.315 . S
C514 H517 0.930 . S
N515 Co495 2.194 . S
N515 C510 1.328 . S
N515 C514 1.315 . S
H516 C510 0.929 1_556 S
H517 C514 0.930 . S
H518 C506 0.929 1_556 S
H519 C508 0.929 . S
O520 Co495 2.351 1_556 S
O520 C523 1.244 . S
O521 Co495 2.155 1_556 S
O521 C523 1.240 . S
O522 Co495 2.096 . S
O522 C503 1.247 . S
C523 O520 1.244 . S
C523 O521 1.240 . S
H524 C498 0.931 . S
H525 C507 0.931 . S
H526 C511 0.929 . S
H527 C513 0.930 1_556 S
C528 C529 1.391 1_556 S
C528 C530 1.394 . S
C528 H544 0.931 . S
C529 C528 1.391 1_554 S
C529 C533 1.376 . S
C530 C528 1.394 . S
C530 C531 1.369 1_556 S
C530 C534 1.531 . S
C531 C530 1.369 1_554 S
C531 C532 1.410 . S
C531 C539 1.503 . S
C532 C531 1.410 . S
C532 C533 1.392 . S
C532 C535 1.511 . S
C533 C529 1.376 . S
C533 C532 1.392 . S
C533 H545 0.929 . S
C534 C530 1.531 . S
C534 H546 0.960 . S
C534 H547 0.962 . S
C534 H548 0.960 . S
C535 C532 1.511 . S
C535 H549 0.961 . S
C535 H550 0.961 . S
C535 H551 0.961 . S
C536 C537 1.370 . S
C536 C538 1.363 . S
C536 H552 0.931 . S
C537 C536 1.370 . S
C537 C541 1.408 . S
C538 C536 1.363 . S
C538 C539 1.370 . S
C538 C542 1.524 . S
C539 C531 1.503 . S
C539 C538 1.370 . S
C539 C540 1.403 . S
C540 C539 1.403 . S
C540 C541 1.404 . S
C540 C543 1.539 1_554 S
C541 C537 1.408 . S
C541 C540 1.404 . S
C541 H553 0.930 . S
C542 C538 1.524 . S
C542 H554 0.956 . S
C542 H555 0.961 . S
C542 H556 0.961 . S
C543 C540 1.539 1_556 S
C543 H557 0.958 . S
C543 H558 0.961 1_556 S
C543 H559 0.960 1_556 S
H544 C528 0.931 . S
H545 C533 0.929 . S
H546 C534 0.960 . S
H547 C534 0.962 . S
H548 C534 0.960 . S
H549 C535 0.961 . S
H550 C535 0.961 . S
H551 C535 0.961 . S
H552 C536 0.931 . S
H553 C541 0.930 . S
H554 C542 0.956 . S
H555 C542 0.961 . S
H556 C542 0.961 . S
H557 C543 0.958 . S
H558 C543 0.961 1_554 S
H559 C543 0.960 1_554 S
C560 C561 1.391 . S
C560 C562 1.394 . S
C560 H576 0.931 . S
C561 C560 1.391 . S
C561 C565 1.376 . S
C562 C560 1.394 . S
C562 C563 1.369 . S
C562 C566 1.531 . S
C563 C562 1.369 . S
C563 C564 1.410 . S
C563 C571 1.503 . S
C564 C563 1.410 . S
C564 C565 1.392 . S
C564 C567 1.511 1_554 S
C565 C561 1.376 . S
C565 C564 1.392 . S
C565 H577 0.929 1_554 S
C566 C562 1.531 . S
C566 H578 0.960 . S
C566 H579 0.962 . S
C566 H580 0.960 . S
C567 C564 1.511 1_556 S
C567 H581 0.961 . S
C567 H582 0.961 . S
C567 H583 0.961 1_556 S
C568 C569 1.382 . S
C568 C570 1.364 . S
C568 H584 0.919 1_554 S
C569 C568 1.382 . S
C569 C573 1.408 . S
C570 C568 1.364 . S
C570 C571 1.370 . S
C570 C574 1.524 1_554 S
C571 C563 1.503 . S
C571 C570 1.370 . S
C571 C572 1.403 . S
C572 C571 1.403 . S
C572 C573 1.404 . S
C572 C575 1.539 . S
C573 C569 1.408 . S
C573 C572 1.404 . S
C573 H585 0.930 . S
C574 C570 1.524 1_556 S
C574 H586 0.956 . S
C574 H587 0.961 . S
C574 H588 0.961 . S
C575 C572 1.539 . S
C575 H589 0.958 . S
C575 H590 0.961 . S
C575 H591 0.960 . S
H576 C560 0.931 . S
H577 C565 0.929 1_556 S
H578 C566 0.960 . S
H579 C566 0.962 . S
H580 C566 0.960 . S
H581 C567 0.961 . S
H582 C567 0.961 . S
H583 C567 0.961 1_554 S
H584 C568 0.919 1_556 S
H585 C573 0.930 . S
H586 C574 0.956 . S
H587 C574 0.961 . S
H588 C574 0.961 . S
H589 C575 0.958 . S
H590 C575 0.961 . S
H591 C575 0.960 . S
C592 C593 1.391 1_556 S
C592 C594 1.394 . S
C592 H608 0.931 . S
C593 C592 1.391 1_554 S
C593 C597 1.376 . S
C594 C592 1.394 . S
C594 C595 1.369 1_556 S
C594 C598 1.531 . S
C595 C594 1.369 1_554 S
C595 C596 1.410 . S
C595 C603 1.503 . S
C596 C595 1.410 . S
C596 C597 1.392 . S
C596 C599 1.511 . S
C597 C593 1.376 . S
C597 C596 1.392 . S
C597 H609 0.929 . S
C598 C594 1.531 . S
C598 H610 0.960 . S
C598 H611 0.962 . S
C598 H612 0.960 . S
C599 C596 1.511 . S
C599 H613 0.961 . S
C599 H614 0.961 . S
C599 H615 0.961 . S
C600 C601 1.370 . S
C600 C602 1.363 . S
C600 H616 0.931 . S
C601 C600 1.370 . S
C601 C605 1.408 . S
C602 C600 1.363 . S
C602 C603 1.370 . S
C602 C606 1.524 . S
C603 C595 1.503 . S
C603 C602 1.370 . S
C603 C604 1.403 . S
C604 C603 1.403 . S
C604 C605 1.404 . S
C604 C607 1.539 . S
C605 C601 1.408 . S
C605 C604 1.404 . S
C605 H617 0.930 . S
C606 C602 1.524 . S
C606 H618 0.956 . S
C606 H619 0.961 . S
C606 H620 0.961 . S
C607 C604 1.539 . S
C607 H621 0.958 1_554 S
C607 H622 0.961 . S
C607 H623 0.960 . S
H608 C592 0.931 . S
H609 C597 0.929 . S
H610 C598 0.960 . S
H611 C598 0.962 . S
H612 C598 0.960 . S
H613 C599 0.961 . S
H614 C599 0.961 . S
H615 C599 0.961 . S
H616 C600 0.931 . S
H617 C605 0.930 . S
H618 C606 0.956 . S
H619 C606 0.961 . S
H620 C606 0.961 . S
H621 C607 0.958 1_556 S
H622 C607 0.961 . S
H623 C607 0.960 . S
C624 C625 1.391 . S
C624 C626 1.394 . S
C624 H640 0.931 . S
C625 C624 1.391 . S
C625 C629 1.376 1_554 S
C626 C624 1.394 . S
C626 C627 1.369 . S
C626 C630 1.531 . S
C627 C626 1.369 . S
C627 C628 1.410 1_554 S
C627 C635 1.503 . S
C628 C627 1.410 1_556 S
C628 C629 1.392 . S
C628 C631 1.511 . S
C629 C625 1.376 1_556 S
C629 C628 1.392 . S
C629 H641 0.929 . S
C630 C626 1.531 . S
C630 H642 0.960 . S
C630 H643 0.962 . S
C630 H644 0.960 . S
C631 C628 1.511 . S
C631 H645 0.961 . S
C631 H646 0.961 . S
C631 H647 0.961 . S
C632 C633 1.370 . S
C632 C634 1.363 . S
C632 H648 0.931 . S
C633 C632 1.370 . S
C633 C637 1.408 . S
C634 C632 1.363 . S
C634 C635 1.370 . S
C634 C638 1.524 . S
C635 C627 1.503 . S
C635 C634 1.370 . S
C635 C636 1.403 . S
C636 C635 1.403 . S
C636 C637 1.404 . S
C636 C639 1.539 . S
C637 C633 1.408 . S
C637 C636 1.404 . S
C637 H649 0.930 . S
C638 C634 1.524 . S
C638 H650 0.955 . S
C638 H651 0.962 1_554 S
C638 H652 0.961 1_554 S
C639 C636 1.539 . S
C639 H653 0.958 . S
C639 H654 0.961 . S
C639 H655 0.960 . S
H640 C624 0.931 . S
H641 C629 0.929 . S
H642 C630 0.960 . S
H643 C630 0.962 . S
H644 C630 0.960 . S
H645 C631 0.961 . S
H646 C631 0.961 . S
H647 C631 0.961 . S
H648 C632 0.931 . S
H649 C637 0.930 . S
H650 C638 0.955 . S
H651 C638 0.962 1_556 S
H652 C638 0.961 1_556 S
H653 C639 0.958 . S
H654 C639 0.961 . S
H655 C639 0.960 . S
C656 C657 1.391 . S
C656 C658 1.394 . S
C656 H672 0.931 . S
C657 C656 1.391 . S
C657 C661 1.376 . S
C658 C656 1.394 . S
C658 C659 1.369 . S
C658 C662 1.531 . S
C659 C658 1.369 . S
C659 C660 1.410 . S
C659 C667 1.503 . S
C660 C659 1.410 . S
C660 C661 1.392 . S
C660 C663 1.511 . S
C661 C657 1.376 . S
C661 C660 1.392 . S
C661 H673 0.929 . S
C662 C658 1.531 . S
C662 H674 0.960 . S
C662 H675 0.962 . S
C662 H676 0.960 . S
C663 C660 1.511 . S
C663 H677 0.961 . S
C663 H678 0.961 . S
C663 H679 0.961 . S
C664 C665 1.370 . S
C664 C666 1.363 . S
C664 H680 0.931 . S
C665 C664 1.370 . S
C665 C669 1.408 . S
C666 C664 1.363 . S
C666 C667 1.370 . S
C666 C670 1.524 . S
C667 C659 1.503 . S
C667 C666 1.370 . S
C667 C668 1.403 . S
C668 C667 1.403 . S
C668 C669 1.404 . S
C668 C671 1.539 . S
C669 C665 1.408 . S
C669 C668 1.404 . S
C669 H681 0.930 . S
C670 C666 1.524 . S
C670 H682 0.956 . S
C670 H683 0.961 . S
C670 H684 0.961 . S
C671 C668 1.539 . S
C671 H685 0.958 . S
C671 H686 0.961 . S
C671 H687 0.960 . S
H672 C656 0.931 . S
H673 C661 0.929 . S
H674 C662 0.960 . S
H675 C662 0.962 . S
H676 C662 0.960 . S
H677 C663 0.961 . S
H678 C663 0.961 . S
H679 C663 0.961 . S
H680 C664 0.931 . S
H681 C669 0.930 . S
H682 C670 0.956 . S
H683 C670 0.961 . S
H684 C670 0.961 . S
H685 C671 0.958 . S
H686 C671 0.961 . S
H687 C671 0.960 . S
C688 C689 1.391 . S
C688 C690 1.394 . S
C688 H704 0.931 . S
C689 C688 1.391 . S
C689 C693 1.376 . S
C690 C688 1.394 . S
C690 C691 1.369 . S
C690 C694 1.531 . S
C691 C690 1.369 . S
C691 C692 1.410 . S
C691 C699 1.503 . S
C692 C691 1.410 . S
C692 C693 1.392 . S
C692 C695 1.511 . S
C693 C689 1.376 . S
C693 C692 1.392 . S
C693 H705 0.929 . S
C694 C690 1.531 . S
C694 H706 0.960 . S
C694 H707 0.962 . S
C694 H708 0.960 . S
C695 C692 1.511 . S
C695 H709 0.961 . S
C695 H710 0.961 . S
C695 H711 0.961 . S
C696 C697 1.370 . S
C696 C698 1.363 . S
C696 H712 0.931 . S
C697 C696 1.370 . S
C697 C701 1.408 . S
C698 C696 1.363 . S
C698 C699 1.370 . S
C698 C702 1.524 . S
C699 C691 1.503 . S
C699 C698 1.370 . S
C699 C700 1.403 . S
C700 C699 1.403 . S
C700 C701 1.404 . S
C700 C703 1.539 . S
C701 C697 1.408 . S
C701 C700 1.404 . S
C701 H713 0.930 . S
C702 C698 1.524 . S
C702 H714 0.956 . S
C702 H715 0.961 . S
C702 H716 0.961 . S
C703 C700 1.539 . S
C703 H717 0.958 . S
C703 H718 0.961 . S
C703 H719 0.960 . S
H704 C688 0.931 . S
H705 C693 0.929 . S
H706 C694 0.960 . S
H707 C694 0.962 . S
H708 C694 0.960 . S
H709 C695 0.961 . S
H710 C695 0.961 . S
H711 C695 0.961 . S
H712 C696 0.931 . S
H713 C701 0.930 . S
H714 C702 0.956 . S
H715 C702 0.961 . S
H716 C702 0.961 . S
H717 C703 0.958 . S
H718 C703 0.961 . S
H719 C703 0.960 . S
C720 C721 1.391 . S
C720 C722 1.394 . S
C720 H736 0.931 . S
C721 C720 1.391 . S
C721 C725 1.376 . S
C722 C720 1.394 . S
C722 C723 1.369 . S
C722 C726 1.531 . S
C723 C722 1.369 . S
C723 C724 1.410 . S
C723 C731 1.503 . S
C724 C723 1.410 . S
C724 C725 1.392 . S
C724 C727 1.511 . S
C725 C721 1.376 . S
C725 C724 1.392 . S
C725 H737 0.929 . S
C726 C722 1.531 . S
C726 H738 0.960 . S
C726 H739 0.962 . S
C726 H740 0.960 . S
C727 C724 1.511 . S
C727 H741 0.961 . S
C727 H742 0.961 . S
C727 H743 0.961 . S
C728 C729 1.370 . S
C728 C730 1.363 . S
C728 H744 0.931 . S
C729 C728 1.370 . S
C729 C733 1.408 . S
C730 C728 1.363 . S
C730 C731 1.370 . S
C730 C734 1.524 . S
C731 C723 1.503 . S
C731 C730 1.370 . S
C731 C732 1.403 . S
C732 C731 1.403 . S
C732 C733 1.404 . S
C732 C735 1.539 . S
C733 C729 1.408 . S
C733 C732 1.404 . S
C733 H745 0.930 . S
C734 C730 1.524 . S
C734 H746 0.956 . S
C734 H747 0.961 . S
C734 H748 0.961 . S
C735 C732 1.539 . S
C735 H749 0.958 . S
C735 H750 0.961 . S
C735 H751 0.960 . S
H736 C720 0.931 . S
H737 C725 0.929 . S
H738 C726 0.960 . S
H739 C726 0.962 . S
H740 C726 0.960 . S
H741 C727 0.961 . S
H742 C727 0.961 . S
H743 C727 0.961 . S
H744 C728 0.931 . S
H745 C733 0.930 . S
H746 C734 0.956 . S
H747 C734 0.961 . S
H748 C734 0.961 . S
H749 C735 0.958 . S
H750 C735 0.961 . S
H751 C735 0.960 . S
C752 C753 1.391 . S
C752 C754 1.394 . S
C752 H768 0.931 . S
C753 C752 1.391 . S
C753 C757 1.376 . S
C754 C752 1.394 . S
C754 C755 1.369 . S
C754 C758 1.531 . S
C755 C754 1.369 . S
C755 C756 1.410 . S
C755 C763 1.503 . S
C756 C755 1.410 . S
C756 C757 1.392 . S
C756 C759 1.511 . S
C757 C753 1.376 . S
C757 C756 1.392 . S
C757 H769 0.929 . S
C758 C754 1.531 . S
C758 H770 0.960 . S
C758 H771 0.962 . S
C758 H772 0.960 . S
C759 C756 1.511 . S
C759 H773 0.961 . S
C759 H774 0.961 . S
C759 H775 0.961 . S
C760 C761 1.370 . S
C760 C762 1.363 . S
C760 H776 0.931 . S
C761 C760 1.370 . S
C761 C765 1.408 . S
C762 C760 1.363 . S
C762 C763 1.370 . S
C762 C766 1.524 . S
C763 C755 1.503 . S
C763 C762 1.370 . S
C763 C764 1.403 . S
C764 C763 1.403 . S
C764 C765 1.404 . S
C764 C767 1.539 . S
C765 C761 1.408 . S
C765 C764 1.404 . S
C765 H777 0.930 . S
C766 C762 1.524 . S
C766 H778 0.956 . S
C766 H779 0.961 . S
C766 H780 0.961 . S
C767 C764 1.539 . S
C767 H781 0.958 . S
C767 H782 0.961 . S
C767 H783 0.960 . S
H768 C752 0.931 . S
H769 C757 0.929 . S
H770 C758 0.960 . S
H771 C758 0.962 . S
H772 C758 0.960 . S
H773 C759 0.961 . S
H774 C759 0.961 . S
H775 C759 0.961 . S
H776 C760 0.931 . S
H777 C765 0.930 . S
H778 C766 0.956 . S
H779 C766 0.961 . S
H780 C766 0.961 . S
H781 C767 0.958 . S
H782 C767 0.961 . S
H783 C767 0.960 . S
C784 C785 1.391 1_554 S
C784 C786 1.394 . S
C784 H800 0.931 . S
C785 C784 1.391 1_556 S
C785 C789 1.376 . S
C786 C784 1.394 . S
C786 C787 1.369 . S
C786 C790 1.531 . S
C787 C786 1.369 . S
C787 C788 1.410 1_554 S
C787 C795 1.503 . S
C788 C787 1.410 1_556 S
C788 C789 1.392 . S
C788 C791 1.511 . S
C789 C785 1.376 . S
C789 C788 1.392 . S
C789 H801 0.929 . S
C790 C786 1.531 . S
C790 H802 0.960 . S
C790 H803 0.962 . S
C790 H804 0.960 . S
C791 C788 1.511 . S
C791 H805 0.961 . S
C791 H806 0.961 . S
C791 H807 0.961 . S
C792 C793 1.370 1_556 S
C792 C794 1.363 . S
C792 H808 0.931 . S
C793 C792 1.370 1_554 S
C793 C797 1.408 . S
C794 C792 1.363 . S
C794 C795 1.370 1_556 S
C794 C798 1.524 . S
C795 C787 1.503 . S
C795 C794 1.370 1_554 S
C795 C796 1.403 . S
C796 C795 1.403 . S
C796 C797 1.404 . S
C796 C799 1.539 . S
C797 C793 1.408 . S
C797 C796 1.404 . S
C797 H809 0.930 . S
C798 C794 1.524 . S
C798 H810 0.956 . S
C798 H811 0.961 . S
C798 H812 0.961 . S
C799 C796 1.539 . S
C799 H813 0.958 . S
C799 H814 0.961 . S
C799 H815 0.960 . S
H800 C784 0.931 . S
H801 C789 0.929 . S
H802 C790 0.960 . S
H803 C790 0.962 . S
H804 C790 0.960 . S
H805 C791 0.961 . S
H806 C791 0.961 . S
H807 C791 0.961 . S
H808 C792 0.931 . S
H809 C797 0.930 . S
H810 C798 0.956 . S
H811 C798 0.961 . S
H812 C798 0.961 . S
H813 C799 0.958 . S
H814 C799 0.961 . S
H815 C799 0.960 . S
C816 C817 1.391 . S
C816 C818 1.394 . S
C816 H832 0.931 . S
C817 C816 1.391 . S
C817 C821 1.376 1_556 S
C818 C816 1.394 . S
C818 C819 1.369 1_556 S
C818 C822 1.531 . S
C819 C818 1.369 1_554 S
C819 C820 1.410 . S
C819 C827 1.503 . S
C820 C819 1.410 . S
C820 C821 1.392 . S
C820 C823 1.511 . S
C821 C817 1.376 1_554 S
C821 C820 1.392 . S
C821 H833 0.929 . S
C822 C818 1.531 . S
C822 H834 0.960 1_556 S
C822 H835 0.962 . S
C822 H836 0.960 . S
C823 C820 1.511 . S
C823 H837 0.961 . S
C823 H838 0.961 . S
C823 H839 0.961 . S
C824 C825 1.370 1_556 S
C824 C826 1.363 . S
C824 H840 0.931 . S
C825 C824 1.370 1_554 S
C825 C829 1.408 . S
C826 C824 1.363 . S
C826 C827 1.370 1_556 S
C826 C830 1.524 . S
C827 C819 1.503 . S
C827 C826 1.370 1_554 S
C827 C828 1.403 . S
C828 C827 1.403 . S
C828 C829 1.404 . S
C828 C831 1.539 . S
C829 C825 1.408 . S
C829 C828 1.404 . S
C829 H841 0.930 . S
C830 C826 1.524 . S
C830 H842 0.956 . S
C830 H843 0.961 . S
C830 H844 0.961 . S
C831 C828 1.539 . S
C831 H845 0.958 . S
C831 H846 0.961 . S
C831 H847 0.960 . S
H832 C816 0.931 . S
H833 C821 0.929 . S
H834 C822 0.960 1_554 S
H835 C822 0.962 . S
H836 C822 0.960 . S
H837 C823 0.961 . S
H838 C823 0.961 . S
H839 C823 0.961 . S
H840 C824 0.931 . S
H841 C829 0.930 . S
H842 C830 0.956 . S
H843 C830 0.961 . S
H844 C830 0.961 . S
H845 C831 0.958 . S
H846 C831 0.961 . S
H847 C831 0.960 . S
C848 C849 1.391 . S
C848 C850 1.394 . S
C848 H864 0.931 . S
C849 C848 1.391 . S
C849 C853 1.376 1_554 S
C850 C848 1.394 . S
C850 C851 1.369 1_554 S
C850 C854 1.531 . S
C851 C850 1.369 1_556 S
C851 C852 1.410 . S
C851 C859 1.503 . S
C852 C851 1.410 . S
C852 C853 1.392 . S
C852 C855 1.511 . S
C853 C849 1.376 1_556 S
C853 C852 1.392 . S
C853 H865 0.929 . S
C854 C850 1.531 . S
C854 H866 0.960 . S
C854 H867 0.962 . S
C854 H868 0.960 . S
C855 C852 1.511 . S
C855 H869 0.961 . S
C855 H870 0.961 . S
C855 H871 0.961 . S
C856 C857 1.370 . S
C856 C858 1.364 . S
C856 H872 0.931 1_556 S
C857 C856 1.370 . S
C857 C861 1.408 . S
C858 C856 1.364 . S
C858 C859 1.372 . S
C858 C862 1.523 1_556 S
C859 C851 1.503 . S
C859 C858 1.372 . S
C859 C860 1.403 . S
C860 C859 1.403 . S
C860 C861 1.404 . S
C860 C863 1.539 . S
C861 C857 1.408 . S
C861 C860 1.404 . S
C861 H873 0.930 . S
C862 C858 1.523 1_554 S
C862 H874 0.956 . S
C862 H875 0.961 1_554 S
C862 H876 0.961 . S
C863 C860 1.539 . S
C863 H877 0.958 1_556 S
C863 H878 0.961 . S
C863 H879 0.960 . S
H864 C848 0.931 . S
H865 C853 0.929 . S
H866 C854 0.960 . S
H867 C854 0.962 . S
H868 C854 0.960 . S
H869 C855 0.961 . S
H870 C855 0.961 . S
H871 C855 0.961 . S
H872 C856 0.931 1_554 S
H873 C861 0.930 . S
H874 C862 0.956 . S
H875 C862 0.961 1_556 S
H876 C862 0.961 . S
H877 C863 0.958 1_554 S
H878 C863 0.961 . S
H879 C863 0.960 . S
C880 C881 1.402 . S
C880 C882 1.394 . S
C880 H896 0.931 . S
C881 C880 1.402 . S
C881 C885 1.368 1_556 S
C882 C880 1.394 . S
C882 C883 1.369 . S
C882 C886 1.531 . S
C883 C882 1.369 . S
C883 C884 1.410 1_556 S
C883 C891 1.503 . S
C884 C883 1.410 1_554 S
C884 C885 1.392 . S
C884 C887 1.511 . S
C885 C881 1.368 1_554 S
C885 C884 1.392 . S
C885 H897 0.929 . S
C886 C882 1.531 . S
C886 H898 0.960 . S
C886 H899 0.962 . S
C886 H900 0.960 . S
C887 C884 1.511 . S
C887 H901 0.961 . S
C887 H902 0.961 . S
C887 H903 0.961 . S
C888 C889 1.370 1_554 S
C888 C890 1.363 . S
C888 H904 0.931 . S
C889 C888 1.370 1_556 S
C889 C893 1.408 . S
C890 C888 1.363 . S
C890 C891 1.370 1_554 S
C890 C894 1.524 . S
C891 C883 1.503 . S
C891 C890 1.370 1_556 S
C891 C892 1.403 . S
C892 C891 1.403 . S
C892 C893 1.404 . S
C892 C895 1.539 . S
C893 C889 1.408 . S
C893 C892 1.404 . S
C893 H905 0.930 . S
C894 C890 1.524 . S
C894 H906 0.956 . S
C894 H907 0.961 . S
C894 H908 0.961 . S
C895 C892 1.539 . S
C895 H909 0.958 . S
C895 H910 0.961 . S
C895 H911 0.960 . S
H896 C880 0.931 . S
H897 C885 0.929 . S
H898 C886 0.960 . S
H899 C886 0.962 . S
H900 C886 0.960 . S
H901 C887 0.961 . S
H902 C887 0.961 . S
H903 C887 0.961 . S
H904 C888 0.931 . S
H905 C893 0.930 . S
H906 C894 0.956 . S
H907 C894 0.961 . S
H908 C894 0.961 . S
H909 C895 0.958 . S
H910 C895 0.961 . S
H911 C895 0.960 . S
C912 C913 1.391 . S
C912 C914 1.394 . S
C912 H928 0.931 . S
C913 C912 1.391 . S
C913 C917 1.376 . S
C914 C912 1.394 . S
C914 C915 1.369 . S
C914 C918 1.531 . S
C915 C914 1.369 . S
C915 C916 1.410 . S
C915 C923 1.503 . S
C916 C915 1.410 . S
C916 C917 1.392 . S
C916 C919 1.511 . S
C917 C913 1.376 . S
C917 C916 1.392 . S
C917 H929 0.929 . S
C918 C914 1.531 . S
C918 H930 0.960 . S
C918 H931 0.962 . S
C918 H932 0.960 . S
C919 C916 1.511 . S
C919 H933 0.961 . S
C919 H934 0.961 . S
C919 H935 0.961 . S
C920 C921 1.370 . S
C920 C922 1.363 . S
C920 H936 0.931 . S
C921 C920 1.370 . S
C921 C925 1.408 . S
C922 C920 1.363 . S
C922 C923 1.370 . S
C922 C926 1.524 . S
C923 C915 1.503 . S
C923 C922 1.370 . S
C923 C924 1.403 . S
C924 C923 1.403 . S
C924 C925 1.404 . S
C924 C927 1.539 . S
C925 C921 1.408 . S
C925 C924 1.404 . S
C925 H937 0.930 . S
C926 C922 1.524 . S
C926 H938 0.956 . S
C926 H939 0.961 . S
C926 H940 0.961 . S
C927 C924 1.539 . S
C927 H941 0.958 . S
C927 H942 0.961 . S
C927 H943 0.960 . S
H928 C912 0.931 . S
H929 C917 0.929 . S
H930 C918 0.960 . S
H931 C918 0.962 . S
H932 C918 0.960 . S
H933 C919 0.961 . S
H934 C919 0.961 . S
H935 C919 0.961 . S
H936 C920 0.931 . S
H937 C925 0.930 . S
H938 C926 0.956 . S
H939 C926 0.961 . S
H940 C926 0.961 . S
H941 C927 0.958 . S
H942 C927 0.961 . S
H943 C927 0.960 . S
C944 C945 1.391 . S
C944 C946 1.394 . S
C944 H960 0.931 . S
C945 C944 1.391 . S
C945 C949 1.376 . S
C946 C944 1.394 . S
C946 C947 1.369 . S
C946 C950 1.531 . S
C947 C946 1.369 . S
C947 C948 1.410 . S
C947 C955 1.503 . S
C948 C947 1.410 . S
C948 C949 1.392 . S
C948 C951 1.511 . S
C949 C945 1.376 . S
C949 C948 1.392 . S
C949 H961 0.929 . S
C950 C946 1.531 . S
C950 H962 0.960 . S
C950 H963 0.962 . S
C950 H964 0.960 . S
C951 C948 1.511 . S
C951 H965 0.961 . S
C951 H966 0.961 . S
C951 H967 0.961 . S
C952 C953 1.370 . S
C952 C954 1.363 . S
C952 H968 0.931 . S
C953 C952 1.370 . S
C953 C957 1.408 . S
C954 C952 1.363 . S
C954 C955 1.370 . S
C954 C958 1.524 . S
C955 C947 1.503 . S
C955 C954 1.370 . S
C955 C956 1.403 . S
C956 C955 1.403 . S
C956 C957 1.404 . S
C956 C959 1.539 . S
C957 C953 1.408 . S
C957 C956 1.404 . S
C957 H969 0.930 . S
C958 C954 1.524 . S
C958 H970 0.956 . S
C958 H971 0.961 . S
C958 H972 0.961 . S
C959 C956 1.539 . S
C959 H973 0.958 . S
C959 H974 0.961 . S
C959 H975 0.960 . S
H960 C944 0.931 . S
H961 C949 0.929 . S
H962 C950 0.960 . S
H963 C950 0.962 . S
H964 C950 0.960 . S
H965 C951 0.961 . S
H966 C951 0.961 . S
H967 C951 0.961 . S
H968 C952 0.931 . S
H969 C957 0.930 . S
H970 C958 0.956 . S
H971 C958 0.961 . S
H972 C958 0.961 . S
H973 C959 0.958 . S
H974 C959 0.961 . S
H975 C959 0.960 . S
C976 C977 1.391 . S
C976 C978 1.394 . S
C976 H992 0.931 . S
C977 C976 1.391 . S
C977 C981 1.376 . S
C978 C976 1.394 . S
C978 C979 1.369 . S
C978 C982 1.531 . S
C979 C978 1.369 . S
C979 C980 1.410 . S
C979 C987 1.503 . S
C980 C979 1.410 . S
C980 C981 1.392 . S
C980 C983 1.511 . S
C981 C977 1.376 . S
C981 C980 1.392 . S
C981 H993 0.929 . S
C982 C978 1.531 . S
C982 H994 0.960 . S
C982 H995 0.962 . S
C982 H996 0.960 . S
C983 C980 1.511 . S
C983 H997 0.961 . S
C983 H998 0.961 . S
C983 H999 0.961 . S
C984 C985 1.370 . S
C984 C986 1.363 . S
C984 H1000 0.931 . S
C985 C984 1.370 . S
C985 C989 1.408 . S
C986 C984 1.363 . S
C986 C987 1.370 . S
C986 C990 1.524 . S
C987 C979 1.503 . S
C987 C986 1.370 . S
C987 C988 1.403 . S
C988 C987 1.403 . S
C988 C989 1.404 . S
C988 C991 1.539 . S
C989 C985 1.408 . S
C989 C988 1.404 . S
C989 H1001 0.930 . S
C990 C986 1.524 . S
C990 H1002 0.956 . S
C990 H1003 0.961 . S
C990 H1004 0.961 . S
C991 C988 1.539 . S
C991 H1005 0.958 . S
C991 H1006 0.961 . S
C991 H1007 0.960 . S
H992 C976 0.931 . S
H993 C981 0.929 . S
H994 C982 0.960 . S
H995 C982 0.962 . S
H996 C982 0.960 . S
H997 C983 0.961 . S
H998 C983 0.961 . S
H999 C983 0.961 . S
H1000 C984 0.931 . S
H1001 C989 0.930 . S
H1002 C990 0.956 . S
H1003 C990 0.961 . S
H1004 C990 0.961 . S
H1005 C991 0.958 . S
H1006 C991 0.961 . S
H1007 C991 0.960 . S
C1008 C1009 1.391 . S
C1008 C1010 1.394 . S
C1008 H1024 0.931 . S
C1009 C1008 1.391 . S
C1009 C1013 1.376 . S
C1010 C1008 1.394 . S
C1010 C1011 1.369 . S
C1010 C1014 1.531 . S
C1011 C1010 1.369 . S
C1011 C1012 1.410 . S
C1011 C1019 1.503 . S
C1012 C1011 1.410 . S
C1012 C1013 1.392 . S
C1012 C1015 1.511 . S
C1013 C1009 1.376 . S
C1013 C1012 1.392 . S
C1013 H1025 0.929 . S
C1014 C1010 1.531 . S
C1014 H1026 0.960 . S
C1014 H1027 0.962 . S
C1014 H1028 0.960 . S
C1015 C1012 1.511 . S
C1015 H1029 0.961 . S
C1015 H1030 0.961 . S
C1015 H1031 0.961 . S
C1016 C1017 1.370 . S
C1016 C1018 1.363 . S
C1016 H1032 0.931 . S
C1017 C1016 1.370 . S
C1017 C1021 1.408 . S
C1018 C1016 1.363 . S
C1018 C1019 1.370 . S
C1018 C1022 1.524 . S
C1019 C1011 1.503 . S
C1019 C1018 1.370 . S
C1019 C1020 1.403 . S
C1020 C1019 1.403 . S
C1020 C1021 1.404 . S
C1020 C1023 1.539 . S
C1021 C1017 1.408 . S
C1021 C1020 1.404 . S
C1021 H1033 0.930 . S
C1022 C1018 1.524 . S
C1022 H1034 0.956 . S
C1022 H1035 0.961 . S
C1022 H1036 0.961 . S
C1023 C1020 1.539 . S
C1023 H1037 0.958 . S
C1023 H1038 0.961 . S
C1023 H1039 0.960 . S
H1024 C1008 0.931 . S
H1025 C1013 0.929 . S
H1026 C1014 0.960 . S
H1027 C1014 0.962 . S
H1028 C1014 0.960 . S
H1029 C1015 0.961 . S
H1030 C1015 0.961 . S
H1031 C1015 0.961 . S
H1032 C1016 0.931 . S
H1033 C1021 0.930 . S
H1034 C1022 0.956 . S
H1035 C1022 0.961 . S
H1036 C1022 0.961 . S
H1037 C1023 0.958 . S
H1038 C1023 0.961 . S
H1039 C1023 0.960 . S
C1040 C1041 1.391 . S
C1040 C1042 1.394 . S
C1040 H1056 0.931 . S
C1041 C1040 1.391 . S
C1041 C1045 1.376 . S
C1042 C1040 1.394 . S
C1042 C1043 1.369 . S
C1042 C1046 1.531 . S
C1043 C1042 1.369 . S
C1043 C1044 1.410 . S
C1043 C1051 1.503 . S
C1044 C1043 1.410 . S
C1044 C1045 1.392 . S
C1044 C1047 1.511 . S
C1045 C1041 1.376 . S
C1045 C1044 1.392 . S
C1045 H1057 0.929 . S
C1046 C1042 1.531 . S
C1046 H1058 0.960 . S
C1046 H1059 0.962 . S
C1046 H1060 0.960 . S
C1047 C1044 1.511 . S
C1047 H1061 0.961 . S
C1047 H1062 0.961 . S
C1047 H1063 0.961 . S
C1048 C1049 1.370 . S
C1048 C1050 1.363 . S
C1048 H1064 0.931 . S
C1049 C1048 1.370 . S
C1049 C1053 1.408 . S
C1050 C1048 1.363 . S
C1050 C1051 1.370 . S
C1050 C1054 1.524 . S
C1051 C1043 1.503 . S
C1051 C1050 1.370 . S
C1051 C1052 1.403 . S
C1052 C1051 1.403 . S
C1052 C1053 1.404 . S
C1052 C1055 1.539 . S
C1053 C1049 1.408 . S
C1053 C1052 1.404 . S
C1053 H1065 0.930 . S
C1054 C1050 1.524 . S
C1054 H1066 0.956 . S
C1054 H1067 0.961 . S
C1054 H1068 0.961 . S
C1055 C1052 1.539 . S
C1055 H1069 0.958 . S
C1055 H1070 0.961 . S
C1055 H1071 0.960 . S
H1056 C1040 0.931 . S
H1057 C1045 0.929 . S
H1058 C1046 0.960 . S
H1059 C1046 0.962 . S
H1060 C1046 0.960 . S
H1061 C1047 0.961 . S
H1062 C1047 0.961 . S
H1063 C1047 0.961 . S
H1064 C1048 0.931 . S
H1065 C1053 0.930 . S
H1066 C1054 0.956 . S
H1067 C1054 0.961 . S
H1068 C1054 0.961 . S
H1069 C1055 0.958 . S
H1070 C1055 0.961 . S
H1071 C1055 0.960 . S
C1072 C1073 1.391 . S
C1072 C1074 1.394 . S
C1072 H1088 0.931 . S
C1073 C1072 1.391 . S
C1073 C1077 1.376 . S
C1074 C1072 1.394 . S
C1074 C1075 1.369 . S
C1074 C1078 1.531 . S
C1075 C1074 1.369 . S
C1075 C1076 1.410 . S
C1075 C1083 1.503 . S
C1076 C1075 1.410 . S
C1076 C1077 1.392 . S
C1076 C1079 1.511 . S
C1077 C1073 1.376 . S
C1077 C1076 1.392 . S
C1077 H1089 0.929 . S
C1078 C1074 1.531 . S
C1078 H1090 0.960 . S
C1078 H1091 0.962 . S
C1078 H1092 0.960 . S
C1079 C1076 1.511 . S
C1079 H1093 0.961 . S
C1079 H1094 0.961 . S
C1079 H1095 0.961 . S
C1080 C1081 1.370 . S
C1080 C1082 1.363 . S
C1080 H1096 0.931 . S
C1081 C1080 1.370 . S
C1081 C1085 1.408 . S
C1082 C1080 1.363 . S
C1082 C1083 1.370 . S
C1082 C1086 1.524 . S
C1083 C1075 1.503 . S
C1083 C1082 1.370 . S
C1083 C1084 1.403 . S
C1084 C1083 1.403 . S
C1084 C1085 1.404 . S
C1084 C1087 1.539 . S
C1085 C1081 1.408 . S
C1085 C1084 1.404 . S
C1085 H1097 0.930 . S
C1086 C1082 1.524 . S
C1086 H1098 0.956 . S
C1086 H1099 0.961 . S
C1086 H1100 0.961 . S
C1087 C1084 1.539 . S
C1087 H1101 0.958 . S
C1087 H1102 0.961 . S
C1087 H1103 0.960 . S
H1088 C1072 0.931 . S
H1089 C1077 0.929 . S
H1090 C1078 0.960 . S
H1091 C1078 0.962 . S
H1092 C1078 0.960 . S
H1093 C1079 0.961 . S
H1094 C1079 0.961 . S
H1095 C1079 0.961 . S
H1096 C1080 0.931 . S
H1097 C1085 0.930 . S
H1098 C1086 0.956 . S
H1099 C1086 0.961 . S
H1100 C1086 0.961 . S
H1101 C1087 0.958 . S
H1102 C1087 0.961 . S
H1103 C1087 0.960 . S
C1104 C1105 1.391 . S
C1104 C1106 1.394 . S
C1104 H1120 0.931 . S
C1105 C1104 1.391 . S
C1105 C1109 1.376 . S
C1106 C1104 1.394 . S
C1106 C1107 1.369 . S
C1106 C1110 1.531 . S
C1107 C1106 1.369 . S
C1107 C1108 1.410 . S
C1107 C1115 1.503 . S
C1108 C1107 1.410 . S
C1108 C1109 1.392 . S
C1108 C1111 1.511 . S
C1109 C1105 1.376 . S
C1109 C1108 1.392 . S
C1109 H1121 0.929 . S
C1110 C1106 1.531 . S
C1110 H1122 0.960 . S
C1110 H1123 0.962 . S
C1110 H1124 0.960 . S
C1111 C1108 1.511 . S
C1111 H1125 0.961 . S
C1111 H1126 0.961 . S
C1111 H1127 0.961 . S
C1112 C1113 1.370 . S
C1112 C1114 1.363 . S
C1112 H1128 0.931 . S
C1113 C1112 1.370 . S
C1113 C1117 1.408 . S
C1114 C1112 1.363 . S
C1114 C1115 1.370 . S
C1114 C1118 1.524 . S
C1115 C1107 1.503 . S
C1115 C1114 1.370 . S
C1115 C1116 1.403 . S
C1116 C1115 1.403 . S
C1116 C1117 1.404 . S
C1116 C1119 1.539 . S
C1117 C1113 1.408 . S
C1117 C1116 1.404 . S
C1117 H1129 0.930 . S
C1118 C1114 1.524 . S
C1118 H1130 0.956 . S
C1118 H1131 0.961 . S
C1118 H1132 0.961 . S
C1119 C1116 1.539 . S
C1119 H1133 0.958 . S
C1119 H1134 0.961 . S
C1119 H1135 0.960 . S
H1120 C1104 0.931 . S
H1121 C1109 0.929 . S
H1122 C1110 0.960 . S
H1123 C1110 0.962 . S
H1124 C1110 0.960 . S
H1125 C1111 0.961 . S
H1126 C1111 0.961 . S
H1127 C1111 0.961 . S
H1128 C1112 0.931 . S
H1129 C1117 0.930 . S
H1130 C1118 0.956 . S
H1131 C1118 0.961 . S
H1132 C1118 0.961 . S
H1133 C1119 0.958 . S
H1134 C1119 0.961 . S
H1135 C1119 0.960 . S
C1136 C1137 1.391 . S
C1136 C1138 1.394 . S
C1136 H1152 0.931 . S
C1137 C1136 1.391 . S
C1137 C1141 1.376 . S
C1138 C1136 1.394 . S
C1138 C1139 1.369 . S
C1138 C1142 1.531 . S
C1139 C1138 1.369 . S
C1139 C1140 1.410 . S
C1139 C1147 1.503 . S
C1140 C1139 1.410 . S
C1140 C1141 1.392 . S
C1140 C1143 1.511 . S
C1141 C1137 1.376 . S
C1141 C1140 1.392 . S
C1141 H1153 0.929 . S
C1142 C1138 1.531 . S
C1142 H1154 0.960 . S
C1142 H1155 0.962 . S
C1142 H1156 0.960 . S
C1143 C1140 1.511 . S
C1143 H1157 0.961 . S
C1143 H1158 0.961 . S
C1143 H1159 0.961 . S
C1144 C1145 1.370 . S
C1144 C1146 1.363 . S
C1144 H1160 0.931 . S
C1145 C1144 1.370 . S
C1145 C1149 1.408 . S
C1146 C1144 1.363 . S
C1146 C1147 1.370 . S
C1146 C1150 1.524 . S
C1147 C1139 1.503 . S
C1147 C1146 1.370 . S
C1147 C1148 1.403 . S
C1148 C1147 1.403 . S
C1148 C1149 1.404 . S
C1148 C1151 1.539 . S
C1149 C1145 1.408 . S
C1149 C1148 1.404 . S
C1149 H1161 0.930 . S
C1150 C1146 1.524 . S
C1150 H1162 0.956 . S
C1150 H1163 0.961 . S
C1150 H1164 0.961 . S
C1151 C1148 1.539 . S
C1151 H1165 0.958 . S
C1151 H1166 0.961 . S
C1151 H1167 0.960 . S
H1152 C1136 0.931 . S
H1153 C1141 0.929 . S
H1154 C1142 0.960 . S
H1155 C1142 0.962 . S
H1156 C1142 0.960 . S
H1157 C1143 0.961 . S
H1158 C1143 0.961 . S
H1159 C1143 0.961 . S
H1160 C1144 0.931 . S
H1161 C1149 0.930 . S
H1162 C1150 0.956 . S
H1163 C1150 0.961 . S
H1164 C1150 0.961 . S
H1165 C1151 0.958 . S
H1166 C1151 0.961 . S
H1167 C1151 0.960 . S
C1168 C1169 1.391 . S
C1168 C1170 1.394 . S
C1168 H1184 0.931 . S
C1169 C1168 1.391 . S
C1169 C1173 1.376 . S
C1170 C1168 1.394 . S
C1170 C1171 1.369 . S
C1170 C1174 1.531 . S
C1171 C1170 1.369 . S
C1171 C1172 1.410 . S
C1171 C1179 1.503 . S
C1172 C1171 1.410 . S
C1172 C1173 1.392 . S
C1172 C1175 1.511 . S
C1173 C1169 1.376 . S
C1173 C1172 1.392 . S
C1173 H1185 0.929 . S
C1174 C1170 1.531 . S
C1174 H1186 0.960 . S
C1174 H1187 0.962 . S
C1174 H1188 0.960 . S
C1175 C1172 1.511 . S
C1175 H1189 0.961 1_554 S
C1175 H1190 0.961 . S
C1175 H1191 0.961 . S
C1176 C1177 1.370 . S
C1176 C1178 1.363 . S
C1176 H1192 0.931 . S
C1177 C1176 1.370 . S
C1177 C1181 1.408 . S
C1178 C1176 1.363 . S
C1178 C1179 1.370 . S
C1178 C1182 1.524 . S
C1179 C1171 1.503 . S
C1179 C1178 1.370 . S
C1179 C1180 1.403 . S
C1180 C1179 1.403 . S
C1180 C1181 1.404 . S
C1180 C1183 1.539 . S
C1181 C1177 1.408 . S
C1181 C1180 1.404 . S
C1181 H1193 0.930 . S
C1182 C1178 1.524 . S
C1182 H1194 0.956 . S
C1182 H1195 0.961 1_554 S
C1182 H1196 0.961 1_554 S
C1183 C1180 1.539 . S
C1183 H1197 0.958 . S
C1183 H1198 0.961 . S
C1183 H1199 0.960 . S
H1184 C1168 0.931 . S
H1185 C1173 0.929 . S
H1186 C1174 0.960 . S
H1187 C1174 0.962 . S
H1188 C1174 0.960 . S
H1189 C1175 0.961 1_556 S
H1190 C1175 0.961 . S
H1191 C1175 0.961 . S
H1192 C1176 0.931 . S
H1193 C1181 0.930 . S
H1194 C1182 0.956 . S
H1195 C1182 0.961 1_556 S
H1196 C1182 0.961 1_556 S
H1197 C1183 0.958 . S
H1198 C1183 0.961 . S
H1199 C1183 0.960 . S
C1200 C1201 1.391 . S
C1200 C1202 1.394 . S
C1200 H1216 0.931 . S
C1201 C1200 1.391 . S
C1201 C1205 1.376 . S
C1202 C1200 1.394 . S
C1202 C1203 1.369 . S
C1202 C1206 1.531 . S
C1203 C1202 1.369 . S
C1203 C1204 1.410 . S
C1203 C1211 1.503 . S
C1204 C1203 1.410 . S
C1204 C1205 1.392 . S
C1204 C1207 1.511 . S
C1205 C1201 1.376 . S
C1205 C1204 1.392 . S
C1205 H1217 0.929 . S
C1206 C1202 1.531 . S
C1206 H1218 0.960 . S
C1206 H1219 0.962 . S
C1206 H1220 0.960 . S
C1207 C1204 1.511 . S
C1207 H1221 0.961 . S
C1207 H1222 0.961 . S
C1207 H1223 0.961 . S
C1208 C1209 1.370 . S
C1208 C1210 1.363 . S
C1208 H1224 0.931 . S
C1209 C1208 1.370 . S
C1209 C1213 1.408 . S
C1210 C1208 1.363 . S
C1210 C1211 1.370 . S
C1210 C1214 1.524 . S
C1211 C1203 1.503 . S
C1211 C1210 1.370 . S
C1211 C1212 1.403 . S
C1212 C1211 1.403 . S
C1212 C1213 1.404 . S
C1212 C1215 1.539 1_554 S
C1213 C1209 1.408 . S
C1213 C1212 1.404 . S
C1213 H1225 0.930 1_554 S
C1214 C1210 1.524 . S
C1214 H1226 0.956 . S
C1214 H1227 0.961 . S
C1214 H1228 0.961 . S
C1215 C1212 1.539 1_556 S
C1215 H1229 0.958 . S
C1215 H1230 0.961 . S
C1215 H1231 0.960 . S
H1216 C1200 0.931 . S
H1217 C1205 0.929 . S
H1218 C1206 0.960 . S
H1219 C1206 0.962 . S
H1220 C1206 0.960 . S
H1221 C1207 0.961 . S
H1222 C1207 0.961 . S
H1223 C1207 0.961 . S
H1224 C1208 0.931 . S
H1225 C1213 0.930 1_556 S
H1226 C1214 0.956 . S
H1227 C1214 0.961 . S
H1228 C1214 0.961 . S
H1229 C1215 0.958 . S
H1230 C1215 0.961 . S
H1231 C1215 0.960 . S
C1232 C1233 1.391 . S
C1232 C1234 1.394 . S
C1232 H1248 0.931 . S
C1233 C1232 1.391 . S
C1233 C1237 1.376 . S
C1234 C1232 1.394 . S
C1234 C1235 1.369 . S
C1234 C1238 1.531 . S
C1235 C1234 1.369 . S
C1235 C1236 1.410 . S
C1235 C1243 1.503 . S
C1236 C1235 1.410 . S
C1236 C1237 1.392 . S
C1236 C1239 1.511 . S
C1237 C1233 1.376 . S
C1237 C1236 1.392 . S
C1237 H1249 0.929 . S
C1238 C1234 1.531 . S
C1238 H1250 0.960 . S
C1238 H1251 0.962 . S
C1238 H1252 0.960 . S
C1239 C1236 1.511 . S
C1239 H1253 0.961 . S
C1239 H1254 0.961 . S
C1239 H1255 0.961 . S
C1240 C1241 1.370 . S
C1240 C1242 1.363 . S
C1240 H1256 0.932 . S
C1241 C1240 1.370 . S
C1241 C1245 1.408 . S
C1242 C1240 1.363 . S
C1242 C1243 1.370 . S
C1242 C1246 1.524 1_554 S
C1243 C1235 1.503 . S
C1243 C1242 1.370 . S
C1243 C1244 1.403 . S
C1244 C1243 1.403 . S
C1244 C1245 1.404 . S
C1244 C1247 1.539 . S
C1245 C1241 1.408 . S
C1245 C1244 1.404 . S
C1245 H1257 0.930 . S
C1246 C1242 1.524 1_556 S
C1246 H1258 0.956 1_556 S
C1246 H1259 0.961 . S
C1246 H1260 0.961 . S
C1247 C1244 1.539 . S
C1247 H1261 0.958 . S
C1247 H1262 0.961 . S
C1247 H1263 0.960 . S
H1248 C1232 0.931 . S
H1249 C1237 0.929 . S
H1250 C1238 0.960 . S
H1251 C1238 0.962 . S
H1252 C1238 0.960 . S
H1253 C1239 0.961 . S
H1254 C1239 0.961 . S
H1255 C1239 0.961 . S
H1256 C1240 0.932 . S
H1257 C1245 0.930 . S
H1258 C1246 0.956 1_554 S
H1259 C1246 0.961 . S
H1260 C1246 0.961 . S
H1261 C1247 0.958 . S
H1262 C1247 0.961 . S
H1263 C1247 0.960 . S
C1264 C1265 1.391 . S
C1264 C1266 1.394 . S
C1264 H1280 0.931 . S
C1265 C1264 1.391 . S
C1265 C1269 1.376 . S
C1266 C1264 1.394 . S
C1266 C1267 1.369 . S
C1266 C1270 1.531 . S
C1267 C1266 1.369 . S
C1267 C1268 1.410 . S
C1267 C1275 1.503 . S
C1268 C1267 1.410 . S
C1268 C1269 1.392 . S
C1268 C1271 1.511 . S
C1269 C1265 1.376 . S
C1269 C1268 1.392 . S
C1269 H1281 0.929 . S
C1270 C1266 1.531 . S
C1270 H1282 0.960 . S
C1270 H1283 0.962 . S
C1270 H1284 0.960 . S
C1271 C1268 1.511 . S
C1271 H1285 0.961 1_554 S
C1271 H1286 0.961 1_554 S
C1271 H1287 0.961 . S
C1272 C1273 1.370 . S
C1272 C1274 1.363 . S
C1272 H1288 0.931 . S
C1273 C1272 1.370 . S
C1273 C1277 1.408 . S
C1274 C1272 1.363 . S
C1274 C1275 1.370 . S
C1274 C1278 1.524 . S
C1275 C1267 1.503 . S
C1275 C1274 1.370 . S
C1275 C1276 1.403 . S
C1276 C1275 1.403 . S
C1276 C1277 1.404 . S
C1276 C1279 1.539 . S
C1277 C1273 1.408 . S
C1277 C1276 1.404 . S
C1277 H1289 0.930 . S
C1278 C1274 1.524 . S
C1278 H1290 0.956 . S
C1278 H1291 0.961 1_554 S
C1278 H1292 0.961 1_554 S
C1279 C1276 1.539 . S
C1279 H1293 0.958 . S
C1279 H1294 0.961 . S
C1279 H1295 0.960 . S
H1280 C1264 0.931 . S
H1281 C1269 0.929 . S
H1282 C1270 0.960 . S
H1283 C1270 0.962 . S
H1284 C1270 0.960 . S
H1285 C1271 0.961 1_556 S
H1286 C1271 0.961 1_556 S
H1287 C1271 0.961 . S
H1288 C1272 0.931 . S
H1289 C1277 0.930 . S
H1290 C1278 0.956 . S
H1291 C1278 0.961 1_556 S
H1292 C1278 0.961 1_556 S
H1293 C1279 0.958 . S
H1294 C1279 0.961 . S
H1295 C1279 0.960 . S
C1296 C1297 1.391 1_455 S
C1296 C1298 1.394 . S
C1296 H1312 0.931 . S
C1297 C1296 1.391 1_655 S
C1297 C1301 1.376 . S
C1298 C1296 1.394 . S
C1298 C1299 1.354 1_455 S
C1298 C1302 1.531 . S
C1299 C1298 1.354 1_655 S
C1299 C1300 1.430 . S
C1299 C1307 1.499 1_655 S
C1300 C1299 1.430 . S
C1300 C1301 1.392 . S
C1300 C1303 1.511 . S
C1301 C1297 1.376 . S
C1301 C1300 1.392 . S
C1301 H1313 0.929 . S
C1302 C1298 1.531 . S
C1302 H1314 0.960 . S
C1302 H1315 0.962 . S
C1302 H1316 0.960 . S
C1303 C1300 1.511 . S
C1303 H1317 0.961 . S
C1303 H1318 0.961 . S
C1303 H1319 0.961 . S
C1304 C1305 1.370 . S
C1304 C1306 1.354 1_455 S
C1304 H1320 0.937 . S
C1305 C1304 1.370 . S
C1305 C1309 1.408 . S
C1306 C1304 1.354 1_655 S
C1306 C1307 1.361 1_655 S
C1306 C1310 1.545 . S
C1307 C1299 1.499 1_455 S
C1307 C1306 1.361 1_455 S
C1307 C1308 1.403 . S
C1308 C1307 1.403 . S
C1308 C1309 1.404 . S
C1308 C1311 1.539 . S
C1309 C1305 1.408 . S
C1309 C1308 1.404 . S
C1309 H1321 0.930 . S
C1310 C1306 1.545 . S
C1310 H1322 0.988 . S
C1310 H1323 0.961 . S
C1310 H1324 0.961 . S
C1311 C1308 1.539 . S
C1311 H1325 0.958 . S
C1311 H1326 0.961 . S
C1311 H1327 0.960 . S
H1312 C1296 0.931 . S
H1313 C1301 0.929 . S
H1314 C1302 0.960 . S
H1315 C1302 0.962 . S
H1316 C1302 0.960 . S
H1317 C1303 0.961 . S
H1318 C1303 0.961 . S
H1319 C1303 0.961 . S
H1320 C1304 0.937 . S
H1321 C1309 0.930 . S
H1322 C1310 0.988 . S
H1323 C1310 0.961 . S
H1324 C1310 0.961 . S
H1325 C1311 0.958 . S
H1326 C1311 0.961 . S
H1327 C1311 0.960 . S
C1328 C1329 1.391 . S
C1328 C1330 1.394 . S
C1328 H1344 0.931 . S
C1329 C1328 1.391 . S
C1329 C1333 1.376 1_565 S
C1330 C1328 1.394 . S
C1330 C1331 1.369 . S
C1330 C1334 1.531 . S
C1331 C1330 1.369 . S
C1331 C1332 1.410 1_565 S
C1331 C1339 1.494 1_565 S
C1332 C1331 1.410 1_545 S
C1332 C1333 1.392 . S
C1332 C1335 1.511 . S
C1333 C1329 1.376 1_545 S
C1333 C1332 1.392 . S
C1333 H1345 0.929 . S
C1334 C1330 1.531 . S
C1334 H1346 0.960 . S
C1334 H1347 0.962 . S
C1334 H1348 0.960 . S
C1335 C1332 1.511 . S
C1335 H1349 0.961 . S
C1335 H1350 0.961 . S
C1335 H1351 0.961 . S
C1336 C1337 1.370 . S
C1336 C1338 1.363 . S
C1336 H1352 0.931 . S
C1337 C1336 1.370 . S
C1337 C1341 1.420 . S
C1338 C1336 1.363 . S
C1338 C1339 1.392 . S
C1338 C1342 1.524 . S
C1339 C1331 1.494 1_545 S
C1339 C1338 1.392 . S
C1339 C1340 1.392 1_545 S
C1340 C1339 1.392 1_565 S
C1340 C1341 1.398 1_565 S
C1340 C1343 1.539 . S
C1341 C1337 1.420 . S
C1341 C1340 1.398 1_545 S
C1341 H1353 0.925 1_545 S
C1342 C1338 1.524 . S
C1342 H1354 0.956 . S
C1342 H1355 0.961 . S
C1342 H1356 0.961 . S
C1343 C1340 1.539 . S
C1343 H1357 0.958 . S
C1343 H1358 0.961 . S
C1343 H1359 0.960 . S
H1344 C1328 0.931 . S
H1345 C1333 0.929 . S
H1346 C1334 0.960 . S
H1347 C1334 0.962 . S
H1348 C1334 0.960 . S
H1349 C1335 0.961 . S
H1350 C1335 0.961 . S
H1351 C1335 0.961 . S
H1352 C1336 0.931 . S
H1353 C1341 0.925 1_565 S
H1354 C1342 0.956 . S
H1355 C1342 0.961 . S
H1356 C1342 0.961 . S
H1357 C1343 0.958 . S
H1358 C1343 0.961 . S
H1359 C1343 0.960 . S
C1360 C1361 1.391 . S
C1360 C1362 1.394 . S
C1360 H1376 0.931 . S
C1361 C1360 1.391 . S
C1361 C1365 1.376 1_655 S
C1362 C1360 1.394 . S
C1362 C1363 1.349 1_655 S
C1362 C1366 1.531 . S
C1363 C1362 1.349 1_455 S
C1363 C1364 1.424 . S
C1363 C1371 1.508 . S
C1364 C1363 1.424 . S
C1364 C1365 1.392 . S
C1364 C1367 1.511 . S
C1365 C1361 1.376 1_455 S
C1365 C1364 1.392 . S
C1365 H1377 0.929 . S
C1366 C1362 1.531 . S
C1366 H1378 0.960 . S
C1366 H1379 0.962 . S
C1366 H1380 0.960 . S
C1367 C1364 1.511 . S
C1367 H1381 0.961 . S
C1367 H1382 0.961 . S
C1367 H1383 0.961 . S
C1368 C1369 1.370 1_655 S
C1368 C1370 1.363 . S
C1368 H1384 0.931 . S
C1369 C1368 1.370 1_455 S
C1369 C1373 1.408 . S
C1370 C1368 1.363 . S
C1370 C1371 1.370 1_655 S
C1370 C1374 1.524 . S
C1371 C1363 1.508 . S
C1371 C1370 1.370 1_455 S
C1371 C1372 1.403 . S
C1372 C1371 1.403 . S
C1372 C1373 1.404 . S
C1372 C1375 1.539 . S
C1373 C1369 1.408 . S
C1373 C1372 1.404 . S
C1373 H1385 0.930 . S
C1374 C1370 1.524 . S
C1374 H1386 0.956 . S
C1374 H1387 0.961 . S
C1374 H1388 0.961 . S
C1375 C1372 1.539 . S
C1375 H1389 0.958 . S
C1375 H1390 0.961 . S
C1375 H1391 0.960 . S
H1376 C1360 0.931 . S
H1377 C1365 0.929 . S
H1378 C1366 0.960 . S
H1379 C1366 0.962 . S
H1380 C1366 0.960 . S
H1381 C1367 0.961 . S
H1382 C1367 0.961 . S
H1383 C1367 0.961 . S
H1384 C1368 0.931 . S
H1385 C1373 0.930 . S
H1386 C1374 0.956 . S
H1387 C1374 0.961 . S
H1388 C1374 0.961 . S
H1389 C1375 0.958 . S
H1390 C1375 0.961 . S
H1391 C1375 0.960 . S
C1392 C1393 1.391 1_565 S
C1392 C1394 1.394 . S
C1392 H1408 0.931 . S
C1393 C1392 1.391 1_545 S
C1393 C1397 1.376 . S
C1394 C1392 1.394 . S
C1394 C1395 1.393 . S
C1394 C1398 1.531 . S
C1395 C1394 1.393 . S
C1395 C1396 1.376 1_565 S
C1395 C1403 1.511 . S
C1396 C1395 1.376 1_545 S
C1396 C1397 1.392 . S
C1396 C1399 1.511 . S
C1397 C1393 1.376 . S
C1397 C1396 1.392 . S
C1397 H1409 0.929 . S
C1398 C1394 1.531 . S
C1398 H1410 0.960 . S
C1398 H1411 0.962 . S
C1398 H1412 0.960 . S
C1399 C1396 1.511 . S
C1399 H1413 0.961 . S
C1399 H1414 0.961 . S
C1399 H1415 0.961 . S
C1400 C1401 1.370 1_545 S
C1400 C1402 1.363 . S
C1400 H1416 0.931 . S
C1401 C1400 1.370 1_565 S
C1401 C1405 1.408 . S
C1402 C1400 1.363 . S
C1402 C1403 1.370 1_545 S
C1402 C1406 1.524 . S
C1403 C1395 1.511 . S
C1403 C1402 1.370 1_565 S
C1403 C1404 1.403 . S
C1404 C1403 1.403 . S
C1404 C1405 1.404 . S
C1404 C1407 1.539 . S
C1405 C1401 1.408 . S
C1405 C1404 1.404 . S
C1405 H1417 0.930 . S
C1406 C1402 1.524 . S
C1406 H1418 0.956 . S
C1406 H1419 0.961 . S
C1406 H1420 0.961 . S
C1407 C1404 1.539 . S
C1407 H1421 0.958 . S
C1407 H1422 0.961 . S
C1407 H1423 0.960 . S
H1408 C1392 0.931 . S
H1409 C1397 0.929 . S
H1410 C1398 0.960 . S
H1411 C1398 0.962 . S
H1412 C1398 0.960 . S
H1413 C1399 0.961 . S
H1414 C1399 0.961 . S
H1415 C1399 0.961 . S
H1416 C1400 0.931 . S
H1417 C1405 0.930 . S
H1418 C1406 0.956 . S
H1419 C1406 0.961 . S
H1420 C1406 0.961 . S
H1421 C1407 0.958 . S
H1422 C1407 0.961 . S
H1423 C1407 0.960 . S
C1424 C1425 1.391 . S
C1424 C1426 1.394 . S
C1424 H1440 0.931 . S
C1425 C1424 1.391 . S
C1425 C1429 1.376 1_655 S
C1426 C1424 1.394 . S
C1426 C1427 1.369 1_655 S
C1426 C1430 1.531 . S
C1427 C1426 1.369 1_455 S
C1427 C1428 1.410 . S
C1427 C1435 1.503 . S
C1428 C1427 1.410 . S
C1428 C1429 1.392 . S
C1428 C1431 1.511 . S
C1429 C1425 1.376 1_455 S
C1429 C1428 1.392 . S
C1429 H1441 0.929 . S
C1430 C1426 1.531 . S
C1430 H1442 0.960 . S
C1430 H1443 0.962 . S
C1430 H1444 0.960 . S
C1431 C1428 1.511 . S
C1431 H1445 0.961 . S
C1431 H1446 0.961 . S
C1431 H1447 0.961 . S
C1432 C1433 1.370 1_655 S
C1432 C1434 1.363 . S
C1432 H1448 0.931 . S
C1433 C1432 1.370 1_455 S
C1433 C1437 1.408 . S
C1434 C1432 1.363 . S
C1434 C1435 1.370 1_655 S
C1434 C1438 1.524 . S
C1435 C1427 1.503 . S
C1435 C1434 1.370 1_455 S
C1435 C1436 1.403 . S
C1436 C1435 1.403 . S
C1436 C1437 1.404 . S
C1436 C1439 1.539 . S
C1437 C1433 1.408 . S
C1437 C1436 1.404 . S
C1437 H1449 0.930 . S
C1438 C1434 1.524 . S
C1438 H1450 0.956 . S
C1438 H1451 0.961 . S
C1438 H1452 0.961 . S
C1439 C1436 1.539 . S
C1439 H1453 0.958 . S
C1439 H1454 0.961 . S
C1439 H1455 0.960 . S
H1440 C1424 0.931 . S
H1441 C1429 0.929 . S
H1442 C1430 0.960 . S
H1443 C1430 0.962 . S
H1444 C1430 0.960 . S
H1445 C1431 0.961 . S
H1446 C1431 0.961 . S
H1447 C1431 0.961 . S
H1448 C1432 0.931 . S
H1449 C1437 0.930 . S
H1450 C1438 0.956 . S
H1451 C1438 0.961 . S
H1452 C1438 0.961 . S
H1453 C1439 0.958 . S
H1454 C1439 0.961 . S
H1455 C1439 0.960 . S
C1456 C1457 1.391 1_565 S
C1456 C1458 1.394 . S
C1456 H1472 0.931 . S
C1457 C1456 1.391 1_545 S
C1457 C1461 1.376 . S
C1458 C1456 1.394 . S
C1458 C1459 1.369 . S
C1458 C1462 1.531 . S
C1459 C1458 1.369 . S
C1459 C1460 1.410 1_565 S
C1459 C1467 1.503 . S
C1460 C1459 1.410 1_545 S
C1460 C1461 1.392 . S
C1460 C1463 1.511 . S
C1461 C1457 1.376 . S
C1461 C1460 1.392 . S
C1461 H1473 0.929 . S
C1462 C1458 1.531 . S
C1462 H1474 0.960 . S
C1462 H1475 0.962 . S
C1462 H1476 0.960 . S
C1463 C1460 1.511 . S
C1463 H1477 0.961 . S
C1463 H1478 0.961 . S
C1463 H1479 0.961 . S
C1464 C1465 1.370 1_545 S
C1464 C1466 1.363 . S
C1464 H1480 0.931 . S
C1465 C1464 1.370 1_565 S
C1465 C1469 1.408 . S
C1466 C1464 1.363 . S
C1466 C1467 1.370 1_545 S
C1466 C1470 1.524 . S
C1467 C1459 1.503 . S
C1467 C1466 1.370 1_565 S
C1467 C1468 1.403 . S
C1468 C1467 1.403 . S
C1468 C1469 1.404 . S
C1468 C1471 1.539 . S
C1469 C1465 1.408 . S
C1469 C1468 1.404 . S
C1469 H1481 0.930 . S
C1470 C1466 1.524 . S
C1470 H1482 0.956 . S
C1470 H1483 0.961 . S
C1470 H1484 0.961 . S
C1471 C1468 1.539 . S
C1471 H1485 0.958 . S
C1471 H1486 0.961 . S
C1471 H1487 0.960 . S
H1472 C1456 0.931 . S
H1473 C1461 0.929 . S
H1474 C1462 0.960 . S
H1475 C1462 0.962 . S
H1476 C1462 0.960 . S
H1477 C1463 0.961 . S
H1478 C1463 0.961 . S
H1479 C1463 0.961 . S
H1480 C1464 0.931 . S
H1481 C1469 0.930 . S
H1482 C1470 0.956 . S
H1483 C1470 0.961 . S
H1484 C1470 0.961 . S
H1485 C1471 0.958 . S
H1486 C1471 0.961 . S
H1487 C1471 0.960 . S
C1488 C1489 1.391 . S
C1488 C1490 1.394 . S
C1488 H1504 0.931 . S
C1489 C1488 1.391 . S
C1489 C1493 1.376 1_455 S
C1490 C1488 1.394 . S
C1490 C1491 1.356 1_455 S
C1490 C1494 1.531 . S
C1491 C1490 1.356 1_655 S
C1491 C1492 1.421 . S
C1491 C1499 1.505 . S
C1492 C1491 1.421 . S
C1492 C1493 1.392 . S
C1492 C1495 1.511 . S
C1493 C1489 1.376 1_655 S
C1493 C1492 1.392 . S
C1493 H1505 0.929 . S
C1494 C1490 1.531 . S
C1494 H1506 0.960 . S
C1494 H1507 0.962 . S
C1494 H1508 0.960 . S
C1495 C1492 1.511 . S
C1495 H1509 0.961 . S
C1495 H1510 0.961 . S
C1495 H1511 0.961 . S
C1496 C1497 1.370 1_455 S
C1496 C1498 1.363 . S
C1496 H1512 0.931 . S
C1497 C1496 1.370 1_655 S
C1497 C1501 1.408 . S
C1498 C1496 1.363 . S
C1498 C1499 1.370 1_455 S
C1498 C1502 1.524 . S
C1499 C1491 1.505 . S
C1499 C1498 1.370 1_655 S
C1499 C1500 1.403 . S
C1500 C1499 1.403 . S
C1500 C1501 1.404 . S
C1500 C1503 1.539 . S
C1501 C1497 1.408 . S
C1501 C1500 1.404 . S
C1501 H1513 0.930 . S
C1502 C1498 1.524 . S
C1502 H1514 0.956 . S
C1502 H1515 0.961 . S
C1502 H1516 0.961 . S
C1503 C1500 1.539 . S
C1503 H1517 0.958 . S
C1503 H1518 0.961 . S
C1503 H1519 0.960 . S
H1504 C1488 0.931 . S
H1505 C1493 0.929 . S
H1506 C1494 0.960 . S
H1507 C1494 0.962 . S
H1508 C1494 0.960 . S
H1509 C1495 0.961 . S
H1510 C1495 0.961 . S
H1511 C1495 0.961 . S
H1512 C1496 0.931 . S
H1513 C1501 0.930 . S
H1514 C1502 0.956 . S
H1515 C1502 0.961 . S
H1516 C1502 0.961 . S
H1517 C1503 0.958 . S
H1518 C1503 0.961 . S
H1519 C1503 0.960 . S
C1520 C1521 1.391 1_545 S
C1520 C1522 1.394 . S
C1520 H1536 0.931 . S
C1521 C1520 1.391 1_565 S
C1521 C1525 1.376 . S
C1522 C1520 1.394 . S
C1522 C1523 1.369 . S
C1522 C1526 1.531 . S
C1523 C1522 1.369 . S
C1523 C1524 1.410 1_545 S
C1523 C1531 1.503 . S
C1524 C1523 1.410 1_565 S
C1524 C1525 1.392 . S
C1524 C1527 1.511 . S
C1525 C1521 1.376 . S
C1525 C1524 1.392 . S
C1525 H1537 0.929 . S
C1526 C1522 1.531 . S
C1526 H1538 0.960 . S
C1526 H1539 0.962 . S
C1526 H1540 0.960 . S
C1527 C1524 1.511 . S
C1527 H1541 0.961 . S
C1527 H1542 0.961 . S
C1527 H1543 0.961 . S
C1528 C1529 1.370 1_565 S
C1528 C1530 1.363 . S
C1528 H1544 0.931 . S
C1529 C1528 1.370 1_545 S
C1529 C1533 1.408 . S
C1530 C1528 1.363 . S
C1530 C1531 1.370 1_565 S
C1530 C1534 1.524 . S
C1531 C1523 1.503 . S
C1531 C1530 1.370 1_545 S
C1531 C1532 1.403 . S
C1532 C1531 1.403 . S
C1532 C1533 1.404 . S
C1532 C1535 1.539 . S
C1533 C1529 1.408 . S
C1533 C1532 1.404 . S
C1533 H1545 0.930 . S
C1534 C1530 1.524 . S
C1534 H1546 0.956 . S
C1534 H1547 0.961 . S
C1534 H1548 0.961 . S
C1535 C1532 1.539 . S
C1535 H1549 0.958 . S
C1535 H1550 0.961 . S
C1535 H1551 0.960 . S
H1536 C1520 0.931 . S
H1537 C1525 0.929 . S
H1538 C1526 0.960 . S
H1539 C1526 0.962 . S
H1540 C1526 0.960 . S
H1541 C1527 0.961 . S
H1542 C1527 0.961 . S
H1543 C1527 0.961 . S
H1544 C1528 0.931 . S
H1545 C1533 0.930 . S
H1546 C1534 0.956 . S
H1547 C1534 0.961 . S
H1548 C1534 0.961 . S
H1549 C1535 0.958 . S
H1550 C1535 0.961 . S
H1551 C1535 0.960 . S
C1552 C1553 1.391 . S
C1552 C1554 1.394 . S
C1552 H1568 0.931 . S
C1553 C1552 1.391 . S
C1553 C1557 1.376 . S
C1554 C1552 1.394 . S
C1554 C1555 1.369 . S
C1554 C1558 1.531 . S
C1555 C1554 1.369 . S
C1555 C1556 1.410 . S
C1555 C1563 1.503 . S
C1556 C1555 1.410 . S
C1556 C1557 1.392 . S
C1556 C1559 1.511 . S
C1557 C1553 1.376 . S
C1557 C1556 1.392 . S
C1557 H1569 0.929 . S
C1558 C1554 1.531 . S
C1558 H1570 0.960 . S
C1558 H1571 0.962 . S
C1558 H1572 0.960 . S
C1559 C1556 1.511 . S
C1559 H1573 0.961 . S
C1559 H1574 0.961 . S
C1559 H1575 0.961 . S
C1560 C1561 1.370 . S
C1560 C1562 1.363 . S
C1560 H1576 0.931 . S
C1561 C1560 1.370 . S
C1561 C1565 1.408 . S
C1562 C1560 1.363 . S
C1562 C1563 1.370 . S
C1562 C1566 1.524 . S
C1563 C1555 1.503 . S
C1563 C1562 1.370 . S
C1563 C1564 1.403 . S
C1564 C1563 1.403 . S
C1564 C1565 1.404 . S
C1564 C1567 1.539 . S
C1565 C1561 1.408 . S
C1565 C1564 1.404 . S
C1565 H1577 0.930 . S
C1566 C1562 1.524 . S
C1566 H1578 0.956 . S
C1566 H1579 0.961 . S
C1566 H1580 0.961 . S
C1567 C1564 1.539 . S
C1567 H1581 0.958 . S
C1567 H1582 0.961 . S
C1567 H1583 0.960 . S
H1568 C1552 0.931 . S
H1569 C1557 0.929 . S
H1570 C1558 0.960 . S
H1571 C1558 0.962 . S
H1572 C1558 0.960 . S
H1573 C1559 0.961 . S
H1574 C1559 0.961 . S
H1575 C1559 0.961 . S
H1576 C1560 0.931 . S
H1577 C1565 0.930 . S
H1578 C1566 0.956 . S
H1579 C1566 0.961 . S
H1580 C1566 0.961 . S
H1581 C1567 0.958 . S
H1582 C1567 0.961 . S
H1583 C1567 0.960 . S
C1584 C1585 1.391 . S
C1584 C1586 1.394 . S
C1584 H1600 0.931 . S
C1585 C1584 1.391 . S
C1585 C1589 1.376 . S
C1586 C1584 1.394 . S
C1586 C1587 1.369 . S
C1586 C1590 1.531 . S
C1587 C1586 1.369 . S
C1587 C1588 1.410 . S
C1587 C1595 1.503 . S
C1588 C1587 1.410 . S
C1588 C1589 1.392 . S
C1588 C1591 1.511 . S
C1589 C1585 1.376 . S
C1589 C1588 1.392 . S
C1589 H1601 0.929 . S
C1590 C1586 1.531 . S
C1590 H1602 0.960 . S
C1590 H1603 0.962 . S
C1590 H1604 0.960 . S
C1591 C1588 1.511 . S
C1591 H1605 0.961 . S
C1591 H1606 0.961 . S
C1591 H1607 0.961 . S
C1592 C1593 1.370 . S
C1592 C1594 1.363 . S
C1592 H1608 0.931 . S
C1593 C1592 1.370 . S
C1593 C1597 1.408 . S
C1594 C1592 1.363 . S
C1594 C1595 1.370 . S
C1594 C1598 1.524 . S
C1595 C1587 1.503 . S
C1595 C1594 1.370 . S
C1595 C1596 1.403 . S
C1596 C1595 1.403 . S
C1596 C1597 1.404 . S
C1596 C1599 1.539 . S
C1597 C1593 1.408 . S
C1597 C1596 1.404 . S
C1597 H1609 0.930 . S
C1598 C1594 1.524 . S
C1598 H1610 0.956 . S
C1598 H1611 0.961 . S
C1598 H1612 0.961 . S
C1599 C1596 1.539 . S
C1599 H1613 0.958 . S
C1599 H1614 0.961 . S
C1599 H1615 0.960 . S
H1600 C1584 0.931 . S
H1601 C1589 0.929 . S
H1602 C1590 0.960 . S
H1603 C1590 0.962 . S
H1604 C1590 0.960 . S
H1605 C1591 0.961 . S
H1606 C1591 0.961 . S
H1607 C1591 0.961 . S
H1608 C1592 0.931 . S
H1609 C1597 0.930 . S
H1610 C1598 0.956 . S
H1611 C1598 0.961 . S
H1612 C1598 0.961 . S
H1613 C1599 0.958 . S
H1614 C1599 0.961 . S
H1615 C1599 0.960 . S
C1616 C1617 1.391 . S
C1616 C1618 1.394 . S
C1616 H1632 0.931 . S
C1617 C1616 1.391 . S
C1617 C1621 1.376 . S
C1618 C1616 1.394 . S
C1618 C1619 1.369 . S
C1618 C1622 1.531 . S
C1619 C1618 1.369 . S
C1619 C1620 1.410 . S
C1619 C1627 1.503 . S
C1620 C1619 1.410 . S
C1620 C1621 1.392 . S
C1620 C1623 1.511 . S
C1621 C1617 1.376 . S
C1621 C1620 1.392 . S
C1621 H1633 0.929 . S
C1622 C1618 1.531 . S
C1622 H1634 0.960 . S
C1622 H1635 0.962 . S
C1622 H1636 0.960 . S
C1623 C1620 1.511 . S
C1623 H1637 0.961 . S
C1623 H1638 0.961 . S
C1623 H1639 0.961 . S
C1624 C1625 1.370 . S
C1624 C1626 1.363 . S
C1624 H1640 0.931 . S
C1625 C1624 1.370 . S
C1625 C1629 1.408 . S
C1626 C1624 1.363 . S
C1626 C1627 1.370 . S
C1626 C1630 1.524 . S
C1627 C1619 1.503 . S
C1627 C1626 1.370 . S
C1627 C1628 1.403 . S
C1628 C1627 1.403 . S
C1628 C1629 1.404 . S
C1628 C1631 1.539 . S
C1629 C1625 1.408 . S
C1629 C1628 1.404 . S
C1629 H1641 0.930 . S
C1630 C1626 1.524 . S
C1630 H1642 0.956 . S
C1630 H1643 0.961 . S
C1630 H1644 0.961 . S
C1631 C1628 1.539 . S
C1631 H1645 0.958 . S
C1631 H1646 0.961 . S
C1631 H1647 0.960 . S
H1632 C1616 0.931 . S
H1633 C1621 0.929 . S
H1634 C1622 0.960 . S
H1635 C1622 0.962 . S
H1636 C1622 0.960 . S
H1637 C1623 0.961 . S
H1638 C1623 0.961 . S
H1639 C1623 0.961 . S
H1640 C1624 0.931 . S
H1641 C1629 0.930 . S
H1642 C1630 0.956 . S
H1643 C1630 0.961 . S
H1644 C1630 0.961 . S
H1645 C1631 0.958 . S
H1646 C1631 0.961 . S
H1647 C1631 0.960 . S
C1648 C1649 1.391 . S
C1648 C1650 1.394 . S
C1648 H1664 0.931 . S
C1649 C1648 1.391 . S
C1649 C1653 1.376 . S
C1650 C1648 1.394 . S
C1650 C1651 1.369 . S
C1650 C1654 1.531 . S
C1651 C1650 1.369 . S
C1651 C1652 1.410 . S
C1651 C1659 1.503 . S
C1652 C1651 1.410 . S
C1652 C1653 1.392 . S
C1652 C1655 1.511 . S
C1653 C1649 1.376 . S
C1653 C1652 1.392 . S
C1653 H1665 0.929 . S
C1654 C1650 1.531 . S
C1654 H1666 0.960 . S
C1654 H1667 0.962 . S
C1654 H1668 0.960 . S
C1655 C1652 1.511 . S
C1655 H1669 0.961 . S
C1655 H1670 0.961 . S
C1655 H1671 0.961 . S
C1656 C1657 1.370 . S
C1656 C1658 1.363 . S
C1656 H1672 0.931 . S
C1657 C1656 1.370 . S
C1657 C1661 1.408 . S
C1658 C1656 1.363 . S
C1658 C1659 1.370 . S
C1658 C1662 1.524 . S
C1659 C1651 1.503 . S
C1659 C1658 1.370 . S
C1659 C1660 1.403 . S
C1660 C1659 1.403 . S
C1660 C1661 1.404 . S
C1660 C1663 1.539 . S
C1661 C1657 1.408 . S
C1661 C1660 1.404 . S
C1661 H1673 0.930 . S
C1662 C1658 1.524 . S
C1662 H1674 0.956 . S
C1662 H1675 0.961 . S
C1662 H1676 0.961 . S
C1663 C1660 1.539 . S
C1663 H1677 0.958 . S
C1663 H1678 0.961 . S
C1663 H1679 0.960 . S
H1664 C1648 0.931 . S
H1665 C1653 0.929 . S
H1666 C1654 0.960 . S
H1667 C1654 0.962 . S
H1668 C1654 0.960 . S
H1669 C1655 0.961 . S
H1670 C1655 0.961 . S
H1671 C1655 0.961 . S
H1672 C1656 0.931 . S
H1673 C1661 0.930 . S
H1674 C1662 0.956 . S
H1675 C1662 0.961 . S
H1676 C1662 0.961 . S
H1677 C1663 0.958 . S
H1678 C1663 0.961 . S
H1679 C1663 0.960 . S
C1680 C1681 1.391 . S
C1680 C1682 1.394 . S
C1680 H1696 0.931 . S
C1681 C1680 1.391 . S
C1681 C1685 1.376 . S
C1682 C1680 1.394 . S
C1682 C1683 1.369 . S
C1682 C1686 1.531 . S
C1683 C1682 1.369 . S
C1683 C1684 1.410 . S
C1683 C1691 1.503 . S
C1684 C1683 1.410 . S
C1684 C1685 1.392 . S
C1684 C1687 1.511 . S
C1685 C1681 1.376 . S
C1685 C1684 1.392 . S
C1685 H1697 0.929 . S
C1686 C1682 1.531 . S
C1686 H1698 0.960 . S
C1686 H1699 0.962 . S
C1686 H1700 0.960 . S
C1687 C1684 1.511 . S
C1687 H1701 0.961 . S
C1687 H1702 0.961 . S
C1687 H1703 0.961 . S
C1688 C1689 1.370 . S
C1688 C1690 1.363 . S
C1688 H1704 0.931 . S
C1689 C1688 1.370 . S
C1689 C1693 1.408 . S
C1690 C1688 1.363 . S
C1690 C1691 1.370 . S
C1690 C1694 1.524 . S
C1691 C1683 1.503 . S
C1691 C1690 1.370 . S
C1691 C1692 1.403 . S
C1692 C1691 1.403 . S
C1692 C1693 1.404 . S
C1692 C1695 1.539 . S
C1693 C1689 1.408 . S
C1693 C1692 1.404 . S
C1693 H1705 0.930 . S
C1694 C1690 1.524 . S
C1694 H1706 0.956 . S
C1694 H1707 0.961 . S
C1694 H1708 0.961 . S
C1695 C1692 1.539 . S
C1695 H1709 0.958 . S
C1695 H1710 0.961 . S
C1695 H1711 0.960 . S
H1696 C1680 0.931 . S
H1697 C1685 0.929 . S
H1698 C1686 0.960 . S
H1699 C1686 0.962 . S
H1700 C1686 0.960 . S
H1701 C1687 0.961 . S
H1702 C1687 0.961 . S
H1703 C1687 0.961 . S
H1704 C1688 0.931 . S
H1705 C1693 0.930 . S
H1706 C1694 0.956 . S
H1707 C1694 0.961 . S
H1708 C1694 0.961 . S
H1709 C1695 0.958 . S
H1710 C1695 0.961 . S
H1711 C1695 0.960 . S
C1712 C1713 1.391 . S
C1712 C1714 1.394 . S
C1712 H1728 0.931 . S
C1713 C1712 1.391 . S
C1713 C1717 1.376 . S
C1714 C1712 1.394 . S
C1714 C1715 1.369 . S
C1714 C1718 1.531 . S
C1715 C1714 1.369 . S
C1715 C1716 1.410 . S
C1715 C1723 1.503 . S
C1716 C1715 1.410 . S
C1716 C1717 1.392 . S
C1716 C1719 1.511 . S
C1717 C1713 1.376 . S
C1717 C1716 1.392 . S
C1717 H1729 0.929 . S
C1718 C1714 1.531 . S
C1718 H1730 0.960 . S
C1718 H1731 0.962 . S
C1718 H1732 0.960 . S
C1719 C1716 1.511 . S
C1719 H1733 0.961 . S
C1719 H1734 0.961 . S
C1719 H1735 0.961 . S
C1720 C1721 1.370 . S
C1720 C1722 1.363 . S
C1720 H1736 0.931 . S
C1721 C1720 1.370 . S
C1721 C1725 1.408 . S
C1722 C1720 1.363 . S
C1722 C1723 1.370 . S
C1722 C1726 1.524 . S
C1723 C1715 1.503 . S
C1723 C1722 1.370 . S
C1723 C1724 1.403 . S
C1724 C1723 1.403 . S
C1724 C1725 1.404 . S
C1724 C1727 1.539 . S
C1725 C1721 1.408 . S
C1725 C1724 1.404 . S
C1725 H1737 0.930 . S
C1726 C1722 1.524 . S
C1726 H1738 0.956 . S
C1726 H1739 0.961 . S
C1726 H1740 0.961 . S
C1727 C1724 1.539 . S
C1727 H1741 0.958 . S
C1727 H1742 0.961 . S
C1727 H1743 0.960 . S
H1728 C1712 0.931 . S
H1729 C1717 0.929 . S
H1730 C1718 0.960 . S
H1731 C1718 0.962 . S
H1732 C1718 0.960 . S
H1733 C1719 0.961 . S
H1734 C1719 0.961 . S
H1735 C1719 0.961 . S
H1736 C1720 0.931 . S
H1737 C1725 0.930 . S
H1738 C1726 0.956 . S
H1739 C1726 0.961 . S
H1740 C1726 0.961 . S
H1741 C1727 0.958 . S
H1742 C1727 0.961 . S
H1743 C1727 0.960 . S
C1744 C1745 1.391 . S
C1744 C1746 1.394 . S
C1744 H1760 0.931 . S
C1745 C1744 1.391 . S
C1745 C1749 1.376 . S
C1746 C1744 1.394 . S
C1746 C1747 1.369 . S
C1746 C1750 1.531 . S
C1747 C1746 1.369 . S
C1747 C1748 1.410 . S
C1747 C1755 1.503 . S
C1748 C1747 1.410 . S
C1748 C1749 1.392 . S
C1748 C1751 1.511 . S
C1749 C1745 1.376 . S
C1749 C1748 1.392 . S
C1749 H1761 0.929 . S
C1750 C1746 1.531 . S
C1750 H1762 0.960 . S
C1750 H1763 0.962 . S
C1750 H1764 0.960 . S
C1751 C1748 1.511 . S
C1751 H1765 0.961 . S
C1751 H1766 0.961 . S
C1751 H1767 0.961 . S
C1752 C1753 1.370 . S
C1752 C1754 1.363 . S
C1752 H1768 0.931 . S
C1753 C1752 1.370 . S
C1753 C1757 1.408 . S
C1754 C1752 1.363 . S
C1754 C1755 1.370 . S
C1754 C1758 1.524 . S
C1755 C1747 1.503 . S
C1755 C1754 1.370 . S
C1755 C1756 1.403 . S
C1756 C1755 1.403 . S
C1756 C1757 1.404 . S
C1756 C1759 1.539 . S
C1757 C1753 1.408 . S
C1757 C1756 1.404 . S
C1757 H1769 0.930 . S
C1758 C1754 1.524 . S
C1758 H1770 0.956 . S
C1758 H1771 0.961 . S
C1758 H1772 0.961 . S
C1759 C1756 1.539 . S
C1759 H1773 0.958 . S
C1759 H1774 0.961 . S
C1759 H1775 0.960 . S
H1760 C1744 0.931 . S
H1761 C1749 0.929 . S
H1762 C1750 0.960 . S
H1763 C1750 0.962 . S
H1764 C1750 0.960 . S
H1765 C1751 0.961 . S
H1766 C1751 0.961 . S
H1767 C1751 0.961 . S
H1768 C1752 0.931 . S
H1769 C1757 0.930 . S
H1770 C1758 0.956 . S
H1771 C1758 0.961 . S
H1772 C1758 0.961 . S
H1773 C1759 0.958 . S
H1774 C1759 0.961 . S
H1775 C1759 0.960 . S
C1776 C1777 1.391 . S
C1776 C1778 1.394 . S
C1776 H1792 0.931 . S
C1777 C1776 1.391 . S
C1777 C1781 1.376 . S
C1778 C1776 1.394 . S
C1778 C1779 1.369 . S
C1778 C1782 1.531 . S
C1779 C1778 1.369 . S
C1779 C1780 1.410 . S
C1779 C1787 1.503 . S
C1780 C1779 1.410 . S
C1780 C1781 1.392 . S
C1780 C1783 1.511 . S
C1781 C1777 1.376 . S
C1781 C1780 1.392 . S
C1781 H1793 0.929 . S
C1782 C1778 1.531 . S
C1782 H1794 0.960 . S
C1782 H1795 0.962 . S
C1782 H1796 0.960 . S
C1783 C1780 1.511 . S
C1783 H1797 0.961 . S
C1783 H1798 0.961 . S
C1783 H1799 0.961 . S
C1784 C1785 1.370 . S
C1784 C1786 1.363 . S
C1784 H1800 0.931 . S
C1785 C1784 1.370 . S
C1785 C1789 1.408 . S
C1786 C1784 1.363 . S
C1786 C1787 1.370 . S
C1786 C1790 1.524 . S
C1787 C1779 1.503 . S
C1787 C1786 1.370 . S
C1787 C1788 1.403 . S
C1788 C1787 1.403 . S
C1788 C1789 1.404 . S
C1788 C1791 1.539 . S
C1789 C1785 1.408 . S
C1789 C1788 1.404 . S
C1789 H1801 0.930 . S
C1790 C1786 1.524 . S
C1790 H1802 0.956 . S
C1790 H1803 0.961 . S
C1790 H1804 0.961 . S
C1791 C1788 1.539 . S
C1791 H1805 0.958 . S
C1791 H1806 0.961 . S
C1791 H1807 0.960 . S
H1792 C1776 0.931 . S
H1793 C1781 0.929 . S
H1794 C1782 0.960 . S
H1795 C1782 0.962 . S
H1796 C1782 0.960 . S
H1797 C1783 0.961 . S
H1798 C1783 0.961 . S
H1799 C1783 0.961 . S
H1800 C1784 0.931 . S
H1801 C1789 0.930 . S
H1802 C1790 0.956 . S
H1803 C1790 0.961 . S
H1804 C1790 0.961 . S
H1805 C1791 0.958 . S
H1806 C1791 0.961 . S
H1807 C1791 0.960 . S
C529 N5 1.287 . S
C537 N500 1.312 . S
C561 N38 1.346 . S
C569 N401 1.312 . S
C593 N434 1.331 . S
C601 N71 1.324 . S
C625 N104 1.339 . S
C633 N467 1.320 . S
C657 N137 1.344 . S
C665 N302 1.315 . S
C689 N335 1.345 . S
C697 N170 1.307 . S
C721 N368 1.342 . S
C729 N203 1.304 . S
C753 N269 1.346 . S
C761 N236 1.307 . S
C785 N113 1.545 1_556 S
C793 C17 1.623 . S
C817 N14 1.536 1_556 S
C825 C50 1.622 . S
C849 C83 1.614 . S
C857 N47 1.569 1_556 S
C881 C116 1.618 1_556 S
C889 N80 1.578 1_556 S
C913 N179 1.575 . S
C921 C149 1.621 . S
C945 N212 1.541 . S
C953 C182 1.623 . S
C977 N245 1.549 . S
C985 C215 1.623 . S
C1009 N146 1.558 . S
C1017 C248 1.623 . S
C1041 N377 1.537 . S
C1049 C281 1.622 . S
C1073 C314 1.615 . S
C1081 N278 1.562 . S
C1105 N311 1.536 . S
C1113 C347 1.622 . S
C1137 N344 1.592 . S
C1145 C380 1.622 . S
C1169 N443 1.581 . S
C1177 C413 1.621 . S
C1201 N476 1.537 . S
C1209 C446 1.622 . S
C1233 N509 1.586 . S
C1241 C479 1.621 . S
C1265 N410 1.577 . S
C1273 C512 1.621 . S
C1297 C226 1.744 . S
C1305 C28 1.759 . S
C1329 C259 1.782 . S
C1337 C61 1.776 . S
C1361 C94 1.778 . S
C1369 C160 1.773 . S
C1393 C193 1.747 . S
C1401 C127 1.760 . S
C1425 C74 0.711 . S
C1433 C140 0.673 . S
C1457 C173 0.758 . S
C1465 C107 0.704 . S
C1489 C8 0.672 . S
C1497 C206 0.670 . S
C1521 C239 0.758 . S
C1529 C41 0.705 . S
C1553 C490 1.750 . S
C1561 C292 1.763 . S
C1585 C523 1.752 . S
C1593 C325 1.762 . S
C1617 C424 1.765 . S
C1625 C358 1.770 . S
C1649 C391 1.777 . S
C1657 C457 1.774 . S
C1681 C404 0.695 . S
C1689 C338 0.721 . S
C1713 C371 0.751 . S
C1721 C437 0.690 . S
C1745 C272 0.722 . S
C1753 C470 0.675 . S
C1777 C503 0.637 . S
C1785 C305 0.699 . S
