# Generated by pormake.
# Topology wio, (6)-cn, num edge types: 1
# Building blocks:
#     Node 0, Type 0, BuildingBlock: MIFKUJ_clean_sbu_0, # of connection points: 6
#     Node 1, Type 0, BuildingBlock: MIFKUJ_clean_sbu_0, # of connection points: 6
#     Node 2, Type 0, BuildingBlock: MIFKUJ_clean_sbu_0, # of connection points: 6
#     Node 3, Type 0, BuildingBlock: MIFKUJ_clean_sbu_0, # of connection points: 6
#     Node 4, Type 0, BuildingBlock: MIFKUJ_clean_sbu_0, # of connection points: 6
#     Node 5, Type 0, BuildingBlock: MIFKUJ_clean_sbu_0, # of connection points: 6
#     Node 6, Type 0, BuildingBlock: MIFKUJ_clean_sbu_0, # of connection points: 6
#     Node 7, Type 0, BuildingBlock: MIFKUJ_clean_sbu_0, # of connection points: 6
#     Node 8, Type 0, BuildingBlock: MIFKUJ_clean_sbu_0, # of connection points: 6
#     Node 9, Type 0, BuildingBlock: MIFKUJ_clean_sbu_0, # of connection points: 6
#     Node 10, Type 0, BuildingBlock: MIFKUJ_clean_sbu_0, # of connection points: 6
#     Node 11, Type 0, BuildingBlock: MIFKUJ_clean_sbu_0, # of connection points: 6
#     Node 12, Type 0, BuildingBlock: MIFKUJ_clean_sbu_0, # of connection points: 6
#     Node 13, Type 0, BuildingBlock: MIFKUJ_clean_sbu_0, # of connection points: 6
#     Node 14, Type 0, BuildingBlock: MIFKUJ_clean_sbu_0, # of connection points: 6
#     Node 15, Type 0, BuildingBlock: MIFKUJ_clean_sbu_0, # of connection points: 6
#     Node 16, Type 0, BuildingBlock: MIFKUJ_clean_sbu_0, # of connection points: 6
#     Node 17, Type 0, BuildingBlock: MIFKUJ_clean_sbu_0, # of connection points: 6
#     Node 18, Type 0, BuildingBlock: MIFKUJ_clean_sbu_0, # of connection points: 6
#     Node 19, Type 0, BuildingBlock: MIFKUJ_clean_sbu_0, # of connection points: 6
#     Node 20, Type 0, BuildingBlock: MIFKUJ_clean_sbu_0, # of connection points: 6
#     Node 21, Type 0, BuildingBlock: MIFKUJ_clean_sbu_0, # of connection points: 6
#     Node 22, Type 0, BuildingBlock: MIFKUJ_clean_sbu_0, # of connection points: 6
#     Node 23, Type 0, BuildingBlock: MIFKUJ_clean_sbu_0, # of connection points: 6
#     Node 24, Type 0, BuildingBlock: MIFKUJ_clean_sbu_0, # of connection points: 6
#     Node 25, Type 0, BuildingBlock: MIFKUJ_clean_sbu_0, # of connection points: 6
#     Node 26, Type 0, BuildingBlock: MIFKUJ_clean_sbu_0, # of connection points: 6
#     Node 27, Type 0, BuildingBlock: MIFKUJ_clean_sbu_0, # of connection points: 6
#     Node 28, Type 0, BuildingBlock: MIFKUJ_clean_sbu_0, # of connection points: 6
#     Node 29, Type 0, BuildingBlock: MIFKUJ_clean_sbu_0, # of connection points: 6
#     Node 30, Type 0, BuildingBlock: MIFKUJ_clean_sbu_0, # of connection points: 6
#     Node 31, Type 0, BuildingBlock: MIFKUJ_clean_sbu_0, # of connection points: 6
#     Edge 32, Type (0, 0), BuildingBlock: TEMPAE_clean_linker_10, # of connection points: 2
#     Edge 33, Type (0, 0), BuildingBlock: TEMPAE_clean_linker_10, # of connection points: 2
#     Edge 34, Type (0, 0), BuildingBlock: TEMPAE_clean_linker_10, # of connection points: 2
#     Edge 35, Type (0, 0), BuildingBlock: TEMPAE_clean_linker_10, # of connection points: 2
#     Edge 36, Type (0, 0), BuildingBlock: TEMPAE_clean_linker_10, # of connection points: 2
#     Edge 37, Type (0, 0), BuildingBlock: TEMPAE_clean_linker_10, # of connection points: 2
#     Edge 38, Type (0, 0), BuildingBlock: TEMPAE_clean_linker_10, # of connection points: 2
#     Edge 39, Type (0, 0), BuildingBlock: TEMPAE_clean_linker_10, # of connection points: 2
#     Edge 40, Type (0, 0), BuildingBlock: TEMPAE_clean_linker_10, # of connection points: 2
#     Edge 41, Type (0, 0), BuildingBlock: TEMPAE_clean_linker_10, # of connection points: 2
#     Edge 42, Type (0, 0), BuildingBlock: TEMPAE_clean_linker_10, # of connection points: 2
#     Edge 43, Type (0, 0), BuildingBlock: TEMPAE_clean_linker_10, # of connection points: 2
#     Edge 44, Type (0, 0), BuildingBlock: TEMPAE_clean_linker_10, # of connection points: 2
#     Edge 45, Type (0, 0), BuildingBlock: TEMPAE_clean_linker_10, # of connection points: 2
#     Edge 46, Type (0, 0), BuildingBlock: TEMPAE_clean_linker_10, # of connection points: 2
#     Edge 47, Type (0, 0), BuildingBlock: TEMPAE_clean_linker_10, # of connection points: 2
#     Edge 48, Type (0, 0), BuildingBlock: TEMPAE_clean_linker_10, # of connection points: 2
#     Edge 49, Type (0, 0), BuildingBlock: TEMPAE_clean_linker_10, # of connection points: 2
#     Edge 50, Type (0, 0), BuildingBlock: TEMPAE_clean_linker_10, # of connection points: 2
#     Edge 51, Type (0, 0), BuildingBlock: TEMPAE_clean_linker_10, # of connection points: 2
#     Edge 52, Type (0, 0), BuildingBlock: TEMPAE_clean_linker_10, # of connection points: 2
#     Edge 53, Type (0, 0), BuildingBlock: TEMPAE_clean_linker_10, # of connection points: 2
#     Edge 54, Type (0, 0), BuildingBlock: TEMPAE_clean_linker_10, # of connection points: 2
#     Edge 55, Type (0, 0), BuildingBlock: TEMPAE_clean_linker_10, # of connection points: 2
#     Edge 56, Type (0, 0), BuildingBlock: TEMPAE_clean_linker_10, # of connection points: 2
#     Edge 57, Type (0, 0), BuildingBlock: TEMPAE_clean_linker_10, # of connection points: 2
#     Edge 58, Type (0, 0), BuildingBlock: TEMPAE_clean_linker_10, # of connection points: 2
#     Edge 59, Type (0, 0), BuildingBlock: TEMPAE_clean_linker_10, # of connection points: 2
#     Edge 60, Type (0, 0), BuildingBlock: TEMPAE_clean_linker_10, # of connection points: 2
#     Edge 61, Type (0, 0), BuildingBlock: TEMPAE_clean_linker_10, # of connection points: 2
#     Edge 62, Type (0, 0), BuildingBlock: TEMPAE_clean_linker_10, # of connection points: 2
#     Edge 63, Type (0, 0), BuildingBlock: TEMPAE_clean_linker_10, # of connection points: 2
#     Edge 64, Type (0, 0), BuildingBlock: TEMPAE_clean_linker_10, # of connection points: 2
#     Edge 65, Type (0, 0), BuildingBlock: TEMPAE_clean_linker_10, # of connection points: 2
#     Edge 66, Type (0, 0), BuildingBlock: TEMPAE_clean_linker_10, # of connection points: 2
#     Edge 67, Type (0, 0), BuildingBlock: TEMPAE_clean_linker_10, # of connection points: 2
#     Edge 68, Type (0, 0), BuildingBlock: TEMPAE_clean_linker_10, # of connection points: 2
#     Edge 69, Type (0, 0), BuildingBlock: TEMPAE_clean_linker_10, # of connection points: 2
#     Edge 70, Type (0, 0), BuildingBlock: TEMPAE_clean_linker_10, # of connection points: 2
#     Edge 71, Type (0, 0), BuildingBlock: TEMPAE_clean_linker_10, # of connection points: 2
#     Edge 72, Type (0, 0), BuildingBlock: TEMPAE_clean_linker_10, # of connection points: 2
#     Edge 73, Type (0, 0), BuildingBlock: TEMPAE_clean_linker_10, # of connection points: 2
#     Edge 74, Type (0, 0), BuildingBlock: TEMPAE_clean_linker_10, # of connection points: 2
#     Edge 75, Type (0, 0), BuildingBlock: TEMPAE_clean_linker_10, # of connection points: 2
#     Edge 76, Type (0, 0), BuildingBlock: TEMPAE_clean_linker_10, # of connection points: 2
#     Edge 77, Type (0, 0), BuildingBlock: TEMPAE_clean_linker_10, # of connection points: 2
#     Edge 78, Type (0, 0), BuildingBlock: TEMPAE_clean_linker_10, # of connection points: 2
#     Edge 79, Type (0, 0), BuildingBlock: TEMPAE_clean_linker_10, # of connection points: 2
#     Edge 80, Type (0, 0), BuildingBlock: TEMPAE_clean_linker_10, # of connection points: 2
#     Edge 81, Type (0, 0), BuildingBlock: TEMPAE_clean_linker_10, # of connection points: 2
#     Edge 82, Type (0, 0), BuildingBlock: TEMPAE_clean_linker_10, # of connection points: 2
#     Edge 83, Type (0, 0), BuildingBlock: TEMPAE_clean_linker_10, # of connection points: 2
#     Edge 84, Type (0, 0), BuildingBlock: TEMPAE_clean_linker_10, # of connection points: 2
#     Edge 85, Type (0, 0), BuildingBlock: TEMPAE_clean_linker_10, # of connection points: 2
#     Edge 86, Type (0, 0), BuildingBlock: TEMPAE_clean_linker_10, # of connection points: 2
#     Edge 87, Type (0, 0), BuildingBlock: TEMPAE_clean_linker_10, # of connection points: 2
#     Edge 88, Type (0, 0), BuildingBlock: TEMPAE_clean_linker_10, # of connection points: 2
#     Edge 89, Type (0, 0), BuildingBlock: TEMPAE_clean_linker_10, # of connection points: 2
#     Edge 90, Type (0, 0), BuildingBlock: TEMPAE_clean_linker_10, # of connection points: 2
#     Edge 91, Type (0, 0), BuildingBlock: TEMPAE_clean_linker_10, # of connection points: 2
#     Edge 92, Type (0, 0), BuildingBlock: TEMPAE_clean_linker_10, # of connection points: 2
#     Edge 93, Type (0, 0), BuildingBlock: TEMPAE_clean_linker_10, # of connection points: 2
#     Edge 94, Type (0, 0), BuildingBlock: TEMPAE_clean_linker_10, # of connection points: 2
#     Edge 95, Type (0, 0), BuildingBlock: TEMPAE_clean_linker_10, # of connection points: 2
#     Edge 96, Type (0, 0), BuildingBlock: TEMPAE_clean_linker_10, # of connection points: 2
#     Edge 97, Type (0, 0), BuildingBlock: TEMPAE_clean_linker_10, # of connection points: 2
#     Edge 98, Type (0, 0), BuildingBlock: TEMPAE_clean_linker_10, # of connection points: 2
#     Edge 99, Type (0, 0), BuildingBlock: TEMPAE_clean_linker_10, # of connection points: 2
#     Edge 100, Type (0, 0), BuildingBlock: TEMPAE_clean_linker_10, # of connection points: 2
#     Edge 101, Type (0, 0), BuildingBlock: TEMPAE_clean_linker_10, # of connection points: 2
#     Edge 102, Type (0, 0), BuildingBlock: TEMPAE_clean_linker_10, # of connection points: 2
#     Edge 103, Type (0, 0), BuildingBlock: TEMPAE_clean_linker_10, # of connection points: 2
#     Edge 104, Type (0, 0), BuildingBlock: TEMPAE_clean_linker_10, # of connection points: 2
#     Edge 105, Type (0, 0), BuildingBlock: TEMPAE_clean_linker_10, # of connection points: 2
#     Edge 106, Type (0, 0), BuildingBlock: TEMPAE_clean_linker_10, # of connection points: 2
#     Edge 107, Type (0, 0), BuildingBlock: TEMPAE_clean_linker_10, # of connection points: 2
#     Edge 108, Type (0, 0), BuildingBlock: TEMPAE_clean_linker_10, # of connection points: 2
#     Edge 109, Type (0, 0), BuildingBlock: TEMPAE_clean_linker_10, # of connection points: 2
#     Edge 110, Type (0, 0), BuildingBlock: TEMPAE_clean_linker_10, # of connection points: 2
#     Edge 111, Type (0, 0), BuildingBlock: TEMPAE_clean_linker_10, # of connection points: 2
#     Edge 112, Type (0, 0), BuildingBlock: TEMPAE_clean_linker_10, # of connection points: 2
#     Edge 113, Type (0, 0), BuildingBlock: TEMPAE_clean_linker_10, # of connection points: 2
#     Edge 114, Type (0, 0), BuildingBlock: TEMPAE_clean_linker_10, # of connection points: 2
#     Edge 115, Type (0, 0), BuildingBlock: TEMPAE_clean_linker_10, # of connection points: 2
#     Edge 116, Type (0, 0), BuildingBlock: TEMPAE_clean_linker_10, # of connection points: 2
#     Edge 117, Type (0, 0), BuildingBlock: TEMPAE_clean_linker_10, # of connection points: 2
#     Edge 118, Type (0, 0), BuildingBlock: TEMPAE_clean_linker_10, # of connection points: 2
#     Edge 119, Type (0, 0), BuildingBlock: TEMPAE_clean_linker_10, # of connection points: 2
#     Edge 120, Type (0, 0), BuildingBlock: TEMPAE_clean_linker_10, # of connection points: 2
#     Edge 121, Type (0, 0), BuildingBlock: TEMPAE_clean_linker_10, # of connection points: 2
#     Edge 122, Type (0, 0), BuildingBlock: TEMPAE_clean_linker_10, # of connection points: 2
#     Edge 123, Type (0, 0), BuildingBlock: TEMPAE_clean_linker_10, # of connection points: 2
#     Edge 124, Type (0, 0), BuildingBlock: TEMPAE_clean_linker_10, # of connection points: 2
#     Edge 125, Type (0, 0), BuildingBlock: TEMPAE_clean_linker_10, # of connection points: 2
#     Edge 126, Type (0, 0), BuildingBlock: TEMPAE_clean_linker_10, # of connection points: 2
#     Edge 127, Type (0, 0), BuildingBlock: TEMPAE_clean_linker_10, # of connection points: 2
# Relax obj value: 0.180
# Max RMSD: 0.211
# Mean RMSD: 0.211
data_MOF--net-wio--node1-MIFKUJ_clean_sbu_0--edge1-TEMPAE_clean_linker_10
_symmetry_space_group_name_H-M    P1
_symmetry_Int_Tables_number       1
_symmetry_cell_setting            triclinic
loop_
_symmetry_equiv_pos_as_xyz
'x, y, z'
_cell_length_a     53.538076
_cell_length_b     53.547547
_cell_length_c     50.587437
_cell_angle_alpha  90.033913
_cell_angle_beta   89.925125
_cell_angle_gamma 89.977033
loop_
_atom_site_label
_atom_site_type_symbol
_atom_site_fract_x
_atom_site_fract_y
_atom_site_fract_z
_atom_type_partial_charge
Zn0 Zn 0.10813 0.11446 0.31814 0.0
Zn1 Zn 0.16446 0.12309 0.26902 0.0
C2 C 0.11696 0.07227 0.35105 0.0
O3 O 0.10395 0.06133 0.33235 0.0
C4 C 0.1319 0.1416 0.22553 0.0
O5 O 0.12725 0.16154 0.23986 0.0
O6 O 0.0742 0.12764 0.3275 0.0
O7 O 0.13276 0.14013 0.30771 0.0
O8 O 0.16387 0.15716 0.28707 0.0
C9 C 0.07119 0.13376 0.35157 0.0
O10 O 0.09049 0.13299 0.36752 0.0
O11 O 0.12147 0.09551 0.34937 0.0
C12 C 0.20058 0.09398 0.24381 0.0
O13 O 0.17992 0.08282 0.2363 0.0
O14 O 0.19916 0.1121 0.26 0.0
O15 O 0.14755 0.09638 0.29081 0.0
O16 O 0.10725 0.09039 0.28823 0.0
O17 O 0.14623 0.12471 0.23448 0.0
C18 C 0.14657 0.15892 0.30413 0.0
C19 C 0.12914 0.08522 0.28023 0.0
Zn20 Zn 0.12221 0.86042 0.57384 0.0
Zn21 Zn 0.11023 0.91339 0.5189 0.0
C22 C 0.15517 0.8614 0.61473 0.0
O23 O 0.16091 0.84134 0.60101 0.0
C24 C 0.10207 0.88067 0.47158 0.0
O25 O 0.08415 0.86909 0.48442 0.0
O26 O 0.11363 0.82486 0.57998 0.0
O27 O 0.09599 0.88066 0.55776 0.0
O28 O 0.07517 0.90687 0.53432 0.0
C29 C 0.10386 0.81886 0.60193 0.0
O30 O 0.09575 0.83652 0.61783 0.0
O31 O 0.13673 0.8746 0.60724 0.0
C32 C 0.13471 0.95749 0.50306 0.0
O33 O 0.15391 0.94223 0.5038 0.0
O34 O 0.11368 0.94979 0.5114 0.0
O35 O 0.13992 0.90184 0.5417 0.0
O36 O 0.14962 0.86243 0.54789 0.0
O37 O 0.11412 0.89807 0.48288 0.0
C38 C 0.07516 0.89006 0.55191 0.0
C39 C 0.15354 0.88299 0.53609 0.0
Zn40 Zn 0.38693 0.87905 0.81607 0.0
Zn41 Zn 0.32901 0.8702 0.7686 0.0
C42 C 0.39007 0.91381 0.85621 0.0
O43 O 0.41003 0.9183 0.84182 0.0
C44 C 0.36261 0.85551 0.72333 0.0
O45 O 0.37195 0.83716 0.73744 0.0
O46 O 0.42134 0.86593 0.82198 0.0
O47 O 0.36237 0.85474 0.80402 0.0
O48 O 0.33158 0.83544 0.78604 0.0
C49 C 0.42381 0.8563 0.84474 0.0
O50 O 0.40368 0.85185 0.85888 0.0
O51 O 0.37576 0.896 0.84947 0.0
C52 C 0.29076 0.89572 0.74248 0.0
O53 O 0.31065 0.90769 0.73408 0.0
O54 O 0.2934 0.87874 0.75984 0.0
O55 O 0.34487 0.8987 0.79002 0.0
O56 O 0.38533 0.90559 0.78895 0.0
O57 O 0.34609 0.8697 0.73329 0.0
C58 C 0.35046 0.83471 0.80109 0.0
C59 C 0.36343 0.91103 0.781 0.0
Zn60 Zn 0.36883 0.13474 0.07729 0.0
Zn61 Zn 0.37743 0.09019 0.01258 0.0
C62 C 0.33517 0.13044 0.11749 0.0
O63 O 0.33119 0.1527 0.10739 0.0
C64 C 0.39446 0.10249 0.96209 0.0
O65 O 0.41002 0.08469 0.96906 0.0
O66 O 0.38461 0.16701 0.08914 0.0
O67 O 0.39032 0.11371 0.05611 0.0
O68 O 0.41269 0.09279 0.02907 0.0
C69 C 0.39055 0.16902 0.11335 0.0
O70 O 0.38807 0.1496 0.12895 0.0
O71 O 0.35254 0.1171 0.10776 0.0
C72 C 0.35523 0.05063 0.98377 0.0
O73 O 0.34211 0.06954 0.97479 0.0
O74 O 0.37133 0.05459 0.00174 0.0
O75 O 0.34824 0.10216 0.03679 0.0
O76 O 0.34136 0.14033 0.05128 0.0
O77 O 0.37809 0.10971 0.97866 0.0
C78 C 0.41164 0.10632 0.04952 0.0
C79 C 0.3361 0.12268 0.03524 0.0
Zn80 Zn 0.11023 0.87836 0.17963 0.0
Zn81 Zn 0.16442 0.86821 0.23031 0.0
C82 C 0.11167 0.91688 0.14375 0.0
O83 O 0.09255 0.92251 0.15895 0.0
C84 C 0.15378 0.85229 0.2827 0.0
O85 O 0.17385 0.8389 0.27785 0.0
O86 O 0.07579 0.86669 0.17125 0.0
O87 O 0.13381 0.85316 0.19201 0.0
O88 O 0.16323 0.83389 0.21237 0.0
C89 C 0.07142 0.86131 0.14725 0.0
O90 O 0.08997 0.86102 0.13023 0.0
O91 O 0.12368 0.89688 0.14829 0.0
C92 C 0.20295 0.89564 0.25446 0.0
O93 O 0.18377 0.90993 0.26038 0.0
O94 O 0.19947 0.87649 0.24009 0.0
O95 O 0.15049 0.8973 0.2085 0.0
O96 O 0.10992 0.90319 0.20849 0.0
O97 O 0.14525 0.86629 0.26455 0.0
C98 C 0.14582 0.83324 0.19551 0.0
C99 C 0.13144 0.90919 0.21691 0.0
Zn100 Zn 0.36226 0.85329 0.42971 0.0
Zn101 Zn 0.36943 0.90825 0.4828 0.0
C102 C 0.33007 0.85369 0.38719 0.0
O103 O 0.32286 0.83389 0.40051 0.0
C104 C 0.38927 0.8938 0.53187 0.0
O105 O 0.40485 0.9116 0.52496 0.0
O106 O 0.37362 0.81794 0.42501 0.0
O107 O 0.38647 0.87724 0.44396 0.0
O108 O 0.4038 0.90751 0.46524 0.0
C109 C 0.38669 0.81184 0.40505 0.0
O110 O 0.39539 0.82941 0.38944 0.0
O111 O 0.34882 0.8659 0.39542 0.0
C112 C 0.34665 0.94623 0.51359 0.0
O113 O 0.33524 0.92661 0.52346 0.0
O114 O 0.36179 0.9432 0.49447 0.0
O115 O 0.34128 0.895 0.45916 0.0
O116 O 0.33363 0.85494 0.45477 0.0
O117 O 0.37189 0.88777 0.51599 0.0
C118 C 0.40584 0.88978 0.44882 0.0
C119 C 0.32812 0.87594 0.46504 0.0
Zn120 Zn 0.38652 0.11614 0.68023 0.0
Zn121 Zn 0.32759 0.12748 0.72549 0.0
C122 C 0.38741 0.08137 0.64018 0.0
O123 O 0.40676 0.07523 0.65478 0.0
C124 C 0.36218 0.13695 0.77028 0.0
O125 O 0.37449 0.15229 0.75476 0.0
O126 O 0.4221 0.12568 0.6754 0.0
O127 O 0.36412 0.14304 0.69095 0.0
O128 O 0.3332 0.16213 0.70951 0.0
C129 C 0.42729 0.13856 0.65507 0.0
O130 O 0.40898 0.14779 0.64083 0.0
O131 O 0.37469 0.10045 0.64664 0.0
C132 C 0.28502 0.1013 0.74289 0.0
O133 O 0.30193 0.08365 0.74515 0.0
O134 O 0.29124 0.12191 0.73232 0.0
O135 O 0.34218 0.09868 0.70394 0.0
O136 O 0.38212 0.08999 0.70732 0.0
O137 O 0.34306 0.12562 0.76153 0.0
C138 C 0.35242 0.16308 0.69491 0.0
C139 C 0.35968 0.08581 0.71421 0.0
Zn140 Zn 0.12776 0.13543 0.92446 0.0
Zn141 Zn 0.11616 0.09073 0.9872 0.0
C142 C 0.16502 0.12684 0.88804 0.0
O143 O 0.17257 0.14701 0.90046 0.0
C144 C 0.09577 0.10969 0.03541 0.0
O145 O 0.07673 0.09589 0.028 0.0
O146 O 0.11504 0.16875 0.91256 0.0
O147 O 0.10446 0.11499 0.94375 0.0
O148 O 0.08182 0.0924 0.96877 0.0
C149 C 0.11231 0.17183 0.88788 0.0
O150 O 0.11581 0.15291 0.87181 0.0
O151 O 0.14426 0.11709 0.89447 0.0
C152 C 0.14117 0.04959 0.01099 0.0
O153 O 0.15853 0.0666 0.0143 0.0
O154 O 0.12125 0.05543 -0.00114 0.0
O155 O 0.14776 0.10148 0.96594 0.0
O156 O 0.15391 0.13992 0.9516 0.0
O157 O 0.11476 0.11112 0.02039 0.0
C158 C 0.08322 0.10629 0.94869 0.0
C159 C 0.1596 0.12221 0.96726 0.0
Zn160 Zn 0.82692 0.8728 0.73416 0.0
Zn161 Zn 0.87858 0.87674 0.67572 0.0
C162 C 0.85651 0.85412 0.77916 0.0
O163 O 0.85181 0.83161 0.77012 0.0
C164 C 0.87868 0.90918 0.63444 0.0
O165 O 0.89905 0.91438 0.64784 0.0
O166 O 0.79217 0.8809 0.74787 0.0
O167 O 0.84001 0.90108 0.70965 0.0
O168 O 0.88014 0.9055 0.69998 0.0
C169 C 0.79044 0.89618 0.76708 0.0
O170 O 0.81067 0.90763 0.77534 0.0
O171 O 0.84877 0.87304 0.76642 0.0
C172 C 0.9158 0.85136 0.64668 0.0
O173 O 0.89604 0.84584 0.63243 0.0
O174 O 0.91269 0.86268 0.66853 0.0
O175 O 0.85462 0.85636 0.69467 0.0
O176 O 0.82719 0.83727 0.71795 0.0
O177 O 0.86505 0.89117 0.64214 0.0
C178 C 0.86079 0.91257 0.71262 0.0
C179 C 0.84397 0.83621 0.70037 0.0
Zn180 Zn 0.87524 0.07854 0.47678 0.0
Zn181 Zn 0.86366 0.13575 0.42908 0.0
C182 C 0.89525 0.10523 0.5231 0.0
O183 O 0.91686 0.10498 0.51077 0.0
C184 C 0.82668 0.13496 0.39111 0.0
O185 O 0.82191 0.15567 0.40414 0.0
O186 O 0.86736 0.04279 0.48473 0.0
O187 O 0.84676 0.09467 0.45628 0.0
O188 O 0.83913 0.13483 0.45848 0.0
C189 C 0.8485 0.03906 0.4995 0.0
O190 O 0.83441 0.0582 0.506 0.0
O191 O 0.87623 0.09567 0.51204 0.0
C192 C 0.8841 0.17261 0.39664 0.0
O193 O 0.88838 0.15244 0.38251 0.0
O194 O 0.87491 0.17019 0.41967 0.0
O195 O 0.89023 0.11268 0.43978 0.0
O196 O 0.90931 0.082 0.45869 0.0
O197 O 0.84536 0.12188 0.39796 0.0
C198 C 0.83506 0.11283 0.46689 0.0
C199 C 0.91017 0.10066 0.4433 0.0
Zn200 Zn 0.66021 0.12225 0.22582 0.0
Zn201 Zn 0.61133 0.11387 0.16599 0.0
C202 C 0.64279 0.14303 0.27357 0.0
O203 O 0.66048 0.15888 0.26704 0.0
C204 C 0.61036 0.0823 0.12324 0.0
O205 O 0.58919 0.07802 0.13559 0.0
O206 O 0.69403 0.11437 0.24021 0.0
O207 O 0.64899 0.09315 0.20188 0.0
O208 O 0.60989 0.08575 0.1913 0.0
C209 C 0.69502 0.09847 0.25883 0.0
O210 O 0.67441 0.08711 0.26619 0.0
O211 O 0.63779 0.12521 0.25779 0.0
C212 C 0.57034 0.14379 0.14461 0.0
O213 O 0.58737 0.15834 0.13404 0.0
O214 O 0.57687 0.12641 0.16018 0.0
O215 O 0.63428 0.13642 0.18367 0.0
O216 O 0.66066 0.15654 0.20751 0.0
O217 O 0.62481 0.09907 0.13231 0.0
C218 C 0.62903 0.08049 0.20511 0.0
C219 C 0.64485 0.15673 0.18897 0.0
Zn220 Zn 0.62704 0.90733 0.96432 0.0
Zn221 Zn 0.62703 0.8548 0.94142 0.0
C222 C 0.60269 0.88823 0.01381 0.0
O223 O 0.58158 0.89789 0.00545 0.0
C224 C 0.65765 0.85896 0.89799 0.0
O225 O 0.66507 0.83888 0.91067 0.0
O226 O 0.63106 0.94294 0.97638 0.0
O227 O 0.66054 0.89627 0.95048 0.0
O228 O 0.65531 0.85841 0.96662 0.0
C229 C 0.6467 0.94549 0.99511 0.0
O230 O 0.65981 0.926 0.00265 0.0
O231 O 0.62194 0.88895 -0.00094 0.0
C232 C 0.61007 0.8159 0.90989 0.0
O233 O 0.59977 0.83551 0.89873 0.0
O234 O 0.62239 0.8189 0.93114 0.0
O235 O 0.59386 0.86617 0.95409 0.0
O236 O 0.59774 0.90408 0.93908 0.0
O237 O 0.63929 0.87131 0.90735 0.0
C238 C 0.66966 0.8762 0.95985 0.0
C239 C 0.58477 0.88439 0.9415 0.0
Zn240 Zn 0.84067 0.12631 0.76084 0.0
Zn241 Zn 0.88301 0.11584 0.82847 0.0
C242 C 0.8643 0.14222 0.71381 0.0
O243 O 0.85231 0.16272 0.72036 0.0
C244 C 0.8799 0.08691 0.87189 0.0
O245 O 0.90127 0.08159 0.86037 0.0
O246 O 0.80586 0.12225 0.74702 0.0
O247 O 0.84877 0.09948 0.7883 0.0
O248 O 0.88411 0.08608 0.80474 0.0
C249 C 0.80197 0.10514 0.7301 0.0
O250 O 0.82045 0.09042 0.72313 0.0
O251 O 0.86334 0.12357 0.72932 0.0
C252 C 0.92527 0.14265 0.85132 0.0
O253 O 0.90855 0.15695 0.86284 0.0
O254 O 0.91818 0.12582 0.83536 0.0
O255 O 0.86484 0.14013 0.80654 0.0
O256 O 0.84464 0.1612 0.77712 0.0
O257 O 0.8665 0.10416 0.86203 0.0
C258 C 0.86709 0.08434 0.78733 0.0
C259 C 0.85707 0.16093 0.79844 0.0
Zn260 Zn 0.61423 0.08671 0.51105 0.0
Zn261 Zn 0.62966 0.13783 0.56388 0.0
C262 C 0.60049 0.11868 0.46464 0.0
O263 O 0.57978 0.12504 0.47687 0.0
C264 C 0.67186 0.12667 0.59367 0.0
O265 O 0.68045 0.14335 0.57695 0.0
O266 O 0.61797 0.05062 0.50134 0.0
O267 O 0.64505 0.09768 0.53239 0.0
O268 O 0.65217 0.13811 0.53273 0.0
C269 C 0.63902 0.04147 0.4948 0.0
O270 O 0.65917 0.05529 0.49713 0.0
O271 O 0.61594 0.10423 0.47598 0.0
C272 C 0.6163 0.17367 0.60191 0.0
O273 O 0.6172 0.15329 0.61631 0.0
O274 O 0.62029 0.17203 0.57716 0.0
O275 O 0.60161 0.11776 0.55198 0.0
O276 O 0.58026 0.09131 0.5293 0.0
O277 O 0.64903 0.12032 0.59246 0.0
C278 C 0.65793 0.11636 0.52463 0.0
C279 C 0.58108 0.107 0.548 0.0
Zn280 Zn 0.65103 0.86376 0.2575 0.0
Zn281 Zn 0.60617 0.87729 0.3216 0.0
C282 C 0.6356 0.84995 0.20547 0.0
O283 O 0.65022 0.83094 0.21101 0.0
C284 C 0.61883 0.91317 0.35801 0.0
O285 O 0.60035 0.92324 0.34472 0.0
O286 O 0.68699 0.86687 0.24739 0.0
O287 O 0.64195 0.89298 0.282 0.0
O288 O 0.60464 0.9045 0.29504 0.0
C289 C 0.69662 0.88811 0.24274 0.0
O290 O 0.68324 0.90831 0.24676 0.0
O291 O 0.63187 0.86644 0.22316 0.0
C292 C 0.56937 0.86024 0.35717 0.0
O293 O 0.58948 0.85554 0.37119 0.0
O294 O 0.57185 0.86837 0.33374 0.0
O295 O 0.62377 0.8511 0.30197 0.0
O296 O 0.64579 0.82937 0.27467 0.0
O297 O 0.62575 0.89109 0.35241 0.0
C298 C 0.62306 0.90727 0.27943 0.0
C299 C 0.63184 0.83004 0.29492 0.0
Zn300 Zn 0.87574 0.9116 0.01717 0.0
Zn301 Zn 0.86431 0.8568 0.07055 0.0
C302 C 0.89706 0.89198 0.96771 0.0
O303 O 0.91835 0.90139 0.97592 0.0
C304 C 0.82107 0.86776 0.10049 0.0
O305 O 0.81137 0.85322 0.08228 0.0
O306 O 0.86481 0.94691 0.01003 0.0
O307 O 0.84958 0.89326 0.03811 0.0
O308 O 0.84193 0.85327 0.0395 0.0
C309 C 0.84726 0.94955 0.99333 0.0
O310 O 0.83693 0.92949 0.98319 0.0
O311 O 0.87777 0.89402 0.98217 0.0
C312 C 0.88092 0.82122 0.10741 0.0
O313 O 0.88075 0.84126 0.12241 0.0
O314 O 0.87611 0.82344 0.08295 0.0
O315 O 0.89083 0.88008 0.05837 0.0
O316 O 0.90942 0.90953 0.03641 0.0
O317 O 0.84427 0.87263 0.09969 0.0
C318 C 0.83945 0.8741 0.0279 0.0
C319 C 0.91034 0.89267 0.05411 0.0
Zn320 Zn 0.60715 0.61434 0.82166 0.0
Zn321 Zn 0.65735 0.62591 0.76659 0.0
C322 C 0.60996 0.57543 0.85727 0.0
O323 O 0.58979 0.57027 0.84352 0.0
C324 C 0.63417 0.64956 0.72162 0.0
O325 O 0.64815 0.66859 0.72867 0.0
O326 O 0.57406 0.62728 0.83268 0.0
O327 O 0.63015 0.64041 0.8087 0.0
O328 O 0.65899 0.65925 0.78648 0.0
C329 C 0.57248 0.63516 0.85628 0.0
O330 O 0.59288 0.63673 0.87061 0.0
O331 O 0.62199 0.59524 0.85193 0.0
C332 C 0.68963 0.60161 0.73118 0.0
O333 O 0.66796 0.59452 0.72164 0.0
O334 O 0.6903 0.61553 0.75154 0.0
O335 O 0.64405 0.59759 0.789 0.0
O336 O 0.60421 0.58964 0.79246 0.0
O337 O 0.63408 0.63005 0.73587 0.0
C338 C 0.64238 0.66013 0.80436 0.0
C339 C 0.62496 0.58562 0.78105 0.0
Zn340 Zn 0.62558 0.35094 0.06643 0.0
Zn341 Zn 0.6155 0.40656 0.01809 0.0
C342 C 0.66359 0.35326 0.1042 0.0
O343 O 0.67104 0.33448 0.08942 0.0
C344 C 0.59798 0.39616 0.96618 0.0
O345 O 0.58394 0.41556 0.97189 0.0
O346 O 0.61245 0.3172 0.07553 0.0
O347 O 0.60003 0.37449 0.05573 0.0
O348 O 0.58136 0.40521 0.0369 0.0
C349 C 0.60261 0.31644 0.09836 0.0
O350 O 0.59895 0.33746 0.11122 0.0
O351 O 0.64329 0.36424 0.09841 0.0
C352 C 0.64159 0.44441 0.99155 0.0
O353 O 0.65511 0.42478 0.98529 0.0
O354 O 0.6234 0.44166 0.00746 0.0
O355 O 0.64557 0.39211 0.03836 0.0
O356 O 0.65085 0.35139 0.03765 0.0
O357 O 0.61269 0.38774 0.98375 0.0
C358 C 0.58023 0.38667 0.05234 0.0
C359 C 0.65732 0.37301 0.0297 0.0
Zn360 Zn 0.8818 0.37933 0.32265 0.0
Zn361 Zn 0.82691 0.36871 0.26952 0.0
C362 C 0.88081 0.41507 0.36079 0.0
O363 O 0.90078 0.41997 0.34657 0.0
C364 C 0.86106 0.35587 0.22526 0.0
O365 O 0.86872 0.33674 0.23933 0.0
O366 O 0.91666 0.36893 0.33082 0.0
O367 O 0.86004 0.35295 0.30827 0.0
O368 O 0.83156 0.33387 0.2857 0.0
C369 C 0.9206 0.35983 0.35361 0.0
O370 O 0.90138 0.35412 0.36862 0.0
O371 O 0.86773 0.39609 0.35483 0.0
C372 C 0.78667 0.39259 0.24455 0.0
O373 O 0.80531 0.40708 0.23748 0.0
O374 O 0.79089 0.37498 0.26079 0.0
O375 O 0.84151 0.39614 0.29267 0.0
O376 O 0.88132 0.40542 0.29493 0.0
O377 O 0.84465 0.37052 0.23467 0.0
C378 C 0.84905 0.33283 0.30258 0.0
C379 C 0.86008 0.40878 0.28434 0.0
Zn380 Zn 0.86714 0.63934 0.57659 0.0
Zn381 Zn 0.87344 0.59244 0.51305 0.0
C382 C 0.83403 0.63489 0.61739 0.0
O383 O 0.83108 0.65796 0.60911 0.0
C384 C 0.89104 0.60192 0.4622 0.0
O385 O 0.90494 0.58301 0.46981 0.0
O386 O 0.88105 0.672 0.58954 0.0
O387 O 0.88977 0.61747 0.55646 0.0
O388 O 0.90849 0.59231 0.52987 0.0
C389 C 0.88696 0.67415 0.61378 0.0
O390 O 0.88743 0.65406 0.62868 0.0
O391 O 0.85037 0.62124 0.6063 0.0
C392 C 0.8487 0.55395 0.48457 0.0
O393 O 0.83843 0.57354 0.47337 0.0
O394 O 0.86407 0.55726 0.5034 0.0
O395 O 0.84679 0.60721 0.53804 0.0
O396 O 0.83982 0.64561 0.55084 0.0
O397 O 0.87559 0.61122 0.4786 0.0
C398 C 0.90966 0.60659 0.54982 0.0
C399 C 0.83486 0.62766 0.53521 0.0
Zn400 Zn 0.60827 0.37742 0.68151 0.0
Zn401 Zn 0.66546 0.37125 0.72955 0.0
C402 C 0.60518 0.41109 0.64059 0.0
O403 O 0.58499 0.41562 0.65462 0.0
C404 C 0.63222 0.35716 0.77526 0.0
O405 O 0.62357 0.33819 0.76158 0.0
O406 O 0.57343 0.36544 0.677 0.0
O407 O 0.63277 0.3535 0.6943 0.0
O408 O 0.66389 0.33595 0.71359 0.0
C409 C 0.56811 0.35448 0.65549 0.0
O410 O 0.58632 0.3472 0.63985 0.0
O411 O 0.61941 0.39332 0.64766 0.0
C412 C 0.70238 0.39879 0.75446 0.0
O413 O 0.68216 0.41153 0.76039 0.0
O414 O 0.70065 0.38039 0.73869 0.0
O415 O 0.65052 0.39932 0.70688 0.0
O416 O 0.60985 0.40486 0.70747 0.0
O417 O 0.64816 0.37175 0.7649 0.0
C418 C 0.6453 0.33401 0.6983 0.0
C419 C 0.63149 0.41143 0.71503 0.0
Zn420 Zn 0.86655 0.35639 0.92679 0.0
Zn421 Zn 0.87716 0.40528 0.98457 0.0
C422 C 0.83318 0.36008 0.88609 0.0
O423 O 0.82818 0.33831 0.89683 0.0
C424 C 0.89522 0.39076 0.03443 0.0
O425 O 0.91225 0.40716 0.02748 0.0
O426 O 0.87961 0.32302 0.91541 0.0
O427 O 0.89128 0.37754 0.94374 0.0
O428 O 0.91212 0.40283 0.96805 0.0
C429 C 0.88826 0.32158 0.89208 0.0
O430 O 0.88965 0.34189 0.87769 0.0
O431 O 0.85057 0.37328 0.89585 0.0
C432 C 0.85262 0.44385 0.01138 0.0
O433 O 0.83914 0.42462 0.01893 0.0
O434 O 0.87034 0.44045 0.99505 0.0
O435 O 0.84789 0.39338 0.96139 0.0
O436 O 0.83951 0.35398 0.9538 0.0
O437 O 0.87778 0.38566 0.01829 0.0
C438 C 0.91198 0.38724 0.9493 0.0
C439 C 0.83507 0.37394 0.96664 0.0
Zn440 Zn 0.88609 0.61377 0.17719 0.0
Zn441 Zn 0.82649 0.61855 0.22351 0.0
C442 C 0.88931 0.5821 0.13459 0.0
O443 O 0.90964 0.57705 0.1481 0.0
C444 C 0.86103 0.62879 0.26836 0.0
O445 O 0.87374 0.64346 0.25248 0.0
O446 O 0.92129 0.62528 0.17275 0.0
O447 O 0.86134 0.63791 0.18997 0.0
O448 O 0.82927 0.65427 0.20923 0.0
C449 C 0.92699 0.63656 0.1515 0.0
O450 O 0.90905 0.64487 0.13615 0.0
O451 O 0.87494 0.59929 0.14284 0.0
C452 C 0.78785 0.58968 0.24432 0.0
O453 O 0.80745 0.57594 0.25008 0.0
O454 O 0.79087 0.60901 0.23007 0.0
O455 O 0.84349 0.59256 0.20006 0.0
O456 O 0.88378 0.58549 0.20234 0.0
O457 O 0.84201 0.61726 0.25967 0.0
C458 C 0.84843 0.65705 0.19478 0.0
C459 C 0.86167 0.58003 0.20937 0.0
Zn460 Zn 0.62669 0.63218 0.41946 0.0
Zn461 Zn 0.62053 0.58959 0.48622 0.0
C462 C 0.65952 0.62836 0.37849 0.0
O463 O 0.66435 0.65011 0.38942 0.0
C464 C 0.60109 0.61751 0.53127 0.0
O465 O 0.57903 0.61181 0.52167 0.0
O466 O 0.61123 0.66502 0.41003 0.0
O467 O 0.60687 0.61092 0.44193 0.0
O468 O 0.58531 0.58964 0.46929 0.0
C469 C 0.60273 0.66839 0.38689 0.0
O470 O 0.60181 0.64936 0.37054 0.0
O471 O 0.64166 0.61539 0.38774 0.0
C472 C 0.64246 0.55159 0.51828 0.0
O473 O 0.65472 0.57095 0.52752 0.0
O474 O 0.62722 0.55474 0.49931 0.0
O475 O 0.65002 0.60068 0.46194 0.0
O476 O 0.65482 0.638 0.44394 0.0
O477 O 0.6206 0.61113 0.51865 0.0
C478 C 0.58602 0.60206 0.44809 0.0
C479 C 0.66115 0.62183 0.46116 0.0
Zn480 Zn 0.34348 0.36666 0.23146 0.0
Zn481 Zn 0.37672 0.37278 0.15921 0.0
C482 C 0.35296 0.35212 0.28295 0.0
O483 O 0.33522 0.33667 0.27559 0.0
C484 C 0.37758 0.40565 0.11703 0.0
O485 O 0.40061 0.40683 0.12592 0.0
O486 O 0.30697 0.36889 0.24057 0.0
O487 O 0.35284 0.39649 0.20792 0.0
O488 O 0.3874 0.39954 0.18455 0.0
C489 C 0.30011 0.38876 0.25227 0.0
O490 O 0.3162 0.40711 0.25466 0.0
O491 O 0.3612 0.36793 0.26634 0.0
C492 C 0.41122 0.34697 0.12527 0.0
O493 O 0.39238 0.34788 0.10869 0.0
O494 O 0.40773 0.35381 0.14904 0.0
O495 O 0.35109 0.3544 0.17905 0.0
O496 O 0.35166 0.33312 0.2153 0.0
O497 O 0.36239 0.39071 0.12805 0.0
C498 C 0.37426 0.40633 0.20429 0.0
C499 C 0.35594 0.33419 0.19076 0.0
Zn500 Zn 0.37064 0.58356 0.97208 0.0
Zn501 Zn 0.36591 0.64419 0.9331 0.0
C502 C 0.38513 0.61872 0.01516 0.0
O503 O 0.39456 0.63373 0.99722 0.0
C504 C 0.3249 0.64488 0.89928 0.0
O505 O 0.3198 0.66395 0.91474 0.0
O506 O 0.35888 0.54884 0.97966 0.0
O507 O 0.34268 0.60302 0.95359 0.0
O508 O 0.34208 0.64315 0.96296 0.0
C509 C 0.34184 0.54747 0.99713 0.0
O510 O 0.33145 0.56818 0.00573 0.0
O511 O 0.37504 0.59832 0.00814 0.0
C512 C 0.38919 0.67839 0.90065 0.0
O513 O 0.39206 0.65729 0.8877 0.0
O514 O 0.38002 0.67766 0.92383 0.0
O515 O 0.38976 0.61786 0.93978 0.0
O516 O 0.40481 0.58313 0.95405 0.0
O517 O 0.34527 0.63318 0.90253 0.0
C518 C 0.33273 0.62146 0.96564 0.0
C519 C 0.40807 0.6033 0.94154 0.0
Zn520 Zn 0.15551 0.62622 0.73508 0.0
Zn521 Zn 0.11173 0.61869 0.67173 0.0
C522 C 0.13807 0.6483 0.78193 0.0
O523 O 0.15648 0.66335 0.77553 0.0
C524 C 0.11529 0.5833 0.6327 0.0
O525 O 0.09463 0.57745 0.64532 0.0
O526 O 0.18858 0.6189 0.75136 0.0
O527 O 0.14543 0.59482 0.71308 0.0
O528 O 0.10685 0.59172 0.69762 0.0
C529 C 0.18978 0.60441 0.7712 0.0
O530 O 0.16939 0.59318 0.77941 0.0
O531 O 0.13236 0.63075 0.76609 0.0
C532 C 0.07353 0.63767 0.63843 0.0
O533 O 0.09165 0.63733 0.62093 0.0
O534 O 0.07825 0.63242 0.66238 0.0
O535 O 0.13439 0.63974 0.69113 0.0
O536 O 0.15921 0.65997 0.71605 0.0
O537 O 0.12747 0.60241 0.64013 0.0
C538 C 0.12436 0.58353 0.71224 0.0
C539 C 0.14555 0.65986 0.69578 0.0
Zn540 Zn 0.12293 0.41751 0.47234 0.0
Zn541 Zn 0.13254 0.3603 0.42743 0.0
C542 C 0.10633 0.38413 0.51571 0.0
O543 O 0.08832 0.37664 0.49999 0.0
C544 C 0.17198 0.36108 0.39202 0.0
O545 O 0.1786 0.34352 0.40876 0.0
O546 O 0.13035 0.45317 0.48116 0.0
O547 O 0.15255 0.40293 0.45229 0.0
O548 O 0.15587 0.36241 0.45729 0.0
C549 C 0.14952 0.45691 0.49545 0.0
O550 O 0.1641 0.4379 0.50105 0.0
O551 O 0.12192 0.40028 0.50757 0.0
C552 C 0.11405 0.3197 0.39837 0.0
O553 O 0.10803 0.3378 0.38206 0.0
O554 O 0.12338 0.32502 0.42071 0.0
O555 O 0.10402 0.38194 0.43491 0.0
O556 O 0.08871 0.41449 0.45477 0.0
O557 O 0.15131 0.37225 0.39555 0.0
C558 C 0.16329 0.38423 0.46294 0.0
C559 C 0.08555 0.39585 0.43968 0.0
Zn560 Zn 0.35067 0.62636 0.25713 0.0
Zn561 Zn 0.38029 0.60743 0.33248 0.0
C562 C 0.35945 0.64918 0.20753 0.0
O563 O 0.33991 0.66208 0.21539 0.0
C564 C 0.36358 0.60261 0.3862 0.0
O565 O 0.38289 0.61713 0.39064 0.0
O566 O 0.31511 0.61856 0.24763 0.0
O567 O 0.36666 0.59607 0.27535 0.0
O568 O 0.38379 0.57723 0.30957 0.0
C569 C 0.31135 0.6036 0.22852 0.0
O570 O 0.33069 0.59295 0.21712 0.0
O571 O 0.36856 0.63282 0.22294 0.0
C572 C 0.43049 0.63128 0.34254 0.0
O573 O 0.42535 0.65036 0.32719 0.0
O574 O 0.41456 0.61408 0.34614 0.0
O575 O 0.36644 0.63297 0.30856 0.0
O576 O 0.35188 0.65825 0.27939 0.0
O577 O 0.35752 0.59782 0.36245 0.0
C578 C 0.37647 0.5767 0.28566 0.0
C579 C 0.36057 0.65503 0.30242 0.0
Zn580 Zn 0.12093 0.58135 0.01652 0.0
Zn581 Zn 0.1294 0.63348 0.07399 0.0
C582 C 0.10472 0.61631 0.97313 0.0
O583 O 0.08594 0.62394 0.9878 0.0
C584 C 0.16589 0.63467 0.11176 0.0
O585 O 0.16895 0.65538 0.0982 0.0
O586 O 0.13157 0.5466 0.00659 0.0
O587 O 0.14761 0.59724 0.0396 0.0
O588 O 0.1552 0.63688 0.04586 0.0
C589 C 0.14821 0.54541 0.98865 0.0
O590 O 0.15819 0.56619 0.9798 0.0
O591 O 0.11979 0.6001 0.98212 0.0
C592 C 0.10866 0.67198 0.10545 0.0
O593 O 0.10794 0.65394 0.12298 0.0
O594 O 0.11556 0.66712 0.082 0.0
O595 O 0.10531 0.60964 0.05834 0.0
O596 O 0.08635 0.58193 0.03475 0.0
O597 O 0.14786 0.62034 0.10567 0.0
C598 C 0.15894 0.61706 0.03264 0.0
C599 C 0.0856 0.59754 0.05366 0.0
Zn600 Zn 0.14949 0.36667 0.75499 0.0
Zn601 Zn 0.11037 0.37562 0.82507 0.0
C602 C 0.13143 0.34806 0.70714 0.0
O603 O 0.1471 0.33043 0.71431 0.0
C604 C 0.11443 0.4057 0.86762 0.0
O605 O 0.09211 0.40968 0.85771 0.0
O606 O 0.18428 0.37065 0.74115 0.0
O607 O 0.14026 0.39606 0.77987 0.0
O608 O 0.10498 0.404 0.80061 0.0
C609 C 0.19639 0.39088 0.73845 0.0
O610 O 0.18671 0.4119 0.74706 0.0
O611 O 0.1278 0.36636 0.72271 0.0
C612 C 0.07129 0.3486 0.8541 0.0
O613 O 0.08927 0.33666 0.86638 0.0
O614 O 0.07652 0.36339 0.8353 0.0
O615 O 0.12936 0.35425 0.80167 0.0
O616 O 0.14786 0.33206 0.77238 0.0
O617 O 0.12836 0.38952 0.8566 0.0
C618 C 0.1198 0.40829 0.78141 0.0
C619 C 0.13686 0.33316 0.79445 0.0
Zn620 Zn 0.37877 0.41645 0.51945 0.0
Zn621 Zn 0.3672 0.35932 0.56718 0.0
C622 C 0.38792 0.38115 0.47506 0.0
O623 O 0.39625 0.36473 0.49221 0.0
C624 C 0.32276 0.36908 0.59624 0.0
O625 O 0.31344 0.35491 0.5775 0.0
O626 O 0.36898 0.45201 0.51321 0.0
O627 O 0.35033 0.39844 0.53842 0.0
O628 O 0.34516 0.35801 0.53555 0.0
C629 C 0.34844 0.45555 0.50121 0.0
O630 O 0.33426 0.4363 0.49552 0.0
O631 O 0.38086 0.40251 0.48296 0.0
C632 C 0.38383 0.32371 0.60372 0.0
O633 O 0.38006 0.34323 0.61894 0.0
O634 O 0.38022 0.32585 0.57897 0.0
O635 O 0.39318 0.38343 0.55713 0.0
O636 O 0.41269 0.41377 0.53816 0.0
O637 O 0.34601 0.37387 0.59628 0.0
C638 C 0.3397 0.37983 0.52748 0.0
C639 C 0.41291 0.39607 0.55478 0.0
C640 C 0.24689 0.09706 0.23946 0.0
C641 C 0.22383 0.08995 0.22881 0.0
C642 C 0.26817 0.09869 0.22335 0.0
C643 C 0.26597 0.09389 0.19593 0.0
C644 C 0.24323 0.08455 0.18563 0.0
C645 C 0.22248 0.08234 0.20234 0.0
C646 C 0.29235 0.10778 0.23524 0.0
C647 C 0.23993 0.07956 0.15645 0.0
C648 C 0.30059 0.13693 0.14952 0.0
C649 C 0.31898 0.12116 0.139 0.0
C650 C 0.2837 0.12833 0.16852 0.0
C651 C 0.28532 0.10333 0.17745 0.0
C652 C 0.3044 0.0875 0.16769 0.0
C653 C 0.32102 0.0966 0.14843 0.0
C654 C 0.2636 0.14587 0.17841 0.0
C655 C 0.30684 0.06086 0.17706 0.0
H656 H 0.24802 0.10254 0.26006 0.0
H657 H 0.20468 0.07675 0.19405 0.0
H658 H 0.30854 0.09767 0.22665 0.0
H659 H 0.29475 0.12792 0.23076 0.0
H660 H 0.29257 0.10541 0.25706 0.0
H661 H 0.22258 0.06888 0.15228 0.0
H662 H 0.23889 0.09762 0.14574 0.0
H663 H 0.25609 0.06907 0.14837 0.0
H664 H 0.29902 0.15599 0.14253 0.0
H665 H 0.33528 0.08435 0.14044 0.0
H666 H 0.26468 0.14765 0.20022 0.0
H667 H 0.24489 0.13822 0.17356 0.0
H668 H 0.26516 0.16482 0.16964 0.0
H669 H 0.30644 0.06008 0.19898 0.0
H670 H 0.32434 0.05196 0.16992 0.0
H671 H 0.29077 0.04974 0.1698 0.0
C672 C 0.13136 0.07028 0.39798 0.0
C673 C 0.12462 0.05797 0.37458 0.0
C674 C 0.13614 0.05677 0.4212 0.0
C675 C 0.13425 0.03042 0.42081 0.0
C676 C 0.12875 0.01787 0.39686 0.0
C677 C 0.12391 0.03182 0.37405 0.0
C678 C 0.14207 0.07073 0.44635 0.0
C679 C 0.12686 0.98973 0.39557 0.0
C680 C 0.15825 0.98697 0.47398 0.0
C681 C 0.13587 0.98023 0.48656 0.0
C682 C 0.15842 0.00478 0.45364 0.0
C683 C 0.13565 0.01589 0.44571 0.0
C684 C 0.1134 0.01066 0.4598 0.0
C685 C 0.11382 0.99302 0.48021 0.0
C686 C 0.18259 0.01024 0.43939 0.0
C687 C 0.08871 0.02211 0.45191 0.0
H688 H 0.13198 0.09051 0.39845 0.0
H689 H 0.11906 0.02223 0.35588 0.0
H690 H 0.12613 0.06911 0.46028 0.0
H691 H 0.15862 0.06246 0.45619 0.0
H692 H 0.14569 0.09086 0.44269 0.0
H693 H 0.12415 0.98283 0.37506 0.0
H694 H 0.14399 0.98102 0.40375 0.0
H695 H 0.11089 0.98332 0.40781 0.0
H696 H 0.17544 0.97736 0.47897 0.0
H697 H 0.09648 0.9881 0.48998 0.0
H698 H 0.18463 0.03055 0.43569 0.0
H699 H 0.18252 0.00073 0.4199 0.0
H700 H 0.19908 0.00359 0.45069 0.0
H701 H 0.09054 0.04263 0.44969 0.0
H702 H 0.07372 0.01816 0.46652 0.0
H703 H 0.08287 0.01449 0.43247 0.0
C704 C 0.24484 0.88819 0.73806 0.0
C705 C 0.26709 0.8979 0.7277 0.0
C706 C 0.2235 0.88584 0.72214 0.0
C707 C 0.22477 0.89279 0.69517 0.0
C708 C 0.24664 0.9043 0.6852 0.0
C709 C 0.26744 0.90701 0.70171 0.0
C710 C 0.20028 0.87415 0.73367 0.0
C711 C 0.24895 0.91162 0.65646 0.0
C712 C 0.19052 0.85304 0.64524 0.0
C713 C 0.17122 0.86896 0.63709 0.0
C714 C 0.20756 0.8604 0.66466 0.0
C715 C 0.2052 0.88427 0.67643 0.0
C716 C 0.18521 0.90012 0.66909 0.0
C717 C 0.16841 0.89228 0.6494 0.0
C718 C 0.22866 0.84291 0.67186 0.0
C719 C 0.18203 0.9256 0.68142 0.0
H720 H 0.24441 0.88145 0.75826 0.0
H721 H 0.28458 0.9146 0.69358 0.0
H722 H 0.18332 0.88417 0.7269 0.0
H723 H 0.19879 0.85453 0.72679 0.0
H724 H 0.20063 0.87414 0.75563 0.0
H725 H 0.26584 0.92314 0.65265 0.0
H726 H 0.25015 0.89451 0.64412 0.0
H727 H 0.23225 0.92219 0.64992 0.0
H728 H 0.19271 0.8349 0.636 0.0
H729 H 0.1535 0.90465 0.64321 0.0
H730 H 0.22862 0.83929 0.69344 0.0
H731 H 0.24684 0.85167 0.66685 0.0
H732 H 0.22739 0.82471 0.66137 0.0
H733 H 0.18272 0.92421 0.70329 0.0
H734 H 0.16414 0.93455 0.67559 0.0
H735 H 0.19762 0.93791 0.6752 0.0
C736 C 0.36315 0.92543 0.89495 0.0
C737 C 0.38361 0.93052 0.87846 0.0
C738 C 0.35609 0.94223 0.91497 0.0
C739 C 0.36968 0.96469 0.91827 0.0
C740 C 0.39071 0.96958 0.90209 0.0
C741 C 0.3975 0.95237 0.88252 0.0
C742 C 0.33378 0.93627 0.9321 0.0
C743 C 0.40564 0.9934 0.90486 0.0
C744 C 0.34211 0.02432 0.94553 0.0
C745 C 0.35476 0.02642 0.96969 0.0
C746 C 0.34541 0.00335 0.9293 0.0
C747 C 0.36151 0.98391 0.93761 0.0
C748 C 0.37256 0.98492 0.96299 0.0
C749 C 0.36915 0.00626 0.97871 0.0
C750 C 0.33333 0.00304 0.90233 0.0
C751 C 0.38949 0.96435 0.97274 0.0
H752 H 0.35244 0.90848 0.892 0.0
H753 H 0.41337 0.95644 0.86992 0.0
H754 H 0.33865 0.93835 0.9533 0.0
H755 H 0.31849 0.94966 0.92787 0.0
H756 H 0.32672 0.91703 0.92871 0.0
H757 H 0.42188 0.99403 0.89118 0.0
H758 H 0.39351 0.00975 0.90075 0.0
H759 H 0.4126 0.99536 0.9254 0.0
H760 H 0.33077 0.03971 0.93849 0.0
H761 H 0.37872 0.0076 0.99753 0.0
H762 H 0.32458 0.98464 0.89838 0.0
H763 H 0.34782 0.00608 0.88695 0.0
H764 H 0.31888 0.0178 0.90026 0.0
H765 H 0.38127 0.94575 0.96855 0.0
H766 H 0.39312 0.96587 0.9943 0.0
H767 H 0.40764 0.96537 0.96218 0.0
C768 C 0.29273 0.85063 0.35818 0.0
C769 C 0.31501 0.86284 0.36474 0.0
C770 C 0.2771 0.85987 0.33833 0.0
C771 C 0.28404 0.88177 0.32445 0.0
C772 C 0.30676 0.89395 0.33053 0.0
C773 C 0.32199 0.88437 0.35073 0.0
C774 C 0.25291 0.84636 0.33252 0.0
C775 C 0.31474 0.91725 0.31602 0.0
C776 C 0.24769 0.88463 0.261 0.0
C777 C 0.22658 0.89805 0.26917 0.0
C778 C 0.26808 0.88139 0.27798 0.0
C779 C 0.26706 0.89158 0.30377 0.0
C780 C 0.24697 0.90738 0.31104 0.0
C781 C 0.22697 0.91058 0.2935 0.0
C782 C 0.28944 0.86492 0.26926 0.0
C783 C 0.24519 0.91866 0.33834 0.0
H784 H 0.28717 0.83403 0.36892 0.0
H785 H 0.33921 0.8939 0.35572 0.0
H786 H 0.23684 0.8591 0.33575 0.0
H787 H 0.25247 0.84042 0.31151 0.0
H788 H 0.25032 0.82958 0.34514 0.0
H789 H 0.33356 0.92374 0.32219 0.0
H790 H 0.31492 0.91381 0.2944 0.0
H791 H 0.30111 0.93247 0.31977 0.0
H792 H 0.24764 0.87532 0.24196 0.0
H793 H 0.21078 0.9212 0.29983 0.0
H794 H 0.28735 0.8462 0.2784 0.0
H795 H 0.3076 0.8727 0.27583 0.0
H796 H 0.28988 0.86255 0.24744 0.0
H797 H 0.23943 0.904 0.3526 0.0
H798 H 0.23125 0.93401 0.33917 0.0
H799 H 0.26355 0.92598 0.34487 0.0
C800 C 0.35918 0.99098 0.51818 0.0
C801 C 0.34589 0.97033 0.52784 0.0
C802 C 0.36302 0.01213 0.53401 0.0
C803 C 0.35347 0.0125 0.5601 0.0
C804 C 0.33816 0.99267 0.56907 0.0
C805 C 0.33445 0.97185 0.55274 0.0
C806 C 0.3791 0.0331 0.52358 0.0
C807 C 0.32754 0.99239 0.59675 0.0
C808 C 0.39286 0.04301 0.61302 0.0
C809 C 0.37949 0.06497 0.61825 0.0
C810 C 0.38473 0.02608 0.5938 0.0
C811 C 0.36275 0.03129 0.57928 0.0
C812 C 0.34954 0.05378 0.58385 0.0
C813 C 0.35805 0.07038 0.60338 0.0
C814 C 0.39937 0.00226 0.58954 0.0
C815 C 0.32613 0.05998 0.56859 0.0
H816 H 0.36774 0.99011 0.49877 0.0
H817 H 0.32389 0.95609 0.56025 0.0
H818 H 0.37103 0.05152 0.52886 0.0
H819 H 0.39789 0.03197 0.53274 0.0
H820 H 0.38136 0.03211 0.50177 0.0
H821 H 0.31314 0.97765 0.59929 0.0
H822 H 0.34281 0.98885 0.61109 0.0
H823 H 0.31915 0.01073 0.60176 0.0
H824 H 0.40948 0.03872 0.62435 0.0
H825 H 0.34765 0.08736 0.6073 0.0
H826 H 0.40504 0.00062 0.56851 0.0
H827 H 0.38748 0.98588 0.59423 0.0
H828 H 0.41642 0.00136 0.60201 0.0
H829 H 0.32963 0.05842 0.54703 0.0
H830 H 0.31919 0.0791 0.57299 0.0
H831 H 0.31123 0.0464 0.57361 0.0
C832 C 0.16871 0.10587 0.84407 0.0
C833 C 0.18007 0.11687 0.86612 0.0
C834 C 0.18293 0.09945 0.82171 0.0
C835 C 0.20902 0.10382 0.8218 0.0
C836 C 0.22067 0.11345 0.84477 0.0
C837 C 0.20599 0.12011 0.86654 0.0
C838 C 0.16989 0.08929 0.79756 0.0
C839 C 0.24853 0.11791 0.84593 0.0
C840 C 0.25622 0.07823 0.77319 0.0
C841 C 0.26157 0.09969 0.7583 0.0
C842 C 0.23752 0.07853 0.79266 0.0
C843 C 0.22405 0.10084 0.79733 0.0
C844 C 0.22784 0.12179 0.78074 0.0
C845 C 0.24647 0.1209 0.7613 0.0
C846 C 0.23373 0.05568 0.80965 0.0
C847 C 0.21382 0.14595 0.78506 0.0
H848 H 0.14861 0.10344 0.84379 0.0
H849 H 0.21476 0.12832 0.88379 0.0
H850 H 0.16984 0.1037 0.78181 0.0
H851 H 0.17999 0.07278 0.78968 0.0
H852 H 0.15025 0.08393 0.80181 0.0
H853 H 0.25484 0.12347 0.86601 0.0
H854 H 0.25881 0.10082 0.83997 0.0
H855 H 0.25371 0.13293 0.83185 0.0
H856 H 0.26759 0.06163 0.77076 0.0
H857 H 0.25028 0.13748 0.7497 0.0
H858 H 0.21358 0.05236 0.81337 0.0
H859 H 0.24284 0.05863 0.82909 0.0
H860 H 0.24193 0.0387 0.80045 0.0
H861 H 0.19353 0.14236 0.78733 0.0
H862 H 0.21662 0.15933 0.76854 0.0
H863 H 0.22042 0.15488 0.80358 0.0
C864 C 0.13616 0.92637 0.1027 0.0
C865 C 0.11898 0.93385 0.12212 0.0
C866 C 0.14283 0.94255 0.08201 0.0
C867 C 0.13222 0.96675 0.08101 0.0
C868 C 0.11505 0.97441 0.10072 0.0
C869 C 0.10857 0.95782 0.12094 0.0
C870 C 0.16104 0.93377 0.06118 0.0
C871 C 0.10345 0.00016 0.10049 0.0
C872 C 0.15975 0.02247 0.04591 0.0
C873 C 0.1426 0.02558 0.02524 0.0
C874 C 0.1579 0.00209 0.06319 0.0
C875 C 0.13862 0.98436 0.05943 0.0
C876 C 0.12285 0.98613 0.03708 0.0
C877 C 0.12495 0.00682 0.02029 0.0
C878 C 0.1751 0.00085 0.08679 0.0
C879 C 0.10232 0.96736 0.03215 0.0
H880 H 0.14419 0.9078 0.10351 0.0
H881 H 0.09541 0.96378 0.13598 0.0
H882 H 0.15217 0.93457 0.0414 0.0
H883 H 0.17751 0.94633 0.06063 0.0
H884 H 0.16758 0.91438 0.0648 0.0
H885 H 0.09072 0.00328 0.11753 0.0
H886 H 0.11829 0.01462 0.10098 0.0
H887 H 0.09269 0.00289 0.08198 0.0
H888 H 0.17359 0.0368 0.04972 0.0
H889 H 0.11193 0.00892 0.00405 0.0
H890 H 0.18193 0.98152 0.08992 0.0
H891 H 0.16465 0.00645 0.10481 0.0
H892 H 0.19143 0.01347 0.08458 0.0
H893 H 0.10922 0.94805 0.0352 0.0
H894 H 0.09464 0.96891 0.01183 0.0
H895 H 0.08689 0.97058 0.04642 0.0
C896 C 0.76905 0.90273 0.81026 0.0
C897 C 0.76736 0.89736 0.78318 0.0
C898 C 0.74838 0.89981 0.82702 0.0
C899 C 0.72521 0.89202 0.81632 0.0
C900 C 0.72286 0.88872 0.78864 0.0
C901 C 0.7441 0.891 0.77242 0.0
C902 C 0.75192 0.90306 0.85645 0.0
C903 C 0.6983 0.88126 0.77636 0.0
C904 C 0.6886 0.85043 0.86263 0.0
C905 C 0.67205 0.86729 0.87461 0.0
C906 C 0.70515 0.8581 0.84282 0.0
C907 C 0.70511 0.88333 0.83451 0.0
C908 C 0.68744 0.90021 0.8454 0.0
C909 C 0.67109 0.89199 0.86546 0.0
C910 C 0.72361 0.8394 0.83184 0.0
C911 C 0.68655 0.92715 0.83673 0.0
H912 H 0.78698 0.90765 0.81874 0.0
H913 H 0.74265 0.88716 0.75143 0.0
H914 H 0.73709 0.91523 0.86475 0.0
H915 H 0.7504 0.88463 0.86637 0.0
H916 H 0.77039 0.91126 0.86139 0.0
H917 H 0.69831 0.88415 0.75461 0.0
H918 H 0.69469 0.86121 0.78033 0.0
H919 H 0.68268 0.89209 0.78516 0.0
H920 H 0.68921 0.83121 0.86931 0.0
H921 H 0.6583 0.9051 0.87463 0.0
H922 H 0.7429 0.84516 0.83707 0.0
H923 H 0.72244 0.8388 0.80997 0.0
H924 H 0.72041 0.82025 0.83957 0.0
H925 H 0.70286 0.93727 0.84495 0.0
H926 H 0.66927 0.93665 0.84362 0.0
H927 H 0.68764 0.92853 0.81488 0.0
C928 C 0.8304 0.01379 0.53621 0.0
C929 C 0.846 0.01521 0.51396 0.0
C930 C 0.83223 0.99375 0.55391 0.0
C931 C 0.84983 0.97457 0.54897 0.0
C932 C 0.86368 0.9746 0.52512 0.0
C933 C 0.86167 0.99501 0.5079 0.0
C934 C 0.81712 0.99445 0.57913 0.0
C935 C 0.88233 0.95426 0.51893 0.0
C936 C 0.88323 0.9483 0.60858 0.0
C937 C 0.87123 0.92529 0.61214 0.0
C938 C 0.87627 0.96443 0.58817 0.0
C939 C 0.85699 0.95728 0.5706 0.0
C940 C 0.84486 0.934 0.57391 0.0
C941 C 0.85205 0.91828 0.59481 0.0
C942 C 0.8895 0.98926 0.58556 0.0
C943 C 0.82435 0.92577 0.55542 0.0
H944 H 0.81801 0.0292 0.5409 0.0
H945 H 0.87348 0.99579 0.49049 0.0
H946 H 0.80948 0.97573 0.58386 0.0
H947 H 0.8294 8e-05 0.59576 0.0
H948 H 0.80142 0.00798 0.57792 0.0
H949 H 0.8882 0.95459 0.49786 0.0
H950 H 0.89918 0.95684 0.5314 0.0
H951 H 0.87447 0.9356 0.52353 0.0
H952 H 0.89792 0.95395 0.62205 0.0
H953 H 0.84274 0.90049 0.59751 0.0
H954 H 0.87578 0.00475 0.58691 0.0
H955 H 0.89868 0.99058 0.56593 0.0
H956 H 0.9039 0.99205 0.60107 0.0
H957 H 0.80869 0.93933 0.55608 0.0
H958 H 0.81703 0.90696 0.56047 0.0
H959 H 0.83139 0.92543 0.53479 0.0
C960 C 0.71621 0.08679 0.30087 0.0
C961 C 0.71773 0.09655 0.2752 0.0
C962 C 0.73605 0.08957 0.31865 0.0
C963 C 0.75799 0.10209 0.31037 0.0
C964 C 0.7605 0.10983 0.28375 0.0
C965 C 0.74023 0.1071 0.26648 0.0
C966 C 0.73262 0.08109 0.3469 0.0
C967 C 0.78378 0.12284 0.27406 0.0
C968 C 0.78968 0.14175 0.36229 0.0
C969 C 0.80992 0.12671 0.36966 0.0
C970 C 0.77286 0.13397 0.34282 0.0
C971 C 0.77639 0.11055 0.33034 0.0
C972 C 0.797 0.0954 0.33734 0.0
C973 C 0.81357 0.10367 0.35698 0.0
C974 C 0.75108 0.1507 0.33587 0.0
C975 C 0.80131 0.07036 0.32438 0.0
H976 H 0.69891 0.07845 0.30769 0.0
H977 H 0.74162 0.11431 0.24651 0.0
H978 H 0.74956 0.07132 0.35411 0.0
H979 H 0.72965 0.09764 0.35975 0.0
H980 H 0.7163 0.06846 0.34916 0.0
H981 H 0.78447 0.12387 0.25214 0.0
H982 H 0.78424 0.14215 0.28202 0.0
H983 H 0.80077 0.11311 0.2812 0.0
H984 H 0.78678 0.15961 0.37192 0.0
H985 H 0.82919 0.09196 0.36261 0.0
H986 H 0.73323 0.14088 0.33993 0.0
H987 H 0.75147 0.1552 0.31447 0.0
H988 H 0.75122 0.16847 0.34721 0.0
H989 H 0.7856 0.05762 0.32913 0.0
H990 H 0.819 0.0615 0.33097 0.0
H991 H 0.80182 0.07245 0.30257 0.0
C992 C 0.6403 0.9915 0.00066 0.0
C993 C 0.64677 0.96831 0.01145 0.0
C994 C 0.6376 0.01262 0.01691 0.0
C995 C 0.64057 0.01017 0.04462 0.0
C996 C 0.6481 0.98697 0.05542 0.0
C997 C 0.65145 0.96641 0.03863 0.0
C998 C 0.63032 0.03724 0.00461 0.0
C999 C 0.65093 0.98334 0.08489 0.0
C1000 C 0.64259 0.0656 0.09171 0.0
C1001 C 0.61788 0.066 0.10098 0.0
C1002 C 0.65019 0.04809 0.07258 0.0
C1003 C 0.63265 0.03067 0.06262 0.0
C1004 C 0.6075 0.03171 0.07118 0.0
C1005 C 0.60044 0.04937 0.09018 0.0
C1006 C 0.67714 0.04763 0.06379 0.0
C1007 C 0.58819 0.01346 0.0611 0.0
H1008 H 0.63693 0.99302 0.97959 0.0
H1009 H 0.65631 0.94844 0.04707 0.0
H1010 H 0.61052 0.04144 0.00937 0.0
H1011 H 0.64183 0.05262 0.01282 0.0
H1012 H 0.63248 0.03701 0.98277 0.0
H1013 H 0.65892 0.96478 0.08989 0.0
H1014 H 0.66308 -0.00196 0.09339 0.0
H1015 H 0.63237 0.98499 0.09454 0.0
H1016 H 0.65617 0.0784 0.09999 0.0
H1017 H 0.58126 0.04971 0.09707 0.0
H1018 H 0.67834 0.047 0.0419 0.0
H1019 H 0.68633 0.03052 0.07142 0.0
H1020 H 0.68769 0.06413 0.07102 0.0
H1021 H 0.58734 0.01409 0.03921 0.0
H1022 H 0.56923 0.01739 0.06905 0.0
H1023 H 0.59353 0.99418 0.0668 0.0
C1024 C 0.76496 0.12639 0.71084 0.0
C1025 C 0.77839 0.10435 0.7152 0.0
C1026 C 0.74517 0.12696 0.69277 0.0
C1027 C 0.7383 0.10478 0.67935 0.0
C1028 C 0.75044 0.08202 0.68542 0.0
C1029 C 0.77068 0.08215 0.703 0.0
C1030 C 0.73293 0.1517 0.68656 0.0
C1031 C 0.74307 0.05785 0.67219 0.0
C1032 C 0.6787 0.1102 0.63928 0.0
C1033 C 0.68835 0.11719 0.61461 0.0
C1034 C 0.69476 0.10481 0.66046 0.0
C1035 C 0.72092 0.1063 0.6566 0.0
C1036 C 0.73065 0.11171 0.63118 0.0
C1037 C 0.71421 0.1172 0.61053 0.0
C1038 C 0.68375 0.09889 0.68721 0.0
C1039 C 0.75844 0.11313 0.62611 0.0
H1040 H 0.77097 0.14359 0.7202 0.0
H1041 H 0.78094 0.06503 0.70661 0.0
H1042 H 0.73786 0.15741 0.66612 0.0
H1043 H 0.71231 0.15 0.68752 0.0
H1044 H 0.73891 0.16672 0.70033 0.0
H1045 H 0.75123 0.04137 0.68235 0.0
H1046 H 0.72245 0.05584 0.67177 0.0
H1047 H 0.74973 0.05791 0.65142 0.0
H1048 H 0.65866 0.1102 0.64241 0.0
H1049 H 0.72163 0.12219 0.59128 0.0
H1050 H 0.68643 0.11507 0.70062 0.0
H1051 H 0.69341 0.08267 0.69624 0.0
H1052 H 0.66344 0.09479 0.68603 0.0
H1053 H 0.76651 0.12897 0.63738 0.0
H1054 H 0.76287 0.11577 0.60482 0.0
H1055 H 0.76779 0.09585 0.63303 0.0
C1056 C 0.61786 0.00711 0.47031 0.0
C1057 C 0.64001 0.01764 0.47999 0.0
C1058 C 0.61842 0.98721 0.45237 0.0
C1059 C 0.6417 0.97722 0.44426 0.0
C1060 C 0.66407 0.9865 0.45545 0.0
C1061 C 0.66298 0.0068 0.47306 0.0
C1062 C 0.5941 0.97808 0.4407 0.0
C1063 C 0.6892 0.976 0.44769 0.0
C1064 C 0.63317 0.91776 0.40465 0.0
C1065 C 0.63055 0.92771 0.37924 0.0
C1066 C 0.63885 0.93341 0.42615 0.0
C1067 C 0.64229 0.95934 0.42179 0.0
C1068 C 0.64203 0.96884 0.39567 0.0
C1069 C 0.63582 0.95292 0.37475 0.0
C1070 C 0.63901 0.9226 0.45368 0.0
C1071 C 0.64608 0.99623 0.38998 0.0
H1072 H 0.60002 0.01531 0.47557 0.0
H1073 H 0.68017 0.01472 0.48065 0.0
H1074 H 0.59337 0.98295 0.41939 0.0
H1075 H 0.59279 0.95746 0.44223 0.0
H1076 H 0.57756 0.98645 0.4506 0.0
H1077 H 0.70425 0.98229 0.46125 0.0
H1078 H 0.68872 0.95529 0.44756 0.0
H1079 H 0.69396 0.9822 0.42738 0.0
H1080 H 0.62895 0.89821 0.40801 0.0
H1081 H 0.634 0.96045 0.35495 0.0
H1082 H 0.62137 0.92768 0.4639 0.0
H1083 H 0.65465 0.93041 0.46544 0.0
H1084 H 0.64058 0.90191 0.45341 0.0
H1085 H 0.6296 0.00704 0.39685 0.0
H1086 H 0.64875 -0.00012 0.36854 0.0
H1087 H 0.66262 0.00333 0.4008 0.0
C1088 C 0.7794 0.87468 0.12086 0.0
C1089 C 0.80543 0.87646 0.12267 0.0
C1090 C 0.76417 0.88015 0.1426 0.0
C1091 C 0.7753 0.88742 0.16679 0.0
C1092 C 0.8015 0.8905 0.16838 0.0
C1093 C 0.81632 0.88502 0.1462 0.0
C1094 C 0.73622 0.87694 0.13998 0.0
C1095 C 0.81398 0.89832 0.19381 0.0
C1096 C 0.7274 0.91175 0.21529 0.0
C1097 C 0.72041 0.88954 0.228 0.0
C1098 C 0.74681 0.91192 0.19663 0.0
C1099 C 0.75943 0.88936 0.19074 0.0
C1100 C 0.754 0.86749 0.20534 0.0
C1101 C 0.73453 0.86785 0.22383 0.0
C1102 C 0.75232 0.93569 0.18171 0.0
C1103 C 0.76725 0.84311 0.19985 0.0
H1104 H 0.77089 0.86841 0.10259 0.0
H1105 H 0.83647 0.88647 0.14765 0.0
H1106 H 0.72991 0.86126 0.15268 0.0
H1107 H 0.7264 0.89402 0.14682 0.0
H1108 H 0.73045 0.87299 0.11931 0.0
H1109 H 0.8339 0.90338 0.19075 0.0
H1110 H 0.80411 0.91446 0.20277 0.0
H1111 H 0.8131 0.88272 0.2082 0.0
H1112 H 0.71672 0.92868 0.21862 0.0
H1113 H 0.72948 0.85072 0.23392 0.0
H1114 H 0.744 0.9345 0.16167 0.0
H1115 H 0.77274 0.93834 0.17923 0.0
H1116 H 0.74443 0.95234 0.19183 0.0
H1117 H 0.76115 0.83572 0.1804 0.0
H1118 H 0.76319 0.8288 0.21516 0.0
H1119 H 0.78774 0.84598 0.19883 0.0
C1120 C 0.88496 0.04991 0.90087 0.0
C1121 C 0.87096 0.07101 0.89387 0.0
C1122 C 0.87633 0.03304 0.91983 0.0
C1123 C 0.85322 0.03752 0.93262 0.0
C1124 C 0.83934 0.05929 0.92648 0.0
C1125 C 0.84828 0.07572 0.9069 0.0
C1126 C 0.89174 0.00998 0.92558 0.0
C1127 C 0.81486 0.06491 0.94005 0.0
C1128 C 0.82979 0.97571 0.95706 0.0
C1129 C 0.84229 0.97424 0.98137 0.0
C1130 C 0.83053 -0.00238 0.94195 0.0
C1131 C 0.84382 0.01857 0.95163 0.0
C1132 C 0.85334 0.01825 0.97773 0.0
C1133 C 0.85271 0.99594 0.99224 0.0
C1134 C 0.81977 -0.00285 0.91437 0.0
C1135 C 0.86666 0.04057 0.98923 0.0
H1136 H 0.90252 0.04609 0.89098 0.0
H1137 H 0.8374 0.09204 0.90162 0.0
H1138 H 0.89687 0.00944 0.94681 0.0
H1139 H 0.88066 0.99295 0.92127 0.0
H1140 H 0.90919 0.00924 0.9137 0.0
H1141 H 0.80868 0.08444 0.93654 0.0
H1142 H 0.80022 0.05216 0.93245 0.0
H1143 H 0.81636 0.06174 0.96167 0.0
H1144 H 0.8212 0.95915 0.94874 0.0
H1145 H 0.86177 0.99512 0.01138 0.0
H1146 H 0.83511 0.99416 0.89991 0.0
H1147 H 0.81065 0.01514 0.90947 0.0
H1148 H 0.80594 0.98185 0.91189 0.0
H1149 H 0.88605 0.04121 0.98147 0.0
H1150 H 0.86758 0.03956 0.01115 0.0
H1151 H 0.85725 0.05821 0.98347 0.0
C1152 C 0.73549 0.59457 0.72821 0.0
C1153 C 0.71241 0.59754 0.71566 0.0
C1154 C 0.75772 0.59492 0.71355 0.0
C1155 C 0.75665 0.5994 0.686 0.0
C1156 C 0.73323 0.60064 0.67307 0.0
C1157 C 0.71132 0.59928 0.68809 0.0
C1158 C 0.78233 0.59241 0.72782 0.0
C1159 C 0.73123 0.60585 0.64379 0.0
C1160 C 0.80426 0.64156 0.65416 0.0
C1161 C 0.81719 0.6249 0.6378 0.0
C1162 C 0.78543 0.63315 0.6711 0.0
C1163 C 0.77936 0.60743 0.67158 0.0
C1164 C 0.79341 0.59025 0.65634 0.0
C1165 C 0.8123 0.59923 0.63956 0.0
C1166 C 0.77108 0.65208 0.6873 0.0
C1167 C 0.78763 0.56267 0.65664 0.0
H1168 H 0.73618 0.5928 0.74955 0.0
H1169 H 0.69338 0.60156 0.67844 0.0
H1170 H 0.79572 0.58111 0.71607 0.0
H1171 H 0.79065 0.61119 0.73065 0.0
H1172 H 0.77996 0.58363 0.74756 0.0
H1173 H 0.71184 0.60359 0.63637 0.0
H1174 H 0.73729 0.62532 0.6398 0.0
H1175 H 0.74371 0.59327 0.63243 0.0
H1176 H 0.80833 0.66137 0.65312 0.0
H1177 H 0.82235 0.58631 0.62692 0.0
H1178 H 0.77099 0.64661 0.70844 0.0
H1179 H 0.75136 0.65269 0.68058 0.0
H1180 H 0.77907 0.67116 0.68567 0.0
H1181 H 0.78433 0.55605 0.67713 0.0
H1182 H 0.80294 0.55147 0.6477 0.0
H1183 H 0.77031 0.55915 0.64522 0.0
C1184 C 0.60649 0.53502 0.88124 0.0
C1185 C 0.61838 0.55815 0.87821 0.0
C1186 C 0.61381 0.51831 0.90102 0.0
C1187 C 0.63344 0.52495 0.91838 0.0
C1188 C 0.64576 0.54815 0.91531 0.0
C1189 C 0.6381 0.56451 0.89517 0.0
C1190 C 0.60033 0.4936 0.90347 0.0
C1191 C 0.66679 0.55576 0.93345 0.0
C1192 C 0.62869 0.48826 0.98183 0.0
C1193 C 0.64396 0.46769 0.97606 0.0
C1194 C 0.62672 0.50828 0.96411 0.0
C1195 C 0.64027 0.50759 0.94007 0.0
C1196 C 0.65742 0.48798 0.93529 0.0
C1197 C 0.65914 0.46826 0.95344 0.0
C1198 C 0.60847 0.52905 0.97008 0.0
C1199 C 0.6723 0.48658 0.90995 0.0
H1200 H 0.59137 0.52987 0.86809 0.0
H1201 H 0.64739 0.58237 0.89289 0.0
H1202 H 0.61386 0.47796 0.90191 0.0
H1203 H 0.59124 0.49224 0.92314 0.0
H1204 H 0.58582 0.4911 0.88801 0.0
H1205 H 0.67506 0.57403 0.92782 0.0
H1206 H 0.65983 0.55706 0.95407 0.0
H1207 H 0.68172 0.54139 0.93319 0.0
H1208 H 0.61719 0.48812 -0.00052 0.0
H1209 H 0.67121 0.45255 0.94896 0.0
H1210 H 0.5917 0.52686 0.95743 0.0
H1211 H 0.61682 0.54751 0.96555 0.0
H1212 H 0.6024 0.52891 0.99109 0.0
H1213 H 0.65985 0.48062 0.89361 0.0
H1214 H 0.68792 0.47298 0.91139 0.0
H1215 H 0.68002 0.50514 0.90465 0.0
C1216 C 0.66978 0.3794 0.1448 0.0
C1217 C 0.67891 0.36164 0.12681 0.0
C1218 C 0.68438 0.38739 0.16627 0.0
C1219 C 0.70868 0.37749 0.16961 0.0
C1220 C 0.718 0.35965 0.15141 0.0
C1221 C 0.70297 0.35188 0.13033 0.0
C1222 C 0.67384 0.40636 0.18534 0.0
C1223 C 0.74394 0.34879 0.15414 0.0
C1224 C 0.76107 0.40869 0.20706 0.0
C1225 C 0.76325 0.39287 0.22905 0.0
C1226 C 0.74205 0.40517 0.1884 0.0
C1227 C 0.72471 0.38552 0.192 0.0
C1228 C 0.72532 0.37116 0.21548 0.0
C1229 C 0.74464 0.37499 0.23375 0.0
C1230 C 0.74199 0.42101 0.16371 0.0
C1231 C 0.70692 0.35028 0.22024 0.0
H1232 H 0.65117 0.38698 0.14221 0.0
H1233 H 0.71021 0.33825 0.11644 0.0
H1234 H 0.67364 0.39854 0.20565 0.0
H1235 H 0.68591 0.4232 0.18575 0.0
H1236 H 0.65455 0.41213 0.18005 0.0
H1237 H 0.74841 0.33523 0.13818 0.0
H1238 H 0.75803 0.36396 0.15368 0.0
H1239 H 0.74576 0.33916 0.17346 0.0
H1240 H 0.77518 0.4228 0.20343 0.0
H1241 H 0.74598 0.36292 0.25089 0.0
H1242 H 0.72274 0.42695 0.15862 0.0
H1243 H 0.74924 0.40983 0.14689 0.0
H1244 H 0.75387 0.4379 0.16587 0.0
H1245 H 0.68766 0.35635 0.21536 0.0
H1246 H 0.70731 0.34369 0.24105 0.0
H1247 H 0.71156 0.33428 0.20717 0.0
C1248 C 0.86096 0.50905 0.4807 0.0
C1249 C 0.84634 0.52916 0.47197 0.0
C1250 C 0.86322 0.4873 0.46544 0.0
C1251 C 0.85056 0.48574 0.44095 0.0
C1252 C 0.83379 0.50489 0.43342 0.0
C1253 C 0.83184 0.52639 0.44909 0.0
C1254 C 0.88105 0.46714 0.47431 0.0
C1255 C 0.81982 0.50388 0.40753 0.0
C1256 C 0.88576 0.45521 0.38481 0.0
C1257 C 0.87327 0.43236 0.3821 0.0
C1258 C 0.87853 0.47257 0.40399 0.0
C1259 C 0.85844 0.46685 0.42116 0.0
C1260 C 0.84596 0.44364 0.41892 0.0
C1261 C 0.85347 0.42665 0.39925 0.0
C1262 C 0.89222 0.49724 0.40558 0.0
C1263 C 0.82461 0.43691 0.43706 0.0
H1264 H 0.87193 0.51089 0.4986 0.0
H1265 H 0.82014 0.54167 0.44244 0.0
H1266 H 0.87312 0.44833 0.4706 0.0
H1267 H 0.89866 0.46862 0.46282 0.0
H1268 H 0.88565 0.46882 0.49564 0.0
H1269 H 0.80438 0.51774 0.40684 0.0
H1270 H 0.83292 0.50798 0.39108 0.0
H1271 H 0.81198 0.48499 0.40406 0.0
H1272 H 0.90103 0.45981 0.37159 0.0
H1273 H 0.84382 0.40896 0.39727 0.0
H1274 H 0.90024 0.49978 0.42561 0.0
H1275 H 0.879 0.51286 0.40213 0.0
H1276 H 0.90758 0.49863 0.39087 0.0
H1277 H 0.83064 0.4383 0.45798 0.0
H1278 H 0.8175 0.41774 0.43338 0.0
H1279 H 0.80903 0.45033 0.43434 0.0
C1280 C 0.72025 0.40051 0.79931 0.0
C1281 C 0.72414 0.4004 0.77195 0.0
C1282 C 0.74017 0.3969 0.81676 0.0
C1283 C 0.76465 0.39408 0.80653 0.0
C1284 C 0.7689 0.39612 0.77897 0.0
C1285 C 0.74842 0.39865 0.76186 0.0
C1286 C 0.73469 0.39408 0.84593 0.0
C1287 C 0.79484 0.39416 0.76747 0.0
C1288 C 0.81558 0.39465 0.85862 0.0
C1289 C 0.8181 0.36905 0.86371 0.0
C1290 C 0.79901 0.40322 0.83912 0.0
C1291 C 0.78494 0.3857 0.82439 0.0
C1292 C 0.78851 0.3598 0.82854 0.0
C1293 C 0.80498 0.35181 0.84825 0.0
C1294 C 0.79572 0.43096 0.83515 0.0
C1295 C 0.77404 0.34047 0.81308 0.0
H1296 H 0.70136 0.40156 0.80702 0.0
H1297 H 0.75129 0.39868 0.74064 0.0
H1298 H 0.73835 0.37451 0.85204 0.0
H1299 H 0.74714 0.40626 0.85775 0.0
H1300 H 0.71498 0.39869 0.85084 0.0
H1301 H 0.79546 0.4005 0.74656 0.0
H1302 H 0.80824 0.40545 0.77918 0.0
H1303 H 0.80119 0.37446 0.76824 0.0
H1304 H 0.82575 0.40801 0.87059 0.0
H1305 H 0.8072 0.33198 0.85191 0.0
H1306 H 0.77718 0.43678 0.8428 0.0
H1307 H 0.79627 0.43565 0.8138 0.0
H1308 H 0.8103 0.44195 0.84557 0.0
H1309 H 0.75385 0.34207 0.81782 0.0
H1310 H 0.78021 0.32112 0.81756 0.0
H1311 H 0.77617 0.34373 0.79155 0.0
C1312 C 0.85838 0.56824 0.10052 0.0
C1313 C 0.88201 0.56598 0.11225 0.0
C1314 C 0.85032 0.55097 0.08146 0.0
C1315 C 0.86626 0.53104 0.0742 0.0
C1316 C 0.89054 0.52937 0.08511 0.0
C1317 C 0.89814 0.54693 0.10392 0.0
C1318 C 0.82445 0.55348 0.06993 0.0
C1319 C 0.90815 0.50838 0.07783 0.0
C1320 C 0.84297 0.46796 0.05206 0.0
C1321 C 0.8509 0.46772 0.02567 0.0
C1322 C 0.84635 0.4892 0.06781 0.0
C1323 C 0.85734 0.5108 0.0566 0.0
C1324 C 0.86312 0.51139 0.02931 0.0
C1325 C 0.86013 0.48966 0.01419 0.0
C1326 C 0.84025 0.48771 0.09694 0.0
C1327 C 0.87422 0.53431 0.01653 0.0
H1328 H 0.84586 0.58301 0.10681 0.0
H1329 H 0.91651 0.54522 0.11271 0.0
H1330 H 0.8251 0.55166 0.04808 0.0
H1331 H 0.8124 0.53822 0.07751 0.0
H1332 H 0.81564 0.57163 0.07509 0.0
H1333 H 0.92671 0.51035 0.08739 0.0
H1334 H 0.89995 0.49022 0.08389 0.0
H1335 H 0.91089 0.50774 0.0561 0.0
H1336 H 0.83586 0.45098 0.06099 0.0
H1337 H 0.86597 0.48953 0.99366 0.0
H1338 H 0.82959 0.50441 0.10336 0.0
H1339 H 0.85786 0.4873 0.1085 0.0
H1340 H 0.82926 0.47075 0.1019 0.0
H1341 H 0.86434 0.55142 0.02318 0.0
H1342 H 0.87341 0.5333 0.99461 0.0
H1343 H 0.89407 0.53614 0.02249 0.0
C1344 C 0.7429 0.59953 0.25229 0.0
C1345 C 0.76467 0.58691 0.25988 0.0
C1346 C 0.72282 0.60215 0.26991 0.0
C1347 C 0.72487 0.59233 0.2958 0.0
C1348 C 0.74587 0.57765 0.3027 0.0
C1349 C 0.76544 0.57489 0.28449 0.0
C1350 C 0.70047 0.61743 0.26162 0.0
C1351 C 0.74895 0.56708 0.33017 0.0
C1352 C 0.69715 0.63233 0.35003 0.0
C1353 C 0.6756 0.61898 0.35691 0.0
C1354 C 0.71327 0.6237 0.33026 0.0
C1355 C 0.70761 0.60123 0.31679 0.0
C1356 C 0.68581 0.58767 0.32346 0.0
C1357 C 0.67005 0.59667 0.34359 0.0
C1358 C 0.7365 0.63863 0.32395 0.0
C1359 C 0.67922 0.5637 0.30942 0.0
H1360 H 0.74211 0.60856 0.23313 0.0
H1361 H 0.78219 0.56502 0.29048 0.0
H1362 H 0.68288 0.60862 0.26849 0.0
H1363 H 0.70161 0.63622 0.2708 0.0
H1364 H 0.6996 0.61979 0.23982 0.0
H1365 H 0.76389 0.55268 0.33097 0.0
H1366 H 0.75401 0.58238 0.34397 0.0
H1367 H 0.73125 0.55873 0.33735 0.0
H1368 H 0.70167 0.6495 0.36032 0.0
H1369 H 0.65341 0.58627 0.34886 0.0
H1370 H 0.73619 0.64461 0.30296 0.0
H1371 H 0.75336 0.62688 0.32676 0.0
H1372 H 0.73831 0.65553 0.33657 0.0
H1373 H 0.67765 0.5671 0.28785 0.0
H1374 H 0.66137 0.5556 0.31664 0.0
H1375 H 0.69429 0.54974 0.31227 0.0
C1376 C 0.59648 0.44807 0.61229 0.0
C1377 C 0.6123 0.42818 0.61893 0.0
C1378 C 0.60378 0.46608 0.5938 0.0
C1379 C 0.62744 0.46409 0.58146 0.0
C1380 C 0.64314 0.44354 0.58725 0.0
C1381 C 0.63539 0.4258 0.60601 0.0
C1382 C 0.58647 0.48774 0.58819 0.0
C1383 C 0.6684 0.44073 0.57431 0.0
C1384 C 0.63245 0.50607 0.52156 0.0
C1385 C 0.64295 0.52761 0.53273 0.0
C1386 C 0.62909 0.48437 0.5367 0.0
C1387 C 0.63598 0.48446 0.5637 0.0
C1388 C 0.64809 0.50559 0.57457 0.0
C1389 C 0.65163 0.52686 0.55886 0.0
C1390 C 0.61662 0.46199 0.52426 0.0
C1391 C 0.6555 0.50654 0.60337 0.0
H1392 H 0.57855 0.44998 0.62206 0.0
H1393 H 0.6477 0.41044 0.61103 0.0
H1394 H 0.59549 0.50548 0.5943 0.0
H1395 H 0.5827 0.48904 0.56668 0.0
H1396 H 0.56835 0.48603 0.59876 0.0
H1397 H 0.67726 0.4225 0.57897 0.0
H1398 H 0.6667 0.44251 0.55253 0.0
H1399 H 0.68096 0.45588 0.58115 0.0
H1400 H 0.62602 0.50646 0.50125 0.0
H1401 H 0.65983 0.54342 0.56762 0.0
H1402 H 0.59714 0.46053 0.53161 0.0
H1403 H 0.62643 0.44453 0.52985 0.0
H1404 H 0.61611 0.46336 0.50235 0.0
H1405 H 0.63844 0.50776 0.6158 0.0
H1406 H 0.66753 0.5229 0.60788 0.0
H1407 H 0.66557 0.48929 0.60914 0.0
C1408 C 0.1801 0.38283 0.349 0.0
C1409 C 0.18854 0.36761 0.3697 0.0
C1410 C 0.19576 0.38862 0.32756 0.0
C1411 C 0.22042 0.3791 0.32703 0.0
C1412 C 0.22911 0.364 0.34808 0.0
C1413 C 0.21302 0.35835 0.36906 0.0
C1414 C 0.1859 0.40472 0.30541 0.0
C1415 C 0.25544 0.35376 0.34844 0.0
C1416 C 0.25926 0.36977 0.26535 0.0
C1417 C 0.27671 0.38914 0.26782 0.0
C1418 C 0.23951 0.36738 0.28342 0.0
C1419 C 0.23742 0.38459 0.30457 0.0
C1420 C 0.25388 0.40521 0.306 0.0
C1421 C 0.27325 0.40733 0.28747 0.0
C1422 C 0.22201 0.3454 0.28098 0.0
C1423 C 0.25235 0.42391 0.32831 0.0
H1424 H 0.16116 0.39 0.34939 0.0
H1425 H 0.21974 0.34673 0.38509 0.0
H1426 H 0.19786 0.42147 0.30295 0.0
H1427 H 0.18657 0.39421 0.28651 0.0
H1428 H 0.16638 0.41091 0.30898 0.0
H1429 H 0.25939 0.3427 0.36654 0.0
H1430 H 0.25855 0.34165 0.33094 0.0
H1431 H 0.26912 0.36929 0.34731 0.0
H1432 H 0.26167 0.35583 0.25001 0.0
H1433 H 0.28658 0.42244 0.28945 0.0
H1434 H 0.20234 0.35145 0.28359 0.0
H1435 H 0.22619 0.33166 0.29679 0.0
H1436 H 0.22385 0.33588 0.26155 0.0
H1437 H 0.23278 0.42998 0.33156 0.0
H1438 H 0.26405 0.44066 0.32451 0.0
H1439 H 0.25889 0.41502 0.34687 0.0
C1440 C 0.3866 0.43849 0.08358 0.0
C1441 C 0.36917 0.42306 0.09623 0.0
C1442 C 0.37892 0.45697 0.0658 0.0
C1443 C 0.35314 0.46004 0.06047 0.0
C1444 C 0.33549 0.44385 0.07229 0.0
C1445 C 0.34373 0.4255 0.0901 0.0
C1446 C 0.39836 0.47388 0.05359 0.0
C1447 C 0.3079 0.44648 0.06688 0.0
C1448 C 0.33717 0.526 0.04018 0.0
C1449 C 0.33927 0.52438 0.01263 0.0
C1450 C 0.34034 0.50483 0.05606 0.0
C1451 C 0.34488 0.48141 0.04397 0.0
C1452 C 0.34472 0.47934 0.01606 0.0
C1453 C 0.3424 0.50101 0.00066 0.0
C1454 C 0.34098 0.50798 0.08574 0.0
C1455 C 0.34864 0.45454 0.00249 0.0
H1456 H 0.40631 0.43656 0.08805 0.0
H1457 H 0.33016 0.41359 0.09979 0.0
H1458 H 0.39676 0.47359 0.03173 0.0
H1459 H 0.39518 0.4934 0.06015 0.0
H1460 H 0.41769 0.46838 0.05904 0.0
H1461 H 0.29693 0.43074 0.07525 0.0
H1462 H 0.30092 0.46413 0.07569 0.0
H1463 H 0.30442 0.44747 0.04528 0.0
H1464 H 0.33498 0.54413 0.04947 0.0
H1465 H 0.34386 0.49981 0.97931 0.0
H1466 H 0.36031 0.50491 0.09295 0.0
H1467 H 0.32887 0.49392 0.09547 0.0
H1468 H 0.33487 0.52691 0.09203 0.0
H1469 H 0.36852 0.44895 0.00424 0.0
H1470 H 0.34375 0.45538 0.98117 0.0
H1471 H 0.33724 0.43978 0.01207 0.0
C1472 C 0.23328 0.61849 0.78019 0.0
C1473 C 0.21257 0.60406 0.78758 0.0
C1474 C 0.25314 0.62231 0.79767 0.0
C1475 C 0.25235 0.6112 0.82302 0.0
C1476 C 0.23249 0.59499 0.82982 0.0
C1477 C 0.21274 0.59164 0.81198 0.0
C1478 C 0.27402 0.63975 0.78973 0.0
C1479 C 0.23118 0.58256 0.85659 0.0
C1480 C 0.3114 0.61506 0.86407 0.0
C1481 C 0.30642 0.63608 0.8798 0.0
C1482 C 0.29374 0.6063 0.84586 0.0
C1483 C 0.27069 0.61897 0.8433 0.0
C1484 C 0.26544 0.63999 0.85937 0.0
C1485 C 0.28338 0.64827 0.87746 0.0
C1486 C 0.29975 0.58363 0.82927 0.0
C1487 C 0.24099 0.65395 0.85722 0.0
H1488 H 0.23341 0.62793 0.76123 0.0
H1489 H 0.1969 0.58025 0.81773 0.0
H1490 H 0.27273 0.65719 0.80152 0.0
H1491 H 0.29246 0.63119 0.79392 0.0
H1492 H 0.27323 0.64474 0.76843 0.0
H1493 H 0.21727 0.56717 0.85696 0.0
H1494 H 0.24967 0.57498 0.86235 0.0
H1495 H 0.2257 0.59656 0.8717 0.0
H1496 H 0.32911 0.60541 0.86598 0.0
H1497 H 0.27932 0.66437 0.88973 0.0
H1498 H 0.3 0.58879 0.80803 0.0
H1499 H 0.28505 0.56923 0.83186 0.0
H1500 H 0.31812 0.5753 0.83444 0.0
H1501 H 0.23871 0.66134 0.83687 0.0
H1502 H 0.23977 0.66979 0.87135 0.0
H1503 H 0.22514 0.64111 0.86104 0.0
C1504 C 0.11299 0.54411 0.60658 0.0
C1505 C 0.1241 0.56746 0.6107 0.0
C1506 C 0.12079 0.52856 0.58595 0.0
C1507 C 0.14006 0.53666 0.56878 0.0
C1508 C 0.15146 0.5602 0.57281 0.0
C1509 C 0.1434 0.57534 0.59388 0.0
C1510 C 0.10831 0.50344 0.58252 0.0
C1511 C 0.17196 0.56942 0.5548 0.0
C1512 C 0.16762 0.48162 0.53259 0.0
C1513 C 0.15193 0.4805 0.51043 0.0
C1514 C 0.1656 0.50123 0.55083 0.0
C1515 C 0.14769 0.52024 0.54655 0.0
C1516 C 0.13382 0.52063 0.52274 0.0
C1517 C 0.13604 0.50065 0.50497 0.0
C1518 C 0.18079 0.50015 0.57594 0.0
C1519 C 0.11485 0.54082 0.51722 0.0
H1520 H 0.09821 0.53781 0.61963 0.0
H1521 H 0.15201 0.59342 0.597 0.0
H1522 H 0.0992 0.50243 0.56287 0.0
H1523 H 0.12247 0.48832 0.58335 0.0
H1524 H 0.09396 0.49979 0.59793 0.0
H1525 H 0.17909 0.58806 0.56081 0.0
H1526 H 0.18775 0.556 0.55474 0.0
H1527 H 0.16495 0.57065 0.53422 0.0
H1528 H 0.18019 0.46625 0.5368 0.0
H1529 H 0.12419 0.50012 0.48762 0.0
H1530 H 0.16874 0.49352 0.59237 0.0
H1531 H 0.18784 0.51892 0.58141 0.0
H1532 H 0.1969 0.48717 0.5741 0.0
H1533 H 0.098 0.53757 0.52955 0.0
H1534 H 0.10907 0.541 0.49614 0.0
H1535 H 0.12236 0.55947 0.52247 0.0
C1536 C 0.18054 0.60705 0.14879 0.0
C1537 C 0.18433 0.62769 0.1322 0.0
C1538 C 0.19876 0.59996 0.16735 0.0
C1539 C 0.22131 0.61369 0.16901 0.0
C1540 C 0.22503 0.63471 0.15251 0.0
C1541 C 0.20646 0.64152 0.13448 0.0
C1542 C 0.19407 0.57766 0.18488 0.0
C1543 C 0.2489 0.64977 0.15348 0.0
C1544 C 0.26616 0.6154 0.22656 0.0
C1545 C 0.28633 0.60173 0.2163 0.0
C1546 C 0.24378 0.61767 0.21236 0.0
C1547 C 0.24162 0.60607 0.18731 0.0
C1548 C 0.26108 0.59046 0.17798 0.0
C1549 C 0.28319 0.58842 0.19264 0.0
C1550 C 0.22332 0.6342 0.22316 0.0
C1551 C 0.25951 0.57769 0.15141 0.0
H1552 H 0.16342 0.59636 0.14718 0.0
H1553 H 0.20959 0.65747 0.12171 0.0
H1554 H 0.20805 0.56289 0.18065 0.0
H1555 H 0.19629 0.58298 0.20595 0.0
H1556 H 0.17509 0.56972 0.18204 0.0
H1557 H 0.24871 0.66575 0.13949 0.0
H1558 H 0.25192 0.65713 0.17373 0.0
H1559 H 0.26508 0.63765 0.14858 0.0
H1560 H 0.26828 0.62545 0.24502 0.0
H1561 H 0.29855 0.57752 0.18474 0.0
H1562 H 0.20473 0.62551 0.22018 0.0
H1563 H 0.22339 0.65225 0.21239 0.0
H1564 H 0.22587 0.63811 0.24456 0.0
H1565 H 0.24098 0.5688 0.1487 0.0
H1566 H 0.27423 0.56325 0.14893 0.0
H1567 H 0.26179 0.59179 0.13552 0.0
C1568 C 0.1488 0.42301 0.896 0.0
C1569 C 0.12339 0.42168 0.88943 0.0
C1570 C 0.1574 0.44067 0.91447 0.0
C1571 C 0.14013 0.4573 0.92635 0.0
C1572 C 0.11434 0.4551 0.92071 0.0
C1573 C 0.10632 0.43726 0.90245 0.0
C1574 C 0.18497 0.44224 0.92037 0.0
C1575 C 0.09526 0.47249 0.93289 0.0
C1576 C 0.1487 0.49884 0.98592 0.0
C1577 C 0.15178 0.5221 0.97371 0.0
C1578 C 0.14768 0.47689 0.97077 0.0
C1579 C 0.14871 0.47854 0.94285 0.0
C1580 C 0.15355 0.50184 0.93065 0.0
C1581 C 0.15544 0.5233 0.94632 0.0
C1582 C 0.14358 0.45223 0.98453 0.0
C1583 C 0.15419 0.5046 0.90093 0.0
H1584 H 0.16207 0.41093 0.88604 0.0
H1585 H 0.0866 0.43609 0.89774 0.0
H1586 H 0.19289 0.4592 0.91096 0.0
H1587 H 0.18816 0.44389 0.94197 0.0
H1588 H 0.19531 0.42572 0.91281 0.0
H1589 H 0.07584 0.46772 0.92702 0.0
H1590 H 0.09648 0.47185 0.95476 0.0
H1591 H 0.09914 0.49199 0.9267 0.0
H1592 H 0.14624 0.49792 0.00717 0.0
H1593 H 0.1578 0.54131 0.93684 0.0
H1594 H 0.15484 0.43727 0.97509 0.0
H1595 H 0.12364 0.44685 0.9829 0.0
H1596 H 0.14849 0.45327 0.00583 0.0
H1597 H 0.16629 0.49012 0.89188 0.0
H1598 H 0.16102 0.52329 0.89471 0.0
H1599 H 0.13507 0.50198 0.89293 0.0
C1600 C 0.28075 0.37963 0.61385 0.0
C1601 C 0.30654 0.37772 0.61789 0.0
C1602 C 0.26461 0.38513 0.63486 0.0
C1603 C 0.27454 0.38839 0.66057 0.0
C1604 C 0.30071 0.38767 0.66451 0.0
C1605 C 0.31647 0.3825 0.64301 0.0
C1606 C 0.23682 0.38611 0.62975 0.0
C1607 C 0.31195 0.3909 0.69165 0.0
C1608 C 0.22876 0.41321 0.71156 0.0
C1609 C 0.21916 0.39087 0.72189 0.0
C1610 C 0.24778 0.41286 0.69239 0.0
C1611 C 0.25731 0.38965 0.68352 0.0
C1612 C 0.24873 0.36718 0.69509 0.0
C1613 C 0.2298 0.36808 0.71415 0.0
C1614 C 0.25663 0.43718 0.68059 0.0
C1615 C 0.25853 0.34204 0.68628 0.0
H1616 H 0.27311 0.37631 0.59431 0.0
H1617 H 0.33644 0.381 0.64614 0.0
H1618 H 0.22764 0.36982 0.6392 0.0
H1619 H 0.22861 0.4032 0.63861 0.0
H1620 H 0.23239 0.38585 0.6083 0.0
H1621 H 0.3326 0.39287 0.69087 0.0
H1622 H 0.30395 0.40753 0.70164 0.0
H1623 H 0.30736 0.37439 0.70399 0.0
H1624 H 0.22065 0.4309 0.71748 0.0
H1625 H 0.22266 0.35075 0.72225 0.0
H1626 H 0.24985 0.43869 0.65993 0.0
H1627 H 0.27733 0.43781 0.67994 0.0
H1628 H 0.24972 0.45361 0.69187 0.0
H1629 H 0.25278 0.33847 0.66555 0.0
H1630 H 0.25144 0.32654 0.69879 0.0
H1631 H 0.27924 0.34181 0.6868 0.0
C1632 C 0.35785 0.48086 0.46202 0.0
C1633 C 0.34523 0.47856 0.48606 0.0
C1634 C 0.3563 0.50286 0.44724 0.0
C1635 C 0.34174 0.52303 0.45688 0.0
C1636 C 0.32809 0.52035 0.48074 0.0
C1637 C 0.33003 0.49798 0.49518 0.0
C1638 C 0.37096 0.50477 0.42177 0.0
C1639 C 0.31206 0.54127 0.49133 0.0
C1640 C 0.36731 0.58393 0.43111 0.0
C1641 C 0.35364 0.58668 0.40767 0.0
C1642 C 0.36226 0.56428 0.44861 0.0
C1643 C 0.34274 0.54733 0.44276 0.0
C1644 C 0.32712 0.5517 0.42068 0.0
C1645 C 0.33288 0.57125 0.40324 0.0
C1646 C 0.37948 0.5602 0.47184 0.0
C1647 C 0.30571 0.53444 0.41413 0.0
H1648 H 0.36929 0.46548 0.455 0.0
H1649 H 0.32009 0.49584 0.51372 0.0
H1650 H 0.35841 0.50999 0.40525 0.0
H1651 H 0.38528 0.51965 0.42357 0.0
H1652 H 0.38049 0.48699 0.41659 0.0
H1653 H 0.30028 0.53515 0.50821 0.0
H1654 H 0.32416 0.55683 0.49807 0.0
H1655 H 0.29978 0.54873 0.47554 0.0
H1656 H 0.38328 0.59587 0.43482 0.0
H1657 H 0.322 0.57352 0.38534 0.0
H1658 H 0.39161 0.5438 0.46786 0.0
H1659 H 0.36861 0.55613 0.49001 0.0
H1660 H 0.39163 0.57663 0.4756 0.0
H1661 H 0.31313 0.5172 0.40481 0.0
H1662 H 0.29236 0.54323 0.40015 0.0
H1663 H 0.29548 0.52886 0.43227 0.0
C1664 C 0.1362 0.2792 0.39616 0.0
C1665 C 0.11597 0.29406 0.38837 0.0
C1666 C 0.14113 0.25648 0.38358 0.0
C1667 C 0.12498 0.24819 0.3633 0.0
C1668 C 0.10359 0.26237 0.35653 0.0
C1669 C 0.09958 0.28547 0.36887 0.0
C1670 C 0.16428 0.24198 0.39108 0.0
C1671 C 0.08548 0.25354 0.33567 0.0
C1672 C 0.15118 0.20493 0.31085 0.0
C1673 C 0.14242 0.18177 0.31966 0.0
C1674 C 0.14568 0.2268 0.32499 0.0
C1675 C 0.13115 0.22526 0.34838 0.0
C1676 C 0.12277 0.20184 0.35763 0.0
C1677 C 0.12863 0.18039 0.34316 0.0
C1678 C 0.15518 0.25155 0.31482 0.0
C1679 C 0.10721 0.19944 0.38245 0.0
H1680 H 0.14906 0.28602 0.41105 0.0
H1681 H 0.08391 0.29702 0.36295 0.0
H1682 H 0.15934 0.22247 0.39626 0.0
H1683 H 0.17723 0.24118 0.37395 0.0
H1684 H 0.17429 0.25051 0.40806 0.0
H1685 H 0.06866 0.26564 0.33446 0.0
H1686 H 0.09483 0.25341 0.31609 0.0
H1687 H 0.07944 0.23413 0.3399 0.0
H1688 H 0.16187 0.20601 0.29267 0.0
H1689 H 0.12243 0.16242 0.35025 0.0
H1690 H 0.16644 0.26098 0.33028 0.0
H1691 H 0.13919 0.26398 0.31017 0.0
H1692 H 0.16682 0.24944 0.29676 0.0
H1693 H 0.11617 0.20942 0.39915 0.0
H1694 H 0.1043 0.17966 0.38828 0.0
H1695 H 0.08868 0.20818 0.37919 0.0
C1696 C 0.03123 0.89732 0.567 0.0
C1697 C 0.05204 0.8816 0.56511 0.0
C1698 C 0.00974 0.88973 0.58079 0.0
C1699 C 0.00905 0.86575 0.59268 0.0
C1700 C 0.02981 0.84958 0.59021 0.0
C1701 C 0.05103 0.85774 0.57643 0.0
C1702 C 0.98792 0.9075 0.58297 0.0
C1703 C 0.02985 0.82387 0.60248 0.0
C1704 C 0.96172 0.85982 0.64813 0.0
C1705 C 0.94099 0.85013 0.63464 0.0
C1706 C 0.98451 0.86378 0.63504 0.0
C1707 C 0.98658 0.85788 0.60785 0.0
C1708 C 0.96635 0.8463 0.59468 0.0
C1709 C 0.9438 0.84248 0.60827 0.0
C1710 C 0.00582 0.87574 0.6499 0.0
C1711 C 0.96799 0.83933 0.5658 0.0
H1712 H 0.03194 0.91577 0.55821 0.0
H1713 H 0.06684 0.84533 0.57429 0.0
H1714 H 0.97085 0.89869 0.57477 0.0
H1715 H 0.98414 0.91175 0.60408 0.0
H1716 H 0.99131 0.92534 0.57236 0.0
H1717 H 0.04605 0.81248 0.59585 0.0
H1718 H 0.03067 0.82561 0.62431 0.0
H1719 H 0.01241 0.81371 0.59756 0.0
H1720 H 0.95981 0.86554 0.6686 0.0
H1721 H 0.92798 0.83472 0.59774 0.0
H1722 H 0.00891 0.89494 0.64232 0.0
H1723 H 0.02336 0.86512 0.64668 0.0
H1724 H 0.00213 0.87684 0.67149 0.0
H1725 H 0.969 0.85656 0.55366 0.0
H1726 H 0.95162 0.82823 0.5592 0.0
H1727 H 0.98523 0.82843 0.56189 0.0
C1728 C 0.38381 0.80755 0.81924 0.0
C1729 C 0.35833 0.81191 0.81499 0.0
C1730 C 0.39198 0.78658 0.83338 0.0
C1731 C 0.37413 0.76968 0.84359 0.0
C1732 C 0.3483 0.77398 0.83928 0.0
C1733 C 0.34071 0.79498 0.82474 0.0
C1734 C 0.41965 0.7825 0.83726 0.0
C1735 C 0.32871 0.75648 0.85016 0.0
C1736 C 0.39024 0.70233 0.8585 0.0
C1737 C 0.3904 0.70235 0.88624 0.0
C1738 C 0.386 0.72438 0.84429 0.0
C1739 C 0.38231 0.74703 0.85815 0.0
C1740 C 0.38448 0.74752 0.88605 0.0
C1741 C 0.38832 0.72508 0.89981 0.0
C1742 C 0.38387 0.7231 0.81455 0.0
C1743 C 0.38125 0.77145 0.90147 0.0
H1744 H 0.39742 0.82045 0.81118 0.0
H1745 H 0.321 0.79848 0.82153 0.0
H1746 H 0.424 0.78112 0.85864 0.0
H1747 H 0.42535 0.7646 0.82799 0.0
H1748 H 0.43104 0.79779 0.82858 0.0
H1749 H 0.30943 0.76282 0.8456 0.0
H1750 H 0.33139 0.73751 0.8418 0.0
H1751 H 0.33069 0.75495 0.87193 0.0
H1752 H 0.39189 0.68485 0.84783 0.0
H1753 H 0.38869 0.72522 0.92123 0.0
H1754 H 0.39563 0.73768 0.80519 0.0
H1755 H 0.36425 0.72674 0.80864 0.0
H1756 H 0.3895 0.70458 0.80662 0.0
H1757 H 0.39271 0.7866 0.89271 0.0
H1758 H 0.38653 0.76923 0.92257 0.0
H1759 H 0.36144 0.77747 0.90051 0.0
C1760 C 0.45648 0.1188 0.04968 0.0
C1761 C 0.43402 0.11531 0.06334 0.0
C1762 C 0.47777 0.12761 0.06285 0.0
C1763 C 0.47655 0.13248 0.09036 0.0
C1764 C 0.45368 0.12954 0.10405 0.0
C1765 C 0.43263 0.1211 0.09029 0.0
C1766 C 0.50186 0.13053 0.04761 0.0
C1767 C 0.45173 0.13435 0.13341 0.0
C1768 C 0.53486 0.11833 0.12915 0.0
C1769 C 0.54536 0.14207 0.13262 0.0
C1770 C 0.5126 0.11514 0.11531 0.0
C1771 C 0.49992 0.13633 0.10546 0.0
C1772 C 0.50983 0.16055 0.10977 0.0
C1773 C 0.53286 0.16312 0.1229 0.0
C1774 C 0.50294 0.08893 0.11078 0.0
C1775 C 0.49627 0.18355 0.10026 0.0
H1776 H 0.4574 0.11466 0.02872 0.0
H1777 H 0.41523 0.11818 0.10078 0.0
H1778 H 0.51056 0.14887 0.05193 0.0
H1779 H 0.51526 0.11586 0.05385 0.0
H1780 H 0.49899 0.12893 0.02593 0.0
H1781 H 0.43289 0.12998 0.14134 0.0
H1782 H 0.4656 0.1229 0.14428 0.0
H1783 H 0.45599 0.15424 0.13758 0.0
H1784 H 0.54458 0.10196 0.13638 0.0
H1785 H 0.54103 0.18147 0.12564 0.0
H1786 H 0.50135 0.08523 0.08926 0.0
H1787 H 0.48401 0.08691 0.11946 0.0
H1788 H 0.51528 0.07447 0.11956 0.0
H1789 H 0.49496 0.18328 0.07838 0.0
H1790 H 0.50579 0.20104 0.10644 0.0
H1791 H 0.4769 0.18374 0.10808 0.0
C1792 C 0.1511 0.78763 0.18599 0.0
C1793 C 0.13925 0.8104 0.18079 0.0
C1794 C 0.14406 0.7659 0.17239 0.0
C1795 C 0.12481 0.76713 0.1532 0.0
C1796 C 0.11303 0.79015 0.1477 0.0
C1797 C 0.12035 0.81139 0.16172 0.0
C1798 C 0.1572 0.74162 0.17852 0.0
C1799 C 0.09231 0.7927 0.12761 0.0
C1800 C 0.12492 0.71519 0.10277 0.0
C1801 C 0.10871 0.69797 0.11464 0.0
C1802 C 0.1297 0.73825 0.11471 0.0
C1803 C 0.1175 0.74432 0.13866 0.0
C1804 C 0.0994 0.72797 0.1494 0.0
C1805 C 0.09551 0.70467 0.13747 0.0
C1806 C 0.14863 0.75562 0.10238 0.0
C1807 C 0.0849 0.73472 0.17398 0.0
H1808 H 0.16569 0.78674 0.20079 0.0
H1809 H 0.11111 0.82886 0.15779 0.0
H1810 H 0.14348 0.72762 0.18564 0.0
H1811 H 0.16588 0.734 0.16028 0.0
H1812 H 0.17194 0.74388 0.19377 0.0
H1813 H 0.09391 0.81074 0.11692 0.0
H1814 H 0.0921 0.77743 0.11281 0.0
H1815 H 0.07409 0.79275 0.1381 0.0
H1816 H 0.13517 0.71001 0.0851 0.0
H1817 H 0.08274 0.6914 0.1464 0.0
H1818 H 0.16457 0.75828 0.11611 0.0
H1819 H 0.14008 0.77422 0.09897 0.0
H1820 H 0.15593 0.74841 0.08328 0.0
H1821 H 0.09778 0.73591 0.1911 0.0
H1822 H 0.07009 0.72085 0.17855 0.0
H1823 H 0.07611 0.75336 0.17153 0.0
C1824 C 0.5424 0.85717 0.39725 0.0
C1825 C 0.5445 0.86017 0.36981 0.0
C1826 C 0.51947 0.86074 0.4101 0.0
C1827 C 0.49816 0.86724 0.39508 0.0
C1828 C 0.49988 0.86907 0.36724 0.0
C1829 C 0.52308 0.86553 0.35492 0.0
C1830 C 0.51826 0.8585 0.43984 0.0
C1831 C 0.47746 0.87573 0.35059 0.0
C1832 C 0.43457 0.85984 0.42699 0.0
C1833 C 0.42951 0.88428 0.43523 0.0
C1834 C 0.4568 0.85398 0.41376 0.0
C1835 C 0.47433 0.87314 0.40867 0.0
C1836 C 0.46935 0.89792 0.41705 0.0
C1837 C 0.44699 0.90317 0.43045 0.0
C1838 C 0.46148 0.82734 0.40524 0.0
C1839 C 0.48761 0.91884 0.41184 0.0
H1840 H 0.55886 0.85298 0.40888 0.0
H1841 H 0.52456 0.86772 0.33367 0.0
H1842 H 0.51354 0.87691 0.4486 0.0
H1843 H 0.5033 0.84527 0.44566 0.0
H1844 H 0.5362 0.85201 0.44845 0.0
H1845 H 0.48158 0.87482 0.32908 0.0
H1846 H 0.46169 0.86295 0.355 0.0
H1847 H 0.47117 0.89494 0.35546 0.0
H1848 H 0.4213 0.84517 0.4314 0.0
H1849 H 0.44303 0.92209 0.43686 0.0
H1850 H 0.47979 0.82078 0.41279 0.0
H1851 H 0.46223 0.82632 0.38335 0.0
H1852 H 0.44672 0.8144 0.41235 0.0
H1853 H 0.50573 0.91468 0.42151 0.0
H1854 H 0.4807 0.93713 0.41923 0.0
H1855 H 0.49123 0.92045 0.3903 0.0
C1856 C 0.38639 0.27709 0.60089 0.0
C1857 C 0.3878 0.29901 0.61598 0.0
C1858 C 0.38476 0.25367 0.61321 0.0
C1859 C 0.3844 0.25235 0.64117 0.0
C1860 C 0.38826 0.27418 0.65635 0.0
C1861 C 0.39004 0.29727 0.64354 0.0
C1862 C 0.38137 0.23065 0.59636 0.0
C1863 C 0.38831 0.27351 0.6862 0.0
C1864 C 0.343 0.20385 0.67354 0.0
C1865 C 0.36052 0.18623 0.68192 0.0
C1866 C 0.3506 0.22522 0.65971 0.0
C1867 C 0.37636 0.2291 0.65457 0.0
C1868 C 0.39416 0.21142 0.66329 0.0
C1869 C 0.38597 0.19019 0.67695 0.0
C1870 C 0.33105 0.24364 0.65057 0.0
C1871 C 0.42175 0.21495 0.65828 0.0
H1872 H 0.38508 0.27828 0.57955 0.0
H1873 H 0.39169 0.3141 0.65533 0.0
H1874 H 0.39267 0.21489 0.60405 0.0
H1875 H 0.36149 0.22485 0.59694 0.0
H1876 H 0.38666 0.23408 0.57543 0.0
H1877 H 0.3949 0.29138 0.69491 0.0
H1878 H 0.36906 0.2699 0.69343 0.0
H1879 H 0.40035 0.25815 0.69353 0.0
H1880 H 0.32331 0.20066 0.67731 0.0
H1881 H 0.39951 0.17672 0.68402 0.0
H1882 H 0.3323 0.24613 0.62883 0.0
H1883 H 0.33445 0.26213 0.65979 0.0
H1884 H 0.3118 0.23755 0.65562 0.0
H1885 H 0.42531 0.21651 0.63674 0.0
H1886 H 0.43309 0.19928 0.66621 0.0
H1887 H 0.42822 0.23259 0.66751 0.0
C1888 C 0.03703 0.10739 0.94156 0.0
C1889 C 0.06115 0.11335 0.93291 0.0
C1890 C 0.01602 0.1147 0.92692 0.0
C1891 C 0.01929 0.12842 0.90321 0.0
C1892 C 0.04361 0.13445 0.89438 0.0
C1893 C 0.06421 0.1267 0.90932 0.0
C1894 C 0.99034 0.10737 0.93658 0.0
C1895 C 0.04807 0.14936 0.86946 0.0
C1896 C 0.96644 0.12143 0.85455 0.0
C1897 C 0.95125 0.1419 0.86107 0.0
C1898 C 0.98918 0.11742 0.86739 0.0
C1899 C -0.00278 0.13461 0.8868 0.0
C1900 C 0.98315 0.15651 0.89175 0.0
C1901 C 0.96007 0.15979 0.87902 0.0
C1902 C 0.004 0.09413 0.86112 0.0
C1903 C 0.99201 0.1759 0.91124 0.0
H1904 H 0.03455 0.09704 0.95979 0.0
H1905 H 0.08281 0.13091 0.90239 0.0
H1906 H 0.9786 0.12426 0.93925 0.0
H1907 H 0.98105 0.09542 0.92158 0.0
H1908 H 0.99099 0.09702 0.95559 0.0
H1909 H 0.0669 0.14568 0.86112 0.0
H1910 H 0.03401 0.14529 0.85398 0.0
H1911 H 0.04684 0.16955 0.87426 0.0
H1912 H 0.95996 0.10765 0.84043 0.0
H1913 H 0.94862 0.1759 0.88375 0.0
H1914 H 0.00512 0.08212 0.87896 0.0
H1915 H 0.02338 0.09917 0.85546 0.0
H1916 H 0.99557 0.08308 0.84482 0.0
H1917 H 0.99173 0.16798 0.9315 0.0
H1918 H 0.98019 0.19296 0.91096 0.0
H1919 H 0.0116 0.18126 0.90676 0.0
C1920 C 0.87743 0.80888 0.68316 0.0
C1921 C 0.85199 0.81271 0.68809 0.0
C1922 C 0.88589 0.78705 0.67086 0.0
C1923 C 0.86833 0.76873 0.66317 0.0
C1924 C 0.84252 0.77251 0.66816 0.0
C1925 C 0.83465 0.79444 0.68091 0.0
C1926 C 0.91354 0.7836 0.66615 0.0
C1927 C 0.82325 0.75346 0.65988 0.0
C1928 C 0.88372 0.72059 0.61078 0.0
C1929 C 0.88708 0.6991 0.62622 0.0
C1930 C 0.87865 0.74374 0.6226 0.0
C1931 C 0.87691 0.74531 0.65046 0.0
C1932 C 0.88197 0.72407 0.66618 0.0
C1933 C 0.88711 0.70121 0.65385 0.0
C1934 C 0.8737 0.76612 0.60522 0.0
C1935 C 0.88061 0.72517 0.69599 0.0
H1936 H 0.8908 0.82285 0.68939 0.0
H1937 H 0.81496 0.79755 0.68473 0.0
H1938 H 0.91998 0.76584 0.67514 0.0
H1939 H 0.91732 0.78239 0.64462 0.0
H1940 H 0.92478 0.79917 0.67446 0.0
H1941 H 0.8039 0.75955 0.66456 0.0
H1942 H 0.82463 0.75 0.63829 0.0
H1943 H 0.82686 0.73544 0.66998 0.0
H1944 H 0.8839 0.71914 0.58941 0.0
H1945 H 0.88986 0.68473 0.66594 0.0
H1946 H 0.88477 0.78242 0.61196 0.0
H1947 H 0.85369 0.77136 0.60666 0.0
H1948 H 0.87822 0.76238 0.58415 0.0
H1949 H 0.89211 0.74084 0.70356 0.0
H1950 H 0.88708 0.70757 0.70536 0.0
H1951 H 0.86105 0.72868 0.70223 0.0
C1952 C 0.0431 0.1423 0.38968 0.0
C1953 C 0.0459 0.1364 0.36283 0.0
C1954 C 0.02003 0.1395 0.40236 0.0
C1955 C -0.0007 0.13073 0.38775 0.0
C1956 C 0.00145 0.12694 0.36015 0.0
C1957 C 0.02481 0.12984 0.34796 0.0
C1958 C 0.01832 0.14418 0.43176 0.0
C1959 C 0.97957 0.11806 0.34387 0.0
C1960 C 0.95261 0.09114 0.42538 0.0
C1961 C 0.93322 0.10819 0.42957 0.0
C1962 C 0.97417 0.09825 0.41153 0.0
C1963 C 0.97631 0.12302 0.40186 0.0
C1964 C 0.95687 0.14037 0.40633 0.0
C1965 C 0.93562 0.13274 0.42028 0.0
C1966 C 0.99467 0.07928 0.4072 0.0
C1967 C 0.95842 0.1669 0.39631 0.0
H1968 H 0.05925 0.14783 0.40118 0.0
H1969 H 0.02679 0.12552 0.32713 0.0
H1970 H 0.00176 0.15582 0.43647 0.0
H1971 H 0.01604 0.12612 0.44223 0.0
H1972 H 0.03525 0.15362 0.43957 0.0
H1973 H 0.98337 0.11927 0.32231 0.0
H1974 H 0.9754 0.09832 0.34887 0.0
H1975 H 0.96261 0.12917 0.34843 0.0
H1976 H 0.95079 0.07217 0.43261 0.0
H1977 H 0.92094 0.14611 0.42425 0.0
H1978 H 0.01229 0.08599 0.41628 0.0
H1979 H -0.00181 0.07691 0.38573 0.0
H1980 H 0.98999 0.06076 0.41578 0.0
H1981 H 0.976 0.17582 0.40303 0.0
H1982 H 0.94241 0.17849 0.40305 0.0
H1983 H 0.95869 0.16689 0.37438 0.0
C1984 C 0.61456 0.29258 0.13802 0.0
C1985 C 0.60329 0.29289 0.11308 0.0
C1986 C 0.61984 0.26999 0.1507 0.0
C1987 C 0.61295 0.24727 0.13842 0.0
C1988 C 0.60012 0.24757 0.11394 0.0
C1989 C 0.59586 0.27048 0.10124 0.0
C1990 C 0.634 0.27043 0.17652 0.0
C1991 C 0.59181 0.22369 0.10074 0.0
C1992 C 0.65233 0.19129 0.15737 0.0
C1993 C 0.637 0.1798 0.17608 0.0
C1994 C 0.64431 0.21291 0.14425 0.0
C1995 C 0.62066 0.2233 0.15054 0.0
C1996 C 0.60514 0.21156 0.16946 0.0
C1997 C 0.61346 0.18972 0.18188 0.0
C1998 C 0.66119 0.22475 0.12388 0.0
C1999 C 0.57995 0.22221 0.1768 0.0
H2000 H 0.62068 0.30997 0.14691 0.0
H2001 H 0.58715 0.2709 0.0819 0.0
H2002 H 0.62381 0.25958 0.19177 0.0
H2003 H 0.65252 0.26147 0.17381 0.0
H2004 H 0.63696 0.28971 0.184 0.0
H2005 H 0.58025 0.22727 0.08292 0.0
H2006 H 0.6084 0.21259 0.09481 0.0
H2007 H 0.58085 0.21212 0.11475 0.0
H2008 H 0.67039 0.18318 0.15282 0.0
H2009 H 0.60168 0.18047 0.19632 0.0
H2010 H 0.66647 0.24384 0.13034 0.0
H2011 H 0.65119 0.2266 0.10478 0.0
H2012 H 0.67851 0.21375 0.12055 0.0
H2013 H 0.58229 0.24118 0.18528 0.0
H2014 H 0.56993 0.21041 0.19143 0.0
H2015 H 0.56815 0.2241 0.1589 0.0
C2016 C 0.47042 0.85502 0.84342 0.0
C2017 C 0.44823 0.85754 0.85786 0.0
C2018 C 0.49365 0.85919 0.8555 0.0
C2019 C 0.49442 0.86677 0.88232 0.0
C2020 C 0.472 0.8693 0.8969 0.0
C2021 C 0.4492 0.86426 0.88459 0.0
C2022 C 0.51728 0.8556 0.83963 0.0
C2023 C 0.47205 0.87779 0.92541 0.0
C2024 C 0.55071 0.8566 0.92571 0.0
C2025 C 0.56153 0.88049 0.92631 0.0
C2026 C 0.52964 0.85164 0.91034 0.0
C2027 C 0.51857 0.87121 0.89577 0.0
C2028 C 0.52935 0.89538 0.89611 0.0
C2029 C 0.55088 0.89972 0.9113 0.0
C2030 C 0.51897 0.82551 0.91009 0.0
C2031 C 0.51781 0.91675 0.88097 0.0
H2032 H 0.46956 0.84992 0.82269 0.0
H2033 H 0.43201 0.8667 0.89566 0.0
H2034 H 0.52787 0.87338 0.83872 0.0
H2035 H 0.52949 0.84166 0.84944 0.0
H2036 H 0.51344 0.84922 0.81914 0.0
H2037 H 0.45288 0.8798 0.93358 0.0
H2038 H 0.48243 0.86418 0.93774 0.0
H2039 H 0.48175 0.89602 0.92715 0.0
H2040 H 0.55889 0.84152 0.93706 0.0
H2041 H 0.55925 0.91814 0.91156 0.0
H2042 H 0.51599 0.81912 0.88946 0.0
H2043 H 0.50051 0.82543 0.92008 0.0
H2044 H 0.53131 0.81188 0.92024 0.0
H2045 H 0.5152 0.9115 0.85995 0.0
H2046 H 0.52936 0.93395 0.8819 0.0
H2047 H 0.49905 0.92098 0.8892 0.0
C2048 C 0.8647 0.29221 0.86478 0.0
C2049 C 0.88667 0.29767 0.87843 0.0
C2050 C 0.86169 0.26937 0.85194 0.0
C2051 C 0.88151 0.25188 0.85225 0.0
C2052 C 0.9041 0.25758 0.86555 0.0
C2053 C 0.90635 0.28053 0.87884 0.0
C2054 C 0.83714 0.26386 0.8384 0.0
C2055 C 0.92578 0.23953 0.86567 0.0
C2056 C 0.86143 0.18536 0.83958 0.0
C2057 C 0.86412 0.18388 0.81214 0.0
C2058 C 0.86787 0.2072 0.85315 0.0
C2059 C 0.878 0.22756 0.83889 0.0
C2060 C 0.88189 0.22561 0.81127 0.0
C2061 C 0.87438 0.20386 0.79808 0.0
C2062 C 0.86274 0.20888 0.88246 0.0
C2063 C 0.89339 0.24668 0.79562 0.0
H2064 H 0.84968 0.30578 0.86444 0.0
H2065 H 0.92338 0.28514 0.88934 0.0
H2066 H 0.84026 0.26065 0.81699 0.0
H2067 H 0.82884 0.24655 0.84666 0.0
H2068 H 0.82345 0.27931 0.8407 0.0
H2069 H 0.94236 0.24725 0.87601 0.0
H2070 H 0.92025 0.22187 0.87551 0.0
H2071 H 0.93113 0.23476 0.84507 0.0
H2072 H 0.8536 0.16965 0.85029 0.0
H2073 H 0.87684 0.20231 0.77686 0.0
H2074 H 0.8483 0.22334 0.8862 0.0
H2075 H 0.87983 0.21464 0.89321 0.0
H2076 H 0.85609 0.19087 0.8908 0.0
H2077 H 0.8802 0.26264 0.79475 0.0
H2078 H 0.89805 0.24098 0.77507 0.0
H2079 H 0.91065 0.2534 0.80545 0.0
C2080 C 0.46044 0.15547 0.62552 0.0
C2081 C 0.45262 0.13752 0.64386 0.0
C2082 C 0.48264 0.1522 0.61118 0.0
C2083 C 0.49678 0.13012 0.61483 0.0
C2084 C 0.48954 0.11253 0.63422 0.0
C2085 C 0.46767 0.11661 0.64877 0.0
C2086 C 0.49032 0.17176 0.5913 0.0
C2087 C 0.50408 0.08869 0.63855 0.0
C2088 C 0.53513 0.10566 0.55727 0.0
C2089 C 0.55927 0.11273 0.56477 0.0
C2090 C 0.51451 0.11153 0.57329 0.0
C2091 C 0.51829 0.12461 0.59733 0.0
C2092 C 0.54263 0.13166 0.60501 0.0
C2093 C 0.56279 0.12563 0.58859 0.0
C2094 C 0.48872 0.10363 0.56459 0.0
C2095 C 0.54743 0.1456 0.63049 0.0
H2096 H 0.44883 0.1717 0.62185 0.0
H2097 H 0.46156 0.10259 0.6628 0.0
H2098 H 0.51021 0.1769 0.59411 0.0
H2099 H 0.48845 0.1641 0.57102 0.0
H2100 H 0.47875 0.18893 0.59282 0.0
H2101 H 0.49674 0.07764 0.65544 0.0
H2102 H 0.50319 0.07697 0.62048 0.0
H2103 H 0.52405 0.09294 0.64226 0.0
H2104 H 0.53234 0.09571 0.53884 0.0
H2105 H 0.58143 0.13079 0.59456 0.0
H2106 H 0.47642 0.12024 0.5629 0.0
H2107 H 0.48031 0.09112 0.57964 0.0
H2108 H 0.48895 0.09375 0.54528 0.0
H2109 H 0.53849 0.16427 0.62958 0.0
H2110 H 0.56767 0.14815 0.63443 0.0
H2111 H 0.539 0.1355 0.64744 0.0
C2112 C 0.64108 0.78677 0.3102 0.0
C2113 C 0.62497 0.80732 0.3096 0.0
C2114 C 0.63483 0.7653 0.32463 0.0
C2115 C 0.61166 0.76425 0.33818 0.0
C2116 C 0.59526 0.78495 0.33749 0.0
C2117 C 0.60223 0.80633 0.32331 0.0
C2118 C 0.65304 0.74375 0.3254 0.0
C2119 C 0.57032 0.78444 0.35146 0.0
C2120 C 0.59096 0.69785 0.35085 0.0
C2121 C 0.59979 0.69403 0.3766 0.0
C2122 C 0.59316 0.72125 0.33865 0.0
C2123 C 0.60458 0.74115 0.35253 0.0
C2124 C 0.61165 0.73794 0.37925 0.0
C2125 C 0.60903 0.7144 0.39104 0.0
C2126 C 0.58486 0.72416 0.3103 0.0
C2127 C 0.62386 0.75872 0.39475 0.0
H2128 H 0.65875 0.78764 0.29975 0.0
H2129 H 0.58962 0.82211 0.32246 0.0
H2130 H 0.6577 0.7391 0.3462 0.0
H2131 H 0.6444 0.72693 0.31646 0.0
H2132 H 0.67065 0.74793 0.31464 0.0
H2133 H 0.55975 0.80214 0.34893 0.0
H2134 H 0.55883 0.76882 0.34374 0.0
H2135 H 0.57304 0.78109 0.3729 0.0
H2136 H 0.58345 0.68226 0.33972 0.0
H2137 H 0.61574 0.71165 0.41104 0.0
H2138 H 0.60151 0.72574 0.29732 0.0
H2139 H 0.57376 0.7415 0.30786 0.0
H2140 H 0.5735 0.70804 0.30348 0.0
H2141 H 0.64318 0.76153 0.38737 0.0
H2142 H 0.62477 0.75445 0.41622 0.0
H2143 H 0.61367 0.77656 0.39204 0.0
C2144 C 0.95452 0.90229 0.06681 0.0
C2145 C 0.93314 0.88746 0.06946 0.0
C2146 C 0.97619 0.8968 0.08126 0.0
C2147 C 0.97633 0.87599 0.09858 0.0
C2148 C 0.95472 0.86118 0.10154 0.0
C2149 C 0.93344 0.86708 0.08688 0.0
C2150 C -0.00099 0.91306 0.07782 0.0
C2151 C 0.95421 0.83883 0.11977 0.0
C2152 C 0.04039 0.84987 0.11297 0.0
C2153 C 0.04567 0.86106 0.13734 0.0
C2154 C 0.01729 0.85361 0.10068 0.0
C2155 C -0.0006 0.86927 0.11293 0.0
C2156 C 0.00412 0.87947 0.13823 0.0
C2157 C 0.02721 0.87502 0.1503 0.0
C2158 C 0.01253 0.84183 0.07403 0.0
C2159 C 0.98543 0.89629 0.15183 0.0
H2160 H 0.95436 0.91807 0.05341 0.0
H2161 H 0.91706 0.85544 0.08883 0.0
H2162 H 0.00515 0.9204 0.09727 0.0
H2163 H 0.01462 0.90179 0.06968 0.0
H2164 H 0.99553 0.92907 0.06436 0.0
H2165 H 0.93546 0.83001 0.12081 0.0
H2166 H 0.96782 0.82464 0.11282 0.0
H2167 H 0.95986 0.84438 0.14003 0.0
H2168 H 0.05465 0.83891 0.10308 0.0
H2169 H 0.03135 0.88381 0.16911 0.0
H2170 H 0.01154 0.8566 0.05869 0.0
H2171 H 0.99433 0.83194 0.07404 0.0
H2172 H 0.02742 0.82837 0.06838 0.0
H2173 H 0.98357 0.91394 0.14053 0.0
H2174 H 0.99107 0.90091 0.17238 0.0
H2175 H 0.96674 0.88737 0.15233 0.0
C2176 C 0.65437 0.70241 0.8214 0.0
C2177 C 0.63683 0.68313 0.81932 0.0
C2178 C 0.64901 0.72395 0.83624 0.0
C2179 C 0.62555 0.72615 0.84908 0.0
C2180 C 0.60763 0.70694 0.84652 0.0
C2181 C 0.6135 0.68573 0.83159 0.0
C2182 C 0.66847 0.74426 0.83837 0.0
C2183 C 0.58235 0.70863 0.85973 0.0
C2184 C 0.6219 0.77082 0.90714 0.0
C2185 C 0.61139 0.79203 0.89534 0.0
C2186 C 0.62605 0.749 0.89244 0.0
C2187 C 0.61978 0.74853 0.86527 0.0
C2188 C 0.60839 0.76959 0.85346 0.0
C2189 C 0.60418 0.79105 0.8687 0.0
C2190 C 0.63777 0.72667 0.90579 0.0
C2191 C 0.60139 0.76975 0.82454 0.0
H2192 H 0.67237 0.70052 0.81175 0.0
H2193 H 0.59964 0.67124 0.82923 0.0
H2194 H 0.66073 0.76219 0.83107 0.0
H2195 H 0.67366 0.74707 0.85939 0.0
H2196 H 0.68564 0.73983 0.82694 0.0
H2197 H 0.57001 0.69271 0.85446 0.0
H2198 H 0.58472 0.70891 0.88151 0.0
H2199 H 0.57285 0.72625 0.8541 0.0
H2200 H 0.62737 0.77144 0.92776 0.0
H2201 H 0.59605 0.80737 0.85941 0.0
H2202 H 0.6562 0.72265 0.89668 0.0
H2203 H 0.62591 0.7099 0.90291 0.0
H2204 H 0.64046 0.72966 0.92733 0.0
H2205 H 0.61844 0.76765 0.81225 0.0
H2206 H 0.59173 0.78726 0.81867 0.0
H2207 H 0.58902 0.75371 0.81996 0.0
C2208 C 0.55149 0.35321 0.06748 0.0
C2209 C 0.55677 0.37874 0.06507 0.0
C2210 C 0.52879 0.34497 0.07824 0.0
C2211 C 0.51122 0.36275 0.08738 0.0
C2212 C 0.51697 0.38858 0.08602 0.0
C2213 C 0.53954 0.3963 0.07439 0.0
C2214 C 0.52325 0.31733 0.07886 0.0
C2215 C 0.49911 0.40808 0.09645 0.0
C2216 C 0.44175 0.34902 0.08803 0.0
C2217 C 0.43714 0.34564 0.11508 0.0
C2218 C 0.46597 0.35364 0.07864 0.0
C2219 C 0.48614 0.35458 0.0967 0.0
C2220 C 0.48189 0.34933 0.12376 0.0
C2221 C 0.45741 0.34497 0.13265 0.0
C2222 C 0.46975 0.35898 0.0496 0.0
C2223 C 0.50293 0.34985 0.1436 0.0
H2224 H 0.56479 0.33964 0.06002 0.0
H2225 H 0.5438 0.41603 0.07278 0.0
H2226 H 0.51695 0.31158 0.09884 0.0
H2227 H 0.50782 0.31311 0.06492 0.0
H2228 H 0.53975 0.30589 0.07325 0.0
H2229 H 0.50727 0.42715 0.09597 0.0
H2230 H 0.48178 0.40805 0.08444 0.0
H2231 H 0.49371 0.40365 0.11711 0.0
H2232 H 0.42624 0.34959 0.07429 0.0
H2233 H 0.45401 0.34218 0.15358 0.0
H2234 H 0.48513 0.34733 0.04157 0.0
H2235 H 0.47518 0.37882 0.04693 0.0
H2236 H 0.4526 0.35543 0.03784 0.0
H2237 H 0.51906 0.33876 0.13641 0.0
H2238 H 0.49708 0.34249 0.16318 0.0
H2239 H 0.50946 0.36937 0.14621 0.0
C2240 C 0.84042 0.28888 0.3165 0.0
C2241 C 0.85676 0.30923 0.31514 0.0
C2242 C 0.84739 0.26695 0.32977 0.0
C2243 C 0.87132 0.26538 0.34164 0.0
C2244 C 0.88814 0.28562 0.33959 0.0
C2245 C 0.88061 0.3073 0.32635 0.0
C2246 C 0.82895 0.24567 0.33159 0.0
C2247 C 0.91387 0.28461 0.35178 0.0
C2248 C 0.87595 0.2185 0.39735 0.0
C2249 C 0.88519 0.19745 0.38403 0.0
C2250 C 0.8724 0.24115 0.38402 0.0
C2251 C 0.87834 0.24276 0.35681 0.0
C2252 C 0.88933 0.22212 0.34375 0.0
C2253 C 0.89266 0.19968 0.35755 0.0
C2254 C 0.86091 0.2629 0.39868 0.0
C2255 C 0.8963 0.22331 0.31484 0.0
H2256 H 0.822 0.29032 0.30776 0.0
H2257 H 0.89349 0.32279 0.32469 0.0
H2258 H 0.83733 0.22837 0.32337 0.0
H2259 H 0.82438 0.24194 0.35263 0.0
H2260 H 0.81133 0.24966 0.32082 0.0
H2261 H 0.92542 0.30109 0.34642 0.0
H2262 H 0.9122 0.28388 0.37363 0.0
H2263 H 0.9238 0.26744 0.34542 0.0
H2264 H 0.87033 0.21698 0.41788 0.0
H2265 H 0.90009 0.18356 0.34721 0.0
H2266 H 0.84193 0.2666 0.39081 0.0
H2267 H 0.87215 0.28005 0.39561 0.0
H2268 H 0.85939 0.25932 0.42026 0.0
H2269 H 0.87909 0.22466 0.30272 0.0
H2270 H 0.90698 0.2066 0.30836 0.0
H2271 H 0.90762 0.24022 0.31075 0.0
C2272 C 0.95556 0.59997 0.55654 0.0
C2273 C 0.9331 0.61116 0.56433 0.0
C2274 C 0.97787 0.60527 0.56997 0.0
C2275 C 0.97762 0.62238 0.59138 0.0
C2276 C 0.9549 0.63347 0.59946 0.0
C2277 C 0.93298 0.62752 0.58593 0.0
C2278 C 0.00171 0.59255 0.56133 0.0
C2279 C 0.9531 0.65169 0.62223 0.0
C2280 C 0.0311 0.61949 0.63997 0.0
C2281 C 0.04764 0.63697 0.6291 0.0
C2282 C 0.008 0.61479 0.62808 0.0
C2283 C 0.00115 0.62841 0.60529 0.0
C2284 C 0.01699 0.64743 0.59546 0.0
C2285 C 0.04042 0.65111 0.60717 0.0
C2286 C 0.9913 0.59472 0.63934 0.0
C2287 C 0.00934 0.66353 0.57237 0.0
H2288 H 0.95575 0.58718 0.53992 0.0
H2289 H 0.91567 0.63595 0.5922 0.0
H2290 H 0.01543 0.6067 0.5546 0.0
H2291 H 0.01017 0.5825 0.57829 0.0
H2292 H -0.00144 0.57902 0.54501 0.0
H2293 H 0.9409 0.64365 0.63783 0.0
H2294 H 0.97132 0.65656 0.63121 0.0
H2295 H 0.94401 0.66917 0.61539 0.0
H2296 H 0.03684 0.60841 0.65685 0.0
H2297 H 0.05325 0.66472 0.59895 0.0
H2298 H 0.98755 0.58031 0.62407 0.0
H2299 H 0.97307 0.60296 0.64514 0.0
H2300 H -0.00036 0.58548 0.6569 0.0
H2301 H 0.00753 0.65187 0.55434 0.0
H2302 H 0.02301 0.67868 0.56839 0.0
H2303 H 0.99079 0.67205 0.57632 0.0
C2304 C 0.65709 0.29286 0.6787 0.0
C2305 C 0.63875 0.31053 0.68486 0.0
C2306 C 0.65097 0.27117 0.66454 0.0
C2307 C 0.62587 0.26706 0.65671 0.0
C2308 C 0.60721 0.28466 0.66338 0.0
C2309 C 0.61392 0.30618 0.67743 0.0
C2310 C 0.67137 0.25275 0.65776 0.0
C2311 C 0.58025 0.2809 0.65555 0.0
C2312 C 0.61853 0.22036 0.60096 0.0
C2313 C 0.61448 0.19822 0.61511 0.0
C2314 C 0.62093 0.24329 0.61417 0.0
C2315 C 0.61928 0.24396 0.6421 0.0
C2316 C 0.61342 0.22197 0.65626 0.0
C2317 C 0.61103 0.19936 0.64258 0.0
C2318 C 0.6267 0.2665 0.59837 0.0
C2319 C 0.6111 0.22202 0.68603 0.0
H2320 H 0.6763 0.29625 0.68445 0.0
H2321 H 0.59966 0.31958 0.68288 0.0
H2322 H 0.667 0.23426 0.66651 0.0
H2323 H 0.67244 0.25023 0.63601 0.0
H2324 H 0.68996 0.25886 0.66504 0.0
H2325 H 0.56781 0.29558 0.66382 0.0
H2326 H 0.57861 0.28121 0.6337 0.0
H2327 H 0.57352 0.2624 0.66236 0.0
H2328 H 0.62094 0.21965 0.5797 0.0
H2329 H 0.60749 0.18238 0.65363 0.0
H2330 H 0.64623 0.27238 0.60225 0.0
H2331 H 0.61435 0.28211 0.60449 0.0
H2332 H 0.62449 0.26343 0.57678 0.0
H2333 H 0.62965 0.22575 0.69496 0.0
H2334 H 0.60405 0.20394 0.69379 0.0
H2335 H 0.59833 0.23713 0.69261 0.0
C2336 C 0.95749 0.37752 0.94928 0.0
C2337 C 0.9349 0.37947 0.93557 0.0
C2338 C 0.97922 0.36931 0.93638 0.0
C2339 C 0.97821 0.36329 0.90912 0.0
C2340 C 0.95529 0.36496 0.89534 0.0
C2341 C 0.93391 0.37309 0.90879 0.0
C2342 C 0.00338 0.3679 0.95166 0.0
C2343 C 0.95355 0.35891 0.86623 0.0
C2344 C 0.03628 0.37514 0.86877 0.0
C2345 C 0.04673 0.35123 0.8668 0.0
C2346 C 0.0142 0.37922 0.88279 0.0
C2347 C 0.00165 0.35868 0.89427 0.0
C2348 C 0.01162 0.33426 0.89163 0.0
C2349 C 0.0345 0.33087 0.87836 0.0
C2350 C 0.00458 0.40564 0.88572 0.0
C2351 C -0.00177 0.31187 0.9029 0.0
H2352 H 0.95813 0.38226 0.97011 0.0
H2353 H 0.91649 0.37524 0.89821 0.0
H2354 H 0.01228 0.34938 0.94887 0.0
H2355 H 0.01661 0.38215 0.94406 0.0
H2356 H 0.00057 0.37112 0.97316 0.0
H2357 H 0.9342 0.36064 0.85857 0.0
H2358 H 0.96576 0.37165 0.85474 0.0
H2359 H 0.96025 0.33959 0.8626 0.0
H2360 H 0.04588 0.39095 0.8601 0.0
H2361 H 0.04268 0.3124 0.87679 0.0
H2362 H 0.00297 0.41052 0.90697 0.0
H2363 H 0.98566 0.40722 0.87697 0.0
H2364 H 0.01696 0.41955 0.87602 0.0
H2365 H 0.99686 0.31362 0.9247 0.0
H2366 H 0.00787 0.29407 0.89805 0.0
H2367 H 0.97887 0.31104 0.89512 0.0
C2368 C 0.88522 0.7939 0.14702 0.0
C2369 C 0.88208 0.79622 0.11962 0.0
C2370 C 0.88193 0.77084 0.1596 0.0
C2371 C 0.8754 0.74967 0.14437 0.0
C2372 C 0.87382 0.75153 0.11653 0.0
C2373 C 0.87725 0.77483 0.10445 0.0
C2374 C 0.88415 0.76941 0.18932 0.0
C2375 C 0.8671 0.72927 0.09963 0.0
C2376 C 0.88002 0.68555 0.17542 0.0
C2377 C 0.85519 0.68118 0.18291 0.0
C2378 C 0.88695 0.70777 0.16286 0.0
C2379 C 0.86853 0.72604 0.15774 0.0
C2380 C 0.84343 0.72188 0.16556 0.0
C2381 C 0.83707 0.69948 0.17826 0.0
C2382 C 0.91389 0.71156 0.15489 0.0
C2383 C 0.82327 0.74095 0.16022 0.0
H2384 H 0.88922 0.81031 0.15884 0.0
H2385 H 0.87498 0.77645 0.08323 0.0
H2386 H 0.86553 0.76555 0.19807 0.0
H2387 H 0.89668 0.75383 0.19507 0.0
H2388 H 0.89146 0.78701 0.19801 0.0
H2389 H 0.86903 0.73328 0.07817 0.0
H2390 H 0.87909 0.71305 0.10461 0.0
H2391 H 0.84748 0.72375 0.10363 0.0
H2392 H 0.8941 0.67158 0.17958 0.0
H2393 H 0.81786 0.69605 0.184 0.0
H2394 H 0.92108 0.72931 0.16325 0.0
H2395 H 0.91528 0.71299 0.13307 0.0
H2396 H 0.92611 0.69603 0.16158 0.0
H2397 H 0.82803 0.75889 0.16996 0.0
H2398 H 0.80466 0.73477 0.16742 0.0
H2399 H 0.822 0.74461 0.13867 0.0
C2400 C 0.56615 0.61148 0.40503 0.0
C2401 C 0.5637 0.60758 0.43227 0.0
C2402 C 0.54534 0.61712 0.3894 0.0
C2403 C 0.52162 0.61941 0.40151 0.0
C2404 C 0.51911 0.61589 0.42916 0.0
C2405 C 0.54021 0.6097 0.44421 0.0
C2406 C 0.54871 0.62025 0.35992 0.0
C2407 C 0.49408 0.61829 0.44272 0.0
C2408 C 0.46831 0.64999 0.36387 0.0
C2409 C 0.45485 0.62894 0.35572 0.0
C2410 C 0.49034 0.64728 0.3787 0.0
C2411 C 0.49906 0.62301 0.38499 0.0
C2412 C 0.48598 0.60178 0.37583 0.0
C2413 C 0.46394 0.60502 0.36151 0.0
C2414 C 0.50389 0.67029 0.38825 0.0
C2415 C 0.49511 0.57559 0.38139 0.0
H2416 H 0.58435 0.60952 0.39584 0.0
H2417 H 0.53842 0.60687 0.46535 0.0
H2418 H 0.53455 0.60928 0.34892 0.0
H2419 H 0.54611 0.64017 0.35459 0.0
H2420 H 0.56755 0.61428 0.3532 0.0
H2421 H 0.49565 0.61696 0.46457 0.0
H2422 H 0.48529 0.63642 0.43759 0.0
H2423 H 0.4814 0.60331 0.43573 0.0
H2424 H 0.46117 0.66847 0.35947 0.0
H2425 H 0.4537 0.58871 0.35488 0.0
H2426 H 0.52348 0.67009 0.38108 0.0
H2427 H 0.50454 0.67035 0.41017 0.0
H2428 H 0.4948 0.6878 0.38146 0.0
H2429 H 0.51456 0.57334 0.37418 0.0
H2430 H 0.48326 0.56113 0.37186 0.0
H2431 H 0.49525 0.57216 0.40301 0.0
C2432 C 0.37425 0.20011 0.14459 0.0
C2433 C 0.39177 0.19394 0.12517 0.0
C2434 C 0.37233 0.22452 0.15413 0.0
C2435 C 0.38909 0.24297 0.14473 0.0
C2436 C 0.40779 0.23649 0.12609 0.0
C2437 C 0.40853 0.21202 0.11597 0.0
C2438 C 0.35164 0.23073 0.17342 0.0
C2439 C 0.42663 0.25543 0.11656 0.0
C2440 C 0.36144 0.30747 0.15122 0.0
C2441 C 0.36852 0.31353 0.17703 0.0
C2442 C 0.36953 0.28518 0.13947 0.0
C2443 C 0.38575 0.26915 0.15367 0.0
C2444 C 0.39499 0.27659 0.17866 0.0
C2445 C 0.3858 0.2985 0.19035 0.0
C2446 C 0.35872 0.2777 0.11307 0.0
C2447 C 0.41318 0.26057 0.19386 0.0
H2448 H 0.36113 0.18605 0.15136 0.0
H2449 H 0.4221 0.20701 0.10095 0.0
H2450 H 0.35962 0.23796 0.19212 0.0
H2451 H 0.33953 0.24559 0.16509 0.0
H2452 H 0.33979 0.21428 0.1781 0.0
H2453 H 0.44185 0.24663 0.10485 0.0
H2454 H 0.41726 0.26957 0.10402 0.0
H2455 H 0.43498 0.26547 0.13359 0.0
H2456 H 0.34811 0.31923 0.14097 0.0
H2457 H 0.39161 0.30351 0.21019 0.0
H2458 H 0.34525 0.26219 0.11601 0.0
H2459 H 0.37355 0.27084 0.09961 0.0
H2460 H 0.34881 0.29342 0.10331 0.0
H2461 H 0.4031 0.2446 0.20287 0.0
H2462 H 0.42244 0.27122 0.20995 0.0
H2463 H 0.42772 0.25283 0.18051 0.0
C2464 C 0.54572 0.63667 0.89641 0.0
C2465 C 0.54778 0.63742 0.86881 0.0
C2466 C 0.52245 0.63342 0.90854 0.0
C2467 C 0.50087 0.63122 0.89263 0.0
C2468 C 0.50259 0.63402 0.86489 0.0
C2469 C 0.52613 0.63703 0.85326 0.0
C2470 C 0.5212 0.63069 0.93824 0.0
C2471 C 0.47983 0.63225 0.84738 0.0
C2472 C 0.44855 0.59164 0.9205 0.0
C2473 C 0.43194 0.61002 0.92924 0.0
C2474 C 0.47097 0.59835 0.90806 0.0
C2475 C 0.47687 0.62399 0.90485 0.0
C2476 C 0.46017 0.64257 0.91384 0.0
C2477 C 0.43786 0.63531 0.92594 0.0
C2478 C 0.48829 0.57807 0.89829 0.0
C2479 C 0.46593 0.67005 0.91092 0.0
H2480 H 0.56241 0.63708 0.90851 0.0
H2481 H 0.52767 0.63795 0.83191 0.0
H2482 H 0.50649 0.643 0.94655 0.0
H2483 H 0.51616 0.61118 0.94334 0.0
H2484 H 0.53927 0.63524 0.94789 0.0
H2485 H 0.48395 0.63783 0.82668 0.0
H2486 H 0.47287 0.61274 0.84731 0.0
H2487 H 0.46456 0.64424 0.85508 0.0
H2488 H 0.44383 0.5721 0.92298 0.0
H2489 H 0.42513 0.6495 0.9332 0.0
H2490 H 0.5066 0.57956 0.90841 0.0
H2491 H 0.49176 0.58039 0.8768 0.0
H2492 H 0.48063 0.55907 0.90175 0.0
H2493 H 0.48292 0.67475 0.92242 0.0
H2494 H 0.45033 0.68208 0.91787 0.0
H2495 H 0.4699 0.67458 0.88994 0.0
C2496 C 0.09319 0.78454 0.63318 0.0
C2497 C 0.10767 0.79348 0.61217 0.0
C2498 C 0.09914 0.76187 0.6455 0.0
C2499 C 0.12049 0.74842 0.63706 0.0
C2500 C 0.13462 0.75695 0.61526 0.0
C2501 C 0.12786 0.77927 0.60286 0.0
C2502 C 0.08289 0.75245 0.66777 0.0
C2503 C 0.15719 0.74276 0.60543 0.0
C2504 C 0.15014 0.70569 0.68774 0.0
C2505 C 0.14118 0.68234 0.67966 0.0
C2506 C 0.14395 0.72736 0.67364 0.0
C2507 C 0.12824 0.72553 0.65119 0.0
C2508 C 0.11994 0.70188 0.64243 0.0
C2509 C 0.12668 0.6806 0.65674 0.0
C2510 C 0.15389 0.75225 0.68293 0.0
C2511 C 0.10319 0.69864 0.61865 0.0
H2512 H 0.07746 0.79546 0.64021 0.0
H2513 H 0.13918 0.78618 0.58666 0.0
H2514 H 0.07651 0.73317 0.66335 0.0
H2515 H 0.09386 0.75168 0.68634 0.0
H2516 H 0.06626 0.76448 0.67106 0.0
H2517 H 0.16643 0.75218 0.58848 0.0
H2518 H 0.17098 0.74067 0.62165 0.0
H2519 H 0.15154 0.72371 0.59919 0.0
H2520 H 0.16156 0.7071 0.70536 0.0
H2521 H 0.12025 0.66253 0.65018 0.0
H2522 H 0.13816 0.76446 0.68903 0.0
H2523 H 0.16378 0.76181 0.6665 0.0
H2524 H 0.16694 0.75031 0.69986 0.0
H2525 H 0.08386 0.69497 0.62558 0.0
H2526 H 0.10925 0.68222 0.60685 0.0
H2527 H 0.1028 0.71511 0.60542 0.0
C2528 C 0.96493 0.3739 0.35181 0.0
C2529 C 0.94587 0.36106 0.36514 0.0
C2530 C 0.98772 0.37898 0.36423 0.0
C2531 C 0.9916 0.37081 0.39049 0.0
C2532 C 0.97294 0.35675 0.40359 0.0
C2533 C 0.95023 0.35206 0.39074 0.0
C2534 C 0.00733 0.39381 0.34956 0.0
C2535 C 0.97668 0.34735 0.43145 0.0
C2536 C 0.05832 0.36704 0.41426 0.0
C2537 C 0.06106 0.38966 0.42797 0.0
C2538 C 0.0358 0.3606 0.40214 0.0
C2539 C 0.01525 0.377 0.40417 0.0
C2540 C 0.01753 0.39958 0.41864 0.0
C2541 C 0.04052 0.40572 0.43034 0.0
C2542 C 0.03422 0.33644 0.38674 0.0
C2543 C 0.99578 0.41734 0.42146 0.0
H2544 H 0.96171 0.38091 0.33201 0.0
H2545 H 0.93563 0.34198 0.40106 0.0
H2546 H 0.01082 0.41169 0.36 0.0
H2547 H 0.02524 0.38338 0.34913 0.0
H2548 H 0.00171 0.39803 0.3289 0.0
H2549 H 0.96077 0.33577 0.4384 0.0
H2550 H 0.99402 0.33605 0.43266 0.0
H2551 H 0.97893 0.36341 0.4451 0.0
H2552 H 0.07386 0.35422 0.41298 0.0
H2553 H 0.04245 0.42309 0.44114 0.0
H2554 H 0.03119 0.34059 0.3655 0.0
H2555 H 0.01809 0.32517 0.39359 0.0
H2556 H 0.05144 0.325 0.38862 0.0
H2557 H 0.99002 0.42419 0.40169 0.0
H2558 H 0.00034 0.43367 0.4341 0.0
H2559 H 0.97951 0.40746 0.43015 0.0
C2560 C 0.40553 0.77698 0.37895 0.0
C2561 C 0.38682 0.78566 0.39602 0.0
C2562 C 0.40336 0.75361 0.36656 0.0
C2563 C 0.38153 0.73915 0.37065 0.0
C2564 C 0.36326 0.74728 0.38898 0.0
C2565 C 0.36633 0.77028 0.40175 0.0
C2566 C 0.4237 0.74509 0.34794 0.0
C2567 C 0.33946 0.73273 0.39346 0.0
C2568 C 0.35921 0.70067 0.31239 0.0
C2569 C 0.36504 0.67632 0.32045 0.0
C2570 C 0.36438 0.7212 0.32867 0.0
C2571 C 0.37622 0.71736 0.35337 0.0
C2572 C 0.38216 0.69283 0.36165 0.0
C2573 C 0.37593 0.67256 0.34533 0.0
C2574 C 0.35718 0.74705 0.3194 0.0
C2575 C 0.39537 0.68803 0.3875 0.0
H2576 H 0.42147 0.78879 0.37466 0.0
H2577 H 0.35172 0.77702 0.4148 0.0
H2578 H 0.42815 0.72509 0.35124 0.0
H2579 H 0.4172 0.74704 0.32723 0.0
H2580 H 0.44106 0.75624 0.35031 0.0
H2581 H 0.32831 0.74032 0.41017 0.0
H2582 H 0.32786 0.73344 0.37531 0.0
H2583 H 0.34364 0.71282 0.39748 0.0
H2584 H 0.3506 0.70373 0.29328 0.0
H2585 H 0.38006 0.65377 0.35187 0.0
H2586 H 0.37411 0.75882 0.31736 0.0
H2587 H 0.34488 0.75613 0.33425 0.0
H2588 H 0.3473 0.74673 0.3001 0.0
H2589 H 0.4127 0.69935 0.38861 0.0
H2590 H 0.40039 0.66804 0.39006 0.0
H2591 H 0.38328 0.69379 0.40424 0.0
C2592 C 0.06452 0.61563 0.09299 0.0
C2593 C 0.0627 0.60254 0.06909 0.0
C2594 C 0.04324 0.62222 0.10749 0.0
C2595 C 0.01942 0.61546 0.09782 0.0
C2596 C 0.0174 0.60168 0.07397 0.0
C2597 C 0.03913 0.59536 0.05983 0.0
C2598 C 0.04646 0.63702 0.13272 0.0
C2599 C 0.99228 0.5937 0.06338 0.0
C2600 C 0.96606 0.61196 0.14685 0.0
C2601 C 0.95227 0.63339 0.14046 0.0
C2602 C 0.98795 0.60595 0.13311 0.0
C2603 C 0.99667 0.62215 0.11305 0.0
C2604 C 0.98362 0.64457 0.10756 0.0
C2605 C 0.96126 0.64973 0.12105 0.0
C2606 C 0.00145 0.58195 0.13961 0.0
C2607 C 0.99306 0.66282 0.08714 0.0
H2608 H 0.08273 0.62073 0.10042 0.0
H2609 H 0.03764 0.5852 0.04136 0.0
H2610 H 0.04431 0.65719 0.12821 0.0
H2611 H 0.03232 0.63202 0.14784 0.0
H2612 H 0.06527 0.63416 0.14142 0.0
H2613 H 0.99391 0.58277 0.04479 0.0
H2614 H 0.98239 0.58218 0.07832 0.0
H2615 H 0.98052 0.61038 0.05955 0.0
H2616 H 0.95905 0.59914 0.16167 0.0
H2617 H 0.95061 0.66633 0.11617 0.0
H2618 H 0.02085 0.5861 0.14593 0.0
H2619 H 0.00262 0.56999 0.12172 0.0
H2620 H 0.99202 0.57123 0.15555 0.0
H2621 H 0.0125 0.66841 0.0919 0.0
H2622 H 0.9813 0.67989 0.08601 0.0
H2623 H 0.99341 0.6538 0.0674 0.0
C2624 C 0.12215 0.28941 0.79696 0.0
C2625 C 0.13085 0.31083 0.80973 0.0
C2626 C 0.11616 0.268 0.81148 0.0
C2627 C 0.11991 0.26794 0.83919 0.0
C2628 C 0.12837 0.28975 0.85218 0.0
C2629 C 0.13345 0.31115 0.83722 0.0
C2630 C 0.1066 0.24521 0.7971 0.0
C2631 C 0.13318 0.29015 0.88158 0.0
C2632 C 0.09358 0.21331 0.87794 0.0
C2633 C 0.11391 0.19697 0.87711 0.0
C2634 C 0.09528 0.23696 0.86609 0.0
C2635 C 0.11799 0.24416 0.85383 0.0
C2636 C 0.13882 0.22789 0.85408 0.0
C2637 C 0.13638 0.2043 0.86545 0.0
C2638 C 0.07266 0.25381 0.86581 0.0
C2639 C 0.16353 0.23513 0.84179 0.0
H2640 H 0.11984 0.28949 0.77567 0.0
H2641 H 0.14019 0.32792 0.84691 0.0
H2642 H 0.12101 0.23032 0.79747 0.0
H2643 H 0.08972 0.23776 0.8071 0.0
H2644 H 0.10191 0.24929 0.77615 0.0
H2645 H 0.13767 0.3092 0.8889 0.0
H2646 H 0.1167 0.28306 0.89253 0.0
H2647 H 0.14909 0.27762 0.88625 0.0
H2648 H 0.07628 0.20734 0.88714 0.0
H2649 H 0.15207 0.19146 0.86522 0.0
H2650 H 0.06604 0.25615 0.84518 0.0
H2651 H 0.07754 0.27265 0.87332 0.0
H2652 H 0.05708 0.24621 0.87791 0.0
H2653 H 0.16135 0.23707 0.82008 0.0
H2654 H 0.17838 0.22111 0.84568 0.0
H2655 H 0.16978 0.25347 0.84956 0.0
C2656 C 0.53462 0.34132 0.6243 0.0
C2657 C 0.54275 0.35702 0.64468 0.0
C2658 C 0.51245 0.34651 0.6106 0.0
C2659 C 0.49868 0.36826 0.61704 0.0
C2660 C 0.50631 0.38359 0.63832 0.0
C2661 C 0.5281 0.37756 0.65214 0.0
C2662 C 0.50429 0.32929 0.58861 0.0
C2663 C 0.49216 0.40702 0.64565 0.0
C2664 C 0.45891 0.39802 0.56357 0.0
C2665 C 0.43501 0.38997 0.57088 0.0
C2666 C 0.47991 0.39094 0.5784 0.0
C2667 C 0.47675 0.37559 0.60099 0.0
C2668 C 0.45261 0.36783 0.60865 0.0
C2669 C 0.43208 0.37517 0.59349 0.0
C2670 C 0.50546 0.39979 0.56988 0.0
C2671 C 0.44844 0.35149 0.63262 0.0
H2672 H 0.54595 0.3254 0.61862 0.0
H2673 H 0.53445 0.3899 0.66774 0.0
H2674 H 0.4845 0.32374 0.59146 0.0
H2675 H 0.50552 0.3392 0.5694 0.0
H2676 H 0.51595 0.31215 0.58752 0.0
H2677 H 0.50011 0.4164 0.66334 0.0
H2678 H 0.49261 0.42035 0.62887 0.0
H2679 H 0.47228 0.40256 0.64963 0.0
H2680 H 0.46123 0.40947 0.54607 0.0
H2681 H 0.41359 0.36942 0.5994 0.0
H2682 H 0.51765 0.38349 0.56567 0.0
H2683 H 0.51434 0.41053 0.58611 0.0
H2684 H 0.5047 0.41175 0.55197 0.0
H2685 H 0.45631 0.33265 0.62884 0.0
H2686 H 0.42833 0.34943 0.63753 0.0
H2687 H 0.4582 0.35925 0.65011 0.0
C2688 C 0.11756 0.05336 0.24669 0.0
C2689 C 0.13323 0.06115 0.26718 0.0
C2690 C 0.11933 0.02904 0.2366 0.0
C2691 C 0.13656 0.01212 0.24805 0.0
C2692 C 0.153 0.02026 0.26813 0.0
C2693 C 0.15134 0.04486 0.27723 0.0
C2694 C 0.10208 0.02116 0.21454 0.0
C2695 C 0.17123 0.00261 0.28117 0.0
C2696 C 0.11852 0.94387 0.2462 0.0
C2697 C 0.13445 0.93478 0.22653 0.0
C2698 C 0.11938 0.96901 0.25375 0.0
C2699 C 0.13603 0.98541 0.24063 0.0
C2700 C 0.15221 0.97625 0.22073 0.0
C2701 C 0.15146 0.95085 0.21415 0.0
C2702 C 0.10229 0.97805 0.27554 0.0
C2703 C 0.1697 0.99339 0.2059 0.0
H2704 H 0.10367 0.06615 0.23894 0.0
H2705 H 0.16327 0.05091 0.29332 0.0
H2706 H 0.11266 0.01123 0.19885 0.0
H2707 H 0.08787 0.008 0.22232 0.0
H2708 H 0.09226 0.03733 0.20553 0.0
H2709 H 0.1838 0.01235 0.29528 0.0
H2710 H 0.16079 0.98798 0.29209 0.0
H2711 H 0.18284 0.99303 0.26609 0.0
H2712 H 0.10532 0.9313 0.25556 0.0
H2713 H 0.16341 0.94378 0.19853 0.0
H2714 H 0.08906 0.99212 0.2676 0.0
H2715 H 0.11335 0.98731 0.29128 0.0
H2716 H 0.09135 0.96261 0.28455 0.0
H2717 H 0.15879 0.00809 0.19563 0.0
H2718 H 0.18112 0.98323 0.19102 0.0
H2719 H 0.18244 0.00297 0.21989 0.0
C2720 C 0.199 0.88461 0.54424 0.0
C2721 C 0.17908 0.88702 0.52653 0.0
C2722 C 0.22376 0.88517 0.5353 0.0
C2723 C 0.22858 0.88789 0.50793 0.0
C2724 C 0.20843 0.89123 0.49008 0.0
C2725 C 0.18379 0.89078 0.49966 0.0
C2726 C 0.24467 0.88172 0.555 0.0
C2727 C 0.21282 0.89401 0.46075 0.0
C2728 C 0.2943 0.90288 0.48426 0.0
C2729 C 0.30331 0.87907 0.47764 0.0
C2730 C 0.27016 0.90606 0.49462 0.0
C2731 C 0.25448 0.885 0.49781 0.0
C2732 C 0.26354 0.86091 0.49138 0.0
C2733 C 0.28789 0.85822 0.4816 0.0
C2734 C 0.26133 0.93197 0.50181 0.0
C2735 C 0.24737 0.83796 0.49444 0.0
H2736 H 0.19513 0.88163 0.56506 0.0
H2737 H 0.16823 0.89235 0.48606 0.0
H2738 H 0.25385 0.8634 0.55164 0.0
H2739 H 0.2591 0.89636 0.5523 0.0
H2740 H 0.23789 0.88236 0.57576 0.0
H2741 H 0.19531 0.89817 0.44982 0.0
H2742 H 0.22646 0.90917 0.45691 0.0
H2743 H 0.22093 0.87649 0.45275 0.0
H2744 H 0.30595 0.91911 0.48094 0.0
H2745 H 0.29465 0.83974 0.47655 0.0
H2746 H 0.25443 0.93228 0.5225 0.0
H2747 H 0.24548 0.93737 0.48892 0.0
H2748 H 0.27635 0.94615 0.49973 0.0
H2749 H 0.24134 0.83595 0.51532 0.0
H2750 H 0.2572 0.82059 0.48839 0.0
H2751 H 0.23024 0.83992 0.48229 0.0
C2752 C 0.3361 0.94726 0.76924 0.0
C2753 C 0.35945 0.9354 0.76803 0.0
C2754 C 0.33297 0.97168 0.75977 0.0
C2755 C 0.35375 0.98452 0.74912 0.0
C2756 C 0.37714 0.97234 0.74701 0.0
C2757 C 0.37968 0.9479 0.75644 0.0
C2758 C 0.30771 0.98404 0.76209 0.0
C2759 C 0.39972 0.98542 0.73562 0.0
C2760 C 0.34698 0.04215 0.70648 0.0
C2761 C 0.35419 0.06085 0.72421 0.0
C2762 C 0.34572 0.01718 0.71458 0.0
C2763 C 0.35152 0.01105 0.7411 0.0
C2764 C 0.35748 0.03022 0.75939 0.0
C2765 C 0.35907 0.05498 0.75058 0.0
C2766 C 0.33966 -0.00275 0.69444 0.0
C2767 C 0.36343 0.02446 0.78792 0.0
H2768 H 0.32042 0.93779 0.77838 0.0
H2769 H 0.39774 0.93877 0.75535 0.0
H2770 H 0.30878 -0.00026 0.77636 0.0
H2771 H 0.30201 0.992 0.74277 0.0
H2772 H 0.29303 0.97084 0.76885 0.0
H2773 H 0.41623 0.9729 0.73423 0.0
H2774 H 0.39545 0.9927 0.71561 0.0
H2775 H 0.4047 0.00164 0.74821 0.0
H2776 H 0.3436 0.04694 0.68596 0.0
H2777 H 0.36477 0.06966 0.76407 0.0
H2778 H 0.32485 0.98466 0.70204 0.0
H2779 H 0.35647 0.98564 0.69073 0.0
H2780 H 0.33341 0.00531 0.67532 0.0
H2781 H 0.34877 0.01233 0.7966 0.0
H2782 H 0.36505 0.04165 0.80011 0.0
H2783 H 0.38136 0.01411 0.78903 0.0
C2784 C 0.20503 0.12711 0.9591 0.0
C2785 C 0.18553 0.12191 0.97677 0.0
C2786 C 0.22992 0.12718 0.9675 0.0
C2787 C 0.2354 0.12199 0.99428 0.0
C2788 C 0.21574 0.11665 0.01224 0.0
C2789 C 0.19093 0.11665 0.0032 0.0
C2790 C 0.25032 0.1328 0.94771 0.0
C2791 C 0.2209 0.11116 0.04098 0.0
C2792 C 0.30078 0.10085 0.01252 0.0
C2793 C 0.31125 0.12298 0.02241 0.0
C2794 C 0.27622 0.10034 0.00291 0.0
C2795 C 0.26171 0.12242 0.00349 0.0
C2796 C 0.27232 0.14495 0.01284 0.0
C2797 C 0.29701 0.14498 0.02206 0.0
C2798 C 0.26563 0.07603 0.99274 0.0
C2799 C 0.25743 0.16891 0.01363 0.0
H2800 H 0.20083 0.1309 0.93858 0.0
H2801 H 0.17574 0.11303 0.01685 0.0
H2802 H 0.26112 0.14939 0.95415 0.0
H2803 H 0.26357 0.11689 0.94662 0.0
H2804 H 0.24285 0.13639 0.92759 0.0
H2805 H 0.20354 0.10718 0.05229 0.0
H2806 H 0.23358 0.09486 0.04269 0.0
H2807 H 0.23049 0.12732 0.05023 0.0
H2808 H 0.31147 0.08369 0.01305 0.0
H2809 H 0.30497 0.16218 0.02959 0.0
H2810 H 0.25817 0.07856 0.97246 0.0
H2811 H 0.24984 0.07007 0.00547 0.0
H2812 H 0.2798 0.06086 0.99234 0.0
H2813 H 0.25049 0.17354 0.99356 0.0
H2814 H 0.26856 0.18492 0.02111 0.0
H2815 H 0.24084 0.1665 0.02655 0.0
C2816 C 0.8435 0.05297 0.7609 0.0
C2817 C 0.86634 0.06205 0.77032 0.0
C2818 C 0.8421 0.0298 0.74811 0.0
C2819 C 0.86395 0.01512 0.74557 0.0
C2820 C 0.88725 0.02466 0.75403 0.0
C2821 C 0.88818 0.04815 0.76615 0.0
C2822 C 0.81706 0.02046 0.73863 0.0
C2823 C 0.91094 0.00944 0.75188 0.0
C2824 C 0.85625 0.94487 0.74727 0.0
C2825 C 0.86029 0.93871 0.72083 0.0
C2826 C 0.85722 0.96982 0.75555 0.0
C2827 C 0.86207 0.98884 0.73672 0.0
C2828 C 0.86575 0.98262 0.70982 0.0
C2829 C 0.865 0.95749 0.70221 0.0
C2830 C 0.85361 0.97574 0.7845 0.0
C2831 C 0.87071 0.00241 0.6892 0.0
H2832 H 0.8265 0.06333 0.76475 0.0
H2833 H 0.90588 0.05516 0.77344 0.0
H2834 H 0.81841 0.01427 0.71774 0.0
H2835 H 0.81128 0.00404 0.75053 0.0
H2836 H 0.8023 0.03497 0.74019 0.0
H2837 H 0.9278 0.0205 0.75704 0.0
H2838 H 0.90979 0.99321 0.76545 0.0
H2839 H 0.91323 0.00199 0.73156 0.0
H2840 H 0.8531 0.93012 0.76155 0.0
H2841 H 0.86812 0.95244 0.6817 0.0
H2842 H 0.83769 0.98879 0.78706 0.0
H2843 H 0.8705 0.98518 0.79235 0.0
H2844 H 0.85001 0.95875 0.79651 0.0
H2845 H 0.85536 0.01633 0.6892 0.0
H2846 H 0.87248 0.99441 0.669 0.0
H2847 H 0.88818 0.01258 0.69397 0.0
C2848 C 0.69537 0.12788 0.49856 0.0
C2849 C 0.68421 0.1125 0.51747 0.0
C2850 C 0.72088 0.12576 0.49284 0.0
C2851 C 0.73561 0.10828 0.50698 0.0
C2852 C 0.72444 0.09293 0.52644 0.0
C2853 C 0.69872 0.09501 0.53122 0.0
C2854 C 0.73208 0.14226 0.47171 0.0
C2855 C 0.73972 0.07475 0.54251 0.0
C2856 C 0.79485 0.09034 0.47114 0.0
C2857 C 0.81154 0.10819 0.48097 0.0
C2858 C 0.77027 0.08918 0.48055 0.0
C2859 C 0.76255 0.10586 0.50068 0.0
C2860 C 0.78007 0.12235 0.51233 0.0
C2861 C 0.80433 0.12366 0.50193 0.0
C2862 C 0.75207 0.07155 0.46743 0.0
C2863 C 0.7728 0.13973 0.53455 0.0
H2864 H 0.68406 0.14154 0.48821 0.0
H2865 H 0.6901 0.08356 0.54637 0.0
H2866 H 0.74674 0.15434 0.48044 0.0
H2867 H 0.74114 0.13061 0.45628 0.0
H2868 H 0.7179 0.15438 0.46212 0.0
H2869 H 0.7282 0.06446 0.55718 0.0
H2870 H 0.74896 0.06103 0.52929 0.0
H2871 H 0.7547 0.08489 0.5532 0.0
H2872 H 0.80047 0.07849 0.45479 0.0
H2873 H 0.81743 0.1373 0.50959 0.0
H2874 H 0.73835 0.08248 0.45576 0.0
H2875 H 0.74146 0.06085 0.48247 0.0
H2876 H 0.76156 0.05816 0.45396 0.0
H2877 H 0.76169 0.15547 0.52648 0.0
H2878 H 0.78944 0.14755 0.54472 0.0
H2879 H 0.76101 0.12995 0.54933 0.0
C2880 C 0.60792 0.04189 0.22096 0.0
C2881 C 0.62993 0.05582 0.21814 0.0
C2882 C 0.60846 0.01751 0.23085 0.0
C2883 C 0.63155 0.00691 0.23847 0.0
C2884 C 0.65379 0.02106 0.23643 0.0
C2885 C 0.65274 0.04535 0.22607 0.0
C2886 C 0.58432 0.00301 0.23288 0.0
C2887 C 0.67867 0.01046 0.24485 0.0
C2888 C 0.62517 0.95294 0.2859 0.0
C2889 C 0.62695 0.93242 0.26882 0.0
C2890 C 0.6278 0.97731 0.27644 0.0
C2891 C 0.63206 0.98117 0.24916 0.0
C2892 C 0.63464 0.96043 0.23191 0.0
C2893 C 0.63214 0.93614 0.24205 0.0
C2894 C 0.62518 -0.0011 0.29551 0.0
C2895 C 0.63912 0.96391 0.20268 0.0
H2896 H 0.5902 0.04988 0.21499 0.0
H2897 H 0.66986 0.0559 0.22369 0.0
H2898 H 0.58568 0.98556 0.22112 0.0
H2899 H 0.58087 -0.00246 0.25372 0.0
H2900 H 0.56799 0.01389 0.22574 0.0
H2901 H 0.694 0.02437 0.24324 0.0
H2902 H 0.67765 0.00383 0.2656 0.0
H2903 H 0.68341 0.99408 0.23237 0.0
H2904 H 0.62158 0.9499 0.30672 0.0
H2905 H 0.63357 0.92014 0.22899 0.0
H2906 H 0.60808 0.0097 0.29078 0.0
H2907 H 0.64129 0.0118 0.29354 0.0
H2908 H 0.62396 0.9926 0.31639 0.0
H2909 H 0.62275 0.97331 0.19364 0.0
H2910 H 0.64225 0.94587 0.19231 0.0
H2911 H 0.65556 0.97612 0.19939 0.0
C2912 C 0.70651 0.85831 0.98247 0.0
C2913 C 0.69677 0.87356 0.96258 0.0
C2914 C 0.73216 0.85786 0.98748 0.0
C2915 C 0.74835 0.87261 0.97175 0.0
C2916 C 0.73879 0.88648 0.95025 0.0
C2917 C 0.71294 0.88701 0.94607 0.0
C2918 C 0.7416 0.84314 0.01093 0.0
C2919 C 0.75571 0.90165 0.93257 0.0
C2920 C 0.8017 0.8959 0.01284 0.0
C2921 C 0.81934 0.87706 0.00866 0.0
C2922 C 0.77904 0.89575 -0.00075 0.0
C2923 C 0.77428 0.87649 0.98075 0.0
C2924 C 0.79307 0.8588 0.97462 0.0
C2925 C 0.81538 0.85903 0.98909 0.0
C2926 C 0.75931 0.9147 0.00674 0.0
C2927 C 0.78885 0.83865 0.95425 0.0
H2928 H 0.69394 0.84781 0.99509 0.0
H2929 H 0.70533 0.89829 0.9302 0.0
H2930 H 0.75745 0.83101 0.00504 0.0
H2931 H 0.74855 0.85619 0.02631 0.0
H2932 H 0.72683 0.83125 0.01985 0.0
H2933 H 0.74537 0.91052 0.91604 0.0
H2934 H 0.76504 0.91653 0.9442 0.0
H2935 H 0.77062 0.88956 0.92426 0.0
H2936 H 0.80479 0.90966 0.02824 0.0
H2937 H 0.82924 0.84456 0.98593 0.0
H2938 H 0.7439 0.90518 0.01744 0.0
H2939 H 0.7512 0.92344 0.98885 0.0
H2940 H 0.76683 0.92969 0.01966 0.0
H2941 H 0.77454 0.82532 0.9615 0.0
H2942 H 0.80622 0.82808 0.94983 0.0
H2943 H 0.78165 0.84693 0.93566 0.0
C2944 C 0.60684 0.55077 0.75463 0.0
C2945 C 0.62794 0.56319 0.76438 0.0
C2946 C 0.60895 0.52704 0.74315 0.0
C2947 C 0.63272 0.51557 0.74144 0.0
C2948 C 0.6543 0.52887 0.74928 0.0
C2949 C 0.65164 0.55253 0.76078 0.0
C2950 C 0.58552 0.51358 0.7346 0.0
C2951 C 0.68002 0.51743 0.74736 0.0
C2952 C 0.63186 0.44518 0.74832 0.0
C2953 C 0.63445 0.43769 0.72206 0.0
C2954 C 0.63208 0.47058 0.75494 0.0
C2955 C 0.63456 0.4887 0.73465 0.0
C2956 C 0.63764 0.48104 0.70805 0.0
C2957 C 0.63759 0.45548 0.70207 0.0
C2958 C 0.62893 0.47804 0.78356 0.0
C2959 C 0.64011 0.49977 0.68589 0.0
H2960 H 0.58851 0.55908 0.75709 0.0
H2961 H 0.66805 0.56203 0.76826 0.0
H2962 H 0.58807 0.50515 0.71474 0.0
H2963 H 0.58152 0.49815 0.74862 0.0
H2964 H 0.56905 0.52619 0.73405 0.0
H2965 H 0.69499 0.53154 0.75018 0.0
H2966 H 0.68206 0.50286 0.7628 0.0
H2967 H 0.68273 0.50825 0.7279 0.0
H2968 H 0.62921 0.43118 0.76355 0.0
H2969 H 0.63923 0.44936 0.68169 0.0
H2970 H 0.61129 0.48868 0.78604 0.0
H2971 H 0.64447 0.49045 0.78971 0.0
H2972 H 0.62845 0.46163 0.79699 0.0
H2973 H 0.62242 0.5104 0.68385 0.0
H2974 H 0.64437 0.49069 0.66665 0.0
H2975 H 0.65505 0.51346 0.69041 0.0
C2976 C 0.80277 0.3691 0.0016 0.0
C2977 C 0.80948 0.37725 0.97635 0.0
C2978 C 0.77781 0.37044 0.0101 0.0
C2979 C 0.75927 0.37975 0.99266 0.0
C2980 C 0.76623 0.38848 0.96728 0.0
C2981 C 0.79134 0.38721 0.95947 0.0
C2982 C 0.77118 0.36126 0.03743 0.0
C2983 C 0.74705 0.39829 0.94802 0.0
C2984 C 0.69346 0.35584 0.00437 0.0
C2985 C 0.68245 0.37588 0.01788 0.0
C2986 C 0.71824 0.35715 0.99544 0.0
C2987 C 0.73246 0.37894 0.00041 0.0
C2988 C 0.72124 0.39954 0.01335 0.0
C2989 C 0.69629 0.39782 0.02181 0.0
C2990 C 0.72938 0.33495 0.98124 0.0
C2991 C 0.73582 0.42306 0.01906 0.0
H2992 H 0.81698 0.36139 0.0145 0.0
H2993 H 0.79675 0.39331 0.93983 0.0
H2994 H 0.76047 0.37576 0.04827 0.0
H2995 H 0.75906 0.34452 0.0359 0.0
H2996 H 0.78799 0.3563 0.04919 0.0
H2997 H 0.75572 0.40555 0.9296 0.0
H2998 H 0.73384 0.38315 0.94269 0.0
H2999 H 0.73595 0.41346 0.95728 0.0
H3000 H 0.68277 0.33892 0.00113 0.0
H3001 H 0.68794 0.41335 0.03237 0.0
H3002 H 0.74493 0.32709 0.9931 0.0
H3003 H 0.73729 0.34083 0.96194 0.0
H3004 H 0.71544 0.31996 0.9777 0.0
H3005 H 0.75142 0.41876 0.03274 0.0
H3006 H 0.72402 0.43785 0.02811 0.0
H3007 H 0.74419 0.43048 0.00059 0.0
C3008 C 0.86576 0.54814 0.24444 0.0
C3009 C 0.85717 0.55486 0.21941 0.0
C3010 C 0.86363 0.52343 0.25327 0.0
C3011 C 0.85339 0.50508 0.23619 0.0
C3012 C 0.84447 0.51197 0.21091 0.0
C3013 C 0.84621 0.53697 0.20292 0.0
C3014 C 0.87293 0.51686 0.28057 0.0
C3015 C 0.83402 0.49283 0.19197 0.0
C3016 C 0.87608 0.44005 0.25235 0.0
C3017 C 0.85633 0.43102 0.26777 0.0
C3018 C 0.87472 0.46364 0.24049 0.0
C3019 C 0.85321 0.47856 0.24453 0.0
C3020 C 0.83259 0.46887 0.25873 0.0
C3021 C 0.8344 0.44511 0.27019 0.0
C3022 C 0.89691 0.47315 0.22503 0.0
C3023 C 0.80935 0.48424 0.2634 0.0
H3024 H 0.87428 0.56218 0.25698 0.0
H3025 H 0.83997 0.54237 0.18335 0.0
H3026 H 0.85814 0.50695 0.29182 0.0
H3027 H 0.88914 0.50403 0.27899 0.0
H3028 H 0.87872 0.53361 0.29198 0.0
H3029 H 0.82701 0.50145 0.17343 0.0
H3030 H 0.84873 0.47906 0.18679 0.0
H3031 H 0.81854 0.48236 0.20143 0.0
H3032 H 0.893 0.42905 0.25042 0.0
H3033 H 0.81919 0.4382 0.28233 0.0
H3034 H 0.90628 0.4882 0.23637 0.0
H3035 H 0.89079 0.48128 0.20593 0.0
H3036 H 0.91078 0.45819 0.22099 0.0
H3037 H 0.81374 0.49983 0.27709 0.0
H3038 H 0.79398 0.47299 0.27212 0.0
H3039 H 0.8027 0.49262 0.24464 0.0
C3040 C 0.70611 0.63123 0.45476 0.0
C3041 C 0.68669 0.62358 0.4715 0.0
C3042 C 0.73075 0.63236 0.46386 0.0
C3043 C 0.73592 0.62611 0.49045 0.0
C3044 C 0.71626 0.61878 0.50758 0.0
C3045 C 0.6918 0.61738 0.49775 0.0
C3046 C 0.75127 0.63984 0.44492 0.0
C3047 C 0.72104 0.61247 0.53622 0.0
C3048 C 0.80096 0.60585 0.51041 0.0
C3049 C 0.81073 0.62794 0.52106 0.0
C3050 C 0.77693 0.6052 0.49952 0.0
C3051 C 0.76197 0.62697 0.50025 0.0
C3052 C 0.77174 0.64943 0.5107 0.0
C3053 C 0.79616 0.64973 0.52065 0.0
C3054 C 0.76735 0.58106 0.4879 0.0
C3055 C 0.75614 0.67291 0.51222 0.0
H3056 H 0.70209 0.63582 0.43432 0.0
H3057 H 0.67662 0.61188 0.51066 0.0
H3058 H 0.76116 0.65658 0.45246 0.0
H3059 H 0.76525 0.62461 0.44337 0.0
H3060 H 0.74405 0.64403 0.42482 0.0
H3061 H 0.70355 0.60807 0.54711 0.0
H3062 H 0.73374 0.59616 0.53756 0.0
H3063 H 0.73045 0.62835 0.54619 0.0
H3064 H 0.81173 0.58878 0.51145 0.0
H3065 H 0.8035 0.66688 0.52899 0.0
H3066 H 0.76007 0.58429 0.46766 0.0
H3067 H 0.75163 0.57392 0.50004 0.0
H3068 H 0.78205 0.56643 0.48693 0.0
H3069 H 0.74933 0.67812 0.49228 0.0
H3070 H 0.76668 0.68893 0.52059 0.0
H3071 H 0.73945 0.66951 0.52476 0.0
C3072 C 0.36065 0.54579 0.25285 0.0
C3073 C 0.37928 0.55341 0.27045 0.0
C3074 C 0.36179 0.52226 0.24067 0.0
C3075 C 0.38221 0.50621 0.24609 0.0
C3076 C 0.4017 0.5144 0.26285 0.0
C3077 C 0.39984 0.53782 0.27508 0.0
C3078 C 0.34051 0.5141 0.22311 0.0
C3079 C 0.42404 0.49807 0.26864 0.0
C3080 C 0.36986 0.43667 0.24122 0.0
C3081 C 0.37904 0.43113 0.21599 0.0
C3082 C 0.3711 0.46098 0.25139 0.0
C3083 C 0.38214 0.48014 0.23603 0.0
C3084 C 0.39255 0.47442 0.21101 0.0
C3085 C 0.39089 0.44993 0.20126 0.0
C3086 C 0.35993 0.46627 0.27825 0.0
C3087 C 0.40471 0.49431 0.19421 0.0
H3088 H 0.34455 0.55765 0.24972 0.0
H3089 H 0.41435 0.54384 0.2886 0.0
H3090 H 0.34774 0.50706 0.20396 0.0
H3091 H 0.33027 0.49852 0.23269 0.0
H3092 H 0.32711 0.52952 0.21918 0.0
H3093 H 0.43875 0.50821 0.27978 0.0
H3094 H 0.41809 0.48167 0.28047 0.0
H3095 H 0.43224 0.49088 0.24998 0.0
H3096 H 0.36141 0.42198 0.25288 0.0
H3097 H 0.39802 0.44575 0.18169 0.0
H3098 H 0.34467 0.48019 0.27636 0.0
H3099 H 0.37427 0.47444 0.29149 0.0
H3100 H 0.35227 0.4492 0.28775 0.0
H3101 H 0.39056 0.50836 0.18827 0.0
H3102 H 0.41341 0.48647 0.17606 0.0
H3103 H 0.41926 0.50427 0.20573 0.0
C3104 C 0.29794 0.62745 0.99719 0.0
C3105 C 0.30618 0.62009 0.97221 0.0
C3106 C 0.27253 0.62633 0.00367 0.0
C3107 C 0.25508 0.61839 0.98432 0.0
C3108 C 0.26337 0.61165 0.95873 0.0
C3109 C 0.289 0.61218 0.95311 0.0
C3110 C 0.2644 0.63337 0.0313 0.0
C3111 C 0.24528 0.6039 0.93736 0.0
C3112 C 0.19542 0.59406 0.0145 0.0
C3113 C 0.18086 0.61578 0.01516 0.0
C3114 C 0.21913 0.59415 0.00279 0.0
C3115 C 0.22831 0.6165 0.99146 0.0
C3116 C 0.21282 0.63788 0.99012 0.0
C3117 C 0.18928 0.63732 0.00224 0.0
C3118 C 0.2351 0.57095 0.00454 0.0
C3119 C 0.22176 0.66186 0.9776 0.0
H3120 H 0.31145 0.63363 0.01176 0.0
H3121 H 0.29559 0.60685 0.93363 0.0
H3122 H 0.25095 0.64911 0.03051 0.0
H3123 H 0.2547 0.61737 0.04074 0.0
H3124 H 0.28038 0.63892 0.044 0.0
H3125 H 0.25463 0.60134 0.91791 0.0
H3126 H 0.2361 0.58609 0.94293 0.0
H3127 H 0.23034 0.61811 0.93516 0.0
H3128 H 0.18901 0.57742 0.02467 0.0
H3129 H 0.1779 0.65408 0.00264 0.0
H3130 H 0.25047 0.57415 0.01885 0.0
H3131 H 0.24376 0.5667 0.98513 0.0
H3132 H 0.22422 0.55441 0.01111 0.0
H3133 H 0.23562 0.67092 0.99076 0.0
H3134 H 0.20618 0.67519 0.97422 0.0
H3135 H 0.23116 0.65807 0.95845 0.0
C3136 C 0.13059 0.43713 0.7443 0.0
C3137 C 0.11755 0.43253 0.7678 0.0
C3138 C 0.13097 0.46111 0.73315 0.0
C3139 C 0.11791 0.48075 0.74585 0.0
C3140 C 0.10358 0.47586 0.76876 0.0
C3141 C 0.10349 0.45178 0.77939 0.0
C3142 C 0.14602 0.46561 0.70835 0.0
C3143 C 0.0893 0.49632 0.7828 0.0
C3144 C 0.14071 0.54725 0.73794 0.0
C3145 C 0.12282 0.55718 0.72073 0.0
C3146 C 0.13948 0.52227 0.74605 0.0
C3147 C 0.1202 0.50674 0.7362 0.0
C3148 C 0.10238 0.51646 0.71838 0.0
C3149 C 0.10374 0.54164 0.71107 0.0
C3150 C 0.15855 0.5126 0.7655 0.0
C3151 C 0.08173 0.50036 0.70726 0.0
H3152 H 0.14075 0.42206 0.73487 0.0
H3153 H 0.09318 0.44835 0.79749 0.0
H3154 H 0.13438 0.47506 0.69323 0.0
H3155 H 0.16193 0.47818 0.71285 0.0
H3156 H 0.15352 0.448 0.69983 0.0
H3157 H 0.07789 0.48906 0.79947 0.0
H3158 H 0.10258 0.51037 0.79067 0.0
H3159 H 0.07675 0.50611 0.76879 0.0
H3160 H 0.15557 0.55906 0.74525 0.0
H3161 H 0.08992 0.54904 0.69753 0.0
H3162 H 0.16852 0.4963 0.757 0.0
H3163 H 0.14902 0.50615 0.78375 0.0
H3164 H 0.17252 0.52703 0.771 0.0
H3165 H 0.08973 0.48342 0.69785 0.0
H3166 H 0.07026 0.51043 0.6924 0.0
H3167 H 0.06929 0.49399 0.72346 0.0
C3168 C 0.19693 0.36845 0.49215 0.0
C3169 C 0.18829 0.38674 0.47463 0.0
C3170 C 0.2217 0.36855 0.50096 0.0
C3171 C 0.23822 0.38721 0.49165 0.0
C3172 C 0.22941 0.40616 0.47454 0.0
C3173 C 0.2044 0.40581 0.46637 0.0
C3174 C 0.23032 0.34835 0.5197 0.0
C3175 C 0.2466 0.42623 0.46415 0.0
C3176 C 0.29744 0.39816 0.53057 0.0
C3177 C 0.31459 0.38336 0.51667 0.0
C3178 C 0.27251 0.39972 0.52253 0.0
C3179 C 0.26481 0.38666 0.49965 0.0
C3180 C 0.2823 0.3723 0.48503 0.0
C3181 C 0.30702 0.3705 0.49402 0.0
C3182 C 0.25426 0.41455 0.53908 0.0
C3183 C 0.27476 0.35843 0.4603 0.0
H3184 H 0.18437 0.35377 0.49862 0.0
H3185 H 0.19775 0.41985 0.45264 0.0
H3186 H 0.24463 0.33656 0.50988 0.0
H3187 H 0.23917 0.35679 0.5374 0.0
H3188 H 0.21473 0.33615 0.52628 0.0
H3189 H 0.23665 0.43998 0.45152 0.0
H3190 H 0.25549 0.43634 0.4808 0.0
H3191 H 0.26181 0.41758 0.45236 0.0
H3192 H 0.30332 0.4077 0.54843 0.0
H3193 H 0.32041 0.35899 0.48347 0.0
H3194 H 0.23965 0.40194 0.54707 0.0
H3195 H 0.2447 0.42873 0.52672 0.0
H3196 H 0.26347 0.42416 0.55591 0.0
H3197 H 0.26114 0.34357 0.46537 0.0
H3198 H 0.291 0.34968 0.45019 0.0
H3199 H 0.26541 0.37132 0.44628 0.0
C3200 C 0.11815 0.13287 0.07112 0.0
C3201 C 0.09672 0.12025 0.06244 0.0
C3202 C 0.12109 0.1394 0.09778 0.0
C3203 C 0.10213 0.13321 0.11617 0.0
C3204 C 0.07966 0.12218 0.10719 0.0
C3205 C 0.07723 0.11581 0.08039 0.0
C3206 C 0.14529 0.15129 0.10652 0.0
C3207 C 0.05891 0.1155 0.12614 0.0
C3208 C 0.1262 0.1169 0.18426 0.0
C3209 C 0.12204 0.1391 0.19833 0.0
C3210 C 0.11908 0.11458 0.15777 0.0
C3211 C 0.10739 0.13495 0.14495 0.0
C3212 C 0.10218 0.15709 0.15927 0.0
C3213 C 0.10961 0.15893 0.18587 0.0
C3214 C 0.12489 0.09057 0.14328 0.0
C3215 C 0.08951 0.17907 0.14628 0.0
H3216 H 0.1332 0.13663 0.05733 0.0
H3217 H 0.06048 0.1063 0.0738 0.0
H3218 H 0.14157 0.16752 0.11958 0.0
H3219 H 0.15632 0.13757 0.11809 0.0
H3220 H 0.15681 0.15761 0.08951 0.0
H3221 H 0.04131 0.11077 0.11564 0.0
H3222 H 0.06461 0.09912 0.13812 0.0
H3223 H 0.05519 0.13112 0.14001 0.0
H3224 H 0.13553 0.10135 0.19379 0.0
H3225 H 0.10623 0.1761 0.19665 0.0
H3226 H 0.13835 0.09431 0.12705 0.0
H3227 H 0.10768 0.08289 0.13418 0.0
H3228 H 0.13302 0.07612 0.15647 0.0
H3229 H 0.10211 0.18723 0.13115 0.0
H3230 H 0.08455 0.19389 0.16075 0.0
H3231 H 0.07229 0.17295 0.13597 0.0
C3232 C 0.096 0.85466 0.43063 0.0
C3233 C 0.1078 0.87459 0.4436 0.0
C3234 C 0.10142 0.84917 0.40402 0.0
C3235 C 0.11891 0.86405 0.39009 0.0
C3236 C 0.13069 0.88429 0.40306 0.0
C3237 C 0.12509 0.88922 0.42961 0.0
C3238 C 0.08857 0.82738 0.39085 0.0
C3239 C 0.14935 0.90074 0.38893 0.0
C3240 C 0.15474 0.84026 0.33045 0.0
C3241 C 0.14295 0.85299 0.30968 0.0
C3242 C 0.14636 0.84278 0.35661 0.0
C3243 C 0.1256 0.85832 0.36216 0.0
C3244 C 0.11286 0.87026 0.34114 0.0
C3245 C 0.12173 0.86751 0.31515 0.0
C3246 C 0.1605 0.82978 0.37845 0.0
C3247 C 0.09059 0.8869 0.34622 0.0
H3248 H 0.08263 0.84327 0.44128 0.0
H3249 H 0.13426 0.90474 0.43937 0.0
H3250 H 0.0785 0.83381 0.37294 0.0
H3251 H 0.10266 0.81349 0.3843 0.0
H3252 H 0.07504 0.81797 0.40421 0.0
H3253 H 0.15645 0.91605 0.40171 0.0
H3254 H 0.16548 0.88939 0.38214 0.0
H3255 H 0.14065 0.90914 0.37113 0.0
H3256 H 0.1711 0.82894 0.32643 0.0
H3257 H 0.11242 0.87729 0.2992 0.0
H3258 H 0.14743 0.8193 0.39137 0.0
H3259 H 0.17002 0.84388 0.39096 0.0
H3260 H 0.17478 0.81662 0.37068 0.0
H3261 H 0.07681 0.87727 0.35904 0.0
H3262 H 0.08117 0.89261 0.32762 0.0
H3263 H 0.09672 0.90398 0.35681 0.0
C3264 C 0.35896 0.87874 0.68085 0.0
C3265 C 0.36993 0.85927 0.69535 0.0
C3266 C 0.36443 0.88223 0.65406 0.0
C3267 C 0.38141 0.86593 0.64131 0.0
C3268 C 0.39296 0.8465 0.65584 0.0
C3269 C 0.38704 0.84336 0.68276 0.0
C3270 C 0.35171 0.90326 0.63932 0.0
C3271 C 0.41128 0.82889 0.64288 0.0
C3272 C 0.37245 0.86553 0.56706 0.0
C3273 C 0.3899 0.88353 0.55904 0.0
C3274 C 0.37063 0.85828 0.59365 0.0
C3275 C 0.38656 0.86938 0.61265 0.0
C3276 C 0.40524 0.88639 0.60439 0.0
C3277 C 0.40671 0.89322 0.57767 0.0
C3278 C 0.35056 0.83996 0.60165 0.0
C3279 C 0.42257 0.89867 0.62401 0.0
H3280 H 0.34577 0.89122 0.69035 0.0
H3281 H 0.39563 0.82831 0.69382 0.0
H3282 H 0.3659 0.91594 0.63064 0.0
H3283 H 0.34051 0.89558 0.62277 0.0
H3284 H 0.33916 0.91441 0.65226 0.0
H3285 H 0.41923 0.81523 0.6571 0.0
H3286 H 0.4019 0.81848 0.62674 0.0
H3287 H 0.42682 0.8396 0.63382 0.0
H3288 H 0.35954 0.85779 0.55275 0.0
H3289 H 0.42038 0.90702 0.57163 0.0
H3290 H 0.3357 0.84993 0.61275 0.0
H3291 H 0.35833 0.82544 0.61493 0.0
H3292 H 0.34192 0.83067 0.58428 0.0
H3293 H 0.4119 0.91228 0.63613 0.0
H3294 H 0.43813 0.90874 0.61412 0.0
H3295 H 0.43056 0.88461 0.63771 0.0
C3296 C 0.35736 0.11528 0.81362 0.0
C3297 C 0.36975 0.13317 0.79815 0.0
C3298 C 0.36339 0.11187 0.8403 0.0
C3299 C 0.3823 0.1267 0.85192 0.0
C3300 C 0.39519 0.14455 0.83639 0.0
C3301 C 0.38877 0.14756 0.80962 0.0
C3302 C 0.34931 0.09249 0.85612 0.0
C3303 C 0.41553 0.1606 0.84812 0.0
C3304 C 0.37733 0.13024 0.92661 0.0
C3305 C 0.39385 0.1113 0.93436 0.0
C3306 C 0.37445 0.13651 0.89984 0.0
C3307 C 0.38827 0.12337 0.8804 0.0
C3308 C 0.40589 0.10512 0.88823 0.0
C3309 C 0.40854 0.09938 0.91513 0.0
C3310 C 0.35564 0.15627 0.89228 0.0
C3311 C 0.42091 0.09061 0.86813 0.0
H3312 H 0.34276 0.10392 0.80492 0.0
H3313 H 0.39845 0.16139 0.79779 0.0
H3314 H 0.36255 0.07876 0.86466 0.0
H3315 H 0.33941 0.10157 0.87284 0.0
H3316 H 0.33538 0.08224 0.84398 0.0
H3317 H 0.42411 0.17325 0.83327 0.0
H3318 H 0.40779 0.17207 0.86446 0.0
H3319 H 0.43038 0.14864 0.85668 0.0
H3320 H 0.36606 0.13967 0.94138 0.0
H3321 H 0.42142 0.08476 0.92093 0.0
H3322 H 0.33958 0.14736 0.88214 0.0
H3323 H 0.36405 0.16978 0.87824 0.0
H3324 H 0.34851 0.16665 0.90975 0.0
H3325 H 0.40832 0.07805 0.85688 0.0
H3326 H 0.43571 0.07907 0.8775 0.0
H3327 H 0.42977 0.10345 0.8537 0.0
C3328 C 0.8671 0.88145 0.81747 0.0
C3329 C 0.86744 0.85769 0.80578 0.0
C3330 C 0.87442 0.88492 0.84378 0.0
C3331 C 0.88267 0.86417 0.85875 0.0
C3332 C 0.88429 0.84033 0.84673 0.0
C3333 C 0.87649 0.83733 0.82038 0.0
C3334 C 0.87216 0.91063 0.8559 0.0
C3335 C 0.89334 0.81786 0.86196 0.0
C3336 C 0.91467 0.8823 0.92287 0.0
C3337 C 0.89461 0.88154 0.94071 0.0
C3338 C 0.91149 0.87527 0.89632 0.0
C3339 C 0.88767 0.8674 0.88747 0.0
C3340 C 0.86774 0.86527 0.90574 0.0
C3341 C 0.87147 0.87228 0.93213 0.0
C3342 C 0.93325 0.87754 0.87747 0.0
C3343 C 0.84205 0.85691 0.89713 0.0
H3344 H 0.86018 0.89733 0.80638 0.0
H3345 H 0.87695 0.81893 0.81144 0.0
H3346 H 0.85791 0.91034 0.87185 0.0
H3347 H 0.89014 0.91625 0.865 0.0
H3348 H 0.8667 0.92502 0.84119 0.0
H3349 H 0.89635 0.8014 0.84895 0.0
H3350 H 0.91106 0.8222 0.87233 0.0
H3351 H 0.87936 0.81281 0.87726 0.0
H3352 H 0.93266 0.88923 0.92938 0.0
H3353 H 0.85591 0.87135 0.94583 0.0
H3354 H 0.92999 0.89344 0.86384 0.0
H3355 H 0.93499 0.86045 0.8652 0.0
H3356 H 0.95117 0.88073 0.88799 0.0
H3357 H 0.83411 0.87069 0.88308 0.0
H3358 H 0.82897 0.85494 0.91406 0.0
H3359 H 0.84323 0.83875 0.88666 0.0
C3360 C 0.8747 0.15982 0.6694 0.0
C3361 C 0.875 0.13955 0.68697 0.0
C3362 C 0.8809 0.15665 0.64265 0.0
C3363 C 0.88746 0.13262 0.63328 0.0
C3364 C 0.8894 0.11245 0.65127 0.0
C3365 C 0.8832 0.11618 0.67793 0.0
C3366 C 0.87886 0.17867 0.62414 0.0
C3367 C 0.89645 0.08655 0.64207 0.0
C3368 C 0.86997 0.11422 0.56345 0.0
C3369 C 0.8932 0.11451 0.55059 0.0
C3370 C 0.86782 0.12074 0.59016 0.0
C3371 C 0.88943 0.12784 0.60442 0.0
C3372 C 0.91279 0.12918 0.59134 0.0
C3373 C 0.91441 0.12245 0.56453 0.0
C3374 C 0.8425 0.11923 0.60333 0.0
C3375 C 0.93615 0.13697 0.60584 0.0
H3376 H 0.86862 0.17802 0.67627 0.0
H3377 H 0.88364 0.10045 0.6914 0.0
H3378 H 0.89543 0.1797 0.61099 0.0
H3379 H 0.8622 0.17636 0.61136 0.0
H3380 H 0.87706 0.19663 0.635 0.0
H3381 H 0.89954 0.07353 0.65885 0.0
H3382 H 0.8813 0.07889 0.62948 0.0
H3383 H 0.91365 0.08719 0.62985 0.0
H3384 H 0.85342 0.10834 0.55279 0.0
H3385 H 0.9324 0.12285 0.55469 0.0
H3386 H 0.83786 0.13728 0.61293 0.0
H3387 H 0.84285 0.10477 0.61903 0.0
H3388 H 0.82738 0.11452 0.58914 0.0
H3389 H 0.93299 0.15482 0.61647 0.0
H3390 H 0.95235 0.13925 0.59231 0.0
H3391 H 0.94094 0.12269 0.62088 0.0
C3392 C 0.58831 0.1415 0.4231 0.0
C3393 C 0.60515 0.12617 0.43682 0.0
C3394 C 0.59203 0.14712 0.39619 0.0
C3395 C 0.61294 0.13698 0.38274 0.0
C3396 C 0.63026 0.12199 0.39669 0.0
C3397 C 0.62622 0.11689 0.4235 0.0
C3398 C 0.57338 0.16347 0.38204 0.0
C3399 C 0.65285 0.11082 0.38314 0.0
C3400 C 0.61506 0.12527 0.30884 0.0
C3401 C 0.63173 0.14386 0.30045 0.0
C3402 C 0.60743 0.12379 0.33537 0.0
C3403 C 0.61672 0.14129 0.35394 0.0
C3404 C 0.63224 0.16104 0.34523 0.0
C3405 C 0.63954 0.16209 0.3186 0.0
C3406 C 0.59072 0.10253 0.34383 0.0
C3407 C 0.64247 0.18014 0.36433 0.0
H3408 H 0.57206 0.14885 0.43325 0.0
H3409 H 0.63942 0.1051 0.43389 0.0
H3410 H 0.58309 0.17921 0.37215 0.0
H3411 H 0.56385 0.15252 0.36641 0.0
H3412 H 0.55902 0.17117 0.39567 0.0
H3413 H 0.66478 0.09998 0.39695 0.0
H3414 H 0.64677 0.09824 0.36694 0.0
H3415 H 0.66436 0.12579 0.37412 0.0
H3416 H 0.60878 0.11121 0.29493 0.0
H3417 H 0.65225 0.17667 0.31228 0.0
H3418 H 0.57516 0.10955 0.35629 0.0
H3419 H 0.60161 0.08914 0.35595 0.0
H3420 H 0.58276 0.09233 0.32667 0.0
H3421 H 0.62747 0.18727 0.37747 0.0
H3422 H 0.65126 0.19619 0.35398 0.0
H3423 H 0.65678 0.17124 0.37709 0.0
C3424 C 0.6283 0.88402 0.05465 0.0
C3425 C 0.60542 0.88037 0.04173 0.0
C3426 C 0.6311 0.87851 0.08159 0.0
C3427 C 0.61073 0.86837 0.09589 0.0
C3428 C 0.58771 0.86409 0.08282 0.0
C3429 C 0.58521 0.87054 0.05595 0.0
C3430 C 0.6558 0.88394 0.09482 0.0
C3431 C 0.56577 0.85275 0.09721 0.0
C3432 C 0.63009 0.83498 0.15891 0.0
C3433 C 0.62622 0.85353 0.17811 0.0
C3434 C 0.62395 0.8391 0.13227 0.0
C3435 C 0.61382 0.8624 0.12453 0.0
C3436 C 0.60885 0.88081 0.14399 0.0
C3437 C 0.61502 0.87613 0.17054 0.0
C3438 C 0.62937 0.81888 0.11224 0.0
C3439 C 0.59819 0.90596 0.13659 0.0
H3440 H 0.64389 0.89197 0.04386 0.0
H3441 H 0.56751 0.86768 0.046 0.0
H3442 H 0.65295 0.89697 0.11162 0.0
H3443 H 0.66383 0.86647 0.10299 0.0
H3444 H 0.6696 0.89233 0.08102 0.0
H3445 H 0.54944 0.84987 0.08403 0.0
H3446 H 0.5712 0.83448 0.10583 0.0
H3447 H 0.56006 0.86502 0.11383 0.0
H3448 H 0.63858 0.8174 0.16456 0.0
H3449 H 0.61193 0.89058 0.1852 0.0
H3450 H 0.64492 0.82488 0.09918 0.0
H3451 H 0.61282 0.81566 0.0995 0.0
H3452 H 0.63468 0.80095 0.12173 0.0
H3453 H 0.61193 0.91632 0.12434 0.0
H3454 H 0.59357 0.91746 0.15422 0.0
H3455 H 0.58107 0.90361 0.12453 0.0
C3456 C 0.61321 0.6262 0.68518 0.0
C3457 C 0.62274 0.64877 0.69501 0.0
C3458 C 0.60671 0.6237 0.65849 0.0
C3459 C 0.60948 0.64437 0.6413 0.0
C3460 C 0.61712 0.66775 0.65155 0.0
C3461 C 0.62381 0.66965 0.67831 0.0
C3462 C 0.5987 0.59839 0.64834 0.0
C3463 C 0.61982 0.69033 0.63393 0.0
C3464 C 0.62677 0.62695 0.57112 0.0
C3465 C 0.6035 0.62754 0.55841 0.0
C3466 C 0.62901 0.63312 0.59791 0.0
C3467 C 0.60754 0.64053 0.61228 0.0
C3468 C 0.58422 0.64248 0.59926 0.0
C3469 C 0.58243 0.63576 0.57247 0.0
C3470 C 0.65421 0.63054 0.61111 0.0
C3471 C 0.56102 0.65071 0.61385 0.0
H3472 H 0.61213 0.61 0.69797 0.0
H3473 H 0.63088 0.68723 0.68584 0.0
H3474 H 0.58161 0.60007 0.63612 0.0
H3475 H 0.61363 0.59055 0.63554 0.0
H3476 H 0.59502 0.58498 0.66464 0.0
H3477 H 0.62209 0.70781 0.64551 0.0
H3478 H 0.63646 0.68799 0.62107 0.0
H3479 H 0.60332 0.69228 0.62085 0.0
H3480 H 0.64316 0.62061 0.56044 0.0
H3481 H 0.56443 0.6364 0.56273 0.0
H3482 H 0.65331 0.61583 0.62653 0.0
H3483 H 0.65938 0.64825 0.62109 0.0
H3484 H 0.66924 0.62557 0.59688 0.0
H3485 H 0.55542 0.63607 0.62818 0.0
H3486 H 0.54513 0.65418 0.60024 0.0
H3487 H 0.56476 0.66799 0.62529 0.0
C3488 C 0.60641 0.34636 0.81526 0.0
C3489 C 0.62488 0.36109 0.80324 0.0
C3490 C 0.59995 0.34989 0.84199 0.0
C3491 C 0.6124 0.36844 0.857 0.0
C3492 C 0.63108 0.38329 0.84495 0.0
C3493 C 0.63698 0.37951 0.81826 0.0
C3494 C 0.57985 0.33381 0.85416 0.0
C3495 C 0.64495 0.40317 0.86026 0.0
C3496 C 0.58486 0.39778 0.91876 0.0
C3497 C 0.59914 0.38653 0.93872 0.0
C3498 C 0.58806 0.39112 0.89213 0.0
C3499 C 0.60595 0.37274 0.88528 0.0
C3500 C 0.61948 0.36038 0.90545 0.0
C3501 C 0.61592 0.36743 0.93193 0.0
C3502 C 0.57324 0.40473 0.87123 0.0
C3503 C 0.63873 0.34068 0.89898 0.0
H3504 H 0.59698 0.3321 0.80381 0.0
H3505 H 0.65134 0.39096 0.80924 0.0
H3506 H 0.5875 0.32346 0.87133 0.0
H3507 H 0.56445 0.34575 0.86166 0.0
H3508 H 0.57202 0.32015 0.83987 0.0
H3509 H 0.65926 0.41281 0.84804 0.0
H3510 H 0.6316 0.41733 0.86782 0.0
H3511 H 0.65435 0.39472 0.87762 0.0
H3512 H 0.57177 0.41248 0.9238 0.0
H3513 H 0.62696 0.35855 0.94722 0.0
H3514 H 0.56469 0.39126 0.85726 0.0
H3515 H 0.58591 0.41694 0.85963 0.0
H3516 H 0.55823 0.41651 0.8799 0.0
H3517 H 0.63081 0.32657 0.88528 0.0
H3518 H 0.64567 0.33099 0.91694 0.0
H3519 H 0.65486 0.34948 0.88883 0.0
C3520 C 0.87496 0.36539 0.06997 0.0
C3521 C 0.89443 0.38112 0.06182 0.0
C3522 C 0.87202 0.35898 0.09667 0.0
C3523 C 0.88894 0.36855 0.11564 0.0
C3524 C 0.9095 0.38319 0.10731 0.0
C3525 C 0.91201 0.38928 0.08047 0.0
C3526 C 0.84991 0.34321 0.10476 0.0
C3527 C 0.92797 0.3937 0.12691 0.0
C3528 C 0.86161 0.38056 0.1835 0.0
C3529 C 0.8699 0.3597 0.19782 0.0
C3530 C 0.8681 0.38381 0.15691 0.0
C3531 C 0.88336 0.36581 0.14427 0.0
C3532 C 0.89247 0.34511 0.15875 0.0
C3533 C 0.8856 0.34227 0.18542 0.0
C3534 C 0.85809 0.40625 0.1422 0.0
C3535 C 0.90897 0.32569 0.14593 0.0
H3536 H 0.86141 0.35885 0.05565 0.0
H3537 H 0.92722 0.4013 0.07432 0.0
H3538 H 0.85594 0.32786 0.11801 0.0
H3539 H 0.8364 0.35488 0.11594 0.0
H3540 H 0.84013 0.33501 0.08745 0.0
H3541 H 0.9446 0.40188 0.11702 0.0
H3542 H 0.9188 0.40853 0.13879 0.0
H3543 H 0.93427 0.379 0.14083 0.0
H3544 H 0.84963 0.39425 0.19294 0.0
H3545 H 0.89215 0.32617 0.19638 0.0
H3546 H 0.84592 0.39999 0.12574 0.0
H3547 H 0.8737 0.41703 0.13338 0.0
H3548 H 0.84712 0.41892 0.15518 0.0
H3549 H 0.89847 0.31598 0.13007 0.0
H3550 H 0.91571 0.31154 0.1603 0.0
H3551 H 0.92536 0.33474 0.13652 0.0
C3552 C 0.85314 0.61145 0.3134 0.0
C3553 C 0.86781 0.62636 0.29666 0.0
C3554 C 0.8586 0.60929 0.34038 0.0
C3555 C 0.87933 0.62226 0.35099 0.0
C3556 C 0.89433 0.63726 0.33424 0.0
C3557 C 0.88837 0.63915 0.30723 0.0
C3558 C 0.84212 0.59306 0.35753 0.0
C3559 C 0.91663 0.65127 0.34486 0.0
C3560 C 0.87655 0.62993 0.42556 0.0
C3561 C 0.89076 0.60945 0.43403 0.0
C3562 C 0.87382 0.63524 0.39852 0.0
C3563 C 0.88536 0.61952 0.37955 0.0
C3564 C 0.90066 0.59952 0.38805 0.0
C3565 C 0.90328 0.59483 0.41517 0.0
C3566 C 0.85758 0.65691 0.39023 0.0
C3567 C 0.91312 0.58219 0.36849 0.0
H3568 H 0.8372 0.60148 0.30547 0.0
H3569 H 0.89979 0.6507 0.29445 0.0
H3570 H 0.85337 0.57791 0.36657 0.0
H3571 H 0.83411 0.6043 0.37391 0.0
H3572 H 0.82653 0.58448 0.34625 0.0
H3573 H 0.9262 0.6624 0.32934 0.0
H3574 H 0.91069 0.66402 0.36098 0.0
H3575 H 0.93024 0.63794 0.35346 0.0
H3576 H 0.86696 0.64141 0.44003 0.0
H3577 H 0.91434 0.57896 0.4215 0.0
H3578 H 0.84022 0.64973 0.38098 0.0
H3579 H 0.86731 0.66849 0.37524 0.0
H3580 H 0.85233 0.66898 0.40723 0.0
H3581 H 0.89869 0.57111 0.35801 0.0
H3582 H 0.92629 0.56905 0.37822 0.0
H3583 H 0.92348 0.59304 0.35337 0.0
C3584 C 0.38353 0.36444 0.31799 0.0
C3585 C 0.36122 0.3526 0.31078 0.0
C3586 C 0.39039 0.36661 0.34467 0.0
C3587 C 0.37424 0.35722 0.36452 0.0
C3588 C 0.35211 0.3445 0.35726 0.0
C3589 C 0.346 0.34215 0.33045 0.0
C3590 C 0.41432 0.37995 0.35166 0.0
C3591 C 0.33413 0.33468 0.37781 0.0
C3592 C 0.39501 0.35261 0.4363 0.0
C3593 C 0.38533 0.37488 0.44671 0.0
C3594 C 0.39201 0.3467 0.40939 0.0
C3595 C 0.3788 0.36336 0.39274 0.0
C3596 C 0.3691 0.38588 0.40317 0.0
C3597 C 0.37258 0.39139 0.42993 0.0
C3598 C 0.40277 0.32262 0.39882 0.0
C3599 C 0.35466 0.40404 0.38616 0.0
H3600 H 0.39545 0.37233 0.3028 0.0
H3601 H 0.32867 0.33304 0.32499 0.0
H3602 H 0.40988 0.39827 0.36081 0.0
H3603 H 0.4251 0.36901 0.36637 0.0
H3604 H 0.42628 0.38326 0.33405 0.0
H3605 H 0.31887 0.3234 0.36892 0.0
H3606 H 0.34413 0.32302 0.3925 0.0
H3607 H 0.32561 0.35057 0.38867 0.0
H3608 H 0.40493 0.3398 0.44914 0.0
H3609 H 0.36491 0.40862 0.43778 0.0
H3610 H 0.41524 0.32652 0.38179 0.0
H3611 H 0.3875 0.31044 0.39153 0.0
H3612 H 0.41351 0.31225 0.41405 0.0
H3613 H 0.36629 0.41017 0.3692 0.0
H3614 H 0.34857 0.42085 0.39732 0.0
H3615 H 0.33786 0.39473 0.37793 0.0
C3616 C 0.3534 0.663 0.16084 0.0
C3617 C 0.36801 0.65065 0.17976 0.0
C3618 C 0.3588 0.66089 0.13379 0.0
C3619 C 0.37945 0.64631 0.12555 0.0
C3620 C 0.39543 0.6355 0.14466 0.0
C3621 C 0.38944 0.63769 0.17157 0.0
C3622 C 0.34124 0.67263 0.11403 0.0
C3623 C 0.41781 0.62007 0.13667 0.0
C3624 C 0.37117 0.61109 0.06136 0.0
C3625 C 0.38478 0.62574 0.04345 0.0
C3626 C 0.36952 0.61758 0.08807 0.0
C3627 C 0.38198 0.63919 0.09729 0.0
C3628 C 0.39616 0.6539 0.0795 0.0
C3629 C 0.39735 0.64702 0.05268 0.0
C3630 C 0.35412 0.60138 0.10634 0.0
C3631 C 0.4098 0.67696 0.08875 0.0
H3632 H 0.33687 0.67317 0.167 0.0
H3633 H 0.401 0.62836 0.18612 0.0
H3634 H 0.35185 0.68252 0.09837 0.0
H3635 H 0.3301 0.65779 0.10427 0.0
H3636 H 0.32814 0.68604 0.1235 0.0
H3637 H 0.43046 0.6164 0.15363 0.0
H3638 H 0.4114 0.60187 0.12868 0.0
H3639 H 0.42857 0.62956 0.12084 0.0
H3640 H 0.36138 0.59462 0.05446 0.0
H3641 H 0.40802 0.65834 0.03896 0.0
H3642 H 0.33874 0.61253 0.11514 0.0
H3643 H 0.36586 0.59445 0.12283 0.0
H3644 H 0.34586 0.58503 0.09602 0.0
H3645 H 0.39621 0.69085 0.0964 0.0
H3646 H 0.42088 0.68577 0.07269 0.0
H3647 H 0.42253 0.67219 0.10529 0.0
C3648 C 0.13707 0.66582 0.82773 0.0
C3649 C 0.12769 0.64882 0.8091 0.0
C3650 C 0.13096 0.66374 0.85462 0.0
C3651 C 0.11502 0.64423 0.86305 0.0
C3652 C 0.104 0.62819 0.84409 0.0
C3653 C 0.11048 0.63066 0.81732 0.0
C3654 C 0.14304 0.6813 0.87416 0.0
C3655 C 0.0868 0.60722 0.85226 0.0
C3656 C 0.12751 0.61548 0.93012 0.0
C3657 C 0.10778 0.62493 0.94546 0.0
C3658 C 0.13015 0.6219 0.90345 0.0
C3659 C 0.11271 0.63837 0.8917 0.0
C3660 C 0.09311 0.64856 0.90716 0.0
C3661 C 0.09083 0.64166 0.9339 0.0
C3662 C 0.15141 0.61064 0.88772 0.0
C3663 C 0.07439 0.66641 0.89533 0.0
H3664 H 0.15023 0.68006 0.82156 0.0
H3665 H 0.10298 0.61757 0.80304 0.0
H3666 H 0.12918 0.68809 0.88881 0.0
H3667 H 0.15781 0.67118 0.8852 0.0
H3668 H 0.15173 0.69765 0.86426 0.0
H3669 H 0.0773 0.59854 0.83504 0.0
H3670 H 0.09774 0.59259 0.86259 0.0
H3671 H 0.0724 0.6141 0.86628 0.0
H3672 H 0.14082 0.60264 0.93883 0.0
H3673 H 0.07559 0.64912 0.94562 0.0
H3674 H 0.16314 0.62564 0.87908 0.0
H3675 H 0.14387 0.59945 0.87107 0.0
H3676 H 0.16352 0.59838 0.89994 0.0
H3677 H 0.08417 0.68247 0.88612 0.0
H3678 H 0.06098 0.67362 0.91028 0.0
H3679 H 0.06374 0.65688 0.87947 0.0
C3680 C 0.12986 0.33084 0.66129 0.0
C3681 C 0.12177 0.34868 0.67975 0.0
C3682 C 0.12466 0.3336 0.63428 0.0
C3683 C 0.1109 0.3546 0.62559 0.0
C3684 C 0.10095 0.37155 0.64437 0.0
C3685 C 0.10657 0.36843 0.67125 0.0
C3686 C 0.13555 0.31506 0.61494 0.0
C3687 C 0.0859 0.39401 0.63591 0.0
C3688 C 0.12787 0.38279 0.55936 0.0
C3689 C 0.10793 0.37513 0.54333 0.0
C3690 C 0.12916 0.37586 0.586 0.0
C3691 C 0.11003 0.36084 0.59698 0.0
C3692 C 0.09014 0.35247 0.58082 0.0
C3693 C 0.08932 0.35973 0.55412 0.0
C3694 C 0.15083 0.38501 0.60251 0.0
C3695 C 0.06953 0.33631 0.59185 0.0
H3696 H 0.14141 0.31537 0.6677 0.0
H3697 H 0.09999 0.38213 0.68543 0.0
H3698 H 0.12154 0.3097 0.59984 0.0
H3699 H 0.15152 0.32377 0.60441 0.0
H3700 H 0.14235 0.29789 0.62494 0.0
H3701 H 0.07664 0.40334 0.65293 0.0
H3702 H 0.09841 0.40773 0.62615 0.0
H3703 H 0.07143 0.38856 0.62133 0.0
H3704 H 0.14244 0.39454 0.55118 0.0
H3705 H 0.07389 0.35368 0.54185 0.0
H3706 H 0.16074 0.36895 0.61154 0.0
H3707 H 0.14382 0.39691 0.61889 0.0
H3708 H 0.16449 0.39602 0.59076 0.0
H3709 H 0.07752 0.31948 0.60143 0.0
H3710 H 0.05613 0.33026 0.57636 0.0
H3711 H 0.05912 0.34676 0.60728 0.0
loop_
_geom_bond_atom_site_label_1
_geom_bond_atom_site_label_2
_geom_bond_distance
_geom_bond_site_symmetry_2
_ccdc_geom_bond_type
Zn0 O6 1.969 . S
Zn0 O7 1.965 . S
Zn0 O11 2.024 . S
Zn0 O16 1.969 . S
Zn1 O8 1.969 . S
Zn1 O14 1.969 . S
Zn1 O15 1.965 . S
Zn1 O17 2.024 . S
C2 O3 1.229 . S
C2 O11 1.058 . S
O3 C2 1.229 . S
C4 O5 1.229 . S
C4 O17 1.058 . S
O5 C4 1.229 . S
O6 Zn0 1.969 . S
O6 C9 1.267 . S
O7 Zn0 1.965 . S
O7 C18 1.260 . S
O8 Zn1 1.969 . S
O8 C18 1.258 . S
C9 O6 1.267 . S
C9 O10 1.228 . S
O10 C9 1.228 . S
O11 Zn0 2.024 . S
O11 C2 1.058 . S
C12 O13 1.228 . S
C12 O14 1.267 . S
O13 C12 1.228 . S
O14 Zn1 1.969 . S
O14 C12 1.267 . S
O15 Zn1 1.965 . S
O15 C19 1.260 . S
O16 Zn0 1.969 . S
O16 C19 1.258 . S
O17 Zn1 2.024 . S
O17 C4 1.058 . S
C18 O7 1.260 . S
C18 O8 1.258 . S
C19 O15 1.260 . S
C19 O16 1.258 . S
Zn20 O26 1.969 . S
Zn20 O27 1.965 . S
Zn20 O31 2.024 . S
Zn20 O36 1.969 . S
Zn21 O28 1.969 . S
Zn21 O34 1.969 . S
Zn21 O35 1.965 . S
Zn21 O37 2.024 . S
C22 O23 1.229 . S
C22 O31 1.058 . S
O23 C22 1.229 . S
C24 O25 1.229 . S
C24 O37 1.058 . S
O25 C24 1.229 . S
O26 Zn20 1.969 . S
O26 C29 1.267 . S
O27 Zn20 1.965 . S
O27 C38 1.260 . S
O28 Zn21 1.969 . S
O28 C38 1.258 . S
C29 O26 1.267 . S
C29 O30 1.228 . S
O30 C29 1.228 . S
O31 Zn20 2.024 . S
O31 C22 1.058 . S
C32 O33 1.228 . S
C32 O34 1.267 . S
O33 C32 1.228 . S
O34 Zn21 1.969 . S
O34 C32 1.267 . S
O35 Zn21 1.965 . S
O35 C39 1.260 . S
O36 Zn20 1.969 . S
O36 C39 1.258 . S
O37 Zn21 2.024 . S
O37 C24 1.058 . S
C38 O27 1.260 . S
C38 O28 1.258 . S
C39 O35 1.260 . S
C39 O36 1.258 . S
Zn40 O46 1.969 . S
Zn40 O47 1.965 . S
Zn40 O51 2.024 . S
Zn40 O56 1.969 . S
Zn41 O48 1.969 . S
Zn41 O54 1.969 . S
Zn41 O55 1.965 . S
Zn41 O57 2.024 . S
C42 O43 1.229 . S
C42 O51 1.058 . S
O43 C42 1.229 . S
C44 O45 1.229 . S
C44 O57 1.058 . S
O45 C44 1.229 . S
O46 Zn40 1.969 . S
O46 C49 1.267 . S
O47 Zn40 1.965 . S
O47 C58 1.260 . S
O48 Zn41 1.969 . S
O48 C58 1.258 . S
C49 O46 1.267 . S
C49 O50 1.228 . S
O50 C49 1.228 . S
O51 Zn40 2.024 . S
O51 C42 1.058 . S
C52 O53 1.228 . S
C52 O54 1.267 . S
O53 C52 1.228 . S
O54 Zn41 1.969 . S
O54 C52 1.267 . S
O55 Zn41 1.965 . S
O55 C59 1.260 . S
O56 Zn40 1.969 . S
O56 C59 1.258 . S
O57 Zn41 2.024 . S
O57 C44 1.058 . S
C58 O47 1.260 . S
C58 O48 1.258 . S
C59 O55 1.260 . S
C59 O56 1.258 . S
Zn60 O66 1.969 . S
Zn60 O67 1.965 . S
Zn60 O71 2.024 . S
Zn60 O76 1.969 . S
Zn61 O68 1.969 . S
Zn61 O74 1.969 . S
Zn61 O75 1.965 . S
Zn61 O77 2.024 1_554 S
C62 O63 1.229 . S
C62 O71 1.058 . S
O63 C62 1.229 . S
C64 O65 1.229 . S
C64 O77 1.058 . S
O65 C64 1.229 . S
O66 Zn60 1.969 . S
O66 C69 1.267 . S
O67 Zn60 1.965 . S
O67 C78 1.260 . S
O68 Zn61 1.969 . S
O68 C78 1.258 . S
C69 O66 1.267 . S
C69 O70 1.228 . S
O70 C69 1.228 . S
O71 Zn60 2.024 . S
O71 C62 1.058 . S
C72 O73 1.228 . S
C72 O74 1.267 1_556 S
O73 C72 1.228 . S
O74 Zn61 1.969 . S
O74 C72 1.267 1_554 S
O75 Zn61 1.965 . S
O75 C79 1.260 . S
O76 Zn60 1.969 . S
O76 C79 1.258 . S
O77 Zn61 2.024 1_556 S
O77 C64 1.058 . S
C78 O67 1.260 . S
C78 O68 1.258 . S
C79 O75 1.260 . S
C79 O76 1.258 . S
Zn80 O86 1.969 . S
Zn80 O87 1.965 . S
Zn80 O91 2.024 . S
Zn80 O96 1.969 . S
Zn81 O88 1.969 . S
Zn81 O94 1.969 . S
Zn81 O95 1.965 . S
Zn81 O97 2.024 . S
C82 O83 1.229 . S
C82 O91 1.058 . S
O83 C82 1.229 . S
C84 O85 1.229 . S
C84 O97 1.058 . S
O85 C84 1.229 . S
O86 Zn80 1.969 . S
O86 C89 1.267 . S
O87 Zn80 1.965 . S
O87 C98 1.260 . S
O88 Zn81 1.969 . S
O88 C98 1.258 . S
C89 O86 1.267 . S
C89 O90 1.228 . S
O90 C89 1.228 . S
O91 Zn80 2.024 . S
O91 C82 1.058 . S
C92 O93 1.228 . S
C92 O94 1.267 . S
O93 C92 1.228 . S
O94 Zn81 1.969 . S
O94 C92 1.267 . S
O95 Zn81 1.965 . S
O95 C99 1.260 . S
O96 Zn80 1.969 . S
O96 C99 1.258 . S
O97 Zn81 2.024 . S
O97 C84 1.058 . S
C98 O87 1.260 . S
C98 O88 1.258 . S
C99 O95 1.260 . S
C99 O96 1.258 . S
Zn100 O106 1.969 . S
Zn100 O107 1.965 . S
Zn100 O111 2.024 . S
Zn100 O116 1.969 . S
Zn101 O108 1.969 . S
Zn101 O114 1.969 . S
Zn101 O115 1.965 . S
Zn101 O117 2.024 . S
C102 O103 1.229 . S
C102 O111 1.058 . S
O103 C102 1.229 . S
C104 O105 1.229 . S
C104 O117 1.058 . S
O105 C104 1.229 . S
O106 Zn100 1.969 . S
O106 C109 1.267 . S
O107 Zn100 1.965 . S
O107 C118 1.260 . S
O108 Zn101 1.969 . S
O108 C118 1.258 . S
C109 O106 1.267 . S
C109 O110 1.228 . S
O110 C109 1.228 . S
O111 Zn100 2.024 . S
O111 C102 1.058 . S
C112 O113 1.228 . S
C112 O114 1.267 . S
O113 C112 1.228 . S
O114 Zn101 1.969 . S
O114 C112 1.267 . S
O115 Zn101 1.965 . S
O115 C119 1.260 . S
O116 Zn100 1.969 . S
O116 C119 1.258 . S
O117 Zn101 2.024 . S
O117 C104 1.058 . S
C118 O107 1.260 . S
C118 O108 1.258 . S
C119 O115 1.260 . S
C119 O116 1.258 . S
Zn120 O126 1.969 . S
Zn120 O127 1.965 . S
Zn120 O131 2.024 . S
Zn120 O136 1.969 . S
Zn121 O128 1.969 . S
Zn121 O134 1.969 . S
Zn121 O135 1.965 . S
Zn121 O137 2.024 . S
C122 O123 1.229 . S
C122 O131 1.058 . S
O123 C122 1.229 . S
C124 O125 1.229 . S
C124 O137 1.058 . S
O125 C124 1.229 . S
O126 Zn120 1.969 . S
O126 C129 1.267 . S
O127 Zn120 1.965 . S
O127 C138 1.260 . S
O128 Zn121 1.969 . S
O128 C138 1.258 . S
C129 O126 1.267 . S
C129 O130 1.228 . S
O130 C129 1.228 . S
O131 Zn120 2.024 . S
O131 C122 1.058 . S
C132 O133 1.228 . S
C132 O134 1.267 . S
O133 C132 1.228 . S
O134 Zn121 1.969 . S
O134 C132 1.267 . S
O135 Zn121 1.965 . S
O135 C139 1.260 . S
O136 Zn120 1.969 . S
O136 C139 1.258 . S
O137 Zn121 2.024 . S
O137 C124 1.058 . S
C138 O127 1.260 . S
C138 O128 1.258 . S
C139 O135 1.260 . S
C139 O136 1.258 . S
Zn140 O146 1.969 . S
Zn140 O147 1.965 . S
Zn140 O151 2.024 . S
Zn140 O156 1.969 . S
Zn141 O148 1.969 . S
Zn141 O154 1.969 . S
Zn141 O155 1.965 . S
Zn141 O157 2.024 1_556 S
C142 O143 1.229 . S
C142 O151 1.058 . S
O143 C142 1.229 . S
C144 O145 1.229 . S
C144 O157 1.058 . S
O145 C144 1.229 . S
O146 Zn140 1.969 . S
O146 C149 1.267 . S
O147 Zn140 1.965 . S
O147 C158 1.260 . S
O148 Zn141 1.969 . S
O148 C158 1.258 . S
C149 O146 1.267 . S
C149 O150 1.228 . S
O150 C149 1.228 . S
O151 Zn140 2.024 . S
O151 C142 1.058 . S
C152 O153 1.228 . S
C152 O154 1.267 1_554 S
O153 C152 1.228 . S
O154 Zn141 1.969 . S
O154 C152 1.267 1_556 S
O155 Zn141 1.965 . S
O155 C159 1.260 . S
O156 Zn140 1.969 . S
O156 C159 1.258 . S
O157 Zn141 2.024 1_554 S
O157 C144 1.058 . S
C158 O147 1.260 . S
C158 O148 1.258 . S
C159 O155 1.260 . S
C159 O156 1.258 . S
Zn160 O166 1.969 . S
Zn160 O167 1.965 . S
Zn160 O171 2.024 . S
Zn160 O176 1.969 . S
Zn161 O168 1.969 . S
Zn161 O174 1.969 . S
Zn161 O175 1.965 . S
Zn161 O177 2.024 . S
C162 O163 1.229 . S
C162 O171 1.058 . S
O163 C162 1.229 . S
C164 O165 1.229 . S
C164 O177 1.058 . S
O165 C164 1.229 . S
O166 Zn160 1.969 . S
O166 C169 1.267 . S
O167 Zn160 1.965 . S
O167 C178 1.260 . S
O168 Zn161 1.969 . S
O168 C178 1.258 . S
C169 O166 1.267 . S
C169 O170 1.228 . S
O170 C169 1.228 . S
O171 Zn160 2.024 . S
O171 C162 1.058 . S
C172 O173 1.228 . S
C172 O174 1.267 . S
O173 C172 1.228 . S
O174 Zn161 1.969 . S
O174 C172 1.267 . S
O175 Zn161 1.965 . S
O175 C179 1.260 . S
O176 Zn160 1.969 . S
O176 C179 1.258 . S
O177 Zn161 2.024 . S
O177 C164 1.058 . S
C178 O167 1.260 . S
C178 O168 1.258 . S
C179 O175 1.260 . S
C179 O176 1.258 . S
Zn180 O186 1.969 . S
Zn180 O187 1.965 . S
Zn180 O191 2.024 . S
Zn180 O196 1.969 . S
Zn181 O188 1.969 . S
Zn181 O194 1.969 . S
Zn181 O195 1.965 . S
Zn181 O197 2.024 . S
C182 O183 1.229 . S
C182 O191 1.058 . S
O183 C182 1.229 . S
C184 O185 1.229 . S
C184 O197 1.058 . S
O185 C184 1.229 . S
O186 Zn180 1.969 . S
O186 C189 1.267 . S
O187 Zn180 1.965 . S
O187 C198 1.260 . S
O188 Zn181 1.969 . S
O188 C198 1.258 . S
C189 O186 1.267 . S
C189 O190 1.228 . S
O190 C189 1.228 . S
O191 Zn180 2.024 . S
O191 C182 1.058 . S
C192 O193 1.228 . S
C192 O194 1.267 . S
O193 C192 1.228 . S
O194 Zn181 1.969 . S
O194 C192 1.267 . S
O195 Zn181 1.965 . S
O195 C199 1.260 . S
O196 Zn180 1.969 . S
O196 C199 1.258 . S
O197 Zn181 2.024 . S
O197 C184 1.058 . S
C198 O187 1.260 . S
C198 O188 1.258 . S
C199 O195 1.260 . S
C199 O196 1.258 . S
Zn200 O206 1.969 . S
Zn200 O207 1.965 . S
Zn200 O211 2.024 . S
Zn200 O216 1.969 . S
Zn201 O208 1.969 . S
Zn201 O214 1.969 . S
Zn201 O215 1.965 . S
Zn201 O217 2.024 . S
C202 O203 1.229 . S
C202 O211 1.058 . S
O203 C202 1.229 . S
C204 O205 1.229 . S
C204 O217 1.058 . S
O205 C204 1.229 . S
O206 Zn200 1.969 . S
O206 C209 1.267 . S
O207 Zn200 1.965 . S
O207 C218 1.260 . S
O208 Zn201 1.969 . S
O208 C218 1.258 . S
C209 O206 1.267 . S
C209 O210 1.228 . S
O210 C209 1.228 . S
O211 Zn200 2.024 . S
O211 C202 1.058 . S
C212 O213 1.228 . S
C212 O214 1.267 . S
O213 C212 1.228 . S
O214 Zn201 1.969 . S
O214 C212 1.267 . S
O215 Zn201 1.965 . S
O215 C219 1.260 . S
O216 Zn200 1.969 . S
O216 C219 1.258 . S
O217 Zn201 2.024 . S
O217 C204 1.058 . S
C218 O207 1.260 . S
C218 O208 1.258 . S
C219 O215 1.260 . S
C219 O216 1.258 . S
Zn220 O226 1.969 . S
Zn220 O227 1.965 . S
Zn220 O231 2.024 1_556 S
Zn220 O236 1.969 . S
Zn221 O228 1.969 . S
Zn221 O234 1.969 . S
Zn221 O235 1.965 . S
Zn221 O237 2.024 . S
C222 O223 1.229 . S
C222 O231 1.058 . S
O223 C222 1.229 . S
C224 O225 1.229 . S
C224 O237 1.058 . S
O225 C224 1.229 . S
O226 Zn220 1.969 . S
O226 C229 1.267 1_556 S
O227 Zn220 1.965 . S
O227 C238 1.260 . S
O228 Zn221 1.969 . S
O228 C238 1.258 . S
C229 O226 1.267 1_554 S
C229 O230 1.228 . S
O230 C229 1.228 . S
O231 Zn220 2.024 1_554 S
O231 C222 1.058 . S
C232 O233 1.228 . S
C232 O234 1.267 . S
O233 C232 1.228 . S
O234 Zn221 1.969 . S
O234 C232 1.267 . S
O235 Zn221 1.965 . S
O235 C239 1.260 . S
O236 Zn220 1.969 . S
O236 C239 1.258 . S
O237 Zn221 2.024 . S
O237 C224 1.058 . S
C238 O227 1.260 . S
C238 O228 1.258 . S
C239 O235 1.260 . S
C239 O236 1.258 . S
Zn240 O246 1.969 . S
Zn240 O247 1.965 . S
Zn240 O251 2.024 . S
Zn240 O256 1.969 . S
Zn241 O248 1.969 . S
Zn241 O254 1.969 . S
Zn241 O255 1.965 . S
Zn241 O257 2.024 . S
C242 O243 1.229 . S
C242 O251 1.058 . S
O243 C242 1.229 . S
C244 O245 1.229 . S
C244 O257 1.058 . S
O245 C244 1.229 . S
O246 Zn240 1.969 . S
O246 C249 1.267 . S
O247 Zn240 1.965 . S
O247 C258 1.260 . S
O248 Zn241 1.969 . S
O248 C258 1.258 . S
C249 O246 1.267 . S
C249 O250 1.228 . S
O250 C249 1.228 . S
O251 Zn240 2.024 . S
O251 C242 1.058 . S
C252 O253 1.228 . S
C252 O254 1.267 . S
O253 C252 1.228 . S
O254 Zn241 1.969 . S
O254 C252 1.267 . S
O255 Zn241 1.965 . S
O255 C259 1.260 . S
O256 Zn240 1.969 . S
O256 C259 1.258 . S
O257 Zn241 2.024 . S
O257 C244 1.058 . S
C258 O247 1.260 . S
C258 O248 1.258 . S
C259 O255 1.260 . S
C259 O256 1.258 . S
Zn260 O266 1.969 . S
Zn260 O267 1.965 . S
Zn260 O271 2.024 . S
Zn260 O276 1.969 . S
Zn261 O268 1.969 . S
Zn261 O274 1.969 . S
Zn261 O275 1.965 . S
Zn261 O277 2.024 . S
C262 O263 1.229 . S
C262 O271 1.058 . S
O263 C262 1.229 . S
C264 O265 1.229 . S
C264 O277 1.058 . S
O265 C264 1.229 . S
O266 Zn260 1.969 . S
O266 C269 1.267 . S
O267 Zn260 1.965 . S
O267 C278 1.260 . S
O268 Zn261 1.969 . S
O268 C278 1.258 . S
C269 O266 1.267 . S
C269 O270 1.228 . S
O270 C269 1.228 . S
O271 Zn260 2.024 . S
O271 C262 1.058 . S
C272 O273 1.228 . S
C272 O274 1.267 . S
O273 C272 1.228 . S
O274 Zn261 1.969 . S
O274 C272 1.267 . S
O275 Zn261 1.965 . S
O275 C279 1.260 . S
O276 Zn260 1.969 . S
O276 C279 1.258 . S
O277 Zn261 2.024 . S
O277 C264 1.058 . S
C278 O267 1.260 . S
C278 O268 1.258 . S
C279 O275 1.260 . S
C279 O276 1.258 . S
Zn280 O286 1.969 . S
Zn280 O287 1.965 . S
Zn280 O291 2.024 . S
Zn280 O296 1.969 . S
Zn281 O288 1.969 . S
Zn281 O294 1.969 . S
Zn281 O295 1.965 . S
Zn281 O297 2.024 . S
C282 O283 1.229 . S
C282 O291 1.058 . S
O283 C282 1.229 . S
C284 O285 1.229 . S
C284 O297 1.058 . S
O285 C284 1.229 . S
O286 Zn280 1.969 . S
O286 C289 1.267 . S
O287 Zn280 1.965 . S
O287 C298 1.260 . S
O288 Zn281 1.969 . S
O288 C298 1.258 . S
C289 O286 1.267 . S
C289 O290 1.228 . S
O290 C289 1.228 . S
O291 Zn280 2.024 . S
O291 C282 1.058 . S
C292 O293 1.228 . S
C292 O294 1.267 . S
O293 C292 1.228 . S
O294 Zn281 1.969 . S
O294 C292 1.267 . S
O295 Zn281 1.965 . S
O295 C299 1.260 . S
O296 Zn280 1.969 . S
O296 C299 1.258 . S
O297 Zn281 2.024 . S
O297 C284 1.058 . S
C298 O287 1.260 . S
C298 O288 1.258 . S
C299 O295 1.260 . S
C299 O296 1.258 . S
Zn300 O306 1.969 . S
Zn300 O307 1.965 . S
Zn300 O311 2.024 1_554 S
Zn300 O316 1.969 . S
Zn301 O308 1.969 . S
Zn301 O314 1.969 . S
Zn301 O315 1.965 . S
Zn301 O317 2.024 . S
C302 O303 1.229 . S
C302 O311 1.058 . S
O303 C302 1.229 . S
C304 O305 1.229 . S
C304 O317 1.058 . S
O305 C304 1.229 . S
O306 Zn300 1.969 . S
O306 C309 1.267 1_554 S
O307 Zn300 1.965 . S
O307 C318 1.260 . S
O308 Zn301 1.969 . S
O308 C318 1.258 . S
C309 O306 1.267 1_556 S
C309 O310 1.228 . S
O310 C309 1.228 . S
O311 Zn300 2.024 1_556 S
O311 C302 1.058 . S
C312 O313 1.228 . S
C312 O314 1.267 . S
O313 C312 1.228 . S
O314 Zn301 1.969 . S
O314 C312 1.267 . S
O315 Zn301 1.965 . S
O315 C319 1.260 . S
O316 Zn300 1.969 . S
O316 C319 1.258 . S
O317 Zn301 2.024 . S
O317 C304 1.058 . S
C318 O307 1.260 . S
C318 O308 1.258 . S
C319 O315 1.260 . S
C319 O316 1.258 . S
Zn320 O326 1.969 . S
Zn320 O327 1.965 . S
Zn320 O331 2.024 . S
Zn320 O336 1.969 . S
Zn321 O328 1.969 . S
Zn321 O334 1.969 . S
Zn321 O335 1.965 . S
Zn321 O337 2.024 . S
C322 O323 1.229 . S
C322 O331 1.058 . S
O323 C322 1.229 . S
C324 O325 1.229 . S
C324 O337 1.058 . S
O325 C324 1.229 . S
O326 Zn320 1.969 . S
O326 C329 1.267 . S
O327 Zn320 1.965 . S
O327 C338 1.260 . S
O328 Zn321 1.969 . S
O328 C338 1.258 . S
C329 O326 1.267 . S
C329 O330 1.228 . S
O330 C329 1.228 . S
O331 Zn320 2.024 . S
O331 C322 1.058 . S
C332 O333 1.228 . S
C332 O334 1.267 . S
O333 C332 1.228 . S
O334 Zn321 1.969 . S
O334 C332 1.267 . S
O335 Zn321 1.965 . S
O335 C339 1.260 . S
O336 Zn320 1.969 . S
O336 C339 1.258 . S
O337 Zn321 2.024 . S
O337 C324 1.058 . S
C338 O327 1.260 . S
C338 O328 1.258 . S
C339 O335 1.260 . S
C339 O336 1.258 . S
Zn340 O346 1.969 . S
Zn340 O347 1.965 . S
Zn340 O351 2.024 . S
Zn340 O356 1.969 . S
Zn341 O348 1.969 . S
Zn341 O354 1.969 . S
Zn341 O355 1.965 . S
Zn341 O357 2.024 1_554 S
C342 O343 1.229 . S
C342 O351 1.058 . S
O343 C342 1.229 . S
C344 O345 1.229 . S
C344 O357 1.058 . S
O345 C344 1.229 . S
O346 Zn340 1.969 . S
O346 C349 1.267 . S
O347 Zn340 1.965 . S
O347 C358 1.260 . S
O348 Zn341 1.969 . S
O348 C358 1.258 . S
C349 O346 1.267 . S
C349 O350 1.228 . S
O350 C349 1.228 . S
O351 Zn340 2.024 . S
O351 C342 1.058 . S
C352 O353 1.228 . S
C352 O354 1.267 1_556 S
O353 C352 1.228 . S
O354 Zn341 1.969 . S
O354 C352 1.267 1_554 S
O355 Zn341 1.965 . S
O355 C359 1.260 . S
O356 Zn340 1.969 . S
O356 C359 1.258 . S
O357 Zn341 2.024 1_556 S
O357 C344 1.058 . S
C358 O347 1.260 . S
C358 O348 1.258 . S
C359 O355 1.260 . S
C359 O356 1.258 . S
Zn360 O366 1.969 . S
Zn360 O367 1.965 . S
Zn360 O371 2.024 . S
Zn360 O376 1.969 . S
Zn361 O368 1.969 . S
Zn361 O374 1.969 . S
Zn361 O375 1.965 . S
Zn361 O377 2.024 . S
C362 O363 1.229 . S
C362 O371 1.058 . S
O363 C362 1.229 . S
C364 O365 1.229 . S
C364 O377 1.058 . S
O365 C364 1.229 . S
O366 Zn360 1.969 . S
O366 C369 1.267 . S
O367 Zn360 1.965 . S
O367 C378 1.260 . S
O368 Zn361 1.969 . S
O368 C378 1.258 . S
C369 O366 1.267 . S
C369 O370 1.228 . S
O370 C369 1.228 . S
O371 Zn360 2.024 . S
O371 C362 1.058 . S
C372 O373 1.228 . S
C372 O374 1.267 . S
O373 C372 1.228 . S
O374 Zn361 1.969 . S
O374 C372 1.267 . S
O375 Zn361 1.965 . S
O375 C379 1.260 . S
O376 Zn360 1.969 . S
O376 C379 1.258 . S
O377 Zn361 2.024 . S
O377 C364 1.058 . S
C378 O367 1.260 . S
C378 O368 1.258 . S
C379 O375 1.260 . S
C379 O376 1.258 . S
Zn380 O386 1.969 . S
Zn380 O387 1.965 . S
Zn380 O391 2.024 . S
Zn380 O396 1.969 . S
Zn381 O388 1.969 . S
Zn381 O394 1.969 . S
Zn381 O395 1.965 . S
Zn381 O397 2.024 . S
C382 O383 1.229 . S
C382 O391 1.058 . S
O383 C382 1.229 . S
C384 O385 1.229 . S
C384 O397 1.058 . S
O385 C384 1.229 . S
O386 Zn380 1.969 . S
O386 C389 1.267 . S
O387 Zn380 1.965 . S
O387 C398 1.260 . S
O388 Zn381 1.969 . S
O388 C398 1.258 . S
C389 O386 1.267 . S
C389 O390 1.228 . S
O390 C389 1.228 . S
O391 Zn380 2.024 . S
O391 C382 1.058 . S
C392 O393 1.228 . S
C392 O394 1.267 . S
O393 C392 1.228 . S
O394 Zn381 1.969 . S
O394 C392 1.267 . S
O395 Zn381 1.965 . S
O395 C399 1.260 . S
O396 Zn380 1.969 . S
O396 C399 1.258 . S
O397 Zn381 2.024 . S
O397 C384 1.058 . S
C398 O387 1.260 . S
C398 O388 1.258 . S
C399 O395 1.260 . S
C399 O396 1.258 . S
Zn400 O406 1.969 . S
Zn400 O407 1.965 . S
Zn400 O411 2.024 . S
Zn400 O416 1.969 . S
Zn401 O408 1.969 . S
Zn401 O414 1.969 . S
Zn401 O415 1.965 . S
Zn401 O417 2.024 . S
C402 O403 1.229 . S
C402 O411 1.058 . S
O403 C402 1.229 . S
C404 O405 1.229 . S
C404 O417 1.058 . S
O405 C404 1.229 . S
O406 Zn400 1.969 . S
O406 C409 1.267 . S
O407 Zn400 1.965 . S
O407 C418 1.260 . S
O408 Zn401 1.969 . S
O408 C418 1.258 . S
C409 O406 1.267 . S
C409 O410 1.228 . S
O410 C409 1.228 . S
O411 Zn400 2.024 . S
O411 C402 1.058 . S
C412 O413 1.228 . S
C412 O414 1.267 . S
O413 C412 1.228 . S
O414 Zn401 1.969 . S
O414 C412 1.267 . S
O415 Zn401 1.965 . S
O415 C419 1.260 . S
O416 Zn400 1.969 . S
O416 C419 1.258 . S
O417 Zn401 2.024 . S
O417 C404 1.058 . S
C418 O407 1.260 . S
C418 O408 1.258 . S
C419 O415 1.260 . S
C419 O416 1.258 . S
Zn420 O426 1.969 . S
Zn420 O427 1.965 . S
Zn420 O431 2.024 . S
Zn420 O436 1.969 . S
Zn421 O428 1.969 . S
Zn421 O434 1.969 . S
Zn421 O435 1.965 . S
Zn421 O437 2.024 1_556 S
C422 O423 1.229 . S
C422 O431 1.058 . S
O423 C422 1.229 . S
C424 O425 1.229 . S
C424 O437 1.058 . S
O425 C424 1.229 . S
O426 Zn420 1.969 . S
O426 C429 1.267 . S
O427 Zn420 1.965 . S
O427 C438 1.260 . S
O428 Zn421 1.969 . S
O428 C438 1.258 . S
C429 O426 1.267 . S
C429 O430 1.228 . S
O430 C429 1.228 . S
O431 Zn420 2.024 . S
O431 C422 1.058 . S
C432 O433 1.228 . S
C432 O434 1.267 1_554 S
O433 C432 1.228 . S
O434 Zn421 1.969 . S
O434 C432 1.267 1_556 S
O435 Zn421 1.965 . S
O435 C439 1.260 . S
O436 Zn420 1.969 . S
O436 C439 1.258 . S
O437 Zn421 2.024 1_554 S
O437 C424 1.058 . S
C438 O427 1.260 . S
C438 O428 1.258 . S
C439 O435 1.260 . S
C439 O436 1.258 . S
Zn440 O446 1.969 . S
Zn440 O447 1.965 . S
Zn440 O451 2.024 . S
Zn440 O456 1.969 . S
Zn441 O448 1.969 . S
Zn441 O454 1.969 . S
Zn441 O455 1.965 . S
Zn441 O457 2.024 . S
C442 O443 1.229 . S
C442 O451 1.058 . S
O443 C442 1.229 . S
C444 O445 1.229 . S
C444 O457 1.058 . S
O445 C444 1.229 . S
O446 Zn440 1.969 . S
O446 C449 1.267 . S
O447 Zn440 1.965 . S
O447 C458 1.260 . S
O448 Zn441 1.969 . S
O448 C458 1.258 . S
C449 O446 1.267 . S
C449 O450 1.228 . S
O450 C449 1.228 . S
O451 Zn440 2.024 . S
O451 C442 1.058 . S
C452 O453 1.228 . S
C452 O454 1.267 . S
O453 C452 1.228 . S
O454 Zn441 1.969 . S
O454 C452 1.267 . S
O455 Zn441 1.965 . S
O455 C459 1.260 . S
O456 Zn440 1.969 . S
O456 C459 1.258 . S
O457 Zn441 2.024 . S
O457 C444 1.058 . S
C458 O447 1.260 . S
C458 O448 1.258 . S
C459 O455 1.260 . S
C459 O456 1.258 . S
Zn460 O466 1.969 . S
Zn460 O467 1.965 . S
Zn460 O471 2.024 . S
Zn460 O476 1.969 . S
Zn461 O468 1.969 . S
Zn461 O474 1.969 . S
Zn461 O475 1.965 . S
Zn461 O477 2.024 . S
C462 O463 1.229 . S
C462 O471 1.058 . S
O463 C462 1.229 . S
C464 O465 1.229 . S
C464 O477 1.058 . S
O465 C464 1.229 . S
O466 Zn460 1.969 . S
O466 C469 1.267 . S
O467 Zn460 1.965 . S
O467 C478 1.260 . S
O468 Zn461 1.969 . S
O468 C478 1.258 . S
C469 O466 1.267 . S
C469 O470 1.228 . S
O470 C469 1.228 . S
O471 Zn460 2.024 . S
O471 C462 1.058 . S
C472 O473 1.228 . S
C472 O474 1.267 . S
O473 C472 1.228 . S
O474 Zn461 1.969 . S
O474 C472 1.267 . S
O475 Zn461 1.965 . S
O475 C479 1.260 . S
O476 Zn460 1.969 . S
O476 C479 1.258 . S
O477 Zn461 2.024 . S
O477 C464 1.058 . S
C478 O467 1.260 . S
C478 O468 1.258 . S
C479 O475 1.260 . S
C479 O476 1.258 . S
Zn480 O486 1.969 . S
Zn480 O487 1.965 . S
Zn480 O491 2.024 . S
Zn480 O496 1.969 . S
Zn481 O488 1.969 . S
Zn481 O494 1.969 . S
Zn481 O495 1.965 . S
Zn481 O497 2.024 . S
C482 O483 1.229 . S
C482 O491 1.058 . S
O483 C482 1.229 . S
C484 O485 1.229 . S
C484 O497 1.058 . S
O485 C484 1.229 . S
O486 Zn480 1.969 . S
O486 C489 1.267 . S
O487 Zn480 1.965 . S
O487 C498 1.260 . S
O488 Zn481 1.969 . S
O488 C498 1.258 . S
C489 O486 1.267 . S
C489 O490 1.228 . S
O490 C489 1.228 . S
O491 Zn480 2.024 . S
O491 C482 1.058 . S
C492 O493 1.228 . S
C492 O494 1.267 . S
O493 C492 1.228 . S
O494 Zn481 1.969 . S
O494 C492 1.267 . S
O495 Zn481 1.965 . S
O495 C499 1.260 . S
O496 Zn480 1.969 . S
O496 C499 1.258 . S
O497 Zn481 2.024 . S
O497 C484 1.058 . S
C498 O487 1.260 . S
C498 O488 1.258 . S
C499 O495 1.260 . S
C499 O496 1.258 . S
Zn500 O506 1.969 . S
Zn500 O507 1.965 . S
Zn500 O511 2.024 1_556 S
Zn500 O516 1.969 . S
Zn501 O508 1.969 . S
Zn501 O514 1.969 . S
Zn501 O515 1.965 . S
Zn501 O517 2.024 . S
C502 O503 1.229 . S
C502 O511 1.058 . S
O503 C502 1.229 . S
C504 O505 1.229 . S
C504 O517 1.058 . S
O505 C504 1.229 . S
O506 Zn500 1.969 . S
O506 C509 1.267 1_556 S
O507 Zn500 1.965 . S
O507 C518 1.260 . S
O508 Zn501 1.969 . S
O508 C518 1.258 . S
C509 O506 1.267 1_554 S
C509 O510 1.228 . S
O510 C509 1.228 . S
O511 Zn500 2.024 1_554 S
O511 C502 1.058 . S
C512 O513 1.228 . S
C512 O514 1.267 . S
O513 C512 1.228 . S
O514 Zn501 1.969 . S
O514 C512 1.267 . S
O515 Zn501 1.965 . S
O515 C519 1.260 . S
O516 Zn500 1.969 . S
O516 C519 1.258 . S
O517 Zn501 2.024 . S
O517 C504 1.058 . S
C518 O507 1.260 . S
C518 O508 1.258 . S
C519 O515 1.260 . S
C519 O516 1.258 . S
Zn520 O526 1.969 . S
Zn520 O527 1.965 . S
Zn520 O531 2.024 . S
Zn520 O536 1.969 . S
Zn521 O528 1.969 . S
Zn521 O534 1.969 . S
Zn521 O535 1.965 . S
Zn521 O537 2.024 . S
C522 O523 1.229 . S
C522 O531 1.058 . S
O523 C522 1.229 . S
C524 O525 1.229 . S
C524 O537 1.058 . S
O525 C524 1.229 . S
O526 Zn520 1.969 . S
O526 C529 1.267 . S
O527 Zn520 1.965 . S
O527 C538 1.260 . S
O528 Zn521 1.969 . S
O528 C538 1.258 . S
C529 O526 1.267 . S
C529 O530 1.228 . S
O530 C529 1.228 . S
O531 Zn520 2.024 . S
O531 C522 1.058 . S
C532 O533 1.228 . S
C532 O534 1.267 . S
O533 C532 1.228 . S
O534 Zn521 1.969 . S
O534 C532 1.267 . S
O535 Zn521 1.965 . S
O535 C539 1.260 . S
O536 Zn520 1.969 . S
O536 C539 1.258 . S
O537 Zn521 2.024 . S
O537 C524 1.058 . S
C538 O527 1.260 . S
C538 O528 1.258 . S
C539 O535 1.260 . S
C539 O536 1.258 . S
Zn540 O546 1.969 . S
Zn540 O547 1.965 . S
Zn540 O551 2.024 . S
Zn540 O556 1.969 . S
Zn541 O548 1.969 . S
Zn541 O554 1.969 . S
Zn541 O555 1.965 . S
Zn541 O557 2.024 . S
C542 O543 1.229 . S
C542 O551 1.058 . S
O543 C542 1.229 . S
C544 O545 1.229 . S
C544 O557 1.058 . S
O545 C544 1.229 . S
O546 Zn540 1.969 . S
O546 C549 1.267 . S
O547 Zn540 1.965 . S
O547 C558 1.260 . S
O548 Zn541 1.969 . S
O548 C558 1.258 . S
C549 O546 1.267 . S
C549 O550 1.228 . S
O550 C549 1.228 . S
O551 Zn540 2.024 . S
O551 C542 1.058 . S
C552 O553 1.228 . S
C552 O554 1.267 . S
O553 C552 1.228 . S
O554 Zn541 1.969 . S
O554 C552 1.267 . S
O555 Zn541 1.965 . S
O555 C559 1.260 . S
O556 Zn540 1.969 . S
O556 C559 1.258 . S
O557 Zn541 2.024 . S
O557 C544 1.058 . S
C558 O547 1.260 . S
C558 O548 1.258 . S
C559 O555 1.260 . S
C559 O556 1.258 . S
Zn560 O566 1.969 . S
Zn560 O567 1.965 . S
Zn560 O571 2.024 . S
Zn560 O576 1.969 . S
Zn561 O568 1.969 . S
Zn561 O574 1.969 . S
Zn561 O575 1.965 . S
Zn561 O577 2.024 . S
C562 O563 1.229 . S
C562 O571 1.058 . S
O563 C562 1.229 . S
C564 O565 1.229 . S
C564 O577 1.058 . S
O565 C564 1.229 . S
O566 Zn560 1.969 . S
O566 C569 1.267 . S
O567 Zn560 1.965 . S
O567 C578 1.260 . S
O568 Zn561 1.969 . S
O568 C578 1.258 . S
C569 O566 1.267 . S
C569 O570 1.228 . S
O570 C569 1.228 . S
O571 Zn560 2.024 . S
O571 C562 1.058 . S
C572 O573 1.228 . S
C572 O574 1.267 . S
O573 C572 1.228 . S
O574 Zn561 1.969 . S
O574 C572 1.267 . S
O575 Zn561 1.965 . S
O575 C579 1.260 . S
O576 Zn560 1.969 . S
O576 C579 1.258 . S
O577 Zn561 2.024 . S
O577 C564 1.058 . S
C578 O567 1.260 . S
C578 O568 1.258 . S
C579 O575 1.260 . S
C579 O576 1.258 . S
Zn580 O586 1.969 . S
Zn580 O587 1.965 . S
Zn580 O591 2.024 1_554 S
Zn580 O596 1.969 . S
Zn581 O588 1.969 . S
Zn581 O594 1.969 . S
Zn581 O595 1.965 . S
Zn581 O597 2.024 . S
C582 O583 1.229 . S
C582 O591 1.058 . S
O583 C582 1.229 . S
C584 O585 1.229 . S
C584 O597 1.058 . S
O585 C584 1.229 . S
O586 Zn580 1.969 . S
O586 C589 1.267 1_554 S
O587 Zn580 1.965 . S
O587 C598 1.260 . S
O588 Zn581 1.969 . S
O588 C598 1.258 . S
C589 O586 1.267 1_556 S
C589 O590 1.228 . S
O590 C589 1.228 . S
O591 Zn580 2.024 1_556 S
O591 C582 1.058 . S
C592 O593 1.228 . S
C592 O594 1.267 . S
O593 C592 1.228 . S
O594 Zn581 1.969 . S
O594 C592 1.267 . S
O595 Zn581 1.965 . S
O595 C599 1.260 . S
O596 Zn580 1.969 . S
O596 C599 1.258 . S
O597 Zn581 2.024 . S
O597 C584 1.058 . S
C598 O587 1.260 . S
C598 O588 1.258 . S
C599 O595 1.260 . S
C599 O596 1.258 . S
Zn600 O606 1.969 . S
Zn600 O607 1.965 . S
Zn600 O611 2.024 . S
Zn600 O616 1.969 . S
Zn601 O608 1.969 . S
Zn601 O614 1.969 . S
Zn601 O615 1.965 . S
Zn601 O617 2.024 . S
C602 O603 1.229 . S
C602 O611 1.058 . S
O603 C602 1.229 . S
C604 O605 1.229 . S
C604 O617 1.058 . S
O605 C604 1.229 . S
O606 Zn600 1.969 . S
O606 C609 1.267 . S
O607 Zn600 1.965 . S
O607 C618 1.260 . S
O608 Zn601 1.969 . S
O608 C618 1.258 . S
C609 O606 1.267 . S
C609 O610 1.228 . S
O610 C609 1.228 . S
O611 Zn600 2.024 . S
O611 C602 1.058 . S
C612 O613 1.228 . S
C612 O614 1.267 . S
O613 C612 1.228 . S
O614 Zn601 1.969 . S
O614 C612 1.267 . S
O615 Zn601 1.965 . S
O615 C619 1.260 . S
O616 Zn600 1.969 . S
O616 C619 1.258 . S
O617 Zn601 2.024 . S
O617 C604 1.058 . S
C618 O607 1.260 . S
C618 O608 1.258 . S
C619 O615 1.260 . S
C619 O616 1.258 . S
Zn620 O626 1.969 . S
Zn620 O627 1.965 . S
Zn620 O631 2.024 . S
Zn620 O636 1.969 . S
Zn621 O628 1.969 . S
Zn621 O634 1.969 . S
Zn621 O635 1.965 . S
Zn621 O637 2.024 . S
C622 O623 1.229 . S
C622 O631 1.058 . S
O623 C622 1.229 . S
C624 O625 1.229 . S
C624 O637 1.058 . S
O625 C624 1.229 . S
O626 Zn620 1.969 . S
O626 C629 1.267 . S
O627 Zn620 1.965 . S
O627 C638 1.260 . S
O628 Zn621 1.969 . S
O628 C638 1.258 . S
C629 O626 1.267 . S
C629 O630 1.228 . S
O630 C629 1.228 . S
O631 Zn620 2.024 . S
O631 C622 1.058 . S
C632 O633 1.228 . S
C632 O634 1.267 . S
O633 C632 1.228 . S
O634 Zn621 1.969 . S
O634 C632 1.267 . S
O635 Zn621 1.965 . S
O635 C639 1.260 . S
O636 Zn620 1.969 . S
O636 C639 1.258 . S
O637 Zn621 2.024 . S
O637 C624 1.058 . S
C638 O627 1.260 . S
C638 O628 1.258 . S
C639 O635 1.260 . S
C639 O636 1.258 . S
C640 C641 1.391 . S
C640 C642 1.394 . S
C640 H656 0.931 . S
C641 C640 1.391 . S
C641 C645 1.376 . S
C642 C640 1.394 . S
C642 C643 1.369 . S
C642 C646 1.531 . S
C643 C642 1.369 . S
C643 C644 1.410 . S
C643 C651 1.503 . S
C644 C643 1.410 . S
C644 C645 1.392 . S
C644 C647 1.511 . S
C645 C641 1.376 . S
C645 C644 1.392 . S
C645 H657 0.929 . S
C646 C642 1.531 . S
C646 H658 0.960 . S
C646 H659 0.962 . S
C646 H660 0.960 . S
C647 C644 1.511 . S
C647 H661 0.961 . S
C647 H662 0.961 . S
C647 H663 0.961 . S
C648 C649 1.370 . S
C648 C650 1.363 . S
C648 H664 0.931 . S
C649 C648 1.370 . S
C649 C653 1.408 . S
C650 C648 1.363 . S
C650 C651 1.370 . S
C650 C654 1.524 . S
C651 C643 1.503 . S
C651 C650 1.370 . S
C651 C652 1.403 . S
C652 C651 1.403 . S
C652 C653 1.404 . S
C652 C655 1.539 . S
C653 C649 1.408 . S
C653 C652 1.404 . S
C653 H665 0.930 . S
C654 C650 1.524 . S
C654 H666 0.956 . S
C654 H667 0.961 . S
C654 H668 0.961 . S
C655 C652 1.539 . S
C655 H669 0.958 . S
C655 H670 0.961 . S
C655 H671 0.960 . S
H656 C640 0.931 . S
H657 C645 0.929 . S
H658 C646 0.960 . S
H659 C646 0.962 . S
H660 C646 0.960 . S
H661 C647 0.961 . S
H662 C647 0.961 . S
H663 C647 0.961 . S
H664 C648 0.931 . S
H665 C653 0.930 . S
H666 C654 0.956 . S
H667 C654 0.961 . S
H668 C654 0.961 . S
H669 C655 0.958 . S
H670 C655 0.961 . S
H671 C655 0.960 . S
C672 C673 1.391 . S
C672 C674 1.394 . S
C672 H688 0.931 . S
C673 C672 1.391 . S
C673 C677 1.376 . S
C674 C672 1.394 . S
C674 C675 1.369 . S
C674 C678 1.531 . S
C675 C674 1.369 . S
C675 C676 1.410 . S
C675 C683 1.481 1_545 S
C676 C675 1.410 . S
C676 C677 1.392 . S
C676 C679 1.511 1_545 S
C677 C673 1.376 . S
C677 C676 1.392 . S
C677 H689 0.929 . S
C678 C674 1.531 . S
C678 H690 0.960 . S
C678 H691 0.962 . S
C678 H692 0.960 . S
C679 C676 1.511 1_565 S
C679 H693 0.961 . S
C679 H694 0.961 . S
C679 H695 0.961 . S
C680 C681 1.370 . S
C680 C682 1.363 . S
C680 H696 0.931 . S
C681 C680 1.370 . S
C681 C685 1.408 . S
C682 C680 1.363 . S
C682 C683 1.374 . S
C682 C686 1.524 1_565 S
C683 C675 1.481 1_565 S
C683 C682 1.374 . S
C683 C684 1.421 . S
C684 C683 1.421 . S
C684 C685 1.404 . S
C684 C687 1.539 . S
C685 C681 1.408 . S
C685 C684 1.404 . S
C685 H697 0.930 . S
C686 C682 1.524 1_545 S
C686 H698 0.956 . S
C686 H699 0.961 . S
C686 H700 0.961 . S
C687 C684 1.539 . S
C687 H701 0.958 . S
C687 H702 0.961 . S
C687 H703 0.960 . S
H688 C672 0.931 . S
H689 C677 0.929 . S
H690 C678 0.960 . S
H691 C678 0.962 . S
H692 C678 0.960 . S
H693 C679 0.961 . S
H694 C679 0.961 . S
H695 C679 0.961 . S
H696 C680 0.931 . S
H697 C685 0.930 . S
H698 C686 0.956 . S
H699 C686 0.961 . S
H700 C686 0.961 . S
H701 C687 0.958 . S
H702 C687 0.961 . S
H703 C687 0.960 . S
C704 C705 1.391 . S
C704 C706 1.394 . S
C704 H720 0.931 . S
C705 C704 1.391 . S
C705 C709 1.376 . S
C706 C704 1.394 . S
C706 C707 1.369 . S
C706 C710 1.531 . S
C707 C706 1.369 . S
C707 C708 1.410 . S
C707 C715 1.503 . S
C708 C707 1.410 . S
C708 C709 1.392 . S
C708 C711 1.511 . S
C709 C705 1.376 . S
C709 C708 1.392 . S
C709 H721 0.929 . S
C710 C706 1.531 . S
C710 H722 0.960 . S
C710 H723 0.962 . S
C710 H724 0.960 . S
C711 C708 1.511 . S
C711 H725 0.961 . S
C711 H726 0.961 . S
C711 H727 0.961 . S
C712 C713 1.370 . S
C712 C714 1.363 . S
C712 H728 0.931 . S
C713 C712 1.370 . S
C713 C717 1.408 . S
C714 C712 1.363 . S
C714 C715 1.370 . S
C714 C718 1.524 . S
C715 C707 1.503 . S
C715 C714 1.370 . S
C715 C716 1.403 . S
C716 C715 1.403 . S
C716 C717 1.404 . S
C716 C719 1.539 . S
C717 C713 1.408 . S
C717 C716 1.404 . S
C717 H729 0.930 . S
C718 C714 1.524 . S
C718 H730 0.956 . S
C718 H731 0.961 . S
C718 H732 0.961 . S
C719 C716 1.539 . S
C719 H733 0.958 . S
C719 H734 0.961 . S
C719 H735 0.960 . S
H720 C704 0.931 . S
H721 C709 0.929 . S
H722 C710 0.960 . S
H723 C710 0.962 . S
H724 C710 0.960 . S
H725 C711 0.961 . S
H726 C711 0.961 . S
H727 C711 0.961 . S
H728 C712 0.931 . S
H729 C717 0.930 . S
H730 C718 0.956 . S
H731 C718 0.961 . S
H732 C718 0.961 . S
H733 C719 0.958 . S
H734 C719 0.961 . S
H735 C719 0.960 . S
C736 C737 1.391 . S
C736 C738 1.394 . S
C736 H752 0.931 . S
C737 C736 1.391 . S
C737 C741 1.376 . S
C738 C736 1.394 . S
C738 C739 1.369 . S
C738 C742 1.531 . S
C739 C738 1.369 . S
C739 C740 1.410 . S
C739 C747 1.503 . S
C740 C739 1.410 . S
C740 C741 1.392 . S
C740 C743 1.509 . S
C741 C737 1.376 . S
C741 C740 1.392 . S
C741 H753 0.929 . S
C742 C738 1.531 . S
C742 H754 0.960 . S
C742 H755 0.962 . S
C742 H756 0.960 . S
C743 C740 1.509 . S
C743 H757 0.961 1_565 S
C743 H758 0.964 1_565 S
C743 H759 0.960 . S
C744 C745 1.370 . S
C744 C746 1.363 . S
C744 H760 0.931 . S
C745 C744 1.370 . S
C745 C749 1.408 . S
C746 C744 1.363 . S
C746 C747 1.370 1_545 S
C746 C750 1.524 . S
C747 C739 1.503 . S
C747 C746 1.370 1_565 S
C747 C748 1.403 . S
C748 C747 1.403 . S
C748 C749 1.404 1_565 S
C748 C751 1.539 . S
C749 C745 1.408 . S
C749 C748 1.404 1_545 S
C749 H761 0.930 1_556 S
C750 C746 1.524 . S
C750 H762 0.956 . S
C750 H763 0.961 . S
C750 H764 0.961 . S
C751 C748 1.539 . S
C751 H765 0.958 . S
C751 H766 0.961 . S
C751 H767 0.960 . S
H752 C736 0.931 . S
H753 C741 0.929 . S
H754 C742 0.960 . S
H755 C742 0.962 . S
H756 C742 0.960 . S
H757 C743 0.961 1_545 S
H758 C743 0.964 1_545 S
H759 C743 0.960 . S
H760 C744 0.931 . S
H761 C749 0.930 1_554 S
H762 C750 0.956 . S
H763 C750 0.961 . S
H764 C750 0.961 . S
H765 C751 0.958 . S
H766 C751 0.961 . S
H767 C751 0.960 . S
C768 C769 1.391 . S
C768 C770 1.394 . S
C768 H784 0.931 . S
C769 C768 1.391 . S
C769 C773 1.376 . S
C770 C768 1.394 . S
C770 C771 1.369 . S
C770 C774 1.531 . S
C771 C770 1.369 . S
C771 C772 1.410 . S
C771 C779 1.503 . S
C772 C771 1.410 . S
C772 C773 1.392 . S
C772 C775 1.511 . S
C773 C769 1.376 . S
C773 C772 1.392 . S
C773 H785 0.929 . S
C774 C770 1.531 . S
C774 H786 0.960 . S
C774 H787 0.962 . S
C774 H788 0.960 . S
C775 C772 1.511 . S
C775 H789 0.961 . S
C775 H790 0.961 . S
C775 H791 0.961 . S
C776 C777 1.370 . S
C776 C778 1.363 . S
C776 H792 0.931 . S
C777 C776 1.370 . S
C777 C781 1.408 . S
C778 C776 1.363 . S
C778 C779 1.370 . S
C778 C782 1.524 . S
C779 C771 1.503 . S
C779 C778 1.370 . S
C779 C780 1.403 . S
C780 C779 1.403 . S
C780 C781 1.404 . S
C780 C783 1.539 . S
C781 C777 1.408 . S
C781 C780 1.404 . S
C781 H793 0.930 . S
C782 C778 1.524 . S
C782 H794 0.956 . S
C782 H795 0.961 . S
C782 H796 0.961 . S
C783 C780 1.539 . S
C783 H797 0.958 . S
C783 H798 0.961 . S
C783 H799 0.960 . S
H784 C768 0.931 . S
H785 C773 0.929 . S
H786 C774 0.960 . S
H787 C774 0.962 . S
H788 C774 0.960 . S
H789 C775 0.961 . S
H790 C775 0.961 . S
H791 C775 0.961 . S
H792 C776 0.931 . S
H793 C781 0.930 . S
H794 C782 0.956 . S
H795 C782 0.961 . S
H796 C782 0.961 . S
H797 C783 0.958 . S
H798 C783 0.961 . S
H799 C783 0.960 . S
C800 C801 1.391 . S
C800 C802 1.394 1_565 S
C800 H816 0.931 . S
C801 C800 1.391 . S
C801 C805 1.376 . S
C802 C800 1.394 1_545 S
C802 C803 1.369 . S
C802 C806 1.531 . S
C803 C802 1.369 . S
C803 C804 1.410 1_545 S
C803 C811 1.503 . S
C804 C803 1.410 1_565 S
C804 C805 1.392 . S
C804 C807 1.511 . S
C805 C801 1.376 . S
C805 C804 1.392 . S
C805 H817 0.929 . S
C806 C802 1.531 . S
C806 H818 0.960 . S
C806 H819 0.962 . S
C806 H820 0.960 . S
C807 C804 1.511 . S
C807 H821 0.961 . S
C807 H822 0.961 . S
C807 H823 0.961 . S
C808 C809 1.370 . S
C808 C810 1.363 . S
C808 H824 0.931 . S
C809 C808 1.370 . S
C809 C813 1.408 . S
C810 C808 1.363 . S
C810 C811 1.370 . S
C810 C814 1.524 1_545 S
C811 C803 1.503 . S
C811 C810 1.370 . S
C811 C812 1.403 . S
C812 C811 1.403 . S
C812 C813 1.404 . S
C812 C815 1.539 . S
C813 C809 1.408 . S
C813 C812 1.404 . S
C813 H825 0.930 . S
C814 C810 1.524 1_565 S
C814 H826 0.956 . S
C814 H827 0.961 . S
C814 H828 0.961 . S
C815 C812 1.539 . S
C815 H829 0.958 . S
C815 H830 0.961 . S
C815 H831 0.960 . S
H816 C800 0.931 . S
H817 C805 0.929 . S
H818 C806 0.960 . S
H819 C806 0.962 . S
H820 C806 0.960 . S
H821 C807 0.961 . S
H822 C807 0.961 . S
H823 C807 0.961 . S
H824 C808 0.931 . S
H825 C813 0.930 . S
H826 C814 0.956 . S
H827 C814 0.961 . S
H828 C814 0.961 . S
H829 C815 0.958 . S
H830 C815 0.961 . S
H831 C815 0.960 . S
C832 C833 1.391 . S
C832 C834 1.394 . S
C832 H848 0.931 . S
C833 C832 1.391 . S
C833 C837 1.376 . S
C834 C832 1.394 . S
C834 C835 1.369 . S
C834 C838 1.531 . S
C835 C834 1.369 . S
C835 C836 1.410 . S
C835 C843 1.503 . S
C836 C835 1.410 . S
C836 C837 1.392 . S
C836 C839 1.511 . S
C837 C833 1.376 . S
C837 C836 1.392 . S
C837 H849 0.929 . S
C838 C834 1.531 . S
C838 H850 0.960 . S
C838 H851 0.962 . S
C838 H852 0.960 . S
C839 C836 1.511 . S
C839 H853 0.961 . S
C839 H854 0.961 . S
C839 H855 0.961 . S
C840 C841 1.370 . S
C840 C842 1.363 . S
C840 H856 0.931 . S
C841 C840 1.370 . S
C841 C845 1.408 . S
C842 C840 1.363 . S
C842 C843 1.370 . S
C842 C846 1.524 . S
C843 C835 1.503 . S
C843 C842 1.370 . S
C843 C844 1.403 . S
C844 C843 1.403 . S
C844 C845 1.404 . S
C844 C847 1.539 . S
C845 C841 1.408 . S
C845 C844 1.404 . S
C845 H857 0.930 . S
C846 C842 1.524 . S
C846 H858 0.956 . S
C846 H859 0.961 . S
C846 H860 0.961 . S
C847 C844 1.539 . S
C847 H861 0.958 . S
C847 H862 0.961 . S
C847 H863 0.960 . S
H848 C832 0.931 . S
H849 C837 0.929 . S
H850 C838 0.960 . S
H851 C838 0.962 . S
H852 C838 0.960 . S
H853 C839 0.961 . S
H854 C839 0.961 . S
H855 C839 0.961 . S
H856 C840 0.931 . S
H857 C845 0.930 . S
H858 C846 0.956 . S
H859 C846 0.961 . S
H860 C846 0.961 . S
H861 C847 0.958 . S
H862 C847 0.961 . S
H863 C847 0.960 . S
C864 C865 1.391 . S
C864 C866 1.394 . S
C864 H880 0.931 . S
C865 C864 1.391 . S
C865 C869 1.376 . S
C866 C864 1.394 . S
C866 C867 1.369 . S
C866 C870 1.531 . S
C867 C866 1.369 . S
C867 C868 1.410 . S
C867 C875 1.503 . S
C868 C867 1.410 . S
C868 C869 1.392 . S
C868 C871 1.511 1_565 S
C869 C865 1.376 . S
C869 C868 1.392 . S
C869 H881 0.929 . S
C870 C866 1.531 . S
C870 H882 0.960 . S
C870 H883 0.962 . S
C870 H884 0.960 . S
C871 C868 1.511 1_545 S
C871 H885 0.961 . S
C871 H886 0.961 . S
C871 H887 0.961 . S
C872 C873 1.370 . S
C872 C874 1.363 . S
C872 H888 0.931 . S
C873 C872 1.370 . S
C873 C877 1.408 . S
C874 C872 1.363 . S
C874 C875 1.370 1_545 S
C874 C878 1.524 . S
C875 C867 1.503 . S
C875 C874 1.370 1_565 S
C875 C876 1.403 1_565 S
C876 C875 1.403 1_545 S
C876 C877 1.404 . S
C876 C879 1.539 1_545 S
C877 C873 1.408 . S
C877 C876 1.404 . S
C877 H889 0.930 1_554 S
C878 C874 1.524 . S
C878 H890 0.956 1_545 S
C878 H891 0.961 . S
C878 H892 0.961 . S
C879 C876 1.539 1_565 S
C879 H893 0.958 . S
C879 H894 0.961 . S
C879 H895 0.960 . S
H880 C864 0.931 . S
H881 C869 0.929 . S
H882 C870 0.960 . S
H883 C870 0.962 . S
H884 C870 0.960 . S
H885 C871 0.961 . S
H886 C871 0.961 . S
H887 C871 0.961 . S
H888 C872 0.931 . S
H889 C877 0.930 1_556 S
H890 C878 0.956 1_565 S
H891 C878 0.961 . S
H892 C878 0.961 . S
H893 C879 0.958 . S
H894 C879 0.961 . S
H895 C879 0.960 . S
C896 C897 1.391 . S
C896 C898 1.394 . S
C896 H912 0.931 . S
C897 C896 1.391 . S
C897 C901 1.376 . S
C898 C896 1.394 . S
C898 C899 1.369 . S
C898 C902 1.531 . S
C899 C898 1.369 . S
C899 C900 1.410 . S
C899 C907 1.503 . S
C900 C899 1.410 . S
C900 C901 1.392 . S
C900 C903 1.511 . S
C901 C897 1.376 . S
C901 C900 1.392 . S
C901 H913 0.929 . S
C902 C898 1.531 . S
C902 H914 0.960 . S
C902 H915 0.962 . S
C902 H916 0.960 . S
C903 C900 1.511 . S
C903 H917 0.961 . S
C903 H918 0.961 . S
C903 H919 0.961 . S
C904 C905 1.370 . S
C904 C906 1.363 . S
C904 H920 0.931 . S
C905 C904 1.370 . S
C905 C909 1.408 . S
C906 C904 1.363 . S
C906 C907 1.370 . S
C906 C910 1.524 . S
C907 C899 1.503 . S
C907 C906 1.370 . S
C907 C908 1.403 . S
C908 C907 1.403 . S
C908 C909 1.404 . S
C908 C911 1.539 . S
C909 C905 1.408 . S
C909 C908 1.404 . S
C909 H921 0.930 . S
C910 C906 1.524 . S
C910 H922 0.956 . S
C910 H923 0.961 . S
C910 H924 0.961 . S
C911 C908 1.539 . S
C911 H925 0.958 . S
C911 H926 0.961 . S
C911 H927 0.960 . S
H912 C896 0.931 . S
H913 C901 0.929 . S
H914 C902 0.960 . S
H915 C902 0.962 . S
H916 C902 0.960 . S
H917 C903 0.961 . S
H918 C903 0.961 . S
H919 C903 0.961 . S
H920 C904 0.931 . S
H921 C909 0.930 . S
H922 C910 0.956 . S
H923 C910 0.961 . S
H924 C910 0.961 . S
H925 C911 0.958 . S
H926 C911 0.961 . S
H927 C911 0.960 . S
C928 C929 1.391 . S
C928 C930 1.394 . S
C928 H944 0.931 . S
C929 C928 1.391 . S
C929 C933 1.376 . S
C930 C928 1.394 . S
C930 C931 1.369 1_545 S
C930 C934 1.531 . S
C931 C930 1.369 1_565 S
C931 C932 1.410 . S
C931 C939 1.503 . S
C932 C931 1.410 . S
C932 C933 1.392 1_565 S
C932 C935 1.511 . S
C933 C929 1.376 . S
C933 C932 1.392 1_545 S
C933 H945 0.929 . S
C934 C930 1.531 . S
C934 H946 0.960 1_545 S
C934 H947 0.962 . S
C934 H948 0.960 . S
C935 C932 1.511 . S
C935 H949 0.961 . S
C935 H950 0.961 . S
C935 H951 0.961 . S
C936 C937 1.370 . S
C936 C938 1.363 . S
C936 H952 0.931 . S
C937 C936 1.370 . S
C937 C941 1.408 . S
C938 C936 1.363 . S
C938 C939 1.370 . S
C938 C942 1.524 1_565 S
C939 C931 1.503 . S
C939 C938 1.370 . S
C939 C940 1.403 . S
C940 C939 1.403 . S
C940 C941 1.404 . S
C940 C943 1.539 . S
C941 C937 1.408 . S
C941 C940 1.404 . S
C941 H953 0.930 . S
C942 C938 1.524 1_545 S
C942 H954 0.956 . S
C942 H955 0.961 . S
C942 H956 0.961 . S
C943 C940 1.539 . S
C943 H957 0.958 . S
C943 H958 0.961 . S
C943 H959 0.960 . S
H944 C928 0.931 . S
H945 C933 0.929 . S
H946 C934 0.960 1_565 S
H947 C934 0.962 . S
H948 C934 0.960 . S
H949 C935 0.961 . S
H950 C935 0.961 . S
H951 C935 0.961 . S
H952 C936 0.931 . S
H953 C941 0.930 . S
H954 C942 0.956 . S
H955 C942 0.961 . S
H956 C942 0.961 . S
H957 C943 0.958 . S
H958 C943 0.961 . S
H959 C943 0.960 . S
C960 C961 1.391 . S
C960 C962 1.394 . S
C960 H976 0.931 . S
C961 C960 1.391 . S
C961 C965 1.376 . S
C962 C960 1.394 . S
C962 C963 1.369 . S
C962 C966 1.531 . S
C963 C962 1.369 . S
C963 C964 1.410 . S
C963 C971 1.503 . S
C964 C963 1.410 . S
C964 C965 1.392 . S
C964 C967 1.511 . S
C965 C961 1.376 . S
C965 C964 1.392 . S
C965 H977 0.929 . S
C966 C962 1.531 . S
C966 H978 0.960 . S
C966 H979 0.962 . S
C966 H980 0.960 . S
C967 C964 1.511 . S
C967 H981 0.961 . S
C967 H982 0.961 . S
C967 H983 0.961 . S
C968 C969 1.370 . S
C968 C970 1.363 . S
C968 H984 0.931 . S
C969 C968 1.370 . S
C969 C973 1.408 . S
C970 C968 1.363 . S
C970 C971 1.370 . S
C970 C974 1.524 . S
C971 C963 1.503 . S
C971 C970 1.370 . S
C971 C972 1.403 . S
C972 C971 1.403 . S
C972 C973 1.404 . S
C972 C975 1.539 . S
C973 C969 1.408 . S
C973 C972 1.404 . S
C973 H985 0.930 . S
C974 C970 1.524 . S
C974 H986 0.956 . S
C974 H987 0.961 . S
C974 H988 0.961 . S
C975 C972 1.539 . S
C975 H989 0.958 . S
C975 H990 0.961 . S
C975 H991 0.960 . S
H976 C960 0.931 . S
H977 C965 0.929 . S
H978 C966 0.960 . S
H979 C966 0.962 . S
H980 C966 0.960 . S
H981 C967 0.961 . S
H982 C967 0.961 . S
H983 C967 0.961 . S
H984 C968 0.931 . S
H985 C973 0.930 . S
H986 C974 0.956 . S
H987 C974 0.961 . S
H988 C974 0.961 . S
H989 C975 0.958 . S
H990 C975 0.961 . S
H991 C975 0.960 . S
C992 C993 1.391 . S
C992 C994 1.394 1_565 S
C992 H1008 0.931 1_554 S
C993 C992 1.391 . S
C993 C997 1.376 . S
C994 C992 1.394 1_545 S
C994 C995 1.369 . S
C994 C998 1.531 . S
C995 C994 1.369 . S
C995 C996 1.410 1_545 S
C995 C1003 1.503 . S
C996 C995 1.410 1_565 S
C996 C997 1.392 . S
C996 C999 1.511 . S
C997 C993 1.376 . S
C997 C996 1.392 . S
C997 H1009 0.929 . S
C998 C994 1.531 . S
C998 H1010 0.960 . S
C998 H1011 0.962 . S
C998 H1012 1.001 . S
C999 C996 1.511 . S
C999 H1013 0.961 . S
C999 H1014 0.961 . S
C999 H1015 0.961 . S
C1000 C1001 1.370 . S
C1000 C1002 1.363 . S
C1000 H1016 0.931 . S
C1001 C1000 1.370 . S
C1001 C1005 1.408 . S
C1002 C1000 1.363 . S
C1002 C1003 1.370 . S
C1002 C1006 1.524 . S
C1003 C995 1.503 . S
C1003 C1002 1.370 . S
C1003 C1004 1.403 . S
C1004 C1003 1.403 . S
C1004 C1005 1.404 . S
C1004 C1007 1.539 . S
C1005 C1001 1.408 . S
C1005 C1004 1.404 . S
C1005 H1017 0.930 . S
C1006 C1002 1.524 . S
C1006 H1018 0.956 . S
C1006 H1019 0.961 1_545 S
C1006 H1020 0.961 . S
C1007 C1004 1.539 . S
C1007 H1021 0.958 . S
C1007 H1022 0.961 . S
C1007 H1023 0.960 . S
H1008 C992 0.931 1_556 S
H1009 C997 0.929 . S
H1010 C998 0.960 . S
H1011 C998 0.962 . S
H1012 C998 1.001 . S
H1013 C999 0.961 . S
H1014 C999 0.961 . S
H1015 C999 0.961 . S
H1016 C1000 0.931 . S
H1017 C1005 0.930 . S
H1018 C1006 0.956 . S
H1019 C1006 0.961 1_565 S
H1020 C1006 0.961 . S
H1021 C1007 0.958 . S
H1022 C1007 0.961 . S
H1023 C1007 0.960 . S
C1024 C1025 1.391 . S
C1024 C1026 1.394 . S
C1024 H1040 0.931 . S
C1025 C1024 1.391 . S
C1025 C1029 1.376 . S
C1026 C1024 1.394 . S
C1026 C1027 1.369 . S
C1026 C1030 1.531 . S
C1027 C1026 1.369 . S
C1027 C1028 1.410 . S
C1027 C1035 1.503 . S
C1028 C1027 1.410 . S
C1028 C1029 1.392 . S
C1028 C1031 1.511 . S
C1029 C1025 1.376 . S
C1029 C1028 1.392 . S
C1029 H1041 0.929 . S
C1030 C1026 1.531 . S
C1030 H1042 0.960 . S
C1030 H1043 0.962 . S
C1030 H1044 0.960 . S
C1031 C1028 1.511 . S
C1031 H1045 0.961 . S
C1031 H1046 0.961 . S
C1031 H1047 0.961 . S
C1032 C1033 1.370 . S
C1032 C1034 1.363 . S
C1032 H1048 0.931 . S
C1033 C1032 1.370 . S
C1033 C1037 1.408 . S
C1034 C1032 1.363 . S
C1034 C1035 1.370 . S
C1034 C1038 1.524 . S
C1035 C1027 1.503 . S
C1035 C1034 1.370 . S
C1035 C1036 1.403 . S
C1036 C1035 1.403 . S
C1036 C1037 1.404 . S
C1036 C1039 1.539 . S
C1037 C1033 1.408 . S
C1037 C1036 1.404 . S
C1037 H1049 0.930 . S
C1038 C1034 1.524 . S
C1038 H1050 0.956 . S
C1038 H1051 0.961 . S
C1038 H1052 0.961 . S
C1039 C1036 1.539 . S
C1039 H1053 0.958 . S
C1039 H1054 0.961 . S
C1039 H1055 0.960 . S
H1040 C1024 0.931 . S
H1041 C1029 0.929 . S
H1042 C1030 0.960 . S
H1043 C1030 0.962 . S
H1044 C1030 0.960 . S
H1045 C1031 0.961 . S
H1046 C1031 0.961 . S
H1047 C1031 0.961 . S
H1048 C1032 0.931 . S
H1049 C1037 0.930 . S
H1050 C1038 0.956 . S
H1051 C1038 0.961 . S
H1052 C1038 0.961 . S
H1053 C1039 0.958 . S
H1054 C1039 0.961 . S
H1055 C1039 0.960 . S
C1056 C1057 1.391 . S
C1056 C1058 1.394 . S
C1056 H1072 0.931 . S
C1057 C1056 1.391 . S
C1057 C1061 1.376 . S
C1058 C1056 1.394 . S
C1058 C1059 1.369 . S
C1058 C1062 1.531 . S
C1059 C1058 1.369 . S
C1059 C1060 1.410 . S
C1059 C1067 1.503 1_545 S
C1060 C1059 1.410 . S
C1060 C1061 1.392 . S
C1060 C1063 1.511 1_545 S
C1061 C1057 1.376 . S
C1061 C1060 1.392 . S
C1061 H1073 0.929 . S
C1062 C1058 1.531 . S
C1062 H1074 0.960 . S
C1062 H1075 0.962 . S
C1062 H1076 0.960 . S
C1063 C1060 1.511 1_565 S
C1063 H1077 0.961 . S
C1063 H1078 0.961 . S
C1063 H1079 0.961 . S
C1064 C1065 1.370 . S
C1064 C1066 1.363 . S
C1064 H1080 0.931 . S
C1065 C1064 1.370 . S
C1065 C1069 1.408 . S
C1066 C1064 1.363 . S
C1066 C1067 1.370 . S
C1066 C1070 1.524 . S
C1067 C1059 1.503 1_565 S
C1067 C1066 1.370 . S
C1067 C1068 1.403 . S
C1068 C1067 1.403 . S
C1068 C1069 1.404 . S
C1068 C1071 1.539 1_565 S
C1069 C1065 1.408 . S
C1069 C1068 1.404 . S
C1069 H1081 0.930 . S
C1070 C1066 1.524 . S
C1070 H1082 0.956 . S
C1070 H1083 0.961 . S
C1070 H1084 0.961 . S
C1071 C1068 1.539 1_545 S
C1071 H1085 0.958 . S
C1071 H1086 0.955 1_545 S
C1071 H1087 0.960 . S
H1072 C1056 0.931 . S
H1073 C1061 0.929 . S
H1074 C1062 0.960 . S
H1075 C1062 0.962 . S
H1076 C1062 0.960 . S
H1077 C1063 0.961 . S
H1078 C1063 0.961 . S
H1079 C1063 0.961 . S
H1080 C1064 0.931 . S
H1081 C1069 0.930 . S
H1082 C1070 0.956 . S
H1083 C1070 0.961 . S
H1084 C1070 0.961 . S
H1085 C1071 0.958 . S
H1086 C1071 0.955 1_565 S
H1087 C1071 0.960 . S
C1088 C1089 1.391 . S
C1088 C1090 1.394 . S
C1088 H1104 0.931 . S
C1089 C1088 1.391 . S
C1089 C1093 1.376 . S
C1090 C1088 1.394 . S
C1090 C1091 1.369 . S
C1090 C1094 1.531 . S
C1091 C1090 1.369 . S
C1091 C1092 1.410 . S
C1091 C1099 1.503 . S
C1092 C1091 1.410 . S
C1092 C1093 1.392 . S
C1092 C1095 1.511 . S
C1093 C1089 1.376 . S
C1093 C1092 1.392 . S
C1093 H1105 0.929 . S
C1094 C1090 1.531 . S
C1094 H1106 0.960 . S
C1094 H1107 0.962 . S
C1094 H1108 0.960 . S
C1095 C1092 1.511 . S
C1095 H1109 0.961 . S
C1095 H1110 0.961 . S
C1095 H1111 0.961 . S
C1096 C1097 1.370 . S
C1096 C1098 1.363 . S
C1096 H1112 0.931 . S
C1097 C1096 1.370 . S
C1097 C1101 1.408 . S
C1098 C1096 1.363 . S
C1098 C1099 1.370 . S
C1098 C1102 1.524 . S
C1099 C1091 1.503 . S
C1099 C1098 1.370 . S
C1099 C1100 1.403 . S
C1100 C1099 1.403 . S
C1100 C1101 1.404 . S
C1100 C1103 1.539 . S
C1101 C1097 1.408 . S
C1101 C1100 1.404 . S
C1101 H1113 0.930 . S
C1102 C1098 1.524 . S
C1102 H1114 0.956 . S
C1102 H1115 0.961 . S
C1102 H1116 0.961 . S
C1103 C1100 1.539 . S
C1103 H1117 0.958 . S
C1103 H1118 0.961 . S
C1103 H1119 0.960 . S
H1104 C1088 0.931 . S
H1105 C1093 0.929 . S
H1106 C1094 0.960 . S
H1107 C1094 0.962 . S
H1108 C1094 0.960 . S
H1109 C1095 0.961 . S
H1110 C1095 0.961 . S
H1111 C1095 0.961 . S
H1112 C1096 0.931 . S
H1113 C1101 0.930 . S
H1114 C1102 0.956 . S
H1115 C1102 0.961 . S
H1116 C1102 0.961 . S
H1117 C1103 0.958 . S
H1118 C1103 0.961 . S
H1119 C1103 0.960 . S
C1120 C1121 1.391 . S
C1120 C1122 1.394 . S
C1120 H1136 0.931 . S
C1121 C1120 1.391 . S
C1121 C1125 1.376 . S
C1122 C1120 1.394 . S
C1122 C1123 1.369 . S
C1122 C1126 1.531 . S
C1123 C1122 1.369 . S
C1123 C1124 1.410 . S
C1123 C1131 1.503 . S
C1124 C1123 1.410 . S
C1124 C1125 1.392 . S
C1124 C1127 1.511 . S
C1125 C1121 1.376 . S
C1125 C1124 1.392 . S
C1125 H1137 0.929 . S
C1126 C1122 1.531 . S
C1126 H1138 0.960 1_545 S
C1126 H1139 0.962 1_545 S
C1126 H1140 0.960 . S
C1127 C1124 1.511 . S
C1127 H1141 0.961 . S
C1127 H1142 0.961 . S
C1127 H1143 0.961 . S
C1128 C1129 1.370 . S
C1128 C1130 1.363 . S
C1128 H1144 0.931 . S
C1129 C1128 1.370 . S
C1129 C1133 1.408 . S
C1130 C1128 1.363 . S
C1130 C1131 1.370 1_565 S
C1130 C1134 1.524 . S
C1131 C1123 1.503 . S
C1131 C1130 1.370 1_545 S
C1131 C1132 1.403 . S
C1132 C1131 1.403 . S
C1132 C1133 1.404 1_545 S
C1132 C1135 1.539 . S
C1133 C1129 1.408 . S
C1133 C1132 1.404 1_565 S
C1133 H1145 0.930 1_556 S
C1134 C1130 1.524 . S
C1134 H1146 0.956 . S
C1134 H1147 0.961 . S
C1134 H1148 0.961 . S
C1135 C1132 1.539 . S
C1135 H1149 0.958 . S
C1135 H1150 0.961 1_556 S
C1135 H1151 0.960 . S
H1136 C1120 0.931 . S
H1137 C1125 0.929 . S
H1138 C1126 0.960 1_565 S
H1139 C1126 0.962 1_565 S
H1140 C1126 0.960 . S
H1141 C1127 0.961 . S
H1142 C1127 0.961 . S
H1143 C1127 0.961 . S
H1144 C1128 0.931 . S
H1145 C1133 0.930 1_554 S
H1146 C1134 0.956 . S
H1147 C1134 0.961 . S
H1148 C1134 0.961 . S
H1149 C1135 0.958 . S
H1150 C1135 0.961 1_554 S
H1151 C1135 0.960 . S
C1152 C1153 1.391 . S
C1152 C1154 1.394 . S
C1152 H1168 0.931 . S
C1153 C1152 1.391 . S
C1153 C1157 1.376 . S
C1154 C1152 1.394 . S
C1154 C1155 1.369 . S
C1154 C1158 1.531 . S
C1155 C1154 1.369 . S
C1155 C1156 1.410 . S
C1155 C1163 1.503 . S
C1156 C1155 1.410 . S
C1156 C1157 1.392 . S
C1156 C1159 1.511 . S
C1157 C1153 1.376 . S
C1157 C1156 1.392 . S
C1157 H1169 0.929 . S
C1158 C1154 1.531 . S
C1158 H1170 0.960 . S
C1158 H1171 0.962 . S
C1158 H1172 0.960 . S
C1159 C1156 1.511 . S
C1159 H1173 0.961 . S
C1159 H1174 0.961 . S
C1159 H1175 0.961 . S
C1160 C1161 1.370 . S
C1160 C1162 1.363 . S
C1160 H1176 0.931 . S
C1161 C1160 1.370 . S
C1161 C1165 1.408 . S
C1162 C1160 1.363 . S
C1162 C1163 1.370 . S
C1162 C1166 1.524 . S
C1163 C1155 1.503 . S
C1163 C1162 1.370 . S
C1163 C1164 1.403 . S
C1164 C1163 1.403 . S
C1164 C1165 1.404 . S
C1164 C1167 1.539 . S
C1165 C1161 1.408 . S
C1165 C1164 1.404 . S
C1165 H1177 0.930 . S
C1166 C1162 1.524 . S
C1166 H1178 0.956 . S
C1166 H1179 0.961 . S
C1166 H1180 0.961 . S
C1167 C1164 1.539 . S
C1167 H1181 0.958 . S
C1167 H1182 0.961 . S
C1167 H1183 0.960 . S
H1168 C1152 0.931 . S
H1169 C1157 0.929 . S
H1170 C1158 0.960 . S
H1171 C1158 0.962 . S
H1172 C1158 0.960 . S
H1173 C1159 0.961 . S
H1174 C1159 0.961 . S
H1175 C1159 0.961 . S
H1176 C1160 0.931 . S
H1177 C1165 0.930 . S
H1178 C1166 0.956 . S
H1179 C1166 0.961 . S
H1180 C1166 0.961 . S
H1181 C1167 0.958 . S
H1182 C1167 0.961 . S
H1183 C1167 0.960 . S
C1184 C1185 1.391 . S
C1184 C1186 1.394 . S
C1184 H1200 0.931 . S
C1185 C1184 1.391 . S
C1185 C1189 1.376 . S
C1186 C1184 1.394 . S
C1186 C1187 1.369 . S
C1186 C1190 1.531 . S
C1187 C1186 1.369 . S
C1187 C1188 1.410 . S
C1187 C1195 1.503 . S
C1188 C1187 1.410 . S
C1188 C1189 1.392 . S
C1188 C1191 1.511 . S
C1189 C1185 1.376 . S
C1189 C1188 1.392 . S
C1189 H1201 0.929 . S
C1190 C1186 1.531 . S
C1190 H1202 0.960 . S
C1190 H1203 0.962 . S
C1190 H1204 0.960 . S
C1191 C1188 1.511 . S
C1191 H1205 0.961 . S
C1191 H1206 0.961 . S
C1191 H1207 0.961 . S
C1192 C1193 1.370 . S
C1192 C1194 1.363 . S
C1192 H1208 0.960 . S
C1193 C1192 1.370 . S
C1193 C1197 1.408 . S
C1194 C1192 1.363 . S
C1194 C1195 1.370 . S
C1194 C1198 1.524 . S
C1195 C1187 1.503 . S
C1195 C1194 1.370 . S
C1195 C1196 1.403 . S
C1196 C1195 1.403 . S
C1196 C1197 1.404 . S
C1196 C1199 1.539 . S
C1197 C1193 1.408 . S
C1197 C1196 1.404 . S
C1197 H1209 0.930 . S
C1198 C1194 1.524 . S
C1198 H1210 0.956 . S
C1198 H1211 0.961 . S
C1198 H1212 0.961 . S
C1199 C1196 1.539 . S
C1199 H1213 0.958 . S
C1199 H1214 0.961 . S
C1199 H1215 0.960 . S
H1200 C1184 0.931 . S
H1201 C1189 0.929 . S
H1202 C1190 0.960 . S
H1203 C1190 0.962 . S
H1204 C1190 0.960 . S
H1205 C1191 0.961 . S
H1206 C1191 0.961 . S
H1207 C1191 0.961 . S
H1208 C1192 0.960 . S
H1209 C1197 0.930 . S
H1210 C1198 0.956 . S
H1211 C1198 0.961 . S
H1212 C1198 0.961 . S
H1213 C1199 0.958 . S
H1214 C1199 0.961 . S
H1215 C1199 0.960 . S
C1216 C1217 1.391 . S
C1216 C1218 1.394 . S
C1216 H1232 0.931 . S
C1217 C1216 1.391 . S
C1217 C1221 1.376 . S
C1218 C1216 1.394 . S
C1218 C1219 1.369 . S
C1218 C1222 1.531 . S
C1219 C1218 1.369 . S
C1219 C1220 1.410 . S
C1219 C1227 1.503 . S
C1220 C1219 1.410 . S
C1220 C1221 1.392 . S
C1220 C1223 1.511 . S
C1221 C1217 1.376 . S
C1221 C1220 1.392 . S
C1221 H1233 0.929 . S
C1222 C1218 1.531 . S
C1222 H1234 0.960 . S
C1222 H1235 0.962 . S
C1222 H1236 0.960 . S
C1223 C1220 1.511 . S
C1223 H1237 0.961 . S
C1223 H1238 0.961 . S
C1223 H1239 0.961 . S
C1224 C1225 1.370 . S
C1224 C1226 1.363 . S
C1224 H1240 0.931 . S
C1225 C1224 1.370 . S
C1225 C1229 1.408 . S
C1226 C1224 1.363 . S
C1226 C1227 1.370 . S
C1226 C1230 1.524 . S
C1227 C1219 1.503 . S
C1227 C1226 1.370 . S
C1227 C1228 1.403 . S
C1228 C1227 1.403 . S
C1228 C1229 1.404 . S
C1228 C1231 1.539 . S
C1229 C1225 1.408 . S
C1229 C1228 1.404 . S
C1229 H1241 0.930 . S
C1230 C1226 1.524 . S
C1230 H1242 0.956 . S
C1230 H1243 0.961 . S
C1230 H1244 0.961 . S
C1231 C1228 1.539 . S
C1231 H1245 0.958 . S
C1231 H1246 0.961 . S
C1231 H1247 0.960 . S
H1232 C1216 0.931 . S
H1233 C1221 0.929 . S
H1234 C1222 0.960 . S
H1235 C1222 0.962 . S
H1236 C1222 0.960 . S
H1237 C1223 0.961 . S
H1238 C1223 0.961 . S
H1239 C1223 0.961 . S
H1240 C1224 0.931 . S
H1241 C1229 0.930 . S
H1242 C1230 0.956 . S
H1243 C1230 0.961 . S
H1244 C1230 0.961 . S
H1245 C1231 0.958 . S
H1246 C1231 0.961 . S
H1247 C1231 0.960 . S
C1248 C1249 1.391 . S
C1248 C1250 1.394 . S
C1248 H1264 0.931 . S
C1249 C1248 1.391 . S
C1249 C1253 1.376 . S
C1250 C1248 1.394 . S
C1250 C1251 1.369 . S
C1250 C1254 1.531 . S
C1251 C1250 1.369 . S
C1251 C1252 1.410 . S
C1251 C1259 1.503 . S
C1252 C1251 1.410 . S
C1252 C1253 1.392 . S
C1252 C1255 1.511 . S
C1253 C1249 1.376 . S
C1253 C1252 1.392 . S
C1253 H1265 0.929 . S
C1254 C1250 1.531 . S
C1254 H1266 0.960 . S
C1254 H1267 0.962 . S
C1254 H1268 0.960 . S
C1255 C1252 1.511 . S
C1255 H1269 0.961 . S
C1255 H1270 0.961 . S
C1255 H1271 0.961 . S
C1256 C1257 1.370 . S
C1256 C1258 1.363 . S
C1256 H1272 0.931 . S
C1257 C1256 1.370 . S
C1257 C1261 1.408 . S
C1258 C1256 1.363 . S
C1258 C1259 1.370 . S
C1258 C1262 1.524 . S
C1259 C1251 1.503 . S
C1259 C1258 1.370 . S
C1259 C1260 1.403 . S
C1260 C1259 1.403 . S
C1260 C1261 1.404 . S
C1260 C1263 1.539 . S
C1261 C1257 1.408 . S
C1261 C1260 1.404 . S
C1261 H1273 0.930 . S
C1262 C1258 1.524 . S
C1262 H1274 0.956 . S
C1262 H1275 0.961 . S
C1262 H1276 0.961 . S
C1263 C1260 1.539 . S
C1263 H1277 0.958 . S
C1263 H1278 0.961 . S
C1263 H1279 0.960 . S
H1264 C1248 0.931 . S
H1265 C1253 0.929 . S
H1266 C1254 0.960 . S
H1267 C1254 0.962 . S
H1268 C1254 0.960 . S
H1269 C1255 0.961 . S
H1270 C1255 0.961 . S
H1271 C1255 0.961 . S
H1272 C1256 0.931 . S
H1273 C1261 0.930 . S
H1274 C1262 0.956 . S
H1275 C1262 0.961 . S
H1276 C1262 0.961 . S
H1277 C1263 0.958 . S
H1278 C1263 0.961 . S
H1279 C1263 0.960 . S
C1280 C1281 1.391 . S
C1280 C1282 1.394 . S
C1280 H1296 0.931 . S
C1281 C1280 1.391 . S
C1281 C1285 1.376 . S
C1282 C1280 1.394 . S
C1282 C1283 1.369 . S
C1282 C1286 1.531 . S
C1283 C1282 1.369 . S
C1283 C1284 1.410 . S
C1283 C1291 1.503 . S
C1284 C1283 1.410 . S
C1284 C1285 1.392 . S
C1284 C1287 1.511 . S
C1285 C1281 1.376 . S
C1285 C1284 1.392 . S
C1285 H1297 0.929 . S
C1286 C1282 1.531 . S
C1286 H1298 0.960 . S
C1286 H1299 0.962 . S
C1286 H1300 0.960 . S
C1287 C1284 1.511 . S
C1287 H1301 0.961 . S
C1287 H1302 0.961 . S
C1287 H1303 0.961 . S
C1288 C1289 1.370 . S
C1288 C1290 1.363 . S
C1288 H1304 0.931 . S
C1289 C1288 1.370 . S
C1289 C1293 1.408 . S
C1290 C1288 1.363 . S
C1290 C1291 1.370 . S
C1290 C1294 1.524 . S
C1291 C1283 1.503 . S
C1291 C1290 1.370 . S
C1291 C1292 1.403 . S
C1292 C1291 1.403 . S
C1292 C1293 1.404 . S
C1292 C1295 1.539 . S
C1293 C1289 1.408 . S
C1293 C1292 1.404 . S
C1293 H1305 0.930 . S
C1294 C1290 1.524 . S
C1294 H1306 0.956 . S
C1294 H1307 0.961 . S
C1294 H1308 0.961 . S
C1295 C1292 1.539 . S
C1295 H1309 0.958 . S
C1295 H1310 0.961 . S
C1295 H1311 0.960 . S
H1296 C1280 0.931 . S
H1297 C1285 0.929 . S
H1298 C1286 0.960 . S
H1299 C1286 0.962 . S
H1300 C1286 0.960 . S
H1301 C1287 0.961 . S
H1302 C1287 0.961 . S
H1303 C1287 0.961 . S
H1304 C1288 0.931 . S
H1305 C1293 0.930 . S
H1306 C1294 0.956 . S
H1307 C1294 0.961 . S
H1308 C1294 0.961 . S
H1309 C1295 0.958 . S
H1310 C1295 0.961 . S
H1311 C1295 0.960 . S
C1312 C1313 1.391 . S
C1312 C1314 1.394 . S
C1312 H1328 0.931 . S
C1313 C1312 1.391 . S
C1313 C1317 1.376 . S
C1314 C1312 1.394 . S
C1314 C1315 1.369 . S
C1314 C1318 1.531 . S
C1315 C1314 1.369 . S
C1315 C1316 1.410 . S
C1315 C1323 1.503 . S
C1316 C1315 1.410 . S
C1316 C1317 1.392 . S
C1316 C1319 1.511 . S
C1317 C1313 1.376 . S
C1317 C1316 1.392 . S
C1317 H1329 0.929 . S
C1318 C1314 1.531 . S
C1318 H1330 0.960 . S
C1318 H1331 0.962 . S
C1318 H1332 0.960 . S
C1319 C1316 1.511 . S
C1319 H1333 0.961 . S
C1319 H1334 0.961 . S
C1319 H1335 0.961 . S
C1320 C1321 1.370 . S
C1320 C1322 1.363 . S
C1320 H1336 0.931 . S
C1321 C1320 1.370 . S
C1321 C1325 1.408 . S
C1322 C1320 1.363 . S
C1322 C1323 1.370 . S
C1322 C1326 1.524 . S
C1323 C1315 1.503 . S
C1323 C1322 1.370 . S
C1323 C1324 1.403 . S
C1324 C1323 1.403 . S
C1324 C1325 1.404 . S
C1324 C1327 1.539 . S
C1325 C1321 1.408 . S
C1325 C1324 1.404 . S
C1325 H1337 0.930 1_554 S
C1326 C1322 1.524 . S
C1326 H1338 0.956 . S
C1326 H1339 0.961 . S
C1326 H1340 0.961 . S
C1327 C1324 1.539 . S
C1327 H1341 0.958 . S
C1327 H1342 0.961 1_554 S
C1327 H1343 0.960 . S
H1328 C1312 0.931 . S
H1329 C1317 0.929 . S
H1330 C1318 0.960 . S
H1331 C1318 0.962 . S
H1332 C1318 0.960 . S
H1333 C1319 0.961 . S
H1334 C1319 0.961 . S
H1335 C1319 0.961 . S
H1336 C1320 0.931 . S
H1337 C1325 0.930 1_556 S
H1338 C1326 0.956 . S
H1339 C1326 0.961 . S
H1340 C1326 0.961 . S
H1341 C1327 0.958 . S
H1342 C1327 0.961 1_556 S
H1343 C1327 0.960 . S
C1344 C1345 1.391 . S
C1344 C1346 1.394 . S
C1344 H1360 0.931 . S
C1345 C1344 1.391 . S
C1345 C1349 1.376 . S
C1346 C1344 1.394 . S
C1346 C1347 1.369 . S
C1346 C1350 1.531 . S
C1347 C1346 1.369 . S
C1347 C1348 1.410 . S
C1347 C1355 1.503 . S
C1348 C1347 1.410 . S
C1348 C1349 1.392 . S
C1348 C1351 1.511 . S
C1349 C1345 1.376 . S
C1349 C1348 1.392 . S
C1349 H1361 0.929 . S
C1350 C1346 1.531 . S
C1350 H1362 0.960 . S
C1350 H1363 0.962 . S
C1350 H1364 0.960 . S
C1351 C1348 1.511 . S
C1351 H1365 0.961 . S
C1351 H1366 0.961 . S
C1351 H1367 0.961 . S
C1352 C1353 1.370 . S
C1352 C1354 1.363 . S
C1352 H1368 0.931 . S
C1353 C1352 1.370 . S
C1353 C1357 1.408 . S
C1354 C1352 1.363 . S
C1354 C1355 1.370 . S
C1354 C1358 1.524 . S
C1355 C1347 1.503 . S
C1355 C1354 1.370 . S
C1355 C1356 1.403 . S
C1356 C1355 1.403 . S
C1356 C1357 1.404 . S
C1356 C1359 1.539 . S
C1357 C1353 1.408 . S
C1357 C1356 1.404 . S
C1357 H1369 0.930 . S
C1358 C1354 1.524 . S
C1358 H1370 0.956 . S
C1358 H1371 0.961 . S
C1358 H1372 0.961 . S
C1359 C1356 1.539 . S
C1359 H1373 0.958 . S
C1359 H1374 0.961 . S
C1359 H1375 0.960 . S
H1360 C1344 0.931 . S
H1361 C1349 0.929 . S
H1362 C1350 0.960 . S
H1363 C1350 0.962 . S
H1364 C1350 0.960 . S
H1365 C1351 0.961 . S
H1366 C1351 0.961 . S
H1367 C1351 0.961 . S
H1368 C1352 0.931 . S
H1369 C1357 0.930 . S
H1370 C1358 0.956 . S
H1371 C1358 0.961 . S
H1372 C1358 0.961 . S
H1373 C1359 0.958 . S
H1374 C1359 0.961 . S
H1375 C1359 0.960 . S
C1376 C1377 1.391 . S
C1376 C1378 1.394 . S
C1376 H1392 0.931 . S
C1377 C1376 1.391 . S
C1377 C1381 1.376 . S
C1378 C1376 1.394 . S
C1378 C1379 1.369 . S
C1378 C1382 1.531 . S
C1379 C1378 1.369 . S
C1379 C1380 1.410 . S
C1379 C1387 1.503 . S
C1380 C1379 1.410 . S
C1380 C1381 1.392 . S
C1380 C1383 1.511 . S
C1381 C1377 1.376 . S
C1381 C1380 1.392 . S
C1381 H1393 0.929 . S
C1382 C1378 1.531 . S
C1382 H1394 0.960 . S
C1382 H1395 0.962 . S
C1382 H1396 0.960 . S
C1383 C1380 1.511 . S
C1383 H1397 0.961 . S
C1383 H1398 0.961 . S
C1383 H1399 0.961 . S
C1384 C1385 1.370 . S
C1384 C1386 1.363 . S
C1384 H1400 0.931 . S
C1385 C1384 1.370 . S
C1385 C1389 1.408 . S
C1386 C1384 1.363 . S
C1386 C1387 1.370 . S
C1386 C1390 1.524 . S
C1387 C1379 1.503 . S
C1387 C1386 1.370 . S
C1387 C1388 1.403 . S
C1388 C1387 1.403 . S
C1388 C1389 1.404 . S
C1388 C1391 1.539 . S
C1389 C1385 1.408 . S
C1389 C1388 1.404 . S
C1389 H1401 0.930 . S
C1390 C1386 1.524 . S
C1390 H1402 0.956 . S
C1390 H1403 0.961 . S
C1390 H1404 0.961 . S
C1391 C1388 1.539 . S
C1391 H1405 0.958 . S
C1391 H1406 0.961 . S
C1391 H1407 0.960 . S
H1392 C1376 0.931 . S
H1393 C1381 0.929 . S
H1394 C1382 0.960 . S
H1395 C1382 0.962 . S
H1396 C1382 0.960 . S
H1397 C1383 0.961 . S
H1398 C1383 0.961 . S
H1399 C1383 0.961 . S
H1400 C1384 0.931 . S
H1401 C1389 0.930 . S
H1402 C1390 0.956 . S
H1403 C1390 0.961 . S
H1404 C1390 0.961 . S
H1405 C1391 0.958 . S
H1406 C1391 0.961 . S
H1407 C1391 0.960 . S
C1408 C1409 1.391 . S
C1408 C1410 1.394 . S
C1408 H1424 0.931 . S
C1409 C1408 1.391 . S
C1409 C1413 1.376 . S
C1410 C1408 1.394 . S
C1410 C1411 1.369 . S
C1410 C1414 1.531 . S
C1411 C1410 1.369 . S
C1411 C1412 1.410 . S
C1411 C1419 1.503 . S
C1412 C1411 1.410 . S
C1412 C1413 1.392 . S
C1412 C1415 1.511 . S
C1413 C1409 1.376 . S
C1413 C1412 1.392 . S
C1413 H1425 0.929 . S
C1414 C1410 1.531 . S
C1414 H1426 0.960 . S
C1414 H1427 0.962 . S
C1414 H1428 0.960 . S
C1415 C1412 1.511 . S
C1415 H1429 0.961 . S
C1415 H1430 0.961 . S
C1415 H1431 0.961 . S
C1416 C1417 1.370 . S
C1416 C1418 1.363 . S
C1416 H1432 0.931 . S
C1417 C1416 1.370 . S
C1417 C1421 1.408 . S
C1418 C1416 1.363 . S
C1418 C1419 1.370 . S
C1418 C1422 1.524 . S
C1419 C1411 1.503 . S
C1419 C1418 1.370 . S
C1419 C1420 1.403 . S
C1420 C1419 1.403 . S
C1420 C1421 1.404 . S
C1420 C1423 1.539 . S
C1421 C1417 1.408 . S
C1421 C1420 1.404 . S
C1421 H1433 0.930 . S
C1422 C1418 1.524 . S
C1422 H1434 0.956 . S
C1422 H1435 0.961 . S
C1422 H1436 0.961 . S
C1423 C1420 1.539 . S
C1423 H1437 0.958 . S
C1423 H1438 0.961 . S
C1423 H1439 0.960 . S
H1424 C1408 0.931 . S
H1425 C1413 0.929 . S
H1426 C1414 0.960 . S
H1427 C1414 0.962 . S
H1428 C1414 0.960 . S
H1429 C1415 0.961 . S
H1430 C1415 0.961 . S
H1431 C1415 0.961 . S
H1432 C1416 0.931 . S
H1433 C1421 0.930 . S
H1434 C1422 0.956 . S
H1435 C1422 0.961 . S
H1436 C1422 0.961 . S
H1437 C1423 0.958 . S
H1438 C1423 0.961 . S
H1439 C1423 0.960 . S
C1440 C1441 1.391 . S
C1440 C1442 1.394 . S
C1440 H1456 0.931 . S
C1441 C1440 1.391 . S
C1441 C1445 1.376 . S
C1442 C1440 1.394 . S
C1442 C1443 1.369 . S
C1442 C1446 1.531 . S
C1443 C1442 1.369 . S
C1443 C1444 1.410 . S
C1443 C1451 1.503 . S
C1444 C1443 1.410 . S
C1444 C1445 1.392 . S
C1444 C1447 1.511 . S
C1445 C1441 1.376 . S
C1445 C1444 1.392 . S
C1445 H1457 0.929 . S
C1446 C1442 1.531 . S
C1446 H1458 0.960 . S
C1446 H1459 0.962 . S
C1446 H1460 0.960 . S
C1447 C1444 1.511 . S
C1447 H1461 0.961 . S
C1447 H1462 0.961 . S
C1447 H1463 0.961 . S
C1448 C1449 1.370 . S
C1448 C1450 1.363 . S
C1448 H1464 0.931 . S
C1449 C1448 1.370 . S
C1449 C1453 1.408 . S
C1450 C1448 1.363 . S
C1450 C1451 1.370 . S
C1450 C1454 1.524 . S
C1451 C1443 1.503 . S
C1451 C1450 1.370 . S
C1451 C1452 1.403 . S
C1452 C1451 1.403 . S
C1452 C1453 1.404 . S
C1452 C1455 1.539 . S
C1453 C1449 1.408 . S
C1453 C1452 1.404 . S
C1453 H1465 0.930 1_554 S
C1454 C1450 1.524 . S
C1454 H1466 0.956 . S
C1454 H1467 0.961 . S
C1454 H1468 0.961 . S
C1455 C1452 1.539 . S
C1455 H1469 0.958 . S
C1455 H1470 0.961 . S
C1455 H1471 0.960 . S
H1456 C1440 0.931 . S
H1457 C1445 0.929 . S
H1458 C1446 0.960 . S
H1459 C1446 0.962 . S
H1460 C1446 0.960 . S
H1461 C1447 0.961 . S
H1462 C1447 0.961 . S
H1463 C1447 0.961 . S
H1464 C1448 0.931 . S
H1465 C1453 0.930 1_556 S
H1466 C1454 0.956 . S
H1467 C1454 0.961 . S
H1468 C1454 0.961 . S
H1469 C1455 0.958 . S
H1470 C1455 0.961 . S
H1471 C1455 0.960 . S
C1472 C1473 1.391 . S
C1472 C1474 1.394 . S
C1472 H1488 0.931 . S
C1473 C1472 1.391 . S
C1473 C1477 1.376 . S
C1474 C1472 1.394 . S
C1474 C1475 1.369 . S
C1474 C1478 1.531 . S
C1475 C1474 1.369 . S
C1475 C1476 1.410 . S
C1475 C1483 1.503 . S
C1476 C1475 1.410 . S
C1476 C1477 1.392 . S
C1476 C1479 1.511 . S
C1477 C1473 1.376 . S
C1477 C1476 1.392 . S
C1477 H1489 0.929 . S
C1478 C1474 1.531 . S
C1478 H1490 0.960 . S
C1478 H1491 0.962 . S
C1478 H1492 0.960 . S
C1479 C1476 1.511 . S
C1479 H1493 0.961 . S
C1479 H1494 0.961 . S
C1479 H1495 0.961 . S
C1480 C1481 1.370 . S
C1480 C1482 1.363 . S
C1480 H1496 0.931 . S
C1481 C1480 1.370 . S
C1481 C1485 1.408 . S
C1482 C1480 1.363 . S
C1482 C1483 1.370 . S
C1482 C1486 1.524 . S
C1483 C1475 1.503 . S
C1483 C1482 1.370 . S
C1483 C1484 1.403 . S
C1484 C1483 1.403 . S
C1484 C1485 1.404 . S
C1484 C1487 1.539 . S
C1485 C1481 1.408 . S
C1485 C1484 1.404 . S
C1485 H1497 0.930 . S
C1486 C1482 1.524 . S
C1486 H1498 0.956 . S
C1486 H1499 0.961 . S
C1486 H1500 0.961 . S
C1487 C1484 1.539 . S
C1487 H1501 0.958 . S
C1487 H1502 0.961 . S
C1487 H1503 0.960 . S
H1488 C1472 0.931 . S
H1489 C1477 0.929 . S
H1490 C1478 0.960 . S
H1491 C1478 0.962 . S
H1492 C1478 0.960 . S
H1493 C1479 0.961 . S
H1494 C1479 0.961 . S
H1495 C1479 0.961 . S
H1496 C1480 0.931 . S
H1497 C1485 0.930 . S
H1498 C1486 0.956 . S
H1499 C1486 0.961 . S
H1500 C1486 0.961 . S
H1501 C1487 0.958 . S
H1502 C1487 0.961 . S
H1503 C1487 0.960 . S
C1504 C1505 1.391 . S
C1504 C1506 1.394 . S
C1504 H1520 0.931 . S
C1505 C1504 1.391 . S
C1505 C1509 1.376 . S
C1506 C1504 1.394 . S
C1506 C1507 1.369 . S
C1506 C1510 1.531 . S
C1507 C1506 1.369 . S
C1507 C1508 1.410 . S
C1507 C1515 1.503 . S
C1508 C1507 1.410 . S
C1508 C1509 1.392 . S
C1508 C1511 1.511 . S
C1509 C1505 1.376 . S
C1509 C1508 1.392 . S
C1509 H1521 0.929 . S
C1510 C1506 1.531 . S
C1510 H1522 0.960 . S
C1510 H1523 0.962 . S
C1510 H1524 0.960 . S
C1511 C1508 1.511 . S
C1511 H1525 0.961 . S
C1511 H1526 0.961 . S
C1511 H1527 0.961 . S
C1512 C1513 1.370 . S
C1512 C1514 1.363 . S
C1512 H1528 0.931 . S
C1513 C1512 1.370 . S
C1513 C1517 1.408 . S
C1514 C1512 1.363 . S
C1514 C1515 1.370 . S
C1514 C1518 1.524 . S
C1515 C1507 1.503 . S
C1515 C1514 1.370 . S
C1515 C1516 1.403 . S
C1516 C1515 1.403 . S
C1516 C1517 1.404 . S
C1516 C1519 1.539 . S
C1517 C1513 1.408 . S
C1517 C1516 1.404 . S
C1517 H1529 0.930 . S
C1518 C1514 1.524 . S
C1518 H1530 0.956 . S
C1518 H1531 0.961 . S
C1518 H1532 0.961 . S
C1519 C1516 1.539 . S
C1519 H1533 0.958 . S
C1519 H1534 0.961 . S
C1519 H1535 0.960 . S
H1520 C1504 0.931 . S
H1521 C1509 0.929 . S
H1522 C1510 0.960 . S
H1523 C1510 0.962 . S
H1524 C1510 0.960 . S
H1525 C1511 0.961 . S
H1526 C1511 0.961 . S
H1527 C1511 0.961 . S
H1528 C1512 0.931 . S
H1529 C1517 0.930 . S
H1530 C1518 0.956 . S
H1531 C1518 0.961 . S
H1532 C1518 0.961 . S
H1533 C1519 0.958 . S
H1534 C1519 0.961 . S
H1535 C1519 0.960 . S
C1536 C1537 1.391 . S
C1536 C1538 1.394 . S
C1536 H1552 0.931 . S
C1537 C1536 1.391 . S
C1537 C1541 1.376 . S
C1538 C1536 1.394 . S
C1538 C1539 1.369 . S
C1538 C1542 1.531 . S
C1539 C1538 1.369 . S
C1539 C1540 1.410 . S
C1539 C1547 1.503 . S
C1540 C1539 1.410 . S
C1540 C1541 1.392 . S
C1540 C1543 1.511 . S
C1541 C1537 1.376 . S
C1541 C1540 1.392 . S
C1541 H1553 0.929 . S
C1542 C1538 1.531 . S
C1542 H1554 0.960 . S
C1542 H1555 0.962 . S
C1542 H1556 0.960 . S
C1543 C1540 1.511 . S
C1543 H1557 0.961 . S
C1543 H1558 0.961 . S
C1543 H1559 0.961 . S
C1544 C1545 1.370 . S
C1544 C1546 1.363 . S
C1544 H1560 0.931 . S
C1545 C1544 1.370 . S
C1545 C1549 1.408 . S
C1546 C1544 1.363 . S
C1546 C1547 1.370 . S
C1546 C1550 1.524 . S
C1547 C1539 1.503 . S
C1547 C1546 1.370 . S
C1547 C1548 1.403 . S
C1548 C1547 1.403 . S
C1548 C1549 1.404 . S
C1548 C1551 1.539 . S
C1549 C1545 1.408 . S
C1549 C1548 1.404 . S
C1549 H1561 0.930 . S
C1550 C1546 1.524 . S
C1550 H1562 0.956 . S
C1550 H1563 0.961 . S
C1550 H1564 0.961 . S
C1551 C1548 1.539 . S
C1551 H1565 0.958 . S
C1551 H1566 0.961 . S
C1551 H1567 0.960 . S
H1552 C1536 0.931 . S
H1553 C1541 0.929 . S
H1554 C1542 0.960 . S
H1555 C1542 0.962 . S
H1556 C1542 0.960 . S
H1557 C1543 0.961 . S
H1558 C1543 0.961 . S
H1559 C1543 0.961 . S
H1560 C1544 0.931 . S
H1561 C1549 0.930 . S
H1562 C1550 0.956 . S
H1563 C1550 0.961 . S
H1564 C1550 0.961 . S
H1565 C1551 0.958 . S
H1566 C1551 0.961 . S
H1567 C1551 0.960 . S
C1568 C1569 1.391 . S
C1568 C1570 1.394 . S
C1568 H1584 0.931 . S
C1569 C1568 1.391 . S
C1569 C1573 1.376 . S
C1570 C1568 1.394 . S
C1570 C1571 1.369 . S
C1570 C1574 1.531 . S
C1571 C1570 1.369 . S
C1571 C1572 1.410 . S
C1571 C1579 1.503 . S
C1572 C1571 1.410 . S
C1572 C1573 1.392 . S
C1572 C1575 1.511 . S
C1573 C1569 1.376 . S
C1573 C1572 1.392 . S
C1573 H1585 0.929 . S
C1574 C1570 1.531 . S
C1574 H1586 0.960 . S
C1574 H1587 0.962 . S
C1574 H1588 0.960 . S
C1575 C1572 1.511 . S
C1575 H1589 0.961 . S
C1575 H1590 0.961 . S
C1575 H1591 0.961 . S
C1576 C1577 1.370 . S
C1576 C1578 1.363 . S
C1576 H1592 0.927 1_556 S
C1577 C1576 1.370 . S
C1577 C1581 1.408 . S
C1578 C1576 1.363 . S
C1578 C1579 1.370 . S
C1578 C1582 1.524 . S
C1579 C1571 1.503 . S
C1579 C1578 1.370 . S
C1579 C1580 1.403 . S
C1580 C1579 1.403 . S
C1580 C1581 1.404 . S
C1580 C1583 1.539 . S
C1581 C1577 1.408 . S
C1581 C1580 1.404 . S
C1581 H1593 0.930 . S
C1582 C1578 1.524 . S
C1582 H1594 0.956 . S
C1582 H1595 0.961 . S
C1582 H1596 0.961 . S
C1583 C1580 1.539 . S
C1583 H1597 0.958 . S
C1583 H1598 0.961 . S
C1583 H1599 0.960 . S
H1584 C1568 0.931 . S
H1585 C1573 0.929 . S
H1586 C1574 0.960 . S
H1587 C1574 0.962 . S
H1588 C1574 0.960 . S
H1589 C1575 0.961 . S
H1590 C1575 0.961 . S
H1591 C1575 0.961 . S
H1592 C1576 0.927 1_554 S
H1593 C1581 0.930 . S
H1594 C1582 0.956 . S
H1595 C1582 0.961 . S
H1596 C1582 0.961 . S
H1597 C1583 0.958 . S
H1598 C1583 0.961 . S
H1599 C1583 0.960 . S
C1600 C1601 1.391 . S
C1600 C1602 1.394 . S
C1600 H1616 0.931 . S
C1601 C1600 1.391 . S
C1601 C1605 1.376 . S
C1602 C1600 1.394 . S
C1602 C1603 1.369 . S
C1602 C1606 1.531 . S
C1603 C1602 1.369 . S
C1603 C1604 1.410 . S
C1603 C1611 1.503 . S
C1604 C1603 1.410 . S
C1604 C1605 1.392 . S
C1604 C1607 1.511 . S
C1605 C1601 1.376 . S
C1605 C1604 1.392 . S
C1605 H1617 0.929 . S
C1606 C1602 1.531 . S
C1606 H1618 0.960 . S
C1606 H1619 0.962 . S
C1606 H1620 0.960 . S
C1607 C1604 1.511 . S
C1607 H1621 0.961 . S
C1607 H1622 0.961 . S
C1607 H1623 0.961 . S
C1608 C1609 1.370 . S
C1608 C1610 1.363 . S
C1608 H1624 0.931 . S
C1609 C1608 1.370 . S
C1609 C1613 1.408 . S
C1610 C1608 1.363 . S
C1610 C1611 1.370 . S
C1610 C1614 1.524 . S
C1611 C1603 1.503 . S
C1611 C1610 1.370 . S
C1611 C1612 1.403 . S
C1612 C1611 1.403 . S
C1612 C1613 1.404 . S
C1612 C1615 1.539 . S
C1613 C1609 1.408 . S
C1613 C1612 1.404 . S
C1613 H1625 0.930 . S
C1614 C1610 1.524 . S
C1614 H1626 0.956 . S
C1614 H1627 0.961 . S
C1614 H1628 0.961 . S
C1615 C1612 1.539 . S
C1615 H1629 0.958 . S
C1615 H1630 0.961 . S
C1615 H1631 0.960 . S
H1616 C1600 0.931 . S
H1617 C1605 0.929 . S
H1618 C1606 0.960 . S
H1619 C1606 0.962 . S
H1620 C1606 0.960 . S
H1621 C1607 0.961 . S
H1622 C1607 0.961 . S
H1623 C1607 0.961 . S
H1624 C1608 0.931 . S
H1625 C1613 0.930 . S
H1626 C1614 0.956 . S
H1627 C1614 0.961 . S
H1628 C1614 0.961 . S
H1629 C1615 0.958 . S
H1630 C1615 0.961 . S
H1631 C1615 0.960 . S
C1632 C1633 1.391 . S
C1632 C1634 1.394 . S
C1632 H1648 0.931 . S
C1633 C1632 1.391 . S
C1633 C1637 1.376 . S
C1634 C1632 1.394 . S
C1634 C1635 1.369 . S
C1634 C1638 1.531 . S
C1635 C1634 1.369 . S
C1635 C1636 1.410 . S
C1635 C1643 1.503 . S
C1636 C1635 1.410 . S
C1636 C1637 1.392 . S
C1636 C1639 1.511 . S
C1637 C1633 1.376 . S
C1637 C1636 1.392 . S
C1637 H1649 0.929 . S
C1638 C1634 1.531 . S
C1638 H1650 0.960 . S
C1638 H1651 0.962 . S
C1638 H1652 0.960 . S
C1639 C1636 1.511 . S
C1639 H1653 0.961 . S
C1639 H1654 0.961 . S
C1639 H1655 0.961 . S
C1640 C1641 1.370 . S
C1640 C1642 1.363 . S
C1640 H1656 0.931 . S
C1641 C1640 1.370 . S
C1641 C1645 1.408 . S
C1642 C1640 1.363 . S
C1642 C1643 1.370 . S
C1642 C1646 1.524 . S
C1643 C1635 1.503 . S
C1643 C1642 1.370 . S
C1643 C1644 1.403 . S
C1644 C1643 1.403 . S
C1644 C1645 1.404 . S
C1644 C1647 1.539 . S
C1645 C1641 1.408 . S
C1645 C1644 1.404 . S
C1645 H1657 0.930 . S
C1646 C1642 1.524 . S
C1646 H1658 0.956 . S
C1646 H1659 0.961 . S
C1646 H1660 0.961 . S
C1647 C1644 1.539 . S
C1647 H1661 0.958 . S
C1647 H1662 0.961 . S
C1647 H1663 0.960 . S
H1648 C1632 0.931 . S
H1649 C1637 0.929 . S
H1650 C1638 0.960 . S
H1651 C1638 0.962 . S
H1652 C1638 0.960 . S
H1653 C1639 0.961 . S
H1654 C1639 0.961 . S
H1655 C1639 0.961 . S
H1656 C1640 0.931 . S
H1657 C1645 0.930 . S
H1658 C1646 0.956 . S
H1659 C1646 0.961 . S
H1660 C1646 0.961 . S
H1661 C1647 0.958 . S
H1662 C1647 0.961 . S
H1663 C1647 0.960 . S
C1664 C1665 1.391 . S
C1664 C1666 1.394 . S
C1664 H1680 0.931 . S
C1665 C1664 1.391 . S
C1665 C1669 1.376 . S
C1666 C1664 1.394 . S
C1666 C1667 1.369 . S
C1666 C1670 1.531 . S
C1667 C1666 1.369 . S
C1667 C1668 1.410 . S
C1667 C1675 1.503 . S
C1668 C1667 1.410 . S
C1668 C1669 1.392 . S
C1668 C1671 1.511 . S
C1669 C1665 1.376 . S
C1669 C1668 1.392 . S
C1669 H1681 0.929 . S
C1670 C1666 1.531 . S
C1670 H1682 0.960 . S
C1670 H1683 0.962 . S
C1670 H1684 0.960 . S
C1671 C1668 1.511 . S
C1671 H1685 0.961 . S
C1671 H1686 0.961 . S
C1671 H1687 0.961 . S
C1672 C1673 1.370 . S
C1672 C1674 1.363 . S
C1672 H1688 0.931 . S
C1673 C1672 1.370 . S
C1673 C1677 1.408 . S
C1674 C1672 1.363 . S
C1674 C1675 1.370 . S
C1674 C1678 1.524 . S
C1675 C1667 1.503 . S
C1675 C1674 1.370 . S
C1675 C1676 1.403 . S
C1676 C1675 1.403 . S
C1676 C1677 1.404 . S
C1676 C1679 1.539 . S
C1677 C1673 1.408 . S
C1677 C1676 1.404 . S
C1677 H1689 0.930 . S
C1678 C1674 1.524 . S
C1678 H1690 0.956 . S
C1678 H1691 0.961 . S
C1678 H1692 0.961 . S
C1679 C1676 1.539 . S
C1679 H1693 0.958 . S
C1679 H1694 0.961 . S
C1679 H1695 0.960 . S
H1680 C1664 0.931 . S
H1681 C1669 0.929 . S
H1682 C1670 0.960 . S
H1683 C1670 0.962 . S
H1684 C1670 0.960 . S
H1685 C1671 0.961 . S
H1686 C1671 0.961 . S
H1687 C1671 0.961 . S
H1688 C1672 0.931 . S
H1689 C1677 0.930 . S
H1690 C1678 0.956 . S
H1691 C1678 0.961 . S
H1692 C1678 0.961 . S
H1693 C1679 0.958 . S
H1694 C1679 0.961 . S
H1695 C1679 0.960 . S
C1696 C1697 1.391 . S
C1696 C1698 1.394 . S
C1696 H1712 0.931 . S
C1697 C1696 1.391 . S
C1697 C1701 1.376 . S
C1698 C1696 1.394 . S
C1698 C1699 1.369 . S
C1698 C1702 1.531 . S
C1699 C1698 1.369 . S
C1699 C1700 1.410 . S
C1699 C1707 1.503 . S
C1700 C1699 1.410 . S
C1700 C1701 1.392 . S
C1700 C1703 1.511 . S
C1701 C1697 1.376 . S
C1701 C1700 1.392 . S
C1701 H1713 0.929 . S
C1702 C1698 1.531 . S
C1702 H1714 0.960 . S
C1702 H1715 0.962 . S
C1702 H1716 0.960 . S
C1703 C1700 1.511 . S
C1703 H1717 0.961 . S
C1703 H1718 0.961 . S
C1703 H1719 0.961 . S
C1704 C1705 1.370 . S
C1704 C1706 1.363 1_655 S
C1704 H1720 0.931 . S
C1705 C1704 1.370 . S
C1705 C1709 1.408 . S
C1706 C1704 1.363 1_455 S
C1706 C1707 1.370 . S
C1706 C1710 1.524 . S
C1707 C1699 1.503 . S
C1707 C1706 1.370 . S
C1707 C1708 1.403 1_455 S
C1708 C1707 1.403 1_655 S
C1708 C1709 1.404 . S
C1708 C1711 1.539 . S
C1709 C1705 1.408 . S
C1709 C1708 1.404 . S
C1709 H1721 0.930 . S
C1710 C1706 1.524 . S
C1710 H1722 0.956 . S
C1710 H1723 0.961 . S
C1710 H1724 0.961 . S
C1711 C1708 1.539 . S
C1711 H1725 0.958 . S
C1711 H1726 0.961 . S
C1711 H1727 0.960 1_655 S
H1712 C1696 0.931 . S
H1713 C1701 0.929 . S
H1714 C1702 0.960 . S
H1715 C1702 0.962 . S
H1716 C1702 0.960 . S
H1717 C1703 0.961 . S
H1718 C1703 0.961 . S
H1719 C1703 0.961 . S
H1720 C1704 0.931 . S
H1721 C1709 0.930 . S
H1722 C1710 0.956 . S
H1723 C1710 0.961 . S
H1724 C1710 0.961 . S
H1725 C1711 0.958 . S
H1726 C1711 0.961 . S
H1727 C1711 0.960 1_455 S
C1728 C1729 1.391 . S
C1728 C1730 1.394 . S
C1728 H1744 0.931 . S
C1729 C1728 1.391 . S
C1729 C1733 1.376 . S
C1730 C1728 1.394 . S
C1730 C1731 1.369 . S
C1730 C1734 1.531 . S
C1731 C1730 1.369 . S
C1731 C1732 1.410 . S
C1731 C1739 1.503 . S
C1732 C1731 1.410 . S
C1732 C1733 1.392 . S
C1732 C1735 1.511 . S
C1733 C1729 1.376 . S
C1733 C1732 1.392 . S
C1733 H1745 0.929 . S
C1734 C1730 1.531 . S
C1734 H1746 0.960 . S
C1734 H1747 0.962 . S
C1734 H1748 0.960 . S
C1735 C1732 1.511 . S
C1735 H1749 0.961 . S
C1735 H1750 0.961 . S
C1735 H1751 0.961 . S
C1736 C1737 1.370 . S
C1736 C1738 1.363 . S
C1736 H1752 0.931 . S
C1737 C1736 1.370 . S
C1737 C1741 1.408 . S
C1738 C1736 1.363 . S
C1738 C1739 1.370 . S
C1738 C1742 1.524 . S
C1739 C1731 1.503 . S
C1739 C1738 1.370 . S
C1739 C1740 1.403 . S
C1740 C1739 1.403 . S
C1740 C1741 1.404 . S
C1740 C1743 1.539 . S
C1741 C1737 1.408 . S
C1741 C1740 1.404 . S
C1741 H1753 0.930 . S
C1742 C1738 1.524 . S
C1742 H1754 0.956 . S
C1742 H1755 0.961 . S
C1742 H1756 0.961 . S
C1743 C1740 1.539 . S
C1743 H1757 0.958 . S
C1743 H1758 0.961 . S
C1743 H1759 0.960 . S
H1744 C1728 0.931 . S
H1745 C1733 0.929 . S
H1746 C1734 0.960 . S
H1747 C1734 0.962 . S
H1748 C1734 0.960 . S
H1749 C1735 0.961 . S
H1750 C1735 0.961 . S
H1751 C1735 0.961 . S
H1752 C1736 0.931 . S
H1753 C1741 0.930 . S
H1754 C1742 0.956 . S
H1755 C1742 0.961 . S
H1756 C1742 0.961 . S
H1757 C1743 0.958 . S
H1758 C1743 0.961 . S
H1759 C1743 0.960 . S
C1760 C1761 1.391 . S
C1760 C1762 1.394 . S
C1760 H1776 0.931 . S
C1761 C1760 1.391 . S
C1761 C1765 1.376 . S
C1762 C1760 1.394 . S
C1762 C1763 1.369 . S
C1762 C1766 1.531 . S
C1763 C1762 1.369 . S
C1763 C1764 1.410 . S
C1763 C1771 1.503 . S
C1764 C1763 1.410 . S
C1764 C1765 1.392 . S
C1764 C1767 1.511 . S
C1765 C1761 1.376 . S
C1765 C1764 1.392 . S
C1765 H1777 0.929 . S
C1766 C1762 1.531 . S
C1766 H1778 0.960 . S
C1766 H1779 0.962 . S
C1766 H1780 0.960 . S
C1767 C1764 1.511 . S
C1767 H1781 0.961 . S
C1767 H1782 0.961 . S
C1767 H1783 0.961 . S
C1768 C1769 1.370 . S
C1768 C1770 1.363 . S
C1768 H1784 0.931 . S
C1769 C1768 1.370 . S
C1769 C1773 1.408 . S
C1770 C1768 1.363 . S
C1770 C1771 1.370 . S
C1770 C1774 1.524 . S
C1771 C1763 1.503 . S
C1771 C1770 1.370 . S
C1771 C1772 1.403 . S
C1772 C1771 1.403 . S
C1772 C1773 1.404 . S
C1772 C1775 1.539 . S
C1773 C1769 1.408 . S
C1773 C1772 1.404 . S
C1773 H1785 0.930 . S
C1774 C1770 1.524 . S
C1774 H1786 0.956 . S
C1774 H1787 0.961 . S
C1774 H1788 0.961 . S
C1775 C1772 1.539 . S
C1775 H1789 0.958 . S
C1775 H1790 0.961 . S
C1775 H1791 0.960 . S
H1776 C1760 0.931 . S
H1777 C1765 0.929 . S
H1778 C1766 0.960 . S
H1779 C1766 0.962 . S
H1780 C1766 0.960 . S
H1781 C1767 0.961 . S
H1782 C1767 0.961 . S
H1783 C1767 0.961 . S
H1784 C1768 0.931 . S
H1785 C1773 0.930 . S
H1786 C1774 0.956 . S
H1787 C1774 0.961 . S
H1788 C1774 0.961 . S
H1789 C1775 0.958 . S
H1790 C1775 0.961 . S
H1791 C1775 0.960 . S
C1792 C1793 1.391 . S
C1792 C1794 1.394 . S
C1792 H1808 0.931 . S
C1793 C1792 1.391 . S
C1793 C1797 1.376 . S
C1794 C1792 1.394 . S
C1794 C1795 1.369 . S
C1794 C1798 1.531 . S
C1795 C1794 1.369 . S
C1795 C1796 1.410 . S
C1795 C1803 1.503 . S
C1796 C1795 1.410 . S
C1796 C1797 1.392 . S
C1796 C1799 1.511 . S
C1797 C1793 1.376 . S
C1797 C1796 1.392 . S
C1797 H1809 0.929 . S
C1798 C1794 1.531 . S
C1798 H1810 0.960 . S
C1798 H1811 0.962 . S
C1798 H1812 0.960 . S
C1799 C1796 1.511 . S
C1799 H1813 0.961 . S
C1799 H1814 0.961 . S
C1799 H1815 0.961 . S
C1800 C1801 1.370 . S
C1800 C1802 1.363 . S
C1800 H1816 0.931 . S
C1801 C1800 1.370 . S
C1801 C1805 1.408 . S
C1802 C1800 1.363 . S
C1802 C1803 1.370 . S
C1802 C1806 1.524 . S
C1803 C1795 1.503 . S
C1803 C1802 1.370 . S
C1803 C1804 1.403 . S
C1804 C1803 1.403 . S
C1804 C1805 1.404 . S
C1804 C1807 1.539 . S
C1805 C1801 1.408 . S
C1805 C1804 1.404 . S
C1805 H1817 0.930 . S
C1806 C1802 1.524 . S
C1806 H1818 0.956 . S
C1806 H1819 0.961 . S
C1806 H1820 0.961 . S
C1807 C1804 1.539 . S
C1807 H1821 0.958 . S
C1807 H1822 0.961 . S
C1807 H1823 0.960 . S
H1808 C1792 0.931 . S
H1809 C1797 0.929 . S
H1810 C1798 0.960 . S
H1811 C1798 0.962 . S
H1812 C1798 0.960 . S
H1813 C1799 0.961 . S
H1814 C1799 0.961 . S
H1815 C1799 0.961 . S
H1816 C1800 0.931 . S
H1817 C1805 0.930 . S
H1818 C1806 0.956 . S
H1819 C1806 0.961 . S
H1820 C1806 0.961 . S
H1821 C1807 0.958 . S
H1822 C1807 0.961 . S
H1823 C1807 0.960 . S
C1824 C1825 1.391 . S
C1824 C1826 1.394 . S
C1824 H1840 0.931 . S
C1825 C1824 1.391 . S
C1825 C1829 1.376 . S
C1826 C1824 1.394 . S
C1826 C1827 1.369 . S
C1826 C1830 1.531 . S
C1827 C1826 1.369 . S
C1827 C1828 1.410 . S
C1827 C1835 1.503 . S
C1828 C1827 1.410 . S
C1828 C1829 1.392 . S
C1828 C1831 1.511 . S
C1829 C1825 1.376 . S
C1829 C1828 1.392 . S
C1829 H1841 0.929 . S
C1830 C1826 1.531 . S
C1830 H1842 0.960 . S
C1830 H1843 0.962 . S
C1830 H1844 0.960 . S
C1831 C1828 1.511 . S
C1831 H1845 0.961 . S
C1831 H1846 0.961 . S
C1831 H1847 0.961 . S
C1832 C1833 1.370 . S
C1832 C1834 1.363 . S
C1832 H1848 0.931 . S
C1833 C1832 1.370 . S
C1833 C1837 1.408 . S
C1834 C1832 1.363 . S
C1834 C1835 1.370 . S
C1834 C1838 1.524 . S
C1835 C1827 1.503 . S
C1835 C1834 1.370 . S
C1835 C1836 1.403 . S
C1836 C1835 1.403 . S
C1836 C1837 1.404 . S
C1836 C1839 1.539 . S
C1837 C1833 1.408 . S
C1837 C1836 1.404 . S
C1837 H1849 0.930 . S
C1838 C1834 1.524 . S
C1838 H1850 0.956 . S
C1838 H1851 0.961 . S
C1838 H1852 0.961 . S
C1839 C1836 1.539 . S
C1839 H1853 0.958 . S
C1839 H1854 0.961 . S
C1839 H1855 0.960 . S
H1840 C1824 0.931 . S
H1841 C1829 0.929 . S
H1842 C1830 0.960 . S
H1843 C1830 0.962 . S
H1844 C1830 0.960 . S
H1845 C1831 0.961 . S
H1846 C1831 0.961 . S
H1847 C1831 0.961 . S
H1848 C1832 0.931 . S
H1849 C1837 0.930 . S
H1850 C1838 0.956 . S
H1851 C1838 0.961 . S
H1852 C1838 0.961 . S
H1853 C1839 0.958 . S
H1854 C1839 0.961 . S
H1855 C1839 0.960 . S
C1856 C1857 1.391 . S
C1856 C1858 1.394 . S
C1856 H1872 0.931 . S
C1857 C1856 1.391 . S
C1857 C1861 1.376 . S
C1858 C1856 1.394 . S
C1858 C1859 1.369 . S
C1858 C1862 1.531 . S
C1859 C1858 1.369 . S
C1859 C1860 1.410 . S
C1859 C1867 1.503 . S
C1860 C1859 1.410 . S
C1860 C1861 1.392 . S
C1860 C1863 1.511 . S
C1861 C1857 1.376 . S
C1861 C1860 1.392 . S
C1861 H1873 0.929 . S
C1862 C1858 1.531 . S
C1862 H1874 0.960 . S
C1862 H1875 0.962 . S
C1862 H1876 0.960 . S
C1863 C1860 1.511 . S
C1863 H1877 0.961 . S
C1863 H1878 0.961 . S
C1863 H1879 0.961 . S
C1864 C1865 1.370 . S
C1864 C1866 1.363 . S
C1864 H1880 0.931 . S
C1865 C1864 1.370 . S
C1865 C1869 1.408 . S
C1866 C1864 1.363 . S
C1866 C1867 1.370 . S
C1866 C1870 1.524 . S
C1867 C1859 1.503 . S
C1867 C1866 1.370 . S
C1867 C1868 1.403 . S
C1868 C1867 1.403 . S
C1868 C1869 1.404 . S
C1868 C1871 1.539 . S
C1869 C1865 1.408 . S
C1869 C1868 1.404 . S
C1869 H1881 0.930 . S
C1870 C1866 1.524 . S
C1870 H1882 0.956 . S
C1870 H1883 0.961 . S
C1870 H1884 0.961 . S
C1871 C1868 1.539 . S
C1871 H1885 0.958 . S
C1871 H1886 0.961 . S
C1871 H1887 0.960 . S
H1872 C1856 0.931 . S
H1873 C1861 0.929 . S
H1874 C1862 0.960 . S
H1875 C1862 0.962 . S
H1876 C1862 0.960 . S
H1877 C1863 0.961 . S
H1878 C1863 0.961 . S
H1879 C1863 0.961 . S
H1880 C1864 0.931 . S
H1881 C1869 0.930 . S
H1882 C1870 0.956 . S
H1883 C1870 0.961 . S
H1884 C1870 0.961 . S
H1885 C1871 0.958 . S
H1886 C1871 0.961 . S
H1887 C1871 0.960 . S
C1888 C1889 1.391 . S
C1888 C1890 1.394 . S
C1888 H1904 0.931 . S
C1889 C1888 1.391 . S
C1889 C1893 1.376 . S
C1890 C1888 1.394 . S
C1890 C1891 1.369 . S
C1890 C1894 1.531 . S
C1891 C1890 1.369 . S
C1891 C1892 1.410 . S
C1891 C1899 1.503 . S
C1892 C1891 1.410 . S
C1892 C1893 1.392 . S
C1892 C1895 1.511 . S
C1893 C1889 1.376 . S
C1893 C1892 1.392 . S
C1893 H1905 0.929 . S
C1894 C1890 1.531 . S
C1894 H1906 0.960 . S
C1894 H1907 0.962 . S
C1894 H1908 0.960 . S
C1895 C1892 1.511 . S
C1895 H1909 0.961 . S
C1895 H1910 0.961 . S
C1895 H1911 0.961 . S
C1896 C1897 1.370 . S
C1896 C1898 1.363 1_655 S
C1896 H1912 0.931 . S
C1897 C1896 1.370 . S
C1897 C1901 1.408 . S
C1898 C1896 1.363 1_455 S
C1898 C1899 1.370 . S
C1898 C1902 1.524 . S
C1899 C1891 1.503 . S
C1899 C1898 1.370 . S
C1899 C1900 1.403 1_455 S
C1900 C1899 1.403 1_655 S
C1900 C1901 1.404 . S
C1900 C1903 1.543 . S
C1901 C1897 1.408 . S
C1901 C1900 1.404 . S
C1901 H1913 0.930 . S
C1902 C1898 1.524 . S
C1902 H1914 0.956 . S
C1902 H1915 0.961 . S
C1902 H1916 0.961 . S
C1903 C1900 1.543 . S
C1903 H1917 0.970 . S
C1903 H1918 0.978 . S
C1903 H1919 0.928 1_655 S
H1904 C1888 0.931 . S
H1905 C1893 0.929 . S
H1906 C1894 0.960 . S
H1907 C1894 0.962 . S
H1908 C1894 0.960 . S
H1909 C1895 0.961 . S
H1910 C1895 0.961 . S
H1911 C1895 0.961 . S
H1912 C1896 0.931 . S
H1913 C1901 0.930 . S
H1914 C1902 0.956 . S
H1915 C1902 0.961 . S
H1916 C1902 0.961 . S
H1917 C1903 0.970 . S
H1918 C1903 0.978 . S
H1919 C1903 0.928 1_455 S
C1920 C1921 1.391 . S
C1920 C1922 1.394 . S
C1920 H1936 0.931 . S
C1921 C1920 1.391 . S
C1921 C1925 1.376 . S
C1922 C1920 1.394 . S
C1922 C1923 1.369 . S
C1922 C1926 1.531 . S
C1923 C1922 1.369 . S
C1923 C1924 1.410 . S
C1923 C1931 1.503 . S
C1924 C1923 1.410 . S
C1924 C1925 1.392 . S
C1924 C1927 1.511 . S
C1925 C1921 1.376 . S
C1925 C1924 1.392 . S
C1925 H1937 0.929 . S
C1926 C1922 1.531 . S
C1926 H1938 0.960 . S
C1926 H1939 0.962 . S
C1926 H1940 0.960 . S
C1927 C1924 1.511 . S
C1927 H1941 0.961 . S
C1927 H1942 0.961 . S
C1927 H1943 0.961 . S
C1928 C1929 1.370 . S
C1928 C1930 1.363 . S
C1928 H1944 0.931 . S
C1929 C1928 1.370 . S
C1929 C1933 1.408 . S
C1930 C1928 1.363 . S
C1930 C1931 1.370 . S
C1930 C1934 1.524 . S
C1931 C1923 1.503 . S
C1931 C1930 1.370 . S
C1931 C1932 1.403 . S
C1932 C1931 1.403 . S
C1932 C1933 1.404 . S
C1932 C1935 1.539 . S
C1933 C1929 1.408 . S
C1933 C1932 1.404 . S
C1933 H1945 0.930 . S
C1934 C1930 1.524 . S
C1934 H1946 0.956 . S
C1934 H1947 0.961 . S
C1934 H1948 0.961 . S
C1935 C1932 1.539 . S
C1935 H1949 0.958 . S
C1935 H1950 0.961 . S
C1935 H1951 0.960 . S
H1936 C1920 0.931 . S
H1937 C1925 0.929 . S
H1938 C1926 0.960 . S
H1939 C1926 0.962 . S
H1940 C1926 0.960 . S
H1941 C1927 0.961 . S
H1942 C1927 0.961 . S
H1943 C1927 0.961 . S
H1944 C1928 0.931 . S
H1945 C1933 0.930 . S
H1946 C1934 0.956 . S
H1947 C1934 0.961 . S
H1948 C1934 0.961 . S
H1949 C1935 0.958 . S
H1950 C1935 0.961 . S
H1951 C1935 0.960 . S
C1952 C1953 1.391 . S
C1952 C1954 1.394 . S
C1952 H1968 0.931 . S
C1953 C1952 1.391 . S
C1953 C1957 1.376 . S
C1954 C1952 1.394 . S
C1954 C1955 1.369 1_455 S
C1954 C1958 1.531 . S
C1955 C1954 1.369 1_655 S
C1955 C1956 1.410 . S
C1955 C1963 1.503 . S
C1956 C1955 1.410 . S
C1956 C1957 1.392 1_655 S
C1956 C1959 1.511 . S
C1957 C1953 1.376 . S
C1957 C1956 1.392 1_455 S
C1957 H1969 0.929 . S
C1958 C1954 1.531 . S
C1958 H1970 0.960 1_455 S
C1958 H1971 0.962 . S
C1958 H1972 0.960 . S
C1959 C1956 1.511 . S
C1959 H1973 0.961 . S
C1959 H1974 0.961 . S
C1959 H1975 0.961 . S
C1960 C1961 1.370 . S
C1960 C1962 1.363 . S
C1960 H1976 0.931 . S
C1961 C1960 1.370 . S
C1961 C1965 1.408 . S
C1962 C1960 1.363 . S
C1962 C1963 1.370 . S
C1962 C1966 1.524 . S
C1963 C1955 1.503 . S
C1963 C1962 1.370 . S
C1963 C1964 1.403 . S
C1964 C1963 1.403 . S
C1964 C1965 1.404 . S
C1964 C1967 1.539 . S
C1965 C1961 1.408 . S
C1965 C1964 1.404 . S
C1965 H1977 0.930 . S
C1966 C1962 1.524 . S
C1966 H1978 0.956 . S
C1966 H1979 0.961 . S
C1966 H1980 0.961 . S
C1967 C1964 1.539 . S
C1967 H1981 0.958 . S
C1967 H1982 0.961 . S
C1967 H1983 0.960 . S
H1968 C1952 0.931 . S
H1969 C1957 0.929 . S
H1970 C1958 0.960 1_655 S
H1971 C1958 0.962 . S
H1972 C1958 0.960 . S
H1973 C1959 0.961 . S
H1974 C1959 0.961 . S
H1975 C1959 0.961 . S
H1976 C1960 0.931 . S
H1977 C1965 0.930 . S
H1978 C1966 0.956 . S
H1979 C1966 0.961 . S
H1980 C1966 0.961 . S
H1981 C1967 0.958 . S
H1982 C1967 0.961 . S
H1983 C1967 0.960 . S
C1984 C1985 1.391 . S
C1984 C1986 1.394 . S
C1984 H2000 0.931 . S
C1985 C1984 1.391 . S
C1985 C1989 1.376 . S
C1986 C1984 1.394 . S
C1986 C1987 1.369 . S
C1986 C1990 1.531 . S
C1987 C1986 1.369 . S
C1987 C1988 1.410 . S
C1987 C1995 1.503 . S
C1988 C1987 1.410 . S
C1988 C1989 1.392 . S
C1988 C1991 1.511 . S
C1989 C1985 1.376 . S
C1989 C1988 1.392 . S
C1989 H2001 0.929 . S
C1990 C1986 1.531 . S
C1990 H2002 0.960 . S
C1990 H2003 0.962 . S
C1990 H2004 0.960 . S
C1991 C1988 1.511 . S
C1991 H2005 0.961 . S
C1991 H2006 0.961 . S
C1991 H2007 0.961 . S
C1992 C1993 1.370 . S
C1992 C1994 1.363 . S
C1992 H2008 0.931 . S
C1993 C1992 1.370 . S
C1993 C1997 1.408 . S
C1994 C1992 1.363 . S
C1994 C1995 1.370 . S
C1994 C1998 1.524 . S
C1995 C1987 1.503 . S
C1995 C1994 1.370 . S
C1995 C1996 1.403 . S
C1996 C1995 1.403 . S
C1996 C1997 1.404 . S
C1996 C1999 1.539 . S
C1997 C1993 1.408 . S
C1997 C1996 1.404 . S
C1997 H2009 0.930 . S
C1998 C1994 1.524 . S
C1998 H2010 0.956 . S
C1998 H2011 0.961 . S
C1998 H2012 0.961 . S
C1999 C1996 1.539 . S
C1999 H2013 0.958 . S
C1999 H2014 0.961 . S
C1999 H2015 0.960 . S
H2000 C1984 0.931 . S
H2001 C1989 0.929 . S
H2002 C1990 0.960 . S
H2003 C1990 0.962 . S
H2004 C1990 0.960 . S
H2005 C1991 0.961 . S
H2006 C1991 0.961 . S
H2007 C1991 0.961 . S
H2008 C1992 0.931 . S
H2009 C1997 0.930 . S
H2010 C1998 0.956 . S
H2011 C1998 0.961 . S
H2012 C1998 0.961 . S
H2013 C1999 0.958 . S
H2014 C1999 0.961 . S
H2015 C1999 0.960 . S
C2016 C2017 1.391 . S
C2016 C2018 1.394 . S
C2016 H2032 0.931 . S
C2017 C2016 1.391 . S
C2017 C2021 1.376 . S
C2018 C2016 1.394 . S
C2018 C2019 1.369 . S
C2018 C2022 1.531 . S
C2019 C2018 1.369 . S
C2019 C2020 1.410 . S
C2019 C2027 1.503 . S
C2020 C2019 1.410 . S
C2020 C2021 1.392 . S
C2020 C2023 1.511 . S
C2021 C2017 1.376 . S
C2021 C2020 1.392 . S
C2021 H2033 0.929 . S
C2022 C2018 1.531 . S
C2022 H2034 0.960 . S
C2022 H2035 0.962 . S
C2022 H2036 0.960 . S
C2023 C2020 1.511 . S
C2023 H2037 0.961 . S
C2023 H2038 0.961 . S
C2023 H2039 0.961 . S
C2024 C2025 1.370 . S
C2024 C2026 1.363 . S
C2024 H2040 0.931 . S
C2025 C2024 1.370 . S
C2025 C2029 1.408 . S
C2026 C2024 1.363 . S
C2026 C2027 1.370 . S
C2026 C2030 1.524 . S
C2027 C2019 1.503 . S
C2027 C2026 1.370 . S
C2027 C2028 1.403 . S
C2028 C2027 1.403 . S
C2028 C2029 1.404 . S
C2028 C2031 1.539 . S
C2029 C2025 1.408 . S
C2029 C2028 1.404 . S
C2029 H2041 0.930 . S
C2030 C2026 1.524 . S
C2030 H2042 0.956 . S
C2030 H2043 0.961 . S
C2030 H2044 0.961 . S
C2031 C2028 1.539 . S
C2031 H2045 0.958 . S
C2031 H2046 0.961 . S
C2031 H2047 0.960 . S
H2032 C2016 0.931 . S
H2033 C2021 0.929 . S
H2034 C2022 0.960 . S
H2035 C2022 0.962 . S
H2036 C2022 0.960 . S
H2037 C2023 0.961 . S
H2038 C2023 0.961 . S
H2039 C2023 0.961 . S
H2040 C2024 0.931 . S
H2041 C2029 0.930 . S
H2042 C2030 0.956 . S
H2043 C2030 0.961 . S
H2044 C2030 0.961 . S
H2045 C2031 0.958 . S
H2046 C2031 0.961 . S
H2047 C2031 0.960 . S
C2048 C2049 1.391 . S
C2048 C2050 1.394 . S
C2048 H2064 0.931 . S
C2049 C2048 1.391 . S
C2049 C2053 1.376 . S
C2050 C2048 1.394 . S
C2050 C2051 1.369 . S
C2050 C2054 1.531 . S
C2051 C2050 1.369 . S
C2051 C2052 1.410 . S
C2051 C2059 1.503 . S
C2052 C2051 1.410 . S
C2052 C2053 1.392 . S
C2052 C2055 1.511 . S
C2053 C2049 1.376 . S
C2053 C2052 1.392 . S
C2053 H2065 0.929 . S
C2054 C2050 1.531 . S
C2054 H2066 0.960 . S
C2054 H2067 0.962 . S
C2054 H2068 0.960 . S
C2055 C2052 1.511 . S
C2055 H2069 0.961 . S
C2055 H2070 0.961 . S
C2055 H2071 0.961 . S
C2056 C2057 1.370 . S
C2056 C2058 1.363 . S
C2056 H2072 0.931 . S
C2057 C2056 1.370 . S
C2057 C2061 1.408 . S
C2058 C2056 1.363 . S
C2058 C2059 1.370 . S
C2058 C2062 1.524 . S
C2059 C2051 1.503 . S
C2059 C2058 1.370 . S
C2059 C2060 1.403 . S
C2060 C2059 1.403 . S
C2060 C2061 1.404 . S
C2060 C2063 1.539 . S
C2061 C2057 1.408 . S
C2061 C2060 1.404 . S
C2061 H2073 0.930 . S
C2062 C2058 1.524 . S
C2062 H2074 0.956 . S
C2062 H2075 0.961 . S
C2062 H2076 0.961 . S
C2063 C2060 1.539 . S
C2063 H2077 0.958 . S
C2063 H2078 0.961 . S
C2063 H2079 0.960 . S
H2064 C2048 0.931 . S
H2065 C2053 0.929 . S
H2066 C2054 0.960 . S
H2067 C2054 0.962 . S
H2068 C2054 0.960 . S
H2069 C2055 0.961 . S
H2070 C2055 0.961 . S
H2071 C2055 0.961 . S
H2072 C2056 0.931 . S
H2073 C2061 0.930 . S
H2074 C2062 0.956 . S
H2075 C2062 0.961 . S
H2076 C2062 0.961 . S
H2077 C2063 0.958 . S
H2078 C2063 0.961 . S
H2079 C2063 0.960 . S
C2080 C2081 1.391 . S
C2080 C2082 1.394 . S
C2080 H2096 0.931 . S
C2081 C2080 1.391 . S
C2081 C2085 1.376 . S
C2082 C2080 1.394 . S
C2082 C2083 1.369 . S
C2082 C2086 1.531 . S
C2083 C2082 1.369 . S
C2083 C2084 1.410 . S
C2083 C2091 1.503 . S
C2084 C2083 1.410 . S
C2084 C2085 1.392 . S
C2084 C2087 1.511 . S
C2085 C2081 1.376 . S
C2085 C2084 1.392 . S
C2085 H2097 0.929 . S
C2086 C2082 1.531 . S
C2086 H2098 0.960 . S
C2086 H2099 0.962 . S
C2086 H2100 0.960 . S
C2087 C2084 1.511 . S
C2087 H2101 0.961 . S
C2087 H2102 0.961 . S
C2087 H2103 0.961 . S
C2088 C2089 1.370 . S
C2088 C2090 1.363 . S
C2088 H2104 0.931 . S
C2089 C2088 1.370 . S
C2089 C2093 1.408 . S
C2090 C2088 1.363 . S
C2090 C2091 1.370 . S
C2090 C2094 1.524 . S
C2091 C2083 1.503 . S
C2091 C2090 1.370 . S
C2091 C2092 1.403 . S
C2092 C2091 1.403 . S
C2092 C2093 1.404 . S
C2092 C2095 1.539 . S
C2093 C2089 1.408 . S
C2093 C2092 1.404 . S
C2093 H2105 0.930 . S
C2094 C2090 1.524 . S
C2094 H2106 0.956 . S
C2094 H2107 0.961 . S
C2094 H2108 0.961 . S
C2095 C2092 1.539 . S
C2095 H2109 0.958 . S
C2095 H2110 0.961 . S
C2095 H2111 0.960 . S
H2096 C2080 0.931 . S
H2097 C2085 0.929 . S
H2098 C2086 0.960 . S
H2099 C2086 0.962 . S
H2100 C2086 0.960 . S
H2101 C2087 0.961 . S
H2102 C2087 0.961 . S
H2103 C2087 0.961 . S
H2104 C2088 0.931 . S
H2105 C2093 0.930 . S
H2106 C2094 0.956 . S
H2107 C2094 0.961 . S
H2108 C2094 0.961 . S
H2109 C2095 0.958 . S
H2110 C2095 0.961 . S
H2111 C2095 0.960 . S
C2112 C2113 1.391 . S
C2112 C2114 1.394 . S
C2112 H2128 0.931 . S
C2113 C2112 1.391 . S
C2113 C2117 1.376 . S
C2114 C2112 1.394 . S
C2114 C2115 1.369 . S
C2114 C2118 1.531 . S
C2115 C2114 1.369 . S
C2115 C2116 1.410 . S
C2115 C2123 1.503 . S
C2116 C2115 1.410 . S
C2116 C2117 1.392 . S
C2116 C2119 1.511 . S
C2117 C2113 1.376 . S
C2117 C2116 1.392 . S
C2117 H2129 0.929 . S
C2118 C2114 1.531 . S
C2118 H2130 0.960 . S
C2118 H2131 0.962 . S
C2118 H2132 0.960 . S
C2119 C2116 1.511 . S
C2119 H2133 0.961 . S
C2119 H2134 0.961 . S
C2119 H2135 0.961 . S
C2120 C2121 1.370 . S
C2120 C2122 1.363 . S
C2120 H2136 0.931 . S
C2121 C2120 1.370 . S
C2121 C2125 1.408 . S
C2122 C2120 1.363 . S
C2122 C2123 1.370 . S
C2122 C2126 1.524 . S
C2123 C2115 1.503 . S
C2123 C2122 1.370 . S
C2123 C2124 1.403 . S
C2124 C2123 1.403 . S
C2124 C2125 1.404 . S
C2124 C2127 1.539 . S
C2125 C2121 1.408 . S
C2125 C2124 1.404 . S
C2125 H2137 0.930 . S
C2126 C2122 1.524 . S
C2126 H2138 0.956 . S
C2126 H2139 0.961 . S
C2126 H2140 0.961 . S
C2127 C2124 1.539 . S
C2127 H2141 0.958 . S
C2127 H2142 0.961 . S
C2127 H2143 0.960 . S
H2128 C2112 0.931 . S
H2129 C2117 0.929 . S
H2130 C2118 0.960 . S
H2131 C2118 0.962 . S
H2132 C2118 0.960 . S
H2133 C2119 0.961 . S
H2134 C2119 0.961 . S
H2135 C2119 0.961 . S
H2136 C2120 0.931 . S
H2137 C2125 0.930 . S
H2138 C2126 0.956 . S
H2139 C2126 0.961 . S
H2140 C2126 0.961 . S
H2141 C2127 0.958 . S
H2142 C2127 0.961 . S
H2143 C2127 0.960 . S
C2144 C2145 1.391 . S
C2144 C2146 1.394 . S
C2144 H2160 0.931 . S
C2145 C2144 1.391 . S
C2145 C2149 1.376 . S
C2146 C2144 1.394 . S
C2146 C2147 1.369 . S
C2146 C2150 1.531 . S
C2147 C2146 1.369 . S
C2147 C2148 1.410 . S
C2147 C2155 1.503 . S
C2148 C2147 1.410 . S
C2148 C2149 1.392 . S
C2148 C2151 1.511 . S
C2149 C2145 1.376 . S
C2149 C2148 1.392 . S
C2149 H2161 0.929 . S
C2150 C2146 1.531 . S
C2150 H2162 0.960 . S
C2150 H2163 0.962 . S
C2150 H2164 0.960 . S
C2151 C2148 1.511 . S
C2151 H2165 0.961 . S
C2151 H2166 0.961 . S
C2151 H2167 0.961 . S
C2152 C2153 1.370 . S
C2152 C2154 1.363 . S
C2152 H2168 0.931 . S
C2153 C2152 1.370 . S
C2153 C2157 1.408 . S
C2154 C2152 1.363 . S
C2154 C2155 1.370 1_455 S
C2154 C2158 1.524 1_455 S
C2155 C2147 1.503 . S
C2155 C2154 1.370 1_655 S
C2155 C2156 1.403 . S
C2156 C2155 1.403 . S
C2156 C2157 1.404 1_655 S
C2156 C2159 1.539 . S
C2157 C2153 1.408 . S
C2157 C2156 1.404 1_455 S
C2157 H2169 0.930 . S
C2158 C2154 1.524 1_655 S
C2158 H2170 0.956 . S
C2158 H2171 0.961 . S
C2158 H2172 0.961 1_655 S
C2159 C2156 1.539 . S
C2159 H2173 0.958 . S
C2159 H2174 0.961 . S
C2159 H2175 0.960 . S
H2160 C2144 0.931 . S
H2161 C2149 0.929 . S
H2162 C2150 0.960 . S
H2163 C2150 0.962 . S
H2164 C2150 0.960 . S
H2165 C2151 0.961 . S
H2166 C2151 0.961 . S
H2167 C2151 0.961 . S
H2168 C2152 0.931 . S
H2169 C2157 0.930 . S
H2170 C2158 0.956 . S
H2171 C2158 0.961 . S
H2172 C2158 0.961 1_455 S
H2173 C2159 0.958 . S
H2174 C2159 0.961 . S
H2175 C2159 0.960 . S
C2176 C2177 1.391 . S
C2176 C2178 1.394 . S
C2176 H2192 0.931 . S
C2177 C2176 1.391 . S
C2177 C2181 1.376 . S
C2178 C2176 1.394 . S
C2178 C2179 1.369 . S
C2178 C2182 1.531 . S
C2179 C2178 1.369 . S
C2179 C2180 1.410 . S
C2179 C2187 1.503 . S
C2180 C2179 1.410 . S
C2180 C2181 1.392 . S
C2180 C2183 1.511 . S
C2181 C2177 1.376 . S
C2181 C2180 1.392 . S
C2181 H2193 0.929 . S
C2182 C2178 1.531 . S
C2182 H2194 0.960 . S
C2182 H2195 0.962 . S
C2182 H2196 0.960 . S
C2183 C2180 1.511 . S
C2183 H2197 0.961 . S
C2183 H2198 0.961 . S
C2183 H2199 0.961 . S
C2184 C2185 1.370 . S
C2184 C2186 1.363 . S
C2184 H2200 0.931 . S
C2185 C2184 1.370 . S
C2185 C2189 1.408 . S
C2186 C2184 1.363 . S
C2186 C2187 1.370 . S
C2186 C2190 1.524 . S
C2187 C2179 1.503 . S
C2187 C2186 1.370 . S
C2187 C2188 1.403 . S
C2188 C2187 1.403 . S
C2188 C2189 1.404 . S
C2188 C2191 1.539 . S
C2189 C2185 1.408 . S
C2189 C2188 1.404 . S
C2189 H2201 0.930 . S
C2190 C2186 1.524 . S
C2190 H2202 0.956 . S
C2190 H2203 0.961 . S
C2190 H2204 0.961 . S
C2191 C2188 1.539 . S
C2191 H2205 0.958 . S
C2191 H2206 0.961 . S
C2191 H2207 0.960 . S
H2192 C2176 0.931 . S
H2193 C2181 0.929 . S
H2194 C2182 0.960 . S
H2195 C2182 0.962 . S
H2196 C2182 0.960 . S
H2197 C2183 0.961 . S
H2198 C2183 0.961 . S
H2199 C2183 0.961 . S
H2200 C2184 0.931 . S
H2201 C2189 0.930 . S
H2202 C2190 0.956 . S
H2203 C2190 0.961 . S
H2204 C2190 0.961 . S
H2205 C2191 0.958 . S
H2206 C2191 0.961 . S
H2207 C2191 0.960 . S
C2208 C2209 1.391 . S
C2208 C2210 1.394 . S
C2208 H2224 0.931 . S
C2209 C2208 1.391 . S
C2209 C2213 1.376 . S
C2210 C2208 1.394 . S
C2210 C2211 1.369 . S
C2210 C2214 1.531 . S
C2211 C2210 1.369 . S
C2211 C2212 1.410 . S
C2211 C2219 1.503 . S
C2212 C2211 1.410 . S
C2212 C2213 1.392 . S
C2212 C2215 1.511 . S
C2213 C2209 1.376 . S
C2213 C2212 1.392 . S
C2213 H2225 0.929 . S
C2214 C2210 1.531 . S
C2214 H2226 0.960 . S
C2214 H2227 0.962 . S
C2214 H2228 0.960 . S
C2215 C2212 1.511 . S
C2215 H2229 0.961 . S
C2215 H2230 0.961 . S
C2215 H2231 0.961 . S
C2216 C2217 1.370 . S
C2216 C2218 1.363 . S
C2216 H2232 0.931 . S
C2217 C2216 1.370 . S
C2217 C2221 1.408 . S
C2218 C2216 1.363 . S
C2218 C2219 1.370 . S
C2218 C2222 1.524 . S
C2219 C2211 1.503 . S
C2219 C2218 1.370 . S
C2219 C2220 1.403 . S
C2220 C2219 1.403 . S
C2220 C2221 1.404 . S
C2220 C2223 1.539 . S
C2221 C2217 1.408 . S
C2221 C2220 1.404 . S
C2221 H2233 0.930 . S
C2222 C2218 1.524 . S
C2222 H2234 0.956 . S
C2222 H2235 0.961 . S
C2222 H2236 0.961 . S
C2223 C2220 1.539 . S
C2223 H2237 0.958 . S
C2223 H2238 0.961 . S
C2223 H2239 0.960 . S
H2224 C2208 0.931 . S
H2225 C2213 0.929 . S
H2226 C2214 0.960 . S
H2227 C2214 0.962 . S
H2228 C2214 0.960 . S
H2229 C2215 0.961 . S
H2230 C2215 0.961 . S
H2231 C2215 0.961 . S
H2232 C2216 0.931 . S
H2233 C2221 0.930 . S
H2234 C2222 0.956 . S
H2235 C2222 0.961 . S
H2236 C2222 0.961 . S
H2237 C2223 0.958 . S
H2238 C2223 0.961 . S
H2239 C2223 0.960 . S
C2240 C2241 1.391 . S
C2240 C2242 1.394 . S
C2240 H2256 0.931 . S
C2241 C2240 1.391 . S
C2241 C2245 1.376 . S
C2242 C2240 1.394 . S
C2242 C2243 1.369 . S
C2242 C2246 1.531 . S
C2243 C2242 1.369 . S
C2243 C2244 1.410 . S
C2243 C2251 1.503 . S
C2244 C2243 1.410 . S
C2244 C2245 1.392 . S
C2244 C2247 1.511 . S
C2245 C2241 1.376 . S
C2245 C2244 1.392 . S
C2245 H2257 0.929 . S
C2246 C2242 1.531 . S
C2246 H2258 0.960 . S
C2246 H2259 0.962 . S
C2246 H2260 0.960 . S
C2247 C2244 1.511 . S
C2247 H2261 0.961 . S
C2247 H2262 0.961 . S
C2247 H2263 0.961 . S
C2248 C2249 1.370 . S
C2248 C2250 1.363 . S
C2248 H2264 0.931 . S
C2249 C2248 1.370 . S
C2249 C2253 1.408 . S
C2250 C2248 1.363 . S
C2250 C2251 1.370 . S
C2250 C2254 1.524 . S
C2251 C2243 1.503 . S
C2251 C2250 1.370 . S
C2251 C2252 1.403 . S
C2252 C2251 1.403 . S
C2252 C2253 1.404 . S
C2252 C2255 1.539 . S
C2253 C2249 1.408 . S
C2253 C2252 1.404 . S
C2253 H2265 0.930 . S
C2254 C2250 1.524 . S
C2254 H2266 0.956 . S
C2254 H2267 0.961 . S
C2254 H2268 0.961 . S
C2255 C2252 1.539 . S
C2255 H2269 0.958 . S
C2255 H2270 0.961 . S
C2255 H2271 0.960 . S
H2256 C2240 0.931 . S
H2257 C2245 0.929 . S
H2258 C2246 0.960 . S
H2259 C2246 0.962 . S
H2260 C2246 0.960 . S
H2261 C2247 0.961 . S
H2262 C2247 0.961 . S
H2263 C2247 0.961 . S
H2264 C2248 0.931 . S
H2265 C2253 0.930 . S
H2266 C2254 0.956 . S
H2267 C2254 0.961 . S
H2268 C2254 0.961 . S
H2269 C2255 0.958 . S
H2270 C2255 0.961 . S
H2271 C2255 0.960 . S
C2272 C2273 1.391 . S
C2272 C2274 1.394 . S
C2272 H2288 0.931 . S
C2273 C2272 1.391 . S
C2273 C2277 1.376 . S
C2274 C2272 1.394 . S
C2274 C2275 1.369 . S
C2274 C2278 1.531 . S
C2275 C2274 1.369 . S
C2275 C2276 1.410 . S
C2275 C2283 1.503 . S
C2276 C2275 1.410 . S
C2276 C2277 1.392 . S
C2276 C2279 1.511 . S
C2277 C2273 1.376 . S
C2277 C2276 1.392 . S
C2277 H2289 0.929 . S
C2278 C2274 1.531 . S
C2278 H2290 0.960 . S
C2278 H2291 0.962 . S
C2278 H2292 0.960 . S
C2279 C2276 1.511 . S
C2279 H2293 0.961 . S
C2279 H2294 0.961 . S
C2279 H2295 0.961 . S
C2280 C2281 1.370 . S
C2280 C2282 1.363 1_455 S
C2280 H2296 0.931 . S
C2281 C2280 1.370 . S
C2281 C2285 1.408 . S
C2282 C2280 1.363 1_655 S
C2282 C2283 1.370 . S
C2282 C2286 1.524 . S
C2283 C2275 1.503 . S
C2283 C2282 1.370 . S
C2283 C2284 1.403 1_655 S
C2284 C2283 1.403 1_455 S
C2284 C2285 1.404 . S
C2284 C2287 1.539 . S
C2285 C2281 1.408 . S
C2285 C2284 1.404 . S
C2285 H2297 0.930 . S
C2286 C2282 1.524 . S
C2286 H2298 0.956 . S
C2286 H2299 0.961 . S
C2286 H2300 0.961 . S
C2287 C2284 1.539 . S
C2287 H2301 0.958 . S
C2287 H2302 0.961 . S
C2287 H2303 0.960 1_455 S
H2288 C2272 0.931 . S
H2289 C2277 0.929 . S
H2290 C2278 0.960 . S
H2291 C2278 0.962 . S
H2292 C2278 0.960 . S
H2293 C2279 0.961 . S
H2294 C2279 0.961 . S
H2295 C2279 0.961 . S
H2296 C2280 0.931 . S
H2297 C2285 0.930 . S
H2298 C2286 0.956 . S
H2299 C2286 0.961 . S
H2300 C2286 0.961 . S
H2301 C2287 0.958 . S
H2302 C2287 0.961 . S
H2303 C2287 0.960 1_655 S
C2304 C2305 1.391 . S
C2304 C2306 1.394 . S
C2304 H2320 0.931 . S
C2305 C2304 1.391 . S
C2305 C2309 1.376 . S
C2306 C2304 1.394 . S
C2306 C2307 1.369 . S
C2306 C2310 1.531 . S
C2307 C2306 1.369 . S
C2307 C2308 1.410 . S
C2307 C2315 1.503 . S
C2308 C2307 1.410 . S
C2308 C2309 1.392 . S
C2308 C2311 1.511 . S
C2309 C2305 1.376 . S
C2309 C2308 1.392 . S
C2309 H2321 0.929 . S
C2310 C2306 1.531 . S
C2310 H2322 0.960 . S
C2310 H2323 0.962 . S
C2310 H2324 0.960 . S
C2311 C2308 1.511 . S
C2311 H2325 0.961 . S
C2311 H2326 0.961 . S
C2311 H2327 0.961 . S
C2312 C2313 1.370 . S
C2312 C2314 1.363 . S
C2312 H2328 0.931 . S
C2313 C2312 1.370 . S
C2313 C2317 1.408 . S
C2314 C2312 1.363 . S
C2314 C2315 1.370 . S
C2314 C2318 1.524 . S
C2315 C2307 1.503 . S
C2315 C2314 1.370 . S
C2315 C2316 1.403 . S
C2316 C2315 1.403 . S
C2316 C2317 1.404 . S
C2316 C2319 1.539 . S
C2317 C2313 1.408 . S
C2317 C2316 1.404 . S
C2317 H2329 0.930 . S
C2318 C2314 1.524 . S
C2318 H2330 0.956 . S
C2318 H2331 0.961 . S
C2318 H2332 0.961 . S
C2319 C2316 1.539 . S
C2319 H2333 0.958 . S
C2319 H2334 0.961 . S
C2319 H2335 0.960 . S
H2320 C2304 0.931 . S
H2321 C2309 0.929 . S
H2322 C2310 0.960 . S
H2323 C2310 0.962 . S
H2324 C2310 0.960 . S
H2325 C2311 0.961 . S
H2326 C2311 0.961 . S
H2327 C2311 0.961 . S
H2328 C2312 0.931 . S
H2329 C2317 0.930 . S
H2330 C2318 0.956 . S
H2331 C2318 0.961 . S
H2332 C2318 0.961 . S
H2333 C2319 0.958 . S
H2334 C2319 0.961 . S
H2335 C2319 0.960 . S
C2336 C2337 1.391 . S
C2336 C2338 1.394 . S
C2336 H2352 0.931 . S
C2337 C2336 1.391 . S
C2337 C2341 1.376 . S
C2338 C2336 1.394 . S
C2338 C2339 1.369 . S
C2338 C2342 1.531 . S
C2339 C2338 1.369 . S
C2339 C2340 1.410 . S
C2339 C2347 1.503 . S
C2340 C2339 1.410 . S
C2340 C2341 1.392 . S
C2340 C2343 1.511 . S
C2341 C2337 1.376 . S
C2341 C2340 1.392 . S
C2341 H2353 0.929 . S
C2342 C2338 1.531 . S
C2342 H2354 0.960 . S
C2342 H2355 0.962 . S
C2342 H2356 0.960 . S
C2343 C2340 1.511 . S
C2343 H2357 0.961 . S
C2343 H2358 0.961 . S
C2343 H2359 0.961 . S
C2344 C2345 1.370 . S
C2344 C2346 1.363 1_455 S
C2344 H2360 0.931 . S
C2345 C2344 1.370 . S
C2345 C2349 1.408 . S
C2346 C2344 1.363 1_655 S
C2346 C2347 1.370 . S
C2346 C2350 1.524 . S
C2347 C2339 1.503 . S
C2347 C2346 1.370 . S
C2347 C2348 1.403 . S
C2348 C2347 1.403 . S
C2348 C2349 1.404 1_655 S
C2348 C2351 1.539 . S
C2349 C2345 1.408 . S
C2349 C2348 1.404 1_455 S
C2349 H2361 0.930 . S
C2350 C2346 1.524 . S
C2350 H2362 0.956 . S
C2350 H2363 0.961 . S
C2350 H2364 0.961 . S
C2351 C2348 1.539 . S
C2351 H2365 0.958 . S
C2351 H2366 0.961 . S
C2351 H2367 0.960 . S
H2352 C2336 0.931 . S
H2353 C2341 0.929 . S
H2354 C2342 0.960 . S
H2355 C2342 0.962 . S
H2356 C2342 0.960 . S
H2357 C2343 0.961 . S
H2358 C2343 0.961 . S
H2359 C2343 0.961 . S
H2360 C2344 0.931 . S
H2361 C2349 0.930 . S
H2362 C2350 0.956 . S
H2363 C2350 0.961 . S
H2364 C2350 0.961 . S
H2365 C2351 0.958 . S
H2366 C2351 0.961 . S
H2367 C2351 0.960 . S
C2368 C2369 1.391 . S
C2368 C2370 1.394 . S
C2368 H2384 0.931 . S
C2369 C2368 1.391 . S
C2369 C2373 1.376 . S
C2370 C2368 1.394 . S
C2370 C2371 1.369 . S
C2370 C2374 1.531 . S
C2371 C2370 1.369 . S
C2371 C2372 1.410 . S
C2371 C2379 1.503 . S
C2372 C2371 1.410 . S
C2372 C2373 1.392 . S
C2372 C2375 1.511 . S
C2373 C2369 1.376 . S
C2373 C2372 1.392 . S
C2373 H2385 0.929 . S
C2374 C2370 1.531 . S
C2374 H2386 0.960 . S
C2374 H2387 0.962 . S
C2374 H2388 0.960 . S
C2375 C2372 1.511 . S
C2375 H2389 0.961 . S
C2375 H2390 0.961 . S
C2375 H2391 0.961 . S
C2376 C2377 1.370 . S
C2376 C2378 1.363 . S
C2376 H2392 0.931 . S
C2377 C2376 1.370 . S
C2377 C2381 1.408 . S
C2378 C2376 1.363 . S
C2378 C2379 1.370 . S
C2378 C2382 1.524 . S
C2379 C2371 1.503 . S
C2379 C2378 1.370 . S
C2379 C2380 1.403 . S
C2380 C2379 1.403 . S
C2380 C2381 1.404 . S
C2380 C2383 1.539 . S
C2381 C2377 1.408 . S
C2381 C2380 1.404 . S
C2381 H2393 0.930 . S
C2382 C2378 1.524 . S
C2382 H2394 0.956 . S
C2382 H2395 0.961 . S
C2382 H2396 0.961 . S
C2383 C2380 1.539 . S
C2383 H2397 0.958 . S
C2383 H2398 0.961 . S
C2383 H2399 0.960 . S
H2384 C2368 0.931 . S
H2385 C2373 0.929 . S
H2386 C2374 0.960 . S
H2387 C2374 0.962 . S
H2388 C2374 0.960 . S
H2389 C2375 0.961 . S
H2390 C2375 0.961 . S
H2391 C2375 0.961 . S
H2392 C2376 0.931 . S
H2393 C2381 0.930 . S
H2394 C2382 0.956 . S
H2395 C2382 0.961 . S
H2396 C2382 0.961 . S
H2397 C2383 0.958 . S
H2398 C2383 0.961 . S
H2399 C2383 0.960 . S
C2400 C2401 1.391 . S
C2400 C2402 1.394 . S
C2400 H2416 0.931 . S
C2401 C2400 1.391 . S
C2401 C2405 1.376 . S
C2402 C2400 1.394 . S
C2402 C2403 1.369 . S
C2402 C2406 1.531 . S
C2403 C2402 1.369 . S
C2403 C2404 1.410 . S
C2403 C2411 1.503 . S
C2404 C2403 1.410 . S
C2404 C2405 1.392 . S
C2404 C2407 1.511 . S
C2405 C2401 1.376 . S
C2405 C2404 1.392 . S
C2405 H2417 0.929 . S
C2406 C2402 1.531 . S
C2406 H2418 0.960 . S
C2406 H2419 0.962 . S
C2406 H2420 0.960 . S
C2407 C2404 1.511 . S
C2407 H2421 0.961 . S
C2407 H2422 0.961 . S
C2407 H2423 0.961 . S
C2408 C2409 1.370 . S
C2408 C2410 1.363 . S
C2408 H2424 0.931 . S
C2409 C2408 1.370 . S
C2409 C2413 1.408 . S
C2410 C2408 1.363 . S
C2410 C2411 1.370 . S
C2410 C2414 1.524 . S
C2411 C2403 1.503 . S
C2411 C2410 1.370 . S
C2411 C2412 1.403 . S
C2412 C2411 1.403 . S
C2412 C2413 1.404 . S
C2412 C2415 1.539 . S
C2413 C2409 1.408 . S
C2413 C2412 1.404 . S
C2413 H2425 0.930 . S
C2414 C2410 1.524 . S
C2414 H2426 0.956 . S
C2414 H2427 0.961 . S
C2414 H2428 0.961 . S
C2415 C2412 1.539 . S
C2415 H2429 0.958 . S
C2415 H2430 0.961 . S
C2415 H2431 0.960 . S
H2416 C2400 0.931 . S
H2417 C2405 0.929 . S
H2418 C2406 0.960 . S
H2419 C2406 0.962 . S
H2420 C2406 0.960 . S
H2421 C2407 0.961 . S
H2422 C2407 0.961 . S
H2423 C2407 0.961 . S
H2424 C2408 0.931 . S
H2425 C2413 0.930 . S
H2426 C2414 0.956 . S
H2427 C2414 0.961 . S
H2428 C2414 0.961 . S
H2429 C2415 0.958 . S
H2430 C2415 0.961 . S
H2431 C2415 0.960 . S
C2432 C2433 1.391 . S
C2432 C2434 1.394 . S
C2432 H2448 0.931 . S
C2433 C2432 1.391 . S
C2433 C2437 1.376 . S
C2434 C2432 1.394 . S
C2434 C2435 1.369 . S
C2434 C2438 1.531 . S
C2435 C2434 1.369 . S
C2435 C2436 1.410 . S
C2435 C2443 1.503 . S
C2436 C2435 1.410 . S
C2436 C2437 1.392 . S
C2436 C2439 1.511 . S
C2437 C2433 1.376 . S
C2437 C2436 1.392 . S
C2437 H2449 0.929 . S
C2438 C2434 1.531 . S
C2438 H2450 0.960 . S
C2438 H2451 0.962 . S
C2438 H2452 0.960 . S
C2439 C2436 1.511 . S
C2439 H2453 0.961 . S
C2439 H2454 0.961 . S
C2439 H2455 0.961 . S
C2440 C2441 1.370 . S
C2440 C2442 1.363 . S
C2440 H2456 0.931 . S
C2441 C2440 1.370 . S
C2441 C2445 1.408 . S
C2442 C2440 1.363 . S
C2442 C2443 1.370 . S
C2442 C2446 1.524 . S
C2443 C2435 1.503 . S
C2443 C2442 1.370 . S
C2443 C2444 1.403 . S
C2444 C2443 1.403 . S
C2444 C2445 1.404 . S
C2444 C2447 1.539 . S
C2445 C2441 1.408 . S
C2445 C2444 1.404 . S
C2445 H2457 0.930 . S
C2446 C2442 1.524 . S
C2446 H2458 0.956 . S
C2446 H2459 0.961 . S
C2446 H2460 0.961 . S
C2447 C2444 1.539 . S
C2447 H2461 0.958 . S
C2447 H2462 0.961 . S
C2447 H2463 0.960 . S
H2448 C2432 0.931 . S
H2449 C2437 0.929 . S
H2450 C2438 0.960 . S
H2451 C2438 0.962 . S
H2452 C2438 0.960 . S
H2453 C2439 0.961 . S
H2454 C2439 0.961 . S
H2455 C2439 0.961 . S
H2456 C2440 0.931 . S
H2457 C2445 0.930 . S
H2458 C2446 0.956 . S
H2459 C2446 0.961 . S
H2460 C2446 0.961 . S
H2461 C2447 0.958 . S
H2462 C2447 0.961 . S
H2463 C2447 0.960 . S
C2464 C2465 1.391 . S
C2464 C2466 1.394 . S
C2464 H2480 0.931 . S
C2465 C2464 1.391 . S
C2465 C2469 1.376 . S
C2466 C2464 1.394 . S
C2466 C2467 1.369 . S
C2466 C2470 1.531 . S
C2467 C2466 1.369 . S
C2467 C2468 1.410 . S
C2467 C2475 1.503 . S
C2468 C2467 1.410 . S
C2468 C2469 1.392 . S
C2468 C2471 1.511 . S
C2469 C2465 1.376 . S
C2469 C2468 1.392 . S
C2469 H2481 0.929 . S
C2470 C2466 1.531 . S
C2470 H2482 0.960 . S
C2470 H2483 0.962 . S
C2470 H2484 0.960 . S
C2471 C2468 1.511 . S
C2471 H2485 0.961 . S
C2471 H2486 0.961 . S
C2471 H2487 0.961 . S
C2472 C2473 1.370 . S
C2472 C2474 1.363 . S
C2472 H2488 0.931 . S
C2473 C2472 1.370 . S
C2473 C2477 1.408 . S
C2474 C2472 1.363 . S
C2474 C2475 1.370 . S
C2474 C2478 1.524 . S
C2475 C2467 1.503 . S
C2475 C2474 1.370 . S
C2475 C2476 1.403 . S
C2476 C2475 1.403 . S
C2476 C2477 1.404 . S
C2476 C2479 1.539 . S
C2477 C2473 1.408 . S
C2477 C2476 1.404 . S
C2477 H2489 0.930 . S
C2478 C2474 1.524 . S
C2478 H2490 0.956 . S
C2478 H2491 0.961 . S
C2478 H2492 0.961 . S
C2479 C2476 1.539 . S
C2479 H2493 0.958 . S
C2479 H2494 0.961 . S
C2479 H2495 0.960 . S
H2480 C2464 0.931 . S
H2481 C2469 0.929 . S
H2482 C2470 0.960 . S
H2483 C2470 0.962 . S
H2484 C2470 0.960 . S
H2485 C2471 0.961 . S
H2486 C2471 0.961 . S
H2487 C2471 0.961 . S
H2488 C2472 0.931 . S
H2489 C2477 0.930 . S
H2490 C2478 0.956 . S
H2491 C2478 0.961 . S
H2492 C2478 0.961 . S
H2493 C2479 0.958 . S
H2494 C2479 0.961 . S
H2495 C2479 0.960 . S
C2496 C2497 1.391 . S
C2496 C2498 1.394 . S
C2496 H2512 0.931 . S
C2497 C2496 1.391 . S
C2497 C2501 1.376 . S
C2498 C2496 1.394 . S
C2498 C2499 1.369 . S
C2498 C2502 1.531 . S
C2499 C2498 1.369 . S
C2499 C2500 1.410 . S
C2499 C2507 1.503 . S
C2500 C2499 1.410 . S
C2500 C2501 1.392 . S
C2500 C2503 1.511 . S
C2501 C2497 1.376 . S
C2501 C2500 1.392 . S
C2501 H2513 0.929 . S
C2502 C2498 1.531 . S
C2502 H2514 0.960 . S
C2502 H2515 0.962 . S
C2502 H2516 0.960 . S
C2503 C2500 1.511 . S
C2503 H2517 0.961 . S
C2503 H2518 0.961 . S
C2503 H2519 0.961 . S
C2504 C2505 1.370 . S
C2504 C2506 1.363 . S
C2504 H2520 0.931 . S
C2505 C2504 1.370 . S
C2505 C2509 1.408 . S
C2506 C2504 1.363 . S
C2506 C2507 1.370 . S
C2506 C2510 1.524 . S
C2507 C2499 1.503 . S
C2507 C2506 1.370 . S
C2507 C2508 1.403 . S
C2508 C2507 1.403 . S
C2508 C2509 1.404 . S
C2508 C2511 1.539 . S
C2509 C2505 1.408 . S
C2509 C2508 1.404 . S
C2509 H2521 0.930 . S
C2510 C2506 1.524 . S
C2510 H2522 0.956 . S
C2510 H2523 0.961 . S
C2510 H2524 0.961 . S
C2511 C2508 1.539 . S
C2511 H2525 0.958 . S
C2511 H2526 0.961 . S
C2511 H2527 0.960 . S
H2512 C2496 0.931 . S
H2513 C2501 0.929 . S
H2514 C2502 0.960 . S
H2515 C2502 0.962 . S
H2516 C2502 0.960 . S
H2517 C2503 0.961 . S
H2518 C2503 0.961 . S
H2519 C2503 0.961 . S
H2520 C2504 0.931 . S
H2521 C2509 0.930 . S
H2522 C2510 0.956 . S
H2523 C2510 0.961 . S
H2524 C2510 0.961 . S
H2525 C2511 0.958 . S
H2526 C2511 0.961 . S
H2527 C2511 0.960 . S
C2528 C2529 1.391 . S
C2528 C2530 1.394 1_655 S
C2528 H2544 0.931 . S
C2529 C2528 1.391 . S
C2529 C2533 1.376 . S
C2530 C2528 1.394 1_455 S
C2530 C2531 1.369 . S
C2530 C2534 1.531 . S
C2531 C2530 1.369 . S
C2531 C2532 1.410 1_455 S
C2531 C2539 1.503 . S
C2532 C2531 1.410 1_655 S
C2532 C2533 1.392 . S
C2532 C2535 1.511 . S
C2533 C2529 1.376 . S
C2533 C2532 1.392 . S
C2533 H2545 0.929 . S
C2534 C2530 1.531 . S
C2534 H2546 0.960 . S
C2534 H2547 0.962 . S
C2534 H2548 0.960 . S
C2535 C2532 1.511 . S
C2535 H2549 0.961 . S
C2535 H2550 0.961 1_655 S
C2535 H2551 0.961 . S
C2536 C2537 1.370 . S
C2536 C2538 1.363 . S
C2536 H2552 0.931 . S
C2537 C2536 1.370 . S
C2537 C2541 1.408 . S
C2538 C2536 1.363 . S
C2538 C2539 1.370 . S
C2538 C2542 1.524 . S
C2539 C2531 1.503 . S
C2539 C2538 1.370 . S
C2539 C2540 1.403 . S
C2540 C2539 1.403 . S
C2540 C2541 1.404 . S
C2540 C2543 1.539 . S
C2541 C2537 1.408 . S
C2541 C2540 1.404 . S
C2541 H2553 0.930 . S
C2542 C2538 1.524 . S
C2542 H2554 0.956 . S
C2542 H2555 0.961 . S
C2542 H2556 0.961 . S
C2543 C2540 1.539 . S
C2543 H2557 0.958 . S
C2543 H2558 0.961 . S
C2543 H2559 0.960 . S
H2544 C2528 0.931 . S
H2545 C2533 0.929 . S
H2546 C2534 0.960 . S
H2547 C2534 0.962 . S
H2548 C2534 0.960 . S
H2549 C2535 0.961 . S
H2550 C2535 0.961 1_455 S
H2551 C2535 0.961 . S
H2552 C2536 0.931 . S
H2553 C2541 0.930 . S
H2554 C2542 0.956 . S
H2555 C2542 0.961 . S
H2556 C2542 0.961 . S
H2557 C2543 0.958 . S
H2558 C2543 0.961 . S
H2559 C2543 0.960 . S
C2560 C2561 1.391 . S
C2560 C2562 1.394 . S
C2560 H2576 0.931 . S
C2561 C2560 1.391 . S
C2561 C2565 1.376 . S
C2562 C2560 1.394 . S
C2562 C2563 1.369 . S
C2562 C2566 1.531 . S
C2563 C2562 1.369 . S
C2563 C2564 1.410 . S
C2563 C2571 1.503 . S
C2564 C2563 1.410 . S
C2564 C2565 1.392 . S
C2564 C2567 1.511 . S
C2565 C2561 1.376 . S
C2565 C2564 1.392 . S
C2565 H2577 0.929 . S
C2566 C2562 1.531 . S
C2566 H2578 0.960 . S
C2566 H2579 0.962 . S
C2566 H2580 0.960 . S
C2567 C2564 1.511 . S
C2567 H2581 0.961 . S
C2567 H2582 0.961 . S
C2567 H2583 0.961 . S
C2568 C2569 1.370 . S
C2568 C2570 1.363 . S
C2568 H2584 0.931 . S
C2569 C2568 1.370 . S
C2569 C2573 1.408 . S
C2570 C2568 1.363 . S
C2570 C2571 1.370 . S
C2570 C2574 1.524 . S
C2571 C2563 1.503 . S
C2571 C2570 1.370 . S
C2571 C2572 1.403 . S
C2572 C2571 1.403 . S
C2572 C2573 1.404 . S
C2572 C2575 1.539 . S
C2573 C2569 1.408 . S
C2573 C2572 1.404 . S
C2573 H2585 0.930 . S
C2574 C2570 1.524 . S
C2574 H2586 0.956 . S
C2574 H2587 0.961 . S
C2574 H2588 0.961 . S
C2575 C2572 1.539 . S
C2575 H2589 0.958 . S
C2575 H2590 0.961 . S
C2575 H2591 0.960 . S
H2576 C2560 0.931 . S
H2577 C2565 0.929 . S
H2578 C2566 0.960 . S
H2579 C2566 0.962 . S
H2580 C2566 0.960 . S
H2581 C2567 0.961 . S
H2582 C2567 0.961 . S
H2583 C2567 0.961 . S
H2584 C2568 0.931 . S
H2585 C2573 0.930 . S
H2586 C2574 0.956 . S
H2587 C2574 0.961 . S
H2588 C2574 0.961 . S
H2589 C2575 0.958 . S
H2590 C2575 0.961 . S
H2591 C2575 0.960 . S
C2592 C2593 1.391 . S
C2592 C2594 1.394 . S
C2592 H2608 0.931 . S
C2593 C2592 1.391 . S
C2593 C2597 1.376 . S
C2594 C2592 1.394 . S
C2594 C2595 1.369 . S
C2594 C2598 1.531 . S
C2595 C2594 1.369 . S
C2595 C2596 1.410 . S
C2595 C2603 1.503 . S
C2596 C2595 1.410 . S
C2596 C2597 1.392 . S
C2596 C2599 1.511 . S
C2597 C2593 1.376 . S
C2597 C2596 1.392 . S
C2597 H2609 0.929 . S
C2598 C2594 1.531 . S
C2598 H2610 0.960 . S
C2598 H2611 0.962 . S
C2598 H2612 0.960 . S
C2599 C2596 1.511 . S
C2599 H2613 0.961 . S
C2599 H2614 0.961 . S
C2599 H2615 0.961 . S
C2600 C2601 1.370 . S
C2600 C2602 1.363 1_655 S
C2600 H2616 0.931 . S
C2601 C2600 1.370 . S
C2601 C2605 1.408 . S
C2602 C2600 1.363 1_455 S
C2602 C2603 1.370 . S
C2602 C2606 1.524 . S
C2603 C2595 1.503 . S
C2603 C2602 1.370 . S
C2603 C2604 1.403 1_455 S
C2604 C2603 1.403 1_655 S
C2604 C2605 1.404 . S
C2604 C2607 1.539 1_655 S
C2605 C2601 1.408 . S
C2605 C2604 1.404 . S
C2605 H2617 0.930 . S
C2606 C2602 1.524 . S
C2606 H2618 0.956 . S
C2606 H2619 0.961 . S
C2606 H2620 0.961 . S
C2607 C2604 1.539 1_455 S
C2607 H2621 0.958 . S
C2607 H2622 0.961 1_455 S
C2607 H2623 0.960 . S
H2608 C2592 0.931 . S
H2609 C2597 0.929 . S
H2610 C2598 0.960 . S
H2611 C2598 0.962 . S
H2612 C2598 0.960 . S
H2613 C2599 0.961 . S
H2614 C2599 0.961 . S
H2615 C2599 0.961 . S
H2616 C2600 0.931 . S
H2617 C2605 0.930 . S
H2618 C2606 0.956 . S
H2619 C2606 0.961 . S
H2620 C2606 0.961 . S
H2621 C2607 0.958 . S
H2622 C2607 0.961 1_655 S
H2623 C2607 0.960 . S
C2624 C2625 1.391 . S
C2624 C2626 1.394 . S
C2624 H2640 0.931 . S
C2625 C2624 1.391 . S
C2625 C2629 1.376 . S
C2626 C2624 1.394 . S
C2626 C2627 1.369 . S
C2626 C2630 1.531 . S
C2627 C2626 1.369 . S
C2627 C2628 1.410 . S
C2627 C2635 1.503 . S
C2628 C2627 1.410 . S
C2628 C2629 1.392 . S
C2628 C2631 1.511 . S
C2629 C2625 1.376 . S
C2629 C2628 1.392 . S
C2629 H2641 0.929 . S
C2630 C2626 1.531 . S
C2630 H2642 0.960 . S
C2630 H2643 0.962 . S
C2630 H2644 0.960 . S
C2631 C2628 1.511 . S
C2631 H2645 0.961 . S
C2631 H2646 0.961 . S
C2631 H2647 0.961 . S
C2632 C2633 1.370 . S
C2632 C2634 1.363 . S
C2632 H2648 0.931 . S
C2633 C2632 1.370 . S
C2633 C2637 1.408 . S
C2634 C2632 1.363 . S
C2634 C2635 1.370 . S
C2634 C2638 1.524 . S
C2635 C2627 1.503 . S
C2635 C2634 1.370 . S
C2635 C2636 1.403 . S
C2636 C2635 1.403 . S
C2636 C2637 1.404 . S
C2636 C2639 1.539 . S
C2637 C2633 1.408 . S
C2637 C2636 1.404 . S
C2637 H2649 0.930 . S
C2638 C2634 1.524 . S
C2638 H2650 0.956 . S
C2638 H2651 0.961 . S
C2638 H2652 0.961 . S
C2639 C2636 1.539 . S
C2639 H2653 0.958 . S
C2639 H2654 0.961 . S
C2639 H2655 0.960 . S
H2640 C2624 0.931 . S
H2641 C2629 0.929 . S
H2642 C2630 0.960 . S
H2643 C2630 0.962 . S
H2644 C2630 0.960 . S
H2645 C2631 0.961 . S
H2646 C2631 0.961 . S
H2647 C2631 0.961 . S
H2648 C2632 0.931 . S
H2649 C2637 0.930 . S
H2650 C2638 0.956 . S
H2651 C2638 0.961 . S
H2652 C2638 0.961 . S
H2653 C2639 0.958 . S
H2654 C2639 0.961 . S
H2655 C2639 0.960 . S
C2656 C2657 1.391 . S
C2656 C2658 1.394 . S
C2656 H2672 0.931 . S
C2657 C2656 1.391 . S
C2657 C2661 1.376 . S
C2658 C2656 1.394 . S
C2658 C2659 1.369 . S
C2658 C2662 1.531 . S
C2659 C2658 1.369 . S
C2659 C2660 1.410 . S
C2659 C2667 1.503 . S
C2660 C2659 1.410 . S
C2660 C2661 1.392 . S
C2660 C2663 1.511 . S
C2661 C2657 1.376 . S
C2661 C2660 1.392 . S
C2661 H2673 0.929 . S
C2662 C2658 1.531 . S
C2662 H2674 0.960 . S
C2662 H2675 0.962 . S
C2662 H2676 0.960 . S
C2663 C2660 1.511 . S
C2663 H2677 0.961 . S
C2663 H2678 0.961 . S
C2663 H2679 0.961 . S
C2664 C2665 1.370 . S
C2664 C2666 1.363 . S
C2664 H2680 0.931 . S
C2665 C2664 1.370 . S
C2665 C2669 1.408 . S
C2666 C2664 1.363 . S
C2666 C2667 1.370 . S
C2666 C2670 1.524 . S
C2667 C2659 1.503 . S
C2667 C2666 1.370 . S
C2667 C2668 1.403 . S
C2668 C2667 1.403 . S
C2668 C2669 1.404 . S
C2668 C2671 1.539 . S
C2669 C2665 1.408 . S
C2669 C2668 1.404 . S
C2669 H2681 0.930 . S
C2670 C2666 1.524 . S
C2670 H2682 0.956 . S
C2670 H2683 0.961 . S
C2670 H2684 0.961 . S
C2671 C2668 1.539 . S
C2671 H2685 0.958 . S
C2671 H2686 0.961 . S
C2671 H2687 0.960 . S
H2672 C2656 0.931 . S
H2673 C2661 0.929 . S
H2674 C2662 0.960 . S
H2675 C2662 0.962 . S
H2676 C2662 0.960 . S
H2677 C2663 0.961 . S
H2678 C2663 0.961 . S
H2679 C2663 0.961 . S
H2680 C2664 0.931 . S
H2681 C2669 0.930 . S
H2682 C2670 0.956 . S
H2683 C2670 0.961 . S
H2684 C2670 0.961 . S
H2685 C2671 0.958 . S
H2686 C2671 0.961 . S
H2687 C2671 0.960 . S
C2688 C2689 1.391 . S
C2688 C2690 1.394 . S
C2688 H2704 0.931 . S
C2689 C2688 1.391 . S
C2689 C2693 1.376 . S
C2690 C2688 1.394 . S
C2690 C2691 1.369 . S
C2690 C2694 1.531 . S
C2691 C2690 1.369 . S
C2691 C2692 1.410 . S
C2691 C2699 1.503 1_545 S
C2692 C2691 1.410 . S
C2692 C2693 1.392 . S
C2692 C2695 1.511 . S
C2693 C2689 1.376 . S
C2693 C2692 1.392 . S
C2693 H2705 0.929 . S
C2694 C2690 1.531 . S
C2694 H2706 0.960 . S
C2694 H2707 0.962 . S
C2694 H2708 0.960 . S
C2695 C2692 1.511 . S
C2695 H2709 0.961 . S
C2695 H2710 0.961 1_545 S
C2695 H2711 0.961 . S
C2696 C2697 1.370 . S
C2696 C2698 1.363 . S
C2696 H2712 0.931 . S
C2697 C2696 1.370 . S
C2697 C2701 1.408 . S
C2698 C2696 1.363 . S
C2698 C2699 1.370 . S
C2698 C2702 1.524 . S
C2699 C2691 1.503 1_565 S
C2699 C2698 1.370 . S
C2699 C2700 1.403 . S
C2700 C2699 1.403 . S
C2700 C2701 1.404 . S
C2700 C2703 1.539 . S
C2701 C2697 1.408 . S
C2701 C2700 1.404 . S
C2701 H2713 0.930 . S
C2702 C2698 1.524 . S
C2702 H2714 0.956 . S
C2702 H2715 0.961 . S
C2702 H2716 0.961 . S
C2703 C2700 1.539 . S
C2703 H2717 0.958 1_565 S
C2703 H2718 0.961 . S
C2703 H2719 0.960 1_565 S
H2704 C2688 0.931 . S
H2705 C2693 0.929 . S
H2706 C2694 0.960 . S
H2707 C2694 0.962 . S
H2708 C2694 0.960 . S
H2709 C2695 0.961 . S
H2710 C2695 0.961 1_565 S
H2711 C2695 0.961 . S
H2712 C2696 0.931 . S
H2713 C2701 0.930 . S
H2714 C2702 0.956 . S
H2715 C2702 0.961 . S
H2716 C2702 0.961 . S
H2717 C2703 0.958 1_545 S
H2718 C2703 0.961 . S
H2719 C2703 0.960 1_545 S
C2720 C2721 1.391 . S
C2720 C2722 1.394 . S
C2720 H2736 0.931 . S
C2721 C2720 1.391 . S
C2721 C2725 1.376 . S
C2722 C2720 1.394 . S
C2722 C2723 1.369 . S
C2722 C2726 1.531 . S
C2723 C2722 1.369 . S
C2723 C2724 1.410 . S
C2723 C2731 1.503 . S
C2724 C2723 1.410 . S
C2724 C2725 1.392 . S
C2724 C2727 1.511 . S
C2725 C2721 1.376 . S
C2725 C2724 1.392 . S
C2725 H2737 0.929 . S
C2726 C2722 1.531 . S
C2726 H2738 0.960 . S
C2726 H2739 0.962 . S
C2726 H2740 0.960 . S
C2727 C2724 1.511 . S
C2727 H2741 0.961 . S
C2727 H2742 0.961 . S
C2727 H2743 0.961 . S
C2728 C2729 1.370 . S
C2728 C2730 1.363 . S
C2728 H2744 0.931 . S
C2729 C2728 1.370 . S
C2729 C2733 1.408 . S
C2730 C2728 1.363 . S
C2730 C2731 1.370 . S
C2730 C2734 1.524 . S
C2731 C2723 1.503 . S
C2731 C2730 1.370 . S
C2731 C2732 1.403 . S
C2732 C2731 1.403 . S
C2732 C2733 1.404 . S
C2732 C2735 1.539 . S
C2733 C2729 1.408 . S
C2733 C2732 1.404 . S
C2733 H2745 0.930 . S
C2734 C2730 1.524 . S
C2734 H2746 0.956 . S
C2734 H2747 0.961 . S
C2734 H2748 0.961 . S
C2735 C2732 1.539 . S
C2735 H2749 0.958 . S
C2735 H2750 0.961 . S
C2735 H2751 0.960 . S
H2736 C2720 0.931 . S
H2737 C2725 0.929 . S
H2738 C2726 0.960 . S
H2739 C2726 0.962 . S
H2740 C2726 0.960 . S
H2741 C2727 0.961 . S
H2742 C2727 0.961 . S
H2743 C2727 0.961 . S
H2744 C2728 0.931 . S
H2745 C2733 0.930 . S
H2746 C2734 0.956 . S
H2747 C2734 0.961 . S
H2748 C2734 0.961 . S
H2749 C2735 0.958 . S
H2750 C2735 0.961 . S
H2751 C2735 0.960 . S
C2752 C2753 1.391 . S
C2752 C2754 1.394 . S
C2752 H2768 0.931 . S
C2753 C2752 1.391 . S
C2753 C2757 1.376 . S
C2754 C2752 1.394 . S
C2754 C2755 1.369 . S
C2754 C2758 1.531 . S
C2755 C2754 1.369 . S
C2755 C2756 1.410 . S
C2755 C2763 1.503 1_565 S
C2756 C2755 1.410 . S
C2756 C2757 1.392 . S
C2756 C2759 1.511 . S
C2757 C2753 1.376 . S
C2757 C2756 1.392 . S
C2757 H2769 0.929 . S
C2758 C2754 1.531 . S
C2758 H2770 0.960 1_565 S
C2758 H2771 0.962 . S
C2758 H2772 0.960 . S
C2759 C2756 1.511 . S
C2759 H2773 0.961 . S
C2759 H2774 0.961 1_565 S
C2759 H2775 0.961 . S
C2760 C2761 1.370 . S
C2760 C2762 1.363 . S
C2760 H2776 0.931 . S
C2761 C2760 1.370 . S
C2761 C2765 1.408 . S
C2762 C2760 1.363 . S
C2762 C2763 1.370 . S
C2762 C2766 1.524 1_545 S
C2763 C2755 1.503 1_545 S
C2763 C2762 1.370 . S
C2763 C2764 1.403 . S
C2764 C2763 1.403 . S
C2764 C2765 1.404 . S
C2764 C2767 1.539 . S
C2765 C2761 1.408 . S
C2765 C2764 1.404 . S
C2765 H2777 0.930 . S
C2766 C2762 1.524 1_565 S
C2766 H2778 0.956 . S
C2766 H2779 0.961 . S
C2766 H2780 0.961 . S
C2767 C2764 1.539 . S
C2767 H2781 0.958 . S
C2767 H2782 0.961 . S
C2767 H2783 0.960 . S
H2768 C2752 0.931 . S
H2769 C2757 0.929 . S
H2770 C2758 0.960 1_545 S
H2771 C2758 0.962 . S
H2772 C2758 0.960 . S
H2773 C2759 0.961 . S
H2774 C2759 0.961 1_545 S
H2775 C2759 0.961 . S
H2776 C2760 0.931 . S
H2777 C2765 0.930 . S
H2778 C2766 0.956 . S
H2779 C2766 0.961 . S
H2780 C2766 0.961 . S
H2781 C2767 0.958 . S
H2782 C2767 0.961 . S
H2783 C2767 0.960 . S
C2784 C2785 1.391 . S
C2784 C2786 1.394 . S
C2784 H2800 0.931 . S
C2785 C2784 1.391 . S
C2785 C2789 1.376 1_556 S
C2786 C2784 1.394 . S
C2786 C2787 1.369 . S
C2786 C2790 1.531 . S
C2787 C2786 1.369 . S
C2787 C2788 1.410 1_556 S
C2787 C2795 1.503 1_556 S
C2788 C2787 1.410 1_554 S
C2788 C2789 1.392 . S
C2788 C2791 1.511 . S
C2789 C2785 1.376 1_554 S
C2789 C2788 1.392 . S
C2789 H2801 0.929 . S
C2790 C2786 1.531 . S
C2790 H2802 0.960 . S
C2790 H2803 0.962 . S
C2790 H2804 0.960 . S
C2791 C2788 1.511 . S
C2791 H2805 0.961 . S
C2791 H2806 0.961 . S
C2791 H2807 0.961 . S
C2792 C2793 1.370 . S
C2792 C2794 1.363 . S
C2792 H2808 0.931 . S
C2793 C2792 1.370 . S
C2793 C2797 1.408 . S
C2794 C2792 1.363 . S
C2794 C2795 1.370 . S
C2794 C2798 1.524 1_554 S
C2795 C2787 1.503 1_554 S
C2795 C2794 1.370 . S
C2795 C2796 1.403 . S
C2796 C2795 1.403 . S
C2796 C2797 1.404 . S
C2796 C2799 1.539 . S
C2797 C2793 1.408 . S
C2797 C2796 1.404 . S
C2797 H2809 0.930 . S
C2798 C2794 1.524 1_556 S
C2798 H2810 0.956 . S
C2798 H2811 0.961 . S
C2798 H2812 0.961 . S
C2799 C2796 1.539 . S
C2799 H2813 0.958 . S
C2799 H2814 0.961 . S
C2799 H2815 0.960 . S
H2800 C2784 0.931 . S
H2801 C2789 0.929 . S
H2802 C2790 0.960 . S
H2803 C2790 0.962 . S
H2804 C2790 0.960 . S
H2805 C2791 0.961 . S
H2806 C2791 0.961 . S
H2807 C2791 0.961 . S
H2808 C2792 0.931 . S
H2809 C2797 0.930 . S
H2810 C2798 0.956 . S
H2811 C2798 0.961 . S
H2812 C2798 0.961 . S
H2813 C2799 0.958 . S
H2814 C2799 0.961 . S
H2815 C2799 0.960 . S
C2816 C2817 1.391 . S
C2816 C2818 1.394 . S
C2816 H2832 0.931 . S
C2817 C2816 1.391 . S
C2817 C2821 1.376 . S
C2818 C2816 1.394 . S
C2818 C2819 1.369 . S
C2818 C2822 1.531 . S
C2819 C2818 1.369 . S
C2819 C2820 1.410 . S
C2819 C2827 1.503 1_545 S
C2820 C2819 1.410 . S
C2820 C2821 1.392 . S
C2820 C2823 1.511 . S
C2821 C2817 1.376 . S
C2821 C2820 1.392 . S
C2821 H2833 0.929 . S
C2822 C2818 1.531 . S
C2822 H2834 0.960 . S
C2822 H2835 0.962 . S
C2822 H2836 0.960 . S
C2823 C2820 1.511 . S
C2823 H2837 0.961 . S
C2823 H2838 0.961 1_545 S
C2823 H2839 0.961 . S
C2824 C2825 1.370 . S
C2824 C2826 1.363 . S
C2824 H2840 0.931 . S
C2825 C2824 1.370 . S
C2825 C2829 1.408 . S
C2826 C2824 1.363 . S
C2826 C2827 1.370 . S
C2826 C2830 1.524 . S
C2827 C2819 1.503 1_565 S
C2827 C2826 1.370 . S
C2827 C2828 1.403 . S
C2828 C2827 1.403 . S
C2828 C2829 1.404 . S
C2828 C2831 1.513 1_565 S
C2829 C2825 1.408 . S
C2829 C2828 1.404 . S
C2829 H2841 0.930 . S
C2830 C2826 1.524 . S
C2830 H2842 0.956 . S
C2830 H2843 0.961 . S
C2830 H2844 0.961 . S
C2831 C2828 1.513 1_545 S
C2831 H2845 0.975 . S
C2831 H2846 0.943 1_545 S
C2831 H2847 0.989 . S
H2832 C2816 0.931 . S
H2833 C2821 0.929 . S
H2834 C2822 0.960 . S
H2835 C2822 0.962 . S
H2836 C2822 0.960 . S
H2837 C2823 0.961 . S
H2838 C2823 0.961 1_565 S
H2839 C2823 0.961 . S
H2840 C2824 0.931 . S
H2841 C2829 0.930 . S
H2842 C2830 0.956 . S
H2843 C2830 0.961 . S
H2844 C2830 0.961 . S
H2845 C2831 0.975 . S
H2846 C2831 0.943 1_565 S
H2847 C2831 0.989 . S
C2848 C2849 1.391 . S
C2848 C2850 1.394 . S
C2848 H2864 0.931 . S
C2849 C2848 1.391 . S
C2849 C2853 1.376 . S
C2850 C2848 1.394 . S
C2850 C2851 1.369 . S
C2850 C2854 1.531 . S
C2851 C2850 1.369 . S
C2851 C2852 1.410 . S
C2851 C2859 1.503 . S
C2852 C2851 1.410 . S
C2852 C2853 1.392 . S
C2852 C2855 1.511 . S
C2853 C2849 1.376 . S
C2853 C2852 1.392 . S
C2853 H2865 0.929 . S
C2854 C2850 1.531 . S
C2854 H2866 0.960 . S
C2854 H2867 0.962 . S
C2854 H2868 0.960 . S
C2855 C2852 1.511 . S
C2855 H2869 0.961 . S
C2855 H2870 0.961 . S
C2855 H2871 0.961 . S
C2856 C2857 1.370 . S
C2856 C2858 1.363 . S
C2856 H2872 0.931 . S
C2857 C2856 1.370 . S
C2857 C2861 1.408 . S
C2858 C2856 1.363 . S
C2858 C2859 1.370 . S
C2858 C2862 1.524 . S
C2859 C2851 1.503 . S
C2859 C2858 1.370 . S
C2859 C2860 1.403 . S
C2860 C2859 1.403 . S
C2860 C2861 1.404 . S
C2860 C2863 1.539 . S
C2861 C2857 1.408 . S
C2861 C2860 1.404 . S
C2861 H2873 0.930 . S
C2862 C2858 1.524 . S
C2862 H2874 0.956 . S
C2862 H2875 0.961 . S
C2862 H2876 0.961 . S
C2863 C2860 1.539 . S
C2863 H2877 0.958 . S
C2863 H2878 0.961 . S
C2863 H2879 0.960 . S
H2864 C2848 0.931 . S
H2865 C2853 0.929 . S
H2866 C2854 0.960 . S
H2867 C2854 0.962 . S
H2868 C2854 0.960 . S
H2869 C2855 0.961 . S
H2870 C2855 0.961 . S
H2871 C2855 0.961 . S
H2872 C2856 0.931 . S
H2873 C2861 0.930 . S
H2874 C2862 0.956 . S
H2875 C2862 0.961 . S
H2876 C2862 0.961 . S
H2877 C2863 0.958 . S
H2878 C2863 0.961 . S
H2879 C2863 0.960 . S
C2880 C2881 1.391 . S
C2880 C2882 1.394 . S
C2880 H2896 0.931 . S
C2881 C2880 1.391 . S
C2881 C2885 1.376 . S
C2882 C2880 1.394 . S
C2882 C2883 1.369 . S
C2882 C2886 1.531 . S
C2883 C2882 1.369 . S
C2883 C2884 1.410 . S
C2883 C2891 1.503 1_545 S
C2884 C2883 1.410 . S
C2884 C2885 1.392 . S
C2884 C2887 1.511 . S
C2885 C2881 1.376 . S
C2885 C2884 1.392 . S
C2885 H2897 0.929 . S
C2886 C2882 1.531 . S
C2886 H2898 0.960 1_545 S
C2886 H2899 0.962 . S
C2886 H2900 0.960 . S
C2887 C2884 1.511 . S
C2887 H2901 0.961 . S
C2887 H2902 0.961 . S
C2887 H2903 0.961 . S
C2888 C2889 1.370 . S
C2888 C2890 1.363 . S
C2888 H2904 0.931 . S
C2889 C2888 1.370 . S
C2889 C2893 1.408 . S
C2890 C2888 1.363 . S
C2890 C2891 1.370 . S
C2890 C2894 1.524 1_565 S
C2891 C2883 1.503 1_565 S
C2891 C2890 1.370 . S
C2891 C2892 1.403 . S
C2892 C2891 1.403 . S
C2892 C2893 1.404 . S
C2892 C2895 1.539 . S
C2893 C2889 1.408 . S
C2893 C2892 1.404 . S
C2893 H2905 0.930 . S
C2894 C2890 1.524 1_545 S
C2894 H2906 0.956 . S
C2894 H2907 0.961 . S
C2894 H2908 0.962 . S
C2895 C2892 1.539 . S
C2895 H2909 0.958 . S
C2895 H2910 0.961 . S
C2895 H2911 0.960 . S
H2896 C2880 0.931 . S
H2897 C2885 0.929 . S
H2898 C2886 0.960 1_565 S
H2899 C2886 0.962 . S
H2900 C2886 0.960 . S
H2901 C2887 0.961 . S
H2902 C2887 0.961 . S
H2903 C2887 0.961 . S
H2904 C2888 0.931 . S
H2905 C2893 0.930 . S
H2906 C2894 0.956 . S
H2907 C2894 0.961 . S
H2908 C2894 0.962 . S
H2909 C2895 0.958 . S
H2910 C2895 0.961 . S
H2911 C2895 0.960 . S
C2912 C2913 1.391 . S
C2912 C2914 1.394 1_556 S
C2912 H2928 0.933 . S
C2913 C2912 1.391 . S
C2913 C2917 1.376 . S
C2914 C2912 1.394 1_554 S
C2914 C2915 1.369 1_554 S
C2914 C2918 1.531 . S
C2915 C2914 1.369 1_556 S
C2915 C2916 1.410 . S
C2915 C2923 1.503 1_556 S
C2916 C2915 1.410 . S
C2916 C2917 1.392 . S
C2916 C2919 1.511 . S
C2917 C2913 1.376 . S
C2917 C2916 1.392 . S
C2917 H2929 0.929 . S
C2918 C2914 1.531 . S
C2918 H2930 0.960 . S
C2918 H2931 0.962 . S
C2918 H2932 0.960 . S
C2919 C2916 1.511 . S
C2919 H2933 0.961 . S
C2919 H2934 0.961 . S
C2919 H2935 0.961 . S
C2920 C2921 1.370 . S
C2920 C2922 1.363 . S
C2920 H2936 0.931 . S
C2921 C2920 1.370 . S
C2921 C2925 1.408 . S
C2922 C2920 1.363 . S
C2922 C2923 1.370 . S
C2922 C2926 1.524 . S
C2923 C2915 1.503 1_554 S
C2923 C2922 1.370 . S
C2923 C2924 1.403 1_554 S
C2924 C2923 1.403 1_556 S
C2924 C2925 1.404 1_556 S
C2924 C2927 1.539 . S
C2925 C2921 1.408 . S
C2925 C2924 1.404 1_554 S
C2925 H2937 0.930 1_554 S
C2926 C2922 1.524 . S
C2926 H2938 0.956 . S
C2926 H2939 0.961 . S
C2926 H2940 0.961 . S
C2927 C2924 1.539 . S
C2927 H2941 0.958 . S
C2927 H2942 0.961 . S
C2927 H2943 0.960 . S
H2928 C2912 0.933 . S
H2929 C2917 0.929 . S
H2930 C2918 0.960 . S
H2931 C2918 0.962 . S
H2932 C2918 0.960 . S
H2933 C2919 0.961 . S
H2934 C2919 0.961 . S
H2935 C2919 0.961 . S
H2936 C2920 0.931 . S
H2937 C2925 0.930 1_556 S
H2938 C2926 0.956 . S
H2939 C2926 0.961 . S
H2940 C2926 0.961 . S
H2941 C2927 0.958 . S
H2942 C2927 0.961 . S
H2943 C2927 0.960 . S
C2944 C2945 1.391 . S
C2944 C2946 1.394 . S
C2944 H2960 0.931 . S
C2945 C2944 1.391 . S
C2945 C2949 1.376 . S
C2946 C2944 1.394 . S
C2946 C2947 1.369 . S
C2946 C2950 1.531 . S
C2947 C2946 1.369 . S
C2947 C2948 1.410 . S
C2947 C2955 1.503 . S
C2948 C2947 1.410 . S
C2948 C2949 1.392 . S
C2948 C2951 1.511 . S
C2949 C2945 1.376 . S
C2949 C2948 1.392 . S
C2949 H2961 0.929 . S
C2950 C2946 1.531 . S
C2950 H2962 0.960 . S
C2950 H2963 0.962 . S
C2950 H2964 0.960 . S
C2951 C2948 1.511 . S
C2951 H2965 0.961 . S
C2951 H2966 0.961 . S
C2951 H2967 0.961 . S
C2952 C2953 1.370 . S
C2952 C2954 1.363 . S
C2952 H2968 0.931 . S
C2953 C2952 1.370 . S
C2953 C2957 1.408 . S
C2954 C2952 1.363 . S
C2954 C2955 1.370 . S
C2954 C2958 1.524 . S
C2955 C2947 1.503 . S
C2955 C2954 1.370 . S
C2955 C2956 1.403 . S
C2956 C2955 1.403 . S
C2956 C2957 1.404 . S
C2956 C2959 1.539 . S
C2957 C2953 1.408 . S
C2957 C2956 1.404 . S
C2957 H2969 0.930 . S
C2958 C2954 1.524 . S
C2958 H2970 0.956 . S
C2958 H2971 0.961 . S
C2958 H2972 0.961 . S
C2959 C2956 1.539 . S
C2959 H2973 0.958 . S
C2959 H2974 0.961 . S
C2959 H2975 0.960 . S
H2960 C2944 0.931 . S
H2961 C2949 0.929 . S
H2962 C2950 0.960 . S
H2963 C2950 0.962 . S
H2964 C2950 0.960 . S
H2965 C2951 0.961 . S
H2966 C2951 0.961 . S
H2967 C2951 0.961 . S
H2968 C2952 0.931 . S
H2969 C2957 0.930 . S
H2970 C2958 0.956 . S
H2971 C2958 0.961 . S
H2972 C2958 0.961 . S
H2973 C2959 0.958 . S
H2974 C2959 0.961 . S
H2975 C2959 0.960 . S
C2976 C2977 1.391 1_554 S
C2976 C2978 1.394 . S
C2976 H2992 0.931 . S
C2977 C2976 1.391 1_556 S
C2977 C2981 1.376 . S
C2978 C2976 1.394 . S
C2978 C2979 1.369 1_554 S
C2978 C2982 1.531 . S
C2979 C2978 1.369 1_556 S
C2979 C2980 1.410 . S
C2979 C2987 1.503 1_556 S
C2980 C2979 1.410 . S
C2980 C2981 1.392 . S
C2980 C2983 1.511 . S
C2981 C2977 1.376 . S
C2981 C2980 1.392 . S
C2981 H2993 0.929 . S
C2982 C2978 1.531 . S
C2982 H2994 0.960 . S
C2982 H2995 0.962 . S
C2982 H2996 0.960 . S
C2983 C2980 1.511 . S
C2983 H2997 0.961 . S
C2983 H2998 0.961 . S
C2983 H2999 0.961 . S
C2984 C2985 1.370 . S
C2984 C2986 1.363 . S
C2984 H3000 0.931 . S
C2985 C2984 1.370 . S
C2985 C2989 1.408 . S
C2986 C2984 1.363 . S
C2986 C2987 1.370 . S
C2986 C2990 1.524 1_554 S
C2987 C2979 1.503 1_554 S
C2987 C2986 1.370 . S
C2987 C2988 1.403 . S
C2988 C2987 1.403 . S
C2988 C2989 1.404 . S
C2988 C2991 1.539 . S
C2989 C2985 1.408 . S
C2989 C2988 1.404 . S
C2989 H3001 0.930 . S
C2990 C2986 1.524 1_556 S
C2990 H3002 0.956 . S
C2990 H3003 0.961 . S
C2990 H3004 0.961 . S
C2991 C2988 1.539 . S
C2991 H3005 0.958 . S
C2991 H3006 0.961 . S
C2991 H3007 0.960 . S
H2992 C2976 0.931 . S
H2993 C2981 0.929 . S
H2994 C2982 0.960 . S
H2995 C2982 0.962 . S
H2996 C2982 0.960 . S
H2997 C2983 0.961 . S
H2998 C2983 0.961 . S
H2999 C2983 0.961 . S
H3000 C2984 0.931 . S
H3001 C2989 0.930 . S
H3002 C2990 0.956 . S
H3003 C2990 0.961 . S
H3004 C2990 0.961 . S
H3005 C2991 0.958 . S
H3006 C2991 0.961 . S
H3007 C2991 0.960 . S
C3008 C3009 1.391 . S
C3008 C3010 1.394 . S
C3008 H3024 0.931 . S
C3009 C3008 1.391 . S
C3009 C3013 1.376 . S
C3010 C3008 1.394 . S
C3010 C3011 1.369 . S
C3010 C3014 1.531 . S
C3011 C3010 1.369 . S
C3011 C3012 1.410 . S
C3011 C3019 1.503 . S
C3012 C3011 1.410 . S
C3012 C3013 1.392 . S
C3012 C3015 1.511 . S
C3013 C3009 1.376 . S
C3013 C3012 1.392 . S
C3013 H3025 0.929 . S
C3014 C3010 1.531 . S
C3014 H3026 0.960 . S
C3014 H3027 0.962 . S
C3014 H3028 0.960 . S
C3015 C3012 1.511 . S
C3015 H3029 0.961 . S
C3015 H3030 0.961 . S
C3015 H3031 0.961 . S
C3016 C3017 1.370 . S
C3016 C3018 1.363 . S
C3016 H3032 0.931 . S
C3017 C3016 1.370 . S
C3017 C3021 1.408 . S
C3018 C3016 1.363 . S
C3018 C3019 1.370 . S
C3018 C3022 1.524 . S
C3019 C3011 1.503 . S
C3019 C3018 1.370 . S
C3019 C3020 1.403 . S
C3020 C3019 1.403 . S
C3020 C3021 1.404 . S
C3020 C3023 1.539 . S
C3021 C3017 1.408 . S
C3021 C3020 1.404 . S
C3021 H3033 0.930 . S
C3022 C3018 1.524 . S
C3022 H3034 0.956 . S
C3022 H3035 0.961 . S
C3022 H3036 0.961 . S
C3023 C3020 1.539 . S
C3023 H3037 0.958 . S
C3023 H3038 0.961 . S
C3023 H3039 0.960 . S
H3024 C3008 0.931 . S
H3025 C3013 0.929 . S
H3026 C3014 0.960 . S
H3027 C3014 0.962 . S
H3028 C3014 0.960 . S
H3029 C3015 0.961 . S
H3030 C3015 0.961 . S
H3031 C3015 0.961 . S
H3032 C3016 0.931 . S
H3033 C3021 0.930 . S
H3034 C3022 0.956 . S
H3035 C3022 0.961 . S
H3036 C3022 0.961 . S
H3037 C3023 0.958 . S
H3038 C3023 0.961 . S
H3039 C3023 0.960 . S
C3040 C3041 1.391 . S
C3040 C3042 1.394 . S
C3040 H3056 0.931 . S
C3041 C3040 1.391 . S
C3041 C3045 1.376 . S
C3042 C3040 1.394 . S
C3042 C3043 1.369 . S
C3042 C3046 1.531 . S
C3043 C3042 1.369 . S
C3043 C3044 1.410 . S
C3043 C3051 1.503 . S
C3044 C3043 1.410 . S
C3044 C3045 1.392 . S
C3044 C3047 1.511 . S
C3045 C3041 1.376 . S
C3045 C3044 1.392 . S
C3045 H3057 0.929 . S
C3046 C3042 1.531 . S
C3046 H3058 0.960 . S
C3046 H3059 0.962 . S
C3046 H3060 0.960 . S
C3047 C3044 1.511 . S
C3047 H3061 0.961 . S
C3047 H3062 0.961 . S
C3047 H3063 0.961 . S
C3048 C3049 1.370 . S
C3048 C3050 1.363 . S
C3048 H3064 0.931 . S
C3049 C3048 1.370 . S
C3049 C3053 1.408 . S
C3050 C3048 1.363 . S
C3050 C3051 1.370 . S
C3050 C3054 1.524 . S
C3051 C3043 1.503 . S
C3051 C3050 1.370 . S
C3051 C3052 1.403 . S
C3052 C3051 1.403 . S
C3052 C3053 1.404 . S
C3052 C3055 1.539 . S
C3053 C3049 1.408 . S
C3053 C3052 1.404 . S
C3053 H3065 0.930 . S
C3054 C3050 1.524 . S
C3054 H3066 0.956 . S
C3054 H3067 0.961 . S
C3054 H3068 0.961 . S
C3055 C3052 1.539 . S
C3055 H3069 0.958 . S
C3055 H3070 0.961 . S
C3055 H3071 0.960 . S
H3056 C3040 0.931 . S
H3057 C3045 0.929 . S
H3058 C3046 0.960 . S
H3059 C3046 0.962 . S
H3060 C3046 0.960 . S
H3061 C3047 0.961 . S
H3062 C3047 0.961 . S
H3063 C3047 0.961 . S
H3064 C3048 0.931 . S
H3065 C3053 0.930 . S
H3066 C3054 0.956 . S
H3067 C3054 0.961 . S
H3068 C3054 0.961 . S
H3069 C3055 0.958 . S
H3070 C3055 0.961 . S
H3071 C3055 0.960 . S
C3072 C3073 1.391 . S
C3072 C3074 1.394 . S
C3072 H3088 0.931 . S
C3073 C3072 1.391 . S
C3073 C3077 1.376 . S
C3074 C3072 1.394 . S
C3074 C3075 1.369 . S
C3074 C3078 1.531 . S
C3075 C3074 1.369 . S
C3075 C3076 1.410 . S
C3075 C3083 1.503 . S
C3076 C3075 1.410 . S
C3076 C3077 1.392 . S
C3076 C3079 1.511 . S
C3077 C3073 1.376 . S
C3077 C3076 1.392 . S
C3077 H3089 0.929 . S
C3078 C3074 1.531 . S
C3078 H3090 0.960 . S
C3078 H3091 0.962 . S
C3078 H3092 0.960 . S
C3079 C3076 1.511 . S
C3079 H3093 0.961 . S
C3079 H3094 0.961 . S
C3079 H3095 0.961 . S
C3080 C3081 1.370 . S
C3080 C3082 1.363 . S
C3080 H3096 0.931 . S
C3081 C3080 1.370 . S
C3081 C3085 1.408 . S
C3082 C3080 1.363 . S
C3082 C3083 1.370 . S
C3082 C3086 1.524 . S
C3083 C3075 1.503 . S
C3083 C3082 1.370 . S
C3083 C3084 1.403 . S
C3084 C3083 1.403 . S
C3084 C3085 1.404 . S
C3084 C3087 1.539 . S
C3085 C3081 1.408 . S
C3085 C3084 1.404 . S
C3085 H3097 0.930 . S
C3086 C3082 1.524 . S
C3086 H3098 0.956 . S
C3086 H3099 0.961 . S
C3086 H3100 0.961 . S
C3087 C3084 1.539 . S
C3087 H3101 0.958 . S
C3087 H3102 0.961 . S
C3087 H3103 0.960 . S
H3088 C3072 0.931 . S
H3089 C3077 0.929 . S
H3090 C3078 0.960 . S
H3091 C3078 0.962 . S
H3092 C3078 0.960 . S
H3093 C3079 0.961 . S
H3094 C3079 0.961 . S
H3095 C3079 0.961 . S
H3096 C3080 0.931 . S
H3097 C3085 0.930 . S
H3098 C3086 0.956 . S
H3099 C3086 0.961 . S
H3100 C3086 0.961 . S
H3101 C3087 0.958 . S
H3102 C3087 0.961 . S
H3103 C3087 0.960 . S
C3104 C3105 1.395 . S
C3104 C3106 1.392 1_556 S
C3104 H3120 0.928 1_556 S
C3105 C3104 1.395 . S
C3105 C3109 1.376 . S
C3106 C3104 1.392 1_554 S
C3106 C3107 1.369 1_554 S
C3106 C3110 1.531 . S
C3107 C3106 1.369 1_556 S
C3107 C3108 1.410 . S
C3107 C3115 1.503 1_556 S
C3108 C3107 1.410 . S
C3108 C3109 1.392 . S
C3108 C3111 1.511 . S
C3109 C3105 1.376 . S
C3109 C3108 1.392 . S
C3109 H3121 0.929 . S
C3110 C3106 1.531 . S
C3110 H3122 0.960 . S
C3110 H3123 0.962 . S
C3110 H3124 0.960 . S
C3111 C3108 1.511 . S
C3111 H3125 0.961 . S
C3111 H3126 0.961 . S
C3111 H3127 0.961 . S
C3112 C3113 1.370 . S
C3112 C3114 1.363 . S
C3112 H3128 0.931 . S
C3113 C3112 1.370 . S
C3113 C3117 1.408 . S
C3114 C3112 1.363 . S
C3114 C3115 1.370 . S
C3114 C3118 1.524 . S
C3115 C3107 1.503 1_554 S
C3115 C3114 1.370 . S
C3115 C3116 1.403 . S
C3116 C3115 1.403 . S
C3116 C3117 1.404 . S
C3116 C3119 1.539 1_554 S
C3117 C3113 1.408 . S
C3117 C3116 1.404 . S
C3117 H3129 0.930 . S
C3118 C3114 1.524 . S
C3118 H3130 0.956 . S
C3118 H3131 0.961 1_554 S
C3118 H3132 0.961 . S
C3119 C3116 1.539 1_556 S
C3119 H3133 0.958 1_556 S
C3119 H3134 0.961 . S
C3119 H3135 0.960 . S
H3120 C3104 0.928 1_554 S
H3121 C3109 0.929 . S
H3122 C3110 0.960 . S
H3123 C3110 0.962 . S
H3124 C3110 0.960 . S
H3125 C3111 0.961 . S
H3126 C3111 0.961 . S
H3127 C3111 0.961 . S
H3128 C3112 0.931 . S
H3129 C3117 0.930 . S
H3130 C3118 0.956 . S
H3131 C3118 0.961 1_556 S
H3132 C3118 0.961 . S
H3133 C3119 0.958 1_554 S
H3134 C3119 0.961 . S
H3135 C3119 0.960 . S
C3136 C3137 1.391 . S
C3136 C3138 1.394 . S
C3136 H3152 0.931 . S
C3137 C3136 1.391 . S
C3137 C3141 1.376 . S
C3138 C3136 1.394 . S
C3138 C3139 1.369 . S
C3138 C3142 1.531 . S
C3139 C3138 1.369 . S
C3139 C3140 1.410 . S
C3139 C3147 1.503 . S
C3140 C3139 1.410 . S
C3140 C3141 1.392 . S
C3140 C3143 1.511 . S
C3141 C3137 1.376 . S
C3141 C3140 1.392 . S
C3141 H3153 0.929 . S
C3142 C3138 1.531 . S
C3142 H3154 0.960 . S
C3142 H3155 0.962 . S
C3142 H3156 0.960 . S
C3143 C3140 1.511 . S
C3143 H3157 0.961 . S
C3143 H3158 0.961 . S
C3143 H3159 0.961 . S
C3144 C3145 1.370 . S
C3144 C3146 1.363 . S
C3144 H3160 0.931 . S
C3145 C3144 1.370 . S
C3145 C3149 1.408 . S
C3146 C3144 1.363 . S
C3146 C3147 1.370 . S
C3146 C3150 1.524 . S
C3147 C3139 1.503 . S
C3147 C3146 1.370 . S
C3147 C3148 1.403 . S
C3148 C3147 1.403 . S
C3148 C3149 1.404 . S
C3148 C3151 1.539 . S
C3149 C3145 1.408 . S
C3149 C3148 1.404 . S
C3149 H3161 0.930 . S
C3150 C3146 1.524 . S
C3150 H3162 0.956 . S
C3150 H3163 0.961 . S
C3150 H3164 0.961 . S
C3151 C3148 1.539 . S
C3151 H3165 0.958 . S
C3151 H3166 0.961 . S
C3151 H3167 0.960 . S
H3152 C3136 0.931 . S
H3153 C3141 0.929 . S
H3154 C3142 0.960 . S
H3155 C3142 0.962 . S
H3156 C3142 0.960 . S
H3157 C3143 0.961 . S
H3158 C3143 0.961 . S
H3159 C3143 0.961 . S
H3160 C3144 0.931 . S
H3161 C3149 0.930 . S
H3162 C3150 0.956 . S
H3163 C3150 0.961 . S
H3164 C3150 0.961 . S
H3165 C3151 0.958 . S
H3166 C3151 0.961 . S
H3167 C3151 0.960 . S
C3168 C3169 1.391 . S
C3168 C3170 1.394 . S
C3168 H3184 0.931 . S
C3169 C3168 1.391 . S
C3169 C3173 1.376 . S
C3170 C3168 1.394 . S
C3170 C3171 1.369 . S
C3170 C3174 1.531 . S
C3171 C3170 1.369 . S
C3171 C3172 1.410 . S
C3171 C3179 1.503 . S
C3172 C3171 1.410 . S
C3172 C3173 1.392 . S
C3172 C3175 1.511 . S
C3173 C3169 1.376 . S
C3173 C3172 1.392 . S
C3173 H3185 0.929 . S
C3174 C3170 1.531 . S
C3174 H3186 0.960 . S
C3174 H3187 0.962 . S
C3174 H3188 0.960 . S
C3175 C3172 1.511 . S
C3175 H3189 0.961 . S
C3175 H3190 0.961 . S
C3175 H3191 0.961 . S
C3176 C3177 1.370 . S
C3176 C3178 1.363 . S
C3176 H3192 0.931 . S
C3177 C3176 1.370 . S
C3177 C3181 1.408 . S
C3178 C3176 1.363 . S
C3178 C3179 1.370 . S
C3178 C3182 1.524 . S
C3179 C3171 1.503 . S
C3179 C3178 1.370 . S
C3179 C3180 1.403 . S
C3180 C3179 1.403 . S
C3180 C3181 1.404 . S
C3180 C3183 1.539 . S
C3181 C3177 1.408 . S
C3181 C3180 1.404 . S
C3181 H3193 0.930 . S
C3182 C3178 1.524 . S
C3182 H3194 0.956 . S
C3182 H3195 0.961 . S
C3182 H3196 0.961 . S
C3183 C3180 1.539 . S
C3183 H3197 0.958 . S
C3183 H3198 0.961 . S
C3183 H3199 0.960 . S
H3184 C3168 0.931 . S
H3185 C3173 0.929 . S
H3186 C3174 0.960 . S
H3187 C3174 0.962 . S
H3188 C3174 0.960 . S
H3189 C3175 0.961 . S
H3190 C3175 0.961 . S
H3191 C3175 0.961 . S
H3192 C3176 0.931 . S
H3193 C3181 0.930 . S
H3194 C3182 0.956 . S
H3195 C3182 0.961 . S
H3196 C3182 0.961 . S
H3197 C3183 0.958 . S
H3198 C3183 0.961 . S
H3199 C3183 0.960 . S
C3200 C3201 1.391 . S
C3200 C3202 1.394 . S
C3200 H3216 0.931 . S
C3201 C3200 1.391 . S
C3201 C3205 1.376 . S
C3202 C3200 1.394 . S
C3202 C3203 1.369 . S
C3202 C3206 1.531 . S
C3203 C3202 1.369 . S
C3203 C3204 1.410 . S
C3203 C3211 1.503 . S
C3204 C3203 1.410 . S
C3204 C3205 1.392 . S
C3204 C3207 1.511 . S
C3205 C3201 1.376 . S
C3205 C3204 1.392 . S
C3205 H3217 0.929 . S
C3206 C3202 1.531 . S
C3206 H3218 0.960 . S
C3206 H3219 0.962 . S
C3206 H3220 0.960 . S
C3207 C3204 1.511 . S
C3207 H3221 0.961 . S
C3207 H3222 0.961 . S
C3207 H3223 0.961 . S
C3208 C3209 1.370 . S
C3208 C3210 1.363 . S
C3208 H3224 0.931 . S
C3209 C3208 1.370 . S
C3209 C3213 1.408 . S
C3210 C3208 1.363 . S
C3210 C3211 1.370 . S
C3210 C3214 1.524 . S
C3211 C3203 1.503 . S
C3211 C3210 1.370 . S
C3211 C3212 1.403 . S
C3212 C3211 1.403 . S
C3212 C3213 1.404 . S
C3212 C3215 1.539 . S
C3213 C3209 1.408 . S
C3213 C3212 1.404 . S
C3213 H3225 0.930 . S
C3214 C3210 1.524 . S
C3214 H3226 0.956 . S
C3214 H3227 0.961 . S
C3214 H3228 0.961 . S
C3215 C3212 1.539 . S
C3215 H3229 0.958 . S
C3215 H3230 0.961 . S
C3215 H3231 0.960 . S
H3216 C3200 0.931 . S
H3217 C3205 0.929 . S
H3218 C3206 0.960 . S
H3219 C3206 0.962 . S
H3220 C3206 0.960 . S
H3221 C3207 0.961 . S
H3222 C3207 0.961 . S
H3223 C3207 0.961 . S
H3224 C3208 0.931 . S
H3225 C3213 0.930 . S
H3226 C3214 0.956 . S
H3227 C3214 0.961 . S
H3228 C3214 0.961 . S
H3229 C3215 0.958 . S
H3230 C3215 0.961 . S
H3231 C3215 0.960 . S
C3232 C3233 1.391 . S
C3232 C3234 1.394 . S
C3232 H3248 0.931 . S
C3233 C3232 1.391 . S
C3233 C3237 1.376 . S
C3234 C3232 1.394 . S
C3234 C3235 1.369 . S
C3234 C3238 1.531 . S
C3235 C3234 1.369 . S
C3235 C3236 1.410 . S
C3235 C3243 1.503 . S
C3236 C3235 1.410 . S
C3236 C3237 1.392 . S
C3236 C3239 1.511 . S
C3237 C3233 1.376 . S
C3237 C3236 1.392 . S
C3237 H3249 0.929 . S
C3238 C3234 1.531 . S
C3238 H3250 0.960 . S
C3238 H3251 0.962 . S
C3238 H3252 0.960 . S
C3239 C3236 1.511 . S
C3239 H3253 0.961 . S
C3239 H3254 0.961 . S
C3239 H3255 0.961 . S
C3240 C3241 1.370 . S
C3240 C3242 1.363 . S
C3240 H3256 0.931 . S
C3241 C3240 1.370 . S
C3241 C3245 1.408 . S
C3242 C3240 1.363 . S
C3242 C3243 1.370 . S
C3242 C3246 1.524 . S
C3243 C3235 1.503 . S
C3243 C3242 1.370 . S
C3243 C3244 1.403 . S
C3244 C3243 1.403 . S
C3244 C3245 1.404 . S
C3244 C3247 1.539 . S
C3245 C3241 1.408 . S
C3245 C3244 1.404 . S
C3245 H3257 0.930 . S
C3246 C3242 1.524 . S
C3246 H3258 0.956 . S
C3246 H3259 0.961 . S
C3246 H3260 0.961 . S
C3247 C3244 1.539 . S
C3247 H3261 0.958 . S
C3247 H3262 0.961 . S
C3247 H3263 0.960 . S
H3248 C3232 0.931 . S
H3249 C3237 0.929 . S
H3250 C3238 0.960 . S
H3251 C3238 0.962 . S
H3252 C3238 0.960 . S
H3253 C3239 0.961 . S
H3254 C3239 0.961 . S
H3255 C3239 0.961 . S
H3256 C3240 0.931 . S
H3257 C3245 0.930 . S
H3258 C3246 0.956 . S
H3259 C3246 0.961 . S
H3260 C3246 0.961 . S
H3261 C3247 0.958 . S
H3262 C3247 0.961 . S
H3263 C3247 0.960 . S
C3264 C3265 1.391 . S
C3264 C3266 1.394 . S
C3264 H3280 0.931 . S
C3265 C3264 1.391 . S
C3265 C3269 1.376 . S
C3266 C3264 1.394 . S
C3266 C3267 1.369 . S
C3266 C3270 1.531 . S
C3267 C3266 1.369 . S
C3267 C3268 1.410 . S
C3267 C3275 1.503 . S
C3268 C3267 1.410 . S
C3268 C3269 1.392 . S
C3268 C3271 1.511 . S
C3269 C3265 1.376 . S
C3269 C3268 1.392 . S
C3269 H3281 0.929 . S
C3270 C3266 1.531 . S
C3270 H3282 0.960 . S
C3270 H3283 0.962 . S
C3270 H3284 0.960 . S
C3271 C3268 1.511 . S
C3271 H3285 0.961 . S
C3271 H3286 0.961 . S
C3271 H3287 0.961 . S
C3272 C3273 1.370 . S
C3272 C3274 1.363 . S
C3272 H3288 0.931 . S
C3273 C3272 1.370 . S
C3273 C3277 1.408 . S
C3274 C3272 1.363 . S
C3274 C3275 1.370 . S
C3274 C3278 1.524 . S
C3275 C3267 1.503 . S
C3275 C3274 1.370 . S
C3275 C3276 1.403 . S
C3276 C3275 1.403 . S
C3276 C3277 1.404 . S
C3276 C3279 1.539 . S
C3277 C3273 1.408 . S
C3277 C3276 1.404 . S
C3277 H3289 0.930 . S
C3278 C3274 1.524 . S
C3278 H3290 0.956 . S
C3278 H3291 0.961 . S
C3278 H3292 0.961 . S
C3279 C3276 1.539 . S
C3279 H3293 0.958 . S
C3279 H3294 0.961 . S
C3279 H3295 0.960 . S
H3280 C3264 0.931 . S
H3281 C3269 0.929 . S
H3282 C3270 0.960 . S
H3283 C3270 0.962 . S
H3284 C3270 0.960 . S
H3285 C3271 0.961 . S
H3286 C3271 0.961 . S
H3287 C3271 0.961 . S
H3288 C3272 0.931 . S
H3289 C3277 0.930 . S
H3290 C3278 0.956 . S
H3291 C3278 0.961 . S
H3292 C3278 0.961 . S
H3293 C3279 0.958 . S
H3294 C3279 0.961 . S
H3295 C3279 0.960 . S
C3296 C3297 1.391 . S
C3296 C3298 1.394 . S
C3296 H3312 0.931 . S
C3297 C3296 1.391 . S
C3297 C3301 1.376 . S
C3298 C3296 1.394 . S
C3298 C3299 1.369 . S
C3298 C3302 1.531 . S
C3299 C3298 1.369 . S
C3299 C3300 1.410 . S
C3299 C3307 1.503 . S
C3300 C3299 1.410 . S
C3300 C3301 1.392 . S
C3300 C3303 1.511 . S
C3301 C3297 1.376 . S
C3301 C3300 1.392 . S
C3301 H3313 0.929 . S
C3302 C3298 1.531 . S
C3302 H3314 0.960 . S
C3302 H3315 0.962 . S
C3302 H3316 0.960 . S
C3303 C3300 1.511 . S
C3303 H3317 0.961 . S
C3303 H3318 0.961 . S
C3303 H3319 0.961 . S
C3304 C3305 1.370 . S
C3304 C3306 1.363 . S
C3304 H3320 0.931 . S
C3305 C3304 1.370 . S
C3305 C3309 1.408 . S
C3306 C3304 1.363 . S
C3306 C3307 1.370 . S
C3306 C3310 1.524 . S
C3307 C3299 1.503 . S
C3307 C3306 1.370 . S
C3307 C3308 1.403 . S
C3308 C3307 1.403 . S
C3308 C3309 1.404 . S
C3308 C3311 1.539 . S
C3309 C3305 1.408 . S
C3309 C3308 1.404 . S
C3309 H3321 0.930 . S
C3310 C3306 1.524 . S
C3310 H3322 0.956 . S
C3310 H3323 0.961 . S
C3310 H3324 0.961 . S
C3311 C3308 1.539 . S
C3311 H3325 0.958 . S
C3311 H3326 0.961 . S
C3311 H3327 0.960 . S
H3312 C3296 0.931 . S
H3313 C3301 0.929 . S
H3314 C3302 0.960 . S
H3315 C3302 0.962 . S
H3316 C3302 0.960 . S
H3317 C3303 0.961 . S
H3318 C3303 0.961 . S
H3319 C3303 0.961 . S
H3320 C3304 0.931 . S
H3321 C3309 0.930 . S
H3322 C3310 0.956 . S
H3323 C3310 0.961 . S
H3324 C3310 0.961 . S
H3325 C3311 0.958 . S
H3326 C3311 0.961 . S
H3327 C3311 0.960 . S
C3328 C3329 1.391 . S
C3328 C3330 1.394 . S
C3328 H3344 0.931 . S
C3329 C3328 1.391 . S
C3329 C3333 1.376 . S
C3330 C3328 1.394 . S
C3330 C3331 1.369 . S
C3330 C3334 1.531 . S
C3331 C3330 1.369 . S
C3331 C3332 1.410 . S
C3331 C3339 1.503 . S
C3332 C3331 1.410 . S
C3332 C3333 1.392 . S
C3332 C3335 1.511 . S
C3333 C3329 1.376 . S
C3333 C3332 1.392 . S
C3333 H3345 0.929 . S
C3334 C3330 1.531 . S
C3334 H3346 0.960 . S
C3334 H3347 0.962 . S
C3334 H3348 0.960 . S
C3335 C3332 1.511 . S
C3335 H3349 0.961 . S
C3335 H3350 0.961 . S
C3335 H3351 0.961 . S
C3336 C3337 1.370 . S
C3336 C3338 1.363 . S
C3336 H3352 0.931 . S
C3337 C3336 1.370 . S
C3337 C3341 1.408 . S
C3338 C3336 1.363 . S
C3338 C3339 1.370 . S
C3338 C3342 1.524 . S
C3339 C3331 1.503 . S
C3339 C3338 1.370 . S
C3339 C3340 1.403 . S
C3340 C3339 1.403 . S
C3340 C3341 1.404 . S
C3340 C3343 1.539 . S
C3341 C3337 1.408 . S
C3341 C3340 1.404 . S
C3341 H3353 0.930 . S
C3342 C3338 1.524 . S
C3342 H3354 0.956 . S
C3342 H3355 0.961 . S
C3342 H3356 0.961 . S
C3343 C3340 1.539 . S
C3343 H3357 0.958 . S
C3343 H3358 0.961 . S
C3343 H3359 0.960 . S
H3344 C3328 0.931 . S
H3345 C3333 0.929 . S
H3346 C3334 0.960 . S
H3347 C3334 0.962 . S
H3348 C3334 0.960 . S
H3349 C3335 0.961 . S
H3350 C3335 0.961 . S
H3351 C3335 0.961 . S
H3352 C3336 0.931 . S
H3353 C3341 0.930 . S
H3354 C3342 0.956 . S
H3355 C3342 0.961 . S
H3356 C3342 0.961 . S
H3357 C3343 0.958 . S
H3358 C3343 0.961 . S
H3359 C3343 0.960 . S
C3360 C3361 1.391 . S
C3360 C3362 1.394 . S
C3360 H3376 0.931 . S
C3361 C3360 1.391 . S
C3361 C3365 1.376 . S
C3362 C3360 1.394 . S
C3362 C3363 1.369 . S
C3362 C3366 1.531 . S
C3363 C3362 1.369 . S
C3363 C3364 1.410 . S
C3363 C3371 1.503 . S
C3364 C3363 1.410 . S
C3364 C3365 1.392 . S
C3364 C3367 1.511 . S
C3365 C3361 1.376 . S
C3365 C3364 1.392 . S
C3365 H3377 0.929 . S
C3366 C3362 1.531 . S
C3366 H3378 0.960 . S
C3366 H3379 0.962 . S
C3366 H3380 0.960 . S
C3367 C3364 1.511 . S
C3367 H3381 0.961 . S
C3367 H3382 0.961 . S
C3367 H3383 0.961 . S
C3368 C3369 1.370 . S
C3368 C3370 1.363 . S
C3368 H3384 0.931 . S
C3369 C3368 1.370 . S
C3369 C3373 1.408 . S
C3370 C3368 1.363 . S
C3370 C3371 1.370 . S
C3370 C3374 1.524 . S
C3371 C3363 1.503 . S
C3371 C3370 1.370 . S
C3371 C3372 1.403 . S
C3372 C3371 1.403 . S
C3372 C3373 1.404 . S
C3372 C3375 1.539 . S
C3373 C3369 1.408 . S
C3373 C3372 1.404 . S
C3373 H3385 0.930 . S
C3374 C3370 1.524 . S
C3374 H3386 0.956 . S
C3374 H3387 0.961 . S
C3374 H3388 0.961 . S
C3375 C3372 1.539 . S
C3375 H3389 0.958 . S
C3375 H3390 0.961 . S
C3375 H3391 0.960 . S
H3376 C3360 0.931 . S
H3377 C3365 0.929 . S
H3378 C3366 0.960 . S
H3379 C3366 0.962 . S
H3380 C3366 0.960 . S
H3381 C3367 0.961 . S
H3382 C3367 0.961 . S
H3383 C3367 0.961 . S
H3384 C3368 0.931 . S
H3385 C3373 0.930 . S
H3386 C3374 0.956 . S
H3387 C3374 0.961 . S
H3388 C3374 0.961 . S
H3389 C3375 0.958 . S
H3390 C3375 0.961 . S
H3391 C3375 0.960 . S
C3392 C3393 1.391 . S
C3392 C3394 1.394 . S
C3392 H3408 0.931 . S
C3393 C3392 1.391 . S
C3393 C3397 1.376 . S
C3394 C3392 1.394 . S
C3394 C3395 1.369 . S
C3394 C3398 1.531 . S
C3395 C3394 1.369 . S
C3395 C3396 1.410 . S
C3395 C3403 1.503 . S
C3396 C3395 1.410 . S
C3396 C3397 1.392 . S
C3396 C3399 1.511 . S
C3397 C3393 1.376 . S
C3397 C3396 1.392 . S
C3397 H3409 0.929 . S
C3398 C3394 1.531 . S
C3398 H3410 0.960 . S
C3398 H3411 0.962 . S
C3398 H3412 0.960 . S
C3399 C3396 1.511 . S
C3399 H3413 0.961 . S
C3399 H3414 0.961 . S
C3399 H3415 0.961 . S
C3400 C3401 1.370 . S
C3400 C3402 1.363 . S
C3400 H3416 0.931 . S
C3401 C3400 1.370 . S
C3401 C3405 1.408 . S
C3402 C3400 1.363 . S
C3402 C3403 1.370 . S
C3402 C3406 1.524 . S
C3403 C3395 1.503 . S
C3403 C3402 1.370 . S
C3403 C3404 1.403 . S
C3404 C3403 1.403 . S
C3404 C3405 1.404 . S
C3404 C3407 1.539 . S
C3405 C3401 1.408 . S
C3405 C3404 1.404 . S
C3405 H3417 0.930 . S
C3406 C3402 1.524 . S
C3406 H3418 0.956 . S
C3406 H3419 0.961 . S
C3406 H3420 0.961 . S
C3407 C3404 1.539 . S
C3407 H3421 0.958 . S
C3407 H3422 0.961 . S
C3407 H3423 0.960 . S
H3408 C3392 0.931 . S
H3409 C3397 0.929 . S
H3410 C3398 0.960 . S
H3411 C3398 0.962 . S
H3412 C3398 0.960 . S
H3413 C3399 0.961 . S
H3414 C3399 0.961 . S
H3415 C3399 0.961 . S
H3416 C3400 0.931 . S
H3417 C3405 0.930 . S
H3418 C3406 0.956 . S
H3419 C3406 0.961 . S
H3420 C3406 0.961 . S
H3421 C3407 0.958 . S
H3422 C3407 0.961 . S
H3423 C3407 0.960 . S
C3424 C3425 1.391 . S
C3424 C3426 1.394 . S
C3424 H3440 0.931 . S
C3425 C3424 1.391 . S
C3425 C3429 1.376 . S
C3426 C3424 1.394 . S
C3426 C3427 1.369 . S
C3426 C3430 1.531 . S
C3427 C3426 1.369 . S
C3427 C3428 1.410 . S
C3427 C3435 1.503 . S
C3428 C3427 1.410 . S
C3428 C3429 1.392 . S
C3428 C3431 1.511 . S
C3429 C3425 1.376 . S
C3429 C3428 1.392 . S
C3429 H3441 0.929 . S
C3430 C3426 1.531 . S
C3430 H3442 0.960 . S
C3430 H3443 0.962 . S
C3430 H3444 0.960 . S
C3431 C3428 1.511 . S
C3431 H3445 0.961 . S
C3431 H3446 0.961 . S
C3431 H3447 0.961 . S
C3432 C3433 1.370 . S
C3432 C3434 1.363 . S
C3432 H3448 0.931 . S
C3433 C3432 1.370 . S
C3433 C3437 1.408 . S
C3434 C3432 1.363 . S
C3434 C3435 1.370 . S
C3434 C3438 1.524 . S
C3435 C3427 1.503 . S
C3435 C3434 1.370 . S
C3435 C3436 1.403 . S
C3436 C3435 1.403 . S
C3436 C3437 1.404 . S
C3436 C3439 1.539 . S
C3437 C3433 1.408 . S
C3437 C3436 1.404 . S
C3437 H3449 0.930 . S
C3438 C3434 1.524 . S
C3438 H3450 0.956 . S
C3438 H3451 0.961 . S
C3438 H3452 0.961 . S
C3439 C3436 1.539 . S
C3439 H3453 0.958 . S
C3439 H3454 0.961 . S
C3439 H3455 0.960 . S
H3440 C3424 0.931 . S
H3441 C3429 0.929 . S
H3442 C3430 0.960 . S
H3443 C3430 0.962 . S
H3444 C3430 0.960 . S
H3445 C3431 0.961 . S
H3446 C3431 0.961 . S
H3447 C3431 0.961 . S
H3448 C3432 0.931 . S
H3449 C3437 0.930 . S
H3450 C3438 0.956 . S
H3451 C3438 0.961 . S
H3452 C3438 0.961 . S
H3453 C3439 0.958 . S
H3454 C3439 0.961 . S
H3455 C3439 0.960 . S
C3456 C3457 1.391 . S
C3456 C3458 1.394 . S
C3456 H3472 0.931 . S
C3457 C3456 1.391 . S
C3457 C3461 1.376 . S
C3458 C3456 1.394 . S
C3458 C3459 1.369 . S
C3458 C3462 1.531 . S
C3459 C3458 1.369 . S
C3459 C3460 1.410 . S
C3459 C3467 1.503 . S
C3460 C3459 1.410 . S
C3460 C3461 1.392 . S
C3460 C3463 1.511 . S
C3461 C3457 1.376 . S
C3461 C3460 1.392 . S
C3461 H3473 0.929 . S
C3462 C3458 1.531 . S
C3462 H3474 0.960 . S
C3462 H3475 0.962 . S
C3462 H3476 0.960 . S
C3463 C3460 1.511 . S
C3463 H3477 0.961 . S
C3463 H3478 0.961 . S
C3463 H3479 0.961 . S
C3464 C3465 1.370 . S
C3464 C3466 1.363 . S
C3464 H3480 0.931 . S
C3465 C3464 1.370 . S
C3465 C3469 1.408 . S
C3466 C3464 1.363 . S
C3466 C3467 1.370 . S
C3466 C3470 1.524 . S
C3467 C3459 1.503 . S
C3467 C3466 1.370 . S
C3467 C3468 1.403 . S
C3468 C3467 1.403 . S
C3468 C3469 1.404 . S
C3468 C3471 1.539 . S
C3469 C3465 1.408 . S
C3469 C3468 1.404 . S
C3469 H3481 0.930 . S
C3470 C3466 1.524 . S
C3470 H3482 0.956 . S
C3470 H3483 0.961 . S
C3470 H3484 0.961 . S
C3471 C3468 1.539 . S
C3471 H3485 0.958 . S
C3471 H3486 0.961 . S
C3471 H3487 0.960 . S
H3472 C3456 0.931 . S
H3473 C3461 0.929 . S
H3474 C3462 0.960 . S
H3475 C3462 0.962 . S
H3476 C3462 0.960 . S
H3477 C3463 0.961 . S
H3478 C3463 0.961 . S
H3479 C3463 0.961 . S
H3480 C3464 0.931 . S
H3481 C3469 0.930 . S
H3482 C3470 0.956 . S
H3483 C3470 0.961 . S
H3484 C3470 0.961 . S
H3485 C3471 0.958 . S
H3486 C3471 0.961 . S
H3487 C3471 0.960 . S
C3488 C3489 1.391 . S
C3488 C3490 1.394 . S
C3488 H3504 0.931 . S
C3489 C3488 1.391 . S
C3489 C3493 1.376 . S
C3490 C3488 1.394 . S
C3490 C3491 1.369 . S
C3490 C3494 1.531 . S
C3491 C3490 1.369 . S
C3491 C3492 1.410 . S
C3491 C3499 1.503 . S
C3492 C3491 1.410 . S
C3492 C3493 1.392 . S
C3492 C3495 1.511 . S
C3493 C3489 1.376 . S
C3493 C3492 1.392 . S
C3493 H3505 0.929 . S
C3494 C3490 1.531 . S
C3494 H3506 0.960 . S
C3494 H3507 0.962 . S
C3494 H3508 0.960 . S
C3495 C3492 1.511 . S
C3495 H3509 0.961 . S
C3495 H3510 0.961 . S
C3495 H3511 0.961 . S
C3496 C3497 1.370 . S
C3496 C3498 1.363 . S
C3496 H3512 0.931 . S
C3497 C3496 1.370 . S
C3497 C3501 1.408 . S
C3498 C3496 1.363 . S
C3498 C3499 1.370 . S
C3498 C3502 1.524 . S
C3499 C3491 1.503 . S
C3499 C3498 1.370 . S
C3499 C3500 1.403 . S
C3500 C3499 1.403 . S
C3500 C3501 1.404 . S
C3500 C3503 1.539 . S
C3501 C3497 1.408 . S
C3501 C3500 1.404 . S
C3501 H3513 0.930 . S
C3502 C3498 1.524 . S
C3502 H3514 0.956 . S
C3502 H3515 0.961 . S
C3502 H3516 0.961 . S
C3503 C3500 1.539 . S
C3503 H3517 0.958 . S
C3503 H3518 0.961 . S
C3503 H3519 0.960 . S
H3504 C3488 0.931 . S
H3505 C3493 0.929 . S
H3506 C3494 0.960 . S
H3507 C3494 0.962 . S
H3508 C3494 0.960 . S
H3509 C3495 0.961 . S
H3510 C3495 0.961 . S
H3511 C3495 0.961 . S
H3512 C3496 0.931 . S
H3513 C3501 0.930 . S
H3514 C3502 0.956 . S
H3515 C3502 0.961 . S
H3516 C3502 0.961 . S
H3517 C3503 0.958 . S
H3518 C3503 0.961 . S
H3519 C3503 0.960 . S
C3520 C3521 1.391 . S
C3520 C3522 1.394 . S
C3520 H3536 0.931 . S
C3521 C3520 1.391 . S
C3521 C3525 1.376 . S
C3522 C3520 1.394 . S
C3522 C3523 1.369 . S
C3522 C3526 1.531 . S
C3523 C3522 1.369 . S
C3523 C3524 1.410 . S
C3523 C3531 1.503 . S
C3524 C3523 1.410 . S
C3524 C3525 1.392 . S
C3524 C3527 1.511 . S
C3525 C3521 1.376 . S
C3525 C3524 1.392 . S
C3525 H3537 0.929 . S
C3526 C3522 1.531 . S
C3526 H3538 0.960 . S
C3526 H3539 0.962 . S
C3526 H3540 0.960 . S
C3527 C3524 1.511 . S
C3527 H3541 0.961 . S
C3527 H3542 0.961 . S
C3527 H3543 0.961 . S
C3528 C3529 1.370 . S
C3528 C3530 1.363 . S
C3528 H3544 0.931 . S
C3529 C3528 1.370 . S
C3529 C3533 1.408 . S
C3530 C3528 1.363 . S
C3530 C3531 1.370 . S
C3530 C3534 1.524 . S
C3531 C3523 1.503 . S
C3531 C3530 1.370 . S
C3531 C3532 1.403 . S
C3532 C3531 1.403 . S
C3532 C3533 1.404 . S
C3532 C3535 1.539 . S
C3533 C3529 1.408 . S
C3533 C3532 1.404 . S
C3533 H3545 0.930 . S
C3534 C3530 1.524 . S
C3534 H3546 0.956 . S
C3534 H3547 0.961 . S
C3534 H3548 0.961 . S
C3535 C3532 1.539 . S
C3535 H3549 0.958 . S
C3535 H3550 0.961 . S
C3535 H3551 0.960 . S
H3536 C3520 0.931 . S
H3537 C3525 0.929 . S
H3538 C3526 0.960 . S
H3539 C3526 0.962 . S
H3540 C3526 0.960 . S
H3541 C3527 0.961 . S
H3542 C3527 0.961 . S
H3543 C3527 0.961 . S
H3544 C3528 0.931 . S
H3545 C3533 0.930 . S
H3546 C3534 0.956 . S
H3547 C3534 0.961 . S
H3548 C3534 0.961 . S
H3549 C3535 0.958 . S
H3550 C3535 0.961 . S
H3551 C3535 0.960 . S
C3552 C3553 1.391 . S
C3552 C3554 1.394 . S
C3552 H3568 0.931 . S
C3553 C3552 1.391 . S
C3553 C3557 1.376 . S
C3554 C3552 1.394 . S
C3554 C3555 1.369 . S
C3554 C3558 1.531 . S
C3555 C3554 1.369 . S
C3555 C3556 1.410 . S
C3555 C3563 1.503 . S
C3556 C3555 1.410 . S
C3556 C3557 1.392 . S
C3556 C3559 1.511 . S
C3557 C3553 1.376 . S
C3557 C3556 1.392 . S
C3557 H3569 0.929 . S
C3558 C3554 1.531 . S
C3558 H3570 0.960 . S
C3558 H3571 0.962 . S
C3558 H3572 0.960 . S
C3559 C3556 1.511 . S
C3559 H3573 0.961 . S
C3559 H3574 0.961 . S
C3559 H3575 0.961 . S
C3560 C3561 1.370 . S
C3560 C3562 1.363 . S
C3560 H3576 0.931 . S
C3561 C3560 1.370 . S
C3561 C3565 1.408 . S
C3562 C3560 1.363 . S
C3562 C3563 1.370 . S
C3562 C3566 1.524 . S
C3563 C3555 1.503 . S
C3563 C3562 1.370 . S
C3563 C3564 1.403 . S
C3564 C3563 1.403 . S
C3564 C3565 1.404 . S
C3564 C3567 1.539 . S
C3565 C3561 1.408 . S
C3565 C3564 1.404 . S
C3565 H3577 0.930 . S
C3566 C3562 1.524 . S
C3566 H3578 0.956 . S
C3566 H3579 0.961 . S
C3566 H3580 0.961 . S
C3567 C3564 1.539 . S
C3567 H3581 0.958 . S
C3567 H3582 0.961 . S
C3567 H3583 0.960 . S
H3568 C3552 0.931 . S
H3569 C3557 0.929 . S
H3570 C3558 0.960 . S
H3571 C3558 0.962 . S
H3572 C3558 0.960 . S
H3573 C3559 0.961 . S
H3574 C3559 0.961 . S
H3575 C3559 0.961 . S
H3576 C3560 0.931 . S
H3577 C3565 0.930 . S
H3578 C3566 0.956 . S
H3579 C3566 0.961 . S
H3580 C3566 0.961 . S
H3581 C3567 0.958 . S
H3582 C3567 0.961 . S
H3583 C3567 0.960 . S
C3584 C3585 1.391 . S
C3584 C3586 1.394 . S
C3584 H3600 0.931 . S
C3585 C3584 1.391 . S
C3585 C3589 1.376 . S
C3586 C3584 1.394 . S
C3586 C3587 1.369 . S
C3586 C3590 1.531 . S
C3587 C3586 1.369 . S
C3587 C3588 1.410 . S
C3587 C3595 1.503 . S
C3588 C3587 1.410 . S
C3588 C3589 1.392 . S
C3588 C3591 1.511 . S
C3589 C3585 1.376 . S
C3589 C3588 1.392 . S
C3589 H3601 0.929 . S
C3590 C3586 1.531 . S
C3590 H3602 0.960 . S
C3590 H3603 0.962 . S
C3590 H3604 0.960 . S
C3591 C3588 1.511 . S
C3591 H3605 0.961 . S
C3591 H3606 0.961 . S
C3591 H3607 0.961 . S
C3592 C3593 1.370 . S
C3592 C3594 1.363 . S
C3592 H3608 0.931 . S
C3593 C3592 1.370 . S
C3593 C3597 1.408 . S
C3594 C3592 1.363 . S
C3594 C3595 1.370 . S
C3594 C3598 1.524 . S
C3595 C3587 1.503 . S
C3595 C3594 1.370 . S
C3595 C3596 1.403 . S
C3596 C3595 1.403 . S
C3596 C3597 1.404 . S
C3596 C3599 1.539 . S
C3597 C3593 1.408 . S
C3597 C3596 1.404 . S
C3597 H3609 0.930 . S
C3598 C3594 1.524 . S
C3598 H3610 0.956 . S
C3598 H3611 0.961 . S
C3598 H3612 0.961 . S
C3599 C3596 1.539 . S
C3599 H3613 0.958 . S
C3599 H3614 0.961 . S
C3599 H3615 0.960 . S
H3600 C3584 0.931 . S
H3601 C3589 0.929 . S
H3602 C3590 0.960 . S
H3603 C3590 0.962 . S
H3604 C3590 0.960 . S
H3605 C3591 0.961 . S
H3606 C3591 0.961 . S
H3607 C3591 0.961 . S
H3608 C3592 0.931 . S
H3609 C3597 0.930 . S
H3610 C3598 0.956 . S
H3611 C3598 0.961 . S
H3612 C3598 0.961 . S
H3613 C3599 0.958 . S
H3614 C3599 0.961 . S
H3615 C3599 0.960 . S
C3616 C3617 1.391 . S
C3616 C3618 1.394 . S
C3616 H3632 0.931 . S
C3617 C3616 1.391 . S
C3617 C3621 1.376 . S
C3618 C3616 1.394 . S
C3618 C3619 1.369 . S
C3618 C3622 1.531 . S
C3619 C3618 1.369 . S
C3619 C3620 1.410 . S
C3619 C3627 1.503 . S
C3620 C3619 1.410 . S
C3620 C3621 1.392 . S
C3620 C3623 1.511 . S
C3621 C3617 1.376 . S
C3621 C3620 1.392 . S
C3621 H3633 0.929 . S
C3622 C3618 1.531 . S
C3622 H3634 0.960 . S
C3622 H3635 0.962 . S
C3622 H3636 0.960 . S
C3623 C3620 1.511 . S
C3623 H3637 0.961 . S
C3623 H3638 0.961 . S
C3623 H3639 0.961 . S
C3624 C3625 1.370 . S
C3624 C3626 1.363 . S
C3624 H3640 0.931 . S
C3625 C3624 1.370 . S
C3625 C3629 1.408 . S
C3626 C3624 1.363 . S
C3626 C3627 1.370 . S
C3626 C3630 1.524 . S
C3627 C3619 1.503 . S
C3627 C3626 1.370 . S
C3627 C3628 1.403 . S
C3628 C3627 1.403 . S
C3628 C3629 1.404 . S
C3628 C3631 1.539 . S
C3629 C3625 1.408 . S
C3629 C3628 1.404 . S
C3629 H3641 0.930 . S
C3630 C3626 1.524 . S
C3630 H3642 0.956 . S
C3630 H3643 0.961 . S
C3630 H3644 0.961 . S
C3631 C3628 1.539 . S
C3631 H3645 0.958 . S
C3631 H3646 0.961 . S
C3631 H3647 0.960 . S
H3632 C3616 0.931 . S
H3633 C3621 0.929 . S
H3634 C3622 0.960 . S
H3635 C3622 0.962 . S
H3636 C3622 0.960 . S
H3637 C3623 0.961 . S
H3638 C3623 0.961 . S
H3639 C3623 0.961 . S
H3640 C3624 0.931 . S
H3641 C3629 0.930 . S
H3642 C3630 0.956 . S
H3643 C3630 0.961 . S
H3644 C3630 0.961 . S
H3645 C3631 0.958 . S
H3646 C3631 0.961 . S
H3647 C3631 0.960 . S
C3648 C3649 1.391 . S
C3648 C3650 1.394 . S
C3648 H3664 0.931 . S
C3649 C3648 1.391 . S
C3649 C3653 1.376 . S
C3650 C3648 1.394 . S
C3650 C3651 1.369 . S
C3650 C3654 1.531 . S
C3651 C3650 1.369 . S
C3651 C3652 1.410 . S
C3651 C3659 1.503 . S
C3652 C3651 1.410 . S
C3652 C3653 1.392 . S
C3652 C3655 1.511 . S
C3653 C3649 1.376 . S
C3653 C3652 1.392 . S
C3653 H3665 0.929 . S
C3654 C3650 1.531 . S
C3654 H3666 0.960 . S
C3654 H3667 0.962 . S
C3654 H3668 0.960 . S
C3655 C3652 1.511 . S
C3655 H3669 0.961 . S
C3655 H3670 0.961 . S
C3655 H3671 0.961 . S
C3656 C3657 1.370 . S
C3656 C3658 1.363 . S
C3656 H3672 0.931 . S
C3657 C3656 1.370 . S
C3657 C3661 1.408 . S
C3658 C3656 1.363 . S
C3658 C3659 1.370 . S
C3658 C3662 1.524 . S
C3659 C3651 1.503 . S
C3659 C3658 1.370 . S
C3659 C3660 1.403 . S
C3660 C3659 1.403 . S
C3660 C3661 1.404 . S
C3660 C3663 1.539 . S
C3661 C3657 1.408 . S
C3661 C3660 1.404 . S
C3661 H3673 0.930 . S
C3662 C3658 1.524 . S
C3662 H3674 0.956 . S
C3662 H3675 0.961 . S
C3662 H3676 0.961 . S
C3663 C3660 1.539 . S
C3663 H3677 0.958 . S
C3663 H3678 0.961 . S
C3663 H3679 0.960 . S
H3664 C3648 0.931 . S
H3665 C3653 0.929 . S
H3666 C3654 0.960 . S
H3667 C3654 0.962 . S
H3668 C3654 0.960 . S
H3669 C3655 0.961 . S
H3670 C3655 0.961 . S
H3671 C3655 0.961 . S
H3672 C3656 0.931 . S
H3673 C3661 0.930 . S
H3674 C3662 0.956 . S
H3675 C3662 0.961 . S
H3676 C3662 0.961 . S
H3677 C3663 0.958 . S
H3678 C3663 0.961 . S
H3679 C3663 0.960 . S
C3680 C3681 1.391 . S
C3680 C3682 1.394 . S
C3680 H3696 0.931 . S
C3681 C3680 1.391 . S
C3681 C3685 1.376 . S
C3682 C3680 1.394 . S
C3682 C3683 1.369 . S
C3682 C3686 1.531 . S
C3683 C3682 1.369 . S
C3683 C3684 1.410 . S
C3683 C3691 1.503 . S
C3684 C3683 1.410 . S
C3684 C3685 1.392 . S
C3684 C3687 1.511 . S
C3685 C3681 1.376 . S
C3685 C3684 1.392 . S
C3685 H3697 0.929 . S
C3686 C3682 1.531 . S
C3686 H3698 0.960 . S
C3686 H3699 0.962 . S
C3686 H3700 0.960 . S
C3687 C3684 1.511 . S
C3687 H3701 0.961 . S
C3687 H3702 0.961 . S
C3687 H3703 0.961 . S
C3688 C3689 1.370 . S
C3688 C3690 1.363 . S
C3688 H3704 0.931 . S
C3689 C3688 1.370 . S
C3689 C3693 1.408 . S
C3690 C3688 1.363 . S
C3690 C3691 1.370 . S
C3690 C3694 1.524 . S
C3691 C3683 1.503 . S
C3691 C3690 1.370 . S
C3691 C3692 1.403 . S
C3692 C3691 1.403 . S
C3692 C3693 1.404 . S
C3692 C3695 1.539 . S
C3693 C3689 1.408 . S
C3693 C3692 1.404 . S
C3693 H3705 0.930 . S
C3694 C3690 1.524 . S
C3694 H3706 0.956 . S
C3694 H3707 0.961 . S
C3694 H3708 0.961 . S
C3695 C3692 1.539 . S
C3695 H3709 0.958 . S
C3695 H3710 0.961 . S
C3695 H3711 0.960 . S
H3696 C3680 0.931 . S
H3697 C3685 0.929 . S
H3698 C3686 0.960 . S
H3699 C3686 0.962 . S
H3700 C3686 0.960 . S
H3701 C3687 0.961 . S
H3702 C3687 0.961 . S
H3703 C3687 0.961 . S
H3704 C3688 0.931 . S
H3705 C3693 0.930 . S
H3706 C3694 0.956 . S
H3707 C3694 0.961 . S
H3708 C3694 0.961 . S
H3709 C3695 0.958 . S
H3710 C3695 0.961 . S
H3711 C3695 0.960 . S
C641 C12 1.374 . S
C649 C62 1.365 . S
C673 C2 1.304 . S
C681 C32 1.363 . S
C705 C52 1.382 . S
C713 C22 1.367 . S
C737 C42 1.337 . S
C745 C72 1.380 . S
C769 C102 1.355 . S
C777 C92 1.363 . S
C801 C112 1.399 . S
C809 C122 1.369 . S
C833 C142 1.304 . S
C841 C132 1.363 . S
C865 C82 1.326 . S
C873 C152 1.376 . S
C897 C169 1.373 . S
C905 C224 1.368 . S
C929 C189 1.403 . S
C937 C164 1.367 . S
C961 C209 1.391 . S
C969 C184 1.369 . S
C993 C229 1.375 . S
C1001 C204 1.336 . S
C1025 C249 1.336 . S
C1033 C264 1.353 . S
C1057 C269 1.340 . S
C1065 C284 1.356 . S
C1089 C304 1.308 . S
C1097 C289 1.372 . S
C1121 C244 1.341 . S
C1129 C309 1.385 . S
C1153 C332 1.347 . S
C1161 C382 1.354 . S
C1185 C322 1.361 . S
C1193 C352 1.365 . S
C1217 C342 1.328 . S
C1225 C372 1.377 . S
C1249 C392 1.404 . S
C1257 C362 1.369 . S
C1281 C412 1.385 . S
C1289 C422 1.345 . S
C1313 C442 1.360 . S
C1321 C432 1.386 . S
C1345 C452 1.393 . S
C1353 C462 1.369 . S
C1377 C402 1.337 . S
C1385 C472 1.359 . S
C1409 C544 1.372 . S
C1417 C489 1.364 . S
C1441 C484 1.384 . S
C1449 C509 1.387 . S
C1473 C529 1.336 . S
C1481 C504 1.334 . S
C1505 C524 1.328 . S
C1513 C549 1.382 . S
C1537 C584 1.364 . S
C1545 C569 1.362 . S
C1569 C604 1.311 . S
C1577 C589 1.357 . S
C1601 C624 1.303 . S
C1609 C609 1.365 . S
C1633 C629 1.352 . S
C1641 C564 1.362 . S
C1665 C552 1.461 . S
C1673 C18 1.465 . S
C1697 C38 1.440 . S
C1705 C172 1.433 . S
C1729 C58 1.467 . S
C1737 C512 1.450 . S
C1761 C78 1.462 . S
C1769 C212 1.446 . S
C1793 C98 1.448 . S
C1801 C592 1.438 . S
C1825 C292 1.443 . S
C1833 C118 1.459 . S
C1857 C632 1.425 . S
C1865 C138 1.455 . S
C1889 C158 1.449 . S
C1897 C252 1.438 . S
C1921 C179 1.440 . S
C1929 C389 1.436 . S
C1953 C9 1.440 . S
C1961 C199 1.461 . S
C1985 C349 1.417 . S
C1993 C219 1.454 . S
C2017 C49 1.459 . S
C2025 C239 1.462 . S
C2049 C429 1.416 . S
C2057 C259 1.453 . S
C2081 C129 1.462 . S
C2089 C279 1.465 . S
C2113 C299 1.470 . S
C2121 C469 1.452 . S
C2145 C319 1.465 . S
C2153 C89 1.451 . S
C2177 C338 1.439 . S
C2185 C232 1.433 . S
C2209 C358 1.466 . S
C2217 C492 1.449 . S
C2241 C378 1.439 . S
C2249 C192 1.433 . S
C2273 C398 1.448 . S
C2281 C532 1.438 . S
C2305 C418 1.438 . S
C2313 C272 1.433 . S
C2337 C438 1.460 . S
C2345 C612 1.445 . S
C2369 C312 1.436 . S
C2377 C458 1.457 . S
C2401 C478 1.450 . S
C2409 C572 1.441 . S
C2433 C69 1.417 . S
C2441 C499 1.454 . S
C2465 C329 1.421 . S
C2473 C519 1.455 . S
C2497 C29 1.456 . S
C2505 C539 1.465 . S
C2529 C369 1.426 . S
C2537 C559 1.453 . S
C2561 C109 1.462 . S
C2569 C579 1.465 . S
C2593 C599 1.452 . S
C2601 C449 1.437 . S
C2625 C619 1.446 . S
C2633 C149 1.441 . S
C2657 C409 1.461 . S
C2665 C639 1.465 . S
C2689 C19 0.596 . S
C2697 C99 0.542 . S
C2721 C39 0.597 . S
C2729 C119 0.558 . S
C2753 C59 0.506 . S
C2761 C139 0.587 . S
C2785 C159 0.599 . S
C2793 C79 0.557 . S
C2817 C258 0.621 . S
C2825 C178 0.549 . S
C2849 C278 0.528 . S
C2857 C198 0.587 . S
C2881 C218 0.503 . S
C2889 C298 0.580 . S
C2913 C238 0.535 . S
C2921 C318 0.586 . S
C2945 C339 0.620 . S
C2953 C419 0.537 . S
C2977 C439 0.575 . S
C2985 C359 0.550 . S
C3009 C459 0.569 . S
C3017 C379 0.552 . S
C3041 C479 0.611 . S
C3049 C399 0.550 . S
C3073 C578 0.623 . S
C3081 C498 0.547 . S
C3105 C518 0.566 . S
C3113 C598 0.579 . S
C3137 C618 0.616 . S
C3145 C538 0.554 . S
C3169 C558 0.527 . S
C3177 C638 0.587 . S
C3201 C144 1.635 . S
C3209 C4 1.614 . S
C3233 C24 1.597 . S
C3241 C84 1.608 . S
C3265 C44 1.602 . S
C3273 C104 1.592 . S
C3297 C124 1.597 . S
C3305 C64 1.591 . S
C3329 C162 1.571 . S
C3337 C302 1.602 . S
C3361 C242 1.635 . S
C3369 C182 1.608 . S
C3393 C262 1.603 . S
C3401 C202 1.588 . S
C3425 C222 1.576 . S
C3433 C282 1.605 . S
C3457 C324 1.635 . S
C3465 C464 1.612 . S
C3489 C404 1.590 . S
C3497 C344 1.605 . S
C3521 C424 1.632 . S
C3529 C364 1.615 . S
C3553 C444 1.590 . S
C3561 C384 1.588 . S
C3585 C482 1.567 . S
C3593 C622 1.581 . S
C3617 C562 1.626 . S
C3625 C502 1.615 . S
C3649 C522 1.630 . S
C3657 C582 1.614 . S
C3681 C602 1.632 . S
C3689 C542 1.613 . S
