# Generated by pormake.
# Topology xfh, (7)-cn, num edge types: 1
# Building blocks:
#     Node 0, Type 0, BuildingBlock: NUHQUE_clean_sbu_2, # of connection points: 7
#     Node 1, Type 0, BuildingBlock: NUHQUE_clean_sbu_2, # of connection points: 7
#     Node 2, Type 0, BuildingBlock: NUHQUE_clean_sbu_2, # of connection points: 7
#     Node 3, Type 0, BuildingBlock: NUHQUE_clean_sbu_2, # of connection points: 7
#     Node 4, Type 0, BuildingBlock: NUHQUE_clean_sbu_2, # of connection points: 7
#     Node 5, Type 0, BuildingBlock: NUHQUE_clean_sbu_2, # of connection points: 7
#     Node 6, Type 0, BuildingBlock: NUHQUE_clean_sbu_2, # of connection points: 7
#     Node 7, Type 0, BuildingBlock: NUHQUE_clean_sbu_2, # of connection points: 7
#     Node 8, Type 0, BuildingBlock: NUHQUE_clean_sbu_2, # of connection points: 7
#     Node 9, Type 0, BuildingBlock: NUHQUE_clean_sbu_2, # of connection points: 7
#     Node 10, Type 0, BuildingBlock: NUHQUE_clean_sbu_2, # of connection points: 7
#     Node 11, Type 0, BuildingBlock: NUHQUE_clean_sbu_2, # of connection points: 7
#     Node 12, Type 0, BuildingBlock: NUHQUE_clean_sbu_2, # of connection points: 7
#     Node 13, Type 0, BuildingBlock: NUHQUE_clean_sbu_2, # of connection points: 7
#     Node 14, Type 0, BuildingBlock: NUHQUE_clean_sbu_2, # of connection points: 7
#     Node 15, Type 0, BuildingBlock: NUHQUE_clean_sbu_2, # of connection points: 7
#     Edge 16, Type (0, 0), BuildingBlock: OJICUG_clean_linker_0, # of connection points: 2
#     Edge 17, Type (0, 0), BuildingBlock: OJICUG_clean_linker_0, # of connection points: 2
#     Edge 18, Type (0, 0), BuildingBlock: OJICUG_clean_linker_0, # of connection points: 2
#     Edge 19, Type (0, 0), BuildingBlock: OJICUG_clean_linker_0, # of connection points: 2
#     Edge 20, Type (0, 0), BuildingBlock: OJICUG_clean_linker_0, # of connection points: 2
#     Edge 21, Type (0, 0), BuildingBlock: OJICUG_clean_linker_0, # of connection points: 2
#     Edge 22, Type (0, 0), BuildingBlock: OJICUG_clean_linker_0, # of connection points: 2
#     Edge 23, Type (0, 0), BuildingBlock: OJICUG_clean_linker_0, # of connection points: 2
#     Edge 24, Type (0, 0), BuildingBlock: OJICUG_clean_linker_0, # of connection points: 2
#     Edge 25, Type (0, 0), BuildingBlock: OJICUG_clean_linker_0, # of connection points: 2
#     Edge 26, Type (0, 0), BuildingBlock: OJICUG_clean_linker_0, # of connection points: 2
#     Edge 27, Type (0, 0), BuildingBlock: OJICUG_clean_linker_0, # of connection points: 2
#     Edge 28, Type (0, 0), BuildingBlock: OJICUG_clean_linker_0, # of connection points: 2
#     Edge 29, Type (0, 0), BuildingBlock: OJICUG_clean_linker_0, # of connection points: 2
#     Edge 30, Type (0, 0), BuildingBlock: OJICUG_clean_linker_0, # of connection points: 2
#     Edge 31, Type (0, 0), BuildingBlock: OJICUG_clean_linker_0, # of connection points: 2
#     Edge 32, Type (0, 0), BuildingBlock: OJICUG_clean_linker_0, # of connection points: 2
#     Edge 33, Type (0, 0), BuildingBlock: OJICUG_clean_linker_0, # of connection points: 2
#     Edge 34, Type (0, 0), BuildingBlock: OJICUG_clean_linker_0, # of connection points: 2
#     Edge 35, Type (0, 0), BuildingBlock: OJICUG_clean_linker_0, # of connection points: 2
#     Edge 36, Type (0, 0), BuildingBlock: OJICUG_clean_linker_0, # of connection points: 2
#     Edge 37, Type (0, 0), BuildingBlock: OJICUG_clean_linker_0, # of connection points: 2
#     Edge 38, Type (0, 0), BuildingBlock: OJICUG_clean_linker_0, # of connection points: 2
#     Edge 39, Type (0, 0), BuildingBlock: OJICUG_clean_linker_0, # of connection points: 2
#     Edge 40, Type (0, 0), BuildingBlock: OJICUG_clean_linker_0, # of connection points: 2
#     Edge 41, Type (0, 0), BuildingBlock: OJICUG_clean_linker_0, # of connection points: 2
#     Edge 42, Type (0, 0), BuildingBlock: OJICUG_clean_linker_0, # of connection points: 2
#     Edge 43, Type (0, 0), BuildingBlock: OJICUG_clean_linker_0, # of connection points: 2
#     Edge 44, Type (0, 0), BuildingBlock: OJICUG_clean_linker_0, # of connection points: 2
#     Edge 45, Type (0, 0), BuildingBlock: OJICUG_clean_linker_0, # of connection points: 2
#     Edge 46, Type (0, 0), BuildingBlock: OJICUG_clean_linker_0, # of connection points: 2
#     Edge 47, Type (0, 0), BuildingBlock: OJICUG_clean_linker_0, # of connection points: 2
#     Edge 48, Type (0, 0), BuildingBlock: OJICUG_clean_linker_0, # of connection points: 2
#     Edge 49, Type (0, 0), BuildingBlock: OJICUG_clean_linker_0, # of connection points: 2
#     Edge 50, Type (0, 0), BuildingBlock: OJICUG_clean_linker_0, # of connection points: 2
#     Edge 51, Type (0, 0), BuildingBlock: OJICUG_clean_linker_0, # of connection points: 2
#     Edge 52, Type (0, 0), BuildingBlock: OJICUG_clean_linker_0, # of connection points: 2
#     Edge 53, Type (0, 0), BuildingBlock: OJICUG_clean_linker_0, # of connection points: 2
#     Edge 54, Type (0, 0), BuildingBlock: OJICUG_clean_linker_0, # of connection points: 2
#     Edge 55, Type (0, 0), BuildingBlock: OJICUG_clean_linker_0, # of connection points: 2
#     Edge 56, Type (0, 0), BuildingBlock: OJICUG_clean_linker_0, # of connection points: 2
#     Edge 57, Type (0, 0), BuildingBlock: OJICUG_clean_linker_0, # of connection points: 2
#     Edge 58, Type (0, 0), BuildingBlock: OJICUG_clean_linker_0, # of connection points: 2
#     Edge 59, Type (0, 0), BuildingBlock: OJICUG_clean_linker_0, # of connection points: 2
#     Edge 60, Type (0, 0), BuildingBlock: OJICUG_clean_linker_0, # of connection points: 2
#     Edge 61, Type (0, 0), BuildingBlock: OJICUG_clean_linker_0, # of connection points: 2
#     Edge 62, Type (0, 0), BuildingBlock: OJICUG_clean_linker_0, # of connection points: 2
#     Edge 63, Type (0, 0), BuildingBlock: OJICUG_clean_linker_0, # of connection points: 2
#     Edge 64, Type (0, 0), BuildingBlock: OJICUG_clean_linker_0, # of connection points: 2
#     Edge 65, Type (0, 0), BuildingBlock: OJICUG_clean_linker_0, # of connection points: 2
#     Edge 66, Type (0, 0), BuildingBlock: OJICUG_clean_linker_0, # of connection points: 2
#     Edge 67, Type (0, 0), BuildingBlock: OJICUG_clean_linker_0, # of connection points: 2
#     Edge 68, Type (0, 0), BuildingBlock: OJICUG_clean_linker_0, # of connection points: 2
#     Edge 69, Type (0, 0), BuildingBlock: OJICUG_clean_linker_0, # of connection points: 2
#     Edge 70, Type (0, 0), BuildingBlock: OJICUG_clean_linker_0, # of connection points: 2
#     Edge 71, Type (0, 0), BuildingBlock: OJICUG_clean_linker_0, # of connection points: 2
# Relax obj value: 0.269
# Max RMSD: 0.282
# Mean RMSD: 0.269
data_MOF--net-xfh--node1-NUHQUE_clean_sbu_2--edge1-OJICUG_clean_linker_0
_symmetry_space_group_name_H-M    P1
_symmetry_Int_Tables_number       1
_symmetry_cell_setting            triclinic
loop_
_symmetry_equiv_pos_as_xyz
'x, y, z'
_cell_length_a     27.014482
_cell_length_b     25.953492
_cell_length_c     54.623902
_cell_angle_alpha  90.59163
_cell_angle_beta   89.498601
_cell_angle_gamma 89.971533
loop_
_atom_site_label
_atom_site_type_symbol
_atom_site_fract_x
_atom_site_fract_y
_atom_site_fract_z
_atom_type_partial_charge
O0 O 0.22242 0.08379 0.06589 0.0
Tb1 Tb 0.2215 0.07927 0.10555 0.0
Eu2 Eu 0.34254 0.10264 0.13946 0.0
C3 C 0.24402 0.1211 0.05376 0.0
O4 O 0.2672 0.1578 0.06579 0.0
C5 C 0.25837 0.191 0.12744 0.0
O6 O 0.36343 0.09691 0.17905 0.0
C7 C 0.41928 0.09878 0.1109 0.0
C8 C 0.32685 0.09025 0.19471 0.0
O9 O 0.28126 0.09167 0.18653 0.0
C10 C 0.2853 0.9978 0.12999 0.0
C11 C 0.46169 0.06775 0.10192 0.0
C12 C 0.4658 0.05887 0.07662 0.0
C13 C 0.50738 0.03396 0.06656 0.0
C14 C 0.54482 0.01731 0.08213 0.0
C15 C 0.54155 0.02541 0.10756 0.0
C16 C 0.49997 0.05124 0.11744 0.0
O17 O 0.22727 0.16104 0.11526 0.0
O18 O 0.30053 0.17662 0.13725 0.0
O19 O 0.14758 0.05172 0.09638 0.0
O20 O 0.16504 0.06293 0.13385 0.0
C21 C 0.13047 0.04903 0.11863 0.0
O22 O 0.30559 0.02763 0.14641 0.0
O23 O 0.2733 1.01553 0.10854 0.0
O24 O 0.42072 0.11705 0.13347 0.0
O25 O 0.3746 0.08511 0.10367 0.0
H26 H 0.43725 0.07315 0.06461 0.0
H27 H 0.57714 0.99835 0.07431 0.0
H28 H 0.49766 0.05853 0.13698 0.0
O29 O 0.707 0.73043 0.40238 0.0
Tb30 Tb 0.70065 0.64685 0.4055 0.0
Eu31 Eu 0.70728 0.50652 0.36431 0.0
C32 C 0.74187 0.75322 0.38948 0.0
O33 O 0.77201 0.72532 0.3758 0.0
C34 C 0.78973 0.58001 0.38738 0.0
O35 O 0.72134 0.42036 0.3629 0.0
C36 C 0.69588 0.55008 0.3225 0.0
C37 C 0.69648 0.38938 0.37746 0.0
O38 O 0.66083 0.40885 0.39118 0.0
C39 C 0.62369 0.56599 0.39139 0.0
C40 C 0.68938 0.57509 0.29854 0.0
C41 C 0.7122 0.62282 0.29336 0.0
C42 C 0.70997 0.64302 0.26962 0.0
C43 C 0.68681 0.61462 0.25109 0.0
C44 C 0.66609 0.5661 0.25555 0.0
C45 C 0.6656 0.54764 0.27968 0.0
O46 O 0.7619 0.62018 0.38199 0.0
O47 O 0.77609 0.53236 0.38249 0.0
O48 O 0.68504 0.66248 0.44418 0.0
O49 O 0.73725 0.60443 0.43474 0.0
C50 C 0.71584 0.629 0.45277 0.0
O51 O 0.66171 0.53652 0.3956 0.0
O52 O 0.62939 0.61612 0.39351 0.0
O53 O 0.6607 0.52208 0.33273 0.0
O54 O 0.73703 0.55439 0.33502 0.0
H55 H 0.73235 0.64339 0.30747 0.0
H56 H 0.68897 0.62904 0.23255 0.0
H57 H 0.64972 0.5102 0.2835 0.0
O58 O 0.2904 0.94674 0.56394 0.0
Tb59 Tb 0.30744 0.93804 0.60264 0.0
Eu60 Eu 0.16948 0.92721 0.61416 0.0
C61 C 0.29892 0.90882 0.5482 0.0
O62 O 0.31552 0.86466 0.55631 0.0
C63 C 0.25502 0.83162 0.61497 0.0
O64 O 0.15005 0.95577 0.65204 0.0
C65 C 0.08667 0.91432 0.59141 0.0
C66 C 0.18039 0.94885 0.6703 0.0
O67 O 0.22255 0.92491 0.66633 0.0
C68 C 0.23776 0.02214 0.61802 0.0
C69 C 0.04367 0.94598 0.58396 0.0
C70 C 0.03826 0.95912 0.55925 0.0
C71 C 0.99718 0.9876 0.55146 0.0
C72 C 0.96129 1.00314 0.56869 0.0
C73 C 0.96604 0.99079 0.59358 0.0
C74 C 1.00708 0.96175 0.60106 0.0
O75 O 0.29291 0.85708 0.60584 0.0
O76 O 0.21101 0.85181 0.6203 0.0
O77 O 0.37695 0.97904 0.59575 0.0
O78 O 0.37418 0.92401 0.62414 0.0
C79 C 0.402 0.95762 0.61318 0.0
O80 O 0.19823 1.00715 0.60628 0.0
O81 O 0.26619 0.98695 0.62729 0.0
O82 O 0.09182 0.90646 0.61499 0.0
O83 O 0.1291 0.92204 0.57985 0.0
H84 H 0.0657 0.94634 0.54591 0.0
H85 H 0.92947 0.02492 0.56264 0.0
H86 H 0.01053 0.95195 0.6202 0.0
O87 O 0.82571 0.56149 0.81132 0.0
Tb88 Tb 0.82271 0.55404 0.85065 0.0
Eu89 Eu 0.82693 0.44638 0.88837 0.0
C90 C 0.84764 0.52707 0.79721 0.0
O91 O 0.86528 0.48467 0.80674 0.0
C92 C 0.91928 0.51644 0.87679 0.0
O93 O 0.81704 0.41529 0.92663 0.0
C94 C 0.83473 0.37513 0.8548 0.0
C95 C 0.79067 0.44241 0.94256 0.0
O96 O 0.77097 0.4862 0.93587 0.0
C97 C 0.72676 0.49964 0.87105 0.0
C98 C 0.80439 0.33325 0.84381 0.0
C99 C 0.79361 0.33338 0.81851 0.0
C100 C 0.76779 0.29186 0.80768 0.0
C101 C 0.75122 0.25185 0.82253 0.0
C102 C 0.76497 0.24903 0.84703 0.0
C103 C 0.79029 0.29031 0.85787 0.0
O104 O 0.8992 0.52785 0.85567 0.0
O105 O 0.89287 0.49628 0.89443 0.0
O106 O 0.82564 0.63681 0.84529 0.0
O107 O 0.8045 0.60878 0.88036 0.0
C108 C 0.81161 0.6499 0.86725 0.0
O109 O 0.75129 0.47994 0.88925 0.0
O110 O 0.74904 0.51816 0.85141 0.0
O111 O 0.84899 0.36905 0.8776 0.0
O112 O 0.82212 0.42293 0.84989 0.0
H113 H 0.80707 0.3645 0.80717 0.0
H114 H 0.7302 0.22039 0.81453 0.0
H115 H 0.8013 0.28749 0.87683 0.0
O116 O 0.80319 0.96809 0.94976 0.0
Tb117 Tb 0.81978 0.96775 0.91058 0.0
Eu118 Eu 0.68489 0.95551 0.88922 0.0
C119 C 0.78565 0.92814 0.96174 0.0
O120 O 0.7695 0.88762 0.94965 0.0
C121 C 0.77164 0.86152 0.89184 0.0
O122 O 0.67091 0.97187 0.84878 0.0
C123 C 0.60204 0.94353 0.91257 0.0
C124 C 0.70663 0.9725 0.83211 0.0
O125 O 0.75224 0.96339 0.83901 0.0
C126 C 0.75196 0.05085 0.89202 0.0
C127 C 0.56422 0.97703 0.92443 0.0
C128 C 0.56247 0.98164 0.95009 0.0
C129 C 0.52488 1.01033 0.96169 0.0
C130 C 0.48916 0.03488 0.94757 0.0
C131 C 0.49022 0.03101 0.92197 0.0
C132 C 0.52809 1.00223 0.91048 0.0
O133 O 0.80945 0.88777 0.90068 0.0
O134 O 0.72712 0.87983 0.88678 0.0
O135 O 0.88098 0.0193 0.92017 0.0
O136 O 0.89409 0.95772 0.89513 0.0
C137 C 0.91384 0.99732 0.90609 0.0
O138 O 0.71005 0.03436 0.90078 0.0
O139 O 0.78444 0.01694 0.88462 0.0
O140 O 0.60524 0.94458 0.88853 0.0
O141 O 0.6454 0.94109 0.9233 0.0
H142 H 0.58945 0.96167 0.9611 0.0
H143 H 0.4594 0.05568 0.95673 0.0
H144 H 0.52869 0.99862 0.8907 0.0
O145 O 0.32984 0.54527 0.70515 0.0
Tb146 Tb 0.32174 0.53577 0.66602 0.0
Eu147 Eu 0.32902 0.43554 0.62314 0.0
C148 C 0.34232 0.5058 0.71859 0.0
O149 O 0.35026 0.46095 0.70789 0.0
C150 C 0.4226 0.50352 0.64057 0.0
O151 O 0.32888 0.41711 0.58269 0.0
C152 C 0.33066 0.35478 0.65098 0.0
C153 C 0.28765 0.41245 0.57021 0.0
O154 O 0.24501 0.41248 0.58195 0.0
C155 C 0.23101 0.48461 0.64304 0.0
C156 C 0.29964 0.31247 0.66111 0.0
C157 C 0.28919 0.31057 0.68656 0.0
C158 C 0.26545 0.26728 0.6966 0.0
C159 C 0.25212 0.22626 0.68125 0.0
C160 C 0.26338 0.22677 0.65628 0.0
C161 C 0.28643 0.27001 0.64612 0.0
O162 O 0.40019 0.51535 0.66145 0.0
O163 O 0.39897 0.48192 0.62222 0.0
O164 O 0.29307 0.61399 0.66938 0.0
O165 O 0.32077 0.588 0.63471 0.0
C166 C 0.30024 0.62627 0.64665 0.0
O167 O 0.25535 0.47414 0.62284 0.0
O168 O 0.25427 0.49007 0.6639 0.0
O169 O 0.34059 0.35348 0.62734 0.0
O170 O 0.32398 0.40184 0.65967 0.0
H171 H 0.30114 0.34153 0.69858 0.0
H172 H 0.23564 0.19195 0.68913 0.0
H173 H 0.29673 0.26894 0.6269 0.0
O174 O 0.70949 0.08487 0.45549 0.0
Tb175 Tb 0.71642 0.07224 0.41623 0.0
Eu176 Eu 0.81806 0.0765 0.37374 0.0
C177 C 0.74678 0.10067 0.46888 0.0
O178 O 0.79022 0.10791 0.45848 0.0
C179 C 0.75123 0.17485 0.38987 0.0
O180 O 0.83223 0.07147 0.33307 0.0
C181 C 0.89972 0.0839 0.39857 0.0
C182 C 0.84389 0.02732 0.32249 0.0
O183 O 0.85088 0.98668 0.33616 0.0
C184 C 0.76875 0.97483 0.39518 0.0
C185 C 0.94242 0.05735 0.41016 0.0
C186 C 0.94136 0.04703 0.43552 0.0
C187 C 0.98372 0.02848 0.44749 0.0
C188 C 0.02674 0.01918 0.43362 0.0
C189 C 0.02978 0.03194 0.40882 0.0
C190 C 0.98725 0.04996 0.39696 0.0
O191 O 0.73807 0.15222 0.41042 0.0
O192 O 0.77511 0.15074 0.37205 0.0
O193 O 0.63914 0.05447 0.42364 0.0
O194 O 0.66181 0.06391 0.38662 0.0
C195 C 0.62432 0.05396 0.40109 0.0
O196 O 0.78217 0.99853 0.37511 0.0
O197 O 0.75935 1.00088 0.41549 0.0
O198 O 0.89813 0.08522 0.37452 0.0
O199 O 0.85557 0.08074 0.40897 0.0
H200 H 0.90832 0.05578 0.44615 0.0
H201 H 0.05917 1.00334 0.44236 0.0
H202 H 0.98994 0.06084 0.3779 0.0
O203 O 0.20913 0.49953 0.20866 0.0
Tb204 Tb 0.19802 0.49554 0.16909 0.0
Eu205 Eu 0.18906 0.59739 0.12615 0.0
C206 C 0.17267 0.49656 0.22477 0.0
O207 O 0.12699 0.49219 0.21695 0.0
C208 C 0.10278 0.52214 0.1396 0.0
O209 O 0.19642 0.62451 0.08713 0.0
C210 C 0.17601 0.66999 0.15843 0.0
C211 C 0.22141 0.5946 0.07183 0.0
O212 O 0.23985 0.5511 0.07973 0.0
C213 C 0.2916 0.54664 0.14279 0.0
C214 C 0.20487 0.71215 0.16998 0.0
C215 C 0.21634 0.70976 0.19511 0.0
C216 C 0.24217 0.75025 0.20655 0.0
C217 C 0.25846 0.79148 0.19244 0.0
C218 C 0.24327 0.7972 0.16819 0.0
C219 C 0.21757 0.75676 0.15675 0.0
O220 O 0.12129 0.51896 0.16183 0.0
O221 O 0.12902 0.54021 0.12144 0.0
O222 O 0.191 0.41229 0.17368 0.0
O223 O 0.21937 0.44146 0.13998 0.0
C224 C 0.20802 0.40007 0.15202 0.0
O225 O 0.26586 0.56835 0.12558 0.0
O226 O 0.27192 0.52903 0.1633 0.0
O227 O 0.1647 0.67499 0.13515 0.0
O228 O 0.18827 0.62255 0.16431 0.0
H229 H 0.2035 0.6775 0.20589 0.0
H230 H 0.28056 0.82139 0.20102 0.0
H231 H 0.20574 0.76104 0.13798 0.0
O232 O 0.71573 0.6037 0.57048 0.0
Tb233 Tb 0.72024 0.58331 0.60862 0.0
Eu234 Eu 0.84104 0.59664 0.64047 0.0
C235 C 0.7529 0.59731 0.55513 0.0
O236 O 0.79494 0.57847 0.56298 0.0
C237 C 0.75904 0.68887 0.63399 0.0
O238 O 0.86484 0.58503 0.67945 0.0
C239 C 0.91677 0.60127 0.6109 0.0
C240 C 0.83325 0.56336 0.69462 0.0
O241 O 0.78893 0.55072 0.68698 0.0
C242 C 0.78797 0.4922 0.62414 0.0
C243 C 0.95932 0.56998 0.60158 0.0
C244 C 0.9626 0.55697 0.57646 0.0
C245 C 1.00473 0.5315 0.56677 0.0
C246 C 0.04295 0.51794 0.58264 0.0
C247 C 0.04056 0.53087 0.60756 0.0
C248 C 0.99905 0.5571 0.61699 0.0
O249 O 0.73202 0.66432 0.61764 0.0
O250 O 0.79673 0.66896 0.64569 0.0
O251 O 0.64534 0.55987 0.59932 0.0
O252 O 0.66373 0.56657 0.63694 0.0
C253 C 0.62846 0.55542 0.62154 0.0
O254 O 0.80913 0.51777 0.64191 0.0
O255 O 0.76718 0.51519 0.60558 0.0
O256 O 0.91795 0.61637 0.63398 0.0
O257 O 0.87196 0.58877 0.60347 0.0
H258 H 0.93323 0.56857 0.56429 0.0
H259 H 0.07547 0.49818 0.57549 0.0
H260 H 0.99821 0.56783 0.63621 0.0
O261 O 0.20605 0.22307 0.89429 0.0
Tb262 Tb 0.20603 0.13925 0.90089 0.0
Eu263 Eu 0.21428 1.01342 0.86412 0.0
C264 C 0.24823 0.24902 0.89537 0.0
O265 O 0.28938 0.22314 0.89867 0.0
C266 C 0.29963 0.07623 0.88718 0.0
O267 O 0.23286 0.92737 0.86548 0.0
C268 C 0.22679 0.05261 0.82078 0.0
C269 C 0.20297 0.8942 0.87634 0.0
O270 O 0.16094 0.91137 0.88556 0.0
C271 C 0.1131 0.0652 0.88714 0.0
C272 C 0.2051 0.07877 0.79927 0.0
C273 C 0.21593 0.13133 0.79501 0.0
C274 C 0.20085 0.155 0.77323 0.0
C275 C 0.17409 0.12618 0.75612 0.0
C276 C 0.17049 0.07268 0.75814 0.0
C277 C 0.18325 0.04944 0.78032 0.0
O278 O 0.2767 0.12012 0.88333 0.0
O279 O 0.27547 0.03285 0.88929 0.0
O280 O 0.21389 0.17327 0.93735 0.0
O281 O 0.21521 0.09181 0.93366 0.0
C282 C 0.21843 0.13033 0.94905 0.0
O283 O 0.13921 0.0245 0.88035 0.0
O284 O 0.13107 0.1124 0.89098 0.0
O285 O 0.21598 1.00381 0.8245 0.0
O286 O 0.23198 0.07934 0.84117 0.0
H287 H 0.23869 0.15279 0.80778 0.0
H288 H 0.16421 0.14383 0.7389 0.0
H289 H 0.18099 1.0079 0.78179 0.0
O290 O 0.81001 0.44043 0.05938 0.0
Tb291 Tb 0.81382 0.43801 0.09907 0.0
Eu292 Eu 0.67689 0.4317 0.1099 0.0
C293 C 0.77403 0.41974 0.0466 0.0
O294 O 0.73531 0.40023 0.05785 0.0
C295 C 0.75944 0.33428 0.1136 0.0
O296 O 0.66436 0.47062 0.14638 0.0
C297 C 0.59031 0.41797 0.09109 0.0
C298 C 0.66432 0.4453 0.16704 0.0
O299 O 0.67365 0.39563 0.16676 0.0
C300 C 0.744 0.5255 0.11105 0.0
C301 C 0.5475 0.44948 0.08334 0.0
C302 C 0.54222 0.46182 0.05854 0.0
C303 C 0.50069 0.48905 0.05029 0.0
C304 C 0.46474 0.50514 0.06747 0.0
C305 C 0.46955 0.49381 0.09249 0.0
C306 C 0.51069 0.46536 0.10024 0.0
O307 O 0.79749 0.35787 0.10355 0.0
O308 O 0.71566 0.35556 0.11832 0.0
O309 O 0.88296 0.47954 0.09375 0.0
O310 O 0.87841 0.42456 0.12221 0.0
C311 C 0.90665 0.45842 0.11165 0.0
O312 O 0.70662 0.50905 0.09814 0.0
O313 O 0.77159 0.4908 0.1213 0.0
O314 O 0.59867 0.41582 0.11475 0.0
O315 O 0.63117 0.42058 0.07772 0.0
H316 H 0.57066 0.44993 0.04557 0.0
H317 H 0.43192 0.52498 0.06127 0.0
H318 H 0.51405 0.45598 0.11944 0.0
O319 O 0.31828 0.05041 0.31175 0.0
Tb320 Tb 0.32109 0.05503 0.35132 0.0
Eu321 Eu 0.32476 0.93815 0.38871 0.0
C322 C 0.35764 0.0536 0.29752 0.0
O323 O 0.40181 0.05685 0.30727 0.0
C324 C 0.41953 1.01211 0.37674 0.0
O325 O 0.31418 0.9129 0.42777 0.0
C326 C 0.32524 0.86018 0.35832 0.0
C327 C 0.3041 0.94884 0.44426 0.0
O328 O 0.30121 0.99694 0.43712 0.0
C329 C 0.22892 1.00203 0.37469 0.0
C330 C 0.29681 0.81591 0.34795 0.0
C331 C 0.28909 0.81318 0.32247 0.0
C332 C 0.26843 0.76877 0.31149 0.0
C333 C 0.25475 0.72749 0.32632 0.0
C334 C 0.26351 0.72849 0.35147 0.0
C335 C 0.28377 0.77302 0.36239 0.0
O336 O 0.39863 0.03308 0.35745 0.0
O337 O 0.39587 0.98204 0.39216 0.0
O338 O 0.31536 0.13685 0.34237 0.0
O339 O 0.30467 0.11465 0.3793 0.0
C340 C 0.30517 0.15363 0.36436 0.0
O341 O 0.25328 0.98067 0.39248 0.0
O342 O 0.25046 1.01381 0.35384 0.0
O343 O 0.33957 0.85732 0.38124 0.0
O344 O 0.31355 0.90736 0.35165 0.0
H345 H 0.30128 0.84474 0.31107 0.0
H346 H 0.23834 0.6933 0.31819 0.0
H347 H 0.2919 0.77292 0.38178 0.0
O348 O 0.3332 0.45053 0.45421 0.0
Tb349 Tb 0.33718 0.46157 0.41494 0.0
Eu350 Eu 0.18624 0.46766 0.38574 0.0
C351 C 0.29255 0.43393 0.46489 0.0
O352 O 0.25311 0.42511 0.45159 0.0
C353 C 0.26484 0.3678 0.38842 0.0
O354 O 0.17893 0.4807 0.34485 0.0
C355 C 0.09769 0.47747 0.40395 0.0
C356 C 0.21553 0.48434 0.32891 0.0
O357 O 0.26139 0.48122 0.33653 0.0
C358 C 0.26578 0.54528 0.40791 0.0
C359 C 0.06084 0.49991 0.42128 0.0
C360 C 0.06114 0.49323 0.4469 0.0
C361 C 0.02131 0.51237 0.4614 0.0
C362 C 0.98158 0.53716 0.44993 0.0
C363 C 0.98108 0.54429 0.42456 0.0
C364 C 0.02159 0.52671 0.41064 0.0
O365 O 0.30406 0.39146 0.39821 0.0
O366 O 0.22049 0.38774 0.3834 0.0
O367 O 0.41701 0.45167 0.41879 0.0
O368 O 0.3895 0.49238 0.38816 0.0
C369 C 0.42921 0.47764 0.39935 0.0
O370 O 0.24054 0.50305 0.41023 0.0
O371 O 0.3115 0.54039 0.41404 0.0
O372 O 0.11735 0.50921 0.38802 0.0
O373 O 0.12684 0.439 0.40996 0.0
H374 H 0.09144 0.47294 0.45539 0.0
H375 H 0.95048 0.55041 0.46094 0.0
H376 H 0.02218 0.5326 0.39102 0.0
O377 O 0.82506 0.04446 0.20343 0.0
Tb378 Tb 0.82391 0.03676 0.1639 0.0
Eu379 Eu 0.83025 0.9307 0.1219 0.0
C380 C 0.84017 1.00613 0.21697 0.0
O381 O 0.85328 0.96261 0.20626 0.0
C382 C 0.924 1.00041 0.13748 0.0
O383 O 0.82471 0.90973 0.08153 0.0
C384 C 0.83335 0.85061 0.15017 0.0
C385 C 0.79458 0.93503 0.06705 0.0
O386 O 0.76703 0.97239 0.07603 0.0
C387 C 0.73178 0.98034 0.14372 0.0
C388 C 0.80135 0.80951 0.16069 0.0
C389 C 0.79439 0.80681 0.18639 0.0
C390 C 0.76757 0.76583 0.19665 0.0
C391 C 0.74722 0.72832 0.18127 0.0
C392 C 0.75789 0.72723 0.15618 0.0
C393 C 0.78345 0.76879 0.14574 0.0
O394 O 0.90171 1.01489 0.15803 0.0
O395 O 0.90041 0.97672 0.11968 0.0
O396 O 0.8195 0.12037 0.16737 0.0
O397 O 0.79908 0.08497 0.13355 0.0
C398 C 0.80253 0.12842 0.14557 0.0
O399 O 0.75592 0.96772 0.12368 0.0
O400 O 0.75489 0.99303 0.16402 0.0
O401 O 0.84241 0.84869 0.12646 0.0
O402 O 0.82762 0.89796 0.15866 0.0
H403 H 0.8113 0.83522 0.19835 0.0
H404 H 0.72768 0.69604 0.18939 0.0
H405 H 0.79245 0.76735 0.12637 0.0
O406 O 0.20829 0.5893 0.95445 0.0
Tb407 Tb 0.2154 0.57456 0.91539 0.0
Eu408 Eu 0.31718 0.57572 0.8749 0.0
C409 C 0.24637 0.60302 0.96779 0.0
O410 O 0.29016 0.60727 0.95735 0.0
C411 C 0.25225 0.67685 0.88927 0.0
O412 O 0.33073 0.56977 0.83432 0.0
C413 C 0.40011 0.58596 0.89842 0.0
C414 C 0.34413 0.52597 0.82396 0.0
O415 O 0.35218 0.48568 0.83773 0.0
C416 C 0.26607 0.47305 0.89631 0.0
C417 C 0.4433 0.5598 0.90966 0.0
C418 C 0.44338 0.54998 0.935 0.0
C419 C 0.4854 0.52923 0.94626 0.0
C420 C 0.52774 0.5189 0.93203 0.0
C421 C 0.52887 0.52843 0.90678 0.0
C422 C 0.48663 0.54934 0.89571 0.0
O423 O 0.23733 0.65473 0.90967 0.0
O424 O 0.27594 0.65129 0.87183 0.0
O425 O 0.13831 0.55639 0.92237 0.0
O426 O 0.16133 0.56896 0.88552 0.0
C427 C 0.12394 0.55749 0.89977 0.0
O428 O 0.28474 0.49545 0.87684 0.0
O429 O 0.25303 0.49993 0.9159 0.0
O430 O 0.39708 0.58547 0.87441 0.0
O431 O 0.35657 0.58327 0.9095 0.0
H432 H 0.41082 0.55859 0.94603 0.0
H433 H 0.56071 0.50457 0.94088 0.0
H434 H 0.48766 0.55756 0.87631 0.0
O435 O 0.70267 1.00376 0.71209 0.0
Tb436 Tb 0.69507 0.99629 0.67217 0.0
Eu437 Eu 0.68625 0.09594 0.62738 0.0
C438 C 0.66601 0.9976 0.72795 0.0
O439 O 0.62092 0.99046 0.71977 0.0
C440 C 0.59915 0.02047 0.6417 0.0
O441 O 0.69547 0.12262 0.58826 0.0
C442 C 0.67496 0.17002 0.6591 0.0
C443 C 0.72034 0.09249 0.57296 0.0
O444 O 0.73796 0.04855 0.58075 0.0
C445 C 0.78833 0.0442 0.64391 0.0
C446 C 0.70296 0.21489 0.66864 0.0
C447 C 0.71013 0.22055 0.69405 0.0
C448 C 0.73462 0.26413 0.70363 0.0
C449 C 0.75248 0.30136 0.6875 0.0
C450 C 0.74585 0.29631 0.66218 0.0
C451 C 0.72093 0.25317 0.65279 0.0
O452 O 0.6174 0.01609 0.66403 0.0
O453 O 0.6256 0.03884 0.62363 0.0
O454 O 0.70069 0.915 0.68139 0.0
O455 O 0.70562 0.93661 0.64395 0.0
C456 C 0.70697 0.89818 0.65907 0.0
O457 O 0.76247 0.06514 0.62654 0.0
O458 O 0.76901 0.02861 0.66487 0.0
O459 O 0.65926 0.17256 0.63637 0.0
O460 O 0.69126 0.12399 0.66507 0.0
H461 H 0.69567 0.19161 0.70636 0.0
H462 H 0.77129 0.33501 0.69477 0.0
H463 H 0.71555 0.24967 0.6332 0.0
C464 C 0.1833 0.30875 0.14479 0.0
C465 C 0.21945 0.34743 0.1438 0.0
H466 H 0.16711 0.22852 0.13933 0.0
C467 C 0.26768 0.33507 0.13611 0.0
H468 H 0.1459 0.31776 0.15074 0.0
C469 C 0.28019 0.28412 0.13038 0.0
C470 C 0.24415 0.2452 0.13141 0.0
H471 H 0.29614 0.36447 0.13548 0.0
H472 H 0.31811 0.27504 0.12534 0.0
C473 C 0.19536 0.25803 0.13817 0.0
C474 C 0.48605 0.54467 0.38233 0.0
C475 C 0.47927 0.49739 0.39431 0.0
H476 H 0.53743 0.60442 0.37237 0.0
C477 C 0.52025 0.47217 0.40406 0.0
H478 H 0.4547 0.5652 0.37495 0.0
C479 C 0.56714 0.49419 0.40237 0.0
C480 C 0.574 0.54235 0.39125 0.0
H481 H 0.51586 0.436 0.41356 0.0
H482 H 0.59771 0.47436 0.41081 0.0
C483 C 0.53312 0.56733 0.38104 0.0
C484 C 0.31028 0.75389 0.615 0.0
C485 C 0.26421 0.77678 0.62086 0.0
H486 H 0.3574 0.68779 0.61838 0.0
C487 C 0.22891 0.74777 0.63381 0.0
H488 H 0.33857 0.77493 0.60511 0.0
C489 C 0.24039 0.69814 0.64174 0.0
C490 C 0.28679 0.67627 0.63635 0.0
H491 H 0.19305 0.76389 0.63852 0.0
H492 H 0.21319 0.677 0.65232 0.0
C493 C 0.32123 0.70392 0.62249 0.0
C494 C 0.04328 0.51636 0.90822 0.0
C495 C 0.07302 0.54504 0.89225 0.0
H496 H 0.97243 0.48414 0.91568 0.0
C497 C 0.05289 0.56253 0.87021 0.0
H498 H 0.05804 0.50181 0.92519 0.0
C499 C 1.00295 0.5528 0.86473 0.0
C500 C 0.97284 0.52506 0.88116 0.0
H501 H 0.07523 0.58487 0.85763 0.0
H502 H 0.98776 0.56779 0.84796 0.0
C503 C 0.99403 0.50626 0.90272 0.0
C504 C 0.82942 0.7431 0.86374 0.0
C505 C 0.80245 0.7035 0.87495 0.0
H506 H 0.84103 0.82447 0.86082 0.0
C507 C 0.76477 0.71604 0.89186 0.0
H508 H 0.85839 0.73428 0.8505 0.0
C509 C 0.75368 0.76779 0.89709 0.0
C510 C 0.78124 0.80717 0.88601 0.0
H511 H 0.74307 0.686 0.90043 0.0
H512 H 0.72416 0.77705 0.90996 0.0
C513 C 0.81945 0.7945 0.86954 0.0
C514 C 0.49575 0.51415 0.61279 0.0
C515 C 0.47592 0.51603 0.63668 0.0
H516 H 0.55866 0.52517 0.58953 0.0
C517 C 0.50735 0.53029 0.65606 0.0
H518 H 0.47293 0.50368 0.59731 0.0
C519 C 0.55742 0.54242 0.65149 0.0
C520 C 0.5766 0.541 0.62746 0.0
H521 H 0.49335 0.53198 0.67469 0.0
H522 H 0.58086 0.55343 0.66665 0.0
C523 C 0.54515 0.52662 0.60826 0.0
C524 C 0.69567 0.2502 0.39832 0.0
C525 C 0.73797 0.22984 0.38664 0.0
H526 H 0.64885 0.31573 0.40412 0.0
C527 C 0.76631 0.26211 0.37145 0.0
H528 H 0.67268 0.22617 0.40986 0.0
C529 C 0.75279 0.31382 0.36823 0.0
C530 C 0.71031 0.33415 0.3799 0.0
H531 H 0.79929 0.24757 0.36231 0.0
H532 H 0.77585 0.33793 0.35677 0.0
C533 C 0.68187 0.30156 0.39489 0.0
C534 C 0.97822 0.4539 0.14074 0.0
C535 C 0.9564 0.4741 0.1196 0.0
H536 H 0.04204 0.45389 0.1641 0.0
C537 C 0.98185 0.51143 0.10614 0.0
H538 H 0.95899 0.42525 0.15151 0.0
C539 C 0.02858 0.52775 0.1133 0.0
C540 C 0.05115 0.5073 0.13418 0.0
H541 H 0.96576 0.52801 0.08991 0.0
H542 H 0.04721 0.55635 0.10223 0.0
C543 C 0.02535 0.47059 0.14806 0.0
C544 C 0.73693 0.81118 0.67035 0.0
C545 C 0.71898 0.8445 0.65241 0.0
H546 H 0.76463 0.73602 0.67837 0.0
C547 C 0.7143 0.82652 0.62822 0.0
H548 H 0.74117 0.82428 0.68911 0.0
C549 C 0.72679 0.77558 0.62215 0.0
C550 C 0.7455 0.74252 0.64007 0.0
H551 H 0.7007 0.85168 0.61407 0.0
H552 H 0.72263 0.7623 0.60341 0.0
C553 C 0.75066 0.76086 0.66418 0.0
C554 C 0.03261 0.07519 0.91036 0.0
C555 C 0.0597 0.05472 0.89046 0.0
H556 H 0.96477 0.07221 0.93125 0.0
C557 C 0.0376 0.01693 0.87549 0.0
H558 H 0.04911 0.10355 0.92247 0.0
C559 C 0.99038 0.99844 0.88074 0.0
C560 C 0.96381 0.01752 0.90099 0.0
H561 H 0.05754 1.00046 0.85998 0.0
H562 H 0.97479 0.96889 0.86897 0.0
C563 C 0.9848 0.05674 0.91556 0.0
C564 C 0.74259 0.19261 0.12891 0.0
C565 C 0.79083 0.17967 0.13609 0.0
H566 H 0.69401 0.25279 0.11669 0.0
C567 C 0.82776 0.21733 0.13599 0.0
H568 H 0.71338 0.16402 0.12935 0.0
C569 C 0.81715 0.26712 0.12838 0.0
C570 C 0.76892 0.28079 0.12137 0.0
H571 H 0.86501 0.20816 0.14175 0.0
H572 H 0.84674 0.2953 0.12846 0.0
C573 C 0.73147 0.24322 0.12191 0.0
C574 C 0.53846 0.02847 0.41204 0.0
C575 C 0.57254 0.04327 0.3939 0.0
H576 H 0.46426 1.00718 0.42084 0.0
C577 C 0.55619 0.04794 0.36965 0.0
H578 H 0.54978 0.02464 0.43092 0.0
C579 C 0.50633 0.03834 0.3638 0.0
C580 C 0.4724 0.02312 0.38209 0.0
H581 H 0.58174 0.0593 0.3553 0.0
H582 H 0.49453 0.04223 0.34502 0.0
C583 C 0.48929 0.01828 0.40622 0.0
C584 C 0.28583 0.224 0.39518 0.0
C585 C 0.29398 0.20829 0.37076 0.0
H586 H 0.27032 0.28727 0.41989 0.0
C587 C 0.29095 0.2454 0.35221 0.0
H588 H 0.28782 0.19635 0.40986 0.0
C589 C 0.28 0.297 0.35791 0.0
C590 C 0.27241 0.31268 0.3823 0.0
H591 H 0.2971 0.23458 0.33322 0.0
H592 H 0.27845 0.32489 0.34331 0.0
C593 C 0.27562 0.27586 0.40091 0.0
C594 C 1.00187 0.99384 0.11228 0.0
C595 C 0.9779 1.01084 0.13389 0.0
H596 H 0.06842 0.9926 0.09076 0.0
C597 C 1.00572 0.03874 0.15127 0.0
H598 H 0.98212 0.97195 0.0985 0.0
C599 C 0.05595 0.05 0.14685 0.0
C600 C 0.07902 0.03409 0.12487 0.0
H601 H 0.98856 0.05258 0.16808 0.0
H602 H 0.07626 0.07242 0.16024 0.0
C603 C 0.05154 1.00562 0.10779 0.0
C604 C 0.19632 0.7532 0.89522 0.0
C605 C 0.24066 0.73254 0.88575 0.0
H606 H 0.14937 0.81916 0.89923 0.0
C607 C 0.27281 0.7654 0.87279 0.0
H608 H 0.17044 0.7289 0.90501 0.0
C609 C 0.26105 0.81789 0.8697 0.0
C610 C 0.21638 0.83847 0.87911 0.0
H611 H 0.30742 0.75073 0.86536 0.0
H612 H 0.28693 0.84228 0.85998 0.0
C613 C 0.18418 0.80513 0.89178 0.0
C614 C 0.47397 0.95268 0.64204 0.0
C615 C 0.45229 0.973 0.62085 0.0
H616 H 0.53738 0.95226 0.66568 0.0
C617 C 0.47826 1.01007 0.60746 0.0
H618 H 0.45447 0.92422 0.65281 0.0
C619 C 0.52519 0.02605 0.6148 0.0
C620 C 0.54743 1.00562 0.63584 0.0
H621 H 0.46238 0.02675 0.5912 0.0
H622 H 0.54416 0.05451 0.60379 0.0
C623 C 0.52113 0.96904 0.64955 0.0
C624 C 0.24545 0.16956 0.98855 0.0
C625 C 0.22685 0.12683 0.9756 0.0
H626 H 0.26649 0.20099 0.02335 0.0
C627 C 0.21568 0.08158 0.98829 0.0
H628 H 0.2547 0.20482 0.9791 0.0
C629 C 0.22169 0.07962 0.01369 0.0
C630 C 0.23988 0.12256 0.02676 0.0
H631 H 0.20122 0.04819 0.97869 0.0
H632 H 0.21181 0.04449 0.02308 0.0
C633 C 0.25236 0.16731 0.01385 0.0
C634 C 0.66809 0.47978 0.2344 0.0
C635 C 0.65413 0.53204 0.23427 0.0
H636 H 0.6821 0.41135 0.21328 0.0
C637 C 0.63712 0.55316 0.21222 0.0
H638 H 0.6818 0.46203 0.25085 0.0
C639 C 0.63911 0.52448 0.19047 0.0
C640 C 0.65659 0.47349 0.1904 0.0
H641 H 0.62471 0.5928 0.21147 0.0
H642 H 0.62834 0.54283 0.1736 0.0
C643 C 0.66897 0.45075 0.21272 0.0
C644 C 0.30794 0.87786 0.50462 0.0
C645 C 0.2951 0.91726 0.52144 0.0
H646 H 0.32079 0.85674 0.46701 0.0
C647 C 0.2817 0.96573 0.51242 0.0
H648 H 0.31815 0.83991 0.51092 0.0
C649 C 0.28336 0.97532 0.4873 0.0
C650 C 0.29831 0.93665 0.47056 0.0
H651 H 0.27121 0.9968 0.5248 0.0
H652 H 0.27386 1.01351 0.48105 0.0
C653 C 0.30948 0.88744 0.47943 0.0
C654 C 0.85249 0.58652 0.76172 0.0
C655 C 0.85071 0.53593 0.77068 0.0
H656 H 0.85014 0.63474 0.73004 0.0
C657 C 0.84896 0.49436 0.7541 0.0
H658 H 0.85424 0.6192 0.77419 0.0
C659 C 0.84564 0.50341 0.729 0.0
C660 C 0.8458 0.55398 0.72018 0.0
H661 H 0.84748 0.45508 0.76058 0.0
H662 H 0.84142 0.47102 0.71652 0.0
C663 C 0.85062 0.59546 0.73657 0.0
C664 C 0.83183 0.9517 0.0262 0.0
C665 C 0.79562 0.92699 0.04035 0.0
H666 H 0.85643 0.97217 0.99018 0.0
C667 C 0.75649 0.90147 0.02862 0.0
H668 H 0.86187 0.97229 0.03496 0.0
C669 C 0.7536 0.90078 1.00298 0.0
C670 C 0.78888 0.92717 0.9888 0.0
H671 H 0.72766 0.88304 0.03929 0.0
H672 H 0.72294 0.88111 0.99431 0.0
C673 C 0.82829 0.95218 1.00066 0.0
C674 C 0.33929 0.5599 0.75678 0.0
C675 C 0.34531 0.51137 0.74549 0.0
H676 H 0.33458 0.60265 0.79042 0.0
C677 C 0.35291 0.46802 0.76018 0.0
H678 H 0.3336 0.59412 0.74597 0.0
C679 C 0.35353 0.47292 0.78567 0.0
C680 C 0.34657 0.52128 0.79699 0.0
H681 H 0.35757 0.43009 0.75203 0.0
H682 H 0.35857 0.43861 0.79649 0.0
C683 C 0.3399 0.5648 0.78227 0.0
C684 C 0.68646 0.11179 0.53172 0.0
C685 C 0.72736 0.10515 0.54698 0.0
H686 H 0.66053 0.11472 0.49475 0.0
C687 C 0.77495 0.10177 0.53658 0.0
H688 H 0.64937 0.11363 0.53939 0.0
C689 C 0.78154 0.1032 0.51119 0.0
C690 C 0.74043 0.10639 0.49572 0.0
H691 H 0.80694 0.09617 0.54809 0.0
H692 H 0.81859 0.09901 0.50367 0.0
C693 C 0.69289 0.11186 0.50623 0.0
C694 C 0.14497 0.49115 0.26887 0.0
C695 C 0.18342 0.49593 0.2515 0.0
H696 H 0.12475 0.48393 0.30669 0.0
C697 C 0.23245 0.49874 0.25994 0.0
H698 H 0.10675 0.48902 0.26311 0.0
C699 C 0.24284 0.49571 0.28501 0.0
C700 C 0.2045 0.48989 0.30234 0.0
H701 H 0.26303 0.50267 0.24714 0.0
H702 H 0.28107 0.49745 0.29076 0.0
C703 C 0.15535 0.48823 0.29393 0.0
C704 C 0.76885 0.59526 0.48622 0.0
C705 C 0.72642 0.62203 0.47888 0.0
H706 H 0.81123 0.56729 0.5163 0.0
C707 C 0.69438 0.64297 0.49669 0.0
H708 H 0.7945 0.57949 0.47274 0.0
C709 C 0.70365 0.63572 0.5215 0.0
C710 C 0.74554 0.608 0.52894 0.0
H711 H 0.66167 0.66422 0.49146 0.0
H712 H 0.67771 0.65151 0.53483 0.0
C713 C 0.77857 0.58862 0.51109 0.0
C714 C 0.14301 0.96598 0.71176 0.0
C715 C 0.17434 0.98063 0.6924 0.0
H716 H 0.1169 0.98394 0.74826 0.0
C717 C 0.20144 0.02626 0.69417 0.0
H718 H 0.12166 0.93075 0.7105 0.0
C719 C 0.1985 0.05645 0.71526 0.0
C720 C 0.16823 0.04175 0.73515 0.0
H721 H 0.22562 0.03817 0.67935 0.0
H722 H 0.22153 0.09058 0.71625 0.0
C723 C 0.14028 0.99623 0.73321 0.0
C724 C 0.82835 0.41945 0.98245 0.0
C725 C 0.786 0.42743 0.96835 0.0
H726 H 0.85766 0.41196 0.0186 0.0
C727 C 0.73934 0.42897 0.97986 0.0
H728 H 0.86473 0.41892 0.97393 0.0
C729 C 0.73508 0.42389 1.00526 0.0
C730 C 0.77765 0.41913 0.0196 0.0
H731 H 0.70627 0.43557 0.96925 0.0
H732 H 0.69877 0.42632 0.01377 0.0
C733 C 0.82427 0.41606 0.00794 0.0
C734 C 0.29556 0.06971 0.23648 0.0
C735 C 0.33591 0.07881 0.22073 0.0
H736 H 0.27083 0.05398 0.27278 0.0
C737 C 0.38415 0.0762 0.2301 0.0
H738 H 0.25792 0.07072 0.22982 0.0
C739 C 0.39164 0.06643 0.25498 0.0
C740 C 0.351 0.059 0.27083 0.0
H741 H 0.41601 0.08232 0.21832 0.0
H742 H 0.42912 0.06566 0.26185 0.0
C743 C 0.303 0.05986 0.26117 0.0
C744 C 0.24618 0.41831 0.50411 0.0
C745 C 0.29134 0.42572 0.49168 0.0
H746 H 0.20952 0.4082 0.53863 0.0
C747 C 0.33544 0.42588 0.50514 0.0
H748 H 0.21155 0.41803 0.49426 0.0
C749 C 0.33436 0.41977 0.53054 0.0
C750 C 0.2891 0.41373 0.54308 0.0
H751 H 0.37091 0.43106 0.49609 0.0
H752 H 0.369 0.42089 0.54037 0.0
C753 C 0.24505 0.41256 0.52955 0.0
C754 C 0.85098 0.97386 0.28419 0.0
C755 C 0.84519 0.02246 0.29545 0.0
H756 H 0.85373 0.93059 0.25063 0.0
C757 C 0.83855 0.06587 0.28065 0.0
H758 H 0.85583 0.93957 0.29504 0.0
C759 C 0.83709 0.06064 0.25514 0.0
C760 C 0.84238 1.01192 0.24392 0.0
H761 H 0.83405 0.10388 0.28874 0.0
H762 H 0.8318 0.0948 0.24424 0.0
C763 C 0.84969 0.96867 0.25871 0.0
C764 C 0.18717 0.61515 0.03081 0.0
C765 C 0.22815 0.60722 0.04587 0.0
H766 H 0.16077 0.61924 0.99396 0.0
C767 C 0.27551 0.60296 0.03529 0.0
H768 H 0.15024 0.61778 0.03863 0.0
C769 C 0.28176 0.60458 0.00991 0.0
C770 C 0.24049 0.60894 0.99462 0.0
H771 H 0.30756 0.59651 0.04667 0.0
H772 H 0.31861 0.59962 1.00227 0.0
C773 C 0.19323 0.61547 1.00531 0.0
C774 C 0.63732 0.9932 0.77215 0.0
C775 C 0.67622 0.99469 0.7548 0.0
H776 H 0.6161 0.98558 0.80996 0.0
C777 C 0.72507 0.99088 0.76333 0.0
H778 H 0.59922 0.99625 0.76634 0.0
C779 C 0.73472 0.98437 0.78833 0.0
C780 C 0.69586 0.98181 0.80565 0.0
H781 H 0.75604 0.99174 0.75061 0.0
H782 H 0.77286 0.98075 0.79402 0.0
C783 C 0.64701 0.98706 0.79723 0.0
C784 C 0.47601 1.00419 1.00054 0.0
C785 C 0.52137 1.01364 0.98864 0.0
H786 H 0.43624 1.00255 0.03455 0.0
C787 C 0.56246 0.02864 1.00248 0.0
H788 H 0.44391 0.99201 0.99023 0.0
C789 C 0.55797 0.03521 0.0278 0.0
C790 C 0.51239 0.02638 0.03972 0.0
H791 H 0.59762 0.0367 0.99363 0.0
H792 H 0.58992 0.04827 0.03797 0.0
C793 C 0.47157 1.01044 0.02584 0.0
C794 C 0.70813 0.73357 0.25585 0.0
C795 C 0.73643 0.69008 0.26181 0.0
H796 H 0.69717 0.79429 0.23007 0.0
C797 C 0.7833 0.68385 0.25085 0.0
H798 H 0.67142 0.73854 0.26366 0.0
C799 C 0.79809 0.71587 0.23166 0.0
C800 C 0.76621 0.75455 0.22317 0.0
H801 H 0.80514 0.64982 0.25458 0.0
H802 H 0.83101 0.70559 0.22121 0.0
C803 C 0.72286 0.76553 0.23657 0.0
C804 C 0.02886 0.03236 0.48757 0.0
C805 C 0.98512 0.02139 0.47459 0.0
H806 H 0.0669 0.02986 0.52174 0.0
C807 C 0.94406 1.00228 0.48765 0.0
H808 H 0.06078 0.04897 0.47849 0.0
C809 C 0.94742 0.99247 0.51278 0.0
C810 C 0.99205 1.00106 0.52527 0.0
H811 H 0.90983 0.99339 0.47836 0.0
H812 H 0.91564 0.97659 0.52228 0.0
C813 C 0.03243 0.02176 0.51246 0.0
C814 C 0.75864 0.23032 0.74459 0.0
C815 C 0.74231 0.27143 0.73035 0.0
H816 H 0.78155 0.20516 0.77975 0.0
C817 C 0.73603 0.32029 0.74155 0.0
H818 H 0.7649 0.19261 0.73645 0.0
C819 C 0.74551 0.32767 0.7665 0.0
C820 C 0.76122 0.28629 0.78078 0.0
H821 H 0.72322 0.35277 0.73105 0.0
H822 H 0.73942 0.36532 0.77472 0.0
C823 C 0.76834 0.23773 0.76941 0.0
C824 C 0.19473 0.24112 0.75376 0.0
C825 C 0.22467 0.2023 0.76366 0.0
H826 H 0.18528 0.29411 0.72426 0.0
C827 C 0.27405 0.19816 0.75553 0.0
H828 H 0.15629 0.24442 0.75938 0.0
C829 C 0.29053 0.2264 0.73533 0.0
C830 C 0.25811 0.25974 0.72321 0.0
H831 H 0.29756 0.16772 0.76233 0.0
H832 H 0.32631 0.21716 0.7273 0.0
C833 C 0.21129 0.26949 0.73358 0.0
C834 C 0.26406 0.71134 0.24708 0.0
C835 C 0.24819 0.75366 0.2335 0.0
H836 H 0.28485 0.68336 0.28218 0.0
C837 C 0.23911 0.80087 0.24573 0.0
H838 H 0.27169 0.6747 0.23814 0.0
C839 C 0.24636 0.80597 0.27086 0.0
C840 C 0.26256 0.76389 0.28451 0.0
H841 H 0.22591 0.83406 0.23583 0.0
H842 H 0.23831 0.84264 0.27967 0.0
C843 C 0.27152 0.71649 0.2723 0.0
C844 C 0.05586 0.5314 0.52794 0.0
C845 C 0.01051 0.52143 0.53998 0.0
H846 H 0.09506 0.53567 0.49366 0.0
C847 C 0.97076 0.50265 0.52616 0.0
H848 H 0.08721 0.54624 0.53803 0.0
C849 C 0.97557 0.49601 0.50081 0.0
C850 C 0.02006 0.50865 0.48859 0.0
H851 H 0.93572 0.49363 0.53491 0.0
H852 H 0.94379 0.4826 0.49061 0.0
C853 C 0.06059 0.52503 0.50253 0.0
C854 C 0.50993 0.46214 1.00617 0.0
C855 C 0.49447 0.49911 0.02364 0.0
H856 H 0.5188 0.44257 0.96829 0.0
C857 C 0.47353 0.54544 0.01535 0.0
H858 H 0.52492 0.42543 0.01173 0.0
C859 C 0.46918 0.55484 0.99024 0.0
C860 C 0.48609 0.51834 0.97291 0.0
H861 H 0.4616 0.57503 0.02822 0.0
H862 H 0.45403 0.5913 0.98438 0.0
C863 C 0.50608 0.47177 0.98119 0.0
C864 C 0.2627 0.85385 0.1318 0.0
C865 C 0.24953 0.84827 0.15663 0.0
H866 H 0.28403 0.90679 0.10345 0.0
C867 C 0.24326 0.89268 0.17128 0.0
H868 H 0.26726 0.82037 0.12 0.0
C869 C 0.25393 0.94093 0.16214 0.0
C870 C 0.2695 0.94651 0.13782 0.0
H871 H 0.23095 0.89027 0.19016 0.0
H872 H 0.25041 0.97403 0.1743 0.0
C873 C 0.27231 0.90302 0.12236 0.0
C874 C 0.90406 0.60016 0.42422 0.0
C875 C 0.93611 0.5647 0.41233 0.0
H876 H 0.83151 0.63421 0.42515 0.0
C877 C 0.92209 0.54425 0.38948 0.0
H878 H 0.914 0.61787 0.44152 0.0
C879 C 0.87602 0.55533 0.37983 0.0
C880 C 0.84225 0.58607 0.39298 0.0
H881 H 0.94474 0.51627 0.37975 0.0
H882 H 0.86505 0.53594 0.36306 0.0
C883 C 0.85719 0.61053 0.41465 0.0
C884 C 0.21447 0.11646 0.61756 0.0
C885 C 0.24637 0.07664 0.62482 0.0
H886 H 0.19538 0.19678 0.62167 0.0
C887 C 0.28658 0.08863 0.64001 0.0
H888 H 0.18346 0.10839 0.60569 0.0
C889 C 0.29321 0.1384 0.64892 0.0
C890 C 0.26023 0.17762 0.64269 0.0
H891 H 0.31214 0.05913 0.64588 0.0
H892 H 0.3231 0.14592 0.66159 0.0
C893 C 0.2214 0.16688 0.6265 0.0
C894 C 0.6453 0.54628 0.86787 0.0
C895 C 0.67244 0.50235 0.87436 0.0
H896 H 0.57792 0.58937 0.87322 0.0
C897 C 0.64912 0.46418 0.88839 0.0
H898 H 0.66264 0.57655 0.85733 0.0
C899 C 0.60117 0.47133 0.89735 0.0
C900 C 0.57525 0.51709 0.89273 0.0
H901 H 0.66904 0.42978 0.8936 0.0
H902 H 0.58525 0.442 0.90899 0.0
C903 C 0.59693 0.55364 0.87704 0.0
C904 C 0.77203 0.10652 0.85724 0.0
C905 C 0.75346 0.10192 0.88109 0.0
H906 H 0.79062 0.15662 0.8281 0.0
C907 C 0.73799 0.14604 0.89414 0.0
H908 H 0.78383 0.07295 0.84675 0.0
C909 C 0.74194 0.19466 0.88337 0.0
C910 C 0.76037 0.19896 0.85935 0.0
H911 H 0.72384 0.14297 0.91269 0.0
H912 H 0.73029 0.22857 0.89361 0.0
C913 C 0.77548 0.15442 0.8465 0.0
C914 C 0.14496 0.45665 0.63548 0.0
C915 C 0.1782 0.49641 0.64104 0.0
H916 H 0.07388 0.43687 0.62094 0.0
C917 C 0.16307 0.54788 0.63885 0.0
H918 H 0.15651 0.41675 0.63655 0.0
C919 C 0.11604 0.5594 0.62984 0.0
C920 C 0.08385 0.5195 0.62289 0.0
H921 H 0.18892 0.57901 0.64226 0.0
H922 H 0.1063 0.59923 0.62654 0.0
C923 C 0.09799 0.46812 0.62652 0.0
C924 C 0.74024 0.89117 0.41369 0.0
C925 C 0.76306 0.91786 0.39436 0.0
H926 H 0.71497 0.81825 0.42716 0.0
C927 C 0.7787 0.88974 0.37351 0.0
H928 H 0.72763 0.91157 0.42998 0.0
C929 C 0.77186 0.83642 0.372 0.0
C930 C 0.74842 0.80988 0.39111 0.0
H931 H 0.79623 0.90888 0.3582 0.0
H932 H 0.78438 0.81605 0.35568 0.0
C933 C 0.73264 0.83778 0.41199 0.0
C934 C 0.41064 0.56057 0.10843 0.0
C935 C 0.43039 0.51073 0.1101 0.0
H936 H 0.35177 0.61165 0.11848 0.0
C937 C 0.4093 0.47626 0.127 0.0
H938 H 0.42661 0.58828 0.09594 0.0
C939 C 0.36638 0.48994 0.14023 0.0
C940 C 0.34427 0.53825 0.13671 0.0
H941 H 0.42376 0.43754 0.12866 0.0
H942 H 0.34821 0.46123 0.15142 0.0
C943 C 0.36813 0.57416 0.12158 0.0
C944 C 0.81863 0.41047 0.64111 0.0
C945 C 0.78317 0.43633 0.6272 0.0
H946 H 0.83509 0.34429 0.66244 0.0
C947 C 0.73941 0.41079 0.6206 0.0
H948 H 0.85288 0.42927 0.64625 0.0
C949 C 0.72891 0.36217 0.63019 0.0
C950 C 0.76227 0.33881 0.64627 0.0
H951 H 0.71143 0.43019 0.61 0.0
H952 H 0.69302 0.3451 0.62678 0.0
C953 C 0.80843 0.36195 0.65042 0.0
C954 C 0.42379 0.09714 0.91519 0.0
C955 C 0.44778 0.05111 0.90794 0.0
H956 H 0.35694 0.14176 0.91394 0.0
C957 C 0.42607 0.0199 0.88985 0.0
H958 H 0.44003 0.12241 0.92883 0.0
C959 C 0.3791 0.03139 0.88124 0.0
C960 C 0.35318 0.07428 0.89047 0.0
H961 H 0.4432 0.98413 0.8839 0.0
H962 H 0.3615 1.00457 0.8687 0.0
C963 C 0.3766 0.10865 0.90651 0.0
C964 C 0.72958 0.67085 0.1205 0.0
C965 C 0.75322 0.677 0.14321 0.0
H966 H 0.70696 0.61704 0.0923 0.0
C967 C 0.77305 0.63359 0.15464 0.0
H968 H 0.7142 0.70389 0.1113 0.0
C969 C 0.76882 0.58516 0.14413 0.0
C970 C 0.745 0.57815 0.12162 0.0
H971 H 0.79224 0.63705 0.17193 0.0
H972 H 0.78449 0.55303 0.15393 0.0
C973 C 0.72512 0.62138 0.1098 0.0
C974 C 0.13757 0.9972 0.36627 0.0
C975 C 0.17736 0.01697 0.37985 0.0
H976 H 0.05851 0.98624 0.36492 0.0
C977 C 0.16774 0.04627 0.40102 0.0
H978 H 0.14443 0.97392 0.35002 0.0
C979 C 0.11941 0.05371 0.40927 0.0
C980 C 0.07942 0.03114 0.39684 0.0
H981 H 0.19793 0.06191 0.41173 0.0
H982 H 0.11342 0.07535 0.42612 0.0
C983 C 0.08866 1.00418 0.37478 0.0
C984 C 0.22957 0.6766 0.38659 0.0
C985 C 0.25814 0.67979 0.36506 0.0
H986 H 0.20741 0.62904 0.41681 0.0
C987 C 0.28274 0.63561 0.35617 0.0
H988 H 0.21009 0.71015 0.39365 0.0
C989 C 0.28088 0.58981 0.36914 0.0
C990 C 0.25376 0.58689 0.39107 0.0
H991 H 0.30541 0.6372 0.33972 0.0
H992 H 0.30334 0.55759 0.36289 0.0
C993 C 0.22723 0.63017 0.3995 0.0
C994 C 0.60584 0.96056 0.11802 0.0
C995 C 0.58357 1.00855 0.12292 0.0
H996 H 0.67065 0.91401 0.12118 0.0
C997 C 0.60665 0.04281 0.13938 0.0
H998 H 0.58862 0.93305 0.10571 0.0
C999 C 0.65361 0.03128 0.14872 0.0
C1000 C 0.6778 0.98557 0.14154 0.0
H1001 H 0.59043 0.08016 0.14338 0.0
H1002 H 0.67273 0.06005 0.1596 0.0
C1003 C 0.65262 0.94945 0.12703 0.0
C1004 C 0.29984 0.38454 0.88763 0.0
C1005 C 0.26088 0.41586 0.89619 0.0
H1006 H 0.32649 0.30783 0.88101 0.0
C1007 C 0.21642 0.39205 0.90361 0.0
H1008 H 0.33444 0.40169 0.88173 0.0
C1009 C 0.21111 0.33801 0.90241 0.0
C1010 C 0.2507 0.30658 0.89443 0.0
H1011 H 0.1855 0.41532 0.90998 0.0
H1012 H 0.17657 0.32082 0.90834 0.0
C1013 C 0.29511 0.3307 0.88715 0.0
C1014 C 0.90802 0.05795 0.61001 0.0
C1015 C 0.92719 1.00779 0.61135 0.0
H1016 H 0.8494 0.10931 0.62018 0.0
C1017 C 0.90552 0.97303 0.62792 0.0
H1018 H 0.92449 0.08591 0.5978 0.0
C1019 C 0.86258 0.98679 0.64111 0.0
C1020 C 0.84097 0.03544 0.63786 0.0
H1021 H 0.91952 0.93407 0.62931 0.0
H1022 H 0.84396 0.95794 0.65204 0.0
C1023 C 0.86538 0.07156 0.62307 0.0
loop_
_geom_bond_atom_site_label_1
_geom_bond_atom_site_label_2
_geom_bond_distance
_geom_bond_site_symmetry_2
_ccdc_geom_bond_type
O0 Tb1 2.292 . S
O0 C3 1.255 . S
Tb1 O0 2.292 . S
Tb1 O17 2.326 . S
Tb1 O19 2.500 . S
Tb1 O20 2.473 . S
Tb1 O23 2.324 1_545 S
Eu2 O6 2.292 . S
Eu2 C7 2.852 . S
Eu2 O18 2.324 . S
Eu2 O22 2.326 . S
Eu2 O24 2.500 . S
Eu2 O25 2.473 . S
C3 O0 1.255 . S
C3 O4 1.247 . S
O4 C3 1.247 . S
C5 O17 1.242 . S
C5 O18 1.258 . S
O6 Eu2 2.292 . S
O6 C8 1.255 . S
C7 Eu2 2.852 . S
C7 C11 1.503 . S
C7 O24 1.273 . S
C7 O25 1.257 . S
C8 O6 1.255 . S
C8 O9 1.247 . S
O9 C8 1.247 . S
C10 O22 1.242 1_565 S
C10 O23 1.258 . S
C11 C7 1.503 . S
C11 C12 1.379 . S
C11 C16 1.392 . S
C12 C11 1.379 . S
C12 C13 1.404 . S
C12 H26 0.929 . S
C13 C12 1.404 . S
C13 C14 1.389 . S
C14 C13 1.389 . S
C14 C15 1.399 . S
C14 H27 0.931 . S
C15 C14 1.399 . S
C15 C16 1.390 . S
C16 C11 1.392 . S
C16 C15 1.390 . S
C16 H28 0.929 . S
O17 Tb1 2.326 . S
O17 C5 1.242 . S
O18 Eu2 2.324 . S
O18 C5 1.258 . S
O19 Tb1 2.500 . S
O19 C21 1.273 . S
O20 Tb1 2.473 . S
O20 C21 1.257 . S
C21 O19 1.273 . S
C21 O20 1.257 . S
O22 Eu2 2.326 . S
O22 C10 1.242 1_545 S
O23 Tb1 2.324 1_565 S
O23 C10 1.258 . S
O24 Eu2 2.500 . S
O24 C7 1.273 . S
O25 Eu2 2.473 . S
O25 C7 1.257 . S
H26 C12 0.929 . S
H27 C14 0.931 . S
H28 C16 0.929 . S
O29 Tb30 2.292 . S
O29 C32 1.255 . S
Tb30 O29 2.292 . S
Tb30 O46 2.326 . S
Tb30 O48 2.500 . S
Tb30 O49 2.473 . S
Tb30 O52 2.324 . S
Eu31 O35 2.292 . S
Eu31 C36 2.852 . S
Eu31 O47 2.324 . S
Eu31 O51 2.326 . S
Eu31 O53 2.500 . S
Eu31 O54 2.473 . S
C32 O29 1.255 . S
C32 O33 1.247 . S
O33 C32 1.247 . S
C34 O46 1.242 . S
C34 O47 1.258 . S
O35 Eu31 2.292 . S
O35 C37 1.255 . S
C36 Eu31 2.852 . S
C36 C40 1.503 . S
C36 O53 1.273 . S
C36 O54 1.257 . S
C37 O35 1.255 . S
C37 O38 1.247 . S
O38 C37 1.247 . S
C39 O51 1.242 . S
C39 O52 1.258 . S
C40 C36 1.503 . S
C40 C41 1.379 . S
C40 C45 1.392 . S
C41 C40 1.379 . S
C41 C42 1.404 . S
C41 H55 0.929 . S
C42 C41 1.404 . S
C42 C43 1.389 . S
C43 C42 1.389 . S
C43 C44 1.399 . S
C43 H56 0.931 . S
C44 C43 1.399 . S
C44 C45 1.390 . S
C45 C40 1.392 . S
C45 C44 1.390 . S
C45 H57 0.929 . S
O46 Tb30 2.326 . S
O46 C34 1.242 . S
O47 Eu31 2.324 . S
O47 C34 1.258 . S
O48 Tb30 2.500 . S
O48 C50 1.273 . S
O49 Tb30 2.473 . S
O49 C50 1.257 . S
C50 O48 1.273 . S
C50 O49 1.257 . S
O51 Eu31 2.326 . S
O51 C39 1.242 . S
O52 Tb30 2.324 . S
O52 C39 1.258 . S
O53 Eu31 2.500 . S
O53 C36 1.273 . S
O54 Eu31 2.473 . S
O54 C36 1.257 . S
H55 C41 0.929 . S
H56 C43 0.931 . S
H57 C45 0.929 . S
O58 Tb59 2.292 . S
O58 C61 1.255 . S
Tb59 O58 2.292 . S
Tb59 O75 2.326 . S
Tb59 O77 2.500 . S
Tb59 O78 2.473 . S
Tb59 O81 2.324 1_565 S
Eu60 O64 2.292 . S
Eu60 C65 2.852 . S
Eu60 O76 2.324 . S
Eu60 O80 2.326 . S
Eu60 O82 2.500 . S
Eu60 O83 2.473 . S
C61 O58 1.255 . S
C61 O62 1.247 . S
O62 C61 1.247 . S
C63 O75 1.242 . S
C63 O76 1.258 . S
O64 Eu60 2.292 . S
O64 C66 1.255 . S
C65 Eu60 2.852 . S
C65 C69 1.503 . S
C65 O82 1.273 . S
C65 O83 1.257 . S
C66 O64 1.255 . S
C66 O67 1.247 . S
O67 C66 1.247 . S
C68 O80 1.242 1_545 S
C68 O81 1.258 . S
C69 C65 1.503 . S
C69 C70 1.379 . S
C69 C74 1.392 . S
C70 C69 1.379 . S
C70 C71 1.404 . S
C70 H84 0.929 . S
C71 C70 1.404 . S
C71 C72 1.389 1_455 S
C72 C71 1.389 1_655 S
C72 C73 1.399 . S
C72 H85 0.931 . S
C73 C72 1.399 . S
C73 C74 1.390 1_655 S
C74 C69 1.392 . S
C74 C73 1.390 1_455 S
C74 H86 0.929 . S
O75 Tb59 2.326 . S
O75 C63 1.242 . S
O76 Eu60 2.324 . S
O76 C63 1.258 . S
O77 Tb59 2.500 . S
O77 C79 1.273 . S
O78 Tb59 2.473 . S
O78 C79 1.257 . S
C79 O77 1.273 . S
C79 O78 1.257 . S
O80 Eu60 2.326 . S
O80 C68 1.242 1_565 S
O81 Tb59 2.324 1_545 S
O81 C68 1.258 . S
O82 Eu60 2.500 . S
O82 C65 1.273 . S
O83 Eu60 2.473 . S
O83 C65 1.257 . S
H84 C70 0.929 . S
H85 C72 0.931 . S
H86 C74 0.929 . S
O87 Tb88 2.292 . S
O87 C90 1.255 . S
Tb88 O87 2.292 . S
Tb88 O104 2.326 . S
Tb88 O106 2.500 . S
Tb88 O107 2.473 . S
Tb88 O110 2.324 . S
Eu89 O93 2.292 . S
Eu89 C94 2.852 . S
Eu89 O105 2.324 . S
Eu89 O109 2.326 . S
Eu89 O111 2.500 . S
Eu89 O112 2.473 . S
C90 O87 1.255 . S
C90 O91 1.247 . S
O91 C90 1.247 . S
C92 O104 1.242 . S
C92 O105 1.258 . S
O93 Eu89 2.292 . S
O93 C95 1.255 . S
C94 Eu89 2.852 . S
C94 C98 1.503 . S
C94 O111 1.273 . S
C94 O112 1.257 . S
C95 O93 1.255 . S
C95 O96 1.247 . S
O96 C95 1.247 . S
C97 O109 1.242 . S
C97 O110 1.258 . S
C98 C94 1.503 . S
C98 C99 1.379 . S
C98 C103 1.392 . S
C99 C98 1.379 . S
C99 C100 1.404 . S
C99 H113 0.929 . S
C100 C99 1.404 . S
C100 C101 1.389 . S
C101 C100 1.389 . S
C101 C102 1.399 . S
C101 H114 0.931 . S
C102 C101 1.399 . S
C102 C103 1.390 . S
C103 C98 1.392 . S
C103 C102 1.390 . S
C103 H115 0.929 . S
O104 Tb88 2.326 . S
O104 C92 1.242 . S
O105 Eu89 2.324 . S
O105 C92 1.258 . S
O106 Tb88 2.500 . S
O106 C108 1.273 . S
O107 Tb88 2.473 . S
O107 C108 1.257 . S
C108 O106 1.273 . S
C108 O107 1.257 . S
O109 Eu89 2.326 . S
O109 C97 1.242 . S
O110 Tb88 2.324 . S
O110 C97 1.258 . S
O111 Eu89 2.500 . S
O111 C94 1.273 . S
O112 Eu89 2.473 . S
O112 C94 1.257 . S
H113 C99 0.929 . S
H114 C101 0.931 . S
H115 C103 0.929 . S
O116 Tb117 2.292 . S
O116 C119 1.255 . S
Tb117 O116 2.292 . S
Tb117 O133 2.326 . S
Tb117 O135 2.500 . S
Tb117 O136 2.473 . S
Tb117 O139 2.324 1_565 S
Eu118 O122 2.292 . S
Eu118 C123 2.852 . S
Eu118 O134 2.324 . S
Eu118 O138 2.326 . S
Eu118 O140 2.500 . S
Eu118 O141 2.473 . S
C119 O116 1.255 . S
C119 O120 1.247 . S
O120 C119 1.247 . S
C121 O133 1.242 . S
C121 O134 1.258 . S
O122 Eu118 2.292 . S
O122 C124 1.255 . S
C123 Eu118 2.852 . S
C123 C127 1.503 . S
C123 O140 1.273 . S
C123 O141 1.257 . S
C124 O122 1.255 . S
C124 O125 1.246 1_565 S
O125 C124 1.246 1_545 S
C126 O138 1.242 1_545 S
C126 O139 1.258 . S
C127 C123 1.503 . S
C127 C128 1.379 . S
C127 C132 1.392 . S
C128 C127 1.379 . S
C128 C129 1.404 . S
C128 H142 0.929 . S
C129 C128 1.404 . S
C129 C130 1.389 . S
C130 C129 1.389 . S
C130 C131 1.399 1_565 S
C130 H143 0.931 1_565 S
C131 C130 1.399 1_545 S
C131 C132 1.390 1_545 S
C132 C127 1.392 . S
C132 C131 1.390 1_565 S
C132 H144 0.929 . S
O133 Tb117 2.326 . S
O133 C121 1.242 . S
O134 Eu118 2.324 . S
O134 C121 1.258 . S
O135 Tb117 2.500 . S
O135 C137 1.273 . S
O136 Tb117 2.473 . S
O136 C137 1.257 . S
C137 O135 1.273 . S
C137 O136 1.257 . S
O138 Eu118 2.326 . S
O138 C126 1.242 1_565 S
O139 Tb117 2.324 1_545 S
O139 C126 1.258 . S
O140 Eu118 2.500 . S
O140 C123 1.273 . S
O141 Eu118 2.473 . S
O141 C123 1.257 . S
H142 C128 0.929 . S
H143 C130 0.931 1_545 S
H144 C132 0.929 . S
O145 Tb146 2.292 . S
O145 C148 1.255 . S
Tb146 O145 2.292 . S
Tb146 O162 2.326 . S
Tb146 O164 2.500 . S
Tb146 O165 2.473 . S
Tb146 O168 2.324 . S
Eu147 O151 2.292 . S
Eu147 C152 2.852 . S
Eu147 O163 2.324 . S
Eu147 O167 2.326 . S
Eu147 O169 2.500 . S
Eu147 O170 2.473 . S
C148 O145 1.255 . S
C148 O149 1.247 . S
O149 C148 1.247 . S
C150 O162 1.242 . S
C150 O163 1.258 . S
O151 Eu147 2.292 . S
O151 C153 1.255 . S
C152 Eu147 2.852 . S
C152 C156 1.503 . S
C152 O169 1.273 . S
C152 O170 1.257 . S
C153 O151 1.255 . S
C153 O154 1.247 . S
O154 C153 1.247 . S
C155 O167 1.242 . S
C155 O168 1.258 . S
C156 C152 1.503 . S
C156 C157 1.379 . S
C156 C161 1.392 . S
C157 C156 1.379 . S
C157 C158 1.404 . S
C157 H171 0.929 . S
C158 C157 1.404 . S
C158 C159 1.389 . S
C159 C158 1.389 . S
C159 C160 1.399 . S
C159 H172 0.931 . S
C160 C159 1.399 . S
C160 C161 1.390 . S
C161 C156 1.392 . S
C161 C160 1.390 . S
C161 H173 0.929 . S
O162 Tb146 2.326 . S
O162 C150 1.242 . S
O163 Eu147 2.324 . S
O163 C150 1.258 . S
O164 Tb146 2.500 . S
O164 C166 1.273 . S
O165 Tb146 2.473 . S
O165 C166 1.257 . S
C166 O164 1.273 . S
C166 O165 1.257 . S
O167 Eu147 2.326 . S
O167 C155 1.242 . S
O168 Tb146 2.324 . S
O168 C155 1.258 . S
O169 Eu147 2.500 . S
O169 C152 1.273 . S
O170 Eu147 2.473 . S
O170 C152 1.257 . S
H171 C157 0.929 . S
H172 C159 0.931 . S
H173 C161 0.929 . S
O174 Tb175 2.292 . S
O174 C177 1.255 . S
Tb175 O174 2.292 . S
Tb175 O191 2.326 . S
Tb175 O193 2.500 . S
Tb175 O194 2.473 . S
Tb175 O197 2.324 1_545 S
Eu176 O180 2.292 . S
Eu176 C181 2.852 . S
Eu176 O192 2.324 . S
Eu176 O196 2.326 . S
Eu176 O198 2.500 . S
Eu176 O199 2.473 . S
C177 O174 1.255 . S
C177 O178 1.247 . S
O178 C177 1.247 . S
C179 O191 1.242 . S
C179 O192 1.258 . S
O180 Eu176 2.292 . S
O180 C182 1.255 . S
C181 Eu176 2.852 . S
C181 C185 1.503 . S
C181 O198 1.273 . S
C181 O199 1.257 . S
C182 O180 1.255 . S
C182 O183 1.247 . S
O183 C182 1.247 . S
C184 O196 1.242 1_565 S
C184 O197 1.258 . S
C185 C181 1.503 . S
C185 C186 1.379 . S
C185 C190 1.392 . S
C186 C185 1.379 . S
C186 C187 1.404 . S
C186 H200 0.929 . S
C187 C186 1.404 . S
C187 C188 1.389 1_655 S
C188 C187 1.389 1_455 S
C188 C189 1.399 . S
C188 H201 0.931 . S
C189 C188 1.399 . S
C189 C190 1.390 1_455 S
C190 C185 1.392 . S
C190 C189 1.390 1_655 S
C190 H202 0.929 . S
O191 Tb175 2.326 . S
O191 C179 1.242 . S
O192 Eu176 2.324 . S
O192 C179 1.258 . S
O193 Tb175 2.500 . S
O193 C195 1.273 . S
O194 Tb175 2.473 . S
O194 C195 1.257 . S
C195 O193 1.273 . S
C195 O194 1.257 . S
O196 Eu176 2.326 . S
O196 C184 1.242 1_545 S
O197 Tb175 2.324 1_565 S
O197 C184 1.258 . S
O198 Eu176 2.500 . S
O198 C181 1.273 . S
O199 Eu176 2.473 . S
O199 C181 1.257 . S
H200 C186 0.929 . S
H201 C188 0.931 . S
H202 C190 0.929 . S
O203 Tb204 2.292 . S
O203 C206 1.255 . S
Tb204 O203 2.292 . S
Tb204 O220 2.326 . S
Tb204 O222 2.500 . S
Tb204 O223 2.473 . S
Tb204 O226 2.324 . S
Eu205 O209 2.292 . S
Eu205 C210 2.852 . S
Eu205 O221 2.324 . S
Eu205 O225 2.326 . S
Eu205 O227 2.500 . S
Eu205 O228 2.473 . S
C206 O203 1.255 . S
C206 O207 1.247 . S
O207 C206 1.247 . S
C208 O220 1.242 . S
C208 O221 1.258 . S
O209 Eu205 2.292 . S
O209 C211 1.255 . S
C210 Eu205 2.852 . S
C210 C214 1.503 . S
C210 O227 1.273 . S
C210 O228 1.257 . S
C211 O209 1.255 . S
C211 O212 1.247 . S
O212 C211 1.247 . S
C213 O225 1.242 . S
C213 O226 1.258 . S
C214 C210 1.503 . S
C214 C215 1.379 . S
C214 C219 1.392 . S
C215 C214 1.379 . S
C215 C216 1.404 . S
C215 H229 0.929 . S
C216 C215 1.404 . S
C216 C217 1.389 . S
C217 C216 1.389 . S
C217 C218 1.399 . S
C217 H230 0.931 . S
C218 C217 1.399 . S
C218 C219 1.390 . S
C219 C214 1.392 . S
C219 C218 1.390 . S
C219 H231 0.929 . S
O220 Tb204 2.326 . S
O220 C208 1.242 . S
O221 Eu205 2.324 . S
O221 C208 1.258 . S
O222 Tb204 2.500 . S
O222 C224 1.273 . S
O223 Tb204 2.473 . S
O223 C224 1.257 . S
C224 O222 1.273 . S
C224 O223 1.257 . S
O225 Eu205 2.326 . S
O225 C213 1.242 . S
O226 Tb204 2.324 . S
O226 C213 1.258 . S
O227 Eu205 2.500 . S
O227 C210 1.273 . S
O228 Eu205 2.473 . S
O228 C210 1.257 . S
H229 C215 0.929 . S
H230 C217 0.931 . S
H231 C219 0.929 . S
O232 Tb233 2.292 . S
O232 C235 1.255 . S
Tb233 O232 2.292 . S
Tb233 O249 2.326 . S
Tb233 O251 2.500 . S
Tb233 O252 2.473 . S
Tb233 O255 2.324 . S
Eu234 O238 2.292 . S
Eu234 C239 2.852 . S
Eu234 O250 2.324 . S
Eu234 O254 2.326 . S
Eu234 O256 2.500 . S
Eu234 O257 2.473 . S
C235 O232 1.255 . S
C235 O236 1.247 . S
O236 C235 1.247 . S
C237 O249 1.242 . S
C237 O250 1.258 . S
O238 Eu234 2.292 . S
O238 C240 1.255 . S
C239 Eu234 2.852 . S
C239 C243 1.503 . S
C239 O256 1.273 . S
C239 O257 1.257 . S
C240 O238 1.255 . S
C240 O241 1.247 . S
O241 C240 1.247 . S
C242 O254 1.242 . S
C242 O255 1.258 . S
C243 C239 1.503 . S
C243 C244 1.379 . S
C243 C248 1.392 . S
C244 C243 1.379 . S
C244 C245 1.404 . S
C244 H258 0.929 . S
C245 C244 1.404 . S
C245 C246 1.389 1_655 S
C246 C245 1.389 1_455 S
C246 C247 1.399 . S
C246 H259 0.931 . S
C247 C246 1.399 . S
C247 C248 1.390 1_455 S
C248 C243 1.392 . S
C248 C247 1.390 1_655 S
C248 H260 0.929 . S
O249 Tb233 2.326 . S
O249 C237 1.242 . S
O250 Eu234 2.324 . S
O250 C237 1.258 . S
O251 Tb233 2.500 . S
O251 C253 1.273 . S
O252 Tb233 2.473 . S
O252 C253 1.257 . S
C253 O251 1.273 . S
C253 O252 1.257 . S
O254 Eu234 2.326 . S
O254 C242 1.242 . S
O255 Tb233 2.324 . S
O255 C242 1.258 . S
O256 Eu234 2.500 . S
O256 C239 1.273 . S
O257 Eu234 2.473 . S
O257 C239 1.257 . S
H258 C244 0.929 . S
H259 C246 0.931 . S
H260 C248 0.929 . S
O261 Tb262 2.292 . S
O261 C264 1.255 . S
Tb262 O261 2.292 . S
Tb262 O278 2.326 . S
Tb262 O280 2.500 . S
Tb262 O281 2.473 . S
Tb262 O284 2.324 . S
Eu263 O267 2.292 . S
Eu263 C268 2.852 1_565 S
Eu263 O279 2.324 1_565 S
Eu263 O283 2.326 1_565 S
Eu263 O285 2.500 . S
Eu263 O286 2.473 1_565 S
C264 O261 1.255 . S
C264 O265 1.247 . S
O265 C264 1.247 . S
C266 O278 1.242 . S
C266 O279 1.258 . S
O267 Eu263 2.292 . S
O267 C269 1.255 . S
C268 Eu263 2.852 1_545 S
C268 C272 1.503 . S
C268 O285 1.273 1_545 S
C268 O286 1.257 . S
C269 O267 1.255 . S
C269 O270 1.247 . S
O270 C269 1.247 . S
C271 O283 1.242 . S
C271 O284 1.258 . S
C272 C268 1.503 . S
C272 C273 1.379 . S
C272 C277 1.392 . S
C273 C272 1.379 . S
C273 C274 1.404 . S
C273 H287 0.929 . S
C274 C273 1.404 . S
C274 C275 1.389 . S
C275 C274 1.389 . S
C275 C276 1.399 . S
C275 H288 0.931 . S
C276 C275 1.399 . S
C276 C277 1.390 . S
C277 C272 1.392 . S
C277 C276 1.390 . S
C277 H289 0.929 . S
O278 Tb262 2.326 . S
O278 C266 1.242 . S
O279 Eu263 2.324 1_545 S
O279 C266 1.258 . S
O280 Tb262 2.500 . S
O280 C282 1.273 . S
O281 Tb262 2.473 . S
O281 C282 1.257 . S
C282 O280 1.273 . S
C282 O281 1.257 . S
O283 Eu263 2.326 1_545 S
O283 C271 1.242 . S
O284 Tb262 2.324 . S
O284 C271 1.258 . S
O285 Eu263 2.500 . S
O285 C268 1.273 1_565 S
O286 Eu263 2.473 1_545 S
O286 C268 1.257 . S
H287 C273 0.929 . S
H288 C275 0.931 . S
H289 C277 0.929 . S
O290 Tb291 2.292 . S
O290 C293 1.255 . S
Tb291 O290 2.292 . S
Tb291 O307 2.326 . S
Tb291 O309 2.500 . S
Tb291 O310 2.473 . S
Tb291 O313 2.324 . S
Eu292 O296 2.292 . S
Eu292 C297 2.852 . S
Eu292 O308 2.324 . S
Eu292 O312 2.326 . S
Eu292 O314 2.500 . S
Eu292 O315 2.473 . S
C293 O290 1.255 . S
C293 O294 1.247 . S
O294 C293 1.247 . S
C295 O307 1.242 . S
C295 O308 1.258 . S
O296 Eu292 2.292 . S
O296 C298 1.255 . S
C297 Eu292 2.852 . S
C297 C301 1.503 . S
C297 O314 1.273 . S
C297 O315 1.257 . S
C298 O296 1.255 . S
C298 O299 1.247 . S
O299 C298 1.247 . S
C300 O312 1.242 . S
C300 O313 1.258 . S
C301 C297 1.503 . S
C301 C302 1.379 . S
C301 C306 1.392 . S
C302 C301 1.379 . S
C302 C303 1.404 . S
C302 H316 0.929 . S
C303 C302 1.404 . S
C303 C304 1.389 . S
C304 C303 1.389 . S
C304 C305 1.399 . S
C304 H317 0.931 . S
C305 C304 1.399 . S
C305 C306 1.390 . S
C306 C301 1.392 . S
C306 C305 1.390 . S
C306 H318 0.929 . S
O307 Tb291 2.326 . S
O307 C295 1.242 . S
O308 Eu292 2.324 . S
O308 C295 1.258 . S
O309 Tb291 2.500 . S
O309 C311 1.273 . S
O310 Tb291 2.473 . S
O310 C311 1.257 . S
C311 O309 1.273 . S
C311 O310 1.257 . S
O312 Eu292 2.326 . S
O312 C300 1.242 . S
O313 Tb291 2.324 . S
O313 C300 1.258 . S
O314 Eu292 2.500 . S
O314 C297 1.273 . S
O315 Eu292 2.473 . S
O315 C297 1.257 . S
H316 C302 0.929 . S
H317 C304 0.931 . S
H318 C306 0.929 . S
O319 Tb320 2.292 . S
O319 C322 1.255 . S
Tb320 O319 2.292 . S
Tb320 O336 2.326 . S
Tb320 O338 2.500 . S
Tb320 O339 2.473 . S
Tb320 O342 2.324 1_545 S
Eu321 O325 2.292 . S
Eu321 C326 2.852 . S
Eu321 O337 2.324 . S
Eu321 O341 2.326 . S
Eu321 O343 2.500 . S
Eu321 O344 2.473 . S
C322 O319 1.255 . S
C322 O323 1.247 1_545 S
O323 C322 1.247 1_565 S
C324 O336 1.242 1_565 S
C324 O337 1.258 . S
O325 Eu321 2.292 . S
O325 C327 1.255 . S
C326 Eu321 2.852 . S
C326 C330 1.503 . S
C326 O343 1.273 . S
C326 O344 1.257 . S
C327 O325 1.255 . S
C327 O328 1.247 . S
O328 C327 1.247 . S
C329 O341 1.242 . S
C329 O342 1.258 . S
C330 C326 1.503 . S
C330 C331 1.379 . S
C330 C335 1.392 . S
C331 C330 1.379 . S
C331 C332 1.404 . S
C331 H345 0.929 . S
C332 C331 1.404 . S
C332 C333 1.389 . S
C333 C332 1.389 . S
C333 C334 1.399 . S
C333 H346 0.931 . S
C334 C333 1.399 . S
C334 C335 1.390 . S
C335 C330 1.392 . S
C335 C334 1.390 . S
C335 H347 0.929 . S
O336 Tb320 2.326 . S
O336 C324 1.242 1_545 S
O337 Eu321 2.324 . S
O337 C324 1.258 . S
O338 Tb320 2.500 . S
O338 C340 1.273 . S
O339 Tb320 2.473 . S
O339 C340 1.257 . S
C340 O338 1.273 . S
C340 O339 1.257 . S
O341 Eu321 2.326 . S
O341 C329 1.242 . S
O342 Tb320 2.324 1_565 S
O342 C329 1.258 . S
O343 Eu321 2.500 . S
O343 C326 1.273 . S
O344 Eu321 2.473 . S
O344 C326 1.257 . S
H345 C331 0.929 . S
H346 C333 0.931 . S
H347 C335 0.929 . S
O348 Tb349 2.292 . S
O348 C351 1.255 . S
Tb349 O348 2.292 . S
Tb349 O365 2.326 . S
Tb349 O367 2.500 . S
Tb349 O368 2.473 . S
Tb349 O371 2.324 . S
Eu350 O354 2.292 . S
Eu350 C355 2.852 . S
Eu350 O366 2.324 . S
Eu350 O370 2.326 . S
Eu350 O372 2.500 . S
Eu350 O373 2.473 . S
C351 O348 1.255 . S
C351 O352 1.247 . S
O352 C351 1.247 . S
C353 O365 1.242 . S
C353 O366 1.258 . S
O354 Eu350 2.292 . S
O354 C356 1.255 . S
C355 Eu350 2.852 . S
C355 C359 1.503 . S
C355 O372 1.273 . S
C355 O373 1.257 . S
C356 O354 1.255 . S
C356 O357 1.247 . S
O357 C356 1.247 . S
C358 O370 1.242 . S
C358 O371 1.258 . S
C359 C355 1.503 . S
C359 C360 1.379 . S
C359 C364 1.392 . S
C360 C359 1.379 . S
C360 C361 1.404 . S
C360 H374 0.929 . S
C361 C360 1.404 . S
C361 C362 1.389 1_455 S
C362 C361 1.389 1_655 S
C362 C363 1.399 . S
C362 H375 0.931 . S
C363 C362 1.399 . S
C363 C364 1.390 1_655 S
C364 C359 1.392 . S
C364 C363 1.390 1_455 S
C364 H376 0.929 . S
O365 Tb349 2.326 . S
O365 C353 1.242 . S
O366 Eu350 2.324 . S
O366 C353 1.258 . S
O367 Tb349 2.500 . S
O367 C369 1.273 . S
O368 Tb349 2.473 . S
O368 C369 1.257 . S
C369 O367 1.273 . S
C369 O368 1.257 . S
O370 Eu350 2.326 . S
O370 C358 1.242 . S
O371 Tb349 2.324 . S
O371 C358 1.258 . S
O372 Eu350 2.500 . S
O372 C355 1.273 . S
O373 Eu350 2.473 . S
O373 C355 1.257 . S
H374 C360 0.929 . S
H375 C362 0.931 . S
H376 C364 0.929 . S
O377 Tb378 2.292 . S
O377 C380 1.255 1_545 S
Tb378 O377 2.292 . S
Tb378 O394 2.326 1_545 S
Tb378 O396 2.500 . S
Tb378 O397 2.473 . S
Tb378 O400 2.324 1_545 S
Eu379 O383 2.292 . S
Eu379 C384 2.852 . S
Eu379 O395 2.324 . S
Eu379 O399 2.326 . S
Eu379 O401 2.500 . S
Eu379 O402 2.473 . S
C380 O377 1.255 1_565 S
C380 O381 1.247 . S
O381 C380 1.247 . S
C382 O394 1.242 . S
C382 O395 1.258 . S
O383 Eu379 2.292 . S
O383 C385 1.255 . S
C384 Eu379 2.852 . S
C384 C388 1.503 . S
C384 O401 1.273 . S
C384 O402 1.257 . S
C385 O383 1.255 . S
C385 O386 1.247 . S
O386 C385 1.247 . S
C387 O399 1.242 . S
C387 O400 1.258 . S
C388 C384 1.503 . S
C388 C389 1.379 . S
C388 C393 1.392 . S
C389 C388 1.379 . S
C389 C390 1.404 . S
C389 H403 0.929 . S
C390 C389 1.404 . S
C390 C391 1.389 . S
C391 C390 1.389 . S
C391 C392 1.399 . S
C391 H404 0.931 . S
C392 C391 1.399 . S
C392 C393 1.390 . S
C393 C388 1.392 . S
C393 C392 1.390 . S
C393 H405 0.929 . S
O394 Tb378 2.326 1_565 S
O394 C382 1.242 . S
O395 Eu379 2.324 . S
O395 C382 1.258 . S
O396 Tb378 2.500 . S
O396 C398 1.273 . S
O397 Tb378 2.473 . S
O397 C398 1.257 . S
C398 O396 1.273 . S
C398 O397 1.257 . S
O399 Eu379 2.326 . S
O399 C387 1.242 . S
O400 Tb378 2.324 1_565 S
O400 C387 1.258 . S
O401 Eu379 2.500 . S
O401 C384 1.273 . S
O402 Eu379 2.473 . S
O402 C384 1.257 . S
H403 C389 0.929 . S
H404 C391 0.931 . S
H405 C393 0.929 . S
O406 Tb407 2.292 . S
O406 C409 1.255 . S
Tb407 O406 2.292 . S
Tb407 O423 2.326 . S
Tb407 O425 2.500 . S
Tb407 O426 2.473 . S
Tb407 O429 2.324 . S
Eu408 O412 2.292 . S
Eu408 C413 2.852 . S
Eu408 O424 2.324 . S
Eu408 O428 2.326 . S
Eu408 O430 2.500 . S
Eu408 O431 2.473 . S
C409 O406 1.255 . S
C409 O410 1.247 . S
O410 C409 1.247 . S
C411 O423 1.242 . S
C411 O424 1.258 . S
O412 Eu408 2.292 . S
O412 C414 1.255 . S
C413 Eu408 2.852 . S
C413 C417 1.503 . S
C413 O430 1.273 . S
C413 O431 1.257 . S
C414 O412 1.255 . S
C414 O415 1.247 . S
O415 C414 1.247 . S
C416 O428 1.242 . S
C416 O429 1.258 . S
C417 C413 1.503 . S
C417 C418 1.379 . S
C417 C422 1.392 . S
C418 C417 1.379 . S
C418 C419 1.404 . S
C418 H432 0.929 . S
C419 C418 1.404 . S
C419 C420 1.389 . S
C420 C419 1.389 . S
C420 C421 1.399 . S
C420 H433 0.931 . S
C421 C420 1.399 . S
C421 C422 1.390 . S
C422 C417 1.392 . S
C422 C421 1.390 . S
C422 H434 0.929 . S
O423 Tb407 2.326 . S
O423 C411 1.242 . S
O424 Eu408 2.324 . S
O424 C411 1.258 . S
O425 Tb407 2.500 . S
O425 C427 1.273 . S
O426 Tb407 2.473 . S
O426 C427 1.257 . S
C427 O425 1.273 . S
C427 O426 1.257 . S
O428 Eu408 2.326 . S
O428 C416 1.242 . S
O429 Tb407 2.324 . S
O429 C416 1.258 . S
O430 Eu408 2.500 . S
O430 C413 1.273 . S
O431 Eu408 2.473 . S
O431 C413 1.257 . S
H432 C418 0.929 . S
H433 C420 0.931 . S
H434 C422 0.929 . S
O435 Tb436 2.292 . S
O435 C438 1.258 . S
Tb436 O435 2.292 . S
Tb436 O452 2.326 . S
Tb436 O454 2.500 . S
Tb436 O455 2.473 . S
Tb436 O458 2.324 1_565 S
Eu437 O441 2.292 . S
Eu437 C442 2.852 . S
Eu437 O453 2.324 . S
Eu437 O457 2.326 . S
Eu437 O459 2.500 . S
Eu437 O460 2.473 . S
C438 O435 1.258 . S
C438 O439 1.242 1_565 S
O439 C438 1.242 1_545 S
C440 O452 1.242 1_545 S
C440 O453 1.258 . S
O441 Eu437 2.292 . S
O441 C443 1.255 . S
C442 Eu437 2.852 . S
C442 C446 1.503 . S
C442 O459 1.273 . S
C442 O460 1.257 . S
C443 O441 1.255 . S
C443 O444 1.247 . S
O444 C443 1.247 . S
C445 O457 1.242 . S
C445 O458 1.258 . S
C446 C442 1.503 . S
C446 C447 1.379 . S
C446 C451 1.392 . S
C447 C446 1.379 . S
C447 C448 1.404 . S
C447 H461 0.929 . S
C448 C447 1.404 . S
C448 C449 1.389 . S
C449 C448 1.389 . S
C449 C450 1.399 . S
C449 H462 0.931 . S
C450 C449 1.399 . S
C450 C451 1.390 . S
C451 C446 1.392 . S
C451 C450 1.390 . S
C451 H463 0.929 . S
O452 Tb436 2.326 . S
O452 C440 1.242 1_565 S
O453 Eu437 2.324 . S
O453 C440 1.258 . S
O454 Tb436 2.500 . S
O454 C456 1.273 . S
O455 Tb436 2.473 . S
O455 C456 1.257 . S
C456 O454 1.273 . S
C456 O455 1.257 . S
O457 Eu437 2.326 . S
O457 C445 1.242 . S
O458 Tb436 2.324 1_545 S
O458 C445 1.258 . S
O459 Eu437 2.500 . S
O459 C442 1.273 . S
O460 Eu437 2.473 . S
O460 C442 1.257 . S
H461 C447 0.929 . S
H462 C449 0.931 . S
H463 C451 0.929 . S
C464 C465 1.387 . S
C464 H468 0.950 . S
C464 C473 1.390 . S
C465 C464 1.387 . S
C465 C467 1.387 . S
H466 C473 0.950 . S
C467 C465 1.387 . S
C467 C469 1.390 . S
C467 H471 0.950 . S
H468 C464 0.950 . S
C469 C467 1.390 . S
C469 C470 1.387 . S
C469 H472 0.950 . S
C470 C469 1.387 . S
C470 C473 1.387 . S
H471 C467 0.950 . S
H472 C469 0.950 . S
C473 C464 1.390 . S
C473 H466 0.950 . S
C473 C470 1.387 . S
C474 C475 1.387 . S
C474 H478 0.950 . S
C474 C483 1.390 . S
C475 C474 1.387 . S
C475 C477 1.387 . S
H476 C483 0.950 . S
C477 C475 1.387 . S
C477 C479 1.390 . S
C477 H481 0.950 . S
H478 C474 0.950 . S
C479 C477 1.390 . S
C479 C480 1.387 . S
C479 H482 0.950 . S
C480 C479 1.387 . S
C480 C483 1.387 . S
H481 C477 0.950 . S
H482 C479 0.950 . S
C483 C474 1.390 . S
C483 H476 0.950 . S
C483 C480 1.387 . S
C484 C485 1.387 . S
C484 H488 0.950 . S
C484 C493 1.390 . S
C485 C484 1.387 . S
C485 C487 1.387 . S
H486 C493 0.950 . S
C487 C485 1.387 . S
C487 C489 1.390 . S
C487 H491 0.950 . S
H488 C484 0.950 . S
C489 C487 1.390 . S
C489 C490 1.387 . S
C489 H492 0.950 . S
C490 C489 1.387 . S
C490 C493 1.387 . S
H491 C487 0.950 . S
H492 C489 0.950 . S
C493 C484 1.390 . S
C493 H486 0.950 . S
C493 C490 1.387 . S
C494 C495 1.387 . S
C494 H498 0.950 . S
C494 C503 1.390 . S
C495 C494 1.387 . S
C495 C497 1.387 . S
H496 C503 0.950 1_655 S
C497 C495 1.387 . S
C497 C499 1.390 . S
C497 H501 0.950 . S
H498 C494 0.950 . S
C499 C497 1.390 . S
C499 C500 1.387 1_455 S
C499 H502 0.950 1_455 S
C500 C499 1.387 1_655 S
C500 C503 1.387 1_655 S
H501 C497 0.950 . S
H502 C499 0.950 1_655 S
C503 C494 1.390 . S
C503 H496 0.950 1_455 S
C503 C500 1.387 1_455 S
C504 C505 1.387 . S
C504 H508 0.950 . S
C504 C513 1.390 . S
C505 C504 1.387 . S
C505 C507 1.387 . S
H506 C513 0.950 . S
C507 C505 1.387 . S
C507 C509 1.390 . S
C507 H511 0.950 . S
H508 C504 0.950 . S
C509 C507 1.390 . S
C509 C510 1.387 . S
C509 H512 0.950 . S
C510 C509 1.387 . S
C510 C513 1.387 . S
H511 C507 0.950 . S
H512 C509 0.950 . S
C513 C504 1.390 . S
C513 H506 0.950 . S
C513 C510 1.387 . S
C514 C515 1.387 . S
C514 H518 0.950 . S
C514 C523 1.390 . S
C515 C514 1.387 . S
C515 C517 1.387 . S
H516 C523 0.950 . S
C517 C515 1.387 . S
C517 C519 1.390 . S
C517 H521 0.950 . S
H518 C514 0.950 . S
C519 C517 1.390 . S
C519 C520 1.387 . S
C519 H522 0.950 . S
C520 C519 1.387 . S
C520 C523 1.387 . S
H521 C517 0.950 . S
H522 C519 0.950 . S
C523 C514 1.390 . S
C523 H516 0.950 . S
C523 C520 1.387 . S
C524 C525 1.387 . S
C524 H528 0.950 . S
C524 C533 1.390 . S
C525 C524 1.387 . S
C525 C527 1.387 . S
H526 C533 0.950 . S
C527 C525 1.387 . S
C527 C529 1.390 . S
C527 H531 0.950 . S
H528 C524 0.950 . S
C529 C527 1.390 . S
C529 C530 1.387 . S
C529 H532 0.950 . S
C530 C529 1.387 . S
C530 C533 1.387 . S
H531 C527 0.950 . S
H532 C529 0.950 . S
C533 C524 1.390 . S
C533 H526 0.950 . S
C533 C530 1.387 . S
C534 C535 1.387 . S
C534 H538 0.950 . S
C534 C543 1.390 . S
C535 C534 1.387 . S
C535 C537 1.387 . S
H536 C543 0.950 1_455 S
C537 C535 1.387 . S
C537 C539 1.390 . S
C537 H541 0.950 . S
H538 C534 0.950 . S
C539 C537 1.390 . S
C539 C540 1.387 1_655 S
C539 H542 0.950 1_655 S
C540 C539 1.387 1_455 S
C540 C543 1.387 1_455 S
H541 C537 0.950 . S
H542 C539 0.950 1_455 S
C543 C534 1.390 . S
C543 H536 0.950 1_655 S
C543 C540 1.387 1_655 S
C544 C545 1.387 . S
C544 H548 0.950 . S
C544 C553 1.390 . S
C545 C544 1.387 . S
C545 C547 1.387 . S
H546 C553 0.950 . S
C547 C545 1.387 . S
C547 C549 1.390 . S
C547 H551 0.950 . S
H548 C544 0.950 . S
C549 C547 1.390 . S
C549 C550 1.387 . S
C549 H552 0.950 . S
C550 C549 1.387 . S
C550 C553 1.387 . S
H551 C547 0.950 . S
H552 C549 0.950 . S
C553 C544 1.390 . S
C553 H546 0.950 . S
C553 C550 1.387 . S
C554 C555 1.387 . S
C554 H558 0.950 . S
C554 C563 1.390 1_445 S
C555 C554 1.387 . S
C555 C557 1.387 1_545 S
H556 C563 0.950 . S
C557 C555 1.387 1_565 S
C557 C559 1.390 1_455 S
C557 H561 0.950 . S
H558 C554 0.950 . S
C559 C557 1.390 1_655 S
C559 C560 1.387 . S
C559 H562 0.950 . S
C560 C559 1.387 . S
C560 C563 1.387 . S
H561 C557 0.950 . S
H562 C559 0.950 . S
C563 C554 1.390 1_665 S
C563 H556 0.950 . S
C563 C560 1.387 . S
C564 C565 1.387 . S
C564 H568 0.950 . S
C564 C573 1.390 . S
C565 C564 1.387 . S
C565 C567 1.387 . S
H566 C573 0.950 . S
C567 C565 1.387 . S
C567 C569 1.390 . S
C567 H571 0.950 . S
H568 C564 0.950 . S
C569 C567 1.390 . S
C569 C570 1.387 . S
C569 H572 0.950 . S
C570 C569 1.387 . S
C570 C573 1.387 . S
H571 C567 0.950 . S
H572 C569 0.950 . S
C573 C564 1.390 . S
C573 H566 0.950 . S
C573 C570 1.387 . S
C574 C575 1.387 . S
C574 H578 0.950 . S
C574 C583 1.390 . S
C575 C574 1.387 . S
C575 C577 1.387 . S
H576 C583 0.950 . S
C577 C575 1.387 . S
C577 C579 1.390 . S
C577 H581 0.950 . S
H578 C574 0.950 . S
C579 C577 1.390 . S
C579 C580 1.387 . S
C579 H582 0.950 . S
C580 C579 1.387 . S
C580 C583 1.387 . S
H581 C577 0.950 . S
H582 C579 0.950 . S
C583 C574 1.390 . S
C583 H576 0.950 . S
C583 C580 1.387 . S
C584 C585 1.387 . S
C584 H588 0.950 . S
C584 C593 1.390 . S
C585 C584 1.387 . S
C585 C587 1.387 . S
H586 C593 0.950 . S
C587 C585 1.387 . S
C587 C589 1.390 . S
C587 H591 0.950 . S
H588 C584 0.950 . S
C589 C587 1.390 . S
C589 C590 1.387 . S
C589 H592 0.950 . S
C590 C589 1.387 . S
C590 C593 1.387 . S
H591 C587 0.950 . S
H592 C589 0.950 . S
C593 C584 1.390 . S
C593 H586 0.950 . S
C593 C590 1.387 . S
C594 C595 1.387 1_465 S
C594 H598 0.950 . S
C594 C603 1.390 1_565 S
C595 C594 1.387 1_645 S
C595 C597 1.387 . S
H596 C603 0.950 1_565 S
C597 C595 1.387 . S
C597 C599 1.390 1_655 S
C597 H601 0.950 . S
H598 C594 0.950 . S
C599 C597 1.390 1_455 S
C599 C600 1.387 . S
C599 H602 0.950 . S
C600 C599 1.387 . S
C600 C603 1.387 . S
H601 C597 0.950 . S
H602 C599 0.950 . S
C603 C594 1.390 1_545 S
C603 H596 0.950 1_545 S
C603 C600 1.387 . S
C604 C605 1.387 . S
C604 H608 0.950 . S
C604 C613 1.390 . S
C605 C604 1.387 . S
C605 C607 1.387 . S
H606 C613 0.950 . S
C607 C605 1.387 . S
C607 C609 1.390 . S
C607 H611 0.950 . S
H608 C604 0.950 . S
C609 C607 1.390 . S
C609 C610 1.387 . S
C609 H612 0.950 . S
C610 C609 1.387 . S
C610 C613 1.387 . S
H611 C607 0.950 . S
H612 C609 0.950 . S
C613 C604 1.390 . S
C613 H606 0.950 . S
C613 C610 1.387 . S
C614 C615 1.387 . S
C614 H618 0.950 . S
C614 C623 1.390 . S
C615 C614 1.387 . S
C615 C617 1.387 . S
H616 C623 0.950 . S
C617 C615 1.387 . S
C617 C619 1.390 1_565 S
C617 H621 0.950 1_565 S
H618 C614 0.950 . S
C619 C617 1.390 1_545 S
C619 C620 1.387 1_545 S
C619 H622 0.950 . S
C620 C619 1.387 1_565 S
C620 C623 1.387 . S
H621 C617 0.950 1_545 S
H622 C619 0.950 . S
C623 C614 1.390 . S
C623 H616 0.950 . S
C623 C620 1.387 . S
C624 C625 1.387 . S
C624 H628 0.950 . S
C624 C633 1.390 . S
C625 C624 1.387 . S
C625 C627 1.387 . S
H626 C633 0.950 . S
C627 C625 1.387 . S
C627 C629 1.390 1_556 S
C627 H631 0.950 . S
H628 C624 0.950 . S
C629 C627 1.390 1_554 S
C629 C630 1.387 . S
C629 H632 0.950 . S
C630 C629 1.387 . S
C630 C633 1.387 1_554 S
H631 C627 0.950 . S
H632 C629 0.950 . S
C633 C624 1.390 . S
C633 H626 0.950 . S
C633 C630 1.387 1_556 S
C634 C635 1.387 . S
C634 H638 0.950 . S
C634 C643 1.390 . S
C635 C634 1.387 . S
C635 C637 1.387 . S
H636 C643 0.950 . S
C637 C635 1.387 . S
C637 C639 1.390 . S
C637 H641 0.950 . S
H638 C634 0.950 . S
C639 C637 1.390 . S
C639 C640 1.387 . S
C639 H642 0.950 . S
C640 C639 1.387 . S
C640 C643 1.387 . S
H641 C637 0.950 . S
H642 C639 0.950 . S
C643 C634 1.390 . S
C643 H636 0.950 . S
C643 C640 1.387 . S
C644 C645 1.387 . S
C644 H648 0.950 . S
C644 C653 1.390 . S
C645 C644 1.387 . S
C645 C647 1.387 . S
H646 C653 0.950 . S
C647 C645 1.387 . S
C647 C649 1.390 . S
C647 H651 0.950 . S
H648 C644 0.950 . S
C649 C647 1.390 . S
C649 C650 1.387 . S
C649 H652 0.950 . S
C650 C649 1.387 . S
C650 C653 1.387 . S
H651 C647 0.950 . S
H652 C649 0.950 . S
C653 C644 1.390 . S
C653 H646 0.950 . S
C653 C650 1.387 . S
C654 C655 1.387 . S
C654 H658 0.950 . S
C654 C663 1.390 . S
C655 C654 1.387 . S
C655 C657 1.387 . S
H656 C663 0.950 . S
C657 C655 1.387 . S
C657 C659 1.390 . S
C657 H661 0.950 . S
H658 C654 0.950 . S
C659 C657 1.390 . S
C659 C660 1.387 . S
C659 H662 0.950 . S
C660 C659 1.387 . S
C660 C663 1.387 . S
H661 C657 0.950 . S
H662 C659 0.950 . S
C663 C654 1.390 . S
C663 H656 0.950 . S
C663 C660 1.387 . S
C664 C665 1.387 . S
C664 H668 0.950 . S
C664 C673 1.424 . S
C665 C664 1.387 . S
C665 C667 1.387 . S
H666 C673 0.933 1_556 S
C667 C665 1.387 . S
C667 C669 1.425 . S
C667 H671 0.950 . S
H668 C664 0.950 . S
C669 C667 1.425 . S
C669 C670 1.371 1_554 S
C669 H672 0.933 1_554 S
C670 C669 1.371 1_556 S
C670 C673 1.371 1_556 S
H671 C667 0.950 . S
H672 C669 0.933 1_556 S
C673 C664 1.424 . S
C673 H666 0.933 1_554 S
C673 C670 1.371 1_554 S
C674 C675 1.387 . S
C674 H678 0.950 . S
C674 C683 1.390 . S
C675 C674 1.387 . S
C675 C677 1.387 . S
H676 C683 0.950 . S
C677 C675 1.387 . S
C677 C679 1.390 . S
C677 H681 0.950 . S
H678 C674 0.950 . S
C679 C677 1.390 . S
C679 C680 1.387 . S
C679 H682 0.950 . S
C680 C679 1.387 . S
C680 C683 1.387 . S
H681 C677 0.950 . S
H682 C679 0.950 . S
C683 C674 1.390 . S
C683 H676 0.950 . S
C683 C680 1.387 . S
C684 C685 1.387 . S
C684 H688 0.950 . S
C684 C693 1.390 . S
C685 C684 1.387 . S
C685 C687 1.387 . S
H686 C693 0.950 . S
C687 C685 1.387 . S
C687 C689 1.390 . S
C687 H691 0.950 . S
H688 C684 0.950 . S
C689 C687 1.390 . S
C689 C690 1.387 . S
C689 H692 0.950 . S
C690 C689 1.387 . S
C690 C693 1.387 . S
H691 C687 0.950 . S
H692 C689 0.950 . S
C693 C684 1.390 . S
C693 H686 0.950 . S
C693 C690 1.387 . S
C694 C695 1.387 . S
C694 H698 0.950 . S
C694 C703 1.390 . S
C695 C694 1.387 . S
C695 C697 1.387 . S
H696 C703 0.950 . S
C697 C695 1.387 . S
C697 C699 1.390 . S
C697 H701 0.950 . S
H698 C694 0.950 . S
C699 C697 1.390 . S
C699 C700 1.387 . S
C699 H702 0.950 . S
C700 C699 1.387 . S
C700 C703 1.387 . S
H701 C697 0.950 . S
H702 C699 0.950 . S
C703 C694 1.390 . S
C703 H696 0.950 . S
C703 C700 1.387 . S
C704 C705 1.387 . S
C704 H708 0.950 . S
C704 C713 1.390 . S
C705 C704 1.387 . S
C705 C707 1.387 . S
H706 C713 0.950 . S
C707 C705 1.387 . S
C707 C709 1.390 . S
C707 H711 0.950 . S
H708 C704 0.950 . S
C709 C707 1.390 . S
C709 C710 1.387 . S
C709 H712 0.950 . S
C710 C709 1.387 . S
C710 C713 1.387 . S
H711 C707 0.950 . S
H712 C709 0.950 . S
C713 C704 1.390 . S
C713 H706 0.950 . S
C713 C710 1.387 . S
C714 C715 1.387 . S
C714 H718 0.950 . S
C714 C723 1.390 . S
C715 C714 1.387 . S
C715 C717 1.387 1_565 S
H716 C723 0.950 . S
C717 C715 1.387 1_545 S
C717 C719 1.390 . S
C717 H721 0.950 . S
H718 C714 0.950 . S
C719 C717 1.390 . S
C719 C720 1.387 . S
C719 H722 0.950 . S
C720 C719 1.387 . S
C720 C723 1.387 1_545 S
H721 C717 0.950 . S
H722 C719 0.950 . S
C723 C714 1.390 . S
C723 H716 0.950 . S
C723 C720 1.387 1_565 S
C724 C725 1.387 . S
C724 H728 0.950 . S
C724 C733 1.390 . S
C725 C724 1.387 . S
C725 C727 1.387 . S
H726 C733 0.950 1_554 S
C727 C725 1.387 . S
C727 C729 1.390 . S
C727 H731 0.950 . S
H728 C724 0.950 . S
C729 C727 1.390 . S
C729 C730 1.387 1_556 S
C729 H732 0.950 1_556 S
C730 C729 1.387 1_554 S
C730 C733 1.387 1_554 S
H731 C727 0.950 . S
H732 C729 0.950 1_554 S
C733 C724 1.390 . S
C733 H726 0.950 1_556 S
C733 C730 1.387 1_556 S
C734 C735 1.387 . S
C734 H738 0.950 . S
C734 C743 1.390 . S
C735 C734 1.387 . S
C735 C737 1.387 . S
H736 C743 0.950 . S
C737 C735 1.387 . S
C737 C739 1.390 . S
C737 H741 0.950 . S
H738 C734 0.950 . S
C739 C737 1.390 . S
C739 C740 1.387 . S
C739 H742 0.950 . S
C740 C739 1.387 . S
C740 C743 1.387 . S
H741 C737 0.950 . S
H742 C739 0.950 . S
C743 C734 1.390 . S
C743 H736 0.950 . S
C743 C740 1.387 . S
C744 C745 1.387 . S
C744 H748 0.950 . S
C744 C753 1.390 . S
C745 C744 1.387 . S
C745 C747 1.387 . S
H746 C753 0.950 . S
C747 C745 1.387 . S
C747 C749 1.390 . S
C747 H751 0.950 . S
H748 C744 0.950 . S
C749 C747 1.390 . S
C749 C750 1.387 . S
C749 H752 0.950 . S
C750 C749 1.387 . S
C750 C753 1.387 . S
H751 C747 0.950 . S
H752 C749 0.950 . S
C753 C744 1.390 . S
C753 H746 0.950 . S
C753 C750 1.387 . S
C754 C755 1.374 1_565 S
C754 H758 0.950 . S
C754 C763 1.390 . S
C755 C754 1.374 1_545 S
C755 C757 1.401 . S
H756 C763 0.950 . S
C757 C755 1.401 . S
C757 C759 1.390 . S
C757 H761 0.950 . S
H758 C754 0.950 . S
C759 C757 1.390 . S
C759 C760 1.387 1_545 S
C759 H762 0.950 . S
C760 C759 1.387 1_565 S
C760 C763 1.387 . S
H761 C757 0.950 . S
H762 C759 0.950 . S
C763 C754 1.390 . S
C763 H756 0.950 . S
C763 C760 1.387 . S
C764 C765 1.387 . S
C764 H768 0.950 . S
C764 C773 1.390 . S
C765 C764 1.387 . S
C765 C767 1.387 . S
H766 C773 0.950 1_556 S
C767 C765 1.387 . S
C767 C769 1.390 . S
C767 H771 0.950 . S
H768 C764 0.950 . S
C769 C767 1.390 . S
C769 C770 1.387 1_554 S
C769 H772 0.950 1_554 S
C770 C769 1.387 1_556 S
C770 C773 1.387 1_556 S
H771 C767 0.950 . S
H772 C769 0.950 1_556 S
C773 C764 1.390 . S
C773 H766 0.950 1_554 S
C773 C770 1.387 1_554 S
C774 C775 1.387 . S
C774 H778 0.950 . S
C774 C783 1.390 1_565 S
C775 C774 1.387 . S
C775 C777 1.387 . S
H776 C783 0.950 . S
C777 C775 1.387 . S
C777 C779 1.390 . S
C777 H781 0.950 . S
H778 C774 0.950 . S
C779 C777 1.390 . S
C779 C780 1.386 1_565 S
C779 H782 0.950 . S
C780 C779 1.386 1_545 S
C780 C783 1.387 . S
H781 C777 0.950 . S
H782 C779 0.950 . S
C783 C774 1.390 1_545 S
C783 H776 0.950 . S
C783 C780 1.387 . S
C784 C785 1.387 . S
C784 H788 0.950 . S
C784 C793 1.390 1_566 S
C785 C784 1.387 . S
C785 C787 1.387 1_565 S
H786 C793 0.950 . S
C787 C785 1.387 1_545 S
C787 C789 1.390 1_556 S
C787 H791 0.950 . S
H788 C784 0.950 . S
C789 C787 1.390 1_554 S
C789 C790 1.387 . S
C789 H792 0.950 . S
C790 C789 1.387 . S
C790 C793 1.387 . S
H791 C787 0.950 . S
H792 C789 0.950 . S
C793 C784 1.390 1_544 S
C793 H786 0.950 . S
C793 C790 1.387 . S
C794 C795 1.387 . S
C794 H798 0.950 . S
C794 C803 1.390 . S
C795 C794 1.387 . S
C795 C797 1.387 . S
H796 C803 0.950 . S
C797 C795 1.387 . S
C797 C799 1.390 . S
C797 H801 0.950 . S
H798 C794 0.950 . S
C799 C797 1.390 . S
C799 C800 1.387 . S
C799 H802 0.950 . S
C800 C799 1.387 . S
C800 C803 1.387 . S
H801 C797 0.950 . S
H802 C799 0.950 . S
C803 C794 1.390 . S
C803 H796 0.950 . S
C803 C800 1.387 . S
C804 C805 1.387 1_455 S
C804 H808 0.950 . S
C804 C813 1.390 1_545 S
C805 C804 1.387 1_655 S
C805 C807 1.387 . S
H806 C813 0.950 . S
C807 C805 1.387 . S
C807 C809 1.390 1_545 S
C807 H811 0.950 . S
H808 C804 0.950 . S
C809 C807 1.390 1_565 S
C809 C810 1.387 1_655 S
C809 H812 0.950 . S
C810 C809 1.387 1_455 S
C810 C813 1.387 . S
H811 C807 0.950 . S
H812 C809 0.950 . S
C813 C804 1.390 1_565 S
C813 H806 0.950 . S
C813 C810 1.387 . S
C814 C815 1.387 . S
C814 H818 0.950 . S
C814 C823 1.390 . S
C815 C814 1.387 . S
C815 C817 1.387 . S
H816 C823 0.950 . S
C817 C815 1.387 . S
C817 C819 1.390 . S
C817 H821 0.950 . S
H818 C814 0.950 . S
C819 C817 1.390 . S
C819 C820 1.387 . S
C819 H822 0.950 . S
C820 C819 1.387 . S
C820 C823 1.387 . S
H821 C817 0.950 . S
H822 C819 0.950 . S
C823 C814 1.390 . S
C823 H816 0.950 . S
C823 C820 1.387 . S
C824 C825 1.387 . S
C824 H828 0.950 . S
C824 C833 1.390 . S
C825 C824 1.387 . S
C825 C827 1.387 . S
H826 C833 0.950 . S
C827 C825 1.387 . S
C827 C829 1.390 . S
C827 H831 0.950 . S
H828 C824 0.950 . S
C829 C827 1.390 . S
C829 C830 1.387 . S
C829 H832 0.950 . S
C830 C829 1.387 . S
C830 C833 1.387 . S
H831 C827 0.950 . S
H832 C829 0.950 . S
C833 C824 1.390 . S
C833 H826 0.950 . S
C833 C830 1.387 . S
C834 C835 1.387 . S
C834 H838 0.950 . S
C834 C843 1.390 . S
C835 C834 1.387 . S
C835 C837 1.387 . S
H836 C843 0.950 . S
C837 C835 1.387 . S
C837 C839 1.390 . S
C837 H841 0.950 . S
H838 C834 0.950 . S
C839 C837 1.390 . S
C839 C840 1.387 . S
C839 H842 0.950 . S
C840 C839 1.387 . S
C840 C843 1.387 . S
H841 C837 0.950 . S
H842 C839 0.950 . S
C843 C834 1.390 . S
C843 H836 0.950 . S
C843 C840 1.387 . S
C844 C845 1.406 . S
C844 H848 0.950 . S
C844 C853 1.390 . S
C845 C844 1.406 . S
C845 C847 1.370 1_455 S
H846 C853 0.950 . S
C847 C845 1.370 1_655 S
C847 C849 1.390 . S
C847 H851 0.950 . S
H848 C844 0.950 . S
C849 C847 1.390 . S
C849 C850 1.387 1_655 S
C849 H852 0.950 . S
C850 C849 1.387 1_455 S
C850 C853 1.387 . S
H851 C847 0.950 . S
H852 C849 0.950 . S
C853 C844 1.390 . S
C853 H846 0.950 . S
C853 C850 1.387 . S
C854 C855 1.398 . S
C854 H858 0.952 . S
C854 C863 1.377 1_554 S
C855 C854 1.398 . S
C855 C857 1.387 . S
H856 C863 0.950 . S
C857 C855 1.387 . S
C857 C859 1.390 1_554 S
C857 H861 0.950 . S
H858 C854 0.952 . S
C859 C857 1.390 1_556 S
C859 C860 1.387 . S
C859 H862 0.950 . S
C860 C859 1.387 . S
C860 C863 1.387 . S
H861 C857 0.950 . S
H862 C859 0.950 . S
C863 C854 1.377 1_556 S
C863 H856 0.950 . S
C863 C860 1.387 . S
C864 C865 1.387 . S
C864 H868 0.950 . S
C864 C873 1.390 . S
C865 C864 1.387 . S
C865 C867 1.387 . S
H866 C873 0.950 . S
C867 C865 1.387 . S
C867 C869 1.390 . S
C867 H871 0.950 . S
H868 C864 0.950 . S
C869 C867 1.390 . S
C869 C870 1.387 . S
C869 H872 0.950 . S
C870 C869 1.387 . S
C870 C873 1.387 . S
H871 C867 0.950 . S
H872 C869 0.950 . S
C873 C864 1.390 . S
C873 H866 0.950 . S
C873 C870 1.387 . S
C874 C875 1.387 . S
C874 H878 0.950 . S
C874 C883 1.390 . S
C875 C874 1.387 . S
C875 C877 1.387 . S
H876 C883 0.950 . S
C877 C875 1.387 . S
C877 C879 1.390 . S
C877 H881 0.950 . S
H878 C874 0.950 . S
C879 C877 1.390 . S
C879 C880 1.387 . S
C879 H882 0.950 . S
C880 C879 1.387 . S
C880 C883 1.387 . S
H881 C877 0.950 . S
H882 C879 0.950 . S
C883 C874 1.390 . S
C883 H876 0.950 . S
C883 C880 1.387 . S
C884 C885 1.387 . S
C884 H888 0.950 . S
C884 C893 1.390 . S
C885 C884 1.387 . S
C885 C887 1.387 . S
H886 C893 0.950 . S
C887 C885 1.387 . S
C887 C889 1.390 . S
C887 H891 0.950 . S
H888 C884 0.950 . S
C889 C887 1.390 . S
C889 C890 1.387 . S
C889 H892 0.950 . S
C890 C889 1.387 . S
C890 C893 1.387 . S
H891 C887 0.950 . S
H892 C889 0.950 . S
C893 C884 1.390 . S
C893 H886 0.950 . S
C893 C890 1.387 . S
C894 C895 1.387 . S
C894 H898 0.950 . S
C894 C903 1.390 . S
C895 C894 1.387 . S
C895 C897 1.387 . S
H896 C903 0.950 . S
C897 C895 1.387 . S
C897 C899 1.390 . S
C897 H901 0.950 . S
H898 C894 0.950 . S
C899 C897 1.390 . S
C899 C900 1.387 . S
C899 H902 0.950 . S
C900 C899 1.387 . S
C900 C903 1.387 . S
H901 C897 0.950 . S
H902 C899 0.950 . S
C903 C894 1.390 . S
C903 H896 0.950 . S
C903 C900 1.387 . S
C904 C905 1.387 . S
C904 H908 0.950 . S
C904 C913 1.390 . S
C905 C904 1.387 . S
C905 C907 1.387 . S
H906 C913 0.950 . S
C907 C905 1.387 . S
C907 C909 1.390 . S
C907 H911 0.950 . S
H908 C904 0.950 . S
C909 C907 1.390 . S
C909 C910 1.387 . S
C909 H912 0.950 . S
C910 C909 1.387 . S
C910 C913 1.387 . S
H911 C907 0.950 . S
H912 C909 0.950 . S
C913 C904 1.390 . S
C913 H906 0.950 . S
C913 C910 1.387 . S
C914 C915 1.387 . S
C914 H918 0.950 . S
C914 C923 1.390 . S
C915 C914 1.387 . S
C915 C917 1.387 . S
H916 C923 0.950 . S
C917 C915 1.387 . S
C917 C919 1.390 . S
C917 H921 0.950 . S
H918 C914 0.950 . S
C919 C917 1.390 . S
C919 C920 1.387 . S
C919 H922 0.950 . S
C920 C919 1.387 . S
C920 C923 1.387 . S
H921 C917 0.950 . S
H922 C919 0.950 . S
C923 C914 1.390 . S
C923 H916 0.950 . S
C923 C920 1.387 . S
C924 C925 1.387 . S
C924 H928 0.950 . S
C924 C933 1.390 . S
C925 C924 1.387 . S
C925 C927 1.387 . S
H926 C933 0.950 . S
C927 C925 1.387 . S
C927 C929 1.390 . S
C927 H931 0.950 . S
H928 C924 0.950 . S
C929 C927 1.390 . S
C929 C930 1.387 . S
C929 H932 0.950 . S
C930 C929 1.387 . S
C930 C933 1.387 . S
H931 C927 0.950 . S
H932 C929 0.950 . S
C933 C924 1.390 . S
C933 H926 0.950 . S
C933 C930 1.387 . S
C934 C935 1.387 . S
C934 H938 0.950 . S
C934 C943 1.390 . S
C935 C934 1.387 . S
C935 C937 1.387 . S
H936 C943 0.950 . S
C937 C935 1.387 . S
C937 C939 1.390 . S
C937 H941 0.950 . S
H938 C934 0.950 . S
C939 C937 1.390 . S
C939 C940 1.387 . S
C939 H942 0.950 . S
C940 C939 1.387 . S
C940 C943 1.387 . S
H941 C937 0.950 . S
H942 C939 0.950 . S
C943 C934 1.390 . S
C943 H936 0.950 . S
C943 C940 1.387 . S
C944 C945 1.387 . S
C944 H948 0.950 . S
C944 C953 1.390 . S
C945 C944 1.387 . S
C945 C947 1.387 . S
H946 C953 0.950 . S
C947 C945 1.387 . S
C947 C949 1.390 . S
C947 H951 0.950 . S
H948 C944 0.950 . S
C949 C947 1.390 . S
C949 C950 1.387 . S
C949 H952 0.950 . S
C950 C949 1.387 . S
C950 C953 1.387 . S
H951 C947 0.950 . S
H952 C949 0.950 . S
C953 C944 1.390 . S
C953 H946 0.950 . S
C953 C950 1.387 . S
C954 C955 1.387 . S
C954 H958 0.950 . S
C954 C963 1.390 . S
C955 C954 1.387 . S
C955 C957 1.387 . S
H956 C963 0.950 . S
C957 C955 1.387 . S
C957 C959 1.390 . S
C957 H961 0.950 . S
H958 C954 0.950 . S
C959 C957 1.390 . S
C959 C960 1.387 . S
C959 H962 0.950 . S
C960 C959 1.387 . S
C960 C963 1.387 . S
H961 C957 0.950 . S
H962 C959 0.950 . S
C963 C954 1.390 . S
C963 H956 0.950 . S
C963 C960 1.387 . S
C964 C965 1.387 . S
C964 H968 0.950 . S
C964 C973 1.390 . S
C965 C964 1.387 . S
C965 C967 1.387 . S
H966 C973 0.950 . S
C967 C965 1.387 . S
C967 C969 1.390 . S
C967 H971 0.950 . S
H968 C964 0.950 . S
C969 C967 1.390 . S
C969 C970 1.387 . S
C969 H972 0.950 . S
C970 C969 1.387 . S
C970 C973 1.387 . S
H971 C967 0.950 . S
H972 C969 0.950 . S
C973 C964 1.390 . S
C973 H966 0.950 . S
C973 C970 1.387 . S
C974 C975 1.387 . S
C974 H978 0.950 . S
C974 C983 1.390 . S
C975 C974 1.387 . S
C975 C977 1.387 . S
H976 C983 0.950 . S
C977 C975 1.387 . S
C977 C979 1.390 1_565 S
C977 H981 0.950 1_565 S
H978 C974 0.950 . S
C979 C977 1.390 1_545 S
C979 C980 1.387 1_545 S
C979 H982 0.950 . S
C980 C979 1.387 1_565 S
C980 C983 1.387 . S
H981 C977 0.950 1_545 S
H982 C979 0.950 . S
C983 C974 1.390 . S
C983 H976 0.950 . S
C983 C980 1.387 . S
C984 C985 1.387 . S
C984 H988 0.950 . S
C984 C993 1.390 . S
C985 C984 1.387 . S
C985 C987 1.387 . S
H986 C993 0.950 . S
C987 C985 1.387 . S
C987 C989 1.390 . S
C987 H991 0.950 . S
H988 C984 0.950 . S
C989 C987 1.390 . S
C989 C990 1.387 . S
C989 H992 0.950 . S
C990 C989 1.387 . S
C990 C993 1.387 . S
H991 C987 0.950 . S
H992 C989 0.950 . S
C993 C984 1.390 . S
C993 H986 0.950 . S
C993 C990 1.387 . S
C994 C995 1.387 . S
C994 H998 0.950 . S
C994 C1003 1.390 . S
C995 C994 1.387 . S
C995 C997 1.387 . S
H996 C1003 0.950 . S
C997 C995 1.387 . S
C997 C999 1.390 . S
C997 H1001 0.950 . S
H998 C994 0.950 . S
C999 C997 1.390 . S
C999 C1000 1.387 . S
C999 H1002 0.950 . S
C1000 C999 1.387 . S
C1000 C1003 1.387 . S
H1001 C997 0.950 . S
H1002 C999 0.950 . S
C1003 C994 1.390 . S
C1003 H996 0.950 . S
C1003 C1000 1.387 . S
C1004 C1005 1.387 . S
C1004 H1008 0.950 . S
C1004 C1013 1.390 . S
C1005 C1004 1.387 . S
C1005 C1007 1.387 . S
H1006 C1013 0.950 . S
C1007 C1005 1.387 . S
C1007 C1009 1.390 . S
C1007 H1011 0.950 . S
H1008 C1004 0.950 . S
C1009 C1007 1.390 . S
C1009 C1010 1.387 . S
C1009 H1012 0.950 . S
C1010 C1009 1.387 . S
C1010 C1013 1.387 . S
H1011 C1007 0.950 . S
H1012 C1009 0.950 . S
C1013 C1004 1.390 . S
C1013 H1006 0.950 . S
C1013 C1010 1.387 . S
C1014 C1015 1.387 . S
C1014 H1018 0.950 . S
C1014 C1023 1.390 . S
C1015 C1014 1.387 . S
C1015 C1017 1.387 1_545 S
H1016 C1023 0.950 . S
C1017 C1015 1.387 1_565 S
C1017 C1019 1.390 1_565 S
C1017 H1021 0.950 . S
H1018 C1014 0.950 . S
C1019 C1017 1.390 1_545 S
C1019 C1020 1.389 . S
C1019 H1022 0.949 1_545 S
C1020 C1019 1.389 . S
C1020 C1023 1.387 . S
H1021 C1017 0.950 . S
H1022 C1019 0.949 1_565 S
C1023 C1014 1.390 . S
C1023 H1016 0.950 . S
C1023 C1020 1.387 . S
C465 C224 2.089 . S
C470 C5 2.134 . S
C475 C369 2.362 . S
C480 C39 2.506 . S
C485 C63 2.412 . S
C490 C166 2.406 . S
C495 C427 2.215 . S
C500 C92 2.203 . S
C505 C108 2.289 . S
C510 C121 2.279 . S
C515 C150 2.394 . S
C520 C253 2.296 . S
C525 C179 2.421 . S
C530 C37 2.162 . S
C535 C311 2.376 . S
C540 C208 2.337 . S
C545 C456 2.089 . S
C550 C237 2.133 . S
C555 C271 2.506 . S
C560 C137 2.360 . S
C565 C398 2.407 . S
C570 C295 2.410 . S
C575 C195 2.214 . S
C580 C324 2.204 1_545 S
C585 C340 2.287 . S
C590 C353 2.280 . S
C595 C382 2.395 1_545 S
C600 C21 2.295 . S
C605 C411 2.421 . S
C610 C269 2.163 . S
C615 C79 2.376 . S
C620 C440 2.337 1_565 S
C625 C282 1.290 . S
C630 C3 1.275 . S
C635 C44 0.967 . S
C640 C298 1.092 . S
C645 C61 0.981 . S
C650 C327 1.096 . S
C655 C90 1.175 . S
C660 C240 1.335 . S
C665 C385 0.863 . S
C670 C119 0.836 . S
C675 C148 1.465 . S
C680 C414 1.594 . S
C685 C443 1.267 . S
C690 C177 1.152 . S
C695 C206 1.433 . S
C700 C356 1.607 . S
C705 C50 1.291 . S
C710 C235 1.275 . S
C715 C66 1.092 . S
C720 C276 0.968 . S
C725 C95 1.095 . S
C730 C293 0.977 . S
C735 C8 1.333 . S
C740 C322 1.176 . S
C745 C351 0.828 . S
C750 C153 0.864 . S
C755 C182 1.599 . S
C760 C380 1.461 . S
C765 C211 1.267 . S
C770 C409 1.152 . S
C775 C438 1.434 . S
C780 C124 1.604 1_545 S
C785 C129 2.240 . S
C790 C13 2.243 . S
C795 C42 1.856 . S
C800 C390 2.007 . S
C805 C187 2.071 . S
C810 C71 2.074 . S
C815 C448 2.428 . S
C820 C100 2.426 . S
C825 C274 1.854 . S
C830 C158 2.007 . S
C835 C216 2.428 . S
C840 C332 2.426 . S
C845 C245 2.244 1_455 S
C850 C361 2.242 . S
C855 C303 2.075 . S
C860 C419 2.072 . S
C865 C218 1.510 . S
C870 C10 1.456 . S
C875 C363 1.669 . S
C880 C34 1.532 . S
C885 C68 1.215 . S
C890 C160 1.257 . S
C895 C97 1.684 . S
C900 C421 1.705 . S
C905 C126 1.405 . S
C910 C102 1.442 . S
C915 C155 1.609 . S
C920 C247 1.703 . S
C925 C184 1.947 . S
C930 C32 2.002 . S
C935 C305 1.805 . S
C940 C213 1.759 . S
C945 C242 1.459 . S
C950 C450 1.508 . S
C955 C131 1.669 . S
C960 C266 1.532 . S
C965 C392 1.257 . S
C970 C300 1.215 . S
C975 C329 1.683 . S
C980 C189 1.705 1_565 S
C985 C334 1.441 . S
C990 C358 1.408 . S
C995 C15 1.703 1_565 S
C1000 C387 1.606 . S
C1005 C416 1.947 . S
C1010 C264 2.004 . S
C1015 C73 1.804 1_545 S
C1020 C445 1.759 . S
