# Generated by pormake.
# Topology swe, (7)-cn, num edge types: 1
# Building blocks:
#     Node 0, Type 0, BuildingBlock: HICVOG_clean_sbu_0, # of connection points: 7
#     Node 1, Type 0, BuildingBlock: HICVOG_clean_sbu_0, # of connection points: 7
#     Node 2, Type 0, BuildingBlock: HICVOG_clean_sbu_0, # of connection points: 7
#     Node 3, Type 0, BuildingBlock: HICVOG_clean_sbu_0, # of connection points: 7
#     Node 4, Type 0, BuildingBlock: HICVOG_clean_sbu_0, # of connection points: 7
#     Node 5, Type 0, BuildingBlock: HICVOG_clean_sbu_0, # of connection points: 7
#     Edge 6, Type (0, 0), BuildingBlock: OJICUG_clean_linker_0, # of connection points: 2
#     Edge 7, Type (0, 0), BuildingBlock: OJICUG_clean_linker_0, # of connection points: 2
#     Edge 8, Type (0, 0), BuildingBlock: OJICUG_clean_linker_0, # of connection points: 2
#     Edge 9, Type (0, 0), BuildingBlock: OJICUG_clean_linker_0, # of connection points: 2
#     Edge 10, Type (0, 0), BuildingBlock: OJICUG_clean_linker_0, # of connection points: 2
#     Edge 11, Type (0, 0), BuildingBlock: OJICUG_clean_linker_0, # of connection points: 2
#     Edge 12, Type (0, 0), BuildingBlock: OJICUG_clean_linker_0, # of connection points: 2
#     Edge 13, Type (0, 0), BuildingBlock: OJICUG_clean_linker_0, # of connection points: 2
#     Edge 14, Type (0, 0), BuildingBlock: OJICUG_clean_linker_0, # of connection points: 2
#     Edge 15, Type (0, 0), BuildingBlock: OJICUG_clean_linker_0, # of connection points: 2
#     Edge 16, Type (0, 0), BuildingBlock: OJICUG_clean_linker_0, # of connection points: 2
#     Edge 17, Type (0, 0), BuildingBlock: OJICUG_clean_linker_0, # of connection points: 2
#     Edge 18, Type (0, 0), BuildingBlock: OJICUG_clean_linker_0, # of connection points: 2
#     Edge 19, Type (0, 0), BuildingBlock: OJICUG_clean_linker_0, # of connection points: 2
#     Edge 20, Type (0, 0), BuildingBlock: OJICUG_clean_linker_0, # of connection points: 2
#     Edge 21, Type (0, 0), BuildingBlock: OJICUG_clean_linker_0, # of connection points: 2
#     Edge 22, Type (0, 0), BuildingBlock: OJICUG_clean_linker_0, # of connection points: 2
#     Edge 23, Type (0, 0), BuildingBlock: OJICUG_clean_linker_0, # of connection points: 2
#     Edge 24, Type (0, 0), BuildingBlock: OJICUG_clean_linker_0, # of connection points: 2
#     Edge 25, Type (0, 0), BuildingBlock: OJICUG_clean_linker_0, # of connection points: 2
#     Edge 26, Type (0, 0), BuildingBlock: OJICUG_clean_linker_0, # of connection points: 2
# Relax obj value: 0.304
# Max RMSD: 0.268
# Mean RMSD: 0.268
data_MOF--net-swe--node1-HICVOG_clean_sbu_0--edge1-OJICUG_clean_linker_0
_symmetry_space_group_name_H-M    P1
_symmetry_Int_Tables_number       1
_symmetry_cell_setting            triclinic
loop_
_symmetry_equiv_pos_as_xyz
'x, y, z'
_cell_length_a     27.983399
_cell_length_b     28.022413
_cell_length_c     15.796712
_cell_angle_alpha  89.985659
_cell_angle_beta   89.983077
_cell_angle_gamma 120.00995
loop_
_atom_site_label
_atom_site_type_symbol
_atom_site_fract_x
_atom_site_fract_y
_atom_site_fract_z
_atom_type_partial_charge
Zn0 Zn 0.19724 0.72652 0.89244 0.0
C1 C 0.33789 0.77952 0.01398 0.0
N2 N 0.34298 0.74406 0.96223 0.0
C3 C 0.29747 0.72301 0.91546 0.0
N4 N 0.26619 0.74514 0.93665 0.0
N5 N 0.28966 0.77981 0.00094 0.0
C6 C 0.27287 0.91774 0.13814 0.0
O7 O 0.21978 0.89852 0.12752 0.0
O8 O 0.15633 0.65298 0.84235 0.0
Zn9 Zn 0.24575 0.80835 0.06861 0.0
N10 N 0.20577 0.78223 0.81105 0.0
C11 C 0.24139 0.87603 0.77194 0.0
C12 C 0.23089 0.83627 0.83341 0.0
C13 C 0.19237 0.76655 0.729 0.0
N14 N 0.22881 0.86046 0.68984 0.0
C15 C 0.2048 0.80664 0.66595 0.0
O16 O 0.17337 0.8016 0.00871 0.0
C17 C 0.13654 0.7526 0.98947 0.0
O18 O 0.15119 0.71722 -0.00826 0.0
H19 H 0.24442 0.84869 0.89772 0.0
H20 H 0.17541 0.72359 0.71295 0.0
C21 C 0.21475 0.78006 0.24483 0.0
C22 C 0.19542 0.74393 0.31471 0.0
C23 C 0.18277 0.67058 0.2248 0.0
C24 C 0.20307 0.70675 0.15658 0.0
N25 N 0.21808 0.76056 0.16738 0.0
N26 N 0.17956 0.68994 0.30196 0.0
H27 H 0.2269 0.82303 0.25152 0.0
C28 C 0.1467 0.61596 0.89644 0.0
O29 O 0.17519 0.62966 0.9671 0.0
O30 O 0.29356 0.88808 0.11472 0.0
H31 H 0.20751 0.69222 0.09559 0.0
H32 H 0.26118 0.91917 0.78884 0.0
H33 H 0.17037 0.62757 0.21682 0.0
Zn34 Zn 0.46277 0.23369 0.39769 0.0
C35 C 0.59842 0.28462 0.24091 0.0
N36 N 0.62344 0.33024 0.2872 0.0
C37 C 0.58352 0.32538 0.34032 0.0
N38 N 0.5348 0.27714 0.32854 0.0
N39 N 0.54526 0.25347 0.26367 0.0
C40 C 0.55559 0.13443 0.22552 0.0
O41 O 0.57068 0.16375 0.29532 0.0
O42 O 0.4311 0.2816 0.44477 0.0
Zn43 Zn 0.49483 0.18418 0.22083 0.0
N44 N 0.48328 0.20609 0.49609 0.0
C45 C 0.53817 0.17091 0.55327 0.0
C46 C 0.52226 0.19125 0.48516 0.0
C47 C 0.46024 0.20244 0.5735 0.0
N48 N 0.51542 0.16741 0.63043 0.0
C49 C 0.47705 0.18303 0.64326 0.0
O50 O 0.4588 0.13904 0.32118 0.0
C51 C 0.40871 0.12444 0.31971 0.0
O52 O 0.39667 0.16135 0.33893 0.0
H53 H 0.54132 0.19588 0.42418 0.0
H54 H 0.4292 0.21433 0.58021 0.0
C55 C 0.44963 0.17857 0.05743 0.0
C56 C 0.42185 0.19074 -0.00579 0.0
C57 C 0.38822 0.22672 0.09997 0.0
C58 C 0.41771 0.21662 0.16159 0.0
N59 N 0.4471 0.19191 0.13943 0.0
N60 N 0.39155 0.2143 0.01791 0.0
H61 H 0.47598 0.16195 0.04153 0.0
C62 C 0.38072 0.26098 0.46836 0.0
O63 O 0.34669 0.20807 0.45701 0.0
O64 O 0.5276 0.14313 0.17127 0.0
H65 H 0.41864 0.23019 0.22581 0.0
H66 H 0.56894 0.15866 0.54521 0.0
H67 H 0.36449 0.24618 0.11672 0.0
Zn68 Zn 0.33704 0.48253 0.55845 0.0
C69 C 0.28457 0.57035 0.68048 0.0
N70 N 0.32017 0.61086 0.62874 0.0
C71 C 0.34105 0.58634 0.58182 0.0
N72 N 0.31868 0.53292 0.6029 0.0
N73 N 0.28401 0.52178 0.66728 0.0
C74 C 0.14569 0.36731 0.80499 0.0
O75 O 0.16479 0.33341 0.7942 0.0
O76 O 0.41066 0.515 0.50822 0.0
Zn77 Zn 0.25517 0.44931 0.73482 0.0
N78 N 0.28117 0.43557 0.47706 0.0
C79 C 0.18719 0.37768 0.43802 0.0
C80 C 0.22703 0.40687 0.49945 0.0
C81 C 0.29688 0.43774 0.39502 0.0
N82 N 0.20279 0.38056 0.35593 0.0
C83 C 0.25671 0.41016 0.33202 0.0
O84 O 0.26144 0.38367 0.67443 0.0
C85 C 0.31042 0.39562 0.65507 0.0
O86 O 0.3461 0.44556 0.65758 0.0
H87 H 0.21461 0.40806 0.56375 0.0
H88 H 0.33993 0.46358 0.37895 0.0
C89 C 0.28352 0.44642 0.91088 0.0
C90 C 0.31971 0.4631 0.98068 0.0
C91 C 0.39328 0.52357 0.89062 0.0
C92 C 0.35705 0.50785 0.82248 0.0
N93 N 0.3031 0.4692 0.8334 0.0
N94 N 0.37384 0.50105 0.96782 0.0
H95 H 0.24045 0.41575 0.91766 0.0
C96 C 0.44775 0.5422 0.56232 0.0
O97 O 0.43415 0.55707 0.63298 0.0
O98 O 0.17543 0.4176 0.78137 0.0
H99 H 0.37164 0.52681 0.76149 0.0
H100 H 0.14397 0.35449 0.45494 0.0
H101 H 0.4364 0.55404 0.88255 0.0
Zn102 Zn 0.82958 0.24136 0.06561 0.0
C103 C 0.77825 0.32419 0.90674 0.0
N104 N 0.73196 0.3028 0.95175 0.0
C105 C 0.7368 0.26804 0.00547 0.0
N106 N 0.7856 0.26841 -0.00496 0.0
N107 N 0.80981 0.30295 0.9308 0.0
C108 C 0.92847 0.43447 0.89412 0.0
O109 O 0.89887 0.42081 0.96365 0.0
O110 O 0.78235 0.16224 0.11454 0.0
Zn111 Zn 0.88011 0.32328 0.8902 0.0
N112 N 0.85671 0.29113 0.16194 0.0
C113 C 0.88894 0.38207 0.21296 0.0
C114 C 0.87022 0.34418 0.1471 0.0
C115 C 0.85998 0.27395 0.24129 0.0
N116 N 0.89198 0.36505 0.29198 0.0
C117 C 0.8778 0.31189 0.30883 0.0
O118 O 0.92506 0.33245 -0.00934 0.0
C119 C 0.93943 0.29684 0.98869 0.0
O120 O 0.90217 0.24784 0.00717 0.0
H121 H 0.86519 0.35657 0.08487 0.0
H122 H 0.84692 0.23103 0.25166 0.0
C123 C 0.88714 0.28767 0.72655 0.0
C124 C 0.87384 0.24979 0.66002 0.0
C125 C 0.84095 0.17732 0.76079 0.0
C126 C 0.8504 0.21477 0.82577 0.0
N127 N 0.87406 0.26936 0.80747 0.0
N128 N 0.85197 0.19547 0.67948 0.0
H129 H 0.90549 0.33127 0.71428 0.0
C130 C 0.80352 0.13331 0.13958 0.0
O131 O 0.85673 0.153 0.12945 0.0
O132 O 0.92038 0.39732 0.84127 0.0
H133 H 0.83725 0.20007 0.88944 0.0
H134 H 0.89993 0.42445 0.20179 0.0
H135 H 0.82264 0.13381 0.77442 0.0
Zn136 Zn 0.58197 0.86693 0.22597 0.0
C137 C 0.49406 0.72625 0.347 0.0
N138 N 0.45355 0.72133 0.29522 0.0
C139 C 0.47808 0.76687 0.24863 0.0
N140 N 0.53152 0.79802 0.26993 0.0
N141 N 0.54265 0.77441 0.33416 0.0
C142 C 0.69691 0.79018 0.47253 0.0
O143 O 0.73097 0.84323 0.4626 0.0
O144 O 0.54941 0.908 0.17598 0.0
Zn145 Zn 0.61503 0.81795 0.40221 0.0
N146 N 0.62922 0.85843 0.14454 0.0
C147 C 0.68753 0.82288 0.10542 0.0
C148 C 0.65822 0.83335 0.1669 0.0
C149 C 0.62688 0.87177 0.06247 0.0
N150 N 0.68446 0.83539 0.02331 0.0
C151 C 0.65456 0.85934 -0.00059 0.0
O152 O 0.68088 0.89027 0.34263 0.0
C153 C 0.66869 0.92707 0.32334 0.0
O154 O 0.61861 0.91246 0.32561 0.0
H155 H 0.65715 0.81983 0.23122 0.0
H156 H 0.6008 0.88869 0.04642 0.0
C157 C 0.61769 0.84897 0.57836 0.0
C158 C 0.60083 0.8683 0.64817 0.0
C159 C 0.53993 0.88075 0.55823 0.0
C160 C 0.55586 0.86047 0.49007 0.0
N161 N 0.59479 0.84555 0.50092 0.0
N162 N 0.56257 0.88405 0.63538 0.0
H163 H 0.64861 0.83691 0.58508 0.0
C164 C 0.52177 0.91742 0.22996 0.0
O165 O 0.50722 0.88911 0.30079 0.0
O166 O 0.64667 0.76981 0.44846 0.0
H167 H 0.53685 0.85598 0.42909 0.0
H168 H 0.71095 0.80313 0.12233 0.0
H169 H 0.50923 0.89308 0.55021 0.0
Zn170 Zn 0.82194 0.59886 0.73171 0.0
C171 C 0.73874 0.46429 0.57396 0.0
N172 N 0.76025 0.43963 0.61909 0.0
C173 C 0.79516 0.4794 0.67242 0.0
N174 N 0.79477 0.52772 0.66164 0.0
N175 N 0.76005 0.51715 0.59757 0.0
C176 C 0.62852 0.50429 0.56027 0.0
O177 O 0.64207 0.48837 0.62989 0.0
O178 O 0.90117 0.63084 0.78064 0.0
Zn179 Zn 0.73988 0.56705 0.55642 0.0
N180 N 0.77213 0.57633 0.82807 0.0
C181 C 0.68099 0.51786 0.87919 0.0
C182 C 0.71891 0.53701 0.81326 0.0
C183 C 0.78943 0.59657 0.90745 0.0
N184 N 0.69813 0.53772 0.95825 0.0
C185 C 0.75145 0.57648 0.97506 0.0
O186 O 0.73067 0.60328 0.65623 0.0
C187 C 0.7665 0.65319 0.65428 0.0
O188 O 0.81548 0.66484 0.67297 0.0
H189 H 0.70642 0.51974 0.75099 0.0
H190 H 0.83247 0.62624 0.91781 0.0
C191 C 0.7758 0.60944 0.3927 0.0
C192 C 0.81382 0.63396 0.32621 0.0
C193 C 0.8863 0.67341 0.42704 0.0
C194 C 0.84869 0.64551 0.492 0.0
N195 N 0.79404 0.61467 0.47364 0.0
N196 N 0.86822 0.66632 0.34571 0.0
H197 H 0.73213 0.58425 0.38039 0.0
C198 C 0.93016 0.68093 0.80555 0.0
O199 O 0.91051 0.71442 0.79522 0.0
O200 O 0.6658 0.53324 0.50738 0.0
H201 H 0.86331 0.64708 0.55572 0.0
H202 H 0.63848 0.48665 0.86805 0.0
H203 H 0.92987 0.69854 0.4407 0.0
C204 C 0.23404 0.83077 0.51473 0.0
C205 C 0.19783 0.79236 0.57437 0.0
H206 H 0.26265 0.84596 0.38679 0.0
C207 C 0.15762 0.73987 0.54587 0.0
H208 H 0.26561 0.87156 0.53435 0.0
C209 C 0.15579 0.7252 0.46091 0.0
C210 C 0.19367 0.76272 0.40202 0.0
H211 H 0.12786 0.70967 0.58913 0.0
H212 H 0.12514 0.68395 0.44159 0.0
C213 C 0.23215 0.81612 0.42965 0.0
C214 C 0.44065 0.21891 0.7582 0.0
C215 C 0.45619 0.1809 0.73052 0.0
H216 H 0.41766 0.25156 0.86284 0.0
C217 C 0.456 0.14307 0.78925 0.0
H218 H 0.44117 0.24937 0.7155 0.0
C219 C 0.44266 0.14446 0.87412 0.0
C220 C 0.42969 0.18417 0.90268 0.0
H221 H 0.46708 0.11278 0.76989 0.0
H222 H 0.44325 0.11476 0.91727 0.0
C223 C 0.42737 0.22034 0.84317 0.0
C224 C 0.32353 0.42943 0.21192 0.0
C225 C 0.27104 0.41737 0.24043 0.0
H226 H 0.37953 0.45261 0.10759 0.0
C227 C 0.23269 0.41529 0.18079 0.0
H228 H 0.35368 0.42978 0.25519 0.0
C229 C 0.24741 0.42796 0.09569 0.0
C230 C 0.30082 0.44266 0.06804 0.0
H231 H 0.19191 0.40624 0.20042 0.0
H232 H 0.21764 0.42873 0.05283 0.0
C233 C 0.33827 0.44218 0.12693 0.0
C234 C 0.8853 0.25078 0.42017 0.0
C235 C 0.87838 0.29565 0.39816 0.0
H236 H 0.88997 0.20161 0.52045 0.0
C237 C 0.8717 0.32604 0.46314 0.0
H238 H 0.89152 0.22692 0.37209 0.0
C239 C 0.87117 0.3118 0.54769 0.0
C240 C 0.878 0.26699 0.57011 0.0
H241 H 0.86549 0.36037 0.44877 0.0
H242 H 0.86355 0.33514 0.59496 0.0
C243 C 0.88488 0.23651 0.50532 0.0
C244 C 0.6494 0.83003 0.84828 0.0
C245 C 0.64713 0.8662 0.90782 0.0
H246 H 0.63593 0.80133 0.72045 0.0
C247 C 0.63468 0.90626 0.8792 0.0
H248 H 0.65875 0.79856 0.86799 0.0
C249 C 0.62174 0.90799 0.79424 0.0
C250 C 0.62146 0.87014 0.73548 0.0
H251 H 0.63418 0.93599 0.92237 0.0
H252 H 0.61101 0.93853 0.77484 0.0
C253 C 0.63654 0.8318 0.76321 0.0
C254 C 0.82719 0.65847 0.17159 0.0
C255 C 0.79663 0.62103 0.2363 0.0
H256 H 0.83675 0.67492 0.0384 0.0
C257 C 0.7517 0.56947 0.21383 0.0
H258 H 0.8622 0.69842 0.18678 0.0
C259 C 0.73737 0.55592 0.12929 0.0
C260 C 0.76782 0.59309 0.06438 0.0
H261 H 0.7283 0.53846 0.26106 0.0
H262 H 0.70293 0.51545 0.11485 0.0
C263 C 0.81284 0.64478 0.08644 0.0
C264 C 0.0653 0.54642 0.81713 0.0
C265 C 0.0927 0.56663 0.89442 0.0
H266 H 0.98991 0.48833 0.75655 0.0
C267 C 0.06466 0.54534 0.97092 0.0
H268 H 0.08626 0.56315 0.75753 0.0
C269 C 1.00957 0.50486 0.97034 0.0
C270 C 0.98225 0.48405 0.89326 0.0
H271 H 0.08463 0.56124 0.03138 0.0
H272 H 0.98907 0.4885 0.03036 0.0
C273 C 1.01033 0.50476 0.81656 0.0
C274 C 0.54441 0.05252 0.14863 0.0
C275 C 0.55156 0.08074 0.22506 0.0
H276 H 0.52801 0.97684 0.09037 0.0
C277 C 0.54563 0.05384 0.3024 0.0
H278 H 0.54801 0.07259 0.08841 0.0
C279 C 0.53191 0.99908 0.30352 0.0
C280 C 0.52549 0.97094 0.22731 0.0
H281 H 0.54967 0.07443 0.36224 0.0
H282 H 0.52833 0.97948 0.36418 0.0
C283 C 0.53201 0.99788 0.14975 0.0
C284 C 0.55825 0.51532 0.6364 0.0
C285 C 0.57902 0.50868 0.55935 0.0
H286 H 0.50212 0.53441 0.69734 0.0
C287 C 0.55846 0.51615 0.48262 0.0
H288 H 0.57449 0.51108 0.69644 0.0
C289 C 0.51702 0.52975 0.48312 0.0
C290 C 0.49688 0.53712 0.56037 0.0
H291 H 0.57487 0.51205 0.42262 0.0
H292 H 0.50042 0.5341 0.42349 0.0
C293 C 0.51798 0.53022 0.6369 0.0
C294 C 0.25684 0.66988 0.78204 0.0
C295 C 0.28035 0.67396 0.86151 0.0
H296 H 0.23075 0.62586 0.66551 0.0
C297 C 0.29069 0.63191 0.88795 0.0
H298 H 0.24964 0.70221 0.75942 0.0
C299 C 0.28165 0.58887 0.833 0.0
C300 C 0.26184 0.58713 0.75097 0.0
H301 H 0.30878 0.63404 0.94945 0.0
H302 H 0.29613 0.56118 0.85134 0.0
C303 C 0.24514 0.62544 0.72908 0.0
C304 C 0.61 0.24335 0.10742 0.0
C305 C 0.62983 0.26693 0.18672 0.0
H306 H 0.62724 0.21656 -0.0091 0.0
C307 C 0.68202 0.27644 0.21301 0.0
H308 H 0.57053 0.23656 0.08508 0.0
C309 C 0.71546 0.26649 0.15811 0.0
C310 C 0.69716 0.24675 0.07615 0.0
H311 H 0.69822 0.29444 0.27446 0.0
H312 H 0.75742 0.28005 0.17657 0.0
C313 C 0.64229 0.231 0.05435 0.0
C314 C 0.39421 0.59889 0.44826 0.0
C315 C 0.39022 0.6182 0.52787 0.0
H316 H 0.43822 0.61698 0.33159 0.0
C317 C 0.43247 0.67047 0.55445 0.0
H318 H 0.36174 0.55944 0.42557 0.0
C319 C 0.47559 0.7045 0.49948 0.0
C320 C 0.47719 0.6866 0.41729 0.0
H321 H 0.43043 0.68632 0.61607 0.0
H322 H 0.50344 0.74657 0.51799 0.0
C323 C 0.43872 0.63167 0.39527 0.0
C324 C 0.78618 0.41581 0.8795 0.0
C325 C 0.79611 0.37351 0.85305 0.0
H326 H 0.78233 0.48743 0.84339 0.0
C327 C 0.82023 0.37779 0.77401 0.0
H328 H 0.76772 0.41357 0.94075 0.0
C329 C 0.83275 0.42261 0.72131 0.0
C330 C 0.81659 0.46134 0.74318 0.0
H331 H 0.82724 0.34535 0.75153 0.0
H332 H 0.84757 0.42236 0.65797 0.0
C333 C 0.79629 0.45938 0.82495 0.0
C334 C 0.35951 0.78262 0.16646 0.0
C335 C 0.37749 0.80237 0.08436 0.0
H336 H 0.37773 0.7556 0.2829 0.0
C337 C 0.43259 0.8192 0.0624 0.0
H338 H 0.31729 0.76808 0.18488 0.0
C339 C 0.46552 0.80768 0.11535 0.0
C340 C 0.44613 0.78413 0.19484 0.0
H341 H 0.44733 0.8336 -0.00122 0.0
H342 H 0.50511 0.81496 0.09267 0.0
C343 C 0.39366 0.77371 0.22138 0.0
C344 C 0.64711 0.38032 0.54713 0.0
C345 C 0.68933 0.4326 0.52047 0.0
H346 H 0.57555 0.3046 0.51126 0.0
C347 C 0.6849 0.45224 0.44137 0.0
H348 H 0.64948 0.36424 0.60839 0.0
C349 C 0.64 0.41976 0.3889 0.0
C350 C 0.60137 0.36486 0.41097 0.0
H351 H 0.71729 0.49169 0.41869 0.0
H352 H 0.64014 0.43471 0.32552 0.0
C353 C 0.60349 0.34665 0.49274 0.0
C354 C 0.36062 0.98709 0.20963 0.0
C355 C 0.30693 0.97133 0.18331 0.0
H356 H 0.433 0.04572 0.27431 0.0
C357 C 0.28558 1.00626 0.20379 0.0
H358 H 0.37848 0.96139 0.19609 0.0
C359 C 0.31748 0.05588 0.24887 0.0
C360 C 0.37129 0.07138 0.27507 0.0
H361 H 0.24417 0.99536 0.18476 0.0
H362 H 0.30024 0.08207 0.2626 0.0
C363 C 0.39195 0.03586 0.25501 0.0
C364 C 0.39948 0.34799 0.54252 0.0
C365 C 0.36136 0.2948 0.51477 0.0
H366 H 0.41348 0.41962 0.60962 0.0
C367 C 0.30501 0.2736 0.53515 0.0
H368 H 0.44308 0.3657 0.52915 0.0
C369 C 0.28742 0.30517 0.58151 0.0
C370 C 0.32592 0.35847 0.60916 0.0
H371 H 0.27436 0.23257 0.51504 0.0
H372 H 0.24394 0.28807 0.59507 0.0
C373 C 0.38215 0.37897 0.58921 0.0
C374 C 0.05719 0.29167 0.87144 0.0
C375 C 0.09218 0.34789 0.85064 0.0
H376 H 0.98146 0.23068 0.93102 0.0
C377 C 0.07658 0.38586 0.87711 0.0
H378 H 0.06797 0.26115 0.8523 0.0
C379 C 1.02792 0.36852 0.92299 0.0
C380 C 0.99237 0.3124 0.94344 0.0
H381 H 0.10232 0.42936 0.8633 0.0
H382 H 1.01817 0.39974 0.94231 0.0
C383 C 1.00769 0.27406 0.91703 0.0
C384 C 0.68476 1.01504 0.25699 0.0
C385 C 0.70584 0.98 0.27801 0.0
H386 H 0.69766 0.089 0.19687 0.0
C387 C 0.75985 0.9959 0.2523 0.0
H388 H 0.64355 1.0049 0.27589 0.0
C389 C 0.79153 0.04543 0.20681 0.0
C390 C 0.76975 0.07987 0.18539 0.0
H391 H 0.77743 0.97011 0.26678 0.0
H392 H 0.8331 0.05665 0.18819 0.0
C393 C 0.71586 0.0637 0.21116 0.0
C394 C 0.77225 0.77694 0.53922 0.0
C395 C 0.71611 0.75577 0.51761 0.0
H396 H 0.83297 0.7619 0.59898 0.0
C397 C 0.67799 0.70189 0.54266 0.0
H398 H 0.8029 0.81847 0.52118 0.0
C399 C 0.6951 0.67023 0.58798 0.0
C400 C 0.75114 0.69078 0.60932 0.0
H401 H 0.63453 0.68413 0.52816 0.0
H402 H 0.66375 0.62903 0.60619 0.0
C403 C 0.78964 0.74474 0.58427 0.0
C404 C 1.01819 0.75689 0.87257 0.0
C405 C 0.98362 0.70066 0.85145 0.0
H406 H 0.09366 0.81818 0.9323 0.0
C407 C 0.99967 0.66298 0.87765 0.0
H408 H 1.00707 0.7872 0.85363 0.0
C409 C 0.04835 0.68061 0.92356 0.0
C410 C 0.08353 0.73674 0.94422 0.0
H411 H 0.97426 0.61948 0.86362 0.0
H412 H 0.0584 0.64959 0.94279 0.0
C413 C 0.06775 0.7748 0.91811 0.0
loop_
_geom_bond_atom_site_label_1
_geom_bond_atom_site_label_2
_geom_bond_distance
_geom_bond_site_symmetry_2
_ccdc_geom_bond_type
Zn0 N4 2.020 . S
Zn0 O8 2.019 . S
Zn0 N10 2.119 . S
Zn0 O18 1.975 . S
C1 N2 1.334 . S
C1 N5 1.336 . S
N2 C1 1.334 . S
N2 C3 1.334 1_554 S
C3 N2 1.334 1_556 S
C3 N4 1.336 . S
N4 Zn0 2.020 . S
N4 C3 1.336 . S
N4 N5 1.354 1_556 S
N5 C1 1.336 . S
N5 N4 1.354 1_554 S
N5 Zn9 2.020 . S
C6 O7 1.244 . S
C6 O30 1.257 . S
O7 C6 1.244 . S
O8 Zn0 2.019 . S
O8 C28 1.257 . S
Zn9 N5 2.020 . S
Zn9 O16 1.975 . S
Zn9 N25 2.119 . S
Zn9 O30 2.019 . S
N10 Zn0 2.119 . S
N10 C12 1.334 . S
N10 C13 1.328 . S
C11 C12 1.391 . S
C11 N14 1.329 . S
C11 H32 0.930 . S
C12 N10 1.334 . S
C12 C11 1.391 . S
C12 H19 0.930 . S
C13 N10 1.328 . S
C13 C15 1.392 . S
C13 H20 0.930 . S
N14 C11 1.329 . S
N14 C15 1.331 . S
C15 C13 1.392 . S
C15 N14 1.331 . S
O16 Zn9 1.975 . S
O16 C17 1.252 1_554 S
C17 O16 1.252 1_556 S
C17 O18 1.252 . S
O18 Zn0 1.975 . S
O18 C17 1.252 . S
H19 C12 0.930 . S
H20 C13 0.930 . S
C21 C22 1.392 . S
C21 N25 1.328 . S
C21 H27 0.930 . S
C22 C21 1.392 . S
C22 N26 1.331 . S
C23 C24 1.391 . S
C23 N26 1.329 . S
C23 H33 0.930 . S
C24 C23 1.391 . S
C24 N25 1.334 . S
C24 H31 0.930 . S
N25 Zn9 2.119 . S
N25 C21 1.328 . S
N25 C24 1.334 . S
N26 C22 1.331 . S
N26 C23 1.329 . S
H27 C21 0.930 . S
C28 O8 1.257 . S
C28 O29 1.244 . S
O29 C28 1.244 . S
O30 C6 1.257 . S
O30 Zn9 2.019 . S
H31 C24 0.930 . S
H32 C11 0.930 . S
H33 C23 0.930 . S
Zn34 N38 2.020 . S
Zn34 O42 2.019 . S
Zn34 N44 2.119 . S
Zn34 O52 1.975 . S
C35 N36 1.334 . S
C35 N39 1.336 . S
N36 C35 1.334 . S
N36 C37 1.334 . S
C37 N36 1.334 . S
C37 N38 1.336 . S
N38 Zn34 2.020 . S
N38 C37 1.336 . S
N38 N39 1.354 . S
N39 C35 1.336 . S
N39 N38 1.354 . S
N39 Zn43 2.020 . S
C40 O41 1.244 . S
C40 O64 1.257 . S
O41 C40 1.244 . S
O42 Zn34 2.019 . S
O42 C62 1.257 . S
Zn43 N39 2.020 . S
Zn43 O50 1.975 . S
Zn43 N59 2.119 . S
Zn43 O64 2.019 . S
N44 Zn34 2.119 . S
N44 C46 1.334 . S
N44 C47 1.328 . S
C45 C46 1.391 . S
C45 N48 1.329 . S
C45 H66 0.930 . S
C46 N44 1.334 . S
C46 C45 1.391 . S
C46 H53 0.930 . S
C47 N44 1.328 . S
C47 C49 1.392 . S
C47 H54 0.930 . S
N48 C45 1.329 . S
N48 C49 1.331 . S
C49 C47 1.392 . S
C49 N48 1.331 . S
O50 Zn43 1.975 . S
O50 C51 1.252 . S
C51 O50 1.252 . S
C51 O52 1.252 . S
O52 Zn34 1.975 . S
O52 C51 1.252 . S
H53 C46 0.930 . S
H54 C47 0.930 . S
C55 C56 1.392 1_554 S
C55 N59 1.328 . S
C55 H61 0.930 . S
C56 C55 1.392 1_556 S
C56 N60 1.331 . S
C57 C58 1.391 . S
C57 N60 1.329 1_554 S
C57 H67 0.930 . S
C58 C57 1.391 . S
C58 N59 1.334 . S
C58 H65 0.930 . S
N59 Zn43 2.119 . S
N59 C55 1.328 . S
N59 C58 1.334 . S
N60 C56 1.331 . S
N60 C57 1.329 1_556 S
H61 C55 0.930 . S
C62 O42 1.257 . S
C62 O63 1.244 . S
O63 C62 1.244 . S
O64 C40 1.257 . S
O64 Zn43 2.019 . S
H65 C58 0.930 . S
H66 C45 0.930 . S
H67 C57 0.930 . S
Zn68 N72 2.020 . S
Zn68 O76 2.019 . S
Zn68 N78 2.119 . S
Zn68 O86 1.975 . S
C69 N70 1.334 . S
C69 N73 1.336 . S
N70 C69 1.334 . S
N70 C71 1.334 . S
C71 N70 1.334 . S
C71 N72 1.336 . S
N72 Zn68 2.020 . S
N72 C71 1.336 . S
N72 N73 1.354 . S
N73 C69 1.336 . S
N73 N72 1.354 . S
N73 Zn77 2.020 . S
C74 O75 1.244 . S
C74 O98 1.257 . S
O75 C74 1.244 . S
O76 Zn68 2.019 . S
O76 C96 1.257 . S
Zn77 N73 2.020 . S
Zn77 O84 1.975 . S
Zn77 N93 2.119 . S
Zn77 O98 2.019 . S
N78 Zn68 2.119 . S
N78 C80 1.334 . S
N78 C81 1.328 . S
C79 C80 1.391 . S
C79 N82 1.329 . S
C79 H100 0.930 . S
C80 N78 1.334 . S
C80 C79 1.391 . S
C80 H87 0.930 . S
C81 N78 1.328 . S
C81 C83 1.392 . S
C81 H88 0.930 . S
N82 C79 1.329 . S
N82 C83 1.331 . S
C83 C81 1.392 . S
C83 N82 1.331 . S
O84 Zn77 1.975 . S
O84 C85 1.252 . S
C85 O84 1.252 . S
C85 O86 1.252 . S
O86 Zn68 1.975 . S
O86 C85 1.252 . S
H87 C80 0.930 . S
H88 C81 0.930 . S
C89 C90 1.392 1_556 S
C89 N93 1.328 . S
C89 H95 0.930 . S
C90 C89 1.392 1_554 S
C90 N94 1.331 . S
C91 C92 1.391 . S
C91 N94 1.329 1_556 S
C91 H101 0.930 . S
C92 C91 1.391 . S
C92 N93 1.334 . S
C92 H99 0.930 . S
N93 Zn77 2.119 . S
N93 C89 1.328 . S
N93 C92 1.334 . S
N94 C90 1.331 . S
N94 C91 1.329 1_554 S
H95 C89 0.930 . S
C96 O76 1.257 . S
C96 O97 1.244 . S
O97 C96 1.244 . S
O98 C74 1.257 . S
O98 Zn77 2.019 . S
H99 C92 0.930 . S
H100 C79 0.930 . S
H101 C91 0.930 . S
Zn102 N106 2.020 . S
Zn102 O110 2.019 . S
Zn102 N112 2.119 . S
Zn102 O120 1.975 . S
C103 N104 1.334 1_556 S
C103 N107 1.336 . S
N104 C103 1.334 1_554 S
N104 C105 1.334 . S
C105 N104 1.334 . S
C105 N106 1.336 . S
N106 Zn102 2.020 . S
N106 C105 1.336 . S
N106 N107 1.354 1_554 S
N107 C103 1.336 . S
N107 N106 1.354 1_556 S
N107 Zn111 2.020 . S
C108 O109 1.244 . S
C108 O132 1.257 . S
O109 C108 1.244 . S
O110 Zn102 2.019 . S
O110 C130 1.257 . S
Zn111 N107 2.020 . S
Zn111 O118 1.975 . S
Zn111 N127 2.119 . S
Zn111 O132 2.019 . S
N112 Zn102 2.119 . S
N112 C114 1.334 . S
N112 C115 1.328 . S
C113 C114 1.391 . S
C113 N116 1.329 . S
C113 H134 0.930 . S
C114 N112 1.334 . S
C114 C113 1.391 . S
C114 H121 0.930 . S
C115 N112 1.328 . S
C115 C117 1.392 . S
C115 H122 0.930 . S
N116 C113 1.329 . S
N116 C117 1.331 . S
C117 C115 1.392 . S
C117 N116 1.331 . S
O118 Zn111 1.975 . S
O118 C119 1.252 . S
C119 O118 1.252 . S
C119 O120 1.252 1_556 S
O120 Zn102 1.975 . S
O120 C119 1.252 1_554 S
H121 C114 0.930 . S
H122 C115 0.930 . S
C123 C124 1.392 . S
C123 N127 1.328 . S
C123 H129 0.930 . S
C124 C123 1.392 . S
C124 N128 1.331 . S
C125 C126 1.391 . S
C125 N128 1.329 . S
C125 H135 0.930 . S
C126 C125 1.391 . S
C126 N127 1.334 . S
C126 H133 0.930 . S
N127 Zn111 2.119 . S
N127 C123 1.328 . S
N127 C126 1.334 . S
N128 C124 1.331 . S
N128 C125 1.329 . S
H129 C123 0.930 . S
C130 O110 1.257 . S
C130 O131 1.244 . S
O131 C130 1.244 . S
O132 C108 1.257 . S
O132 Zn111 2.019 . S
H133 C126 0.930 . S
H134 C113 0.930 . S
H135 C125 0.930 . S
Zn136 N140 2.020 . S
Zn136 O144 2.019 . S
Zn136 N146 2.119 . S
Zn136 O154 1.975 . S
C137 N138 1.334 . S
C137 N141 1.336 . S
N138 C137 1.334 . S
N138 C139 1.334 . S
C139 N138 1.334 . S
C139 N140 1.336 . S
N140 Zn136 2.020 . S
N140 C139 1.336 . S
N140 N141 1.354 . S
N141 C137 1.336 . S
N141 N140 1.354 . S
N141 Zn145 2.020 . S
C142 O143 1.244 . S
C142 O166 1.257 . S
O143 C142 1.244 . S
O144 Zn136 2.019 . S
O144 C164 1.257 . S
Zn145 N141 2.020 . S
Zn145 O152 1.975 . S
Zn145 N161 2.119 . S
Zn145 O166 2.019 . S
N146 Zn136 2.119 . S
N146 C148 1.334 . S
N146 C149 1.328 . S
C147 C148 1.391 . S
C147 N150 1.329 1_554 S
C147 H168 0.930 . S
C148 N146 1.334 . S
C148 C147 1.391 . S
C148 H155 0.930 . S
C149 N146 1.328 . S
C149 C151 1.392 1_554 S
C149 H156 0.930 . S
N150 C147 1.329 1_556 S
N150 C151 1.331 . S
C151 C149 1.392 1_556 S
C151 N150 1.331 . S
O152 Zn145 1.975 . S
O152 C153 1.252 . S
C153 O152 1.252 . S
C153 O154 1.252 . S
O154 Zn136 1.975 . S
O154 C153 1.252 . S
H155 C148 0.930 . S
H156 C149 0.930 . S
C157 C158 1.392 . S
C157 N161 1.328 . S
C157 H163 0.930 . S
C158 C157 1.392 . S
C158 N162 1.331 . S
C159 C160 1.391 . S
C159 N162 1.329 . S
C159 H169 0.930 . S
C160 C159 1.391 . S
C160 N161 1.334 . S
C160 H167 0.930 . S
N161 Zn145 2.119 . S
N161 C157 1.328 . S
N161 C160 1.334 . S
N162 C158 1.331 . S
N162 C159 1.329 . S
H163 C157 0.930 . S
C164 O144 1.257 . S
C164 O165 1.244 . S
O165 C164 1.244 . S
O166 C142 1.257 . S
O166 Zn145 2.019 . S
H167 C160 0.930 . S
H168 C147 0.930 . S
H169 C159 0.930 . S
Zn170 N174 2.020 . S
Zn170 O178 2.019 . S
Zn170 N180 2.119 . S
Zn170 O188 1.975 . S
C171 N172 1.334 . S
C171 N175 1.336 . S
N172 C171 1.334 . S
N172 C173 1.334 . S
C173 N172 1.334 . S
C173 N174 1.336 . S
N174 Zn170 2.020 . S
N174 C173 1.336 . S
N174 N175 1.354 . S
N175 C171 1.336 . S
N175 N174 1.354 . S
N175 Zn179 2.020 . S
C176 O177 1.244 . S
C176 O200 1.257 . S
O177 C176 1.244 . S
O178 Zn170 2.019 . S
O178 C198 1.257 . S
Zn179 N175 2.020 . S
Zn179 O186 1.975 . S
Zn179 N195 2.119 . S
Zn179 O200 2.019 . S
N180 Zn170 2.119 . S
N180 C182 1.334 . S
N180 C183 1.328 . S
C181 C182 1.391 . S
C181 N184 1.329 1_556 S
C181 H202 0.930 . S
C182 N180 1.334 . S
C182 C181 1.391 . S
C182 H189 0.930 . S
C183 N180 1.328 . S
C183 C185 1.392 1_556 S
C183 H190 0.930 . S
N184 C181 1.329 1_554 S
N184 C185 1.331 . S
C185 C183 1.392 1_554 S
C185 N184 1.331 . S
O186 Zn179 1.975 . S
O186 C187 1.252 . S
C187 O186 1.252 . S
C187 O188 1.252 . S
O188 Zn170 1.975 . S
O188 C187 1.252 . S
H189 C182 0.930 . S
H190 C183 0.930 . S
C191 C192 1.392 . S
C191 N195 1.328 . S
C191 H197 0.930 . S
C192 C191 1.392 . S
C192 N196 1.331 . S
C193 C194 1.391 . S
C193 N196 1.329 . S
C193 H203 0.930 . S
C194 C193 1.391 . S
C194 N195 1.334 . S
C194 H201 0.930 . S
N195 Zn179 2.119 . S
N195 C191 1.328 . S
N195 C194 1.334 . S
N196 C192 1.331 . S
N196 C193 1.329 . S
H197 C191 0.930 . S
C198 O178 1.257 . S
C198 O199 1.244 . S
O199 C198 1.244 . S
O200 C176 1.257 . S
O200 Zn179 2.019 . S
H201 C194 0.930 . S
H202 C181 0.930 . S
H203 C193 0.930 . S
C204 C205 1.387 . S
C204 H208 0.950 . S
C204 C213 1.390 . S
C205 C204 1.387 . S
C205 C207 1.387 . S
H206 C213 0.950 . S
C207 C205 1.387 . S
C207 C209 1.390 . S
C207 H211 0.950 . S
H208 C204 0.950 . S
C209 C207 1.390 . S
C209 C210 1.387 . S
C209 H212 0.950 . S
C210 C209 1.387 . S
C210 C213 1.387 . S
H211 C207 0.950 . S
H212 C209 0.950 . S
C213 C204 1.390 . S
C213 H206 0.950 . S
C213 C210 1.387 . S
C214 C215 1.387 . S
C214 H218 0.950 . S
C214 C223 1.390 . S
C215 C214 1.387 . S
C215 C217 1.387 . S
H216 C223 0.950 . S
C217 C215 1.387 . S
C217 C219 1.390 . S
C217 H221 0.950 . S
H218 C214 0.950 . S
C219 C217 1.390 . S
C219 C220 1.387 . S
C219 H222 0.950 . S
C220 C219 1.387 . S
C220 C223 1.387 . S
H221 C217 0.950 . S
H222 C219 0.950 . S
C223 C214 1.390 . S
C223 H216 0.950 . S
C223 C220 1.387 . S
C224 C225 1.387 . S
C224 H228 0.950 . S
C224 C233 1.390 . S
C225 C224 1.387 . S
C225 C227 1.387 . S
H226 C233 0.950 . S
C227 C225 1.387 . S
C227 C229 1.390 . S
C227 H231 0.950 . S
H228 C224 0.950 . S
C229 C227 1.390 . S
C229 C230 1.387 . S
C229 H232 0.950 . S
C230 C229 1.387 . S
C230 C233 1.387 . S
H231 C227 0.950 . S
H232 C229 0.950 . S
C233 C224 1.390 . S
C233 H226 0.950 . S
C233 C230 1.387 . S
C234 C235 1.387 . S
C234 H238 0.950 . S
C234 C243 1.390 . S
C235 C234 1.387 . S
C235 C237 1.387 . S
H236 C243 0.950 . S
C237 C235 1.387 . S
C237 C239 1.390 . S
C237 H241 0.950 . S
H238 C234 0.950 . S
C239 C237 1.390 . S
C239 C240 1.387 . S
C239 H242 0.950 . S
C240 C239 1.387 . S
C240 C243 1.387 . S
H241 C237 0.950 . S
H242 C239 0.950 . S
C243 C234 1.390 . S
C243 H236 0.950 . S
C243 C240 1.387 . S
C244 C245 1.387 . S
C244 H248 0.950 . S
C244 C253 1.390 . S
C245 C244 1.387 . S
C245 C247 1.387 . S
H246 C253 0.950 . S
C247 C245 1.387 . S
C247 C249 1.390 . S
C247 H251 0.950 . S
H248 C244 0.950 . S
C249 C247 1.390 . S
C249 C250 1.387 . S
C249 H252 0.950 . S
C250 C249 1.387 . S
C250 C253 1.387 . S
H251 C247 0.950 . S
H252 C249 0.950 . S
C253 C244 1.390 . S
C253 H246 0.950 . S
C253 C250 1.387 . S
C254 C255 1.387 . S
C254 H258 0.950 . S
C254 C263 1.390 . S
C255 C254 1.387 . S
C255 C257 1.387 . S
H256 C263 0.950 . S
C257 C255 1.387 . S
C257 C259 1.390 . S
C257 H261 0.950 . S
H258 C254 0.950 . S
C259 C257 1.390 . S
C259 C260 1.387 . S
C259 H262 0.950 . S
C260 C259 1.387 . S
C260 C263 1.387 . S
H261 C257 0.950 . S
H262 C259 0.950 . S
C263 C254 1.390 . S
C263 H256 0.950 . S
C263 C260 1.387 . S
C264 C265 1.387 . S
C264 H268 0.950 . S
C264 C273 1.390 1_455 S
C265 C264 1.387 . S
C265 C267 1.387 . S
H266 C273 0.950 . S
C267 C265 1.387 . S
C267 C269 1.390 1_455 S
C267 H271 0.950 1_556 S
H268 C264 0.950 . S
C269 C267 1.390 1_655 S
C269 C270 1.387 . S
C269 H272 0.950 1_556 S
C270 C269 1.387 . S
C270 C273 1.387 . S
H271 C267 0.950 1_554 S
H272 C269 0.950 1_554 S
C273 C264 1.390 1_655 S
C273 H266 0.950 . S
C273 C270 1.387 . S
C274 C275 1.387 . S
C274 H278 0.950 . S
C274 C283 1.390 1_545 S
C275 C274 1.387 . S
C275 C277 1.387 . S
H276 C283 0.950 . S
C277 C275 1.387 . S
C277 C279 1.390 1_545 S
C277 H281 0.950 . S
H278 C274 0.950 . S
C279 C277 1.390 1_565 S
C279 C280 1.387 . S
C279 H282 0.950 . S
C280 C279 1.387 . S
C280 C283 1.387 . S
H281 C277 0.950 . S
H282 C279 0.950 . S
C283 C274 1.390 1_565 S
C283 H276 0.950 . S
C283 C280 1.387 . S
C284 C285 1.387 . S
C284 H288 0.950 . S
C284 C293 1.390 . S
C285 C284 1.387 . S
C285 C287 1.387 . S
H286 C293 0.950 . S
C287 C285 1.387 . S
C287 C289 1.390 . S
C287 H291 0.950 . S
H288 C284 0.950 . S
C289 C287 1.390 . S
C289 C290 1.387 . S
C289 H292 0.950 . S
C290 C289 1.387 . S
C290 C293 1.387 . S
H291 C287 0.950 . S
H292 C289 0.950 . S
C293 C284 1.390 . S
C293 H286 0.950 . S
C293 C290 1.387 . S
C294 C295 1.387 . S
C294 H298 0.950 . S
C294 C303 1.390 . S
C295 C294 1.387 . S
C295 C297 1.387 . S
H296 C303 0.950 . S
C297 C295 1.387 . S
C297 C299 1.390 . S
C297 H301 0.950 . S
H298 C294 0.950 . S
C299 C297 1.390 . S
C299 C300 1.387 . S
C299 H302 0.950 . S
C300 C299 1.387 . S
C300 C303 1.387 . S
H301 C297 0.950 . S
H302 C299 0.950 . S
C303 C294 1.390 . S
C303 H296 0.950 . S
C303 C300 1.387 . S
C304 C305 1.387 . S
C304 H308 0.950 . S
C304 C313 1.390 . S
C305 C304 1.387 . S
C305 C307 1.387 . S
H306 C313 0.950 . S
C307 C305 1.387 . S
C307 C309 1.390 . S
C307 H311 0.950 . S
H308 C304 0.950 . S
C309 C307 1.390 . S
C309 C310 1.387 . S
C309 H312 0.950 . S
C310 C309 1.387 . S
C310 C313 1.387 . S
H311 C307 0.950 . S
H312 C309 0.950 . S
C313 C304 1.390 . S
C313 H306 0.950 . S
C313 C310 1.387 . S
C314 C315 1.387 . S
C314 H318 0.950 . S
C314 C323 1.390 . S
C315 C314 1.387 . S
C315 C317 1.387 . S
H316 C323 0.950 . S
C317 C315 1.387 . S
C317 C319 1.390 . S
C317 H321 0.950 . S
H318 C314 0.950 . S
C319 C317 1.390 . S
C319 C320 1.387 . S
C319 H322 0.950 . S
C320 C319 1.387 . S
C320 C323 1.387 . S
H321 C317 0.950 . S
H322 C319 0.950 . S
C323 C314 1.390 . S
C323 H316 0.950 . S
C323 C320 1.387 . S
C324 C325 1.387 . S
C324 H328 0.950 . S
C324 C333 1.390 . S
C325 C324 1.387 . S
C325 C327 1.387 . S
H326 C333 0.950 . S
C327 C325 1.387 . S
C327 C329 1.390 . S
C327 H331 0.950 . S
H328 C324 0.950 . S
C329 C327 1.390 . S
C329 C330 1.387 . S
C329 H332 0.950 . S
C330 C329 1.387 . S
C330 C333 1.387 . S
H331 C327 0.950 . S
H332 C329 0.950 . S
C333 C324 1.390 . S
C333 H326 0.950 . S
C333 C330 1.387 . S
C334 C335 1.387 . S
C334 H338 0.950 . S
C334 C343 1.390 . S
C335 C334 1.387 . S
C335 C337 1.387 . S
H336 C343 0.950 . S
C337 C335 1.387 . S
C337 C339 1.390 . S
C337 H341 0.950 . S
H338 C334 0.950 . S
C339 C337 1.390 . S
C339 C340 1.387 . S
C339 H342 0.950 . S
C340 C339 1.387 . S
C340 C343 1.387 . S
H341 C337 0.950 . S
H342 C339 0.950 . S
C343 C334 1.390 . S
C343 H336 0.950 . S
C343 C340 1.387 . S
C344 C345 1.387 . S
C344 H348 0.950 . S
C344 C353 1.390 . S
C345 C344 1.387 . S
C345 C347 1.387 . S
H346 C353 0.950 . S
C347 C345 1.387 . S
C347 C349 1.390 . S
C347 H351 0.950 . S
H348 C344 0.950 . S
C349 C347 1.390 . S
C349 C350 1.387 . S
C349 H352 0.950 . S
C350 C349 1.387 . S
C350 C353 1.387 . S
H351 C347 0.950 . S
H352 C349 0.950 . S
C353 C344 1.390 . S
C353 H346 0.950 . S
C353 C350 1.387 . S
C354 C355 1.387 . S
C354 H358 0.950 . S
C354 C363 1.390 1_565 S
C355 C354 1.387 . S
C355 C357 1.387 . S
H356 C363 0.950 . S
C357 C355 1.387 . S
C357 C359 1.390 1_565 S
C357 H361 0.950 . S
H358 C354 0.950 . S
C359 C357 1.390 1_545 S
C359 C360 1.387 . S
C359 H362 0.950 . S
C360 C359 1.387 . S
C360 C363 1.387 . S
H361 C357 0.950 . S
H362 C359 0.950 . S
C363 C354 1.390 1_545 S
C363 H356 0.950 . S
C363 C360 1.387 . S
C364 C365 1.387 . S
C364 H368 0.950 . S
C364 C373 1.390 . S
C365 C364 1.387 . S
C365 C367 1.387 . S
H366 C373 0.950 . S
C367 C365 1.387 . S
C367 C369 1.390 . S
C367 H371 0.950 . S
H368 C364 0.950 . S
C369 C367 1.390 . S
C369 C370 1.387 . S
C369 H372 0.950 . S
C370 C369 1.387 . S
C370 C373 1.387 . S
H371 C367 0.950 . S
H372 C369 0.950 . S
C373 C364 1.390 . S
C373 H366 0.950 . S
C373 C370 1.387 . S
C374 C375 1.387 . S
C374 H378 0.950 . S
C374 C383 1.390 1_455 S
C375 C374 1.387 . S
C375 C377 1.387 . S
H376 C383 0.950 . S
C377 C375 1.387 . S
C377 C379 1.390 . S
C377 H381 0.950 . S
H378 C374 0.950 . S
C379 C377 1.390 . S
C379 C380 1.387 1_455 S
C379 H382 0.950 . S
C380 C379 1.387 1_655 S
C380 C383 1.387 . S
H381 C377 0.950 . S
H382 C379 0.950 . S
C383 C374 1.390 1_655 S
C383 H376 0.950 . S
C383 C380 1.387 . S
C384 C385 1.387 1_545 S
C384 H388 0.950 1_545 S
C384 C393 1.390 . S
C385 C384 1.387 1_565 S
C385 C387 1.387 . S
H386 C393 0.950 . S
C387 C385 1.387 . S
C387 C389 1.390 1_565 S
C387 H391 0.950 . S
H388 C384 0.950 1_565 S
C389 C387 1.390 1_545 S
C389 C390 1.387 . S
C389 H392 0.950 . S
C390 C389 1.387 . S
C390 C393 1.387 . S
H391 C387 0.950 . S
H392 C389 0.950 . S
C393 C384 1.390 . S
C393 H386 0.950 . S
C393 C390 1.387 . S
C394 C395 1.387 . S
C394 H398 0.950 . S
C394 C403 1.390 . S
C395 C394 1.387 . S
C395 C397 1.387 . S
H396 C403 0.950 . S
C397 C395 1.387 . S
C397 C399 1.390 . S
C397 H401 0.950 . S
H398 C394 0.950 . S
C399 C397 1.390 . S
C399 C400 1.387 . S
C399 H402 0.950 . S
C400 C399 1.387 . S
C400 C403 1.387 . S
H401 C397 0.950 . S
H402 C399 0.950 . S
C403 C394 1.390 . S
C403 H396 0.950 . S
C403 C400 1.387 . S
C404 C405 1.387 . S
C404 H408 0.948 . S
C404 C413 1.390 1_655 S
C405 C404 1.387 . S
C405 C407 1.387 . S
H406 C413 0.950 . S
C407 C405 1.387 . S
C407 C409 1.390 . S
C407 H411 0.950 . S
H408 C404 0.948 . S
C409 C407 1.390 . S
C409 C410 1.387 1_655 S
C409 H412 0.950 1_556 S
C410 C409 1.387 1_455 S
C410 C413 1.387 . S
H411 C407 0.950 . S
H412 C409 0.950 1_554 S
C413 C404 1.390 1_455 S
C413 H406 0.950 . S
C413 C410 1.387 . S
C205 C15 1.059 . S
C210 C22 1.054 . S
C215 C49 1.052 . S
C220 C56 1.057 . S
C225 C83 1.063 . S
C230 C90 1.059 . S
C235 C117 1.058 . S
C240 C124 1.062 . S
C245 C151 1.057 . S
C250 C158 1.052 . S
C255 C192 1.062 . S
C260 C185 1.058 . S
C265 C28 0.634 . S
C270 C108 0.634 . S
C275 C40 0.634 . S
C280 C164 0.634 . S
C285 C176 0.634 . S
C290 C96 0.634 . S
C295 C3 2.180 . S
C300 C69 2.011 . S
C305 C35 2.180 . S
C310 C105 2.012 . S
C315 C71 2.180 . S
C320 C137 2.011 . S
C325 C103 2.180 . S
C330 C173 2.015 . S
C335 C1 2.014 . S
C340 C139 2.180 . S
C345 C171 2.180 . S
C350 C37 2.014 . S
C355 C6 1.778 . S
C360 C51 1.659 . S
C365 C62 1.778 . S
C370 C85 1.660 . S
C375 C74 1.780 . S
C380 C119 1.663 . S
C385 C153 1.659 . S
C390 C130 1.778 . S
C395 C142 1.781 . S
C400 C187 1.663 . S
C405 C198 1.780 . S
C410 C17 1.663 . S
