# Generated by pormake.
# Topology sml, (6)-cn, num edge types: 1
# Building blocks:
#     Node 0, Type 0, BuildingBlock: UKALOJ_clean_sbu_0, # of connection points: 6
#     Node 1, Type 0, BuildingBlock: UKALOJ_clean_sbu_0, # of connection points: 6
#     Node 2, Type 0, BuildingBlock: UKALOJ_clean_sbu_0, # of connection points: 6
#     Node 3, Type 0, BuildingBlock: UKALOJ_clean_sbu_0, # of connection points: 6
#     Node 4, Type 0, BuildingBlock: UKALOJ_clean_sbu_0, # of connection points: 6
#     Node 5, Type 0, BuildingBlock: UKALOJ_clean_sbu_0, # of connection points: 6
#     Edge 6, Type (0, 0), BuildingBlock: ZUJKAS_clean_linker_0, # of connection points: 2
#     Edge 7, Type (0, 0), BuildingBlock: ZUJKAS_clean_linker_0, # of connection points: 2
#     Edge 8, Type (0, 0), BuildingBlock: ZUJKAS_clean_linker_0, # of connection points: 2
#     Edge 9, Type (0, 0), BuildingBlock: ZUJKAS_clean_linker_0, # of connection points: 2
#     Edge 10, Type (0, 0), BuildingBlock: ZUJKAS_clean_linker_0, # of connection points: 2
#     Edge 11, Type (0, 0), BuildingBlock: ZUJKAS_clean_linker_0, # of connection points: 2
#     Edge 12, Type (0, 0), BuildingBlock: ZUJKAS_clean_linker_0, # of connection points: 2
#     Edge 13, Type (0, 0), BuildingBlock: ZUJKAS_clean_linker_0, # of connection points: 2
#     Edge 14, Type (0, 0), BuildingBlock: ZUJKAS_clean_linker_0, # of connection points: 2
#     Edge 15, Type (0, 0), BuildingBlock: ZUJKAS_clean_linker_0, # of connection points: 2
#     Edge 16, Type (0, 0), BuildingBlock: ZUJKAS_clean_linker_0, # of connection points: 2
#     Edge 17, Type (0, 0), BuildingBlock: ZUJKAS_clean_linker_0, # of connection points: 2
#     Edge 18, Type (0, 0), BuildingBlock: ZUJKAS_clean_linker_0, # of connection points: 2
#     Edge 19, Type (0, 0), BuildingBlock: ZUJKAS_clean_linker_0, # of connection points: 2
#     Edge 20, Type (0, 0), BuildingBlock: ZUJKAS_clean_linker_0, # of connection points: 2
#     Edge 21, Type (0, 0), BuildingBlock: ZUJKAS_clean_linker_0, # of connection points: 2
#     Edge 22, Type (0, 0), BuildingBlock: ZUJKAS_clean_linker_0, # of connection points: 2
#     Edge 23, Type (0, 0), BuildingBlock: ZUJKAS_clean_linker_0, # of connection points: 2
# Relax obj value: 0.276
# Max RMSD: 0.215
# Mean RMSD: 0.215
data_MOF--net-sml--node1-UKALOJ_clean_sbu_0--edge1-ZUJKAS_clean_linker_0
_symmetry_space_group_name_H-M    P1
_symmetry_Int_Tables_number       1
_symmetry_cell_setting            triclinic
loop_
_symmetry_equiv_pos_as_xyz
'x, y, z'
_cell_length_a     48.441629
_cell_length_b     48.410188
_cell_length_c     23.593262
_cell_angle_alpha  90.053572
_cell_angle_beta   89.877142
_cell_angle_gamma 119.99486
loop_
_atom_site_label
_atom_site_type_symbol
_atom_site_fract_x
_atom_site_fract_y
_atom_site_fract_z
_atom_type_partial_charge
Zn0 Zn 0.20787 0.40932 0.04 0.0
O1 O 0.19937 0.44553 0.07025 0.0
C2 C 0.13723 0.36525 0.03531 0.0
Zn3 Zn 0.18544 0.41433 0.96103 0.0
C4 C 0.18591 0.45841 0.04369 0.0
O5 O 0.17662 0.44995 0.99299 0.0
C6 C 0.20763 0.3656 0.95716 0.0
O7 O 0.23129 0.44957 0.93616 0.0
O8 O 0.25406 0.4446 0.01273 0.0
N9 N 0.16673 0.41424 0.88286 0.0
C10 C 0.17947 0.43266 0.83654 0.0
C11 C 0.13768 0.39059 0.80979 0.0
N12 N 0.14048 0.38831 0.86612 0.0
N13 N 0.16202 0.41813 0.78999 0.0
C14 C 0.21315 0.40444 0.16984 0.0
C15 C 0.26014 0.412 0.18036 0.0
N16 N 0.22576 0.4076 0.1176 0.0
N17 N 0.25494 0.41223 0.12422 0.0
N18 N 0.23411 0.40681 0.20969 0.0
H19 H 0.18302 0.4157 0.22061 0.0
H20 H 0.16397 0.37604 0.19235 0.0
H21 H 0.17203 0.40899 0.14711 0.0
C22 C 0.18132 0.40134 0.18271 0.0
C23 C 0.20799 0.46552 0.83699 0.0
H24 H 0.20866 0.47788 0.87703 0.0
H25 H 0.20726 0.47962 0.80053 0.0
H26 H 0.23 0.46398 0.83345 0.0
O27 O 0.19468 0.37875 0.92984 0.0
O28 O 0.21624 0.3738 0.00814 0.0
C29 C 0.25622 0.45787 0.96524 0.0
O30 O 0.16182 0.37345 0.06543 0.0
O31 O 0.14005 0.37894 0.9881 0.0
Zn32 Zn 0.76177 0.18232 0.28631 0.0
O33 O 0.77022 0.227 0.25763 0.0
C34 C 0.83263 0.20786 0.29092 0.0
Zn35 Zn 0.78496 0.20784 0.36615 0.0
C36 C 0.78485 0.25297 0.28507 0.0
O37 O 0.79462 0.25279 0.33496 0.0
C38 C 0.76221 0.1372 0.36583 0.0
O39 O 0.73955 0.19858 0.39105 0.0
O40 O 0.71558 0.17137 0.31465 0.0
N41 N 0.80258 0.22696 0.44411 0.0
C42 C 0.78902 0.21799 0.49578 0.0
C43 C 0.83619 0.25684 0.50797 0.0
N44 N 0.83188 0.25113 0.45174 0.0
N45 N 0.80947 0.23656 0.53629 0.0
C46 C 0.7571 0.17254 0.1565 0.0
C47 C 0.71037 0.13279 0.14499 0.0
N48 N 0.74396 0.16324 0.2084 0.0
N49 N 0.71493 0.13852 0.20118 0.0
N50 N 0.73668 0.15363 0.11629 0.0
H51 H 0.79736 0.2188 0.1792 0.0
H52 H 0.78798 0.21332 0.10499 0.0
H53 H 0.80678 0.19356 0.13765 0.0
C54 C 0.78902 0.20132 0.14432 0.0
C55 C 0.75658 0.18981 0.50738 0.0
H56 H 0.74857 0.17189 0.47323 0.0
H57 H 0.73912 0.19817 0.51137 0.0
H58 H 0.75656 0.17807 0.54777 0.0
O59 O 0.77543 0.16246 0.39558 0.0
O60 O 0.75351 0.13829 0.31559 0.0
C61 C 0.71418 0.18245 0.36276 0.0
O62 O 0.8079 0.19281 0.26044 0.0
O63 O 0.83023 0.2175 0.33974 0.0
Zn64 Zn 0.56797 0.78815 0.70163 0.0
O65 O 0.53246 0.74284 0.72984 0.0
C66 C 0.61517 0.76472 0.69749 0.0
Zn67 Zn 0.56733 0.76318 0.62187 0.0
C68 C 0.52195 0.71707 0.70196 0.0
O69 O 0.53254 0.7178 0.65231 0.0
C70 C 0.61367 0.83408 0.62266 0.0
O71 O 0.53073 0.77204 0.59603 0.0
O72 O 0.53196 0.79746 0.67383 0.0
N73 N 0.56687 0.74458 0.54369 0.0
C74 C 0.56356 0.75418 0.49177 0.0
C75 C 0.57014 0.71416 0.48012 0.0
N76 N 0.57095 0.71969 0.53637 0.0
N77 N 0.56518 0.73532 0.45149 0.0
C78 C 0.57273 0.79766 0.83151 0.0
C79 C 0.56518 0.83704 0.84361 0.0
N80 N 0.56848 0.80677 0.77979 0.0
N81 N 0.56378 0.83125 0.78738 0.0
N82 N 0.57113 0.81646 0.87195 0.0
H83 H 0.56771 0.75181 0.80832 0.0
H84 H 0.56339 0.75698 0.88262 0.0
H85 H 0.60201 0.77733 0.8502 0.0
C86 C 0.57645 0.76919 0.84337 0.0
C87 C 0.56099 0.78326 0.47941 0.0
H88 H 0.56731 0.79944 0.51602 0.0
H89 H 0.53621 0.77574 0.46681 0.0
H90 H 0.57672 0.7966 0.44323 0.0
O91 O 0.6028 0.80865 0.59366 0.0
O92 O 0.60295 0.83299 0.67226 0.0
C93 C 0.5204 0.78714 0.62496 0.0
O94 O 0.60457 0.77925 0.72734 0.0
O95 O 0.60337 0.75436 0.64884 0.0
Zn96 Zn 0.79003 0.5754 0.97501 0.0
O97 O 0.74477 0.54172 0.94446 0.0
C98 C 0.76763 0.62316 0.98175 0.0
Zn99 Zn 0.76414 0.57308 0.05464 0.0
C100 C 0.7187 0.53022 0.97167 0.0
O101 O 0.71885 0.53892 0.02259 0.0
C102 C 0.83545 0.61849 0.05663 0.0
O103 O 0.77193 0.53566 0.07847 0.0
O104 O 0.79749 0.53769 0.00033 0.0
N105 N 0.74507 0.57178 0.13283 0.0
C106 C 0.75394 0.56723 0.18455 0.0
C107 C 0.71552 0.57623 0.19675 0.0
N108 N 0.72116 0.57734 0.14049 0.0
N109 N 0.73559 0.56957 0.22509 0.0
C110 C 0.80052 0.58198 0.84521 0.0
C111 C 0.83823 0.57195 0.83256 0.0
N112 N 0.80906 0.57678 0.89676 0.0
N113 N 0.83253 0.57059 0.88881 0.0
N114 N 0.81867 0.57942 0.80449 0.0
H115 H 0.76051 0.57492 0.79444 0.0
H116 H 0.7824 0.61328 0.82754 0.0
H117 H 0.75569 0.57917 0.86883 0.0
C118 C 0.77308 0.58741 0.83379 0.0
C119 C 0.7819 0.56268 0.19629 0.0
H120 H 0.77313 0.53701 0.20385 0.0
H121 H 0.79456 0.57591 0.23506 0.0
H122 H 0.79906 0.57067 0.16088 0.0
O123 O 0.80968 0.60771 0.08469 0.0
O124 O 0.83477 0.60857 0.00654 0.0
C125 C 0.78653 0.52521 0.04848 0.0
O126 O 0.78286 0.61339 0.95185 0.0
O127 O 0.75609 0.60998 0.02915 0.0
Zn128 Zn 0.19056 0.77568 0.37751 0.0
O129 O 0.2364 0.78759 0.40474 0.0
C130 C 0.21254 0.845 0.37152 0.0
Zn131 Zn 0.2123 0.79707 0.29423 0.0
C132 C 0.26084 0.8007 0.37298 0.0
O133 O 0.25813 0.80712 0.32175 0.0
C134 C 0.1423 0.77284 0.29926 0.0
O135 O 0.20226 0.75134 0.26767 0.0
O136 O 0.18235 0.73031 0.35087 0.0
N137 N 0.2299 0.81676 0.2167 0.0
C138 C 0.21867 0.8051 0.16479 0.0
C139 C 0.25419 0.85399 0.15448 0.0
N140 N 0.25206 0.84712 0.2103 0.0
N141 N 0.23328 0.82801 0.12525 0.0
C142 C 0.18238 0.76935 0.5071 0.0
C143 C 0.13411 0.73222 0.51699 0.0
N144 N 0.17112 0.75793 0.45506 0.0
N145 N 0.14116 0.73477 0.46122 0.0
N146 N 0.15955 0.75386 0.54647 0.0
H147 H 0.23134 0.78246 0.51051 0.0
H148 H 0.22068 0.80104 0.56442 0.0
H149 H 0.22474 0.81474 0.49211 0.0
C150 C 0.21652 0.79349 0.51953 0.0
C151 C 0.19578 0.7706 0.15251 0.0
H152 H 0.20831 0.7571 0.16028 0.0
H153 H 0.18769 0.76614 0.10794 0.0
H154 H 0.17478 0.76123 0.1809 0.0
O155 O 0.16664 0.78709 0.26756 0.0
O156 O 0.1453 0.76452 0.34876 0.0
C157 C 0.18945 0.7272 0.30025 0.0
O158 O 0.19861 0.82073 0.40341 0.0
O159 O 0.22161 0.84211 0.3225 0.0
Zn160 Zn 0.41255 0.22008 0.61898 0.0
O161 O 0.44837 0.20984 0.59533 0.0
C162 C 0.36343 0.14987 0.61751 0.0
Zn163 Zn 0.40897 0.19388 0.69861 0.0
C164 C 0.45629 0.19259 0.62349 0.0
O165 O 0.44304 0.18132 0.67101 0.0
C166 C 0.36493 0.22113 0.69268 0.0
O167 O 0.44622 0.23802 0.7278 0.0
O168 O 0.448 0.26455 0.65123 0.0
N169 N 0.40659 0.17422 0.77653 0.0
C170 C 0.4041 0.18424 0.82866 0.0
C171 C 0.40746 0.14229 0.83957 0.0
N172 N 0.40865 0.14813 0.7834 0.0
N173 N 0.40425 0.16447 0.8686 0.0
C174 C 0.42016 0.23047 0.48944 0.0
C175 C 0.41312 0.27009 0.47632 0.0
N176 N 0.41535 0.23962 0.5408 0.0
N177 N 0.41101 0.26426 0.53258 0.0
N178 N 0.41924 0.24941 0.44858 0.0
H179 H 0.41307 0.18381 0.51231 0.0
H180 H 0.44945 0.20957 0.47542 0.0
H181 H 0.41234 0.19035 0.43766 0.0
C182 C 0.42372 0.20181 0.4784 0.0
C183 C 0.40389 0.21453 0.84156 0.0
H184 H 0.41045 0.2306 0.80476 0.0
H185 H 0.42062 0.22738 0.8768 0.0
H186 H 0.37974 0.20853 0.85593 0.0
O187 O 0.37427 0.20602 0.72392 0.0
O188 O 0.37713 0.23035 0.64383 0.0
C189 C 0.45797 0.26421 0.70087 0.0
O190 O 0.3765 0.17542 0.5886 0.0
O191 O 0.37234 0.15022 0.6682 0.0
H192 H 0.33349 0.24536 0.63302 0.0
H193 H 0.29713 0.26222 0.67065 0.0
H194 H 0.30689 0.23238 0.83808 0.0
H195 H 0.34195 0.21417 0.80043 0.0
H196 H 0.24633 0.21832 0.81797 0.0
H197 H 0.33129 0.34411 0.75855 0.0
H198 H 0.31764 0.31697 0.6998 0.0
H199 H 0.34158 0.31319 0.75409 0.0
C200 C 0.32767 0.24217 0.67777 0.0
C201 C 0.34107 0.22902 0.71404 0.0
C202 C 0.30701 0.25191 0.6992 0.0
C203 C 0.30002 0.24929 0.75737 0.0
C204 C 0.31217 0.23481 0.7931 0.0
H205 H 0.2328 0.33103 0.0027 0.0
H206 H 0.24974 0.29803 0.95137 0.0
C207 C 0.33238 0.2246 0.77158 0.0
C208 C 0.2816 0.2632 0.78194 0.0
H209 H 0.28322 0.33381 0.80163 0.0
C210 C 0.25427 0.24353 0.81417 0.0
C211 C 0.29221 0.29617 0.77719 0.0
C212 C 0.32243 0.31893 0.74602 0.0
C213 C 0.23742 0.25608 0.84226 0.0
C214 C 0.24824 0.28899 0.83774 0.0
C215 C 0.27501 0.30849 0.80448 0.0
C216 C 0.23346 0.30437 0.86969 0.0
C217 C 0.20838 0.2343 0.87692 0.0
C218 C 0.21852 0.31847 0.84055 0.0
C219 C 0.20883 0.33727 0.8696 0.0
C220 C 0.21437 0.34261 0.92818 0.0
C221 C 0.22829 0.32742 0.9576 0.0
C222 C 0.23777 0.30841 0.92848 0.0
H223 H 0.19954 0.20876 0.86726 0.0
H224 H 0.21452 0.23831 0.92262 0.0
H225 H 0.18892 0.23965 0.86918 0.0
H226 H 0.21529 0.31576 0.79505 0.0
H227 H 0.19813 0.3486 0.84569 0.0
H228 H 0.12292 0.33205 0.13483 0.0
H229 H 0.07004 0.29702 0.17435 0.0
H230 H 0.02699 0.30832 0.0228 0.0
H231 H 0.07979 0.344 0.98337 0.0
H232 H 0.00646 0.32322 0.12044 0.0
H233 H -0.00067 0.2057 0.14187 0.0
H234 H 0.03476 0.23818 0.17191 0.0
H235 H 0.02822 0.23703 0.09675 0.0
C236 C 0.10223 0.32681 0.10961 0.0
C237 C 0.10551 0.34114 0.05633 0.0
C238 C 0.07203 0.30648 0.132 0.0
C239 C 0.04469 0.29987 0.1012 0.0
C240 C 0.04789 0.31306 0.04703 0.0
H241 H 0.84545 0.18565 0.19373 0.0
H242 H 0.89753 0.20532 0.14875 0.0
C243 C 0.07805 0.33348 0.02467 0.0
C244 C 0.013 0.28251 0.12818 0.0
H245 H 0.96029 0.21255 0.19275 0.0
C246 C -0.00375 0.29893 0.13578 0.0
C247 C -0.0002 0.25082 0.14798 0.0
C248 C 0.0163 0.23175 0.1388 0.0
C249 C 0.96687 0.28474 0.16379 0.0
C250 C 0.95422 0.25351 0.18537 0.0
C251 C 0.97047 0.23669 0.17668 0.0
C252 C 0.92378 0.23816 0.21639 0.0
C253 C 0.94951 0.30321 0.17017 0.0
C254 C 0.92171 0.24953 0.26996 0.0
C255 C 0.89207 0.23852 0.29564 0.0
C256 C 0.86412 0.21607 0.26787 0.0
C257 C 0.86654 0.20334 0.2157 0.0
C258 C 0.89622 0.21434 0.19013 0.0
H259 H 0.95956 0.32448 0.1421 0.0
H260 H 0.9238 0.28782 0.16036 0.0
H261 H 0.95151 0.31142 0.21469 0.0
H262 H 0.94292 0.26786 0.29079 0.0
H263 H 0.891 0.24863 0.336 0.0
H264 H 0.74803 0.08257 0.30938 0.0
H265 H 0.73188 0.03034 0.35068 0.0
H266 H 0.74443 0.07029 0.51855 0.0
H267 H 0.76167 0.12283 0.47764 0.0
H268 H 0.76403 0.02561 0.51051 0.0
H269 H 0.64329 0.97995 0.41863 0.0
H270 H 0.67481 -0.0047 0.36713 0.0
H271 H 0.67293 0.02173 0.41866 0.0
C272 C 0.74767 0.08027 0.35508 0.0
C273 C 0.75559 0.10657 0.39037 0.0
C274 C 0.73841 0.05046 0.37855 0.0
C275 C 0.73629 0.04643 0.43755 0.0
C276 C 0.7458 0.07297 0.47287 0.0
H277 H 0.64357 0.89281 0.67309 0.0
H278 H 0.67849 0.94412 0.62746 0.0
C279 C 0.75552 0.1029 0.44945 0.0
C280 C 0.72185 0.01424 0.46251 0.0
H281 H 0.65235 0.94311 0.46833 0.0
C282 C 0.73967 0.00747 0.50119 0.0
C283 C 0.68996 0.99083 0.45049 0.0
C284 C 0.66899 -0.00268 0.41191 0.0
C285 C 0.72633 0.97772 0.52821 0.0
C286 C 0.6945 0.95448 0.51614 0.0
C287 C 0.6769 0.96106 0.4769 0.0
C288 C 0.67803 0.92361 0.54571 0.0
C289 C 0.74621 0.97128 0.56941 0.0
C290 C 0.66646 0.89529 0.51467 0.0
C291 C 0.64645 0.86604 0.5404 0.0
C292 C 0.63743 0.86472 0.59747 0.0
C293 C 0.65004 0.8931 0.62903 0.0
C294 C 0.67019 0.92237 0.60323 0.0
H295 H 0.77204 0.98872 0.56468 0.0
H296 H 0.73897 0.97304 0.61333 0.0
H297 H 0.7423 0.94682 0.56347 0.0
H298 H 0.67209 0.89595 0.47004 0.0
H299 H 0.63718 0.84459 0.51496 0.0
H300 H 0.6489 0.78837 0.79517 0.0
H301 H 0.68381 0.77227 0.84053 0.0
H302 H 0.67285 0.71192 0.69769 0.0
H303 H 0.63705 0.72719 0.65258 0.0
H304 H 0.65696 0.68039 0.7991 0.0
H305 H 0.77477 0.79064 0.81515 0.0
H306 H 0.74243 0.79522 0.84122 0.0
H307 H 0.74401 0.78695 0.76733 0.0
C308 C 0.65414 0.77191 0.77311 0.0
C309 C 0.63976 0.75856 0.72081 0.0
C310 C 0.67448 0.7631 0.79876 0.0
C311 C 0.68109 0.74116 0.77218 0.0
C312 C 0.66809 0.72904 0.71865 0.0
H313 H 0.79386 0.66 0.88789 0.0
H314 H 0.77555 0.69259 0.83983 0.0
C315 C 0.64764 0.73774 0.69302 0.0
C316 C 0.69789 0.72765 0.80349 0.0
H317 H 0.76672 0.74672 0.87366 0.0
C318 C 0.68106 0.69485 0.81496 0.0
C319 C 0.7293 0.74665 0.82403 0.0
C320 C 0.74883 0.78178 0.81089 0.0
C321 C 0.69459 0.68051 0.84731 0.0
C322 C 0.72554 0.69966 0.86959 0.0
C323 C 0.74275 0.73235 0.8572 0.0
C324 C 0.74055 0.6854 0.9038 0.0
C325 C 0.67577 0.64493 0.85706 0.0
C326 C 0.72772 0.67181 0.9567 0.0
C327 C 0.7379 0.65296 0.98407 0.0
C328 C 0.76102 0.64751 0.95872 0.0
C329 C 0.77556 0.66328 0.90788 0.0
C330 C 0.76535 0.6821 0.88058 0.0
H331 H 0.65526 0.63289 0.82755 0.0
H332 H 0.69118 0.63416 0.85181 0.0
H333 H 0.66634 0.64017 0.90104 0.0
H334 H 0.70872 0.67447 0.97533 0.0
H335 H 0.72646 0.64134 0.02344 0.0
H336 H 0.12526 0.77501 0.18997 0.0
H337 H 0.07166 0.75683 0.15406 0.0
H338 H 0.03443 0.73533 0.32459 0.0
H339 H 0.08785 0.75259 0.36076 0.0
H340 H 0.00336 0.68574 0.25537 0.0
H341 H 0.01261 0.7929 0.15315 0.0
H342 H 0.04276 0.7846 0.12848 0.0
H343 H 0.04239 0.79501 0.20166 0.0
C344 C 0.10573 0.7669 0.21991 0.0
C345 C 0.11064 0.76499 0.27811 0.0
C346 C 0.07517 0.75681 0.19937 0.0
C347 C 0.04918 0.74522 0.23678 0.0
C348 C 0.05424 0.74439 0.29512 0.0
H349 H 0.84526 0.64072 0.16529 0.0
H350 H 0.89639 0.67497 0.21153 0.0
C351 C 0.08472 0.75414 0.31564 0.0
C352 C 0.01639 0.73042 0.21449 0.0
H353 H 0.96811 0.74228 0.12473 0.0
C354 C -0.00454 0.69827 0.22763 0.0
C355 C 0.00625 0.74684 0.17816 0.0
C356 C 0.0271 0.78184 0.165 0.0
C357 C 0.96506 0.68168 0.20364 0.0
C358 C 0.95535 0.6978 0.1659 0.0
C359 C 0.97586 0.73013 0.15369 0.0
C360 C 0.92453 0.68069 0.13657 0.0
C361 C 0.94394 0.64671 0.21707 0.0
C362 C 0.92369 0.67345 0.07888 0.0
C363 C 0.8946 0.65385 0.05231 0.0
C364 C 0.86598 0.64135 0.08316 0.0
C365 C 0.86692 0.64985 0.14045 0.0
C366 C 0.89603 0.66939 0.16696 0.0
H367 H 0.95693 0.6367 0.24018 0.0
H368 H 0.92372 0.64353 0.24391 0.0
H369 H 0.93391 0.63279 0.17754 0.0
H370 H 0.9456 0.68202 0.05499 0.0
H371 H 0.89461 0.64788 0.00806 0.0
H372 H 0.33182 0.09054 0.66548 0.0
H373 H 0.29711 0.04002 0.61739 0.0
H374 H 0.30622 0.09059 0.46183 0.0
H375 H 0.34106 0.14122 0.50916 0.0
H376 H 0.2378 0.01777 0.54557 0.0
H377 H 0.34502 0.03063 0.43332 0.0
H378 H 0.348 0.05325 0.49615 0.0
H379 H 0.33794 0.06368 0.42946 0.0
C380 C 0.32608 0.09097 0.62126 0.0
C381 C 0.33949 0.11979 0.5909 0.0
C382 C 0.30616 0.06214 0.59401 0.0
C383 C 0.29947 0.06179 0.53618 0.0
C384 C 0.31138 0.09056 0.50649 0.0
H385 H 0.23242 0.8993 0.30965 0.0
H386 H 0.24801 0.95252 0.34546 0.0
C387 C 0.33128 0.11939 0.53362 0.0
C388 C 0.28282 0.0312 0.50579 0.0
H389 H 0.29642 0.98415 0.41606 0.0
C390 C 0.25041 0.0104 0.51681 0.0
C391 C 0.29951 0.02196 0.46831 0.0
C392 C 0.33459 0.04336 0.45614 0.0
C393 C 0.23421 0.98015 0.4915 0.0
C394 C 0.25121 0.97045 0.45554 0.0
C395 C 0.28342 0.99171 0.44347 0.0
C396 C 0.23709 0.93768 0.43307 0.0
C397 C 0.19913 0.95895 0.5035 0.0
C398 C 0.22545 0.91169 0.47043 0.0
C399 C 0.21632 0.88126 0.45008 0.0
C400 C 0.21926 0.87647 0.39214 0.0
C401 C 0.23009 0.90235 0.35457 0.0
C402 C 0.23888 0.9327 0.3749 0.0
H403 H 0.1877 0.97323 0.51459 0.0
H404 H 0.18651 0.94359 0.46655 0.0
H405 H 0.19612 0.94336 0.5402 0.0
H406 H 0.22472 0.91513 0.51565 0.0
H407 H 0.20819 0.86178 0.48008 0.0
H408 H 0.12518 0.4109 0.69945 0.0
H409 H 0.13984 0.41172 0.59921 0.0
H410 H 0.23513 0.43683 0.64927 0.0
H411 H 0.22039 0.43502 0.74854 0.0
H412 H 0.19233 0.46114 0.53009 0.0
H413 H 0.19917 0.3509 0.56133 0.0
H414 H 0.17956 0.36378 0.61116 0.0
H415 H 0.22228 0.38272 0.61014 0.0
C416 C 0.14939 0.41726 0.68866 0.0
C417 C 0.17185 0.42373 0.73161 0.0
C418 C 0.15772 0.41768 0.6317 0.0
C419 C 0.1885 0.42414 0.61715 0.0
C420 C 0.21125 0.43173 0.65978 0.0
H421 H 0.27383 0.45313 0.28075 0.0
H422 H 0.26432 0.45787 0.38189 0.0
C423 C 0.20294 0.43127 0.7165 0.0
C424 C 0.1964 0.42101 0.55786 0.0
H425 H 0.21587 0.37641 0.47219 0.0
C426 C 0.1975 0.44267 0.51729 0.0
C427 C 0.20277 0.39662 0.54148 0.0
C428 C 0.20067 0.37196 0.58309 0.0
C429 C 0.20524 0.4408 0.46057 0.0
C430 C 0.21231 0.41685 0.44449 0.0
C431 C 0.21082 0.39497 0.48497 0.0
C432 C 0.21972 0.41312 0.38516 0.0
C433 C 0.20518 0.46403 0.41802 0.0
C434 C 0.19851 0.38581 0.35458 0.0
C435 C 0.20405 0.38308 0.29736 0.0
C436 C 0.23089 0.40754 0.27 0.0
C437 C 0.25301 0.43406 0.3013 0.0
C438 C 0.24742 0.43689 0.3586 0.0
H439 H 0.19311 0.47673 0.43476 0.0
H440 H 0.23014 0.48207 0.40735 0.0
H441 H 0.19313 0.45154 0.37828 0.0
H442 H 0.17719 0.36708 0.37457 0.0
H443 H 0.18701 0.36225 0.27395 0.0
H444 H 0.78517 0.15606 0.05655 0.0
H445 H 0.79702 0.17022 0.95612 0.0
H446 H 0.7092 0.17195 0.93971 0.0
H447 H 0.69774 0.15837 0.04076 0.0
H448 H 0.76192 0.14124 0.85543 0.0
H449 H 0.77962 0.26259 0.89156 0.0
H450 H 0.77824 0.23721 0.94882 0.0
H451 H 0.74204 0.23014 0.9152 0.0
C452 C 0.76841 0.1593 0.03119 0.0
C453 C 0.7409 0.15677 0.05603 0.0
C454 C 0.77509 0.16725 0.97405 0.0
C455 C 0.75431 0.17279 0.94102 0.0
C456 C 0.7258 0.16836 0.96494 0.0
H457 H 0.761 0.23459 0.59556 0.0
H458 H 0.74872 0.22027 0.69587 0.0
C459 C 0.71911 0.16033 0.0222 0.0
C460 C 0.76322 0.18437 0.88221 0.0
H461 H 0.78324 0.24862 0.79688 0.0
C462 C 0.76663 0.1647 0.84253 0.0
C463 C 0.76948 0.21509 0.86588 0.0
C464 C 0.76746 0.23767 0.90759 0.0
C465 C 0.77563 0.17475 0.7864 0.0
C466 C 0.78195 0.20549 0.77009 0.0
C467 C 0.7785 0.22514 0.80976 0.0
C468 C 0.79111 0.21717 0.71138 0.0
C469 C 0.77764 0.15214 0.74471 0.0
C470 C 0.8196 0.22139 0.68776 0.0
C471 C 0.82653 0.22949 0.63058 0.0
C472 C 0.80501 0.23336 0.59652 0.0
C473 C 0.77755 0.2311 0.62109 0.0
C474 C 0.77063 0.22305 0.67816 0.0
H475 H 0.76523 0.12719 0.76057 0.0
H476 H 0.76712 0.15279 0.70331 0.0
H477 H 0.80304 0.15948 0.73752 0.0
H478 H 0.836 0.21757 0.71315 0.0
H479 H 0.84787 0.23125 0.61226 0.0
H480 H 0.51829 0.7362 0.39239 0.0
H481 H 0.51987 0.74986 0.29191 0.0
H482 H 0.6113 0.75557 0.27478 0.0
H483 H 0.60959 0.74192 0.37563 0.0
H484 H 0.56748 0.80731 0.24451 0.0
H485 H 0.56121 0.70215 0.13695 0.0
H486 H 0.54999 0.70132 0.21024 0.0
H487 H 0.59133 0.71997 0.19069 0.0
C488 C 0.5385 0.74009 0.3668 0.0
C489 C 0.56399 0.73842 0.39127 0.0
C490 C 0.53938 0.7478 0.30964 0.0
C491 C 0.56567 0.75366 0.27599 0.0
C492 C 0.5906 0.75068 0.29987 0.0
H493 H 0.61882 0.81574 0.92874 0.0
H494 H 0.61885 0.80312 0.02938 0.0
C495 C 0.58965 0.7429 0.35719 0.0
C496 C 0.56787 0.76503 0.21711 0.0
H497 H 0.57248 0.74661 0.07918 0.0
C498 C 0.56846 0.79401 0.20827 0.0
C499 C 0.56929 0.74767 0.17015 0.0
C500 C 0.56766 0.71591 0.17719 0.0
C501 C 0.57079 0.8063 0.15354 0.0
C502 C 0.57205 0.78886 0.10655 0.0
C503 C 0.57158 0.75994 0.11542 0.0
C504 C 0.5735 0.79986 0.04758 0.0
C505 C 0.57247 0.83809 0.14657 0.0
C506 C 0.5483 0.80281 0.02489 0.0
C507 C 0.54834 0.81002 0.9675 0.0
C508 C 0.57332 0.81391 0.93211 0.0
C509 C 0.59912 0.81231 0.95535 0.0
C510 C 0.59915 0.80518 0.01261 0.0
H511 H 0.57966 0.85211 0.18653 0.0
H512 H 0.5896 0.85241 0.11263 0.0
H513 H 0.54861 0.83405 0.13449 0.0
H514 H 0.52805 0.79829 0.05098 0.0
H515 H 0.52817 0.81098 0.95006 0.0
H516 H 0.81159 0.53502 0.72829 0.0
H517 H 0.79859 0.53393 0.62728 0.0
H518 H 0.80463 0.62551 0.64524 0.0
H519 H 0.81835 0.62684 0.74551 0.0
H520 H 0.74452 0.53547 0.58861 0.0
H521 H 0.85551 0.63629 0.50023 0.0
H522 H 0.85435 0.61825 0.5678 0.0
H523 H 0.84054 0.64637 0.56184 0.0
C524 C 0.81086 0.55516 0.71001 0.0
C525 C 0.81558 0.58085 0.74426 0.0
C526 C 0.80327 0.55447 0.6527 0.0
C527 C 0.80077 0.57969 0.62883 0.0
C528 C 0.80683 0.606 0.66261 0.0
H529 H 0.74222 0.61411 0.30063 0.0
H530 H 0.75521 0.61569 0.40178 0.0
C531 C 0.81437 0.60664 0.71983 0.0
C532 C 0.78946 0.57747 0.56991 0.0
H533 H 0.80963 0.61462 0.44126 0.0
C534 C 0.75881 0.55263 0.55623 0.0
C535 C 0.80808 0.60008 0.52805 0.0
C536 C 0.84156 0.62661 0.53992 0.0
C537 C 0.74608 0.55002 0.50185 0.0
C538 C 0.76472 0.5726 0.45996 0.0
C539 C 0.79534 0.59748 0.47367 0.0
C540 C 0.75352 0.57015 0.40092 0.0
C541 C 0.71261 0.52349 0.48995 0.0
C542 C 0.74777 0.54383 0.36748 0.0
C543 C 0.74028 0.54293 0.31019 0.0
C544 C 0.73875 0.56845 0.28536 0.0
C545 C 0.74318 0.59417 0.31923 0.0
C546 C 0.75076 0.59514 0.37663 0.0
H547 H 0.69863 0.51384 0.52963 0.0
H548 H 0.69984 0.53182 0.46194 0.0
H549 H 0.71365 0.50371 0.46816 0.0
H550 H 0.75017 0.5245 0.3852 0.0
H551 H 0.73654 0.52272 0.28478 0.0
H552 H 0.14197 0.71253 0.63344 0.0
H553 H 0.14841 0.72608 0.73485 0.0
H554 H 0.18633 0.82536 0.69215 0.0
H555 H 0.17776 0.81134 0.59175 0.0
H556 H 0.20248 0.76065 0.78543 0.0
H557 H 0.13052 0.81861 0.8201 0.0
H558 H 0.1271 0.79642 0.75651 0.0
H559 H 0.15809 0.83754 0.76304 0.0
C560 C 0.15094 0.73703 0.64627 0.0
C561 C 0.16026 0.76109 0.60549 0.0
C562 C 0.15473 0.74482 0.70386 0.0
C563 C 0.16775 0.77675 0.72116 0.0
C564 C 0.17564 0.80052 0.68014 0.0
H565 H 0.27374 0.84551 0.03667 0.0
H566 H 0.25881 0.83671 0.93587 0.0
C567 C 0.17129 0.79262 0.62284 0.0
C568 C 0.1762 0.7857 0.78125 0.0
H569 H 0.17184 0.83058 0.88867 0.0
C570 C 0.19543 0.77562 0.80824 0.0
C571 C 0.16685 0.80507 0.81111 0.0
C572 C 0.14421 0.81471 0.7863 0.0
C573 C 0.20591 0.78464 0.864 0.0
C574 C 0.19808 0.80549 0.89273 0.0
C575 C 0.17843 0.8152 0.8661 0.0
C576 C 0.20813 0.81557 0.95189 0.0
C577 C 0.22452 0.77098 0.89186 0.0
C578 C 0.18495 0.80898 0.99353 0.0
C579 C 0.19361 0.81485 0.05035 0.0
C580 C 0.22542 0.82666 0.06649 0.0
C581 C 0.249 0.83566 0.02479 0.0
C582 C 0.24041 0.83032 0.9676 0.0
H583 H 0.22059 0.74888 0.8703 0.0
H584 H 0.25035 0.78866 0.88939 0.0
H585 H 0.21781 0.76535 0.93716 0.0
H586 H 0.15997 0.79808 0.98236 0.0
H587 H 0.17529 0.80879 0.08215 0.0
H588 H 0.37668 0.24513 0.37101 0.0
H589 H 0.37532 0.23102 0.27047 0.0
H590 H 0.46442 0.23224 0.29084 0.0
H591 H 0.46568 0.24634 0.39112 0.0
H592 H 0.41968 0.2604 0.17972 0.0
H593 H 0.40199 0.14096 0.23472 0.0
H594 H 0.39699 0.16594 0.28574 0.0
H595 H 0.43626 0.17406 0.26647 0.0
C596 C 0.39616 0.24292 0.35346 0.0
C597 C 0.42098 0.24618 0.38845 0.0
C598 C 0.39533 0.23473 0.2964 0.0
C599 C 0.41937 0.22981 0.27381 0.0
C600 C 0.44524 0.23513 0.30794 0.0
H601 H 0.44824 0.16871 0.94291 0.0
H602 H 0.45179 0.18349 0.04365 0.0
C603 C 0.44602 0.24325 0.3649 0.0
C604 C 0.41686 0.21811 0.21511 0.0
H605 H 0.40883 0.15492 0.13746 0.0
C606 C 0.41724 0.23733 0.17039 0.0
C607 C 0.4137 0.18799 0.20333 0.0
C608 C 0.41192 0.16585 0.25003 0.0
C609 C 0.41494 0.22738 0.1139 0.0
C610 C 0.41158 0.19718 0.10213 0.0
C611 C 0.41139 0.17803 0.14681 0.0
C612 C 0.4079 0.18504 0.04352 0.0
C613 C 0.41664 0.24949 0.06721 0.0
C614 C 0.38141 0.17971 0.01122 0.0
C615 C 0.3794 0.17123 0.95425 0.0
C616 C 0.40378 0.16789 0.92887 0.0
C617 C 0.42925 0.17119 0.962 0.0
C618 C 0.43132 0.17976 0.01913 0.0
H619 H 0.42715 0.27449 0.08228 0.0
H620 H 0.431 0.24894 0.03092 0.0
H621 H 0.3922 0.24164 0.0517 0.0
H622 H 0.3627 0.18289 0.02974 0.0
H623 H 0.35926 0.16811 0.92945 0.0
H624 H 0.16985 0.50027 -0.00349 0.0
H625 H 0.16612 0.54314 0.04511 0.0
H626 H 0.18734 0.51419 0.20435 0.0
H627 H 0.19189 0.47207 0.15632 0.0
H628 H 0.12779 0.54231 0.13421 0.0
H629 H 0.25554 0.60762 0.19512 0.0
H630 H 0.23973 0.5756 0.14407 0.0
H631 H 0.2346 0.56695 0.21875 0.0
C632 C 0.17364 0.50304 0.04188 0.0
C633 C 0.18157 0.48309 0.07244 0.0
C634 C 0.17147 0.52747 0.06956 0.0
C635 C 0.17712 0.5322 0.1281 0.0
C636 C 0.18373 0.51147 0.15894 0.0
H637 H 0.18827 0.6783 0.36024 0.0
H638 H 0.18171 0.6281 0.32199 0.0
C639 C 0.18619 0.48732 0.13136 0.0
C640 C 0.17668 0.55911 0.15698 0.0
H641 H 0.22291 0.62649 0.23395 0.0
C642 C 0.14857 0.56075 0.15597 0.0
C643 C 0.20386 0.58308 0.18541 0.0
C644 C 0.23523 0.58349 0.18556 0.0
C645 C 0.14688 0.58572 0.18294 0.0
C646 C 0.17407 0.60966 0.21113 0.0
C647 C 0.20203 0.60783 0.21275 0.0
C648 C 0.17496 0.63822 0.23542 0.0
C649 C 0.11605 0.58631 0.18123 0.0
C650 C 0.17323 0.66026 0.19936 0.0
C651 C 0.17719 0.68882 0.22091 0.0
C652 C 0.18305 0.69592 0.27888 0.0
C653 C 0.18379 0.67339 0.31537 0.0
C654 C 0.18009 0.64482 0.29363 0.0
H655 H 0.09545 0.56246 0.17107 0.0
H656 H 0.11148 0.59447 0.22238 0.0
H657 H 0.1177 0.60325 0.14794 0.0
H658 H 0.16966 0.65575 0.15423 0.0
H659 H 0.17572 0.70536 0.19207 0.0
H660 H 0.70613 0.21601 0.44664 0.0
H661 H 0.65662 0.20616 0.49061 0.0
H662 H 0.60348 0.12566 0.37985 0.0
H663 H 0.65342 0.13613 0.33395 0.0
H664 H 0.57537 0.16023 0.38784 0.0
H665 H 0.60319 0.13977 0.60447 0.0
H666 H 0.63467 0.17723 0.57909 0.0
H667 H 0.6266 0.14081 0.54403 0.0
C668 C 0.68395 0.19609 0.43167 0.0
C669 C 0.68366 0.17666 0.38713 0.0
C670 C 0.65565 0.19029 0.4573 0.0
C671 C 0.62641 0.16452 0.43989 0.0
C672 C 0.62586 0.1454 0.39452 0.0
H673 H 0.46615 0.14305 0.65051 0.0
H674 H 0.50312 0.12931 0.60401 0.0
C675 C 0.65432 0.15146 0.36821 0.0
C676 C 0.59658 0.15915 0.46741 0.0
H677 H 0.56554 0.15922 0.59732 0.0
C678 C 0.57288 0.15931 0.43361 0.0
C679 C 0.59272 0.15693 0.52706 0.0
C680 C 0.61553 0.15328 0.56558 0.0
C681 C 0.54681 0.16 0.45805 0.0
C682 C 0.54504 0.16165 0.51779 0.0
C683 C 0.56728 0.15876 0.55152 0.0
C684 C 0.52216 0.16921 0.54573 0.0
C685 C 0.52178 0.15952 0.41944 0.0
C686 C 0.52128 0.19664 0.52958 0.0
C687 C 0.50016 0.20432 0.55557 0.0
C688 C 0.47991 0.18513 0.59924 0.0
C689 C 0.48154 0.15828 0.617 0.0
C690 C 0.5025 0.15034 0.59031 0.0
H691 H 0.51961 0.1461 0.37988 0.0
H692 H 0.49809 0.14856 0.44042 0.0
H693 H 0.52889 0.18433 0.40713 0.0
H694 H 0.5371 0.2123 0.49693 0.0
H695 H 0.49978 0.22542 0.54148 0.0
H696 H 0.26777 0.50828 0.89951 0.0
H697 H 0.31777 0.54638 0.85433 0.0
H698 H 0.36492 0.50098 0.93396 0.0
H699 H 0.31457 0.46285 0.98053 0.0
H700 H 0.40107 0.56478 0.93755 0.0
H701 H 0.35745 0.52906 0.71908 0.0
H702 H 0.3316 0.53894 0.75743 0.0
H703 H 0.33571 0.50559 0.77988 0.0
C704 C 0.28871 0.50626 0.90711 0.0
C705 C 0.28725 0.48232 0.94258 0.0
C706 C 0.31724 0.52795 0.88107 0.0
C707 C 0.34478 0.5258 0.88915 0.0
C708 C 0.34377 0.5027 0.92646 0.0
H709 H 0.50255 0.65602 0.66658 0.0
H710 H 0.46359 0.60621 0.71302 0.0
C711 C 0.31514 0.4811 0.95319 0.0
C712 C 0.37461 0.54852 0.85961 0.0
H713 H 0.40244 0.58263 0.73023 0.0
C714 C 0.40163 0.56831 0.89207 0.0
C715 C 0.37571 0.55251 0.80006 0.0
C716 C 0.34865 0.5301 0.76211 0.0
C717 C 0.42883 0.59358 0.86706 0.0
C718 C 0.42852 0.59971 0.80845 0.0
C719 C 0.40247 0.57838 0.77536 0.0
C720 C 0.45344 0.62954 0.7817 0.0
C721 C 0.45737 0.61372 0.90398 0.0
C722 C 0.46021 0.65908 0.80427 0.0
C723 C 0.48249 0.68738 0.77825 0.0
C724 C 0.49804 0.68678 0.7283 0.0
C725 C 0.49089 0.6572 0.70498 0.0
C726 C 0.46876 0.62878 0.73157 0.0
H727 H 0.45886 0.59944 0.93946 0.0
H728 H 0.47995 0.62418 0.87941 0.0
H729 H 0.45492 0.63339 0.92286 0.0
H730 H 0.44785 0.66032 0.84165 0.0
H731 H 0.48724 0.70976 0.79703 0.0
H732 H 0.77463 0.26148 0.17486 0.0
H733 H 0.78084 0.30963 0.13035 0.0
H734 H 0.81273 0.35995 0.28919 0.0
H735 H 0.8071 0.31175 0.33421 0.0
H736 H 0.74796 0.33936 0.16102 0.0
H737 H 0.87827 0.42284 0.17611 0.0
H738 H 0.86062 0.38031 0.18591 0.0
H739 H 0.85965 0.40478 0.24234 0.0
C740 C 0.78324 0.28283 0.20038 0.0
C741 C 0.79022 0.28279 0.25821 0.0
C742 C 0.78686 0.31035 0.17475 0.0
C743 C 0.79754 0.33839 0.2063 0.0
C744 C 0.80507 0.33869 0.26383 0.0
H745 H 0.76036 0.49043 0.14412 0.0
H746 H 0.76502 0.44576 0.17961 0.0
C747 C 0.80161 0.31111 0.28958 0.0
C748 C 0.79815 0.36635 0.17984 0.0
H749 H 0.84614 0.44536 0.14941 0.0
C750 C 0.76948 0.36247 0.15811 0.0
C751 C 0.82634 0.39633 0.17553 0.0
C752 C 0.85806 0.40136 0.19571 0.0
C753 C 0.76805 0.38799 0.13344 0.0
C754 C 0.79591 0.41828 0.13133 0.0
C755 C 0.82481 0.42207 0.15155 0.0
C756 C 0.79488 0.4465 0.11069 0.0
C757 C 0.73669 0.38237 0.10996 0.0
C758 C 0.81082 0.46213 0.0608 0.0
C759 C 0.80833 0.48793 0.04033 0.0
C760 C 0.79006 0.49848 0.06984 0.0
C761 C 0.7747 0.48302 0.1204 0.0
C762 C 0.77719 0.45737 0.14068 0.0
H763 H 0.72 0.35667 0.1016 0.0
H764 H 0.72527 0.39068 0.14122 0.0
H765 H 0.74033 0.3959 0.07001 0.0
H766 H 0.82466 0.45402 0.03727 0.0
H767 H 0.82053 0.49944 0.00139 0.0
H768 H 0.30765 0.79435 0.32053 0.0
H769 H 0.35533 0.79845 0.36534 0.0
H770 H 0.33157 0.82809 0.52172 0.0
H771 H 0.28376 0.82324 0.47764 0.0
H772 H 0.40821 0.84586 0.41966 0.0
H773 H 0.33303 0.74872 0.57017 0.0
H774 H 0.31662 0.75828 0.50978 0.0
H775 H 0.32639 0.78197 0.57324 0.0
C776 C 0.31293 0.80209 0.36423 0.0
C777 C 0.2918 0.80772 0.39622 0.0
C778 C 0.34005 0.80439 0.38978 0.0
C779 C 0.34641 0.81267 0.44731 0.0
C780 C 0.32651 0.82063 0.47786 0.0
H781 H 0.49284 0.81918 0.67318 0.0
H782 H 0.452 0.82873 0.63121 0.0
C783 C 0.29925 0.81786 0.45269 0.0
C784 C 0.37281 0.81139 0.47624 0.0
H785 H 0.38876 0.7746 0.58435 0.0
C786 C 0.40399 0.83034 0.4557 0.0
C787 C 0.36715 0.79096 0.52315 0.0
C788 C 0.33397 0.76859 0.5451 0.0
C789 C 0.42971 0.8294 0.48099 0.0
C790 C 0.42396 0.80903 0.52776 0.0
C791 C 0.39295 0.79046 0.54883 0.0
C792 C 0.44938 0.8046 0.55251 0.0
C793 C 0.46284 0.84997 0.45751 0.0
C794 C 0.46078 0.78744 0.52233 0.0
C795 C 0.4836 0.78158 0.54629 0.0
C796 C 0.49567 0.79299 0.60078 0.0
C797 C 0.4841 0.81016 0.63108 0.0
C798 C 0.46091 0.81574 0.60718 0.0
H799 H 0.46422 0.86868 0.42848 0.0
H800 H 0.48023 0.86158 0.49245 0.0
H801 H 0.46996 0.83478 0.43353 0.0
H802 H 0.45164 0.77818 0.48048 0.0
H803 H 0.49161 0.76789 0.5221 0.0
H804 H 0.71052 0.51497 0.85984 0.0
H805 H 0.6632 0.47315 0.81337 0.0
H806 H 0.61234 0.44945 0.97239 0.0
H807 H 0.65982 0.49184 0.0196 0.0
H808 H 0.63572 0.40921 0.84316 0.0
H809 H 0.54857 0.45183 0.85881 0.0
H810 H 0.59093 0.47799 0.86805 0.0
H811 H 0.56747 0.45158 0.92418 0.0
C812 C 0.68921 0.50115 0.88502 0.0
C813 C 0.68896 0.50654 0.94357 0.0
C814 C 0.66216 0.47731 0.85827 0.0
C815 C 0.63428 0.45839 0.88935 0.0
C816 C 0.63353 0.4642 0.94751 0.0
H817 H 0.48387 0.27 0.80552 0.0
H818 H 0.52576 0.31817 0.85032 0.0
C819 C 0.66068 0.48826 0.97445 0.0
C820 C 0.60721 0.43088 0.86144 0.0
H821 H 0.52904 0.3991 0.82422 0.0
C822 C 0.61243 0.40705 0.83886 0.0
C823 C 0.57698 0.42835 0.85563 0.0
C824 C 0.57056 0.45389 0.87748 0.0
C825 C 0.58808 0.38048 0.81115 0.0
C826 C 0.5577 0.37757 0.80641 0.0
C827 C 0.55245 0.40153 0.82824 0.0
C828 C 0.53098 0.34915 0.78022 0.0
C829 C 0.59497 0.35567 0.78695 0.0
C830 C 0.51988 0.35091 0.72626 0.0
C831 C 0.49598 0.32332 0.70018 0.0
C832 C 0.48283 0.29371 0.728 0.0
C833 C 0.49363 0.29236 0.78269 0.0
C834 C 0.5175 0.31983 0.80849 0.0
H835 H 0.62095 0.36432 0.78486 0.0
H836 H 0.58363 0.33407 0.81413 0.0
H837 H 0.58478 0.3486 0.74372 0.0
H838 H 0.53015 0.37346 0.70396 0.0
H839 H 0.48803 0.32515 0.6582 0.0
loop_
_geom_bond_atom_site_label_1
_geom_bond_atom_site_label_2
_geom_bond_distance
_geom_bond_site_symmetry_2
_ccdc_geom_bond_type
Zn0 O1 2.055 . S
Zn0 O8 2.046 . S
Zn0 N16 2.036 . S
Zn0 O28 2.053 . S
Zn0 O30 2.066 . S
O1 Zn0 2.055 . S
O1 C4 1.259 . S
C2 O30 1.256 . S
C2 O31 1.244 1_554 S
Zn3 O5 2.046 . S
Zn3 O7 2.055 . S
Zn3 N9 2.036 . S
Zn3 O27 2.066 . S
Zn3 O31 2.053 . S
C4 O1 1.259 . S
C4 O5 1.254 1_554 S
O5 Zn3 2.046 . S
O5 C4 1.254 1_556 S
C6 O27 1.256 . S
C6 O28 1.244 1_556 S
O7 Zn3 2.055 . S
O7 C29 1.259 . S
O8 Zn0 2.046 . S
O8 C29 1.254 1_554 S
N9 Zn3 2.036 . S
N9 C10 1.298 . S
N9 N12 1.398 . S
C10 N9 1.298 . S
C10 N13 1.367 . S
C10 C23 1.481 . S
C11 N12 1.299 . S
C11 N13 1.379 . S
N12 N9 1.398 . S
N12 C11 1.299 . S
N13 C10 1.367 . S
N13 C11 1.379 . S
C14 N16 1.298 . S
C14 N18 1.367 . S
C14 C22 1.481 . S
C15 N17 1.299 . S
C15 N18 1.379 . S
N16 Zn0 2.036 . S
N16 C14 1.298 . S
N16 N17 1.398 . S
N17 C15 1.299 . S
N17 N16 1.398 . S
N18 C14 1.367 . S
N18 C15 1.379 . S
H19 C22 0.980 . S
H20 C22 0.981 . S
H21 C22 0.981 . S
C22 C14 1.481 . S
C22 H19 0.980 . S
C22 H20 0.981 . S
C22 H21 0.981 . S
C23 C10 1.481 . S
C23 H24 0.980 . S
C23 H25 0.981 . S
C23 H26 0.981 . S
H24 C23 0.980 . S
H25 C23 0.981 . S
H26 C23 0.981 . S
O27 Zn3 2.066 . S
O27 C6 1.256 . S
O28 Zn0 2.053 . S
O28 C6 1.244 1_554 S
C29 O7 1.259 . S
C29 O8 1.254 1_556 S
O30 Zn0 2.066 . S
O30 C2 1.256 . S
O31 C2 1.244 1_556 S
O31 Zn3 2.053 . S
Zn32 O33 2.055 . S
Zn32 O40 2.046 . S
Zn32 N48 2.036 . S
Zn32 O60 2.053 . S
Zn32 O62 2.066 . S
O33 Zn32 2.055 . S
O33 C36 1.259 . S
C34 O62 1.256 . S
C34 O63 1.244 . S
Zn35 O37 2.046 . S
Zn35 O39 2.055 . S
Zn35 N41 2.036 . S
Zn35 O59 2.066 . S
Zn35 O63 2.053 . S
C36 O33 1.259 . S
C36 O37 1.254 . S
O37 Zn35 2.046 . S
O37 C36 1.254 . S
C38 O59 1.256 . S
C38 O60 1.244 . S
O39 Zn35 2.055 . S
O39 C61 1.259 . S
O40 Zn32 2.046 . S
O40 C61 1.254 . S
N41 Zn35 2.036 . S
N41 C42 1.298 . S
N41 N44 1.398 . S
C42 N41 1.298 . S
C42 N45 1.367 . S
C42 C55 1.481 . S
C43 N44 1.299 . S
C43 N45 1.379 . S
N44 N41 1.398 . S
N44 C43 1.299 . S
N45 C42 1.367 . S
N45 C43 1.379 . S
C46 N48 1.298 . S
C46 N50 1.367 . S
C46 C54 1.481 . S
C47 N49 1.299 . S
C47 N50 1.379 . S
N48 Zn32 2.036 . S
N48 C46 1.298 . S
N48 N49 1.398 . S
N49 C47 1.299 . S
N49 N48 1.398 . S
N50 C46 1.367 . S
N50 C47 1.379 . S
H51 C54 0.980 . S
H52 C54 0.981 . S
H53 C54 0.981 . S
C54 C46 1.481 . S
C54 H51 0.980 . S
C54 H52 0.981 . S
C54 H53 0.981 . S
C55 C42 1.481 . S
C55 H56 0.980 . S
C55 H57 0.981 . S
C55 H58 0.981 . S
H56 C55 0.980 . S
H57 C55 0.981 . S
H58 C55 0.981 . S
O59 Zn35 2.066 . S
O59 C38 1.256 . S
O60 Zn32 2.053 . S
O60 C38 1.244 . S
C61 O39 1.259 . S
C61 O40 1.254 . S
O62 Zn32 2.066 . S
O62 C34 1.256 . S
O63 C34 1.244 . S
O63 Zn35 2.053 . S
Zn64 O65 2.055 . S
Zn64 O72 2.046 . S
Zn64 N80 2.036 . S
Zn64 O92 2.053 . S
Zn64 O94 2.066 . S
O65 Zn64 2.055 . S
O65 C68 1.259 . S
C66 O94 1.256 . S
C66 O95 1.244 . S
Zn67 O69 2.046 . S
Zn67 O71 2.055 . S
Zn67 N73 2.036 . S
Zn67 O91 2.066 . S
Zn67 O95 2.053 . S
C68 O65 1.259 . S
C68 O69 1.254 . S
O69 Zn67 2.046 . S
O69 C68 1.254 . S
C70 O91 1.256 . S
C70 O92 1.244 . S
O71 Zn67 2.055 . S
O71 C93 1.259 . S
O72 Zn64 2.046 . S
O72 C93 1.254 . S
N73 Zn67 2.036 . S
N73 C74 1.298 . S
N73 N76 1.398 . S
C74 N73 1.298 . S
C74 N77 1.367 . S
C74 C87 1.481 . S
C75 N76 1.299 . S
C75 N77 1.379 . S
N76 N73 1.398 . S
N76 C75 1.299 . S
N77 C74 1.367 . S
N77 C75 1.379 . S
C78 N80 1.298 . S
C78 N82 1.367 . S
C78 C86 1.481 . S
C79 N81 1.299 . S
C79 N82 1.379 . S
N80 Zn64 2.036 . S
N80 C78 1.298 . S
N80 N81 1.398 . S
N81 C79 1.299 . S
N81 N80 1.398 . S
N82 C78 1.367 . S
N82 C79 1.379 . S
H83 C86 0.980 . S
H84 C86 0.981 . S
H85 C86 0.981 . S
C86 C78 1.481 . S
C86 H83 0.980 . S
C86 H84 0.981 . S
C86 H85 0.981 . S
C87 C74 1.481 . S
C87 H88 0.980 . S
C87 H89 0.981 . S
C87 H90 0.981 . S
H88 C87 0.980 . S
H89 C87 0.981 . S
H90 C87 0.981 . S
O91 Zn67 2.066 . S
O91 C70 1.256 . S
O92 Zn64 2.053 . S
O92 C70 1.244 . S
C93 O71 1.259 . S
C93 O72 1.254 . S
O94 Zn64 2.066 . S
O94 C66 1.256 . S
O95 C66 1.244 . S
O95 Zn67 2.053 . S
Zn96 O97 2.055 . S
Zn96 O104 2.046 . S
Zn96 N112 2.036 . S
Zn96 O124 2.053 . S
Zn96 O126 2.066 . S
O97 Zn96 2.055 . S
O97 C100 1.259 . S
C98 O126 1.256 . S
C98 O127 1.244 1_556 S
Zn99 O101 2.046 . S
Zn99 O103 2.055 . S
Zn99 N105 2.036 . S
Zn99 O123 2.066 . S
Zn99 O127 2.053 . S
C100 O97 1.259 . S
C100 O101 1.254 1_556 S
O101 Zn99 2.046 . S
O101 C100 1.254 1_554 S
C102 O123 1.256 . S
C102 O124 1.244 1_554 S
O103 Zn99 2.055 . S
O103 C125 1.259 . S
O104 Zn96 2.046 . S
O104 C125 1.254 1_556 S
N105 Zn99 2.036 . S
N105 C106 1.298 . S
N105 N108 1.398 . S
C106 N105 1.298 . S
C106 N109 1.367 . S
C106 C119 1.481 . S
C107 N108 1.299 . S
C107 N109 1.379 . S
N108 N105 1.398 . S
N108 C107 1.299 . S
N109 C106 1.367 . S
N109 C107 1.379 . S
C110 N112 1.298 . S
C110 N114 1.367 . S
C110 C118 1.481 . S
C111 N113 1.299 . S
C111 N114 1.379 . S
N112 Zn96 2.036 . S
N112 C110 1.298 . S
N112 N113 1.398 . S
N113 C111 1.299 . S
N113 N112 1.398 . S
N114 C110 1.367 . S
N114 C111 1.379 . S
H115 C118 0.980 . S
H116 C118 0.981 . S
H117 C118 0.981 . S
C118 C110 1.481 . S
C118 H115 0.980 . S
C118 H116 0.981 . S
C118 H117 0.981 . S
C119 C106 1.481 . S
C119 H120 0.980 . S
C119 H121 0.981 . S
C119 H122 0.981 . S
H120 C119 0.980 . S
H121 C119 0.981 . S
H122 C119 0.981 . S
O123 Zn99 2.066 . S
O123 C102 1.256 . S
O124 Zn96 2.053 . S
O124 C102 1.244 1_556 S
C125 O103 1.259 . S
C125 O104 1.254 1_554 S
O126 Zn96 2.066 . S
O126 C98 1.256 . S
O127 C98 1.244 1_554 S
O127 Zn99 2.053 . S
Zn128 O129 2.055 . S
Zn128 O136 2.046 . S
Zn128 N144 2.036 . S
Zn128 O156 2.053 . S
Zn128 O158 2.066 . S
O129 Zn128 2.055 . S
O129 C132 1.259 . S
C130 O158 1.256 . S
C130 O159 1.244 . S
Zn131 O133 2.046 . S
Zn131 O135 2.055 . S
Zn131 N137 2.036 . S
Zn131 O155 2.066 . S
Zn131 O159 2.053 . S
C132 O129 1.259 . S
C132 O133 1.254 . S
O133 Zn131 2.046 . S
O133 C132 1.254 . S
C134 O155 1.256 . S
C134 O156 1.244 . S
O135 Zn131 2.055 . S
O135 C157 1.259 . S
O136 Zn128 2.046 . S
O136 C157 1.254 . S
N137 Zn131 2.036 . S
N137 C138 1.298 . S
N137 N140 1.398 . S
C138 N137 1.298 . S
C138 N141 1.367 . S
C138 C151 1.481 . S
C139 N140 1.299 . S
C139 N141 1.379 . S
N140 N137 1.398 . S
N140 C139 1.299 . S
N141 C138 1.367 . S
N141 C139 1.379 . S
C142 N144 1.298 . S
C142 N146 1.367 . S
C142 C150 1.481 . S
C143 N145 1.299 . S
C143 N146 1.379 . S
N144 Zn128 2.036 . S
N144 C142 1.298 . S
N144 N145 1.398 . S
N145 C143 1.299 . S
N145 N144 1.398 . S
N146 C142 1.367 . S
N146 C143 1.379 . S
H147 C150 0.980 . S
H148 C150 0.981 . S
H149 C150 0.981 . S
C150 C142 1.481 . S
C150 H147 0.980 . S
C150 H148 0.981 . S
C150 H149 0.981 . S
C151 C138 1.481 . S
C151 H152 0.980 . S
C151 H153 0.981 . S
C151 H154 0.981 . S
H152 C151 0.980 . S
H153 C151 0.981 . S
H154 C151 0.981 . S
O155 Zn131 2.066 . S
O155 C134 1.256 . S
O156 Zn128 2.053 . S
O156 C134 1.244 . S
C157 O135 1.259 . S
C157 O136 1.254 . S
O158 Zn128 2.066 . S
O158 C130 1.256 . S
O159 C130 1.244 . S
O159 Zn131 2.053 . S
Zn160 O161 2.055 . S
Zn160 O168 2.046 . S
Zn160 N176 2.036 . S
Zn160 O188 2.053 . S
Zn160 O190 2.066 . S
O161 Zn160 2.055 . S
O161 C164 1.259 . S
C162 O190 1.256 . S
C162 O191 1.244 . S
Zn163 O165 2.046 . S
Zn163 O167 2.055 . S
Zn163 N169 2.036 . S
Zn163 O187 2.066 . S
Zn163 O191 2.053 . S
C164 O161 1.259 . S
C164 O165 1.254 . S
O165 Zn163 2.046 . S
O165 C164 1.254 . S
C166 O187 1.256 . S
C166 O188 1.244 . S
O167 Zn163 2.055 . S
O167 C189 1.259 . S
O168 Zn160 2.046 . S
O168 C189 1.254 . S
N169 Zn163 2.036 . S
N169 C170 1.298 . S
N169 N172 1.398 . S
C170 N169 1.298 . S
C170 N173 1.367 . S
C170 C183 1.481 . S
C171 N172 1.299 . S
C171 N173 1.379 . S
N172 N169 1.398 . S
N172 C171 1.299 . S
N173 C170 1.367 . S
N173 C171 1.379 . S
C174 N176 1.298 . S
C174 N178 1.367 . S
C174 C182 1.481 . S
C175 N177 1.299 . S
C175 N178 1.379 . S
N176 Zn160 2.036 . S
N176 C174 1.298 . S
N176 N177 1.398 . S
N177 C175 1.299 . S
N177 N176 1.398 . S
N178 C174 1.367 . S
N178 C175 1.379 . S
H179 C182 0.980 . S
H180 C182 0.981 . S
H181 C182 0.981 . S
C182 C174 1.481 . S
C182 H179 0.980 . S
C182 H180 0.981 . S
C182 H181 0.981 . S
C183 C170 1.481 . S
C183 H184 0.980 . S
C183 H185 0.981 . S
C183 H186 0.981 . S
H184 C183 0.980 . S
H185 C183 0.981 . S
H186 C183 0.981 . S
O187 Zn163 2.066 . S
O187 C166 1.256 . S
O188 Zn160 2.053 . S
O188 C166 1.244 . S
C189 O167 1.259 . S
C189 O168 1.254 . S
O190 Zn160 2.066 . S
O190 C162 1.256 . S
O191 C162 1.244 . S
O191 Zn163 2.053 . S
H192 C200 0.929 . S
H193 C202 0.930 . S
H194 C204 0.930 . S
H195 C207 0.929 . S
H196 C210 0.930 . S
H197 C212 0.960 . S
H198 C212 0.960 . S
H199 C212 0.960 . S
C200 H192 0.929 . S
C200 C201 1.377 . S
C200 C202 1.384 . S
C201 C200 1.377 . S
C201 C207 1.390 . S
C202 H193 0.930 . S
C202 C200 1.384 . S
C202 C203 1.372 . S
C203 C202 1.372 . S
C203 C204 1.400 . S
C203 C208 1.490 . S
C204 H194 0.930 . S
C204 C203 1.400 . S
C204 C207 1.386 . S
H205 C221 0.930 . S
H206 C222 0.931 . S
C207 H195 0.929 . S
C207 C201 1.390 . S
C207 C204 1.386 . S
C208 C203 1.490 . S
C208 C210 1.395 . S
C208 C211 1.403 . S
H209 C215 0.930 . S
C210 H196 0.930 . S
C210 C208 1.395 . S
C210 C213 1.403 . S
C211 C208 1.403 . S
C211 C212 1.524 . S
C211 C215 1.400 . S
C212 H197 0.960 . S
C212 H198 0.960 . S
C212 H199 0.960 . S
C212 C211 1.524 . S
C213 C210 1.403 . S
C213 C214 1.392 . S
C213 C217 1.495 . S
C214 C213 1.392 . S
C214 C215 1.385 . S
C214 C216 1.478 . S
C215 H209 0.930 . S
C215 C211 1.400 . S
C215 C214 1.385 . S
C216 C214 1.478 . S
C216 C218 1.381 . S
C216 C222 1.383 . S
C217 C213 1.495 . S
C217 H223 0.959 . S
C217 H224 0.961 . S
C217 H225 0.960 . S
C218 C216 1.381 . S
C218 C219 1.394 . S
C218 H226 0.930 . S
C219 C218 1.394 . S
C219 C220 1.383 . S
C219 H227 0.929 . S
C220 C219 1.383 . S
C220 C221 1.377 . S
C221 H205 0.930 . S
C221 C220 1.377 . S
C221 C222 1.379 . S
C222 H206 0.931 . S
C222 C216 1.383 . S
C222 C221 1.379 . S
H223 C217 0.959 . S
H224 C217 0.961 . S
H225 C217 0.960 . S
H226 C218 0.930 . S
H227 C219 0.929 . S
H228 C236 0.929 . S
H229 C238 0.930 . S
H230 C240 0.930 . S
H231 C243 0.929 . S
H232 C246 0.930 . S
H233 C248 0.960 . S
H234 C248 0.960 . S
H235 C248 0.960 . S
C236 H228 0.929 . S
C236 C237 1.377 . S
C236 C238 1.384 . S
C237 C236 1.377 . S
C237 C243 1.390 . S
C238 H229 0.930 . S
C238 C236 1.384 . S
C238 C239 1.372 . S
C239 C238 1.372 . S
C239 C240 1.400 . S
C239 C244 1.490 . S
C240 H230 0.930 . S
C240 C239 1.400 . S
C240 C243 1.386 . S
H241 C257 0.930 . S
H242 C258 0.931 . S
C243 H231 0.929 . S
C243 C237 1.390 . S
C243 C240 1.386 . S
C244 C239 1.490 . S
C244 C246 1.395 . S
C244 C247 1.403 . S
H245 C251 0.930 . S
C246 H232 0.930 . S
C246 C244 1.395 . S
C246 C249 1.403 1_455 S
C247 C244 1.403 . S
C247 C248 1.524 . S
C247 C251 1.400 1_455 S
C248 H233 0.960 . S
C248 H234 0.960 . S
C248 H235 0.960 . S
C248 C247 1.524 . S
C249 C246 1.403 1_655 S
C249 C250 1.392 . S
C249 C253 1.495 . S
C250 C249 1.392 . S
C250 C251 1.385 . S
C250 C252 1.478 . S
C251 H245 0.930 . S
C251 C247 1.400 1_655 S
C251 C250 1.385 . S
C252 C250 1.478 . S
C252 C254 1.381 . S
C252 C258 1.383 . S
C253 C249 1.495 . S
C253 H259 0.959 . S
C253 H260 0.961 . S
C253 H261 0.960 . S
C254 C252 1.381 . S
C254 C255 1.394 . S
C254 H262 0.930 . S
C255 C254 1.394 . S
C255 C256 1.383 . S
C255 H263 0.929 . S
C256 C255 1.383 . S
C256 C257 1.377 . S
C257 H241 0.930 . S
C257 C256 1.377 . S
C257 C258 1.379 . S
C258 H242 0.931 . S
C258 C252 1.383 . S
C258 C257 1.379 . S
H259 C253 0.959 . S
H260 C253 0.961 . S
H261 C253 0.960 . S
H262 C254 0.930 . S
H263 C255 0.929 . S
H264 C272 0.929 . S
H265 C274 0.930 . S
H266 C276 0.930 . S
H267 C279 0.929 . S
H268 C282 0.930 . S
H269 C284 0.960 1_565 S
H270 C284 0.960 . S
H271 C284 0.960 . S
C272 H264 0.929 . S
C272 C273 1.377 . S
C272 C274 1.384 . S
C273 C272 1.377 . S
C273 C279 1.390 . S
C274 H265 0.930 . S
C274 C272 1.384 . S
C274 C275 1.372 . S
C275 C274 1.372 . S
C275 C276 1.400 . S
C275 C280 1.490 . S
C276 H266 0.930 . S
C276 C275 1.400 . S
C276 C279 1.386 . S
H277 C293 0.930 . S
H278 C294 0.931 . S
C279 H267 0.929 . S
C279 C273 1.390 . S
C279 C276 1.386 . S
C280 C275 1.490 . S
C280 C282 1.395 . S
C280 C283 1.403 . S
H281 C287 0.930 . S
C282 H268 0.930 . S
C282 C280 1.395 . S
C282 C285 1.403 1_545 S
C283 C280 1.403 . S
C283 C284 1.524 . S
C283 C287 1.400 1_545 S
C284 H269 0.960 1_545 S
C284 H270 0.960 . S
C284 H271 0.960 . S
C284 C283 1.524 . S
C285 C282 1.403 1_565 S
C285 C286 1.392 . S
C285 C289 1.495 . S
C286 C285 1.392 . S
C286 C287 1.385 . S
C286 C288 1.478 . S
C287 H281 0.930 . S
C287 C283 1.400 1_565 S
C287 C286 1.385 . S
C288 C286 1.478 . S
C288 C290 1.381 . S
C288 C294 1.383 . S
C289 C285 1.495 . S
C289 H295 0.959 1_565 S
C289 H296 0.961 . S
C289 H297 0.960 . S
C290 C288 1.381 . S
C290 C291 1.394 . S
C290 H298 0.930 . S
C291 C290 1.394 . S
C291 C292 1.383 . S
C291 H299 0.929 . S
C292 C291 1.383 . S
C292 C293 1.377 . S
C293 H277 0.930 . S
C293 C292 1.377 . S
C293 C294 1.379 . S
C294 H278 0.931 . S
C294 C288 1.383 . S
C294 C293 1.379 . S
H295 C289 0.959 1_545 S
H296 C289 0.961 . S
H297 C289 0.960 . S
H298 C290 0.930 . S
H299 C291 0.929 . S
H300 C308 0.929 . S
H301 C310 0.930 . S
H302 C312 0.930 . S
H303 C315 0.929 . S
H304 C318 0.930 . S
H305 C320 0.960 . S
H306 C320 0.960 . S
H307 C320 0.960 . S
C308 H300 0.929 . S
C308 C309 1.377 . S
C308 C310 1.384 . S
C309 C308 1.377 . S
C309 C315 1.390 . S
C310 H301 0.930 . S
C310 C308 1.384 . S
C310 C311 1.372 . S
C311 C310 1.372 . S
C311 C312 1.400 . S
C311 C316 1.490 . S
C312 H302 0.930 . S
C312 C311 1.400 . S
C312 C315 1.386 . S
H313 C329 0.930 . S
H314 C330 0.931 . S
C315 H303 0.929 . S
C315 C309 1.390 . S
C315 C312 1.386 . S
C316 C311 1.490 . S
C316 C318 1.395 . S
C316 C319 1.403 . S
H317 C323 0.930 . S
C318 H304 0.930 . S
C318 C316 1.395 . S
C318 C321 1.403 . S
C319 C316 1.403 . S
C319 C320 1.524 . S
C319 C323 1.400 . S
C320 H305 0.960 . S
C320 H306 0.960 . S
C320 H307 0.960 . S
C320 C319 1.524 . S
C321 C318 1.403 . S
C321 C322 1.392 . S
C321 C325 1.495 . S
C322 C321 1.392 . S
C322 C323 1.385 . S
C322 C324 1.478 . S
C323 H317 0.930 . S
C323 C319 1.400 . S
C323 C322 1.385 . S
C324 C322 1.478 . S
C324 C326 1.381 . S
C324 C330 1.383 . S
C325 C321 1.495 . S
C325 H331 0.959 . S
C325 H332 0.961 . S
C325 H333 0.960 . S
C326 C324 1.381 . S
C326 C327 1.394 . S
C326 H334 0.930 . S
C327 C326 1.394 . S
C327 C328 1.383 . S
C327 H335 0.929 1_556 S
C328 C327 1.383 . S
C328 C329 1.377 . S
C329 H313 0.930 . S
C329 C328 1.377 . S
C329 C330 1.379 . S
C330 H314 0.931 . S
C330 C324 1.383 . S
C330 C329 1.379 . S
H331 C325 0.959 . S
H332 C325 0.961 . S
H333 C325 0.960 . S
H334 C326 0.930 . S
H335 C327 0.929 1_554 S
H336 C344 0.929 . S
H337 C346 0.930 . S
H338 C348 0.930 . S
H339 C351 0.929 . S
H340 C354 0.930 . S
H341 C356 0.960 . S
H342 C356 0.960 . S
H343 C356 0.960 . S
C344 H336 0.929 . S
C344 C345 1.377 . S
C344 C346 1.384 . S
C345 C344 1.377 . S
C345 C351 1.390 . S
C346 H337 0.930 . S
C346 C344 1.384 . S
C346 C347 1.372 . S
C347 C346 1.372 . S
C347 C348 1.400 . S
C347 C352 1.490 . S
C348 H338 0.930 . S
C348 C347 1.400 . S
C348 C351 1.386 . S
H349 C365 0.930 . S
H350 C366 0.931 . S
C351 H339 0.929 . S
C351 C345 1.390 . S
C351 C348 1.386 . S
C352 C347 1.490 . S
C352 C354 1.395 . S
C352 C355 1.403 . S
H353 C359 0.930 . S
C354 H340 0.930 . S
C354 C352 1.395 . S
C354 C357 1.403 1_455 S
C355 C352 1.403 . S
C355 C356 1.524 . S
C355 C359 1.400 1_455 S
C356 H341 0.960 . S
C356 H342 0.960 . S
C356 H343 0.960 . S
C356 C355 1.524 . S
C357 C354 1.403 1_655 S
C357 C358 1.392 . S
C357 C361 1.495 . S
C358 C357 1.392 . S
C358 C359 1.385 . S
C358 C360 1.478 . S
C359 H353 0.930 . S
C359 C355 1.400 1_655 S
C359 C358 1.385 . S
C360 C358 1.478 . S
C360 C362 1.381 . S
C360 C366 1.383 . S
C361 C357 1.495 . S
C361 H367 0.959 . S
C361 H368 0.961 . S
C361 H369 0.960 . S
C362 C360 1.381 . S
C362 C363 1.394 . S
C362 H370 0.930 . S
C363 C362 1.394 . S
C363 C364 1.383 . S
C363 H371 0.929 . S
C364 C363 1.383 . S
C364 C365 1.377 . S
C365 H349 0.930 . S
C365 C364 1.377 . S
C365 C366 1.379 . S
C366 H350 0.931 . S
C366 C360 1.383 . S
C366 C365 1.379 . S
H367 C361 0.959 . S
H368 C361 0.961 . S
H369 C361 0.960 . S
H370 C362 0.930 . S
H371 C363 0.929 . S
H372 C380 0.929 . S
H373 C382 0.930 . S
H374 C384 0.930 . S
H375 C387 0.929 . S
H376 C390 0.930 . S
H377 C392 0.960 . S
H378 C392 0.960 . S
H379 C392 0.960 . S
C380 H372 0.929 . S
C380 C381 1.377 . S
C380 C382 1.384 . S
C381 C380 1.377 . S
C381 C387 1.390 . S
C382 H373 0.930 . S
C382 C380 1.384 . S
C382 C383 1.372 . S
C383 C382 1.372 . S
C383 C384 1.400 . S
C383 C388 1.490 . S
C384 H374 0.930 . S
C384 C383 1.400 . S
C384 C387 1.386 . S
H385 C401 0.930 . S
H386 C402 0.931 . S
C387 H375 0.929 . S
C387 C381 1.390 . S
C387 C384 1.386 . S
C388 C383 1.490 . S
C388 C390 1.395 . S
C388 C391 1.403 . S
H389 C395 0.930 . S
C390 H376 0.930 . S
C390 C388 1.395 . S
C390 C393 1.403 1_545 S
C391 C388 1.403 . S
C391 C392 1.524 . S
C391 C395 1.400 1_545 S
C392 H377 0.960 . S
C392 H378 0.960 . S
C392 H379 0.960 . S
C392 C391 1.524 . S
C393 C390 1.403 1_565 S
C393 C394 1.392 . S
C393 C397 1.495 . S
C394 C393 1.392 . S
C394 C395 1.385 . S
C394 C396 1.478 . S
C395 H389 0.930 . S
C395 C391 1.400 1_565 S
C395 C394 1.385 . S
C396 C394 1.478 . S
C396 C398 1.381 . S
C396 C402 1.383 . S
C397 C393 1.495 . S
C397 H403 0.959 . S
C397 H404 0.961 . S
C397 H405 0.960 . S
C398 C396 1.381 . S
C398 C399 1.394 . S
C398 H406 0.930 . S
C399 C398 1.394 . S
C399 C400 1.383 . S
C399 H407 0.929 . S
C400 C399 1.383 . S
C400 C401 1.377 . S
C401 H385 0.930 . S
C401 C400 1.377 . S
C401 C402 1.379 . S
C402 H386 0.931 . S
C402 C396 1.383 . S
C402 C401 1.379 . S
H403 C397 0.959 . S
H404 C397 0.961 . S
H405 C397 0.960 . S
H406 C398 0.930 . S
H407 C399 0.929 . S
H408 C416 0.929 . S
H409 C418 0.930 . S
H410 C420 0.930 . S
H411 C423 0.929 . S
H412 C426 0.930 . S
H413 C428 0.960 . S
H414 C428 0.960 . S
H415 C428 0.960 . S
C416 H408 0.929 . S
C416 C417 1.377 . S
C416 C418 1.384 . S
C417 C416 1.377 . S
C417 C423 1.390 . S
C418 H409 0.930 . S
C418 C416 1.384 . S
C418 C419 1.372 . S
C419 C418 1.372 . S
C419 C420 1.400 . S
C419 C424 1.490 . S
C420 H410 0.930 . S
C420 C419 1.400 . S
C420 C423 1.386 . S
H421 C437 0.930 . S
H422 C438 0.931 . S
C423 H411 0.929 . S
C423 C417 1.390 . S
C423 C420 1.386 . S
C424 C419 1.490 . S
C424 C426 1.395 . S
C424 C427 1.403 . S
H425 C431 0.930 . S
C426 H412 0.930 . S
C426 C424 1.395 . S
C426 C429 1.403 . S
C427 C424 1.403 . S
C427 C428 1.524 . S
C427 C431 1.400 . S
C428 H413 0.960 . S
C428 H414 0.960 . S
C428 H415 0.960 . S
C428 C427 1.524 . S
C429 C426 1.403 . S
C429 C430 1.392 . S
C429 C433 1.495 . S
C430 C429 1.392 . S
C430 C431 1.385 . S
C430 C432 1.478 . S
C431 H425 0.930 . S
C431 C427 1.400 . S
C431 C430 1.385 . S
C432 C430 1.478 . S
C432 C434 1.381 . S
C432 C438 1.383 . S
C433 C429 1.495 . S
C433 H439 0.959 . S
C433 H440 0.961 . S
C433 H441 0.960 . S
C434 C432 1.381 . S
C434 C435 1.394 . S
C434 H442 0.930 . S
C435 C434 1.394 . S
C435 C436 1.383 . S
C435 H443 0.929 . S
C436 C435 1.383 . S
C436 C437 1.377 . S
C437 H421 0.930 . S
C437 C436 1.377 . S
C437 C438 1.379 . S
C438 H422 0.931 . S
C438 C432 1.383 . S
C438 C437 1.379 . S
H439 C433 0.959 . S
H440 C433 0.961 . S
H441 C433 0.960 . S
H442 C434 0.930 . S
H443 C435 0.929 . S
H444 C452 0.929 . S
H445 C454 0.930 . S
H446 C456 0.930 . S
H447 C459 0.929 . S
H448 C462 0.930 . S
H449 C464 0.960 . S
H450 C464 0.960 . S
H451 C464 0.960 . S
C452 H444 0.929 . S
C452 C453 1.377 . S
C452 C454 1.384 1_554 S
C453 C452 1.377 . S
C453 C459 1.390 . S
C454 H445 0.930 . S
C454 C452 1.384 1_556 S
C454 C455 1.372 . S
C455 C454 1.372 . S
C455 C456 1.400 . S
C455 C460 1.490 . S
C456 H446 0.930 . S
C456 C455 1.400 . S
C456 C459 1.386 1_556 S
H457 C473 0.930 . S
H458 C474 0.931 . S
C459 H447 0.929 . S
C459 C453 1.390 . S
C459 C456 1.386 1_554 S
C460 C455 1.490 . S
C460 C462 1.395 . S
C460 C463 1.403 . S
H461 C467 0.930 . S
C462 H448 0.930 . S
C462 C460 1.395 . S
C462 C465 1.403 . S
C463 C460 1.403 . S
C463 C464 1.524 . S
C463 C467 1.400 . S
C464 H449 0.960 . S
C464 H450 0.960 . S
C464 H451 0.960 . S
C464 C463 1.524 . S
C465 C462 1.403 . S
C465 C466 1.392 . S
C465 C469 1.495 . S
C466 C465 1.392 . S
C466 C467 1.385 . S
C466 C468 1.478 . S
C467 H461 0.930 . S
C467 C463 1.400 . S
C467 C466 1.385 . S
C468 C466 1.478 . S
C468 C470 1.381 . S
C468 C474 1.383 . S
C469 C465 1.495 . S
C469 H475 0.959 . S
C469 H476 0.961 . S
C469 H477 0.960 . S
C470 C468 1.381 . S
C470 C471 1.394 . S
C470 H478 0.930 . S
C471 C470 1.394 . S
C471 C472 1.383 . S
C471 H479 0.929 . S
C472 C471 1.383 . S
C472 C473 1.377 . S
C473 H457 0.930 . S
C473 C472 1.377 . S
C473 C474 1.379 . S
C474 H458 0.931 . S
C474 C468 1.383 . S
C474 C473 1.379 . S
H475 C469 0.959 . S
H476 C469 0.961 . S
H477 C469 0.960 . S
H478 C470 0.930 . S
H479 C471 0.929 . S
H480 C488 0.929 . S
H481 C490 0.930 . S
H482 C492 0.930 . S
H483 C495 0.929 . S
H484 C498 0.930 . S
H485 C500 0.960 . S
H486 C500 0.960 . S
H487 C500 0.960 . S
C488 H480 0.929 . S
C488 C489 1.377 . S
C488 C490 1.384 . S
C489 C488 1.377 . S
C489 C495 1.390 . S
C490 H481 0.930 . S
C490 C488 1.384 . S
C490 C491 1.372 . S
C491 C490 1.372 . S
C491 C492 1.400 . S
C491 C496 1.490 . S
C492 H482 0.930 . S
C492 C491 1.400 . S
C492 C495 1.386 . S
H493 C509 0.930 . S
H494 C510 0.931 . S
C495 H483 0.929 . S
C495 C489 1.390 . S
C495 C492 1.386 . S
C496 C491 1.490 . S
C496 C498 1.395 . S
C496 C499 1.403 . S
H497 C503 0.930 . S
C498 H484 0.930 . S
C498 C496 1.395 . S
C498 C501 1.403 . S
C499 C496 1.403 . S
C499 C500 1.524 . S
C499 C503 1.400 . S
C500 H485 0.960 . S
C500 H486 0.960 . S
C500 H487 0.960 . S
C500 C499 1.524 . S
C501 C498 1.403 . S
C501 C502 1.392 . S
C501 C505 1.495 . S
C502 C501 1.392 . S
C502 C503 1.385 . S
C502 C504 1.478 . S
C503 H497 0.930 . S
C503 C499 1.400 . S
C503 C502 1.385 . S
C504 C502 1.478 . S
C504 C506 1.381 . S
C504 C510 1.383 . S
C505 C501 1.495 . S
C505 H511 0.959 . S
C505 H512 0.961 . S
C505 H513 0.960 . S
C506 C504 1.381 . S
C506 C507 1.394 1_554 S
C506 H514 0.930 . S
C507 C506 1.394 1_556 S
C507 C508 1.383 . S
C507 H515 0.929 . S
C508 C507 1.383 . S
C508 C509 1.377 . S
C509 H493 0.930 . S
C509 C508 1.377 . S
C509 C510 1.379 1_556 S
C510 H494 0.931 . S
C510 C504 1.383 . S
C510 C509 1.379 1_554 S
H511 C505 0.959 . S
H512 C505 0.961 . S
H513 C505 0.960 . S
H514 C506 0.930 . S
H515 C507 0.929 . S
H516 C524 0.929 . S
H517 C526 0.930 . S
H518 C528 0.930 . S
H519 C531 0.929 . S
H520 C534 0.930 . S
H521 C536 0.960 . S
H522 C536 0.960 . S
H523 C536 0.960 . S
C524 H516 0.929 . S
C524 C525 1.377 . S
C524 C526 1.384 . S
C525 C524 1.377 . S
C525 C531 1.390 . S
C526 H517 0.930 . S
C526 C524 1.384 . S
C526 C527 1.372 . S
C527 C526 1.372 . S
C527 C528 1.400 . S
C527 C532 1.490 . S
C528 H518 0.930 . S
C528 C527 1.400 . S
C528 C531 1.386 . S
H529 C545 0.930 . S
H530 C546 0.931 . S
C531 H519 0.929 . S
C531 C525 1.390 . S
C531 C528 1.386 . S
C532 C527 1.490 . S
C532 C534 1.395 . S
C532 C535 1.403 . S
H533 C539 0.930 . S
C534 H520 0.930 . S
C534 C532 1.395 . S
C534 C537 1.403 . S
C535 C532 1.403 . S
C535 C536 1.524 . S
C535 C539 1.400 . S
C536 H521 0.960 . S
C536 H522 0.960 . S
C536 H523 0.960 . S
C536 C535 1.524 . S
C537 C534 1.403 . S
C537 C538 1.392 . S
C537 C541 1.495 . S
C538 C537 1.392 . S
C538 C539 1.385 . S
C538 C540 1.478 . S
C539 H533 0.930 . S
C539 C535 1.400 . S
C539 C538 1.385 . S
C540 C538 1.478 . S
C540 C542 1.381 . S
C540 C546 1.383 . S
C541 C537 1.495 . S
C541 H547 0.959 . S
C541 H548 0.961 . S
C541 H549 0.960 . S
C542 C540 1.381 . S
C542 C543 1.394 . S
C542 H550 0.930 . S
C543 C542 1.394 . S
C543 C544 1.383 . S
C543 H551 0.929 . S
C544 C543 1.383 . S
C544 C545 1.377 . S
C545 H529 0.930 . S
C545 C544 1.377 . S
C545 C546 1.379 . S
C546 H530 0.931 . S
C546 C540 1.383 . S
C546 C545 1.379 . S
H547 C541 0.959 . S
H548 C541 0.961 . S
H549 C541 0.960 . S
H550 C542 0.930 . S
H551 C543 0.929 . S
H552 C560 0.929 . S
H553 C562 0.930 . S
H554 C564 0.930 . S
H555 C567 0.929 . S
H556 C570 0.930 . S
H557 C572 0.960 . S
H558 C572 0.960 . S
H559 C572 0.960 . S
C560 H552 0.929 . S
C560 C561 1.377 . S
C560 C562 1.384 . S
C561 C560 1.377 . S
C561 C567 1.390 . S
C562 H553 0.930 . S
C562 C560 1.384 . S
C562 C563 1.372 . S
C563 C562 1.372 . S
C563 C564 1.400 . S
C563 C568 1.490 . S
C564 H554 0.930 . S
C564 C563 1.400 . S
C564 C567 1.386 . S
H565 C581 0.930 . S
H566 C582 0.931 . S
C567 H555 0.929 . S
C567 C561 1.390 . S
C567 C564 1.386 . S
C568 C563 1.490 . S
C568 C570 1.395 . S
C568 C571 1.403 . S
H569 C575 0.930 . S
C570 H556 0.930 . S
C570 C568 1.395 . S
C570 C573 1.403 . S
C571 C568 1.403 . S
C571 C572 1.524 . S
C571 C575 1.400 . S
C572 H557 0.960 . S
C572 H558 0.960 . S
C572 H559 0.960 . S
C572 C571 1.524 . S
C573 C570 1.403 . S
C573 C574 1.392 . S
C573 C577 1.495 . S
C574 C573 1.392 . S
C574 C575 1.385 . S
C574 C576 1.478 . S
C575 H569 0.930 . S
C575 C571 1.400 . S
C575 C574 1.385 . S
C576 C574 1.478 . S
C576 C578 1.381 1_556 S
C576 C582 1.383 . S
C577 C573 1.495 . S
C577 H583 0.959 . S
C577 H584 0.961 . S
C577 H585 0.960 . S
C578 C576 1.381 1_554 S
C578 C579 1.394 . S
C578 H586 0.930 1_554 S
C579 C578 1.394 . S
C579 C580 1.383 . S
C579 H587 0.929 . S
C580 C579 1.383 . S
C580 C581 1.377 . S
C581 H565 0.930 . S
C581 C580 1.377 . S
C581 C582 1.379 1_554 S
C582 H566 0.931 . S
C582 C576 1.383 . S
C582 C581 1.379 1_556 S
H583 C577 0.959 . S
H584 C577 0.961 . S
H585 C577 0.960 . S
H586 C578 0.930 1_556 S
H587 C579 0.929 . S
H588 C596 0.929 . S
H589 C598 0.930 . S
H590 C600 0.930 . S
H591 C603 0.929 . S
H592 C606 0.930 . S
H593 C608 0.960 . S
H594 C608 0.960 . S
H595 C608 0.960 . S
C596 H588 0.929 . S
C596 C597 1.377 . S
C596 C598 1.384 . S
C597 C596 1.377 . S
C597 C603 1.390 . S
C598 H589 0.930 . S
C598 C596 1.384 . S
C598 C599 1.372 . S
C599 C598 1.372 . S
C599 C600 1.400 . S
C599 C604 1.490 . S
C600 H590 0.930 . S
C600 C599 1.400 . S
C600 C603 1.386 . S
H601 C617 0.930 . S
H602 C618 0.931 . S
C603 H591 0.929 . S
C603 C597 1.390 . S
C603 C600 1.386 . S
C604 C599 1.490 . S
C604 C606 1.395 . S
C604 C607 1.403 . S
H605 C611 0.930 . S
C606 H592 0.930 . S
C606 C604 1.395 . S
C606 C609 1.403 . S
C607 C604 1.403 . S
C607 C608 1.524 . S
C607 C611 1.400 . S
C608 H593 0.960 . S
C608 H594 0.960 . S
C608 H595 0.960 . S
C608 C607 1.524 . S
C609 C606 1.403 . S
C609 C610 1.392 . S
C609 C613 1.495 . S
C610 C609 1.392 . S
C610 C611 1.385 . S
C610 C612 1.478 . S
C611 H605 0.930 . S
C611 C607 1.400 . S
C611 C610 1.385 . S
C612 C610 1.478 . S
C612 C614 1.381 . S
C612 C618 1.383 . S
C613 C609 1.495 . S
C613 H619 0.959 . S
C613 H620 0.961 . S
C613 H621 0.960 . S
C614 C612 1.381 . S
C614 C615 1.394 1_554 S
C614 H622 0.930 . S
C615 C614 1.394 1_556 S
C615 C616 1.383 . S
C615 H623 0.929 . S
C616 C615 1.383 . S
C616 C617 1.377 . S
C617 H601 0.930 . S
C617 C616 1.377 . S
C617 C618 1.379 1_556 S
C618 H602 0.931 . S
C618 C612 1.383 . S
C618 C617 1.379 1_554 S
H619 C613 0.959 . S
H620 C613 0.961 . S
H621 C613 0.960 . S
H622 C614 0.930 . S
H623 C615 0.929 . S
H624 C632 0.929 1_556 S
H625 C634 0.930 . S
H626 C636 0.930 . S
H627 C639 0.929 . S
H628 C642 0.930 . S
H629 C644 0.960 . S
H630 C644 0.960 . S
H631 C644 0.960 . S
C632 H624 0.929 1_554 S
C632 C633 1.377 . S
C632 C634 1.384 . S
C633 C632 1.377 . S
C633 C639 1.390 . S
C634 H625 0.930 . S
C634 C632 1.384 . S
C634 C635 1.372 . S
C635 C634 1.372 . S
C635 C636 1.400 . S
C635 C640 1.490 . S
C636 H626 0.930 . S
C636 C635 1.400 . S
C636 C639 1.386 . S
H637 C653 0.930 . S
H638 C654 0.931 . S
C639 H627 0.929 . S
C639 C633 1.390 . S
C639 C636 1.386 . S
C640 C635 1.490 . S
C640 C642 1.395 . S
C640 C643 1.403 . S
H641 C647 0.930 . S
C642 H628 0.930 . S
C642 C640 1.395 . S
C642 C645 1.403 . S
C643 C640 1.403 . S
C643 C644 1.524 . S
C643 C647 1.400 . S
C644 H629 0.960 . S
C644 H630 0.960 . S
C644 H631 0.960 . S
C644 C643 1.524 . S
C645 C642 1.403 . S
C645 C646 1.392 . S
C645 C649 1.495 . S
C646 C645 1.392 . S
C646 C647 1.385 . S
C646 C648 1.478 . S
C647 H641 0.930 . S
C647 C643 1.400 . S
C647 C646 1.385 . S
C648 C646 1.478 . S
C648 C650 1.381 . S
C648 C654 1.383 . S
C649 C645 1.495 . S
C649 H655 0.959 . S
C649 H656 0.961 . S
C649 H657 0.960 . S
C650 C648 1.381 . S
C650 C651 1.394 . S
C650 H658 0.930 . S
C651 C650 1.394 . S
C651 C652 1.383 . S
C651 H659 0.929 . S
C652 C651 1.383 . S
C652 C653 1.377 . S
C653 H637 0.930 . S
C653 C652 1.377 . S
C653 C654 1.379 . S
C654 H638 0.931 . S
C654 C648 1.383 . S
C654 C653 1.379 . S
H655 C649 0.959 . S
H656 C649 0.961 . S
H657 C649 0.960 . S
H658 C650 0.930 . S
H659 C651 0.929 . S
H660 C668 0.929 . S
H661 C670 0.930 . S
H662 C672 0.930 . S
H663 C675 0.929 . S
H664 C678 0.930 . S
H665 C680 0.960 . S
H666 C680 0.960 . S
H667 C680 0.960 . S
C668 H660 0.929 . S
C668 C669 1.377 . S
C668 C670 1.384 . S
C669 C668 1.377 . S
C669 C675 1.390 . S
C670 H661 0.930 . S
C670 C668 1.384 . S
C670 C671 1.372 . S
C671 C670 1.372 . S
C671 C672 1.400 . S
C671 C676 1.490 . S
C672 H662 0.930 . S
C672 C671 1.400 . S
C672 C675 1.386 . S
H673 C689 0.930 . S
H674 C690 0.931 . S
C675 H663 0.929 . S
C675 C669 1.390 . S
C675 C672 1.386 . S
C676 C671 1.490 . S
C676 C678 1.395 . S
C676 C679 1.403 . S
H677 C683 0.930 . S
C678 H664 0.930 . S
C678 C676 1.395 . S
C678 C681 1.403 . S
C679 C676 1.403 . S
C679 C680 1.524 . S
C679 C683 1.400 . S
C680 H665 0.960 . S
C680 H666 0.960 . S
C680 H667 0.960 . S
C680 C679 1.524 . S
C681 C678 1.403 . S
C681 C682 1.392 . S
C681 C685 1.495 . S
C682 C681 1.392 . S
C682 C683 1.385 . S
C682 C684 1.478 . S
C683 H677 0.930 . S
C683 C679 1.400 . S
C683 C682 1.385 . S
C684 C682 1.478 . S
C684 C686 1.381 . S
C684 C690 1.383 . S
C685 C681 1.495 . S
C685 H691 0.959 . S
C685 H692 0.961 . S
C685 H693 0.960 . S
C686 C684 1.381 . S
C686 C687 1.394 . S
C686 H694 0.930 . S
C687 C686 1.394 . S
C687 C688 1.383 . S
C687 H695 0.929 . S
C688 C687 1.383 . S
C688 C689 1.377 . S
C689 H673 0.930 . S
C689 C688 1.377 . S
C689 C690 1.379 . S
C690 H674 0.931 . S
C690 C684 1.383 . S
C690 C689 1.379 . S
H691 C685 0.959 . S
H692 C685 0.961 . S
H693 C685 0.960 . S
H694 C686 0.930 . S
H695 C687 0.929 . S
H696 C704 0.929 . S
H697 C706 0.930 . S
H698 C708 0.930 . S
H699 C711 0.929 . S
H700 C714 0.930 . S
H701 C716 0.960 . S
H702 C716 0.960 . S
H703 C716 0.960 . S
C704 H696 0.929 . S
C704 C705 1.377 . S
C704 C706 1.384 . S
C705 C704 1.377 . S
C705 C711 1.390 . S
C706 H697 0.930 . S
C706 C704 1.384 . S
C706 C707 1.372 . S
C707 C706 1.372 . S
C707 C708 1.400 . S
C707 C712 1.490 . S
C708 H698 0.930 . S
C708 C707 1.400 . S
C708 C711 1.386 . S
H709 C725 0.930 . S
H710 C726 0.931 . S
C711 H699 0.929 . S
C711 C705 1.390 . S
C711 C708 1.386 . S
C712 C707 1.490 . S
C712 C714 1.395 . S
C712 C715 1.403 . S
H713 C719 0.930 . S
C714 H700 0.930 . S
C714 C712 1.395 . S
C714 C717 1.403 . S
C715 C712 1.403 . S
C715 C716 1.524 . S
C715 C719 1.400 . S
C716 H701 0.960 . S
C716 H702 0.960 . S
C716 H703 0.960 . S
C716 C715 1.524 . S
C717 C714 1.403 . S
C717 C718 1.392 . S
C717 C721 1.495 . S
C718 C717 1.392 . S
C718 C719 1.385 . S
C718 C720 1.478 . S
C719 H713 0.930 . S
C719 C715 1.400 . S
C719 C718 1.385 . S
C720 C718 1.478 . S
C720 C722 1.381 . S
C720 C726 1.383 . S
C721 C717 1.495 . S
C721 H727 0.959 . S
C721 H728 0.961 . S
C721 H729 0.960 . S
C722 C720 1.381 . S
C722 C723 1.394 . S
C722 H730 0.930 . S
C723 C722 1.394 . S
C723 C724 1.383 . S
C723 H731 0.929 . S
C724 C723 1.383 . S
C724 C725 1.377 . S
C725 H709 0.930 . S
C725 C724 1.377 . S
C725 C726 1.379 . S
C726 H710 0.931 . S
C726 C720 1.383 . S
C726 C725 1.379 . S
H727 C721 0.959 . S
H728 C721 0.961 . S
H729 C721 0.960 . S
H730 C722 0.930 . S
H731 C723 0.929 . S
H732 C740 0.929 . S
H733 C742 0.930 . S
H734 C744 0.930 . S
H735 C747 0.929 . S
H736 C750 0.930 . S
H737 C752 0.960 . S
H738 C752 0.960 . S
H739 C752 0.960 . S
C740 H732 0.929 . S
C740 C741 1.377 . S
C740 C742 1.384 . S
C741 C740 1.377 . S
C741 C747 1.390 . S
C742 H733 0.930 . S
C742 C740 1.384 . S
C742 C743 1.372 . S
C743 C742 1.372 . S
C743 C744 1.400 . S
C743 C748 1.490 . S
C744 H734 0.930 . S
C744 C743 1.400 . S
C744 C747 1.386 . S
H745 C761 0.930 . S
H746 C762 0.931 . S
C747 H735 0.929 . S
C747 C741 1.390 . S
C747 C744 1.386 . S
C748 C743 1.490 . S
C748 C750 1.395 . S
C748 C751 1.403 . S
H749 C755 0.930 . S
C750 H736 0.930 . S
C750 C748 1.395 . S
C750 C753 1.403 . S
C751 C748 1.403 . S
C751 C752 1.524 . S
C751 C755 1.400 . S
C752 H737 0.960 . S
C752 H738 0.960 . S
C752 H739 0.960 . S
C752 C751 1.524 . S
C753 C750 1.403 . S
C753 C754 1.392 . S
C753 C757 1.495 . S
C754 C753 1.392 . S
C754 C755 1.385 . S
C754 C756 1.478 . S
C755 H749 0.930 . S
C755 C751 1.400 . S
C755 C754 1.385 . S
C756 C754 1.478 . S
C756 C758 1.381 . S
C756 C762 1.383 . S
C757 C753 1.495 . S
C757 H763 0.959 . S
C757 H764 0.961 . S
C757 H765 0.960 . S
C758 C756 1.381 . S
C758 C759 1.394 . S
C758 H766 0.930 . S
C759 C758 1.394 . S
C759 C760 1.383 . S
C759 H767 0.919 1_554 S
C760 C759 1.383 . S
C760 C761 1.377 . S
C761 H745 0.930 . S
C761 C760 1.377 . S
C761 C762 1.379 . S
C762 H746 0.931 . S
C762 C756 1.383 . S
C762 C761 1.379 . S
H763 C757 0.959 . S
H764 C757 0.961 . S
H765 C757 0.960 . S
H766 C758 0.930 . S
H767 C759 0.919 1_556 S
H768 C776 0.929 . S
H769 C778 0.930 . S
H770 C780 0.930 . S
H771 C783 0.929 . S
H772 C786 0.930 . S
H773 C788 0.960 . S
H774 C788 0.960 . S
H775 C788 0.960 . S
C776 H768 0.929 . S
C776 C777 1.377 . S
C776 C778 1.384 . S
C777 C776 1.377 . S
C777 C783 1.390 . S
C778 H769 0.930 . S
C778 C776 1.384 . S
C778 C779 1.372 . S
C779 C778 1.372 . S
C779 C780 1.400 . S
C779 C784 1.490 . S
C780 H770 0.930 . S
C780 C779 1.400 . S
C780 C783 1.386 . S
H781 C797 0.930 . S
H782 C798 0.931 . S
C783 H771 0.929 . S
C783 C777 1.390 . S
C783 C780 1.386 . S
C784 C779 1.490 . S
C784 C786 1.395 . S
C784 C787 1.403 . S
H785 C791 0.930 . S
C786 H772 0.930 . S
C786 C784 1.395 . S
C786 C789 1.403 . S
C787 C784 1.403 . S
C787 C788 1.524 . S
C787 C791 1.400 . S
C788 H773 0.960 . S
C788 H774 0.960 . S
C788 H775 0.960 . S
C788 C787 1.524 . S
C789 C786 1.403 . S
C789 C790 1.392 . S
C789 C793 1.495 . S
C790 C789 1.392 . S
C790 C791 1.385 . S
C790 C792 1.478 . S
C791 H785 0.930 . S
C791 C787 1.400 . S
C791 C790 1.385 . S
C792 C790 1.478 . S
C792 C794 1.381 . S
C792 C798 1.383 . S
C793 C789 1.495 . S
C793 H799 0.959 . S
C793 H800 0.961 . S
C793 H801 0.960 . S
C794 C792 1.381 . S
C794 C795 1.394 . S
C794 H802 0.930 . S
C795 C794 1.394 . S
C795 C796 1.383 . S
C795 H803 0.929 . S
C796 C795 1.383 . S
C796 C797 1.377 . S
C797 H781 0.930 . S
C797 C796 1.377 . S
C797 C798 1.379 . S
C798 H782 0.931 . S
C798 C792 1.383 . S
C798 C797 1.379 . S
H799 C793 0.959 . S
H800 C793 0.961 . S
H801 C793 0.960 . S
H802 C794 0.930 . S
H803 C795 0.929 . S
H804 C812 0.929 . S
H805 C814 0.930 . S
H806 C816 0.930 . S
H807 C819 0.929 . S
H808 C822 0.930 . S
H809 C824 0.960 . S
H810 C824 0.960 . S
H811 C824 0.960 . S
C812 H804 0.929 . S
C812 C813 1.377 . S
C812 C814 1.384 . S
C813 C812 1.377 . S
C813 C819 1.390 . S
C814 H805 0.930 . S
C814 C812 1.384 . S
C814 C815 1.372 . S
C815 C814 1.372 . S
C815 C816 1.400 . S
C815 C820 1.490 . S
C816 H806 0.930 . S
C816 C815 1.400 . S
C816 C819 1.386 . S
H817 C833 0.930 . S
H818 C834 0.931 . S
C819 H807 0.929 . S
C819 C813 1.390 . S
C819 C816 1.386 . S
C820 C815 1.490 . S
C820 C822 1.395 . S
C820 C823 1.403 . S
H821 C827 0.930 . S
C822 H808 0.930 . S
C822 C820 1.395 . S
C822 C825 1.403 . S
C823 C820 1.403 . S
C823 C824 1.524 . S
C823 C827 1.400 . S
C824 H809 0.960 . S
C824 H810 0.960 . S
C824 H811 0.960 . S
C824 C823 1.524 . S
C825 C822 1.403 . S
C825 C826 1.392 . S
C825 C829 1.495 . S
C826 C825 1.392 . S
C826 C827 1.385 . S
C826 C828 1.478 . S
C827 H821 0.930 . S
C827 C823 1.400 . S
C827 C826 1.385 . S
C828 C826 1.478 . S
C828 C830 1.381 . S
C828 C834 1.383 . S
C829 C825 1.495 . S
C829 H835 0.959 . S
C829 H836 0.961 . S
C829 H837 0.960 . S
C830 C828 1.381 . S
C830 C831 1.394 . S
C830 H838 0.930 . S
C831 C830 1.394 . S
C831 C832 1.383 . S
C831 H839 0.929 . S
C832 C831 1.383 . S
C832 C833 1.377 . S
C833 H817 0.930 . S
C833 C832 1.377 . S
C833 C834 1.379 . S
C834 H818 0.931 . S
C834 C828 1.383 . S
C834 C833 1.379 . S
H835 C829 0.959 . S
H836 C829 0.961 . S
H837 C829 0.960 . S
H838 C830 0.930 . S
H839 C831 0.929 . S
C201 C166 1.448 . S
C220 C6 1.455 . S
C237 C2 1.443 . S
C256 C34 1.429 . S
C273 C38 1.448 . S
C292 C70 1.455 . S
C309 C66 1.445 . S
C328 C98 1.435 . S
C345 C134 1.444 . S
C364 C102 1.432 . S
C381 C162 1.444 . S
C400 C130 1.440 . S
C417 N13 0.779 . S
C436 N18 0.770 . S
C453 N50 0.778 . S
C472 N45 0.783 . S
C489 N77 0.776 . S
C508 N82 0.780 . S
C525 N114 0.777 . S
C544 N109 0.774 . S
C561 N146 0.779 . S
C580 N141 0.768 . S
C597 N178 0.779 . S
C616 N173 0.772 . S
C633 C4 1.480 . S
C652 C157 1.498 . S
C669 C61 1.479 . S
C688 C164 1.460 . S
C705 C29 1.480 . S
C724 C68 1.459 . S
C741 C36 1.482 . S
C760 C125 1.456 . S
C777 C132 1.477 . S
C796 C93 1.480 . S
C813 C100 1.487 . S
C832 C189 1.484 . S
