# Generated by pormake.
# Topology rob, (6)-cn, num edge types: 1
# Building blocks:
#     Node 0, Type 0, BuildingBlock: FUNLAD_clean_sbu_0, # of connection points: 6
#     Node 1, Type 0, BuildingBlock: FUNLAD_clean_sbu_0, # of connection points: 6
#     Node 2, Type 0, BuildingBlock: FUNLAD_clean_sbu_0, # of connection points: 6
#     Node 3, Type 0, BuildingBlock: FUNLAD_clean_sbu_0, # of connection points: 6
#     Edge 4, Type (0, 0), BuildingBlock: EZIPEK_clean_linker_0, # of connection points: 2
#     Edge 5, Type (0, 0), BuildingBlock: EZIPEK_clean_linker_0, # of connection points: 2
#     Edge 6, Type (0, 0), BuildingBlock: EZIPEK_clean_linker_0, # of connection points: 2
#     Edge 7, Type (0, 0), BuildingBlock: EZIPEK_clean_linker_0, # of connection points: 2
#     Edge 8, Type (0, 0), BuildingBlock: EZIPEK_clean_linker_0, # of connection points: 2
#     Edge 9, Type (0, 0), BuildingBlock: EZIPEK_clean_linker_0, # of connection points: 2
#     Edge 10, Type (0, 0), BuildingBlock: EZIPEK_clean_linker_0, # of connection points: 2
#     Edge 11, Type (0, 0), BuildingBlock: EZIPEK_clean_linker_0, # of connection points: 2
#     Edge 12, Type (0, 0), BuildingBlock: EZIPEK_clean_linker_0, # of connection points: 2
#     Edge 13, Type (0, 0), BuildingBlock: EZIPEK_clean_linker_0, # of connection points: 2
#     Edge 14, Type (0, 0), BuildingBlock: EZIPEK_clean_linker_0, # of connection points: 2
#     Edge 15, Type (0, 0), BuildingBlock: EZIPEK_clean_linker_0, # of connection points: 2
# Relax obj value: 0.103
# Max RMSD: 0.146
# Mean RMSD: 0.146
data_MOF--net-rob--node1-FUNLAD_clean_sbu_0--edge1-EZIPEK_clean_linker_0
_symmetry_space_group_name_H-M    P1
_symmetry_Int_Tables_number       1
_symmetry_cell_setting            triclinic
loop_
_symmetry_equiv_pos_as_xyz
'x, y, z'
_cell_length_a     11.82906
_cell_length_b     33.109915
_cell_length_c     17.041398
_cell_angle_alpha  91.464756
_cell_angle_beta   90.190948
_cell_angle_gamma 89.725935
loop_
_atom_site_label
_atom_site_type_symbol
_atom_site_fract_x
_atom_site_fract_y
_atom_site_fract_z
_atom_type_partial_charge
C0 C 0.30438 0.25386 0.84596 0.0
N1 N 0.31507 0.36123 0.97921 0.0
C2 C 0.41962 0.36763 0.94887 0.0
C3 C 0.45997 0.40689 0.94114 0.0
C4 C 0.39222 0.43962 0.96562 0.0
C5 C 0.28495 0.4324 -0.00343 0.0
C6 C 0.24759 0.39269 0.00266 0.0
Zn7 Zn 0.25683 0.30359 -0.0092 0.0
C8 C 0.02513 0.29469 0.9283 0.0
N9 N 0.13982 0.1827 0.00733 0.0
C10 C 0.20678 0.15105 0.98424 0.0
C11 C 0.03421 0.17672 0.03629 0.0
C12 C -0.00827 0.13761 0.04206 0.0
C13 C 0.0587 0.10469 0.0174 0.0
C14 C 0.16742 0.11153 0.98858 0.0
Zn15 Zn 0.19919 0.24007 -0.00368 0.0
O16 O 0.30668 0.28889 0.87799 0.0
C17 C 0.43235 0.24877 0.05739 0.0
O18 O 0.26443 0.22459 0.88339 0.0
H19 H 0.98244 0.20233 0.05418 0.0
H20 H 0.47221 0.34229 0.93134 0.0
H21 H 0.29048 0.15649 0.96163 0.0
O22 O 0.41532 0.28497 0.03679 0.0
O23 O 0.35301 0.22343 0.04784 0.0
H24 H 0.16493 0.38699 0.02675 0.0
O25 O 0.13805 0.25621 0.10996 0.0
O26 O 0.20683 0.31765 0.10385 0.0
O27 O 0.04571 0.25799 0.9438 0.0
O28 O 0.09955 0.32102 0.94499 0.0
C29 C 0.15682 0.29072 0.14177 0.0
H30 H 0.54363 0.41171 0.91757 0.0
H31 H 0.23124 0.45721 0.01626 0.0
H32 H 0.90713 0.13307 0.06422 0.0
H33 H 0.22062 0.08656 0.96896 0.0
C34 C 0.93043 0.74858 0.91724 0.0
N35 N 0.81469 0.86155 0.00427 0.0
C36 C 0.92471 0.86842 0.02403 0.0
C37 C 0.96635 0.90782 0.02893 0.0
C38 C 0.89337 0.94035 0.01476 0.0
C39 C 0.77986 0.93258 -0.00363 0.0
C40 C 0.74242 0.89273 -0.00954 0.0
Zn41 Zn 0.75602 0.80364 -0.00978 0.0
C42 C 0.65236 0.78969 0.83867 0.0
N43 N 0.6392 0.68228 0.96538 0.0
C44 C 0.71188 0.6508 0.97525 0.0
C45 C 0.52759 0.6759 0.94985 0.0
C46 C 0.48455 0.63667 0.94644 0.0
C47 C 0.55778 0.60381 0.95705 0.0
C48 C 0.67305 0.61111 0.97014 0.0
Zn49 Zn 0.69877 0.73999 0.97903 0.0
O50 O 0.91363 0.78469 0.94181 0.0
C51 C 0.80787 0.75503 0.1299 0.0
O52 O 0.85111 0.72327 0.924 0.0
H53 H 0.47138 0.70127 0.94151 0.0
H54 H 0.98087 0.84334 0.03475 0.0
H55 H 0.79984 0.65645 0.98865 0.0
O56 O 0.80826 0.79006 0.10131 0.0
O57 O 0.76864 0.72547 0.08971 0.0
H58 H 0.65586 0.88675 0.97353 0.0
O59 O 0.54698 0.75817 0.03535 0.0
O60 O 0.5994 0.82129 0.03858 0.0
O61 O 0.63321 0.75529 0.86746 0.0
O62 O 0.70347 0.81661 0.87881 0.0
C63 C 0.52594 0.79489 0.05383 0.0
H64 H 0.05457 0.91291 0.04308 0.0
H65 H 0.72165 0.95709 0.98481 0.0
H66 H 0.39505 0.63198 0.93635 0.0
H67 H 0.73158 0.58635 0.97884 0.0
C68 C 0.44865 0.79537 0.55294 0.0
N69 N 0.32689 0.68541 0.46508 0.0
C70 C 0.43402 0.67821 0.439 0.0
C71 C 0.47632 0.63882 0.43408 0.0
C72 C 0.40756 0.60681 0.45641 0.0
C73 C 0.29678 0.61478 0.48134 0.0
C74 C 0.2577 0.65463 0.4851 0.0
Zn75 Zn 0.2732 0.74367 0.48089 0.0
C76 C 0.17036 0.75642 0.6397 0.0
N77 N 0.1588 0.86432 0.51856 0.0
C78 C 0.22306 0.89467 0.49039 0.0
C79 C 0.05676 0.87199 0.55275 0.0
C80 C 0.01439 0.9114 0.55774 0.0
C81 C 0.07789 0.94289 0.5272 0.0
C82 C 0.18381 0.93447 0.49403 0.0
Zn83 Zn 0.21262 0.80598 0.50329 0.0
O84 O 0.42709 0.75879 0.5345 0.0
C85 C 0.31471 0.79198 0.34327 0.0
O86 O 0.3726 0.82188 0.54322 0.0
H87 H 0.00697 0.84741 0.57459 0.0
H88 H 0.48767 0.70313 0.42362 0.0
H89 H 0.30385 0.88791 0.4636 0.0
O90 O 0.33854 0.75792 0.37142 0.0
O91 O 0.26104 0.81795 0.38507 0.0
H92 H 0.17299 0.6611 0.50569 0.0
O93 O 0.0524 0.78998 0.46415 0.0
O94 O 0.11681 0.73101 0.4236 0.0
O95 O 0.16536 0.79287 0.61848 0.0
O96 O 0.20854 0.72937 0.59258 0.0
C97 C 0.0392 0.75776 0.42398 0.0
H98 H 0.56237 0.63343 0.41477 0.0
H99 H 0.2421 0.59051 0.499 0.0
H100 H 0.93208 0.91716 0.58348 0.0
H101 H 0.23436 0.95833 0.4699 0.0
C102 C 0.81772 0.29253 0.63679 0.0
N103 N 0.82831 0.1854 0.507 0.0
C104 C 0.93818 0.17845 0.52686 0.0
C105 C 0.97894 0.13902 0.53229 0.0
C106 C 0.90529 0.10657 0.51852 0.0
C107 C 0.79181 0.11443 0.50001 0.0
C108 C 0.75502 0.15437 0.49392 0.0
Zn109 Zn 0.77432 0.24354 0.49479 0.0
C110 C 0.54052 0.25759 0.55501 0.0
N111 N 0.65827 0.36413 0.46844 0.0
C112 C 0.72712 0.39495 0.49217 0.0
C113 C 0.55248 0.37138 0.44022 0.0
C114 C 0.51126 0.41085 0.43673 0.0
C115 C 0.58037 0.44305 0.46132 0.0
C116 C 0.68995 0.43493 0.48845 0.0
Zn117 Zn 0.71222 0.30582 0.47915 0.0
O118 O 0.84143 0.2585 0.60515 0.0
C119 C 0.94802 0.29515 0.42634 0.0
O120 O 0.76356 0.3185 0.59762 0.0
H121 H 0.4993 0.34648 0.42129 0.0
H122 H -0.00529 0.20353 0.53788 0.0
H123 H 0.81056 0.38853 0.51484 0.0
O124 O 0.92754 0.25855 0.44157 0.0
O125 O 0.87153 0.32143 0.43883 0.0
H126 H 0.66819 0.16061 0.47804 0.0
O127 O 0.66224 0.29189 0.36325 0.0
O128 O 0.7082 0.2285 0.38217 0.0
O129 O 0.55276 0.2901 0.51887 0.0
O130 O 0.61851 0.23101 0.55181 0.0
C131 C 0.66849 0.25551 0.33802 0.0
H132 H 0.06697 0.13384 0.54681 0.0
H133 H 0.7331 0.0899 0.48907 0.0
H134 H 0.4263 0.41626 0.41538 0.0
H135 H 0.74519 0.45925 0.50776 0.0
C136 C 0.522 0.5399 0.02887 0.0
C137 C 0.51351 0.56184 0.95858 0.0
C138 C 0.41646 0.50448 0.89428 0.0
C139 C 0.43531 0.48148 0.9622 0.0
N140 N 0.52424 0.47444 0.08863 0.0
N141 N 0.4686 0.56317 0.82041 0.0
C142 C 0.4937 0.49833 0.02781 0.0
C143 C 0.46471 0.54368 0.89008 0.0
N144 N 0.55162 0.55923 0.09773 0.0
N145 N 0.35171 0.48896 0.83423 0.0
H146 H 0.50634 0.59131 0.81437 0.0
H147 H 0.4427 0.55014 0.76722 0.0
H148 H 0.31847 0.45982 0.83431 0.0
H149 H 0.32413 0.50578 0.787 0.0
H150 H 0.54856 0.54554 0.152 0.0
H151 H 0.56844 0.5901 0.10201 0.0
H152 H 0.58142 0.48375 0.13193 0.0
H153 H 0.50133 0.44414 0.09184 0.0
C154 C 0.48874 0.54862 0.52914 0.0
C155 C 0.45324 0.56509 0.45711 0.0
C156 C 0.51362 0.50331 0.38685 0.0
C157 C 0.53725 0.48523 0.45978 0.0
N158 N 0.52723 0.48811 0.60137 0.0
N159 N 0.41637 0.55668 0.31847 0.0
C160 C 0.51954 0.5072 0.53133 0.0
C161 C 0.46118 0.54201 0.38614 0.0
N162 N 0.49624 0.57282 0.59509 0.0
N163 N 0.54538 0.48423 0.31834 0.0
H164 H 0.37915 0.58523 0.3155 0.0
H165 H 0.40772 0.53934 0.26696 0.0
H166 H 0.586 0.4562 0.31628 0.0
H167 H 0.54097 0.4979 0.26417 0.0
H168 H 0.53623 0.5637 0.64625 0.0
H169 H 0.47264 0.60323 0.59638 0.0
H170 H 0.50359 0.50167 0.6547 0.0
H171 H 0.54703 0.45751 0.60561 0.0
C172 C 0.0229 0.04002 0.08709 0.0
C173 C 0.0136 0.06304 0.01831 0.0
C174 C 0.9367 1.00458 0.94594 0.0
C175 C 0.93619 0.98251 0.01628 0.0
N176 N 0.96075 0.98123 0.15684 0.0
N177 N 0.94064 0.07023 0.88712 0.0
C178 C 0.97455 1.00075 0.08784 0.0
C179 C 0.96409 0.04622 0.94919 0.0
N180 N 0.07934 0.05548 0.15116 0.0
N181 N 0.9164 0.98536 0.87534 0.0
H182 H 0.96227 0.10073 0.8861 0.0
H183 H 0.88986 0.06077 0.84017 0.0
H184 H 0.89951 0.95453 0.86988 0.0
H185 H 0.92732 0.99914 0.82161 0.0
H186 H 0.10012 0.03858 0.19988 0.0
H187 H 0.11281 0.08459 0.15334 0.0
H188 H 0.97755 0.99449 0.21158 0.0
H189 H 0.92337 0.95286 0.16009 0.0
C190 C 0.98448 0.04848 0.59404 0.0
C191 C 0.94784 0.06435 0.52152 0.0
C192 C 0.98388 0.99896 0.45568 0.0
C193 C 0.03119 0.98447 0.52617 0.0
N194 N 0.09051 0.99632 0.66019 0.0
N195 N 0.93311 0.05732 0.38043 0.0
C196 C 0.03555 1.00951 0.59485 0.0
C197 C 0.95283 0.04028 0.45148 0.0
N198 N 0.96706 0.07013 0.66233 0.0
N199 N 0.96585 0.97299 0.39329 0.0
H200 H 0.91269 0.08776 0.37441 0.0
H201 H 0.94742 0.04223 0.327 0.0
H202 H 0.98898 0.94254 0.3935 0.0
H203 H 0.91834 0.98075 0.34433 0.0
H204 H 0.98338 0.05881 0.71758 0.0
H205 H 0.92752 0.09836 0.66436 0.0
H206 H 0.10757 1.01468 0.70926 0.0
H207 H 0.12695 0.96764 0.66321 0.0
C208 C 0.6753 0.26933 0.19436 0.0
C209 C 0.63424 0.24544 0.25627 0.0
C210 C 0.52161 0.2069 0.16085 0.0
C211 C 0.5315 0.23897 0.10819 0.0
N212 N 0.64613 0.29307 0.0618 0.0
N213 N 0.5167 0.18996 0.29742 0.0
C214 C 0.61873 0.26764 0.1205 0.0
C215 C 0.55903 0.21305 0.23915 0.0
N216 N 0.76935 0.2926 0.20601 0.0
N217 N 0.47786 0.17075 0.13587 0.0
H218 H 0.53648 0.19438 0.35657 0.0
H219 H 0.45318 0.1687 0.28748 0.0
H220 H 0.45988 0.16468 0.07674 0.0
H221 H 0.47509 0.14554 0.17121 0.0
H222 H 0.80826 0.30869 0.16203 0.0
H223 H 0.81502 0.29282 0.25851 0.0
H224 H 0.69879 0.31797 0.06913 0.0
H225 H 0.6154 0.28862 0.00476 0.0
C226 C 0.35081 0.77429 0.1235 0.0
C227 C 0.43071 0.80457 0.10842 0.0
C228 C 0.40485 0.83417 0.23961 0.0
C229 C 0.34173 0.79958 0.26011 0.0
N230 N 0.23841 0.73962 0.21935 0.0
N231 N 0.47492 0.87448 0.13353 0.0
C232 C 0.30826 0.77074 0.20093 0.0
C233 C 0.43868 0.83834 0.16048 0.0
N234 N 0.31372 0.75024 0.06249 0.0
N235 N 0.4408 0.86124 0.2961 0.0
H236 H 0.48889 0.87886 0.07393 0.0
H237 H 0.47515 0.90103 0.16768 0.0
H238 H 0.42246 0.85868 0.35546 0.0
H239 H 0.49746 0.88437 0.28488 0.0
H240 H 0.25026 0.72879 0.06672 0.0
H241 H 0.33996 0.75497 0.00499 0.0
H242 H 0.22114 0.71511 0.1819 0.0
H243 H 0.19718 0.73807 0.27309 0.0
C244 C 0.66961 0.77087 0.69634 0.0
C245 C 0.62568 0.79726 0.75619 0.0
C246 C 0.53781 0.83814 0.65629 0.0
C247 C 0.54762 0.80495 0.60336 0.0
N248 N 0.65677 0.74763 0.55966 0.0
N249 N 0.51935 0.85766 0.79277 0.0
C250 C 0.6265 0.77401 0.61888 0.0
C251 C 0.56253 0.83208 0.73612 0.0
N252 N 0.75288 0.74372 0.71356 0.0
N253 N 0.50392 0.87484 0.63006 0.0
H254 H 0.53036 0.85337 0.85268 0.0
H255 H 0.46364 0.88112 0.78017 0.0
H256 H 0.49235 0.8798 0.57027 0.0
H257 H 0.5016 0.90084 0.66584 0.0
H258 H 0.79205 0.72493 0.67202 0.0
H259 H 0.78913 0.74201 0.7692 0.0
H260 H 0.70488 0.72163 0.56724 0.0
H261 H 0.63249 0.7525 0.50163 0.0
C262 C 0.49377 0.28336 0.68787 0.0
C263 C 0.46362 0.25805 0.62289 0.0
C264 C 0.31888 0.22709 0.70424 0.0
C265 C 0.36471 0.24814 0.77083 0.0
N266 N 0.52641 0.28261 0.82672 0.0
N267 N 0.35341 0.20255 0.57046 0.0
C268 C 0.46292 0.27151 0.76272 0.0
C269 C 0.37838 0.22848 0.63148 0.0
N270 N 0.5484 0.31919 0.67933 0.0
N271 N 0.2179 0.20759 0.70912 0.0
H272 H 0.39191 0.20463 0.51567 0.0
H273 H 0.29898 0.17811 0.5757 0.0
H274 H 0.17186 0.2064 0.76101 0.0
H275 H 0.17628 0.19515 0.66029 0.0
H276 H 0.56631 0.33862 0.72687 0.0
H277 H 0.55933 0.3327 0.62557 0.0
H278 H 0.6001 0.29956 0.82279 0.0
H279 H 0.51151 0.27103 0.88211 0.0
C280 C 0.96164 0.77465 0.21862 0.0
C281 C 0.86659 0.74985 0.2055 0.0
C282 C 0.87979 0.72855 0.34195 0.0
C283 C 0.96188 0.75897 0.35617 0.0
N284 N 0.04101 0.82209 0.31046 0.0
N285 N 0.72214 0.70709 0.25964 0.0
C286 C -0.01 0.78575 0.29568 0.0
C287 C 0.82155 0.72748 0.26838 0.0
N288 N 0.0251 0.78762 0.15741 0.0
N289 N 0.85655 0.70143 0.39856 0.0
H290 H 0.67608 0.7063 0.20744 0.0
H291 H 0.68114 0.69364 0.30621 0.0
H292 H 0.89366 0.70325 0.45422 0.0
H293 H 0.80497 0.67636 0.38874 0.0
H294 H 0.0971 0.80533 0.16521 0.0
H295 H 0.01306 0.77658 0.1001 0.0
H296 H 0.05697 0.84251 0.26625 0.0
H297 H 0.05111 0.83485 0.36632 0.0
C298 C 0.0364 0.33833 0.32753 0.0
C299 C 0.04661 0.30505 0.37704 0.0
C300 C 0.17299 0.27212 0.28244 0.0
C301 C 0.12942 0.29842 0.22477 0.0
N302 N 0.02039 0.35808 0.19291 0.0
N303 N 0.15785 0.24834 0.41622 0.0
C304 C 0.06366 0.33269 0.2475 0.0
C305 C 0.12746 0.27467 0.35943 0.0
N306 N 0.00046 0.37481 0.35712 0.0
N307 N 0.25815 0.2456 0.26364 0.0
H308 H 0.13256 0.25299 0.47445 0.0
H309 H 0.20737 0.22266 0.40651 0.0
H310 H 0.29593 0.24439 0.20845 0.0
H311 H 0.29727 0.22692 0.30374 0.0
H312 H -0.00226 0.40084 0.32402 0.0
H313 H 0.98802 0.37968 0.41727 0.0
H314 H 0.96279 0.38102 0.20709 0.0
H315 H 0.03338 0.35409 0.13276 0.0
C316 C 0.81074 0.2703 0.77639 0.0
C317 C 0.84343 0.29976 0.72117 0.0
C318 C 0.93661 0.33852 0.82682 0.0
C319 C 0.92966 0.30434 0.87449 0.0
N320 N 0.81395 0.24927 0.91248 0.0
N321 N 0.9382 0.36263 0.69428 0.0
C322 C 0.85141 0.27374 0.8548 0.0
C323 C 0.90382 0.33474 0.74681 0.0
N324 N 0.74331 0.2387 0.75339 0.0
N325 N 0.9711 0.3746 0.8588 0.0
H326 H 0.92018 0.36054 0.63447 0.0
H327 H -0.0069 0.38615 0.70903 0.0
H328 H 0.98499 0.37847 0.91904 0.0
H329 H 0.9704 0.40145 0.82822 0.0
H330 H 0.7279 0.21373 0.78752 0.0
H331 H 0.70235 0.2372 0.69924 0.0
H332 H 0.75088 0.22773 0.90487 0.0
H333 H 0.83912 0.25376 0.97088 0.0
C334 C 0.1753 0.76941 0.78506 0.0
C335 C 0.13449 0.74608 0.71977 0.0
C336 C 0.01949 0.70731 0.80904 0.0
C337 C 0.0296 0.73892 0.86585 0.0
N338 N 0.14506 0.79226 0.92023 0.0
N339 N 0.01511 0.69156 0.67035 0.0
C340 C 0.11769 0.76738 0.85805 0.0
C341 C 0.05788 0.71393 0.73196 0.0
N342 N 0.27006 0.79244 0.77735 0.0
N343 N 0.97477 0.67111 0.82895 0.0
H344 H 0.03479 0.69657 0.61192 0.0
H345 H 0.9511 0.67041 0.67702 0.0
H346 H 0.95658 0.66459 0.88713 0.0
H347 H 0.97173 0.6462 0.79033 0.0
H348 H 0.3088 0.80808 0.82375 0.0
H349 H 0.31635 0.7929 0.72535 0.0
H350 H 0.19837 0.81705 0.91663 0.0
H351 H 0.11373 0.78741 0.97637 0.0
loop_
_geom_bond_atom_site_label_1
_geom_bond_atom_site_label_2
_geom_bond_distance
_geom_bond_site_symmetry_2
_ccdc_geom_bond_type
C0 O16 1.251 . S
C0 O18 1.254 . S
N1 C2 1.333 1_554 S
N1 C6 1.307 . S
N1 Zn7 2.020 . S
C2 N1 1.333 1_556 S
C2 C3 1.379 . S
C2 H20 0.952 . S
C3 C2 1.379 . S
C3 C4 1.390 1_556 S
C3 H30 0.949 . S
C4 C3 1.390 1_554 S
C4 C5 1.357 . S
C5 C4 1.357 . S
C5 C6 1.370 . S
C5 H31 0.950 . S
C6 N1 1.307 . S
C6 C5 1.370 . S
C6 H24 0.948 . S
Zn7 N1 2.020 . S
Zn7 O16 2.039 1_554 S
Zn7 O22 2.034 . S
Zn7 O26 2.025 . S
Zn7 O28 2.024 1_554 S
C8 O27 1.246 . S
C8 O28 1.249 . S
N9 C10 1.307 . S
N9 C11 1.333 1_556 S
N9 Zn15 2.020 . S
C10 N9 1.307 . S
C10 C14 1.370 . S
C10 H21 0.948 . S
C11 N9 1.333 1_554 S
C11 C12 1.379 . S
C11 H19 0.952 . S
C12 C11 1.379 . S
C12 C13 1.390 1_554 S
C12 H32 0.949 1_455 S
C13 C12 1.390 1_556 S
C13 C14 1.357 . S
C14 C10 1.370 . S
C14 C13 1.357 . S
C14 H33 0.950 . S
Zn15 N9 2.020 . S
Zn15 O18 2.025 . S
Zn15 O23 2.024 1_556 S
Zn15 O25 2.039 1_556 S
Zn15 O27 2.034 . S
O16 C0 1.251 . S
O16 Zn7 2.039 1_556 S
C17 O22 1.246 . S
C17 O23 1.249 . S
O18 C0 1.254 . S
O18 Zn15 2.025 . S
H19 C11 0.952 . S
H20 C2 0.952 . S
H21 C10 0.948 . S
O22 Zn7 2.034 . S
O22 C17 1.246 . S
O23 Zn15 2.024 1_554 S
O23 C17 1.249 . S
H24 C6 0.948 . S
O25 Zn15 2.039 1_554 S
O25 C29 1.251 . S
O26 Zn7 2.025 . S
O26 C29 1.254 . S
O27 C8 1.246 . S
O27 Zn15 2.034 . S
O28 Zn7 2.024 1_556 S
O28 C8 1.249 . S
C29 O25 1.251 . S
C29 O26 1.254 . S
H30 C3 0.949 . S
H31 C5 0.950 . S
H32 C12 0.949 1_655 S
H33 C14 0.950 . S
C34 O50 1.251 . S
C34 O52 1.254 . S
N35 C36 1.333 1_554 S
N35 C40 1.307 . S
N35 Zn41 2.020 . S
C36 N35 1.333 1_556 S
C36 C37 1.379 . S
C36 H54 0.952 . S
C37 C36 1.379 . S
C37 C38 1.390 1_556 S
C37 H64 0.949 1_655 S
C38 C37 1.390 1_554 S
C38 C39 1.357 . S
C39 C38 1.357 . S
C39 C40 1.370 . S
C39 H65 0.950 . S
C40 N35 1.307 . S
C40 C39 1.370 . S
C40 H58 0.948 . S
Zn41 N35 2.020 . S
Zn41 O50 2.039 1_554 S
Zn41 O56 2.034 . S
Zn41 O60 2.025 . S
Zn41 O62 2.024 1_554 S
C42 O61 1.246 . S
C42 O62 1.249 . S
N43 C44 1.307 . S
N43 C45 1.333 1_556 S
N43 Zn49 2.020 . S
C44 N43 1.307 . S
C44 C48 1.370 . S
C44 H55 0.948 . S
C45 N43 1.333 1_554 S
C45 C46 1.379 . S
C45 H53 0.952 . S
C46 C45 1.379 . S
C46 C47 1.390 1_554 S
C46 H66 0.949 . S
C47 C46 1.390 1_556 S
C47 C48 1.357 . S
C48 C44 1.370 . S
C48 C47 1.357 . S
C48 H67 0.950 . S
Zn49 N43 2.020 . S
Zn49 O52 2.025 . S
Zn49 O57 2.024 1_556 S
Zn49 O59 2.039 1_556 S
Zn49 O61 2.034 . S
O50 C34 1.251 . S
O50 Zn41 2.039 1_556 S
C51 O56 1.246 . S
C51 O57 1.249 . S
O52 C34 1.254 . S
O52 Zn49 2.025 . S
H53 C45 0.952 . S
H54 C36 0.952 . S
H55 C44 0.948 . S
O56 Zn41 2.034 . S
O56 C51 1.246 . S
O57 Zn49 2.024 1_554 S
O57 C51 1.249 . S
H58 C40 0.948 . S
O59 Zn49 2.039 1_554 S
O59 C63 1.251 . S
O60 Zn41 2.025 . S
O60 C63 1.254 . S
O61 C42 1.246 . S
O61 Zn49 2.034 . S
O62 Zn41 2.024 1_556 S
O62 C42 1.249 . S
C63 O59 1.251 . S
C63 O60 1.254 . S
H64 C37 0.949 1_455 S
H65 C39 0.950 . S
H66 C46 0.949 . S
H67 C48 0.950 . S
C68 O84 1.251 . S
C68 O86 1.254 . S
N69 C70 1.333 . S
N69 C74 1.307 . S
N69 Zn75 2.020 . S
C70 N69 1.333 . S
C70 C71 1.379 . S
C70 H88 0.952 . S
C71 C70 1.379 . S
C71 C72 1.390 . S
C71 H98 0.949 . S
C72 C71 1.390 . S
C72 C73 1.357 . S
C73 C72 1.357 . S
C73 C74 1.370 . S
C73 H99 0.950 . S
C74 N69 1.307 . S
C74 C73 1.370 . S
C74 H92 0.948 . S
Zn75 N69 2.020 . S
Zn75 O84 2.039 . S
Zn75 O90 2.034 . S
Zn75 O94 2.025 . S
Zn75 O96 2.024 . S
C76 O95 1.246 . S
C76 O96 1.249 . S
N77 C78 1.307 . S
N77 C79 1.333 . S
N77 Zn83 2.020 . S
C78 N77 1.307 . S
C78 C82 1.370 . S
C78 H89 0.948 . S
C79 N77 1.333 . S
C79 C80 1.379 . S
C79 H87 0.952 . S
C80 C79 1.379 . S
C80 C81 1.390 . S
C80 H100 0.949 1_455 S
C81 C80 1.390 . S
C81 C82 1.357 . S
C82 C78 1.370 . S
C82 C81 1.357 . S
C82 H101 0.950 . S
Zn83 N77 2.020 . S
Zn83 O86 2.025 . S
Zn83 O91 2.024 . S
Zn83 O93 2.039 . S
Zn83 O95 2.034 . S
O84 C68 1.251 . S
O84 Zn75 2.039 . S
C85 O90 1.246 . S
C85 O91 1.249 . S
O86 C68 1.254 . S
O86 Zn83 2.025 . S
H87 C79 0.952 . S
H88 C70 0.952 . S
H89 C78 0.948 . S
O90 Zn75 2.034 . S
O90 C85 1.246 . S
O91 Zn83 2.024 . S
O91 C85 1.249 . S
H92 C74 0.948 . S
O93 Zn83 2.039 . S
O93 C97 1.251 . S
O94 Zn75 2.025 . S
O94 C97 1.254 . S
O95 C76 1.246 . S
O95 Zn83 2.034 . S
O96 Zn75 2.024 . S
O96 C76 1.249 . S
C97 O93 1.251 . S
C97 O94 1.254 . S
H98 C71 0.949 . S
H99 C73 0.950 . S
H100 C80 0.949 1_655 S
H101 C82 0.950 . S
C102 O118 1.251 . S
C102 O120 1.254 . S
N103 C104 1.333 . S
N103 C108 1.307 . S
N103 Zn109 2.020 . S
C104 N103 1.333 . S
C104 C105 1.379 . S
C104 H122 0.952 . S
C105 C104 1.379 . S
C105 C106 1.390 . S
C105 H132 0.949 1_655 S
C106 C105 1.390 . S
C106 C107 1.357 . S
C107 C106 1.357 . S
C107 C108 1.370 . S
C107 H133 0.950 . S
C108 N103 1.307 . S
C108 C107 1.370 . S
C108 H126 0.948 . S
Zn109 N103 2.020 . S
Zn109 O118 2.039 . S
Zn109 O124 2.034 . S
Zn109 O128 2.025 . S
Zn109 O130 2.024 . S
C110 O129 1.246 . S
C110 O130 1.249 . S
N111 C112 1.307 . S
N111 C113 1.333 . S
N111 Zn117 2.020 . S
C112 N111 1.307 . S
C112 C116 1.370 . S
C112 H123 0.948 . S
C113 N111 1.333 . S
C113 C114 1.379 . S
C113 H121 0.952 . S
C114 C113 1.379 . S
C114 C115 1.390 . S
C114 H134 0.949 . S
C115 C114 1.390 . S
C115 C116 1.357 . S
C116 C112 1.370 . S
C116 C115 1.357 . S
C116 H135 0.950 . S
Zn117 N111 2.020 . S
Zn117 O120 2.025 . S
Zn117 O125 2.024 . S
Zn117 O127 2.039 . S
Zn117 O129 2.034 . S
O118 C102 1.251 . S
O118 Zn109 2.039 . S
C119 O124 1.246 . S
C119 O125 1.249 . S
O120 C102 1.254 . S
O120 Zn117 2.025 . S
H121 C113 0.952 . S
H122 C104 0.952 . S
H123 C112 0.948 . S
O124 Zn109 2.034 . S
O124 C119 1.246 . S
O125 Zn117 2.024 . S
O125 C119 1.249 . S
H126 C108 0.948 . S
O127 Zn117 2.039 . S
O127 C131 1.251 . S
O128 Zn109 2.025 . S
O128 C131 1.254 . S
O129 C110 1.246 . S
O129 Zn117 2.034 . S
O130 Zn109 2.024 . S
O130 C110 1.249 . S
C131 O127 1.251 . S
C131 O128 1.254 . S
H132 C105 0.949 1_455 S
H133 C107 0.950 . S
H134 C114 0.949 . S
H135 C116 0.950 . S
C136 C137 1.363 . S
C136 C142 1.379 . S
C136 N144 1.356 . S
C137 C136 1.363 . S
C137 C143 1.363 1_554 S
C138 C139 1.362 1_556 S
C138 C143 1.379 . S
C138 N145 1.356 . S
C139 C138 1.362 1_554 S
C139 C142 1.364 . S
N140 C142 1.356 . S
N140 H152 0.984 . S
N140 H153 0.985 . S
N141 C143 1.356 . S
N141 H146 0.984 . S
N141 H147 0.985 . S
C142 C136 1.379 . S
C142 C139 1.364 . S
C142 N140 1.356 . S
C143 C137 1.363 1_556 S
C143 C138 1.379 . S
C143 N141 1.356 . S
N144 C136 1.356 . S
N144 H150 0.984 . S
N144 H151 0.984 . S
N145 C138 1.356 . S
N145 H148 0.984 . S
N145 H149 0.985 . S
H146 N141 0.984 . S
H147 N141 0.985 . S
H148 N145 0.984 . S
H149 N145 0.985 . S
H150 N144 0.984 . S
H151 N144 0.984 . S
H152 N140 0.984 . S
H153 N140 0.985 . S
C154 C155 1.363 . S
C154 C160 1.379 . S
C154 N162 1.356 . S
C155 C154 1.363 . S
C155 C161 1.363 . S
C156 C157 1.363 . S
C156 C161 1.379 . S
C156 N163 1.356 . S
C157 C156 1.363 . S
C157 C160 1.363 . S
N158 C160 1.356 . S
N158 H170 0.984 . S
N158 H171 0.985 . S
N159 C161 1.356 . S
N159 H164 0.984 . S
N159 H165 0.985 . S
C160 C154 1.379 . S
C160 C157 1.363 . S
C160 N158 1.356 . S
C161 C155 1.363 . S
C161 C156 1.379 . S
C161 N159 1.356 . S
N162 C154 1.356 . S
N162 H168 0.984 . S
N162 H169 0.984 . S
N163 C156 1.356 . S
N163 H166 0.984 . S
N163 H167 0.985 . S
H164 N159 0.984 . S
H165 N159 0.985 . S
H166 N163 0.984 . S
H167 N163 0.985 . S
H168 N162 0.984 . S
H169 N162 0.984 . S
H170 N158 0.984 . S
H171 N158 0.985 . S
C172 C173 1.363 . S
C172 C178 1.379 1_545 S
C172 N180 1.356 . S
C173 C172 1.363 . S
C173 C179 1.363 1_454 S
C174 C175 1.362 1_556 S
C174 C179 1.379 1_565 S
C174 N181 1.356 . S
C175 C174 1.362 1_554 S
C175 C178 1.364 1_655 S
N176 C178 1.356 1_655 S
N176 H188 0.984 1_655 S
N176 H189 0.985 . S
N177 C179 1.356 1_455 S
N177 H182 0.984 . S
N177 H183 0.985 1_455 S
C178 C172 1.379 1_565 S
C178 C175 1.364 1_455 S
C178 N176 1.356 1_455 S
C179 C173 1.363 1_656 S
C179 C174 1.379 1_545 S
C179 N177 1.356 1_655 S
N180 C172 1.356 . S
N180 H186 0.984 . S
N180 H187 0.984 . S
N181 C174 1.356 . S
N181 H184 0.984 . S
N181 H185 0.985 . S
H182 N177 0.984 . S
H183 N177 0.985 1_655 S
H184 N181 0.984 . S
H185 N181 0.985 . S
H186 N180 0.984 . S
H187 N180 0.984 . S
H188 N176 0.984 1_455 S
H189 N176 0.985 . S
C190 C191 1.363 1_455 S
C190 C196 1.379 1_545 S
C190 N198 1.356 1_455 S
C191 C190 1.363 1_655 S
C191 C197 1.363 . S
C192 C193 1.363 1_655 S
C192 C197 1.379 1_565 S
C192 N199 1.356 1_655 S
C193 C192 1.363 1_455 S
C193 C196 1.363 . S
N194 C196 1.356 . S
N194 H206 0.989 . S
N194 H207 0.985 . S
N195 C197 1.356 . S
N195 H200 0.984 . S
N195 H201 0.989 . S
C196 C190 1.379 1_565 S
C196 C193 1.363 . S
C196 N194 1.356 . S
C197 C191 1.363 . S
C197 C192 1.379 1_545 S
C197 N195 1.356 . S
N198 C190 1.356 1_655 S
N198 H204 0.984 1_655 S
N198 H205 0.984 . S
N199 C192 1.356 1_455 S
N199 H202 0.984 . S
N199 H203 0.985 1_455 S
H200 N195 0.984 . S
H201 N195 0.989 . S
H202 N199 0.984 . S
H203 N199 0.985 1_655 S
H204 N198 0.984 1_455 S
H205 N198 0.984 . S
H206 N194 0.989 . S
H207 N194 0.985 . S
C208 C209 1.363 . S
C208 C214 1.379 . S
C208 N216 1.356 . S
C209 C208 1.363 . S
C209 C215 1.363 . S
C210 C211 1.363 . S
C210 C215 1.379 . S
C210 N217 1.356 . S
C211 C210 1.363 . S
C211 C214 1.363 . S
N212 C214 1.356 . S
N212 H224 0.984 . S
N212 H225 0.985 . S
N213 C215 1.356 . S
N213 H218 0.984 . S
N213 H219 0.985 . S
C214 C208 1.379 . S
C214 C211 1.363 . S
C214 N212 1.356 . S
C215 C209 1.363 . S
C215 C210 1.379 . S
C215 N213 1.356 . S
N216 C208 1.356 . S
N216 H222 0.984 . S
N216 H223 0.984 . S
N217 C210 1.356 . S
N217 H220 0.984 . S
N217 H221 0.985 . S
H218 N213 0.984 . S
H219 N213 0.985 . S
H220 N217 0.984 . S
H221 N217 0.985 . S
H222 N216 0.984 . S
H223 N216 0.984 . S
H224 N212 0.984 . S
H225 N212 0.985 . S
C226 C227 1.363 . S
C226 C232 1.379 . S
C226 N234 1.356 . S
C227 C226 1.363 . S
C227 C233 1.363 . S
C228 C229 1.363 . S
C228 C233 1.379 . S
C228 N235 1.356 . S
C229 C228 1.363 . S
C229 C232 1.363 . S
N230 C232 1.356 . S
N230 H242 0.984 . S
N230 H243 0.985 . S
N231 C233 1.356 . S
N231 H236 0.984 . S
N231 H237 0.985 . S
C232 C226 1.379 . S
C232 C229 1.363 . S
C232 N230 1.356 . S
C233 C227 1.363 . S
C233 C228 1.379 . S
C233 N231 1.356 . S
N234 C226 1.356 . S
N234 H240 0.984 . S
N234 H241 0.984 . S
N235 C228 1.356 . S
N235 H238 0.984 . S
N235 H239 0.985 . S
H236 N231 0.984 . S
H237 N231 0.985 . S
H238 N235 0.984 . S
H239 N235 0.985 . S
H240 N234 0.984 . S
H241 N234 0.984 . S
H242 N230 0.984 . S
H243 N230 0.985 . S
C244 C245 1.363 . S
C244 C250 1.379 . S
C244 N252 1.356 . S
C245 C244 1.363 . S
C245 C251 1.363 . S
C246 C247 1.363 . S
C246 C251 1.379 . S
C246 N253 1.356 . S
C247 C246 1.363 . S
C247 C250 1.363 . S
N248 C250 1.356 . S
N248 H260 0.984 . S
N248 H261 0.985 . S
N249 C251 1.356 . S
N249 H254 0.984 . S
N249 H255 0.985 . S
C250 C244 1.379 . S
C250 C247 1.363 . S
C250 N248 1.356 . S
C251 C245 1.363 . S
C251 C246 1.379 . S
C251 N249 1.356 . S
N252 C244 1.356 . S
N252 H258 0.984 . S
N252 H259 0.984 . S
N253 C246 1.356 . S
N253 H256 0.984 . S
N253 H257 0.985 . S
H254 N249 0.984 . S
H255 N249 0.985 . S
H256 N253 0.984 . S
H257 N253 0.985 . S
H258 N252 0.984 . S
H259 N252 0.984 . S
H260 N248 0.984 . S
H261 N248 0.985 . S
C262 C263 1.363 . S
C262 C268 1.379 . S
C262 N270 1.356 . S
C263 C262 1.363 . S
C263 C269 1.363 . S
C264 C265 1.363 . S
C264 C269 1.379 . S
C264 N271 1.356 . S
C265 C264 1.363 . S
C265 C268 1.363 . S
N266 C268 1.356 . S
N266 H278 0.984 . S
N266 H279 0.985 . S
N267 C269 1.356 . S
N267 H272 0.984 . S
N267 H273 0.985 . S
C268 C262 1.379 . S
C268 C265 1.363 . S
C268 N266 1.356 . S
C269 C263 1.363 . S
C269 C264 1.379 . S
C269 N267 1.356 . S
N270 C262 1.356 . S
N270 H276 0.984 . S
N270 H277 0.984 . S
N271 C264 1.356 . S
N271 H274 0.984 . S
N271 H275 0.985 . S
H272 N267 0.984 . S
H273 N267 0.985 . S
H274 N271 0.984 . S
H275 N271 0.985 . S
H276 N270 0.984 . S
H277 N270 0.984 . S
H278 N266 0.984 . S
H279 N266 0.985 . S
C280 C281 1.363 1_455 S
C280 C286 1.379 . S
C280 N288 1.356 . S
C281 C280 1.363 1_655 S
C281 C287 1.363 . S
C282 C283 1.363 1_655 S
C282 C287 1.379 . S
C282 N289 1.356 . S
C283 C282 1.363 1_455 S
C283 C286 1.363 . S
N284 C286 1.356 . S
N284 H296 0.984 . S
N284 H297 0.985 . S
N285 C287 1.356 . S
N285 H290 0.984 . S
N285 H291 0.985 . S
C286 C280 1.379 . S
C286 C283 1.363 . S
C286 N284 1.356 . S
C287 C281 1.363 . S
C287 C282 1.379 . S
C287 N285 1.356 . S
N288 C280 1.356 . S
N288 H294 0.984 . S
N288 H295 0.984 . S
N289 C282 1.356 . S
N289 H292 0.984 . S
N289 H293 0.985 . S
H290 N285 0.984 . S
H291 N285 0.985 . S
H292 N289 0.984 . S
H293 N289 0.985 . S
H294 N288 0.984 . S
H295 N288 0.984 . S
H296 N284 0.984 . S
H297 N284 0.985 . S
C298 C299 1.363 . S
C298 C304 1.379 . S
C298 N306 1.356 . S
C299 C298 1.363 . S
C299 C305 1.363 1_655 S
C300 C301 1.363 . S
C300 C305 1.379 . S
C300 N307 1.356 . S
C301 C300 1.363 . S
C301 C304 1.363 1_455 S
N302 C304 1.356 . S
N302 H314 0.984 . S
N302 H315 0.987 . S
N303 C305 1.356 . S
N303 H308 0.984 1_455 S
N303 H309 0.985 . S
C304 C298 1.379 . S
C304 C301 1.363 1_655 S
C304 N302 1.356 . S
C305 C299 1.363 1_455 S
C305 C300 1.379 . S
C305 N303 1.356 . S
N306 C298 1.356 . S
N306 H312 0.984 . S
N306 H313 0.984 . S
N307 C300 1.356 . S
N307 H310 0.984 . S
N307 H311 0.985 . S
H308 N303 0.984 1_655 S
H309 N303 0.985 . S
H310 N307 0.984 . S
H311 N307 0.985 . S
H312 N306 0.984 . S
H313 N306 0.984 . S
H314 N302 0.984 . S
H315 N302 0.987 . S
C316 C317 1.363 . S
C316 C322 1.379 . S
C316 N324 1.356 . S
C317 C316 1.363 . S
C317 C323 1.363 1_655 S
C318 C319 1.363 . S
C318 C323 1.379 . S
C318 N325 1.356 . S
C319 C318 1.363 . S
C319 C322 1.363 1_455 S
N320 C322 1.356 . S
N320 H332 0.984 . S
N320 H333 0.985 1_655 S
N321 C323 1.356 . S
N321 H326 0.984 1_455 S
N321 H327 0.985 . S
C322 C316 1.379 . S
C322 C319 1.363 1_655 S
C322 N320 1.356 . S
C323 C317 1.363 1_455 S
C323 C318 1.379 . S
C323 N321 1.356 . S
N324 C316 1.356 . S
N324 H330 0.984 . S
N324 H331 0.984 . S
N325 C318 1.356 . S
N325 H328 0.984 . S
N325 H329 0.985 . S
H326 N321 0.984 1_655 S
H327 N321 0.985 . S
H328 N325 0.984 . S
H329 N325 0.985 . S
H330 N324 0.984 . S
H331 N324 0.984 . S
H332 N320 0.984 . S
H333 N320 0.985 1_455 S
C334 C335 1.363 . S
C334 C340 1.379 . S
C334 N342 1.356 . S
C335 C334 1.363 . S
C335 C341 1.363 1_455 S
C336 C337 1.363 . S
C336 C341 1.379 . S
C336 N343 1.356 . S
C337 C336 1.363 . S
C337 C340 1.363 1_655 S
N338 C340 1.356 . S
N338 H350 0.984 . S
N338 H351 0.985 . S
N339 C341 1.356 . S
N339 H344 0.980 1_655 S
N339 H345 0.985 . S
C340 C334 1.379 . S
C340 C337 1.363 1_455 S
C340 N338 1.356 . S
C341 C335 1.363 1_655 S
C341 C336 1.379 . S
C341 N339 1.356 . S
N342 C334 1.356 . S
N342 H348 0.984 . S
N342 H349 0.984 . S
N343 C336 1.356 . S
N343 H346 0.984 . S
N343 H347 0.985 . S
H344 N339 0.980 1_455 S
H345 N339 0.985 . S
H346 N343 0.984 . S
H347 N343 0.985 . S
H348 N342 0.984 . S
H349 N342 0.984 . S
H350 N338 0.984 . S
H351 N338 0.985 . S
C137 C47 1.646 1_554 S
C139 C4 1.646 . S
C155 C72 1.646 . S
C157 C115 1.646 . S
C173 C13 1.646 1_554 S
C175 C38 1.646 . S
C191 C106 1.646 . S
C193 C81 1.646 . S
C209 C131 1.180 . S
C211 C17 1.187 . S
C227 C63 1.180 . S
C229 C85 1.187 . S
C245 C42 1.187 . S
C247 C68 1.180 . S
C263 C110 1.187 . S
C265 C0 1.180 . S
C281 C51 1.187 . S
C283 C97 1.180 . S
C299 C119 1.187 . S
C301 C29 1.180 . S
C317 C102 1.180 . S
C319 C8 1.187 . S
C335 C76 1.187 . S
C337 C34 1.180 . S
