# Generated by pormake.
# Topology sod-e, (6)-cn, num edge types: 1
# Building blocks:
#     Node 0, Type 0, BuildingBlock: IZENUY_clean_sbu_0, # of connection points: 6
#     Node 1, Type 0, BuildingBlock: IZENUY_clean_sbu_0, # of connection points: 6
#     Node 2, Type 0, BuildingBlock: IZENUY_clean_sbu_0, # of connection points: 6
#     Node 3, Type 0, BuildingBlock: IZENUY_clean_sbu_0, # of connection points: 6
#     Node 4, Type 0, BuildingBlock: IZENUY_clean_sbu_0, # of connection points: 6
#     Node 5, Type 0, BuildingBlock: IZENUY_clean_sbu_0, # of connection points: 6
#     Node 6, Type 0, BuildingBlock: IZENUY_clean_sbu_0, # of connection points: 6
#     Node 7, Type 0, BuildingBlock: IZENUY_clean_sbu_0, # of connection points: 6
#     Node 8, Type 0, BuildingBlock: IZENUY_clean_sbu_0, # of connection points: 6
#     Node 9, Type 0, BuildingBlock: IZENUY_clean_sbu_0, # of connection points: 6
#     Node 10, Type 0, BuildingBlock: IZENUY_clean_sbu_0, # of connection points: 6
#     Node 11, Type 0, BuildingBlock: IZENUY_clean_sbu_0, # of connection points: 6
#     Node 12, Type 0, BuildingBlock: IZENUY_clean_sbu_0, # of connection points: 6
#     Node 13, Type 0, BuildingBlock: IZENUY_clean_sbu_0, # of connection points: 6
#     Node 14, Type 0, BuildingBlock: IZENUY_clean_sbu_0, # of connection points: 6
#     Node 15, Type 0, BuildingBlock: IZENUY_clean_sbu_0, # of connection points: 6
#     Node 16, Type 0, BuildingBlock: IZENUY_clean_sbu_0, # of connection points: 6
#     Node 17, Type 0, BuildingBlock: IZENUY_clean_sbu_0, # of connection points: 6
#     Node 18, Type 0, BuildingBlock: IZENUY_clean_sbu_0, # of connection points: 6
#     Node 19, Type 0, BuildingBlock: IZENUY_clean_sbu_0, # of connection points: 6
#     Node 20, Type 0, BuildingBlock: IZENUY_clean_sbu_0, # of connection points: 6
#     Node 21, Type 0, BuildingBlock: IZENUY_clean_sbu_0, # of connection points: 6
#     Node 22, Type 0, BuildingBlock: IZENUY_clean_sbu_0, # of connection points: 6
#     Node 23, Type 0, BuildingBlock: IZENUY_clean_sbu_0, # of connection points: 6
#     Edge 24, Type (0, 0), BuildingBlock: AJUNOK_clean_linker_0, # of connection points: 2
#     Edge 25, Type (0, 0), BuildingBlock: AJUNOK_clean_linker_0, # of connection points: 2
#     Edge 26, Type (0, 0), BuildingBlock: AJUNOK_clean_linker_0, # of connection points: 2
#     Edge 27, Type (0, 0), BuildingBlock: AJUNOK_clean_linker_0, # of connection points: 2
#     Edge 28, Type (0, 0), BuildingBlock: AJUNOK_clean_linker_0, # of connection points: 2
#     Edge 29, Type (0, 0), BuildingBlock: AJUNOK_clean_linker_0, # of connection points: 2
#     Edge 30, Type (0, 0), BuildingBlock: AJUNOK_clean_linker_0, # of connection points: 2
#     Edge 31, Type (0, 0), BuildingBlock: AJUNOK_clean_linker_0, # of connection points: 2
#     Edge 32, Type (0, 0), BuildingBlock: AJUNOK_clean_linker_0, # of connection points: 2
#     Edge 33, Type (0, 0), BuildingBlock: AJUNOK_clean_linker_0, # of connection points: 2
#     Edge 34, Type (0, 0), BuildingBlock: AJUNOK_clean_linker_0, # of connection points: 2
#     Edge 35, Type (0, 0), BuildingBlock: AJUNOK_clean_linker_0, # of connection points: 2
#     Edge 36, Type (0, 0), BuildingBlock: AJUNOK_clean_linker_0, # of connection points: 2
#     Edge 37, Type (0, 0), BuildingBlock: AJUNOK_clean_linker_0, # of connection points: 2
#     Edge 38, Type (0, 0), BuildingBlock: AJUNOK_clean_linker_0, # of connection points: 2
#     Edge 39, Type (0, 0), BuildingBlock: AJUNOK_clean_linker_0, # of connection points: 2
#     Edge 40, Type (0, 0), BuildingBlock: AJUNOK_clean_linker_0, # of connection points: 2
#     Edge 41, Type (0, 0), BuildingBlock: AJUNOK_clean_linker_0, # of connection points: 2
#     Edge 42, Type (0, 0), BuildingBlock: AJUNOK_clean_linker_0, # of connection points: 2
#     Edge 43, Type (0, 0), BuildingBlock: AJUNOK_clean_linker_0, # of connection points: 2
#     Edge 44, Type (0, 0), BuildingBlock: AJUNOK_clean_linker_0, # of connection points: 2
#     Edge 45, Type (0, 0), BuildingBlock: AJUNOK_clean_linker_0, # of connection points: 2
#     Edge 46, Type (0, 0), BuildingBlock: AJUNOK_clean_linker_0, # of connection points: 2
#     Edge 47, Type (0, 0), BuildingBlock: AJUNOK_clean_linker_0, # of connection points: 2
#     Edge 48, Type (0, 0), BuildingBlock: AJUNOK_clean_linker_0, # of connection points: 2
#     Edge 49, Type (0, 0), BuildingBlock: AJUNOK_clean_linker_0, # of connection points: 2
#     Edge 50, Type (0, 0), BuildingBlock: AJUNOK_clean_linker_0, # of connection points: 2
#     Edge 51, Type (0, 0), BuildingBlock: AJUNOK_clean_linker_0, # of connection points: 2
#     Edge 52, Type (0, 0), BuildingBlock: AJUNOK_clean_linker_0, # of connection points: 2
#     Edge 53, Type (0, 0), BuildingBlock: AJUNOK_clean_linker_0, # of connection points: 2
#     Edge 54, Type (0, 0), BuildingBlock: AJUNOK_clean_linker_0, # of connection points: 2
#     Edge 55, Type (0, 0), BuildingBlock: AJUNOK_clean_linker_0, # of connection points: 2
#     Edge 56, Type (0, 0), BuildingBlock: AJUNOK_clean_linker_0, # of connection points: 2
#     Edge 57, Type (0, 0), BuildingBlock: AJUNOK_clean_linker_0, # of connection points: 2
#     Edge 58, Type (0, 0), BuildingBlock: AJUNOK_clean_linker_0, # of connection points: 2
#     Edge 59, Type (0, 0), BuildingBlock: AJUNOK_clean_linker_0, # of connection points: 2
#     Edge 60, Type (0, 0), BuildingBlock: AJUNOK_clean_linker_0, # of connection points: 2
#     Edge 61, Type (0, 0), BuildingBlock: AJUNOK_clean_linker_0, # of connection points: 2
#     Edge 62, Type (0, 0), BuildingBlock: AJUNOK_clean_linker_0, # of connection points: 2
#     Edge 63, Type (0, 0), BuildingBlock: AJUNOK_clean_linker_0, # of connection points: 2
#     Edge 64, Type (0, 0), BuildingBlock: AJUNOK_clean_linker_0, # of connection points: 2
#     Edge 65, Type (0, 0), BuildingBlock: AJUNOK_clean_linker_0, # of connection points: 2
#     Edge 66, Type (0, 0), BuildingBlock: AJUNOK_clean_linker_0, # of connection points: 2
#     Edge 67, Type (0, 0), BuildingBlock: AJUNOK_clean_linker_0, # of connection points: 2
#     Edge 68, Type (0, 0), BuildingBlock: AJUNOK_clean_linker_0, # of connection points: 2
#     Edge 69, Type (0, 0), BuildingBlock: AJUNOK_clean_linker_0, # of connection points: 2
#     Edge 70, Type (0, 0), BuildingBlock: AJUNOK_clean_linker_0, # of connection points: 2
#     Edge 71, Type (0, 0), BuildingBlock: AJUNOK_clean_linker_0, # of connection points: 2
#     Edge 72, Type (0, 0), BuildingBlock: AJUNOK_clean_linker_0, # of connection points: 2
#     Edge 73, Type (0, 0), BuildingBlock: AJUNOK_clean_linker_0, # of connection points: 2
#     Edge 74, Type (0, 0), BuildingBlock: AJUNOK_clean_linker_0, # of connection points: 2
#     Edge 75, Type (0, 0), BuildingBlock: AJUNOK_clean_linker_0, # of connection points: 2
#     Edge 76, Type (0, 0), BuildingBlock: AJUNOK_clean_linker_0, # of connection points: 2
#     Edge 77, Type (0, 0), BuildingBlock: AJUNOK_clean_linker_0, # of connection points: 2
#     Edge 78, Type (0, 0), BuildingBlock: AJUNOK_clean_linker_0, # of connection points: 2
#     Edge 79, Type (0, 0), BuildingBlock: AJUNOK_clean_linker_0, # of connection points: 2
#     Edge 80, Type (0, 0), BuildingBlock: AJUNOK_clean_linker_0, # of connection points: 2
#     Edge 81, Type (0, 0), BuildingBlock: AJUNOK_clean_linker_0, # of connection points: 2
#     Edge 82, Type (0, 0), BuildingBlock: AJUNOK_clean_linker_0, # of connection points: 2
#     Edge 83, Type (0, 0), BuildingBlock: AJUNOK_clean_linker_0, # of connection points: 2
#     Edge 84, Type (0, 0), BuildingBlock: AJUNOK_clean_linker_0, # of connection points: 2
#     Edge 85, Type (0, 0), BuildingBlock: AJUNOK_clean_linker_0, # of connection points: 2
#     Edge 86, Type (0, 0), BuildingBlock: AJUNOK_clean_linker_0, # of connection points: 2
#     Edge 87, Type (0, 0), BuildingBlock: AJUNOK_clean_linker_0, # of connection points: 2
#     Edge 88, Type (0, 0), BuildingBlock: AJUNOK_clean_linker_0, # of connection points: 2
#     Edge 89, Type (0, 0), BuildingBlock: AJUNOK_clean_linker_0, # of connection points: 2
#     Edge 90, Type (0, 0), BuildingBlock: AJUNOK_clean_linker_0, # of connection points: 2
#     Edge 91, Type (0, 0), BuildingBlock: AJUNOK_clean_linker_0, # of connection points: 2
#     Edge 92, Type (0, 0), BuildingBlock: AJUNOK_clean_linker_0, # of connection points: 2
#     Edge 93, Type (0, 0), BuildingBlock: AJUNOK_clean_linker_0, # of connection points: 2
#     Edge 94, Type (0, 0), BuildingBlock: AJUNOK_clean_linker_0, # of connection points: 2
#     Edge 95, Type (0, 0), BuildingBlock: AJUNOK_clean_linker_0, # of connection points: 2
# Relax obj value: 0.473
# Max RMSD: 0.285
# Mean RMSD: 0.284
data_MOF--net-sod-e--node1-IZENUY_clean_sbu_0--edge1-AJUNOK_clean_linker_0
_symmetry_space_group_name_H-M    P1
_symmetry_Int_Tables_number       1
_symmetry_cell_setting            triclinic
loop_
_symmetry_equiv_pos_as_xyz
'x, y, z'
_cell_length_a     37.708192
_cell_length_b     37.87384
_cell_length_c     37.685456
_cell_angle_alpha  90.50708
_cell_angle_beta   89.98271
_cell_angle_gamma 89.704893
loop_
_atom_site_label
_atom_site_type_symbol
_atom_site_fract_x
_atom_site_fract_y
_atom_site_fract_z
_atom_type_partial_charge
Fe0 Fe 0.97161 0.30471 0.3182 0.0
Fe1 Fe 0.92283 0.35061 0.3653 0.0
O2 O 0.96599 0.33855 0.35018 0.0
Fe3 Fe 0.00279 0.36164 0.36668 0.0
O4 O 0.0146 0.37681 0.3237 0.0
O5 O 0.0101 0.32587 0.2957 0.0
O6 O 0.94345 0.32904 0.28734 0.0
C7 C 0.9124 0.33995 0.29383 0.0
C8 C 0.0287 0.29169 0.36181 0.0
O9 O 0.90001 0.33723 0.32461 0.0
C10 C 0.96467 0.3556 0.42629 0.0
O11 O 0.93422 0.27792 0.3364 0.0
O12 O 0.91711 0.30839 0.38394 0.0
O13 O 0.0338 0.32454 0.36406 0.0
O14 O 0.00109 0.27946 0.34708 0.0
C15 C 0.95241 0.41364 0.35372 0.0
O16 O 0.93745 0.36547 0.40944 0.0
O17 O -0.00705 0.34772 0.41063 0.0
C18 C 0.91804 0.28024 0.36623 0.0
O19 O 0.92686 0.39379 0.34665 0.0
O20 O 0.97838 0.40289 0.37193 0.0
C21 C 0.02246 0.35708 0.29806 0.0
Fe22 Fe 0.62604 0.05717 0.36845 0.0
Fe23 Fe 0.61934 0.977 0.37273 0.0
O24 O 0.63892 0.0143 0.35337 0.0
Fe25 Fe 0.67142 0.00963 0.31979 0.0
O26 O 0.70344 0.03354 0.34704 0.0
O27 O 0.6682 0.07789 0.35782 0.0
O28 O 0.64352 0.04871 0.41193 0.0
C29 C 0.63576 0.02187 0.42959 0.0
C30 C 0.62654 0.06711 0.29766 0.0
O31 O 0.61643 -0.00237 0.41677 0.0
C32 C 0.625 0.95724 0.30012 0.0
O33 O 0.581 0.04493 0.38172 0.0
O34 O 0.57611 -0.00842 0.35963 0.0
O35 O 0.65588 0.04995 0.29557 0.0
O36 O 0.60848 0.06724 0.32575 0.0
C37 C 0.6871 0.95298 0.36775 0.0
O38 O 0.62 0.95007 0.33239 0.0
O39 O 0.64187 0.98453 0.29116 0.0
C40 C 0.56224 0.02004 0.36982 0.0
O41 O 0.66073 0.95951 0.38689 0.0
O42 O 0.69149 0.96852 0.3382 0.0
C43 C 0.69825 0.06364 0.3606 0.0
Fe44 Fe 0.93236 0.62737 0.35462 0.0
Fe45 Fe 0.97832 0.66769 0.3013 0.0
O46 O 0.97398 0.63591 0.3349 0.0
Fe47 Fe 0.01105 0.61179 0.34921 0.0
O48 O 0.9856 0.57276 0.36015 0.0
O49 O 0.93284 0.58265 0.33831 0.0
O50 O 0.90627 0.63843 0.3154 0.0
C51 C 0.91563 0.63518 0.28341 0.0
C52 C 0.97968 0.62538 0.41174 0.0
O53 O 0.94624 0.64445 0.27379 0.0
C54 C 0.03939 0.67899 0.33924 0.0
O55 O 0.93032 0.67126 0.37139 0.0
O56 O 0.94383 0.69785 0.32127 0.0
O57 O 0.00676 0.63016 0.39303 0.0
O58 O 0.95092 0.61506 0.39787 0.0
C59 C 0.02243 0.60971 0.27864 0.0
O60 O 0.01116 0.69227 0.32689 0.0
O61 O 0.04353 0.64603 0.34037 0.0
C62 C 0.93178 0.69869 0.35304 0.0
O63 O 0.01356 0.64229 0.27664 0.0
O64 O 0.01656 0.5926 0.30631 0.0
C65 C 0.95784 0.56185 0.34499 0.0
Fe66 Fe 0.34373 0.03782 0.35898 0.0
Fe67 Fe 0.31708 -0.00775 0.29726 0.0
O68 O 0.34035 -0.00371 0.3376 0.0
Fe69 Fe 0.36021 0.9591 0.35696 0.0
O70 O 0.33326 0.96421 0.39602 0.0
O71 O 0.3461 0.0199 0.40365 0.0
O72 O 0.29684 0.03961 0.36457 0.0
C73 C 0.27494 0.03842 0.33952 0.0
C74 C 0.41047 0.01311 0.36687 0.0
O75 O 0.28413 0.02768 0.30865 0.0
C76 C 0.37637 0.94471 0.28876 0.0
O77 O 0.34157 0.06335 0.3181 0.0
O78 O 0.34797 0.02299 0.27659 0.0
O79 O 0.39701 0.98406 0.37632 0.0
O80 O 0.39134 0.0374 0.35448 0.0
C81 C 0.29497 0.9335 0.33274 0.0
O82 O 0.34558 0.95551 0.27962 0.0
O83 O 0.38821 0.95182 0.31909 0.0
C84 C 0.35371 0.05385 0.28839 0.0
O85 O 0.28589 0.96151 0.31713 0.0
O86 O 0.32697 0.92772 0.34075 0.0
C87 C 0.33463 -0.00894 0.41567 0.0
Fe88 Fe 0.04654 0.6134 0.61974 0.0
Fe89 Fe 0.96588 0.61193 0.61992 0.0
O90 O 0.00585 0.63217 0.63348 0.0
Fe91 Fe 0.00474 0.67039 0.66032 0.0
O92 O 0.02962 0.69545 0.62707 0.0
O93 O 0.07045 0.6549 0.61832 0.0
O94 O 0.0351 0.62057 0.57397 0.0
C95 C 0.00751 0.60845 0.55988 0.0
C96 C 0.06221 0.62928 0.68808 0.0
O97 O 0.98411 0.59397 0.57862 0.0
C98 C 0.95116 0.63118 0.68943 0.0
O99 O 0.02975 0.56838 0.61974 0.0
O100 O 0.97714 0.57291 0.64421 0.0
O101 O 0.04567 0.65865 0.68562 0.0
O102 O 0.05988 0.60589 0.66441 0.0
C103 C 0.94867 0.68004 0.60937 0.0
O104 O 0.94003 0.62647 0.65833 0.0
O105 O 0.98027 0.64672 0.69482 0.0
C106 C 0.00557 0.55609 0.6393 0.0
O107 O 0.95322 0.65013 0.59541 0.0
O108 O 0.96332 0.68796 0.63906 0.0
C109 C 0.05851 0.68545 0.6128 0.0
Fe110 Fe 0.35815 0.93057 0.62448 0.0
Fe111 Fe 0.36125 0.01052 0.62208 0.0
O112 O 0.34062 0.97211 0.6376 0.0
Fe113 Fe 0.30299 0.97486 0.6652 0.0
O114 O 0.31582 0.93487 0.6913 0.0
O115 O 0.36842 0.9204 0.66923 0.0
O116 O 0.40385 0.9461 0.61999 0.0
C117 C 0.41888 0.97177 0.63545 0.0
C118 C 0.28584 0.9196 0.62076 0.0
O119 O 0.40133 -0.00144 0.64432 0.0
C120 C 0.29275 0.0292 0.61338 0.0
O121 O 0.34772 0.93953 0.57894 0.0
O122 O 0.37514 -0.00985 0.58024 0.0
O123 O 0.27722 0.94952 0.63309 0.0
O124 O 0.31613 0.90707 0.62694 0.0
C125 C 0.34374 0.02876 0.69196 0.0
O126 O 0.32246 0.02435 0.59935 0.0
O127 O 0.28466 0.01496 0.64294 0.0
C128 C 0.35833 0.96667 0.56335 0.0
O129 O 0.35037 0.03765 0.66056 0.0
O130 O 0.3268 0.00089 0.69859 0.0
C131 C 0.3454 0.91824 0.6932 0.0
Fe132 Fe 0.04603 0.34751 0.62589 0.0
Fe133 Fe 0.01471 0.2967 0.68004 0.0
O134 O 0.00902 0.33045 0.64859 0.0
Fe135 Fe 0.96683 0.34838 0.64032 0.0
O136 O 0.9691 0.33535 0.59455 0.0
O137 O 0.02098 0.35965 0.58613 0.0
O138 O 0.05393 0.30561 0.60536 0.0
C139 C 0.06162 0.27836 0.62259 0.0
C140 C 0.01075 0.40706 0.64409 0.0
O141 O 0.05225 0.27542 0.65509 0.0
C142 C 0.96337 0.34282 0.71137 0.0
O143 O 0.07785 0.33822 0.66134 0.0
O144 O 0.04378 0.32553 0.70601 0.0
O145 O 0.98329 0.39258 0.63153 0.0
O146 O 0.03945 0.39024 0.64596 0.0
C147 C 0.95388 0.27595 0.64612 0.0
O148 O 0.9781 0.31248 0.70979 0.0
O149 O 0.96242 0.36261 0.68505 0.0
C150 C 0.0711 0.34049 0.69396 0.0
O151 O 0.98503 0.26734 0.65533 0.0
O152 O 0.94308 0.30745 0.64839 0.0
C153 C -0.00791 0.34761 0.57408 0.0
Fe154 Fe 0.63356 0.94638 0.62361 0.0
Fe155 Fe 0.66865 0.97732 0.68982 0.0
O156 O 0.64246 0.98265 0.65147 0.0
Fe157 Fe 0.62525 0.02469 0.6409 0.0
O158 O 0.58586 0.0078 0.61848 0.0
O159 O 0.58698 0.95132 0.63043 0.0
O160 O 0.63244 0.91408 0.65989 0.0
C161 C 0.62484 0.92002 0.69214 0.0
C162 C 0.64764 0.00215 0.57684 0.0
O163 O 0.63631 0.94718 0.70804 0.0
C164 C 0.69351 0.03867 0.66191 0.0
O165 O 0.67958 0.93972 0.6152 0.0
O166 O 0.69608 0.9401 0.67097 0.0
O167 O 0.64984 0.02588 0.60018 0.0
O168 O 0.63318 0.97273 0.58322 0.0
C169 C 0.61373 0.02531 0.71093 0.0
O170 O 0.70128 0.00764 0.67162 0.0
O171 O 0.66163 0.04866 0.66198 0.0
C172 C 0.70119 0.93097 0.6387 0.0
O173 O 0.64504 0.01303 0.71542 0.0
O174 O 0.59973 0.02537 0.68079 0.0
C175 C 0.57006 0.97917 0.62445 0.0
Fe176 Fe 0.29588 0.30019 -0.00951 0.0
Fe177 Fe 0.35208 0.33674 0.0365 0.0
O178 O 0.32959 0.33195 -0.00426 0.0
Fe179 Fe 0.34123 0.3589 0.96019 0.0
O180 O 0.29782 0.3778 0.95991 0.0
O181 O 0.27004 0.32704 0.95785 0.0
O182 O 0.27003 0.32217 0.02505 0.0
C183 C 0.28142 0.32913 0.05583 0.0
C184 C 0.33146 0.29359 0.92737 0.0
O185 O 0.31368 0.32405 0.06347 0.0
C186 C 0.40561 0.34237 0.98568 0.0
O187 O 0.31655 0.26813 0.02247 0.0
O188 O 0.36809 0.29281 0.03262 0.0
O189 O 0.33028 0.32678 0.92557 0.0
O190 O 0.32066 0.27795 0.95496 0.0
C191 C 0.34466 0.40458 0.01914 0.0
O192 O 0.39401 0.34986 0.01633 0.0
O193 O 0.38526 0.34079 0.95943 0.0
C194 C 0.34909 0.26591 0.0318 0.0
O195 O 0.33798 0.38183 0.04212 0.0
O196 O 0.35424 0.39607 0.9881 0.0
C197 C 0.27053 0.36033 0.95278 0.0
Fe198 Fe 0.32978 0.65183 0.01556 0.0
Fe199 Fe 0.38549 0.60772 0.05517 0.0
O200 O 0.36531 0.62166 0.01483 0.0
Fe201 Fe 0.38252 0.6052 0.97425 0.0
O202 O 0.39445 0.64819 0.95948 0.0
O203 O 0.34497 0.67573 0.97555 0.0
O204 O 0.35622 0.68411 0.04094 0.0
C205 C 0.37302 0.678 0.06926 0.0
C206 C 0.30962 0.60771 0.95989 0.0
O207 O 0.37429 0.64706 0.08065 0.0
C208 C 0.38157 0.54718 0.01508 0.0
O209 O 0.3096 0.63146 0.0558 0.0
O210 O 0.34542 0.58694 0.06903 0.0
O211 O 0.34132 0.60719 0.94959 0.0
O212 O 0.30126 0.62228 0.9892 0.0
C213 C 0.44048 0.62339 0.01256 0.0
O214 O 0.39924 0.5646 0.03758 0.0
O215 O 0.37054 0.56158 0.98722 0.0
C216 C 0.31543 0.60165 0.07073 0.0
O217 O 0.42629 0.62936 0.04225 0.0
O218 O 0.42694 0.6008 -0.00797 0.0
C219 C 0.37414 0.67456 0.95836 0.0
Fe220 Fe 0.61109 0.37109 0.00516 0.0
Fe221 Fe 0.61383 0.36659 0.9246 0.0
O222 O 0.62909 0.35177 0.96642 0.0
Fe223 Fe 0.66131 0.31799 0.96908 0.0
O224 O 0.64131 0.29762 0.00931 0.0
O225 O 0.59346 0.32994 0.01978 0.0
O226 O 0.56802 0.37969 0.9853 0.0
C227 C 0.55276 0.36248 0.96094 0.0
C228 C 0.68257 0.36204 0.02389 0.0
O229 O 0.56962 0.35146 0.93426 0.0
C230 C 0.68455 0.36331 0.91271 0.0
O231 O 0.62786 0.41345 -0.00744 0.0
O232 O 0.60385 0.41155 0.93968 0.0
O233 O 0.69125 0.34568 -0.00429 0.0
O234 O 0.65046 0.36565 0.03231 0.0
C235 C 0.61889 0.29457 0.91384 0.0
O236 O 0.65692 0.38201 0.91346 0.0
O237 O 0.68611 0.33384 0.92916 0.0
C238 C 0.61777 0.42879 0.96485 0.0
O239 O 0.62158 0.32503 0.90128 0.0
O240 O 0.63312 0.28778 0.94336 0.0
C241 C 0.61108 0.30208 0.02415 0.0
Fe242 Fe 0.62283 0.63971 0.93015 0.0
Fe243 Fe 0.6837 0.67471 0.9709 0.0
O244 O 0.64398 0.65061 0.97077 0.0
Fe245 Fe 0.6242 0.63785 0.01065 0.0
O246 O 0.62776 0.59249 -0.00199 0.0
O247 O 0.60173 0.59953 0.94662 0.0
O248 O 0.65957 0.61254 0.91751 0.0
C249 C 0.69033 0.62439 0.91323 0.0
C250 C 0.56894 0.66426 0.97053 0.0
O251 O 0.69998 0.65323 0.92858 0.0
C252 C 0.64511 0.70218 0.03105 0.0
O253 O 0.64083 0.67693 0.9059 0.0
O254 O 0.66128 0.71112 0.94788 0.0
O255 O 0.57973 0.64234 -0.00673 0.0
O256 O 0.58492 0.66713 0.9414 0.0
C257 C 0.69681 0.6268 0.02386 0.0
O258 O 0.67397 0.69909 0.01351 0.0
O259 O 0.61958 0.68213 0.02524 0.0
C260 C 0.64603 0.70737 0.91821 0.0
O261 O 0.70712 0.63963 -0.00536 0.0
O262 O 0.6656 0.63194 0.03483 0.0
C263 C 0.61327 0.57973 0.97088 0.0
Fe264 Fe 0.47922 0.80371 0.81519 0.0
Fe265 Fe 0.44096 0.85647 0.86431 0.0
O266 O 0.47994 0.84131 0.84313 0.0
Fe267 Fe 0.51978 0.86446 0.85011 0.0
O268 O 0.52187 0.87526 0.80416 0.0
O269 O 0.51346 0.8211 0.78411 0.0
O270 O 0.44603 0.82419 0.78663 0.0
C271 C 0.41686 0.83724 0.79714 0.0
C272 C 0.54219 0.79449 0.85031 0.0
O273 O 0.41078 0.8416 0.82971 0.0
C274 C 0.49312 0.86334 0.91643 0.0
O275 O 0.44504 0.78056 0.84182 0.0
O276 O 0.43665 0.81594 0.88779 0.0
O277 O 0.54888 0.82633 0.84414 0.0
O278 O 0.51238 0.78145 0.84255 0.0
C279 C 0.46893 0.9188 0.84667 0.0
O280 O 0.46416 0.87355 0.90311 0.0
O281 O 0.51886 0.85463 0.89686 0.0
C282 C 0.43394 0.78608 0.87339 0.0
O283 O 0.44319 0.89837 0.84191 0.0
O284 O 0.49846 0.90702 0.85716 0.0
C285 C 0.52297 0.85298 0.77928 0.0
Fe286 Fe 0.13032 0.53429 0.86591 0.0
Fe287 Fe 0.12682 0.45511 0.85139 0.0
O288 O 0.1461 0.49675 0.84275 0.0
Fe289 Fe 0.18074 0.49947 0.81135 0.0
O290 O 0.20553 0.53452 0.83593 0.0
O291 O 0.17287 0.54447 0.88345 0.0
O292 O 0.12353 0.50962 0.90709 0.0
C293 C 0.13832 0.48115 0.91716 0.0
C294 C 0.1409 0.55913 0.79611 0.0
O295 O 0.14374 0.45575 0.89598 0.0
C296 C 0.12913 0.45272 0.78028 0.0
O297 O 0.08583 0.52722 0.85016 0.0
O298 O 0.08426 0.47224 0.86635 0.0
O299 O 0.15646 0.53145 0.78507 0.0
O300 O 0.13553 0.56466 0.82883 0.0
C301 C 0.19692 0.43762 0.84459 0.0
O302 O 0.10943 0.45395 0.80727 0.0
O303 O 0.16099 0.46443 0.78178 0.0
C304 C 0.06852 0.5003 0.85805 0.0
O305 O 0.16554 0.42908 0.838 0.0
O306 O 0.20711 0.46818 0.83673 0.0
C307 C 0.2017 0.54694 0.86729 0.0
Fe308 Fe 0.4702 0.1675 0.80595 0.0
Fe309 Fe 0.501 0.12295 0.86549 0.0
O310 O 0.46427 0.14101 0.84359 0.0
Fe311 Fe 0.42144 0.13217 0.86003 0.0
O312 O 0.39951 0.13474 0.81684 0.0
O313 O 0.4438 0.13702 0.77943 0.0
O314 O 0.50996 0.14206 0.78983 0.0
C315 C 0.52057 0.11093 0.7977 0.0
C316 C 0.41405 0.20081 0.84545 0.0
O317 O 0.51326 0.09782 0.82722 0.0
C318 C 0.46194 0.14253 0.92158 0.0
O319 O 0.49738 0.19898 0.83095 0.0
O320 O 0.5315 0.1585 0.85443 0.0
O321 O 0.41458 0.17764 0.86894 0.0
O322 O 0.43107 0.19671 0.81632 0.0
C323 C 0.45187 0.06824 0.86466 0.0
O324 O 0.49012 0.1476 0.90474 0.0
O325 O 0.43557 0.12843 0.90638 0.0
C326 C 0.52478 0.19057 0.84841 0.0
O327 O 0.47728 0.08366 0.88018 0.0
O328 O 0.42692 0.08576 0.8515 0.0
C329 C 0.41284 0.12699 0.78709 0.0
Fe330 Fe 0.86276 0.45826 0.8605 0.0
Fe331 Fe 0.85361 0.53746 0.85386 0.0
O332 O 0.84676 0.49463 0.83658 0.0
Fe333 Fe 0.82406 0.48792 0.7964 0.0
O334 O 0.79055 0.4609 0.81853 0.0
O335 O 0.82934 0.42723 0.84482 0.0
O336 O 0.83338 0.4689 0.89637 0.0
C337 C 0.83534 0.49746 0.91333 0.0
C338 C 0.88173 0.43777 0.79495 0.0
O339 O 0.85156 0.5235 0.90014 0.0
C340 C 0.86525 0.54574 0.78125 0.0
O341 O 0.89979 0.48221 0.8805 0.0
O342 O 0.90082 0.53169 0.85123 0.0
O343 O 0.85152 0.4484 0.78354 0.0
O344 O 0.89225 0.44634 0.82539 0.0
C345 C 0.7861 0.5436 0.83198 0.0
O346 O 0.85602 0.55894 0.81068 0.0
O347 O 0.85658 0.51458 0.77264 0.0
C348 C 0.91684 0.50749 0.86729 0.0
O349 O 0.80746 0.54505 0.85729 0.0
O350 O 0.79317 0.52638 0.80348 0.0
C351 C 0.79767 0.43383 0.83677 0.0
Fe352 Fe 0.4924 0.18375 0.17142 0.0
Fe353 Fe 0.52917 0.13035 0.12211 0.0
O354 O 0.49092 0.14597 0.14395 0.0
Fe355 Fe 0.45055 0.12322 0.13822 0.0
O356 O 0.42236 0.16203 0.14577 0.0
O357 O 0.45977 0.20547 0.14281 0.0
O358 O 0.52725 0.20639 0.14457 0.0
C359 C 0.53861 0.2003 0.11313 0.0
C360 C 0.45014 0.13423 0.20861 0.0
O361 O 0.53418 0.17075 0.09865 0.0
C362 C 0.49991 0.06932 0.14321 0.0
O363 O 0.5252 0.16298 0.20018 0.0
O364 O 0.55985 0.14421 0.15711 0.0
O365 O 0.45039 0.11212 0.18372 0.0
O366 O 0.45808 0.16655 0.20307 0.0
C367 C 0.47503 0.12563 0.07154 0.0
O368 O 0.52652 0.08893 0.14466 0.0
O369 O 0.47117 0.08039 0.13023 0.0
C370 C 0.5535 0.1479 0.18986 0.0
O371 O 0.50451 0.11437 0.08327 0.0
O372 O 0.45002 0.13348 0.09215 0.0
C373 C 0.42972 0.19262 0.13543 0.0
Fe374 Fe 0.8553 0.43961 0.12238 0.0
Fe375 Fe 0.85842 0.51921 0.11588 0.0
O376 O 0.83845 0.48173 0.13439 0.0
Fe377 Fe 0.80206 0.48646 0.16333 0.0
O378 O 0.81659 0.44891 0.1921 0.0
O379 O 0.86668 0.43065 0.16706 0.0
O380 O 0.90097 0.45517 0.11756 0.0
C381 C 0.9159 0.48099 0.13311 0.0
C382 C 0.78263 0.42876 0.12175 0.0
O383 O 0.89917 0.50941 0.1388 0.0
C384 C 0.78892 0.53509 0.1067 0.0
O385 O 0.84393 0.44717 0.0764 0.0
O386 O 0.87338 0.49621 0.07626 0.0
O387 O 0.77452 0.4586 0.1347 0.0
O388 O 0.8133 0.41642 0.12635 0.0
C389 C 0.84233 0.54351 0.18395 0.0
O390 O 0.8187 0.53 0.09246 0.0
O391 O 0.78268 0.52449 0.1383 0.0
C392 C 0.85543 0.47344 0.05996 0.0
O393 O 0.84661 0.54938 0.15154 0.0
O394 O 0.82721 0.51541 0.19359 0.0
C395 C 0.84674 0.4333 0.19363 0.0
Fe396 Fe 0.55405 0.86368 0.12613 0.0
Fe397 Fe 0.51832 0.81014 0.175 0.0
O398 O 0.51519 0.84427 0.14357 0.0
Fe399 Fe 0.47361 0.85999 0.12938 0.0
O400 O 0.48364 0.84726 0.08478 0.0
O401 O 0.53438 0.8751 0.08324 0.0
O402 O 0.56696 0.82303 0.10634 0.0
C403 C 0.57364 0.79563 0.12356 0.0
C404 C 0.51364 0.92062 0.14009 0.0
O405 O 0.5594 0.79044 0.15403 0.0
C406 C 0.46124 0.85432 0.19972 0.0
O407 O 0.58116 0.85548 0.16527 0.0
O408 O 0.54321 0.83869 0.20508 0.0
O409 O 0.48894 0.90522 0.12345 0.0
O410 O 0.54267 0.90541 0.14562 0.0
C411 C 0.46253 0.78676 0.13375 0.0
O412 O 0.47812 0.82497 0.20056 0.0
O413 O 0.46152 0.87347 0.1729 0.0
C414 C 0.5705 0.8559 0.19686 0.0
O415 O 0.49264 0.77993 0.147 0.0
O416 O 0.45069 0.81796 0.13351 0.0
C417 C 0.50869 0.86042 0.0676 0.0
Fe418 Fe 0.12464 0.43512 0.12648 0.0
Fe419 Fe 0.16909 0.47472 0.18202 0.0
O420 O 0.14173 0.47504 0.14423 0.0
Fe421 Fe 0.13043 0.51556 0.12398 0.0
O422 O 0.08441 0.50877 0.13423 0.0
O423 O 0.08344 0.45547 0.11103 0.0
O424 O 0.10154 0.42571 0.16662 0.0
C425 C 0.11552 0.42352 0.1967 0.0
C426 C 0.14261 0.46995 0.06696 0.0
O427 O 0.1458 0.43707 0.20309 0.0
C428 C 0.20012 0.52581 0.13586 0.0
O429 O 0.16231 0.40769 0.13984 0.0
O430 O 0.20114 0.4461 0.15963 0.0
O431 O 0.12613 0.49618 0.07989 0.0
O432 O 0.14699 0.4423 0.08473 0.0
C433 C 0.12685 0.5328 0.19533 0.0
O434 O 0.19681 0.5123 0.16664 0.0
O435 O 0.17566 0.52419 0.11331 0.0
C436 C 0.19395 0.41649 0.14586 0.0
O437 O 0.13786 0.50319 0.20602 0.0
O438 O 0.13334 0.54248 0.16421 0.0
C439 C 0.06758 0.48162 0.12502 0.0
Fe440 Fe 0.80486 0.80825 0.49261 0.0
Fe441 Fe 0.86418 0.84488 0.53429 0.0
O442 O 0.84054 0.83818 0.49444 0.0
Fe443 Fe 0.85313 0.86113 0.45593 0.0
O444 O 0.81094 0.8822 0.45427 0.0
O445 O 0.77992 0.83354 0.45762 0.0
O446 O 0.78057 0.83383 0.52608 0.0
C447 C 0.79314 0.84257 0.55614 0.0
C448 C 0.84062 0.7935 0.43076 0.0
O449 O 0.8257 0.83823 0.56306 0.0
C450 C 0.91657 0.84151 0.48199 0.0
O451 O 0.82373 0.77794 0.52684 0.0
O452 O 0.87697 0.79972 0.53558 0.0
O453 O 0.83963 0.82617 0.42481 0.0
O454 O 0.82883 0.78173 0.45974 0.0
C455 C 0.8595 0.91125 0.51038 0.0
O456 O 0.90656 0.85242 0.5122 0.0
O457 O 0.896 0.84097 0.45592 0.0
C458 C 0.8558 0.77455 0.53703 0.0
O459 O 0.85293 0.89071 0.53529 0.0
O460 O 0.86864 0.90015 0.48001 0.0
C461 C 0.78325 0.86551 0.4474 0.0
Fe462 Fe 0.8097 0.16653 0.52088 0.0
Fe463 Fe 0.85704 0.12012 0.56769 0.0
O464 O 0.84434 0.13547 0.5252 0.0
Fe465 Fe 0.86714 0.11994 0.48779 0.0
O466 O 0.8813 0.16311 0.4768 0.0
O467 O 0.82923 0.1887 0.48136 0.0
O468 O 0.83478 0.1977 0.54845 0.0
C469 C 0.84606 0.1908 0.57923 0.0
C470 C 0.79616 0.12242 0.46444 0.0
O471 O 0.84252 0.16006 0.59103 0.0
C472 C 0.86058 0.0603 0.52526 0.0
O473 O 0.78405 0.14791 0.55902 0.0
O474 O 0.81498 0.10031 0.57277 0.0
O475 O 0.82904 0.12214 0.45796 0.0
O476 O 0.78412 0.13699 0.49237 0.0
C477 C 0.91956 0.13398 0.53734 0.0
O478 O 0.87277 0.07685 0.55182 0.0
O479 O 0.85381 0.076 0.49696 0.0
C480 C 0.78595 0.11649 0.57119 0.0
O481 O 0.90017 0.13972 0.5638 0.0
O482 O 0.90899 0.11549 0.51137 0.0
C483 C 0.86034 0.18718 0.46809 0.0
Fe484 Fe 0.12551 0.84958 0.50248 0.0
Fe485 Fe 0.1247 0.84889 0.42192 0.0
O486 O 0.14271 0.83305 0.4621 0.0
Fe487 Fe 0.17701 0.80119 0.46296 0.0
O488 O 0.15008 0.77111 0.48997 0.0
O489 O 0.13712 0.81157 0.52903 0.0
O490 O 0.08364 0.82924 0.49319 0.0
C491 C 0.06606 0.83585 0.46559 0.0
C492 C 0.19563 0.85327 0.51528 0.0
O493 O 0.07983 0.85282 0.44018 0.0
C494 C 0.19768 0.84375 0.40726 0.0
O495 O 0.11053 0.8914 0.48483 0.0
O496 O 0.13606 0.89408 0.43307 0.0
O497 O 0.199 0.82199 0.50243 0.0
O498 O 0.16691 0.87007 0.51227 0.0
C499 C 0.13116 0.77866 0.40659 0.0
O500 O 0.16602 0.84633 0.39688 0.0
O501 O 0.20564 0.82903 0.43616 0.0
C502 C 0.12444 0.90911 0.46057 0.0
O503 O 0.11221 0.80588 0.4081 0.0
O504 O 0.16027 0.7762 0.42363 0.0
C505 C 0.13639 0.77985 0.51941 0.0
Fe506 Fe 0.10643 0.12461 0.44414 0.0
Fe507 Fe 0.17298 0.15984 0.47484 0.0
O508 O 0.13552 0.13259 0.47974 0.0
Fe509 Fe 0.12728 0.1129 0.52099 0.0
O510 O 0.10458 0.07431 0.50277 0.0
O511 O 0.1144 0.0779 0.44589 0.0
O512 O 0.14144 0.12554 0.40995 0.0
C513 C 0.17454 0.1205 0.41345 0.0
C514 C 0.06256 0.13601 0.50369 0.0
O515 O 0.19088 0.13043 0.44107 0.0
C516 C 0.14726 0.18055 0.53957 0.0
O517 O 0.09671 0.17042 0.44018 0.0
O518 O 0.15183 0.18903 0.44082 0.0
O519 O 0.08694 0.13676 0.52613 0.0
O520 O 0.06707 0.12274 0.47291 0.0
C521 C 0.19687 0.10319 0.51942 0.0
O522 O 0.15559 0.19014 0.50859 0.0
O523 O 0.14812 0.14817 0.54702 0.0
C524 C 0.11913 0.19357 0.43334 0.0
O525 O 0.20044 0.13477 0.50804 0.0
O526 O 0.16744 0.08828 0.51694 0.0
C527 C 0.10972 0.05966 0.47304 0.0
C528 C 0.94694 0.33629 0.48565 0.0
C529 C 0.96639 0.3592 0.46438 0.0
C530 C 0.95494 0.33327 0.52162 0.0
C531 C 0.98272 0.35296 0.53688 0.0
H532 H 0.92697 0.31922 0.47406 0.0
H533 H 0.94016 0.31449 0.53716 0.0
S534 S 0.03753 0.42043 0.49206 0.0
N535 N 0.01155 0.40441 0.46064 0.0
N536 N 0.02674 0.39916 0.52851 0.0
C537 C 0.00078 0.37761 0.51597 0.0
C538 C -0.00749 0.38064 0.47953 0.0
C539 C 0.63494 0.04718 0.49019 0.0
C540 C 0.64582 0.02036 0.4667 0.0
C541 C 0.63868 0.04272 0.52674 0.0
C542 C 0.65343 0.01141 0.5401 0.0
H543 H 0.62135 0.07044 0.48045 0.0
H544 H 0.62745 0.06246 0.54452 0.0
S545 S 0.69448 0.93829 0.48903 0.0
N546 N 0.67805 0.96507 0.45875 0.0
N547 N 0.68492 0.95672 0.5277 0.0
C548 C 0.66786 0.9864 0.51676 0.0
C549 C 0.66401 -0.00915 0.47977 0.0
C550 C 0.97794 0.59011 0.50419 0.0
C551 C 0.00103 0.61319 0.52205 0.0
C552 C 0.96982 0.59511 0.46853 0.0
C553 C 0.98466 0.62327 0.44986 0.0
H554 H 0.96635 0.56784 0.51775 0.0
H555 H 0.95279 0.5762 0.45524 0.0
S556 S 0.04248 0.69383 0.4856 0.0
N557 N 0.03565 0.66727 0.5194 0.0
N558 N 0.0208 0.67616 0.45184 0.0
C559 C 0.00681 0.64719 0.46755 0.0
C560 C 0.01496 0.64224 0.50387 0.0
C561 C 0.3497 0.01205 0.47584 0.0
C562 C 0.33425 0.98608 0.45412 0.0
C563 C 0.35744 0.00528 0.51109 0.0
C564 C 0.3495 0.97243 0.52609 0.0
H565 H 0.35767 0.03736 0.46524 0.0
H566 H 0.37017 0.02589 0.52644 0.0
S567 S 0.30235 0.89806 0.48235 0.0
N568 N 0.30685 0.92798 0.45113 0.0
N569 N 0.3208 0.91536 0.51815 0.0
C570 C 0.33144 0.94716 0.50555 0.0
C571 C 0.32379 0.95399 0.46937 0.0
C572 C 0.4693 -0.0106 0.38323 0.0
C573 C 0.44886 0.01808 0.37124 0.0
C574 C 0.50604 -0.009 0.38381 0.0
C575 C 0.52376 0.02141 0.37282 0.0
H576 H 0.45704 0.9649 0.39116 0.0
H577 H 0.52076 0.96788 0.39226 0.0
S578 S 0.48323 0.10473 0.3416 0.0
N579 N 0.44921 0.07879 0.35002 0.0
N580 N 0.51907 0.08152 0.3514 0.0
C581 C 0.50403 0.051 0.36246 0.0
C582 C 0.46632 0.04938 0.36156 0.0
C583 C 0.98496 0.50386 0.33635 0.0
C584 C 0.95391 0.52414 0.33956 0.0
C585 C 0.98367 0.46752 0.33863 0.0
C586 C 0.95128 0.45048 0.34404 0.0
H587 H 0.01071 0.51624 0.33393 0.0
H588 H 0.00841 0.45281 0.3379 0.0
S589 S 0.8618 0.49119 0.34601 0.0
N590 N 0.88936 0.52474 0.34248 0.0
N591 N 0.88691 0.45533 0.34643 0.0
C592 C 0.91957 0.46995 0.34315 0.0
C593 C 0.9209 0.50728 0.34098 0.0
C594 C 0.47747 0.94414 0.62533 0.0
C595 C 0.45751 0.97417 0.63472 0.0
C596 C 0.51399 0.94622 0.62113 0.0
C597 C 0.53161 0.97842 0.62615 0.0
H598 H 0.46482 0.91885 0.62087 0.0
H599 H 0.52849 0.92244 0.61395 0.0
S600 S 0.49208 0.0643 0.65331 0.0
N601 N 0.4583 0.03699 0.65009 0.0
N602 N 0.52733 0.04048 0.64289 0.0
C603 C 0.51225 0.00855 0.63617 0.0
C604 C 0.47505 0.0065 0.64047 0.0
C605 C 0.97738 0.46282 0.65018 0.0
C606 C 0.01019 0.44508 0.65069 0.0
C607 C 0.97587 0.49941 0.64938 0.0
C608 C 0.00718 0.51913 0.64895 0.0
H609 H 0.95267 0.44842 0.64846 0.0
H610 H 0.95019 0.51204 0.64656 0.0
S611 S 0.09896 0.48593 0.6607 0.0
N612 N 0.07425 0.45011 0.65845 0.0
N613 N 0.07118 0.51952 0.65687 0.0
C614 C 0.03987 0.50209 0.65385 0.0
C615 C 0.04146 0.46474 0.65481 0.0
C616 C 0.32799 0.46516 0.00919 0.0
C617 C 0.3479 0.44125 0.02892 0.0
C618 C 0.33834 0.49997 0.00651 0.0
C619 C 0.3696 0.51166 0.02293 0.0
H620 H 0.30601 0.4562 -0.00668 0.0
H621 H 0.32267 0.51728 0.98988 0.0
S622 S 0.42893 0.45954 0.08097 0.0
N623 N 0.39812 0.43138 0.06795 0.0
N624 N 0.41842 0.49778 0.06285 0.0
C625 C 0.38832 0.4887 0.04528 0.0
C626 C 0.3773 0.45304 0.04823 0.0
C627 C 0.45964 0.37697 -0.00918 0.0
C628 C 0.44288 0.34636 0.97859 0.0
C629 C 0.49508 0.38266 0.98329 0.0
C630 C 0.51472 0.35771 0.96359 0.0
H631 H 0.44516 0.39678 0.00601 0.0
H632 H 0.5073 0.40654 -0.00656 0.0
S633 S 0.4825 0.27259 0.92693 0.0
N634 N 0.44745 0.2907 0.94633 0.0
N635 N 0.51519 0.301 0.93258 0.0
C636 C 0.49808 0.32707 0.95085 0.0
C637 C 0.46173 0.32143 0.95836 0.0
C638 C 0.61458 0.48513 -0.00214 0.0
C639 C 0.6153 0.46721 0.96513 0.0
C640 C 0.61204 0.52164 -0.00072 0.0
C641 C 0.6103 0.54149 0.96806 0.0
H642 H 0.61599 0.47094 0.02267 0.0
H643 H 0.61214 0.53442 0.02513 0.0
S644 S 0.61119 0.50708 0.87568 0.0
N645 N 0.61374 0.47159 0.90071 0.0
N646 N 0.609 0.54096 0.90348 0.0
C647 C 0.61012 0.52399 0.93509 0.0
C648 C 0.61273 0.48659 0.93361 0.0
C649 C 0.50901 0.65792 0.94993 0.0
C650 C 0.53212 0.67468 0.97353 0.0
C651 C 0.47813 0.64276 0.96275 0.0
C652 C 0.46918 0.64539 -0.00096 0.0
H653 H 0.51751 0.6512 0.92322 0.0
H654 H 0.46279 0.62667 0.94455 0.0
S655 S 0.51439 0.70063 0.06669 0.0
N656 N 0.5395 0.70326 0.03091 0.0
N657 N 0.48051 0.67544 0.05534 0.0
C658 C 0.4885 0.66854 0.0208 0.0
C659 C 0.52003 0.68381 0.00759 0.0
C660 C 0.53076 0.86007 0.97051 0.0
C661 C 0.4971 0.86435 0.95502 0.0
C662 C 0.53462 0.85981 0.00733 0.0
C663 C 0.50487 0.86329 0.02941 0.0
H664 H 0.55421 0.85665 0.95419 0.0
H665 H 0.56079 0.85589 0.01856 0.0
S666 S 0.41132 0.87686 0.00236 0.0
N667 N 0.43362 0.87332 0.96486 0.0
N668 N 0.44121 0.87285 0.03398 0.0
C669 C 0.47125 0.86826 0.0144 0.0
C670 C 0.46727 0.86877 0.97713 0.0
C671 C 0.14173 0.44056 0.00785 0.0
C672 C 0.14991 0.47007 0.02903 0.0
C673 C 0.13974 0.44371 0.97097 0.0
C674 C 0.1456 0.47648 0.95481 0.0
H675 H 0.13441 0.41576 0.01989 0.0
H676 H 0.13147 0.42108 0.95532 0.0
S677 S 0.17709 0.55857 -0.00157 0.0
N678 N 0.17077 0.53066 0.0312 0.0
N679 N 0.16639 0.5368 0.96187 0.0
C680 C 0.15724 0.50503 0.97554 0.0
C681 C 0.15966 0.50171 0.0128 0.0
C682 C 0.49753 0.13982 0.97625 0.0
C683 C 0.46401 0.14253 0.96017 0.0
C684 C 0.50063 0.13372 0.0123 0.0
C685 C 0.47036 0.13058 0.03357 0.0
H686 H 0.52173 0.14107 0.96079 0.0
H687 H 0.52701 0.13158 0.0235 0.0
S688 S 0.37661 0.14048 0.00498 0.0
N689 N 0.40007 0.14502 0.96832 0.0
N690 N 0.40577 0.13359 0.03687 0.0
C691 C 0.43661 0.13498 0.01823 0.0
C692 C 0.43348 0.14104 0.98129 0.0
C693 C 0.85037 0.51945 0.97275 0.0
C694 C 0.83131 0.49556 0.9517 0.0
C695 C 0.85765 0.51187 0.00783 0.0
C696 C 0.8455 0.48048 0.02329 0.0
H697 H 0.86224 0.54286 0.96153 0.0
H698 H 0.87392 0.53041 0.02248 0.0
S699 S 0.78572 0.41457 0.98181 0.0
N700 N 0.79415 0.4431 0.95007 0.0
N701 N 0.80766 0.42886 0.01698 0.0
C702 C 0.8229 0.45838 0.00372 0.0
C703 C 0.81557 0.46609 0.9677 0.0
C704 C 0.97458 0.53239 0.84905 0.0
C705 C 0.9556 0.50757 0.86894 0.0
C706 C 0.0113 0.5301 0.84597 0.0
C707 C 0.03015 0.50293 0.86274 0.0
H708 H 0.96096 0.55312 0.83471 0.0
H709 H 0.02484 0.54917 0.82963 0.0
S710 S -0.00664 0.4338 0.92133 0.0
N711 N 0.9586 0.45676 0.9081 0.0
N712 N 0.02784 0.45247 0.90238 0.0
C713 C 0.01173 0.47884 0.88399 0.0
C714 C 0.97436 0.48121 0.88719 0.0
C715 C 0.47781 0.0111 0.88117 0.0
C716 C 0.4524 0.02976 0.86161 0.0
C717 C 0.48277 0.97523 0.87582 0.0
C718 C 0.46236 0.95654 0.85088 0.0
H719 H 0.49463 0.02433 0.90037 0.0
H720 H 0.50285 0.96209 0.8916 0.0
S721 S 0.39116 -0.00742 0.79386 0.0
N722 N 0.40556 0.02689 0.81697 0.0
N723 N 0.41498 0.95849 0.80724 0.0
C724 C 0.43598 0.97439 0.83186 0.0
C725 C 0.43094 0.01129 0.83719 0.0
C726 C 0.97315 0.51281 0.13372 0.0
C727 C 0.95452 0.48087 0.13586 0.0
C728 C 0.00996 0.51285 0.13055 0.0
C729 C 0.02911 0.48097 0.12929 0.0
H730 H 0.95922 0.53789 0.133 0.0
H731 H 0.02335 0.53795 0.12804 0.0
S732 S -0.00693 0.39082 0.1408 0.0
N733 N 0.95796 0.41701 0.14143 0.0
N734 N 0.02743 0.41701 0.13514 0.0
C735 C 0.01098 0.44899 0.13359 0.0
C736 C 0.97355 0.44898 0.13703 0.0
C737 C 0.54085 0.97946 0.14251 0.0
C738 C 0.51092 0.95814 0.14706 0.0
C739 C 0.53757 0.01599 0.14363 0.0
C740 C 0.5043 0.03182 0.14937 0.0
H741 H 0.56644 0.96798 0.13598 0.0
H742 H 0.56072 0.03174 0.13776 0.0
S743 S 0.42042 0.98699 0.17257 0.0
N744 N 0.44888 0.95467 0.16426 0.0
N745 N 0.44263 0.02395 0.16664 0.0
C746 C 0.47504 0.01073 0.15765 0.0
C747 C 0.47837 0.97356 0.15636 0.0
C748 C 0.88042 0.9647 0.54125 0.0
C749 C 0.85741 0.94866 0.51686 0.0
C750 C 0.88038 0.00133 0.54539 0.0
C751 C 0.85716 0.02217 0.52527 0.0
H752 H 0.89934 0.94901 0.55604 0.0
H753 H 0.89955 0.01339 0.56308 0.0
S754 S 0.78692 -0.00901 0.46364 0.0
N755 N 0.80786 0.95487 0.47629 0.0
N756 N 0.80706 0.02384 0.48432 0.0
C757 C 0.83223 0.00588 0.50283 0.0
C758 C 0.83257 0.96889 0.4985 0.0
C759 C 0.00655 0.85038 0.4425 0.0
C760 C 0.02764 0.83161 0.46671 0.0
C761 C 0.97003 0.85223 0.44684 0.0
C762 C 0.95383 0.83557 0.47555 0.0
H763 H 0.01832 0.86524 0.42111 0.0
H764 H 0.95463 0.86826 0.42873 0.0
S765 S -0.00433 0.77616 0.54083 0.0
N766 N 0.02881 0.7906 0.51632 0.0
N767 N 0.95962 0.79517 0.52487 0.0
C768 C 0.97391 0.81433 0.49812 0.0
C769 C 0.01109 0.81196 0.4935 0.0
C770 C 0.11533 0.96798 0.43346 0.0
C771 C 0.12233 0.94744 0.46341 0.0
C772 C 0.11009 0.00438 0.43693 0.0
C773 C 0.11208 0.02113 0.47039 0.0
H774 H 0.11318 0.95582 0.40743 0.0
H775 H 0.10476 0.01949 0.41323 0.0
S776 S 0.13243 0.97856 0.55644 0.0
N777 N 0.13242 0.94598 0.52711 0.0
N778 N 0.12316 0.01445 0.53369 0.0
C779 C 0.11957 0.00071 0.50042 0.0
C780 C 0.12469 0.9638 0.49687 0.0
C781 C 0.01506 0.11726 0.54312 0.0
C782 C 0.02727 0.14069 0.51728 0.0
C783 C 0.97973 0.11806 0.55355 0.0
C784 C 0.95651 0.14266 0.5386 0.0
H785 H 0.03231 0.0968 0.55347 0.0
H786 H 0.96991 0.09756 0.57082 0.0
S787 S 0.97826 0.21457 0.47652 0.0
N788 N 0.01579 0.1924 0.48141 0.0
N789 N 0.94881 0.1945 0.50173 0.0
C790 C 0.96938 0.16859 0.51575 0.0
C791 C 0.00517 0.16741 0.50473 0.0
C792 C 0.09963 0.25567 0.42379 0.0
C793 C 0.10604 0.22174 0.40996 0.0
C794 C 0.07548 0.27861 0.40714 0.0
C795 C 0.05628 0.26801 0.37668 0.0
H796 H 0.11132 0.26355 0.44888 0.0
H797 H 0.0703 0.3041 0.41942 0.0
S798 S 0.06654 0.18303 0.32833 0.0
N799 N 0.09389 0.17982 0.36238 0.0
N800 N 0.04797 0.2225 0.33176 0.0
C801 C 0.06395 0.23487 0.36166 0.0
C802 C 0.08902 0.21192 0.37811 0.0
C803 C 0.73657 0.11927 0.43538 0.0
C804 C 0.77192 0.1077 0.43723 0.0
C805 C 0.71354 0.10594 0.40943 0.0
C806 C 0.72472 0.08001 0.38466 0.0
H807 H 0.72659 0.1389 0.45398 0.0
H808 H 0.68639 0.11544 0.40954 0.0
S809 S 0.81481 0.04075 0.37835 0.0
N810 N 0.81728 0.06898 0.41184 0.0
N811 N 0.77367 0.04345 0.36365 0.0
C812 C 0.76006 0.06826 0.38617 0.0
C813 C 0.78369 0.08221 0.41228 0.0
C814 C 0.91669 0.73354 0.40631 0.0
C815 C 0.91372 0.72954 0.36919 0.0
C816 C 0.89239 0.75375 0.42575 0.0
C817 C 0.86453 0.77152 0.40885 0.0
H818 H 0.93689 0.71913 0.42078 0.0
H819 H 0.89543 0.75544 0.45432 0.0
S820 S 0.84727 0.7736 0.31208 0.0
N821 N 0.88202 0.7471 0.31602 0.0
N822 N 0.83723 0.78717 0.3527 0.0
C823 C 0.86269 0.77019 0.37157 0.0
C824 C 0.88716 0.74876 0.35165 0.0
C825 C 0.25579 0.92013 0.38312 0.0
C826 C 0.26824 0.91088 0.34917 0.0
C827 C 0.23426 0.89723 0.4024 0.0
C828 C 0.22419 0.86445 0.38813 0.0
H829 H 0.26336 0.945 0.39516 0.0
H830 H 0.22486 0.90552 0.42837 0.0
S831 S 0.24917 0.82816 0.29997 0.0
N832 N 0.26939 0.86677 0.30208 0.0
N833 N 0.22721 0.82415 0.3377 0.0
C834 C 0.2359 0.85506 0.35393 0.0
C835 C 0.25851 0.87817 0.33459 0.0
C836 C 0.0937 0.76798 0.56854 0.0
C837 C 0.11786 0.75462 0.54296 0.0
C838 C 0.07457 0.74567 0.59091 0.0
C839 C 0.07934 0.70899 0.58932 0.0
H840 H 0.08885 0.79612 0.57096 0.0
H841 H 0.05606 0.75733 0.60967 0.0
S842 S 0.13931 0.66029 0.52714 0.0
N843 N 0.14503 0.70223 0.51714 0.0
N844 N 0.11016 0.66003 0.55982 0.0
C845 C 0.10375 0.69516 0.56412 0.0
C846 C 0.12266 0.71798 0.54078 0.0
C847 C 0.23211 0.04306 0.59164 0.0
C848 C 0.26791 0.05202 0.59374 0.0
C849 C 0.20973 0.05996 0.56752 0.0
C850 C 0.22213 0.08679 0.54466 0.0
H851 H 0.22166 0.02172 0.60743 0.0
H852 H 0.18237 0.05149 0.56674 0.0
S853 S 0.3135 0.12184 0.54228 0.0
N854 N 0.31476 0.09079 0.57276 0.0
N855 N 0.27226 0.12272 0.52755 0.0
C856 C 0.2576 0.09703 0.54767 0.0
C857 C 0.28056 0.07961 0.57214 0.0
C858 C 0.89693 0.23248 0.57688 0.0
C859 C 0.87193 0.21405 0.5972 0.0
C860 C 0.92517 0.25029 0.59312 0.0
C861 C 0.92931 0.25048 0.63017 0.0
H862 H 0.8952 0.23242 0.54817 0.0
H863 H 0.9436 0.26461 0.57664 0.0
S864 S 0.87075 0.20741 0.69539 0.0
N865 N 0.85325 0.19717 0.65646 0.0
N866 N 0.9058 0.23194 0.68685 0.0
C867 C 0.90455 0.23247 0.65084 0.0
C868 C 0.87601 0.2139 0.63436 0.0
C869 C 0.7626 0.90945 0.62558 0.0
C870 C 0.72614 0.90277 0.62783 0.0
C871 C 0.78459 0.88823 0.6039 0.0
C872 C 0.77059 0.8603 0.58318 0.0
H873 H 0.77365 0.93264 0.63837 0.0
H874 H 0.81227 0.89534 0.60146 0.0
S875 S 0.67758 0.82962 0.58349 0.0
N876 N 0.67776 0.86391 0.61086 0.0
N877 N 0.71881 0.82508 0.56932 0.0
C878 C 0.73467 0.85211 0.58707 0.0
C879 C 0.71257 0.87305 0.60968 0.0
C880 C 0.3973 0.13413 0.24769 0.0
C881 C 0.43162 0.12142 0.2402 0.0
C882 C 0.37204 0.11226 0.26387 0.0
C883 C 0.38012 0.07683 0.27172 0.0
H884 H 0.38901 0.15979 0.23817 0.0
H885 H 0.34553 0.12246 0.2685 0.0
S886 S 0.46777 0.03312 0.26276 0.0
N887 N 0.47374 0.07316 0.24686 0.0
N888 N 0.42587 0.0317 0.27539 0.0
C889 C 0.41499 0.06485 0.26689 0.0
C890 C 0.44091 0.0874 0.25188 0.0
C891 C 0.85784 0.36274 0.26303 0.0
C892 C 0.89463 0.36465 0.26946 0.0
C893 C 0.84079 0.38724 0.24073 0.0
C894 C 0.85995 0.41492 0.22534 0.0
H895 H 0.84248 0.34152 0.27433 0.0
H896 H 0.81315 0.38337 0.23398 0.0
S897 S 0.95514 0.43528 0.23958 0.0
N898 N 0.94849 0.39873 0.26211 0.0
N899 N 0.91645 0.44534 0.22173 0.0
C900 C 0.89605 0.41857 0.23407 0.0
C901 C 0.91345 0.39327 0.25568 0.0
C902 C 0.59092 0.90308 0.28354 0.0
C903 C 0.61242 0.93154 0.27299 0.0
C904 C 0.5785 0.87813 0.25898 0.0
C905 C 0.58728 0.88024 0.22288 0.0
H906 H 0.58314 0.90017 0.31097 0.0
H907 H 0.56143 0.85723 0.26842 0.0
S908 S 0.64267 0.94966 0.18125 0.0
N909 N 0.64183 0.96039 0.22376 0.0
N910 N 0.61894 0.91332 0.17762 0.0
C911 C 0.60917 0.90832 0.21192 0.0
C912 C 0.62152 0.93399 0.23695 0.0
C913 C 0.04868 0.55455 0.25396 0.0
C914 C 0.04634 0.59178 0.25286 0.0
C915 C 0.07569 0.536 0.23649 0.0
C916 C 0.10112 0.55374 0.21637 0.0
H917 H 0.02996 0.53945 0.26944 0.0
H918 H 0.07622 0.50745 0.23829 0.0
S919 S 0.10598 0.65053 0.20253 0.0
N920 N 0.0714 0.64554 0.22893 0.0
N921 N 0.12153 0.61038 0.19449 0.0
C922 C 0.09838 0.59076 0.21355 0.0
C923 C 0.07108 0.60984 0.23202 0.0
C924 C 0.37068 0.88204 0.78191 0.0
C925 C 0.39116 0.85221 0.77178 0.0
C926 C 0.35206 0.90189 0.7567 0.0
C927 C 0.35302 0.89212 0.72082 0.0
H928 H 0.37126 0.89181 0.809 0.0
H929 H 0.33955 0.92647 0.76486 0.0
S930 S 0.39533 0.81182 0.68211 0.0
N931 N 0.40629 0.8109 0.72452 0.0
N932 N 0.37042 0.84744 0.67727 0.0
C933 C 0.36989 0.86014 0.71113 0.0
C934 C 0.3893 0.84039 0.73658 0.0
C935 C 0.06568 0.39574 0.72908 0.0
C936 C 0.08768 0.36954 0.71426 0.0
C937 C 0.07987 0.42464 0.74733 0.0
C938 C 0.11676 0.42846 0.75187 0.0
H939 H 0.03718 0.39408 0.72617 0.0
H940 H 0.06164 0.44345 0.75938 0.0
S941 S 0.18594 0.36917 0.71412 0.0
N942 N 0.14813 0.35104 0.70152 0.0
N943 N 0.17514 0.40491 0.73727 0.0
C944 C 0.13922 0.40361 0.7352 0.0
C945 C 0.12459 0.37423 0.71609 0.0
C946 C 0.57425 0.03295 0.76281 0.0
C947 C 0.59616 0.04812 0.73727 0.0
C948 C 0.54961 0.05363 0.7816 0.0
C949 C 0.54575 0.09027 0.77538 0.0
H950 H 0.57499 0.00471 0.76712 0.0
H951 H 0.53292 0.04051 0.80078 0.0
S952 S 0.59767 0.14225 0.71095 0.0
N953 N 0.61297 0.10152 0.70639 0.0
N954 N 0.56688 0.14063 0.74209 0.0
C955 C 0.56794 0.10574 0.75008 0.0
C956 C 0.59311 0.08461 0.73101 0.0
C957 C 0.89635 0.6218 0.72472 0.0
C958 C 0.93195 0.61291 0.71783 0.0
C959 C 0.87472 0.59979 0.7452 0.0
C960 C 0.88751 0.56733 0.75786 0.0
H961 H 0.88496 0.64555 0.71352 0.0
H962 H 0.84758 0.60779 0.75049 0.0
S963 S 0.97877 0.53198 0.74729 0.0
N964 N 0.97934 0.57008 0.72624 0.0
N965 N 0.93812 0.52781 0.76309 0.0
C966 C 0.92307 0.55822 0.75135 0.0
C967 C 0.94543 0.58122 0.73166 0.0
C968 C 0.22869 0.36087 0.13593 0.0
C969 C 0.22131 0.39615 0.12702 0.0
C970 C 0.24873 0.33903 0.11302 0.0
C971 C 0.25999 0.3514 0.07984 0.0
H972 H 0.2183 0.35001 0.16028 0.0
H973 H 0.25446 0.31211 0.12073 0.0
S974 S 0.24613 0.44144 0.04437 0.0
N975 N 0.22743 0.44263 0.08387 0.0
N976 N 0.26205 0.40097 0.03934 0.0
C977 C 0.2525 0.38656 0.07079 0.0
C978 C 0.23386 0.4091 0.09478 0.0
C979 C 0.24719 0.60411 0.93672 0.0
C980 C 0.28254 0.59252 0.93544 0.0
C981 C 0.22186 0.59056 0.91302 0.0
C982 C 0.2307 0.56473 0.88711 0.0
H983 H 0.23898 0.62382 0.95606 0.0
H984 H 0.19478 0.59997 0.91552 0.0
S985 S 0.3191 0.52377 0.87413 0.0
N986 N 0.3249 0.55253 0.90678 0.0
N987 N 0.27704 0.52735 0.8625 0.0
C988 C 0.26593 0.55303 0.88539 0.0
C989 C 0.29182 0.56673 0.90955 0.0
C990 C 0.35479 0.21799 0.86599 0.0
C991 C 0.38759 0.22878 0.85172 0.0
C992 C 0.33557 0.23977 0.88919 0.0
C993 C 0.34758 0.27372 0.89752 0.0
H994 H 0.34608 0.19093 0.86254 0.0
H995 H 0.31227 0.22928 0.90214 0.0
S996 S 0.42678 0.3177 0.85949 0.0
N997 N 0.42821 0.27721 0.84285 0.0
N998 N 0.39055 0.31975 0.88412 0.0
C999 C 0.37755 0.28667 0.87926 0.0
C1000 C 0.39786 0.26385 0.85663 0.0
C1001 C 0.73357 0.42024 0.8466 0.0
C1002 C 0.76927 0.41129 0.85195 0.0
C1003 C 0.70655 0.40318 0.86514 0.0
C1004 C 0.71391 0.37641 0.89006 0.0
H1005 H 0.72636 0.44157 0.82899 0.0
H1006 H 0.67958 0.41203 0.86058 0.0
S1007 S 0.80279 0.34058 0.91162 0.0
N1008 N 0.81049 0.3716 0.88213 0.0
N1009 N 0.75938 0.34007 0.91717 0.0
C1010 C 0.74928 0.36577 0.8943 0.0
C1011 C 0.77699 0.38309 0.87528 0.0
C1012 C 0.59962 0.7539 0.92133 0.0
C1013 C 0.62572 0.73594 0.90143 0.0
C1014 C 0.57213 0.77235 0.90439 0.0
C1015 C 0.56999 0.77331 0.86717 0.0
H1016 H 0.5991 0.75175 0.94999 0.0
H1017 H 0.55209 0.78545 0.92047 0.0
S1018 S 0.63375 0.73403 0.80336 0.0
N1019 N 0.64897 0.72236 0.8427 0.0
N1020 N 0.59773 0.75793 0.81106 0.0
C1021 C 0.59688 0.75723 0.84709 0.0
C1022 C 0.62466 0.73828 0.86422 0.0
C1023 C 0.76976 0.56305 0.05005 0.0
C1024 C 0.76376 0.55771 0.08667 0.0
C1025 C 0.74881 0.58623 0.03022 0.0
C1026 C 0.72066 0.60488 0.046 0.0
H1027 H 0.79099 0.54919 0.03635 0.0
H1028 H 0.75429 0.58894 0.00216 0.0
S1029 S 0.69389 0.60119 0.14096 0.0
N1030 N 0.72778 0.57356 0.13788 0.0
N1031 N 0.68801 0.617 0.10069 0.0
C1032 C 0.71417 0.59981 0.08257 0.0
C1033 C 0.7357 0.57621 0.10283 0.0
C1034 C 0.41403 0.76708 0.09271 0.0
C1035 C 0.43967 0.75849 0.11861 0.0
C1036 C 0.39206 0.74125 0.07742 0.0
C1037 C 0.39433 0.70575 0.08778 0.0
H1038 H 0.41131 0.79401 0.08358 0.0
H1039 H 0.37342 0.74916 0.05708 0.0
S1040 S 0.45696 0.66952 0.15499 0.0
N1041 N 0.466 0.71207 0.15396 0.0
N1042 N 0.4246 0.66351 0.12613 0.0
C1043 C 0.41961 0.69693 0.11414 0.0
C1044 C 0.44232 0.72322 0.12924 0.0
C1045 C 0.55429 0.26264 0.09726 0.0
C1046 C 0.56016 0.22626 0.09321 0.0
C1047 C 0.57173 0.28691 0.07541 0.0
C1048 C 0.59615 0.27579 0.04901 0.0
H1049 H 0.5351 0.27237 0.11643 0.0
H1050 H 0.56553 0.31468 0.0789 0.0
S1051 S 0.62283 0.18347 0.0294 0.0
N1052 N 0.59376 0.1803 0.06196 0.0
N1053 N 0.62632 0.22606 0.02129 0.0
C1054 C 0.60336 0.23963 0.04572 0.0
C1055 C 0.5854 0.21486 0.06766 0.0
C1056 C 0.91444 0.6982 0.55586 0.0
C1057 C 0.92161 0.70291 0.5924 0.0
C1058 C 0.88882 0.71861 0.53846 0.0
C1059 C 0.869 0.74418 0.55695 0.0
H1060 H 0.9297 0.67944 0.54015 0.0
H1061 H 0.88636 0.71614 0.5099 0.0
S1062 S 0.87516 0.76532 0.653 0.0
N1063 N 0.90492 0.73369 0.64678 0.0
N1064 N 0.85688 0.77229 0.61382 0.0
C1065 C 0.8746 0.74804 0.59369 0.0
C1066 C 0.90094 0.72747 0.61146 0.0
C1067 C 0.23968 0.92132 0.5739 0.0
C1068 C 0.26294 0.90129 0.59475 0.0
C1069 C 0.21987 0.90555 0.54689 0.0
C1070 C 0.22186 0.86894 0.53992 0.0
H1071 H 0.2372 0.94959 0.57797 0.0
H1072 H 0.20236 0.92231 0.5316 0.0
S1073 S 0.27991 0.80489 0.58614 0.0
N1074 N 0.28826 0.84312 0.60576 0.0
N1075 N 0.24991 0.81326 0.55537 0.0
C1076 C 0.24566 0.84865 0.55994 0.0
C1077 C 0.26632 0.86485 0.58736 0.0
C1078 C 0.10576 0.26451 0.57521 0.0
C1079 C 0.08651 0.25319 0.60515 0.0
C1080 C 0.12713 0.24135 0.55555 0.0
C1081 C 0.13035 0.20573 0.56489 0.0
H1082 H 0.10378 0.29152 0.56613 0.0
H1083 H 0.1401 0.25127 0.53204 0.0
S1084 S 0.08809 0.16325 0.64286 0.0
N1085 N 0.07398 0.20457 0.64464 0.0
N1086 N 0.11441 0.16062 0.60791 0.0
C1087 C 0.11285 0.19436 0.59599 0.0
C1088 C 0.0909 0.21815 0.61604 0.0
C1089 C 0.73833 0.11576 0.61733 0.0
C1090 C 0.75685 0.09884 0.58966 0.0
C1091 C 0.71856 0.09593 0.64164 0.0
C1092 C 0.71789 0.05875 0.63956 0.0
H1093 H 0.74046 0.14405 0.62116 0.0
H1094 H 0.70415 0.10965 0.66253 0.0
S1095 S 0.75846 0.00272 0.56922 0.0
N1096 N 0.77005 0.0434 0.55921 0.0
N1097 N 0.73453 0.00631 0.60574 0.0
C1098 C 0.7353 0.04184 0.61127 0.0
C1099 C 0.75422 0.06191 0.58602 0.0
C1100 C 0.9033 0.20009 0.41951 0.0
C1101 C 0.87128 0.20874 0.43741 0.0
C1102 C 0.91653 0.221 0.39222 0.0
C1103 C 0.89808 0.25113 0.38163 0.0
H1104 H 0.91934 0.17774 0.42754 0.0
H1105 H 0.94271 0.21531 0.38168 0.0
S1106 S 0.81036 0.28204 0.41452 0.0
N1107 N 0.81936 0.24698 0.43873 0.0
N1108 N 0.8442 0.28632 0.38707 0.0
C1109 C 0.86451 0.25822 0.39667 0.0
C1110 C 0.85113 0.23709 0.4247 0.0
C1111 C 0.69914 0.8992 0.40387 0.0
C1112 C 0.71203 0.92587 0.38121 0.0
C1113 C 0.72216 0.87773 0.42365 0.0
C1114 C 0.75889 0.88238 0.42159 0.0
H1115 H 0.67087 0.89611 0.40783 0.0
H1116 H 0.71109 0.85915 0.44227 0.0
S1117 S 0.80619 0.94361 0.36112 0.0
N1118 N 0.76379 0.95224 0.35441 0.0
N1119 N 0.80732 0.9118 0.39075 0.0
C1120 C 0.77212 0.90672 0.39651 0.0
C1121 C 0.74864 0.92846 0.37646 0.0
C1122 C 0.07238 0.73579 0.33914 0.0
C1123 C 0.06824 0.70174 0.35264 0.0
C1124 C 0.0965 0.75925 0.35448 0.0
C1125 C 0.11686 0.74985 0.38439 0.0
H1126 H 0.056 0.74483 0.31738 0.0
H1127 H 0.0974 0.78593 0.34434 0.0
S1128 S 0.11854 0.66254 0.42759 0.0
N1129 N 0.08911 0.65833 0.39539 0.0
N1130 N 0.13358 0.70332 0.42498 0.0
C1131 C 0.11495 0.71511 0.39656 0.0
C1132 C 0.09068 0.69087 0.38057 0.0
C1133 C 0.20873 0.10987 0.35715 0.0
C1134 C 0.19301 0.09695 0.38825 0.0
C1135 C 0.2322 0.08852 0.33712 0.0
C1136 C 0.24002 0.05375 0.34762 0.0
H1137 H 0.20491 0.1372 0.34978 0.0
H1138 H 0.24684 0.10033 0.31556 0.0
S1139 S 0.20333 0.00726 0.42534 0.0
N1140 N 0.18528 0.04704 0.42732 0.0
N1141 N 0.22795 0.00681 0.38913 0.0
C1142 C 0.22185 0.03992 0.37682 0.0
C1143 C 0.19882 0.06165 0.39746 0.0
C1144 C 0.57442 0.84669 0.73792 0.0
C1145 C 0.54291 0.86429 0.74784 0.0
C1146 C 0.60068 0.86416 0.71817 0.0
C1147 C 0.59619 0.89973 0.70864 0.0
H1148 H 0.58007 0.82053 0.74792 0.0
H1149 H 0.62539 0.85061 0.71231 0.0
S1150 S 0.51632 0.95533 0.72361 0.0
N1151 N 0.50688 0.91733 0.74248 0.0
N1152 N 0.55653 0.95038 0.70686 0.0
C1153 C 0.56377 0.91648 0.7161 0.0
C1154 C 0.53695 0.89861 0.73523 0.0
C1155 C 0.07527 0.62154 0.75251 0.0
C1156 C 0.08706 0.62154 0.7172 0.0
C1157 C 0.09439 0.60328 0.77869 0.0
C1158 C 0.12563 0.58423 0.77021 0.0
H1159 H 0.04981 0.63313 0.75932 0.0
H1160 H 0.08318 0.60196 0.80512 0.0
S1161 S 0.17029 0.58147 0.6826 0.0
N1162 N 0.13408 0.60521 0.67602 0.0
N1163 N 0.16966 0.57068 0.72495 0.0
C1164 C 0.13904 0.58666 0.7356 0.0
C1165 C 0.11985 0.60543 0.70919 0.0
C1166 C 0.41341 0.08037 0.74032 0.0
C1167 C 0.39375 0.10227 0.76334 0.0
C1168 C 0.39673 0.05493 0.71926 0.0
C1169 C 0.3598 0.05048 0.72004 0.0
H1170 H 0.44203 0.08249 0.73884 0.0
H1171 H 0.41285 0.03877 0.7018 0.0
S1172 S 0.29602 0.10045 0.77586 0.0
N1173 N 0.33508 0.11713 0.78643 0.0
N1174 N 0.30385 0.06946 0.74568 0.0
C1175 C 0.33971 0.07151 0.74329 0.0
C1176 C 0.35669 0.09742 0.76518 0.0
C1177 C 0.88596 0.38713 0.75181 0.0
C1178 C 0.90237 0.4097 0.7765 0.0
C1179 C 0.90531 0.36032 0.73457 0.0
C1180 C 0.94174 0.35519 0.74126 0.0
H1181 H 0.85826 0.39072 0.74506 0.0
H1182 H 0.89248 0.34554 0.71346 0.0
S1183 S -0.00346 0.40476 0.80585 0.0
N1184 N 0.95689 0.42325 0.80874 0.0
N1185 N -0.00734 0.37266 0.77619 0.0
C1186 C 0.95778 0.37578 0.76765 0.0
C1187 C 0.93832 0.40324 0.78512 0.0
C1188 C 0.57366 0.13897 0.25229 0.0
C1189 C 0.57766 0.13107 0.21605 0.0
C1190 C 0.59134 0.11929 0.27812 0.0
C1191 C 0.61373 0.09062 0.269 0.0
H1192 H 0.55567 0.15971 0.26096 0.0
H1193 H 0.58633 0.12595 0.30569 0.0
S1194 S 0.63507 0.06001 0.17787 0.0
N1195 N 0.60756 0.09356 0.17218 0.0
N1196 N 0.64042 0.05646 0.22118 0.0
C1197 C 0.61956 0.08349 0.23291 0.0
C1198 C 0.60159 0.10369 0.20636 0.0
C1199 C 0.8715 0.58764 0.27037 0.0
C1200 C 0.89231 0.61599 0.25836 0.0
C1201 C 0.85422 0.56486 0.24641 0.0
C1202 C 0.85653 0.57009 0.2096 0.0
H1203 H 0.87 0.58188 0.2984 0.0
H1204 H 0.84 0.54241 0.25679 0.0
S1205 S 0.90359 0.64412 0.16529 0.0
N1206 N 0.91161 0.65007 0.20793 0.0
N1207 N 0.87843 0.60869 0.16274 0.0
C1208 C 0.87535 0.60003 0.19756 0.0
C1209 C 0.89341 0.6226 0.22195 0.0
C1210 C 0.4531 0.88705 0.25607 0.0
C1211 C 0.43798 0.86727 0.22839 0.0
C1212 C 0.43289 0.91197 0.27523 0.0
C1213 C 0.39681 0.91846 0.26717 0.0
H1214 H 0.48132 0.88513 0.26125 0.0
H1215 H 0.44609 0.92716 0.29578 0.0
S1216 S 0.34455 0.87182 0.19799 0.0
N1217 N 0.38474 0.85455 0.19461 0.0
N1218 N 0.34657 0.90108 0.23068 0.0
C1219 C 0.38112 0.89779 0.24036 0.0
C1220 C 0.40171 0.87225 0.22108 0.0
C1221 C 0.07151 0.37721 0.21286 0.0
C1222 C 0.09594 0.40336 0.22375 0.0
C1223 C 0.04881 0.36091 0.23715 0.0
C1224 C 0.04945 0.3705 0.27312 0.0
H1225 H 0.06927 0.36987 0.18511 0.0
H1226 H 0.02965 0.34191 0.22746 0.0
S1227 S 0.11024 0.43549 0.31563 0.0
N1228 N 0.1207 0.43645 0.27313 0.0
N1229 N 0.0784 0.40596 0.31902 0.0
C1230 C 0.07488 0.39547 0.28459 0.0
C1231 C 0.09809 0.41181 0.25987 0.0
C1232 C 0.70489 0.57006 0.87801 0.0
C1233 C 0.71234 0.60579 0.88613 0.0
C1234 C 0.72569 0.55056 0.85397 0.0
C1235 C 0.75471 0.566 0.837 0.0
H1236 H 0.68401 0.5563 0.89187 0.0
H1237 H 0.72138 0.52235 0.8517 0.0
S1238 S 0.78198 0.65976 0.84389 0.0
N1239 N 0.74794 0.65686 0.87132 0.0
N1240 N 0.78729 0.61998 0.82629 0.0
C1241 C 0.7603 0.60245 0.84214 0.0
C1242 C 0.73934 0.62232 0.86692 0.0
C1243 C 0.69893 0.40645 0.07023 0.0
C1244 C 0.70916 0.37759 0.04853 0.0
C1245 C 0.72241 0.42203 0.09445 0.0
C1246 C 0.75722 0.40928 0.09846 0.0
H1247 H 0.67251 0.41762 0.06817 0.0
H1248 H 0.71322 0.4446 0.10981 0.0
S1249 S 0.79716 0.33373 0.04836 0.0
N1250 N 0.75634 0.33662 0.03278 0.0
N1251 N 0.80069 0.36538 0.07856 0.0
C1252 C 0.76774 0.37999 0.07723 0.0
C1253 C 0.74375 0.36439 0.05216 0.0
C1254 C 0.62223 0.78498 0.0796 0.0
C1255 C 0.60068 0.77181 0.10737 0.0
C1256 C 0.6415 0.7624 0.05704 0.0
C1257 C 0.64032 0.72594 0.06182 0.0
H1258 H 0.62218 0.81286 0.07341 0.0
H1259 H 0.65423 0.77325 0.0338 0.0
S1260 S 0.59546 0.67858 0.13507 0.0
N1261 N 0.58457 0.72043 0.14164 0.0
N1262 N 0.62169 0.67789 0.09996 0.0
C1263 C 0.62296 0.71286 0.09225 0.0
C1264 C 0.60287 0.73581 0.1149 0.0
C1265 C 0.2535 0.59894 0.09518 0.0
C1266 C 0.28736 0.58362 0.09161 0.0
C1267 C 0.22588 0.58081 0.11188 0.0
C1268 C 0.23117 0.54696 0.12615 0.0
H1269 H 0.24786 0.62459 0.08396 0.0
H1270 H 0.19975 0.59285 0.11253 0.0
S1271 S 0.31414 0.49459 0.1241 0.0
N1272 N 0.32434 0.53192 0.10435 0.0
N1273 N 0.27217 0.49868 0.13592 0.0
C1274 C 0.26491 0.53171 0.12399 0.0
C1275 C 0.29305 0.54982 0.10665 0.0
C1276 C 0.3494 0.22489 0.08319 0.0
C1277 C 0.36487 0.23605 0.05125 0.0
C1278 C 0.37043 0.2103 0.1104 0.0
C1279 C 0.4076 0.20786 0.10695 0.0
H1280 H 0.3216 0.23012 0.08837 0.0
H1281 H 0.35782 0.20263 0.13496 0.0
S1282 S 0.45992 0.2283 0.02646 0.0
N1283 N 0.41866 0.23849 0.01582 0.0
N1284 N 0.45818 0.21365 0.06755 0.0
C1285 C 0.42285 0.21661 0.07426 0.0
C1286 C 0.40141 0.22975 0.0462 0.0
C1287 C 0.2164 0.38031 0.871 0.0
C1288 C 0.21556 0.41749 0.87206 0.0
C1289 C 0.2316 0.36094 0.89887 0.0
C1290 C 0.24522 0.3783 0.92903 0.0
H1291 H 0.20603 0.36624 0.84813 0.0
H1292 H 0.23426 0.33257 0.896 0.0
S1293 S 0.24282 0.47486 0.94723 0.0
N1294 N 0.22603 0.47053 0.90706 0.0
N1295 N 0.25213 0.43433 0.96008 0.0
C1296 C 0.24166 0.41527 0.93133 0.0
C1297 C 0.22764 0.43487 0.90264 0.0
C1298 C 0.59806 0.23233 0.90401 0.0
C1299 C 0.59671 0.26811 0.89466 0.0
C1300 C 0.5753 0.2076 0.88817 0.0
C1301 C 0.54976 0.21754 0.86266 0.0
H1302 H 0.61654 0.22337 0.92401 0.0
H1303 H 0.57729 0.18042 0.89681 0.0
S1304 S 0.5345 0.30822 0.82946 0.0
N1305 N 0.56739 0.31238 0.85805 0.0
N1306 N 0.52439 0.26589 0.82907 0.0
C1307 C 0.54814 0.25322 0.85296 0.0
C1308 C 0.57167 0.27841 0.8687 0.0
C1309 C 0.41981 0.72258 0.8838 0.0
C1310 C 0.41546 0.75819 0.89349 0.0
C1311 C 0.40504 0.69577 0.90432 0.0
C1312 C 0.38492 0.70355 0.93497 0.0
H1313 H 0.43571 0.71526 0.86094 0.0
H1314 H 0.41007 0.66859 0.89648 0.0
S1315 S 0.364 0.7924 0.97103 0.0
N1316 N 0.38811 0.79986 0.93533 0.0
N1317 N 0.36045 0.74909 0.9735 0.0
C1318 C 0.37916 0.73893 0.94427 0.0
C1319 C 0.39446 0.76634 0.92367 0.0
loop_
_geom_bond_atom_site_label_1
_geom_bond_atom_site_label_2
_geom_bond_distance
_geom_bond_site_symmetry_2
_ccdc_geom_bond_type
Fe0 O2 1.918 . S
Fe0 O5 2.017 . S
Fe0 O6 1.983 1_455 S
Fe0 O11 1.955 1_455 S
Fe0 O14 2.016 . S
Fe1 O2 1.905 1_655 S
Fe1 O9 1.997 . S
Fe1 O12 1.996 . S
Fe1 O16 1.976 . S
Fe1 O19 2.002 . S
O2 Fe0 1.918 . S
O2 Fe1 1.905 1_455 S
O2 Fe3 1.932 . S
Fe3 O2 1.932 . S
Fe3 O4 2.002 . S
Fe3 O13 1.976 . S
Fe3 O17 1.996 . S
Fe3 O20 1.997 . S
O4 Fe3 2.002 . S
O4 C21 1.295 . S
O5 Fe0 2.017 . S
O5 C21 1.235 . S
O6 Fe0 1.983 1_655 S
O6 C7 1.295 . S
C7 O6 1.295 . S
C7 O9 1.235 . S
C8 O13 1.287 . S
C8 O14 1.255 . S
O9 Fe1 1.997 . S
O9 C7 1.235 . S
C10 O16 1.287 1_455 S
C10 O17 1.255 . S
O11 Fe0 1.955 1_655 S
O11 C18 1.287 . S
O12 Fe1 1.996 . S
O12 C18 1.255 . S
O13 Fe3 1.976 . S
O13 C8 1.287 . S
O14 Fe0 2.016 . S
O14 C8 1.255 . S
C15 O19 1.307 . S
C15 O20 1.223 1_655 S
O16 Fe1 1.976 . S
O16 C10 1.287 1_655 S
O17 Fe3 1.996 . S
O17 C10 1.255 . S
C18 O11 1.287 . S
C18 O12 1.255 . S
O19 Fe1 2.002 . S
O19 C15 1.307 . S
O20 Fe3 1.997 . S
O20 C15 1.223 1_455 S
C21 O4 1.295 . S
C21 O5 1.235 . S
Fe22 O24 1.932 . S
Fe22 O27 1.997 . S
Fe22 O28 2.002 . S
Fe22 O33 1.976 . S
Fe22 O36 1.996 . S
Fe23 O24 1.905 1_565 S
Fe23 O31 1.997 . S
Fe23 O34 1.996 . S
Fe23 O38 1.976 . S
Fe23 O41 2.002 . S
O24 Fe22 1.932 . S
O24 Fe23 1.905 1_545 S
O24 Fe25 1.918 . S
Fe25 O24 1.918 . S
Fe25 O26 2.005 . S
Fe25 O35 1.978 . S
Fe25 O39 1.993 1_545 S
Fe25 O42 1.994 1_545 S
O26 Fe25 2.005 . S
O26 C43 1.295 . S
O27 Fe22 1.997 . S
O27 C43 1.235 . S
O28 Fe22 2.002 . S
O28 C29 1.295 . S
C29 O28 1.295 . S
C29 O31 1.235 1_545 S
C30 O35 1.287 . S
C30 O36 1.255 . S
O31 Fe23 1.997 . S
O31 C29 1.235 1_565 S
C32 O38 1.287 . S
C32 O39 1.255 . S
O33 Fe22 1.976 . S
O33 C40 1.272 1_545 S
O34 Fe23 1.996 . S
O34 C40 1.270 . S
O35 Fe25 1.978 . S
O35 C30 1.287 . S
O36 Fe22 1.996 . S
O36 C30 1.255 . S
C37 O41 1.295 . S
C37 O42 1.235 . S
O38 Fe23 1.976 . S
O38 C32 1.287 . S
O39 Fe25 1.993 1_565 S
O39 C32 1.255 . S
C40 O33 1.272 1_565 S
C40 O34 1.270 . S
O41 Fe23 2.002 . S
O41 C37 1.295 . S
O42 Fe25 1.994 1_565 S
O42 C37 1.235 . S
C43 O26 1.295 . S
C43 O27 1.235 . S
Fe44 O46 1.918 1_655 S
Fe44 O49 1.997 . S
Fe44 O50 2.002 . S
Fe44 O55 1.976 . S
Fe44 O58 1.996 . S
Fe45 O46 1.918 1_655 S
Fe45 O53 2.001 . S
Fe45 O56 2.000 . S
Fe45 O60 1.972 1_655 S
Fe45 O63 1.998 1_655 S
O46 Fe44 1.918 1_455 S
O46 Fe45 1.918 1_455 S
O46 Fe47 1.918 . S
Fe47 O46 1.918 . S
Fe47 O48 2.002 . S
Fe47 O57 1.976 . S
Fe47 O61 1.996 . S
Fe47 O64 1.997 . S
O48 Fe47 2.002 . S
O48 C65 1.295 . S
O49 Fe44 1.997 . S
O49 C65 1.235 1_655 S
O50 Fe44 2.002 . S
O50 C51 1.295 . S
C51 O50 1.295 . S
C51 O53 1.235 . S
C52 O57 1.259 1_655 S
C52 O58 1.283 . S
O53 Fe45 2.001 . S
O53 C51 1.235 . S
C54 O60 1.287 . S
C54 O61 1.255 . S
O55 Fe44 1.976 . S
O55 C62 1.287 . S
O56 Fe45 2.000 . S
O56 C62 1.255 . S
O57 Fe47 1.976 . S
O57 C52 1.259 1_455 S
O58 Fe44 1.996 . S
O58 C52 1.283 . S
C59 O63 1.295 . S
C59 O64 1.235 . S
O60 Fe45 1.972 1_455 S
O60 C54 1.287 . S
O61 Fe47 1.996 . S
O61 C54 1.255 . S
C62 O55 1.287 . S
C62 O56 1.255 . S
O63 Fe45 1.998 1_455 S
O63 C59 1.295 . S
O64 Fe47 1.997 . S
O64 C59 1.235 . S
C65 O48 1.295 . S
C65 O49 1.235 1_455 S
Fe66 O68 1.918 . S
Fe66 O71 1.997 . S
Fe66 O72 2.002 . S
Fe66 O77 1.976 . S
Fe66 O80 1.996 . S
Fe67 O68 1.918 . S
Fe67 O75 2.005 . S
Fe67 O78 2.004 . S
Fe67 O82 1.967 1_545 S
Fe67 O85 1.994 1_545 S
O68 Fe66 1.918 . S
O68 Fe67 1.918 . S
O68 Fe69 1.918 1_545 S
Fe69 O68 1.918 1_565 S
Fe69 O70 2.002 . S
Fe69 O79 1.976 . S
Fe69 O83 1.996 . S
Fe69 O86 1.997 . S
O70 Fe69 2.002 . S
O70 C87 1.320 . S
O71 Fe66 1.997 . S
O71 C87 1.211 1_545 S
O72 Fe66 2.002 . S
O72 C73 1.295 . S
C73 O72 1.295 . S
C73 O75 1.235 . S
C74 O79 1.287 1_545 S
C74 O80 1.255 . S
O75 Fe67 2.005 . S
O75 C73 1.235 . S
C76 O82 1.287 . S
C76 O83 1.255 . S
O77 Fe66 1.976 . S
O77 C84 1.287 . S
O78 Fe67 2.004 . S
O78 C84 1.255 . S
O79 Fe69 1.976 . S
O79 C74 1.287 1_565 S
O80 Fe66 1.996 . S
O80 C74 1.255 . S
C81 O85 1.295 . S
C81 O86 1.235 . S
O82 Fe67 1.967 1_565 S
O82 C76 1.287 . S
O83 Fe69 1.996 . S
O83 C76 1.255 . S
C84 O77 1.287 . S
C84 O78 1.255 . S
O85 Fe67 1.994 1_565 S
O85 C81 1.295 . S
O86 Fe69 1.997 . S
O86 C81 1.235 . S
C87 O70 1.320 . S
C87 O71 1.211 1_565 S
Fe88 O90 1.918 . S
Fe88 O93 1.997 . S
Fe88 O94 2.002 . S
Fe88 O99 1.976 . S
Fe88 O102 1.996 . S
Fe89 O90 1.918 1_655 S
Fe89 O97 1.997 . S
Fe89 O100 1.996 . S
Fe89 O104 1.976 . S
Fe89 O107 2.002 . S
O90 Fe88 1.918 . S
O90 Fe89 1.918 1_455 S
O90 Fe91 1.918 1_455 S
Fe91 O90 1.918 1_655 S
Fe91 O92 1.998 1_655 S
Fe91 O101 1.971 1_655 S
Fe91 O105 2.000 . S
Fe91 O108 2.001 . S
O92 Fe91 1.998 1_455 S
O92 C109 1.295 . S
O93 Fe88 1.997 . S
O93 C109 1.235 . S
O94 Fe88 2.002 . S
O94 C95 1.295 . S
C95 O94 1.295 . S
C95 O97 1.235 1_455 S
C96 O101 1.287 . S
C96 O102 1.255 . S
O97 Fe89 1.997 . S
O97 C95 1.235 1_655 S
C98 O104 1.287 . S
C98 O105 1.255 . S
O99 Fe88 1.976 . S
O99 C106 1.260 1_455 S
O100 Fe89 1.996 . S
O100 C106 1.281 . S
O101 Fe91 1.971 1_455 S
O101 C96 1.287 . S
O102 Fe88 1.996 . S
O102 C96 1.255 . S
C103 O107 1.295 . S
C103 O108 1.235 . S
O104 Fe89 1.976 . S
O104 C98 1.287 . S
O105 Fe91 2.000 . S
O105 C98 1.255 . S
C106 O99 1.260 1_655 S
C106 O100 1.281 . S
O107 Fe89 2.002 . S
O107 C103 1.295 . S
O108 Fe91 2.001 . S
O108 C103 1.235 . S
C109 O92 1.295 . S
C109 O93 1.235 . S
Fe110 O112 1.918 1_565 S
Fe110 O115 1.997 . S
Fe110 O116 2.002 . S
Fe110 O121 1.976 . S
Fe110 O124 1.996 . S
Fe111 O112 1.918 . S
Fe111 O119 1.997 . S
Fe111 O122 1.996 . S
Fe111 O126 1.976 . S
Fe111 O129 2.002 . S
O112 Fe110 1.918 1_545 S
O112 Fe111 1.918 . S
O112 Fe113 1.918 . S
Fe113 O112 1.918 . S
Fe113 O114 1.994 1_545 S
Fe113 O123 1.967 1_545 S
Fe113 O127 2.004 . S
Fe113 O130 2.005 . S
O114 Fe113 1.994 1_565 S
O114 C131 1.295 . S
O115 Fe110 1.997 . S
O115 C131 1.235 . S
O116 Fe110 2.002 . S
O116 C117 1.319 . S
C117 O116 1.319 . S
C117 O119 1.212 1_565 S
C118 O123 1.287 . S
C118 O124 1.255 . S
O119 Fe111 1.997 . S
O119 C117 1.212 1_545 S
C120 O126 1.287 . S
C120 O127 1.255 . S
O121 Fe110 1.976 . S
O121 C128 1.287 1_565 S
O122 Fe111 1.996 . S
O122 C128 1.255 . S
O123 Fe113 1.967 1_565 S
O123 C118 1.287 . S
O124 Fe110 1.996 . S
O124 C118 1.255 . S
C125 O129 1.295 . S
C125 O130 1.235 . S
O126 Fe111 1.976 . S
O126 C120 1.287 . S
O127 Fe113 2.004 . S
O127 C120 1.255 . S
C128 O121 1.287 1_545 S
C128 O122 1.255 . S
O129 Fe111 2.002 . S
O129 C125 1.295 . S
O130 Fe113 2.005 . S
O130 C125 1.235 . S
C131 O114 1.295 . S
C131 O115 1.235 . S
Fe132 O134 1.932 . S
Fe132 O137 1.997 . S
Fe132 O138 2.002 . S
Fe132 O143 1.976 . S
Fe132 O146 1.996 . S
Fe133 O134 1.918 . S
Fe133 O141 2.017 . S
Fe133 O144 2.016 . S
Fe133 O148 1.955 1_455 S
Fe133 O151 1.983 1_455 S
O134 Fe132 1.932 . S
O134 Fe133 1.918 . S
O134 Fe135 1.905 1_455 S
Fe135 O134 1.905 1_655 S
Fe135 O136 2.002 . S
Fe135 O145 1.976 . S
Fe135 O149 1.996 . S
Fe135 O152 1.997 . S
O136 Fe135 2.002 . S
O136 C153 1.306 . S
O137 Fe132 1.997 . S
O137 C153 1.225 1_455 S
O138 Fe132 2.002 . S
O138 C139 1.295 . S
C139 O138 1.295 . S
C139 O141 1.235 . S
C140 O145 1.287 1_455 S
C140 O146 1.255 . S
O141 Fe133 2.017 . S
O141 C139 1.235 . S
C142 O148 1.287 . S
C142 O149 1.255 . S
O143 Fe132 1.976 . S
O143 C150 1.287 . S
O144 Fe133 2.016 . S
O144 C150 1.255 . S
O145 Fe135 1.976 . S
O145 C140 1.287 1_655 S
O146 Fe132 1.996 . S
O146 C140 1.255 . S
C147 O151 1.295 . S
C147 O152 1.235 . S
O148 Fe133 1.955 1_655 S
O148 C142 1.287 . S
O149 Fe135 1.996 . S
O149 C142 1.255 . S
C150 O143 1.287 . S
C150 O144 1.255 . S
O151 Fe133 1.983 1_655 S
O151 C147 1.295 . S
O152 Fe135 1.997 . S
O152 C147 1.235 . S
C153 O136 1.306 . S
C153 O137 1.225 1_655 S
Fe154 O156 1.905 1_565 S
Fe154 O159 1.997 . S
Fe154 O160 2.002 . S
Fe154 O165 1.976 . S
Fe154 O168 1.996 . S
Fe155 O156 1.918 . S
Fe155 O163 1.994 1_545 S
Fe155 O166 1.993 1_545 S
Fe155 O170 1.978 . S
Fe155 O173 2.005 . S
O156 Fe154 1.905 1_545 S
O156 Fe155 1.918 . S
O156 Fe157 1.932 . S
Fe157 O156 1.932 . S
Fe157 O158 2.002 . S
Fe157 O167 1.976 . S
Fe157 O171 1.996 . S
Fe157 O174 1.997 . S
O158 Fe157 2.002 . S
O158 C175 1.295 . S
O159 Fe154 1.997 . S
O159 C175 1.235 1_565 S
O160 Fe154 2.002 . S
O160 C161 1.295 . S
C161 O160 1.295 . S
C161 O163 1.235 . S
C162 O167 1.273 1_565 S
C162 O168 1.269 . S
O163 Fe155 1.994 1_565 S
O163 C161 1.235 . S
C164 O170 1.287 . S
C164 O171 1.255 . S
O165 Fe154 1.976 . S
O165 C172 1.287 . S
O166 Fe155 1.993 1_565 S
O166 C172 1.255 . S
O167 Fe157 1.976 . S
O167 C162 1.273 1_545 S
O168 Fe154 1.996 . S
O168 C162 1.269 . S
C169 O173 1.295 . S
C169 O174 1.235 . S
O170 Fe155 1.978 . S
O170 C164 1.287 . S
O171 Fe157 1.996 . S
O171 C164 1.255 . S
C172 O165 1.287 . S
C172 O166 1.255 . S
O173 Fe155 2.005 . S
O173 C169 1.295 . S
O174 Fe157 1.997 . S
O174 C169 1.235 . S
C175 O158 1.295 . S
C175 O159 1.235 1_545 S
Fe176 O178 1.918 1_556 S
Fe176 O181 2.001 . S
Fe176 O182 1.999 1_556 S
Fe176 O187 1.972 1_556 S
Fe176 O190 2.000 . S
Fe177 O178 1.918 . S
Fe177 O185 1.997 . S
Fe177 O188 1.996 . S
Fe177 O192 1.976 . S
Fe177 O195 2.002 . S
O178 Fe176 1.918 1_554 S
O178 Fe177 1.918 . S
O178 Fe179 1.918 1_554 S
Fe179 O178 1.918 1_556 S
Fe179 O180 2.002 . S
Fe179 O189 1.976 . S
Fe179 O193 1.996 . S
Fe179 O196 1.997 . S
O180 Fe179 2.002 . S
O180 C197 1.295 . S
O181 Fe176 2.001 . S
O181 C197 1.235 . S
O182 Fe176 1.999 1_554 S
O182 C183 1.295 . S
C183 O182 1.295 . S
C183 O185 1.235 . S
C184 O189 1.287 . S
C184 O190 1.255 . S
O185 Fe177 1.997 . S
O185 C183 1.235 . S
C186 O192 1.287 1_556 S
C186 O193 1.255 . S
O187 Fe176 1.972 1_554 S
O187 C194 1.287 . S
O188 Fe177 1.996 . S
O188 C194 1.255 . S
O189 Fe179 1.976 . S
O189 C184 1.287 . S
O190 Fe176 2.000 . S
O190 C184 1.255 . S
C191 O195 1.295 . S
C191 O196 1.235 1_554 S
O192 Fe177 1.976 . S
O192 C186 1.287 1_554 S
O193 Fe179 1.996 . S
O193 C186 1.255 . S
C194 O187 1.287 . S
C194 O188 1.255 . S
O195 Fe177 2.002 . S
O195 C191 1.295 . S
O196 Fe179 1.997 . S
O196 C191 1.235 1_556 S
C197 O180 1.295 . S
C197 O181 1.235 . S
Fe198 O200 1.918 1_556 S
Fe198 O203 2.000 . S
Fe198 O204 1.999 1_556 S
Fe198 O209 1.972 1_556 S
Fe198 O212 1.999 . S
Fe199 O200 1.918 . S
Fe199 O207 1.997 . S
Fe199 O210 1.996 . S
Fe199 O214 1.976 . S
Fe199 O217 2.002 . S
O200 Fe198 1.918 1_554 S
O200 Fe199 1.918 . S
O200 Fe201 1.918 1_554 S
Fe201 O200 1.918 1_556 S
Fe201 O202 2.002 . S
Fe201 O211 1.976 . S
Fe201 O215 1.996 . S
Fe201 O218 1.997 . S
O202 Fe201 2.002 . S
O202 C219 1.295 . S
O203 Fe198 2.000 . S
O203 C219 1.235 . S
O204 Fe198 1.999 1_554 S
O204 C205 1.295 . S
C205 O204 1.295 . S
C205 O207 1.235 . S
C206 O211 1.287 . S
C206 O212 1.255 . S
O207 Fe199 1.997 . S
O207 C205 1.235 . S
C208 O214 1.262 1_556 S
C208 O215 1.280 . S
O209 Fe198 1.972 1_554 S
O209 C216 1.287 . S
O210 Fe199 1.996 . S
O210 C216 1.255 . S
O211 Fe201 1.976 . S
O211 C206 1.287 . S
O212 Fe198 1.999 . S
O212 C206 1.255 . S
C213 O217 1.324 . S
C213 O218 1.207 1_554 S
O214 Fe199 1.976 . S
O214 C208 1.262 1_554 S
O215 Fe201 1.996 . S
O215 C208 1.280 . S
C216 O209 1.287 . S
C216 O210 1.255 . S
O217 Fe199 2.002 . S
O217 C213 1.324 . S
O218 Fe201 1.997 . S
O218 C213 1.207 1_556 S
C219 O202 1.295 . S
C219 O203 1.235 . S
Fe220 O222 1.918 . S
Fe220 O225 1.997 . S
Fe220 O226 2.002 . S
Fe220 O231 1.976 . S
Fe220 O234 1.996 . S
Fe221 O222 1.918 1_556 S
Fe221 O229 1.997 . S
Fe221 O232 1.996 . S
Fe221 O236 1.976 . S
Fe221 O239 2.002 . S
O222 Fe220 1.918 . S
O222 Fe221 1.918 1_554 S
O222 Fe223 1.918 1_554 S
Fe223 O222 1.918 1_556 S
Fe223 O224 1.999 1_556 S
Fe223 O233 1.972 1_556 S
Fe223 O237 1.999 . S
Fe223 O240 2.000 . S
O224 Fe223 1.999 1_554 S
O224 C241 1.295 . S
O225 Fe220 1.997 . S
O225 C241 1.235 . S
O226 Fe220 2.002 . S
O226 C227 1.324 . S
C227 O226 1.324 . S
C227 O229 1.207 1_554 S
C228 O233 1.287 . S
C228 O234 1.255 . S
O229 Fe221 1.997 . S
O229 C227 1.207 1_556 S
C230 O236 1.287 . S
C230 O237 1.255 . S
O231 Fe220 1.976 . S
O231 C238 1.262 1_554 S
O232 Fe221 1.996 . S
O232 C238 1.280 . S
O233 Fe223 1.972 1_554 S
O233 C228 1.287 . S
O234 Fe220 1.996 . S
O234 C228 1.255 . S
C235 O239 1.295 . S
C235 O240 1.235 . S
O236 Fe221 1.976 . S
O236 C230 1.287 . S
O237 Fe223 1.999 . S
O237 C230 1.255 . S
C238 O231 1.262 1_556 S
C238 O232 1.280 . S
O239 Fe221 2.002 . S
O239 C235 1.295 . S
O240 Fe223 2.000 . S
O240 C235 1.235 . S
C241 O224 1.295 . S
C241 O225 1.235 . S
Fe242 O244 1.918 1_556 S
Fe242 O247 1.997 . S
Fe242 O248 2.002 . S
Fe242 O253 1.976 . S
Fe242 O256 1.996 . S
Fe243 O244 1.918 1_556 S
Fe243 O251 2.001 . S
Fe243 O254 2.000 . S
Fe243 O258 1.972 1_556 S
Fe243 O261 1.999 1_556 S
O244 Fe242 1.918 1_554 S
O244 Fe243 1.918 1_554 S
O244 Fe245 1.918 . S
Fe245 O244 1.918 . S
Fe245 O246 2.002 . S
Fe245 O255 1.976 . S
Fe245 O259 1.996 . S
Fe245 O262 1.997 . S
O246 Fe245 2.002 . S
O246 C263 1.295 . S
O247 Fe242 1.997 . S
O247 C263 1.235 1_556 S
O248 Fe242 2.002 . S
O248 C249 1.295 . S
C249 O248 1.295 . S
C249 O251 1.235 . S
C250 O255 1.287 1_556 S
C250 O256 1.255 . S
O251 Fe243 2.001 . S
O251 C249 1.235 . S
C252 O258 1.287 . S
C252 O259 1.255 . S
O253 Fe242 1.976 . S
O253 C260 1.287 . S
O254 Fe243 2.000 . S
O254 C260 1.255 . S
O255 Fe245 1.976 . S
O255 C250 1.287 1_554 S
O256 Fe242 1.996 . S
O256 C250 1.255 . S
C257 O261 1.295 . S
C257 O262 1.235 . S
O258 Fe243 1.972 1_554 S
O258 C252 1.287 . S
O259 Fe245 1.996 . S
O259 C252 1.255 . S
C260 O253 1.287 . S
C260 O254 1.255 . S
O261 Fe243 1.999 1_554 S
O261 C257 1.295 . S
O262 Fe245 1.997 . S
O262 C257 1.235 . S
C263 O246 1.295 . S
C263 O247 1.235 1_554 S
Fe264 O266 1.918 . S
Fe264 O269 1.997 . S
Fe264 O270 2.002 . S
Fe264 O275 1.976 . S
Fe264 O278 1.996 . S
Fe265 O266 1.918 . S
Fe265 O273 1.997 . S
Fe265 O276 1.996 . S
Fe265 O280 1.976 . S
Fe265 O283 2.002 . S
O266 Fe264 1.918 . S
O266 Fe265 1.918 . S
O266 Fe267 1.918 . S
Fe267 O266 1.918 . S
Fe267 O268 2.002 . S
Fe267 O277 1.976 . S
Fe267 O281 1.996 . S
Fe267 O284 1.997 . S
O268 Fe267 2.002 . S
O268 C285 1.295 . S
O269 Fe264 1.997 . S
O269 C285 1.235 . S
O270 Fe264 2.002 . S
O270 C271 1.295 . S
C271 O270 1.295 . S
C271 O273 1.235 . S
C272 O277 1.287 . S
C272 O278 1.255 . S
O273 Fe265 1.997 . S
O273 C271 1.235 . S
C274 O280 1.287 . S
C274 O281 1.255 . S
O275 Fe264 1.976 . S
O275 C282 1.287 . S
O276 Fe265 1.996 . S
O276 C282 1.255 . S
O277 Fe267 1.976 . S
O277 C272 1.287 . S
O278 Fe264 1.996 . S
O278 C272 1.255 . S
C279 O283 1.295 . S
C279 O284 1.235 . S
O280 Fe265 1.976 . S
O280 C274 1.287 . S
O281 Fe267 1.996 . S
O281 C274 1.255 . S
C282 O275 1.287 . S
C282 O276 1.255 . S
O283 Fe265 2.002 . S
O283 C279 1.295 . S
O284 Fe267 1.997 . S
O284 C279 1.235 . S
C285 O268 1.295 . S
C285 O269 1.235 . S
Fe286 O288 1.918 . S
Fe286 O291 1.997 . S
Fe286 O292 2.002 . S
Fe286 O297 1.976 . S
Fe286 O300 1.996 . S
Fe287 O288 1.918 . S
Fe287 O295 1.997 . S
Fe287 O298 1.996 . S
Fe287 O302 1.976 . S
Fe287 O305 2.002 . S
O288 Fe286 1.918 . S
O288 Fe287 1.918 . S
O288 Fe289 1.918 . S
Fe289 O288 1.918 . S
Fe289 O290 2.002 . S
Fe289 O299 1.976 . S
Fe289 O303 1.996 . S
Fe289 O306 1.997 . S
O290 Fe289 2.002 . S
O290 C307 1.295 . S
O291 Fe286 1.997 . S
O291 C307 1.235 . S
O292 Fe286 2.002 . S
O292 C293 1.295 . S
C293 O292 1.295 . S
C293 O295 1.235 . S
C294 O299 1.287 . S
C294 O300 1.255 . S
O295 Fe287 1.997 . S
O295 C293 1.235 . S
C296 O302 1.287 . S
C296 O303 1.255 . S
O297 Fe286 1.976 . S
O297 C304 1.287 . S
O298 Fe287 1.996 . S
O298 C304 1.255 . S
O299 Fe289 1.976 . S
O299 C294 1.287 . S
O300 Fe286 1.996 . S
O300 C294 1.255 . S
C301 O305 1.295 . S
C301 O306 1.235 . S
O302 Fe287 1.976 . S
O302 C296 1.287 . S
O303 Fe289 1.996 . S
O303 C296 1.255 . S
C304 O297 1.287 . S
C304 O298 1.255 . S
O305 Fe287 2.002 . S
O305 C301 1.295 . S
O306 Fe289 1.997 . S
O306 C301 1.235 . S
C307 O290 1.295 . S
C307 O291 1.235 . S
Fe308 O310 1.918 . S
Fe308 O313 1.997 . S
Fe308 O314 2.002 . S
Fe308 O319 1.976 . S
Fe308 O322 1.996 . S
Fe309 O310 1.918 . S
Fe309 O317 1.997 . S
Fe309 O320 1.996 . S
Fe309 O324 1.976 . S
Fe309 O327 2.002 . S
O310 Fe308 1.918 . S
O310 Fe309 1.918 . S
O310 Fe311 1.918 . S
Fe311 O310 1.918 . S
Fe311 O312 2.002 . S
Fe311 O321 1.976 . S
Fe311 O325 1.996 . S
Fe311 O328 1.997 . S
O312 Fe311 2.002 . S
O312 C329 1.295 . S
O313 Fe308 1.997 . S
O313 C329 1.235 . S
O314 Fe308 2.002 . S
O314 C315 1.295 . S
C315 O314 1.295 . S
C315 O317 1.235 . S
C316 O321 1.287 . S
C316 O322 1.255 . S
O317 Fe309 1.997 . S
O317 C315 1.235 . S
C318 O324 1.287 . S
C318 O325 1.255 . S
O319 Fe308 1.976 . S
O319 C326 1.287 . S
O320 Fe309 1.996 . S
O320 C326 1.255 . S
O321 Fe311 1.976 . S
O321 C316 1.287 . S
O322 Fe308 1.996 . S
O322 C316 1.255 . S
C323 O327 1.295 . S
C323 O328 1.235 . S
O324 Fe309 1.976 . S
O324 C318 1.287 . S
O325 Fe311 1.996 . S
O325 C318 1.255 . S
C326 O319 1.287 . S
C326 O320 1.255 . S
O327 Fe309 2.002 . S
O327 C323 1.295 . S
O328 Fe311 1.997 . S
O328 C323 1.235 . S
C329 O312 1.295 . S
C329 O313 1.235 . S
Fe330 O332 1.918 . S
Fe330 O335 1.997 . S
Fe330 O336 2.002 . S
Fe330 O341 1.976 . S
Fe330 O344 1.996 . S
Fe331 O332 1.918 . S
Fe331 O339 1.997 . S
Fe331 O342 1.996 . S
Fe331 O346 1.976 . S
Fe331 O349 2.002 . S
O332 Fe330 1.918 . S
O332 Fe331 1.918 . S
O332 Fe333 1.918 . S
Fe333 O332 1.918 . S
Fe333 O334 2.002 . S
Fe333 O343 1.976 . S
Fe333 O347 1.996 . S
Fe333 O350 1.997 . S
O334 Fe333 2.002 . S
O334 C351 1.295 . S
O335 Fe330 1.997 . S
O335 C351 1.235 . S
O336 Fe330 2.002 . S
O336 C337 1.295 . S
C337 O336 1.295 . S
C337 O339 1.235 . S
C338 O343 1.287 . S
C338 O344 1.255 . S
O339 Fe331 1.997 . S
O339 C337 1.235 . S
C340 O346 1.287 . S
C340 O347 1.255 . S
O341 Fe330 1.976 . S
O341 C348 1.287 . S
O342 Fe331 1.996 . S
O342 C348 1.255 . S
O343 Fe333 1.976 . S
O343 C338 1.287 . S
O344 Fe330 1.996 . S
O344 C338 1.255 . S
C345 O349 1.295 . S
C345 O350 1.235 . S
O346 Fe331 1.976 . S
O346 C340 1.287 . S
O347 Fe333 1.996 . S
O347 C340 1.255 . S
C348 O341 1.287 . S
C348 O342 1.255 . S
O349 Fe331 2.002 . S
O349 C345 1.295 . S
O350 Fe333 1.997 . S
O350 C345 1.235 . S
C351 O334 1.295 . S
C351 O335 1.235 . S
Fe352 O354 1.918 . S
Fe352 O357 1.997 . S
Fe352 O358 2.002 . S
Fe352 O363 1.976 . S
Fe352 O366 1.996 . S
Fe353 O354 1.918 . S
Fe353 O361 1.997 . S
Fe353 O364 1.996 . S
Fe353 O368 1.976 . S
Fe353 O371 2.002 . S
O354 Fe352 1.918 . S
O354 Fe353 1.918 . S
O354 Fe355 1.918 . S
Fe355 O354 1.918 . S
Fe355 O356 2.002 . S
Fe355 O365 1.976 . S
Fe355 O369 1.996 . S
Fe355 O372 1.997 . S
O356 Fe355 2.002 . S
O356 C373 1.295 . S
O357 Fe352 1.997 . S
O357 C373 1.235 . S
O358 Fe352 2.002 . S
O358 C359 1.295 . S
C359 O358 1.295 . S
C359 O361 1.235 . S
C360 O365 1.287 . S
C360 O366 1.255 . S
O361 Fe353 1.997 . S
O361 C359 1.235 . S
C362 O368 1.287 . S
C362 O369 1.255 . S
O363 Fe352 1.976 . S
O363 C370 1.287 . S
O364 Fe353 1.996 . S
O364 C370 1.255 . S
O365 Fe355 1.976 . S
O365 C360 1.287 . S
O366 Fe352 1.996 . S
O366 C360 1.255 . S
C367 O371 1.295 . S
C367 O372 1.235 . S
O368 Fe353 1.976 . S
O368 C362 1.287 . S
O369 Fe355 1.996 . S
O369 C362 1.255 . S
C370 O363 1.287 . S
C370 O364 1.255 . S
O371 Fe353 2.002 . S
O371 C367 1.295 . S
O372 Fe355 1.997 . S
O372 C367 1.235 . S
C373 O356 1.295 . S
C373 O357 1.235 . S
Fe374 O376 1.918 . S
Fe374 O379 1.997 . S
Fe374 O380 2.002 . S
Fe374 O385 1.976 . S
Fe374 O388 1.996 . S
Fe375 O376 1.918 . S
Fe375 O383 1.997 . S
Fe375 O386 1.996 . S
Fe375 O390 1.976 . S
Fe375 O393 2.002 . S
O376 Fe374 1.918 . S
O376 Fe375 1.918 . S
O376 Fe377 1.918 . S
Fe377 O376 1.918 . S
Fe377 O378 2.002 . S
Fe377 O387 1.976 . S
Fe377 O391 1.996 . S
Fe377 O394 1.997 . S
O378 Fe377 2.002 . S
O378 C395 1.295 . S
O379 Fe374 1.997 . S
O379 C395 1.235 . S
O380 Fe374 2.002 . S
O380 C381 1.295 . S
C381 O380 1.295 . S
C381 O383 1.235 . S
C382 O387 1.287 . S
C382 O388 1.255 . S
O383 Fe375 1.997 . S
O383 C381 1.235 . S
C384 O390 1.287 . S
C384 O391 1.255 . S
O385 Fe374 1.976 . S
O385 C392 1.287 . S
O386 Fe375 1.996 . S
O386 C392 1.255 . S
O387 Fe377 1.976 . S
O387 C382 1.287 . S
O388 Fe374 1.996 . S
O388 C382 1.255 . S
C389 O393 1.295 . S
C389 O394 1.235 . S
O390 Fe375 1.976 . S
O390 C384 1.287 . S
O391 Fe377 1.996 . S
O391 C384 1.255 . S
C392 O385 1.287 . S
C392 O386 1.255 . S
O393 Fe375 2.002 . S
O393 C389 1.295 . S
O394 Fe377 1.997 . S
O394 C389 1.235 . S
C395 O378 1.295 . S
C395 O379 1.235 . S
Fe396 O398 1.918 . S
Fe396 O401 1.997 . S
Fe396 O402 2.002 . S
Fe396 O407 1.976 . S
Fe396 O410 1.996 . S
Fe397 O398 1.918 . S
Fe397 O405 1.997 . S
Fe397 O408 1.996 . S
Fe397 O412 1.976 . S
Fe397 O415 2.002 . S
O398 Fe396 1.918 . S
O398 Fe397 1.918 . S
O398 Fe399 1.918 . S
Fe399 O398 1.918 . S
Fe399 O400 2.002 . S
Fe399 O409 1.976 . S
Fe399 O413 1.996 . S
Fe399 O416 1.997 . S
O400 Fe399 2.002 . S
O400 C417 1.295 . S
O401 Fe396 1.997 . S
O401 C417 1.235 . S
O402 Fe396 2.002 . S
O402 C403 1.295 . S
C403 O402 1.295 . S
C403 O405 1.235 . S
C404 O409 1.287 . S
C404 O410 1.255 . S
O405 Fe397 1.997 . S
O405 C403 1.235 . S
C406 O412 1.287 . S
C406 O413 1.255 . S
O407 Fe396 1.976 . S
O407 C414 1.287 . S
O408 Fe397 1.996 . S
O408 C414 1.255 . S
O409 Fe399 1.976 . S
O409 C404 1.287 . S
O410 Fe396 1.996 . S
O410 C404 1.255 . S
C411 O415 1.295 . S
C411 O416 1.235 . S
O412 Fe397 1.976 . S
O412 C406 1.287 . S
O413 Fe399 1.996 . S
O413 C406 1.255 . S
C414 O407 1.287 . S
C414 O408 1.255 . S
O415 Fe397 2.002 . S
O415 C411 1.295 . S
O416 Fe399 1.997 . S
O416 C411 1.235 . S
C417 O400 1.295 . S
C417 O401 1.235 . S
Fe418 O420 1.918 . S
Fe418 O423 1.997 . S
Fe418 O424 2.002 . S
Fe418 O429 1.976 . S
Fe418 O432 1.996 . S
Fe419 O420 1.918 . S
Fe419 O427 1.997 . S
Fe419 O430 1.996 . S
Fe419 O434 1.976 . S
Fe419 O437 2.002 . S
O420 Fe418 1.918 . S
O420 Fe419 1.918 . S
O420 Fe421 1.918 . S
Fe421 O420 1.918 . S
Fe421 O422 2.002 . S
Fe421 O431 1.976 . S
Fe421 O435 1.996 . S
Fe421 O438 1.997 . S
O422 Fe421 2.002 . S
O422 C439 1.295 . S
O423 Fe418 1.997 . S
O423 C439 1.235 . S
O424 Fe418 2.002 . S
O424 C425 1.295 . S
C425 O424 1.295 . S
C425 O427 1.235 . S
C426 O431 1.287 . S
C426 O432 1.255 . S
O427 Fe419 1.997 . S
O427 C425 1.235 . S
C428 O434 1.287 . S
C428 O435 1.255 . S
O429 Fe418 1.976 . S
O429 C436 1.287 . S
O430 Fe419 1.996 . S
O430 C436 1.255 . S
O431 Fe421 1.976 . S
O431 C426 1.287 . S
O432 Fe418 1.996 . S
O432 C426 1.255 . S
C433 O437 1.295 . S
C433 O438 1.235 . S
O434 Fe419 1.976 . S
O434 C428 1.287 . S
O435 Fe421 1.996 . S
O435 C428 1.255 . S
C436 O429 1.287 . S
C436 O430 1.255 . S
O437 Fe419 2.002 . S
O437 C433 1.295 . S
O438 Fe421 1.997 . S
O438 C433 1.235 . S
C439 O422 1.295 . S
C439 O423 1.235 . S
Fe440 O442 1.918 . S
Fe440 O445 1.997 . S
Fe440 O446 2.002 . S
Fe440 O451 1.976 . S
Fe440 O454 1.996 . S
Fe441 O442 1.918 . S
Fe441 O449 1.997 . S
Fe441 O452 1.996 . S
Fe441 O456 1.976 . S
Fe441 O459 2.002 . S
O442 Fe440 1.918 . S
O442 Fe441 1.918 . S
O442 Fe443 1.918 . S
Fe443 O442 1.918 . S
Fe443 O444 2.002 . S
Fe443 O453 1.976 . S
Fe443 O457 1.996 . S
Fe443 O460 1.997 . S
O444 Fe443 2.002 . S
O444 C461 1.295 . S
O445 Fe440 1.997 . S
O445 C461 1.235 . S
O446 Fe440 2.002 . S
O446 C447 1.295 . S
C447 O446 1.295 . S
C447 O449 1.235 . S
C448 O453 1.287 . S
C448 O454 1.255 . S
O449 Fe441 1.997 . S
O449 C447 1.235 . S
C450 O456 1.287 . S
C450 O457 1.255 . S
O451 Fe440 1.976 . S
O451 C458 1.287 . S
O452 Fe441 1.996 . S
O452 C458 1.255 . S
O453 Fe443 1.976 . S
O453 C448 1.287 . S
O454 Fe440 1.996 . S
O454 C448 1.255 . S
C455 O459 1.295 . S
C455 O460 1.235 . S
O456 Fe441 1.976 . S
O456 C450 1.287 . S
O457 Fe443 1.996 . S
O457 C450 1.255 . S
C458 O451 1.287 . S
C458 O452 1.255 . S
O459 Fe441 2.002 . S
O459 C455 1.295 . S
O460 Fe443 1.997 . S
O460 C455 1.235 . S
C461 O444 1.295 . S
C461 O445 1.235 . S
Fe462 O464 1.918 . S
Fe462 O467 1.997 . S
Fe462 O468 2.002 . S
Fe462 O473 1.976 . S
Fe462 O476 1.996 . S
Fe463 O464 1.918 . S
Fe463 O471 1.997 . S
Fe463 O474 1.996 . S
Fe463 O478 1.976 . S
Fe463 O481 2.002 . S
O464 Fe462 1.918 . S
O464 Fe463 1.918 . S
O464 Fe465 1.918 . S
Fe465 O464 1.918 . S
Fe465 O466 2.002 . S
Fe465 O475 1.976 . S
Fe465 O479 1.996 . S
Fe465 O482 1.997 . S
O466 Fe465 2.002 . S
O466 C483 1.295 . S
O467 Fe462 1.997 . S
O467 C483 1.235 . S
O468 Fe462 2.002 . S
O468 C469 1.295 . S
C469 O468 1.295 . S
C469 O471 1.235 . S
C470 O475 1.287 . S
C470 O476 1.255 . S
O471 Fe463 1.997 . S
O471 C469 1.235 . S
C472 O478 1.287 . S
C472 O479 1.255 . S
O473 Fe462 1.976 . S
O473 C480 1.287 . S
O474 Fe463 1.996 . S
O474 C480 1.255 . S
O475 Fe465 1.976 . S
O475 C470 1.287 . S
O476 Fe462 1.996 . S
O476 C470 1.255 . S
C477 O481 1.295 . S
C477 O482 1.235 . S
O478 Fe463 1.976 . S
O478 C472 1.287 . S
O479 Fe465 1.996 . S
O479 C472 1.255 . S
C480 O473 1.287 . S
C480 O474 1.255 . S
O481 Fe463 2.002 . S
O481 C477 1.295 . S
O482 Fe465 1.997 . S
O482 C477 1.235 . S
C483 O466 1.295 . S
C483 O467 1.235 . S
Fe484 O486 1.918 . S
Fe484 O489 1.997 . S
Fe484 O490 2.002 . S
Fe484 O495 1.976 . S
Fe484 O498 1.996 . S
Fe485 O486 1.918 . S
Fe485 O493 1.997 . S
Fe485 O496 1.996 . S
Fe485 O500 1.976 . S
Fe485 O503 2.002 . S
O486 Fe484 1.918 . S
O486 Fe485 1.918 . S
O486 Fe487 1.918 . S
Fe487 O486 1.918 . S
Fe487 O488 2.002 . S
Fe487 O497 1.976 . S
Fe487 O501 1.996 . S
Fe487 O504 1.997 . S
O488 Fe487 2.002 . S
O488 C505 1.295 . S
O489 Fe484 1.997 . S
O489 C505 1.235 . S
O490 Fe484 2.002 . S
O490 C491 1.295 . S
C491 O490 1.295 . S
C491 O493 1.235 . S
C492 O497 1.287 . S
C492 O498 1.255 . S
O493 Fe485 1.997 . S
O493 C491 1.235 . S
C494 O500 1.287 . S
C494 O501 1.255 . S
O495 Fe484 1.976 . S
O495 C502 1.287 . S
O496 Fe485 1.996 . S
O496 C502 1.255 . S
O497 Fe487 1.976 . S
O497 C492 1.287 . S
O498 Fe484 1.996 . S
O498 C492 1.255 . S
C499 O503 1.295 . S
C499 O504 1.235 . S
O500 Fe485 1.976 . S
O500 C494 1.287 . S
O501 Fe487 1.996 . S
O501 C494 1.255 . S
C502 O495 1.287 . S
C502 O496 1.255 . S
O503 Fe485 2.002 . S
O503 C499 1.295 . S
O504 Fe487 1.997 . S
O504 C499 1.235 . S
C505 O488 1.295 . S
C505 O489 1.235 . S
Fe506 O508 1.918 . S
Fe506 O511 1.997 . S
Fe506 O512 2.002 . S
Fe506 O517 1.976 . S
Fe506 O520 1.996 . S
Fe507 O508 1.918 . S
Fe507 O515 1.997 . S
Fe507 O518 1.996 . S
Fe507 O522 1.976 . S
Fe507 O525 2.002 . S
O508 Fe506 1.918 . S
O508 Fe507 1.918 . S
O508 Fe509 1.918 . S
Fe509 O508 1.918 . S
Fe509 O510 2.002 . S
Fe509 O519 1.976 . S
Fe509 O523 1.996 . S
Fe509 O526 1.997 . S
O510 Fe509 2.002 . S
O510 C527 1.295 . S
O511 Fe506 1.997 . S
O511 C527 1.235 . S
O512 Fe506 2.002 . S
O512 C513 1.295 . S
C513 O512 1.295 . S
C513 O515 1.235 . S
C514 O519 1.287 . S
C514 O520 1.255 . S
O515 Fe507 1.997 . S
O515 C513 1.235 . S
C516 O522 1.287 . S
C516 O523 1.255 . S
O517 Fe506 1.976 . S
O517 C524 1.287 . S
O518 Fe507 1.996 . S
O518 C524 1.255 . S
O519 Fe509 1.976 . S
O519 C514 1.287 . S
O520 Fe506 1.996 . S
O520 C514 1.255 . S
C521 O525 1.295 . S
C521 O526 1.235 . S
O522 Fe507 1.976 . S
O522 C516 1.287 . S
O523 Fe509 1.996 . S
O523 C516 1.255 . S
C524 O517 1.287 . S
C524 O518 1.255 . S
O525 Fe507 2.002 . S
O525 C521 1.295 . S
O526 Fe509 1.997 . S
O526 C521 1.235 . S
C527 O510 1.295 . S
C527 O511 1.235 . S
C528 C529 1.369 . S
C528 C530 1.419 . S
C528 H532 0.930 1_455 S
C529 C528 1.369 . S
C529 C538 1.429 . S
C530 C528 1.419 . S
C530 C531 1.363 . S
C530 H533 0.929 1_455 S
C531 C530 1.363 . S
C531 C537 1.429 . S
H532 C528 0.930 1_655 S
H533 C530 0.929 1_655 S
S534 N535 1.613 . S
S534 N536 1.610 . S
N535 S534 1.613 . S
N535 C538 1.350 . S
N536 S534 1.610 . S
N536 C537 1.351 . S
C537 C531 1.429 . S
C537 N536 1.351 . S
C537 C538 1.434 . S
C538 C529 1.429 . S
C538 N535 1.350 . S
C538 C537 1.434 . S
C539 C540 1.378 . S
C539 C541 1.419 . S
C539 H543 0.930 . S
C540 C539 1.378 . S
C540 C549 1.420 1_545 S
C541 C539 1.419 . S
C541 C542 1.363 1_545 S
C541 H544 0.929 . S
C542 C541 1.363 1_565 S
C542 C548 1.428 . S
H543 C539 0.930 . S
H544 C541 0.929 . S
S545 N546 1.613 . S
S545 N547 1.610 . S
N546 S545 1.613 . S
N546 C549 1.350 . S
N547 S545 1.610 . S
N547 C548 1.351 . S
C548 C542 1.428 . S
C548 N547 1.351 . S
C548 C549 1.434 . S
C549 C540 1.420 1_565 S
C549 N546 1.350 . S
C549 C548 1.434 . S
C550 C551 1.359 1_655 S
C550 C552 1.419 . S
C550 H554 0.930 . S
C551 C550 1.359 1_455 S
C551 C560 1.439 . S
C552 C550 1.419 . S
C552 C553 1.361 . S
C552 H555 0.929 . S
C553 C552 1.361 . S
C553 C559 1.430 1_655 S
H554 C550 0.930 . S
H555 C552 0.929 . S
S556 N557 1.613 . S
S556 N558 1.610 . S
N557 S556 1.613 . S
N557 C560 1.350 . S
N558 S556 1.610 . S
N558 C559 1.351 . S
C559 C553 1.430 1_455 S
C559 N558 1.351 . S
C559 C560 1.434 . S
C560 C551 1.439 . S
C560 N557 1.350 . S
C560 C559 1.434 . S
C561 C562 1.354 1_545 S
C561 C563 1.419 . S
C561 H565 0.930 . S
C562 C561 1.354 1_565 S
C562 C571 1.444 . S
C563 C561 1.419 . S
C563 C564 1.362 . S
C563 H566 0.929 . S
C564 C563 1.362 . S
C564 C570 1.430 1_545 S
H565 C561 0.930 . S
H566 C563 0.929 . S
S567 N568 1.613 . S
S567 N569 1.610 . S
N568 S567 1.613 . S
N568 C571 1.350 . S
N569 S567 1.610 . S
N569 C570 1.351 . S
C570 C564 1.430 1_565 S
C570 N569 1.351 . S
C570 C571 1.434 . S
C571 C562 1.444 . S
C571 N568 1.350 . S
C571 C570 1.434 . S
C572 C573 1.349 1_565 S
C572 C574 1.419 . S
C572 H576 0.930 . S
C573 C572 1.349 1_545 S
C573 C582 1.450 . S
C574 C572 1.419 . S
C574 C575 1.353 1_565 S
C574 H577 0.929 . S
C575 C574 1.353 1_545 S
C575 C581 1.439 . S
H576 C572 0.930 . S
H577 C574 0.929 . S
S578 N579 1.613 . S
S578 N580 1.610 . S
N579 S578 1.613 . S
N579 C582 1.350 . S
N580 S578 1.610 . S
N580 C581 1.351 . S
C581 C575 1.439 . S
C581 N580 1.351 . S
C581 C582 1.434 . S
C582 C573 1.450 . S
C582 N579 1.350 . S
C582 C581 1.434 . S
C583 C584 1.370 . S
C583 C585 1.419 . S
C583 H587 0.930 . S
C584 C583 1.370 . S
C584 C593 1.428 1_455 S
C585 C583 1.419 . S
C585 C586 1.364 1_455 S
C585 H588 0.929 . S
C586 C585 1.364 1_655 S
C586 C592 1.427 . S
H587 C583 0.930 . S
H588 C585 0.929 . S
S589 N590 1.613 . S
S589 N591 1.610 . S
N590 S589 1.613 . S
N590 C593 1.350 . S
N591 S589 1.610 . S
N591 C592 1.351 . S
C592 C586 1.427 . S
C592 N591 1.351 . S
C592 C593 1.434 . S
C593 C584 1.428 1_655 S
C593 N590 1.350 . S
C593 C592 1.434 . S
C594 C595 1.362 1_565 S
C594 C596 1.419 . S
C594 H598 0.930 . S
C595 C594 1.362 1_545 S
C595 C604 1.436 . S
C596 C594 1.419 . S
C596 C597 1.363 1_565 S
C596 H599 0.929 . S
C597 C596 1.363 1_545 S
C597 C603 1.428 . S
H598 C594 0.930 . S
H599 C596 0.929 . S
S600 N601 1.613 . S
S600 N602 1.610 . S
N601 S600 1.613 . S
N601 C604 1.350 . S
N602 S600 1.610 . S
N602 C603 1.351 . S
C603 C597 1.428 . S
C603 N602 1.351 . S
C603 C604 1.434 . S
C604 C595 1.436 . S
C604 N601 1.350 . S
C604 C603 1.434 . S
C605 C606 1.369 1_655 S
C605 C607 1.419 . S
C605 H609 0.930 . S
C606 C605 1.369 1_455 S
C606 C615 1.429 . S
C607 C605 1.419 . S
C607 C608 1.361 1_655 S
C607 H610 0.929 . S
C608 C607 1.361 1_455 S
C608 C614 1.431 . S
H609 C605 0.930 . S
H610 C607 0.929 . S
S611 N612 1.613 . S
S611 N613 1.610 . S
N612 S611 1.613 . S
N612 C615 1.350 . S
N613 S611 1.610 . S
N613 C614 1.351 . S
C614 C608 1.431 . S
C614 N613 1.351 . S
C614 C615 1.434 . S
C615 C606 1.429 . S
C615 N612 1.350 . S
C615 C614 1.434 . S
C616 C617 1.355 1_556 S
C616 C618 1.419 . S
C616 H620 0.930 . S
C617 C616 1.355 1_554 S
C617 C626 1.443 . S
C618 C616 1.419 . S
C618 C619 1.361 1_556 S
C618 H621 0.929 . S
C619 C618 1.361 1_554 S
C619 C625 1.430 . S
H620 C616 0.930 . S
H621 C618 0.929 . S
S622 N623 1.613 . S
S622 N624 1.610 . S
N623 S622 1.613 . S
N623 C626 1.350 . S
N624 S622 1.610 . S
N624 C625 1.351 . S
C625 C619 1.430 . S
C625 N624 1.351 . S
C625 C626 1.434 . S
C626 C617 1.443 . S
C626 N623 1.350 . S
C626 C625 1.434 . S
C627 C628 1.362 1_554 S
C627 C629 1.419 . S
C627 H631 0.930 . S
C628 C627 1.362 1_556 S
C628 C637 1.435 . S
C629 C627 1.419 . S
C629 C630 1.364 . S
C629 H632 0.929 . S
C630 C629 1.364 . S
C630 C636 1.427 1_554 S
H631 C627 0.930 . S
H632 C629 0.929 . S
S633 N634 1.613 . S
S633 N635 1.610 . S
N634 S633 1.613 . S
N634 C637 1.350 . S
N635 S633 1.610 . S
N635 C636 1.351 . S
C636 C630 1.427 1_556 S
C636 N635 1.351 . S
C636 C637 1.434 . S
C637 C628 1.435 . S
C637 N634 1.350 . S
C637 C636 1.434 . S
C638 C639 1.360 1_554 S
C638 C640 1.419 . S
C638 H642 0.930 . S
C639 C638 1.360 1_556 S
C639 C648 1.437 . S
C640 C638 1.419 . S
C640 C641 1.366 . S
C640 H643 0.929 . S
C641 C640 1.366 . S
C641 C647 1.426 1_554 S
H642 C638 0.930 . S
H643 C640 0.929 . S
S644 N645 1.613 . S
S644 N646 1.610 . S
N645 S644 1.613 . S
N645 C648 1.350 . S
N646 S644 1.610 . S
N646 C647 1.351 . S
C647 C641 1.426 1_556 S
C647 N646 1.351 . S
C647 C648 1.434 . S
C648 C639 1.437 . S
C648 N645 1.350 . S
C648 C647 1.434 . S
C649 C650 1.367 1_556 S
C649 C651 1.419 . S
C649 H653 0.930 . S
C650 C649 1.367 1_554 S
C650 C659 1.431 . S
C651 C649 1.419 . S
C651 C652 1.346 1_556 S
C651 H654 0.929 . S
C652 C651 1.346 1_554 S
C652 C658 1.445 . S
H653 C649 0.930 . S
H654 C651 0.929 . S
S655 N656 1.613 . S
S655 N657 1.610 . S
N656 S655 1.613 . S
N656 C659 1.350 . S
N657 S655 1.610 . S
N657 C658 1.351 . S
C658 C652 1.445 . S
C658 N657 1.351 . S
C658 C659 1.434 . S
C659 C650 1.431 . S
C659 N656 1.350 . S
C659 C658 1.434 . S
C660 C661 1.369 . S
C660 C662 1.419 1_556 S
C660 H664 0.930 . S
C661 C660 1.369 . S
C661 C670 1.429 . S
C662 C660 1.419 1_554 S
C662 C663 1.363 . S
C662 H665 0.929 . S
C663 C662 1.363 . S
C663 C669 1.428 . S
H664 C660 0.930 . S
H665 C662 0.929 . S
S666 N667 1.613 1_554 S
S666 N668 1.610 . S
N667 S666 1.613 1_556 S
N667 C670 1.350 . S
N668 S666 1.610 . S
N668 C669 1.351 . S
C669 C663 1.428 . S
C669 N668 1.351 . S
C669 C670 1.434 1_554 S
C670 C661 1.429 . S
C670 N667 1.350 . S
C670 C669 1.434 1_556 S
C671 C672 1.369 . S
C671 C673 1.419 1_554 S
C671 H675 0.930 . S
C672 C671 1.369 . S
C672 C681 1.429 . S
C673 C671 1.419 1_556 S
C673 C674 1.363 . S
C673 H676 0.929 . S
C674 C673 1.363 . S
C674 C680 1.428 . S
H675 C671 0.930 . S
H676 C673 0.929 . S
S677 N678 1.615 . S
S677 N679 1.609 1_554 S
N678 S677 1.615 . S
N678 C681 1.350 . S
N679 S677 1.609 1_556 S
N679 C680 1.351 . S
C680 C674 1.428 . S
C680 N679 1.351 . S
C680 C681 1.434 1_556 S
C681 C672 1.429 . S
C681 N678 1.350 . S
C681 C680 1.434 1_554 S
C682 C683 1.369 . S
C682 C684 1.419 1_556 S
C682 H686 0.930 . S
C683 C682 1.369 . S
C683 C692 1.429 . S
C684 C682 1.419 1_554 S
C684 C685 1.363 . S
C684 H687 0.929 . S
C685 C684 1.363 . S
C685 C691 1.428 . S
H686 C682 0.930 . S
H687 C684 0.929 . S
S688 N689 1.613 . S
S688 N690 1.610 1_556 S
N689 S688 1.613 . S
N689 C692 1.350 . S
N690 S688 1.610 1_554 S
N690 C691 1.351 . S
C691 C685 1.428 . S
C691 N690 1.351 . S
C691 C692 1.434 1_554 S
C692 C683 1.429 . S
C692 N689 1.350 . S
C692 C691 1.434 1_556 S
C693 C694 1.369 . S
C693 C695 1.419 1_556 S
C693 H697 0.930 . S
C694 C693 1.369 . S
C694 C703 1.429 . S
C695 C693 1.419 1_554 S
C695 C696 1.363 . S
C695 H698 0.929 . S
C696 C695 1.363 . S
C696 C702 1.428 . S
H697 C693 0.930 . S
H698 C695 0.929 . S
S699 N700 1.613 . S
S699 N701 1.610 1_556 S
N700 S699 1.613 . S
N700 C703 1.350 . S
N701 S699 1.610 1_554 S
N701 C702 1.351 . S
C702 C696 1.428 . S
C702 N701 1.351 . S
C702 C703 1.434 1_554 S
C703 C694 1.429 . S
C703 N700 1.350 . S
C703 C702 1.434 1_556 S
C704 C705 1.369 . S
C704 C706 1.419 1_655 S
C704 H708 0.930 . S
C705 C704 1.369 . S
C705 C714 1.429 . S
C706 C704 1.419 1_455 S
C706 C707 1.363 . S
C706 H709 0.929 . S
C707 C706 1.363 . S
C707 C713 1.428 . S
H708 C704 0.930 . S
H709 C706 0.929 . S
S710 N711 1.611 . S
S710 N712 1.613 1_655 S
N711 S710 1.611 . S
N711 C714 1.350 . S
N712 S710 1.613 1_455 S
N712 C713 1.351 . S
C713 C707 1.428 . S
C713 N712 1.351 . S
C713 C714 1.434 1_455 S
C714 C705 1.429 . S
C714 N711 1.350 . S
C714 C713 1.434 1_655 S
C715 C716 1.369 . S
C715 C717 1.419 1_545 S
C715 H719 0.930 . S
C716 C715 1.369 . S
C716 C725 1.429 . S
C717 C715 1.419 1_565 S
C717 C718 1.363 . S
C717 H720 0.929 . S
C718 C717 1.363 . S
C718 C724 1.428 . S
H719 C715 0.930 . S
H720 C717 0.929 . S
S721 N722 1.625 . S
S721 N723 1.598 1_545 S
N722 S721 1.625 . S
N722 C725 1.350 . S
N723 S721 1.598 1_565 S
N723 C724 1.351 . S
C724 C718 1.428 . S
C724 N723 1.351 . S
C724 C725 1.434 1_565 S
C725 C716 1.429 . S
C725 N722 1.350 . S
C725 C724 1.434 1_545 S
C726 C727 1.369 . S
C726 C728 1.419 1_655 S
C726 H730 0.930 . S
C727 C726 1.369 . S
C727 C736 1.429 . S
C728 C726 1.419 1_455 S
C728 C729 1.363 . S
C728 H731 0.929 . S
C729 C728 1.363 . S
C729 C735 1.428 . S
H730 C726 0.930 . S
H731 C728 0.929 . S
S732 N733 1.613 1_455 S
S732 N734 1.610 . S
N733 S732 1.613 1_655 S
N733 C736 1.350 . S
N734 S732 1.610 . S
N734 C735 1.351 . S
C735 C729 1.428 . S
C735 N734 1.351 . S
C735 C736 1.434 1_455 S
C736 C727 1.429 . S
C736 N733 1.350 . S
C736 C735 1.434 1_655 S
C737 C738 1.369 . S
C737 C739 1.419 1_565 S
C737 H741 0.930 . S
C738 C737 1.369 . S
C738 C747 1.429 . S
C739 C737 1.419 1_545 S
C739 C740 1.363 . S
C739 H742 0.929 . S
C740 C739 1.363 . S
C740 C746 1.428 . S
H741 C737 0.930 . S
H742 C739 0.929 . S
S743 N744 1.631 . S
S743 N745 1.592 1_565 S
N744 S743 1.631 . S
N744 C747 1.350 . S
N745 S743 1.592 1_545 S
N745 C746 1.351 . S
C746 C740 1.428 . S
C746 N745 1.351 . S
C746 C747 1.434 1_545 S
C747 C738 1.429 . S
C747 N744 1.350 . S
C747 C746 1.434 1_565 S
C748 C749 1.369 . S
C748 C750 1.419 1_565 S
C748 H752 0.930 . S
C749 C748 1.369 . S
C749 C758 1.429 . S
C750 C748 1.419 1_545 S
C750 C751 1.363 . S
C750 H753 0.929 . S
C751 C750 1.363 . S
C751 C757 1.428 . S
H752 C748 0.930 . S
H753 C750 0.929 . S
S754 N755 1.610 1_545 S
S754 N756 1.614 . S
N755 S754 1.610 1_565 S
N755 C758 1.350 . S
N756 S754 1.614 . S
N756 C757 1.351 . S
C757 C751 1.428 . S
C757 N756 1.351 . S
C757 C758 1.434 1_545 S
C758 C749 1.429 . S
C758 N755 1.350 . S
C758 C757 1.434 1_565 S
C759 C760 1.369 . S
C759 C761 1.419 1_455 S
C759 H763 0.930 . S
C760 C759 1.369 . S
C760 C769 1.429 . S
C761 C759 1.419 1_655 S
C761 C762 1.363 . S
C761 H764 0.929 . S
C762 C761 1.363 . S
C762 C768 1.428 . S
H763 C759 0.930 . S
H764 C761 0.929 . S
S765 N766 1.613 . S
S765 N767 1.610 1_455 S
N766 S765 1.613 . S
N766 C769 1.350 . S
N767 S765 1.610 1_655 S
N767 C768 1.351 . S
C768 C762 1.428 . S
C768 N767 1.351 . S
C768 C769 1.434 1_655 S
C769 C760 1.429 . S
C769 N766 1.350 . S
C769 C768 1.434 1_455 S
C770 C771 1.369 . S
C770 C772 1.419 1_565 S
C770 H774 0.930 . S
C771 C770 1.369 . S
C771 C780 1.429 . S
C772 C770 1.419 1_545 S
C772 C773 1.363 . S
C772 H775 0.929 . S
C773 C772 1.363 . S
C773 C779 1.428 . S
H774 C770 0.930 . S
H775 C772 0.929 . S
S776 N777 1.617 . S
S776 N778 1.606 1_565 S
N777 S776 1.617 . S
N777 C780 1.350 . S
N778 S776 1.606 1_545 S
N778 C779 1.351 . S
C779 C773 1.428 . S
C779 N778 1.351 . S
C779 C780 1.434 1_545 S
C780 C771 1.429 . S
C780 N777 1.350 . S
C780 C779 1.434 1_565 S
C781 C782 1.369 . S
C781 C783 1.419 1_455 S
C781 H785 0.930 . S
C782 C781 1.369 . S
C782 C791 1.429 . S
C783 C781 1.419 1_655 S
C783 C784 1.363 . S
C783 H786 0.929 . S
C784 C783 1.363 . S
C784 C790 1.428 . S
H785 C781 0.930 . S
H786 C783 0.929 . S
S787 N788 1.616 . S
S787 N789 1.608 1_455 S
N788 S787 1.616 . S
N788 C791 1.350 . S
N789 S787 1.608 1_655 S
N789 C790 1.351 . S
C790 C784 1.428 . S
C790 N789 1.351 . S
C790 C791 1.434 1_655 S
C791 C782 1.429 . S
C791 N788 1.350 . S
C791 C790 1.434 1_455 S
C792 C793 1.369 . S
C792 C794 1.419 . S
C792 H796 0.930 . S
C793 C792 1.369 . S
C793 C802 1.429 . S
C794 C792 1.419 . S
C794 C795 1.363 . S
C794 H797 0.929 . S
C795 C794 1.363 . S
C795 C801 1.428 . S
H796 C792 0.930 . S
H797 C794 0.929 . S
S798 N799 1.613 . S
S798 N800 1.610 . S
N799 S798 1.613 . S
N799 C802 1.350 . S
N800 S798 1.610 . S
N800 C801 1.351 . S
C801 C795 1.428 . S
C801 N800 1.351 . S
C801 C802 1.434 . S
C802 C793 1.429 . S
C802 N799 1.350 . S
C802 C801 1.434 . S
C803 C804 1.369 . S
C803 C805 1.419 . S
C803 H807 0.930 . S
C804 C803 1.369 . S
C804 C813 1.429 . S
C805 C803 1.419 . S
C805 C806 1.363 . S
C805 H808 0.929 . S
C806 C805 1.363 . S
C806 C812 1.428 . S
H807 C803 0.930 . S
H808 C805 0.929 . S
S809 N810 1.613 . S
S809 N811 1.610 . S
N810 S809 1.613 . S
N810 C813 1.350 . S
N811 S809 1.610 . S
N811 C812 1.351 . S
C812 C806 1.428 . S
C812 N811 1.351 . S
C812 C813 1.434 . S
C813 C804 1.429 . S
C813 N810 1.350 . S
C813 C812 1.434 . S
C814 C815 1.369 . S
C814 C816 1.419 . S
C814 H818 0.930 . S
C815 C814 1.369 . S
C815 C824 1.429 . S
C816 C814 1.419 . S
C816 C817 1.363 . S
C816 H819 0.929 . S
C817 C816 1.363 . S
C817 C823 1.428 . S
H818 C814 0.930 . S
H819 C816 0.929 . S
S820 N821 1.613 . S
S820 N822 1.610 . S
N821 S820 1.613 . S
N821 C824 1.350 . S
N822 S820 1.610 . S
N822 C823 1.351 . S
C823 C817 1.428 . S
C823 N822 1.351 . S
C823 C824 1.434 . S
C824 C815 1.429 . S
C824 N821 1.350 . S
C824 C823 1.434 . S
C825 C826 1.369 . S
C825 C827 1.419 . S
C825 H829 0.930 . S
C826 C825 1.369 . S
C826 C835 1.429 . S
C827 C825 1.419 . S
C827 C828 1.363 . S
C827 H830 0.929 . S
C828 C827 1.363 . S
C828 C834 1.428 . S
H829 C825 0.930 . S
H830 C827 0.929 . S
S831 N832 1.613 . S
S831 N833 1.610 . S
N832 S831 1.613 . S
N832 C835 1.350 . S
N833 S831 1.610 . S
N833 C834 1.351 . S
C834 C828 1.428 . S
C834 N833 1.351 . S
C834 C835 1.434 . S
C835 C826 1.429 . S
C835 N832 1.350 . S
C835 C834 1.434 . S
C836 C837 1.369 . S
C836 C838 1.419 . S
C836 H840 0.930 . S
C837 C836 1.369 . S
C837 C846 1.429 . S
C838 C836 1.419 . S
C838 C839 1.363 . S
C838 H841 0.929 . S
C839 C838 1.363 . S
C839 C845 1.428 . S
H840 C836 0.930 . S
H841 C838 0.929 . S
S842 N843 1.613 . S
S842 N844 1.610 . S
N843 S842 1.613 . S
N843 C846 1.350 . S
N844 S842 1.610 . S
N844 C845 1.351 . S
C845 C839 1.428 . S
C845 N844 1.351 . S
C845 C846 1.434 . S
C846 C837 1.429 . S
C846 N843 1.350 . S
C846 C845 1.434 . S
C847 C848 1.369 . S
C847 C849 1.419 . S
C847 H851 0.930 . S
C848 C847 1.369 . S
C848 C857 1.429 . S
C849 C847 1.419 . S
C849 C850 1.363 . S
C849 H852 0.929 . S
C850 C849 1.363 . S
C850 C856 1.428 . S
H851 C847 0.930 . S
H852 C849 0.929 . S
S853 N854 1.613 . S
S853 N855 1.610 . S
N854 S853 1.613 . S
N854 C857 1.350 . S
N855 S853 1.610 . S
N855 C856 1.351 . S
C856 C850 1.428 . S
C856 N855 1.351 . S
C856 C857 1.434 . S
C857 C848 1.429 . S
C857 N854 1.350 . S
C857 C856 1.434 . S
C858 C859 1.369 . S
C858 C860 1.419 . S
C858 H862 0.930 . S
C859 C858 1.369 . S
C859 C868 1.429 . S
C860 C858 1.419 . S
C860 C861 1.363 . S
C860 H863 0.929 . S
C861 C860 1.363 . S
C861 C867 1.428 . S
H862 C858 0.930 . S
H863 C860 0.929 . S
S864 N865 1.613 . S
S864 N866 1.610 . S
N865 S864 1.613 . S
N865 C868 1.350 . S
N866 S864 1.610 . S
N866 C867 1.351 . S
C867 C861 1.428 . S
C867 N866 1.351 . S
C867 C868 1.434 . S
C868 C859 1.429 . S
C868 N865 1.350 . S
C868 C867 1.434 . S
C869 C870 1.369 . S
C869 C871 1.419 . S
C869 H873 0.930 . S
C870 C869 1.369 . S
C870 C879 1.429 . S
C871 C869 1.419 . S
C871 C872 1.363 . S
C871 H874 0.929 . S
C872 C871 1.363 . S
C872 C878 1.428 . S
H873 C869 0.930 . S
H874 C871 0.929 . S
S875 N876 1.613 . S
S875 N877 1.610 . S
N876 S875 1.613 . S
N876 C879 1.350 . S
N877 S875 1.610 . S
N877 C878 1.351 . S
C878 C872 1.428 . S
C878 N877 1.351 . S
C878 C879 1.434 . S
C879 C870 1.429 . S
C879 N876 1.350 . S
C879 C878 1.434 . S
C880 C881 1.369 . S
C880 C882 1.419 . S
C880 H884 0.930 . S
C881 C880 1.369 . S
C881 C890 1.429 . S
C882 C880 1.419 . S
C882 C883 1.363 . S
C882 H885 0.929 . S
C883 C882 1.363 . S
C883 C889 1.428 . S
H884 C880 0.930 . S
H885 C882 0.929 . S
S886 N887 1.613 . S
S886 N888 1.610 . S
N887 S886 1.613 . S
N887 C890 1.350 . S
N888 S886 1.610 . S
N888 C889 1.351 . S
C889 C883 1.428 . S
C889 N888 1.351 . S
C889 C890 1.434 . S
C890 C881 1.429 . S
C890 N887 1.350 . S
C890 C889 1.434 . S
C891 C892 1.369 . S
C891 C893 1.419 . S
C891 H895 0.930 . S
C892 C891 1.369 . S
C892 C901 1.429 . S
C893 C891 1.419 . S
C893 C894 1.363 . S
C893 H896 0.929 . S
C894 C893 1.363 . S
C894 C900 1.428 . S
H895 C891 0.930 . S
H896 C893 0.929 . S
S897 N898 1.613 . S
S897 N899 1.610 . S
N898 S897 1.613 . S
N898 C901 1.350 . S
N899 S897 1.610 . S
N899 C900 1.351 . S
C900 C894 1.428 . S
C900 N899 1.351 . S
C900 C901 1.434 . S
C901 C892 1.429 . S
C901 N898 1.350 . S
C901 C900 1.434 . S
C902 C903 1.369 . S
C902 C904 1.419 . S
C902 H906 0.930 . S
C903 C902 1.369 . S
C903 C912 1.429 . S
C904 C902 1.419 . S
C904 C905 1.363 . S
C904 H907 0.929 . S
C905 C904 1.363 . S
C905 C911 1.428 . S
H906 C902 0.930 . S
H907 C904 0.929 . S
S908 N909 1.613 . S
S908 N910 1.610 . S
N909 S908 1.613 . S
N909 C912 1.350 . S
N910 S908 1.610 . S
N910 C911 1.351 . S
C911 C905 1.428 . S
C911 N910 1.351 . S
C911 C912 1.434 . S
C912 C903 1.429 . S
C912 N909 1.350 . S
C912 C911 1.434 . S
C913 C914 1.369 . S
C913 C915 1.419 . S
C913 H917 0.930 . S
C914 C913 1.369 . S
C914 C923 1.429 . S
C915 C913 1.419 . S
C915 C916 1.363 . S
C915 H918 0.929 . S
C916 C915 1.363 . S
C916 C922 1.428 . S
H917 C913 0.930 . S
H918 C915 0.929 . S
S919 N920 1.613 . S
S919 N921 1.610 . S
N920 S919 1.613 . S
N920 C923 1.350 . S
N921 S919 1.610 . S
N921 C922 1.351 . S
C922 C916 1.428 . S
C922 N921 1.351 . S
C922 C923 1.434 . S
C923 C914 1.429 . S
C923 N920 1.350 . S
C923 C922 1.434 . S
C924 C925 1.369 . S
C924 C926 1.419 . S
C924 H928 0.930 . S
C925 C924 1.369 . S
C925 C934 1.429 . S
C926 C924 1.419 . S
C926 C927 1.363 . S
C926 H929 0.929 . S
C927 C926 1.363 . S
C927 C933 1.428 . S
H928 C924 0.930 . S
H929 C926 0.929 . S
S930 N931 1.613 . S
S930 N932 1.610 . S
N931 S930 1.613 . S
N931 C934 1.350 . S
N932 S930 1.610 . S
N932 C933 1.351 . S
C933 C927 1.428 . S
C933 N932 1.351 . S
C933 C934 1.434 . S
C934 C925 1.429 . S
C934 N931 1.350 . S
C934 C933 1.434 . S
C935 C936 1.369 . S
C935 C937 1.419 . S
C935 H939 0.930 . S
C936 C935 1.369 . S
C936 C945 1.429 . S
C937 C935 1.419 . S
C937 C938 1.363 . S
C937 H940 0.929 . S
C938 C937 1.363 . S
C938 C944 1.428 . S
H939 C935 0.930 . S
H940 C937 0.929 . S
S941 N942 1.613 . S
S941 N943 1.610 . S
N942 S941 1.613 . S
N942 C945 1.350 . S
N943 S941 1.610 . S
N943 C944 1.351 . S
C944 C938 1.428 . S
C944 N943 1.351 . S
C944 C945 1.434 . S
C945 C936 1.429 . S
C945 N942 1.350 . S
C945 C944 1.434 . S
C946 C947 1.369 . S
C946 C948 1.419 . S
C946 H950 0.930 . S
C947 C946 1.369 . S
C947 C956 1.429 . S
C948 C946 1.419 . S
C948 C949 1.363 . S
C948 H951 0.929 . S
C949 C948 1.363 . S
C949 C955 1.428 . S
H950 C946 0.930 . S
H951 C948 0.929 . S
S952 N953 1.613 . S
S952 N954 1.610 . S
N953 S952 1.613 . S
N953 C956 1.350 . S
N954 S952 1.610 . S
N954 C955 1.351 . S
C955 C949 1.428 . S
C955 N954 1.351 . S
C955 C956 1.434 . S
C956 C947 1.429 . S
C956 N953 1.350 . S
C956 C955 1.434 . S
C957 C958 1.369 . S
C957 C959 1.419 . S
C957 H961 0.930 . S
C958 C957 1.369 . S
C958 C967 1.429 . S
C959 C957 1.419 . S
C959 C960 1.363 . S
C959 H962 0.929 . S
C960 C959 1.363 . S
C960 C966 1.428 . S
H961 C957 0.930 . S
H962 C959 0.929 . S
S963 N964 1.613 . S
S963 N965 1.610 . S
N964 S963 1.613 . S
N964 C967 1.350 . S
N965 S963 1.610 . S
N965 C966 1.351 . S
C966 C960 1.428 . S
C966 N965 1.351 . S
C966 C967 1.434 . S
C967 C958 1.429 . S
C967 N964 1.350 . S
C967 C966 1.434 . S
C968 C969 1.369 . S
C968 C970 1.419 . S
C968 H972 0.930 . S
C969 C968 1.369 . S
C969 C978 1.429 . S
C970 C968 1.419 . S
C970 C971 1.363 . S
C970 H973 0.929 . S
C971 C970 1.363 . S
C971 C977 1.428 . S
H972 C968 0.930 . S
H973 C970 0.929 . S
S974 N975 1.613 . S
S974 N976 1.610 . S
N975 S974 1.613 . S
N975 C978 1.350 . S
N976 S974 1.610 . S
N976 C977 1.351 . S
C977 C971 1.428 . S
C977 N976 1.351 . S
C977 C978 1.434 . S
C978 C969 1.429 . S
C978 N975 1.350 . S
C978 C977 1.434 . S
C979 C980 1.369 . S
C979 C981 1.419 . S
C979 H983 0.930 . S
C980 C979 1.369 . S
C980 C989 1.429 . S
C981 C979 1.419 . S
C981 C982 1.363 . S
C981 H984 0.929 . S
C982 C981 1.363 . S
C982 C988 1.428 . S
H983 C979 0.930 . S
H984 C981 0.929 . S
S985 N986 1.613 . S
S985 N987 1.610 . S
N986 S985 1.613 . S
N986 C989 1.350 . S
N987 S985 1.610 . S
N987 C988 1.351 . S
C988 C982 1.428 . S
C988 N987 1.351 . S
C988 C989 1.434 . S
C989 C980 1.429 . S
C989 N986 1.350 . S
C989 C988 1.434 . S
C990 C991 1.369 . S
C990 C992 1.419 . S
C990 H994 0.930 . S
C991 C990 1.369 . S
C991 C1000 1.429 . S
C992 C990 1.419 . S
C992 C993 1.363 . S
C992 H995 0.929 . S
C993 C992 1.363 . S
C993 C999 1.428 . S
H994 C990 0.930 . S
H995 C992 0.929 . S
S996 N997 1.613 . S
S996 N998 1.610 . S
N997 S996 1.613 . S
N997 C1000 1.350 . S
N998 S996 1.610 . S
N998 C999 1.351 . S
C999 C993 1.428 . S
C999 N998 1.351 . S
C999 C1000 1.434 . S
C1000 C991 1.429 . S
C1000 N997 1.350 . S
C1000 C999 1.434 . S
C1001 C1002 1.369 . S
C1001 C1003 1.419 . S
C1001 H1005 0.930 . S
C1002 C1001 1.369 . S
C1002 C1011 1.429 . S
C1003 C1001 1.419 . S
C1003 C1004 1.363 . S
C1003 H1006 0.929 . S
C1004 C1003 1.363 . S
C1004 C1010 1.428 . S
H1005 C1001 0.930 . S
H1006 C1003 0.929 . S
S1007 N1008 1.613 . S
S1007 N1009 1.610 . S
N1008 S1007 1.613 . S
N1008 C1011 1.350 . S
N1009 S1007 1.610 . S
N1009 C1010 1.351 . S
C1010 C1004 1.428 . S
C1010 N1009 1.351 . S
C1010 C1011 1.434 . S
C1011 C1002 1.429 . S
C1011 N1008 1.350 . S
C1011 C1010 1.434 . S
C1012 C1013 1.369 . S
C1012 C1014 1.419 . S
C1012 H1016 0.930 . S
C1013 C1012 1.369 . S
C1013 C1022 1.429 . S
C1014 C1012 1.419 . S
C1014 C1015 1.363 . S
C1014 H1017 0.929 . S
C1015 C1014 1.363 . S
C1015 C1021 1.428 . S
H1016 C1012 0.930 . S
H1017 C1014 0.929 . S
S1018 N1019 1.613 . S
S1018 N1020 1.610 . S
N1019 S1018 1.613 . S
N1019 C1022 1.350 . S
N1020 S1018 1.610 . S
N1020 C1021 1.351 . S
C1021 C1015 1.428 . S
C1021 N1020 1.351 . S
C1021 C1022 1.434 . S
C1022 C1013 1.429 . S
C1022 N1019 1.350 . S
C1022 C1021 1.434 . S
C1023 C1024 1.369 . S
C1023 C1025 1.419 . S
C1023 H1027 0.930 . S
C1024 C1023 1.369 . S
C1024 C1033 1.429 . S
C1025 C1023 1.419 . S
C1025 C1026 1.363 . S
C1025 H1028 0.929 . S
C1026 C1025 1.363 . S
C1026 C1032 1.428 . S
H1027 C1023 0.930 . S
H1028 C1025 0.929 . S
S1029 N1030 1.613 . S
S1029 N1031 1.610 . S
N1030 S1029 1.613 . S
N1030 C1033 1.350 . S
N1031 S1029 1.610 . S
N1031 C1032 1.351 . S
C1032 C1026 1.428 . S
C1032 N1031 1.351 . S
C1032 C1033 1.434 . S
C1033 C1024 1.429 . S
C1033 N1030 1.350 . S
C1033 C1032 1.434 . S
C1034 C1035 1.369 . S
C1034 C1036 1.419 . S
C1034 H1038 0.930 . S
C1035 C1034 1.369 . S
C1035 C1044 1.429 . S
C1036 C1034 1.419 . S
C1036 C1037 1.363 . S
C1036 H1039 0.929 . S
C1037 C1036 1.363 . S
C1037 C1043 1.428 . S
H1038 C1034 0.930 . S
H1039 C1036 0.929 . S
S1040 N1041 1.613 . S
S1040 N1042 1.610 . S
N1041 S1040 1.613 . S
N1041 C1044 1.350 . S
N1042 S1040 1.610 . S
N1042 C1043 1.351 . S
C1043 C1037 1.428 . S
C1043 N1042 1.351 . S
C1043 C1044 1.434 . S
C1044 C1035 1.429 . S
C1044 N1041 1.350 . S
C1044 C1043 1.434 . S
C1045 C1046 1.369 . S
C1045 C1047 1.419 . S
C1045 H1049 0.930 . S
C1046 C1045 1.369 . S
C1046 C1055 1.429 . S
C1047 C1045 1.419 . S
C1047 C1048 1.363 . S
C1047 H1050 0.929 . S
C1048 C1047 1.363 . S
C1048 C1054 1.428 . S
H1049 C1045 0.930 . S
H1050 C1047 0.929 . S
S1051 N1052 1.613 . S
S1051 N1053 1.610 . S
N1052 S1051 1.613 . S
N1052 C1055 1.350 . S
N1053 S1051 1.610 . S
N1053 C1054 1.351 . S
C1054 C1048 1.428 . S
C1054 N1053 1.351 . S
C1054 C1055 1.434 . S
C1055 C1046 1.429 . S
C1055 N1052 1.350 . S
C1055 C1054 1.434 . S
C1056 C1057 1.369 . S
C1056 C1058 1.419 . S
C1056 H1060 0.930 . S
C1057 C1056 1.369 . S
C1057 C1066 1.429 . S
C1058 C1056 1.419 . S
C1058 C1059 1.363 . S
C1058 H1061 0.929 . S
C1059 C1058 1.363 . S
C1059 C1065 1.428 . S
H1060 C1056 0.930 . S
H1061 C1058 0.929 . S
S1062 N1063 1.613 . S
S1062 N1064 1.610 . S
N1063 S1062 1.613 . S
N1063 C1066 1.350 . S
N1064 S1062 1.610 . S
N1064 C1065 1.351 . S
C1065 C1059 1.428 . S
C1065 N1064 1.351 . S
C1065 C1066 1.434 . S
C1066 C1057 1.429 . S
C1066 N1063 1.350 . S
C1066 C1065 1.434 . S
C1067 C1068 1.369 . S
C1067 C1069 1.419 . S
C1067 H1071 0.930 . S
C1068 C1067 1.369 . S
C1068 C1077 1.429 . S
C1069 C1067 1.419 . S
C1069 C1070 1.363 . S
C1069 H1072 0.929 . S
C1070 C1069 1.363 . S
C1070 C1076 1.428 . S
H1071 C1067 0.930 . S
H1072 C1069 0.929 . S
S1073 N1074 1.613 . S
S1073 N1075 1.610 . S
N1074 S1073 1.613 . S
N1074 C1077 1.350 . S
N1075 S1073 1.610 . S
N1075 C1076 1.351 . S
C1076 C1070 1.428 . S
C1076 N1075 1.351 . S
C1076 C1077 1.434 . S
C1077 C1068 1.429 . S
C1077 N1074 1.350 . S
C1077 C1076 1.434 . S
C1078 C1079 1.369 . S
C1078 C1080 1.419 . S
C1078 H1082 0.930 . S
C1079 C1078 1.369 . S
C1079 C1088 1.429 . S
C1080 C1078 1.419 . S
C1080 C1081 1.363 . S
C1080 H1083 0.929 . S
C1081 C1080 1.363 . S
C1081 C1087 1.428 . S
H1082 C1078 0.930 . S
H1083 C1080 0.929 . S
S1084 N1085 1.613 . S
S1084 N1086 1.610 . S
N1085 S1084 1.613 . S
N1085 C1088 1.350 . S
N1086 S1084 1.610 . S
N1086 C1087 1.351 . S
C1087 C1081 1.428 . S
C1087 N1086 1.351 . S
C1087 C1088 1.434 . S
C1088 C1079 1.429 . S
C1088 N1085 1.350 . S
C1088 C1087 1.434 . S
C1089 C1090 1.369 . S
C1089 C1091 1.419 . S
C1089 H1093 0.930 . S
C1090 C1089 1.369 . S
C1090 C1099 1.429 . S
C1091 C1089 1.419 . S
C1091 C1092 1.363 . S
C1091 H1094 0.929 . S
C1092 C1091 1.363 . S
C1092 C1098 1.428 . S
H1093 C1089 0.930 . S
H1094 C1091 0.929 . S
S1095 N1096 1.613 . S
S1095 N1097 1.610 . S
N1096 S1095 1.613 . S
N1096 C1099 1.350 . S
N1097 S1095 1.610 . S
N1097 C1098 1.351 . S
C1098 C1092 1.428 . S
C1098 N1097 1.351 . S
C1098 C1099 1.434 . S
C1099 C1090 1.429 . S
C1099 N1096 1.350 . S
C1099 C1098 1.434 . S
C1100 C1101 1.369 . S
C1100 C1102 1.419 . S
C1100 H1104 0.930 . S
C1101 C1100 1.369 . S
C1101 C1110 1.429 . S
C1102 C1100 1.419 . S
C1102 C1103 1.363 . S
C1102 H1105 0.929 . S
C1103 C1102 1.363 . S
C1103 C1109 1.428 . S
H1104 C1100 0.930 . S
H1105 C1102 0.929 . S
S1106 N1107 1.613 . S
S1106 N1108 1.610 . S
N1107 S1106 1.613 . S
N1107 C1110 1.350 . S
N1108 S1106 1.610 . S
N1108 C1109 1.351 . S
C1109 C1103 1.428 . S
C1109 N1108 1.351 . S
C1109 C1110 1.434 . S
C1110 C1101 1.429 . S
C1110 N1107 1.350 . S
C1110 C1109 1.434 . S
C1111 C1112 1.369 . S
C1111 C1113 1.419 . S
C1111 H1115 0.930 . S
C1112 C1111 1.369 . S
C1112 C1121 1.429 . S
C1113 C1111 1.419 . S
C1113 C1114 1.363 . S
C1113 H1116 0.929 . S
C1114 C1113 1.363 . S
C1114 C1120 1.428 . S
H1115 C1111 0.930 . S
H1116 C1113 0.929 . S
S1117 N1118 1.613 . S
S1117 N1119 1.610 . S
N1118 S1117 1.613 . S
N1118 C1121 1.350 . S
N1119 S1117 1.610 . S
N1119 C1120 1.351 . S
C1120 C1114 1.428 . S
C1120 N1119 1.351 . S
C1120 C1121 1.434 . S
C1121 C1112 1.429 . S
C1121 N1118 1.350 . S
C1121 C1120 1.434 . S
C1122 C1123 1.369 . S
C1122 C1124 1.419 . S
C1122 H1126 0.930 . S
C1123 C1122 1.369 . S
C1123 C1132 1.429 . S
C1124 C1122 1.419 . S
C1124 C1125 1.363 . S
C1124 H1127 0.929 . S
C1125 C1124 1.363 . S
C1125 C1131 1.428 . S
H1126 C1122 0.930 . S
H1127 C1124 0.929 . S
S1128 N1129 1.613 . S
S1128 N1130 1.610 . S
N1129 S1128 1.613 . S
N1129 C1132 1.350 . S
N1130 S1128 1.610 . S
N1130 C1131 1.351 . S
C1131 C1125 1.428 . S
C1131 N1130 1.351 . S
C1131 C1132 1.434 . S
C1132 C1123 1.429 . S
C1132 N1129 1.350 . S
C1132 C1131 1.434 . S
C1133 C1134 1.369 . S
C1133 C1135 1.419 . S
C1133 H1137 0.930 . S
C1134 C1133 1.369 . S
C1134 C1143 1.429 . S
C1135 C1133 1.419 . S
C1135 C1136 1.363 . S
C1135 H1138 0.929 . S
C1136 C1135 1.363 . S
C1136 C1142 1.428 . S
H1137 C1133 0.930 . S
H1138 C1135 0.929 . S
S1139 N1140 1.613 . S
S1139 N1141 1.610 . S
N1140 S1139 1.613 . S
N1140 C1143 1.350 . S
N1141 S1139 1.610 . S
N1141 C1142 1.351 . S
C1142 C1136 1.428 . S
C1142 N1141 1.351 . S
C1142 C1143 1.434 . S
C1143 C1134 1.429 . S
C1143 N1140 1.350 . S
C1143 C1142 1.434 . S
C1144 C1145 1.369 . S
C1144 C1146 1.419 . S
C1144 H1148 0.930 . S
C1145 C1144 1.369 . S
C1145 C1154 1.429 . S
C1146 C1144 1.419 . S
C1146 C1147 1.363 . S
C1146 H1149 0.929 . S
C1147 C1146 1.363 . S
C1147 C1153 1.428 . S
H1148 C1144 0.930 . S
H1149 C1146 0.929 . S
S1150 N1151 1.613 . S
S1150 N1152 1.610 . S
N1151 S1150 1.613 . S
N1151 C1154 1.350 . S
N1152 S1150 1.610 . S
N1152 C1153 1.351 . S
C1153 C1147 1.428 . S
C1153 N1152 1.351 . S
C1153 C1154 1.434 . S
C1154 C1145 1.429 . S
C1154 N1151 1.350 . S
C1154 C1153 1.434 . S
C1155 C1156 1.369 . S
C1155 C1157 1.419 . S
C1155 H1159 0.930 . S
C1156 C1155 1.369 . S
C1156 C1165 1.429 . S
C1157 C1155 1.419 . S
C1157 C1158 1.363 . S
C1157 H1160 0.929 . S
C1158 C1157 1.363 . S
C1158 C1164 1.428 . S
H1159 C1155 0.930 . S
H1160 C1157 0.929 . S
S1161 N1162 1.613 . S
S1161 N1163 1.610 . S
N1162 S1161 1.613 . S
N1162 C1165 1.350 . S
N1163 S1161 1.610 . S
N1163 C1164 1.351 . S
C1164 C1158 1.428 . S
C1164 N1163 1.351 . S
C1164 C1165 1.434 . S
C1165 C1156 1.429 . S
C1165 N1162 1.350 . S
C1165 C1164 1.434 . S
C1166 C1167 1.369 . S
C1166 C1168 1.419 . S
C1166 H1170 0.930 . S
C1167 C1166 1.369 . S
C1167 C1176 1.429 . S
C1168 C1166 1.419 . S
C1168 C1169 1.363 . S
C1168 H1171 0.929 . S
C1169 C1168 1.363 . S
C1169 C1175 1.428 . S
H1170 C1166 0.930 . S
H1171 C1168 0.929 . S
S1172 N1173 1.613 . S
S1172 N1174 1.610 . S
N1173 S1172 1.613 . S
N1173 C1176 1.350 . S
N1174 S1172 1.610 . S
N1174 C1175 1.351 . S
C1175 C1169 1.428 . S
C1175 N1174 1.351 . S
C1175 C1176 1.434 . S
C1176 C1167 1.429 . S
C1176 N1173 1.350 . S
C1176 C1175 1.434 . S
C1177 C1178 1.369 . S
C1177 C1179 1.419 . S
C1177 H1181 0.930 . S
C1178 C1177 1.369 . S
C1178 C1187 1.429 . S
C1179 C1177 1.419 . S
C1179 C1180 1.363 . S
C1179 H1182 0.929 . S
C1180 C1179 1.363 . S
C1180 C1186 1.428 . S
H1181 C1177 0.930 . S
H1182 C1179 0.929 . S
S1183 N1184 1.613 . S
S1183 N1185 1.610 . S
N1184 S1183 1.613 . S
N1184 C1187 1.350 . S
N1185 S1183 1.610 . S
N1185 C1186 1.351 . S
C1186 C1180 1.428 . S
C1186 N1185 1.351 . S
C1186 C1187 1.434 . S
C1187 C1178 1.429 . S
C1187 N1184 1.350 . S
C1187 C1186 1.434 . S
C1188 C1189 1.369 . S
C1188 C1190 1.419 . S
C1188 H1192 0.930 . S
C1189 C1188 1.369 . S
C1189 C1198 1.429 . S
C1190 C1188 1.419 . S
C1190 C1191 1.363 . S
C1190 H1193 0.929 . S
C1191 C1190 1.363 . S
C1191 C1197 1.428 . S
H1192 C1188 0.930 . S
H1193 C1190 0.929 . S
S1194 N1195 1.613 . S
S1194 N1196 1.610 . S
N1195 S1194 1.613 . S
N1195 C1198 1.350 . S
N1196 S1194 1.610 . S
N1196 C1197 1.351 . S
C1197 C1191 1.428 . S
C1197 N1196 1.351 . S
C1197 C1198 1.434 . S
C1198 C1189 1.429 . S
C1198 N1195 1.350 . S
C1198 C1197 1.434 . S
C1199 C1200 1.369 . S
C1199 C1201 1.419 . S
C1199 H1203 0.930 . S
C1200 C1199 1.369 . S
C1200 C1209 1.429 . S
C1201 C1199 1.419 . S
C1201 C1202 1.363 . S
C1201 H1204 0.929 . S
C1202 C1201 1.363 . S
C1202 C1208 1.428 . S
H1203 C1199 0.930 . S
H1204 C1201 0.929 . S
S1205 N1206 1.613 . S
S1205 N1207 1.610 . S
N1206 S1205 1.613 . S
N1206 C1209 1.350 . S
N1207 S1205 1.610 . S
N1207 C1208 1.351 . S
C1208 C1202 1.428 . S
C1208 N1207 1.351 . S
C1208 C1209 1.434 . S
C1209 C1200 1.429 . S
C1209 N1206 1.350 . S
C1209 C1208 1.434 . S
C1210 C1211 1.369 . S
C1210 C1212 1.419 . S
C1210 H1214 0.930 . S
C1211 C1210 1.369 . S
C1211 C1220 1.429 . S
C1212 C1210 1.419 . S
C1212 C1213 1.363 . S
C1212 H1215 0.929 . S
C1213 C1212 1.363 . S
C1213 C1219 1.428 . S
H1214 C1210 0.930 . S
H1215 C1212 0.929 . S
S1216 N1217 1.613 . S
S1216 N1218 1.610 . S
N1217 S1216 1.613 . S
N1217 C1220 1.350 . S
N1218 S1216 1.610 . S
N1218 C1219 1.351 . S
C1219 C1213 1.428 . S
C1219 N1218 1.351 . S
C1219 C1220 1.434 . S
C1220 C1211 1.429 . S
C1220 N1217 1.350 . S
C1220 C1219 1.434 . S
C1221 C1222 1.369 . S
C1221 C1223 1.419 . S
C1221 H1225 0.930 . S
C1222 C1221 1.369 . S
C1222 C1231 1.429 . S
C1223 C1221 1.419 . S
C1223 C1224 1.363 . S
C1223 H1226 0.929 . S
C1224 C1223 1.363 . S
C1224 C1230 1.428 . S
H1225 C1221 0.930 . S
H1226 C1223 0.929 . S
S1227 N1228 1.613 . S
S1227 N1229 1.610 . S
N1228 S1227 1.613 . S
N1228 C1231 1.350 . S
N1229 S1227 1.610 . S
N1229 C1230 1.351 . S
C1230 C1224 1.428 . S
C1230 N1229 1.351 . S
C1230 C1231 1.434 . S
C1231 C1222 1.429 . S
C1231 N1228 1.350 . S
C1231 C1230 1.434 . S
C1232 C1233 1.369 . S
C1232 C1234 1.419 . S
C1232 H1236 0.930 . S
C1233 C1232 1.369 . S
C1233 C1242 1.429 . S
C1234 C1232 1.419 . S
C1234 C1235 1.363 . S
C1234 H1237 0.929 . S
C1235 C1234 1.363 . S
C1235 C1241 1.428 . S
H1236 C1232 0.930 . S
H1237 C1234 0.929 . S
S1238 N1239 1.613 . S
S1238 N1240 1.610 . S
N1239 S1238 1.613 . S
N1239 C1242 1.350 . S
N1240 S1238 1.610 . S
N1240 C1241 1.351 . S
C1241 C1235 1.428 . S
C1241 N1240 1.351 . S
C1241 C1242 1.434 . S
C1242 C1233 1.429 . S
C1242 N1239 1.350 . S
C1242 C1241 1.434 . S
C1243 C1244 1.369 . S
C1243 C1245 1.419 . S
C1243 H1247 0.930 . S
C1244 C1243 1.369 . S
C1244 C1253 1.429 . S
C1245 C1243 1.419 . S
C1245 C1246 1.363 . S
C1245 H1248 0.929 . S
C1246 C1245 1.363 . S
C1246 C1252 1.428 . S
H1247 C1243 0.930 . S
H1248 C1245 0.929 . S
S1249 N1250 1.613 . S
S1249 N1251 1.610 . S
N1250 S1249 1.613 . S
N1250 C1253 1.350 . S
N1251 S1249 1.610 . S
N1251 C1252 1.351 . S
C1252 C1246 1.428 . S
C1252 N1251 1.351 . S
C1252 C1253 1.434 . S
C1253 C1244 1.429 . S
C1253 N1250 1.350 . S
C1253 C1252 1.434 . S
C1254 C1255 1.369 . S
C1254 C1256 1.419 . S
C1254 H1258 0.930 . S
C1255 C1254 1.369 . S
C1255 C1264 1.429 . S
C1256 C1254 1.419 . S
C1256 C1257 1.363 . S
C1256 H1259 0.929 . S
C1257 C1256 1.363 . S
C1257 C1263 1.428 . S
H1258 C1254 0.930 . S
H1259 C1256 0.929 . S
S1260 N1261 1.613 . S
S1260 N1262 1.610 . S
N1261 S1260 1.613 . S
N1261 C1264 1.350 . S
N1262 S1260 1.610 . S
N1262 C1263 1.351 . S
C1263 C1257 1.428 . S
C1263 N1262 1.351 . S
C1263 C1264 1.434 . S
C1264 C1255 1.429 . S
C1264 N1261 1.350 . S
C1264 C1263 1.434 . S
C1265 C1266 1.369 . S
C1265 C1267 1.419 . S
C1265 H1269 0.930 . S
C1266 C1265 1.369 . S
C1266 C1275 1.429 . S
C1267 C1265 1.419 . S
C1267 C1268 1.363 . S
C1267 H1270 0.929 . S
C1268 C1267 1.363 . S
C1268 C1274 1.428 . S
H1269 C1265 0.930 . S
H1270 C1267 0.929 . S
S1271 N1272 1.613 . S
S1271 N1273 1.610 . S
N1272 S1271 1.613 . S
N1272 C1275 1.350 . S
N1273 S1271 1.610 . S
N1273 C1274 1.351 . S
C1274 C1268 1.428 . S
C1274 N1273 1.351 . S
C1274 C1275 1.434 . S
C1275 C1266 1.429 . S
C1275 N1272 1.350 . S
C1275 C1274 1.434 . S
C1276 C1277 1.369 . S
C1276 C1278 1.419 . S
C1276 H1280 0.930 . S
C1277 C1276 1.369 . S
C1277 C1286 1.429 . S
C1278 C1276 1.419 . S
C1278 C1279 1.363 . S
C1278 H1281 0.929 . S
C1279 C1278 1.363 . S
C1279 C1285 1.428 . S
H1280 C1276 0.930 . S
H1281 C1278 0.929 . S
S1282 N1283 1.613 . S
S1282 N1284 1.610 . S
N1283 S1282 1.613 . S
N1283 C1286 1.350 . S
N1284 S1282 1.610 . S
N1284 C1285 1.351 . S
C1285 C1279 1.428 . S
C1285 N1284 1.351 . S
C1285 C1286 1.434 . S
C1286 C1277 1.429 . S
C1286 N1283 1.350 . S
C1286 C1285 1.434 . S
C1287 C1288 1.369 . S
C1287 C1289 1.419 . S
C1287 H1291 0.930 . S
C1288 C1287 1.369 . S
C1288 C1297 1.429 . S
C1289 C1287 1.419 . S
C1289 C1290 1.363 . S
C1289 H1292 0.929 . S
C1290 C1289 1.363 . S
C1290 C1296 1.428 . S
H1291 C1287 0.930 . S
H1292 C1289 0.929 . S
S1293 N1294 1.613 . S
S1293 N1295 1.610 . S
N1294 S1293 1.613 . S
N1294 C1297 1.350 . S
N1295 S1293 1.610 . S
N1295 C1296 1.351 . S
C1296 C1290 1.428 . S
C1296 N1295 1.351 . S
C1296 C1297 1.434 . S
C1297 C1288 1.429 . S
C1297 N1294 1.350 . S
C1297 C1296 1.434 . S
C1298 C1299 1.369 . S
C1298 C1300 1.419 . S
C1298 H1302 0.930 . S
C1299 C1298 1.369 . S
C1299 C1308 1.429 . S
C1300 C1298 1.419 . S
C1300 C1301 1.363 . S
C1300 H1303 0.929 . S
C1301 C1300 1.363 . S
C1301 C1307 1.428 . S
H1302 C1298 0.930 . S
H1303 C1300 0.929 . S
S1304 N1305 1.613 . S
S1304 N1306 1.610 . S
N1305 S1304 1.613 . S
N1305 C1308 1.350 . S
N1306 S1304 1.610 . S
N1306 C1307 1.351 . S
C1307 C1301 1.428 . S
C1307 N1306 1.351 . S
C1307 C1308 1.434 . S
C1308 C1299 1.429 . S
C1308 N1305 1.350 . S
C1308 C1307 1.434 . S
C1309 C1310 1.369 . S
C1309 C1311 1.419 . S
C1309 H1313 0.930 . S
C1310 C1309 1.369 . S
C1310 C1319 1.429 . S
C1311 C1309 1.419 . S
C1311 C1312 1.363 . S
C1311 H1314 0.929 . S
C1312 C1311 1.363 . S
C1312 C1318 1.428 . S
H1313 C1309 0.930 . S
H1314 C1311 0.929 . S
S1315 N1316 1.613 . S
S1315 N1317 1.610 . S
N1316 S1315 1.613 . S
N1316 C1319 1.350 . S
N1317 S1315 1.610 . S
N1317 C1318 1.351 . S
C1318 C1312 1.428 . S
C1318 N1317 1.351 . S
C1318 C1319 1.434 . S
C1319 C1310 1.429 . S
C1319 N1316 1.350 . S
C1319 C1318 1.434 . S
C529 C10 1.206 . S
C531 C153 1.202 1_455 S
C540 C29 1.203 . S
C542 C162 1.206 . S
C551 C95 1.205 . S
C553 C52 1.205 . S
C562 C87 1.204 . S
C564 C128 1.206 . S
C573 C74 1.168 . S
C575 C40 1.167 1_545 S
C584 C65 1.240 . S
C586 C15 1.240 . S
C595 C117 1.240 1_545 S
C597 C175 1.241 . S
C606 C140 1.167 . S
C608 C106 1.167 1_455 S
C617 C191 1.202 . S
C619 C208 1.205 1_554 S
C628 C186 1.205 . S
C630 C227 1.204 . S
C639 C238 1.205 . S
C641 C263 1.204 . S
C650 C250 1.206 1_554 S
C652 C213 1.202 . S
C661 C274 1.206 . S
C663 C417 1.202 . S
C672 C426 1.206 . S
C674 C293 1.203 . S
C683 C318 1.205 . S
C685 C367 1.204 . S
C694 C337 1.203 . S
C696 C392 1.206 . S
C705 C348 1.168 . S
C707 C304 1.167 . S
C716 C323 1.240 . S
C718 C279 1.240 . S
C727 C381 1.241 . S
C729 C439 1.241 . S
C738 C404 1.168 . S
C740 C362 1.167 . S
C749 C455 1.204 . S
C751 C472 1.205 . S
C760 C491 1.202 . S
C762 C450 1.206 . S
C771 C502 1.206 . S
C773 C527 1.203 . S
C782 C514 1.205 . S
C784 C477 1.204 . S
C793 C524 1.102 . S
C795 C8 1.111 . S
C804 C470 1.107 . S
C806 C43 1.128 . S
C815 C62 1.114 . S
C817 C448 1.108 . S
C826 C81 1.126 . S
C828 C494 1.116 . S
C837 C505 1.159 . S
C839 C109 1.159 . S
C848 C120 1.140 . S
C850 C521 1.157 . S
C859 C469 1.164 . S
C861 C147 1.154 . S
C870 C172 1.142 . S
C872 C447 1.157 . S
C881 C360 1.115 . S
C883 C84 1.114 . S
C892 C7 1.142 . S
C894 C395 1.151 . S
C903 C32 1.125 . S
C905 C414 1.115 . S
C914 C59 1.153 . S
C916 C433 1.144 . S
C925 C271 1.154 . S
C927 C131 1.144 . S
C936 C150 1.124 . S
C938 C296 1.118 . S
C947 C169 1.154 . S
C949 C315 1.145 . S
C958 C98 1.115 . S
C960 C340 1.116 . S
C969 C436 1.141 . S
C971 C183 1.149 . S
C980 C206 1.108 . S
C982 C307 1.129 . S
C991 C316 1.110 . S
C993 C184 1.106 . S
C1002 C351 1.117 . S
C1004 C230 1.120 . S
C1013 C260 1.114 . S
C1015 C272 1.111 . S
C1024 C384 1.145 . S
C1026 C257 1.154 . S
C1035 C411 1.164 . S
C1037 C205 1.153 . S
C1046 C359 1.155 . S
C1048 C241 1.156 . S
C1057 C103 1.101 . S
C1059 C458 1.096 . S
C1068 C118 1.091 . S
C1070 C492 1.087 . S
C1079 C139 1.109 . S
C1081 C516 1.086 . S
C1090 C480 1.087 . S
C1092 C164 1.081 . S
C1101 C483 1.136 . S
C1103 C18 1.120 . S
C1112 C37 1.143 . S
C1114 C461 1.132 . S
C1123 C54 1.113 . S
C1125 C499 1.134 . S
C1134 C513 1.139 . S
C1136 C73 1.133 . S
C1145 C285 1.129 . S
C1147 C161 1.123 . S
C1156 C96 1.089 . S
C1158 C294 1.100 . S
C1167 C329 1.122 . S
C1169 C125 1.130 . S
C1178 C338 1.092 . S
C1180 C142 1.094 . S
C1189 C370 1.091 . S
C1191 C30 1.095 . S
C1200 C51 1.126 . S
C1202 C389 1.126 . S
C1211 C406 1.096 . S
C1213 C76 1.101 . S
C1222 C425 1.132 . S
C1224 C21 1.121 . S
C1233 C249 1.142 . S
C1235 C345 1.135 . S
C1244 C228 1.092 . S
C1246 C382 1.085 . S
C1255 C403 1.109 . S
C1257 C252 1.085 . S
C1266 C216 1.080 . S
C1268 C428 1.086 . S
C1277 C194 1.084 . S
C1279 C373 1.103 . S
C1288 C301 1.138 . S
C1290 C197 1.136 . S
C1299 C235 1.125 . S
C1301 C326 1.126 . S
C1310 C282 1.113 . S
C1312 C219 1.138 . S
