# Generated by pormake.
# Topology npo, (4)-cn, num edge types: 1
# Building blocks:
#     Node 0, Type 0, BuildingBlock: AZAVOO_clean_sbu_0, # of connection points: 4
#     Node 1, Type 0, BuildingBlock: AZAVOO_clean_sbu_0, # of connection points: 4
#     Node 2, Type 0, BuildingBlock: AZAVOO_clean_sbu_0, # of connection points: 4
#     Node 3, Type 0, BuildingBlock: AZAVOO_clean_sbu_0, # of connection points: 4
#     Node 4, Type 0, BuildingBlock: AZAVOO_clean_sbu_0, # of connection points: 4
#     Node 5, Type 0, BuildingBlock: AZAVOO_clean_sbu_0, # of connection points: 4
#     Edge 6, Type (0, 0), BuildingBlock: CIFDUS_clean_linker_0, # of connection points: 2
#     Edge 7, Type (0, 0), BuildingBlock: CIFDUS_clean_linker_0, # of connection points: 2
#     Edge 8, Type (0, 0), BuildingBlock: CIFDUS_clean_linker_0, # of connection points: 2
#     Edge 9, Type (0, 0), BuildingBlock: CIFDUS_clean_linker_0, # of connection points: 2
#     Edge 10, Type (0, 0), BuildingBlock: CIFDUS_clean_linker_0, # of connection points: 2
#     Edge 11, Type (0, 0), BuildingBlock: CIFDUS_clean_linker_0, # of connection points: 2
#     Edge 12, Type (0, 0), BuildingBlock: CIFDUS_clean_linker_0, # of connection points: 2
#     Edge 13, Type (0, 0), BuildingBlock: CIFDUS_clean_linker_0, # of connection points: 2
#     Edge 14, Type (0, 0), BuildingBlock: CIFDUS_clean_linker_0, # of connection points: 2
#     Edge 15, Type (0, 0), BuildingBlock: CIFDUS_clean_linker_0, # of connection points: 2
#     Edge 16, Type (0, 0), BuildingBlock: CIFDUS_clean_linker_0, # of connection points: 2
#     Edge 17, Type (0, 0), BuildingBlock: CIFDUS_clean_linker_0, # of connection points: 2
# Relax obj value: 0.261
# Max RMSD: 0.252
# Mean RMSD: 0.231
data_MOF--net-npo--node1-AZAVOO_clean_sbu_0--edge1-CIFDUS_clean_linker_0
_symmetry_space_group_name_H-M    P1
_symmetry_Int_Tables_number       1
_symmetry_cell_setting            triclinic
loop_
_symmetry_equiv_pos_as_xyz
'x, y, z'
_cell_length_a     38.737115
_cell_length_b     34.69243
_cell_length_c     23.66765
_cell_angle_alpha  89.7785
_cell_angle_beta   89.737859
_cell_angle_gamma 131.22406
loop_
_atom_site_label
_atom_site_type_symbol
_atom_site_fract_x
_atom_site_fract_y
_atom_site_fract_z
_atom_type_partial_charge
Mg0 Mg 0.53011 0.11515 0.27369 0.0
O1 O 0.60763 0.16433 0.26243 0.0
O2 O 0.6255 0.11601 0.27989 0.0
Mg3 Mg 0.55854 0.03565 0.304 0.0
C4 C 0.63698 0.15869 0.26551 0.0
C5 C 0.50832 0.18336 0.25577 0.0
O6 O 0.47774 0.14901 0.29314 0.0
O7 O 0.52035 0.07832 0.18905 0.0
O8 O 0.53462 0.02741 0.2119 0.0
O9 O 0.53825 0.13448 0.36415 0.0
O10 O 0.52773 0.06772 0.33221 0.0
C11 C 0.52308 0.04473 0.17594 0.0
C12 C 0.53537 0.0958 0.37448 0.0
O13 O 0.53544 0.17866 0.23406 0.0
Mg14 Mg 0.41154 0.46271 0.7473 0.0
O15 O 0.4492 0.54753 0.75427 0.0
O16 O 0.5233 0.59329 0.77314 0.0
Mg17 Mg 0.53323 0.53501 0.77867 0.0
C18 C 0.48925 0.5903 0.76304 0.0
C19 C 0.31545 0.43123 0.74285 0.0
O20 O 0.31183 0.4104 0.79148 0.0
O21 O 0.44467 0.47965 0.66058 0.0
O22 O 0.51738 0.52045 0.68447 0.0
O23 O 0.39936 0.45302 0.84018 0.0
O24 O 0.46014 0.47207 0.79828 0.0
C25 C 0.48614 0.50177 0.64746 0.0
C26 C 0.43891 0.46539 0.84423 0.0
O27 O 0.35125 0.45256 0.71257 0.0
Mg28 Mg 0.95827 0.53937 0.13058 0.0
O29 O 0.89315 0.45661 0.14674 0.0
O30 O 0.90887 0.40533 0.14233 0.0
Mg31 Mg 0.98502 0.45613 0.11677 0.0
C32 C 0.8808 0.41237 0.15085 0.0
C33 C 0.88544 0.54976 0.13692 0.0
O34 O 0.87278 0.52076 0.09239 0.0
O35 O 0.9838 0.54114 0.21779 0.0
O36 O 1.00464 0.49513 0.20289 0.0
O37 O 0.94593 0.53108 0.03787 0.0
O38 O 0.98571 0.51532 0.08169 0.0
C39 C 1.002 0.52299 0.23436 0.0
C40 C 0.96885 0.51601 0.03547 0.0
O41 O 0.92084 0.565 0.16376 0.0
Mg42 Mg 0.5252 0.92012 0.77599 0.0
O43 O 0.44737 0.86128 0.76548 0.0
O44 O 0.4192 0.89975 0.77834 0.0
Mg45 Mg 0.47993 0.98318 0.80236 0.0
C46 C 0.4138 0.86019 0.76646 0.0
C47 C 0.56163 0.86525 0.75582 0.0
O48 O 0.59467 0.90477 0.78586 0.0
O49 O 0.53101 0.9539 0.68996 0.0
O50 O 0.50732 0.99611 0.71092 0.0
O51 O 0.518 0.90174 0.86676 0.0
O52 O 0.51957 0.96225 0.83266 0.0
C53 C 0.52324 0.98312 0.6758 0.0
C54 C 0.51487 0.93609 0.87572 0.0
O55 O 0.52902 0.86276 0.73936 0.0
Mg56 Mg 0.61233 0.55403 0.24043 0.0
O57 O 0.57046 0.468 0.25233 0.0
O58 O 0.5019 0.43174 0.28972 0.0
Mg59 Mg 0.49928 0.49531 0.30042 0.0
C60 C 0.53094 0.42873 0.27064 0.0
C61 C 0.70345 0.58044 0.21035 0.0
O62 O 0.71365 0.60506 0.25802 0.0
O63 O 0.56904 0.53651 0.16367 0.0
O64 O 0.50234 0.50423 0.20445 0.0
O65 O 0.63728 0.56737 0.32876 0.0
O66 O 0.57459 0.55282 0.30446 0.0
C67 C 0.5277 0.51825 0.16071 0.0
C68 C 0.60067 0.55903 0.34375 0.0
O69 O 0.66409 0.55713 0.18907 0.0
Mg70 Mg 0.09577 0.50413 0.63499 0.0
O71 O 0.15543 0.58942 0.64994 0.0
O72 O 0.13427 0.63358 0.62659 0.0
Mg73 Mg 0.0608 0.57583 0.59271 0.0
C74 C 0.16384 0.63161 0.64579 0.0
C75 C 0.12093 0.44857 0.71125 0.0
O76 O 0.07718 0.41499 0.72505 0.0
O77 O 0.06007 0.50122 0.71423 0.0
O78 O 0.03602 0.54063 0.6813 0.0
O79 O 0.11764 0.51095 0.54578 0.0
O80 O 0.06931 0.52081 0.57309 0.0
C81 C 0.03779 0.51636 0.72024 0.0
C82 C 0.09207 0.52133 0.53291 0.0
O83 O 0.13588 0.48694 0.6804 0.0
H84 H 0.45679 0.20419 0.29717 0.0
H85 H 0.5763 0.26858 0.19371 0.0
H86 H 0.59314 0.34988 0.18808 0.0
H87 H 0.57648 0.40405 0.21724 0.0
H88 H 0.45702 0.33938 0.32113 0.0
H89 H 0.43776 0.25679 0.3219 0.0
C90 C 0.4863 0.2358 0.2729 0.0
C91 C 0.51539 0.23035 0.24623 0.0
C92 C 0.49606 0.28256 0.27037 0.0
C93 C 0.55333 0.27169 0.21471 0.0
C94 C 0.56312 0.3183 0.2117 0.0
C95 C 0.54618 0.37192 0.24004 0.0
C96 C 0.51851 0.37817 0.26955 0.0
C97 C 0.53519 0.32443 0.24024 0.0
C98 C 0.47907 0.33584 0.29823 0.0
C99 C 0.46799 0.28853 0.29871 0.0
H100 H 0.23352 0.38647 0.79463 0.0
H101 H 0.32142 0.48769 0.65651 0.0
H102 H 0.26948 0.50264 0.63601 0.0
H103 H 0.20064 0.48912 0.65852 0.0
H104 H 0.11053 0.38592 0.79398 0.0
H105 H 0.1621 0.36987 0.8146 0.0
C106 C 0.24114 0.41151 0.75979 0.0
C107 C 0.28143 0.43602 0.72728 0.0
C108 C 0.21103 0.41999 0.74812 0.0
C109 C 0.29065 0.46818 0.68214 0.0
C110 C 0.26108 0.477 0.67053 0.0
C111 C 0.19231 0.4633 0.69283 0.0
C112 C 0.15208 0.4392 0.72515 0.0
C113 C 0.22151 0.45358 0.70361 0.0
C114 C 0.14143 0.40514 0.7687 0.0
C115 C 0.17085 0.39591 0.7804 0.0
H116 H 0.67289 0.2529 0.22724 0.0
H117 H 0.70971 0.16198 0.26396 0.0
H118 H 0.78781 0.2316 0.23012 0.0
H119 H 0.84564 0.31818 0.18936 0.0
H120 H 0.80832 0.40877 0.15374 0.0
H121 H 0.73043 0.33913 0.18748 0.0
C122 C 0.69795 0.24823 0.22819 0.0
C123 C 0.68523 0.20209 0.24824 0.0
C124 C 0.74275 0.28828 0.20841 0.0
C125 C 0.71839 0.197 0.24891 0.0
C126 C 0.7631 0.23677 0.22936 0.0
C127 C 0.8204 0.32257 0.18859 0.0
C128 C 0.83293 0.36868 0.1688 0.0
C129 C 0.77561 0.28249 0.2087 0.0
C130 C 0.79978 0.3738 0.16871 0.0
C131 C 0.75516 0.33399 0.1881 0.0
H132 H 0.48537 0.76798 0.73128 0.0
H133 H 0.62841 0.86043 0.77311 0.0
H134 H 0.61897 0.78351 0.7786 0.0
H135 H 0.56901 0.68952 0.77618 0.0
H136 H 0.4252 0.59781 0.7379 0.0
H137 H 0.43611 0.67493 0.72702 0.0
C138 C 0.5147 0.77147 0.74075 0.0
C139 C 0.55756 0.81988 0.75161 0.0
C140 C 0.50875 0.72709 0.74538 0.0
C141 C 0.59504 0.82358 0.76451 0.0
C142 C 0.58961 0.77959 0.76794 0.0
C143 C 0.54003 0.68636 0.76555 0.0
C144 C 0.49633 0.63773 0.75822 0.0
C145 C 0.54641 0.73104 0.75944 0.0
C146 C 0.45924 0.63456 0.74418 0.0
C147 C 0.46541 0.67871 0.73768 0.0
H148 H 0.78501 0.61646 0.25268 0.0
H149 H 0.69298 0.53137 0.11311 0.0
H150 H 0.74211 0.5159 0.07729 0.0
H151 H 0.80906 0.52304 0.08804 0.0
H152 H 0.9003 0.60671 0.22861 0.0
H153 H 0.85344 0.62617 0.26159 0.0
C154 C 0.77584 0.5949 0.21413 0.0
C155 C 0.73525 0.57499 0.18574 0.0
C156 C 0.8039 0.58557 0.19417 0.0
C157 C 0.72396 0.5471 0.13587 0.0
C158 C 0.75198 0.5381 0.11543 0.0
C159 C 0.81886 0.5457 0.1258 0.0
C160 C 0.85805 0.56317 0.15594 0.0
C161 C 0.79167 0.55656 0.14466 0.0
C162 C 0.87025 0.59264 0.20467 0.0
C163 C 0.84347 0.6038 0.22356 0.0
H164 H 0.34108 0.84926 0.73014 0.0
H165 H 0.38389 0.76372 0.76296 0.0
H166 H 0.31068 0.68589 0.72835 0.0
H167 H 0.23536 0.64245 0.68694 0.0
H168 H 0.19286 0.72803 0.6517 0.0
H169 H 0.26525 0.80547 0.68869 0.0
C170 C 0.33422 0.81349 0.73029 0.0
C171 C 0.36794 0.81239 0.74937 0.0
C172 C 0.29228 0.76893 0.70935 0.0
C173 C 0.35863 0.76576 0.74853 0.0
C174 C 0.31678 0.7212 0.72862 0.0
C175 C 0.24182 0.67799 0.68718 0.0
C176 C 0.20854 0.67921 0.66637 0.0
C177 C 0.28353 0.72243 0.70847 0.0
C178 C 0.21778 0.72581 0.66718 0.0
C179 C 0.25917 0.77018 0.68853 0.0
H180 H 0.51536 1.01135 0.91229 0.0
H181 H 0.49959 0.8823 -0.02951 0.0
H182 H 0.49784 0.90274 0.06801 0.0
H183 H 0.50673 0.96058 0.13724 0.0
H184 H 0.52239 0.08988 0.08102 0.0
H185 H 0.51774 0.06567 -0.01741 0.0
C186 C 0.51092 0.98734 0.9463 0.0
C187 C 0.50808 0.94567 0.93396 0.0
C188 C 0.51023 0.9995 0.00279 0.0
C189 C 0.50222 0.91486 -0.0214 0.0
C190 C 0.50128 0.92653 0.03456 0.0
C191 C 0.50884 0.98336 0.10354 0.0
C192 C 0.51544 0.0273 0.11658 0.0
C193 C 0.50629 0.96936 0.04718 0.0
C194 C 0.5174 0.05588 0.07227 0.0
C195 C 0.51492 0.04218 0.0159 0.0
H196 H 0.5263 0.54156 0.38663 0.0
H197 H 0.64319 0.55902 0.4355 0.0
H198 H 0.61732 0.54185 0.53394 0.0
H199 H 0.56116 0.52088 0.60532 0.0
H200 H 0.44194 0.49845 0.55536 0.0
H201 H 0.46831 0.51661 0.45702 0.0
C202 C 0.54579 0.54075 0.41845 0.0
C203 C 0.58626 0.5508 0.40353 0.0
C204 C 0.53008 0.52947 0.47448 0.0
C205 C 0.61183 0.55126 0.44583 0.0
C206 C 0.59698 0.54123 0.50205 0.0
C207 C 0.54083 0.51982 0.57291 0.0
C208 C 0.49976 0.50856 0.58755 0.0
C209 C 0.55605 0.53005 0.5167 0.0
C210 C 0.47356 0.50678 0.54507 0.0
C211 C 0.48876 0.51747 0.48898 0.0
H212 H 0.05064 0.49151 0.82294 0.0
H213 H 0.97204 0.52214 0.73891 0.0
H214 H 0.93958 0.51869 0.82891 0.0
H215 H 0.93939 0.51588 0.93193 0.0
H216 H 0.02015 0.48892 0.01713 0.0
H217 H 0.04505 0.4811 0.92641 0.0
C218 C 0.02593 0.49669 0.82429 0.0
C219 C 1.01441 0.50787 0.77438 0.0
C220 C 1.00781 0.49551 0.87647 0.0
C221 C 0.98216 0.51432 0.77681 0.0
C222 C 0.96344 0.51227 0.82827 0.0
C223 C 0.96189 0.50753 0.9307 0.0
C224 C 0.97811 0.50339 -0.01882 0.0
C225 C 0.97697 0.50431 0.87847 0.0
C226 C 1.00711 0.49233 -0.02113 0.0
C227 C 0.02162 0.48813 0.92696 0.0
H228 H 0.53433 0.02004 0.41192 0.0
H229 H 0.54469 0.1453 0.46953 0.0
H230 H 0.54385 0.12281 0.56722 0.0
H231 H 0.53573 0.06506 0.63671 0.0
H232 H 0.52714 0.9407 0.58116 0.0
H233 H 0.53224 0.96569 0.48253 0.0
C234 C 0.53689 0.0427 0.44583 0.0
C235 C 0.53924 0.08408 0.43321 0.0
C236 C 0.53653 0.02964 0.50241 0.0
C237 C 0.5427 0.11315 0.47779 0.0
C238 C 0.54213 0.10028 0.53385 0.0
C239 C 0.5352 0.04352 0.60307 0.0
C240 C 0.5306 1.00079 0.61631 0.0
C241 C 0.53831 0.05817 0.54667 0.0
C242 C 0.53066 0.97379 0.57218 0.0
C243 C 0.53338 0.98793 0.51573 0.0
H244 H 0.41124 0.47304 0.94581 0.0
H245 H 0.51674 0.48191 0.86595 0.0
H246 H 0.55512 0.50211 0.95623 0.0
H247 H 0.55792 0.51549 0.05826 0.0
H248 H 0.45108 0.50404 0.13854 0.0
H249 H 0.41421 0.48679 0.04768 0.0
C250 C 0.44258 0.47931 0.9482 0.0
C251 C 0.46126 0.47635 0.89924 0.0
C252 C 0.46433 0.49055 0.0003 0.0
C253 C 0.50191 0.48458 0.90294 0.0
C254 C 0.52386 0.496 0.95458 0.0
C255 C 0.52681 0.50967 0.05578 0.0
C256 C 0.5073 0.511 0.10503 0.0
C257 C 0.50536 0.49906 0.00354 0.0
C258 C 0.46672 0.50295 0.10123 0.0
C259 C 0.44555 0.49306 0.04932 0.0
H260 H 0.04089 0.54357 0.49446 0.0
H261 H 0.13083 0.51831 0.43852 0.0
H262 H 0.11315 0.52042 0.34033 0.0
H263 H 0.06685 0.52142 0.27148 0.0
H264 H 0.9771 0.54698 0.32699 0.0
H265 H 1.00068 0.55359 0.42476 0.0
C266 C 0.05736 0.5395 0.4609 0.0
C267 C 0.08688 0.53041 0.47386 0.0
C268 C 0.0468 0.54039 0.40464 0.0
C269 C 0.10784 0.52515 0.42971 0.0
C270 C 0.09763 0.52617 0.37357 0.0
C271 C 0.05264 0.52876 0.30494 0.0
C272 C 0.01974 0.53286 0.29231 0.0
C273 C 0.06624 0.53239 0.36073 0.0
C274 C 1.00234 0.54345 0.3358 0.0
C275 C 1.01568 0.54704 0.39163 0.0
loop_
_geom_bond_atom_site_label_1
_geom_bond_atom_site_label_2
_geom_bond_distance
_geom_bond_site_symmetry_2
_ccdc_geom_bond_type
Mg0 O1 2.028 . S
Mg0 O7 1.986 . S
Mg0 O9 2.114 . S
Mg0 O10 2.251 . S
Mg0 O13 2.010 . S
O1 Mg0 2.028 . S
O1 C4 1.250 . S
O2 Mg3 2.028 . S
O2 C4 1.248 . S
Mg3 O2 2.028 . S
Mg3 O8 2.032 . S
Mg3 O10 2.079 . S
C4 O1 1.250 . S
C4 O2 1.248 . S
C5 O6 1.264 . S
C5 O13 1.249 . S
O6 C5 1.264 . S
O7 Mg0 1.986 . S
O7 C11 1.246 . S
O8 Mg3 2.032 . S
O8 C11 1.259 . S
O9 Mg0 2.114 . S
O9 C12 1.252 . S
O10 Mg0 2.251 . S
O10 Mg3 2.079 . S
O10 C12 1.273 . S
C11 O7 1.246 . S
C11 O8 1.259 . S
C12 O9 1.252 . S
C12 O10 1.273 . S
O13 Mg0 2.010 . S
O13 C5 1.249 . S
Mg14 O15 2.028 . S
Mg14 O21 1.986 . S
Mg14 O23 2.114 . S
Mg14 O24 2.251 . S
Mg14 O27 2.010 . S
O15 Mg14 2.028 . S
O15 C18 1.250 . S
O16 Mg17 2.028 . S
O16 C18 1.248 . S
Mg17 O16 2.028 . S
Mg17 O22 2.032 . S
Mg17 O24 2.079 . S
C18 O15 1.250 . S
C18 O16 1.248 . S
C19 O20 1.264 . S
C19 O27 1.249 . S
O20 C19 1.264 . S
O21 Mg14 1.986 . S
O21 C25 1.246 . S
O22 Mg17 2.032 . S
O22 C25 1.259 . S
O23 Mg14 2.114 . S
O23 C26 1.252 . S
O24 Mg14 2.251 . S
O24 Mg17 2.079 . S
O24 C26 1.273 . S
C25 O21 1.246 . S
C25 O22 1.259 . S
C26 O23 1.252 . S
C26 O24 1.273 . S
O27 Mg14 2.010 . S
O27 C19 1.249 . S
Mg28 O29 2.028 . S
Mg28 O35 1.986 . S
Mg28 O37 2.114 . S
Mg28 O38 2.251 . S
Mg28 O41 2.010 . S
O29 Mg28 2.028 . S
O29 C32 1.250 . S
O30 Mg31 2.028 . S
O30 C32 1.248 . S
Mg31 O30 2.028 . S
Mg31 O36 2.032 . S
Mg31 O38 2.079 . S
C32 O29 1.250 . S
C32 O30 1.248 . S
C33 O34 1.264 . S
C33 O41 1.249 . S
O34 C33 1.264 . S
O35 Mg28 1.986 . S
O35 C39 1.246 . S
O36 Mg31 2.032 . S
O36 C39 1.259 . S
O37 Mg28 2.114 . S
O37 C40 1.252 . S
O38 Mg28 2.251 . S
O38 Mg31 2.079 . S
O38 C40 1.273 . S
C39 O35 1.246 . S
C39 O36 1.259 . S
C40 O37 1.252 . S
C40 O38 1.273 . S
O41 Mg28 2.010 . S
O41 C33 1.249 . S
Mg42 O43 2.028 . S
Mg42 O49 1.986 . S
Mg42 O51 2.114 . S
Mg42 O52 2.251 . S
Mg42 O55 2.010 . S
O43 Mg42 2.028 . S
O43 C46 1.250 . S
O44 Mg45 2.028 . S
O44 C46 1.248 . S
Mg45 O44 2.028 . S
Mg45 O50 2.032 . S
Mg45 O52 2.079 . S
C46 O43 1.250 . S
C46 O44 1.248 . S
C47 O48 1.264 . S
C47 O55 1.249 . S
O48 C47 1.264 . S
O49 Mg42 1.986 . S
O49 C53 1.246 . S
O50 Mg45 2.032 . S
O50 C53 1.259 . S
O51 Mg42 2.114 . S
O51 C54 1.252 . S
O52 Mg42 2.251 . S
O52 Mg45 2.079 . S
O52 C54 1.273 . S
C53 O49 1.246 . S
C53 O50 1.259 . S
C54 O51 1.252 . S
C54 O52 1.273 . S
O55 Mg42 2.010 . S
O55 C47 1.249 . S
Mg56 O57 2.028 . S
Mg56 O63 1.986 . S
Mg56 O65 2.114 . S
Mg56 O66 2.251 . S
Mg56 O69 2.010 . S
O57 Mg56 2.028 . S
O57 C60 1.250 . S
O58 Mg59 2.028 . S
O58 C60 1.248 . S
Mg59 O58 2.028 . S
Mg59 O64 2.032 . S
Mg59 O66 2.079 . S
C60 O57 1.250 . S
C60 O58 1.248 . S
C61 O62 1.264 . S
C61 O69 1.249 . S
O62 C61 1.264 . S
O63 Mg56 1.986 . S
O63 C67 1.246 . S
O64 Mg59 2.032 . S
O64 C67 1.259 . S
O65 Mg56 2.114 . S
O65 C68 1.252 . S
O66 Mg56 2.251 . S
O66 Mg59 2.079 . S
O66 C68 1.273 . S
C67 O63 1.246 . S
C67 O64 1.259 . S
C68 O65 1.252 . S
C68 O66 1.273 . S
O69 Mg56 2.010 . S
O69 C61 1.249 . S
Mg70 O71 2.028 . S
Mg70 O77 1.986 . S
Mg70 O79 2.114 . S
Mg70 O80 2.251 . S
Mg70 O83 2.010 . S
O71 Mg70 2.028 . S
O71 C74 1.250 . S
O72 Mg73 2.028 . S
O72 C74 1.248 . S
Mg73 O72 2.028 . S
Mg73 O78 2.032 . S
Mg73 O80 2.079 . S
C74 O71 1.250 . S
C74 O72 1.248 . S
C75 O76 1.264 . S
C75 O83 1.249 . S
O76 C75 1.264 . S
O77 Mg70 1.986 . S
O77 C81 1.246 . S
O78 Mg73 2.032 . S
O78 C81 1.259 . S
O79 Mg70 2.114 . S
O79 C82 1.252 . S
O80 Mg70 2.251 . S
O80 Mg73 2.079 . S
O80 C82 1.273 . S
C81 O77 1.246 . S
C81 O78 1.259 . S
C82 O79 1.252 . S
C82 O80 1.273 . S
O83 Mg70 2.010 . S
O83 C75 1.249 . S
H84 C90 0.930 . S
H85 C93 0.930 . S
H86 C94 0.930 . S
H87 C95 0.930 . S
H88 C98 0.930 . S
H89 C99 0.930 . S
C90 H84 0.930 . S
C90 C91 1.355 . S
C90 C92 1.415 . S
C91 C90 1.355 . S
C91 C93 1.419 . S
C92 C90 1.415 . S
C92 C97 1.425 . S
C92 C99 1.409 . S
C93 H85 0.930 . S
C93 C91 1.419 . S
C93 C94 1.362 . S
C94 H86 0.930 . S
C94 C93 1.362 . S
C94 C97 1.409 . S
C95 H87 0.930 . S
C95 C96 1.355 . S
C95 C97 1.415 . S
C96 C95 1.355 . S
C96 C98 1.419 . S
C97 C92 1.425 . S
C97 C94 1.409 . S
C97 C95 1.415 . S
C98 H88 0.930 . S
C98 C96 1.419 . S
C98 C99 1.362 . S
C99 H89 0.930 . S
C99 C92 1.409 . S
C99 C98 1.362 . S
H100 C106 0.930 . S
H101 C109 0.930 . S
H102 C110 0.930 . S
H103 C111 0.930 . S
H104 C114 0.930 . S
H105 C115 0.930 . S
C106 H100 0.930 . S
C106 C107 1.355 . S
C106 C108 1.415 . S
C107 C106 1.355 . S
C107 C109 1.419 . S
C108 C106 1.415 . S
C108 C113 1.425 . S
C108 C115 1.409 . S
C109 H101 0.930 . S
C109 C107 1.419 . S
C109 C110 1.362 . S
C110 H102 0.930 . S
C110 C109 1.362 . S
C110 C113 1.409 . S
C111 H103 0.930 . S
C111 C112 1.355 . S
C111 C113 1.415 . S
C112 C111 1.355 . S
C112 C114 1.419 . S
C113 C108 1.425 . S
C113 C110 1.409 . S
C113 C111 1.415 . S
C114 H104 0.930 . S
C114 C112 1.419 . S
C114 C115 1.362 . S
C115 H105 0.930 . S
C115 C108 1.409 . S
C115 C114 1.362 . S
H116 C122 0.930 . S
H117 C125 0.930 . S
H118 C126 0.930 . S
H119 C127 0.930 . S
H120 C130 0.930 . S
H121 C131 0.930 . S
C122 H116 0.930 . S
C122 C123 1.355 . S
C122 C124 1.415 . S
C123 C122 1.355 . S
C123 C125 1.419 . S
C124 C122 1.415 . S
C124 C129 1.425 . S
C124 C131 1.409 . S
C125 H117 0.930 . S
C125 C123 1.419 . S
C125 C126 1.362 . S
C126 H118 0.930 . S
C126 C125 1.362 . S
C126 C129 1.409 . S
C127 H119 0.930 . S
C127 C128 1.355 . S
C127 C129 1.415 . S
C128 C127 1.355 . S
C128 C130 1.419 . S
C129 C124 1.425 . S
C129 C126 1.409 . S
C129 C127 1.415 . S
C130 H120 0.930 . S
C130 C128 1.419 . S
C130 C131 1.362 . S
C131 H121 0.930 . S
C131 C124 1.409 . S
C131 C130 1.362 . S
H132 C138 0.930 . S
H133 C141 0.930 . S
H134 C142 0.930 . S
H135 C143 0.930 . S
H136 C146 0.930 . S
H137 C147 0.930 . S
C138 H132 0.930 . S
C138 C139 1.355 . S
C138 C140 1.415 . S
C139 C138 1.355 . S
C139 C141 1.419 . S
C140 C138 1.415 . S
C140 C145 1.425 . S
C140 C147 1.409 . S
C141 H133 0.930 . S
C141 C139 1.419 . S
C141 C142 1.362 . S
C142 H134 0.930 . S
C142 C141 1.362 . S
C142 C145 1.409 . S
C143 H135 0.930 . S
C143 C144 1.355 . S
C143 C145 1.415 . S
C144 C143 1.355 . S
C144 C146 1.419 . S
C145 C140 1.425 . S
C145 C142 1.409 . S
C145 C143 1.415 . S
C146 H136 0.930 . S
C146 C144 1.419 . S
C146 C147 1.362 . S
C147 H137 0.930 . S
C147 C140 1.409 . S
C147 C146 1.362 . S
H148 C154 0.930 . S
H149 C157 0.930 . S
H150 C158 0.930 . S
H151 C159 0.930 . S
H152 C162 0.930 . S
H153 C163 0.930 . S
C154 H148 0.930 . S
C154 C155 1.355 . S
C154 C156 1.415 . S
C155 C154 1.355 . S
C155 C157 1.419 . S
C156 C154 1.415 . S
C156 C161 1.425 . S
C156 C163 1.409 . S
C157 H149 0.930 . S
C157 C155 1.419 . S
C157 C158 1.362 . S
C158 H150 0.930 . S
C158 C157 1.362 . S
C158 C161 1.409 . S
C159 H151 0.930 . S
C159 C160 1.355 . S
C159 C161 1.415 . S
C160 C159 1.355 . S
C160 C162 1.419 . S
C161 C156 1.425 . S
C161 C158 1.409 . S
C161 C159 1.415 . S
C162 H152 0.930 . S
C162 C160 1.419 . S
C162 C163 1.362 . S
C163 H153 0.930 . S
C163 C156 1.409 . S
C163 C162 1.362 . S
H164 C170 0.930 . S
H165 C173 0.930 . S
H166 C174 0.930 . S
H167 C175 0.930 . S
H168 C178 0.930 . S
H169 C179 0.930 . S
C170 H164 0.930 . S
C170 C171 1.355 . S
C170 C172 1.415 . S
C171 C170 1.355 . S
C171 C173 1.419 . S
C172 C170 1.415 . S
C172 C177 1.425 . S
C172 C179 1.409 . S
C173 H165 0.930 . S
C173 C171 1.419 . S
C173 C174 1.362 . S
C174 H166 0.930 . S
C174 C173 1.362 . S
C174 C177 1.409 . S
C175 H167 0.930 . S
C175 C176 1.355 . S
C175 C177 1.415 . S
C176 C175 1.355 . S
C176 C178 1.419 . S
C177 C172 1.425 . S
C177 C174 1.409 . S
C177 C175 1.415 . S
C178 H168 0.930 . S
C178 C176 1.419 . S
C178 C179 1.362 . S
C179 H169 0.930 . S
C179 C172 1.409 . S
C179 C178 1.362 . S
H180 C186 0.930 . S
H181 C189 0.930 . S
H182 C190 0.930 . S
H183 C191 0.930 . S
H184 C194 0.930 . S
H185 C195 0.930 . S
C186 H180 0.930 . S
C186 C187 1.355 . S
C186 C188 1.415 . S
C187 C186 1.355 . S
C187 C189 1.419 1_565 S
C188 C186 1.415 . S
C188 C193 1.422 1_566 S
C188 C195 1.409 1_556 S
C189 H181 0.930 . S
C189 C187 1.419 1_545 S
C189 C190 1.362 . S
C190 H182 0.930 . S
C190 C189 1.362 . S
C190 C193 1.397 1_556 S
C191 H183 0.930 . S
C191 C192 1.355 . S
C191 C193 1.430 . S
C192 C191 1.355 . S
C192 C194 1.419 1_545 S
C193 C188 1.422 1_544 S
C193 C190 1.397 1_554 S
C193 C191 1.430 . S
C194 H184 0.930 . S
C194 C192 1.419 1_565 S
C194 C195 1.362 . S
C195 H185 0.930 . S
C195 C188 1.409 1_554 S
C195 C194 1.362 . S
H196 C202 0.930 . S
H197 C205 0.930 . S
H198 C206 0.930 . S
H199 C207 0.930 . S
H200 C210 0.930 . S
H201 C211 0.930 . S
C202 H196 0.930 . S
C202 C203 1.355 . S
C202 C204 1.415 . S
C203 C202 1.355 . S
C203 C205 1.419 . S
C204 C202 1.415 . S
C204 C209 1.425 . S
C204 C211 1.409 . S
C205 H197 0.930 . S
C205 C203 1.419 . S
C205 C206 1.362 . S
C206 H198 0.930 . S
C206 C205 1.362 . S
C206 C209 1.409 . S
C207 H199 0.930 . S
C207 C208 1.355 . S
C207 C209 1.415 . S
C208 C207 1.355 . S
C208 C210 1.419 . S
C209 C204 1.425 . S
C209 C206 1.409 . S
C209 C207 1.415 . S
C210 H200 0.930 . S
C210 C208 1.419 . S
C210 C211 1.362 . S
C211 H201 0.930 . S
C211 C204 1.409 . S
C211 C210 1.362 . S
H212 C218 0.930 . S
H213 C221 0.930 . S
H214 C222 0.930 . S
H215 C223 0.930 . S
H216 C226 0.930 . S
H217 C227 0.930 . S
C218 H212 0.930 . S
C218 C219 1.355 . S
C218 C220 1.415 1_556 S
C219 C218 1.355 . S
C219 C221 1.419 1_455 S
C220 C218 1.415 1_554 S
C220 C225 1.425 1_455 S
C220 C227 1.409 . S
C221 H213 0.930 . S
C221 C219 1.419 1_655 S
C221 C222 1.362 . S
C222 H214 0.930 . S
C222 C221 1.362 . S
C222 C225 1.409 1_556 S
C223 H215 0.930 . S
C223 C224 1.355 . S
C223 C225 1.415 . S
C224 C223 1.355 . S
C224 C226 1.419 1_655 S
C225 C220 1.425 1_655 S
C225 C222 1.409 1_554 S
C225 C223 1.415 . S
C226 H216 0.930 . S
C226 C224 1.419 1_455 S
C226 C227 1.362 . S
C227 H217 0.930 . S
C227 C220 1.409 . S
C227 C226 1.362 . S
H228 C234 0.930 1_565 S
H229 C237 0.930 . S
H230 C238 0.930 . S
H231 C239 0.940 . S
H232 C242 0.930 . S
H233 C243 0.930 . S
C234 H228 0.930 1_545 S
C234 C235 1.355 . S
C234 C236 1.415 1_545 S
C235 C234 1.355 . S
C235 C237 1.419 . S
C236 C234 1.415 1_565 S
C236 C241 1.425 1_565 S
C236 C243 1.409 . S
C237 H229 0.930 . S
C237 C235 1.419 . S
C237 C238 1.362 . S
C238 H230 0.930 . S
C238 C237 1.362 . S
C238 C241 1.409 . S
C239 H231 0.940 . S
C239 C240 1.338 1_545 S
C239 C241 1.422 . S
C240 C239 1.338 1_565 S
C240 C242 1.419 . S
C241 C236 1.425 1_545 S
C241 C238 1.409 . S
C241 C239 1.422 . S
C242 H232 0.930 . S
C242 C240 1.419 . S
C242 C243 1.362 . S
C243 H233 0.930 . S
C243 C236 1.409 . S
C243 C242 1.362 . S
H244 C250 0.930 . S
H245 C253 0.930 . S
H246 C254 0.930 . S
H247 C255 0.930 . S
H248 C258 0.930 . S
H249 C259 0.930 . S
C250 H244 0.930 . S
C250 C251 1.355 . S
C250 C252 1.415 1_556 S
C251 C250 1.355 . S
C251 C253 1.419 . S
C252 C250 1.415 1_554 S
C252 C257 1.425 1_554 S
C252 C259 1.409 . S
C253 H245 0.930 . S
C253 C251 1.419 . S
C253 C254 1.362 . S
C254 H246 0.930 . S
C254 C253 1.362 . S
C254 C257 1.409 . S
C255 H247 0.930 . S
C255 C256 1.355 . S
C255 C257 1.415 1_554 S
C256 C255 1.355 . S
C256 C258 1.419 . S
C257 C252 1.425 1_556 S
C257 C254 1.409 . S
C257 C255 1.415 1_556 S
C258 H248 0.930 . S
C258 C256 1.419 . S
C258 C259 1.362 . S
C259 H249 0.930 . S
C259 C252 1.409 . S
C259 C258 1.362 . S
H260 C266 0.930 . S
H261 C269 0.930 . S
H262 C270 0.930 1_655 S
H263 C271 0.930 . S
H264 C274 0.930 . S
H265 C275 0.929 . S
C266 H260 0.930 . S
C266 C267 1.355 . S
C266 C268 1.415 . S
C267 C266 1.355 . S
C267 C269 1.419 . S
C268 C266 1.415 . S
C268 C273 1.425 1_455 S
C268 C275 1.412 . S
C269 H261 0.930 . S
C269 C267 1.419 . S
C269 C270 1.362 . S
C270 H262 0.930 1_455 S
C270 C269 1.362 . S
C270 C273 1.409 1_455 S
C271 H263 0.930 . S
C271 C272 1.355 . S
C271 C273 1.415 . S
C272 C271 1.355 . S
C272 C274 1.419 . S
C273 C268 1.425 1_655 S
C273 C270 1.409 1_655 S
C273 C271 1.415 . S
C274 H264 0.930 . S
C274 C272 1.419 . S
C274 C275 1.361 1_655 S
C275 H265 0.929 . S
C275 C268 1.412 . S
C275 C274 1.361 1_455 S
C91 C5 1.113 . S
C96 C60 1.095 . S
C107 C19 1.170 . S
C112 C75 1.066 . S
C123 C4 1.113 . S
C128 C32 1.137 . S
C139 C47 1.024 . S
C144 C18 1.132 . S
C155 C61 1.131 . S
C160 C33 1.129 . S
C171 C46 1.135 . S
C176 C74 1.121 . S
C187 C54 1.440 . S
C192 C11 1.407 . S
C203 C68 1.470 . S
C208 C25 1.444 . S
C219 C81 1.393 . S
C224 C40 1.452 . S
C235 C12 1.429 . S
C240 C53 1.416 . S
C251 C26 1.452 . S
C256 C67 1.376 . S
C267 C82 1.457 . S
C272 C39 1.437 . S
