# Generated by pormake.
# Topology uoc, (4)-cn, num edge types: 1
# Building blocks:
#     Node 0, Type 0, BuildingBlock: QUQFOY_clean_sbu_3, # of connection points: 4
#     Node 1, Type 0, BuildingBlock: QUQFOY_clean_sbu_3, # of connection points: 4
#     Node 2, Type 0, BuildingBlock: QUQFOY_clean_sbu_3, # of connection points: 4
#     Node 3, Type 0, BuildingBlock: QUQFOY_clean_sbu_3, # of connection points: 4
#     Node 4, Type 0, BuildingBlock: QUQFOY_clean_sbu_3, # of connection points: 4
#     Node 5, Type 0, BuildingBlock: QUQFOY_clean_sbu_3, # of connection points: 4
#     Node 6, Type 0, BuildingBlock: QUQFOY_clean_sbu_3, # of connection points: 4
#     Node 7, Type 0, BuildingBlock: QUQFOY_clean_sbu_3, # of connection points: 4
#     Edge 8, Type (0, 0), BuildingBlock: FUNLAD_clean_linker_1, # of connection points: 2
#     Edge 9, Type (0, 0), BuildingBlock: FUNLAD_clean_linker_1, # of connection points: 2
#     Edge 10, Type (0, 0), BuildingBlock: FUNLAD_clean_linker_1, # of connection points: 2
#     Edge 11, Type (0, 0), BuildingBlock: FUNLAD_clean_linker_1, # of connection points: 2
#     Edge 12, Type (0, 0), BuildingBlock: FUNLAD_clean_linker_1, # of connection points: 2
#     Edge 13, Type (0, 0), BuildingBlock: FUNLAD_clean_linker_1, # of connection points: 2
#     Edge 14, Type (0, 0), BuildingBlock: FUNLAD_clean_linker_1, # of connection points: 2
#     Edge 15, Type (0, 0), BuildingBlock: FUNLAD_clean_linker_1, # of connection points: 2
#     Edge 16, Type (0, 0), BuildingBlock: FUNLAD_clean_linker_1, # of connection points: 2
#     Edge 17, Type (0, 0), BuildingBlock: FUNLAD_clean_linker_1, # of connection points: 2
#     Edge 18, Type (0, 0), BuildingBlock: FUNLAD_clean_linker_1, # of connection points: 2
#     Edge 19, Type (0, 0), BuildingBlock: FUNLAD_clean_linker_1, # of connection points: 2
#     Edge 20, Type (0, 0), BuildingBlock: FUNLAD_clean_linker_1, # of connection points: 2
#     Edge 21, Type (0, 0), BuildingBlock: FUNLAD_clean_linker_1, # of connection points: 2
#     Edge 22, Type (0, 0), BuildingBlock: FUNLAD_clean_linker_1, # of connection points: 2
#     Edge 23, Type (0, 0), BuildingBlock: FUNLAD_clean_linker_1, # of connection points: 2
# Relax obj value: 0.101
# Max RMSD: 0.113
# Mean RMSD: 0.113
data_MOF--net-uoc--node1-QUQFOY_clean_sbu_3--edge1-FUNLAD_clean_linker_1
_symmetry_space_group_name_H-M    P1
_symmetry_Int_Tables_number       1
_symmetry_cell_setting            triclinic
loop_
_symmetry_equiv_pos_as_xyz
'x, y, z'
_cell_length_a     28.767553
_cell_length_b     28.615264
_cell_length_c     59.481716
_cell_angle_alpha  89.608569
_cell_angle_beta   89.72845
_cell_angle_gamma 95.233123
loop_
_atom_site_label
_atom_site_type_symbol
_atom_site_fract_x
_atom_site_fract_y
_atom_site_fract_z
_atom_type_partial_charge
C0 C 0.22583 0.22386 0.06894 0.0
O1 O 0.24335 0.19708 0.08302 0.0
Cd2 Cd 0.21177 0.18488 0.12031 0.0
O3 O 0.1918 0.24699 0.07439 0.0
Cd4 Cd 0.14281 0.26203 0.10697 0.0
C5 C 0.09751 0.14871 0.10772 0.0
O6 O 0.20329 0.26083 0.1357 0.0
O7 O 0.13211 0.26292 0.14732 0.0
O8 O 0.15033 0.34423 0.09515 0.0
C9 C 0.17513 0.26397 0.15195 0.0
O10 O 0.1366 0.13884 0.11558 0.0
C11 C 0.10695 0.34892 0.09608 0.0
O12 O 0.09083 0.1905 0.10202 0.0
O13 O 0.08003 0.31295 0.1016 0.0
C14 C 0.7511 0.72989 0.39882 0.0
O15 O 0.73219 0.75504 0.3845 0.0
Cd16 Cd 0.71473 0.72675 0.34728 0.0
O17 O 0.7623 0.68929 0.39367 0.0
Cd18 Cd 0.76175 0.63608 0.36135 0.0
C19 C 0.64386 0.62719 0.36064 0.0
O20 O 0.78176 0.694 0.33162 0.0
O21 O 0.7553 0.62441 0.32105 0.0
O22 O 0.84061 0.62098 0.37178 0.0
C23 C 0.77346 0.66507 0.31577 0.0
O24 O 0.64804 0.66822 0.35207 0.0
C25 C 0.83302 0.57661 0.3724 0.0
O26 O 0.67953 0.60731 0.36697 0.0
O27 O 0.79172 0.55934 0.36827 0.0
C28 C 0.25842 0.24402 0.56803 0.0
O29 O 0.23857 0.26068 0.58488 0.0
Cd30 Cd 0.27773 0.27224 0.6201 0.0
O31 O 0.29886 0.2295 0.5697 0.0
Cd32 Cd 0.36029 0.21645 0.59732 0.0
C33 C 0.37967 0.33483 0.60085 0.0
O34 O 0.3092 0.20074 0.62962 0.0
O35 O 0.38308 0.21137 0.6366 0.0
O36 O 0.35674 0.138 0.58165 0.0
C37 C 0.34184 0.20208 0.6439 0.0
O38 O 0.34079 0.33239 0.61129 0.0
C39 C 0.40047 0.13575 0.58046 0.0
O40 O 0.39578 0.29822 0.59282 0.0
O41 O 0.42642 0.17218 0.58606 0.0
C42 C 0.73576 0.77909 0.89006 0.0
O43 O 0.75298 0.75592 0.87451 0.0
Cd44 Cd 0.77897 0.79691 0.84064 0.0
O45 O 0.72635 0.82115 0.88672 0.0
Cd46 Cd 0.72382 0.87885 0.85598 0.0
C47 C 0.83971 0.89828 0.86017 0.0
O48 O 0.71331 0.82812 0.8231 0.0
O49 O 0.73725 0.90106 0.81684 0.0
O50 O 0.64189 0.88171 0.86499 0.0
C51 C 0.72261 0.86136 0.80907 0.0
O52 O 0.84064 0.85855 0.85067 0.0
C53 C 0.64384 0.92585 0.86718 0.0
O54 O 0.80118 0.91419 0.86523 0.0
O55 O 0.68349 0.94881 0.86455 0.0
C56 C 0.72189 0.7343 0.57052 0.0
O57 O 0.74195 0.71804 0.58741 0.0
Cd58 Cd 0.70039 0.70429 0.62218 0.0
O59 O 0.68065 0.74687 0.57216 0.0
Cd60 Cd 0.61772 0.75631 0.59965 0.0
C61 C 0.60191 0.63817 0.6023 0.0
O62 O 0.66652 0.77445 0.63241 0.0
O63 O 0.59309 0.75535 0.63882 0.0
O64 O 0.6203 0.83452 0.58335 0.0
C65 C 0.63287 0.76977 0.64636 0.0
O66 O 0.64008 0.64165 0.61317 0.0
C67 C 0.57655 0.83655 0.58248 0.0
O68 O 0.58507 0.67435 0.59411 0.0
O69 O 0.55087 0.80018 0.58876 0.0
C70 C 0.23039 0.23233 0.89634 0.0
O71 O 0.20137 0.24805 0.8829 0.0
Cd72 Cd 0.1883 0.21474 0.84615 0.0
O73 O 0.25448 0.19926 0.8905 0.0
Cd74 Cd 0.2685 0.14953 0.85832 0.0
C75 C 0.15757 0.09939 0.86067 0.0
O76 O 0.26227 0.2076 0.82827 0.0
O77 O 0.26464 0.1351 0.81844 0.0
O78 O 0.35166 0.16248 0.8663 0.0
C79 C 0.26427 0.17778 0.81269 0.0
O80 O 0.14592 0.13793 0.85255 0.0
C81 C 0.35827 0.11933 0.86738 0.0
O82 O 0.1998 0.0944 0.8657 0.0
O83 O 0.32294 0.0899 0.86464 0.0
C84 C 0.78339 0.74292 0.05793 0.0
O85 O 0.75631 0.76076 0.07168 0.0
Cd86 Cd 0.78198 0.77598 0.10959 0.0
O87 O 0.82147 0.72827 0.06449 0.0
Cd88 Cd 0.86316 0.71537 0.0997 0.0
C89 C 0.89238 0.83124 0.1015 0.0
O90 O 0.79852 0.70319 0.12685 0.0
O91 O 0.86789 0.71913 0.14031 0.0
O92 O 0.86725 0.63434 0.08834 0.0
C93 C 0.82507 0.70652 0.14383 0.0
O94 O 0.8503 0.83434 0.1077 0.0
C95 C 0.91102 0.63458 0.09081 0.0
O96 O 0.90651 0.79188 0.0963 0.0
O97 O 0.93307 0.67281 0.09698 0.0
C98 C 0.2418 0.28236 0.39741 0.0
O99 O 0.26363 0.26135 0.38254 0.0
Cd100 Cd 0.28232 0.29427 0.34601 0.0
O101 O 0.22821 0.3228 0.39358 0.0
Cd102 Cd 0.22803 0.3821 0.36339 0.0
C103 C 0.34679 0.39598 0.36178 0.0
O104 O 0.21416 0.32712 0.33258 0.0
O105 O 0.2293 0.40035 0.32349 0.0
O106 O 0.14771 0.39322 0.37354 0.0
C107 C 0.21862 0.3585 0.31736 0.0
O108 O 0.34486 0.3558 0.35262 0.0
C109 C 0.15439 0.43739 0.37581 0.0
O110 O 0.30993 0.41344 0.36847 0.0
O111 O 0.19585 0.45601 0.37312 0.0
H112 H 0.2708 0.20397 0.04107 0.0
C113 C 0.24287 0.22537 0.04557 0.0
H114 H 0.19428 0.27092 0.03371 0.0
H115 H 0.29359 0.31893 0.94061 0.0
H116 H 0.30956 0.39314 0.95994 0.0
H117 H 0.29129 0.39992 0.0003 0.0
H118 H 0.25698 0.33259 0.02159 0.0
C119 C 0.22173 0.24876 0.02948 0.0
C120 C 0.2338 0.24423 0.00537 0.0
C121 C 0.25368 0.28399 -0.00677 0.0
C122 C 0.26402 0.28019 0.96997 0.0
C123 C 0.28445 0.32017 0.95825 0.0
C124 C 0.29397 0.36288 0.96916 0.0
C125 C 0.2837 0.36669 -0.00811 0.0
C126 C 0.26392 0.3278 0.00389 0.0
H127 H 0.20628 0.2712 0.92544 0.0
C128 C 0.23255 0.24892 0.9197 0.0
H129 H 0.28777 0.20906 0.92908 0.0
H130 H 0.19 0.16235 0.02296 0.0
H131 H 0.17485 0.08849 0.00367 0.0
H132 H 0.19639 0.08104 0.96376 0.0
H133 H 0.23267 0.1477 0.9429 0.0
C134 C 0.2623 0.23249 0.93451 0.0
C135 C 0.25427 0.23669 0.95899 0.0
C136 C 0.23482 0.19677 0.97115 0.0
C137 C 0.22367 0.20073 -0.00571 0.0
C138 C 0.20121 0.16107 0.00563 0.0
C139 C 0.19181 0.11841 -0.00531 0.0
C140 C 0.20384 0.11424 0.97222 0.0
C141 C 0.22481 0.15286 0.96046 0.0
H142 H 0.80343 0.71235 0.28897 0.0
C143 C 0.78402 0.67859 0.29228 0.0
H144 H 0.75223 0.61601 0.27835 0.0
H145 H 0.78488 0.76937 0.19265 0.0
H146 H 0.72999 0.81489 0.21189 0.0
H147 H 0.69784 0.78995 0.24904 0.0
H148 H 0.72117 0.71988 0.26735 0.0
C149 C 0.77081 0.65021 0.27513 0.0
C150 C 0.78517 0.66237 0.25163 0.0
C151 C 0.76933 0.70221 0.24074 0.0
C152 C 0.78608 0.7153 0.21886 0.0
C153 C 0.77193 0.75679 0.2089 0.0
C154 C 0.7406 0.78341 0.21981 0.0
C155 C 0.72264 0.76947 0.24075 0.0
C156 C 0.73663 0.72935 0.25116 0.0
H157 H 0.76972 0.68561 0.16873 0.0
C158 C 0.80666 0.69669 0.16666 0.0
H159 H 0.87184 0.70989 0.18272 0.0
H160 H 0.82131 0.58306 0.26749 0.0
H161 H 0.87296 0.53537 0.24743 0.0
H162 H 0.89913 0.55614 0.20878 0.0
H163 H 0.87402 0.62497 0.19006 0.0
C164 C 0.83458 0.7004 0.18469 0.0
C165 C 0.81679 0.68722 0.20754 0.0
C166 C 0.83137 0.64656 0.21812 0.0
C167 C 0.81567 0.63418 0.24023 0.0
C168 C 0.83156 0.59384 0.25059 0.0
C169 C 0.86133 0.56614 0.23927 0.0
C170 C 0.87611 0.57787 0.21753 0.0
C171 C 0.86147 0.61755 0.207 0.0
H172 H 0.2042 0.26332 0.54447 0.0
C173 C 0.23628 0.24616 0.54585 0.0
H174 H 0.28964 0.21548 0.52813 0.0
H175 H 0.17015 0.19516 0.43819 0.0
H176 H 0.15271 0.11595 0.45282 0.0
H177 H 0.17573 0.09532 0.49129 0.0
H178 H 0.21606 0.15386 0.51544 0.0
C179 C 0.25762 0.2328 0.52717 0.0
C180 C 0.24129 0.24567 0.50458 0.0
C181 C 0.21819 0.21101 0.4907 0.0
C182 C 0.20564 0.2227 0.46843 0.0
C183 C 0.18156 0.18775 0.45505 0.0
C184 C 0.17107 0.14228 0.46329 0.0
C185 C 0.18398 0.13068 0.48496 0.0
C186 C 0.20718 0.16453 0.49862 0.0
H187 H 0.25789 0.23358 0.42446 0.0
C188 C 0.2366 0.26178 0.4201 0.0
H189 H 0.1896 0.30875 0.43176 0.0
H190 H 0.28601 0.32056 0.52687 0.0
H191 H 0.30242 0.39963 0.51248 0.0
H192 H 0.27989 0.42018 0.47396 0.0
H193 H 0.24104 0.3617 0.44963 0.0
C194 C 0.21046 0.28013 0.43595 0.0
C195 C 0.2171 0.26882 0.46003 0.0
C196 C 0.23858 0.30399 0.47424 0.0
C197 C 0.25113 0.29229 0.49649 0.0
C198 C 0.27464 0.32756 0.50999 0.0
C199 C 0.28458 0.37317 0.50189 0.0
C200 C 0.27193 0.38472 0.48021 0.0
C201 C 0.24947 0.35069 0.46643 0.0
H202 H 0.72887 0.88404 0.77369 0.0
C203 C 0.71739 0.85474 0.78472 0.0
H204 H 0.6871 0.78473 0.78665 0.0
H205 H 0.63368 0.86645 0.68502 0.0
H206 H 0.58824 0.9202 0.70508 0.0
H207 H 0.58799 0.92212 0.74655 0.0
H208 H 0.63407 0.87115 0.76811 0.0
C209 C 0.69783 0.81468 0.7759 0.0
C210 C 0.69282 0.80939 0.75117 0.0
C211 C 0.66359 0.83771 0.73894 0.0
C212 C 0.66152 0.83462 0.71513 0.0
C213 C 0.63473 0.86566 0.70319 0.0
C214 C 0.60875 0.89698 0.71449 0.0
C215 C 0.60878 0.89821 0.73782 0.0
C216 C 0.63574 0.86899 0.74999 0.0
H217 H 0.60947 0.77079 0.6816 0.0
C218 C 0.63948 0.77808 0.67052 0.0
H219 H 0.71138 0.8007 0.66839 0.0
H220 H 0.75209 0.75008 0.7696 0.0
H221 H 0.79465 0.69377 0.74961 0.0
H222 H 0.7877 0.68543 0.70848 0.0
H223 H 0.7385 0.73365 0.68706 0.0
C224 C 0.68075 0.79446 0.67914 0.0
C225 C 0.68624 0.80108 0.70377 0.0
C226 C 0.71492 0.77235 0.71602 0.0
C227 C 0.71834 0.77663 0.73976 0.0
C228 C 0.74774 0.74794 0.75157 0.0
C229 C 0.77244 0.71548 0.7403 0.0
C230 C 0.76856 0.71082 0.71715 0.0
C231 C 0.74019 0.73878 0.70505 0.0
H232 H 0.20732 0.37618 0.28197 0.0
C233 C 0.21221 0.34741 0.2935 0.0
H234 H 0.21817 0.27476 0.29705 0.0
H235 H 0.10524 0.22013 0.20875 0.0
H236 H 0.05981 0.17621 0.23755 0.0
H237 H 0.07957 0.18606 0.27764 0.0
H238 H 0.14528 0.23933 0.28914 0.0
C239 C 0.21338 0.3037 0.28562 0.0
C240 C 0.2049 0.2937 0.26141 0.0
C241 C 0.16605 0.26267 0.25507 0.0
C242 C 0.15394 0.25792 0.23201 0.0
C243 C 0.11546 0.22597 0.22606 0.0
C244 C 0.08913 0.20037 0.24242 0.0
C245 C 0.1003 0.20586 0.26498 0.0
C246 C 0.1382 0.23661 0.27134 0.0
H247 H 0.22718 0.25968 0.17883 0.0
C248 C 0.19177 0.26774 0.17521 0.0
H249 H 0.12901 0.28984 0.18804 0.0
H250 H 0.28864 0.34583 0.26731 0.0
H251 H 0.33255 0.39264 0.23886 0.0
H252 H 0.30508 0.39374 0.19964 0.0
H253 H 0.23484 0.3468 0.18852 0.0
C254 C 0.16455 0.28221 0.19167 0.0
C255 C 0.18001 0.28507 0.21545 0.0
C256 C 0.21949 0.31546 0.22179 0.0
C257 C 0.23321 0.31791 0.24468 0.0
C258 C 0.2751 0.34508 0.25036 0.0
C259 C 0.30084 0.37176 0.23418 0.0
C260 C 0.28553 0.37216 0.21209 0.0
C261 C 0.24531 0.34455 0.20588 0.0
H262 H 0.77782 0.71883 0.54688 0.0
C263 C 0.74516 0.73493 0.54842 0.0
H264 H 0.69226 0.76716 0.53114 0.0
H265 H 0.82063 0.80578 0.44397 0.0
H266 H 0.83843 0.88107 0.46211 0.0
H267 H 0.8126 0.89369 0.50105 0.0
H268 H 0.76918 0.83092 0.52217 0.0
C269 C 0.72477 0.75072 0.52996 0.0
C270 C 0.74315 0.74237 0.50718 0.0
C271 C 0.76796 0.77948 0.49507 0.0
C272 C 0.78201 0.77248 0.4725 0.0
C273 C 0.80793 0.80971 0.46094 0.0
C274 C 0.81866 0.85295 0.47121 0.0
C275 C 0.80417 0.86003 0.49315 0.0
C276 C 0.7792 0.8238 0.50505 0.0
H277 H 0.7348 0.77387 0.42754 0.0
C278 C 0.75513 0.74559 0.42229 0.0
H279 H 0.79859 0.69391 0.43244 0.0
H280 H 0.69664 0.66351 0.52603 0.0
H281 H 0.67964 0.58821 0.50815 0.0
H282 H 0.70376 0.57599 0.46894 0.0
H283 H 0.74488 0.63895 0.44744 0.0
C284 C 0.77867 0.72252 0.43762 0.0
C285 C 0.7702 0.72867 0.46202 0.0
C286 C 0.74705 0.69091 0.47448 0.0
C287 C 0.73328 0.69786 0.49708 0.0
C288 C 0.7086 0.6601 0.50891 0.0
C289 C 0.6984 0.61664 0.49882 0.0
C290 C 0.71196 0.60977 0.47676 0.0
C291 C 0.73575 0.64634 0.46462 0.0
H292 H 0.36209 0.19056 0.6789 0.0
C293 C 0.3328 0.19649 0.66809 0.0
H294 H 0.26107 0.20662 0.66649 0.0
H295 H 0.21185 0.10387 0.75925 0.0
H296 H 0.1637 0.05672 0.73306 0.0
H297 H 0.17002 0.07178 0.69223 0.0
H298 H 0.22405 0.13449 0.67738 0.0
C299 C 0.29059 0.20074 0.67715 0.0
C300 C 0.28303 0.19516 0.7018 0.0
C301 C 0.25145 0.15813 0.71012 0.0
C302 C 0.24864 0.14875 0.73359 0.0
C303 C 0.21621 0.11198 0.74153 0.0
C304 C 0.1882 0.08471 0.72669 0.0
C305 C 0.19171 0.09323 0.70371 0.0
C306 C 0.22291 0.1294 0.69541 0.0
H307 H 0.2578 0.22755 0.78459 0.0
C308 C 0.26557 0.19214 0.78893 0.0
H309 H 0.28468 0.12717 0.77718 0.0
H310 H 0.33754 0.27641 0.69196 0.0
H311 H 0.38817 0.32205 0.71779 0.0
H312 H 0.39171 0.29919 0.75777 0.0
H313 H 0.34357 0.23186 0.77226 0.0
C314 C 0.27747 0.16276 0.77283 0.0
C315 C 0.27813 0.17578 0.74861 0.0
C316 C 0.309 0.21358 0.74031 0.0
C317 C 0.30977 0.22456 0.71698 0.0
C318 C 0.3378 0.26486 0.70931 0.0
C319 C 0.3667 0.2916 0.72398 0.0
C320 C 0.36849 0.27889 0.7465 0.0
C321 C 0.34019 0.24032 0.75465 0.0
H322 H 0.80281 0.74317 0.02235 0.0
C323 C 0.77313 0.74188 0.0338 0.0
H324 H 0.69996 0.73785 0.03701 0.0
H325 H 0.6714 0.83484 0.94277 0.0
H326 H 0.6261 0.87874 0.96821 0.0
H327 H 0.62482 0.86194 0.00894 0.0
H328 H 0.66795 0.80059 0.02439 0.0
C329 C 0.72959 0.73952 0.02556 0.0
C330 C 0.72202 0.74326 0.00082 0.0
C331 C 0.69675 0.77958 -0.00782 0.0
C332 C 0.69874 0.79029 0.9688 0.0
C333 C 0.67234 0.82611 0.96048 0.0
C334 C 0.64595 0.85146 0.97488 0.0
C335 C 0.64517 0.84195 -0.0022 0.0
C336 C 0.67022 0.80655 0.00645 0.0
H337 H 0.71723 0.72052 0.91385 0.0
C338 C 0.72778 0.75786 0.91247 0.0
H339 H 0.7466 0.82132 0.92904 0.0
H340 H 0.75812 0.66044 0.01047 0.0
H341 H 0.80572 0.61716 -0.01444 0.0
H342 H 0.82227 0.64465 0.94668 0.0
H343 H 0.78962 0.71355 0.93219 0.0
C344 C 0.73573 0.78407 0.93094 0.0
C345 C 0.72747 0.766 0.95429 0.0
C346 C 0.75052 0.72775 0.96278 0.0
C347 C 0.74506 0.71463 -0.01421 0.0
C348 C 0.76404 0.6735 -0.00652 0.0
C349 C 0.79106 0.64825 0.97934 0.0
C350 C 0.80009 0.66356 0.95743 0.0
C351 C 0.78044 0.70296 0.9492 0.0
H352 H 0.02581 0.12084 0.09883 0.0
C353 C 0.05903 0.1114 0.10528 0.0
H354 H 0.09633 0.05686 0.11812 0.0
H355 H 0.92054 0.9259 0.14959 0.0
H356 H 0.94968 0.95572 0.18541 0.0
H357 H 0.0128 0.02002 0.18704 0.0
H358 H 0.04732 0.05473 0.15284 0.0
C359 C 0.06385 0.06659 0.11096 0.0
C360 C 0.02416 0.02966 0.10969 0.0
C361 C 0.00404 0.01012 0.12984 0.0
C362 C 0.96732 0.97344 0.1289 0.0
C363 C 0.94828 0.95411 0.1493 0.0
C364 C 0.96469 0.97087 0.17 0.0
C365 C 0.00026 0.00703 0.17091 0.0
C366 C 0.01983 0.02658 0.15114 0.0
H367 H 0.96143 0.86913 0.09513 0.0
C368 C 0.92596 0.87331 0.10065 0.0
H369 H 0.88004 0.92044 0.11345 0.0
H370 H 0.05662 0.05766 0.06782 0.0
H371 H 0.02558 0.02973 0.03204 0.0
H372 H 0.95906 0.96902 0.03048 0.0
H373 H 0.92363 0.9354 0.06473 0.0
C374 C 0.91475 0.91579 0.10705 0.0
C375 C 0.95088 0.95634 0.10782 0.0
C376 C 0.97007 0.97677 0.08765 0.0
C377 C 0.0073 0.01298 0.08857 0.0
C378 C 0.02732 0.03116 0.06815 0.0
C379 C 0.00999 0.01526 0.04747 0.0
C380 C 0.97263 0.98098 0.04659 0.0
C381 C 0.95277 0.96181 0.06638 0.0
H382 H 0.12304 0.50428 0.38052 0.0
C383 C 0.11533 0.46645 0.37954 0.0
H384 H 0.06241 0.4101 0.37876 0.0
H385 H 0.90507 0.52725 0.41908 0.0
H386 H 0.91993 0.47834 0.45129 0.0
H387 H 0.98572 0.42872 0.45104 0.0
H388 H 0.03719 0.42783 0.4186 0.0
C389 C 0.07068 0.44788 0.37947 0.0
C390 C 0.03112 0.47797 0.37958 0.0
C391 C 0.00105 0.47763 0.39854 0.0
C392 C 0.96287 0.50596 0.39862 0.0
C393 C 0.93409 0.50583 0.41799 0.0
C394 C 0.94234 0.47806 0.43663 0.0
C395 C 0.97941 0.45015 0.43649 0.0
C396 C 0.00862 0.44989 0.41775 0.0
H397 H 0.86298 0.50846 0.37584 0.0
C398 C 0.87097 0.54629 0.3765 0.0
H399 H 0.92384 0.60219 0.37926 0.0
H400 H 0.07854 0.48259 0.3393 0.0
H401 H 0.06343 0.53119 0.30717 0.0
H402 H -0.00126 0.58211 0.30779 0.0
H403 H 0.94851 0.58432 0.34052 0.0
C404 C 0.91527 0.56441 0.37947 0.0
C405 C 0.95467 0.53421 0.37963 0.0
C406 C 0.98455 0.53433 0.36061 0.0
C407 C 0.02243 0.5057 0.36044 0.0
C408 C 0.05023 0.50479 0.34073 0.0
C409 C 0.04172 0.53228 0.32204 0.0
C410 C 0.00527 0.56089 0.32238 0.0
C411 C 0.97679 0.56191 0.34133 0.0
H412 H 0.38856 0.41108 0.6054 0.0
C413 C 0.40549 0.3816 0.59873 0.0
H414 H 0.46639 0.36113 0.58295 0.0
H415 H 0.52995 0.56832 0.54824 0.0
H416 H 0.5144 0.52737 0.51308 0.0
H417 H 0.47922 0.44547 0.51287 0.0
H418 H 0.45986 0.40372 0.54782 0.0
C419 C 0.44884 0.38952 0.59024 0.0
C420 C 0.47306 0.43798 0.59036 0.0
C421 C 0.48387 0.462 0.56979 0.0
C422 C 0.50354 0.50955 0.56991 0.0
C423 C 0.51458 0.5324 0.54912 0.0
C424 C 0.50584 0.50931 0.52882 0.0
C425 C 0.48605 0.46317 0.5287 0.0
C426 C 0.4751 0.43962 0.54889 0.0
H427 H 0.59475 0.5617 0.60699 0.0
C428 C 0.57763 0.5908 0.59994 0.0
H429 H 0.51765 0.61008 0.58307 0.0
H430 H 0.46454 0.40021 0.63287 0.0
H431 H 0.47597 0.44217 0.66794 0.0
H432 H 0.50107 0.52694 0.66807 0.0
H433 H 0.51622 0.56979 0.63314 0.0
C434 C 0.53521 0.58201 0.59074 0.0
C435 C 0.512 0.53314 0.59058 0.0
C436 C 0.50035 0.50932 0.61116 0.0
C437 C 0.48272 0.46125 0.61106 0.0
C438 C 0.47534 0.43737 0.63191 0.0
C439 C 0.48219 0.46094 0.65219 0.0
C440 C 0.49655 0.50858 0.65226 0.0
C441 C 0.50554 0.53266 0.63206 0.0
H442 H 0.56846 0.92627 0.87313 0.0
C443 C 0.60094 0.94869 0.87148 0.0
H444 H 0.63171 0.01848 0.86928 0.0
H445 H 0.442 0.08307 0.83023 0.0
H446 H 0.49354 0.09403 0.79794 0.0
H447 H 0.57365 0.06993 0.79933 0.0
H448 H 0.60257 0.03453 0.83302 0.0
C449 C 0.59992 0.99546 0.87187 0.0
C450 C 0.55437 0.01619 0.87242 0.0
C451 C 0.53857 0.03819 0.85283 0.0
C452 C 0.4926 0.05266 0.85213 0.0
C453 C 0.47694 0.07247 0.83194 0.0
C454 C 0.5061 0.07872 0.8132 0.0
C455 C 0.55116 0.0651 0.81397 0.0
C456 C 0.56733 0.04486 0.83345 0.0
H457 H 0.43439 0.13192 0.87183 0.0
C458 C 0.40558 0.10473 0.8705 0.0
H459 H 0.38601 0.03175 0.86943 0.0
H460 H 0.57613 0.98084 0.91353 0.0
H461 H 0.5249 0.97071 0.9461 0.0
H462 H 0.44477 0.99487 0.94476 0.0
H463 H 0.41545 0.0295 0.91086 0.0
C464 C 0.41435 0.0595 0.87033 0.0
C465 C 0.46295 0.04595 0.87124 0.0
C466 C 0.47929 0.02533 0.89106 0.0
C467 C 0.52522 0.0108 0.89174 0.0
C468 C 0.54111 0.99138 0.91194 0.0
C469 C 0.51218 0.98567 0.9308 0.0
C470 C 0.46709 -0.00067 0.93005 0.0
C471 C 0.45067 0.01907 0.91048 0.0
H472 H 0.91278 0.55994 0.08247 0.0
C473 C 0.93411 0.59125 0.08773 0.0
H474 H 0.00041 0.61878 0.09911 0.0
H475 H 0.04435 0.42069 0.13782 0.0
H476 H 0.03292 0.46363 0.17214 0.0
H477 H 0.00554 0.54283 0.17081 0.0
H478 H 0.98968 0.57966 0.13518 0.0
C479 C 0.97915 0.58836 0.09281 0.0
C480 C -0.00128 0.54206 0.09328 0.0
C481 C 0.00806 0.52122 0.11427 0.0
C482 C 0.02341 0.47544 0.11506 0.0
C483 C 0.03233 0.4553 0.13626 0.0
C484 C 0.02595 0.47957 0.15609 0.0
C485 C 0.01058 0.52417 0.15534 0.0
C486 C 0.00163 0.54491 0.13475 0.0
H487 H 0.11418 0.42389 0.08658 0.0
C488 C 0.0894 0.39491 0.0919 0.0
H489 H 0.02016 0.37455 0.10232 0.0
H490 H 0.98844 0.57389 0.05024 0.0
H491 H -0.00064 0.53068 0.01591 0.0
H492 H 0.02359 0.45018 0.01734 0.0
H493 H 0.03742 0.41254 0.05309 0.0
C494 C 0.04484 0.4026 0.09596 0.0
C495 C 0.02961 0.45074 0.09485 0.0
C496 C 0.02109 0.47187 0.07383 0.0
C497 C 0.00602 0.51782 0.07303 0.0
C498 C -0.00121 0.53861 0.05182 0.0
C499 C 0.00517 0.51429 0.03199 0.0
C500 C 0.01891 0.469 0.03279 0.0
C501 C 0.02684 0.44785 0.05342 0.0
H502 H 0.42301 0.4056 0.35763 0.0
C503 C 0.39298 0.42242 0.36371 0.0
H504 H 0.3703 0.48395 0.37805 0.0
H505 H 0.57409 0.55229 0.41303 0.0
H506 H 0.53339 0.53381 0.44828 0.0
H507 H 0.4529 0.49577 0.44863 0.0
H508 H 0.41241 0.47628 0.41374 0.0
C509 C 0.39937 0.46654 0.37139 0.0
C510 C 0.44686 0.49214 0.37116 0.0
C511 C 0.47002 0.5032 0.39168 0.0
C512 C 0.51664 0.52467 0.39147 0.0
C513 C 0.53883 0.53564 0.41222 0.0
C514 C 0.51587 0.52525 0.43257 0.0
C515 C 0.47053 0.50385 0.43277 0.0
C516 C 0.4477 0.49284 0.41262 0.0
H517 H 0.56764 0.62091 0.35628 0.0
C518 C 0.59664 0.6027 0.36249 0.0
H519 H 0.61635 0.54027 0.37746 0.0
H520 H 0.41028 0.48233 0.32875 0.0
H521 H 0.45183 0.49777 0.29356 0.0
H522 H 0.5349 0.52811 0.29322 0.0
H523 H 0.57648 0.54421 0.32803 0.0
C524 C 0.58825 0.55879 0.37056 0.0
C525 C 0.54001 0.53493 0.37074 0.0
C526 C 0.51693 0.5235 0.35019 0.0
C527 C 0.46986 0.50348 0.3504 0.0
C528 C 0.4467 0.4954 0.32962 0.0
C529 C 0.47003 0.50446 0.30927 0.0
C530 C 0.51671 0.52174 0.30907 0.0
C531 C 0.54007 0.53118 0.32922 0.0
H532 H 0.39426 0.06186 0.56994 0.0
C533 C 0.41911 0.09086 0.57488 0.0
H534 H 0.48827 0.11077 0.58484 0.0
H535 H 0.51792 0.90922 0.6229 0.0
H536 H 0.51477 0.95439 0.65711 0.0
H537 H 0.49422 0.03619 0.656 0.0
H538 H 0.47698 0.07341 0.62069 0.0
C539 C 0.46369 0.08281 0.5786 0.0
C540 C 0.47777 0.03392 0.57882 0.0
C541 C 0.48762 0.0126 0.59966 0.0
C542 C 0.49894 0.96525 0.60034 0.0
C543 C 0.5088 0.94496 0.6214 0.0
C544 C 0.50714 0.97049 0.64119 0.0
C545 C 0.49561 0.01655 0.64056 0.0
C546 C 0.48586 0.03751 0.62012 0.0
H547 H 0.58206 0.90908 0.56953 0.0
C548 C 0.55769 0.88102 0.57617 0.0
H549 H 0.49001 0.86355 0.58926 0.0
H550 H 0.46422 0.06505 0.53597 0.0
H551 H 0.46678 0.01952 0.50175 0.0
H552 H 0.48422 0.93671 0.50309 0.0
H553 H 0.49951 0.89894 0.53867 0.0
C554 C 0.51393 0.89018 0.58118 0.0
C555 C 0.50062 0.93926 0.58019 0.0
C556 C 0.49104 0.96058 0.55934 0.0
C557 C 0.47993 0.00807 0.55863 0.0
C558 C 0.4717 0.0288 0.53752 0.0
C559 C 0.4733 0.00313 0.51775 0.0
C560 C 0.48321 0.95652 0.5185 0.0
C561 C 0.49204 0.93531 0.539 0.0
H562 H 0.88085 0.96321 0.87054 0.0
C563 C 0.88343 0.92803 0.86413 0.0
H564 H 0.92858 0.87997 0.85163 0.0
H565 H 0.07613 0.04153 0.81637 0.0
H566 H 0.04807 0.00555 0.78159 0.0
H567 H 0.98286 0.94326 0.78179 0.0
H568 H 0.94548 0.91643 0.81673 0.0
C569 C 0.92555 0.91446 0.85872 0.0
C570 C 0.96778 0.94858 0.85904 0.0
C571 C 0.98938 0.96356 0.83843 0.0
C572 C 0.02654 -0.00014 0.83827 0.0
C573 C 0.04739 0.01442 0.81744 0.0
C574 C 0.03171 0.994 0.79735 0.0
C575 C -0.00496 0.9589 0.79746 0.0
C576 C 0.97393 0.94379 0.81768 0.0
H577 H 0.13257 0.02648 0.87029 0.0
C578 C 0.12188 0.05939 0.86375 0.0
H579 H 0.06639 0.09457 0.85063 0.0
H580 H 0.93925 0.92257 0.90164 0.0
H581 H 0.96748 0.95849 0.93646 0.0
H582 H 0.02947 0.02405 0.93605 0.0
H583 H 0.06403 0.05368 0.90087 0.0
C584 C 0.07718 0.0624 0.85794 0.0
C585 C 0.04201 0.02108 0.85869 0.0
C586 C 0.02178 0.00478 0.87939 0.0
C587 C 0.98501 0.96799 0.87959 0.0
C588 C 0.96624 0.95142 0.90051 0.0
C589 C 0.98232 0.97153 0.92062 0.0
C590 C 0.0173 0.00836 0.92039 0.0
C591 C 0.03692 0.02497 0.90007 0.0
loop_
_geom_bond_atom_site_label_1
_geom_bond_atom_site_label_2
_geom_bond_distance
_geom_bond_site_symmetry_2
_ccdc_geom_bond_type
C0 O1 1.306 . S
C0 O3 1.160 . S
O1 C0 1.306 . S
O1 Cd2 2.228 . S
Cd2 O1 2.228 . S
Cd2 O6 2.273 . S
Cd2 O10 2.277 . S
O3 C0 1.160 . S
O3 Cd4 2.203 . S
Cd4 O3 2.203 . S
Cd4 O6 2.411 . S
Cd4 O7 2.333 . S
Cd4 O8 2.352 . S
Cd4 O12 2.277 . S
Cd4 O13 2.356 . S
C5 O10 1.209 . S
C5 O12 1.226 . S
O6 Cd2 2.273 . S
O6 Cd4 2.411 . S
O6 C9 1.320 . S
O7 Cd4 2.333 . S
O7 C9 1.214 . S
O8 Cd4 2.352 . S
O8 C11 1.258 . S
C9 O6 1.320 . S
C9 O7 1.214 . S
O10 Cd2 2.277 . S
O10 C5 1.209 . S
C11 O8 1.258 . S
C11 O13 1.282 . S
O12 Cd4 2.277 . S
O12 C5 1.226 . S
O13 Cd4 2.356 . S
O13 C11 1.282 . S
C14 O15 1.306 . S
C14 O17 1.160 . S
O15 C14 1.306 . S
O15 Cd16 2.228 . S
Cd16 O15 2.228 . S
Cd16 O20 2.273 . S
Cd16 O24 2.277 . S
O17 C14 1.160 . S
O17 Cd18 2.203 . S
Cd18 O17 2.203 . S
Cd18 O20 2.411 . S
Cd18 O21 2.333 . S
Cd18 O22 2.352 . S
Cd18 O26 2.277 . S
Cd18 O27 2.356 . S
C19 O24 1.209 . S
C19 O26 1.226 . S
O20 Cd16 2.273 . S
O20 Cd18 2.411 . S
O20 C23 1.320 . S
O21 Cd18 2.333 . S
O21 C23 1.214 . S
O22 Cd18 2.352 . S
O22 C25 1.258 . S
C23 O20 1.320 . S
C23 O21 1.214 . S
O24 Cd16 2.277 . S
O24 C19 1.209 . S
C25 O22 1.258 . S
C25 O27 1.282 . S
O26 Cd18 2.277 . S
O26 C19 1.226 . S
O27 Cd18 2.356 . S
O27 C25 1.282 . S
C28 O29 1.306 . S
C28 O31 1.160 . S
O29 C28 1.306 . S
O29 Cd30 2.228 . S
Cd30 O29 2.228 . S
Cd30 O34 2.273 . S
Cd30 O38 2.277 . S
O31 C28 1.160 . S
O31 Cd32 2.203 . S
Cd32 O31 2.203 . S
Cd32 O34 2.411 . S
Cd32 O35 2.333 . S
Cd32 O36 2.352 . S
Cd32 O40 2.277 . S
Cd32 O41 2.356 . S
C33 O38 1.209 . S
C33 O40 1.226 . S
O34 Cd30 2.273 . S
O34 Cd32 2.411 . S
O34 C37 1.320 . S
O35 Cd32 2.333 . S
O35 C37 1.214 . S
O36 Cd32 2.352 . S
O36 C39 1.258 . S
C37 O34 1.320 . S
C37 O35 1.214 . S
O38 Cd30 2.277 . S
O38 C33 1.209 . S
C39 O36 1.258 . S
C39 O41 1.282 . S
O40 Cd32 2.277 . S
O40 C33 1.226 . S
O41 Cd32 2.356 . S
O41 C39 1.282 . S
C42 O43 1.306 . S
C42 O45 1.160 . S
O43 C42 1.306 . S
O43 Cd44 2.228 . S
Cd44 O43 2.228 . S
Cd44 O48 2.273 . S
Cd44 O52 2.277 . S
O45 C42 1.160 . S
O45 Cd46 2.203 . S
Cd46 O45 2.203 . S
Cd46 O48 2.411 . S
Cd46 O49 2.333 . S
Cd46 O50 2.352 . S
Cd46 O54 2.277 . S
Cd46 O55 2.356 . S
C47 O52 1.209 . S
C47 O54 1.226 . S
O48 Cd44 2.273 . S
O48 Cd46 2.411 . S
O48 C51 1.320 . S
O49 Cd46 2.333 . S
O49 C51 1.214 . S
O50 Cd46 2.352 . S
O50 C53 1.258 . S
C51 O48 1.320 . S
C51 O49 1.214 . S
O52 Cd44 2.277 . S
O52 C47 1.209 . S
C53 O50 1.258 . S
C53 O55 1.282 . S
O54 Cd46 2.277 . S
O54 C47 1.226 . S
O55 Cd46 2.356 . S
O55 C53 1.282 . S
C56 O57 1.306 . S
C56 O59 1.160 . S
O57 C56 1.306 . S
O57 Cd58 2.228 . S
Cd58 O57 2.228 . S
Cd58 O62 2.273 . S
Cd58 O66 2.277 . S
O59 C56 1.160 . S
O59 Cd60 2.203 . S
Cd60 O59 2.203 . S
Cd60 O62 2.411 . S
Cd60 O63 2.333 . S
Cd60 O64 2.352 . S
Cd60 O68 2.277 . S
Cd60 O69 2.356 . S
C61 O66 1.209 . S
C61 O68 1.226 . S
O62 Cd58 2.273 . S
O62 Cd60 2.411 . S
O62 C65 1.320 . S
O63 Cd60 2.333 . S
O63 C65 1.214 . S
O64 Cd60 2.352 . S
O64 C67 1.258 . S
C65 O62 1.320 . S
C65 O63 1.214 . S
O66 Cd58 2.277 . S
O66 C61 1.209 . S
C67 O64 1.258 . S
C67 O69 1.282 . S
O68 Cd60 2.277 . S
O68 C61 1.226 . S
O69 Cd60 2.356 . S
O69 C67 1.282 . S
C70 O71 1.306 . S
C70 O73 1.160 . S
O71 C70 1.306 . S
O71 Cd72 2.228 . S
Cd72 O71 2.228 . S
Cd72 O76 2.273 . S
Cd72 O80 2.277 . S
O73 C70 1.160 . S
O73 Cd74 2.203 . S
Cd74 O73 2.203 . S
Cd74 O76 2.411 . S
Cd74 O77 2.333 . S
Cd74 O78 2.352 . S
Cd74 O82 2.277 . S
Cd74 O83 2.356 . S
C75 O80 1.209 . S
C75 O82 1.226 . S
O76 Cd72 2.273 . S
O76 Cd74 2.411 . S
O76 C79 1.320 . S
O77 Cd74 2.333 . S
O77 C79 1.214 . S
O78 Cd74 2.352 . S
O78 C81 1.258 . S
C79 O76 1.320 . S
C79 O77 1.214 . S
O80 Cd72 2.277 . S
O80 C75 1.209 . S
C81 O78 1.258 . S
C81 O83 1.282 . S
O82 Cd74 2.277 . S
O82 C75 1.226 . S
O83 Cd74 2.356 . S
O83 C81 1.282 . S
C84 O85 1.306 . S
C84 O87 1.160 . S
O85 C84 1.306 . S
O85 Cd86 2.228 . S
Cd86 O85 2.228 . S
Cd86 O90 2.273 . S
Cd86 O94 2.277 . S
O87 C84 1.160 . S
O87 Cd88 2.203 . S
Cd88 O87 2.203 . S
Cd88 O90 2.411 . S
Cd88 O91 2.333 . S
Cd88 O92 2.352 . S
Cd88 O96 2.277 . S
Cd88 O97 2.356 . S
C89 O94 1.209 . S
C89 O96 1.226 . S
O90 Cd86 2.273 . S
O90 Cd88 2.411 . S
O90 C93 1.320 . S
O91 Cd88 2.333 . S
O91 C93 1.214 . S
O92 Cd88 2.352 . S
O92 C95 1.258 . S
C93 O90 1.320 . S
C93 O91 1.214 . S
O94 Cd86 2.277 . S
O94 C89 1.209 . S
C95 O92 1.258 . S
C95 O97 1.282 . S
O96 Cd88 2.277 . S
O96 C89 1.226 . S
O97 Cd88 2.356 . S
O97 C95 1.282 . S
C98 O99 1.306 . S
C98 O101 1.160 . S
O99 C98 1.306 . S
O99 Cd100 2.228 . S
Cd100 O99 2.228 . S
Cd100 O104 2.273 . S
Cd100 O108 2.277 . S
O101 C98 1.160 . S
O101 Cd102 2.203 . S
Cd102 O101 2.203 . S
Cd102 O104 2.411 . S
Cd102 O105 2.333 . S
Cd102 O106 2.352 . S
Cd102 O110 2.277 . S
Cd102 O111 2.356 . S
C103 O108 1.209 . S
C103 O110 1.226 . S
O104 Cd100 2.273 . S
O104 Cd102 2.411 . S
O104 C107 1.320 . S
O105 Cd102 2.333 . S
O105 C107 1.214 . S
O106 Cd102 2.352 . S
O106 C109 1.258 . S
C107 O104 1.320 . S
C107 O105 1.214 . S
O108 Cd100 2.277 . S
O108 C103 1.209 . S
C109 O106 1.258 . S
C109 O111 1.282 . S
O110 Cd102 2.277 . S
O110 C103 1.226 . S
O111 Cd102 2.356 . S
O111 C109 1.282 . S
H112 C113 0.951 . S
C113 H112 0.951 . S
C113 C119 1.265 . S
H114 C119 0.950 . S
H115 C123 0.949 . S
H116 C124 0.950 . S
H117 C125 0.951 . S
H118 C126 0.951 . S
C119 C113 1.265 . S
C119 H114 0.950 . S
C119 C120 1.478 . S
C120 C119 1.478 . S
C120 C121 1.397 . S
C120 C137 1.394 . S
C121 C120 1.397 . S
C121 C122 1.438 1_554 S
C121 C126 1.429 . S
C122 C121 1.438 1_556 S
C122 C123 1.428 . S
C122 C135 1.394 . S
C123 H115 0.949 . S
C123 C122 1.428 . S
C123 C124 1.345 . S
C124 H116 0.950 . S
C124 C123 1.345 . S
C124 C125 1.424 . S
C125 H117 0.951 . S
C125 C124 1.424 . S
C125 C126 1.347 1_556 S
C126 H118 0.951 . S
C126 C121 1.429 . S
C126 C125 1.347 1_554 S
H127 C128 0.951 . S
C128 H127 0.951 . S
C128 C134 1.265 . S
H129 C134 0.950 . S
H130 C138 0.949 . S
H131 C139 0.950 . S
H132 C140 0.951 . S
H133 C141 0.951 . S
C134 C128 1.265 . S
C134 H129 0.950 . S
C134 C135 1.478 . S
C135 C122 1.394 . S
C135 C134 1.478 . S
C135 C136 1.397 . S
C136 C135 1.397 . S
C136 C137 1.438 1_556 S
C136 C141 1.429 . S
C137 C120 1.394 . S
C137 C136 1.438 1_554 S
C137 C138 1.428 . S
C138 H130 0.949 . S
C138 C137 1.428 . S
C138 C139 1.345 . S
C139 H131 0.950 . S
C139 C138 1.345 . S
C139 C140 1.424 . S
C140 H132 0.951 . S
C140 C139 1.424 . S
C140 C141 1.347 1_554 S
C141 H133 0.951 . S
C141 C136 1.429 . S
C141 C140 1.347 1_556 S
H142 C143 0.951 . S
C143 H142 0.951 . S
C143 C149 1.265 . S
H144 C149 0.950 . S
H145 C153 0.949 . S
H146 C154 0.950 . S
H147 C155 0.951 . S
H148 C156 0.951 . S
C149 C143 1.265 . S
C149 H144 0.950 . S
C149 C150 1.478 . S
C150 C149 1.478 . S
C150 C151 1.397 . S
C150 C167 1.394 . S
C151 C150 1.397 . S
C151 C152 1.438 . S
C151 C156 1.429 . S
C152 C151 1.438 . S
C152 C153 1.428 . S
C152 C165 1.394 . S
C153 H145 0.949 . S
C153 C152 1.428 . S
C153 C154 1.345 . S
C154 H146 0.950 . S
C154 C153 1.345 . S
C154 C155 1.424 . S
C155 H147 0.951 . S
C155 C154 1.424 . S
C155 C156 1.347 . S
C156 H148 0.951 . S
C156 C151 1.429 . S
C156 C155 1.347 . S
H157 C158 0.951 . S
C158 H157 0.951 . S
C158 C164 1.265 . S
H159 C164 0.950 . S
H160 C168 0.949 . S
H161 C169 0.950 . S
H162 C170 0.951 . S
H163 C171 0.951 . S
C164 C158 1.265 . S
C164 H159 0.950 . S
C164 C165 1.478 . S
C165 C152 1.394 . S
C165 C164 1.478 . S
C165 C166 1.397 . S
C166 C165 1.397 . S
C166 C167 1.438 . S
C166 C171 1.429 . S
C167 C150 1.394 . S
C167 C166 1.438 . S
C167 C168 1.428 . S
C168 H160 0.949 . S
C168 C167 1.428 . S
C168 C169 1.345 . S
C169 H161 0.950 . S
C169 C168 1.345 . S
C169 C170 1.424 . S
C170 H162 0.951 . S
C170 C169 1.424 . S
C170 C171 1.347 . S
C171 H163 0.951 . S
C171 C166 1.429 . S
C171 C170 1.347 . S
H172 C173 0.951 . S
C173 H172 0.951 . S
C173 C179 1.265 . S
H174 C179 0.950 . S
H175 C183 0.949 . S
H176 C184 0.950 . S
H177 C185 0.951 . S
H178 C186 0.951 . S
C179 C173 1.265 . S
C179 H174 0.950 . S
C179 C180 1.478 . S
C180 C179 1.478 . S
C180 C181 1.397 . S
C180 C197 1.394 . S
C181 C180 1.397 . S
C181 C182 1.438 . S
C181 C186 1.429 . S
C182 C181 1.438 . S
C182 C183 1.428 . S
C182 C195 1.394 . S
C183 H175 0.949 . S
C183 C182 1.428 . S
C183 C184 1.345 . S
C184 H176 0.950 . S
C184 C183 1.345 . S
C184 C185 1.424 . S
C185 H177 0.951 . S
C185 C184 1.424 . S
C185 C186 1.347 . S
C186 H178 0.951 . S
C186 C181 1.429 . S
C186 C185 1.347 . S
H187 C188 0.951 . S
C188 H187 0.951 . S
C188 C194 1.265 . S
H189 C194 0.950 . S
H190 C198 0.949 . S
H191 C199 0.950 . S
H192 C200 0.951 . S
H193 C201 0.951 . S
C194 C188 1.265 . S
C194 H189 0.950 . S
C194 C195 1.478 . S
C195 C182 1.394 . S
C195 C194 1.478 . S
C195 C196 1.397 . S
C196 C195 1.397 . S
C196 C197 1.438 . S
C196 C201 1.429 . S
C197 C180 1.394 . S
C197 C196 1.438 . S
C197 C198 1.428 . S
C198 H190 0.949 . S
C198 C197 1.428 . S
C198 C199 1.345 . S
C199 H191 0.950 . S
C199 C198 1.345 . S
C199 C200 1.424 . S
C200 H192 0.951 . S
C200 C199 1.424 . S
C200 C201 1.347 . S
C201 H193 0.951 . S
C201 C196 1.429 . S
C201 C200 1.347 . S
H202 C203 0.951 . S
C203 H202 0.951 . S
C203 C209 1.265 . S
H204 C209 0.950 . S
H205 C213 0.949 . S
H206 C214 0.950 . S
H207 C215 0.951 . S
H208 C216 0.951 . S
C209 C203 1.265 . S
C209 H204 0.950 . S
C209 C210 1.478 . S
C210 C209 1.478 . S
C210 C211 1.397 . S
C210 C227 1.394 . S
C211 C210 1.397 . S
C211 C212 1.438 . S
C211 C216 1.429 . S
C212 C211 1.438 . S
C212 C213 1.428 . S
C212 C225 1.394 . S
C213 H205 0.949 . S
C213 C212 1.428 . S
C213 C214 1.345 . S
C214 H206 0.950 . S
C214 C213 1.345 . S
C214 C215 1.424 . S
C215 H207 0.951 . S
C215 C214 1.424 . S
C215 C216 1.347 . S
C216 H208 0.951 . S
C216 C211 1.429 . S
C216 C215 1.347 . S
H217 C218 0.951 . S
C218 H217 0.951 . S
C218 C224 1.265 . S
H219 C224 0.950 . S
H220 C228 0.949 . S
H221 C229 0.950 . S
H222 C230 0.951 . S
H223 C231 0.951 . S
C224 C218 1.265 . S
C224 H219 0.950 . S
C224 C225 1.478 . S
C225 C212 1.394 . S
C225 C224 1.478 . S
C225 C226 1.397 . S
C226 C225 1.397 . S
C226 C227 1.438 . S
C226 C231 1.429 . S
C227 C210 1.394 . S
C227 C226 1.438 . S
C227 C228 1.428 . S
C228 H220 0.949 . S
C228 C227 1.428 . S
C228 C229 1.345 . S
C229 H221 0.950 . S
C229 C228 1.345 . S
C229 C230 1.424 . S
C230 H222 0.951 . S
C230 C229 1.424 . S
C230 C231 1.347 . S
C231 H223 0.951 . S
C231 C226 1.429 . S
C231 C230 1.347 . S
H232 C233 0.951 . S
C233 H232 0.951 . S
C233 C239 1.265 . S
H234 C239 0.950 . S
H235 C243 0.949 . S
H236 C244 0.950 . S
H237 C245 0.951 . S
H238 C246 0.951 . S
C239 C233 1.265 . S
C239 H234 0.950 . S
C239 C240 1.478 . S
C240 C239 1.478 . S
C240 C241 1.397 . S
C240 C257 1.394 . S
C241 C240 1.397 . S
C241 C242 1.438 . S
C241 C246 1.429 . S
C242 C241 1.438 . S
C242 C243 1.428 . S
C242 C255 1.394 . S
C243 H235 0.949 . S
C243 C242 1.428 . S
C243 C244 1.345 . S
C244 H236 0.950 . S
C244 C243 1.345 . S
C244 C245 1.424 . S
C245 H237 0.951 . S
C245 C244 1.424 . S
C245 C246 1.347 . S
C246 H238 0.951 . S
C246 C241 1.429 . S
C246 C245 1.347 . S
H247 C248 0.951 . S
C248 H247 0.951 . S
C248 C254 1.265 . S
H249 C254 0.950 . S
H250 C258 0.949 . S
H251 C259 0.950 . S
H252 C260 0.951 . S
H253 C261 0.951 . S
C254 C248 1.265 . S
C254 H249 0.950 . S
C254 C255 1.478 . S
C255 C242 1.394 . S
C255 C254 1.478 . S
C255 C256 1.397 . S
C256 C255 1.397 . S
C256 C257 1.438 . S
C256 C261 1.429 . S
C257 C240 1.394 . S
C257 C256 1.438 . S
C257 C258 1.428 . S
C258 H250 0.949 . S
C258 C257 1.428 . S
C258 C259 1.345 . S
C259 H251 0.950 . S
C259 C258 1.345 . S
C259 C260 1.424 . S
C260 H252 0.951 . S
C260 C259 1.424 . S
C260 C261 1.347 . S
C261 H253 0.951 . S
C261 C256 1.429 . S
C261 C260 1.347 . S
H262 C263 0.951 . S
C263 H262 0.951 . S
C263 C269 1.265 . S
H264 C269 0.950 . S
H265 C273 0.949 . S
H266 C274 0.950 . S
H267 C275 0.951 . S
H268 C276 0.951 . S
C269 C263 1.265 . S
C269 H264 0.950 . S
C269 C270 1.478 . S
C270 C269 1.478 . S
C270 C271 1.397 . S
C270 C287 1.394 . S
C271 C270 1.397 . S
C271 C272 1.438 . S
C271 C276 1.429 . S
C272 C271 1.438 . S
C272 C273 1.428 . S
C272 C285 1.394 . S
C273 H265 0.949 . S
C273 C272 1.428 . S
C273 C274 1.345 . S
C274 H266 0.950 . S
C274 C273 1.345 . S
C274 C275 1.424 . S
C275 H267 0.951 . S
C275 C274 1.424 . S
C275 C276 1.347 . S
C276 H268 0.951 . S
C276 C271 1.429 . S
C276 C275 1.347 . S
H277 C278 0.951 . S
C278 H277 0.951 . S
C278 C284 1.265 . S
H279 C284 0.950 . S
H280 C288 0.949 . S
H281 C289 0.950 . S
H282 C290 0.951 . S
H283 C291 0.951 . S
C284 C278 1.265 . S
C284 H279 0.950 . S
C284 C285 1.478 . S
C285 C272 1.394 . S
C285 C284 1.478 . S
C285 C286 1.397 . S
C286 C285 1.397 . S
C286 C287 1.438 . S
C286 C291 1.429 . S
C287 C270 1.394 . S
C287 C286 1.438 . S
C287 C288 1.428 . S
C288 H280 0.949 . S
C288 C287 1.428 . S
C288 C289 1.345 . S
C289 H281 0.950 . S
C289 C288 1.345 . S
C289 C290 1.424 . S
C290 H282 0.951 . S
C290 C289 1.424 . S
C290 C291 1.347 . S
C291 H283 0.951 . S
C291 C286 1.429 . S
C291 C290 1.347 . S
H292 C293 0.951 . S
C293 H292 0.951 . S
C293 C299 1.265 . S
H294 C299 0.950 . S
H295 C303 0.949 . S
H296 C304 0.950 . S
H297 C305 0.951 . S
H298 C306 0.951 . S
C299 C293 1.265 . S
C299 H294 0.950 . S
C299 C300 1.478 . S
C300 C299 1.478 . S
C300 C301 1.397 . S
C300 C317 1.394 . S
C301 C300 1.397 . S
C301 C302 1.438 . S
C301 C306 1.429 . S
C302 C301 1.438 . S
C302 C303 1.428 . S
C302 C315 1.394 . S
C303 H295 0.949 . S
C303 C302 1.428 . S
C303 C304 1.345 . S
C304 H296 0.950 . S
C304 C303 1.345 . S
C304 C305 1.424 . S
C305 H297 0.951 . S
C305 C304 1.424 . S
C305 C306 1.347 . S
C306 H298 0.951 . S
C306 C301 1.429 . S
C306 C305 1.347 . S
H307 C308 0.951 . S
C308 H307 0.951 . S
C308 C314 1.265 . S
H309 C314 0.950 . S
H310 C318 0.949 . S
H311 C319 0.950 . S
H312 C320 0.951 . S
H313 C321 0.951 . S
C314 C308 1.265 . S
C314 H309 0.950 . S
C314 C315 1.478 . S
C315 C302 1.394 . S
C315 C314 1.478 . S
C315 C316 1.397 . S
C316 C315 1.397 . S
C316 C317 1.438 . S
C316 C321 1.429 . S
C317 C300 1.394 . S
C317 C316 1.438 . S
C317 C318 1.428 . S
C318 H310 0.949 . S
C318 C317 1.428 . S
C318 C319 1.345 . S
C319 H311 0.950 . S
C319 C318 1.345 . S
C319 C320 1.424 . S
C320 H312 0.951 . S
C320 C319 1.424 . S
C320 C321 1.347 . S
C321 H313 0.951 . S
C321 C316 1.429 . S
C321 C320 1.347 . S
H322 C323 0.951 . S
C323 H322 0.951 . S
C323 C329 1.265 . S
H324 C329 0.950 . S
H325 C333 0.949 . S
H326 C334 0.950 . S
H327 C335 0.951 . S
H328 C336 0.951 . S
C329 C323 1.265 . S
C329 H324 0.950 . S
C329 C330 1.478 . S
C330 C329 1.478 . S
C330 C331 1.397 . S
C330 C347 1.394 . S
C331 C330 1.397 . S
C331 C332 1.438 1_554 S
C331 C336 1.429 . S
C332 C331 1.438 1_556 S
C332 C333 1.428 . S
C332 C345 1.394 . S
C333 H325 0.949 . S
C333 C332 1.428 . S
C333 C334 1.345 . S
C334 H326 0.950 . S
C334 C333 1.345 . S
C334 C335 1.424 1_556 S
C335 H327 0.951 . S
C335 C334 1.424 1_554 S
C335 C336 1.347 . S
C336 H328 0.951 . S
C336 C331 1.429 . S
C336 C335 1.347 . S
H337 C338 0.951 . S
C338 H337 0.951 . S
C338 C344 1.265 . S
H339 C344 0.950 . S
H340 C348 0.949 . S
H341 C349 0.950 . S
H342 C350 0.951 . S
H343 C351 0.951 . S
C344 C338 1.265 . S
C344 H339 0.950 . S
C344 C345 1.478 . S
C345 C332 1.394 . S
C345 C344 1.478 . S
C345 C346 1.397 . S
C346 C345 1.397 . S
C346 C347 1.438 1_556 S
C346 C351 1.429 . S
C347 C330 1.394 . S
C347 C346 1.438 1_554 S
C347 C348 1.428 . S
C348 H340 0.949 . S
C348 C347 1.428 . S
C348 C349 1.345 . S
C349 H341 0.950 . S
C349 C348 1.345 . S
C349 C350 1.424 1_554 S
C350 H342 0.951 . S
C350 C349 1.424 1_556 S
C350 C351 1.347 . S
C351 H343 0.951 . S
C351 C346 1.429 . S
C351 C350 1.347 . S
H352 C353 0.951 . S
C353 H352 0.951 . S
C353 C359 1.265 . S
H354 C359 0.950 . S
H355 C363 0.949 . S
H356 C364 0.950 . S
H357 C365 0.951 . S
H358 C366 0.951 . S
C359 C353 1.265 . S
C359 H354 0.950 . S
C359 C360 1.478 . S
C360 C359 1.478 . S
C360 C361 1.397 . S
C360 C377 1.394 . S
C361 C360 1.397 . S
C361 C362 1.438 1_445 S
C361 C366 1.429 . S
C362 C361 1.438 1_665 S
C362 C363 1.428 . S
C362 C375 1.394 . S
C363 H355 0.949 . S
C363 C362 1.428 . S
C363 C364 1.345 1_655 S
C364 H356 0.950 . S
C364 C363 1.345 1_455 S
C364 C365 1.424 . S
C365 H357 0.951 . S
C365 C364 1.424 . S
C365 C366 1.347 1_565 S
C366 H358 0.951 . S
C366 C361 1.429 . S
C366 C365 1.347 1_545 S
H367 C368 0.951 . S
C368 H367 0.951 . S
C368 C374 1.265 . S
H369 C374 0.950 . S
H370 C378 0.949 . S
H371 C379 0.950 . S
H372 C380 0.951 . S
H373 C381 0.951 . S
C374 C368 1.265 . S
C374 H369 0.950 . S
C374 C375 1.478 . S
C375 C362 1.394 . S
C375 C374 1.478 . S
C375 C376 1.397 . S
C376 C375 1.397 . S
C376 C377 1.438 1_665 S
C376 C381 1.429 . S
C377 C360 1.394 . S
C377 C376 1.438 1_445 S
C377 C378 1.428 . S
C378 H370 0.949 . S
C378 C377 1.428 . S
C378 C379 1.345 1_455 S
C379 H371 0.950 . S
C379 C378 1.345 1_655 S
C379 C380 1.424 . S
C380 H372 0.951 . S
C380 C379 1.424 . S
C380 C381 1.347 1_545 S
C381 H373 0.951 . S
C381 C376 1.429 . S
C381 C380 1.347 1_565 S
H382 C383 0.951 . S
C383 H382 0.951 . S
C383 C389 1.265 . S
H384 C389 0.950 . S
H385 C393 0.949 . S
H386 C394 0.950 . S
H387 C395 0.951 . S
H388 C396 0.951 . S
C389 C383 1.265 . S
C389 H384 0.950 . S
C389 C390 1.478 . S
C390 C389 1.478 . S
C390 C391 1.397 . S
C390 C407 1.394 . S
C391 C390 1.397 . S
C391 C392 1.438 1_455 S
C391 C396 1.429 . S
C392 C391 1.438 1_655 S
C392 C393 1.428 . S
C392 C405 1.394 . S
C393 H385 0.949 . S
C393 C392 1.428 . S
C393 C394 1.345 . S
C394 H386 0.950 . S
C394 C393 1.345 . S
C394 C395 1.424 . S
C395 H387 0.951 . S
C395 C394 1.424 . S
C395 C396 1.347 1_655 S
C396 H388 0.951 . S
C396 C391 1.429 . S
C396 C395 1.347 1_455 S
H397 C398 0.951 . S
C398 H397 0.951 . S
C398 C404 1.265 . S
H399 C404 0.950 . S
H400 C408 0.949 . S
H401 C409 0.950 . S
H402 C410 0.951 . S
H403 C411 0.951 . S
C404 C398 1.265 . S
C404 H399 0.950 . S
C404 C405 1.478 . S
C405 C392 1.394 . S
C405 C404 1.478 . S
C405 C406 1.397 . S
C406 C405 1.397 . S
C406 C407 1.438 1_655 S
C406 C411 1.429 . S
C407 C390 1.394 . S
C407 C406 1.438 1_455 S
C407 C408 1.428 . S
C408 H400 0.949 . S
C408 C407 1.428 . S
C408 C409 1.345 . S
C409 H401 0.950 . S
C409 C408 1.345 . S
C409 C410 1.424 . S
C410 H402 0.951 . S
C410 C409 1.424 . S
C410 C411 1.347 1_455 S
C411 H403 0.951 . S
C411 C406 1.429 . S
C411 C410 1.347 1_655 S
H412 C413 0.951 . S
C413 H412 0.951 . S
C413 C419 1.265 . S
H414 C419 0.950 . S
H415 C423 0.949 . S
H416 C424 0.950 . S
H417 C425 0.951 . S
H418 C426 0.951 . S
C419 C413 1.265 . S
C419 H414 0.950 . S
C419 C420 1.478 . S
C420 C419 1.478 . S
C420 C421 1.397 . S
C420 C437 1.394 . S
C421 C420 1.397 . S
C421 C422 1.438 . S
C421 C426 1.429 . S
C422 C421 1.438 . S
C422 C423 1.428 . S
C422 C435 1.394 . S
C423 H415 0.949 . S
C423 C422 1.428 . S
C423 C424 1.345 . S
C424 H416 0.950 . S
C424 C423 1.345 . S
C424 C425 1.424 . S
C425 H417 0.951 . S
C425 C424 1.424 . S
C425 C426 1.347 . S
C426 H418 0.951 . S
C426 C421 1.429 . S
C426 C425 1.347 . S
H427 C428 0.951 . S
C428 H427 0.951 . S
C428 C434 1.265 . S
H429 C434 0.950 . S
H430 C438 0.949 . S
H431 C439 0.950 . S
H432 C440 0.951 . S
H433 C441 0.951 . S
C434 C428 1.265 . S
C434 H429 0.950 . S
C434 C435 1.478 . S
C435 C422 1.394 . S
C435 C434 1.478 . S
C435 C436 1.397 . S
C436 C435 1.397 . S
C436 C437 1.438 . S
C436 C441 1.429 . S
C437 C420 1.394 . S
C437 C436 1.438 . S
C437 C438 1.428 . S
C438 H430 0.949 . S
C438 C437 1.428 . S
C438 C439 1.345 . S
C439 H431 0.950 . S
C439 C438 1.345 . S
C439 C440 1.424 . S
C440 H432 0.951 . S
C440 C439 1.424 . S
C440 C441 1.347 . S
C441 H433 0.951 . S
C441 C436 1.429 . S
C441 C440 1.347 . S
H442 C443 0.951 . S
C443 H442 0.951 . S
C443 C449 1.265 . S
H444 C449 0.950 . S
H445 C453 0.949 . S
H446 C454 0.950 . S
H447 C455 0.951 . S
H448 C456 0.951 1_565 S
C449 C443 1.265 . S
C449 H444 0.950 . S
C449 C450 1.478 . S
C450 C449 1.478 . S
C450 C451 1.397 1_565 S
C450 C467 1.394 . S
C451 C450 1.397 1_545 S
C451 C452 1.438 . S
C451 C456 1.429 . S
C452 C451 1.438 . S
C452 C453 1.428 . S
C452 C465 1.394 . S
C453 H445 0.949 . S
C453 C452 1.428 . S
C453 C454 1.345 . S
C454 H446 0.950 . S
C454 C453 1.345 . S
C454 C455 1.424 . S
C455 H447 0.951 . S
C455 C454 1.424 . S
C455 C456 1.347 . S
C456 H448 0.951 1_545 S
C456 C451 1.429 . S
C456 C455 1.347 . S
H457 C458 0.951 . S
C458 H457 0.951 . S
C458 C464 1.265 . S
H459 C464 0.950 . S
H460 C468 0.949 . S
H461 C469 0.950 . S
H462 C470 0.951 . S
H463 C471 0.951 1_545 S
C464 C458 1.265 . S
C464 H459 0.950 . S
C464 C465 1.478 . S
C465 C452 1.394 . S
C465 C464 1.478 . S
C465 C466 1.397 1_545 S
C466 C465 1.397 1_565 S
C466 C467 1.438 . S
C466 C471 1.429 . S
C467 C450 1.394 . S
C467 C466 1.438 . S
C467 C468 1.428 . S
C468 H460 0.949 . S
C468 C467 1.428 . S
C468 C469 1.345 . S
C469 H461 0.950 . S
C469 C468 1.345 . S
C469 C470 1.424 . S
C470 H462 0.951 . S
C470 C469 1.424 . S
C470 C471 1.347 . S
C471 H463 0.951 1_565 S
C471 C466 1.429 . S
C471 C470 1.347 . S
H472 C473 0.951 . S
C473 H472 0.951 . S
C473 C479 1.265 . S
H474 C479 0.950 . S
H475 C483 0.949 . S
H476 C484 0.950 . S
H477 C485 0.951 . S
H478 C486 0.951 1_655 S
C479 C473 1.265 . S
C479 H474 0.950 . S
C479 C480 1.478 . S
C480 C479 1.478 . S
C480 C481 1.397 1_655 S
C480 C497 1.394 . S
C481 C480 1.397 1_455 S
C481 C482 1.438 . S
C481 C486 1.429 . S
C482 C481 1.438 . S
C482 C483 1.428 . S
C482 C495 1.394 . S
C483 H475 0.949 . S
C483 C482 1.428 . S
C483 C484 1.345 . S
C484 H476 0.950 . S
C484 C483 1.345 . S
C484 C485 1.424 . S
C485 H477 0.951 . S
C485 C484 1.424 . S
C485 C486 1.347 . S
C486 H478 0.951 1_455 S
C486 C481 1.429 . S
C486 C485 1.347 . S
H487 C488 0.951 . S
C488 H487 0.951 . S
C488 C494 1.265 . S
H489 C494 0.950 . S
H490 C498 0.949 . S
H491 C499 0.950 . S
H492 C500 0.951 . S
H493 C501 0.951 1_455 S
C494 C488 1.265 . S
C494 H489 0.950 . S
C494 C495 1.478 . S
C495 C482 1.394 . S
C495 C494 1.478 . S
C495 C496 1.397 1_455 S
C496 C495 1.397 1_655 S
C496 C497 1.438 . S
C496 C501 1.429 . S
C497 C480 1.394 . S
C497 C496 1.438 . S
C497 C498 1.428 . S
C498 H490 0.949 . S
C498 C497 1.428 . S
C498 C499 1.345 . S
C499 H491 0.950 . S
C499 C498 1.345 . S
C499 C500 1.424 . S
C500 H492 0.951 . S
C500 C499 1.424 . S
C500 C501 1.347 . S
C501 H493 0.951 1_655 S
C501 C496 1.429 . S
C501 C500 1.347 . S
H502 C503 0.951 . S
C503 H502 0.951 . S
C503 C509 1.265 . S
H504 C509 0.950 . S
H505 C513 0.949 . S
H506 C514 0.950 . S
H507 C515 0.951 . S
H508 C516 0.951 . S
C509 C503 1.265 . S
C509 H504 0.950 . S
C509 C510 1.478 . S
C510 C509 1.478 . S
C510 C511 1.397 . S
C510 C527 1.394 . S
C511 C510 1.397 . S
C511 C512 1.438 . S
C511 C516 1.429 . S
C512 C511 1.438 . S
C512 C513 1.428 . S
C512 C525 1.394 . S
C513 H505 0.949 . S
C513 C512 1.428 . S
C513 C514 1.345 . S
C514 H506 0.950 . S
C514 C513 1.345 . S
C514 C515 1.424 . S
C515 H507 0.951 . S
C515 C514 1.424 . S
C515 C516 1.347 . S
C516 H508 0.951 . S
C516 C511 1.429 . S
C516 C515 1.347 . S
H517 C518 0.951 . S
C518 H517 0.951 . S
C518 C524 1.265 . S
H519 C524 0.950 . S
H520 C528 0.949 . S
H521 C529 0.950 . S
H522 C530 0.951 . S
H523 C531 0.951 . S
C524 C518 1.265 . S
C524 H519 0.950 . S
C524 C525 1.478 . S
C525 C512 1.394 . S
C525 C524 1.478 . S
C525 C526 1.397 . S
C526 C525 1.397 . S
C526 C527 1.438 . S
C526 C531 1.429 . S
C527 C510 1.394 . S
C527 C526 1.438 . S
C527 C528 1.428 . S
C528 H520 0.949 . S
C528 C527 1.428 . S
C528 C529 1.345 . S
C529 H521 0.950 . S
C529 C528 1.345 . S
C529 C530 1.424 . S
C530 H522 0.951 . S
C530 C529 1.424 . S
C530 C531 1.347 . S
C531 H523 0.951 . S
C531 C526 1.429 . S
C531 C530 1.347 . S
H532 C533 0.951 . S
C533 H532 0.951 . S
C533 C539 1.265 . S
H534 C539 0.950 . S
H535 C543 0.949 . S
H536 C544 0.950 1_565 S
H537 C545 0.951 . S
H538 C546 0.951 . S
C539 C533 1.265 . S
C539 H534 0.950 . S
C539 C540 1.478 . S
C540 C539 1.478 . S
C540 C541 1.397 . S
C540 C557 1.394 . S
C541 C540 1.397 . S
C541 C542 1.438 1_545 S
C541 C546 1.429 . S
C542 C541 1.438 1_565 S
C542 C543 1.428 . S
C542 C555 1.394 . S
C543 H535 0.949 . S
C543 C542 1.428 . S
C543 C544 1.345 1_565 S
C544 H536 0.950 1_545 S
C544 C543 1.345 1_545 S
C544 C545 1.424 . S
C545 H537 0.951 . S
C545 C544 1.424 . S
C545 C546 1.347 . S
C546 H538 0.951 . S
C546 C541 1.429 . S
C546 C545 1.347 . S
H547 C548 0.951 . S
C548 H547 0.951 . S
C548 C554 1.265 . S
H549 C554 0.950 . S
H550 C558 0.949 . S
H551 C559 0.950 1_545 S
H552 C560 0.951 . S
H553 C561 0.951 . S
C554 C548 1.265 . S
C554 H549 0.950 . S
C554 C555 1.478 . S
C555 C542 1.394 . S
C555 C554 1.478 . S
C555 C556 1.397 . S
C556 C555 1.397 . S
C556 C557 1.438 1_565 S
C556 C561 1.429 . S
C557 C540 1.394 . S
C557 C556 1.438 1_545 S
C557 C558 1.428 . S
C558 H550 0.949 . S
C558 C557 1.428 . S
C558 C559 1.345 1_545 S
C559 H551 0.950 1_565 S
C559 C558 1.345 1_565 S
C559 C560 1.424 . S
C560 H552 0.951 . S
C560 C559 1.424 . S
C560 C561 1.347 . S
C561 H553 0.951 . S
C561 C556 1.429 . S
C561 C560 1.347 . S
H562 C563 0.951 . S
C563 H562 0.951 . S
C563 C569 1.265 . S
H564 C569 0.950 . S
H565 C573 0.949 . S
H566 C574 0.950 . S
H567 C575 0.951 . S
H568 C576 0.951 . S
C569 C563 1.265 . S
C569 H564 0.950 . S
C569 C570 1.478 . S
C570 C569 1.478 . S
C570 C571 1.397 . S
C570 C587 1.394 . S
C571 C570 1.397 . S
C571 C572 1.438 1_665 S
C571 C576 1.429 . S
C572 C571 1.438 1_445 S
C572 C573 1.428 . S
C572 C585 1.394 . S
C573 H565 0.949 . S
C573 C572 1.428 . S
C573 C574 1.345 1_545 S
C574 H566 0.950 . S
C574 C573 1.345 1_565 S
C574 C575 1.424 . S
C575 H567 0.951 . S
C575 C574 1.424 . S
C575 C576 1.347 1_455 S
C576 H568 0.951 . S
C576 C571 1.429 . S
C576 C575 1.347 1_655 S
H577 C578 0.951 . S
C578 H577 0.951 . S
C578 C584 1.265 . S
H579 C584 0.950 . S
H580 C588 0.949 . S
H581 C589 0.950 . S
H582 C590 0.951 . S
H583 C591 0.951 . S
C584 C578 1.265 . S
C584 H579 0.950 . S
C584 C585 1.478 . S
C585 C572 1.394 . S
C585 C584 1.478 . S
C585 C586 1.397 . S
C586 C585 1.397 . S
C586 C587 1.438 1_445 S
C586 C591 1.429 . S
C587 C570 1.394 . S
C587 C586 1.438 1_665 S
C587 C588 1.428 . S
C588 H580 0.949 . S
C588 C587 1.428 . S
C588 C589 1.345 1_565 S
C589 H581 0.950 . S
C589 C588 1.345 1_545 S
C589 C590 1.424 . S
C590 H582 0.951 . S
C590 C589 1.424 . S
C590 C591 1.347 1_655 S
C591 H583 0.951 . S
C591 C586 1.429 . S
C591 C590 1.347 1_455 S
C113 C0 1.214 . S
C128 C70 1.179 . S
C143 C23 1.165 . S
C158 C93 1.235 . S
C173 C28 1.216 . S
C188 C98 1.177 . S
C203 C51 1.196 . S
C218 C65 1.140 . S
C233 C107 1.141 . S
C248 C9 1.194 . S
C263 C56 1.215 . S
C278 C14 1.178 . S
C293 C37 1.141 . S
C308 C79 1.195 . S
C323 C84 1.177 . S
C338 C42 1.218 . S
C353 C5 1.554 . S
C368 C89 1.555 . S
C383 C109 1.542 . S
C398 C25 1.543 . S
C413 C33 1.576 . S
C428 C61 1.573 . S
C443 C53 1.587 . S
C458 C81 1.585 . S
C473 C95 1.587 . S
C488 C11 1.585 . S
C503 C103 1.575 . S
C518 C19 1.574 . S
C533 C39 1.585 . S
C548 C67 1.587 . S
C563 C47 1.554 . S
C578 C75 1.555 . S
