# Generated by pormake.
# Topology wme, (6)-cn, num edge types: 1
# Building blocks:
#     Node 0, Type 0, BuildingBlock: HISSIN_clean_sbu_0, # of connection points: 6
#     Node 1, Type 0, BuildingBlock: HISSIN_clean_sbu_0, # of connection points: 6
#     Node 2, Type 0, BuildingBlock: HISSIN_clean_sbu_0, # of connection points: 6
#     Node 3, Type 0, BuildingBlock: HISSIN_clean_sbu_0, # of connection points: 6
#     Node 4, Type 0, BuildingBlock: HISSIN_clean_sbu_0, # of connection points: 6
#     Node 5, Type 0, BuildingBlock: HISSIN_clean_sbu_0, # of connection points: 6
#     Node 6, Type 0, BuildingBlock: HISSIN_clean_sbu_0, # of connection points: 6
#     Node 7, Type 0, BuildingBlock: HISSIN_clean_sbu_0, # of connection points: 6
#     Node 8, Type 0, BuildingBlock: HISSIN_clean_sbu_0, # of connection points: 6
#     Node 9, Type 0, BuildingBlock: HISSIN_clean_sbu_0, # of connection points: 6
#     Node 10, Type 0, BuildingBlock: HISSIN_clean_sbu_0, # of connection points: 6
#     Node 11, Type 0, BuildingBlock: HISSIN_clean_sbu_0, # of connection points: 6
#     Edge 12, Type (0, 0), BuildingBlock: KIFKEQ_clean_linker_1, # of connection points: 2
#     Edge 13, Type (0, 0), BuildingBlock: KIFKEQ_clean_linker_1, # of connection points: 2
#     Edge 14, Type (0, 0), BuildingBlock: KIFKEQ_clean_linker_1, # of connection points: 2
#     Edge 15, Type (0, 0), BuildingBlock: KIFKEQ_clean_linker_1, # of connection points: 2
#     Edge 16, Type (0, 0), BuildingBlock: KIFKEQ_clean_linker_1, # of connection points: 2
#     Edge 17, Type (0, 0), BuildingBlock: KIFKEQ_clean_linker_1, # of connection points: 2
#     Edge 18, Type (0, 0), BuildingBlock: KIFKEQ_clean_linker_1, # of connection points: 2
#     Edge 19, Type (0, 0), BuildingBlock: KIFKEQ_clean_linker_1, # of connection points: 2
#     Edge 20, Type (0, 0), BuildingBlock: KIFKEQ_clean_linker_1, # of connection points: 2
#     Edge 21, Type (0, 0), BuildingBlock: KIFKEQ_clean_linker_1, # of connection points: 2
#     Edge 22, Type (0, 0), BuildingBlock: KIFKEQ_clean_linker_1, # of connection points: 2
#     Edge 23, Type (0, 0), BuildingBlock: KIFKEQ_clean_linker_1, # of connection points: 2
#     Edge 24, Type (0, 0), BuildingBlock: KIFKEQ_clean_linker_1, # of connection points: 2
#     Edge 25, Type (0, 0), BuildingBlock: KIFKEQ_clean_linker_1, # of connection points: 2
#     Edge 26, Type (0, 0), BuildingBlock: KIFKEQ_clean_linker_1, # of connection points: 2
#     Edge 27, Type (0, 0), BuildingBlock: KIFKEQ_clean_linker_1, # of connection points: 2
#     Edge 28, Type (0, 0), BuildingBlock: KIFKEQ_clean_linker_1, # of connection points: 2
#     Edge 29, Type (0, 0), BuildingBlock: KIFKEQ_clean_linker_1, # of connection points: 2
#     Edge 30, Type (0, 0), BuildingBlock: KIFKEQ_clean_linker_1, # of connection points: 2
#     Edge 31, Type (0, 0), BuildingBlock: KIFKEQ_clean_linker_1, # of connection points: 2
#     Edge 32, Type (0, 0), BuildingBlock: KIFKEQ_clean_linker_1, # of connection points: 2
#     Edge 33, Type (0, 0), BuildingBlock: KIFKEQ_clean_linker_1, # of connection points: 2
#     Edge 34, Type (0, 0), BuildingBlock: KIFKEQ_clean_linker_1, # of connection points: 2
#     Edge 35, Type (0, 0), BuildingBlock: KIFKEQ_clean_linker_1, # of connection points: 2
#     Edge 36, Type (0, 0), BuildingBlock: KIFKEQ_clean_linker_1, # of connection points: 2
#     Edge 37, Type (0, 0), BuildingBlock: KIFKEQ_clean_linker_1, # of connection points: 2
#     Edge 38, Type (0, 0), BuildingBlock: KIFKEQ_clean_linker_1, # of connection points: 2
#     Edge 39, Type (0, 0), BuildingBlock: KIFKEQ_clean_linker_1, # of connection points: 2
#     Edge 40, Type (0, 0), BuildingBlock: KIFKEQ_clean_linker_1, # of connection points: 2
#     Edge 41, Type (0, 0), BuildingBlock: KIFKEQ_clean_linker_1, # of connection points: 2
#     Edge 42, Type (0, 0), BuildingBlock: KIFKEQ_clean_linker_1, # of connection points: 2
#     Edge 43, Type (0, 0), BuildingBlock: KIFKEQ_clean_linker_1, # of connection points: 2
#     Edge 44, Type (0, 0), BuildingBlock: KIFKEQ_clean_linker_1, # of connection points: 2
#     Edge 45, Type (0, 0), BuildingBlock: KIFKEQ_clean_linker_1, # of connection points: 2
#     Edge 46, Type (0, 0), BuildingBlock: KIFKEQ_clean_linker_1, # of connection points: 2
#     Edge 47, Type (0, 0), BuildingBlock: KIFKEQ_clean_linker_1, # of connection points: 2
# Relax obj value: 0.087
# Max RMSD: 0.187
# Mean RMSD: 0.187
data_MOF--net-wme--node1-HISSIN_clean_sbu_0--edge1-KIFKEQ_clean_linker_1
_symmetry_space_group_name_H-M    P1
_symmetry_Int_Tables_number       1
_symmetry_cell_setting            triclinic
loop_
_symmetry_equiv_pos_as_xyz
'x, y, z'
_cell_length_a     40.996325
_cell_length_b     41.051297
_cell_length_c     54.189025
_cell_angle_alpha  89.983486
_cell_angle_beta   89.907274
_cell_angle_gamma 120.00795
loop_
_atom_site_label
_atom_site_type_symbol
_atom_site_fract_x
_atom_site_fract_y
_atom_site_fract_z
_atom_type_partial_charge
Eu0 Eu 0.21624 0.37921 0.10486 0.0
Eu1 Eu 0.24787 0.32539 0.12781 0.0
C2 C 0.21523 0.36473 0.16331 0.0
C3 C 0.18628 0.45367 0.09097 0.0
C4 C 0.18809 0.4671 0.11508 0.0
C5 C 0.17403 0.50226 0.07563 0.0
C6 C 0.18276 0.49788 0.11941 0.0
C7 C 0.1793 0.47157 0.07135 0.0
C8 C 0.17563 0.5159 0.09972 0.0
C9 C 0.18937 0.41989 0.08586 0.0
O10 O 0.19027 0.28656 0.11103 0.0
O11 O 0.16568 0.32507 0.11629 0.0
C12 C 0.16102 0.29134 0.11357 0.0
O13 O 0.22703 0.3479 0.07363 0.0
O14 O 0.25478 0.29095 0.15611 0.0
O15 O 0.27425 0.29227 0.1188 0.0
O16 O 0.27788 0.3538 0.09322 0.0
C17 C 0.25871 0.34709 0.07294 0.0
O18 O 0.27677 0.41955 0.11399 0.0
O19 O 0.2949 0.38439 0.1379 0.0
O20 O 0.21643 0.33404 0.15844 0.0
O21 O 0.22257 0.4248 0.08048 0.0
O22 O 0.17032 0.39096 0.10023 0.0
O23 O 0.22124 0.38999 0.1462 0.0
C24 C 0.24768 0.23403 0.13955 0.0
C25 C 0.22171 0.21387 0.12076 0.0
C26 C 0.24043 0.17511 0.15514 0.0
C27 C 0.20609 0.17489 0.11877 0.0
C28 C 0.25643 0.21426 0.15695 0.0
C29 C 0.21568 0.15511 0.13571 0.0
C30 C 0.26704 0.27562 0.14023 0.0
C31 C 0.30104 0.41681 0.12849 0.0
H32 H 0.19336 0.45365 0.13054 0.0
H33 H 0.16807 0.51492 0.06003 0.0
H34 H 0.18464 0.50781 0.13815 0.0
H35 H 0.17739 0.46146 0.05264 0.0
H36 H 0.21414 0.22837 0.10722 0.0
H37 H 0.24853 0.16069 0.16838 0.0
H38 H 0.18678 0.16023 0.10379 0.0
H39 H 0.27634 0.2292 0.17159 0.0
Eu40 Eu 0.85807 0.20702 0.6075 0.0
Eu41 Eu 0.94319 0.24084 0.63457 0.0
C42 C 0.86867 0.22193 0.66714 0.0
C43 C 0.75343 0.17421 0.59197 0.0
C44 C 0.74039 0.1715 0.6163 0.0
C45 C 0.69266 0.16329 0.57703 0.0
C46 C 0.70372 0.16461 0.62094 0.0
C47 C 0.72925 0.17012 0.57244 0.0
C48 C 0.6792 0.16031 0.60136 0.0
C49 C 0.7916 0.1804 0.58645 0.0
O50 O 0.92215 0.18022 0.62289 0.0
O51 O 0.85888 0.15802 0.62509 0.0
C52 C 0.88739 0.15205 0.62488 0.0
O53 O 0.89962 0.20981 0.57789 0.0
O54 O 0.97752 0.23392 0.66253 0.0
O55 O 1.00444 0.2779 0.63522 0.0
O56 O 0.95359 0.25714 0.59513 0.0
C57 C 0.93581 0.23529 0.57655 0.0
O58 O 0.8831 0.26975 0.60915 0.0
O59 O 0.93251 0.29034 0.63679 0.0
O60 O 0.90379 0.22951 0.66606 0.0
O61 O 0.81885 0.21505 0.5842 0.0
O62 O 0.80232 0.15993 0.59848 0.0
O63 O 0.84696 0.21462 0.64757 0.0
C64 C 0.03811 0.24824 0.64893 0.0
C65 C 0.02979 0.21599 0.63518 0.0
C66 C 0.10135 0.25889 0.65595 0.0
C67 C 0.05701 0.20515 0.63197 0.0
C68 C 0.07408 0.26959 0.65923 0.0
C69 C 0.09321 0.22645 0.64233 0.0
C70 C 1.00942 0.25948 0.65304 0.0
C71 C 0.90861 0.29588 0.62352 0.0
H72 H 0.75848 0.17447 0.63172 0.0
H73 H 0.67512 0.16088 0.56144 0.0
H74 H 0.69444 0.16216 0.63991 0.0
H75 H 0.73867 0.17217 0.55352 0.0
H76 H 1.00221 0.19915 0.62698 0.0
H77 H 0.12867 0.27574 0.66446 0.0
H78 H 0.04983 0.18031 0.62111 0.0
H79 H 0.08105 0.29449 0.66997 0.0
Eu80 Eu 0.67113 0.84812 0.11047 0.0
Eu81 Eu 0.72145 0.93895 0.12416 0.0
C82 C 0.67983 0.87662 0.1669 0.0
C83 C 0.59962 0.74076 0.10438 0.0
C84 C 0.5844 0.73358 0.12833 0.0
C85 C 0.55302 0.67683 0.0927 0.0
C86 C 0.55382 0.69813 0.13445 0.0
C87 C 0.58351 0.71219 0.08664 0.0
C88 C 0.53789 0.66911 0.11675 0.0
C89 C 0.63351 0.77681 0.09779 0.0
O90 O 0.76251 0.9181 0.11573 0.0
O91 O 0.72452 0.85719 0.12762 0.0
C92 C 0.75811 0.88559 0.1231 0.0
O93 O 0.70672 0.88223 0.07738 0.0
O94 O 0.7519 0.98763 0.14857 0.0
O95 O 0.75499 0.99543 0.10904 0.0
O96 O 0.6976 0.93054 0.08633 0.0
C97 C 0.70683 0.91293 0.07038 0.0
O98 O 0.62937 0.86831 0.11025 0.0
O99 O 0.66103 0.92705 0.12866 0.0
O100 O 0.70954 0.90847 0.16024 0.0
O101 O 0.6286 0.80274 0.08744 0.0
O102 O 0.66082 0.79082 0.1138 0.0
O103 O 0.65742 0.85139 0.15067 0.0
C104 C 0.80939 0.03593 0.13156 0.0
C105 C 0.83396 0.02224 0.12637 0.0
C106 C 0.86344 0.09882 0.13586 0.0
C107 C 0.87306 0.04677 0.12581 0.0
C108 C 0.82445 0.07431 0.13642 0.0
C109 C 0.88836 0.08549 0.13043 0.0
C110 C 0.76813 1.01112 0.13035 0.0
C111 C 0.62985 0.89794 0.12 0.0
H112 H 0.59648 0.75518 0.14239 0.0
H113 H 0.54114 0.65559 0.07843 0.0
H114 H 0.54318 0.69326 0.15319 0.0
H115 H 0.59481 0.71709 0.06805 0.0
H116 H 0.82287 0.99269 0.12244 0.0
H117 H 0.87397 0.12846 0.13908 0.0
H118 H 0.89128 0.03538 0.1218 0.0
H119 H 0.80597 0.08551 0.14018 0.0
Eu120 Eu 0.83598 0.6601 0.60979 0.0
Eu121 Eu 0.80539 0.71406 0.63646 0.0
C122 C 0.82065 0.65714 0.66939 0.0
C123 C 0.87085 0.5889 0.59895 0.0
C124 C 0.86087 0.57098 0.62209 0.0
C125 C 0.90049 0.55179 0.5886 0.0
C126 C 0.86991 0.54317 0.62819 0.0
C127 C 0.8913 0.57948 0.58248 0.0
C128 C 0.88925 0.53262 0.61135 0.0
C129 C 0.85721 0.61459 0.59082 0.0
O130 O 0.86639 0.75131 0.62466 0.0
O131 O 0.88606 0.70842 0.6281 0.0
C132 C 0.89358 0.74344 0.62746 0.0
O133 O 0.83495 0.69792 0.57881 0.0
O134 O 0.81475 0.75671 0.66396 0.0
O135 O 0.76801 0.73772 0.63864 0.0
O136 O 0.79389 0.71427 0.5965 0.0
C137 C 0.8131 0.71314 0.57756 0.0
O138 O 0.77383 0.63422 0.6033 0.0
O139 O 0.75606 0.65345 0.6378 0.0
O140 O 0.81726 0.6872 0.66824 0.0
O141 O 0.82262 0.60464 0.59669 0.0
O142 O 0.87974 0.65079 0.59317 0.0
O143 O 0.82495 0.64069 0.64976 0.0
C144 C 0.79841 0.80171 0.65138 0.0
C145 C 0.81885 0.82139 0.63035 0.0
C146 C 0.79997 0.85859 0.66586 0.0
C147 C 0.82954 0.85937 0.62701 0.0
C148 C 0.78916 0.82064 0.66908 0.0
C149 C 0.82024 0.87859 0.64474 0.0
C150 C 0.78797 0.76207 0.65567 0.0
C151 C 0.74865 0.62825 0.62032 0.0
H152 H 0.84515 0.57774 0.63519 0.0
H153 H 0.91503 0.54431 0.57503 0.0
H154 H 0.86125 0.52953 0.64602 0.0
H155 H 0.89913 0.5927 0.56447 0.0
H156 H 0.82666 0.8074 0.61657 0.0
H157 H 0.79287 0.87237 0.68019 0.0
H158 H 0.84473 0.87351 0.61039 0.0
H159 H 0.77382 0.80613 0.6856 0.0
Eu160 Eu 0.19644 0.83807 0.10508 0.0
Eu161 Eu 0.10742 0.79661 0.12566 0.0
C162 C 0.17634 0.82243 0.16328 0.0
C163 C 0.30266 0.87214 0.09371 0.0
C164 C 0.31545 0.87161 0.11771 0.0
C165 C 0.36181 0.88057 0.07736 0.0
C166 C 0.35126 0.87587 0.12148 0.0
C167 C 0.32614 0.87648 0.07363 0.0
C168 C 0.37502 0.88055 0.10134 0.0
C169 C 0.26637 0.87091 0.08921 0.0
O170 O 0.12355 0.85638 0.11496 0.0
O171 O 0.18775 0.88467 0.11862 0.0
C172 C 0.15691 0.88667 0.11726 0.0
O173 O 0.15777 0.83538 0.07366 0.0
O174 O 0.06422 0.78448 0.15369 0.0
O175 O 0.04771 0.76517 0.11634 0.0
O176 O 0.10915 0.77994 0.08688 0.0
C177 C 0.12477 0.80527 0.06968 0.0
O178 O 0.17596 0.7761 0.10519 0.0
O179 O 0.12304 0.75079 0.13024 0.0
O180 O 0.14386 0.82026 0.15891 0.0
O181 O 0.23902 0.84067 0.07916 0.0
O182 O 0.25431 0.88443 0.10645 0.0
O183 O 0.19886 0.82399 0.14535 0.0
C184 C 1.01103 0.7854 0.13761 0.0
C185 C 1.02287 0.82137 0.12791 0.0
C186 C 0.94881 0.77724 0.14456 0.0
C187 C 0.99777 0.83511 0.12641 0.0
C188 C 0.97395 0.7636 0.1461 0.0
C189 C 0.96025 0.81302 0.13445 0.0
C190 C 0.03661 0.76985 0.13789 0.0
C191 C 0.14993 0.74821 0.11836 0.0
H192 H 0.29793 0.8683 0.13358 0.0
H193 H 0.37937 0.88454 0.06141 0.0
H194 H 0.36022 0.87518 0.14017 0.0
H195 H 0.31711 0.87736 0.05498 0.0
H196 H 0.05133 0.83856 0.12109 0.0
H197 H 0.92033 0.75969 0.15131 0.0
H198 H 1.00749 0.86259 0.11832 0.0
H199 H 0.96427 0.73579 0.15365 0.0
Eu200 Eu 0.38323 0.18806 0.60727 0.0
Eu201 Eu 0.3322 0.1019 0.63103 0.0
C202 C 0.38137 0.17095 0.66616 0.0
C203 C 0.45538 0.29461 0.59691 0.0
C204 C 0.48449 0.29875 0.61258 0.0
C205 C 0.48702 0.36293 0.59275 0.0
C206 C 0.51481 0.33472 0.61809 0.0
C207 C 0.45689 0.32705 0.58721 0.0
C208 C 0.51663 0.36739 0.60816 0.0
C209 C 0.42333 0.25713 0.59017 0.0
O210 O 0.29949 0.13253 0.63722 0.0
O211 O 0.32249 0.17318 0.60445 0.0
C212 C 0.29703 0.15603 0.62178 0.0
O213 O 0.36827 0.14498 0.57609 0.0
O214 O 0.2952 0.06239 0.65905 0.0
O215 O 0.30728 0.04119 0.62571 0.0
O216 O 0.31226 0.10306 0.5931 0.0
C217 C 0.33536 0.11379 0.57441 0.0
O218 O 0.42517 0.17315 0.62187 0.0
O219 O 0.38936 0.10872 0.61965 0.0
O220 O 0.37081 0.13569 0.66155 0.0
O221 O 0.4305 0.23017 0.58531 0.0
O222 O 0.39234 0.24507 0.60284 0.0
O223 O 0.38121 0.19373 0.64902 0.0
C224 C 0.24639 1.00446 0.64319 0.0
C225 C 0.21961 1.01514 0.63745 0.0
C226 C 0.19612 0.93898 0.64415 0.0
C227 C 0.18133 0.98792 0.63524 0.0
C228 C 0.2343 0.9662 0.64646 0.0
C229 C 0.16902 0.9494 0.63853 0.0
C230 C 0.28688 0.0327 0.64576 0.0
C231 C 0.42256 0.13998 0.62072 0.0
H232 H 0.48389 0.2742 0.62047 0.0
H233 H 0.48754 0.38717 0.58443 0.0
H234 H 0.53677 0.33692 0.63024 0.0
H235 H 0.43481 0.32462 0.57506 0.0
H236 H 0.22832 0.04452 0.63466 0.0
H237 H 0.18777 0.90975 0.64714 0.0
H238 H 0.16144 0.99701 0.63061 0.0
H239 H 0.25443 0.95731 0.65091 0.0
Eu240 Eu 0.66967 0.8308 0.40608 0.0
Eu241 Eu 0.72014 0.79366 0.38468 0.0
C242 C 0.68327 0.82712 0.34783 0.0
C243 C 0.59666 0.86393 0.41806 0.0
C244 C 0.59334 0.88078 0.39627 0.0
C245 C 0.53748 0.85801 0.43247 0.0
C246 C 0.5626 0.88642 0.39274 0.0
C247 C 0.56829 0.85255 0.43605 0.0
C248 C 0.5343 0.87528 0.41084 0.0
C249 C 0.63071 0.8609 0.42325 0.0
O250 O 0.76226 0.85288 0.39789 0.0
O251 O 0.72483 0.87934 0.39419 0.0
C252 C 0.75818 0.88269 0.3962 0.0
O253 O 0.70337 0.82371 0.43728 0.0
O254 O 0.74768 0.77678 0.35673 0.0
O255 O 0.75453 0.76951 0.39559 0.0
O256 O 0.69381 0.76931 0.42107 0.0
C257 C 0.70316 0.79175 0.43993 0.0
O258 O 0.6277 0.76957 0.40082 0.0
O259 O 0.65964 0.74775 0.37685 0.0
O260 O 0.71334 0.82486 0.35307 0.0
O261 O 0.62602 0.82862 0.43084 0.0
O262 O 0.6591 0.87772 0.40809 0.0
O263 O 0.65841 0.82288 0.36485 0.0
C264 C 0.80605 0.78312 0.36991 0.0
C265 C 0.83223 0.8192 0.37847 0.0
C266 C 0.85775 0.77232 0.35999 0.0
C267 C 0.87088 0.8315 0.37819 0.0
C268 C 0.81914 0.76006 0.36031 0.0
C269 C 0.88413 0.80791 0.36939 0.0
C270 C 0.76518 0.76787 0.37317 0.0
C271 C 0.62835 0.74347 0.38707 0.0
H272 H 0.61471 0.89005 0.38202 0.0
H273 H 0.51653 0.84943 0.44695 0.0
H274 H 0.5609 0.8993 0.37572 0.0
H275 H 0.5703 0.83999 0.45315 0.0
H276 H 0.82268 0.83736 0.38614 0.0
H277 H 0.86688 0.75364 0.35266 0.0
H278 H 0.8902 0.8589 0.38579 0.0
H279 H 0.79941 0.7321 0.35366 0.0
Eu280 Eu 0.8541 0.65504 0.90534 0.0
Eu281 Eu 0.94193 0.70336 0.88338 0.0
C282 C 0.87179 0.65595 0.8465 0.0
C283 C 0.74791 0.58501 0.91928 0.0
C284 C 0.74359 0.55244 0.90774 0.0
C285 C 0.67952 0.55496 0.92272 0.0
C286 C 0.70747 0.52131 0.90382 0.0
C287 C 0.71554 0.58593 0.92664 0.0
C288 C 0.67482 0.52205 0.9113 0.0
C289 C 0.78548 0.61848 0.92378 0.0
O290 O 0.92352 0.74564 0.89376 0.0
O291 O 0.86013 0.70753 0.8887 0.0
C292 C 0.88971 0.74114 0.89039 0.0
O293 O 0.89528 0.69159 0.93569 0.0
O294 O 0.98554 0.73497 0.85561 0.0
O295 O 1.00136 0.73372 0.89343 0.0
O296 O 0.94004 0.68055 0.92092 0.0
C297 C 0.92694 0.69134 0.93905 0.0
O298 O 0.87337 0.6127 0.90218 0.0
O299 O 0.92841 0.64253 0.87908 0.0
O300 O 0.90582 0.68488 0.84963 0.0
O301 O 0.81287 0.61309 0.93081 0.0
O302 O 0.79687 0.64599 0.90799 0.0
O303 O 0.84878 0.63795 0.86504 0.0
C304 C 0.03925 0.78961 0.87116 0.0
C305 C 0.02949 0.81482 0.88175 0.0
C306 C 0.10174 0.84222 0.86221 0.0
C307 C 0.05583 0.85343 0.88278 0.0
C308 C 0.07541 0.80367 0.86119 0.0
C309 C 0.09254 0.86764 0.8733 0.0
C310 C 1.01288 0.74855 0.87165 0.0
C311 C 0.90069 0.61214 0.88968 0.0
H312 H 0.7681 0.55102 0.90181 0.0
H313 H 0.65531 0.55707 0.92837 0.0
H314 H 0.70521 0.49646 0.89523 0.0
H315 H 0.71812 0.61082 0.93543 0.0
H316 H 1.00177 0.80453 0.88968 0.0
H317 H 0.12942 0.85207 0.85433 0.0
H318 H 0.04775 0.87197 0.89167 0.0
H319 H 0.08351 0.78472 0.85293 0.0
Eu320 Eu 0.21407 0.85065 0.40219 0.0
Eu321 Eu 0.24792 0.93583 0.37764 0.0
C322 C 0.22964 0.8665 0.34297 0.0
C323 C 0.18237 0.74523 0.41435 0.0
C324 C 0.17483 0.73022 0.39033 0.0
C325 C 0.17937 0.68768 0.42907 0.0
C326 C 0.16941 0.69411 0.38578 0.0
C327 C 0.18464 0.7236 0.43359 0.0
C328 C 0.1716 0.67229 0.40512 0.0
C329 C 0.18603 0.78229 0.42012 0.0
O330 O 0.18471 0.90362 0.37145 0.0
O331 O 0.168 0.86513 0.40518 0.0
C332 C 0.15915 0.88107 0.38743 0.0
O333 O 0.24289 0.8944 0.43283 0.0
O334 O 0.24822 0.97371 0.34911 0.0
O335 O 0.28229 0.99674 0.38192 0.0
O336 O 0.22813 0.93578 0.4159 0.0
C337 C 0.24107 0.92549 0.43446 0.0
O338 O 0.27084 0.86582 0.38736 0.0
O339 O 0.29913 0.93032 0.3886 0.0
O340 O 0.25331 0.90219 0.34725 0.0
O341 O 0.21942 0.80999 0.42573 0.0
O342 O 0.16721 0.7933 0.40641 0.0
O343 O 0.20735 0.84363 0.36041 0.0
C344 C 0.25393 0.03003 0.36504 0.0
C345 C 0.23223 0.0281 0.38569 0.0
C346 C 0.24733 0.08193 0.34918 0.0
C347 C 0.21873 0.05332 0.38826 0.0
C348 C 0.26103 0.05692 0.34674 0.0
C349 C 0.22631 0.08085 0.37012 0.0
C350 C 0.26876 1.00391 0.36215 0.0
C351 C 0.30125 0.89916 0.38793 0.0
H352 H 0.17292 0.74627 0.3751 0.0
H353 H 0.18077 0.67167 0.44451 0.0
H354 H 0.16395 0.68348 0.36707 0.0
H355 H 0.19007 0.73436 0.4523 0.0
H356 H 0.2259 1.00724 0.39992 0.0
H357 H 0.25313 0.10204 0.33452 0.0
H358 H 0.20302 0.05167 0.40475 0.0
H359 H 0.27726 0.0586 0.33049 0.0
Eu360 Eu 0.3803 0.19747 0.90592 0.0
Eu361 Eu 0.32883 0.23167 0.88354 0.0
C362 C 0.37834 0.21345 0.8473 0.0
C363 C 0.45398 0.16556 0.91707 0.0
C364 C 0.46238 0.1604 0.8927 0.0
C365 C 0.50764 0.16062 0.93132 0.0
C366 C 0.49311 0.15519 0.88773 0.0
C367 C 0.47694 0.16568 0.93626 0.0
C368 C 0.5162 0.15525 0.907 0.0
C369 C 0.42065 0.16911 0.92319 0.0
O370 O 0.29667 0.16859 0.87675 0.0
O371 O 0.31982 0.15122 0.90938 0.0
C372 C 0.29431 0.14269 0.89216 0.0
O373 O 0.36622 0.22636 0.93691 0.0
O374 O 0.29194 0.23445 0.85571 0.0
O375 O 0.30307 0.26656 0.8895 0.0
O376 O 0.30884 0.21028 0.92164 0.0
C377 C 0.33257 0.22245 0.93992 0.0
O378 O 0.42218 0.25435 0.89127 0.0
O379 O 0.38586 0.28228 0.89464 0.0
O380 O 0.36712 0.23751 0.85238 0.0
O381 O 0.42643 0.2024 0.9291 0.0
O382 O 0.39082 0.1506 0.90945 0.0
O383 O 0.37883 0.1905 0.86417 0.0
C384 C 0.24185 0.24023 0.87274 0.0
C385 C 0.21666 0.2019 0.87728 0.0
C386 C 0.18954 0.2522 0.87503 0.0
C387 C 0.1781 0.18879 0.88052 0.0
C388 C 0.22799 0.26522 0.87166 0.0
C389 C 0.16406 0.21382 0.87953 0.0
C390 C 0.2826 0.25456 0.86955 0.0
C391 C 0.41922 0.28467 0.89284 0.0
H392 H 0.4451 0.16021 0.87754 0.0
H393 H 0.52436 0.16033 0.94667 0.0
H394 H 0.49908 0.1516 0.86877 0.0
H395 H 0.47085 0.16929 0.9552 0.0
H396 H 0.22682 0.18213 0.87841 0.0
H397 H 0.17969 0.2722 0.87382 0.0
H398 H 0.1594 0.15917 0.88419 0.0
H399 H 0.24693 0.29488 0.86822 0.0
Eu400 Eu 0.19425 0.37303 0.40236 0.0
Eu401 Eu 0.10483 0.32273 0.38593 0.0
C402 C 0.16916 0.36283 0.34468 0.0
C403 C 0.30138 0.44471 0.40977 0.0
C404 C 0.33215 0.43977 0.40431 0.0
C405 C 0.34219 0.51225 0.40372 0.0
C406 C 0.36752 0.47061 0.39866 0.0
C407 C 0.30672 0.48131 0.40931 0.0
C408 C 0.3732 0.50738 0.39846 0.0
C409 C 0.26476 0.41142 0.41673 0.0
O410 O 0.12448 0.28131 0.39651 0.0
O411 O 0.18713 0.31885 0.38823 0.0
C412 C 0.15795 0.28551 0.39196 0.0
O413 O 0.15654 0.3405 0.43534 0.0
O414 O 0.05653 0.29218 0.36127 0.0
O415 O 0.04813 0.28934 0.40084 0.0
O416 O 0.11212 0.35221 0.4216 0.0
C417 C 0.12607 0.34256 0.43975 0.0
O418 O 0.17593 0.41588 0.39768 0.0
O419 O 0.11708 0.38293 0.37931 0.0
O420 O 0.13684 0.33329 0.35073 0.0
O421 O 0.23809 0.41677 0.42547 0.0
O422 O 0.25166 0.38256 0.40197 0.0
O423 O 0.19381 0.38487 0.36135 0.0
C424 C 1.0079 0.23488 0.37854 0.0
C425 C 1.02244 0.21057 0.37533 0.0
C426 C 0.94584 0.18064 0.38557 0.0
C427 C 0.99878 0.17146 0.3774 0.0
C428 C 0.9694 0.21956 0.38337 0.0
C429 C 0.96028 0.15608 0.38302 0.0
C430 C 0.03278 0.27609 0.37944 0.0
C431 C 0.14654 0.41474 0.38697 0.0
H432 H 0.32889 0.4119 0.40457 0.0
H433 H 0.34547 0.5401 0.40409 0.0
H434 H 0.39041 0.46555 0.39436 0.0
H435 H 0.28365 0.48615 0.41351 0.0
H436 H 0.05221 0.22189 0.37186 0.0
H437 H 0.91626 0.16977 0.3895 0.0
H438 H 1.01084 0.15339 0.37545 0.0
H439 H 0.95767 0.23781 0.38607 0.0
Eu440 Eu 0.83838 0.17957 0.90283 0.0
Eu441 Eu 0.80138 0.0929 0.88124 0.0
C442 C 0.82198 0.16266 0.84428 0.0
C443 C 0.87218 0.28467 0.91611 0.0
C444 C 0.87021 0.29637 0.89204 0.0
C445 C 0.88299 0.3449 0.93167 0.0
C446 C 0.87482 0.3322 0.88783 0.0
C447 C 0.87853 0.30923 0.93583 0.0
C448 C 0.88128 0.35698 0.90761 0.0
C449 C 0.86952 0.24794 0.92105 0.0
O450 O 0.86139 0.11227 0.89385 0.0
O451 O 0.88519 0.17438 0.88578 0.0
C452 C 0.89031 0.14578 0.88925 0.0
O453 O 0.83318 0.13897 0.93376 0.0
O454 O 0.79508 0.05186 0.853 0.0
O455 O 0.77172 0.03283 0.88943 0.0
O456 O 0.7786 0.09185 0.91873 0.0
C457 C 0.80155 0.10704 0.93718 0.0
O458 O 0.77673 0.15985 0.89906 0.0
O459 O 0.75269 0.10442 0.87666 0.0
O460 O 0.81866 0.1294 0.84752 0.0
O461 O 0.83714 0.22034 0.92851 0.0
O462 O 0.88588 0.23677 0.90526 0.0
O463 O 0.82569 0.18504 0.86284 0.0
C464 C 0.79678 0.99893 0.86911 0.0
C465 C 0.8182 0.99915 0.88943 0.0
C466 C 0.80526 0.9498 0.85033 0.0
C467 C 0.83237 0.97437 0.89039 0.0
C468 C 0.79088 0.97438 0.84947 0.0
C469 C 0.82569 0.94894 0.87099 0.0
C470 C 0.77996 0.02355 0.8683 0.0
C471 C 0.74929 0.13197 0.88675 0.0
H472 H 0.86531 0.27789 0.87649 0.0
H473 H 0.88839 0.36328 0.94733 0.0
H474 H 0.87285 0.34031 0.86911 0.0
H475 H 0.88046 0.30095 0.95451 0.0
H476 H 0.8235 0.01806 0.90478 0.0
H477 H 0.80017 0.93133 0.83477 0.0
H478 H 0.8476 0.97443 0.90671 0.0
H479 H 0.77479 0.97396 0.83351 0.0
H480 H 0.21679 0.95224 0.10193 0.0
H481 H 0.10647 0.907 0.13481 0.0
H482 H 0.22657 1.01565 0.10556 0.0
H483 H 0.11675 0.97121 0.13891 0.0
H484 H 0.18524 0.09852 0.17029 0.0
H485 H 0.16627 0.03201 0.16453 0.0
H486 H 0.1966 0.05335 0.08753 0.0
H487 H 0.21521 0.11946 0.09317 0.0
C488 C 0.19452 0.95584 0.10986 0.0
C489 C 0.16085 0.92459 0.1181 0.0
C490 C 0.20009 0.99219 0.11183 0.0
C491 C 0.17246 0.99838 0.12252 0.0
C492 C 0.13857 0.96719 0.13066 0.0
C493 C 0.1326 0.93052 0.12817 0.0
C494 C 0.18753 0.08886 0.15211 0.0
C495 C 0.20177 0.11424 0.13219 0.0
C496 C 0.17639 0.0508 0.14878 0.0
C497 C 0.17997 0.03755 0.12558 0.0
C498 C 0.19359 0.0628 0.10562 0.0
C499 C 0.20408 0.1006 0.10884 0.0
H500 H 0.28598 0.20623 0.595 0.0
H501 H 0.23681 0.12481 0.65392 0.0
H502 H 0.23633 0.22182 0.59955 0.0
H503 H 0.18721 0.14093 0.65871 0.0
H504 H 0.08403 0.15531 0.64394 0.0
H505 H 0.13191 0.13703 0.63845 0.0
H506 H 0.21663 0.25367 0.62838 0.0
H507 H 0.16873 0.27177 0.63311 0.0
C508 C 0.26456 0.19156 0.60894 0.0
C509 C 0.26561 0.16428 0.62414 0.0
C510 C 0.23614 0.20074 0.61167 0.0
C511 C 0.20779 0.18289 0.62963 0.0
C512 C 0.20838 0.15508 0.64456 0.0
C513 C 0.23698 0.14596 0.64189 0.0
C514 C 0.11282 0.17703 0.64032 0.0
C515 C 0.1224 0.21506 0.63896 0.0
C516 C 0.14038 0.16657 0.63744 0.0
C517 C 0.17824 0.19382 0.63294 0.0
C518 C 0.18775 0.23181 0.63153 0.0
C519 C 0.16028 0.24227 0.63453 0.0
H520 H 0.94002 0.08597 0.09749 0.0
H521 H 0.93122 0.14571 0.16044 0.0
H522 H 1.00689 0.13308 0.0935 0.0
H523 H 0.99754 0.19275 0.15618 0.0
H524 H 0.09647 0.29368 0.12029 0.0
H525 H 0.03269 0.24196 0.12486 0.0
H526 H 0.07148 0.16261 0.1146 0.0
H527 H 0.13644 0.21509 0.10995 0.0
C528 C 0.95236 0.10877 0.1107 0.0
C529 C 0.92991 0.11222 0.12909 0.0
C530 C 0.99072 0.13578 0.10838 0.0
C531 C 1.00745 0.16696 0.1243 0.0
C532 C 0.98537 0.16952 0.14327 0.0
C533 C 0.94723 0.14255 0.14566 0.0
C534 C 0.09175 0.26532 0.11891 0.0
C535 C 0.12189 0.25872 0.11483 0.0
C536 C 0.05499 0.23555 0.12172 0.0
C537 C 0.04696 0.19811 0.12045 0.0
C538 C 0.07677 0.19119 0.11569 0.0
C539 C 0.11395 0.22123 0.11305 0.0
H540 H 0.78008 0.91328 0.65732 0.0
H541 H 0.8855 0.93627 0.62432 0.0
H542 H 0.79809 0.97894 0.65287 0.0
H543 H 0.90264 1.00191 0.61848 0.0
H544 H 0.93675 0.12611 0.63411 0.0
H545 H 0.92168 0.06066 0.63874 0.0
H546 H 0.80484 0.02316 0.62306 0.0
H547 H 0.8196 0.08794 0.61935 0.0
C548 C 0.80718 0.93228 0.64911 0.0
C549 C 0.83128 0.91911 0.64128 0.0
C550 C 0.81734 0.97008 0.6462 0.0
C551 C 0.85181 0.99606 0.63511 0.0
C552 C 0.87602 0.98299 0.62729 0.0
C553 C 0.86591 0.94508 0.63033 0.0
C554 C 0.90788 0.10382 0.63164 0.0
C555 C 0.87938 0.11245 0.6266 0.0
C556 C 0.89921 0.06621 0.63417 0.0
C557 C 0.86187 0.0363 0.63157 0.0
C558 C 0.83372 0.04517 0.62588 0.0
C559 C 0.84229 0.08256 0.62358 0.0
H560 H 0.88693 0.77269 0.11958 0.0
H561 H 0.97127 0.88417 0.14265 0.0
H562 H 0.84084 0.79325 0.1166 0.0
H563 H 0.92476 0.90489 0.13963 0.0
H564 H 0.83244 0.93121 0.10859 0.0
H565 H 0.8834 0.91613 0.11059 0.0
H566 H 0.80759 0.81055 0.14608 0.0
H567 H 0.75735 0.82505 0.14387 0.0
C568 C 0.89561 0.80156 0.12421 0.0
C569 C 0.93272 0.82656 0.13174 0.0
C570 C 0.86915 0.81342 0.12245 0.0
C571 C 0.87891 0.85063 0.1282 0.0
C572 C 0.91634 0.87609 0.13496 0.0
C573 C 0.94296 0.86418 0.13672 0.0
C574 C 0.82686 0.90493 0.11692 0.0
C575 C 0.7906 0.87917 0.12573 0.0
C576 C 0.85603 0.89631 0.11812 0.0
C577 C 0.84938 0.86178 0.12809 0.0
C578 C 0.81352 0.83691 0.13768 0.0
C579 C 0.78464 0.84542 0.1365 0.0
H580 H 0.95616 0.73727 0.63566 0.0
H581 H 0.922 0.81987 0.62335 0.0
H582 H 1.02153 0.78713 0.63826 0.0
H583 H 0.98783 0.86995 0.62531 0.0
H584 H 0.10692 0.9523 0.65501 0.0
H585 H 0.04069 0.9036 0.65233 0.0
H586 H 0.07238 0.83156 0.61368 0.0
H587 H 0.1384 0.88 0.61659 0.0
C588 C 0.96255 0.76608 0.63338 0.0
C589 C 0.93359 0.77438 0.62924 0.0
C590 C 1.00026 0.79481 0.6347 0.0
C591 C 1.01033 0.8328 0.63183 0.0
C592 C 0.98131 0.84115 0.62787 0.0
C593 C 0.94347 0.81235 0.62661 0.0
C594 C 0.09974 0.9262 0.64574 0.0
C595 C 0.12822 0.92013 0.63617 0.0
C596 C 0.06164 0.89819 0.64418 0.0
C597 C 0.05089 0.86331 0.63293 0.0
C598 C 0.0794 0.85759 0.62299 0.0
C599 C 0.11742 0.8855 0.62462 0.0
H600 H 0.12882 0.90666 0.35241 0.0
H601 H 0.09918 0.83561 0.417 0.0
H602 H 0.06295 0.8897 0.34757 0.0
H603 H 0.03374 0.81934 0.41244 0.0
H604 H 0.91484 0.76435 0.38207 0.0
H605 H 0.981 0.78293 0.3858 0.0
H606 H 1.01255 0.89683 0.36578 0.0
H607 H 0.9461 0.87783 0.36106 0.0
C608 C 0.10837 0.88766 0.36569 0.0
C609 C 0.11942 0.87241 0.38503 0.0
C610 C 0.07056 0.87806 0.36297 0.0
C611 C 0.04284 0.85291 0.37951 0.0
C612 C 0.0541 0.83822 0.39907 0.0
C613 C 0.0918 0.84781 0.40179 0.0
C614 C 0.9358 0.79326 0.37809 0.0
C615 C 0.92494 0.81951 0.37116 0.0
C616 C 0.97386 0.80407 0.38058 0.0
C617 C 1.00228 0.84149 0.37627 0.0
C618 C 0.9915 0.86772 0.36909 0.0
C619 C 0.95334 0.85689 0.36662 0.0
H620 H 0.08333 0.9294 0.86799 0.0
H621 H 0.16758 0.89869 0.8842 0.0
H622 H 0.13061 0.99578 0.87298 0.0
H623 H 0.21491 0.96481 0.88823 0.0
H624 H 0.28194 0.08212 0.92024 0.0
H625 H 0.23273 0.0168 0.91575 0.0
H626 H 0.18681 0.04714 0.85402 0.0
H627 H 0.23585 0.11297 0.85882 0.0
C628 C 0.11189 0.93673 0.8726 0.0
C629 C 0.12149 0.90847 0.87567 0.0
C630 C 0.13914 0.97489 0.8752 0.0
C631 C 0.17669 0.98585 0.88109 0.0
C632 C 0.18625 0.95757 0.88403 0.0
C633 C 0.1591 0.91952 0.88137 0.0
C634 C 0.26132 0.07504 0.90574 0.0
C635 C 0.26309 0.10299 0.88983 0.0
C636 C 0.23315 0.03738 0.90305 0.0
C637 C 0.20584 0.02643 0.88437 0.0
C638 C 0.20714 0.05448 0.86873 0.0
C639 C 0.23543 0.09226 0.87141 0.0
H640 H 0.1068 0.21004 0.38352 0.0
H641 H 0.22422 0.28719 0.39867 0.0
H642 H 0.1211 0.15898 0.3782 0.0
H643 H 0.23815 0.2368 0.3942 0.0
H644 H 0.26348 0.15529 0.35669 0.0
H645 H 0.24387 0.20154 0.36197 0.0
H646 H 0.14139 0.11822 0.39748 0.0
H647 H 0.16013 0.07092 0.39086 0.0
C648 C 0.13548 0.21602 0.38602 0.0
C649 C 0.16441 0.25288 0.39113 0.0
C650 C 0.14372 0.18677 0.38302 0.0
C651 C 0.18101 0.1938 0.38524 0.0
C652 C 0.20935 0.23036 0.39151 0.0
C653 C 0.20125 0.25936 0.39426 0.0
C654 C 0.23643 0.1464 0.36525 0.0
C655 C 0.21352 0.10908 0.3733 0.0
C656 C 0.22537 0.17326 0.36865 0.0
C657 C 0.19118 0.16396 0.3805 0.0
C658 C 0.16783 0.1265 0.38823 0.0
C659 C 0.17887 0.09944 0.38469 0.0
H660 H 0.10316 0.14963 0.86127 0.0
H661 H 0.1321 0.24713 0.90629 0.0
H662 H 0.03636 0.1303 0.865 0.0
H663 H 0.0657 0.22785 0.91008 0.0
H664 H 0.9546 0.21296 0.88307 0.0
H665 H 1.01904 0.22619 0.88214 0.0
H666 H 0.98106 0.10835 0.89326 0.0
H667 H 0.91544 0.09471 0.89389 0.0
C668 C 0.09527 0.16667 0.87224 0.0
C669 C 0.12311 0.20027 0.88317 0.0
C670 C 0.05695 0.15554 0.8744 0.0
C671 C 0.04561 0.17775 0.88756 0.0
C672 C 0.07341 0.21049 0.89931 0.0
C673 C 0.11156 0.22161 0.89711 0.0
C674 C 0.95966 0.18964 0.88535 0.0
C675 C 0.92959 0.15269 0.88863 0.0
C676 C 0.99687 0.19737 0.885 0.0
C677 C 1.00542 0.16846 0.88791 0.0
C678 C 0.97545 0.13129 0.8909 0.0
C679 C 0.93788 0.12349 0.89136 0.0
H680 H 0.95562 0.09707 0.35585 0.0
H681 H 0.90845 0.12162 0.41964 0.0
H682 H 0.91017 0.02982 0.36089 0.0
H683 H 0.86361 0.05495 0.42478 0.0
H684 H 0.75712 0.94749 0.40347 0.0
H685 H 0.80865 1.01152 0.40151 0.0
H686 H 0.88647 0.97169 0.38743 0.0
H687 H 0.8339 0.90636 0.38907 0.0
C688 C 0.93595 0.0881 0.37113 0.0
C689 C 0.93517 0.11483 0.38704 0.0
C690 C 0.90999 0.04955 0.37408 0.0
C691 C 0.88283 0.03697 0.39303 0.0
C692 C 0.8835 0.06365 0.40963 0.0
C693 C 0.90919 0.10196 0.40665 0.0
C694 C 0.78514 0.95203 0.40004 0.0
C695 C 0.79121 0.92154 0.3964 0.0
C696 C 0.81488 0.989 0.39911 0.0
C697 C 0.85186 0.99692 0.3945 0.0
C698 C 0.85827 0.96655 0.39094 0.0
C699 C 0.82824 0.92915 0.39205 0.0
H700 H 0.8234 0.74023 0.89538 0.0
H701 H 0.94173 0.81618 0.88172 0.0
H702 H 0.81078 0.79144 0.8907 0.0
H703 H 0.92874 0.86807 0.87627 0.0
H704 H 0.89112 0.95688 0.89139 0.0
H705 H 0.9088 0.90855 0.89659 0.0
H706 H 0.80736 0.82873 0.85868 0.0
H707 H 0.78874 0.87594 0.85477 0.0
C708 C 0.84684 0.76793 0.8912 0.0
C709 C 0.88359 0.77389 0.88866 0.0
C710 C 0.83949 0.79741 0.88835 0.0
C711 C 0.86854 0.83392 0.88259 0.0
C712 C 0.90563 0.84033 0.88072 0.0
C713 C 0.9131 0.81061 0.88378 0.0
C714 C 0.87243 0.92892 0.88433 0.0
C715 C 0.83829 0.92047 0.87277 0.0
C716 C 0.88285 0.9013 0.88705 0.0
C717 C 0.85938 0.8645 0.87831 0.0
C718 C 0.82588 0.85648 0.86612 0.0
C719 C 0.81541 0.88389 0.86352 0.0
H720 H 0.09446 0.6752 0.13009 0.0
H721 H 0.21129 0.74174 0.10853 0.0
H722 H 0.09925 0.61789 0.12692 0.0
H723 H 0.21609 0.68553 0.10579 0.0
H724 H 0.20236 0.57968 0.07168 0.0
H725 H 0.19359 0.63338 0.07776 0.0
H726 H 0.12938 0.58244 0.14399 0.0
H727 H 0.13706 0.52755 0.13737 0.0
C728 C 0.12116 0.6777 0.12497 0.0
C729 C 0.15224 0.7131 0.11915 0.0
C730 C 0.12396 0.6449 0.12318 0.0
C731 C 0.1579 0.64696 0.11559 0.0
C732 C 0.18921 0.68259 0.11096 0.0
C733 C 0.18642 0.71501 0.11265 0.0
C734 C 0.18599 0.57955 0.08742 0.0
C735 C 0.17044 0.54908 0.104 0.0
C736 C 0.18129 0.61067 0.09109 0.0
C737 C 0.16102 0.61253 0.11151 0.0
C738 C 0.14501 0.58193 0.12801 0.0
C739 C 0.14981 0.55065 0.12436 0.0
H740 H 0.65537 0.18984 0.63817 0.0
H741 H 0.61385 0.1151 0.57548 0.0
H742 H 0.59272 0.18085 0.645 0.0
H743 H 0.55141 0.10745 0.58168 0.0
H744 H 0.43439 0.08037 0.61053 0.0
H745 H 0.49505 0.08211 0.60752 0.0
H746 H 0.55294 0.20022 0.62604 0.0
H747 H 0.49323 0.19835 0.62949 0.0
C748 C 0.6329 0.17124 0.62591 0.0
C749 C 0.6401 0.15345 0.60615 0.0
C750 C 0.59687 0.1664 0.62966 0.0
C751 C 0.56677 0.14366 0.61377 0.0
C752 C 0.57365 0.12499 0.59442 0.0
C753 C 0.60975 0.12984 0.59066 0.0
C754 C 0.46008 0.10654 0.61422 0.0
C755 C 0.45864 0.13915 0.62025 0.0
C756 C 0.49494 0.10765 0.61231 0.0
C757 C 0.52917 0.14133 0.61659 0.0
C758 C 0.52742 0.1736 0.62301 0.0
C759 C 0.49288 0.17253 0.6248 0.0
H760 H 0.5252 0.59974 0.10164 0.0
H761 H 0.47682 0.65201 0.14635 0.0
H762 H 0.46973 0.53833 0.10899 0.0
H763 H 0.42211 0.59046 0.15452 0.0
H764 H 0.31085 0.48704 0.12957 0.0
H765 H 0.36933 0.54662 0.13037 0.0
H766 H 0.4316 0.48797 0.13855 0.0
H767 H 0.3722 0.4275 0.13735 0.0
C768 C 0.50287 0.59817 0.11318 0.0
C769 C 0.50542 0.63111 0.12309 0.0
C770 C 0.47124 0.56278 0.1177 0.0
C771 C 0.4412 0.55928 0.13226 0.0
C772 C 0.44443 0.59204 0.14296 0.0
C773 C 0.47605 0.62741 0.13844 0.0
C774 C 0.33693 0.4867 0.13189 0.0
C775 C 0.33682 0.45242 0.13324 0.0
C776 C 0.3706 0.52105 0.13253 0.0
C777 C 0.40539 0.52233 0.13444 0.0
C778 C 0.40533 0.48804 0.13681 0.0
C779 C 0.37133 0.4534 0.13638 0.0
H780 H 0.95152 0.52559 0.60091 0.0
H781 H 0.84075 0.46556 0.63377 0.0
H782 H 0.95854 0.47015 0.60646 0.0
H783 H 0.84815 0.41084 0.63976 0.0
H784 H 0.85093 0.30734 0.61136 0.0
H785 H 0.84904 0.36529 0.61094 0.0
H786 H 0.96339 0.42592 0.63768 0.0
H787 H 0.96544 0.36689 0.63809 0.0
C788 C 0.92878 0.50075 0.60949 0.0
C789 C 0.89544 0.50019 0.61674 0.0
C790 C 0.93301 0.46907 0.61291 0.0
C791 C 0.90384 0.43584 0.62342 0.0
C792 C 0.87107 0.43576 0.63137 0.0
C793 C 0.86697 0.46739 0.62813 0.0
C794 C 0.87587 0.33286 0.61723 0.0
C795 C 0.90848 0.33223 0.62466 0.0
C796 C 0.87459 0.36622 0.61717 0.0
C797 C 0.90594 0.40041 0.62439 0.0
C798 C 0.93874 0.40009 0.63191 0.0
C799 C 0.93987 0.36627 0.63229 0.0
H800 H 0.6157 0.95676 0.12761 0.0
H801 H 0.56017 0.83733 0.11318 0.0
H802 H 0.55467 0.95435 0.12407 0.0
H803 H 0.50029 0.83504 0.10992 0.0
H804 H 0.40902 0.84938 0.07437 0.0
H805 H 0.47101 0.85638 0.08009 0.0
H806 H 0.48997 0.92808 0.14306 0.0
H807 H 0.42788 0.9219 0.13688 0.0
C808 C 0.59062 0.93004 0.12394 0.0
C809 C 0.59316 0.89742 0.12032 0.0
C810 C 0.55564 0.92862 0.12194 0.0
C811 C 0.52259 0.89458 0.11623 0.0
C812 C 0.52516 0.86192 0.11365 0.0
C813 C 0.55974 0.8633 0.11564 0.0
C814 C 0.42643 0.86698 0.08931 0.0
C815 C 0.41323 0.885 0.10516 0.0
C816 C 0.46195 0.87072 0.09275 0.0
C817 C 0.48551 0.89259 0.11218 0.0
C818 C 0.47268 0.91116 0.12786 0.0
C819 C 0.43689 0.90725 0.12448 0.0
H820 H 0.68425 0.60275 0.64935 0.0
H821 H 0.73139 0.56901 0.58996 0.0
H822 H 0.6274 0.53995 0.64857 0.0
H823 H 0.67559 0.5074 0.58934 0.0
H824 H 0.59151 0.38826 0.6106 0.0
H825 H 0.64573 0.4511 0.61567 0.0
H826 H 0.57181 0.49731 0.62104 0.0
H827 H 0.51722 0.43408 0.6165 0.0
C828 C 0.68253 0.58222 0.6361 0.0
C829 C 0.71262 0.59128 0.61973 0.0
C830 C 0.64994 0.54623 0.63562 0.0
C831 C 0.64703 0.51834 0.61907 0.0
C832 C 0.67697 0.52775 0.60264 0.0
C833 C 0.70904 0.56349 0.6029 0.0
C834 C 0.58661 0.41161 0.61326 0.0
C835 C 0.54975 0.40583 0.61297 0.0
C836 C 0.61783 0.44783 0.61593 0.0
C837 C 0.61328 0.47949 0.61854 0.0
C838 C 0.57643 0.47366 0.61916 0.0
C839 C 0.54512 0.43737 0.61629 0.0
H840 H 0.37203 0.95747 0.40118 0.0
H841 H 0.31396 0.84219 0.37604 0.0
H842 H 0.42983 0.95395 0.40645 0.0
H843 H 0.37086 0.83891 0.3811 0.0
H844 H 0.46016 0.82728 0.42227 0.0
H845 H 0.40649 0.83643 0.41618 0.0
H846 H 0.47964 0.94583 0.38442 0.0
H847 H 0.53386 0.93705 0.39112 0.0
C848 C 0.37166 0.93165 0.39646 0.0
C849 C 0.33809 0.90003 0.38848 0.0
C850 C 0.40475 0.9296 0.39949 0.0
C851 C 0.40485 0.89586 0.39467 0.0
C852 C 0.37169 0.86501 0.38564 0.0
C853 C 0.33896 0.86704 0.38261 0.0
C854 C 0.46501 0.85348 0.41422 0.0
C855 C 0.50148 0.88133 0.40715 0.0
C856 C 0.43409 0.85861 0.41048 0.0
C857 C 0.43858 0.89178 0.39959 0.0
C858 C 0.47512 0.92001 0.39292 0.0
C859 C 0.50614 0.91477 0.39653 0.0
H860 H 0.64865 0.47367 0.87164 0.0
H861 H 0.61264 0.49479 0.94181 0.0
H862 H 0.5863 0.41908 0.86556 0.0
H863 H 0.55017 0.44031 0.9356 0.0
H864 H 0.43119 0.35434 0.90791 0.0
H865 H 0.49178 0.4132 0.91117 0.0
H866 H 0.54874 0.35684 0.88234 0.0
H867 H 0.48894 0.29893 0.87879 0.0
C868 C 0.6276 0.46664 0.88589 0.0
C869 C 0.63612 0.48881 0.90731 0.0
C870 C 0.59165 0.43528 0.88235 0.0
C871 C 0.56297 0.42502 0.9001 0.0
C872 C 0.57123 0.44754 0.92133 0.0
C873 C 0.60724 0.47888 0.9249 0.0
C874 C 0.45663 0.35473 0.90199 0.0
C875 C 0.455 0.32173 0.89314 0.0
C876 C 0.49145 0.3884 0.90405 0.0
C877 C 0.52539 0.38995 0.89704 0.0
C878 C 0.52339 0.3571 0.88763 0.0
C879 C 0.48888 0.32362 0.88577 0.0
H880 H 0.12017 0.61609 0.37463 0.0
H881 H 0.21109 0.64122 0.42515 0.0
H882 H 0.11222 0.55354 0.36745 0.0
H883 H 0.20243 0.57886 0.41863 0.0
H884 H 0.20877 0.48382 0.38423 0.0
H885 H 0.21326 0.54486 0.38658 0.0
H886 H 0.09192 0.4914 0.38765 0.0
H887 H 0.08738 0.42939 0.38488 0.0
C888 C 0.13853 0.60839 0.38416 0.0
C889 C 0.16635 0.63393 0.40048 0.0
C890 C 0.13368 0.57234 0.38023 0.0
C891 C 0.15679 0.56105 0.39231 0.0
C892 C 0.18442 0.5866 0.40867 0.0
C893 C 0.18914 0.62238 0.41266 0.0
C894 C 0.18288 0.48486 0.38476 0.0
C895 C 0.14767 0.45151 0.38468 0.0
C896 C 0.18551 0.52004 0.38627 0.0
C897 C 0.15302 0.52324 0.38791 0.0
C898 C 0.11758 0.49004 0.38646 0.0
C899 C 0.11493 0.45448 0.38484 0.0
H900 H 0.74243 0.1941 0.88635 0.0
H901 H 0.67571 0.07299 0.88284 0.0
H902 H 0.68566 0.19831 0.88899 0.0
H903 H 0.61798 0.0772 0.88598 0.0
H904 H 0.52197 0.10665 0.87439 0.0
H905 H 0.57688 0.09926 0.86658 0.0
H906 H 0.63989 0.18465 0.92104 0.0
H907 H 0.58595 0.19282 0.9282 0.0
C908 C 0.7155 0.16823 0.88606 0.0
C909 C 0.71368 0.13314 0.88476 0.0
C910 C 0.68284 0.17068 0.88771 0.0
C911 C 0.64715 0.13811 0.88831 0.0
C912 C 0.64503 0.10289 0.88562 0.0
C913 C 0.67805 0.10043 0.88381 0.0
C914 C 0.5477 0.12407 0.88451 0.0
C915 C 0.54943 0.15038 0.90194 0.0
C916 C 0.57904 0.11953 0.88021 0.0
C917 C 0.61297 0.14148 0.89305 0.0
C918 C 0.61449 0.1676 0.91051 0.0
C919 C 0.5833 0.17202 0.91485 0.0
H920 H 0.39094 0.57136 0.37201 0.0
H921 H 0.44242 0.51866 0.41308 0.0
H922 H 0.45277 0.62661 0.36551 0.0
H923 H 0.50428 0.57386 0.40635 0.0
H924 H 0.61509 0.67194 0.37615 0.0
H925 H 0.55384 0.61335 0.37581 0.0
H926 H 0.49816 0.67678 0.39147 0.0
H927 H 0.55843 0.73451 0.39151 0.0
C928 C 0.41537 0.5715 0.37971 0.0
C929 C 0.41139 0.54048 0.39328 0.0
C930 C 0.45093 0.6032 0.37588 0.0
C931 C 0.48363 0.60486 0.38549 0.0
C932 C 0.47985 0.57343 0.3984 0.0
C933 C 0.44424 0.54172 0.40229 0.0
C934 C 0.58966 0.67328 0.37912 0.0
C935 C 0.59177 0.70793 0.38398 0.0
C936 C 0.5546 0.63973 0.37914 0.0
C937 C 0.52096 0.64026 0.38366 0.0
C938 C 0.52325 0.67515 0.38762 0.0
C939 C 0.55803 0.70837 0.38784 0.0
H940 H 0.95793 0.59669 0.87914 0.0
H941 H 0.83963 0.54324 0.8975 0.0
H942 H 0.95463 0.53527 0.88208 0.0
H943 H 0.83639 0.48288 0.90013 0.0
H944 H 0.85223 0.39224 0.93528 0.0
H945 H 0.85928 0.45407 0.92916 0.0
H946 H 0.92633 0.47006 0.86394 0.0
H947 H 0.92015 0.40809 0.87052 0.0
C948 C 0.93123 0.57194 0.88347 0.0
C949 C 0.89926 0.57515 0.88848 0.0
C950 C 0.9293 0.53674 0.88514 0.0
C951 C 0.89538 0.50418 0.89184 0.0
C952 C 0.86321 0.50739 0.89562 0.0
C953 C 0.86512 0.5422 0.894 0.0
C954 C 0.86882 0.40896 0.91975 0.0
C955 C 0.8856 0.39499 0.90342 0.0
C956 C 0.87256 0.44438 0.91607 0.0
C957 C 0.89315 0.46706 0.89592 0.0
C958 C 0.91041 0.45344 0.8797 0.0
C959 C 0.90651 0.41774 0.88333 0.0
H960 H 0.11781 0.33619 0.30783 0.0
H961 H 0.23707 0.40801 0.32094 0.0
H962 H 0.12877 0.34284 0.26373 0.0
H963 H 0.24801 0.41442 0.27604 0.0
H964 H 0.2401 0.43073 0.1893 0.0
H965 H 0.23025 0.43662 0.23365 0.0
H966 H 0.16234 0.31573 0.23908 0.0
H967 H 0.1721 0.30989 0.19553 0.0
C968 C 0.14647 0.35358 0.30133 0.0
C969 C 0.17673 0.37085 0.31797 0.0
C970 C 0.15264 0.3575 0.27599 0.0
C971 C 0.18923 0.37871 0.26649 0.0
C972 C 0.21947 0.39797 0.28295 0.0
C973 C 0.21325 0.3941 0.30858 0.0
C974 C 0.22267 0.40561 0.20003 0.0
C975 C 0.20677 0.36987 0.18903 0.0
C976 C 0.21739 0.40895 0.22535 0.0
C977 C 0.1955 0.37662 0.23973 0.0
C978 C 0.17905 0.34115 0.22843 0.0
C979 C 0.18473 0.33781 0.20348 0.0
H980 H 0.79751 0.17423 0.68481 0.0
H981 H 0.90647 0.26579 0.70602 0.0
H982 H 0.77863 0.16328 0.7284 0.0
H983 H 0.88798 0.2549 0.74919 0.0
H984 H 0.84394 0.23371 0.82669 0.0
H985 H 0.84714 0.25269 0.78345 0.0
H986 H 0.80139 0.1371 0.76076 0.0
H987 H 0.7979 0.11821 0.8035 0.0
C988 C 0.81694 0.19268 0.6987 0.0
C989 C 0.85358 0.22048 0.69213 0.0
C990 C 0.80631 0.18629 0.72363 0.0
C991 C 0.832 0.20795 0.74228 0.0
C992 C 0.86742 0.23784 0.73538 0.0
C993 C 0.87813 0.24389 0.71061 0.0
C994 C 0.83412 0.21236 0.81246 0.0
C995 C 0.82127 0.17457 0.81854 0.0
C996 C 0.83593 0.22321 0.78772 0.0
C997 C 0.82449 0.19639 0.76865 0.0
C998 C 0.80993 0.15842 0.77493 0.0
C999 C 0.80844 0.14768 0.79951 0.0
H1000 H 0.71409 0.92661 0.2041 0.0
H1001 H 0.6305 0.81029 0.19077 0.0
H1002 H 0.70982 0.9145 0.24808 0.0
H1003 H 0.6263 0.79833 0.23549 0.0
H1004 H 0.61757 0.80999 0.32343 0.0
H1005 H 0.61099 0.82098 0.27944 0.0
H1006 H 0.73138 0.87269 0.27026 0.0
H1007 H 0.73798 0.86168 0.31348 0.0
C1008 C 0.69451 0.89844 0.21051 0.0
C1009 C 0.67315 0.86922 0.19377 0.0
C1010 C 0.69204 0.89161 0.23579 0.0
C1011 C 0.66808 0.85544 0.24512 0.0
C1012 C 0.64494 0.82652 0.22869 0.0
C1013 C 0.6475 0.83334 0.20315 0.0
C1014 C 0.64254 0.82392 0.31196 0.0
C1015 C 0.67829 0.83503 0.3219 0.0
C1016 C 0.63873 0.82989 0.28684 0.0
C1017 C 0.67071 0.84777 0.27156 0.0
C1018 C 0.7063 0.85913 0.28166 0.0
C1019 C 0.71003 0.85269 0.30644 0.0
H1020 H 0.78064 0.65851 0.70864 0.0
H1021 H 0.85934 0.62308 0.68658 0.0
H1022 H 0.78797 0.64647 0.75156 0.0
H1023 H 0.86673 0.61077 0.72998 0.0
H1024 H 0.91678 0.66973 0.80646 0.0
H1025 H 0.89845 0.65738 0.76344 0.0
H1026 H 0.78121 0.60206 0.78475 0.0
H1027 H 0.79971 0.61476 0.82826 0.0
C1028 C 0.79895 0.64733 0.71298 0.0
C1029 C 0.81993 0.64231 0.69435 0.0
C1030 C 0.80286 0.64007 0.73759 0.0
C1031 C 0.82816 0.62796 0.74423 0.0
C1032 C 0.84725 0.62042 0.72541 0.0
C1033 C 0.84293 0.62727 0.7006 0.0
C1034 C 0.88702 0.65453 0.80208 0.0
C1035 C 0.85968 0.64386 0.82077 0.0
C1036 C 0.87652 0.64699 0.77736 0.0
C1037 C 0.83838 0.62882 0.77063 0.0
C1038 C 0.81086 0.61634 0.78938 0.0
C1039 C 0.82142 0.62357 0.81427 0.0
H1040 H 0.12996 0.803 0.20303 0.0
H1041 H 0.2458 0.84184 0.18296 0.0
H1042 H 0.14604 0.80727 0.24625 0.0
H1043 H 0.26196 0.84559 0.22686 0.0
H1044 H 0.27629 0.90356 0.30428 0.0
H1045 H 0.26602 0.88682 0.26091 0.0
H1046 H 0.1662 0.78198 0.27959 0.0
H1047 H 0.176 0.79915 0.32324 0.0
C1048 C 0.15893 0.81218 0.20783 0.0
C1049 C 0.18675 0.82264 0.18948 0.0
C1050 C 0.16803 0.81412 0.23272 0.0
C1051 C 0.20525 0.82666 0.24008 0.0
C1052 C 0.23302 0.83603 0.22176 0.0
C1053 C 0.2238 0.83383 0.19665 0.0
C1054 C 0.25237 0.87666 0.29926 0.0
C1055 C 0.22649 0.85302 0.31723 0.0
C1056 C 0.24673 0.86691 0.27432 0.0
C1057 C 0.21507 0.83329 0.26672 0.0
C1058 C 0.19057 0.80842 0.28484 0.0
C1059 C 0.19625 0.81816 0.30986 0.0
H1060 H 0.40546 0.26899 0.81277 0.0
H1061 H 0.37313 0.15244 0.8234 0.0
H1062 H 0.4146 0.26358 0.76891 0.0
H1063 H 0.38031 0.14624 0.77931 0.0
H1064 H 0.41132 0.14574 0.7008 0.0
H1065 H 0.4189 0.16012 0.74469 0.0
H1066 H 0.37756 0.23759 0.73387 0.0
H1067 H 0.37198 0.22448 0.68976 0.0
C1068 C 0.40045 0.24219 0.80568 0.0
C1069 C 0.38833 0.21103 0.82144 0.0
C1070 C 0.40541 0.23899 0.78048 0.0
C1071 C 0.3977 0.20434 0.77033 0.0
C1072 C 0.38704 0.17355 0.78638 0.0
C1073 C 0.38273 0.17698 0.8117 0.0
C1074 C 0.40448 0.16633 0.70781 0.0
C1075 C 0.39083 0.18384 0.69194 0.0
C1076 C 0.40851 0.17436 0.73302 0.0
C1077 C 0.39829 0.19958 0.74306 0.0
C1078 C 0.38619 0.21835 0.72689 0.0
C1079 C 0.38283 0.21079 0.70156 0.0
H1080 H 0.38043 0.28123 0.96943 0.0
H1081 H 0.26277 0.20136 0.95783 0.0
H1082 H 0.36338 0.31448 0.99942 0.0
H1083 H 0.24549 0.23323 0.98864 0.0
H1084 H 0.22168 0.31625 0.02883 0.0
H1085 H 0.24048 0.28671 0.99676 0.0
H1086 H 0.34071 0.31351 0.0384 0.0
H1087 H 0.32326 0.34437 0.06911 0.0
C1088 C 0.35096 0.27012 0.97386 0.0
C1089 C 0.32302 0.23849 0.96143 0.0
C1090 C 0.34101 0.28927 0.99103 0.0
C1091 C 0.30285 0.27689 0.99652 0.0
C1092 C 0.27507 0.24435 0.9846 0.0
C1093 C 0.28501 0.22563 0.96719 0.0
C1094 C 0.24804 0.3164 0.03078 0.0
C1095 C 0.27079 0.3327 0.05162 0.0
C1096 C 0.25868 0.29901 0.01257 0.0
C1097 C 0.29215 0.29728 0.01491 0.0
C1098 C 0.31513 0.31456 0.0355 0.0
C1099 C 0.30481 0.33216 0.05337 0.0
H1100 H 0.12217 0.28894 0.4726 0.0
H1101 H 0.07296 0.35796 0.45593 0.0
H1102 H 0.07301 0.25525 0.50392 0.0
H1103 H 1.0245 0.32478 0.48678 0.0
H1104 H 0.92159 0.2408 0.52737 0.0
H1105 H 0.96839 0.26345 0.49386 0.0
H1106 H 0.051 0.26478 0.54387 0.0
H1107 H 1.00442 0.24191 0.57686 0.0
C1108 C 0.10141 0.29741 0.47594 0.0
C1109 C 0.10157 0.32618 0.4618 0.0
C1110 C 0.073 0.27789 0.49367 0.0
C1111 C 0.04416 0.28667 0.49747 0.0
C1112 C 0.0454 0.31638 0.48388 0.0
C1113 C 0.07364 0.33582 0.4664 0.0
C1114 C 0.94937 0.24481 0.53087 0.0
C1115 C 0.95941 0.23974 0.55467 0.0
C1116 C 0.97639 0.25826 0.51184 0.0
C1117 C 1.01377 0.26657 0.51627 0.0
C1118 C 1.02266 0.25866 0.53968 0.0
C1119 C 0.99591 0.24562 0.55862 0.0
H1120 H 0.77853 0.97026 0.06818 0.0
H1121 H 0.67915 0.90688 0.02394 0.0
H1122 H 0.80492 0.01966 0.03683 0.0
H1123 H 0.70594 0.95532 0.99189 0.0
H1124 H 0.73337 0.06593 0.95825 0.0
H1125 H 0.71425 1.01651 0.98892 0.0
H1126 H 0.82991 0.04295 0.99632 0.0
H1127 H 0.84913 0.09367 0.96582 0.0
C1128 C 0.7631 0.96621 0.05116 0.0
C1129 C 0.72706 0.93456 0.04825 0.0
C1130 C 0.77814 0.99463 0.03322 0.0
C1131 C 0.75733 0.99207 0.01197 0.0
C1132 C 0.72243 0.95884 0.0083 0.0
C1133 C 0.70731 0.93059 0.02637 0.0
C1134 C 0.75486 0.06177 0.96686 0.0
C1135 C 0.79277 0.08388 0.95981 0.0
C1136 C 0.74382 0.03289 0.98414 0.0
C1137 C 0.77028 0.02477 0.99467 0.0
C1138 C 0.80866 0.04823 0.98857 0.0
C1139 C 0.81981 0.07758 0.9713 0.0
H1140 H 0.80248 0.68709 0.52944 0.0
H1141 H 0.81135 0.77754 0.57469 0.0
H1142 H 0.77934 0.70922 0.49518 0.0
H1143 H 0.7872 0.7987 0.54139 0.0
H1144 H 0.75759 0.84097 0.47209 0.0
H1145 H 0.79213 0.82585 0.50255 0.0
H1146 H 0.72209 0.70764 0.48582 0.0
H1147 H 0.68879 0.72297 0.45511 0.0
C1148 C 0.80048 0.71223 0.53183 0.0
C1149 C 0.80863 0.73049 0.55474 0.0
C1150 C 0.78658 0.72462 0.5124 0.0
C1151 C 0.78058 0.75547 0.51555 0.0
C1152 C 0.79147 0.77511 0.53799 0.0
C1153 C 0.80528 0.76283 0.55722 0.0
C1154 C 0.74927 0.81177 0.47528 0.0
C1155 C 0.72027 0.7832 0.46132 0.0
C1156 C 0.76923 0.80301 0.49262 0.0
C1157 C 0.76042 0.76541 0.49654 0.0
C1158 C 0.73061 0.73694 0.48296 0.0
C1159 C 0.71101 0.74571 0.46558 0.0
H1160 H 0.93324 0.74779 0.97014 0.0
H1161 H 0.97977 0.67584 0.95549 0.0
H1162 H 0.98415 0.78345 0.9999 0.0
H1163 H 0.02981 0.71075 0.9849 0.0
H1164 H 0.13548 0.79561 0.02083 0.0
H1165 H 0.08659 0.77136 0.98887 0.0
H1166 H 1.00922 0.77845 0.03984 0.0
H1167 H 0.05827 0.8033 0.07129 0.0
C1168 C 0.95377 0.73909 0.97365 0.0
C1169 C 0.95241 0.70897 0.96046 0.0
C1170 C 0.98317 0.75971 0.99049 0.0
C1171 C 1.01177 0.75062 0.99436 0.0
C1172 C 1.00918 0.71945 0.98187 0.0
C1173 C 0.98004 0.69902 0.96522 0.0
C1174 C 0.1085 0.79332 0.02477 0.0
C1175 C 0.10067 0.80151 0.04839 0.0
C1176 C 0.08022 0.77886 0.00667 0.0
C1177 C 0.0436 0.77221 0.01191 0.0
C1178 C 0.03693 0.78322 0.03504 0.0
C1179 C 0.06508 0.79749 0.05307 0.0
H1180 H 0.26254 0.99963 0.43426 0.0
H1181 H 0.25848 0.91307 0.48169 0.0
H1182 H 0.28948 0.04511 0.46737 0.0
H1183 H 0.28555 0.95928 0.51535 0.0
H1184 H 0.28013 0.0405 0.57371 0.0
H1185 H 0.26182 0.99521 0.54055 0.0
H1186 H 0.34801 0.07972 0.49387 0.0
H1187 H 0.36707 0.12581 0.52763 0.0
C1188 C 0.26728 0.99015 0.45182 0.0
C1189 C 0.25774 0.95236 0.45537 0.0
C1190 C 0.28326 1.01655 0.47075 0.0
C1191 C 0.28983 1.00597 0.49397 0.0
C1192 C 0.28071 0.96827 0.49762 0.0
C1193 C 0.26518 0.94179 0.47841 0.0
C1194 C 0.29542 0.04978 0.55643 0.0
C1195 C 0.32495 0.08718 0.55331 0.0
C1196 C 0.28507 0.02345 0.53748 0.0
C1197 C 0.30352 0.03368 0.51462 0.0
C1198 C 0.33319 0.071 0.51134 0.0
C1199 C 0.34409 0.09742 0.5306 0.0
loop_
_geom_bond_atom_site_label_1
_geom_bond_atom_site_label_2
_geom_bond_distance
_geom_bond_site_symmetry_2
_ccdc_geom_bond_type
Eu0 C9 2.828 . S
Eu0 O11 2.392 . S
Eu0 O13 2.418 . S
Eu0 O18 2.373 . S
Eu0 O21 2.488 . S
Eu0 O22 2.471 . S
Eu0 O23 2.349 . S
Eu1 O10 2.373 . S
Eu1 O14 2.488 . S
Eu1 O15 2.471 . S
Eu1 O16 2.349 . S
Eu1 O19 2.392 . S
Eu1 O20 2.418 . S
Eu1 C30 2.828 . S
C2 O20 1.244 . S
C2 O23 1.265 . S
C3 C4 1.379 . S
C3 C7 1.373 . S
C3 C9 1.505 . S
C4 C3 1.379 . S
C4 C6 1.369 . S
C4 H32 0.930 . S
C5 C7 1.383 . S
C5 C8 1.382 . S
C5 H33 0.930 . S
C6 C4 1.369 . S
C6 C8 1.392 . S
C6 H34 0.930 . S
C7 C3 1.373 . S
C7 C5 1.383 . S
C7 H35 0.931 . S
C8 C5 1.382 . S
C8 C6 1.392 . S
C9 Eu0 2.828 . S
C9 C3 1.505 . S
C9 O21 1.249 . S
C9 O22 1.244 . S
O10 Eu1 2.373 . S
O10 C12 1.258 . S
O11 Eu0 2.392 . S
O11 C12 1.242 . S
C12 O10 1.258 . S
C12 O11 1.242 . S
O13 Eu0 2.418 . S
O13 C17 1.244 . S
O14 Eu1 2.488 . S
O14 C30 1.249 . S
O15 Eu1 2.471 . S
O15 C30 1.244 . S
O16 Eu1 2.349 . S
O16 C17 1.265 . S
C17 O13 1.244 . S
C17 O16 1.265 . S
O18 Eu0 2.373 . S
O18 C31 1.258 . S
O19 Eu1 2.392 . S
O19 C31 1.242 . S
O20 Eu1 2.418 . S
O20 C2 1.244 . S
O21 Eu0 2.488 . S
O21 C9 1.249 . S
O22 Eu0 2.471 . S
O22 C9 1.244 . S
O23 Eu0 2.349 . S
O23 C2 1.265 . S
C24 C25 1.379 . S
C24 C28 1.373 . S
C24 C30 1.505 . S
C25 C24 1.379 . S
C25 C27 1.369 . S
C25 H36 0.930 . S
C26 C28 1.383 . S
C26 C29 1.382 . S
C26 H37 0.930 . S
C27 C25 1.369 . S
C27 C29 1.392 . S
C27 H38 0.930 . S
C28 C24 1.373 . S
C28 C26 1.383 . S
C28 H39 0.931 . S
C29 C26 1.382 . S
C29 C27 1.392 . S
C30 Eu1 2.828 . S
C30 O14 1.249 . S
C30 O15 1.244 . S
C30 C24 1.505 . S
C31 O18 1.258 . S
C31 O19 1.242 . S
H32 C4 0.930 . S
H33 C5 0.930 . S
H34 C6 0.930 . S
H35 C7 0.931 . S
H36 C25 0.930 . S
H37 C26 0.930 . S
H38 C27 0.930 . S
H39 C28 0.931 . S
Eu40 C49 2.828 . S
Eu40 O51 2.392 . S
Eu40 O53 2.418 . S
Eu40 O58 2.373 . S
Eu40 O61 2.488 . S
Eu40 O62 2.471 . S
Eu40 O63 2.349 . S
Eu41 O50 2.373 . S
Eu41 O54 2.488 . S
Eu41 O55 2.471 . S
Eu41 O56 2.349 . S
Eu41 O59 2.392 . S
Eu41 O60 2.418 . S
Eu41 C70 2.828 . S
C42 O60 1.244 . S
C42 O63 1.265 . S
C43 C44 1.379 . S
C43 C47 1.373 . S
C43 C49 1.505 . S
C44 C43 1.379 . S
C44 C46 1.369 . S
C44 H72 0.930 . S
C45 C47 1.383 . S
C45 C48 1.382 . S
C45 H73 0.930 . S
C46 C44 1.369 . S
C46 C48 1.392 . S
C46 H74 0.930 . S
C47 C43 1.373 . S
C47 C45 1.383 . S
C47 H75 0.931 . S
C48 C45 1.382 . S
C48 C46 1.392 . S
C49 Eu40 2.828 . S
C49 C43 1.505 . S
C49 O61 1.249 . S
C49 O62 1.244 . S
O50 Eu41 2.373 . S
O50 C52 1.258 . S
O51 Eu40 2.392 . S
O51 C52 1.242 . S
C52 O50 1.258 . S
C52 O51 1.242 . S
O53 Eu40 2.418 . S
O53 C57 1.244 . S
O54 Eu41 2.488 . S
O54 C70 1.249 . S
O55 Eu41 2.471 . S
O55 C70 1.244 . S
O56 Eu41 2.349 . S
O56 C57 1.265 . S
C57 O53 1.244 . S
C57 O56 1.265 . S
O58 Eu40 2.373 . S
O58 C71 1.258 . S
O59 Eu41 2.392 . S
O59 C71 1.242 . S
O60 Eu41 2.418 . S
O60 C42 1.244 . S
O61 Eu40 2.488 . S
O61 C49 1.249 . S
O62 Eu40 2.471 . S
O62 C49 1.244 . S
O63 Eu40 2.349 . S
O63 C42 1.265 . S
C64 C65 1.379 . S
C64 C68 1.373 . S
C64 C70 1.505 1_455 S
C65 C64 1.379 . S
C65 C67 1.369 . S
C65 H76 0.942 . S
C66 C68 1.383 . S
C66 C69 1.382 . S
C66 H77 0.930 . S
C67 C65 1.369 . S
C67 C69 1.392 . S
C67 H78 0.930 . S
C68 C64 1.373 . S
C68 C66 1.383 . S
C68 H79 0.931 . S
C69 C66 1.382 . S
C69 C67 1.392 . S
C70 Eu41 2.828 . S
C70 O54 1.249 . S
C70 O55 1.244 . S
C70 C64 1.505 1_655 S
C71 O58 1.258 . S
C71 O59 1.242 . S
H72 C44 0.930 . S
H73 C45 0.930 . S
H74 C46 0.930 . S
H75 C47 0.931 . S
H76 C65 0.942 . S
H77 C66 0.930 . S
H78 C67 0.930 . S
H79 C68 0.931 . S
Eu80 C89 2.828 . S
Eu80 O91 2.392 . S
Eu80 O93 2.418 . S
Eu80 O98 2.373 . S
Eu80 O101 2.488 . S
Eu80 O102 2.471 . S
Eu80 O103 2.349 . S
Eu81 O90 2.373 . S
Eu81 O94 2.488 . S
Eu81 O95 2.471 . S
Eu81 O96 2.349 . S
Eu81 O99 2.392 . S
Eu81 O100 2.418 . S
Eu81 C110 2.828 . S
C82 O100 1.244 . S
C82 O103 1.265 . S
C83 C84 1.379 . S
C83 C87 1.373 . S
C83 C89 1.505 . S
C84 C83 1.379 . S
C84 C86 1.369 . S
C84 H112 0.930 . S
C85 C87 1.383 . S
C85 C88 1.382 . S
C85 H113 0.930 . S
C86 C84 1.369 . S
C86 C88 1.392 . S
C86 H114 0.930 . S
C87 C83 1.373 . S
C87 C85 1.383 . S
C87 H115 0.931 . S
C88 C85 1.382 . S
C88 C86 1.392 . S
C89 Eu80 2.828 . S
C89 C83 1.505 . S
C89 O101 1.249 . S
C89 O102 1.244 . S
O90 Eu81 2.373 . S
O90 C92 1.258 . S
O91 Eu80 2.392 . S
O91 C92 1.242 . S
C92 O90 1.258 . S
C92 O91 1.242 . S
O93 Eu80 2.418 . S
O93 C97 1.244 . S
O94 Eu81 2.488 . S
O94 C110 1.249 . S
O95 Eu81 2.471 . S
O95 C110 1.244 . S
O96 Eu81 2.349 . S
O96 C97 1.265 . S
C97 O93 1.244 . S
C97 O96 1.265 . S
O98 Eu80 2.373 . S
O98 C111 1.258 . S
O99 Eu81 2.392 . S
O99 C111 1.242 . S
O100 Eu81 2.418 . S
O100 C82 1.244 . S
O101 Eu80 2.488 . S
O101 C89 1.249 . S
O102 Eu80 2.471 . S
O102 C89 1.244 . S
O103 Eu80 2.349 . S
O103 C82 1.265 . S
C104 C105 1.379 . S
C104 C108 1.373 . S
C104 C110 1.505 1_545 S
C105 C104 1.379 . S
C105 C107 1.369 . S
C105 H116 0.937 . S
C106 C108 1.383 . S
C106 C109 1.382 . S
C106 H117 0.930 . S
C107 C105 1.369 . S
C107 C109 1.392 . S
C107 H118 0.930 . S
C108 C104 1.373 . S
C108 C106 1.383 . S
C108 H119 0.931 . S
C109 C106 1.382 . S
C109 C107 1.392 . S
C110 Eu81 2.828 . S
C110 O94 1.249 . S
C110 O95 1.244 . S
C110 C104 1.505 1_565 S
C111 O98 1.258 . S
C111 O99 1.242 . S
H112 C84 0.930 . S
H113 C85 0.930 . S
H114 C86 0.930 . S
H115 C87 0.931 . S
H116 C105 0.937 . S
H117 C106 0.930 . S
H118 C107 0.930 . S
H119 C108 0.931 . S
Eu120 C129 2.828 . S
Eu120 O131 2.392 . S
Eu120 O133 2.418 . S
Eu120 O138 2.373 . S
Eu120 O141 2.488 . S
Eu120 O142 2.471 . S
Eu120 O143 2.349 . S
Eu121 O130 2.373 . S
Eu121 O134 2.488 . S
Eu121 O135 2.471 . S
Eu121 O136 2.349 . S
Eu121 O139 2.392 . S
Eu121 O140 2.418 . S
Eu121 C150 2.828 . S
C122 O140 1.244 . S
C122 O143 1.265 . S
C123 C124 1.379 . S
C123 C127 1.373 . S
C123 C129 1.505 . S
C124 C123 1.379 . S
C124 C126 1.369 . S
C124 H152 0.930 . S
C125 C127 1.383 . S
C125 C128 1.382 . S
C125 H153 0.930 . S
C126 C124 1.369 . S
C126 C128 1.392 . S
C126 H154 0.930 . S
C127 C123 1.373 . S
C127 C125 1.383 . S
C127 H155 0.931 . S
C128 C125 1.382 . S
C128 C126 1.392 . S
C129 Eu120 2.828 . S
C129 C123 1.505 . S
C129 O141 1.249 . S
C129 O142 1.244 . S
O130 Eu121 2.373 . S
O130 C132 1.258 . S
O131 Eu120 2.392 . S
O131 C132 1.242 . S
C132 O130 1.258 . S
C132 O131 1.242 . S
O133 Eu120 2.418 . S
O133 C137 1.244 . S
O134 Eu121 2.488 . S
O134 C150 1.249 . S
O135 Eu121 2.471 . S
O135 C150 1.244 . S
O136 Eu121 2.349 . S
O136 C137 1.265 . S
C137 O133 1.244 . S
C137 O136 1.265 . S
O138 Eu120 2.373 . S
O138 C151 1.258 . S
O139 Eu121 2.392 . S
O139 C151 1.242 . S
O140 Eu121 2.418 . S
O140 C122 1.244 . S
O141 Eu120 2.488 . S
O141 C129 1.249 . S
O142 Eu120 2.471 . S
O142 C129 1.244 . S
O143 Eu120 2.349 . S
O143 C122 1.265 . S
C144 C145 1.379 . S
C144 C148 1.373 . S
C144 C150 1.505 . S
C145 C144 1.379 . S
C145 C147 1.369 . S
C145 H156 0.930 . S
C146 C148 1.383 . S
C146 C149 1.382 . S
C146 H157 0.930 . S
C147 C145 1.369 . S
C147 C149 1.392 . S
C147 H158 0.930 . S
C148 C144 1.373 . S
C148 C146 1.383 . S
C148 H159 0.931 . S
C149 C146 1.382 . S
C149 C147 1.392 . S
C150 Eu121 2.828 . S
C150 O134 1.249 . S
C150 O135 1.244 . S
C150 C144 1.505 . S
C151 O138 1.258 . S
C151 O139 1.242 . S
H152 C124 0.930 . S
H153 C125 0.930 . S
H154 C126 0.930 . S
H155 C127 0.931 . S
H156 C145 0.930 . S
H157 C146 0.930 . S
H158 C147 0.930 . S
H159 C148 0.931 . S
Eu160 C169 2.828 . S
Eu160 O171 2.392 . S
Eu160 O173 2.418 . S
Eu160 O178 2.373 . S
Eu160 O181 2.488 . S
Eu160 O182 2.471 . S
Eu160 O183 2.349 . S
Eu161 O170 2.373 . S
Eu161 O174 2.488 . S
Eu161 O175 2.471 . S
Eu161 O176 2.349 . S
Eu161 O179 2.392 . S
Eu161 O180 2.418 . S
Eu161 C190 2.828 . S
C162 O180 1.244 . S
C162 O183 1.265 . S
C163 C164 1.379 . S
C163 C167 1.373 . S
C163 C169 1.505 . S
C164 C163 1.379 . S
C164 C166 1.369 . S
C164 H192 0.930 . S
C165 C167 1.383 . S
C165 C168 1.382 . S
C165 H193 0.930 . S
C166 C164 1.369 . S
C166 C168 1.392 . S
C166 H194 0.930 . S
C167 C163 1.373 . S
C167 C165 1.383 . S
C167 H195 0.931 . S
C168 C165 1.382 . S
C168 C166 1.392 . S
C169 Eu160 2.828 . S
C169 C163 1.505 . S
C169 O181 1.249 . S
C169 O182 1.244 . S
O170 Eu161 2.373 . S
O170 C172 1.258 . S
O171 Eu160 2.392 . S
O171 C172 1.242 . S
C172 O170 1.258 . S
C172 O171 1.242 . S
O173 Eu160 2.418 . S
O173 C177 1.244 . S
O174 Eu161 2.488 . S
O174 C190 1.249 . S
O175 Eu161 2.471 . S
O175 C190 1.244 . S
O176 Eu161 2.349 . S
O176 C177 1.265 . S
C177 O173 1.244 . S
C177 O176 1.265 . S
O178 Eu160 2.373 . S
O178 C191 1.258 . S
O179 Eu161 2.392 . S
O179 C191 1.242 . S
O180 Eu161 2.418 . S
O180 C162 1.244 . S
O181 Eu160 2.488 . S
O181 C169 1.249 . S
O182 Eu160 2.471 . S
O182 C169 1.244 . S
O183 Eu160 2.349 . S
O183 C162 1.265 . S
C184 C185 1.379 . S
C184 C188 1.373 . S
C184 C190 1.505 1_655 S
C185 C184 1.379 . S
C185 C187 1.369 . S
C185 H196 0.942 . S
C186 C188 1.383 . S
C186 C189 1.382 . S
C186 H197 0.930 . S
C187 C185 1.369 . S
C187 C189 1.392 . S
C187 H198 0.930 . S
C188 C184 1.373 . S
C188 C186 1.383 . S
C188 H199 0.931 . S
C189 C186 1.382 . S
C189 C187 1.392 . S
C190 Eu161 2.828 . S
C190 O174 1.249 . S
C190 O175 1.244 . S
C190 C184 1.505 1_455 S
C191 O178 1.258 . S
C191 O179 1.242 . S
H192 C164 0.930 . S
H193 C165 0.930 . S
H194 C166 0.930 . S
H195 C167 0.931 . S
H196 C185 0.942 . S
H197 C186 0.930 . S
H198 C187 0.930 . S
H199 C188 0.931 . S
Eu200 C209 2.828 . S
Eu200 O211 2.392 . S
Eu200 O213 2.418 . S
Eu200 O218 2.373 . S
Eu200 O221 2.488 . S
Eu200 O222 2.471 . S
Eu200 O223 2.349 . S
Eu201 O210 2.373 . S
Eu201 O214 2.488 . S
Eu201 O215 2.471 . S
Eu201 O216 2.349 . S
Eu201 O219 2.392 . S
Eu201 O220 2.418 . S
Eu201 C230 2.828 . S
C202 O220 1.244 . S
C202 O223 1.265 . S
C203 C204 1.379 . S
C203 C207 1.373 . S
C203 C209 1.505 . S
C204 C203 1.379 . S
C204 C206 1.369 . S
C204 H232 0.930 . S
C205 C207 1.383 . S
C205 C208 1.382 . S
C205 H233 0.930 . S
C206 C204 1.369 . S
C206 C208 1.392 . S
C206 H234 0.930 . S
C207 C203 1.373 . S
C207 C205 1.383 . S
C207 H235 0.931 . S
C208 C205 1.382 . S
C208 C206 1.392 . S
C209 Eu200 2.828 . S
C209 C203 1.505 . S
C209 O221 1.249 . S
C209 O222 1.244 . S
O210 Eu201 2.373 . S
O210 C212 1.258 . S
O211 Eu200 2.392 . S
O211 C212 1.242 . S
C212 O210 1.258 . S
C212 O211 1.242 . S
O213 Eu200 2.418 . S
O213 C217 1.244 . S
O214 Eu201 2.488 . S
O214 C230 1.249 . S
O215 Eu201 2.471 . S
O215 C230 1.244 . S
O216 Eu201 2.349 . S
O216 C217 1.265 . S
C217 O213 1.244 . S
C217 O216 1.265 . S
O218 Eu200 2.373 . S
O218 C231 1.258 . S
O219 Eu201 2.392 . S
O219 C231 1.242 . S
O220 Eu201 2.418 . S
O220 C202 1.244 . S
O221 Eu200 2.488 . S
O221 C209 1.249 . S
O222 Eu200 2.471 . S
O222 C209 1.244 . S
O223 Eu200 2.349 . S
O223 C202 1.265 . S
C224 C225 1.379 . S
C224 C228 1.373 . S
C224 C230 1.505 1_565 S
C225 C224 1.379 . S
C225 C227 1.369 . S
C225 H236 0.937 . S
C226 C228 1.383 . S
C226 C229 1.382 . S
C226 H237 0.930 . S
C227 C225 1.369 . S
C227 C229 1.392 . S
C227 H238 0.930 . S
C228 C224 1.373 . S
C228 C226 1.383 . S
C228 H239 0.931 . S
C229 C226 1.382 . S
C229 C227 1.392 . S
C230 Eu201 2.828 . S
C230 O214 1.249 . S
C230 O215 1.244 . S
C230 C224 1.505 1_545 S
C231 O218 1.258 . S
C231 O219 1.242 . S
H232 C204 0.930 . S
H233 C205 0.930 . S
H234 C206 0.930 . S
H235 C207 0.931 . S
H236 C225 0.937 . S
H237 C226 0.930 . S
H238 C227 0.930 . S
H239 C228 0.931 . S
Eu240 C249 2.828 . S
Eu240 O251 2.392 . S
Eu240 O253 2.418 . S
Eu240 O258 2.373 . S
Eu240 O261 2.488 . S
Eu240 O262 2.471 . S
Eu240 O263 2.349 . S
Eu241 O250 2.373 . S
Eu241 O254 2.488 . S
Eu241 O255 2.471 . S
Eu241 O256 2.349 . S
Eu241 O259 2.392 . S
Eu241 O260 2.418 . S
Eu241 C270 2.828 . S
C242 O260 1.244 . S
C242 O263 1.265 . S
C243 C244 1.379 . S
C243 C247 1.373 . S
C243 C249 1.505 . S
C244 C243 1.379 . S
C244 C246 1.369 . S
C244 H272 0.930 . S
C245 C247 1.383 . S
C245 C248 1.382 . S
C245 H273 0.930 . S
C246 C244 1.369 . S
C246 C248 1.392 . S
C246 H274 0.930 . S
C247 C243 1.373 . S
C247 C245 1.383 . S
C247 H275 0.931 . S
C248 C245 1.382 . S
C248 C246 1.392 . S
C249 Eu240 2.828 . S
C249 C243 1.505 . S
C249 O261 1.249 . S
C249 O262 1.244 . S
O250 Eu241 2.373 . S
O250 C252 1.258 . S
O251 Eu240 2.392 . S
O251 C252 1.242 . S
C252 O250 1.258 . S
C252 O251 1.242 . S
O253 Eu240 2.418 . S
O253 C257 1.244 . S
O254 Eu241 2.488 . S
O254 C270 1.249 . S
O255 Eu241 2.471 . S
O255 C270 1.244 . S
O256 Eu241 2.349 . S
O256 C257 1.265 . S
C257 O253 1.244 . S
C257 O256 1.265 . S
O258 Eu240 2.373 . S
O258 C271 1.258 . S
O259 Eu241 2.392 . S
O259 C271 1.242 . S
O260 Eu241 2.418 . S
O260 C242 1.244 . S
O261 Eu240 2.488 . S
O261 C249 1.249 . S
O262 Eu240 2.471 . S
O262 C249 1.244 . S
O263 Eu240 2.349 . S
O263 C242 1.265 . S
C264 C265 1.379 . S
C264 C268 1.373 . S
C264 C270 1.505 . S
C265 C264 1.379 . S
C265 C267 1.369 . S
C265 H276 0.930 . S
C266 C268 1.383 . S
C266 C269 1.382 . S
C266 H277 0.930 . S
C267 C265 1.369 . S
C267 C269 1.392 . S
C267 H278 0.930 . S
C268 C264 1.373 . S
C268 C266 1.383 . S
C268 H279 0.931 . S
C269 C266 1.382 . S
C269 C267 1.392 . S
C270 Eu241 2.828 . S
C270 O254 1.249 . S
C270 O255 1.244 . S
C270 C264 1.505 . S
C271 O258 1.258 . S
C271 O259 1.242 . S
H272 C244 0.930 . S
H273 C245 0.930 . S
H274 C246 0.930 . S
H275 C247 0.931 . S
H276 C265 0.930 . S
H277 C266 0.930 . S
H278 C267 0.930 . S
H279 C268 0.931 . S
Eu280 C289 2.828 . S
Eu280 O291 2.392 . S
Eu280 O293 2.418 . S
Eu280 O298 2.373 . S
Eu280 O301 2.488 . S
Eu280 O302 2.471 . S
Eu280 O303 2.349 . S
Eu281 O290 2.373 . S
Eu281 O294 2.488 . S
Eu281 O295 2.471 . S
Eu281 O296 2.349 . S
Eu281 O299 2.392 . S
Eu281 O300 2.418 . S
Eu281 C310 2.828 . S
C282 O300 1.244 . S
C282 O303 1.265 . S
C283 C284 1.379 . S
C283 C287 1.373 . S
C283 C289 1.505 . S
C284 C283 1.379 . S
C284 C286 1.369 . S
C284 H312 0.930 . S
C285 C287 1.383 . S
C285 C288 1.382 . S
C285 H313 0.930 . S
C286 C284 1.369 . S
C286 C288 1.392 . S
C286 H314 0.930 . S
C287 C283 1.373 . S
C287 C285 1.383 . S
C287 H315 0.931 . S
C288 C285 1.382 . S
C288 C286 1.392 . S
C289 Eu280 2.828 . S
C289 C283 1.505 . S
C289 O301 1.249 . S
C289 O302 1.244 . S
O290 Eu281 2.373 . S
O290 C292 1.258 . S
O291 Eu280 2.392 . S
O291 C292 1.242 . S
C292 O290 1.258 . S
C292 O291 1.242 . S
O293 Eu280 2.418 . S
O293 C297 1.244 . S
O294 Eu281 2.488 . S
O294 C310 1.249 . S
O295 Eu281 2.471 . S
O295 C310 1.244 . S
O296 Eu281 2.349 . S
O296 C297 1.265 . S
C297 O293 1.244 . S
C297 O296 1.265 . S
O298 Eu280 2.373 . S
O298 C311 1.258 . S
O299 Eu281 2.392 . S
O299 C311 1.242 . S
O300 Eu281 2.418 . S
O300 C282 1.244 . S
O301 Eu280 2.488 . S
O301 C289 1.249 . S
O302 Eu280 2.471 . S
O302 C289 1.244 . S
O303 Eu280 2.349 . S
O303 C282 1.265 . S
C304 C305 1.379 . S
C304 C308 1.373 . S
C304 C310 1.505 1_455 S
C305 C304 1.379 . S
C305 C307 1.369 . S
C305 H316 0.937 . S
C306 C308 1.383 . S
C306 C309 1.382 . S
C306 H317 0.930 . S
C307 C305 1.369 . S
C307 C309 1.392 . S
C307 H318 0.930 . S
C308 C304 1.373 . S
C308 C306 1.383 . S
C308 H319 0.931 . S
C309 C306 1.382 . S
C309 C307 1.392 . S
C310 Eu281 2.828 . S
C310 O294 1.249 . S
C310 O295 1.244 . S
C310 C304 1.505 1_655 S
C311 O298 1.258 . S
C311 O299 1.242 . S
H312 C284 0.930 . S
H313 C285 0.930 . S
H314 C286 0.930 . S
H315 C287 0.931 . S
H316 C305 0.937 . S
H317 C306 0.930 . S
H318 C307 0.930 . S
H319 C308 0.931 . S
Eu320 C329 2.828 . S
Eu320 O331 2.392 . S
Eu320 O333 2.418 . S
Eu320 O338 2.373 . S
Eu320 O341 2.488 . S
Eu320 O342 2.471 . S
Eu320 O343 2.349 . S
Eu321 O330 2.373 . S
Eu321 O334 2.488 . S
Eu321 O335 2.471 . S
Eu321 O336 2.349 . S
Eu321 O339 2.392 . S
Eu321 O340 2.418 . S
Eu321 C350 2.828 . S
C322 O340 1.244 . S
C322 O343 1.265 . S
C323 C324 1.379 . S
C323 C327 1.373 . S
C323 C329 1.505 . S
C324 C323 1.379 . S
C324 C326 1.369 . S
C324 H352 0.930 . S
C325 C327 1.383 . S
C325 C328 1.382 . S
C325 H353 0.930 . S
C326 C324 1.369 . S
C326 C328 1.392 . S
C326 H354 0.930 . S
C327 C323 1.373 . S
C327 C325 1.383 . S
C327 H355 0.931 . S
C328 C325 1.382 . S
C328 C326 1.392 . S
C329 Eu320 2.828 . S
C329 C323 1.505 . S
C329 O341 1.249 . S
C329 O342 1.244 . S
O330 Eu321 2.373 . S
O330 C332 1.258 . S
O331 Eu320 2.392 . S
O331 C332 1.242 . S
C332 O330 1.258 . S
C332 O331 1.242 . S
O333 Eu320 2.418 . S
O333 C337 1.244 . S
O334 Eu321 2.488 . S
O334 C350 1.249 . S
O335 Eu321 2.471 . S
O335 C350 1.244 . S
O336 Eu321 2.349 . S
O336 C337 1.265 . S
C337 O333 1.244 . S
C337 O336 1.265 . S
O338 Eu320 2.373 . S
O338 C351 1.258 . S
O339 Eu321 2.392 . S
O339 C351 1.242 . S
O340 Eu321 2.418 . S
O340 C322 1.244 . S
O341 Eu320 2.488 . S
O341 C329 1.249 . S
O342 Eu320 2.471 . S
O342 C329 1.244 . S
O343 Eu320 2.349 . S
O343 C322 1.265 . S
C344 C345 1.379 . S
C344 C348 1.373 . S
C344 C350 1.505 1_545 S
C345 C344 1.379 . S
C345 C347 1.369 . S
C345 H356 0.942 . S
C346 C348 1.383 . S
C346 C349 1.382 . S
C346 H357 0.930 . S
C347 C345 1.369 . S
C347 C349 1.392 . S
C347 H358 0.930 . S
C348 C344 1.373 . S
C348 C346 1.383 . S
C348 H359 0.931 . S
C349 C346 1.382 . S
C349 C347 1.392 . S
C350 Eu321 2.828 . S
C350 O334 1.249 . S
C350 O335 1.244 . S
C350 C344 1.505 1_565 S
C351 O338 1.258 . S
C351 O339 1.242 . S
H352 C324 0.930 . S
H353 C325 0.930 . S
H354 C326 0.930 . S
H355 C327 0.931 . S
H356 C345 0.942 . S
H357 C346 0.930 . S
H358 C347 0.930 . S
H359 C348 0.931 . S
Eu360 C369 2.828 . S
Eu360 O371 2.392 . S
Eu360 O373 2.418 . S
Eu360 O378 2.373 . S
Eu360 O381 2.488 . S
Eu360 O382 2.471 . S
Eu360 O383 2.349 . S
Eu361 O370 2.373 . S
Eu361 O374 2.488 . S
Eu361 O375 2.471 . S
Eu361 O376 2.349 . S
Eu361 O379 2.392 . S
Eu361 O380 2.418 . S
Eu361 C390 2.828 . S
C362 O380 1.244 . S
C362 O383 1.265 . S
C363 C364 1.379 . S
C363 C367 1.373 . S
C363 C369 1.505 . S
C364 C363 1.379 . S
C364 C366 1.369 . S
C364 H392 0.930 . S
C365 C367 1.383 . S
C365 C368 1.382 . S
C365 H393 0.930 . S
C366 C364 1.369 . S
C366 C368 1.392 . S
C366 H394 0.930 . S
C367 C363 1.373 . S
C367 C365 1.383 . S
C367 H395 0.931 . S
C368 C365 1.382 . S
C368 C366 1.392 . S
C369 Eu360 2.828 . S
C369 C363 1.505 . S
C369 O381 1.249 . S
C369 O382 1.244 . S
O370 Eu361 2.373 . S
O370 C372 1.258 . S
O371 Eu360 2.392 . S
O371 C372 1.242 . S
C372 O370 1.258 . S
C372 O371 1.242 . S
O373 Eu360 2.418 . S
O373 C377 1.244 . S
O374 Eu361 2.488 . S
O374 C390 1.249 . S
O375 Eu361 2.471 . S
O375 C390 1.244 . S
O376 Eu361 2.349 . S
O376 C377 1.265 . S
C377 O373 1.244 . S
C377 O376 1.265 . S
O378 Eu360 2.373 . S
O378 C391 1.258 . S
O379 Eu361 2.392 . S
O379 C391 1.242 . S
O380 Eu361 2.418 . S
O380 C362 1.244 . S
O381 Eu360 2.488 . S
O381 C369 1.249 . S
O382 Eu360 2.471 . S
O382 C369 1.244 . S
O383 Eu360 2.349 . S
O383 C362 1.265 . S
C384 C385 1.379 . S
C384 C388 1.373 . S
C384 C390 1.505 . S
C385 C384 1.379 . S
C385 C387 1.369 . S
C385 H396 0.930 . S
C386 C388 1.383 . S
C386 C389 1.382 . S
C386 H397 0.930 . S
C387 C385 1.369 . S
C387 C389 1.392 . S
C387 H398 0.930 . S
C388 C384 1.373 . S
C388 C386 1.383 . S
C388 H399 0.931 . S
C389 C386 1.382 . S
C389 C387 1.392 . S
C390 Eu361 2.828 . S
C390 O374 1.249 . S
C390 O375 1.244 . S
C390 C384 1.505 . S
C391 O378 1.258 . S
C391 O379 1.242 . S
H392 C364 0.930 . S
H393 C365 0.930 . S
H394 C366 0.930 . S
H395 C367 0.931 . S
H396 C385 0.930 . S
H397 C386 0.930 . S
H398 C387 0.930 . S
H399 C388 0.931 . S
Eu400 C409 2.828 . S
Eu400 O411 2.392 . S
Eu400 O413 2.418 . S
Eu400 O418 2.373 . S
Eu400 O421 2.488 . S
Eu400 O422 2.471 . S
Eu400 O423 2.349 . S
Eu401 O410 2.373 . S
Eu401 O414 2.488 . S
Eu401 O415 2.471 . S
Eu401 O416 2.349 . S
Eu401 O419 2.392 . S
Eu401 O420 2.418 . S
Eu401 C430 2.828 . S
C402 O420 1.244 . S
C402 O423 1.265 . S
C403 C404 1.379 . S
C403 C407 1.373 . S
C403 C409 1.505 . S
C404 C403 1.379 . S
C404 C406 1.369 . S
C404 H432 0.930 . S
C405 C407 1.383 . S
C405 C408 1.382 . S
C405 H433 0.930 . S
C406 C404 1.369 . S
C406 C408 1.392 . S
C406 H434 0.930 . S
C407 C403 1.373 . S
C407 C405 1.383 . S
C407 H435 0.931 . S
C408 C405 1.382 . S
C408 C406 1.392 . S
C409 Eu400 2.828 . S
C409 C403 1.505 . S
C409 O421 1.249 . S
C409 O422 1.244 . S
O410 Eu401 2.373 . S
O410 C412 1.258 . S
O411 Eu400 2.392 . S
O411 C412 1.242 . S
C412 O410 1.258 . S
C412 O411 1.242 . S
O413 Eu400 2.418 . S
O413 C417 1.244 . S
O414 Eu401 2.488 . S
O414 C430 1.249 . S
O415 Eu401 2.471 . S
O415 C430 1.244 . S
O416 Eu401 2.349 . S
O416 C417 1.265 . S
C417 O413 1.244 . S
C417 O416 1.265 . S
O418 Eu400 2.373 . S
O418 C431 1.258 . S
O419 Eu401 2.392 . S
O419 C431 1.242 . S
O420 Eu401 2.418 . S
O420 C402 1.244 . S
O421 Eu400 2.488 . S
O421 C409 1.249 . S
O422 Eu400 2.471 . S
O422 C409 1.244 . S
O423 Eu400 2.349 . S
O423 C402 1.265 . S
C424 C425 1.379 . S
C424 C428 1.373 . S
C424 C430 1.505 1_655 S
C425 C424 1.379 . S
C425 C427 1.369 . S
C425 H436 0.937 . S
C426 C428 1.383 . S
C426 C429 1.382 . S
C426 H437 0.930 . S
C427 C425 1.369 . S
C427 C429 1.392 . S
C427 H438 0.930 . S
C428 C424 1.373 . S
C428 C426 1.383 . S
C428 H439 0.931 . S
C429 C426 1.382 . S
C429 C427 1.392 . S
C430 Eu401 2.828 . S
C430 O414 1.249 . S
C430 O415 1.244 . S
C430 C424 1.505 1_455 S
C431 O418 1.258 . S
C431 O419 1.242 . S
H432 C404 0.930 . S
H433 C405 0.930 . S
H434 C406 0.930 . S
H435 C407 0.931 . S
H436 C425 0.937 . S
H437 C426 0.930 . S
H438 C427 0.930 . S
H439 C428 0.931 . S
Eu440 C449 2.828 . S
Eu440 O451 2.392 . S
Eu440 O453 2.418 . S
Eu440 O458 2.373 . S
Eu440 O461 2.488 . S
Eu440 O462 2.471 . S
Eu440 O463 2.349 . S
Eu441 O450 2.373 . S
Eu441 O454 2.488 . S
Eu441 O455 2.471 . S
Eu441 O456 2.349 . S
Eu441 O459 2.392 . S
Eu441 O460 2.418 . S
Eu441 C470 2.828 . S
C442 O460 1.244 . S
C442 O463 1.265 . S
C443 C444 1.379 . S
C443 C447 1.373 . S
C443 C449 1.505 . S
C444 C443 1.379 . S
C444 C446 1.369 . S
C444 H472 0.930 . S
C445 C447 1.383 . S
C445 C448 1.382 . S
C445 H473 0.930 . S
C446 C444 1.369 . S
C446 C448 1.392 . S
C446 H474 0.930 . S
C447 C443 1.373 . S
C447 C445 1.383 . S
C447 H475 0.931 . S
C448 C445 1.382 . S
C448 C446 1.392 . S
C449 Eu440 2.828 . S
C449 C443 1.505 . S
C449 O461 1.249 . S
C449 O462 1.244 . S
O450 Eu441 2.373 . S
O450 C452 1.258 . S
O451 Eu440 2.392 . S
O451 C452 1.242 . S
C452 O450 1.258 . S
C452 O451 1.242 . S
O453 Eu440 2.418 . S
O453 C457 1.244 . S
O454 Eu441 2.488 . S
O454 C470 1.249 . S
O455 Eu441 2.471 . S
O455 C470 1.244 . S
O456 Eu441 2.349 . S
O456 C457 1.265 . S
C457 O453 1.244 . S
C457 O456 1.265 . S
O458 Eu440 2.373 . S
O458 C471 1.258 . S
O459 Eu441 2.392 . S
O459 C471 1.242 . S
O460 Eu441 2.418 . S
O460 C442 1.244 . S
O461 Eu440 2.488 . S
O461 C449 1.249 . S
O462 Eu440 2.471 . S
O462 C449 1.244 . S
O463 Eu440 2.349 . S
O463 C442 1.265 . S
C464 C465 1.379 . S
C464 C468 1.373 . S
C464 C470 1.505 1_565 S
C465 C464 1.379 . S
C465 C467 1.369 . S
C465 H476 0.942 . S
C466 C468 1.383 . S
C466 C469 1.382 . S
C466 H477 0.930 . S
C467 C465 1.369 . S
C467 C469 1.392 . S
C467 H478 0.930 . S
C468 C464 1.373 . S
C468 C466 1.383 . S
C468 H479 0.931 . S
C469 C466 1.382 . S
C469 C467 1.392 . S
C470 Eu441 2.828 . S
C470 O454 1.249 . S
C470 O455 1.244 . S
C470 C464 1.505 1_545 S
C471 O458 1.258 . S
C471 O459 1.242 . S
H472 C444 0.930 . S
H473 C445 0.930 . S
H474 C446 0.930 . S
H475 C447 0.931 . S
H476 C465 0.942 . S
H477 C466 0.930 . S
H478 C467 0.930 . S
H479 C468 0.931 . S
H480 C488 0.950 . S
H481 C493 0.950 . S
H482 C490 0.950 . S
H483 C492 0.950 . S
H484 C494 0.950 . S
H485 C496 0.950 . S
H486 C498 0.950 . S
H487 C499 0.950 . S
C488 H480 0.950 . S
C488 C489 1.386 . S
C488 C490 1.391 . S
C489 C488 1.386 . S
C489 C493 1.393 . S
C490 H482 0.950 . S
C490 C488 1.391 . S
C490 C491 1.400 . S
C491 C490 1.400 . S
C491 C492 1.398 . S
C491 C497 1.491 1_565 S
C492 H483 0.950 . S
C492 C491 1.398 . S
C492 C493 1.391 . S
C493 H481 0.950 . S
C493 C489 1.393 . S
C493 C492 1.391 . S
C494 H484 0.950 . S
C494 C495 1.386 . S
C494 C496 1.391 . S
C495 C494 1.386 . S
C495 C499 1.393 . S
C496 H485 0.950 . S
C496 C494 1.391 . S
C496 C497 1.400 . S
C497 C491 1.491 1_545 S
C497 C496 1.400 . S
C497 C498 1.398 . S
C498 H486 0.950 . S
C498 C497 1.398 . S
C498 C499 1.391 . S
C499 H487 0.950 . S
C499 C495 1.393 . S
C499 C498 1.391 . S
H500 C508 0.950 . S
H501 C513 0.950 . S
H502 C510 0.950 . S
H503 C512 0.950 . S
H504 C514 0.950 . S
H505 C516 0.950 . S
H506 C518 0.950 . S
H507 C519 0.950 . S
C508 H500 0.950 . S
C508 C509 1.386 . S
C508 C510 1.391 . S
C509 C508 1.386 . S
C509 C513 1.393 . S
C510 H502 0.950 . S
C510 C508 1.391 . S
C510 C511 1.400 . S
C511 C510 1.400 . S
C511 C512 1.398 . S
C511 C517 1.491 . S
C512 H503 0.950 . S
C512 C511 1.398 . S
C512 C513 1.391 . S
C513 H501 0.950 . S
C513 C509 1.393 . S
C513 C512 1.391 . S
C514 H504 0.950 . S
C514 C515 1.386 . S
C514 C516 1.391 . S
C515 C514 1.386 . S
C515 C519 1.393 . S
C516 H505 0.950 . S
C516 C514 1.391 . S
C516 C517 1.400 . S
C517 C511 1.491 . S
C517 C516 1.400 . S
C517 C518 1.398 . S
C518 H506 0.950 . S
C518 C517 1.398 . S
C518 C519 1.391 . S
C519 H507 0.950 . S
C519 C515 1.393 . S
C519 C518 1.391 . S
H520 C528 0.950 . S
H521 C533 0.950 . S
H522 C530 0.950 . S
H523 C532 0.950 . S
H524 C534 0.950 . S
H525 C536 0.950 . S
H526 C538 0.950 . S
H527 C539 0.950 . S
C528 H520 0.950 . S
C528 C529 1.386 . S
C528 C530 1.391 . S
C529 C528 1.386 . S
C529 C533 1.393 . S
C530 H522 0.950 . S
C530 C528 1.391 . S
C530 C531 1.400 . S
C531 C530 1.400 . S
C531 C532 1.398 . S
C531 C537 1.491 1_655 S
C532 H523 0.950 . S
C532 C531 1.398 . S
C532 C533 1.391 . S
C533 H521 0.950 . S
C533 C529 1.393 . S
C533 C532 1.391 . S
C534 H524 0.950 . S
C534 C535 1.386 . S
C534 C536 1.391 . S
C535 C534 1.386 . S
C535 C539 1.393 . S
C536 H525 0.950 . S
C536 C534 1.391 . S
C536 C537 1.400 . S
C537 C531 1.491 1_455 S
C537 C536 1.400 . S
C537 C538 1.398 . S
C538 H526 0.950 . S
C538 C537 1.398 . S
C538 C539 1.391 . S
C539 H527 0.950 . S
C539 C535 1.393 . S
C539 C538 1.391 . S
H540 C548 0.950 . S
H541 C553 0.950 . S
H542 C550 0.950 . S
H543 C552 0.950 . S
H544 C554 0.950 . S
H545 C556 0.950 . S
H546 C558 0.950 . S
H547 C559 0.950 . S
C548 H540 0.950 . S
C548 C549 1.386 . S
C548 C550 1.391 . S
C549 C548 1.386 . S
C549 C553 1.393 . S
C550 H542 0.950 . S
C550 C548 1.391 . S
C550 C551 1.400 . S
C551 C550 1.400 . S
C551 C552 1.398 . S
C551 C557 1.491 1_565 S
C552 H543 0.950 . S
C552 C551 1.398 . S
C552 C553 1.391 . S
C553 H541 0.950 . S
C553 C549 1.393 . S
C553 C552 1.391 . S
C554 H544 0.950 . S
C554 C555 1.386 . S
C554 C556 1.391 . S
C555 C554 1.386 . S
C555 C559 1.393 . S
C556 H545 0.950 . S
C556 C554 1.391 . S
C556 C557 1.400 . S
C557 C551 1.491 1_545 S
C557 C556 1.400 . S
C557 C558 1.398 . S
C558 H546 0.950 . S
C558 C557 1.398 . S
C558 C559 1.391 . S
C559 H547 0.950 . S
C559 C555 1.393 . S
C559 C558 1.391 . S
H560 C568 0.950 . S
H561 C573 0.950 . S
H562 C570 0.950 . S
H563 C572 0.950 . S
H564 C574 0.950 . S
H565 C576 0.950 . S
H566 C578 0.950 . S
H567 C579 0.950 . S
C568 H560 0.950 . S
C568 C569 1.386 . S
C568 C570 1.391 . S
C569 C568 1.386 . S
C569 C573 1.393 . S
C570 H562 0.950 . S
C570 C568 1.391 . S
C570 C571 1.400 . S
C571 C570 1.400 . S
C571 C572 1.398 . S
C571 C577 1.491 . S
C572 H563 0.950 . S
C572 C571 1.398 . S
C572 C573 1.391 . S
C573 H561 0.950 . S
C573 C569 1.393 . S
C573 C572 1.391 . S
C574 H564 0.950 . S
C574 C575 1.386 . S
C574 C576 1.391 . S
C575 C574 1.386 . S
C575 C579 1.393 . S
C576 H565 0.950 . S
C576 C574 1.391 . S
C576 C577 1.400 . S
C577 C571 1.491 . S
C577 C576 1.400 . S
C577 C578 1.398 . S
C578 H566 0.950 . S
C578 C577 1.398 . S
C578 C579 1.391 . S
C579 H567 0.950 . S
C579 C575 1.393 . S
C579 C578 1.391 . S
H580 C588 0.950 . S
H581 C593 0.950 . S
H582 C590 0.950 . S
H583 C592 0.950 . S
H584 C594 0.950 . S
H585 C596 0.950 . S
H586 C598 0.950 . S
H587 C599 0.950 . S
C588 H580 0.950 . S
C588 C589 1.386 . S
C588 C590 1.391 . S
C589 C588 1.386 . S
C589 C593 1.393 . S
C590 H582 0.950 . S
C590 C588 1.391 . S
C590 C591 1.400 . S
C591 C590 1.400 . S
C591 C592 1.398 . S
C591 C597 1.491 1_655 S
C592 H583 0.950 . S
C592 C591 1.398 . S
C592 C593 1.391 . S
C593 H581 0.950 . S
C593 C589 1.393 . S
C593 C592 1.391 . S
C594 H584 0.950 . S
C594 C595 1.386 . S
C594 C596 1.391 . S
C595 C594 1.386 . S
C595 C599 1.393 . S
C596 H585 0.950 . S
C596 C594 1.391 . S
C596 C597 1.400 . S
C597 C591 1.491 1_455 S
C597 C596 1.400 . S
C597 C598 1.398 . S
C598 H586 0.950 . S
C598 C597 1.398 . S
C598 C599 1.391 . S
C599 H587 0.950 . S
C599 C595 1.393 . S
C599 C598 1.391 . S
H600 C608 0.950 . S
H601 C613 0.950 . S
H602 C610 0.950 . S
H603 C612 0.950 . S
H604 C614 0.950 . S
H605 C616 0.950 . S
H606 C618 0.950 . S
H607 C619 0.950 . S
C608 H600 0.950 . S
C608 C609 1.386 . S
C608 C610 1.391 . S
C609 C608 1.386 . S
C609 C613 1.393 . S
C610 H602 0.950 . S
C610 C608 1.391 . S
C610 C611 1.400 . S
C611 C610 1.400 . S
C611 C612 1.398 . S
C611 C617 1.491 1_455 S
C612 H603 0.950 . S
C612 C611 1.398 . S
C612 C613 1.391 . S
C613 H601 0.950 . S
C613 C609 1.393 . S
C613 C612 1.391 . S
C614 H604 0.950 . S
C614 C615 1.386 . S
C614 C616 1.391 . S
C615 C614 1.386 . S
C615 C619 1.393 . S
C616 H605 0.950 . S
C616 C614 1.391 . S
C616 C617 1.400 . S
C617 C611 1.491 1_655 S
C617 C616 1.400 . S
C617 C618 1.398 . S
C618 H606 0.950 . S
C618 C617 1.398 . S
C618 C619 1.391 . S
C619 H607 0.950 . S
C619 C615 1.393 . S
C619 C618 1.391 . S
H620 C628 0.950 . S
H621 C633 0.950 . S
H622 C630 0.950 . S
H623 C632 0.950 . S
H624 C634 0.950 . S
H625 C636 0.950 . S
H626 C638 0.950 . S
H627 C639 0.950 . S
C628 H620 0.950 . S
C628 C629 1.386 . S
C628 C630 1.391 . S
C629 C628 1.386 . S
C629 C633 1.393 . S
C630 H622 0.950 . S
C630 C628 1.391 . S
C630 C631 1.400 . S
C631 C630 1.400 . S
C631 C632 1.398 . S
C631 C637 1.491 1_565 S
C632 H623 0.950 . S
C632 C631 1.398 . S
C632 C633 1.391 . S
C633 H621 0.950 . S
C633 C629 1.393 . S
C633 C632 1.391 . S
C634 H624 0.950 . S
C634 C635 1.386 . S
C634 C636 1.391 . S
C635 C634 1.386 . S
C635 C639 1.393 . S
C636 H625 0.950 . S
C636 C634 1.391 . S
C636 C637 1.400 . S
C637 C631 1.491 1_545 S
C637 C636 1.400 . S
C637 C638 1.398 . S
C638 H626 0.950 . S
C638 C637 1.398 . S
C638 C639 1.391 . S
C639 H627 0.950 . S
C639 C635 1.393 . S
C639 C638 1.391 . S
H640 C648 0.950 . S
H641 C653 0.950 . S
H642 C650 0.950 . S
H643 C652 0.950 . S
H644 C654 0.950 . S
H645 C656 0.950 . S
H646 C658 0.950 . S
H647 C659 0.950 . S
C648 H640 0.950 . S
C648 C649 1.386 . S
C648 C650 1.391 . S
C649 C648 1.386 . S
C649 C653 1.393 . S
C650 H642 0.950 . S
C650 C648 1.391 . S
C650 C651 1.400 . S
C651 C650 1.400 . S
C651 C652 1.398 . S
C651 C657 1.491 . S
C652 H643 0.950 . S
C652 C651 1.398 . S
C652 C653 1.391 . S
C653 H641 0.950 . S
C653 C649 1.393 . S
C653 C652 1.391 . S
C654 H644 0.950 . S
C654 C655 1.386 . S
C654 C656 1.391 . S
C655 C654 1.386 . S
C655 C659 1.393 . S
C656 H645 0.950 . S
C656 C654 1.391 . S
C656 C657 1.400 . S
C657 C651 1.491 . S
C657 C656 1.400 . S
C657 C658 1.398 . S
C658 H646 0.950 . S
C658 C657 1.398 . S
C658 C659 1.391 . S
C659 H647 0.950 . S
C659 C655 1.393 . S
C659 C658 1.391 . S
H660 C668 0.950 . S
H661 C673 0.950 . S
H662 C670 0.950 . S
H663 C672 0.950 . S
H664 C674 0.950 . S
H665 C676 0.950 . S
H666 C678 0.950 . S
H667 C679 0.950 . S
C668 H660 0.950 . S
C668 C669 1.386 . S
C668 C670 1.391 . S
C669 C668 1.386 . S
C669 C673 1.393 . S
C670 H662 0.950 . S
C670 C668 1.391 . S
C670 C671 1.400 . S
C671 C670 1.400 . S
C671 C672 1.398 . S
C671 C677 1.491 1_455 S
C672 H663 0.950 . S
C672 C671 1.398 . S
C672 C673 1.391 . S
C673 H661 0.950 . S
C673 C669 1.393 . S
C673 C672 1.391 . S
C674 H664 0.950 . S
C674 C675 1.386 . S
C674 C676 1.391 . S
C675 C674 1.386 . S
C675 C679 1.393 . S
C676 H665 0.950 . S
C676 C674 1.391 . S
C676 C677 1.400 . S
C677 C671 1.491 1_655 S
C677 C676 1.400 . S
C677 C678 1.398 . S
C678 H666 0.950 . S
C678 C677 1.398 . S
C678 C679 1.391 . S
C679 H667 0.950 . S
C679 C675 1.393 . S
C679 C678 1.391 . S
H680 C688 0.950 . S
H681 C693 0.950 . S
H682 C690 0.950 . S
H683 C692 0.950 . S
H684 C694 0.950 . S
H685 C696 0.950 . S
H686 C698 0.950 . S
H687 C699 0.950 . S
C688 H680 0.950 . S
C688 C689 1.386 . S
C688 C690 1.391 . S
C689 C688 1.386 . S
C689 C693 1.393 . S
C690 H682 0.950 . S
C690 C688 1.391 . S
C690 C691 1.400 . S
C691 C690 1.400 . S
C691 C692 1.398 . S
C691 C697 1.491 1_545 S
C692 H683 0.950 . S
C692 C691 1.398 . S
C692 C693 1.391 . S
C693 H681 0.950 . S
C693 C689 1.393 . S
C693 C692 1.391 . S
C694 H684 0.950 . S
C694 C695 1.386 . S
C694 C696 1.391 . S
C695 C694 1.386 . S
C695 C699 1.393 . S
C696 H685 0.950 . S
C696 C694 1.391 . S
C696 C697 1.400 . S
C697 C691 1.491 1_565 S
C697 C696 1.400 . S
C697 C698 1.398 . S
C698 H686 0.950 . S
C698 C697 1.398 . S
C698 C699 1.391 . S
C699 H687 0.950 . S
C699 C695 1.393 . S
C699 C698 1.391 . S
H700 C708 0.950 . S
H701 C713 0.950 . S
H702 C710 0.950 . S
H703 C712 0.950 . S
H704 C714 0.950 . S
H705 C716 0.950 . S
H706 C718 0.950 . S
H707 C719 0.950 . S
C708 H700 0.950 . S
C708 C709 1.386 . S
C708 C710 1.391 . S
C709 C708 1.386 . S
C709 C713 1.393 . S
C710 H702 0.950 . S
C710 C708 1.391 . S
C710 C711 1.400 . S
C711 C710 1.400 . S
C711 C712 1.398 . S
C711 C717 1.491 . S
C712 H703 0.950 . S
C712 C711 1.398 . S
C712 C713 1.391 . S
C713 H701 0.950 . S
C713 C709 1.393 . S
C713 C712 1.391 . S
C714 H704 0.950 . S
C714 C715 1.386 . S
C714 C716 1.391 . S
C715 C714 1.386 . S
C715 C719 1.393 . S
C716 H705 0.950 . S
C716 C714 1.391 . S
C716 C717 1.400 . S
C717 C711 1.491 . S
C717 C716 1.400 . S
C717 C718 1.398 . S
C718 H706 0.950 . S
C718 C717 1.398 . S
C718 C719 1.391 . S
C719 H707 0.950 . S
C719 C715 1.393 . S
C719 C718 1.391 . S
H720 C728 0.950 . S
H721 C733 0.950 . S
H722 C730 0.950 . S
H723 C732 0.950 . S
H724 C734 0.950 . S
H725 C736 0.950 . S
H726 C738 0.950 . S
H727 C739 0.950 . S
C728 H720 0.950 . S
C728 C729 1.386 . S
C728 C730 1.391 . S
C729 C728 1.386 . S
C729 C733 1.393 . S
C730 H722 0.950 . S
C730 C728 1.391 . S
C730 C731 1.400 . S
C731 C730 1.400 . S
C731 C732 1.398 . S
C731 C737 1.491 . S
C732 H723 0.950 . S
C732 C731 1.398 . S
C732 C733 1.391 . S
C733 H721 0.950 . S
C733 C729 1.393 . S
C733 C732 1.391 . S
C734 H724 0.950 . S
C734 C735 1.386 . S
C734 C736 1.391 . S
C735 C734 1.386 . S
C735 C739 1.393 . S
C736 H725 0.950 . S
C736 C734 1.391 . S
C736 C737 1.400 . S
C737 C731 1.491 . S
C737 C736 1.400 . S
C737 C738 1.398 . S
C738 H726 0.950 . S
C738 C737 1.398 . S
C738 C739 1.391 . S
C739 H727 0.950 . S
C739 C735 1.393 . S
C739 C738 1.391 . S
H740 C748 0.950 . S
H741 C753 0.950 . S
H742 C750 0.950 . S
H743 C752 0.950 . S
H744 C754 0.950 . S
H745 C756 0.950 . S
H746 C758 0.950 . S
H747 C759 0.950 . S
C748 H740 0.950 . S
C748 C749 1.386 . S
C748 C750 1.391 . S
C749 C748 1.386 . S
C749 C753 1.393 . S
C750 H742 0.950 . S
C750 C748 1.391 . S
C750 C751 1.400 . S
C751 C750 1.400 . S
C751 C752 1.398 . S
C751 C757 1.491 . S
C752 H743 0.950 . S
C752 C751 1.398 . S
C752 C753 1.391 . S
C753 H741 0.950 . S
C753 C749 1.393 . S
C753 C752 1.391 . S
C754 H744 0.950 . S
C754 C755 1.386 . S
C754 C756 1.391 . S
C755 C754 1.386 . S
C755 C759 1.393 . S
C756 H745 0.950 . S
C756 C754 1.391 . S
C756 C757 1.400 . S
C757 C751 1.491 . S
C757 C756 1.400 . S
C757 C758 1.398 . S
C758 H746 0.950 . S
C758 C757 1.398 . S
C758 C759 1.391 . S
C759 H747 0.950 . S
C759 C755 1.393 . S
C759 C758 1.391 . S
H760 C768 0.950 . S
H761 C773 0.950 . S
H762 C770 0.950 . S
H763 C772 0.950 . S
H764 C774 0.950 . S
H765 C776 0.950 . S
H766 C778 0.950 . S
H767 C779 0.950 . S
C768 H760 0.950 . S
C768 C769 1.386 . S
C768 C770 1.391 . S
C769 C768 1.386 . S
C769 C773 1.393 . S
C770 H762 0.950 . S
C770 C768 1.391 . S
C770 C771 1.400 . S
C771 C770 1.400 . S
C771 C772 1.398 . S
C771 C777 1.491 . S
C772 H763 0.950 . S
C772 C771 1.398 . S
C772 C773 1.391 . S
C773 H761 0.950 . S
C773 C769 1.393 . S
C773 C772 1.391 . S
C774 H764 0.950 . S
C774 C775 1.386 . S
C774 C776 1.391 . S
C775 C774 1.386 . S
C775 C779 1.393 . S
C776 H765 0.950 . S
C776 C774 1.391 . S
C776 C777 1.400 . S
C777 C771 1.491 . S
C777 C776 1.400 . S
C777 C778 1.398 . S
C778 H766 0.950 . S
C778 C777 1.398 . S
C778 C779 1.391 . S
C779 H767 0.950 . S
C779 C775 1.393 . S
C779 C778 1.391 . S
H780 C788 0.950 . S
H781 C793 0.950 . S
H782 C790 0.950 . S
H783 C792 0.950 . S
H784 C794 0.950 . S
H785 C796 0.950 . S
H786 C798 0.950 . S
H787 C799 0.950 . S
C788 H780 0.950 . S
C788 C789 1.386 . S
C788 C790 1.391 . S
C789 C788 1.386 . S
C789 C793 1.393 . S
C790 H782 0.950 . S
C790 C788 1.391 . S
C790 C791 1.400 . S
C791 C790 1.400 . S
C791 C792 1.398 . S
C791 C797 1.491 . S
C792 H783 0.950 . S
C792 C791 1.398 . S
C792 C793 1.391 . S
C793 H781 0.950 . S
C793 C789 1.393 . S
C793 C792 1.391 . S
C794 H784 0.950 . S
C794 C795 1.386 . S
C794 C796 1.391 . S
C795 C794 1.386 . S
C795 C799 1.393 . S
C796 H785 0.950 . S
C796 C794 1.391 . S
C796 C797 1.400 . S
C797 C791 1.491 . S
C797 C796 1.400 . S
C797 C798 1.398 . S
C798 H786 0.950 . S
C798 C797 1.398 . S
C798 C799 1.391 . S
C799 H787 0.950 . S
C799 C795 1.393 . S
C799 C798 1.391 . S
H800 C808 0.950 . S
H801 C813 0.950 . S
H802 C810 0.950 . S
H803 C812 0.950 . S
H804 C814 0.950 . S
H805 C816 0.950 . S
H806 C818 0.950 . S
H807 C819 0.950 . S
C808 H800 0.950 . S
C808 C809 1.386 . S
C808 C810 1.391 . S
C809 C808 1.386 . S
C809 C813 1.393 . S
C810 H802 0.950 . S
C810 C808 1.391 . S
C810 C811 1.400 . S
C811 C810 1.400 . S
C811 C812 1.398 . S
C811 C817 1.491 . S
C812 H803 0.950 . S
C812 C811 1.398 . S
C812 C813 1.391 . S
C813 H801 0.950 . S
C813 C809 1.393 . S
C813 C812 1.391 . S
C814 H804 0.950 . S
C814 C815 1.386 . S
C814 C816 1.391 . S
C815 C814 1.386 . S
C815 C819 1.393 . S
C816 H805 0.950 . S
C816 C814 1.391 . S
C816 C817 1.400 . S
C817 C811 1.491 . S
C817 C816 1.400 . S
C817 C818 1.398 . S
C818 H806 0.950 . S
C818 C817 1.398 . S
C818 C819 1.391 . S
C819 H807 0.950 . S
C819 C815 1.393 . S
C819 C818 1.391 . S
H820 C828 0.950 . S
H821 C833 0.950 . S
H822 C830 0.950 . S
H823 C832 0.950 . S
H824 C834 0.950 . S
H825 C836 0.950 . S
H826 C838 0.950 . S
H827 C839 0.950 . S
C828 H820 0.950 . S
C828 C829 1.386 . S
C828 C830 1.391 . S
C829 C828 1.386 . S
C829 C833 1.393 . S
C830 H822 0.950 . S
C830 C828 1.391 . S
C830 C831 1.400 . S
C831 C830 1.400 . S
C831 C832 1.398 . S
C831 C837 1.491 . S
C832 H823 0.950 . S
C832 C831 1.398 . S
C832 C833 1.391 . S
C833 H821 0.950 . S
C833 C829 1.393 . S
C833 C832 1.391 . S
C834 H824 0.950 . S
C834 C835 1.386 . S
C834 C836 1.391 . S
C835 C834 1.386 . S
C835 C839 1.393 . S
C836 H825 0.950 . S
C836 C834 1.391 . S
C836 C837 1.400 . S
C837 C831 1.491 . S
C837 C836 1.400 . S
C837 C838 1.398 . S
C838 H826 0.950 . S
C838 C837 1.398 . S
C838 C839 1.391 . S
C839 H827 0.950 . S
C839 C835 1.393 . S
C839 C838 1.391 . S
H840 C848 0.950 . S
H841 C853 0.950 . S
H842 C850 0.950 . S
H843 C852 0.950 . S
H844 C854 0.950 . S
H845 C856 0.950 . S
H846 C858 0.950 . S
H847 C859 0.950 . S
C848 H840 0.950 . S
C848 C849 1.386 . S
C848 C850 1.391 . S
C849 C848 1.386 . S
C849 C853 1.393 . S
C850 H842 0.950 . S
C850 C848 1.391 . S
C850 C851 1.400 . S
C851 C850 1.400 . S
C851 C852 1.398 . S
C851 C857 1.491 . S
C852 H843 0.950 . S
C852 C851 1.398 . S
C852 C853 1.391 . S
C853 H841 0.950 . S
C853 C849 1.393 . S
C853 C852 1.391 . S
C854 H844 0.950 . S
C854 C855 1.386 . S
C854 C856 1.391 . S
C855 C854 1.386 . S
C855 C859 1.393 . S
C856 H845 0.950 . S
C856 C854 1.391 . S
C856 C857 1.400 . S
C857 C851 1.491 . S
C857 C856 1.400 . S
C857 C858 1.398 . S
C858 H846 0.950 . S
C858 C857 1.398 . S
C858 C859 1.391 . S
C859 H847 0.950 . S
C859 C855 1.393 . S
C859 C858 1.391 . S
H860 C868 0.950 . S
H861 C873 0.950 . S
H862 C870 0.950 . S
H863 C872 0.950 . S
H864 C874 0.950 . S
H865 C876 0.950 . S
H866 C878 0.950 . S
H867 C879 0.950 . S
C868 H860 0.950 . S
C868 C869 1.386 . S
C868 C870 1.391 . S
C869 C868 1.386 . S
C869 C873 1.393 . S
C870 H862 0.950 . S
C870 C868 1.391 . S
C870 C871 1.400 . S
C871 C870 1.400 . S
C871 C872 1.398 . S
C871 C877 1.491 . S
C872 H863 0.950 . S
C872 C871 1.398 . S
C872 C873 1.391 . S
C873 H861 0.950 . S
C873 C869 1.393 . S
C873 C872 1.391 . S
C874 H864 0.950 . S
C874 C875 1.386 . S
C874 C876 1.391 . S
C875 C874 1.386 . S
C875 C879 1.393 . S
C876 H865 0.950 . S
C876 C874 1.391 . S
C876 C877 1.400 . S
C877 C871 1.491 . S
C877 C876 1.400 . S
C877 C878 1.398 . S
C878 H866 0.950 . S
C878 C877 1.398 . S
C878 C879 1.391 . S
C879 H867 0.950 . S
C879 C875 1.393 . S
C879 C878 1.391 . S
H880 C888 0.950 . S
H881 C893 0.950 . S
H882 C890 0.950 . S
H883 C892 0.950 . S
H884 C894 0.950 . S
H885 C896 0.950 . S
H886 C898 0.950 . S
H887 C899 0.950 . S
C888 H880 0.950 . S
C888 C889 1.386 . S
C888 C890 1.391 . S
C889 C888 1.386 . S
C889 C893 1.393 . S
C890 H882 0.950 . S
C890 C888 1.391 . S
C890 C891 1.400 . S
C891 C890 1.400 . S
C891 C892 1.398 . S
C891 C897 1.491 . S
C892 H883 0.950 . S
C892 C891 1.398 . S
C892 C893 1.391 . S
C893 H881 0.950 . S
C893 C889 1.393 . S
C893 C892 1.391 . S
C894 H884 0.950 . S
C894 C895 1.386 . S
C894 C896 1.391 . S
C895 C894 1.386 . S
C895 C899 1.393 . S
C896 H885 0.950 . S
C896 C894 1.391 . S
C896 C897 1.400 . S
C897 C891 1.491 . S
C897 C896 1.400 . S
C897 C898 1.398 . S
C898 H886 0.950 . S
C898 C897 1.398 . S
C898 C899 1.391 . S
C899 H887 0.950 . S
C899 C895 1.393 . S
C899 C898 1.391 . S
H900 C908 0.950 . S
H901 C913 0.950 . S
H902 C910 0.950 . S
H903 C912 0.950 . S
H904 C914 0.950 . S
H905 C916 0.950 . S
H906 C918 0.950 . S
H907 C919 0.950 . S
C908 H900 0.950 . S
C908 C909 1.386 . S
C908 C910 1.391 . S
C909 C908 1.386 . S
C909 C913 1.393 . S
C910 H902 0.950 . S
C910 C908 1.391 . S
C910 C911 1.400 . S
C911 C910 1.400 . S
C911 C912 1.398 . S
C911 C917 1.491 . S
C912 H903 0.950 . S
C912 C911 1.398 . S
C912 C913 1.391 . S
C913 H901 0.950 . S
C913 C909 1.393 . S
C913 C912 1.391 . S
C914 H904 0.950 . S
C914 C915 1.386 . S
C914 C916 1.391 . S
C915 C914 1.386 . S
C915 C919 1.393 . S
C916 H905 0.950 . S
C916 C914 1.391 . S
C916 C917 1.400 . S
C917 C911 1.491 . S
C917 C916 1.400 . S
C917 C918 1.398 . S
C918 H906 0.950 . S
C918 C917 1.398 . S
C918 C919 1.391 . S
C919 H907 0.950 . S
C919 C915 1.393 . S
C919 C918 1.391 . S
H920 C928 0.950 . S
H921 C933 0.950 . S
H922 C930 0.950 . S
H923 C932 0.950 . S
H924 C934 0.950 . S
H925 C936 0.950 . S
H926 C938 0.950 . S
H927 C939 0.950 . S
C928 H920 0.950 . S
C928 C929 1.386 . S
C928 C930 1.391 . S
C929 C928 1.386 . S
C929 C933 1.393 . S
C930 H922 0.950 . S
C930 C928 1.391 . S
C930 C931 1.400 . S
C931 C930 1.400 . S
C931 C932 1.398 . S
C931 C937 1.491 . S
C932 H923 0.950 . S
C932 C931 1.398 . S
C932 C933 1.391 . S
C933 H921 0.950 . S
C933 C929 1.393 . S
C933 C932 1.391 . S
C934 H924 0.950 . S
C934 C935 1.386 . S
C934 C936 1.391 . S
C935 C934 1.386 . S
C935 C939 1.393 . S
C936 H925 0.950 . S
C936 C934 1.391 . S
C936 C937 1.400 . S
C937 C931 1.491 . S
C937 C936 1.400 . S
C937 C938 1.398 . S
C938 H926 0.950 . S
C938 C937 1.398 . S
C938 C939 1.391 . S
C939 H927 0.950 . S
C939 C935 1.393 . S
C939 C938 1.391 . S
H940 C948 0.950 . S
H941 C953 0.950 . S
H942 C950 0.950 . S
H943 C952 0.950 . S
H944 C954 0.950 . S
H945 C956 0.950 . S
H946 C958 0.950 . S
H947 C959 0.950 . S
C948 H940 0.950 . S
C948 C949 1.386 . S
C948 C950 1.391 . S
C949 C948 1.386 . S
C949 C953 1.393 . S
C950 H942 0.950 . S
C950 C948 1.391 . S
C950 C951 1.400 . S
C951 C950 1.400 . S
C951 C952 1.398 . S
C951 C957 1.491 . S
C952 H943 0.950 . S
C952 C951 1.398 . S
C952 C953 1.391 . S
C953 H941 0.950 . S
C953 C949 1.393 . S
C953 C952 1.391 . S
C954 H944 0.950 . S
C954 C955 1.386 . S
C954 C956 1.391 . S
C955 C954 1.386 . S
C955 C959 1.393 . S
C956 H945 0.950 . S
C956 C954 1.391 . S
C956 C957 1.400 . S
C957 C951 1.491 . S
C957 C956 1.400 . S
C957 C958 1.398 . S
C958 H946 0.950 . S
C958 C957 1.398 . S
C958 C959 1.391 . S
C959 H947 0.950 . S
C959 C955 1.393 . S
C959 C958 1.391 . S
H960 C968 0.950 . S
H961 C973 0.950 . S
H962 C970 0.950 . S
H963 C972 0.950 . S
H964 C974 0.950 . S
H965 C976 0.950 . S
H966 C978 0.950 . S
H967 C979 0.950 . S
C968 H960 0.950 . S
C968 C969 1.386 . S
C968 C970 1.391 . S
C969 C968 1.386 . S
C969 C973 1.393 . S
C970 H962 0.950 . S
C970 C968 1.391 . S
C970 C971 1.400 . S
C971 C970 1.400 . S
C971 C972 1.398 . S
C971 C977 1.491 . S
C972 H963 0.950 . S
C972 C971 1.398 . S
C972 C973 1.391 . S
C973 H961 0.950 . S
C973 C969 1.393 . S
C973 C972 1.391 . S
C974 H964 0.950 . S
C974 C975 1.386 . S
C974 C976 1.391 . S
C975 C974 1.386 . S
C975 C979 1.393 . S
C976 H965 0.950 . S
C976 C974 1.391 . S
C976 C977 1.400 . S
C977 C971 1.491 . S
C977 C976 1.400 . S
C977 C978 1.398 . S
C978 H966 0.950 . S
C978 C977 1.398 . S
C978 C979 1.391 . S
C979 H967 0.950 . S
C979 C975 1.393 . S
C979 C978 1.391 . S
H980 C988 0.950 . S
H981 C993 0.950 . S
H982 C990 0.950 . S
H983 C992 0.950 . S
H984 C994 0.950 . S
H985 C996 0.950 . S
H986 C998 0.950 . S
H987 C999 0.950 . S
C988 H980 0.950 . S
C988 C989 1.386 . S
C988 C990 1.391 . S
C989 C988 1.386 . S
C989 C993 1.393 . S
C990 H982 0.950 . S
C990 C988 1.391 . S
C990 C991 1.400 . S
C991 C990 1.400 . S
C991 C992 1.398 . S
C991 C997 1.491 . S
C992 H983 0.950 . S
C992 C991 1.398 . S
C992 C993 1.391 . S
C993 H981 0.950 . S
C993 C989 1.393 . S
C993 C992 1.391 . S
C994 H984 0.950 . S
C994 C995 1.386 . S
C994 C996 1.391 . S
C995 C994 1.386 . S
C995 C999 1.393 . S
C996 H985 0.950 . S
C996 C994 1.391 . S
C996 C997 1.400 . S
C997 C991 1.491 . S
C997 C996 1.400 . S
C997 C998 1.398 . S
C998 H986 0.950 . S
C998 C997 1.398 . S
C998 C999 1.391 . S
C999 H987 0.950 . S
C999 C995 1.393 . S
C999 C998 1.391 . S
H1000 C1008 0.950 . S
H1001 C1013 0.950 . S
H1002 C1010 0.950 . S
H1003 C1012 0.950 . S
H1004 C1014 0.950 . S
H1005 C1016 0.950 . S
H1006 C1018 0.950 . S
H1007 C1019 0.950 . S
C1008 H1000 0.950 . S
C1008 C1009 1.386 . S
C1008 C1010 1.391 . S
C1009 C1008 1.386 . S
C1009 C1013 1.393 . S
C1010 H1002 0.950 . S
C1010 C1008 1.391 . S
C1010 C1011 1.400 . S
C1011 C1010 1.400 . S
C1011 C1012 1.398 . S
C1011 C1017 1.491 . S
C1012 H1003 0.950 . S
C1012 C1011 1.398 . S
C1012 C1013 1.391 . S
C1013 H1001 0.950 . S
C1013 C1009 1.393 . S
C1013 C1012 1.391 . S
C1014 H1004 0.950 . S
C1014 C1015 1.386 . S
C1014 C1016 1.391 . S
C1015 C1014 1.386 . S
C1015 C1019 1.393 . S
C1016 H1005 0.950 . S
C1016 C1014 1.391 . S
C1016 C1017 1.400 . S
C1017 C1011 1.491 . S
C1017 C1016 1.400 . S
C1017 C1018 1.398 . S
C1018 H1006 0.950 . S
C1018 C1017 1.398 . S
C1018 C1019 1.391 . S
C1019 H1007 0.950 . S
C1019 C1015 1.393 . S
C1019 C1018 1.391 . S
H1020 C1028 0.950 . S
H1021 C1033 0.950 . S
H1022 C1030 0.950 . S
H1023 C1032 0.950 . S
H1024 C1034 0.950 . S
H1025 C1036 0.950 . S
H1026 C1038 0.950 . S
H1027 C1039 0.950 . S
C1028 H1020 0.950 . S
C1028 C1029 1.386 . S
C1028 C1030 1.391 . S
C1029 C1028 1.386 . S
C1029 C1033 1.393 . S
C1030 H1022 0.950 . S
C1030 C1028 1.391 . S
C1030 C1031 1.400 . S
C1031 C1030 1.400 . S
C1031 C1032 1.398 . S
C1031 C1037 1.491 . S
C1032 H1023 0.950 . S
C1032 C1031 1.398 . S
C1032 C1033 1.391 . S
C1033 H1021 0.950 . S
C1033 C1029 1.393 . S
C1033 C1032 1.391 . S
C1034 H1024 0.950 . S
C1034 C1035 1.386 . S
C1034 C1036 1.391 . S
C1035 C1034 1.386 . S
C1035 C1039 1.393 . S
C1036 H1025 0.950 . S
C1036 C1034 1.391 . S
C1036 C1037 1.400 . S
C1037 C1031 1.491 . S
C1037 C1036 1.400 . S
C1037 C1038 1.398 . S
C1038 H1026 0.950 . S
C1038 C1037 1.398 . S
C1038 C1039 1.391 . S
C1039 H1027 0.950 . S
C1039 C1035 1.393 . S
C1039 C1038 1.391 . S
H1040 C1048 0.950 . S
H1041 C1053 0.950 . S
H1042 C1050 0.950 . S
H1043 C1052 0.950 . S
H1044 C1054 0.950 . S
H1045 C1056 0.950 . S
H1046 C1058 0.950 . S
H1047 C1059 0.950 . S
C1048 H1040 0.950 . S
C1048 C1049 1.386 . S
C1048 C1050 1.391 . S
C1049 C1048 1.386 . S
C1049 C1053 1.393 . S
C1050 H1042 0.950 . S
C1050 C1048 1.391 . S
C1050 C1051 1.400 . S
C1051 C1050 1.400 . S
C1051 C1052 1.398 . S
C1051 C1057 1.491 . S
C1052 H1043 0.950 . S
C1052 C1051 1.398 . S
C1052 C1053 1.391 . S
C1053 H1041 0.950 . S
C1053 C1049 1.393 . S
C1053 C1052 1.391 . S
C1054 H1044 0.950 . S
C1054 C1055 1.386 . S
C1054 C1056 1.391 . S
C1055 C1054 1.386 . S
C1055 C1059 1.393 . S
C1056 H1045 0.950 . S
C1056 C1054 1.391 . S
C1056 C1057 1.400 . S
C1057 C1051 1.491 . S
C1057 C1056 1.400 . S
C1057 C1058 1.398 . S
C1058 H1046 0.950 . S
C1058 C1057 1.398 . S
C1058 C1059 1.391 . S
C1059 H1047 0.950 . S
C1059 C1055 1.393 . S
C1059 C1058 1.391 . S
H1060 C1068 0.950 . S
H1061 C1073 0.950 . S
H1062 C1070 0.950 . S
H1063 C1072 0.950 . S
H1064 C1074 0.950 . S
H1065 C1076 0.950 . S
H1066 C1078 0.950 . S
H1067 C1079 0.950 . S
C1068 H1060 0.950 . S
C1068 C1069 1.386 . S
C1068 C1070 1.391 . S
C1069 C1068 1.386 . S
C1069 C1073 1.393 . S
C1070 H1062 0.950 . S
C1070 C1068 1.391 . S
C1070 C1071 1.400 . S
C1071 C1070 1.400 . S
C1071 C1072 1.398 . S
C1071 C1077 1.491 . S
C1072 H1063 0.950 . S
C1072 C1071 1.398 . S
C1072 C1073 1.391 . S
C1073 H1061 0.950 . S
C1073 C1069 1.393 . S
C1073 C1072 1.391 . S
C1074 H1064 0.950 . S
C1074 C1075 1.386 . S
C1074 C1076 1.391 . S
C1075 C1074 1.386 . S
C1075 C1079 1.393 . S
C1076 H1065 0.950 . S
C1076 C1074 1.391 . S
C1076 C1077 1.400 . S
C1077 C1071 1.491 . S
C1077 C1076 1.400 . S
C1077 C1078 1.398 . S
C1078 H1066 0.950 . S
C1078 C1077 1.398 . S
C1078 C1079 1.391 . S
C1079 H1067 0.950 . S
C1079 C1075 1.393 . S
C1079 C1078 1.391 . S
H1080 C1088 0.950 . S
H1081 C1093 0.950 . S
H1082 C1090 0.950 . S
H1083 C1092 0.950 1_554 S
H1084 C1094 0.950 . S
H1085 C1096 0.950 . S
H1086 C1098 0.950 1_556 S
H1087 C1099 0.950 . S
C1088 H1080 0.950 . S
C1088 C1089 1.386 . S
C1088 C1090 1.391 . S
C1089 C1088 1.386 . S
C1089 C1093 1.393 . S
C1090 H1082 0.950 . S
C1090 C1088 1.391 . S
C1090 C1091 1.400 . S
C1091 C1090 1.400 . S
C1091 C1092 1.398 . S
C1091 C1097 1.491 1_556 S
C1092 H1083 0.950 1_556 S
C1092 C1091 1.398 . S
C1092 C1093 1.391 . S
C1093 H1081 0.950 . S
C1093 C1089 1.393 . S
C1093 C1092 1.391 . S
C1094 H1084 0.950 . S
C1094 C1095 1.386 . S
C1094 C1096 1.391 . S
C1095 C1094 1.386 . S
C1095 C1099 1.393 . S
C1096 H1085 0.950 . S
C1096 C1094 1.391 . S
C1096 C1097 1.400 . S
C1097 C1091 1.491 1_554 S
C1097 C1096 1.400 . S
C1097 C1098 1.398 . S
C1098 H1086 0.950 1_554 S
C1098 C1097 1.398 . S
C1098 C1099 1.391 . S
C1099 H1087 0.950 . S
C1099 C1095 1.393 . S
C1099 C1098 1.391 . S
H1100 C1108 0.950 . S
H1101 C1113 0.950 . S
H1102 C1110 0.950 . S
H1103 C1112 0.950 1_655 S
H1104 C1114 0.950 . S
H1105 C1116 0.950 . S
H1106 C1118 0.950 1_455 S
H1107 C1119 0.950 . S
C1108 H1100 0.950 . S
C1108 C1109 1.386 . S
C1108 C1110 1.391 . S
C1109 C1108 1.386 . S
C1109 C1113 1.393 . S
C1110 H1102 0.950 . S
C1110 C1108 1.391 . S
C1110 C1111 1.400 . S
C1111 C1110 1.400 . S
C1111 C1112 1.398 . S
C1111 C1117 1.491 1_455 S
C1112 H1103 0.950 1_455 S
C1112 C1111 1.398 . S
C1112 C1113 1.391 . S
C1113 H1101 0.950 . S
C1113 C1109 1.393 . S
C1113 C1112 1.391 . S
C1114 H1104 0.950 . S
C1114 C1115 1.386 . S
C1114 C1116 1.391 . S
C1115 C1114 1.386 . S
C1115 C1119 1.393 . S
C1116 H1105 0.950 . S
C1116 C1114 1.391 . S
C1116 C1117 1.400 . S
C1117 C1111 1.491 1_655 S
C1117 C1116 1.400 . S
C1117 C1118 1.398 . S
C1118 H1106 0.950 1_655 S
C1118 C1117 1.398 . S
C1118 C1119 1.391 . S
C1119 H1107 0.950 . S
C1119 C1115 1.393 . S
C1119 C1118 1.391 . S
H1120 C1128 0.950 . S
H1121 C1133 0.950 . S
H1122 C1130 0.950 . S
H1123 C1132 0.950 1_556 S
H1124 C1134 0.950 . S
H1125 C1136 0.950 . S
H1126 C1138 0.950 1_554 S
H1127 C1139 0.950 . S
C1128 H1120 0.950 . S
C1128 C1129 1.386 . S
C1128 C1130 1.391 . S
C1129 C1128 1.386 . S
C1129 C1133 1.393 . S
C1130 H1122 0.950 . S
C1130 C1128 1.391 . S
C1130 C1131 1.400 . S
C1131 C1130 1.400 . S
C1131 C1132 1.398 . S
C1131 C1137 1.491 1_564 S
C1132 H1123 0.950 1_554 S
C1132 C1131 1.398 . S
C1132 C1133 1.391 . S
C1133 H1121 0.950 . S
C1133 C1129 1.393 . S
C1133 C1132 1.391 . S
C1134 H1124 0.950 . S
C1134 C1135 1.386 . S
C1134 C1136 1.391 . S
C1135 C1134 1.386 . S
C1135 C1139 1.393 . S
C1136 H1125 0.950 . S
C1136 C1134 1.391 . S
C1136 C1137 1.400 . S
C1137 C1131 1.491 1_546 S
C1137 C1136 1.400 . S
C1137 C1138 1.398 . S
C1138 H1126 0.950 1_556 S
C1138 C1137 1.398 . S
C1138 C1139 1.391 . S
C1139 H1127 0.950 . S
C1139 C1135 1.393 . S
C1139 C1138 1.391 . S
H1140 C1148 0.950 . S
H1141 C1153 0.950 . S
H1142 C1150 0.950 . S
H1143 C1152 0.950 . S
H1144 C1154 0.950 . S
H1145 C1156 0.950 . S
H1146 C1158 0.950 . S
H1147 C1159 0.950 . S
C1148 H1140 0.950 . S
C1148 C1149 1.386 . S
C1148 C1150 1.391 . S
C1149 C1148 1.386 . S
C1149 C1153 1.393 . S
C1150 H1142 0.950 . S
C1150 C1148 1.391 . S
C1150 C1151 1.400 . S
C1151 C1150 1.400 . S
C1151 C1152 1.398 . S
C1151 C1157 1.491 . S
C1152 H1143 0.950 . S
C1152 C1151 1.398 . S
C1152 C1153 1.391 . S
C1153 H1141 0.950 . S
C1153 C1149 1.393 . S
C1153 C1152 1.391 . S
C1154 H1144 0.950 . S
C1154 C1155 1.386 . S
C1154 C1156 1.391 . S
C1155 C1154 1.386 . S
C1155 C1159 1.393 . S
C1156 H1145 0.950 . S
C1156 C1154 1.391 . S
C1156 C1157 1.400 . S
C1157 C1151 1.491 . S
C1157 C1156 1.400 . S
C1157 C1158 1.398 . S
C1158 H1146 0.950 . S
C1158 C1157 1.398 . S
C1158 C1159 1.391 . S
C1159 H1147 0.950 . S
C1159 C1155 1.393 . S
C1159 C1158 1.391 . S
H1160 C1168 0.950 . S
H1161 C1173 0.950 . S
H1162 C1170 0.950 1_554 S
H1163 C1172 0.950 . S
H1164 C1174 0.950 . S
H1165 C1176 0.950 1_556 S
H1166 C1178 0.950 . S
H1167 C1179 0.950 . S
C1168 H1160 0.950 . S
C1168 C1169 1.386 . S
C1168 C1170 1.391 . S
C1169 C1168 1.386 . S
C1169 C1173 1.393 . S
C1170 H1162 0.950 1_556 S
C1170 C1168 1.391 . S
C1170 C1171 1.400 . S
C1171 C1170 1.400 . S
C1171 C1172 1.398 . S
C1171 C1177 1.491 1_656 S
C1172 H1163 0.950 . S
C1172 C1171 1.398 . S
C1172 C1173 1.391 . S
C1173 H1161 0.950 . S
C1173 C1169 1.393 . S
C1173 C1172 1.391 . S
C1174 H1164 0.950 . S
C1174 C1175 1.386 . S
C1174 C1176 1.391 . S
C1175 C1174 1.386 . S
C1175 C1179 1.393 . S
C1176 H1165 0.950 1_554 S
C1176 C1174 1.391 . S
C1176 C1177 1.400 . S
C1177 C1171 1.491 1_454 S
C1177 C1176 1.400 . S
C1177 C1178 1.398 . S
C1178 H1166 0.950 . S
C1178 C1177 1.398 . S
C1178 C1179 1.391 . S
C1179 H1167 0.950 . S
C1179 C1175 1.393 . S
C1179 C1178 1.391 . S
H1180 C1188 0.950 . S
H1181 C1193 0.950 . S
H1182 C1190 0.950 1_545 S
H1183 C1192 0.950 . S
H1184 C1194 0.950 . S
H1185 C1196 0.950 1_565 S
H1186 C1198 0.950 . S
H1187 C1199 0.950 . S
C1188 H1180 0.950 . S
C1188 C1189 1.386 . S
C1188 C1190 1.391 . S
C1189 C1188 1.386 . S
C1189 C1193 1.393 . S
C1190 H1182 0.950 1_565 S
C1190 C1188 1.391 . S
C1190 C1191 1.400 . S
C1191 C1190 1.400 . S
C1191 C1192 1.398 . S
C1191 C1197 1.491 1_565 S
C1192 H1183 0.950 . S
C1192 C1191 1.398 . S
C1192 C1193 1.391 . S
C1193 H1181 0.950 . S
C1193 C1189 1.393 . S
C1193 C1192 1.391 . S
C1194 H1184 0.950 . S
C1194 C1195 1.386 . S
C1194 C1196 1.391 . S
C1195 C1194 1.386 . S
C1195 C1199 1.393 . S
C1196 H1185 0.950 1_545 S
C1196 C1194 1.391 . S
C1196 C1197 1.400 . S
C1197 C1191 1.491 1_545 S
C1197 C1196 1.400 . S
C1197 C1198 1.398 . S
C1198 H1186 0.950 . S
C1198 C1197 1.398 . S
C1198 C1199 1.391 . S
C1199 H1187 0.950 . S
C1199 C1195 1.393 . S
C1199 C1198 1.391 . S
C489 C172 1.300 . S
C495 C29 1.304 . S
C509 C212 1.298 . S
C515 C69 1.306 . S
C529 C109 1.303 . S
C535 C12 1.299 . S
C549 C149 1.307 . S
C555 C52 1.293 . S
C569 C189 1.305 . S
C575 C92 1.285 . S
C589 C132 1.288 . S
C595 C229 1.306 . S
C609 C332 1.285 . S
C615 C269 1.301 . S
C629 C309 1.300 . S
C635 C372 1.287 . S
C649 C412 1.291 . S
C655 C349 1.300 . S
C669 C389 1.301 . S
C675 C452 1.296 . S
C689 C429 1.301 . S
C695 C252 1.296 . S
C709 C292 1.293 . S
C715 C469 1.307 . S
C729 C191 1.738 . S
C735 C8 1.701 . S
C749 C48 1.695 . S
C755 C231 1.739 . S
C769 C88 1.698 . S
C775 C31 1.736 . S
C789 C128 1.692 . S
C795 C71 1.734 . S
C809 C111 1.736 . S
C815 C168 1.698 . S
C829 C151 1.733 . S
C835 C208 1.687 . S
C849 C351 1.737 . S
C855 C248 1.699 . S
C869 C288 1.707 . S
C875 C391 1.742 . S
C889 C328 1.703 . S
C895 C431 1.739 . S
C909 C471 1.740 . S
C915 C368 1.697 . S
C929 C408 1.687 . S
C935 C271 1.734 . S
C949 C311 1.738 . S
C955 C448 1.701 . S
C969 C402 1.651 . S
C975 C2 1.637 . S
C989 C42 1.636 . S
C995 C442 1.631 . S
C1009 C82 1.652 . S
C1015 C242 1.638 . S
C1029 C122 1.645 . S
C1035 C282 1.633 . S
C1049 C162 1.646 . S
C1055 C322 1.634 . S
C1069 C362 1.647 . S
C1075 C202 1.635 . S
C1089 C377 2.140 . S
C1095 C17 2.141 . S
C1109 C417 2.144 . S
C1115 C57 2.143 . S
C1129 C97 2.144 . S
C1135 C457 2.145 . S
C1149 C137 2.139 . S
C1155 C257 2.139 . S
C1169 C297 2.144 . S
C1175 C177 2.144 . S
C1189 C337 2.143 . S
C1195 C217 2.144 . S
