# Generated by pormake.
# Topology uml, (4)-cn, num edge types: 1
# Building blocks:
#     Node 0, Type 0, BuildingBlock: NAWXER_clean_sbu_0, # of connection points: 4
#     Node 1, Type 0, BuildingBlock: NAWXER_clean_sbu_0, # of connection points: 4
#     Node 2, Type 0, BuildingBlock: NAWXER_clean_sbu_0, # of connection points: 4
#     Node 3, Type 0, BuildingBlock: NAWXER_clean_sbu_0, # of connection points: 4
#     Node 4, Type 0, BuildingBlock: NAWXER_clean_sbu_0, # of connection points: 4
#     Node 5, Type 0, BuildingBlock: NAWXER_clean_sbu_0, # of connection points: 4
#     Node 6, Type 0, BuildingBlock: NAWXER_clean_sbu_0, # of connection points: 4
#     Node 7, Type 0, BuildingBlock: NAWXER_clean_sbu_0, # of connection points: 4
#     Node 8, Type 0, BuildingBlock: NAWXER_clean_sbu_0, # of connection points: 4
#     Node 9, Type 0, BuildingBlock: NAWXER_clean_sbu_0, # of connection points: 4
#     Node 10, Type 0, BuildingBlock: NAWXER_clean_sbu_0, # of connection points: 4
#     Node 11, Type 0, BuildingBlock: NAWXER_clean_sbu_0, # of connection points: 4
#     Node 12, Type 0, BuildingBlock: NAWXER_clean_sbu_0, # of connection points: 4
#     Node 13, Type 0, BuildingBlock: NAWXER_clean_sbu_0, # of connection points: 4
#     Node 14, Type 0, BuildingBlock: NAWXER_clean_sbu_0, # of connection points: 4
#     Node 15, Type 0, BuildingBlock: NAWXER_clean_sbu_0, # of connection points: 4
#     Node 16, Type 0, BuildingBlock: NAWXER_clean_sbu_0, # of connection points: 4
#     Node 17, Type 0, BuildingBlock: NAWXER_clean_sbu_0, # of connection points: 4
#     Node 18, Type 0, BuildingBlock: NAWXER_clean_sbu_0, # of connection points: 4
#     Node 19, Type 0, BuildingBlock: NAWXER_clean_sbu_0, # of connection points: 4
#     Node 20, Type 0, BuildingBlock: NAWXER_clean_sbu_0, # of connection points: 4
#     Node 21, Type 0, BuildingBlock: NAWXER_clean_sbu_0, # of connection points: 4
#     Node 22, Type 0, BuildingBlock: NAWXER_clean_sbu_0, # of connection points: 4
#     Node 23, Type 0, BuildingBlock: NAWXER_clean_sbu_0, # of connection points: 4
#     Node 24, Type 0, BuildingBlock: NAWXER_clean_sbu_0, # of connection points: 4
#     Node 25, Type 0, BuildingBlock: NAWXER_clean_sbu_0, # of connection points: 4
#     Node 26, Type 0, BuildingBlock: NAWXER_clean_sbu_0, # of connection points: 4
#     Node 27, Type 0, BuildingBlock: NAWXER_clean_sbu_0, # of connection points: 4
#     Node 28, Type 0, BuildingBlock: NAWXER_clean_sbu_0, # of connection points: 4
#     Node 29, Type 0, BuildingBlock: NAWXER_clean_sbu_0, # of connection points: 4
#     Node 30, Type 0, BuildingBlock: NAWXER_clean_sbu_0, # of connection points: 4
#     Node 31, Type 0, BuildingBlock: NAWXER_clean_sbu_0, # of connection points: 4
#     Node 32, Type 0, BuildingBlock: NAWXER_clean_sbu_0, # of connection points: 4
#     Node 33, Type 0, BuildingBlock: NAWXER_clean_sbu_0, # of connection points: 4
#     Node 34, Type 0, BuildingBlock: NAWXER_clean_sbu_0, # of connection points: 4
#     Node 35, Type 0, BuildingBlock: NAWXER_clean_sbu_0, # of connection points: 4
#     Edge 36, Type (0, 0), BuildingBlock: OJICUG_clean_linker_0, # of connection points: 2
#     Edge 37, Type (0, 0), BuildingBlock: OJICUG_clean_linker_0, # of connection points: 2
#     Edge 38, Type (0, 0), BuildingBlock: OJICUG_clean_linker_0, # of connection points: 2
#     Edge 39, Type (0, 0), BuildingBlock: OJICUG_clean_linker_0, # of connection points: 2
#     Edge 40, Type (0, 0), BuildingBlock: OJICUG_clean_linker_0, # of connection points: 2
#     Edge 41, Type (0, 0), BuildingBlock: OJICUG_clean_linker_0, # of connection points: 2
#     Edge 42, Type (0, 0), BuildingBlock: OJICUG_clean_linker_0, # of connection points: 2
#     Edge 43, Type (0, 0), BuildingBlock: OJICUG_clean_linker_0, # of connection points: 2
#     Edge 44, Type (0, 0), BuildingBlock: OJICUG_clean_linker_0, # of connection points: 2
#     Edge 45, Type (0, 0), BuildingBlock: OJICUG_clean_linker_0, # of connection points: 2
#     Edge 46, Type (0, 0), BuildingBlock: OJICUG_clean_linker_0, # of connection points: 2
#     Edge 47, Type (0, 0), BuildingBlock: OJICUG_clean_linker_0, # of connection points: 2
#     Edge 48, Type (0, 0), BuildingBlock: OJICUG_clean_linker_0, # of connection points: 2
#     Edge 49, Type (0, 0), BuildingBlock: OJICUG_clean_linker_0, # of connection points: 2
#     Edge 50, Type (0, 0), BuildingBlock: OJICUG_clean_linker_0, # of connection points: 2
#     Edge 51, Type (0, 0), BuildingBlock: OJICUG_clean_linker_0, # of connection points: 2
#     Edge 52, Type (0, 0), BuildingBlock: OJICUG_clean_linker_0, # of connection points: 2
#     Edge 53, Type (0, 0), BuildingBlock: OJICUG_clean_linker_0, # of connection points: 2
#     Edge 54, Type (0, 0), BuildingBlock: OJICUG_clean_linker_0, # of connection points: 2
#     Edge 55, Type (0, 0), BuildingBlock: OJICUG_clean_linker_0, # of connection points: 2
#     Edge 56, Type (0, 0), BuildingBlock: OJICUG_clean_linker_0, # of connection points: 2
#     Edge 57, Type (0, 0), BuildingBlock: OJICUG_clean_linker_0, # of connection points: 2
#     Edge 58, Type (0, 0), BuildingBlock: OJICUG_clean_linker_0, # of connection points: 2
#     Edge 59, Type (0, 0), BuildingBlock: OJICUG_clean_linker_0, # of connection points: 2
#     Edge 60, Type (0, 0), BuildingBlock: OJICUG_clean_linker_0, # of connection points: 2
#     Edge 61, Type (0, 0), BuildingBlock: OJICUG_clean_linker_0, # of connection points: 2
#     Edge 62, Type (0, 0), BuildingBlock: OJICUG_clean_linker_0, # of connection points: 2
#     Edge 63, Type (0, 0), BuildingBlock: OJICUG_clean_linker_0, # of connection points: 2
#     Edge 64, Type (0, 0), BuildingBlock: OJICUG_clean_linker_0, # of connection points: 2
#     Edge 65, Type (0, 0), BuildingBlock: OJICUG_clean_linker_0, # of connection points: 2
#     Edge 66, Type (0, 0), BuildingBlock: OJICUG_clean_linker_0, # of connection points: 2
#     Edge 67, Type (0, 0), BuildingBlock: OJICUG_clean_linker_0, # of connection points: 2
#     Edge 68, Type (0, 0), BuildingBlock: OJICUG_clean_linker_0, # of connection points: 2
#     Edge 69, Type (0, 0), BuildingBlock: OJICUG_clean_linker_0, # of connection points: 2
#     Edge 70, Type (0, 0), BuildingBlock: OJICUG_clean_linker_0, # of connection points: 2
#     Edge 71, Type (0, 0), BuildingBlock: OJICUG_clean_linker_0, # of connection points: 2
#     Edge 72, Type (0, 0), BuildingBlock: OJICUG_clean_linker_0, # of connection points: 2
#     Edge 73, Type (0, 0), BuildingBlock: OJICUG_clean_linker_0, # of connection points: 2
#     Edge 74, Type (0, 0), BuildingBlock: OJICUG_clean_linker_0, # of connection points: 2
#     Edge 75, Type (0, 0), BuildingBlock: OJICUG_clean_linker_0, # of connection points: 2
#     Edge 76, Type (0, 0), BuildingBlock: OJICUG_clean_linker_0, # of connection points: 2
#     Edge 77, Type (0, 0), BuildingBlock: OJICUG_clean_linker_0, # of connection points: 2
#     Edge 78, Type (0, 0), BuildingBlock: OJICUG_clean_linker_0, # of connection points: 2
#     Edge 79, Type (0, 0), BuildingBlock: OJICUG_clean_linker_0, # of connection points: 2
#     Edge 80, Type (0, 0), BuildingBlock: OJICUG_clean_linker_0, # of connection points: 2
#     Edge 81, Type (0, 0), BuildingBlock: OJICUG_clean_linker_0, # of connection points: 2
#     Edge 82, Type (0, 0), BuildingBlock: OJICUG_clean_linker_0, # of connection points: 2
#     Edge 83, Type (0, 0), BuildingBlock: OJICUG_clean_linker_0, # of connection points: 2
#     Edge 84, Type (0, 0), BuildingBlock: OJICUG_clean_linker_0, # of connection points: 2
#     Edge 85, Type (0, 0), BuildingBlock: OJICUG_clean_linker_0, # of connection points: 2
#     Edge 86, Type (0, 0), BuildingBlock: OJICUG_clean_linker_0, # of connection points: 2
#     Edge 87, Type (0, 0), BuildingBlock: OJICUG_clean_linker_0, # of connection points: 2
#     Edge 88, Type (0, 0), BuildingBlock: OJICUG_clean_linker_0, # of connection points: 2
#     Edge 89, Type (0, 0), BuildingBlock: OJICUG_clean_linker_0, # of connection points: 2
#     Edge 90, Type (0, 0), BuildingBlock: OJICUG_clean_linker_0, # of connection points: 2
#     Edge 91, Type (0, 0), BuildingBlock: OJICUG_clean_linker_0, # of connection points: 2
#     Edge 92, Type (0, 0), BuildingBlock: OJICUG_clean_linker_0, # of connection points: 2
#     Edge 93, Type (0, 0), BuildingBlock: OJICUG_clean_linker_0, # of connection points: 2
#     Edge 94, Type (0, 0), BuildingBlock: OJICUG_clean_linker_0, # of connection points: 2
#     Edge 95, Type (0, 0), BuildingBlock: OJICUG_clean_linker_0, # of connection points: 2
#     Edge 96, Type (0, 0), BuildingBlock: OJICUG_clean_linker_0, # of connection points: 2
#     Edge 97, Type (0, 0), BuildingBlock: OJICUG_clean_linker_0, # of connection points: 2
#     Edge 98, Type (0, 0), BuildingBlock: OJICUG_clean_linker_0, # of connection points: 2
#     Edge 99, Type (0, 0), BuildingBlock: OJICUG_clean_linker_0, # of connection points: 2
#     Edge 100, Type (0, 0), BuildingBlock: OJICUG_clean_linker_0, # of connection points: 2
#     Edge 101, Type (0, 0), BuildingBlock: OJICUG_clean_linker_0, # of connection points: 2
#     Edge 102, Type (0, 0), BuildingBlock: OJICUG_clean_linker_0, # of connection points: 2
#     Edge 103, Type (0, 0), BuildingBlock: OJICUG_clean_linker_0, # of connection points: 2
#     Edge 104, Type (0, 0), BuildingBlock: OJICUG_clean_linker_0, # of connection points: 2
#     Edge 105, Type (0, 0), BuildingBlock: OJICUG_clean_linker_0, # of connection points: 2
#     Edge 106, Type (0, 0), BuildingBlock: OJICUG_clean_linker_0, # of connection points: 2
#     Edge 107, Type (0, 0), BuildingBlock: OJICUG_clean_linker_0, # of connection points: 2
# Relax obj value: 0.036
# Max RMSD: 0.159
# Mean RMSD: 0.157
data_MOF--net-uml--node1-NAWXER_clean_sbu_0--edge1-OJICUG_clean_linker_0
_symmetry_space_group_name_H-M    P1
_symmetry_Int_Tables_number       1
_symmetry_cell_setting            triclinic
loop_
_symmetry_equiv_pos_as_xyz
'x, y, z'
_cell_length_a     71.421537
_cell_length_b     71.411515
_cell_length_c     21.173997
_cell_angle_alpha  89.998148
_cell_angle_beta   90.002643
_cell_angle_gamma 120.00973
loop_
_atom_site_label
_atom_site_type_symbol
_atom_site_fract_x
_atom_site_fract_y
_atom_site_fract_z
_atom_type_partial_charge
C0 C 0.34957 0.13682 0.17756 0.0
C1 C 0.38486 0.09373 0.14796 0.0
O2 O 0.33624 0.11645 0.17546 0.0
Zn3 Zn 0.33725 0.08719 0.16998 0.0
O4 O 0.36978 0.14358 0.17821 0.0
Zn5 Zn 0.36822 0.11564 0.17264 0.0
O6 O 0.35398 0.10509 0.08078 0.0
O7 O 0.32186 0.07576 0.0918 0.0
O8 O 0.39435 0.11394 0.15913 0.0
O9 O 0.36423 0.0824 0.1532 0.0
O10 O 0.3242 0.07246 0.24787 0.0
O11 O 0.35626 0.10115 0.26364 0.0
C12 C 0.33665 0.08978 0.0564 0.0
C13 C 0.33909 0.08483 0.2856 0.0
C14 C 0.91034 0.24696 0.05703 0.0
C15 C 0.91528 0.25434 0.2862 0.0
O16 O 0.89507 0.24906 0.08136 0.0
Zn17 Zn 0.88456 0.25282 0.17323 0.0
O18 O 0.9243 0.2461 0.09246 0.0
Zn19 Zn 0.91291 0.25014 0.17059 0.0
O20 O 0.88355 0.21993 0.17606 0.0
O21 O 0.85655 0.22652 0.1788 0.0
O22 O 0.9276 0.25174 0.24849 0.0
O23 O 0.89902 0.25528 0.26424 0.0
O24 O 0.88639 0.28069 0.15974 0.0
O25 O 0.91786 0.28197 0.15376 0.0
C26 C 0.86321 0.21299 0.17815 0.0
C27 C 0.9066 0.29135 0.14853 0.0
C28 C 0.75317 0.66326 0.05673 0.0
C29 C 0.74573 0.66083 0.28591 0.0
O30 O 0.75109 0.6459 0.08109 0.0
Zn31 Zn 0.74731 0.63164 0.173 0.0
O32 O 0.75398 0.67807 0.09214 0.0
Zn33 Zn 0.74994 0.66265 0.17029 0.0
O34 O 0.78016 0.66356 0.17589 0.0
O35 O 0.77364 0.62998 0.17867 0.0
O36 O 0.74829 0.67573 0.24814 0.0
O37 O 0.74482 0.64364 0.26399 0.0
O38 O 0.71946 0.60555 0.15945 0.0
O39 O 0.71815 0.63572 0.15335 0.0
C40 C 0.78714 0.65018 0.17804 0.0
C41 C 0.70879 0.61508 0.14812 0.0
C42 C 0.13722 0.35017 0.33244 0.0
C43 C 0.09399 0.38533 0.36145 0.0
O44 O 0.11686 0.33682 0.3344 0.0
Zn45 Zn 0.08756 0.33776 0.33952 0.0
O46 O 0.14395 0.37037 0.3316 0.0
Zn47 Zn 0.11597 0.36876 0.33688 0.0
O48 O 0.10541 0.3545 0.42876 0.0
O49 O 0.07611 0.32234 0.41766 0.0
O50 O 0.11421 0.39485 0.3503 0.0
O51 O 0.08271 0.36469 0.35622 0.0
O52 O 0.0729 0.32467 0.26159 0.0
O53 O 0.10155 0.35675 0.24581 0.0
C54 C 0.09011 0.33714 0.45309 0.0
C55 C 0.08527 0.33956 0.22384 0.0
C56 C 0.66343 0.75323 0.4538 0.0
C57 C 0.6611 0.74605 0.22456 0.0
O58 O 0.64608 0.75115 0.42943 0.0
Zn59 Zn 0.63185 0.74747 0.33752 0.0
O60 O 0.67827 0.7541 0.41839 0.0
Zn61 Zn 0.66288 0.75014 0.34022 0.0
O62 O 0.66375 0.78036 0.33512 0.0
O63 O 0.63016 0.77379 0.33223 0.0
O64 O 0.67601 0.74862 0.26231 0.0
O65 O 0.64389 0.74509 0.2465 0.0
O66 O 0.60579 0.71959 0.3508 0.0
O67 O 0.63597 0.71829 0.35677 0.0
C68 C 0.65035 0.78731 0.33312 0.0
C69 C 0.61533 0.70891 0.3619 0.0
C70 C 0.21292 0.86292 0.33311 0.0
C71 C 0.29134 0.9062 0.3618 0.0
O72 O 0.21993 0.88328 0.33508 0.0
Zn73 Zn 0.25017 0.91259 0.34015 0.0
O74 O 0.2264 0.8562 0.33225 0.0
Zn75 Zn 0.25277 0.88418 0.33751 0.0
O76 O 0.24913 0.89477 0.42939 0.0
O77 O 0.24626 0.92405 0.41833 0.0
O78 O 0.28064 0.88597 0.35082 0.0
O79 O 0.28198 0.91747 0.35662 0.0
O80 O 0.25172 0.92725 0.26223 0.0
O81 O 0.2552 0.89862 0.24646 0.0
C82 C 0.24709 0.91007 0.45375 0.0
C83 C 0.25428 0.9149 0.2245 0.0
C84 C 0.65028 0.86315 0.83417 0.0
C85 C 0.61523 0.90648 0.86355 0.0
O86 O 0.63009 0.85644 0.83352 0.0
Zn87 Zn 0.63175 0.88444 0.83902 0.0
O88 O 0.66366 0.8835 0.83624 0.0
Zn89 Zn 0.66277 0.91283 0.84165 0.0
O90 O 0.67818 0.92424 0.91982 0.0
O91 O 0.646 0.89497 0.93088 0.0
O92 O 0.63587 0.91774 0.85834 0.0
O93 O 0.60568 0.88625 0.85246 0.0
O94 O 0.64375 0.8989 0.74801 0.0
O95 O 0.67587 0.92752 0.76375 0.0
C96 C 0.66336 0.91026 0.95523 0.0
C97 C 0.66095 0.91517 0.72604 0.0
C98 C 0.08986 0.75325 0.95539 0.0
C99 C 0.0849 0.74589 0.7262 0.0
O100 O 0.0759 0.75413 0.91997 0.0
Zn101 Zn 0.08727 0.75007 0.84182 0.0
O102 O 0.10511 0.75113 0.93104 0.0
Zn103 Zn 0.1156 0.74736 0.83915 0.0
O104 O 0.14363 0.77363 0.83359 0.0
O105 O 0.11665 0.78025 0.83636 0.0
O106 O 0.10115 0.74493 0.74815 0.0
O107 O 0.07258 0.7485 0.76394 0.0
O108 O 0.08229 0.71823 0.85863 0.0
O109 O 0.11374 0.71947 0.85259 0.0
C110 C 0.13699 0.78717 0.83426 0.0
C111 C 0.09353 0.70883 0.86382 0.0
C112 C 0.25434 0.33909 0.72558 0.0
C113 C 0.24686 0.33662 0.95476 0.0
O114 O 0.25177 0.32418 0.76334 0.0
Zn115 Zn 0.25014 0.33728 0.84123 0.0
O116 O 0.25528 0.3563 0.7475 0.0
Zn117 Zn 0.25283 0.36831 0.83851 0.0
O118 O 0.28069 0.39436 0.85211 0.0
O119 O 0.28196 0.36416 0.85837 0.0
O120 O 0.249 0.35401 0.93042 0.0
O121 O 0.24602 0.32181 0.91934 0.0
O122 O 0.21995 0.33645 0.83563 0.0
O123 O 0.22656 0.37005 0.83285 0.0
C124 C 0.29133 0.38481 0.86361 0.0
C125 C 0.21303 0.34986 0.83349 0.0
C126 C 0.91005 0.66327 0.55918 0.0
C127 C 0.9149 0.66087 0.78842 0.0
O128 O 0.92403 0.67808 0.59462 0.0
Zn129 Zn 0.91258 0.66266 0.67274 0.0
O130 O 0.89476 0.64591 0.5835 0.0
Zn131 Zn 0.8842 0.63165 0.6754 0.0
O132 O 0.8562 0.62999 0.68066 0.0
O133 O 0.88325 0.66356 0.67779 0.0
O134 O 0.89863 0.64366 0.76647 0.0
O135 O 0.92724 0.67577 0.75066 0.0
O136 O 0.91747 0.63575 0.65603 0.0
O137 O 0.88598 0.60557 0.662 0.0
C138 C 0.8629 0.65018 0.67975 0.0
C139 C 0.90619 0.6151 0.65082 0.0
C140 C 0.33847 0.25376 0.78706 0.0
C141 C 0.33621 0.24663 0.5578 0.0
O142 O 0.32358 0.25119 0.74928 0.0
Zn143 Zn 0.33675 0.24972 0.67138 0.0
O144 O 0.3557 0.25474 0.76514 0.0
Zn145 Zn 0.36777 0.2524 0.67414 0.0
O146 O 0.39383 0.28028 0.66103 0.0
O147 O 0.36366 0.28158 0.65491 0.0
O148 O 0.35357 0.24873 0.58218 0.0
O149 O 0.32137 0.24576 0.5932 0.0
O150 O 0.33591 0.2195 0.67643 0.0
O151 O 0.36951 0.22612 0.67941 0.0
C152 C 0.3843 0.29096 0.64988 0.0
C153 C 0.34933 0.21258 0.67846 0.0
C154 C 0.78736 0.13732 0.67954 0.0
C155 C 0.70898 0.09408 0.65043 0.0
O156 O 0.77389 0.14404 0.68038 0.0
Zn157 Zn 0.74752 0.11605 0.67504 0.0
O158 O 0.78037 0.11696 0.67755 0.0
Zn159 Zn 0.75011 0.08765 0.67239 0.0
O160 O 0.75407 0.0762 0.59425 0.0
O161 O 0.75121 0.10549 0.58316 0.0
O162 O 0.71832 0.08279 0.65567 0.0
O163 O 0.71968 0.1143 0.66157 0.0
O164 O 0.74506 0.1016 0.7661 0.0
O165 O 0.74852 0.07297 0.75031 0.0
C166 C 0.75325 0.09019 0.55882 0.0
C167 C 0.74596 0.08532 0.78805 0.0
C168 C 0.0062 0.41863 0.61969 0.0
C169 C 0.00371 0.42355 0.39051 0.0
O170 O 0.02337 0.43493 0.59773 0.0
Zn171 Zn 0.03534 0.44941 0.50668 0.0
O172 O 0.99129 0.40627 0.58198 0.0
Zn173 Zn 0.00434 0.42099 0.50409 0.0
O174 O 0.03128 0.41615 0.48726 0.0
O175 O 0.06144 0.44766 0.49312 0.0
O176 O 0.98892 0.40956 0.42596 0.0
O177 O 0.02106 0.43886 0.41484 0.0
O178 O 0.03694 0.47738 0.51224 0.0
O179 O 0.00339 0.45028 0.50958 0.0
C180 C 0.05192 0.42744 0.48198 0.0
C181 C 0.01673 0.47064 0.51165 0.0
C182 C 0.5297 0.54621 0.51157 0.0
C183 C 0.57314 0.62458 0.48176 0.0
O184 O 0.55004 0.55314 0.50944 0.0
Zn185 Zn 0.57941 0.58334 0.50383 0.0
O186 O 0.52305 0.55974 0.51212 0.0
Zn187 Zn 0.55107 0.58604 0.50646 0.0
O188 O 0.56155 0.58225 0.4146 0.0
O189 O 0.59077 0.57927 0.42569 0.0
O190 O 0.55292 0.61393 0.49298 0.0
O191 O 0.58438 0.61518 0.48697 0.0
O192 O 0.59411 0.58494 0.58171 0.0
O193 O 0.56552 0.58849 0.59746 0.0
C194 C 0.57681 0.58013 0.39026 0.0
C195 C 0.58178 0.58754 0.61943 0.0
C196 C 0.41999 0.9967 0.39004 0.0
C197 C 0.41263 0.99426 0.61924 0.0
O198 O 0.41794 0.97935 0.41438 0.0
Zn199 Zn 0.41421 0.96509 0.50627 0.0
O200 O 0.42081 0.0115 0.42548 0.0
Zn201 Zn 0.4168 0.99608 0.50361 0.0
O202 O 0.44704 0.99702 0.50908 0.0
O203 O 0.44056 0.96346 0.51183 0.0
O204 O 0.41517 0.00916 0.58149 0.0
O205 O 0.41173 0.97708 0.59729 0.0
O206 O 0.38636 0.93898 0.49282 0.0
O207 O 0.38501 0.96914 0.4868 0.0
C208 C 0.45404 0.98366 0.51117 0.0
C209 C 0.37567 0.9485 0.48159 0.0
C210 C 0.80366 0.68333 0.6652 0.0
C211 C 0.7604 0.71842 0.69446 0.0
O212 O 0.78331 0.66995 0.66717 0.0
Zn213 Zn 0.75399 0.67086 0.67231 0.0
O214 O 0.81036 0.70353 0.66433 0.0
Zn215 Zn 0.78237 0.70187 0.66965 0.0
O216 O 0.77183 0.68759 0.76154 0.0
O217 O 0.74255 0.65542 0.75042 0.0
O218 O 0.7806 0.72795 0.68317 0.0
O219 O 0.74911 0.69778 0.6892 0.0
O220 O 0.73932 0.65778 0.59437 0.0
O221 O 0.76794 0.68988 0.57859 0.0
C222 C 0.75654 0.67023 0.78586 0.0
C223 C 0.75167 0.67268 0.55663 0.0
C224 C 0.32734 0.07898 0.55632 0.0
C225 C 0.32976 0.08633 0.78553 0.0
O226 O 0.31012 0.07799 0.57828 0.0
Zn227 Zn 0.2981 0.0804 0.66931 0.0
O228 O 0.34228 0.08162 0.59406 0.0
Zn229 Zn 0.32916 0.08316 0.67197 0.0
O230 O 0.30233 0.0513 0.68883 0.0
O231 O 0.2721 0.0525 0.68283 0.0
O232 O 0.34461 0.08722 0.75011 0.0
O233 O 0.31238 0.08418 0.76119 0.0
O234 O 0.29631 0.10666 0.66388 0.0
O235 O 0.32993 0.11333 0.66672 0.0
C236 C 0.28169 0.04188 0.69408 0.0
C237 C 0.31649 0.12022 0.66469 0.0
C238 C 0.95818 0.2398 0.69443 0.0
C239 C 0.87979 0.19649 0.66554 0.0
O240 O 0.94882 0.25107 0.68919 0.0
Zn241 Zn 0.91701 0.24617 0.67258 0.0
O242 O 0.94749 0.21957 0.6834 0.0
Zn243 Zn 0.91963 0.21777 0.66998 0.0
O244 O 0.92206 0.2322 0.57893 0.0
O245 O 0.91857 0.26082 0.59463 0.0
O246 O 0.89327 0.18978 0.6647 0.0
O247 O 0.88678 0.21685 0.6675 0.0
O248 O 0.91307 0.25762 0.75075 0.0
O249 O 0.91595 0.22835 0.76182 0.0
C250 C 0.92113 0.24847 0.55693 0.0
C251 C 0.9139 0.24364 0.78617 0.0
C252 C 0.32667 0.24784 0.05777 0.0
C253 C 0.32923 0.24298 0.28695 0.0
O254 O 0.34159 0.2602 0.09545 0.0
Zn255 Zn 0.32856 0.24552 0.17338 0.0
O256 O 0.30949 0.23155 0.07979 0.0
Zn257 Zn 0.29755 0.21711 0.17088 0.0
O258 O 0.27147 0.2189 0.18459 0.0
O259 O 0.30166 0.25039 0.19032 0.0
O260 O 0.31186 0.22767 0.26268 0.0
O261 O 0.34402 0.25696 0.25146 0.0
O262 O 0.32948 0.21622 0.16792 0.0
O263 O 0.29592 0.18912 0.16537 0.0
C264 C 0.28103 0.23913 0.19572 0.0
C265 C 0.31613 0.19586 0.16592 0.0
C266 C 0.7567 0.08669 0.28796 0.0
C267 C 0.75172 0.07925 0.05877 0.0
O268 O 0.74273 0.08753 0.25254 0.0
Zn269 Zn 0.75409 0.08344 0.17441 0.0
O270 O 0.77196 0.08456 0.26361 0.0
Zn271 Zn 0.78243 0.08075 0.17174 0.0
O272 O 0.81045 0.10704 0.16612 0.0
O273 O 0.78345 0.11364 0.16885 0.0
O274 O 0.76798 0.07831 0.08072 0.0
O275 O 0.73939 0.08183 0.09651 0.0
O276 O 0.74913 0.05161 0.19139 0.0
O277 O 0.78059 0.05288 0.1853 0.0
C278 C 0.80379 0.12057 0.16673 0.0
C279 C 0.76038 0.04223 0.19663 0.0
C280 C 0.87959 0.68339 0.16704 0.0
C281 C 0.95793 0.71844 0.19702 0.0
O282 O 0.89309 0.70359 0.16646 0.0
Zn283 Zn 0.9194 0.70191 0.1721 0.0
O284 O 0.88655 0.67001 0.16916 0.0
Zn285 Zn 0.91676 0.6709 0.17476 0.0
O286 O 0.91269 0.65545 0.25289 0.0
O287 O 0.91561 0.68762 0.26398 0.0
O288 O 0.94856 0.6978 0.19176 0.0
O289 O 0.94727 0.72799 0.1857 0.0
O290 O 0.92187 0.68992 0.08108 0.0
O291 O 0.9184 0.65782 0.09688 0.0
C292 C 0.91351 0.67025 0.28832 0.0
C293 C 0.92095 0.67272 0.05913 0.0
C294 C 0.57703 0.99686 0.89164 0.0
C295 C 0.5819 0.99451 0.12088 0.0
O296 O 0.59101 0.01169 0.92706 0.0
Zn297 Zn 0.57957 0.99629 1.00522 0.0
O298 O 0.56174 0.97951 0.91599 0.0
Zn299 Zn 0.55119 0.96528 0.00791 0.0
O300 O 0.5232 0.9636 0.01322 0.0
O301 O 0.55023 0.99718 0.01032 0.0
O302 O 0.56563 0.9773 0.09894 0.0
O303 O 0.59423 0.00942 0.08312 0.0
O304 O 0.58447 0.96937 0.9886 0.0
O305 O 0.55297 0.93919 0.99462 0.0
C306 C 0.52988 0.9838 0.01232 0.0
C307 C 0.57319 0.94872 0.98346 0.0
C308 C 0.0514 0.62462 0.98424 0.0
C309 C 0.01646 0.54625 0.01306 0.0
O310 O 0.06095 0.61395 0.99538 0.0
Zn311 Zn 0.03491 0.58608 0.00867 0.0
O312 O 0.03076 0.61523 0.98938 0.0
Zn313 Zn 0.00387 0.58338 1.00597 0.0
O314 O 0.99074 0.58489 0.08387 0.0
O315 O 0.02288 0.58847 0.09968 0.0
O316 O 0.00304 0.55317 0.01105 0.0
O317 O 0.03664 0.55979 0.01398 0.0
O318 O 0.02068 0.58239 0.91675 0.0
O319 O 0.98848 0.57941 0.92781 0.0
C320 C 0.00566 0.5875 0.12162 0.0
C321 C 0.00331 0.58029 0.89239 0.0
C322 C 0.45378 0.47038 0.01374 0.0
C323 C 0.37538 0.42704 0.98496 0.0
O324 O 0.44029 0.47709 0.01461 0.0
Zn325 Zn 0.41394 0.44909 0.00941 0.0
O326 O 0.4468 0.45003 0.01184 0.0
Zn327 Zn 0.41657 0.4207 0.00686 0.0
O328 O 0.4205 0.40922 0.92872 0.0
O329 O 0.4176 0.43849 0.91761 0.0
O330 O 0.38475 0.41578 0.99026 0.0
O331 O 0.38606 0.44727 0.99593 0.0
O332 O 0.4115 0.43468 0.10048 0.0
O333 O 0.41501 0.40607 0.08484 0.0
C334 C 0.41965 0.42319 0.89328 0.0
C335 C 0.41243 0.41842 0.12251 0.0
C336 C 0.6835 0.80391 0.84575 0.0
C337 C 0.71852 0.76058 0.81592 0.0
O338 O 0.67012 0.78356 0.8437 0.0
Zn339 Zn 0.671 0.75422 0.83822 0.0
O340 O 0.70369 0.81061 0.84633 0.0
Zn341 Zn 0.70202 0.78261 0.84078 0.0
O342 O 0.68772 0.77208 0.74896 0.0
O343 O 0.65555 0.74282 0.76011 0.0
O344 O 0.72808 0.7808 0.8271 0.0
O345 O 0.69788 0.74931 0.82127 0.0
O346 O 0.65795 0.73954 0.91614 0.0
O347 O 0.69006 0.76816 0.93183 0.0
C348 C 0.67035 0.75679 0.72466 0.0
C349 C 0.67287 0.75188 0.95383 0.0
C350 C 0.24852 0.92091 0.95378 0.0
C351 C 0.24357 0.91347 0.72461 0.0
O352 O 0.23226 0.92185 0.93181 0.0
Zn353 Zn 0.21781 0.91938 0.84078 0.0
O354 O 0.26086 0.91833 0.91606 0.0
Zn355 Zn 0.24616 0.91671 0.83816 0.0
O356 O 0.2511 0.94853 0.82112 0.0
O357 O 0.21962 0.94723 0.82718 0.0
O358 O 0.25754 0.91263 0.76005 0.0
O359 O 0.22831 0.91558 0.74893 0.0
O360 O 0.1898 0.8931 0.8464 0.0
O361 O 0.21679 0.8865 0.84369 0.0
C362 C 0.23983 0.95789 0.81584 0.0
C363 C 0.19645 0.87957 0.84579 0.0
C364 C 0.08675 0.33013 0.72395 0.0
C365 C 0.07934 0.32768 0.95313 0.0
O366 O 0.08463 0.31274 0.74827 0.0
Zn367 Zn 0.08083 0.29846 0.84018 0.0
O368 O 0.0876 0.34494 0.7594 0.0
Zn369 Zn 0.08352 0.32949 0.8375 0.0
O370 O 0.11371 0.33032 0.843 0.0
O371 O 0.1071 0.29672 0.84577 0.0
O372 O 0.08192 0.34259 0.91537 0.0
O373 O 0.07839 0.31047 0.93121 0.0
O374 O 0.05297 0.27241 0.82665 0.0
O375 O 0.0517 0.3026 0.82052 0.0
C376 C 0.12064 0.3169 0.84511 0.0
C377 C 0.04232 0.28196 0.81529 0.0
C378 C 0.4234 0.00368 0.11918 0.0
C379 C 0.41854 0.00608 0.88995 0.0
O380 O 0.43867 0.02105 0.09485 0.0
Zn381 Zn 0.4492 0.03532 1.00298 0.0
O382 O 0.40944 0.98885 0.08375 0.0
Zn383 Zn 0.42086 0.00428 1.00561 0.0
O384 O 0.45022 0.00345 1.00045 0.0
O385 O 0.47723 0.03705 0.99765 0.0
O386 O 0.40621 0.99116 0.92768 0.0
O387 O 0.43479 0.0233 0.91192 0.0
O388 O 0.44735 0.06136 0.01639 0.0
O389 O 0.41589 0.03114 0.02232 0.0
C390 C 0.47056 0.01686 0.99847 0.0
C391 C 0.42713 0.05179 0.02755 0.0
C392 C 0.98356 0.4539 0.99896 0.0
C393 C 0.94868 0.37553 0.02792 0.0
O394 O 0.99699 0.44698 1.00096 0.0
Zn395 Zn 0.99619 0.41679 0.00608 0.0
O396 O 0.96338 0.44035 0.99808 0.0
Zn397 Zn 0.96514 0.41407 1.00339 0.0
O398 O 0.97939 0.41781 0.0953 0.0
O399 O 0.0116 0.42081 0.08424 0.0
O400 O 0.93911 0.38618 0.01673 0.0
O401 O 0.96932 0.38494 0.02275 0.0
O402 O 0.00932 0.41529 0.92816 0.0
O403 O 0.97718 0.41171 0.91236 0.0
C404 C 0.99677 0.41993 0.11965 0.0
C405 C 0.99441 0.41269 0.89041 0.0
C406 C 0.58034 0.57675 0.1194 0.0
C407 C 0.58753 0.58154 0.89016 0.0
O408 O 0.58238 0.56145 0.09507 0.0
Zn409 Zn 0.58603 0.55085 1.00321 0.0
O410 O 0.5795 0.59072 0.08397 0.0
Zn411 Zn 0.58342 0.57925 1.00581 0.0
O412 O 0.55318 0.54993 1.00085 0.0
O413 O 0.55967 0.52286 0.99802 0.0
O414 O 0.58496 0.59389 0.92786 0.0
O415 O 0.58845 0.56527 0.91214 0.0
O416 O 0.6139 0.55264 0.01659 0.0
O417 O 0.61523 0.58414 0.02236 0.0
C418 C 0.54619 0.52957 0.99893 0.0
C419 C 0.62459 0.57287 0.02759 0.0
C420 C 0.99641 0.57682 0.62152 0.0
C421 C 0.99391 0.58173 0.39234 0.0
O422 O 0.01121 0.59081 0.58609 0.0
Zn423 Zn 0.99578 0.5794 0.50795 0.0
O424 O 0.97905 0.56152 0.59719 0.0
Zn425 Zn 0.96477 0.55098 0.50537 0.0
O426 O 0.96315 0.523 0.49981 0.0
O427 O 0.99671 0.55009 0.50244 0.0
O428 O 0.97673 0.56544 0.41434 0.0
O429 O 0.00882 0.5941 0.43004 0.0
O430 O 0.96886 0.58426 0.52481 0.0
O431 O 0.93869 0.55275 0.51896 0.0
C432 C 0.98335 0.52974 0.50038 0.0
C433 C 0.94822 0.57297 0.5301 0.0
C434 C 0.42312 0.41983 0.62242 0.0
C435 C 0.41815 0.4125 0.39324 0.0
O436 O 0.40917 0.42073 0.58702 0.0
Zn437 Zn 0.42052 0.41668 0.50883 0.0
O438 O 0.43836 0.4177 0.59804 0.0
Zn439 Zn 0.44885 0.41394 0.50619 0.0
O440 O 0.47688 0.44023 0.50059 0.0
O441 O 0.44991 0.44685 0.50329 0.0
O442 O 0.43439 0.41152 0.41522 0.0
O443 O 0.40584 0.41512 0.43095 0.0
O444 O 0.4155 0.38482 0.52549 0.0
O445 O 0.44694 0.38602 0.51957 0.0
C446 C 0.47024 0.45377 0.50116 0.0
C447 C 0.42671 0.37539 0.53066 0.0
C448 C 0.62485 0.05203 0.52946 0.0
C449 C 0.54649 0.01695 0.49965 0.0
O450 O 0.61418 0.06157 0.51822 0.0
Zn451 Zn 0.58632 0.0355 0.50462 0.0
O452 O 0.61548 0.03139 0.52416 0.0
Zn453 Zn 0.58369 0.00448 0.50722 0.0
O454 O 0.58533 0.99142 0.42931 0.0
O455 O 0.58879 0.02352 0.41357 0.0
O456 O 0.55347 0.00358 0.50171 0.0
O457 O 0.55998 0.03715 0.49905 0.0
O458 O 0.58255 0.0212 0.59646 0.0
O459 O 0.57965 0.98903 0.58533 0.0
C460 C 0.58788 0.00633 0.39159 0.0
C461 C 0.58046 0.00383 0.62078 0.0
C462 C 0.24821 0.32721 0.45486 0.0
C463 C 0.24329 0.32965 0.22563 0.0
O464 O 0.26058 0.3421 0.41709 0.0
Zn465 Zn 0.24585 0.32903 0.3392 0.0
O466 O 0.23189 0.31004 0.43295 0.0
Zn467 Zn 0.2174 0.29808 0.34191 0.0
O468 O 0.21905 0.27193 0.32838 0.0
O469 O 0.2506 0.30203 0.32237 0.0
O470 O 0.22796 0.31232 0.24999 0.0
O471 O 0.25732 0.34443 0.26105 0.0
O472 O 0.2166 0.33007 0.34442 0.0
O473 O 0.18947 0.29654 0.34733 0.0
C474 C 0.23926 0.2814 0.31711 0.0
C475 C 0.19624 0.31675 0.34647 0.0
C476 C 0.67268 0.92102 0.45531 0.0
C477 C 0.67025 0.91373 0.2261 0.0
O478 O 0.65776 0.91842 0.4176 0.0
Zn479 Zn 0.67085 0.91687 0.33966 0.0
O480 O 0.68989 0.92198 0.43333 0.0
Zn481 Zn 0.70189 0.91955 0.34228 0.0
O482 O 0.72793 0.94744 0.32881 0.0
O483 O 0.69773 0.94871 0.3229 0.0
O484 O 0.68762 0.91583 0.25043 0.0
O485 O 0.65543 0.91287 0.26153 0.0
O486 O 0.67 0.88666 0.34484 0.0
O487 O 0.70359 0.89324 0.34764 0.0
C488 C 0.71837 0.9581 0.31766 0.0
C489 C 0.6834 0.87971 0.34683 0.0
C490 C 0.04208 0.76056 0.31788 0.0
C491 C 0.12048 0.8038 0.34695 0.0
O492 O 0.05278 0.78078 0.32895 0.0
Zn493 Zn 0.08064 0.78255 0.34243 0.0
O494 O 0.05143 0.74927 0.32314 0.0
Zn495 Zn 0.08322 0.75413 0.33984 0.0
O496 O 0.08162 0.73947 0.41778 0.0
O497 O 0.07818 0.76811 0.43349 0.0
O498 O 0.11347 0.78344 0.34499 0.0
O499 O 0.10701 0.81053 0.34775 0.0
O500 O 0.08431 0.77197 0.25059 0.0
O501 O 0.08717 0.74267 0.26169 0.0
C502 C 0.07907 0.75183 0.45548 0.0
C503 C 0.08635 0.75666 0.22626 0.0
C504 C 0.31238 0.06933 0.44652 0.0
C505 C 0.33033 0.07857 0.48721 0.0
H506 H 0.30109 0.06362 0.35083 0.0
C507 C 0.35121 0.08864 0.46098 0.0
H508 H 0.2961 0.06141 0.46537 0.0
C509 C 0.35407 0.09029 0.39541 0.0
C510 C 0.33612 0.08144 0.35472 0.0
H511 H 0.36536 0.096 0.4911 0.0
H512 H 0.37035 0.09875 0.37656 0.0
C513 C 0.31524 0.07052 0.38095 0.0
C514 C 0.9307 0.24305 0.44714 0.0
C515 C 0.92155 0.25185 0.48781 0.0
H516 H 0.93634 0.23738 0.35146 0.0
C517 C 0.91156 0.26273 0.46156 0.0
H518 H 0.93855 0.23462 0.46601 0.0
C519 C 0.90991 0.26395 0.39598 0.0
C520 C 0.91867 0.25475 0.35532 0.0
H521 H 0.90427 0.26961 0.49167 0.0
H522 H 0.90153 0.27184 0.37712 0.0
C523 C 0.9295 0.24471 0.38157 0.0
C524 C 0.75706 0.68762 0.44676 0.0
C525 C 0.74827 0.66968 0.48751 0.0
H526 H 0.7627 0.69888 0.35103 0.0
C527 C 0.73738 0.64879 0.46133 0.0
H528 H 0.76549 0.70391 0.46556 0.0
C529 C 0.73616 0.6459 0.39576 0.0
C530 C 0.74533 0.66384 0.35502 0.0
H531 H 0.73052 0.63464 0.4915 0.0
H532 H 0.72826 0.62961 0.37697 0.0
C533 C 0.75538 0.68473 0.3812 0.0
C534 C 0.08902 0.35159 0.0484 0.0
C535 C 0.07896 0.3307 0.02224 0.0
H536 H 0.09914 0.37078 0.13274 0.0
C537 C 0.06977 0.31276 0.063 0.0
H538 H 0.09634 0.36573 0.01822 0.0
C539 C 0.07099 0.31566 0.12856 0.0
C540 C 0.08189 0.33655 0.15472 0.0
H541 H 0.06186 0.29647 0.04422 0.0
H542 H 0.06412 0.30152 0.15875 0.0
C543 C 0.0907 0.35449 0.11396 0.0
C544 C 0.68498 0.75569 0.12923 0.0
C545 C 0.6641 0.74564 0.15545 0.0
H546 H 0.70413 0.76576 0.04482 0.0
C547 C 0.64615 0.73643 0.11475 0.0
H548 H 0.69913 0.76302 0.15937 0.0
C549 C 0.64902 0.73763 0.04918 0.0
C550 C 0.6699 0.74851 0.02296 0.0
H551 H 0.62987 0.72854 0.13358 0.0
H552 H 0.63486 0.73074 0.01905 0.0
C553 C 0.68785 0.75733 0.06366 0.0
C554 C 0.24474 0.92921 0.12917 0.0
C555 C 0.25471 0.91831 0.15539 0.0
H556 H 0.23474 0.93837 0.04476 0.0
C557 C 0.26387 0.90952 0.1147 0.0
H558 H 0.23744 0.93607 0.1593 0.0
C559 C 0.2627 0.91123 0.04913 0.0
C560 C 0.25189 0.92129 0.0229 0.0
H561 H 0.27171 0.90108 0.13353 0.0
H562 H 0.26955 0.90392 0.01899 0.0
C563 C 0.24312 0.93046 0.0636 0.0
C564 C 0.64597 0.90976 0.61624 0.0
C565 C 0.66392 0.91856 0.65692 0.0
H566 H 0.63467 0.90409 0.52055 0.0
C567 C 0.6848 0.92942 0.63068 0.0
H568 H 0.62969 0.90135 0.63509 0.0
C569 C 0.68766 0.93062 0.56511 0.0
C570 C 0.66971 0.92143 0.52443 0.0
H571 H 0.69896 0.93629 0.6608 0.0
H572 H 0.70394 0.9385 0.54625 0.0
C573 C 0.64883 0.91141 0.55067 0.0
C574 C 0.08861 0.73752 0.55083 0.0
C575 C 0.07865 0.74844 0.5246 0.0
H576 H 0.09861 0.72837 0.63525 0.0
C577 C 0.06953 0.75726 0.56529 0.0
H578 H 0.09588 0.73063 0.52071 0.0
C579 C 0.07072 0.75558 0.63086 0.0
C580 C 0.08151 0.7455 0.65709 0.0
H581 H 0.0617 0.76571 0.54645 0.0
H582 H 0.0639 0.76292 0.66099 0.0
C583 C 0.09025 0.73629 0.6164 0.0
C584 C 0.24283 0.31227 0.56474 0.0
C585 C 0.25165 0.33021 0.52397 0.0
H586 H 0.23723 0.30103 0.66049 0.0
C587 C 0.26262 0.3511 0.55013 0.0
H588 H 0.23434 0.29598 0.54596 0.0
C589 C 0.2639 0.354 0.61569 0.0
C590 C 0.25469 0.33607 0.65646 0.0
H591 H 0.26951 0.36524 0.51995 0.0
H592 H 0.27185 0.37029 0.63447 0.0
C593 C 0.24457 0.31517 0.6303 0.0
C594 C 0.9292 0.68476 0.8837 0.0
C595 C 0.91831 0.66387 0.85753 0.0
H596 H 0.93837 0.70394 0.96806 0.0
C597 C 0.90954 0.64593 0.89828 0.0
H598 H 0.93605 0.69891 0.85353 0.0
C599 C 0.91126 0.64882 0.96384 0.0
C600 C 0.92132 0.66972 0.99001 0.0
H601 H 0.90111 0.62964 0.87949 0.0
H602 H 0.90397 0.63468 0.99401 0.0
C603 C 0.93047 0.68765 0.94926 0.0
C604 C 0.35052 0.26215 0.96244 0.0
C605 C 0.32964 0.25122 0.98865 0.0
H606 H 0.36969 0.2713 0.87807 0.0
C607 C 0.31169 0.24236 0.94792 0.0
H608 H 0.36467 0.26906 0.99259 0.0
C609 C 0.31457 0.24403 0.88235 0.0
C610 C 0.33546 0.25413 0.85616 0.0
H611 H 0.29541 0.2339 0.96674 0.0
H612 H 0.30043 0.23668 0.85219 0.0
C613 C 0.3534 0.26337 0.89688 0.0
C614 C 0.73638 0.09069 0.89788 0.0
C615 C 0.74553 0.0819 0.85716 0.0
H616 H 0.73072 0.09629 0.99361 0.0
C617 C 0.75549 0.07097 0.88336 0.0
H618 H 0.72856 0.09915 0.87907 0.0
C619 C 0.75711 0.06971 0.94892 0.0
C620 C 0.74835 0.07889 0.98965 0.0
H621 H 0.76277 0.06411 0.8532 0.0
H622 H 0.76547 0.06179 0.96774 0.0
C623 C 0.73755 0.08898 0.96345 0.0
C624 C 0.97946 0.4031 0.78059 0.0
C625 C 0.99741 0.41232 0.8213 0.0
H626 H 0.96819 0.39742 0.68488 0.0
C627 C 0.01829 0.4224 0.79509 0.0
H628 H 0.96318 0.39517 0.79941 0.0
C629 C 0.02117 0.42407 0.72952 0.0
C630 C 0.00322 0.41524 0.68881 0.0
H631 H 0.03244 0.42974 0.82524 0.0
H632 H 0.03745 0.43253 0.7107 0.0
C633 C 0.98234 0.40432 0.71502 0.0
C634 C 0.57639 0.59711 0.72923 0.0
C635 C 0.58515 0.58792 0.68855 0.0
H636 H 0.57072 0.60273 0.82492 0.0
C637 C 0.59595 0.57784 0.71479 0.0
H638 H 0.56802 0.60502 0.71038 0.0
C639 C 0.59711 0.57614 0.78036 0.0
C640 C 0.58796 0.58494 0.82104 0.0
H641 H 0.60278 0.57052 0.68466 0.0
H642 H 0.60494 0.56769 0.79921 0.0
C643 C 0.578 0.59586 0.7948 0.0
C644 C 0.40431 0.98219 0.79464 0.0
C645 C 0.41515 0.00308 0.82083 0.0
H646 H 0.39524 0.96302 0.71026 0.0
C647 C 0.4239 0.02102 0.78011 0.0
H648 H 0.39748 0.96804 0.8248 0.0
C649 C 0.42223 0.01814 0.71454 0.0
C650 C 0.41223 0.99726 0.68835 0.0
H651 H 0.43229 0.03731 0.79892 0.0
H652 H 0.42951 0.03229 0.68439 0.0
C653 C 0.40309 0.97931 0.72908 0.0
C654 C 0.57825 0.98246 0.29628 0.0
C655 C 0.58826 0.00334 0.32247 0.0
H656 H 0.56815 0.96328 0.2119 0.0
C657 C 0.5974 0.02129 0.28174 0.0
H658 H 0.57097 0.9683 0.32643 0.0
C659 C 0.59616 0.0184 0.21618 0.0
C660 C 0.5853 0.99751 0.18999 0.0
H661 H 0.60527 0.03757 0.30056 0.0
H662 H 0.60298 0.03255 0.18602 0.0
C663 C 0.57655 0.97957 0.23071 0.0
C664 C 0.97893 0.57625 0.28253 0.0
C665 C 0.99688 0.5851 0.32322 0.0
H666 H 0.96764 0.57053 0.18683 0.0
C667 C 0.01776 0.59598 0.29698 0.0
H668 H 0.96265 0.56782 0.30138 0.0
C669 C 0.02062 0.59716 0.23141 0.0
C670 C 0.00267 0.58792 0.19073 0.0
H671 H 0.03191 0.60288 0.3271 0.0
H672 H 0.0369 0.60505 0.21257 0.0
C673 C 0.98179 0.57788 0.21696 0.0
C674 C 0.40283 0.42385 0.23225 0.0
C675 C 0.41198 0.41503 0.19163 0.0
H676 H 0.39717 0.42951 0.32791 0.0
C677 C 0.42192 0.4041 0.21793 0.0
H678 H 0.39502 0.4323 0.21335 0.0
C679 C 0.42353 0.40288 0.28351 0.0
C680 C 0.41478 0.41209 0.32413 0.0
H681 H 0.4292 0.39721 0.18786 0.0
H682 H 0.43188 0.39495 0.30241 0.0
C683 C 0.404 0.42217 0.29783 0.0
C684 C 0.34702 0.1886 0.17 0.0
C685 C 0.32456 0.18064 0.16767 0.0
H686 H 0.37255 0.18114 0.17542 0.0
C687 C 0.31048 0.15819 0.16945 0.0
H688 H 0.35838 0.20582 0.16895 0.0
C689 C 0.31865 0.14406 0.17346 0.0
C690 C 0.34111 0.15202 0.1758 0.0
H691 H 0.29313 0.15152 0.16805 0.0
H692 H 0.3073 0.12683 0.17451 0.0
C693 C 0.3552 0.17446 0.17402 0.0
C694 C 0.81125 0.1588 0.17079 0.0
C695 C 0.8191 0.14421 0.16842 0.0
H696 H 0.8189 0.19185 0.17618 0.0
C697 C 0.84152 0.15246 0.1701 0.0
H698 H 0.79405 0.15302 0.16982 0.0
C699 C 0.85575 0.17476 0.17405 0.0
C700 C 0.84791 0.18935 0.17643 0.0
H701 H 0.84811 0.14171 0.16867 0.0
H702 H 0.87296 0.18054 0.17503 0.0
C703 C 0.82548 0.1811 0.17474 0.0
C704 C 0.84764 0.68914 0.17021 0.0
C705 C 0.85594 0.67501 0.16865 0.0
H706 H 0.81952 0.69242 0.17494 0.0
C707 C 0.84138 0.65256 0.17101 0.0
H708 H 0.85836 0.70649 0.16877 0.0
C709 C 0.81908 0.64444 0.17486 0.0
C710 C 0.81079 0.65857 0.17643 0.0
H711 H 0.8472 0.64116 0.17013 0.0
H712 H 0.80836 0.62709 0.1763 0.0
C713 C 0.82534 0.68102 0.17406 0.0
C714 C 0.14447 0.31928 0.33748 0.0
C715 C 0.15243 0.34173 0.33476 0.0
H716 H 0.15192 0.29376 0.34381 0.0
C717 C 0.17487 0.35583 0.33682 0.0
H718 H 0.12726 0.30791 0.33625 0.0
C719 C 0.189 0.34766 0.34148 0.0
C720 C 0.18104 0.3252 0.34419 0.0
H721 H 0.18154 0.37318 0.33515 0.0
H722 H 0.20622 0.35902 0.3427 0.0
C723 C 0.1586 0.31111 0.34214 0.0
C724 C 0.64454 0.81921 0.33739 0.0
C725 C 0.6587 0.81095 0.33538 0.0
H726 H 0.6412 0.84728 0.34315 0.0
C727 C 0.68114 0.82553 0.33805 0.0
H728 H 0.6272 0.80847 0.33575 0.0
C729 C 0.68922 0.84782 0.34262 0.0
C730 C 0.67505 0.85607 0.34461 0.0
H731 H 0.69256 0.81974 0.33685 0.0
H732 H 0.70656 0.85856 0.34425 0.0
C733 C 0.65261 0.8415 0.34195 0.0
C734 C 0.17476 0.85562 0.33805 0.0
C735 C 0.18927 0.84768 0.3354 0.0
H736 H 0.14177 0.84812 0.34427 0.0
C737 C 0.18094 0.82525 0.33747 0.0
H738 H 0.1806 0.87283 0.33681 0.0
C739 C 0.15865 0.81109 0.34207 0.0
C740 C 0.14413 0.81903 0.34471 0.0
H741 H 0.19164 0.81859 0.33585 0.0
H742 H 0.1528 0.79388 0.34331 0.0
C743 C 0.15246 0.84147 0.34265 0.0
C744 C 0.64454 0.82545 0.83769 0.0
C745 C 0.65867 0.84789 0.83594 0.0
H746 H 0.64127 0.79405 0.8427 0.0
C747 C 0.68112 0.85579 0.83829 0.0
H748 H 0.6272 0.81882 0.83627 0.0
C749 C 0.68924 0.84161 0.84229 0.0
C750 C 0.67511 0.81917 0.84403 0.0
H751 H 0.69251 0.873 0.83727 0.0
H752 H 0.70659 0.84824 0.8437 0.0
C753 C 0.65266 0.81127 0.84169 0.0
C754 C 0.18897 0.84133 0.84169 0.0
C755 C 0.18114 0.85593 0.84407 0.0
H756 H 0.1813 0.80827 0.83625 0.0
C757 C 0.15872 0.8477 0.84239 0.0
H758 H 0.20617 0.8471 0.84266 0.0
C759 C 0.14448 0.82541 0.8384 0.0
C760 C 0.15231 0.81081 0.836 0.0
H761 H 0.15215 0.85846 0.84384 0.0
H762 H 0.12728 0.81964 0.83742 0.0
C763 C 0.17473 0.81904 0.8377 0.0
C764 C 0.15251 0.31104 0.84167 0.0
C765 C 0.14427 0.32523 0.84334 0.0
H766 H 0.18057 0.30767 0.8367 0.0
C767 C 0.15887 0.34767 0.8409 0.0
H768 H 0.14175 0.2937 0.84316 0.0
C769 C 0.18116 0.35572 0.83688 0.0
C770 C 0.18939 0.34153 0.83522 0.0
H771 H 0.1531 0.3591 0.84186 0.0
H772 H 0.19192 0.37306 0.8354 0.0
C773 C 0.1748 0.3191 0.83765 0.0
C774 C 0.81103 0.65251 0.67036 0.0
C775 C 0.81893 0.67495 0.6676 0.0
H776 H 0.81859 0.62706 0.67686 0.0
C777 C 0.84135 0.6891 0.66974 0.0
H778 H 0.79382 0.64111 0.66906 0.0
C779 C 0.85553 0.681 0.67454 0.0
C780 C 0.84764 0.65856 0.67731 0.0
H781 H 0.84798 0.70645 0.66805 0.0
H782 H 0.87274 0.6924 0.67584 0.0
C783 C 0.82521 0.64441 0.67516 0.0
C784 C 0.35523 0.18074 0.67424 0.0
C785 C 0.34102 0.18895 0.67616 0.0
H786 H 0.35865 0.15272 0.66854 0.0
C787 C 0.31859 0.17433 0.67337 0.0
H788 H 0.37256 0.19151 0.67597 0.0
C789 C 0.31057 0.15205 0.6688 0.0
C790 C 0.32478 0.14385 0.66689 0.0
H791 H 0.30715 0.18008 0.67449 0.0
H792 H 0.29324 0.14128 0.66708 0.0
C793 C 0.3472 0.15847 0.66966 0.0
C794 C 0.82554 0.14464 0.67455 0.0
C795 C 0.81101 0.15256 0.67725 0.0
H796 H 0.85853 0.15217 0.66825 0.0
C797 C 0.81932 0.17499 0.6752 0.0
H798 H 0.81971 0.12743 0.67578 0.0
C799 C 0.84161 0.18916 0.67055 0.0
C800 C 0.85614 0.18124 0.66785 0.0
H801 H 0.80862 0.18164 0.67686 0.0
H802 H 0.84744 0.20637 0.66932 0.0
C803 C 0.84783 0.15881 0.66991 0.0
C804 C 0.0224 0.5083 0.50821 0.0
C805 C 0.0083 0.48586 0.50997 0.0
H806 H 0.02561 0.53967 0.50326 0.0
C807 C 0.98585 0.47792 0.50772 0.0
H808 H 0.03975 0.51496 0.50956 0.0
C809 C 0.97768 0.49207 0.5038 0.0
C810 C 0.99178 0.51451 0.50205 0.0
H811 H 0.97448 0.4607 0.50876 0.0
H812 H 0.96033 0.48541 0.50246 0.0
C813 C 0.01424 0.52245 0.50429 0.0
C814 C 0.50799 0.48566 0.5042 0.0
C815 C 0.48556 0.47742 0.50267 0.0
H816 H 0.53943 0.51375 0.50874 0.0
C817 C 0.47773 0.49202 0.5049 0.0
H818 H 0.51457 0.4749 0.50285 0.0
C819 C 0.49196 0.51432 0.50857 0.0
C820 C 0.51439 0.52257 0.5101 0.0
H821 H 0.46052 0.48624 0.50403 0.0
H822 H 0.48538 0.52507 0.50992 0.0
C823 C 0.52223 0.50797 0.50787 0.0
C824 C 0.51453 0.02267 0.50308 0.0
C825 C 0.52284 0.00855 0.50137 0.0
H826 H 0.48639 0.02591 0.50805 0.0
C827 C 0.50831 0.98609 0.50373 0.0
H828 H 0.52524 0.04002 0.50164 0.0
C829 C 0.486 0.97796 0.50772 0.0
C830 C 0.47769 0.99208 0.50943 0.0
H831 H 0.51414 0.97471 0.50274 0.0
H832 H 0.47529 0.96061 0.50916 0.0
C833 C 0.49223 0.01453 0.50706 0.0
C834 C 0.50828 0.02268 1.00271 0.0
C835 C 0.48585 0.00851 1.00073 0.0
H836 H 0.53969 0.02601 0.0085 0.0
C837 C 0.47798 0.98607 1.00344 0.0
H838 H 0.51488 0.04002 1.00104 0.0
C839 C 0.49218 0.97799 0.00804 0.0
C840 C 0.51461 0.99216 0.01004 0.0
H841 H 0.46078 0.97465 1.00226 0.0
H842 H 0.48557 0.96065 0.00972 0.0
C843 C 0.52248 0.0146 0.00732 0.0
C844 C 0.02234 0.5144 0.00871 0.0
C845 C 0.00814 0.52262 0.01073 0.0
H846 H 0.02574 0.48637 1.00284 0.0
C847 C 0.98571 0.50802 0.00796 0.0
H848 H 0.03967 0.52517 0.01042 0.0
C849 C 0.97768 0.48574 1.00329 0.0
C850 C 0.99187 0.47753 1.00127 0.0
H851 H 0.97428 0.51378 0.00916 0.0
H852 H 0.96034 0.47498 1.00158 0.0
C853 C 0.0143 0.49213 1.00403 0.0
C854 C 0.48573 0.50806 0.00908 0.0
C855 C 0.47743 0.48564 0.01126 0.0
H856 H 0.51384 0.53945 1.00289 0.0
C857 C 0.49195 0.47772 0.00847 0.0
H858 H 0.47502 0.5147 0.01079 0.0
C859 C 0.51424 0.49189 1.00361 0.0
C860 C 0.52254 0.51432 1.00143 0.0
H861 H 0.48613 0.46051 0.0098 0.0
H862 H 0.52494 0.48525 1.00189 0.0
C863 C 0.50801 0.52223 1.00422 0.0
C864 C 0.4286 0.08547 0.07165 0.0
C865 C 0.41671 0.06341 0.05535 0.0
H866 H 0.42802 0.11246 0.11469 0.0
C867 C 0.39472 0.05159 0.07185 0.0
H868 H 0.44564 0.09498 0.06033 0.0
C869 C 0.38486 0.06138 0.10392 0.0
C870 C 0.39657 0.0834 0.12016 0.0
H871 H 0.38501 0.03455 0.06076 0.0
H872 H 0.36784 0.05159 0.11523 0.0
C873 C 0.41859 0.0954 0.10359 0.0
C874 C 0.93898 0.32361 0.10418 0.0
C875 C 0.91698 0.31338 0.12064 0.0
H876 H 0.96582 0.35053 0.0608 0.0
C877 C 0.90504 0.32347 0.10421 0.0
H878 H 0.94873 0.31633 0.11538 0.0
C879 C 0.915 0.3434 0.07221 0.0
C880 C 0.93703 0.35349 0.05572 0.0
H881 H 0.88799 0.3159 0.11548 0.0
H882 H 0.90552 0.35098 0.06102 0.0
C883 C 0.9488 0.34325 0.07206 0.0
C884 C 0.67662 0.58132 0.10419 0.0
C885 C 0.68677 0.60341 0.12014 0.0
H886 H 0.64905 0.55423 0.06145 0.0
C887 C 0.67661 0.61519 0.10317 0.0
H888 H 0.68415 0.57184 0.11587 0.0
C889 C 0.65697 0.60533 0.07107 0.0
C890 C 0.64665 0.58327 0.05527 0.0
H891 H 0.68394 0.63226 0.11395 0.0
H892 H 0.64974 0.6151 0.05942 0.0
C893 C 0.65669 0.57132 0.07222 0.0
C894 C 0.08561 0.42903 0.43755 0.0
C895 C 0.06358 0.41708 0.45412 0.0
H896 H 0.11261 0.42853 0.39427 0.0
C897 C 0.05183 0.39506 0.43786 0.0
H898 H 0.09507 0.44609 0.44868 0.0
C899 C 0.06164 0.38523 0.40577 0.0
C900 C 0.08363 0.397 0.38926 0.0
H901 H 0.0348 0.3853 0.44918 0.0
H902 H 0.05189 0.36819 0.39466 0.0
C903 C 0.09557 0.41906 0.40559 0.0
C904 C 0.58162 0.67675 0.40602 0.0
C905 C 0.60365 0.68683 0.38949 0.0
H906 H 0.55459 0.64923 0.44914 0.0
C907 C 0.61538 0.67653 0.40557 0.0
H908 H 0.57217 0.68437 0.39503 0.0
C909 C 0.60554 0.65685 0.43748 0.0
C910 C 0.58354 0.64663 0.454 0.0
H911 H 0.6324 0.68379 0.39426 0.0
H912 H 0.61526 0.64952 0.44848 0.0
C913 C 0.57163 0.65678 0.43781 0.0
C914 C 0.32376 0.93869 0.40501 0.0
C915 C 0.31343 0.91662 0.38931 0.0
H916 H 0.35077 0.96564 0.44762 0.0
C917 C 0.32348 0.90468 0.40618 0.0
H918 H 0.31651 0.94844 0.39341 0.0
C919 C 0.34346 0.91471 0.43796 0.0
C920 C 0.35362 0.9368 0.45379 0.0
H921 H 0.31584 0.88758 0.39549 0.0
H922 H 0.351 0.90523 0.44957 0.0
C923 C 0.34343 0.94857 0.43691 0.0
C924 C 0.57161 0.91496 0.93962 0.0
C925 C 0.58355 0.93703 0.95577 0.0
H926 H 0.57209 0.88788 0.89683 0.0
C927 C 0.60554 0.94878 0.93924 0.0
H928 H 0.55457 0.9055 0.95097 0.0
C929 C 0.61535 0.93892 0.9073 0.0
C930 C 0.60358 0.91688 0.89123 0.0
H931 H 0.61529 0.96583 0.95022 0.0
H932 H 0.63237 0.94866 0.89596 0.0
C933 C 0.58156 0.90495 0.90782 0.0
C934 C 0.06115 0.67659 0.90822 0.0
C935 C 0.08314 0.6868 0.89168 0.0
H936 H 0.0343 0.64968 0.95163 0.0
C937 C 0.09506 0.67668 0.90798 0.0
H938 H 0.05142 0.6839 0.89713 0.0
C939 C 0.08509 0.65674 0.93994 0.0
C940 C 0.06307 0.64667 0.95651 0.0
H941 H 0.1121 0.68423 0.89664 0.0
H942 H 0.09455 0.64914 0.95103 0.0
C943 C 0.05132 0.65694 0.9403 0.0
C944 C 0.34338 0.4286 0.93966 0.0
C945 C 0.35334 0.41662 0.95717 0.0
H946 H 0.31602 0.42809 0.89535 0.0
C947 C 0.34299 0.39453 0.94175 0.0
H948 H 0.35104 0.44571 0.95014 0.0
C949 C 0.32339 0.38466 0.90943 0.0
C950 C 0.3133 0.39647 0.89186 0.0
H951 H 0.35016 0.38475 0.95386 0.0
H952 H 0.31602 0.36757 0.89896 0.0
C953 C 0.32348 0.41858 0.90748 0.0
C954 C 0.90461 0.58138 0.60667 0.0
C955 C 0.91655 0.60343 0.62295 0.0
H956 H 0.90508 0.55434 0.56358 0.0
C957 C 0.93854 0.61521 0.60633 0.0
H958 H 0.88757 0.5719 0.61808 0.0
C959 C 0.94833 0.60537 0.57419 0.0
C960 C 0.93657 0.58335 0.55798 0.0
H961 H 0.94829 0.63225 0.6174 0.0
H962 H 0.96535 0.61513 0.56279 0.0
C963 C 0.91455 0.5714 0.57466 0.0
C964 C 0.42813 0.34315 0.57461 0.0
C965 C 0.41625 0.35331 0.55822 0.0
H966 H 0.42751 0.31553 0.61744 0.0
C967 C 0.39422 0.34307 0.57433 0.0
H968 H 0.4452 0.35072 0.5636 0.0
C969 C 0.38432 0.32336 0.60608 0.0
C970 C 0.39602 0.31305 0.6224 0.0
H971 H 0.38452 0.3504 0.56313 0.0
H972 H 0.36727 0.31607 0.61708 0.0
C973 C 0.41808 0.32315 0.60625 0.0
C974 C 0.65705 0.05189 0.5741 0.0
C975 C 0.64686 0.06368 0.55746 0.0
H976 H 0.68391 0.05193 0.6177 0.0
C977 C 0.65698 0.08573 0.57381 0.0
H978 H 0.64975 0.03485 0.56298 0.0
C979 C 0.6769 0.09569 0.60589 0.0
C980 C 0.68695 0.08372 0.62255 0.0
H981 H 0.64944 0.09522 0.5624 0.0
H982 H 0.6845 0.11275 0.617 0.0
C983 C 0.67667 0.0617 0.60631 0.0
C984 C 0.71836 0.72816 0.77178 0.0
C985 C 0.73014 0.75019 0.7879 0.0
H986 H 0.71835 0.70127 0.72845 0.0
C987 C 0.75213 0.76214 0.77096 0.0
H988 H 0.70136 0.7184 0.78338 0.0
C989 C 0.76204 0.75215 0.73876 0.0
C990 C 0.75007 0.73009 0.72255 0.0
H991 H 0.76161 0.7792 0.78197 0.0
H992 H 0.77905 0.76163 0.72715 0.0
C993 C 0.72811 0.71832 0.73944 0.0
C994 C 0.23818 0.98992 0.77116 0.0
C995 C 0.25016 0.97988 0.78767 0.0
H996 H 0.23858 0.01734 0.72762 0.0
C997 C 0.27214 0.9901 0.771 0.0
H998 H 0.22115 0.98235 0.7826 0.0
C999 C 0.2819 0.00969 0.73859 0.0
C1000 C 0.27009 0.01988 0.72215 0.0
H1001 H 0.28191 0.98285 0.78225 0.0
H1002 H 0.29891 0.01696 0.72717 0.0
C1003 C 0.24808 0.00979 0.73887 0.0
C1004 C 0.01017 0.2821 0.77015 0.0
C1005 C 0.02031 0.27031 0.78724 0.0
H1006 H 0.98334 0.28203 0.72622 0.0
C1007 C 0.01016 0.24822 0.77132 0.0
H1008 H 0.01752 0.29917 0.7809 0.0
C1009 C 0.99024 0.23823 0.73926 0.0
C1010 C 0.98023 0.2502 0.72219 0.0
H1011 H 0.01766 0.23872 0.78307 0.0
H1012 H 0.9826 0.22114 0.72851 0.0
C1013 C 0.99055 0.27226 0.73796 0.0
C1014 C 0.24742 0.23762 0.24055 0.0
C1015 C 0.26943 0.24953 0.22374 0.0
H1016 H 0.22051 0.23818 0.28424 0.0
C1017 C 0.28124 0.27155 0.23999 0.0
H1018 H 0.23791 0.22056 0.22945 0.0
C1019 C 0.27151 0.28141 0.27232 0.0
C1020 C 0.24954 0.26968 0.28907 0.0
H1021 H 0.29825 0.28128 0.22849 0.0
H1022 H 0.28131 0.29845 0.28341 0.0
C1023 C 0.23753 0.24763 0.27274 0.0
C1024 C 0.75203 0.9902 0.27305 0.0
C1025 C 0.73001 0.98013 0.28978 0.0
H1026 H 0.77899 0.01766 0.22949 0.0
C1027 C 0.71825 0.99039 0.27359 0.0
H1028 H 0.76149 0.98261 0.28413 0.0
C1029 C 0.72805 0.01001 0.24137 0.0
C1030 C 0.75002 0.02021 0.22466 0.0
H1031 H 0.70124 0.98314 0.28504 0.0
H1032 H 0.7183 0.01731 0.2303 0.0
C1033 C 0.76197 0.01011 0.24096 0.0
C1034 C 0.01001 0.76215 0.27317 0.0
C1035 C 0.02003 0.75018 0.29009 0.0
H1036 H 0.98258 0.76167 0.2295 0.0
C1037 C 0.00972 0.72813 0.27416 0.0
H1038 H 0.01765 0.77923 0.28404 0.0
C1039 C 0.9901 0.7183 0.24199 0.0
C1040 C 0.97994 0.73009 0.22506 0.0
H1041 H 0.01694 0.71835 0.28578 0.0
H1042 H 0.98277 0.70124 0.23112 0.0
C1043 C 0.99009 0.75217 0.24113 0.0
C1044 C 0.35351 0.09777 0.94966 0.0
C1045 C 0.33472 0.08832 0.9872 0.0
H1046 H 0.3667 0.10426 0.85604 0.0
C1047 C 0.31442 0.07779 0.958 0.0
H1048 H 0.36941 0.10581 0.97112 0.0
C1049 C 0.31291 0.07723 0.89226 0.0
C1050 C 0.3317 0.0868 0.85472 0.0
H1051 H 0.29973 0.07037 0.98587 0.0
H1052 H 0.29701 0.06918 0.87079 0.0
C1053 C 0.35201 0.09682 0.88392 0.0
C1054 C 0.92226 0.23664 0.95864 0.0
C1055 C 0.91183 0.24653 0.98784 0.0
H1056 H 0.93081 0.2278 0.87144 0.0
C1057 C 0.90253 0.25601 0.9503 0.0
H1058 H 0.92957 0.22927 0.98652 0.0
C1059 C 0.90351 0.2555 0.88456 0.0
C1060 C 0.91342 0.2451 0.85536 0.0
H1061 H 0.89457 0.26395 0.97176 0.0
H1062 H 0.89618 0.26284 0.85667 0.0
C1063 C 0.92285 0.23574 0.8929 0.0
C1064 C 0.74427 0.64643 0.94994 0.0
C1065 C 0.75364 0.66521 0.98753 0.0
H1066 H 0.73751 0.63326 0.85627 0.0
C1067 C 0.76344 0.68553 0.95837 0.0
H1068 H 0.73639 0.63052 0.97136 0.0
C1069 C 0.76435 0.68705 0.89263 0.0
C1070 C 0.75509 0.66827 0.85505 0.0
H1071 H 0.77073 0.70021 0.98628 0.0
H1072 H 0.77222 0.70296 0.8712 0.0
C1073 C 0.74479 0.64795 0.8842 0.0
C1074 C 0.09711 0.35242 0.62564 0.0
C1075 C 0.08722 0.33209 0.65476 0.0
H1076 H 0.10597 0.36987 0.5385 0.0
C1077 C 0.07775 0.31332 0.61714 0.0
H1078 H 0.10448 0.36709 0.65358 0.0
C1079 C 0.07827 0.31485 0.5514 0.0
C1080 C 0.08867 0.33518 0.52229 0.0
H1081 H 0.0698 0.2974 0.63854 0.0
H1082 H 0.07092 0.30018 0.52346 0.0
C1083 C 0.09803 0.35395 0.55991 0.0
C1084 C 0.68719 0.76464 0.61791 0.0
C1085 C 0.66841 0.75531 0.65547 0.0
H1086 H 0.70037 0.77101 0.52428 0.0
C1087 C 0.6481 0.74486 0.62629 0.0
H1088 H 0.7031 0.77261 0.63935 0.0
C1089 C 0.64659 0.74427 0.56055 0.0
C1090 C 0.66537 0.75372 0.52299 0.0
H1091 H 0.63341 0.73753 0.65418 0.0
H1092 H 0.63068 0.73629 0.53909 0.0
C1093 C 0.68568 0.76365 0.55217 0.0
C1094 C 0.23577 0.9225 0.61785 0.0
C1095 C 0.24505 0.913 0.65542 0.0
H1096 H 0.22942 0.92933 0.52422 0.0
C1097 C 0.25544 0.90308 0.62625 0.0
H1098 H 0.22784 0.93048 0.63929 0.0
C1099 C 0.25602 0.90215 0.56051 0.0
C1100 C 0.24662 0.91153 0.52294 0.0
H1101 H 0.26273 0.89569 0.65415 0.0
H1102 H 0.26396 0.89418 0.53906 0.0
C1103 C 0.23674 0.92196 0.55212 0.0
C1104 C 0.6871 0.92275 0.11936 0.0
C1105 C 0.66831 0.91326 0.15691 0.0
H1106 H 0.70028 0.92954 0.02574 0.0
C1107 C 0.648 0.90332 0.12772 0.0
H1108 H 0.703 0.93074 0.14083 0.0
C1109 C 0.6465 0.90236 0.06198 0.0
C1110 C 0.66529 0.91173 0.02443 0.0
H1111 H 0.63332 0.89593 0.1556 0.0
H1112 H 0.6306 0.89438 0.04051 0.0
C1113 C 0.6856 0.92218 0.05363 0.0
C1114 C 0.07742 0.76457 0.1195 0.0
C1115 C 0.08683 0.7552 0.15707 0.0
H1116 H 0.07069 0.77101 0.02587 0.0
C1117 C 0.09671 0.74477 0.12789 0.0
H1118 H 0.06947 0.77253 0.14095 0.0
C1119 C 0.09769 0.74423 0.06215 0.0
C1120 C 0.08839 0.75372 0.02459 0.0
H1121 H 0.10404 0.73742 0.15579 0.0
H1122 H 0.10562 0.73626 0.0407 0.0
C1123 C 0.07799 0.76363 0.05376 0.0
C1124 C 0.2352 0.31282 0.11882 0.0
C1125 C 0.24476 0.33159 0.15642 0.0
H1126 H 0.22866 0.29966 0.02515 0.0
C1127 C 0.25542 0.35191 0.12727 0.0
H1128 H 0.22705 0.2969 0.14023 0.0
C1129 C 0.25601 0.35344 0.06153 0.0
C1130 C 0.24634 0.33466 0.02394 0.0
H1131 H 0.26293 0.36659 0.15518 0.0
H1132 H 0.26416 0.36934 0.0401 0.0
C1133 C 0.23618 0.31434 0.05308 0.0
C1134 C 0.92187 0.68555 0.46085 0.0
C1135 C 0.91152 0.66522 0.48999 0.0
H1136 H 0.93034 0.70299 0.37371 0.0
C1137 C 0.90223 0.64645 0.45239 0.0
H1138 H 0.92917 0.70023 0.48878 0.0
C1139 C 0.90317 0.64798 0.38665 0.0
C1140 C 0.91302 0.6683 0.35751 0.0
H1141 H 0.89432 0.63054 0.47381 0.0
H1142 H 0.89585 0.63329 0.35872 0.0
C1143 C 0.92242 0.68707 0.39512 0.0
C1144 C 0.31394 0.23617 0.45946 0.0
C1145 C 0.33426 0.24613 0.48861 0.0
H1146 H 0.2965 0.22717 0.37232 0.0
C1147 C 0.35303 0.25557 0.45102 0.0
H1148 H 0.29926 0.22881 0.48739 0.0
C1149 C 0.35151 0.25496 0.38528 0.0
C1150 C 0.33119 0.24449 0.35614 0.0
H1151 H 0.36894 0.26357 0.47244 0.0
H1152 H 0.36619 0.26229 0.35735 0.0
C1153 C 0.31241 0.23516 0.39373 0.0
C1154 C 0.74432 0.09809 0.45204 0.0
C1155 C 0.75373 0.08872 0.48963 0.0
H1156 H 0.73758 0.10451 0.35839 0.0
C1157 C 0.76359 0.07827 0.46047 0.0
H1158 H 0.73639 0.10606 0.47347 0.0
C1159 C 0.76455 0.07771 0.39473 0.0
C1160 C 0.75525 0.08718 0.35715 0.0
H1161 H 0.77092 0.07091 0.48838 0.0
H1162 H 0.77247 0.06972 0.3733 0.0
C1163 C 0.74488 0.09713 0.3863 0.0
C1164 C 0.97994 0.41095 0.22642 0.0
C1165 C 0.99871 0.42043 0.18884 0.0
H1166 H 0.96677 0.4042 0.32007 0.0
C1167 C 0.01903 0.43042 0.21801 0.0
H1168 H 0.96403 0.40293 0.20499 0.0
C1169 C 0.02055 0.43142 0.28374 0.0
C1170 C 0.00177 0.42206 0.32132 0.0
H1171 H 0.03371 0.43781 0.1901 0.0
H1172 H 0.03646 0.43944 0.30518 0.0
C1173 C 0.98145 0.41156 0.29216 0.0
C1174 C 0.56997 0.58863 0.21777 0.0
C1175 C 0.57987 0.57821 0.18859 0.0
H1176 H 0.56105 0.59712 0.30495 0.0
C1177 C 0.58928 0.56885 0.22615 0.0
H1178 H 0.56264 0.59599 0.18987 0.0
C1179 C 0.58869 0.56977 0.29189 0.0
C1180 C 0.57829 0.57967 0.32107 0.0
H1181 H 0.59723 0.56089 0.20471 0.0
H1182 H 0.596 0.56239 0.31979 0.0
C1183 C 0.56899 0.58916 0.28351 0.0
C1184 C 0.43031 0.01897 0.29171 0.0
C1185 C 0.42047 0.99865 0.32085 0.0
H1186 H 0.43916 0.03641 0.20455 0.0
C1187 C 0.41105 0.97987 0.28325 0.0
H1188 H 0.43764 0.03365 0.31963 0.0
C1189 C 0.41159 0.9814 0.21752 0.0
C1190 C 0.42195 0.00172 0.18837 0.0
H1191 H 0.40314 0.96396 0.30467 0.0
H1192 H 0.40429 0.96671 0.18959 0.0
C1193 C 0.43125 0.0205 0.22597 0.0
C1194 C 0.56915 0.98003 0.78485 0.0
C1195 C 0.57849 0.99881 0.82244 0.0
H1196 H 0.56273 0.96687 0.69119 0.0
C1197 C 0.5889 0.01913 0.7933 0.0
H1198 H 0.5612 0.96412 0.80628 0.0
C1199 C 0.58945 0.02066 0.72756 0.0
C1200 C 0.57999 0.00188 0.68997 0.0
H1201 H 0.59624 0.03382 0.82121 0.0
H1202 H 0.5974 0.03657 0.70614 0.0
C1203 C 0.57009 0.98156 0.71911 0.0
C1204 C 0.01866 0.58874 0.7199 0.0
C1205 C 0.99834 0.57829 0.69072 0.0
H1206 H 0.03607 0.59728 0.8071 0.0
C1207 C 0.97956 0.56893 0.72827 0.0
H1208 H 0.03334 0.59609 0.69201 0.0
C1209 C 0.98107 0.56989 0.79401 0.0
C1210 C 0.00138 0.57983 0.8232 0.0
H1211 H 0.96366 0.56096 0.70682 0.0
H1212 H 0.96638 0.56251 0.8219 0.0
C1213 C 0.02017 0.5893 0.78564 0.0
C1214 C 0.43096 0.41079 0.72912 0.0
C1215 C 0.42164 0.42027 0.69161 0.0
H1216 H 0.43734 0.40397 0.82273 0.0
C1217 C 0.41123 0.43016 0.72084 0.0
H1218 H 0.4389 0.40284 0.70763 0.0
C1219 C 0.41066 0.43107 0.78658 0.0
C1220 C 0.4201 0.42172 0.82409 0.0
H1221 H 0.40391 0.43753 0.69298 0.0
H1222 H 0.40271 0.43902 0.80807 0.0
C1223 C 0.42999 0.41131 0.79486 0.0
loop_
_geom_bond_atom_site_label_1
_geom_bond_atom_site_label_2
_geom_bond_distance
_geom_bond_site_symmetry_2
_ccdc_geom_bond_type
C0 O2 1.247 . S
C0 O4 1.258 . S
C1 O8 1.247 . S
C1 O9 1.258 . S
O2 C0 1.247 . S
O2 Zn3 2.028 . S
Zn3 O2 2.028 . S
Zn3 O7 2.035 . S
Zn3 O9 2.035 . S
Zn3 O10 2.028 . S
O4 C0 1.258 . S
O4 Zn5 2.035 . S
Zn5 O4 2.035 . S
Zn5 O6 2.028 . S
Zn5 O8 2.028 . S
Zn5 O11 2.035 . S
O6 Zn5 2.028 . S
O6 C12 1.247 . S
O7 Zn3 2.035 . S
O7 C12 1.258 . S
O8 C1 1.247 . S
O8 Zn5 2.028 . S
O9 C1 1.258 . S
O9 Zn3 2.035 . S
O10 Zn3 2.028 . S
O10 C13 1.247 . S
O11 Zn5 2.035 . S
O11 C13 1.258 . S
C12 O6 1.247 . S
C12 O7 1.258 . S
C13 O10 1.247 . S
C13 O11 1.258 . S
C14 O16 1.247 . S
C14 O18 1.258 . S
C15 O22 1.247 . S
C15 O23 1.258 . S
O16 C14 1.247 . S
O16 Zn17 2.028 . S
Zn17 O16 2.028 . S
Zn17 O21 2.035 . S
Zn17 O23 2.035 . S
Zn17 O24 2.028 . S
O18 C14 1.258 . S
O18 Zn19 2.035 . S
Zn19 O18 2.035 . S
Zn19 O20 2.028 . S
Zn19 O22 2.028 . S
Zn19 O25 2.035 . S
O20 Zn19 2.028 . S
O20 C26 1.247 . S
O21 Zn17 2.035 . S
O21 C26 1.258 . S
O22 C15 1.247 . S
O22 Zn19 2.028 . S
O23 C15 1.258 . S
O23 Zn17 2.035 . S
O24 Zn17 2.028 . S
O24 C27 1.247 . S
O25 Zn19 2.035 . S
O25 C27 1.258 . S
C26 O20 1.247 . S
C26 O21 1.258 . S
C27 O24 1.247 . S
C27 O25 1.258 . S
C28 O30 1.247 . S
C28 O32 1.258 . S
C29 O36 1.247 . S
C29 O37 1.258 . S
O30 C28 1.247 . S
O30 Zn31 2.028 . S
Zn31 O30 2.028 . S
Zn31 O35 2.035 . S
Zn31 O37 2.035 . S
Zn31 O38 2.028 . S
O32 C28 1.258 . S
O32 Zn33 2.035 . S
Zn33 O32 2.035 . S
Zn33 O34 2.028 . S
Zn33 O36 2.028 . S
Zn33 O39 2.035 . S
O34 Zn33 2.028 . S
O34 C40 1.247 . S
O35 Zn31 2.035 . S
O35 C40 1.258 . S
O36 C29 1.247 . S
O36 Zn33 2.028 . S
O37 C29 1.258 . S
O37 Zn31 2.035 . S
O38 Zn31 2.028 . S
O38 C41 1.247 . S
O39 Zn33 2.035 . S
O39 C41 1.258 . S
C40 O34 1.247 . S
C40 O35 1.258 . S
C41 O38 1.247 . S
C41 O39 1.258 . S
C42 O44 1.247 . S
C42 O46 1.258 . S
C43 O50 1.247 . S
C43 O51 1.258 . S
O44 C42 1.247 . S
O44 Zn45 2.028 . S
Zn45 O44 2.028 . S
Zn45 O49 2.035 . S
Zn45 O51 2.035 . S
Zn45 O52 2.028 . S
O46 C42 1.258 . S
O46 Zn47 2.035 . S
Zn47 O46 2.035 . S
Zn47 O48 2.028 . S
Zn47 O50 2.028 . S
Zn47 O53 2.035 . S
O48 Zn47 2.028 . S
O48 C54 1.247 . S
O49 Zn45 2.035 . S
O49 C54 1.258 . S
O50 C43 1.247 . S
O50 Zn47 2.028 . S
O51 C43 1.258 . S
O51 Zn45 2.035 . S
O52 Zn45 2.028 . S
O52 C55 1.247 . S
O53 Zn47 2.035 . S
O53 C55 1.258 . S
C54 O48 1.247 . S
C54 O49 1.258 . S
C55 O52 1.247 . S
C55 O53 1.258 . S
C56 O58 1.247 . S
C56 O60 1.258 . S
C57 O64 1.247 . S
C57 O65 1.258 . S
O58 C56 1.247 . S
O58 Zn59 2.028 . S
Zn59 O58 2.028 . S
Zn59 O63 2.035 . S
Zn59 O65 2.035 . S
Zn59 O66 2.028 . S
O60 C56 1.258 . S
O60 Zn61 2.035 . S
Zn61 O60 2.035 . S
Zn61 O62 2.028 . S
Zn61 O64 2.028 . S
Zn61 O67 2.035 . S
O62 Zn61 2.028 . S
O62 C68 1.247 . S
O63 Zn59 2.035 . S
O63 C68 1.258 . S
O64 C57 1.247 . S
O64 Zn61 2.028 . S
O65 C57 1.258 . S
O65 Zn59 2.035 . S
O66 Zn59 2.028 . S
O66 C69 1.247 . S
O67 Zn61 2.035 . S
O67 C69 1.258 . S
C68 O62 1.247 . S
C68 O63 1.258 . S
C69 O66 1.247 . S
C69 O67 1.258 . S
C70 O72 1.247 . S
C70 O74 1.258 . S
C71 O78 1.247 . S
C71 O79 1.258 . S
O72 C70 1.247 . S
O72 Zn73 2.028 . S
Zn73 O72 2.028 . S
Zn73 O77 2.035 . S
Zn73 O79 2.035 . S
Zn73 O80 2.028 . S
O74 C70 1.258 . S
O74 Zn75 2.035 . S
Zn75 O74 2.035 . S
Zn75 O76 2.028 . S
Zn75 O78 2.028 . S
Zn75 O81 2.035 . S
O76 Zn75 2.028 . S
O76 C82 1.247 . S
O77 Zn73 2.035 . S
O77 C82 1.258 . S
O78 C71 1.247 . S
O78 Zn75 2.028 . S
O79 C71 1.258 . S
O79 Zn73 2.035 . S
O80 Zn73 2.028 . S
O80 C83 1.247 . S
O81 Zn75 2.035 . S
O81 C83 1.258 . S
C82 O76 1.247 . S
C82 O77 1.258 . S
C83 O80 1.247 . S
C83 O81 1.258 . S
C84 O86 1.247 . S
C84 O88 1.258 . S
C85 O92 1.247 . S
C85 O93 1.258 . S
O86 C84 1.247 . S
O86 Zn87 2.028 . S
Zn87 O86 2.028 . S
Zn87 O91 2.035 . S
Zn87 O93 2.035 . S
Zn87 O94 2.028 . S
O88 C84 1.258 . S
O88 Zn89 2.035 . S
Zn89 O88 2.035 . S
Zn89 O90 2.028 . S
Zn89 O92 2.028 . S
Zn89 O95 2.035 . S
O90 Zn89 2.028 . S
O90 C96 1.247 . S
O91 Zn87 2.035 . S
O91 C96 1.258 . S
O92 C85 1.247 . S
O92 Zn89 2.028 . S
O93 C85 1.258 . S
O93 Zn87 2.035 . S
O94 Zn87 2.028 . S
O94 C97 1.247 . S
O95 Zn89 2.035 . S
O95 C97 1.258 . S
C96 O90 1.247 . S
C96 O91 1.258 . S
C97 O94 1.247 . S
C97 O95 1.258 . S
C98 O100 1.247 . S
C98 O102 1.258 . S
C99 O106 1.247 . S
C99 O107 1.258 . S
O100 C98 1.247 . S
O100 Zn101 2.028 . S
Zn101 O100 2.028 . S
Zn101 O105 2.035 . S
Zn101 O107 2.035 . S
Zn101 O108 2.028 . S
O102 C98 1.258 . S
O102 Zn103 2.035 . S
Zn103 O102 2.035 . S
Zn103 O104 2.028 . S
Zn103 O106 2.028 . S
Zn103 O109 2.035 . S
O104 Zn103 2.028 . S
O104 C110 1.247 . S
O105 Zn101 2.035 . S
O105 C110 1.258 . S
O106 C99 1.247 . S
O106 Zn103 2.028 . S
O107 C99 1.258 . S
O107 Zn101 2.035 . S
O108 Zn101 2.028 . S
O108 C111 1.247 . S
O109 Zn103 2.035 . S
O109 C111 1.258 . S
C110 O104 1.247 . S
C110 O105 1.258 . S
C111 O108 1.247 . S
C111 O109 1.258 . S
C112 O114 1.247 . S
C112 O116 1.258 . S
C113 O120 1.247 . S
C113 O121 1.258 . S
O114 C112 1.247 . S
O114 Zn115 2.028 . S
Zn115 O114 2.028 . S
Zn115 O119 2.035 . S
Zn115 O121 2.035 . S
Zn115 O122 2.028 . S
O116 C112 1.258 . S
O116 Zn117 2.035 . S
Zn117 O116 2.035 . S
Zn117 O118 2.028 . S
Zn117 O120 2.028 . S
Zn117 O123 2.035 . S
O118 Zn117 2.028 . S
O118 C124 1.247 . S
O119 Zn115 2.035 . S
O119 C124 1.258 . S
O120 C113 1.247 . S
O120 Zn117 2.028 . S
O121 C113 1.258 . S
O121 Zn115 2.035 . S
O122 Zn115 2.028 . S
O122 C125 1.247 . S
O123 Zn117 2.035 . S
O123 C125 1.258 . S
C124 O118 1.247 . S
C124 O119 1.258 . S
C125 O122 1.247 . S
C125 O123 1.258 . S
C126 O128 1.247 . S
C126 O130 1.258 . S
C127 O134 1.247 . S
C127 O135 1.258 . S
O128 C126 1.247 . S
O128 Zn129 2.028 . S
Zn129 O128 2.028 . S
Zn129 O133 2.035 . S
Zn129 O135 2.035 . S
Zn129 O136 2.028 . S
O130 C126 1.258 . S
O130 Zn131 2.035 . S
Zn131 O130 2.035 . S
Zn131 O132 2.028 . S
Zn131 O134 2.028 . S
Zn131 O137 2.035 . S
O132 Zn131 2.028 . S
O132 C138 1.247 . S
O133 Zn129 2.035 . S
O133 C138 1.258 . S
O134 C127 1.247 . S
O134 Zn131 2.028 . S
O135 C127 1.258 . S
O135 Zn129 2.035 . S
O136 Zn129 2.028 . S
O136 C139 1.247 . S
O137 Zn131 2.035 . S
O137 C139 1.258 . S
C138 O132 1.247 . S
C138 O133 1.258 . S
C139 O136 1.247 . S
C139 O137 1.258 . S
C140 O142 1.247 . S
C140 O144 1.258 . S
C141 O148 1.247 . S
C141 O149 1.258 . S
O142 C140 1.247 . S
O142 Zn143 2.028 . S
Zn143 O142 2.028 . S
Zn143 O147 2.035 . S
Zn143 O149 2.035 . S
Zn143 O150 2.028 . S
O144 C140 1.258 . S
O144 Zn145 2.035 . S
Zn145 O144 2.035 . S
Zn145 O146 2.028 . S
Zn145 O148 2.028 . S
Zn145 O151 2.035 . S
O146 Zn145 2.028 . S
O146 C152 1.247 . S
O147 Zn143 2.035 . S
O147 C152 1.258 . S
O148 C141 1.247 . S
O148 Zn145 2.028 . S
O149 C141 1.258 . S
O149 Zn143 2.035 . S
O150 Zn143 2.028 . S
O150 C153 1.247 . S
O151 Zn145 2.035 . S
O151 C153 1.258 . S
C152 O146 1.247 . S
C152 O147 1.258 . S
C153 O150 1.247 . S
C153 O151 1.258 . S
C154 O156 1.247 . S
C154 O158 1.258 . S
C155 O162 1.247 . S
C155 O163 1.258 . S
O156 C154 1.247 . S
O156 Zn157 2.028 . S
Zn157 O156 2.028 . S
Zn157 O161 2.035 . S
Zn157 O163 2.035 . S
Zn157 O164 2.028 . S
O158 C154 1.258 . S
O158 Zn159 2.035 . S
Zn159 O158 2.035 . S
Zn159 O160 2.028 . S
Zn159 O162 2.028 . S
Zn159 O165 2.035 . S
O160 Zn159 2.028 . S
O160 C166 1.247 . S
O161 Zn157 2.035 . S
O161 C166 1.258 . S
O162 C155 1.247 . S
O162 Zn159 2.028 . S
O163 C155 1.258 . S
O163 Zn157 2.035 . S
O164 Zn157 2.028 . S
O164 C167 1.247 . S
O165 Zn159 2.035 . S
O165 C167 1.258 . S
C166 O160 1.247 . S
C166 O161 1.258 . S
C167 O164 1.247 . S
C167 O165 1.258 . S
C168 O170 1.247 . S
C168 O172 1.258 1_455 S
C169 O176 1.247 1_455 S
C169 O177 1.258 . S
O170 C168 1.247 . S
O170 Zn171 2.028 . S
Zn171 O170 2.028 . S
Zn171 O175 2.035 . S
Zn171 O177 2.035 . S
Zn171 O178 2.028 . S
O172 C168 1.258 1_655 S
O172 Zn173 2.035 . S
Zn173 O172 2.035 . S
Zn173 O174 2.028 . S
Zn173 O176 2.028 . S
Zn173 O179 2.035 . S
O174 Zn173 2.028 . S
O174 C180 1.247 1_655 S
O175 Zn171 2.035 . S
O175 C180 1.258 . S
O176 C169 1.247 1_655 S
O176 Zn173 2.028 . S
O177 C169 1.258 . S
O177 Zn171 2.035 . S
O178 Zn171 2.028 . S
O178 C181 1.247 1_455 S
O179 Zn173 2.035 . S
O179 C181 1.258 . S
C180 O174 1.247 1_455 S
C180 O175 1.258 . S
C181 O178 1.247 1_655 S
C181 O179 1.258 . S
C182 O184 1.247 . S
C182 O186 1.258 . S
C183 O190 1.247 . S
C183 O191 1.258 . S
O184 C182 1.247 . S
O184 Zn185 2.028 . S
Zn185 O184 2.028 . S
Zn185 O189 2.035 . S
Zn185 O191 2.035 . S
Zn185 O192 2.028 . S
O186 C182 1.258 . S
O186 Zn187 2.035 . S
Zn187 O186 2.035 . S
Zn187 O188 2.028 . S
Zn187 O190 2.028 . S
Zn187 O193 2.035 . S
O188 Zn187 2.028 . S
O188 C194 1.247 . S
O189 Zn185 2.035 . S
O189 C194 1.258 . S
O190 C183 1.247 . S
O190 Zn187 2.028 . S
O191 C183 1.258 . S
O191 Zn185 2.035 . S
O192 Zn185 2.028 . S
O192 C195 1.247 . S
O193 Zn187 2.035 . S
O193 C195 1.258 . S
C194 O188 1.247 . S
C194 O189 1.258 . S
C195 O192 1.247 . S
C195 O193 1.258 . S
C196 O198 1.247 . S
C196 O200 1.258 1_565 S
C197 O204 1.247 1_565 S
C197 O205 1.258 . S
O198 C196 1.247 . S
O198 Zn199 2.028 . S
Zn199 O198 2.028 . S
Zn199 O203 2.035 . S
Zn199 O205 2.035 . S
Zn199 O206 2.028 . S
O200 C196 1.258 1_545 S
O200 Zn201 2.035 . S
Zn201 O200 2.035 . S
Zn201 O202 2.028 . S
Zn201 O204 2.028 . S
Zn201 O207 2.035 . S
O202 Zn201 2.028 . S
O202 C208 1.247 . S
O203 Zn199 2.035 . S
O203 C208 1.258 1_565 S
O204 C197 1.247 1_545 S
O204 Zn201 2.028 . S
O205 C197 1.258 . S
O205 Zn199 2.035 . S
O206 Zn199 2.028 . S
O206 C209 1.247 . S
O207 Zn201 2.035 . S
O207 C209 1.258 1_545 S
C208 O202 1.247 . S
C208 O203 1.258 1_545 S
C209 O206 1.247 . S
C209 O207 1.258 1_565 S
C210 O212 1.247 . S
C210 O214 1.258 . S
C211 O218 1.247 . S
C211 O219 1.258 . S
O212 C210 1.247 . S
O212 Zn213 2.028 . S
Zn213 O212 2.028 . S
Zn213 O217 2.035 . S
Zn213 O219 2.035 . S
Zn213 O220 2.028 . S
O214 C210 1.258 . S
O214 Zn215 2.035 . S
Zn215 O214 2.035 . S
Zn215 O216 2.028 . S
Zn215 O218 2.028 . S
Zn215 O221 2.035 . S
O216 Zn215 2.028 . S
O216 C222 1.247 . S
O217 Zn213 2.035 . S
O217 C222 1.258 . S
O218 C211 1.247 . S
O218 Zn215 2.028 . S
O219 C211 1.258 . S
O219 Zn213 2.035 . S
O220 Zn213 2.028 . S
O220 C223 1.247 . S
O221 Zn215 2.035 . S
O221 C223 1.258 . S
C222 O216 1.247 . S
C222 O217 1.258 . S
C223 O220 1.247 . S
C223 O221 1.258 . S
C224 O226 1.247 . S
C224 O228 1.258 . S
C225 O232 1.247 . S
C225 O233 1.258 . S
O226 C224 1.247 . S
O226 Zn227 2.028 . S
Zn227 O226 2.028 . S
Zn227 O231 2.035 . S
Zn227 O233 2.035 . S
Zn227 O234 2.028 . S
O228 C224 1.258 . S
O228 Zn229 2.035 . S
Zn229 O228 2.035 . S
Zn229 O230 2.028 . S
Zn229 O232 2.028 . S
Zn229 O235 2.035 . S
O230 Zn229 2.028 . S
O230 C236 1.247 . S
O231 Zn227 2.035 . S
O231 C236 1.258 . S
O232 C225 1.247 . S
O232 Zn229 2.028 . S
O233 C225 1.258 . S
O233 Zn227 2.035 . S
O234 Zn227 2.028 . S
O234 C237 1.247 . S
O235 Zn229 2.035 . S
O235 C237 1.258 . S
C236 O230 1.247 . S
C236 O231 1.258 . S
C237 O234 1.247 . S
C237 O235 1.258 . S
C238 O240 1.247 . S
C238 O242 1.258 . S
C239 O246 1.247 . S
C239 O247 1.258 . S
O240 C238 1.247 . S
O240 Zn241 2.028 . S
Zn241 O240 2.028 . S
Zn241 O245 2.035 . S
Zn241 O247 2.035 . S
Zn241 O248 2.028 . S
O242 C238 1.258 . S
O242 Zn243 2.035 . S
Zn243 O242 2.035 . S
Zn243 O244 2.028 . S
Zn243 O246 2.028 . S
Zn243 O249 2.035 . S
O244 Zn243 2.028 . S
O244 C250 1.247 . S
O245 Zn241 2.035 . S
O245 C250 1.258 . S
O246 C239 1.247 . S
O246 Zn243 2.028 . S
O247 C239 1.258 . S
O247 Zn241 2.035 . S
O248 Zn241 2.028 . S
O248 C251 1.247 . S
O249 Zn243 2.035 . S
O249 C251 1.258 . S
C250 O244 1.247 . S
C250 O245 1.258 . S
C251 O248 1.247 . S
C251 O249 1.258 . S
C252 O254 1.247 . S
C252 O256 1.258 . S
C253 O260 1.247 . S
C253 O261 1.258 . S
O254 C252 1.247 . S
O254 Zn255 2.028 . S
Zn255 O254 2.028 . S
Zn255 O259 2.035 . S
Zn255 O261 2.035 . S
Zn255 O262 2.028 . S
O256 C252 1.258 . S
O256 Zn257 2.035 . S
Zn257 O256 2.035 . S
Zn257 O258 2.028 . S
Zn257 O260 2.028 . S
Zn257 O263 2.035 . S
O258 Zn257 2.028 . S
O258 C264 1.247 . S
O259 Zn255 2.035 . S
O259 C264 1.258 . S
O260 C253 1.247 . S
O260 Zn257 2.028 . S
O261 C253 1.258 . S
O261 Zn255 2.035 . S
O262 Zn255 2.028 . S
O262 C265 1.247 . S
O263 Zn257 2.035 . S
O263 C265 1.258 . S
C264 O258 1.247 . S
C264 O259 1.258 . S
C265 O262 1.247 . S
C265 O263 1.258 . S
C266 O268 1.247 . S
C266 O270 1.258 . S
C267 O274 1.247 . S
C267 O275 1.258 . S
O268 C266 1.247 . S
O268 Zn269 2.028 . S
Zn269 O268 2.028 . S
Zn269 O273 2.035 . S
Zn269 O275 2.035 . S
Zn269 O276 2.028 . S
O270 C266 1.258 . S
O270 Zn271 2.035 . S
Zn271 O270 2.035 . S
Zn271 O272 2.028 . S
Zn271 O274 2.028 . S
Zn271 O277 2.035 . S
O272 Zn271 2.028 . S
O272 C278 1.247 . S
O273 Zn269 2.035 . S
O273 C278 1.258 . S
O274 C267 1.247 . S
O274 Zn271 2.028 . S
O275 C267 1.258 . S
O275 Zn269 2.035 . S
O276 Zn269 2.028 . S
O276 C279 1.247 . S
O277 Zn271 2.035 . S
O277 C279 1.258 . S
C278 O272 1.247 . S
C278 O273 1.258 . S
C279 O276 1.247 . S
C279 O277 1.258 . S
C280 O282 1.247 . S
C280 O284 1.258 . S
C281 O288 1.247 . S
C281 O289 1.258 . S
O282 C280 1.247 . S
O282 Zn283 2.028 . S
Zn283 O282 2.028 . S
Zn283 O287 2.035 . S
Zn283 O289 2.035 . S
Zn283 O290 2.028 . S
O284 C280 1.258 . S
O284 Zn285 2.035 . S
Zn285 O284 2.035 . S
Zn285 O286 2.028 . S
Zn285 O288 2.028 . S
Zn285 O291 2.035 . S
O286 Zn285 2.028 . S
O286 C292 1.247 . S
O287 Zn283 2.035 . S
O287 C292 1.258 . S
O288 C281 1.247 . S
O288 Zn285 2.028 . S
O289 C281 1.258 . S
O289 Zn283 2.035 . S
O290 Zn283 2.028 . S
O290 C293 1.247 . S
O291 Zn285 2.035 . S
O291 C293 1.258 . S
C292 O286 1.247 . S
C292 O287 1.258 . S
C293 O290 1.247 . S
C293 O291 1.258 . S
C294 O296 1.247 1_565 S
C294 O298 1.258 . S
C295 O302 1.247 . S
C295 O303 1.258 1_565 S
O296 C294 1.247 1_545 S
O296 Zn297 2.016 1_556 S
Zn297 O296 2.016 1_554 S
Zn297 O301 2.036 . S
Zn297 O303 2.047 . S
Zn297 O304 2.027 1_554 S
O298 C294 1.258 . S
O298 Zn299 2.043 . S
Zn299 O298 2.043 . S
Zn299 O300 2.027 1_556 S
Zn299 O302 2.020 1_556 S
Zn299 O305 2.036 . S
O300 Zn299 2.027 1_554 S
O300 C306 1.247 1_565 S
O301 Zn297 2.036 . S
O301 C306 1.258 . S
O302 C295 1.247 . S
O302 Zn299 2.020 1_554 S
O303 C295 1.258 1_545 S
O303 Zn297 2.047 . S
O304 Zn297 2.027 1_556 S
O304 C307 1.247 1_545 S
O305 Zn299 2.036 . S
O305 C307 1.258 . S
C306 O300 1.247 1_545 S
C306 O301 1.258 . S
C307 O304 1.247 1_565 S
C307 O305 1.258 . S
C308 O310 1.247 . S
C308 O312 1.258 1_455 S
C309 O316 1.247 . S
C309 O317 1.258 1_655 S
O310 C308 1.247 . S
O310 Zn311 2.028 . S
Zn311 O310 2.028 . S
Zn311 O315 2.035 1_556 S
Zn311 O317 2.035 1_556 S
Zn311 O318 2.028 . S
O312 C308 1.258 1_655 S
O312 Zn313 2.035 1_556 S
Zn313 O312 2.035 1_554 S
Zn313 O314 2.028 . S
Zn313 O316 2.028 . S
Zn313 O319 2.035 1_554 S
O314 Zn313 2.028 . S
O314 C320 1.247 1_655 S
O315 Zn311 2.035 1_554 S
O315 C320 1.258 . S
O316 C309 1.247 . S
O316 Zn313 2.028 . S
O317 C309 1.258 1_455 S
O317 Zn311 2.035 1_554 S
O318 Zn311 2.028 . S
O318 C321 1.247 . S
O319 Zn313 2.035 1_556 S
O319 C321 1.258 1_655 S
C320 O314 1.247 1_455 S
C320 O315 1.258 . S
C321 O318 1.247 . S
C321 O319 1.258 1_455 S
C322 O324 1.247 . S
C322 O326 1.258 . S
C323 O330 1.247 . S
C323 O331 1.258 . S
O324 C322 1.247 . S
O324 Zn325 2.027 1_554 S
Zn325 O324 2.027 1_556 S
Zn325 O329 2.043 . S
Zn325 O331 2.036 . S
Zn325 O332 2.020 1_556 S
O326 C322 1.258 . S
O326 Zn327 2.036 . S
Zn327 O326 2.036 . S
Zn327 O328 2.016 1_554 S
Zn327 O330 2.027 1_554 S
Zn327 O333 2.047 . S
O328 Zn327 2.016 1_556 S
O328 C334 1.247 . S
O329 Zn325 2.043 . S
O329 C334 1.258 . S
O330 C323 1.247 . S
O330 Zn327 2.027 1_556 S
O331 C323 1.258 . S
O331 Zn325 2.036 . S
O332 Zn325 2.020 1_554 S
O332 C335 1.247 . S
O333 Zn327 2.047 . S
O333 C335 1.258 . S
C334 O328 1.247 . S
C334 O329 1.258 . S
C335 O332 1.247 . S
C335 O333 1.258 . S
C336 O338 1.247 . S
C336 O340 1.258 . S
C337 O344 1.247 . S
C337 O345 1.258 . S
O338 C336 1.247 . S
O338 Zn339 2.028 . S
Zn339 O338 2.028 . S
Zn339 O343 2.035 . S
Zn339 O345 2.035 . S
Zn339 O346 2.028 . S
O340 C336 1.258 . S
O340 Zn341 2.035 . S
Zn341 O340 2.035 . S
Zn341 O342 2.028 . S
Zn341 O344 2.028 . S
Zn341 O347 2.035 . S
O342 Zn341 2.028 . S
O342 C348 1.247 . S
O343 Zn339 2.035 . S
O343 C348 1.258 . S
O344 C337 1.247 . S
O344 Zn341 2.028 . S
O345 C337 1.258 . S
O345 Zn339 2.035 . S
O346 Zn339 2.028 . S
O346 C349 1.247 . S
O347 Zn341 2.035 . S
O347 C349 1.258 . S
C348 O342 1.247 . S
C348 O343 1.258 . S
C349 O346 1.247 . S
C349 O347 1.258 . S
C350 O352 1.247 . S
C350 O354 1.258 . S
C351 O358 1.247 . S
C351 O359 1.258 . S
O352 C350 1.247 . S
O352 Zn353 2.028 . S
Zn353 O352 2.028 . S
Zn353 O357 2.035 . S
Zn353 O359 2.035 . S
Zn353 O360 2.028 . S
O354 C350 1.258 . S
O354 Zn355 2.035 . S
Zn355 O354 2.035 . S
Zn355 O356 2.028 . S
Zn355 O358 2.028 . S
Zn355 O361 2.035 . S
O356 Zn355 2.028 . S
O356 C362 1.247 . S
O357 Zn353 2.035 . S
O357 C362 1.258 . S
O358 C351 1.247 . S
O358 Zn355 2.028 . S
O359 C351 1.258 . S
O359 Zn353 2.035 . S
O360 Zn353 2.028 . S
O360 C363 1.247 . S
O361 Zn355 2.035 . S
O361 C363 1.258 . S
C362 O356 1.247 . S
C362 O357 1.258 . S
C363 O360 1.247 . S
C363 O361 1.258 . S
C364 O366 1.247 . S
C364 O368 1.258 . S
C365 O372 1.247 . S
C365 O373 1.258 . S
O366 C364 1.247 . S
O366 Zn367 2.028 . S
Zn367 O366 2.028 . S
Zn367 O371 2.035 . S
Zn367 O373 2.035 . S
Zn367 O374 2.028 . S
O368 C364 1.258 . S
O368 Zn369 2.035 . S
Zn369 O368 2.035 . S
Zn369 O370 2.028 . S
Zn369 O372 2.028 . S
Zn369 O375 2.035 . S
O370 Zn369 2.028 . S
O370 C376 1.247 . S
O371 Zn367 2.035 . S
O371 C376 1.258 . S
O372 C365 1.247 . S
O372 Zn369 2.028 . S
O373 C365 1.258 . S
O373 Zn367 2.035 . S
O374 Zn367 2.028 . S
O374 C377 1.247 . S
O375 Zn369 2.035 . S
O375 C377 1.258 . S
C376 O370 1.247 . S
C376 O371 1.258 . S
C377 O374 1.247 . S
C377 O375 1.258 . S
C378 O380 1.247 . S
C378 O382 1.258 1_545 S
C379 O386 1.247 1_545 S
C379 O387 1.258 . S
O380 C378 1.247 . S
O380 Zn381 2.028 . S
Zn381 O380 2.028 . S
Zn381 O385 2.035 1_554 S
Zn381 O387 2.035 1_554 S
Zn381 O388 2.028 . S
O382 C378 1.258 1_565 S
O382 Zn383 2.035 1_554 S
Zn383 O382 2.035 1_556 S
Zn383 O384 2.028 . S
Zn383 O386 2.028 . S
Zn383 O389 2.035 1_556 S
O384 Zn383 2.028 . S
O384 C390 1.247 . S
O385 Zn381 2.035 1_556 S
O385 C390 1.258 1_545 S
O386 C379 1.247 1_565 S
O386 Zn383 2.028 . S
O387 C379 1.258 . S
O387 Zn381 2.035 1_556 S
O388 Zn381 2.028 . S
O388 C391 1.247 . S
O389 Zn383 2.035 1_554 S
O389 C391 1.258 1_565 S
C390 O384 1.247 . S
C390 O385 1.258 1_565 S
C391 O388 1.247 . S
C391 O389 1.258 1_545 S
C392 O394 1.247 . S
C392 O396 1.258 1_455 S
C393 O400 1.247 . S
C393 O401 1.258 1_655 S
O394 C392 1.247 . S
O394 Zn395 2.028 . S
Zn395 O394 2.028 . S
Zn395 O399 2.035 1_556 S
Zn395 O401 2.035 1_556 S
Zn395 O402 2.028 . S
O396 C392 1.258 1_655 S
O396 Zn397 2.035 1_556 S
Zn397 O396 2.035 1_554 S
Zn397 O398 2.028 . S
Zn397 O400 2.028 . S
Zn397 O403 2.035 1_554 S
O398 Zn397 2.028 . S
O398 C404 1.247 . S
O399 Zn395 2.035 1_554 S
O399 C404 1.258 1_455 S
O400 C393 1.247 . S
O400 Zn397 2.028 . S
O401 C393 1.258 1_455 S
O401 Zn395 2.035 1_554 S
O402 Zn395 2.028 . S
O402 C405 1.247 1_455 S
O403 Zn397 2.035 1_556 S
O403 C405 1.258 . S
C404 O398 1.247 . S
C404 O399 1.258 1_655 S
C405 O402 1.247 1_655 S
C405 O403 1.258 . S
C406 O408 1.247 . S
C406 O410 1.258 . S
C407 O414 1.247 . S
C407 O415 1.258 . S
O408 C406 1.247 . S
O408 Zn409 2.028 . S
Zn409 O408 2.028 . S
Zn409 O413 2.035 1_554 S
Zn409 O415 2.035 1_554 S
Zn409 O416 2.028 . S
O410 C406 1.258 . S
O410 Zn411 2.035 1_554 S
Zn411 O410 2.035 1_556 S
Zn411 O412 2.028 . S
Zn411 O414 2.028 . S
Zn411 O417 2.035 1_556 S
O412 Zn411 2.028 . S
O412 C418 1.247 . S
O413 Zn409 2.035 1_556 S
O413 C418 1.258 . S
O414 C407 1.247 . S
O414 Zn411 2.028 . S
O415 C407 1.258 . S
O415 Zn409 2.035 1_556 S
O416 Zn409 2.028 . S
O416 C419 1.247 . S
O417 Zn411 2.035 1_554 S
O417 C419 1.258 . S
C418 O412 1.247 . S
C418 O413 1.258 . S
C419 O416 1.247 . S
C419 O417 1.258 . S
C420 O422 1.247 1_655 S
C420 O424 1.258 . S
C421 O428 1.247 . S
C421 O429 1.258 1_655 S
O422 C420 1.247 1_455 S
O422 Zn423 2.028 . S
Zn423 O422 2.028 . S
Zn423 O427 2.035 . S
Zn423 O429 2.035 . S
Zn423 O430 2.028 . S
O424 C420 1.258 . S
O424 Zn425 2.035 . S
Zn425 O424 2.035 . S
Zn425 O426 2.028 . S
Zn425 O428 2.028 . S
Zn425 O431 2.035 . S
O426 Zn425 2.028 . S
O426 C432 1.247 1_655 S
O427 Zn423 2.035 . S
O427 C432 1.258 . S
O428 C421 1.247 . S
O428 Zn425 2.028 . S
O429 C421 1.258 1_455 S
O429 Zn423 2.035 . S
O430 Zn423 2.028 . S
O430 C433 1.247 1_455 S
O431 Zn425 2.035 . S
O431 C433 1.258 . S
C432 O426 1.247 1_455 S
C432 O427 1.258 . S
C433 O430 1.247 1_655 S
C433 O431 1.258 . S
C434 O436 1.247 . S
C434 O438 1.258 . S
C435 O442 1.247 . S
C435 O443 1.258 . S
O436 C434 1.247 . S
O436 Zn437 2.028 . S
Zn437 O436 2.028 . S
Zn437 O441 2.035 . S
Zn437 O443 2.035 . S
Zn437 O444 2.028 . S
O438 C434 1.258 . S
O438 Zn439 2.035 . S
Zn439 O438 2.035 . S
Zn439 O440 2.028 . S
Zn439 O442 2.028 . S
Zn439 O445 2.035 . S
O440 Zn439 2.028 . S
O440 C446 1.247 . S
O441 Zn437 2.035 . S
O441 C446 1.258 . S
O442 C435 1.247 . S
O442 Zn439 2.028 . S
O443 C435 1.258 . S
O443 Zn437 2.035 . S
O444 Zn437 2.028 . S
O444 C447 1.247 . S
O445 Zn439 2.035 . S
O445 C447 1.258 . S
C446 O440 1.247 . S
C446 O441 1.258 . S
C447 O444 1.247 . S
C447 O445 1.258 . S
C448 O450 1.247 . S
C448 O452 1.258 1_545 S
C449 O456 1.247 . S
C449 O457 1.258 1_565 S
O450 C448 1.247 . S
O450 Zn451 2.028 . S
Zn451 O450 2.028 . S
Zn451 O455 2.035 . S
Zn451 O457 2.035 . S
Zn451 O458 2.028 . S
O452 C448 1.258 1_565 S
O452 Zn453 2.035 . S
Zn453 O452 2.035 . S
Zn453 O454 2.028 . S
Zn453 O456 2.028 . S
Zn453 O459 2.035 . S
O454 Zn453 2.028 . S
O454 C460 1.247 1_565 S
O455 Zn451 2.035 . S
O455 C460 1.258 . S
O456 C449 1.247 . S
O456 Zn453 2.028 . S
O457 C449 1.258 1_545 S
O457 Zn451 2.035 . S
O458 Zn451 2.028 . S
O458 C461 1.247 . S
O459 Zn453 2.035 . S
O459 C461 1.258 1_565 S
C460 O454 1.247 1_545 S
C460 O455 1.258 . S
C461 O458 1.247 . S
C461 O459 1.258 1_545 S
C462 O464 1.247 . S
C462 O466 1.258 . S
C463 O470 1.247 . S
C463 O471 1.258 . S
O464 C462 1.247 . S
O464 Zn465 2.028 . S
Zn465 O464 2.028 . S
Zn465 O469 2.035 . S
Zn465 O471 2.035 . S
Zn465 O472 2.028 . S
O466 C462 1.258 . S
O466 Zn467 2.035 . S
Zn467 O466 2.035 . S
Zn467 O468 2.028 . S
Zn467 O470 2.028 . S
Zn467 O473 2.035 . S
O468 Zn467 2.028 . S
O468 C474 1.247 . S
O469 Zn465 2.035 . S
O469 C474 1.258 . S
O470 C463 1.247 . S
O470 Zn467 2.028 . S
O471 C463 1.258 . S
O471 Zn465 2.035 . S
O472 Zn465 2.028 . S
O472 C475 1.247 . S
O473 Zn467 2.035 . S
O473 C475 1.258 . S
C474 O468 1.247 . S
C474 O469 1.258 . S
C475 O472 1.247 . S
C475 O473 1.258 . S
C476 O478 1.247 . S
C476 O480 1.258 . S
C477 O484 1.247 . S
C477 O485 1.258 . S
O478 C476 1.247 . S
O478 Zn479 2.028 . S
Zn479 O478 2.028 . S
Zn479 O483 2.035 . S
Zn479 O485 2.035 . S
Zn479 O486 2.028 . S
O480 C476 1.258 . S
O480 Zn481 2.035 . S
Zn481 O480 2.035 . S
Zn481 O482 2.028 . S
Zn481 O484 2.028 . S
Zn481 O487 2.035 . S
O482 Zn481 2.028 . S
O482 C488 1.247 . S
O483 Zn479 2.035 . S
O483 C488 1.258 . S
O484 C477 1.247 . S
O484 Zn481 2.028 . S
O485 C477 1.258 . S
O485 Zn479 2.035 . S
O486 Zn479 2.028 . S
O486 C489 1.247 . S
O487 Zn481 2.035 . S
O487 C489 1.258 . S
C488 O482 1.247 . S
C488 O483 1.258 . S
C489 O486 1.247 . S
C489 O487 1.258 . S
C490 O492 1.247 . S
C490 O494 1.258 . S
C491 O498 1.247 . S
C491 O499 1.258 . S
O492 C490 1.247 . S
O492 Zn493 2.028 . S
Zn493 O492 2.028 . S
Zn493 O497 2.035 . S
Zn493 O499 2.035 . S
Zn493 O500 2.028 . S
O494 C490 1.258 . S
O494 Zn495 2.035 . S
Zn495 O494 2.035 . S
Zn495 O496 2.028 . S
Zn495 O498 2.028 . S
Zn495 O501 2.035 . S
O496 Zn495 2.028 . S
O496 C502 1.247 . S
O497 Zn493 2.035 . S
O497 C502 1.258 . S
O498 C491 1.247 . S
O498 Zn495 2.028 . S
O499 C491 1.258 . S
O499 Zn493 2.035 . S
O500 Zn493 2.028 . S
O500 C503 1.247 . S
O501 Zn495 2.035 . S
O501 C503 1.258 . S
C502 O496 1.247 . S
C502 O497 1.258 . S
C503 O500 1.247 . S
C503 O501 1.258 . S
C504 C505 1.387 . S
C504 H508 0.950 . S
C504 C513 1.390 . S
C505 C504 1.387 . S
C505 C507 1.387 . S
H506 C513 0.950 . S
C507 C505 1.387 . S
C507 C509 1.390 . S
C507 H511 0.950 . S
H508 C504 0.950 . S
C509 C507 1.390 . S
C509 C510 1.387 . S
C509 H512 0.950 . S
C510 C509 1.387 . S
C510 C513 1.387 . S
H511 C507 0.950 . S
H512 C509 0.950 . S
C513 C504 1.390 . S
C513 H506 0.950 . S
C513 C510 1.387 . S
C514 C515 1.387 . S
C514 H518 0.950 . S
C514 C523 1.390 . S
C515 C514 1.387 . S
C515 C517 1.387 . S
H516 C523 0.950 . S
C517 C515 1.387 . S
C517 C519 1.390 . S
C517 H521 0.950 . S
H518 C514 0.950 . S
C519 C517 1.390 . S
C519 C520 1.387 . S
C519 H522 0.950 . S
C520 C519 1.387 . S
C520 C523 1.387 . S
H521 C517 0.950 . S
H522 C519 0.950 . S
C523 C514 1.390 . S
C523 H516 0.950 . S
C523 C520 1.387 . S
C524 C525 1.387 . S
C524 H528 0.950 . S
C524 C533 1.390 . S
C525 C524 1.387 . S
C525 C527 1.387 . S
H526 C533 0.950 . S
C527 C525 1.387 . S
C527 C529 1.390 . S
C527 H531 0.950 . S
H528 C524 0.950 . S
C529 C527 1.390 . S
C529 C530 1.387 . S
C529 H532 0.950 . S
C530 C529 1.387 . S
C530 C533 1.387 . S
H531 C527 0.950 . S
H532 C529 0.950 . S
C533 C524 1.390 . S
C533 H526 0.950 . S
C533 C530 1.387 . S
C534 C535 1.387 . S
C534 H538 0.950 . S
C534 C543 1.390 . S
C535 C534 1.387 . S
C535 C537 1.387 . S
H536 C543 0.950 . S
C537 C535 1.387 . S
C537 C539 1.390 . S
C537 H541 0.950 . S
H538 C534 0.950 . S
C539 C537 1.390 . S
C539 C540 1.387 . S
C539 H542 0.950 . S
C540 C539 1.387 . S
C540 C543 1.387 . S
H541 C537 0.950 . S
H542 C539 0.950 . S
C543 C534 1.390 . S
C543 H536 0.950 . S
C543 C540 1.387 . S
C544 C545 1.387 . S
C544 H548 0.950 . S
C544 C553 1.390 . S
C545 C544 1.387 . S
C545 C547 1.387 . S
H546 C553 0.950 . S
C547 C545 1.387 . S
C547 C549 1.390 . S
C547 H551 0.950 . S
H548 C544 0.950 . S
C549 C547 1.390 . S
C549 C550 1.387 . S
C549 H552 0.950 . S
C550 C549 1.387 . S
C550 C553 1.387 . S
H551 C547 0.950 . S
H552 C549 0.950 . S
C553 C544 1.390 . S
C553 H546 0.950 . S
C553 C550 1.387 . S
C554 C555 1.387 . S
C554 H558 0.950 . S
C554 C563 1.390 . S
C555 C554 1.387 . S
C555 C557 1.387 . S
H556 C563 0.950 . S
C557 C555 1.387 . S
C557 C559 1.390 . S
C557 H561 0.950 . S
H558 C554 0.950 . S
C559 C557 1.390 . S
C559 C560 1.387 . S
C559 H562 0.950 . S
C560 C559 1.387 . S
C560 C563 1.387 . S
H561 C557 0.950 . S
H562 C559 0.950 . S
C563 C554 1.390 . S
C563 H556 0.950 . S
C563 C560 1.387 . S
C564 C565 1.387 . S
C564 H568 0.950 . S
C564 C573 1.390 . S
C565 C564 1.387 . S
C565 C567 1.387 . S
H566 C573 0.950 . S
C567 C565 1.387 . S
C567 C569 1.390 . S
C567 H571 0.950 . S
H568 C564 0.950 . S
C569 C567 1.390 . S
C569 C570 1.387 . S
C569 H572 0.950 . S
C570 C569 1.387 . S
C570 C573 1.387 . S
H571 C567 0.950 . S
H572 C569 0.950 . S
C573 C564 1.390 . S
C573 H566 0.950 . S
C573 C570 1.387 . S
C574 C575 1.387 . S
C574 H578 0.950 . S
C574 C583 1.390 . S
C575 C574 1.387 . S
C575 C577 1.387 . S
H576 C583 0.950 . S
C577 C575 1.387 . S
C577 C579 1.390 . S
C577 H581 0.950 . S
H578 C574 0.950 . S
C579 C577 1.390 . S
C579 C580 1.387 . S
C579 H582 0.950 . S
C580 C579 1.387 . S
C580 C583 1.387 . S
H581 C577 0.950 . S
H582 C579 0.950 . S
C583 C574 1.390 . S
C583 H576 0.950 . S
C583 C580 1.387 . S
C584 C585 1.387 . S
C584 H588 0.950 . S
C584 C593 1.390 . S
C585 C584 1.387 . S
C585 C587 1.387 . S
H586 C593 0.950 . S
C587 C585 1.387 . S
C587 C589 1.390 . S
C587 H591 0.950 . S
H588 C584 0.950 . S
C589 C587 1.390 . S
C589 C590 1.387 . S
C589 H592 0.950 . S
C590 C589 1.387 . S
C590 C593 1.387 . S
H591 C587 0.950 . S
H592 C589 0.950 . S
C593 C584 1.390 . S
C593 H586 0.950 . S
C593 C590 1.387 . S
C594 C595 1.387 . S
C594 H598 0.950 . S
C594 C603 1.390 . S
C595 C594 1.387 . S
C595 C597 1.387 . S
H596 C603 0.950 . S
C597 C595 1.387 . S
C597 C599 1.390 . S
C597 H601 0.950 . S
H598 C594 0.950 . S
C599 C597 1.390 . S
C599 C600 1.387 . S
C599 H602 0.950 . S
C600 C599 1.387 . S
C600 C603 1.387 . S
H601 C597 0.950 . S
H602 C599 0.950 . S
C603 C594 1.390 . S
C603 H596 0.950 . S
C603 C600 1.387 . S
C604 C605 1.387 . S
C604 H608 0.950 . S
C604 C613 1.390 . S
C605 C604 1.387 . S
C605 C607 1.387 . S
H606 C613 0.950 . S
C607 C605 1.387 . S
C607 C609 1.390 . S
C607 H611 0.950 . S
H608 C604 0.950 . S
C609 C607 1.390 . S
C609 C610 1.387 . S
C609 H612 0.950 . S
C610 C609 1.387 . S
C610 C613 1.387 . S
H611 C607 0.950 . S
H612 C609 0.950 . S
C613 C604 1.390 . S
C613 H606 0.950 . S
C613 C610 1.387 . S
C614 C615 1.387 . S
C614 H618 0.950 . S
C614 C623 1.390 . S
C615 C614 1.387 . S
C615 C617 1.387 . S
H616 C623 0.950 . S
C617 C615 1.387 . S
C617 C619 1.390 . S
C617 H621 0.950 . S
H618 C614 0.950 . S
C619 C617 1.390 . S
C619 C620 1.387 . S
C619 H622 0.950 . S
C620 C619 1.387 . S
C620 C623 1.387 . S
H621 C617 0.950 . S
H622 C619 0.950 . S
C623 C614 1.390 . S
C623 H616 0.950 . S
C623 C620 1.387 . S
C624 C625 1.387 . S
C624 H628 0.950 . S
C624 C633 1.390 . S
C625 C624 1.387 . S
C625 C627 1.387 1_655 S
H626 C633 0.950 . S
C627 C625 1.387 1_455 S
C627 C629 1.390 . S
C627 H631 0.950 . S
H628 C624 0.950 . S
C629 C627 1.390 . S
C629 C630 1.387 . S
C629 H632 0.950 . S
C630 C629 1.387 . S
C630 C633 1.387 1_455 S
H631 C627 0.950 . S
H632 C629 0.950 . S
C633 C624 1.390 . S
C633 H626 0.950 . S
C633 C630 1.387 1_655 S
C634 C635 1.387 . S
C634 H638 0.950 . S
C634 C643 1.390 . S
C635 C634 1.387 . S
C635 C637 1.387 . S
H636 C643 0.950 . S
C637 C635 1.387 . S
C637 C639 1.390 . S
C637 H641 0.950 . S
H638 C634 0.950 . S
C639 C637 1.390 . S
C639 C640 1.387 . S
C639 H642 0.950 . S
C640 C639 1.387 . S
C640 C643 1.387 . S
H641 C637 0.950 . S
H642 C639 0.950 . S
C643 C634 1.390 . S
C643 H636 0.950 . S
C643 C640 1.387 . S
C644 C645 1.387 . S
C644 H648 0.950 . S
C644 C653 1.390 1_545 S
C645 C644 1.387 . S
C645 C647 1.387 . S
H646 C653 0.950 . S
C647 C645 1.387 . S
C647 C649 1.390 . S
C647 H651 0.950 . S
H648 C644 0.950 . S
C649 C647 1.390 . S
C649 C650 1.387 1_545 S
C649 H652 0.950 . S
C650 C649 1.387 1_565 S
C650 C653 1.387 . S
H651 C647 0.950 . S
H652 C649 0.950 . S
C653 C644 1.390 1_565 S
C653 H646 0.950 . S
C653 C650 1.387 . S
C654 C655 1.387 1_565 S
C654 H658 0.926 . S
C654 C663 1.390 . S
C655 C654 1.387 1_545 S
C655 C657 1.387 . S
H656 C663 0.950 . S
C657 C655 1.387 . S
C657 C659 1.390 1_545 S
C657 H661 0.950 . S
H658 C654 0.926 . S
C659 C657 1.390 1_565 S
C659 C660 1.387 . S
C659 H662 0.950 . S
C660 C659 1.387 . S
C660 C663 1.387 . S
H661 C657 0.950 . S
H662 C659 0.950 . S
C663 C654 1.390 . S
C663 H656 0.950 . S
C663 C660 1.387 . S
C664 C665 1.387 . S
C664 H668 0.950 . S
C664 C673 1.390 . S
C665 C664 1.387 . S
C665 C667 1.387 1_655 S
H666 C673 0.950 . S
C667 C665 1.387 1_455 S
C667 C669 1.390 . S
C667 H671 0.950 . S
H668 C664 0.950 . S
C669 C667 1.390 . S
C669 C670 1.387 . S
C669 H672 0.950 . S
C670 C669 1.387 . S
C670 C673 1.387 1_455 S
H671 C667 0.950 . S
H672 C669 0.950 . S
C673 C664 1.390 . S
C673 H666 0.950 . S
C673 C670 1.387 1_655 S
C674 C675 1.387 . S
C674 H678 0.950 . S
C674 C683 1.390 . S
C675 C674 1.387 . S
C675 C677 1.387 . S
H676 C683 0.950 . S
C677 C675 1.387 . S
C677 C679 1.390 . S
C677 H681 0.950 . S
H678 C674 0.950 . S
C679 C677 1.390 . S
C679 C680 1.387 . S
C679 H682 0.950 . S
C680 C679 1.387 . S
C680 C683 1.387 . S
H681 C677 0.950 . S
H682 C679 0.950 . S
C683 C674 1.390 . S
C683 H676 0.950 . S
C683 C680 1.387 . S
C684 C685 1.387 . S
C684 H688 0.950 . S
C684 C693 1.390 . S
C685 C684 1.387 . S
C685 C687 1.387 . S
H686 C693 0.950 . S
C687 C685 1.387 . S
C687 C689 1.390 . S
C687 H691 0.950 . S
H688 C684 0.950 . S
C689 C687 1.390 . S
C689 C690 1.387 . S
C689 H692 0.950 . S
C690 C689 1.387 . S
C690 C693 1.387 . S
H691 C687 0.950 . S
H692 C689 0.950 . S
C693 C684 1.390 . S
C693 H686 0.950 . S
C693 C690 1.387 . S
C694 C695 1.387 . S
C694 H698 0.950 . S
C694 C703 1.390 . S
C695 C694 1.387 . S
C695 C697 1.387 . S
H696 C703 0.950 . S
C697 C695 1.387 . S
C697 C699 1.390 . S
C697 H701 0.950 . S
H698 C694 0.950 . S
C699 C697 1.390 . S
C699 C700 1.387 . S
C699 H702 0.950 . S
C700 C699 1.387 . S
C700 C703 1.387 . S
H701 C697 0.950 . S
H702 C699 0.950 . S
C703 C694 1.390 . S
C703 H696 0.950 . S
C703 C700 1.387 . S
C704 C705 1.387 . S
C704 H708 0.950 . S
C704 C713 1.390 . S
C705 C704 1.387 . S
C705 C707 1.387 . S
H706 C713 0.950 . S
C707 C705 1.387 . S
C707 C709 1.390 . S
C707 H711 0.950 . S
H708 C704 0.950 . S
C709 C707 1.390 . S
C709 C710 1.387 . S
C709 H712 0.950 . S
C710 C709 1.387 . S
C710 C713 1.387 . S
H711 C707 0.950 . S
H712 C709 0.950 . S
C713 C704 1.390 . S
C713 H706 0.950 . S
C713 C710 1.387 . S
C714 C715 1.387 . S
C714 H718 0.950 . S
C714 C723 1.390 . S
C715 C714 1.387 . S
C715 C717 1.387 . S
H716 C723 0.950 . S
C717 C715 1.387 . S
C717 C719 1.390 . S
C717 H721 0.950 . S
H718 C714 0.950 . S
C719 C717 1.390 . S
C719 C720 1.387 . S
C719 H722 0.950 . S
C720 C719 1.387 . S
C720 C723 1.387 . S
H721 C717 0.950 . S
H722 C719 0.950 . S
C723 C714 1.390 . S
C723 H716 0.950 . S
C723 C720 1.387 . S
C724 C725 1.387 . S
C724 H728 0.950 . S
C724 C733 1.390 . S
C725 C724 1.387 . S
C725 C727 1.387 . S
H726 C733 0.950 . S
C727 C725 1.387 . S
C727 C729 1.390 . S
C727 H731 0.950 . S
H728 C724 0.950 . S
C729 C727 1.390 . S
C729 C730 1.387 . S
C729 H732 0.950 . S
C730 C729 1.387 . S
C730 C733 1.387 . S
H731 C727 0.950 . S
H732 C729 0.950 . S
C733 C724 1.390 . S
C733 H726 0.950 . S
C733 C730 1.387 . S
C734 C735 1.387 . S
C734 H738 0.950 . S
C734 C743 1.390 . S
C735 C734 1.387 . S
C735 C737 1.387 . S
H736 C743 0.950 . S
C737 C735 1.387 . S
C737 C739 1.390 . S
C737 H741 0.950 . S
H738 C734 0.950 . S
C739 C737 1.390 . S
C739 C740 1.387 . S
C739 H742 0.950 . S
C740 C739 1.387 . S
C740 C743 1.387 . S
H741 C737 0.950 . S
H742 C739 0.950 . S
C743 C734 1.390 . S
C743 H736 0.950 . S
C743 C740 1.387 . S
C744 C745 1.387 . S
C744 H748 0.950 . S
C744 C753 1.390 . S
C745 C744 1.387 . S
C745 C747 1.387 . S
H746 C753 0.950 . S
C747 C745 1.387 . S
C747 C749 1.390 . S
C747 H751 0.950 . S
H748 C744 0.950 . S
C749 C747 1.390 . S
C749 C750 1.387 . S
C749 H752 0.950 . S
C750 C749 1.387 . S
C750 C753 1.387 . S
H751 C747 0.950 . S
H752 C749 0.950 . S
C753 C744 1.390 . S
C753 H746 0.950 . S
C753 C750 1.387 . S
C754 C755 1.387 . S
C754 H758 0.950 . S
C754 C763 1.390 . S
C755 C754 1.387 . S
C755 C757 1.387 . S
H756 C763 0.950 . S
C757 C755 1.387 . S
C757 C759 1.390 . S
C757 H761 0.950 . S
H758 C754 0.950 . S
C759 C757 1.390 . S
C759 C760 1.387 . S
C759 H762 0.950 . S
C760 C759 1.387 . S
C760 C763 1.387 . S
H761 C757 0.950 . S
H762 C759 0.950 . S
C763 C754 1.390 . S
C763 H756 0.950 . S
C763 C760 1.387 . S
C764 C765 1.387 . S
C764 H768 0.950 . S
C764 C773 1.390 . S
C765 C764 1.387 . S
C765 C767 1.387 . S
H766 C773 0.950 . S
C767 C765 1.387 . S
C767 C769 1.390 . S
C767 H771 0.950 . S
H768 C764 0.950 . S
C769 C767 1.390 . S
C769 C770 1.387 . S
C769 H772 0.950 . S
C770 C769 1.387 . S
C770 C773 1.387 . S
H771 C767 0.950 . S
H772 C769 0.950 . S
C773 C764 1.390 . S
C773 H766 0.950 . S
C773 C770 1.387 . S
C774 C775 1.387 . S
C774 H778 0.950 . S
C774 C783 1.390 . S
C775 C774 1.387 . S
C775 C777 1.387 . S
H776 C783 0.950 . S
C777 C775 1.387 . S
C777 C779 1.390 . S
C777 H781 0.950 . S
H778 C774 0.950 . S
C779 C777 1.390 . S
C779 C780 1.387 . S
C779 H782 0.950 . S
C780 C779 1.387 . S
C780 C783 1.387 . S
H781 C777 0.950 . S
H782 C779 0.950 . S
C783 C774 1.390 . S
C783 H776 0.950 . S
C783 C780 1.387 . S
C784 C785 1.387 . S
C784 H788 0.950 . S
C784 C793 1.390 . S
C785 C784 1.387 . S
C785 C787 1.387 . S
H786 C793 0.950 . S
C787 C785 1.387 . S
C787 C789 1.390 . S
C787 H791 0.950 . S
H788 C784 0.950 . S
C789 C787 1.390 . S
C789 C790 1.387 . S
C789 H792 0.950 . S
C790 C789 1.387 . S
C790 C793 1.387 . S
H791 C787 0.950 . S
H792 C789 0.950 . S
C793 C784 1.390 . S
C793 H786 0.950 . S
C793 C790 1.387 . S
C794 C795 1.387 . S
C794 H798 0.950 . S
C794 C803 1.390 . S
C795 C794 1.387 . S
C795 C797 1.387 . S
H796 C803 0.950 . S
C797 C795 1.387 . S
C797 C799 1.390 . S
C797 H801 0.950 . S
H798 C794 0.950 . S
C799 C797 1.390 . S
C799 C800 1.387 . S
C799 H802 0.950 . S
C800 C799 1.387 . S
C800 C803 1.387 . S
H801 C797 0.950 . S
H802 C799 0.950 . S
C803 C794 1.390 . S
C803 H796 0.950 . S
C803 C800 1.387 . S
C804 C805 1.387 . S
C804 H808 0.950 . S
C804 C813 1.390 1_655 S
C805 C804 1.387 . S
C805 C807 1.387 . S
H806 C813 0.950 . S
C807 C805 1.387 . S
C807 C809 1.390 1_655 S
C807 H811 0.950 . S
H808 C804 0.950 . S
C809 C807 1.390 1_455 S
C809 C810 1.387 . S
C809 H812 0.950 . S
C810 C809 1.387 . S
C810 C813 1.387 . S
H811 C807 0.950 . S
H812 C809 0.950 . S
C813 C804 1.390 1_455 S
C813 H806 0.950 . S
C813 C810 1.387 . S
C814 C815 1.387 . S
C814 H818 0.950 . S
C814 C823 1.390 . S
C815 C814 1.387 . S
C815 C817 1.387 . S
H816 C823 0.950 . S
C817 C815 1.387 . S
C817 C819 1.390 . S
C817 H821 0.950 . S
H818 C814 0.950 . S
C819 C817 1.390 . S
C819 C820 1.387 . S
C819 H822 0.950 . S
C820 C819 1.387 . S
C820 C823 1.387 . S
H821 C817 0.950 . S
H822 C819 0.950 . S
C823 C814 1.390 . S
C823 H816 0.950 . S
C823 C820 1.387 . S
C824 C825 1.414 . S
C824 H828 0.969 . S
C824 C833 1.348 1_565 S
C825 C824 1.414 . S
C825 C827 1.387 . S
H826 C833 0.950 . S
C827 C825 1.387 . S
C827 C829 1.390 1_565 S
C827 H831 0.950 . S
H828 C824 0.969 . S
C829 C827 1.390 1_545 S
C829 C830 1.387 . S
C829 H832 0.950 . S
C830 C829 1.387 . S
C830 C833 1.387 . S
H831 C827 0.950 . S
H832 C829 0.950 . S
C833 C824 1.348 1_545 S
C833 H826 0.950 . S
C833 C830 1.387 . S
C834 C835 1.387 1_545 S
C834 H838 0.950 . S
C834 C843 1.390 . S
C835 C834 1.387 1_565 S
C835 C837 1.387 1_556 S
H836 C843 0.950 . S
C837 C835 1.387 1_554 S
C837 C839 1.390 . S
C837 H841 0.950 . S
H838 C834 0.950 . S
C839 C837 1.390 . S
C839 C840 1.387 1_565 S
C839 H842 0.950 . S
C840 C839 1.387 1_545 S
C840 C843 1.387 1_554 S
H841 C837 0.950 . S
H842 C839 0.950 . S
C843 C834 1.390 . S
C843 H836 0.950 . S
C843 C840 1.387 1_556 S
C844 C845 1.370 1_456 S
C844 H848 0.936 . S
C844 C853 1.424 . S
C845 C844 1.370 1_654 S
C845 C847 1.387 . S
H846 C853 0.950 . S
C847 C845 1.387 . S
C847 C849 1.421 . S
C847 H851 0.950 . S
H848 C844 0.936 . S
C849 C847 1.421 . S
C849 C850 1.372 1_654 S
C849 H852 0.936 . S
C850 C849 1.372 1_456 S
C850 C853 1.387 . S
H851 C847 0.950 . S
H852 C849 0.936 . S
C853 C844 1.424 . S
C853 H846 0.950 . S
C853 C850 1.387 . S
C854 C855 1.387 . S
C854 H858 0.950 . S
C854 C863 1.390 . S
C855 C854 1.387 . S
C855 C857 1.387 1_554 S
H856 C863 0.950 . S
C857 C855 1.387 1_556 S
C857 C859 1.390 . S
C857 H861 0.950 . S
H858 C854 0.950 . S
C859 C857 1.390 . S
C859 C860 1.387 . S
C859 H862 0.950 . S
C860 C859 1.387 . S
C860 C863 1.387 1_556 S
H861 C857 0.950 . S
H862 C859 0.950 . S
C863 C854 1.390 . S
C863 H856 0.950 . S
C863 C860 1.387 1_554 S
C864 C865 1.387 . S
C864 H868 0.950 1_554 S
C864 C873 1.390 . S
C865 C864 1.387 . S
C865 C867 1.387 . S
H866 C873 0.950 . S
C867 C865 1.387 . S
C867 C869 1.390 . S
C867 H871 0.950 . S
H868 C864 0.950 1_556 S
C869 C867 1.390 . S
C869 C870 1.387 . S
C869 H872 0.950 . S
C870 C869 1.387 . S
C870 C873 1.387 . S
H871 C867 0.950 . S
H872 C869 0.950 . S
C873 C864 1.390 . S
C873 H866 0.950 . S
C873 C870 1.387 . S
C874 C875 1.387 . S
C874 H878 0.950 . S
C874 C883 1.390 . S
C875 C874 1.387 . S
C875 C877 1.387 . S
H876 C883 0.988 . S
C877 C875 1.387 . S
C877 C879 1.390 . S
C877 H881 0.950 . S
H878 C874 0.950 . S
C879 C877 1.390 . S
C879 C880 1.387 . S
C879 H882 0.950 . S
C880 C879 1.387 . S
C880 C883 1.387 . S
H881 C877 0.950 . S
H882 C879 0.950 . S
C883 C874 1.390 . S
C883 H876 0.988 . S
C883 C880 1.387 . S
C884 C885 1.387 . S
C884 H888 0.950 . S
C884 C893 1.390 . S
C885 C884 1.387 . S
C885 C887 1.387 . S
H886 C893 0.950 . S
C887 C885 1.387 . S
C887 C889 1.390 . S
C887 H891 0.950 . S
H888 C884 0.950 . S
C889 C887 1.390 . S
C889 C890 1.387 . S
C889 H892 0.950 1_554 S
C890 C889 1.387 . S
C890 C893 1.387 . S
H891 C887 0.950 . S
H892 C889 0.950 1_556 S
C893 C884 1.390 . S
C893 H886 0.950 . S
C893 C890 1.387 . S
C894 C895 1.387 . S
C894 H898 0.950 . S
C894 C903 1.390 . S
C895 C894 1.387 . S
C895 C897 1.387 . S
H896 C903 0.950 . S
C897 C895 1.387 . S
C897 C899 1.390 . S
C897 H901 0.950 . S
H898 C894 0.950 . S
C899 C897 1.390 . S
C899 C900 1.387 . S
C899 H902 0.950 . S
C900 C899 1.387 . S
C900 C903 1.387 . S
H901 C897 0.950 . S
H902 C899 0.950 . S
C903 C894 1.390 . S
C903 H896 0.950 . S
C903 C900 1.387 . S
C904 C905 1.387 . S
C904 H908 0.950 . S
C904 C913 1.390 . S
C905 C904 1.387 . S
C905 C907 1.387 . S
H906 C913 0.950 . S
C907 C905 1.387 . S
C907 C909 1.390 . S
C907 H911 0.950 . S
H908 C904 0.950 . S
C909 C907 1.390 . S
C909 C910 1.387 . S
C909 H912 0.950 . S
C910 C909 1.387 . S
C910 C913 1.387 . S
H911 C907 0.950 . S
H912 C909 0.950 . S
C913 C904 1.390 . S
C913 H906 0.950 . S
C913 C910 1.387 . S
C914 C915 1.387 . S
C914 H918 0.950 . S
C914 C923 1.390 . S
C915 C914 1.387 . S
C915 C917 1.387 . S
H916 C923 0.950 . S
C917 C915 1.387 . S
C917 C919 1.390 . S
C917 H921 0.950 . S
H918 C914 0.950 . S
C919 C917 1.390 . S
C919 C920 1.387 . S
C919 H922 0.950 . S
C920 C919 1.387 . S
C920 C923 1.387 . S
H921 C917 0.950 . S
H922 C919 0.950 . S
C923 C914 1.390 . S
C923 H916 0.950 . S
C923 C920 1.387 . S
C924 C925 1.387 . S
C924 H928 0.950 1_556 S
C924 C933 1.390 . S
C925 C924 1.387 . S
C925 C927 1.387 . S
H926 C933 0.950 . S
C927 C925 1.387 . S
C927 C929 1.390 . S
C927 H931 0.950 . S
H928 C924 0.950 1_554 S
C929 C927 1.390 . S
C929 C930 1.387 . S
C929 H932 0.950 . S
C930 C929 1.387 . S
C930 C933 1.387 . S
H931 C927 0.950 . S
H932 C929 0.950 . S
C933 C924 1.390 . S
C933 H926 0.950 . S
C933 C930 1.387 . S
C934 C935 1.387 . S
C934 H938 0.950 . S
C934 C943 1.390 . S
C935 C934 1.387 . S
C935 C937 1.387 . S
H936 C943 0.950 . S
C937 C935 1.387 . S
C937 C939 1.390 . S
C937 H941 0.950 . S
H938 C934 0.950 . S
C939 C937 1.390 . S
C939 C940 1.387 . S
C939 H942 0.950 . S
C940 C939 1.387 . S
C940 C943 1.387 . S
H941 C937 0.950 . S
H942 C939 0.950 . S
C943 C934 1.390 . S
C943 H936 0.950 . S
C943 C940 1.387 . S
C944 C945 1.387 . S
C944 H948 0.950 . S
C944 C953 1.390 . S
C945 C944 1.387 . S
C945 C947 1.387 . S
H946 C953 0.950 . S
C947 C945 1.387 . S
C947 C949 1.390 . S
C947 H951 0.950 1_556 S
H948 C944 0.950 . S
C949 C947 1.390 . S
C949 C950 1.387 . S
C949 H952 0.950 . S
C950 C949 1.387 . S
C950 C953 1.387 . S
H951 C947 0.950 1_554 S
H952 C949 0.950 . S
C953 C944 1.390 . S
C953 H946 0.950 . S
C953 C950 1.387 . S
C954 C955 1.387 . S
C954 H958 0.950 . S
C954 C963 1.390 . S
C955 C954 1.387 . S
C955 C957 1.387 . S
H956 C963 0.950 . S
C957 C955 1.387 . S
C957 C959 1.390 . S
C957 H961 0.950 . S
H958 C954 0.950 . S
C959 C957 1.390 . S
C959 C960 1.387 . S
C959 H962 0.950 . S
C960 C959 1.387 . S
C960 C963 1.387 . S
H961 C957 0.950 . S
H962 C959 0.950 . S
C963 C954 1.390 . S
C963 H956 0.950 . S
C963 C960 1.387 . S
C964 C965 1.387 . S
C964 H968 0.950 . S
C964 C973 1.390 . S
C965 C964 1.387 . S
C965 C967 1.387 . S
H966 C973 0.950 . S
C967 C965 1.387 . S
C967 C969 1.390 . S
C967 H971 0.950 . S
H968 C964 0.950 . S
C969 C967 1.390 . S
C969 C970 1.387 . S
C969 H972 0.950 . S
C970 C969 1.387 . S
C970 C973 1.387 . S
H971 C967 0.950 . S
H972 C969 0.950 . S
C973 C964 1.390 . S
C973 H966 0.950 . S
C973 C970 1.387 . S
C974 C975 1.387 . S
C974 H978 0.950 . S
C974 C983 1.390 . S
C975 C974 1.387 . S
C975 C977 1.387 . S
H976 C983 0.950 . S
C977 C975 1.387 . S
C977 C979 1.390 . S
C977 H981 0.950 . S
H978 C974 0.950 . S
C979 C977 1.390 . S
C979 C980 1.387 . S
C979 H982 0.950 . S
C980 C979 1.387 . S
C980 C983 1.387 . S
H981 C977 0.950 . S
H982 C979 0.950 . S
C983 C974 1.390 . S
C983 H976 0.950 . S
C983 C980 1.387 . S
C984 C985 1.387 . S
C984 H988 0.950 . S
C984 C993 1.390 . S
C985 C984 1.387 . S
C985 C987 1.387 . S
H986 C993 0.950 . S
C987 C985 1.387 . S
C987 C989 1.390 . S
C987 H991 0.950 . S
H988 C984 0.950 . S
C989 C987 1.390 . S
C989 C990 1.387 . S
C989 H992 0.950 . S
C990 C989 1.387 . S
C990 C993 1.387 . S
H991 C987 0.950 . S
H992 C989 0.950 . S
C993 C984 1.390 . S
C993 H986 0.950 . S
C993 C990 1.387 . S
C994 C995 1.387 . S
C994 H998 0.950 . S
C994 C1003 1.390 1_565 S
C995 C994 1.387 . S
C995 C997 1.387 . S
H996 C1003 0.950 . S
C997 C995 1.387 . S
C997 C999 1.390 1_565 S
C997 H1001 0.950 . S
H998 C994 0.950 . S
C999 C997 1.390 1_545 S
C999 C1000 1.387 . S
C999 H1002 0.950 . S
C1000 C999 1.387 . S
C1000 C1003 1.387 . S
H1001 C997 0.950 . S
H1002 C999 0.950 . S
C1003 C994 1.390 1_545 S
C1003 H996 0.950 . S
C1003 C1000 1.387 . S
C1004 C1005 1.387 . S
C1004 H1008 0.950 . S
C1004 C1013 1.390 1_455 S
C1005 C1004 1.387 . S
C1005 C1007 1.387 . S
H1006 C1013 0.950 . S
C1007 C1005 1.387 . S
C1007 C1009 1.390 1_455 S
C1007 H1011 0.950 . S
H1008 C1004 0.950 . S
C1009 C1007 1.390 1_655 S
C1009 C1010 1.387 . S
C1009 H1012 0.950 . S
C1010 C1009 1.387 . S
C1010 C1013 1.387 . S
H1011 C1007 0.950 . S
H1012 C1009 0.950 . S
C1013 C1004 1.390 1_655 S
C1013 H1006 0.950 . S
C1013 C1010 1.387 . S
C1014 C1015 1.387 . S
C1014 H1018 0.950 . S
C1014 C1023 1.390 . S
C1015 C1014 1.387 . S
C1015 C1017 1.387 . S
H1016 C1023 0.950 . S
C1017 C1015 1.387 . S
C1017 C1019 1.390 . S
C1017 H1021 0.950 . S
H1018 C1014 0.950 . S
C1019 C1017 1.390 . S
C1019 C1020 1.387 . S
C1019 H1022 0.950 . S
C1020 C1019 1.387 . S
C1020 C1023 1.387 . S
H1021 C1017 0.950 . S
H1022 C1019 0.950 . S
C1023 C1014 1.390 . S
C1023 H1016 0.950 . S
C1023 C1020 1.387 . S
C1024 C1025 1.387 . S
C1024 H1028 0.950 . S
C1024 C1033 1.390 1_565 S
C1025 C1024 1.387 . S
C1025 C1027 1.387 . S
H1026 C1033 0.950 . S
C1027 C1025 1.387 . S
C1027 C1029 1.390 1_565 S
C1027 H1031 0.950 . S
H1028 C1024 0.950 . S
C1029 C1027 1.390 1_545 S
C1029 C1030 1.387 . S
C1029 H1032 0.950 . S
C1030 C1029 1.387 . S
C1030 C1033 1.387 . S
H1031 C1027 0.950 . S
H1032 C1029 0.950 . S
C1033 C1024 1.390 1_545 S
C1033 H1026 0.950 . S
C1033 C1030 1.387 . S
C1034 C1035 1.387 . S
C1034 H1038 0.950 . S
C1034 C1043 1.390 1_455 S
C1035 C1034 1.387 . S
C1035 C1037 1.387 . S
H1036 C1043 0.950 . S
C1037 C1035 1.387 . S
C1037 C1039 1.390 1_455 S
C1037 H1041 0.950 . S
H1038 C1034 0.950 . S
C1039 C1037 1.390 1_655 S
C1039 C1040 1.387 . S
C1039 H1042 0.950 . S
C1040 C1039 1.387 . S
C1040 C1043 1.387 . S
H1041 C1037 0.950 . S
H1042 C1039 0.950 . S
C1043 C1034 1.390 1_655 S
C1043 H1036 0.950 . S
C1043 C1040 1.387 . S
C1044 C1045 1.387 . S
C1044 H1048 0.950 . S
C1044 C1053 1.390 . S
C1045 C1044 1.387 . S
C1045 C1047 1.387 . S
H1046 C1053 0.950 . S
C1047 C1045 1.387 . S
C1047 C1049 1.390 . S
C1047 H1051 0.950 . S
H1048 C1044 0.950 . S
C1049 C1047 1.390 . S
C1049 C1050 1.387 . S
C1049 H1052 0.950 . S
C1050 C1049 1.387 . S
C1050 C1053 1.387 . S
H1051 C1047 0.950 . S
H1052 C1049 0.950 . S
C1053 C1044 1.390 . S
C1053 H1046 0.950 . S
C1053 C1050 1.387 . S
C1054 C1055 1.387 . S
C1054 H1058 0.950 . S
C1054 C1063 1.390 . S
C1055 C1054 1.387 . S
C1055 C1057 1.387 . S
H1056 C1063 0.950 . S
C1057 C1055 1.387 . S
C1057 C1059 1.390 . S
C1057 H1061 0.950 . S
H1058 C1054 0.950 . S
C1059 C1057 1.390 . S
C1059 C1060 1.387 . S
C1059 H1062 0.950 . S
C1060 C1059 1.387 . S
C1060 C1063 1.387 . S
H1061 C1057 0.950 . S
H1062 C1059 0.950 . S
C1063 C1054 1.390 . S
C1063 H1056 0.950 . S
C1063 C1060 1.387 . S
C1064 C1065 1.387 . S
C1064 H1068 0.950 . S
C1064 C1073 1.390 . S
C1065 C1064 1.387 . S
C1065 C1067 1.387 . S
H1066 C1073 0.950 . S
C1067 C1065 1.387 . S
C1067 C1069 1.390 . S
C1067 H1071 0.950 . S
H1068 C1064 0.950 . S
C1069 C1067 1.390 . S
C1069 C1070 1.387 . S
C1069 H1072 0.950 . S
C1070 C1069 1.387 . S
C1070 C1073 1.387 . S
H1071 C1067 0.950 . S
H1072 C1069 0.950 . S
C1073 C1064 1.390 . S
C1073 H1066 0.950 . S
C1073 C1070 1.387 . S
C1074 C1075 1.387 . S
C1074 H1078 0.950 . S
C1074 C1083 1.390 . S
C1075 C1074 1.387 . S
C1075 C1077 1.387 . S
H1076 C1083 0.950 . S
C1077 C1075 1.387 . S
C1077 C1079 1.390 . S
C1077 H1081 0.950 . S
H1078 C1074 0.950 . S
C1079 C1077 1.390 . S
C1079 C1080 1.387 . S
C1079 H1082 0.950 . S
C1080 C1079 1.387 . S
C1080 C1083 1.387 . S
H1081 C1077 0.950 . S
H1082 C1079 0.950 . S
C1083 C1074 1.390 . S
C1083 H1076 0.950 . S
C1083 C1080 1.387 . S
C1084 C1085 1.387 . S
C1084 H1088 0.950 . S
C1084 C1093 1.390 . S
C1085 C1084 1.387 . S
C1085 C1087 1.387 . S
H1086 C1093 0.950 . S
C1087 C1085 1.387 . S
C1087 C1089 1.390 . S
C1087 H1091 0.950 . S
H1088 C1084 0.950 . S
C1089 C1087 1.390 . S
C1089 C1090 1.387 . S
C1089 H1092 0.950 . S
C1090 C1089 1.387 . S
C1090 C1093 1.387 . S
H1091 C1087 0.950 . S
H1092 C1089 0.950 . S
C1093 C1084 1.390 . S
C1093 H1086 0.950 . S
C1093 C1090 1.387 . S
C1094 C1095 1.387 . S
C1094 H1098 0.950 . S
C1094 C1103 1.390 . S
C1095 C1094 1.387 . S
C1095 C1097 1.387 . S
H1096 C1103 0.950 . S
C1097 C1095 1.387 . S
C1097 C1099 1.390 . S
C1097 H1101 0.950 . S
H1098 C1094 0.950 . S
C1099 C1097 1.390 . S
C1099 C1100 1.387 . S
C1099 H1102 0.950 . S
C1100 C1099 1.387 . S
C1100 C1103 1.387 . S
H1101 C1097 0.950 . S
H1102 C1099 0.950 . S
C1103 C1094 1.390 . S
C1103 H1096 0.950 . S
C1103 C1100 1.387 . S
C1104 C1105 1.387 . S
C1104 H1108 0.950 . S
C1104 C1113 1.390 . S
C1105 C1104 1.387 . S
C1105 C1107 1.387 . S
H1106 C1113 0.950 . S
C1107 C1105 1.387 . S
C1107 C1109 1.390 . S
C1107 H1111 0.950 . S
H1108 C1104 0.950 . S
C1109 C1107 1.390 . S
C1109 C1110 1.387 . S
C1109 H1112 0.950 . S
C1110 C1109 1.387 . S
C1110 C1113 1.387 . S
H1111 C1107 0.950 . S
H1112 C1109 0.950 . S
C1113 C1104 1.390 . S
C1113 H1106 0.950 . S
C1113 C1110 1.387 . S
C1114 C1115 1.387 . S
C1114 H1118 0.950 . S
C1114 C1123 1.390 . S
C1115 C1114 1.387 . S
C1115 C1117 1.387 . S
H1116 C1123 0.950 . S
C1117 C1115 1.387 . S
C1117 C1119 1.390 . S
C1117 H1121 0.950 . S
H1118 C1114 0.950 . S
C1119 C1117 1.390 . S
C1119 C1120 1.387 . S
C1119 H1122 0.950 . S
C1120 C1119 1.387 . S
C1120 C1123 1.387 . S
H1121 C1117 0.950 . S
H1122 C1119 0.950 . S
C1123 C1114 1.390 . S
C1123 H1116 0.950 . S
C1123 C1120 1.387 . S
C1124 C1125 1.387 . S
C1124 H1128 0.950 . S
C1124 C1133 1.390 . S
C1125 C1124 1.387 . S
C1125 C1127 1.387 . S
H1126 C1133 0.950 . S
C1127 C1125 1.387 . S
C1127 C1129 1.390 . S
C1127 H1131 0.950 . S
H1128 C1124 0.950 . S
C1129 C1127 1.390 . S
C1129 C1130 1.387 . S
C1129 H1132 0.950 . S
C1130 C1129 1.387 . S
C1130 C1133 1.387 . S
H1131 C1127 0.950 . S
H1132 C1129 0.950 . S
C1133 C1124 1.390 . S
C1133 H1126 0.950 . S
C1133 C1130 1.387 . S
C1134 C1135 1.387 . S
C1134 H1138 0.950 . S
C1134 C1143 1.390 . S
C1135 C1134 1.387 . S
C1135 C1137 1.387 . S
H1136 C1143 0.950 . S
C1137 C1135 1.387 . S
C1137 C1139 1.390 . S
C1137 H1141 0.950 . S
H1138 C1134 0.950 . S
C1139 C1137 1.390 . S
C1139 C1140 1.387 . S
C1139 H1142 0.950 . S
C1140 C1139 1.387 . S
C1140 C1143 1.387 . S
H1141 C1137 0.950 . S
H1142 C1139 0.950 . S
C1143 C1134 1.390 . S
C1143 H1136 0.950 . S
C1143 C1140 1.387 . S
C1144 C1145 1.387 . S
C1144 H1148 0.950 . S
C1144 C1153 1.390 . S
C1145 C1144 1.387 . S
C1145 C1147 1.387 . S
H1146 C1153 0.950 . S
C1147 C1145 1.387 . S
C1147 C1149 1.390 . S
C1147 H1151 0.950 . S
H1148 C1144 0.950 . S
C1149 C1147 1.390 . S
C1149 C1150 1.387 . S
C1149 H1152 0.950 . S
C1150 C1149 1.387 . S
C1150 C1153 1.387 . S
H1151 C1147 0.950 . S
H1152 C1149 0.950 . S
C1153 C1144 1.390 . S
C1153 H1146 0.950 . S
C1153 C1150 1.387 . S
C1154 C1155 1.387 . S
C1154 H1158 0.950 . S
C1154 C1163 1.390 . S
C1155 C1154 1.387 . S
C1155 C1157 1.387 . S
H1156 C1163 0.950 . S
C1157 C1155 1.387 . S
C1157 C1159 1.390 . S
C1157 H1161 0.950 . S
H1158 C1154 0.950 . S
C1159 C1157 1.390 . S
C1159 C1160 1.387 . S
C1159 H1162 0.950 . S
C1160 C1159 1.387 . S
C1160 C1163 1.387 . S
H1161 C1157 0.950 . S
H1162 C1159 0.950 . S
C1163 C1154 1.390 . S
C1163 H1156 0.950 . S
C1163 C1160 1.387 . S
C1164 C1165 1.387 . S
C1164 H1168 0.950 . S
C1164 C1173 1.390 . S
C1165 C1164 1.387 . S
C1165 C1167 1.387 1_655 S
H1166 C1173 0.950 . S
C1167 C1165 1.387 1_455 S
C1167 C1169 1.390 . S
C1167 H1171 0.950 . S
H1168 C1164 0.950 . S
C1169 C1167 1.390 . S
C1169 C1170 1.387 . S
C1169 H1172 0.950 . S
C1170 C1169 1.387 . S
C1170 C1173 1.387 1_455 S
H1171 C1167 0.950 . S
H1172 C1169 0.950 . S
C1173 C1164 1.390 . S
C1173 H1166 0.950 . S
C1173 C1170 1.387 1_655 S
C1174 C1175 1.387 . S
C1174 H1178 0.950 . S
C1174 C1183 1.390 . S
C1175 C1174 1.387 . S
C1175 C1177 1.387 . S
H1176 C1183 0.950 . S
C1177 C1175 1.387 . S
C1177 C1179 1.390 . S
C1177 H1181 0.950 . S
H1178 C1174 0.950 . S
C1179 C1177 1.390 . S
C1179 C1180 1.387 . S
C1179 H1182 0.950 . S
C1180 C1179 1.387 . S
C1180 C1183 1.387 . S
H1181 C1177 0.950 . S
H1182 C1179 0.950 . S
C1183 C1174 1.390 . S
C1183 H1176 0.950 . S
C1183 C1180 1.387 . S
C1184 C1185 1.387 1_545 S
C1184 H1188 0.950 . S
C1184 C1193 1.390 . S
C1185 C1184 1.387 1_565 S
C1185 C1187 1.387 . S
H1186 C1193 0.950 . S
C1187 C1185 1.387 . S
C1187 C1189 1.390 . S
C1187 H1191 0.950 . S
H1188 C1184 0.950 . S
C1189 C1187 1.390 . S
C1189 C1190 1.387 1_565 S
C1189 H1192 0.950 . S
C1190 C1189 1.387 1_545 S
C1190 C1193 1.387 . S
H1191 C1187 0.950 . S
H1192 C1189 0.950 . S
C1193 C1184 1.390 . S
C1193 H1186 0.950 . S
C1193 C1190 1.387 . S
C1194 C1195 1.387 . S
C1194 H1198 0.950 . S
C1194 C1203 1.390 . S
C1195 C1194 1.387 . S
C1195 C1197 1.387 1_565 S
H1196 C1203 0.950 . S
C1197 C1195 1.387 1_545 S
C1197 C1199 1.390 . S
C1197 H1201 0.950 . S
H1198 C1194 0.950 . S
C1199 C1197 1.390 . S
C1199 C1200 1.387 . S
C1199 H1202 0.950 . S
C1200 C1199 1.387 . S
C1200 C1203 1.387 1_545 S
H1201 C1197 0.950 . S
H1202 C1199 0.950 . S
C1203 C1194 1.390 . S
C1203 H1196 0.950 . S
C1203 C1200 1.387 1_565 S
C1204 C1205 1.387 1_455 S
C1204 H1208 0.950 . S
C1204 C1213 1.390 . S
C1205 C1204 1.387 1_655 S
C1205 C1207 1.387 . S
H1206 C1213 0.950 . S
C1207 C1205 1.387 . S
C1207 C1209 1.390 . S
C1207 H1211 0.950 . S
H1208 C1204 0.950 . S
C1209 C1207 1.390 . S
C1209 C1210 1.387 1_655 S
C1209 H1212 0.950 . S
C1210 C1209 1.387 1_455 S
C1210 C1213 1.387 . S
H1211 C1207 0.950 . S
H1212 C1209 0.950 . S
C1213 C1204 1.390 . S
C1213 H1206 0.950 . S
C1213 C1210 1.387 . S
C1214 C1215 1.387 . S
C1214 H1218 0.950 . S
C1214 C1223 1.390 . S
C1215 C1214 1.387 . S
C1215 C1217 1.387 . S
H1216 C1223 0.950 . S
C1217 C1215 1.387 . S
C1217 C1219 1.390 . S
C1217 H1221 0.950 . S
H1218 C1214 0.950 . S
C1219 C1217 1.390 . S
C1219 C1220 1.387 . S
C1219 H1222 0.950 . S
C1220 C1219 1.387 . S
C1220 C1223 1.387 . S
H1221 C1217 0.950 . S
H1222 C1219 0.950 . S
C1223 C1214 1.390 . S
C1223 H1216 0.950 . S
C1223 C1220 1.387 . S
C505 C224 1.752 . S
C510 C13 1.751 . S
C515 C250 1.752 . S
C520 C15 1.752 . S
C525 C223 1.751 . S
C530 C29 1.752 . S
C535 C365 1.728 1_554 S
C540 C55 1.728 . S
C545 C57 1.728 . S
C550 C349 1.728 1_554 S
C555 C83 1.727 . S
C560 C350 1.728 1_554 S
C565 C97 1.752 . S
C570 C476 1.751 . S
C575 C502 1.751 . S
C580 C99 1.753 . S
C585 C462 1.751 . S
C590 C112 1.751 . S
C595 C127 1.728 . S
C600 C293 1.729 1_556 S
C605 C252 1.728 1_556 S
C610 C140 1.728 . S
C615 C167 1.728 . S
C620 C267 1.728 1_556 S
C625 C405 1.672 . S
C630 C168 1.672 . S
C635 C195 1.673 . S
C640 C407 1.670 . S
C645 C379 1.673 . S
C650 C197 1.672 . S
C655 C460 1.674 . S
C660 C295 1.672 . S
C665 C421 1.674 . S
C670 C320 1.670 . S
C675 C335 1.673 . S
C680 C435 1.672 . S
C685 C265 1.761 . S
C690 C0 1.760 . S
C695 C278 1.755 . S
C700 C26 1.757 . S
C705 C280 1.755 . S
C710 C40 1.757 . S
C715 C42 1.759 . S
C720 C475 1.758 . S
C725 C68 1.760 . S
C730 C489 1.759 . S
C735 C70 1.760 . S
C740 C491 1.760 . S
C745 C84 1.754 . S
C750 C336 1.758 . S
C755 C363 1.758 . S
C760 C110 1.756 . S
C765 C376 1.761 . S
C770 C125 1.760 . S
C775 C210 1.759 . S
C780 C138 1.756 . S
C785 C153 1.759 . S
C790 C237 1.756 . S
C795 C154 1.759 . S
C800 C239 1.758 . S
C805 C181 1.751 . S
C810 C432 1.751 . S
C815 C446 1.754 . S
C820 C182 1.757 . S
C825 C449 1.754 . S
C830 C208 1.754 . S
C835 C390 1.769 . S
C840 C306 1.766 . S
C845 C309 1.769 . S
C850 C392 1.769 . S
C855 C322 1.763 . S
C860 C418 1.767 . S
C865 C391 1.756 . S
C870 C1 1.756 . S
C875 C27 1.755 . S
C880 C393 1.759 . S
C885 C41 1.754 . S
C890 C419 1.758 . S
C895 C180 1.726 . S
C900 C43 1.724 . S
C905 C69 1.724 . S
C910 C183 1.724 . S
C915 C71 1.724 . S
C920 C209 1.725 . S
C925 C307 1.759 . S
C930 C85 1.757 . S
C935 C111 1.756 . S
C940 C308 1.757 . S
C945 C323 1.759 . S
C950 C124 1.757 . S
C955 C139 1.727 . S
C960 C433 1.725 . S
C965 C447 1.726 . S
C970 C152 1.725 . S
C975 C448 1.724 . S
C980 C155 1.725 . S
C985 C337 1.739 . S
C990 C211 1.739 . S
C995 C362 1.740 . S
C1000 C236 1.739 . S
C1005 C377 1.740 . S
C1010 C238 1.740 . S
C1015 C264 1.739 . S
C1020 C474 1.739 . S
C1025 C488 1.739 . S
C1030 C279 1.741 . S
C1035 C490 1.738 . S
C1040 C281 1.741 . S
C1045 C12 1.098 1_556 S
C1050 C225 1.097 . S
C1055 C14 1.098 1_556 S
C1060 C251 1.097 . S
C1065 C28 1.098 1_556 S
C1070 C222 1.098 . S
C1075 C364 1.123 . S
C1080 C54 1.122 . S
C1085 C348 1.123 . S
C1090 C56 1.122 . S
C1095 C351 1.123 . S
C1100 C82 1.123 . S
C1105 C477 1.098 . S
C1110 C96 1.098 1_554 S
C1115 C503 1.099 . S
C1120 C98 1.098 1_554 S
C1125 C463 1.099 . S
C1130 C113 1.099 1_554 S
C1135 C126 1.123 . S
C1140 C292 1.123 . S
C1145 C141 1.122 . S
C1150 C253 1.124 . S
C1155 C166 1.123 . S
C1160 C266 1.123 . S
C1165 C404 1.184 . S
C1170 C169 1.187 . S
C1175 C406 1.184 . S
C1180 C194 1.188 . S
C1185 C196 1.186 . S
C1190 C378 1.186 . S
C1195 C294 1.184 . S
C1200 C461 1.188 . S
C1205 C420 1.184 . S
C1210 C321 1.186 . S
C1215 C434 1.184 . S
C1220 C334 1.185 . S
