# Generated by pormake.
# Topology umn, (4)-cn, num edge types: 1
# Building blocks:
#     Node 0, Type 0, BuildingBlock: GALJAG_clean_sbu_0, # of connection points: 4
#     Node 1, Type 0, BuildingBlock: GALJAG_clean_sbu_0, # of connection points: 4
#     Node 2, Type 0, BuildingBlock: GALJAG_clean_sbu_0, # of connection points: 4
#     Node 3, Type 0, BuildingBlock: GALJAG_clean_sbu_0, # of connection points: 4
#     Node 4, Type 0, BuildingBlock: GALJAG_clean_sbu_0, # of connection points: 4
#     Node 5, Type 0, BuildingBlock: GALJAG_clean_sbu_0, # of connection points: 4
#     Node 6, Type 0, BuildingBlock: GALJAG_clean_sbu_0, # of connection points: 4
#     Node 7, Type 0, BuildingBlock: GALJAG_clean_sbu_0, # of connection points: 4
#     Node 8, Type 0, BuildingBlock: GALJAG_clean_sbu_0, # of connection points: 4
#     Node 9, Type 0, BuildingBlock: GALJAG_clean_sbu_0, # of connection points: 4
#     Node 10, Type 0, BuildingBlock: GALJAG_clean_sbu_0, # of connection points: 4
#     Node 11, Type 0, BuildingBlock: GALJAG_clean_sbu_0, # of connection points: 4
#     Node 12, Type 0, BuildingBlock: GALJAG_clean_sbu_0, # of connection points: 4
#     Node 13, Type 0, BuildingBlock: GALJAG_clean_sbu_0, # of connection points: 4
#     Node 14, Type 0, BuildingBlock: GALJAG_clean_sbu_0, # of connection points: 4
#     Node 15, Type 0, BuildingBlock: GALJAG_clean_sbu_0, # of connection points: 4
#     Node 16, Type 0, BuildingBlock: GALJAG_clean_sbu_0, # of connection points: 4
#     Node 17, Type 0, BuildingBlock: GALJAG_clean_sbu_0, # of connection points: 4
#     Node 18, Type 0, BuildingBlock: GALJAG_clean_sbu_0, # of connection points: 4
#     Node 19, Type 0, BuildingBlock: GALJAG_clean_sbu_0, # of connection points: 4
#     Node 20, Type 0, BuildingBlock: GALJAG_clean_sbu_0, # of connection points: 4
#     Node 21, Type 0, BuildingBlock: GALJAG_clean_sbu_0, # of connection points: 4
#     Node 22, Type 0, BuildingBlock: GALJAG_clean_sbu_0, # of connection points: 4
#     Node 23, Type 0, BuildingBlock: GALJAG_clean_sbu_0, # of connection points: 4
#     Node 24, Type 0, BuildingBlock: GALJAG_clean_sbu_0, # of connection points: 4
#     Node 25, Type 0, BuildingBlock: GALJAG_clean_sbu_0, # of connection points: 4
#     Node 26, Type 0, BuildingBlock: GALJAG_clean_sbu_0, # of connection points: 4
#     Node 27, Type 0, BuildingBlock: GALJAG_clean_sbu_0, # of connection points: 4
#     Node 28, Type 0, BuildingBlock: GALJAG_clean_sbu_0, # of connection points: 4
#     Node 29, Type 0, BuildingBlock: GALJAG_clean_sbu_0, # of connection points: 4
#     Node 30, Type 0, BuildingBlock: GALJAG_clean_sbu_0, # of connection points: 4
#     Node 31, Type 0, BuildingBlock: GALJAG_clean_sbu_0, # of connection points: 4
#     Node 32, Type 0, BuildingBlock: GALJAG_clean_sbu_0, # of connection points: 4
#     Node 33, Type 0, BuildingBlock: GALJAG_clean_sbu_0, # of connection points: 4
#     Node 34, Type 0, BuildingBlock: GALJAG_clean_sbu_0, # of connection points: 4
#     Node 35, Type 0, BuildingBlock: GALJAG_clean_sbu_0, # of connection points: 4
#     Edge 36, Type (0, 0), BuildingBlock: OJICUG_clean_linker_0, # of connection points: 2
#     Edge 37, Type (0, 0), BuildingBlock: OJICUG_clean_linker_0, # of connection points: 2
#     Edge 38, Type (0, 0), BuildingBlock: OJICUG_clean_linker_0, # of connection points: 2
#     Edge 39, Type (0, 0), BuildingBlock: OJICUG_clean_linker_0, # of connection points: 2
#     Edge 40, Type (0, 0), BuildingBlock: OJICUG_clean_linker_0, # of connection points: 2
#     Edge 41, Type (0, 0), BuildingBlock: OJICUG_clean_linker_0, # of connection points: 2
#     Edge 42, Type (0, 0), BuildingBlock: OJICUG_clean_linker_0, # of connection points: 2
#     Edge 43, Type (0, 0), BuildingBlock: OJICUG_clean_linker_0, # of connection points: 2
#     Edge 44, Type (0, 0), BuildingBlock: OJICUG_clean_linker_0, # of connection points: 2
#     Edge 45, Type (0, 0), BuildingBlock: OJICUG_clean_linker_0, # of connection points: 2
#     Edge 46, Type (0, 0), BuildingBlock: OJICUG_clean_linker_0, # of connection points: 2
#     Edge 47, Type (0, 0), BuildingBlock: OJICUG_clean_linker_0, # of connection points: 2
#     Edge 48, Type (0, 0), BuildingBlock: OJICUG_clean_linker_0, # of connection points: 2
#     Edge 49, Type (0, 0), BuildingBlock: OJICUG_clean_linker_0, # of connection points: 2
#     Edge 50, Type (0, 0), BuildingBlock: OJICUG_clean_linker_0, # of connection points: 2
#     Edge 51, Type (0, 0), BuildingBlock: OJICUG_clean_linker_0, # of connection points: 2
#     Edge 52, Type (0, 0), BuildingBlock: OJICUG_clean_linker_0, # of connection points: 2
#     Edge 53, Type (0, 0), BuildingBlock: OJICUG_clean_linker_0, # of connection points: 2
#     Edge 54, Type (0, 0), BuildingBlock: OJICUG_clean_linker_0, # of connection points: 2
#     Edge 55, Type (0, 0), BuildingBlock: OJICUG_clean_linker_0, # of connection points: 2
#     Edge 56, Type (0, 0), BuildingBlock: OJICUG_clean_linker_0, # of connection points: 2
#     Edge 57, Type (0, 0), BuildingBlock: OJICUG_clean_linker_0, # of connection points: 2
#     Edge 58, Type (0, 0), BuildingBlock: OJICUG_clean_linker_0, # of connection points: 2
#     Edge 59, Type (0, 0), BuildingBlock: OJICUG_clean_linker_0, # of connection points: 2
#     Edge 60, Type (0, 0), BuildingBlock: OJICUG_clean_linker_0, # of connection points: 2
#     Edge 61, Type (0, 0), BuildingBlock: OJICUG_clean_linker_0, # of connection points: 2
#     Edge 62, Type (0, 0), BuildingBlock: OJICUG_clean_linker_0, # of connection points: 2
#     Edge 63, Type (0, 0), BuildingBlock: OJICUG_clean_linker_0, # of connection points: 2
#     Edge 64, Type (0, 0), BuildingBlock: OJICUG_clean_linker_0, # of connection points: 2
#     Edge 65, Type (0, 0), BuildingBlock: OJICUG_clean_linker_0, # of connection points: 2
#     Edge 66, Type (0, 0), BuildingBlock: OJICUG_clean_linker_0, # of connection points: 2
#     Edge 67, Type (0, 0), BuildingBlock: OJICUG_clean_linker_0, # of connection points: 2
#     Edge 68, Type (0, 0), BuildingBlock: OJICUG_clean_linker_0, # of connection points: 2
#     Edge 69, Type (0, 0), BuildingBlock: OJICUG_clean_linker_0, # of connection points: 2
#     Edge 70, Type (0, 0), BuildingBlock: OJICUG_clean_linker_0, # of connection points: 2
#     Edge 71, Type (0, 0), BuildingBlock: OJICUG_clean_linker_0, # of connection points: 2
#     Edge 72, Type (0, 0), BuildingBlock: OJICUG_clean_linker_0, # of connection points: 2
#     Edge 73, Type (0, 0), BuildingBlock: OJICUG_clean_linker_0, # of connection points: 2
#     Edge 74, Type (0, 0), BuildingBlock: OJICUG_clean_linker_0, # of connection points: 2
#     Edge 75, Type (0, 0), BuildingBlock: OJICUG_clean_linker_0, # of connection points: 2
#     Edge 76, Type (0, 0), BuildingBlock: OJICUG_clean_linker_0, # of connection points: 2
#     Edge 77, Type (0, 0), BuildingBlock: OJICUG_clean_linker_0, # of connection points: 2
#     Edge 78, Type (0, 0), BuildingBlock: OJICUG_clean_linker_0, # of connection points: 2
#     Edge 79, Type (0, 0), BuildingBlock: OJICUG_clean_linker_0, # of connection points: 2
#     Edge 80, Type (0, 0), BuildingBlock: OJICUG_clean_linker_0, # of connection points: 2
#     Edge 81, Type (0, 0), BuildingBlock: OJICUG_clean_linker_0, # of connection points: 2
#     Edge 82, Type (0, 0), BuildingBlock: OJICUG_clean_linker_0, # of connection points: 2
#     Edge 83, Type (0, 0), BuildingBlock: OJICUG_clean_linker_0, # of connection points: 2
#     Edge 84, Type (0, 0), BuildingBlock: OJICUG_clean_linker_0, # of connection points: 2
#     Edge 85, Type (0, 0), BuildingBlock: OJICUG_clean_linker_0, # of connection points: 2
#     Edge 86, Type (0, 0), BuildingBlock: OJICUG_clean_linker_0, # of connection points: 2
#     Edge 87, Type (0, 0), BuildingBlock: OJICUG_clean_linker_0, # of connection points: 2
#     Edge 88, Type (0, 0), BuildingBlock: OJICUG_clean_linker_0, # of connection points: 2
#     Edge 89, Type (0, 0), BuildingBlock: OJICUG_clean_linker_0, # of connection points: 2
#     Edge 90, Type (0, 0), BuildingBlock: OJICUG_clean_linker_0, # of connection points: 2
#     Edge 91, Type (0, 0), BuildingBlock: OJICUG_clean_linker_0, # of connection points: 2
#     Edge 92, Type (0, 0), BuildingBlock: OJICUG_clean_linker_0, # of connection points: 2
#     Edge 93, Type (0, 0), BuildingBlock: OJICUG_clean_linker_0, # of connection points: 2
#     Edge 94, Type (0, 0), BuildingBlock: OJICUG_clean_linker_0, # of connection points: 2
#     Edge 95, Type (0, 0), BuildingBlock: OJICUG_clean_linker_0, # of connection points: 2
#     Edge 96, Type (0, 0), BuildingBlock: OJICUG_clean_linker_0, # of connection points: 2
#     Edge 97, Type (0, 0), BuildingBlock: OJICUG_clean_linker_0, # of connection points: 2
#     Edge 98, Type (0, 0), BuildingBlock: OJICUG_clean_linker_0, # of connection points: 2
#     Edge 99, Type (0, 0), BuildingBlock: OJICUG_clean_linker_0, # of connection points: 2
#     Edge 100, Type (0, 0), BuildingBlock: OJICUG_clean_linker_0, # of connection points: 2
#     Edge 101, Type (0, 0), BuildingBlock: OJICUG_clean_linker_0, # of connection points: 2
#     Edge 102, Type (0, 0), BuildingBlock: OJICUG_clean_linker_0, # of connection points: 2
#     Edge 103, Type (0, 0), BuildingBlock: OJICUG_clean_linker_0, # of connection points: 2
#     Edge 104, Type (0, 0), BuildingBlock: OJICUG_clean_linker_0, # of connection points: 2
#     Edge 105, Type (0, 0), BuildingBlock: OJICUG_clean_linker_0, # of connection points: 2
#     Edge 106, Type (0, 0), BuildingBlock: OJICUG_clean_linker_0, # of connection points: 2
#     Edge 107, Type (0, 0), BuildingBlock: OJICUG_clean_linker_0, # of connection points: 2
# Relax obj value: 0.191
# Max RMSD: 0.184
# Mean RMSD: 0.184
data_MOF--net-umn--node1-GALJAG_clean_sbu_0--edge1-OJICUG_clean_linker_0
_symmetry_space_group_name_H-M    P1
_symmetry_Int_Tables_number       1
_symmetry_cell_setting            triclinic
loop_
_symmetry_equiv_pos_as_xyz
'x, y, z'
_cell_length_a     62.192495
_cell_length_b     62.207939
_cell_length_c     26.388707
_cell_angle_alpha  89.941439
_cell_angle_beta   90.028456
_cell_angle_gamma 119.95591
loop_
_atom_site_label
_atom_site_type_symbol
_atom_site_fract_x
_atom_site_fract_y
_atom_site_fract_z
_atom_type_partial_charge
In0 In 0.34735 0.08791 0.23343 0.0
O1 O 0.35818 0.09943 0.31684 0.0
O2 O 0.31992 0.08021 0.29526 0.0
C3 C 0.38338 0.0946 0.1679 0.0
C4 C 0.33504 0.12076 0.20218 0.0
C5 C 0.3251 0.03888 0.23816 0.0
O6 O 0.38739 0.09761 0.21531 0.0
O7 O 0.36188 0.08953 0.15431 0.0
O8 O 0.31485 0.04975 0.21696 0.0
O9 O 0.34688 0.05277 0.25429 0.0
C10 C 0.33557 0.08988 0.33046 0.0
O11 O 0.32289 0.09814 0.18928 0.0
O12 O 0.3543 0.12698 0.22861 0.0
In13 In 0.8835 0.25205 0.2333 0.0
O14 O 0.87216 0.25093 0.31679 0.0
O15 O 0.89148 0.23207 0.29437 0.0
C16 C 0.8776 0.28249 0.16948 0.0
C17 C 0.85008 0.20736 0.20103 0.0
C18 C 0.93245 0.27872 0.23855 0.0
O19 O 0.87424 0.28283 0.21691 0.0
O20 O 0.88254 0.26609 0.1549 0.0
O21 O 0.92172 0.25774 0.21688 0.0
O22 O 0.91846 0.28648 0.25479 0.0
C23 C 0.88191 0.23798 0.32993 0.0
O24 O 0.8727 0.21755 0.18804 0.0
O25 O 0.8442 0.22044 0.22816 0.0
In26 In 0.72108 0.62594 0.23427 0.0
O27 O 0.7557 0.65123 0.19072 0.0
O28 O 0.75297 0.61879 0.22594 0.0
C29 C 0.6937 0.6473 0.24315 0.0
C30 C 0.73742 0.63949 0.32916 0.0
C31 C 0.6901 0.58902 0.17213 0.0
O32 O 0.71091 0.65476 0.21047 0.0
O33 O 0.68986 0.62867 0.26911 0.0
O34 O 0.69007 0.58567 0.21965 0.0
O35 O 0.70636 0.61021 0.15682 0.0
C36 C 0.76603 0.6386 0.20107 0.0
O37 O 0.72444 0.61665 0.31708 0.0
O38 O 0.74237 0.65467 0.29321 0.0
In39 In 0.08363 0.35238 0.30042 0.0
O40 O 0.09504 0.36275 0.21692 0.0
O41 O 0.07526 0.32457 0.23903 0.0
C42 C 0.08997 0.38901 0.36375 0.0
C43 C 0.11667 0.34035 0.33191 0.0
C44 C 0.03462 0.33003 0.29627 0.0
O45 O 0.09292 0.39245 0.3162 0.0
O46 O 0.08531 0.3678 0.37867 0.0
O47 O 0.04554 0.31989 0.31773 0.0
O48 O 0.04846 0.35172 0.27967 0.0
C49 C 0.08505 0.34008 0.20361 0.0
O50 O 0.09413 0.32834 0.34544 0.0
O51 O 0.12276 0.3594 0.30488 0.0
In52 In 0.62021 0.72601 0.29787 0.0
O53 O 0.61088 0.72903 0.21493 0.0
O54 O 0.64892 0.74735 0.23885 0.0
C55 C 0.58359 0.69487 0.36048 0.0
C56 C 0.63225 0.77089 0.33037 0.0
C57 C 0.64185 0.6989 0.28913 0.0
O58 O 0.58009 0.6948 0.31301 0.0
O59 O 0.60478 0.71127 0.37552 0.0
O60 O 0.64931 0.71621 0.32158 0.0
O61 O 0.62311 0.69486 0.26334 0.0
C62 C 0.63373 0.74214 0.20284 0.0
O63 O 0.64515 0.76088 0.34096 0.0
O64 O 0.61248 0.75753 0.30562 0.0
In65 In 0.24666 0.88734 0.29818 0.0
O66 O 0.2454 0.87586 0.21458 0.0
O67 O 0.22673 0.89533 0.23712 0.0
C68 C 0.2763 0.88048 0.36264 0.0
C69 C 0.20168 0.85458 0.33027 0.0
C70 C 0.27366 0.93634 0.29361 0.0
O71 O 0.27701 0.87748 0.31515 0.0
O72 O 0.25997 0.88559 0.37685 0.0
O73 O 0.25265 0.92559 0.31519 0.0
O74 O 0.28132 0.92234 0.27698 0.0
C75 C 0.23242 0.8856 0.20154 0.0
O76 O 0.21226 0.8772 0.3432 0.0
O77 O 0.21453 0.84831 0.30334 0.0
In78 In 0.61907 0.88815 0.79816 0.0
O79 O 0.60854 0.87625 0.71487 0.0
O80 O 0.64674 0.89564 0.73698 0.0
C81 C 0.58282 0.88205 0.86246 0.0
C82 C 0.63131 0.85543 0.83074 0.0
C83 C 0.64128 0.93711 0.7918 0.0
O84 O 0.579 0.87868 0.81506 0.0
O85 O 0.60424 0.88712 0.87674 0.0
O86 O 0.6515 0.92645 0.81401 0.0
O87 O 0.61955 0.92306 0.77558 0.0
C88 C 0.6312 0.88583 0.70162 0.0
O89 O 0.64338 0.87809 0.8434 0.0
O90 O 0.61211 0.84909 0.80403 0.0
In91 In 0.08374 0.72508 0.79814 0.0
O92 O 0.09318 0.76002 0.84054 0.0
O93 O 0.12272 0.75704 0.80523 0.0
C94 C 0.0351 0.69681 0.79 0.0
C95 C 0.08566 0.74076 0.7029 0.0
C96 C 0.09049 0.69507 0.86173 0.0
O97 O 0.04462 0.71439 0.82189 0.0
O98 O 0.05008 0.69311 0.76442 0.0
O99 O 0.0939 0.69481 0.81429 0.0
O100 O 0.08501 0.71107 0.87621 0.0
C101 C 0.11608 0.77026 0.82982 0.0
O102 O 0.09583 0.72803 0.71507 0.0
O103 O 0.07556 0.7458 0.73893 0.0
In104 In 0.24727 0.35167 0.79686 0.0
O105 O 0.24435 0.36111 0.71395 0.0
O106 O 0.22585 0.32306 0.73778 0.0
C107 C 0.27847 0.38839 0.85912 0.0
C108 C 0.20242 0.33977 0.82943 0.0
C109 C 0.27411 0.32973 0.78831 0.0
O110 O 0.2786 0.39177 0.8116 0.0
O111 O 0.26202 0.36728 0.87438 0.0
O112 O 0.25682 0.32241 0.82078 0.0
O113 O 0.27829 0.34849 0.76244 0.0
C114 C 0.23114 0.33829 0.70181 0.0
O115 O 0.2124 0.32687 0.84027 0.0
O116 O 0.21577 0.35944 0.80438 0.0
In117 In 0.88301 0.62398 0.73475 0.0
O118 O 0.87394 0.64957 0.69146 0.0
O119 O 0.84415 0.61725 0.72681 0.0
C120 C 0.93166 0.64466 0.74389 0.0
C121 C 0.88016 0.6378 0.82933 0.0
C122 C 0.87644 0.58715 0.67172 0.0
O123 O 0.92213 0.65238 0.7112 0.0
O124 O 0.91669 0.62612 0.76983 0.0
O125 O 0.87322 0.58361 0.71923 0.0
O126 O 0.88164 0.6085 0.65694 0.0
C127 C 0.85101 0.63713 0.70208 0.0
O128 O 0.8703 0.6149 0.81761 0.0
O129 O 0.89052 0.65285 0.79325 0.0
In130 In 0.34823 0.25153 0.7344 0.0
O131 O 0.35756 0.24851 0.81736 0.0
O132 O 0.31955 0.22996 0.7933 0.0
C133 C 0.38486 0.28304 0.67221 0.0
C134 C 0.33638 0.20677 0.70138 0.0
C135 C 0.32608 0.27817 0.74309 0.0
O136 O 0.38826 0.28308 0.71971 0.0
O137 O 0.3638 0.26649 0.65693 0.0
O138 O 0.31888 0.26097 0.71049 0.0
O139 O 0.34482 0.28237 0.76904 0.0
C140 C 0.33472 0.23526 0.82938 0.0
O141 O 0.32348 0.21678 0.69086 0.0
O142 O 0.35609 0.22007 0.72637 0.0
In143 In 0.71948 0.08827 0.73016 0.0
O144 O 0.75433 0.09893 0.68614 0.0
O145 O 0.75156 0.12739 0.7266 0.0
C146 C 0.69257 0.03926 0.73366 0.0
C147 C 0.73262 0.08922 0.82737 0.0
C148 C 0.68988 0.0952 0.6657 0.0
O149 O 0.71376 0.05013 0.71281 0.0
O150 O 0.68472 0.05316 0.74995 0.0
O151 O 0.68917 0.09815 0.7132 0.0
O152 O 0.70624 0.09014 0.65141 0.0
C153 C 0.76471 0.12144 0.69987 0.0
O154 O 0.71998 0.09925 0.81377 0.0
O155 O 0.7386 0.07963 0.79203 0.0
In156 In 0.01288 0.42223 0.56585 0.0
O157 O -0.01109 0.43261 0.52027 0.0
O158 O 0.01999 0.46134 0.56059 0.0
C159 C -0.00927 0.37327 0.57076 0.0
C160 C 0.00041 0.42384 0.66246 0.0
C161 C 0.04956 0.42857 0.50261 0.0
O162 O 0.98049 0.38403 0.54904 0.0
O163 O 0.01242 0.38723 0.58722 0.0
O164 O 0.05303 0.43169 0.55013 0.0
O165 O 0.02828 0.42367 0.48768 0.0
C166 C 0.001 0.45522 0.53334 0.0
O167 O 0.02311 0.43377 0.64928 0.0
O168 O -0.01505 0.41405 0.62697 0.0
In169 In 0.55173 0.58567 0.56539 0.0
O170 O 0.54076 0.55082 0.52121 0.0
O171 O 0.51243 0.55392 0.56151 0.0
C172 C 0.60075 0.61249 0.56899 0.0
C173 C 0.55068 0.57243 0.66255 0.0
C174 C 0.54514 0.61546 0.50083 0.0
O175 O 0.58987 0.59128 0.54826 0.0
O176 O 0.58685 0.62038 0.58516 0.0
O177 O 0.54205 0.61611 0.54829 0.0
O178 O 0.55019 0.59909 0.48662 0.0
C179 C 0.51821 0.54068 0.53466 0.0
O180 O 0.54082 0.58523 0.64902 0.0
O181 O 0.56013 0.56631 0.62714 0.0
In182 In 0.38561 0.95573 0.56705 0.0
O183 O 0.38903 0.94643 0.6499 0.0
O184 O 0.4071 0.98443 0.62578 0.0
C185 C 0.35505 0.91905 0.50402 0.0
C186 C 0.43067 0.96873 0.53401 0.0
C187 C 0.35793 0.97676 0.57669 0.0
O188 O 0.35491 0.91543 0.55146 0.0
O189 O 0.37119 0.9404 0.48926 0.0
O190 O 0.37513 0.98441 0.54394 0.0
O191 O 0.35424 0.95809 0.60236 0.0
C192 C 0.40216 0.96929 0.6618 0.0
O193 O 0.42023 0.98126 0.52374 0.0
O194 O 0.41765 0.94882 0.55864 0.0
In195 In 0.75212 0.68693 0.63189 0.0
O196 O 0.76411 0.69749 0.54861 0.0
O197 O 0.74488 0.65931 0.57081 0.0
C198 C 0.75775 0.72311 0.69584 0.0
C199 C 0.78499 0.67502 0.66508 0.0
C200 C 0.70311 0.66432 0.62563 0.0
O201 O 0.7611 0.72688 0.64842 0.0
O202 O 0.75298 0.70181 0.71032 0.0
O203 O 0.71393 0.65429 0.64788 0.0
O204 O 0.71701 0.68605 0.60925 0.0
C205 C 0.75467 0.67484 0.53543 0.0
O206 O 0.76229 0.66282 0.67742 0.0
O207 O 0.79131 0.6942 0.63829 0.0
In208 In 0.28713 0.05791 0.63273 0.0
O209 O 0.27788 0.06077 0.54968 0.0
O210 O 0.31594 0.07845 0.5733 0.0
C211 C 0.2503 0.02814 0.69637 0.0
C212 C 0.30018 0.10325 0.66391 0.0
C213 C 0.30726 0.0294 0.62434 0.0
O214 O 0.24662 0.02799 0.64895 0.0
O215 O 0.27186 0.0439 0.71084 0.0
O216 O 0.31545 0.04698 0.65626 0.0
O217 O 0.28855 0.0258 0.59895 0.0
C218 C 0.30074 0.0734 0.53736 0.0
O219 O 0.31278 0.09295 0.67483 0.0
O220 O 0.28028 0.09 0.63946 0.0
In221 In 0.91332 0.22219 0.6337 0.0
O222 O 0.87874 0.21137 0.67875 0.0
O223 O 0.8816 0.18291 0.63845 0.0
C224 C 0.93986 0.27115 0.62885 0.0
C225 C 0.8994 0.22071 0.53698 0.0
C226 C 0.94383 0.21632 0.6974 0.0
O227 O 0.91884 0.2603 0.65043 0.0
O228 O 0.94771 0.25727 0.61246 0.0
O229 O 0.94423 0.2131 0.64993 0.0
O230 O 0.92727 0.22102 0.71208 0.0
C231 C 0.86848 0.1888 0.66546 0.0
O232 O 0.91228 0.21088 0.55018 0.0
O233 O 0.89355 0.23033 0.57249 0.0
In234 In 0.28654 0.22063 0.13177 0.0
O235 O 0.3104 0.21023 0.17764 0.0
O236 O 0.27912 0.18143 0.1379 0.0
C237 C 0.30906 0.26961 0.12592 0.0
C238 C 0.29899 0.2183 0.03547 0.0
C239 C 0.25014 0.2148 0.1953 0.0
O240 O 0.3191 0.25879 0.14816 0.0
O241 O 0.28737 0.25571 0.10933 0.0
O242 O 0.24652 0.21158 0.14783 0.0
O243 O 0.2714 0.21956 0.21003 0.0
C244 C 0.29816 0.18757 0.16502 0.0
O245 O 0.27629 0.20878 0.04839 0.0
O246 O 0.31441 0.22808 0.07102 0.0
In247 In 0.74868 0.0591 0.13224 0.0
O248 O 0.75967 0.05959 0.04864 0.0
O249 O 0.74025 0.07842 0.07043 0.0
C250 C 0.75539 0.02942 0.19688 0.0
C251 C 0.78198 0.10414 0.16309 0.0
C252 C 0.69967 0.03217 0.12858 0.0
O253 O 0.75846 0.02874 0.14941 0.0
O254 O 0.7503 0.04577 0.21103 0.0
O255 O 0.7105 0.05338 0.14931 0.0
O256 O 0.71361 0.02434 0.11242 0.0
C257 C 0.74976 0.07234 0.03507 0.0
O258 O 0.75941 0.09387 0.17645 0.0
O259 O 0.78789 0.09099 0.13626 0.0
In260 In 0.91456 0.68828 0.12907 0.0
O261 O 0.87989 0.66295 0.17233 0.0
O262 O 0.88272 0.69551 0.13743 0.0
C263 C 0.94205 0.66705 0.11971 0.0
C264 C 0.898 0.6747 0.03434 0.0
C265 C 0.94519 0.7248 0.19231 0.0
O266 O 0.92481 0.65947 0.15234 0.0
O267 O 0.94586 0.68574 0.09397 0.0
O268 O 0.94545 0.72848 0.14486 0.0
O269 O 0.92891 0.70348 0.20694 0.0
C270 C 0.8696 0.67564 0.16211 0.0
O271 O 0.91126 0.69756 0.04615 0.0
O272 O 0.89295 0.65958 0.07045 0.0
In273 In 0.54827 0.95755 0.06648 0.0
O274 O 0.53643 0.94725 0.1499 0.0
O275 O 0.55561 0.98536 0.12722 0.0
C276 C 0.54259 0.92127 1.00281 0.0
C277 C 0.51529 0.96926 0.03309 0.0
C278 C 0.59728 0.98017 0.07232 0.0
O279 O 0.53936 0.9176 0.05028 0.0
O280 O 0.54728 0.94252 0.98817 0.0
O281 O 0.58641 -0.00984 0.05008 0.0
O282 O 0.58342 0.95848 0.08894 0.0
C283 C 0.54588 0.96993 0.1628 0.0
O284 O 0.53799 0.9815 0.0207 0.0
O285 O 0.50905 0.95016 0.06009 0.0
In286 In 0.01362 0.58645 0.06599 0.0
O287 O -0.01173 0.55146 0.02347 0.0
O288 O 0.02062 0.55445 0.0597 0.0
C289 C -0.00683 0.61468 0.07373 0.0
C290 C -0.00024 0.57076 0.16115 0.0
C291 C 0.05063 0.6164 1.00287 0.0
O292 O -0.01478 0.59713 0.04177 0.0
O293 O 0.01181 0.61839 0.09951 0.0
O294 O 0.0541 0.61666 0.05039 0.0
O295 O 0.0292 0.60044 0.98807 0.0
C296 C 0.00085 0.5412 0.03486 0.0
O297 O 0.02265 0.58348 0.14914 0.0
O298 O -0.01534 0.56577 0.12503 0.0
In299 In 0.3875 0.4209 0.06478 0.0
O300 O 0.38786 0.43199 0.14825 0.0
O301 O 0.40688 0.4127 0.12682 0.0
C302 C 0.35776 0.42727 0.99972 0.0
C303 C 0.43251 0.45439 0.03404 0.0
C304 C 0.36077 0.37192 0.06896 0.0
O305 O 0.35703 0.43047 0.04712 0.0
O306 O 0.37418 0.42222 0.98582 0.0
O307 O 0.38198 0.38277 0.0482 0.0
O308 O 0.35283 0.38581 0.08487 0.0
C309 C 0.4007 0.42221 0.16203 0.0
O310 O 0.42242 0.43183 0.02081 0.0
O311 O 0.4192 0.46019 0.06064 0.0
In312 In 0.68132 0.75661 0.90005 0.0
O313 O 0.6571 0.7667 0.85457 0.0
O314 O 0.68837 0.7957 0.89397 0.0
C315 C 0.65899 0.70764 0.90643 0.0
C316 C 0.66913 0.75904 0.9965 0.0
C317 C 0.7176 0.76254 0.83602 0.0
O318 O 0.64884 0.71834 0.88411 0.0
O319 O 0.6807 0.72166 0.92279 0.0
O320 O 0.72136 0.76588 0.88344 0.0
O321 O 0.69625 0.75761 0.82157 0.0
C322 C 0.6692 0.78937 0.86717 0.0
O323 O 0.6918 0.76861 0.98331 0.0
O324 O 0.65361 0.74916 0.96114 0.0
In325 In 0.21574 0.91873 0.90026 0.0
O326 O 0.20607 0.88387 0.85741 0.0
O327 O 0.17663 0.88695 0.89295 0.0
C328 C 0.26445 0.94641 0.90808 0.0
C329 C 0.21368 0.90283 0.99538 0.0
C330 C 0.20948 0.94927 0.83722 0.0
O331 O 0.25466 0.92893 0.87601 0.0
O332 O 0.2497 0.95031 0.93402 0.0
O333 O 0.20622 0.94952 0.88472 0.0
O334 O 0.21452 0.933 0.82241 0.0
C335 C 0.18317 0.87371 0.86812 0.0
O336 O 0.20369 0.91575 0.98341 0.0
O337 O 0.22366 0.89772 0.95923 0.0
In338 In 0.05435 0.29332 0.89979 0.0
O339 O 0.08892 0.31705 0.85467 0.0
O340 O 0.08604 0.28565 0.89476 0.0
C341 C 0.0277 0.3157 0.90443 0.0
C342 C 0.0682 0.30566 0.99651 0.0
C343 C 0.02388 0.25684 0.83639 0.0
O344 O 0.04873 0.32589 0.8829 0.0
O345 O 0.01989 0.29398 0.92085 0.0
O346 O 0.02356 0.25328 0.88388 0.0
O347 O 0.04029 0.27811 0.82154 0.0
C348 C 0.09914 0.30465 0.86771 0.0
O349 O 0.05529 0.283 0.98331 0.0
O350 O 0.07417 0.32116 0.96097 0.0
In351 In 0.41673 0.01942 0.96175 0.0
O352 O 0.4295 0.02874 0.87895 0.0
O353 O 0.40954 -0.00926 0.90301 0.0
C354 C 0.42297 0.05614 0.02485 0.0
C355 C 0.44887 0.0065 0.99465 0.0
C356 C 0.36802 -0.00171 0.95276 0.0
O357 O 0.42611 0.05968 0.97733 0.0
O358 O 0.41803 0.03485 0.0396 0.0
O359 O 0.37773 -0.00926 0.9854 0.0
O360 O 0.38285 0.01689 0.92678 0.0
C361 C 0.41983 0.00588 0.86705 0.0
O362 O 0.42593 -0.00605 1.00508 0.0
O363 O 0.45566 0.02637 0.96993 0.0
In364 In 0.95354 0.39292 0.96625 0.0
O365 O 0.97722 0.42743 1.01138 0.0
O366 O 0.94582 0.42458 0.97135 0.0
C367 C 0.9762 0.36654 0.96142 0.0
C368 C 0.96582 0.40686 0.86951 0.0
C369 C 0.91723 0.36237 0.02994 0.0
O370 O -0.01372 0.38756 0.98294 0.0
O371 O 0.95444 0.3586 0.94512 0.0
O372 O 0.9136 0.36197 0.98247 0.0
O373 O 0.93847 0.3789 0.04462 0.0
C374 C 0.96482 0.43766 0.99838 0.0
O375 O 0.94315 0.39387 0.88275 0.0
O376 O 0.98133 0.41286 0.90501 0.0
In377 In 0.58089 0.55639 0.96741 0.0
O378 O 0.58051 0.54553 0.88377 0.0
O379 O 0.56154 0.5648 0.90564 0.0
C380 C 0.61069 0.54987 0.03204 0.0
C381 C 0.53588 0.52284 0.99806 0.0
C382 C 0.6076 0.60539 0.96383 0.0
O383 O 0.61139 0.54682 0.98457 0.0
O384 O 0.59425 0.55484 0.0462 0.0
O385 O 0.58637 0.59446 0.98455 0.0
O386 O 0.61556 0.59156 0.94767 0.0
C387 C 0.5677 0.55538 0.87024 0.0
O388 O 0.546 0.54536 1.01154 0.0
O389 O 0.54917 0.51709 0.97124 0.0
In390 In 0.95209 0.55504 0.4644 0.0
O391 O 0.97633 0.54467 0.50896 0.0
O392 O 0.94506 0.51593 0.46908 0.0
C393 C 0.97435 0.60408 0.46003 0.0
C394 C 0.96423 0.55333 0.36754 0.0
C395 C 0.91584 0.54829 0.52937 0.0
O396 O -0.01545 0.59318 0.48129 0.0
O397 O 0.95261 0.59022 0.44367 0.0
O398 O 0.91199 0.54535 0.4819 0.0
O399 O 0.93729 0.55331 0.54328 0.0
C400 C 0.9642 0.52207 0.49588 0.0
O401 O 0.94157 0.54375 0.38081 0.0
O402 O 0.97975 0.56287 0.403 0.0
In403 In 0.41637 0.39236 0.46729 0.0
O404 O 0.42721 0.42722 0.51139 0.0
O405 O 0.45563 0.42413 0.47145 0.0
C406 C 0.36739 0.36546 0.46276 0.0
C407 C 0.41765 0.40562 0.37007 0.0
C408 C 0.42287 0.36263 0.53217 0.0
O409 O 0.37812 0.38662 0.48368 0.0
O410 O 0.3814 0.35764 0.44694 0.0
O411 O 0.4262 0.36208 0.48478 0.0
O412 O 0.41758 0.37886 0.54617 0.0
C413 C 0.44979 0.43737 0.49814 0.0
O414 O 0.42747 0.39281 0.3838 0.0
O415 O 0.40815 0.41177 0.40533 0.0
In416 In 0.57959 0.01961 0.46354 0.0
O417 O 0.54499 -0.00577 0.50702 0.0
O418 O 0.54753 0.02653 0.47155 0.0
C419 C 0.60718 -0.00153 0.45487 0.0
C420 C 0.56329 0.00584 0.3687 0.0
C421 C 0.61047 0.05657 0.52571 0.0
O422 O 0.58994 -0.00906 0.48749 0.0
O423 O 0.61094 0.01706 0.42886 0.0
O424 O 0.61051 0.05991 0.47818 0.0
O425 O 0.5942 0.03538 0.54101 0.0
C426 C 0.53453 0.00671 0.49643 0.0
O427 O 0.57616 0.02872 0.38061 0.0
O428 O 0.55844 -0.00926 0.40478 0.0
In429 In 0.21623 0.29099 0.39881 0.0
O430 O 0.20447 0.28047 0.48218 0.0
O431 O 0.22375 0.31865 0.45998 0.0
C432 C 0.21029 0.25467 0.335 0.0
C433 C 0.18319 0.30285 0.3665 0.0
C434 C 0.26524 0.31358 0.4045 0.0
O435 O 0.20709 0.251 0.38247 0.0
O436 O 0.21508 0.27595 0.3204 0.0
O437 O 0.25438 0.32362 0.38245 0.0
O438 O 0.25137 0.29185 0.4209 0.0
C439 C 0.21401 0.30312 0.49538 0.0
O440 O 0.20581 0.315 0.35348 0.0
O441 O 0.17706 0.28375 0.39342 0.0
In442 In 0.68015 0.91925 0.40026 0.0
O443 O 0.68942 0.91613 0.48317 0.0
O444 O 0.65138 0.89801 0.45925 0.0
C445 C 0.71681 0.9502 0.33754 0.0
C446 C 0.66796 0.87431 0.36789 0.0
C447 C 0.6588 0.94662 0.40899 0.0
O448 O 0.72032 0.9503 0.38501 0.0
O449 O 0.69558 0.93386 0.32256 0.0
O450 O 0.65123 0.9293 0.37656 0.0
O451 O 0.67749 0.95053 0.4348 0.0
C452 C 0.66656 0.9031 0.49525 0.0
O453 O 0.65509 0.88436 0.35729 0.0
O454 O 0.68775 0.88765 0.39256 0.0
In455 In 0.05293 0.75561 0.39957 0.0
O456 O 0.05401 0.7672 0.48304 0.0
O457 O 0.0728 0.74778 0.461 0.0
C458 C 0.02354 0.76259 0.33462 0.0
C459 C 0.098 0.78828 0.36772 0.0
C460 C 0.0259 0.70661 0.40443 0.0
O461 O 0.02273 0.76562 0.38207 0.0
O462 O 0.0398 0.75734 0.3207 0.0
O463 O 0.04694 0.71733 0.38297 0.0
O464 O 0.01822 0.72065 0.42076 0.0
C465 C 0.06702 0.75754 0.49637 0.0
O466 O 0.08741 0.76564 0.35488 0.0
O467 O 0.08513 0.79461 0.39444 0.0
C468 C 0.31259 0.97518 0.27344 0.0
C469 C 0.28692 0.96288 0.28213 0.0
H470 H 0.34489 0.00922 0.25243 0.0
C471 C 0.2737 0.97543 0.27453 0.0
H472 H 0.32306 0.96569 0.27866 0.0
C473 C 0.28601 -1e-05 0.25784 0.0
C474 C 0.31174 0.01236 0.24976 0.0
H475 H 0.2538 0.9661 0.28021 0.0
H476 H 0.27555 0.00946 0.2525 0.0
C477 C 0.32498 -0.00012 0.25802 0.0
C478 C -0.00418 0.2909 0.27633 0.0
C479 C 0.00813 0.31661 0.28452 0.0
H480 H 0.96207 0.25874 0.25314 0.0
C481 C -0.00429 0.32986 0.27572 0.0
H482 H 0.00527 0.28044 0.28206 0.0
C483 C 0.97115 0.31752 0.25952 0.0
C484 C 0.95891 0.29189 0.25065 0.0
H485 H 0.00501 0.34976 0.28137 0.0
H486 H 0.96172 0.32802 0.25384 0.0
C487 C 0.97138 0.27863 0.25891 0.0
C488 C 0.67224 0.66983 0.21539 0.0
C489 C 0.68063 0.66069 0.25448 0.0
H490 H 0.6525 0.68875 0.19646 0.0
C491 C 0.67655 0.6644 0.30526 0.0
H492 H 0.6753 0.66709 0.17608 0.0
C493 C 0.66433 0.6774 0.31693 0.0
C494 C 0.65534 0.68594 0.27784 0.0
H495 H 0.68316 0.65758 0.33586 0.0
H496 H 0.66145 0.68032 0.35624 0.0
C497 C 0.65922 0.68203 0.22706 0.0
C498 C 0.6413 0.97581 0.76962 0.0
C499 C 0.65461 0.96352 0.77923 0.0
H500 H 0.64313 0.00975 0.74724 0.0
C501 C 0.68037 0.97593 0.77157 0.0
H502 H 0.62137 0.96644 0.77484 0.0
C503 C 0.69265 0.00035 0.7541 0.0
C504 C 0.67936 0.01274 0.74526 0.0
H505 H 0.69089 0.96658 0.77794 0.0
H506 H 0.71259 0.00975 0.74891 0.0
C507 C 0.65366 0.00038 0.75338 0.0
C508 C -0.00888 0.67473 0.81779 0.0
C509 C 0.00864 0.68331 0.77872 0.0
H510 H 0.95248 0.65483 0.83668 0.0
C511 C 0.00085 0.67918 0.72793 0.0
H512 H -0.00308 0.67782 0.8571 0.0
C513 C 0.97564 0.66685 0.71624 0.0
C514 C 0.95812 0.65779 0.7553 0.0
H515 H 0.01427 0.68593 0.69734 0.0
H516 H 0.96985 0.66406 0.67692 0.0
C517 C 0.96591 0.66159 0.80609 0.0
C518 C 0.30838 0.29482 0.80494 0.0
C519 C 0.31236 0.29093 0.75421 0.0
H520 H 0.29224 0.30979 0.85568 0.0
C521 C 0.30335 0.29938 0.71499 0.0
H522 H 0.31511 0.28817 0.83563 0.0
C523 C 0.29109 0.31234 0.72647 0.0
C524 C 0.28698 0.31612 0.7772 0.0
H525 H 0.30631 0.29647 0.67572 0.0
H526 H 0.28452 0.31917 0.69577 0.0
C527 C 0.29531 0.30699 0.81642 0.0
C528 C -0.00919 0.33454 0.59184 0.0
C529 C 0.97743 0.34681 0.58281 0.0
H530 H -0.01084 0.30066 0.61394 0.0
C531 C 0.95171 0.33437 0.59094 0.0
H532 H 0.01073 0.34394 0.58626 0.0
C533 C 0.93954 0.30995 0.60845 0.0
C534 C 0.95292 0.29762 0.61686 0.0
H535 H 0.94115 0.34371 0.58503 0.0
H536 H 0.91964 0.30054 0.61412 0.0
C537 C 0.97858 0.30999 0.60814 0.0
C538 C 0.6396 0.65152 0.58801 0.0
C539 C 0.6273 0.62579 0.58028 0.0
H540 H 0.67354 0.68396 0.60877 0.0
C541 C 0.63982 0.61263 0.5891 0.0
H542 H 0.63014 0.66196 0.58186 0.0
C543 C 0.66432 0.62506 0.60615 0.0
C544 C 0.67666 0.65083 0.61341 0.0
H545 H 0.63047 0.59268 0.58419 0.0
H546 H 0.67376 0.61464 0.61252 0.0
C547 C 0.66423 0.66401 0.60383 0.0
C548 C 0.32893 0.00696 0.65149 0.0
C549 C 0.32013 0.01584 0.61269 0.0
H550 H 0.34739 0.98669 0.66979 0.0
C551 C 0.32379 0.01191 0.56178 0.0
H552 H 0.32623 0.0099 0.69089 0.0
C553 C 0.33652 -0.00054 0.54971 0.0
C554 C 0.34482 -0.00993 0.58849 0.0
H555 H 0.31723 0.0189 0.5314 0.0
H556 H 0.3395 -0.00319 0.5103 0.0
C557 C 0.34084 -0.0063 0.63941 0.0
C558 C 0.32177 0.33308 0.08832 0.0
C559 C 0.3475 0.3454 0.08052 0.0
H560 H 0.28936 0.29913 0.10919 0.0
C561 C 0.36071 0.33293 0.08941 0.0
H562 H 0.31131 0.3425 0.08212 0.0
C563 C 0.34831 0.30844 0.10655 0.0
C564 C 0.32252 0.29607 0.11382 0.0
H565 H 0.38066 0.34229 0.08444 0.0
H566 H 0.35875 0.29902 0.11292 0.0
C567 C 0.30931 0.30846 0.10424 0.0
C568 C 0.63622 0.98056 0.09384 0.0
C569 C 0.62375 -0.0063 0.08434 0.0
H570 H 0.67036 0.98269 0.11568 0.0
C571 C 0.63606 0.01948 0.09155 0.0
H572 H 0.62694 0.96062 0.08894 0.0
C573 C 0.66057 0.03195 0.10851 0.0
C574 C 0.67313 0.01882 0.11728 0.0
H575 H 0.62657 0.02987 0.08524 0.0
H576 H 0.66988 0.05189 0.11341 0.0
C577 C 0.66087 -0.0069 0.10957 0.0
C578 C 0.96338 0.64438 0.14738 0.0
C579 C 0.95519 0.65373 0.10831 0.0
H580 H 0.98271 0.62506 0.16633 0.0
C581 C 0.95938 0.65012 0.05753 0.0
H582 H 0.96023 0.64702 0.18669 0.0
C583 C 0.97141 0.63693 0.04585 0.0
C584 C 0.98012 0.62811 0.08495 0.0
H585 H 0.95292 0.6571 0.02693 0.0
H586 H 0.9743 0.63402 1.00654 0.0
C587 C 0.97622 0.632 0.13572 0.0
C588 C 0.64653 0.64432 0.94463 0.0
C589 C 0.6208 0.63193 0.9524 0.0
H590 H 0.67887 0.67831 0.92362 0.0
C591 C 0.60752 0.64431 0.94343 0.0
H592 H 0.65706 0.63497 0.95089 0.0
C593 C 0.61984 0.66878 0.92617 0.0
C594 C 0.64562 0.68121 0.91884 0.0
H595 H 0.58757 0.63489 0.94838 0.0
H596 H 0.60933 0.67812 0.91969 0.0
C597 C 0.65892 0.66892 0.92859 0.0
C598 C 0.32415 0.97581 0.98099 0.0
C599 C 0.34154 0.98505 0.9417 0.0
H600 H 0.28558 0.95671 1.00044 0.0
C601 C 0.33357 0.98142 0.89102 0.0
H602 H 0.33007 0.97848 0.02023 0.0
C603 C 0.30833 0.96834 0.87967 0.0
C604 C 0.29094 0.95965 0.91899 0.0
H605 H 0.3469 0.98832 0.86025 0.0
H606 H 0.30239 0.96543 0.84044 0.0
C607 C 0.29891 0.96354 0.96967 0.0
C608 C -0.01115 0.31564 0.92491 0.0
C609 C 0.0145 0.32902 0.91616 0.0
H610 H 0.95656 0.31727 0.94653 0.0
C611 C 0.02772 0.35473 0.92423 0.0
H612 H 0.97837 0.29573 0.91935 0.0
C613 C 0.0154 0.3669 0.94144 0.0
C614 C -0.01032 0.35352 0.9496 0.0
H615 H 0.04762 0.3653 0.91853 0.0
H616 H 0.02584 0.3868 0.94709 0.0
C617 C 0.97646 0.32786 0.94091 0.0
C618 C 0.02582 0.66753 0.42387 0.0
C619 C 0.01262 0.68009 0.41608 0.0
H620 H 0.02393 0.6335 0.44605 0.0
C621 C -0.01305 0.66781 0.42466 0.0
H622 H 0.04573 0.67685 0.41827 0.0
C623 C 0.97453 0.6431 0.44012 0.0
C624 C -0.01225 0.63062 0.44853 0.0
H625 H 0.97649 0.67729 0.4193 0.0
H626 H 0.95461 0.63377 0.44559 0.0
C627 C 0.01348 0.64298 0.44059 0.0
C628 C 0.30414 0.31396 0.42643 0.0
C629 C 0.29169 0.32711 0.41681 0.0
H630 H 0.33817 0.31603 0.44894 0.0
C631 C 0.30394 0.35285 0.4244 0.0
H632 H 0.2949 0.29403 0.42126 0.0
C633 C 0.32837 0.36528 0.44189 0.0
C634 C 0.3409 0.35214 0.45085 0.0
H635 H 0.29447 0.36325 0.41802 0.0
H636 H 0.33764 0.38521 0.4471 0.0
C637 C 0.3287 0.32645 0.44271 0.0
C638 C 0.64147 0.96355 0.47103 0.0
C639 C 0.64545 0.95974 0.42026 0.0
H640 H 0.62535 0.97846 0.52197 0.0
C641 C 0.63668 0.96848 0.38115 0.0
H642 H 0.64803 0.95668 0.50164 0.0
C643 C 0.62453 0.98155 0.3928 0.0
C644 C 0.62031 0.98514 0.44357 0.0
H645 H 0.63964 0.96564 0.34184 0.0
H646 H 0.61805 0.9885 0.36218 0.0
C647 C 0.62852 0.97583 0.48267 0.0
C648 C 0.33531 0.0923 0.47403 0.0
C649 C 0.30965 0.08006 0.48453 0.0
H650 H 0.36376 0.10511 0.41712 0.0
C651 C 0.2929 0.07284 0.44404 0.0
H652 H 0.34874 0.09814 0.5045 0.0
C653 C 0.30156 0.07692 0.39412 0.0
C654 C 0.32717 0.08826 0.38355 0.0
H655 H 0.27308 0.06341 0.45085 0.0
H656 H 0.28806 0.07054 0.36371 0.0
C657 C 0.34399 0.09634 0.42402 0.0
C658 C 0.87961 0.23521 0.47334 0.0
C659 C 0.89285 0.22278 0.48396 0.0
H660 H 0.86567 0.24976 0.41643 0.0
C661 C 0.90084 0.21393 0.44356 0.0
H662 H 0.87313 0.24224 0.50372 0.0
C663 C 0.89643 0.21819 0.39357 0.0
C664 C 0.88402 0.23145 0.38295 0.0
H665 H 0.91104 0.20431 0.4505 0.0
H666 H 0.90339 0.21164 0.36319 0.0
C667 C 0.87528 0.23954 0.42336 0.0
C668 C 0.74152 0.64063 0.4723 0.0
C669 C 0.75308 0.66627 0.48252 0.0
H670 H 0.72757 0.61199 0.41592 0.0
C671 C 0.76126 0.68298 0.44184 0.0
H672 H 0.73506 0.62721 0.50288 0.0
C673 C 0.75703 0.67417 0.39197 0.0
C674 C 0.74448 0.64848 0.3818 0.0
H675 H 0.7702 0.70278 0.44848 0.0
H676 H 0.76291 0.68753 0.36134 0.0
C677 C 0.73723 0.63183 0.42249 0.0
C678 C 0.09206 0.34843 0.11025 0.0
C679 C 0.08306 0.33154 0.15059 0.0
H680 H 0.09458 0.35338 0.02988 0.0
C681 C 0.07057 0.30591 0.13991 0.0
H682 H 0.10173 0.36822 0.11724 0.0
C683 C 0.06635 0.29732 0.08992 0.0
C684 C 0.07461 0.3142 0.04956 0.0
H685 H 0.06342 0.29236 0.17025 0.0
H686 H 0.0561 0.27753 0.08293 0.0
C687 C 0.08791 0.33984 0.06024 0.0
C688 C 0.62606 0.7416 0.10945 0.0
C689 C 0.64272 0.74907 0.15013 0.0
H690 H 0.62145 0.73918 0.02907 0.0
C691 C 0.66842 0.76172 0.13994 0.0
H692 H 0.60622 0.73186 0.11604 0.0
C693 C 0.67724 0.76584 0.09005 0.0
C694 C 0.66053 0.75747 0.04939 0.0
H695 H 0.68178 0.76776 0.17057 0.0
H696 H 0.69705 0.77489 0.0834 0.0
C697 C 0.63487 0.74579 0.05963 0.0
C698 C 0.23377 0.8791 0.10785 0.0
C699 C 0.22546 0.8874 0.14867 0.0
H700 H 0.2363 0.87729 0.02729 0.0
C701 C 0.21148 0.89912 0.13864 0.0
H702 H 0.24453 0.87002 0.11433 0.0
C703 C 0.2068 0.90338 0.08889 0.0
C704 C 0.21592 0.89595 0.04805 0.0
H705 H 0.2047 0.90568 0.16933 0.0
H706 H 0.19667 0.91312 0.08248 0.0
C707 C 0.22902 0.88331 0.05803 0.0
C708 C 0.62306 0.87929 0.60804 0.0
C709 C 0.63978 0.88749 0.64869 0.0
H710 H 0.61851 0.87761 0.52754 0.0
C711 C 0.66543 0.8991 0.63841 0.0
H712 H 0.60325 0.8703 0.61472 0.0
C713 C 0.67423 0.9034 0.58859 0.0
C714 C 0.65757 0.8961 0.54793 0.0
H715 H 0.67885 0.90558 0.66897 0.0
H716 H 0.69407 0.91308 0.58199 0.0
C717 C 0.63187 0.88352 0.55814 0.0
C718 C 0.08808 0.74436 0.55965 0.0
C719 C 0.07393 0.75587 0.54934 0.0
H720 H 0.10302 0.73064 0.61611 0.0
C721 C 0.0654 0.76405 0.58998 0.0
H722 H 0.09504 0.73789 0.52911 0.0
C723 C 0.07011 0.75994 0.6399 0.0
C724 C 0.0834 0.74752 0.65015 0.0
H725 H 0.05449 0.77296 0.58328 0.0
H726 H 0.06267 0.76586 0.67049 0.0
C727 C 0.09273 0.7402 0.60949 0.0
C728 C 0.20727 0.29493 0.58893 0.0
C729 C 0.21568 0.31168 0.54831 0.0
H730 H 0.20537 0.2903 0.66942 0.0
C731 C 0.22746 0.33733 0.55863 0.0
H732 H 0.19814 0.27513 0.58222 0.0
C733 C 0.23172 0.34608 0.60847 0.0
C734 C 0.22419 0.32938 0.6491 0.0
H735 H 0.23411 0.35078 0.5281 0.0
H736 H 0.24153 0.36591 0.61511 0.0
C737 C 0.21145 0.3037 0.63884 0.0
C738 C 0.89877 0.68195 0.94063 0.0
C739 C 0.89072 0.66555 0.98185 0.0
H740 H 0.90146 0.68593 0.86005 0.0
C741 C 0.87718 0.63981 0.97245 0.0
H742 H 0.90921 0.70182 0.94661 0.0
C743 C 0.87281 0.63063 0.92288 0.0
C744 C 0.88181 0.64701 0.8817 0.0
H745 H 0.87064 0.62664 1.00348 0.0
H746 H 0.86311 0.61075 0.91692 0.0
C747 C 0.89433 0.67277 0.89106 0.0
C748 C 0.3334 0.23175 0.97262 0.0
C749 C 0.30772 0.21991 0.98267 0.0
H750 H 0.36215 0.24582 0.9164 0.0
C751 C 0.29108 0.21138 0.9419 0.0
H752 H 0.34677 0.23849 1.00327 0.0
C753 C 0.29998 0.21551 0.89208 0.0
C754 C 0.3257 0.22831 0.88205 0.0
H755 H 0.27125 0.20221 0.94841 0.0
H756 H 0.28665 0.20933 0.86137 0.0
C757 C 0.3423 0.23595 0.92285 0.0
C758 C 0.75202 0.07454 0.89158 0.0
C759 C 0.7389 0.08706 0.88056 0.0
H760 H 0.76584 0.06008 0.94893 0.0
C761 C 0.73088 0.09601 0.92071 0.0
H762 H 0.75852 0.06742 0.8614 0.0
C763 C 0.7352 0.09185 0.97083 0.0
C764 C 0.74756 0.07858 0.98186 0.0
H765 H 0.72078 0.10571 0.91348 0.0
H766 H 0.72826 0.09853 1.00102 0.0
C767 C 0.75628 0.07032 0.9417 0.0
C768 C 0.00865 0.43091 0.7558 0.0
C769 C -0.0082 0.42186 0.71543 0.0
H770 H 0.01354 0.43344 0.83616 0.0
C771 C 0.96614 0.40929 0.72607 0.0
H772 H 0.02846 0.44065 0.74885 0.0
C773 C 0.95752 0.40503 0.77607 0.0
C774 C 0.97437 0.41333 0.81645 0.0
H775 H 0.95262 0.4021 0.69571 0.0
H776 H 0.93771 0.39471 0.78303 0.0
C777 C 2e-05 0.42672 0.80579 0.0
C778 C 0.54827 0.57004 0.80604 0.0
C779 C 0.56146 0.55759 0.81704 0.0
H780 H 0.53444 0.5845 0.74871 0.0
C781 C 0.56959 0.54876 0.77687 0.0
H782 H 0.54169 0.57707 0.83623 0.0
C783 C 0.56532 0.55297 0.72675 0.0
C784 C 0.55288 0.56617 0.71575 0.0
H785 H 0.57975 0.53912 0.78408 0.0
H786 H 0.57233 0.54638 0.69656 0.0
C787 C 0.54406 0.57433 0.75592 0.0
C788 C 0.40601 0.97105 0.80507 0.0
C789 C 0.41827 -0.00321 0.8146 0.0
H790 H 0.39135 0.94208 0.74934 0.0
C791 C 0.42707 0.01324 0.7735 0.0
H792 H 0.39904 0.95783 0.836 0.0
C793 C 0.42273 0.00414 0.72388 0.0
C794 C 0.40943 0.9784 0.71433 0.0
H795 H 0.43657 0.0331 0.77959 0.0
H796 H 0.4291 0.01735 0.69293 0.0
C797 C 0.4016 0.96195 0.75544 0.0
C798 C 0.55911 0.00433 0.22554 0.0
C799 C 0.54754 0.97866 0.2156 0.0
H800 H 0.5731 0.03311 0.2816 0.0
C801 C 0.53941 0.96206 0.25647 0.0
H802 H 0.56555 0.01766 0.19481 0.0
C803 C 0.54368 0.971 0.30625 0.0
C804 C 0.55622 -0.00328 0.31613 0.0
H805 H 0.53046 0.94224 0.25006 0.0
H806 H 0.53782 0.95772 0.33702 0.0
C807 C 0.56344 0.01326 0.27526 0.0
C808 C -0.00153 0.56663 0.30433 0.0
C809 C 0.97282 0.55518 0.31455 0.0
H810 H 0.02714 0.58046 0.24799 0.0
C811 C 0.95614 0.54724 0.27385 0.0
H812 H 0.01186 0.57291 0.33492 0.0
C813 C 0.96499 0.55153 0.22396 0.0
C814 C -0.00931 0.56388 0.21382 0.0
H815 H 0.93634 0.53839 0.28048 0.0
H816 H 0.95165 0.54579 0.19332 0.0
C817 C 0.0073 0.57096 0.25453 0.0
C818 C 0.42019 0.40778 0.22658 0.0
C819 C 0.40695 0.42015 0.21531 0.0
H820 H 0.43405 0.39349 0.28422 0.0
C821 C 0.39876 0.42903 0.2553 0.0
H822 H 0.42682 0.40072 0.19654 0.0
C823 C 0.40303 0.42493 0.30551 0.0
C824 C 0.41551 0.4118 0.31678 0.0
H825 H 0.38856 0.43861 0.24787 0.0
H826 H 0.39596 0.43155 0.33556 0.0
C827 C 0.42439 0.40362 0.27679 0.0
C828 C 0.32933 0.17831 0.20292 0.0
C829 C 0.30699 0.17016 0.17646 0.0
H830 H 0.35596 0.16909 0.23114 0.0
C831 C 0.29419 0.14582 0.15768 0.0
H832 H 0.33968 0.19706 0.21747 0.0
C833 C 0.30362 0.1299 0.16509 0.0
C834 C 0.326 0.13807 0.19141 0.0
H835 H 0.27702 0.13913 0.13679 0.0
H836 H 0.2933 0.11116 0.15046 0.0
C837 C 0.33877 0.16239 0.21032 0.0
C838 C 0.79179 0.14474 0.20076 0.0
C839 C 0.7996 0.13035 0.17406 0.0
H840 H 0.80162 0.18061 0.2296 0.0
C841 C 0.82392 0.14159 0.15511 0.0
H842 H 0.77307 0.13657 0.21544 0.0
C843 C 0.84019 0.16683 0.16283 0.0
C844 C 0.83239 0.18122 0.18961 0.0
H845 H 0.83036 0.13095 0.13404 0.0
H846 H 0.85892 0.175 0.1482 0.0
C847 C 0.80805 0.16998 0.20847 0.0
C848 C 0.80667 0.67069 0.16554 0.0
C849 C 0.7923 0.64765 0.18947 0.0
H850 H 0.84259 0.69782 0.13877 0.0
C851 C 0.80365 0.63415 0.20541 0.0
H852 H 0.79841 0.68157 0.15322 0.0
C853 C 0.82896 0.64356 0.19756 0.0
C854 C 0.84333 0.6666 0.17364 0.0
H855 H 0.79304 0.61642 0.22433 0.0
H856 H 0.83721 0.63267 0.20989 0.0
C857 C 0.83198 0.68009 0.15769 0.0
C858 C 0.12584 0.30891 0.36878 0.0
C859 C 0.13397 0.33125 0.34232 0.0
H860 H 0.135 0.28216 0.39646 0.0
C861 C 0.15816 0.34382 0.32263 0.0
H862 H 0.10719 0.29873 0.38399 0.0
C863 C 0.17398 0.33421 0.32934 0.0
C864 C 0.16586 0.31188 0.35585 0.0
H865 H 0.16482 0.36097 0.30168 0.0
H866 H 0.19263 0.3444 0.31416 0.0
C867 C 0.14166 0.2993 0.37548 0.0
C868 C 0.673 0.83707 0.37294 0.0
C869 C 0.65923 0.84807 0.35673 0.0
H870 H 0.67503 0.80382 0.37796 0.0
C871 C 0.63623 0.83339 0.3329 0.0
H872 H 0.69071 0.84792 0.39179 0.0
C873 C 0.62715 0.80812 0.32539 0.0
C874 C 0.64094 0.79712 0.34159 0.0
H875 H 0.62513 0.84138 0.32037 0.0
H876 H 0.60945 0.79726 0.30652 0.0
C877 C 0.66393 0.81179 0.36544 0.0
C878 C 0.13837 0.7972 0.33014 0.0
C879 C 0.1243 0.80549 0.35664 0.0
H880 H 0.17409 0.80622 0.30165 0.0
C881 C 0.13599 0.82982 0.37552 0.0
H882 H 0.12985 0.77845 0.31552 0.0
C883 C 0.16133 0.84562 0.368 0.0
C884 C 0.17539 0.83734 0.34146 0.0
H885 H 0.12561 0.83661 0.39646 0.0
H886 H 0.16985 0.86437 0.38261 0.0
C887 C 0.16371 0.81301 0.32261 0.0
C888 C 0.6279 0.81393 0.82279 0.0
C889 C 0.6405 0.83826 0.84169 0.0
H890 H 0.62739 0.77946 0.81533 0.0
C891 C 0.66296 0.84662 0.86785 0.0
H892 H 0.61066 0.80708 0.80208 0.0
C893 C 0.67265 0.8309 0.875 0.0
C894 C 0.66005 0.80656 0.85611 0.0
H895 H 0.67316 0.86537 0.88246 0.0
H896 H 0.68989 0.83774 0.89571 0.0
C897 C 0.6376 0.79821 0.82993 0.0
C898 C 0.12493 0.81104 0.86506 0.0
C899 C 0.1334 0.79653 0.84103 0.0
H900 H 0.13404 0.84705 0.89187 0.0
C901 C 0.15818 0.8077 0.82487 0.0
H902 H 0.10585 0.80292 0.87756 0.0
C903 C 0.17424 0.83297 0.83265 0.0
C904 C 0.16578 0.84748 0.85673 0.0
H905 H 0.16515 0.79697 0.80589 0.0
H906 H 0.19332 0.84108 0.82016 0.0
C907 C 0.141 0.83632 0.87286 0.0
C908 C 0.13986 0.33567 0.83079 0.0
C909 C 0.12532 0.31314 0.85638 0.0
H910 H 0.17585 0.36198 0.80291 0.0
C911 C 0.13643 0.2997 0.87409 0.0
H912 H 0.1318 0.34651 0.81707 0.0
C913 C 0.16168 0.30865 0.8663 0.0
C914 C 0.17622 0.3312 0.84077 0.0
H915 H 0.12568 0.28236 0.89429 0.0
H916 H 0.16975 0.29782 0.88 0.0
C917 C 0.16511 0.34464 0.82309 0.0
C918 C 0.84256 0.66927 0.66617 0.0
C919 C 0.83396 0.64648 0.69112 0.0
H920 H 0.8338 0.69641 0.63897 0.0
C921 C 0.8094 0.63353 0.70874 0.0
H922 H 0.86149 0.67973 0.65257 0.0
C923 C 0.79367 0.6432 0.70149 0.0
C924 C 0.80223 0.66594 0.67639 0.0
H925 H 0.80236 0.61602 0.72852 0.0
H926 H 0.77474 0.6327 0.71508 0.0
C927 C 0.8268 0.67892 0.65881 0.0
C928 C 0.34137 0.16945 0.70616 0.0
C929 C 0.3277 0.18057 0.68992 0.0
H930 H 0.34316 0.13606 0.71124 0.0
C931 C 0.30474 0.16599 0.66588 0.0
H932 H 0.35905 0.18023 0.72515 0.0
C933 C 0.29555 0.14071 0.65836 0.0
C934 C 0.30918 0.12957 0.67472 0.0
H935 H 0.29372 0.17405 0.6533 0.0
H936 H 0.27784 0.12994 0.63946 0.0
C937 C 0.33218 0.14415 0.69861 0.0
C938 C 0.83084 0.14705 0.65656 0.0
C939 C 0.8422 0.17125 0.6761 0.0
H940 H 0.79721 0.11237 0.64813 0.0
C941 C 0.82779 0.17912 0.70261 0.0
H942 H 0.84149 0.14057 0.63561 0.0
C943 C 0.80243 0.16308 0.70935 0.0
C944 C 0.79107 0.1389 0.68972 0.0
H945 H 0.83605 0.19776 0.71774 0.0
H946 H 0.79178 0.16957 0.73025 0.0
C947 C 0.80548 0.131 0.66331 0.0
C948 C 0.96986 0.4645 0.49527 0.0
C949 C -0.00789 0.47259 0.52204 0.0
H950 H 0.94334 0.47378 0.46665 0.0
C951 C 0.00482 0.49689 0.54109 0.0
H952 H 0.95958 0.44578 0.48051 0.0
C953 C -0.00458 0.51282 0.53356 0.0
C954 C 0.97315 0.50472 0.50686 0.0
H955 H 0.02192 0.50354 0.56222 0.0
H956 H 0.00569 0.53153 0.54836 0.0
C957 C 0.96045 0.48043 0.48775 0.0
C958 C 0.47616 0.50337 0.54287 0.0
C959 C 0.50046 0.51447 0.52386 0.0
H960 H 0.44111 0.47005 0.55021 0.0
C961 C 0.50816 0.49993 0.49733 0.0
H962 H 0.46981 0.51412 0.5638 0.0
C963 C 0.49181 0.47469 0.48995 0.0
C964 C 0.46751 0.46358 0.50896 0.0
H965 H 0.52686 0.508 0.48259 0.0
H966 H 0.49817 0.46394 0.46902 0.0
C967 C 0.45981 0.47812 0.53548 0.0
C968 C 0.49391 0.97436 0.53152 0.0
C969 C 0.50818 -0.00255 0.50767 0.0
H970 H 0.458 0.94697 0.55785 0.0
C971 C 0.49666 0.01073 0.49142 0.0
H972 H 0.50229 0.96363 0.54406 0.0
C973 C 0.47128 0.00109 0.4989 0.0
C974 C 0.45702 0.97801 0.52274 0.0
H975 H 0.5072 0.02849 0.47255 0.0
H976 H 0.4629 0.01182 0.48636 0.0
C977 C 0.46853 0.96472 0.53897 0.0
C978 C 0.45751 0.9746 0.03112 0.0
C979 C 0.46601 -0.00267 1.00593 0.0
H980 H 0.46643 0.94767 0.05887 0.0
C981 C 0.4906 0.01037 0.98847 0.0
H982 H 0.43856 0.96407 0.04461 0.0
C983 C 0.50644 0.00086 0.99611 0.0
C984 C 0.49797 0.97818 0.02144 0.0
H985 H 0.49757 0.02783 0.96852 0.0
H986 H 0.52538 0.01142 0.98263 0.0
C987 C 0.47337 0.96511 0.03886 0.0
C988 C 0.96931 0.50042 0.99886 0.0
C989 C -0.00808 0.51488 0.02422 0.0
H990 H 0.94279 0.46441 0.97136 0.0
C991 C 0.00516 0.50362 0.04229 0.0
H992 H 0.95864 0.50861 0.98489 0.0
C993 C -0.00403 0.47833 0.03506 0.0
C994 C 0.97342 0.46387 1.00952 0.0
H995 H 0.02254 0.5143 0.06237 0.0
H996 H 0.00668 0.47017 0.049 0.0
C997 C 0.96014 0.47511 0.99152 0.0
C998 C 0.47332 0.46447 0.99688 0.0
C999 C 0.45873 0.47213 0.02334 0.0
H1000 H 0.50938 0.47449 0.96875 0.0
C1001 C 0.46981 0.4964 0.04243 0.0
H1002 H 0.46528 0.44579 0.98209 0.0
C1003 C 0.49507 0.51275 0.03519 0.0
C1004 C 0.50966 0.50508 1.00874 0.0
H1005 H 0.45902 0.50273 0.06331 0.0
H1006 H 0.50312 0.53143 0.04999 0.0
C1007 C 0.49858 0.48081 0.98964 0.0
C1008 C 0.40813 0.08589 0.04385 0.0
C1009 C 0.42011 0.07305 0.06006 0.0
H1010 H 0.38689 0.10289 0.06598 0.0
C1011 C 0.42421 0.07204 0.11223 0.0
H1012 H 0.40448 0.08673 1.00396 0.0
C1013 C 0.41461 0.08176 0.14775 0.0
C1014 C 0.40018 0.09207 0.13169 0.0
H1015 H 0.43332 0.06215 0.12574 0.0
H1016 H 0.41647 0.07904 0.18772 0.0
C1017 C 0.39797 0.09504 0.0794 0.0
C1018 C 0.87761 0.29797 0.08204 0.0
C1019 C 0.88071 0.30248 0.13451 0.0
H1020 H 0.88602 0.31369 1.00733 0.0
C1021 C 0.89165 0.32705 0.15186 0.0
H1022 H 0.8693 0.27919 0.06765 0.0
C1023 C 0.90175 0.3468 0.11731 0.0
C1024 C 0.90046 0.34231 0.06484 0.0
H1025 H 0.89451 0.33109 0.19202 0.0
H1026 H 0.91201 0.36559 0.1317 0.0
C1027 C 0.88711 0.31773 0.04748 0.0
C1028 C 0.65493 0.56288 0.05055 0.0
C1029 C 0.63036 0.55264 0.06756 0.0
H1030 H 0.69344 0.58259 0.07104 0.0
C1031 C 0.62569 0.54993 0.12003 0.0
H1032 H 0.65912 0.56539 1.0104 0.0
C1033 C 0.64534 0.55925 0.15482 0.0
C1034 C 0.66999 0.572 0.13765 0.0
H1035 H 0.6069 0.54213 0.13418 0.0
H1036 H 0.64124 0.55859 0.19488 0.0
C1037 C 0.67459 0.57277 0.08529 0.0
C1038 C 0.0756 0.41929 0.38098 0.0
C1039 C 0.08678 0.40588 0.39851 0.0
H1040 H 0.05484 0.4371 0.40085 0.0
C1041 C 0.08995 0.40459 0.45101 0.0
H1042 H 0.0727 0.42039 0.3408 0.0
C1043 C 0.08022 0.41467 0.48542 0.0
C1044 C 0.06659 0.42561 0.46788 0.0
H1045 H 0.09844 0.39429 0.46554 0.0
H1046 H 0.08134 0.41177 0.5256 0.0
C1047 C 0.0653 0.42878 0.41539 0.0
C1048 C 0.54501 0.63042 0.41286 0.0
C1049 C 0.54779 0.6351 0.46532 0.0
H1050 H 0.55343 0.64596 0.33797 0.0
C1051 C 0.55794 0.65965 0.48229 0.0
H1052 H 0.53729 0.61165 0.39874 0.0
C1053 C 0.56765 0.6793 0.4475 0.0
C1054 C 0.56678 0.67471 0.39513 0.0
H1055 H 0.56051 0.66385 0.52242 0.0
H1056 H 0.57739 0.69816 0.46169 0.0
C1057 C 0.55415 0.65006 0.37803 0.0
C1058 C 0.31044 0.8891 0.48577 0.0
C1059 C 0.33516 0.90211 0.46905 0.0
H1060 H 0.27209 0.87193 0.46448 0.0
C1061 C 0.34 0.90324 0.41674 0.0
H1062 H 0.30616 0.88816 0.52578 0.0
C1063 C 0.32049 0.89347 0.38163 0.0
C1064 C 0.29584 0.883 0.39826 0.0
H1065 H 0.35891 0.91326 0.40285 0.0
H1066 H 0.32485 0.89629 0.34158 0.0
C1067 C 0.29094 0.8799 0.45063 0.0
C1068 C 0.5521 0.89579 0.88064 0.0
C1069 C 0.56596 0.88501 0.89771 0.0
H1070 H 0.53372 0.91592 0.90119 0.0
C1071 C 0.56759 0.88195 0.95015 0.0
H1072 H 0.55074 0.89861 0.84051 0.0
C1073 C 0.55732 0.89133 0.98492 0.0
C1074 C 0.54586 0.90453 0.96781 0.0
H1075 H 0.57823 0.87376 0.96433 0.0
H1076 H 0.56045 0.89029 0.02502 0.0
C1077 C 0.54243 0.90577 0.9154 0.0
C1078 C 0.06656 0.63118 0.91545 0.0
C1079 C 0.06789 0.63604 0.96777 0.0
H1080 H 0.07371 0.64638 0.84028 0.0
C1081 C 0.08157 0.6607 0.98447 0.0
H1082 H 0.05605 0.61231 0.90157 0.0
C1083 C 0.09118 0.68021 0.94934 0.0
C1084 C 0.08785 0.67536 0.89698 0.0
H1085 H 0.08271 0.66502 0.02449 0.0
H1086 H 0.09963 0.6991 0.96319 0.0
C1087 C 0.07675 0.65069 0.88032 0.0
C1088 C 0.32329 0.41786 0.87665 0.0
C1089 C 0.29861 0.40528 0.8937 0.0
H1090 H 0.36168 0.43479 0.89751 0.0
C1091 C 0.29396 0.40457 0.94602 0.0
H1092 H 0.32742 0.41846 0.83663 0.0
C1093 C 0.31357 0.4144 0.98087 0.0
C1094 C 0.33815 0.4245 0.964 0.0
H1095 H 0.27508 0.39489 0.96017 0.0
H1096 H 0.30933 0.41196 0.02099 0.0
C1097 C 0.34289 0.42711 0.91155 0.0
C1098 C 0.87523 0.57122 0.58438 0.0
C1099 C 0.87915 0.5701 0.63661 0.0
H1100 H 0.8831 0.56421 0.50902 0.0
C1101 C 0.89085 0.55702 0.653 0.0
H1102 H 0.86633 0.58129 0.57073 0.0
C1103 C 0.90097 0.54776 0.6176 0.0
C1104 C 0.89897 0.55085 0.56529 0.0
H1105 H 0.89435 0.55609 0.69294 0.0
H1106 H 0.91186 0.53973 0.63118 0.0
C1107 C 0.88478 0.56138 0.54901 0.0
C1108 C 0.40097 0.29886 0.5854 0.0
C1109 C 0.40158 0.30336 0.63777 0.0
H1110 H 0.4082 0.31439 0.51054 0.0
C1111 C 0.41381 0.328 0.65499 0.0
H1112 H 0.39154 0.28002 0.57112 0.0
C1113 C 0.4228 0.34766 0.62023 0.0
C1114 C 0.4203 0.34304 0.56775 0.0
H1115 H 0.41431 0.33202 0.69505 0.0
H1116 H 0.43021 0.36639 0.63442 0.0
C1117 C 0.41055 0.31855 0.5507 0.0
C1118 C 0.65527 0.08619 0.54299 0.0
C1119 C 0.63062 0.07355 0.56018 0.0
H1120 H 0.69369 0.10307 0.56359 0.0
C1121 C 0.62604 0.07277 0.61255 0.0
H1122 H 0.65934 0.08685 0.50293 0.0
C1123 C 0.6457 0.08253 0.64728 0.0
C1124 C 0.67026 0.09263 0.63024 0.0
H1125 H 0.60719 0.06303 0.62681 0.0
H1126 H 0.64152 0.07999 0.68742 0.0
C1127 C 0.67492 0.09538 0.57776 0.0
C1128 C 0.74322 0.75322 0.71375 0.0
C1129 C 0.75448 0.73982 0.73092 0.0
H1130 H 0.72251 0.77101 0.73421 0.0
C1131 C 0.75773 0.73844 0.78335 0.0
H1132 H 0.74024 0.75438 0.67363 0.0
C1133 C 0.74809 0.74848 0.81806 0.0
C1134 C 0.73445 0.75947 0.8009 0.0
H1135 H 0.76627 0.72814 0.7976 0.0
H1136 H 0.74931 0.74555 0.85819 0.0
C1137 C 0.73299 0.76266 0.74846 0.0
C1138 C 0.23466 0.01343 0.78401 0.0
C1139 C 0.23299 0.00862 0.73163 0.0
H1140 H 0.22749 -0.00188 0.85909 0.0
C1141 C 0.21877 0.98402 0.71486 0.0
H1142 H 0.24559 0.03225 0.79796 0.0
C1143 C 0.20888 0.96446 0.74989 0.0
C1144 C 0.21249 0.96921 0.80225 0.0
H1145 H 0.21735 0.97973 0.67479 0.0
H1146 H 0.19998 0.94557 0.73592 0.0
C1147 C 0.22422 -0.0061 0.81906 0.0
C1148 C 0.9595 0.21658 0.78476 0.0
C1149 C 0.96393 0.21966 0.73226 0.0
H1150 H 0.9753 0.22523 0.85935 0.0
C1151 C -0.0115 0.23084 0.71474 0.0
H1152 H 0.94072 0.20809 0.79927 0.0
C1153 C 0.0083 0.24117 0.74916 0.0
C1154 C 0.00386 0.2399 0.80164 0.0
H1155 H -0.00751 0.23369 0.67455 0.0
H1156 H 0.02707 0.2516 0.73462 0.0
C1157 C 0.9793 0.22632 0.81918 0.0
C1158 C 0.21984 0.22913 0.21291 0.0
C1159 C 0.23328 0.21795 0.23021 0.0
H1160 H 0.20191 0.24974 0.23318 0.0
C1161 C 0.23457 0.21466 0.28266 0.0
H1162 H 0.21874 0.23212 0.17277 0.0
C1163 C 0.22443 0.22424 0.31727 0.0
C1164 C 0.21342 0.23784 0.29998 0.0
H1165 H 0.2449 0.20616 0.29702 0.0
H1166 H 0.22731 0.22301 0.35742 0.0
C1167 C 0.21028 0.23929 0.24752 0.0
C1168 C 0.75559 0.01455 0.28487 0.0
C1169 C 0.75275 0.00981 0.23244 0.0
H1170 H 0.74717 -0.0009 0.35984 0.0
C1171 C 0.74251 0.98523 0.21557 0.0
H1172 H 0.76338 0.03334 0.2989 0.0
C1173 C 0.73275 0.96562 0.25046 0.0
C1174 C 0.73367 0.97028 0.30281 0.0
H1175 H 0.73989 0.98099 0.17547 0.0
H1176 H 0.72294 0.94675 0.23636 0.0
C1177 C 0.74641 -0.00505 0.3198 0.0
C1178 C 0.00923 0.76332 0.24639 0.0
C1179 C 0.00417 0.76026 0.29871 0.0
H1180 H -0.00578 0.75525 0.17107 0.0
C1181 C 0.9795 0.75004 0.31503 0.0
H1182 H 0.0281 0.77111 0.23279 0.0
C1183 C 0.9601 0.74049 0.27969 0.0
C1184 C 0.96507 0.74159 0.22744 0.0
H1185 H 0.97503 0.74726 0.35504 0.0
H1186 H 0.94114 0.73065 0.29336 0.0
C1187 C -0.01016 0.75435 0.21102 0.0
loop_
_geom_bond_atom_site_label_1
_geom_bond_atom_site_label_2
_geom_bond_distance
_geom_bond_site_symmetry_2
_ccdc_geom_bond_type
In0 O1 2.294 . S
In0 O2 2.326 . S
In0 O6 2.266 . S
In0 O7 2.326 . S
In0 O8 2.266 . S
In0 O9 2.326 . S
In0 O11 2.294 . S
In0 O12 2.326 . S
O1 In0 2.294 . S
O1 C10 1.240 . S
O2 In0 2.326 . S
O2 C10 1.252 . S
C3 O6 1.252 . S
C3 O7 1.260 . S
C4 O11 1.240 . S
C4 O12 1.252 . S
C5 O8 1.252 . S
C5 O9 1.260 . S
O6 In0 2.266 . S
O6 C3 1.252 . S
O7 In0 2.326 . S
O7 C3 1.260 . S
O8 In0 2.266 . S
O8 C5 1.252 . S
O9 In0 2.326 . S
O9 C5 1.260 . S
C10 O1 1.240 . S
C10 O2 1.252 . S
O11 In0 2.294 . S
O11 C4 1.240 . S
O12 In0 2.326 . S
O12 C4 1.252 . S
In13 O14 2.294 . S
In13 O15 2.326 . S
In13 O19 2.266 . S
In13 O20 2.326 . S
In13 O21 2.266 . S
In13 O22 2.326 . S
In13 O24 2.294 . S
In13 O25 2.326 . S
O14 In13 2.294 . S
O14 C23 1.240 . S
O15 In13 2.326 . S
O15 C23 1.252 . S
C16 O19 1.252 . S
C16 O20 1.260 . S
C17 O24 1.240 . S
C17 O25 1.252 . S
C18 O21 1.252 . S
C18 O22 1.260 . S
O19 In13 2.266 . S
O19 C16 1.252 . S
O20 In13 2.326 . S
O20 C16 1.260 . S
O21 In13 2.266 . S
O21 C18 1.252 . S
O22 In13 2.326 . S
O22 C18 1.260 . S
C23 O14 1.240 . S
C23 O15 1.252 . S
O24 In13 2.294 . S
O24 C17 1.240 . S
O25 In13 2.326 . S
O25 C17 1.252 . S
In26 O27 2.294 . S
In26 O28 2.326 . S
In26 O32 2.266 . S
In26 O33 2.326 . S
In26 O34 2.266 . S
In26 O35 2.326 . S
In26 O37 2.294 . S
In26 O38 2.326 . S
O27 In26 2.294 . S
O27 C36 1.240 . S
O28 In26 2.326 . S
O28 C36 1.252 . S
C29 O32 1.252 . S
C29 O33 1.260 . S
C30 O37 1.240 . S
C30 O38 1.252 . S
C31 O34 1.252 . S
C31 O35 1.260 . S
O32 In26 2.266 . S
O32 C29 1.252 . S
O33 In26 2.326 . S
O33 C29 1.260 . S
O34 In26 2.266 . S
O34 C31 1.252 . S
O35 In26 2.326 . S
O35 C31 1.260 . S
C36 O27 1.240 . S
C36 O28 1.252 . S
O37 In26 2.294 . S
O37 C30 1.240 . S
O38 In26 2.326 . S
O38 C30 1.252 . S
In39 O40 2.294 . S
In39 O41 2.326 . S
In39 O45 2.266 . S
In39 O46 2.326 . S
In39 O47 2.266 . S
In39 O48 2.326 . S
In39 O50 2.294 . S
In39 O51 2.326 . S
O40 In39 2.294 . S
O40 C49 1.240 . S
O41 In39 2.326 . S
O41 C49 1.252 . S
C42 O45 1.252 . S
C42 O46 1.260 . S
C43 O50 1.240 . S
C43 O51 1.252 . S
C44 O47 1.252 . S
C44 O48 1.260 . S
O45 In39 2.266 . S
O45 C42 1.252 . S
O46 In39 2.326 . S
O46 C42 1.260 . S
O47 In39 2.266 . S
O47 C44 1.252 . S
O48 In39 2.326 . S
O48 C44 1.260 . S
C49 O40 1.240 . S
C49 O41 1.252 . S
O50 In39 2.294 . S
O50 C43 1.240 . S
O51 In39 2.326 . S
O51 C43 1.252 . S
In52 O53 2.294 . S
In52 O54 2.326 . S
In52 O58 2.266 . S
In52 O59 2.326 . S
In52 O60 2.266 . S
In52 O61 2.326 . S
In52 O63 2.294 . S
In52 O64 2.326 . S
O53 In52 2.294 . S
O53 C62 1.240 . S
O54 In52 2.326 . S
O54 C62 1.252 . S
C55 O58 1.252 . S
C55 O59 1.260 . S
C56 O63 1.240 . S
C56 O64 1.252 . S
C57 O60 1.252 . S
C57 O61 1.260 . S
O58 In52 2.266 . S
O58 C55 1.252 . S
O59 In52 2.326 . S
O59 C55 1.260 . S
O60 In52 2.266 . S
O60 C57 1.252 . S
O61 In52 2.326 . S
O61 C57 1.260 . S
C62 O53 1.240 . S
C62 O54 1.252 . S
O63 In52 2.294 . S
O63 C56 1.240 . S
O64 In52 2.326 . S
O64 C56 1.252 . S
In65 O66 2.294 . S
In65 O67 2.326 . S
In65 O71 2.266 . S
In65 O72 2.326 . S
In65 O73 2.266 . S
In65 O74 2.326 . S
In65 O76 2.294 . S
In65 O77 2.326 . S
O66 In65 2.294 . S
O66 C75 1.240 . S
O67 In65 2.326 . S
O67 C75 1.252 . S
C68 O71 1.252 . S
C68 O72 1.260 . S
C69 O76 1.240 . S
C69 O77 1.252 . S
C70 O73 1.252 . S
C70 O74 1.260 . S
O71 In65 2.266 . S
O71 C68 1.252 . S
O72 In65 2.326 . S
O72 C68 1.260 . S
O73 In65 2.266 . S
O73 C70 1.252 . S
O74 In65 2.326 . S
O74 C70 1.260 . S
C75 O66 1.240 . S
C75 O67 1.252 . S
O76 In65 2.294 . S
O76 C69 1.240 . S
O77 In65 2.326 . S
O77 C69 1.252 . S
In78 O79 2.294 . S
In78 O80 2.326 . S
In78 O84 2.266 . S
In78 O85 2.326 . S
In78 O86 2.266 . S
In78 O87 2.326 . S
In78 O89 2.294 . S
In78 O90 2.326 . S
O79 In78 2.294 . S
O79 C88 1.240 . S
O80 In78 2.326 . S
O80 C88 1.252 . S
C81 O84 1.252 . S
C81 O85 1.260 . S
C82 O89 1.240 . S
C82 O90 1.252 . S
C83 O86 1.252 . S
C83 O87 1.260 . S
O84 In78 2.266 . S
O84 C81 1.252 . S
O85 In78 2.326 . S
O85 C81 1.260 . S
O86 In78 2.266 . S
O86 C83 1.252 . S
O87 In78 2.326 . S
O87 C83 1.260 . S
C88 O79 1.240 . S
C88 O80 1.252 . S
O89 In78 2.294 . S
O89 C82 1.240 . S
O90 In78 2.326 . S
O90 C82 1.252 . S
In91 O92 2.294 . S
In91 O93 2.326 . S
In91 O97 2.266 . S
In91 O98 2.326 . S
In91 O99 2.266 . S
In91 O100 2.326 . S
In91 O102 2.294 . S
In91 O103 2.326 . S
O92 In91 2.294 . S
O92 C101 1.240 . S
O93 In91 2.326 . S
O93 C101 1.252 . S
C94 O97 1.252 . S
C94 O98 1.260 . S
C95 O102 1.240 . S
C95 O103 1.252 . S
C96 O99 1.252 . S
C96 O100 1.260 . S
O97 In91 2.266 . S
O97 C94 1.252 . S
O98 In91 2.326 . S
O98 C94 1.260 . S
O99 In91 2.266 . S
O99 C96 1.252 . S
O100 In91 2.326 . S
O100 C96 1.260 . S
C101 O92 1.240 . S
C101 O93 1.252 . S
O102 In91 2.294 . S
O102 C95 1.240 . S
O103 In91 2.326 . S
O103 C95 1.252 . S
In104 O105 2.294 . S
In104 O106 2.326 . S
In104 O110 2.266 . S
In104 O111 2.326 . S
In104 O112 2.266 . S
In104 O113 2.326 . S
In104 O115 2.294 . S
In104 O116 2.326 . S
O105 In104 2.294 . S
O105 C114 1.240 . S
O106 In104 2.326 . S
O106 C114 1.252 . S
C107 O110 1.252 . S
C107 O111 1.260 . S
C108 O115 1.240 . S
C108 O116 1.252 . S
C109 O112 1.252 . S
C109 O113 1.260 . S
O110 In104 2.266 . S
O110 C107 1.252 . S
O111 In104 2.326 . S
O111 C107 1.260 . S
O112 In104 2.266 . S
O112 C109 1.252 . S
O113 In104 2.326 . S
O113 C109 1.260 . S
C114 O105 1.240 . S
C114 O106 1.252 . S
O115 In104 2.294 . S
O115 C108 1.240 . S
O116 In104 2.326 . S
O116 C108 1.252 . S
In117 O118 2.294 . S
In117 O119 2.326 . S
In117 O123 2.266 . S
In117 O124 2.326 . S
In117 O125 2.266 . S
In117 O126 2.326 . S
In117 O128 2.294 . S
In117 O129 2.326 . S
O118 In117 2.294 . S
O118 C127 1.240 . S
O119 In117 2.326 . S
O119 C127 1.252 . S
C120 O123 1.252 . S
C120 O124 1.260 . S
C121 O128 1.240 . S
C121 O129 1.252 . S
C122 O125 1.252 . S
C122 O126 1.260 . S
O123 In117 2.266 . S
O123 C120 1.252 . S
O124 In117 2.326 . S
O124 C120 1.260 . S
O125 In117 2.266 . S
O125 C122 1.252 . S
O126 In117 2.326 . S
O126 C122 1.260 . S
C127 O118 1.240 . S
C127 O119 1.252 . S
O128 In117 2.294 . S
O128 C121 1.240 . S
O129 In117 2.326 . S
O129 C121 1.252 . S
In130 O131 2.294 . S
In130 O132 2.326 . S
In130 O136 2.266 . S
In130 O137 2.326 . S
In130 O138 2.266 . S
In130 O139 2.326 . S
In130 O141 2.294 . S
In130 O142 2.326 . S
O131 In130 2.294 . S
O131 C140 1.240 . S
O132 In130 2.326 . S
O132 C140 1.252 . S
C133 O136 1.252 . S
C133 O137 1.260 . S
C134 O141 1.240 . S
C134 O142 1.252 . S
C135 O138 1.252 . S
C135 O139 1.260 . S
O136 In130 2.266 . S
O136 C133 1.252 . S
O137 In130 2.326 . S
O137 C133 1.260 . S
O138 In130 2.266 . S
O138 C135 1.252 . S
O139 In130 2.326 . S
O139 C135 1.260 . S
C140 O131 1.240 . S
C140 O132 1.252 . S
O141 In130 2.294 . S
O141 C134 1.240 . S
O142 In130 2.326 . S
O142 C134 1.252 . S
In143 O144 2.294 . S
In143 O145 2.326 . S
In143 O149 2.266 . S
In143 O150 2.326 . S
In143 O151 2.266 . S
In143 O152 2.326 . S
In143 O154 2.294 . S
In143 O155 2.326 . S
O144 In143 2.294 . S
O144 C153 1.240 . S
O145 In143 2.326 . S
O145 C153 1.252 . S
C146 O149 1.252 . S
C146 O150 1.260 . S
C147 O154 1.240 . S
C147 O155 1.252 . S
C148 O151 1.252 . S
C148 O152 1.260 . S
O149 In143 2.266 . S
O149 C146 1.252 . S
O150 In143 2.326 . S
O150 C146 1.260 . S
O151 In143 2.266 . S
O151 C148 1.252 . S
O152 In143 2.326 . S
O152 C148 1.260 . S
C153 O144 1.240 . S
C153 O145 1.252 . S
O154 In143 2.294 . S
O154 C147 1.240 . S
O155 In143 2.326 . S
O155 C147 1.252 . S
In156 O157 2.294 . S
In156 O158 2.326 . S
In156 O162 2.266 1_455 S
In156 O163 2.326 . S
In156 O164 2.266 . S
In156 O165 2.326 . S
In156 O167 2.294 . S
In156 O168 2.326 . S
O157 In156 2.294 . S
O157 C166 1.240 . S
O158 In156 2.326 . S
O158 C166 1.252 . S
C159 O162 1.252 1_455 S
C159 O163 1.260 . S
C160 O167 1.240 . S
C160 O168 1.252 . S
C161 O164 1.252 . S
C161 O165 1.260 . S
O162 In156 2.266 1_655 S
O162 C159 1.252 1_655 S
O163 In156 2.326 . S
O163 C159 1.260 . S
O164 In156 2.266 . S
O164 C161 1.252 . S
O165 In156 2.326 . S
O165 C161 1.260 . S
C166 O157 1.240 . S
C166 O158 1.252 . S
O167 In156 2.294 . S
O167 C160 1.240 . S
O168 In156 2.326 . S
O168 C160 1.252 . S
In169 O170 2.294 . S
In169 O171 2.326 . S
In169 O175 2.266 . S
In169 O176 2.326 . S
In169 O177 2.266 . S
In169 O178 2.326 . S
In169 O180 2.294 . S
In169 O181 2.326 . S
O170 In169 2.294 . S
O170 C179 1.240 . S
O171 In169 2.326 . S
O171 C179 1.252 . S
C172 O175 1.252 . S
C172 O176 1.260 . S
C173 O180 1.240 . S
C173 O181 1.252 . S
C174 O177 1.252 . S
C174 O178 1.260 . S
O175 In169 2.266 . S
O175 C172 1.252 . S
O176 In169 2.326 . S
O176 C172 1.260 . S
O177 In169 2.266 . S
O177 C174 1.252 . S
O178 In169 2.326 . S
O178 C174 1.260 . S
C179 O170 1.240 . S
C179 O171 1.252 . S
O180 In169 2.294 . S
O180 C173 1.240 . S
O181 In169 2.326 . S
O181 C173 1.252 . S
In182 O183 2.294 . S
In182 O184 2.326 . S
In182 O188 2.266 . S
In182 O189 2.326 . S
In182 O190 2.266 1_565 S
In182 O191 2.326 . S
In182 O193 2.294 . S
In182 O194 2.326 . S
O183 In182 2.294 . S
O183 C192 1.240 . S
O184 In182 2.326 . S
O184 C192 1.252 . S
C185 O188 1.252 . S
C185 O189 1.260 . S
C186 O193 1.240 . S
C186 O194 1.252 . S
C187 O190 1.252 1_565 S
C187 O191 1.260 . S
O188 In182 2.266 . S
O188 C185 1.252 . S
O189 In182 2.326 . S
O189 C185 1.260 . S
O190 In182 2.266 1_545 S
O190 C187 1.252 1_545 S
O191 In182 2.326 . S
O191 C187 1.260 . S
C192 O183 1.240 . S
C192 O184 1.252 . S
O193 In182 2.294 . S
O193 C186 1.240 . S
O194 In182 2.326 . S
O194 C186 1.252 . S
In195 O196 2.294 . S
In195 O197 2.326 . S
In195 O201 2.266 . S
In195 O202 2.326 . S
In195 O203 2.266 . S
In195 O204 2.326 . S
In195 O206 2.294 . S
In195 O207 2.326 . S
O196 In195 2.294 . S
O196 C205 1.240 . S
O197 In195 2.326 . S
O197 C205 1.252 . S
C198 O201 1.252 . S
C198 O202 1.260 . S
C199 O206 1.240 . S
C199 O207 1.252 . S
C200 O203 1.252 . S
C200 O204 1.260 . S
O201 In195 2.266 . S
O201 C198 1.252 . S
O202 In195 2.326 . S
O202 C198 1.260 . S
O203 In195 2.266 . S
O203 C200 1.252 . S
O204 In195 2.326 . S
O204 C200 1.260 . S
C205 O196 1.240 . S
C205 O197 1.252 . S
O206 In195 2.294 . S
O206 C199 1.240 . S
O207 In195 2.326 . S
O207 C199 1.252 . S
In208 O209 2.294 . S
In208 O210 2.326 . S
In208 O214 2.266 . S
In208 O215 2.326 . S
In208 O216 2.266 . S
In208 O217 2.326 . S
In208 O219 2.294 . S
In208 O220 2.326 . S
O209 In208 2.294 . S
O209 C218 1.240 . S
O210 In208 2.326 . S
O210 C218 1.252 . S
C211 O214 1.252 . S
C211 O215 1.260 . S
C212 O219 1.240 . S
C212 O220 1.252 . S
C213 O216 1.252 . S
C213 O217 1.260 . S
O214 In208 2.266 . S
O214 C211 1.252 . S
O215 In208 2.326 . S
O215 C211 1.260 . S
O216 In208 2.266 . S
O216 C213 1.252 . S
O217 In208 2.326 . S
O217 C213 1.260 . S
C218 O209 1.240 . S
C218 O210 1.252 . S
O219 In208 2.294 . S
O219 C212 1.240 . S
O220 In208 2.326 . S
O220 C212 1.252 . S
In221 O222 2.294 . S
In221 O223 2.326 . S
In221 O227 2.266 . S
In221 O228 2.326 . S
In221 O229 2.266 . S
In221 O230 2.326 . S
In221 O232 2.294 . S
In221 O233 2.326 . S
O222 In221 2.294 . S
O222 C231 1.240 . S
O223 In221 2.326 . S
O223 C231 1.252 . S
C224 O227 1.252 . S
C224 O228 1.260 . S
C225 O232 1.240 . S
C225 O233 1.252 . S
C226 O229 1.252 . S
C226 O230 1.260 . S
O227 In221 2.266 . S
O227 C224 1.252 . S
O228 In221 2.326 . S
O228 C224 1.260 . S
O229 In221 2.266 . S
O229 C226 1.252 . S
O230 In221 2.326 . S
O230 C226 1.260 . S
C231 O222 1.240 . S
C231 O223 1.252 . S
O232 In221 2.294 . S
O232 C225 1.240 . S
O233 In221 2.326 . S
O233 C225 1.252 . S
In234 O235 2.294 . S
In234 O236 2.326 . S
In234 O240 2.266 . S
In234 O241 2.326 . S
In234 O242 2.266 . S
In234 O243 2.326 . S
In234 O245 2.294 . S
In234 O246 2.326 . S
O235 In234 2.294 . S
O235 C244 1.240 . S
O236 In234 2.326 . S
O236 C244 1.252 . S
C237 O240 1.252 . S
C237 O241 1.260 . S
C238 O245 1.240 . S
C238 O246 1.252 . S
C239 O242 1.252 . S
C239 O243 1.260 . S
O240 In234 2.266 . S
O240 C237 1.252 . S
O241 In234 2.326 . S
O241 C237 1.260 . S
O242 In234 2.266 . S
O242 C239 1.252 . S
O243 In234 2.326 . S
O243 C239 1.260 . S
C244 O235 1.240 . S
C244 O236 1.252 . S
O245 In234 2.294 . S
O245 C238 1.240 . S
O246 In234 2.326 . S
O246 C238 1.252 . S
In247 O248 2.294 . S
In247 O249 2.326 . S
In247 O253 2.266 . S
In247 O254 2.326 . S
In247 O255 2.266 . S
In247 O256 2.326 . S
In247 O258 2.294 . S
In247 O259 2.326 . S
O248 In247 2.294 . S
O248 C257 1.240 . S
O249 In247 2.326 . S
O249 C257 1.252 . S
C250 O253 1.252 . S
C250 O254 1.260 . S
C251 O258 1.240 . S
C251 O259 1.252 . S
C252 O255 1.252 . S
C252 O256 1.260 . S
O253 In247 2.266 . S
O253 C250 1.252 . S
O254 In247 2.326 . S
O254 C250 1.260 . S
O255 In247 2.266 . S
O255 C252 1.252 . S
O256 In247 2.326 . S
O256 C252 1.260 . S
C257 O248 1.240 . S
C257 O249 1.252 . S
O258 In247 2.294 . S
O258 C251 1.240 . S
O259 In247 2.326 . S
O259 C251 1.252 . S
In260 O261 2.294 . S
In260 O262 2.326 . S
In260 O266 2.266 . S
In260 O267 2.326 . S
In260 O268 2.266 . S
In260 O269 2.326 . S
In260 O271 2.294 . S
In260 O272 2.326 . S
O261 In260 2.294 . S
O261 C270 1.240 . S
O262 In260 2.326 . S
O262 C270 1.252 . S
C263 O266 1.252 . S
C263 O267 1.260 . S
C264 O271 1.240 . S
C264 O272 1.252 . S
C265 O268 1.252 . S
C265 O269 1.260 . S
O266 In260 2.266 . S
O266 C263 1.252 . S
O267 In260 2.326 . S
O267 C263 1.260 . S
O268 In260 2.266 . S
O268 C265 1.252 . S
O269 In260 2.326 . S
O269 C265 1.260 . S
C270 O261 1.240 . S
C270 O262 1.252 . S
O271 In260 2.294 . S
O271 C264 1.240 . S
O272 In260 2.326 . S
O272 C264 1.252 . S
In273 O274 2.294 . S
In273 O275 2.326 . S
In273 O279 2.266 . S
In273 O280 2.326 1_554 S
In273 O281 2.266 1_565 S
In273 O282 2.326 . S
In273 O284 2.294 . S
In273 O285 2.326 . S
O274 In273 2.294 . S
O274 C283 1.240 . S
O275 In273 2.326 . S
O275 C283 1.252 . S
C276 O279 1.252 . S
C276 O280 1.260 1_554 S
C277 O284 1.240 . S
C277 O285 1.252 . S
C278 O281 1.252 1_565 S
C278 O282 1.260 . S
O279 In273 2.266 . S
O279 C276 1.252 . S
O280 In273 2.326 1_556 S
O280 C276 1.260 1_556 S
O281 In273 2.266 1_545 S
O281 C278 1.252 1_545 S
O282 In273 2.326 . S
O282 C278 1.260 . S
C283 O274 1.240 . S
C283 O275 1.252 . S
O284 In273 2.294 . S
O284 C277 1.240 . S
O285 In273 2.326 . S
O285 C277 1.252 . S
In286 O287 2.294 . S
In286 O288 2.326 . S
In286 O292 2.266 1_455 S
In286 O293 2.326 . S
In286 O294 2.266 . S
In286 O295 2.326 1_554 S
In286 O297 2.294 . S
In286 O298 2.326 . S
O287 In286 2.294 . S
O287 C296 1.240 . S
O288 In286 2.326 . S
O288 C296 1.252 . S
C289 O292 1.252 1_455 S
C289 O293 1.260 . S
C290 O297 1.240 . S
C290 O298 1.252 . S
C291 O294 1.252 . S
C291 O295 1.260 1_554 S
O292 In286 2.266 1_655 S
O292 C289 1.252 1_655 S
O293 In286 2.326 . S
O293 C289 1.260 . S
O294 In286 2.266 . S
O294 C291 1.252 . S
O295 In286 2.326 1_556 S
O295 C291 1.260 1_556 S
C296 O287 1.240 . S
C296 O288 1.252 . S
O297 In286 2.294 . S
O297 C290 1.240 . S
O298 In286 2.326 . S
O298 C290 1.252 . S
In299 O300 2.294 . S
In299 O301 2.326 . S
In299 O305 2.266 . S
In299 O306 2.326 1_554 S
In299 O307 2.266 . S
In299 O308 2.326 . S
In299 O310 2.294 . S
In299 O311 2.326 . S
O300 In299 2.294 . S
O300 C309 1.240 . S
O301 In299 2.326 . S
O301 C309 1.252 . S
C302 O305 1.252 . S
C302 O306 1.260 1_554 S
C303 O310 1.240 . S
C303 O311 1.252 . S
C304 O307 1.252 . S
C304 O308 1.260 . S
O305 In299 2.266 . S
O305 C302 1.252 . S
O306 In299 2.326 1_556 S
O306 C302 1.260 1_556 S
O307 In299 2.266 . S
O307 C304 1.252 . S
O308 In299 2.326 . S
O308 C304 1.260 . S
C309 O300 1.240 . S
C309 O301 1.252 . S
O310 In299 2.294 . S
O310 C303 1.240 . S
O311 In299 2.326 . S
O311 C303 1.252 . S
In312 O313 2.294 . S
In312 O314 2.326 . S
In312 O318 2.266 . S
In312 O319 2.326 . S
In312 O320 2.266 . S
In312 O321 2.326 . S
In312 O323 2.294 . S
In312 O324 2.326 . S
O313 In312 2.294 . S
O313 C322 1.240 . S
O314 In312 2.326 . S
O314 C322 1.252 . S
C315 O318 1.252 . S
C315 O319 1.260 . S
C316 O323 1.240 . S
C316 O324 1.252 . S
C317 O320 1.252 . S
C317 O321 1.260 . S
O318 In312 2.266 . S
O318 C315 1.252 . S
O319 In312 2.326 . S
O319 C315 1.260 . S
O320 In312 2.266 . S
O320 C317 1.252 . S
O321 In312 2.326 . S
O321 C317 1.260 . S
C322 O313 1.240 . S
C322 O314 1.252 . S
O323 In312 2.294 . S
O323 C316 1.240 . S
O324 In312 2.326 . S
O324 C316 1.252 . S
In325 O326 2.294 . S
In325 O327 2.326 . S
In325 O331 2.266 . S
In325 O332 2.326 . S
In325 O333 2.266 . S
In325 O334 2.326 . S
In325 O336 2.294 . S
In325 O337 2.326 . S
O326 In325 2.294 . S
O326 C335 1.240 . S
O327 In325 2.326 . S
O327 C335 1.252 . S
C328 O331 1.252 . S
C328 O332 1.260 . S
C329 O336 1.240 . S
C329 O337 1.252 . S
C330 O333 1.252 . S
C330 O334 1.260 . S
O331 In325 2.266 . S
O331 C328 1.252 . S
O332 In325 2.326 . S
O332 C328 1.260 . S
O333 In325 2.266 . S
O333 C330 1.252 . S
O334 In325 2.326 . S
O334 C330 1.260 . S
C335 O326 1.240 . S
C335 O327 1.252 . S
O336 In325 2.294 . S
O336 C329 1.240 . S
O337 In325 2.326 . S
O337 C329 1.252 . S
In338 O339 2.294 . S
In338 O340 2.326 . S
In338 O344 2.266 . S
In338 O345 2.326 . S
In338 O346 2.266 . S
In338 O347 2.326 . S
In338 O349 2.294 . S
In338 O350 2.326 . S
O339 In338 2.294 . S
O339 C348 1.240 . S
O340 In338 2.326 . S
O340 C348 1.252 . S
C341 O344 1.252 . S
C341 O345 1.260 . S
C342 O349 1.240 . S
C342 O350 1.252 . S
C343 O346 1.252 . S
C343 O347 1.260 . S
O344 In338 2.266 . S
O344 C341 1.252 . S
O345 In338 2.326 . S
O345 C341 1.260 . S
O346 In338 2.266 . S
O346 C343 1.252 . S
O347 In338 2.326 . S
O347 C343 1.260 . S
C348 O339 1.240 . S
C348 O340 1.252 . S
O349 In338 2.294 . S
O349 C342 1.240 . S
O350 In338 2.326 . S
O350 C342 1.252 . S
In351 O352 2.294 . S
In351 O353 2.326 . S
In351 O357 2.266 . S
In351 O358 2.326 1_556 S
In351 O359 2.266 1_545 S
In351 O360 2.326 . S
In351 O362 2.294 . S
In351 O363 2.326 . S
O352 In351 2.294 . S
O352 C361 1.240 . S
O353 In351 2.326 . S
O353 C361 1.252 . S
C354 O357 1.252 . S
C354 O358 1.260 1_556 S
C355 O362 1.240 . S
C355 O363 1.252 . S
C356 O359 1.252 1_545 S
C356 O360 1.260 . S
O357 In351 2.266 . S
O357 C354 1.252 . S
O358 In351 2.326 1_554 S
O358 C354 1.260 1_554 S
O359 In351 2.266 1_565 S
O359 C356 1.252 1_565 S
O360 In351 2.326 . S
O360 C356 1.260 . S
C361 O352 1.240 . S
C361 O353 1.252 . S
O362 In351 2.294 . S
O362 C355 1.240 . S
O363 In351 2.326 . S
O363 C355 1.252 . S
In364 O365 2.294 . S
In364 O366 2.326 . S
In364 O370 2.266 1_655 S
In364 O371 2.326 . S
In364 O372 2.266 . S
In364 O373 2.326 1_556 S
In364 O375 2.294 . S
In364 O376 2.326 . S
O365 In364 2.294 . S
O365 C374 1.240 . S
O366 In364 2.326 . S
O366 C374 1.252 . S
C367 O370 1.252 1_655 S
C367 O371 1.260 . S
C368 O375 1.240 . S
C368 O376 1.252 . S
C369 O372 1.252 . S
C369 O373 1.260 1_556 S
O370 In364 2.266 1_455 S
O370 C367 1.252 1_455 S
O371 In364 2.326 . S
O371 C367 1.260 . S
O372 In364 2.266 . S
O372 C369 1.252 . S
O373 In364 2.326 1_554 S
O373 C369 1.260 1_554 S
C374 O365 1.240 . S
C374 O366 1.252 . S
O375 In364 2.294 . S
O375 C368 1.240 . S
O376 In364 2.326 . S
O376 C368 1.252 . S
In377 O378 2.294 . S
In377 O379 2.326 . S
In377 O383 2.266 . S
In377 O384 2.326 1_556 S
In377 O385 2.266 . S
In377 O386 2.326 . S
In377 O388 2.294 . S
In377 O389 2.326 . S
O378 In377 2.294 . S
O378 C387 1.240 . S
O379 In377 2.326 . S
O379 C387 1.252 . S
C380 O383 1.252 . S
C380 O384 1.260 1_556 S
C381 O388 1.240 . S
C381 O389 1.252 . S
C382 O385 1.252 . S
C382 O386 1.260 . S
O383 In377 2.266 . S
O383 C380 1.252 . S
O384 In377 2.326 1_554 S
O384 C380 1.260 1_554 S
O385 In377 2.266 . S
O385 C382 1.252 . S
O386 In377 2.326 . S
O386 C382 1.260 . S
C387 O378 1.240 . S
C387 O379 1.252 . S
O388 In377 2.294 . S
O388 C381 1.240 . S
O389 In377 2.326 . S
O389 C381 1.252 . S
In390 O391 2.294 . S
In390 O392 2.326 . S
In390 O396 2.266 1_655 S
In390 O397 2.326 . S
In390 O398 2.266 . S
In390 O399 2.326 . S
In390 O401 2.294 . S
In390 O402 2.326 . S
O391 In390 2.294 . S
O391 C400 1.240 . S
O392 In390 2.326 . S
O392 C400 1.252 . S
C393 O396 1.252 1_655 S
C393 O397 1.260 . S
C394 O401 1.240 . S
C394 O402 1.252 . S
C395 O398 1.252 . S
C395 O399 1.260 . S
O396 In390 2.266 1_455 S
O396 C393 1.252 1_455 S
O397 In390 2.326 . S
O397 C393 1.260 . S
O398 In390 2.266 . S
O398 C395 1.252 . S
O399 In390 2.326 . S
O399 C395 1.260 . S
C400 O391 1.240 . S
C400 O392 1.252 . S
O401 In390 2.294 . S
O401 C394 1.240 . S
O402 In390 2.326 . S
O402 C394 1.252 . S
In403 O404 2.294 . S
In403 O405 2.326 . S
In403 O409 2.266 . S
In403 O410 2.326 . S
In403 O411 2.266 . S
In403 O412 2.326 . S
In403 O414 2.294 . S
In403 O415 2.326 . S
O404 In403 2.294 . S
O404 C413 1.240 . S
O405 In403 2.326 . S
O405 C413 1.252 . S
C406 O409 1.252 . S
C406 O410 1.260 . S
C407 O414 1.240 . S
C407 O415 1.252 . S
C408 O411 1.252 . S
C408 O412 1.260 . S
O409 In403 2.266 . S
O409 C406 1.252 . S
O410 In403 2.326 . S
O410 C406 1.260 . S
O411 In403 2.266 . S
O411 C408 1.252 . S
O412 In403 2.326 . S
O412 C408 1.260 . S
C413 O404 1.240 . S
C413 O405 1.252 . S
O414 In403 2.294 . S
O414 C407 1.240 . S
O415 In403 2.326 . S
O415 C407 1.252 . S
In416 O417 2.294 . S
In416 O418 2.326 . S
In416 O422 2.266 1_545 S
In416 O423 2.326 . S
In416 O424 2.266 . S
In416 O425 2.326 . S
In416 O427 2.294 . S
In416 O428 2.326 . S
O417 In416 2.294 . S
O417 C426 1.240 . S
O418 In416 2.326 . S
O418 C426 1.252 . S
C419 O422 1.252 1_545 S
C419 O423 1.260 . S
C420 O427 1.240 . S
C420 O428 1.252 . S
C421 O424 1.252 . S
C421 O425 1.260 . S
O422 In416 2.266 1_565 S
O422 C419 1.252 1_565 S
O423 In416 2.326 . S
O423 C419 1.260 . S
O424 In416 2.266 . S
O424 C421 1.252 . S
O425 In416 2.326 . S
O425 C421 1.260 . S
C426 O417 1.240 . S
C426 O418 1.252 . S
O427 In416 2.294 . S
O427 C420 1.240 . S
O428 In416 2.326 . S
O428 C420 1.252 . S
In429 O430 2.294 . S
In429 O431 2.326 . S
In429 O435 2.266 . S
In429 O436 2.326 . S
In429 O437 2.266 . S
In429 O438 2.326 . S
In429 O440 2.294 . S
In429 O441 2.326 . S
O430 In429 2.294 . S
O430 C439 1.240 . S
O431 In429 2.326 . S
O431 C439 1.252 . S
C432 O435 1.252 . S
C432 O436 1.260 . S
C433 O440 1.240 . S
C433 O441 1.252 . S
C434 O437 1.252 . S
C434 O438 1.260 . S
O435 In429 2.266 . S
O435 C432 1.252 . S
O436 In429 2.326 . S
O436 C432 1.260 . S
O437 In429 2.266 . S
O437 C434 1.252 . S
O438 In429 2.326 . S
O438 C434 1.260 . S
C439 O430 1.240 . S
C439 O431 1.252 . S
O440 In429 2.294 . S
O440 C433 1.240 . S
O441 In429 2.326 . S
O441 C433 1.252 . S
In442 O443 2.294 . S
In442 O444 2.326 . S
In442 O448 2.266 . S
In442 O449 2.326 . S
In442 O450 2.266 . S
In442 O451 2.326 . S
In442 O453 2.294 . S
In442 O454 2.326 . S
O443 In442 2.294 . S
O443 C452 1.240 . S
O444 In442 2.326 . S
O444 C452 1.252 . S
C445 O448 1.252 . S
C445 O449 1.260 . S
C446 O453 1.240 . S
C446 O454 1.252 . S
C447 O450 1.252 . S
C447 O451 1.260 . S
O448 In442 2.266 . S
O448 C445 1.252 . S
O449 In442 2.326 . S
O449 C445 1.260 . S
O450 In442 2.266 . S
O450 C447 1.252 . S
O451 In442 2.326 . S
O451 C447 1.260 . S
C452 O443 1.240 . S
C452 O444 1.252 . S
O453 In442 2.294 . S
O453 C446 1.240 . S
O454 In442 2.326 . S
O454 C446 1.252 . S
In455 O456 2.294 . S
In455 O457 2.326 . S
In455 O461 2.266 . S
In455 O462 2.326 . S
In455 O463 2.266 . S
In455 O464 2.326 . S
In455 O466 2.294 . S
In455 O467 2.326 . S
O456 In455 2.294 . S
O456 C465 1.240 . S
O457 In455 2.326 . S
O457 C465 1.252 . S
C458 O461 1.252 . S
C458 O462 1.260 . S
C459 O466 1.240 . S
C459 O467 1.252 . S
C460 O463 1.252 . S
C460 O464 1.260 . S
O461 In455 2.266 . S
O461 C458 1.252 . S
O462 In455 2.326 . S
O462 C458 1.260 . S
O463 In455 2.266 . S
O463 C460 1.252 . S
O464 In455 2.326 . S
O464 C460 1.260 . S
C465 O456 1.240 . S
C465 O457 1.252 . S
O466 In455 2.294 . S
O466 C459 1.240 . S
O467 In455 2.326 . S
O467 C459 1.252 . S
C468 C469 1.387 . S
C468 H472 0.950 . S
C468 C477 1.390 1_565 S
C469 C468 1.387 . S
C469 C471 1.387 . S
H470 C477 0.950 . S
C471 C469 1.387 . S
C471 C473 1.390 1_565 S
C471 H475 0.950 . S
H472 C468 0.950 . S
C473 C471 1.390 1_545 S
C473 C474 1.387 . S
C473 H476 0.950 . S
C474 C473 1.387 . S
C474 C477 1.387 . S
H475 C471 0.950 . S
H476 C473 0.950 . S
C477 C468 1.390 1_545 S
C477 H470 0.950 . S
C477 C474 1.387 . S
C478 C479 1.387 . S
C478 H482 0.950 . S
C478 C487 1.390 1_455 S
C479 C478 1.387 . S
C479 C481 1.387 . S
H480 C487 0.950 . S
C481 C479 1.387 . S
C481 C483 1.390 1_455 S
C481 H485 0.950 . S
H482 C478 0.950 . S
C483 C481 1.390 1_655 S
C483 C484 1.387 . S
C483 H486 0.950 . S
C484 C483 1.387 . S
C484 C487 1.387 . S
H485 C481 0.950 . S
H486 C483 0.950 . S
C487 C478 1.390 1_655 S
C487 H480 0.950 . S
C487 C484 1.387 . S
C488 C489 1.387 . S
C488 H492 0.950 . S
C488 C497 1.390 . S
C489 C488 1.387 . S
C489 C491 1.387 . S
H490 C497 0.950 . S
C491 C489 1.387 . S
C491 C493 1.390 . S
C491 H495 0.950 . S
H492 C488 0.950 . S
C493 C491 1.390 . S
C493 C494 1.387 . S
C493 H496 0.950 . S
C494 C493 1.387 . S
C494 C497 1.387 . S
H495 C491 0.950 . S
H496 C493 0.950 . S
C497 C488 1.390 . S
C497 H490 0.950 . S
C497 C494 1.387 . S
C498 C499 1.387 . S
C498 H502 0.950 . S
C498 C507 1.390 1_565 S
C499 C498 1.387 . S
C499 C501 1.387 . S
H500 C507 0.950 . S
C501 C499 1.387 . S
C501 C503 1.390 1_565 S
C501 H505 0.950 . S
H502 C498 0.950 . S
C503 C501 1.390 1_545 S
C503 C504 1.387 . S
C503 H506 0.950 . S
C504 C503 1.387 . S
C504 C507 1.387 . S
H505 C501 0.950 . S
H506 C503 0.950 . S
C507 C498 1.390 1_545 S
C507 H500 0.950 . S
C507 C504 1.387 . S
C508 C509 1.387 . S
C508 H512 0.950 . S
C508 C517 1.390 1_455 S
C509 C508 1.387 . S
C509 C511 1.387 . S
H510 C517 0.950 . S
C511 C509 1.387 . S
C511 C513 1.390 1_455 S
C511 H515 0.950 . S
H512 C508 0.950 . S
C513 C511 1.390 1_655 S
C513 C514 1.387 . S
C513 H516 0.950 . S
C514 C513 1.387 . S
C514 C517 1.387 . S
H515 C511 0.950 . S
H516 C513 0.950 . S
C517 C508 1.390 1_655 S
C517 H510 0.950 . S
C517 C514 1.387 . S
C518 C519 1.387 . S
C518 H522 0.950 . S
C518 C527 1.390 . S
C519 C518 1.387 . S
C519 C521 1.387 . S
H520 C527 0.950 . S
C521 C519 1.387 . S
C521 C523 1.390 . S
C521 H525 0.950 . S
H522 C518 0.950 . S
C523 C521 1.390 . S
C523 C524 1.387 . S
C523 H526 0.950 . S
C524 C523 1.387 . S
C524 C527 1.387 . S
H525 C521 0.950 . S
H526 C523 0.950 . S
C527 C518 1.390 . S
C527 H520 0.950 . S
C527 C524 1.387 . S
C528 C529 1.387 1_455 S
C528 H532 0.950 . S
C528 C537 1.390 1_455 S
C529 C528 1.387 1_655 S
C529 C531 1.387 . S
H530 C537 0.950 1_455 S
C531 C529 1.387 . S
C531 C533 1.390 . S
C531 H535 0.950 . S
H532 C528 0.950 . S
C533 C531 1.390 . S
C533 C534 1.387 . S
C533 H536 0.950 . S
C534 C533 1.387 . S
C534 C537 1.387 . S
H535 C531 0.950 . S
H536 C533 0.950 . S
C537 C528 1.390 1_655 S
C537 H530 0.950 1_655 S
C537 C534 1.387 . S
C538 C539 1.387 . S
C538 H542 0.950 . S
C538 C547 1.390 . S
C539 C538 1.387 . S
C539 C541 1.387 . S
H540 C547 0.950 . S
C541 C539 1.387 . S
C541 C543 1.390 . S
C541 H545 0.950 . S
H542 C538 0.950 . S
C543 C541 1.390 . S
C543 C544 1.387 . S
C543 H546 0.950 . S
C544 C543 1.387 . S
C544 C547 1.387 . S
H545 C541 0.950 . S
H546 C543 0.950 . S
C547 C538 1.390 . S
C547 H540 0.950 . S
C547 C544 1.387 . S
C548 C549 1.387 . S
C548 H552 0.950 . S
C548 C557 1.390 . S
C549 C548 1.387 . S
C549 C551 1.387 . S
H550 C557 0.948 . S
C551 C549 1.387 . S
C551 C553 1.390 . S
C551 H555 0.950 . S
H552 C548 0.950 . S
C553 C551 1.390 . S
C553 C554 1.387 . S
C553 H556 0.950 . S
C554 C553 1.387 . S
C554 C557 1.387 . S
H555 C551 0.950 . S
H556 C553 0.950 . S
C557 C548 1.390 . S
C557 H550 0.948 . S
C557 C554 1.387 . S
C558 C559 1.387 . S
C558 H562 0.950 . S
C558 C567 1.390 . S
C559 C558 1.387 . S
C559 C561 1.387 . S
H560 C567 0.950 . S
C561 C559 1.387 . S
C561 C563 1.390 . S
C561 H565 0.950 . S
H562 C558 0.950 . S
C563 C561 1.390 . S
C563 C564 1.387 . S
C563 H566 0.950 . S
C564 C563 1.387 . S
C564 C567 1.387 . S
H565 C561 0.950 . S
H566 C563 0.950 . S
C567 C558 1.390 . S
C567 H560 0.950 . S
C567 C564 1.387 . S
C568 C569 1.387 1_565 S
C568 H572 0.950 . S
C568 C577 1.390 1_565 S
C569 C568 1.387 1_545 S
C569 C571 1.387 . S
H570 C577 0.950 . S
C571 C569 1.387 . S
C571 C573 1.390 . S
C571 H575 0.950 . S
H572 C568 0.950 . S
C573 C571 1.390 . S
C573 C574 1.387 . S
C573 H576 0.950 . S
C574 C573 1.387 . S
C574 C577 1.387 . S
H575 C571 0.950 . S
H576 C573 0.950 . S
C577 C568 1.390 1_545 S
C577 H570 0.950 . S
C577 C574 1.387 . S
C578 C579 1.387 . S
C578 H582 0.950 . S
C578 C587 1.390 . S
C579 C578 1.387 . S
C579 C581 1.387 . S
H580 C587 0.950 . S
C581 C579 1.387 . S
C581 C583 1.390 . S
C581 H585 0.950 . S
H582 C578 0.950 . S
C583 C581 1.390 . S
C583 C584 1.387 . S
C583 H586 0.950 . S
C584 C583 1.387 . S
C584 C587 1.387 . S
H585 C581 0.950 . S
H586 C583 0.950 . S
C587 C578 1.390 . S
C587 H580 0.950 . S
C587 C584 1.387 . S
C588 C589 1.387 . S
C588 H592 0.950 . S
C588 C597 1.390 . S
C589 C588 1.387 . S
C589 C591 1.387 . S
H590 C597 0.950 . S
C591 C589 1.387 . S
C591 C593 1.390 . S
C591 H595 0.950 . S
H592 C588 0.950 . S
C593 C591 1.390 . S
C593 C594 1.387 . S
C593 H596 0.950 . S
C594 C593 1.387 . S
C594 C597 1.387 . S
H595 C591 0.950 . S
H596 C593 0.950 . S
C597 C588 1.390 . S
C597 H590 0.950 . S
C597 C594 1.387 . S
C598 C599 1.387 . S
C598 H602 0.950 . S
C598 C607 1.390 . S
C599 C598 1.387 . S
C599 C601 1.387 . S
H600 C607 0.950 . S
C601 C599 1.387 . S
C601 C603 1.390 . S
C601 H605 0.950 1_565 S
H602 C598 0.950 . S
C603 C601 1.390 . S
C603 C604 1.387 . S
C603 H606 0.950 . S
C604 C603 1.387 . S
C604 C607 1.387 . S
H605 C601 0.950 1_545 S
H606 C603 0.950 . S
C607 C598 1.390 . S
C607 H600 0.950 . S
C607 C604 1.387 . S
C608 C609 1.387 . S
C608 H612 0.950 . S
C608 C617 1.390 . S
C609 C608 1.387 . S
C609 C611 1.387 . S
H610 C617 0.950 1_655 S
C611 C609 1.387 . S
C611 C613 1.390 . S
C611 H615 0.950 . S
H612 C608 0.950 . S
C613 C611 1.390 . S
C613 C614 1.387 . S
C613 H616 0.950 . S
C614 C613 1.387 . S
C614 C617 1.387 . S
H615 C611 0.950 . S
H616 C613 0.950 . S
C617 C608 1.390 . S
C617 H610 0.950 1_455 S
C617 C614 1.387 . S
C618 C619 1.387 . S
C618 H622 0.950 . S
C618 C627 1.390 . S
C619 C618 1.387 . S
C619 C621 1.387 . S
H620 C627 0.950 . S
C621 C619 1.387 . S
C621 C623 1.390 1_455 S
C621 H625 0.950 1_455 S
H622 C618 0.950 . S
C623 C621 1.390 1_655 S
C623 C624 1.387 1_655 S
C623 H626 0.950 . S
C624 C623 1.387 1_455 S
C624 C627 1.387 . S
H625 C621 0.950 1_655 S
H626 C623 0.950 . S
C627 C618 1.390 . S
C627 H620 0.950 . S
C627 C624 1.387 . S
C628 C629 1.387 . S
C628 H632 0.950 . S
C628 C637 1.390 . S
C629 C628 1.387 . S
C629 C631 1.387 . S
H630 C637 0.950 . S
C631 C629 1.387 . S
C631 C633 1.390 . S
C631 H635 0.950 . S
H632 C628 0.950 . S
C633 C631 1.390 . S
C633 C634 1.387 . S
C633 H636 0.950 . S
C634 C633 1.387 . S
C634 C637 1.387 . S
H635 C631 0.950 . S
H636 C633 0.950 . S
C637 C628 1.390 . S
C637 H630 0.950 . S
C637 C634 1.387 . S
C638 C639 1.387 . S
C638 H642 0.950 . S
C638 C647 1.390 . S
C639 C638 1.387 . S
C639 C641 1.387 . S
H640 C647 0.950 . S
C641 C639 1.387 . S
C641 C643 1.390 . S
C641 H645 0.950 . S
H642 C638 0.950 . S
C643 C641 1.390 . S
C643 C644 1.387 . S
C643 H646 0.950 1_565 S
C644 C643 1.387 . S
C644 C647 1.387 . S
H645 C641 0.950 . S
H646 C643 0.950 1_545 S
C647 C638 1.390 . S
C647 H640 0.950 . S
C647 C644 1.387 . S
C648 C649 1.387 . S
C648 H652 0.950 . S
C648 C657 1.390 . S
C649 C648 1.387 . S
C649 C651 1.387 . S
H650 C657 0.950 . S
C651 C649 1.387 . S
C651 C653 1.390 . S
C651 H655 0.950 . S
H652 C648 0.950 . S
C653 C651 1.390 . S
C653 C654 1.387 . S
C653 H656 0.950 . S
C654 C653 1.387 . S
C654 C657 1.387 . S
H655 C651 0.950 . S
H656 C653 0.950 . S
C657 C648 1.390 . S
C657 H650 0.950 . S
C657 C654 1.387 . S
C658 C659 1.387 . S
C658 H662 0.950 . S
C658 C667 1.390 . S
C659 C658 1.387 . S
C659 C661 1.387 . S
H660 C667 0.950 . S
C661 C659 1.387 . S
C661 C663 1.390 . S
C661 H665 0.950 . S
H662 C658 0.950 . S
C663 C661 1.390 . S
C663 C664 1.387 . S
C663 H666 0.950 . S
C664 C663 1.387 . S
C664 C667 1.387 . S
H665 C661 0.950 . S
H666 C663 0.950 . S
C667 C658 1.390 . S
C667 H660 0.950 . S
C667 C664 1.387 . S
C668 C669 1.387 . S
C668 H672 0.950 . S
C668 C677 1.390 . S
C669 C668 1.387 . S
C669 C671 1.387 . S
H670 C677 0.950 . S
C671 C669 1.387 . S
C671 C673 1.390 . S
C671 H675 0.950 . S
H672 C668 0.950 . S
C673 C671 1.390 . S
C673 C674 1.387 . S
C673 H676 0.950 . S
C674 C673 1.387 . S
C674 C677 1.387 . S
H675 C671 0.950 . S
H676 C673 0.950 . S
C677 C668 1.390 . S
C677 H670 0.950 . S
C677 C674 1.387 . S
C678 C679 1.387 . S
C678 H682 0.950 . S
C678 C687 1.390 . S
C679 C678 1.387 . S
C679 C681 1.387 . S
H680 C687 0.950 . S
C681 C679 1.387 . S
C681 C683 1.390 . S
C681 H685 0.950 . S
H682 C678 0.950 . S
C683 C681 1.390 . S
C683 C684 1.387 . S
C683 H686 0.950 . S
C684 C683 1.387 . S
C684 C687 1.387 . S
H685 C681 0.950 . S
H686 C683 0.950 . S
C687 C678 1.390 . S
C687 H680 0.950 . S
C687 C684 1.387 . S
C688 C689 1.387 . S
C688 H692 0.950 . S
C688 C697 1.390 . S
C689 C688 1.387 . S
C689 C691 1.387 . S
H690 C697 0.950 . S
C691 C689 1.387 . S
C691 C693 1.390 . S
C691 H695 0.950 . S
H692 C688 0.950 . S
C693 C691 1.390 . S
C693 C694 1.387 . S
C693 H696 0.950 . S
C694 C693 1.387 . S
C694 C697 1.387 . S
H695 C691 0.950 . S
H696 C693 0.950 . S
C697 C688 1.390 . S
C697 H690 0.950 . S
C697 C694 1.387 . S
C698 C699 1.387 . S
C698 H702 0.950 . S
C698 C707 1.390 . S
C699 C698 1.387 . S
C699 C701 1.387 . S
H700 C707 0.966 . S
C701 C699 1.387 . S
C701 C703 1.390 . S
C701 H705 0.950 . S
H702 C698 0.950 . S
C703 C701 1.390 . S
C703 C704 1.387 . S
C703 H706 0.950 . S
C704 C703 1.387 . S
C704 C707 1.387 . S
H705 C701 0.950 . S
H706 C703 0.950 . S
C707 C698 1.390 . S
C707 H700 0.966 . S
C707 C704 1.387 . S
C708 C709 1.387 . S
C708 H712 0.950 . S
C708 C717 1.390 . S
C709 C708 1.387 . S
C709 C711 1.387 . S
H710 C717 0.950 . S
C711 C709 1.387 . S
C711 C713 1.390 . S
C711 H715 0.950 . S
H712 C708 0.950 . S
C713 C711 1.390 . S
C713 C714 1.387 . S
C713 H716 0.950 . S
C714 C713 1.387 . S
C714 C717 1.387 . S
H715 C711 0.950 . S
H716 C713 0.950 . S
C717 C708 1.390 . S
C717 H710 0.950 . S
C717 C714 1.387 . S
C718 C719 1.387 . S
C718 H722 0.950 . S
C718 C727 1.390 . S
C719 C718 1.387 . S
C719 C721 1.387 . S
H720 C727 0.950 . S
C721 C719 1.387 . S
C721 C723 1.390 . S
C721 H725 0.950 . S
H722 C718 0.950 . S
C723 C721 1.390 . S
C723 C724 1.387 . S
C723 H726 0.950 . S
C724 C723 1.387 . S
C724 C727 1.387 . S
H725 C721 0.950 . S
H726 C723 0.950 . S
C727 C718 1.390 . S
C727 H720 0.950 . S
C727 C724 1.387 . S
C728 C729 1.387 . S
C728 H732 0.950 . S
C728 C737 1.390 . S
C729 C728 1.387 . S
C729 C731 1.387 . S
H730 C737 0.950 . S
C731 C729 1.387 . S
C731 C733 1.390 . S
C731 H735 0.950 . S
H732 C728 0.950 . S
C733 C731 1.390 . S
C733 C734 1.387 . S
C733 H736 0.950 . S
C734 C733 1.387 . S
C734 C737 1.387 . S
H735 C731 0.950 . S
H736 C733 0.950 . S
C737 C728 1.390 . S
C737 H730 0.950 . S
C737 C734 1.387 . S
C738 C739 1.387 . S
C738 H742 0.950 . S
C738 C747 1.390 . S
C739 C738 1.387 . S
C739 C741 1.387 . S
H740 C747 0.950 . S
C741 C739 1.387 . S
C741 C743 1.390 . S
C741 H745 0.950 . S
H742 C738 0.950 . S
C743 C741 1.390 . S
C743 C744 1.387 . S
C743 H746 0.950 . S
C744 C743 1.387 . S
C744 C747 1.387 . S
H745 C741 0.950 . S
H746 C743 0.950 . S
C747 C738 1.390 . S
C747 H740 0.950 . S
C747 C744 1.387 . S
C748 C749 1.387 . S
C748 H752 0.950 . S
C748 C757 1.390 . S
C749 C748 1.387 . S
C749 C751 1.387 . S
H750 C757 0.950 . S
C751 C749 1.387 . S
C751 C753 1.390 . S
C751 H755 0.950 . S
H752 C748 0.950 . S
C753 C751 1.390 . S
C753 C754 1.387 . S
C753 H756 0.950 . S
C754 C753 1.387 . S
C754 C757 1.387 . S
H755 C751 0.950 . S
H756 C753 0.950 . S
C757 C748 1.390 . S
C757 H750 0.950 . S
C757 C754 1.387 . S
C758 C759 1.387 . S
C758 H762 0.950 . S
C758 C767 1.390 . S
C759 C758 1.387 . S
C759 C761 1.387 . S
H760 C767 0.950 . S
C761 C759 1.387 . S
C761 C763 1.390 . S
C761 H765 0.950 . S
H762 C758 0.950 . S
C763 C761 1.390 . S
C763 C764 1.387 . S
C763 H766 0.950 . S
C764 C763 1.387 . S
C764 C767 1.387 . S
H765 C761 0.950 . S
H766 C763 0.950 . S
C767 C758 1.390 . S
C767 H760 0.950 . S
C767 C764 1.387 . S
C768 C769 1.387 . S
C768 H772 0.950 . S
C768 C777 1.390 . S
C769 C768 1.387 . S
C769 C771 1.387 1_455 S
H770 C777 0.950 . S
C771 C769 1.387 1_655 S
C771 C773 1.390 . S
C771 H775 0.950 . S
H772 C768 0.950 . S
C773 C771 1.390 . S
C773 C774 1.387 . S
C773 H776 0.950 . S
C774 C773 1.387 . S
C774 C777 1.387 1_655 S
H775 C771 0.950 . S
H776 C773 0.950 . S
C777 C768 1.390 . S
C777 H770 0.950 . S
C777 C774 1.387 1_455 S
C778 C779 1.387 . S
C778 H782 0.950 . S
C778 C787 1.390 . S
C779 C778 1.387 . S
C779 C781 1.387 . S
H780 C787 0.950 . S
C781 C779 1.387 . S
C781 C783 1.390 . S
C781 H785 0.950 . S
H782 C778 0.950 . S
C783 C781 1.390 . S
C783 C784 1.387 . S
C783 H786 0.950 . S
C784 C783 1.387 . S
C784 C787 1.387 . S
H785 C781 0.950 . S
H786 C783 0.950 . S
C787 C778 1.390 . S
C787 H780 0.950 . S
C787 C784 1.387 . S
C788 C789 1.387 . S
C788 H792 0.950 . S
C788 C797 1.390 1_545 S
C789 C788 1.387 . S
C789 C791 1.387 . S
H790 C797 0.950 . S
C791 C789 1.387 . S
C791 C793 1.390 1_545 S
C791 H795 0.950 . S
H792 C788 0.950 . S
C793 C791 1.390 1_565 S
C793 C794 1.387 . S
C793 H796 0.950 . S
C794 C793 1.387 . S
C794 C797 1.387 . S
H795 C791 0.950 . S
H796 C793 0.950 . S
C797 C788 1.390 1_565 S
C797 H790 0.950 . S
C797 C794 1.387 . S
C798 C799 1.387 . S
C798 H802 0.950 . S
C798 C807 1.390 1_565 S
C799 C798 1.387 . S
C799 C801 1.387 . S
H800 C807 0.950 . S
C801 C799 1.387 . S
C801 C803 1.390 1_565 S
C801 H805 0.950 . S
H802 C798 0.950 . S
C803 C801 1.390 1_545 S
C803 C804 1.387 . S
C803 H806 0.950 . S
C804 C803 1.387 . S
C804 C807 1.387 . S
H805 C801 0.950 . S
H806 C803 0.950 . S
C807 C798 1.390 1_545 S
C807 H800 0.950 . S
C807 C804 1.387 . S
C808 C809 1.387 1_455 S
C808 H812 0.950 . S
C808 C817 1.390 . S
C809 C808 1.387 1_655 S
C809 C811 1.387 . S
H810 C817 0.950 . S
C811 C809 1.387 . S
C811 C813 1.390 . S
C811 H815 0.950 . S
H812 C808 0.950 . S
C813 C811 1.390 . S
C813 C814 1.387 1_655 S
C813 H816 0.950 . S
C814 C813 1.387 1_455 S
C814 C817 1.387 . S
H815 C811 0.950 . S
H816 C813 0.950 . S
C817 C808 1.390 . S
C817 H810 0.950 . S
C817 C814 1.387 . S
C818 C819 1.387 . S
C818 H822 0.950 . S
C818 C827 1.390 . S
C819 C818 1.387 . S
C819 C821 1.387 . S
H820 C827 0.950 . S
C821 C819 1.387 . S
C821 C823 1.390 . S
C821 H825 0.950 . S
H822 C818 0.950 . S
C823 C821 1.390 . S
C823 C824 1.387 . S
C823 H826 0.950 . S
C824 C823 1.387 . S
C824 C827 1.387 . S
H825 C821 0.950 . S
H826 C823 0.950 . S
C827 C818 1.390 . S
C827 H820 0.950 . S
C827 C824 1.387 . S
C828 C829 1.387 . S
C828 H832 0.950 . S
C828 C837 1.390 . S
C829 C828 1.387 . S
C829 C831 1.387 . S
H830 C837 0.950 . S
C831 C829 1.387 . S
C831 C833 1.390 . S
C831 H835 0.950 . S
H832 C828 0.950 . S
C833 C831 1.390 . S
C833 C834 1.387 . S
C833 H836 0.950 . S
C834 C833 1.387 . S
C834 C837 1.387 . S
H835 C831 0.950 . S
H836 C833 0.950 . S
C837 C828 1.390 . S
C837 H830 0.950 . S
C837 C834 1.387 . S
C838 C839 1.387 . S
C838 H842 0.950 . S
C838 C847 1.390 . S
C839 C838 1.387 . S
C839 C841 1.387 . S
H840 C847 0.950 . S
C841 C839 1.387 . S
C841 C843 1.390 . S
C841 H845 0.950 . S
H842 C838 0.950 . S
C843 C841 1.390 . S
C843 C844 1.387 . S
C843 H846 0.950 . S
C844 C843 1.387 . S
C844 C847 1.387 . S
H845 C841 0.950 . S
H846 C843 0.950 . S
C847 C838 1.390 . S
C847 H840 0.950 . S
C847 C844 1.387 . S
C848 C849 1.387 . S
C848 H852 0.950 . S
C848 C857 1.390 . S
C849 C848 1.387 . S
C849 C851 1.387 . S
H850 C857 0.950 . S
C851 C849 1.387 . S
C851 C853 1.390 . S
C851 H855 0.950 . S
H852 C848 0.950 . S
C853 C851 1.390 . S
C853 C854 1.387 . S
C853 H856 0.950 . S
C854 C853 1.387 . S
C854 C857 1.387 . S
H855 C851 0.950 . S
H856 C853 0.950 . S
C857 C848 1.390 . S
C857 H850 0.950 . S
C857 C854 1.387 . S
C858 C859 1.387 . S
C858 H862 0.950 . S
C858 C867 1.390 . S
C859 C858 1.387 . S
C859 C861 1.387 . S
H860 C867 0.950 . S
C861 C859 1.387 . S
C861 C863 1.390 . S
C861 H865 0.950 . S
H862 C858 0.950 . S
C863 C861 1.390 . S
C863 C864 1.387 . S
C863 H866 0.950 . S
C864 C863 1.387 . S
C864 C867 1.387 . S
H865 C861 0.950 . S
H866 C863 0.950 . S
C867 C858 1.390 . S
C867 H860 0.950 . S
C867 C864 1.387 . S
C868 C869 1.387 . S
C868 H872 0.950 . S
C868 C877 1.390 . S
C869 C868 1.387 . S
C869 C871 1.387 . S
H870 C877 0.950 . S
C871 C869 1.387 . S
C871 C873 1.390 . S
C871 H875 0.950 . S
H872 C868 0.950 . S
C873 C871 1.390 . S
C873 C874 1.387 . S
C873 H876 0.950 . S
C874 C873 1.387 . S
C874 C877 1.387 . S
H875 C871 0.950 . S
H876 C873 0.950 . S
C877 C868 1.390 . S
C877 H870 0.950 . S
C877 C874 1.387 . S
C878 C879 1.387 . S
C878 H882 0.950 . S
C878 C887 1.390 . S
C879 C878 1.387 . S
C879 C881 1.387 . S
H880 C887 0.950 . S
C881 C879 1.387 . S
C881 C883 1.390 . S
C881 H885 0.950 . S
H882 C878 0.950 . S
C883 C881 1.390 . S
C883 C884 1.387 . S
C883 H886 0.950 . S
C884 C883 1.387 . S
C884 C887 1.387 . S
H885 C881 0.950 . S
H886 C883 0.950 . S
C887 C878 1.390 . S
C887 H880 0.950 . S
C887 C884 1.387 . S
C888 C889 1.387 . S
C888 H892 0.950 . S
C888 C897 1.390 . S
C889 C888 1.387 . S
C889 C891 1.387 . S
H890 C897 0.950 . S
C891 C889 1.387 . S
C891 C893 1.390 . S
C891 H895 0.950 . S
H892 C888 0.950 . S
C893 C891 1.390 . S
C893 C894 1.387 . S
C893 H896 0.950 . S
C894 C893 1.387 . S
C894 C897 1.387 . S
H895 C891 0.950 . S
H896 C893 0.950 . S
C897 C888 1.390 . S
C897 H890 0.950 . S
C897 C894 1.387 . S
C898 C899 1.387 . S
C898 H902 0.950 . S
C898 C907 1.390 . S
C899 C898 1.387 . S
C899 C901 1.387 . S
H900 C907 0.950 . S
C901 C899 1.387 . S
C901 C903 1.390 . S
C901 H905 0.950 . S
H902 C898 0.950 . S
C903 C901 1.390 . S
C903 C904 1.387 . S
C903 H906 0.950 . S
C904 C903 1.387 . S
C904 C907 1.387 . S
H905 C901 0.950 . S
H906 C903 0.950 . S
C907 C898 1.390 . S
C907 H900 0.950 . S
C907 C904 1.387 . S
C908 C909 1.387 . S
C908 H912 0.950 . S
C908 C917 1.390 . S
C909 C908 1.387 . S
C909 C911 1.387 . S
H910 C917 0.950 . S
C911 C909 1.387 . S
C911 C913 1.390 . S
C911 H915 0.950 . S
H912 C908 0.950 . S
C913 C911 1.390 . S
C913 C914 1.387 . S
C913 H916 0.950 . S
C914 C913 1.387 . S
C914 C917 1.387 . S
H915 C911 0.950 . S
H916 C913 0.950 . S
C917 C908 1.390 . S
C917 H910 0.950 . S
C917 C914 1.387 . S
C918 C919 1.387 . S
C918 H922 0.950 . S
C918 C927 1.390 . S
C919 C918 1.387 . S
C919 C921 1.387 . S
H920 C927 0.950 . S
C921 C919 1.387 . S
C921 C923 1.390 . S
C921 H925 0.950 . S
H922 C918 0.950 . S
C923 C921 1.390 . S
C923 C924 1.387 . S
C923 H926 0.950 . S
C924 C923 1.387 . S
C924 C927 1.387 . S
H925 C921 0.950 . S
H926 C923 0.950 . S
C927 C918 1.390 . S
C927 H920 0.950 . S
C927 C924 1.387 . S
C928 C929 1.387 . S
C928 H932 0.950 . S
C928 C937 1.390 . S
C929 C928 1.387 . S
C929 C931 1.387 . S
H930 C937 0.950 . S
C931 C929 1.387 . S
C931 C933 1.390 . S
C931 H935 0.950 . S
H932 C928 0.950 . S
C933 C931 1.390 . S
C933 C934 1.387 . S
C933 H936 0.950 . S
C934 C933 1.387 . S
C934 C937 1.387 . S
H935 C931 0.950 . S
H936 C933 0.950 . S
C937 C928 1.390 . S
C937 H930 0.950 . S
C937 C934 1.387 . S
C938 C939 1.387 . S
C938 H942 0.950 . S
C938 C947 1.390 . S
C939 C938 1.387 . S
C939 C941 1.387 . S
H940 C947 0.950 . S
C941 C939 1.387 . S
C941 C943 1.390 . S
C941 H945 0.950 . S
H942 C938 0.950 . S
C943 C941 1.390 . S
C943 C944 1.387 . S
C943 H946 0.950 . S
C944 C943 1.387 . S
C944 C947 1.387 . S
H945 C941 0.950 . S
H946 C943 0.950 . S
C947 C938 1.390 . S
C947 H940 0.950 . S
C947 C944 1.387 . S
C948 C949 1.387 1_655 S
C948 H952 0.950 . S
C948 C957 1.390 . S
C949 C948 1.387 1_455 S
C949 C951 1.387 . S
H950 C957 0.950 . S
C951 C949 1.387 . S
C951 C953 1.390 . S
C951 H955 0.950 . S
H952 C948 0.950 . S
C953 C951 1.390 . S
C953 C954 1.387 1_455 S
C953 H956 0.950 . S
C954 C953 1.387 1_655 S
C954 C957 1.387 . S
H955 C951 0.950 . S
H956 C953 0.950 . S
C957 C948 1.390 . S
C957 H950 0.950 . S
C957 C954 1.387 . S
C958 C959 1.387 . S
C958 H962 0.950 . S
C958 C967 1.390 . S
C959 C958 1.387 . S
C959 C961 1.387 . S
H960 C967 0.950 . S
C961 C959 1.387 . S
C961 C963 1.390 . S
C961 H965 0.950 . S
H962 C958 0.950 . S
C963 C961 1.390 . S
C963 C964 1.387 . S
C963 H966 0.950 . S
C964 C963 1.387 . S
C964 C967 1.387 . S
H965 C961 0.950 . S
H966 C963 0.950 . S
C967 C958 1.390 . S
C967 H960 0.950 . S
C967 C964 1.387 . S
C968 C969 1.387 . S
C968 H972 0.950 . S
C968 C977 1.390 1_545 S
C969 C968 1.387 . S
C969 C971 1.387 . S
H970 C977 0.950 . S
C971 C969 1.387 . S
C971 C973 1.390 1_545 S
C971 H975 0.950 . S
H972 C968 0.950 . S
C973 C971 1.390 1_565 S
C973 C974 1.387 . S
C973 H976 0.950 . S
C974 C973 1.387 . S
C974 C977 1.387 . S
H975 C971 0.950 . S
H976 C973 0.950 . S
C977 C968 1.390 1_565 S
C977 H970 0.950 . S
C977 C974 1.387 . S
C978 C979 1.387 1_565 S
C978 H982 0.950 . S
C978 C987 1.390 . S
C979 C978 1.387 1_545 S
C979 C981 1.387 1_556 S
H980 C987 0.950 . S
C981 C979 1.387 1_554 S
C981 C983 1.390 . S
C981 H985 0.950 . S
H982 C978 0.950 . S
C983 C981 1.390 . S
C983 C984 1.387 1_545 S
C983 H986 0.950 . S
C984 C983 1.387 1_565 S
C984 C987 1.387 1_554 S
H985 C981 0.950 . S
H986 C983 0.950 . S
C987 C978 1.390 . S
C987 H980 0.950 . S
C987 C984 1.387 1_556 S
C988 C989 1.387 1_655 S
C988 H992 0.950 . S
C988 C997 1.390 1_554 S
C989 C988 1.387 1_455 S
C989 C991 1.387 . S
H990 C997 0.950 . S
C991 C989 1.387 . S
C991 C993 1.390 1_554 S
C991 H995 0.950 . S
H992 C988 0.950 . S
C993 C991 1.390 1_556 S
C993 C994 1.387 1_455 S
C993 H996 0.950 . S
C994 C993 1.387 1_655 S
C994 C997 1.387 . S
H995 C991 0.950 . S
H996 C993 0.950 . S
C997 C988 1.390 1_556 S
C997 H990 0.950 . S
C997 C994 1.387 . S
C998 C999 1.387 1_556 S
C998 H1002 0.950 . S
C998 C1007 1.390 . S
C999 C998 1.387 1_554 S
C999 C1001 1.387 . S
H1000 C1007 0.950 . S
C1001 C999 1.387 . S
C1001 C1003 1.390 . S
C1001 H1005 0.950 . S
H1002 C998 0.950 . S
C1003 C1001 1.390 . S
C1003 C1004 1.387 1_554 S
C1003 H1006 0.950 . S
C1004 C1003 1.387 1_556 S
C1004 C1007 1.387 . S
H1005 C1001 0.950 . S
H1006 C1003 0.950 . S
C1007 C998 1.390 . S
C1007 H1000 0.950 . S
C1007 C1004 1.387 . S
C1008 C1009 1.387 . S
C1008 H1012 0.950 . S
C1008 C1017 1.390 . S
C1009 C1008 1.387 . S
C1009 C1011 1.387 . S
H1010 C1017 0.950 . S
C1011 C1009 1.387 . S
C1011 C1013 1.390 . S
C1011 H1015 0.950 . S
H1012 C1008 0.950 . S
C1013 C1011 1.390 . S
C1013 C1014 1.387 . S
C1013 H1016 0.950 . S
C1014 C1013 1.387 . S
C1014 C1017 1.387 . S
H1015 C1011 0.950 . S
H1016 C1013 0.950 . S
C1017 C1008 1.390 . S
C1017 H1010 0.950 . S
C1017 C1014 1.387 . S
C1018 C1019 1.387 . S
C1018 H1022 0.950 . S
C1018 C1027 1.390 . S
C1019 C1018 1.387 . S
C1019 C1021 1.387 . S
H1020 C1027 0.950 . S
C1021 C1019 1.387 . S
C1021 C1023 1.390 . S
C1021 H1025 0.950 . S
H1022 C1018 0.950 . S
C1023 C1021 1.390 . S
C1023 C1024 1.387 . S
C1023 H1026 0.950 . S
C1024 C1023 1.387 . S
C1024 C1027 1.387 . S
H1025 C1021 0.950 . S
H1026 C1023 0.950 . S
C1027 C1018 1.390 . S
C1027 H1020 0.950 . S
C1027 C1024 1.387 . S
C1028 C1029 1.387 . S
C1028 H1032 0.950 . S
C1028 C1037 1.390 . S
C1029 C1028 1.387 . S
C1029 C1031 1.387 . S
H1030 C1037 0.950 . S
C1031 C1029 1.387 . S
C1031 C1033 1.390 . S
C1031 H1035 0.950 . S
H1032 C1028 0.950 . S
C1033 C1031 1.390 . S
C1033 C1034 1.387 . S
C1033 H1036 0.950 . S
C1034 C1033 1.387 . S
C1034 C1037 1.387 . S
H1035 C1031 0.950 . S
H1036 C1033 0.950 . S
C1037 C1028 1.390 . S
C1037 H1030 0.950 . S
C1037 C1034 1.387 . S
C1038 C1039 1.387 . S
C1038 H1042 0.950 . S
C1038 C1047 1.390 . S
C1039 C1038 1.387 . S
C1039 C1041 1.387 . S
H1040 C1047 0.950 . S
C1041 C1039 1.387 . S
C1041 C1043 1.390 . S
C1041 H1045 0.950 . S
H1042 C1038 0.950 . S
C1043 C1041 1.390 . S
C1043 C1044 1.387 . S
C1043 H1046 0.950 . S
C1044 C1043 1.387 . S
C1044 C1047 1.387 . S
H1045 C1041 0.950 . S
H1046 C1043 0.950 . S
C1047 C1038 1.390 . S
C1047 H1040 0.950 . S
C1047 C1044 1.387 . S
C1048 C1049 1.387 . S
C1048 H1052 0.950 . S
C1048 C1057 1.390 . S
C1049 C1048 1.387 . S
C1049 C1051 1.387 . S
H1050 C1057 0.950 . S
C1051 C1049 1.387 . S
C1051 C1053 1.390 . S
C1051 H1055 0.950 . S
H1052 C1048 0.950 . S
C1053 C1051 1.390 . S
C1053 C1054 1.387 . S
C1053 H1056 0.950 . S
C1054 C1053 1.387 . S
C1054 C1057 1.387 . S
H1055 C1051 0.950 . S
H1056 C1053 0.950 . S
C1057 C1048 1.390 . S
C1057 H1050 0.950 . S
C1057 C1054 1.387 . S
C1058 C1059 1.387 . S
C1058 H1062 0.950 . S
C1058 C1067 1.390 . S
C1059 C1058 1.387 . S
C1059 C1061 1.387 . S
H1060 C1067 0.950 . S
C1061 C1059 1.387 . S
C1061 C1063 1.390 . S
C1061 H1065 0.950 . S
H1062 C1058 0.950 . S
C1063 C1061 1.390 . S
C1063 C1064 1.387 . S
C1063 H1066 0.950 . S
C1064 C1063 1.387 . S
C1064 C1067 1.387 . S
H1065 C1061 0.950 . S
H1066 C1063 0.950 . S
C1067 C1058 1.390 . S
C1067 H1060 0.950 . S
C1067 C1064 1.387 . S
C1068 C1069 1.387 . S
C1068 H1072 0.950 . S
C1068 C1077 1.390 . S
C1069 C1068 1.387 . S
C1069 C1071 1.387 . S
H1070 C1077 0.950 . S
C1071 C1069 1.387 . S
C1071 C1073 1.390 . S
C1071 H1075 0.950 . S
H1072 C1068 0.950 . S
C1073 C1071 1.390 . S
C1073 C1074 1.387 . S
C1073 H1076 0.950 . S
C1074 C1073 1.387 . S
C1074 C1077 1.387 . S
H1075 C1071 0.950 . S
H1076 C1073 0.950 . S
C1077 C1068 1.390 . S
C1077 H1070 0.950 . S
C1077 C1074 1.387 . S
C1078 C1079 1.387 . S
C1078 H1082 0.950 . S
C1078 C1087 1.390 . S
C1079 C1078 1.387 . S
C1079 C1081 1.387 . S
H1080 C1087 0.950 . S
C1081 C1079 1.387 . S
C1081 C1083 1.390 . S
C1081 H1085 0.950 . S
H1082 C1078 0.950 . S
C1083 C1081 1.390 . S
C1083 C1084 1.387 . S
C1083 H1086 0.950 . S
C1084 C1083 1.387 . S
C1084 C1087 1.387 . S
H1085 C1081 0.950 . S
H1086 C1083 0.950 . S
C1087 C1078 1.390 . S
C1087 H1080 0.950 . S
C1087 C1084 1.387 . S
C1088 C1089 1.387 . S
C1088 H1092 0.950 . S
C1088 C1097 1.390 . S
C1089 C1088 1.387 . S
C1089 C1091 1.387 . S
H1090 C1097 0.950 . S
C1091 C1089 1.387 . S
C1091 C1093 1.390 . S
C1091 H1095 0.950 . S
H1092 C1088 0.950 . S
C1093 C1091 1.390 . S
C1093 C1094 1.387 . S
C1093 H1096 0.950 . S
C1094 C1093 1.387 . S
C1094 C1097 1.387 . S
H1095 C1091 0.950 . S
H1096 C1093 0.950 . S
C1097 C1088 1.390 . S
C1097 H1090 0.950 . S
C1097 C1094 1.387 . S
C1098 C1099 1.387 . S
C1098 H1102 0.950 . S
C1098 C1107 1.390 . S
C1099 C1098 1.387 . S
C1099 C1101 1.387 . S
H1100 C1107 0.950 . S
C1101 C1099 1.387 . S
C1101 C1103 1.390 . S
C1101 H1105 0.950 . S
H1102 C1098 0.950 . S
C1103 C1101 1.390 . S
C1103 C1104 1.387 . S
C1103 H1106 0.950 . S
C1104 C1103 1.387 . S
C1104 C1107 1.387 . S
H1105 C1101 0.950 . S
H1106 C1103 0.950 . S
C1107 C1098 1.390 . S
C1107 H1100 0.950 . S
C1107 C1104 1.387 . S
C1108 C1109 1.387 . S
C1108 H1112 0.950 . S
C1108 C1117 1.390 . S
C1109 C1108 1.387 . S
C1109 C1111 1.387 . S
H1110 C1117 0.950 . S
C1111 C1109 1.387 . S
C1111 C1113 1.390 . S
C1111 H1115 0.950 . S
H1112 C1108 0.950 . S
C1113 C1111 1.390 . S
C1113 C1114 1.387 . S
C1113 H1116 0.950 . S
C1114 C1113 1.387 . S
C1114 C1117 1.387 . S
H1115 C1111 0.950 . S
H1116 C1113 0.950 . S
C1117 C1108 1.390 . S
C1117 H1110 0.950 . S
C1117 C1114 1.387 . S
C1118 C1119 1.387 . S
C1118 H1122 0.950 . S
C1118 C1127 1.390 . S
C1119 C1118 1.387 . S
C1119 C1121 1.387 . S
H1120 C1127 0.950 . S
C1121 C1119 1.387 . S
C1121 C1123 1.390 . S
C1121 H1125 0.950 . S
H1122 C1118 0.950 . S
C1123 C1121 1.390 . S
C1123 C1124 1.387 . S
C1123 H1126 0.950 . S
C1124 C1123 1.387 . S
C1124 C1127 1.387 . S
H1125 C1121 0.950 . S
H1126 C1123 0.950 . S
C1127 C1118 1.390 . S
C1127 H1120 0.950 . S
C1127 C1124 1.387 . S
C1128 C1129 1.387 . S
C1128 H1132 0.950 . S
C1128 C1137 1.390 . S
C1129 C1128 1.387 . S
C1129 C1131 1.387 . S
H1130 C1137 0.950 . S
C1131 C1129 1.387 . S
C1131 C1133 1.390 . S
C1131 H1135 0.950 . S
H1132 C1128 0.950 . S
C1133 C1131 1.390 . S
C1133 C1134 1.387 . S
C1133 H1136 0.950 . S
C1134 C1133 1.387 . S
C1134 C1137 1.387 . S
H1135 C1131 0.950 . S
H1136 C1133 0.950 . S
C1137 C1128 1.390 . S
C1137 H1130 0.950 . S
C1137 C1134 1.387 . S
C1138 C1139 1.387 . S
C1138 H1142 0.950 . S
C1138 C1147 1.390 1_545 S
C1139 C1138 1.387 . S
C1139 C1141 1.387 . S
H1140 C1147 0.950 . S
C1141 C1139 1.387 . S
C1141 C1143 1.390 1_545 S
C1141 H1145 0.950 . S
H1142 C1138 0.950 . S
C1143 C1141 1.390 1_565 S
C1143 C1144 1.387 . S
C1143 H1146 0.950 . S
C1144 C1143 1.387 . S
C1144 C1147 1.387 . S
H1145 C1141 0.950 . S
H1146 C1143 0.950 . S
C1147 C1138 1.390 1_565 S
C1147 H1140 0.950 . S
C1147 C1144 1.387 . S
C1148 C1149 1.387 . S
C1148 H1152 0.950 . S
C1148 C1157 1.392 1_655 S
C1149 C1148 1.387 . S
C1149 C1151 1.387 . S
H1150 C1157 0.948 . S
C1151 C1149 1.387 . S
C1151 C1153 1.393 1_655 S
C1151 H1155 0.948 . S
H1152 C1148 0.950 . S
C1153 C1151 1.393 1_455 S
C1153 C1154 1.387 . S
C1153 H1156 0.950 . S
C1154 C1153 1.387 . S
C1154 C1157 1.387 . S
H1155 C1151 0.948 . S
H1156 C1153 0.950 . S
C1157 C1148 1.392 1_455 S
C1157 H1150 0.948 . S
C1157 C1154 1.387 . S
C1158 C1159 1.387 . S
C1158 H1162 0.950 . S
C1158 C1167 1.390 . S
C1159 C1158 1.387 . S
C1159 C1161 1.387 . S
H1160 C1167 0.950 . S
C1161 C1159 1.387 . S
C1161 C1163 1.390 . S
C1161 H1165 0.950 . S
H1162 C1158 0.950 . S
C1163 C1161 1.390 . S
C1163 C1164 1.387 . S
C1163 H1166 0.950 . S
C1164 C1163 1.387 . S
C1164 C1167 1.387 . S
H1165 C1161 0.950 . S
H1166 C1163 0.950 . S
C1167 C1158 1.390 . S
C1167 H1160 0.950 . S
C1167 C1164 1.387 . S
C1168 C1169 1.387 . S
C1168 H1172 0.950 . S
C1168 C1177 1.390 1_545 S
C1169 C1168 1.387 . S
C1169 C1171 1.387 . S
H1170 C1177 0.950 . S
C1171 C1169 1.387 . S
C1171 C1173 1.390 1_545 S
C1171 H1175 0.950 . S
H1172 C1168 0.950 . S
C1173 C1171 1.390 1_565 S
C1173 C1174 1.387 . S
C1173 H1176 0.950 . S
C1174 C1173 1.387 . S
C1174 C1177 1.387 . S
H1175 C1171 0.950 . S
H1176 C1173 0.950 . S
C1177 C1168 1.390 1_565 S
C1177 H1170 0.950 . S
C1177 C1174 1.387 . S
C1178 C1179 1.387 . S
C1178 H1182 0.950 . S
C1178 C1187 1.390 . S
C1179 C1178 1.387 . S
C1179 C1181 1.387 1_455 S
H1180 C1187 0.950 . S
C1181 C1179 1.387 1_655 S
C1181 C1183 1.390 . S
C1181 H1185 0.950 . S
H1182 C1178 0.950 . S
C1183 C1181 1.390 . S
C1183 C1184 1.387 . S
C1183 H1186 0.950 . S
C1184 C1183 1.387 . S
C1184 C1187 1.387 1_655 S
H1185 C1181 0.950 . S
H1186 C1183 0.950 . S
C1187 C1178 1.390 . S
C1187 H1180 0.950 . S
C1187 C1184 1.387 1_455 S
C469 C70 1.242 . S
C474 C5 1.242 . S
C479 C44 1.241 . S
C484 C18 1.240 . S
C489 C29 1.241 . S
C494 C57 1.241 . S
C499 C83 1.240 . S
C504 C146 1.240 . S
C509 C94 1.241 . S
C514 C120 1.241 . S
C519 C135 1.242 . S
C524 C109 1.241 . S
C529 C159 1.242 1_655 S
C534 C224 1.242 . S
C539 C172 1.242 . S
C544 C200 1.241 . S
C549 C213 1.241 . S
C554 C187 1.241 1_545 S
C559 C304 1.240 . S
C564 C237 1.240 . S
C569 C278 1.240 1_545 S
C574 C252 1.240 . S
C579 C263 1.241 . S
C584 C289 1.241 1_655 S
C589 C382 1.242 . S
C594 C315 1.242 . S
C599 C356 1.241 1_565 S
C604 C328 1.241 . S
C609 C341 1.241 . S
C614 C367 1.241 1_455 S
C619 C460 1.242 . S
C624 C393 1.242 1_455 S
C629 C434 1.241 . S
C634 C406 1.240 . S
C639 C447 1.242 . S
C644 C419 1.241 1_565 S
C649 C218 1.659 . S
C654 C10 1.658 . S
C659 C225 1.655 . S
C664 C23 1.655 . S
C669 C205 1.655 . S
C674 C30 1.655 . S
C679 C49 1.658 . S
C684 C342 1.658 1_554 S
C689 C62 1.655 . S
C694 C316 1.655 1_554 S
C699 C75 1.656 . S
C704 C329 1.658 1_554 S
C709 C88 1.656 . S
C714 C452 1.655 . S
C719 C465 1.658 . S
C724 C95 1.659 . S
C729 C439 1.655 . S
C734 C114 1.655 . S
C739 C264 1.658 1_556 S
C744 C121 1.658 . S
C749 C238 1.659 1_556 S
C754 C140 1.659 . S
C759 C147 1.658 . S
C764 C257 1.659 1_556 S
C769 C160 1.657 . S
C774 C368 1.658 . S
C779 C387 1.655 . S
C784 C173 1.654 . S
C789 C361 1.659 . S
C794 C192 1.658 . S
C799 C283 1.658 . S
C804 C420 1.658 . S
C809 C394 1.656 . S
C814 C290 1.657 . S
C819 C309 1.654 . S
C824 C407 1.655 . S
C829 C244 1.642 . S
C834 C4 1.642 . S
C839 C251 1.643 . S
C844 C17 1.643 . S
C849 C36 1.642 . S
C854 C270 1.642 . S
C859 C43 1.642 . S
C864 C433 1.642 . S
C869 C446 1.643 . S
C874 C56 1.643 . S
C879 C459 1.642 . S
C884 C69 1.642 . S
C889 C82 1.643 . S
C894 C322 1.643 . S
C899 C101 1.643 . S
C904 C335 1.643 . S
C909 C348 1.642 . S
C914 C108 1.642 . S
C919 C127 1.643 . S
C924 C199 1.643 . S
C929 C134 1.643 . S
C934 C212 1.643 . S
C939 C231 1.642 . S
C944 C153 1.642 . S
C949 C166 1.643 . S
C954 C400 1.643 . S
C959 C179 1.643 . S
C964 C413 1.643 . S
C969 C426 1.642 . S
C974 C186 1.642 . S
C979 C355 1.642 . S
C984 C277 1.642 . S
C989 C296 1.643 . S
C994 C374 1.643 . S
C999 C303 1.642 . S
C1004 C381 1.642 . S
C1009 C354 1.639 1_554 S
C1014 C3 1.638 . S
C1019 C16 1.639 . S
C1024 C369 1.639 1_554 S
C1029 C380 1.639 1_554 S
C1034 C31 1.638 . S
C1039 C42 1.640 . S
C1044 C161 1.638 . S
C1049 C174 1.638 . S
C1054 C55 1.638 . S
C1059 C185 1.639 . S
C1064 C68 1.637 . S
C1069 C81 1.638 . S
C1074 C276 1.640 1_556 S
C1079 C291 1.639 1_556 S
C1084 C96 1.639 . S
C1089 C107 1.637 . S
C1094 C302 1.638 1_556 S
C1099 C122 1.639 . S
C1104 C395 1.638 . S
C1109 C133 1.638 . S
C1114 C408 1.638 . S
C1119 C421 1.638 . S
C1124 C148 1.639 . S
C1129 C198 1.639 . S
C1134 C317 1.638 . S
C1139 C211 1.639 . S
C1144 C330 1.638 . S
C1149 C226 1.637 . S
C1154 C343 1.638 . S
C1159 C239 1.637 . S
C1164 C432 1.639 . S
C1169 C250 1.638 . S
C1174 C445 1.638 . S
C1179 C458 1.639 . S
C1184 C265 1.638 . S
