# Generated by pormake.
# Topology cag, (4)-cn, num edge types: 1
# Building blocks:
#     Node 0, Type 0, BuildingBlock: ICAMEG_clean_sbu_1, # of connection points: 4
#     Node 1, Type 0, BuildingBlock: ICAMEG_clean_sbu_1, # of connection points: 4
#     Node 2, Type 0, BuildingBlock: ICAMEG_clean_sbu_1, # of connection points: 4
#     Node 3, Type 0, BuildingBlock: ICAMEG_clean_sbu_1, # of connection points: 4
#     Node 4, Type 0, BuildingBlock: ICAMEG_clean_sbu_1, # of connection points: 4
#     Node 5, Type 0, BuildingBlock: ICAMEG_clean_sbu_1, # of connection points: 4
#     Node 6, Type 0, BuildingBlock: ICAMEG_clean_sbu_1, # of connection points: 4
#     Node 7, Type 0, BuildingBlock: ICAMEG_clean_sbu_1, # of connection points: 4
#     Node 8, Type 0, BuildingBlock: ICAMEG_clean_sbu_1, # of connection points: 4
#     Node 9, Type 0, BuildingBlock: ICAMEG_clean_sbu_1, # of connection points: 4
#     Node 10, Type 0, BuildingBlock: ICAMEG_clean_sbu_1, # of connection points: 4
#     Node 11, Type 0, BuildingBlock: ICAMEG_clean_sbu_1, # of connection points: 4
#     Node 12, Type 0, BuildingBlock: ICAMEG_clean_sbu_1, # of connection points: 4
#     Node 13, Type 0, BuildingBlock: ICAMEG_clean_sbu_1, # of connection points: 4
#     Node 14, Type 0, BuildingBlock: ICAMEG_clean_sbu_1, # of connection points: 4
#     Node 15, Type 0, BuildingBlock: ICAMEG_clean_sbu_1, # of connection points: 4
#     Edge 16, Type (0, 0), BuildingBlock: TEMPAE_clean_linker_10, # of connection points: 2
#     Edge 17, Type (0, 0), BuildingBlock: TEMPAE_clean_linker_10, # of connection points: 2
#     Edge 18, Type (0, 0), BuildingBlock: TEMPAE_clean_linker_10, # of connection points: 2
#     Edge 19, Type (0, 0), BuildingBlock: TEMPAE_clean_linker_10, # of connection points: 2
#     Edge 20, Type (0, 0), BuildingBlock: TEMPAE_clean_linker_10, # of connection points: 2
#     Edge 21, Type (0, 0), BuildingBlock: TEMPAE_clean_linker_10, # of connection points: 2
#     Edge 22, Type (0, 0), BuildingBlock: TEMPAE_clean_linker_10, # of connection points: 2
#     Edge 23, Type (0, 0), BuildingBlock: TEMPAE_clean_linker_10, # of connection points: 2
#     Edge 24, Type (0, 0), BuildingBlock: TEMPAE_clean_linker_10, # of connection points: 2
#     Edge 25, Type (0, 0), BuildingBlock: TEMPAE_clean_linker_10, # of connection points: 2
#     Edge 26, Type (0, 0), BuildingBlock: TEMPAE_clean_linker_10, # of connection points: 2
#     Edge 27, Type (0, 0), BuildingBlock: TEMPAE_clean_linker_10, # of connection points: 2
#     Edge 28, Type (0, 0), BuildingBlock: TEMPAE_clean_linker_10, # of connection points: 2
#     Edge 29, Type (0, 0), BuildingBlock: TEMPAE_clean_linker_10, # of connection points: 2
#     Edge 30, Type (0, 0), BuildingBlock: TEMPAE_clean_linker_10, # of connection points: 2
#     Edge 31, Type (0, 0), BuildingBlock: TEMPAE_clean_linker_10, # of connection points: 2
#     Edge 32, Type (0, 0), BuildingBlock: TEMPAE_clean_linker_10, # of connection points: 2
#     Edge 33, Type (0, 0), BuildingBlock: TEMPAE_clean_linker_10, # of connection points: 2
#     Edge 34, Type (0, 0), BuildingBlock: TEMPAE_clean_linker_10, # of connection points: 2
#     Edge 35, Type (0, 0), BuildingBlock: TEMPAE_clean_linker_10, # of connection points: 2
#     Edge 36, Type (0, 0), BuildingBlock: TEMPAE_clean_linker_10, # of connection points: 2
#     Edge 37, Type (0, 0), BuildingBlock: TEMPAE_clean_linker_10, # of connection points: 2
#     Edge 38, Type (0, 0), BuildingBlock: TEMPAE_clean_linker_10, # of connection points: 2
#     Edge 39, Type (0, 0), BuildingBlock: TEMPAE_clean_linker_10, # of connection points: 2
#     Edge 40, Type (0, 0), BuildingBlock: TEMPAE_clean_linker_10, # of connection points: 2
#     Edge 41, Type (0, 0), BuildingBlock: TEMPAE_clean_linker_10, # of connection points: 2
#     Edge 42, Type (0, 0), BuildingBlock: TEMPAE_clean_linker_10, # of connection points: 2
#     Edge 43, Type (0, 0), BuildingBlock: TEMPAE_clean_linker_10, # of connection points: 2
#     Edge 44, Type (0, 0), BuildingBlock: TEMPAE_clean_linker_10, # of connection points: 2
#     Edge 45, Type (0, 0), BuildingBlock: TEMPAE_clean_linker_10, # of connection points: 2
#     Edge 46, Type (0, 0), BuildingBlock: TEMPAE_clean_linker_10, # of connection points: 2
#     Edge 47, Type (0, 0), BuildingBlock: TEMPAE_clean_linker_10, # of connection points: 2
# Relax obj value: 0.157
# Max RMSD: 0.212
# Mean RMSD: 0.208
data_MOF--net-cag--node1-ICAMEG_clean_sbu_1--edge1-TEMPAE_clean_linker_10
_symmetry_space_group_name_H-M    P1
_symmetry_Int_Tables_number       1
_symmetry_cell_setting            triclinic
loop_
_symmetry_equiv_pos_as_xyz
'x, y, z'
_cell_length_a     45.211237
_cell_length_b     52.536343
_cell_length_c     44.887665
_cell_angle_alpha  90.038795
_cell_angle_beta   89.998921
_cell_angle_gamma 89.986873
loop_
_atom_site_label
_atom_site_type_symbol
_atom_site_fract_x
_atom_site_fract_y
_atom_site_fract_z
_atom_type_partial_charge
Co0 Co 0.35631 0.13989 0.05965 0.0
Co1 Co 0.36396 0.11527 0.12883 0.0
O2 O 0.34435 0.13915 0.10164 0.0
C3 C 0.35284 0.1964 0.07185 0.0
O4 O 0.37065 0.19429 0.09484 0.0
C5 C 0.31293 0.09442 0.16335 0.0
O6 O 0.31922 0.07177 0.15272 0.0
O7 O 0.3502 0.08639 0.10298 0.0
O8 O 0.36652 0.10276 0.06006 0.0
H9 H 0.4257 0.03853 0.15324 0.0
H10 H 0.29692 0.15841 0.07705 0.0
O11 O 0.3455 0.1768 0.0569 0.0
H12 H 0.27875 0.09041 1.00348 0.0
H13 H 0.34812 0.16581 0.95188 0.0
H14 H 0.40727 0.1189 0.02602 0.0
H15 H 0.32964 0.10223 0.01744 0.0
H16 H 0.33212 0.16373 1.00432 0.0
O17 O 0.32685 0.11394 0.15383 0.0
H18 H 0.40151 0.06967 0.12018 0.0
H19 H 0.36736 0.10927 0.19516 0.0
H20 H 0.4239 0.12025 0.97376 0.0
H21 H 0.2456 0.1474 0.06342 0.0
H22 H 0.39426 0.14386 0.93627 0.0
H23 H 0.23628 0.11314 0.02644 0.0
O24 O 0.39741 0.14842 0.0723 0.0
H25 H 0.35161 0.19866 0.18228 0.0
H26 H 0.42184 0.1304 0.15606 0.0
H27 H 0.43918 0.16716 0.18538 0.0
H28 H 0.40393 0.20158 0.19879 0.0
H29 H 0.33525 0.1617 0.15267 0.0
H30 H 0.39096 0.07846 0.22903 0.0
H31 H 0.42045 0.04278 0.2081 0.0
O32 O 0.40208 0.11706 0.10568 0.0
C33 C 0.35735 0.08404 0.07556 0.0
C34 C 0.41286 0.05396 0.16263 0.0
C35 C 0.39336 0.07636 0.20516 0.0
N36 N 0.38286 0.09121 0.15568 0.0
C37 C 0.39909 0.07165 0.14401 0.0
C38 C 0.37995 0.09371 0.18586 0.0
C39 C 0.40991 0.05636 0.19341 0.0
C40 C 0.29302 0.14359 0.06079 0.0
N41 N 0.31625 0.13107 0.04799 0.0
C42 C 0.26393 0.1374 0.05322 0.0
C43 C 0.25871 0.11816 0.03248 0.0
C44 C 0.28252 0.1054 0.0196 0.0
C45 C 0.3113 0.11214 0.02766 0.0
C46 C 0.36124 0.15548 0.96802 0.0
C47 C 0.39418 0.12915 0.00986 0.0
C48 C 0.35236 0.15433 0.99779 0.0
N49 N 0.36872 0.14119 0.01827 0.0
C50 C 0.40374 0.12988 0.98028 0.0
C51 C 0.38711 0.14314 0.95926 0.0
C52 C 0.4133 0.13406 0.08874 0.0
C53 C 0.36716 0.18374 0.17667 0.0
C54 C 0.40636 0.14534 0.16169 0.0
C55 C 0.41631 0.16608 0.17837 0.0
C56 C 0.39652 0.18538 0.18589 0.0
N57 N 0.37748 0.1438 0.15281 0.0
C58 C 0.358 0.16272 0.15999 0.0
Co59 Co 0.15379 0.87165 0.56628 0.0
Co60 Co 0.14455 0.90567 0.6301 0.0
O61 O 0.16377 0.87738 0.60851 0.0
C62 C 0.16762 0.8187 0.59062 0.0
O63 O 0.17263 0.8273 0.6176 0.0
C64 C 0.20517 0.89986 0.65937 0.0
O65 O 0.21434 0.88416 0.63858 0.0
O66 O 0.1619 0.93008 0.60074 0.0
O67 O 0.14753 0.90918 0.55981 0.0
H68 H 0.08643 0.98709 0.63618 0.0
H69 H 0.21174 0.85303 0.59008 0.0
O70 O 0.15974 0.83374 0.56981 0.0
H71 H 0.23697 0.90781 0.50481 0.0
H72 H 0.16327 0.83125 0.46483 0.0
H73 H 0.10675 0.89171 0.5267 0.0
H74 H 0.18496 0.90106 0.51897 0.0
H75 H 0.17734 0.83894 0.51712 0.0
O76 O 0.17969 0.91017 0.65746 0.0
H77 H 0.10992 0.95071 0.6108 0.0
H78 H 0.13947 0.92159 0.69391 0.0
H79 H 0.09216 0.88481 0.4744 0.0
H80 H 0.2639 0.85895 0.57644 0.0
H81 H 0.12049 0.85437 0.44308 0.0
H82 H 0.27692 0.88656 0.53352 0.0
O83 O 0.11164 0.86717 0.5779 0.0
H84 H 0.14573 0.82963 0.69839 0.0
H85 H 0.08441 0.89833 0.65626 0.0
H86 H 0.06193 0.86746 0.69072 0.0
H87 H 0.09267 0.83284 0.7122 0.0
H88 H 0.1672 0.86064 0.66355 0.0
H89 H 0.11661 0.95783 0.72013 0.0
H90 H 0.08972 0.99084 0.69124 0.0
O91 O 0.10778 0.90258 0.60506 0.0
C92 C 0.15659 0.92936 0.57279 0.0
C93 C 0.09806 0.97281 0.64902 0.0
C94 C 0.11503 0.95641 0.69612 0.0
N95 N 0.12605 0.93399 0.65081 0.0
C96 C 0.11139 0.95214 0.63477 0.0
C97 C 0.12806 0.93599 0.68112 0.0
C98 C 0.09993 0.97492 0.67991 0.0
C99 C 0.21699 0.86475 0.57116 0.0
N100 N 0.19508 0.87629 0.55516 0.0
C101 C 0.24669 0.86818 0.56363 0.0
C102 C 0.25399 0.88371 0.53958 0.0
C103 C 0.2316 0.89563 0.52348 0.0
C104 C 0.20214 0.89173 0.53166 0.0
C105 C 0.15078 0.84459 0.47824 0.0
C106 C 0.11932 0.87856 0.51318 0.0
C107 C 0.15858 0.84897 0.5079 0.0
N108 N 0.143 0.86591 0.52493 0.0
C109 C 0.11089 0.87468 0.48359 0.0
C110 C 0.12678 0.85758 0.46604 0.0
C111 C 0.09609 0.88399 0.59107 0.0
C112 C 0.13214 0.84471 0.68932 0.0
C113 C 0.098 0.88332 0.66542 0.0
C114 C 0.08511 0.8659 0.68498 0.0
C115 C 0.10236 0.84649 0.69702 0.0
N116 N 0.1273 0.88156 0.65805 0.0
C117 C 0.14425 0.86246 0.66965 0.0
Co118 Co 0.3584 0.8671 0.9522 0.0
Co119 Co 0.36747 0.90322 0.89001 0.0
O120 O 0.34826 0.87426 0.91033 0.0
C121 C 0.34433 0.81505 0.92548 0.0
O122 O 0.33919 0.82451 0.89893 0.0
C123 C 0.3067 0.89839 0.86088 0.0
O124 O 0.29759 0.88228 0.88123 0.0
O125 O 0.35034 0.92668 0.9206 0.0
O126 O 0.36473 0.90434 0.9604 0.0
H127 H 0.42565 0.9847 0.88751 0.0
H128 H 0.3003 0.84939 0.92782 0.0
O129 O 0.35238 0.82939 0.9469 0.0
H130 H 0.2756 0.90117 0.01585 0.0
H131 H 0.34937 0.82334 0.05169 0.0
H132 H 0.40566 0.88576 0.99246 0.0
H133 H 0.32751 0.89487 1.00108 0.0
H134 H 0.33506 0.83278 0.99987 0.0
O135 O 0.33221 0.90862 0.86302 0.0
H136 H 0.40225 0.94753 0.91126 0.0
H137 H 0.37231 0.92123 0.82697 0.0
H138 H 0.42049 0.87711 0.04432 0.0
H139 H 0.24822 0.85488 0.94203 0.0
H140 H 0.39227 0.84568 0.07431 0.0
H141 H 0.23547 0.88098 0.98635 0.0
O142 O 0.40048 0.86293 0.94015 0.0
H143 H 0.36581 0.82946 0.81825 0.0
H144 H 0.42745 0.89667 0.86318 0.0
H145 H 0.44971 0.86692 0.8272 0.0
H146 H 0.41881 0.83307 0.8043 0.0
H147 H 0.34457 0.85933 0.85462 0.0
H148 H 0.3951 0.95828 0.80238 0.0
H149 H 0.42214 0.99029 0.83268 0.0
O150 O 0.40433 0.89922 0.91471 0.0
C151 C 0.35563 0.92498 0.9485 0.0
C152 C 0.41395 0.97088 0.87406 0.0
C153 C 0.39677 0.95607 0.82629 0.0
N154 N 0.38592 0.93217 0.87056 0.0
C155 C 0.40067 0.94975 0.88738 0.0
C156 C 0.38378 0.93518 0.84038 0.0
C157 C 0.41196 0.97401 0.8433 0.0
C158 C 0.29517 0.86045 0.94732 0.0
N159 N 0.31718 0.87142 0.96374 0.0
C160 C 0.26551 0.86364 0.95519 0.0
C161 C 0.25836 0.87832 0.98001 0.0
C162 C 0.28085 0.88965 0.99656 0.0
C163 C 0.31026 0.88602 0.98802 0.0
C164 C 0.36181 0.8371 0.03887 0.0
C165 C 0.39315 0.87217 1.0054 0.0
C166 C 0.35387 0.84248 0.00947 0.0
N167 N 0.36939 0.85995 0.99318 0.0
C168 C 0.4017 0.8673 0.03474 0.0
C169 C 0.38588 0.84965 0.05155 0.0
C170 C 0.41602 0.88009 0.92764 0.0
C171 C 0.37948 0.84421 0.82794 0.0
C172 C 0.41379 0.88198 0.85342 0.0
C173 C 0.42656 0.8652 0.83299 0.0
C174 C 0.40922 0.84622 0.82016 0.0
N175 N 0.38453 0.88001 0.86086 0.0
C176 C 0.36749 0.86132 0.84849 0.0
Co177 Co 0.15156 0.14712 0.45746 0.0
Co178 Co 0.14787 0.11614 0.39118 0.0
O179 O 0.16479 0.14334 0.41603 0.0
C180 C 0.1673 0.20078 0.43717 0.0
O181 O 0.17534 0.19289 0.41065 0.0
C182 C 0.20122 0.0964 0.35925 0.0
O183 O 0.19676 0.0741 0.37166 0.0
O184 O 0.16357 0.0905 0.4202 0.0
O185 O 0.1458 0.10932 0.46124 0.0
H186 H 0.09417 0.03365 0.37428 0.0
H187 H 0.21126 0.16563 0.43781 0.0
O188 O 0.15702 0.18528 0.4564 0.0
H189 H 0.23019 0.11035 0.52425 0.0
H190 H 0.152 0.18365 0.56134 0.0
H191 H 0.10228 0.12459 0.49216 0.0
H192 H 0.17938 0.11709 0.50626 0.0
H193 H 0.17026 0.1783 0.50997 0.0
O194 O 0.18552 0.11548 0.36703 0.0
H195 H 0.11464 0.06884 0.40418 0.0
H196 H 0.14627 0.10481 0.3257 0.0
H197 H 0.08353 0.12913 0.54346 0.0
H198 H 0.26221 0.1598 0.45538 0.0
H199 H 0.10843 0.15885 0.57845 0.0
H200 H 0.27208 0.13195 0.49894 0.0
O201 O 0.11026 0.15131 0.44282 0.0
H202 H 0.15397 0.19471 0.32763 0.0
H203 H 0.0892 0.12518 0.362 0.0
H204 H 0.06921 0.15788 0.32824 0.0
H205 H 0.1017 0.19292 0.3107 0.0
H206 H 0.17297 0.16179 0.36174 0.0
H207 H 0.12634 0.06993 0.29498 0.0
H208 H 0.1 0.03401 0.31926 0.0
O209 O 0.10919 0.11697 0.41347 0.0
C210 C 0.15631 0.08991 0.44774 0.0
C211 C 0.10565 0.04916 0.36344 0.0
C212 C 0.1237 0.06952 0.31894 0.0
N213 N 0.13183 0.08883 0.36676 0.0
C214 C 0.11732 0.06915 0.38026 0.0
C215 C 0.13504 0.08919 0.33647 0.0
C216 C 0.10892 0.04938 0.33257 0.0
C217 C 0.21504 0.15399 0.45713 0.0
N218 N 0.192 0.14249 0.47149 0.0
C219 C 0.24412 0.15053 0.46684 0.0
C220 C 0.24965 0.13485 0.49122 0.0
C221 C 0.22617 0.12275 0.50544 0.0
C222 C 0.19739 0.12671 0.49514 0.0
C223 C 0.14098 0.17062 0.54632 0.0
C224 C 0.11335 0.13745 0.50728 0.0
C225 C 0.15115 0.16757 0.51715 0.0
N226 N 0.13746 0.15102 0.49809 0.0
C227 C 0.10258 0.13999 0.53629 0.0
C228 C 0.11655 0.15669 0.5559 0.0
C229 C 0.09608 0.13463 0.42791 0.0
C230 C 0.13959 0.17954 0.33511 0.0
C231 C 0.10345 0.14048 0.35473 0.0
C232 C 0.09202 0.15889 0.33548 0.0
C233 C 0.11026 0.17853 0.32563 0.0
N234 N 0.13226 0.14158 0.36395 0.0
C235 C 0.15024 0.16081 0.3544 0.0
Co236 Co 0.69454 0.89348 0.90063 0.0
Co237 Co 0.69248 0.86432 0.96829 0.0
O238 O 0.70913 0.86691 0.92783 0.0
C239 C 0.71184 0.84907 0.86046 0.0
O240 O 0.71765 0.83419 0.88318 0.0
C241 C 0.75641 0.84698 0.97368 0.0
O242 O 0.76205 0.85344 0.94605 0.0
O243 O 0.70538 0.89995 0.97621 0.0
O244 O 0.68669 0.91727 0.93485 0.0
H245 H 0.63356 0.89658 0.05541 0.0
H246 H 0.75501 0.87185 0.89104 0.0
O247 O 0.70196 0.87154 0.86458 0.0
H248 H 0.76956 0.96435 0.90112 0.0
H249 H 0.69339 0.94625 0.8069 0.0
H250 H 0.64287 0.92826 0.90194 0.0
H251 H 0.71963 0.94588 0.90424 0.0
H252 H 0.71315 0.91393 0.84136 0.0
O253 O 0.73102 0.85117 0.98503 0.0
H254 H 0.65424 0.89808 1.00463 0.0
H255 H 0.69652 0.82679 0.01821 0.0
H256 H 0.62256 0.96094 0.86827 0.0
H257 H 0.80518 0.88954 0.88732 0.0
H258 H 0.64786 0.97011 0.82034 0.0
H259 H 0.81281 0.93615 0.89244 0.0
O260 O 0.65407 0.87901 0.90428 0.0
H261 H 0.70436 0.77481 0.92955 0.0
H262 H 0.6365 0.83547 0.97803 0.0
H263 H 0.61943 0.79193 0.96728 0.0
H264 H 0.6535 0.76117 0.943 0.0
H265 H 0.72037 0.81856 0.94027 0.0
H266 H 0.67655 0.82468 0.06925 0.0
H267 H 0.64469 0.85968 0.08812 0.0
O268 O 0.65276 0.87668 0.95396 0.0
C269 C 0.69704 0.91926 0.9612 0.0
C270 C 0.64735 0.88118 0.04742 0.0
C271 C 0.67151 0.84084 0.0552 0.0
N272 N 0.67642 0.86249 0.00835 0.0
C273 C 0.65908 0.8819 0.01865 0.0
C274 C 0.68283 0.84219 0.0263 0.0
C275 C 0.65363 0.86048 0.06577 0.0
C276 C 0.75792 0.89211 0.89295 0.0
N277 N 0.73419 0.90771 0.89757 0.0
C278 C 0.78651 0.90205 0.89097 0.0
C279 C 0.79078 0.92819 0.89389 0.0
C280 C 0.76654 0.94401 0.89877 0.0
C281 C 0.73828 0.93339 0.90059 0.0
C282 C 0.68219 0.94246 0.82774 0.0
C283 C 0.65411 0.93223 0.88121 0.0
C284 C 0.69322 0.92412 0.84732 0.0
N285 N 0.67928 0.9193 0.87376 0.0
C286 C 0.64246 0.95072 0.8622 0.0
C287 C 0.65665 0.95584 0.8353 0.0
C288 C 0.63983 0.87686 0.92867 0.0
C289 C 0.68935 0.78799 0.94028 0.0
C290 C 0.6515 0.82229 0.96738 0.0
C291 C 0.64169 0.79761 0.9614 0.0
C292 C 0.66081 0.78036 0.94779 0.0
N293 N 0.67963 0.82964 0.96012 0.0
C294 C 0.69839 0.81284 0.94659 0.0
Co295 Co 0.8171 0.11699 0.3963 0.0
Co296 Co 0.81949 0.14863 0.46214 0.0
O297 O 0.80318 0.14474 0.4219 0.0
C298 C 0.80289 0.16086 0.35442 0.0
O299 O 0.79899 0.17668 0.37668 0.0
C300 C 0.76516 0.1599 0.49782 0.0
O301 O 0.77061 0.13974 0.51422 0.0
O302 O 0.80486 0.11369 0.472 0.0
O303 O 0.82327 0.09423 0.43171 0.0
H304 H 0.87369 0.11883 0.55341 0.0
H305 H 0.75787 0.14061 0.38661 0.0
O306 O 0.81098 0.13796 0.35918 0.0
H307 H 0.73886 0.04876 0.39774 0.0
H308 H 0.81771 0.06109 0.30498 0.0
H309 H 0.86718 0.08069 0.40018 0.0
H310 H 0.78965 0.0655 0.40079 0.0
H311 H 0.79874 0.09517 0.33758 0.0
O312 O 0.78099 0.1645 0.47492 0.0
H313 H 0.8538 0.11517 0.50245 0.0
H314 H 0.81839 0.18991 0.50824 0.0
H315 H 0.88666 0.04626 0.36841 0.0
H316 H 0.70685 0.12463 0.38295 0.0
H317 H 0.86189 0.03627 0.32041 0.0
H318 H 0.69701 0.07837 0.38856 0.0
O319 O 0.85814 0.13037 0.40016 0.0
H320 H 0.81058 0.23668 0.41917 0.0
H321 H 0.87725 0.17587 0.46903 0.0
H322 H 0.89592 0.21827 0.45514 0.0
H323 H 0.86247 0.24908 0.43013 0.0
H324 H 0.79293 0.19391 0.43302 0.0
H325 H 0.83777 0.19432 0.5593 0.0
H326 H 0.8657 0.15863 0.58222 0.0
O327 O 0.85885 0.13396 0.44982 0.0
C328 C 0.81261 0.09355 0.45804 0.0
C329 C 0.86154 0.13451 0.54368 0.0
C330 C 0.84138 0.17688 0.54699 0.0
N331 N 0.83487 0.15226 0.50236 0.0
C332 C 0.85021 0.13254 0.51483 0.0
C333 C 0.83041 0.17424 0.51807 0.0
C334 C 0.85705 0.15684 0.55983 0.0
C335 C 0.75396 0.12044 0.38859 0.0
N336 N 0.77693 0.10402 0.39323 0.0
C337 C 0.72492 0.1115 0.38671 0.0
C338 C 0.71941 0.08556 0.38991 0.0
C339 C 0.74287 0.06894 0.39505 0.0
C340 C 0.77161 0.07856 0.39675 0.0
C341 C 0.82868 0.06524 0.32586 0.0
C342 C 0.85617 0.07638 0.37941 0.0
C343 C 0.8181 0.08458 0.34438 0.0
N344 N 0.83174 0.08984 0.37087 0.0
C345 C 0.86735 0.05689 0.36148 0.0
C346 C 0.85346 0.05131 0.33454 0.0
C347 C 0.87212 0.13274 0.42471 0.0
C348 C 0.82539 0.22342 0.43004 0.0
C349 C 0.86261 0.18901 0.45784 0.0
C350 C 0.87328 0.21308 0.45018 0.0
C351 C 0.8545 0.23036 0.43617 0.0
N352 N 0.83402 0.1823 0.45169 0.0
C353 C 0.8155 0.19917 0.43798 0.0
Co354 Co 0.69186 0.12098 0.11185 0.0
Co355 Co 0.6894 0.15088 0.04475 0.0
O356 O 0.70617 0.14797 0.0851 0.0
C357 C 0.70968 0.16476 0.15268 0.0
O358 O 0.71528 0.17992 0.13017 0.0
C359 C 0.75284 0.16963 0.03988 0.0
O360 O 0.75801 0.16449 0.06797 0.0
O361 O 0.70279 0.11546 0.03635 0.0
O362 O 0.68376 0.09766 0.07724 0.0
H363 H 0.63062 0.11899 0.95736 0.0
H364 H 0.75246 0.14247 0.12103 0.0
O365 O 0.6996 0.1424 0.14827 0.0
H366 H 0.76683 0.05007 0.10946 0.0
H367 H 0.69141 0.06685 0.20452 0.0
H368 H 0.64021 0.0862 0.11022 0.0
H369 H 0.71688 0.0686 0.10727 0.0
H370 H 0.71088 0.09969 0.17059 0.0
O371 O 0.72786 0.16448 0.02814 0.0
H372 H 0.65142 0.11718 1.00808 0.0
H373 H 0.69302 0.18885 0.99526 0.0
H374 H 0.62018 0.05302 0.14336 0.0
H375 H 0.80267 0.12471 0.12381 0.0
H376 H 0.64583 0.04316 0.19091 0.0
H377 H 0.81021 0.07816 0.11794 0.0
O378 O 0.65139 0.13555 0.10872 0.0
H379 H 0.69949 0.24013 0.08508 0.0
H380 H 0.63312 0.17923 0.03501 0.0
H381 H 0.61525 0.22245 0.04617 0.0
H382 H 0.64857 0.25335 0.07123 0.0
H383 H 0.71624 0.19671 0.07399 0.0
H384 H 0.67291 0.19129 0.94429 0.0
H385 H 0.64133 0.15624 0.92508 0.0
O386 O 0.6498 0.13806 0.05904 0.0
C387 C 0.6945 0.09595 0.05103 0.0
C388 C 0.64429 0.1344 0.9655 0.0
C389 C 0.66806 0.17496 0.95815 0.0
N390 N 0.67328 0.15294 1.00472 0.0
C391 C 0.65609 0.13351 0.99424 0.0
C392 C 0.67947 0.17343 0.98701 0.0
C393 C 0.65033 0.1553 0.94739 0.0
C394 C 0.75534 0.12223 0.1188 0.0
N395 N 0.73153 0.10669 0.11431 0.0
C396 C 0.78394 0.11225 0.12024 0.0
C397 C 0.78817 0.08614 0.11691 0.0
C398 C 0.76385 0.07038 0.11215 0.0
C399 C 0.73558 0.08103 0.11087 0.0
C400 C 0.68006 0.07095 0.18384 0.0
C401 C 0.6516 0.08194 0.13078 0.0
C402 C 0.69092 0.08959 0.16457 0.0
N403 N 0.67679 0.09479 0.13833 0.0
C404 C 0.64011 0.06316 0.1495 0.0
C405 C 0.65449 0.05766 0.17619 0.0
C406 C 0.63701 0.13785 0.08443 0.0
C407 C 0.68481 0.22691 0.07397 0.0
C408 C 0.64783 0.19248 0.04596 0.0
C409 C 0.63754 0.21698 0.05219 0.0
C410 C 0.65623 0.2343 0.06624 0.0
N411 N 0.67601 0.18537 0.05337 0.0
C412 C 0.6943 0.20223 0.06742 0.0
Co413 Co 0.81647 0.89563 0.61604 0.0
Co414 Co 0.82058 0.86422 0.55009 0.0
O415 O 0.80349 0.86779 0.59007 0.0
C416 C 0.8023 0.85154 0.65772 0.0
O417 O 0.79818 0.83576 0.63545 0.0
C418 C 0.76735 0.85227 0.51315 0.0
O419 O 0.77296 0.87242 0.4968 0.0
O420 O 0.80557 0.89902 0.54005 0.0
O421 O 0.82265 0.91861 0.58084 0.0
H422 H 0.87585 0.89495 0.4599 0.0
H423 H 0.75753 0.8711 0.62462 0.0
O424 O 0.81036 0.87444 0.65296 0.0
H425 H 0.7369 0.96274 0.61392 0.0
H426 H 0.81463 0.95111 0.70768 0.0
H427 H 0.86585 0.93268 0.6131 0.0
H428 H 0.78805 0.94672 0.61148 0.0
H429 H 0.79681 0.91693 0.6746 0.0
O430 O 0.7826 0.84794 0.53653 0.0
H431 H 0.85495 0.89824 0.51048 0.0
H432 H 0.82118 0.82299 0.50389 0.0
H433 H 0.88418 0.96723 0.64536 0.0
H434 H 0.70617 0.88635 0.62766 0.0
H435 H 0.85853 0.97664 0.69305 0.0
H436 H 0.69552 0.93249 0.62228 0.0
O437 O 0.85782 0.88289 0.61276 0.0
H438 H 0.81236 0.77605 0.59282 0.0
H439 H 0.87889 0.83764 0.54414 0.0
H440 H 0.89798 0.79544 0.55829 0.0
H441 H 0.8646 0.76424 0.58271 0.0
H442 H 0.79427 0.81863 0.57872 0.0
H443 H 0.8416 0.81895 0.45319 0.0
H444 H 0.86921 0.85509 0.43088 0.0
O445 O 0.85943 0.87932 0.56313 0.0
C446 C 0.81261 0.91922 0.55427 0.0
C447 C 0.86384 0.87908 0.46937 0.0
C448 C 0.84463 0.83643 0.4656 0.0
N449 N 0.83678 0.86088 0.51014 0.0
C450 C 0.85193 0.88083 0.49801 0.0
C451 C 0.83307 0.83885 0.49432 0.0
C452 C 0.86011 0.85671 0.4531 0.0
C453 C 0.75327 0.89122 0.62276 0.0
N454 N 0.77598 0.90799 0.61858 0.0
C455 C 0.72404 0.89975 0.62428 0.0
C456 C 0.71806 0.92563 0.62119 0.0
C457 C 0.74127 0.9426 0.61652 0.0
C458 C 0.77021 0.93339 0.61517 0.0
C459 C 0.82597 0.94723 0.68693 0.0
C460 C 0.85444 0.93674 0.63372 0.0
C461 C 0.81604 0.92783 0.66814 0.0
N462 N 0.83017 0.92289 0.64182 0.0
C463 C 0.86498 0.95629 0.65194 0.0
C464 C 0.8506 0.96154 0.67871 0.0
C465 C 0.87226 0.8807 0.58845 0.0
C466 C 0.82713 0.78948 0.58221 0.0
C467 C 0.86426 0.82432 0.55506 0.0
C468 C 0.87518 0.80037 0.56288 0.0
C469 C 0.85644 0.78287 0.57655 0.0
N470 N 0.83547 0.83071 0.56072 0.0
C471 C 0.81699 0.81362 0.57412 0.0
Co472 Co 0.85349 0.64291 0.06719 0.0
Co473 Co 0.86595 0.60732 0.12912 0.0
O474 O 0.84567 0.63588 0.10944 0.0
C475 C 0.8614 0.69898 0.06632 0.0
O476 O 0.88867 0.69502 0.05736 0.0
C477 C 0.80573 0.61116 0.15925 0.0
O478 O 0.79564 0.62619 0.13826 0.0
O479 O 0.84846 0.5835 0.0991 0.0
O480 O 0.86086 0.60588 0.05857 0.0
H481 H 0.92603 0.5268 0.13016 0.0
H482 H 0.79757 0.66222 0.09319 0.0
O483 O 0.84531 0.68016 0.0742 0.0
H484 H 0.7671 0.60578 0.01092 0.0
H485 H 0.83562 0.68419 0.96732 0.0
H486 H 0.90014 0.62672 0.0249 0.0
H487 H 0.8199 0.61265 0.02184 0.0
H488 H 0.82465 0.67465 0.01991 0.0
O489 O 0.8316 0.60161 0.15718 0.0
H490 H 0.90118 0.56356 0.107 0.0
H491 H 0.87281 0.58946 0.19202 0.0
H492 H 0.91179 0.63556 0.97226 0.0
H493 H 0.74449 0.65616 0.08274 0.0
H494 H 0.87944 0.66453 0.9431 0.0
H495 H 0.72895 0.6277 0.04139 0.0
O496 O 0.89612 0.64766 0.07717 0.0
H497 H 0.86487 0.68172 0.19987 0.0
H498 H 0.92645 0.6147 0.1544 0.0
H499 H 0.94905 0.64494 0.18962 0.0
H500 H 0.91816 0.67867 0.2128 0.0
H501 H 0.84327 0.65138 0.16419 0.0
H502 H 0.89707 0.55281 0.21604 0.0
H503 H 0.92405 0.52122 0.18507 0.0
O504 O 0.9019 0.61184 0.10329 0.0
C505 C 0.85307 0.58508 0.07105 0.0
C506 C 0.91436 0.54045 0.1439 0.0
C507 C 0.89808 0.55502 0.19209 0.0
N508 N 0.88555 0.57869 0.1481 0.0
C509 C 0.90027 0.56133 0.13091 0.0
C510 C 0.88426 0.57568 0.17833 0.0
C511 C 0.91323 0.53732 0.17471 0.0
C512 C 0.791 0.6499 0.07507 0.0
N513 N 0.81186 0.63777 0.05824 0.0
C514 C 0.7609 0.64651 0.06929 0.0
C515 C 0.7522 0.63052 0.04612 0.0
C516 C 0.77359 0.61819 0.02904 0.0
C517 C 0.80348 0.62206 0.03545 0.0
C518 C 0.84989 0.67154 0.97978 0.0
C519 C 0.88593 0.63931 0.01237 0.0
C520 C 0.84383 0.6661 0.0096 0.0
N521 N 0.86178 0.65018 0.02554 0.0
C522 C 0.89264 0.64425 0.98256 0.0
C523 C 0.87448 0.66051 0.96621 0.0
C524 C 0.91255 0.63091 0.08937 0.0
C525 C 0.87851 0.66698 0.1901 0.0
C526 C 0.9128 0.62929 0.16437 0.0
C527 C 0.92575 0.64637 0.18432 0.0
C528 C 0.90842 0.66529 0.19731 0.0
N529 N 0.88334 0.63089 0.1576 0.0
C530 C 0.86632 0.6496 0.16999 0.0
Co531 Co 0.64932 0.36744 0.56224 0.0
Co532 Co 0.64502 0.39856 0.62844 0.0
O533 O 0.66215 0.37135 0.60378 0.0
C534 C 0.66362 0.31375 0.58354 0.0
O535 O 0.66882 0.3217 0.61076 0.0
C536 C 0.69809 0.41872 0.66027 0.0
O537 O 0.69334 0.44096 0.64781 0.0
O538 O 0.66068 0.42417 0.59944 0.0
O539 O 0.64349 0.40527 0.55821 0.0
H540 H 0.59062 0.48079 0.64492 0.0
H541 H 0.70824 0.34812 0.58232 0.0
O542 O 0.65502 0.32928 0.5635 0.0
H543 H 0.72925 0.40429 0.49709 0.0
H544 H 0.65121 0.33073 0.45847 0.0
H545 H 0.60038 0.38976 0.52689 0.0
H546 H 0.67805 0.3977 0.51409 0.0
H547 H 0.66883 0.33623 0.51004 0.0
O548 O 0.6826 0.39949 0.65259 0.0
H549 H 0.61147 0.44565 0.61519 0.0
H550 H 0.64329 0.41008 0.69386 0.0
H551 H 0.58225 0.38505 0.47539 0.0
H552 H 0.75964 0.35386 0.56576 0.0
H553 H 0.60771 0.35535 0.44078 0.0
H554 H 0.7705 0.38215 0.52283 0.0
O555 O 0.60784 0.36327 0.57642 0.0
H556 H 0.65156 0.32056 0.69294 0.0
H557 H 0.58624 0.38922 0.65722 0.0
H558 H 0.56636 0.35661 0.69116 0.0
H559 H 0.59913 0.322 0.70937 0.0
H560 H 0.67045 0.35336 0.65863 0.0
H561 H 0.62296 0.44492 0.72442 0.0
H562 H 0.59635 0.48061 0.69996 0.0
O563 O 0.60648 0.39749 0.60601 0.0
C564 C 0.65366 0.42474 0.57186 0.0
C565 C 0.60222 0.46537 0.65584 0.0
C566 C 0.62036 0.44525 0.70045 0.0
N567 N 0.62874 0.42586 0.65271 0.0
C568 C 0.61409 0.44541 0.63911 0.0
C569 C 0.6319 0.42559 0.68301 0.0
C570 C 0.60543 0.46526 0.68672 0.0
C571 C 0.71256 0.36006 0.56332 0.0
N572 N 0.68991 0.37198 0.54878 0.0
C573 C 0.74183 0.36342 0.55417 0.0
C574 C 0.74792 0.37933 0.53013 0.0
C575 C 0.72479 0.39175 0.51567 0.0
C576 C 0.69581 0.3879 0.52542 0.0
C577 C 0.63995 0.34376 0.47332 0.0
C578 C 0.61169 0.37691 0.51193 0.0
C579 C 0.64976 0.34689 0.5026 0.0
N580 N 0.63575 0.36343 0.52145 0.0
C581 C 0.60128 0.37427 0.48281 0.0
C582 C 0.61555 0.35758 0.46341 0.0
C583 C 0.59352 0.37988 0.59135 0.0
C584 C 0.63706 0.33553 0.68515 0.0
C585 C 0.6006 0.37409 0.66475 0.0
C586 C 0.58923 0.35574 0.68411 0.0
C587 C 0.60763 0.33635 0.69435 0.0
N588 N 0.6295 0.37315 0.65577 0.0
C589 C 0.64764 0.35419 0.66573 0.0
Co590 Co 0.86274 0.36955 0.9526 0.0
Co591 Co 0.8653 0.4 0.886 0.0
O592 O 0.84875 0.3731 0.91142 0.0
C593 C 0.84637 0.31597 0.93272 0.0
O594 O 0.83849 0.32386 0.90617 0.0
C595 C 0.81163 0.41983 0.85495 0.0
O596 O 0.81669 0.44226 0.86685 0.0
O597 O 0.85029 0.42587 0.91513 0.0
O598 O 0.86883 0.40734 0.95597 0.0
H599 H 0.91916 0.48209 0.86725 0.0
H600 H 0.80262 0.35108 0.93427 0.0
O601 O 0.85695 0.33143 0.95187 0.0
H602 H 0.78554 0.40723 0.02044 0.0
H603 H 0.86404 0.33364 0.05671 0.0
H604 H 0.91277 0.39211 0.98622 0.0
H605 H 0.83599 0.40008 1.00163 0.0
H606 H 0.84484 0.33877 1.00566 0.0
O607 O 0.82715 0.40068 0.86277 0.0
H608 H 0.89904 0.44723 0.89788 0.0
H609 H 0.86557 0.41084 0.82039 0.0
H610 H 0.93248 0.38776 0.03716 0.0
H611 H 0.75201 0.35733 0.95267 0.0
H612 H 0.90808 0.35834 0.07281 0.0
H613 H 0.74308 0.38562 0.9961 0.0
O614 O 0.90372 0.3651 0.93725 0.0
H615 H 0.85721 0.32116 0.82301 0.0
H616 H 0.92327 0.39043 0.85562 0.0
H617 H 0.94226 0.35745 0.82161 0.0
H618 H 0.90912 0.32253 0.80495 0.0
H619 H 0.8392 0.35436 0.85734 0.0
H620 H 0.88515 0.44537 0.78895 0.0
H621 H 0.91223 0.48133 0.81237 0.0
O622 O 0.90443 0.39911 0.90742 0.0
C623 C 0.85794 0.42661 0.94254 0.0
C624 C 0.90736 0.46655 0.85679 0.0
C625 C 0.88827 0.44595 0.81285 0.0
N626 N 0.88098 0.42705 0.86101 0.0
C627 C 0.89589 0.44676 0.87403 0.0
C628 C 0.87716 0.42647 0.83079 0.0
C629 C 0.90347 0.46611 0.826 0.0
C630 C 0.79924 0.36293 0.95352 0.0
N631 N 0.82259 0.37446 0.96734 0.0
C632 C 0.77036 0.36662 0.96371 0.0
C633 C 0.76535 0.38254 0.98802 0.0
C634 C 0.78916 0.39464 1.00169 0.0
C635 C 0.81772 0.39045 0.99093 0.0
C636 C 0.87485 0.34654 0.04139 0.0
C637 C 0.90191 0.37938 1.00163 0.0
C638 C 0.86414 0.34947 0.01241 0.0
N639 N 0.87756 0.36585 0.99298 0.0
C640 C 0.91323 0.37694 0.03043 0.0
C641 C 0.89954 0.36042 0.05041 0.0
C642 C 0.91773 0.38158 0.92187 0.0
C643 C 0.87188 0.33627 0.83011 0.0
C644 C 0.90875 0.37517 0.84877 0.0
C645 C 0.91961 0.35661 0.82936 0.0
C646 C 0.901 0.33704 0.82001 0.0
N647 N 0.88013 0.3743 0.85862 0.0
C648 C 0.86179 0.35514 0.84954 0.0
Co649 Co 0.65418 0.64364 0.45383 0.0
Co650 Co 0.64451 0.60954 0.39012 0.0
O651 O 0.66426 0.63756 0.41168 0.0
C652 C 0.66914 0.69629 0.42918 0.0
O653 O 0.67387 0.68748 0.40224 0.0
C654 C 0.70542 0.6141 0.36118 0.0
O655 O 0.71472 0.63006 0.38163 0.0
O656 O 0.66107 0.58496 0.4197 0.0
O657 O 0.64704 0.60621 0.4605 0.0
H658 H 0.5844 0.52922 0.38413 0.0
H659 H 0.71258 0.66123 0.43024 0.0
O660 O 0.66103 0.68146 0.45011 0.0
H661 H 0.73626 0.60634 0.51588 0.0
H662 H 0.664 0.6843 0.5551 0.0
H663 H 0.60648 0.62456 0.49324 0.0
H664 H 0.68447 0.6139 0.50146 0.0
H665 H 0.6782 0.67615 0.50293 0.0
O666 O 0.67972 0.60421 0.36311 0.0
H667 H 0.60857 0.56528 0.40945 0.0
H668 H 0.63965 0.59333 0.32639 0.0
H669 H 0.59174 0.63193 0.54542 0.0
H670 H 0.76456 0.65448 0.44413 0.0
H671 H 0.62058 0.66201 0.57673 0.0
H672 H 0.77679 0.62681 0.48725 0.0
O673 O 0.61221 0.64883 0.44191 0.0
H674 H 0.64796 0.68522 0.32134 0.0
H675 H 0.58475 0.61781 0.36347 0.0
H676 H 0.56323 0.64891 0.32867 0.0
H677 H 0.59492 0.68288 0.30719 0.0
H678 H 0.66846 0.65399 0.35653 0.0
H679 H 0.61611 0.55739 0.30024 0.0
H680 H 0.5881 0.52507 0.32913 0.0
O681 O 0.60767 0.61342 0.41488 0.0
C682 C 0.65569 0.58583 0.44762 0.0
C683 C 0.59651 0.54319 0.37129 0.0
C684 C 0.61433 0.55898 0.32422 0.0
N685 N 0.62548 0.58146 0.36946 0.0
C686 C 0.61022 0.56369 0.3855 0.0
C687 C 0.62773 0.57924 0.33918 0.0
C688 C 0.59861 0.54087 0.34043 0.0
C689 C 0.71751 0.64948 0.44923 0.0
N690 N 0.69529 0.63835 0.46519 0.0
C691 C 0.7471 0.64558 0.45691 0.0
C692 C 0.75395 0.63003 0.48106 0.0
C693 C 0.73123 0.61854 0.49713 0.0
C694 C 0.70191 0.62289 0.4888 0.0
C695 C 0.65129 0.67112 0.5417 0.0
C696 C 0.61926 0.63756 0.50676 0.0
C697 C 0.65916 0.66648 0.5121 0.0
N698 N 0.64329 0.64975 0.49508 0.0
C699 C 0.61076 0.64171 0.53627 0.0
C700 C 0.62693 0.6586 0.55382 0.0
C701 C 0.59635 0.63232 0.42861 0.0
C702 C 0.63395 0.67042 0.33042 0.0
C703 C 0.59875 0.63253 0.35432 0.0
C704 C 0.5864 0.65009 0.33456 0.0
C705 C 0.60419 0.66913 0.32252 0.0
N706 N 0.62804 0.63382 0.36188 0.0
C707 C 0.64552 0.65255 0.35028 0.0
Co708 Co 0.20134 0.38873 0.9067 0.0
Co709 Co 0.1867 0.36655 0.97626 0.0
O710 O 0.20725 0.36321 0.93793 0.0
C711 C 0.19196 0.35803 0.85239 0.0
O712 O 0.16592 0.36903 0.85061 0.0
C713 C 0.24844 0.35139 0.99357 0.0
O714 O 0.2593 0.36743 0.97401 0.0
O715 O 0.20492 0.40077 0.98211 0.0
O716 O 0.19538 0.4166 0.93683 0.0
H717 H 0.12697 0.41282 0.05366 0.0
H718 H 0.25507 0.35653 0.90456 0.0
O719 O 0.20794 0.3617 0.87546 0.0
H720 H 0.2918 0.44475 0.91069 0.0
H721 H 0.22364 0.43299 0.80951 0.0
H722 H 0.15748 0.42979 0.89679 0.0
H723 H 0.23827 0.43598 0.90962 0.0
H724 H 0.2319 0.40154 0.84936 0.0
O725 O 0.22059 0.34962 0.99719 0.0
H726 H 0.15216 0.40765 1.00533 0.0
H727 H 0.17903 0.33296 0.02938 0.0
H728 H 0.14856 0.4617 0.85754 0.0
H729 H 0.30882 0.36448 0.90508 0.0
H730 H 0.18173 0.4634 0.81347 0.0
H731 H 0.32751 0.40886 0.90827 0.0
O732 O 0.15803 0.38121 0.90749 0.0
H733 H 0.18725 0.27399 0.94793 0.0
H734 H 0.12538 0.34573 0.98173 0.0
H735 H 0.10234 0.30393 0.97266 0.0
H736 H 0.13336 0.26765 0.95575 0.0
H737 H 0.20934 0.31625 0.95688 0.0
H738 H 0.15435 0.33741 0.07809 0.0
H739 H 0.12796 0.37752 0.09045 0.0
O740 O 0.15139 0.38273 0.95684 0.0
C741 C 0.20179 0.41955 0.96434 0.0
C742 C 0.13835 0.39522 0.04852 0.0
C743 C 0.15376 0.35292 0.06225 0.0
N744 N 0.16698 0.37 0.01446 0.0
C745 C 0.15262 0.39217 0.02116 0.0
C746 C 0.16779 0.35055 0.03466 0.0
C747 C 0.13894 0.37543 0.06916 0.0
C748 C 0.26302 0.37591 0.90562 0.0
N749 N 0.24352 0.39575 0.90692 0.0
C750 C 0.29349 0.38029 0.90605 0.0
C751 C 0.30395 0.40519 0.90789 0.0
C752 C 0.28394 0.42533 0.90929 0.0
C753 C 0.25363 0.42023 0.90881 0.0
C754 C 0.20904 0.43247 0.82862 0.0
C755 C 0.17207 0.43046 0.87774 0.0
C756 C 0.2136 0.4147 0.85127 0.0
N757 N 0.19518 0.41381 0.87543 0.0
C758 C 0.1669 0.44856 0.85557 0.0
C759 C 0.18552 0.44951 0.83085 0.0
C760 C 0.14126 0.38254 0.93031 0.0
C761 C 0.17351 0.28964 0.95536 0.0
C762 C 0.13903 0.33009 0.97423 0.0
C763 C 0.12586 0.30644 0.96921 0.0
C764 C 0.14327 0.2861 0.95973 0.0
N765 N 0.16873 0.33341 0.96995 0.0
C766 C 0.18592 0.31358 0.96055 0.0
Co767 Co 0.31767 0.62261 0.40001 0.0
Co768 Co 0.32009 0.65493 0.46543 0.0
O769 O 0.30335 0.65034 0.42545 0.0
C770 C 0.30073 0.66539 0.3576 0.0
O771 O 0.2953 0.68112 0.37963 0.0
C772 C 0.26649 0.66527 0.50218 0.0
O773 O 0.27304 0.64525 0.51841 0.0
O774 O 0.30646 0.61985 0.47589 0.0
O775 O 0.32481 0.60033 0.43562 0.0
H776 H 0.37624 0.6269 0.55628 0.0
H777 H 0.25742 0.64492 0.39141 0.0
O778 O 0.31065 0.64309 0.3627 0.0
H779 H 0.24153 0.55269 0.40302 0.0
H780 H 0.31876 0.566 0.30929 0.0
H781 H 0.36862 0.58718 0.40381 0.0
H782 H 0.2918 0.5706 0.40515 0.0
H783 H 0.29927 0.59997 0.34171 0.0
O784 O 0.28143 0.67013 0.47874 0.0
H785 H 0.35564 0.6224 0.5057 0.0
H786 H 0.31891 0.6967 0.51094 0.0
H787 H 0.38863 0.55286 0.37222 0.0
H788 H 0.20691 0.62776 0.38864 0.0
H789 H 0.36366 0.54207 0.32456 0.0
H790 H 0.19862 0.58131 0.39449 0.0
O791 O 0.35847 0.63669 0.4032 0.0
H792 H 0.30821 0.74226 0.42129 0.0
H793 H 0.37724 0.68336 0.47103 0.0
H794 H 0.39454 0.72597 0.45625 0.0
H795 H 0.35989 0.75583 0.43129 0.0
H796 H 0.29193 0.69931 0.43605 0.0
H797 H 0.33897 0.70194 0.56163 0.0
H798 H 0.36792 0.66689 0.58462 0.0
O799 O 0.35957 0.64087 0.45277 0.0
C800 C 0.31436 0.59972 0.46202 0.0
C801 C 0.36364 0.6423 0.54651 0.0
C802 C 0.34274 0.68441 0.54952 0.0
N803 N 0.33602 0.65922 0.50536 0.0
C804 C 0.35191 0.63986 0.51787 0.0
C805 C 0.33139 0.68132 0.52081 0.0
C806 C 0.35897 0.66474 0.5624 0.0
C807 C 0.25423 0.62467 0.39341 0.0
N808 N 0.27779 0.6088 0.39764 0.0
C809 C 0.22545 0.61506 0.39207 0.0
C810 C 0.2208 0.58901 0.39542 0.0
C811 C 0.24486 0.57295 0.40018 0.0
C812 C 0.27331 0.58323 0.40134 0.0
C813 C 0.32981 0.5705 0.33002 0.0
C814 C 0.35752 0.58252 0.3832 0.0
C815 C 0.31895 0.58979 0.34844 0.0
N816 N 0.3327 0.59549 0.37475 0.0
C817 C 0.369 0.5631 0.36536 0.0
C818 C 0.355 0.55707 0.33861 0.0
C819 C 0.37265 0.63938 0.42759 0.0
C820 C 0.32353 0.72943 0.43214 0.0
C821 C 0.36208 0.69609 0.45989 0.0
C822 C 0.37198 0.72027 0.45171 0.0
C823 C 0.35253 0.73702 0.43774 0.0
N824 N 0.33358 0.68875 0.4543 0.0
C825 C 0.31441 0.70508 0.4406 0.0
Co826 Co 0.19112 0.6195 0.11262 0.0
Co827 Co 0.18863 0.65245 0.04769 0.0
O828 O 0.20549 0.64744 0.08752 0.0
C829 C 0.20739 0.66226 0.15531 0.0
O830 O 0.21128 0.67837 0.13336 0.0
C831 C 0.24224 0.66246 0.01093 0.0
O832 O 0.23539 0.64255 0.99461 0.0
O833 O 0.20209 0.61744 0.0368 0.0
O834 O 0.18353 0.59756 0.07671 0.0
H835 H 0.13177 0.62546 0.95685 0.0
H836 H 0.25125 0.64151 0.12186 0.0
O837 O 0.19858 0.63962 0.15017 0.0
H838 H 0.26713 0.54952 0.10751 0.0
H839 H 0.19036 0.56196 0.20242 0.0
H840 H 0.13992 0.58437 0.10864 0.0
H841 H 0.21683 0.56749 0.10612 0.0
H842 H 0.20981 0.59618 0.17039 0.0
O843 O 0.22737 0.66746 0.03438 0.0
H844 H 0.15259 0.62046 1.00727 0.0
H845 H 0.1901 0.69448 1.00259 0.0
H846 H 0.11992 0.54984 0.13986 0.0
H847 H 0.30181 0.62428 0.1239 0.0
H848 H 0.14518 0.53844 0.18715 0.0
H849 H 0.31007 0.57795 0.11665 0.0
O850 O 0.15044 0.63384 0.1099 0.0
H851 H 0.20141 0.73953 0.09241 0.0
H852 H 0.13164 0.68121 0.04271 0.0
H853 H 0.11472 0.72384 0.05795 0.0
H854 H 0.14974 0.7534 0.0829 0.0
H855 H 0.2173 0.69655 0.07721 0.0
H856 H 0.16983 0.70021 0.95206 0.0
H857 H 0.14037 0.66555 0.92887 0.0
O858 O 0.14908 0.63855 0.0604 0.0
C859 C 0.19416 0.59722 0.05037 0.0
C860 C 0.14458 0.64069 0.9667 0.0
C861 C 0.16593 0.68264 0.96402 0.0
N862 N 0.17259 0.65711 1.00788 0.0
C863 C 0.15644 0.63797 0.99525 0.0
C864 C 0.1774 0.67926 0.99263 0.0
C865 C 0.14941 0.66319 0.95102 0.0
C866 C 0.25448 0.62131 0.11919 0.0
N867 N 0.23092 0.60553 0.11454 0.0
C868 C 0.28326 0.61166 0.12015 0.0
C869 C 0.28789 0.58567 0.11603 0.0
C870 C 0.26381 0.56972 0.11091 0.0
C871 C 0.23536 0.58004 0.11016 0.0
C872 C 0.17918 0.56673 0.18186 0.0
C873 C 0.15114 0.57945 0.12909 0.0
C874 C 0.19003 0.58616 0.16366 0.0
N875 N 0.1761 0.59221 0.13756 0.0
C876 C 0.13967 0.55991 0.14672 0.0
C877 C 0.15383 0.55354 0.17326 0.0
C878 C 0.13614 0.63695 0.08565 0.0
C879 C 0.18593 0.72682 0.08158 0.0
C880 C 0.14696 0.6938 0.05387 0.0
C881 C 0.13727 0.718 0.06229 0.0
C882 C 0.15694 0.73458 0.07625 0.0
N883 N 0.17544 0.68628 0.05921 0.0
C884 C 0.19482 0.70246 0.07287 0.0
Co885 Co 0.31431 0.40065 0.61701 0.0
Co886 Co 0.31789 0.36969 0.55067 0.0
O887 O 0.30068 0.37289 0.59085 0.0
C888 C 0.29953 0.35712 0.65949 0.0
O889 O 0.29958 0.34008 0.63811 0.0
C890 C 0.255 0.3496 0.54527 0.0
O891 O 0.24941 0.35457 0.57335 0.0
O892 O 0.30414 0.40493 0.54145 0.0
O893 O 0.32299 0.42322 0.58203 0.0
H894 H 0.37743 0.4011 0.4636 0.0
H895 H 0.25462 0.37849 0.6267 0.0
O896 O 0.30578 0.38028 0.65392 0.0
H897 H 0.2376 0.47008 0.61032 0.0
H898 H 0.31156 0.45805 0.70702 0.0
H899 H 0.36622 0.43516 0.61579 0.0
H900 H 0.28814 0.45258 0.6097 0.0
H901 H 0.29312 0.42419 0.67384 0.0
O902 O 0.27985 0.3555 0.53375 0.0
H903 H 0.35601 0.40327 0.51404 0.0
H904 H 0.31529 0.33116 0.50164 0.0
H905 H 0.38524 0.46936 0.64815 0.0
H906 H 0.20376 0.39524 0.6279 0.0
H907 H 0.35787 0.481 0.69417 0.0
H908 H 0.19494 0.44136 0.6196 0.0
O909 O 0.355 0.38627 0.61498 0.0
H910 H 0.30894 0.28086 0.59257 0.0
H911 H 0.37459 0.3418 0.54173 0.0
H912 H 0.39303 0.29893 0.55363 0.0
H913 H 0.36007 0.268 0.57907 0.0
H914 H 0.29162 0.32395 0.5808 0.0
H915 H 0.33602 0.32835 0.45094 0.0
H916 H 0.36747 0.36343 0.43166 0.0
O917 O 0.35711 0.38303 0.56532 0.0
C918 C 0.31233 0.42465 0.5558 0.0
C919 C 0.36381 0.38566 0.47177 0.0
C920 C 0.34054 0.34486 0.46465 0.0
N921 N 0.33454 0.36732 0.51088 0.0
C922 C 0.35167 0.38676 0.50035 0.0
C923 C 0.32877 0.3466 0.49335 0.0
C924 C 0.35819 0.36454 0.45386 0.0
C925 C 0.25106 0.39858 0.62329 0.0
N926 N 0.27442 0.41448 0.61824 0.0
C927 C 0.22216 0.40796 0.6239 0.0
C928 C 0.21723 0.43383 0.61921 0.0
C929 C 0.24114 0.44995 0.61399 0.0
C930 C 0.26973 0.43989 0.61357 0.0
C931 C 0.3237 0.45315 0.68704 0.0
C932 C 0.35412 0.44014 0.63572 0.0
C933 C 0.31344 0.4339 0.66822 0.0
N934 N 0.32857 0.42766 0.64287 0.0
C935 C 0.36503 0.45951 0.65398 0.0
C936 C 0.34967 0.46602 0.67981 0.0
C937 C 0.36963 0.38358 0.59085 0.0
C938 C 0.32344 0.29408 0.58125 0.0
C939 C 0.36001 0.32853 0.5528 0.0
C940 C 0.37063 0.30423 0.55947 0.0
C941 C 0.35214 0.2869 0.57374 0.0
N942 N 0.33169 0.33543 0.55997 0.0
C943 C 0.31361 0.31857 0.57426 0.0
C944 C 0.3228 0.22297 0.03693 0.0
C945 C 0.34081 0.22155 0.0624 0.0
C946 C 0.3106 0.24609 0.02739 0.0
C947 C 0.31629 0.26862 0.04369 0.0
C948 C 0.33476 0.26753 0.06921 0.0
C949 C 0.34684 0.24399 0.07827 0.0
C950 C 0.29103 0.24625 1.00008 0.0
C951 C 0.3413 0.29113 0.0872 0.0
C952 C 0.29715 0.3288 1.00042 0.0
C953 C 0.26785 0.333 0.00947 0.0
C954 C 0.31402 0.30884 0.01275 0.0
C955 C 0.30129 0.29277 0.03465 0.0
C956 C 0.27238 0.29796 0.04512 0.0
C957 C 0.25608 0.31794 0.03244 0.0
C958 C 0.34479 0.30403 1.00103 0.0
C959 C 0.25788 0.28142 0.06843 0.0
H960 H 0.31792 0.20588 0.02437 0.0
H961 H 0.36073 0.24316 0.09792 0.0
H962 H 0.2683 0.25217 1.00633 0.0
H963 H 0.2994 0.26024 0.98362 0.0
H964 H 0.2898 0.22729 0.98917 0.0
H965 H 0.35744 0.28745 0.10536 0.0
H966 H 0.35018 0.30631 0.07254 0.0
H967 H 0.32055 0.29849 0.09721 0.0
H968 H 0.3065 0.34034 0.98277 0.0
H969 H 0.23359 0.32118 0.03992 0.0
H970 H 0.34473 0.28656 0.98713 0.0
H971 H 0.36045 0.3008 0.01967 0.0
H972 H 0.35301 0.3201 0.98725 0.0
H973 H 0.25318 0.26237 0.05883 0.0
H974 H 0.23676 0.28967 0.07662 0.0
H975 H 0.2729 0.27861 0.08768 0.0
C976 C 0.25055 0.71077 0.50527 0.0
C977 C 0.24692 0.68544 0.51456 0.0
C978 C 0.23538 0.73079 0.51927 0.0
C979 C 0.21535 0.72543 0.5427 0.0
C980 C 0.21059 0.69981 0.55138 0.0
C981 C 0.22676 0.68015 0.5375 0.0
C982 C 0.24163 0.75781 0.5096 0.0
C983 C 0.18879 0.69323 0.57563 0.0
C984 C 0.20121 0.78101 0.59538 0.0
C985 C 0.17656 0.79253 0.58211 0.0
C986 C 0.21339 0.7585 0.58356 0.0
C987 C 0.20012 0.74689 0.55834 0.0
C988 C 0.17398 0.75754 0.54621 0.0
C989 C 0.1628 0.78041 0.55793 0.0
C990 C 0.24164 0.74816 0.59679 0.0
C991 C 0.15864 0.7455 0.51986 0.0
H992 H 0.2663 0.71518 0.48783 0.0
H993 H 0.22381 0.66065 0.54481 0.0
H994 H 0.22093 0.76712 0.50208 0.0
H995 H 0.2502 0.76896 0.52875 0.0
H996 H 0.25804 0.75876 0.49121 0.0
H997 H 0.18588 0.67235 0.57815 0.0
H998 H 0.19648 0.70116 0.59718 0.0
H999 H 0.16696 0.70194 0.57074 0.0
H1000 H 0.21215 0.79045 0.61382 0.0
H1001 H 0.14368 0.78924 0.54762 0.0
H1002 H 0.25991 0.75037 0.58049 0.0
H1003 H 0.2394 0.72754 0.60154 0.0
H1004 H 0.2479 0.75812 0.61769 0.0
H1005 H 0.17218 0.74833 0.49952 0.0
H1006 H 0.13641 0.75385 0.51592 0.0
H1007 H 0.15624 0.72468 0.52326 0.0
C1008 C 0.34873 0.77592 0.95668 0.0
C1009 C 0.33507 0.78877 0.93299 0.0
C1010 C 0.33706 0.75307 0.96788 0.0
C1011 C 0.31056 0.74317 0.95568 0.0
C1012 C 0.29745 0.75545 0.93082 0.0
C1013 C 0.31009 0.77795 0.91954 0.0
C1014 C 0.35221 0.74032 0.99386 0.0
C1015 C 0.26887 0.74588 0.91752 0.0
C1016 C 0.28214 0.67684 0.9756 0.0
C1017 C 0.26225 0.68234 0.99873 0.0
C1018 C 0.29876 0.69629 0.96191 0.0
C1019 C 0.29477 0.7219 0.97102 0.0
C1020 C 0.27503 0.72746 0.99465 0.0
C1021 C 0.25937 0.70764 0.00841 0.0
C1022 C 0.32021 0.6895 0.93741 0.0
C1023 C 0.26966 0.7545 1.0048 0.0
H1024 H 0.3681 0.78421 0.96713 0.0
H1025 H 0.29923 0.78796 0.90148 0.0
H1026 H 0.33894 0.74325 0.01437 0.0
H1027 H 0.35389 0.71949 0.99008 0.0
H1028 H 0.37474 0.74807 0.99776 0.0
H1029 H 0.26289 0.75617 0.89676 0.0
H1030 H 0.27044 0.72526 0.9125 0.0
H1031 H 0.2507 0.7484 0.93389 0.0
H1032 H 0.28451 0.65736 0.96799 0.0
H1033 H 0.24385 0.71221 0.02602 0.0
H1034 H 0.34234 0.69762 0.94233 0.0
H1035 H 0.31266 0.69789 0.91605 0.0
H1036 H 0.32243 0.66859 0.93446 0.0
H1037 H 0.29068 0.76325 0.01236 0.0
H1038 H 0.25338 0.75562 0.0233 0.0
H1039 H 0.26132 0.76606 0.98589 0.0
C1040 C 0.22941 0.33492 0.49892 0.0
C1041 C 0.23641 0.3311 0.529 0.0
C1042 C 0.2152 0.31581 0.48221 0.0
C1043 C 0.20926 0.29187 0.49551 0.0
C1044 C 0.2161 0.2881 0.52603 0.0
C1045 C 0.22906 0.30793 0.54252 0.0
C1046 C 0.20723 0.32101 0.45015 0.0
C1047 C 0.21128 0.26264 0.54088 0.0
C1048 C 0.15715 0.2419 0.46325 0.0
C1049 C 0.17687 0.22603 0.44793 0.0
C1050 C 0.16708 0.2643 0.47728 0.0
C1051 C 0.19767 0.27022 0.47727 0.0
C1052 C 0.21758 0.25431 0.46144 0.0
C1053 C 0.20683 0.23267 0.4465 0.0
C1054 C 0.14494 0.28121 0.49284 0.0
C1055 C 0.25049 0.25926 0.46175 0.0
H1056 H 0.23534 0.35278 0.48842 0.0
H1057 H 0.23509 0.30477 0.56561 0.0
H1058 H 0.22176 0.30975 0.43522 0.0
H1059 H 0.1841 0.31507 0.44567 0.0
H1060 H 0.20966 0.34146 0.44436 0.0
H1061 H 0.21764 0.26285 0.56478 0.0
H1062 H 0.18773 0.25695 0.53916 0.0
H1063 H 0.22452 0.24783 0.52931 0.0
H1064 H 0.13401 0.2366 0.46454 0.0
H1065 H 0.22217 0.22005 0.43522 0.0
H1066 H 0.14861 0.30141 0.48662 0.0
H1067 H 0.14786 0.27973 0.5173 0.0
H1068 H 0.12179 0.27594 0.48732 0.0
H1069 H 0.25527 0.27868 0.45339 0.0
H1070 H 0.26292 0.24534 0.44795 0.0
H1071 H 0.25885 0.25823 0.48497 0.0
C1072 C 0.86415 0.74575 0.05514 0.0
C1073 C 0.84708 0.72378 0.05959 0.0
C1074 C 0.85136 0.76826 0.044 0.0
C1075 C 0.82098 0.76854 0.03621 0.0
C1076 C 0.80346 0.74668 0.04168 0.0
C1077 C 0.81659 0.72476 0.05374 0.0
C1078 C 0.87058 0.79142 0.03953 0.0
C1079 C 0.77114 0.74589 0.03316 0.0
C1080 C 0.77633 0.82863 0.02108 0.0
C1081 C 0.77671 0.82965 0.98984 0.0
C1082 C 0.79211 0.80976 0.03661 0.0
C1083 C 0.80781 0.79091 0.02049 0.0
C1084 C 0.80896 0.79232 0.98896 0.0
C1085 C 0.79376 0.81189 0.97406 0.0
C1086 C 0.79103 0.80944 0.07021 0.0
C1087 C 0.8248 0.7723 0.97083 0.0
H1088 H 0.88768 0.74518 0.05971 0.0
H1089 H 0.8032 0.70787 0.05691 0.0
H1090 H 0.87392 0.79475 0.01537 0.0
H1091 H 0.85961 0.80858 0.04881 0.0
H1092 H 0.89261 0.78924 0.05021 0.0
H1093 H 0.76038 0.72771 0.03968 0.0
H1094 H 0.75903 0.76182 0.04382 0.0
H1095 H 0.76891 0.74825 0.00869 0.0
H1096 H 0.76316 0.84233 0.03337 0.0
H1097 H 0.7938 0.81235 0.94992 0.0
H1098 H 0.81356 0.80687 0.07953 0.0
H1099 H 0.77741 0.79314 0.07785 0.0
H1100 H 0.78136 0.82722 0.07944 0.0
H1101 H 0.84812 0.77056 0.97821 0.0
H1102 H 0.82455 0.77662 0.9466 0.0
H1103 H 0.81412 0.75352 0.97438 0.0
C1104 C 0.75026 0.20568 0.50057 0.0
C1105 C 0.74542 0.18035 0.5093 0.0
C1106 C 0.73461 0.22587 0.51367 0.0
C1107 C 0.71287 0.22072 0.53556 0.0
C1108 C 0.70695 0.19512 0.54362 0.0
C1109 C 0.72362 0.17526 0.53073 0.0
C1110 C 0.74219 0.25284 0.5048 0.0
C1111 C 0.68336 0.18876 0.56618 0.0
C1112 C 0.69667 0.27569 0.58854 0.0
C1113 C 0.67307 0.28788 0.57414 0.0
C1114 C 0.70916 0.25326 0.57685 0.0
C1115 C 0.69727 0.24236 0.55054 0.0
C1116 C 0.67222 0.25374 0.53702 0.0
C1117 C 0.66073 0.27654 0.5487 0.0
C1118 C 0.73626 0.24218 0.59161 0.0
C1119 C 0.65834 0.24244 0.50944 0.0
H1120 H 0.76727 0.20993 0.48431 0.0
H1121 H 0.71973 0.15577 0.53758 0.0
H1122 H 0.72226 0.26266 0.49613 0.0
H1123 H 0.74985 0.26363 0.52462 0.0
H1124 H 0.75975 0.25362 0.4875 0.0
H1125 H 0.6797 0.16792 0.56815 0.0
H1126 H 0.68978 0.19628 0.58835 0.0
H1127 H 0.66217 0.198 0.55995 0.0
H1128 H 0.70654 0.28447 0.60801 0.0
H1129 H 0.64242 0.28583 0.5375 0.0
H1130 H 0.75551 0.24401 0.57642 0.0
H1131 H 0.73306 0.2216 0.59604 0.0
H1132 H 0.74163 0.25187 0.61294 0.0
H1133 H 0.67335 0.24511 0.49015 0.0
H1134 H 0.63674 0.25144 0.5041 0.0
H1135 H 0.65497 0.22166 0.51229 0.0
C1136 C 0.8549 0.27598 0.96158 0.0
C1137 C 0.83644 0.29082 0.94352 0.0
C1138 C 0.84422 0.25385 0.97557 0.0
C1139 C 0.81399 0.24717 0.9726 0.0
C1140 C 0.79542 0.26193 0.9539 0.0
C1141 C 0.80704 0.2833 0.93914 0.0
C1142 C 0.86505 0.23813 0.99431 0.0
C1143 C 0.76283 0.25615 0.95095 0.0
C1144 C 0.78202 0.18279 0.99513 0.0
C1145 C 0.77205 0.18786 0.02407 0.0
C1146 C 0.79724 0.20146 0.97866 0.0
C1147 C 0.80111 0.22613 0.99089 0.0
C1148 C 0.79113 0.23119 0.02025 0.0
C1149 C 0.77726 0.21182 0.03667 0.0
C1150 C 0.80857 0.19496 0.94796 0.0
C1151 C 0.7937 0.25742 0.0338 0.0
H1152 H 0.87761 0.28191 0.9651 0.0
H1153 H 0.7926 0.29511 0.92568 0.0
H1154 H 0.85967 0.24067 0.01823 0.0
H1155 H 0.86248 0.2176 0.98904 0.0
H1156 H 0.88852 0.24363 0.99081 0.0
H1157 H 0.7516 0.26903 0.93492 0.0
H1158 H 0.7595 0.23623 0.94355 0.0
H1159 H 0.75197 0.25816 0.97301 0.0
H1160 H 0.77773 0.16428 0.98534 0.0
H1161 H 0.76895 0.21586 0.05885 0.0
H1162 H 0.83192 0.20115 0.94555 0.0
H1163 H 0.79545 0.20524 0.93092 0.0
H1164 H 0.80718 0.17423 0.94326 0.0
H1165 H 0.81717 0.2635 0.03441 0.0
H1166 H 0.78467 0.25823 0.0568 0.0
H1167 H 0.78155 0.27137 0.01984 0.0
C1168 C 0.72741 0.8362 0.47873 0.0
C1169 C 0.74832 0.83154 0.50118 0.0
C1170 C 0.71144 0.81608 0.46553 0.0
C1171 C 0.71714 0.79064 0.47438 0.0
C1172 C 0.73804 0.7859 0.49722 0.0
C1173 C 0.75301 0.80635 0.51055 0.0
C1174 C 0.68874 0.82199 0.44189 0.0
C1175 C 0.74532 0.75911 0.50703 0.0
C1176 C 0.66516 0.73473 0.46184 0.0
C1177 C 0.67826 0.72253 0.43734 0.0
C1178 C 0.67636 0.75785 0.47286 0.0
C1179 C 0.70185 0.76872 0.45966 0.0
C1180 C 0.71446 0.75699 0.43417 0.0
C1181 C 0.70228 0.73421 0.42309 0.0
C1182 C 0.66173 0.76998 0.49956 0.0
C1183 C 0.74201 0.76757 0.41978 0.0
H1184 H 0.72366 0.85558 0.47135 0.0
H1185 H 0.76936 0.80242 0.52759 0.0
H1186 H 0.6958 0.81374 0.42028 0.0
H1187 H 0.66723 0.81315 0.44776 0.0
H1188 H 0.68542 0.84279 0.43896 0.0
H1189 H 0.76242 0.75865 0.52479 0.0
H1190 H 0.72514 0.74953 0.51547 0.0
H1191 H 0.75344 0.74789 0.48773 0.0
H1192 H 0.64652 0.72582 0.4729 0.0
H1193 H 0.7127 0.72474 0.40436 0.0
H1194 H 0.65862 0.79069 0.49585 0.0
H1195 H 0.67611 0.76772 0.5194 0.0
H1196 H 0.63989 0.76126 0.50455 0.0
H1197 H 0.73919 0.78809 0.41477 0.0
H1198 H 0.74775 0.75743 0.39883 0.0
H1199 H 0.76089 0.76583 0.43546 0.0
C1200 C 0.37853 0.05354 0.039 0.0
C1201 C 0.35695 0.05889 0.06059 0.0
C1202 C 0.37713 0.03148 0.02146 0.0
C1203 C 0.3532 0.0144 0.0251 0.0
C1204 C 0.33148 0.01948 0.04718 0.0
C1205 C 0.33377 0.04159 0.06492 0.0
C1206 C 0.40119 0.02661 0.9988 0.0
C1207 C 0.30543 1.00193 0.05148 0.0
C1208 C 0.3398 0.97035 0.95866 0.0
C1209 C 0.35373 0.94788 0.96806 0.0
C1210 C 0.33836 0.99186 0.97745 0.0
C1211 C 0.35158 0.99103 1.00612 0.0
C1212 C 0.36538 0.96833 0.01577 0.0
C1213 C 0.3661 0.9471 0.99681 0.0
C1214 C 0.32311 0.01561 0.96646 0.0
C1215 C 0.38029 0.96668 0.04583 0.0
H1216 H 0.39654 0.06687 0.0356 0.0
H1217 H 0.31681 0.04589 0.08124 0.0
H1218 H 0.4116 0.00782 1.00298 0.0
H1219 H 0.39156 0.02603 0.97609 0.0
H1220 H 0.41869 0.04145 0.9993 0.0
H1221 H 0.29061 0.00837 0.06973 0.0
H1222 H 0.29244 1.00084 0.03054 0.0
H1223 H 0.31322 0.98239 0.05657 0.0
H1224 H 0.32998 0.97114 0.93665 0.0
H1225 H 0.37699 0.92994 1.00447 0.0
H1226 H 0.33953 0.03113 0.9638 0.0
H1227 H 0.30656 0.02215 0.98306 0.0
H1228 H 0.31182 0.01258 0.94477 0.0
H1229 H 0.39904 0.98029 0.04674 0.0
H1230 H 0.38887 0.94728 0.0506 0.0
H1231 H 0.3646 0.9721 0.06373 0.0
C1232 C 0.17627 0.97355 0.56288 0.0
C1233 C 0.15837 0.95295 0.55451 0.0
C1234 C 0.17825 0.99549 0.54487 0.0
C1235 C 0.16141 0.9971 0.51825 0.0
C1236 C 0.14329 0.97635 0.50981 0.0
C1237 C 0.14223 0.95455 0.52782 0.0
C1238 C 0.19821 0.01702 0.5544 0.0
C1239 C 0.12435 0.97741 0.48211 0.0
C1240 C 0.13921 0.0625 0.48975 0.0
C1241 C 0.1577 0.0657 0.46487 0.0
C1242 C 0.14038 0.04042 0.50726 0.0
C1243 C 0.16096 0.02104 0.50021 0.0
C1244 C 0.1799 0.02416 0.47525 0.0
C1245 C 0.17783 0.04635 0.45765 0.0
C1246 C 0.11922 0.03773 0.53312 0.0
C1247 C 0.20246 1.00411 0.46727 0.0
H1248 H 0.18902 0.97239 0.58329 0.0
H1249 H 0.12817 0.93884 0.52116 0.0
H1250 H 0.21354 0.02206 0.53602 0.0
H1251 H 0.1848 0.03418 0.55937 0.0
H1252 H 0.21143 0.01214 0.57447 0.0
H1253 H 0.11205 0.9594 0.47823 0.0
H1254 H 0.10814 0.99319 0.48406 0.0
H1255 H 0.13826 0.98137 0.4623 0.0
H1256 H 0.12341 0.07724 0.49544 0.0
H1257 H 0.19236 0.04878 0.43866 0.0
H1258 H 0.1317 0.03499 0.55415 0.0
H1259 H 0.10516 0.02063 0.52991 0.0
H1260 H 0.10461 0.05459 0.5357 0.0
H1261 H 0.21703 1.00033 0.48667 0.0
H1262 H 0.2164 0.00983 0.44802 0.0
H1263 H 0.19115 0.98599 0.46172 0.0
C1264 C 0.71566 0.95052 0.99938 0.0
C1265 C 0.69751 0.94501 0.97488 0.0
C1266 C 0.71671 0.97523 0.01153 0.0
C1267 C 0.69878 0.99472 0.99924 0.0
C1268 C 0.68027 0.98917 0.97466 0.0
C1269 C 0.68005 0.96452 0.96267 0.0
C1270 C 0.73703 0.98051 0.03748 0.0
C1271 C 0.66033 0.0092 0.96125 0.0
C1272 C 0.67743 0.0508 0.0482 0.0
C1273 C 0.69554 0.07033 0.03711 0.0
C1274 C 0.67838 0.02618 0.03616 0.0
C1275 C 0.69831 0.02069 0.01272 0.0
C1276 C 0.71687 0.04024 1.00153 0.0
C1277 C 0.71505 0.06492 0.01367 0.0
C1278 C 0.65773 1.0061 0.04831 0.0
C1279 C 0.73872 0.03503 0.97685 0.0
H1280 H 0.72938 0.93563 0.00878 0.0
H1281 H 0.66582 0.96047 0.94382 0.0
H1282 H 0.75216 0.99645 0.03195 0.0
H1283 H 0.7239 0.98646 0.05716 0.0
H1284 H 0.75049 0.96362 0.04365 0.0
H1285 H 0.64742 1.00184 0.94202 0.0
H1286 H 0.64465 0.01629 0.97836 0.0
H1287 H 0.67363 0.02571 0.95366 0.0
H1288 H 0.66216 0.05481 0.06623 0.0
H1289 H 0.7293 0.07984 1.00518 0.0
H1290 H 0.6706 0.98965 0.05674 0.0
H1291 H 0.64317 0.99894 0.03024 0.0
H1292 H 0.64361 0.01344 0.06667 0.0
H1293 H 0.75364 0.01919 0.98334 0.0
H1294 H 0.75237 0.05198 0.97143 0.0
H1295 H 0.72682 0.02895 0.95644 0.0
C1296 C 0.7914 0.06338 0.49615 0.0
C1297 C 0.81129 0.0683 0.47289 0.0
C1298 C 0.78947 0.03894 0.509 0.0
C1299 C 0.80831 0.01917 0.49878 0.0
C1300 C 0.82859 0.02418 0.4755 0.0
C1301 C 0.82963 0.04852 0.46273 0.0
C1302 C 0.76726 0.03425 0.53348 0.0
C1303 C 0.84963 1.00395 0.46438 0.0
C1304 C 0.82777 0.96487 0.55111 0.0
C1305 C 0.81119 0.94453 0.53949 0.0
C1306 C 0.82672 0.98919 0.5383 0.0
C1307 C 0.80824 0.99361 0.51341 0.0
C1308 C 0.79112 0.97329 0.50169 0.0
C1309 C 0.79302 0.94891 0.51469 0.0
C1310 C 0.84589 0.01005 0.55113 0.0
C1311 C 0.77085 0.97734 0.47542 0.0
H1312 H 0.77698 0.07847 0.50393 0.0
H1313 H 0.84522 0.05213 0.44489 0.0
H1314 H 0.75281 0.01796 0.52746 0.0
H1315 H 0.77891 0.02907 0.55437 0.0
H1316 H 0.75318 0.05117 0.53786 0.0
H1317 H 0.86377 0.01082 0.44582 0.0
H1318 H 0.86417 0.99758 0.48285 0.0
H1319 H 0.83709 0.98707 0.4566 0.0
H1320 H 0.84205 0.96175 0.57016 0.0
H1321 H 0.77995 0.93339 0.50573 0.0
H1322 H 0.83205 0.02653 0.55776 0.0
H1323 H 0.86166 0.01687 0.53395 0.0
H1324 H 0.85869 1.0036 0.57086 0.0
H1325 H 0.75534 0.99322 0.48012 0.0
H1326 H 0.75782 0.96002 0.46996 0.0
H1327 H 0.78398 0.9828 0.45555 0.0
C1328 C 0.87609 0.45484 0.98329 0.0
C1329 C 0.85628 0.45076 0.95966 0.0
C1330 C 0.87434 0.47666 1.00122 0.0
C1331 C 0.85181 0.4948 0.99591 0.0
C1332 C 0.83162 0.49082 0.97213 0.0
C1333 C 0.83431 0.46897 0.95404 0.0
C1334 C 0.89684 0.48038 0.02573 0.0
C1335 C 0.807 0.5095 0.96607 0.0
C1336 C 0.83626 0.54007 0.06076 0.0
C1337 C 0.85184 0.5619 0.05199 0.0
C1338 C 0.83508 0.51839 0.04224 0.0
C1339 C 0.85037 0.51834 0.01462 0.0
C1340 C 0.86607 0.54035 1.00572 0.0
C1341 C 0.86639 0.56183 0.0243 0.0
C1342 C 0.81769 0.49545 0.05231 0.0
C1343 C 0.8833 0.541 0.97689 0.0
H1344 H 0.89327 0.44094 0.9877 0.0
H1345 H 0.81875 0.46578 0.93605 0.0
H1346 H 0.90901 0.49846 0.02219 0.0
H1347 H 0.88553 0.48183 0.04759 0.0
H1348 H 0.91311 0.46455 0.0268 0.0
H1349 H 0.7926 0.50331 0.94736 0.0
H1350 H 0.79318 0.51184 0.98632 0.0
H1351 H 0.81636 0.52845 0.96064 0.0
H1352 H 0.82477 0.54001 0.08195 0.0
H1353 H 0.87866 0.5785 0.01728 0.0
H1354 H 0.83288 0.47919 0.05609 0.0
H1355 H 0.80184 0.48963 0.0347 0.0
H1356 H 0.80524 0.49914 0.07322 0.0
H1357 H 0.90099 0.52636 0.97742 0.0
H1358 H 0.89366 0.55985 0.97276 0.0
H1359 H 0.86861 0.53639 0.95786 0.0
C1360 C 0.67574 0.46798 0.56173 0.0
C1361 C 0.65502 0.44901 0.55489 0.0
C1362 C 0.67787 0.49024 0.54428 0.0
C1363 C 0.65831 0.49387 0.5199 0.0
C1364 C 0.63706 0.47491 0.51329 0.0
C1365 C 0.63591 0.45269 0.5306 0.0
C1366 C 0.70119 0.50977 0.55173 0.0
C1367 C 0.61523 0.47818 0.4881 0.0
C1368 C 0.64143 0.56099 0.49297 0.0
C1369 C 0.65702 0.56222 0.46591 0.0
C1370 C 0.64201 0.53907 0.51083 0.0
C1371 C 0.65909 0.51783 0.50188 0.0
C1372 C 0.67539 0.51905 0.47489 0.0
C1373 C 0.6739 0.54112 0.45706 0.0
C1374 C 0.62369 0.53846 0.53897 0.0
C1375 C 0.69428 0.49699 0.4648 0.0
H1376 H 0.69075 0.46516 0.58027 0.0
H1377 H 0.61965 0.43823 0.52524 0.0
H1378 H 0.71542 0.51322 0.53199 0.0
H1379 H 0.69057 0.52815 0.55752 0.0
H1380 H 0.71539 0.50374 0.57064 0.0
H1381 H 0.59995 0.46172 0.48599 0.0
H1382 H 0.60189 0.49565 0.49174 0.0
H1383 H 0.62717 0.48059 0.46671 0.0
H1384 H 0.62817 0.5771 0.50003 0.0
H1385 H 0.68621 0.54195 0.43636 0.0
H1386 H 0.63792 0.53413 0.55844 0.0
H1387 H 0.60693 0.52308 0.5374 0.0
H1388 H 0.61208 0.55676 0.54314 0.0
H1389 H 0.70987 0.49147 0.48276 0.0
H1390 H 0.70716 0.50153 0.44441 0.0
H1391 H 0.6801 0.48023 0.46014 0.0
C1392 C 0.2193 0.56618 0.01619 0.0
C1393 C 0.19574 0.57224 0.03519 0.0
C1394 C 0.22227 0.54148 1.00432 0.0
C1395 C 0.20073 0.5227 0.01101 0.0
C1396 C 0.17648 0.52905 0.02953 0.0
C1397 C 0.17451 0.55359 0.04168 0.0
C1398 C 0.24875 0.5353 0.98518 0.0
C1399 C 0.15256 0.5099 0.03658 0.0
C1400 C 0.19058 0.46599 0.95942 0.0
C1401 C 0.20302 0.44601 0.97605 0.0
C1402 C 0.19017 0.49103 0.9703 0.0
C1403 C 0.20302 0.49649 0.99831 0.0
C1404 C 0.21638 0.47659 0.0149 0.0
C1405 C 0.21593 0.45153 1.00372 0.0
C1406 C 0.17508 0.51149 0.95219 0.0
C1407 C 0.23077 0.48174 0.04464 0.0
H1408 H 0.23595 0.58048 0.01149 0.0
H1409 H 0.15619 0.55824 0.0563 0.0
H1410 H 0.2615 0.5195 0.99538 0.0
H1411 H 0.24143 0.52875 0.96288 0.0
H1412 H 0.26367 0.55192 0.98231 0.0
H1413 H 0.13471 0.51811 0.05063 0.0
H1414 H 0.1426 0.50265 0.01563 0.0
H1415 H 0.1622 0.49334 0.04843 0.0
H1416 H 0.18038 0.462 0.93808 0.0
H1417 H 0.22575 0.43629 0.01664 0.0
H1418 H 0.19049 0.52752 0.94808 0.0
H1419 H 0.15598 0.51921 0.96483 0.0
H1420 H 0.16698 0.50428 0.93039 0.0
H1421 H 0.247 0.49748 0.04256 0.0
H1422 H 0.24226 0.46469 0.05361 0.0
H1423 H 0.21379 0.48787 0.06097 0.0
C1424 C 0.3314 0.55473 0.4666 0.0
C1425 C 0.31323 0.57455 0.47697 0.0
C1426 C 0.3302 0.53035 0.47919 0.0
C1427 C 0.30999 0.52536 0.50252 0.0
C1428 C 0.29144 0.54521 0.51307 0.0
C1429 C 0.29348 0.56967 0.50035 0.0
C1430 C 0.35089 0.50999 0.4677 0.0
C1431 C 0.26935 0.54053 0.53766 0.0
C1432 C 0.29324 0.45524 0.51705 0.0
C1433 C 0.31151 0.45018 0.54158 0.0
C1434 C 0.29182 0.47983 0.50459 0.0
C1435 C 0.30946 0.49965 0.51664 0.0
C1436 C 0.328 0.49456 0.54129 0.0
C1437 C 0.32864 0.47003 0.55354 0.0
C1438 C 0.2715 0.4846 0.47851 0.0
C1439 C 0.34766 0.51493 0.55446 0.0
H1440 H 0.34689 0.55832 0.44865 0.0
H1441 H 0.27919 0.5848 0.50827 0.0
H1442 H 0.36529 0.50315 0.48605 0.0
H1443 H 0.33803 0.49341 0.45957 0.0
H1444 H 0.36517 0.51693 0.44928 0.0
H1445 H 0.25578 0.55765 0.5426 0.0
H1446 H 0.25439 0.52467 0.53137 0.0
H1447 H 0.28103 0.53472 0.55829 0.0
H1448 H 0.27975 0.4401 0.50786 0.0
H1449 H 0.34296 0.46636 0.57243 0.0
H1450 H 0.28466 0.49016 0.4587 0.0
H1451 H 0.25636 0.50065 0.48363 0.0
H1452 H 0.25807 0.46759 0.47276 0.0
H1453 H 0.36355 0.5217 0.53738 0.0
H1454 H 0.36034 0.508 0.57405 0.0
H1455 H 0.3342 0.53155 0.56142 0.0
C1456 C 0.58883 0.14465 0.11132 0.0
C1457 C 0.60416 0.13849 0.08511 0.0
C1458 C 0.55772 0.14544 0.11185 0.0
C1459 C 0.54153 0.13944 0.08573 0.0
C1460 C 0.5569 0.13324 0.05923 0.0
C1461 C 0.58795 0.13307 0.05917 0.0
C1462 C 0.54215 0.15253 0.14043 0.0
C1463 C 0.54055 0.1262 0.03106 0.0
C1464 C 0.46321 0.1145 0.09526 0.0
C1465 C 0.44602 0.13563 0.08709 0.0
C1466 C 0.49421 0.11549 0.09474 0.0
C1467 C 0.50854 0.13835 0.08642 0.0
C1468 C 0.49136 0.15984 0.0783 0.0
C1469 C 0.46027 0.15814 0.07842 0.0
C1470 C 0.51162 0.09196 0.10293 0.0
C1471 C 0.50582 0.18468 0.0698 0.0
H1472 H 0.60116 0.14907 0.13137 0.0
H1473 H 0.59953 0.1282 0.03881 0.0
H1474 H 0.52664 0.16854 0.13639 0.0
H1475 H 0.52883 0.1362 0.14848 0.0
H1476 H 0.55788 0.15815 0.15827 0.0
H1477 H 0.55577 0.12234 0.01216 0.0
H1478 H 0.52688 0.10899 0.03502 0.0
H1479 H 0.52528 0.14176 0.02456 0.0
H1480 H 0.4524 0.09695 0.10182 0.0
H1481 H 0.44711 0.17459 0.07235 0.0
H1482 H 0.52604 0.09597 0.12236 0.0
H1483 H 0.52623 0.08641 0.08415 0.0
H1484 H 0.49709 0.07558 0.10848 0.0
H1485 H 0.52026 0.19135 0.08821 0.0
H1486 H 0.48937 0.19978 0.06472 0.0
H1487 H 0.52012 0.18189 0.04998 0.0
C1488 C 0.92108 0.88514 0.56265 0.0
C1489 C 0.90512 0.88084 0.58902 0.0
C1490 C 0.95212 0.88512 0.56243 0.0
C1491 C 0.96775 0.8803 0.58916 0.0
C1492 C 0.95184 0.87566 0.61582 0.0
C1493 C 0.92071 0.87619 0.61549 0.0
C1494 C 0.96818 0.89061 0.53364 0.0
C1495 C 0.96771 0.87015 0.64469 0.0
C1496 C 0.04857 0.86018 0.58261 0.0
C1497 C 0.06332 0.88295 0.58936 0.0
C1498 C 0.01746 0.85893 0.58276 0.0
C1499 C 1.00074 0.88107 0.58934 0.0
C1500 C 0.01555 0.90417 0.5957 0.0
C1501 C 0.04656 0.90478 0.59584 0.0
C1502 C 1.00248 0.83386 0.57625 0.0
C1503 C 0.99862 0.92832 0.6023 0.0
H1504 H 0.9093 0.88883 0.54207 0.0
H1505 H 0.9086 0.87265 0.63591 0.0
H1506 H 0.98218 0.90781 0.53629 0.0
H1507 H 0.98311 0.87456 0.52797 0.0
H1508 H 0.95276 0.89374 0.51472 0.0
H1509 H 0.95216 0.86596 0.6632 0.0
H1510 H 0.98277 0.85365 0.64179 0.0
H1511 H 0.98156 0.88669 0.6511 0.0
H1512 H 0.06133 0.84319 0.57783 0.0
H1513 H 0.05772 0.92251 0.60097 0.0
H1514 H 0.98787 0.83579 0.55653 0.0
H1515 H 0.98829 0.82833 0.59534 0.0
H1516 H 0.01861 0.81833 0.57195 0.0
H1517 H 0.98385 0.93299 0.58333 0.0
H1518 H 0.01347 0.94479 0.60644 0.0
H1519 H 0.98438 0.92557 0.62216 0.0
C1520 C 0.46338 0.85572 0.93477 0.0
C1521 C 0.4488 0.87875 0.92889 0.0
C1522 C 0.49446 0.85423 0.93425 0.0
C1523 C 0.51134 0.87636 0.92818 0.0
C1524 C 0.49672 0.8997 0.92263 0.0
C1525 C 0.46571 0.90057 0.92285 0.0
C1526 C 0.50925 0.82893 0.93992 0.0
C1527 C 0.51383 0.92385 0.91658 0.0
C1528 C 0.59103 0.8799 0.9548 0.0
C1529 C 0.60695 0.87624 0.92826 0.0
C1530 C 0.56 0.87971 0.9551 0.0
C1531 C 0.54433 0.87541 0.92829 0.0
C1532 C 0.56019 0.87127 0.90148 0.0
C1533 C 0.59131 0.87193 0.90173 0.0
C1534 C 0.54398 0.88463 0.98408 0.0
C1535 C 0.54426 0.86631 0.87249 0.0
H1536 H 0.45049 0.83874 0.93918 0.0
H1537 H 0.4547 0.91849 0.91837 0.0
H1538 H 0.52338 0.82373 0.92064 0.0
H1539 H 0.52391 0.83032 0.95967 0.0
H1540 H 0.49301 0.81341 0.94374 0.0
H1541 H 0.49911 0.94048 0.91285 0.0
H1542 H 0.52865 0.92812 0.93564 0.0
H1543 H 0.52803 0.92134 0.89664 0.0
H1544 H 0.6028 0.88332 0.97545 0.0
H1545 H 0.60338 0.86891 0.88116 0.0
H1546 H 0.52888 0.86858 0.98921 0.0
H1547 H 0.53019 0.90201 0.98203 0.0
H1548 H 0.55943 0.88717 1.0031 0.0
H1549 H 0.52898 0.84993 0.87503 0.0
H1550 H 0.55977 0.86224 0.8539 0.0
H1551 H 0.53064 0.8831 0.86643 0.0
C1552 C 0.04757 0.11273 0.41995 0.0
C1553 C 0.06323 0.13475 0.42808 0.0
C1554 C 0.01654 0.11244 0.41919 0.0
C1555 C 1.00062 0.13486 0.42623 0.0
C1556 C 0.01624 0.15722 0.43429 0.0
C1557 C 0.04736 0.15684 0.43539 0.0
C1558 C 1.00079 0.08806 0.41106 0.0
C1559 C 1.00009 0.1816 0.44152 0.0
C1560 C 0.92092 0.13871 0.39872 0.0
C1561 C 0.90499 0.13302 0.42469 0.0
C1562 C 0.95203 0.13981 0.39898 0.0
C1563 C 0.9676 0.13465 0.42572 0.0
C1564 C 0.95162 0.12867 0.45191 0.0
C1565 C 0.92059 0.12814 0.45114 0.0
C1566 C 0.96825 0.14661 0.37069 0.0
C1567 C 0.96732 0.12257 0.48074 0.0
H1568 H 0.0596 0.09552 0.41438 0.0
H1569 H 0.05927 0.17398 0.44144 0.0
H1570 H 0.98589 0.08225 0.42949 0.0
H1571 H 0.9868 0.09109 0.39107 0.0
H1572 H 0.01641 0.07222 0.40642 0.0
H1573 H 0.01546 0.1975 0.44664 0.0
H1574 H 0.98591 0.18722 0.42244 0.0
H1575 H 0.98531 0.17865 0.46094 0.0
H1576 H 0.90907 0.1427 0.37826 0.0
H1577 H 0.90853 0.12362 0.47133 0.0
H1578 H 0.98292 0.1307 0.36395 0.0
H1579 H 0.98254 0.16347 0.37457 0.0
H1580 H 0.95291 0.15086 0.35201 0.0
H1581 H 0.98214 0.10595 0.47752 0.0
H1582 H 0.95166 0.11822 0.49912 0.0
H1583 H 0.98138 0.13885 0.48759 0.0
C1584 C 0.08762 0.64045 0.11284 0.0
C1585 C 0.10327 0.63724 0.08611 0.0
C1586 C 0.05649 0.64081 0.11316 0.0
C1587 C 0.04063 0.6375 0.08619 0.0
C1588 C 0.05631 0.63433 0.05917 0.0
C1589 C 0.08735 0.63442 0.05942 0.0
C1590 C 0.04055 0.64454 0.1424 0.0
C1591 C 0.04031 0.6303 0.03 0.0
C1592 C 0.96265 0.61097 0.09143 0.0
C1593 C 0.9452 0.63274 0.08688 0.0
C1594 C 0.99363 0.61227 0.09102 0.0
C1595 C 0.00768 0.63601 0.08638 0.0
C1596 C 0.99024 0.65807 0.08162 0.0
C1597 C 0.95918 0.65614 0.08167 0.0
C1598 C 0.01132 0.58819 0.09562 0.0
C1599 C 1.00442 0.68377 0.07697 0.0
H1600 H 0.09968 0.64282 0.13352 0.0
H1601 H 0.09915 0.63187 0.03861 0.0
H1602 H 0.02488 0.66073 0.14066 0.0
H1603 H 0.02736 0.62734 0.14773 0.0
H1604 H 0.05604 0.64826 0.16112 0.0
H1605 H 0.05575 0.62878 0.01082 0.0
H1606 H 0.02695 0.61261 0.03116 0.0
H1607 H 0.02479 0.64625 0.0258 0.0
H1608 H 0.95207 0.59276 0.09534 0.0
H1609 H 0.94586 0.67307 0.07844 0.0
H1610 H 0.02547 0.59009 0.11568 0.0
H1611 H 0.02622 0.58499 0.07633 0.0
H1612 H 0.997 0.57117 0.09837 0.0
H1613 H 0.01831 0.68867 0.09653 0.0
H1614 H 0.9878 0.69909 0.07367 0.0
H1615 H 0.0192 0.68321 0.05727 0.0
C1616 C 0.54481 0.35786 0.58298 0.0
C1617 C 0.56067 0.37977 0.59099 0.0
C1618 C 0.51368 0.35755 0.58381 0.0
C1619 C 0.49805 0.37979 0.59234 0.0
C1620 C 0.51397 0.40199 0.60019 0.0
C1621 C 0.545 0.40165 0.59965 0.0
C1622 C 0.4975 0.33339 0.57568 0.0
C1623 C 0.49823 0.42626 0.60885 0.0
C1624 C 0.41878 0.38792 0.5658 0.0
C1625 C 0.40247 0.38275 0.59173 0.0
C1626 C 0.44979 0.38696 0.56572 0.0
C1627 C 0.46504 0.38023 0.5921 0.0
C1628 C 0.44876 0.37473 0.61831 0.0
C1629 C 0.41766 0.37628 0.6179 0.0
C1630 C 0.46625 0.39347 0.53745 0.0
C1631 C 0.4642 0.36713 0.64676 0.0
H1632 H 0.55672 0.34082 0.57653 0.0
H1633 H 0.55701 0.41872 0.60578 0.0
H1634 H 0.48281 0.32756 0.59426 0.0
H1635 H 0.48323 0.33675 0.55596 0.0
H1636 H 0.51286 0.31747 0.57057 0.0
H1637 H 0.51386 0.44186 0.61444 0.0
H1638 H 0.48384 0.43266 0.59028 0.0
H1639 H 0.48373 0.42281 0.62837 0.0
H1640 H 0.40731 0.39306 0.54547 0.0
H1641 H 0.40524 0.37205 0.63795 0.0
H1642 H 0.48032 0.37722 0.53052 0.0
H1643 H 0.48114 0.40991 0.54146 0.0
H1644 H 0.45109 0.39829 0.5188 0.0
H1645 H 0.4784 0.35025 0.6427 0.0
H1646 H 0.44836 0.36258 0.66491 0.0
H1647 H 0.47887 0.38276 0.65437 0.0
C1648 C 0.09114 0.39303 0.95021 0.0
C1649 C 0.10868 0.38401 0.92664 0.0
C1650 C 0.06017 0.39276 0.94852 0.0
C1651 C 0.04621 0.38294 0.92276 0.0
C1652 C 0.06373 0.37412 0.89866 0.0
C1653 C 0.09479 0.37493 0.9008 0.0
C1654 C 0.0424 0.40277 0.97451 0.0
C1655 C 0.04964 0.3633 0.87093 0.0
C1656 C 0.96662 0.36081 0.93319 0.0
C1657 C 0.95062 0.38151 0.92178 0.0
C1658 C 0.99775 0.36071 0.93289 0.0
C1659 C 0.01326 0.38194 0.92127 0.0
C1660 C 0.99724 0.40282 0.90961 0.0
C1661 C 0.9662 0.40229 0.90986 0.0
C1662 C 0.01405 0.33798 0.94529 0.0
C1663 C 0.01287 0.42598 0.89741 0.0
H1664 H 0.10164 0.40022 0.97023 0.0
H1665 H 0.10817 0.36773 0.88261 0.0
H1666 H 0.02726 0.41807 0.96691 0.0
H1667 H 0.02849 0.38734 0.98389 0.0
H1668 H 0.05665 0.41045 0.99257 0.0
H1669 H 0.0663 0.35764 0.85397 0.0
H1670 H 0.03619 0.34637 0.8768 0.0
H1671 H 0.03445 0.37747 0.86088 0.0
H1672 H 0.95485 0.3446 0.94225 0.0
H1673 H 0.95414 0.41843 0.901 0.0
H1674 H 0.02727 0.3438 0.96497 0.0
H1675 H 0.02974 0.33045 0.92844 0.0
H1676 H 0.99881 0.32244 0.95206 0.0
H1677 H 0.02609 0.43509 0.9153 0.0
H1678 H 0.9972 0.44028 0.88829 0.0
H1679 H 0.02847 0.42032 0.87952 0.0
C1680 C 0.54946 0.65739 0.43548 0.0
C1681 C 0.5636 0.63414 0.42973 0.0
C1682 C 0.51841 0.65937 0.43462 0.0
C1683 C 0.50113 0.63749 0.42838 0.0
C1684 C 0.51532 0.61392 0.42303 0.0
C1685 C 0.5463 0.61258 0.42355 0.0
C1686 C 0.5041 0.68492 0.44005 0.0
C1687 C 0.49777 0.59002 0.41687 0.0
C1688 C 0.4211 0.63542 0.45416 0.0
C1689 C 0.40553 0.63924 0.42744 0.0
C1690 C 0.45212 0.63504 0.45478 0.0
C1691 C 0.46816 0.63896 0.42812 0.0
C1692 C 0.45267 0.64323 0.40112 0.0
C1693 C 0.42153 0.64311 0.40105 0.0
C1694 C 0.46771 0.62996 0.48395 0.0
C1695 C 0.46901 0.64781 0.37229 0.0
H1696 H 0.56266 0.67418 0.43998 0.0
H1697 H 0.557 0.59449 0.41918 0.0
H1698 H 0.49032 0.69028 0.42058 0.0
H1699 H 0.48918 0.68382 0.45963 0.0
H1700 H 0.52063 0.70019 0.44403 0.0
H1701 H 0.51218 0.57314 0.41341 0.0
H1702 H 0.48263 0.58607 0.43576 0.0
H1703 H 0.48388 0.59266 0.39674 0.0
H1704 H 0.40902 0.63232 0.4747 0.0
H1705 H 0.40972 0.64625 0.38036 0.0
H1706 H 0.48307 0.6458 0.48922 0.0
H1707 H 0.48119 0.61238 0.48208 0.0
H1708 H 0.45201 0.62769 0.5028 0.0
H1709 H 0.48458 0.66398 0.37493 0.0
H1710 H 0.45378 0.65203 0.35351 0.0
H1711 H 0.48235 0.63081 0.36645 0.0
C1712 C 0.30178 0.11518 0.21235 0.0
C1713 C 0.29476 0.09668 0.19088 0.0
C1714 C 0.28758 0.11566 0.24024 0.0
C1715 C 0.26479 0.09795 0.24647 0.0
C1716 C 0.25673 0.07991 0.22437 0.0
C1717 C 0.27224 0.07913 0.19713 0.0
C1718 C 0.29769 0.13463 0.26339 0.0
C1719 C 0.23177 0.06135 0.22953 0.0
C1720 C 0.2433 0.08179 0.32671 0.0
C1721 C 0.21933 0.0982 0.33163 0.0
C1722 C 0.25887 0.08205 0.29948 0.0
C1723 C 0.24944 0.09831 0.27609 0.0
C1724 C 0.22518 0.11486 0.28099 0.0
C1725 C 0.21091 0.11501 0.30883 0.0
C1726 C 0.28534 0.06484 0.29571 0.0
C1727 C 0.21362 0.13185 0.25648 0.0
H1728 H 0.31933 0.12869 0.20788 0.0
H1729 H 0.26669 0.06481 0.18065 0.0
H1730 H 0.27911 0.14722 0.26991 0.0
H1731 H 0.30497 0.12442 0.28376 0.0
H1732 H 0.31624 0.14667 0.25534 0.0
H1733 H 0.2267 0.04991 0.20935 0.0
H1734 H 0.23761 0.04817 0.24789 0.0
H1735 H 0.21149 0.07173 0.23639 0.0
H1736 H 0.24994 0.06878 0.34422 0.0
H1737 H 0.19223 0.1276 0.31226 0.0
H1738 H 0.30471 0.07604 0.28806 0.0
H1739 H 0.28068 0.05033 0.27839 0.0
H1740 H 0.29128 0.0549 0.31671 0.0
H1741 H 0.23115 0.14514 0.24901 0.0
H1742 H 0.1941 0.14316 0.26363 0.0
H1743 H 0.20726 0.12011 0.23693 0.0
C1744 C 0.26557 0.88591 0.82585 0.0
C1745 C 0.28995 0.90148 0.83245 0.0
C1746 C 0.25186 0.88667 0.79767 0.0
C1747 C 0.2627 0.90342 0.77542 0.0
C1748 C 0.28672 0.9197 0.78224 0.0
C1749 C 0.29996 0.91858 0.81057 0.0
C1750 C 0.22619 0.86909 0.79144 0.0
C1751 C 0.29893 0.93793 0.75934 0.0
C1752 C 0.24627 0.88681 0.69415 0.0
C1753 C 0.2219 0.90248 0.68789 0.0
C1754 C 0.26 0.88718 0.72234 0.0
C1755 C 0.24918 0.90363 0.74493 0.0
C1756 C 0.22515 0.92001 0.73846 0.0
C1757 C 0.2119 0.91928 0.71012 0.0
C1758 C 0.28568 0.86951 0.7282 0.0
C1759 C 0.21295 0.93793 0.76173 0.0
H1760 H 0.25766 0.87257 0.84245 0.0
H1761 H 0.31862 0.93085 0.81535 0.0
H1762 H 0.20676 0.88022 0.7838 0.0
H1763 H 0.23212 0.85573 0.77325 0.0
H1764 H 0.2197 0.85784 0.81135 0.0
H1765 H 0.31715 0.94984 0.76837 0.0
H1766 H 0.30741 0.92714 0.73988 0.0
H1767 H 0.28113 0.95066 0.75112 0.0
H1768 H 0.25418 0.87371 0.67728 0.0
H1769 H 0.19324 0.93163 0.7056 0.0
H1770 H 0.27976 0.8559 0.74613 0.0
H1771 H 0.30511 0.88052 0.73606 0.0
H1772 H 0.29215 0.85853 0.70807 0.0
H1773 H 0.2045 0.92688 0.78098 0.0
H1774 H 0.19471 0.94996 0.75296 0.0
H1775 H 0.23075 0.95054 0.77019 0.0
C1776 C 0.74545 0.82496 0.82589 0.0
C1777 C 0.72227 0.84237 0.83009 0.0
C1778 C 0.75915 0.82223 0.79788 0.0
C1779 C 0.74923 0.83709 0.7735 0.0
C1780 C 0.72457 0.85342 0.77723 0.0
C1781 C 0.71152 0.85594 0.80544 0.0
C1782 C 0.7854 0.80468 0.79489 0.0
C1783 C 0.71298 0.8694 0.75181 0.0
C1784 C 0.80098 0.85984 0.71253 0.0
C1785 C 0.7924 0.84471 0.68824 0.0
C1786 C 0.78828 0.85652 0.74078 0.0
C1787 C 0.76618 0.83774 0.74494 0.0
C1788 C 0.75854 0.82148 0.72094 0.0
C1789 C 0.77185 0.82508 0.69288 0.0
C1790 C 0.7974 0.87409 0.7658 0.0
C1791 C 0.73504 0.80131 0.72439 0.0
H1792 H 0.75402 0.81451 0.84483 0.0
H1793 H 0.69349 0.86931 0.80843 0.0
H1794 H 0.78335 0.79274 0.77459 0.0
H1795 H 0.80585 0.81617 0.79252 0.0
H1796 H 0.78791 0.79203 0.81455 0.0
H1797 H 0.69196 0.8792 0.75758 0.0
H1798 H 0.72962 0.88403 0.74577 0.0
H1799 H 0.70922 0.85739 0.73183 0.0
H1800 H 0.81701 0.87492 0.70923 0.0
H1801 H 0.76498 0.81336 0.67424 0.0
H1802 H 0.80291 0.86296 0.78604 0.0
H1803 H 0.77872 0.88688 0.77157 0.0
H1804 H 0.81678 0.88602 0.75976 0.0
H1805 H 0.73886 0.79001 0.74489 0.0
H1806 H 0.73433 0.78819 0.70498 0.0
H1807 H 0.71309 0.81056 0.72664 0.0
C1808 C 0.77201 0.18729 0.31964 0.0
C1809 C 0.79258 0.16762 0.32401 0.0
C1810 C 0.75834 0.19091 0.29177 0.0
C1811 C 0.76566 0.17466 0.26766 0.0
C1812 C 0.78774 0.15581 0.27153 0.0
C1813 C 0.80079 0.15246 0.29963 0.0
C1814 C 0.73483 0.21112 0.28864 0.0
C1815 C 0.79654 0.13827 0.24637 0.0
C1816 C 0.7102 0.15716 0.20758 0.0
C1817 C 0.72065 0.17098 0.183 0.0
C1818 C 0.72367 0.15931 0.23564 0.0
C1819 C 0.74846 0.1755 0.23926 0.0
C1820 C 0.75815 0.19054 0.21495 0.0
C1821 C 0.74402 0.1882 0.18711 0.0
C1822 C 0.71231 0.14316 0.261 0.0
C1823 C 0.78457 0.20792 0.21781 0.0
H1824 H 0.76541 0.19903 0.33836 0.0
H1825 H 0.81683 0.13734 0.30273 0.0
H1826 H 0.73856 0.22257 0.26823 0.0
H1827 H 0.71286 0.2019 0.28638 0.0
H1828 H 0.7342 0.22411 0.30817 0.0
H1829 H 0.81595 0.12627 0.25217 0.0
H1830 H 0.77776 0.12555 0.24076 0.0
H1831 H 0.80188 0.14943 0.22611 0.0
H1832 H 0.69204 0.14391 0.20465 0.0
H1833 H 0.75238 0.19883 0.16821 0.0
H1834 H 0.7088 0.15501 0.28116 0.0
H1835 H 0.72897 0.12844 0.26672 0.0
H1836 H 0.69121 0.13344 0.25536 0.0
H1837 H 0.78273 0.21983 0.23815 0.0
H1838 H 0.78707 0.22059 0.19817 0.0
H1839 H 0.80494 0.19629 0.22004 0.0
C1840 C 0.74638 0.62644 0.32593 0.0
C1841 C 0.72227 0.61069 0.33287 0.0
C1842 C 0.76007 0.62537 0.29775 0.0
C1843 C 0.74952 0.60808 0.27591 0.0
C1844 C 0.72584 0.59157 0.28313 0.0
C1845 C 0.71257 0.59305 0.31142 0.0
C1846 C 0.78532 0.64326 0.29104 0.0
C1847 C 0.71399 0.57272 0.2607 0.0
C1848 C 0.76467 0.62378 0.19422 0.0
C1849 C 0.78944 0.60855 0.188 0.0
C1850 C 0.75126 0.62356 0.22256 0.0
C1851 C 0.76278 0.60769 0.24532 0.0
C1852 C 0.78721 0.59173 0.23892 0.0
C1853 C 0.80019 0.59234 0.21043 0.0
C1854 C 0.72519 0.64082 0.22837 0.0
C1855 C 0.80009 0.57437 0.26237 0.0
H1856 H 0.75403 0.64019 0.3422 0.0
H1857 H 0.6941 0.58064 0.3165 0.0
H1858 H 0.80493 0.63235 0.28343 0.0
H1859 H 0.77896 0.65629 0.27268 0.0
H1860 H 0.7917 0.65487 0.31071 0.0
H1861 H 0.69622 0.56055 0.27013 0.0
H1862 H 0.70499 0.58304 0.24113 0.0
H1863 H 0.73209 0.56029 0.25253 0.0
H1864 H 0.75619 0.63644 0.1772 0.0
H1865 H 0.81919 0.58037 0.20595 0.0
H1866 H 0.73089 0.65474 0.24606 0.0
H1867 H 0.7061 0.62954 0.23653 0.0
H1868 H 0.71829 0.65144 0.20814 0.0
H1869 H 0.80852 0.58586 0.2813 0.0
H1870 H 0.8185 0.56252 0.2536 0.0
H1871 H 0.78269 0.56159 0.27128 0.0
C1872 C 0.73977 0.43401 0.69283 0.0
C1873 C 0.71631 0.4171 0.68779 0.0
C1874 C 0.75547 0.43381 0.71997 0.0
C1875 C 0.74673 0.41701 0.7431 0.0
C1876 C 0.72298 0.39997 0.73809 0.0
C1877 C 0.7085 0.39987 0.71038 0.0
C1878 C 0.78136 0.45162 0.72391 0.0
C1879 C 0.71224 0.38232 0.76233 0.0
C1880 C 0.80055 0.40011 0.80542 0.0
C1881 C 0.79314 0.41786 0.82763 0.0
C1882 C 0.78595 0.39989 0.77777 0.0
C1883 C 0.76247 0.41714 0.77246 0.0
C1884 C 0.75409 0.43444 0.79524 0.0
C1885 C 0.76991 0.43495 0.8223 0.0
C1886 C 0.79633 0.38168 0.7539 0.0
C1887 C 0.72847 0.4525 0.79098 0.0
H1888 H 0.74591 0.44736 0.67549 0.0
H1889 H 0.69018 0.38691 0.70687 0.0
H1890 H 0.7765 0.46554 0.74184 0.0
H1891 H 0.80126 0.44074 0.73082 0.0
H1892 H 0.78658 0.46225 0.70318 0.0
H1893 H 0.69296 0.37072 0.75516 0.0
H1894 H 0.73026 0.36926 0.76921 0.0
H1895 H 0.70582 0.39355 0.78226 0.0
H1896 H 0.81869 0.38701 0.80913 0.0
H1897 H 0.76407 0.44869 0.83934 0.0
H1898 H 0.80297 0.3925 0.73375 0.0
H1899 H 0.77805 0.3688 0.74728 0.0
H1900 H 0.81537 0.36991 0.7613 0.0
H1901 H 0.73356 0.46611 0.77282 0.0
H1902 H 0.72342 0.46349 0.81152 0.0
H1903 H 0.70841 0.44177 0.78425 0.0
C1904 C 0.28771 0.3698 0.71183 0.0
C1905 C 0.28759 0.35098 0.68957 0.0
C1906 C 0.27266 0.36637 0.73882 0.0
C1907 C 0.25754 0.34325 0.74426 0.0
C1908 C 0.2589 0.32346 0.72279 0.0
C1909 C 0.27373 0.32762 0.69557 0.0
C1910 C 0.27175 0.3881 0.76091 0.0
C1911 C 0.24368 0.29831 0.72805 0.0
C1912 C 0.23486 0.33798 0.82551 0.0
C1913 C 0.20621 0.34832 0.82474 0.0
C1914 C 0.25106 0.33405 0.79913 0.0
C1915 C 0.23855 0.34103 0.77138 0.0
C1916 C 0.20888 0.34966 0.77034 0.0
C1917 C 0.19301 0.35296 0.79696 0.0
C1918 C 0.28233 0.32415 0.80122 0.0
C1919 C 0.19468 0.35759 0.74133 0.0
H1920 H 0.29875 0.38776 0.7078 0.0
H1921 H 0.2736 0.31288 0.67866 0.0
H1922 H 0.24859 0.39467 0.76383 0.0
H1923 H 0.27979 0.38166 0.78299 0.0
H1924 H 0.28537 0.40458 0.75368 0.0
H1925 H 0.25048 0.2837 0.71151 0.0
H1926 H 0.2486 0.29114 0.75077 0.0
H1927 H 0.21939 0.30091 0.72647 0.0
H1928 H 0.24522 0.33413 0.84682 0.0
H1929 H 0.1709 0.36088 0.796 0.0
H1930 H 0.29806 0.34017 0.79839 0.0
H1931 H 0.28682 0.31016 0.78326 0.0
H1932 H 0.28674 0.31505 0.82311 0.0
H1933 H 0.20537 0.37528 0.73316 0.0
H1934 H 0.1706 0.36122 0.74381 0.0
H1935 H 0.19793 0.34275 0.72407 0.0
C1936 C 0.30009 0.6567 0.30285 0.0
C1937 C 0.2899 0.67111 0.32709 0.0
C1938 C 0.28684 0.6587 0.27467 0.0
C1939 C 0.26247 0.6753 0.2706 0.0
C1940 C 0.25296 0.6908 0.29461 0.0
C1941 C 0.26692 0.68865 0.32254 0.0
C1942 C 0.29802 0.64208 0.24961 0.0
C1943 C 0.22693 0.70856 0.2913 0.0
C1944 C 0.23946 0.68756 0.19016 0.0
C1945 C 0.21825 0.66842 0.1857 0.0
C1946 C 0.25334 0.69073 0.218 0.0
C1947 C 0.24554 0.67459 0.24203 0.0
C1948 C 0.22296 0.65621 0.23805 0.0
C1949 C 0.20975 0.65325 0.20996 0.0
C1950 C 0.27746 0.71039 0.22121 0.0
C1951 C 0.21362 0.63884 0.26315 0.0
H1952 H 0.31794 0.64319 0.30613 0.0
H1953 H 0.25874 0.69973 0.34118 0.0
H1954 H 0.28106 0.62761 0.24393 0.0
H1955 H 0.30197 0.65367 0.22934 0.0
H1956 H 0.31884 0.63206 0.25556 0.0
H1957 H 0.22432 0.7213 0.3109 0.0
H1958 H 0.22935 0.72042 0.27101 0.0
H1959 H 0.20637 0.69724 0.2887 0.0
H1960 H 0.24631 0.69926 0.17152 0.0
H1961 H 0.19326 0.63852 0.20678 0.0
H1962 H 0.29908 0.70067 0.22397 0.0
H1963 H 0.27377 0.72215 0.2414 0.0
H1964 H 0.27882 0.72314 0.20153 0.0
H1965 H 0.23209 0.62584 0.26892 0.0
H1966 H 0.19401 0.62715 0.25722 0.0
H1967 H 0.20837 0.65013 0.28337 0.0
loop_
_geom_bond_atom_site_label_1
_geom_bond_atom_site_label_2
_geom_bond_distance
_geom_bond_site_symmetry_2
_ccdc_geom_bond_type
Co0 O2 2.143 . S
Co0 O8 2.074 . S
Co0 O11 2.093 . S
Co0 O24 2.097 . S
Co0 N41 2.151 . S
Co0 N49 2.214 . S
Co1 O2 2.160 . S
Co1 O7 2.058 . S
Co1 O17 2.057 . S
Co1 O32 2.037 . S
Co1 N36 2.145 . S
Co1 N57 2.257 . S
O2 Co0 2.143 . S
O2 Co1 2.160 . S
C3 O4 1.278 . S
C3 O11 1.224 . S
O4 C3 1.278 . S
C5 O6 1.245 . S
C5 O17 1.232 . S
O6 C5 1.245 . S
O7 Co1 2.058 . S
O7 C33 1.269 . S
O8 Co0 2.074 . S
O8 C33 1.257 . S
H9 C34 0.930 . S
H10 C40 0.930 . S
O11 Co0 2.093 . S
O11 C3 1.224 . S
H12 C44 0.929 1_556 S
H13 C46 0.930 . S
H14 C47 0.929 . S
H15 C45 0.929 . S
H16 C48 0.928 . S
O17 Co1 2.057 . S
O17 C5 1.232 . S
H18 C37 0.929 . S
H19 C38 0.929 . S
H20 C50 0.931 . S
H21 C42 0.929 . S
H22 C51 0.930 . S
H23 C43 0.931 1_556 S
O24 Co0 2.097 . S
O24 C52 1.214 . S
H25 C53 0.929 . S
H26 C54 0.929 . S
H27 C55 0.930 . S
H28 C56 0.929 . S
H29 C58 0.930 . S
H30 C35 0.930 . S
H31 C39 0.930 . S
O32 Co1 2.037 . S
O32 C52 1.234 . S
C33 O7 1.269 . S
C33 O8 1.257 . S
C34 H9 0.930 . S
C34 C37 1.388 . S
C34 C39 1.418 . S
C35 H30 0.930 . S
C35 C38 1.404 . S
C35 C39 1.353 . S
N36 Co1 2.145 . S
N36 C37 1.397 . S
N36 C38 1.334 . S
C37 H18 0.929 . S
C37 C34 1.388 . S
C37 N36 1.397 . S
C38 H19 0.929 . S
C38 C35 1.404 . S
C38 N36 1.334 . S
C39 H31 0.930 . S
C39 C34 1.418 . S
C39 C35 1.353 . S
C40 H10 0.930 . S
C40 N41 1.330 . S
C40 C42 1.446 . S
N41 Co0 2.151 . S
N41 C40 1.330 . S
N41 C45 1.418 . S
C42 H21 0.929 . S
C42 C40 1.446 . S
C42 C43 1.332 . S
C43 H23 0.931 1_554 S
C43 C42 1.332 . S
C43 C44 1.267 . S
C44 H12 0.929 1_554 S
C44 C43 1.267 . S
C44 C45 1.251 . S
C45 H15 0.929 . S
C45 N41 1.418 . S
C45 C44 1.251 . S
C46 H13 0.930 . S
C46 C48 1.406 . S
C46 C51 1.261 . S
C47 H14 0.929 . S
C47 N49 1.325 . S
C47 C50 1.358 1_554 S
C48 H16 0.928 . S
C48 C46 1.406 . S
C48 N49 1.261 1_556 S
N49 Co0 2.214 . S
N49 C47 1.325 . S
N49 C48 1.261 1_554 S
C50 H20 0.931 . S
C50 C47 1.358 1_556 S
C50 C51 1.312 . S
C51 H22 0.930 . S
C51 C46 1.261 . S
C51 C50 1.312 . S
C52 O24 1.214 . S
C52 O32 1.234 . S
C53 H25 0.929 . S
C53 C56 1.391 . S
C53 C58 1.391 . S
C54 H26 0.929 . S
C54 C55 1.390 . S
C54 N57 1.391 . S
C55 H27 0.930 . S
C55 C54 1.390 . S
C55 C56 1.392 . S
C56 H28 0.929 . S
C56 C53 1.391 . S
C56 C55 1.392 . S
N57 Co1 2.257 . S
N57 C54 1.391 . S
N57 C58 1.388 . S
C58 H29 0.930 . S
C58 C53 1.391 . S
C58 N57 1.388 . S
Co59 O61 2.143 . S
Co59 O67 2.074 . S
Co59 O70 2.093 . S
Co59 O83 2.097 . S
Co59 N100 2.151 . S
Co59 N108 2.214 . S
Co60 O61 2.160 . S
Co60 O66 2.058 . S
Co60 O76 2.057 . S
Co60 O91 2.037 . S
Co60 N95 2.145 . S
Co60 N116 2.257 . S
O61 Co59 2.143 . S
O61 Co60 2.160 . S
C62 O63 1.278 . S
C62 O70 1.224 . S
O63 C62 1.278 . S
C64 O65 1.245 . S
C64 O76 1.232 . S
O65 C64 1.245 . S
O66 Co60 2.058 . S
O66 C92 1.269 . S
O67 Co59 2.074 . S
O67 C92 1.257 . S
H68 C93 0.930 . S
H69 C99 0.930 . S
O70 Co59 2.093 . S
O70 C62 1.224 . S
H71 C103 0.929 . S
H72 C105 0.930 . S
H73 C106 0.930 . S
H74 C104 0.929 . S
H75 C107 0.928 . S
O76 Co60 2.057 . S
O76 C64 1.232 . S
H77 C96 0.929 . S
H78 C97 0.929 . S
H79 C109 0.931 . S
H80 C101 0.929 . S
H81 C110 0.930 . S
H82 C102 0.931 . S
O83 Co59 2.097 . S
O83 C111 1.214 . S
H84 C112 0.929 . S
H85 C113 0.929 . S
H86 C114 0.930 . S
H87 C115 0.929 . S
H88 C117 0.930 . S
H89 C94 0.930 . S
H90 C98 0.930 . S
O91 Co60 2.037 . S
O91 C111 1.234 . S
C92 O66 1.269 . S
C92 O67 1.257 . S
C93 H68 0.930 . S
C93 C96 1.388 . S
C93 C98 1.418 . S
C94 H89 0.930 . S
C94 C97 1.404 . S
C94 C98 1.353 . S
N95 Co60 2.145 . S
N95 C96 1.397 . S
N95 C97 1.334 . S
C96 H77 0.929 . S
C96 C93 1.388 . S
C96 N95 1.397 . S
C97 H78 0.929 . S
C97 C94 1.404 . S
C97 N95 1.334 . S
C98 H90 0.930 . S
C98 C93 1.418 . S
C98 C94 1.353 . S
C99 H69 0.930 . S
C99 N100 1.330 . S
C99 C101 1.446 . S
N100 Co59 2.151 . S
N100 C99 1.330 . S
N100 C104 1.418 . S
C101 H80 0.929 . S
C101 C99 1.446 . S
C101 C102 1.332 . S
C102 H82 0.931 . S
C102 C101 1.332 . S
C102 C103 1.267 . S
C103 H71 0.929 . S
C103 C102 1.267 . S
C103 C104 1.251 . S
C104 H74 0.929 . S
C104 N100 1.418 . S
C104 C103 1.251 . S
C105 H72 0.930 . S
C105 C107 1.406 . S
C105 C110 1.261 . S
C106 H73 0.930 . S
C106 N108 1.325 . S
C106 C109 1.357 . S
C107 H75 0.928 . S
C107 C105 1.406 . S
C107 N108 1.261 . S
N108 Co59 2.214 . S
N108 C106 1.325 . S
N108 C107 1.261 . S
C109 H79 0.931 . S
C109 C106 1.357 . S
C109 C110 1.312 . S
C110 H81 0.930 . S
C110 C105 1.261 . S
C110 C109 1.312 . S
C111 O83 1.214 . S
C111 O91 1.234 . S
C112 H84 0.929 . S
C112 C115 1.391 . S
C112 C117 1.391 . S
C113 H85 0.929 . S
C113 C114 1.390 . S
C113 N116 1.391 . S
C114 H86 0.930 . S
C114 C113 1.390 . S
C114 C115 1.392 . S
C115 H87 0.929 . S
C115 C112 1.391 . S
C115 C114 1.392 . S
N116 Co60 2.257 . S
N116 C113 1.391 . S
N116 C117 1.388 . S
C117 H88 0.930 . S
C117 C112 1.391 . S
C117 N116 1.388 . S
Co118 O120 2.143 . S
Co118 O126 2.074 . S
Co118 O129 2.093 . S
Co118 O142 2.097 . S
Co118 N159 2.151 . S
Co118 N167 2.214 . S
Co119 O120 2.160 . S
Co119 O125 2.058 . S
Co119 O135 2.057 . S
Co119 O150 2.037 . S
Co119 N154 2.145 . S
Co119 N175 2.257 . S
O120 Co118 2.143 . S
O120 Co119 2.160 . S
C121 O122 1.278 . S
C121 O129 1.224 . S
O122 C121 1.278 . S
C123 O124 1.245 . S
C123 O135 1.232 . S
O124 C123 1.245 . S
O125 Co119 2.058 . S
O125 C151 1.269 . S
O126 Co118 2.074 . S
O126 C151 1.257 . S
H127 C152 0.930 . S
H128 C158 0.930 . S
O129 Co118 2.093 . S
O129 C121 1.224 . S
H130 C162 0.929 1_554 S
H131 C164 0.930 . S
H132 C165 0.929 . S
H133 C163 0.929 . S
H134 C166 0.928 . S
O135 Co119 2.057 . S
O135 C123 1.232 . S
H136 C155 0.929 . S
H137 C156 0.929 . S
H138 C168 0.931 . S
H139 C160 0.929 . S
H140 C169 0.930 . S
H141 C161 0.931 1_554 S
O142 Co118 2.097 . S
O142 C170 1.214 . S
H143 C171 0.929 . S
H144 C172 0.929 . S
H145 C173 0.930 . S
H146 C174 0.929 . S
H147 C176 0.930 . S
H148 C153 0.930 . S
H149 C157 0.930 . S
O150 Co119 2.037 . S
O150 C170 1.234 . S
C151 O125 1.269 . S
C151 O126 1.257 . S
C152 H127 0.930 . S
C152 C155 1.388 . S
C152 C157 1.418 . S
C153 H148 0.930 . S
C153 C156 1.404 . S
C153 C157 1.353 . S
N154 Co119 2.145 . S
N154 C155 1.397 . S
N154 C156 1.334 . S
C155 H136 0.929 . S
C155 C152 1.388 . S
C155 N154 1.397 . S
C156 H137 0.929 . S
C156 C153 1.404 . S
C156 N154 1.334 . S
C157 H149 0.930 . S
C157 C152 1.418 . S
C157 C153 1.353 . S
C158 H128 0.930 . S
C158 N159 1.330 . S
C158 C160 1.446 . S
N159 Co118 2.151 . S
N159 C158 1.330 . S
N159 C163 1.418 . S
C160 H139 0.929 . S
C160 C158 1.446 . S
C160 C161 1.332 . S
C161 H141 0.931 1_556 S
C161 C160 1.332 . S
C161 C162 1.267 . S
C162 H130 0.929 1_556 S
C162 C161 1.267 . S
C162 C163 1.251 . S
C163 H133 0.929 . S
C163 N159 1.418 . S
C163 C162 1.251 . S
C164 H131 0.930 . S
C164 C166 1.406 . S
C164 C169 1.261 . S
C165 H132 0.929 . S
C165 N167 1.325 . S
C165 C168 1.358 1_556 S
C166 H134 0.928 . S
C166 C164 1.406 . S
C166 N167 1.261 1_554 S
N167 Co118 2.214 . S
N167 C165 1.325 . S
N167 C166 1.261 1_556 S
C168 H138 0.931 . S
C168 C165 1.358 1_554 S
C168 C169 1.312 . S
C169 H140 0.930 . S
C169 C164 1.261 . S
C169 C168 1.312 . S
C170 O142 1.214 . S
C170 O150 1.234 . S
C171 H143 0.929 . S
C171 C174 1.391 . S
C171 C176 1.391 . S
C172 H144 0.929 . S
C172 C173 1.390 . S
C172 N175 1.391 . S
C173 H145 0.930 . S
C173 C172 1.390 . S
C173 C174 1.392 . S
C174 H146 0.929 . S
C174 C171 1.391 . S
C174 C173 1.392 . S
N175 Co119 2.257 . S
N175 C172 1.391 . S
N175 C176 1.388 . S
C176 H147 0.930 . S
C176 C171 1.391 . S
C176 N175 1.388 . S
Co177 O179 2.143 . S
Co177 O185 2.074 . S
Co177 O188 2.093 . S
Co177 O201 2.097 . S
Co177 N218 2.151 . S
Co177 N226 2.214 . S
Co178 O179 2.160 . S
Co178 O184 2.058 . S
Co178 O194 2.057 . S
Co178 O209 2.037 . S
Co178 N213 2.145 . S
Co178 N234 2.257 . S
O179 Co177 2.143 . S
O179 Co178 2.160 . S
C180 O181 1.278 . S
C180 O188 1.224 . S
O181 C180 1.278 . S
C182 O183 1.245 . S
C182 O194 1.232 . S
O183 C182 1.245 . S
O184 Co178 2.058 . S
O184 C210 1.269 . S
O185 Co177 2.074 . S
O185 C210 1.257 . S
H186 C211 0.930 . S
H187 C217 0.930 . S
O188 Co177 2.093 . S
O188 C180 1.224 . S
H189 C221 0.929 . S
H190 C223 0.930 . S
H191 C224 0.930 . S
H192 C222 0.929 . S
H193 C225 0.928 . S
O194 Co178 2.057 . S
O194 C182 1.232 . S
H195 C214 0.929 . S
H196 C215 0.929 . S
H197 C227 0.931 . S
H198 C219 0.929 . S
H199 C228 0.930 . S
H200 C220 0.931 . S
O201 Co177 2.097 . S
O201 C229 1.214 . S
H202 C230 0.929 . S
H203 C231 0.929 . S
H204 C232 0.930 . S
H205 C233 0.929 . S
H206 C235 0.930 . S
H207 C212 0.930 . S
H208 C216 0.930 . S
O209 Co178 2.037 . S
O209 C229 1.234 . S
C210 O184 1.269 . S
C210 O185 1.257 . S
C211 H186 0.930 . S
C211 C214 1.388 . S
C211 C216 1.418 . S
C212 H207 0.930 . S
C212 C215 1.404 . S
C212 C216 1.353 . S
N213 Co178 2.145 . S
N213 C214 1.397 . S
N213 C215 1.334 . S
C214 H195 0.929 . S
C214 C211 1.388 . S
C214 N213 1.397 . S
C215 H196 0.929 . S
C215 C212 1.404 . S
C215 N213 1.334 . S
C216 H208 0.930 . S
C216 C211 1.418 . S
C216 C212 1.353 . S
C217 H187 0.930 . S
C217 N218 1.330 . S
C217 C219 1.446 . S
N218 Co177 2.151 . S
N218 C217 1.330 . S
N218 C222 1.418 . S
C219 H198 0.929 . S
C219 C217 1.446 . S
C219 C220 1.332 . S
C220 H200 0.931 . S
C220 C219 1.332 . S
C220 C221 1.267 . S
C221 H189 0.929 . S
C221 C220 1.267 . S
C221 C222 1.251 . S
C222 H192 0.929 . S
C222 N218 1.418 . S
C222 C221 1.251 . S
C223 H190 0.930 . S
C223 C225 1.406 . S
C223 C228 1.261 . S
C224 H191 0.930 . S
C224 N226 1.325 . S
C224 C227 1.357 . S
C225 H193 0.928 . S
C225 C223 1.406 . S
C225 N226 1.261 . S
N226 Co177 2.214 . S
N226 C224 1.325 . S
N226 C225 1.261 . S
C227 H197 0.931 . S
C227 C224 1.357 . S
C227 C228 1.312 . S
C228 H199 0.930 . S
C228 C223 1.261 . S
C228 C227 1.312 . S
C229 O201 1.214 . S
C229 O209 1.234 . S
C230 H202 0.929 . S
C230 C233 1.391 . S
C230 C235 1.391 . S
C231 H203 0.929 . S
C231 C232 1.390 . S
C231 N234 1.391 . S
C232 H204 0.930 . S
C232 C231 1.390 . S
C232 C233 1.392 . S
C233 H205 0.929 . S
C233 C230 1.391 . S
C233 C232 1.392 . S
N234 Co178 2.257 . S
N234 C231 1.391 . S
N234 C235 1.388 . S
C235 H206 0.930 . S
C235 C230 1.391 . S
C235 N234 1.388 . S
Co236 O238 2.143 . S
Co236 O244 2.074 . S
Co236 O247 2.093 . S
Co236 O260 2.097 . S
Co236 N277 2.151 . S
Co236 N285 2.214 . S
Co237 O238 2.160 . S
Co237 O243 2.058 . S
Co237 O253 2.057 . S
Co237 O268 2.037 . S
Co237 N272 2.145 . S
Co237 N293 2.257 . S
O238 Co236 2.143 . S
O238 Co237 2.160 . S
C239 O240 1.278 . S
C239 O247 1.224 . S
O240 C239 1.278 . S
C241 O242 1.245 . S
C241 O253 1.232 . S
O242 C241 1.245 . S
O243 Co237 2.058 . S
O243 C269 1.269 . S
O244 Co236 2.074 . S
O244 C269 1.257 . S
H245 C270 0.930 . S
H246 C276 0.930 . S
O247 Co236 2.093 . S
O247 C239 1.224 . S
H248 C280 0.929 . S
H249 C282 0.930 . S
H250 C283 0.930 . S
H251 C281 0.929 . S
H252 C284 0.928 . S
O253 Co237 2.057 . S
O253 C241 1.232 . S
H254 C273 0.929 . S
H255 C274 0.929 . S
H256 C286 0.931 . S
H257 C278 0.929 . S
H258 C287 0.930 . S
H259 C279 0.931 . S
O260 Co236 2.097 . S
O260 C288 1.214 . S
H261 C289 0.929 . S
H262 C290 0.929 . S
H263 C291 0.930 . S
H264 C292 0.929 . S
H265 C294 0.930 . S
H266 C271 0.930 . S
H267 C275 0.930 . S
O268 Co237 2.037 . S
O268 C288 1.234 . S
C269 O243 1.269 . S
C269 O244 1.257 . S
C270 H245 0.930 . S
C270 C273 1.388 1_554 S
C270 C275 1.418 . S
C271 H266 0.930 . S
C271 C274 1.404 . S
C271 C275 1.353 . S
N272 Co237 2.145 . S
N272 C273 1.397 . S
N272 C274 1.334 1_556 S
C273 H254 0.929 . S
C273 C270 1.388 1_556 S
C273 N272 1.397 . S
C274 H255 0.929 . S
C274 C271 1.404 . S
C274 N272 1.334 1_554 S
C275 H267 0.930 . S
C275 C270 1.418 . S
C275 C271 1.353 . S
C276 H246 0.930 . S
C276 N277 1.330 . S
C276 C278 1.446 . S
N277 Co236 2.151 . S
N277 C276 1.330 . S
N277 C281 1.418 . S
C278 H257 0.929 . S
C278 C276 1.446 . S
C278 C279 1.332 . S
C279 H259 0.931 . S
C279 C278 1.332 . S
C279 C280 1.267 . S
C280 H248 0.929 . S
C280 C279 1.267 . S
C280 C281 1.251 . S
C281 H251 0.929 . S
C281 N277 1.418 . S
C281 C280 1.251 . S
C282 H249 0.930 . S
C282 C284 1.406 . S
C282 C287 1.261 . S
C283 H250 0.930 . S
C283 N285 1.325 . S
C283 C286 1.357 . S
C284 H252 0.928 . S
C284 C282 1.406 . S
C284 N285 1.261 . S
N285 Co236 2.214 . S
N285 C283 1.325 . S
N285 C284 1.261 . S
C286 H256 0.931 . S
C286 C283 1.357 . S
C286 C287 1.312 . S
C287 H258 0.930 . S
C287 C282 1.261 . S
C287 C286 1.312 . S
C288 O260 1.214 . S
C288 O268 1.234 . S
C289 H261 0.929 . S
C289 C292 1.391 . S
C289 C294 1.391 . S
C290 H262 0.929 . S
C290 C291 1.390 . S
C290 N293 1.391 . S
C291 H263 0.930 . S
C291 C290 1.390 . S
C291 C292 1.392 . S
C292 H264 0.929 . S
C292 C289 1.391 . S
C292 C291 1.392 . S
N293 Co237 2.257 . S
N293 C290 1.391 . S
N293 C294 1.388 . S
C294 H265 0.930 . S
C294 C289 1.391 . S
C294 N293 1.388 . S
Co295 O297 2.143 . S
Co295 O303 2.074 . S
Co295 O306 2.093 . S
Co295 O319 2.097 . S
Co295 N336 2.151 . S
Co295 N344 2.214 . S
Co296 O297 2.160 . S
Co296 O302 2.058 . S
Co296 O312 2.057 . S
Co296 O327 2.037 . S
Co296 N331 2.145 . S
Co296 N352 2.257 . S
O297 Co295 2.143 . S
O297 Co296 2.160 . S
C298 O299 1.278 . S
C298 O306 1.224 . S
O299 C298 1.278 . S
C300 O301 1.245 . S
C300 O312 1.232 . S
O301 C300 1.245 . S
O302 Co296 2.058 . S
O302 C328 1.269 . S
O303 Co295 2.074 . S
O303 C328 1.257 . S
H304 C329 0.930 . S
H305 C335 0.930 . S
O306 Co295 2.093 . S
O306 C298 1.224 . S
H307 C339 0.929 . S
H308 C341 0.930 . S
H309 C342 0.930 . S
H310 C340 0.929 . S
H311 C343 0.928 . S
O312 Co296 2.057 . S
O312 C300 1.232 . S
H313 C332 0.929 . S
H314 C333 0.929 . S
H315 C345 0.931 . S
H316 C337 0.929 . S
H317 C346 0.930 . S
H318 C338 0.931 . S
O319 Co295 2.097 . S
O319 C347 1.214 . S
H320 C348 0.929 . S
H321 C349 0.929 . S
H322 C350 0.930 . S
H323 C351 0.929 . S
H324 C353 0.930 . S
H325 C330 0.930 . S
H326 C334 0.930 . S
O327 Co296 2.037 . S
O327 C347 1.234 . S
C328 O302 1.269 . S
C328 O303 1.257 . S
C329 H304 0.930 . S
C329 C332 1.388 . S
C329 C334 1.418 . S
C330 H325 0.930 . S
C330 C333 1.404 . S
C330 C334 1.353 . S
N331 Co296 2.145 . S
N331 C332 1.397 . S
N331 C333 1.334 . S
C332 H313 0.929 . S
C332 C329 1.388 . S
C332 N331 1.397 . S
C333 H314 0.929 . S
C333 C330 1.404 . S
C333 N331 1.334 . S
C334 H326 0.930 . S
C334 C329 1.418 . S
C334 C330 1.353 . S
C335 H305 0.930 . S
C335 N336 1.330 . S
C335 C337 1.446 . S
N336 Co295 2.151 . S
N336 C335 1.330 . S
N336 C340 1.418 . S
C337 H316 0.929 . S
C337 C335 1.446 . S
C337 C338 1.332 . S
C338 H318 0.931 . S
C338 C337 1.332 . S
C338 C339 1.267 . S
C339 H307 0.929 . S
C339 C338 1.267 . S
C339 C340 1.251 . S
C340 H310 0.929 . S
C340 N336 1.418 . S
C340 C339 1.251 . S
C341 H308 0.930 . S
C341 C343 1.406 . S
C341 C346 1.261 . S
C342 H309 0.930 . S
C342 N344 1.325 . S
C342 C345 1.357 . S
C343 H311 0.928 . S
C343 C341 1.406 . S
C343 N344 1.261 . S
N344 Co295 2.214 . S
N344 C342 1.325 . S
N344 C343 1.261 . S
C345 H315 0.931 . S
C345 C342 1.357 . S
C345 C346 1.312 . S
C346 H317 0.930 . S
C346 C341 1.261 . S
C346 C345 1.312 . S
C347 O319 1.214 . S
C347 O327 1.234 . S
C348 H320 0.929 . S
C348 C351 1.391 . S
C348 C353 1.391 . S
C349 H321 0.929 . S
C349 C350 1.390 . S
C349 N352 1.391 . S
C350 H322 0.930 . S
C350 C349 1.390 . S
C350 C351 1.392 . S
C351 H323 0.929 . S
C351 C348 1.391 . S
C351 C350 1.392 . S
N352 Co296 2.257 . S
N352 C349 1.391 . S
N352 C353 1.388 . S
C353 H324 0.930 . S
C353 C348 1.391 . S
C353 N352 1.388 . S
Co354 O356 2.143 . S
Co354 O362 2.074 . S
Co354 O365 2.093 . S
Co354 O378 2.097 . S
Co354 N395 2.151 . S
Co354 N403 2.214 . S
Co355 O356 2.160 . S
Co355 O361 2.058 . S
Co355 O371 2.057 . S
Co355 O386 2.037 . S
Co355 N390 2.145 . S
Co355 N411 2.257 . S
O356 Co354 2.143 . S
O356 Co355 2.160 . S
C357 O358 1.278 . S
C357 O365 1.224 . S
O358 C357 1.278 . S
C359 O360 1.245 . S
C359 O371 1.232 . S
O360 C359 1.245 . S
O361 Co355 2.058 . S
O361 C387 1.269 . S
O362 Co354 2.074 . S
O362 C387 1.257 . S
H363 C388 0.930 . S
H364 C394 0.930 . S
O365 Co354 2.093 . S
O365 C357 1.224 . S
H366 C398 0.929 . S
H367 C400 0.930 . S
H368 C401 0.930 . S
H369 C399 0.929 . S
H370 C402 0.928 . S
O371 Co355 2.057 . S
O371 C359 1.232 . S
H372 C391 0.929 . S
H373 C392 0.929 . S
H374 C404 0.931 . S
H375 C396 0.929 . S
H376 C405 0.930 . S
H377 C397 0.931 . S
O378 Co354 2.097 . S
O378 C406 1.214 . S
H379 C407 0.929 . S
H380 C408 0.929 . S
H381 C409 0.930 . S
H382 C410 0.929 . S
H383 C412 0.930 . S
H384 C389 0.930 . S
H385 C393 0.930 . S
O386 Co355 2.037 . S
O386 C406 1.234 . S
C387 O361 1.269 . S
C387 O362 1.257 . S
C388 H363 0.930 . S
C388 C391 1.388 1_556 S
C388 C393 1.418 . S
C389 H384 0.930 . S
C389 C392 1.404 . S
C389 C393 1.353 . S
N390 Co355 2.145 . S
N390 C391 1.397 . S
N390 C392 1.334 1_554 S
C391 H372 0.929 . S
C391 C388 1.388 1_554 S
C391 N390 1.397 . S
C392 H373 0.929 . S
C392 C389 1.404 . S
C392 N390 1.334 1_556 S
C393 H385 0.930 . S
C393 C388 1.418 . S
C393 C389 1.353 . S
C394 H364 0.930 . S
C394 N395 1.330 . S
C394 C396 1.446 . S
N395 Co354 2.151 . S
N395 C394 1.330 . S
N395 C399 1.418 . S
C396 H375 0.929 . S
C396 C394 1.446 . S
C396 C397 1.332 . S
C397 H377 0.931 . S
C397 C396 1.332 . S
C397 C398 1.267 . S
C398 H366 0.929 . S
C398 C397 1.267 . S
C398 C399 1.251 . S
C399 H369 0.929 . S
C399 N395 1.418 . S
C399 C398 1.251 . S
C400 H367 0.930 . S
C400 C402 1.406 . S
C400 C405 1.261 . S
C401 H368 0.930 . S
C401 N403 1.325 . S
C401 C404 1.357 . S
C402 H370 0.928 . S
C402 C400 1.406 . S
C402 N403 1.261 . S
N403 Co354 2.214 . S
N403 C401 1.325 . S
N403 C402 1.261 . S
C404 H374 0.931 . S
C404 C401 1.357 . S
C404 C405 1.312 . S
C405 H376 0.930 . S
C405 C400 1.261 . S
C405 C404 1.312 . S
C406 O378 1.214 . S
C406 O386 1.234 . S
C407 H379 0.929 . S
C407 C410 1.391 . S
C407 C412 1.391 . S
C408 H380 0.929 . S
C408 C409 1.390 . S
C408 N411 1.391 . S
C409 H381 0.930 . S
C409 C408 1.390 . S
C409 C410 1.392 . S
C410 H382 0.929 . S
C410 C407 1.391 . S
C410 C409 1.392 . S
N411 Co355 2.257 . S
N411 C408 1.391 . S
N411 C412 1.388 . S
C412 H383 0.930 . S
C412 C407 1.391 . S
C412 N411 1.388 . S
Co413 O415 2.143 . S
Co413 O421 2.074 . S
Co413 O424 2.093 . S
Co413 O437 2.097 . S
Co413 N454 2.151 . S
Co413 N462 2.214 . S
Co414 O415 2.160 . S
Co414 O420 2.058 . S
Co414 O430 2.057 . S
Co414 O445 2.037 . S
Co414 N449 2.145 . S
Co414 N470 2.257 . S
O415 Co413 2.143 . S
O415 Co414 2.160 . S
C416 O417 1.278 . S
C416 O424 1.224 . S
O417 C416 1.278 . S
C418 O419 1.245 . S
C418 O430 1.232 . S
O419 C418 1.245 . S
O420 Co414 2.058 . S
O420 C446 1.269 . S
O421 Co413 2.074 . S
O421 C446 1.257 . S
H422 C447 0.930 . S
H423 C453 0.930 . S
O424 Co413 2.093 . S
O424 C416 1.224 . S
H425 C457 0.929 . S
H426 C459 0.930 . S
H427 C460 0.930 . S
H428 C458 0.929 . S
H429 C461 0.928 . S
O430 Co414 2.057 . S
O430 C418 1.232 . S
H431 C450 0.929 . S
H432 C451 0.929 . S
H433 C463 0.931 . S
H434 C455 0.929 . S
H435 C464 0.930 . S
H436 C456 0.931 . S
O437 Co413 2.097 . S
O437 C465 1.214 . S
H438 C466 0.929 . S
H439 C467 0.929 . S
H440 C468 0.930 . S
H441 C469 0.929 . S
H442 C471 0.930 . S
H443 C448 0.930 . S
H444 C452 0.930 . S
O445 Co414 2.037 . S
O445 C465 1.234 . S
C446 O420 1.269 . S
C446 O421 1.257 . S
C447 H422 0.930 . S
C447 C450 1.388 . S
C447 C452 1.418 . S
C448 H443 0.930 . S
C448 C451 1.404 . S
C448 C452 1.353 . S
N449 Co414 2.145 . S
N449 C450 1.397 . S
N449 C451 1.334 . S
C450 H431 0.929 . S
C450 C447 1.388 . S
C450 N449 1.397 . S
C451 H432 0.929 . S
C451 C448 1.404 . S
C451 N449 1.334 . S
C452 H444 0.930 . S
C452 C447 1.418 . S
C452 C448 1.353 . S
C453 H423 0.930 . S
C453 N454 1.330 . S
C453 C455 1.446 . S
N454 Co413 2.151 . S
N454 C453 1.330 . S
N454 C458 1.418 . S
C455 H434 0.929 . S
C455 C453 1.446 . S
C455 C456 1.332 . S
C456 H436 0.931 . S
C456 C455 1.332 . S
C456 C457 1.267 . S
C457 H425 0.929 . S
C457 C456 1.267 . S
C457 C458 1.251 . S
C458 H428 0.929 . S
C458 N454 1.418 . S
C458 C457 1.251 . S
C459 H426 0.930 . S
C459 C461 1.406 . S
C459 C464 1.261 . S
C460 H427 0.930 . S
C460 N462 1.325 . S
C460 C463 1.357 . S
C461 H429 0.928 . S
C461 C459 1.406 . S
C461 N462 1.261 . S
N462 Co413 2.214 . S
N462 C460 1.325 . S
N462 C461 1.261 . S
C463 H433 0.931 . S
C463 C460 1.357 . S
C463 C464 1.312 . S
C464 H435 0.930 . S
C464 C459 1.261 . S
C464 C463 1.312 . S
C465 O437 1.214 . S
C465 O445 1.234 . S
C466 H438 0.929 . S
C466 C469 1.391 . S
C466 C471 1.391 . S
C467 H439 0.929 . S
C467 C468 1.390 . S
C467 N470 1.391 . S
C468 H440 0.930 . S
C468 C467 1.390 . S
C468 C469 1.392 . S
C469 H441 0.929 . S
C469 C466 1.391 . S
C469 C468 1.392 . S
N470 Co414 2.257 . S
N470 C467 1.391 . S
N470 C471 1.388 . S
C471 H442 0.930 . S
C471 C466 1.391 . S
C471 N470 1.388 . S
Co472 O474 2.143 . S
Co472 O480 2.074 . S
Co472 O483 2.093 . S
Co472 O496 2.097 . S
Co472 N513 2.151 . S
Co472 N521 2.214 . S
Co473 O474 2.160 . S
Co473 O479 2.058 . S
Co473 O489 2.057 . S
Co473 O504 2.037 . S
Co473 N508 2.145 . S
Co473 N529 2.257 . S
O474 Co472 2.143 . S
O474 Co473 2.160 . S
C475 O476 1.278 . S
C475 O483 1.224 . S
O476 C475 1.278 . S
C477 O478 1.245 . S
C477 O489 1.232 . S
O478 C477 1.245 . S
O479 Co473 2.058 . S
O479 C505 1.269 . S
O480 Co472 2.074 . S
O480 C505 1.257 . S
H481 C506 0.930 . S
H482 C512 0.930 . S
O483 Co472 2.093 . S
O483 C475 1.224 . S
H484 C516 0.929 1_556 S
H485 C518 0.930 . S
H486 C519 0.929 . S
H487 C517 0.929 . S
H488 C520 0.928 . S
O489 Co473 2.057 . S
O489 C477 1.232 . S
H490 C509 0.929 . S
H491 C510 0.929 . S
H492 C522 0.931 . S
H493 C514 0.929 . S
H494 C523 0.930 . S
H495 C515 0.931 1_556 S
O496 Co472 2.097 . S
O496 C524 1.214 . S
H497 C525 0.929 . S
H498 C526 0.929 . S
H499 C527 0.930 . S
H500 C528 0.929 . S
H501 C530 0.930 . S
H502 C507 0.930 . S
H503 C511 0.930 . S
O504 Co473 2.037 . S
O504 C524 1.234 . S
C505 O479 1.269 . S
C505 O480 1.257 . S
C506 H481 0.930 . S
C506 C509 1.388 . S
C506 C511 1.418 . S
C507 H502 0.930 . S
C507 C510 1.404 . S
C507 C511 1.353 . S
N508 Co473 2.145 . S
N508 C509 1.397 . S
N508 C510 1.334 . S
C509 H490 0.929 . S
C509 C506 1.388 . S
C509 N508 1.397 . S
C510 H491 0.929 . S
C510 C507 1.404 . S
C510 N508 1.334 . S
C511 H503 0.930 . S
C511 C506 1.418 . S
C511 C507 1.353 . S
C512 H482 0.930 . S
C512 N513 1.330 . S
C512 C514 1.446 . S
N513 Co472 2.151 . S
N513 C512 1.330 . S
N513 C517 1.418 . S
C514 H493 0.929 . S
C514 C512 1.446 . S
C514 C515 1.332 . S
C515 H495 0.931 1_554 S
C515 C514 1.332 . S
C515 C516 1.267 . S
C516 H484 0.929 1_554 S
C516 C515 1.267 . S
C516 C517 1.251 . S
C517 H487 0.929 . S
C517 N513 1.418 . S
C517 C516 1.251 . S
C518 H485 0.930 . S
C518 C520 1.406 . S
C518 C523 1.261 . S
C519 H486 0.929 . S
C519 N521 1.325 . S
C519 C522 1.358 1_554 S
C520 H488 0.928 . S
C520 C518 1.406 . S
C520 N521 1.261 1_556 S
N521 Co472 2.214 . S
N521 C519 1.325 . S
N521 C520 1.261 1_554 S
C522 H492 0.931 . S
C522 C519 1.358 1_556 S
C522 C523 1.312 . S
C523 H494 0.930 . S
C523 C518 1.261 . S
C523 C522 1.312 . S
C524 O496 1.214 . S
C524 O504 1.234 . S
C525 H497 0.929 . S
C525 C528 1.391 . S
C525 C530 1.391 . S
C526 H498 0.929 . S
C526 C527 1.390 . S
C526 N529 1.391 . S
C527 H499 0.930 . S
C527 C526 1.390 . S
C527 C528 1.392 . S
C528 H500 0.929 . S
C528 C525 1.391 . S
C528 C527 1.392 . S
N529 Co473 2.257 . S
N529 C526 1.391 . S
N529 C530 1.388 . S
C530 H501 0.930 . S
C530 C525 1.391 . S
C530 N529 1.388 . S
Co531 O533 2.143 . S
Co531 O539 2.074 . S
Co531 O542 2.093 . S
Co531 O555 2.097 . S
Co531 N572 2.151 . S
Co531 N580 2.214 . S
Co532 O533 2.160 . S
Co532 O538 2.058 . S
Co532 O548 2.057 . S
Co532 O563 2.037 . S
Co532 N567 2.145 . S
Co532 N588 2.257 . S
O533 Co531 2.143 . S
O533 Co532 2.160 . S
C534 O535 1.278 . S
C534 O542 1.224 . S
O535 C534 1.278 . S
C536 O537 1.245 . S
C536 O548 1.232 . S
O537 C536 1.245 . S
O538 Co532 2.058 . S
O538 C564 1.269 . S
O539 Co531 2.074 . S
O539 C564 1.257 . S
H540 C565 0.930 . S
H541 C571 0.930 . S
O542 Co531 2.093 . S
O542 C534 1.224 . S
H543 C575 0.929 . S
H544 C577 0.930 . S
H545 C578 0.930 . S
H546 C576 0.929 . S
H547 C579 0.928 . S
O548 Co532 2.057 . S
O548 C536 1.232 . S
H549 C568 0.929 . S
H550 C569 0.929 . S
H551 C581 0.931 . S
H552 C573 0.929 . S
H553 C582 0.930 . S
H554 C574 0.931 . S
O555 Co531 2.097 . S
O555 C583 1.214 . S
H556 C584 0.929 . S
H557 C585 0.929 . S
H558 C586 0.930 . S
H559 C587 0.929 . S
H560 C589 0.930 . S
H561 C566 0.930 . S
H562 C570 0.930 . S
O563 Co532 2.037 . S
O563 C583 1.234 . S
C564 O538 1.269 . S
C564 O539 1.257 . S
C565 H540 0.930 . S
C565 C568 1.388 . S
C565 C570 1.418 . S
C566 H561 0.930 . S
C566 C569 1.404 . S
C566 C570 1.353 . S
N567 Co532 2.145 . S
N567 C568 1.397 . S
N567 C569 1.334 . S
C568 H549 0.929 . S
C568 C565 1.388 . S
C568 N567 1.397 . S
C569 H550 0.929 . S
C569 C566 1.404 . S
C569 N567 1.334 . S
C570 H562 0.930 . S
C570 C565 1.418 . S
C570 C566 1.353 . S
C571 H541 0.930 . S
C571 N572 1.330 . S
C571 C573 1.446 . S
N572 Co531 2.151 . S
N572 C571 1.330 . S
N572 C576 1.418 . S
C573 H552 0.929 . S
C573 C571 1.446 . S
C573 C574 1.332 . S
C574 H554 0.931 . S
C574 C573 1.332 . S
C574 C575 1.267 . S
C575 H543 0.929 . S
C575 C574 1.267 . S
C575 C576 1.251 . S
C576 H546 0.929 . S
C576 N572 1.418 . S
C576 C575 1.251 . S
C577 H544 0.930 . S
C577 C579 1.406 . S
C577 C582 1.261 . S
C578 H545 0.930 . S
C578 N580 1.325 . S
C578 C581 1.357 . S
C579 H547 0.928 . S
C579 C577 1.406 . S
C579 N580 1.261 . S
N580 Co531 2.214 . S
N580 C578 1.325 . S
N580 C579 1.261 . S
C581 H551 0.931 . S
C581 C578 1.357 . S
C581 C582 1.312 . S
C582 H553 0.930 . S
C582 C577 1.261 . S
C582 C581 1.312 . S
C583 O555 1.214 . S
C583 O563 1.234 . S
C584 H556 0.929 . S
C584 C587 1.391 . S
C584 C589 1.391 . S
C585 H557 0.929 . S
C585 C586 1.390 . S
C585 N588 1.391 . S
C586 H558 0.930 . S
C586 C585 1.390 . S
C586 C587 1.392 . S
C587 H559 0.929 . S
C587 C584 1.391 . S
C587 C586 1.392 . S
N588 Co532 2.257 . S
N588 C585 1.391 . S
N588 C589 1.388 . S
C589 H560 0.930 . S
C589 C584 1.391 . S
C589 N588 1.388 . S
Co590 O592 2.143 . S
Co590 O598 2.074 . S
Co590 O601 2.093 . S
Co590 O614 2.097 . S
Co590 N631 2.151 . S
Co590 N639 2.214 . S
Co591 O592 2.160 . S
Co591 O597 2.058 . S
Co591 O607 2.057 . S
Co591 O622 2.037 . S
Co591 N626 2.145 . S
Co591 N647 2.257 . S
O592 Co590 2.143 . S
O592 Co591 2.160 . S
C593 O594 1.278 . S
C593 O601 1.224 . S
O594 C593 1.278 . S
C595 O596 1.245 . S
C595 O607 1.232 . S
O596 C595 1.245 . S
O597 Co591 2.058 . S
O597 C623 1.269 . S
O598 Co590 2.074 . S
O598 C623 1.257 . S
H599 C624 0.930 . S
H600 C630 0.930 . S
O601 Co590 2.093 . S
O601 C593 1.224 . S
H602 C634 0.929 1_554 S
H603 C636 0.930 . S
H604 C637 0.929 . S
H605 C635 0.929 . S
H606 C638 0.928 . S
O607 Co591 2.057 . S
O607 C595 1.232 . S
H608 C627 0.929 . S
H609 C628 0.929 . S
H610 C640 0.931 . S
H611 C632 0.929 . S
H612 C641 0.930 . S
H613 C633 0.931 1_554 S
O614 Co590 2.097 . S
O614 C642 1.214 . S
H615 C643 0.929 . S
H616 C644 0.929 . S
H617 C645 0.930 . S
H618 C646 0.929 . S
H619 C648 0.930 . S
H620 C625 0.930 . S
H621 C629 0.930 . S
O622 Co591 2.037 . S
O622 C642 1.234 . S
C623 O597 1.269 . S
C623 O598 1.257 . S
C624 H599 0.930 . S
C624 C627 1.388 . S
C624 C629 1.418 . S
C625 H620 0.930 . S
C625 C628 1.404 . S
C625 C629 1.353 . S
N626 Co591 2.145 . S
N626 C627 1.397 . S
N626 C628 1.334 . S
C627 H608 0.929 . S
C627 C624 1.388 . S
C627 N626 1.397 . S
C628 H609 0.929 . S
C628 C625 1.404 . S
C628 N626 1.334 . S
C629 H621 0.930 . S
C629 C624 1.418 . S
C629 C625 1.353 . S
C630 H600 0.930 . S
C630 N631 1.330 . S
C630 C632 1.446 . S
N631 Co590 2.151 . S
N631 C630 1.330 . S
N631 C635 1.418 . S
C632 H611 0.929 . S
C632 C630 1.446 . S
C632 C633 1.332 . S
C633 H613 0.931 1_556 S
C633 C632 1.332 . S
C633 C634 1.267 . S
C634 H602 0.929 1_556 S
C634 C633 1.267 . S
C634 C635 1.251 . S
C635 H605 0.929 . S
C635 N631 1.418 . S
C635 C634 1.251 . S
C636 H603 0.930 . S
C636 C638 1.406 . S
C636 C641 1.261 . S
C637 H604 0.929 . S
C637 N639 1.325 . S
C637 C640 1.358 1_556 S
C638 H606 0.928 . S
C638 C636 1.406 . S
C638 N639 1.261 1_554 S
N639 Co590 2.214 . S
N639 C637 1.325 . S
N639 C638 1.261 1_556 S
C640 H610 0.931 . S
C640 C637 1.358 1_554 S
C640 C641 1.312 . S
C641 H612 0.930 . S
C641 C636 1.261 . S
C641 C640 1.312 . S
C642 O614 1.214 . S
C642 O622 1.234 . S
C643 H615 0.929 . S
C643 C646 1.391 . S
C643 C648 1.391 . S
C644 H616 0.929 . S
C644 C645 1.390 . S
C644 N647 1.391 . S
C645 H617 0.930 . S
C645 C644 1.390 . S
C645 C646 1.392 . S
C646 H618 0.929 . S
C646 C643 1.391 . S
C646 C645 1.392 . S
N647 Co591 2.257 . S
N647 C644 1.391 . S
N647 C648 1.388 . S
C648 H619 0.930 . S
C648 C643 1.391 . S
C648 N647 1.388 . S
Co649 O651 2.143 . S
Co649 O657 2.074 . S
Co649 O660 2.093 . S
Co649 O673 2.097 . S
Co649 N690 2.151 . S
Co649 N698 2.214 . S
Co650 O651 2.160 . S
Co650 O656 2.058 . S
Co650 O666 2.057 . S
Co650 O681 2.037 . S
Co650 N685 2.145 . S
Co650 N706 2.257 . S
O651 Co649 2.143 . S
O651 Co650 2.160 . S
C652 O653 1.278 . S
C652 O660 1.224 . S
O653 C652 1.278 . S
C654 O655 1.245 . S
C654 O666 1.232 . S
O655 C654 1.245 . S
O656 Co650 2.058 . S
O656 C682 1.269 . S
O657 Co649 2.074 . S
O657 C682 1.257 . S
H658 C683 0.930 . S
H659 C689 0.930 . S
O660 Co649 2.093 . S
O660 C652 1.224 . S
H661 C693 0.929 . S
H662 C695 0.930 . S
H663 C696 0.930 . S
H664 C694 0.929 . S
H665 C697 0.928 . S
O666 Co650 2.057 . S
O666 C654 1.232 . S
H667 C686 0.929 . S
H668 C687 0.929 . S
H669 C699 0.931 . S
H670 C691 0.929 . S
H671 C700 0.930 . S
H672 C692 0.931 . S
O673 Co649 2.097 . S
O673 C701 1.214 . S
H674 C702 0.929 . S
H675 C703 0.929 . S
H676 C704 0.930 . S
H677 C705 0.929 . S
H678 C707 0.930 . S
H679 C684 0.930 . S
H680 C688 0.930 . S
O681 Co650 2.037 . S
O681 C701 1.234 . S
C682 O656 1.269 . S
C682 O657 1.257 . S
C683 H658 0.930 . S
C683 C686 1.388 . S
C683 C688 1.418 . S
C684 H679 0.930 . S
C684 C687 1.404 . S
C684 C688 1.353 . S
N685 Co650 2.145 . S
N685 C686 1.397 . S
N685 C687 1.334 . S
C686 H667 0.929 . S
C686 C683 1.388 . S
C686 N685 1.397 . S
C687 H668 0.929 . S
C687 C684 1.404 . S
C687 N685 1.334 . S
C688 H680 0.930 . S
C688 C683 1.418 . S
C688 C684 1.353 . S
C689 H659 0.930 . S
C689 N690 1.330 . S
C689 C691 1.446 . S
N690 Co649 2.151 . S
N690 C689 1.330 . S
N690 C694 1.418 . S
C691 H670 0.929 . S
C691 C689 1.446 . S
C691 C692 1.332 . S
C692 H672 0.931 . S
C692 C691 1.332 . S
C692 C693 1.267 . S
C693 H661 0.929 . S
C693 C692 1.267 . S
C693 C694 1.251 . S
C694 H664 0.929 . S
C694 N690 1.418 . S
C694 C693 1.251 . S
C695 H662 0.930 . S
C695 C697 1.406 . S
C695 C700 1.261 . S
C696 H663 0.930 . S
C696 N698 1.325 . S
C696 C699 1.357 . S
C697 H665 0.928 . S
C697 C695 1.406 . S
C697 N698 1.261 . S
N698 Co649 2.214 . S
N698 C696 1.325 . S
N698 C697 1.261 . S
C699 H669 0.931 . S
C699 C696 1.357 . S
C699 C700 1.312 . S
C700 H671 0.930 . S
C700 C695 1.261 . S
C700 C699 1.312 . S
C701 O673 1.214 . S
C701 O681 1.234 . S
C702 H674 0.929 . S
C702 C705 1.391 . S
C702 C707 1.391 . S
C703 H675 0.929 . S
C703 C704 1.390 . S
C703 N706 1.391 . S
C704 H676 0.930 . S
C704 C703 1.390 . S
C704 C705 1.392 . S
C705 H677 0.929 . S
C705 C702 1.391 . S
C705 C704 1.392 . S
N706 Co650 2.257 . S
N706 C703 1.391 . S
N706 C707 1.388 . S
C707 H678 0.930 . S
C707 C702 1.391 . S
C707 N706 1.388 . S
Co708 O710 2.143 . S
Co708 O716 2.074 . S
Co708 O719 2.093 . S
Co708 O732 2.097 . S
Co708 N749 2.151 . S
Co708 N757 2.214 . S
Co709 O710 2.160 . S
Co709 O715 2.058 . S
Co709 O725 2.057 . S
Co709 O740 2.037 . S
Co709 N744 2.145 . S
Co709 N765 2.257 . S
O710 Co708 2.143 . S
O710 Co709 2.160 . S
C711 O712 1.278 . S
C711 O719 1.224 . S
O712 C711 1.278 . S
C713 O714 1.245 . S
C713 O725 1.232 . S
O714 C713 1.245 . S
O715 Co709 2.058 . S
O715 C741 1.269 . S
O716 Co708 2.074 . S
O716 C741 1.257 . S
H717 C742 0.930 . S
H718 C748 0.930 . S
O719 Co708 2.093 . S
O719 C711 1.224 . S
H720 C752 0.929 . S
H721 C754 0.930 . S
H722 C755 0.930 . S
H723 C753 0.929 . S
H724 C756 0.928 . S
O725 Co709 2.057 . S
O725 C713 1.232 . S
H726 C745 0.929 . S
H727 C746 0.929 . S
H728 C758 0.931 . S
H729 C750 0.929 . S
H730 C759 0.930 . S
H731 C751 0.931 . S
O732 Co708 2.097 . S
O732 C760 1.214 . S
H733 C761 0.929 . S
H734 C762 0.929 . S
H735 C763 0.930 . S
H736 C764 0.929 . S
H737 C766 0.930 . S
H738 C743 0.930 . S
H739 C747 0.930 . S
O740 Co709 2.037 . S
O740 C760 1.234 . S
C741 O715 1.269 . S
C741 O716 1.257 . S
C742 H717 0.930 . S
C742 C745 1.388 1_554 S
C742 C747 1.418 . S
C743 H738 0.930 . S
C743 C746 1.404 . S
C743 C747 1.353 . S
N744 Co709 2.145 . S
N744 C745 1.397 . S
N744 C746 1.334 1_556 S
C745 H726 0.929 . S
C745 C742 1.388 1_556 S
C745 N744 1.397 . S
C746 H727 0.929 . S
C746 C743 1.404 . S
C746 N744 1.334 1_554 S
C747 H739 0.930 . S
C747 C742 1.418 . S
C747 C743 1.353 . S
C748 H718 0.930 . S
C748 N749 1.330 . S
C748 C750 1.446 . S
N749 Co708 2.151 . S
N749 C748 1.330 . S
N749 C753 1.418 . S
C750 H729 0.929 . S
C750 C748 1.446 . S
C750 C751 1.332 . S
C751 H731 0.931 . S
C751 C750 1.332 . S
C751 C752 1.267 . S
C752 H720 0.929 . S
C752 C751 1.267 . S
C752 C753 1.251 . S
C753 H723 0.929 . S
C753 N749 1.418 . S
C753 C752 1.251 . S
C754 H721 0.930 . S
C754 C756 1.406 . S
C754 C759 1.261 . S
C755 H722 0.930 . S
C755 N757 1.325 . S
C755 C758 1.357 . S
C756 H724 0.928 . S
C756 C754 1.406 . S
C756 N757 1.261 . S
N757 Co708 2.214 . S
N757 C755 1.325 . S
N757 C756 1.261 . S
C758 H728 0.931 . S
C758 C755 1.357 . S
C758 C759 1.312 . S
C759 H730 0.930 . S
C759 C754 1.261 . S
C759 C758 1.312 . S
C760 O732 1.214 . S
C760 O740 1.234 . S
C761 H733 0.929 . S
C761 C764 1.391 . S
C761 C766 1.391 . S
C762 H734 0.929 . S
C762 C763 1.390 . S
C762 N765 1.391 . S
C763 H735 0.930 . S
C763 C762 1.390 . S
C763 C764 1.392 . S
C764 H736 0.929 . S
C764 C761 1.391 . S
C764 C763 1.392 . S
N765 Co709 2.257 . S
N765 C762 1.391 . S
N765 C766 1.388 . S
C766 H737 0.930 . S
C766 C761 1.391 . S
C766 N765 1.388 . S
Co767 O769 2.143 . S
Co767 O775 2.074 . S
Co767 O778 2.093 . S
Co767 O791 2.097 . S
Co767 N808 2.151 . S
Co767 N816 2.214 . S
Co768 O769 2.160 . S
Co768 O774 2.058 . S
Co768 O784 2.057 . S
Co768 O799 2.037 . S
Co768 N803 2.145 . S
Co768 N824 2.257 . S
O769 Co767 2.143 . S
O769 Co768 2.160 . S
C770 O771 1.278 . S
C770 O778 1.224 . S
O771 C770 1.278 . S
C772 O773 1.245 . S
C772 O784 1.232 . S
O773 C772 1.245 . S
O774 Co768 2.058 . S
O774 C800 1.269 . S
O775 Co767 2.074 . S
O775 C800 1.257 . S
H776 C801 0.930 . S
H777 C807 0.930 . S
O778 Co767 2.093 . S
O778 C770 1.224 . S
H779 C811 0.929 . S
H780 C813 0.930 . S
H781 C814 0.930 . S
H782 C812 0.929 . S
H783 C815 0.928 . S
O784 Co768 2.057 . S
O784 C772 1.232 . S
H785 C804 0.929 . S
H786 C805 0.929 . S
H787 C817 0.931 . S
H788 C809 0.929 . S
H789 C818 0.930 . S
H790 C810 0.931 . S
O791 Co767 2.097 . S
O791 C819 1.214 . S
H792 C820 0.929 . S
H793 C821 0.929 . S
H794 C822 0.930 . S
H795 C823 0.929 . S
H796 C825 0.930 . S
H797 C802 0.930 . S
H798 C806 0.930 . S
O799 Co768 2.037 . S
O799 C819 1.234 . S
C800 O774 1.269 . S
C800 O775 1.257 . S
C801 H776 0.930 . S
C801 C804 1.388 . S
C801 C806 1.418 . S
C802 H797 0.930 . S
C802 C805 1.404 . S
C802 C806 1.353 . S
N803 Co768 2.145 . S
N803 C804 1.397 . S
N803 C805 1.334 . S
C804 H785 0.929 . S
C804 C801 1.388 . S
C804 N803 1.397 . S
C805 H786 0.929 . S
C805 C802 1.404 . S
C805 N803 1.334 . S
C806 H798 0.930 . S
C806 C801 1.418 . S
C806 C802 1.353 . S
C807 H777 0.930 . S
C807 N808 1.330 . S
C807 C809 1.446 . S
N808 Co767 2.151 . S
N808 C807 1.330 . S
N808 C812 1.418 . S
C809 H788 0.929 . S
C809 C807 1.446 . S
C809 C810 1.332 . S
C810 H790 0.931 . S
C810 C809 1.332 . S
C810 C811 1.267 . S
C811 H779 0.929 . S
C811 C810 1.267 . S
C811 C812 1.251 . S
C812 H782 0.929 . S
C812 N808 1.418 . S
C812 C811 1.251 . S
C813 H780 0.930 . S
C813 C815 1.406 . S
C813 C818 1.261 . S
C814 H781 0.930 . S
C814 N816 1.325 . S
C814 C817 1.357 . S
C815 H783 0.928 . S
C815 C813 1.406 . S
C815 N816 1.261 . S
N816 Co767 2.214 . S
N816 C814 1.325 . S
N816 C815 1.261 . S
C817 H787 0.931 . S
C817 C814 1.357 . S
C817 C818 1.312 . S
C818 H789 0.930 . S
C818 C813 1.261 . S
C818 C817 1.312 . S
C819 O791 1.214 . S
C819 O799 1.234 . S
C820 H792 0.929 . S
C820 C823 1.391 . S
C820 C825 1.391 . S
C821 H793 0.929 . S
C821 C822 1.390 . S
C821 N824 1.391 . S
C822 H794 0.930 . S
C822 C821 1.390 . S
C822 C823 1.392 . S
C823 H795 0.929 . S
C823 C820 1.391 . S
C823 C822 1.392 . S
N824 Co768 2.257 . S
N824 C821 1.391 . S
N824 C825 1.388 . S
C825 H796 0.930 . S
C825 C820 1.391 . S
C825 N824 1.388 . S
Co826 O828 2.143 . S
Co826 O834 2.074 . S
Co826 O837 2.093 . S
Co826 O850 2.097 . S
Co826 N867 2.151 . S
Co826 N875 2.214 . S
Co827 O828 2.160 . S
Co827 O833 2.058 . S
Co827 O843 2.057 . S
Co827 O858 2.037 . S
Co827 N862 2.145 . S
Co827 N883 2.257 . S
O828 Co826 2.143 . S
O828 Co827 2.160 . S
C829 O830 1.278 . S
C829 O837 1.224 . S
O830 C829 1.278 . S
C831 O832 1.245 . S
C831 O843 1.232 . S
O832 C831 1.245 . S
O833 Co827 2.058 . S
O833 C859 1.269 . S
O834 Co826 2.074 . S
O834 C859 1.257 . S
H835 C860 0.930 . S
H836 C866 0.930 . S
O837 Co826 2.093 . S
O837 C829 1.224 . S
H838 C870 0.929 . S
H839 C872 0.930 . S
H840 C873 0.930 . S
H841 C871 0.929 . S
H842 C874 0.928 . S
O843 Co827 2.057 . S
O843 C831 1.232 . S
H844 C863 0.929 . S
H845 C864 0.929 . S
H846 C876 0.931 . S
H847 C868 0.929 . S
H848 C877 0.930 . S
H849 C869 0.931 . S
O850 Co826 2.097 . S
O850 C878 1.214 . S
H851 C879 0.929 . S
H852 C880 0.929 . S
H853 C881 0.930 . S
H854 C882 0.929 . S
H855 C884 0.930 . S
H856 C861 0.930 . S
H857 C865 0.930 . S
O858 Co827 2.037 . S
O858 C878 1.234 . S
C859 O833 1.269 . S
C859 O834 1.257 . S
C860 H835 0.930 . S
C860 C863 1.388 1_556 S
C860 C865 1.418 . S
C861 H856 0.930 . S
C861 C864 1.404 . S
C861 C865 1.353 . S
N862 Co827 2.145 . S
N862 C863 1.397 . S
N862 C864 1.334 1_554 S
C863 H844 0.929 . S
C863 C860 1.388 1_554 S
C863 N862 1.397 . S
C864 H845 0.929 . S
C864 C861 1.404 . S
C864 N862 1.334 1_556 S
C865 H857 0.930 . S
C865 C860 1.418 . S
C865 C861 1.353 . S
C866 H836 0.930 . S
C866 N867 1.330 . S
C866 C868 1.446 . S
N867 Co826 2.151 . S
N867 C866 1.330 . S
N867 C871 1.418 . S
C868 H847 0.929 . S
C868 C866 1.446 . S
C868 C869 1.332 . S
C869 H849 0.931 . S
C869 C868 1.332 . S
C869 C870 1.267 . S
C870 H838 0.929 . S
C870 C869 1.267 . S
C870 C871 1.251 . S
C871 H841 0.929 . S
C871 N867 1.418 . S
C871 C870 1.251 . S
C872 H839 0.930 . S
C872 C874 1.406 . S
C872 C877 1.261 . S
C873 H840 0.930 . S
C873 N875 1.325 . S
C873 C876 1.357 . S
C874 H842 0.928 . S
C874 C872 1.406 . S
C874 N875 1.261 . S
N875 Co826 2.214 . S
N875 C873 1.325 . S
N875 C874 1.261 . S
C876 H846 0.931 . S
C876 C873 1.357 . S
C876 C877 1.312 . S
C877 H848 0.930 . S
C877 C872 1.261 . S
C877 C876 1.312 . S
C878 O850 1.214 . S
C878 O858 1.234 . S
C879 H851 0.929 . S
C879 C882 1.391 . S
C879 C884 1.391 . S
C880 H852 0.929 . S
C880 C881 1.390 . S
C880 N883 1.391 . S
C881 H853 0.930 . S
C881 C880 1.390 . S
C881 C882 1.392 . S
C882 H854 0.929 . S
C882 C879 1.391 . S
C882 C881 1.392 . S
N883 Co827 2.257 . S
N883 C880 1.391 . S
N883 C884 1.388 . S
C884 H855 0.930 . S
C884 C879 1.391 . S
C884 N883 1.388 . S
Co885 O887 2.143 . S
Co885 O893 2.074 . S
Co885 O896 2.093 . S
Co885 O909 2.097 . S
Co885 N926 2.151 . S
Co885 N934 2.214 . S
Co886 O887 2.160 . S
Co886 O892 2.058 . S
Co886 O902 2.057 . S
Co886 O917 2.037 . S
Co886 N921 2.145 . S
Co886 N942 2.257 . S
O887 Co885 2.143 . S
O887 Co886 2.160 . S
C888 O889 1.278 . S
C888 O896 1.224 . S
O889 C888 1.278 . S
C890 O891 1.245 . S
C890 O902 1.232 . S
O891 C890 1.245 . S
O892 Co886 2.058 . S
O892 C918 1.269 . S
O893 Co885 2.074 . S
O893 C918 1.257 . S
H894 C919 0.930 . S
H895 C925 0.930 . S
O896 Co885 2.093 . S
O896 C888 1.224 . S
H897 C929 0.929 . S
H898 C931 0.930 . S
H899 C932 0.930 . S
H900 C930 0.929 . S
H901 C933 0.928 . S
O902 Co886 2.057 . S
O902 C890 1.232 . S
H903 C922 0.929 . S
H904 C923 0.929 . S
H905 C935 0.931 . S
H906 C927 0.929 . S
H907 C936 0.930 . S
H908 C928 0.931 . S
O909 Co885 2.097 . S
O909 C937 1.214 . S
H910 C938 0.929 . S
H911 C939 0.929 . S
H912 C940 0.930 . S
H913 C941 0.929 . S
H914 C943 0.930 . S
H915 C920 0.930 . S
H916 C924 0.930 . S
O917 Co886 2.037 . S
O917 C937 1.234 . S
C918 O892 1.269 . S
C918 O893 1.257 . S
C919 H894 0.930 . S
C919 C922 1.388 . S
C919 C924 1.418 . S
C920 H915 0.930 . S
C920 C923 1.404 . S
C920 C924 1.353 . S
N921 Co886 2.145 . S
N921 C922 1.397 . S
N921 C923 1.334 . S
C922 H903 0.929 . S
C922 C919 1.388 . S
C922 N921 1.397 . S
C923 H904 0.929 . S
C923 C920 1.404 . S
C923 N921 1.334 . S
C924 H916 0.930 . S
C924 C919 1.418 . S
C924 C920 1.353 . S
C925 H895 0.930 . S
C925 N926 1.330 . S
C925 C927 1.446 . S
N926 Co885 2.151 . S
N926 C925 1.330 . S
N926 C930 1.418 . S
C927 H906 0.929 . S
C927 C925 1.446 . S
C927 C928 1.332 . S
C928 H908 0.931 . S
C928 C927 1.332 . S
C928 C929 1.267 . S
C929 H897 0.929 . S
C929 C928 1.267 . S
C929 C930 1.251 . S
C930 H900 0.929 . S
C930 N926 1.418 . S
C930 C929 1.251 . S
C931 H898 0.930 . S
C931 C933 1.406 . S
C931 C936 1.261 . S
C932 H899 0.930 . S
C932 N934 1.325 . S
C932 C935 1.357 . S
C933 H901 0.928 . S
C933 C931 1.406 . S
C933 N934 1.261 . S
N934 Co885 2.214 . S
N934 C932 1.325 . S
N934 C933 1.261 . S
C935 H905 0.931 . S
C935 C932 1.357 . S
C935 C936 1.312 . S
C936 H907 0.930 . S
C936 C931 1.261 . S
C936 C935 1.312 . S
C937 O909 1.214 . S
C937 O917 1.234 . S
C938 H910 0.929 . S
C938 C941 1.391 . S
C938 C943 1.391 . S
C939 H911 0.929 . S
C939 C940 1.390 . S
C939 N942 1.391 . S
C940 H912 0.930 . S
C940 C939 1.390 . S
C940 C941 1.392 . S
C941 H913 0.929 . S
C941 C938 1.391 . S
C941 C940 1.392 . S
N942 Co886 2.257 . S
N942 C939 1.391 . S
N942 C943 1.388 . S
C943 H914 0.930 . S
C943 C938 1.391 . S
C943 N942 1.388 . S
C944 C945 1.391 . S
C944 C946 1.394 . S
C944 H960 0.931 . S
C945 C944 1.391 . S
C945 C949 1.376 . S
C946 C944 1.394 . S
C946 C947 1.369 . S
C946 C950 1.531 1_554 S
C947 C946 1.369 . S
C947 C948 1.410 . S
C947 C955 1.503 . S
C948 C947 1.410 . S
C948 C949 1.392 . S
C948 C951 1.511 . S
C949 C945 1.376 . S
C949 C948 1.392 . S
C949 H961 0.929 . S
C950 C946 1.531 1_556 S
C950 H962 0.960 . S
C950 H963 0.962 . S
C950 H964 0.960 . S
C951 C948 1.511 . S
C951 H965 0.961 . S
C951 H966 0.961 . S
C951 H967 0.961 . S
C952 C953 1.370 . S
C952 C954 1.363 . S
C952 H968 0.931 . S
C953 C952 1.370 . S
C953 C957 1.408 . S
C954 C952 1.363 . S
C954 C955 1.370 1_556 S
C954 C958 1.524 . S
C955 C947 1.503 . S
C955 C954 1.370 1_554 S
C955 C956 1.403 . S
C956 C955 1.403 . S
C956 C957 1.404 1_554 S
C956 C959 1.539 . S
C957 C953 1.408 . S
C957 C956 1.404 1_556 S
C957 H969 0.930 . S
C958 C954 1.524 . S
C958 H970 0.956 . S
C958 H971 0.961 1_556 S
C958 H972 0.961 . S
C959 C956 1.539 . S
C959 H973 0.958 . S
C959 H974 0.961 . S
C959 H975 0.960 . S
H960 C944 0.931 . S
H961 C949 0.929 . S
H962 C950 0.960 . S
H963 C950 0.962 . S
H964 C950 0.960 . S
H965 C951 0.961 . S
H966 C951 0.961 . S
H967 C951 0.961 . S
H968 C952 0.931 . S
H969 C957 0.930 . S
H970 C958 0.956 . S
H971 C958 0.961 1_554 S
H972 C958 0.961 . S
H973 C959 0.958 . S
H974 C959 0.961 . S
H975 C959 0.960 . S
C976 C977 1.391 . S
C976 C978 1.394 . S
C976 H992 0.931 . S
C977 C976 1.391 . S
C977 C981 1.376 . S
C978 C976 1.394 . S
C978 C979 1.369 . S
C978 C982 1.531 . S
C979 C978 1.369 . S
C979 C980 1.410 . S
C979 C987 1.503 . S
C980 C979 1.410 . S
C980 C981 1.392 . S
C980 C983 1.511 . S
C981 C977 1.376 . S
C981 C980 1.392 . S
C981 H993 0.929 . S
C982 C978 1.531 . S
C982 H994 0.960 . S
C982 H995 0.962 . S
C982 H996 0.960 . S
C983 C980 1.511 . S
C983 H997 0.961 . S
C983 H998 0.961 . S
C983 H999 0.961 . S
C984 C985 1.370 . S
C984 C986 1.363 . S
C984 H1000 0.931 . S
C985 C984 1.370 . S
C985 C989 1.408 . S
C986 C984 1.363 . S
C986 C987 1.370 . S
C986 C990 1.524 . S
C987 C979 1.503 . S
C987 C986 1.370 . S
C987 C988 1.403 . S
C988 C987 1.403 . S
C988 C989 1.404 . S
C988 C991 1.539 . S
C989 C985 1.408 . S
C989 C988 1.404 . S
C989 H1001 0.930 . S
C990 C986 1.524 . S
C990 H1002 0.956 . S
C990 H1003 0.961 . S
C990 H1004 0.961 . S
C991 C988 1.539 . S
C991 H1005 0.958 . S
C991 H1006 0.961 . S
C991 H1007 0.960 . S
H992 C976 0.931 . S
H993 C981 0.929 . S
H994 C982 0.960 . S
H995 C982 0.962 . S
H996 C982 0.960 . S
H997 C983 0.961 . S
H998 C983 0.961 . S
H999 C983 0.961 . S
H1000 C984 0.931 . S
H1001 C989 0.930 . S
H1002 C990 0.956 . S
H1003 C990 0.961 . S
H1004 C990 0.961 . S
H1005 C991 0.958 . S
H1006 C991 0.961 . S
H1007 C991 0.960 . S
C1008 C1009 1.391 . S
C1008 C1010 1.394 . S
C1008 H1024 0.931 . S
C1009 C1008 1.391 . S
C1009 C1013 1.376 . S
C1010 C1008 1.394 . S
C1010 C1011 1.369 . S
C1010 C1014 1.531 1_556 S
C1011 C1010 1.369 . S
C1011 C1012 1.410 . S
C1011 C1019 1.503 . S
C1012 C1011 1.410 . S
C1012 C1013 1.392 . S
C1012 C1015 1.511 . S
C1013 C1009 1.376 . S
C1013 C1012 1.392 . S
C1013 H1025 0.929 . S
C1014 C1010 1.531 1_554 S
C1014 H1026 0.960 . S
C1014 H1027 0.962 . S
C1014 H1028 0.960 . S
C1015 C1012 1.511 . S
C1015 H1029 0.961 . S
C1015 H1030 0.961 . S
C1015 H1031 0.961 . S
C1016 C1017 1.369 1_556 S
C1016 C1018 1.364 . S
C1016 H1032 0.931 . S
C1017 C1016 1.369 1_554 S
C1017 C1021 1.408 . S
C1018 C1016 1.364 . S
C1018 C1019 1.370 . S
C1018 C1022 1.524 . S
C1019 C1011 1.503 . S
C1019 C1018 1.370 . S
C1019 C1020 1.403 1_556 S
C1020 C1019 1.403 1_554 S
C1020 C1021 1.404 . S
C1020 C1023 1.539 . S
C1021 C1017 1.408 . S
C1021 C1020 1.404 . S
C1021 H1033 0.930 . S
C1022 C1018 1.524 . S
C1022 H1034 0.956 . S
C1022 H1035 0.961 . S
C1022 H1036 0.961 . S
C1023 C1020 1.539 . S
C1023 H1037 0.958 . S
C1023 H1038 0.961 . S
C1023 H1039 0.960 . S
H1024 C1008 0.931 . S
H1025 C1013 0.929 . S
H1026 C1014 0.960 . S
H1027 C1014 0.962 . S
H1028 C1014 0.960 . S
H1029 C1015 0.961 . S
H1030 C1015 0.961 . S
H1031 C1015 0.961 . S
H1032 C1016 0.931 . S
H1033 C1021 0.930 . S
H1034 C1022 0.956 . S
H1035 C1022 0.961 . S
H1036 C1022 0.961 . S
H1037 C1023 0.958 . S
H1038 C1023 0.961 . S
H1039 C1023 0.960 . S
C1040 C1041 1.391 . S
C1040 C1042 1.394 . S
C1040 H1056 0.931 . S
C1041 C1040 1.391 . S
C1041 C1045 1.376 . S
C1042 C1040 1.394 . S
C1042 C1043 1.369 . S
C1042 C1046 1.531 . S
C1043 C1042 1.369 . S
C1043 C1044 1.410 . S
C1043 C1051 1.503 . S
C1044 C1043 1.410 . S
C1044 C1045 1.392 . S
C1044 C1047 1.511 . S
C1045 C1041 1.376 . S
C1045 C1044 1.392 . S
C1045 H1057 0.929 . S
C1046 C1042 1.531 . S
C1046 H1058 0.960 . S
C1046 H1059 0.962 . S
C1046 H1060 0.960 . S
C1047 C1044 1.511 . S
C1047 H1061 0.961 . S
C1047 H1062 0.961 . S
C1047 H1063 0.961 . S
C1048 C1049 1.370 . S
C1048 C1050 1.363 . S
C1048 H1064 0.931 . S
C1049 C1048 1.370 . S
C1049 C1053 1.408 . S
C1050 C1048 1.363 . S
C1050 C1051 1.370 . S
C1050 C1054 1.524 . S
C1051 C1043 1.503 . S
C1051 C1050 1.370 . S
C1051 C1052 1.403 . S
C1052 C1051 1.403 . S
C1052 C1053 1.404 . S
C1052 C1055 1.539 . S
C1053 C1049 1.408 . S
C1053 C1052 1.404 . S
C1053 H1065 0.930 . S
C1054 C1050 1.524 . S
C1054 H1066 0.956 . S
C1054 H1067 0.961 . S
C1054 H1068 0.961 . S
C1055 C1052 1.539 . S
C1055 H1069 0.958 . S
C1055 H1070 0.961 . S
C1055 H1071 0.960 . S
H1056 C1040 0.931 . S
H1057 C1045 0.929 . S
H1058 C1046 0.960 . S
H1059 C1046 0.962 . S
H1060 C1046 0.960 . S
H1061 C1047 0.961 . S
H1062 C1047 0.961 . S
H1063 C1047 0.961 . S
H1064 C1048 0.931 . S
H1065 C1053 0.930 . S
H1066 C1054 0.956 . S
H1067 C1054 0.961 . S
H1068 C1054 0.961 . S
H1069 C1055 0.958 . S
H1070 C1055 0.961 . S
H1071 C1055 0.960 . S
C1072 C1073 1.391 . S
C1072 C1074 1.394 . S
C1072 H1088 0.931 . S
C1073 C1072 1.391 . S
C1073 C1077 1.376 . S
C1074 C1072 1.394 . S
C1074 C1075 1.369 . S
C1074 C1078 1.531 . S
C1075 C1074 1.369 . S
C1075 C1076 1.410 . S
C1075 C1083 1.503 . S
C1076 C1075 1.410 . S
C1076 C1077 1.392 . S
C1076 C1079 1.511 1_554 S
C1077 C1073 1.376 . S
C1077 C1076 1.392 . S
C1077 H1089 0.929 . S
C1078 C1074 1.531 . S
C1078 H1090 0.960 . S
C1078 H1091 0.962 . S
C1078 H1092 0.960 . S
C1079 C1076 1.511 1_556 S
C1079 H1093 0.961 . S
C1079 H1094 0.961 . S
C1079 H1095 0.961 . S
C1080 C1081 1.370 1_554 S
C1080 C1082 1.363 . S
C1080 H1096 0.931 . S
C1081 C1080 1.370 1_556 S
C1081 C1085 1.408 . S
C1082 C1080 1.363 . S
C1082 C1083 1.370 . S
C1082 C1086 1.524 . S
C1083 C1075 1.503 . S
C1083 C1082 1.370 . S
C1083 C1084 1.403 1_554 S
C1084 C1083 1.403 1_556 S
C1084 C1085 1.404 . S
C1084 C1087 1.539 . S
C1085 C1081 1.408 . S
C1085 C1084 1.404 . S
C1085 H1097 0.930 . S
C1086 C1082 1.524 . S
C1086 H1098 0.956 . S
C1086 H1099 0.961 . S
C1086 H1100 0.961 . S
C1087 C1084 1.539 . S
C1087 H1101 0.958 . S
C1087 H1102 0.961 . S
C1087 H1103 0.960 . S
H1088 C1072 0.931 . S
H1089 C1077 0.929 . S
H1090 C1078 0.960 . S
H1091 C1078 0.962 . S
H1092 C1078 0.960 . S
H1093 C1079 0.961 . S
H1094 C1079 0.961 . S
H1095 C1079 0.961 . S
H1096 C1080 0.931 . S
H1097 C1085 0.930 . S
H1098 C1086 0.956 . S
H1099 C1086 0.961 . S
H1100 C1086 0.961 . S
H1101 C1087 0.958 . S
H1102 C1087 0.961 . S
H1103 C1087 0.960 . S
C1104 C1105 1.391 . S
C1104 C1106 1.394 . S
C1104 H1120 0.931 . S
C1105 C1104 1.391 . S
C1105 C1109 1.376 . S
C1106 C1104 1.394 . S
C1106 C1107 1.369 . S
C1106 C1110 1.531 . S
C1107 C1106 1.369 . S
C1107 C1108 1.410 . S
C1107 C1115 1.503 . S
C1108 C1107 1.410 . S
C1108 C1109 1.392 . S
C1108 C1111 1.511 . S
C1109 C1105 1.376 . S
C1109 C1108 1.392 . S
C1109 H1121 0.929 . S
C1110 C1106 1.531 . S
C1110 H1122 0.960 . S
C1110 H1123 0.962 . S
C1110 H1124 0.960 . S
C1111 C1108 1.511 . S
C1111 H1125 0.961 . S
C1111 H1126 0.961 . S
C1111 H1127 0.961 . S
C1112 C1113 1.370 . S
C1112 C1114 1.363 . S
C1112 H1128 0.931 . S
C1113 C1112 1.370 . S
C1113 C1117 1.408 . S
C1114 C1112 1.363 . S
C1114 C1115 1.370 . S
C1114 C1118 1.524 . S
C1115 C1107 1.503 . S
C1115 C1114 1.370 . S
C1115 C1116 1.403 . S
C1116 C1115 1.403 . S
C1116 C1117 1.404 . S
C1116 C1119 1.539 . S
C1117 C1113 1.408 . S
C1117 C1116 1.404 . S
C1117 H1129 0.930 . S
C1118 C1114 1.524 . S
C1118 H1130 0.956 . S
C1118 H1131 0.961 . S
C1118 H1132 0.961 . S
C1119 C1116 1.539 . S
C1119 H1133 0.958 . S
C1119 H1134 0.961 . S
C1119 H1135 0.960 . S
H1120 C1104 0.931 . S
H1121 C1109 0.929 . S
H1122 C1110 0.960 . S
H1123 C1110 0.962 . S
H1124 C1110 0.960 . S
H1125 C1111 0.961 . S
H1126 C1111 0.961 . S
H1127 C1111 0.961 . S
H1128 C1112 0.931 . S
H1129 C1117 0.930 . S
H1130 C1118 0.956 . S
H1131 C1118 0.961 . S
H1132 C1118 0.961 . S
H1133 C1119 0.958 . S
H1134 C1119 0.961 . S
H1135 C1119 0.960 . S
C1136 C1137 1.391 . S
C1136 C1138 1.394 . S
C1136 H1152 0.931 . S
C1137 C1136 1.391 . S
C1137 C1141 1.376 . S
C1138 C1136 1.394 . S
C1138 C1139 1.369 . S
C1138 C1142 1.531 1_556 S
C1139 C1138 1.369 . S
C1139 C1140 1.410 . S
C1139 C1147 1.503 . S
C1140 C1139 1.410 . S
C1140 C1141 1.392 . S
C1140 C1143 1.511 . S
C1141 C1137 1.376 . S
C1141 C1140 1.392 . S
C1141 H1153 0.929 . S
C1142 C1138 1.531 1_554 S
C1142 H1154 0.960 . S
C1142 H1155 0.962 . S
C1142 H1156 0.960 . S
C1143 C1140 1.511 . S
C1143 H1157 0.961 . S
C1143 H1158 0.961 . S
C1143 H1159 0.961 . S
C1144 C1145 1.370 1_556 S
C1144 C1146 1.363 . S
C1144 H1160 0.931 . S
C1145 C1144 1.370 1_554 S
C1145 C1149 1.408 . S
C1146 C1144 1.363 . S
C1146 C1147 1.370 . S
C1146 C1150 1.524 . S
C1147 C1139 1.503 . S
C1147 C1146 1.370 . S
C1147 C1148 1.403 1_556 S
C1148 C1147 1.403 1_554 S
C1148 C1149 1.404 . S
C1148 C1151 1.539 . S
C1149 C1145 1.408 . S
C1149 C1148 1.404 . S
C1149 H1161 0.930 . S
C1150 C1146 1.524 . S
C1150 H1162 0.956 . S
C1150 H1163 0.961 . S
C1150 H1164 0.961 . S
C1151 C1148 1.539 . S
C1151 H1165 0.958 . S
C1151 H1166 0.961 . S
C1151 H1167 0.960 . S
H1152 C1136 0.931 . S
H1153 C1141 0.929 . S
H1154 C1142 0.960 . S
H1155 C1142 0.962 . S
H1156 C1142 0.960 . S
H1157 C1143 0.961 . S
H1158 C1143 0.961 . S
H1159 C1143 0.961 . S
H1160 C1144 0.931 . S
H1161 C1149 0.930 . S
H1162 C1150 0.956 . S
H1163 C1150 0.961 . S
H1164 C1150 0.961 . S
H1165 C1151 0.958 . S
H1166 C1151 0.961 . S
H1167 C1151 0.960 . S
C1168 C1169 1.391 . S
C1168 C1170 1.394 . S
C1168 H1184 0.931 . S
C1169 C1168 1.391 . S
C1169 C1173 1.376 . S
C1170 C1168 1.394 . S
C1170 C1171 1.369 . S
C1170 C1174 1.531 . S
C1171 C1170 1.369 . S
C1171 C1172 1.410 . S
C1171 C1179 1.503 . S
C1172 C1171 1.410 . S
C1172 C1173 1.392 . S
C1172 C1175 1.511 . S
C1173 C1169 1.376 . S
C1173 C1172 1.392 . S
C1173 H1185 0.929 . S
C1174 C1170 1.531 . S
C1174 H1186 0.960 . S
C1174 H1187 0.962 . S
C1174 H1188 0.960 . S
C1175 C1172 1.511 . S
C1175 H1189 0.961 . S
C1175 H1190 0.961 . S
C1175 H1191 0.961 . S
C1176 C1177 1.370 . S
C1176 C1178 1.363 . S
C1176 H1192 0.931 . S
C1177 C1176 1.370 . S
C1177 C1181 1.408 . S
C1178 C1176 1.363 . S
C1178 C1179 1.370 . S
C1178 C1182 1.524 . S
C1179 C1171 1.503 . S
C1179 C1178 1.370 . S
C1179 C1180 1.403 . S
C1180 C1179 1.403 . S
C1180 C1181 1.404 . S
C1180 C1183 1.539 . S
C1181 C1177 1.408 . S
C1181 C1180 1.404 . S
C1181 H1193 0.930 . S
C1182 C1178 1.524 . S
C1182 H1194 0.956 . S
C1182 H1195 0.961 . S
C1182 H1196 0.961 . S
C1183 C1180 1.539 . S
C1183 H1197 0.958 . S
C1183 H1198 0.961 . S
C1183 H1199 0.960 . S
H1184 C1168 0.931 . S
H1185 C1173 0.929 . S
H1186 C1174 0.960 . S
H1187 C1174 0.962 . S
H1188 C1174 0.960 . S
H1189 C1175 0.961 . S
H1190 C1175 0.961 . S
H1191 C1175 0.961 . S
H1192 C1176 0.931 . S
H1193 C1181 0.930 . S
H1194 C1182 0.956 . S
H1195 C1182 0.961 . S
H1196 C1182 0.961 . S
H1197 C1183 0.958 . S
H1198 C1183 0.961 . S
H1199 C1183 0.960 . S
C1200 C1201 1.391 . S
C1200 C1202 1.394 . S
C1200 H1216 0.931 . S
C1201 C1200 1.391 . S
C1201 C1205 1.376 . S
C1202 C1200 1.394 . S
C1202 C1203 1.369 . S
C1202 C1206 1.531 . S
C1203 C1202 1.369 . S
C1203 C1204 1.410 . S
C1203 C1211 1.503 1_544 S
C1204 C1203 1.410 . S
C1204 C1205 1.392 . S
C1204 C1207 1.511 . S
C1205 C1201 1.376 . S
C1205 C1204 1.392 . S
C1205 H1217 0.929 . S
C1206 C1202 1.531 . S
C1206 H1218 0.960 1_545 S
C1206 H1219 0.975 . S
C1206 H1220 0.960 . S
C1207 C1204 1.511 . S
C1207 H1221 0.961 . S
C1207 H1222 0.962 1_554 S
C1207 H1223 0.961 1_545 S
C1208 C1209 1.370 . S
C1208 C1210 1.363 . S
C1208 H1224 0.931 . S
C1209 C1208 1.370 . S
C1209 C1213 1.408 . S
C1210 C1208 1.363 . S
C1210 C1211 1.370 . S
C1210 C1214 1.524 1_565 S
C1211 C1203 1.503 1_566 S
C1211 C1210 1.370 . S
C1211 C1212 1.410 . S
C1212 C1211 1.410 . S
C1212 C1213 1.425 . S
C1212 C1215 1.512 1_556 S
C1213 C1209 1.408 . S
C1213 C1212 1.425 . S
C1213 H1225 0.930 . S
C1214 C1210 1.524 1_545 S
C1214 H1226 0.956 . S
C1214 H1227 0.961 . S
C1214 H1228 0.961 . S
C1215 C1212 1.512 1_554 S
C1215 H1229 0.958 . S
C1215 H1230 0.961 . S
C1215 H1231 0.960 . S
H1216 C1200 0.931 . S
H1217 C1205 0.929 . S
H1218 C1206 0.960 1_565 S
H1219 C1206 0.975 . S
H1220 C1206 0.960 . S
H1221 C1207 0.961 . S
H1222 C1207 0.962 1_556 S
H1223 C1207 0.961 1_565 S
H1224 C1208 0.931 . S
H1225 C1213 0.930 . S
H1226 C1214 0.956 . S
H1227 C1214 0.961 . S
H1228 C1214 0.961 . S
H1229 C1215 0.958 . S
H1230 C1215 0.961 . S
H1231 C1215 0.960 . S
C1232 C1233 1.391 . S
C1232 C1234 1.394 . S
C1232 H1248 0.931 . S
C1233 C1232 1.391 . S
C1233 C1237 1.376 . S
C1234 C1232 1.394 . S
C1234 C1235 1.369 . S
C1234 C1238 1.531 . S
C1235 C1234 1.369 . S
C1235 C1236 1.410 . S
C1235 C1243 1.503 1_565 S
C1236 C1235 1.410 . S
C1236 C1237 1.392 . S
C1236 C1239 1.511 . S
C1237 C1233 1.376 . S
C1237 C1236 1.392 . S
C1237 H1249 0.929 . S
C1238 C1234 1.531 . S
C1238 H1250 0.960 . S
C1238 H1251 0.962 . S
C1238 H1252 0.960 . S
C1239 C1236 1.511 . S
C1239 H1253 0.961 . S
C1239 H1254 0.961 1_565 S
C1239 H1255 0.961 . S
C1240 C1241 1.370 . S
C1240 C1242 1.363 . S
C1240 H1256 0.931 . S
C1241 C1240 1.370 . S
C1241 C1245 1.408 . S
C1242 C1240 1.363 . S
C1242 C1243 1.370 . S
C1242 C1246 1.524 . S
C1243 C1235 1.503 1_545 S
C1243 C1242 1.370 . S
C1243 C1244 1.403 . S
C1244 C1243 1.403 . S
C1244 C1245 1.404 . S
C1244 C1247 1.539 1_545 S
C1245 C1241 1.408 . S
C1245 C1244 1.404 . S
C1245 H1257 0.930 . S
C1246 C1242 1.524 . S
C1246 H1258 0.956 . S
C1246 H1259 0.961 . S
C1246 H1260 0.961 . S
C1247 C1244 1.539 1_565 S
C1247 H1261 0.958 . S
C1247 H1262 0.961 . S
C1247 H1263 0.960 . S
H1248 C1232 0.931 . S
H1249 C1237 0.929 . S
H1250 C1238 0.960 . S
H1251 C1238 0.962 . S
H1252 C1238 0.960 . S
H1253 C1239 0.961 . S
H1254 C1239 0.961 1_545 S
H1255 C1239 0.961 . S
H1256 C1240 0.931 . S
H1257 C1245 0.930 . S
H1258 C1246 0.956 . S
H1259 C1246 0.961 . S
H1260 C1246 0.961 . S
H1261 C1247 0.958 . S
H1262 C1247 0.961 . S
H1263 C1247 0.960 . S
C1264 C1265 1.391 1_554 S
C1264 C1266 1.394 . S
C1264 H1280 0.931 . S
C1265 C1264 1.391 1_556 S
C1265 C1269 1.376 . S
C1266 C1264 1.394 . S
C1266 C1267 1.369 1_554 S
C1266 C1270 1.531 . S
C1267 C1266 1.369 1_556 S
C1267 C1268 1.410 . S
C1267 C1275 1.503 1_566 S
C1268 C1267 1.410 . S
C1268 C1269 1.392 . S
C1268 C1271 1.538 . S
C1269 C1265 1.376 . S
C1269 C1268 1.392 . S
C1269 H1281 0.929 . S
C1270 C1266 1.531 . S
C1270 H1282 0.960 . S
C1270 H1283 0.962 . S
C1270 H1284 0.960 . S
C1271 C1268 1.538 . S
C1271 H1285 0.973 . S
C1271 H1286 0.928 1_565 S
C1271 H1287 0.957 1_565 S
C1272 C1273 1.370 . S
C1272 C1274 1.363 . S
C1272 H1288 0.931 . S
C1273 C1272 1.370 . S
C1273 C1277 1.408 . S
C1274 C1272 1.363 . S
C1274 C1275 1.370 . S
C1274 C1278 1.524 1_554 S
C1275 C1267 1.503 1_544 S
C1275 C1274 1.370 . S
C1275 C1276 1.403 . S
C1276 C1275 1.403 . S
C1276 C1277 1.404 . S
C1276 C1279 1.539 . S
C1277 C1273 1.408 . S
C1277 C1276 1.404 . S
C1277 H1289 0.930 . S
C1278 C1274 1.524 1_556 S
C1278 H1290 0.981 1_556 S
C1278 H1291 0.961 . S
C1278 H1292 0.961 . S
C1279 C1276 1.539 . S
C1279 H1293 0.958 . S
C1279 H1294 0.961 . S
C1279 H1295 0.960 1_545 S
H1280 C1264 0.931 . S
H1281 C1269 0.929 . S
H1282 C1270 0.960 . S
H1283 C1270 0.962 . S
H1284 C1270 0.960 . S
H1285 C1271 0.973 . S
H1286 C1271 0.928 1_545 S
H1287 C1271 0.957 1_545 S
H1288 C1272 0.931 . S
H1289 C1277 0.930 . S
H1290 C1278 0.981 1_554 S
H1291 C1278 0.961 . S
H1292 C1278 0.961 . S
H1293 C1279 0.958 . S
H1294 C1279 0.961 . S
H1295 C1279 0.960 1_565 S
C1296 C1297 1.391 . S
C1296 C1298 1.394 . S
C1296 H1312 0.931 . S
C1297 C1296 1.391 . S
C1297 C1301 1.376 . S
C1298 C1296 1.394 . S
C1298 C1299 1.369 . S
C1298 C1302 1.531 . S
C1299 C1298 1.369 . S
C1299 C1300 1.410 . S
C1299 C1307 1.503 1_545 S
C1300 C1299 1.410 . S
C1300 C1301 1.392 . S
C1300 C1303 1.511 . S
C1301 C1297 1.376 . S
C1301 C1300 1.392 . S
C1301 H1313 0.929 . S
C1302 C1298 1.531 . S
C1302 H1314 0.960 1_545 S
C1302 H1315 0.962 . S
C1302 H1316 0.960 . S
C1303 C1300 1.511 . S
C1303 H1317 0.961 . S
C1303 H1318 0.961 1_545 S
C1303 H1319 0.961 . S
C1304 C1305 1.370 . S
C1304 C1306 1.363 . S
C1304 H1320 0.931 . S
C1305 C1304 1.370 . S
C1305 C1309 1.408 . S
C1306 C1304 1.363 . S
C1306 C1307 1.370 . S
C1306 C1310 1.524 1_565 S
C1307 C1299 1.503 1_565 S
C1307 C1306 1.370 . S
C1307 C1308 1.403 . S
C1308 C1307 1.403 . S
C1308 C1309 1.404 . S
C1308 C1311 1.539 . S
C1309 C1305 1.408 . S
C1309 C1308 1.404 . S
C1309 H1321 0.930 . S
C1310 C1306 1.524 1_545 S
C1310 H1322 0.956 . S
C1310 H1323 0.961 . S
C1310 H1324 0.961 1_545 S
C1311 C1308 1.539 . S
C1311 H1325 0.958 . S
C1311 H1326 0.961 . S
C1311 H1327 0.960 . S
H1312 C1296 0.931 . S
H1313 C1301 0.929 . S
H1314 C1302 0.960 1_565 S
H1315 C1302 0.962 . S
H1316 C1302 0.960 . S
H1317 C1303 0.961 . S
H1318 C1303 0.961 1_565 S
H1319 C1303 0.961 . S
H1320 C1304 0.931 . S
H1321 C1309 0.930 . S
H1322 C1310 0.956 . S
H1323 C1310 0.961 . S
H1324 C1310 0.961 1_565 S
H1325 C1311 0.958 . S
H1326 C1311 0.961 . S
H1327 C1311 0.960 . S
C1328 C1329 1.391 . S
C1328 C1330 1.394 . S
C1328 H1344 0.931 . S
C1329 C1328 1.391 . S
C1329 C1333 1.376 . S
C1330 C1328 1.394 . S
C1330 C1331 1.369 . S
C1330 C1334 1.531 1_556 S
C1331 C1330 1.369 . S
C1331 C1332 1.410 . S
C1331 C1339 1.503 1_556 S
C1332 C1331 1.410 . S
C1332 C1333 1.392 . S
C1332 C1335 1.511 . S
C1333 C1329 1.376 . S
C1333 C1332 1.392 . S
C1333 H1345 0.929 . S
C1334 C1330 1.531 1_554 S
C1334 H1346 0.960 . S
C1334 H1347 0.962 . S
C1334 H1348 0.960 . S
C1335 C1332 1.511 . S
C1335 H1349 0.961 . S
C1335 H1350 0.961 . S
C1335 H1351 0.961 . S
C1336 C1337 1.370 . S
C1336 C1338 1.363 . S
C1336 H1352 0.931 . S
C1337 C1336 1.370 . S
C1337 C1341 1.408 . S
C1338 C1336 1.363 . S
C1338 C1339 1.370 . S
C1338 C1342 1.524 . S
C1339 C1331 1.503 1_554 S
C1339 C1338 1.370 . S
C1339 C1340 1.403 . S
C1340 C1339 1.403 . S
C1340 C1341 1.404 . S
C1340 C1343 1.539 1_554 S
C1341 C1337 1.408 . S
C1341 C1340 1.404 . S
C1341 H1353 0.930 . S
C1342 C1338 1.524 . S
C1342 H1354 0.956 . S
C1342 H1355 0.961 . S
C1342 H1356 0.961 . S
C1343 C1340 1.539 1_556 S
C1343 H1357 0.958 . S
C1343 H1358 0.961 . S
C1343 H1359 0.960 . S
H1344 C1328 0.931 . S
H1345 C1333 0.929 . S
H1346 C1334 0.960 . S
H1347 C1334 0.962 . S
H1348 C1334 0.960 . S
H1349 C1335 0.961 . S
H1350 C1335 0.961 . S
H1351 C1335 0.961 . S
H1352 C1336 0.931 . S
H1353 C1341 0.930 . S
H1354 C1342 0.956 . S
H1355 C1342 0.961 . S
H1356 C1342 0.961 . S
H1357 C1343 0.958 . S
H1358 C1343 0.961 . S
H1359 C1343 0.960 . S
C1360 C1361 1.391 . S
C1360 C1362 1.394 . S
C1360 H1376 0.931 . S
C1361 C1360 1.391 . S
C1361 C1365 1.376 . S
C1362 C1360 1.394 . S
C1362 C1363 1.369 . S
C1362 C1366 1.531 . S
C1363 C1362 1.369 . S
C1363 C1364 1.410 . S
C1363 C1371 1.503 . S
C1364 C1363 1.410 . S
C1364 C1365 1.392 . S
C1364 C1367 1.511 . S
C1365 C1361 1.376 . S
C1365 C1364 1.392 . S
C1365 H1377 0.929 . S
C1366 C1362 1.531 . S
C1366 H1378 0.960 . S
C1366 H1379 0.962 . S
C1366 H1380 0.960 . S
C1367 C1364 1.511 . S
C1367 H1381 0.961 . S
C1367 H1382 0.961 . S
C1367 H1383 0.961 . S
C1368 C1369 1.370 . S
C1368 C1370 1.363 . S
C1368 H1384 0.931 . S
C1369 C1368 1.370 . S
C1369 C1373 1.408 . S
C1370 C1368 1.363 . S
C1370 C1371 1.370 . S
C1370 C1374 1.524 . S
C1371 C1363 1.503 . S
C1371 C1370 1.370 . S
C1371 C1372 1.403 . S
C1372 C1371 1.403 . S
C1372 C1373 1.404 . S
C1372 C1375 1.539 . S
C1373 C1369 1.408 . S
C1373 C1372 1.404 . S
C1373 H1385 0.930 . S
C1374 C1370 1.524 . S
C1374 H1386 0.956 . S
C1374 H1387 0.961 . S
C1374 H1388 0.961 . S
C1375 C1372 1.539 . S
C1375 H1389 0.958 . S
C1375 H1390 0.961 . S
C1375 H1391 0.960 . S
H1376 C1360 0.931 . S
H1377 C1365 0.929 . S
H1378 C1366 0.960 . S
H1379 C1366 0.962 . S
H1380 C1366 0.960 . S
H1381 C1367 0.961 . S
H1382 C1367 0.961 . S
H1383 C1367 0.961 . S
H1384 C1368 0.931 . S
H1385 C1373 0.930 . S
H1386 C1374 0.956 . S
H1387 C1374 0.961 . S
H1388 C1374 0.961 . S
H1389 C1375 0.958 . S
H1390 C1375 0.961 . S
H1391 C1375 0.960 . S
C1392 C1393 1.391 . S
C1392 C1394 1.394 . S
C1392 H1408 0.931 . S
C1393 C1392 1.391 . S
C1393 C1397 1.376 . S
C1394 C1392 1.394 . S
C1394 C1395 1.369 . S
C1394 C1398 1.531 . S
C1395 C1394 1.369 . S
C1395 C1396 1.410 1_554 S
C1395 C1403 1.503 1_554 S
C1396 C1395 1.410 1_556 S
C1396 C1397 1.392 1_556 S
C1396 C1399 1.511 . S
C1397 C1393 1.376 . S
C1397 C1396 1.392 1_554 S
C1397 H1409 0.929 1_554 S
C1398 C1394 1.531 . S
C1398 H1410 0.960 . S
C1398 H1411 0.962 . S
C1398 H1412 0.960 . S
C1399 C1396 1.511 . S
C1399 H1413 0.961 . S
C1399 H1414 0.961 . S
C1399 H1415 0.961 . S
C1400 C1401 1.370 . S
C1400 C1402 1.363 . S
C1400 H1416 0.931 . S
C1401 C1400 1.370 . S
C1401 C1405 1.408 1_556 S
C1402 C1400 1.363 . S
C1402 C1403 1.370 . S
C1402 C1406 1.524 . S
C1403 C1395 1.503 1_556 S
C1403 C1402 1.370 . S
C1403 C1404 1.403 1_556 S
C1404 C1403 1.403 1_554 S
C1404 C1405 1.404 . S
C1404 C1407 1.539 . S
C1405 C1401 1.408 1_554 S
C1405 C1404 1.404 . S
C1405 H1417 0.930 . S
C1406 C1402 1.524 . S
C1406 H1418 0.956 . S
C1406 H1419 0.961 . S
C1406 H1420 0.961 . S
C1407 C1404 1.539 . S
C1407 H1421 0.958 . S
C1407 H1422 0.961 . S
C1407 H1423 0.960 . S
H1408 C1392 0.931 . S
H1409 C1397 0.929 1_556 S
H1410 C1398 0.960 . S
H1411 C1398 0.962 . S
H1412 C1398 0.960 . S
H1413 C1399 0.961 . S
H1414 C1399 0.961 . S
H1415 C1399 0.961 . S
H1416 C1400 0.931 . S
H1417 C1405 0.930 . S
H1418 C1406 0.956 . S
H1419 C1406 0.961 . S
H1420 C1406 0.961 . S
H1421 C1407 0.958 . S
H1422 C1407 0.961 . S
H1423 C1407 0.960 . S
C1424 C1425 1.391 . S
C1424 C1426 1.394 . S
C1424 H1440 0.931 . S
C1425 C1424 1.391 . S
C1425 C1429 1.376 . S
C1426 C1424 1.394 . S
C1426 C1427 1.369 . S
C1426 C1430 1.531 . S
C1427 C1426 1.369 . S
C1427 C1428 1.410 . S
C1427 C1435 1.503 . S
C1428 C1427 1.410 . S
C1428 C1429 1.392 . S
C1428 C1431 1.511 . S
C1429 C1425 1.376 . S
C1429 C1428 1.392 . S
C1429 H1441 0.929 . S
C1430 C1426 1.531 . S
C1430 H1442 0.960 . S
C1430 H1443 0.962 . S
C1430 H1444 0.960 . S
C1431 C1428 1.511 . S
C1431 H1445 0.961 . S
C1431 H1446 0.961 . S
C1431 H1447 0.961 . S
C1432 C1433 1.370 . S
C1432 C1434 1.363 . S
C1432 H1448 0.931 . S
C1433 C1432 1.370 . S
C1433 C1437 1.408 . S
C1434 C1432 1.363 . S
C1434 C1435 1.370 . S
C1434 C1438 1.524 . S
C1435 C1427 1.503 . S
C1435 C1434 1.370 . S
C1435 C1436 1.403 . S
C1436 C1435 1.403 . S
C1436 C1437 1.404 . S
C1436 C1439 1.539 . S
C1437 C1433 1.408 . S
C1437 C1436 1.404 . S
C1437 H1449 0.930 . S
C1438 C1434 1.524 . S
C1438 H1450 0.956 . S
C1438 H1451 0.961 . S
C1438 H1452 0.961 . S
C1439 C1436 1.539 . S
C1439 H1453 0.958 . S
C1439 H1454 0.961 . S
C1439 H1455 0.960 . S
H1440 C1424 0.931 . S
H1441 C1429 0.929 . S
H1442 C1430 0.960 . S
H1443 C1430 0.962 . S
H1444 C1430 0.960 . S
H1445 C1431 0.961 . S
H1446 C1431 0.961 . S
H1447 C1431 0.961 . S
H1448 C1432 0.931 . S
H1449 C1437 0.930 . S
H1450 C1438 0.956 . S
H1451 C1438 0.961 . S
H1452 C1438 0.961 . S
H1453 C1439 0.958 . S
H1454 C1439 0.961 . S
H1455 C1439 0.960 . S
C1456 C1457 1.391 . S
C1456 C1458 1.394 . S
C1456 H1472 0.931 . S
C1457 C1456 1.391 . S
C1457 C1461 1.376 . S
C1458 C1456 1.394 . S
C1458 C1459 1.369 . S
C1458 C1462 1.531 . S
C1459 C1458 1.369 . S
C1459 C1460 1.410 . S
C1459 C1467 1.503 . S
C1460 C1459 1.410 . S
C1460 C1461 1.392 . S
C1460 C1463 1.511 . S
C1461 C1457 1.376 . S
C1461 C1460 1.392 . S
C1461 H1473 0.929 . S
C1462 C1458 1.531 . S
C1462 H1474 0.960 . S
C1462 H1475 0.962 . S
C1462 H1476 0.960 . S
C1463 C1460 1.511 . S
C1463 H1477 0.961 . S
C1463 H1478 0.961 . S
C1463 H1479 0.961 . S
C1464 C1465 1.370 . S
C1464 C1466 1.363 . S
C1464 H1480 0.931 . S
C1465 C1464 1.370 . S
C1465 C1469 1.408 . S
C1466 C1464 1.363 . S
C1466 C1467 1.370 . S
C1466 C1470 1.524 . S
C1467 C1459 1.503 . S
C1467 C1466 1.370 . S
C1467 C1468 1.403 . S
C1468 C1467 1.403 . S
C1468 C1469 1.404 . S
C1468 C1471 1.539 . S
C1469 C1465 1.408 . S
C1469 C1468 1.404 . S
C1469 H1481 0.930 . S
C1470 C1466 1.524 . S
C1470 H1482 0.956 . S
C1470 H1483 0.961 . S
C1470 H1484 0.961 . S
C1471 C1468 1.539 . S
C1471 H1485 0.958 . S
C1471 H1486 0.961 . S
C1471 H1487 0.960 . S
H1472 C1456 0.931 . S
H1473 C1461 0.929 . S
H1474 C1462 0.960 . S
H1475 C1462 0.962 . S
H1476 C1462 0.960 . S
H1477 C1463 0.961 . S
H1478 C1463 0.961 . S
H1479 C1463 0.961 . S
H1480 C1464 0.931 . S
H1481 C1469 0.930 . S
H1482 C1470 0.956 . S
H1483 C1470 0.961 . S
H1484 C1470 0.961 . S
H1485 C1471 0.958 . S
H1486 C1471 0.961 . S
H1487 C1471 0.960 . S
C1488 C1489 1.391 . S
C1488 C1490 1.394 . S
C1488 H1504 0.931 . S
C1489 C1488 1.391 . S
C1489 C1493 1.376 . S
C1490 C1488 1.394 . S
C1490 C1491 1.369 . S
C1490 C1494 1.531 . S
C1491 C1490 1.369 . S
C1491 C1492 1.410 . S
C1491 C1499 1.503 . S
C1492 C1491 1.410 . S
C1492 C1493 1.392 . S
C1492 C1495 1.511 . S
C1493 C1489 1.376 . S
C1493 C1492 1.392 . S
C1493 H1505 0.929 . S
C1494 C1490 1.531 . S
C1494 H1506 0.960 . S
C1494 H1507 0.962 . S
C1494 H1508 0.960 . S
C1495 C1492 1.511 . S
C1495 H1509 0.961 . S
C1495 H1510 0.961 . S
C1495 H1511 0.961 . S
C1496 C1497 1.370 . S
C1496 C1498 1.342 1_455 S
C1496 H1512 0.931 . S
C1497 C1496 1.370 . S
C1497 C1501 1.408 . S
C1498 C1496 1.342 1_655 S
C1498 C1499 1.380 . S
C1498 C1502 1.535 . S
C1499 C1491 1.503 . S
C1499 C1498 1.380 . S
C1499 C1500 1.403 1_655 S
C1500 C1499 1.403 1_455 S
C1500 C1501 1.404 . S
C1500 C1503 1.539 1_455 S
C1501 C1497 1.408 . S
C1501 C1500 1.404 . S
C1501 H1513 0.930 . S
C1502 C1498 1.535 . S
C1502 H1514 0.956 . S
C1502 H1515 0.961 . S
C1502 H1516 0.961 . S
C1503 C1500 1.539 1_655 S
C1503 H1517 0.958 . S
C1503 H1518 0.961 1_655 S
C1503 H1519 0.960 . S
H1504 C1488 0.931 . S
H1505 C1493 0.929 . S
H1506 C1494 0.960 . S
H1507 C1494 0.962 . S
H1508 C1494 0.960 . S
H1509 C1495 0.961 . S
H1510 C1495 0.961 . S
H1511 C1495 0.961 . S
H1512 C1496 0.931 . S
H1513 C1501 0.930 . S
H1514 C1502 0.956 . S
H1515 C1502 0.961 . S
H1516 C1502 0.961 . S
H1517 C1503 0.958 . S
H1518 C1503 0.961 1_455 S
H1519 C1503 0.960 . S
C1520 C1521 1.391 . S
C1520 C1522 1.394 . S
C1520 H1536 0.931 . S
C1521 C1520 1.391 . S
C1521 C1525 1.376 . S
C1522 C1520 1.394 . S
C1522 C1523 1.369 . S
C1522 C1526 1.531 . S
C1523 C1522 1.369 . S
C1523 C1524 1.410 . S
C1523 C1531 1.503 . S
C1524 C1523 1.410 . S
C1524 C1525 1.392 . S
C1524 C1527 1.511 . S
C1525 C1521 1.376 . S
C1525 C1524 1.392 . S
C1525 H1537 0.929 . S
C1526 C1522 1.531 . S
C1526 H1538 0.960 . S
C1526 H1539 0.962 . S
C1526 H1540 0.960 . S
C1527 C1524 1.511 . S
C1527 H1541 0.961 . S
C1527 H1542 0.961 . S
C1527 H1543 0.961 . S
C1528 C1529 1.370 . S
C1528 C1530 1.363 . S
C1528 H1544 0.931 . S
C1529 C1528 1.370 . S
C1529 C1533 1.408 . S
C1530 C1528 1.363 . S
C1530 C1531 1.370 . S
C1530 C1534 1.524 . S
C1531 C1523 1.503 . S
C1531 C1530 1.370 . S
C1531 C1532 1.403 . S
C1532 C1531 1.403 . S
C1532 C1533 1.404 . S
C1532 C1535 1.539 . S
C1533 C1529 1.408 . S
C1533 C1532 1.404 . S
C1533 H1545 0.930 . S
C1534 C1530 1.524 . S
C1534 H1546 0.956 . S
C1534 H1547 0.961 . S
C1534 H1548 0.961 . S
C1535 C1532 1.539 . S
C1535 H1549 0.958 . S
C1535 H1550 0.961 . S
C1535 H1551 0.960 . S
H1536 C1520 0.931 . S
H1537 C1525 0.929 . S
H1538 C1526 0.960 . S
H1539 C1526 0.962 . S
H1540 C1526 0.960 . S
H1541 C1527 0.961 . S
H1542 C1527 0.961 . S
H1543 C1527 0.961 . S
H1544 C1528 0.931 . S
H1545 C1533 0.930 . S
H1546 C1534 0.956 . S
H1547 C1534 0.961 . S
H1548 C1534 0.961 . S
H1549 C1535 0.958 . S
H1550 C1535 0.961 . S
H1551 C1535 0.960 . S
C1552 C1553 1.391 . S
C1552 C1554 1.414 . S
C1552 H1568 0.931 . S
C1553 C1552 1.391 . S
C1553 C1557 1.376 . S
C1554 C1552 1.414 . S
C1554 C1555 1.359 1_455 S
C1554 C1558 1.521 1_455 S
C1555 C1554 1.359 1_655 S
C1555 C1556 1.404 1_655 S
C1555 C1563 1.503 . S
C1556 C1555 1.404 1_455 S
C1556 C1557 1.404 . S
C1556 C1559 1.505 1_455 S
C1557 C1553 1.376 . S
C1557 C1556 1.404 . S
C1557 H1569 0.929 . S
C1558 C1554 1.521 1_655 S
C1558 H1570 0.960 . S
C1558 H1571 0.962 . S
C1558 H1572 0.960 . S
C1559 C1556 1.505 1_655 S
C1559 H1573 0.961 . S
C1559 H1574 0.961 . S
C1559 H1575 0.961 . S
C1560 C1561 1.370 . S
C1560 C1562 1.363 . S
C1560 H1576 0.931 . S
C1561 C1560 1.370 . S
C1561 C1565 1.408 . S
C1562 C1560 1.363 . S
C1562 C1563 1.370 . S
C1562 C1566 1.524 . S
C1563 C1555 1.503 . S
C1563 C1562 1.370 . S
C1563 C1564 1.403 . S
C1564 C1563 1.403 . S
C1564 C1565 1.404 . S
C1564 C1567 1.539 . S
C1565 C1561 1.408 . S
C1565 C1564 1.404 . S
C1565 H1577 0.930 . S
C1566 C1562 1.524 . S
C1566 H1578 0.956 . S
C1566 H1579 0.961 . S
C1566 H1580 0.961 . S
C1567 C1564 1.539 . S
C1567 H1581 0.958 . S
C1567 H1582 0.961 . S
C1567 H1583 0.960 . S
H1568 C1552 0.931 . S
H1569 C1557 0.929 . S
H1570 C1558 0.960 . S
H1571 C1558 0.962 . S
H1572 C1558 0.960 . S
H1573 C1559 0.961 . S
H1574 C1559 0.961 . S
H1575 C1559 0.961 . S
H1576 C1560 0.931 . S
H1577 C1565 0.930 . S
H1578 C1566 0.956 . S
H1579 C1566 0.961 . S
H1580 C1566 0.961 . S
H1581 C1567 0.958 . S
H1582 C1567 0.961 . S
H1583 C1567 0.960 . S
C1584 C1585 1.391 . S
C1584 C1586 1.394 . S
C1584 H1600 0.931 . S
C1585 C1584 1.391 . S
C1585 C1589 1.376 . S
C1586 C1584 1.394 . S
C1586 C1587 1.369 . S
C1586 C1590 1.531 . S
C1587 C1586 1.369 . S
C1587 C1588 1.410 . S
C1587 C1595 1.503 . S
C1588 C1587 1.410 . S
C1588 C1589 1.392 . S
C1588 C1591 1.511 . S
C1589 C1585 1.376 . S
C1589 C1588 1.392 . S
C1589 H1601 0.929 . S
C1590 C1586 1.531 . S
C1590 H1602 0.960 . S
C1590 H1603 0.962 . S
C1590 H1604 0.960 . S
C1591 C1588 1.511 . S
C1591 H1605 0.961 . S
C1591 H1606 0.961 . S
C1591 H1607 0.961 . S
C1592 C1593 1.370 . S
C1592 C1594 1.349 1_655 S
C1592 H1608 0.931 . S
C1593 C1592 1.370 . S
C1593 C1597 1.408 . S
C1594 C1592 1.349 1_455 S
C1594 C1595 1.377 . S
C1594 C1598 1.532 . S
C1595 C1587 1.503 . S
C1595 C1594 1.377 . S
C1595 C1596 1.403 1_455 S
C1596 C1595 1.403 1_655 S
C1596 C1597 1.404 . S
C1596 C1599 1.539 1_655 S
C1597 C1593 1.408 . S
C1597 C1596 1.404 . S
C1597 H1609 0.930 . S
C1598 C1594 1.532 . S
C1598 H1610 0.956 . S
C1598 H1611 0.961 . S
C1598 H1612 0.961 . S
C1599 C1596 1.539 1_455 S
C1599 H1613 0.958 . S
C1599 H1614 0.961 . S
C1599 H1615 0.960 . S
H1600 C1584 0.931 . S
H1601 C1589 0.929 . S
H1602 C1590 0.960 . S
H1603 C1590 0.962 . S
H1604 C1590 0.960 . S
H1605 C1591 0.961 . S
H1606 C1591 0.961 . S
H1607 C1591 0.961 . S
H1608 C1592 0.931 . S
H1609 C1597 0.930 . S
H1610 C1598 0.956 . S
H1611 C1598 0.961 . S
H1612 C1598 0.961 . S
H1613 C1599 0.958 . S
H1614 C1599 0.961 . S
H1615 C1599 0.960 . S
C1616 C1617 1.391 . S
C1616 C1618 1.394 . S
C1616 H1632 0.931 . S
C1617 C1616 1.391 . S
C1617 C1621 1.376 . S
C1618 C1616 1.394 . S
C1618 C1619 1.369 . S
C1618 C1622 1.531 . S
C1619 C1618 1.369 . S
C1619 C1620 1.410 . S
C1619 C1627 1.503 . S
C1620 C1619 1.410 . S
C1620 C1621 1.392 . S
C1620 C1623 1.511 . S
C1621 C1617 1.376 . S
C1621 C1620 1.392 . S
C1621 H1633 0.929 . S
C1622 C1618 1.531 . S
C1622 H1634 0.960 . S
C1622 H1635 0.962 . S
C1622 H1636 0.960 . S
C1623 C1620 1.511 . S
C1623 H1637 0.961 . S
C1623 H1638 0.961 . S
C1623 H1639 0.961 . S
C1624 C1625 1.370 . S
C1624 C1626 1.363 . S
C1624 H1640 0.931 . S
C1625 C1624 1.370 . S
C1625 C1629 1.408 . S
C1626 C1624 1.363 . S
C1626 C1627 1.370 . S
C1626 C1630 1.524 . S
C1627 C1619 1.503 . S
C1627 C1626 1.370 . S
C1627 C1628 1.403 . S
C1628 C1627 1.403 . S
C1628 C1629 1.404 . S
C1628 C1631 1.539 . S
C1629 C1625 1.408 . S
C1629 C1628 1.404 . S
C1629 H1641 0.930 . S
C1630 C1626 1.524 . S
C1630 H1642 0.956 . S
C1630 H1643 0.961 . S
C1630 H1644 0.961 . S
C1631 C1628 1.539 . S
C1631 H1645 0.958 . S
C1631 H1646 0.961 . S
C1631 H1647 0.960 . S
H1632 C1616 0.931 . S
H1633 C1621 0.929 . S
H1634 C1622 0.960 . S
H1635 C1622 0.962 . S
H1636 C1622 0.960 . S
H1637 C1623 0.961 . S
H1638 C1623 0.961 . S
H1639 C1623 0.961 . S
H1640 C1624 0.931 . S
H1641 C1629 0.930 . S
H1642 C1630 0.956 . S
H1643 C1630 0.961 . S
H1644 C1630 0.961 . S
H1645 C1631 0.958 . S
H1646 C1631 0.961 . S
H1647 C1631 0.960 . S
C1648 C1649 1.391 . S
C1648 C1650 1.394 . S
C1648 H1664 0.931 . S
C1649 C1648 1.391 . S
C1649 C1653 1.376 . S
C1650 C1648 1.394 . S
C1650 C1651 1.369 . S
C1650 C1654 1.531 . S
C1651 C1650 1.369 . S
C1651 C1652 1.410 . S
C1651 C1659 1.503 . S
C1652 C1651 1.410 . S
C1652 C1653 1.392 . S
C1652 C1655 1.511 . S
C1653 C1649 1.376 . S
C1653 C1652 1.392 . S
C1653 H1665 0.929 . S
C1654 C1650 1.531 . S
C1654 H1666 0.960 . S
C1654 H1667 0.962 . S
C1654 H1668 0.960 . S
C1655 C1652 1.511 . S
C1655 H1669 0.961 . S
C1655 H1670 0.961 . S
C1655 H1671 0.961 . S
C1656 C1657 1.370 . S
C1656 C1658 1.363 1_655 S
C1656 H1672 0.931 . S
C1657 C1656 1.370 . S
C1657 C1661 1.408 . S
C1658 C1656 1.363 1_455 S
C1658 C1659 1.370 . S
C1658 C1662 1.524 . S
C1659 C1651 1.503 . S
C1659 C1658 1.370 . S
C1659 C1660 1.403 1_455 S
C1660 C1659 1.403 1_655 S
C1660 C1661 1.404 . S
C1660 C1663 1.539 1_655 S
C1661 C1657 1.408 . S
C1661 C1660 1.404 . S
C1661 H1673 0.930 . S
C1662 C1658 1.524 . S
C1662 H1674 0.956 . S
C1662 H1675 0.961 . S
C1662 H1676 0.961 . S
C1663 C1660 1.539 1_455 S
C1663 H1677 0.958 . S
C1663 H1678 0.961 1_455 S
C1663 H1679 0.960 . S
H1664 C1648 0.931 . S
H1665 C1653 0.929 . S
H1666 C1654 0.960 . S
H1667 C1654 0.962 . S
H1668 C1654 0.960 . S
H1669 C1655 0.961 . S
H1670 C1655 0.961 . S
H1671 C1655 0.961 . S
H1672 C1656 0.931 . S
H1673 C1661 0.930 . S
H1674 C1662 0.956 . S
H1675 C1662 0.961 . S
H1676 C1662 0.961 . S
H1677 C1663 0.958 . S
H1678 C1663 0.961 1_655 S
H1679 C1663 0.960 . S
C1680 C1681 1.391 . S
C1680 C1682 1.394 . S
C1680 H1696 0.931 . S
C1681 C1680 1.391 . S
C1681 C1685 1.376 . S
C1682 C1680 1.394 . S
C1682 C1683 1.369 . S
C1682 C1686 1.531 . S
C1683 C1682 1.369 . S
C1683 C1684 1.410 . S
C1683 C1691 1.503 . S
C1684 C1683 1.410 . S
C1684 C1685 1.392 . S
C1684 C1687 1.511 . S
C1685 C1681 1.376 . S
C1685 C1684 1.392 . S
C1685 H1697 0.929 . S
C1686 C1682 1.531 . S
C1686 H1698 0.960 . S
C1686 H1699 0.962 . S
C1686 H1700 0.960 . S
C1687 C1684 1.511 . S
C1687 H1701 0.961 . S
C1687 H1702 0.961 . S
C1687 H1703 0.961 . S
C1688 C1689 1.370 . S
C1688 C1690 1.363 . S
C1688 H1704 0.931 . S
C1689 C1688 1.370 . S
C1689 C1693 1.408 . S
C1690 C1688 1.363 . S
C1690 C1691 1.370 . S
C1690 C1694 1.524 . S
C1691 C1683 1.503 . S
C1691 C1690 1.370 . S
C1691 C1692 1.403 . S
C1692 C1691 1.403 . S
C1692 C1693 1.404 . S
C1692 C1695 1.539 . S
C1693 C1689 1.408 . S
C1693 C1692 1.404 . S
C1693 H1705 0.930 . S
C1694 C1690 1.524 . S
C1694 H1706 0.956 . S
C1694 H1707 0.961 . S
C1694 H1708 0.961 . S
C1695 C1692 1.539 . S
C1695 H1709 0.958 . S
C1695 H1710 0.961 . S
C1695 H1711 0.960 . S
H1696 C1680 0.931 . S
H1697 C1685 0.929 . S
H1698 C1686 0.960 . S
H1699 C1686 0.962 . S
H1700 C1686 0.960 . S
H1701 C1687 0.961 . S
H1702 C1687 0.961 . S
H1703 C1687 0.961 . S
H1704 C1688 0.931 . S
H1705 C1693 0.930 . S
H1706 C1694 0.956 . S
H1707 C1694 0.961 . S
H1708 C1694 0.961 . S
H1709 C1695 0.958 . S
H1710 C1695 0.961 . S
H1711 C1695 0.960 . S
C1712 C1713 1.391 . S
C1712 C1714 1.394 . S
C1712 H1728 0.931 . S
C1713 C1712 1.391 . S
C1713 C1717 1.376 . S
C1714 C1712 1.394 . S
C1714 C1715 1.369 . S
C1714 C1718 1.531 . S
C1715 C1714 1.369 . S
C1715 C1716 1.410 . S
C1715 C1723 1.503 . S
C1716 C1715 1.410 . S
C1716 C1717 1.392 . S
C1716 C1719 1.511 . S
C1717 C1713 1.376 . S
C1717 C1716 1.392 . S
C1717 H1729 0.929 . S
C1718 C1714 1.531 . S
C1718 H1730 0.960 . S
C1718 H1731 0.962 . S
C1718 H1732 0.960 . S
C1719 C1716 1.511 . S
C1719 H1733 0.961 . S
C1719 H1734 0.961 . S
C1719 H1735 0.961 . S
C1720 C1721 1.370 . S
C1720 C1722 1.363 . S
C1720 H1736 0.931 . S
C1721 C1720 1.370 . S
C1721 C1725 1.408 . S
C1722 C1720 1.363 . S
C1722 C1723 1.370 . S
C1722 C1726 1.524 . S
C1723 C1715 1.503 . S
C1723 C1722 1.370 . S
C1723 C1724 1.403 . S
C1724 C1723 1.403 . S
C1724 C1725 1.404 . S
C1724 C1727 1.539 . S
C1725 C1721 1.408 . S
C1725 C1724 1.404 . S
C1725 H1737 0.930 . S
C1726 C1722 1.524 . S
C1726 H1738 0.956 . S
C1726 H1739 0.961 . S
C1726 H1740 0.961 . S
C1727 C1724 1.539 . S
C1727 H1741 0.958 . S
C1727 H1742 0.961 . S
C1727 H1743 0.960 . S
H1728 C1712 0.931 . S
H1729 C1717 0.929 . S
H1730 C1718 0.960 . S
H1731 C1718 0.962 . S
H1732 C1718 0.960 . S
H1733 C1719 0.961 . S
H1734 C1719 0.961 . S
H1735 C1719 0.961 . S
H1736 C1720 0.931 . S
H1737 C1725 0.930 . S
H1738 C1726 0.956 . S
H1739 C1726 0.961 . S
H1740 C1726 0.961 . S
H1741 C1727 0.958 . S
H1742 C1727 0.961 . S
H1743 C1727 0.960 . S
C1744 C1745 1.391 . S
C1744 C1746 1.394 . S
C1744 H1760 0.931 . S
C1745 C1744 1.391 . S
C1745 C1749 1.376 . S
C1746 C1744 1.394 . S
C1746 C1747 1.369 . S
C1746 C1750 1.531 . S
C1747 C1746 1.369 . S
C1747 C1748 1.410 . S
C1747 C1755 1.503 . S
C1748 C1747 1.410 . S
C1748 C1749 1.392 . S
C1748 C1751 1.511 . S
C1749 C1745 1.376 . S
C1749 C1748 1.392 . S
C1749 H1761 0.929 . S
C1750 C1746 1.531 . S
C1750 H1762 0.960 . S
C1750 H1763 0.962 . S
C1750 H1764 0.960 . S
C1751 C1748 1.511 . S
C1751 H1765 0.961 . S
C1751 H1766 0.961 . S
C1751 H1767 0.961 . S
C1752 C1753 1.370 . S
C1752 C1754 1.363 . S
C1752 H1768 0.931 . S
C1753 C1752 1.370 . S
C1753 C1757 1.408 . S
C1754 C1752 1.363 . S
C1754 C1755 1.370 . S
C1754 C1758 1.524 . S
C1755 C1747 1.503 . S
C1755 C1754 1.370 . S
C1755 C1756 1.403 . S
C1756 C1755 1.403 . S
C1756 C1757 1.404 . S
C1756 C1759 1.539 . S
C1757 C1753 1.408 . S
C1757 C1756 1.404 . S
C1757 H1769 0.930 . S
C1758 C1754 1.524 . S
C1758 H1770 0.956 . S
C1758 H1771 0.961 . S
C1758 H1772 0.961 . S
C1759 C1756 1.539 . S
C1759 H1773 0.958 . S
C1759 H1774 0.961 . S
C1759 H1775 0.960 . S
H1760 C1744 0.931 . S
H1761 C1749 0.929 . S
H1762 C1750 0.960 . S
H1763 C1750 0.962 . S
H1764 C1750 0.960 . S
H1765 C1751 0.961 . S
H1766 C1751 0.961 . S
H1767 C1751 0.961 . S
H1768 C1752 0.931 . S
H1769 C1757 0.930 . S
H1770 C1758 0.956 . S
H1771 C1758 0.961 . S
H1772 C1758 0.961 . S
H1773 C1759 0.958 . S
H1774 C1759 0.961 . S
H1775 C1759 0.960 . S
C1776 C1777 1.391 . S
C1776 C1778 1.394 . S
C1776 H1792 0.931 . S
C1777 C1776 1.391 . S
C1777 C1781 1.376 . S
C1778 C1776 1.394 . S
C1778 C1779 1.369 . S
C1778 C1782 1.531 . S
C1779 C1778 1.369 . S
C1779 C1780 1.410 . S
C1779 C1787 1.503 . S
C1780 C1779 1.410 . S
C1780 C1781 1.392 . S
C1780 C1783 1.511 . S
C1781 C1777 1.376 . S
C1781 C1780 1.392 . S
C1781 H1793 0.929 . S
C1782 C1778 1.531 . S
C1782 H1794 0.960 . S
C1782 H1795 0.962 . S
C1782 H1796 0.960 . S
C1783 C1780 1.511 . S
C1783 H1797 0.961 . S
C1783 H1798 0.961 . S
C1783 H1799 0.961 . S
C1784 C1785 1.370 . S
C1784 C1786 1.363 . S
C1784 H1800 0.931 . S
C1785 C1784 1.370 . S
C1785 C1789 1.408 . S
C1786 C1784 1.363 . S
C1786 C1787 1.370 . S
C1786 C1790 1.524 . S
C1787 C1779 1.503 . S
C1787 C1786 1.370 . S
C1787 C1788 1.403 . S
C1788 C1787 1.403 . S
C1788 C1789 1.404 . S
C1788 C1791 1.539 . S
C1789 C1785 1.408 . S
C1789 C1788 1.404 . S
C1789 H1801 0.930 . S
C1790 C1786 1.524 . S
C1790 H1802 0.956 . S
C1790 H1803 0.961 . S
C1790 H1804 0.961 . S
C1791 C1788 1.539 . S
C1791 H1805 0.958 . S
C1791 H1806 0.961 . S
C1791 H1807 0.960 . S
H1792 C1776 0.931 . S
H1793 C1781 0.929 . S
H1794 C1782 0.960 . S
H1795 C1782 0.962 . S
H1796 C1782 0.960 . S
H1797 C1783 0.961 . S
H1798 C1783 0.961 . S
H1799 C1783 0.961 . S
H1800 C1784 0.931 . S
H1801 C1789 0.930 . S
H1802 C1790 0.956 . S
H1803 C1790 0.961 . S
H1804 C1790 0.961 . S
H1805 C1791 0.958 . S
H1806 C1791 0.961 . S
H1807 C1791 0.960 . S
C1808 C1809 1.391 . S
C1808 C1810 1.394 . S
C1808 H1824 0.931 . S
C1809 C1808 1.391 . S
C1809 C1813 1.376 . S
C1810 C1808 1.394 . S
C1810 C1811 1.369 . S
C1810 C1814 1.531 . S
C1811 C1810 1.369 . S
C1811 C1812 1.410 . S
C1811 C1819 1.503 . S
C1812 C1811 1.410 . S
C1812 C1813 1.392 . S
C1812 C1815 1.511 . S
C1813 C1809 1.376 . S
C1813 C1812 1.392 . S
C1813 H1825 0.929 . S
C1814 C1810 1.531 . S
C1814 H1826 0.960 . S
C1814 H1827 0.962 . S
C1814 H1828 0.960 . S
C1815 C1812 1.511 . S
C1815 H1829 0.961 . S
C1815 H1830 0.961 . S
C1815 H1831 0.961 . S
C1816 C1817 1.370 . S
C1816 C1818 1.363 . S
C1816 H1832 0.931 . S
C1817 C1816 1.370 . S
C1817 C1821 1.408 . S
C1818 C1816 1.363 . S
C1818 C1819 1.370 . S
C1818 C1822 1.524 . S
C1819 C1811 1.503 . S
C1819 C1818 1.370 . S
C1819 C1820 1.403 . S
C1820 C1819 1.403 . S
C1820 C1821 1.404 . S
C1820 C1823 1.539 . S
C1821 C1817 1.408 . S
C1821 C1820 1.404 . S
C1821 H1833 0.930 . S
C1822 C1818 1.524 . S
C1822 H1834 0.956 . S
C1822 H1835 0.961 . S
C1822 H1836 0.961 . S
C1823 C1820 1.539 . S
C1823 H1837 0.958 . S
C1823 H1838 0.961 . S
C1823 H1839 0.960 . S
H1824 C1808 0.931 . S
H1825 C1813 0.929 . S
H1826 C1814 0.960 . S
H1827 C1814 0.962 . S
H1828 C1814 0.960 . S
H1829 C1815 0.961 . S
H1830 C1815 0.961 . S
H1831 C1815 0.961 . S
H1832 C1816 0.931 . S
H1833 C1821 0.930 . S
H1834 C1822 0.956 . S
H1835 C1822 0.961 . S
H1836 C1822 0.961 . S
H1837 C1823 0.958 . S
H1838 C1823 0.961 . S
H1839 C1823 0.960 . S
C1840 C1841 1.391 . S
C1840 C1842 1.394 . S
C1840 H1856 0.931 . S
C1841 C1840 1.391 . S
C1841 C1845 1.376 . S
C1842 C1840 1.394 . S
C1842 C1843 1.369 . S
C1842 C1846 1.531 . S
C1843 C1842 1.369 . S
C1843 C1844 1.410 . S
C1843 C1851 1.503 . S
C1844 C1843 1.410 . S
C1844 C1845 1.392 . S
C1844 C1847 1.511 . S
C1845 C1841 1.376 . S
C1845 C1844 1.392 . S
C1845 H1857 0.929 . S
C1846 C1842 1.531 . S
C1846 H1858 0.960 . S
C1846 H1859 0.962 . S
C1846 H1860 0.960 . S
C1847 C1844 1.511 . S
C1847 H1861 0.961 . S
C1847 H1862 0.961 . S
C1847 H1863 0.961 . S
C1848 C1849 1.370 . S
C1848 C1850 1.363 . S
C1848 H1864 0.931 . S
C1849 C1848 1.370 . S
C1849 C1853 1.408 . S
C1850 C1848 1.363 . S
C1850 C1851 1.370 . S
C1850 C1854 1.524 . S
C1851 C1843 1.503 . S
C1851 C1850 1.370 . S
C1851 C1852 1.403 . S
C1852 C1851 1.403 . S
C1852 C1853 1.404 . S
C1852 C1855 1.539 . S
C1853 C1849 1.408 . S
C1853 C1852 1.404 . S
C1853 H1865 0.930 . S
C1854 C1850 1.524 . S
C1854 H1866 0.956 . S
C1854 H1867 0.961 . S
C1854 H1868 0.961 . S
C1855 C1852 1.539 . S
C1855 H1869 0.958 . S
C1855 H1870 0.961 . S
C1855 H1871 0.960 . S
H1856 C1840 0.931 . S
H1857 C1845 0.929 . S
H1858 C1846 0.960 . S
H1859 C1846 0.962 . S
H1860 C1846 0.960 . S
H1861 C1847 0.961 . S
H1862 C1847 0.961 . S
H1863 C1847 0.961 . S
H1864 C1848 0.931 . S
H1865 C1853 0.930 . S
H1866 C1854 0.956 . S
H1867 C1854 0.961 . S
H1868 C1854 0.961 . S
H1869 C1855 0.958 . S
H1870 C1855 0.961 . S
H1871 C1855 0.960 . S
C1872 C1873 1.391 . S
C1872 C1874 1.394 . S
C1872 H1888 0.931 . S
C1873 C1872 1.391 . S
C1873 C1877 1.376 . S
C1874 C1872 1.394 . S
C1874 C1875 1.369 . S
C1874 C1878 1.531 . S
C1875 C1874 1.369 . S
C1875 C1876 1.410 . S
C1875 C1883 1.503 . S
C1876 C1875 1.410 . S
C1876 C1877 1.392 . S
C1876 C1879 1.511 . S
C1877 C1873 1.376 . S
C1877 C1876 1.392 . S
C1877 H1889 0.929 . S
C1878 C1874 1.531 . S
C1878 H1890 0.960 . S
C1878 H1891 0.962 . S
C1878 H1892 0.960 . S
C1879 C1876 1.511 . S
C1879 H1893 0.961 . S
C1879 H1894 0.961 . S
C1879 H1895 0.961 . S
C1880 C1881 1.370 . S
C1880 C1882 1.363 . S
C1880 H1896 0.931 . S
C1881 C1880 1.370 . S
C1881 C1885 1.408 . S
C1882 C1880 1.363 . S
C1882 C1883 1.370 . S
C1882 C1886 1.524 . S
C1883 C1875 1.503 . S
C1883 C1882 1.370 . S
C1883 C1884 1.403 . S
C1884 C1883 1.403 . S
C1884 C1885 1.404 . S
C1884 C1887 1.539 . S
C1885 C1881 1.408 . S
C1885 C1884 1.404 . S
C1885 H1897 0.930 . S
C1886 C1882 1.524 . S
C1886 H1898 0.956 . S
C1886 H1899 0.961 . S
C1886 H1900 0.961 . S
C1887 C1884 1.539 . S
C1887 H1901 0.958 . S
C1887 H1902 0.961 . S
C1887 H1903 0.960 . S
H1888 C1872 0.931 . S
H1889 C1877 0.929 . S
H1890 C1878 0.960 . S
H1891 C1878 0.962 . S
H1892 C1878 0.960 . S
H1893 C1879 0.961 . S
H1894 C1879 0.961 . S
H1895 C1879 0.961 . S
H1896 C1880 0.931 . S
H1897 C1885 0.930 . S
H1898 C1886 0.956 . S
H1899 C1886 0.961 . S
H1900 C1886 0.961 . S
H1901 C1887 0.958 . S
H1902 C1887 0.961 . S
H1903 C1887 0.960 . S
C1904 C1905 1.391 . S
C1904 C1906 1.394 . S
C1904 H1920 0.931 . S
C1905 C1904 1.391 . S
C1905 C1909 1.376 . S
C1906 C1904 1.394 . S
C1906 C1907 1.369 . S
C1906 C1910 1.531 . S
C1907 C1906 1.369 . S
C1907 C1908 1.410 . S
C1907 C1915 1.503 . S
C1908 C1907 1.410 . S
C1908 C1909 1.392 . S
C1908 C1911 1.511 . S
C1909 C1905 1.376 . S
C1909 C1908 1.392 . S
C1909 H1921 0.929 . S
C1910 C1906 1.531 . S
C1910 H1922 0.960 . S
C1910 H1923 0.962 . S
C1910 H1924 0.960 . S
C1911 C1908 1.511 . S
C1911 H1925 0.961 . S
C1911 H1926 0.961 . S
C1911 H1927 0.961 . S
C1912 C1913 1.370 . S
C1912 C1914 1.363 . S
C1912 H1928 0.931 . S
C1913 C1912 1.370 . S
C1913 C1917 1.408 . S
C1914 C1912 1.363 . S
C1914 C1915 1.370 . S
C1914 C1918 1.524 . S
C1915 C1907 1.503 . S
C1915 C1914 1.370 . S
C1915 C1916 1.403 . S
C1916 C1915 1.403 . S
C1916 C1917 1.404 . S
C1916 C1919 1.539 . S
C1917 C1913 1.408 . S
C1917 C1916 1.404 . S
C1917 H1929 0.930 . S
C1918 C1914 1.524 . S
C1918 H1930 0.956 . S
C1918 H1931 0.961 . S
C1918 H1932 0.961 . S
C1919 C1916 1.539 . S
C1919 H1933 0.958 . S
C1919 H1934 0.961 . S
C1919 H1935 0.960 . S
H1920 C1904 0.931 . S
H1921 C1909 0.929 . S
H1922 C1910 0.960 . S
H1923 C1910 0.962 . S
H1924 C1910 0.960 . S
H1925 C1911 0.961 . S
H1926 C1911 0.961 . S
H1927 C1911 0.961 . S
H1928 C1912 0.931 . S
H1929 C1917 0.930 . S
H1930 C1918 0.956 . S
H1931 C1918 0.961 . S
H1932 C1918 0.961 . S
H1933 C1919 0.958 . S
H1934 C1919 0.961 . S
H1935 C1919 0.960 . S
C1936 C1937 1.391 . S
C1936 C1938 1.394 . S
C1936 H1952 0.931 . S
C1937 C1936 1.391 . S
C1937 C1941 1.376 . S
C1938 C1936 1.394 . S
C1938 C1939 1.369 . S
C1938 C1942 1.531 . S
C1939 C1938 1.369 . S
C1939 C1940 1.410 . S
C1939 C1947 1.503 . S
C1940 C1939 1.410 . S
C1940 C1941 1.392 . S
C1940 C1943 1.511 . S
C1941 C1937 1.376 . S
C1941 C1940 1.392 . S
C1941 H1953 0.929 . S
C1942 C1938 1.531 . S
C1942 H1954 0.960 . S
C1942 H1955 0.962 . S
C1942 H1956 0.960 . S
C1943 C1940 1.511 . S
C1943 H1957 0.961 . S
C1943 H1958 0.961 . S
C1943 H1959 0.961 . S
C1944 C1945 1.370 . S
C1944 C1946 1.363 . S
C1944 H1960 0.931 . S
C1945 C1944 1.370 . S
C1945 C1949 1.408 . S
C1946 C1944 1.363 . S
C1946 C1947 1.370 . S
C1946 C1950 1.524 . S
C1947 C1939 1.503 . S
C1947 C1946 1.370 . S
C1947 C1948 1.403 . S
C1948 C1947 1.403 . S
C1948 C1949 1.404 . S
C1948 C1951 1.539 . S
C1949 C1945 1.408 . S
C1949 C1948 1.404 . S
C1949 H1961 0.930 . S
C1950 C1946 1.524 . S
C1950 H1962 0.956 . S
C1950 H1963 0.961 . S
C1950 H1964 0.961 . S
C1951 C1948 1.539 . S
C1951 H1965 0.958 . S
C1951 H1966 0.961 . S
C1951 H1967 0.960 . S
H1952 C1936 0.931 . S
H1953 C1941 0.929 . S
H1954 C1942 0.960 . S
H1955 C1942 0.962 . S
H1956 C1942 0.960 . S
H1957 C1943 0.961 . S
H1958 C1943 0.961 . S
H1959 C1943 0.961 . S
H1960 C1944 0.931 . S
H1961 C1949 0.930 . S
H1962 C1950 0.956 . S
H1963 C1950 0.961 . S
H1964 C1950 0.961 . S
H1965 C1951 0.958 . S
H1966 C1951 0.961 . S
H1967 C1951 0.960 . S
C945 C3 1.626 . S
C953 C713 1.623 . S
C977 C772 1.628 . S
C985 C62 1.619 . S
C1009 C121 1.611 . S
C1017 C831 1.625 . S
C1041 C890 1.612 . S
C1049 C180 1.626 . S
C1073 C475 1.609 . S
C1081 C241 1.631 . S
C1105 C300 1.627 . S
C1113 C534 1.619 . S
C1137 C593 1.610 . S
C1145 C359 1.625 . S
C1169 C418 1.620 . S
C1177 C652 1.630 . S
C1201 C33 1.801 . S
C1209 C151 1.776 . S
C1233 C92 1.760 . S
C1241 C210 1.793 . S
C1265 C269 1.604 . S
C1273 C387 1.598 . S
C1297 C328 1.572 . S
C1305 C446 1.608 . S
C1329 C623 1.796 . S
C1337 C505 1.778 . S
C1361 C564 1.760 . S
C1369 C682 1.793 . S
C1393 C859 1.577 . S
C1401 C741 1.603 . S
C1425 C800 1.617 . S
C1433 C918 1.591 . S
C1457 C406 1.657 . S
C1465 C52 1.667 . S
C1489 C465 1.660 . S
C1497 C111 1.673 . S
C1521 C170 1.654 . S
C1529 C288 1.669 . S
C1553 C229 1.676 . S
C1561 C347 1.656 . S
C1585 C878 1.653 . S
C1593 C524 1.668 . S
C1617 C583 1.663 . S
C1625 C937 1.659 . S
C1649 C760 1.675 . S
C1657 C642 1.666 . S
C1681 C701 1.663 . S
C1689 C819 1.660 . S
C1713 C5 1.855 . S
C1721 C182 1.856 . S
C1745 C123 1.859 . S
C1753 C64 1.858 . S
C1777 C239 1.267 . S
C1785 C416 1.271 . S
C1809 C298 1.270 . S
C1817 C357 1.272 . S
C1841 C654 1.853 . S
C1849 C477 1.861 . S
C1873 C536 1.852 . S
C1881 C595 1.861 . S
C1905 C888 1.274 . S
C1913 C711 1.262 . S
C1937 C770 1.248 . S
C1945 C829 1.256 . S
