# Generated by pormake.
# Topology zfg, (5)-cn, num edge types: 1
# Building blocks:
#     Node 0, Type 0, BuildingBlock: BEQFEK_clean_sbu_0, # of connection points: 5
#     Node 1, Type 0, BuildingBlock: BEQFEK_clean_sbu_0, # of connection points: 5
#     Node 2, Type 0, BuildingBlock: BEQFEK_clean_sbu_0, # of connection points: 5
#     Node 3, Type 0, BuildingBlock: BEQFEK_clean_sbu_0, # of connection points: 5
#     Node 4, Type 0, BuildingBlock: BEQFEK_clean_sbu_0, # of connection points: 5
#     Node 5, Type 0, BuildingBlock: BEQFEK_clean_sbu_0, # of connection points: 5
#     Node 6, Type 0, BuildingBlock: BEQFEK_clean_sbu_0, # of connection points: 5
#     Node 7, Type 0, BuildingBlock: BEQFEK_clean_sbu_0, # of connection points: 5
#     Node 8, Type 0, BuildingBlock: BEQFEK_clean_sbu_0, # of connection points: 5
#     Node 9, Type 0, BuildingBlock: BEQFEK_clean_sbu_0, # of connection points: 5
#     Node 10, Type 0, BuildingBlock: BEQFEK_clean_sbu_0, # of connection points: 5
#     Node 11, Type 0, BuildingBlock: BEQFEK_clean_sbu_0, # of connection points: 5
#     Node 12, Type 0, BuildingBlock: BEQFEK_clean_sbu_0, # of connection points: 5
#     Node 13, Type 0, BuildingBlock: BEQFEK_clean_sbu_0, # of connection points: 5
#     Node 14, Type 0, BuildingBlock: BEQFEK_clean_sbu_0, # of connection points: 5
#     Node 15, Type 0, BuildingBlock: BEQFEK_clean_sbu_0, # of connection points: 5
#     Edge 16, Type (0, 0), BuildingBlock: ZUJKAS_clean_linker_0, # of connection points: 2
#     Edge 17, Type (0, 0), BuildingBlock: ZUJKAS_clean_linker_0, # of connection points: 2
#     Edge 18, Type (0, 0), BuildingBlock: ZUJKAS_clean_linker_0, # of connection points: 2
#     Edge 19, Type (0, 0), BuildingBlock: ZUJKAS_clean_linker_0, # of connection points: 2
#     Edge 20, Type (0, 0), BuildingBlock: ZUJKAS_clean_linker_0, # of connection points: 2
#     Edge 21, Type (0, 0), BuildingBlock: ZUJKAS_clean_linker_0, # of connection points: 2
#     Edge 22, Type (0, 0), BuildingBlock: ZUJKAS_clean_linker_0, # of connection points: 2
#     Edge 23, Type (0, 0), BuildingBlock: ZUJKAS_clean_linker_0, # of connection points: 2
#     Edge 24, Type (0, 0), BuildingBlock: ZUJKAS_clean_linker_0, # of connection points: 2
#     Edge 25, Type (0, 0), BuildingBlock: ZUJKAS_clean_linker_0, # of connection points: 2
#     Edge 26, Type (0, 0), BuildingBlock: ZUJKAS_clean_linker_0, # of connection points: 2
#     Edge 27, Type (0, 0), BuildingBlock: ZUJKAS_clean_linker_0, # of connection points: 2
#     Edge 28, Type (0, 0), BuildingBlock: ZUJKAS_clean_linker_0, # of connection points: 2
#     Edge 29, Type (0, 0), BuildingBlock: ZUJKAS_clean_linker_0, # of connection points: 2
#     Edge 30, Type (0, 0), BuildingBlock: ZUJKAS_clean_linker_0, # of connection points: 2
#     Edge 31, Type (0, 0), BuildingBlock: ZUJKAS_clean_linker_0, # of connection points: 2
#     Edge 32, Type (0, 0), BuildingBlock: ZUJKAS_clean_linker_0, # of connection points: 2
#     Edge 33, Type (0, 0), BuildingBlock: ZUJKAS_clean_linker_0, # of connection points: 2
#     Edge 34, Type (0, 0), BuildingBlock: ZUJKAS_clean_linker_0, # of connection points: 2
#     Edge 35, Type (0, 0), BuildingBlock: ZUJKAS_clean_linker_0, # of connection points: 2
#     Edge 36, Type (0, 0), BuildingBlock: ZUJKAS_clean_linker_0, # of connection points: 2
#     Edge 37, Type (0, 0), BuildingBlock: ZUJKAS_clean_linker_0, # of connection points: 2
#     Edge 38, Type (0, 0), BuildingBlock: ZUJKAS_clean_linker_0, # of connection points: 2
#     Edge 39, Type (0, 0), BuildingBlock: ZUJKAS_clean_linker_0, # of connection points: 2
#     Edge 40, Type (0, 0), BuildingBlock: ZUJKAS_clean_linker_0, # of connection points: 2
#     Edge 41, Type (0, 0), BuildingBlock: ZUJKAS_clean_linker_0, # of connection points: 2
#     Edge 42, Type (0, 0), BuildingBlock: ZUJKAS_clean_linker_0, # of connection points: 2
#     Edge 43, Type (0, 0), BuildingBlock: ZUJKAS_clean_linker_0, # of connection points: 2
#     Edge 44, Type (0, 0), BuildingBlock: ZUJKAS_clean_linker_0, # of connection points: 2
#     Edge 45, Type (0, 0), BuildingBlock: ZUJKAS_clean_linker_0, # of connection points: 2
#     Edge 46, Type (0, 0), BuildingBlock: ZUJKAS_clean_linker_0, # of connection points: 2
#     Edge 47, Type (0, 0), BuildingBlock: ZUJKAS_clean_linker_0, # of connection points: 2
#     Edge 48, Type (0, 0), BuildingBlock: ZUJKAS_clean_linker_0, # of connection points: 2
#     Edge 49, Type (0, 0), BuildingBlock: ZUJKAS_clean_linker_0, # of connection points: 2
#     Edge 50, Type (0, 0), BuildingBlock: ZUJKAS_clean_linker_0, # of connection points: 2
#     Edge 51, Type (0, 0), BuildingBlock: ZUJKAS_clean_linker_0, # of connection points: 2
#     Edge 52, Type (0, 0), BuildingBlock: ZUJKAS_clean_linker_0, # of connection points: 2
#     Edge 53, Type (0, 0), BuildingBlock: ZUJKAS_clean_linker_0, # of connection points: 2
#     Edge 54, Type (0, 0), BuildingBlock: ZUJKAS_clean_linker_0, # of connection points: 2
#     Edge 55, Type (0, 0), BuildingBlock: ZUJKAS_clean_linker_0, # of connection points: 2
# Relax obj value: 0.041
# Max RMSD: 0.069
# Mean RMSD: 0.069
data_MOF--net-zfg--node1-BEQFEK_clean_sbu_0--edge1-ZUJKAS_clean_linker_0
_symmetry_space_group_name_H-M    P1
_symmetry_Int_Tables_number       1
_symmetry_cell_setting            triclinic
loop_
_symmetry_equiv_pos_as_xyz
'x, y, z'
_cell_length_a     53.048818
_cell_length_b     53.027586
_cell_length_c     75.145267
_cell_angle_alpha  89.981187
_cell_angle_beta   89.994701
_cell_angle_gamma 89.967809
loop_
_atom_site_label
_atom_site_type_symbol
_atom_site_fract_x
_atom_site_fract_y
_atom_site_fract_z
_atom_type_partial_charge
Co0 Co 0.08208 0.24597 0.13003 0.0
Co1 Co 0.05414 0.29783 0.12917 0.0
C2 C 0.08166 0.27952 0.09728 0.0
O3 O 0.08791 0.25934 0.10543 0.0
O4 O 0.06877 0.29662 0.10498 0.0
C5 C 0.12566 0.21348 0.12867 0.0
O6 O 0.13725 0.23337 0.1222 0.0
C7 C 0.03985 0.35154 0.12562 0.0
C8 C 0.00808 0.35329 0.14463 0.0
C9 C 0.02173 0.36773 0.13265 0.0
N10 N 0.0368 0.3287 0.1331 0.0
N11 N 0.01777 0.3299 0.1444 0.0
C12 C 0.0608 0.35775 0.11304 0.0
H13 H 0.0768 0.34455 0.11496 0.0
H14 H 0.06736 0.37742 0.11505 0.0
H15 H 0.05391 0.35574 0.09917 0.0
C16 C 0.10521 0.26969 0.16224 0.0
N17 N 0.09018 0.27033 0.14776 0.0
N18 N 0.07902 0.29246 0.14695 0.0
C19 C 0.08697 0.3068 0.16064 0.0
C20 C 0.10372 0.29283 0.17092 0.0
C21 C 0.11895 0.24666 0.16846 0.0
H22 H 0.10757 0.22958 0.16569 0.0
H23 H 0.13702 0.24508 0.1611 0.0
H24 H 0.12307 0.24759 0.18292 0.0
O25 O 0.04652 0.23516 0.13241 0.0
O26 O 0.0273 0.27216 0.13092 0.0
H27 H 0.05982 0.33416 0.16894 0.0
H28 H 0.09215 0.34355 0.17271 0.0
C29 C 0.07923 0.33366 0.16345 0.0
H30 H 0.07924 0.34376 0.15055 0.0
H31 H 0.0114 0.31468 0.15197 0.0
O32 O 0.10257 0.21512 0.13297 0.0
C33 C 0.02644 0.24829 0.13228 0.0
Co34 Co 0.75169 0.0838 0.13121 0.0
Co35 Co 0.70026 0.05529 0.13021 0.0
C36 C 0.71855 0.08309 0.09836 0.0
O37 O 0.73859 0.08964 0.10654 0.0
O38 O 0.70164 0.06998 0.10605 0.0
C39 C 0.78453 0.12707 0.12918 0.0
O40 O 0.7652 0.1383 0.12165 0.0
C41 C 0.64667 0.04154 0.12624 0.0
C42 C 0.64456 0.00865 0.14426 0.0
C43 C 0.63032 0.02312 0.13264 0.0
N44 N 0.6694 0.03787 0.13371 0.0
N45 N 0.668 0.01817 0.14442 0.0
C46 C 0.64073 0.06331 0.11428 0.0
H47 H 0.65419 0.07898 0.11661 0.0
H48 H 0.6212 0.07009 0.11656 0.0
H49 H 0.64255 0.0572 0.10022 0.0
C50 C 0.72745 0.10679 0.1633 0.0
N51 N 0.72711 0.09165 0.14887 0.0
N52 N 0.70518 0.08013 0.14807 0.0
C53 C 0.69069 0.08789 0.16175 0.0
C54 C 0.70434 0.10494 0.17198 0.0
C55 C 0.75018 0.1211 0.16938 0.0
H56 H 0.76742 0.10974 0.16704 0.0
H57 H 0.75173 0.13877 0.16154 0.0
H58 H 0.74895 0.12593 0.18371 0.0
O59 O 0.76282 0.04825 0.13348 0.0
O60 O 0.72608 0.02861 0.13203 0.0
H61 H 0.66381 0.06008 0.16971 0.0
H62 H 0.65394 0.09217 0.17403 0.0
C63 C 0.66398 0.07969 0.16455 0.0
H64 H 0.65379 0.07999 0.15169 0.0
H65 H 0.68311 0.01123 0.15184 0.0
O66 O 0.78237 0.10438 0.13437 0.0
C67 C 0.74996 0.02801 0.13335 0.0
Co68 Co 0.91517 0.75299 0.13113 0.0
Co69 Co 0.94436 0.7018 0.13047 0.0
C70 C 0.9162 0.71987 0.09851 0.0
O71 O 0.9095 0.73998 0.10652 0.0
O72 O 0.92944 0.70315 0.10633 0.0
C73 C 0.87314 0.78703 0.12731 0.0
O74 O 0.8633 0.76891 0.11762 0.0
C75 C 0.95561 0.64759 0.12745 0.0
C76 C 0.99191 0.64547 0.14182 0.0
C77 C 0.97464 0.63097 0.1325 0.0
N78 N 0.96158 0.67069 0.13348 0.0
N79 N 0.9833 0.66929 0.14201 0.0
C80 C 0.93148 0.64179 0.11801 0.0
H81 H 0.91704 0.65627 0.12117 0.0
H82 H 0.92443 0.62285 0.12183 0.0
H83 H 0.93484 0.6421 0.10344 0.0
C84 C 0.89115 0.72825 0.16251 0.0
N85 N 0.90721 0.7282 0.1486 0.0
N86 N 0.91959 0.70669 0.14838 0.0
C87 C 0.91188 0.69238 0.16217 0.0
C88 C 0.89352 0.7055 0.17158 0.0
C89 C 0.87343 0.74944 0.16659 0.0
H90 H 0.88439 0.76693 0.16899 0.0
H91 H 0.8611 0.75275 0.15492 0.0
H92 H 0.86138 0.74533 0.17829 0.0
O93 O 0.95077 0.76412 0.13353 0.0
O94 O 0.97091 0.7276 0.13227 0.0
H95 H 0.94417 0.6691 0.16691 0.0
H96 H 0.91728 0.66096 0.18034 0.0
C97 C 0.92335 0.66748 0.16699 0.0
H98 H 0.91785 0.65323 0.15692 0.0
H99 H 0.99226 0.68464 0.14796 0.0
O100 O 0.89456 0.78372 0.13449 0.0
C101 C 0.97117 0.75148 0.13353 0.0
Co102 Co 0.24587 0.91649 0.13265 0.0
Co103 Co 0.29777 0.94415 0.13166 0.0
C104 C 0.2791 0.91661 0.09984 0.0
O105 O 0.25894 0.91039 0.108 0.0
O106 O 0.29619 0.92947 0.10754 0.0
C107 C 0.2128 0.87342 0.13104 0.0
O108 O 0.23234 0.86179 0.1241 0.0
C109 C 0.35152 0.95715 0.12754 0.0
C110 C 0.35428 0.98982 0.14571 0.0
C111 C 0.36819 0.97527 0.13394 0.0
N112 N 0.32892 0.96105 0.13516 0.0
N113 N 0.33071 0.98061 0.14596 0.0
C114 C 0.35705 0.93544 0.11545 0.0
H115 H 0.34351 0.91986 0.11785 0.0
H116 H 0.37657 0.92848 0.1175 0.0
H117 H 0.355 0.94169 0.10143 0.0
C118 C 0.26969 0.89326 0.16485 0.0
N119 N 0.27029 0.90829 0.15036 0.0
N120 N 0.29242 0.91942 0.14952 0.0
C121 C 0.30678 0.91147 0.16321 0.0
C122 C 0.29283 0.89475 0.17351 0.0
C123 C 0.2467 0.87944 0.17102 0.0
H124 H 0.22963 0.89095 0.16846 0.0
H125 H 0.245 0.86156 0.16344 0.0
H126 H 0.24776 0.87497 0.18542 0.0
O127 O 0.23532 0.95221 0.13482 0.0
O128 O 0.27238 0.97126 0.13348 0.0
H129 H 0.33418 0.93876 0.17118 0.0
H130 H 0.34349 0.90648 0.1754 0.0
C131 C 0.33364 0.91919 0.16597 0.0
H132 H 0.34377 0.91879 0.15309 0.0
H133 H 0.31577 0.98769 0.15349 0.0
O134 O 0.21489 0.89632 0.13575 0.0
C135 C 0.24851 0.97224 0.13473 0.0
Co136 Co 0.58351 0.25324 0.37518 0.0
Co137 Co 0.55618 0.20092 0.37641 0.0
C138 C 0.58336 0.22079 0.40826 0.0
O139 O 0.58957 0.24079 0.39991 0.0
O140 O 0.57063 0.20346 0.40069 0.0
C141 C 0.62479 0.28828 0.37826 0.0
O142 O 0.6356 0.27024 0.38751 0.0
C143 C 0.54499 0.14599 0.37888 0.0
C144 C 0.50853 0.14505 0.36464 0.0
C145 C 0.52559 0.12998 0.37364 0.0
N146 N 0.53951 0.16942 0.37315 0.0
N147 N 0.51775 0.16862 0.36461 0.0
C148 C 0.56757 0.13948 0.3899 0.0
H149 H 0.57557 0.15652 0.39625 0.0
H150 H 0.58228 0.13116 0.3812 0.0
H151 H 0.56254 0.12539 0.40023 0.0
C152 C 0.60788 0.22899 0.34376 0.0
N153 N 0.59224 0.22846 0.3579 0.0
N154 N 0.58096 0.20637 0.35852 0.0
C155 C 0.58915 0.1921 0.34484 0.0
C156 C 0.60654 0.20592 0.33504 0.0
C157 C 0.62401 0.25111 0.33895 0.0
H158 H 0.63749 0.25475 0.34992 0.0
H159 H 0.63482 0.24783 0.32654 0.0
H160 H 0.61199 0.26811 0.33742 0.0
O161 O 0.54763 0.26324 0.37268 0.0
O162 O 0.5289 0.22603 0.3743 0.0
H163 H 0.55811 0.16741 0.33974 0.0
H164 H 0.58628 0.15937 0.32759 0.0
C165 C 0.57896 0.16653 0.34046 0.0
H166 H 0.58416 0.15317 0.3512 0.0
H167 H 0.50901 0.18429 0.3589 0.0
O168 O 0.60311 0.28456 0.3716 0.0
C169 C 0.52773 0.24987 0.37282 0.0
Co170 Co 0.74705 0.58533 0.37532 0.0
Co171 Co 0.79758 0.55484 0.37559 0.0
C172 C 0.77983 0.58224 0.408 0.0
O173 O 0.76007 0.58988 0.39997 0.0
O174 O 0.79624 0.56876 0.40006 0.0
C175 C 0.69653 0.60027 0.37958 0.0
O176 O 0.69618 0.5792 0.38878 0.0
C177 C 0.85171 0.54317 0.37814 0.0
C178 C 0.85332 0.50667 0.364 0.0
C179 C 0.86813 0.52401 0.373 0.0
N180 N 0.82844 0.53721 0.37246 0.0
N181 N 0.82953 0.51535 0.36407 0.0
C182 C 0.85783 0.56743 0.38732 0.0
H183 H 0.84321 0.58183 0.38434 0.0
H184 H 0.87661 0.57445 0.38311 0.0
H185 H 0.85806 0.56426 0.40191 0.0
C186 C 0.77249 0.61003 0.34463 0.0
N187 N 0.77215 0.59341 0.35819 0.0
N188 N 0.7933 0.58041 0.35812 0.0
C189 C 0.80766 0.58813 0.34436 0.0
C190 C 0.79503 0.60728 0.33536 0.0
C191 C 0.75171 0.62838 0.34091 0.0
H192 H 0.74572 0.6375 0.35351 0.0
H193 H 0.75768 0.64314 0.33133 0.0
H194 H 0.73526 0.61806 0.33544 0.0
O195 O 0.73523 0.54993 0.37221 0.0
O196 O 0.77129 0.52894 0.37317 0.0
H197 H 0.82974 0.55502 0.33948 0.0
H198 H 0.83776 0.58123 0.32538 0.0
C199 C 0.8319 0.57579 0.33901 0.0
H200 H 0.8469 0.58124 0.34854 0.0
H201 H 0.81401 0.50639 0.35836 0.0
O202 O 0.71706 0.60728 0.3724 0.0
C203 C 0.74741 0.52925 0.37187 0.0
Co204 Co 0.41154 0.74632 0.37688 0.0
Co205 Co 0.44408 0.79553 0.37607 0.0
C206 C 0.41682 0.77915 0.40918 0.0
O207 O 0.40772 0.75984 0.4014 0.0
O208 O 0.43111 0.79453 0.40093 0.0
C209 C 0.39113 0.6991 0.38513 0.0
O210 O 0.40822 0.70082 0.39773 0.0
C211 C 0.45863 0.84953 0.37778 0.0
C212 C 0.49473 0.84841 0.3631 0.0
C213 C 0.47866 0.86449 0.37216 0.0
N214 N 0.46277 0.82577 0.37219 0.0
N215 N 0.48434 0.82531 0.3634 0.0
C216 C 0.43663 0.85726 0.389 0.0
H217 H 0.4279 0.84073 0.39553 0.0
H218 H 0.42214 0.86618 0.38042 0.0
H219 H 0.44258 0.87115 0.39922 0.0
C220 C 0.38756 0.77169 0.34594 0.0
N221 N 0.40421 0.77125 0.35947 0.0
N222 N 0.41769 0.79208 0.35914 0.0
C223 C 0.41004 0.80645 0.34535 0.0
C224 C 0.39063 0.79404 0.33653 0.0
C225 C 0.36903 0.75107 0.34226 0.0
H226 H 0.35876 0.74634 0.35468 0.0
H227 H 0.35526 0.75657 0.33185 0.0
H228 H 0.37937 0.73394 0.33793 0.0
O229 O 0.44624 0.73293 0.37388 0.0
O230 O 0.46886 0.76802 0.37308 0.0
H231 H 0.41571 0.83728 0.32676 0.0
H232 H 0.41884 0.84517 0.35004 0.0
C233 C 0.42256 0.83051 0.33986 0.0
H234 H 0.44322 0.82758 0.33908 0.0
H235 H 0.49213 0.80912 0.35773 0.0
O236 O 0.38862 0.71725 0.37424 0.0
C237 C 0.46738 0.74411 0.37254 0.0
Co238 Co 0.25154 0.41204 0.3749 0.0
Co239 Co 0.20099 0.44238 0.37558 0.0
C240 C 0.21826 0.41399 0.40758 0.0
O241 O 0.23797 0.40657 0.39936 0.0
O242 O 0.20187 0.42786 0.39993 0.0
C243 C 0.28438 0.36843 0.3773 0.0
O244 O 0.26535 0.35732 0.38529 0.0
C245 C 0.14763 0.45793 0.37902 0.0
C246 C 0.14673 0.49006 0.36027 0.0
C247 C 0.13188 0.47647 0.37202 0.0
N248 N 0.17062 0.46067 0.37172 0.0
N249 N 0.16994 0.47994 0.36059 0.0
C250 C 0.14085 0.43684 0.39134 0.0
H251 H 0.15385 0.42067 0.38941 0.0
H252 H 0.12114 0.43062 0.38907 0.0
H253 H 0.14268 0.44345 0.40529 0.0
C254 C 0.22699 0.38957 0.34291 0.0
N255 N 0.22696 0.40495 0.3572 0.0
N256 N 0.20539 0.41718 0.35782 0.0
C257 C 0.19083 0.40968 0.34412 0.0
C258 C 0.20405 0.39203 0.3341 0.0
C259 C 0.24933 0.37441 0.3371 0.0
H260 H 0.26685 0.38541 0.33919 0.0
H261 H 0.25046 0.35705 0.34531 0.0
H262 H 0.24796 0.36902 0.32287 0.0
O263 O 0.26355 0.4472 0.37286 0.0
O264 O 0.2276 0.46834 0.37371 0.0
H265 H 0.16493 0.43822 0.33579 0.0
H266 H 0.15416 0.40642 0.33158 0.0
C267 C 0.16443 0.41869 0.34108 0.0
H268 H 0.15405 0.41887 0.35386 0.0
H269 H 0.18536 0.48613 0.35316 0.0
O270 O 0.28192 0.39094 0.37179 0.0
C271 C 0.25151 0.46793 0.3727 0.0
Co272 Co 0.91424 0.75241 0.87604 0.0
Co273 Co 0.94431 0.70168 0.87689 0.0
C274 C 0.91544 0.71929 0.90867 0.0
O275 O 0.90826 0.73916 0.90055 0.0
O276 O 0.92926 0.70291 0.901 0.0
C277 C 0.87066 0.78517 0.87773 0.0
O278 O 0.85941 0.76596 0.8854 0.0
C279 C 0.95764 0.6479 0.88057 0.0
C280 C 0.99207 0.64617 0.86405 0.0
C281 C 0.97648 0.6316 0.8747 0.0
N282 N 0.96211 0.67089 0.87371 0.0
N283 N 0.98275 0.66972 0.86391 0.0
C284 C 0.9348 0.64173 0.89141 0.0
H285 H 0.91957 0.65561 0.88877 0.0
H286 H 0.92796 0.62245 0.88833 0.0
H287 H 0.93971 0.6427 0.90574 0.0
C288 C 0.89198 0.72773 0.84395 0.0
N289 N 0.90711 0.72767 0.85837 0.0
N290 N 0.91965 0.70624 0.85887 0.0
C291 C 0.91285 0.69198 0.84484 0.0
C292 C 0.89514 0.70512 0.83487 0.0
C293 C 0.87639 0.74982 0.83824 0.0
H294 H 0.88745 0.76744 0.83971 0.0
H295 H 0.85959 0.75121 0.84698 0.0
H296 H 0.87006 0.74795 0.82423 0.0
O297 O 0.94964 0.76409 0.87404 0.0
O298 O 0.97047 0.72793 0.87498 0.0
H299 H 0.94324 0.66762 0.83753 0.0
H300 H 0.91263 0.65666 0.83026 0.0
C301 C 0.92302 0.66617 0.84116 0.0
H302 H 0.92151 0.65449 0.85333 0.0
H303 H 0.99044 0.68504 0.85709 0.0
O304 O 0.89337 0.78291 0.87262 0.0
C305 C 0.97026 0.75184 0.87389 0.0
Co306 Co 0.24646 0.91482 0.87694 0.0
Co307 Co 0.29723 0.94465 0.87765 0.0
C308 C 0.27914 0.91682 0.90976 0.0
O309 O 0.2592 0.90987 0.90167 0.0
O310 O 0.29587 0.93002 0.90194 0.0
C311 C 0.21036 0.87523 0.88332 0.0
O312 O 0.22552 0.86891 0.8964 0.0
C313 C 0.35139 0.95595 0.88027 0.0
C314 C 0.35306 0.99285 0.86663 0.0
C315 C 0.36784 0.97519 0.87537 0.0
N316 N 0.32813 0.96218 0.87472 0.0
N317 N 0.32925 0.98426 0.86663 0.0
C318 C 0.35747 0.93141 0.88911 0.0
H319 H 0.34278 0.91717 0.88599 0.0
H320 H 0.3762 0.92442 0.88474 0.0
H321 H 0.35781 0.93418 0.90374 0.0
C322 C 0.27191 0.89026 0.84616 0.0
N323 N 0.27161 0.90674 0.8598 0.0
N324 N 0.29282 0.91959 0.85984 0.0
C325 C 0.30717 0.91196 0.84604 0.0
C326 C 0.29447 0.89298 0.83692 0.0
C327 C 0.2512 0.87183 0.84248 0.0
H328 H 0.24587 0.86215 0.855 0.0
H329 H 0.25691 0.85748 0.83253 0.0
H330 H 0.23439 0.88218 0.83756 0.0
O331 O 0.23488 0.9503 0.87406 0.0
O332 O 0.27113 0.97084 0.87554 0.0
H333 H 0.32965 0.94494 0.84167 0.0
H334 H 0.33722 0.91912 0.82709 0.0
C335 C 0.33153 0.92417 0.84083 0.0
H336 H 0.34653 0.91816 0.85021 0.0
H337 H 0.31374 0.99345 0.86107 0.0
O338 O 0.21612 0.89369 0.87333 0.0
C339 C 0.24728 0.97084 0.87406 0.0
Co340 Co 0.08323 0.24651 0.87439 0.0
Co341 Co 0.05441 0.29792 0.87528 0.0
C342 C 0.08232 0.27956 0.90719 0.0
O343 O 0.08911 0.25959 0.899 0.0
O344 O 0.06902 0.29636 0.8995 0.0
C345 C 0.12633 0.21311 0.87606 0.0
O346 O 0.13802 0.23228 0.88342 0.0
C347 C 0.0408 0.35167 0.87932 0.0
C348 C 0.00805 0.354 0.8612 0.0
C349 C 0.02251 0.36816 0.87286 0.0
N350 N 0.03708 0.32895 0.87182 0.0
N351 N 0.01746 0.33048 0.86106 0.0
C352 C 0.06252 0.35748 0.89133 0.0
H353 H 0.07814 0.34394 0.88903 0.0
H354 H 0.06938 0.37699 0.88909 0.0
H355 H 0.05631 0.35567 0.90538 0.0
C356 C 0.10615 0.27077 0.8423 0.0
N357 N 0.091 0.27111 0.85672 0.0
N358 N 0.07937 0.29302 0.85747 0.0
C359 C 0.08708 0.30748 0.84377 0.0
C360 C 0.1042 0.29384 0.83357 0.0
C361 C 0.12051 0.24803 0.83625 0.0
H362 H 0.10917 0.23079 0.83856 0.0
H363 H 0.13814 0.24648 0.84412 0.0
H364 H 0.12541 0.24926 0.82193 0.0
O365 O 0.04773 0.2355 0.87225 0.0
O366 O 0.0277 0.2721 0.87324 0.0
H367 H 0.05909 0.33417 0.83575 0.0
H368 H 0.09108 0.34415 0.8313 0.0
C369 C 0.07871 0.33413 0.84086 0.0
H370 H 0.07901 0.34444 0.85367 0.0
H371 H 0.01049 0.31542 0.8536 0.0
O372 O 0.10357 0.21563 0.87113 0.0
C373 C 0.02738 0.24818 0.87211 0.0
Co374 Co 0.75243 0.08331 0.87549 0.0
Co375 Co 0.70061 0.05524 0.87582 0.0
C376 C 0.71869 0.0819 0.90814 0.0
O377 O 0.73893 0.08825 0.90013 0.0
O378 O 0.70158 0.06933 0.90021 0.0
C379 C 0.78749 0.12388 0.88174 0.0
O380 O 0.7711 0.13117 0.89379 0.0
C381 C 0.64706 0.04065 0.87918 0.0
C382 C 0.64537 0.0093 0.85983 0.0
C383 C 0.63096 0.02258 0.87202 0.0
N384 N 0.66984 0.03791 0.87159 0.0
N385 N 0.66869 0.01914 0.86008 0.0
C386 C 0.64081 0.06126 0.89204 0.0
H387 H 0.65371 0.0775 0.89012 0.0
H388 H 0.62101 0.06759 0.89031 0.0
H389 H 0.64325 0.05413 0.90581 0.0
C390 C 0.72887 0.10739 0.84373 0.0
N391 N 0.72807 0.09181 0.8579 0.0
N392 N 0.70603 0.08048 0.85833 0.0
C393 C 0.69193 0.08875 0.84459 0.0
C394 C 0.70596 0.10599 0.83476 0.0
C395 C 0.75192 0.12165 0.8382 0.0
H396 H 0.76874 0.10933 0.83942 0.0
H397 H 0.75455 0.13797 0.84724 0.0
H398 H 0.75049 0.12852 0.82429 0.0
O399 O 0.76345 0.04776 0.87276 0.0
O400 O 0.72643 0.02857 0.87394 0.0
H401 H 0.66527 0.06142 0.83557 0.0
H402 H 0.65555 0.0937 0.83196 0.0
C403 C 0.6653 0.08071 0.84127 0.0
H404 H 0.65479 0.08029 0.854 0.0
H405 H 0.6839 0.01301 0.8524 0.0
O406 O 0.78295 0.10435 0.8725 0.0
C407 C 0.75031 0.02769 0.87269 0.0
Co408 Co 0.41266 0.7476 0.63161 0.0
Co409 Co 0.44216 0.79871 0.63189 0.0
C410 C 0.4147 0.7816 0.59937 0.0
O411 O 0.40735 0.76153 0.60719 0.0
O412 O 0.42814 0.79791 0.60745 0.0
C413 C 0.36947 0.71417 0.62931 0.0
O414 O 0.35774 0.73347 0.62211 0.0
C415 C 0.45649 0.85243 0.62867 0.0
C416 C 0.48715 0.85446 0.64855 0.0
C417 C 0.47389 0.86877 0.63629 0.0
N418 N 0.45945 0.82956 0.63612 0.0
N419 N 0.47789 0.8309 0.6479 0.0
C420 C 0.4362 0.85863 0.61556 0.0
H421 H 0.41987 0.84581 0.61738 0.0
H422 H 0.42996 0.8785 0.61706 0.0
H423 H 0.44364 0.85598 0.60189 0.0
C424 C 0.38922 0.77114 0.66377 0.0
N425 N 0.40469 0.77175 0.64952 0.0
N426 N 0.4168 0.79341 0.64935 0.0
C427 C 0.40925 0.80734 0.66337 0.0
C428 C 0.39164 0.79368 0.67305 0.0
C429 C 0.37404 0.74862 0.66915 0.0
H430 H 0.38539 0.73123 0.66741 0.0
H431 H 0.35723 0.74725 0.66042 0.0
H432 H 0.3677 0.74998 0.68319 0.0
O433 O 0.44814 0.73632 0.63393 0.0
O434 O 0.46862 0.77268 0.63387 0.0
H435 H 0.43804 0.83234 0.67249 0.0
H436 H 0.40643 0.84303 0.67726 0.0
C437 C 0.4185 0.83341 0.6673 0.0
H438 H 0.41864 0.84473 0.65491 0.0
H439 H 0.48402 0.81572 0.65561 0.0
O440 O 0.39219 0.71665 0.63434 0.0
C441 C 0.46863 0.74873 0.63457 0.0
Co442 Co 0.25297 0.41498 0.63074 0.0
Co443 Co 0.20103 0.44338 0.62997 0.0
C444 C 0.22035 0.4167 0.59774 0.0
O445 O 0.24025 0.40989 0.60598 0.0
O446 O 0.20329 0.42958 0.60548 0.0
C447 C 0.28866 0.37485 0.62487 0.0
O448 O 0.2726 0.36764 0.61259 0.0
C449 C 0.14625 0.4555 0.62775 0.0
C450 C 0.14565 0.49106 0.64309 0.0
C451 C 0.13038 0.47468 0.63364 0.0
N452 N 0.16975 0.46043 0.63359 0.0
N453 N 0.16915 0.48168 0.64275 0.0
C454 C 0.13958 0.43361 0.61611 0.0
H455 H 0.15649 0.42609 0.60931 0.0
H456 H 0.13157 0.41831 0.62444 0.0
H457 H 0.12526 0.43923 0.6061 0.0
C458 C 0.22833 0.39015 0.66173 0.0
N459 N 0.22802 0.40629 0.64786 0.0
N460 N 0.20613 0.41798 0.64746 0.0
C461 C 0.19179 0.40961 0.66106 0.0
C462 C 0.20534 0.39164 0.67054 0.0
C463 C 0.25019 0.37349 0.66621 0.0
H464 H 0.25495 0.36173 0.65448 0.0
H465 H 0.24602 0.36095 0.67766 0.0
H466 H 0.26686 0.38534 0.66931 0.0
O467 O 0.26364 0.4507 0.6336 0.0
O468 O 0.22668 0.47006 0.63241 0.0
H469 H 0.15918 0.41256 0.67843 0.0
H470 H 0.15296 0.41574 0.65489 0.0
C471 C 0.16646 0.4202 0.6657 0.0
H472 H 0.16781 0.441 0.66682 0.0
H473 H 0.1849 0.48992 0.64869 0.0
O474 O 0.28368 0.39417 0.63424 0.0
C475 C 0.25055 0.47083 0.63378 0.0
Co476 Co 0.58526 0.2537 0.63133 0.0
Co477 Co 0.55675 0.20205 0.63071 0.0
C478 C 0.5835 0.22074 0.59845 0.0
O479 O 0.59038 0.24058 0.60673 0.0
O480 O 0.57047 0.20374 0.60615 0.0
C481 C 0.59933 0.30451 0.62699 0.0
O482 O 0.57824 0.30465 0.61782 0.0
C483 C 0.54343 0.14817 0.627 0.0
C484 C 0.51369 0.14483 0.64749 0.0
C485 C 0.5269 0.13116 0.63485 0.0
N486 N 0.54004 0.17082 0.63469 0.0
N487 N 0.52211 0.1687 0.64681 0.0
C488 C 0.56349 0.14275 0.61355 0.0
H489 H 0.57956 0.1559 0.6153 0.0
H490 H 0.57023 0.123 0.61473 0.0
H491 H 0.55561 0.14554 0.60001 0.0
C492 C 0.60919 0.22977 0.66292 0.0
N493 N 0.59368 0.22913 0.64871 0.0
N494 N 0.58229 0.20712 0.64814 0.0
C495 C 0.59053 0.19285 0.66181 0.0
C496 C 0.60772 0.20676 0.67176 0.0
C497 C 0.62334 0.2528 0.66862 0.0
H498 H 0.61101 0.26962 0.66741 0.0
H499 H 0.63973 0.25555 0.65965 0.0
H500 H 0.6301 0.25124 0.68254 0.0
O501 O 0.54972 0.26453 0.63414 0.0
O502 O 0.52992 0.2278 0.63319 0.0
H503 H 0.56332 0.16601 0.67077 0.0
H504 H 0.59561 0.15632 0.67422 0.0
C505 C 0.58256 0.16616 0.665 0.0
H506 H 0.58215 0.15577 0.65222 0.0
H507 H 0.51589 0.18354 0.65481 0.0
O508 O 0.60663 0.28404 0.63413 0.0
C509 C 0.52946 0.25171 0.63445 0.0
Co510 Co 0.74719 0.58904 0.63079 0.0
Co511 Co 0.7952 0.55468 0.63112 0.0
C512 C 0.77906 0.5829 0.59825 0.0
O513 O 0.76029 0.59267 0.60626 0.0
O514 O 0.79405 0.56794 0.60628 0.0
C515 C 0.70078 0.61117 0.62255 0.0
O516 O 0.70243 0.5947 0.60954 0.0
C517 C 0.84911 0.54045 0.62943 0.0
C518 C 0.84798 0.50285 0.64212 0.0
C519 C 0.86418 0.52006 0.63428 0.0
N520 N 0.82523 0.53541 0.63431 0.0
N521 N 0.82474 0.51293 0.64189 0.0
C522 C 0.85682 0.56371 0.61954 0.0
H523 H 0.84036 0.57272 0.6131 0.0
H524 H 0.86499 0.57747 0.62903 0.0
H525 H 0.87128 0.55911 0.60937 0.0
C526 C 0.77418 0.61253 0.66118 0.0
N527 N 0.77275 0.59562 0.64785 0.0
N528 N 0.79274 0.58092 0.6483 0.0
C529 C 0.80728 0.58766 0.66224 0.0
C530 C 0.79611 0.60806 0.67082 0.0
C531 C 0.75505 0.6328 0.66429 0.0
H532 H 0.74956 0.6414 0.6514 0.0
H533 H 0.76242 0.64775 0.67321 0.0
H534 H 0.73794 0.62434 0.67033 0.0
O535 O 0.73297 0.55461 0.63388 0.0
O536 O 0.76723 0.53069 0.63438 0.0
H537 H 0.82633 0.55265 0.6671 0.0
H538 H 0.83486 0.57743 0.68229 0.0
C539 C 0.82995 0.57315 0.66827 0.0
H540 H 0.84621 0.578 0.65966 0.0
H541 H 0.80847 0.50437 0.64683 0.0
O542 O 0.71866 0.61262 0.63374 0.0
C543 C 0.74341 0.53306 0.63514 0.0
H544 H 0.10458 0.2451 0.92947 0.0
H545 H 0.10913 0.24792 0.96181 0.0
H546 H 0.0782 0.32311 0.96082 0.0
H547 H 0.0732 0.32038 0.92856 0.0
H548 H 0.13405 0.28209 0.98494 0.0
H549 H 0.03011 0.28456 0.99379 0.0
H550 H 0.04477 0.27617 0.97294 0.0
H551 H 0.04232 0.30872 0.97943 0.0
C552 C 0.09898 0.26236 0.93608 0.0
C553 C 0.08818 0.28238 0.92641 0.0
C554 C 0.10163 0.26394 0.95458 0.0
C555 C 0.09353 0.28552 0.96374 0.0
C556 C 0.08407 0.30606 0.95404 0.0
H557 H 0.07163 0.31982 0.0756 0.0
H558 H 0.07741 0.32253 0.04341 0.0
C559 C 0.08132 0.30449 0.93557 0.0
C560 C 0.09371 0.28603 0.98349 0.0
H561 H 0.05484 0.29002 0.0196 0.0
C562 C 0.11676 0.28383 0.99255 0.0
C563 C 0.07109 0.28816 0.99338 0.0
C564 C 0.04563 0.28931 0.98444 0.0
C565 C 0.11782 0.28413 0.01126 0.0
C566 C 0.09519 0.28631 0.02111 0.0
C567 C 0.07219 0.28854 0.01202 0.0
C568 C 0.09461 0.28571 0.04086 0.0
C569 C 0.14315 0.28249 0.0203 0.0
C570 C 0.10265 0.26421 0.05018 0.0
C571 C 0.0994 0.26259 0.06863 0.0
C572 C 0.08783 0.28236 0.0781 0.0
C573 C 0.08055 0.3042 0.06877 0.0
C574 C 0.08383 0.3058 0.05035 0.0
H575 H 0.15872 0.28785 0.01116 0.0
H576 H 0.14384 0.29487 0.03221 0.0
H577 H 0.14644 0.26279 0.02471 0.0
H578 H 0.11055 0.24827 0.04311 0.0
H579 H 0.10516 0.24546 0.07535 0.0
H580 H 0.75298 0.10426 0.93045 0.0
H581 H 0.75008 0.10889 0.96277 0.0
H582 H 0.67524 0.07728 0.96184 0.0
H583 H 0.67802 0.07221 0.92958 0.0
H584 H 0.71556 0.13385 0.98562 0.0
H585 H 0.71415 0.02998 0.99525 0.0
H586 H 0.72249 0.04441 0.97432 0.0
H587 H 0.68996 0.04181 0.98076 0.0
C588 C 0.73578 0.09849 0.93706 0.0
C589 C 0.71586 0.08753 0.9274 0.0
C590 C 0.73416 0.1012 0.95555 0.0
C591 C 0.71265 0.09298 0.96473 0.0
C592 C 0.69223 0.08326 0.95505 0.0
H593 H 0.67842 0.07249 0.07672 0.0
H594 H 0.67574 0.07775 0.0445 0.0
C595 C 0.69383 0.08048 0.93658 0.0
C596 C 0.71207 0.09344 0.98448 0.0
H597 H 0.70854 0.05506 0.02089 0.0
C598 C 0.71402 0.11665 0.99336 0.0
C599 C 0.71019 0.07095 0.99454 0.0
C600 C 0.70931 0.04534 0.98578 0.0
C601 C 0.71373 0.11799 0.01206 0.0
C602 C 0.71182 0.09548 0.02209 0.0
C603 C 0.70983 0.07231 0.01318 0.0
C604 C 0.71239 0.09522 0.04185 0.0
C605 C 0.71507 0.14348 0.02092 0.0
C606 C 0.73377 0.10359 0.05113 0.0
C607 C 0.73538 0.10064 0.06961 0.0
C608 C 0.7157 0.08905 0.07915 0.0
C609 C 0.69397 0.08144 0.06984 0.0
C610 C 0.69238 0.08443 0.0514 0.0
H611 H 0.70959 0.15887 0.01165 0.0
H612 H 0.70264 0.14423 0.0328 0.0
H613 H 0.73471 0.14701 0.02533 0.0
H614 H 0.74965 0.11153 0.04401 0.0
H615 H 0.75243 0.10665 0.0763 0.0
H616 H 0.92677 0.67917 0.93019 0.0
H617 H 0.9211 0.67607 0.96237 0.0
H618 H 0.8854 0.74914 0.96289 0.0
H619 H 0.89064 0.75231 0.93066 0.0
H620 H 0.94269 0.70905 0.9861 0.0
H621 H 0.8389 0.7081 0.995 0.0
H622 H 0.85378 0.70169 0.97386 0.0
H623 H 0.85019 0.73363 0.98148 0.0
C624 C 0.9173 0.69442 0.93707 0.0
C625 C 0.90927 0.71606 0.92781 0.0
C626 C 0.91408 0.6926 0.95548 0.0
C627 C 0.90263 0.71226 0.96503 0.0
C628 C 0.89382 0.7335 0.95577 0.0
H629 H 0.89322 0.7537 0.07613 0.0
H630 H 0.88831 0.75033 0.04384 0.0
C631 C 0.89699 0.73535 0.93733 0.0
C632 C 0.90223 0.71161 0.98477 0.0
H633 H 0.86361 0.71496 0.02111 0.0
C634 C 0.92538 0.71007 0.99375 0.0
C635 C 0.87964 0.71318 0.99472 0.0
C636 C 0.85418 0.71402 0.9858 0.0
C637 C 0.92663 0.71058 0.01239 0.0
C638 C 0.90406 0.71218 0.02236 0.0
C639 C 0.88087 0.71365 0.01342 0.0
C640 C 0.90444 0.71295 0.04209 0.0
C641 C 0.95219 0.71018 0.02122 0.0
C642 C 0.91434 0.69269 0.05186 0.0
C643 C 0.9173 0.69456 0.0703 0.0
C644 C 0.91023 0.71671 0.07934 0.0
C645 C 0.899 0.73643 0.0696 0.0
C646 C 0.89614 0.73454 0.05114 0.0
H647 H 0.96753 0.71508 0.01176 0.0
H648 H 0.95285 0.72356 0.03258 0.0
H649 H 0.95597 0.69095 0.02642 0.0
H650 H 0.9204 0.67565 0.04516 0.0
H651 H 0.92575 0.67889 0.07737 0.0
H652 H 0.31912 0.92809 0.93143 0.0
H653 H 0.32197 0.92245 0.96364 0.0
H654 H 0.24856 0.88759 0.96401 0.0
H655 H 0.24564 0.89279 0.93178 0.0
H656 H 0.28936 0.94416 0.98754 0.0
H657 H 0.28891 0.84023 0.99584 0.0
H658 H 0.29543 0.85527 0.97477 0.0
H659 H 0.26349 0.85201 0.98243 0.0
C660 C 0.30373 0.91884 0.93829 0.0
C661 C 0.2821 0.91098 0.92898 0.0
C662 C 0.30541 0.91563 0.95672 0.0
C663 C 0.2856 0.90437 0.96622 0.0
C664 C 0.2643 0.89585 0.95692 0.0
H665 H 0.24448 0.89464 0.07756 0.0
H666 H 0.24737 0.89002 0.0452 0.0
C667 C 0.26261 0.899 0.93848 0.0
C668 C 0.28622 0.90375 0.98597 0.0
H669 H 0.2823 0.86472 0.02209 0.0
C670 C 0.28808 0.92676 0.99509 0.0
C671 C 0.28431 0.88105 0.9958 0.0
C672 C 0.28315 0.8557 0.98673 0.0
C673 C 0.28759 0.92779 0.01374 0.0
C674 C 0.28567 0.90512 0.02358 0.0
C675 C 0.28385 0.88206 0.0145 0.0
C676 C 0.28509 0.90525 0.04332 0.0
C677 C 0.28843 0.95323 0.02274 0.0
C678 C 0.30567 0.91452 0.05303 0.0
C679 C 0.30408 0.91728 0.07149 0.0
C680 C 0.28189 0.91066 0.08064 0.0
C681 C 0.26181 0.90005 0.07095 0.0
C682 C 0.26341 0.89736 0.05246 0.0
H683 H 0.28377 0.96878 0.01338 0.0
H684 H 0.27508 0.95396 0.03411 0.0
H685 H 0.30771 0.9566 0.02794 0.0
H686 H 0.32276 0.92026 0.04625 0.0
H687 H 0.32003 0.92526 0.0785 0.0
H688 H 0.60873 0.25443 0.42939 0.0
H689 H 0.61475 0.25242 0.46162 0.0
H690 H 0.57715 0.18038 0.46304 0.0
H691 H 0.57134 0.18199 0.43083 0.0
H692 H 0.57616 0.25068 0.48592 0.0
H693 H 0.63826 0.16748 0.49452 0.0
H694 H 0.63411 0.18301 0.47333 0.0
H695 H 0.61077 0.16118 0.48133 0.0
C696 C 0.6021 0.23794 0.43649 0.0
C697 C 0.58947 0.21841 0.42748 0.0
C698 C 0.60556 0.23684 0.45493 0.0
C699 C 0.59665 0.21614 0.46473 0.0
C700 C 0.58467 0.19629 0.45573 0.0
H701 H 0.56914 0.18304 0.57558 0.0
H702 H 0.5745 0.18185 0.54325 0.0
C703 C 0.58121 0.19735 0.43729 0.0
C704 C 0.59778 0.21638 0.48448 0.0
H705 H 0.61785 0.18295 0.52072 0.0
C706 C 0.58553 0.23603 0.49353 0.0
C707 C 0.60987 0.19715 0.49438 0.0
C708 C 0.6242 0.17613 0.48541 0.0
C709 C 0.58443 0.23664 0.51218 0.0
C710 C 0.59631 0.2173 0.5221 0.0
C711 C 0.60878 0.19775 0.51308 0.0
C712 C 0.59532 0.21686 0.54183 0.0
C713 C 0.56983 0.25757 0.5211 0.0
C714 C 0.60594 0.23652 0.55181 0.0
C715 C 0.60286 0.23733 0.57028 0.0
C716 C 0.58919 0.21837 0.57916 0.0
C717 C 0.57965 0.19803 0.56919 0.0
C718 C 0.58272 0.19728 0.5507 0.0
H719 H 0.557 0.26734 0.51166 0.0
H720 H 0.55849 0.25018 0.53237 0.0
H721 H 0.58324 0.27173 0.52644 0.0
H722 H 0.61617 0.25156 0.54525 0.0
H723 H 0.61067 0.25317 0.57751 0.0
H724 H 0.81676 0.56503 0.43045 0.0
H725 H 0.81869 0.56967 0.4628 0.0
H726 H 0.75206 0.61622 0.4616 0.0
H727 H 0.74963 0.61134 0.42931 0.0
H728 H 0.82143 0.61136 0.48577 0.0
H729 H 0.73196 0.55848 0.49471 0.0
H730 H 0.74866 0.55928 0.47381 0.0
H731 H 0.72938 0.58554 0.48046 0.0
C732 C 0.80261 0.57645 0.43702 0.0
C733 C 0.78282 0.58752 0.42728 0.0
C734 C 0.80378 0.5791 0.45552 0.0
C735 C 0.78523 0.59285 0.46463 0.0
C736 C 0.76625 0.60505 0.45487 0.0
H737 H 0.74955 0.6119 0.57646 0.0
H738 H 0.75278 0.61665 0.54422 0.0
C739 C 0.76497 0.60233 0.43638 0.0
C740 C 0.78507 0.59342 0.48436 0.0
H741 H 0.75007 0.57626 0.52052 0.0
C742 C 0.80585 0.60369 0.49339 0.0
C743 C 0.76477 0.58328 0.49426 0.0
C744 C 0.74252 0.5708 0.48536 0.0
C745 C 0.80667 0.60443 0.51209 0.0
C746 C 0.78633 0.59433 0.52195 0.0
C747 C 0.76557 0.58413 0.51291 0.0
C748 C 0.78622 0.59357 0.54168 0.0
C749 C 0.82909 0.61631 0.52113 0.0
C750 C 0.80411 0.57918 0.55098 0.0
C751 C 0.80233 0.57638 0.56946 0.0
C752 C 0.78252 0.58782 0.57896 0.0
C753 C 0.76505 0.6028 0.56961 0.0
C754 C 0.76685 0.60555 0.55116 0.0
H755 H 0.83976 0.62878 0.51194 0.0
H756 H 0.82312 0.62748 0.5329 0.0
H757 H 0.84203 0.60123 0.52578 0.0
H758 H 0.81894 0.56938 0.54388 0.0
H759 H 0.81608 0.56468 0.5762 0.0
H760 H 0.42826 0.82127 0.57806 0.0
H761 H 0.42373 0.82463 0.5458 0.0
H762 H 0.38527 0.75305 0.54464 0.0
H763 H 0.38943 0.74958 0.57693 0.0
H764 H 0.44458 0.79046 0.52212 0.0
H765 H 0.34115 0.79662 0.51224 0.0
H766 H 0.35595 0.80246 0.53349 0.0
H767 H 0.35095 0.77068 0.52596 0.0
C768 C 0.41843 0.80641 0.57102 0.0
C769 C 0.40929 0.78509 0.58013 0.0
C770 C 0.41588 0.80838 0.55256 0.0
C771 C 0.40397 0.78921 0.54282 0.0
C772 C 0.39409 0.7683 0.55191 0.0
H773 H 0.39212 0.74748 0.43214 0.0
H774 H 0.388 0.75174 0.4644 0.0
C775 C 0.39663 0.7663 0.57039 0.0
C776 C 0.40403 0.78996 0.52307 0.0
H777 H 0.36598 0.78837 0.4864 0.0
C778 C 0.42739 0.79029 0.51431 0.0
C779 C 0.38159 0.78952 0.51291 0.0
C780 C 0.35596 0.79003 0.5216 0.0
C781 C 0.42898 0.78954 0.49567 0.0
C782 C 0.40655 0.78899 0.48548 0.0
C783 C 0.38314 0.78887 0.49423 0.0
C784 C 0.40715 0.78769 0.46576 0.0
C785 C 0.4547 0.78844 0.4871 0.0
C786 C 0.41863 0.80685 0.45574 0.0
C787 C 0.42116 0.80444 0.43729 0.0
C788 C 0.41203 0.78289 0.42847 0.0
C789 C 0.39947 0.76429 0.43847 0.0
C790 C 0.39706 0.76669 0.45693 0.0
H791 H 0.46953 0.78272 0.49672 0.0
H792 H 0.45485 0.775 0.47577 0.0
H793 H 0.45965 0.8074 0.48193 0.0
H794 H 0.42607 0.82349 0.46224 0.0
H795 H 0.4307 0.81926 0.43 0.0
H796 H 0.25224 0.38894 0.57672 0.0
H797 H 0.25003 0.38302 0.5445 0.0
H798 H 0.18097 0.42584 0.54275 0.0
H799 H 0.18271 0.43153 0.57502 0.0
H800 H 0.18032 0.38307 0.52063 0.0
H801 H 0.26667 0.44042 0.5101 0.0
H802 H 0.27074 0.41409 0.52485 0.0
H803 H 0.25022 0.43959 0.53111 0.0
C804 C 0.23644 0.39694 0.56954 0.0
C805 C 0.21781 0.41098 0.57848 0.0
C806 C 0.23528 0.39362 0.55109 0.0
C807 C 0.21562 0.40443 0.54119 0.0
C808 C 0.1964 0.41747 0.55013 0.0
H809 H 0.18031 0.4286 0.43014 0.0
H810 H 0.17865 0.42341 0.46243 0.0
C811 C 0.19747 0.42073 0.56859 0.0
C812 C 0.2156 0.4031 0.52146 0.0
H813 H 0.24891 0.42121 0.48473 0.0
C814 C 0.19532 0.39137 0.51276 0.0
C815 C 0.23515 0.41402 0.51122 0.0
C816 C 0.25683 0.42795 0.51974 0.0
C817 C 0.1942 0.39007 0.49408 0.0
C818 C 0.2137 0.40109 0.48387 0.0
C819 C 0.23405 0.41263 0.49259 0.0
C820 C 0.21316 0.40175 0.46412 0.0
C821 C 0.17233 0.37665 0.48545 0.0
C822 C 0.2331 0.39131 0.45431 0.0
C823 C 0.2342 0.39435 0.43584 0.0
C824 C 0.21545 0.40811 0.42681 0.0
C825 C 0.19504 0.41785 0.43663 0.0
C826 C 0.19397 0.41477 0.45511 0.0
H827 H 0.16297 0.36343 0.49482 0.0
H828 H 0.15815 0.39078 0.48114 0.0
H829 H 0.17856 0.36596 0.47353 0.0
H830 H 0.24816 0.38128 0.46101 0.0
H831 H 0.25018 0.38657 0.42875 0.0
H832 H 0.19808 0.98258 0.13856 0.0
H833 H 0.17779 0.02412 0.13867 0.0
H834 H 0.25032 0.05981 0.13292 0.0
H835 H 0.2708 0.01859 0.1328 0.0
H836 H 0.18875 0.06765 0.1624 0.0
H837 H 0.20609 0.08667 0.09062 0.0
H838 H 0.2072 0.05529 0.09996 0.0
H839 H 0.23296 0.07667 0.10341 0.0
C840 C 0.20973 -0.00075 0.13737 0.0
C841 C 0.23606 0.99722 0.13556 0.0
C842 C 0.19811 0.02294 0.13745 0.0
C843 C 0.21258 0.04491 0.13558 0.0
C844 C 0.23884 0.04301 0.13414 0.0
H845 H 0.1758 0.20372 0.12323 0.0
H846 H 0.19746 0.16312 0.12609 0.0
C847 C 0.25048 0.01941 0.13413 0.0
C848 C 0.20027 0.0699 0.13499 0.0
H849 H 0.18856 0.11982 0.10756 0.0
C850 C 0.18861 0.07908 0.15043 0.0
C851 C 0.20034 0.08472 0.11936 0.0
C852 C 0.21214 0.07536 0.10232 0.0
C853 C 0.17721 0.10298 0.15071 0.0
C854 C 0.17702 0.11773 0.135 0.0
C855 C 0.18879 0.10851 0.11959 0.0
C856 C 0.16413 0.1425 0.13407 0.0
C857 C 0.16598 0.11239 0.16792 0.0
C858 C 0.1382 0.1443 0.13749 0.0
C859 C 0.12583 0.16744 0.13597 0.0
C860 C 0.13909 0.1892 0.13076 0.0
C861 C 0.16506 0.18733 0.12728 0.0
C862 C 0.17746 0.16416 0.1289 0.0
H863 H 0.17427 0.10261 0.17962 0.0
H864 H 0.16887 0.13301 0.1695 0.0
H865 H 0.14541 0.10862 0.16792 0.0
H866 H 0.12741 0.12772 0.14105 0.0
H867 H 0.10578 0.16816 0.13863 0.0
H868 H 0.79595 0.17592 0.12039 0.0
H869 H 0.83721 0.1966 0.12225 0.0
H870 H 0.86955 0.12861 0.14391 0.0
H871 H 0.82857 0.10779 0.14216 0.0
H872 H 0.87054 0.20157 0.15434 0.0
H873 H 0.91258 0.1469 0.09851 0.0
H874 H 0.87893 0.14996 0.10154 0.0
H875 H 0.8967 0.12897 0.11546 0.0
C876 C 0.81182 0.1654 0.12561 0.0
C877 C 0.80901 0.14017 0.13102 0.0
C878 C 0.83533 0.17724 0.12668 0.0
C879 C 0.85637 0.16398 0.13301 0.0
C880 C 0.85354 0.13901 0.13878 0.0
H881 H 0.01638 0.1984 0.13885 0.0
H882 H 0.97501 0.17803 0.14026 0.0
C883 C 0.83008 0.1272 0.13781 0.0
C884 C 0.88143 0.17608 0.13344 0.0
H885 H 0.9397 0.17414 0.11429 0.0
C886 C 0.8857 0.19568 0.14558 0.0
C887 C 0.90109 0.16812 0.12206 0.0
C888 C 0.8972 0.14745 0.10854 0.0
C889 C 0.90935 0.20741 0.1468 0.0
C890 C 0.92897 0.19969 0.13524 0.0
C891 C 0.92466 0.17998 0.12315 0.0
C892 C 0.95393 0.21222 0.13509 0.0
C893 C 0.91321 0.22756 0.16071 0.0
C894 C 0.95579 0.23812 0.13156 0.0
C895 C 0.97933 0.24982 0.13087 0.0
C896 C 0.00155 0.23577 0.13343 0.0
C897 C -0.00035 0.20976 0.13683 0.0
C898 C 0.97604 0.1981 0.13764 0.0
H899 H 0.89942 0.22573 0.17177 0.0
H900 H 0.93255 0.22676 0.16634 0.0
H901 H 0.91045 0.24636 0.15453 0.0
H902 H 0.93904 0.24926 0.12906 0.0
H903 H 0.98007 0.26985 0.12807 0.0
H904 H 0.80027 0.01842 0.1387 0.0
H905 H 0.82126 0.97719 0.13893 0.0
H906 H 0.74989 0.94051 0.13005 0.0
H907 H 0.72868 0.98139 0.1299 0.0
H908 H 0.80529 0.93045 0.16214 0.0
H909 H 0.80189 0.9186 0.08853 0.0
H910 H 0.80105 0.94924 0.09903 0.0
H911 H 0.77371 0.9294 0.09952 0.0
C912 C 0.78902 0.00159 0.13686 0.0
C913 C 0.76281 0.00323 0.1342 0.0
C914 C 0.80103 0.97809 0.13703 0.0
C915 C 0.78707 0.95597 0.13438 0.0
C916 C 0.76094 0.95747 0.132 0.0
H917 H 0.82512 0.799 0.117 0.0
H918 H 0.80383 0.83974 0.11989 0.0
C919 C 0.74889 0.98086 0.13195 0.0
C920 C 0.79976 0.93122 0.13379 0.0
H921 H 0.81716 0.88429 0.10531 0.0
C922 C 0.80803 0.92032 0.14975 0.0
C923 C 0.803 0.91814 0.11759 0.0
C924 C 0.79461 0.92937 0.10012 0.0
C925 C 0.81921 0.89631 0.14996 0.0
C926 C 0.82271 0.88326 0.1337 0.0
C927 C 0.81442 0.89429 0.11775 0.0
C928 C 0.83521 0.85828 0.13283 0.0
C929 C 0.82652 0.88492 0.16763 0.0
C930 C 0.85994 0.8552 0.13908 0.0
C931 C 0.87206 0.83191 0.13759 0.0
C932 C 0.85982 0.81134 0.12954 0.0
C933 C 0.83506 0.81446 0.12326 0.0
C934 C 0.82288 0.83773 0.1249 0.0
H935 H 0.81585 0.89358 0.17879 0.0
H936 H 0.82319 0.86425 0.16777 0.0
H937 H 0.84687 0.88833 0.17004 0.0
H938 H 0.87008 0.87094 0.14482 0.0
H939 H 0.89121 0.8302 0.14244 0.0
H940 H 0.16818 0.89359 0.14223 0.0
H941 H 0.12722 0.87274 0.14414 0.0
H942 H 0.1606 0.80328 0.12585 0.0
H943 H 0.2018 0.82397 0.12387 0.0
H944 H 0.10206 0.84775 0.11445 0.0
H945 H 0.12028 0.78417 0.17193 0.0
H946 H 0.13912 0.81187 0.16754 0.0
H947 H 0.14349 0.78387 0.15447 0.0
C948 C 0.16691 0.87382 0.13872 0.0
C949 C 0.18827 0.86043 0.13288 0.0
C950 C 0.14347 0.86198 0.13981 0.0
C951 C 0.141 0.83648 0.13528 0.0
C952 C 0.16226 0.82292 0.12962 0.0
H953 H 0.018 0.73082 0.12975 0.0
H954 H 0.05858 0.75233 0.13039 0.0
C955 C 0.18573 0.8348 0.12843 0.0
C956 C 0.1159 0.8244 0.13574 0.0
H957 H 0.08161 0.77884 0.15671 0.0
C958 C 0.09747 0.83276 0.12373 0.0
C959 C 0.11016 0.80485 0.14784 0.0
C960 C 0.12918 0.7957 0.1613 0.0
C961 C 0.07349 0.82164 0.1232 0.0
C962 C 0.06766 0.8021 0.13536 0.0
C963 C 0.0861 0.79387 0.14745 0.0
C964 C 0.04283 0.78931 0.13534 0.0
C965 C 0.05495 0.83039 0.10927 0.0
C966 C 0.02046 0.80292 0.13817 0.0
C967 C 0.99711 0.79071 0.13766 0.0
C968 C 0.99577 0.76459 0.13455 0.0
C969 C 0.01829 0.75096 0.13215 0.0
C970 C 0.04155 0.76321 0.13253 0.0
H971 H 0.06449 0.84046 0.09819 0.0
H972 H 0.04425 0.81425 0.10366 0.0
H973 H 0.04131 0.84362 0.11545 0.0
H974 H 0.02107 0.823 0.14078 0.0
H975 H 0.98015 0.80171 0.13972 0.0
H976 H 0.69644 0.52138 0.36823 0.0
H977 H 0.67431 0.48073 0.36792 0.0
H978 H 0.74526 0.44172 0.37272 0.0
H979 H 0.76757 0.48192 0.37293 0.0
H980 H 0.68812 0.43355 0.343 0.0
H981 H 0.69527 0.42069 0.41639 0.0
H982 H 0.69551 0.45149 0.40608 0.0
H983 H 0.72282 0.43165 0.40472 0.0
C984 C 0.70735 0.50415 0.3691 0.0
C985 C 0.73378 0.50494 0.37068 0.0
C986 C 0.69468 0.481 0.3689 0.0
C987 C 0.70823 0.45839 0.37041 0.0
C988 C 0.73455 0.45906 0.37163 0.0
H989 H 0.67299 0.30127 0.3874 0.0
H990 H 0.69303 0.3426 0.38437 0.0
C991 C 0.74723 0.48208 0.37173 0.0
C992 C 0.69503 0.43394 0.37119 0.0
H993 H 0.67925 0.38657 0.39978 0.0
C994 C 0.68596 0.42327 0.35538 0.0
C995 C 0.69258 0.42066 0.38738 0.0
C996 C 0.7019 0.43164 0.40469 0.0
C997 C 0.67487 0.39922 0.35529 0.0
C998 C 0.67233 0.38588 0.37153 0.0
C999 C 0.68126 0.39677 0.38735 0.0
C1000 C 0.66048 0.36061 0.3725 0.0
C1001 C 0.66673 0.38804 0.33775 0.0
C1002 C 0.63552 0.35703 0.36689 0.0
C1003 C 0.62411 0.33341 0.36846 0.0
C1004 C 0.63732 0.31298 0.37594 0.0
C1005 C 0.66231 0.31661 0.38159 0.0
C1006 C 0.67378 0.34022 0.37987 0.0
H1007 H 0.6765 0.39715 0.32635 0.0
H1008 H 0.6705 0.36746 0.3373 0.0
H1009 H 0.64617 0.39104 0.336 0.0
H1010 H 0.62467 0.37263 0.3616 0.0
H1011 H 0.60475 0.33131 0.36412 0.0
H1012 H 0.47368 0.6935 0.37841 0.0
H1013 H 0.51323 0.66972 0.37817 0.0
H1014 H 0.55353 0.73685 0.36266 0.0
H1015 H 0.51429 0.76091 0.36335 0.0
H1016 H 0.54763 0.66026 0.35214 0.0
H1017 H 0.59222 0.71548 0.40638 0.0
H1018 H 0.55917 0.71813 0.40106 0.0
H1019 H 0.58232 0.73447 0.38789 0.0
C1020 C 0.49095 0.70319 0.3749 0.0
C1021 C 0.49087 0.72916 0.37109 0.0
C1022 C 0.51353 0.68958 0.37477 0.0
C1023 C 0.5364 0.70165 0.37079 0.0
C1024 C 0.53622 0.72732 0.36627 0.0
H1025 H 0.69136 0.64706 0.36448 0.0
H1026 H 0.65253 0.67182 0.36139 0.0
C1027 C 0.51372 0.741 0.36657 0.0
C1028 C 0.56044 0.68738 0.37146 0.0
H1029 H 0.61827 0.68588 0.39145 0.0
C1030 C 0.56305 0.66584 0.36076 0.0
C1031 C 0.58053 0.69467 0.38276 0.0
C1032 C 0.5784 0.7168 0.3953 0.0
C1033 C 0.58529 0.65149 0.36096 0.0
C1034 C 0.60533 0.65885 0.37219 0.0
C1035 C 0.60286 0.68047 0.38277 0.0
C1036 C 0.62865 0.64374 0.3737 0.0
C1037 C 0.58733 0.62864 0.34909 0.0
C1038 C 0.628 0.61995 0.3818 0.0
C1039 C 0.65008 0.60588 0.38372 0.0
C1040 C 0.67323 0.61534 0.37751 0.0
C1041 C 0.67382 0.63923 0.36937 0.0
C1042 C 0.6517 0.65339 0.36759 0.0
H1043 H 0.57247 0.62843 0.33868 0.0
H1044 H 0.60609 0.62795 0.34255 0.0
H1045 H 0.58529 0.61134 0.35729 0.0
H1046 H 0.6104 0.61238 0.38681 0.0
H1047 H 0.64897 0.58757 0.39005 0.0
H1048 H 0.30269 0.47496 0.37273 0.0
H1049 H 0.32548 0.51503 0.37376 0.0
H1050 H 0.25502 0.55553 0.37211 0.0
H1051 H 0.232 0.51566 0.37127 0.0
H1052 H 0.32513 0.55663 0.35006 0.0
H1053 H 0.28987 0.58233 0.4173 0.0
H1054 H 0.28712 0.55086 0.40836 0.0
H1055 H 0.26575 0.57519 0.4013 0.0
C1056 C 0.29201 0.49238 0.37251 0.0
C1057 C 0.2655 0.49208 0.37209 0.0
C1058 C 0.30508 0.51524 0.37308 0.0
C1059 C 0.29189 0.53816 0.37331 0.0
C1060 C 0.2655 0.53799 0.37229 0.0
H1061 H 0.35607 0.68832 0.35949 0.0
H1062 H 0.33157 0.64948 0.35619 0.0
C1063 C 0.25241 0.51517 0.37174 0.0
C1064 C 0.30575 0.56225 0.37491 0.0
H1065 H 0.31412 0.61304 0.40217 0.0
C1066 C 0.32274 0.56901 0.36142 0.0
C1067 C 0.30274 0.57814 0.38988 0.0
C1068 C 0.28556 0.57124 0.40513 0.0
C1069 C 0.33671 0.59143 0.36244 0.0
C1070 C 0.33333 0.60756 0.37724 0.0
C1071 C 0.31646 0.6007 0.39078 0.0
C1072 C 0.34779 0.63122 0.37926 0.0
C1073 C 0.35538 0.59743 0.34789 0.0
C1074 C 0.36453 0.63399 0.39357 0.0
C1075 C 0.37846 0.65614 0.39554 0.0
C1076 C 0.37577 0.676 0.38328 0.0
C1077 C 0.35864 0.67333 0.36912 0.0
C1078 C 0.34474 0.65111 0.36714 0.0
H1079 H 0.35974 0.58063 0.33962 0.0
H1080 H 0.34735 0.61218 0.33908 0.0
H1081 H 0.37323 0.60481 0.35359 0.0
H1082 H 0.36702 0.61886 0.40311 0.0
H1083 H 0.39142 0.65761 0.40662 0.0
H1084 H 0.29642 0.31979 0.38637 0.0
H1085 H 0.33787 0.29944 0.38432 0.0
H1086 H 0.36918 0.36741 0.36194 0.0
H1087 H 0.32802 0.38787 0.36385 0.0
H1088 H 0.37098 0.29495 0.35151 0.0
H1089 H 0.41284 0.34943 0.40748 0.0
H1090 H 0.37921 0.34568 0.40477 0.0
H1091 H 0.39621 0.36721 0.3908 0.0
C1092 C 0.3121 0.33037 0.38095 0.0
C1093 C 0.30895 0.35549 0.37538 0.0
C1094 C 0.33571 0.31871 0.37978 0.0
C1095 C 0.35652 0.33208 0.37316 0.0
C1096 C 0.35335 0.35693 0.36726 0.0
H1097 H 0.51694 0.29972 0.36652 0.0
H1098 H 0.47529 0.31957 0.36536 0.0
C1099 C 0.32979 0.36854 0.36833 0.0
C1100 C 0.3817 0.32021 0.37258 0.0
H1101 H 0.44011 0.32259 0.39149 0.0
C1102 C 0.38613 0.30088 0.36026 0.0
C1103 C 0.40135 0.32824 0.38393 0.0
C1104 C 0.39728 0.34867 0.39761 0.0
C1105 C 0.40994 0.28949 0.35882 0.0
C1106 C 0.42956 0.29726 0.37036 0.0
C1107 C 0.42507 0.31669 0.38264 0.0
C1108 C 0.4547 0.28504 0.37029 0.0
C1109 C 0.41396 0.26965 0.34471 0.0
C1110 C 0.45693 0.25911 0.37358 0.0
C1111 C 0.48063 0.2477 0.37413 0.0
C1112 C 0.50265 0.26207 0.37166 0.0
C1113 C 0.50038 0.2881 0.36846 0.0
C1114 C 0.4766 0.29948 0.36779 0.0
H1115 H 0.40006 0.2715 0.33372 0.0
H1116 H 0.43324 0.27079 0.33901 0.0
H1117 H 0.4115 0.2507 0.35073 0.0
H1118 H 0.44035 0.24772 0.37604 0.0
H1119 H 0.48166 0.22764 0.37678 0.0
H1120 H 0.82122 0.79617 0.8849 0.0
H1121 H 0.80018 0.83711 0.88212 0.0
H1122 H 0.86952 0.87034 0.86347 0.0
H1123 H 0.89047 0.82954 0.86578 0.0
H1124 H 0.81142 0.88059 0.89944 0.0
H1125 H 0.82016 0.89562 0.8267 0.0
H1126 H 0.82587 0.8654 0.83701 0.0
H1127 H 0.84983 0.88941 0.83727 0.0
C1128 C 0.83191 0.81214 0.88003 0.0
C1129 C 0.85749 0.80957 0.87551 0.0
C1130 C 0.81987 0.83551 0.87845 0.0
C1131 C 0.83317 0.85668 0.87231 0.0
C1132 C 0.8587 0.85414 0.8678 0.0
H1133 H 0.80069 0.01734 0.86825 0.0
H1134 H 0.82093 0.97574 0.86786 0.0
C1135 C 0.8707 0.8308 0.86925 0.0
C1136 C 0.82078 0.88172 0.87155 0.0
H1137 H 0.80775 0.93131 0.84398 0.0
C1138 C 0.81045 0.89159 0.88728 0.0
C1139 C 0.81961 0.89608 0.85568 0.0
C1140 C 0.82924 0.886 0.83817 0.0
C1141 C 0.79932 0.91558 0.88763 0.0
C1142 C 0.79841 0.92998 0.87182 0.0
C1143 C 0.80869 0.9202 0.85609 0.0
C1144 C 0.78619 0.955 0.87136 0.0
C1145 C 0.78892 0.92557 0.90494 0.0
C1146 C 0.75999 0.95693 0.87314 0.0
C1147 C 0.74837 0.98054 0.87329 0.0
C1148 C 0.76278 0.00272 0.87169 0.0
C1149 C 0.78906 0.00066 0.86957 0.0
C1150 C 0.80065 0.97695 0.86933 0.0
H1151 H 0.79531 0.91426 0.91654 0.0
H1152 H 0.79466 0.9455 0.90695 0.0
H1153 H 0.76801 0.92497 0.9045 0.0
H1154 H 0.74853 0.94014 0.87453 0.0
H1155 H 0.72809 0.98136 0.87488 0.0
H1156 H 0.17534 0.88307 0.85719 0.0
H1157 H 0.13404 0.86304 0.85418 0.0
H1158 H 0.1492 0.81738 0.90045 0.0
H1159 H 0.19044 0.83745 0.90372 0.0
H1160 H 0.1212 0.81157 0.85014 0.0
H1161 H 0.08178 0.85263 0.91216 0.0
H1162 H 0.11023 0.86432 0.90188 0.0
H1163 H 0.11106 0.8361 0.91512 0.0
C1164 C 0.16993 0.86872 0.86672 0.0
C1165 C 0.18609 0.862 0.8808 0.0
C1166 C 0.14635 0.8573 0.86495 0.0
C1167 C 0.13846 0.83908 0.87727 0.0
C1168 C 0.15479 0.83178 0.89102 0.0
H1169 H 0.01753 0.73154 0.87204 0.0
H1170 H 0.05773 0.7538 0.87157 0.0
C1171 C 0.1784 0.84316 0.8928 0.0
C1172 C 0.11306 0.82778 0.87578 0.0
H1173 H 0.05735 0.82094 0.89796 0.0
C1174 C 0.10717 0.81369 0.86054 0.0
C1175 C 0.09471 0.83098 0.88924 0.0
C1176 C 0.09959 0.84702 0.90546 0.0
C1177 C 0.08357 0.80205 0.85864 0.0
C1178 C 0.06561 0.80437 0.87245 0.0
C1179 C 0.07125 0.81906 0.88745 0.0
C1180 C 0.04112 0.79106 0.8719 0.0
C1181 C 0.07802 0.78749 0.84185 0.0
C1182 C 0.01844 0.80467 0.87253 0.0
C1183 C 0.99534 0.792 0.8729 0.0
C1184 C 0.99457 0.76548 0.8728 0.0
C1185 C 0.01739 0.75196 0.87208 0.0
C1186 C 0.04042 0.76464 0.87169 0.0
H1187 H 0.0906 0.79328 0.83076 0.0
H1188 H 0.08111 0.7671 0.84435 0.0
H1189 H 0.05813 0.79015 0.83763 0.0
H1190 H 0.01864 0.82509 0.87282 0.0
H1191 H 0.97814 0.80298 0.87348 0.0
H1192 H 0.26736 0.01783 0.87811 0.0
H1193 H 0.24558 0.05825 0.87704 0.0
H1194 H 0.17561 0.02024 0.86549 0.0
H1195 H 0.19718 0.97944 0.86702 0.0
H1196 H 0.22 0.08112 0.85032 0.0
H1197 H 0.15619 0.06363 0.90761 0.0
H1198 H 0.18265 0.04345 0.90263 0.0
H1199 H 0.15381 0.04059 0.8902 0.0
C1200 C 0.24731 0.01797 0.87536 0.0
C1201 C 0.23397 0.99533 0.87278 0.0
C1202 C 0.23491 0.04115 0.87473 0.0
C1203 C 0.20891 0.04225 0.87147 0.0
C1204 C 0.19558 0.01978 0.86846 0.0
H1205 H 0.10582 0.16909 0.86403 0.0
H1206 H 0.1261 0.12783 0.86189 0.0
C1207 C 0.20796 0.99649 0.86923 0.0
C1208 C 0.196 0.06705 0.87121 0.0
H1209 H 0.14988 0.10153 0.89156 0.0
C1210 C 0.20468 0.08559 0.85934 0.0
C1211 C 0.17606 0.07286 0.88305 0.0
C1212 C 0.16674 0.05419 0.89671 0.0
C1213 C 0.19388 0.10975 0.85893 0.0
C1214 C 0.17403 0.11551 0.87078 0.0
C1215 C 0.16512 0.09695 0.88249 0.0
C1216 C 0.16232 0.1408 0.87135 0.0
C1217 C 0.2036 0.12889 0.84576 0.0
C1218 C 0.17604 0.16171 0.87742 0.0
C1219 C 0.16449 0.18536 0.87875 0.0
C1220 C 0.13903 0.18842 0.87403 0.0
C1221 C 0.12547 0.16742 0.86776 0.0
C1222 C 0.13699 0.1438 0.86653 0.0
H1223 H 0.21523 0.11999 0.83518 0.0
H1224 H 0.18773 0.13919 0.83943 0.0
H1225 H 0.21547 0.14288 0.85285 0.0
H1226 H 0.19555 0.15964 0.88142 0.0
H1227 H 0.17544 0.20113 0.88365 0.0
H1228 H 0.82347 0.11605 0.8563 0.0
H1229 H 0.86435 0.13697 0.85352 0.0
H1230 H 0.84706 0.18334 0.89903 0.0
H1231 H 0.80613 0.16245 0.90202 0.0
H1232 H 0.87555 0.18962 0.84929 0.0
H1233 H 0.91538 0.14904 0.91142 0.0
H1234 H 0.88761 0.13641 0.90077 0.0
H1235 H 0.88547 0.16458 0.91395 0.0
C1236 C 0.82832 0.13072 0.86572 0.0
C1237 C 0.81163 0.13746 0.87947 0.0
C1238 C 0.85166 0.14267 0.86407 0.0
C1239 C 0.8588 0.16141 0.87622 0.0
C1240 C 0.84199 0.16862 0.8897 0.0
H1241 H 0.98036 0.26927 0.87078 0.0
H1242 H 0.93979 0.24759 0.87069 0.0
C1243 C 0.81859 0.15676 0.89132 0.0
C1244 C 0.88395 0.17327 0.87484 0.0
H1245 H 0.93971 0.18038 0.89691 0.0
C1246 C 0.88963 0.18758 0.85966 0.0
C1247 C 0.90234 0.1702 0.88828 0.0
C1248 C 0.89758 0.15406 0.90448 0.0
C1249 C 0.91313 0.19943 0.85775 0.0
C1250 C 0.93122 0.19706 0.87147 0.0
C1251 C 0.92572 0.18228 0.88647 0.0
C1252 C 0.95586 0.21009 0.87071 0.0
C1253 C 0.9185 0.21419 0.841 0.0
C1254 C 0.97834 0.19616 0.87101 0.0
C1255 C 0.00163 0.20848 0.87114 0.0
C1256 C 0.00281 0.23499 0.87114 0.0
C1257 C 0.98018 0.24885 0.87074 0.0
C1258 C 0.95694 0.2365 0.87058 0.0
H1259 H 0.90562 0.20874 0.82999 0.0
H1260 H 0.91574 0.23458 0.84369 0.0
H1261 H 0.93826 0.21134 0.83656 0.0
H1262 H 0.97785 0.17573 0.87121 0.0
H1263 H 0.01867 0.19722 0.87149 0.0
H1264 H 0.31994 0.70274 0.62283 0.0
H1265 H 0.29952 0.66149 0.6254 0.0
H1266 H 0.37001 0.62848 0.64205 0.0
H1267 H 0.39036 0.6696 0.63996 0.0
H1268 H 0.31027 0.6185 0.60736 0.0
H1269 H 0.32272 0.60186 0.67966 0.0
H1270 H 0.32768 0.63235 0.66957 0.0
H1271 H 0.35179 0.60852 0.66841 0.0
C1272 C 0.33103 0.68674 0.6272 0.0
C1273 C 0.35674 0.68949 0.63125 0.0
C1274 C 0.31934 0.66319 0.62866 0.0
C1275 C 0.33313 0.64198 0.63422 0.0
C1276 C 0.35882 0.64468 0.6382 0.0
H1277 H 0.30104 0.48103 0.6378 0.0
H1278 H 0.32134 0.52259 0.6382 0.0
C1279 C 0.37047 0.66821 0.63687 0.0
C1280 C 0.32101 0.61681 0.63497 0.0
H1281 H 0.30952 0.56658 0.66231 0.0
C1282 C 0.30995 0.60724 0.61941 0.0
C1283 C 0.32069 0.60209 0.65071 0.0
C1284 C 0.33114 0.61181 0.66808 0.0
C1285 C 0.29891 0.58322 0.61907 0.0
C1286 C 0.29878 0.56848 0.63474 0.0
C1287 C 0.30983 0.57794 0.65031 0.0
C1288 C 0.28655 0.54345 0.63527 0.0
C1289 C 0.28772 0.57359 0.60191 0.0
C1290 C 0.2603 0.54159 0.63383 0.0
C1291 C 0.24865 0.518 0.63367 0.0
C1292 C 0.26307 0.49577 0.63492 0.0
C1293 C 0.2894 0.49775 0.63675 0.0
C1294 C 0.30103 0.52144 0.63699 0.0
H1295 H 0.29379 0.58498 0.59027 0.0
H1296 H 0.29313 0.55361 0.59965 0.0
H1297 H 0.26685 0.57447 0.60276 0.0
H1298 H 0.24882 0.55842 0.6327 0.0
H1299 H 0.22834 0.51725 0.63233 0.0
H1300 H 0.30694 0.33531 0.6054 0.0
H1301 H 0.34761 0.31407 0.60877 0.0
H1302 H 0.36576 0.36248 0.65303 0.0
H1303 H 0.32506 0.38372 0.64989 0.0
H1304 H 0.39555 0.33705 0.60658 0.0
H1305 H 0.38036 0.29094 0.67212 0.0
H1306 H 0.35475 0.30303 0.65878 0.0
H1307 H 0.37392 0.32421 0.6716 0.0
C1308 C 0.31947 0.34131 0.61596 0.0
C1309 C 0.31275 0.3612 0.62738 0.0
C1310 C 0.34271 0.32917 0.61784 0.0
C1311 C 0.35955 0.33655 0.63125 0.0
C1312 C 0.35284 0.35624 0.64278 0.0
H1313 H 0.52031 0.30264 0.63436 0.0
H1314 H 0.4793 0.32381 0.6343 0.0
C1315 C 0.32963 0.36843 0.64089 0.0
C1316 C 0.38457 0.32434 0.63267 0.0
H1317 H 0.42171 0.28896 0.66015 0.0
C1318 C 0.4013 0.32652 0.61828 0.0
C1319 C 0.39187 0.31049 0.6479 0.0
C1320 C 0.37425 0.30678 0.66345 0.0
C1321 C 0.42526 0.31533 0.61876 0.0
C1322 C 0.43275 0.30189 0.63414 0.0
C1323 C 0.41596 0.29952 0.64847 0.0
C1324 C 0.45761 0.2893 0.63526 0.0
C1325 C 0.44216 0.31752 0.60268 0.0
C1326 C 0.45895 0.26294 0.63636 0.0
C1327 C 0.4823 0.25078 0.63645 0.0
C1328 C 0.5048 0.26478 0.63553 0.0
C1329 C 0.50338 0.29127 0.63499 0.0
C1330 C 0.47997 0.30341 0.63487 0.0
H1331 H 0.43159 0.32364 0.59066 0.0
H1332 H 0.45705 0.3317 0.60538 0.0
H1333 H 0.45152 0.29924 0.59979 0.0
H1334 H 0.44188 0.25174 0.63675 0.0
H1335 H 0.48267 0.23037 0.63697 0.0
H1336 H 0.58674 0.35184 0.61576 0.0
H1337 H 0.61129 0.39059 0.619 0.0
H1338 H 0.66978 0.34922 0.64612 0.0
H1339 H 0.64534 0.31027 0.64301 0.0
H1340 H 0.63121 0.41248 0.65285 0.0
H1341 H 0.70468 0.38688 0.6031 0.0
H1342 H 0.67406 0.37201 0.60356 0.0
H1343 H 0.69739 0.36371 0.61982 0.0
C1344 C 0.60483 0.35093 0.62241 0.0
C1345 C 0.61416 0.32794 0.62905 0.0
C1346 C 0.61877 0.3731 0.62428 0.0
C1347 C 0.64235 0.37264 0.63267 0.0
C1348 C 0.65168 0.34983 0.63946 0.0
H1349 H 0.75874 0.48584 0.64472 0.0
H1350 H 0.73356 0.44737 0.6457 0.0
C1351 C 0.63768 0.32764 0.63769 0.0
C1352 C 0.65724 0.39608 0.63418 0.0
H1353 H 0.71001 0.4252 0.61845 0.0
C1354 C 0.64847 0.41534 0.64537 0.0
C1355 C 0.67971 0.39957 0.62442 0.0
C1356 C 0.68956 0.37958 0.61193 0.0
C1357 C 0.66181 0.43806 0.64721 0.0
C1358 C 0.68414 0.44175 0.63723 0.0
C1359 C 0.69291 0.42235 0.6261 0.0
C1360 C 0.69872 0.46557 0.63795 0.0
C1361 C 0.65213 0.45761 0.6601 0.0
C1362 C 0.68748 0.48866 0.63335 0.0
C1363 C 0.70179 0.5108 0.63296 0.0
C1364 C 0.72772 0.51013 0.63684 0.0
C1365 C 0.73884 0.48701 0.6416 0.0
C1366 C 0.72448 0.46498 0.64216 0.0
H1367 H 0.63976 0.44906 0.67039 0.0
H1368 H 0.66789 0.46752 0.66686 0.0
H1369 H 0.64082 0.47178 0.65272 0.0
H1370 H 0.66779 0.48948 0.62961 0.0
H1371 H 0.69271 0.52826 0.62909 0.0
H1372 H 0.47685 0.69767 0.63397 0.0
H1373 H 0.51743 0.67578 0.63381 0.0
H1374 H 0.55615 0.74709 0.63718 0.0
H1375 H 0.51578 0.76921 0.63713 0.0
H1376 H 0.57442 0.71617 0.61047 0.0
H1377 H 0.56766 0.66428 0.67442 0.0
H1378 H 0.54116 0.65958 0.65993 0.0
H1379 H 0.54722 0.6904 0.66893 0.0
C1380 C 0.49397 0.70871 0.63485 0.0
C1381 C 0.49303 0.73521 0.63555 0.0
C1382 C 0.51715 0.69615 0.63486 0.0
C1383 C 0.53976 0.70982 0.6357 0.0
C1384 C 0.53889 0.73621 0.63659 0.0
H1385 H 0.68969 0.64457 0.64924 0.0
H1386 H 0.65135 0.66991 0.65258 0.0
C1387 C 0.51577 0.74879 0.63657 0.0
C1388 C 0.56436 0.69672 0.63461 0.0
H1389 H 0.60084 0.65204 0.6548 0.0
C1390 C 0.58028 0.70227 0.62022 0.0
C1391 C 0.57207 0.67883 0.64748 0.0
C1392 C 0.55626 0.67305 0.66366 0.0
C1393 C 0.60346 0.6899 0.61808 0.0
C1394 C 0.61068 0.67127 0.63054 0.0
C1395 C 0.59511 0.66621 0.6452 0.0
C1396 C 0.63406 0.6564 0.62833 0.0
C1397 C 0.62007 0.69694 0.60255 0.0
C1398 C 0.63689 0.64034 0.61364 0.0
C1399 C 0.65869 0.62585 0.61169 0.0
C1400 C 0.67805 0.6271 0.62444 0.0
C1401 C 0.67516 0.64325 0.63915 0.0
C1402 C 0.65328 0.65769 0.64111 0.0
H1403 H 0.61507 0.71575 0.59706 0.0
H1404 H 0.64024 0.6971 0.6065 0.0
H1405 H 0.61766 0.6828 0.5918 0.0
H1406 H 0.62207 0.63879 0.60379 0.0
H1407 H 0.66026 0.61354 0.60024 0.0
H1408 H 0.18404 0.41484 0.30489 0.0
H1409 H 0.16912 0.39493 0.27747 0.0
H1410 H 0.19244 0.32226 0.2974 0.0
H1411 H 0.20643 0.34209 0.32522 0.0
H1412 H 0.19403 0.3677 0.25237 0.0
H1413 H 0.11961 0.3091 0.28384 0.0
H1414 H 0.13552 0.33413 0.29558 0.0
H1415 H 0.15068 0.30408 0.29263 0.0
C1416 C 0.18571 0.39458 0.30348 0.0
C1417 C 0.19605 0.37994 0.31723 0.0
C1418 C 0.17737 0.38325 0.28777 0.0
C1419 C 0.17927 0.35704 0.28548 0.0
C1420 C 0.19027 0.34243 0.29902 0.0
H1421 H 0.15311 0.2876 0.18067 0.0
H1422 H 0.17287 0.3011 0.20863 0.0
C1423 C 0.19848 0.35378 0.31481 0.0
C1424 C 0.16965 0.34523 0.26888 0.0
H1425 H 0.12609 0.3035 0.25299 0.0
C1426 C 0.17924 0.35358 0.25249 0.0
C1427 C 0.15016 0.32701 0.26907 0.0
C1428 C 0.13818 0.31818 0.28619 0.0
C1429 C 0.16971 0.34445 0.23628 0.0
C1430 C 0.15042 0.32602 0.23647 0.0
C1431 C 0.14102 0.31746 0.25287 0.0
C1432 C 0.13858 0.31657 0.21984 0.0
C1433 C 0.17975 0.35534 0.21913 0.0
C1434 C 0.11261 0.31991 0.21712 0.0
C1435 C 0.10129 0.31185 0.20133 0.0
C1436 C 0.11572 0.30038 0.18792 0.0
C1437 C 0.14159 0.29645 0.1908 0.0
C1438 C 0.15291 0.30438 0.20667 0.0
H1439 H 0.1898 0.37345 0.22134 0.0
H1440 H 0.19329 0.34185 0.21312 0.0
H1441 H 0.16427 0.35861 0.20945 0.0
H1442 H 0.10112 0.32908 0.22713 0.0
H1443 H 0.08121 0.31465 0.19959 0.0
H1444 H 0.6828 0.08239 0.20078 0.0
H1445 H 0.66772 0.10248 0.22815 0.0
H1446 H 0.69385 0.17456 0.2091 0.0
H1447 H 0.70839 0.15461 0.18139 0.0
H1448 H 0.70667 0.15843 0.24756 0.0
H1449 H 0.60528 0.15406 0.22883 0.0
H1450 H 0.62349 0.12577 0.2256 0.0
H1451 H 0.63032 0.15324 0.21252 0.0
C1452 C 0.68514 0.10255 0.20237 0.0
C1453 C 0.69647 0.11702 0.1889 0.0
C1454 C 0.67664 0.11396 0.21802 0.0
C1455 C 0.6795 0.14 0.22054 0.0
C1456 C 0.69145 0.15443 0.20735 0.0
H1457 H 0.60425 0.22897 0.30269 0.0
H1458 H 0.62352 0.21479 0.27468 0.0
C1459 C 0.69979 0.14303 0.1916 0.0
C1460 C 0.66959 0.15207 0.23687 0.0
H1461 H 0.61471 0.16658 0.25831 0.0
C1462 C 0.68659 0.16038 0.24991 0.0
C1463 C 0.6434 0.15473 0.23977 0.0
C1464 C 0.62445 0.14667 0.22593 0.0
C1465 C 0.678 0.1707 0.26604 0.0
C1466 C 0.65177 0.17263 0.26917 0.0
C1467 C 0.63481 0.16496 0.25591 0.0
C1468 C 0.64145 0.18202 0.28628 0.0
C1469 C 0.69699 0.17951 0.27961 0.0
C1470 C 0.64511 0.16825 0.30203 0.0
C1471 C 0.63409 0.17628 0.31797 0.0
C1472 C 0.6193 0.19823 0.31839 0.0
C1473 C 0.61584 0.21214 0.30269 0.0
C1474 C 0.62673 0.20402 0.28672 0.0
H1475 H 0.71595 0.18222 0.27362 0.0
H1476 H 0.69087 0.1975 0.28582 0.0
H1477 H 0.69863 0.16514 0.29029 0.0
H1478 H 0.65604 0.15099 0.30192 0.0
H1479 H 0.63689 0.16523 0.32994 0.0
H1480 H 0.76846 0.61343 0.30457 0.0
H1481 H 0.78329 0.63233 0.27662 0.0
H1482 H 0.85486 0.64897 0.30115 0.0
H1483 H 0.83999 0.63034 0.32914 0.0
H1484 H 0.80359 0.68223 0.26909 0.0
H1485 H 0.87215 0.60484 0.25693 0.0
H1486 H 0.84669 0.60211 0.27277 0.0
H1487 H 0.87449 0.61972 0.27835 0.0
C1488 C 0.7872 0.62148 0.30403 0.0
C1489 C 0.80317 0.62035 0.31892 0.0
C1490 C 0.79567 0.63217 0.28809 0.0
C1491 C 0.82027 0.64171 0.28678 0.0
C1492 C 0.83594 0.64134 0.30182 0.0
H1493 H 0.89059 0.73057 0.20319 0.0
H1494 H 0.87107 0.71586 0.23094 0.0
C1495 C 0.82746 0.63074 0.31777 0.0
C1496 C 0.82986 0.6513 0.26953 0.0
H1497 H 0.87364 0.63966 0.23725 0.0
C1498 C 0.81887 0.67295 0.26209 0.0
C1499 C 0.84958 0.63892 0.26035 0.0
C1500 C 0.86133 0.61498 0.26738 0.0
C1501 C 0.82744 0.68284 0.24581 0.0
C1502 C 0.84762 0.67082 0.23687 0.0
C1503 C 0.85828 0.64892 0.24419 0.0
C1504 C 0.85799 0.68053 0.21987 0.0
C1505 C 0.81466 0.70584 0.23819 0.0
C1506 C 0.8573 0.66547 0.20452 0.0
C1507 C 0.86837 0.67387 0.18871 0.0
C1508 C 0.88048 0.69738 0.18803 0.0
C1509 C 0.881 0.71254 0.20334 0.0
C1510 C 0.86986 0.70417 0.21915 0.0
H1511 H 0.79589 0.70913 0.24434 0.0
H1512 H 0.82653 0.72267 0.24077 0.0
H1513 H 0.81225 0.70401 0.22357 0.0
H1514 H 0.84834 0.64712 0.20481 0.0
H1515 H 0.8677 0.66189 0.17704 0.0
H1516 H 0.36499 0.8377 0.3307 0.0
H1517 H 0.34545 0.85193 0.30279 0.0
H1518 H 0.36823 0.78274 0.27727 0.0
H1519 H 0.3877 0.76845 0.3052 0.0
H1520 H 0.38171 0.83097 0.2593 0.0
H1521 H 0.28028 0.823 0.2772 0.0
H1522 H 0.30035 0.83817 0.29327 0.0
H1523 H 0.30466 0.8053 0.28847 0.0
C1524 C 0.36558 0.8255 0.31914 0.0
C1525 C 0.37771 0.802 0.32001 0.0
C1526 C 0.35436 0.83356 0.30328 0.0
C1527 C 0.35522 0.81827 0.28805 0.0
C1528 C 0.36722 0.79471 0.28894 0.0
H1529 H 0.28784 0.84528 0.18324 0.0
H1530 H 0.30211 0.82538 0.21105 0.0
C1531 C 0.37824 0.78655 0.30485 0.0
C1532 C 0.34481 0.82752 0.27096 0.0
H1533 H 0.28996 0.84403 0.25013 0.0
C1534 C 0.36165 0.83367 0.25723 0.0
C1535 C 0.31863 0.83088 0.26832 0.0
C1536 C 0.29981 0.82385 0.28251 0.0
C1537 C 0.35301 0.84377 0.24107 0.0
C1538 C 0.32691 0.84778 0.23861 0.0
C1539 C 0.30998 0.841 0.25213 0.0
C1540 C 0.31708 0.85982 0.22225 0.0
C1541 C 0.3718 0.85035 0.22674 0.0
C1542 C 0.32041 0.88577 0.21957 0.0
C1543 C 0.31208 0.89714 0.20387 0.0
C1544 C 0.30047 0.88273 0.1905 0.0
C1545 C 0.29667 0.85681 0.19336 0.0
C1546 C 0.30485 0.84544 0.20917 0.0
H1547 H 0.39081 0.84253 0.22959 0.0
H1548 H 0.36531 0.84316 0.21364 0.0
H1549 H 0.37338 0.87117 0.22571 0.0
H1550 H 0.32961 0.89718 0.22961 0.0
H1551 H 0.3148 0.91724 0.20215 0.0
H1552 H 0.84529 0.70207 0.82628 0.0
H1553 H 0.82696 0.68696 0.79818 0.0
H1554 H 0.90171 0.67686 0.77668 0.0
H1555 H 0.91993 0.69143 0.8048 0.0
H1556 H 0.8306 0.70379 0.76375 0.0
H1557 H 0.87124 0.60781 0.7692 0.0
H1558 H 0.87125 0.62975 0.78754 0.0
H1559 H 0.89472 0.63208 0.77031 0.0
C1560 C 0.85769 0.69665 0.81548 0.0
C1561 C 0.88395 0.69751 0.81768 0.0
C1562 C 0.84726 0.68804 0.79948 0.0
C1563 C 0.86298 0.68022 0.78547 0.0
C1564 C 0.88923 0.68207 0.78747 0.0
H1565 H 0.84327 0.62562 0.67799 0.0
H1566 H 0.85855 0.64427 0.70585 0.0
C1567 C 0.89962 0.69048 0.80348 0.0
C1568 C 0.85204 0.67001 0.76877 0.0
H1569 H 0.8533 0.61882 0.74118 0.0
C1570 C 0.8354 0.68514 0.75888 0.0
C1571 C 0.85819 0.6456 0.76248 0.0
C1572 C 0.87462 0.62776 0.77302 0.0
C1573 C 0.82535 0.67676 0.74261 0.0
C1574 C 0.83206 0.65265 0.73616 0.0
C1575 C 0.8484 0.63741 0.74613 0.0
C1576 C 0.82236 0.64277 0.71907 0.0
C1577 C 0.80806 0.69388 0.73221 0.0
C1578 C 0.79698 0.63576 0.71734 0.0
C1579 C 0.78831 0.62485 0.70153 0.0
C1580 C 0.80488 0.62087 0.68722 0.0
C1581 C 0.83017 0.62832 0.68889 0.0
C1582 C 0.83888 0.63903 0.70473 0.0
H1583 H 0.80794 0.7134 0.73757 0.0
H1584 H 0.8138 0.69446 0.718 0.0
H1585 H 0.78856 0.68636 0.73281 0.0
H1586 H 0.78405 0.63815 0.72836 0.0
H1587 H 0.76882 0.61891 0.70068 0.0
H1588 H 0.41604 0.80795 0.70312 0.0
H1589 H 0.3975 0.82184 0.7313 0.0
H1590 H 0.32301 0.8099 0.70981 0.0
H1591 H 0.34169 0.79542 0.68168 0.0
H1592 H 0.36784 0.86192 0.7368 0.0
H1593 H 0.31675 0.77544 0.75745 0.0
H1594 H 0.3398 0.77542 0.73978 0.0
H1595 H 0.30826 0.78646 0.73568 0.0
C1596 C 0.39571 0.80812 0.70451 0.0
C1597 C 0.38023 0.8007 0.69031 0.0
C1598 C 0.38513 0.81602 0.72059 0.0
C1599 C 0.35885 0.81667 0.72278 0.0
C1600 C 0.34333 0.80902 0.70861 0.0
H1601 H 0.26787 0.8863 0.80616 0.0
H1602 H 0.28255 0.86656 0.77845 0.0
C1603 C 0.35396 0.80088 0.69254 0.0
C1604 C 0.34792 0.82673 0.73956 0.0
H1605 H 0.30893 0.81254 0.77442 0.0
C1606 C 0.35503 0.85105 0.74503 0.0
C1607 C 0.33116 0.81257 0.75032 0.0
C1608 C 0.3237 0.78593 0.74563 0.0
C1609 C 0.34585 0.86158 0.76088 0.0
C1610 C 0.32913 0.84745 0.77157 0.0
C1611 C 0.32173 0.82328 0.76611 0.0
C1612 C 0.31959 0.85754 0.78864 0.0
C1613 C 0.35396 0.8878 0.76614 0.0
C1614 C 0.33546 0.85856 0.80355 0.0
C1615 C 0.32705 0.86955 0.81938 0.0
C1616 C 0.30269 0.87982 0.82052 0.0
C1617 C 0.28664 0.87829 0.80568 0.0
C1618 C 0.29501 0.86713 0.78987 0.0
H1619 H 0.3643 0.89755 0.75528 0.0
H1620 H 0.3373 0.89932 0.76989 0.0
H1621 H 0.36648 0.88666 0.77795 0.0
H1622 H 0.35447 0.85115 0.80284 0.0
H1623 H 0.33968 0.87029 0.8307 0.0
H1624 H 0.08139 0.31493 0.80471 0.0
H1625 H 0.10118 0.32947 0.7771 0.0
H1626 H 0.17355 0.30419 0.79622 0.0
H1627 H 0.15385 0.29011 0.82412 0.0
H1628 H 0.14328 0.36597 0.77519 0.0
H1629 H 0.16455 0.27255 0.74484 0.0
H1630 H 0.14084 0.27656 0.76188 0.0
H1631 H 0.17361 0.27721 0.7677 0.0
C1632 C 0.10154 0.31261 0.80306 0.0
C1633 C 0.11615 0.30159 0.81658 0.0
C1634 C 0.11278 0.32079 0.78727 0.0
C1635 C 0.13877 0.31777 0.7846 0.0
C1636 C 0.1534 0.30643 0.79796 0.0
H1637 H 0.22907 0.39232 0.70267 0.0
H1638 H 0.21442 0.37339 0.7307 0.0
C1639 C 0.14216 0.29839 0.81385 0.0
C1640 C 0.15055 0.32735 0.76804 0.0
H1641 H 0.17787 0.30868 0.72902 0.0
C1642 C 0.15098 0.35348 0.76513 0.0
C1643 C 0.16038 0.31095 0.75493 0.0
C1644 C 0.15978 0.28272 0.75733 0.0
C1645 C 0.16099 0.36368 0.7494 0.0
C1646 C 0.17085 0.3473 0.73629 0.0
C1647 C 0.17043 0.32115 0.73918 0.0
C1648 C 0.18076 0.35711 0.71921 0.0
C1649 C 0.16047 0.39187 0.74668 0.0
C1650 C 0.16692 0.35375 0.70348 0.0
C1651 C 0.17522 0.36457 0.68755 0.0
C1652 C 0.19759 0.37868 0.68709 0.0
C1653 C 0.21183 0.38138 0.70272 0.0
C1654 C 0.20345 0.37071 0.71869 0.0
H1655 H 0.14882 0.4016 0.75687 0.0
H1656 H 0.17997 0.39935 0.74749 0.0
H1657 H 0.15296 0.39652 0.73328 0.0
H1658 H 0.14937 0.34332 0.70364 0.0
H1659 H 0.164 0.36222 0.67561 0.0
H1660 H 0.58517 0.18651 0.70097 0.0
H1661 H 0.60511 0.17272 0.72866 0.0
H1662 H 0.67738 0.19734 0.70891 0.0
H1663 H 0.6575 0.21033 0.68082 0.0
H1664 H 0.68 0.15071 0.72366 0.0
H1665 H 0.63014 0.21494 0.76974 0.0
H1666 H 0.60866 0.19697 0.75639 0.0
H1667 H 0.62958 0.21921 0.74591 0.0
C1668 C 0.60532 0.18891 0.70253 0.0
C1669 C 0.61983 0.19941 0.68877 0.0
C1670 C 0.61665 0.18133 0.71844 0.0
C1671 C 0.64268 0.18442 0.72102 0.0
C1672 C 0.65724 0.19497 0.70728 0.0
H1673 H 0.70967 0.15591 0.82608 0.0
H1674 H 0.69707 0.17624 0.79807 0.0
C1675 C 0.64588 0.20247 0.6913 0.0
C1676 C 0.65475 0.1755 0.73774 0.0
H1677 H 0.65069 0.17924 0.78303 0.0
C1678 C 0.67379 0.15716 0.73664 0.0
C1679 C 0.647 0.18422 0.75469 0.0
C1680 C 0.62792 0.20512 0.75678 0.0
C1681 C 0.68451 0.14655 0.75201 0.0
C1682 C 0.67557 0.15408 0.76895 0.0
C1683 C 0.65732 0.1732 0.77006 0.0
C1684 C 0.6842 0.14174 0.78564 0.0
C1685 C 0.70534 0.12739 0.74993 0.0
C1686 C 0.68099 0.11567 0.78803 0.0
C1687 C 0.68835 0.10408 0.8039 0.0
C1688 C 0.69875 0.11837 0.81781 0.0
C1689 C 0.7019 0.14446 0.81548 0.0
C1690 C 0.69462 0.15607 0.79954 0.0
H1691 H 0.71536 0.12975 0.73705 0.0
H1692 H 0.71929 0.12884 0.7609 0.0
H1693 H 0.69711 0.10816 0.75015 0.0
H1694 H 0.67247 0.10429 0.77769 0.0
H1695 H 0.68588 0.0839 0.80531 0.0
H1696 H 0.99795 0.59698 0.15373 0.0
H1697 H 0.00517 0.55225 0.14813 0.0
H1698 H 0.96531 0.558 0.09832 0.0
H1699 H 0.95866 0.6031 0.1035 0.0
H1700 H 0.95149 0.51539 0.12287 0.0
H1701 H 0.05381 0.52331 0.10847 0.0
H1702 H 0.04359 0.54002 0.128 0.0
H1703 H 0.03232 0.54964 0.10649 0.0
C1704 C 0.99068 0.58879 0.14156 0.0
C1705 C 0.97733 0.60358 0.12922 0.0
C1706 C 0.99489 0.56326 0.13838 0.0
C1707 C 0.98594 0.55199 0.12276 0.0
C1708 C 0.97231 0.56647 0.11046 0.0
H1709 H 0.02798 0.39411 0.10121 0.0
H1710 H 0.01866 0.43874 0.09591 0.0
C1711 C 0.96823 0.59217 0.11358 0.0
C1712 C 0.99067 0.52493 0.11966 0.0
H1713 H 0.03846 0.48218 0.11595 0.0
C1714 C 0.97041 0.50808 0.12102 0.0
C1715 C 0.01534 0.51558 0.11704 0.0
C1716 C 0.03753 0.53305 0.11474 0.0
C1717 C 0.97446 0.48194 0.12097 0.0
C1718 C -0.00063 0.47262 0.11964 0.0
C1719 C 0.01942 0.48945 0.11711 0.0
C1720 C 0.0052 0.44573 0.12262 0.0
C1721 C 0.95219 0.46449 0.12288 0.0
C1722 C 0.00116 0.43517 0.13947 0.0
C1723 C 0.00694 0.40994 0.14264 0.0
C1724 C 0.01703 0.39477 0.12906 0.0
C1725 C 0.02109 0.40542 0.11215 0.0
C1726 C 0.01544 0.43082 0.10901 0.0
H1727 H 0.93433 0.47388 0.1189 0.0
H1728 H 0.95475 0.44723 0.11471 0.0
H1729 H 0.95041 0.45868 0.13702 0.0
H1730 H 0.99365 0.44654 0.15022 0.0
H1731 H 0.00357 0.40232 0.15581 0.0
H1732 H 0.4036 0.9943 0.15609 0.0
H1733 H 0.44784 0.00301 0.14967 0.0
H1734 H 0.43836 0.97451 0.09638 0.0
H1735 H 0.3937 0.96656 0.10243 0.0
H1736 H 0.48251 0.95522 0.11872 0.0
H1737 H 0.47444 0.05942 0.11383 0.0
H1738 H 0.45828 0.04546 0.13243 0.0
H1739 H 0.44805 0.03848 0.11019 0.0
C1740 C 0.41085 0.9899 0.14297 0.0
C1741 C 0.3952 0.97924 0.1299 0.0
C1742 C 0.4361 0.99493 0.13934 0.0
C1743 C 0.44618 0.98951 0.12255 0.0
C1744 C 0.4308 0.97874 0.10944 0.0
H1745 H 0.60408 0.0321 0.10145 0.0
H1746 H 0.55935 0.02395 0.09583 0.0
C1747 C 0.40538 0.97387 0.11302 0.0
C1748 C 0.47303 0.99469 0.11911 0.0
H1749 H 0.5158 0.04271 0.11874 0.0
C1750 C 0.48982 0.97431 0.11834 0.0
C1751 C 0.48235 0.01963 0.11847 0.0
C1752 C 0.46487 0.04207 0.11861 0.0
C1753 C 0.51594 0.9783 0.11814 0.0
C1754 C 0.52528 0.00323 0.11879 0.0
C1755 C 0.50848 0.02362 0.11834 0.0
C1756 C 0.55221 0.00839 0.12194 0.0
C1757 C 0.53343 0.95586 0.11794 0.0
C1758 C 0.56271 0.00271 0.13856 0.0
C1759 C 0.58799 0.00787 0.14196 0.0
C1760 C 0.60328 0.01891 0.12882 0.0
C1761 C 0.5927 0.0245 0.1121 0.0
C1762 C 0.56723 0.01951 0.10875 0.0
H1763 H 0.52375 0.93858 0.11314 0.0
H1764 H 0.55007 0.95957 0.10936 0.0
H1765 H 0.5403 0.95226 0.13166 0.0
H1766 H 0.55125 0.99438 0.14895 0.0
H1767 H 0.59555 0.00328 0.15496 0.0
H1768 H 0.56154 0.09245 0.37369 0.0
H1769 H 0.55427 0.04699 0.37626 0.0
H1770 H 0.47457 0.06035 0.38235 0.0
H1771 H 0.48166 0.10575 0.38005 0.0
H1772 H 0.52752 0.01697 0.40413 0.0
H1773 H 0.4825 0.01449 0.33733 0.0
H1774 H 0.50202 0.04039 0.34462 0.0
H1775 H 0.47013 0.0377 0.35242 0.0
C1776 C 0.54259 0.0858 0.37609 0.0
C1777 C 0.52219 0.1027 0.37685 0.0
C1778 C 0.53845 0.05981 0.3774 0.0
C1779 C 0.51388 0.05043 0.37932 0.0
C1780 C 0.49363 0.06728 0.38067 0.0
H1781 H 0.44431 0.90343 0.37338 0.0
H1782 H 0.45315 0.94825 0.37716 0.0
C1783 C 0.49773 0.09317 0.37935 0.0
C1784 C 0.50907 0.02302 0.37898 0.0
H1785 H 0.48077 0.97707 0.35435 0.0
C1786 C 0.51739 0.00814 0.39325 0.0
C1787 C 0.49584 0.01173 0.36475 0.0
C1788 C 0.48725 0.0268 0.34881 0.0
C1789 C 0.51229 0.98217 0.39384 0.0
C1790 C 0.49897 0.97088 0.3796 0.0
C1791 C 0.49083 0.98581 0.3653 0.0
C1792 C 0.49359 0.94351 0.37899 0.0
C1793 C 0.52068 0.9672 0.40985 0.0
C1794 C 0.51339 0.926 0.37873 0.0
C1795 C 0.50834 0.9003 0.37688 0.0
C1796 C 0.48341 0.89164 0.37519 0.0
C1797 C 0.46361 0.90925 0.37537 0.0
C1798 C 0.46867 0.93496 0.3773 0.0
H1799 H 0.52406 0.97955 0.42155 0.0
H1800 H 0.50646 0.95274 0.41351 0.0
H1801 H 0.53862 0.95741 0.40669 0.0
H1802 H 0.5328 0.93223 0.37952 0.0
H1803 H 0.52402 0.88721 0.3766 0.0
H1804 H 0.90138 0.50031 0.3514 0.0
H1805 H 0.94629 0.49318 0.35629 0.0
H1806 H 0.94224 0.53389 0.40585 0.0
H1807 H 0.897 0.54047 0.40138 0.0
H1808 H 0.98407 0.54724 0.38066 0.0
H1809 H 0.97634 0.44506 0.39579 0.0
H1810 H 0.95926 0.45512 0.37638 0.0
H1811 H 0.95009 0.46661 0.39791 0.0
C1812 C 0.90998 0.50779 0.36336 0.0
C1813 C 0.89562 0.52135 0.37584 0.0
C1814 C 0.93562 0.50364 0.36614 0.0
C1815 C 0.94741 0.51285 0.38148 0.0
C1816 C 0.93336 0.52669 0.39391 0.0
H1817 H 0.10484 0.47016 0.40315 0.0
H1818 H 0.0602 0.47973 0.40804 0.0
C1819 C 0.90757 0.53073 0.39119 0.0
C1820 C 0.97456 0.50811 0.38422 0.0
H1821 H 0.01733 0.46035 0.3881 0.0
C1822 C 0.99139 0.52833 0.38259 0.0
C1823 C 0.98393 0.48345 0.38695 0.0
C1824 C 0.96649 0.46129 0.38953 0.0
C1825 C 0.01753 0.52429 0.38256 0.0
C1826 C 0.02687 0.49939 0.38407 0.0
C1827 C 0.01005 0.47938 0.38679 0.0
C1828 C 0.05382 0.49353 0.38133 0.0
C1829 C 0.03494 0.54657 0.38047 0.0
C1830 C 0.06476 0.49769 0.36462 0.0
C1831 C 0.09002 0.49181 0.36169 0.0
C1832 C 0.10483 0.48145 0.37537 0.0
C1833 C 0.09381 0.47727 0.39214 0.0
C1834 C 0.06839 0.48306 0.39504 0.0
H1835 H 0.02557 0.56446 0.38442 0.0
H1836 H 0.05228 0.54411 0.38857 0.0
H1837 H 0.0406 0.54825 0.3663 0.0
H1838 H 0.05366 0.50535 0.35378 0.0
H1839 H 0.09794 0.49526 0.34862 0.0
H1840 H 0.96439 0.60404 0.9048 0.0
H1841 H 0.97179 0.55901 0.90983 0.0
H1842 H 0.00608 0.55293 0.85801 0.0
H1843 H 0.99803 0.59757 0.85258 0.0
H1844 H 0.95501 0.51655 0.8862 0.0
H1845 H 0.05869 0.52351 0.89481 0.0
H1846 H 0.03775 0.55005 0.89795 0.0
H1847 H 0.04646 0.5403 0.87589 0.0
C1848 C 0.9729 0.59306 0.89428 0.0
C1849 C 0.98011 0.60433 0.87811 0.0
C1850 C 0.97744 0.5674 0.89731 0.0
C1851 C 0.98968 0.55284 0.88435 0.0
C1852 C 0.9969 0.56401 0.86825 0.0
H1853 H 0.00312 0.40313 0.85047 0.0
H1854 H 0.99428 0.44747 0.85648 0.0
C1855 C 0.99222 0.58949 0.86517 0.0
C1856 C 0.99451 0.52573 0.88722 0.0
H1857 H 0.04216 0.48251 0.8883 0.0
C1858 C 0.97401 0.50907 0.88701 0.0
C1859 C 0.01932 0.51614 0.88845 0.0
C1860 C 0.04185 0.53341 0.88946 0.0
C1861 C 0.97781 0.48289 0.88685 0.0
C1862 C 0.00269 0.47333 0.88681 0.0
C1863 C 0.02312 0.48997 0.88819 0.0
C1864 C 0.00789 0.44637 0.88359 0.0
C1865 C 0.95525 0.46563 0.88614 0.0
C1866 C 0.01883 0.43124 0.89681 0.0
C1867 C 0.02382 0.40576 0.89344 0.0
C1868 C 0.01839 0.39524 0.87669 0.0
C1869 C 0.00756 0.41063 0.8635 0.0
C1870 C 0.00243 0.43595 0.86691 0.0
H1871 H 0.93786 0.47526 0.89081 0.0
H1872 H 0.95216 0.45951 0.87219 0.0
H1873 H 0.95841 0.44852 0.89438 0.0
H1874 H 0.02313 0.43905 0.90977 0.0
H1875 H 0.03128 0.39431 0.90411 0.0
H1876 H 0.60527 0.02753 0.90382 0.0
H1877 H 0.56088 0.0177 0.90945 0.0
H1878 H 0.55204 0.9945 0.85483 0.0
H1879 H 0.59605 0.0049 0.84893 0.0
H1880 H 0.51714 0.03796 0.8907 0.0
H1881 H 0.5254 0.93404 0.88496 0.0
H1882 H 0.5522 0.95426 0.88906 0.0
H1883 H 0.53982 0.95095 0.86691 0.0
C1884 C 0.59377 0.02092 0.8929 0.0
C1885 C 0.60406 0.01752 0.87581 0.0
C1886 C 0.56851 0.01497 0.89622 0.0
C1887 C 0.55338 0.0051 0.88261 0.0
C1888 C 0.56358 0.0017 0.86558 0.0
H1889 H 0.40103 -0.00063 0.85402 0.0
H1890 H 0.44596 0.0062 0.8589 0.0
C1891 C 0.58869 0.00776 0.86223 0.0
C1892 C 0.52658 0.99909 0.88579 0.0
H1893 H 0.48376 0.95138 0.88207 0.0
C1894 C 0.50984 0.01898 0.88916 0.0
C1895 C 0.51724 0.97426 0.88397 0.0
C1896 C 0.53461 0.95208 0.8812 0.0
C1897 C 0.48374 0.0149 0.8896 0.0
C1898 C 0.47432 0.99036 0.8865 0.0
C1899 C 0.49112 0.9702 0.88428 0.0
C1900 C 0.44716 0.9858 0.8838 0.0
C1901 C 0.46635 0.03694 0.89279 0.0
C1902 C 0.43315 0.97166 0.89607 0.0
C1903 C 0.40734 0.96779 0.89337 0.0
C1904 C 0.39535 0.97765 0.87818 0.0
C1905 C 0.40967 0.99152 0.86585 0.0
C1906 C 0.43532 0.9955 0.86862 0.0
H1907 H 0.47632 0.05292 0.89926 0.0
H1908 H 0.45882 0.04365 0.87984 0.0
H1909 H 0.45013 0.03129 0.90125 0.0
H1910 H 0.44208 0.96408 0.90789 0.0
H1911 H 0.3968 0.95779 0.90345 0.0
H1912 H 0.48617 0.90426 0.66059 0.0
H1913 H 0.49614 0.94859 0.6554 0.0
H1914 H 0.48262 0.93872 0.59923 0.0
H1915 H 0.4725 0.8942 0.60437 0.0
H1916 H 0.53467 0.96704 0.63411 0.0
H1917 H 0.44103 0.0018 0.61117 0.0
H1918 H 0.44485 0.97189 0.62234 0.0
H1919 H 0.4539 0.9752 0.59943 0.0
C1920 C 0.48507 0.91159 0.64715 0.0
C1921 C 0.47813 0.89589 0.63293 0.0
C1922 C 0.49079 0.93689 0.6442 0.0
C1923 C 0.48985 0.947 0.62697 0.0
C1924 C 0.4829 0.93142 0.61269 0.0
H1925 H 0.52697 0.10592 0.60292 0.0
H1926 H 0.52005 0.06056 0.59822 0.0
C1927 C 0.47702 0.90602 0.61565 0.0
C1928 C 0.49714 0.97364 0.62417 0.0
H1929 H 0.47368 0.03169 0.61344 0.0
C1930 C 0.52142 0.98113 0.62938 0.0
C1931 C 0.47986 0.99193 0.6179 0.0
C1932 C 0.45337 0.98497 0.61248 0.0
C1933 C 0.52856 0.00655 0.62919 0.0
C1934 C 0.51093 0.02491 0.62369 0.0
C1935 C 0.4871 0.01741 0.6176 0.0
C1936 C 0.51593 0.05203 0.62621 0.0
C1937 C 0.55461 0.01379 0.63538 0.0
C1938 C 0.51575 0.06204 0.64346 0.0
C1939 C 0.51962 0.08774 0.64616 0.0
C1940 C 0.52401 0.10385 0.63167 0.0
C1941 C 0.52426 0.09381 0.61435 0.0
C1942 C 0.52011 0.06802 0.61164 0.0
H1943 H 0.56764 0.99738 0.63545 0.0
H1944 H 0.56262 0.02877 0.62674 0.0
H1945 H 0.55345 0.02134 0.64913 0.0
H1946 H 0.51231 0.04996 0.65484 0.0
H1947 H 0.51921 0.09503 0.65963 0.0
H1948 H 0.88815 0.47562 0.62852 0.0
H1949 H 0.9335 0.46793 0.62662 0.0
H1950 H 0.94755 0.54758 0.63255 0.0
H1951 H 0.90241 0.55527 0.63539 0.0
H1952 H 0.96976 0.48531 0.6033 0.0
H1953 H 0.98954 0.51714 0.67226 0.0
H1954 H 0.95798 0.51147 0.66427 0.0
H1955 H 0.9739 0.54042 0.65889 0.0
C1956 C 0.9009 0.49152 0.62939 0.0
C1957 C 0.89159 0.51612 0.63184 0.0
C1958 C 0.92678 0.48709 0.62822 0.0
C1959 C 0.94387 0.50715 0.62962 0.0
C1960 C 0.93466 0.5318 0.63166 0.0
H1961 H 0.10599 0.51925 0.63001 0.0
H1962 H 0.06063 0.52655 0.62767 0.0
C1963 C 0.90876 0.53623 0.63294 0.0
C1964 C 0.97131 0.50212 0.62937 0.0
H1965 H 0.02497 0.50844 0.65401 0.0
C1966 C 0.98185 0.49029 0.61439 0.0
C1967 C 0.98696 0.50846 0.64395 0.0
C1968 C 0.97652 0.51985 0.66083 0.0
C1969 C 0.00777 0.48509 0.61347 0.0
C1970 C 0.02339 0.49178 0.62793 0.0
C1971 C 0.01287 0.50349 0.64292 0.0
C1972 C 0.05081 0.48698 0.62785 0.0
C1973 C 0.0184 0.47291 0.59696 0.0
C1974 C 0.06023 0.46229 0.62873 0.0
C1975 C 0.08618 0.45803 0.63018 0.0
C1976 C 0.10306 0.47845 0.63067 0.0
C1977 C 0.09347 0.50313 0.62959 0.0
C1978 C 0.0676 0.50735 0.62821 0.0
H1979 H 0.00475 0.47321 0.58574 0.0
H1980 H 0.03597 0.48258 0.59273 0.0
H1981 H 0.02318 0.45296 0.5999 0.0
H1982 H 0.04746 0.44636 0.62889 0.0
H1983 H 0.09277 0.43886 0.63166 0.0
loop_
_geom_bond_atom_site_label_1
_geom_bond_atom_site_label_2
_geom_bond_distance
_geom_bond_site_symmetry_2
_ccdc_geom_bond_type
Co0 O3 1.970 . S
Co0 N17 1.989 . S
Co0 O25 1.967 . S
Co0 O32 1.920 . S
Co1 O4 1.966 . S
Co1 N10 2.022 . S
Co1 N18 1.993 . S
Co1 O26 1.941 . S
C2 O3 1.258 . S
C2 O4 1.263 . S
O3 Co0 1.970 . S
O3 C2 1.258 . S
O4 Co1 1.966 . S
O4 C2 1.263 . S
C5 O6 1.235 . S
C5 O32 1.289 . S
O6 C5 1.235 . S
C7 C9 1.400 . S
C7 N10 1.351 . S
C7 C12 1.501 . S
C8 C9 1.387 . S
C8 N11 1.341 . S
C9 C7 1.400 . S
C9 C8 1.387 . S
N10 Co1 2.022 . S
N10 C7 1.351 . S
N10 N11 1.365 . S
N11 C8 1.341 . S
N11 N10 1.365 . S
N11 H31 0.862 . S
C12 C7 1.501 . S
C12 H13 0.961 . S
C12 H14 0.961 . S
C12 H15 0.960 . S
H13 C12 0.961 . S
H14 C12 0.961 . S
H15 C12 0.960 . S
C16 N17 1.342 . S
C16 C20 1.401 . S
C16 C21 1.499 . S
N17 Co0 1.989 . S
N17 C16 1.342 . S
N17 N18 1.388 . S
N18 Co1 1.993 . S
N18 N17 1.388 . S
N18 C19 1.346 . S
C19 N18 1.346 . S
C19 C20 1.396 . S
C19 C29 1.510 . S
C20 C16 1.401 . S
C20 C19 1.396 . S
C21 C16 1.499 . S
C21 H22 0.959 . S
C21 H23 0.960 . S
C21 H24 0.961 . S
H22 C21 0.959 . S
H23 C21 0.960 . S
H24 C21 0.961 . S
O25 Co0 1.967 . S
O25 C33 1.258 . S
O26 Co1 1.941 . S
O26 C33 1.266 . S
H27 C29 0.959 . S
H28 C29 0.961 . S
C29 C19 1.510 . S
C29 H27 0.959 . S
C29 H28 0.961 . S
C29 H30 0.960 . S
H30 C29 0.960 . S
H31 N11 0.862 . S
O32 Co0 1.920 . S
O32 C5 1.289 . S
C33 O25 1.258 . S
C33 O26 1.266 . S
Co34 O37 1.970 . S
Co34 N51 1.989 . S
Co34 O59 1.967 . S
Co34 O66 1.920 . S
Co35 O38 1.966 . S
Co35 N44 2.022 . S
Co35 N52 1.993 . S
Co35 O60 1.941 . S
C36 O37 1.258 . S
C36 O38 1.263 . S
O37 Co34 1.970 . S
O37 C36 1.258 . S
O38 Co35 1.966 . S
O38 C36 1.263 . S
C39 O40 1.235 . S
C39 O66 1.289 . S
O40 C39 1.235 . S
C41 C43 1.400 . S
C41 N44 1.351 . S
C41 C46 1.501 . S
C42 C43 1.387 . S
C42 N45 1.341 . S
C43 C41 1.400 . S
C43 C42 1.387 . S
N44 Co35 2.022 . S
N44 C41 1.351 . S
N44 N45 1.365 . S
N45 C42 1.341 . S
N45 N44 1.365 . S
N45 H65 0.862 . S
C46 C41 1.501 . S
C46 H47 0.961 . S
C46 H48 0.961 . S
C46 H49 0.960 . S
H47 C46 0.961 . S
H48 C46 0.961 . S
H49 C46 0.960 . S
C50 N51 1.342 . S
C50 C54 1.401 . S
C50 C55 1.499 . S
N51 Co34 1.989 . S
N51 C50 1.342 . S
N51 N52 1.388 . S
N52 Co35 1.993 . S
N52 N51 1.388 . S
N52 C53 1.346 . S
C53 N52 1.346 . S
C53 C54 1.396 . S
C53 C63 1.510 . S
C54 C50 1.401 . S
C54 C53 1.396 . S
C55 C50 1.499 . S
C55 H56 0.959 . S
C55 H57 0.960 . S
C55 H58 0.961 . S
H56 C55 0.959 . S
H57 C55 0.960 . S
H58 C55 0.961 . S
O59 Co34 1.967 . S
O59 C67 1.258 . S
O60 Co35 1.941 . S
O60 C67 1.266 . S
H61 C63 0.959 . S
H62 C63 0.961 . S
C63 C53 1.510 . S
C63 H61 0.959 . S
C63 H62 0.961 . S
C63 H64 0.960 . S
H64 C63 0.960 . S
H65 N45 0.862 . S
O66 Co34 1.920 . S
O66 C39 1.289 . S
C67 O59 1.258 . S
C67 O60 1.266 . S
Co68 O71 1.970 . S
Co68 N85 1.989 . S
Co68 O93 1.967 . S
Co68 O100 1.920 . S
Co69 O72 1.966 . S
Co69 N78 2.022 . S
Co69 N86 1.993 . S
Co69 O94 1.941 . S
C70 O71 1.258 . S
C70 O72 1.263 . S
O71 Co68 1.970 . S
O71 C70 1.258 . S
O72 Co69 1.966 . S
O72 C70 1.263 . S
C73 O74 1.235 . S
C73 O100 1.289 . S
O74 C73 1.235 . S
C75 C77 1.400 . S
C75 N78 1.351 . S
C75 C80 1.501 . S
C76 C77 1.387 . S
C76 N79 1.341 . S
C77 C75 1.400 . S
C77 C76 1.387 . S
N78 Co69 2.022 . S
N78 C75 1.351 . S
N78 N79 1.365 . S
N79 C76 1.341 . S
N79 N78 1.365 . S
N79 H99 0.862 . S
C80 C75 1.501 . S
C80 H81 0.961 . S
C80 H82 0.961 . S
C80 H83 0.960 . S
H81 C80 0.961 . S
H82 C80 0.961 . S
H83 C80 0.960 . S
C84 N85 1.342 . S
C84 C88 1.401 . S
C84 C89 1.499 . S
N85 Co68 1.989 . S
N85 C84 1.342 . S
N85 N86 1.388 . S
N86 Co69 1.993 . S
N86 N85 1.388 . S
N86 C87 1.346 . S
C87 N86 1.346 . S
C87 C88 1.396 . S
C87 C97 1.510 . S
C88 C84 1.401 . S
C88 C87 1.396 . S
C89 C84 1.499 . S
C89 H90 0.959 . S
C89 H91 0.960 . S
C89 H92 0.961 . S
H90 C89 0.959 . S
H91 C89 0.960 . S
H92 C89 0.961 . S
O93 Co68 1.967 . S
O93 C101 1.258 . S
O94 Co69 1.941 . S
O94 C101 1.266 . S
H95 C97 0.959 . S
H96 C97 0.961 . S
C97 C87 1.510 . S
C97 H95 0.959 . S
C97 H96 0.961 . S
C97 H98 0.960 . S
H98 C97 0.960 . S
H99 N79 0.862 . S
O100 Co68 1.920 . S
O100 C73 1.289 . S
C101 O93 1.258 . S
C101 O94 1.266 . S
Co102 O105 1.970 . S
Co102 N119 1.989 . S
Co102 O127 1.967 . S
Co102 O134 1.920 . S
Co103 O106 1.966 . S
Co103 N112 2.022 . S
Co103 N120 1.993 . S
Co103 O128 1.941 . S
C104 O105 1.258 . S
C104 O106 1.263 . S
O105 Co102 1.970 . S
O105 C104 1.258 . S
O106 Co103 1.966 . S
O106 C104 1.263 . S
C107 O108 1.235 . S
C107 O134 1.289 . S
O108 C107 1.235 . S
C109 C111 1.400 . S
C109 N112 1.351 . S
C109 C114 1.501 . S
C110 C111 1.387 . S
C110 N113 1.341 . S
C111 C109 1.400 . S
C111 C110 1.387 . S
N112 Co103 2.022 . S
N112 C109 1.351 . S
N112 N113 1.365 . S
N113 C110 1.341 . S
N113 N112 1.365 . S
N113 H133 0.862 . S
C114 C109 1.501 . S
C114 H115 0.961 . S
C114 H116 0.961 . S
C114 H117 0.960 . S
H115 C114 0.961 . S
H116 C114 0.961 . S
H117 C114 0.960 . S
C118 N119 1.342 . S
C118 C122 1.401 . S
C118 C123 1.499 . S
N119 Co102 1.989 . S
N119 C118 1.342 . S
N119 N120 1.388 . S
N120 Co103 1.993 . S
N120 N119 1.388 . S
N120 C121 1.346 . S
C121 N120 1.346 . S
C121 C122 1.396 . S
C121 C131 1.510 . S
C122 C118 1.401 . S
C122 C121 1.396 . S
C123 C118 1.499 . S
C123 H124 0.959 . S
C123 H125 0.960 . S
C123 H126 0.961 . S
H124 C123 0.959 . S
H125 C123 0.960 . S
H126 C123 0.961 . S
O127 Co102 1.967 . S
O127 C135 1.258 . S
O128 Co103 1.941 . S
O128 C135 1.266 . S
H129 C131 0.959 . S
H130 C131 0.961 . S
C131 C121 1.510 . S
C131 H129 0.959 . S
C131 H130 0.961 . S
C131 H132 0.960 . S
H132 C131 0.960 . S
H133 N113 0.862 . S
O134 Co102 1.920 . S
O134 C107 1.289 . S
C135 O127 1.258 . S
C135 O128 1.266 . S
Co136 O139 1.970 . S
Co136 N153 1.989 . S
Co136 O161 1.967 . S
Co136 O168 1.920 . S
Co137 O140 1.966 . S
Co137 N146 2.022 . S
Co137 N154 1.993 . S
Co137 O162 1.941 . S
C138 O139 1.258 . S
C138 O140 1.263 . S
O139 Co136 1.970 . S
O139 C138 1.258 . S
O140 Co137 1.966 . S
O140 C138 1.263 . S
C141 O142 1.235 . S
C141 O168 1.289 . S
O142 C141 1.235 . S
C143 C145 1.400 . S
C143 N146 1.351 . S
C143 C148 1.501 . S
C144 C145 1.387 . S
C144 N147 1.341 . S
C145 C143 1.400 . S
C145 C144 1.387 . S
N146 Co137 2.022 . S
N146 C143 1.351 . S
N146 N147 1.365 . S
N147 C144 1.341 . S
N147 N146 1.365 . S
N147 H167 0.862 . S
C148 C143 1.501 . S
C148 H149 0.961 . S
C148 H150 0.961 . S
C148 H151 0.960 . S
H149 C148 0.961 . S
H150 C148 0.961 . S
H151 C148 0.960 . S
C152 N153 1.342 . S
C152 C156 1.401 . S
C152 C157 1.499 . S
N153 Co136 1.989 . S
N153 C152 1.342 . S
N153 N154 1.388 . S
N154 Co137 1.993 . S
N154 N153 1.388 . S
N154 C155 1.346 . S
C155 N154 1.346 . S
C155 C156 1.396 . S
C155 C165 1.510 . S
C156 C152 1.401 . S
C156 C155 1.396 . S
C157 C152 1.499 . S
C157 H158 0.959 . S
C157 H159 0.960 . S
C157 H160 0.961 . S
H158 C157 0.959 . S
H159 C157 0.960 . S
H160 C157 0.961 . S
O161 Co136 1.967 . S
O161 C169 1.258 . S
O162 Co137 1.941 . S
O162 C169 1.266 . S
H163 C165 0.959 . S
H164 C165 0.961 . S
C165 C155 1.510 . S
C165 H163 0.959 . S
C165 H164 0.961 . S
C165 H166 0.960 . S
H166 C165 0.960 . S
H167 N147 0.862 . S
O168 Co136 1.920 . S
O168 C141 1.289 . S
C169 O161 1.258 . S
C169 O162 1.266 . S
Co170 O173 1.970 . S
Co170 N187 1.989 . S
Co170 O195 1.967 . S
Co170 O202 1.920 . S
Co171 O174 1.966 . S
Co171 N180 2.022 . S
Co171 N188 1.993 . S
Co171 O196 1.941 . S
C172 O173 1.258 . S
C172 O174 1.263 . S
O173 Co170 1.970 . S
O173 C172 1.258 . S
O174 Co171 1.966 . S
O174 C172 1.263 . S
C175 O176 1.235 . S
C175 O202 1.289 . S
O176 C175 1.235 . S
C177 C179 1.400 . S
C177 N180 1.351 . S
C177 C182 1.501 . S
C178 C179 1.387 . S
C178 N181 1.341 . S
C179 C177 1.400 . S
C179 C178 1.387 . S
N180 Co171 2.022 . S
N180 C177 1.351 . S
N180 N181 1.365 . S
N181 C178 1.341 . S
N181 N180 1.365 . S
N181 H201 0.862 . S
C182 C177 1.501 . S
C182 H183 0.961 . S
C182 H184 0.961 . S
C182 H185 0.960 . S
H183 C182 0.961 . S
H184 C182 0.961 . S
H185 C182 0.960 . S
C186 N187 1.342 . S
C186 C190 1.401 . S
C186 C191 1.499 . S
N187 Co170 1.989 . S
N187 C186 1.342 . S
N187 N188 1.388 . S
N188 Co171 1.993 . S
N188 N187 1.388 . S
N188 C189 1.346 . S
C189 N188 1.346 . S
C189 C190 1.396 . S
C189 C199 1.510 . S
C190 C186 1.401 . S
C190 C189 1.396 . S
C191 C186 1.499 . S
C191 H192 0.959 . S
C191 H193 0.960 . S
C191 H194 0.961 . S
H192 C191 0.959 . S
H193 C191 0.960 . S
H194 C191 0.961 . S
O195 Co170 1.967 . S
O195 C203 1.258 . S
O196 Co171 1.941 . S
O196 C203 1.266 . S
H197 C199 0.959 . S
H198 C199 0.961 . S
C199 C189 1.510 . S
C199 H197 0.959 . S
C199 H198 0.961 . S
C199 H200 0.960 . S
H200 C199 0.960 . S
H201 N181 0.862 . S
O202 Co170 1.920 . S
O202 C175 1.289 . S
C203 O195 1.258 . S
C203 O196 1.266 . S
Co204 O207 1.970 . S
Co204 N221 1.989 . S
Co204 O229 1.967 . S
Co204 O236 1.920 . S
Co205 O208 1.966 . S
Co205 N214 2.022 . S
Co205 N222 1.993 . S
Co205 O230 1.941 . S
C206 O207 1.258 . S
C206 O208 1.263 . S
O207 Co204 1.970 . S
O207 C206 1.258 . S
O208 Co205 1.966 . S
O208 C206 1.263 . S
C209 O210 1.235 . S
C209 O236 1.289 . S
O210 C209 1.235 . S
C211 C213 1.400 . S
C211 N214 1.351 . S
C211 C216 1.501 . S
C212 C213 1.387 . S
C212 N215 1.341 . S
C213 C211 1.400 . S
C213 C212 1.387 . S
N214 Co205 2.022 . S
N214 C211 1.351 . S
N214 N215 1.365 . S
N215 C212 1.341 . S
N215 N214 1.365 . S
N215 H235 0.862 . S
C216 C211 1.501 . S
C216 H217 0.961 . S
C216 H218 0.961 . S
C216 H219 0.960 . S
H217 C216 0.961 . S
H218 C216 0.961 . S
H219 C216 0.960 . S
C220 N221 1.342 . S
C220 C224 1.401 . S
C220 C225 1.499 . S
N221 Co204 1.989 . S
N221 C220 1.342 . S
N221 N222 1.388 . S
N222 Co205 1.993 . S
N222 N221 1.388 . S
N222 C223 1.346 . S
C223 N222 1.346 . S
C223 C224 1.396 . S
C223 C233 1.510 . S
C224 C220 1.401 . S
C224 C223 1.396 . S
C225 C220 1.499 . S
C225 H226 0.959 . S
C225 H227 0.960 . S
C225 H228 0.961 . S
H226 C225 0.959 . S
H227 C225 0.960 . S
H228 C225 0.961 . S
O229 Co204 1.967 . S
O229 C237 1.258 . S
O230 Co205 1.941 . S
O230 C237 1.266 . S
H231 C233 0.959 . S
H232 C233 0.961 . S
C233 C223 1.510 . S
C233 H231 0.959 . S
C233 H232 0.961 . S
C233 H234 0.960 . S
H234 C233 0.960 . S
H235 N215 0.862 . S
O236 Co204 1.920 . S
O236 C209 1.289 . S
C237 O229 1.258 . S
C237 O230 1.266 . S
Co238 O241 1.970 . S
Co238 N255 1.989 . S
Co238 O263 1.967 . S
Co238 O270 1.920 . S
Co239 O242 1.966 . S
Co239 N248 2.022 . S
Co239 N256 1.993 . S
Co239 O264 1.941 . S
C240 O241 1.258 . S
C240 O242 1.263 . S
O241 Co238 1.970 . S
O241 C240 1.258 . S
O242 Co239 1.966 . S
O242 C240 1.263 . S
C243 O244 1.235 . S
C243 O270 1.289 . S
O244 C243 1.235 . S
C245 C247 1.400 . S
C245 N248 1.351 . S
C245 C250 1.501 . S
C246 C247 1.387 . S
C246 N249 1.341 . S
C247 C245 1.400 . S
C247 C246 1.387 . S
N248 Co239 2.022 . S
N248 C245 1.351 . S
N248 N249 1.365 . S
N249 C246 1.341 . S
N249 N248 1.365 . S
N249 H269 0.862 . S
C250 C245 1.501 . S
C250 H251 0.961 . S
C250 H252 0.961 . S
C250 H253 0.960 . S
H251 C250 0.961 . S
H252 C250 0.961 . S
H253 C250 0.960 . S
C254 N255 1.342 . S
C254 C258 1.401 . S
C254 C259 1.499 . S
N255 Co238 1.989 . S
N255 C254 1.342 . S
N255 N256 1.388 . S
N256 Co239 1.993 . S
N256 N255 1.388 . S
N256 C257 1.346 . S
C257 N256 1.346 . S
C257 C258 1.396 . S
C257 C267 1.510 . S
C258 C254 1.401 . S
C258 C257 1.396 . S
C259 C254 1.499 . S
C259 H260 0.959 . S
C259 H261 0.960 . S
C259 H262 0.961 . S
H260 C259 0.959 . S
H261 C259 0.960 . S
H262 C259 0.961 . S
O263 Co238 1.967 . S
O263 C271 1.258 . S
O264 Co239 1.941 . S
O264 C271 1.266 . S
H265 C267 0.959 . S
H266 C267 0.961 . S
C267 C257 1.510 . S
C267 H265 0.959 . S
C267 H266 0.961 . S
C267 H268 0.960 . S
H268 C267 0.960 . S
H269 N249 0.862 . S
O270 Co238 1.920 . S
O270 C243 1.289 . S
C271 O263 1.258 . S
C271 O264 1.266 . S
Co272 O275 1.970 . S
Co272 N289 1.989 . S
Co272 O297 1.967 . S
Co272 O304 1.920 . S
Co273 O276 1.966 . S
Co273 N282 2.022 . S
Co273 N290 1.993 . S
Co273 O298 1.941 . S
C274 O275 1.258 . S
C274 O276 1.263 . S
O275 Co272 1.970 . S
O275 C274 1.258 . S
O276 Co273 1.966 . S
O276 C274 1.263 . S
C277 O278 1.235 . S
C277 O304 1.289 . S
O278 C277 1.235 . S
C279 C281 1.400 . S
C279 N282 1.351 . S
C279 C284 1.501 . S
C280 C281 1.387 . S
C280 N283 1.341 . S
C281 C279 1.400 . S
C281 C280 1.387 . S
N282 Co273 2.022 . S
N282 C279 1.351 . S
N282 N283 1.365 . S
N283 C280 1.341 . S
N283 N282 1.365 . S
N283 H303 0.862 . S
C284 C279 1.501 . S
C284 H285 0.961 . S
C284 H286 0.961 . S
C284 H287 0.960 . S
H285 C284 0.961 . S
H286 C284 0.961 . S
H287 C284 0.960 . S
C288 N289 1.342 . S
C288 C292 1.401 . S
C288 C293 1.499 . S
N289 Co272 1.989 . S
N289 C288 1.342 . S
N289 N290 1.388 . S
N290 Co273 1.993 . S
N290 N289 1.388 . S
N290 C291 1.346 . S
C291 N290 1.346 . S
C291 C292 1.396 . S
C291 C301 1.510 . S
C292 C288 1.401 . S
C292 C291 1.396 . S
C293 C288 1.499 . S
C293 H294 0.959 . S
C293 H295 0.960 . S
C293 H296 0.961 . S
H294 C293 0.959 . S
H295 C293 0.960 . S
H296 C293 0.961 . S
O297 Co272 1.967 . S
O297 C305 1.258 . S
O298 Co273 1.941 . S
O298 C305 1.266 . S
H299 C301 0.959 . S
H300 C301 0.961 . S
C301 C291 1.510 . S
C301 H299 0.959 . S
C301 H300 0.961 . S
C301 H302 0.960 . S
H302 C301 0.960 . S
H303 N283 0.862 . S
O304 Co272 1.920 . S
O304 C277 1.289 . S
C305 O297 1.258 . S
C305 O298 1.266 . S
Co306 O309 1.970 . S
Co306 N323 1.989 . S
Co306 O331 1.967 . S
Co306 O338 1.920 . S
Co307 O310 1.966 . S
Co307 N316 2.022 . S
Co307 N324 1.993 . S
Co307 O332 1.941 . S
C308 O309 1.258 . S
C308 O310 1.263 . S
O309 Co306 1.970 . S
O309 C308 1.258 . S
O310 Co307 1.966 . S
O310 C308 1.263 . S
C311 O312 1.235 . S
C311 O338 1.289 . S
O312 C311 1.235 . S
C313 C315 1.400 . S
C313 N316 1.351 . S
C313 C318 1.501 . S
C314 C315 1.387 . S
C314 N317 1.341 . S
C315 C313 1.400 . S
C315 C314 1.387 . S
N316 Co307 2.022 . S
N316 C313 1.351 . S
N316 N317 1.365 . S
N317 C314 1.341 . S
N317 N316 1.365 . S
N317 H337 0.862 . S
C318 C313 1.501 . S
C318 H319 0.961 . S
C318 H320 0.961 . S
C318 H321 0.960 . S
H319 C318 0.961 . S
H320 C318 0.961 . S
H321 C318 0.960 . S
C322 N323 1.342 . S
C322 C326 1.401 . S
C322 C327 1.499 . S
N323 Co306 1.989 . S
N323 C322 1.342 . S
N323 N324 1.388 . S
N324 Co307 1.993 . S
N324 N323 1.388 . S
N324 C325 1.346 . S
C325 N324 1.346 . S
C325 C326 1.396 . S
C325 C335 1.510 . S
C326 C322 1.401 . S
C326 C325 1.396 . S
C327 C322 1.499 . S
C327 H328 0.959 . S
C327 H329 0.960 . S
C327 H330 0.961 . S
H328 C327 0.959 . S
H329 C327 0.960 . S
H330 C327 0.961 . S
O331 Co306 1.967 . S
O331 C339 1.258 . S
O332 Co307 1.941 . S
O332 C339 1.266 . S
H333 C335 0.959 . S
H334 C335 0.961 . S
C335 C325 1.510 . S
C335 H333 0.959 . S
C335 H334 0.961 . S
C335 H336 0.960 . S
H336 C335 0.960 . S
H337 N317 0.862 . S
O338 Co306 1.920 . S
O338 C311 1.289 . S
C339 O331 1.258 . S
C339 O332 1.266 . S
Co340 O343 1.970 . S
Co340 N357 1.989 . S
Co340 O365 1.967 . S
Co340 O372 1.920 . S
Co341 O344 1.966 . S
Co341 N350 2.022 . S
Co341 N358 1.993 . S
Co341 O366 1.941 . S
C342 O343 1.258 . S
C342 O344 1.263 . S
O343 Co340 1.970 . S
O343 C342 1.258 . S
O344 Co341 1.966 . S
O344 C342 1.263 . S
C345 O346 1.235 . S
C345 O372 1.289 . S
O346 C345 1.235 . S
C347 C349 1.400 . S
C347 N350 1.351 . S
C347 C352 1.501 . S
C348 C349 1.387 . S
C348 N351 1.341 . S
C349 C347 1.400 . S
C349 C348 1.387 . S
N350 Co341 2.022 . S
N350 C347 1.351 . S
N350 N351 1.365 . S
N351 C348 1.341 . S
N351 N350 1.365 . S
N351 H371 0.862 . S
C352 C347 1.501 . S
C352 H353 0.961 . S
C352 H354 0.961 . S
C352 H355 0.960 . S
H353 C352 0.961 . S
H354 C352 0.961 . S
H355 C352 0.960 . S
C356 N357 1.342 . S
C356 C360 1.401 . S
C356 C361 1.499 . S
N357 Co340 1.989 . S
N357 C356 1.342 . S
N357 N358 1.388 . S
N358 Co341 1.993 . S
N358 N357 1.388 . S
N358 C359 1.346 . S
C359 N358 1.346 . S
C359 C360 1.396 . S
C359 C369 1.510 . S
C360 C356 1.401 . S
C360 C359 1.396 . S
C361 C356 1.499 . S
C361 H362 0.959 . S
C361 H363 0.960 . S
C361 H364 0.961 . S
H362 C361 0.959 . S
H363 C361 0.960 . S
H364 C361 0.961 . S
O365 Co340 1.967 . S
O365 C373 1.258 . S
O366 Co341 1.941 . S
O366 C373 1.266 . S
H367 C369 0.959 . S
H368 C369 0.961 . S
C369 C359 1.510 . S
C369 H367 0.959 . S
C369 H368 0.961 . S
C369 H370 0.960 . S
H370 C369 0.960 . S
H371 N351 0.862 . S
O372 Co340 1.920 . S
O372 C345 1.289 . S
C373 O365 1.258 . S
C373 O366 1.266 . S
Co374 O377 1.970 . S
Co374 N391 1.989 . S
Co374 O399 1.967 . S
Co374 O406 1.920 . S
Co375 O378 1.966 . S
Co375 N384 2.022 . S
Co375 N392 1.993 . S
Co375 O400 1.941 . S
C376 O377 1.258 . S
C376 O378 1.263 . S
O377 Co374 1.970 . S
O377 C376 1.258 . S
O378 Co375 1.966 . S
O378 C376 1.263 . S
C379 O380 1.235 . S
C379 O406 1.289 . S
O380 C379 1.235 . S
C381 C383 1.400 . S
C381 N384 1.351 . S
C381 C386 1.501 . S
C382 C383 1.387 . S
C382 N385 1.341 . S
C383 C381 1.400 . S
C383 C382 1.387 . S
N384 Co375 2.022 . S
N384 C381 1.351 . S
N384 N385 1.365 . S
N385 C382 1.341 . S
N385 N384 1.365 . S
N385 H405 0.862 . S
C386 C381 1.501 . S
C386 H387 0.961 . S
C386 H388 0.961 . S
C386 H389 0.960 . S
H387 C386 0.961 . S
H388 C386 0.961 . S
H389 C386 0.960 . S
C390 N391 1.342 . S
C390 C394 1.401 . S
C390 C395 1.499 . S
N391 Co374 1.989 . S
N391 C390 1.342 . S
N391 N392 1.388 . S
N392 Co375 1.993 . S
N392 N391 1.388 . S
N392 C393 1.346 . S
C393 N392 1.346 . S
C393 C394 1.396 . S
C393 C403 1.510 . S
C394 C390 1.401 . S
C394 C393 1.396 . S
C395 C390 1.499 . S
C395 H396 0.959 . S
C395 H397 0.960 . S
C395 H398 0.961 . S
H396 C395 0.959 . S
H397 C395 0.960 . S
H398 C395 0.961 . S
O399 Co374 1.967 . S
O399 C407 1.258 . S
O400 Co375 1.941 . S
O400 C407 1.266 . S
H401 C403 0.959 . S
H402 C403 0.961 . S
C403 C393 1.510 . S
C403 H401 0.959 . S
C403 H402 0.961 . S
C403 H404 0.960 . S
H404 C403 0.960 . S
H405 N385 0.862 . S
O406 Co374 1.920 . S
O406 C379 1.289 . S
C407 O399 1.258 . S
C407 O400 1.266 . S
Co408 O411 1.970 . S
Co408 N425 1.989 . S
Co408 O433 1.967 . S
Co408 O440 1.920 . S
Co409 O412 1.966 . S
Co409 N418 2.022 . S
Co409 N426 1.993 . S
Co409 O434 1.941 . S
C410 O411 1.258 . S
C410 O412 1.263 . S
O411 Co408 1.970 . S
O411 C410 1.258 . S
O412 Co409 1.966 . S
O412 C410 1.263 . S
C413 O414 1.235 . S
C413 O440 1.289 . S
O414 C413 1.235 . S
C415 C417 1.400 . S
C415 N418 1.351 . S
C415 C420 1.501 . S
C416 C417 1.387 . S
C416 N419 1.341 . S
C417 C415 1.400 . S
C417 C416 1.387 . S
N418 Co409 2.022 . S
N418 C415 1.351 . S
N418 N419 1.365 . S
N419 C416 1.341 . S
N419 N418 1.365 . S
N419 H439 0.862 . S
C420 C415 1.501 . S
C420 H421 0.961 . S
C420 H422 0.961 . S
C420 H423 0.960 . S
H421 C420 0.961 . S
H422 C420 0.961 . S
H423 C420 0.960 . S
C424 N425 1.342 . S
C424 C428 1.401 . S
C424 C429 1.499 . S
N425 Co408 1.989 . S
N425 C424 1.342 . S
N425 N426 1.388 . S
N426 Co409 1.993 . S
N426 N425 1.388 . S
N426 C427 1.346 . S
C427 N426 1.346 . S
C427 C428 1.396 . S
C427 C437 1.510 . S
C428 C424 1.401 . S
C428 C427 1.396 . S
C429 C424 1.499 . S
C429 H430 0.959 . S
C429 H431 0.960 . S
C429 H432 0.961 . S
H430 C429 0.959 . S
H431 C429 0.960 . S
H432 C429 0.961 . S
O433 Co408 1.967 . S
O433 C441 1.258 . S
O434 Co409 1.941 . S
O434 C441 1.266 . S
H435 C437 0.959 . S
H436 C437 0.961 . S
C437 C427 1.510 . S
C437 H435 0.959 . S
C437 H436 0.961 . S
C437 H438 0.960 . S
H438 C437 0.960 . S
H439 N419 0.862 . S
O440 Co408 1.920 . S
O440 C413 1.289 . S
C441 O433 1.258 . S
C441 O434 1.266 . S
Co442 O445 1.970 . S
Co442 N459 1.989 . S
Co442 O467 1.967 . S
Co442 O474 1.920 . S
Co443 O446 1.966 . S
Co443 N452 2.022 . S
Co443 N460 1.993 . S
Co443 O468 1.941 . S
C444 O445 1.258 . S
C444 O446 1.263 . S
O445 Co442 1.970 . S
O445 C444 1.258 . S
O446 Co443 1.966 . S
O446 C444 1.263 . S
C447 O448 1.235 . S
C447 O474 1.289 . S
O448 C447 1.235 . S
C449 C451 1.400 . S
C449 N452 1.351 . S
C449 C454 1.501 . S
C450 C451 1.387 . S
C450 N453 1.341 . S
C451 C449 1.400 . S
C451 C450 1.387 . S
N452 Co443 2.022 . S
N452 C449 1.351 . S
N452 N453 1.365 . S
N453 C450 1.341 . S
N453 N452 1.365 . S
N453 H473 0.862 . S
C454 C449 1.501 . S
C454 H455 0.961 . S
C454 H456 0.961 . S
C454 H457 0.960 . S
H455 C454 0.961 . S
H456 C454 0.961 . S
H457 C454 0.960 . S
C458 N459 1.342 . S
C458 C462 1.401 . S
C458 C463 1.499 . S
N459 Co442 1.989 . S
N459 C458 1.342 . S
N459 N460 1.388 . S
N460 Co443 1.993 . S
N460 N459 1.388 . S
N460 C461 1.346 . S
C461 N460 1.346 . S
C461 C462 1.396 . S
C461 C471 1.510 . S
C462 C458 1.401 . S
C462 C461 1.396 . S
C463 C458 1.499 . S
C463 H464 0.959 . S
C463 H465 0.960 . S
C463 H466 0.961 . S
H464 C463 0.959 . S
H465 C463 0.960 . S
H466 C463 0.961 . S
O467 Co442 1.967 . S
O467 C475 1.258 . S
O468 Co443 1.941 . S
O468 C475 1.266 . S
H469 C471 0.959 . S
H470 C471 0.961 . S
C471 C461 1.510 . S
C471 H469 0.959 . S
C471 H470 0.961 . S
C471 H472 0.960 . S
H472 C471 0.960 . S
H473 N453 0.862 . S
O474 Co442 1.920 . S
O474 C447 1.289 . S
C475 O467 1.258 . S
C475 O468 1.266 . S
Co476 O479 1.970 . S
Co476 N493 1.989 . S
Co476 O501 1.967 . S
Co476 O508 1.920 . S
Co477 O480 1.966 . S
Co477 N486 2.022 . S
Co477 N494 1.993 . S
Co477 O502 1.941 . S
C478 O479 1.258 . S
C478 O480 1.263 . S
O479 Co476 1.970 . S
O479 C478 1.258 . S
O480 Co477 1.966 . S
O480 C478 1.263 . S
C481 O482 1.235 . S
C481 O508 1.289 . S
O482 C481 1.235 . S
C483 C485 1.400 . S
C483 N486 1.351 . S
C483 C488 1.501 . S
C484 C485 1.387 . S
C484 N487 1.341 . S
C485 C483 1.400 . S
C485 C484 1.387 . S
N486 Co477 2.022 . S
N486 C483 1.351 . S
N486 N487 1.365 . S
N487 C484 1.341 . S
N487 N486 1.365 . S
N487 H507 0.862 . S
C488 C483 1.501 . S
C488 H489 0.961 . S
C488 H490 0.961 . S
C488 H491 0.960 . S
H489 C488 0.961 . S
H490 C488 0.961 . S
H491 C488 0.960 . S
C492 N493 1.342 . S
C492 C496 1.401 . S
C492 C497 1.499 . S
N493 Co476 1.989 . S
N493 C492 1.342 . S
N493 N494 1.388 . S
N494 Co477 1.993 . S
N494 N493 1.388 . S
N494 C495 1.346 . S
C495 N494 1.346 . S
C495 C496 1.396 . S
C495 C505 1.510 . S
C496 C492 1.401 . S
C496 C495 1.396 . S
C497 C492 1.499 . S
C497 H498 0.959 . S
C497 H499 0.960 . S
C497 H500 0.961 . S
H498 C497 0.959 . S
H499 C497 0.960 . S
H500 C497 0.961 . S
O501 Co476 1.967 . S
O501 C509 1.258 . S
O502 Co477 1.941 . S
O502 C509 1.266 . S
H503 C505 0.959 . S
H504 C505 0.961 . S
C505 C495 1.510 . S
C505 H503 0.959 . S
C505 H504 0.961 . S
C505 H506 0.960 . S
H506 C505 0.960 . S
H507 N487 0.862 . S
O508 Co476 1.920 . S
O508 C481 1.289 . S
C509 O501 1.258 . S
C509 O502 1.266 . S
Co510 O513 1.970 . S
Co510 N527 1.989 . S
Co510 O535 1.967 . S
Co510 O542 1.920 . S
Co511 O514 1.966 . S
Co511 N520 2.022 . S
Co511 N528 1.993 . S
Co511 O536 1.941 . S
C512 O513 1.258 . S
C512 O514 1.263 . S
O513 Co510 1.970 . S
O513 C512 1.258 . S
O514 Co511 1.966 . S
O514 C512 1.263 . S
C515 O516 1.235 . S
C515 O542 1.289 . S
O516 C515 1.235 . S
C517 C519 1.400 . S
C517 N520 1.351 . S
C517 C522 1.501 . S
C518 C519 1.387 . S
C518 N521 1.341 . S
C519 C517 1.400 . S
C519 C518 1.387 . S
N520 Co511 2.022 . S
N520 C517 1.351 . S
N520 N521 1.365 . S
N521 C518 1.341 . S
N521 N520 1.365 . S
N521 H541 0.862 . S
C522 C517 1.501 . S
C522 H523 0.961 . S
C522 H524 0.961 . S
C522 H525 0.960 . S
H523 C522 0.961 . S
H524 C522 0.961 . S
H525 C522 0.960 . S
C526 N527 1.342 . S
C526 C530 1.401 . S
C526 C531 1.499 . S
N527 Co510 1.989 . S
N527 C526 1.342 . S
N527 N528 1.388 . S
N528 Co511 1.993 . S
N528 N527 1.388 . S
N528 C529 1.346 . S
C529 N528 1.346 . S
C529 C530 1.396 . S
C529 C539 1.510 . S
C530 C526 1.401 . S
C530 C529 1.396 . S
C531 C526 1.499 . S
C531 H532 0.959 . S
C531 H533 0.960 . S
C531 H534 0.961 . S
H532 C531 0.959 . S
H533 C531 0.960 . S
H534 C531 0.961 . S
O535 Co510 1.967 . S
O535 C543 1.258 . S
O536 Co511 1.941 . S
O536 C543 1.266 . S
H537 C539 0.959 . S
H538 C539 0.961 . S
C539 C529 1.510 . S
C539 H537 0.959 . S
C539 H538 0.961 . S
C539 H540 0.960 . S
H540 C539 0.960 . S
H541 N521 0.862 . S
O542 Co510 1.920 . S
O542 C515 1.289 . S
C543 O535 1.258 . S
C543 O536 1.266 . S
H544 C552 0.929 . S
H545 C554 0.930 . S
H546 C556 0.930 . S
H547 C559 0.929 . S
H548 C562 0.930 . S
H549 C564 0.960 . S
H550 C564 0.960 . S
H551 C564 0.960 . S
C552 H544 0.929 . S
C552 C553 1.377 . S
C552 C554 1.384 . S
C553 C552 1.377 . S
C553 C559 1.390 . S
C554 H545 0.930 . S
C554 C552 1.384 . S
C554 C555 1.372 . S
C555 C554 1.372 . S
C555 C556 1.400 . S
C555 C560 1.490 . S
C556 H546 0.930 . S
C556 C555 1.400 . S
C556 C559 1.386 . S
H557 C573 0.930 . S
H558 C574 0.931 . S
C559 H547 0.929 . S
C559 C553 1.390 . S
C559 C556 1.386 . S
C560 C555 1.490 . S
C560 C562 1.395 . S
C560 C563 1.403 . S
H561 C567 0.930 . S
C562 H548 0.930 . S
C562 C560 1.395 . S
C562 C565 1.403 1_556 S
C563 C560 1.403 . S
C563 C564 1.524 . S
C563 C567 1.400 1_556 S
C564 H549 0.960 . S
C564 H550 0.960 . S
C564 H551 0.960 . S
C564 C563 1.524 . S
C565 C562 1.403 1_554 S
C565 C566 1.392 . S
C565 C569 1.495 . S
C566 C565 1.392 . S
C566 C567 1.385 . S
C566 C568 1.478 . S
C567 H561 0.930 . S
C567 C563 1.400 1_554 S
C567 C566 1.385 . S
C568 C566 1.478 . S
C568 C570 1.381 . S
C568 C574 1.383 . S
C569 C565 1.495 . S
C569 H575 0.959 . S
C569 H576 0.961 . S
C569 H577 0.960 . S
C570 C568 1.381 . S
C570 C571 1.394 . S
C570 H578 0.930 . S
C571 C570 1.394 . S
C571 C572 1.383 . S
C571 H579 0.929 . S
C572 C571 1.383 . S
C572 C573 1.377 . S
C573 H557 0.930 . S
C573 C572 1.377 . S
C573 C574 1.379 . S
C574 H558 0.931 . S
C574 C568 1.383 . S
C574 C573 1.379 . S
H575 C569 0.959 . S
H576 C569 0.961 . S
H577 C569 0.960 . S
H578 C570 0.930 . S
H579 C571 0.929 . S
H580 C588 0.929 . S
H581 C590 0.930 . S
H582 C592 0.930 . S
H583 C595 0.929 . S
H584 C598 0.930 . S
H585 C600 0.960 . S
H586 C600 0.960 . S
H587 C600 0.960 . S
C588 H580 0.929 . S
C588 C589 1.377 . S
C588 C590 1.384 . S
C589 C588 1.377 . S
C589 C595 1.390 . S
C590 H581 0.930 . S
C590 C588 1.384 . S
C590 C591 1.372 . S
C591 C590 1.372 . S
C591 C592 1.400 . S
C591 C596 1.490 . S
C592 H582 0.930 . S
C592 C591 1.400 . S
C592 C595 1.386 . S
H593 C609 0.930 . S
H594 C610 0.931 . S
C595 H583 0.929 . S
C595 C589 1.390 . S
C595 C592 1.386 . S
C596 C591 1.490 . S
C596 C598 1.395 . S
C596 C599 1.403 . S
H597 C603 0.930 . S
C598 H584 0.930 . S
C598 C596 1.395 . S
C598 C601 1.403 1_556 S
C599 C596 1.403 . S
C599 C600 1.524 . S
C599 C603 1.400 1_556 S
C600 H585 0.960 . S
C600 H586 0.960 . S
C600 H587 0.960 . S
C600 C599 1.524 . S
C601 C598 1.403 1_554 S
C601 C602 1.392 . S
C601 C605 1.495 . S
C602 C601 1.392 . S
C602 C603 1.385 . S
C602 C604 1.478 . S
C603 H597 0.930 . S
C603 C599 1.400 1_554 S
C603 C602 1.385 . S
C604 C602 1.478 . S
C604 C606 1.381 . S
C604 C610 1.383 . S
C605 C601 1.495 . S
C605 H611 0.959 . S
C605 H612 0.961 . S
C605 H613 0.960 . S
C606 C604 1.381 . S
C606 C607 1.394 . S
C606 H614 0.930 . S
C607 C606 1.394 . S
C607 C608 1.383 . S
C607 H615 0.929 . S
C608 C607 1.383 . S
C608 C609 1.377 . S
C609 H593 0.930 . S
C609 C608 1.377 . S
C609 C610 1.379 . S
C610 H594 0.931 . S
C610 C604 1.383 . S
C610 C609 1.379 . S
H611 C605 0.959 . S
H612 C605 0.961 . S
H613 C605 0.960 . S
H614 C606 0.930 . S
H615 C607 0.929 . S
H616 C624 0.929 . S
H617 C626 0.930 . S
H618 C628 0.930 . S
H619 C631 0.929 . S
H620 C634 0.930 . S
H621 C636 0.960 . S
H622 C636 0.960 . S
H623 C636 0.960 . S
C624 H616 0.929 . S
C624 C625 1.377 . S
C624 C626 1.384 . S
C625 C624 1.377 . S
C625 C631 1.390 . S
C626 H617 0.930 . S
C626 C624 1.384 . S
C626 C627 1.372 . S
C627 C626 1.372 . S
C627 C628 1.400 . S
C627 C632 1.490 . S
C628 H618 0.930 . S
C628 C627 1.400 . S
C628 C631 1.386 . S
H629 C645 0.930 . S
H630 C646 0.931 . S
C631 H619 0.929 . S
C631 C625 1.390 . S
C631 C628 1.386 . S
C632 C627 1.490 . S
C632 C634 1.395 . S
C632 C635 1.403 . S
H633 C639 0.930 . S
C634 H620 0.930 . S
C634 C632 1.395 . S
C634 C637 1.403 1_556 S
C635 C632 1.403 . S
C635 C636 1.524 . S
C635 C639 1.400 1_556 S
C636 H621 0.960 . S
C636 H622 0.960 . S
C636 H623 0.960 . S
C636 C635 1.524 . S
C637 C634 1.403 1_554 S
C637 C638 1.392 . S
C637 C641 1.495 . S
C638 C637 1.392 . S
C638 C639 1.385 . S
C638 C640 1.478 . S
C639 H633 0.930 . S
C639 C635 1.400 1_554 S
C639 C638 1.385 . S
C640 C638 1.478 . S
C640 C642 1.381 . S
C640 C646 1.383 . S
C641 C637 1.495 . S
C641 H647 0.959 . S
C641 H648 0.961 . S
C641 H649 0.960 . S
C642 C640 1.381 . S
C642 C643 1.394 . S
C642 H650 0.930 . S
C643 C642 1.394 . S
C643 C644 1.383 . S
C643 H651 0.929 . S
C644 C643 1.383 . S
C644 C645 1.377 . S
C645 H629 0.930 . S
C645 C644 1.377 . S
C645 C646 1.379 . S
C646 H630 0.931 . S
C646 C640 1.383 . S
C646 C645 1.379 . S
H647 C641 0.959 . S
H648 C641 0.961 . S
H649 C641 0.960 . S
H650 C642 0.930 . S
H651 C643 0.929 . S
H652 C660 0.929 . S
H653 C662 0.930 . S
H654 C664 0.930 . S
H655 C667 0.929 . S
H656 C670 0.930 . S
H657 C672 0.960 . S
H658 C672 0.960 . S
H659 C672 0.960 . S
C660 H652 0.929 . S
C660 C661 1.377 . S
C660 C662 1.384 . S
C661 C660 1.377 . S
C661 C667 1.390 . S
C662 H653 0.930 . S
C662 C660 1.384 . S
C662 C663 1.372 . S
C663 C662 1.372 . S
C663 C664 1.400 . S
C663 C668 1.490 . S
C664 H654 0.930 . S
C664 C663 1.400 . S
C664 C667 1.386 . S
H665 C681 0.930 . S
H666 C682 0.931 . S
C667 H655 0.929 . S
C667 C661 1.390 . S
C667 C664 1.386 . S
C668 C663 1.490 . S
C668 C670 1.395 . S
C668 C671 1.403 . S
H669 C675 0.930 . S
C670 H656 0.930 . S
C670 C668 1.395 . S
C670 C673 1.403 1_556 S
C671 C668 1.403 . S
C671 C672 1.524 . S
C671 C675 1.400 1_556 S
C672 H657 0.960 . S
C672 H658 0.960 . S
C672 H659 0.960 . S
C672 C671 1.524 . S
C673 C670 1.403 1_554 S
C673 C674 1.392 . S
C673 C677 1.495 . S
C674 C673 1.392 . S
C674 C675 1.385 . S
C674 C676 1.478 . S
C675 H669 0.930 . S
C675 C671 1.400 1_554 S
C675 C674 1.385 . S
C676 C674 1.478 . S
C676 C678 1.381 . S
C676 C682 1.383 . S
C677 C673 1.495 . S
C677 H683 0.959 . S
C677 H684 0.961 . S
C677 H685 0.960 . S
C678 C676 1.381 . S
C678 C679 1.394 . S
C678 H686 0.930 . S
C679 C678 1.394 . S
C679 C680 1.383 . S
C679 H687 0.929 . S
C680 C679 1.383 . S
C680 C681 1.377 . S
C681 H665 0.930 . S
C681 C680 1.377 . S
C681 C682 1.379 . S
C682 H666 0.931 . S
C682 C676 1.383 . S
C682 C681 1.379 . S
H683 C677 0.959 . S
H684 C677 0.961 . S
H685 C677 0.960 . S
H686 C678 0.930 . S
H687 C679 0.929 . S
H688 C696 0.929 . S
H689 C698 0.930 . S
H690 C700 0.930 . S
H691 C703 0.929 . S
H692 C706 0.930 . S
H693 C708 0.960 . S
H694 C708 0.960 . S
H695 C708 0.960 . S
C696 H688 0.929 . S
C696 C697 1.377 . S
C696 C698 1.384 . S
C697 C696 1.377 . S
C697 C703 1.390 . S
C698 H689 0.930 . S
C698 C696 1.384 . S
C698 C699 1.372 . S
C699 C698 1.372 . S
C699 C700 1.400 . S
C699 C704 1.490 . S
C700 H690 0.930 . S
C700 C699 1.400 . S
C700 C703 1.386 . S
H701 C717 0.930 . S
H702 C718 0.931 . S
C703 H691 0.929 . S
C703 C697 1.390 . S
C703 C700 1.386 . S
C704 C699 1.490 . S
C704 C706 1.395 . S
C704 C707 1.403 . S
H705 C711 0.930 . S
C706 H692 0.930 . S
C706 C704 1.395 . S
C706 C709 1.403 . S
C707 C704 1.403 . S
C707 C708 1.524 . S
C707 C711 1.400 . S
C708 H693 0.960 . S
C708 H694 0.960 . S
C708 H695 0.960 . S
C708 C707 1.524 . S
C709 C706 1.403 . S
C709 C710 1.392 . S
C709 C713 1.495 . S
C710 C709 1.392 . S
C710 C711 1.385 . S
C710 C712 1.478 . S
C711 H705 0.930 . S
C711 C707 1.400 . S
C711 C710 1.385 . S
C712 C710 1.478 . S
C712 C714 1.381 . S
C712 C718 1.383 . S
C713 C709 1.495 . S
C713 H719 0.959 . S
C713 H720 0.961 . S
C713 H721 0.960 . S
C714 C712 1.381 . S
C714 C715 1.394 . S
C714 H722 0.930 . S
C715 C714 1.394 . S
C715 C716 1.383 . S
C715 H723 0.929 . S
C716 C715 1.383 . S
C716 C717 1.377 . S
C717 H701 0.930 . S
C717 C716 1.377 . S
C717 C718 1.379 . S
C718 H702 0.931 . S
C718 C712 1.383 . S
C718 C717 1.379 . S
H719 C713 0.959 . S
H720 C713 0.961 . S
H721 C713 0.960 . S
H722 C714 0.930 . S
H723 C715 0.929 . S
H724 C732 0.929 . S
H725 C734 0.930 . S
H726 C736 0.930 . S
H727 C739 0.929 . S
H728 C742 0.930 . S
H729 C744 0.960 . S
H730 C744 0.960 . S
H731 C744 0.960 . S
C732 H724 0.929 . S
C732 C733 1.377 . S
C732 C734 1.384 . S
C733 C732 1.377 . S
C733 C739 1.390 . S
C734 H725 0.930 . S
C734 C732 1.384 . S
C734 C735 1.372 . S
C735 C734 1.372 . S
C735 C736 1.400 . S
C735 C740 1.490 . S
C736 H726 0.930 . S
C736 C735 1.400 . S
C736 C739 1.386 . S
H737 C753 0.930 . S
H738 C754 0.931 . S
C739 H727 0.929 . S
C739 C733 1.390 . S
C739 C736 1.386 . S
C740 C735 1.490 . S
C740 C742 1.395 . S
C740 C743 1.403 . S
H741 C747 0.930 . S
C742 H728 0.930 . S
C742 C740 1.395 . S
C742 C745 1.403 . S
C743 C740 1.403 . S
C743 C744 1.524 . S
C743 C747 1.400 . S
C744 H729 0.960 . S
C744 H730 0.960 . S
C744 H731 0.960 . S
C744 C743 1.524 . S
C745 C742 1.403 . S
C745 C746 1.392 . S
C745 C749 1.495 . S
C746 C745 1.392 . S
C746 C747 1.385 . S
C746 C748 1.478 . S
C747 H741 0.930 . S
C747 C743 1.400 . S
C747 C746 1.385 . S
C748 C746 1.478 . S
C748 C750 1.381 . S
C748 C754 1.383 . S
C749 C745 1.495 . S
C749 H755 0.959 . S
C749 H756 0.961 . S
C749 H757 0.960 . S
C750 C748 1.381 . S
C750 C751 1.394 . S
C750 H758 0.930 . S
C751 C750 1.394 . S
C751 C752 1.383 . S
C751 H759 0.929 . S
C752 C751 1.383 . S
C752 C753 1.377 . S
C753 H737 0.930 . S
C753 C752 1.377 . S
C753 C754 1.379 . S
C754 H738 0.931 . S
C754 C748 1.383 . S
C754 C753 1.379 . S
H755 C749 0.959 . S
H756 C749 0.961 . S
H757 C749 0.960 . S
H758 C750 0.930 . S
H759 C751 0.929 . S
H760 C768 0.929 . S
H761 C770 0.930 . S
H762 C772 0.930 . S
H763 C775 0.929 . S
H764 C778 0.930 . S
H765 C780 0.960 . S
H766 C780 0.960 . S
H767 C780 0.960 . S
C768 H760 0.929 . S
C768 C769 1.377 . S
C768 C770 1.384 . S
C769 C768 1.377 . S
C769 C775 1.390 . S
C770 H761 0.930 . S
C770 C768 1.384 . S
C770 C771 1.372 . S
C771 C770 1.372 . S
C771 C772 1.400 . S
C771 C776 1.490 . S
C772 H762 0.930 . S
C772 C771 1.400 . S
C772 C775 1.386 . S
H773 C789 0.930 . S
H774 C790 0.931 . S
C775 H763 0.929 . S
C775 C769 1.390 . S
C775 C772 1.386 . S
C776 C771 1.490 . S
C776 C778 1.395 . S
C776 C779 1.403 . S
H777 C783 0.930 . S
C778 H764 0.930 . S
C778 C776 1.395 . S
C778 C781 1.403 . S
C779 C776 1.403 . S
C779 C780 1.524 . S
C779 C783 1.400 . S
C780 H765 0.960 . S
C780 H766 0.960 . S
C780 H767 0.960 . S
C780 C779 1.524 . S
C781 C778 1.403 . S
C781 C782 1.392 . S
C781 C785 1.495 . S
C782 C781 1.392 . S
C782 C783 1.385 . S
C782 C784 1.478 . S
C783 H777 0.930 . S
C783 C779 1.400 . S
C783 C782 1.385 . S
C784 C782 1.478 . S
C784 C786 1.381 . S
C784 C790 1.383 . S
C785 C781 1.495 . S
C785 H791 0.959 . S
C785 H792 0.961 . S
C785 H793 0.960 . S
C786 C784 1.381 . S
C786 C787 1.394 . S
C786 H794 0.930 . S
C787 C786 1.394 . S
C787 C788 1.383 . S
C787 H795 0.929 . S
C788 C787 1.383 . S
C788 C789 1.377 . S
C789 H773 0.930 . S
C789 C788 1.377 . S
C789 C790 1.379 . S
C790 H774 0.931 . S
C790 C784 1.383 . S
C790 C789 1.379 . S
H791 C785 0.959 . S
H792 C785 0.961 . S
H793 C785 0.960 . S
H794 C786 0.930 . S
H795 C787 0.929 . S
H796 C804 0.929 . S
H797 C806 0.930 . S
H798 C808 0.930 . S
H799 C811 0.929 . S
H800 C814 0.930 . S
H801 C816 0.960 . S
H802 C816 0.960 . S
H803 C816 0.960 . S
C804 H796 0.929 . S
C804 C805 1.377 . S
C804 C806 1.384 . S
C805 C804 1.377 . S
C805 C811 1.390 . S
C806 H797 0.930 . S
C806 C804 1.384 . S
C806 C807 1.372 . S
C807 C806 1.372 . S
C807 C808 1.400 . S
C807 C812 1.490 . S
C808 H798 0.930 . S
C808 C807 1.400 . S
C808 C811 1.386 . S
H809 C825 0.930 . S
H810 C826 0.931 . S
C811 H799 0.929 . S
C811 C805 1.390 . S
C811 C808 1.386 . S
C812 C807 1.490 . S
C812 C814 1.395 . S
C812 C815 1.403 . S
H813 C819 0.930 . S
C814 H800 0.930 . S
C814 C812 1.395 . S
C814 C817 1.403 . S
C815 C812 1.403 . S
C815 C816 1.524 . S
C815 C819 1.400 . S
C816 H801 0.960 . S
C816 H802 0.960 . S
C816 H803 0.960 . S
C816 C815 1.524 . S
C817 C814 1.403 . S
C817 C818 1.392 . S
C817 C821 1.495 . S
C818 C817 1.392 . S
C818 C819 1.385 . S
C818 C820 1.478 . S
C819 H813 0.930 . S
C819 C815 1.400 . S
C819 C818 1.385 . S
C820 C818 1.478 . S
C820 C822 1.381 . S
C820 C826 1.383 . S
C821 C817 1.495 . S
C821 H827 0.959 . S
C821 H828 0.961 . S
C821 H829 0.960 . S
C822 C820 1.381 . S
C822 C823 1.394 . S
C822 H830 0.930 . S
C823 C822 1.394 . S
C823 C824 1.383 . S
C823 H831 0.929 . S
C824 C823 1.383 . S
C824 C825 1.377 . S
C825 H809 0.930 . S
C825 C824 1.377 . S
C825 C826 1.379 . S
C826 H810 0.931 . S
C826 C820 1.383 . S
C826 C825 1.379 . S
H827 C821 0.959 . S
H828 C821 0.961 . S
H829 C821 0.960 . S
H830 C822 0.930 . S
H831 C823 0.929 . S
H832 C840 0.929 . S
H833 C842 0.930 . S
H834 C844 0.930 . S
H835 C847 0.929 . S
H836 C850 0.930 . S
H837 C852 0.960 . S
H838 C852 0.960 . S
H839 C852 0.960 . S
C840 H832 0.929 . S
C840 C841 1.377 . S
C840 C842 1.384 1_565 S
C841 C840 1.377 . S
C841 C847 1.390 1_565 S
C842 H833 0.930 . S
C842 C840 1.384 1_545 S
C842 C843 1.372 . S
C843 C842 1.372 . S
C843 C844 1.400 . S
C843 C848 1.490 . S
C844 H834 0.930 . S
C844 C843 1.400 . S
C844 C847 1.386 . S
H845 C861 0.930 . S
H846 C862 0.931 . S
C847 H835 0.929 . S
C847 C841 1.390 1_545 S
C847 C844 1.386 . S
C848 C843 1.490 . S
C848 C850 1.395 . S
C848 C851 1.403 . S
H849 C855 0.930 . S
C850 H836 0.930 . S
C850 C848 1.395 . S
C850 C853 1.403 . S
C851 C848 1.403 . S
C851 C852 1.524 . S
C851 C855 1.400 . S
C852 H837 0.960 . S
C852 H838 0.960 . S
C852 H839 0.960 . S
C852 C851 1.524 . S
C853 C850 1.403 . S
C853 C854 1.392 . S
C853 C857 1.495 . S
C854 C853 1.392 . S
C854 C855 1.385 . S
C854 C856 1.478 . S
C855 H849 0.930 . S
C855 C851 1.400 . S
C855 C854 1.385 . S
C856 C854 1.478 . S
C856 C858 1.381 . S
C856 C862 1.383 . S
C857 C853 1.495 . S
C857 H863 0.959 . S
C857 H864 0.961 . S
C857 H865 0.960 . S
C858 C856 1.381 . S
C858 C859 1.394 . S
C858 H866 0.930 . S
C859 C858 1.394 . S
C859 C860 1.383 . S
C859 H867 0.929 . S
C860 C859 1.383 . S
C860 C861 1.377 . S
C861 H845 0.930 . S
C861 C860 1.377 . S
C861 C862 1.379 . S
C862 H846 0.931 . S
C862 C856 1.383 . S
C862 C861 1.379 . S
H863 C857 0.959 . S
H864 C857 0.961 . S
H865 C857 0.960 . S
H866 C858 0.930 . S
H867 C859 0.929 . S
H868 C876 0.929 . S
H869 C878 0.930 . S
H870 C880 0.930 . S
H871 C883 0.929 . S
H872 C886 0.930 . S
H873 C888 0.960 . S
H874 C888 0.960 . S
H875 C888 0.960 . S
C876 H868 0.929 . S
C876 C877 1.377 . S
C876 C878 1.384 . S
C877 C876 1.377 . S
C877 C883 1.390 . S
C878 H869 0.930 . S
C878 C876 1.384 . S
C878 C879 1.372 . S
C879 C878 1.372 . S
C879 C880 1.400 . S
C879 C884 1.490 . S
C880 H870 0.930 . S
C880 C879 1.400 . S
C880 C883 1.386 . S
H881 C897 0.917 1_455 S
H882 C898 0.931 . S
C883 H871 0.929 . S
C883 C877 1.390 . S
C883 C880 1.386 . S
C884 C879 1.490 . S
C884 C886 1.395 . S
C884 C887 1.403 . S
H885 C891 0.930 . S
C886 H872 0.930 . S
C886 C884 1.395 . S
C886 C889 1.403 . S
C887 C884 1.403 . S
C887 C888 1.524 . S
C887 C891 1.400 . S
C888 H873 0.960 . S
C888 H874 0.960 . S
C888 H875 0.960 . S
C888 C887 1.524 . S
C889 C886 1.403 . S
C889 C890 1.392 . S
C889 C893 1.495 . S
C890 C889 1.392 . S
C890 C891 1.385 . S
C890 C892 1.478 . S
C891 H885 0.930 . S
C891 C887 1.400 . S
C891 C890 1.385 . S
C892 C890 1.478 . S
C892 C894 1.381 . S
C892 C898 1.383 . S
C893 C889 1.495 . S
C893 H899 0.959 . S
C893 H900 0.961 . S
C893 H901 0.960 . S
C894 C892 1.381 . S
C894 C895 1.394 . S
C894 H902 0.930 . S
C895 C894 1.394 . S
C895 C896 1.383 1_655 S
C895 H903 0.929 . S
C896 C895 1.383 1_455 S
C896 C897 1.377 1_455 S
C897 H881 0.917 1_655 S
C897 C896 1.377 1_655 S
C897 C898 1.379 . S
C898 H882 0.931 . S
C898 C892 1.383 . S
C898 C897 1.379 . S
H899 C893 0.959 . S
H900 C893 0.961 . S
H901 C893 0.960 . S
H902 C894 0.930 . S
H903 C895 0.929 . S
H904 C912 0.929 . S
H905 C914 0.930 . S
H906 C916 0.930 . S
H907 C919 0.929 . S
H908 C922 0.930 . S
H909 C924 0.960 . S
H910 C924 0.960 . S
H911 C924 0.960 . S
C912 H904 0.929 . S
C912 C913 1.377 . S
C912 C914 1.384 1_545 S
C913 C912 1.377 . S
C913 C919 1.390 1_545 S
C914 H905 0.930 . S
C914 C912 1.384 1_565 S
C914 C915 1.372 . S
C915 C914 1.372 . S
C915 C916 1.400 . S
C915 C920 1.490 . S
C916 H906 0.930 . S
C916 C915 1.400 . S
C916 C919 1.386 . S
H917 C933 0.930 . S
H918 C934 0.931 . S
C919 H907 0.929 . S
C919 C913 1.390 1_565 S
C919 C916 1.386 . S
C920 C915 1.490 . S
C920 C922 1.395 . S
C920 C923 1.403 . S
H921 C927 0.930 . S
C922 H908 0.930 . S
C922 C920 1.395 . S
C922 C925 1.403 . S
C923 C920 1.403 . S
C923 C924 1.524 . S
C923 C927 1.400 . S
C924 H909 0.960 . S
C924 H910 0.960 . S
C924 H911 0.960 . S
C924 C923 1.524 . S
C925 C922 1.403 . S
C925 C926 1.392 . S
C925 C929 1.495 . S
C926 C925 1.392 . S
C926 C927 1.385 . S
C926 C928 1.478 . S
C927 H921 0.930 . S
C927 C923 1.400 . S
C927 C926 1.385 . S
C928 C926 1.478 . S
C928 C930 1.381 . S
C928 C934 1.383 . S
C929 C925 1.495 . S
C929 H935 0.959 . S
C929 H936 0.961 . S
C929 H937 0.960 . S
C930 C928 1.381 . S
C930 C931 1.394 . S
C930 H938 0.930 . S
C931 C930 1.394 . S
C931 C932 1.383 . S
C931 H939 0.929 . S
C932 C931 1.383 . S
C932 C933 1.377 . S
C933 H917 0.930 . S
C933 C932 1.377 . S
C933 C934 1.379 . S
C934 H918 0.931 . S
C934 C928 1.383 . S
C934 C933 1.379 . S
H935 C929 0.959 . S
H936 C929 0.961 . S
H937 C929 0.960 . S
H938 C930 0.930 . S
H939 C931 0.929 . S
H940 C948 0.929 . S
H941 C950 0.930 . S
H942 C952 0.930 . S
H943 C955 0.929 . S
H944 C958 0.930 . S
H945 C960 0.960 . S
H946 C960 0.960 . S
H947 C960 0.960 . S
C948 H940 0.929 . S
C948 C949 1.377 . S
C948 C950 1.384 . S
C949 C948 1.377 . S
C949 C955 1.390 . S
C950 H941 0.930 . S
C950 C948 1.384 . S
C950 C951 1.372 . S
C951 C950 1.372 . S
C951 C952 1.400 . S
C951 C956 1.490 . S
C952 H942 0.930 . S
C952 C951 1.400 . S
C952 C955 1.386 . S
H953 C969 0.930 . S
H954 C970 0.931 . S
C955 H943 0.929 . S
C955 C949 1.390 . S
C955 C952 1.386 . S
C956 C951 1.490 . S
C956 C958 1.395 . S
C956 C959 1.403 . S
H957 C963 0.930 . S
C958 H944 0.930 . S
C958 C956 1.395 . S
C958 C961 1.403 . S
C959 C956 1.403 . S
C959 C960 1.524 . S
C959 C963 1.400 . S
C960 H945 0.960 . S
C960 H946 0.960 . S
C960 H947 0.960 . S
C960 C959 1.524 . S
C961 C958 1.403 . S
C961 C962 1.392 . S
C961 C965 1.495 . S
C962 C961 1.392 . S
C962 C963 1.385 . S
C962 C964 1.478 . S
C963 H957 0.930 . S
C963 C959 1.400 . S
C963 C962 1.385 . S
C964 C962 1.478 . S
C964 C966 1.381 . S
C964 C970 1.383 . S
C965 C961 1.495 . S
C965 H971 0.959 . S
C965 H972 0.961 . S
C965 H973 0.960 . S
C966 C964 1.381 . S
C966 C967 1.395 1_455 S
C966 H974 0.930 . S
C967 C966 1.395 1_655 S
C967 C968 1.383 . S
C967 H975 0.929 . S
C968 C967 1.383 . S
C968 C969 1.377 1_655 S
C969 H953 0.930 . S
C969 C968 1.377 1_455 S
C969 C970 1.379 . S
C970 H954 0.931 . S
C970 C964 1.383 . S
C970 C969 1.379 . S
H971 C965 0.959 . S
H972 C965 0.961 . S
H973 C965 0.960 . S
H974 C966 0.930 . S
H975 C967 0.929 . S
H976 C984 0.929 . S
H977 C986 0.930 . S
H978 C988 0.930 . S
H979 C991 0.929 . S
H980 C994 0.930 . S
H981 C996 0.960 . S
H982 C996 0.960 . S
H983 C996 0.960 . S
C984 H976 0.929 . S
C984 C985 1.377 . S
C984 C986 1.384 . S
C985 C984 1.377 . S
C985 C991 1.390 . S
C986 H977 0.930 . S
C986 C984 1.384 . S
C986 C987 1.372 . S
C987 C986 1.372 . S
C987 C988 1.400 . S
C987 C992 1.490 . S
C988 H978 0.930 . S
C988 C987 1.400 . S
C988 C991 1.386 . S
H989 C1005 0.930 . S
H990 C1006 0.931 . S
C991 H979 0.929 . S
C991 C985 1.390 . S
C991 C988 1.386 . S
C992 C987 1.490 . S
C992 C994 1.395 . S
C992 C995 1.403 . S
H993 C999 0.930 . S
C994 H980 0.930 . S
C994 C992 1.395 . S
C994 C997 1.403 . S
C995 C992 1.403 . S
C995 C996 1.524 . S
C995 C999 1.400 . S
C996 H981 0.960 . S
C996 H982 0.960 . S
C996 H983 0.960 . S
C996 C995 1.524 . S
C997 C994 1.403 . S
C997 C998 1.392 . S
C997 C1001 1.495 . S
C998 C997 1.392 . S
C998 C999 1.385 . S
C998 C1000 1.478 . S
C999 H993 0.930 . S
C999 C995 1.400 . S
C999 C998 1.385 . S
C1000 C998 1.478 . S
C1000 C1002 1.381 . S
C1000 C1006 1.383 . S
C1001 C997 1.495 . S
C1001 H1007 0.959 . S
C1001 H1008 0.961 . S
C1001 H1009 0.960 . S
C1002 C1000 1.381 . S
C1002 C1003 1.394 . S
C1002 H1010 0.930 . S
C1003 C1002 1.394 . S
C1003 C1004 1.383 . S
C1003 H1011 0.929 . S
C1004 C1003 1.383 . S
C1004 C1005 1.377 . S
C1005 H989 0.930 . S
C1005 C1004 1.377 . S
C1005 C1006 1.379 . S
C1006 H990 0.931 . S
C1006 C1000 1.383 . S
C1006 C1005 1.379 . S
H1007 C1001 0.959 . S
H1008 C1001 0.961 . S
H1009 C1001 0.960 . S
H1010 C1002 0.930 . S
H1011 C1003 0.929 . S
H1012 C1020 0.929 . S
H1013 C1022 0.930 . S
H1014 C1024 0.930 . S
H1015 C1027 0.929 . S
H1016 C1030 0.930 . S
H1017 C1032 0.960 . S
H1018 C1032 0.960 . S
H1019 C1032 0.960 . S
C1020 H1012 0.929 . S
C1020 C1021 1.377 . S
C1020 C1022 1.384 . S
C1021 C1020 1.377 . S
C1021 C1027 1.390 . S
C1022 H1013 0.930 . S
C1022 C1020 1.384 . S
C1022 C1023 1.372 . S
C1023 C1022 1.372 . S
C1023 C1024 1.400 . S
C1023 C1028 1.490 . S
C1024 H1014 0.930 . S
C1024 C1023 1.400 . S
C1024 C1027 1.386 . S
H1025 C1041 0.930 . S
H1026 C1042 0.931 . S
C1027 H1015 0.929 . S
C1027 C1021 1.390 . S
C1027 C1024 1.386 . S
C1028 C1023 1.490 . S
C1028 C1030 1.395 . S
C1028 C1031 1.403 . S
H1029 C1035 0.930 . S
C1030 H1016 0.930 . S
C1030 C1028 1.395 . S
C1030 C1033 1.403 . S
C1031 C1028 1.403 . S
C1031 C1032 1.524 . S
C1031 C1035 1.400 . S
C1032 H1017 0.960 . S
C1032 H1018 0.960 . S
C1032 H1019 0.960 . S
C1032 C1031 1.524 . S
C1033 C1030 1.403 . S
C1033 C1034 1.392 . S
C1033 C1037 1.495 . S
C1034 C1033 1.392 . S
C1034 C1035 1.385 . S
C1034 C1036 1.478 . S
C1035 H1029 0.930 . S
C1035 C1031 1.400 . S
C1035 C1034 1.385 . S
C1036 C1034 1.478 . S
C1036 C1038 1.381 . S
C1036 C1042 1.383 . S
C1037 C1033 1.495 . S
C1037 H1043 0.959 . S
C1037 H1044 0.961 . S
C1037 H1045 0.960 . S
C1038 C1036 1.381 . S
C1038 C1039 1.394 . S
C1038 H1046 0.930 . S
C1039 C1038 1.394 . S
C1039 C1040 1.383 . S
C1039 H1047 0.929 . S
C1040 C1039 1.383 . S
C1040 C1041 1.377 . S
C1041 H1025 0.930 . S
C1041 C1040 1.377 . S
C1041 C1042 1.379 . S
C1042 H1026 0.931 . S
C1042 C1036 1.383 . S
C1042 C1041 1.379 . S
H1043 C1037 0.959 . S
H1044 C1037 0.961 . S
H1045 C1037 0.960 . S
H1046 C1038 0.930 . S
H1047 C1039 0.929 . S
H1048 C1056 0.929 . S
H1049 C1058 0.930 . S
H1050 C1060 0.930 . S
H1051 C1063 0.929 . S
H1052 C1066 0.930 . S
H1053 C1068 0.960 . S
H1054 C1068 0.960 . S
H1055 C1068 0.960 . S
C1056 H1048 0.929 . S
C1056 C1057 1.377 . S
C1056 C1058 1.384 . S
C1057 C1056 1.377 . S
C1057 C1063 1.390 . S
C1058 H1049 0.930 . S
C1058 C1056 1.384 . S
C1058 C1059 1.372 . S
C1059 C1058 1.372 . S
C1059 C1060 1.400 . S
C1059 C1064 1.490 . S
C1060 H1050 0.930 . S
C1060 C1059 1.400 . S
C1060 C1063 1.386 . S
H1061 C1077 0.930 . S
H1062 C1078 0.931 . S
C1063 H1051 0.929 . S
C1063 C1057 1.390 . S
C1063 C1060 1.386 . S
C1064 C1059 1.490 . S
C1064 C1066 1.395 . S
C1064 C1067 1.403 . S
H1065 C1071 0.930 . S
C1066 H1052 0.930 . S
C1066 C1064 1.395 . S
C1066 C1069 1.403 . S
C1067 C1064 1.403 . S
C1067 C1068 1.524 . S
C1067 C1071 1.400 . S
C1068 H1053 0.960 . S
C1068 H1054 0.960 . S
C1068 H1055 0.960 . S
C1068 C1067 1.524 . S
C1069 C1066 1.403 . S
C1069 C1070 1.392 . S
C1069 C1073 1.495 . S
C1070 C1069 1.392 . S
C1070 C1071 1.385 . S
C1070 C1072 1.478 . S
C1071 H1065 0.930 . S
C1071 C1067 1.400 . S
C1071 C1070 1.385 . S
C1072 C1070 1.478 . S
C1072 C1074 1.381 . S
C1072 C1078 1.383 . S
C1073 C1069 1.495 . S
C1073 H1079 0.959 . S
C1073 H1080 0.961 . S
C1073 H1081 0.960 . S
C1074 C1072 1.381 . S
C1074 C1075 1.394 . S
C1074 H1082 0.930 . S
C1075 C1074 1.394 . S
C1075 C1076 1.383 . S
C1075 H1083 0.929 . S
C1076 C1075 1.383 . S
C1076 C1077 1.377 . S
C1077 H1061 0.930 . S
C1077 C1076 1.377 . S
C1077 C1078 1.379 . S
C1078 H1062 0.931 . S
C1078 C1072 1.383 . S
C1078 C1077 1.379 . S
H1079 C1073 0.959 . S
H1080 C1073 0.961 . S
H1081 C1073 0.960 . S
H1082 C1074 0.930 . S
H1083 C1075 0.929 . S
H1084 C1092 0.929 . S
H1085 C1094 0.930 . S
H1086 C1096 0.930 . S
H1087 C1099 0.929 . S
H1088 C1102 0.930 . S
H1089 C1104 0.960 . S
H1090 C1104 0.960 . S
H1091 C1104 0.960 . S
C1092 H1084 0.929 . S
C1092 C1093 1.377 . S
C1092 C1094 1.384 . S
C1093 C1092 1.377 . S
C1093 C1099 1.390 . S
C1094 H1085 0.930 . S
C1094 C1092 1.384 . S
C1094 C1095 1.372 . S
C1095 C1094 1.372 . S
C1095 C1096 1.400 . S
C1095 C1100 1.490 . S
C1096 H1086 0.930 . S
C1096 C1095 1.400 . S
C1096 C1099 1.386 . S
H1097 C1113 0.930 . S
H1098 C1114 0.931 . S
C1099 H1087 0.929 . S
C1099 C1093 1.390 . S
C1099 C1096 1.386 . S
C1100 C1095 1.490 . S
C1100 C1102 1.395 . S
C1100 C1103 1.403 . S
H1101 C1107 0.930 . S
C1102 H1088 0.930 . S
C1102 C1100 1.395 . S
C1102 C1105 1.403 . S
C1103 C1100 1.403 . S
C1103 C1104 1.524 . S
C1103 C1107 1.400 . S
C1104 H1089 0.960 . S
C1104 H1090 0.960 . S
C1104 H1091 0.960 . S
C1104 C1103 1.524 . S
C1105 C1102 1.403 . S
C1105 C1106 1.392 . S
C1105 C1109 1.495 . S
C1106 C1105 1.392 . S
C1106 C1107 1.385 . S
C1106 C1108 1.478 . S
C1107 H1101 0.930 . S
C1107 C1103 1.400 . S
C1107 C1106 1.385 . S
C1108 C1106 1.478 . S
C1108 C1110 1.381 . S
C1108 C1114 1.383 . S
C1109 C1105 1.495 . S
C1109 H1115 0.959 . S
C1109 H1116 0.961 . S
C1109 H1117 0.960 . S
C1110 C1108 1.381 . S
C1110 C1111 1.394 . S
C1110 H1118 0.930 . S
C1111 C1110 1.394 . S
C1111 C1112 1.383 . S
C1111 H1119 0.929 . S
C1112 C1111 1.383 . S
C1112 C1113 1.377 . S
C1113 H1097 0.930 . S
C1113 C1112 1.377 . S
C1113 C1114 1.379 . S
C1114 H1098 0.931 . S
C1114 C1108 1.383 . S
C1114 C1113 1.379 . S
H1115 C1109 0.959 . S
H1116 C1109 0.961 . S
H1117 C1109 0.960 . S
H1118 C1110 0.930 . S
H1119 C1111 0.929 . S
H1120 C1128 0.929 . S
H1121 C1130 0.930 . S
H1122 C1132 0.930 . S
H1123 C1135 0.929 . S
H1124 C1138 0.930 . S
H1125 C1140 0.960 . S
H1126 C1140 0.960 . S
H1127 C1140 0.960 . S
C1128 H1120 0.929 . S
C1128 C1129 1.377 . S
C1128 C1130 1.384 . S
C1129 C1128 1.377 . S
C1129 C1135 1.390 . S
C1130 H1121 0.930 . S
C1130 C1128 1.384 . S
C1130 C1131 1.372 . S
C1131 C1130 1.372 . S
C1131 C1132 1.400 . S
C1131 C1136 1.490 . S
C1132 H1122 0.930 . S
C1132 C1131 1.400 . S
C1132 C1135 1.386 . S
H1133 C1149 0.930 . S
H1134 C1150 0.931 . S
C1135 H1123 0.929 . S
C1135 C1129 1.390 . S
C1135 C1132 1.386 . S
C1136 C1131 1.490 . S
C1136 C1138 1.395 . S
C1136 C1139 1.403 . S
H1137 C1143 0.930 . S
C1138 H1124 0.930 . S
C1138 C1136 1.395 . S
C1138 C1141 1.403 . S
C1139 C1136 1.403 . S
C1139 C1140 1.524 . S
C1139 C1143 1.400 . S
C1140 H1125 0.960 . S
C1140 H1126 0.960 . S
C1140 H1127 0.960 . S
C1140 C1139 1.524 . S
C1141 C1138 1.403 . S
C1141 C1142 1.392 . S
C1141 C1145 1.495 . S
C1142 C1141 1.392 . S
C1142 C1143 1.385 . S
C1142 C1144 1.478 . S
C1143 H1137 0.930 . S
C1143 C1139 1.400 . S
C1143 C1142 1.385 . S
C1144 C1142 1.478 . S
C1144 C1146 1.381 . S
C1144 C1150 1.383 . S
C1145 C1141 1.495 . S
C1145 H1151 0.959 . S
C1145 H1152 0.961 . S
C1145 H1153 0.960 . S
C1146 C1144 1.381 . S
C1146 C1147 1.394 . S
C1146 H1154 0.930 . S
C1147 C1146 1.394 . S
C1147 C1148 1.383 1_565 S
C1147 H1155 0.929 . S
C1148 C1147 1.383 1_545 S
C1148 C1149 1.377 . S
C1149 H1133 0.930 . S
C1149 C1148 1.377 . S
C1149 C1150 1.379 1_545 S
C1150 H1134 0.931 . S
C1150 C1144 1.383 . S
C1150 C1149 1.379 1_565 S
H1151 C1145 0.959 . S
H1152 C1145 0.961 . S
H1153 C1145 0.960 . S
H1154 C1146 0.930 . S
H1155 C1147 0.929 . S
H1156 C1164 0.929 . S
H1157 C1166 0.930 . S
H1158 C1168 0.930 . S
H1159 C1171 0.929 . S
H1160 C1174 0.930 . S
H1161 C1176 0.960 . S
H1162 C1176 0.960 . S
H1163 C1176 0.960 . S
C1164 H1156 0.929 . S
C1164 C1165 1.377 . S
C1164 C1166 1.384 . S
C1165 C1164 1.377 . S
C1165 C1171 1.390 . S
C1166 H1157 0.930 . S
C1166 C1164 1.384 . S
C1166 C1167 1.372 . S
C1167 C1166 1.372 . S
C1167 C1168 1.400 . S
C1167 C1172 1.490 . S
C1168 H1158 0.930 . S
C1168 C1167 1.400 . S
C1168 C1171 1.386 . S
H1169 C1185 0.930 . S
H1170 C1186 0.931 . S
C1171 H1159 0.929 . S
C1171 C1165 1.390 . S
C1171 C1168 1.386 . S
C1172 C1167 1.490 . S
C1172 C1174 1.395 . S
C1172 C1175 1.403 . S
H1173 C1179 0.930 . S
C1174 H1160 0.930 . S
C1174 C1172 1.395 . S
C1174 C1177 1.403 . S
C1175 C1172 1.403 . S
C1175 C1176 1.524 . S
C1175 C1179 1.400 . S
C1176 H1161 0.960 . S
C1176 H1162 0.960 . S
C1176 H1163 0.960 . S
C1176 C1175 1.524 . S
C1177 C1174 1.403 . S
C1177 C1178 1.392 . S
C1177 C1181 1.495 . S
C1178 C1177 1.392 . S
C1178 C1179 1.385 . S
C1178 C1180 1.478 . S
C1179 H1173 0.930 . S
C1179 C1175 1.400 . S
C1179 C1178 1.385 . S
C1180 C1178 1.478 . S
C1180 C1182 1.381 . S
C1180 C1186 1.383 . S
C1181 C1177 1.495 . S
C1181 H1187 0.959 . S
C1181 H1188 0.961 . S
C1181 H1189 0.960 . S
C1182 C1180 1.381 . S
C1182 C1183 1.415 . S
C1182 H1190 0.930 . S
C1183 C1182 1.415 . S
C1183 C1184 1.380 1_455 S
C1183 H1191 0.912 1_455 S
C1184 C1183 1.380 1_655 S
C1184 C1185 1.377 1_655 S
C1185 H1169 0.930 . S
C1185 C1184 1.377 1_455 S
C1185 C1186 1.379 . S
C1186 H1170 0.931 . S
C1186 C1180 1.383 . S
C1186 C1185 1.379 . S
H1187 C1181 0.959 . S
H1188 C1181 0.961 . S
H1189 C1181 0.960 . S
H1190 C1182 0.930 . S
H1191 C1183 0.912 1_655 S
H1192 C1200 0.929 . S
H1193 C1202 0.930 . S
H1194 C1204 0.930 . S
H1195 C1207 0.929 1_565 S
H1196 C1210 0.930 . S
H1197 C1212 0.960 . S
H1198 C1212 0.960 . S
H1199 C1212 0.960 . S
C1200 H1192 0.929 . S
C1200 C1201 1.377 1_545 S
C1200 C1202 1.384 . S
C1201 C1200 1.377 1_565 S
C1201 C1207 1.390 1_565 S
C1202 H1193 0.930 . S
C1202 C1200 1.384 . S
C1202 C1203 1.372 . S
C1203 C1202 1.372 . S
C1203 C1204 1.400 . S
C1203 C1208 1.490 . S
C1204 H1194 0.930 . S
C1204 C1203 1.400 . S
C1204 C1207 1.386 . S
H1205 C1221 0.930 . S
H1206 C1222 0.931 . S
C1207 H1195 0.929 1_545 S
C1207 C1201 1.390 1_545 S
C1207 C1204 1.386 . S
C1208 C1203 1.490 . S
C1208 C1210 1.395 . S
C1208 C1211 1.403 . S
H1209 C1215 0.930 . S
C1210 H1196 0.930 . S
C1210 C1208 1.395 . S
C1210 C1213 1.403 . S
C1211 C1208 1.403 . S
C1211 C1212 1.524 . S
C1211 C1215 1.400 . S
C1212 H1197 0.960 . S
C1212 H1198 0.960 . S
C1212 H1199 0.960 . S
C1212 C1211 1.524 . S
C1213 C1210 1.403 . S
C1213 C1214 1.392 . S
C1213 C1217 1.495 . S
C1214 C1213 1.392 . S
C1214 C1215 1.385 . S
C1214 C1216 1.478 . S
C1215 H1209 0.930 . S
C1215 C1211 1.400 . S
C1215 C1214 1.385 . S
C1216 C1214 1.478 . S
C1216 C1218 1.381 . S
C1216 C1222 1.383 . S
C1217 C1213 1.495 . S
C1217 H1223 0.959 . S
C1217 H1224 0.961 . S
C1217 H1225 0.960 . S
C1218 C1216 1.381 . S
C1218 C1219 1.394 . S
C1218 H1226 0.930 . S
C1219 C1218 1.394 . S
C1219 C1220 1.383 . S
C1219 H1227 0.929 . S
C1220 C1219 1.383 . S
C1220 C1221 1.377 . S
C1221 H1205 0.930 . S
C1221 C1220 1.377 . S
C1221 C1222 1.379 . S
C1222 H1206 0.931 . S
C1222 C1216 1.383 . S
C1222 C1221 1.379 . S
H1223 C1217 0.959 . S
H1224 C1217 0.961 . S
H1225 C1217 0.960 . S
H1226 C1218 0.930 . S
H1227 C1219 0.929 . S
H1228 C1236 0.929 . S
H1229 C1238 0.930 . S
H1230 C1240 0.930 . S
H1231 C1243 0.929 . S
H1232 C1246 0.930 . S
H1233 C1248 0.960 . S
H1234 C1248 0.960 . S
H1235 C1248 0.960 . S
C1236 H1228 0.929 . S
C1236 C1237 1.377 . S
C1236 C1238 1.384 . S
C1237 C1236 1.377 . S
C1237 C1243 1.390 . S
C1238 H1229 0.930 . S
C1238 C1236 1.384 . S
C1238 C1239 1.372 . S
C1239 C1238 1.372 . S
C1239 C1240 1.400 . S
C1239 C1244 1.490 . S
C1240 H1230 0.930 . S
C1240 C1239 1.400 . S
C1240 C1243 1.386 . S
H1241 C1257 0.930 . S
H1242 C1258 0.931 . S
C1243 H1231 0.929 . S
C1243 C1237 1.390 . S
C1243 C1240 1.386 . S
C1244 C1239 1.490 . S
C1244 C1246 1.395 . S
C1244 C1247 1.403 . S
H1245 C1251 0.930 . S
C1246 H1232 0.930 . S
C1246 C1244 1.395 . S
C1246 C1249 1.403 . S
C1247 C1244 1.403 . S
C1247 C1248 1.524 . S
C1247 C1251 1.400 . S
C1248 H1233 0.960 . S
C1248 H1234 0.960 . S
C1248 H1235 0.960 . S
C1248 C1247 1.524 . S
C1249 C1246 1.403 . S
C1249 C1250 1.392 . S
C1249 C1253 1.495 . S
C1250 C1249 1.392 . S
C1250 C1251 1.385 . S
C1250 C1252 1.478 . S
C1251 H1245 0.930 . S
C1251 C1247 1.400 . S
C1251 C1250 1.385 . S
C1252 C1250 1.478 . S
C1252 C1254 1.381 . S
C1252 C1258 1.383 . S
C1253 C1249 1.495 . S
C1253 H1259 0.959 . S
C1253 H1260 0.961 . S
C1253 H1261 0.960 . S
C1254 C1252 1.381 . S
C1254 C1255 1.394 . S
C1254 H1262 0.930 . S
C1255 C1254 1.394 . S
C1255 C1256 1.383 1_655 S
C1255 H1263 0.929 1_655 S
C1256 C1255 1.383 1_455 S
C1256 C1257 1.377 1_455 S
C1257 H1241 0.930 . S
C1257 C1256 1.377 1_655 S
C1257 C1258 1.379 . S
C1258 H1242 0.931 . S
C1258 C1252 1.383 . S
C1258 C1257 1.379 . S
H1259 C1253 0.959 . S
H1260 C1253 0.961 . S
H1261 C1253 0.960 . S
H1262 C1254 0.930 . S
H1263 C1255 0.929 1_455 S
H1264 C1272 0.929 . S
H1265 C1274 0.930 . S
H1266 C1276 0.930 . S
H1267 C1279 0.929 . S
H1268 C1282 0.930 . S
H1269 C1284 0.960 . S
H1270 C1284 0.960 . S
H1271 C1284 0.960 . S
C1272 H1264 0.929 . S
C1272 C1273 1.377 . S
C1272 C1274 1.384 . S
C1273 C1272 1.377 . S
C1273 C1279 1.390 . S
C1274 H1265 0.930 . S
C1274 C1272 1.384 . S
C1274 C1275 1.372 . S
C1275 C1274 1.372 . S
C1275 C1276 1.400 . S
C1275 C1280 1.490 . S
C1276 H1266 0.930 . S
C1276 C1275 1.400 . S
C1276 C1279 1.386 . S
H1277 C1293 0.930 . S
H1278 C1294 0.931 . S
C1279 H1267 0.929 . S
C1279 C1273 1.390 . S
C1279 C1276 1.386 . S
C1280 C1275 1.490 . S
C1280 C1282 1.395 . S
C1280 C1283 1.403 . S
H1281 C1287 0.930 . S
C1282 H1268 0.930 . S
C1282 C1280 1.395 . S
C1282 C1285 1.403 . S
C1283 C1280 1.403 . S
C1283 C1284 1.524 . S
C1283 C1287 1.400 . S
C1284 H1269 0.960 . S
C1284 H1270 0.960 . S
C1284 H1271 0.960 . S
C1284 C1283 1.524 . S
C1285 C1282 1.403 . S
C1285 C1286 1.392 . S
C1285 C1289 1.495 . S
C1286 C1285 1.392 . S
C1286 C1287 1.385 . S
C1286 C1288 1.478 . S
C1287 H1281 0.930 . S
C1287 C1283 1.400 . S
C1287 C1286 1.385 . S
C1288 C1286 1.478 . S
C1288 C1290 1.381 . S
C1288 C1294 1.383 . S
C1289 C1285 1.495 . S
C1289 H1295 0.959 . S
C1289 H1296 0.961 . S
C1289 H1297 0.960 . S
C1290 C1288 1.381 . S
C1290 C1291 1.394 . S
C1290 H1298 0.930 . S
C1291 C1290 1.394 . S
C1291 C1292 1.383 . S
C1291 H1299 0.929 . S
C1292 C1291 1.383 . S
C1292 C1293 1.377 . S
C1293 H1277 0.930 . S
C1293 C1292 1.377 . S
C1293 C1294 1.379 . S
C1294 H1278 0.931 . S
C1294 C1288 1.383 . S
C1294 C1293 1.379 . S
H1295 C1289 0.959 . S
H1296 C1289 0.961 . S
H1297 C1289 0.960 . S
H1298 C1290 0.930 . S
H1299 C1291 0.929 . S
H1300 C1308 0.929 . S
H1301 C1310 0.930 . S
H1302 C1312 0.930 . S
H1303 C1315 0.929 . S
H1304 C1318 0.930 . S
H1305 C1320 0.960 . S
H1306 C1320 0.960 . S
H1307 C1320 0.960 . S
C1308 H1300 0.929 . S
C1308 C1309 1.377 . S
C1308 C1310 1.384 . S
C1309 C1308 1.377 . S
C1309 C1315 1.390 . S
C1310 H1301 0.930 . S
C1310 C1308 1.384 . S
C1310 C1311 1.372 . S
C1311 C1310 1.372 . S
C1311 C1312 1.400 . S
C1311 C1316 1.490 . S
C1312 H1302 0.930 . S
C1312 C1311 1.400 . S
C1312 C1315 1.386 . S
H1313 C1329 0.930 . S
H1314 C1330 0.931 . S
C1315 H1303 0.929 . S
C1315 C1309 1.390 . S
C1315 C1312 1.386 . S
C1316 C1311 1.490 . S
C1316 C1318 1.395 . S
C1316 C1319 1.403 . S
H1317 C1323 0.930 . S
C1318 H1304 0.930 . S
C1318 C1316 1.395 . S
C1318 C1321 1.403 . S
C1319 C1316 1.403 . S
C1319 C1320 1.524 . S
C1319 C1323 1.400 . S
C1320 H1305 0.960 . S
C1320 H1306 0.960 . S
C1320 H1307 0.960 . S
C1320 C1319 1.524 . S
C1321 C1318 1.403 . S
C1321 C1322 1.392 . S
C1321 C1325 1.495 . S
C1322 C1321 1.392 . S
C1322 C1323 1.385 . S
C1322 C1324 1.478 . S
C1323 H1317 0.930 . S
C1323 C1319 1.400 . S
C1323 C1322 1.385 . S
C1324 C1322 1.478 . S
C1324 C1326 1.381 . S
C1324 C1330 1.383 . S
C1325 C1321 1.495 . S
C1325 H1331 0.959 . S
C1325 H1332 0.961 . S
C1325 H1333 0.960 . S
C1326 C1324 1.381 . S
C1326 C1327 1.394 . S
C1326 H1334 0.930 . S
C1327 C1326 1.394 . S
C1327 C1328 1.383 . S
C1327 H1335 0.929 . S
C1328 C1327 1.383 . S
C1328 C1329 1.377 . S
C1329 H1313 0.930 . S
C1329 C1328 1.377 . S
C1329 C1330 1.379 . S
C1330 H1314 0.931 . S
C1330 C1324 1.383 . S
C1330 C1329 1.379 . S
H1331 C1325 0.959 . S
H1332 C1325 0.961 . S
H1333 C1325 0.960 . S
H1334 C1326 0.930 . S
H1335 C1327 0.929 . S
H1336 C1344 0.929 . S
H1337 C1346 0.930 . S
H1338 C1348 0.930 . S
H1339 C1351 0.929 . S
H1340 C1354 0.930 . S
H1341 C1356 0.960 . S
H1342 C1356 0.960 . S
H1343 C1356 0.960 . S
C1344 H1336 0.929 . S
C1344 C1345 1.377 . S
C1344 C1346 1.384 . S
C1345 C1344 1.377 . S
C1345 C1351 1.390 . S
C1346 H1337 0.930 . S
C1346 C1344 1.384 . S
C1346 C1347 1.372 . S
C1347 C1346 1.372 . S
C1347 C1348 1.400 . S
C1347 C1352 1.490 . S
C1348 H1338 0.930 . S
C1348 C1347 1.400 . S
C1348 C1351 1.386 . S
H1349 C1365 0.930 . S
H1350 C1366 0.931 . S
C1351 H1339 0.929 . S
C1351 C1345 1.390 . S
C1351 C1348 1.386 . S
C1352 C1347 1.490 . S
C1352 C1354 1.395 . S
C1352 C1355 1.403 . S
H1353 C1359 0.930 . S
C1354 H1340 0.930 . S
C1354 C1352 1.395 . S
C1354 C1357 1.403 . S
C1355 C1352 1.403 . S
C1355 C1356 1.524 . S
C1355 C1359 1.400 . S
C1356 H1341 0.960 . S
C1356 H1342 0.960 . S
C1356 H1343 0.960 . S
C1356 C1355 1.524 . S
C1357 C1354 1.403 . S
C1357 C1358 1.392 . S
C1357 C1361 1.495 . S
C1358 C1357 1.392 . S
C1358 C1359 1.385 . S
C1358 C1360 1.478 . S
C1359 H1353 0.930 . S
C1359 C1355 1.400 . S
C1359 C1358 1.385 . S
C1360 C1358 1.478 . S
C1360 C1362 1.381 . S
C1360 C1366 1.383 . S
C1361 C1357 1.495 . S
C1361 H1367 0.959 . S
C1361 H1368 0.961 . S
C1361 H1369 0.960 . S
C1362 C1360 1.381 . S
C1362 C1363 1.394 . S
C1362 H1370 0.930 . S
C1363 C1362 1.394 . S
C1363 C1364 1.383 . S
C1363 H1371 0.929 . S
C1364 C1363 1.383 . S
C1364 C1365 1.377 . S
C1365 H1349 0.930 . S
C1365 C1364 1.377 . S
C1365 C1366 1.379 . S
C1366 H1350 0.931 . S
C1366 C1360 1.383 . S
C1366 C1365 1.379 . S
H1367 C1361 0.959 . S
H1368 C1361 0.961 . S
H1369 C1361 0.960 . S
H1370 C1362 0.930 . S
H1371 C1363 0.929 . S
H1372 C1380 0.929 . S
H1373 C1382 0.930 . S
H1374 C1384 0.930 . S
H1375 C1387 0.929 . S
H1376 C1390 0.930 . S
H1377 C1392 0.960 . S
H1378 C1392 0.960 . S
H1379 C1392 0.960 . S
C1380 H1372 0.929 . S
C1380 C1381 1.377 . S
C1380 C1382 1.384 . S
C1381 C1380 1.377 . S
C1381 C1387 1.390 . S
C1382 H1373 0.930 . S
C1382 C1380 1.384 . S
C1382 C1383 1.372 . S
C1383 C1382 1.372 . S
C1383 C1384 1.400 . S
C1383 C1388 1.490 . S
C1384 H1374 0.930 . S
C1384 C1383 1.400 . S
C1384 C1387 1.386 . S
H1385 C1401 0.930 . S
H1386 C1402 0.931 . S
C1387 H1375 0.929 . S
C1387 C1381 1.390 . S
C1387 C1384 1.386 . S
C1388 C1383 1.490 . S
C1388 C1390 1.395 . S
C1388 C1391 1.403 . S
H1389 C1395 0.930 . S
C1390 H1376 0.930 . S
C1390 C1388 1.395 . S
C1390 C1393 1.403 . S
C1391 C1388 1.403 . S
C1391 C1392 1.524 . S
C1391 C1395 1.400 . S
C1392 H1377 0.960 . S
C1392 H1378 0.960 . S
C1392 H1379 0.960 . S
C1392 C1391 1.524 . S
C1393 C1390 1.403 . S
C1393 C1394 1.392 . S
C1393 C1397 1.495 . S
C1394 C1393 1.392 . S
C1394 C1395 1.385 . S
C1394 C1396 1.478 . S
C1395 H1389 0.930 . S
C1395 C1391 1.400 . S
C1395 C1394 1.385 . S
C1396 C1394 1.478 . S
C1396 C1398 1.381 . S
C1396 C1402 1.383 . S
C1397 C1393 1.495 . S
C1397 H1403 0.959 . S
C1397 H1404 0.961 . S
C1397 H1405 0.960 . S
C1398 C1396 1.381 . S
C1398 C1399 1.394 . S
C1398 H1406 0.930 . S
C1399 C1398 1.394 . S
C1399 C1400 1.383 . S
C1399 H1407 0.929 . S
C1400 C1399 1.383 . S
C1400 C1401 1.377 . S
C1401 H1385 0.930 . S
C1401 C1400 1.377 . S
C1401 C1402 1.379 . S
C1402 H1386 0.931 . S
C1402 C1396 1.383 . S
C1402 C1401 1.379 . S
H1403 C1397 0.959 . S
H1404 C1397 0.961 . S
H1405 C1397 0.960 . S
H1406 C1398 0.930 . S
H1407 C1399 0.929 . S
H1408 C1416 0.929 . S
H1409 C1418 0.930 . S
H1410 C1420 0.930 . S
H1411 C1423 0.929 . S
H1412 C1426 0.930 . S
H1413 C1428 0.960 . S
H1414 C1428 0.960 . S
H1415 C1428 0.960 . S
C1416 H1408 0.929 . S
C1416 C1417 1.377 . S
C1416 C1418 1.384 . S
C1417 C1416 1.377 . S
C1417 C1423 1.390 . S
C1418 H1409 0.930 . S
C1418 C1416 1.384 . S
C1418 C1419 1.372 . S
C1419 C1418 1.372 . S
C1419 C1420 1.400 . S
C1419 C1424 1.490 . S
C1420 H1410 0.930 . S
C1420 C1419 1.400 . S
C1420 C1423 1.386 . S
H1421 C1437 0.930 . S
H1422 C1438 0.931 . S
C1423 H1411 0.929 . S
C1423 C1417 1.390 . S
C1423 C1420 1.386 . S
C1424 C1419 1.490 . S
C1424 C1426 1.395 . S
C1424 C1427 1.403 . S
H1425 C1431 0.930 . S
C1426 H1412 0.930 . S
C1426 C1424 1.395 . S
C1426 C1429 1.403 . S
C1427 C1424 1.403 . S
C1427 C1428 1.524 . S
C1427 C1431 1.400 . S
C1428 H1413 0.960 . S
C1428 H1414 0.960 . S
C1428 H1415 0.960 . S
C1428 C1427 1.524 . S
C1429 C1426 1.403 . S
C1429 C1430 1.392 . S
C1429 C1433 1.495 . S
C1430 C1429 1.392 . S
C1430 C1431 1.385 . S
C1430 C1432 1.478 . S
C1431 H1425 0.930 . S
C1431 C1427 1.400 . S
C1431 C1430 1.385 . S
C1432 C1430 1.478 . S
C1432 C1434 1.381 . S
C1432 C1438 1.383 . S
C1433 C1429 1.495 . S
C1433 H1439 0.959 . S
C1433 H1440 0.961 . S
C1433 H1441 0.960 . S
C1434 C1432 1.381 . S
C1434 C1435 1.394 . S
C1434 H1442 0.930 . S
C1435 C1434 1.394 . S
C1435 C1436 1.383 . S
C1435 H1443 0.929 . S
C1436 C1435 1.383 . S
C1436 C1437 1.377 . S
C1437 H1421 0.930 . S
C1437 C1436 1.377 . S
C1437 C1438 1.379 . S
C1438 H1422 0.931 . S
C1438 C1432 1.383 . S
C1438 C1437 1.379 . S
H1439 C1433 0.959 . S
H1440 C1433 0.961 . S
H1441 C1433 0.960 . S
H1442 C1434 0.930 . S
H1443 C1435 0.929 . S
H1444 C1452 0.929 . S
H1445 C1454 0.930 . S
H1446 C1456 0.930 . S
H1447 C1459 0.929 . S
H1448 C1462 0.930 . S
H1449 C1464 0.960 . S
H1450 C1464 0.960 . S
H1451 C1464 0.960 . S
C1452 H1444 0.929 . S
C1452 C1453 1.377 . S
C1452 C1454 1.384 . S
C1453 C1452 1.377 . S
C1453 C1459 1.390 . S
C1454 H1445 0.930 . S
C1454 C1452 1.384 . S
C1454 C1455 1.372 . S
C1455 C1454 1.372 . S
C1455 C1456 1.400 . S
C1455 C1460 1.490 . S
C1456 H1446 0.930 . S
C1456 C1455 1.400 . S
C1456 C1459 1.386 . S
H1457 C1473 0.930 . S
H1458 C1474 0.931 . S
C1459 H1447 0.929 . S
C1459 C1453 1.390 . S
C1459 C1456 1.386 . S
C1460 C1455 1.490 . S
C1460 C1462 1.395 . S
C1460 C1463 1.403 . S
H1461 C1467 0.930 . S
C1462 H1448 0.930 . S
C1462 C1460 1.395 . S
C1462 C1465 1.403 . S
C1463 C1460 1.403 . S
C1463 C1464 1.524 . S
C1463 C1467 1.400 . S
C1464 H1449 0.960 . S
C1464 H1450 0.960 . S
C1464 H1451 0.960 . S
C1464 C1463 1.524 . S
C1465 C1462 1.403 . S
C1465 C1466 1.392 . S
C1465 C1469 1.495 . S
C1466 C1465 1.392 . S
C1466 C1467 1.385 . S
C1466 C1468 1.478 . S
C1467 H1461 0.930 . S
C1467 C1463 1.400 . S
C1467 C1466 1.385 . S
C1468 C1466 1.478 . S
C1468 C1470 1.381 . S
C1468 C1474 1.383 . S
C1469 C1465 1.495 . S
C1469 H1475 0.959 . S
C1469 H1476 0.961 . S
C1469 H1477 0.960 . S
C1470 C1468 1.381 . S
C1470 C1471 1.394 . S
C1470 H1478 0.930 . S
C1471 C1470 1.394 . S
C1471 C1472 1.383 . S
C1471 H1479 0.929 . S
C1472 C1471 1.383 . S
C1472 C1473 1.377 . S
C1473 H1457 0.930 . S
C1473 C1472 1.377 . S
C1473 C1474 1.379 . S
C1474 H1458 0.931 . S
C1474 C1468 1.383 . S
C1474 C1473 1.379 . S
H1475 C1469 0.959 . S
H1476 C1469 0.961 . S
H1477 C1469 0.960 . S
H1478 C1470 0.930 . S
H1479 C1471 0.929 . S
H1480 C1488 0.929 . S
H1481 C1490 0.930 . S
H1482 C1492 0.930 . S
H1483 C1495 0.929 . S
H1484 C1498 0.930 . S
H1485 C1500 0.960 . S
H1486 C1500 0.960 . S
H1487 C1500 0.960 . S
C1488 H1480 0.929 . S
C1488 C1489 1.377 . S
C1488 C1490 1.384 . S
C1489 C1488 1.377 . S
C1489 C1495 1.390 . S
C1490 H1481 0.930 . S
C1490 C1488 1.384 . S
C1490 C1491 1.372 . S
C1491 C1490 1.372 . S
C1491 C1492 1.400 . S
C1491 C1496 1.490 . S
C1492 H1482 0.930 . S
C1492 C1491 1.400 . S
C1492 C1495 1.386 . S
H1493 C1509 0.930 . S
H1494 C1510 0.931 . S
C1495 H1483 0.929 . S
C1495 C1489 1.390 . S
C1495 C1492 1.386 . S
C1496 C1491 1.490 . S
C1496 C1498 1.395 . S
C1496 C1499 1.403 . S
H1497 C1503 0.930 . S
C1498 H1484 0.930 . S
C1498 C1496 1.395 . S
C1498 C1501 1.403 . S
C1499 C1496 1.403 . S
C1499 C1500 1.524 . S
C1499 C1503 1.400 . S
C1500 H1485 0.960 . S
C1500 H1486 0.960 . S
C1500 H1487 0.960 . S
C1500 C1499 1.524 . S
C1501 C1498 1.403 . S
C1501 C1502 1.392 . S
C1501 C1505 1.495 . S
C1502 C1501 1.392 . S
C1502 C1503 1.385 . S
C1502 C1504 1.478 . S
C1503 H1497 0.930 . S
C1503 C1499 1.400 . S
C1503 C1502 1.385 . S
C1504 C1502 1.478 . S
C1504 C1506 1.381 . S
C1504 C1510 1.383 . S
C1505 C1501 1.495 . S
C1505 H1511 0.959 . S
C1505 H1512 0.961 . S
C1505 H1513 0.960 . S
C1506 C1504 1.381 . S
C1506 C1507 1.394 . S
C1506 H1514 0.930 . S
C1507 C1506 1.394 . S
C1507 C1508 1.383 . S
C1507 H1515 0.929 . S
C1508 C1507 1.383 . S
C1508 C1509 1.377 . S
C1509 H1493 0.930 . S
C1509 C1508 1.377 . S
C1509 C1510 1.379 . S
C1510 H1494 0.931 . S
C1510 C1504 1.383 . S
C1510 C1509 1.379 . S
H1511 C1505 0.959 . S
H1512 C1505 0.961 . S
H1513 C1505 0.960 . S
H1514 C1506 0.930 . S
H1515 C1507 0.929 . S
H1516 C1524 0.929 . S
H1517 C1526 0.930 . S
H1518 C1528 0.930 . S
H1519 C1531 0.929 . S
H1520 C1534 0.930 . S
H1521 C1536 0.960 . S
H1522 C1536 0.960 . S
H1523 C1536 0.960 . S
C1524 H1516 0.929 . S
C1524 C1525 1.377 . S
C1524 C1526 1.384 . S
C1525 C1524 1.377 . S
C1525 C1531 1.390 . S
C1526 H1517 0.930 . S
C1526 C1524 1.384 . S
C1526 C1527 1.372 . S
C1527 C1526 1.372 . S
C1527 C1528 1.400 . S
C1527 C1532 1.490 . S
C1528 H1518 0.930 . S
C1528 C1527 1.400 . S
C1528 C1531 1.386 . S
H1529 C1545 0.930 . S
H1530 C1546 0.931 . S
C1531 H1519 0.929 . S
C1531 C1525 1.390 . S
C1531 C1528 1.386 . S
C1532 C1527 1.490 . S
C1532 C1534 1.395 . S
C1532 C1535 1.403 . S
H1533 C1539 0.930 . S
C1534 H1520 0.930 . S
C1534 C1532 1.395 . S
C1534 C1537 1.403 . S
C1535 C1532 1.403 . S
C1535 C1536 1.524 . S
C1535 C1539 1.400 . S
C1536 H1521 0.960 . S
C1536 H1522 0.960 . S
C1536 H1523 0.960 . S
C1536 C1535 1.524 . S
C1537 C1534 1.403 . S
C1537 C1538 1.392 . S
C1537 C1541 1.495 . S
C1538 C1537 1.392 . S
C1538 C1539 1.385 . S
C1538 C1540 1.478 . S
C1539 H1533 0.930 . S
C1539 C1535 1.400 . S
C1539 C1538 1.385 . S
C1540 C1538 1.478 . S
C1540 C1542 1.381 . S
C1540 C1546 1.383 . S
C1541 C1537 1.495 . S
C1541 H1547 0.959 . S
C1541 H1548 0.961 . S
C1541 H1549 0.960 . S
C1542 C1540 1.381 . S
C1542 C1543 1.394 . S
C1542 H1550 0.930 . S
C1543 C1542 1.394 . S
C1543 C1544 1.383 . S
C1543 H1551 0.929 . S
C1544 C1543 1.383 . S
C1544 C1545 1.377 . S
C1545 H1529 0.930 . S
C1545 C1544 1.377 . S
C1545 C1546 1.379 . S
C1546 H1530 0.931 . S
C1546 C1540 1.383 . S
C1546 C1545 1.379 . S
H1547 C1541 0.959 . S
H1548 C1541 0.961 . S
H1549 C1541 0.960 . S
H1550 C1542 0.930 . S
H1551 C1543 0.929 . S
H1552 C1560 0.929 . S
H1553 C1562 0.930 . S
H1554 C1564 0.930 . S
H1555 C1567 0.929 . S
H1556 C1570 0.930 . S
H1557 C1572 0.960 . S
H1558 C1572 0.960 . S
H1559 C1572 0.960 . S
C1560 H1552 0.929 . S
C1560 C1561 1.377 . S
C1560 C1562 1.384 . S
C1561 C1560 1.377 . S
C1561 C1567 1.390 . S
C1562 H1553 0.930 . S
C1562 C1560 1.384 . S
C1562 C1563 1.372 . S
C1563 C1562 1.372 . S
C1563 C1564 1.400 . S
C1563 C1568 1.490 . S
C1564 H1554 0.930 . S
C1564 C1563 1.400 . S
C1564 C1567 1.386 . S
H1565 C1581 0.930 . S
H1566 C1582 0.931 . S
C1567 H1555 0.929 . S
C1567 C1561 1.390 . S
C1567 C1564 1.386 . S
C1568 C1563 1.490 . S
C1568 C1570 1.395 . S
C1568 C1571 1.403 . S
H1569 C1575 0.930 . S
C1570 H1556 0.930 . S
C1570 C1568 1.395 . S
C1570 C1573 1.403 . S
C1571 C1568 1.403 . S
C1571 C1572 1.524 . S
C1571 C1575 1.400 . S
C1572 H1557 0.960 . S
C1572 H1558 0.960 . S
C1572 H1559 0.960 . S
C1572 C1571 1.524 . S
C1573 C1570 1.403 . S
C1573 C1574 1.392 . S
C1573 C1577 1.495 . S
C1574 C1573 1.392 . S
C1574 C1575 1.385 . S
C1574 C1576 1.478 . S
C1575 H1569 0.930 . S
C1575 C1571 1.400 . S
C1575 C1574 1.385 . S
C1576 C1574 1.478 . S
C1576 C1578 1.381 . S
C1576 C1582 1.383 . S
C1577 C1573 1.495 . S
C1577 H1583 0.959 . S
C1577 H1584 0.961 . S
C1577 H1585 0.960 . S
C1578 C1576 1.381 . S
C1578 C1579 1.394 . S
C1578 H1586 0.930 . S
C1579 C1578 1.394 . S
C1579 C1580 1.383 . S
C1579 H1587 0.929 . S
C1580 C1579 1.383 . S
C1580 C1581 1.377 . S
C1581 H1565 0.930 . S
C1581 C1580 1.377 . S
C1581 C1582 1.379 . S
C1582 H1566 0.931 . S
C1582 C1576 1.383 . S
C1582 C1581 1.379 . S
H1583 C1577 0.959 . S
H1584 C1577 0.961 . S
H1585 C1577 0.960 . S
H1586 C1578 0.930 . S
H1587 C1579 0.929 . S
H1588 C1596 0.929 . S
H1589 C1598 0.930 . S
H1590 C1600 0.930 . S
H1591 C1603 0.929 . S
H1592 C1606 0.930 . S
H1593 C1608 0.960 . S
H1594 C1608 0.960 . S
H1595 C1608 0.960 . S
C1596 H1588 0.929 . S
C1596 C1597 1.377 . S
C1596 C1598 1.384 . S
C1597 C1596 1.377 . S
C1597 C1603 1.390 . S
C1598 H1589 0.930 . S
C1598 C1596 1.384 . S
C1598 C1599 1.372 . S
C1599 C1598 1.372 . S
C1599 C1600 1.400 . S
C1599 C1604 1.490 . S
C1600 H1590 0.930 . S
C1600 C1599 1.400 . S
C1600 C1603 1.386 . S
H1601 C1617 0.930 . S
H1602 C1618 0.931 . S
C1603 H1591 0.929 . S
C1603 C1597 1.390 . S
C1603 C1600 1.386 . S
C1604 C1599 1.490 . S
C1604 C1606 1.395 . S
C1604 C1607 1.403 . S
H1605 C1611 0.930 . S
C1606 H1592 0.930 . S
C1606 C1604 1.395 . S
C1606 C1609 1.403 . S
C1607 C1604 1.403 . S
C1607 C1608 1.524 . S
C1607 C1611 1.400 . S
C1608 H1593 0.960 . S
C1608 H1594 0.960 . S
C1608 H1595 0.960 . S
C1608 C1607 1.524 . S
C1609 C1606 1.403 . S
C1609 C1610 1.392 . S
C1609 C1613 1.495 . S
C1610 C1609 1.392 . S
C1610 C1611 1.385 . S
C1610 C1612 1.478 . S
C1611 H1605 0.930 . S
C1611 C1607 1.400 . S
C1611 C1610 1.385 . S
C1612 C1610 1.478 . S
C1612 C1614 1.381 . S
C1612 C1618 1.383 . S
C1613 C1609 1.495 . S
C1613 H1619 0.959 . S
C1613 H1620 0.961 . S
C1613 H1621 0.960 . S
C1614 C1612 1.381 . S
C1614 C1615 1.394 . S
C1614 H1622 0.930 . S
C1615 C1614 1.394 . S
C1615 C1616 1.383 . S
C1615 H1623 0.929 . S
C1616 C1615 1.383 . S
C1616 C1617 1.377 . S
C1617 H1601 0.930 . S
C1617 C1616 1.377 . S
C1617 C1618 1.379 . S
C1618 H1602 0.931 . S
C1618 C1612 1.383 . S
C1618 C1617 1.379 . S
H1619 C1613 0.959 . S
H1620 C1613 0.961 . S
H1621 C1613 0.960 . S
H1622 C1614 0.930 . S
H1623 C1615 0.929 . S
H1624 C1632 0.929 . S
H1625 C1634 0.930 . S
H1626 C1636 0.930 . S
H1627 C1639 0.929 . S
H1628 C1642 0.930 . S
H1629 C1644 0.960 . S
H1630 C1644 0.960 . S
H1631 C1644 0.960 . S
C1632 H1624 0.929 . S
C1632 C1633 1.377 . S
C1632 C1634 1.384 . S
C1633 C1632 1.377 . S
C1633 C1639 1.390 . S
C1634 H1625 0.930 . S
C1634 C1632 1.384 . S
C1634 C1635 1.372 . S
C1635 C1634 1.372 . S
C1635 C1636 1.400 . S
C1635 C1640 1.490 . S
C1636 H1626 0.930 . S
C1636 C1635 1.400 . S
C1636 C1639 1.386 . S
H1637 C1653 0.930 . S
H1638 C1654 0.931 . S
C1639 H1627 0.929 . S
C1639 C1633 1.390 . S
C1639 C1636 1.386 . S
C1640 C1635 1.490 . S
C1640 C1642 1.395 . S
C1640 C1643 1.403 . S
H1641 C1647 0.930 . S
C1642 H1628 0.930 . S
C1642 C1640 1.395 . S
C1642 C1645 1.403 . S
C1643 C1640 1.403 . S
C1643 C1644 1.524 . S
C1643 C1647 1.400 . S
C1644 H1629 0.960 . S
C1644 H1630 0.960 . S
C1644 H1631 0.960 . S
C1644 C1643 1.524 . S
C1645 C1642 1.403 . S
C1645 C1646 1.392 . S
C1645 C1649 1.495 . S
C1646 C1645 1.392 . S
C1646 C1647 1.385 . S
C1646 C1648 1.478 . S
C1647 H1641 0.930 . S
C1647 C1643 1.400 . S
C1647 C1646 1.385 . S
C1648 C1646 1.478 . S
C1648 C1650 1.381 . S
C1648 C1654 1.383 . S
C1649 C1645 1.495 . S
C1649 H1655 0.959 . S
C1649 H1656 0.961 . S
C1649 H1657 0.960 . S
C1650 C1648 1.381 . S
C1650 C1651 1.394 . S
C1650 H1658 0.930 . S
C1651 C1650 1.394 . S
C1651 C1652 1.383 . S
C1651 H1659 0.929 . S
C1652 C1651 1.383 . S
C1652 C1653 1.377 . S
C1653 H1637 0.930 . S
C1653 C1652 1.377 . S
C1653 C1654 1.379 . S
C1654 H1638 0.931 . S
C1654 C1648 1.383 . S
C1654 C1653 1.379 . S
H1655 C1649 0.959 . S
H1656 C1649 0.961 . S
H1657 C1649 0.960 . S
H1658 C1650 0.930 . S
H1659 C1651 0.929 . S
H1660 C1668 0.929 . S
H1661 C1670 0.930 . S
H1662 C1672 0.930 . S
H1663 C1675 0.929 . S
H1664 C1678 0.930 . S
H1665 C1680 0.960 . S
H1666 C1680 0.960 . S
H1667 C1680 0.960 . S
C1668 H1660 0.929 . S
C1668 C1669 1.377 . S
C1668 C1670 1.384 . S
C1669 C1668 1.377 . S
C1669 C1675 1.390 . S
C1670 H1661 0.930 . S
C1670 C1668 1.384 . S
C1670 C1671 1.372 . S
C1671 C1670 1.372 . S
C1671 C1672 1.400 . S
C1671 C1676 1.490 . S
C1672 H1662 0.930 . S
C1672 C1671 1.400 . S
C1672 C1675 1.386 . S
H1673 C1689 0.930 . S
H1674 C1690 0.931 . S
C1675 H1663 0.929 . S
C1675 C1669 1.390 . S
C1675 C1672 1.386 . S
C1676 C1671 1.490 . S
C1676 C1678 1.395 . S
C1676 C1679 1.403 . S
H1677 C1683 0.930 . S
C1678 H1664 0.930 . S
C1678 C1676 1.395 . S
C1678 C1681 1.403 . S
C1679 C1676 1.403 . S
C1679 C1680 1.524 . S
C1679 C1683 1.400 . S
C1680 H1665 0.960 . S
C1680 H1666 0.960 . S
C1680 H1667 0.960 . S
C1680 C1679 1.524 . S
C1681 C1678 1.403 . S
C1681 C1682 1.392 . S
C1681 C1685 1.495 . S
C1682 C1681 1.392 . S
C1682 C1683 1.385 . S
C1682 C1684 1.478 . S
C1683 H1677 0.930 . S
C1683 C1679 1.400 . S
C1683 C1682 1.385 . S
C1684 C1682 1.478 . S
C1684 C1686 1.381 . S
C1684 C1690 1.383 . S
C1685 C1681 1.495 . S
C1685 H1691 0.959 . S
C1685 H1692 0.961 . S
C1685 H1693 0.960 . S
C1686 C1684 1.381 . S
C1686 C1687 1.394 . S
C1686 H1694 0.930 . S
C1687 C1686 1.394 . S
C1687 C1688 1.383 . S
C1687 H1695 0.929 . S
C1688 C1687 1.383 . S
C1688 C1689 1.377 . S
C1689 H1673 0.930 . S
C1689 C1688 1.377 . S
C1689 C1690 1.379 . S
C1690 H1674 0.931 . S
C1690 C1684 1.383 . S
C1690 C1689 1.379 . S
H1691 C1685 0.959 . S
H1692 C1685 0.961 . S
H1693 C1685 0.960 . S
H1694 C1686 0.930 . S
H1695 C1687 0.929 . S
H1696 C1704 0.929 . S
H1697 C1706 0.930 . S
H1698 C1708 0.930 . S
H1699 C1711 0.929 . S
H1700 C1714 0.930 . S
H1701 C1716 0.960 . S
H1702 C1716 0.960 . S
H1703 C1716 0.960 . S
C1704 H1696 0.929 . S
C1704 C1705 1.377 . S
C1704 C1706 1.384 . S
C1705 C1704 1.377 . S
C1705 C1711 1.390 . S
C1706 H1697 0.930 . S
C1706 C1704 1.384 . S
C1706 C1707 1.372 . S
C1707 C1706 1.372 . S
C1707 C1708 1.400 . S
C1707 C1712 1.490 . S
C1708 H1698 0.930 . S
C1708 C1707 1.400 . S
C1708 C1711 1.386 . S
H1709 C1725 0.930 . S
H1710 C1726 0.931 . S
C1711 H1699 0.929 . S
C1711 C1705 1.390 . S
C1711 C1708 1.386 . S
C1712 C1707 1.490 . S
C1712 C1714 1.395 . S
C1712 C1715 1.403 1_655 S
H1713 C1719 0.930 . S
C1714 H1700 0.930 . S
C1714 C1712 1.395 . S
C1714 C1717 1.403 . S
C1715 C1712 1.403 1_455 S
C1715 C1716 1.524 . S
C1715 C1719 1.400 . S
C1716 H1701 0.960 . S
C1716 H1702 0.960 . S
C1716 H1703 0.960 . S
C1716 C1715 1.524 . S
C1717 C1714 1.403 . S
C1717 C1718 1.392 1_655 S
C1717 C1721 1.495 . S
C1718 C1717 1.392 1_455 S
C1718 C1719 1.385 . S
C1718 C1720 1.478 . S
C1719 H1713 0.930 . S
C1719 C1715 1.400 . S
C1719 C1718 1.385 . S
C1720 C1718 1.478 . S
C1720 C1722 1.381 . S
C1720 C1726 1.383 . S
C1721 C1717 1.495 . S
C1721 H1727 0.959 . S
C1721 H1728 0.961 . S
C1721 H1729 0.960 . S
C1722 C1720 1.381 . S
C1722 C1723 1.394 . S
C1722 H1730 0.930 . S
C1723 C1722 1.394 . S
C1723 C1724 1.383 . S
C1723 H1731 0.929 . S
C1724 C1723 1.383 . S
C1724 C1725 1.377 . S
C1725 H1709 0.930 . S
C1725 C1724 1.377 . S
C1725 C1726 1.379 . S
C1726 H1710 0.931 . S
C1726 C1720 1.383 . S
C1726 C1725 1.379 . S
H1727 C1721 0.959 . S
H1728 C1721 0.961 . S
H1729 C1721 0.960 . S
H1730 C1722 0.930 . S
H1731 C1723 0.929 . S
H1732 C1740 0.929 . S
H1733 C1742 0.930 . S
H1734 C1744 0.930 1_545 S
H1735 C1747 0.929 . S
H1736 C1750 0.930 . S
H1737 C1752 0.960 . S
H1738 C1752 0.960 . S
H1739 C1752 0.960 . S
C1740 H1732 0.929 . S
C1740 C1741 1.377 . S
C1740 C1742 1.384 . S
C1741 C1740 1.377 . S
C1741 C1747 1.390 . S
C1742 H1733 0.930 . S
C1742 C1740 1.384 . S
C1742 C1743 1.372 . S
C1743 C1742 1.372 . S
C1743 C1744 1.400 . S
C1743 C1748 1.490 . S
C1744 H1734 0.930 1_565 S
C1744 C1743 1.400 . S
C1744 C1747 1.386 . S
H1745 C1761 0.930 . S
H1746 C1762 0.931 . S
C1747 H1735 0.929 . S
C1747 C1741 1.390 . S
C1747 C1744 1.386 . S
C1748 C1743 1.490 . S
C1748 C1750 1.395 . S
C1748 C1751 1.403 1_565 S
H1749 C1755 0.930 . S
C1750 H1736 0.930 . S
C1750 C1748 1.395 . S
C1750 C1753 1.403 . S
C1751 C1748 1.403 1_545 S
C1751 C1752 1.524 . S
C1751 C1755 1.400 . S
C1752 H1737 0.960 . S
C1752 H1738 0.960 . S
C1752 H1739 0.960 . S
C1752 C1751 1.524 . S
C1753 C1750 1.403 . S
C1753 C1754 1.392 1_565 S
C1753 C1757 1.495 . S
C1754 C1753 1.392 1_545 S
C1754 C1755 1.385 . S
C1754 C1756 1.478 . S
C1755 H1749 0.930 . S
C1755 C1751 1.400 . S
C1755 C1754 1.385 . S
C1756 C1754 1.478 . S
C1756 C1758 1.381 . S
C1756 C1762 1.383 . S
C1757 C1753 1.495 . S
C1757 H1763 0.959 . S
C1757 H1764 0.961 . S
C1757 H1765 0.960 . S
C1758 C1756 1.381 . S
C1758 C1759 1.394 . S
C1758 H1766 0.930 1_545 S
C1759 C1758 1.394 . S
C1759 C1760 1.383 . S
C1759 H1767 0.929 . S
C1760 C1759 1.383 . S
C1760 C1761 1.377 . S
C1761 H1745 0.930 . S
C1761 C1760 1.377 . S
C1761 C1762 1.379 . S
C1762 H1746 0.931 . S
C1762 C1756 1.383 . S
C1762 C1761 1.379 . S
H1763 C1757 0.959 . S
H1764 C1757 0.961 . S
H1765 C1757 0.960 . S
H1766 C1758 0.930 1_565 S
H1767 C1759 0.929 . S
H1768 C1776 0.929 . S
H1769 C1778 0.930 . S
H1770 C1780 0.930 . S
H1771 C1783 0.929 . S
H1772 C1786 0.930 . S
H1773 C1788 0.960 . S
H1774 C1788 0.960 . S
H1775 C1788 0.960 . S
C1776 H1768 0.929 . S
C1776 C1777 1.377 . S
C1776 C1778 1.384 . S
C1777 C1776 1.377 . S
C1777 C1783 1.390 . S
C1778 H1769 0.930 . S
C1778 C1776 1.384 . S
C1778 C1779 1.372 . S
C1779 C1778 1.372 . S
C1779 C1780 1.400 . S
C1779 C1784 1.490 . S
C1780 H1770 0.930 . S
C1780 C1779 1.400 . S
C1780 C1783 1.386 . S
H1781 C1797 0.930 . S
H1782 C1798 0.931 . S
C1783 H1771 0.929 . S
C1783 C1777 1.390 . S
C1783 C1780 1.386 . S
C1784 C1779 1.490 . S
C1784 C1786 1.395 . S
C1784 C1787 1.403 . S
H1785 C1791 0.930 . S
C1786 H1772 0.930 . S
C1786 C1784 1.395 . S
C1786 C1789 1.403 1_545 S
C1787 C1784 1.403 . S
C1787 C1788 1.524 . S
C1787 C1791 1.400 1_545 S
C1788 H1773 0.960 . S
C1788 H1774 0.960 . S
C1788 H1775 0.960 . S
C1788 C1787 1.524 . S
C1789 C1786 1.403 1_565 S
C1789 C1790 1.392 . S
C1789 C1793 1.495 . S
C1790 C1789 1.392 . S
C1790 C1791 1.385 . S
C1790 C1792 1.478 . S
C1791 H1785 0.930 . S
C1791 C1787 1.400 1_565 S
C1791 C1790 1.385 . S
C1792 C1790 1.478 . S
C1792 C1794 1.381 . S
C1792 C1798 1.383 . S
C1793 C1789 1.495 . S
C1793 H1799 0.959 . S
C1793 H1800 0.961 . S
C1793 H1801 0.960 . S
C1794 C1792 1.381 . S
C1794 C1795 1.394 . S
C1794 H1802 0.930 . S
C1795 C1794 1.394 . S
C1795 C1796 1.383 . S
C1795 H1803 0.929 . S
C1796 C1795 1.383 . S
C1796 C1797 1.377 . S
C1797 H1781 0.930 . S
C1797 C1796 1.377 . S
C1797 C1798 1.379 . S
C1798 H1782 0.931 . S
C1798 C1792 1.383 . S
C1798 C1797 1.379 . S
H1799 C1793 0.959 . S
H1800 C1793 0.961 . S
H1801 C1793 0.960 . S
H1802 C1794 0.930 . S
H1803 C1795 0.929 . S
H1804 C1812 0.929 . S
H1805 C1814 0.930 . S
H1806 C1816 0.930 . S
H1807 C1819 0.929 . S
H1808 C1822 0.930 . S
H1809 C1824 0.960 . S
H1810 C1824 0.960 . S
H1811 C1824 0.960 . S
C1812 H1804 0.929 . S
C1812 C1813 1.377 . S
C1812 C1814 1.384 . S
C1813 C1812 1.377 . S
C1813 C1819 1.390 . S
C1814 H1805 0.930 . S
C1814 C1812 1.384 . S
C1814 C1815 1.372 . S
C1815 C1814 1.372 . S
C1815 C1816 1.400 . S
C1815 C1820 1.490 . S
C1816 H1806 0.930 . S
C1816 C1815 1.400 . S
C1816 C1819 1.386 . S
H1817 C1833 0.930 . S
H1818 C1834 0.931 . S
C1819 H1807 0.929 . S
C1819 C1813 1.390 . S
C1819 C1816 1.386 . S
C1820 C1815 1.490 . S
C1820 C1822 1.395 . S
C1820 C1823 1.403 . S
H1821 C1827 0.930 . S
C1822 H1808 0.930 . S
C1822 C1820 1.395 . S
C1822 C1825 1.403 1_655 S
C1823 C1820 1.403 . S
C1823 C1824 1.524 . S
C1823 C1827 1.400 1_655 S
C1824 H1809 0.960 . S
C1824 H1810 0.960 . S
C1824 H1811 0.960 . S
C1824 C1823 1.524 . S
C1825 C1822 1.403 1_455 S
C1825 C1826 1.392 . S
C1825 C1829 1.495 . S
C1826 C1825 1.392 . S
C1826 C1827 1.385 . S
C1826 C1828 1.478 . S
C1827 H1821 0.930 . S
C1827 C1823 1.400 1_455 S
C1827 C1826 1.385 . S
C1828 C1826 1.478 . S
C1828 C1830 1.381 . S
C1828 C1834 1.383 . S
C1829 C1825 1.495 . S
C1829 H1835 0.959 . S
C1829 H1836 0.961 . S
C1829 H1837 0.960 . S
C1830 C1828 1.381 . S
C1830 C1831 1.394 . S
C1830 H1838 0.930 . S
C1831 C1830 1.394 . S
C1831 C1832 1.383 . S
C1831 H1839 0.929 . S
C1832 C1831 1.383 . S
C1832 C1833 1.377 . S
C1833 H1817 0.930 . S
C1833 C1832 1.377 . S
C1833 C1834 1.379 . S
C1834 H1818 0.931 . S
C1834 C1828 1.383 . S
C1834 C1833 1.379 . S
H1835 C1829 0.959 . S
H1836 C1829 0.961 . S
H1837 C1829 0.960 . S
H1838 C1830 0.930 . S
H1839 C1831 0.929 . S
H1840 C1848 0.929 . S
H1841 C1850 0.930 . S
H1842 C1852 0.909 1_455 S
H1843 C1855 0.929 . S
H1844 C1858 0.930 . S
H1845 C1860 0.960 . S
H1846 C1860 0.960 . S
H1847 C1860 0.960 . S
C1848 H1840 0.929 . S
C1848 C1849 1.377 . S
C1848 C1850 1.384 . S
C1849 C1848 1.377 . S
C1849 C1855 1.390 . S
C1850 H1841 0.930 . S
C1850 C1848 1.384 . S
C1850 C1851 1.372 . S
C1851 C1850 1.372 . S
C1851 C1852 1.400 . S
C1851 C1856 1.490 . S
C1852 H1842 0.909 1_655 S
C1852 C1851 1.400 . S
C1852 C1855 1.386 . S
H1853 C1869 0.930 . S
H1854 C1870 0.931 . S
C1855 H1843 0.929 . S
C1855 C1849 1.390 . S
C1855 C1852 1.386 . S
C1856 C1851 1.490 . S
C1856 C1858 1.395 . S
C1856 C1859 1.403 1_655 S
H1857 C1863 0.930 . S
C1858 H1844 0.930 . S
C1858 C1856 1.395 . S
C1858 C1861 1.403 . S
C1859 C1856 1.403 1_455 S
C1859 C1860 1.524 . S
C1859 C1863 1.400 . S
C1860 H1845 0.960 . S
C1860 H1846 0.960 . S
C1860 H1847 0.960 . S
C1860 C1859 1.524 . S
C1861 C1858 1.403 . S
C1861 C1862 1.392 1_655 S
C1861 C1865 1.495 . S
C1862 C1861 1.392 1_455 S
C1862 C1863 1.385 . S
C1862 C1864 1.478 . S
C1863 H1857 0.930 . S
C1863 C1859 1.400 . S
C1863 C1862 1.385 . S
C1864 C1862 1.478 . S
C1864 C1866 1.381 . S
C1864 C1870 1.383 . S
C1865 C1861 1.495 . S
C1865 H1871 0.959 . S
C1865 H1872 0.961 . S
C1865 H1873 0.960 . S
C1866 C1864 1.381 . S
C1866 C1867 1.394 . S
C1866 H1874 0.930 1_455 S
C1867 C1866 1.394 . S
C1867 C1868 1.383 . S
C1867 H1875 0.929 . S
C1868 C1867 1.383 . S
C1868 C1869 1.377 . S
C1869 H1853 0.930 . S
C1869 C1868 1.377 . S
C1869 C1870 1.379 . S
C1870 H1854 0.931 . S
C1870 C1864 1.383 . S
C1870 C1869 1.379 . S
H1871 C1865 0.959 . S
H1872 C1865 0.961 . S
H1873 C1865 0.960 . S
H1874 C1866 0.930 1_655 S
H1875 C1867 0.929 . S
H1876 C1884 0.929 . S
H1877 C1886 0.930 . S
H1878 C1888 0.930 . S
H1879 C1891 0.929 . S
H1880 C1894 0.930 . S
H1881 C1896 0.960 . S
H1882 C1896 0.960 . S
H1883 C1896 0.960 . S
C1884 H1876 0.929 . S
C1884 C1885 1.377 . S
C1884 C1886 1.384 . S
C1885 C1884 1.377 . S
C1885 C1891 1.390 . S
C1886 H1877 0.930 . S
C1886 C1884 1.384 . S
C1886 C1887 1.372 . S
C1887 C1886 1.372 . S
C1887 C1888 1.400 . S
C1887 C1892 1.490 . S
C1888 H1878 0.930 . S
C1888 C1887 1.400 . S
C1888 C1891 1.386 . S
H1889 C1905 0.930 . S
H1890 C1906 0.931 . S
C1891 H1879 0.929 . S
C1891 C1885 1.390 . S
C1891 C1888 1.386 . S
C1892 C1887 1.490 . S
C1892 C1894 1.395 . S
C1892 C1895 1.403 1_545 S
H1893 C1899 0.930 . S
C1894 H1880 0.930 . S
C1894 C1892 1.395 . S
C1894 C1897 1.403 . S
C1895 C1892 1.403 1_565 S
C1895 C1896 1.524 . S
C1895 C1899 1.400 . S
C1896 H1881 0.960 . S
C1896 H1882 0.960 . S
C1896 H1883 0.960 . S
C1896 C1895 1.524 . S
C1897 C1894 1.403 . S
C1897 C1898 1.392 1_545 S
C1897 C1901 1.495 . S
C1898 C1897 1.392 1_565 S
C1898 C1899 1.385 . S
C1898 C1900 1.478 . S
C1899 H1893 0.930 . S
C1899 C1895 1.400 . S
C1899 C1898 1.385 . S
C1900 C1898 1.478 . S
C1900 C1902 1.381 . S
C1900 C1906 1.383 . S
C1901 C1897 1.495 . S
C1901 H1907 0.959 . S
C1901 H1908 0.961 . S
C1901 H1909 0.960 . S
C1902 C1900 1.381 . S
C1902 C1903 1.394 . S
C1902 H1910 0.930 . S
C1903 C1902 1.394 . S
C1903 C1904 1.383 . S
C1903 H1911 0.929 . S
C1904 C1903 1.383 . S
C1904 C1905 1.377 . S
C1905 H1889 0.930 . S
C1905 C1904 1.377 . S
C1905 C1906 1.379 . S
C1906 H1890 0.931 . S
C1906 C1900 1.383 . S
C1906 C1905 1.379 . S
H1907 C1901 0.959 . S
H1908 C1901 0.961 . S
H1909 C1901 0.960 . S
H1910 C1902 0.930 . S
H1911 C1903 0.929 . S
H1912 C1920 0.929 . S
H1913 C1922 0.930 . S
H1914 C1924 0.930 . S
H1915 C1927 0.929 . S
H1916 C1930 0.930 . S
H1917 C1932 0.960 1_545 S
H1918 C1932 0.960 . S
H1919 C1932 0.960 . S
C1920 H1912 0.929 . S
C1920 C1921 1.377 . S
C1920 C1922 1.384 . S
C1921 C1920 1.377 . S
C1921 C1927 1.390 . S
C1922 H1913 0.930 . S
C1922 C1920 1.384 . S
C1922 C1923 1.372 . S
C1923 C1922 1.372 . S
C1923 C1924 1.400 . S
C1923 C1928 1.490 . S
C1924 H1914 0.930 . S
C1924 C1923 1.400 . S
C1924 C1927 1.386 . S
H1925 C1941 0.930 . S
H1926 C1942 0.931 . S
C1927 H1915 0.929 . S
C1927 C1921 1.390 . S
C1927 C1924 1.386 . S
C1928 C1923 1.490 . S
C1928 C1930 1.395 . S
C1928 C1931 1.403 . S
H1929 C1935 0.930 . S
C1930 H1916 0.930 . S
C1930 C1928 1.395 . S
C1930 C1933 1.403 1_565 S
C1931 C1928 1.403 . S
C1931 C1932 1.524 . S
C1931 C1935 1.400 1_565 S
C1932 H1917 0.960 1_565 S
C1932 H1918 0.960 . S
C1932 H1919 0.960 . S
C1932 C1931 1.524 . S
C1933 C1930 1.403 1_545 S
C1933 C1934 1.392 . S
C1933 C1937 1.495 . S
C1934 C1933 1.392 . S
C1934 C1935 1.385 . S
C1934 C1936 1.478 . S
C1935 H1929 0.930 . S
C1935 C1931 1.400 1_545 S
C1935 C1934 1.385 . S
C1936 C1934 1.478 . S
C1936 C1938 1.381 . S
C1936 C1942 1.383 . S
C1937 C1933 1.495 . S
C1937 H1943 0.959 1_545 S
C1937 H1944 0.961 . S
C1937 H1945 0.960 . S
C1938 C1936 1.381 . S
C1938 C1939 1.394 . S
C1938 H1946 0.930 . S
C1939 C1938 1.394 . S
C1939 C1940 1.383 . S
C1939 H1947 0.929 . S
C1940 C1939 1.383 . S
C1940 C1941 1.377 . S
C1941 H1925 0.930 . S
C1941 C1940 1.377 . S
C1941 C1942 1.379 . S
C1942 H1926 0.931 . S
C1942 C1936 1.383 . S
C1942 C1941 1.379 . S
H1943 C1937 0.959 1_565 S
H1944 C1937 0.961 . S
H1945 C1937 0.960 . S
H1946 C1938 0.930 . S
H1947 C1939 0.929 . S
H1948 C1956 0.929 . S
H1949 C1958 0.930 . S
H1950 C1960 0.930 . S
H1951 C1963 0.929 . S
H1952 C1966 0.930 . S
H1953 C1968 0.960 1_455 S
H1954 C1968 0.960 . S
H1955 C1968 0.960 . S
C1956 H1948 0.929 . S
C1956 C1957 1.377 . S
C1956 C1958 1.384 . S
C1957 C1956 1.377 . S
C1957 C1963 1.390 . S
C1958 H1949 0.930 . S
C1958 C1956 1.384 . S
C1958 C1959 1.372 . S
C1959 C1958 1.372 . S
C1959 C1960 1.400 . S
C1959 C1964 1.490 . S
C1960 H1950 0.930 . S
C1960 C1959 1.400 . S
C1960 C1963 1.386 . S
H1961 C1977 0.930 . S
H1962 C1978 0.931 . S
C1963 H1951 0.929 . S
C1963 C1957 1.390 . S
C1963 C1960 1.386 . S
C1964 C1959 1.490 . S
C1964 C1966 1.395 . S
C1964 C1967 1.403 . S
H1965 C1971 0.930 . S
C1966 H1952 0.930 . S
C1966 C1964 1.395 . S
C1966 C1969 1.403 1_655 S
C1967 C1964 1.403 . S
C1967 C1968 1.524 . S
C1967 C1971 1.400 1_655 S
C1968 H1953 0.960 1_655 S
C1968 H1954 0.960 . S
C1968 H1955 0.960 . S
C1968 C1967 1.524 . S
C1969 C1966 1.403 1_455 S
C1969 C1970 1.392 . S
C1969 C1973 1.495 . S
C1970 C1969 1.392 . S
C1970 C1971 1.385 . S
C1970 C1972 1.478 . S
C1971 H1965 0.930 . S
C1971 C1967 1.400 1_455 S
C1971 C1970 1.385 . S
C1972 C1970 1.478 . S
C1972 C1974 1.381 . S
C1972 C1978 1.383 . S
C1973 C1969 1.495 . S
C1973 H1979 0.959 1_455 S
C1973 H1980 0.961 . S
C1973 H1981 0.960 . S
C1974 C1972 1.381 . S
C1974 C1975 1.394 . S
C1974 H1982 0.930 . S
C1975 C1974 1.394 . S
C1975 C1976 1.383 . S
C1975 H1983 0.929 . S
C1976 C1975 1.383 . S
C1976 C1977 1.377 . S
C1977 H1961 0.930 . S
C1977 C1976 1.377 . S
C1977 C1978 1.379 . S
C1978 H1962 0.931 . S
C1978 C1972 1.383 . S
C1978 C1977 1.379 . S
H1979 C1973 0.959 1_655 S
H1980 C1973 0.961 . S
H1981 C1973 0.960 . S
H1982 C1974 0.930 . S
H1983 C1975 0.929 . S
C553 C342 1.472 . S
C572 C2 1.469 . S
C589 C376 1.472 . S
C608 C36 1.475 . S
C625 C274 1.474 . S
C644 C70 1.467 . S
C661 C308 1.474 . S
C680 C104 1.467 . S
C697 C138 1.474 . S
C716 C478 1.465 . S
C733 C172 1.472 . S
C752 C512 1.471 . S
C769 C410 1.474 . S
C788 C206 1.470 . S
C805 C444 1.473 . S
C824 C240 1.474 . S
C841 C135 1.572 . S
C860 C5 1.575 . S
C877 C39 1.570 . S
C896 C33 1.562 . S
C913 C67 1.572 . S
C932 C73 1.574 . S
C949 C107 1.570 . S
C968 C101 1.574 . S
C985 C203 1.571 . S
C1004 C141 1.575 . S
C1021 C237 1.571 . S
C1040 C175 1.572 . S
C1057 C271 1.571 . S
C1076 C209 1.574 . S
C1093 C243 1.569 . S
C1112 C169 1.563 . S
C1129 C277 1.570 . S
C1148 C407 1.562 . S
C1165 C311 1.571 . S
C1184 C305 1.569 . S
C1201 C339 1.572 . S
C1220 C345 1.559 . S
C1237 C379 1.571 . S
C1256 C373 1.565 . S
C1273 C413 1.571 . S
C1292 C475 1.561 . S
C1309 C447 1.568 . S
C1328 C509 1.568 . S
C1345 C481 1.568 . S
C1364 C543 1.574 . S
C1381 C441 1.573 . S
C1400 C515 1.557 . S
C1417 C258 1.506 . S
C1436 C20 1.499 . S
C1453 C54 1.507 . S
C1472 C156 1.503 . S
C1489 C190 1.508 . S
C1508 C88 1.507 . S
C1525 C224 1.506 . S
C1544 C122 1.499 . S
C1561 C292 1.506 . S
C1580 C530 1.507 . S
C1597 C428 1.508 . S
C1616 C326 1.501 . S
C1633 C360 1.508 . S
C1652 C462 1.504 . S
C1669 C496 1.507 . S
C1688 C394 1.507 . S
C1705 C77 1.173 . S
C1724 C9 1.146 . S
C1741 C111 1.175 . S
C1760 C43 1.154 . S
C1777 C145 1.176 . S
C1796 C213 1.159 . S
C1813 C179 1.173 . S
C1832 C247 1.141 . S
C1849 C281 1.182 . S
C1868 C349 1.144 . S
C1885 C383 1.177 . S
C1904 C315 1.163 . S
C1921 C417 1.183 . S
C1940 C485 1.197 . S
C1957 C519 1.174 . S
C1976 C451 1.213 . S
