# Generated by pormake.
# Topology ume, (4)-cn, num edge types: 1
# Building blocks:
#     Node 0, Type 0, BuildingBlock: GALJAG_clean_sbu_0, # of connection points: 4
#     Node 1, Type 0, BuildingBlock: GALJAG_clean_sbu_0, # of connection points: 4
#     Node 2, Type 0, BuildingBlock: GALJAG_clean_sbu_0, # of connection points: 4
#     Node 3, Type 0, BuildingBlock: GALJAG_clean_sbu_0, # of connection points: 4
#     Node 4, Type 0, BuildingBlock: GALJAG_clean_sbu_0, # of connection points: 4
#     Node 5, Type 0, BuildingBlock: GALJAG_clean_sbu_0, # of connection points: 4
#     Node 6, Type 0, BuildingBlock: GALJAG_clean_sbu_0, # of connection points: 4
#     Node 7, Type 0, BuildingBlock: GALJAG_clean_sbu_0, # of connection points: 4
#     Node 8, Type 0, BuildingBlock: GALJAG_clean_sbu_0, # of connection points: 4
#     Node 9, Type 0, BuildingBlock: GALJAG_clean_sbu_0, # of connection points: 4
#     Node 10, Type 0, BuildingBlock: GALJAG_clean_sbu_0, # of connection points: 4
#     Node 11, Type 0, BuildingBlock: GALJAG_clean_sbu_0, # of connection points: 4
#     Node 12, Type 0, BuildingBlock: GALJAG_clean_sbu_0, # of connection points: 4
#     Node 13, Type 0, BuildingBlock: GALJAG_clean_sbu_0, # of connection points: 4
#     Node 14, Type 0, BuildingBlock: GALJAG_clean_sbu_0, # of connection points: 4
#     Node 15, Type 0, BuildingBlock: GALJAG_clean_sbu_0, # of connection points: 4
#     Edge 16, Type (0, 0), BuildingBlock: ZUJKAS_clean_linker_0, # of connection points: 2
#     Edge 17, Type (0, 0), BuildingBlock: ZUJKAS_clean_linker_0, # of connection points: 2
#     Edge 18, Type (0, 0), BuildingBlock: ZUJKAS_clean_linker_0, # of connection points: 2
#     Edge 19, Type (0, 0), BuildingBlock: ZUJKAS_clean_linker_0, # of connection points: 2
#     Edge 20, Type (0, 0), BuildingBlock: ZUJKAS_clean_linker_0, # of connection points: 2
#     Edge 21, Type (0, 0), BuildingBlock: ZUJKAS_clean_linker_0, # of connection points: 2
#     Edge 22, Type (0, 0), BuildingBlock: ZUJKAS_clean_linker_0, # of connection points: 2
#     Edge 23, Type (0, 0), BuildingBlock: ZUJKAS_clean_linker_0, # of connection points: 2
#     Edge 24, Type (0, 0), BuildingBlock: ZUJKAS_clean_linker_0, # of connection points: 2
#     Edge 25, Type (0, 0), BuildingBlock: ZUJKAS_clean_linker_0, # of connection points: 2
#     Edge 26, Type (0, 0), BuildingBlock: ZUJKAS_clean_linker_0, # of connection points: 2
#     Edge 27, Type (0, 0), BuildingBlock: ZUJKAS_clean_linker_0, # of connection points: 2
#     Edge 28, Type (0, 0), BuildingBlock: ZUJKAS_clean_linker_0, # of connection points: 2
#     Edge 29, Type (0, 0), BuildingBlock: ZUJKAS_clean_linker_0, # of connection points: 2
#     Edge 30, Type (0, 0), BuildingBlock: ZUJKAS_clean_linker_0, # of connection points: 2
#     Edge 31, Type (0, 0), BuildingBlock: ZUJKAS_clean_linker_0, # of connection points: 2
#     Edge 32, Type (0, 0), BuildingBlock: ZUJKAS_clean_linker_0, # of connection points: 2
#     Edge 33, Type (0, 0), BuildingBlock: ZUJKAS_clean_linker_0, # of connection points: 2
#     Edge 34, Type (0, 0), BuildingBlock: ZUJKAS_clean_linker_0, # of connection points: 2
#     Edge 35, Type (0, 0), BuildingBlock: ZUJKAS_clean_linker_0, # of connection points: 2
#     Edge 36, Type (0, 0), BuildingBlock: ZUJKAS_clean_linker_0, # of connection points: 2
#     Edge 37, Type (0, 0), BuildingBlock: ZUJKAS_clean_linker_0, # of connection points: 2
#     Edge 38, Type (0, 0), BuildingBlock: ZUJKAS_clean_linker_0, # of connection points: 2
#     Edge 39, Type (0, 0), BuildingBlock: ZUJKAS_clean_linker_0, # of connection points: 2
#     Edge 40, Type (0, 0), BuildingBlock: ZUJKAS_clean_linker_0, # of connection points: 2
#     Edge 41, Type (0, 0), BuildingBlock: ZUJKAS_clean_linker_0, # of connection points: 2
#     Edge 42, Type (0, 0), BuildingBlock: ZUJKAS_clean_linker_0, # of connection points: 2
#     Edge 43, Type (0, 0), BuildingBlock: ZUJKAS_clean_linker_0, # of connection points: 2
#     Edge 44, Type (0, 0), BuildingBlock: ZUJKAS_clean_linker_0, # of connection points: 2
#     Edge 45, Type (0, 0), BuildingBlock: ZUJKAS_clean_linker_0, # of connection points: 2
#     Edge 46, Type (0, 0), BuildingBlock: ZUJKAS_clean_linker_0, # of connection points: 2
#     Edge 47, Type (0, 0), BuildingBlock: ZUJKAS_clean_linker_0, # of connection points: 2
# Relax obj value: 0.060
# Max RMSD: 0.125
# Mean RMSD: 0.125
data_MOF--net-ume--node1-GALJAG_clean_sbu_0--edge1-ZUJKAS_clean_linker_0
_symmetry_space_group_name_H-M    P1
_symmetry_Int_Tables_number       1
_symmetry_cell_setting            triclinic
loop_
_symmetry_equiv_pos_as_xyz
'x, y, z'
_cell_length_a     36.290474
_cell_length_b     36.278647
_cell_length_c     146.24001
_cell_angle_alpha  89.988272
_cell_angle_beta   90.010476
_cell_angle_gamma 90.020048
loop_
_atom_site_label
_atom_site_type_symbol
_atom_site_fract_x
_atom_site_fract_y
_atom_site_fract_z
_atom_type_partial_charge
In0 In 0.25428 0.10834 0.30921 0.0
O1 O 0.25277 0.15605 0.31951 0.0
O2 O 0.25966 0.10142 0.32452 0.0
C3 C 0.25351 0.14294 0.29293 0.0
C4 C 0.18709 0.07616 0.30908 0.0
C5 C 0.3223 0.07851 0.30849 0.0
O6 O 0.25097 0.1604 0.30038 0.0
O7 O 0.25632 0.10845 0.29375 0.0
O8 O 0.29342 0.05899 0.30859 0.0
O9 O 0.31672 0.11286 0.3087 0.0
C10 C 0.25702 0.13526 0.32636 0.0
O11 O 0.21649 0.05765 0.30853 0.0
O12 O 0.19176 0.11048 0.30971 0.0
In13 In 0.89447 0.7487 0.55936 0.0
O14 O 0.84798 0.74559 0.56999 0.0
O15 O 0.90276 0.75561 0.57456 0.0
C16 C 0.85958 0.7481 0.54312 0.0
C17 C 0.92495 0.68096 0.55962 0.0
C18 C 0.92545 0.81611 0.55807 0.0
O19 O 0.84246 0.75306 0.55055 0.0
O20 O 0.89379 0.74303 0.54396 0.0
O21 O 0.94453 0.78693 0.55808 0.0
O22 O 0.89114 0.81106 0.55867 0.0
C23 C 0.86936 0.75135 0.57667 0.0
O24 O 0.94418 0.70994 0.55904 0.0
O25 O 0.89064 0.68632 0.56004 0.0
In26 In 0.25226 0.38924 0.80905 0.0
O27 O 0.29061 0.43936 0.80865 0.0
O28 O 0.31437 0.38637 0.81072 0.0
C29 C 0.18512 0.42045 0.80702 0.0
C30 C 0.24753 0.36339 0.82629 0.0
C31 C 0.25676 0.35311 0.79301 0.0
O32 O 0.21419 0.43951 0.80767 0.0
O33 O 0.19018 0.38608 0.80731 0.0
O34 O 0.24708 0.33715 0.80031 0.0
O35 O 0.26427 0.38687 0.79386 0.0
C36 C 0.31957 0.4206 0.80987 0.0
O37 O 0.25501 0.3425 0.81962 0.0
O38 O 0.24263 0.39675 0.8242 0.0
In39 In 0.60811 0.75304 0.05924 0.0
O40 O 0.65359 0.75636 0.07015 0.0
O41 O 0.59837 0.7471 0.07443 0.0
C42 C 0.64607 0.7532 0.04343 0.0
C43 C 0.57895 0.82128 0.05893 0.0
C44 C 0.57413 0.6871 0.05766 0.0
O45 O 0.66053 0.74296 0.05088 0.0
O46 O 0.61298 0.76346 0.04403 0.0
O47 O 0.55635 0.71704 0.05794 0.0
O48 O 0.60864 0.69066 0.05811 0.0
C49 C 0.63159 0.75125 0.07673 0.0
O50 O 0.55942 0.79264 0.05799 0.0
O51 O 0.61291 0.81532 0.06008 0.0
In52 In 0.24775 0.38727 0.93827 0.0
O53 O 0.25025 0.34034 0.92774 0.0
O54 O 0.23901 0.39478 0.9231 0.0
C55 C 0.24947 0.35281 0.95456 0.0
C56 C 0.18079 0.41878 0.93974 0.0
C57 C 0.31561 0.41782 0.93795 0.0
O58 O 0.24458 0.33533 0.94717 0.0
O59 O 0.25355 0.38714 0.95365 0.0
O60 O 0.28668 0.43697 0.93871 0.0
O61 O 0.31016 0.38358 0.93729 0.0
C62 C 0.24336 0.36132 0.92105 0.0
O63 O 0.21002 0.43765 0.93922 0.0
O64 O 0.18554 0.38433 0.93956 0.0
In65 In 0.61026 0.75377 0.18954 0.0
O66 O 0.65522 0.74611 0.17869 0.0
O67 O 0.60431 0.7704 0.1747 0.0
C68 C 0.65398 0.74609 0.20437 0.0
C69 C 0.57398 0.68885 0.18889 0.0
C70 C 0.57688 0.81965 0.19217 0.0
O71 O 0.66455 0.76282 0.19727 0.0
O72 O 0.62199 0.7328 0.20388 0.0
O73 O 0.55899 0.79097 0.19009 0.0
O74 O 0.61104 0.81475 0.19308 0.0
C75 C 0.63601 0.75983 0.17233 0.0
O76 O 0.56298 0.71548 0.19374 0.0
O77 O 0.6027 0.69523 0.1843 0.0
In78 In 0.24395 0.10765 0.43765 0.0
O79 O 0.24925 0.1555 0.42746 0.0
O80 O 0.23472 0.10244 0.42242 0.0
C81 C 0.24542 0.14138 0.45404 0.0
C82 C 0.31096 0.07545 0.43732 0.0
C83 C 0.17631 0.07708 0.43874 0.0
O84 O 0.24062 0.15906 0.44669 0.0
O85 O 0.24971 0.10712 0.45306 0.0
O86 O 0.20524 0.05781 0.43814 0.0
O87 O 0.18169 0.11144 0.43885 0.0
C88 C 0.24116 0.13582 0.42062 0.0
O89 O 0.28158 0.05697 0.43808 0.0
O90 O 0.30634 0.1098 0.43667 0.0
In91 In 0.89338 0.75297 0.68914 0.0
O92 O 0.84737 0.75723 0.67846 0.0
O93 O 0.90066 0.73983 0.67414 0.0
C94 C 0.85453 0.75909 0.7048 0.0
C95 C 0.92671 0.81938 0.68811 0.0
C96 C 0.92514 0.68606 0.6912 0.0
O97 O 0.83995 0.748 0.69745 0.0
O98 O 0.88809 0.76753 0.70414 0.0
O99 O 0.94391 0.71502 0.69001 0.0
O100 O 0.89079 0.69109 0.69145 0.0
C101 C 0.86781 0.74696 0.67193 0.0
O102 O 0.94217 0.79174 0.69171 0.0
O103 O 0.89487 0.81335 0.68499 0.0
In104 In 0.75266 0.6053 0.80885 0.0
O105 O 0.74995 0.65129 0.8196 0.0
O106 O 0.76178 0.59667 0.824 0.0
C107 C 0.75097 0.64232 0.7929 0.0
C108 C 0.68487 0.57459 0.80919 0.0
C109 C 0.81992 0.57436 0.80704 0.0
O110 O 0.75563 0.65847 0.80047 0.0
O111 O 0.74689 0.60785 0.79344 0.0
O112 O 0.79071 0.55531 0.80712 0.0
O113 O 0.81498 0.60863 0.80782 0.0
C114 C 0.75714 0.62995 0.82619 0.0
O115 O 0.71384 0.55541 0.80856 0.0
O116 O 0.69027 0.60887 0.80967 0.0
In117 In 0.39286 0.25287 0.0586 0.0
O118 O 0.34757 0.25275 0.06958 0.0
O119 O 0.40358 0.24811 0.07375 0.0
C120 C 0.35644 0.2525 0.04258 0.0
C121 C 0.42553 0.18636 0.05743 0.0
C122 C 0.42104 0.32171 0.05821 0.0
O123 O 0.33976 0.24941 0.05014 0.0
O124 O 0.39095 0.25577 0.0432 0.0
O125 O 0.44097 0.29336 0.05732 0.0
O126 O 0.38719 0.31519 0.05934 0.0
C127 C 0.37019 0.24937 0.07611 0.0
O128 O 0.44386 0.21602 0.05752 0.0
O129 O 0.39105 0.19048 0.05786 0.0
In130 In 0.75455 0.89115 0.30893 0.0
O131 O 0.75174 0.84419 0.31942 0.0
O132 O 0.76027 0.89885 0.32423 0.0
C133 C 0.754 0.85476 0.29288 0.0
C134 C 0.82251 0.92092 0.30808 0.0
C135 C 0.68741 0.92362 0.30857 0.0
O136 O 0.75249 0.83816 0.30047 0.0
O137 O 0.75581 0.88941 0.29343 0.0
O138 O 0.71692 0.94195 0.30799 0.0
O139 O 0.69193 0.88932 0.30934 0.0
C140 C 0.75663 0.86521 0.3262 0.0
O141 O 0.79366 0.94047 0.30812 0.0
O142 O 0.81692 0.8866 0.30842 0.0
In143 In 0.11041 0.24859 0.5598 0.0
O144 O 0.06001 0.28652 0.55965 0.0
O145 O 0.11313 0.31092 0.56085 0.0
C146 C 0.07954 0.18126 0.55816 0.0
C147 C 0.13694 0.24518 0.57698 0.0
C148 C 0.14469 0.25101 0.54349 0.0
O149 O 0.06039 0.21033 0.55864 0.0
O150 O 0.11391 0.18636 0.55848 0.0
O151 O 0.16188 0.24378 0.5508 0.0
O152 O 0.11075 0.25727 0.5445 0.0
C153 C 0.07876 0.31577 0.56037 0.0
O154 O 0.15728 0.25361 0.57028 0.0
O155 O 0.10383 0.23858 0.57495 0.0
In156 In 0.74361 0.89132 0.43783 0.0
O157 O 0.7042 0.94034 0.43816 0.0
O158 O 0.68135 0.88624 0.43857 0.0
C159 C 0.81079 0.92355 0.4377 0.0
C160 C 0.74057 0.86402 0.42073 0.0
C161 C 0.7456 0.85859 0.45435 0.0
O162 O 0.78142 0.94202 0.43843 0.0
O163 O 0.80608 0.88925 0.43699 0.0
O164 O 0.7469 0.84017 0.44701 0.0
O165 O 0.74307 0.89299 0.45328 0.0
C166 C 0.67551 0.92056 0.4385 0.0
O167 O 0.74576 0.84339 0.42758 0.0
O168 O 0.73715 0.8978 0.42256 0.0
In169 In 0.10995 0.25349 0.68907 0.0
O170 O 0.15569 0.24868 0.67838 0.0
O171 O 0.1028 0.26729 0.67407 0.0
C172 C 0.1512 0.24797 0.70437 0.0
C173 C 0.07618 0.18717 0.68823 0.0
C174 C 0.07805 0.32034 0.69118 0.0
O175 O 0.16464 0.25805 0.69681 0.0
O176 O 0.1174 0.24008 0.70413 0.0
O177 O 0.05933 0.29145 0.68984 0.0
O178 O 0.11238 0.31525 0.69153 0.0
C179 C 0.13553 0.25956 0.67186 0.0
O180 O 0.06184 0.21445 0.69225 0.0
O181 O 0.10709 0.19348 0.68463 0.0
In182 In 0.74832 0.60332 0.93853 0.0
O183 O 0.7535 0.64963 0.92791 0.0
O184 O 0.74191 0.59525 0.92328 0.0
C185 C 0.74762 0.63978 0.95456 0.0
C186 C 0.8161 0.57291 0.93888 0.0
C187 C 0.68115 0.57154 0.9394 0.0
O188 O 0.7423 0.65593 0.94702 0.0
O189 O 0.7534 0.60558 0.95396 0.0
O190 O 0.71052 0.55278 0.93934 0.0
O191 O 0.68587 0.60598 0.93912 0.0
C192 C 0.74739 0.62853 0.9212 0.0
O193 O 0.78714 0.55373 0.9396 0.0
O194 O 0.81067 0.60705 0.93796 0.0
In195 In 0.39459 0.25328 0.18904 0.0
O196 O 0.34927 0.25242 0.17814 0.0
O197 O 0.40535 0.24833 0.1739 0.0
C198 C 0.35764 0.25477 0.205 0.0
C199 C 0.42535 0.32102 0.18918 0.0
C200 C 0.42451 0.18536 0.19013 0.0
O201 O 0.341 0.25563 0.19741 0.0
O202 O 0.39227 0.25369 0.20445 0.0
O203 O 0.44407 0.21423 0.19 0.0
O204 O 0.39023 0.19094 0.1897 0.0
C205 C 0.37185 0.24931 0.17159 0.0
O206 O 0.44313 0.29255 0.1915 0.0
O207 O 0.39248 0.31519 0.1868 0.0
H208 H 0.8421 0.99375 0.30816 0.0
H209 H 0.90461 0.01948 0.30803 0.0
H210 H 0.94994 0.90965 0.3074 0.0
H211 H 0.88772 0.88376 0.30747 0.0
H212 H 0.96142 0.00614 0.32104 0.0
H213 H 0.00263 0.9623 0.28611 0.0
H214 H 0.95516 0.96333 0.28981 0.0
H215 H 0.98476 0.92611 0.29323 0.0
C216 C 0.8654 0.97512 0.30793 0.0
C217 C 0.86003 0.93675 0.30779 0.0
C218 C 0.90104 0.98984 0.30787 0.0
C219 C 0.93184 0.96646 0.30758 0.0
C220 C 0.92653 0.92817 0.30745 0.0
H221 H 0.16919 0.00291 0.30801 0.0
H222 H 0.10724 0.97575 0.30792 0.0
C223 C 0.89096 0.91344 0.30754 0.0
C224 C 0.96956 0.98205 0.30774 0.0
H225 H 0.04953 0.98756 0.29551 0.0
C226 C 0.98066 0.00225 0.31545 0.0
C227 C 0.99462 0.97667 0.30046 0.0
C228 C 0.98371 0.9562 0.29189 0.0
C229 C 0.01638 0.01687 0.31612 0.0
C230 C 0.04138 0.01173 0.3088 0.0
C231 C 0.03032 0.99138 0.30111 0.0
C232 C 0.07883 0.02804 0.3089 0.0
C233 C 0.02724 0.03707 0.32473 0.0
C234 C 0.08331 0.0664 0.30936 0.0
C235 C 0.11852 0.0819 0.30944 0.0
C236 C 0.14997 0.05936 0.30898 0.0
C237 C 0.14547 0.02095 0.3084 0.0
C238 C 0.11015 0.00542 0.30834 0.0
H239 H 0.00903 0.02976 0.33056 0.0
H240 H 0.05619 0.03089 0.32665 0.0
H241 H 0.02484 0.06719 0.32355 0.0
H242 H 0.05952 0.0844 0.30959 0.0
H243 H 0.12108 0.11161 0.30982 0.0
H244 H 0.88824 0.61549 0.56013 0.0
H245 H 0.91453 0.55343 0.56047 0.0
H246 H 0.02402 0.59956 0.55972 0.0
H247 H 0.99791 0.66189 0.55943 0.0
H248 H 0.96259 0.52058 0.54739 0.0
H249 H 0.02596 0.52876 0.58193 0.0
H250 H 0.99116 0.56077 0.57808 0.0
H251 H 0.03795 0.56558 0.57426 0.0
C252 C 0.91793 0.61245 0.56006 0.0
C253 C 0.94104 0.64355 0.55979 0.0
C254 C 0.93287 0.57699 0.56025 0.0
C255 C 0.97118 0.57196 0.56023 0.0
C256 C 0.99437 0.60291 0.55989 0.0
H257 H 0.11453 0.38168 0.56113 0.0
H258 H 0.08753 0.44337 0.56096 0.0
C259 C 0.97943 0.63845 0.55968 0.0
C260 C 0.98672 0.53424 0.5604 0.0
H261 H 0.03925 0.47555 0.57316 0.0
C262 C 0.97925 0.51062 0.55303 0.0
C263 C 0.00842 0.52145 0.56777 0.0
C264 C 0.01619 0.54528 0.57601 0.0
C265 C 0.99353 0.47468 0.55275 0.0
C266 C 0.0152 0.46183 0.56013 0.0
C267 C 0.02259 0.48547 0.56751 0.0
C268 C 0.03114 0.42421 0.56026 0.0
C269 C 0.98609 0.45114 0.54444 0.0
C270 C 0.00834 0.39293 0.56005 0.0
C271 C 0.02372 0.35756 0.56011 0.0
C272 C 0.06214 0.35295 0.56047 0.0
C273 C 0.08483 0.38433 0.56084 0.0
C274 C 0.06946 0.41961 0.56075 0.0
H275 H 0.97739 0.46801 0.53848 0.0
H276 H 0.01089 0.43502 0.5425 0.0
H277 H 0.96355 0.43147 0.54602 0.0
H278 H 0.97865 0.39586 0.55987 0.0
H279 H 0.00556 0.33388 0.55988 0.0
H280 H 0.66557 0.50158 0.80928 0.0
H281 H 0.60309 0.47562 0.80943 0.0
H282 H 0.55738 0.5853 0.80958 0.0
H283 H 0.61949 0.61142 0.80942 0.0
H284 H 0.54557 0.4892 0.82286 0.0
H285 H 0.50551 0.53294 0.78782 0.0
H286 H 0.55293 0.53087 0.79153 0.0
H287 H 0.52415 0.56866 0.79497 0.0
C288 C 0.64218 0.52013 0.80932 0.0
C289 C 0.64741 0.55852 0.8093 0.0
C290 C 0.60657 0.50528 0.80941 0.0
C291 C 0.57569 0.52858 0.8094 0.0
C292 C 0.58086 0.56688 0.80945 0.0
H293 H 0.3384 0.49354 0.80864 0.0
H294 H 0.40057 0.52008 0.80892 0.0
C295 C 0.61638 0.58172 0.8094 0.0
C296 C 0.53799 0.51294 0.80951 0.0
H297 H 0.4585 0.50742 0.79709 0.0
C298 C 0.52654 0.49299 0.81722 0.0
C299 C 0.51323 0.51823 0.80216 0.0
C300 C 0.52453 0.53858 0.79361 0.0
C301 C 0.49069 0.4786 0.81784 0.0
C302 C 0.46597 0.48363 0.81045 0.0
C303 C 0.47746 0.50367 0.80275 0.0
C304 C 0.42833 0.46766 0.81049 0.0
C305 C 0.47939 0.45888 0.82648 0.0
C306 C 0.42336 0.42941 0.81118 0.0
C307 C 0.38798 0.41426 0.81106 0.0
C308 C 0.35685 0.43703 0.81015 0.0
C309 C 0.36185 0.47533 0.80938 0.0
C310 C 0.39731 0.4905 0.80953 0.0
H311 H 0.49723 0.46664 0.83235 0.0
H312 H 0.4503 0.46504 0.82828 0.0
H313 H 0.48203 0.42871 0.82544 0.0
H314 H 0.4469 0.41119 0.8117 0.0
H315 H 0.38505 0.38462 0.81159 0.0
H316 H 0.39083 0.11988 0.05681 0.0
H317 H 0.4189 0.05865 0.05675 0.0
H318 H 0.52703 0.10797 0.05711 0.0
H319 H 0.49909 0.16954 0.05725 0.0
H320 H 0.46934 0.02791 0.04397 0.0
H321 H 0.52812 0.036 0.07904 0.0
H322 H 0.49317 0.06746 0.075 0.0
H323 H 0.54025 0.07321 0.0715 0.0
C324 C 0.4206 0.11774 0.05687 0.0
C325 C 0.44279 0.1495 0.05708 0.0
C326 C 0.43656 0.08274 0.05682 0.0
C327 C 0.47498 0.07882 0.05705 0.0
C328 C 0.49729 0.11045 0.05709 0.0
H329 H 0.6166 0.88618 0.05982 0.0
H330 H 0.59154 0.94865 0.05899 0.0
C331 C 0.48131 0.14556 0.05712 0.0
C332 C 0.49148 0.0415 0.05721 0.0
H333 H 0.54208 0.98275 0.07043 0.0
C334 C 0.48526 0.01797 0.04975 0.0
C335 C 0.51222 0.02873 0.06475 0.0
C336 C 0.51869 0.05247 0.07308 0.0
C337 C 0.49955 0.98203 0.04959 0.0
C338 C 0.51993 0.96908 0.05719 0.0
C339 C 0.52639 0.99274 0.06462 0.0
C340 C 0.53484 0.93107 0.05759 0.0
C341 C 0.49326 0.95851 0.04123 0.0
C342 C 0.51121 0.90044 0.0572 0.0
C343 C 0.52547 0.86467 0.05763 0.0
C344 C 0.56358 0.85897 0.05857 0.0
C345 C 0.58711 0.88969 0.05909 0.0
C346 C 0.57285 0.9254 0.05862 0.0
H347 H 0.48628 0.97551 0.03515 0.0
H348 H 0.51799 0.94169 0.03962 0.0
H349 H 0.46987 0.93951 0.04252 0.0
H350 H 0.4817 0.90421 0.05662 0.0
H351 H 0.50666 0.84153 0.05727 0.0
H352 H 0.16259 0.49198 0.93938 0.0
H353 H 0.10058 0.51884 0.93982 0.0
H354 H 0.05344 0.40993 0.94157 0.0
H355 H 0.11511 0.38296 0.94121 0.0
H356 H 0.04262 0.50535 0.92732 0.0
H357 H 0.0032 0.46546 0.96263 0.0
H358 H 0.05036 0.46505 0.9587 0.0
H359 H 0.0197 0.42802 0.95572 0.0
C360 C 0.139 0.47382 0.93993 0.0
C361 C 0.14368 0.43539 0.94029 0.0
C362 C 0.10365 0.48918 0.94017 0.0
C363 C 0.0725 0.46638 0.94085 0.0
C364 C 0.07715 0.42804 0.94123 0.0
H365 H 0.83553 0.50025 0.94043 0.0
H366 H 0.89803 0.4745 0.94076 0.0
C367 C 0.1124 0.41268 0.94097 0.0
C368 C 0.035 0.48249 0.94077 0.0
H369 H 0.95547 0.48888 0.95314 0.0
C370 C 0.02362 0.50201 0.93298 0.0
C371 C 0.01027 0.47783 0.94815 0.0
C372 C 0.02151 0.45824 0.95681 0.0
C373 C 0.98784 0.51642 0.9323 0.0
C374 C 0.96307 0.51175 0.93968 0.0
C375 C 0.97449 0.49231 0.94748 0.0
C376 C 0.92533 0.5273 0.93949 0.0
C377 C 0.97661 0.53575 0.9236 0.0
C378 C 0.92006 0.56549 0.93879 0.0
C379 C 0.88453 0.5802 0.93857 0.0
C380 C 0.85356 0.557 0.93913 0.0
C381 C 0.85887 0.51877 0.93996 0.0
C382 C 0.8945 0.50405 0.94016 0.0
H383 H 0.99494 0.52838 0.91779 0.0
H384 H 0.94777 0.52887 0.92171 0.0
H385 H 0.97842 0.566 0.92463 0.0
H386 H 0.94347 0.58398 0.93847 0.0
H387 H 0.88134 0.60979 0.938 0.0
H388 H 0.48554 0.34506 0.19872 0.0
H389 H 0.50963 0.40813 0.1995 0.0
H390 H 0.42631 0.44373 0.18038 0.0
H391 H 0.40107 0.38136 0.17997 0.0
H392 H 0.53928 0.45137 0.18763 0.0
H393 H 0.41198 0.5195 0.1995 0.0
H394 H 0.41647 0.47005 0.1991 0.0
H395 H 0.40402 0.49557 0.18898 0.0
C396 C 0.47233 0.36646 0.19472 0.0
C397 C 0.44125 0.35848 0.18936 0.0
C398 C 0.48606 0.40248 0.19518 0.0
C399 C 0.46923 0.43101 0.19018 0.0
C400 C 0.43896 0.42263 0.18457 0.0
H401 H 0.57847 0.63568 0.17584 0.0
H402 H 0.55237 0.5736 0.17631 0.0
C403 C 0.42477 0.38686 0.18427 0.0
C404 C 0.48397 0.46925 0.19061 0.0
H405 H 0.45859 0.55925 0.19332 0.0
C406 C 0.52167 0.47491 0.18897 0.0
C407 C 0.46126 0.50004 0.19255 0.0
C408 C 0.4213 0.49594 0.19524 0.0
C409 C 0.53707 0.51041 0.18898 0.0
C410 C 0.51384 0.54138 0.19027 0.0
C411 C 0.47634 0.53566 0.19216 0.0
C412 C 0.52788 0.57986 0.18973 0.0
C413 C 0.57824 0.5141 0.18779 0.0
C414 C 0.52094 0.60496 0.19685 0.0
C415 C 0.53483 0.64091 0.19644 0.0
C416 C 0.55628 0.65223 0.18896 0.0
C417 C 0.56239 0.62749 0.18174 0.0
C418 C 0.54782 0.59186 0.18205 0.0
H419 H 0.59281 0.48875 0.19005 0.0
H420 H 0.58462 0.51827 0.18045 0.0
H421 H 0.5893 0.53783 0.19172 0.0
H422 H 0.50538 0.59652 0.20281 0.0
H423 H 0.52978 0.65944 0.20211 0.0
H424 H 0.32864 0.00228 0.4387 0.0
H425 H 0.39053 0.97508 0.43917 0.0
H426 H 0.43855 0.08327 0.43644 0.0
H427 H 0.37704 0.11062 0.43604 0.0
H428 H 0.44778 0.98031 0.4259 0.0
H429 H 0.48979 0.04053 0.45921 0.0
H430 H 0.44235 0.0388 0.45551 0.0
H431 H 0.47286 0.07349 0.45107 0.0
C432 C 0.35242 0.02023 0.43821 0.0
C433 C 0.34802 0.05858 0.43738 0.0
C434 C 0.38769 0.00468 0.43848 0.0
C435 C 0.41906 0.02725 0.43799 0.0
C436 C 0.4147 0.06546 0.43701 0.0
H437 H 0.65548 0.99316 0.43775 0.0
H438 H 0.59285 0.01844 0.43751 0.0
C439 C 0.37953 0.08099 0.43674 0.0
C440 C 0.45643 0.01092 0.43832 0.0
H441 H 0.53667 0.01127 0.45052 0.0
C442 C 0.46717 0.98683 0.43131 0.0
C443 C 0.48164 0.01965 0.44538 0.0
C444 C 0.47108 0.04427 0.45327 0.0
C445 C 0.50283 0.97185 0.43105 0.0
C446 C 0.52809 0.9807 0.43809 0.0
C447 C 0.51726 0.00463 0.44513 0.0
C448 C 0.56591 0.96531 0.43829 0.0
C449 C 0.51343 0.94747 0.42312 0.0
C450 C 0.57145 0.92714 0.43896 0.0
C451 C 0.60711 0.91266 0.43908 0.0
C452 C 0.63789 0.93613 0.43861 0.0
C453 C 0.6323 0.9744 0.4381 0.0
C454 C 0.59658 0.98887 0.43797 0.0
H455 H 0.49462 0.95121 0.41719 0.0
H456 H 0.54208 0.95318 0.42086 0.0
H457 H 0.51185 0.9182 0.42528 0.0
H458 H 0.54818 0.90853 0.43942 0.0
H459 H 0.61055 0.88306 0.43953 0.0
H460 H 0.09009 0.13214 0.67612 0.0
H461 H 0.0633 0.07035 0.67579 0.0
H462 H 0.99877 0.0963 0.69974 0.0
H463 H 0.02406 0.1589 0.69975 0.0
H464 H 0.06817 0.01668 0.68716 0.0
H465 H 0.92045 0.0525 0.68436 0.0
H466 H 0.95635 0.08643 0.68307 0.0
H467 H 0.94109 0.07272 0.6943 0.0
C468 C 0.06981 0.12477 0.68124 0.0
C469 C 0.0589 0.15034 0.68792 0.0
C470 C 0.05458 0.08942 0.68107 0.0
C471 C 0.02851 0.07867 0.68765 0.0
C472 C 0.01791 0.10415 0.6944 0.0
H473 H 0.98157 0.84651 0.69898 0.0
H474 H 0.00669 0.90916 0.69901 0.0
C475 C 0.03255 0.13986 0.69445 0.0
C476 C 0.01375 0.04038 0.68762 0.0
H477 H 0.93425 0.99006 0.68809 0.0
C478 C 0.03884 0.0109 0.6873 0.0
C479 C 0.97549 0.03267 0.68766 0.0
C480 C 0.94682 0.06277 0.68727 0.0
C481 C 0.02687 0.9741 0.68705 0.0
C482 C 0.98866 0.96637 0.68754 0.0
C483 C 0.96356 0.99585 0.68782 0.0
C484 C 0.97392 0.92806 0.68754 0.0
C485 C 0.05536 0.9441 0.68599 0.0
C486 C 0.94624 0.918 0.6813 0.0
C487 C 0.93114 0.88258 0.68146 0.0
C488 C 0.94379 0.85629 0.68777 0.0
C489 C 0.97172 0.86611 0.69395 0.0
C490 C 0.98626 0.90186 0.69393 0.0
H491 H 0.08093 0.95474 0.68275 0.0
H492 H 0.06289 0.93335 0.69284 0.0
H493 H 0.04476 0.92092 0.68179 0.0
H494 H 0.93616 0.93764 0.67631 0.0
H495 H 0.90961 0.87573 0.67662 0.0
H496 H 0.62114 0.88853 0.30934 0.0
H497 H 0.55971 0.91606 0.30903 0.0
H498 H 0.60812 0.0244 0.30725 0.0
H499 H 0.66988 0.99695 0.30742 0.0
H500 H 0.52895 0.96577 0.32117 0.0
H501 H 0.53427 0.02476 0.28614 0.0
H502 H 0.56716 0.99113 0.29016 0.0
H503 H 0.5715 0.03866 0.29346 0.0
C504 C 0.61876 0.91823 0.30884 0.0
C505 C 0.65035 0.94059 0.30837 0.0
C506 C 0.58361 0.9339 0.30867 0.0
C507 C 0.5793 0.97222 0.30799 0.0
C508 C 0.6108 0.99471 0.30759 0.0
H509 H 0.38766 0.11555 0.30785 0.0
H510 H 0.44986 0.08953 0.30782 0.0
C511 C 0.64605 0.97901 0.30774 0.0
C512 C 0.54178 0.98849 0.30794 0.0
H513 H 0.48226 0.04021 0.29517 0.0
C514 C 0.51868 0.98195 0.31547 0.0
C515 C 0.52847 0.0096 0.3005 0.0
C516 C 0.55146 0.01625 0.29207 0.0
C517 C 0.4828 0.99633 0.31582 0.0
C518 C 0.46946 0.01734 0.30838 0.0
C519 C 0.49258 0.02405 0.30086 0.0
C520 C 0.43163 0.03279 0.30828 0.0
C521 C 0.4597 0.98952 0.32423 0.0
C522 C 0.40074 0.00947 0.30842 0.0
C523 C 0.36513 0.02426 0.30843 0.0
C524 C 0.35984 0.06263 0.30827 0.0
C525 C 0.39084 0.08587 0.308 0.0
C526 C 0.42639 0.07107 0.30798 0.0
H527 H 0.47679 0.98083 0.33016 0.0
H528 H 0.44403 0.01464 0.32616 0.0
H529 H 0.43959 0.96723 0.32278 0.0
H530 H 0.40419 0.97982 0.30849 0.0
H531 H 0.34179 0.00565 0.30859 0.0
H532 H 0.99849 0.83502 0.55722 0.0
H533 H 0.02471 0.8974 0.55691 0.0
H534 H 0.91526 0.94358 0.5574 0.0
H535 H 0.88894 0.88162 0.5578 0.0
H536 H 0.01317 0.95513 0.54413 0.0
H537 H 0.96672 0.99471 0.57894 0.0
H538 H 0.96727 0.94749 0.57505 0.0
H539 H 0.93064 0.97788 0.57164 0.0
C540 C 0.98006 0.8585 0.55726 0.0
C541 C 0.94168 0.85345 0.5576 0.0
C542 C 0.99506 0.89406 0.55708 0.0
C543 C 0.97192 0.92507 0.55729 0.0
C544 C 0.93361 0.92004 0.55743 0.0
H545 H 0.00649 0.16236 0.55795 0.0
H546 H 0.98021 0.1001 0.55725 0.0
C547 C 0.91863 0.8846 0.55761 0.0
C548 C 0.9877 0.96276 0.55728 0.0
H549 H 0.99173 0.04234 0.56972 0.0
C550 C 0.00867 0.97417 0.54974 0.0
C551 C 0.98166 0.98753 0.5646 0.0
C552 C 0.96063 0.97628 0.57306 0.0
C553 C 0.02323 0.01 0.54923 0.0
C554 C 0.01713 0.03478 0.55655 0.0
C555 C 0.99619 0.02334 0.5641 0.0
C556 C 0.03298 0.07245 0.55663 0.0
C557 C 0.04438 0.02125 0.5408 0.0
C558 C 0.07131 0.07746 0.55658 0.0
C559 C 0.08633 0.11288 0.55698 0.0
C560 C 0.0633 0.14397 0.55749 0.0
C561 C 0.0249 0.13893 0.55753 0.0
C562 C 0.00988 0.10342 0.55714 0.0
H563 H 0.03817 0.00297 0.5349 0.0
H564 H 0.03799 0.05013 0.53885 0.0
H565 H 0.07435 0.01937 0.54223 0.0
H566 H 0.08964 0.05392 0.55639 0.0
H567 H 0.11603 0.11585 0.55699 0.0
H568 H 0.16591 0.49354 0.80712 0.0
H569 H 0.10348 0.51953 0.80666 0.0
H570 H 0.05797 0.40998 0.80475 0.0
H571 H 0.11997 0.38387 0.80531 0.0
H572 H 0.04736 0.51171 0.79326 0.0
H573 H 0.00385 0.45443 0.82677 0.0
H574 H 0.0515 0.45636 0.82326 0.0
H575 H 0.02172 0.4208 0.81893 0.0
C576 C 0.14258 0.47504 0.80659 0.0
C577 C 0.14782 0.43667 0.80632 0.0
C578 C 0.10697 0.4899 0.80632 0.0
C579 C 0.0761 0.46663 0.80583 0.0
C580 C 0.08137 0.42839 0.80532 0.0
H581 H 0.83857 0.50137 0.80571 0.0
H582 H 0.90076 0.47504 0.80489 0.0
C583 C 0.11685 0.41354 0.80559 0.0
C584 C 0.03831 0.48221 0.80583 0.0
H585 H 0.95734 0.48233 0.81774 0.0
C586 C 0.0277 0.50545 0.79863 0.0
C587 C 0.0127 0.47387 0.81283 0.0
C588 C 0.02301 0.45027 0.82094 0.0
C589 C 0.99191 0.52011 0.79815 0.0
C590 C 0.96632 0.51179 0.80516 0.0
C591 C 0.97695 0.48851 0.81235 0.0
C592 C 0.92868 0.52774 0.8053 0.0
C593 C 0.98161 0.54379 0.79006 0.0
C594 C 0.9238 0.56602 0.80588 0.0
C595 C 0.88842 0.58107 0.80634 0.0
C596 C 0.85719 0.55811 0.8063 0.0
C597 C 0.86209 0.51975 0.80573 0.0
C598 C 0.89757 0.50469 0.80527 0.0
H599 H 0.00038 0.53916 0.78417 0.0
H600 H 0.95287 0.53826 0.78784 0.0
H601 H 0.98363 0.57325 0.79204 0.0
H602 H 0.9474 0.58428 0.80613 0.0
H603 H 0.88558 0.61073 0.80683 0.0
H604 H 0.5003 0.67113 0.05784 0.0
H605 H 0.47157 0.60987 0.05745 0.0
H606 H 0.57898 0.55947 0.05592 0.0
H607 H 0.60781 0.62034 0.05624 0.0
H608 H 0.52582 0.53101 0.04323 0.0
H609 H 0.47327 0.53508 0.07896 0.0
H610 H 0.46096 0.5735 0.07182 0.0
H611 H 0.50834 0.5663 0.07486 0.0
C612 C 0.51774 0.64697 0.05739 0.0
C613 C 0.5563 0.65051 0.05711 0.0
C614 C 0.50132 0.61204 0.05722 0.0
C615 C 0.52321 0.58018 0.05677 0.0
C616 C 0.56163 0.58373 0.0563 0.0
H617 H 0.49272 0.34316 0.05591 0.0
H618 H 0.51676 0.40623 0.0553 0.0
C619 C 0.57804 0.61853 0.0565 0.0
C620 C 0.50633 0.543 0.05681 0.0
H621 H 0.45837 0.48259 0.07019 0.0
C622 C 0.51102 0.52038 0.04911 0.0
C623 C 0.48703 0.52933 0.06449 0.0
C624 C 0.48223 0.5521 0.07304 0.0
C625 C 0.49671 0.48443 0.04887 0.0
C626 C 0.47794 0.47051 0.05662 0.0
C627 C 0.47286 0.49331 0.06427 0.0
C628 C 0.46351 0.43227 0.05695 0.0
C629 C 0.50135 0.46189 0.04028 0.0
C630 C 0.42577 0.42598 0.05832 0.0
C631 C 0.41204 0.39003 0.05874 0.0
C632 C 0.43584 0.35967 0.05785 0.0
C633 C 0.4737 0.366 0.05657 0.0
C634 C 0.48742 0.40201 0.05616 0.0
H635 H 0.50708 0.47959 0.03424 0.0
H636 H 0.52499 0.44281 0.04115 0.0
H637 H 0.47635 0.44517 0.03887 0.0
H638 H 0.40688 0.44894 0.05901 0.0
H639 H 0.38274 0.38605 0.05975 0.0
H640 H 0.38105 0.38118 0.93703 0.0
H641 H 0.44314 0.40728 0.93753 0.0
H642 H 0.39721 0.51666 0.93933 0.0
H643 H 0.33487 0.49067 0.93899 0.0
H644 H 0.47655 0.45678 0.92577 0.0
H645 H 0.46858 0.51428 0.96089 0.0
H646 H 0.43534 0.48167 0.95654 0.0
H647 H 0.43241 0.52952 0.95341 0.0
C648 C 0.38414 0.4108 0.93755 0.0
C649 C 0.35308 0.43388 0.93802 0.0
C650 C 0.41965 0.42566 0.93783 0.0
C651 C 0.42481 0.46385 0.93861 0.0
C652 C 0.39385 0.48705 0.93893 0.0
H653 H 0.61517 0.60723 0.93987 0.0
H654 H 0.55351 0.58009 0.93963 0.0
C655 C 0.35827 0.47218 0.93867 0.0
C656 C 0.46265 0.4793 0.93894 0.0
H657 H 0.5213 0.53025 0.95214 0.0
C658 C 0.48642 0.47269 0.93155 0.0
C659 C 0.47546 0.5 0.94651 0.0
C660 C 0.45178 0.50656 0.95483 0.0
C661 C 0.52244 0.48686 0.93143 0.0
C662 C 0.53516 0.50771 0.93897 0.0
C663 C 0.51144 0.51424 0.94637 0.0
C664 C 0.57274 0.5237 0.93922 0.0
C665 C 0.54628 0.48017 0.92314 0.0
C666 C 0.60404 0.50092 0.93921 0.0
C667 C 0.63939 0.51636 0.93935 0.0
C668 C 0.64398 0.55483 0.93955 0.0
C669 C 0.61256 0.57749 0.9397 0.0
C670 C 0.57729 0.56205 0.93957 0.0
H671 H 0.52979 0.47116 0.91714 0.0
H672 H 0.5618 0.50546 0.92127 0.0
H673 H 0.56655 0.45817 0.92472 0.0
H674 H 0.6011 0.47122 0.93911 0.0
H675 H 0.66308 0.49822 0.93926 0.0
H676 H 0.50427 0.83852 0.18994 0.0
H677 H 0.4778 0.90082 0.19009 0.0
H678 H 0.58481 0.94628 0.19617 0.0
H679 H 0.61143 0.88441 0.19601 0.0
H680 H 0.48009 0.95702 0.20448 0.0
H681 H 0.55076 0.00045 0.17253 0.0
H682 H 0.54573 0.95266 0.17576 0.0
H683 H 0.58012 0.98086 0.18115 0.0
C684 C 0.52207 0.8618 0.19136 0.0
C685 C 0.55995 0.85662 0.19291 0.0
C686 C 0.50693 0.89731 0.19145 0.0
C687 C 0.5295 0.92812 0.193 0.0
C688 C 0.56707 0.92289 0.19481 0.0
H689 H 0.49694 0.16562 0.19207 0.0
H690 H 0.52219 0.10307 0.19319 0.0
C691 C 0.58217 0.8875 0.19476 0.0
C692 C 0.51402 0.96587 0.19262 0.0
H693 H 0.51859 0.04664 0.18068 0.0
C694 C 0.48833 0.97662 0.19926 0.0
C695 C 0.52503 0.99134 0.18582 0.0
C696 C 0.5517 0.9808 0.17835 0.0
C697 C 0.47379 0.01252 0.19939 0.0
C698 C 0.48467 0.03799 0.19257 0.0
C699 C 0.51037 0.02714 0.18592 0.0
C700 C 0.46929 0.07585 0.19209 0.0
C701 C 0.4476 0.02305 0.20697 0.0
C702 C 0.43127 0.08128 0.19097 0.0
C703 C 0.41683 0.11688 0.19037 0.0
C704 C 0.44016 0.14779 0.19077 0.0
C705 C 0.47828 0.14235 0.19177 0.0
C706 C 0.49272 0.10666 0.1924 0.0
H707 H 0.45046 0.00454 0.21298 0.0
H708 H 0.45227 0.0519 0.20922 0.0
H709 H 0.41886 0.02074 0.20444 0.0
H710 H 0.41276 0.05794 0.19048 0.0
H711 H 0.38735 0.12016 0.18954 0.0
H712 H 0.82882 0.99659 0.43938 0.0
H713 H 0.89077 0.0236 0.43976 0.0
H714 H 0.93837 0.91545 0.43658 0.0
H715 H 0.87675 0.88827 0.4363 0.0
H716 H 0.971 0.95738 0.45052 0.0
H717 H 0.96156 0.03647 0.41806 0.0
H718 H 0.92516 0.04526 0.42609 0.0
H719 H 0.92939 1.00039 0.421 0.0
C720 C 0.8525 0.97862 0.43873 0.0
C721 C 0.84793 0.94034 0.43778 0.0
C722 C 0.88785 0.99409 0.4389 0.0
C723 C 0.91914 0.97155 0.43808 0.0
C724 C 0.91459 0.93334 0.43719 0.0
H725 H 0.15685 0.00424 0.43785 0.0
H726 H 0.09445 0.97836 0.43794 0.0
C727 C 0.87935 0.91788 0.43702 0.0
C728 C 0.95673 0.98754 0.43834 0.0
H729 H 0.01494 0.04588 0.42706 0.0
C730 C 0.98068 0.97668 0.44538 0.0
C731 C 0.96922 0.01269 0.43163 0.0
C732 C 0.94517 0.02423 0.42371 0.0
C733 C 0.01668 0.99069 0.44597 0.0
C734 C 0.02923 0.01572 0.43924 0.0
C735 C 0.00523 0.02668 0.43222 0.0
C736 C 0.06712 0.03108 0.43937 0.0
C737 C 0.04069 0.97916 0.4539 0.0
C738 C 0.07241 0.0693 0.43997 0.0
C739 C 0.10794 0.08413 0.43985 0.0
C740 C 0.13888 0.06101 0.4391 0.0
C741 C 0.13356 0.02271 0.43849 0.0
C742 C 0.09795 0.00789 0.43859 0.0
H743 H 0.02414 0.96778 0.45963 0.0
H744 H 0.06003 0.9574 0.45159 0.0
H745 H 0.05718 0.00275 0.45648 0.0
H746 H 0.049 0.08769 0.44053 0.0
H747 H 0.11113 0.11376 0.44031 0.0
H748 H 0.11425 0.38565 0.69301 0.0
H749 H 0.08779 0.44753 0.69369 0.0
H750 H 0.97856 0.40145 0.69165 0.0
H751 H 0.00489 0.33918 0.69098 0.0
H752 H 0.04133 0.48028 0.68001 0.0
H753 H 0.97335 0.47229 0.71402 0.0
H754 H 0.00918 0.44069 0.71056 0.0
H755 H 0.96319 0.4353 0.70624 0.0
C756 C 0.08456 0.3886 0.69277 0.0
C757 C 0.06162 0.35753 0.69195 0.0
C758 C 0.06952 0.424 0.69315 0.0
C759 C 0.03125 0.42903 0.6928 0.0
C760 C 0.00817 0.39809 0.69206 0.0
H761 H 0.88902 0.62049 0.6926 0.0
H762 H 0.91563 0.55866 0.69302 0.0
C763 C 0.02323 0.36258 0.69164 0.0
C764 C 0.01576 0.46682 0.69286 0.0
H765 H 0.96232 0.52597 0.70525 0.0
C766 C 0.02415 0.49038 0.68554 0.0
C767 C 0.9933 0.47977 0.70007 0.0
C768 C 0.98435 0.45589 0.70822 0.0
C769 C 0.01015 0.52642 0.68514 0.0
C770 C 0.98788 0.53954 0.69239 0.0
C771 C 0.9795 0.51593 0.69972 0.0
C772 C 0.97219 0.57734 0.69238 0.0
C773 C 0.01851 0.54971 0.67685 0.0
C774 C 0.99518 0.6085 0.69205 0.0
C775 C 0.98001 0.64397 0.69176 0.0
C776 C 0.94161 0.64886 0.69189 0.0
C777 C 0.91873 0.61765 0.69246 0.0
C778 C 0.93388 0.58227 0.69271 0.0
H779 H 0.02729 0.5326 0.67094 0.0
H780 H 0.99412 0.56622 0.67479 0.0
H781 H 0.04131 0.56899 0.67849 0.0
H782 H 0.02485 0.6054 0.69201 0.0
H783 H 0.99833 0.6675 0.69138 0.0
H784 H 0.23766 0.20357 0.33284 0.0
H785 H 0.23685 0.22374 0.34892 0.0
H786 H 0.27865 0.11761 0.35721 0.0
H787 H 0.27925 0.09732 0.34133 0.0
H788 H 0.19597 0.18641 0.36326 0.0
H789 H 0.34512 0.19296 0.37089 0.0
H790 H 0.32703 0.19564 0.35938 0.0
H791 H 0.33247 0.15164 0.3649 0.0
C792 C 0.24707 0.18479 0.33811 0.0
C793 C 0.25846 0.14887 0.33586 0.0
C794 C 0.24661 0.19633 0.34726 0.0
C795 C 0.25825 0.17233 0.35421 0.0
C796 C 0.27025 0.13678 0.35193 0.0
H797 H 0.2121 0.10171 0.4058 0.0
H798 H 0.21383 0.12207 0.38993 0.0
C799 C 0.2703 0.12514 0.34285 0.0
C800 C 0.25513 0.18249 0.36397 0.0
H801 H 0.30479 0.18071 0.38376 0.0
C802 C 0.2198 0.18627 0.36774 0.0
C803 C 0.28625 0.18284 0.36977 0.0
C804 C 0.3249 0.18093 0.36602 0.0
C805 C 0.21463 0.18683 0.37724 0.0
C806 C 0.24555 0.18323 0.38306 0.0
C807 C 0.28107 0.18308 0.37928 0.0
C808 C 0.24142 0.17366 0.39283 0.0
C809 C 0.176 0.18931 0.38099 0.0
C810 C 0.25669 0.19582 0.39973 0.0
C811 C 0.25565 0.18422 0.40887 0.0
C812 C 0.24 0.14999 0.41117 0.0
C813 C 0.22436 0.12821 0.40424 0.0
C814 C 0.22504 0.13995 0.39518 0.0
H815 H 0.15739 0.20382 0.37614 0.0
H816 H 0.16501 0.16106 0.38202 0.0
H817 H 0.17553 0.2039 0.38766 0.0
H818 H 0.26985 0.22173 0.39803 0.0
H819 H 0.26803 0.20145 0.41408 0.0
H820 H 0.91014 0.77055 0.59144 0.0
H821 H 0.89176 0.77016 0.60746 0.0
H822 H 0.78255 0.73471 0.59984 0.0
H823 H 0.80089 0.73498 0.58363 0.0
H824 H 0.83007 0.80914 0.61621 0.0
H825 H 0.823 0.65583 0.6186 0.0
H826 H 0.84746 0.67849 0.60943 0.0
H827 H 0.79807 0.67895 0.60962 0.0
C828 C 0.88213 0.7628 0.59314 0.0
C829 C 0.85699 0.75258 0.58629 0.0
C830 C 0.87165 0.76274 0.60229 0.0
C831 C 0.83591 0.75226 0.60482 0.0
C832 C 0.81036 0.74266 0.59801 0.0
H833 H 0.80192 0.77013 0.66471 0.0
H834 H 0.78397 0.7703 0.64849 0.0
C835 C 0.82082 0.7429 0.58878 0.0
C836 C 0.82671 0.75029 0.61465 0.0
H837 H 0.8226 0.68909 0.63234 0.0
C838 C 0.82739 0.78301 0.61976 0.0
C839 C 0.82346 0.71607 0.6192 0.0
C840 C 0.82304 0.68018 0.61399 0.0
C841 C 0.8273 0.7823 0.62935 0.0
C842 C 0.82627 0.74794 0.63391 0.0
C843 C 0.8232 0.71535 0.6288 0.0
C844 C 0.83454 0.74505 0.64379 0.0
C845 C 0.83112 0.81805 0.63454 0.0
C846 C 0.86842 0.73002 0.64648 0.0
C847 C 0.8787 0.72997 0.65566 0.0
C848 C 0.85518 0.74477 0.66235 0.0
C849 C 0.82061 0.75864 0.65969 0.0
C850 C 0.81037 0.75884 0.65045 0.0
H851 H 0.83508 0.84205 0.62992 0.0
H852 H 0.80593 0.82283 0.63867 0.0
H853 H 0.85488 0.81656 0.63932 0.0
H854 H 0.88746 0.7193 0.64143 0.0
H855 H 0.90542 0.71891 0.6575 0.0
H856 H 0.22548 0.40304 0.841 0.0
H857 H 0.22266 0.38335 0.85691 0.0
H858 H 0.26066 0.27506 0.84925 0.0
H859 H 0.26362 0.2947 0.83315 0.0
H860 H 0.18159 0.31925 0.8645 0.0
H861 H 0.33389 0.31445 0.86967 0.0
H862 H 0.31383 0.34035 0.86037 0.0
H863 H 0.31362 0.29097 0.86004 0.0
C864 C 0.23317 0.37498 0.84266 0.0
C865 C 0.24493 0.35044 0.83584 0.0
C866 C 0.23143 0.36375 0.85176 0.0
C867 C 0.2416 0.32786 0.85424 0.0
C868 C 0.25293 0.30297 0.84745 0.0
H869 H 0.26352 0.29411 0.91396 0.0
H870 H 0.26103 0.27506 0.8978 0.0
C871 C 0.25452 0.31418 0.83829 0.0
C872 C 0.24086 0.31768 0.86402 0.0
H873 H 0.29664 0.31417 0.88279 0.0
C874 C 0.20669 0.31711 0.8685 0.0
C875 C 0.27367 0.31464 0.86918 0.0
C876 C 0.31097 0.31517 0.86464 0.0
C877 C 0.20456 0.31629 0.87806 0.0
C878 C 0.23742 0.31666 0.88325 0.0
C879 C 0.27152 0.314 0.87877 0.0
C880 C 0.23712 0.32624 0.89307 0.0
C881 C 0.16717 0.31704 0.88256 0.0
C882 C 0.22489 0.36134 0.89569 0.0
C883 C 0.22662 0.37232 0.9048 0.0
C884 C 0.24059 0.3484 0.91151 0.0
C885 C 0.25249 0.31301 0.90892 0.0
C886 C 0.25108 0.30211 0.89973 0.0
H887 H 0.14579 0.30475 0.87805 0.0
H888 H 0.16747 0.30194 0.88917 0.0
H889 H 0.15926 0.34607 0.88392 0.0
H890 H 0.21471 0.38063 0.89062 0.0
H891 H 0.21726 0.39975 0.90657 0.0
H892 H 0.58845 0.73744 0.09146 0.0
H893 H 0.60591 0.73813 0.10755 0.0
H894 H 0.71799 0.76403 0.10014 0.0
H895 H 0.70056 0.76361 0.08388 0.0
H896 H 0.66201 0.69482 0.1166 0.0
H897 H 0.68594 0.84646 0.11859 0.0
H898 H 0.66026 0.82591 0.10932 0.0
H899 H 0.70933 0.8206 0.10983 0.0
C900 C 0.61686 0.74321 0.09322 0.0
C901 C 0.64313 0.75063 0.08641 0.0
C902 C 0.62681 0.74348 0.10242 0.0
C903 C 0.66314 0.75132 0.10502 0.0
C904 C 0.68971 0.75825 0.09825 0.0
H905 H 0.698 0.72929 0.16472 0.0
H906 H 0.71444 0.72778 0.14841 0.0
C907 C 0.67976 0.75789 0.08899 0.0
C908 C 0.67218 0.75281 0.11487 0.0
H909 H 0.68443 0.81368 0.1324 0.0
C910 C 0.66782 0.72059 0.12007 0.0
C911 C 0.67954 0.7866 0.11933 0.0
C912 C 0.68393 0.82202 0.11403 0.0
C913 C 0.66843 0.72161 0.12965 0.0
C914 C 0.67393 0.75572 0.13413 0.0
C915 C 0.68043 0.78758 0.12892 0.0
C916 C 0.66726 0.75974 0.14406 0.0
C917 C 0.66055 0.68671 0.13493 0.0
C918 C 0.63599 0.77908 0.14698 0.0
C919 C 0.62657 0.77993 0.15622 0.0
C920 C 0.64838 0.7616 0.16272 0.0
C921 C 0.68064 0.74355 0.15984 0.0
C922 C 0.69 0.74258 0.15055 0.0
H923 H 0.65262 0.66349 0.13039 0.0
H924 H 0.6855 0.6785 0.13882 0.0
H925 H 0.638 0.69141 0.13993 0.0
H926 H 0.61809 0.79247 0.14207 0.0
H927 H 0.60167 0.79425 0.15823 0.0
H928 H 0.73635 0.69659 0.83341 0.0
H929 H 0.73731 0.71469 0.84962 0.0
H930 H 0.78406 0.60919 0.85668 0.0
H931 H 0.78304 0.59096 0.84065 0.0
H932 H 0.69981 0.67499 0.86386 0.0
H933 H 0.8496 0.68406 0.87055 0.0
H934 H 0.83027 0.68714 0.85918 0.0
H935 H 0.83711 0.6429 0.86448 0.0
C936 C 0.74723 0.67752 0.83843 0.0
C937 C 0.75956 0.64236 0.83579 0.0
C938 C 0.74779 0.68789 0.84766 0.0
C939 C 0.76132 0.66349 0.85431 0.0
C940 C 0.77424 0.62871 0.85163 0.0
H941 H 0.72348 0.59023 0.90644 0.0
H942 H 0.72514 0.60896 0.89043 0.0
C943 C 0.77335 0.61823 0.84247 0.0
C944 C 0.75909 0.67233 0.86416 0.0
H945 H 0.81087 0.67061 0.88364 0.0
C946 C 0.72411 0.67509 0.86818 0.0
C947 C 0.79083 0.67287 0.86977 0.0
C948 C 0.82911 0.67196 0.86577 0.0
C949 C 0.71996 0.67507 0.87772 0.0
C950 C 0.75156 0.67205 0.88331 0.0
C951 C 0.78666 0.6726 0.87931 0.0
C952 C 0.74854 0.66272 0.89312 0.0
C953 C 0.68173 0.67636 0.88174 0.0
C954 C 0.76151 0.68672 0.89992 0.0
C955 C 0.76042 0.67612 0.90914 0.0
C956 C 0.747 0.64114 0.91161 0.0
C957 C 0.73397 0.61736 0.90475 0.0
C958 C 0.73468 0.62809 0.89561 0.0
H959 H 0.66174 0.68904 0.87692 0.0
H960 H 0.67237 0.64784 0.88321 0.0
H961 H 0.68149 0.69212 0.88825 0.0
H962 H 0.77265 0.71343 0.8981 0.0
H963 H 0.77077 0.69491 0.91429 0.0
H964 H 0.41607 0.23753 0.15694 0.0
H965 H 0.39858 0.23439 0.14087 0.0
H966 H 0.28485 0.25258 0.1481 0.0
H967 H 0.30222 0.25582 0.16436 0.0
H968 H 0.34266 0.18372 0.13277 0.0
H969 H 0.31302 0.33354 0.12823 0.0
H970 H 0.34159 0.31726 0.1375 0.0
H971 H 0.29292 0.30897 0.13771 0.0
C972 C 0.3873 0.24087 0.15514 0.0
C973 C 0.36051 0.24702 0.1619 0.0
C974 C 0.37737 0.23898 0.14596 0.0
C975 C 0.34051 0.24341 0.14332 0.0
C976 C 0.31349 0.24935 0.15002 0.0
H977 H 0.30138 0.25926 0.0836 0.0
H978 H 0.28464 0.25513 0.0999 0.0
C979 C 0.32343 0.2511 0.15928 0.0
C980 C 0.33131 0.24189 0.13349 0.0
H981 H 0.31872 0.2976 0.11494 0.0
C982 C 0.33649 0.20841 0.12887 0.0
C983 C 0.32303 0.27412 0.12846 0.0
C984 C 0.31734 0.31067 0.13316 0.0
C985 C 0.33606 0.20681 0.1193 0.0
C986 C 0.33087 0.23962 0.11425 0.0
C987 C 0.32277 0.27255 0.11886 0.0
C988 C 0.33971 0.24129 0.10439 0.0
C989 C 0.34299 0.17036 0.11465 0.0
C990 C 0.37619 0.23543 0.10161 0.0
C991 C 0.3858 0.23805 0.09242 0.0
C992 C 0.3591 0.24659 0.0858 0.0
C993 C 0.32246 0.25251 0.08857 0.0
C994 C 0.31288 0.25016 0.09784 0.0
H995 H 0.33507 0.14688 0.11912 0.0
H996 H 0.3275 0.16836 0.10812 0.0
H997 H 0.37282 0.1678 0.11311 0.0
H998 H 0.39742 0.22922 0.10659 0.0
H999 H 0.41427 0.2334 0.09051 0.0
H1000 H 0.77945 0.90336 0.34109 0.0
H1001 H 0.7783 0.88367 0.35704 0.0
H1002 H 0.73434 0.77813 0.34897 0.0
H1003 H 0.73571 0.79765 0.33285 0.0
H1004 H 0.69417 0.81721 0.36324 0.0
H1005 H 0.84326 0.80693 0.37082 0.0
H1006 H 0.83138 0.84831 0.36475 0.0
H1007 H 0.82497 0.80426 0.35933 0.0
C1008 C 0.7699 0.8758 0.34268 0.0
C1009 C 0.75763 0.85203 0.33574 0.0
C1010 C 0.76952 0.8645 0.35179 0.0
C1011 C 0.75676 0.82928 0.35415 0.0
C1012 C 0.74467 0.80527 0.34725 0.0
H1013 H 0.7638 0.79721 0.41405 0.0
H1014 H 0.76533 0.77779 0.39792 0.0
C1015 C 0.74545 0.81645 0.33808 0.0
C1016 C 0.75342 0.81945 0.36392 0.0
H1017 H 0.80327 0.81943 0.3837 0.0
C1018 C 0.71803 0.81661 0.36771 0.0
C1019 C 0.78458 0.81821 0.36972 0.0
C1020 C 0.82323 0.81921 0.36594 0.0
C1021 C 0.71293 0.816 0.37722 0.0
C1022 C 0.74398 0.81848 0.38302 0.0
C1023 C 0.77947 0.81784 0.37923 0.0
C1024 C 0.74017 0.82778 0.39282 0.0
C1025 C 0.67429 0.81468 0.38099 0.0
C1026 C 0.72573 0.86226 0.39523 0.0
C1027 C 0.72528 0.87351 0.40433 0.0
C1028 C 0.73913 0.85042 0.41123 0.0
C1029 C 0.7528 0.81544 0.40886 0.0
C1030 C 0.75369 0.80434 0.39968 0.0
H1031 H 0.65497 0.80153 0.37608 0.0
H1032 H 0.67337 0.79935 0.38756 0.0
H1033 H 0.66455 0.84323 0.38226 0.0
H1034 H 0.71582 0.88103 0.39001 0.0
H1035 H 0.71453 0.9006 0.40595 0.0
H1036 H 0.20105 0.23518 0.66478 0.0
H1037 H 0.21974 0.23503 0.64863 0.0
H1038 H 0.11749 0.28799 0.64133 0.0
H1039 H 0.0988 0.28835 0.65734 0.0
H1040 H 0.18145 0.1995 0.63464 0.0
H1041 H 0.19371 0.34825 0.62713 0.0
H1042 H 0.1944 0.3302 0.63865 0.0
H1043 H 0.15127 0.33776 0.63286 0.0
C1044 C 0.18287 0.24728 0.65973 0.0
C1045 C 0.14846 0.26175 0.66231 0.0
C1046 C 0.19358 0.24719 0.65053 0.0
C1047 C 0.17027 0.26207 0.64382 0.0
C1048 C 0.13628 0.27717 0.64643 0.0
H1049 H 0.10079 0.21678 0.59157 0.0
H1050 H 0.11924 0.21861 0.60758 0.0
C1051 C 0.12549 0.27707 0.65557 0.0
C1052 C 0.17926 0.2588 0.63398 0.0
H1053 H 0.17932 0.30868 0.6142 0.0
C1054 C 0.18197 0.2234 0.63018 0.0
C1055 C 0.18057 0.28998 0.62818 0.0
C1056 C 0.18023 0.3287 0.63193 0.0
C1057 C 0.18264 0.21829 0.62067 0.0
C1058 C 0.18015 0.24936 0.61487 0.0
C1059 C 0.18079 0.28485 0.61867 0.0
C1060 C 0.17146 0.24554 0.60503 0.0
C1061 C 0.18435 0.17962 0.61692 0.0
C1062 C 0.1946 0.26043 0.59828 0.0
C1063 C 0.18409 0.25937 0.58906 0.0
C1064 C 0.15 0.24401 0.58653 0.0
C1065 C 0.12722 0.22878 0.59331 0.0
C1066 C 0.13785 0.22954 0.60246 0.0
H1067 H 0.19818 0.16063 0.62179 0.0
H1068 H 0.1559 0.16932 0.6158 0.0
H1069 H 0.19922 0.17882 0.61029 0.0
H1070 H 0.22047 0.27327 0.60016 0.0
H1071 H 0.20207 0.27145 0.58397 0.0
H1072 H 0.27422 0.11251 0.27681 0.0
H1073 H 0.27941 0.14258 0.26198 0.0
H1074 H 0.23857 0.24394 0.27363 0.0
H1075 H 0.23489 0.21418 0.28869 0.0
H1076 H 0.231 0.17401 0.25084 0.0
H1077 H 0.33273 0.2791 0.26235 0.0
H1078 H 0.31914 0.24099 0.26949 0.0
H1079 H 0.28907 0.27998 0.2681 0.0
C1080 C 0.26631 0.14121 0.27623 0.0
C1081 C 0.25452 0.16114 0.28391 0.0
C1082 C 0.26915 0.15835 0.26773 0.0
C1083 C 0.25989 0.19569 0.2667 0.0
C1084 C 0.24674 0.21538 0.2743 0.0
H1085 H 0.28397 0.26438 0.20871 0.0
H1086 H 0.25342 0.25778 0.22362 0.0
C1087 C 0.24447 0.19832 0.28288 0.0
C1088 C 0.26557 0.21356 0.25768 0.0
H1089 H 0.31899 0.27721 0.24674 0.0
C1090 C 0.24988 0.19691 0.24993 0.0
C1091 C 0.29015 0.24351 0.25653 0.0
C1092 C 0.30901 0.26184 0.26453 0.0
C1093 C 0.26011 0.20749 0.24106 0.0
C1094 C 0.28579 0.23649 0.23991 0.0
C1095 C 0.29932 0.25498 0.24765 0.0
C1096 C 0.30346 0.24415 0.23096 0.0
C1097 C 0.2454 0.18569 0.23305 0.0
C1098 C 0.34179 0.24022 0.2302 0.0
C1099 C 0.35922 0.24469 0.2218 0.0
C1100 C 0.33868 0.25285 0.21392 0.0
C1101 C 0.30038 0.25776 0.21467 0.0
C1102 C 0.28291 0.25378 0.22317 0.0
H1103 H 0.23146 0.15991 0.23526 0.0
H1104 H 0.22501 0.20265 0.22928 0.0
H1105 H 0.26796 0.17833 0.22826 0.0
H1106 H 0.35826 0.23274 0.2361 0.0
H1107 H 0.38878 0.24074 0.22145 0.0
H1108 H 0.76281 0.78714 0.4587 0.0
H1109 H 0.77494 0.76221 0.47401 0.0
H1110 H 0.74774 0.86754 0.48591 0.0
H1111 H 0.73623 0.89268 0.4707 0.0
H1112 H 0.81564 0.8417 0.49108 0.0
H1113 H 0.70883 0.7336 0.49573 0.0
H1114 H 0.73473 0.73027 0.48529 0.0
H1115 H 0.70519 0.76927 0.48715 0.0
C1116 C 0.75882 0.80473 0.4646 0.0
C1117 C 0.74881 0.84189 0.46352 0.0
C1118 C 0.76553 0.79041 0.47334 0.0
C1119 C 0.76192 0.81297 0.48109 0.0
C1120 C 0.75058 0.84965 0.48001 0.0
H1121 H 0.78872 0.76869 0.53915 0.0
H1122 H 0.76288 0.78116 0.52394 0.0
C1123 C 0.74407 0.86398 0.47132 0.0
C1124 C 0.77366 0.79987 0.49023 0.0
H1125 H 0.75677 0.73587 0.50686 0.0
C1126 C 0.80266 0.81864 0.49454 0.0
C1127 C 0.75651 0.76993 0.49474 0.0
C1128 C 0.72436 0.74973 0.49055 0.0
C1129 C 0.81526 0.80813 0.5032 0.0
C1130 C 0.79881 0.77762 0.50762 0.0
C1131 C 0.76946 0.75905 0.50339 0.0
C1132 C 0.81213 0.76503 0.51664 0.0
C1133 C 0.84588 0.83001 0.50761 0.0
C1134 C 0.84785 0.75078 0.5175 0.0
C1135 C 0.86266 0.74384 0.52613 0.0
C1136 C 0.84191 0.75088 0.53405 0.0
C1137 C 0.80535 0.76314 0.53316 0.0
C1138 C 0.79055 0.77018 0.52449 0.0
H1139 H 0.84981 0.85723 0.50426 0.0
H1140 H 0.8402 0.83453 0.51499 0.0
H1141 H 0.87207 0.81441 0.50703 0.0
H1142 H 0.86475 0.74629 0.51149 0.0
H1143 H 0.89081 0.73409 0.52659 0.0
H1144 H 0.12919 0.22227 0.72098 0.0
H1145 H 0.15914 0.23269 0.73574 0.0
H1146 H 0.24958 0.28699 0.72219 0.0
H1147 H 0.21987 0.27656 0.70734 0.0
H1148 H 0.23965 0.21832 0.74256 0.0
H1149 H 0.19322 0.36438 0.73963 0.0
H1150 H 0.17209 0.32781 0.73311 0.0
H1151 H 0.21706 0.34421 0.73007 0.0
C1152 C 0.15582 0.23577 0.72112 0.0
C1153 C 0.17206 0.24896 0.71303 0.0
C1154 C 0.17292 0.24154 0.72955 0.0
C1155 C 0.20637 0.26073 0.73002 0.0
C1156 C 0.22372 0.27211 0.72192 0.0
H1157 H 0.29052 0.37665 0.7775 0.0
H1158 H 0.28501 0.35059 0.76216 0.0
C1159 C 0.20673 0.26615 0.71347 0.0
C1160 C 0.22056 0.27261 0.739 0.0
H1161 H 0.22273 0.34707 0.75318 0.0
C1162 C 0.23638 0.24651 0.74489 0.0
C1163 C 0.2161 0.30938 0.74196 0.0
C1164 C 0.19855 0.3382 0.73592 0.0
C1165 C 0.24785 0.25634 0.75374 0.0
C1166 C 0.24234 0.29294 0.75681 0.0
C1167 C 0.22709 0.31907 0.75082 0.0
C1168 C 0.2505 0.30486 0.76631 0.0
C1169 C 0.26596 0.22752 0.75966 0.0
C1170 C 0.23357 0.2874 0.77379 0.0
C1171 C 0.23714 0.302 0.7826 0.0
C1172 C 0.257 0.33473 0.78402 0.0
C1173 C 0.27488 0.35148 0.77658 0.0
C1174 C 0.27179 0.33659 0.76782 0.0
H1175 H 0.27922 0.20576 0.75545 0.0
H1176 H 0.28708 0.2399 0.76422 0.0
H1177 H 0.2447 0.21406 0.76397 0.0
H1178 H 0.2162 0.26348 0.77277 0.0
H1179 H 0.22285 0.28872 0.78821 0.0
H1180 H 0.76447 0.61157 0.97129 0.0
H1181 H 0.75472 0.6404 0.98621 0.0
H1182 H 0.71535 0.73903 0.97299 0.0
H1183 H 0.72519 0.71043 0.95798 0.0
H1184 H 0.78022 0.71738 0.99349 0.0
H1185 H 0.62915 0.69331 0.98986 0.0
H1186 H 0.6626 0.66722 0.98341 0.0
H1187 H 0.65341 0.71429 0.98046 0.0
C1188 C 0.7542 0.63958 0.97155 0.0
C1189 C 0.74528 0.65868 0.96348 0.0
C1190 C 0.74883 0.65602 0.98007 0.0
C1191 C 0.73425 0.69168 0.98066 0.0
C1192 C 0.72664 0.71142 0.97263 0.0
H1193 H 0.62868 0.79 0.02787 0.0
H1194 H 0.65465 0.78082 0.01263 0.0
C1195 C 0.73223 0.69507 0.96408 0.0
C1196 C 0.72395 0.70668 0.98968 0.0
H1197 H 0.64975 0.71912 0.0036 0.0
C1198 C 0.75171 0.71816 0.99571 0.0
C1199 C 0.68677 0.70753 0.9925 0.0
C1200 C 0.65609 0.69481 0.98628 0.0
C1201 C 0.74314 0.73056 0.00457 0.0
C1202 C 0.70594 0.73041 0.00749 0.0
C1203 C 0.67824 0.71939 0.00136 0.0
C1204 C 0.69472 0.74017 0.01695 0.0
C1205 C 0.77395 0.74399 0.01064 0.0
C1206 C 0.70918 0.72103 0.0245 0.0
C1207 C 0.69476 0.72675 0.03326 0.0
C1208 C 0.66508 0.75102 0.03454 0.0
C1209 C 0.65146 0.77099 0.02705 0.0
C1210 C 0.66629 0.76578 0.01835 0.0
H1211 H 0.7977 0.75405 0.00654 0.0
H1212 H 0.76459 0.76654 0.01521 0.0
H1213 H 0.78385 0.7208 0.01493 0.0
H1214 H 0.7304 0.7004 0.02357 0.0
H1215 H 0.7055 0.71077 0.03892 0.0
H1216 H 0.28299 0.24137 0.03899 0.0
H1217 H 0.25239 0.2442 0.02401 0.0
H1218 H 0.35668 0.26906 0.01125 0.0
H1219 H 0.38726 0.26527 0.026 0.0
H1220 H 0.24592 0.30103 0.01283 0.0
H1221 H 0.31918 0.19179 0.99416 0.0
H1222 H 0.3215 0.19583 0.00646 0.0
H1223 H 0.35222 0.22212 -0.00073 0.0
C1224 C 0.29935 0.24695 0.03295 0.0
C1225 C 0.33751 0.25296 0.03365 0.0
C1226 C 0.28189 0.24848 0.02441 0.0
C1227 C 0.30238 0.25593 0.01647 0.0
C1228 C 0.34045 0.26197 0.01721 0.0
H1229 H 0.26711 0.38487 0.97072 0.0
H1230 H 0.27166 0.35597 0.98568 0.0
C1231 C 0.35787 0.2602 0.02568 0.0
C1232 C 0.28411 0.26095 0.00748 0.0
H1233 H 0.29674 0.24324 0.9848 0.0
C1234 C 0.25637 0.2877 0.00672 0.0
C1235 C 0.29681 0.24286 -0.00049 0.0
C1236 C 0.32376 0.21124 -8e-05 0.0
C1237 C 0.2436 0.2993 0.99813 0.0
C1238 C 0.25981 0.28452 0.99013 0.0
C1239 C 0.2849 0.25526 0.99092 0.0
C1240 C 0.25462 0.30187 0.98104 0.0
C1241 C 0.21365 0.32809 0.99775 0.0
C1242 C 0.24479 0.28083 0.97335 0.0
C1243 C 0.24283 0.29727 0.96469 0.0
C1244 C 0.25077 0.33495 0.96362 0.0
C1245 C 0.26051 0.35585 0.97133 0.0
C1246 C 0.26272 0.33943 0.97992 0.0
H1247 H 0.19477 0.32548 0.00369 0.0
H1248 H 0.22632 0.35591 0.99806 0.0
H1249 H 0.19723 0.32594 0.99136 0.0
H1250 H 0.23889 0.25169 0.97404 0.0
H1251 H 0.2353 0.28051 0.95886 0.0
H1252 H 0.76441 0.8845 0.276 0.0
H1253 H 0.7564 0.85429 0.26119 0.0
H1254 H 0.73138 0.75182 0.27477 0.0
H1255 H 0.73956 0.78184 0.28968 0.0
H1256 H 0.79082 0.78156 0.25379 0.0
H1257 H 0.6383 0.78471 0.25846 0.0
H1258 H 0.66849 0.81518 0.26472 0.0
H1259 H 0.66646 0.76722 0.26763 0.0
C1260 C 0.75762 0.85542 0.27584 0.0
C1261 C 0.75229 0.83556 0.28399 0.0
C1262 C 0.75326 0.83821 0.26738 0.0
C1263 C 0.74324 0.80096 0.26693 0.0
C1264 C 0.73912 0.78065 0.27502 0.0
H1265 H 0.64406 0.70062 0.21893 0.0
H1266 H 0.67156 0.70659 0.23412 0.0
C1267 C 0.74375 0.79781 0.28351 0.0
C1268 C 0.73405 0.78457 0.25797 0.0
H1269 H 0.66066 0.76422 0.24437 0.0
C1270 C 0.76243 0.77725 0.25173 0.0
C1271 C 0.69702 0.77898 0.25537 0.0
C1272 C 0.66562 0.787 0.26184 0.0
C1273 C 0.7546 0.76492 0.24282 0.0
C1274 C 0.7174 0.76089 0.24008 0.0
C1275 C 0.68917 0.76719 0.24646 0.0
C1276 C 0.70655 0.7527 0.2305 0.0
C1277 C 0.78624 0.75635 0.23649 0.0
C1278 C 0.71788 0.77588 0.22333 0.0
C1279 C 0.70261 0.7721 0.2146 0.0
C1280 C 0.67516 0.74563 0.21297 0.0
C1281 C 0.6651 0.72136 0.22002 0.0
C1282 C 0.68078 0.72475 0.2287 0.0
H1283 H 0.81112 0.74786 0.24038 0.0
H1284 H 0.77901 0.73412 0.23159 0.0
H1285 H 0.79344 0.7815 0.23255 0.0
H1286 H 0.73694 0.79828 0.22459 0.0
H1287 H 0.71061 0.79138 0.2093 0.0
H1288 H 0.25635 0.10814 0.47048 0.0
H1289 H 0.24627 0.13438 0.48566 0.0
H1290 H 0.22005 0.23945 0.47353 0.0
H1291 H 0.23017 0.21339 0.45823 0.0
H1292 H 0.26851 0.23746 0.49112 0.0
H1293 H 0.13487 0.16224 0.49234 0.0
H1294 H 0.17458 0.13562 0.48909 0.0
H1295 H 0.15856 0.17188 0.48174 0.0
C1296 C 0.24895 0.13698 0.47103 0.0
C1297 C 0.24364 0.15865 0.46317 0.0
C1298 C 0.2433 0.1519 0.4797 0.0
C1299 C 0.23222 0.18868 0.48067 0.0
C1300 C 0.22868 0.21098 0.47288 0.0
H1301 H 0.11415 0.2723 0.52739 0.0
H1302 H 0.13853 0.26254 0.51203 0.0
C1303 C 0.23434 0.19605 0.46417 0.0
C1304 C 0.2209 0.20251 0.48973 0.0
H1305 H 0.15376 0.19244 0.50582 0.0
C1306 C 0.24338 0.22786 0.49435 0.0
C1307 C 0.18794 0.19006 0.49383 0.0
C1308 C 0.16234 0.16365 0.489 0.0
C1309 C 0.23393 0.24061 0.50312 0.0
C1310 C 0.20141 0.22736 0.50732 0.0
C1311 C 0.17874 0.20249 0.50259 0.0
C1312 C 0.18989 0.23858 0.51662 0.0
C1313 C 0.25852 0.26831 0.5078 0.0
C1314 C 0.21107 0.22901 0.52429 0.0
C1315 C 0.1972 0.23466 0.53311 0.0
C1316 C 0.16182 0.24958 0.53435 0.0
C1317 C 0.14143 0.26056 0.52665 0.0
C1318 C 0.15533 0.25508 0.51787 0.0
H1319 H 0.27715 0.28232 0.50287 0.0
H1320 H 0.24192 0.28947 0.51142 0.0
H1321 H 0.27582 0.25392 0.51294 0.0
H1322 H 0.23752 0.21561 0.52347 0.0
H1323 H 0.21344 0.22583 0.53893 0.0
H1324 H 0.78868 0.72657 0.70905 0.0
H1325 H 0.76317 0.71713 0.72438 0.0
H1326 H 0.85185 0.78126 0.73592 0.0
H1327 H 0.87784 0.79008 0.72068 0.0
H1328 H 0.8471 0.71311 0.74328 0.0
H1329 H 0.70911 0.77869 0.74342 0.0
H1330 H 0.71626 0.74807 0.73394 0.0
H1331 H 0.74363 0.78922 0.73491 0.0
C1332 C 0.80218 0.7394 0.71484 0.0
C1333 C 0.83538 0.75878 0.71369 0.0
C1334 C 0.78746 0.73419 0.72359 0.0
C1335 C 0.80548 0.74873 0.73129 0.0
C1336 C 0.83747 0.76988 0.73007 0.0
H1337 H 0.76576 0.71522 0.7897 0.0
H1338 H 0.77557 0.74479 0.77478 0.0
C1339 C 0.85231 0.77484 0.72136 0.0
C1340 C 0.79413 0.73777 0.74063 0.0
H1341 H 0.72174 0.73595 0.75558 0.0
C1342 C 0.81984 0.71858 0.746 0.0
C1343 C 0.75853 0.74486 0.74417 0.0
C1344 C 0.73038 0.76664 0.73885 0.0
C1345 C 0.81064 0.70546 0.7547 0.0
C1346 C 0.77479 0.71151 0.75811 0.0
C1347 C 0.74919 0.73135 0.75288 0.0
C1348 C 0.76352 0.69568 0.76696 0.0
C1349 C 0.83901 0.68448 0.76017 0.0
C1350 C 0.75293 0.6586 0.76741 0.0
C1351 C 0.7475 0.64166 0.77586 0.0
C1352 C 0.75264 0.66157 0.78401 0.0
C1353 C 0.76166 0.69922 0.78353 0.0
C1354 C 0.76713 0.71616 0.77504 0.0
H1355 H 0.86661 0.68491 0.75689 0.0
H1356 H 0.84136 0.69635 0.76715 0.0
H1357 H 0.83008 0.65536 0.76091 0.0
H1358 H 0.75026 0.64242 0.76122 0.0
H1359 H 0.74043 0.61266 0.77602 0.0
loop_
_geom_bond_atom_site_label_1
_geom_bond_atom_site_label_2
_geom_bond_distance
_geom_bond_site_symmetry_2
_ccdc_geom_bond_type
In0 O1 2.294 . S
In0 O2 2.326 . S
In0 O6 2.266 . S
In0 O7 2.326 . S
In0 O8 2.266 . S
In0 O9 2.326 . S
In0 O11 2.294 . S
In0 O12 2.326 . S
O1 In0 2.294 . S
O1 C10 1.240 . S
O2 In0 2.326 . S
O2 C10 1.252 . S
C3 O6 1.252 . S
C3 O7 1.260 . S
C4 O11 1.240 . S
C4 O12 1.252 . S
C5 O8 1.252 . S
C5 O9 1.260 . S
O6 In0 2.266 . S
O6 C3 1.252 . S
O7 In0 2.326 . S
O7 C3 1.260 . S
O8 In0 2.266 . S
O8 C5 1.252 . S
O9 In0 2.326 . S
O9 C5 1.260 . S
C10 O1 1.240 . S
C10 O2 1.252 . S
O11 In0 2.294 . S
O11 C4 1.240 . S
O12 In0 2.326 . S
O12 C4 1.252 . S
In13 O14 2.294 . S
In13 O15 2.326 . S
In13 O19 2.266 . S
In13 O20 2.326 . S
In13 O21 2.266 . S
In13 O22 2.326 . S
In13 O24 2.294 . S
In13 O25 2.326 . S
O14 In13 2.294 . S
O14 C23 1.240 . S
O15 In13 2.326 . S
O15 C23 1.252 . S
C16 O19 1.252 . S
C16 O20 1.260 . S
C17 O24 1.240 . S
C17 O25 1.252 . S
C18 O21 1.252 . S
C18 O22 1.260 . S
O19 In13 2.266 . S
O19 C16 1.252 . S
O20 In13 2.326 . S
O20 C16 1.260 . S
O21 In13 2.266 . S
O21 C18 1.252 . S
O22 In13 2.326 . S
O22 C18 1.260 . S
C23 O14 1.240 . S
C23 O15 1.252 . S
O24 In13 2.294 . S
O24 C17 1.240 . S
O25 In13 2.326 . S
O25 C17 1.252 . S
In26 O27 2.294 . S
In26 O28 2.326 . S
In26 O32 2.266 . S
In26 O33 2.326 . S
In26 O34 2.266 . S
In26 O35 2.326 . S
In26 O37 2.294 . S
In26 O38 2.326 . S
O27 In26 2.294 . S
O27 C36 1.240 . S
O28 In26 2.326 . S
O28 C36 1.252 . S
C29 O32 1.252 . S
C29 O33 1.260 . S
C30 O37 1.240 . S
C30 O38 1.252 . S
C31 O34 1.252 . S
C31 O35 1.260 . S
O32 In26 2.266 . S
O32 C29 1.252 . S
O33 In26 2.326 . S
O33 C29 1.260 . S
O34 In26 2.266 . S
O34 C31 1.252 . S
O35 In26 2.326 . S
O35 C31 1.260 . S
C36 O27 1.240 . S
C36 O28 1.252 . S
O37 In26 2.294 . S
O37 C30 1.240 . S
O38 In26 2.326 . S
O38 C30 1.252 . S
In39 O40 2.294 . S
In39 O41 2.326 . S
In39 O45 2.266 . S
In39 O46 2.326 . S
In39 O47 2.266 . S
In39 O48 2.326 . S
In39 O50 2.294 . S
In39 O51 2.326 . S
O40 In39 2.294 . S
O40 C49 1.240 . S
O41 In39 2.326 . S
O41 C49 1.252 . S
C42 O45 1.252 . S
C42 O46 1.260 . S
C43 O50 1.240 . S
C43 O51 1.252 . S
C44 O47 1.252 . S
C44 O48 1.260 . S
O45 In39 2.266 . S
O45 C42 1.252 . S
O46 In39 2.326 . S
O46 C42 1.260 . S
O47 In39 2.266 . S
O47 C44 1.252 . S
O48 In39 2.326 . S
O48 C44 1.260 . S
C49 O40 1.240 . S
C49 O41 1.252 . S
O50 In39 2.294 . S
O50 C43 1.240 . S
O51 In39 2.326 . S
O51 C43 1.252 . S
In52 O53 2.294 . S
In52 O54 2.326 . S
In52 O58 2.266 . S
In52 O59 2.326 . S
In52 O60 2.266 . S
In52 O61 2.326 . S
In52 O63 2.294 . S
In52 O64 2.326 . S
O53 In52 2.294 . S
O53 C62 1.240 . S
O54 In52 2.326 . S
O54 C62 1.252 . S
C55 O58 1.252 . S
C55 O59 1.260 . S
C56 O63 1.240 . S
C56 O64 1.252 . S
C57 O60 1.252 . S
C57 O61 1.260 . S
O58 In52 2.266 . S
O58 C55 1.252 . S
O59 In52 2.326 . S
O59 C55 1.260 . S
O60 In52 2.266 . S
O60 C57 1.252 . S
O61 In52 2.326 . S
O61 C57 1.260 . S
C62 O53 1.240 . S
C62 O54 1.252 . S
O63 In52 2.294 . S
O63 C56 1.240 . S
O64 In52 2.326 . S
O64 C56 1.252 . S
In65 O66 2.294 . S
In65 O67 2.326 . S
In65 O71 2.266 . S
In65 O72 2.326 . S
In65 O73 2.266 . S
In65 O74 2.326 . S
In65 O76 2.294 . S
In65 O77 2.326 . S
O66 In65 2.294 . S
O66 C75 1.240 . S
O67 In65 2.326 . S
O67 C75 1.252 . S
C68 O71 1.252 . S
C68 O72 1.260 . S
C69 O76 1.240 . S
C69 O77 1.252 . S
C70 O73 1.252 . S
C70 O74 1.260 . S
O71 In65 2.266 . S
O71 C68 1.252 . S
O72 In65 2.326 . S
O72 C68 1.260 . S
O73 In65 2.266 . S
O73 C70 1.252 . S
O74 In65 2.326 . S
O74 C70 1.260 . S
C75 O66 1.240 . S
C75 O67 1.252 . S
O76 In65 2.294 . S
O76 C69 1.240 . S
O77 In65 2.326 . S
O77 C69 1.252 . S
In78 O79 2.294 . S
In78 O80 2.326 . S
In78 O84 2.266 . S
In78 O85 2.326 . S
In78 O86 2.266 . S
In78 O87 2.326 . S
In78 O89 2.294 . S
In78 O90 2.326 . S
O79 In78 2.294 . S
O79 C88 1.240 . S
O80 In78 2.326 . S
O80 C88 1.252 . S
C81 O84 1.252 . S
C81 O85 1.260 . S
C82 O89 1.240 . S
C82 O90 1.252 . S
C83 O86 1.252 . S
C83 O87 1.260 . S
O84 In78 2.266 . S
O84 C81 1.252 . S
O85 In78 2.326 . S
O85 C81 1.260 . S
O86 In78 2.266 . S
O86 C83 1.252 . S
O87 In78 2.326 . S
O87 C83 1.260 . S
C88 O79 1.240 . S
C88 O80 1.252 . S
O89 In78 2.294 . S
O89 C82 1.240 . S
O90 In78 2.326 . S
O90 C82 1.252 . S
In91 O92 2.294 . S
In91 O93 2.326 . S
In91 O97 2.266 . S
In91 O98 2.326 . S
In91 O99 2.266 . S
In91 O100 2.326 . S
In91 O102 2.294 . S
In91 O103 2.326 . S
O92 In91 2.294 . S
O92 C101 1.240 . S
O93 In91 2.326 . S
O93 C101 1.252 . S
C94 O97 1.252 . S
C94 O98 1.260 . S
C95 O102 1.240 . S
C95 O103 1.252 . S
C96 O99 1.252 . S
C96 O100 1.260 . S
O97 In91 2.266 . S
O97 C94 1.252 . S
O98 In91 2.326 . S
O98 C94 1.260 . S
O99 In91 2.266 . S
O99 C96 1.252 . S
O100 In91 2.326 . S
O100 C96 1.260 . S
C101 O92 1.240 . S
C101 O93 1.252 . S
O102 In91 2.294 . S
O102 C95 1.240 . S
O103 In91 2.326 . S
O103 C95 1.252 . S
In104 O105 2.294 . S
In104 O106 2.326 . S
In104 O110 2.266 . S
In104 O111 2.326 . S
In104 O112 2.266 . S
In104 O113 2.326 . S
In104 O115 2.294 . S
In104 O116 2.326 . S
O105 In104 2.294 . S
O105 C114 1.240 . S
O106 In104 2.326 . S
O106 C114 1.252 . S
C107 O110 1.252 . S
C107 O111 1.260 . S
C108 O115 1.240 . S
C108 O116 1.252 . S
C109 O112 1.252 . S
C109 O113 1.260 . S
O110 In104 2.266 . S
O110 C107 1.252 . S
O111 In104 2.326 . S
O111 C107 1.260 . S
O112 In104 2.266 . S
O112 C109 1.252 . S
O113 In104 2.326 . S
O113 C109 1.260 . S
C114 O105 1.240 . S
C114 O106 1.252 . S
O115 In104 2.294 . S
O115 C108 1.240 . S
O116 In104 2.326 . S
O116 C108 1.252 . S
In117 O118 2.294 . S
In117 O119 2.326 . S
In117 O123 2.266 . S
In117 O124 2.326 . S
In117 O125 2.266 . S
In117 O126 2.326 . S
In117 O128 2.294 . S
In117 O129 2.326 . S
O118 In117 2.294 . S
O118 C127 1.240 . S
O119 In117 2.326 . S
O119 C127 1.252 . S
C120 O123 1.252 . S
C120 O124 1.260 . S
C121 O128 1.240 . S
C121 O129 1.252 . S
C122 O125 1.252 . S
C122 O126 1.260 . S
O123 In117 2.266 . S
O123 C120 1.252 . S
O124 In117 2.326 . S
O124 C120 1.260 . S
O125 In117 2.266 . S
O125 C122 1.252 . S
O126 In117 2.326 . S
O126 C122 1.260 . S
C127 O118 1.240 . S
C127 O119 1.252 . S
O128 In117 2.294 . S
O128 C121 1.240 . S
O129 In117 2.326 . S
O129 C121 1.252 . S
In130 O131 2.294 . S
In130 O132 2.326 . S
In130 O136 2.266 . S
In130 O137 2.326 . S
In130 O138 2.266 . S
In130 O139 2.326 . S
In130 O141 2.294 . S
In130 O142 2.326 . S
O131 In130 2.294 . S
O131 C140 1.240 . S
O132 In130 2.326 . S
O132 C140 1.252 . S
C133 O136 1.252 . S
C133 O137 1.260 . S
C134 O141 1.240 . S
C134 O142 1.252 . S
C135 O138 1.252 . S
C135 O139 1.260 . S
O136 In130 2.266 . S
O136 C133 1.252 . S
O137 In130 2.326 . S
O137 C133 1.260 . S
O138 In130 2.266 . S
O138 C135 1.252 . S
O139 In130 2.326 . S
O139 C135 1.260 . S
C140 O131 1.240 . S
C140 O132 1.252 . S
O141 In130 2.294 . S
O141 C134 1.240 . S
O142 In130 2.326 . S
O142 C134 1.252 . S
In143 O144 2.294 . S
In143 O145 2.326 . S
In143 O149 2.266 . S
In143 O150 2.326 . S
In143 O151 2.266 . S
In143 O152 2.326 . S
In143 O154 2.294 . S
In143 O155 2.326 . S
O144 In143 2.294 . S
O144 C153 1.240 . S
O145 In143 2.326 . S
O145 C153 1.252 . S
C146 O149 1.252 . S
C146 O150 1.260 . S
C147 O154 1.240 . S
C147 O155 1.252 . S
C148 O151 1.252 . S
C148 O152 1.260 . S
O149 In143 2.266 . S
O149 C146 1.252 . S
O150 In143 2.326 . S
O150 C146 1.260 . S
O151 In143 2.266 . S
O151 C148 1.252 . S
O152 In143 2.326 . S
O152 C148 1.260 . S
C153 O144 1.240 . S
C153 O145 1.252 . S
O154 In143 2.294 . S
O154 C147 1.240 . S
O155 In143 2.326 . S
O155 C147 1.252 . S
In156 O157 2.294 . S
In156 O158 2.326 . S
In156 O162 2.266 . S
In156 O163 2.326 . S
In156 O164 2.266 . S
In156 O165 2.326 . S
In156 O167 2.294 . S
In156 O168 2.326 . S
O157 In156 2.294 . S
O157 C166 1.240 . S
O158 In156 2.326 . S
O158 C166 1.252 . S
C159 O162 1.252 . S
C159 O163 1.260 . S
C160 O167 1.240 . S
C160 O168 1.252 . S
C161 O164 1.252 . S
C161 O165 1.260 . S
O162 In156 2.266 . S
O162 C159 1.252 . S
O163 In156 2.326 . S
O163 C159 1.260 . S
O164 In156 2.266 . S
O164 C161 1.252 . S
O165 In156 2.326 . S
O165 C161 1.260 . S
C166 O157 1.240 . S
C166 O158 1.252 . S
O167 In156 2.294 . S
O167 C160 1.240 . S
O168 In156 2.326 . S
O168 C160 1.252 . S
In169 O170 2.294 . S
In169 O171 2.326 . S
In169 O175 2.266 . S
In169 O176 2.326 . S
In169 O177 2.266 . S
In169 O178 2.326 . S
In169 O180 2.294 . S
In169 O181 2.326 . S
O170 In169 2.294 . S
O170 C179 1.240 . S
O171 In169 2.326 . S
O171 C179 1.252 . S
C172 O175 1.252 . S
C172 O176 1.260 . S
C173 O180 1.240 . S
C173 O181 1.252 . S
C174 O177 1.252 . S
C174 O178 1.260 . S
O175 In169 2.266 . S
O175 C172 1.252 . S
O176 In169 2.326 . S
O176 C172 1.260 . S
O177 In169 2.266 . S
O177 C174 1.252 . S
O178 In169 2.326 . S
O178 C174 1.260 . S
C179 O170 1.240 . S
C179 O171 1.252 . S
O180 In169 2.294 . S
O180 C173 1.240 . S
O181 In169 2.326 . S
O181 C173 1.252 . S
In182 O183 2.294 . S
In182 O184 2.326 . S
In182 O188 2.266 . S
In182 O189 2.326 . S
In182 O190 2.266 . S
In182 O191 2.326 . S
In182 O193 2.294 . S
In182 O194 2.326 . S
O183 In182 2.294 . S
O183 C192 1.240 . S
O184 In182 2.326 . S
O184 C192 1.252 . S
C185 O188 1.252 . S
C185 O189 1.260 . S
C186 O193 1.240 . S
C186 O194 1.252 . S
C187 O190 1.252 . S
C187 O191 1.260 . S
O188 In182 2.266 . S
O188 C185 1.252 . S
O189 In182 2.326 . S
O189 C185 1.260 . S
O190 In182 2.266 . S
O190 C187 1.252 . S
O191 In182 2.326 . S
O191 C187 1.260 . S
C192 O183 1.240 . S
C192 O184 1.252 . S
O193 In182 2.294 . S
O193 C186 1.240 . S
O194 In182 2.326 . S
O194 C186 1.252 . S
In195 O196 2.294 . S
In195 O197 2.326 . S
In195 O201 2.266 . S
In195 O202 2.326 . S
In195 O203 2.266 . S
In195 O204 2.326 . S
In195 O206 2.294 . S
In195 O207 2.326 . S
O196 In195 2.294 . S
O196 C205 1.240 . S
O197 In195 2.326 . S
O197 C205 1.252 . S
C198 O201 1.252 . S
C198 O202 1.260 . S
C199 O206 1.240 . S
C199 O207 1.252 . S
C200 O203 1.252 . S
C200 O204 1.260 . S
O201 In195 2.266 . S
O201 C198 1.252 . S
O202 In195 2.326 . S
O202 C198 1.260 . S
O203 In195 2.266 . S
O203 C200 1.252 . S
O204 In195 2.326 . S
O204 C200 1.260 . S
C205 O196 1.240 . S
C205 O197 1.252 . S
O206 In195 2.294 . S
O206 C199 1.240 . S
O207 In195 2.326 . S
O207 C199 1.252 . S
H208 C216 0.929 . S
H209 C218 0.930 1_545 S
H210 C220 0.930 . S
H211 C223 0.929 . S
H212 C226 0.930 . S
H213 C228 0.960 . S
H214 C228 0.960 1_545 S
H215 C228 0.960 . S
C216 H208 0.929 . S
C216 C217 1.377 . S
C216 C218 1.384 . S
C217 C216 1.377 . S
C217 C223 1.390 . S
C218 H209 0.930 1_565 S
C218 C216 1.384 . S
C218 C219 1.372 . S
C219 C218 1.372 . S
C219 C220 1.400 . S
C219 C224 1.490 . S
C220 H210 0.930 . S
C220 C219 1.400 . S
C220 C223 1.386 . S
H221 C237 0.930 . S
H222 C238 0.931 1_565 S
C223 H211 0.929 . S
C223 C217 1.390 . S
C223 C220 1.386 . S
C224 C219 1.490 . S
C224 C226 1.395 . S
C224 C227 1.403 . S
H225 C231 0.930 . S
C226 H212 0.930 . S
C226 C224 1.395 . S
C226 C229 1.403 1_665 S
C227 C224 1.403 . S
C227 C228 1.524 . S
C227 C231 1.400 1_665 S
C228 H213 0.960 . S
C228 H214 0.960 1_565 S
C228 H215 0.960 . S
C228 C227 1.524 . S
C229 C226 1.403 1_445 S
C229 C230 1.392 . S
C229 C233 1.495 . S
C230 C229 1.392 . S
C230 C231 1.385 . S
C230 C232 1.478 . S
C231 H225 0.930 . S
C231 C227 1.400 1_445 S
C231 C230 1.385 . S
C232 C230 1.478 . S
C232 C234 1.381 . S
C232 C238 1.383 . S
C233 C229 1.495 . S
C233 H239 0.959 . S
C233 H240 0.961 . S
C233 H241 0.960 . S
C234 C232 1.381 . S
C234 C235 1.394 . S
C234 H242 0.930 . S
C235 C234 1.394 . S
C235 C236 1.383 . S
C235 H243 0.929 . S
C236 C235 1.383 . S
C236 C237 1.377 . S
C237 H221 0.930 . S
C237 C236 1.377 . S
C237 C238 1.379 . S
C238 H222 0.931 1_545 S
C238 C232 1.383 . S
C238 C237 1.379 . S
H239 C233 0.959 . S
H240 C233 0.961 . S
H241 C233 0.960 . S
H242 C234 0.930 . S
H243 C235 0.929 . S
H244 C252 0.929 . S
H245 C254 0.930 . S
H246 C256 0.930 1_455 S
H247 C259 0.929 . S
H248 C262 0.930 . S
H249 C264 0.960 . S
H250 C264 0.960 . S
H251 C264 0.960 . S
C252 H244 0.929 . S
C252 C253 1.377 . S
C252 C254 1.384 . S
C253 C252 1.377 . S
C253 C259 1.390 . S
C254 H245 0.930 . S
C254 C252 1.384 . S
C254 C255 1.372 . S
C255 C254 1.372 . S
C255 C256 1.400 . S
C255 C260 1.490 . S
C256 H246 0.930 1_655 S
C256 C255 1.400 . S
C256 C259 1.386 . S
H257 C273 0.930 . S
H258 C274 0.931 . S
C259 H247 0.929 . S
C259 C253 1.390 . S
C259 C256 1.386 . S
C260 C255 1.490 . S
C260 C262 1.395 . S
C260 C263 1.403 1_655 S
H261 C267 0.930 . S
C262 H248 0.930 . S
C262 C260 1.395 . S
C262 C265 1.403 . S
C263 C260 1.403 1_455 S
C263 C264 1.524 . S
C263 C267 1.400 . S
C264 H249 0.960 . S
C264 H250 0.960 . S
C264 H251 0.960 . S
C264 C263 1.524 . S
C265 C262 1.403 . S
C265 C266 1.392 1_655 S
C265 C269 1.495 . S
C266 C265 1.392 1_455 S
C266 C267 1.385 . S
C266 C268 1.478 . S
C267 H261 0.930 . S
C267 C263 1.400 . S
C267 C266 1.385 . S
C268 C266 1.478 . S
C268 C270 1.381 . S
C268 C274 1.383 . S
C269 C265 1.495 . S
C269 H275 0.959 . S
C269 H276 0.961 . S
C269 H277 0.960 . S
C270 C268 1.381 . S
C270 C271 1.394 . S
C270 H278 0.930 1_455 S
C271 C270 1.394 . S
C271 C272 1.383 . S
C271 H279 0.929 . S
C272 C271 1.383 . S
C272 C273 1.377 . S
C273 H257 0.930 . S
C273 C272 1.377 . S
C273 C274 1.379 . S
C274 H258 0.931 . S
C274 C268 1.383 . S
C274 C273 1.379 . S
H275 C269 0.959 . S
H276 C269 0.961 . S
H277 C269 0.960 . S
H278 C270 0.930 1_655 S
H279 C271 0.929 . S
H280 C288 0.929 . S
H281 C290 0.930 . S
H282 C292 0.930 . S
H283 C295 0.929 . S
H284 C298 0.930 . S
H285 C300 0.960 . S
H286 C300 0.960 . S
H287 C300 0.960 . S
C288 H280 0.929 . S
C288 C289 1.377 . S
C288 C290 1.384 . S
C289 C288 1.377 . S
C289 C295 1.390 . S
C290 H281 0.930 . S
C290 C288 1.384 . S
C290 C291 1.372 . S
C291 C290 1.372 . S
C291 C292 1.400 . S
C291 C296 1.490 . S
C292 H282 0.930 . S
C292 C291 1.400 . S
C292 C295 1.386 . S
H293 C309 0.930 . S
H294 C310 0.931 . S
C295 H283 0.929 . S
C295 C289 1.390 . S
C295 C292 1.386 . S
C296 C291 1.490 . S
C296 C298 1.395 . S
C296 C299 1.403 . S
H297 C303 0.930 . S
C298 H284 0.930 . S
C298 C296 1.395 . S
C298 C301 1.403 . S
C299 C296 1.403 . S
C299 C300 1.524 . S
C299 C303 1.400 . S
C300 H285 0.960 . S
C300 H286 0.960 . S
C300 H287 0.960 . S
C300 C299 1.524 . S
C301 C298 1.403 . S
C301 C302 1.392 . S
C301 C305 1.495 . S
C302 C301 1.392 . S
C302 C303 1.385 . S
C302 C304 1.478 . S
C303 H297 0.930 . S
C303 C299 1.400 . S
C303 C302 1.385 . S
C304 C302 1.478 . S
C304 C306 1.381 . S
C304 C310 1.383 . S
C305 C301 1.495 . S
C305 H311 0.959 . S
C305 H312 0.961 . S
C305 H313 0.960 . S
C306 C304 1.381 . S
C306 C307 1.394 . S
C306 H314 0.930 . S
C307 C306 1.394 . S
C307 C308 1.383 . S
C307 H315 0.929 . S
C308 C307 1.383 . S
C308 C309 1.377 . S
C309 H293 0.930 . S
C309 C308 1.377 . S
C309 C310 1.379 . S
C310 H294 0.931 . S
C310 C304 1.383 . S
C310 C309 1.379 . S
H311 C305 0.959 . S
H312 C305 0.961 . S
H313 C305 0.960 . S
H314 C306 0.930 . S
H315 C307 0.929 . S
H316 C324 0.929 . S
H317 C326 0.930 . S
H318 C328 0.930 . S
H319 C331 0.929 . S
H320 C334 0.930 . S
H321 C336 0.960 . S
H322 C336 0.960 . S
H323 C336 0.960 . S
C324 H316 0.929 . S
C324 C325 1.377 . S
C324 C326 1.384 . S
C325 C324 1.377 . S
C325 C331 1.390 . S
C326 H317 0.930 . S
C326 C324 1.384 . S
C326 C327 1.372 . S
C327 C326 1.372 . S
C327 C328 1.400 . S
C327 C332 1.490 . S
C328 H318 0.930 . S
C328 C327 1.400 . S
C328 C331 1.386 . S
H329 C345 0.930 . S
H330 C346 0.931 . S
C331 H319 0.929 . S
C331 C325 1.390 . S
C331 C328 1.386 . S
C332 C327 1.490 . S
C332 C334 1.395 . S
C332 C335 1.403 . S
H333 C339 0.930 . S
C334 H320 0.930 . S
C334 C332 1.395 . S
C334 C337 1.403 1_545 S
C335 C332 1.403 . S
C335 C336 1.524 . S
C335 C339 1.400 1_545 S
C336 H321 0.960 . S
C336 H322 0.960 . S
C336 H323 0.960 . S
C336 C335 1.524 . S
C337 C334 1.403 1_565 S
C337 C338 1.392 . S
C337 C341 1.495 . S
C338 C337 1.392 . S
C338 C339 1.385 . S
C338 C340 1.478 . S
C339 H333 0.930 . S
C339 C335 1.400 1_565 S
C339 C338 1.385 . S
C340 C338 1.478 . S
C340 C342 1.381 . S
C340 C346 1.383 . S
C341 C337 1.495 . S
C341 H347 0.959 . S
C341 H348 0.961 . S
C341 H349 0.960 . S
C342 C340 1.381 . S
C342 C343 1.394 . S
C342 H350 0.930 . S
C343 C342 1.394 . S
C343 C344 1.383 . S
C343 H351 0.929 . S
C344 C343 1.383 . S
C344 C345 1.377 . S
C345 H329 0.930 . S
C345 C344 1.377 . S
C345 C346 1.379 . S
C346 H330 0.931 . S
C346 C340 1.383 . S
C346 C345 1.379 . S
H347 C341 0.959 . S
H348 C341 0.961 . S
H349 C341 0.960 . S
H350 C342 0.930 . S
H351 C343 0.929 . S
H352 C360 0.929 . S
H353 C362 0.930 . S
H354 C364 0.930 . S
H355 C367 0.929 . S
H356 C370 0.930 . S
H357 C372 0.960 1_655 S
H358 C372 0.960 . S
H359 C372 0.960 . S
C360 H352 0.929 . S
C360 C361 1.377 . S
C360 C362 1.384 . S
C361 C360 1.377 . S
C361 C367 1.390 . S
C362 H353 0.930 . S
C362 C360 1.384 . S
C362 C363 1.372 . S
C363 C362 1.372 . S
C363 C364 1.400 . S
C363 C368 1.490 . S
C364 H354 0.930 . S
C364 C363 1.400 . S
C364 C367 1.386 . S
H365 C381 0.930 . S
H366 C382 0.931 . S
C367 H355 0.929 . S
C367 C361 1.390 . S
C367 C364 1.386 . S
C368 C363 1.490 . S
C368 C370 1.395 . S
C368 C371 1.403 . S
H369 C375 0.930 . S
C370 H356 0.930 . S
C370 C368 1.395 . S
C370 C373 1.403 1_455 S
C371 C368 1.403 . S
C371 C372 1.524 . S
C371 C375 1.400 1_455 S
C372 H357 0.960 1_455 S
C372 H358 0.960 . S
C372 H359 0.960 . S
C372 C371 1.524 . S
C373 C370 1.403 1_655 S
C373 C374 1.392 . S
C373 C377 1.495 . S
C374 C373 1.392 . S
C374 C375 1.385 . S
C374 C376 1.478 . S
C375 H369 0.930 . S
C375 C371 1.400 1_655 S
C375 C374 1.385 . S
C376 C374 1.478 . S
C376 C378 1.381 . S
C376 C382 1.383 . S
C377 C373 1.495 . S
C377 H383 0.959 1_655 S
C377 H384 0.961 . S
C377 H385 0.960 . S
C378 C376 1.381 . S
C378 C379 1.394 . S
C378 H386 0.930 . S
C379 C378 1.394 . S
C379 C380 1.383 . S
C379 H387 0.929 . S
C380 C379 1.383 . S
C380 C381 1.377 . S
C381 H365 0.930 . S
C381 C380 1.377 . S
C381 C382 1.379 . S
C382 H366 0.931 . S
C382 C376 1.383 . S
C382 C381 1.379 . S
H383 C377 0.959 1_455 S
H384 C377 0.961 . S
H385 C377 0.960 . S
H386 C378 0.930 . S
H387 C379 0.929 . S
H388 C396 0.929 . S
H389 C398 0.930 . S
H390 C400 0.930 . S
H391 C403 0.929 . S
H392 C406 0.930 . S
H393 C408 0.960 . S
H394 C408 0.960 . S
H395 C408 0.960 . S
C396 H388 0.929 . S
C396 C397 1.377 . S
C396 C398 1.384 . S
C397 C396 1.377 . S
C397 C403 1.390 . S
C398 H389 0.930 . S
C398 C396 1.384 . S
C398 C399 1.372 . S
C399 C398 1.372 . S
C399 C400 1.400 . S
C399 C404 1.490 . S
C400 H390 0.930 . S
C400 C399 1.400 . S
C400 C403 1.386 . S
H401 C417 0.930 . S
H402 C418 0.931 . S
C403 H391 0.929 . S
C403 C397 1.390 . S
C403 C400 1.386 . S
C404 C399 1.490 . S
C404 C406 1.395 . S
C404 C407 1.403 . S
H405 C411 0.930 . S
C406 H392 0.930 . S
C406 C404 1.395 . S
C406 C409 1.403 . S
C407 C404 1.403 . S
C407 C408 1.524 . S
C407 C411 1.400 . S
C408 H393 0.960 . S
C408 H394 0.960 . S
C408 H395 0.960 . S
C408 C407 1.524 . S
C409 C406 1.403 . S
C409 C410 1.392 . S
C409 C413 1.495 . S
C410 C409 1.392 . S
C410 C411 1.385 . S
C410 C412 1.478 . S
C411 H405 0.930 . S
C411 C407 1.400 . S
C411 C410 1.385 . S
C412 C410 1.478 . S
C412 C414 1.381 . S
C412 C418 1.383 . S
C413 C409 1.495 . S
C413 H419 0.959 . S
C413 H420 0.961 . S
C413 H421 0.960 . S
C414 C412 1.381 . S
C414 C415 1.394 . S
C414 H422 0.930 . S
C415 C414 1.394 . S
C415 C416 1.383 . S
C415 H423 0.929 . S
C416 C415 1.383 . S
C416 C417 1.377 . S
C417 H401 0.930 . S
C417 C416 1.377 . S
C417 C418 1.379 . S
C418 H402 0.931 . S
C418 C412 1.383 . S
C418 C417 1.379 . S
H419 C413 0.959 . S
H420 C413 0.961 . S
H421 C413 0.960 . S
H422 C414 0.930 . S
H423 C415 0.929 . S
H424 C432 0.929 . S
H425 C434 0.930 . S
H426 C436 0.930 . S
H427 C439 0.929 . S
H428 C442 0.930 . S
H429 C444 0.960 . S
H430 C444 0.960 . S
H431 C444 0.960 . S
C432 H424 0.929 . S
C432 C433 1.377 . S
C432 C434 1.384 . S
C433 C432 1.377 . S
C433 C439 1.390 . S
C434 H425 0.930 . S
C434 C432 1.384 . S
C434 C435 1.372 . S
C435 C434 1.372 . S
C435 C436 1.400 . S
C435 C440 1.490 . S
C436 H426 0.930 . S
C436 C435 1.400 . S
C436 C439 1.386 . S
H437 C453 0.930 . S
H438 C454 0.931 . S
C439 H427 0.929 . S
C439 C433 1.390 . S
C439 C436 1.386 . S
C440 C435 1.490 . S
C440 C442 1.395 1_545 S
C440 C443 1.403 . S
H441 C447 0.930 . S
C442 H428 0.930 . S
C442 C440 1.395 1_565 S
C442 C445 1.403 . S
C443 C440 1.403 . S
C443 C444 1.524 . S
C443 C447 1.400 . S
C444 H429 0.960 . S
C444 H430 0.960 . S
C444 H431 0.960 . S
C444 C443 1.524 . S
C445 C442 1.403 . S
C445 C446 1.392 . S
C445 C449 1.495 . S
C446 C445 1.392 . S
C446 C447 1.385 1_565 S
C446 C448 1.478 . S
C447 H441 0.930 . S
C447 C443 1.400 . S
C447 C446 1.385 1_545 S
C448 C446 1.478 . S
C448 C450 1.381 . S
C448 C454 1.383 . S
C449 C445 1.495 . S
C449 H455 0.959 . S
C449 H456 0.961 . S
C449 H457 0.960 . S
C450 C448 1.381 . S
C450 C451 1.394 . S
C450 H458 0.930 . S
C451 C450 1.394 . S
C451 C452 1.383 . S
C451 H459 0.929 . S
C452 C451 1.383 . S
C452 C453 1.377 . S
C453 H437 0.930 . S
C453 C452 1.377 . S
C453 C454 1.379 . S
C454 H438 0.931 . S
C454 C448 1.383 . S
C454 C453 1.379 . S
H455 C449 0.959 . S
H456 C449 0.961 . S
H457 C449 0.960 . S
H458 C450 0.930 . S
H459 C451 0.929 . S
H460 C468 0.929 . S
H461 C470 0.930 . S
H462 C472 0.930 . S
H463 C475 0.929 . S
H464 C478 0.930 . S
H465 C480 0.960 . S
H466 C480 0.960 . S
H467 C480 0.960 . S
C468 H460 0.929 . S
C468 C469 1.377 . S
C468 C470 1.384 . S
C469 C468 1.377 . S
C469 C475 1.390 . S
C470 H461 0.930 . S
C470 C468 1.384 . S
C470 C471 1.372 . S
C471 C470 1.372 . S
C471 C472 1.400 . S
C471 C476 1.490 . S
C472 H462 0.930 . S
C472 C471 1.400 . S
C472 C475 1.386 . S
H473 C489 0.930 . S
H474 C490 0.931 . S
C475 H463 0.929 . S
C475 C469 1.390 . S
C475 C472 1.386 . S
C476 C471 1.490 . S
C476 C478 1.395 . S
C476 C479 1.403 1_455 S
H477 C483 0.930 . S
C478 H464 0.930 . S
C478 C476 1.395 . S
C478 C481 1.403 1_545 S
C479 C476 1.403 1_655 S
C479 C480 1.524 . S
C479 C483 1.400 1_545 S
C480 H465 0.960 . S
C480 H466 0.960 . S
C480 H467 0.960 . S
C480 C479 1.524 . S
C481 C478 1.403 1_565 S
C481 C482 1.392 1_455 S
C481 C485 1.495 . S
C482 C481 1.392 1_655 S
C482 C483 1.385 . S
C482 C484 1.478 . S
C483 H477 0.930 . S
C483 C479 1.400 1_565 S
C483 C482 1.385 . S
C484 C482 1.478 . S
C484 C486 1.381 . S
C484 C490 1.383 . S
C485 C481 1.495 . S
C485 H491 0.959 . S
C485 H492 0.961 . S
C485 H493 0.960 . S
C486 C484 1.381 . S
C486 C487 1.394 . S
C486 H494 0.930 . S
C487 C486 1.394 . S
C487 C488 1.383 . S
C487 H495 0.929 . S
C488 C487 1.383 . S
C488 C489 1.377 . S
C489 H473 0.930 . S
C489 C488 1.377 . S
C489 C490 1.379 . S
C490 H474 0.931 . S
C490 C484 1.383 . S
C490 C489 1.379 . S
H491 C485 0.959 . S
H492 C485 0.961 . S
H493 C485 0.960 . S
H494 C486 0.930 . S
H495 C487 0.929 . S
H496 C504 0.929 . S
H497 C506 0.930 . S
H498 C508 0.930 1_545 S
H499 C511 0.929 . S
H500 C514 0.930 . S
H501 C516 0.960 . S
H502 C516 0.960 . S
H503 C516 0.960 . S
C504 H496 0.929 . S
C504 C505 1.377 . S
C504 C506 1.384 . S
C505 C504 1.377 . S
C505 C511 1.390 . S
C506 H497 0.930 . S
C506 C504 1.384 . S
C506 C507 1.372 . S
C507 C506 1.372 . S
C507 C508 1.400 . S
C507 C512 1.490 . S
C508 H498 0.930 1_565 S
C508 C507 1.400 . S
C508 C511 1.386 . S
H509 C525 0.930 . S
H510 C526 0.931 . S
C511 H499 0.929 . S
C511 C505 1.390 . S
C511 C508 1.386 . S
C512 C507 1.490 . S
C512 C514 1.395 . S
C512 C515 1.403 . S
H513 C519 0.930 . S
C514 H500 0.930 . S
C514 C512 1.395 . S
C514 C517 1.403 1_565 S
C515 C512 1.403 . S
C515 C516 1.524 . S
C515 C519 1.400 1_565 S
C516 H501 0.960 . S
C516 H502 0.960 . S
C516 H503 0.960 . S
C516 C515 1.524 . S
C517 C514 1.403 1_545 S
C517 C518 1.392 . S
C517 C521 1.495 . S
C518 C517 1.392 . S
C518 C519 1.385 . S
C518 C520 1.478 . S
C519 H513 0.930 . S
C519 C515 1.400 1_545 S
C519 C518 1.385 . S
C520 C518 1.478 . S
C520 C522 1.381 . S
C520 C526 1.383 . S
C521 C517 1.495 . S
C521 H527 0.959 . S
C521 H528 0.961 . S
C521 H529 0.960 . S
C522 C520 1.381 . S
C522 C523 1.394 . S
C522 H530 0.930 1_545 S
C523 C522 1.394 . S
C523 C524 1.383 . S
C523 H531 0.929 . S
C524 C523 1.383 . S
C524 C525 1.377 . S
C525 H509 0.930 . S
C525 C524 1.377 . S
C525 C526 1.379 . S
C526 H510 0.931 . S
C526 C520 1.383 . S
C526 C525 1.379 . S
H527 C521 0.959 . S
H528 C521 0.961 . S
H529 C521 0.960 . S
H530 C522 0.930 1_565 S
H531 C523 0.929 . S
H532 C540 0.929 . S
H533 C542 0.930 1_455 S
H534 C544 0.930 . S
H535 C547 0.929 . S
H536 C550 0.930 . S
H537 C552 0.960 1_545 S
H538 C552 0.960 . S
H539 C552 0.960 . S
C540 H532 0.929 . S
C540 C541 1.377 . S
C540 C542 1.384 . S
C541 C540 1.377 . S
C541 C547 1.390 . S
C542 H533 0.930 1_655 S
C542 C540 1.384 . S
C542 C543 1.372 . S
C543 C542 1.372 . S
C543 C544 1.400 . S
C543 C548 1.490 . S
C544 H534 0.930 . S
C544 C543 1.400 . S
C544 C547 1.386 . S
H545 C561 0.930 . S
H546 C562 0.931 1_655 S
C547 H535 0.929 . S
C547 C541 1.390 . S
C547 C544 1.386 . S
C548 C543 1.490 . S
C548 C550 1.395 1_655 S
C548 C551 1.403 . S
H549 C555 0.930 . S
C550 H536 0.930 . S
C550 C548 1.395 1_455 S
C550 C553 1.403 1_565 S
C551 C548 1.403 . S
C551 C552 1.524 . S
C551 C555 1.400 1_565 S
C552 H537 0.960 1_565 S
C552 H538 0.960 . S
C552 H539 0.960 . S
C552 C551 1.524 . S
C553 C550 1.403 1_545 S
C553 C554 1.392 . S
C553 C557 1.495 . S
C554 C553 1.392 . S
C554 C555 1.385 1_455 S
C554 C556 1.478 . S
C555 H549 0.930 . S
C555 C551 1.400 1_545 S
C555 C554 1.385 1_655 S
C556 C554 1.478 . S
C556 C558 1.381 . S
C556 C562 1.383 . S
C557 C553 1.495 . S
C557 H563 0.959 1_545 S
C557 H564 0.961 . S
C557 H565 0.960 . S
C558 C556 1.381 . S
C558 C559 1.394 . S
C558 H566 0.930 . S
C559 C558 1.394 . S
C559 C560 1.383 . S
C559 H567 0.929 . S
C560 C559 1.383 . S
C560 C561 1.377 . S
C561 H545 0.930 . S
C561 C560 1.377 . S
C561 C562 1.379 . S
C562 H546 0.931 1_455 S
C562 C556 1.383 . S
C562 C561 1.379 . S
H563 C557 0.959 1_565 S
H564 C557 0.961 . S
H565 C557 0.960 . S
H566 C558 0.930 . S
H567 C559 0.929 . S
H568 C576 0.929 . S
H569 C578 0.930 . S
H570 C580 0.930 . S
H571 C583 0.929 . S
H572 C586 0.930 . S
H573 C588 0.960 1_655 S
H574 C588 0.960 . S
H575 C588 0.960 . S
C576 H568 0.929 . S
C576 C577 1.377 . S
C576 C578 1.384 . S
C577 C576 1.377 . S
C577 C583 1.390 . S
C578 H569 0.930 . S
C578 C576 1.384 . S
C578 C579 1.372 . S
C579 C578 1.372 . S
C579 C580 1.400 . S
C579 C584 1.490 . S
C580 H570 0.930 . S
C580 C579 1.400 . S
C580 C583 1.386 . S
H581 C597 0.930 . S
H582 C598 0.931 . S
C583 H571 0.929 . S
C583 C577 1.390 . S
C583 C580 1.386 . S
C584 C579 1.490 . S
C584 C586 1.395 . S
C584 C587 1.403 . S
H585 C591 0.930 . S
C586 H572 0.930 . S
C586 C584 1.395 . S
C586 C589 1.403 1_455 S
C587 C584 1.403 . S
C587 C588 1.524 . S
C587 C591 1.400 1_455 S
C588 H573 0.960 1_455 S
C588 H574 0.960 . S
C588 H575 0.960 . S
C588 C587 1.524 . S
C589 C586 1.403 1_655 S
C589 C590 1.392 . S
C589 C593 1.495 . S
C590 C589 1.392 . S
C590 C591 1.385 . S
C590 C592 1.478 . S
C591 H585 0.930 . S
C591 C587 1.400 1_655 S
C591 C590 1.385 . S
C592 C590 1.478 . S
C592 C594 1.381 . S
C592 C598 1.383 . S
C593 C589 1.495 . S
C593 H599 0.959 1_655 S
C593 H600 0.961 . S
C593 H601 0.960 . S
C594 C592 1.381 . S
C594 C595 1.394 . S
C594 H602 0.930 . S
C595 C594 1.394 . S
C595 C596 1.383 . S
C595 H603 0.929 . S
C596 C595 1.383 . S
C596 C597 1.377 . S
C597 H581 0.930 . S
C597 C596 1.377 . S
C597 C598 1.379 . S
C598 H582 0.931 . S
C598 C592 1.383 . S
C598 C597 1.379 . S
H599 C593 0.959 1_455 S
H600 C593 0.961 . S
H601 C593 0.960 . S
H602 C594 0.930 . S
H603 C595 0.929 . S
H604 C612 0.929 . S
H605 C614 0.930 . S
H606 C616 0.930 . S
H607 C619 0.929 . S
H608 C622 0.930 . S
H609 C624 0.960 . S
H610 C624 0.960 . S
H611 C624 0.960 . S
C612 H604 0.929 . S
C612 C613 1.377 . S
C612 C614 1.384 . S
C613 C612 1.377 . S
C613 C619 1.390 . S
C614 H605 0.930 . S
C614 C612 1.384 . S
C614 C615 1.372 . S
C615 C614 1.372 . S
C615 C616 1.400 . S
C615 C620 1.490 . S
C616 H606 0.930 . S
C616 C615 1.400 . S
C616 C619 1.386 . S
H617 C633 0.930 . S
H618 C634 0.931 . S
C619 H607 0.929 . S
C619 C613 1.390 . S
C619 C616 1.386 . S
C620 C615 1.490 . S
C620 C622 1.395 . S
C620 C623 1.403 . S
H621 C627 0.930 . S
C622 H608 0.930 . S
C622 C620 1.395 . S
C622 C625 1.403 . S
C623 C620 1.403 . S
C623 C624 1.524 . S
C623 C627 1.400 . S
C624 H609 0.960 . S
C624 H610 0.960 . S
C624 H611 0.960 . S
C624 C623 1.524 . S
C625 C622 1.403 . S
C625 C626 1.392 . S
C625 C629 1.495 . S
C626 C625 1.392 . S
C626 C627 1.385 . S
C626 C628 1.478 . S
C627 H621 0.930 . S
C627 C623 1.400 . S
C627 C626 1.385 . S
C628 C626 1.478 . S
C628 C630 1.381 . S
C628 C634 1.383 . S
C629 C625 1.495 . S
C629 H635 0.959 . S
C629 H636 0.961 . S
C629 H637 0.960 . S
C630 C628 1.381 . S
C630 C631 1.394 . S
C630 H638 0.930 . S
C631 C630 1.394 . S
C631 C632 1.383 . S
C631 H639 0.929 . S
C632 C631 1.383 . S
C632 C633 1.377 . S
C633 H617 0.930 . S
C633 C632 1.377 . S
C633 C634 1.379 . S
C634 H618 0.931 . S
C634 C628 1.383 . S
C634 C633 1.379 . S
H635 C629 0.959 . S
H636 C629 0.961 . S
H637 C629 0.960 . S
H638 C630 0.930 . S
H639 C631 0.929 . S
H640 C648 0.929 . S
H641 C650 0.930 . S
H642 C652 0.930 . S
H643 C655 0.929 . S
H644 C658 0.930 . S
H645 C660 0.960 . S
H646 C660 0.960 . S
H647 C660 0.960 . S
C648 H640 0.929 . S
C648 C649 1.377 . S
C648 C650 1.384 . S
C649 C648 1.377 . S
C649 C655 1.390 . S
C650 H641 0.930 . S
C650 C648 1.384 . S
C650 C651 1.372 . S
C651 C650 1.372 . S
C651 C652 1.400 . S
C651 C656 1.490 . S
C652 H642 0.930 . S
C652 C651 1.400 . S
C652 C655 1.386 . S
H653 C669 0.930 . S
H654 C670 0.931 . S
C655 H643 0.929 . S
C655 C649 1.390 . S
C655 C652 1.386 . S
C656 C651 1.490 . S
C656 C658 1.395 . S
C656 C659 1.403 . S
H657 C663 0.930 . S
C658 H644 0.930 . S
C658 C656 1.395 . S
C658 C661 1.403 . S
C659 C656 1.403 . S
C659 C660 1.524 . S
C659 C663 1.400 . S
C660 H645 0.960 . S
C660 H646 0.960 . S
C660 H647 0.960 . S
C660 C659 1.524 . S
C661 C658 1.403 . S
C661 C662 1.392 . S
C661 C665 1.495 . S
C662 C661 1.392 . S
C662 C663 1.385 . S
C662 C664 1.478 . S
C663 H657 0.930 . S
C663 C659 1.400 . S
C663 C662 1.385 . S
C664 C662 1.478 . S
C664 C666 1.381 . S
C664 C670 1.383 . S
C665 C661 1.495 . S
C665 H671 0.959 . S
C665 H672 0.961 . S
C665 H673 0.960 . S
C666 C664 1.381 . S
C666 C667 1.394 . S
C666 H674 0.930 . S
C667 C666 1.394 . S
C667 C668 1.383 . S
C667 H675 0.929 . S
C668 C667 1.383 . S
C668 C669 1.377 . S
C669 H653 0.930 . S
C669 C668 1.377 . S
C669 C670 1.379 . S
C670 H654 0.931 . S
C670 C664 1.383 . S
C670 C669 1.379 . S
H671 C665 0.959 . S
H672 C665 0.961 . S
H673 C665 0.960 . S
H674 C666 0.930 . S
H675 C667 0.929 . S
H676 C684 0.929 . S
H677 C686 0.930 . S
H678 C688 0.930 . S
H679 C691 0.929 . S
H680 C694 0.930 . S
H681 C696 0.960 1_545 S
H682 C696 0.960 . S
H683 C696 0.960 . S
C684 H676 0.929 . S
C684 C685 1.377 . S
C684 C686 1.384 . S
C685 C684 1.377 . S
C685 C691 1.390 . S
C686 H677 0.930 . S
C686 C684 1.384 . S
C686 C687 1.372 . S
C687 C686 1.372 . S
C687 C688 1.400 . S
C687 C692 1.490 . S
C688 H678 0.930 . S
C688 C687 1.400 . S
C688 C691 1.386 . S
H689 C705 0.930 . S
H690 C706 0.931 . S
C691 H679 0.929 . S
C691 C685 1.390 . S
C691 C688 1.386 . S
C692 C687 1.490 . S
C692 C694 1.395 . S
C692 C695 1.403 . S
H693 C699 0.930 . S
C694 H680 0.930 . S
C694 C692 1.395 . S
C694 C697 1.403 1_565 S
C695 C692 1.403 . S
C695 C696 1.524 . S
C695 C699 1.400 1_565 S
C696 H681 0.960 1_565 S
C696 H682 0.960 . S
C696 H683 0.960 . S
C696 C695 1.524 . S
C697 C694 1.403 1_545 S
C697 C698 1.392 . S
C697 C701 1.495 . S
C698 C697 1.392 . S
C698 C699 1.385 . S
C698 C700 1.478 . S
C699 H693 0.930 . S
C699 C695 1.400 1_545 S
C699 C698 1.385 . S
C700 C698 1.478 . S
C700 C702 1.381 . S
C700 C706 1.383 . S
C701 C697 1.495 . S
C701 H707 0.959 1_545 S
C701 H708 0.961 . S
C701 H709 0.960 . S
C702 C700 1.381 . S
C702 C703 1.394 . S
C702 H710 0.930 . S
C703 C702 1.394 . S
C703 C704 1.383 . S
C703 H711 0.929 . S
C704 C703 1.383 . S
C704 C705 1.377 . S
C705 H689 0.930 . S
C705 C704 1.377 . S
C705 C706 1.379 . S
C706 H690 0.931 . S
C706 C700 1.383 . S
C706 C705 1.379 . S
H707 C701 0.959 1_565 S
H708 C701 0.961 . S
H709 C701 0.960 . S
H710 C702 0.930 . S
H711 C703 0.929 . S
H712 C720 0.929 . S
H713 C722 0.930 . S
H714 C724 0.930 . S
H715 C727 0.929 . S
H716 C730 0.930 . S
H717 C732 0.960 . S
H718 C732 0.960 . S
H719 C732 0.960 . S
C720 H712 0.929 . S
C720 C721 1.377 . S
C720 C722 1.384 . S
C721 C720 1.377 . S
C721 C727 1.390 . S
C722 H713 0.930 . S
C722 C720 1.384 . S
C722 C723 1.372 . S
C723 C722 1.372 . S
C723 C724 1.400 . S
C723 C728 1.490 . S
C724 H714 0.930 . S
C724 C723 1.400 . S
C724 C727 1.386 . S
H725 C741 0.930 . S
H726 C742 0.931 . S
C727 H715 0.929 . S
C727 C721 1.390 . S
C727 C724 1.386 . S
C728 C723 1.490 . S
C728 C730 1.395 . S
C728 C731 1.403 1_565 S
H729 C735 0.930 . S
C730 H716 0.930 . S
C730 C728 1.395 . S
C730 C733 1.403 1_655 S
C731 C728 1.403 1_545 S
C731 C732 1.524 . S
C731 C735 1.400 1_655 S
C732 H717 0.960 . S
C732 H718 0.960 . S
C732 H719 0.960 . S
C732 C731 1.524 . S
C733 C730 1.403 1_455 S
C733 C734 1.392 1_565 S
C733 C737 1.495 . S
C734 C733 1.392 1_545 S
C734 C735 1.385 . S
C734 C736 1.478 . S
C735 H729 0.930 . S
C735 C731 1.400 1_455 S
C735 C734 1.385 . S
C736 C734 1.478 . S
C736 C738 1.381 . S
C736 C742 1.383 . S
C737 C733 1.495 . S
C737 H743 0.959 . S
C737 H744 0.961 . S
C737 H745 0.960 . S
C738 C736 1.381 . S
C738 C739 1.394 . S
C738 H746 0.930 . S
C739 C738 1.394 . S
C739 C740 1.383 . S
C739 H747 0.929 . S
C740 C739 1.383 . S
C740 C741 1.377 . S
C741 H725 0.930 . S
C741 C740 1.377 . S
C741 C742 1.379 . S
C742 H726 0.931 . S
C742 C736 1.383 . S
C742 C741 1.379 . S
H743 C737 0.959 . S
H744 C737 0.961 . S
H745 C737 0.960 . S
H746 C738 0.930 . S
H747 C739 0.929 . S
H748 C756 0.929 . S
H749 C758 0.930 . S
H750 C760 0.930 1_655 S
H751 C763 0.929 . S
H752 C766 0.930 . S
H753 C768 0.960 1_655 S
H754 C768 0.960 . S
H755 C768 0.960 1_655 S
C756 H748 0.929 . S
C756 C757 1.377 . S
C756 C758 1.384 . S
C757 C756 1.377 . S
C757 C763 1.390 . S
C758 H749 0.930 . S
C758 C756 1.384 . S
C758 C759 1.372 . S
C759 C758 1.372 . S
C759 C760 1.400 . S
C759 C764 1.490 . S
C760 H750 0.930 1_455 S
C760 C759 1.400 . S
C760 C763 1.386 . S
H761 C777 0.930 . S
H762 C778 0.931 . S
C763 H751 0.929 . S
C763 C757 1.390 . S
C763 C760 1.386 . S
C764 C759 1.490 . S
C764 C766 1.395 . S
C764 C767 1.403 . S
H765 C771 0.930 . S
C766 H752 0.930 . S
C766 C764 1.395 . S
C766 C769 1.403 . S
C767 C764 1.403 . S
C767 C768 1.524 . S
C767 C771 1.400 1_455 S
C768 H753 0.960 1_455 S
C768 H754 0.960 . S
C768 H755 0.960 1_455 S
C768 C767 1.524 . S
C769 C766 1.403 . S
C769 C770 1.392 1_455 S
C769 C773 1.495 . S
C770 C769 1.392 1_655 S
C770 C771 1.385 . S
C770 C772 1.478 . S
C771 H765 0.930 . S
C771 C767 1.400 1_655 S
C771 C770 1.385 . S
C772 C770 1.478 . S
C772 C774 1.381 . S
C772 C778 1.383 . S
C773 C769 1.495 . S
C773 H779 0.959 . S
C773 H780 0.961 1_455 S
C773 H781 0.960 . S
C774 C772 1.381 . S
C774 C775 1.394 . S
C774 H782 0.930 1_655 S
C775 C774 1.394 . S
C775 C776 1.383 . S
C775 H783 0.929 . S
C776 C775 1.383 . S
C776 C777 1.377 . S
C777 H761 0.930 . S
C777 C776 1.377 . S
C777 C778 1.379 . S
C778 H762 0.931 . S
C778 C772 1.383 . S
C778 C777 1.379 . S
H779 C773 0.959 . S
H780 C773 0.961 1_655 S
H781 C773 0.960 . S
H782 C774 0.930 1_455 S
H783 C775 0.929 . S
H784 C792 0.929 . S
H785 C794 0.930 . S
H786 C796 0.930 . S
H787 C799 0.929 . S
H788 C802 0.930 . S
H789 C804 0.960 . S
H790 C804 0.960 . S
H791 C804 0.960 . S
C792 H784 0.929 . S
C792 C793 1.377 . S
C792 C794 1.384 . S
C793 C792 1.377 . S
C793 C799 1.390 . S
C794 H785 0.930 . S
C794 C792 1.384 . S
C794 C795 1.372 . S
C795 C794 1.372 . S
C795 C796 1.400 . S
C795 C800 1.490 . S
C796 H786 0.930 . S
C796 C795 1.400 . S
C796 C799 1.386 . S
H797 C813 0.930 . S
H798 C814 0.931 . S
C799 H787 0.929 . S
C799 C793 1.390 . S
C799 C796 1.386 . S
C800 C795 1.490 . S
C800 C802 1.395 . S
C800 C803 1.403 . S
H801 C807 0.930 . S
C802 H788 0.930 . S
C802 C800 1.395 . S
C802 C805 1.403 . S
C803 C800 1.403 . S
C803 C804 1.524 . S
C803 C807 1.400 . S
C804 H789 0.960 . S
C804 H790 0.960 . S
C804 H791 0.960 . S
C804 C803 1.524 . S
C805 C802 1.403 . S
C805 C806 1.392 . S
C805 C809 1.495 . S
C806 C805 1.392 . S
C806 C807 1.385 . S
C806 C808 1.478 . S
C807 H801 0.930 . S
C807 C803 1.400 . S
C807 C806 1.385 . S
C808 C806 1.478 . S
C808 C810 1.381 . S
C808 C814 1.383 . S
C809 C805 1.495 . S
C809 H815 0.959 . S
C809 H816 0.961 . S
C809 H817 0.960 . S
C810 C808 1.381 . S
C810 C811 1.394 . S
C810 H818 0.930 . S
C811 C810 1.394 . S
C811 C812 1.383 . S
C811 H819 0.929 . S
C812 C811 1.383 . S
C812 C813 1.377 . S
C813 H797 0.930 . S
C813 C812 1.377 . S
C813 C814 1.379 . S
C814 H798 0.931 . S
C814 C808 1.383 . S
C814 C813 1.379 . S
H815 C809 0.959 . S
H816 C809 0.961 . S
H817 C809 0.960 . S
H818 C810 0.930 . S
H819 C811 0.929 . S
H820 C828 0.929 . S
H821 C830 0.930 . S
H822 C832 0.930 . S
H823 C835 0.929 . S
H824 C838 0.930 . S
H825 C840 0.960 . S
H826 C840 0.960 . S
H827 C840 0.960 . S
C828 H820 0.929 . S
C828 C829 1.377 . S
C828 C830 1.384 . S
C829 C828 1.377 . S
C829 C835 1.390 . S
C830 H821 0.930 . S
C830 C828 1.384 . S
C830 C831 1.372 . S
C831 C830 1.372 . S
C831 C832 1.400 . S
C831 C836 1.490 . S
C832 H822 0.930 . S
C832 C831 1.400 . S
C832 C835 1.386 . S
H833 C849 0.930 . S
H834 C850 0.931 . S
C835 H823 0.929 . S
C835 C829 1.390 . S
C835 C832 1.386 . S
C836 C831 1.490 . S
C836 C838 1.395 . S
C836 C839 1.403 . S
H837 C843 0.930 . S
C838 H824 0.930 . S
C838 C836 1.395 . S
C838 C841 1.403 . S
C839 C836 1.403 . S
C839 C840 1.524 . S
C839 C843 1.400 . S
C840 H825 0.960 . S
C840 H826 0.960 . S
C840 H827 0.960 . S
C840 C839 1.524 . S
C841 C838 1.403 . S
C841 C842 1.392 . S
C841 C845 1.495 . S
C842 C841 1.392 . S
C842 C843 1.385 . S
C842 C844 1.478 . S
C843 H837 0.930 . S
C843 C839 1.400 . S
C843 C842 1.385 . S
C844 C842 1.478 . S
C844 C846 1.381 . S
C844 C850 1.383 . S
C845 C841 1.495 . S
C845 H851 0.959 . S
C845 H852 0.961 . S
C845 H853 0.960 . S
C846 C844 1.381 . S
C846 C847 1.394 . S
C846 H854 0.930 . S
C847 C846 1.394 . S
C847 C848 1.383 . S
C847 H855 0.929 . S
C848 C847 1.383 . S
C848 C849 1.377 . S
C849 H833 0.930 . S
C849 C848 1.377 . S
C849 C850 1.379 . S
C850 H834 0.931 . S
C850 C844 1.383 . S
C850 C849 1.379 . S
H851 C845 0.959 . S
H852 C845 0.961 . S
H853 C845 0.960 . S
H854 C846 0.930 . S
H855 C847 0.929 . S
H856 C864 0.929 . S
H857 C866 0.930 . S
H858 C868 0.930 . S
H859 C871 0.929 . S
H860 C874 0.930 . S
H861 C876 0.960 . S
H862 C876 0.960 . S
H863 C876 0.960 . S
C864 H856 0.929 . S
C864 C865 1.377 . S
C864 C866 1.384 . S
C865 C864 1.377 . S
C865 C871 1.390 . S
C866 H857 0.930 . S
C866 C864 1.384 . S
C866 C867 1.372 . S
C867 C866 1.372 . S
C867 C868 1.400 . S
C867 C872 1.490 . S
C868 H858 0.930 . S
C868 C867 1.400 . S
C868 C871 1.386 . S
H869 C885 0.930 . S
H870 C886 0.931 . S
C871 H859 0.929 . S
C871 C865 1.390 . S
C871 C868 1.386 . S
C872 C867 1.490 . S
C872 C874 1.395 . S
C872 C875 1.403 . S
H873 C879 0.930 . S
C874 H860 0.930 . S
C874 C872 1.395 . S
C874 C877 1.403 . S
C875 C872 1.403 . S
C875 C876 1.524 . S
C875 C879 1.400 . S
C876 H861 0.960 . S
C876 H862 0.960 . S
C876 H863 0.960 . S
C876 C875 1.524 . S
C877 C874 1.403 . S
C877 C878 1.392 . S
C877 C881 1.495 . S
C878 C877 1.392 . S
C878 C879 1.385 . S
C878 C880 1.478 . S
C879 H873 0.930 . S
C879 C875 1.400 . S
C879 C878 1.385 . S
C880 C878 1.478 . S
C880 C882 1.381 . S
C880 C886 1.383 . S
C881 C877 1.495 . S
C881 H887 0.959 . S
C881 H888 0.961 . S
C881 H889 0.960 . S
C882 C880 1.381 . S
C882 C883 1.394 . S
C882 H890 0.930 . S
C883 C882 1.394 . S
C883 C884 1.383 . S
C883 H891 0.929 . S
C884 C883 1.383 . S
C884 C885 1.377 . S
C885 H869 0.930 . S
C885 C884 1.377 . S
C885 C886 1.379 . S
C886 H870 0.931 . S
C886 C880 1.383 . S
C886 C885 1.379 . S
H887 C881 0.959 . S
H888 C881 0.961 . S
H889 C881 0.960 . S
H890 C882 0.930 . S
H891 C883 0.929 . S
H892 C900 0.929 . S
H893 C902 0.930 . S
H894 C904 0.930 . S
H895 C907 0.929 . S
H896 C910 0.930 . S
H897 C912 0.960 . S
H898 C912 0.960 . S
H899 C912 0.960 . S
C900 H892 0.929 . S
C900 C901 1.377 . S
C900 C902 1.384 . S
C901 C900 1.377 . S
C901 C907 1.390 . S
C902 H893 0.930 . S
C902 C900 1.384 . S
C902 C903 1.372 . S
C903 C902 1.372 . S
C903 C904 1.400 . S
C903 C908 1.490 . S
C904 H894 0.930 . S
C904 C903 1.400 . S
C904 C907 1.386 . S
H905 C921 0.930 . S
H906 C922 0.931 . S
C907 H895 0.929 . S
C907 C901 1.390 . S
C907 C904 1.386 . S
C908 C903 1.490 . S
C908 C910 1.395 . S
C908 C911 1.403 . S
H909 C915 0.930 . S
C910 H896 0.930 . S
C910 C908 1.395 . S
C910 C913 1.403 . S
C911 C908 1.403 . S
C911 C912 1.524 . S
C911 C915 1.400 . S
C912 H897 0.960 . S
C912 H898 0.960 . S
C912 H899 0.960 . S
C912 C911 1.524 . S
C913 C910 1.403 . S
C913 C914 1.392 . S
C913 C917 1.495 . S
C914 C913 1.392 . S
C914 C915 1.385 . S
C914 C916 1.478 . S
C915 H909 0.930 . S
C915 C911 1.400 . S
C915 C914 1.385 . S
C916 C914 1.478 . S
C916 C918 1.381 . S
C916 C922 1.383 . S
C917 C913 1.495 . S
C917 H923 0.959 . S
C917 H924 0.961 . S
C917 H925 0.960 . S
C918 C916 1.381 . S
C918 C919 1.394 . S
C918 H926 0.930 . S
C919 C918 1.394 . S
C919 C920 1.383 . S
C919 H927 0.929 . S
C920 C919 1.383 . S
C920 C921 1.377 . S
C921 H905 0.930 . S
C921 C920 1.377 . S
C921 C922 1.379 . S
C922 H906 0.931 . S
C922 C916 1.383 . S
C922 C921 1.379 . S
H923 C917 0.959 . S
H924 C917 0.961 . S
H925 C917 0.960 . S
H926 C918 0.930 . S
H927 C919 0.929 . S
H928 C936 0.929 . S
H929 C938 0.930 . S
H930 C940 0.930 . S
H931 C943 0.929 . S
H932 C946 0.930 . S
H933 C948 0.960 . S
H934 C948 0.960 . S
H935 C948 0.960 . S
C936 H928 0.929 . S
C936 C937 1.377 . S
C936 C938 1.384 . S
C937 C936 1.377 . S
C937 C943 1.390 . S
C938 H929 0.930 . S
C938 C936 1.384 . S
C938 C939 1.372 . S
C939 C938 1.372 . S
C939 C940 1.400 . S
C939 C944 1.490 . S
C940 H930 0.930 . S
C940 C939 1.400 . S
C940 C943 1.386 . S
H941 C957 0.930 . S
H942 C958 0.931 . S
C943 H931 0.929 . S
C943 C937 1.390 . S
C943 C940 1.386 . S
C944 C939 1.490 . S
C944 C946 1.395 . S
C944 C947 1.403 . S
H945 C951 0.930 . S
C946 H932 0.930 . S
C946 C944 1.395 . S
C946 C949 1.403 . S
C947 C944 1.403 . S
C947 C948 1.524 . S
C947 C951 1.400 . S
C948 H933 0.960 . S
C948 H934 0.960 . S
C948 H935 0.960 . S
C948 C947 1.524 . S
C949 C946 1.403 . S
C949 C950 1.392 . S
C949 C953 1.495 . S
C950 C949 1.392 . S
C950 C951 1.385 . S
C950 C952 1.478 . S
C951 H945 0.930 . S
C951 C947 1.400 . S
C951 C950 1.385 . S
C952 C950 1.478 . S
C952 C954 1.381 . S
C952 C958 1.383 . S
C953 C949 1.495 . S
C953 H959 0.959 . S
C953 H960 0.961 . S
C953 H961 0.960 . S
C954 C952 1.381 . S
C954 C955 1.394 . S
C954 H962 0.930 . S
C955 C954 1.394 . S
C955 C956 1.383 . S
C955 H963 0.929 . S
C956 C955 1.383 . S
C956 C957 1.377 . S
C957 H941 0.930 . S
C957 C956 1.377 . S
C957 C958 1.379 . S
C958 H942 0.931 . S
C958 C952 1.383 . S
C958 C957 1.379 . S
H959 C953 0.959 . S
H960 C953 0.961 . S
H961 C953 0.960 . S
H962 C954 0.930 . S
H963 C955 0.929 . S
H964 C972 0.929 . S
H965 C974 0.930 . S
H966 C976 0.930 . S
H967 C979 0.929 . S
H968 C982 0.930 . S
H969 C984 0.960 . S
H970 C984 0.960 . S
H971 C984 0.960 . S
C972 H964 0.929 . S
C972 C973 1.377 . S
C972 C974 1.384 . S
C973 C972 1.377 . S
C973 C979 1.390 . S
C974 H965 0.930 . S
C974 C972 1.384 . S
C974 C975 1.372 . S
C975 C974 1.372 . S
C975 C976 1.400 . S
C975 C980 1.490 . S
C976 H966 0.930 . S
C976 C975 1.400 . S
C976 C979 1.386 . S
H977 C993 0.930 . S
H978 C994 0.931 . S
C979 H967 0.929 . S
C979 C973 1.390 . S
C979 C976 1.386 . S
C980 C975 1.490 . S
C980 C982 1.395 . S
C980 C983 1.403 . S
H981 C987 0.930 . S
C982 H968 0.930 . S
C982 C980 1.395 . S
C982 C985 1.403 . S
C983 C980 1.403 . S
C983 C984 1.524 . S
C983 C987 1.400 . S
C984 H969 0.960 . S
C984 H970 0.960 . S
C984 H971 0.960 . S
C984 C983 1.524 . S
C985 C982 1.403 . S
C985 C986 1.392 . S
C985 C989 1.495 . S
C986 C985 1.392 . S
C986 C987 1.385 . S
C986 C988 1.478 . S
C987 H981 0.930 . S
C987 C983 1.400 . S
C987 C986 1.385 . S
C988 C986 1.478 . S
C988 C990 1.381 . S
C988 C994 1.383 . S
C989 C985 1.495 . S
C989 H995 0.959 . S
C989 H996 0.961 . S
C989 H997 0.960 . S
C990 C988 1.381 . S
C990 C991 1.394 . S
C990 H998 0.930 . S
C991 C990 1.394 . S
C991 C992 1.383 . S
C991 H999 0.929 . S
C992 C991 1.383 . S
C992 C993 1.377 . S
C993 H977 0.930 . S
C993 C992 1.377 . S
C993 C994 1.379 . S
C994 H978 0.931 . S
C994 C988 1.383 . S
C994 C993 1.379 . S
H995 C989 0.959 . S
H996 C989 0.961 . S
H997 C989 0.960 . S
H998 C990 0.930 . S
H999 C991 0.929 . S
H1000 C1008 0.929 . S
H1001 C1010 0.930 . S
H1002 C1012 0.930 . S
H1003 C1015 0.929 . S
H1004 C1018 0.930 . S
H1005 C1020 0.960 . S
H1006 C1020 0.960 . S
H1007 C1020 0.960 . S
C1008 H1000 0.929 . S
C1008 C1009 1.377 . S
C1008 C1010 1.384 . S
C1009 C1008 1.377 . S
C1009 C1015 1.390 . S
C1010 H1001 0.930 . S
C1010 C1008 1.384 . S
C1010 C1011 1.372 . S
C1011 C1010 1.372 . S
C1011 C1012 1.400 . S
C1011 C1016 1.490 . S
C1012 H1002 0.930 . S
C1012 C1011 1.400 . S
C1012 C1015 1.386 . S
H1013 C1029 0.930 . S
H1014 C1030 0.931 . S
C1015 H1003 0.929 . S
C1015 C1009 1.390 . S
C1015 C1012 1.386 . S
C1016 C1011 1.490 . S
C1016 C1018 1.395 . S
C1016 C1019 1.403 . S
H1017 C1023 0.930 . S
C1018 H1004 0.930 . S
C1018 C1016 1.395 . S
C1018 C1021 1.403 . S
C1019 C1016 1.403 . S
C1019 C1020 1.524 . S
C1019 C1023 1.400 . S
C1020 H1005 0.960 . S
C1020 H1006 0.960 . S
C1020 H1007 0.960 . S
C1020 C1019 1.524 . S
C1021 C1018 1.403 . S
C1021 C1022 1.392 . S
C1021 C1025 1.495 . S
C1022 C1021 1.392 . S
C1022 C1023 1.385 . S
C1022 C1024 1.478 . S
C1023 H1017 0.930 . S
C1023 C1019 1.400 . S
C1023 C1022 1.385 . S
C1024 C1022 1.478 . S
C1024 C1026 1.381 . S
C1024 C1030 1.383 . S
C1025 C1021 1.495 . S
C1025 H1031 0.959 . S
C1025 H1032 0.961 . S
C1025 H1033 0.960 . S
C1026 C1024 1.381 . S
C1026 C1027 1.394 . S
C1026 H1034 0.930 . S
C1027 C1026 1.394 . S
C1027 C1028 1.383 . S
C1027 H1035 0.929 . S
C1028 C1027 1.383 . S
C1028 C1029 1.377 . S
C1029 H1013 0.930 . S
C1029 C1028 1.377 . S
C1029 C1030 1.379 . S
C1030 H1014 0.931 . S
C1030 C1024 1.383 . S
C1030 C1029 1.379 . S
H1031 C1025 0.959 . S
H1032 C1025 0.961 . S
H1033 C1025 0.960 . S
H1034 C1026 0.930 . S
H1035 C1027 0.929 . S
H1036 C1044 0.929 . S
H1037 C1046 0.930 . S
H1038 C1048 0.930 . S
H1039 C1051 0.929 . S
H1040 C1054 0.930 . S
H1041 C1056 0.960 . S
H1042 C1056 0.960 . S
H1043 C1056 0.960 . S
C1044 H1036 0.929 . S
C1044 C1045 1.377 . S
C1044 C1046 1.384 . S
C1045 C1044 1.377 . S
C1045 C1051 1.390 . S
C1046 H1037 0.930 . S
C1046 C1044 1.384 . S
C1046 C1047 1.372 . S
C1047 C1046 1.372 . S
C1047 C1048 1.400 . S
C1047 C1052 1.490 . S
C1048 H1038 0.930 . S
C1048 C1047 1.400 . S
C1048 C1051 1.386 . S
H1049 C1065 0.930 . S
H1050 C1066 0.931 . S
C1051 H1039 0.929 . S
C1051 C1045 1.390 . S
C1051 C1048 1.386 . S
C1052 C1047 1.490 . S
C1052 C1054 1.395 . S
C1052 C1055 1.403 . S
H1053 C1059 0.930 . S
C1054 H1040 0.930 . S
C1054 C1052 1.395 . S
C1054 C1057 1.403 . S
C1055 C1052 1.403 . S
C1055 C1056 1.524 . S
C1055 C1059 1.400 . S
C1056 H1041 0.960 . S
C1056 H1042 0.960 . S
C1056 H1043 0.960 . S
C1056 C1055 1.524 . S
C1057 C1054 1.403 . S
C1057 C1058 1.392 . S
C1057 C1061 1.495 . S
C1058 C1057 1.392 . S
C1058 C1059 1.385 . S
C1058 C1060 1.478 . S
C1059 H1053 0.930 . S
C1059 C1055 1.400 . S
C1059 C1058 1.385 . S
C1060 C1058 1.478 . S
C1060 C1062 1.381 . S
C1060 C1066 1.383 . S
C1061 C1057 1.495 . S
C1061 H1067 0.959 . S
C1061 H1068 0.961 . S
C1061 H1069 0.960 . S
C1062 C1060 1.381 . S
C1062 C1063 1.394 . S
C1062 H1070 0.930 . S
C1063 C1062 1.394 . S
C1063 C1064 1.383 . S
C1063 H1071 0.929 . S
C1064 C1063 1.383 . S
C1064 C1065 1.377 . S
C1065 H1049 0.930 . S
C1065 C1064 1.377 . S
C1065 C1066 1.379 . S
C1066 H1050 0.931 . S
C1066 C1060 1.383 . S
C1066 C1065 1.379 . S
H1067 C1061 0.959 . S
H1068 C1061 0.961 . S
H1069 C1061 0.960 . S
H1070 C1062 0.930 . S
H1071 C1063 0.929 . S
H1072 C1080 0.929 . S
H1073 C1082 0.930 . S
H1074 C1084 0.930 . S
H1075 C1087 0.929 . S
H1076 C1090 0.930 . S
H1077 C1092 0.960 . S
H1078 C1092 0.960 . S
H1079 C1092 0.960 . S
C1080 H1072 0.929 . S
C1080 C1081 1.377 . S
C1080 C1082 1.384 . S
C1081 C1080 1.377 . S
C1081 C1087 1.390 . S
C1082 H1073 0.930 . S
C1082 C1080 1.384 . S
C1082 C1083 1.372 . S
C1083 C1082 1.372 . S
C1083 C1084 1.400 . S
C1083 C1088 1.490 . S
C1084 H1074 0.930 . S
C1084 C1083 1.400 . S
C1084 C1087 1.386 . S
H1085 C1101 0.930 . S
H1086 C1102 0.931 . S
C1087 H1075 0.929 . S
C1087 C1081 1.390 . S
C1087 C1084 1.386 . S
C1088 C1083 1.490 . S
C1088 C1090 1.395 . S
C1088 C1091 1.403 . S
H1089 C1095 0.930 . S
C1090 H1076 0.930 . S
C1090 C1088 1.395 . S
C1090 C1093 1.403 . S
C1091 C1088 1.403 . S
C1091 C1092 1.524 . S
C1091 C1095 1.400 . S
C1092 H1077 0.960 . S
C1092 H1078 0.960 . S
C1092 H1079 0.960 . S
C1092 C1091 1.524 . S
C1093 C1090 1.403 . S
C1093 C1094 1.392 . S
C1093 C1097 1.495 . S
C1094 C1093 1.392 . S
C1094 C1095 1.385 . S
C1094 C1096 1.478 . S
C1095 H1089 0.930 . S
C1095 C1091 1.400 . S
C1095 C1094 1.385 . S
C1096 C1094 1.478 . S
C1096 C1098 1.381 . S
C1096 C1102 1.383 . S
C1097 C1093 1.495 . S
C1097 H1103 0.959 . S
C1097 H1104 0.961 . S
C1097 H1105 0.960 . S
C1098 C1096 1.381 . S
C1098 C1099 1.394 . S
C1098 H1106 0.930 . S
C1099 C1098 1.394 . S
C1099 C1100 1.383 . S
C1099 H1107 0.929 . S
C1100 C1099 1.383 . S
C1100 C1101 1.377 . S
C1101 H1085 0.930 . S
C1101 C1100 1.377 . S
C1101 C1102 1.379 . S
C1102 H1086 0.931 . S
C1102 C1096 1.383 . S
C1102 C1101 1.379 . S
H1103 C1097 0.959 . S
H1104 C1097 0.961 . S
H1105 C1097 0.960 . S
H1106 C1098 0.930 . S
H1107 C1099 0.929 . S
H1108 C1116 0.929 . S
H1109 C1118 0.930 . S
H1110 C1120 0.930 . S
H1111 C1123 0.929 . S
H1112 C1126 0.930 . S
H1113 C1128 0.960 . S
H1114 C1128 0.960 . S
H1115 C1128 0.960 . S
C1116 H1108 0.929 . S
C1116 C1117 1.377 . S
C1116 C1118 1.384 . S
C1117 C1116 1.377 . S
C1117 C1123 1.390 . S
C1118 H1109 0.930 . S
C1118 C1116 1.384 . S
C1118 C1119 1.372 . S
C1119 C1118 1.372 . S
C1119 C1120 1.400 . S
C1119 C1124 1.490 . S
C1120 H1110 0.930 . S
C1120 C1119 1.400 . S
C1120 C1123 1.386 . S
H1121 C1137 0.930 . S
H1122 C1138 0.931 . S
C1123 H1111 0.929 . S
C1123 C1117 1.390 . S
C1123 C1120 1.386 . S
C1124 C1119 1.490 . S
C1124 C1126 1.395 . S
C1124 C1127 1.403 . S
H1125 C1131 0.930 . S
C1126 H1112 0.930 . S
C1126 C1124 1.395 . S
C1126 C1129 1.403 . S
C1127 C1124 1.403 . S
C1127 C1128 1.524 . S
C1127 C1131 1.400 . S
C1128 H1113 0.960 . S
C1128 H1114 0.960 . S
C1128 H1115 0.960 . S
C1128 C1127 1.524 . S
C1129 C1126 1.403 . S
C1129 C1130 1.392 . S
C1129 C1133 1.495 . S
C1130 C1129 1.392 . S
C1130 C1131 1.385 . S
C1130 C1132 1.478 . S
C1131 H1125 0.930 . S
C1131 C1127 1.400 . S
C1131 C1130 1.385 . S
C1132 C1130 1.478 . S
C1132 C1134 1.381 . S
C1132 C1138 1.383 . S
C1133 C1129 1.495 . S
C1133 H1139 0.959 . S
C1133 H1140 0.961 . S
C1133 H1141 0.960 . S
C1134 C1132 1.381 . S
C1134 C1135 1.394 . S
C1134 H1142 0.930 . S
C1135 C1134 1.394 . S
C1135 C1136 1.383 . S
C1135 H1143 0.929 . S
C1136 C1135 1.383 . S
C1136 C1137 1.377 . S
C1137 H1121 0.930 . S
C1137 C1136 1.377 . S
C1137 C1138 1.379 . S
C1138 H1122 0.931 . S
C1138 C1132 1.383 . S
C1138 C1137 1.379 . S
H1139 C1133 0.959 . S
H1140 C1133 0.961 . S
H1141 C1133 0.960 . S
H1142 C1134 0.930 . S
H1143 C1135 0.929 . S
H1144 C1152 0.929 . S
H1145 C1154 0.930 . S
H1146 C1156 0.930 . S
H1147 C1159 0.929 . S
H1148 C1162 0.930 . S
H1149 C1164 0.960 . S
H1150 C1164 0.960 . S
H1151 C1164 0.960 . S
C1152 H1144 0.929 . S
C1152 C1153 1.377 . S
C1152 C1154 1.384 . S
C1153 C1152 1.377 . S
C1153 C1159 1.390 . S
C1154 H1145 0.930 . S
C1154 C1152 1.384 . S
C1154 C1155 1.372 . S
C1155 C1154 1.372 . S
C1155 C1156 1.400 . S
C1155 C1160 1.490 . S
C1156 H1146 0.930 . S
C1156 C1155 1.400 . S
C1156 C1159 1.386 . S
H1157 C1173 0.930 . S
H1158 C1174 0.931 . S
C1159 H1147 0.929 . S
C1159 C1153 1.390 . S
C1159 C1156 1.386 . S
C1160 C1155 1.490 . S
C1160 C1162 1.395 . S
C1160 C1163 1.403 . S
H1161 C1167 0.930 . S
C1162 H1148 0.930 . S
C1162 C1160 1.395 . S
C1162 C1165 1.403 . S
C1163 C1160 1.403 . S
C1163 C1164 1.524 . S
C1163 C1167 1.400 . S
C1164 H1149 0.960 . S
C1164 H1150 0.960 . S
C1164 H1151 0.960 . S
C1164 C1163 1.524 . S
C1165 C1162 1.403 . S
C1165 C1166 1.392 . S
C1165 C1169 1.495 . S
C1166 C1165 1.392 . S
C1166 C1167 1.385 . S
C1166 C1168 1.478 . S
C1167 H1161 0.930 . S
C1167 C1163 1.400 . S
C1167 C1166 1.385 . S
C1168 C1166 1.478 . S
C1168 C1170 1.381 . S
C1168 C1174 1.383 . S
C1169 C1165 1.495 . S
C1169 H1175 0.959 . S
C1169 H1176 0.961 . S
C1169 H1177 0.960 . S
C1170 C1168 1.381 . S
C1170 C1171 1.394 . S
C1170 H1178 0.930 . S
C1171 C1170 1.394 . S
C1171 C1172 1.383 . S
C1171 H1179 0.929 . S
C1172 C1171 1.383 . S
C1172 C1173 1.377 . S
C1173 H1157 0.930 . S
C1173 C1172 1.377 . S
C1173 C1174 1.379 . S
C1174 H1158 0.931 . S
C1174 C1168 1.383 . S
C1174 C1173 1.379 . S
H1175 C1169 0.959 . S
H1176 C1169 0.961 . S
H1177 C1169 0.960 . S
H1178 C1170 0.930 . S
H1179 C1171 0.929 . S
H1180 C1188 0.929 . S
H1181 C1190 0.930 . S
H1182 C1192 0.930 . S
H1183 C1195 0.929 . S
H1184 C1198 0.930 . S
H1185 C1200 0.960 . S
H1186 C1200 0.960 . S
H1187 C1200 0.960 . S
C1188 H1180 0.929 . S
C1188 C1189 1.377 . S
C1188 C1190 1.384 . S
C1189 C1188 1.377 . S
C1189 C1195 1.390 . S
C1190 H1181 0.930 . S
C1190 C1188 1.384 . S
C1190 C1191 1.372 . S
C1191 C1190 1.372 . S
C1191 C1192 1.400 . S
C1191 C1196 1.490 . S
C1192 H1182 0.930 . S
C1192 C1191 1.400 . S
C1192 C1195 1.386 . S
H1193 C1209 0.930 . S
H1194 C1210 0.931 . S
C1195 H1183 0.929 . S
C1195 C1189 1.390 . S
C1195 C1192 1.386 . S
C1196 C1191 1.490 . S
C1196 C1198 1.395 . S
C1196 C1199 1.403 . S
H1197 C1203 0.930 . S
C1198 H1184 0.930 . S
C1198 C1196 1.395 . S
C1198 C1201 1.403 1_556 S
C1199 C1196 1.403 . S
C1199 C1200 1.524 . S
C1199 C1203 1.400 1_556 S
C1200 H1185 0.960 . S
C1200 H1186 0.960 . S
C1200 H1187 0.960 . S
C1200 C1199 1.524 . S
C1201 C1198 1.403 1_554 S
C1201 C1202 1.392 . S
C1201 C1205 1.495 . S
C1202 C1201 1.392 . S
C1202 C1203 1.385 . S
C1202 C1204 1.478 . S
C1203 H1197 0.930 . S
C1203 C1199 1.400 1_554 S
C1203 C1202 1.385 . S
C1204 C1202 1.478 . S
C1204 C1206 1.381 . S
C1204 C1210 1.383 . S
C1205 C1201 1.495 . S
C1205 H1211 0.959 . S
C1205 H1212 0.961 . S
C1205 H1213 0.960 . S
C1206 C1204 1.381 . S
C1206 C1207 1.394 . S
C1206 H1214 0.930 . S
C1207 C1206 1.394 . S
C1207 C1208 1.383 . S
C1207 H1215 0.929 . S
C1208 C1207 1.383 . S
C1208 C1209 1.377 . S
C1209 H1193 0.930 . S
C1209 C1208 1.377 . S
C1209 C1210 1.379 . S
C1210 H1194 0.931 . S
C1210 C1204 1.383 . S
C1210 C1209 1.379 . S
H1211 C1205 0.959 . S
H1212 C1205 0.961 . S
H1213 C1205 0.960 . S
H1214 C1206 0.930 . S
H1215 C1207 0.929 . S
H1216 C1224 0.929 . S
H1217 C1226 0.930 . S
H1218 C1228 0.930 . S
H1219 C1231 0.929 . S
H1220 C1234 0.930 . S
H1221 C1236 0.960 1_556 S
H1222 C1236 0.960 . S
H1223 C1236 0.960 . S
C1224 H1216 0.929 . S
C1224 C1225 1.377 . S
C1224 C1226 1.384 . S
C1225 C1224 1.377 . S
C1225 C1231 1.390 . S
C1226 H1217 0.930 . S
C1226 C1224 1.384 . S
C1226 C1227 1.372 . S
C1227 C1226 1.372 . S
C1227 C1228 1.400 . S
C1227 C1232 1.490 . S
C1228 H1218 0.930 . S
C1228 C1227 1.400 . S
C1228 C1231 1.386 . S
H1229 C1245 0.930 . S
H1230 C1246 0.931 . S
C1231 H1219 0.929 . S
C1231 C1225 1.390 . S
C1231 C1228 1.386 . S
C1232 C1227 1.490 . S
C1232 C1234 1.395 . S
C1232 C1235 1.403 . S
H1233 C1239 0.930 . S
C1234 H1220 0.930 . S
C1234 C1232 1.395 . S
C1234 C1237 1.403 1_554 S
C1235 C1232 1.403 . S
C1235 C1236 1.524 . S
C1235 C1239 1.400 1_554 S
C1236 H1221 0.960 1_554 S
C1236 H1222 0.960 . S
C1236 H1223 0.960 . S
C1236 C1235 1.524 . S
C1237 C1234 1.403 1_556 S
C1237 C1238 1.392 . S
C1237 C1241 1.495 . S
C1238 C1237 1.392 . S
C1238 C1239 1.385 . S
C1238 C1240 1.478 . S
C1239 H1233 0.930 . S
C1239 C1235 1.400 1_556 S
C1239 C1238 1.385 . S
C1240 C1238 1.478 . S
C1240 C1242 1.381 . S
C1240 C1246 1.383 . S
C1241 C1237 1.495 . S
C1241 H1247 0.959 1_556 S
C1241 H1248 0.961 . S
C1241 H1249 0.960 . S
C1242 C1240 1.381 . S
C1242 C1243 1.394 . S
C1242 H1250 0.930 . S
C1243 C1242 1.394 . S
C1243 C1244 1.383 . S
C1243 H1251 0.929 . S
C1244 C1243 1.383 . S
C1244 C1245 1.377 . S
C1245 H1229 0.930 . S
C1245 C1244 1.377 . S
C1245 C1246 1.379 . S
C1246 H1230 0.931 . S
C1246 C1240 1.383 . S
C1246 C1245 1.379 . S
H1247 C1241 0.959 1_554 S
H1248 C1241 0.961 . S
H1249 C1241 0.960 . S
H1250 C1242 0.930 . S
H1251 C1243 0.929 . S
H1252 C1260 0.929 . S
H1253 C1262 0.930 . S
H1254 C1264 0.930 . S
H1255 C1267 0.929 . S
H1256 C1270 0.930 . S
H1257 C1272 0.960 . S
H1258 C1272 0.960 . S
H1259 C1272 0.960 . S
C1260 H1252 0.929 . S
C1260 C1261 1.377 . S
C1260 C1262 1.384 . S
C1261 C1260 1.377 . S
C1261 C1267 1.390 . S
C1262 H1253 0.930 . S
C1262 C1260 1.384 . S
C1262 C1263 1.372 . S
C1263 C1262 1.372 . S
C1263 C1264 1.400 . S
C1263 C1268 1.490 . S
C1264 H1254 0.930 . S
C1264 C1263 1.400 . S
C1264 C1267 1.386 . S
H1265 C1281 0.930 . S
H1266 C1282 0.931 . S
C1267 H1255 0.929 . S
C1267 C1261 1.390 . S
C1267 C1264 1.386 . S
C1268 C1263 1.490 . S
C1268 C1270 1.395 . S
C1268 C1271 1.403 . S
H1269 C1275 0.930 . S
C1270 H1256 0.930 . S
C1270 C1268 1.395 . S
C1270 C1273 1.403 . S
C1271 C1268 1.403 . S
C1271 C1272 1.524 . S
C1271 C1275 1.400 . S
C1272 H1257 0.960 . S
C1272 H1258 0.960 . S
C1272 H1259 0.960 . S
C1272 C1271 1.524 . S
C1273 C1270 1.403 . S
C1273 C1274 1.392 . S
C1273 C1277 1.495 . S
C1274 C1273 1.392 . S
C1274 C1275 1.385 . S
C1274 C1276 1.478 . S
C1275 H1269 0.930 . S
C1275 C1271 1.400 . S
C1275 C1274 1.385 . S
C1276 C1274 1.478 . S
C1276 C1278 1.381 . S
C1276 C1282 1.383 . S
C1277 C1273 1.495 . S
C1277 H1283 0.959 . S
C1277 H1284 0.961 . S
C1277 H1285 0.960 . S
C1278 C1276 1.381 . S
C1278 C1279 1.394 . S
C1278 H1286 0.930 . S
C1279 C1278 1.394 . S
C1279 C1280 1.383 . S
C1279 H1287 0.929 . S
C1280 C1279 1.383 . S
C1280 C1281 1.377 . S
C1281 H1265 0.930 . S
C1281 C1280 1.377 . S
C1281 C1282 1.379 . S
C1282 H1266 0.931 . S
C1282 C1276 1.383 . S
C1282 C1281 1.379 . S
H1283 C1277 0.959 . S
H1284 C1277 0.961 . S
H1285 C1277 0.960 . S
H1286 C1278 0.930 . S
H1287 C1279 0.929 . S
H1288 C1296 0.929 . S
H1289 C1298 0.930 . S
H1290 C1300 0.930 . S
H1291 C1303 0.929 . S
H1292 C1306 0.930 . S
H1293 C1308 0.960 . S
H1294 C1308 0.960 . S
H1295 C1308 0.960 . S
C1296 H1288 0.929 . S
C1296 C1297 1.377 . S
C1296 C1298 1.384 . S
C1297 C1296 1.377 . S
C1297 C1303 1.390 . S
C1298 H1289 0.930 . S
C1298 C1296 1.384 . S
C1298 C1299 1.372 . S
C1299 C1298 1.372 . S
C1299 C1300 1.400 . S
C1299 C1304 1.490 . S
C1300 H1290 0.930 . S
C1300 C1299 1.400 . S
C1300 C1303 1.386 . S
H1301 C1317 0.930 . S
H1302 C1318 0.931 . S
C1303 H1291 0.929 . S
C1303 C1297 1.390 . S
C1303 C1300 1.386 . S
C1304 C1299 1.490 . S
C1304 C1306 1.395 . S
C1304 C1307 1.403 . S
H1305 C1311 0.930 . S
C1306 H1292 0.930 . S
C1306 C1304 1.395 . S
C1306 C1309 1.403 . S
C1307 C1304 1.403 . S
C1307 C1308 1.524 . S
C1307 C1311 1.400 . S
C1308 H1293 0.960 . S
C1308 H1294 0.960 . S
C1308 H1295 0.960 . S
C1308 C1307 1.524 . S
C1309 C1306 1.403 . S
C1309 C1310 1.392 . S
C1309 C1313 1.495 . S
C1310 C1309 1.392 . S
C1310 C1311 1.385 . S
C1310 C1312 1.478 . S
C1311 H1305 0.930 . S
C1311 C1307 1.400 . S
C1311 C1310 1.385 . S
C1312 C1310 1.478 . S
C1312 C1314 1.381 . S
C1312 C1318 1.383 . S
C1313 C1309 1.495 . S
C1313 H1319 0.959 . S
C1313 H1320 0.961 . S
C1313 H1321 0.960 . S
C1314 C1312 1.381 . S
C1314 C1315 1.394 . S
C1314 H1322 0.930 . S
C1315 C1314 1.394 . S
C1315 C1316 1.383 . S
C1315 H1323 0.929 . S
C1316 C1315 1.383 . S
C1316 C1317 1.377 . S
C1317 H1301 0.930 . S
C1317 C1316 1.377 . S
C1317 C1318 1.379 . S
C1318 H1302 0.931 . S
C1318 C1312 1.383 . S
C1318 C1317 1.379 . S
H1319 C1313 0.959 . S
H1320 C1313 0.961 . S
H1321 C1313 0.960 . S
H1322 C1314 0.930 . S
H1323 C1315 0.929 . S
H1324 C1332 0.929 . S
H1325 C1334 0.930 . S
H1326 C1336 0.930 . S
H1327 C1339 0.929 . S
H1328 C1342 0.930 . S
H1329 C1344 0.960 . S
H1330 C1344 0.960 . S
H1331 C1344 0.960 . S
C1332 H1324 0.929 . S
C1332 C1333 1.377 . S
C1332 C1334 1.384 . S
C1333 C1332 1.377 . S
C1333 C1339 1.390 . S
C1334 H1325 0.930 . S
C1334 C1332 1.384 . S
C1334 C1335 1.372 . S
C1335 C1334 1.372 . S
C1335 C1336 1.400 . S
C1335 C1340 1.490 . S
C1336 H1326 0.930 . S
C1336 C1335 1.400 . S
C1336 C1339 1.386 . S
H1337 C1353 0.930 . S
H1338 C1354 0.931 . S
C1339 H1327 0.929 . S
C1339 C1333 1.390 . S
C1339 C1336 1.386 . S
C1340 C1335 1.490 . S
C1340 C1342 1.395 . S
C1340 C1343 1.403 . S
H1341 C1347 0.930 . S
C1342 H1328 0.930 . S
C1342 C1340 1.395 . S
C1342 C1345 1.403 . S
C1343 C1340 1.403 . S
C1343 C1344 1.524 . S
C1343 C1347 1.400 . S
C1344 H1329 0.960 . S
C1344 H1330 0.960 . S
C1344 H1331 0.960 . S
C1344 C1343 1.524 . S
C1345 C1342 1.403 . S
C1345 C1346 1.392 . S
C1345 C1349 1.495 . S
C1346 C1345 1.392 . S
C1346 C1347 1.385 . S
C1346 C1348 1.478 . S
C1347 H1341 0.930 . S
C1347 C1343 1.400 . S
C1347 C1346 1.385 . S
C1348 C1346 1.478 . S
C1348 C1350 1.381 . S
C1348 C1354 1.383 . S
C1349 C1345 1.495 . S
C1349 H1355 0.959 . S
C1349 H1356 0.961 . S
C1349 H1357 0.960 . S
C1350 C1348 1.381 . S
C1350 C1351 1.394 . S
C1350 H1358 0.930 . S
C1351 C1350 1.394 . S
C1351 C1352 1.383 . S
C1351 H1359 0.929 . S
C1352 C1351 1.383 . S
C1352 C1353 1.377 . S
C1353 H1337 0.930 . S
C1353 C1352 1.377 . S
C1353 C1354 1.379 . S
C1354 H1338 0.931 . S
C1354 C1348 1.383 . S
C1354 C1353 1.379 . S
H1355 C1349 0.959 . S
H1356 C1349 0.961 . S
H1357 C1349 0.960 . S
H1358 C1350 0.930 . S
H1359 C1351 0.929 . S
C217 C134 1.803 . S
C236 C4 1.795 . S
C253 C17 1.803 . S
C272 C153 1.801 . S
C289 C108 1.803 . S
C308 C36 1.797 . S
C325 C121 1.802 . S
C344 C43 1.800 . S
C361 C56 1.803 . S
C380 C186 1.798 . S
C397 C199 1.803 . S
C416 C69 1.801 . S
C433 C82 1.804 . S
C452 C166 1.800 . S
C469 C173 1.802 . S
C488 C95 1.796 . S
C505 C135 1.215 . S
C524 C5 1.208 . S
C541 C18 1.215 . S
C560 C146 1.214 . S
C577 C29 1.214 . S
C596 C109 1.209 . S
C613 C44 1.216 . S
C632 C122 1.218 . S
C649 C57 1.216 . S
C668 C187 1.214 . S
C685 C70 1.215 . S
C704 C200 1.213 . S
C721 C159 1.217 . S
C740 C83 1.219 . S
C757 C174 1.216 . S
C776 C96 1.209 . S
C793 C10 1.301 . S
C812 C88 1.277 . S
C829 C23 1.299 . S
C848 C101 1.280 . S
C865 C30 1.294 . S
C884 C62 1.310 . S
C901 C49 1.301 . S
C920 C75 1.277 . S
C937 C114 1.296 . S
C956 C192 1.303 . S
C973 C205 1.295 . S
C992 C127 1.300 . S
C1009 C140 1.294 . S
C1028 C160 1.309 . S
C1045 C179 1.298 . S
C1064 C147 1.296 . S
C1081 C3 1.200 . S
C1100 C198 1.197 . S
C1117 C161 1.203 . S
C1136 C16 1.181 . S
C1153 C172 1.196 . S
C1172 C31 1.215 . S
C1189 C185 1.196 . S
C1208 C42 1.215 . S
C1225 C120 1.201 . S
C1244 C55 1.184 . S
C1261 C133 1.196 . S
C1280 C68 1.214 . S
C1297 C81 1.195 . S
C1316 C148 1.211 . S
C1333 C94 1.203 . S
C1352 C107 1.180 . S
