# Generated by pormake.
# Topology ukg, (4)-cn, num edge types: 1
# Building blocks:
#     Node 0, Type 0, BuildingBlock: KOZSID_clean_sbu_0, # of connection points: 4
#     Node 1, Type 0, BuildingBlock: KOZSID_clean_sbu_0, # of connection points: 4
#     Node 2, Type 0, BuildingBlock: KOZSID_clean_sbu_0, # of connection points: 4
#     Node 3, Type 0, BuildingBlock: KOZSID_clean_sbu_0, # of connection points: 4
#     Node 4, Type 0, BuildingBlock: KOZSID_clean_sbu_0, # of connection points: 4
#     Node 5, Type 0, BuildingBlock: KOZSID_clean_sbu_0, # of connection points: 4
#     Node 6, Type 0, BuildingBlock: KOZSID_clean_sbu_0, # of connection points: 4
#     Node 7, Type 0, BuildingBlock: KOZSID_clean_sbu_0, # of connection points: 4
#     Edge 8, Type (0, 0), BuildingBlock: ZUJKAS_clean_linker_0, # of connection points: 2
#     Edge 9, Type (0, 0), BuildingBlock: ZUJKAS_clean_linker_0, # of connection points: 2
#     Edge 10, Type (0, 0), BuildingBlock: ZUJKAS_clean_linker_0, # of connection points: 2
#     Edge 11, Type (0, 0), BuildingBlock: ZUJKAS_clean_linker_0, # of connection points: 2
#     Edge 12, Type (0, 0), BuildingBlock: ZUJKAS_clean_linker_0, # of connection points: 2
#     Edge 13, Type (0, 0), BuildingBlock: ZUJKAS_clean_linker_0, # of connection points: 2
#     Edge 14, Type (0, 0), BuildingBlock: ZUJKAS_clean_linker_0, # of connection points: 2
#     Edge 15, Type (0, 0), BuildingBlock: ZUJKAS_clean_linker_0, # of connection points: 2
#     Edge 16, Type (0, 0), BuildingBlock: ZUJKAS_clean_linker_0, # of connection points: 2
#     Edge 17, Type (0, 0), BuildingBlock: ZUJKAS_clean_linker_0, # of connection points: 2
#     Edge 18, Type (0, 0), BuildingBlock: ZUJKAS_clean_linker_0, # of connection points: 2
#     Edge 19, Type (0, 0), BuildingBlock: ZUJKAS_clean_linker_0, # of connection points: 2
#     Edge 20, Type (0, 0), BuildingBlock: ZUJKAS_clean_linker_0, # of connection points: 2
#     Edge 21, Type (0, 0), BuildingBlock: ZUJKAS_clean_linker_0, # of connection points: 2
#     Edge 22, Type (0, 0), BuildingBlock: ZUJKAS_clean_linker_0, # of connection points: 2
#     Edge 23, Type (0, 0), BuildingBlock: ZUJKAS_clean_linker_0, # of connection points: 2
# Relax obj value: 0.106
# Max RMSD: 0.260
# Mean RMSD: 0.246
data_MOF--net-ukg--node1-KOZSID_clean_sbu_0--edge1-ZUJKAS_clean_linker_0
_symmetry_space_group_name_H-M    P1
_symmetry_Int_Tables_number       1
_symmetry_cell_setting            triclinic
loop_
_symmetry_equiv_pos_as_xyz
'x, y, z'
_cell_length_a     44.799494
_cell_length_b     44.899102
_cell_length_c     61.235119
_cell_angle_alpha  90.442353
_cell_angle_beta   89.544508
_cell_angle_gamma 90.094994
loop_
_atom_site_label
_atom_site_type_symbol
_atom_site_fract_x
_atom_site_fract_y
_atom_site_fract_z
_atom_type_partial_charge
C0 C 0.96714 0.64538 0.16338 0.0
C1 C 0.94138 0.65997 0.157 0.0
C2 C 0.94999 0.68746 0.14976 0.0
C3 C 0.98042 0.68816 0.15209 0.0
N4 N 0.99167 0.66269 0.16007 0.0
Co5 Co 0.03455 0.65538 0.16687 0.0
N6 N 0.04804 0.69093 0.14998 0.0
C7 C 0.03035 0.71313 0.14307 0.0
C8 C 0.04568 0.73517 0.13234 0.0
C9 C 0.07499 0.72659 0.13272 0.0
C10 C 0.0759 0.69974 0.14377 0.0
N11 N 0.07737 0.64825 0.17393 0.0
C12 C 0.10268 0.66062 0.16564 0.0
C13 C 0.12787 0.64949 0.17584 0.0
C14 C 0.11804 0.62973 0.19115 0.0
C15 C 0.08756 0.62986 0.18948 0.0
N16 N 0.02131 0.61975 0.18371 0.0
C17 C 0.03804 0.60421 0.19781 0.0
C18 C 0.02331 0.5805 0.20689 0.0
C19 C 0.99531 0.58127 0.19824 0.0
C20 C 0.9945 0.60564 0.18441 0.0
N21 N 0.03816 0.63049 0.14038 0.0
C22 C 0.03604 0.59266 0.1035 0.0
C23 C 0.05044 0.58377 0.12266 0.0
C24 C 0.05119 0.60296 0.1409 0.0
C25 C 0.02401 0.62142 0.10297 0.0
C26 C 0.02547 0.63991 0.1214 0.0
N27 N 0.03009 0.68054 0.19322 0.0
C28 C 0.99865 0.69783 0.22286 0.0
C29 C 0.01712 0.72258 0.22624 0.0
C30 C 0.04327 0.72484 0.2136 0.0
C31 C 0.04955 0.70339 0.19743 0.0
C32 C 1.00545 0.67725 0.20636 0.0
H33 H 0.0696 0.70602 0.18781 0.0
H34 H 0.98985 0.65944 0.2037 0.0
H35 H 0.06159 0.59515 0.15558 0.0
H36 H 0.01552 0.66163 0.12037 0.0
C37 C 0.99933 0.71095 0.14499 0.0
C38 C 0.96683 0.61666 0.17469 0.0
C39 C 0.10386 0.68489 0.14975 0.0
C40 C 0.06827 0.61047 0.20027 0.0
H41 H 0.91866 0.65182 0.15797 0.0
H42 H 0.93579 0.70473 0.14333 0.0
H43 H 0.0366 0.7549 0.12485 0.0
H44 H 0.09363 0.73896 0.12602 0.0
H45 H 0.15096 0.65539 0.17281 0.0
H46 H 0.13156 0.6164 0.2019 0.0
H47 H 0.03201 0.56431 0.21819 0.0
H48 H 0.97727 0.56609 0.20213 0.0
H49 H 0.06012 0.56177 0.12386 0.0
H50 H 0.01325 0.62959 0.08842 0.0
H51 H 0.97815 0.69513 0.23214 0.0
H52 H 0.05851 0.74332 0.21591 0.0
C53 C 0.39975 0.51489 0.62125 0.0
C54 C 0.42025 0.53817 0.62026 0.0
C55 C 0.41775 0.55393 0.63953 0.0
C56 C 0.39496 0.54046 0.65084 0.0
N57 N 0.38306 0.5174 0.63979 0.0
Co58 Co 0.34469 0.49817 0.64753 0.0
N59 N 0.34846 0.50955 0.67861 0.0
C60 C 0.36565 0.53171 0.68639 0.0
C61 C 0.3637 0.53441 0.70873 0.0
C62 C 0.34382 0.51273 0.71522 0.0
C63 C 0.33454 0.4981 0.6964 0.0
N64 N 0.30615 0.47934 0.655 0.0
C65 C 0.29557 0.47034 0.6746 0.0
C66 C 0.2668 0.45904 0.67258 0.0
C67 C 0.25931 0.46142 0.65095 0.0
C68 C 0.28378 0.47397 0.64099 0.0
N69 N 0.34059 0.48705 0.61644 0.0
C70 C 0.31433 0.48322 0.6063 0.0
C71 C 0.31715 0.48283 0.58398 0.0
C72 C 0.3471 0.48663 0.57995 0.0
C73 C 0.36115 0.48783 0.60012 0.0
N74 N 0.36545 0.46088 0.65372 0.0
C75 C 0.38817 0.40898 0.6726 0.0
C76 C 0.36375 0.40763 0.65835 0.0
C77 C 0.35287 0.43386 0.64892 0.0
C78 C 0.40249 0.4365 0.67543 0.0
C79 C 0.39081 0.46203 0.66595 0.0
N80 N 0.32389 0.53601 0.64204 0.0
C81 C 0.31927 0.58185 0.622 0.0
C82 C 0.29859 0.593 0.63733 0.0
C83 C 0.28999 0.57432 0.65454 0.0
C84 C 0.30281 0.54611 0.65659 0.0
C85 C 0.3315 0.5534 0.62458 0.0
H86 H 0.29613 0.53275 0.67034 0.0
H87 H 0.3478 0.5459 0.61275 0.0
H88 H 0.33324 0.43258 0.63883 0.0
H89 H 0.40131 0.48305 0.66971 0.0
C90 C 0.3859 0.54652 0.67249 0.0
C91 C 0.39338 0.49321 0.60347 0.0
C92 C 0.31083 0.47529 0.69551 0.0
C93 C 0.28823 0.47757 0.61844 0.0
H94 H 0.43448 0.54435 0.6067 0.0
H95 H 0.43078 0.57308 0.64454 0.0
H96 H 0.37585 0.5497 0.71913 0.0
H97 H 0.33672 0.50851 0.73184 0.0
H98 H 0.25245 0.45063 0.68544 0.0
H99 H 0.23873 0.45427 0.64338 0.0
H100 H 0.2996 0.48027 0.57207 0.0
H101 H 0.35719 0.48907 0.56395 0.0
H102 H 0.35208 0.38685 0.65546 0.0
H103 H 0.422 0.43859 0.68567 0.0
H104 H 0.32683 0.59535 0.60845 0.0
H105 H 0.27359 0.58148 0.66655 0.0
C106 C 0.53661 0.85492 0.16182 0.0
C107 C 0.5627 0.84124 0.15463 0.0
C108 C 0.5549 0.81339 0.14743 0.0
C109 C 0.5246 0.81161 0.15056 0.0
N110 N 0.51263 0.83676 0.15897 0.0
Co111 Co 0.46978 0.84244 0.16717 0.0
N112 N 0.45712 0.80607 0.1506 0.0
C113 C 0.47541 0.78447 0.14307 0.0
C114 C 0.46058 0.76166 0.13277 0.0
C115 C 0.43098 0.7691 0.13407 0.0
C116 C 0.42941 0.79615 0.14513 0.0
N117 N 0.42702 0.84783 0.17572 0.0
C118 C 0.40194 0.83433 0.16817 0.0
C119 C 0.37663 0.84515 0.1788 0.0
C120 C 0.38618 0.86561 0.19382 0.0
C121 C 0.41661 0.86633 0.19145 0.0
N122 N 0.48212 0.87905 0.18355 0.0
C123 C 0.46525 0.89428 0.19811 0.0
C124 C 0.47933 0.91874 0.20677 0.0
C125 C 0.50706 0.91882 0.19734 0.0
C126 C 0.50836 0.89422 0.18345 0.0
N127 N 0.46404 0.8666 0.14083 0.0
C128 C 0.46342 0.90366 0.10392 0.0
C129 C 0.44929 0.9124 0.12349 0.0
C130 C 0.44992 0.8936 0.14175 0.0
C131 C 0.47653 0.87538 0.10303 0.0
C132 C 0.47644 0.85727 0.12148 0.0
N133 N 0.47654 0.81796 0.19329 0.0
C134 C 0.51077 0.80275 0.22127 0.0
C135 C 0.49516 0.77604 0.22435 0.0
C136 C 0.46834 0.77213 0.2129 0.0
C137 C 0.45926 0.79351 0.19768 0.0
C138 C 0.50127 0.82314 0.20574 0.0
H139 H 0.43903 0.78942 0.18874 0.0
H140 H 0.51504 0.84236 0.20317 0.0
H141 H 0.4397 0.90131 0.15673 0.0
H142 H 0.48722 0.83597 0.12013 0.0
C143 C 0.50637 0.78794 0.14401 0.0
C144 C 0.53624 0.88377 0.17328 0.0
C145 C 0.40114 0.80986 0.15216 0.0
C146 C 0.43543 0.88685 0.20153 0.0
H147 H 0.58512 0.85023 0.15506 0.0
H148 H 0.56955 0.79655 0.14056 0.0
H149 H 0.47015 0.74213 0.12498 0.0
H150 H 0.41259 0.75582 0.12802 0.0
H151 H 0.35363 0.83879 0.17611 0.0
H152 H 0.37247 0.87901 0.2047 0.0
H153 H 0.4704 0.93478 0.21836 0.0
H154 H 0.52468 0.93464 0.20085 0.0
H155 H 0.43877 0.93403 0.12497 0.0
H156 H 0.48711 0.8673 0.08816 0.0
H157 H 0.53091 0.80762 0.23029 0.0
H158 H 0.45513 0.7521 0.21482 0.0
C159 C 0.08866 0.97362 0.62107 0.0
C160 C 0.06865 0.94989 0.62021 0.0
C161 C 0.07113 0.9347 0.63951 0.0
C162 C 0.09349 0.94887 0.65069 0.0
N163 N 0.10517 0.97182 0.63953 0.0
Co164 Co 0.1434 0.99149 0.64691 0.0
N165 N 0.13955 0.98082 0.67805 0.0
C166 C 0.12248 0.95871 0.68599 0.0
C167 C 0.12438 0.95644 0.7083 0.0
C168 C 0.14412 0.97835 0.71461 0.0
C169 C 0.15338 0.99267 0.69571 0.0
N170 N 0.18177 0.01079 0.65403 0.0
C171 C 0.19226 0.02023 0.67354 0.0
C172 C 0.22092 0.03176 0.67122 0.0
C173 C 0.22846 0.02909 0.6495 0.0
C174 C 0.20412 0.01614 0.63978 0.0
N175 N 0.14756 1.00187 0.61575 0.0
C176 C 0.17378 1.00598 0.60536 0.0
C177 C 0.17097 1.00641 0.58308 0.0
C178 C 0.14107 1.00231 0.57932 0.0
C179 C 0.12704 1.00078 0.59963 0.0
N180 N 0.12236 0.02878 0.6532 0.0
C181 C 0.0995 0.08107 0.67221 0.0
C182 C 0.12375 0.08216 0.65754 0.0
C183 C 0.13472 0.05573 0.64806 0.0
C184 C 0.08539 0.05356 0.67544 0.0
C185 C 0.0971 0.02782 0.66584 0.0
N186 N 0.16451 0.95366 0.64132 0.0
C187 C 0.16941 0.90718 0.62153 0.0
C188 C 0.19 0.8966 0.63679 0.0
C189 C 0.19848 0.9159 0.65377 0.0
C190 C 0.18556 0.94413 0.65573 0.0
C191 C 0.15709 0.9357 0.62401 0.0
H192 H 0.19213 0.95795 0.66935 0.0
H193 H 0.14086 0.94279 0.61226 0.0
H194 H 0.15427 0.05682 0.63766 0.0
H195 H 0.08677 1.00684 0.66983 0.0
C196 C 0.10248 0.9434 0.67227 0.0
C197 C 0.09488 0.99502 0.60322 0.0
C198 C 0.17708 0.01547 0.69463 0.0
C199 C 0.19975 0.01215 0.61727 0.0
H200 H 0.05498 0.94284 0.60666 0.0
H201 H 0.05848 0.91535 0.64457 0.0
H202 H 0.11233 0.94124 0.71881 0.0
H203 H 0.15118 0.98289 0.73116 0.0
H204 H 0.23518 0.04053 0.68393 0.0
H205 H 0.24898 0.03631 0.64171 0.0
H206 H 0.18848 0.00934 0.57101 0.0
H207 H 0.13096 1.00002 0.56342 0.0
H208 H 0.13523 0.10294 0.65436 0.0
H209 H 0.06605 0.05167 0.68606 0.0
H210 H 0.16199 0.89321 0.60813 0.0
H211 H 0.21485 0.90922 0.66568 0.0
C212 C 1.00313 0.36755 0.91853 0.0
C213 C 0.0137 0.35627 0.93805 0.0
C214 C 0.02075 0.32716 0.93423 0.0
C215 C 0.01398 0.32224 0.91273 0.0
N216 N 1.00261 0.3463 0.9026 0.0
Co217 Co 0.99035 0.3488 0.87121 0.0
N218 N 1.0035 0.30681 0.86518 0.0
C219 C 0.01365 0.28701 0.87988 0.0
C220 C 0.02162 0.26011 0.8709 0.0
C221 C 0.01659 0.26296 0.84908 0.0
C222 C 1.00579 0.29159 0.84602 0.0
N223 N 0.97905 0.3516 0.83962 0.0
C224 C 0.9845 0.33248 0.82276 0.0
C225 C 0.97458 0.34377 0.80309 0.0
C226 C 0.96284 0.37122 0.80761 0.0
C227 C 0.96627 0.37511 0.82969 0.0
N228 N 0.97679 0.39071 0.87743 0.0
C229 C 0.96325 0.40926 0.86329 0.0
C230 C 0.95737 0.43691 0.87189 0.0
C231 C 0.96789 0.4361 0.89274 0.0
C232 C 0.97953 0.40781 0.89576 0.0
N233 N 0.03085 0.3635 0.86329 0.0
C234 C 0.08721 0.38035 0.84641 0.0
C235 C 0.06172 0.39723 0.84234 0.0
C236 C 0.03411 0.38855 0.85087 0.0
C237 C 0.08418 0.35555 0.86001 0.0
C238 C 0.05602 0.34777 0.86844 0.0
N239 N 0.94933 0.33374 0.87871 0.0
C240 C 0.89583 0.33422 0.87258 0.0
C241 C 0.89138 0.30974 0.88618 0.0
C242 C 0.9165 0.29802 0.89649 0.0
C243 C 0.94491 0.31033 0.89268 0.0
C244 C 0.92452 0.34573 0.8692 0.0
H245 H 0.96289 0.30029 0.90111 0.0
H246 H 0.92588 0.36412 0.85849 0.0
H247 H 0.01553 0.402 0.84661 0.0
H248 H 0.05489 0.3286 0.87868 0.0
C249 C 0.01848 0.29543 0.90153 0.0
C250 C 0.99399 0.3986 0.91601 0.0
C251 C 0.99952 0.30378 0.82453 0.0
C252 C 0.95929 0.40112 0.84138 0.0
H253 H 0.01622 0.36789 0.95348 0.0
H254 H 0.02999 0.31151 0.94571 0.0
H255 H 0.03111 0.24111 0.8791 0.0
H256 H 0.02118 0.24616 0.83675 0.0
H257 H 0.97614 0.3334 0.78711 0.0
H258 H 0.95363 0.3868 0.79608 0.0
H259 H 0.94763 0.4558 0.86371 0.0
H260 H 0.96765 0.45456 0.90419 0.0
H261 H 0.06272 0.41651 0.83183 0.0
H262 H 0.10338 0.34208 0.864 0.0
H263 H 0.87734 0.34414 0.86399 0.0
H264 H 0.91434 0.27943 0.90756 0.0
C265 C 0.61722 0.50836 0.33614 0.0
C266 C 0.59222 0.50715 0.32288 0.0
C267 C 0.5871 0.47781 0.31842 0.0
C268 C 0.60899 0.46285 0.3293 0.0
N269 N 0.62771 0.48077 0.34057 0.0
Co270 Co 0.6618 0.46789 0.3593 0.0
N271 N 0.65648 0.42506 0.35045 0.0
C272 C 0.63643 0.41424 0.33603 0.0
C273 C 0.63895 0.38429 0.33212 0.0
C274 C 0.66212 0.37533 0.34474 0.0
C275 C 0.67225 0.40043 0.35587 0.0
N276 N 0.695 0.45463 0.37883 0.0
C277 C 0.70634 0.42701 0.3824 0.0
C278 C 0.72861 0.42773 0.39801 0.0
C279 C 0.73161 0.45679 0.40443 0.0
C280 C 0.71095 0.47213 0.39255 0.0
N281 N 0.66808 0.51099 0.36714 0.0
C282 C 0.68927 0.52211 0.38056 0.0
C283 C 0.68953 0.55262 0.38171 0.0
C284 C 0.66748 0.56158 0.36794 0.0
C285 C 0.65487 0.53591 0.35926 0.0
N286 N 0.63329 0.46294 0.38436 0.0
C287 C 0.5939 0.45642 0.42062 0.0
C288 C 0.61843 0.47562 0.42145 0.0
C289 C 0.63756 0.47841 0.40348 0.0
C290 C 0.58926 0.44069 0.40106 0.0
C291 C 0.60905 0.44423 0.38329 0.0
N292 N 0.69037 0.47334 0.33452 0.0
C293 C 0.73857 0.49053 0.3216 0.0
C294 C 0.73006 0.48731 0.29982 0.0
C295 C 0.70138 0.47615 0.2957 0.0
C296 C 0.68211 0.46905 0.31318 0.0
C297 C 0.71871 0.4835 0.33843 0.0
H298 H 0.66051 0.46051 0.30912 0.0
H299 H 0.72673 0.48717 0.35452 0.0
H300 H 0.65563 0.49341 0.40561 0.0
H301 H 0.60433 0.43155 0.3689 0.0
C302 C 0.61458 0.43249 0.32724 0.0
C303 C 0.63083 0.53629 0.34325 0.0
C304 C 0.69675 0.39955 0.37147 0.0
C305 C 0.70797 0.50317 0.39227 0.0
H306 H 0.57942 0.52561 0.31665 0.0
H307 H 0.57008 0.46856 0.30789 0.0
H308 H 0.62542 0.37056 0.32146 0.0
H309 H 0.6705 0.35279 0.34565 0.0
H310 H 0.74152 0.40919 0.40398 0.0
H311 H 0.74743 0.46575 0.41603 0.0
H312 H 0.70411 0.56669 0.39133 0.0
H313 H 0.66148 0.58441 0.36455 0.0
H314 H 0.62283 0.48897 0.43588 0.0
H315 H 0.57069 0.42537 0.3995 0.0
H316 H 0.7603 0.49941 0.32579 0.0
H317 H 0.69383 0.47285 0.2791 0.0
C318 C 0.4827 0.12538 0.91773 0.0
C319 C 0.47184 0.13683 0.93737 0.0
C320 C 0.4642 0.16571 0.93365 0.0
C321 C 0.47094 0.17035 0.91209 0.0
N322 N 0.48276 0.1463 0.9018 0.0
Co323 Co 0.49541 0.14357 0.87032 0.0
N324 N 0.48195 0.18538 0.86457 0.0
C325 C 0.47127 0.2052 0.87941 0.0
C326 C 0.46314 0.23192 0.87062 0.0
C327 C 0.4686 0.22892 0.84878 0.0
C328 C 0.47982 0.2004 0.84552 0.0
N329 N 0.50719 0.14056 0.83865 0.0
C330 C 0.50188 0.1595 0.82193 0.0
C331 C 0.51217 0.1481 0.80216 0.0
C332 C 0.524 0.12076 0.80646 0.0
C333 C 0.52025 0.11704 0.82852 0.0
N334 N 0.50927 0.10183 0.87624 0.0
C335 C 0.52295 0.08318 0.86187 0.0
C336 C 0.52918 0.05574 0.87033 0.0
C337 C 0.5188 0.05682 0.89134 0.0
C338 C 0.50689 0.08506 0.89459 0.0
N339 N 0.45512 0.12844 0.86247 0.0
C340 C 0.39917 0.11118 0.84548 0.0
C341 C 0.42485 0.09442 0.84125 0.0
C342 C 0.45224 0.1033 0.84985 0.0
C343 C 0.40179 0.13603 0.85932 0.0
C344 C 0.42974 0.14401 0.8678 0.0
N345 N 0.53618 0.15903 0.87774 0.0
C346 C 0.58984 0.15832 0.87182 0.0
C347 C 0.59395 0.18301 0.88549 0.0
C348 C 0.56855 0.19509 0.89563 0.0
C349 C 0.54022 0.18278 0.89168 0.0
C350 C 0.56124 0.14684 0.86827 0.0
H351 H 0.52198 0.19304 0.90001 0.0
H352 H 0.56013 0.12828 0.85752 0.0
H353 H 0.47097 0.08992 0.84545 0.0
H354 H 0.43053 0.16322 0.87822 0.0
C355 C 0.46624 0.19696 0.90104 0.0
C356 C 0.4927 0.09453 0.91514 0.0
C357 C 0.48662 0.1881 0.82394 0.0
C358 C 0.52717 0.09115 0.84 0.0
H359 H 0.46962 0.12551 0.95284 0.0
H360 H 0.45473 0.18143 0.94525 0.0
H361 H 0.45329 0.25088 0.87897 0.0
H362 H 0.46403 0.24556 0.83656 0.0
H363 H 0.51078 0.15831 0.78625 0.0
H364 H 0.53346 0.10512 0.79479 0.0
H365 H 0.5392 0.03686 0.862 0.0
H366 H 0.5194 0.03861 0.90279 0.0
H367 H 0.42419 0.07509 0.83057 0.0
H368 H 0.38243 0.1494 0.86346 0.0
H369 H 0.60858 0.14816 0.86334 0.0
H370 H 0.57044 0.21392 0.9067 0.0
C371 C 0.89571 0.99357 0.33612 0.0
C372 C 0.91981 0.99439 0.3217 0.0
C373 C 0.91972 0.0219 0.31233 0.0
C374 C 0.89578 0.03635 0.32156 0.0
N375 N 0.88092 0.01992 0.33643 0.0
Co376 Co 0.84495 0.03278 0.35342 0.0
N377 N 0.85126 0.07533 0.34553 0.0
C378 C 0.86899 0.08533 0.32928 0.0
C379 C 0.86841 0.11566 0.32704 0.0
C380 C 0.84891 0.12554 0.34275 0.0
C381 C 0.83869 0.10053 0.3538 0.0
N382 N 0.80901 0.04591 0.37037 0.0
C383 C 0.80011 0.07363 0.37667 0.0
C384 C 0.77338 0.07247 0.38826 0.0
C385 C 0.76496 0.04314 0.38882 0.0
C386 C 0.78701 0.02802 0.37771 0.0
N387 N 0.83853 0.99015 0.36111 0.0
C388 C 0.81321 0.97855 0.3695 0.0
C389 C 0.81461 0.94832 0.37241 0.0
C390 C 0.84242 0.9402 0.36512 0.0
C391 C 0.85646 0.96604 0.35811 0.0
N392 N 0.86961 0.03803 0.37963 0.0
C393 C 0.90564 0.0416 0.41709 0.0
C394 C 0.87711 0.02884 0.41797 0.0
C395 C 0.85963 0.0272 0.3992 0.0
C396 C 0.91554 0.05303 0.39699 0.0
C397 C 0.89713 0.05124 0.37855 0.0
N398 N 0.81991 0.0269 0.32742 0.0
C399 C 0.77585 0.0392 0.30691 0.0
C400 C 0.77838 0.01278 0.29465 0.0
C401 C 0.80309 0.9945 0.29837 0.0
C402 C 0.82345 1.0019 0.31472 0.0
C403 C 0.79699 0.04601 0.32298 0.0
H404 H 0.84136 0.98658 0.3176 0.0
H405 H 0.79412 0.06626 0.33231 0.0
H406 H 0.83816 0.01661 0.40053 0.0
H407 H 0.90534 0.06021 0.36337 0.0
C408 C 0.88865 0.06619 0.31846 0.0
C409 C 0.88536 0.96612 0.34661 0.0
C410 C 0.81503 0.10158 0.37051 0.0
C411 C 0.78984 0.99707 0.37636 0.0
H412 H 0.93531 0.97661 0.31783 0.0
H413 H 0.93546 0.03046 0.30042 0.0
H414 H 0.88114 0.12908 0.31567 0.0
H415 H 0.84259 0.14853 0.34545 0.0
H416 H 0.76106 0.09091 0.39535 0.0
H417 H 0.7455 0.03389 0.39687 0.0
H418 H 0.79759 0.93392 0.37925 0.0
H419 H 0.85116 0.91775 0.36454 0.0
H420 H 0.86855 0.01934 0.43298 0.0
H421 H 0.9373 0.06339 0.39553 0.0
H422 H 0.75743 0.05433 0.30434 0.0
H423 H 0.80602 0.97381 0.2894 0.0
H424 H 0.95196 0.42671 0.94151 0.0
H425 H 0.96022 0.46046 0.97266 0.0
H426 H 0.0554 0.45092 0.96401 0.0
H427 H 0.04705 0.41822 0.93236 0.0
H428 H 0.98592 0.45079 0.01078 0.0
H429 H 0.05004 0.5395 0.969 0.0
H430 H 0.03065 0.5106 0.95418 0.0
H431 H 0.06683 0.50352 0.96564 0.0
C432 C 0.9746 0.43236 0.94606 0.0
C433 C 0.99887 0.42031 0.93434 0.0
C434 C 0.97935 0.45148 0.96393 0.0
C435 C 1.00848 0.45884 0.97057 0.0
C436 C 0.03273 0.44645 0.95894 0.0
H437 H 0.07787 0.55517 0.08485 0.0
H438 H 0.0717 0.52207 0.053 0.0
C439 C 0.02797 0.42759 0.94094 0.0
C440 C 0.01338 0.4784 0.99014 0.0
H441 H 0.04921 0.54146 1.00792 0.0
C442 C 0.99964 0.47068 1.01005 0.0
C443 C 0.03131 0.50447 0.98937 0.0
C444 C 0.0453 0.51521 0.96836 0.0
C445 C 1.00356 0.488 0.0291 0.0
C446 C 0.02166 0.5138 0.02832 0.0
C447 C 0.03554 0.52152 1.00853 0.0
C448 C 0.02549 0.53363 0.04774 0.0
C449 C 0.9885 0.47849 0.05003 0.0
C450 C 1.00163 0.55121 0.0553 0.0
C451 C 1.00513 0.57021 0.07335 0.0
C452 C 0.03256 0.57201 0.08439 0.0
C453 C 0.0564 0.55418 0.07686 0.0
C454 C 0.05296 0.53537 0.0586 0.0
H455 H 0.9797 0.45539 0.04896 0.0
H456 H 1.00432 0.47998 0.06388 0.0
H457 H 0.96957 0.4937 0.05368 0.0
H458 H 0.98029 0.55036 0.04713 0.0
H459 H 0.98619 0.58333 0.07882 0.0
H460 H 0.45635 0.5013 0.60227 0.0
H461 H 0.4898 0.49091 0.57186 0.0
H462 H 0.42155 0.4386 0.54089 0.0
H463 H 0.38786 0.44884 0.57118 0.0
H464 H 0.50094 0.42488 0.54726 0.0
H465 H 0.45165 0.51827 0.50021 0.0
H466 H 0.45339 0.51951 0.52968 0.0
H467 H 0.42783 0.49462 0.51651 0.0
C468 C 0.44733 0.48934 0.58853 0.0
C469 C 0.41693 0.48084 0.58767 0.0
C470 C 0.46716 0.48244 0.57136 0.0
C471 C 0.45758 0.4655 0.55343 0.0
C472 C 0.42893 0.4531 0.55401 0.0
H473 H 0.53262 0.44986 0.42144 0.0
H474 H 0.49947 0.44865 0.45343 0.0
C475 C 0.40924 0.45994 0.5712 0.0
C476 C 0.47694 0.46174 0.53376 0.0
H477 H 0.4902 0.49107 0.48328 0.0
C478 C 0.49867 0.43929 0.53324 0.0
C479 C 0.47362 0.48032 0.51542 0.0
C480 C 0.45044 0.50465 0.51527 0.0
C481 C 0.51726 0.435 0.5148 0.0
C482 C 0.51453 0.45416 0.49659 0.0
C483 C 0.49242 0.47635 0.49712 0.0
C484 C 0.5349 0.45238 0.47714 0.0
C485 C 0.53922 0.40956 0.51489 0.0
C486 C 0.56594 0.45472 0.47964 0.0
C487 C 0.58497 0.45499 0.46139 0.0
C488 C 0.5735 0.45349 0.44003 0.0
C489 C 0.54238 0.45072 0.43755 0.0
C490 C 0.52334 0.45026 0.45588 0.0
H491 H 0.53183 0.39162 0.52611 0.0
H492 H 0.54233 0.39987 0.4983 0.0
H493 H 0.56112 0.41785 0.52072 0.0
H494 H 0.57553 0.45708 0.49573 0.0
H495 H 0.60877 0.4567 0.46409 0.0
H496 H 0.41965 0.93914 0.08638 0.0
H497 H 0.42327 0.97066 0.05385 0.0
H498 H 0.51582 0.94634 0.04599 0.0
H499 H 0.51217 0.91452 0.07804 0.0
H500 H 0.45631 0.01848 0.04387 0.0
H501 H 0.48635 0.9281 0.9859 0.0
H502 H 0.47343 0.92075 0.0133 0.0
H503 H 0.5119 0.9304 1.00822 0.0
C504 C 0.44077 0.94055 0.07771 0.0
C505 C 0.46549 0.92392 0.08467 0.0
C506 C 0.4428 0.95853 0.05906 0.0
C507 C 0.46962 0.96037 0.047 0.0
C508 C 0.49457 0.94457 0.05443 0.0
H509 H 0.53629 0.06839 0.93957 0.0
H510 H 0.52989 0.03557 0.97129 0.0
C511 C 0.49248 0.92642 0.07287 0.0
C512 C 0.4718 0.97915 0.02695 0.0
H513 H 0.49324 0.97784 0.97311 0.0
C514 C 0.46412 0.00947 0.02838 0.0
C515 C 0.48189 0.96753 1.00657 0.0
C516 C 0.48856 0.93485 1.00331 0.0
C517 C 0.46702 0.02849 1.01028 0.0
C518 C 0.47782 0.01698 0.99015 0.0
C519 C 0.4852 0.98669 0.9886 0.0
C520 C 0.48163 0.03613 0.97055 0.0
C521 C 0.45912 0.06098 0.01285 0.0
C522 C 0.45666 0.04693 0.95937 0.0
C523 C 0.46031 0.06528 0.94111 0.0
C524 C 0.48899 0.0733 0.93373 0.0
C525 C 0.51397 0.06229 0.94481 0.0
C526 C 0.51032 0.04368 0.96295 0.0
H527 H 0.45542 0.0674 0.03022 0.0
H528 H 0.4771 0.07518 1.0059 0.0
H529 H 0.43836 0.0656 1.0037 0.0
H530 H 0.43433 0.04121 0.96483 0.0
H531 H 0.44072 0.07356 0.93288 0.0
H532 H 0.88953 0.05454 0.45948 0.0
H533 H 0.92024 0.05134 0.49227 0.0
H534 H 0.99619 0.0262 0.45266 0.0
H535 H 0.9655 0.029 0.41976 0.0
H536 H 0.98496 0.98832 0.48919 0.0
H537 H 0.98758 0.10756 0.51391 0.0
H538 H 0.9511 0.09256 0.50857 0.0
H539 H 0.97781 0.0955 0.48667 0.0
C540 C 0.91281 0.04845 0.4577 0.0
C541 C 0.92499 0.04202 0.43691 0.0
C542 C 0.93042 0.04688 0.47648 0.0
C543 C 0.96063 0.0388 0.47497 0.0
C544 C 0.97298 0.03266 0.45425 0.0
H545 H 0.09989 0.04085 0.57268 0.0
H546 H 0.06712 0.05134 0.54237 0.0
C547 C 0.95544 0.03446 0.43542 0.0
C548 C 0.97892 0.03523 0.49506 0.0
H549 H 1.00758 0.07296 0.53897 0.0
C550 C 0.9899 1.00683 0.50006 0.0
C551 C 0.98553 0.05941 0.50922 0.0
C552 C 0.97515 0.09057 0.50433 0.0
C553 C 1.00701 1.0019 0.51887 0.0
C554 C 0.01322 0.02596 0.53324 0.0
C555 C 1.00255 0.05446 0.52812 0.0
C556 C 0.03187 0.02189 0.55309 0.0
C557 C 0.01884 0.97102 0.52302 0.0
C558 C 0.02229 1.00363 0.57025 0.0
C559 C 0.04148 0.99696 0.58754 0.0
C560 C 0.07144 1.00695 0.58754 0.0
C561 C 0.07894 0.02896 0.57198 0.0
C562 C 0.05975 0.03581 0.55476 0.0
H563 H 0.01708 0.95639 0.50837 0.0
H564 H 0.04257 0.97199 0.52809 0.0
H565 H 1.00578 0.96071 0.53646 0.0
H566 H 1.00001 0.99422 0.57015 0.0
H567 H 0.03224 0.98411 0.60069 0.0
H568 H 0.14772 0.66801 0.12085 0.0
H569 H 0.19841 0.68869 0.11734 0.0
H570 H 0.17751 0.75424 0.167 0.0
H571 H 0.1267 0.73401 0.17 0.0
H572 H 0.21018 0.77883 0.13482 0.0
H573 H 0.26422 0.67379 0.1602 0.0
H574 H 0.24159 0.6697 0.13633 0.0
H575 H 0.22443 0.67937 0.16208 0.0
C576 C 0.15392 0.68716 0.13069 0.0
C577 C 0.13332 0.69964 0.14553 0.0
C578 C 0.18298 0.69875 0.1289 0.0
C579 C 0.19218 0.72272 0.14223 0.0
C580 C 0.17115 0.73574 0.15656 0.0
H581 H 0.37127 0.77359 0.18028 0.0
H582 H 0.32113 0.75227 0.17632 0.0
C583 C 0.14209 0.72427 0.15824 0.0
C584 C 0.22374 0.73393 0.14169 0.0
H585 H 0.29635 0.71284 0.14918 0.0
C586 C 0.22901 0.76435 0.13789 0.0
C587 C 0.24846 0.71525 0.14603 0.0
C588 C 0.24448 0.68279 0.15161 0.0
C589 C 0.25805 0.77653 0.13834 0.0
C590 C 0.28283 0.75771 0.1422 0.0
C591 C 0.27755 0.72729 0.14595 0.0
C592 C 0.31413 0.7694 0.1438 0.0
C593 C 0.2617 0.8097 0.1355 0.0
C594 C 0.32754 0.7855 0.12665 0.0
C595 C 0.35622 0.79785 0.129 0.0
C596 C 0.37215 0.79404 0.14842 0.0
C597 C 0.35937 0.77684 0.16515 0.0
C598 C 0.33071 0.7647 0.16288 0.0
H599 H 0.24041 0.82178 0.13853 0.0
H600 H 0.27886 0.81878 0.14673 0.0
H601 H 0.26891 0.8143 0.11849 0.0
H602 H 0.31571 0.78882 0.11152 0.0
H603 H 0.36568 0.81092 0.11585 0.0
H604 H 0.28715 0.63236 0.67089 0.0
H605 H 0.26836 0.68322 0.66874 0.0
H606 H 0.26636 0.67622 0.59852 0.0
H607 H 0.28394 0.62476 0.60054 0.0
H608 H 0.29348 0.73153 0.64942 0.0
H609 H 0.18361 0.70811 0.61167 0.0
H610 H 0.20649 0.67919 0.62309 0.0
H611 H 0.21488 0.69372 0.59645 0.0
C612 C 0.28218 0.64132 0.65496 0.0
C613 C 0.28685 0.62413 0.6359 0.0
C614 C 0.27167 0.6706 0.65376 0.0
C615 C 0.26547 0.68354 0.6335 0.0
C616 C 0.27034 0.66662 0.61439 0.0
H617 H 0.20493 0.86341 0.60015 0.0
H618 H 0.22374 0.8122 0.59856 0.0
C619 C 0.28079 0.63724 0.61557 0.0
C620 C 0.25483 0.71498 0.6325 0.0
H621 H 0.1972 0.7589 0.61559 0.0
C622 C 0.2724 0.73746 0.64204 0.0
C623 C 0.22736 0.72286 0.6228 0.0
C624 C 0.20682 0.69971 0.61309 0.0
C625 C 0.26335 0.76745 0.64213 0.0
C626 C 0.23575 0.77525 0.63268 0.0
C627 C 0.21837 0.75291 0.62281 0.0
C628 C 0.22411 0.80632 0.63357 0.0
C629 C 0.28357 0.7906 0.65218 0.0
C630 C 0.2176 0.81993 0.65376 0.0
C631 C 0.20662 0.84908 0.65474 0.0
C632 C 0.20184 0.86544 0.63553 0.0
C633 C 0.20808 0.85156 0.61529 0.0
C634 C 0.21898 0.82228 0.61433 0.0
H635 H 0.3069 0.78247 0.65346 0.0
H636 H 0.28356 0.81141 0.6425 0.0
H637 H 0.27543 0.79604 0.6689 0.0
H638 H 0.22071 0.80785 0.66881 0.0
H639 H 0.20141 0.8586 0.67061 0.0
H640 H 0.64747 0.15371 0.88947 0.0
H641 H 0.6975 0.17519 0.89197 0.0
H642 H 0.65994 0.26348 0.891 0.0
H643 H 0.60975 0.24219 0.88833 0.0
H644 H 0.72577 0.2117 0.86228 0.0
H645 H 0.71667 0.26913 0.94256 0.0
H646 H 0.69001 0.24149 0.93366 0.0
H647 H 0.68794 0.27897 0.92367 0.0
C648 C 0.64975 0.17773 0.88979 0.0
C649 C 0.6244 0.19616 0.88864 0.0
C650 C 0.67845 0.18998 0.89133 0.0
C651 C 0.68261 0.22098 0.89193 0.0
C652 C 0.65737 0.2395 0.89106 0.0
H653 H 0.83728 0.33849 0.8894 0.0
H654 H 0.7874 0.31641 0.89103 0.0
C655 C 0.62861 0.22725 0.88953 0.0
C656 C 0.71341 0.2338 0.89232 0.0
H657 H 0.7599 0.27975 0.92121 0.0
C658 C 0.73328 0.22642 0.87525 0.0
C659 C 0.72326 0.25312 0.90918 0.0
C660 C 0.70349 0.26098 0.92843 0.0
C661 C 0.76238 0.23824 0.87434 0.0
C662 C 0.77227 0.25757 0.8912 0.0
C663 C 0.75242 0.26492 0.9083 0.0
C664 C 0.80289 0.27081 0.89112 0.0
C665 C 0.78197 0.23058 0.85494 0.0
C666 C 0.82842 0.25264 0.89113 0.0
C667 C 0.85708 0.26522 0.89001 0.0
C668 C 0.86094 0.29632 0.88898 0.0
C669 C 0.83529 0.31446 0.88973 0.0
C670 C 0.80667 0.30186 0.89083 0.0
H671 H 0.7687 0.22222 0.84091 0.0
H672 H 0.7951 0.25024 0.84956 0.0
H673 H 0.79783 0.21281 0.85958 0.0
H674 H 0.82619 0.22865 0.8918 0.0
H675 H 0.87617 0.25048 0.88936 0.0
H676 H 0.75233 0.38108 0.35873 0.0
H677 H 0.77374 0.33092 0.36196 0.0
H678 H 0.69497 0.30208 0.39686 0.0
H679 H 0.67391 0.35238 0.39396 0.0
H680 H 0.74672 0.27857 0.41427 0.0
H681 H 0.74451 0.26159 0.32446 0.0
H682 H 0.76562 0.29357 0.33301 0.0
H683 H 0.72598 0.29246 0.33781 0.0
C684 C 0.73992 0.3641 0.3674 0.0
C685 C 0.71151 0.37045 0.37606 0.0
C686 C 0.75198 0.33539 0.36907 0.0
C687 C 0.73572 0.31245 0.37926 0.0
C688 C 0.70791 0.31927 0.38883 0.0
H689 H 0.76185 0.12277 0.35589 0.0
H690 H 0.74187 0.17338 0.35986 0.0
C691 C 0.6959 0.34797 0.38721 0.0
C692 C 0.74701 0.28115 0.37919 0.0
H693 H 0.76733 0.22377 0.34517 0.0
C694 C 0.75125 0.26658 0.39917 0.0
C695 C 0.75243 0.26523 0.35949 0.0
C696 C 0.74665 0.27884 0.33746 0.0
C697 C 0.76111 0.2368 0.39997 0.0
C698 C 0.76733 0.22118 0.38026 0.0
C699 C 0.76278 0.23569 0.36031 0.0
C700 C 0.7782 0.1897 0.37979 0.0
C701 C 0.76407 0.22214 0.42193 0.0
C702 C 0.80514 0.18173 0.38984 0.0
C703 C 0.81636 0.15265 0.38779 0.0
C704 C 0.80092 0.13102 0.37559 0.0
C705 C 0.77381 0.13885 0.3658 0.0
C706 C 0.76256 0.16783 0.36791 0.0
H707 H 0.75071 0.23386 0.4347 0.0
H708 H 0.75683 0.19849 0.4212 0.0
H709 H 0.78781 0.22277 0.42694 0.0
H710 H 0.81808 0.19824 0.39861 0.0
H711 H 0.83764 0.14731 0.39505 0.0
H712 H 0.71735 0.518 0.26226 0.0
H713 H 0.75286 0.53782 0.23531 0.0
H714 H 0.82566 0.49892 0.27077 0.0
H715 H 0.79043 0.47823 0.29713 0.0
H716 H 0.79637 0.57791 0.24209 0.0
H717 H 0.84803 0.47513 0.20951 0.0
H718 H 0.81399 0.47465 0.22547 0.0
H719 H 0.84972 0.47631 0.23874 0.0
C720 C 0.74085 0.51301 0.26399 0.0
C721 C 0.75097 0.49654 0.28194 0.0
C722 C 0.76118 0.52456 0.24865 0.0
C723 C 0.79202 0.51964 0.25078 0.0
C724 C 0.80203 0.50257 0.26839 0.0
H725 H 0.94173 0.62764 0.21434 0.0
H726 H 0.897 0.60496 0.23035 0.0
C727 C 0.7818 0.49102 0.28366 0.0
C728 C 0.81404 0.53407 0.23574 0.0
H729 H 0.87674 0.52029 0.2051 0.0
C730 C 0.81366 0.56523 0.23374 0.0
C731 C 0.8364 0.51766 0.22445 0.0
C732 C 0.83689 0.48407 0.22445 0.0
C733 C 0.8358 0.58044 0.22177 0.0
C734 C 0.85947 0.56417 0.21189 0.0
C735 C 0.85894 0.53292 0.21291 0.0
C736 C 0.88576 0.57914 0.20153 0.0
C737 C 0.83359 0.61385 0.21992 0.0
C738 C 0.89493 0.57183 0.1801 0.0
C739 C 0.92079 0.58461 0.17102 0.0
C740 C 0.93793 0.60479 0.18326 0.0
C741 C 0.92862 0.61236 0.20453 0.0
C742 C 0.90296 0.59953 0.21362 0.0
H743 H 0.81005 0.62142 0.22138 0.0
H744 H 0.84628 0.62442 0.2334 0.0
H745 H 0.84292 0.62179 0.20414 0.0
H746 H 0.88223 0.556 0.17047 0.0
H747 H 0.92774 0.57833 0.15464 0.0
H748 H 0.40481 0.40864 0.71537 0.0
H749 H 0.42098 0.36669 0.73724 0.0
H750 H 0.40736 0.30738 0.68251 0.0
H751 H 0.392 0.34975 0.66007 0.0
H752 H 0.39013 0.31656 0.74874 0.0
H753 H 0.49226 0.28651 0.7014 0.0
H754 H 0.47288 0.3213 0.69766 0.0
H755 H 0.45826 0.2875 0.68604 0.0
C756 C 0.40572 0.3868 0.70776 0.0
C757 C 0.39756 0.38276 0.68577 0.0
C758 C 0.41472 0.36273 0.72041 0.0
C759 C 0.41585 0.33388 0.71149 0.0
C760 C 0.40725 0.32952 0.68965 0.0
H761 H 0.43606 0.18157 0.80004 0.0
H762 H 0.41823 0.21397 0.77069 0.0
C763 C 0.39818 0.35372 0.6769 0.0
C764 C 0.42553 0.30867 0.72546 0.0
H765 H 0.48051 0.25673 0.7319 0.0
C766 C 0.40975 0.30331 0.74496 0.0
C767 C 0.45135 0.29159 0.72066 0.0
C768 C 0.46989 0.29705 0.70041 0.0
C769 C 0.41928 0.28179 0.75992 0.0
C770 C 0.44503 0.26463 0.75511 0.0
C771 C 0.46063 0.26969 0.73548 0.0
C772 C 0.45707 0.24275 0.77094 0.0
C773 C 0.40233 0.27849 0.78118 0.0
C774 C 0.48537 0.2473 0.78016 0.0
C775 C 0.49563 0.22864 0.79671 0.0
C776 C 0.47782 0.20505 0.80422 0.0
C777 C 0.45014 0.19962 0.79439 0.0
C778 C 0.4399 0.21824 0.77779 0.0
H779 H 0.38746 0.29781 0.78451 0.0
H780 H 0.38824 0.25817 0.78038 0.0
H781 H 0.4179 0.27613 0.79508 0.0
H782 H 0.49904 0.26599 0.77514 0.0
H783 H 0.51697 0.23326 0.80423 0.0
H784 H 0.56893 0.93078 0.15767 0.0
H785 H 0.61322 0.95391 0.17438 0.0
H786 H 0.60991 0.889 0.22596 0.0
H787 H 0.56649 0.86557 0.2089 0.0
H788 H 0.61865 0.98046 0.21315 0.0
H789 H 0.69669 0.88539 0.2105 0.0
H790 H 0.66226 0.88541 0.19542 0.0
H791 H 0.66239 0.87558 0.22389 0.0
C792 C 0.57822 0.92119 0.17229 0.0
C793 C 0.56477 0.89619 0.18185 0.0
C794 C 0.60335 0.93445 0.18192 0.0
C795 C 0.61537 0.92293 0.20127 0.0
C796 C 0.60178 0.89784 0.21073 0.0
H797 H 0.71776 0.01504 0.30045 0.0
H798 H 0.67909 0.99524 0.2764 0.0
C799 C 0.57688 0.88451 0.20104 0.0
C800 C 0.64095 0.93799 0.21235 0.0
H801 H 0.70871 0.92485 0.23566 0.0
C802 C 0.6385 0.96835 0.21784 0.0
C803 C 0.66717 0.92248 0.21823 0.0
C804 C 0.67245 0.89051 0.21149 0.0
C805 C 0.66092 0.98326 0.22966 0.0
C806 C 0.68625 0.96724 0.23675 0.0
C807 C 0.68919 0.93716 0.23056 0.0
C808 C 0.70972 0.98093 0.25088 0.0
C809 C 0.65729 0.01614 0.23421 0.0
C810 C 0.74003 0.9791 0.24489 0.0
C811 C 0.76225 0.99012 0.25878 0.0
C812 C 0.75471 1.00331 0.27901 0.0
C813 C 0.72434 1.00557 0.28482 0.0
C814 C 0.70215 0.99429 0.27102 0.0
H815 H 0.64279 0.02679 0.22189 0.0
H816 H 0.64651 0.01927 0.25044 0.0
H817 H 0.67918 0.02778 0.23428 0.0
H818 H 0.74655 0.96886 0.2295 0.0
H819 H 0.78539 0.98814 0.25374 0.0
H820 H 0.05045 0.31001 0.80054 0.0
H821 H 0.06837 0.27782 0.77053 0.0
H822 H 0.98752 0.22578 0.77507 0.0
H823 H 0.96954 0.25831 0.80477 0.0
H824 H 0.08011 0.21908 0.7732 0.0
H825 H 0.99492 0.2362 0.70964 0.0
H826 H 0.99876 0.26089 0.73288 0.0
H827 H 0.97867 0.22632 0.73546 0.0
C828 C 0.03633 0.29209 0.79469 0.0
C829 C 1.00857 0.28667 0.80466 0.0
C830 C 0.04657 0.27365 0.77765 0.0
C831 C 0.02915 0.24956 0.77026 0.0
C832 C 1.00107 0.2446 0.78003 0.0
H833 H 0.08414 0.08264 0.71542 0.0
H834 H 0.06853 0.12526 0.73751 0.0
C835 C 0.99083 0.26307 0.79703 0.0
C836 C 0.04135 0.22812 0.75376 0.0
H837 H 0.02542 0.19242 0.70567 0.0
C838 C 0.0683 0.21356 0.75831 0.0
C839 C 0.02625 0.2211 0.73413 0.0
C840 C 0.99821 0.23718 0.7276 0.0
C841 C 0.07985 0.19137 0.74432 0.0
C842 C 0.0638 0.18307 0.72539 0.0
C843 C 0.03756 0.19852 0.7203 0.0
C844 C 0.07305 0.15728 0.71148 0.0
C845 C 0.10909 0.17686 0.75003 0.0
C846 C 0.08013 0.16086 0.68924 0.0
C847 C 0.08885 0.13628 0.67638 0.0
C848 C 0.09022 0.1076 0.68546 0.0
C849 C 0.0829 0.10424 0.70772 0.0
C850 C 0.07431 0.1287 0.7205 0.0
H851 H 0.12273 0.19143 0.7608 0.0
H852 H 0.10455 0.15587 0.75892 0.0
H853 H 0.12233 0.17139 0.73513 0.0
H854 H 0.07913 0.1827 0.68189 0.0
H855 H 0.09416 0.13965 0.65929 0.0
H856 H 0.12796 0.34243 0.82738 0.0
H857 H 0.17246 0.3556 0.80599 0.0
H858 H 0.15547 0.44873 0.81838 0.0
H859 H 0.11163 0.43574 0.84028 0.0
H860 H 0.17254 0.38843 0.76858 0.0
H861 H 0.24424 0.44401 0.8298 0.0
H862 H 0.21262 0.42122 0.83738 0.0
H863 H 0.20726 0.45925 0.82921 0.0
C864 C 0.13415 0.36567 0.82605 0.0
C865 C 0.11616 0.38801 0.83557 0.0
C866 C 0.15949 0.37319 0.81367 0.0
C867 C 0.16758 0.40316 0.81074 0.0
C868 C 0.15012 0.42543 0.82073 0.0
H869 H 0.27761 0.50733 0.72483 0.0
H870 H 0.24565 0.48787 0.75418 0.0
C871 C 0.12481 0.41796 0.83306 0.0
C872 C 0.19262 0.41134 0.79576 0.0
H873 H 0.25649 0.45295 0.79218 0.0
C874 C 0.19114 0.40215 0.77382 0.0
C875 C 0.21685 0.42938 0.80255 0.0
C876 C 0.22055 0.4388 0.82607 0.0
C877 C 0.21249 0.41142 0.75834 0.0
C878 C 0.23635 0.43001 0.76503 0.0
C879 C 0.23822 0.4387 0.78706 0.0
C880 C 0.25854 0.44189 0.7491 0.0
C881 C 0.20861 0.40227 0.73476 0.0
C882 C 0.27715 0.42265 0.73697 0.0
C883 C 0.29555 0.4338 0.72032 0.0
C884 C 0.29593 0.46439 0.71573 0.0
C885 C 0.27824 0.48376 0.72844 0.0
C886 C 0.25986 0.47263 0.74509 0.0
H887 H 0.18585 0.3935 0.73156 0.0
H888 H 0.21289 0.42135 0.72373 0.0
H889 H 0.22489 0.38446 0.7306 0.0
H890 H 0.27678 0.39891 0.73995 0.0
H891 H 0.30869 0.41845 0.71047 0.0
H892 H 0.64142 0.55664 0.30227 0.0
H893 H 0.61799 0.59923 0.28427 0.0
H894 H 0.57095 0.62094 0.34403 0.0
H895 H 0.59473 0.57844 0.36206 0.0
H896 H 0.55698 0.60683 0.27847 0.0
H897 H 0.60447 0.70191 0.32534 0.0
H898 H 0.62037 0.665 0.32603 0.0
H899 H 0.58727 0.67342 0.34163 0.0
C900 C 0.62662 0.57101 0.31164 0.0
C901 C 0.62016 0.56469 0.33358 0.0
C902 C 0.61308 0.59516 0.30134 0.0
C903 C 0.59286 0.6135 0.31281 0.0
C904 C 0.58689 0.60752 0.33494 0.0
H905 H 0.46555 0.73571 0.25089 0.0
H906 H 0.48745 0.69606 0.27298 0.0
C907 C 0.60046 0.58331 0.34525 0.0
C908 C 0.57687 0.6377 0.30118 0.0
H909 H 0.56683 0.71318 0.29975 0.0
C910 C 0.55906 0.63007 0.28318 0.0
C911 C 0.57966 0.66806 0.30726 0.0
C912 C 0.59915 0.67775 0.326 0.0
C913 C 0.54409 0.65191 0.27109 0.0
C914 C 0.54681 0.68221 0.27721 0.0
C915 C 0.56453 0.68989 0.29523 0.0
C916 C 0.53313 0.70637 0.26415 0.0
C917 C 0.52613 0.64257 0.25146 0.0
C918 C 0.55149 0.72538 0.25194 0.0
C919 C 0.5391 0.74775 0.23912 0.0
C920 C 0.50794 0.75207 0.23839 0.0
C921 C 0.48956 0.733 0.25081 0.0
C922 C 0.50204 0.71037 0.26354 0.0
H923 H 0.52966 0.61877 0.24707 0.0
H924 H 0.50204 0.64597 0.255 0.0
H925 H 0.53213 0.65648 0.23716 0.0
H926 H 0.57551 0.72257 0.25203 0.0
H927 H 0.5541 0.76131 0.22943 0.0
H928 H 0.35851 0.14885 0.82696 0.0
H929 H 0.31447 0.13542 0.80551 0.0
H930 H 0.3319 0.04239 0.81669 0.0
H931 H 0.37525 0.05562 0.83866 0.0
H932 H 0.315 0.10275 0.7677 0.0
H933 H 0.24299 0.04641 0.82856 0.0
H934 H 0.27438 0.06935 0.83628 0.0
H935 H 0.28007 0.0314 0.82753 0.0
C936 C 0.35251 0.12556 0.82535 0.0
C937 C 0.37049 0.10333 0.83456 0.0
C938 C 0.32743 0.1179 0.81293 0.0
C939 C 0.31959 0.08788 0.80965 0.0
C940 C 0.33704 0.06571 0.81931 0.0
H941 H 0.21049 0.98352 0.72313 0.0
H942 H 0.24236 1.00299 0.75238 0.0
C943 C 0.36209 0.07333 0.83168 0.0
C944 C 0.29478 0.07957 0.79468 0.0
H945 H 0.23118 0.03763 0.79089 0.0
C946 C 0.29642 0.08889 0.77286 0.0
C947 C 0.27058 0.06135 0.80136 0.0
C948 C 0.26668 0.05178 0.82476 0.0
C949 C 0.27527 0.07958 0.75738 0.0
C950 C 0.25144 0.06083 0.76395 0.0
C951 C 0.24942 0.052 0.78586 0.0
C952 C 0.22942 0.04895 0.748 0.0
C953 C 0.27932 0.0889 0.7339 0.0
C954 C 0.21082 0.06819 0.73627 0.0
C955 C 0.19247 0.05703 0.71967 0.0
C956 C 0.19212 0.02645 0.71473 0.0
C957 C 0.20985 1.00709 0.72702 0.0
C958 C 0.22817 0.01823 0.7436 0.0
H959 H 0.30209 0.09776 0.73067 0.0
H960 H 0.27521 0.06987 0.72262 0.0
H961 H 0.26303 0.10668 0.73012 0.0
H962 H 0.21113 0.09192 0.73955 0.0
H963 H 0.1793 0.07238 0.71017 0.0
H964 H 0.99438 0.71685 0.26774 0.0
H965 H 0.97415 0.75613 0.29153 0.0
H966 H 0.99743 0.82192 0.24334 0.0
H967 H 0.01831 0.78281 0.21973 0.0
H968 H 1.00862 0.84253 0.28355 0.0
H969 H 0.8945 0.79464 0.28238 0.0
H970 H 0.92189 0.76953 0.29287 0.0
H971 H 0.92402 0.78106 0.26481 0.0
C972 C 0.99533 0.73972 0.26228 0.0
C973 C 1.0078 0.74666 0.24177 0.0
C974 C 0.98358 0.76216 0.27584 0.0
C975 C 0.9835 0.79199 0.26904 0.0
C976 C 0.99704 0.7991 0.24895 0.0
H977 H 0.8675 0.93493 0.311 0.0
H978 H 0.89194 0.8919 0.29376 0.0
C979 C 1.0091 0.77671 0.23548 0.0
C980 C 0.96878 0.81571 0.28252 0.0
H981 H 0.9021 0.83614 0.30571 0.0
C982 C 0.98534 0.8411 0.28844 0.0
C983 C 0.93824 0.81414 0.28866 0.0
C984 C 0.91852 0.78854 0.28169 0.0
C985 C 0.97227 0.86488 0.30017 0.0
C986 C 0.94192 0.86297 0.30676 0.0
C987 C 0.92543 0.83751 0.30094 0.0
C988 C 0.92625 0.88794 0.31829 0.0
C989 C 0.99086 0.8923 0.30463 0.0
C990 C 0.93678 0.89968 0.33818 0.0
C991 C 0.92286 0.92445 0.34797 0.0
C992 C 0.89788 0.93746 0.33823 0.0
C993 C 0.8866 0.92501 0.31888 0.0
C994 C 0.90062 0.90051 0.30902 0.0
H995 H 0.01072 0.89343 0.29368 0.0
H996 H 0.97754 0.9129 0.30253 0.0
H997 H 0.99891 0.89172 0.32171 0.0
H998 H 0.95603 0.88999 0.34598 0.0
H999 H 0.93197 0.93386 0.36283 0.0
loop_
_geom_bond_atom_site_label_1
_geom_bond_atom_site_label_2
_geom_bond_distance
_geom_bond_site_symmetry_2
_ccdc_geom_bond_type
C0 C1 1.443 . S
C0 N4 1.376 . S
C0 C38 1.389 . S
C1 C0 1.443 . S
C1 C2 1.340 . S
C1 H41 0.951 . S
C2 C1 1.340 . S
C2 C3 1.439 . S
C2 H42 0.950 . S
C3 C2 1.439 . S
C3 N4 1.374 . S
C3 C37 1.395 . S
N4 C0 1.376 . S
N4 C3 1.374 . S
N4 Co5 2.008 1_655 S
Co5 N4 2.008 1_455 S
Co5 N6 1.995 . S
Co5 N11 2.008 . S
Co5 N16 1.995 1_455 S
Co5 N21 2.282 . S
Co5 N27 2.282 1_455 S
N6 Co5 1.995 . S
N6 C7 1.376 1_455 S
N6 C10 1.383 . S
C7 N6 1.376 1_655 S
C7 C8 1.446 1_655 S
C7 C37 1.391 . S
C8 C7 1.446 1_455 S
C8 C9 1.339 . S
C8 H43 0.949 . S
C9 C8 1.339 . S
C9 C10 1.439 . S
C9 H44 0.950 . S
C10 N6 1.383 . S
C10 C9 1.439 . S
C10 C39 1.392 . S
N11 Co5 2.008 . S
N11 C12 1.376 . S
N11 C15 1.374 . S
C12 N11 1.376 . S
C12 C13 1.443 . S
C12 C39 1.389 . S
C13 C12 1.443 . S
C13 C14 1.340 . S
C13 H45 0.951 . S
C14 C13 1.340 . S
C14 C15 1.439 . S
C14 H46 0.950 . S
C15 N11 1.374 . S
C15 C14 1.439 . S
C15 C40 1.395 . S
N16 Co5 1.995 1_655 S
N16 C17 1.376 1_655 S
N16 C20 1.383 . S
C17 N16 1.376 1_455 S
C17 C18 1.446 1_455 S
C17 C40 1.391 . S
C18 C17 1.446 1_655 S
C18 C19 1.339 . S
C18 H47 0.949 . S
C19 C18 1.339 . S
C19 C20 1.439 . S
C19 H48 0.950 . S
C20 N16 1.383 . S
C20 C19 1.439 . S
C20 C38 1.392 . S
N21 Co5 2.282 . S
N21 C24 1.332 . S
N21 C26 1.332 . S
C22 C23 1.386 . S
C22 C25 1.388 . S
C23 C22 1.386 . S
C23 C24 1.382 . S
C23 H49 0.950 . S
C24 N21 1.332 . S
C24 C23 1.382 . S
C24 H35 0.952 . S
C25 C22 1.388 . S
C25 C26 1.382 . S
C25 H50 0.950 . S
C26 N21 1.332 . S
C26 C25 1.382 . S
C26 H36 0.948 1_455 S
N27 Co5 2.282 1_655 S
N27 C31 1.332 . S
N27 C32 1.332 . S
C28 C29 1.388 . S
C28 C32 1.382 . S
C28 H51 0.950 . S
C29 C28 1.388 . S
C29 C30 1.386 . S
C30 C29 1.386 . S
C30 C31 1.382 . S
C30 H52 0.950 . S
C31 N27 1.332 . S
C31 C30 1.382 . S
C31 H33 0.952 . S
C32 N27 1.332 . S
C32 C28 1.382 . S
C32 H34 0.948 1_655 S
H33 C31 0.952 . S
H34 C32 0.948 1_455 S
H35 C24 0.952 . S
H36 C26 0.948 1_655 S
C37 C3 1.395 . S
C37 C7 1.391 . S
C38 C0 1.389 . S
C38 C20 1.392 . S
C39 C10 1.392 . S
C39 C12 1.389 . S
C40 C15 1.395 . S
C40 C17 1.391 . S
H41 C1 0.951 . S
H42 C2 0.950 . S
H43 C8 0.949 . S
H44 C9 0.950 . S
H45 C13 0.951 . S
H46 C14 0.950 . S
H47 C18 0.949 . S
H48 C19 0.950 . S
H49 C23 0.950 . S
H50 C25 0.950 . S
H51 C28 0.950 . S
H52 C30 0.950 . S
C53 C54 1.443 . S
C53 N57 1.376 . S
C53 C91 1.389 . S
C54 C53 1.443 . S
C54 C55 1.340 . S
C54 H94 0.951 . S
C55 C54 1.340 . S
C55 C56 1.439 . S
C55 H95 0.950 . S
C56 C55 1.439 . S
C56 N57 1.374 . S
C56 C90 1.395 . S
N57 C53 1.376 . S
N57 C56 1.374 . S
N57 Co58 2.008 . S
Co58 N57 2.008 . S
Co58 N59 1.995 . S
Co58 N64 2.008 . S
Co58 N69 1.995 . S
Co58 N74 2.282 . S
Co58 N80 2.282 . S
N59 Co58 1.995 . S
N59 C60 1.376 . S
N59 C63 1.383 . S
C60 N59 1.376 . S
C60 C61 1.446 . S
C60 C90 1.391 . S
C61 C60 1.446 . S
C61 C62 1.339 . S
C61 H96 0.949 . S
C62 C61 1.339 . S
C62 C63 1.439 . S
C62 H97 0.950 . S
C63 N59 1.383 . S
C63 C62 1.439 . S
C63 C92 1.392 . S
N64 Co58 2.008 . S
N64 C65 1.376 . S
N64 C68 1.374 . S
C65 N64 1.376 . S
C65 C66 1.443 . S
C65 C92 1.389 . S
C66 C65 1.443 . S
C66 C67 1.340 . S
C66 H98 0.951 . S
C67 C66 1.340 . S
C67 C68 1.439 . S
C67 H99 0.950 . S
C68 N64 1.374 . S
C68 C67 1.439 . S
C68 C93 1.395 . S
N69 Co58 1.995 . S
N69 C70 1.376 . S
N69 C73 1.383 . S
C70 N69 1.376 . S
C70 C71 1.446 . S
C70 C93 1.391 . S
C71 C70 1.446 . S
C71 C72 1.339 . S
C71 H100 0.949 . S
C72 C71 1.339 . S
C72 C73 1.439 . S
C72 H101 0.950 . S
C73 N69 1.383 . S
C73 C72 1.439 . S
C73 C91 1.392 . S
N74 Co58 2.282 . S
N74 C77 1.332 . S
N74 C79 1.332 . S
C75 C76 1.386 . S
C75 C78 1.388 . S
C76 C75 1.386 . S
C76 C77 1.382 . S
C76 H102 0.950 . S
C77 N74 1.332 . S
C77 C76 1.382 . S
C77 H88 0.952 . S
C78 C75 1.388 . S
C78 C79 1.382 . S
C78 H103 0.950 . S
C79 N74 1.332 . S
C79 C78 1.382 . S
C79 H89 0.948 . S
N80 Co58 2.282 . S
N80 C84 1.332 . S
N80 C85 1.332 . S
C81 C82 1.388 . S
C81 C85 1.382 . S
C81 H104 0.950 . S
C82 C81 1.388 . S
C82 C83 1.386 . S
C83 C82 1.386 . S
C83 C84 1.382 . S
C83 H105 0.950 . S
C84 N80 1.332 . S
C84 C83 1.382 . S
C84 H86 0.952 . S
C85 N80 1.332 . S
C85 C81 1.382 . S
C85 H87 0.948 . S
H86 C84 0.952 . S
H87 C85 0.948 . S
H88 C77 0.952 . S
H89 C79 0.948 . S
C90 C56 1.395 . S
C90 C60 1.391 . S
C91 C53 1.389 . S
C91 C73 1.392 . S
C92 C63 1.392 . S
C92 C65 1.389 . S
C93 C68 1.395 . S
C93 C70 1.391 . S
H94 C54 0.951 . S
H95 C55 0.950 . S
H96 C61 0.949 . S
H97 C62 0.950 . S
H98 C66 0.951 . S
H99 C67 0.950 . S
H100 C71 0.949 . S
H101 C72 0.950 . S
H102 C76 0.950 . S
H103 C78 0.950 . S
H104 C81 0.950 . S
H105 C83 0.950 . S
C106 C107 1.443 . S
C106 N110 1.376 . S
C106 C144 1.389 . S
C107 C106 1.443 . S
C107 C108 1.340 . S
C107 H147 0.951 . S
C108 C107 1.340 . S
C108 C109 1.439 . S
C108 H148 0.950 . S
C109 C108 1.439 . S
C109 N110 1.374 . S
C109 C143 1.395 . S
N110 C106 1.376 . S
N110 C109 1.374 . S
N110 Co111 2.008 . S
Co111 N110 2.008 . S
Co111 N112 1.995 . S
Co111 N117 2.008 . S
Co111 N122 1.995 . S
Co111 N127 2.282 . S
Co111 N133 2.282 . S
N112 Co111 1.995 . S
N112 C113 1.376 . S
N112 C116 1.383 . S
C113 N112 1.376 . S
C113 C114 1.446 . S
C113 C143 1.391 . S
C114 C113 1.446 . S
C114 C115 1.339 . S
C114 H149 0.949 . S
C115 C114 1.339 . S
C115 C116 1.439 . S
C115 H150 0.950 . S
C116 N112 1.383 . S
C116 C115 1.439 . S
C116 C145 1.392 . S
N117 Co111 2.008 . S
N117 C118 1.376 . S
N117 C121 1.374 . S
C118 N117 1.376 . S
C118 C119 1.443 . S
C118 C145 1.389 . S
C119 C118 1.443 . S
C119 C120 1.340 . S
C119 H151 0.951 . S
C120 C119 1.340 . S
C120 C121 1.439 . S
C120 H152 0.950 . S
C121 N117 1.374 . S
C121 C120 1.439 . S
C121 C146 1.395 . S
N122 Co111 1.995 . S
N122 C123 1.376 . S
N122 C126 1.383 . S
C123 N122 1.376 . S
C123 C124 1.446 . S
C123 C146 1.391 . S
C124 C123 1.446 . S
C124 C125 1.339 . S
C124 H153 0.949 . S
C125 C124 1.339 . S
C125 C126 1.439 . S
C125 H154 0.950 . S
C126 N122 1.383 . S
C126 C125 1.439 . S
C126 C144 1.392 . S
N127 Co111 2.282 . S
N127 C130 1.332 . S
N127 C132 1.332 . S
C128 C129 1.386 . S
C128 C131 1.388 . S
C129 C128 1.386 . S
C129 C130 1.382 . S
C129 H155 0.950 . S
C130 N127 1.332 . S
C130 C129 1.382 . S
C130 H141 0.952 . S
C131 C128 1.388 . S
C131 C132 1.382 . S
C131 H156 0.950 . S
C132 N127 1.332 . S
C132 C131 1.382 . S
C132 H142 0.948 . S
N133 Co111 2.282 . S
N133 C137 1.332 . S
N133 C138 1.332 . S
C134 C135 1.388 . S
C134 C138 1.382 . S
C134 H157 0.950 . S
C135 C134 1.388 . S
C135 C136 1.386 . S
C136 C135 1.386 . S
C136 C137 1.382 . S
C136 H158 0.950 . S
C137 N133 1.332 . S
C137 C136 1.382 . S
C137 H139 0.952 . S
C138 N133 1.332 . S
C138 C134 1.382 . S
C138 H140 0.948 . S
H139 C137 0.952 . S
H140 C138 0.948 . S
H141 C130 0.952 . S
H142 C132 0.948 . S
C143 C109 1.395 . S
C143 C113 1.391 . S
C144 C106 1.389 . S
C144 C126 1.392 . S
C145 C116 1.392 . S
C145 C118 1.389 . S
C146 C121 1.395 . S
C146 C123 1.391 . S
H147 C107 0.951 . S
H148 C108 0.950 . S
H149 C114 0.949 . S
H150 C115 0.950 . S
H151 C119 0.951 . S
H152 C120 0.950 . S
H153 C124 0.949 . S
H154 C125 0.950 . S
H155 C129 0.950 . S
H156 C131 0.950 . S
H157 C134 0.950 . S
H158 C136 0.950 . S
C159 C160 1.443 . S
C159 N163 1.376 . S
C159 C197 1.389 . S
C160 C159 1.443 . S
C160 C161 1.340 . S
C160 H200 0.951 . S
C161 C160 1.340 . S
C161 C162 1.439 . S
C161 H201 0.950 . S
C162 C161 1.439 . S
C162 N163 1.374 . S
C162 C196 1.395 . S
N163 C159 1.376 . S
N163 C162 1.374 . S
N163 Co164 2.008 . S
Co164 N163 2.008 . S
Co164 N165 1.995 . S
Co164 N170 2.008 1_565 S
Co164 N175 1.995 1_565 S
Co164 N180 2.282 1_565 S
Co164 N186 2.282 . S
N165 Co164 1.995 . S
N165 C166 1.376 . S
N165 C169 1.383 . S
C166 N165 1.376 . S
C166 C167 1.446 . S
C166 C196 1.391 . S
C167 C166 1.446 . S
C167 C168 1.339 . S
C167 H202 0.949 . S
C168 C167 1.339 . S
C168 C169 1.439 . S
C168 H203 0.950 . S
C169 N165 1.383 . S
C169 C168 1.439 . S
C169 C198 1.392 1_565 S
N170 Co164 2.008 1_545 S
N170 C171 1.376 . S
N170 C174 1.374 . S
C171 N170 1.376 . S
C171 C172 1.443 . S
C171 C198 1.389 . S
C172 C171 1.443 . S
C172 C173 1.340 . S
C172 H204 0.951 . S
C173 C172 1.340 . S
C173 C174 1.439 . S
C173 H205 0.950 . S
C174 N170 1.374 . S
C174 C173 1.439 . S
C174 C199 1.395 . S
N175 Co164 1.995 1_545 S
N175 C176 1.376 . S
N175 C179 1.383 . S
C176 N175 1.376 . S
C176 C177 1.446 . S
C176 C199 1.391 . S
C177 C176 1.446 . S
C177 C178 1.339 . S
C177 H206 0.949 . S
C178 C177 1.339 . S
C178 C179 1.439 . S
C178 H207 0.950 . S
C179 N175 1.383 . S
C179 C178 1.439 . S
C179 C197 1.392 1_545 S
N180 Co164 2.282 1_545 S
N180 C183 1.332 . S
N180 C185 1.332 . S
C181 C182 1.386 . S
C181 C184 1.388 . S
C182 C181 1.386 . S
C182 C183 1.382 . S
C182 H208 0.950 . S
C183 N180 1.332 . S
C183 C182 1.382 . S
C183 H194 0.952 . S
C184 C181 1.388 . S
C184 C185 1.382 . S
C184 H209 0.950 . S
C185 N180 1.332 . S
C185 C184 1.382 . S
C185 H195 0.948 . S
N186 Co164 2.282 . S
N186 C190 1.332 . S
N186 C191 1.332 . S
C187 C188 1.388 . S
C187 C191 1.382 . S
C187 H210 0.950 . S
C188 C187 1.388 . S
C188 C189 1.386 . S
C189 C188 1.386 . S
C189 C190 1.382 . S
C189 H211 0.950 . S
C190 N186 1.332 . S
C190 C189 1.382 . S
C190 H192 0.952 . S
C191 N186 1.332 . S
C191 C187 1.382 . S
C191 H193 0.948 . S
H192 C190 0.952 . S
H193 C191 0.948 . S
H194 C183 0.952 . S
H195 C185 0.948 . S
C196 C162 1.395 . S
C196 C166 1.391 . S
C197 C159 1.389 . S
C197 C179 1.392 1_565 S
C198 C169 1.392 1_545 S
C198 C171 1.389 . S
C199 C174 1.395 . S
C199 C176 1.391 . S
H200 C160 0.951 . S
H201 C161 0.950 . S
H202 C167 0.949 . S
H203 C168 0.950 . S
H204 C172 0.951 . S
H205 C173 0.950 . S
H206 C177 0.949 . S
H207 C178 0.950 . S
H208 C182 0.950 . S
H209 C184 0.950 . S
H210 C187 0.950 . S
H211 C189 0.950 . S
C212 C213 1.437 1_655 S
C212 N216 1.367 1_655 S
C212 C250 1.405 . S
C213 C212 1.437 1_455 S
C213 C214 1.340 . S
C213 H253 0.951 . S
C214 C213 1.340 . S
C214 C215 1.439 . S
C214 H254 0.950 . S
C215 C214 1.439 . S
C215 N216 1.374 . S
C215 C249 1.395 . S
N216 C212 1.367 1_455 S
N216 C215 1.374 . S
N216 Co217 2.008 1_455 S
Co217 N216 2.008 1_655 S
Co217 N218 1.995 1_655 S
Co217 N223 2.008 . S
Co217 N228 1.995 . S
Co217 N233 2.282 1_655 S
Co217 N239 2.282 . S
N218 Co217 1.995 1_455 S
N218 C219 1.376 . S
N218 C222 1.383 . S
C219 N218 1.376 . S
C219 C220 1.446 . S
C219 C249 1.391 . S
C220 C219 1.446 . S
C220 C221 1.339 . S
C220 H255 0.949 . S
C221 C220 1.339 . S
C221 C222 1.439 . S
C221 H256 0.950 . S
C222 N218 1.383 . S
C222 C221 1.439 . S
C222 C251 1.392 . S
N223 Co217 2.008 . S
N223 C224 1.369 1_655 S
N223 C227 1.374 . S
C224 N223 1.369 1_455 S
C224 C225 1.439 1_455 S
C224 C251 1.400 . S
C225 C224 1.439 1_655 S
C225 C226 1.340 . S
C225 H257 0.951 . S
C226 C225 1.340 . S
C226 C227 1.439 . S
C226 H258 0.950 . S
C227 N223 1.374 . S
C227 C226 1.439 . S
C227 C252 1.395 . S
N228 Co217 1.995 . S
N228 C229 1.376 . S
N228 C232 1.383 . S
C229 N228 1.376 . S
C229 C230 1.446 . S
C229 C252 1.391 . S
C230 C229 1.446 . S
C230 C231 1.339 . S
C230 H259 0.949 . S
C231 C230 1.339 . S
C231 C232 1.439 . S
C231 H260 0.950 . S
C232 N228 1.383 . S
C232 C231 1.439 . S
C232 C250 1.392 . S
N233 Co217 2.282 1_455 S
N233 C236 1.332 . S
N233 C238 1.332 . S
C234 C235 1.386 . S
C234 C237 1.388 . S
C235 C234 1.386 . S
C235 C236 1.382 . S
C235 H261 0.950 . S
C236 N233 1.332 . S
C236 C235 1.382 . S
C236 H247 0.952 . S
C237 C234 1.388 . S
C237 C238 1.382 . S
C237 H262 0.950 . S
C238 N233 1.332 . S
C238 C237 1.382 . S
C238 H248 0.948 . S
N239 Co217 2.282 . S
N239 C243 1.332 . S
N239 C244 1.332 . S
C240 C241 1.388 . S
C240 C244 1.382 . S
C240 H263 0.950 . S
C241 C240 1.388 . S
C241 C242 1.386 . S
C242 C241 1.386 . S
C242 C243 1.382 . S
C242 H264 0.950 . S
C243 N239 1.332 . S
C243 C242 1.382 . S
C243 H245 0.952 . S
C244 N239 1.332 . S
C244 C240 1.382 . S
C244 H246 0.948 . S
H245 C243 0.952 . S
H246 C244 0.948 . S
H247 C236 0.952 . S
H248 C238 0.948 . S
C249 C215 1.395 . S
C249 C219 1.391 . S
C250 C212 1.405 . S
C250 C232 1.392 . S
C251 C222 1.392 . S
C251 C224 1.400 . S
C252 C227 1.395 . S
C252 C229 1.391 . S
H253 C213 0.951 . S
H254 C214 0.950 . S
H255 C220 0.949 . S
H256 C221 0.950 . S
H257 C225 0.951 . S
H258 C226 0.950 . S
H259 C230 0.949 . S
H260 C231 0.950 . S
H261 C235 0.950 . S
H262 C237 0.950 . S
H263 C240 0.950 . S
H264 C242 0.950 . S
C265 C266 1.443 . S
C265 N269 1.376 . S
C265 C303 1.389 . S
C266 C265 1.443 . S
C266 C267 1.340 . S
C266 H306 0.951 . S
C267 C266 1.340 . S
C267 C268 1.439 . S
C267 H307 0.950 . S
C268 C267 1.439 . S
C268 N269 1.374 . S
C268 C302 1.395 . S
N269 C265 1.376 . S
N269 C268 1.374 . S
N269 Co270 2.008 . S
Co270 N269 2.008 . S
Co270 N271 1.995 . S
Co270 N276 2.008 . S
Co270 N281 1.995 . S
Co270 N286 2.282 . S
Co270 N292 2.282 . S
N271 Co270 1.995 . S
N271 C272 1.376 . S
N271 C275 1.383 . S
C272 N271 1.376 . S
C272 C273 1.446 . S
C272 C302 1.391 . S
C273 C272 1.446 . S
C273 C274 1.339 . S
C273 H308 0.949 . S
C274 C273 1.339 . S
C274 C275 1.439 . S
C274 H309 0.950 . S
C275 N271 1.383 . S
C275 C274 1.439 . S
C275 C304 1.392 . S
N276 Co270 2.008 . S
N276 C277 1.376 . S
N276 C280 1.374 . S
C277 N276 1.376 . S
C277 C278 1.443 . S
C277 C304 1.389 . S
C278 C277 1.443 . S
C278 C279 1.340 . S
C278 H310 0.951 . S
C279 C278 1.340 . S
C279 C280 1.439 . S
C279 H311 0.950 . S
C280 N276 1.374 . S
C280 C279 1.439 . S
C280 C305 1.395 . S
N281 Co270 1.995 . S
N281 C282 1.376 . S
N281 C285 1.383 . S
C282 N281 1.376 . S
C282 C283 1.446 . S
C282 C305 1.391 . S
C283 C282 1.446 . S
C283 C284 1.339 . S
C283 H312 0.949 . S
C284 C283 1.339 . S
C284 C285 1.439 . S
C284 H313 0.950 . S
C285 N281 1.383 . S
C285 C284 1.439 . S
C285 C303 1.392 . S
N286 Co270 2.282 . S
N286 C289 1.332 . S
N286 C291 1.332 . S
C287 C288 1.386 . S
C287 C290 1.388 . S
C288 C287 1.386 . S
C288 C289 1.382 . S
C288 H314 0.950 . S
C289 N286 1.332 . S
C289 C288 1.382 . S
C289 H300 0.952 . S
C290 C287 1.388 . S
C290 C291 1.382 . S
C290 H315 0.950 . S
C291 N286 1.332 . S
C291 C290 1.382 . S
C291 H301 0.948 . S
N292 Co270 2.282 . S
N292 C296 1.332 . S
N292 C297 1.332 . S
C293 C294 1.388 . S
C293 C297 1.382 . S
C293 H316 0.950 . S
C294 C293 1.388 . S
C294 C295 1.386 . S
C295 C294 1.386 . S
C295 C296 1.382 . S
C295 H317 0.950 . S
C296 N292 1.332 . S
C296 C295 1.382 . S
C296 H298 0.952 . S
C297 N292 1.332 . S
C297 C293 1.382 . S
C297 H299 0.948 . S
H298 C296 0.952 . S
H299 C297 0.948 . S
H300 C289 0.952 . S
H301 C291 0.948 . S
C302 C268 1.395 . S
C302 C272 1.391 . S
C303 C265 1.389 . S
C303 C285 1.392 . S
C304 C275 1.392 . S
C304 C277 1.389 . S
C305 C280 1.395 . S
C305 C282 1.391 . S
H306 C266 0.951 . S
H307 C267 0.950 . S
H308 C273 0.949 . S
H309 C274 0.950 . S
H310 C278 0.951 . S
H311 C279 0.950 . S
H312 C283 0.949 . S
H313 C284 0.950 . S
H314 C288 0.950 . S
H315 C290 0.950 . S
H316 C293 0.950 . S
H317 C295 0.950 . S
C318 C319 1.443 . S
C318 N322 1.376 . S
C318 C356 1.389 . S
C319 C318 1.443 . S
C319 C320 1.340 . S
C319 H359 0.951 . S
C320 C319 1.340 . S
C320 C321 1.439 . S
C320 H360 0.950 . S
C321 C320 1.439 . S
C321 N322 1.374 . S
C321 C355 1.395 . S
N322 C318 1.376 . S
N322 C321 1.374 . S
N322 Co323 2.008 . S
Co323 N322 2.008 . S
Co323 N324 1.995 . S
Co323 N329 2.008 . S
Co323 N334 1.995 . S
Co323 N339 2.282 . S
Co323 N345 2.282 . S
N324 Co323 1.995 . S
N324 C325 1.376 . S
N324 C328 1.383 . S
C325 N324 1.376 . S
C325 C326 1.446 . S
C325 C355 1.391 . S
C326 C325 1.446 . S
C326 C327 1.339 . S
C326 H361 0.949 . S
C327 C326 1.339 . S
C327 C328 1.439 . S
C327 H362 0.950 . S
C328 N324 1.383 . S
C328 C327 1.439 . S
C328 C357 1.392 . S
N329 Co323 2.008 . S
N329 C330 1.376 . S
N329 C333 1.374 . S
C330 N329 1.376 . S
C330 C331 1.443 . S
C330 C357 1.389 . S
C331 C330 1.443 . S
C331 C332 1.340 . S
C331 H363 0.951 . S
C332 C331 1.340 . S
C332 C333 1.439 . S
C332 H364 0.950 . S
C333 N329 1.374 . S
C333 C332 1.439 . S
C333 C358 1.395 . S
N334 Co323 1.995 . S
N334 C335 1.376 . S
N334 C338 1.383 . S
C335 N334 1.376 . S
C335 C336 1.446 . S
C335 C358 1.391 . S
C336 C335 1.446 . S
C336 C337 1.339 . S
C336 H365 0.949 . S
C337 C336 1.339 . S
C337 C338 1.439 . S
C337 H366 0.950 . S
C338 N334 1.383 . S
C338 C337 1.439 . S
C338 C356 1.392 . S
N339 Co323 2.282 . S
N339 C342 1.332 . S
N339 C344 1.332 . S
C340 C341 1.386 . S
C340 C343 1.388 . S
C341 C340 1.386 . S
C341 C342 1.382 . S
C341 H367 0.950 . S
C342 N339 1.332 . S
C342 C341 1.382 . S
C342 H353 0.952 . S
C343 C340 1.388 . S
C343 C344 1.382 . S
C343 H368 0.950 . S
C344 N339 1.332 . S
C344 C343 1.382 . S
C344 H354 0.948 . S
N345 Co323 2.282 . S
N345 C349 1.332 . S
N345 C350 1.332 . S
C346 C347 1.388 . S
C346 C350 1.382 . S
C346 H369 0.950 . S
C347 C346 1.388 . S
C347 C348 1.386 . S
C348 C347 1.386 . S
C348 C349 1.382 . S
C348 H370 0.950 . S
C349 N345 1.332 . S
C349 C348 1.382 . S
C349 H351 0.952 . S
C350 N345 1.332 . S
C350 C346 1.382 . S
C350 H352 0.948 . S
H351 C349 0.952 . S
H352 C350 0.948 . S
H353 C342 0.952 . S
H354 C344 0.948 . S
C355 C321 1.395 . S
C355 C325 1.391 . S
C356 C318 1.389 . S
C356 C338 1.392 . S
C357 C328 1.392 . S
C357 C330 1.389 . S
C358 C333 1.395 . S
C358 C335 1.391 . S
H359 C319 0.951 . S
H360 C320 0.950 . S
H361 C326 0.949 . S
H362 C327 0.950 . S
H363 C331 0.951 . S
H364 C332 0.950 . S
H365 C336 0.949 . S
H366 C337 0.950 . S
H367 C341 0.950 . S
H368 C343 0.950 . S
H369 C346 0.950 . S
H370 C348 0.950 . S
C371 C372 1.443 . S
C371 N375 1.376 . S
C371 C409 1.389 . S
C372 C371 1.443 . S
C372 C373 1.340 . S
C372 H412 0.951 . S
C373 C372 1.340 . S
C373 C374 1.439 1_565 S
C373 H413 0.950 . S
C374 C373 1.439 1_545 S
C374 N375 1.374 1_545 S
C374 C408 1.395 . S
N375 C371 1.376 . S
N375 C374 1.374 1_565 S
N375 Co376 2.008 1_565 S
Co376 N375 2.008 1_545 S
Co376 N377 1.995 . S
Co376 N382 2.008 . S
Co376 N387 1.995 1_545 S
Co376 N392 2.282 . S
Co376 N398 2.282 1_545 S
N377 Co376 1.995 . S
N377 C378 1.376 . S
N377 C381 1.383 . S
C378 N377 1.376 . S
C378 C379 1.446 . S
C378 C408 1.391 . S
C379 C378 1.446 . S
C379 C380 1.339 . S
C379 H414 0.949 . S
C380 C379 1.339 . S
C380 C381 1.439 . S
C380 H415 0.950 . S
C381 N377 1.383 . S
C381 C380 1.439 . S
C381 C410 1.392 . S
N382 Co376 2.008 . S
N382 C383 1.376 . S
N382 C386 1.374 1_545 S
C383 N382 1.376 . S
C383 C384 1.443 . S
C383 C410 1.389 . S
C384 C383 1.443 . S
C384 C385 1.340 . S
C384 H416 0.951 . S
C385 C384 1.340 . S
C385 C386 1.439 1_545 S
C385 H417 0.950 . S
C386 N382 1.374 1_565 S
C386 C385 1.439 1_565 S
C386 C411 1.395 . S
N387 Co376 1.995 1_565 S
N387 C388 1.376 . S
N387 C391 1.383 . S
C388 N387 1.376 . S
C388 C389 1.446 . S
C388 C411 1.391 . S
C389 C388 1.446 . S
C389 C390 1.339 . S
C389 H418 0.949 . S
C390 C389 1.339 . S
C390 C391 1.439 . S
C390 H419 0.950 . S
C391 N387 1.383 . S
C391 C390 1.439 . S
C391 C409 1.392 . S
N392 Co376 2.282 . S
N392 C395 1.332 1_545 S
N392 C397 1.332 . S
C393 C394 1.386 . S
C393 C396 1.388 . S
C394 C393 1.386 . S
C394 C395 1.382 1_545 S
C394 H420 0.950 1_545 S
C395 N392 1.332 1_565 S
C395 C394 1.382 1_565 S
C395 H406 0.952 . S
C396 C393 1.388 . S
C396 C397 1.382 . S
C396 H421 0.950 . S
C397 N392 1.332 . S
C397 C396 1.382 . S
C397 H407 0.948 . S
N398 Co376 2.282 1_565 S
N398 C402 1.332 1_565 S
N398 C403 1.332 . S
C399 C400 1.388 . S
C399 C403 1.382 . S
C399 H422 0.950 . S
C400 C399 1.388 . S
C400 C401 1.386 . S
C401 C400 1.386 . S
C401 C402 1.382 1_565 S
C401 H423 0.950 1_565 S
C402 N398 1.332 1_545 S
C402 C401 1.382 1_545 S
C402 H404 0.952 . S
C403 N398 1.332 . S
C403 C399 1.382 . S
C403 H405 0.948 . S
H404 C402 0.952 . S
H405 C403 0.948 . S
H406 C395 0.952 . S
H407 C397 0.948 . S
C408 C374 1.395 . S
C408 C378 1.391 . S
C409 C371 1.389 . S
C409 C391 1.392 . S
C410 C381 1.392 . S
C410 C383 1.389 . S
C411 C386 1.395 . S
C411 C388 1.391 . S
H412 C372 0.951 . S
H413 C373 0.950 . S
H414 C379 0.949 . S
H415 C380 0.950 . S
H416 C384 0.951 . S
H417 C385 0.950 . S
H418 C389 0.949 . S
H419 C390 0.950 . S
H420 C394 0.950 1_565 S
H421 C396 0.950 . S
H422 C399 0.950 . S
H423 C401 0.950 1_545 S
H424 C432 0.929 . S
H425 C434 0.930 . S
H426 C436 0.930 . S
H427 C439 0.929 . S
H428 C442 0.930 . S
H429 C444 0.960 . S
H430 C444 0.960 . S
H431 C444 0.960 . S
C432 H424 0.929 . S
C432 C433 1.377 . S
C432 C434 1.384 . S
C433 C432 1.377 . S
C433 C439 1.390 1_655 S
C434 H425 0.930 . S
C434 C432 1.384 . S
C434 C435 1.372 . S
C435 C434 1.372 . S
C435 C436 1.400 1_655 S
C435 C440 1.490 . S
C436 H426 0.930 . S
C436 C435 1.400 1_455 S
C436 C439 1.386 . S
H437 C453 0.930 . S
H438 C454 0.931 . S
C439 H427 0.929 . S
C439 C433 1.390 1_455 S
C439 C436 1.386 . S
C440 C435 1.490 . S
C440 C442 1.395 . S
C440 C443 1.403 1_655 S
H441 C447 0.930 . S
C442 H428 0.930 . S
C442 C440 1.395 . S
C442 C445 1.403 1_556 S
C443 C440 1.403 1_455 S
C443 C444 1.524 . S
C443 C447 1.400 . S
C444 H429 0.960 . S
C444 H430 0.960 . S
C444 H431 0.960 . S
C444 C443 1.524 . S
C445 C442 1.403 1_554 S
C445 C446 1.392 1_655 S
C445 C449 1.495 . S
C446 C445 1.392 1_455 S
C446 C447 1.385 1_554 S
C446 C448 1.478 . S
C447 H441 0.930 . S
C447 C443 1.400 . S
C447 C446 1.385 1_556 S
C448 C446 1.478 . S
C448 C450 1.381 1_455 S
C448 C454 1.383 . S
C449 C445 1.495 . S
C449 H455 0.959 . S
C449 H456 0.961 . S
C449 H457 0.960 . S
C450 C448 1.381 1_655 S
C450 C451 1.394 . S
C450 H458 0.930 . S
C451 C450 1.394 . S
C451 C452 1.382 1_655 S
C451 H459 0.930 . S
C452 C451 1.382 1_455 S
C452 C453 1.377 . S
C453 H437 0.930 . S
C453 C452 1.377 . S
C453 C454 1.379 . S
C454 H438 0.931 . S
C454 C448 1.383 . S
C454 C453 1.379 . S
H455 C449 0.959 . S
H456 C449 0.961 . S
H457 C449 0.960 . S
H458 C450 0.930 . S
H459 C451 0.930 . S
H460 C468 0.929 . S
H461 C470 0.930 . S
H462 C472 0.930 . S
H463 C475 0.929 . S
H464 C478 0.930 . S
H465 C480 0.960 . S
H466 C480 0.960 . S
H467 C480 0.960 . S
C468 H460 0.929 . S
C468 C469 1.377 . S
C468 C470 1.384 . S
C469 C468 1.377 . S
C469 C475 1.390 . S
C470 H461 0.930 . S
C470 C468 1.384 . S
C470 C471 1.372 . S
C471 C470 1.372 . S
C471 C472 1.400 . S
C471 C476 1.490 . S
C472 H462 0.930 . S
C472 C471 1.400 . S
C472 C475 1.386 . S
H473 C489 0.930 . S
H474 C490 0.931 . S
C475 H463 0.929 . S
C475 C469 1.390 . S
C475 C472 1.386 . S
C476 C471 1.490 . S
C476 C478 1.395 . S
C476 C479 1.403 . S
H477 C483 0.930 . S
C478 H464 0.930 . S
C478 C476 1.395 . S
C478 C481 1.403 . S
C479 C476 1.403 . S
C479 C480 1.524 . S
C479 C483 1.400 . S
C480 H465 0.960 . S
C480 H466 0.960 . S
C480 H467 0.960 . S
C480 C479 1.524 . S
C481 C478 1.403 . S
C481 C482 1.392 . S
C481 C485 1.495 . S
C482 C481 1.392 . S
C482 C483 1.385 . S
C482 C484 1.478 . S
C483 H477 0.930 . S
C483 C479 1.400 . S
C483 C482 1.385 . S
C484 C482 1.478 . S
C484 C486 1.381 . S
C484 C490 1.383 . S
C485 C481 1.495 . S
C485 H491 0.959 . S
C485 H492 0.961 . S
C485 H493 0.960 . S
C486 C484 1.381 . S
C486 C487 1.394 . S
C486 H494 0.930 . S
C487 C486 1.394 . S
C487 C488 1.383 . S
C487 H495 0.929 . S
C488 C487 1.383 . S
C488 C489 1.377 . S
C489 H473 0.930 . S
C489 C488 1.377 . S
C489 C490 1.379 . S
C490 H474 0.931 . S
C490 C484 1.383 . S
C490 C489 1.379 . S
H491 C485 0.959 . S
H492 C485 0.961 . S
H493 C485 0.960 . S
H494 C486 0.930 . S
H495 C487 0.929 . S
H496 C504 0.929 . S
H497 C506 0.930 . S
H498 C508 0.930 . S
H499 C511 0.929 . S
H500 C514 0.930 . S
H501 C516 0.960 . S
H502 C516 0.960 . S
H503 C516 0.960 . S
C504 H496 0.929 . S
C504 C505 1.377 . S
C504 C506 1.384 . S
C505 C504 1.377 . S
C505 C511 1.390 . S
C506 H497 0.930 . S
C506 C504 1.384 . S
C506 C507 1.372 . S
C507 C506 1.372 . S
C507 C508 1.400 . S
C507 C512 1.490 . S
C508 H498 0.930 . S
C508 C507 1.400 . S
C508 C511 1.386 . S
H509 C525 0.930 . S
H510 C526 0.931 . S
C511 H499 0.929 . S
C511 C505 1.390 . S
C511 C508 1.386 . S
C512 C507 1.490 . S
C512 C514 1.395 1_565 S
C512 C515 1.403 1_554 S
H513 C519 0.930 . S
C514 H500 0.930 . S
C514 C512 1.395 1_545 S
C514 C517 1.403 . S
C515 C512 1.403 1_556 S
C515 C516 1.524 . S
C515 C519 1.400 . S
C516 H501 0.960 . S
C516 H502 0.960 . S
C516 H503 0.960 . S
C516 C515 1.524 . S
C517 C514 1.403 . S
C517 C518 1.392 1_554 S
C517 C521 1.495 . S
C518 C517 1.392 1_556 S
C518 C519 1.385 1_545 S
C518 C520 1.478 . S
C519 H513 0.930 . S
C519 C515 1.400 . S
C519 C518 1.385 1_565 S
C520 C518 1.478 . S
C520 C522 1.381 . S
C520 C526 1.383 . S
C521 C517 1.495 . S
C521 H527 0.959 . S
C521 H528 0.961 . S
C521 H529 0.960 . S
C522 C520 1.381 . S
C522 C523 1.394 . S
C522 H530 0.930 . S
C523 C522 1.394 . S
C523 C524 1.383 . S
C523 H531 0.929 . S
C524 C523 1.383 . S
C524 C525 1.377 . S
C525 H509 0.930 . S
C525 C524 1.377 . S
C525 C526 1.379 . S
C526 H510 0.931 . S
C526 C520 1.383 . S
C526 C525 1.379 . S
H527 C521 0.959 . S
H528 C521 0.961 . S
H529 C521 0.960 . S
H530 C522 0.930 . S
H531 C523 0.929 . S
H532 C540 0.929 1_565 S
H533 C542 0.930 1_565 S
H534 C544 0.930 . S
H535 C547 0.929 . S
H536 C550 0.930 . S
H537 C552 0.960 . S
H538 C552 0.960 . S
H539 C552 0.960 . S
C540 H532 0.929 1_545 S
C540 C541 1.377 . S
C540 C542 1.384 . S
C541 C540 1.377 . S
C541 C547 1.390 . S
C542 H533 0.930 1_545 S
C542 C540 1.384 . S
C542 C543 1.372 . S
C543 C542 1.372 . S
C543 C544 1.400 . S
C543 C548 1.490 . S
C544 H534 0.930 . S
C544 C543 1.400 . S
C544 C547 1.386 . S
H545 C561 0.930 1_545 S
H546 C562 0.931 . S
C547 H535 0.929 . S
C547 C541 1.390 . S
C547 C544 1.386 . S
C548 C543 1.490 . S
C548 C550 1.395 1_545 S
C548 C551 1.403 . S
H549 C555 0.930 . S
C550 H536 0.930 . S
C550 C548 1.395 1_565 S
C550 C553 1.403 1_655 S
C551 C548 1.403 . S
C551 C552 1.524 . S
C551 C555 1.400 1_655 S
C552 H537 0.960 . S
C552 H538 0.960 . S
C552 H539 0.960 . S
C552 C551 1.524 . S
C553 C550 1.403 1_455 S
C553 C554 1.392 . S
C553 C557 1.495 . S
C554 C553 1.392 . S
C554 C555 1.385 1_565 S
C554 C556 1.478 . S
C555 H549 0.930 . S
C555 C551 1.400 1_455 S
C555 C554 1.385 1_545 S
C556 C554 1.478 . S
C556 C558 1.381 . S
C556 C562 1.383 1_565 S
C557 C553 1.495 . S
C557 H563 0.959 . S
C557 H564 0.961 . S
C557 H565 0.960 . S
C558 C556 1.381 . S
C558 C559 1.394 . S
C558 H566 0.930 . S
C559 C558 1.394 . S
C559 C560 1.383 . S
C559 H567 0.929 . S
C560 C559 1.383 . S
C560 C561 1.377 . S
C561 H545 0.930 1_565 S
C561 C560 1.377 . S
C561 C562 1.379 1_565 S
C562 H546 0.931 . S
C562 C556 1.383 1_545 S
C562 C561 1.379 1_545 S
H563 C557 0.959 . S
H564 C557 0.961 . S
H565 C557 0.960 . S
H566 C558 0.930 . S
H567 C559 0.929 . S
H568 C576 0.929 . S
H569 C578 0.930 . S
H570 C580 0.930 . S
H571 C583 0.929 . S
H572 C586 0.930 . S
H573 C588 0.960 . S
H574 C588 0.960 . S
H575 C588 0.960 . S
C576 H568 0.929 . S
C576 C577 1.377 . S
C576 C578 1.384 . S
C577 C576 1.377 . S
C577 C583 1.390 . S
C578 H569 0.930 . S
C578 C576 1.384 . S
C578 C579 1.372 . S
C579 C578 1.372 . S
C579 C580 1.400 . S
C579 C584 1.490 . S
C580 H570 0.930 . S
C580 C579 1.400 . S
C580 C583 1.386 . S
H581 C597 0.930 . S
H582 C598 0.931 . S
C583 H571 0.929 . S
C583 C577 1.390 . S
C583 C580 1.386 . S
C584 C579 1.490 . S
C584 C586 1.395 . S
C584 C587 1.403 . S
H585 C591 0.930 . S
C586 H572 0.930 . S
C586 C584 1.395 . S
C586 C589 1.403 . S
C587 C584 1.403 . S
C587 C588 1.524 . S
C587 C591 1.400 . S
C588 H573 0.960 . S
C588 H574 0.960 . S
C588 H575 0.960 . S
C588 C587 1.524 . S
C589 C586 1.403 . S
C589 C590 1.392 . S
C589 C593 1.495 . S
C590 C589 1.392 . S
C590 C591 1.385 . S
C590 C592 1.478 . S
C591 H585 0.930 . S
C591 C587 1.400 . S
C591 C590 1.385 . S
C592 C590 1.478 . S
C592 C594 1.381 . S
C592 C598 1.383 . S
C593 C589 1.495 . S
C593 H599 0.959 . S
C593 H600 0.961 . S
C593 H601 0.960 . S
C594 C592 1.381 . S
C594 C595 1.394 . S
C594 H602 0.930 . S
C595 C594 1.394 . S
C595 C596 1.383 . S
C595 H603 0.929 . S
C596 C595 1.383 . S
C596 C597 1.377 . S
C597 H581 0.930 . S
C597 C596 1.377 . S
C597 C598 1.379 . S
C598 H582 0.931 . S
C598 C592 1.383 . S
C598 C597 1.379 . S
H599 C593 0.959 . S
H600 C593 0.961 . S
H601 C593 0.960 . S
H602 C594 0.930 . S
H603 C595 0.929 . S
H604 C612 0.929 . S
H605 C614 0.930 . S
H606 C616 0.930 . S
H607 C619 0.929 . S
H608 C622 0.930 . S
H609 C624 0.960 . S
H610 C624 0.960 . S
H611 C624 0.960 . S
C612 H604 0.929 . S
C612 C613 1.377 . S
C612 C614 1.384 . S
C613 C612 1.377 . S
C613 C619 1.390 . S
C614 H605 0.930 . S
C614 C612 1.384 . S
C614 C615 1.372 . S
C615 C614 1.372 . S
C615 C616 1.400 . S
C615 C620 1.490 . S
C616 H606 0.930 . S
C616 C615 1.400 . S
C616 C619 1.386 . S
H617 C633 0.930 . S
H618 C634 0.931 . S
C619 H607 0.929 . S
C619 C613 1.390 . S
C619 C616 1.386 . S
C620 C615 1.490 . S
C620 C622 1.395 . S
C620 C623 1.403 . S
H621 C627 0.930 . S
C622 H608 0.930 . S
C622 C620 1.395 . S
C622 C625 1.403 . S
C623 C620 1.403 . S
C623 C624 1.524 . S
C623 C627 1.400 . S
C624 H609 0.960 . S
C624 H610 0.960 . S
C624 H611 0.960 . S
C624 C623 1.524 . S
C625 C622 1.403 . S
C625 C626 1.392 . S
C625 C629 1.495 . S
C626 C625 1.392 . S
C626 C627 1.385 . S
C626 C628 1.478 . S
C627 H621 0.930 . S
C627 C623 1.400 . S
C627 C626 1.385 . S
C628 C626 1.478 . S
C628 C630 1.381 . S
C628 C634 1.383 . S
C629 C625 1.495 . S
C629 H635 0.959 . S
C629 H636 0.961 . S
C629 H637 0.960 . S
C630 C628 1.381 . S
C630 C631 1.394 . S
C630 H638 0.930 . S
C631 C630 1.394 . S
C631 C632 1.383 . S
C631 H639 0.929 . S
C632 C631 1.383 . S
C632 C633 1.377 . S
C633 H617 0.930 . S
C633 C632 1.377 . S
C633 C634 1.379 . S
C634 H618 0.931 . S
C634 C628 1.383 . S
C634 C633 1.379 . S
H635 C629 0.959 . S
H636 C629 0.961 . S
H637 C629 0.960 . S
H638 C630 0.930 . S
H639 C631 0.929 . S
H640 C648 0.929 . S
H641 C650 0.930 . S
H642 C652 0.930 . S
H643 C655 0.929 . S
H644 C658 0.930 . S
H645 C660 0.960 . S
H646 C660 0.960 . S
H647 C660 0.960 . S
C648 H640 0.929 . S
C648 C649 1.377 . S
C648 C650 1.384 . S
C649 C648 1.377 . S
C649 C655 1.390 . S
C650 H641 0.930 . S
C650 C648 1.384 . S
C650 C651 1.372 . S
C651 C650 1.372 . S
C651 C652 1.400 . S
C651 C656 1.490 . S
C652 H642 0.930 . S
C652 C651 1.400 . S
C652 C655 1.386 . S
H653 C669 0.930 . S
H654 C670 0.931 . S
C655 H643 0.929 . S
C655 C649 1.390 . S
C655 C652 1.386 . S
C656 C651 1.490 . S
C656 C658 1.395 . S
C656 C659 1.403 . S
H657 C663 0.930 . S
C658 H644 0.930 . S
C658 C656 1.395 . S
C658 C661 1.403 . S
C659 C656 1.403 . S
C659 C660 1.524 . S
C659 C663 1.400 . S
C660 H645 0.960 . S
C660 H646 0.960 . S
C660 H647 0.960 . S
C660 C659 1.524 . S
C661 C658 1.403 . S
C661 C662 1.392 . S
C661 C665 1.495 . S
C662 C661 1.392 . S
C662 C663 1.385 . S
C662 C664 1.478 . S
C663 H657 0.930 . S
C663 C659 1.400 . S
C663 C662 1.385 . S
C664 C662 1.478 . S
C664 C666 1.381 . S
C664 C670 1.383 . S
C665 C661 1.495 . S
C665 H671 0.959 . S
C665 H672 0.961 . S
C665 H673 0.960 . S
C666 C664 1.381 . S
C666 C667 1.394 . S
C666 H674 0.930 . S
C667 C666 1.394 . S
C667 C668 1.383 . S
C667 H675 0.929 . S
C668 C667 1.383 . S
C668 C669 1.377 . S
C669 H653 0.930 . S
C669 C668 1.377 . S
C669 C670 1.379 . S
C670 H654 0.931 . S
C670 C664 1.383 . S
C670 C669 1.379 . S
H671 C665 0.959 . S
H672 C665 0.961 . S
H673 C665 0.960 . S
H674 C666 0.930 . S
H675 C667 0.929 . S
H676 C684 0.929 . S
H677 C686 0.930 . S
H678 C688 0.930 . S
H679 C691 0.929 . S
H680 C694 0.930 . S
H681 C696 0.960 . S
H682 C696 0.960 . S
H683 C696 0.960 . S
C684 H676 0.929 . S
C684 C685 1.377 . S
C684 C686 1.384 . S
C685 C684 1.377 . S
C685 C691 1.390 . S
C686 H677 0.930 . S
C686 C684 1.384 . S
C686 C687 1.372 . S
C687 C686 1.372 . S
C687 C688 1.400 . S
C687 C692 1.490 . S
C688 H678 0.930 . S
C688 C687 1.400 . S
C688 C691 1.386 . S
H689 C705 0.930 . S
H690 C706 0.931 . S
C691 H679 0.929 . S
C691 C685 1.390 . S
C691 C688 1.386 . S
C692 C687 1.490 . S
C692 C694 1.395 . S
C692 C695 1.403 . S
H693 C699 0.930 . S
C694 H680 0.930 . S
C694 C692 1.395 . S
C694 C697 1.403 . S
C695 C692 1.403 . S
C695 C696 1.524 . S
C695 C699 1.400 . S
C696 H681 0.960 . S
C696 H682 0.960 . S
C696 H683 0.960 . S
C696 C695 1.524 . S
C697 C694 1.403 . S
C697 C698 1.392 . S
C697 C701 1.495 . S
C698 C697 1.392 . S
C698 C699 1.385 . S
C698 C700 1.478 . S
C699 H693 0.930 . S
C699 C695 1.400 . S
C699 C698 1.385 . S
C700 C698 1.478 . S
C700 C702 1.381 . S
C700 C706 1.383 . S
C701 C697 1.495 . S
C701 H707 0.959 . S
C701 H708 0.961 . S
C701 H709 0.960 . S
C702 C700 1.381 . S
C702 C703 1.394 . S
C702 H710 0.930 . S
C703 C702 1.394 . S
C703 C704 1.383 . S
C703 H711 0.929 . S
C704 C703 1.383 . S
C704 C705 1.377 . S
C705 H689 0.930 . S
C705 C704 1.377 . S
C705 C706 1.379 . S
C706 H690 0.931 . S
C706 C700 1.383 . S
C706 C705 1.379 . S
H707 C701 0.959 . S
H708 C701 0.961 . S
H709 C701 0.960 . S
H710 C702 0.930 . S
H711 C703 0.929 . S
H712 C720 0.929 . S
H713 C722 0.930 . S
H714 C724 0.930 . S
H715 C727 0.929 . S
H716 C730 0.930 . S
H717 C732 0.960 . S
H718 C732 0.960 . S
H719 C732 0.960 . S
C720 H712 0.929 . S
C720 C721 1.377 . S
C720 C722 1.384 . S
C721 C720 1.377 . S
C721 C727 1.390 . S
C722 H713 0.930 . S
C722 C720 1.384 . S
C722 C723 1.372 . S
C723 C722 1.372 . S
C723 C724 1.400 . S
C723 C728 1.490 . S
C724 H714 0.930 . S
C724 C723 1.400 . S
C724 C727 1.386 . S
H725 C741 0.930 . S
H726 C742 0.931 . S
C727 H715 0.929 . S
C727 C721 1.390 . S
C727 C724 1.386 . S
C728 C723 1.490 . S
C728 C730 1.395 . S
C728 C731 1.403 . S
H729 C735 0.930 . S
C730 H716 0.930 . S
C730 C728 1.395 . S
C730 C733 1.403 . S
C731 C728 1.403 . S
C731 C732 1.524 . S
C731 C735 1.400 . S
C732 H717 0.960 . S
C732 H718 0.960 . S
C732 H719 0.960 . S
C732 C731 1.524 . S
C733 C730 1.403 . S
C733 C734 1.392 . S
C733 C737 1.495 . S
C734 C733 1.392 . S
C734 C735 1.385 . S
C734 C736 1.478 . S
C735 H729 0.930 . S
C735 C731 1.400 . S
C735 C734 1.385 . S
C736 C734 1.478 . S
C736 C738 1.381 . S
C736 C742 1.383 . S
C737 C733 1.495 . S
C737 H743 0.959 . S
C737 H744 0.961 . S
C737 H745 0.960 . S
C738 C736 1.381 . S
C738 C739 1.394 . S
C738 H746 0.930 . S
C739 C738 1.394 . S
C739 C740 1.383 . S
C739 H747 0.929 . S
C740 C739 1.383 . S
C740 C741 1.377 . S
C741 H725 0.930 . S
C741 C740 1.377 . S
C741 C742 1.379 . S
C742 H726 0.931 . S
C742 C736 1.383 . S
C742 C741 1.379 . S
H743 C737 0.959 . S
H744 C737 0.961 . S
H745 C737 0.960 . S
H746 C738 0.930 . S
H747 C739 0.929 . S
H748 C756 0.929 . S
H749 C758 0.930 . S
H750 C760 0.930 . S
H751 C763 0.929 . S
H752 C766 0.930 . S
H753 C768 0.960 . S
H754 C768 0.960 . S
H755 C768 0.960 . S
C756 H748 0.929 . S
C756 C757 1.377 . S
C756 C758 1.384 . S
C757 C756 1.377 . S
C757 C763 1.390 . S
C758 H749 0.930 . S
C758 C756 1.384 . S
C758 C759 1.372 . S
C759 C758 1.372 . S
C759 C760 1.400 . S
C759 C764 1.490 . S
C760 H750 0.930 . S
C760 C759 1.400 . S
C760 C763 1.386 . S
H761 C777 0.930 . S
H762 C778 0.931 . S
C763 H751 0.929 . S
C763 C757 1.390 . S
C763 C760 1.386 . S
C764 C759 1.490 . S
C764 C766 1.395 . S
C764 C767 1.403 . S
H765 C771 0.930 . S
C766 H752 0.930 . S
C766 C764 1.395 . S
C766 C769 1.403 . S
C767 C764 1.403 . S
C767 C768 1.524 . S
C767 C771 1.400 . S
C768 H753 0.960 . S
C768 H754 0.960 . S
C768 H755 0.960 . S
C768 C767 1.524 . S
C769 C766 1.403 . S
C769 C770 1.392 . S
C769 C773 1.495 . S
C770 C769 1.392 . S
C770 C771 1.385 . S
C770 C772 1.478 . S
C771 H765 0.930 . S
C771 C767 1.400 . S
C771 C770 1.385 . S
C772 C770 1.478 . S
C772 C774 1.381 . S
C772 C778 1.383 . S
C773 C769 1.495 . S
C773 H779 0.959 . S
C773 H780 0.961 . S
C773 H781 0.960 . S
C774 C772 1.381 . S
C774 C775 1.394 . S
C774 H782 0.930 . S
C775 C774 1.394 . S
C775 C776 1.383 . S
C775 H783 0.929 . S
C776 C775 1.383 . S
C776 C777 1.377 . S
C777 H761 0.930 . S
C777 C776 1.377 . S
C777 C778 1.379 . S
C778 H762 0.931 . S
C778 C772 1.383 . S
C778 C777 1.379 . S
H779 C773 0.959 . S
H780 C773 0.961 . S
H781 C773 0.960 . S
H782 C774 0.930 . S
H783 C775 0.929 . S
H784 C792 0.929 . S
H785 C794 0.930 . S
H786 C796 0.930 . S
H787 C799 0.929 . S
H788 C802 0.930 . S
H789 C804 0.960 . S
H790 C804 0.960 . S
H791 C804 0.960 . S
C792 H784 0.929 . S
C792 C793 1.377 . S
C792 C794 1.384 . S
C793 C792 1.377 . S
C793 C799 1.390 . S
C794 H785 0.930 . S
C794 C792 1.384 . S
C794 C795 1.372 . S
C795 C794 1.372 . S
C795 C796 1.400 . S
C795 C800 1.490 . S
C796 H786 0.930 . S
C796 C795 1.400 . S
C796 C799 1.386 . S
H797 C813 0.930 . S
H798 C814 0.931 . S
C799 H787 0.929 . S
C799 C793 1.390 . S
C799 C796 1.386 . S
C800 C795 1.490 . S
C800 C802 1.395 . S
C800 C803 1.403 . S
H801 C807 0.930 . S
C802 H788 0.930 . S
C802 C800 1.395 . S
C802 C805 1.403 . S
C803 C800 1.403 . S
C803 C804 1.524 . S
C803 C807 1.400 . S
C804 H789 0.960 . S
C804 H790 0.960 . S
C804 H791 0.960 . S
C804 C803 1.524 . S
C805 C802 1.403 . S
C805 C806 1.392 . S
C805 C809 1.495 . S
C806 C805 1.392 . S
C806 C807 1.385 . S
C806 C808 1.478 . S
C807 H801 0.930 . S
C807 C803 1.400 . S
C807 C806 1.385 . S
C808 C806 1.478 . S
C808 C810 1.381 . S
C808 C814 1.383 . S
C809 C805 1.495 . S
C809 H815 0.959 . S
C809 H816 0.961 . S
C809 H817 0.960 . S
C810 C808 1.381 . S
C810 C811 1.394 . S
C810 H818 0.930 . S
C811 C810 1.394 . S
C811 C812 1.383 . S
C811 H819 0.929 . S
C812 C811 1.383 . S
C812 C813 1.377 . S
C813 H797 0.930 . S
C813 C812 1.377 . S
C813 C814 1.379 . S
C814 H798 0.931 . S
C814 C808 1.383 . S
C814 C813 1.379 . S
H815 C809 0.959 . S
H816 C809 0.961 . S
H817 C809 0.960 . S
H818 C810 0.930 . S
H819 C811 0.929 . S
H820 C828 0.929 . S
H821 C830 0.930 . S
H822 C832 0.930 . S
H823 C835 0.929 . S
H824 C838 0.930 . S
H825 C840 0.960 . S
H826 C840 0.960 . S
H827 C840 0.960 . S
C828 H820 0.929 . S
C828 C829 1.377 . S
C828 C830 1.384 . S
C829 C828 1.377 . S
C829 C835 1.390 . S
C830 H821 0.930 . S
C830 C828 1.384 . S
C830 C831 1.372 . S
C831 C830 1.372 . S
C831 C832 1.400 . S
C831 C836 1.490 . S
C832 H822 0.930 . S
C832 C831 1.400 . S
C832 C835 1.386 . S
H833 C849 0.930 . S
H834 C850 0.931 . S
C835 H823 0.929 . S
C835 C829 1.390 . S
C835 C832 1.386 . S
C836 C831 1.490 . S
C836 C838 1.395 . S
C836 C839 1.403 . S
H837 C843 0.930 . S
C838 H824 0.930 . S
C838 C836 1.395 . S
C838 C841 1.403 . S
C839 C836 1.403 . S
C839 C840 1.524 . S
C839 C843 1.400 . S
C840 H825 0.960 . S
C840 H826 0.960 . S
C840 H827 0.960 . S
C840 C839 1.524 . S
C841 C838 1.403 . S
C841 C842 1.392 . S
C841 C845 1.495 . S
C842 C841 1.392 . S
C842 C843 1.385 . S
C842 C844 1.478 . S
C843 H837 0.930 . S
C843 C839 1.400 . S
C843 C842 1.385 . S
C844 C842 1.478 . S
C844 C846 1.381 . S
C844 C850 1.383 . S
C845 C841 1.495 . S
C845 H851 0.959 . S
C845 H852 0.961 . S
C845 H853 0.960 . S
C846 C844 1.381 . S
C846 C847 1.394 . S
C846 H854 0.930 . S
C847 C846 1.394 . S
C847 C848 1.383 . S
C847 H855 0.929 . S
C848 C847 1.383 . S
C848 C849 1.377 . S
C849 H833 0.930 . S
C849 C848 1.377 . S
C849 C850 1.379 . S
C850 H834 0.931 . S
C850 C844 1.383 . S
C850 C849 1.379 . S
H851 C845 0.959 . S
H852 C845 0.961 . S
H853 C845 0.960 . S
H854 C846 0.930 . S
H855 C847 0.929 . S
H856 C864 0.929 . S
H857 C866 0.930 . S
H858 C868 0.930 . S
H859 C871 0.929 . S
H860 C874 0.930 . S
H861 C876 0.960 . S
H862 C876 0.960 . S
H863 C876 0.960 . S
C864 H856 0.929 . S
C864 C865 1.377 . S
C864 C866 1.384 . S
C865 C864 1.377 . S
C865 C871 1.390 . S
C866 H857 0.930 . S
C866 C864 1.384 . S
C866 C867 1.372 . S
C867 C866 1.372 . S
C867 C868 1.400 . S
C867 C872 1.490 . S
C868 H858 0.930 . S
C868 C867 1.400 . S
C868 C871 1.386 . S
H869 C885 0.930 . S
H870 C886 0.931 . S
C871 H859 0.929 . S
C871 C865 1.390 . S
C871 C868 1.386 . S
C872 C867 1.490 . S
C872 C874 1.395 . S
C872 C875 1.403 . S
H873 C879 0.930 . S
C874 H860 0.930 . S
C874 C872 1.395 . S
C874 C877 1.403 . S
C875 C872 1.403 . S
C875 C876 1.524 . S
C875 C879 1.400 . S
C876 H861 0.960 . S
C876 H862 0.960 . S
C876 H863 0.960 . S
C876 C875 1.524 . S
C877 C874 1.403 . S
C877 C878 1.392 . S
C877 C881 1.495 . S
C878 C877 1.392 . S
C878 C879 1.385 . S
C878 C880 1.478 . S
C879 H873 0.930 . S
C879 C875 1.400 . S
C879 C878 1.385 . S
C880 C878 1.478 . S
C880 C882 1.381 . S
C880 C886 1.383 . S
C881 C877 1.495 . S
C881 H887 0.959 . S
C881 H888 0.961 . S
C881 H889 0.960 . S
C882 C880 1.381 . S
C882 C883 1.394 . S
C882 H890 0.930 . S
C883 C882 1.394 . S
C883 C884 1.383 . S
C883 H891 0.929 . S
C884 C883 1.383 . S
C884 C885 1.377 . S
C885 H869 0.930 . S
C885 C884 1.377 . S
C885 C886 1.379 . S
C886 H870 0.931 . S
C886 C880 1.383 . S
C886 C885 1.379 . S
H887 C881 0.959 . S
H888 C881 0.961 . S
H889 C881 0.960 . S
H890 C882 0.930 . S
H891 C883 0.929 . S
H892 C900 0.929 . S
H893 C902 0.930 . S
H894 C904 0.930 . S
H895 C907 0.929 . S
H896 C910 0.930 . S
H897 C912 0.960 . S
H898 C912 0.960 . S
H899 C912 0.960 . S
C900 H892 0.929 . S
C900 C901 1.377 . S
C900 C902 1.384 . S
C901 C900 1.377 . S
C901 C907 1.390 . S
C902 H893 0.930 . S
C902 C900 1.384 . S
C902 C903 1.372 . S
C903 C902 1.372 . S
C903 C904 1.400 . S
C903 C908 1.490 . S
C904 H894 0.930 . S
C904 C903 1.400 . S
C904 C907 1.386 . S
H905 C921 0.930 . S
H906 C922 0.931 . S
C907 H895 0.929 . S
C907 C901 1.390 . S
C907 C904 1.386 . S
C908 C903 1.490 . S
C908 C910 1.395 . S
C908 C911 1.403 . S
H909 C915 0.930 . S
C910 H896 0.930 . S
C910 C908 1.395 . S
C910 C913 1.403 . S
C911 C908 1.403 . S
C911 C912 1.524 . S
C911 C915 1.400 . S
C912 H897 0.960 . S
C912 H898 0.960 . S
C912 H899 0.960 . S
C912 C911 1.524 . S
C913 C910 1.403 . S
C913 C914 1.392 . S
C913 C917 1.495 . S
C914 C913 1.392 . S
C914 C915 1.385 . S
C914 C916 1.478 . S
C915 H909 0.930 . S
C915 C911 1.400 . S
C915 C914 1.385 . S
C916 C914 1.478 . S
C916 C918 1.381 . S
C916 C922 1.383 . S
C917 C913 1.495 . S
C917 H923 0.959 . S
C917 H924 0.961 . S
C917 H925 0.960 . S
C918 C916 1.381 . S
C918 C919 1.394 . S
C918 H926 0.930 . S
C919 C918 1.394 . S
C919 C920 1.383 . S
C919 H927 0.929 . S
C920 C919 1.383 . S
C920 C921 1.377 . S
C921 H905 0.930 . S
C921 C920 1.377 . S
C921 C922 1.379 . S
C922 H906 0.931 . S
C922 C916 1.383 . S
C922 C921 1.379 . S
H923 C917 0.959 . S
H924 C917 0.961 . S
H925 C917 0.960 . S
H926 C918 0.930 . S
H927 C919 0.929 . S
H928 C936 0.929 . S
H929 C938 0.930 . S
H930 C940 0.930 . S
H931 C943 0.929 . S
H932 C946 0.930 . S
H933 C948 0.960 . S
H934 C948 0.960 . S
H935 C948 0.960 . S
C936 H928 0.929 . S
C936 C937 1.377 . S
C936 C938 1.384 . S
C937 C936 1.377 . S
C937 C943 1.390 . S
C938 H929 0.930 . S
C938 C936 1.384 . S
C938 C939 1.372 . S
C939 C938 1.372 . S
C939 C940 1.400 . S
C939 C944 1.490 . S
C940 H930 0.930 . S
C940 C939 1.400 . S
C940 C943 1.386 . S
H941 C957 0.930 . S
H942 C958 0.931 . S
C943 H931 0.929 . S
C943 C937 1.390 . S
C943 C940 1.386 . S
C944 C939 1.490 . S
C944 C946 1.395 . S
C944 C947 1.403 . S
H945 C951 0.930 . S
C946 H932 0.930 . S
C946 C944 1.395 . S
C946 C949 1.403 . S
C947 C944 1.403 . S
C947 C948 1.524 . S
C947 C951 1.400 . S
C948 H933 0.960 . S
C948 H934 0.960 . S
C948 H935 0.960 . S
C948 C947 1.524 . S
C949 C946 1.403 . S
C949 C950 1.392 . S
C949 C953 1.495 . S
C950 C949 1.392 . S
C950 C951 1.385 . S
C950 C952 1.478 . S
C951 H945 0.930 . S
C951 C947 1.400 . S
C951 C950 1.385 . S
C952 C950 1.478 . S
C952 C954 1.381 . S
C952 C958 1.383 . S
C953 C949 1.495 . S
C953 H959 0.959 . S
C953 H960 0.961 . S
C953 H961 0.960 . S
C954 C952 1.381 . S
C954 C955 1.394 . S
C954 H962 0.930 . S
C955 C954 1.394 . S
C955 C956 1.383 . S
C955 H963 0.929 . S
C956 C955 1.383 . S
C956 C957 1.377 . S
C957 H941 0.930 . S
C957 C956 1.377 . S
C957 C958 1.379 . S
C958 H942 0.931 . S
C958 C952 1.383 . S
C958 C957 1.379 . S
H959 C953 0.959 . S
H960 C953 0.961 . S
H961 C953 0.960 . S
H962 C954 0.930 . S
H963 C955 0.929 . S
H964 C972 0.929 . S
H965 C974 0.930 . S
H966 C976 0.930 . S
H967 C979 0.929 . S
H968 C982 0.930 . S
H969 C984 0.960 . S
H970 C984 0.960 . S
H971 C984 0.960 . S
C972 H964 0.929 . S
C972 C973 1.377 . S
C972 C974 1.384 . S
C973 C972 1.377 . S
C973 C979 1.390 . S
C974 H965 0.930 . S
C974 C972 1.384 . S
C974 C975 1.372 . S
C975 C974 1.372 . S
C975 C976 1.400 . S
C975 C980 1.490 . S
C976 H966 0.930 . S
C976 C975 1.400 . S
C976 C979 1.386 . S
H977 C993 0.930 . S
H978 C994 0.931 . S
C979 H967 0.929 . S
C979 C973 1.390 . S
C979 C976 1.386 . S
C980 C975 1.490 . S
C980 C982 1.395 . S
C980 C983 1.403 . S
H981 C987 0.930 . S
C982 H968 0.930 . S
C982 C980 1.395 . S
C982 C985 1.403 . S
C983 C980 1.403 . S
C983 C984 1.524 . S
C983 C987 1.400 . S
C984 H969 0.960 . S
C984 H970 0.960 . S
C984 H971 0.960 . S
C984 C983 1.524 . S
C985 C982 1.403 . S
C985 C986 1.392 . S
C985 C989 1.495 . S
C986 C985 1.392 . S
C986 C987 1.385 . S
C986 C988 1.478 . S
C987 H981 0.930 . S
C987 C983 1.400 . S
C987 C986 1.385 . S
C988 C986 1.478 . S
C988 C990 1.381 . S
C988 C994 1.383 . S
C989 C985 1.495 . S
C989 H995 0.959 . S
C989 H996 0.961 . S
C989 H997 0.960 . S
C990 C988 1.381 . S
C990 C991 1.394 . S
C990 H998 0.930 . S
C991 C990 1.394 . S
C991 C992 1.383 . S
C991 H999 0.929 . S
C992 C991 1.383 . S
C992 C993 1.377 . S
C993 H977 0.930 . S
C993 C992 1.377 . S
C993 C994 1.379 . S
C994 H978 0.931 . S
C994 C988 1.383 . S
C994 C993 1.379 . S
H995 C989 0.959 . S
H996 C989 0.961 . S
H997 C989 0.960 . S
H998 C990 0.930 . S
H999 C991 0.929 . S
C433 C250 2.118 . S
C452 C22 2.097 . S
C469 C91 2.051 . S
C488 C287 2.055 . S
C505 C128 1.912 . S
C524 C356 1.913 . S
C541 C393 1.997 . S
C560 C197 2.011 . S
C577 C39 2.968 . S
C596 C145 2.958 . S
C613 C82 2.598 . S
C632 C188 2.604 . S
C649 C347 2.596 . S
C668 C241 2.576 . S
C685 C304 2.976 . S
C704 C410 2.985 . S
C721 C294 1.527 . S
C740 C38 1.495 . S
C757 C75 1.509 . S
C776 C357 1.585 . S
C793 C144 1.563 . S
C812 C400 1.603 . S
C829 C251 1.398 . S
C848 C181 1.360 . S
C865 C234 1.422 . S
C884 C92 1.468 . S
C901 C303 1.566 . S
C920 C135 1.612 . S
C937 C340 1.471 . S
C956 C198 1.517 . S
C973 C29 1.506 . S
C992 C409 1.457 . S
