# Generated by pormake.
# Topology wif, (6)-cn, num edge types: 1
# Building blocks:
#     Node 0, Type 0, BuildingBlock: IZENUY_clean_sbu_0, # of connection points: 6
#     Node 1, Type 0, BuildingBlock: IZENUY_clean_sbu_0, # of connection points: 6
#     Node 2, Type 0, BuildingBlock: IZENUY_clean_sbu_0, # of connection points: 6
#     Node 3, Type 0, BuildingBlock: IZENUY_clean_sbu_0, # of connection points: 6
#     Node 4, Type 0, BuildingBlock: IZENUY_clean_sbu_0, # of connection points: 6
#     Node 5, Type 0, BuildingBlock: IZENUY_clean_sbu_0, # of connection points: 6
#     Node 6, Type 0, BuildingBlock: IZENUY_clean_sbu_0, # of connection points: 6
#     Node 7, Type 0, BuildingBlock: IZENUY_clean_sbu_0, # of connection points: 6
#     Node 8, Type 0, BuildingBlock: IZENUY_clean_sbu_0, # of connection points: 6
#     Node 9, Type 0, BuildingBlock: IZENUY_clean_sbu_0, # of connection points: 6
#     Node 10, Type 0, BuildingBlock: IZENUY_clean_sbu_0, # of connection points: 6
#     Node 11, Type 0, BuildingBlock: IZENUY_clean_sbu_0, # of connection points: 6
#     Node 12, Type 0, BuildingBlock: IZENUY_clean_sbu_0, # of connection points: 6
#     Node 13, Type 0, BuildingBlock: IZENUY_clean_sbu_0, # of connection points: 6
#     Node 14, Type 0, BuildingBlock: IZENUY_clean_sbu_0, # of connection points: 6
#     Node 15, Type 0, BuildingBlock: IZENUY_clean_sbu_0, # of connection points: 6
#     Edge 16, Type (0, 0), BuildingBlock: AJUNOK_clean_linker_0, # of connection points: 2
#     Edge 17, Type (0, 0), BuildingBlock: AJUNOK_clean_linker_0, # of connection points: 2
#     Edge 18, Type (0, 0), BuildingBlock: AJUNOK_clean_linker_0, # of connection points: 2
#     Edge 19, Type (0, 0), BuildingBlock: AJUNOK_clean_linker_0, # of connection points: 2
#     Edge 20, Type (0, 0), BuildingBlock: AJUNOK_clean_linker_0, # of connection points: 2
#     Edge 21, Type (0, 0), BuildingBlock: AJUNOK_clean_linker_0, # of connection points: 2
#     Edge 22, Type (0, 0), BuildingBlock: AJUNOK_clean_linker_0, # of connection points: 2
#     Edge 23, Type (0, 0), BuildingBlock: AJUNOK_clean_linker_0, # of connection points: 2
#     Edge 24, Type (0, 0), BuildingBlock: AJUNOK_clean_linker_0, # of connection points: 2
#     Edge 25, Type (0, 0), BuildingBlock: AJUNOK_clean_linker_0, # of connection points: 2
#     Edge 26, Type (0, 0), BuildingBlock: AJUNOK_clean_linker_0, # of connection points: 2
#     Edge 27, Type (0, 0), BuildingBlock: AJUNOK_clean_linker_0, # of connection points: 2
#     Edge 28, Type (0, 0), BuildingBlock: AJUNOK_clean_linker_0, # of connection points: 2
#     Edge 29, Type (0, 0), BuildingBlock: AJUNOK_clean_linker_0, # of connection points: 2
#     Edge 30, Type (0, 0), BuildingBlock: AJUNOK_clean_linker_0, # of connection points: 2
#     Edge 31, Type (0, 0), BuildingBlock: AJUNOK_clean_linker_0, # of connection points: 2
#     Edge 32, Type (0, 0), BuildingBlock: AJUNOK_clean_linker_0, # of connection points: 2
#     Edge 33, Type (0, 0), BuildingBlock: AJUNOK_clean_linker_0, # of connection points: 2
#     Edge 34, Type (0, 0), BuildingBlock: AJUNOK_clean_linker_0, # of connection points: 2
#     Edge 35, Type (0, 0), BuildingBlock: AJUNOK_clean_linker_0, # of connection points: 2
#     Edge 36, Type (0, 0), BuildingBlock: AJUNOK_clean_linker_0, # of connection points: 2
#     Edge 37, Type (0, 0), BuildingBlock: AJUNOK_clean_linker_0, # of connection points: 2
#     Edge 38, Type (0, 0), BuildingBlock: AJUNOK_clean_linker_0, # of connection points: 2
#     Edge 39, Type (0, 0), BuildingBlock: AJUNOK_clean_linker_0, # of connection points: 2
#     Edge 40, Type (0, 0), BuildingBlock: AJUNOK_clean_linker_0, # of connection points: 2
#     Edge 41, Type (0, 0), BuildingBlock: AJUNOK_clean_linker_0, # of connection points: 2
#     Edge 42, Type (0, 0), BuildingBlock: AJUNOK_clean_linker_0, # of connection points: 2
#     Edge 43, Type (0, 0), BuildingBlock: AJUNOK_clean_linker_0, # of connection points: 2
#     Edge 44, Type (0, 0), BuildingBlock: AJUNOK_clean_linker_0, # of connection points: 2
#     Edge 45, Type (0, 0), BuildingBlock: AJUNOK_clean_linker_0, # of connection points: 2
#     Edge 46, Type (0, 0), BuildingBlock: AJUNOK_clean_linker_0, # of connection points: 2
#     Edge 47, Type (0, 0), BuildingBlock: AJUNOK_clean_linker_0, # of connection points: 2
#     Edge 48, Type (0, 0), BuildingBlock: AJUNOK_clean_linker_0, # of connection points: 2
#     Edge 49, Type (0, 0), BuildingBlock: AJUNOK_clean_linker_0, # of connection points: 2
#     Edge 50, Type (0, 0), BuildingBlock: AJUNOK_clean_linker_0, # of connection points: 2
#     Edge 51, Type (0, 0), BuildingBlock: AJUNOK_clean_linker_0, # of connection points: 2
#     Edge 52, Type (0, 0), BuildingBlock: AJUNOK_clean_linker_0, # of connection points: 2
#     Edge 53, Type (0, 0), BuildingBlock: AJUNOK_clean_linker_0, # of connection points: 2
#     Edge 54, Type (0, 0), BuildingBlock: AJUNOK_clean_linker_0, # of connection points: 2
#     Edge 55, Type (0, 0), BuildingBlock: AJUNOK_clean_linker_0, # of connection points: 2
#     Edge 56, Type (0, 0), BuildingBlock: AJUNOK_clean_linker_0, # of connection points: 2
#     Edge 57, Type (0, 0), BuildingBlock: AJUNOK_clean_linker_0, # of connection points: 2
#     Edge 58, Type (0, 0), BuildingBlock: AJUNOK_clean_linker_0, # of connection points: 2
#     Edge 59, Type (0, 0), BuildingBlock: AJUNOK_clean_linker_0, # of connection points: 2
#     Edge 60, Type (0, 0), BuildingBlock: AJUNOK_clean_linker_0, # of connection points: 2
#     Edge 61, Type (0, 0), BuildingBlock: AJUNOK_clean_linker_0, # of connection points: 2
#     Edge 62, Type (0, 0), BuildingBlock: AJUNOK_clean_linker_0, # of connection points: 2
#     Edge 63, Type (0, 0), BuildingBlock: AJUNOK_clean_linker_0, # of connection points: 2
# Relax obj value: 0.830
# Max RMSD: 0.281
# Mean RMSD: 0.280
data_MOF--net-wif--node1-IZENUY_clean_sbu_0--edge1-AJUNOK_clean_linker_0
_symmetry_space_group_name_H-M    P1
_symmetry_Int_Tables_number       1
_symmetry_cell_setting            triclinic
loop_
_symmetry_equiv_pos_as_xyz
'x, y, z'
_cell_length_a     24.999217
_cell_length_b     25.148095
_cell_length_c     21.565266
_cell_angle_alpha  90.36405
_cell_angle_beta   90.081746
_cell_angle_gamma 89.875143
loop_
_atom_site_label
_atom_site_type_symbol
_atom_site_fract_x
_atom_site_fract_y
_atom_site_fract_z
_atom_type_partial_charge
Fe0 Fe 0.27519 0.08569 0.15174 0.0
Fe1 Fe 0.32467 1.01715 0.04562 0.0
O2 O 0.31371 0.08071 0.08292 0.0
Fe3 Fe 0.3428 0.13925 0.05288 0.0
O4 O 0.37834 0.15467 0.1233 0.0
O5 O 0.31087 0.14181 0.18558 0.0
O6 O 0.32337 0.04388 0.19088 0.0
C7 C 0.34159 0.99963 0.17256 0.0
C8 C 0.23934 0.17535 0.09492 0.0
O9 O 0.32845 0.98133 0.11958 0.0
C10 C 0.32923 0.09403 0.94455 0.0
O11 O 0.23206 1.02889 0.13408 0.0
O12 O 0.25141 1.00062 0.04019 0.0
O13 O 0.2864 0.18263 0.07463 0.0
O14 O 0.2261 0.1304 0.11661 0.0
C15 C 0.42477 0.06082 0.03866 0.0
O16 O 0.33157 0.04552 0.96333 0.0
O17 O 0.30873 0.1266 0.98144 0.0
C18 C 0.22224 0.99745 0.08943 0.0
O19 O 0.3956 1.02255 0.05288 0.0
O20 O 0.40593 0.10675 0.0285 0.0
C21 C 0.35723 0.15877 0.17583 0.0
Fe22 Fe 1.01639 0.74994 0.98275 0.0
Fe23 Fe 0.08264 0.79839 0.87555 0.0
O24 O 0.07899 0.75997 0.94449 0.0
Fe25 Fe 0.13753 0.72969 0.9735 0.0
O26 O 0.10399 0.66848 0.99949 0.0
O27 O 1.02015 0.67935 0.97243 0.0
O28 O 0.97814 0.74911 0.91 0.0
C29 C 0.99461 0.73615 0.85648 0.0
C30 C 0.09445 0.74441 0.08332 0.0
O31 O 0.03893 0.75247 0.83704 0.0
C32 C 0.17445 0.83129 0.92946 0.0
O33 O 1.00413 0.82234 0.99215 0.0
O34 O 1.02626 0.8427 0.89624 0.0
O35 O 0.12808 0.76336 0.04644 0.0
O36 O 0.04603 0.74164 0.06369 0.0
C37 C 0.1534 0.71358 0.84967 0.0
O38 O 0.12902 0.84576 0.90972 0.0
O39 O 0.18153 0.78447 0.9498 0.0
C40 C 0.99992 0.85314 0.94515 0.0
O41 O 0.13795 0.76063 0.83978 0.0
O42 O 0.14927 0.69369 0.90264 0.0
C43 C 0.05794 0.64974 0.98844 0.0
Fe44 Fe 0.80048 0.97758 0.15051 0.0
Fe45 Fe 0.75089 0.04039 0.04127 0.0
O46 O 0.75981 0.97977 0.08279 0.0
Fe47 Fe 0.72583 0.92195 0.0577 0.0
O48 O 0.69136 0.91551 0.12941 0.0
O49 O 0.75942 0.9274 0.1918 0.0
O50 O 0.75938 1.02656 0.18799 0.0
C51 C 0.74859 0.07175 0.16695 0.0
C52 C 0.82697 0.88127 0.10275 0.0
O53 O 0.75609 0.0825 0.11051 0.0
C54 C 0.73873 0.95865 0.94557 0.0
O55 O 0.84789 1.02937 0.12295 0.0
O56 O 0.82352 0.04828 0.02697 0.0
O57 O 0.77933 0.87589 0.08291 0.0
O58 O 0.84411 0.92661 0.11847 0.0
C59 C 0.64812 1.00366 0.04623 0.0
O60 O 0.7372 1.00747 0.96301 0.0
O61 O 0.75797 0.92619 0.98351 0.0
C62 C 0.85683 0.0534 0.07204 0.0
O63 O 0.68054 0.04046 0.0571 0.0
O64 O 0.6645 0.95743 0.03183 0.0
C65 C 0.71193 0.91161 0.18204 0.0
Fe66 Fe 0.04933 0.32631 0.99542 0.0
Fe67 Fe 0.98512 0.2832 0.8821 0.0
O68 O 0.98731 0.31868 0.95305 0.0
Fe69 Fe 0.92803 0.34704 0.9819 0.0
O70 O 0.961 0.40845 1.01177 0.0
O71 O 0.04577 0.39644 0.98982 0.0
O72 O 0.08937 0.33072 0.92437 0.0
C73 C 0.07322 0.34827 0.87245 0.0
C74 C 0.96835 0.32862 0.09104 0.0
O75 O 1.02992 0.33158 0.84946 0.0
C76 C 0.89172 0.24749 0.93018 0.0
O77 O 0.06228 0.25316 0.99949 0.0
O78 O 0.04023 0.23853 0.90215 0.0
O79 O 0.94006 0.30817 0.04989 0.0
O80 O 1.0178 0.33248 0.07642 0.0
C81 C 0.91234 0.36697 0.85905 0.0
O82 O 0.93746 0.23404 0.91002 0.0
O83 O 0.88451 0.29301 0.95449 0.0
C84 C 0.06725 0.22541 0.94946 0.0
O85 O 0.93095 0.32146 0.84737 0.0
O86 O 0.91429 0.38591 0.91321 0.0
C87 C 1.00798 0.42641 1.00436 0.0
Fe88 Fe 0.33701 0.42867 0.22329 0.0
Fe89 Fe 0.262 0.47918 0.12704 0.0
O90 O 0.30259 0.48513 0.19516 0.0
Fe91 Fe 0.31175 0.54783 0.23358 0.0
O92 O 0.38257 0.54665 0.22048 0.0
O93 O 0.39729 0.46461 0.24837 0.0
O94 O 0.37159 0.41959 0.15189 0.0
C95 C 0.351 0.41285 0.09953 0.0
C96 C 0.32341 0.47005 0.33374 0.0
O97 O 0.30328 0.42726 0.0889 0.0
C98 C 0.20709 0.56251 0.198 0.0
O99 O 0.28482 0.38146 0.20083 0.0
O100 O 0.21881 0.42825 0.16082 0.0
O101 O 0.32359 0.51832 0.31422 0.0
O102 O 0.3047 0.43578 0.29724 0.0
C103 C 0.31487 0.5726 0.10612 0.0
O104 O 0.21435 0.53262 0.15076 0.0
O105 O 0.23906 0.55866 0.24458 0.0
C106 C 0.23729 0.38447 0.18082 0.0
O107 O 0.30263 0.52691 0.08687 0.0
O108 O 0.3086 0.58611 0.16209 0.0
C109 C 0.41425 0.5105 0.23575 0.0
Fe110 Fe 0.4731 0.79664 0.89474 0.0
Fe111 Fe 0.42124 0.72198 0.79914 0.0
O112 O 0.47871 0.75566 0.82744 0.0
Fe113 Fe 0.54157 0.7469 0.78965 0.0
O114 O 0.58037 0.74872 0.86251 0.0
O115 O 0.51975 0.7551 0.93613 0.0
O116 O 0.41966 0.75761 0.93118 0.0
C117 C 0.40605 0.70974 0.92251 0.0
C118 C 0.55569 0.85116 0.82568 0.0
O119 O 0.4118 0.68756 0.87071 0.0
C120 C 0.46281 0.73868 0.68896 0.0
O121 O 0.42438 0.84041 0.85793 0.0
O122 O 0.37456 0.77511 0.82178 0.0
O123 O 0.55201 0.81925 0.77927 0.0
O124 O 0.52749 0.8426 0.87342 0.0
C125 C 0.50404 0.64495 0.78365 0.0
O126 O 0.42749 0.75431 0.72585 0.0
O127 O 0.51131 0.73715 0.70907 0.0
C128 C 0.37973 0.82332 0.83833 0.0
O129 O 0.4571 0.6615 0.77278 0.0
O130 O 0.54007 0.67632 0.80071 0.0
C131 C 0.56623 0.74266 0.91854 0.0
Fe132 Fe 0.71765 0.64443 0.23627 0.0
Fe133 Fe 0.79155 0.59247 0.14091 0.0
O134 O 0.74962 0.58691 0.20706 0.0
Fe135 Fe 0.73884 0.52446 0.24331 0.0
O136 O 0.66864 0.52876 0.23133 0.0
O137 O 0.6554 0.61095 0.26101 0.0
O138 O 0.68334 0.6563 0.16441 0.0
C139 C 0.70585 0.66185 0.1128 0.0
C140 C 0.73249 0.60111 0.34519 0.0
O141 O 0.7545 0.64867 0.1059 0.0
C142 C 0.84373 0.50607 0.2073 0.0
O143 O 0.77247 0.68885 0.2159 0.0
O144 O 0.83704 0.63709 0.18182 0.0
O145 O 0.72918 0.55291 0.32529 0.0
O146 O 0.75104 0.63438 0.30838 0.0
C147 C 0.73138 0.50525 0.11381 0.0
O148 O 0.83542 0.53519 0.16026 0.0
O149 O 0.81165 0.51008 0.25369 0.0
C150 C 0.82131 0.68165 0.20269 0.0
O151 O 0.74803 0.54997 0.0967 0.0
O152 O 0.73836 0.48924 0.16903 0.0
C153 C 0.63788 0.56497 0.24858 0.0
Fe154 Fe 0.58848 0.2724 0.8951 0.0
Fe155 Fe 0.64089 0.34476 0.7996 0.0
O156 O 0.58329 0.31114 0.82669 0.0
Fe157 Fe 0.52093 0.31861 0.7867 0.0
O158 O 0.48075 0.31903 0.85797 0.0
O159 O 0.5405 0.31437 0.93279 0.0
O160 O 0.64013 0.31423 0.93238 0.0
C161 C 0.65178 0.36254 0.92312 0.0
C162 C 0.50598 0.21496 0.82649 0.0
O163 O 0.64783 0.38221 0.87004 0.0
C164 C 0.60276 0.32505 0.68942 0.0
O165 O 0.63927 0.22827 0.86184 0.0
O166 O 0.68789 0.2938 0.8255 0.0
O167 O 0.50951 0.2456 0.77901 0.0
O168 O 0.53515 0.22438 0.87361 0.0
C169 C 0.5585 0.42089 0.78036 0.0
O170 O 0.6362 0.3089 0.72805 0.0
O171 O 0.55338 0.32624 0.70672 0.0
C172 C 0.68359 0.24585 0.84213 0.0
O173 O 0.6052 0.40374 0.77006 0.0
O174 O 0.52197 0.38971 0.79587 0.0
C175 C 0.49407 0.32527 0.91425 0.0
Fe176 Fe 0.81725 0.51416 0.53636 0.0
Fe177 Fe 0.84636 0.63247 0.54416 0.0
O178 O 0.8085 0.57798 0.57191 0.0
Fe179 Fe 0.76526 0.58734 0.63713 0.0
O180 O 0.80106 0.53864 0.68126 0.0
O181 O 0.81119 0.47734 0.60915 0.0
O182 O 0.88828 0.51381 0.55231 0.0
C183 C 0.92128 0.54861 0.53648 0.0
C184 C 0.71048 0.50395 0.56575 0.0
O185 O 0.90535 0.59395 0.51992 0.0
C186 C 0.74887 0.6835 0.58284 0.0
O187 O 0.83052 0.54219 0.45592 0.0
O188 O 0.81477 0.62668 0.46939 0.0
O189 O 0.71573 0.5358 0.61182 0.0
O190 O 0.74494 0.50534 0.5218 0.0
C191 C 0.85885 0.64312 0.66919 0.0
O192 O 0.79709 0.68299 0.56541 0.0
O193 O 0.72655 0.64061 0.59994 0.0
C194 C 0.83004 0.58973 0.43402 0.0
O195 O 0.87995 0.63935 0.61664 0.0
O196 O 0.80891 0.63653 0.6761 0.0
C197 C 0.81408 0.4924 0.66518 0.0
Fe198 Fe 0.52486 0.25769 0.48634 0.0
Fe199 Fe 0.58879 0.30354 0.37464 0.0
O200 O 0.58593 0.26512 0.44362 0.0
Fe201 Fe 0.64453 0.23251 0.46964 0.0
O202 O 0.61003 0.17343 0.50055 0.0
O203 O 0.52585 0.18612 0.47717 0.0
O204 O 0.48237 0.25795 0.41709 0.0
C205 C 0.49396 0.25057 0.36059 0.0
C206 C 0.6088 0.25213 0.58052 0.0
O207 O 0.53908 0.26222 0.33894 0.0
C208 C 0.68652 0.3302 0.42167 0.0
O209 O 0.51438 0.33072 0.49458 0.0
O210 O 0.53689 0.3519 0.39897 0.0
O211 O 0.64032 0.26933 0.54055 0.0
O212 O 0.55916 0.24981 0.56508 0.0
C213 C 0.65376 0.21375 0.34643 0.0
O214 O 0.64125 0.34762 0.40448 0.0
O215 O 0.69094 0.28318 0.44152 0.0
C216 C 0.50973 0.36163 0.44746 0.0
O217 O 0.63853 0.26082 0.33577 0.0
O218 O 0.65081 0.19453 0.3998 0.0
C219 C 0.56347 0.15537 0.49155 0.0
Fe220 Fe 0.30502 0.48242 0.64674 0.0
Fe221 Fe 0.25175 0.54347 0.53713 0.0
O222 O 0.26276 0.48378 0.58017 0.0
Fe223 Fe 0.22867 0.42502 0.55811 0.0
O224 O 0.19349 0.42307 0.63025 0.0
O225 O 0.26375 0.43418 0.68976 0.0
O226 O 0.26511 0.5324 0.68384 0.0
C227 C 0.24977 0.57639 0.66296 0.0
C228 C 0.32906 0.38425 0.60041 0.0
O229 O 0.25459 0.58765 0.60594 0.0
C230 C 0.24505 0.45743 0.44445 0.0
O231 O 0.35192 0.53359 0.61766 0.0
O232 O 0.32408 0.55447 0.5236 0.0
O233 O 0.28033 0.37955 0.58591 0.0
O234 O 0.34778 0.42937 0.61546 0.0
C235 C 0.14963 0.50362 0.53846 0.0
O236 O 0.24118 0.50697 0.4597 0.0
O237 O 0.26249 0.42615 0.48485 0.0
C238 C 0.3579 0.5601 0.56803 0.0
O239 O 0.18046 0.54151 0.55109 0.0
O240 O 0.16835 0.4579 0.52764 0.0
C241 C 0.21405 0.42566 0.68333 0.0
Fe242 Fe 0.55179 0.82621 0.50331 0.0
Fe243 Fe 0.48019 0.77472 0.40215 0.0
O244 O 0.48821 0.81727 0.4675 0.0
Fe245 Fe 0.43199 0.85277 0.49572 0.0
O246 O 0.46902 0.91263 0.52143 0.0
O247 O 0.55052 0.89683 0.48984 0.0
O248 O 0.58888 0.82261 0.42975 0.0
C249 C 0.57344 0.82636 0.37392 0.0
C250 C 0.47504 0.83444 0.60509 0.0
O251 O 0.52673 0.81352 0.35831 0.0
C252 C 0.38735 0.75227 0.46113 0.0
O253 O 0.56193 0.75408 0.51606 0.0
O254 O 0.53366 0.72758 0.42424 0.0
O255 O 0.43859 0.82 0.56887 0.0
O256 O 0.52295 0.83716 0.5838 0.0
C257 C 0.41912 0.86481 0.37157 0.0
O258 O 0.43125 0.73336 0.44173 0.0
O259 O 0.38347 0.80131 0.47414 0.0
C260 C 0.56283 0.72006 0.47162 0.0
O261 O 0.42742 0.81532 0.36561 0.0
O262 O 0.4239 0.88693 0.42364 0.0
C263 C 0.51493 0.9291 0.50625 0.0
Fe264 Fe 0.77472 0.99053 0.6275 0.0
Fe265 Fe 0.82276 0.05441 0.73876 0.0
O266 O 0.81261 0.99263 0.69734 0.0
Fe267 Fe 0.8414 0.93357 0.72622 0.0
O268 O 0.87815 0.91937 0.65644 0.0
O269 O 0.81395 0.93752 0.59032 0.0
O270 O 0.82069 0.03657 0.59249 0.0
C271 C 0.8357 0.08061 0.61452 0.0
C272 C 0.7412 0.89552 0.67617 0.0
O273 O 0.82385 0.09455 0.66903 0.0
C274 C 0.82493 0.97616 0.8358 0.0
O275 O 0.72924 0.04557 0.65065 0.0
O276 O 0.74992 0.06725 0.74708 0.0
O277 O 0.78672 0.88975 0.7011 0.0
O278 O 0.72689 0.94103 0.65641 0.0
C279 C 0.92348 1.01131 0.74341 0.0
O280 O 0.83052 1.02417 0.81853 0.0
O281 O 0.80515 0.94504 0.79668 0.0
C282 C 0.71943 0.07265 0.69947 0.0
O283 O 0.89401 0.04983 0.7293 0.0
O284 O 0.90388 0.96574 0.75373 0.0
C285 C 0.85795 0.91538 0.60322 0.0
Fe286 Fe 0.05139 0.22761 0.2814 0.0
Fe287 Fe 1.00375 0.29572 0.39005 0.0
O288 O 0.99602 0.2489 0.32782 0.0
Fe289 Fe 0.93233 0.21959 0.31636 0.0
O290 O 0.95876 0.15368 0.33706 0.0
O291 O 1.02979 0.15854 0.27665 0.0
O292 O 0.08842 0.20698 0.34956 0.0
C293 C 0.09483 0.2308 0.40038 0.0
C294 C 0.97254 0.2163 0.19321 0.0
O295 O 0.07026 0.27325 0.41324 0.0
C296 C 0.90006 0.32098 0.33686 0.0
O297 O 0.08525 0.29439 0.28371 0.0
O298 O 1.03209 0.3462 0.33895 0.0
O299 O 0.94134 0.20432 0.23615 0.0
O300 O 1.01695 0.2399 0.20557 0.0
C301 C 0.93477 0.22435 0.44271 0.0
O302 O 0.93636 0.32555 0.37835 0.0
O303 O 0.9035 0.28399 0.29644 0.0
C304 C 0.07568 0.33954 0.30976 0.0
O305 O 0.97886 0.248 0.44754 0.0
O306 O 0.90861 0.22835 0.39401 0.0
C307 C 0.99913 0.13199 0.31125 0.0
Fe308 Fe 0.30591 0.07694 0.6353 0.0
Fe309 Fe 0.25454 1.01568 0.74605 0.0
O310 O 0.2641 0.07524 0.70154 0.0
Fe311 Fe 0.23213 0.13327 0.72606 0.0
O312 O 0.19581 0.14109 0.65455 0.0
O313 O 0.26471 0.12573 0.59315 0.0
O314 O 0.26495 1.02676 0.59952 0.0
C315 C 0.25081 0.98289 0.62189 0.0
C316 C 0.3315 0.17481 0.682 0.0
O317 O 0.26117 0.97135 0.67783 0.0
C318 C 0.24683 0.09991 0.83806 0.0
O319 O 0.35283 1.02685 0.66584 0.0
O320 O 0.32683 1.00963 0.76185 0.0
O321 O 0.28388 0.17916 0.70048 0.0
O322 O 0.34952 0.12993 0.66494 0.0
C323 C 0.15248 0.05299 0.74158 0.0
O324 O 0.23981 0.05092 0.82387 0.0
O325 O 0.26977 0.12567 0.79699 0.0
C326 C 0.36127 1.00512 0.71812 0.0
O327 O 0.18369 1.0151 0.72969 0.0
O328 O 0.17107 0.09878 0.75349 0.0
C329 C 0.2168 0.14085 0.60151 0.0
Fe330 Fe 0.135 0.82945 0.32356 0.0
Fe331 Fe 1.01793 0.80207 0.30117 0.0
O332 O 0.07789 0.7946 0.34638 0.0
Fe333 Fe 0.0807 0.75293 0.41233 0.0
O334 O 0.12668 0.7966 0.45735 0.0
O335 O 0.1403 0.86439 0.39543 0.0
O336 O 0.0968 0.88952 0.29799 0.0
C337 C 0.04979 0.90502 0.31185 0.0
C338 C 0.18095 0.73188 0.36931 0.0
O339 O 1.01361 0.87153 0.32043 0.0
C340 C 1.01075 0.69578 0.32687 0.0
O341 O 0.13115 0.7943 0.25037 0.0
O342 O 0.05361 0.82016 0.22441 0.0
O343 O 0.13607 0.71247 0.38338 0.0
O344 O 0.18365 0.77916 0.34967 0.0
C345 C 0.98178 0.79783 0.4255 0.0
O346 O 1.01536 0.73028 0.28353 0.0
O347 O 1.03306 0.70389 0.37935 0.0
C348 C 0.10331 0.81628 0.20992 0.0
O349 O 0.97248 0.79233 0.36791 0.0
O350 O 1.02762 0.78997 0.44747 0.0
C351 C 0.14033 0.84466 0.44871 0.0
C352 C 0.11576 0.88268 0.11527 0.0
C353 C 0.13282 0.85975 0.17236 0.0
C354 C 0.14558 0.92434 0.0848 0.0
C355 C 0.19304 0.94645 0.11093 0.0
H356 H 0.07917 0.86858 0.09398 0.0
H357 H 0.13004 0.94069 0.04209 0.0
S358 S 0.2514 0.90552 0.26311 0.0
N359 N 0.2016 0.86451 0.25203 0.0
N360 N 0.25021 0.94366 0.20169 0.0
C361 C 0.20863 0.92413 0.16837 0.0
C362 C 0.18086 0.88096 0.19695 0.0
C363 C 0.91227 0.97461 0.90103 0.0
C364 C 0.86373 0.95061 0.88147 0.0
C365 C 0.955 0.94404 0.92706 0.0
C366 C 0.95105 0.88828 0.93548 0.0
H367 H 0.91901 1.01635 0.89188 0.0
H368 H 0.99253 0.96374 0.93715 0.0
S369 S 0.8332 0.80675 0.88972 0.0
N370 N 0.81502 0.86796 0.87469 0.0
N371 N 0.89448 0.81183 0.91717 0.0
C372 C 0.90223 0.86503 0.91727 0.0
C373 C 0.85892 0.89578 0.89268 0.0
C374 C 0.94886 0.09666 0.09071 0.0
C375 C 0.89353 0.10184 0.07725 0.0
C376 C 0.97946 0.1391 0.11742 0.0
C377 C 0.95611 0.18872 0.13364 0.0
H378 H 0.96773 0.0581 0.08538 0.0
H379 H 1.01983 0.13049 0.13271 0.0
S380 S 0.81189 0.22007 0.11865 0.0
N381 N 0.81777 0.16123 0.08538 0.0
N382 N 0.87313 0.23739 0.13772 0.0
C383 C 0.90179 0.19482 0.11721 0.0
C384 C 0.87113 0.1524 0.08937 0.0
C385 C 0.1337 0.14425 0.95574 0.0
C386 C 0.11831 0.19475 0.93233 0.0
C387 C 0.17574 0.11318 0.92741 0.0
C388 C 0.20527 0.13195 0.87561 0.0
H389 H 0.11153 0.12741 0.99393 0.0
H390 H 0.18444 0.07405 0.94552 0.0
S391 S 0.17749 0.25872 0.7926 0.0
N392 N 0.13389 0.2572 0.84928 0.0
N393 N 0.21385 0.20561 0.80351 0.0
C394 C 0.19088 0.18317 0.85422 0.0
C395 C 0.14741 0.21247 0.88034 0.0
C396 C 0.11901 0.61036 0.16874 0.0
C397 C 0.17375 0.61296 0.18614 0.0
C398 C 0.09111 0.65457 0.14228 0.0
C399 C 0.11691 0.70351 0.12929 0.0
H400 H 0.09809 0.57288 0.17269 0.0
H401 H 0.05014 0.64876 0.12746 0.0
S402 S 0.25958 0.73257 0.16397 0.0
N403 N 0.25136 0.67079 0.18701 0.0
N404 N 0.20043 0.75157 0.13876 0.0
C405 C 0.17074 0.70715 0.14875 0.0
C406 C 0.19867 0.66274 0.1761 0.0
C407 C 0.65087 0.85451 0.86326 0.0
C408 C 0.60675 0.88226 0.83871 0.0
C409 C 0.69375 0.88 0.89336 0.0
C410 C 0.69703 0.93582 0.90044 0.0
H411 H 0.65119 0.81178 0.86377 0.0
H412 H 0.72256 0.85445 0.91575 0.0
S413 S 0.59072 1.02895 0.84816 0.0
N414 N 0.56766 0.96998 0.82708 0.0
N415 N 0.64992 1.01858 0.88009 0.0
C416 C 0.65385 0.96494 0.87462 0.0
C417 C 0.60869 0.93827 0.84514 0.0
C418 C 0.93338 0.45266 0.19732 0.0
C419 C 0.8765 0.45522 0.19408 0.0
C420 C 0.96379 0.41036 0.16864 0.0
C421 C 0.93902 0.36931 0.13317 0.0
H422 H 0.95482 0.48476 0.21991 0.0
H423 H 1.00701 0.41165 0.17141 0.0
S424 S 0.79278 0.36255 0.10029 0.0
N425 N 0.79906 0.41222 0.14956 0.0
N426 N 0.85356 0.33969 0.09212 0.0
C427 C 0.88253 0.37252 0.12956 0.0
C428 C 0.85229 0.41343 0.16041 0.0
C429 C 0.41851 0.09486 0.88078 0.0
C430 C 0.36923 0.11877 0.89825 0.0
C431 C 0.46109 0.12468 0.85292 0.0
C432 C 0.45664 0.17974 0.83887 0.0
H433 H 0.42591 0.05377 0.89276 0.0
H434 H 0.49893 0.1049 0.84517 0.0
S435 S 0.33733 0.26236 0.87814 0.0
N436 N 0.31995 0.20203 0.8989 0.0
N437 N 0.39782 0.25601 0.84848 0.0
C438 C 0.40684 0.20311 0.85427 0.0
C439 C 0.36403 0.17331 0.88276 0.0
C440 C 0.70726 0.40723 0.59993 0.0
C441 C 0.67924 0.45259 0.57892 0.0
C442 C 0.68164 0.36478 0.63083 0.0
C443 C 0.62572 0.3637 0.64157 0.0
H444 H 0.75015 0.40513 0.59569 0.0
H445 H 0.70676 0.33348 0.64926 0.0
S446 S 0.5308 0.4612 0.57694 0.0
N447 N 0.58986 0.48641 0.55881 0.0
N448 N 0.54221 0.40605 0.61535 0.0
C449 C 0.59637 0.40507 0.61408 0.0
C450 C 0.62272 0.44933 0.5835 0.0
C451 C 0.41138 0.36823 0.42011 0.0
C452 C 0.45912 0.39482 0.43602 0.0
C453 C 0.36651 0.39421 0.39373 0.0
C454 C 0.36623 0.44907 0.37915 0.0
H455 H 0.41 0.32556 0.42296 0.0
H456 H 0.3328 0.36969 0.38036 0.0
S457 S 0.48117 0.53925 0.40991 0.0
N458 N 0.50323 0.48069 0.43329 0.0
N459 N 0.41905 0.52995 0.38598 0.0
C460 C 0.4131 0.47718 0.39669 0.0
C461 C 0.45936 0.45013 0.42339 0.0
C462 C 0.36309 0.65901 0.58932 0.0
C463 C 0.39038 0.6112 0.57577 0.0
C464 C 0.38813 0.70246 0.61993 0.0
C465 C 0.44275 0.7014 0.63778 0.0
H466 H 0.32069 0.66145 0.58055 0.0
H467 H 0.36321 0.73579 0.63355 0.0
S468 S 0.53682 0.59338 0.59721 0.0
N469 N 0.47836 0.57054 0.57282 0.0
N470 N 0.52553 0.6527 0.62698 0.0
C471 C 0.47211 0.65696 0.61723 0.0
C472 C 0.44611 0.6119 0.58761 0.0
C473 C 0.60622 0.62961 0.44562 0.0
C474 C 0.61132 0.68444 0.46061 0.0
C475 C 0.64765 0.60024 0.41485 0.0
C476 C 0.69555 0.6249 0.39497 0.0
H477 H 0.56862 0.60998 0.45457 0.0
H478 H 0.63995 0.55931 0.40182 0.0
S479 S 0.72519 0.76924 0.41378 0.0
N480 N 0.66886 0.76101 0.45189 0.0
N481 N 0.74195 0.70947 0.38988 0.0
C482 C 0.70093 0.6794 0.41115 0.0
C483 C 0.66029 0.70809 0.44465 0.0
C484 C 0.71679 0.16567 0.65689 0.0
C485 C 0.68932 0.12452 0.68739 0.0
C486 C 0.6904 0.20879 0.62865 0.0
C487 C 0.63398 0.21326 0.6266 0.0
H488 H 0.75957 0.16384 0.65168 0.0
H489 H 0.71508 0.23724 0.60443 0.0
S490 S 0.54179 0.1226 0.7084 0.0
N491 N 0.60135 0.09579 0.72073 0.0
N492 N 0.55162 0.1759 0.66577 0.0
C493 C 0.60563 0.17468 0.66046 0.0
C494 C 0.63302 0.13063 0.69052 0.0
C495 C 0.20608 0.37521 0.39352 0.0
C496 C 0.20804 0.43142 0.39637 0.0
C497 C 0.16501 0.34751 0.36251 0.0
C498 C 0.12337 0.37307 0.33061 0.0
H499 H 0.23517 0.35159 0.41851 0.0
H500 H 0.16495 0.30492 0.36542 0.0
S501 S 0.11636 0.51917 0.30819 0.0
N502 N 0.16835 0.51178 0.3547 0.0
N503 N 0.09191 0.45906 0.29506 0.0
C504 C 0.12671 0.42923 0.32831 0.0
C505 C 0.16886 0.45818 0.3608 0.0
C506 C 0.40265 0.86518 0.67841 0.0
C507 C 0.45597 0.87032 0.65724 0.0
C508 C 0.37495 0.90748 0.70716 0.0
C509 C 0.39823 0.95788 0.71517 0.0
H510 H 0.3799 0.8299 0.66695 0.0
H511 H 0.33278 0.90245 0.71615 0.0
S512 S 0.53875 0.99095 0.67618 0.0
N513 N 0.53326 0.92808 0.65542 0.0
N514 N 0.47997 1.00882 0.70472 0.0
C515 C 0.45274 0.96249 0.69902 0.0
C516 C 0.48182 0.91848 0.67178 0.0
C517 C 0.86732 0.65883 0.36046 0.0
C518 C 0.87003 0.60667 0.38449 0.0
C519 C 0.9114 0.68428 0.33272 0.0
C520 C 0.9621 0.66016 0.32974 0.0
H521 H 0.83224 0.68252 0.36777 0.0
H522 H 0.90689 0.7255 0.31977 0.0
S523 S 0.99007 0.52028 0.37375 0.0
N524 N 0.92628 0.52813 0.39108 0.0
N525 N 1.01063 0.57788 0.34604 0.0
C526 C 0.96474 0.60651 0.34868 0.0
C527 C 0.91861 0.5794 0.37387 0.0
C528 C 0.2039 0.3209 0.09956 0.0
C529 C 0.21287 0.3325 0.16284 0.0
C530 C 0.20484 0.26792 0.07712 0.0
C531 C 0.21199 0.22454 0.11751 0.0
H532 H 0.20307 0.3529 0.06616 0.0
H533 H 0.2051 0.26122 0.02743 0.0
S534 S 0.23067 0.23297 0.28746 0.0
N535 N 0.22742 0.29547 0.26487 0.0
N536 N 0.22016 0.19692 0.22455 0.0
C537 C 0.21329 0.23557 0.18148 0.0
C538 C 0.21621 0.28923 0.20369 0.0
C539 C 0.23229 0.85108 0.83988 0.0
C540 C 0.22297 0.85662 0.90395 0.0
C541 C 0.28454 0.8465 0.81652 0.0
C542 C 0.32939 0.85107 0.85574 0.0
H543 H 0.19925 0.84297 0.80877 0.0
H544 H 0.28959 0.83386 0.76879 0.0
S545 S 0.3256 0.8791 0.02405 0.0
N546 N 0.26206 0.87408 1.00443 0.0
N547 N 0.36047 0.87146 0.95977 0.0
C548 C 0.32027 0.8652 0.91804 0.0
C549 C 0.267 0.86675 0.94235 0.0
C550 C 0.84205 0.77651 0.22348 0.0
C551 C 0.85085 0.7306 0.18714 0.0
C552 C 0.84305 0.82733 0.19692 0.0
C553 C 0.85083 0.83374 0.13272 0.0
H554 H 0.82814 0.77278 0.27083 0.0
H555 H 0.83133 0.86088 0.22552 0.0
S556 S 0.88968 0.72737 0.02214 0.0
N557 N 0.8806 0.69595 0.088 0.0
N558 N 0.87794 0.79086 0.03726 0.0
C559 C 0.86666 0.78892 0.09837 0.0
C560 C 0.86822 0.73747 0.126 0.0
C561 C 0.79833 0.21617 0.94542 0.0
C562 C 0.84252 0.2214 0.90579 0.0
C563 C 0.74561 0.21362 0.92302 0.0
C564 C 0.7347 0.21996 0.85962 0.0
H565 H 0.80399 0.22098 0.99423 0.0
H566 H 0.71322 0.21483 0.95637 0.0
S567 S 0.83535 0.23373 0.73502 0.0
N568 N 0.87149 0.22747 0.7987 0.0
N569 N 0.77235 0.22951 0.757 0.0
C570 C 0.77846 0.22161 0.81877 0.0
C571 C 0.83235 0.22092 0.8416 0.0
C572 C 0.73869 0.8342 0.58609 0.0
C573 C 0.7202 0.84572 0.64622 0.0
C574 C 0.7454 0.78163 0.56532 0.0
C575 C 0.72716 0.73757 0.59918 0.0
H576 H 0.75482 0.8654 0.55754 0.0
H577 H 0.77008 0.77539 0.525 0.0
S578 S 0.66961 0.7453 0.7566 0.0
N579 N 0.68289 0.8079 0.73966 0.0
N580 N 0.68604 0.70969 0.69508 0.0
C581 C 0.70293 0.74866 0.65663 0.0
C582 C 0.70111 0.80233 0.68091 0.0
C583 C 0.83361 0.35941 0.41336 0.0
C584 C 0.84543 0.34286 0.35194 0.0
C585 C 0.78045 0.36271 0.4351 0.0
C586 C 0.73675 0.35263 0.39562 0.0
H587 H 0.86547 0.36437 0.44698 0.0
H588 H 0.77374 0.36865 0.48427 0.0
S589 S 0.7444 0.31517 0.23014 0.0
N590 N 0.80757 0.3198 0.25168 0.0
N591 N 0.70864 0.33303 0.29076 0.0
C592 C 0.74786 0.34332 0.33262 0.0
C593 C 0.8018 0.33666 0.3112 0.0
C594 C 0.35466 0.26917 0.7041 0.0
C595 C 0.35697 0.22568 0.66284 0.0
C596 C 0.35579 0.32219 0.68372 0.0
C597 C 0.35544 0.33408 0.62019 0.0
H598 H 0.34472 0.26213 0.75158 0.0
H599 H 0.34898 0.35355 0.71752 0.0
S600 S 0.36076 0.23573 0.49211 0.0
N601 N 0.36354 0.19887 0.55507 0.0
N602 N 0.35762 0.29798 0.51624 0.0
C603 C 0.36023 0.29124 0.57838 0.0
C604 C 0.36286 0.23727 0.59961 0.0
C605 C 0.23911 0.72939 0.46215 0.0
C606 C 0.23009 0.71196 0.40092 0.0
C607 C 0.29115 0.7368 0.48515 0.0
C608 C 0.33623 0.72404 0.44895 0.0
H609 H 0.20597 0.74266 0.49022 0.0
H610 H 0.29611 0.75679 0.52945 0.0
S611 S 0.33371 0.657 0.2959 0.0
N612 N 0.27004 0.66906 0.3115 0.0
N613 N 0.36796 0.67961 0.35585 0.0
C614 C 0.32747 0.69743 0.39243 0.0
C615 C 0.27435 0.69212 0.36805 0.0
C616 C 0.37634 0.98507 0.27953 0.0
C617 C 0.36708 0.96468 0.21964 0.0
C618 C 0.39318 0.95244 0.32777 0.0
C619 C 0.40173 0.89765 0.31853 0.0
H620 H 0.36925 1.02645 0.28995 0.0
H621 H 0.39887 0.97064 0.37303 0.0
S622 S 0.38871 0.82486 0.16931 0.0
N623 N 0.37244 0.88675 0.15276 0.0
N624 N 0.4033 0.82478 0.24391 0.0
C625 C 0.39515 0.87683 0.25838 0.0
C626 C 0.37834 0.91052 0.20887 0.0
C627 C 0.87177 0.67958 0.77676 0.0
C628 C 0.89349 0.65988 0.72109 0.0
C629 C 0.90516 0.7008 0.82292 0.0
C630 C 0.96052 0.70559 0.81336 0.0
H631 H 0.82895 0.67964 0.78421 0.0
H632 H 0.88744 0.71425 0.86576 0.0
S633 S 0.03824 0.64353 0.68529 0.0
N634 N 0.97503 0.6333 0.66684 0.0
N635 N 0.03669 0.67675 0.75139 0.0
C636 C 0.98304 0.68067 0.76106 0.0
C637 C 0.9496 0.65727 0.71533 0.0
C638 C 0.73731 0.10566 0.27391 0.0
C639 C 0.72903 0.11277 0.21013 0.0
C640 C 0.7139 0.13963 0.31711 0.0
C641 C 0.68101 0.18205 0.29838 0.0
H642 H 0.76127 0.07286 0.29093 0.0
H643 H 0.72108 0.13183 0.36579 0.0
S644 S 0.65025 0.22036 0.13633 0.0
N645 N 0.68893 0.16739 0.12963 0.0
N646 N 0.64351 0.23117 0.21157 0.0
C647 C 0.67413 0.19117 0.23462 0.0
C648 C 0.69857 0.15657 0.1903 0.0
C649 C 0.16509 0.37899 0.84063 0.0
C650 C 0.10925 0.37868 0.83145 0.0
C651 C 0.19967 0.39633 0.79352 0.0
C652 C 0.17909 0.41531 0.73707 0.0
H653 H 0.18233 0.36162 0.88195 0.0
H654 H 0.24244 0.39201 0.80001 0.0
S655 S 0.03604 0.4422 0.70145 0.0
N656 N 1.03532 0.41203 0.76914 0.0
N657 N 0.09972 0.44623 0.68214 0.0
C658 C 0.1234 0.42253 0.7317 0.0
C659 C 0.08856 0.40415 0.77877 0.0
C660 C 0.33921 0.6433 0.95558 0.0
C661 C 0.37932 0.68001 0.97165 0.0
C662 C 0.31726 0.60971 0.99997 0.0
C663 C 0.33472 0.6118 0.06181 0.0
H664 H 0.32541 0.6398 0.90806 0.0
H665 H 0.28706 0.58133 0.98556 0.0
S666 S 0.44028 0.69936 0.12674 0.0
N667 N 0.43619 0.71619 0.05297 0.0
N668 N 0.39465 0.65288 0.13698 0.0
C669 C 0.37379 0.64927 0.07889 0.0
C670 C 0.3962 0.68352 0.03357 0.0
C671 C 0.62653 0.71246 0.07569 0.0
C672 C 0.67468 0.68603 0.06157 0.0
C673 C 0.59279 0.7314 0.02913 0.0
C674 C 0.60534 0.72465 0.96601 0.0
H675 H 0.61407 0.71776 0.12339 0.0
H676 H 0.556 0.75087 0.04308 0.0
S677 S 0.72657 0.65746 0.90364 0.0
N678 N 0.73365 0.65419 0.97968 0.0
N679 N 0.6696 0.6892 0.8917 0.0
C680 C 0.65386 0.69899 0.95091 0.0
C681 C 0.68864 0.67988 0.99872 0.0
C682 C 0.70438 0.441 0.95799 0.0
C683 C 0.67329 0.39639 0.97335 0.0
C684 C 0.72256 0.47621 1.0036 0.0
C685 C 0.71017 0.46835 0.06642 0.0
H686 H 0.71494 0.44888 0.9102 0.0
H687 H 0.74693 0.50955 0.98939 0.0
S688 S 0.6291 0.35895 0.13103 0.0
N689 N 0.63062 0.34652 0.05577 0.0
N690 N 0.66373 0.41392 0.14168 0.0
C691 C 0.67854 0.42444 0.08245 0.0
C692 C 0.66065 0.38798 0.03596 0.0
C693 C 0.40743 0.36998 0.94335 0.0
C694 C 0.45442 0.34287 0.96076 0.0
C695 C 0.37236 0.39077 0.98834 0.0
C696 C 0.38373 0.38559 0.05194 0.0
H697 H 0.39849 0.37656 0.89482 0.0
H698 H 0.33744 0.41275 0.97323 0.0
S699 S 0.49979 0.31456 0.12093 0.0
N700 N 0.50802 0.30843 0.04568 0.0
N701 N 0.44392 0.34856 0.12967 0.0
C702 C 0.42963 0.35675 0.06957 0.0
C703 C 0.46454 0.33521 0.02414 0.0
C704 C 0.82697 0.46905 0.77642 0.0
C705 C 0.83457 0.45615 0.71334 0.0
C706 C 0.85167 0.43968 0.8233 0.0
C707 C 0.88489 0.39622 0.80895 0.0
H708 H 0.80255 0.50283 0.78986 0.0
H709 H 0.84503 0.45154 0.87107 0.0
S710 S 0.91691 0.34537 0.65095 0.0
N711 N 0.87655 0.39623 0.63903 0.0
N712 N 0.92343 0.34107 0.72689 0.0
C713 C 0.89172 0.38197 0.74604 0.0
C714 C 0.86636 0.41184 0.69833 0.0
C715 C 0.42043 0.2277 0.21125 0.0
C716 C 0.38602 0.18587 0.22581 0.0
C717 C 0.45329 0.2503 0.25649 0.0
C718 C 0.45343 0.23096 0.3173 0.0
H719 H 0.42228 0.24223 0.16426 0.0
H720 H 0.47988 0.28228 0.24381 0.0
S721 S 0.36968 0.12226 0.37914 0.0
N722 N 0.35104 0.12795 0.30597 0.0
N723 N 0.41664 0.16747 0.39003 0.0
C724 C 0.41809 0.19006 0.33304 0.0
C725 C 0.38331 0.16818 0.28737 0.0
C726 C 0.18206 0.62587 0.8085 0.0
C727 C 0.17784 0.68103 0.79985 0.0
C728 C 0.20498 0.5931 0.76357 0.0
C729 C 0.22494 0.61381 0.7077 0.0
H730 H 0.16725 0.60741 0.85037 0.0
H731 H 0.20669 0.55084 0.77295 0.0
S732 S 0.22419 0.75562 0.66231 0.0
N733 N 0.19558 0.7553 0.73122 0.0
N734 N 0.23865 0.69305 0.64591 0.0
C735 C 0.22042 0.6688 0.69775 0.0
C736 C 0.19697 0.70253 0.74402 0.0
C737 C 0.69252 0.89129 0.29414 0.0
C738 C 0.67938 0.88591 0.23095 0.0
C739 C 0.65863 0.87117 0.34042 0.0
C740 C 0.61088 0.84436 0.32508 0.0
H741 H 0.72821 0.91261 0.30803 0.0
H742 H 0.66932 0.87786 0.38855 0.0
S743 S 0.55932 0.81752 0.16623 0.0
N744 N 0.61581 0.8498 0.15562 0.0
N745 N 0.5533 0.81206 0.24192 0.0
C746 C 0.59821 0.83743 0.26197 0.0
C747 C 0.63222 0.85801 0.21515 0.0
C748 C 0.87436 0.15113 0.46947 0.0
C749 C 0.9122 0.18903 0.48981 0.0
C750 C 0.84988 0.11672 0.51038 0.0
C751 C 0.86215 0.11847 0.57354 0.0
H752 H 0.86331 0.14752 0.421 0.0
H753 H 0.8208 0.08872 0.49222 0.0
S754 S 0.96141 0.20668 0.65028 0.0
N755 N 0.96237 0.22494 0.57685 0.0
N756 N 0.91703 0.15823 0.6549 0.0
C757 C 0.90062 0.1552 0.59496 0.0
C758 C 0.92562 0.19089 0.55277 0.0
C759 C 0.18157 0.21594 0.4556 0.0
C760 C 0.12672 0.2055 0.4491 0.0
C761 C 0.21081 0.19405 0.50467 0.0
C762 C 0.18592 0.16197 0.54914 0.0
H763 H 0.20214 0.24126 0.42327 0.0
H764 H 0.25278 0.20332 0.5088 0.0
S765 S 0.04465 0.11792 0.54835 0.0
N766 N 0.04973 0.15702 0.48735 0.0
N767 N 0.10429 0.11782 0.58131 0.0
C768 C 0.13135 0.15044 0.54237 0.0
C769 C 0.10188 0.17167 0.49173 0.0
C770 C 0.1924 0.85762 0.54806 0.0
C771 C 0.16172 0.8786 0.49922 0.0
C772 C 0.22055 0.89127 0.58911 0.0
C773 C 0.21885 0.94683 0.58209 0.0
H774 H 0.19649 0.81519 0.55294 0.0
H775 H 0.24526 0.87376 0.62491 0.0
S776 S 0.1368 1.02151 0.4679 0.0
N777 N 0.12576 0.95841 0.45145 0.0
N778 N 0.17862 1.02126 0.52713 0.0
C779 C 0.18549 0.96813 0.53578 0.0
C780 C 0.15684 0.93414 0.4948 0.0
C781 C 0.90334 0.85626 0.4495 0.0
C782 C 0.94056 0.81775 0.46862 0.0
C783 C 0.87516 0.8869 0.49331 0.0
C784 C 0.88336 0.87959 0.55735 0.0
H785 H 0.8985 0.86504 0.40076 0.0
H786 H 0.84882 0.91808 0.47697 0.0
S787 S 0.96583 0.77407 0.63007 0.0
N788 N 0.97634 0.767 0.55497 0.0
N789 N 0.92352 0.82416 0.63706 0.0
C790 C 0.91623 0.83738 0.57657 0.0
C791 C 0.94463 0.80636 0.5322 0.0
C792 C 0.55566 0.99258 1.00311 0.0
C793 C 0.5908 1.01759 0.04489 0.0
C794 C 0.5021 1.00884 0.9988 0.0
C795 C 0.4823 0.05064 0.03598 0.0
H796 H 0.56962 0.96057 0.97345 0.0
H797 H 0.47575 0.98809 0.96692 0.0
S798 S 0.5544 0.12077 0.16158 0.0
N799 N 0.59966 0.08093 0.13022 0.0
N800 N 0.49919 0.11162 0.12097 0.0
C801 C 0.51629 0.0746 0.07925 0.0
C802 C 0.57052 0.0579 0.08412 0.0
C803 C 0.99247 0.57564 1.00048 0.0
C804 C 0.0461 0.59317 0.99952 0.0
C805 C 0.97989 0.52172 1.00613 0.0
C806 C 1.02051 0.48348 1.01087 0.0
H807 H 0.95975 0.60358 0.99527 0.0
H808 H 0.93829 0.50982 1.00383 0.0
S809 S 0.16715 0.50921 1.0171 0.0
N810 N 0.13981 0.5684 1.00829 0.0
N811 N 0.11663 0.46729 0.02042 0.0
C812 C 0.07425 0.50088 1.01393 0.0
C813 C 0.08695 0.55566 1.00778 0.0
C814 C 0.48771 0.57741 0.24207 0.0
C815 C 0.47113 0.52384 0.24439 0.0
C816 C 0.54172 0.59112 0.24695 0.0
C817 C 0.58087 0.55169 0.25419 0.0
H818 H 0.45891 0.60909 0.2355 0.0
H819 H 0.55297 0.63251 0.24244 0.0
S820 S 0.55805 0.40636 0.27044 0.0
N821 N 0.49796 0.43173 0.25934 0.0
N822 N 0.5993 0.45742 0.26999 0.0
C823 C 0.56459 0.49829 0.26022 0.0
C824 C 0.50976 0.48435 0.25485 0.0
C825 C 0.49179 0.49508 0.77845 0.0
C826 C 0.54545 0.47805 0.77334 0.0
C827 C 0.47834 0.54913 0.77891 0.0
C828 C 0.51807 0.58826 0.77492 0.0
H829 H 0.45977 0.46653 0.78382 0.0
H830 H 0.43678 0.56026 0.78503 0.0
S831 S 0.66364 0.56506 0.75165 0.0
N832 N 0.63787 0.50493 0.75734 0.0
N833 N 0.61271 0.60651 0.75858 0.0
C834 C 0.57154 0.57188 0.76605 0.0
C835 C 0.58519 0.5168 0.76508 0.0
C836 C 0.07176 0.56614 0.53547 0.0
C837 C 0.09124 0.51357 0.53393 0.0
C838 C 1.01684 0.57694 0.53478 0.0
C839 C 0.97904 0.53563 0.53393 0.0
H840 H 0.09908 0.59948 0.53765 0.0
H841 H 1.00398 0.61809 0.53635 0.0
S842 S 1.00877 0.3911 0.52292 0.0
N843 N 0.06807 0.41971 0.52615 0.0
N844 N 0.96479 0.44007 0.52657 0.0
C845 C 0.99779 0.48285 0.53063 0.0
C846 C 0.05385 0.47184 0.53009 0.0
C847 C 0.49886 0.0794 0.50076 0.0
C848 C 0.55214 0.09784 0.50064 0.0
C849 C 0.48701 1.025 0.50497 0.0
C850 C 0.52795 0.98672 0.50861 0.0
H851 H 0.46583 0.1071 0.49663 0.0
H852 H 0.44549 1.01281 0.5033 0.0
S853 S 0.67395 1.01398 0.51578 0.0
N854 N 0.6461 0.07321 0.50902 0.0
N855 N 0.62393 0.9713 0.51649 0.0
C856 C 0.58133 1.00467 0.51096 0.0
C857 C 0.59338 0.06006 0.50718 0.0
C858 C 0.07379 0.99122 0.73343 0.0
C859 C 0.0941 0.04241 0.74673 0.0
C860 C 1.01867 0.98064 0.73512 0.0
C861 C 0.9817 1.02094 0.74962 0.0
H862 H 0.10053 0.95909 0.72042 0.0
H863 H 1.00487 0.94116 0.72275 0.0
S864 S 1.01372 0.16001 0.79442 0.0
N865 N 0.07236 0.13274 0.77931 0.0
N866 N 0.96919 0.11273 0.78268 0.0
C867 C 1.00143 0.07167 0.76534 0.0
C868 C 0.05744 0.08245 0.76379 0.0
C869 C 0.06261 0.0555 0.30299 0.0
C870 C 1.01043 0.07412 0.31602 0.0
C871 C 0.07494 1.00113 0.30191 0.0
C872 C 1.03562 0.9627 0.3136 0.0
H873 H 0.09451 0.08328 0.29311 0.0
H874 H 0.11565 0.98926 0.29144 0.0
S875 S 0.89275 0.99052 0.35149 0.0
N876 N 0.91942 0.0499 0.3422 0.0
N877 N 0.94187 0.94762 0.33989 0.0
C878 C 0.98328 0.98084 0.32774 0.0
C879 C 0.9709 0.03646 0.3292 0.0
loop_
_geom_bond_atom_site_label_1
_geom_bond_atom_site_label_2
_geom_bond_distance
_geom_bond_site_symmetry_2
_ccdc_geom_bond_type
Fe0 O2 1.918 . S
Fe0 O5 1.997 . S
Fe0 O6 2.002 1_545 S
Fe0 O11 1.976 . S
Fe0 O14 1.996 . S
Fe1 O2 1.918 1_565 S
Fe1 O9 1.997 . S
Fe1 O12 1.996 . S
Fe1 O16 1.976 1_564 S
Fe1 O19 2.002 1_554 S
O2 Fe0 1.918 . S
O2 Fe1 1.918 1_545 S
O2 Fe3 1.918 . S
Fe3 O2 1.918 . S
Fe3 O4 2.002 . S
Fe3 O13 1.976 . S
Fe3 O17 1.996 1_554 S
Fe3 O20 1.997 . S
O4 Fe3 2.002 . S
O4 C21 1.295 . S
O5 Fe0 1.997 . S
O5 C21 1.235 . S
O6 Fe0 2.002 1_565 S
O6 C7 1.295 . S
C7 O6 1.295 . S
C7 O9 1.235 . S
C8 O13 1.287 . S
C8 O14 1.255 . S
O9 Fe1 1.997 . S
O9 C7 1.235 . S
C10 O16 1.287 . S
C10 O17 1.255 . S
O11 Fe0 1.976 . S
O11 C18 1.287 . S
O12 Fe1 1.996 . S
O12 C18 1.255 1_565 S
O13 Fe3 1.976 . S
O13 C8 1.287 . S
O14 Fe0 1.996 . S
O14 C8 1.255 . S
C15 O19 1.295 1_544 S
C15 O20 1.235 . S
O16 Fe1 1.976 1_546 S
O16 C10 1.287 . S
O17 Fe3 1.996 1_556 S
O17 C10 1.255 . S
C18 O11 1.287 . S
C18 O12 1.255 1_545 S
O19 Fe1 2.002 1_556 S
O19 C15 1.295 1_566 S
O20 Fe3 1.997 . S
O20 C15 1.235 . S
C21 O4 1.295 . S
C21 O5 1.235 . S
Fe22 O24 1.918 1_655 S
Fe22 O27 1.994 1_556 S
Fe22 O28 2.002 . S
Fe22 O33 1.976 . S
Fe22 O36 1.996 1_656 S
Fe23 O24 1.918 . S
Fe23 O31 1.997 1_455 S
Fe23 O34 1.996 . S
Fe23 O38 1.976 . S
Fe23 O41 2.002 . S
O24 Fe22 1.918 1_455 S
O24 Fe23 1.918 . S
O24 Fe25 1.918 . S
Fe25 O24 1.918 . S
Fe25 O26 2.002 . S
Fe25 O35 1.976 1_556 S
Fe25 O39 1.996 . S
Fe25 O42 1.997 . S
O26 Fe25 2.002 . S
O26 C43 1.295 . S
O27 Fe22 1.994 1_554 S
O27 C43 1.233 1_654 S
O28 Fe22 2.002 . S
O28 C29 1.295 . S
C29 O28 1.295 . S
C29 O31 1.235 . S
C30 O35 1.287 . S
C30 O36 1.255 . S
O31 Fe23 1.997 1_655 S
O31 C29 1.235 . S
C32 O38 1.287 . S
C32 O39 1.255 . S
O33 Fe22 1.976 . S
O33 C40 1.287 1_655 S
O34 Fe23 1.996 . S
O34 C40 1.255 . S
O35 Fe25 1.976 1_554 S
O35 C30 1.287 . S
O36 Fe22 1.996 1_454 S
O36 C30 1.255 . S
C37 O41 1.295 . S
C37 O42 1.235 . S
O38 Fe23 1.976 . S
O38 C32 1.287 . S
O39 Fe25 1.996 . S
O39 C32 1.255 . S
C40 O33 1.287 1_455 S
C40 O34 1.255 . S
O41 Fe23 2.002 . S
O41 C37 1.295 . S
O42 Fe25 1.997 . S
O42 C37 1.235 . S
C43 O26 1.295 . S
C43 O27 1.233 1_456 S
Fe44 O46 1.918 . S
Fe44 O49 1.997 . S
Fe44 O50 2.002 1_565 S
Fe44 O55 1.976 . S
Fe44 O58 1.996 . S
Fe45 O46 1.918 1_545 S
Fe45 O53 1.997 . S
Fe45 O56 1.996 . S
Fe45 O60 1.976 1_544 S
Fe45 O63 2.002 1_554 S
O46 Fe44 1.918 . S
O46 Fe45 1.918 1_565 S
O46 Fe47 1.918 . S
Fe47 O46 1.918 . S
Fe47 O48 2.002 . S
Fe47 O57 1.976 . S
Fe47 O61 1.996 1_554 S
Fe47 O64 1.997 . S
O48 Fe47 2.002 . S
O48 C65 1.295 . S
O49 Fe44 1.997 . S
O49 C65 1.235 . S
O50 Fe44 2.002 1_545 S
O50 C51 1.295 . S
C51 O50 1.295 . S
C51 O53 1.235 . S
C52 O57 1.287 . S
C52 O58 1.255 . S
O53 Fe45 1.997 . S
O53 C51 1.235 . S
C54 O60 1.287 . S
C54 O61 1.255 . S
O55 Fe44 1.976 . S
O55 C62 1.287 . S
O56 Fe45 1.996 . S
O56 C62 1.255 1_545 S
O57 Fe47 1.976 . S
O57 C52 1.287 . S
O58 Fe44 1.996 . S
O58 C52 1.255 . S
C59 O63 1.295 1_564 S
C59 O64 1.235 . S
O60 Fe45 1.976 1_566 S
O60 C54 1.287 . S
O61 Fe47 1.996 1_556 S
O61 C54 1.255 . S
C62 O55 1.287 . S
C62 O56 1.255 1_565 S
O63 Fe45 2.002 1_556 S
O63 C59 1.295 1_546 S
O64 Fe47 1.997 . S
O64 C59 1.235 . S
C65 O48 1.295 . S
C65 O49 1.235 . S
Fe66 O68 1.918 1_455 S
Fe66 O71 1.994 1_556 S
Fe66 O72 2.002 . S
Fe66 O77 1.976 . S
Fe66 O80 1.996 1_456 S
Fe67 O68 1.918 . S
Fe67 O75 1.997 1_655 S
Fe67 O78 1.996 . S
Fe67 O82 1.976 . S
Fe67 O85 2.002 . S
O68 Fe66 1.918 1_655 S
O68 Fe67 1.918 . S
O68 Fe69 1.918 . S
Fe69 O68 1.918 . S
Fe69 O70 2.002 . S
Fe69 O79 1.976 1_556 S
Fe69 O83 1.996 . S
Fe69 O86 1.997 . S
O70 Fe69 2.002 . S
O70 C87 1.295 . S
O71 Fe66 1.994 1_554 S
O71 C87 1.233 1_454 S
O72 Fe66 2.002 . S
O72 C73 1.295 . S
C73 O72 1.295 . S
C73 O75 1.235 . S
C74 O79 1.287 . S
C74 O80 1.255 . S
O75 Fe67 1.997 1_455 S
O75 C73 1.235 . S
C76 O82 1.287 . S
C76 O83 1.255 . S
O77 Fe66 1.976 . S
O77 C84 1.287 1_455 S
O78 Fe67 1.996 . S
O78 C84 1.255 . S
O79 Fe69 1.976 1_554 S
O79 C74 1.287 . S
O80 Fe66 1.996 1_654 S
O80 C74 1.255 . S
C81 O85 1.295 . S
C81 O86 1.235 . S
O82 Fe67 1.976 . S
O82 C76 1.287 . S
O83 Fe69 1.996 . S
O83 C76 1.255 . S
C84 O77 1.287 1_655 S
C84 O78 1.255 . S
O85 Fe67 2.002 . S
O85 C81 1.295 . S
O86 Fe69 1.997 . S
O86 C81 1.235 . S
C87 O70 1.295 . S
C87 O71 1.233 1_656 S
Fe88 O90 1.918 . S
Fe88 O93 1.997 . S
Fe88 O94 2.002 . S
Fe88 O99 1.976 . S
Fe88 O102 1.996 . S
Fe89 O90 1.918 . S
Fe89 O97 1.997 . S
Fe89 O100 1.996 . S
Fe89 O104 1.976 . S
Fe89 O107 2.002 . S
O90 Fe88 1.918 . S
O90 Fe89 1.918 . S
O90 Fe91 1.918 . S
Fe91 O90 1.918 . S
Fe91 O92 2.002 . S
Fe91 O101 1.976 . S
Fe91 O105 1.996 . S
Fe91 O108 1.997 . S
O92 Fe91 2.002 . S
O92 C109 1.295 . S
O93 Fe88 1.997 . S
O93 C109 1.235 . S
O94 Fe88 2.002 . S
O94 C95 1.295 . S
C95 O94 1.295 . S
C95 O97 1.235 . S
C96 O101 1.287 . S
C96 O102 1.255 . S
O97 Fe89 1.997 . S
O97 C95 1.235 . S
C98 O104 1.287 . S
C98 O105 1.255 . S
O99 Fe88 1.976 . S
O99 C106 1.287 . S
O100 Fe89 1.996 . S
O100 C106 1.255 . S
O101 Fe91 1.976 . S
O101 C96 1.287 . S
O102 Fe88 1.996 . S
O102 C96 1.255 . S
C103 O107 1.295 . S
C103 O108 1.235 . S
O104 Fe89 1.976 . S
O104 C98 1.287 . S
O105 Fe91 1.996 . S
O105 C98 1.255 . S
C106 O99 1.287 . S
C106 O100 1.255 . S
O107 Fe89 2.002 . S
O107 C103 1.295 . S
O108 Fe91 1.997 . S
O108 C103 1.235 . S
C109 O92 1.295 . S
C109 O93 1.235 . S
Fe110 O112 1.918 . S
Fe110 O115 1.997 . S
Fe110 O116 2.002 . S
Fe110 O121 1.976 . S
Fe110 O124 1.996 . S
Fe111 O112 1.918 . S
Fe111 O119 1.997 . S
Fe111 O122 1.996 . S
Fe111 O126 1.976 . S
Fe111 O129 2.002 . S
O112 Fe110 1.918 . S
O112 Fe111 1.918 . S
O112 Fe113 1.918 . S
Fe113 O112 1.918 . S
Fe113 O114 2.002 . S
Fe113 O123 1.976 . S
Fe113 O127 1.996 . S
Fe113 O130 1.997 . S
O114 Fe113 2.002 . S
O114 C131 1.295 . S
O115 Fe110 1.997 . S
O115 C131 1.235 . S
O116 Fe110 2.002 . S
O116 C117 1.295 . S
C117 O116 1.295 . S
C117 O119 1.235 . S
C118 O123 1.287 . S
C118 O124 1.255 . S
O119 Fe111 1.997 . S
O119 C117 1.235 . S
C120 O126 1.287 . S
C120 O127 1.255 . S
O121 Fe110 1.976 . S
O121 C128 1.287 . S
O122 Fe111 1.996 . S
O122 C128 1.255 . S
O123 Fe113 1.976 . S
O123 C118 1.287 . S
O124 Fe110 1.996 . S
O124 C118 1.255 . S
C125 O129 1.295 . S
C125 O130 1.235 . S
O126 Fe111 1.976 . S
O126 C120 1.287 . S
O127 Fe113 1.996 . S
O127 C120 1.255 . S
C128 O121 1.287 . S
C128 O122 1.255 . S
O129 Fe111 2.002 . S
O129 C125 1.295 . S
O130 Fe113 1.997 . S
O130 C125 1.235 . S
C131 O114 1.295 . S
C131 O115 1.235 . S
Fe132 O134 1.918 . S
Fe132 O137 1.997 . S
Fe132 O138 2.002 . S
Fe132 O143 1.976 . S
Fe132 O146 1.996 . S
Fe133 O134 1.918 . S
Fe133 O141 1.997 . S
Fe133 O144 1.996 . S
Fe133 O148 1.976 . S
Fe133 O151 2.002 . S
O134 Fe132 1.918 . S
O134 Fe133 1.918 . S
O134 Fe135 1.918 . S
Fe135 O134 1.918 . S
Fe135 O136 2.002 . S
Fe135 O145 1.976 . S
Fe135 O149 1.996 . S
Fe135 O152 1.997 . S
O136 Fe135 2.002 . S
O136 C153 1.295 . S
O137 Fe132 1.997 . S
O137 C153 1.235 . S
O138 Fe132 2.002 . S
O138 C139 1.295 . S
C139 O138 1.295 . S
C139 O141 1.235 . S
C140 O145 1.287 . S
C140 O146 1.255 . S
O141 Fe133 1.997 . S
O141 C139 1.235 . S
C142 O148 1.287 . S
C142 O149 1.255 . S
O143 Fe132 1.976 . S
O143 C150 1.287 . S
O144 Fe133 1.996 . S
O144 C150 1.255 . S
O145 Fe135 1.976 . S
O145 C140 1.287 . S
O146 Fe132 1.996 . S
O146 C140 1.255 . S
C147 O151 1.295 . S
C147 O152 1.235 . S
O148 Fe133 1.976 . S
O148 C142 1.287 . S
O149 Fe135 1.996 . S
O149 C142 1.255 . S
C150 O143 1.287 . S
C150 O144 1.255 . S
O151 Fe133 2.002 . S
O151 C147 1.295 . S
O152 Fe135 1.997 . S
O152 C147 1.235 . S
C153 O136 1.295 . S
C153 O137 1.235 . S
Fe154 O156 1.918 . S
Fe154 O159 1.997 . S
Fe154 O160 2.002 . S
Fe154 O165 1.976 . S
Fe154 O168 1.996 . S
Fe155 O156 1.918 . S
Fe155 O163 1.997 . S
Fe155 O166 1.996 . S
Fe155 O170 1.976 . S
Fe155 O173 2.002 . S
O156 Fe154 1.918 . S
O156 Fe155 1.918 . S
O156 Fe157 1.918 . S
Fe157 O156 1.918 . S
Fe157 O158 2.002 . S
Fe157 O167 1.976 . S
Fe157 O171 1.996 . S
Fe157 O174 1.997 . S
O158 Fe157 2.002 . S
O158 C175 1.295 . S
O159 Fe154 1.997 . S
O159 C175 1.235 . S
O160 Fe154 2.002 . S
O160 C161 1.295 . S
C161 O160 1.295 . S
C161 O163 1.235 . S
C162 O167 1.287 . S
C162 O168 1.255 . S
O163 Fe155 1.997 . S
O163 C161 1.235 . S
C164 O170 1.287 . S
C164 O171 1.255 . S
O165 Fe154 1.976 . S
O165 C172 1.287 . S
O166 Fe155 1.996 . S
O166 C172 1.255 . S
O167 Fe157 1.976 . S
O167 C162 1.287 . S
O168 Fe154 1.996 . S
O168 C162 1.255 . S
C169 O173 1.295 . S
C169 O174 1.235 . S
O170 Fe155 1.976 . S
O170 C164 1.287 . S
O171 Fe157 1.996 . S
O171 C164 1.255 . S
C172 O165 1.287 . S
C172 O166 1.255 . S
O173 Fe155 2.002 . S
O173 C169 1.295 . S
O174 Fe157 1.997 . S
O174 C169 1.235 . S
C175 O158 1.295 . S
C175 O159 1.235 . S
Fe176 O178 1.918 . S
Fe176 O181 1.997 . S
Fe176 O182 2.002 . S
Fe176 O187 1.976 . S
Fe176 O190 1.996 . S
Fe177 O178 1.918 . S
Fe177 O185 1.997 . S
Fe177 O188 1.996 . S
Fe177 O192 1.976 . S
Fe177 O195 2.002 . S
O178 Fe176 1.918 . S
O178 Fe177 1.918 . S
O178 Fe179 1.918 . S
Fe179 O178 1.918 . S
Fe179 O180 2.002 . S
Fe179 O189 1.976 . S
Fe179 O193 1.996 . S
Fe179 O196 1.997 . S
O180 Fe179 2.002 . S
O180 C197 1.295 . S
O181 Fe176 1.997 . S
O181 C197 1.235 . S
O182 Fe176 2.002 . S
O182 C183 1.295 . S
C183 O182 1.295 . S
C183 O185 1.235 . S
C184 O189 1.287 . S
C184 O190 1.255 . S
O185 Fe177 1.997 . S
O185 C183 1.235 . S
C186 O192 1.287 . S
C186 O193 1.255 . S
O187 Fe176 1.976 . S
O187 C194 1.287 . S
O188 Fe177 1.996 . S
O188 C194 1.255 . S
O189 Fe179 1.976 . S
O189 C184 1.287 . S
O190 Fe176 1.996 . S
O190 C184 1.255 . S
C191 O195 1.295 . S
C191 O196 1.235 . S
O192 Fe177 1.976 . S
O192 C186 1.287 . S
O193 Fe179 1.996 . S
O193 C186 1.255 . S
C194 O187 1.287 . S
C194 O188 1.255 . S
O195 Fe177 2.002 . S
O195 C191 1.295 . S
O196 Fe179 1.997 . S
O196 C191 1.235 . S
C197 O180 1.295 . S
C197 O181 1.235 . S
Fe198 O200 1.918 . S
Fe198 O203 1.997 . S
Fe198 O204 2.002 . S
Fe198 O209 1.976 . S
Fe198 O212 1.996 . S
Fe199 O200 1.918 . S
Fe199 O207 1.997 . S
Fe199 O210 1.996 . S
Fe199 O214 1.976 . S
Fe199 O217 2.002 . S
O200 Fe198 1.918 . S
O200 Fe199 1.918 . S
O200 Fe201 1.918 . S
Fe201 O200 1.918 . S
Fe201 O202 2.002 . S
Fe201 O211 1.976 . S
Fe201 O215 1.996 . S
Fe201 O218 1.997 . S
O202 Fe201 2.002 . S
O202 C219 1.295 . S
O203 Fe198 1.997 . S
O203 C219 1.235 . S
O204 Fe198 2.002 . S
O204 C205 1.295 . S
C205 O204 1.295 . S
C205 O207 1.235 . S
C206 O211 1.287 . S
C206 O212 1.255 . S
O207 Fe199 1.997 . S
O207 C205 1.235 . S
C208 O214 1.287 . S
C208 O215 1.255 . S
O209 Fe198 1.976 . S
O209 C216 1.287 . S
O210 Fe199 1.996 . S
O210 C216 1.255 . S
O211 Fe201 1.976 . S
O211 C206 1.287 . S
O212 Fe198 1.996 . S
O212 C206 1.255 . S
C213 O217 1.295 . S
C213 O218 1.235 . S
O214 Fe199 1.976 . S
O214 C208 1.287 . S
O215 Fe201 1.996 . S
O215 C208 1.255 . S
C216 O209 1.287 . S
C216 O210 1.255 . S
O217 Fe199 2.002 . S
O217 C213 1.295 . S
O218 Fe201 1.997 . S
O218 C213 1.235 . S
C219 O202 1.295 . S
C219 O203 1.235 . S
Fe220 O222 1.918 . S
Fe220 O225 1.997 . S
Fe220 O226 2.002 . S
Fe220 O231 1.976 . S
Fe220 O234 1.996 . S
Fe221 O222 1.918 . S
Fe221 O229 1.997 . S
Fe221 O232 1.996 . S
Fe221 O236 1.976 . S
Fe221 O239 2.002 . S
O222 Fe220 1.918 . S
O222 Fe221 1.918 . S
O222 Fe223 1.918 . S
Fe223 O222 1.918 . S
Fe223 O224 2.002 . S
Fe223 O233 1.976 . S
Fe223 O237 1.996 . S
Fe223 O240 1.997 . S
O224 Fe223 2.002 . S
O224 C241 1.295 . S
O225 Fe220 1.997 . S
O225 C241 1.235 . S
O226 Fe220 2.002 . S
O226 C227 1.295 . S
C227 O226 1.295 . S
C227 O229 1.235 . S
C228 O233 1.287 . S
C228 O234 1.255 . S
O229 Fe221 1.997 . S
O229 C227 1.235 . S
C230 O236 1.287 . S
C230 O237 1.255 . S
O231 Fe220 1.976 . S
O231 C238 1.287 . S
O232 Fe221 1.996 . S
O232 C238 1.255 . S
O233 Fe223 1.976 . S
O233 C228 1.287 . S
O234 Fe220 1.996 . S
O234 C228 1.255 . S
C235 O239 1.295 . S
C235 O240 1.235 . S
O236 Fe221 1.976 . S
O236 C230 1.287 . S
O237 Fe223 1.996 . S
O237 C230 1.255 . S
C238 O231 1.287 . S
C238 O232 1.255 . S
O239 Fe221 2.002 . S
O239 C235 1.295 . S
O240 Fe223 1.997 . S
O240 C235 1.235 . S
C241 O224 1.295 . S
C241 O225 1.235 . S
Fe242 O244 1.918 . S
Fe242 O247 1.997 . S
Fe242 O248 2.002 . S
Fe242 O253 1.976 . S
Fe242 O256 1.996 . S
Fe243 O244 1.918 . S
Fe243 O251 1.997 . S
Fe243 O254 1.996 . S
Fe243 O258 1.976 . S
Fe243 O261 2.002 . S
O244 Fe242 1.918 . S
O244 Fe243 1.918 . S
O244 Fe245 1.918 . S
Fe245 O244 1.918 . S
Fe245 O246 2.002 . S
Fe245 O255 1.976 . S
Fe245 O259 1.996 . S
Fe245 O262 1.997 . S
O246 Fe245 2.002 . S
O246 C263 1.295 . S
O247 Fe242 1.997 . S
O247 C263 1.235 . S
O248 Fe242 2.002 . S
O248 C249 1.295 . S
C249 O248 1.295 . S
C249 O251 1.235 . S
C250 O255 1.287 . S
C250 O256 1.255 . S
O251 Fe243 1.997 . S
O251 C249 1.235 . S
C252 O258 1.287 . S
C252 O259 1.255 . S
O253 Fe242 1.976 . S
O253 C260 1.287 . S
O254 Fe243 1.996 . S
O254 C260 1.255 . S
O255 Fe245 1.976 . S
O255 C250 1.287 . S
O256 Fe242 1.996 . S
O256 C250 1.255 . S
C257 O261 1.295 . S
C257 O262 1.235 . S
O258 Fe243 1.976 . S
O258 C252 1.287 . S
O259 Fe245 1.996 . S
O259 C252 1.255 . S
C260 O253 1.287 . S
C260 O254 1.255 . S
O261 Fe243 2.002 . S
O261 C257 1.295 . S
O262 Fe245 1.997 . S
O262 C257 1.235 . S
C263 O246 1.295 . S
C263 O247 1.235 . S
Fe264 O266 1.918 . S
Fe264 O269 1.997 . S
Fe264 O270 2.002 1_565 S
Fe264 O275 1.976 . S
Fe264 O278 1.996 . S
Fe265 O266 1.918 1_545 S
Fe265 O273 1.997 . S
Fe265 O276 1.996 . S
Fe265 O280 1.976 1_545 S
Fe265 O283 2.002 . S
O266 Fe264 1.918 . S
O266 Fe265 1.918 1_565 S
O266 Fe267 1.918 . S
Fe267 O266 1.918 . S
Fe267 O268 2.002 . S
Fe267 O277 1.976 . S
Fe267 O281 1.996 . S
Fe267 O284 1.997 . S
O268 Fe267 2.002 . S
O268 C285 1.295 . S
O269 Fe264 1.997 . S
O269 C285 1.235 . S
O270 Fe264 2.002 1_545 S
O270 C271 1.295 . S
C271 O270 1.295 . S
C271 O273 1.235 . S
C272 O277 1.287 . S
C272 O278 1.255 . S
O273 Fe265 1.997 . S
O273 C271 1.235 . S
C274 O280 1.287 . S
C274 O281 1.255 . S
O275 Fe264 1.976 . S
O275 C282 1.287 . S
O276 Fe265 1.996 . S
O276 C282 1.255 1_545 S
O277 Fe267 1.976 . S
O277 C272 1.287 . S
O278 Fe264 1.996 . S
O278 C272 1.255 . S
C279 O283 1.295 1_565 S
C279 O284 1.235 . S
O280 Fe265 1.976 1_565 S
O280 C274 1.287 . S
O281 Fe267 1.996 . S
O281 C274 1.255 . S
C282 O275 1.287 . S
C282 O276 1.255 1_565 S
O283 Fe265 2.002 . S
O283 C279 1.295 1_545 S
O284 Fe267 1.997 . S
O284 C279 1.235 . S
C285 O268 1.295 . S
C285 O269 1.235 . S
Fe286 O288 1.918 1_455 S
Fe286 O291 1.997 . S
Fe286 O292 2.002 . S
Fe286 O297 1.976 . S
Fe286 O300 1.996 1_455 S
Fe287 O288 1.918 . S
Fe287 O295 1.997 1_655 S
Fe287 O298 1.996 . S
Fe287 O302 1.976 . S
Fe287 O305 2.002 . S
O288 Fe286 1.918 1_655 S
O288 Fe287 1.918 . S
O288 Fe289 1.918 . S
Fe289 O288 1.918 . S
Fe289 O290 2.002 . S
Fe289 O299 1.976 . S
Fe289 O303 1.996 . S
Fe289 O306 1.997 . S
O290 Fe289 2.002 . S
O290 C307 1.295 . S
O291 Fe286 1.997 . S
O291 C307 1.235 1_455 S
O292 Fe286 2.002 . S
O292 C293 1.295 . S
C293 O292 1.295 . S
C293 O295 1.235 . S
C294 O299 1.287 . S
C294 O300 1.255 . S
O295 Fe287 1.997 1_455 S
O295 C293 1.235 . S
C296 O302 1.287 . S
C296 O303 1.255 . S
O297 Fe286 1.976 . S
O297 C304 1.287 1_455 S
O298 Fe287 1.996 . S
O298 C304 1.255 . S
O299 Fe289 1.976 . S
O299 C294 1.287 . S
O300 Fe286 1.996 1_655 S
O300 C294 1.255 . S
C301 O305 1.295 . S
C301 O306 1.235 . S
O302 Fe287 1.976 . S
O302 C296 1.287 . S
O303 Fe289 1.996 . S
O303 C296 1.255 . S
C304 O297 1.287 1_655 S
C304 O298 1.255 . S
O305 Fe287 2.002 . S
O305 C301 1.295 . S
O306 Fe289 1.997 . S
O306 C301 1.235 . S
C307 O290 1.295 . S
C307 O291 1.235 1_655 S
Fe308 O310 1.918 . S
Fe308 O313 1.997 . S
Fe308 O314 2.002 1_545 S
Fe308 O319 1.976 . S
Fe308 O322 1.996 . S
Fe309 O310 1.918 1_565 S
Fe309 O317 1.997 . S
Fe309 O320 1.996 . S
Fe309 O324 1.976 1_565 S
Fe309 O327 2.002 . S
O310 Fe308 1.918 . S
O310 Fe309 1.918 1_545 S
O310 Fe311 1.918 . S
Fe311 O310 1.918 . S
Fe311 O312 2.002 . S
Fe311 O321 1.976 . S
Fe311 O325 1.996 . S
Fe311 O328 1.997 . S
O312 Fe311 2.002 . S
O312 C329 1.295 . S
O313 Fe308 1.997 . S
O313 C329 1.235 . S
O314 Fe308 2.002 1_565 S
O314 C315 1.295 . S
C315 O314 1.295 . S
C315 O317 1.235 . S
C316 O321 1.287 . S
C316 O322 1.255 . S
O317 Fe309 1.997 . S
O317 C315 1.235 . S
C318 O324 1.287 . S
C318 O325 1.255 . S
O319 Fe308 1.976 . S
O319 C326 1.287 . S
O320 Fe309 1.996 . S
O320 C326 1.255 1_565 S
O321 Fe311 1.976 . S
O321 C316 1.287 . S
O322 Fe308 1.996 . S
O322 C316 1.255 . S
C323 O327 1.295 1_545 S
C323 O328 1.235 . S
O324 Fe309 1.976 1_545 S
O324 C318 1.287 . S
O325 Fe311 1.996 . S
O325 C318 1.255 . S
C326 O319 1.287 . S
C326 O320 1.255 1_545 S
O327 Fe309 2.002 . S
O327 C323 1.295 1_565 S
O328 Fe311 1.997 . S
O328 C323 1.235 . S
C329 O312 1.295 . S
C329 O313 1.235 . S
Fe330 O332 1.918 . S
Fe330 O335 1.997 . S
Fe330 O336 2.002 . S
Fe330 O341 1.976 . S
Fe330 O344 1.996 . S
Fe331 O332 1.918 1_655 S
Fe331 O339 1.997 . S
Fe331 O342 1.996 1_655 S
Fe331 O346 1.976 . S
Fe331 O349 2.002 . S
O332 Fe330 1.918 . S
O332 Fe331 1.918 1_455 S
O332 Fe333 1.918 . S
Fe333 O332 1.918 . S
Fe333 O334 2.002 . S
Fe333 O343 1.976 . S
Fe333 O347 1.996 . S
Fe333 O350 1.997 1_455 S
O334 Fe333 2.002 . S
O334 C351 1.295 . S
O335 Fe330 1.997 . S
O335 C351 1.235 . S
O336 Fe330 2.002 . S
O336 C337 1.295 . S
C337 O336 1.295 . S
C337 O339 1.235 1_455 S
C338 O343 1.287 . S
C338 O344 1.255 . S
O339 Fe331 1.997 . S
O339 C337 1.235 1_655 S
C340 O346 1.287 1_455 S
C340 O347 1.255 . S
O341 Fe330 1.976 . S
O341 C348 1.287 . S
O342 Fe331 1.996 1_455 S
O342 C348 1.255 . S
O343 Fe333 1.976 . S
O343 C338 1.287 . S
O344 Fe330 1.996 . S
O344 C338 1.255 . S
C345 O349 1.295 . S
C345 O350 1.235 . S
O346 Fe331 1.976 . S
O346 C340 1.287 1_655 S
O347 Fe333 1.996 . S
O347 C340 1.255 . S
C348 O341 1.287 . S
C348 O342 1.255 . S
O349 Fe331 2.002 . S
O349 C345 1.295 . S
O350 Fe333 1.997 1_655 S
O350 C345 1.235 . S
C351 O334 1.295 . S
C351 O335 1.235 . S
C352 C353 1.369 . S
C352 C354 1.419 . S
C352 H356 0.930 . S
C353 C352 1.369 . S
C353 C362 1.429 . S
C354 C352 1.419 . S
C354 C355 1.363 . S
C354 H357 0.929 . S
C355 C354 1.363 . S
C355 C361 1.428 . S
H356 C352 0.930 . S
H357 C354 0.929 . S
S358 N359 1.613 . S
S358 N360 1.610 . S
N359 S358 1.613 . S
N359 C362 1.350 . S
N360 S358 1.610 . S
N360 C361 1.351 . S
C361 C355 1.428 . S
C361 N360 1.351 . S
C361 C362 1.434 . S
C362 C353 1.429 . S
C362 N359 1.350 . S
C362 C361 1.434 . S
C363 C364 1.369 . S
C363 C365 1.419 . S
C363 H367 0.930 . S
C364 C363 1.369 . S
C364 C373 1.429 . S
C365 C363 1.419 . S
C365 C366 1.363 . S
C365 H368 0.929 . S
C366 C365 1.363 . S
C366 C372 1.428 . S
H367 C363 0.930 . S
H368 C365 0.929 . S
S369 N370 1.613 1_554 S
S369 N371 1.610 . S
N370 S369 1.613 1_556 S
N370 C373 1.350 . S
N371 S369 1.610 . S
N371 C372 1.351 1_554 S
C372 C366 1.428 . S
C372 N371 1.351 1_556 S
C372 C373 1.434 . S
C373 C364 1.429 . S
C373 N370 1.350 . S
C373 C372 1.434 . S
C374 C375 1.369 . S
C374 C376 1.419 . S
C374 H378 0.930 . S
C375 C374 1.369 . S
C375 C384 1.429 . S
C376 C374 1.419 . S
C376 C377 1.363 . S
C376 H379 0.929 . S
C377 C376 1.363 . S
C377 C383 1.428 . S
H378 C374 0.930 . S
H379 C376 0.929 . S
S380 N381 1.615 . S
S380 N382 1.620 . S
N381 S380 1.615 . S
N381 C384 1.350 . S
N382 S380 1.620 . S
N382 C383 1.351 . S
C383 C377 1.428 . S
C383 N382 1.351 . S
C383 C384 1.434 . S
C384 C375 1.429 . S
C384 N381 1.350 . S
C384 C383 1.434 . S
C385 C386 1.369 . S
C385 C387 1.419 . S
C385 H389 0.930 1_556 S
C386 C385 1.369 . S
C386 C395 1.429 . S
C387 C385 1.419 . S
C387 C388 1.363 . S
C387 H390 0.929 . S
C388 C387 1.363 . S
C388 C394 1.428 . S
H389 C385 0.930 1_554 S
H390 C387 0.929 . S
S391 N392 1.613 . S
S391 N393 1.610 . S
N392 S391 1.613 . S
N392 C395 1.350 . S
N393 S391 1.610 . S
N393 C394 1.351 . S
C394 C388 1.428 . S
C394 N393 1.351 . S
C394 C395 1.434 . S
C395 C386 1.429 . S
C395 N392 1.350 . S
C395 C394 1.434 . S
C396 C397 1.369 . S
C396 C398 1.419 . S
C396 H400 0.930 . S
C397 C396 1.369 . S
C397 C406 1.429 . S
C398 C396 1.419 . S
C398 C399 1.363 . S
C398 H401 0.929 . S
C399 C398 1.363 . S
C399 C405 1.428 . S
H400 C396 0.930 . S
H401 C398 0.929 . S
S402 N403 1.613 . S
S402 N404 1.610 . S
N403 S402 1.613 . S
N403 C406 1.350 . S
N404 S402 1.610 . S
N404 C405 1.351 . S
C405 C399 1.428 . S
C405 N404 1.351 . S
C405 C406 1.434 . S
C406 C397 1.429 . S
C406 N403 1.350 . S
C406 C405 1.434 . S
C407 C408 1.369 . S
C407 C409 1.419 . S
C407 H411 0.930 . S
C408 C407 1.369 . S
C408 C417 1.429 . S
C409 C407 1.419 . S
C409 C410 1.363 . S
C409 H412 0.929 . S
C410 C409 1.363 . S
C410 C416 1.428 . S
H411 C407 0.930 . S
H412 C409 0.929 . S
S413 N414 1.613 . S
S413 N415 1.610 . S
N414 S413 1.613 . S
N414 C417 1.350 . S
N415 S413 1.610 . S
N415 C416 1.351 . S
C416 C410 1.428 . S
C416 N415 1.351 . S
C416 C417 1.434 . S
C417 C408 1.429 . S
C417 N414 1.350 . S
C417 C416 1.434 . S
C418 C419 1.369 . S
C418 C420 1.419 . S
C418 H422 0.930 . S
C419 C418 1.369 . S
C419 C428 1.429 . S
C420 C418 1.419 . S
C420 C421 1.363 . S
C420 H423 0.929 . S
C421 C420 1.363 . S
C421 C427 1.428 . S
H422 C418 0.930 . S
H423 C420 0.929 . S
S424 N425 1.613 . S
S424 N426 1.610 . S
N425 S424 1.613 . S
N425 C428 1.350 . S
N426 S424 1.610 . S
N426 C427 1.351 . S
C427 C421 1.428 . S
C427 N426 1.351 . S
C427 C428 1.434 . S
C428 C419 1.429 . S
C428 N425 1.350 . S
C428 C427 1.434 . S
C429 C430 1.369 . S
C429 C431 1.419 . S
C429 H433 0.930 . S
C430 C429 1.369 . S
C430 C439 1.429 . S
C431 C429 1.419 . S
C431 C432 1.363 . S
C431 H434 0.929 . S
C432 C431 1.363 . S
C432 C438 1.428 . S
H433 C429 0.930 . S
H434 C431 0.929 . S
S435 N436 1.613 . S
S435 N437 1.610 . S
N436 S435 1.613 . S
N436 C439 1.350 . S
N437 S435 1.610 . S
N437 C438 1.351 . S
C438 C432 1.428 . S
C438 N437 1.351 . S
C438 C439 1.434 . S
C439 C430 1.429 . S
C439 N436 1.350 . S
C439 C438 1.434 . S
C440 C441 1.369 . S
C440 C442 1.419 . S
C440 H444 0.930 . S
C441 C440 1.369 . S
C441 C450 1.429 . S
C442 C440 1.419 . S
C442 C443 1.363 . S
C442 H445 0.929 . S
C443 C442 1.363 . S
C443 C449 1.428 . S
H444 C440 0.930 . S
H445 C442 0.929 . S
S446 N447 1.613 . S
S446 N448 1.610 . S
N447 S446 1.613 . S
N447 C450 1.350 . S
N448 S446 1.610 . S
N448 C449 1.351 . S
C449 C443 1.428 . S
C449 N448 1.351 . S
C449 C450 1.434 . S
C450 C441 1.429 . S
C450 N447 1.350 . S
C450 C449 1.434 . S
C451 C452 1.369 . S
C451 C453 1.419 . S
C451 H455 0.930 . S
C452 C451 1.369 . S
C452 C461 1.429 . S
C453 C451 1.419 . S
C453 C454 1.363 . S
C453 H456 0.929 . S
C454 C453 1.363 . S
C454 C460 1.428 . S
H455 C451 0.930 . S
H456 C453 0.929 . S
S457 N458 1.613 . S
S457 N459 1.610 . S
N458 S457 1.613 . S
N458 C461 1.350 . S
N459 S457 1.610 . S
N459 C460 1.351 . S
C460 C454 1.428 . S
C460 N459 1.351 . S
C460 C461 1.434 . S
C461 C452 1.429 . S
C461 N458 1.350 . S
C461 C460 1.434 . S
C462 C463 1.369 . S
C462 C464 1.419 . S
C462 H466 0.930 . S
C463 C462 1.369 . S
C463 C472 1.429 . S
C464 C462 1.419 . S
C464 C465 1.363 . S
C464 H467 0.929 . S
C465 C464 1.363 . S
C465 C471 1.428 . S
H466 C462 0.930 . S
H467 C464 0.929 . S
S468 N469 1.613 . S
S468 N470 1.610 . S
N469 S468 1.613 . S
N469 C472 1.350 . S
N470 S468 1.610 . S
N470 C471 1.351 . S
C471 C465 1.428 . S
C471 N470 1.351 . S
C471 C472 1.434 . S
C472 C463 1.429 . S
C472 N469 1.350 . S
C472 C471 1.434 . S
C473 C474 1.369 . S
C473 C475 1.419 . S
C473 H477 0.930 . S
C474 C473 1.369 . S
C474 C483 1.429 . S
C475 C473 1.419 . S
C475 C476 1.363 . S
C475 H478 0.929 . S
C476 C475 1.363 . S
C476 C482 1.428 . S
H477 C473 0.930 . S
H478 C475 0.929 . S
S479 N480 1.613 . S
S479 N481 1.610 . S
N480 S479 1.613 . S
N480 C483 1.350 . S
N481 S479 1.610 . S
N481 C482 1.351 . S
C482 C476 1.428 . S
C482 N481 1.351 . S
C482 C483 1.434 . S
C483 C474 1.429 . S
C483 N480 1.350 . S
C483 C482 1.434 . S
C484 C485 1.369 . S
C484 C486 1.419 . S
C484 H488 0.930 . S
C485 C484 1.369 . S
C485 C494 1.429 . S
C486 C484 1.419 . S
C486 C487 1.363 . S
C486 H489 0.929 . S
C487 C486 1.363 . S
C487 C493 1.428 . S
H488 C484 0.930 . S
H489 C486 0.929 . S
S490 N491 1.613 . S
S490 N492 1.610 . S
N491 S490 1.613 . S
N491 C494 1.350 . S
N492 S490 1.610 . S
N492 C493 1.351 . S
C493 C487 1.428 . S
C493 N492 1.351 . S
C493 C494 1.434 . S
C494 C485 1.429 . S
C494 N491 1.350 . S
C494 C493 1.434 . S
C495 C496 1.369 . S
C495 C497 1.419 . S
C495 H499 0.930 . S
C496 C495 1.369 . S
C496 C505 1.429 . S
C497 C495 1.419 . S
C497 C498 1.363 . S
C497 H500 0.929 . S
C498 C497 1.363 . S
C498 C504 1.428 . S
H499 C495 0.930 . S
H500 C497 0.929 . S
S501 N502 1.613 . S
S501 N503 1.610 . S
N502 S501 1.613 . S
N502 C505 1.350 . S
N503 S501 1.610 . S
N503 C504 1.351 . S
C504 C498 1.428 . S
C504 N503 1.351 . S
C504 C505 1.434 . S
C505 C496 1.429 . S
C505 N502 1.350 . S
C505 C504 1.434 . S
C506 C507 1.369 . S
C506 C508 1.419 . S
C506 H510 0.930 . S
C507 C506 1.369 . S
C507 C516 1.429 . S
C508 C506 1.419 . S
C508 C509 1.363 . S
C508 H511 0.929 . S
C509 C508 1.363 . S
C509 C515 1.428 . S
H510 C506 0.930 . S
H511 C508 0.929 . S
S512 N513 1.613 . S
S512 N514 1.610 . S
N513 S512 1.613 . S
N513 C516 1.350 . S
N514 S512 1.610 . S
N514 C515 1.351 . S
C515 C509 1.428 . S
C515 N514 1.351 . S
C515 C516 1.434 . S
C516 C507 1.429 . S
C516 N513 1.350 . S
C516 C515 1.434 . S
C517 C518 1.369 . S
C517 C519 1.419 . S
C517 H521 0.930 . S
C518 C517 1.369 . S
C518 C527 1.429 . S
C519 C517 1.419 . S
C519 C520 1.363 . S
C519 H522 0.929 . S
C520 C519 1.363 . S
C520 C526 1.428 . S
H521 C517 0.930 . S
H522 C519 0.929 . S
S523 N524 1.613 . S
S523 N525 1.610 . S
N524 S523 1.613 . S
N524 C527 1.350 . S
N525 S523 1.610 . S
N525 C526 1.351 . S
C526 C520 1.428 . S
C526 N525 1.351 . S
C526 C527 1.434 . S
C527 C518 1.429 . S
C527 N524 1.350 . S
C527 C526 1.434 . S
C528 C529 1.369 . S
C528 C530 1.419 . S
C528 H532 0.930 . S
C529 C528 1.369 . S
C529 C538 1.429 . S
C530 C528 1.419 . S
C530 C531 1.363 . S
C530 H533 0.929 . S
C531 C530 1.363 . S
C531 C537 1.428 . S
H532 C528 0.930 . S
H533 C530 0.929 . S
S534 N535 1.613 . S
S534 N536 1.610 . S
N535 S534 1.613 . S
N535 C538 1.350 . S
N536 S534 1.610 . S
N536 C537 1.351 . S
C537 C531 1.428 . S
C537 N536 1.351 . S
C537 C538 1.434 . S
C538 C529 1.429 . S
C538 N535 1.350 . S
C538 C537 1.434 . S
C539 C540 1.369 . S
C539 C541 1.419 . S
C539 H543 0.930 . S
C540 C539 1.369 . S
C540 C549 1.429 . S
C541 C539 1.419 . S
C541 C542 1.363 . S
C541 H544 0.929 . S
C542 C541 1.363 . S
C542 C548 1.428 . S
H543 C539 0.930 . S
H544 C541 0.929 . S
S545 N546 1.613 1_554 S
S545 N547 1.610 1_554 S
N546 S545 1.613 1_556 S
N546 C549 1.350 . S
N547 S545 1.610 1_556 S
N547 C548 1.351 . S
C548 C542 1.428 . S
C548 N547 1.351 . S
C548 C549 1.434 . S
C549 C540 1.429 . S
C549 N546 1.350 . S
C549 C548 1.434 . S
C550 C551 1.369 . S
C550 C552 1.419 . S
C550 H554 0.930 . S
C551 C550 1.369 . S
C551 C560 1.429 . S
C552 C550 1.419 . S
C552 C553 1.363 . S
C552 H555 0.929 . S
C553 C552 1.363 . S
C553 C559 1.428 . S
H554 C550 0.930 . S
H555 C552 0.929 . S
S556 N557 1.613 . S
S556 N558 1.610 . S
N557 S556 1.613 . S
N557 C560 1.350 . S
N558 S556 1.610 . S
N558 C559 1.351 . S
C559 C553 1.428 . S
C559 N558 1.351 . S
C559 C560 1.434 . S
C560 C551 1.429 . S
C560 N557 1.350 . S
C560 C559 1.434 . S
C561 C562 1.369 . S
C561 C563 1.419 . S
C561 H565 0.930 . S
C562 C561 1.369 . S
C562 C571 1.429 . S
C563 C561 1.419 . S
C563 C564 1.363 . S
C563 H566 0.929 . S
C564 C563 1.363 . S
C564 C570 1.428 . S
H565 C561 0.930 . S
H566 C563 0.929 . S
S567 N568 1.613 . S
S567 N569 1.610 . S
N568 S567 1.613 . S
N568 C571 1.350 . S
N569 S567 1.610 . S
N569 C570 1.351 . S
C570 C564 1.428 . S
C570 N569 1.351 . S
C570 C571 1.434 . S
C571 C562 1.429 . S
C571 N568 1.350 . S
C571 C570 1.434 . S
C572 C573 1.369 . S
C572 C574 1.419 . S
C572 H576 0.930 . S
C573 C572 1.369 . S
C573 C582 1.429 . S
C574 C572 1.419 . S
C574 C575 1.363 . S
C574 H577 0.929 . S
C575 C574 1.363 . S
C575 C581 1.428 . S
H576 C572 0.930 . S
H577 C574 0.929 . S
S578 N579 1.613 . S
S578 N580 1.610 . S
N579 S578 1.613 . S
N579 C582 1.350 . S
N580 S578 1.610 . S
N580 C581 1.351 . S
C581 C575 1.428 . S
C581 N580 1.351 . S
C581 C582 1.434 . S
C582 C573 1.429 . S
C582 N579 1.350 . S
C582 C581 1.434 . S
C583 C584 1.369 . S
C583 C585 1.419 . S
C583 H587 0.930 . S
C584 C583 1.369 . S
C584 C593 1.429 . S
C585 C583 1.419 . S
C585 C586 1.363 . S
C585 H588 0.929 . S
C586 C585 1.363 . S
C586 C592 1.428 . S
H587 C583 0.930 . S
H588 C585 0.929 . S
S589 N590 1.613 . S
S589 N591 1.610 . S
N590 S589 1.613 . S
N590 C593 1.350 . S
N591 S589 1.610 . S
N591 C592 1.351 . S
C592 C586 1.428 . S
C592 N591 1.351 . S
C592 C593 1.434 . S
C593 C584 1.429 . S
C593 N590 1.350 . S
C593 C592 1.434 . S
C594 C595 1.369 . S
C594 C596 1.419 . S
C594 H598 0.930 . S
C595 C594 1.369 . S
C595 C604 1.429 . S
C596 C594 1.419 . S
C596 C597 1.363 . S
C596 H599 0.929 . S
C597 C596 1.363 . S
C597 C603 1.428 . S
H598 C594 0.930 . S
H599 C596 0.929 . S
S600 N601 1.613 . S
S600 N602 1.610 . S
N601 S600 1.613 . S
N601 C604 1.350 . S
N602 S600 1.610 . S
N602 C603 1.351 . S
C603 C597 1.428 . S
C603 N602 1.351 . S
C603 C604 1.434 . S
C604 C595 1.429 . S
C604 N601 1.350 . S
C604 C603 1.434 . S
C605 C606 1.369 . S
C605 C607 1.419 . S
C605 H609 0.930 . S
C606 C605 1.369 . S
C606 C615 1.429 . S
C607 C605 1.419 . S
C607 C608 1.363 . S
C607 H610 0.929 . S
C608 C607 1.363 . S
C608 C614 1.428 . S
H609 C605 0.930 . S
H610 C607 0.929 . S
S611 N612 1.613 . S
S611 N613 1.610 . S
N612 S611 1.613 . S
N612 C615 1.350 . S
N613 S611 1.610 . S
N613 C614 1.351 . S
C614 C608 1.428 . S
C614 N613 1.351 . S
C614 C615 1.434 . S
C615 C606 1.429 . S
C615 N612 1.350 . S
C615 C614 1.434 . S
C616 C617 1.369 . S
C616 C618 1.419 . S
C616 H620 0.930 . S
C617 C616 1.369 . S
C617 C626 1.429 . S
C618 C616 1.419 . S
C618 C619 1.363 . S
C618 H621 0.929 . S
C619 C618 1.363 . S
C619 C625 1.428 . S
H620 C616 0.930 . S
H621 C618 0.929 . S
S622 N623 1.613 . S
S622 N624 1.610 . S
N623 S622 1.613 . S
N623 C626 1.350 . S
N624 S622 1.610 . S
N624 C625 1.351 . S
C625 C619 1.428 . S
C625 N624 1.351 . S
C625 C626 1.434 . S
C626 C617 1.429 . S
C626 N623 1.350 . S
C626 C625 1.434 . S
C627 C628 1.369 . S
C627 C629 1.419 . S
C627 H631 0.930 . S
C628 C627 1.369 . S
C628 C637 1.429 . S
C629 C627 1.419 . S
C629 C630 1.363 . S
C629 H632 0.929 . S
C630 C629 1.363 . S
C630 C636 1.428 . S
H631 C627 0.930 . S
H632 C629 0.929 . S
S633 N634 1.613 1_455 S
S633 N635 1.610 1_455 S
N634 S633 1.613 1_655 S
N634 C637 1.350 . S
N635 S633 1.610 1_655 S
N635 C636 1.351 . S
C636 C630 1.428 . S
C636 N635 1.351 . S
C636 C637 1.434 . S
C637 C628 1.429 . S
C637 N634 1.350 . S
C637 C636 1.434 . S
C638 C639 1.369 . S
C638 C640 1.419 . S
C638 H642 0.930 . S
C639 C638 1.369 . S
C639 C648 1.429 . S
C640 C638 1.419 . S
C640 C641 1.363 . S
C640 H643 0.929 . S
C641 C640 1.363 . S
C641 C647 1.428 . S
H642 C638 0.930 . S
H643 C640 0.929 . S
S644 N645 1.613 . S
S644 N646 1.610 . S
N645 S644 1.613 . S
N645 C648 1.350 . S
N646 S644 1.610 . S
N646 C647 1.351 . S
C647 C641 1.428 . S
C647 N646 1.351 . S
C647 C648 1.434 . S
C648 C639 1.429 . S
C648 N645 1.350 . S
C648 C647 1.434 . S
C649 C650 1.369 . S
C649 C651 1.419 . S
C649 H653 0.930 . S
C650 C649 1.369 . S
C650 C659 1.429 . S
C651 C649 1.419 . S
C651 C652 1.363 . S
C651 H654 0.929 . S
C652 C651 1.363 . S
C652 C658 1.428 . S
H653 C649 0.930 . S
H654 C651 0.929 . S
S655 N656 1.613 . S
S655 N657 1.610 . S
N656 S655 1.613 . S
N656 C659 1.350 . S
N657 S655 1.610 . S
N657 C658 1.351 . S
C658 C652 1.428 . S
C658 N657 1.351 . S
C658 C659 1.434 . S
C659 C650 1.429 . S
C659 N656 1.350 . S
C659 C658 1.434 . S
C660 C661 1.369 1_554 S
C660 C662 1.419 . S
C660 H664 0.930 . S
C661 C660 1.369 1_556 S
C661 C670 1.429 . S
C662 C660 1.419 . S
C662 C663 1.363 . S
C662 H665 0.929 . S
C663 C662 1.363 . S
C663 C669 1.428 . S
H664 C660 0.930 . S
H665 C662 0.929 . S
S666 N667 1.613 . S
S666 N668 1.610 1_556 S
N667 S666 1.613 . S
N667 C670 1.350 . S
N668 S666 1.610 1_554 S
N668 C669 1.351 . S
C669 C663 1.428 . S
C669 N668 1.351 . S
C669 C670 1.434 1_554 S
C670 C661 1.429 . S
C670 N667 1.350 . S
C670 C669 1.434 1_556 S
C671 C672 1.369 1_556 S
C671 C673 1.419 . S
C671 H675 0.930 . S
C672 C671 1.369 1_554 S
C672 C681 1.429 . S
C673 C671 1.419 . S
C673 C674 1.363 . S
C673 H676 0.929 . S
C674 C673 1.363 . S
C674 C680 1.428 . S
H675 C671 0.930 . S
H676 C673 0.929 . S
S677 N678 1.613 . S
S677 N679 1.610 1_554 S
N678 S677 1.613 . S
N678 C681 1.350 . S
N679 S677 1.610 1_556 S
N679 C680 1.351 . S
C680 C674 1.428 . S
C680 N679 1.351 . S
C680 C681 1.434 1_556 S
C681 C672 1.429 . S
C681 N678 1.350 . S
C681 C680 1.434 1_554 S
C682 C683 1.369 . S
C682 C684 1.419 1_556 S
C682 H686 0.930 . S
C683 C682 1.369 . S
C683 C692 1.429 1_556 S
C684 C682 1.419 1_554 S
C684 C685 1.363 . S
C684 H687 0.929 . S
C685 C684 1.363 . S
C685 C691 1.428 . S
H686 C682 0.930 . S
H687 C684 0.929 . S
S688 N689 1.613 . S
S688 N690 1.610 . S
N689 S688 1.613 . S
N689 C692 1.350 . S
N690 S688 1.610 . S
N690 C691 1.351 . S
C691 C685 1.428 . S
C691 N690 1.351 . S
C691 C692 1.434 . S
C692 C683 1.429 1_554 S
C692 N689 1.350 . S
C692 C691 1.434 . S
C693 C694 1.369 . S
C693 C695 1.419 . S
C693 H697 0.930 . S
C694 C693 1.369 . S
C694 C703 1.429 . S
C695 C693 1.419 . S
C695 C696 1.363 1_556 S
C695 H698 0.929 . S
C696 C695 1.363 1_554 S
C696 C702 1.428 . S
H697 C693 0.930 . S
H698 C695 0.929 . S
S699 N700 1.613 1_554 S
S699 N701 1.610 . S
N700 S699 1.613 1_556 S
N700 C703 1.350 . S
N701 S699 1.610 . S
N701 C702 1.351 . S
C702 C696 1.428 . S
C702 N701 1.351 . S
C702 C703 1.434 1_554 S
C703 C694 1.429 . S
C703 N700 1.350 . S
C703 C702 1.434 1_556 S
C704 C705 1.369 . S
C704 C706 1.419 . S
C704 H708 0.930 . S
C705 C704 1.369 . S
C705 C714 1.429 . S
C706 C704 1.419 . S
C706 C707 1.363 . S
C706 H709 0.929 . S
C707 C706 1.363 . S
C707 C713 1.428 . S
H708 C704 0.930 . S
H709 C706 0.929 . S
S710 N711 1.613 . S
S710 N712 1.610 . S
N711 S710 1.613 . S
N711 C714 1.350 . S
N712 S710 1.610 . S
N712 C713 1.351 . S
C713 C707 1.428 . S
C713 N712 1.351 . S
C713 C714 1.434 . S
C714 C705 1.429 . S
C714 N711 1.350 . S
C714 C713 1.434 . S
C715 C716 1.369 . S
C715 C717 1.419 . S
C715 H719 0.930 . S
C716 C715 1.369 . S
C716 C725 1.429 . S
C717 C715 1.419 . S
C717 C718 1.363 . S
C717 H720 0.929 . S
C718 C717 1.363 . S
C718 C724 1.428 . S
H719 C715 0.930 . S
H720 C717 0.929 . S
S721 N722 1.613 . S
S721 N723 1.610 . S
N722 S721 1.613 . S
N722 C725 1.350 . S
N723 S721 1.610 . S
N723 C724 1.351 . S
C724 C718 1.428 . S
C724 N723 1.351 . S
C724 C725 1.434 . S
C725 C716 1.429 . S
C725 N722 1.350 . S
C725 C724 1.434 . S
C726 C727 1.369 . S
C726 C728 1.419 . S
C726 H730 0.930 . S
C727 C726 1.369 . S
C727 C736 1.429 . S
C728 C726 1.419 . S
C728 C729 1.363 . S
C728 H731 0.929 . S
C729 C728 1.363 . S
C729 C735 1.428 . S
H730 C726 0.930 . S
H731 C728 0.929 . S
S732 N733 1.613 . S
S732 N734 1.610 . S
N733 S732 1.613 . S
N733 C736 1.350 . S
N734 S732 1.610 . S
N734 C735 1.351 . S
C735 C729 1.428 . S
C735 N734 1.351 . S
C735 C736 1.434 . S
C736 C727 1.429 . S
C736 N733 1.350 . S
C736 C735 1.434 . S
C737 C738 1.369 . S
C737 C739 1.419 . S
C737 H741 0.930 . S
C738 C737 1.369 . S
C738 C747 1.429 . S
C739 C737 1.419 . S
C739 C740 1.363 . S
C739 H742 0.929 . S
C740 C739 1.363 . S
C740 C746 1.428 . S
H741 C737 0.930 . S
H742 C739 0.929 . S
S743 N744 1.613 . S
S743 N745 1.610 . S
N744 S743 1.613 . S
N744 C747 1.350 . S
N745 S743 1.610 . S
N745 C746 1.351 . S
C746 C740 1.428 . S
C746 N745 1.351 . S
C746 C747 1.434 . S
C747 C738 1.429 . S
C747 N744 1.350 . S
C747 C746 1.434 . S
C748 C749 1.369 . S
C748 C750 1.419 . S
C748 H752 0.930 . S
C749 C748 1.369 . S
C749 C758 1.429 . S
C750 C748 1.419 . S
C750 C751 1.363 . S
C750 H753 0.929 . S
C751 C750 1.363 . S
C751 C757 1.428 . S
H752 C748 0.930 . S
H753 C750 0.929 . S
S754 N755 1.613 . S
S754 N756 1.610 . S
N755 S754 1.613 . S
N755 C758 1.350 . S
N756 S754 1.610 . S
N756 C757 1.351 . S
C757 C751 1.428 . S
C757 N756 1.351 . S
C757 C758 1.434 . S
C758 C749 1.429 . S
C758 N755 1.350 . S
C758 C757 1.434 . S
C759 C760 1.369 . S
C759 C761 1.419 . S
C759 H763 0.930 . S
C760 C759 1.369 . S
C760 C769 1.429 . S
C761 C759 1.419 . S
C761 C762 1.363 . S
C761 H764 0.929 . S
C762 C761 1.363 . S
C762 C768 1.428 . S
H763 C759 0.930 . S
H764 C761 0.929 . S
S765 N766 1.613 . S
S765 N767 1.610 1_655 S
N766 S765 1.613 . S
N766 C769 1.350 1_655 S
N767 S765 1.610 1_455 S
N767 C768 1.351 . S
C768 C762 1.428 . S
C768 N767 1.351 . S
C768 C769 1.434 . S
C769 C760 1.429 . S
C769 N766 1.350 1_455 S
C769 C768 1.434 . S
C770 C771 1.369 . S
C770 C772 1.419 . S
C770 H774 0.930 . S
C771 C770 1.369 . S
C771 C780 1.429 . S
C772 C770 1.419 . S
C772 C773 1.363 . S
C772 H775 0.929 . S
C773 C772 1.363 . S
C773 C779 1.428 . S
H774 C770 0.930 . S
H775 C772 0.929 . S
S776 N777 1.613 1_545 S
S776 N778 1.610 . S
N777 S776 1.613 1_565 S
N777 C780 1.350 . S
N778 S776 1.610 . S
N778 C779 1.351 1_545 S
C779 C773 1.428 . S
C779 N778 1.351 1_565 S
C779 C780 1.434 . S
C780 C771 1.429 . S
C780 N777 1.350 . S
C780 C779 1.434 . S
C781 C782 1.369 . S
C781 C783 1.419 . S
C781 H785 0.930 . S
C782 C781 1.369 . S
C782 C791 1.429 . S
C783 C781 1.419 . S
C783 C784 1.363 . S
C783 H786 0.929 . S
C784 C783 1.363 . S
C784 C790 1.428 . S
H785 C781 0.930 . S
H786 C783 0.929 . S
S787 N788 1.613 1_455 S
S787 N789 1.610 1_455 S
N788 S787 1.613 1_655 S
N788 C791 1.350 . S
N789 S787 1.610 1_655 S
N789 C790 1.351 . S
C790 C784 1.428 . S
C790 N789 1.351 . S
C790 C791 1.434 . S
C791 C782 1.429 . S
C791 N788 1.350 . S
C791 C790 1.434 . S
C792 C793 1.369 1_556 S
C792 C794 1.419 . S
C792 H796 0.930 . S
C793 C792 1.369 1_554 S
C793 C802 1.429 1_565 S
C794 C792 1.419 . S
C794 C795 1.363 1_566 S
C794 H797 0.929 . S
C795 C794 1.363 1_544 S
C795 C801 1.428 . S
H796 C792 0.930 . S
H797 C794 0.929 . S
S798 N799 1.613 . S
S798 N800 1.610 . S
N799 S798 1.613 . S
N799 C802 1.350 . S
N800 S798 1.610 . S
N800 C801 1.351 . S
C801 C795 1.428 . S
C801 N800 1.351 . S
C801 C802 1.434 . S
C802 C793 1.429 1_545 S
C802 N799 1.350 . S
C802 C801 1.434 . S
C803 C804 1.369 1_655 S
C803 C805 1.419 . S
C803 H807 0.930 . S
C804 C803 1.369 1_455 S
C804 C813 1.429 1_556 S
C805 C803 1.419 . S
C805 C806 1.363 . S
C805 H808 0.929 . S
C806 C805 1.363 . S
C806 C812 1.428 1_656 S
H807 C803 0.930 . S
H808 C805 0.929 . S
S809 N810 1.613 . S
S809 N811 1.610 . S
N810 S809 1.613 . S
N810 C813 1.350 . S
N811 S809 1.610 . S
N811 C812 1.351 . S
C812 C806 1.428 1_454 S
C812 N811 1.351 . S
C812 C813 1.434 . S
C813 C804 1.429 1_554 S
C813 N810 1.350 . S
C813 C812 1.434 . S
C814 C815 1.369 . S
C814 C816 1.419 . S
C814 H818 0.930 . S
C815 C814 1.369 . S
C815 C824 1.429 . S
C816 C814 1.419 . S
C816 C817 1.363 . S
C816 H819 0.929 . S
C817 C816 1.363 . S
C817 C823 1.428 . S
H818 C814 0.930 . S
H819 C816 0.929 . S
S820 N821 1.613 . S
S820 N822 1.610 . S
N821 S820 1.613 . S
N821 C824 1.350 . S
N822 S820 1.610 . S
N822 C823 1.351 . S
C823 C817 1.428 . S
C823 N822 1.351 . S
C823 C824 1.434 . S
C824 C815 1.429 . S
C824 N821 1.350 . S
C824 C823 1.434 . S
C825 C826 1.369 . S
C825 C827 1.419 . S
C825 H829 0.930 . S
C826 C825 1.369 . S
C826 C835 1.429 . S
C827 C825 1.419 . S
C827 C828 1.363 . S
C827 H830 0.929 . S
C828 C827 1.363 . S
C828 C834 1.428 . S
H829 C825 0.930 . S
H830 C827 0.929 . S
S831 N832 1.613 . S
S831 N833 1.610 . S
N832 S831 1.613 . S
N832 C835 1.350 . S
N833 S831 1.610 . S
N833 C834 1.351 . S
C834 C828 1.428 . S
C834 N833 1.351 . S
C834 C835 1.434 . S
C835 C826 1.429 . S
C835 N832 1.350 . S
C835 C834 1.434 . S
C836 C837 1.369 . S
C836 C838 1.419 1_455 S
C836 H840 0.930 . S
C837 C836 1.369 . S
C837 C846 1.429 . S
C838 C836 1.419 1_655 S
C838 C839 1.363 . S
C838 H841 0.929 . S
C839 C838 1.363 . S
C839 C845 1.428 . S
H840 C836 0.930 . S
H841 C838 0.929 . S
S842 N843 1.613 1_655 S
S842 N844 1.610 . S
N843 S842 1.613 1_455 S
N843 C846 1.350 . S
N844 S842 1.610 . S
N844 C845 1.351 . S
C845 C839 1.428 . S
C845 N844 1.351 . S
C845 C846 1.434 1_655 S
C846 C837 1.429 . S
C846 N843 1.350 . S
C846 C845 1.434 1_455 S
C847 C848 1.369 . S
C847 C849 1.419 1_545 S
C847 H851 0.930 . S
C848 C847 1.369 . S
C848 C857 1.429 . S
C849 C847 1.419 1_565 S
C849 C850 1.363 . S
C849 H852 0.929 . S
C850 C849 1.363 . S
C850 C856 1.428 . S
H851 C847 0.930 . S
H852 C849 0.929 . S
S853 N854 1.613 1_565 S
S853 N855 1.610 . S
N854 S853 1.613 1_545 S
N854 C857 1.350 . S
N855 S853 1.610 . S
N855 C856 1.351 . S
C856 C850 1.428 . S
C856 N855 1.351 . S
C856 C857 1.434 1_565 S
C857 C848 1.429 . S
C857 N854 1.350 . S
C857 C856 1.434 1_545 S
C858 C859 1.369 1_565 S
C858 C860 1.419 1_455 S
C858 H862 0.930 . S
C859 C858 1.369 1_545 S
C859 C868 1.429 . S
C860 C858 1.419 1_655 S
C860 C861 1.363 . S
C860 H863 0.929 . S
C861 C860 1.363 . S
C861 C867 1.428 1_565 S
H862 C858 0.930 . S
H863 C860 0.929 . S
S864 N865 1.613 1_655 S
S864 N866 1.610 . S
N865 S864 1.613 1_455 S
N865 C868 1.350 . S
N866 S864 1.610 . S
N866 C867 1.351 . S
C867 C861 1.428 1_545 S
C867 N866 1.351 . S
C867 C868 1.434 1_655 S
C868 C859 1.429 . S
C868 N865 1.350 . S
C868 C867 1.434 1_455 S
C869 C870 1.369 1_455 S
C869 C871 1.419 1_545 S
C869 H873 0.930 . S
C870 C869 1.369 1_655 S
C870 C879 1.429 . S
C871 C869 1.419 1_565 S
C871 C872 1.363 . S
C871 H874 0.929 . S
C872 C871 1.363 . S
C872 C878 1.428 1_455 S
H873 C869 0.930 . S
H874 C871 0.929 . S
S875 N876 1.613 1_565 S
S875 N877 1.610 . S
N876 S875 1.613 1_545 S
N876 C879 1.350 . S
N877 S875 1.610 . S
N877 C878 1.351 . S
C878 C872 1.428 1_655 S
C878 N877 1.351 . S
C878 C879 1.434 1_565 S
C879 C870 1.429 . S
C879 N876 1.350 . S
C879 C878 1.434 1_545 S
C353 C348 1.905 . S
C355 C18 2.025 1_565 S
C364 C274 1.877 . S
C366 C40 2.018 1_655 S
C375 C62 2.028 1_545 S
C377 C294 1.914 . S
C386 C84 2.015 1_455 S
C388 C318 1.866 . S
C397 C98 2.026 . S
C399 C30 1.905 . S
C408 C118 2.021 . S
C410 C54 1.875 . S
C419 C142 2.028 . S
C421 C74 1.914 . S
C430 C10 1.877 . S
C432 C162 2.019 . S
C441 C184 2.031 . S
C443 C164 1.914 . S
C452 C216 2.021 . S
C454 C96 1.867 . S
C463 C238 2.031 . S
C465 C120 1.914 . S
C474 C260 2.016 . S
C476 C140 1.866 . S
C485 C282 2.031 1_545 S
C487 C206 1.906 . S
C496 C230 1.873 . S
C498 C304 2.022 1_455 S
C507 C250 1.913 . S
C509 C326 2.032 1_565 S
C518 C194 1.866 . S
C520 C340 2.020 1_655 S
C529 C106 1.235 . S
C531 C8 1.230 . S
C540 C32 1.224 . S
C542 C128 1.219 . S
C551 C150 1.224 . S
C553 C52 1.227 . S
C562 C76 1.212 . S
C564 C172 1.218 . S
C573 C272 1.235 . S
C575 C186 1.230 . S
C584 C296 1.223 . S
C586 C208 1.217 . S
C595 C316 1.226 . S
C597 C228 1.232 . S
C606 C338 1.223 . S
C608 C252 1.223 . S
C617 C7 1.253 . S
C619 C257 1.284 . S
C628 C191 1.301 . S
C630 C29 1.258 . S
C639 C51 1.256 . S
C641 C213 1.284 . S
C650 C73 1.256 . S
C652 C241 1.301 . S
C661 C117 1.283 . S
C663 C103 1.252 . S
C672 C139 1.292 . S
C674 C131 1.265 . S
C683 C161 1.284 . S
C685 C147 1.253 . S
C694 C175 1.262 . S
C696 C95 1.295 . S
C705 C197 1.254 . S
C707 C81 1.286 . S
C716 C21 1.300 . S
C718 C205 1.260 . S
C727 C37 1.282 . S
C729 C227 1.254 . S
C738 C65 1.301 . S
C740 C249 1.259 . S
C749 C301 1.292 . S
C751 C271 1.246 . S
C760 C293 1.255 . S
C762 C329 1.300 . S
C771 C351 1.292 . S
C773 C315 1.243 . S
C782 C345 1.260 . S
C784 C285 1.297 . S
C793 C59 0.674 . S
C795 C15 0.677 . S
C804 C43 0.664 . S
C806 C87 0.676 . S
C815 C109 0.672 . S
C817 C153 0.682 . S
C826 C169 0.668 . S
C828 C125 0.675 . S
C837 C235 0.678 . S
C839 C183 0.680 . S
C848 C219 0.664 . S
C850 C263 0.676 . S
C859 C323 0.680 . S
C861 C279 0.679 . S
C870 C307 0.664 . S
C872 C337 0.676 . S
