# Generated by pormake.
# Topology msp, (4)-cn, num edge types: 1
# Building blocks:
#     Node 0, Type 0, BuildingBlock: KOZSID_clean_sbu_0, # of connection points: 4
#     Node 1, Type 0, BuildingBlock: KOZSID_clean_sbu_0, # of connection points: 4
#     Node 2, Type 0, BuildingBlock: KOZSID_clean_sbu_0, # of connection points: 4
#     Node 3, Type 0, BuildingBlock: KOZSID_clean_sbu_0, # of connection points: 4
#     Node 4, Type 0, BuildingBlock: KOZSID_clean_sbu_0, # of connection points: 4
#     Node 5, Type 0, BuildingBlock: KOZSID_clean_sbu_0, # of connection points: 4
#     Node 6, Type 0, BuildingBlock: KOZSID_clean_sbu_0, # of connection points: 4
#     Node 7, Type 0, BuildingBlock: KOZSID_clean_sbu_0, # of connection points: 4
#     Edge 8, Type (0, 0), BuildingBlock: XIVTED_clean_linker_0, # of connection points: 2
#     Edge 9, Type (0, 0), BuildingBlock: XIVTED_clean_linker_0, # of connection points: 2
#     Edge 10, Type (0, 0), BuildingBlock: XIVTED_clean_linker_0, # of connection points: 2
#     Edge 11, Type (0, 0), BuildingBlock: XIVTED_clean_linker_0, # of connection points: 2
#     Edge 12, Type (0, 0), BuildingBlock: XIVTED_clean_linker_0, # of connection points: 2
#     Edge 13, Type (0, 0), BuildingBlock: XIVTED_clean_linker_0, # of connection points: 2
#     Edge 14, Type (0, 0), BuildingBlock: XIVTED_clean_linker_0, # of connection points: 2
#     Edge 15, Type (0, 0), BuildingBlock: XIVTED_clean_linker_0, # of connection points: 2
#     Edge 16, Type (0, 0), BuildingBlock: XIVTED_clean_linker_0, # of connection points: 2
#     Edge 17, Type (0, 0), BuildingBlock: XIVTED_clean_linker_0, # of connection points: 2
#     Edge 18, Type (0, 0), BuildingBlock: XIVTED_clean_linker_0, # of connection points: 2
#     Edge 19, Type (0, 0), BuildingBlock: XIVTED_clean_linker_0, # of connection points: 2
#     Edge 20, Type (0, 0), BuildingBlock: XIVTED_clean_linker_0, # of connection points: 2
#     Edge 21, Type (0, 0), BuildingBlock: XIVTED_clean_linker_0, # of connection points: 2
#     Edge 22, Type (0, 0), BuildingBlock: XIVTED_clean_linker_0, # of connection points: 2
#     Edge 23, Type (0, 0), BuildingBlock: XIVTED_clean_linker_0, # of connection points: 2
# Relax obj value: 0.072
# Max RMSD: 0.204
# Mean RMSD: 0.204
data_MOF--net-msp--node1-KOZSID_clean_sbu_0--edge1-XIVTED_clean_linker_0
_symmetry_space_group_name_H-M    P1
_symmetry_Int_Tables_number       1
_symmetry_cell_setting            triclinic
loop_
_symmetry_equiv_pos_as_xyz
'x, y, z'
_cell_length_a     25.468605
_cell_length_b     12.316085
_cell_length_c     57.10484
_cell_angle_alpha  89.993803
_cell_angle_beta   89.857141
_cell_angle_gamma 89.991759
loop_
_atom_site_label
_atom_site_type_symbol
_atom_site_fract_x
_atom_site_fract_y
_atom_site_fract_z
_atom_type_partial_charge
C0 C 0.97737 0.48894 0.40363 0.0
C1 C 0.96744 0.59861 0.40691 0.0
C2 C 0.98572 0.65059 0.38739 0.0
C3 C 0.00576 0.56997 0.37341 0.0
N4 N 0.99985 0.46945 0.38252 0.0
Co5 Co 0.02733 0.32951 0.36943 0.0
N6 N 0.06804 0.40771 0.34454 0.0
C7 C 0.06978 0.51627 0.34096 0.0
C8 C 0.1015 0.5464 0.32266 0.0
C9 C 0.12118 0.45145 0.314 0.0
C10 C 0.10014 0.36844 0.32756 0.0
N11 N 0.0539 0.18894 0.35615 0.0
C12 C 0.08608 0.17011 0.33761 0.0
C13 C 0.09321 0.05977 0.33381 0.0
C14 C 0.06427 0.00694 0.35045 0.0
C15 C 0.04115 0.0876 0.36342 0.0
N16 N 0.98817 0.2523 0.39497 0.0
C17 C 0.98384 0.14386 0.39821 0.0
C18 C 0.96012 0.11626 0.41898 0.0
C19 C 0.95046 0.21276 0.43002 0.0
C20 C 0.96881 0.29351 0.41524 0.0
N21 N 0.96522 0.3196 0.34805 0.0
C22 C 0.88317 0.29533 0.31503 0.0
C23 C 0.89573 0.21221 0.33062 0.0
C24 C 0.93597 0.22624 0.34689 0.0
C25 C 0.91095 0.3928 0.31685 0.0
C26 C 0.95157 0.40298 0.33328 0.0
N27 N 0.08849 0.33861 0.39077 0.0
C28 C 0.13962 0.25499 0.42141 0.0
C29 C 0.16006 0.35554 0.42826 0.0
C30 C 0.14685 0.44649 0.41471 0.0
C31 C 0.11143 0.43617 0.39606 0.0
C32 C 0.10482 0.24832 0.40267 0.0
H33 H 0.10157 0.50851 0.38666 0.0
H34 H 0.08964 0.16973 0.39883 0.0
H35 H 0.94273 0.15933 0.3581 0.0
H36 H 0.97169 0.47858 0.33339 0.0
C37 C 0.03959 0.58745 0.35449 0.0
C38 C 0.97139 0.40751 0.42194 0.0
C39 C 0.11055 0.2537 0.32311 0.0
C40 C 0.00904 0.07096 0.38307 0.0
H41 H 0.95158 0.63778 0.42233 0.0
H42 H 0.98814 0.73743 0.38465 0.0
H43 H 0.10888 0.62761 0.31619 0.0
H44 H 0.14748 0.44402 0.29917 0.0
H45 H 0.11689 0.02151 0.32037 0.0
H46 H 0.06075 0.92007 0.35288 0.0
H47 H 0.95385 0.03557 0.42596 0.0
H48 H 0.9342 0.2228 0.44742 0.0
H49 H 0.87444 0.13605 0.33034 0.0
H50 H 0.90248 0.45998 0.30521 0.0
H51 H 0.14797 0.18166 0.43116 0.0
H52 H 0.16276 0.52583 0.41871 0.0
C53 C 0.51154 0.55106 0.60887 0.0
C54 C 0.51555 0.66251 0.606 0.0
C55 C 0.49985 0.70832 0.62686 0.0
C56 C 0.487 0.62246 0.64118 0.0
N57 N 0.4941 0.52616 0.63062 0.0
Co58 Co 0.47672 0.3815 0.64364 0.0
N59 N 0.42777 0.44503 0.66691 0.0
C60 C 0.42696 0.54999 0.67363 0.0
C61 C 0.39054 0.57034 0.69081 0.0
C62 C 0.36763 0.4719 0.69544 0.0
C63 C 0.39139 0.39634 0.68073 0.0
N64 N 0.45991 0.23579 0.65641 0.0
C65 C 0.42065 0.20419 0.67096 0.0
C66 C 0.42416 0.09377 0.67572 0.0
C67 C 0.46797 0.05619 0.66429 0.0
C68 C 0.48863 0.14506 0.65308 0.0
N69 N 0.52588 0.31976 0.62032 0.0
C70 C 0.54876 0.22157 0.62107 0.0
C71 C 0.57812 0.20048 0.6013 0.0
C72 C 0.57279 0.29092 0.58734 0.0
C73 C 0.54039 0.3618 0.59943 0.0
N74 N 0.53422 0.39473 0.66638 0.0
C75 C 0.6168 0.40394 0.6991 0.0
C76 C 0.62386 0.44017 0.67593 0.0
C77 C 0.58226 0.43439 0.65986 0.0
C78 C 0.56701 0.36491 0.7054 0.0
C79 C 0.52656 0.36191 0.68901 0.0
N80 N 0.41959 0.36808 0.62096 0.0
C81 C 0.38134 0.27141 0.58862 0.0
C82 C 0.35056 0.36197 0.5827 0.0
C83 C 0.35254 0.45274 0.59757 0.0
C84 C 0.38719 0.45411 0.61655 0.0
C85 C 0.41518 0.27596 0.60779 0.0
H86 H 0.38936 0.52666 0.62706 0.0
H87 H 0.43987 0.20672 0.61117 0.0
H88 H 0.58906 0.46111 0.6421 0.0
H89 H 0.48921 0.33094 0.69472 0.0
C90 C 0.45656 0.62859 0.66162 0.0
C91 C 0.52452 0.46929 0.59111 0.0
C92 C 0.38352 0.27815 0.68269 0.0
C93 C 0.53073 0.14381 0.63712 0.0
H94 H 0.5274 0.70624 0.59045 0.0
H95 H 0.49481 0.79397 0.63048 0.0
H96 H 0.38128 0.64761 0.69886 0.0
H97 H 0.33799 0.45713 0.70866 0.0
H98 H 0.3985 0.04585 0.68677 0.0
H99 H 0.48242 0.97354 0.66389 0.0
H100 H 0.59784 0.12547 0.59678 0.0
H101 H 0.58973 0.30267 0.57012 0.0
H102 H 0.66119 0.4726 0.67013 0.0
H103 H 0.55926 0.33355 0.72277 0.0
H104 H 0.38199 0.19935 0.57779 0.0
H105 H 0.32844 0.52355 0.59436 0.0
C106 C 0.01482 0.70847 0.602 0.0
C107 C 0.03298 0.80345 0.59185 0.0
C108 C 0.02368 0.88496 0.60785 0.0
C109 C 1.00046 0.83494 0.62679 0.0
N110 N 0.99501 0.72751 0.6236 0.0
Co111 Co 0.96027 0.62395 0.64505 0.0
N112 N 0.92171 0.74201 0.66121 0.0
C113 C 0.93483 0.84808 0.66075 0.0
C114 C 0.90233 0.9109 0.67435 0.0
C115 C 0.86719 0.83973 0.68421 0.0
C116 C 0.8802 0.73685 0.67604 0.0
N117 N 0.92537 0.5189 0.66618 0.0
C118 C 0.8827 0.53174 0.68009 0.0
C119 C 0.8711 0.4359 0.69178 0.0
C120 C 0.90877 0.36188 0.68551 0.0
C121 C 0.941 0.41602 0.67017 0.0
N122 N 0.99991 0.50704 0.62905 0.0
C123 C 0.00942 0.40702 0.63744 0.0
C124 C 0.03595 0.34289 0.62168 0.0
C125 C 0.0432 0.40669 0.60221 0.0
C126 C 0.0208 0.50675 0.60726 0.0
N127 N 0.01765 0.6409 0.66759 0.0
C128 C 0.09834 0.68846 0.69943 0.0
C129 C 0.04616 0.67792 0.70696 0.0
C130 C 0.0067 0.65366 0.69088 0.0
C131 C 0.10935 0.67082 0.67562 0.0
C132 C 0.06857 0.64706 0.66004 0.0
N133 N 0.90318 0.60902 0.62241 0.0
C134 C 0.85683 0.50067 0.59409 0.0
C135 C 0.83774 0.5949 0.58322 0.0
C136 C 0.84808 0.69517 0.59381 0.0
C137 C 0.88114 0.70055 0.61315 0.0
C138 C 0.88904 0.50951 0.61387 0.0
H139 H 0.89122 0.77977 0.61968 0.0
H140 H 0.90494 0.43629 0.62141 0.0
H141 H 0.96702 0.64841 0.69731 0.0
H142 H 0.07808 0.6359 0.64177 0.0
C143 C 0.97285 0.88683 0.64491 0.0
C144 C 0.0188 0.60042 0.59141 0.0
C145 C 0.85645 0.6358 0.68485 0.0
C146 C 0.98166 0.36933 0.657 0.0
H147 H 0.05052 0.81258 0.57468 0.0
H148 H 0.03013 0.97104 0.60533 0.0
H149 H 0.9033 0.9982 0.67649 0.0
H150 H 0.83627 0.86086 0.69642 0.0
H151 H 0.83926 0.42171 0.70386 0.0
H152 H 0.91149 0.27801 0.69104 0.0
H153 H 0.04542 0.25758 0.62341 0.0
H154 H 0.06164 0.3807 0.58611 0.0
H155 H 0.03534 0.69164 0.72507 0.0
H156 H 0.14914 0.6757 0.66899 0.0
H157 H 0.84964 0.42122 0.58665 0.0
H158 H 0.83298 0.77002 0.58649 0.0
C159 C 0.48837 0.73278 0.40953 0.0
C160 C 0.46847 0.82178 0.42142 0.0
C161 C 0.47529 0.90977 0.40685 0.0
C162 C 0.49885 0.86928 0.38696 0.0
N163 N 0.50664 0.7616 0.38819 0.0
Co164 Co 0.54279 0.66965 0.36484 0.0
N165 N 0.57901 0.79662 0.3509 0.0
C166 C 0.56461 0.90124 0.35369 0.0
C167 C 0.59625 0.97191 0.34157 0.0
C168 C 0.63209 0.90769 0.33015 0.0
C169 C 0.62008 0.80073 0.33582 0.0
N170 N 0.57895 0.57591 0.34167 0.0
C171 C 0.62011 0.59802 0.32736 0.0
C172 C 0.6315 0.50923 0.31319 0.0
C173 C 0.59564 0.43004 0.31863 0.0
C174 C 0.56438 0.47438 0.33575 0.0
N175 N 0.50572 0.54421 0.37894 0.0
C176 C 0.49785 0.44689 0.36892 0.0
C177 C 0.47465 0.37417 0.38401 0.0
C178 C 0.46806 0.42939 0.40474 0.0
C179 C 0.48739 0.53334 0.40109 0.0
N180 N 0.48477 0.69096 0.34275 0.0
C181 C 0.40302 0.73294 0.31102 0.0
C182 C 0.45558 0.73424 0.30376 0.0
C183 C 0.49551 0.71278 0.31974 0.0
C184 C 0.3923 0.70886 0.33461 0.0
C185 C 0.43367 0.68796 0.35016 0.0
N186 N 0.60051 0.6492 0.38689 0.0
C187 C 0.65035 0.53001 0.41176 0.0
C188 C 0.66853 0.61895 0.42471 0.0
C189 C 0.65485 0.72357 0.41727 0.0
C190 C 0.62063 0.73687 0.39846 0.0
C191 C 0.61705 0.54703 0.39268 0.0
H192 H 0.60827 0.81802 0.39414 0.0
H193 H 0.60264 0.47715 0.38332 0.0
H194 H 0.53525 0.71566 0.31339 0.0
H195 H 0.42442 0.67025 0.36822 0.0
C196 C 0.52579 0.93045 0.37006 0.0
C197 C 0.48874 0.62131 0.41849 0.0
C198 C 0.64418 0.7058 0.32436 0.0
C199 C 0.52519 0.41959 0.34842 0.0
H200 H 0.45187 0.82296 0.43888 0.0
H201 H 0.46748 0.99399 0.411 0.0
H202 H 0.59419 0.05969 0.34138 0.0
H203 H 0.6627 0.93628 0.31851 0.0
H204 H 0.66152 0.50337 0.2998 0.0
H205 H 0.5931 0.34944 0.31116 0.0
H206 H 0.46735 0.28875 0.38097 0.0
H207 H 0.45233 0.3953 0.4207 0.0
H208 H 0.46619 0.75405 0.28589 0.0
H209 H 0.35229 0.70547 0.34103 0.0
H210 H 0.66083 0.44786 0.41665 0.0
H211 H 0.66772 0.7947 0.42682 0.0
C212 C 0.49243 0.01378 0.90181 0.0
C213 C 0.48255 0.12303 0.90555 0.0
C214 C 0.49521 0.17543 0.88502 0.0
C215 C 0.51195 0.09517 0.86998 0.0
N216 N 0.51016 0.99617 0.87982 0.0
Co217 Co 0.53338 0.85796 0.86554 0.0
N218 N 0.57745 0.93497 0.84218 0.0
C219 C 0.57333 0.04083 0.83643 0.0
C220 C 0.60803 0.07129 0.81922 0.0
C221 C 0.63501 0.97856 0.81354 0.0
C222 C 0.61503 0.89609 0.82758 0.0
N223 N 0.55612 0.71863 0.85133 0.0
C224 C 0.59544 0.69773 0.83595 0.0
C225 C 0.59595 0.5886 0.82975 0.0
C226 C 0.55496 0.5404 0.84138 0.0
C227 C 0.53173 0.62225 0.854 0.0
N228 N 0.48895 0.78233 0.88892 0.0
C229 C 0.47105 0.67992 0.88754 0.0
C230 C 0.44396 0.64908 0.9073 0.0
C231 C 0.44526 0.73765 0.92194 0.0
C232 C 0.47291 0.81799 0.91017 0.0
N233 N 0.47384 0.8631 0.84384 0.0
C234 C 0.38766 0.85826 0.81327 0.0
C235 C 0.38125 0.88709 0.83688 0.0
C236 C 0.42474 0.88913 0.85182 0.0
C237 C 0.43846 0.83476 0.80525 0.0
C238 C 0.48078 0.8378 0.82072 0.0
N239 N 0.59227 0.85298 0.88747 0.0
C240 C 0.63362 0.76223 0.91984 0.0
C241 C 0.65773 0.85933 0.92683 0.0
C242 C 0.65232 0.95047 0.91228 0.0
C243 C 0.61959 0.94544 0.89266 0.0
C244 C 0.60138 0.76065 0.90009 0.0
H245 H 0.61371 0.01848 0.88259 0.0
H246 H 0.58125 0.68621 0.89591 0.0
H247 H 0.4185 0.91028 0.86996 0.0
H248 H 0.51899 0.81743 0.81395 0.0
C249 C 0.54091 0.11111 0.84936 0.0
C250 C 0.48358 0.92765 0.91902 0.0
C251 C 0.62835 0.78061 0.82464 0.0
C252 C 0.49125 0.60947 0.87049 0.0
H253 H 0.46855 0.16059 0.92153 0.0
H254 H 0.4955 0.26221 0.88201 0.0
H255 H 0.61367 0.15156 0.81192 0.0
H256 H 0.66502 0.97187 0.80016 0.0
H257 H 0.62227 0.54862 0.81759 0.0
H258 H 0.54392 0.45555 0.84091 0.0
H259 H 0.42838 0.56945 0.91132 0.0
H260 H 0.42875 0.74105 0.93937 0.0
H261 H 0.34291 0.9075 0.84384 0.0
H262 H 0.44548 0.81064 0.78728 0.0
H263 H 0.63804 0.6886 0.93001 0.0
H264 H 0.67026 0.02731 0.91681 0.0
C265 C 0.01705 0.05072 0.10611 0.0
C266 C 0.02998 0.15843 0.10201 0.0
C267 C 0.01807 0.214 0.12222 0.0
C268 C 0.99843 0.13732 0.13741 0.0
N269 N 0.99764 0.03746 0.12796 0.0
Co270 Co 0.96974 0.90378 0.1427 0.0
N271 N 0.92688 0.98864 0.1652 0.0
C272 C 0.93401 0.09423 0.17055 0.0
C273 C 0.89999 0.13061 0.18748 0.0
C274 C 0.87015 0.04211 0.19339 0.0
C275 C 0.88765 0.95608 0.17966 0.0
N276 N 0.94285 0.76908 0.1575 0.0
C277 C 0.90225 0.7546 0.17254 0.0
C278 C 0.89765 0.6459 0.17877 0.0
C279 C 0.93774 0.59163 0.16778 0.0
C280 C 0.96437 0.66947 0.15533 0.0
N281 N 0.01251 0.82045 0.12002 0.0
C282 C 0.02745 0.71623 0.12186 0.0
C283 C 0.05419 0.68073 0.10233 0.0
C284 C 0.05568 0.76828 0.08736 0.0
C285 C 0.02966 0.85197 0.09867 0.0
N286 N 0.02843 0.90418 0.1649 0.0
C287 C 0.11263 0.89323 0.19651 0.0
C288 C 0.12119 0.91714 0.17277 0.0
C289 C 0.07865 0.92234 0.15729 0.0
C290 C 0.06082 0.87724 0.20407 0.0
C291 C 0.01956 0.8832 0.1881 0.0
N292 N 0.91152 0.90273 0.12035 0.0
C293 C 0.86338 0.80735 0.09053 0.0
C294 C 0.84249 0.90519 0.08223 0.0
C295 C 0.85426 0.001 0.09438 0.0
C296 C 0.88817 0.99773 0.11363 0.0
C297 C 0.89796 0.80795 0.10946 0.0
H298 H 0.89742 0.07286 0.12239 0.0
H299 H 0.91578 0.73218 0.11447 0.0
H300 H 0.08644 0.93979 0.13909 0.0
H301 H 0.98049 0.86872 0.19457 0.0
C302 C 0.9691 0.15882 0.15766 0.0
C303 C 0.02307 0.96168 0.08933 0.0
C304 C 0.87125 0.84267 0.18321 0.0
C305 C 0.00482 0.64993 0.1391 0.0
H306 H 0.04525 0.19372 0.08605 0.0
H307 H 0.02002 0.30093 0.12487 0.0
H308 H 0.89688 0.21189 0.19455 0.0
H309 H 0.84019 0.04043 0.20683 0.0
H310 H 0.86898 0.60982 0.19043 0.0
H311 H 0.94573 0.50534 0.1684 0.0
H312 H 0.06787 0.59921 0.09871 0.0
H313 H 0.0731 0.77019 0.07005 0.0
H314 H 0.16044 0.93161 0.16614 0.0
H315 H 0.05207 0.85694 0.22211 0.0
H316 H 0.85559 0.73146 0.0816 0.0
H317 H 0.83827 0.07817 0.08875 0.0
C318 C 0.51012 0.17445 0.1026 0.0
C319 C 0.531 0.26704 0.09236 0.0
C320 C 0.5245 0.34967 0.10832 0.0
C321 C 0.49985 0.30321 0.12729 0.0
N322 N 0.49085 0.19671 0.12417 0.0
Co323 Co 0.45273 0.09888 0.14587 0.0
N324 N 0.41813 0.22266 0.16182 0.0
C325 C 0.43405 0.32695 0.16088 0.0
C326 C 0.40341 0.39476 0.17422 0.0
C327 C 0.36651 0.32875 0.18444 0.0
C328 C 0.37681 0.22372 0.17681 0.0
N329 N 0.41528 0.99966 0.16752 0.0
C330 C 0.37445 0.01928 0.18216 0.0
C331 C 0.36223 0.92722 0.19514 0.0
C332 C 0.39709 0.84803 0.18855 0.0
C333 C 0.42865 0.89574 0.17197 0.0
N334 N 0.48755 0.97617 0.12983 0.0
C335 C 0.49405 0.87515 0.1382 0.0
C336 C 0.5177 0.80726 0.1222 0.0
C337 C 0.52618 0.86999 0.10261 0.0
C338 C 0.50708 0.97247 0.10785 0.0
N339 N 0.51125 0.10852 0.1681 0.0
C340 C 0.59493 0.14178 0.19921 0.0
C341 C 0.54282 0.14482 0.20707 0.0
C342 C 0.50175 0.12711 0.19135 0.0
C343 C 0.60431 0.11811 0.17555 0.0
C344 C 0.56202 0.10232 0.1603 0.0
N345 N 0.39486 0.09051 0.12342 0.0
C346 C 0.34394 0.98335 0.09644 0.0
C347 C 0.3334 0.07611 0.08299 0.0
C348 C 0.34928 0.17715 0.09171 0.0
C349 C 0.37934 0.18267 0.11205 0.0
C350 C 0.37504 0.99228 0.11659 0.0
H351 H 0.39317 0.26119 0.11758 0.0
H352 H 0.38604 0.91897 0.12567 0.0
H353 H 0.46222 0.13067 0.19803 0.0
H354 H 0.57039 0.08746 0.14204 0.0
C355 C 0.47345 0.35953 0.14512 0.0
C356 C 0.50892 0.06585 0.09203 0.0
C357 C 0.35076 0.12642 0.18629 0.0
C358 C 0.46677 0.84254 0.15835 0.0
H359 H 0.54806 0.2752 0.07511 0.0
H360 H 0.5333 0.43478 0.10567 0.0
H361 H 0.40683 0.48198 0.176 0.0
H362 H 0.33629 0.3546 0.19658 0.0
H363 H 0.33229 0.91917 0.20849 0.0
H364 H 0.3987 0.76525 0.19489 0.0
H365 H 0.52483 0.721 0.12395 0.0
H366 H 0.54356 0.84341 0.08627 0.0
H367 H 0.53375 0.16089 0.22529 0.0
H368 H 0.64398 0.11517 0.16871 0.0
H369 H 0.33205 0.90364 0.09047 0.0
H370 H 0.34063 0.2513 0.08226 0.0
C371 C 0.00266 0.22284 0.9072 0.0
C372 C 0.98908 0.31829 0.91852 0.0
C373 C 1.00025 0.4013 0.90314 0.0
C374 C 0.01989 0.35162 0.88338 0.0
N375 N 0.02133 0.24307 0.88548 0.0
Co376 Co 0.0496 0.13855 0.86243 0.0
N377 N 0.09134 0.25293 0.84664 0.0
C378 C 0.08297 0.36075 0.84847 0.0
C379 C 0.11699 0.42068 0.835 0.0
C380 C 0.14806 0.34594 0.82377 0.0
C381 C 0.13104 0.24395 0.83094 0.0
N382 N 0.07817 0.03247 0.8396 0.0
C383 C 0.1195 0.04137 0.82472 0.0
C384 C 0.12486 0.94804 0.81125 0.0
C385 C 0.08499 0.87944 0.81775 0.0
C386 C 0.05755 0.93429 0.83477 0.0
N387 N 0.00674 0.02566 0.87807 0.0
C388 C 0.99251 0.92944 0.86898 0.0
C389 C 0.96559 0.86622 0.88479 0.0
C390 C 0.96316 0.92652 0.90502 0.0
C391 C 0.98856 0.02386 0.90034 0.0
N392 N 0.9909 0.17047 0.84126 0.0
C393 C 0.9087 0.23547 0.81144 0.0
C394 C 0.95914 0.21332 0.80264 0.0
C395 C 0.99948 0.18217 0.81775 0.0
C396 C 0.90024 0.22041 0.83556 0.0
C397 C 0.94151 0.18683 0.85004 0.0
N398 N 0.10774 0.10819 0.88386 0.0
C399 C 0.15018 0.98419 0.91039 0.0
C400 C 0.17381 0.07113 0.92222 0.0
C401 C 0.16685 0.176 0.91323 0.0
C402 C 0.13363 0.19277 0.89417 0.0
C403 C 0.118 0.00434 0.891 0.0
H404 H 0.12636 0.27518 0.88878 0.0
H405 H 0.09908 0.93638 0.88263 0.0
H406 H 0.03789 0.16929 0.81035 0.0
H407 H 0.93369 0.17657 0.86849 0.0
C408 C 0.04807 0.4025 0.86532 0.0
C409 C 0.99582 0.11371 0.91692 0.0
C410 C 0.14988 0.14119 0.82078 0.0
C411 C 0.0165 0.89186 0.84841 0.0
H412 H 0.97343 0.3267 0.93606 0.0
H413 H 0.99744 0.48755 0.90656 0.0
H414 H 0.11977 0.50823 0.83388 0.0
H415 H 0.17905 0.36448 0.81141 0.0
H416 H 0.15365 0.9324 0.79769 0.0
H417 H 0.07745 0.79867 0.81109 0.0
H418 H 0.95281 0.78308 0.88252 0.0
H419 H 0.94592 0.89984 0.92133 0.0
H420 H 0.96785 0.21998 0.78414 0.0
H421 H 0.86243 0.23683 0.84347 0.0
H422 H 0.15532 0.90155 0.91645 0.0
H423 H 0.18401 0.24585 0.92181 0.0
H424 H 0.05651 0.36788 0.44909 0.0
H425 H 0.93734 0.65578 0.56344 0.0
H426 H 0.90329 0.51493 0.45123 0.0
H427 H 0.09199 0.51602 0.56075 0.0
H428 H 0.92552 0.61235 0.52184 0.0
H429 H 0.07116 0.42402 0.48973 0.0
C430 C 0.02605 0.41216 0.45822 0.0
C431 C 0.97898 0.43795 0.44688 0.0
C432 C 0.96197 0.59074 0.53034 0.0
C433 C 0.99492 0.50216 0.49333 0.0
C434 C 0.96864 0.61562 0.55402 0.0
C435 C 0.01473 0.58562 0.56565 0.0
C436 C 0.00202 0.53613 0.51815 0.0
C437 C 0.05498 0.53656 0.55261 0.0
C438 C 0.03433 0.44439 0.48137 0.0
C439 C 0.94033 0.49457 0.4594 0.0
N440 N 0.04754 0.5124 0.5296 0.0
N441 N 0.94914 0.52487 0.48197 0.0
H442 H 0.56783 0.68458 0.44725 0.0
H443 H 0.45341 0.38449 0.56097 0.0
H444 H 0.4196 0.5168 0.44821 0.0
H445 H 0.58559 0.60154 0.56331 0.0
H446 H 0.44335 0.42247 0.51913 0.0
H447 H 0.57799 0.64764 0.48916 0.0
C448 C 0.53771 0.63892 0.45628 0.0
C449 C 0.49381 0.60027 0.44408 0.0
C450 C 0.47445 0.46237 0.52874 0.0
C451 C 0.50445 0.55905 0.49216 0.0
C452 C 0.48006 0.4407 0.55262 0.0
C453 C 0.51952 0.49177 0.56562 0.0
C454 C 0.50931 0.53441 0.51763 0.0
C455 C 0.55394 0.56233 0.55394 0.0
C456 C 0.54336 0.61821 0.48021 0.0
C457 C 0.45513 0.54406 0.45672 0.0
N458 N 0.54809 0.58156 0.53058 0.0
N459 N 0.46146 0.52464 0.48002 0.0
H460 H 0.58402 0.11246 0.0587 0.0
H461 H 0.40352 0.92123 0.95134 0.0
H462 H 0.42997 0.97455 0.06723 0.0
H463 H 0.56798 0.99502 0.94404 0.0
H464 H 0.4099 0.95653 0.99352 0.0
H465 H 0.57728 0.08402 0.01623 0.0
C466 C 0.54837 0.07811 0.05154 0.0
C467 C 0.50658 0.04931 0.06629 0.0
C468 C 0.44477 0.96414 0.98274 0.0
C469 C 0.49885 0.01459 0.01799 0.0
C470 C 0.44113 0.94343 0.95874 0.0
C471 C 0.48575 0.95186 0.94446 0.0
C472 C 0.49328 0.99482 0.99244 0.0
C473 C 0.53305 0.98553 0.95463 0.0
C474 C 0.54467 0.061 0.02738 0.0
C475 C 0.46226 1.00059 0.05633 0.0
N476 N 0.53571 0.00533 0.97803 0.0
N477 N 0.45932 0.98542 0.03281 0.0
H478 H 0.94486 0.90162 0.06 0.0
H479 H 0.07911 0.15386 0.94514 0.0
H480 H 0.09485 0.06243 0.06073 0.0
H481 H 0.91981 0.03744 0.94711 0.0
H482 H 0.08736 0.11527 0.98707 0.0
H483 H 0.93698 0.94066 0.01807 0.0
C484 C 0.97602 0.94539 0.05123 0.0
C485 C 0.01997 0.98083 0.06375 0.0
C486 C 0.05067 0.09743 0.97834 0.0
C487 C 0.01187 0.02507 0.01586 0.0
C488 C 0.04605 0.11931 0.95444 0.0
C489 C 0.99943 0.0951 0.94257 0.0
C490 C 0.00807 0.05159 0.99051 0.0
C491 C 0.95714 0.05314 0.95545 0.0
C492 C 0.97159 0.96785 0.02735 0.0
C493 C 0.05989 0.03567 0.05166 0.0
N494 N 0.96256 0.032 0.97871 0.0
N495 N 0.05488 0.05633 0.02836 0.0
H496 H 0.68815 0.03204 0.20414 0.0
H497 H 0.80375 0.43417 0.30179 0.0
H498 H 0.60205 0.30612 0.23139 0.0
H499 H 0.86886 0.11804 0.28694 0.0
H500 H 0.73447 0.39949 0.27294 0.0
H501 H 0.75943 0.07204 0.23157 0.0
C502 C 0.6844 0.10096 0.2158 0.0
C503 C 0.63896 0.16548 0.21554 0.0
C504 C 0.76396 0.33778 0.27601 0.0
C505 C 0.72066 0.21263 0.24681 0.0
C506 C 0.80368 0.35784 0.29236 0.0
C507 C 0.84196 0.27855 0.29692 0.0
C508 C 0.76288 0.23829 0.26391 0.0
C509 C 0.83973 0.1808 0.28425 0.0
C510 C 0.72501 0.12362 0.2315 0.0
C511 C 0.63609 0.25346 0.23118 0.0
N512 N 0.80099 0.16356 0.26834 0.0
N513 N 0.6764 0.27469 0.24609 0.0
H514 H 0.61297 0.43075 0.74721 0.0
H515 H 0.91724 0.36061 0.77141 0.0
H516 H 0.72263 0.37067 0.69078 0.0
H517 H 0.80119 0.20268 0.81508 0.0
H518 H 0.84752 0.41539 0.74481 0.0
H519 H 0.68372 0.39993 0.77531 0.0
C520 C 0.65167 0.41106 0.7406 0.0
C521 C 0.66107 0.40081 0.71636 0.0
C522 C 0.83755 0.36886 0.76023 0.0
C523 C 0.74259 0.36921 0.7487 0.0
C524 C 0.8774 0.33643 0.77545 0.0
C525 C 0.8658 0.27463 0.79557 0.0
C526 C 0.78533 0.34186 0.76525 0.0
C527 C 0.81259 0.25066 0.80005 0.0
C528 C 0.69203 0.3941 0.75674 0.0
C529 C 0.71295 0.37968 0.70912 0.0
N530 N 0.77442 0.28436 0.78504 0.0
N531 N 0.75157 0.36417 0.72521 0.0
H532 H 0.18347 0.82197 0.69185 0.0
H533 H 0.28975 0.7768 0.82339 0.0
H534 H 0.10932 0.62829 0.74562 0.0
H535 H 0.38051 0.91358 0.76664 0.0
H536 H 0.21754 0.74467 0.79622 0.0
H537 H 0.25133 0.87409 0.71989 0.0
C538 C 0.18154 0.78961 0.70946 0.0
C539 C 0.14049 0.71996 0.71624 0.0
C540 C 0.25322 0.78197 0.78973 0.0
C541 C 0.21778 0.78134 0.74862 0.0
C542 C 0.29439 0.80134 0.8053 0.0
C543 C 0.3417 0.84705 0.79731 0.0
C544 C 0.25916 0.80867 0.76596 0.0
C545 C 0.34533 0.87588 0.77353 0.0
C546 C 0.22015 0.82022 0.72552 0.0
C547 C 0.13966 0.68306 0.73956 0.0
N548 N 0.30474 0.85593 0.75871 0.0
N549 N 0.17765 0.71408 0.75484 0.0
H550 H 0.39682 0.67466 0.26464 0.0
H551 H 0.1178 0.9556 0.24275 0.0
H552 H 0.31166 0.84858 0.31829 0.0
H553 H 0.20904 0.7996 0.18855 0.0
H554 H 0.1886 0.92047 0.27053 0.0
H555 H 0.32885 0.72259 0.23653 0.0
C556 C 0.36397 0.72337 0.27055 0.0
C557 C 0.36028 0.75776 0.29398 0.0
C558 C 0.19322 0.89424 0.25254 0.0
C559 C 0.28142 0.81174 0.26172 0.0
C560 C 0.1527 0.91403 0.23664 0.0
C561 C 0.15717 0.88022 0.2132 0.0
C562 C 0.23859 0.83943 0.24506 0.0
C563 C 0.20384 0.82826 0.20632 0.0
C564 C 0.32496 0.75036 0.25444 0.0
C565 C 0.31601 0.81891 0.30055 0.0
N566 N 0.24242 0.80877 0.22219 0.0
N567 N 0.27838 0.84387 0.28453 0.0
H568 H 0.37754 0.16884 0.23126 0.0
H569 H 0.08115 0.20019 0.27867 0.0
H570 H 0.2433 0.10949 0.18741 0.0
H571 H 0.21722 0.24008 0.32239 0.0
H572 H 0.13902 0.16311 0.24507 0.0
H573 H 0.31903 0.19065 0.26502 0.0
C574 C 0.33553 0.16083 0.22885 0.0
C575 C 0.31485 0.13905 0.20665 0.0
C576 C 0.15628 0.17882 0.26204 0.0
C577 C 0.24759 0.16351 0.24504 0.0
C578 C 0.12331 0.19976 0.28113 0.0
C579 C 0.14482 0.22262 0.30313 0.0
C580 C 0.21105 0.18064 0.26508 0.0
C581 C 0.19945 0.22223 0.30562 0.0
C582 C 0.30215 0.17295 0.24807 0.0
C583 C 0.26041 0.12776 0.20429 0.0
N584 N 0.23074 0.20179 0.2868 0.0
N585 N 0.2285 0.14079 0.22327 0.0
H586 H 0.41797 0.19947 0.72448 0.0
H587 H 0.25321 0.08033 0.81944 0.0
H588 H 0.27641 0.26937 0.68635 0.0
H589 H 0.12934 0.20859 0.77642 0.0
H590 H 0.31371 0.09515 0.78638 0.0
H591 H 0.36566 0.15039 0.75859 0.0
C592 C 0.37554 0.20214 0.72327 0.0
C593 C 0.35127 0.23698 0.70259 0.0
C594 C 0.2736 0.12076 0.78391 0.0
C595 C 0.29024 0.18201 0.74176 0.0
C596 C 0.23905 0.11188 0.80291 0.0
C597 C 0.18684 0.14533 0.80062 0.0
C598 C 0.25549 0.16314 0.76242 0.0
C599 C 0.16974 0.18362 0.77884 0.0
C600 C 0.34536 0.17412 0.74282 0.0
C601 C 0.2964 0.24173 0.70196 0.0
N602 N 0.20399 0.19195 0.76064 0.0
N603 N 0.26778 0.21514 0.72129 0.0
H604 H 0.73007 0.7095 0.825 0.0
H605 H 0.74933 0.65738 0.68486 0.0
H606 H 0.60094 0.77569 0.77864 0.0
H607 H 0.88233 0.63153 0.73092 0.0
H608 H 0.69176 0.68009 0.7192 0.0
H609 H 0.7844 0.65987 0.79097 0.0
C610 C 0.71338 0.71346 0.80759 0.0
C611 C 0.66157 0.74793 0.8044 0.0
C612 C 0.73352 0.66915 0.72182 0.0
C613 C 0.72278 0.69156 0.76553 0.0
C614 C 0.76616 0.65604 0.70226 0.0
C615 C 0.8203 0.64296 0.70526 0.0
C616 C 0.75546 0.6697 0.74443 0.0
C617 C 0.8406 0.64156 0.72804 0.0
C618 C 0.74418 0.68521 0.78821 0.0
C619 C 0.64112 0.7506 0.78163 0.0
N620 N 0.80822 0.65514 0.74676 0.0
N621 N 0.67184 0.72333 0.76303 0.0
H622 H 0.76483 0.86946 0.18656 0.0
H623 H 0.74878 0.65876 0.31969 0.0
H624 H 0.89951 0.76384 0.22592 0.0
H625 H 0.61688 0.79027 0.28212 0.0
H626 H 0.80426 0.68837 0.28495 0.0
H627 H 0.70903 0.83406 0.2209 0.0
C628 C 0.78237 0.83777 0.20242 0.0
C629 C 0.83639 0.81755 0.20343 0.0
C630 C 0.76325 0.71132 0.28432 0.0
C631 C 0.77348 0.77809 0.24275 0.0
C632 C 0.7318 0.69447 0.30411 0.0
C633 C 0.67873 0.72388 0.30371 0.0
C634 C 0.74121 0.7574 0.26402 0.0
C635 C 0.65798 0.76815 0.28309 0.0
C636 C 0.75073 0.81792 0.22201 0.0
C637 C 0.85773 0.77854 0.22444 0.0
N638 N 0.68927 0.78391 0.26408 0.0
N639 N 0.82623 0.75981 0.24325 0.0
H640 H 0.302 0.19121 0.55999 0.0
H641 H 0.16307 0.52507 0.45993 0.0
H642 H 0.32852 0.53687 0.55397 0.0
H643 H 0.22908 0.20705 0.44725 0.0
H644 H 0.20932 0.53082 0.49747 0.0
H645 H 0.25889 0.19396 0.5219 0.0
C646 C 0.29902 0.26777 0.55079 0.0
C647 C 0.31965 0.36384 0.56042 0.0
C648 C 0.21369 0.46028 0.48631 0.0
C649 C 0.26852 0.36734 0.51692 0.0
C650 C 0.18772 0.45708 0.46474 0.0
C651 C 0.19173 0.3651 0.4502 0.0
C652 C 0.24299 0.37011 0.49365 0.0
C653 C 0.22348 0.27868 0.45792 0.0
C654 C 0.27411 0.26907 0.52905 0.0
C655 C 0.31271 0.46084 0.54767 0.0
N656 N 0.24728 0.2828 0.47918 0.0
N657 N 0.28757 0.46017 0.52665 0.0
H658 H 0.76618 0.44596 0.56596 0.0
H659 H 0.75485 0.73089 0.43974 0.0
H660 H 0.85251 0.73418 0.5466 0.0
H661 H 0.64899 0.4742 0.4602 0.0
H662 H 0.79719 0.71874 0.47793 0.0
H663 H 0.7278 0.44215 0.52653 0.0
C664 C 0.77713 0.50823 0.55348 0.0
C665 C 0.81233 0.59105 0.55976 0.0
C666 C 0.76485 0.66458 0.47408 0.0
C667 C 0.76899 0.58665 0.51466 0.0
C668 C 0.74071 0.67153 0.45226 0.0
C669 C 0.69824 0.60377 0.4468 0.0
C670 C 0.74632 0.58966 0.49073 0.0
C671 C 0.68198 0.52727 0.4636 0.0
C672 C 0.75515 0.50612 0.53101 0.0
C673 C 0.8248 0.66993 0.54286 0.0
N674 N 0.7058 0.52276 0.48489 0.0
N675 N 0.80333 0.66554 0.52118 0.0
H676 H 0.85445 0.04298 0.04495 0.0
H677 H 0.62904 0.76381 0.9683 0.0
H678 H 0.76242 0.77037 0.06875 0.0
H679 H 0.74661 0.97599 0.9386 0.0
H680 H 0.67186 0.77924 0.00627 0.0
H681 H 0.80907 0.03531 0.00717 0.0
C682 C 0.82413 0.98254 0.04234 0.0
C683 C 0.81208 0.90732 0.06004 0.0
C684 C 0.68847 0.82205 0.99143 0.0
C685 C 0.76023 0.89766 0.01682 0.0
C686 C 0.66429 0.81256 0.96963 0.0
C687 C 0.6846 0.8673 0.94998 0.0
C688 C 0.73321 0.88757 0.99385 0.0
C689 C 0.72936 0.93246 0.95318 0.0
C690 C 0.79859 0.9776 0.02071 0.0
C691 C 0.77311 0.82952 0.05555 0.0
N692 N 0.75216 0.9407 0.97466 0.0
N693 N 0.74855 0.82685 0.03443 0.0
H694 H 0.36866 0.17708 0.04354 0.0
H695 H 0.14468 0.94235 0.9593 0.0
H696 H 0.24977 0.95308 0.06732 0.0
H697 H 0.26534 0.16595 0.93714 0.0
H698 H 0.18512 0.93456 0.99815 0.0
H699 H 0.33358 0.1649 1.00399 0.0
C700 C 0.3347 0.12612 0.04048 0.0
C701 C 0.31151 0.06757 0.0589 0.0
C702 C 0.20306 0.98441 0.98472 0.0
C703 C 0.2712 0.05223 0.01333 0.0
C704 C 0.18025 0.98822 0.96245 0.0
C705 C 0.20157 0.05515 0.9449 0.0
C706 C 0.24772 0.04762 0.98947 0.0
C707 C 0.24717 0.11426 0.95017 0.0
C708 C 0.3149 0.11852 0.0178 0.0
C709 C 0.26866 1.00004 0.05367 0.0
N710 N 0.2685 0.1094 0.97195 0.0
N711 N 0.24961 0.99485 0.0314 0.0
loop_
_geom_bond_atom_site_label_1
_geom_bond_atom_site_label_2
_geom_bond_distance
_geom_bond_site_symmetry_2
_ccdc_geom_bond_type
C0 C1 1.443 . S
C0 N4 1.376 . S
C0 C38 1.389 1_455 S
C1 C0 1.443 . S
C1 C2 1.340 . S
C1 H41 0.951 . S
C2 C1 1.340 . S
C2 C3 1.439 . S
C2 H42 0.950 . S
C3 C2 1.439 . S
C3 N4 1.374 . S
C3 C37 1.395 . S
N4 C0 1.376 . S
N4 C3 1.374 . S
N4 Co5 2.008 . S
Co5 N4 2.008 . S
Co5 N6 1.995 . S
Co5 N11 2.008 . S
Co5 N16 1.995 . S
Co5 N21 2.282 1_455 S
Co5 N27 2.282 . S
N6 Co5 1.995 . S
N6 C7 1.376 . S
N6 C10 1.383 . S
C7 N6 1.376 . S
C7 C8 1.446 . S
C7 C37 1.391 . S
C8 C7 1.446 . S
C8 C9 1.339 . S
C8 H43 0.949 . S
C9 C8 1.339 . S
C9 C10 1.439 . S
C9 H44 0.950 . S
C10 N6 1.383 . S
C10 C9 1.439 . S
C10 C39 1.392 . S
N11 Co5 2.008 . S
N11 C12 1.376 . S
N11 C15 1.374 1_545 S
C12 N11 1.376 . S
C12 C13 1.443 1_545 S
C12 C39 1.389 . S
C13 C12 1.443 1_565 S
C13 C14 1.340 . S
C13 H45 0.951 . S
C14 C13 1.340 . S
C14 C15 1.439 . S
C14 H46 0.950 . S
C15 N11 1.374 1_565 S
C15 C14 1.439 . S
C15 C40 1.395 . S
N16 Co5 1.995 . S
N16 C17 1.376 1_445 S
N16 C20 1.383 1_455 S
C17 N16 1.376 1_665 S
C17 C18 1.446 . S
C17 C40 1.391 1_655 S
C18 C17 1.446 . S
C18 C19 1.339 1_565 S
C18 H47 0.949 . S
C19 C18 1.339 1_545 S
C19 C20 1.439 . S
C19 H48 0.950 . S
C20 N16 1.383 1_655 S
C20 C19 1.439 . S
C20 C38 1.392 . S
N21 Co5 2.282 1_655 S
N21 C24 1.332 . S
N21 C26 1.332 . S
C22 C23 1.386 . S
C22 C25 1.388 . S
C23 C22 1.386 . S
C23 C24 1.382 . S
C23 H49 0.950 . S
C24 N21 1.332 . S
C24 C23 1.382 . S
C24 H35 0.952 . S
C25 C22 1.388 . S
C25 C26 1.382 . S
C25 H50 0.950 . S
C26 N21 1.332 . S
C26 C25 1.382 . S
C26 H36 0.948 1_655 S
N27 Co5 2.282 . S
N27 C31 1.332 . S
N27 C32 1.332 . S
C28 C29 1.388 . S
C28 C32 1.382 . S
C28 H51 0.950 . S
C29 C28 1.388 . S
C29 C30 1.386 . S
C30 C29 1.386 . S
C30 C31 1.382 . S
C30 H52 0.950 . S
C31 N27 1.332 . S
C31 C30 1.382 . S
C31 H33 0.952 . S
C32 N27 1.332 . S
C32 C28 1.382 . S
C32 H34 0.948 . S
H33 C31 0.952 . S
H34 C32 0.948 . S
H35 C24 0.952 . S
H36 C26 0.948 1_455 S
C37 C3 1.395 . S
C37 C7 1.391 . S
C38 C0 1.389 1_655 S
C38 C20 1.392 . S
C39 C10 1.392 . S
C39 C12 1.389 . S
C40 C15 1.395 . S
C40 C17 1.391 1_455 S
H41 C1 0.951 . S
H42 C2 0.950 . S
H43 C8 0.949 . S
H44 C9 0.950 . S
H45 C13 0.951 . S
H46 C14 0.950 . S
H47 C18 0.949 . S
H48 C19 0.950 . S
H49 C23 0.950 . S
H50 C25 0.950 . S
H51 C28 0.950 . S
H52 C30 0.950 . S
C53 C54 1.443 . S
C53 N57 1.376 . S
C53 C91 1.389 . S
C54 C53 1.443 . S
C54 C55 1.340 . S
C54 H94 0.951 . S
C55 C54 1.340 . S
C55 C56 1.439 . S
C55 H95 0.950 . S
C56 C55 1.439 . S
C56 N57 1.374 . S
C56 C90 1.395 . S
N57 C53 1.376 . S
N57 C56 1.374 . S
N57 Co58 2.008 . S
Co58 N57 2.008 . S
Co58 N59 1.995 . S
Co58 N64 2.008 . S
Co58 N69 1.995 . S
Co58 N74 2.282 . S
Co58 N80 2.282 . S
N59 Co58 1.995 . S
N59 C60 1.376 . S
N59 C63 1.383 . S
C60 N59 1.376 . S
C60 C61 1.446 . S
C60 C90 1.391 . S
C61 C60 1.446 . S
C61 C62 1.339 . S
C61 H96 0.949 . S
C62 C61 1.339 . S
C62 C63 1.439 . S
C62 H97 0.950 . S
C63 N59 1.383 . S
C63 C62 1.439 . S
C63 C92 1.392 . S
N64 Co58 2.008 . S
N64 C65 1.376 . S
N64 C68 1.374 1_545 S
C65 N64 1.376 . S
C65 C66 1.443 1_545 S
C65 C92 1.389 . S
C66 C65 1.443 1_565 S
C66 C67 1.340 . S
C66 H98 0.951 . S
C67 C66 1.340 . S
C67 C68 1.439 . S
C67 H99 0.950 . S
C68 N64 1.374 1_565 S
C68 C67 1.439 . S
C68 C93 1.395 . S
N69 Co58 1.995 . S
N69 C70 1.375 . S
N69 C73 1.383 . S
C70 N69 1.375 . S
C70 C71 1.447 1_545 S
C70 C93 1.392 1_545 S
C71 C70 1.447 1_565 S
C71 C72 1.339 1_565 S
C71 H100 0.949 . S
C72 C71 1.339 1_545 S
C72 C73 1.439 . S
C72 H101 0.950 . S
C73 N69 1.383 . S
C73 C72 1.439 . S
C73 C91 1.392 . S
N74 Co58 2.282 . S
N74 C77 1.332 . S
N74 C79 1.332 . S
C75 C76 1.386 . S
C75 C78 1.388 . S
C76 C75 1.386 . S
C76 C77 1.382 . S
C76 H102 0.950 . S
C77 N74 1.332 . S
C77 C76 1.382 . S
C77 H88 0.952 . S
C78 C75 1.388 . S
C78 C79 1.382 . S
C78 H103 0.950 . S
C79 N74 1.332 . S
C79 C78 1.382 . S
C79 H89 0.948 . S
N80 Co58 2.282 . S
N80 C84 1.332 . S
N80 C85 1.332 . S
C81 C82 1.388 . S
C81 C85 1.382 . S
C81 H104 0.950 . S
C82 C81 1.388 . S
C82 C83 1.386 . S
C83 C82 1.386 . S
C83 C84 1.382 . S
C83 H105 0.950 . S
C84 N80 1.332 . S
C84 C83 1.382 . S
C84 H86 0.952 . S
C85 N80 1.332 . S
C85 C81 1.382 . S
C85 H87 0.948 . S
H86 C84 0.952 . S
H87 C85 0.948 . S
H88 C77 0.952 . S
H89 C79 0.948 . S
C90 C56 1.395 . S
C90 C60 1.391 . S
C91 C53 1.389 . S
C91 C73 1.392 . S
C92 C63 1.392 . S
C92 C65 1.389 . S
C93 C68 1.395 . S
C93 C70 1.392 1_565 S
H94 C54 0.951 . S
H95 C55 0.950 . S
H96 C61 0.949 . S
H97 C62 0.950 . S
H98 C66 0.951 . S
H99 C67 0.950 . S
H100 C71 0.949 . S
H101 C72 0.950 . S
H102 C76 0.950 . S
H103 C78 0.950 . S
H104 C81 0.950 . S
H105 C83 0.950 . S
C106 C107 1.443 . S
C106 N110 1.376 1_455 S
C106 C144 1.389 . S
C107 C106 1.443 . S
C107 C108 1.340 1_565 S
C107 H147 0.951 . S
C108 C107 1.340 1_545 S
C108 C109 1.439 1_455 S
C108 H148 0.950 . S
C109 C108 1.439 1_655 S
C109 N110 1.374 1_545 S
C109 C143 1.395 . S
N110 C106 1.376 1_655 S
N110 C109 1.374 1_565 S
N110 Co111 2.008 . S
Co111 N110 2.008 . S
Co111 N112 1.995 . S
Co111 N117 2.008 . S
Co111 N122 1.995 . S
Co111 N127 2.282 1_655 S
Co111 N133 2.282 . S
N112 Co111 1.995 . S
N112 C113 1.376 1_565 S
N112 C116 1.383 . S
C113 N112 1.376 1_545 S
C113 C114 1.446 . S
C113 C143 1.391 . S
C114 C113 1.446 . S
C114 C115 1.339 . S
C114 H149 0.949 . S
C115 C114 1.339 . S
C115 C116 1.439 1_545 S
C115 H150 0.950 . S
C116 N112 1.383 . S
C116 C115 1.439 1_565 S
C116 C145 1.392 . S
N117 Co111 2.008 . S
N117 C118 1.376 . S
N117 C121 1.374 . S
C118 N117 1.376 . S
C118 C119 1.443 . S
C118 C145 1.389 . S
C119 C118 1.443 . S
C119 C120 1.340 . S
C119 H151 0.951 . S
C120 C119 1.340 . S
C120 C121 1.439 . S
C120 H152 0.950 . S
C121 N117 1.374 . S
C121 C120 1.439 . S
C121 C146 1.395 . S
N122 Co111 1.995 . S
N122 C123 1.376 . S
N122 C126 1.383 . S
C123 N122 1.376 . S
C123 C124 1.446 . S
C123 C146 1.391 . S
C124 C123 1.446 . S
C124 C125 1.339 . S
C124 H153 0.949 . S
C125 C124 1.339 . S
C125 C126 1.439 . S
C125 H154 0.949 1_655 S
C126 N122 1.383 . S
C126 C125 1.439 . S
C126 C144 1.392 1_655 S
N127 Co111 2.282 1_455 S
N127 C130 1.332 . S
N127 C132 1.332 . S
C128 C129 1.386 . S
C128 C131 1.388 . S
C129 C128 1.386 . S
C129 C130 1.382 . S
C129 H155 0.950 . S
C130 N127 1.332 . S
C130 C129 1.382 . S
C130 H141 0.952 . S
C131 C128 1.388 . S
C131 C132 1.382 . S
C131 H156 0.950 . S
C132 N127 1.332 . S
C132 C131 1.382 . S
C132 H142 0.948 . S
N133 Co111 2.282 . S
N133 C137 1.332 . S
N133 C138 1.332 . S
C134 C135 1.388 . S
C134 C138 1.382 . S
C134 H157 0.950 . S
C135 C134 1.388 . S
C135 C136 1.386 . S
C136 C135 1.386 . S
C136 C137 1.382 . S
C136 H158 0.950 . S
C137 N133 1.332 . S
C137 C136 1.382 . S
C137 H139 0.952 . S
C138 N133 1.332 . S
C138 C134 1.382 . S
C138 H140 0.948 . S
H139 C137 0.952 . S
H140 C138 0.948 . S
H141 C130 0.952 . S
H142 C132 0.948 . S
C143 C109 1.395 . S
C143 C113 1.391 . S
C144 C106 1.389 . S
C144 C126 1.392 1_455 S
C145 C116 1.392 . S
C145 C118 1.389 . S
C146 C121 1.395 . S
C146 C123 1.391 . S
H147 C107 0.951 . S
H148 C108 0.950 . S
H149 C114 0.949 . S
H150 C115 0.950 . S
H151 C119 0.951 . S
H152 C120 0.950 . S
H153 C124 0.949 . S
H154 C125 0.949 1_455 S
H155 C129 0.950 . S
H156 C131 0.950 . S
H157 C134 0.950 . S
H158 C136 0.950 . S
C159 C160 1.443 . S
C159 N163 1.376 . S
C159 C197 1.389 . S
C160 C159 1.443 . S
C160 C161 1.340 1_565 S
C160 H200 0.951 . S
C161 C160 1.340 1_545 S
C161 C162 1.439 . S
C161 H201 0.950 . S
C162 C161 1.439 . S
C162 N163 1.374 1_545 S
C162 C196 1.395 . S
N163 C159 1.376 . S
N163 C162 1.374 1_565 S
N163 Co164 2.008 . S
Co164 N163 2.008 . S
Co164 N165 1.995 . S
Co164 N170 2.008 . S
Co164 N175 1.995 . S
Co164 N180 2.282 . S
Co164 N186 2.282 . S
N165 Co164 1.995 . S
N165 C166 1.376 1_565 S
N165 C169 1.383 . S
C166 N165 1.376 1_545 S
C166 C167 1.446 . S
C166 C196 1.391 . S
C167 C166 1.446 . S
C167 C168 1.339 . S
C167 H202 0.949 . S
C168 C167 1.339 . S
C168 C169 1.439 1_545 S
C168 H203 0.950 . S
C169 N165 1.383 . S
C169 C168 1.439 1_565 S
C169 C198 1.392 . S
N170 Co164 2.008 . S
N170 C171 1.376 . S
N170 C174 1.374 . S
C171 N170 1.376 . S
C171 C172 1.443 . S
C171 C198 1.389 . S
C172 C171 1.443 . S
C172 C173 1.340 . S
C172 H204 0.951 . S
C173 C172 1.340 . S
C173 C174 1.439 . S
C173 H205 0.950 . S
C174 N170 1.374 . S
C174 C173 1.439 . S
C174 C199 1.395 . S
N175 Co164 1.995 . S
N175 C176 1.376 . S
N175 C179 1.383 . S
C176 N175 1.376 . S
C176 C177 1.446 . S
C176 C199 1.391 . S
C177 C176 1.446 . S
C177 C178 1.339 . S
C177 H206 0.949 . S
C178 C177 1.339 . S
C178 C179 1.439 . S
C178 H207 0.950 . S
C179 N175 1.383 . S
C179 C178 1.439 . S
C179 C197 1.392 . S
N180 Co164 2.282 . S
N180 C183 1.332 . S
N180 C185 1.332 . S
C181 C182 1.386 . S
C181 C184 1.388 . S
C182 C181 1.386 . S
C182 C183 1.382 . S
C182 H208 0.950 . S
C183 N180 1.332 . S
C183 C182 1.382 . S
C183 H194 0.952 . S
C184 C181 1.388 . S
C184 C185 1.382 . S
C184 H209 0.950 . S
C185 N180 1.332 . S
C185 C184 1.382 . S
C185 H195 0.948 . S
N186 Co164 2.282 . S
N186 C190 1.332 . S
N186 C191 1.332 . S
C187 C188 1.388 . S
C187 C191 1.382 . S
C187 H210 0.950 . S
C188 C187 1.388 . S
C188 C189 1.386 . S
C189 C188 1.386 . S
C189 C190 1.382 . S
C189 H211 0.950 . S
C190 N186 1.332 . S
C190 C189 1.382 . S
C190 H192 0.952 . S
C191 N186 1.332 . S
C191 C187 1.382 . S
C191 H193 0.948 . S
H192 C190 0.952 . S
H193 C191 0.948 . S
H194 C183 0.952 . S
H195 C185 0.948 . S
C196 C162 1.395 . S
C196 C166 1.391 . S
C197 C159 1.389 . S
C197 C179 1.392 . S
C198 C169 1.392 . S
C198 C171 1.389 . S
C199 C174 1.395 . S
C199 C176 1.391 . S
H200 C160 0.951 . S
H201 C161 0.950 . S
H202 C167 0.949 . S
H203 C168 0.950 . S
H204 C172 0.951 . S
H205 C173 0.950 . S
H206 C177 0.949 . S
H207 C178 0.950 . S
H208 C182 0.950 . S
H209 C184 0.950 . S
H210 C187 0.950 . S
H211 C189 0.950 . S
C212 C213 1.443 . S
C212 N216 1.376 . S
C212 C250 1.389 . S
C213 C212 1.443 . S
C213 C214 1.340 1_565 S
C213 H253 0.951 . S
C214 C213 1.340 1_545 S
C214 C215 1.439 1_545 S
C214 H254 0.950 . S
C215 C214 1.439 1_565 S
C215 N216 1.374 . S
C215 C249 1.395 . S
N216 C212 1.376 . S
N216 C215 1.374 . S
N216 Co217 2.008 . S
Co217 N216 2.008 . S
Co217 N218 1.995 . S
Co217 N223 2.008 . S
Co217 N228 1.995 . S
Co217 N233 2.282 . S
Co217 N239 2.282 . S
N218 Co217 1.995 . S
N218 C219 1.376 . S
N218 C222 1.383 . S
C219 N218 1.376 . S
C219 C220 1.446 . S
C219 C249 1.391 . S
C220 C219 1.446 . S
C220 C221 1.339 . S
C220 H255 0.949 . S
C221 C220 1.339 . S
C221 C222 1.439 . S
C221 H256 0.950 . S
C222 N218 1.383 . S
C222 C221 1.439 . S
C222 C251 1.392 . S
N223 Co217 2.008 . S
N223 C224 1.376 . S
N223 C227 1.374 . S
C224 N223 1.376 . S
C224 C225 1.443 . S
C224 C251 1.389 . S
C225 C224 1.443 . S
C225 C226 1.340 . S
C225 H257 0.951 . S
C226 C225 1.340 . S
C226 C227 1.439 . S
C226 H258 0.950 . S
C227 N223 1.374 . S
C227 C226 1.439 . S
C227 C252 1.395 . S
N228 Co217 1.995 . S
N228 C229 1.376 . S
N228 C232 1.383 . S
C229 N228 1.376 . S
C229 C230 1.446 . S
C229 C252 1.391 . S
C230 C229 1.446 . S
C230 C231 1.339 . S
C230 H259 0.949 . S
C231 C230 1.339 . S
C231 C232 1.439 . S
C231 H260 0.950 . S
C232 N228 1.383 . S
C232 C231 1.439 . S
C232 C250 1.392 . S
N233 Co217 2.282 . S
N233 C236 1.332 . S
N233 C238 1.332 . S
C234 C235 1.386 . S
C234 C237 1.388 . S
C235 C234 1.386 . S
C235 C236 1.382 . S
C235 H261 0.950 . S
C236 N233 1.332 . S
C236 C235 1.382 . S
C236 H247 0.952 . S
C237 C234 1.388 . S
C237 C238 1.382 . S
C237 H262 0.950 . S
C238 N233 1.332 . S
C238 C237 1.382 . S
C238 H248 0.948 . S
N239 Co217 2.282 . S
N239 C243 1.332 . S
N239 C244 1.332 . S
C240 C241 1.388 . S
C240 C244 1.382 . S
C240 H263 0.950 . S
C241 C240 1.388 . S
C241 C242 1.386 . S
C242 C241 1.386 . S
C242 C243 1.382 . S
C242 H264 0.950 . S
C243 N239 1.332 . S
C243 C242 1.382 . S
C243 H245 0.952 . S
C244 N239 1.332 . S
C244 C240 1.382 . S
C244 H246 0.948 . S
H245 C243 0.952 . S
H246 C244 0.948 . S
H247 C236 0.952 . S
H248 C238 0.948 . S
C249 C215 1.395 . S
C249 C219 1.391 . S
C250 C212 1.389 . S
C250 C232 1.392 . S
C251 C222 1.392 . S
C251 C224 1.389 . S
C252 C227 1.395 . S
C252 C229 1.391 . S
H253 C213 0.951 . S
H254 C214 0.950 . S
H255 C220 0.949 . S
H256 C221 0.950 . S
H257 C225 0.951 . S
H258 C226 0.950 . S
H259 C230 0.949 . S
H260 C231 0.950 . S
H261 C235 0.950 . S
H262 C237 0.950 . S
H263 C240 0.950 . S
H264 C242 0.950 . S
C265 C266 1.443 . S
C265 N269 1.376 . S
C265 C303 1.389 1_655 S
C266 C265 1.443 . S
C266 C267 1.340 1_565 S
C266 H306 0.951 . S
C267 C266 1.340 1_545 S
C267 C268 1.439 1_545 S
C267 H307 0.950 . S
C268 C267 1.439 1_565 S
C268 N269 1.374 . S
C268 C302 1.395 . S
N269 C265 1.376 . S
N269 C268 1.374 . S
N269 Co270 2.008 . S
Co270 N269 2.008 . S
Co270 N271 1.995 . S
Co270 N276 2.008 . S
Co270 N281 1.995 . S
Co270 N286 2.282 1_655 S
Co270 N292 2.282 . S
N271 Co270 1.995 . S
N271 C272 1.376 . S
N271 C275 1.383 . S
C272 N271 1.376 . S
C272 C273 1.446 . S
C272 C302 1.391 . S
C273 C272 1.446 . S
C273 C274 1.339 . S
C273 H308 0.949 . S
C274 C273 1.339 . S
C274 C275 1.439 . S
C274 H309 0.950 . S
C275 N271 1.383 . S
C275 C274 1.439 . S
C275 C304 1.392 . S
N276 Co270 2.008 . S
N276 C277 1.376 . S
N276 C280 1.374 . S
C277 N276 1.376 . S
C277 C278 1.443 . S
C277 C304 1.389 . S
C278 C277 1.443 . S
C278 C279 1.340 . S
C278 H310 0.951 . S
C279 C278 1.340 . S
C279 C280 1.439 . S
C279 H311 0.950 . S
C280 N276 1.374 . S
C280 C279 1.439 . S
C280 C305 1.395 . S
N281 Co270 1.995 . S
N281 C282 1.376 1_655 S
N281 C285 1.383 1_655 S
C282 N281 1.376 1_455 S
C282 C283 1.446 . S
C282 C305 1.391 1_455 S
C283 C282 1.446 . S
C283 C284 1.339 . S
C283 H312 0.949 . S
C284 C283 1.339 . S
C284 C285 1.439 . S
C284 H313 0.950 . S
C285 N281 1.383 1_455 S
C285 C284 1.439 . S
C285 C303 1.392 . S
N286 Co270 2.282 1_455 S
N286 C289 1.332 . S
N286 C291 1.332 . S
C287 C288 1.386 . S
C287 C290 1.388 . S
C288 C287 1.386 . S
C288 C289 1.382 . S
C288 H314 0.950 . S
C289 N286 1.332 . S
C289 C288 1.382 . S
C289 H300 0.952 . S
C290 C287 1.388 . S
C290 C291 1.382 . S
C290 H315 0.950 . S
C291 N286 1.332 . S
C291 C290 1.382 . S
C291 H301 0.948 1_455 S
N292 Co270 2.282 . S
N292 C296 1.332 . S
N292 C297 1.332 . S
C293 C294 1.388 . S
C293 C297 1.382 . S
C293 H316 0.950 . S
C294 C293 1.388 . S
C294 C295 1.386 . S
C295 C294 1.386 . S
C295 C296 1.382 . S
C295 H317 0.950 . S
C296 N292 1.332 . S
C296 C295 1.382 . S
C296 H298 0.952 . S
C297 N292 1.332 . S
C297 C293 1.382 . S
C297 H299 0.948 . S
H298 C296 0.952 . S
H299 C297 0.948 . S
H300 C289 0.952 . S
H301 C291 0.948 1_655 S
C302 C268 1.395 . S
C302 C272 1.391 . S
C303 C265 1.389 1_455 S
C303 C285 1.392 . S
C304 C275 1.392 . S
C304 C277 1.389 . S
C305 C280 1.395 . S
C305 C282 1.391 1_655 S
H306 C266 0.951 . S
H307 C267 0.950 . S
H308 C273 0.949 . S
H309 C274 0.950 . S
H310 C278 0.951 . S
H311 C279 0.950 . S
H312 C283 0.949 . S
H313 C284 0.950 . S
H314 C288 0.950 . S
H315 C290 0.950 . S
H316 C293 0.950 . S
H317 C295 0.950 . S
C318 C319 1.443 . S
C318 N322 1.376 . S
C318 C356 1.389 . S
C319 C318 1.443 . S
C319 C320 1.340 . S
C319 H359 0.951 . S
C320 C319 1.340 . S
C320 C321 1.439 . S
C320 H360 0.950 . S
C321 C320 1.439 . S
C321 N322 1.374 . S
C321 C355 1.395 . S
N322 C318 1.376 . S
N322 C321 1.374 . S
N322 Co323 2.008 . S
Co323 N322 2.008 . S
Co323 N324 1.995 . S
Co323 N329 2.008 . S
Co323 N334 1.995 . S
Co323 N339 2.282 . S
Co323 N345 2.282 . S
N324 Co323 1.995 . S
N324 C325 1.376 . S
N324 C328 1.383 . S
C325 N324 1.376 . S
C325 C326 1.446 . S
C325 C355 1.391 . S
C326 C325 1.446 . S
C326 C327 1.339 . S
C326 H361 0.949 . S
C327 C326 1.339 . S
C327 C328 1.439 . S
C327 H362 0.950 . S
C328 N324 1.383 . S
C328 C327 1.439 . S
C328 C357 1.392 . S
N329 Co323 2.008 . S
N329 C330 1.376 . S
N329 C333 1.374 . S
C330 N329 1.376 . S
C330 C331 1.443 . S
C330 C357 1.389 . S
C331 C330 1.443 . S
C331 C332 1.340 . S
C331 H363 0.951 . S
C332 C331 1.340 . S
C332 C333 1.439 . S
C332 H364 0.950 . S
C333 N329 1.374 . S
C333 C332 1.439 . S
C333 C358 1.395 . S
N334 Co323 1.995 . S
N334 C335 1.376 . S
N334 C338 1.383 . S
C335 N334 1.376 . S
C335 C336 1.446 1_545 S
C335 C358 1.391 . S
C336 C335 1.446 1_565 S
C336 C337 1.339 1_565 S
C336 H365 0.949 . S
C337 C336 1.339 1_545 S
C337 C338 1.439 . S
C337 H366 0.950 . S
C338 N334 1.383 . S
C338 C337 1.439 . S
C338 C356 1.392 . S
N339 Co323 2.282 . S
N339 C342 1.332 . S
N339 C344 1.332 . S
C340 C341 1.386 . S
C340 C343 1.388 . S
C341 C340 1.386 . S
C341 C342 1.382 . S
C341 H367 0.950 . S
C342 N339 1.332 . S
C342 C341 1.382 . S
C342 H353 0.952 . S
C343 C340 1.388 . S
C343 C344 1.382 . S
C343 H368 0.950 . S
C344 N339 1.332 . S
C344 C343 1.382 . S
C344 H354 0.948 . S
N345 Co323 2.282 . S
N345 C349 1.332 . S
N345 C350 1.332 . S
C346 C347 1.388 . S
C346 C350 1.382 . S
C346 H369 0.950 . S
C347 C346 1.388 . S
C347 C348 1.386 . S
C348 C347 1.386 . S
C348 C349 1.382 . S
C348 H370 0.950 . S
C349 N345 1.332 . S
C349 C348 1.382 . S
C349 H351 0.952 . S
C350 N345 1.332 . S
C350 C346 1.382 . S
C350 H352 0.948 . S
H351 C349 0.952 . S
H352 C350 0.948 . S
H353 C342 0.952 . S
H354 C344 0.948 . S
C355 C321 1.395 . S
C355 C325 1.391 . S
C356 C318 1.389 . S
C356 C338 1.392 . S
C357 C328 1.392 . S
C357 C330 1.389 . S
C358 C333 1.395 . S
C358 C335 1.391 . S
H359 C319 0.951 . S
H360 C320 0.950 . S
H361 C326 0.949 . S
H362 C327 0.950 . S
H363 C331 0.951 . S
H364 C332 0.950 . S
H365 C336 0.949 . S
H366 C337 0.950 . S
H367 C341 0.950 . S
H368 C343 0.950 . S
H369 C346 0.950 . S
H370 C348 0.950 . S
C371 C372 1.443 . S
C371 N375 1.376 1_655 S
C371 C409 1.389 . S
C372 C371 1.443 . S
C372 C373 1.340 . S
C372 H412 0.951 . S
C373 C372 1.340 . S
C373 C374 1.439 1_655 S
C373 H413 0.950 . S
C374 C373 1.439 1_455 S
C374 N375 1.374 . S
C374 C408 1.395 . S
N375 C371 1.376 1_455 S
N375 C374 1.374 . S
N375 Co376 2.008 . S
Co376 N375 2.008 . S
Co376 N377 1.995 . S
Co376 N382 2.008 . S
Co376 N387 1.995 . S
Co376 N392 2.282 1_455 S
Co376 N398 2.282 . S
N377 Co376 1.995 . S
N377 C378 1.376 . S
N377 C381 1.383 . S
C378 N377 1.376 . S
C378 C379 1.446 . S
C378 C408 1.391 . S
C379 C378 1.446 . S
C379 C380 1.339 . S
C379 H414 0.949 . S
C380 C379 1.339 . S
C380 C381 1.439 . S
C380 H415 0.950 . S
C381 N377 1.383 . S
C381 C380 1.439 . S
C381 C410 1.392 . S
N382 Co376 2.008 . S
N382 C383 1.376 . S
N382 C386 1.374 . S
C383 N382 1.376 . S
C383 C384 1.443 . S
C383 C410 1.389 . S
C384 C383 1.443 . S
C384 C385 1.340 . S
C384 H416 0.951 . S
C385 C384 1.340 . S
C385 C386 1.439 . S
C385 H417 0.950 . S
C386 N382 1.374 . S
C386 C385 1.439 . S
C386 C411 1.395 . S
N387 Co376 1.995 . S
N387 C388 1.376 . S
N387 C391 1.383 . S
C388 N387 1.376 . S
C388 C389 1.446 1_545 S
C388 C411 1.391 . S
C389 C388 1.446 1_565 S
C389 C390 1.339 1_565 S
C389 H418 0.949 . S
C390 C389 1.339 1_545 S
C390 C391 1.439 . S
C390 H419 0.949 1_455 S
C391 N387 1.383 . S
C391 C390 1.439 . S
C391 C409 1.392 1_455 S
N392 Co376 2.282 1_655 S
N392 C395 1.332 . S
N392 C397 1.332 . S
C393 C394 1.386 . S
C393 C396 1.388 . S
C394 C393 1.386 . S
C394 C395 1.382 . S
C394 H420 0.950 . S
C395 N392 1.332 . S
C395 C394 1.382 . S
C395 H406 0.952 . S
C396 C393 1.388 . S
C396 C397 1.382 . S
C396 H421 0.950 . S
C397 N392 1.332 . S
C397 C396 1.382 . S
C397 H407 0.948 . S
N398 Co376 2.282 . S
N398 C402 1.332 . S
N398 C403 1.332 . S
C399 C400 1.388 . S
C399 C403 1.382 . S
C399 H422 0.950 . S
C400 C399 1.388 . S
C400 C401 1.386 . S
C401 C400 1.386 . S
C401 C402 1.382 . S
C401 H423 0.950 . S
C402 N398 1.332 . S
C402 C401 1.382 . S
C402 H404 0.952 . S
C403 N398 1.332 . S
C403 C399 1.382 . S
C403 H405 0.948 . S
H404 C402 0.952 . S
H405 C403 0.948 . S
H406 C395 0.952 . S
H407 C397 0.948 . S
C408 C374 1.395 . S
C408 C378 1.391 . S
C409 C371 1.389 . S
C409 C391 1.392 1_655 S
C410 C381 1.392 . S
C410 C383 1.389 . S
C411 C386 1.395 . S
C411 C388 1.391 . S
H412 C372 0.951 . S
H413 C373 0.950 . S
H414 C379 0.949 . S
H415 C380 0.950 . S
H416 C384 0.951 . S
H417 C385 0.950 . S
H418 C389 0.949 . S
H419 C390 0.949 1_655 S
H420 C394 0.950 . S
H421 C396 0.950 . S
H422 C399 0.950 . S
H423 C401 0.950 . S
H424 C430 0.930 . S
H425 C434 0.930 . S
H426 C439 0.929 . S
H427 C437 0.929 . S
H428 C432 0.929 . S
H429 C438 0.929 . S
C430 H424 0.930 . S
C430 C431 1.367 1_455 S
C430 C438 1.378 . S
C431 C430 1.367 1_655 S
C431 C439 1.433 . S
C432 H428 0.929 . S
C432 C434 1.378 . S
C432 C436 1.350 1_655 S
C433 C436 1.463 1_655 S
C433 C438 1.350 1_655 S
C433 N441 1.427 . S
C434 H425 0.930 . S
C434 C432 1.378 . S
C434 C435 1.367 1_655 S
C435 C434 1.367 1_455 S
C435 C437 1.433 . S
C436 C432 1.350 1_455 S
C436 C433 1.463 1_455 S
C436 N440 1.427 . S
C437 H427 0.929 . S
C437 C435 1.433 . S
C437 N440 1.384 . S
C438 H429 0.929 . S
C438 C430 1.378 . S
C438 C433 1.350 1_455 S
C439 H426 0.929 . S
C439 C431 1.433 . S
C439 N441 1.384 . S
N440 C436 1.427 . S
N440 C437 1.384 . S
N441 C433 1.427 . S
N441 C439 1.384 . S
H442 C448 0.930 . S
H443 C452 0.930 . S
H444 C457 0.929 . S
H445 C455 0.929 . S
H446 C450 0.929 . S
H447 C456 0.929 . S
C448 H442 0.930 . S
C448 C449 1.367 . S
C448 C456 1.378 . S
C449 C448 1.367 . S
C449 C457 1.433 . S
C450 H446 0.929 . S
C450 C452 1.378 . S
C450 C454 1.350 . S
C451 C454 1.463 . S
C451 C456 1.350 . S
C451 N459 1.427 . S
C452 H443 0.930 . S
C452 C450 1.378 . S
C452 C453 1.367 . S
C453 C452 1.367 . S
C453 C455 1.433 . S
C454 C450 1.350 . S
C454 C451 1.463 . S
C454 N458 1.427 . S
C455 H445 0.929 . S
C455 C453 1.433 . S
C455 N458 1.384 . S
C456 H447 0.929 . S
C456 C448 1.378 . S
C456 C451 1.350 . S
C457 H444 0.929 . S
C457 C449 1.433 . S
C457 N459 1.384 . S
N458 C454 1.427 . S
N458 C455 1.384 . S
N459 C451 1.427 . S
N459 C457 1.384 . S
H460 C466 0.930 . S
H461 C470 0.930 . S
H462 C475 0.929 . S
H463 C473 0.929 . S
H464 C468 0.929 1_554 S
H465 C474 0.929 1_556 S
C466 H460 0.930 . S
C466 C467 1.367 . S
C466 C474 1.378 . S
C467 C466 1.367 . S
C467 C475 1.433 . S
C468 H464 0.929 1_556 S
C468 C470 1.378 . S
C468 C472 1.350 . S
C469 C472 1.463 1_544 S
C469 C474 1.350 . S
C469 N477 1.427 . S
C470 H461 0.930 . S
C470 C468 1.378 . S
C470 C471 1.367 . S
C471 C470 1.367 . S
C471 C473 1.433 . S
C472 C468 1.350 . S
C472 C469 1.463 1_566 S
C472 N476 1.427 . S
C473 H463 0.929 . S
C473 C471 1.433 . S
C473 N476 1.384 . S
C474 H465 0.929 1_554 S
C474 C466 1.378 . S
C474 C469 1.350 . S
C475 H462 0.929 . S
C475 C467 1.433 . S
C475 N477 1.384 . S
N476 C472 1.427 . S
N476 C473 1.384 . S
N477 C469 1.427 . S
N477 C475 1.384 . S
H478 C484 0.930 . S
H479 C488 0.930 . S
H480 C493 0.929 . S
H481 C491 0.929 . S
H482 C486 0.920 1_554 S
H483 C492 0.920 1_556 S
C484 H478 0.930 . S
C484 C485 1.367 1_655 S
C484 C492 1.378 . S
C485 C484 1.367 1_455 S
C485 C493 1.433 . S
C486 H482 0.920 1_556 S
C486 C488 1.378 . S
C486 C490 1.350 1_455 S
C487 C490 1.463 1_464 S
C487 C492 1.350 1_455 S
C487 N495 1.427 . S
C488 H479 0.930 . S
C488 C486 1.378 . S
C488 C489 1.367 1_455 S
C489 C488 1.367 1_655 S
C489 C491 1.433 . S
C490 C486 1.350 1_655 S
C490 C487 1.463 1_646 S
C490 N494 1.427 . S
C491 H481 0.929 . S
C491 C489 1.433 . S
C491 N494 1.384 . S
C492 H483 0.920 1_554 S
C492 C484 1.378 . S
C492 C487 1.350 1_655 S
C493 H480 0.929 . S
C493 C485 1.433 . S
C493 N495 1.384 . S
N494 C490 1.427 . S
N494 C491 1.384 . S
N495 C487 1.427 . S
N495 C493 1.384 . S
H496 C502 0.930 . S
H497 C506 0.930 . S
H498 C511 0.929 . S
H499 C509 0.929 . S
H500 C504 0.929 . S
H501 C510 0.929 . S
C502 H496 0.930 . S
C502 C503 1.367 . S
C502 C510 1.378 . S
C503 C502 1.367 . S
C503 C511 1.433 . S
C504 H500 0.929 . S
C504 C506 1.378 . S
C504 C508 1.350 . S
C505 C508 1.463 . S
C505 C510 1.350 . S
C505 N513 1.427 . S
C506 H497 0.930 . S
C506 C504 1.378 . S
C506 C507 1.367 . S
C507 C506 1.367 . S
C507 C509 1.433 . S
C508 C504 1.350 . S
C508 C505 1.463 . S
C508 N512 1.427 . S
C509 H499 0.929 . S
C509 C507 1.433 . S
C509 N512 1.384 . S
C510 H501 0.929 . S
C510 C502 1.378 . S
C510 C505 1.350 . S
C511 H498 0.929 . S
C511 C503 1.433 . S
C511 N513 1.384 . S
N512 C508 1.427 . S
N512 C509 1.384 . S
N513 C505 1.427 . S
N513 C511 1.384 . S
H514 C520 0.930 . S
H515 C524 0.930 . S
H516 C529 0.929 . S
H517 C527 0.929 . S
H518 C522 0.929 . S
H519 C528 0.929 . S
C520 H514 0.930 . S
C520 C521 1.367 . S
C520 C528 1.378 . S
C521 C520 1.367 . S
C521 C529 1.433 . S
C522 H518 0.929 . S
C522 C524 1.378 . S
C522 C526 1.350 . S
C523 C526 1.463 . S
C523 C528 1.350 . S
C523 N531 1.427 . S
C524 H515 0.930 . S
C524 C522 1.378 . S
C524 C525 1.367 . S
C525 C524 1.367 . S
C525 C527 1.433 . S
C526 C522 1.350 . S
C526 C523 1.463 . S
C526 N530 1.427 . S
C527 H517 0.929 . S
C527 C525 1.433 . S
C527 N530 1.384 . S
C528 H519 0.929 . S
C528 C520 1.378 . S
C528 C523 1.350 . S
C529 H516 0.929 . S
C529 C521 1.433 . S
C529 N531 1.384 . S
N530 C526 1.427 . S
N530 C527 1.384 . S
N531 C523 1.427 . S
N531 C529 1.384 . S
H532 C538 0.930 . S
H533 C542 0.930 . S
H534 C547 0.929 . S
H535 C545 0.929 . S
H536 C540 0.929 . S
H537 C546 0.929 . S
C538 H532 0.930 . S
C538 C539 1.367 . S
C538 C546 1.378 . S
C539 C538 1.367 . S
C539 C547 1.433 . S
C540 H536 0.929 . S
C540 C542 1.378 . S
C540 C544 1.350 . S
C541 C544 1.463 . S
C541 C546 1.350 . S
C541 N549 1.427 . S
C542 H533 0.930 . S
C542 C540 1.378 . S
C542 C543 1.367 . S
C543 C542 1.367 . S
C543 C545 1.433 . S
C544 C540 1.350 . S
C544 C541 1.463 . S
C544 N548 1.427 . S
C545 H535 0.929 . S
C545 C543 1.433 . S
C545 N548 1.384 . S
C546 H537 0.929 . S
C546 C538 1.378 . S
C546 C541 1.350 . S
C547 H534 0.929 . S
C547 C539 1.433 . S
C547 N549 1.384 . S
N548 C544 1.427 . S
N548 C545 1.384 . S
N549 C541 1.427 . S
N549 C547 1.384 . S
H550 C556 0.930 . S
H551 C560 0.930 . S
H552 C565 0.929 . S
H553 C563 0.929 . S
H554 C558 0.929 . S
H555 C564 0.929 . S
C556 H550 0.930 . S
C556 C557 1.367 . S
C556 C564 1.378 . S
C557 C556 1.367 . S
C557 C565 1.433 . S
C558 H554 0.929 . S
C558 C560 1.378 . S
C558 C562 1.350 . S
C559 C562 1.463 . S
C559 C564 1.350 . S
C559 N567 1.427 . S
C560 H551 0.930 . S
C560 C558 1.378 . S
C560 C561 1.367 . S
C561 C560 1.367 . S
C561 C563 1.433 . S
C562 C558 1.350 . S
C562 C559 1.463 . S
C562 N566 1.427 . S
C563 H553 0.929 . S
C563 C561 1.433 . S
C563 N566 1.384 . S
C564 H555 0.929 . S
C564 C556 1.378 . S
C564 C559 1.350 . S
C565 H552 0.929 . S
C565 C557 1.433 . S
C565 N567 1.384 . S
N566 C562 1.427 . S
N566 C563 1.384 . S
N567 C559 1.427 . S
N567 C565 1.384 . S
H568 C574 0.930 . S
H569 C578 0.930 . S
H570 C583 0.929 . S
H571 C581 0.929 . S
H572 C576 0.929 . S
H573 C582 0.929 . S
C574 H568 0.930 . S
C574 C575 1.367 . S
C574 C582 1.378 . S
C575 C574 1.367 . S
C575 C583 1.433 . S
C576 H572 0.929 . S
C576 C578 1.378 . S
C576 C580 1.350 . S
C577 C580 1.463 . S
C577 C582 1.350 . S
C577 N585 1.427 . S
C578 H569 0.930 . S
C578 C576 1.378 . S
C578 C579 1.367 . S
C579 C578 1.367 . S
C579 C581 1.433 . S
C580 C576 1.350 . S
C580 C577 1.463 . S
C580 N584 1.427 . S
C581 H571 0.929 . S
C581 C579 1.433 . S
C581 N584 1.384 . S
C582 H573 0.929 . S
C582 C574 1.378 . S
C582 C577 1.350 . S
C583 H570 0.929 . S
C583 C575 1.433 . S
C583 N585 1.384 . S
N584 C580 1.427 . S
N584 C581 1.384 . S
N585 C577 1.427 . S
N585 C583 1.384 . S
H586 C592 0.930 . S
H587 C596 0.930 . S
H588 C601 0.929 . S
H589 C599 0.929 . S
H590 C594 0.929 . S
H591 C600 0.929 . S
C592 H586 0.930 . S
C592 C593 1.367 . S
C592 C600 1.378 . S
C593 C592 1.367 . S
C593 C601 1.433 . S
C594 H590 0.929 . S
C594 C596 1.378 . S
C594 C598 1.350 . S
C595 C598 1.463 . S
C595 C600 1.350 . S
C595 N603 1.427 . S
C596 H587 0.930 . S
C596 C594 1.378 . S
C596 C597 1.367 . S
C597 C596 1.367 . S
C597 C599 1.433 . S
C598 C594 1.350 . S
C598 C595 1.463 . S
C598 N602 1.427 . S
C599 H589 0.929 . S
C599 C597 1.433 . S
C599 N602 1.384 . S
C600 H591 0.929 . S
C600 C592 1.378 . S
C600 C595 1.350 . S
C601 H588 0.929 . S
C601 C593 1.433 . S
C601 N603 1.384 . S
N602 C598 1.427 . S
N602 C599 1.384 . S
N603 C595 1.427 . S
N603 C601 1.384 . S
H604 C610 0.930 . S
H605 C614 0.930 . S
H606 C619 0.929 . S
H607 C617 0.929 . S
H608 C612 0.929 . S
H609 C618 0.929 . S
C610 H604 0.930 . S
C610 C611 1.367 . S
C610 C618 1.378 . S
C611 C610 1.367 . S
C611 C619 1.433 . S
C612 H608 0.929 . S
C612 C614 1.378 . S
C612 C616 1.350 . S
C613 C616 1.463 . S
C613 C618 1.350 . S
C613 N621 1.427 . S
C614 H605 0.930 . S
C614 C612 1.378 . S
C614 C615 1.367 . S
C615 C614 1.367 . S
C615 C617 1.433 . S
C616 C612 1.350 . S
C616 C613 1.463 . S
C616 N620 1.427 . S
C617 H607 0.929 . S
C617 C615 1.433 . S
C617 N620 1.384 . S
C618 H609 0.929 . S
C618 C610 1.378 . S
C618 C613 1.350 . S
C619 H606 0.929 . S
C619 C611 1.433 . S
C619 N621 1.384 . S
N620 C616 1.427 . S
N620 C617 1.384 . S
N621 C613 1.427 . S
N621 C619 1.384 . S
H622 C628 0.930 . S
H623 C632 0.930 . S
H624 C637 0.929 . S
H625 C635 0.929 . S
H626 C630 0.929 . S
H627 C636 0.929 . S
C628 H622 0.930 . S
C628 C629 1.367 . S
C628 C636 1.378 . S
C629 C628 1.367 . S
C629 C637 1.433 . S
C630 H626 0.929 . S
C630 C632 1.378 . S
C630 C634 1.350 . S
C631 C634 1.463 . S
C631 C636 1.350 . S
C631 N639 1.427 . S
C632 H623 0.930 . S
C632 C630 1.378 . S
C632 C633 1.367 . S
C633 C632 1.367 . S
C633 C635 1.433 . S
C634 C630 1.350 . S
C634 C631 1.463 . S
C634 N638 1.427 . S
C635 H625 0.929 . S
C635 C633 1.433 . S
C635 N638 1.384 . S
C636 H627 0.929 . S
C636 C628 1.378 . S
C636 C631 1.350 . S
C637 H624 0.929 . S
C637 C629 1.433 . S
C637 N639 1.384 . S
N638 C634 1.427 . S
N638 C635 1.384 . S
N639 C631 1.427 . S
N639 C637 1.384 . S
H640 C646 0.930 . S
H641 C650 0.930 . S
H642 C655 0.929 . S
H643 C653 0.929 . S
H644 C648 0.929 . S
H645 C654 0.929 . S
C646 H640 0.930 . S
C646 C647 1.367 . S
C646 C654 1.378 . S
C647 C646 1.367 . S
C647 C655 1.433 . S
C648 H644 0.929 . S
C648 C650 1.378 . S
C648 C652 1.350 . S
C649 C652 1.463 . S
C649 C654 1.350 . S
C649 N657 1.427 . S
C650 H641 0.930 . S
C650 C648 1.378 . S
C650 C651 1.367 . S
C651 C650 1.367 . S
C651 C653 1.433 . S
C652 C648 1.350 . S
C652 C649 1.463 . S
C652 N656 1.427 . S
C653 H643 0.929 . S
C653 C651 1.433 . S
C653 N656 1.384 . S
C654 H645 0.929 . S
C654 C646 1.378 . S
C654 C649 1.350 . S
C655 H642 0.929 . S
C655 C647 1.433 . S
C655 N657 1.384 . S
N656 C652 1.427 . S
N656 C653 1.384 . S
N657 C649 1.427 . S
N657 C655 1.384 . S
H658 C664 0.930 . S
H659 C668 0.930 . S
H660 C673 0.929 . S
H661 C671 0.929 . S
H662 C666 0.929 . S
H663 C672 0.929 . S
C664 H658 0.930 . S
C664 C665 1.367 . S
C664 C672 1.378 . S
C665 C664 1.367 . S
C665 C673 1.433 . S
C666 H662 0.929 . S
C666 C668 1.378 . S
C666 C670 1.350 . S
C667 C670 1.463 . S
C667 C672 1.350 . S
C667 N675 1.427 . S
C668 H659 0.930 . S
C668 C666 1.378 . S
C668 C669 1.367 . S
C669 C668 1.367 . S
C669 C671 1.433 . S
C670 C666 1.350 . S
C670 C667 1.463 . S
C670 N674 1.427 . S
C671 H661 0.929 . S
C671 C669 1.433 . S
C671 N674 1.384 . S
C672 H663 0.929 . S
C672 C664 1.378 . S
C672 C667 1.350 . S
C673 H660 0.929 . S
C673 C665 1.433 . S
C673 N675 1.384 . S
N674 C670 1.427 . S
N674 C671 1.384 . S
N675 C667 1.427 . S
N675 C673 1.384 . S
H676 C682 0.930 . S
H677 C686 0.930 . S
H678 C691 0.929 . S
H679 C689 0.929 . S
H680 C684 0.929 . S
H681 C690 0.929 . S
C682 H676 0.930 . S
C682 C683 1.367 . S
C682 C690 1.378 . S
C683 C682 1.367 . S
C683 C691 1.433 . S
C684 H680 0.929 . S
C684 C686 1.378 . S
C684 C688 1.350 . S
C685 C688 1.463 1_554 S
C685 C690 1.350 . S
C685 N693 1.427 . S
C686 H677 0.930 . S
C686 C684 1.378 . S
C686 C687 1.367 . S
C687 C686 1.367 . S
C687 C689 1.433 . S
C688 C684 1.350 . S
C688 C685 1.463 1_556 S
C688 N692 1.427 . S
C689 H679 0.929 . S
C689 C687 1.433 . S
C689 N692 1.384 . S
C690 H681 0.929 . S
C690 C682 1.378 . S
C690 C685 1.350 . S
C691 H678 0.929 . S
C691 C683 1.433 . S
C691 N693 1.384 . S
N692 C688 1.427 . S
N692 C689 1.384 . S
N693 C685 1.427 . S
N693 C691 1.384 . S
H694 C700 0.930 . S
H695 C704 0.930 . S
H696 C709 0.929 . S
H697 C707 0.929 . S
H698 C702 0.929 . S
H699 C708 0.929 . S
C700 H694 0.930 . S
C700 C701 1.367 . S
C700 C708 1.378 . S
C701 C700 1.367 . S
C701 C709 1.433 . S
C702 H698 0.929 . S
C702 C704 1.378 . S
C702 C706 1.350 . S
C703 C706 1.463 1_554 S
C703 C708 1.350 . S
C703 N711 1.427 . S
C704 H695 0.930 . S
C704 C702 1.378 . S
C704 C705 1.367 . S
C705 C704 1.367 . S
C705 C707 1.433 . S
C706 C702 1.350 . S
C706 C703 1.463 1_556 S
C706 N710 1.427 . S
C707 H697 0.929 . S
C707 C705 1.433 . S
C707 N710 1.384 . S
C708 H699 0.929 . S
C708 C700 1.378 . S
C708 C703 1.350 . S
C709 H696 0.929 . S
C709 C701 1.433 . S
C709 N711 1.384 . S
N710 C706 1.427 . S
N710 C707 1.384 . S
N711 C703 1.427 . S
N711 C709 1.384 . S
C431 C38 1.954 . S
C435 C144 1.965 . S
C449 C197 1.964 . S
C453 C91 1.953 . S
C467 C356 1.972 . S
C471 C250 1.961 . S
C485 C303 1.954 . S
C489 C409 1.965 . S
C503 C340 1.976 . S
C507 C22 1.976 . S
C521 C75 1.976 . S
C525 C393 1.977 . S
C539 C128 1.978 . S
C543 C234 1.978 . S
C557 C181 1.976 . S
C561 C287 1.976 . S
C575 C357 2.215 . S
C579 C39 2.226 . S
C593 C92 2.217 . S
C597 C410 2.205 . S
C611 C251 2.225 . S
C615 C145 2.213 . S
C629 C304 2.216 . S
C633 C198 2.204 . S
C647 C82 0.691 . S
C651 C29 0.689 . S
C665 C135 0.693 . S
C669 C188 0.697 . S
C683 C294 0.686 . S
C687 C241 0.688 . S
C701 C347 0.686 . S
C705 C400 0.683 . S
