# Generated by pormake.
# Topology lcs, (4)-cn, num edge types: 1
# Building blocks:
#     Node 0, Type 0, BuildingBlock: QUQFOY_clean_sbu_3, # of connection points: 4
#     Node 1, Type 0, BuildingBlock: QUQFOY_clean_sbu_3, # of connection points: 4
#     Node 2, Type 0, BuildingBlock: QUQFOY_clean_sbu_3, # of connection points: 4
#     Node 3, Type 0, BuildingBlock: QUQFOY_clean_sbu_3, # of connection points: 4
#     Node 4, Type 0, BuildingBlock: QUQFOY_clean_sbu_3, # of connection points: 4
#     Node 5, Type 0, BuildingBlock: QUQFOY_clean_sbu_3, # of connection points: 4
#     Node 6, Type 0, BuildingBlock: QUQFOY_clean_sbu_3, # of connection points: 4
#     Node 7, Type 0, BuildingBlock: QUQFOY_clean_sbu_3, # of connection points: 4
#     Node 8, Type 0, BuildingBlock: QUQFOY_clean_sbu_3, # of connection points: 4
#     Node 9, Type 0, BuildingBlock: QUQFOY_clean_sbu_3, # of connection points: 4
#     Node 10, Type 0, BuildingBlock: QUQFOY_clean_sbu_3, # of connection points: 4
#     Node 11, Type 0, BuildingBlock: QUQFOY_clean_sbu_3, # of connection points: 4
#     Node 12, Type 0, BuildingBlock: QUQFOY_clean_sbu_3, # of connection points: 4
#     Node 13, Type 0, BuildingBlock: QUQFOY_clean_sbu_3, # of connection points: 4
#     Node 14, Type 0, BuildingBlock: QUQFOY_clean_sbu_3, # of connection points: 4
#     Node 15, Type 0, BuildingBlock: QUQFOY_clean_sbu_3, # of connection points: 4
#     Node 16, Type 0, BuildingBlock: QUQFOY_clean_sbu_3, # of connection points: 4
#     Node 17, Type 0, BuildingBlock: QUQFOY_clean_sbu_3, # of connection points: 4
#     Node 18, Type 0, BuildingBlock: QUQFOY_clean_sbu_3, # of connection points: 4
#     Node 19, Type 0, BuildingBlock: QUQFOY_clean_sbu_3, # of connection points: 4
#     Node 20, Type 0, BuildingBlock: QUQFOY_clean_sbu_3, # of connection points: 4
#     Node 21, Type 0, BuildingBlock: QUQFOY_clean_sbu_3, # of connection points: 4
#     Node 22, Type 0, BuildingBlock: QUQFOY_clean_sbu_3, # of connection points: 4
#     Node 23, Type 0, BuildingBlock: QUQFOY_clean_sbu_3, # of connection points: 4
#     Edge 24, Type (0, 0), BuildingBlock: EZIPEK_clean_linker_0, # of connection points: 2
#     Edge 25, Type (0, 0), BuildingBlock: EZIPEK_clean_linker_0, # of connection points: 2
#     Edge 26, Type (0, 0), BuildingBlock: EZIPEK_clean_linker_0, # of connection points: 2
#     Edge 27, Type (0, 0), BuildingBlock: EZIPEK_clean_linker_0, # of connection points: 2
#     Edge 28, Type (0, 0), BuildingBlock: EZIPEK_clean_linker_0, # of connection points: 2
#     Edge 29, Type (0, 0), BuildingBlock: EZIPEK_clean_linker_0, # of connection points: 2
#     Edge 30, Type (0, 0), BuildingBlock: EZIPEK_clean_linker_0, # of connection points: 2
#     Edge 31, Type (0, 0), BuildingBlock: EZIPEK_clean_linker_0, # of connection points: 2
#     Edge 32, Type (0, 0), BuildingBlock: EZIPEK_clean_linker_0, # of connection points: 2
#     Edge 33, Type (0, 0), BuildingBlock: EZIPEK_clean_linker_0, # of connection points: 2
#     Edge 34, Type (0, 0), BuildingBlock: EZIPEK_clean_linker_0, # of connection points: 2
#     Edge 35, Type (0, 0), BuildingBlock: EZIPEK_clean_linker_0, # of connection points: 2
#     Edge 36, Type (0, 0), BuildingBlock: EZIPEK_clean_linker_0, # of connection points: 2
#     Edge 37, Type (0, 0), BuildingBlock: EZIPEK_clean_linker_0, # of connection points: 2
#     Edge 38, Type (0, 0), BuildingBlock: EZIPEK_clean_linker_0, # of connection points: 2
#     Edge 39, Type (0, 0), BuildingBlock: EZIPEK_clean_linker_0, # of connection points: 2
#     Edge 40, Type (0, 0), BuildingBlock: EZIPEK_clean_linker_0, # of connection points: 2
#     Edge 41, Type (0, 0), BuildingBlock: EZIPEK_clean_linker_0, # of connection points: 2
#     Edge 42, Type (0, 0), BuildingBlock: EZIPEK_clean_linker_0, # of connection points: 2
#     Edge 43, Type (0, 0), BuildingBlock: EZIPEK_clean_linker_0, # of connection points: 2
#     Edge 44, Type (0, 0), BuildingBlock: EZIPEK_clean_linker_0, # of connection points: 2
#     Edge 45, Type (0, 0), BuildingBlock: EZIPEK_clean_linker_0, # of connection points: 2
#     Edge 46, Type (0, 0), BuildingBlock: EZIPEK_clean_linker_0, # of connection points: 2
#     Edge 47, Type (0, 0), BuildingBlock: EZIPEK_clean_linker_0, # of connection points: 2
#     Edge 48, Type (0, 0), BuildingBlock: EZIPEK_clean_linker_0, # of connection points: 2
#     Edge 49, Type (0, 0), BuildingBlock: EZIPEK_clean_linker_0, # of connection points: 2
#     Edge 50, Type (0, 0), BuildingBlock: EZIPEK_clean_linker_0, # of connection points: 2
#     Edge 51, Type (0, 0), BuildingBlock: EZIPEK_clean_linker_0, # of connection points: 2
#     Edge 52, Type (0, 0), BuildingBlock: EZIPEK_clean_linker_0, # of connection points: 2
#     Edge 53, Type (0, 0), BuildingBlock: EZIPEK_clean_linker_0, # of connection points: 2
#     Edge 54, Type (0, 0), BuildingBlock: EZIPEK_clean_linker_0, # of connection points: 2
#     Edge 55, Type (0, 0), BuildingBlock: EZIPEK_clean_linker_0, # of connection points: 2
#     Edge 56, Type (0, 0), BuildingBlock: EZIPEK_clean_linker_0, # of connection points: 2
#     Edge 57, Type (0, 0), BuildingBlock: EZIPEK_clean_linker_0, # of connection points: 2
#     Edge 58, Type (0, 0), BuildingBlock: EZIPEK_clean_linker_0, # of connection points: 2
#     Edge 59, Type (0, 0), BuildingBlock: EZIPEK_clean_linker_0, # of connection points: 2
#     Edge 60, Type (0, 0), BuildingBlock: EZIPEK_clean_linker_0, # of connection points: 2
#     Edge 61, Type (0, 0), BuildingBlock: EZIPEK_clean_linker_0, # of connection points: 2
#     Edge 62, Type (0, 0), BuildingBlock: EZIPEK_clean_linker_0, # of connection points: 2
#     Edge 63, Type (0, 0), BuildingBlock: EZIPEK_clean_linker_0, # of connection points: 2
#     Edge 64, Type (0, 0), BuildingBlock: EZIPEK_clean_linker_0, # of connection points: 2
#     Edge 65, Type (0, 0), BuildingBlock: EZIPEK_clean_linker_0, # of connection points: 2
#     Edge 66, Type (0, 0), BuildingBlock: EZIPEK_clean_linker_0, # of connection points: 2
#     Edge 67, Type (0, 0), BuildingBlock: EZIPEK_clean_linker_0, # of connection points: 2
#     Edge 68, Type (0, 0), BuildingBlock: EZIPEK_clean_linker_0, # of connection points: 2
#     Edge 69, Type (0, 0), BuildingBlock: EZIPEK_clean_linker_0, # of connection points: 2
#     Edge 70, Type (0, 0), BuildingBlock: EZIPEK_clean_linker_0, # of connection points: 2
#     Edge 71, Type (0, 0), BuildingBlock: EZIPEK_clean_linker_0, # of connection points: 2
# Relax obj value: 0.005
# Max RMSD: 0.039
# Mean RMSD: 0.027
data_MOF--net-lcs--node1-QUQFOY_clean_sbu_3--edge1-EZIPEK_clean_linker_0
_symmetry_space_group_name_H-M    P1
_symmetry_Int_Tables_number       1
_symmetry_cell_setting            triclinic
loop_
_symmetry_equiv_pos_as_xyz
'x, y, z'
_cell_length_a     37.869371
_cell_length_b     38.530668
_cell_length_c     38.385001
_cell_angle_alpha  91.643669
_cell_angle_beta   89.94803
_cell_angle_gamma 91.755283
loop_
_atom_site_label
_atom_site_type_symbol
_atom_site_fract_x
_atom_site_fract_y
_atom_site_fract_z
_atom_type_partial_charge
C0 C 0.92713 0.24857 0.41735 0.0
O1 O 0.9345 0.22469 0.43801 0.0
Cd2 Cd -0.01868 0.18541 0.42865 0.0
O3 O 0.94629 0.25522 0.39097 0.0
Cd4 Cd 0.00181 0.2362 0.36393 0.0
C5 C 0.96029 0.15963 0.34396 0.0
O6 O 0.03097 0.22251 0.41747 0.0
O7 O 0.06001 0.21137 0.37043 0.0
O8 O 0.01547 0.29745 0.35969 0.0
C9 C 0.05884 0.2114 0.40341 0.0
O10 O 0.96104 0.15381 0.37643 0.0
C11 C 0.02535 0.29557 0.32811 0.0
O12 O 0.97362 0.18755 0.33191 0.0
O13 O 0.02265 0.26614 0.31237 0.0
C14 C 0.93053 0.76515 0.55624 0.0
O15 O 0.95732 0.77212 0.53755 0.0
Cd16 Cd 0.01561 0.7614 0.5569 0.0
O17 O 0.93326 0.75008 0.58513 0.0
Cd18 Cd 0.9769 0.72358 0.62261 0.0
C19 C 0.01585 0.80228 0.63844 0.0
O20 O 0.01313 0.70296 0.5758 0.0
O21 O 0.03466 0.69783 0.62759 0.0
O22 O 0.9418 0.67078 0.62718 0.0
C23 C 0.03771 0.6927 0.59494 0.0
O24 O 0.0242 0.80189 0.60628 0.0
C25 C 0.93578 0.67395 0.65959 0.0
O26 O -0.00147 0.77699 0.65155 0.0
O27 O 0.9484 0.70106 0.67526 0.0
C28 C 0.41982 0.75284 0.92213 0.0
O29 O 0.42938 0.72759 0.94011 0.0
Cd30 Cd 0.48001 0.69309 0.92908 0.0
O31 O 0.43771 0.76332 0.89615 0.0
Cd32 Cd 0.49231 0.74917 0.8646 0.0
C33 C 0.45624 0.66928 0.84487 0.0
O34 O 0.5239 0.73557 0.91633 0.0
O35 O 0.55314 0.72895 0.86875 0.0
O36 O 0.49913 0.81161 0.86076 0.0
C37 C 0.5524 0.72718 0.90164 0.0
O38 O 0.46179 0.66133 0.87633 0.0
C39 C 0.51091 0.81083 0.82977 0.0
O40 O 0.46355 0.69958 0.83391 0.0
O41 O 0.5115 0.78144 0.8139 0.0
C42 C 0.42145 0.26853 0.04841 0.0
O43 O 0.44763 0.27644 0.02937 0.0
Cd44 Cd 0.50573 0.26379 0.04729 0.0
O45 O 0.42534 0.25275 0.07673 0.0
Cd46 Cd 0.47352 0.22772 0.11003 0.0
C47 C 0.51147 0.3056 0.12674 0.0
O48 O 0.5061 0.20316 0.06069 0.0
O49 O 0.53359 0.20645 0.10998 0.0
O50 O 0.43161 0.1802 0.11871 0.0
C51 C 0.53244 0.19503 0.0787 0.0
O52 O 0.52221 0.30361 0.09536 0.0
C53 C 0.43793 0.17727 0.1509 0.0
O54 O 0.49068 0.28245 0.13896 0.0
O55 O 0.46029 0.19864 0.16478 0.0
C56 C 0.92279 0.72157 0.06513 0.0
O57 O 0.93121 0.74834 0.04804 0.0
Cd58 Cd -0.01929 0.78659 0.06051 0.0
O59 O 0.94132 0.71204 0.09062 0.0
Cd60 Cd -0.00401 0.72856 0.12253 0.0
C61 C 0.96184 0.80538 0.14758 0.0
O62 O 0.0259 0.74753 0.07119 0.0
O63 O 0.05602 0.75441 0.11853 0.0
O64 O 0.00499 0.66689 0.121 0.0
C65 C 0.05412 0.75835 0.08594 0.0
O66 O 0.9649 0.81392 0.11588 0.0
C67 C 0.01456 0.66543 0.15258 0.0
O68 O 0.9702 0.77545 0.15758 0.0
O69 O 0.01407 0.69332 0.17107 0.0
C70 C 0.41153 0.7152 0.42028 0.0
O71 O 0.43467 0.70178 0.43914 0.0
Cd72 Cd 0.49649 0.70411 0.42641 0.0
O73 O 0.41993 0.73187 0.39326 0.0
Cd74 Cd 0.47286 0.75098 0.36172 0.0
C75 C 0.49637 0.66849 0.34328 0.0
O76 O 0.51002 0.76249 0.41171 0.0
O77 O 0.53581 0.76436 0.36133 0.0
O78 O 0.45667 0.81082 0.357 0.0
C79 C 0.53779 0.76859 0.39419 0.0
O80 O 0.50365 0.66599 0.37545 0.0
C81 C 0.44997 0.80916 0.32464 0.0
O82 O 0.48376 0.69595 0.33119 0.0
O83 O 0.45337 0.77984 0.30916 0.0
C84 C 0.42063 0.21039 0.56719 0.0
O85 O 0.42534 0.23408 0.54523 0.0
Cd86 Cd 0.47148 0.27739 0.54895 0.0
O87 O 0.44149 0.20729 0.5928 0.0
Cd88 Cd 0.49671 0.23479 0.6155 0.0
C89 C 0.45945 0.31138 0.63226 0.0
O90 O 0.52267 0.24506 0.55891 0.0
O91 O 0.55071 0.26824 0.60337 0.0
O92 O 0.51654 0.17664 0.62219 0.0
C93 C 0.54939 0.26189 0.57084 0.0
O94 O 0.4588 0.31467 0.59936 0.0
C95 C 0.52515 0.18047 0.65399 0.0
O96 O 0.47045 0.28396 0.64584 0.0
O97 O 0.52013 0.20985 0.66874 0.0
C98 C 0.9132 0.21518 0.92975 0.0
O99 O 0.93926 0.20487 0.94698 0.0
Cd100 Cd -0.00072 0.21062 0.92767 0.0
O101 O 0.91744 0.23023 0.90093 0.0
Cd102 Cd 0.96559 0.25028 0.86295 0.0
C103 C -0.00707 0.16828 0.84787 0.0
O104 O 0.00713 0.2683 0.90798 0.0
O105 O 0.02731 0.2669 0.85509 0.0
O106 O 0.94454 0.30807 0.85508 0.0
C107 C 0.03243 0.27436 0.88713 0.0
O108 O 0.00452 0.16908 0.87901 0.0
C109 C 0.93639 0.30372 0.82319 0.0
O110 O 0.97643 0.19358 0.83567 0.0
O111 O 0.94053 0.2736 0.80971 0.0
C112 C 0.41206 0.93545 0.2571 0.0
O113 O 0.43426 0.95078 0.23757 0.0
Cd114 Cd 0.41631 -0.00376 0.20086 0.0
O115 O 0.38145 0.94749 0.26194 0.0
Cd116 Cd 0.34649 -0.00141 0.24883 0.0
C117 C 0.33701 0.95998 0.17016 0.0
O118 O 0.39305 0.04114 0.23741 0.0
O119 O 0.3409 0.05401 0.2199 0.0
O120 O 0.33887 0.01144 0.31016 0.0
C121 C 0.37326 0.0628 0.22351 0.0
O122 O 0.36933 0.96848 0.16494 0.0
C123 C 0.30537 0.009 0.3098 0.0
O124 O 0.32178 0.96693 0.19897 0.0
O125 O 0.29056 0.00078 0.28088 0.0
C126 C 0.176 0.16569 0.48582 0.0
O127 O 0.19189 0.18746 0.50619 0.0
Cd128 Cd 0.23235 0.16823 0.54824 0.0
O129 O 0.1859 0.13441 0.48316 0.0
Cd130 Cd 0.23603 0.09879 0.50079 0.0
C131 C 0.19234 0.09127 0.5756 0.0
O132 O 0.2784 0.14487 0.5138 0.0
O133 O 0.29166 0.0944 0.53273 0.0
O134 O 0.25113 0.09163 0.44025 0.0
C135 C 0.30029 0.12608 0.5287 0.0
O136 O 0.19932 0.12363 0.5804 0.0
C137 C 0.24928 0.0587 0.43931 0.0
O138 O 0.20311 0.07497 0.54855 0.0
O139 O 0.24019 0.04374 0.46717 0.0
C140 C 0.02549 0.04617 0.76547 0.0
O141 O 0.00717 0.03532 0.73943 0.0
Cd142 Cd 0.02276 -0.01115 0.69969 0.0
O143 O 0.05394 0.03179 0.77399 0.0
Cd144 Cd 0.09122 -0.01688 0.75583 0.0
C145 C 0.10565 0.02047 0.67729 0.0
O146 O 0.04392 0.94461 0.73541 0.0
O147 O 0.09634 0.92506 0.73001 0.0
O148 O 0.1022 0.96644 0.81507 0.0
C149 C 0.06356 0.92069 0.7242 0.0
O150 O 0.07324 0.01461 0.66963 0.0
C151 C 0.13555 0.97072 0.81324 0.0
O152 O 0.1183 0.01181 0.70642 0.0
O153 O 0.14826 -0.01739 0.78519 0.0
C154 C 0.29034 0.80686 0.97343 0.0
O155 O 0.2791 0.78829 -0.00185 0.0
Cd156 Cd 0.22995 0.79901 0.0355 0.0
O157 O 0.2751 0.83441 0.96491 0.0
Cd158 Cd 0.22341 0.86788 0.98375 0.0
C159 C 0.26087 0.87993 0.0639 0.0
O160 O 0.18692 0.81846 -0.00298 0.0
O161 O 0.16501 0.86762 0.01192 0.0
O162 O 0.20627 0.87793 0.92441 0.0
C163 C 0.16182 0.83477 0.01082 0.0
O164 O 0.25259 0.84847 0.0704 0.0
C165 C 0.20592 0.91079 0.928 0.0
O166 O 0.25474 0.89284 0.03439 0.0
O167 O 0.21589 0.92412 0.95717 0.0
C168 C 0.28163 0.30249 0.00555 0.0
O169 O 0.25539 0.28345 0.01446 0.0
Cd170 Cd 0.195 0.29683 0.00419 0.0
O171 O 0.27771 0.32998 -0.01144 0.0
Cd172 Cd 0.22976 0.36226 0.96308 0.0
C173 C 0.19667 0.37853 0.04306 0.0
O174 O 0.19127 0.31358 0.94531 0.0
O175 O 0.1694 0.36475 0.94344 0.0
O176 O 0.26129 0.36878 0.90878 0.0
C177 C 0.16568 0.33233 0.93749 0.0
O178 O 0.18545 0.34702 0.04246 0.0
C179 C 0.26012 0.40166 0.90925 0.0
O180 O 0.21549 0.39073 0.0185 0.0
O181 O 0.2464 0.41657 0.93568 0.0
C182 C 0.77234 0.17281 0.96927 0.0
O183 O 0.74606 0.18931 0.95887 0.0
Cd184 Cd 0.68708 0.16589 0.96353 0.0
O185 O 0.76832 0.14401 -0.01564 0.0
Cd186 Cd 0.72165 0.10429 0.00529 0.0
C187 C 0.69815 0.08677 0.92196 0.0
O188 O 0.67934 0.1468 0.02191 0.0
O189 O 0.65957 0.09337 0.02068 0.0
O190 O 0.75105 0.10042 0.06072 0.0
C191 C 0.65429 0.12516 0.02768 0.0
O192 O 0.68457 0.11661 0.92185 0.0
C193 C 0.75599 0.06803 0.05801 0.0
O194 O 0.71465 0.0764 0.94837 0.0
O195 O 0.74501 0.0522 0.03042 0.0
C196 C 0.17412 0.50258 0.29389 0.0
O197 O 0.19572 0.47936 0.2852 0.0
Cd198 Cd 0.18304 0.43864 0.23811 0.0
O199 O 0.14616 0.50683 0.27642 0.0
Cd200 Cd 0.11557 0.48419 0.2237 0.0
C201 C 0.1003 0.40868 0.263 0.0
O202 O 0.16642 0.46928 0.18757 0.0
O203 O 0.11482 0.45044 0.16955 0.0
O204 O 0.11009 0.54365 0.2075 0.0
C205 C 0.14778 0.45346 0.16428 0.0
O206 O 0.133 0.40334 0.25824 0.0
C207 C 0.07679 0.54215 0.20387 0.0
O208 O 0.08665 0.4371 0.25477 0.0
O209 O 0.06082 0.51346 0.20997 0.0
C210 C 0.78904 0.79797 0.51918 0.0
O211 O 0.76469 0.77719 0.52913 0.0
Cd212 Cd 0.70323 0.7877 0.52299 0.0
O213 O 0.78228 0.82543 0.50319 0.0
Cd214 Cd 0.73054 0.85399 0.48043 0.0
C215 C 0.69801 0.86923 0.56111 0.0
O216 O 0.69449 0.80279 0.46375 0.0
O217 O 0.67016 0.85288 0.462 0.0
O218 O 0.75803 0.86279 0.42444 0.0
C219 C 0.66798 0.82039 0.45601 0.0
O220 O 0.6919 0.83662 0.56257 0.0
C221 C 0.75633 0.89561 0.42607 0.0
O222 O 0.71291 0.88242 0.53464 0.0
O223 O 0.74401 0.90948 0.45372 0.0
C224 C 0.79246 0.97131 0.30348 0.0
O225 O 0.7743 -0.00361 0.29366 0.0
Cd226 Cd 0.79041 0.03136 0.24523 0.0
O227 O 0.8197 0.96181 0.28676 0.0
Cd228 Cd 0.85346 0.97671 0.2342 0.0
C229 C 0.87519 0.05616 0.26893 0.0
O230 O 0.80418 -0.0081 0.1983 0.0
O231 O 0.85616 0.00246 0.17701 0.0
O232 O 0.86087 0.91748 0.21301 0.0
C233 C 0.82291 0.00299 0.17335 0.0
O234 O 0.84288 0.06382 0.26591 0.0
C235 C 0.89403 0.91778 0.21792 0.0
O236 O 0.8859 0.02643 0.25933 0.0
O237 O 0.90807 0.94502 0.23203 0.0
C238 C 0.26716 0.68062 0.45245 0.0
O239 O 0.23998 0.69662 0.44341 0.0
Cd240 Cd 0.18208 0.67284 0.45567 0.0
O241 O 0.26455 0.65267 0.46918 0.0
Cd242 Cd 0.22212 0.61291 0.49578 0.0
C243 C 0.19179 0.59296 0.41513 0.0
O244 O 0.18322 0.65758 0.51581 0.0
O245 O 0.16398 0.60443 0.52118 0.0
O246 O 0.26499 0.61279 0.54213 0.0
C247 C 0.15967 0.63658 0.5269 0.0
O248 O 0.17726 0.62234 0.41566 0.0
C249 C 0.26318 0.58019 0.54598 0.0
O250 O 0.2107 0.58354 0.44033 0.0
O251 O 0.24292 0.5623 0.52558 0.0
C252 C 0.29978 0.47777 0.78764 0.0
O253 O 0.27992 0.50143 0.7775 0.0
Cd254 Cd 0.29531 0.53907 0.7309 0.0
O255 O 0.32838 0.47095 0.77183 0.0
Cd256 Cd 0.36254 0.48979 0.72074 0.0
C257 C 0.37694 0.56728 0.76172 0.0
O258 O 0.31446 0.50388 0.68284 0.0
O259 O 0.36676 0.52142 0.66668 0.0
O260 O 0.36805 0.43037 0.70061 0.0
C261 C 0.33399 0.51819 0.66019 0.0
O262 O 0.34501 0.57377 0.75458 0.0
C263 C 0.40155 0.43076 0.70136 0.0
O264 O 0.39002 0.53801 0.75393 0.0
O265 O 0.41728 0.45849 0.71256 0.0
C266 C 0.67651 0.00015 0.79889 0.0
O267 O 0.69396 0.97373 0.78982 0.0
Cd268 Cd 0.67748 0.93554 0.74145 0.0
O269 O 0.65029 0.00972 0.78121 0.0
Cd270 Cd 0.61609 -0.0042 0.72812 0.0
C271 C 0.58953 0.92067 0.76479 0.0
O272 O 0.66487 0.97301 0.69565 0.0
O273 O 0.6143 0.96836 0.67003 0.0
O274 O 0.61928 0.05735 0.71726 0.0
C275 C 0.64693 0.96198 0.6696 0.0
O276 O 0.62112 0.91074 0.76091 0.0
C277 C 0.58648 0.05973 0.71127 0.0
O278 O 0.58032 0.95087 0.75645 0.0
O279 O 0.56702 0.03252 0.71435 0.0
C280 C 0.6708 0.68041 0.98158 0.0
O281 O 0.68582 0.70173 0.00304 0.0
Cd282 Cd 0.72835 0.68322 0.04331 0.0
O283 O 0.68192 0.64967 0.9773 0.0
Cd284 Cd 0.73336 0.6152 -0.00611 0.0
C285 C 0.69133 0.6045 0.06942 0.0
O286 O 0.77399 0.6635 0.00581 0.0
O287 O 0.7903 0.61383 0.02409 0.0
O288 O 0.74438 0.60745 0.93234 0.0
C289 C 0.79746 0.64572 0.01957 0.0
O290 O 0.69779 0.63679 0.0753 0.0
C291 C 0.74757 0.5748 0.9327 0.0
O292 O 0.70169 0.58946 0.04149 0.0
O293 O 0.74307 0.56014 0.96167 0.0
C294 C 0.89572 0.42628 0.75087 0.0
O295 O 0.91817 0.44063 0.73084 0.0
Cd296 Cd 0.90263 0.48716 0.69414 0.0
O297 O 0.86565 0.43943 0.75604 0.0
Cd298 Cd 0.83329 0.49235 0.74314 0.0
C299 C 0.82115 0.45407 0.66483 0.0
O300 O 0.88252 0.53226 0.73166 0.0
O301 O 0.83082 0.54872 0.71642 0.0
O302 O 0.83112 0.5011 0.80521 0.0
C303 C 0.86371 0.55544 0.71891 0.0
O304 O 0.85367 0.46182 0.65979 0.0
C305 C 0.7987 0.50841 0.80663 0.0
O306 O 0.80598 0.46109 0.69371 0.0
O307 O 0.78107 0.50592 0.77841 0.0
C308 C 0.7971 0.30554 0.4602 0.0
O309 O 0.78523 0.2853 0.48319 0.0
Cd310 Cd 0.73314 0.29382 0.51615 0.0
O311 O 0.78091 0.33266 0.45217 0.0
Cd312 Cd 0.72511 0.35984 0.4706 0.0
C313 C 0.75586 0.37341 0.55222 0.0
O314 O 0.68821 0.30772 0.47597 0.0
O315 O 0.6698 0.35319 0.50301 0.0
O316 O 0.70768 0.37049 0.41127 0.0
C317 C 0.66392 0.32178 0.49334 0.0
O318 O 0.74806 0.3415 0.55683 0.0
C319 C 0.70439 0.40298 0.41568 0.0
O320 O 0.75252 0.38685 0.52253 0.0
O321 O 0.71242 0.41608 0.44549 0.0
C322 C 0.52957 0.54823 0.25864 0.0
O323 O 0.50936 0.53784 0.23391 0.0
Cd324 Cd 0.52574 0.494 0.1925 0.0
O325 O 0.55857 0.53354 0.26456 0.0
Cd326 Cd 0.59329 0.48387 0.24306 0.0
C327 C 0.60786 0.5274 0.16918 0.0
O328 O 0.545 0.44507 0.22366 0.0
O329 O 0.59769 0.43107 0.20743 0.0
O330 O 0.60216 0.46184 0.30091 0.0
C331 C 0.56488 0.42369 0.20811 0.0
O332 O 0.57521 0.52198 0.16231 0.0
C333 C 0.63559 0.46548 0.30055 0.0
O334 O 0.6214 0.51659 0.19705 0.0
O335 O 0.64954 0.4788 0.27374 0.0
C336 C 0.08899 0.37149 0.31396 0.0
C337 C 0.07864 0.38185 0.28046 0.0
C338 C 0.02971 0.33875 0.28041 0.0
C339 C 0.04303 0.32559 0.31176 0.0
N340 N 0.08975 0.32499 0.3547 0.0
N341 N 0.04196 0.37279 0.2294 0.0
C342 C 0.0738 0.34081 0.32767 0.0
C343 C 0.04959 0.36495 0.26302 0.0
N344 N 0.11268 0.39153 0.33312 0.0
N345 N -0.00233 0.32693 0.26781 0.0
H346 H 0.05598 0.39174 0.21575 0.0
H347 H 0.0236 0.35864 0.21411 0.0
H348 H -0.01768 0.30792 0.28005 0.0
H349 H -0.01508 0.33807 0.24706 0.0
H350 H 0.11845 0.38708 0.35912 0.0
H351 H 0.12371 0.41475 0.32421 0.0
H352 H 0.11431 0.33313 0.36465 0.0
H353 H 0.08043 0.30165 0.36489 0.0
C354 C 0.8792 0.80359 0.56177 0.0
C355 C 0.8954 0.77508 0.54476 0.0
C356 C 0.84337 0.76457 0.50785 0.0
C357 C 0.82591 0.79075 0.52728 0.0
N358 N 0.82492 0.83305 0.57484 0.0
N359 N 0.89274 0.72603 0.50429 0.0
C360 C 0.84324 0.80986 0.55473 0.0
C361 C 0.87755 0.75498 0.51835 0.0
N362 N 0.89853 0.82506 0.58401 0.0
N363 N 0.82756 0.74955 0.4789 0.0
H364 H 0.91807 0.71857 0.51091 0.0
H365 H 0.87947 0.70804 0.48789 0.0
H366 H 0.80233 0.75577 0.47068 0.0
H367 H 0.84037 0.733 0.46146 0.0
H368 H 0.88941 0.84836 0.59443 0.0
H369 H 0.92496 0.82107 0.58992 0.0
H370 H 0.83485 0.84488 0.59765 0.0
H371 H 0.7986 0.8387 0.57018 0.0
C372 C 0.38495 0.60427 0.81556 0.0
C373 C 0.3979 0.59326 0.78252 0.0
C374 C 0.45084 0.63078 0.79097 0.0
C375 C 0.43612 0.64406 0.82242 0.0
N376 N 0.38555 0.64937 0.8605 0.0
N377 N 0.44019 0.59975 0.73592 0.0
C378 C 0.40212 0.63252 0.83354 0.0
C379 C 0.4301 0.60749 0.76938 0.0
N380 N 0.35711 0.58682 0.83056 0.0
N381 N 0.48495 0.63945 0.78237 0.0
H382 H 0.42551 0.583 0.71928 0.0
H383 H 0.46145 0.61213 0.72369 0.0
H384 H 0.50085 0.65646 0.7976 0.0
H385 H 0.49837 0.6277 0.76172 0.0
H386 H 0.34924 0.5914 0.85626 0.0
H387 H 0.34406 0.56541 0.8187 0.0
H388 H 0.3592 0.64442 0.86705 0.0
H389 H 0.39683 0.6707 0.87415 0.0
C390 C 0.57604 0.18184 0.03085 0.0
C391 C 0.56115 0.17397 0.06381 0.0
C392 C 0.60585 0.13024 0.07193 0.0
C393 C 0.61943 0.13739 0.03845 0.0
N394 N 0.60965 0.16022 0.98173 0.0
N395 N 0.55553 0.13346 0.11065 0.0
C396 C 0.60192 0.16003 0.01648 0.0
C397 C 0.57411 0.14592 0.0829 0.0
N398 N 0.56755 0.2113 0.01421 0.0
N399 N 0.62383 0.10963 0.09373 0.0
H400 H 0.53131 0.1432 0.11855 0.0
H401 H 0.56218 0.11108 0.12342 0.0
H402 H 0.64681 0.09713 0.08631 0.0
H403 H 0.61724 0.10687 0.11988 0.0
H404 H 0.58045 0.21955 -0.00822 0.0
H405 H 0.55075 0.2296 0.02478 0.0
H406 H 0.59554 0.17431 0.96393 0.0
H407 H 0.62714 0.14288 0.97027 0.0
C408 C 0.06941 0.58531 0.15777 0.0
C409 C 0.05825 0.572 0.19012 0.0
C410 C 0.01478 0.61765 0.19592 0.0
C411 C 0.02929 0.63333 0.16589 0.0
N412 N 0.07572 0.636 0.12261 0.0
N413 N 0.02343 0.5776 0.24255 0.0
C414 C 0.05801 0.61821 0.14791 0.0
C415 C 0.03161 0.5886 0.20991 0.0
N416 N 0.09008 0.56601 0.13589 0.0
N417 N -0.01561 0.62976 0.21039 0.0
H418 H 0.03519 0.55643 0.25365 0.0
H419 H 0.00707 0.59107 0.25967 0.0
H420 H 0.97119 0.65076 0.20061 0.0
H421 H 0.97061 0.61717 0.23009 0.0
H422 H 0.09603 0.57302 0.11048 0.0
H423 H 0.09807 0.54118 0.14173 0.0
H424 H 0.09909 0.62754 0.11134 0.0
H425 H 0.0694 0.66097 0.11545 0.0
C426 C 0.57093 0.8066 0.43771 0.0
C427 C 0.57109 0.77996 0.41144 0.0
C428 C 0.63556 0.77991 0.41358 0.0
C429 C 0.63499 0.80401 0.44224 0.0
N430 N 0.60117 0.8315 0.48816 0.0
N431 N 0.603 0.73439 0.38176 0.0
C432 C 0.60235 0.81461 0.45641 0.0
C433 C 0.60324 0.76445 0.40155 0.0
N434 N 0.54157 0.82569 0.44363 0.0
N435 N 0.66641 0.77306 0.39659 0.0
H436 H 0.57977 0.72115 0.37398 0.0
H437 H 0.62574 0.72057 0.37656 0.0
H438 H 0.69063 0.78489 0.40339 0.0
H439 H 0.66727 0.7583 0.37344 0.0
H440 H 0.54163 0.84746 0.46041 0.0
H441 H 0.51847 0.82249 0.429 0.0
H442 H 0.57755 0.83704 0.50082 0.0
H443 H 0.62355 0.83619 0.50358 0.0
C444 C 0.42109 0.33709 0.67944 0.0
C445 C 0.44863 0.34103 0.65466 0.0
C446 C 0.44735 0.4042 0.66214 0.0
C447 C 0.42094 0.40032 0.68816 0.0
N448 N 0.39037 0.36306 0.72852 0.0
N449 N 0.4953 0.37729 0.63094 0.0
C450 C 0.41029 0.3667 0.69907 0.0
C451 C 0.46419 0.37429 0.64885 0.0
N452 N 0.4038 0.30572 0.68288 0.0
N453 N 0.45475 0.43586 0.64819 0.0
H454 H 0.50893 0.35579 0.62163 0.0
H455 H 0.50942 0.40077 0.62877 0.0
H456 H 0.4421 0.45849 0.65571 0.0
H457 H 0.47102 0.43903 0.62652 0.0
H458 H 0.381 0.30252 0.69781 0.0
H459 H 0.41024 0.28345 0.6685 0.0
H460 H 0.38454 0.3391 0.7394 0.0
H461 H 0.38295 0.38423 0.74413 0.0
C462 C 0.85887 0.22513 0.96538 0.0
C463 C 0.87722 0.20478 0.94037 0.0
C464 C 0.82572 0.16556 0.93248 0.0
C465 C 0.8082 0.18439 0.9593 0.0
N466 N 0.80839 0.22937 0.0042 0.0
N467 N 0.88072 0.15356 0.90301 0.0
C468 C 0.82479 0.21355 0.97654 0.0
C469 C 0.86135 0.17441 0.9247 0.0
N470 N 0.87377 0.25582 0.97775 0.0
N471 N 0.80782 0.13999 0.9136 0.0
H472 H 0.90661 0.15979 0.89571 0.0
H473 H 0.87218 0.12893 0.89416 0.0
H474 H 0.78181 0.13222 0.91888 0.0
H475 H 0.81766 0.12821 0.89102 0.0
H476 H 0.86042 0.27373 -0.00675 0.0
H477 H 0.89903 0.26455 0.97058 0.0
H478 H 0.82046 0.24845 0.02025 0.0
H479 H 0.78322 0.22172 0.01268 0.0
C480 C 0.28477 0.01456 0.40581 0.0
C481 C 0.25778 0.03936 0.40666 0.0
C482 C 0.25847 0.04124 0.343 0.0
C483 C 0.28504 0.016 0.34207 0.0
N484 N 0.31494 0.97086 0.37146 0.0
N485 N 0.21134 0.06736 0.37631 0.0
C486 C 0.29532 5e-05 0.37317 0.0
C487 C 0.24206 0.04964 0.37525 0.0
N488 N 0.30211 0.00657 0.4356 0.0
N489 N 0.25059 0.0591 0.31388 0.0
H490 H 0.19825 0.07315 0.39962 0.0
H491 H 0.19699 0.07287 0.3541 0.0
H492 H 0.26256 0.05482 0.28978 0.0
H493 H 0.23436 0.08046 0.31439 0.0
H494 H 0.32471 -0.00818 0.43559 0.0
H495 H 0.29592 0.01691 0.46013 0.0
H496 H 0.32051 0.95633 0.39315 0.0
H497 H 0.32233 0.95907 0.34784 0.0
C498 C 0.1268 0.02742 0.61587 0.0
C499 C 0.12895 0.03775 0.65161 0.0
C500 C 0.17734 0.07852 0.63789 0.0
C501 C 0.1709 0.07245 0.60175 0.0
N502 N 0.13215 0.04704 0.55703 0.0
N503 N 0.15084 0.07995 0.69504 0.0
C504 C 0.14357 0.04853 0.59081 0.0
C505 C 0.15272 0.06522 0.6623 0.0
N506 N 0.10994 -0.00307 0.60576 0.0
N507 N 0.20748 0.09572 0.64915 0.0
H508 H 0.13165 0.07281 0.71317 0.0
H509 H 0.16575 0.10208 0.70264 0.0
H510 H 0.22748 0.10392 0.63231 0.0
H511 H 0.21443 0.09804 0.67541 0.0
H512 H 0.11044 -0.01282 0.58014 0.0
H513 H 0.09922 0.97944 0.62342 0.0
H514 H 0.11021 0.03192 0.5489 0.0
H515 H 0.14161 0.06386 0.53814 0.0
C516 C 0.15022 0.97223 0.87668 0.0
C517 C 0.1584 0.96067 0.84232 0.0
C518 C 0.20574 0.92601 0.86531 0.0
C519 C 0.19274 0.93201 0.8995 0.0
N520 N 0.14905 0.95796 0.93748 0.0
N521 N 0.1915 0.92255 0.80403 0.0
C522 C 0.16434 0.95477 0.90532 0.0
C523 C 0.18587 0.93686 0.83649 0.0
N524 N 0.12922 0.00012 0.88193 0.0
N525 N 0.23721 0.91015 0.86042 0.0
H526 H 0.17685 0.92842 0.78215 0.0
H527 H 0.20858 0.90222 0.79941 0.0
H528 H 0.25279 0.90261 0.88114 0.0
H529 H 0.24955 0.90799 0.83621 0.0
H530 H 0.12507 0.01167 0.90641 0.0
H531 H 0.11911 0.014 0.86142 0.0
H532 H 0.12578 0.97115 0.94189 0.0
H533 H 0.15746 0.94494 0.95921 0.0
C534 C 0.26623 0.93231 0.1041 0.0
C535 C 0.2804 0.90104 0.0906 0.0
C536 C 0.32967 0.90696 0.1317 0.0
C537 C 0.31742 0.93988 0.14281 0.0
N538 N 0.27766 -0.0131 0.1356 0.0
N539 N 0.32932 0.86228 0.08624 0.0
C540 C 0.28666 0.95345 0.12792 0.0
C541 C 0.3132 0.88937 0.10289 0.0
N542 N 0.23278 0.94113 0.09526 0.0
N543 N 0.35605 0.89177 0.14958 0.0
H544 H 0.31845 0.84888 0.06464 0.0
H545 H 0.35503 0.85527 0.09173 0.0
H546 H 0.36837 0.9034 0.17143 0.0
H547 H 0.36334 0.86621 0.14487 0.0
H548 H 0.21968 0.96168 0.10717 0.0
H549 H 0.21683 0.92608 0.07819 0.0
H550 H 0.25767 -0.00063 0.12272 0.0
H551 H 0.29221 0.0033 0.15268 0.0
C552 C 0.33307 0.26347 0.00219 0.0
C553 C 0.31735 0.29358 0.01656 0.0
C554 C 0.37111 0.30861 0.04971 0.0
C555 C 0.38578 0.27722 0.03733 0.0
N556 N 0.37996 0.22226 0.0059 0.0
N557 N 0.3184 0.34195 0.05799 0.0
C558 C 0.36653 0.25388 0.01474 0.0
C559 C 0.33557 0.31548 0.04137 0.0
N560 N 0.31663 0.24488 0.97565 0.0
N561 N 0.39142 0.33211 0.06886 0.0
H562 H 0.29226 0.34776 0.05269 0.0
H563 H 0.32895 0.3564 0.07904 0.0
H564 H 0.41734 0.32751 0.07622 0.0
H565 H 0.3836 0.35716 0.07532 0.0
H566 H 0.32845 0.22493 0.96148 0.0
H567 H 0.29204 0.25116 0.96579 0.0
H568 H 0.36555 0.20252 -0.00724 0.0
H569 H 0.40482 0.21471 0.01393 0.0
C570 C 0.9174 0.82581 0.19211 0.0
C571 C 0.94883 0.8318 0.17275 0.0
C572 C 0.94612 0.89414 0.18518 0.0
C573 C 0.91536 0.88825 0.20569 0.0
N574 N 0.87857 0.84767 0.23728 0.0
N575 N -0.00083 0.86948 0.16131 0.0
C576 C 0.90322 0.85376 0.21199 0.0
C577 C 0.96526 0.86528 0.17297 0.0
N578 N 0.89985 0.79431 0.18996 0.0
N579 N 0.95567 0.92675 0.17477 0.0
H580 H 0.01411 0.84852 0.15298 0.0
H581 H 0.0135 0.89296 0.16371 0.0
H582 H 0.94136 0.94877 0.18072 0.0
H583 H 0.97583 0.93142 0.15684 0.0
H584 H 0.87474 0.79003 0.20039 0.0
H585 H 0.90899 0.77315 0.17546 0.0
H586 H 0.87108 0.8228 0.24498 0.0
H587 H 0.86858 0.86749 0.25316 0.0
C588 C 0.13317 0.67326 0.57416 0.0
C589 C 0.12847 0.64932 0.54565 0.0
C590 C 0.06464 0.64903 0.55461 0.0
C591 C 0.06913 0.6768 0.57941 0.0
N592 N 0.10773 0.72021 0.60767 0.0
N593 N 0.0892 0.61942 0.50431 0.0
C594 C 0.10342 0.69025 0.58797 0.0
C595 C 0.09406 0.63839 0.53466 0.0
N596 N 0.1658 0.67895 0.58882 0.0
N597 N 0.03257 0.63208 0.55081 0.0
H598 H 0.10991 0.6122 0.488 0.0
H599 H 0.06435 0.61394 0.49349 0.0
H600 H 0.01057 0.63829 0.56585 0.0
H601 H 0.02886 0.60952 0.53545 0.0
H602 H 0.16985 0.69366 0.61176 0.0
H603 H 0.18815 0.66599 0.58034 0.0
H604 H 0.13222 0.73282 0.6115 0.0
H605 H 0.08668 0.7345 0.61716 0.0
C606 C 0.9268 0.63298 0.70938 0.0
C607 C 0.91486 0.64675 0.67767 0.0
C608 C 0.87027 0.59969 0.67214 0.0
C609 C 0.87995 0.58783 0.70539 0.0
N610 N 0.9106 0.59986 0.75982 0.0
N611 N 0.86798 0.64926 0.63524 0.0
C612 C 0.90609 0.60656 0.72537 0.0
C613 C 0.88423 0.63205 0.66109 0.0
N614 N 0.95875 0.64331 0.7233 0.0
N615 N 0.84967 0.57936 0.65003 0.0
H616 H 0.87639 0.67394 0.62759 0.0
H617 H 0.84384 0.64084 0.62445 0.0
H618 H 0.84084 0.55427 0.65569 0.0
H619 H 0.84485 0.58587 0.62433 0.0
H620 H 0.96988 0.63124 0.74443 0.0
H621 H 0.97587 0.66129 0.71182 0.0
H622 H 0.92714 0.61506 0.77617 0.0
H623 H 0.89491 0.58175 0.77294 0.0
C624 C 0.12147 0.20065 0.47927 0.0
C625 C 0.14576 0.17689 0.46474 0.0
C626 C 0.10904 0.17111 0.41247 0.0
C627 C 0.08869 0.19942 0.4245 0.0
N628 N 0.08374 0.24765 0.46612 0.0
N629 N 0.1671 0.14727 0.41253 0.0
C630 C 0.0972 0.21618 0.45698 0.0
C631 C 0.14093 0.16428 0.42985 0.0
N632 N 0.12026 0.20743 0.51437 0.0
N633 N 0.09748 0.14969 0.3856 0.0
H634 H 0.19218 0.14427 0.42294 0.0
H635 H 0.16523 0.14013 0.38617 0.0
H636 H 0.07281 0.15167 0.37395 0.0
H637 H 0.11052 0.12723 0.37808 0.0
H638 H 0.10094 0.22269 0.52591 0.0
H639 H 0.13535 0.1944 0.53224 0.0
H640 H 0.09169 0.26162 0.48858 0.0
H641 H 0.06849 0.26184 0.44937 0.0
C642 C 0.5528 0.35974 0.20147 0.0
C643 C 0.55013 0.39345 0.18812 0.0
C644 C 0.5171 0.36968 0.13779 0.0
C645 C 0.52324 0.33564 0.149 0.0
N646 N 0.55186 0.29781 0.18864 0.0
N647 N 0.53643 0.43008 0.14034 0.0
C648 C 0.54225 0.33045 0.18022 0.0
C649 C 0.53408 0.39837 0.15539 0.0
N650 N 0.565 0.35576 0.23459 0.0
N651 N 0.49419 0.3747 0.11101 0.0
H652 H 0.54989 0.45141 0.15189 0.0
H653 H 0.5283 0.43424 0.11492 0.0
H654 H 0.48048 0.35432 0.098 0.0
H655 H 0.48608 0.39916 0.10409 0.0
H656 H 0.56396 0.33214 0.24713 0.0
H657 H 0.57359 0.37666 0.25062 0.0
H658 H 0.56898 0.29294 0.20903 0.0
H659 H 0.54533 0.27568 0.17345 0.0
C660 C 0.35586 0.81083 0.9702 0.0
C661 C 0.32348 0.7974 0.95616 0.0
C662 C 0.35522 0.76077 0.91437 0.0
C663 C 0.38719 0.77048 0.93178 0.0
N664 N 0.41896 0.80377 0.97641 0.0
N665 N 0.2911 0.75946 0.91585 0.0
C666 C 0.38786 0.79548 0.9596 0.0
C667 C 0.32278 0.77253 0.92825 0.0
N668 N 0.35588 0.83846 -0.0066 0.0
N669 N 0.35602 0.74056 0.88453 0.0
H670 H 0.26689 0.76871 0.92446 0.0
H671 H 0.28859 0.73835 0.8984 0.0
H672 H 0.3794 0.73139 0.87384 0.0
H673 H 0.33408 0.73512 0.86879 0.0
H674 H 0.37869 0.85159 0.00229 0.0
H675 H 0.33278 0.85028 0.00162 0.0
H676 H 0.42066 0.8186 -0.00053 0.0
H677 H 0.44319 0.79423 0.96825 0.0
C678 C 0.92176 0.36687 0.74998 0.0
C679 C 0.9046 0.39392 0.76862 0.0
C680 C 0.90038 0.35698 0.81928 0.0
C681 C 0.9234 0.33308 0.80297 0.0
N682 N 0.96252 0.3204 0.75442 0.0
N683 N 0.88508 0.41715 0.8245 0.0
C684 C 0.93586 0.33924 0.76866 0.0
C685 C 0.89586 0.3897 0.80427 0.0
N686 N 0.92364 0.36673 0.71443 0.0
N687 N 0.88196 0.34821 0.84852 0.0
H688 H 0.88395 0.44236 0.81553 0.0
H689 H 0.88142 0.41562 0.85134 0.0
H690 H 0.88268 0.3236 0.85908 0.0
H691 H 0.86273 0.36391 0.85956 0.0
H692 H 0.93323 0.34585 0.69978 0.0
H693 H 0.91185 0.38533 0.69945 0.0
H694 H 0.97435 0.32647 0.73073 0.0
H695 H 0.97567 0.30149 0.76772 0.0
C696 C 0.36471 0.1395 0.52289 0.0
C697 C 0.33332 0.14165 0.54279 0.0
C698 C 0.36067 0.18605 0.58171 0.0
C699 C 0.39182 0.18448 0.56132 0.0
N700 N 0.42718 0.15459 0.51844 0.0
N701 N 0.30335 0.15977 0.59522 0.0
C702 C 0.39501 0.15947 0.53376 0.0
C703 C 0.33198 0.16262 0.57365 0.0
N704 N 0.36498 0.11958 0.49282 0.0
N705 N 0.35799 0.21095 0.60762 0.0
H706 H 0.28212 0.14251 0.58993 0.0
H707 H 0.3019 0.17205 0.61966 0.0
H708 H 0.37882 0.22807 0.61466 0.0
H709 H 0.33463 0.21608 0.62084 0.0
H710 H 0.38556 0.1202 0.47484 0.0
H711 H 0.3436 0.10356 0.48485 0.0
H712 H 0.43208 0.13454 0.5005 0.0
H713 H 0.44993 0.16885 0.52591 0.0
C714 C 0.53488 0.63906 0.29945 0.0
C715 C 0.50349 0.63882 0.31957 0.0
C716 C 0.49007 0.57852 0.30118 0.0
C717 C 0.52039 0.57938 0.2795 0.0
N718 N 0.56786 0.61207 0.25242 0.0
N719 N 0.44785 0.61146 0.33501 0.0
C720 C 0.5418 0.61012 0.27706 0.0
C721 C 0.48004 0.60944 0.31906 0.0
N722 N 0.55855 0.66652 0.30253 0.0
N723 N 0.47172 0.54786 0.30575 0.0
H724 H 0.43971 0.63391 0.34809 0.0
H725 H 0.42806 0.59217 0.33269 0.0
H726 H 0.4784 0.52462 0.29316 0.0
H727 H 0.45171 0.54475 0.32412 0.0
H728 H 0.58381 0.66637 0.29181 0.0
H729 H 0.55389 0.68868 0.31789 0.0
H730 H 0.58185 0.63494 0.24689 0.0
H731 H 0.57352 0.59154 0.23523 0.0
C732 C 0.09554 0.8101 0.08081 0.0
C733 C 0.08151 0.77813 0.06669 0.0
C734 C 0.11583 0.7869 0.01351 0.0
C735 C 0.13351 0.81604 0.02977 0.0
N736 N 0.14634 0.84932 0.08303 0.0
N737 N 0.08439 0.73238 0.02238 0.0
C738 C 0.12516 0.82605 0.06461 0.0
C739 C 0.09331 0.76543 0.03376 0.0
N740 N 0.07981 0.82619 0.10868 0.0
N741 N 0.11957 0.78029 0.97855 0.0
H742 H 0.06931 0.71509 0.0371 0.0
H743 H 0.09519 0.72091 5e-05 0.0
H744 H 0.13484 0.79613 0.96246 0.0
H745 H 0.10453 0.76127 0.96496 0.0
H746 H 0.08738 0.8511 0.11767 0.0
H747 H 0.0567 0.81661 0.12014 0.0
H748 H 0.14277 0.85478 0.10954 0.0
H749 H 0.1698 0.86 0.07323 0.0
C750 C 0.70843 0.91966 0.60343 0.0
C751 C 0.68591 0.89232 0.58997 0.0
C752 C 0.64196 0.90657 0.63426 0.0
C753 C 0.66151 0.93746 0.64337 0.0
N754 N 0.71133 0.97633 0.63221 0.0
N755 N 0.62704 0.86568 0.58772 0.0
C756 C 0.6943 0.94487 0.62683 0.0
C757 C 0.65147 0.88733 0.60402 0.0
N758 N 0.74352 0.9209 0.59509 0.0
N759 N 0.61521 0.89468 0.65513 0.0
H760 H 0.63172 0.85272 0.56407 0.0
H761 H 0.60071 0.86392 0.59563 0.0
H762 H 0.60899 0.90653 0.67903 0.0
H763 H 0.6023 0.87065 0.65079 0.0
H764 H 0.76154 0.93858 0.60681 0.0
H765 H 0.75536 0.90191 0.57954 0.0
H766 H 0.73352 -0.01591 0.61798 0.0
H767 H 0.70142 -0.004 0.64829 0.0
C768 C 0.75226 0.93045 0.33506 0.0
C769 C 0.78238 0.95317 0.33537 0.0
C770 C 0.79613 0.93766 0.3952 0.0
C771 C 0.76496 0.91639 0.39547 0.0
N772 N 0.70987 0.89703 0.36873 0.0
N773 N 0.82994 -0.01682 0.36666 0.0
C774 C 0.74199 0.91406 0.36626 0.0
C775 C 0.8035 0.95816 0.36574 0.0
N776 N 0.73428 0.92353 0.30463 0.0
N777 N 0.8192 0.9373 0.42257 0.0
H778 H 0.83616 -0.00138 0.34548 0.0
H779 H 0.84389 -0.00937 0.38914 0.0
H780 H 0.81429 0.92296 0.4448 0.0
H781 H 0.84426 0.94916 0.42231 0.0
H782 H 0.71465 0.90415 0.30177 0.0
H783 H 0.7408 0.93537 0.28128 0.0
H784 H 0.69035 0.89766 0.3497 0.0
H785 H 0.70138 0.8846 0.39118 0.0
C786 C 0.80581 0.06476 0.10036 0.0
C787 C 0.77416 0.04987 0.08596 0.0
C788 C 0.7783 0.0011 0.12503 0.0
C789 C 0.80666 0.01877 0.14283 0.0
N790 N 0.84173 0.07185 0.15207 0.0
N791 N 0.7262 0.00714 0.08974 0.0
C792 C 0.81899 0.05182 0.13179 0.0
C793 C 0.75925 0.01883 0.09957 0.0
N794 N 0.82401 0.09049 0.08355 0.0
N795 N 0.77018 0.96709 0.13155 0.0
H796 H 0.71048 0.02008 0.07237 0.0
H797 H 0.71292 -0.01342 0.10167 0.0
H798 H 0.78429 0.95273 0.14914 0.0
H799 H 0.75194 0.95218 0.1168 0.0
H800 H 0.8489 0.09987 0.09153 0.0
H801 H 0.81622 0.09961 0.0595 0.0
H802 H 0.84865 0.09749 0.14649 0.0
H803 H 0.85046 0.0645 0.17644 0.0
C804 C 0.70145 0.05439 0.82765 0.0
C805 C 0.68627 0.02052 0.83067 0.0
C806 C 0.67794 0.03041 0.89333 0.0
C807 C 0.69472 0.06369 0.89068 0.0
N808 N 0.72872 0.10482 0.85698 0.0
N809 N 0.66614 0.97351 0.86659 0.0
C810 C 0.70825 0.07502 0.85828 0.0
C811 C 0.67668 0.00756 0.86366 0.0
N812 N 0.7089 0.06699 0.79542 0.0
N813 N 0.66128 0.02146 0.92357 0.0
H814 H 0.66397 0.95619 0.84528 0.0
H815 H 0.66242 0.96163 0.8904 0.0
H816 H 0.66062 0.03781 0.94566 0.0
H817 H 0.64527 -0.00082 0.92586 0.0
H818 H 0.71565 0.09292 0.79115 0.0
H819 H 0.70648 0.05187 0.77252 0.0
H820 H 0.7426 0.11239 0.8349 0.0
H821 H 0.73435 0.12069 0.87882 0.0
C822 C 0.6042 0.68821 0.90821 0.0
C823 C 0.58273 0.71496 0.92189 0.0
C824 C 0.61491 0.71354 0.97689 0.0
C825 C 0.64019 0.69164 0.96108 0.0
N826 N 0.6631 0.66629 0.90736 0.0
N827 N 0.57544 0.75994 0.96665 0.0
C828 C 0.63616 0.68125 0.92544 0.0
C829 C 0.59027 0.7297 0.9555 0.0
N830 N 0.59367 0.66824 0.8799 0.0
N831 N 0.6132 0.71791 0.01229 0.0
H832 H 0.55972 0.77463 0.9508 0.0
H833 H 0.58261 0.77263 -0.00994 0.0
H834 H 0.62869 0.70428 0.02932 0.0
H835 H 0.59322 0.73167 0.02466 0.0
H836 H 0.60759 0.64677 0.87105 0.0
H837 H 0.56902 0.6701 0.86817 0.0
H838 H 0.66178 0.66096 0.88059 0.0
H839 H 0.68815 0.66329 0.91785 0.0
C840 C 0.02608 0.1106 0.77353 0.0
C841 C 0.01485 0.07747 0.7852 0.0
C842 C -0.01495 0.10443 0.83516 0.0
C843 C -0.00073 0.13729 0.82544 0.0
N844 N 0.0376 0.17141 0.78852 0.0
N845 N -0.01314 0.04171 0.82835 0.0
C846 C 0.02072 0.14042 0.79528 0.0
C847 C -0.00482 0.07404 0.81637 0.0
N848 N 0.0418 0.11353 0.7416 0.0
N849 N 0.96096 0.10243 0.86164 0.0
H850 H -0.00732 0.01888 0.81453 0.0
H851 H 0.97628 0.03739 0.85294 0.0
H852 H 0.95294 0.12413 0.87603 0.0
H853 H 0.94671 0.07982 0.86753 0.0
H854 H 0.04699 0.13721 0.72993 0.0
H855 H 0.04726 0.09214 0.72543 0.0
H856 H 0.05672 0.17434 0.76923 0.0
H857 H 0.03484 0.19379 0.80408 0.0
C858 C 0.89533 0.29381 0.45135 0.0
C859 C 0.89519 0.26851 0.42385 0.0
C860 C 0.83234 0.27702 0.41343 0.0
C861 C 0.83143 0.29798 0.44427 0.0
N862 N 0.86096 0.32805 0.49234 0.0
N863 N 0.86463 0.23535 0.37825 0.0
C864 C 0.86275 0.30728 0.46293 0.0
C865 C 0.86411 0.26034 0.40429 0.0
N866 N 0.9267 0.30514 0.46594 0.0
N867 N 0.80274 0.27307 0.39316 0.0
H868 H 0.88762 0.22308 0.37041 0.0
H869 H 0.84213 0.2253 0.36559 0.0
H870 H 0.77908 0.28489 0.39959 0.0
H871 H 0.80227 0.26064 0.36873 0.0
H872 H 0.92913 0.32571 0.48402 0.0
H873 H 0.95098 0.29566 0.45785 0.0
H874 H 0.88181 0.33241 0.50971 0.0
H875 H 0.83784 0.34013 0.5001 0.0
C876 C 0.57085 0.89042 0.81804 0.0
C877 C 0.56439 0.8973 0.78268 0.0
C878 C 0.51687 0.85273 0.78097 0.0
C879 C 0.52743 0.84213 0.81442 0.0
N880 N 0.56913 0.84735 0.86235 0.0
N881 N 0.53281 0.8844 0.72919 0.0
C882 C 0.55539 0.86025 0.83259 0.0
C883 C 0.53754 0.87855 0.76379 0.0
N884 N 0.59179 0.91286 0.83772 0.0
N885 N 0.48675 0.83869 0.76606 0.0
H886 H 0.54688 0.90377 0.71613 0.0
H887 H 0.51654 0.86879 0.713 0.0
H888 H 0.47077 0.82015 0.77829 0.0
H889 H 0.47591 0.84763 0.7432 0.0
H890 H 0.59475 0.91095 0.86458 0.0
H891 H 0.60314 0.93553 0.82777 0.0
H892 H 0.59195 0.85768 0.87431 0.0
H893 H 0.56026 0.82421 0.87324 0.0
C894 C 0.91646 0.14337 0.29619 0.0
C895 C 0.94237 0.13352 0.32048 0.0
C896 C 0.92399 0.07261 0.31144 0.0
C897 C 0.90034 0.08216 0.28489 0.0
N898 N 0.88285 0.12578 0.24486 0.0
N899 N -0.02196 0.08799 0.34228 0.0
C900 C 0.8994 0.11729 0.27492 0.0
C901 C 0.94855 0.09784 0.32513 0.0
N902 N 0.90621 0.17701 0.29481 0.0
N903 N 0.92163 0.04041 0.32547 0.0
H904 H -0.00254 0.1058 0.35138 0.0
H905 H -0.01493 0.06212 0.34375 0.0
H906 H 0.90237 0.02167 0.31838 0.0
H907 H 0.93632 0.03379 0.34712 0.0
H908 H 0.88487 0.18435 0.27986 0.0
H909 H 0.91621 0.19696 0.31117 0.0
H910 H 0.88414 0.15077 0.23511 0.0
H911 H 0.87143 0.10719 0.2277 0.0
C912 C 0.54372 0.10816 0.71646 0.0
C913 C 0.57205 0.09223 0.69856 0.0
C914 C 0.57411 0.13922 0.65707 0.0
C915 C 0.54271 0.15227 0.67181 0.0
N916 N 0.495 0.14732 0.71327 0.0
N917 N 0.6101 0.08915 0.64794 0.0
C918 C 0.52686 0.13645 0.70111 0.0
C919 C 0.58635 0.10692 0.66792 0.0
N920 N 0.53361 0.09692 0.74852 0.0
N921 N 0.59272 0.15812 0.63322 0.0
H922 H 0.61891 0.06468 0.65399 0.0
H923 H 0.61834 0.09709 0.62344 0.0
H924 H 0.585 0.18242 0.62526 0.0
H925 H 0.61764 0.15146 0.6242 0.0
H926 H 0.51554 0.10976 0.76434 0.0
H927 H 0.54572 0.07658 0.76075 0.0
H928 H 0.48029 0.13418 0.73197 0.0
H929 H 0.48189 0.16802 0.70279 0.0
C930 C 0.13117 0.2914 0.89747 0.0
C931 C 0.13176 0.31681 0.92498 0.0
C932 C 0.06737 0.3175 0.92411 0.0
C933 C 0.06667 0.28892 0.89995 0.0
N934 N 0.09844 0.24304 0.87053 0.0
N935 N 0.09986 0.34665 0.97096 0.0
C936 C 0.09872 0.27417 0.88852 0.0
C937 C 0.09971 0.32777 0.94026 0.0
N938 N 0.16109 0.28464 0.87887 0.0
N939 N 0.03767 0.3359 0.93061 0.0
H940 H 0.12284 0.35288 -0.01496 0.0
H941 H 0.0768 0.35248 -0.01551 0.0
H942 H 0.01373 0.33067 0.91782 0.0
H943 H 0.03797 0.35885 0.94568 0.0
H944 H 0.16099 0.2687 0.85647 0.0
H945 H 0.18521 0.29775 0.88346 0.0
H946 H 0.12141 0.22988 0.86453 0.0
H947 H 0.07538 0.22843 0.86508 0.0
C948 C 0.35894 0.67529 0.41577 0.0
C949 C 0.37398 0.70775 0.42721 0.0
C950 C 0.31787 0.72414 0.45364 0.0
C951 C 0.30254 0.69219 0.44096 0.0
N952 N 0.30548 0.64139 0.40296 0.0
N953 N 0.36729 0.76565 0.45129 0.0
C954 C 0.32222 0.66895 0.41989 0.0
C955 C 0.35322 0.73311 0.44422 0.0
N956 N 0.37986 0.65026 0.40155 0.0
N957 N 0.29938 0.74496 0.47608 0.0
H958 H 0.39351 0.77263 0.44583 0.0
H959 H 0.35242 0.78637 0.46024 0.0
H960 H 0.27337 0.73929 0.48344 0.0
H961 H 0.31049 0.76658 0.48931 0.0
H962 H 0.37111 0.62473 0.3965 0.0
H963 H 0.40683 0.65421 0.39717 0.0
H964 H 0.31768 0.6256 0.38437 0.0
H965 H 0.27836 0.63626 0.4049 0.0
C966 C 0.80201 0.55497 0.85276 0.0
C967 C 0.78427 0.52482 0.83863 0.0
C968 C 0.74045 0.52795 0.88562 0.0
C969 C 0.76054 0.55584 0.90145 0.0
N970 N 0.81535 0.58949 0.90472 0.0
N971 N 0.73951 0.47941 0.84379 0.0
C972 C 0.79277 0.56747 0.88636 0.0
C973 C 0.75419 0.51036 0.85561 0.0
N974 N 0.82664 0.5727 0.83349 0.0
N975 N 0.70782 0.51913 0.89844 0.0
H976 H 0.74896 0.46593 0.82192 0.0
H977 H 0.71985 0.46578 0.85718 0.0
H978 H 0.69703 0.53144 0.92034 0.0
H979 H 0.69039 0.50151 0.88585 0.0
H980 H 0.83768 0.59674 0.84144 0.0
H981 H 0.83315 0.56553 0.80793 0.0
H982 H 0.84075 0.59607 0.89616 0.0
H983 H 0.81033 0.59798 0.93022 0.0
C984 C 0.65441 0.57326 0.15559 0.0
C985 C 0.63035 0.54637 0.14397 0.0
C986 C 0.64306 0.5609 0.08362 0.0
C987 C 0.67064 0.58428 0.09511 0.0
N988 N 0.70838 0.60527 0.14254 0.0
N989 N 0.6099 0.50837 0.09637 0.0
C990 C 0.67811 0.58832 0.13127 0.0
C991 C 0.62707 0.53826 0.1078 0.0
N992 N 0.65369 0.58574 0.18925 0.0
N993 N 0.63071 0.56133 0.05019 0.0
H994 H 0.59975 0.48978 0.1132 0.0
H995 H 0.6096 0.50017 0.07024 0.0
H996 H 0.63968 0.57923 0.03209 0.0
H997 H 0.60856 0.54668 0.04182 0.0
H998 H 0.66867 0.60749 0.19779 0.0
H999 H 0.63538 0.57709 0.20759 0.0
H1000 H 0.71623 0.60608 0.16859 0.0
H1001 H 0.72761 0.61493 0.12562 0.0
C1002 C 0.70476 0.41978 0.35327 0.0
C1003 C 0.69051 0.42396 0.38725 0.0
C1004 C 0.64719 0.46348 0.36462 0.0
C1005 C 0.65705 0.45388 0.3301 0.0
N1006 N 0.69243 0.41819 0.29155 0.0
N1007 N 0.64408 0.44602 0.42446 0.0
C1008 C 0.68538 0.43106 0.32429 0.0
C1009 C 0.66085 0.44512 0.39291 0.0
N1010 N 0.73707 0.40545 0.34871 0.0
N1011 N 0.62523 0.49053 0.37047 0.0
H1012 H 0.65201 0.43201 0.44573 0.0
H1013 H 0.62009 0.45807 0.4285 0.0
H1014 H 0.61561 0.50531 0.3504 0.0
H1015 H 0.61984 0.50064 0.39531 0.0
H1016 H 0.75014 0.40474 0.32481 0.0
H1017 H 0.75246 0.39783 0.36952 0.0
H1018 H 0.71032 0.3986 0.28673 0.0
H1019 H 0.6781 0.42434 0.26954 0.0
C1020 C 0.81542 0.39995 0.62824 0.0
C1021 C 0.80228 0.43295 0.63769 0.0
C1022 C 0.75572 0.42519 0.59365 0.0
C1023 C 0.77168 0.39425 0.58146 0.0
N1024 N 0.82098 0.35584 0.58282 0.0
N1025 N 0.76278 0.47939 0.62703 0.0
C1026 C 0.80267 0.38255 0.59761 0.0
C1027 C 0.77308 0.44626 0.61986 0.0
N1028 N 0.83938 0.38472 0.64915 0.0
N1029 N 0.72346 0.43379 0.58113 0.0
H1030 H 0.77476 0.49545 0.64621 0.0
H1031 H 0.74424 0.49187 0.61221 0.0
H1032 H 0.70974 0.41876 0.56226 0.0
H1033 H 0.70889 0.45407 0.59159 0.0
H1034 H 0.8471 0.35917 0.64536 0.0
H1035 H 0.84878 0.39629 0.67238 0.0
H1036 H 0.84578 0.34889 0.59148 0.0
H1037 H 0.81324 0.34284 0.55977 0.0
C1038 C 0.40405 0.08689 0.17183 0.0
C1039 C 0.38858 0.09265 0.20498 0.0
C1040 C 0.40275 0.15492 0.20179 0.0
C1041 C 0.42172 0.14836 0.17045 0.0
N1042 N 0.44747 0.10675 0.13028 0.0
N1043 N 0.37637 0.13097 0.25391 0.0
C1044 C 0.42435 0.11395 0.15672 0.0
C1045 C 0.38889 0.12636 0.22074 0.0
N1046 N 0.39842 0.0559 0.1542 0.0
N1047 N 0.39655 0.1883 0.21257 0.0
H1048 H 0.36509 0.11072 0.26805 0.0
H1049 H 0.37942 0.15423 0.26824 0.0
H1050 H 0.40562 0.20988 0.19902 0.0
H1051 H 0.37984 0.1946 0.2332 0.0
H1052 H 0.40626 0.05154 0.12846 0.0
H1053 H 0.38254 0.03589 0.16398 0.0
H1054 H 0.4529 0.08154 0.1218 0.0
H1055 H 0.46414 0.12554 0.11936 0.0
C1056 C 0.06193 0.84725 0.65671 0.0
C1057 C 0.02747 0.83246 0.6609 0.0
C1058 C 0.01763 0.87344 0.70964 0.0
C1059 C 0.04999 0.8912 0.70185 0.0
N1060 N 0.09647 0.90069 0.65939 0.0
N1061 N 0.96907 0.83826 0.68582 0.0
C1062 C 0.07029 0.87986 0.67283 0.0
C1063 C 0.00419 0.84745 0.68578 0.0
N1064 N 0.08729 0.82978 0.63866 0.0
N1065 N 0.00034 0.88009 0.74024 0.0
H1066 H 0.95753 0.82104 0.66742 0.0
H1067 H 0.95077 0.85089 0.7016 0.0
H1068 H 0.01006 0.8975 0.75943 0.0
H1069 H -0.02165 0.86538 0.74815 0.0
H1070 H 0.11349 0.83883 0.63751 0.0
H1071 H 0.08338 0.80449 0.62872 0.0
H1072 H 0.10994 0.89412 0.63654 0.0
H1073 H 0.10143 0.92624 0.66815 0.0
C1074 C 0.4156 0.86377 0.32291 0.0
C1075 C 0.43892 0.8404 0.30619 0.0
C1076 C 0.43938 0.87661 0.25487 0.0
C1077 C 0.42145 0.90282 0.27402 0.0
N1078 N 0.40009 0.92379 0.33005 0.0
N1079 N 0.47992 0.82986 0.25875 0.0
C1080 C 0.41167 0.89716 0.30916 0.0
C1081 C 0.45279 0.84818 0.2728 0.0
N1082 N 0.39608 0.85383 0.35107 0.0
N1083 N 0.44238 0.8778 0.21944 0.0
H1084 H 0.49248 0.81035 0.27176 0.0
H1085 H 0.49269 0.83694 0.23583 0.0
H1086 H 0.43087 0.89679 0.20476 0.0
H1087 H 0.4526 0.85752 0.20436 0.0
H1088 H 0.37661 0.86919 0.36217 0.0
H1089 H 0.39611 0.82873 0.36054 0.0
H1090 H 0.39552 0.92122 0.35666 0.0
H1091 H 0.39911 0.94934 0.32197 0.0
C1092 C 0.83334 0.67424 0.06733 0.0
C1093 C 0.83062 0.66246 0.03209 0.0
C1094 C 0.89033 0.68495 0.02032 0.0
C1095 C 0.89149 0.70028 0.05435 0.0
N1096 N 0.86274 0.71367 0.10907 0.0
N1097 N 0.85399 0.65994 0.97364 0.0
C1098 C 0.86275 0.69583 0.07774 0.0
C1099 C 0.85841 0.66874 0.00815 0.0
N1100 N 0.80778 0.66485 0.09074 0.0
N1101 N 0.92013 0.68469 0.00015 0.0
H1102 H 0.83124 0.64723 0.96389 0.0
H1103 H 0.87169 0.6675 0.9543 0.0
H1104 H 0.9443 0.69569 0.00845 0.0
H1105 H 0.92184 0.67076 0.9766 0.0
H1106 H 0.81012 0.66949 0.11751 0.0
H1107 H 0.78527 0.65 0.08375 0.0
H1108 H 0.84095 0.71447 0.12559 0.0
H1109 H 0.88356 0.73019 0.11743 0.0
C1110 C 0.60556 0.25377 0.53862 0.0
C1111 C 0.57699 0.27506 0.54743 0.0
C1112 C 0.60043 0.32019 0.5098 0.0
C1113 C 0.6324 0.30208 0.50639 0.0
N1114 N 0.66496 0.24974 0.51698 0.0
N1115 N 0.54707 0.32909 0.54322 0.0
C1116 C 0.63475 0.26808 0.52007 0.0
C1117 C 0.57423 0.30838 0.53339 0.0
N1118 N 0.6045 0.21959 0.54748 0.0
N1119 N 0.59467 0.34799 0.48942 0.0
H1120 H 0.52687 0.32097 0.5599 0.0
H1121 H 0.54596 0.35515 0.5369 0.0
H1122 H 0.61255 0.35602 0.47033 0.0
H1123 H 0.57067 0.36043 0.48853 0.0
H1124 H 0.62239 0.20154 0.53815 0.0
H1125 H 0.58395 0.20842 0.56187 0.0
H1126 H 0.67021 0.2286 0.53227 0.0
H1127 H 0.68515 0.25512 0.49955 0.0
C1128 C 0.19776 0.38973 0.10722 0.0
C1129 C 0.1882 0.40073 0.07369 0.0
C1130 C 0.15879 0.45067 0.10014 0.0
C1131 C 0.16382 0.43663 0.13343 0.0
N1132 N 0.18275 0.38953 0.16837 0.0
N1133 N 0.15589 0.43935 0.03782 0.0
C1134 C 0.1821 0.40539 0.13701 0.0
C1135 C 0.168 0.43082 0.06991 0.0
N1136 N 0.22227 0.36472 0.11061 0.0
N1137 N 0.14555 0.48309 0.0975 0.0
H1138 H 0.1616 0.42526 0.01502 0.0
H1139 H 0.13778 0.45871 0.03411 0.0
H1140 H 0.1386 0.49823 0.11924 0.0
H1141 H 0.14452 0.49614 0.07415 0.0
H1142 H 0.23274 0.35813 0.13454 0.0
H1143 H 0.23483 0.3531 0.08927 0.0
H1144 H 0.19258 0.36486 0.17155 0.0
H1145 H 0.17019 0.39941 0.19049 0.0
C1146 C 0.31032 0.46275 0.84968 0.0
C1147 C 0.28988 0.45818 0.81878 0.0
C1148 C 0.24858 0.41891 0.8484 0.0
C1149 C 0.2705 0.42135 0.87839 0.0
N1150 N 0.32423 0.44156 0.90686 0.0
N1151 N 0.24315 0.42803 0.78647 0.0
C1152 C 0.30194 0.44221 0.87889 0.0
C1153 C 0.25994 0.43522 0.8175 0.0
N1154 N 0.33693 0.48755 0.85145 0.0
N1155 N 0.21635 0.40195 0.84983 0.0
H1156 H 0.25073 0.43951 0.76323 0.0
H1157 H 0.22367 0.40858 0.78306 0.0
H1158 H 0.20707 0.38945 0.87194 0.0
H1159 H 0.1975 0.40264 0.83015 0.0
H1160 H 0.35016 0.49489 0.87438 0.0
H1161 H 0.34416 0.50281 0.83046 0.0
H1162 H 0.34943 0.45313 0.90726 0.0
H1163 H 0.31857 0.42716 0.9289 0.0
C1164 C 0.30515 0.53643 0.56787 0.0
C1165 C 0.28215 0.56424 0.57473 0.0
C1166 C 0.29928 0.56567 0.6361 0.0
C1167 C 0.31837 0.53509 0.63021 0.0
N1168 N 0.33721 0.48887 0.59152 0.0
N1169 N 0.25153 0.60041 0.61679 0.0
C1170 C 0.32076 0.51973 0.59634 0.0
C1171 C 0.27764 0.57761 0.60924 0.0
N1172 N 0.31321 0.52693 0.53428 0.0
N1173 N 0.30277 0.584 0.66696 0.0
H1174 H 0.23381 0.60871 0.59823 0.0
H1175 H 0.24502 0.60815 0.64217 0.0
H1176 H 0.31995 0.57686 0.68653 0.0
H1177 H 0.29191 0.60825 0.67144 0.0
H1178 H 0.33254 0.50923 0.52776 0.0
H1179 H 0.3029 0.53906 0.51276 0.0
H1180 H 0.33633 0.47444 0.56816 0.0
H1181 H 0.34975 0.47645 0.61167 0.0
C1182 C 0.19331 0.55976 0.32099 0.0
C1183 C 0.18098 0.52501 0.32501 0.0
C1184 C 0.17292 0.53576 0.3876 0.0
C1185 C 0.18772 0.56974 0.38406 0.0
N1186 N 0.21836 0.61204 0.34881 0.0
N1187 N 0.16479 0.47777 0.36228 0.0
C1188 C 0.19961 0.58128 0.35111 0.0
C1189 C 0.17269 0.5123 0.35842 0.0
N1190 N 0.19866 0.57229 0.28837 0.0
N1191 N 0.15748 0.5265 0.41834 0.0
H1192 H 0.16397 0.45992 0.34137 0.0
H1193 H 0.16208 0.4663 0.38641 0.0
H1194 H 0.15635 0.54327 0.4401 0.0
H1195 H 0.14291 0.50343 0.42136 0.0
H1196 H 0.20341 0.59849 0.2836 0.0
H1197 H 0.19615 0.5568 0.26571 0.0
H1198 H 0.23111 0.61991 0.3262 0.0
H1199 H 0.2239 0.62849 0.37026 0.0
loop_
_geom_bond_atom_site_label_1
_geom_bond_atom_site_label_2
_geom_bond_distance
_geom_bond_site_symmetry_2
_ccdc_geom_bond_type
C0 O1 1.306 . S
C0 O3 1.160 . S
O1 C0 1.306 . S
O1 Cd2 2.228 . S
Cd2 O1 2.228 . S
Cd2 O6 2.273 1_655 S
Cd2 O10 2.277 . S
O3 C0 1.160 . S
O3 Cd4 2.203 1_655 S
Cd4 O3 2.203 1_455 S
Cd4 O6 2.411 . S
Cd4 O7 2.333 . S
Cd4 O8 2.352 . S
Cd4 O12 2.277 1_455 S
Cd4 O13 2.356 . S
C5 O10 1.209 . S
C5 O12 1.226 . S
O6 Cd2 2.273 1_455 S
O6 Cd4 2.411 . S
O6 C9 1.320 . S
O7 Cd4 2.333 . S
O7 C9 1.214 . S
O8 Cd4 2.352 . S
O8 C11 1.258 . S
C9 O6 1.320 . S
C9 O7 1.214 . S
O10 Cd2 2.277 . S
O10 C5 1.209 . S
C11 O8 1.258 . S
C11 O13 1.282 . S
O12 Cd4 2.277 1_655 S
O12 C5 1.226 . S
O13 Cd4 2.356 . S
O13 C11 1.282 . S
C14 O15 1.306 . S
C14 O17 1.160 . S
O15 C14 1.306 . S
O15 Cd16 2.228 1_655 S
Cd16 O15 2.228 1_455 S
Cd16 O20 2.273 . S
Cd16 O24 2.277 . S
O17 C14 1.160 . S
O17 Cd18 2.225 . S
Cd18 O17 2.225 . S
Cd18 O20 2.398 1_655 S
Cd18 O21 2.310 1_655 S
Cd18 O22 2.363 . S
Cd18 O26 2.270 1_655 S
Cd18 O27 2.361 . S
C19 O24 1.209 . S
C19 O26 1.226 . S
O20 Cd16 2.273 . S
O20 Cd18 2.398 1_455 S
O20 C23 1.320 . S
O21 Cd18 2.310 1_455 S
O21 C23 1.214 . S
O22 Cd18 2.363 . S
O22 C25 1.258 . S
C23 O20 1.320 . S
C23 O21 1.214 . S
O24 Cd16 2.277 . S
O24 C19 1.209 . S
C25 O22 1.258 . S
C25 O27 1.282 . S
O26 Cd18 2.270 1_455 S
O26 C19 1.226 . S
O27 Cd18 2.361 . S
O27 C25 1.282 . S
C28 O29 1.306 . S
C28 O31 1.160 . S
O29 C28 1.306 . S
O29 Cd30 2.228 . S
Cd30 O29 2.228 . S
Cd30 O34 2.273 . S
Cd30 O38 2.277 . S
O31 C28 1.160 . S
O31 Cd32 2.203 . S
Cd32 O31 2.203 . S
Cd32 O34 2.411 . S
Cd32 O35 2.333 . S
Cd32 O36 2.352 . S
Cd32 O40 2.277 . S
Cd32 O41 2.356 . S
C33 O38 1.209 . S
C33 O40 1.226 . S
O34 Cd30 2.273 . S
O34 Cd32 2.411 . S
O34 C37 1.320 . S
O35 Cd32 2.333 . S
O35 C37 1.214 . S
O36 Cd32 2.352 . S
O36 C39 1.258 . S
C37 O34 1.320 . S
C37 O35 1.214 . S
O38 Cd30 2.277 . S
O38 C33 1.209 . S
C39 O36 1.258 . S
C39 O41 1.282 . S
O40 Cd32 2.277 . S
O40 C33 1.226 . S
O41 Cd32 2.356 . S
O41 C39 1.282 . S
C42 O43 1.306 . S
C42 O45 1.160 . S
O43 C42 1.306 . S
O43 Cd44 2.228 . S
Cd44 O43 2.228 . S
Cd44 O48 2.273 . S
Cd44 O52 2.277 . S
O45 C42 1.160 . S
O45 Cd46 2.203 . S
Cd46 O45 2.203 . S
Cd46 O48 2.411 . S
Cd46 O49 2.333 . S
Cd46 O50 2.352 . S
Cd46 O54 2.277 . S
Cd46 O55 2.356 . S
C47 O52 1.209 . S
C47 O54 1.226 . S
O48 Cd44 2.273 . S
O48 Cd46 2.411 . S
O48 C51 1.320 . S
O49 Cd46 2.333 . S
O49 C51 1.214 . S
O50 Cd46 2.352 . S
O50 C53 1.258 . S
C51 O48 1.320 . S
C51 O49 1.214 . S
O52 Cd44 2.277 . S
O52 C47 1.209 . S
C53 O50 1.258 . S
C53 O55 1.282 . S
O54 Cd46 2.277 . S
O54 C47 1.226 . S
O55 Cd46 2.356 . S
O55 C53 1.282 . S
C56 O57 1.306 . S
C56 O59 1.160 . S
O57 C56 1.306 . S
O57 Cd58 2.228 . S
Cd58 O57 2.228 . S
Cd58 O62 2.273 1_655 S
Cd58 O66 2.277 . S
O59 C56 1.160 . S
O59 Cd60 2.203 1_655 S
Cd60 O59 2.203 1_455 S
Cd60 O62 2.411 . S
Cd60 O63 2.333 . S
Cd60 O64 2.352 . S
Cd60 O68 2.277 1_455 S
Cd60 O69 2.356 . S
C61 O66 1.209 . S
C61 O68 1.226 . S
O62 Cd58 2.273 1_455 S
O62 Cd60 2.411 . S
O62 C65 1.320 . S
O63 Cd60 2.333 . S
O63 C65 1.214 . S
O64 Cd60 2.352 . S
O64 C67 1.258 . S
C65 O62 1.320 . S
C65 O63 1.214 . S
O66 Cd58 2.277 . S
O66 C61 1.209 . S
C67 O64 1.258 . S
C67 O69 1.282 . S
O68 Cd60 2.277 1_655 S
O68 C61 1.226 . S
O69 Cd60 2.356 . S
O69 C67 1.282 . S
C70 O71 1.306 . S
C70 O73 1.160 . S
O71 C70 1.306 . S
O71 Cd72 2.228 . S
Cd72 O71 2.228 . S
Cd72 O76 2.273 . S
Cd72 O80 2.277 . S
O73 C70 1.160 . S
O73 Cd74 2.203 . S
Cd74 O73 2.203 . S
Cd74 O76 2.411 . S
Cd74 O77 2.333 . S
Cd74 O78 2.352 . S
Cd74 O82 2.277 . S
Cd74 O83 2.356 . S
C75 O80 1.209 . S
C75 O82 1.226 . S
O76 Cd72 2.273 . S
O76 Cd74 2.411 . S
O76 C79 1.320 . S
O77 Cd74 2.333 . S
O77 C79 1.214 . S
O78 Cd74 2.352 . S
O78 C81 1.258 . S
C79 O76 1.320 . S
C79 O77 1.214 . S
O80 Cd72 2.277 . S
O80 C75 1.209 . S
C81 O78 1.258 . S
C81 O83 1.282 . S
O82 Cd74 2.277 . S
O82 C75 1.226 . S
O83 Cd74 2.356 . S
O83 C81 1.282 . S
C84 O85 1.306 . S
C84 O87 1.160 . S
O85 C84 1.306 . S
O85 Cd86 2.228 . S
Cd86 O85 2.228 . S
Cd86 O90 2.273 . S
Cd86 O94 2.277 . S
O87 C84 1.160 . S
O87 Cd88 2.203 . S
Cd88 O87 2.203 . S
Cd88 O90 2.411 . S
Cd88 O91 2.333 . S
Cd88 O92 2.352 . S
Cd88 O96 2.277 . S
Cd88 O97 2.356 . S
C89 O94 1.209 . S
C89 O96 1.226 . S
O90 Cd86 2.273 . S
O90 Cd88 2.411 . S
O90 C93 1.320 . S
O91 Cd88 2.333 . S
O91 C93 1.214 . S
O92 Cd88 2.352 . S
O92 C95 1.258 . S
C93 O90 1.320 . S
C93 O91 1.214 . S
O94 Cd86 2.277 . S
O94 C89 1.209 . S
C95 O92 1.258 . S
C95 O97 1.282 . S
O96 Cd88 2.277 . S
O96 C89 1.226 . S
O97 Cd88 2.356 . S
O97 C95 1.282 . S
C98 O99 1.306 . S
C98 O101 1.160 . S
O99 C98 1.306 . S
O99 Cd100 2.228 1_655 S
Cd100 O99 2.228 1_455 S
Cd100 O104 2.273 . S
Cd100 O108 2.277 . S
O101 C98 1.160 . S
O101 Cd102 2.220 . S
Cd102 O101 2.220 . S
Cd102 O104 2.401 1_655 S
Cd102 O105 2.316 1_655 S
Cd102 O106 2.361 . S
Cd102 O110 2.271 1_655 S
Cd102 O111 2.360 . S
C103 O108 1.209 . S
C103 O110 1.226 . S
O104 Cd100 2.273 . S
O104 Cd102 2.401 1_455 S
O104 C107 1.320 . S
O105 Cd102 2.316 1_455 S
O105 C107 1.214 . S
O106 Cd102 2.361 . S
O106 C109 1.258 . S
C107 O104 1.320 . S
C107 O105 1.214 . S
O108 Cd100 2.277 . S
O108 C103 1.209 . S
C109 O106 1.258 . S
C109 O111 1.282 . S
O110 Cd102 2.271 1_455 S
O110 C103 1.226 . S
O111 Cd102 2.360 . S
O111 C109 1.282 . S
C112 O113 1.306 . S
C112 O115 1.160 . S
O113 C112 1.306 . S
O113 Cd114 2.228 . S
Cd114 O113 2.228 . S
Cd114 O118 2.273 1_565 S
Cd114 O122 2.277 . S
O115 C112 1.160 . S
O115 Cd116 2.203 1_565 S
Cd116 O115 2.203 1_545 S
Cd116 O118 2.411 . S
Cd116 O119 2.333 . S
Cd116 O120 2.352 . S
Cd116 O124 2.277 1_545 S
Cd116 O125 2.356 . S
C117 O122 1.209 . S
C117 O124 1.226 . S
O118 Cd114 2.273 1_545 S
O118 Cd116 2.411 . S
O118 C121 1.320 . S
O119 Cd116 2.333 . S
O119 C121 1.214 . S
O120 Cd116 2.352 . S
O120 C123 1.258 . S
C121 O118 1.320 . S
C121 O119 1.214 . S
O122 Cd114 2.277 . S
O122 C117 1.209 . S
C123 O120 1.258 . S
C123 O125 1.282 . S
O124 Cd116 2.277 1_565 S
O124 C117 1.226 . S
O125 Cd116 2.356 . S
O125 C123 1.282 . S
C126 O127 1.306 . S
C126 O129 1.160 . S
O127 C126 1.306 . S
O127 Cd128 2.228 . S
Cd128 O127 2.228 . S
Cd128 O132 2.273 . S
Cd128 O136 2.277 . S
O129 C126 1.160 . S
O129 Cd130 2.203 . S
Cd130 O129 2.203 . S
Cd130 O132 2.411 . S
Cd130 O133 2.333 . S
Cd130 O134 2.352 . S
Cd130 O138 2.277 . S
Cd130 O139 2.356 . S
C131 O136 1.209 . S
C131 O138 1.226 . S
O132 Cd128 2.273 . S
O132 Cd130 2.411 . S
O132 C135 1.320 . S
O133 Cd130 2.333 . S
O133 C135 1.214 . S
O134 Cd130 2.352 . S
O134 C137 1.258 . S
C135 O132 1.320 . S
C135 O133 1.214 . S
O136 Cd128 2.277 . S
O136 C131 1.209 . S
C137 O134 1.258 . S
C137 O139 1.282 . S
O138 Cd130 2.277 . S
O138 C131 1.226 . S
O139 Cd130 2.356 . S
O139 C137 1.282 . S
C140 O141 1.306 . S
C140 O143 1.160 . S
O141 C140 1.306 . S
O141 Cd142 2.228 . S
Cd142 O141 2.228 . S
Cd142 O146 2.273 1_545 S
Cd142 O150 2.277 . S
O143 C140 1.160 . S
O143 Cd144 2.203 . S
Cd144 O143 2.203 . S
Cd144 O146 2.411 1_545 S
Cd144 O147 2.333 1_545 S
Cd144 O148 2.352 1_545 S
Cd144 O152 2.277 . S
Cd144 O153 2.356 1_545 S
C145 O150 1.209 . S
C145 O152 1.226 . S
O146 Cd142 2.273 1_565 S
O146 Cd144 2.411 1_565 S
O146 C149 1.320 . S
O147 Cd144 2.333 1_565 S
O147 C149 1.214 . S
O148 Cd144 2.352 1_565 S
O148 C151 1.258 . S
C149 O146 1.320 . S
C149 O147 1.214 . S
O150 Cd142 2.277 . S
O150 C145 1.209 . S
C151 O148 1.258 . S
C151 O153 1.282 . S
O152 Cd144 2.277 . S
O152 C145 1.226 . S
O153 Cd144 2.356 1_565 S
O153 C151 1.282 . S
C154 O155 1.306 1_556 S
C154 O157 1.160 . S
O155 C154 1.306 1_554 S
O155 Cd156 2.228 . S
Cd156 O155 2.228 . S
Cd156 O160 2.273 . S
Cd156 O164 2.277 . S
O157 C154 1.160 . S
O157 Cd158 2.199 1_556 S
Cd158 O157 2.199 1_554 S
Cd158 O160 2.415 . S
Cd158 O161 2.337 . S
Cd158 O162 2.342 1_554 S
Cd158 O166 2.284 . S
Cd158 O167 2.350 1_554 S
C159 O164 1.209 . S
C159 O166 1.226 . S
O160 Cd156 2.273 . S
O160 Cd158 2.415 . S
O160 C163 1.320 . S
O161 Cd158 2.337 . S
O161 C163 1.214 . S
O162 Cd158 2.342 1_556 S
O162 C165 1.258 . S
C163 O160 1.320 . S
C163 O161 1.214 . S
O164 Cd156 2.277 . S
O164 C159 1.209 . S
C165 O162 1.258 . S
C165 O167 1.282 . S
O166 Cd158 2.284 . S
O166 C159 1.226 . S
O167 Cd158 2.350 1_556 S
O167 C165 1.282 . S
C168 O169 1.306 . S
C168 O171 1.160 . S
O169 C168 1.306 . S
O169 Cd170 2.228 . S
Cd170 O169 2.228 . S
Cd170 O174 2.273 1_554 S
Cd170 O178 2.277 . S
O171 C168 1.160 . S
O171 Cd172 2.204 1_554 S
Cd172 O171 2.204 1_556 S
Cd172 O174 2.411 . S
Cd172 O175 2.332 . S
Cd172 O176 2.351 . S
Cd172 O180 2.277 1_556 S
Cd172 O181 2.356 . S
C173 O178 1.209 . S
C173 O180 1.226 . S
O174 Cd170 2.273 1_556 S
O174 Cd172 2.411 . S
O174 C177 1.320 . S
O175 Cd172 2.332 . S
O175 C177 1.214 . S
O176 Cd172 2.351 . S
O176 C179 1.258 . S
C177 O174 1.320 . S
C177 O175 1.214 . S
O178 Cd170 2.277 . S
O178 C173 1.209 . S
C179 O176 1.258 . S
C179 O181 1.282 . S
O180 Cd172 2.277 1_554 S
O180 C173 1.226 . S
O181 Cd172 2.356 . S
O181 C179 1.282 . S
C182 O183 1.306 . S
C182 O185 1.160 . S
O183 C182 1.306 . S
O183 Cd184 2.228 . S
Cd184 O183 2.228 . S
Cd184 O188 2.273 1_556 S
Cd184 O192 2.277 . S
O185 C182 1.160 . S
O185 Cd186 2.203 1_556 S
Cd186 O185 2.203 1_554 S
Cd186 O188 2.411 . S
Cd186 O189 2.333 . S
Cd186 O190 2.352 . S
Cd186 O194 2.277 1_554 S
Cd186 O195 2.356 . S
C187 O192 1.209 . S
C187 O194 1.226 . S
O188 Cd184 2.273 1_554 S
O188 Cd186 2.411 . S
O188 C191 1.320 . S
O189 Cd186 2.333 . S
O189 C191 1.214 . S
O190 Cd186 2.352 . S
O190 C193 1.258 . S
C191 O188 1.320 . S
C191 O189 1.214 . S
O192 Cd184 2.277 . S
O192 C187 1.209 . S
C193 O190 1.258 . S
C193 O195 1.282 . S
O194 Cd186 2.277 1_556 S
O194 C187 1.226 . S
O195 Cd186 2.356 . S
O195 C193 1.282 . S
C196 O197 1.306 . S
C196 O199 1.160 . S
O197 C196 1.306 . S
O197 Cd198 2.228 . S
Cd198 O197 2.228 . S
Cd198 O202 2.273 . S
Cd198 O206 2.277 . S
O199 C196 1.160 . S
O199 Cd200 2.203 . S
Cd200 O199 2.203 . S
Cd200 O202 2.411 . S
Cd200 O203 2.333 . S
Cd200 O204 2.352 . S
Cd200 O208 2.277 . S
Cd200 O209 2.356 . S
C201 O206 1.209 . S
C201 O208 1.226 . S
O202 Cd198 2.273 . S
O202 Cd200 2.411 . S
O202 C205 1.320 . S
O203 Cd200 2.333 . S
O203 C205 1.214 . S
O204 Cd200 2.352 . S
O204 C207 1.258 . S
C205 O202 1.320 . S
C205 O203 1.214 . S
O206 Cd198 2.277 . S
O206 C201 1.209 . S
C207 O204 1.258 . S
C207 O209 1.282 . S
O208 Cd200 2.277 . S
O208 C201 1.226 . S
O209 Cd200 2.356 . S
O209 C207 1.282 . S
C210 O211 1.306 . S
C210 O213 1.160 . S
O211 C210 1.306 . S
O211 Cd212 2.228 . S
Cd212 O211 2.228 . S
Cd212 O216 2.273 . S
Cd212 O220 2.277 . S
O213 C210 1.160 . S
O213 Cd214 2.203 . S
Cd214 O213 2.203 . S
Cd214 O216 2.411 . S
Cd214 O217 2.333 . S
Cd214 O218 2.352 . S
Cd214 O222 2.277 . S
Cd214 O223 2.356 . S
C215 O220 1.209 . S
C215 O222 1.226 . S
O216 Cd212 2.273 . S
O216 Cd214 2.411 . S
O216 C219 1.320 . S
O217 Cd214 2.333 . S
O217 C219 1.214 . S
O218 Cd214 2.352 . S
O218 C221 1.258 . S
C219 O216 1.320 . S
C219 O217 1.214 . S
O220 Cd212 2.277 . S
O220 C215 1.209 . S
C221 O218 1.258 . S
C221 O223 1.282 . S
O222 Cd214 2.277 . S
O222 C215 1.226 . S
O223 Cd214 2.356 . S
O223 C221 1.282 . S
C224 O225 1.306 1_565 S
C224 O227 1.160 . S
O225 C224 1.306 1_545 S
O225 Cd226 2.228 . S
Cd226 O225 2.228 . S
Cd226 O230 2.273 . S
Cd226 O234 2.277 . S
O227 C224 1.160 . S
O227 Cd228 2.203 1_565 S
Cd228 O227 2.203 1_545 S
Cd228 O230 2.411 . S
Cd228 O231 2.333 . S
Cd228 O232 2.352 1_545 S
Cd228 O236 2.277 . S
Cd228 O237 2.356 1_545 S
C229 O234 1.209 . S
C229 O236 1.226 . S
O230 Cd226 2.273 . S
O230 Cd228 2.411 . S
O230 C233 1.320 . S
O231 Cd228 2.333 . S
O231 C233 1.214 . S
O232 Cd228 2.352 1_565 S
O232 C235 1.258 . S
C233 O230 1.320 . S
C233 O231 1.214 . S
O234 Cd226 2.277 . S
O234 C229 1.209 . S
C235 O232 1.258 . S
C235 O237 1.282 . S
O236 Cd228 2.277 . S
O236 C229 1.226 . S
O237 Cd228 2.356 1_565 S
O237 C235 1.282 . S
C238 O239 1.306 . S
C238 O241 1.160 . S
O239 C238 1.306 . S
O239 Cd240 2.228 . S
Cd240 O239 2.228 . S
Cd240 O244 2.273 . S
Cd240 O248 2.277 . S
O241 C238 1.160 . S
O241 Cd242 2.203 . S
Cd242 O241 2.203 . S
Cd242 O244 2.411 . S
Cd242 O245 2.333 . S
Cd242 O246 2.352 . S
Cd242 O250 2.277 . S
Cd242 O251 2.356 . S
C243 O248 1.209 . S
C243 O250 1.226 . S
O244 Cd240 2.273 . S
O244 Cd242 2.411 . S
O244 C247 1.320 . S
O245 Cd242 2.333 . S
O245 C247 1.214 . S
O246 Cd242 2.352 . S
O246 C249 1.258 . S
C247 O244 1.320 . S
C247 O245 1.214 . S
O248 Cd240 2.277 . S
O248 C243 1.209 . S
C249 O246 1.258 . S
C249 O251 1.282 . S
O250 Cd242 2.277 . S
O250 C243 1.226 . S
O251 Cd242 2.356 . S
O251 C249 1.282 . S
C252 O253 1.306 . S
C252 O255 1.160 . S
O253 C252 1.306 . S
O253 Cd254 2.228 . S
Cd254 O253 2.228 . S
Cd254 O258 2.273 . S
Cd254 O262 2.277 . S
O255 C252 1.160 . S
O255 Cd256 2.203 . S
Cd256 O255 2.203 . S
Cd256 O258 2.411 . S
Cd256 O259 2.333 . S
Cd256 O260 2.352 . S
Cd256 O264 2.277 . S
Cd256 O265 2.356 . S
C257 O262 1.209 . S
C257 O264 1.226 . S
O258 Cd254 2.273 . S
O258 Cd256 2.411 . S
O258 C261 1.320 . S
O259 Cd256 2.333 . S
O259 C261 1.214 . S
O260 Cd256 2.352 . S
O260 C263 1.258 . S
C261 O258 1.320 . S
C261 O259 1.214 . S
O262 Cd254 2.277 . S
O262 C257 1.209 . S
C263 O260 1.258 . S
C263 O265 1.282 . S
O264 Cd256 2.277 . S
O264 C257 1.226 . S
O265 Cd256 2.356 . S
O265 C263 1.282 . S
C266 O267 1.306 . S
C266 O269 1.160 . S
O267 C266 1.306 . S
O267 Cd268 2.228 1_545 S
Cd268 O267 2.228 1_565 S
Cd268 O272 2.273 . S
Cd268 O276 2.277 . S
O269 C266 1.160 . S
O269 Cd270 2.203 . S
Cd270 O269 2.203 . S
Cd270 O272 2.411 1_545 S
Cd270 O273 2.333 1_545 S
Cd270 O274 2.352 . S
Cd270 O278 2.277 1_545 S
Cd270 O279 2.356 . S
C271 O276 1.209 . S
C271 O278 1.226 . S
O272 Cd268 2.273 . S
O272 Cd270 2.411 1_565 S
O272 C275 1.320 . S
O273 Cd270 2.333 1_565 S
O273 C275 1.214 . S
O274 Cd270 2.352 . S
O274 C277 1.258 . S
C275 O272 1.320 . S
C275 O273 1.214 . S
O276 Cd268 2.277 . S
O276 C271 1.209 . S
C277 O274 1.258 . S
C277 O279 1.282 . S
O278 Cd270 2.277 1_565 S
O278 C271 1.226 . S
O279 Cd270 2.356 . S
O279 C277 1.282 . S
C280 O281 1.306 1_556 S
C280 O283 1.160 . S
O281 C280 1.306 1_554 S
O281 Cd282 2.228 . S
Cd282 O281 2.228 . S
Cd282 O286 2.273 . S
Cd282 O290 2.277 . S
O283 C280 1.160 . S
O283 Cd284 2.203 1_556 S
Cd284 O283 2.203 1_554 S
Cd284 O286 2.411 . S
Cd284 O287 2.333 . S
Cd284 O288 2.352 1_554 S
Cd284 O292 2.277 . S
Cd284 O293 2.356 1_554 S
C285 O290 1.209 . S
C285 O292 1.226 . S
O286 Cd282 2.273 . S
O286 Cd284 2.411 . S
O286 C289 1.320 . S
O287 Cd284 2.333 . S
O287 C289 1.214 . S
O288 Cd284 2.352 1_556 S
O288 C291 1.258 . S
C289 O286 1.320 . S
C289 O287 1.214 . S
O290 Cd282 2.277 . S
O290 C285 1.209 . S
C291 O288 1.258 . S
C291 O293 1.282 . S
O292 Cd284 2.277 . S
O292 C285 1.226 . S
O293 Cd284 2.356 1_556 S
O293 C291 1.282 . S
C294 O295 1.306 . S
C294 O297 1.160 . S
O295 C294 1.306 . S
O295 Cd296 2.228 . S
Cd296 O295 2.228 . S
Cd296 O300 2.273 . S
Cd296 O304 2.277 . S
O297 C294 1.160 . S
O297 Cd298 2.203 . S
Cd298 O297 2.203 . S
Cd298 O300 2.411 . S
Cd298 O301 2.333 . S
Cd298 O302 2.352 . S
Cd298 O306 2.277 . S
Cd298 O307 2.356 . S
C299 O304 1.209 . S
C299 O306 1.226 . S
O300 Cd296 2.273 . S
O300 Cd298 2.411 . S
O300 C303 1.320 . S
O301 Cd298 2.333 . S
O301 C303 1.214 . S
O302 Cd298 2.352 . S
O302 C305 1.258 . S
C303 O300 1.320 . S
C303 O301 1.214 . S
O304 Cd296 2.277 . S
O304 C299 1.209 . S
C305 O302 1.258 . S
C305 O307 1.282 . S
O306 Cd298 2.277 . S
O306 C299 1.226 . S
O307 Cd298 2.356 . S
O307 C305 1.282 . S
C308 O309 1.306 . S
C308 O311 1.160 . S
O309 C308 1.306 . S
O309 Cd310 2.228 . S
Cd310 O309 2.228 . S
Cd310 O314 2.273 . S
Cd310 O318 2.277 . S
O311 C308 1.160 . S
O311 Cd312 2.203 . S
Cd312 O311 2.203 . S
Cd312 O314 2.411 . S
Cd312 O315 2.333 . S
Cd312 O316 2.352 . S
Cd312 O320 2.277 . S
Cd312 O321 2.356 . S
C313 O318 1.209 . S
C313 O320 1.226 . S
O314 Cd310 2.273 . S
O314 Cd312 2.411 . S
O314 C317 1.320 . S
O315 Cd312 2.333 . S
O315 C317 1.214 . S
O316 Cd312 2.352 . S
O316 C319 1.258 . S
C317 O314 1.320 . S
C317 O315 1.214 . S
O318 Cd310 2.277 . S
O318 C313 1.209 . S
C319 O316 1.258 . S
C319 O321 1.282 . S
O320 Cd312 2.277 . S
O320 C313 1.226 . S
O321 Cd312 2.356 . S
O321 C319 1.282 . S
C322 O323 1.306 . S
C322 O325 1.160 . S
O323 C322 1.306 . S
O323 Cd324 2.228 . S
Cd324 O323 2.228 . S
Cd324 O328 2.273 . S
Cd324 O332 2.277 . S
O325 C322 1.160 . S
O325 Cd326 2.203 . S
Cd326 O325 2.203 . S
Cd326 O328 2.411 . S
Cd326 O329 2.333 . S
Cd326 O330 2.352 . S
Cd326 O334 2.277 . S
Cd326 O335 2.356 . S
C327 O332 1.209 . S
C327 O334 1.226 . S
O328 Cd324 2.273 . S
O328 Cd326 2.411 . S
O328 C331 1.320 . S
O329 Cd326 2.333 . S
O329 C331 1.214 . S
O330 Cd326 2.352 . S
O330 C333 1.258 . S
C331 O328 1.320 . S
C331 O329 1.214 . S
O332 Cd324 2.277 . S
O332 C327 1.209 . S
C333 O330 1.258 . S
C333 O335 1.282 . S
O334 Cd326 2.277 . S
O334 C327 1.226 . S
O335 Cd326 2.356 . S
O335 C333 1.282 . S
C336 C337 1.363 . S
C336 C342 1.379 . S
C336 N344 1.356 . S
C337 C336 1.363 . S
C337 C343 1.363 . S
C338 C339 1.363 . S
C338 C343 1.379 . S
C338 N345 1.356 . S
C339 C338 1.363 . S
C339 C342 1.363 . S
N340 C342 1.356 . S
N340 H352 0.984 . S
N340 H353 0.985 . S
N341 C343 1.356 . S
N341 H346 0.984 . S
N341 H347 0.985 . S
C342 C336 1.379 . S
C342 C339 1.363 . S
C342 N340 1.356 . S
C343 C337 1.363 . S
C343 C338 1.379 . S
C343 N341 1.356 . S
N344 C336 1.356 . S
N344 H350 0.984 . S
N344 H351 0.984 . S
N345 C338 1.356 . S
N345 H348 0.984 . S
N345 H349 0.985 . S
H346 N341 0.984 . S
H347 N341 0.985 . S
H348 N345 0.984 . S
H349 N345 0.985 . S
H350 N344 0.984 . S
H351 N344 0.984 . S
H352 N340 0.984 . S
H353 N340 0.985 . S
C354 C355 1.363 . S
C354 C360 1.379 . S
C354 N362 1.356 . S
C355 C354 1.363 . S
C355 C361 1.363 . S
C356 C357 1.363 . S
C356 C361 1.379 . S
C356 N363 1.356 . S
C357 C356 1.363 . S
C357 C360 1.363 . S
N358 C360 1.356 . S
N358 H370 0.984 . S
N358 H371 0.985 . S
N359 C361 1.356 . S
N359 H364 0.984 . S
N359 H365 0.985 . S
C360 C354 1.379 . S
C360 C357 1.363 . S
C360 N358 1.356 . S
C361 C355 1.363 . S
C361 C356 1.379 . S
C361 N359 1.356 . S
N362 C354 1.356 . S
N362 H368 0.984 . S
N362 H369 0.984 . S
N363 C356 1.356 . S
N363 H366 0.984 . S
N363 H367 0.985 . S
H364 N359 0.984 . S
H365 N359 0.985 . S
H366 N363 0.984 . S
H367 N363 0.985 . S
H368 N362 0.984 . S
H369 N362 0.984 . S
H370 N358 0.984 . S
H371 N358 0.985 . S
C372 C373 1.363 . S
C372 C378 1.379 . S
C372 N380 1.356 . S
C373 C372 1.363 . S
C373 C379 1.363 . S
C374 C375 1.363 . S
C374 C379 1.379 . S
C374 N381 1.356 . S
C375 C374 1.363 . S
C375 C378 1.363 . S
N376 C378 1.356 . S
N376 H388 0.984 . S
N376 H389 0.985 . S
N377 C379 1.356 . S
N377 H382 0.984 . S
N377 H383 0.985 . S
C378 C372 1.379 . S
C378 C375 1.363 . S
C378 N376 1.356 . S
C379 C373 1.363 . S
C379 C374 1.379 . S
C379 N377 1.356 . S
N380 C372 1.356 . S
N380 H386 0.984 . S
N380 H387 0.984 . S
N381 C374 1.356 . S
N381 H384 0.984 . S
N381 H385 0.985 . S
H382 N377 0.984 . S
H383 N377 0.985 . S
H384 N381 0.984 . S
H385 N381 0.985 . S
H386 N380 0.984 . S
H387 N380 0.984 . S
H388 N376 0.984 . S
H389 N376 0.985 . S
C390 C391 1.363 . S
C390 C396 1.379 . S
C390 N398 1.356 . S
C391 C390 1.363 . S
C391 C397 1.363 . S
C392 C393 1.363 . S
C392 C397 1.379 . S
C392 N399 1.356 . S
C393 C392 1.363 . S
C393 C396 1.363 . S
N394 C396 1.356 1_556 S
N394 H406 0.984 . S
N394 H407 0.985 . S
N395 C397 1.356 . S
N395 H400 0.984 . S
N395 H401 0.985 . S
C396 C390 1.379 . S
C396 C393 1.363 . S
C396 N394 1.356 1_554 S
C397 C391 1.363 . S
C397 C392 1.379 . S
C397 N395 1.356 . S
N398 C390 1.356 . S
N398 H404 0.984 . S
N398 H405 0.984 . S
N399 C392 1.356 . S
N399 H402 0.984 . S
N399 H403 0.985 . S
H400 N395 0.984 . S
H401 N395 0.985 . S
H402 N399 0.984 . S
H403 N399 0.985 . S
H404 N398 0.984 . S
H405 N398 0.984 . S
H406 N394 0.984 . S
H407 N394 0.985 . S
C408 C409 1.363 . S
C408 C414 1.379 . S
C408 N416 1.356 . S
C409 C408 1.363 . S
C409 C415 1.363 . S
C410 C411 1.363 . S
C410 C415 1.379 . S
C410 N417 1.356 . S
C411 C410 1.363 . S
C411 C414 1.363 . S
N412 C414 1.356 . S
N412 H424 0.984 . S
N412 H425 0.985 . S
N413 C415 1.356 . S
N413 H418 0.984 . S
N413 H419 0.985 . S
C414 C408 1.379 . S
C414 C411 1.363 . S
C414 N412 1.356 . S
C415 C409 1.363 . S
C415 C410 1.379 . S
C415 N413 1.356 . S
N416 C408 1.356 . S
N416 H422 0.984 . S
N416 H423 0.984 . S
N417 C410 1.356 . S
N417 H420 0.984 . S
N417 H421 0.985 . S
H418 N413 0.984 . S
H419 N413 0.985 . S
H420 N417 0.984 . S
H421 N417 0.985 . S
H422 N416 0.984 . S
H423 N416 0.984 . S
H424 N412 0.984 . S
H425 N412 0.985 . S
C426 C427 1.363 . S
C426 C432 1.379 . S
C426 N434 1.356 . S
C427 C426 1.363 . S
C427 C433 1.363 . S
C428 C429 1.363 . S
C428 C433 1.379 . S
C428 N435 1.356 . S
C429 C428 1.363 . S
C429 C432 1.363 . S
N430 C432 1.356 . S
N430 H442 0.984 . S
N430 H443 0.985 . S
N431 C433 1.356 . S
N431 H436 0.984 . S
N431 H437 0.985 . S
C432 C426 1.379 . S
C432 C429 1.363 . S
C432 N430 1.356 . S
C433 C427 1.363 . S
C433 C428 1.379 . S
C433 N431 1.356 . S
N434 C426 1.356 . S
N434 H440 0.984 . S
N434 H441 0.984 . S
N435 C428 1.356 . S
N435 H438 0.984 . S
N435 H439 0.985 . S
H436 N431 0.984 . S
H437 N431 0.985 . S
H438 N435 0.984 . S
H439 N435 0.985 . S
H440 N434 0.984 . S
H441 N434 0.984 . S
H442 N430 0.984 . S
H443 N430 0.985 . S
C444 C445 1.363 . S
C444 C450 1.379 . S
C444 N452 1.356 . S
C445 C444 1.363 . S
C445 C451 1.363 . S
C446 C447 1.363 . S
C446 C451 1.379 . S
C446 N453 1.356 . S
C447 C446 1.363 . S
C447 C450 1.363 . S
N448 C450 1.356 . S
N448 H460 0.984 . S
N448 H461 0.985 . S
N449 C451 1.356 . S
N449 H454 0.984 . S
N449 H455 0.985 . S
C450 C444 1.379 . S
C450 C447 1.363 . S
C450 N448 1.356 . S
C451 C445 1.363 . S
C451 C446 1.379 . S
C451 N449 1.356 . S
N452 C444 1.356 . S
N452 H458 0.984 . S
N452 H459 0.984 . S
N453 C446 1.356 . S
N453 H456 0.984 . S
N453 H457 0.985 . S
H454 N449 0.984 . S
H455 N449 0.985 . S
H456 N453 0.984 . S
H457 N453 0.985 . S
H458 N452 0.984 . S
H459 N452 0.984 . S
H460 N448 0.984 . S
H461 N448 0.985 . S
C462 C463 1.363 . S
C462 C468 1.379 . S
C462 N470 1.356 . S
C463 C462 1.363 . S
C463 C469 1.363 . S
C464 C465 1.363 . S
C464 C469 1.379 . S
C464 N471 1.356 . S
C465 C464 1.363 . S
C465 C468 1.363 . S
N466 C468 1.356 1_554 S
N466 H478 0.984 . S
N466 H479 0.985 . S
N467 C469 1.356 . S
N467 H472 0.984 . S
N467 H473 0.985 . S
C468 C462 1.379 . S
C468 C465 1.363 . S
C468 N466 1.356 1_556 S
C469 C463 1.363 . S
C469 C464 1.379 . S
C469 N467 1.356 . S
N470 C462 1.356 . S
N470 H476 0.984 . S
N470 H477 0.984 . S
N471 C464 1.356 . S
N471 H474 0.984 . S
N471 H475 0.985 . S
H472 N467 0.984 . S
H473 N467 0.985 . S
H474 N471 0.984 . S
H475 N471 0.985 . S
H476 N470 0.984 . S
H477 N470 0.984 . S
H478 N466 0.984 . S
H479 N466 0.985 . S
C480 C481 1.363 . S
C480 C486 1.379 . S
C480 N488 1.356 . S
C481 C480 1.363 . S
C481 C487 1.363 . S
C482 C483 1.363 . S
C482 C487 1.379 . S
C482 N489 1.356 . S
C483 C482 1.363 . S
C483 C486 1.363 . S
N484 C486 1.356 . S
N484 H496 0.996 . S
N484 H497 0.985 . S
N485 C487 1.356 . S
N485 H490 0.984 . S
N485 H491 0.985 . S
C486 C480 1.379 . S
C486 C483 1.363 . S
C486 N484 1.356 . S
C487 C481 1.363 . S
C487 C482 1.379 . S
C487 N485 1.356 . S
N488 C480 1.356 . S
N488 H494 0.984 . S
N488 H495 0.984 . S
N489 C482 1.356 . S
N489 H492 0.984 . S
N489 H493 0.985 . S
H490 N485 0.984 . S
H491 N485 0.985 . S
H492 N489 0.984 . S
H493 N489 0.985 . S
H494 N488 0.984 . S
H495 N488 0.984 . S
H496 N484 0.996 . S
H497 N484 0.985 . S
C498 C499 1.363 . S
C498 C504 1.379 . S
C498 N506 1.356 . S
C499 C498 1.363 . S
C499 C505 1.363 . S
C500 C501 1.363 . S
C500 C505 1.379 . S
C500 N507 1.356 . S
C501 C500 1.363 . S
C501 C504 1.363 . S
N502 C504 1.356 . S
N502 H514 0.984 . S
N502 H515 0.985 . S
N503 C505 1.356 . S
N503 H508 0.984 . S
N503 H509 0.985 . S
C504 C498 1.379 . S
C504 C501 1.363 . S
C504 N502 1.356 . S
C505 C499 1.363 . S
C505 C500 1.379 . S
C505 N503 1.356 . S
N506 C498 1.356 . S
N506 H512 0.984 . S
N506 H513 0.984 . S
N507 C500 1.356 . S
N507 H510 0.984 . S
N507 H511 0.985 . S
H508 N503 0.984 . S
H509 N503 0.985 . S
H510 N507 0.984 . S
H511 N507 0.985 . S
H512 N506 0.984 . S
H513 N506 0.984 . S
H514 N502 0.984 . S
H515 N502 0.985 . S
C516 C517 1.363 . S
C516 C522 1.379 . S
C516 N524 1.356 1_565 S
C517 C516 1.363 . S
C517 C523 1.363 . S
C518 C519 1.363 . S
C518 C523 1.379 . S
C518 N525 1.356 . S
C519 C518 1.363 . S
C519 C522 1.363 . S
N520 C522 1.356 . S
N520 H532 0.984 . S
N520 H533 0.985 . S
N521 C523 1.356 . S
N521 H526 0.984 . S
N521 H527 0.985 . S
C522 C516 1.379 . S
C522 C519 1.363 . S
C522 N520 1.356 . S
C523 C517 1.363 . S
C523 C518 1.379 . S
C523 N521 1.356 . S
N524 C516 1.356 1_545 S
N524 H530 0.984 . S
N524 H531 0.984 . S
N525 C518 1.356 . S
N525 H528 0.984 . S
N525 H529 0.985 . S
H526 N521 0.984 . S
H527 N521 0.985 . S
H528 N525 0.984 . S
H529 N525 0.985 . S
H530 N524 0.984 . S
H531 N524 0.984 . S
H532 N520 0.984 . S
H533 N520 0.985 . S
C534 C535 1.363 . S
C534 C540 1.379 . S
C534 N542 1.356 . S
C535 C534 1.363 . S
C535 C541 1.363 . S
C536 C537 1.363 . S
C536 C541 1.379 . S
C536 N543 1.356 . S
C537 C536 1.363 . S
C537 C540 1.363 . S
N538 C540 1.356 . S
N538 H550 0.984 1_565 S
N538 H551 0.985 . S
N539 C541 1.356 . S
N539 H544 0.984 . S
N539 H545 0.985 . S
C540 C534 1.379 . S
C540 C537 1.363 . S
C540 N538 1.356 . S
C541 C535 1.363 . S
C541 C536 1.379 . S
C541 N539 1.356 . S
N542 C534 1.356 . S
N542 H548 0.984 . S
N542 H549 0.984 . S
N543 C536 1.356 . S
N543 H546 0.984 . S
N543 H547 0.985 . S
H544 N539 0.984 . S
H545 N539 0.985 . S
H546 N543 0.984 . S
H547 N543 0.985 . S
H548 N542 0.984 . S
H549 N542 0.984 . S
H550 N538 0.984 1_545 S
H551 N538 0.985 . S
C552 C553 1.363 . S
C552 C558 1.379 . S
C552 N560 1.356 . S
C553 C552 1.363 . S
C553 C559 1.363 . S
C554 C555 1.363 . S
C554 C559 1.379 . S
C554 N561 1.356 . S
C555 C554 1.363 . S
C555 C558 1.363 . S
N556 C558 1.356 . S
N556 H568 0.984 . S
N556 H569 0.985 . S
N557 C559 1.356 . S
N557 H562 0.984 . S
N557 H563 0.985 . S
C558 C552 1.379 . S
C558 C555 1.363 . S
C558 N556 1.356 . S
C559 C553 1.363 . S
C559 C554 1.379 . S
C559 N557 1.356 . S
N560 C552 1.356 . S
N560 H566 0.984 . S
N560 H567 0.984 . S
N561 C554 1.356 . S
N561 H564 0.984 . S
N561 H565 0.985 . S
H562 N557 0.984 . S
H563 N557 0.985 . S
H564 N561 0.984 . S
H565 N561 0.985 . S
H566 N560 0.984 . S
H567 N560 0.984 . S
H568 N556 0.984 . S
H569 N556 0.985 . S
C570 C571 1.363 . S
C570 C576 1.379 . S
C570 N578 1.356 . S
C571 C570 1.363 . S
C571 C577 1.363 . S
C572 C573 1.363 . S
C572 C577 1.379 . S
C572 N579 1.356 . S
C573 C572 1.363 . S
C573 C576 1.363 . S
N574 C576 1.356 . S
N574 H586 0.984 . S
N574 H587 0.985 . S
N575 C577 1.356 1_455 S
N575 H580 0.984 . S
N575 H581 0.985 . S
C576 C570 1.379 . S
C576 C573 1.363 . S
C576 N574 1.356 . S
C577 C571 1.363 . S
C577 C572 1.379 . S
C577 N575 1.356 1_655 S
N578 C570 1.356 . S
N578 H584 0.984 . S
N578 H585 0.984 . S
N579 C572 1.356 . S
N579 H582 0.984 . S
N579 H583 0.985 . S
H580 N575 0.984 . S
H581 N575 0.985 . S
H582 N579 0.984 . S
H583 N579 0.985 . S
H584 N578 0.984 . S
H585 N578 0.984 . S
H586 N574 0.984 . S
H587 N574 0.985 . S
C588 C589 1.363 . S
C588 C594 1.379 . S
C588 N596 1.356 . S
C589 C588 1.363 . S
C589 C595 1.363 . S
C590 C591 1.363 . S
C590 C595 1.379 . S
C590 N597 1.356 . S
C591 C590 1.363 . S
C591 C594 1.363 . S
N592 C594 1.356 . S
N592 H604 0.984 . S
N592 H605 0.985 . S
N593 C595 1.356 . S
N593 H598 0.984 . S
N593 H599 0.985 . S
C594 C588 1.379 . S
C594 C591 1.363 . S
C594 N592 1.356 . S
C595 C589 1.363 . S
C595 C590 1.379 . S
C595 N593 1.356 . S
N596 C588 1.356 . S
N596 H602 0.984 . S
N596 H603 0.984 . S
N597 C590 1.356 . S
N597 H600 0.984 . S
N597 H601 0.985 . S
H598 N593 0.984 . S
H599 N593 0.985 . S
H600 N597 0.984 . S
H601 N597 0.985 . S
H602 N596 0.984 . S
H603 N596 0.984 . S
H604 N592 0.984 . S
H605 N592 0.985 . S
C606 C607 1.363 . S
C606 C612 1.379 . S
C606 N614 1.356 . S
C607 C606 1.363 . S
C607 C613 1.363 . S
C608 C609 1.363 . S
C608 C613 1.379 . S
C608 N615 1.356 . S
C609 C608 1.363 . S
C609 C612 1.363 . S
N610 C612 1.356 . S
N610 H622 0.984 . S
N610 H623 0.985 . S
N611 C613 1.356 . S
N611 H616 0.984 . S
N611 H617 0.985 . S
C612 C606 1.379 . S
C612 C609 1.363 . S
C612 N610 1.356 . S
C613 C607 1.363 . S
C613 C608 1.379 . S
C613 N611 1.356 . S
N614 C606 1.356 . S
N614 H620 0.984 1_655 S
N614 H621 0.988 . S
N615 C608 1.356 . S
N615 H618 0.984 . S
N615 H619 0.985 . S
H616 N611 0.984 . S
H617 N611 0.985 . S
H618 N615 0.984 . S
H619 N615 0.985 . S
H620 N614 0.984 1_455 S
H621 N614 0.988 . S
H622 N610 0.984 . S
H623 N610 0.985 . S
C624 C625 1.363 . S
C624 C630 1.379 . S
C624 N632 1.356 . S
C625 C624 1.363 . S
C625 C631 1.363 . S
C626 C627 1.363 . S
C626 C631 1.379 . S
C626 N633 1.356 . S
C627 C626 1.363 . S
C627 C630 1.363 . S
N628 C630 1.356 . S
N628 H640 0.984 . S
N628 H641 0.985 . S
N629 C631 1.356 . S
N629 H634 0.984 . S
N629 H635 0.985 . S
C630 C624 1.379 . S
C630 C627 1.363 . S
C630 N628 1.356 . S
C631 C625 1.363 . S
C631 C626 1.379 . S
C631 N629 1.356 . S
N632 C624 1.356 . S
N632 H638 0.984 . S
N632 H639 0.984 . S
N633 C626 1.356 . S
N633 H636 0.984 . S
N633 H637 0.985 . S
H634 N629 0.984 . S
H635 N629 0.985 . S
H636 N633 0.984 . S
H637 N633 0.985 . S
H638 N632 0.984 . S
H639 N632 0.984 . S
H640 N628 0.984 . S
H641 N628 0.985 . S
C642 C643 1.363 . S
C642 C648 1.379 . S
C642 N650 1.356 . S
C643 C642 1.363 . S
C643 C649 1.363 . S
C644 C645 1.363 . S
C644 C649 1.379 . S
C644 N651 1.356 . S
C645 C644 1.363 . S
C645 C648 1.363 . S
N646 C648 1.356 . S
N646 H658 0.984 . S
N646 H659 0.985 . S
N647 C649 1.356 . S
N647 H652 0.984 . S
N647 H653 0.985 . S
C648 C642 1.379 . S
C648 C645 1.363 . S
C648 N646 1.356 . S
C649 C643 1.363 . S
C649 C644 1.379 . S
C649 N647 1.356 . S
N650 C642 1.356 . S
N650 H656 0.984 . S
N650 H657 0.984 . S
N651 C644 1.356 . S
N651 H654 0.984 . S
N651 H655 0.985 . S
H652 N647 0.984 . S
H653 N647 0.985 . S
H654 N651 0.984 . S
H655 N651 0.985 . S
H656 N650 0.984 . S
H657 N650 0.984 . S
H658 N646 0.984 . S
H659 N646 0.985 . S
C660 C661 1.363 . S
C660 C666 1.379 . S
C660 N668 1.356 . S
C661 C660 1.363 . S
C661 C667 1.363 . S
C662 C663 1.363 . S
C662 C667 1.379 . S
C662 N669 1.356 . S
C663 C662 1.363 . S
C663 C666 1.363 . S
N664 C666 1.356 . S
N664 H676 0.984 . S
N664 H677 0.985 . S
N665 C667 1.356 . S
N665 H670 0.984 . S
N665 H671 0.985 . S
C666 C660 1.379 . S
C666 C663 1.363 . S
C666 N664 1.356 . S
C667 C661 1.363 . S
C667 C662 1.379 . S
C667 N665 1.356 . S
N668 C660 1.356 . S
N668 H674 0.984 1_556 S
N668 H675 0.984 1_556 S
N669 C662 1.356 . S
N669 H672 0.984 . S
N669 H673 0.985 . S
H670 N665 0.984 . S
H671 N665 0.985 . S
H672 N669 0.984 . S
H673 N669 0.985 . S
H674 N668 0.984 1_554 S
H675 N668 0.984 1_554 S
H676 N664 0.984 . S
H677 N664 0.985 . S
C678 C679 1.363 . S
C678 C684 1.379 . S
C678 N686 1.356 . S
C679 C678 1.363 . S
C679 C685 1.363 . S
C680 C681 1.363 . S
C680 C685 1.379 . S
C680 N687 1.356 . S
C681 C680 1.363 . S
C681 C684 1.363 . S
N682 C684 1.356 . S
N682 H694 0.984 1_655 S
N682 H695 0.985 . S
N683 C685 1.356 . S
N683 H688 0.984 . S
N683 H689 0.985 . S
C684 C678 1.379 . S
C684 C681 1.363 . S
C684 N682 1.356 . S
C685 C679 1.363 . S
C685 C680 1.379 . S
C685 N683 1.356 . S
N686 C678 1.356 . S
N686 H692 0.984 . S
N686 H693 0.984 . S
N687 C680 1.356 . S
N687 H690 0.984 . S
N687 H691 0.985 . S
H688 N683 0.984 . S
H689 N683 0.985 . S
H690 N687 0.984 . S
H691 N687 0.985 . S
H692 N686 0.984 . S
H693 N686 0.984 . S
H694 N682 0.984 1_455 S
H695 N682 0.985 . S
C696 C697 1.363 . S
C696 C702 1.379 . S
C696 N704 1.356 . S
C697 C696 1.363 . S
C697 C703 1.363 . S
C698 C699 1.363 . S
C698 C703 1.379 . S
C698 N705 1.356 . S
C699 C698 1.363 . S
C699 C702 1.363 . S
N700 C702 1.356 . S
N700 H712 0.984 . S
N700 H713 0.985 . S
N701 C703 1.356 . S
N701 H706 0.984 . S
N701 H707 0.985 . S
C702 C696 1.379 . S
C702 C699 1.363 . S
C702 N700 1.356 . S
C703 C697 1.363 . S
C703 C698 1.379 . S
C703 N701 1.356 . S
N704 C696 1.356 . S
N704 H710 0.984 . S
N704 H711 0.984 . S
N705 C698 1.356 . S
N705 H708 0.984 . S
N705 H709 0.985 . S
H706 N701 0.984 . S
H707 N701 0.985 . S
H708 N705 0.984 . S
H709 N705 0.985 . S
H710 N704 0.984 . S
H711 N704 0.984 . S
H712 N700 0.984 . S
H713 N700 0.985 . S
C714 C715 1.363 . S
C714 C720 1.379 . S
C714 N722 1.356 . S
C715 C714 1.363 . S
C715 C721 1.363 . S
C716 C717 1.363 . S
C716 C721 1.379 . S
C716 N723 1.356 . S
C717 C716 1.363 . S
C717 C720 1.363 . S
N718 C720 1.356 . S
N718 H730 0.984 . S
N718 H731 0.985 . S
N719 C721 1.356 . S
N719 H724 0.984 . S
N719 H725 0.985 . S
C720 C714 1.379 . S
C720 C717 1.363 . S
C720 N718 1.356 . S
C721 C715 1.363 . S
C721 C716 1.379 . S
C721 N719 1.356 . S
N722 C714 1.356 . S
N722 H728 0.984 . S
N722 H729 0.984 . S
N723 C716 1.356 . S
N723 H726 0.984 . S
N723 H727 0.985 . S
H724 N719 0.984 . S
H725 N719 0.985 . S
H726 N723 0.984 . S
H727 N723 0.985 . S
H728 N722 0.984 . S
H729 N722 0.984 . S
H730 N718 0.984 . S
H731 N718 0.985 . S
C732 C733 1.363 . S
C732 C738 1.379 . S
C732 N740 1.356 . S
C733 C732 1.363 . S
C733 C739 1.363 . S
C734 C735 1.363 . S
C734 C739 1.379 . S
C734 N741 1.356 . S
C735 C734 1.363 . S
C735 C738 1.363 . S
N736 C738 1.356 . S
N736 H748 0.984 . S
N736 H749 0.985 . S
N737 C739 1.356 . S
N737 H742 0.984 . S
N737 H743 0.985 . S
C738 C732 1.379 . S
C738 C735 1.363 . S
C738 N736 1.356 . S
C739 C733 1.363 . S
C739 C734 1.379 . S
C739 N737 1.356 . S
N740 C732 1.356 . S
N740 H746 0.984 . S
N740 H747 0.984 . S
N741 C734 1.356 . S
N741 H744 0.984 . S
N741 H745 0.985 . S
H742 N737 0.984 . S
H743 N737 0.985 . S
H744 N741 0.984 . S
H745 N741 0.985 . S
H746 N740 0.984 . S
H747 N740 0.984 . S
H748 N736 0.984 . S
H749 N736 0.985 . S
C750 C751 1.363 . S
C750 C756 1.379 . S
C750 N758 1.356 . S
C751 C750 1.363 . S
C751 C757 1.363 . S
C752 C753 1.363 . S
C752 C757 1.379 . S
C752 N759 1.356 . S
C753 C752 1.363 . S
C753 C756 1.363 . S
N754 C756 1.356 1_545 S
N754 H766 0.984 . S
N754 H767 0.985 . S
N755 C757 1.356 . S
N755 H760 0.984 . S
N755 H761 0.985 . S
C756 C750 1.379 . S
C756 C753 1.363 . S
C756 N754 1.356 1_565 S
C757 C751 1.363 . S
C757 C752 1.379 . S
C757 N755 1.356 . S
N758 C750 1.356 . S
N758 H764 0.984 . S
N758 H765 0.984 . S
N759 C752 1.356 . S
N759 H762 0.984 . S
N759 H763 0.985 . S
H760 N755 0.984 . S
H761 N755 0.985 . S
H762 N759 0.984 . S
H763 N759 0.985 . S
H764 N758 0.984 . S
H765 N758 0.984 . S
H766 N754 0.984 . S
H767 N754 0.985 . S
C768 C769 1.363 . S
C768 C774 1.379 . S
C768 N776 1.356 . S
C769 C768 1.363 . S
C769 C775 1.363 . S
C770 C771 1.363 . S
C770 C775 1.379 . S
C770 N777 1.356 . S
C771 C770 1.363 . S
C771 C774 1.363 . S
N772 C774 1.356 . S
N772 H784 0.984 . S
N772 H785 0.985 . S
N773 C775 1.356 . S
N773 H778 0.984 . S
N773 H779 0.985 . S
C774 C768 1.379 . S
C774 C771 1.363 . S
C774 N772 1.356 . S
C775 C769 1.363 . S
C775 C770 1.379 . S
C775 N773 1.356 . S
N776 C768 1.356 . S
N776 H782 0.984 . S
N776 H783 0.984 . S
N777 C770 1.356 . S
N777 H780 0.984 . S
N777 H781 0.985 . S
H778 N773 0.984 . S
H779 N773 0.985 . S
H780 N777 0.984 . S
H781 N777 0.985 . S
H782 N776 0.984 . S
H783 N776 0.984 . S
H784 N772 0.984 . S
H785 N772 0.985 . S
C786 C787 1.363 . S
C786 C792 1.379 . S
C786 N794 1.356 . S
C787 C786 1.363 . S
C787 C793 1.363 . S
C788 C789 1.363 . S
C788 C793 1.379 . S
C788 N795 1.356 . S
C789 C788 1.363 . S
C789 C792 1.363 . S
N790 C792 1.356 . S
N790 H802 0.984 . S
N790 H803 0.985 . S
N791 C793 1.356 . S
N791 H796 0.984 . S
N791 H797 0.985 . S
C792 C786 1.379 . S
C792 C789 1.363 . S
C792 N790 1.356 . S
C793 C787 1.363 . S
C793 C788 1.379 . S
C793 N791 1.356 . S
N794 C786 1.356 . S
N794 H800 0.984 . S
N794 H801 0.984 . S
N795 C788 1.356 . S
N795 H798 0.984 . S
N795 H799 0.985 1_545 S
H796 N791 0.984 . S
H797 N791 0.985 . S
H798 N795 0.984 . S
H799 N795 0.985 1_565 S
H800 N794 0.984 . S
H801 N794 0.984 . S
H802 N790 0.984 . S
H803 N790 0.985 . S
C804 C805 1.363 . S
C804 C810 1.379 . S
C804 N812 1.356 . S
C805 C804 1.363 . S
C805 C811 1.363 . S
C806 C807 1.363 . S
C806 C811 1.379 . S
C806 N813 1.356 . S
C807 C806 1.363 . S
C807 C810 1.363 . S
N808 C810 1.356 . S
N808 H820 0.984 . S
N808 H821 0.985 . S
N809 C811 1.356 . S
N809 H814 0.984 . S
N809 H815 0.985 1_545 S
C810 C804 1.379 . S
C810 C807 1.363 . S
C810 N808 1.356 . S
C811 C805 1.363 . S
C811 C806 1.379 . S
C811 N809 1.356 . S
N812 C804 1.356 . S
N812 H818 0.984 . S
N812 H819 0.984 . S
N813 C806 1.356 . S
N813 H816 0.984 . S
N813 H817 0.985 . S
H814 N809 0.984 . S
H815 N809 0.985 1_565 S
H816 N813 0.984 . S
H817 N813 0.985 . S
H818 N812 0.984 . S
H819 N812 0.984 . S
H820 N808 0.984 . S
H821 N808 0.985 . S
C822 C823 1.363 . S
C822 C828 1.379 . S
C822 N830 1.356 . S
C823 C822 1.363 . S
C823 C829 1.363 . S
C824 C825 1.363 . S
C824 C829 1.379 . S
C824 N831 1.356 1_556 S
C825 C824 1.363 . S
C825 C828 1.363 . S
N826 C828 1.356 . S
N826 H838 0.984 . S
N826 H839 0.985 . S
N827 C829 1.356 . S
N827 H832 0.984 . S
N827 H833 0.985 . S
C828 C822 1.379 . S
C828 C825 1.363 . S
C828 N826 1.356 . S
C829 C823 1.363 . S
C829 C824 1.379 . S
C829 N827 1.356 . S
N830 C822 1.356 . S
N830 H836 0.984 . S
N830 H837 0.984 . S
N831 C824 1.356 1_554 S
N831 H834 0.984 . S
N831 H835 0.985 . S
H832 N827 0.984 . S
H833 N827 0.985 . S
H834 N831 0.984 . S
H835 N831 0.985 . S
H836 N830 0.984 . S
H837 N830 0.984 . S
H838 N826 0.984 . S
H839 N826 0.985 . S
C840 C841 1.363 . S
C840 C846 1.379 . S
C840 N848 1.356 . S
C841 C840 1.363 . S
C841 C847 1.363 . S
C842 C843 1.363 . S
C842 C847 1.379 . S
C842 N849 1.356 . S
C843 C842 1.363 . S
C843 C846 1.363 . S
N844 C846 1.356 . S
N844 H856 0.984 . S
N844 H857 0.985 . S
N845 C847 1.356 . S
N845 H850 0.984 . S
N845 H851 0.985 . S
C846 C840 1.379 . S
C846 C843 1.363 . S
C846 N844 1.356 . S
C847 C841 1.363 . S
C847 C842 1.379 . S
C847 N845 1.356 . S
N848 C840 1.356 . S
N848 H854 0.984 . S
N848 H855 0.984 . S
N849 C842 1.356 . S
N849 H852 0.984 . S
N849 H853 0.985 . S
H850 N845 0.984 . S
H851 N845 0.985 . S
H852 N849 0.984 . S
H853 N849 0.985 . S
H854 N848 0.984 . S
H855 N848 0.984 . S
H856 N844 0.984 . S
H857 N844 0.985 . S
C858 C859 1.363 . S
C858 C864 1.379 . S
C858 N866 1.356 . S
C859 C858 1.363 . S
C859 C865 1.363 . S
C860 C861 1.363 . S
C860 C865 1.379 . S
C860 N867 1.356 . S
C861 C860 1.363 . S
C861 C864 1.363 . S
N862 C864 1.356 . S
N862 H874 0.984 . S
N862 H875 0.985 . S
N863 C865 1.356 . S
N863 H868 0.984 . S
N863 H869 0.985 . S
C864 C858 1.379 . S
C864 C861 1.363 . S
C864 N862 1.356 . S
C865 C859 1.363 . S
C865 C860 1.379 . S
C865 N863 1.356 . S
N866 C858 1.356 . S
N866 H872 0.984 . S
N866 H873 0.984 . S
N867 C860 1.356 . S
N867 H870 0.984 . S
N867 H871 0.985 . S
H868 N863 0.984 . S
H869 N863 0.985 . S
H870 N867 0.984 . S
H871 N867 0.985 . S
H872 N866 0.984 . S
H873 N866 0.984 . S
H874 N862 0.984 . S
H875 N862 0.985 . S
C876 C877 1.363 . S
C876 C882 1.379 . S
C876 N884 1.356 . S
C877 C876 1.363 . S
C877 C883 1.363 . S
C878 C879 1.363 . S
C878 C883 1.379 . S
C878 N885 1.356 . S
C879 C878 1.363 . S
C879 C882 1.363 . S
N880 C882 1.356 . S
N880 H892 0.984 . S
N880 H893 0.985 . S
N881 C883 1.356 . S
N881 H886 0.984 . S
N881 H887 0.985 . S
C882 C876 1.379 . S
C882 C879 1.363 . S
C882 N880 1.356 . S
C883 C877 1.363 . S
C883 C878 1.379 . S
C883 N881 1.356 . S
N884 C876 1.356 . S
N884 H890 0.984 . S
N884 H891 0.984 . S
N885 C878 1.356 . S
N885 H888 0.984 . S
N885 H889 0.985 . S
H886 N881 0.984 . S
H887 N881 0.985 . S
H888 N885 0.984 . S
H889 N885 0.985 . S
H890 N884 0.984 . S
H891 N884 0.984 . S
H892 N880 0.984 . S
H893 N880 0.985 . S
C894 C895 1.363 . S
C894 C900 1.379 . S
C894 N902 1.356 . S
C895 C894 1.363 . S
C895 C901 1.363 . S
C896 C897 1.363 . S
C896 C901 1.379 . S
C896 N903 1.356 . S
C897 C896 1.363 . S
C897 C900 1.363 . S
N898 C900 1.356 . S
N898 H910 0.984 . S
N898 H911 0.985 . S
N899 C901 1.356 . S
N899 H904 0.984 . S
N899 H905 0.985 . S
C900 C894 1.379 . S
C900 C897 1.363 . S
C900 N898 1.356 . S
C901 C895 1.363 . S
C901 C896 1.379 . S
C901 N899 1.356 . S
N902 C894 1.356 . S
N902 H908 0.984 . S
N902 H909 0.984 . S
N903 C896 1.356 . S
N903 H906 0.984 . S
N903 H907 0.985 . S
H904 N899 0.984 . S
H905 N899 0.985 . S
H906 N903 0.984 . S
H907 N903 0.985 . S
H908 N902 0.984 . S
H909 N902 0.984 . S
H910 N898 0.984 . S
H911 N898 0.985 . S
C912 C913 1.363 . S
C912 C918 1.379 . S
C912 N920 1.356 . S
C913 C912 1.363 . S
C913 C919 1.363 . S
C914 C915 1.363 . S
C914 C919 1.379 . S
C914 N921 1.356 . S
C915 C914 1.363 . S
C915 C918 1.363 . S
N916 C918 1.356 . S
N916 H928 0.984 . S
N916 H929 0.985 . S
N917 C919 1.356 . S
N917 H922 0.984 . S
N917 H923 0.985 . S
C918 C912 1.379 . S
C918 C915 1.363 . S
C918 N916 1.356 . S
C919 C913 1.363 . S
C919 C914 1.379 . S
C919 N917 1.356 . S
N920 C912 1.356 . S
N920 H926 0.984 . S
N920 H927 0.984 . S
N921 C914 1.356 . S
N921 H924 0.984 . S
N921 H925 0.985 . S
H922 N917 0.984 . S
H923 N917 0.985 . S
H924 N921 0.984 . S
H925 N921 0.985 . S
H926 N920 0.984 . S
H927 N920 0.984 . S
H928 N916 0.984 . S
H929 N916 0.985 . S
C930 C931 1.363 . S
C930 C936 1.379 . S
C930 N938 1.356 . S
C931 C930 1.363 . S
C931 C937 1.363 . S
C932 C933 1.363 . S
C932 C937 1.379 . S
C932 N939 1.356 . S
C933 C932 1.363 . S
C933 C936 1.363 . S
N934 C936 1.356 . S
N934 H946 0.984 . S
N934 H947 0.985 . S
N935 C937 1.356 1_554 S
N935 H940 0.984 . S
N935 H941 0.985 . S
C936 C930 1.379 . S
C936 C933 1.363 . S
C936 N934 1.356 . S
C937 C931 1.363 . S
C937 C932 1.379 . S
C937 N935 1.356 1_556 S
N938 C930 1.356 . S
N938 H944 0.984 . S
N938 H945 0.984 . S
N939 C932 1.356 . S
N939 H942 0.984 . S
N939 H943 0.985 . S
H940 N935 0.984 . S
H941 N935 0.985 . S
H942 N939 0.984 . S
H943 N939 0.985 . S
H944 N938 0.984 . S
H945 N938 0.984 . S
H946 N934 0.984 . S
H947 N934 0.985 . S
C948 C949 1.363 . S
C948 C954 1.379 . S
C948 N956 1.356 . S
C949 C948 1.363 . S
C949 C955 1.363 . S
C950 C951 1.363 . S
C950 C955 1.379 . S
C950 N957 1.356 . S
C951 C950 1.363 . S
C951 C954 1.363 . S
N952 C954 1.356 . S
N952 H964 0.984 . S
N952 H965 0.985 . S
N953 C955 1.356 . S
N953 H958 0.984 . S
N953 H959 0.985 . S
C954 C948 1.379 . S
C954 C951 1.363 . S
C954 N952 1.356 . S
C955 C949 1.363 . S
C955 C950 1.379 . S
C955 N953 1.356 . S
N956 C948 1.356 . S
N956 H962 0.984 . S
N956 H963 0.984 . S
N957 C950 1.356 . S
N957 H960 0.984 . S
N957 H961 0.985 . S
H958 N953 0.984 . S
H959 N953 0.985 . S
H960 N957 0.984 . S
H961 N957 0.985 . S
H962 N956 0.984 . S
H963 N956 0.984 . S
H964 N952 0.984 . S
H965 N952 0.985 . S
C966 C967 1.363 . S
C966 C972 1.379 . S
C966 N974 1.356 . S
C967 C966 1.363 . S
C967 C973 1.363 . S
C968 C969 1.363 . S
C968 C973 1.379 . S
C968 N975 1.356 . S
C969 C968 1.363 . S
C969 C972 1.363 . S
N970 C972 1.356 . S
N970 H982 0.984 . S
N970 H983 0.985 . S
N971 C973 1.356 . S
N971 H976 0.984 . S
N971 H977 0.985 . S
C972 C966 1.379 . S
C972 C969 1.363 . S
C972 N970 1.356 . S
C973 C967 1.363 . S
C973 C968 1.379 . S
C973 N971 1.356 . S
N974 C966 1.356 . S
N974 H980 0.984 . S
N974 H981 0.984 . S
N975 C968 1.356 . S
N975 H978 0.984 . S
N975 H979 0.985 . S
H976 N971 0.984 . S
H977 N971 0.985 . S
H978 N975 0.984 . S
H979 N975 0.985 . S
H980 N974 0.984 . S
H981 N974 0.984 . S
H982 N970 0.984 . S
H983 N970 0.985 . S
C984 C985 1.363 . S
C984 C990 1.379 . S
C984 N992 1.356 . S
C985 C984 1.363 . S
C985 C991 1.363 . S
C986 C987 1.363 . S
C986 C991 1.379 . S
C986 N993 1.356 . S
C987 C986 1.363 . S
C987 C990 1.363 . S
N988 C990 1.356 . S
N988 H1000 0.984 . S
N988 H1001 0.985 . S
N989 C991 1.356 . S
N989 H994 0.984 . S
N989 H995 0.985 . S
C990 C984 1.379 . S
C990 C987 1.363 . S
C990 N988 1.356 . S
C991 C985 1.363 . S
C991 C986 1.379 . S
C991 N989 1.356 . S
N992 C984 1.356 . S
N992 H998 0.984 . S
N992 H999 0.984 . S
N993 C986 1.356 . S
N993 H996 0.984 . S
N993 H997 0.985 . S
H994 N989 0.984 . S
H995 N989 0.985 . S
H996 N993 0.984 . S
H997 N993 0.985 . S
H998 N992 0.984 . S
H999 N992 0.984 . S
H1000 N988 0.984 . S
H1001 N988 0.985 . S
C1002 C1003 1.363 . S
C1002 C1008 1.379 . S
C1002 N1010 1.356 . S
C1003 C1002 1.363 . S
C1003 C1009 1.363 . S
C1004 C1005 1.363 . S
C1004 C1009 1.379 . S
C1004 N1011 1.356 . S
C1005 C1004 1.363 . S
C1005 C1008 1.363 . S
N1006 C1008 1.356 . S
N1006 H1018 0.984 . S
N1006 H1019 0.985 . S
N1007 C1009 1.356 . S
N1007 H1012 0.984 . S
N1007 H1013 0.985 . S
C1008 C1002 1.379 . S
C1008 C1005 1.363 . S
C1008 N1006 1.356 . S
C1009 C1003 1.363 . S
C1009 C1004 1.379 . S
C1009 N1007 1.356 . S
N1010 C1002 1.356 . S
N1010 H1016 0.984 . S
N1010 H1017 0.984 . S
N1011 C1004 1.356 . S
N1011 H1014 0.984 . S
N1011 H1015 0.985 . S
H1012 N1007 0.984 . S
H1013 N1007 0.985 . S
H1014 N1011 0.984 . S
H1015 N1011 0.985 . S
H1016 N1010 0.984 . S
H1017 N1010 0.984 . S
H1018 N1006 0.984 . S
H1019 N1006 0.985 . S
C1020 C1021 1.363 . S
C1020 C1026 1.379 . S
C1020 N1028 1.356 . S
C1021 C1020 1.363 . S
C1021 C1027 1.363 . S
C1022 C1023 1.363 . S
C1022 C1027 1.379 . S
C1022 N1029 1.356 . S
C1023 C1022 1.363 . S
C1023 C1026 1.363 . S
N1024 C1026 1.356 . S
N1024 H1036 0.984 . S
N1024 H1037 0.985 . S
N1025 C1027 1.356 . S
N1025 H1030 0.984 . S
N1025 H1031 0.985 . S
C1026 C1020 1.379 . S
C1026 C1023 1.363 . S
C1026 N1024 1.356 . S
C1027 C1021 1.363 . S
C1027 C1022 1.379 . S
C1027 N1025 1.356 . S
N1028 C1020 1.356 . S
N1028 H1034 0.984 . S
N1028 H1035 0.984 . S
N1029 C1022 1.356 . S
N1029 H1032 0.984 . S
N1029 H1033 0.985 . S
H1030 N1025 0.984 . S
H1031 N1025 0.985 . S
H1032 N1029 0.984 . S
H1033 N1029 0.985 . S
H1034 N1028 0.984 . S
H1035 N1028 0.984 . S
H1036 N1024 0.984 . S
H1037 N1024 0.985 . S
C1038 C1039 1.363 . S
C1038 C1044 1.379 . S
C1038 N1046 1.356 . S
C1039 C1038 1.363 . S
C1039 C1045 1.363 . S
C1040 C1041 1.363 . S
C1040 C1045 1.379 . S
C1040 N1047 1.356 . S
C1041 C1040 1.363 . S
C1041 C1044 1.363 . S
N1042 C1044 1.356 . S
N1042 H1054 0.984 . S
N1042 H1055 0.985 . S
N1043 C1045 1.356 . S
N1043 H1048 0.984 . S
N1043 H1049 0.985 . S
C1044 C1038 1.379 . S
C1044 C1041 1.363 . S
C1044 N1042 1.356 . S
C1045 C1039 1.363 . S
C1045 C1040 1.379 . S
C1045 N1043 1.356 . S
N1046 C1038 1.356 . S
N1046 H1052 0.984 . S
N1046 H1053 0.984 . S
N1047 C1040 1.356 . S
N1047 H1050 0.984 . S
N1047 H1051 0.985 . S
H1048 N1043 0.984 . S
H1049 N1043 0.985 . S
H1050 N1047 0.984 . S
H1051 N1047 0.985 . S
H1052 N1046 0.984 . S
H1053 N1046 0.984 . S
H1054 N1042 0.984 . S
H1055 N1042 0.985 . S
C1056 C1057 1.363 . S
C1056 C1062 1.379 . S
C1056 N1064 1.356 . S
C1057 C1056 1.363 . S
C1057 C1063 1.363 . S
C1058 C1059 1.363 . S
C1058 C1063 1.379 . S
C1058 N1065 1.356 . S
C1059 C1058 1.363 . S
C1059 C1062 1.363 . S
N1060 C1062 1.356 . S
N1060 H1072 0.984 . S
N1060 H1073 0.985 . S
N1061 C1063 1.356 . S
N1061 H1066 0.984 . S
N1061 H1067 0.985 . S
C1062 C1056 1.379 . S
C1062 C1059 1.363 . S
C1062 N1060 1.356 . S
C1063 C1057 1.363 . S
C1063 C1058 1.379 . S
C1063 N1061 1.356 . S
N1064 C1056 1.356 . S
N1064 H1070 0.984 . S
N1064 H1071 0.984 . S
N1065 C1058 1.356 . S
N1065 H1068 0.984 . S
N1065 H1069 0.985 . S
H1066 N1061 0.984 . S
H1067 N1061 0.985 . S
H1068 N1065 0.984 . S
H1069 N1065 0.985 . S
H1070 N1064 0.984 . S
H1071 N1064 0.984 . S
H1072 N1060 0.984 . S
H1073 N1060 0.985 . S
C1074 C1075 1.363 . S
C1074 C1080 1.379 . S
C1074 N1082 1.356 . S
C1075 C1074 1.363 . S
C1075 C1081 1.363 . S
C1076 C1077 1.363 . S
C1076 C1081 1.379 . S
C1076 N1083 1.356 . S
C1077 C1076 1.363 . S
C1077 C1080 1.363 . S
N1078 C1080 1.356 . S
N1078 H1090 0.984 . S
N1078 H1091 0.985 . S
N1079 C1081 1.356 . S
N1079 H1084 0.984 . S
N1079 H1085 0.985 . S
C1080 C1074 1.379 . S
C1080 C1077 1.363 . S
C1080 N1078 1.356 . S
C1081 C1075 1.363 . S
C1081 C1076 1.379 . S
C1081 N1079 1.356 . S
N1082 C1074 1.356 . S
N1082 H1088 0.984 . S
N1082 H1089 0.984 . S
N1083 C1076 1.356 . S
N1083 H1086 0.984 . S
N1083 H1087 0.985 . S
H1084 N1079 0.984 . S
H1085 N1079 0.985 . S
H1086 N1083 0.984 . S
H1087 N1083 0.985 . S
H1088 N1082 0.984 . S
H1089 N1082 0.984 . S
H1090 N1078 0.984 . S
H1091 N1078 0.985 . S
C1092 C1093 1.363 . S
C1092 C1098 1.379 . S
C1092 N1100 1.356 . S
C1093 C1092 1.363 . S
C1093 C1099 1.363 . S
C1094 C1095 1.363 . S
C1094 C1099 1.379 . S
C1094 N1101 1.356 . S
C1095 C1094 1.363 . S
C1095 C1098 1.363 . S
N1096 C1098 1.356 . S
N1096 H1108 0.984 . S
N1096 H1109 0.985 . S
N1097 C1099 1.356 . S
N1097 H1102 0.984 1_554 S
N1097 H1103 0.985 1_554 S
C1098 C1092 1.379 . S
C1098 C1095 1.363 . S
C1098 N1096 1.356 . S
C1099 C1093 1.363 . S
C1099 C1094 1.379 . S
C1099 N1097 1.356 . S
N1100 C1092 1.356 . S
N1100 H1106 0.984 . S
N1100 H1107 0.984 . S
N1101 C1094 1.356 . S
N1101 H1104 0.984 . S
N1101 H1105 0.985 . S
H1102 N1097 0.984 1_556 S
H1103 N1097 0.985 1_556 S
H1104 N1101 0.984 . S
H1105 N1101 0.985 . S
H1106 N1100 0.984 . S
H1107 N1100 0.984 . S
H1108 N1096 0.984 . S
H1109 N1096 0.985 . S
C1110 C1111 1.363 . S
C1110 C1116 1.379 . S
C1110 N1118 1.356 . S
C1111 C1110 1.363 . S
C1111 C1117 1.363 . S
C1112 C1113 1.363 . S
C1112 C1117 1.379 . S
C1112 N1119 1.356 . S
C1113 C1112 1.363 . S
C1113 C1116 1.363 . S
N1114 C1116 1.356 . S
N1114 H1126 0.984 . S
N1114 H1127 0.985 . S
N1115 C1117 1.356 . S
N1115 H1120 0.984 . S
N1115 H1121 0.985 . S
C1116 C1110 1.379 . S
C1116 C1113 1.363 . S
C1116 N1114 1.356 . S
C1117 C1111 1.363 . S
C1117 C1112 1.379 . S
C1117 N1115 1.356 . S
N1118 C1110 1.356 . S
N1118 H1124 0.984 . S
N1118 H1125 0.984 . S
N1119 C1112 1.356 . S
N1119 H1122 0.984 . S
N1119 H1123 0.985 . S
H1120 N1115 0.984 . S
H1121 N1115 0.985 . S
H1122 N1119 0.984 . S
H1123 N1119 0.985 . S
H1124 N1118 0.984 . S
H1125 N1118 0.984 . S
H1126 N1114 0.984 . S
H1127 N1114 0.985 . S
C1128 C1129 1.363 . S
C1128 C1134 1.379 . S
C1128 N1136 1.356 . S
C1129 C1128 1.363 . S
C1129 C1135 1.363 . S
C1130 C1131 1.363 . S
C1130 C1135 1.379 . S
C1130 N1137 1.356 . S
C1131 C1130 1.363 . S
C1131 C1134 1.363 . S
N1132 C1134 1.356 . S
N1132 H1144 0.984 . S
N1132 H1145 0.985 . S
N1133 C1135 1.356 . S
N1133 H1138 0.984 . S
N1133 H1139 0.985 . S
C1134 C1128 1.379 . S
C1134 C1131 1.363 . S
C1134 N1132 1.356 . S
C1135 C1129 1.363 . S
C1135 C1130 1.379 . S
C1135 N1133 1.356 . S
N1136 C1128 1.356 . S
N1136 H1142 0.984 . S
N1136 H1143 0.984 . S
N1137 C1130 1.356 . S
N1137 H1140 0.984 . S
N1137 H1141 0.985 . S
H1138 N1133 0.984 . S
H1139 N1133 0.985 . S
H1140 N1137 0.984 . S
H1141 N1137 0.985 . S
H1142 N1136 0.984 . S
H1143 N1136 0.984 . S
H1144 N1132 0.984 . S
H1145 N1132 0.985 . S
C1146 C1147 1.363 . S
C1146 C1152 1.379 . S
C1146 N1154 1.356 . S
C1147 C1146 1.363 . S
C1147 C1153 1.363 . S
C1148 C1149 1.363 . S
C1148 C1153 1.379 . S
C1148 N1155 1.356 . S
C1149 C1148 1.363 . S
C1149 C1152 1.363 . S
N1150 C1152 1.356 . S
N1150 H1162 0.984 . S
N1150 H1163 0.985 . S
N1151 C1153 1.356 . S
N1151 H1156 0.984 . S
N1151 H1157 0.985 . S
C1152 C1146 1.379 . S
C1152 C1149 1.363 . S
C1152 N1150 1.356 . S
C1153 C1147 1.363 . S
C1153 C1148 1.379 . S
C1153 N1151 1.356 . S
N1154 C1146 1.356 . S
N1154 H1160 0.984 . S
N1154 H1161 0.984 . S
N1155 C1148 1.356 . S
N1155 H1158 0.984 . S
N1155 H1159 0.985 . S
H1156 N1151 0.984 . S
H1157 N1151 0.985 . S
H1158 N1155 0.984 . S
H1159 N1155 0.985 . S
H1160 N1154 0.984 . S
H1161 N1154 0.984 . S
H1162 N1150 0.984 . S
H1163 N1150 0.985 . S
C1164 C1165 1.363 . S
C1164 C1170 1.379 . S
C1164 N1172 1.356 . S
C1165 C1164 1.363 . S
C1165 C1171 1.363 . S
C1166 C1167 1.363 . S
C1166 C1171 1.379 . S
C1166 N1173 1.356 . S
C1167 C1166 1.363 . S
C1167 C1170 1.363 . S
N1168 C1170 1.356 . S
N1168 H1180 0.984 . S
N1168 H1181 0.985 . S
N1169 C1171 1.356 . S
N1169 H1174 0.984 . S
N1169 H1175 0.985 . S
C1170 C1164 1.379 . S
C1170 C1167 1.363 . S
C1170 N1168 1.356 . S
C1171 C1165 1.363 . S
C1171 C1166 1.379 . S
C1171 N1169 1.356 . S
N1172 C1164 1.356 . S
N1172 H1178 0.984 . S
N1172 H1179 0.984 . S
N1173 C1166 1.356 . S
N1173 H1176 0.984 . S
N1173 H1177 0.985 . S
H1174 N1169 0.984 . S
H1175 N1169 0.985 . S
H1176 N1173 0.984 . S
H1177 N1173 0.985 . S
H1178 N1172 0.984 . S
H1179 N1172 0.984 . S
H1180 N1168 0.984 . S
H1181 N1168 0.985 . S
C1182 C1183 1.363 . S
C1182 C1188 1.379 . S
C1182 N1190 1.356 . S
C1183 C1182 1.363 . S
C1183 C1189 1.363 . S
C1184 C1185 1.363 . S
C1184 C1189 1.379 . S
C1184 N1191 1.356 . S
C1185 C1184 1.363 . S
C1185 C1188 1.363 . S
N1186 C1188 1.356 . S
N1186 H1198 0.984 . S
N1186 H1199 0.985 . S
N1187 C1189 1.356 . S
N1187 H1192 0.984 . S
N1187 H1193 0.985 . S
C1188 C1182 1.379 . S
C1188 C1185 1.363 . S
C1188 N1186 1.356 . S
C1189 C1183 1.363 . S
C1189 C1184 1.379 . S
C1189 N1187 1.356 . S
N1190 C1182 1.356 . S
N1190 H1196 0.984 . S
N1190 H1197 0.984 . S
N1191 C1184 1.356 . S
N1191 H1194 0.984 . S
N1191 H1195 0.985 . S
H1192 N1187 0.984 . S
H1193 N1187 0.985 . S
H1194 N1191 0.984 . S
H1195 N1191 0.985 . S
H1196 N1190 0.984 . S
H1197 N1190 0.984 . S
H1198 N1186 0.984 . S
H1199 N1186 0.985 . S
C337 C201 1.489 . S
C339 C11 1.486 . S
C355 C14 1.529 . S
C357 C210 1.531 . S
C373 C257 1.490 . S
C375 C33 1.490 . S
C391 C51 1.576 . S
C393 C191 1.582 . S
C409 C207 1.448 . S
C411 C67 1.447 . S
C427 C79 1.566 . S
C429 C219 1.560 . S
C445 C89 1.451 . S
C447 C263 1.450 . S
C463 C98 1.509 . S
C465 C182 1.508 . S
C481 C137 1.406 . S
C483 C123 1.406 . S
C499 C145 1.533 . S
C501 C131 1.533 . S
C517 C151 1.459 . S
C519 C165 1.458 . S
C535 C159 1.477 . S
C537 C117 1.477 . S
C553 C168 1.531 . S
C555 C42 1.529 . S
C571 C61 1.451 . S
C573 C235 1.450 . S
C589 C247 1.582 . S
C591 C23 1.576 . S
C607 C25 1.488 . S
C609 C303 1.482 . S
C625 C126 1.454 . S
C627 C9 1.450 . S
C643 C331 1.522 . S
C645 C47 1.535 . S
C661 C154 1.443 . S
C663 C28 1.444 . S
C679 C294 1.465 . S
C681 C109 1.463 . S
C697 C135 1.461 . S
C699 C84 1.468 . S
C715 C75 1.506 . S
C717 C322 1.503 . S
C733 C65 1.469 . S
C735 C163 1.469 . S
C751 C215 1.539 . S
C753 C275 1.528 . S
C769 C224 1.459 . S
C771 C221 1.456 . S
C787 C193 1.497 . S
C789 C233 1.491 . S
C805 C266 1.496 . S
C807 C187 1.498 . S
C823 C37 1.450 . S
C825 C280 1.454 . S
C841 C140 1.503 . S
C843 C103 1.506 . S
C859 C0 1.444 . S
C861 C308 1.443 . S
C877 C271 1.489 . S
C879 C39 1.486 . S
C895 C5 1.490 . S
C897 C229 1.490 . S
C913 C277 1.448 . S
C915 C95 1.447 . S
C931 C177 1.560 . S
C933 C107 1.566 . S
C949 C70 1.509 . S
C951 C238 1.508 . S
C967 C305 1.406 . S
C969 C291 1.406 . S
C985 C327 1.533 . S
C987 C285 1.533 . S
C1003 C319 1.458 . S
C1005 C333 1.459 . S
C1021 C299 1.477 . S
C1023 C313 1.477 . S
C1039 C121 1.481 . S
C1041 C53 1.488 . S
C1057 C19 1.535 . S
C1059 C149 1.522 . S
C1075 C81 1.463 . S
C1077 C112 1.465 . S
C1093 C289 1.461 . S
C1095 C56 1.468 . S
C1111 C93 1.469 . S
C1113 C317 1.469 . S
C1129 C173 1.539 . S
C1131 C205 1.528 . S
C1147 C252 1.459 . S
C1149 C179 1.456 . S
C1165 C249 1.497 . S
C1167 C261 1.491 . S
C1183 C196 1.496 . S
C1185 C243 1.498 . S
