# Generated by pormake.
# Topology umk, (4)-cn, num edge types: 1
# Building blocks:
#     Node 0, Type 0, BuildingBlock: NAHDIM_clean_sbu_0, # of connection points: 4
#     Node 1, Type 0, BuildingBlock: NAHDIM_clean_sbu_0, # of connection points: 4
#     Node 2, Type 0, BuildingBlock: NAHDIM_clean_sbu_0, # of connection points: 4
#     Node 3, Type 0, BuildingBlock: NAHDIM_clean_sbu_0, # of connection points: 4
#     Node 4, Type 0, BuildingBlock: NAHDIM_clean_sbu_0, # of connection points: 4
#     Node 5, Type 0, BuildingBlock: NAHDIM_clean_sbu_0, # of connection points: 4
#     Node 6, Type 0, BuildingBlock: NAHDIM_clean_sbu_0, # of connection points: 4
#     Node 7, Type 0, BuildingBlock: NAHDIM_clean_sbu_0, # of connection points: 4
#     Node 8, Type 0, BuildingBlock: NAHDIM_clean_sbu_0, # of connection points: 4
#     Node 9, Type 0, BuildingBlock: NAHDIM_clean_sbu_0, # of connection points: 4
#     Node 10, Type 0, BuildingBlock: NAHDIM_clean_sbu_0, # of connection points: 4
#     Node 11, Type 0, BuildingBlock: NAHDIM_clean_sbu_0, # of connection points: 4
#     Node 12, Type 0, BuildingBlock: NAHDIM_clean_sbu_0, # of connection points: 4
#     Node 13, Type 0, BuildingBlock: NAHDIM_clean_sbu_0, # of connection points: 4
#     Node 14, Type 0, BuildingBlock: NAHDIM_clean_sbu_0, # of connection points: 4
#     Node 15, Type 0, BuildingBlock: NAHDIM_clean_sbu_0, # of connection points: 4
#     Node 16, Type 0, BuildingBlock: NAHDIM_clean_sbu_0, # of connection points: 4
#     Node 17, Type 0, BuildingBlock: NAHDIM_clean_sbu_0, # of connection points: 4
#     Node 18, Type 0, BuildingBlock: NAHDIM_clean_sbu_0, # of connection points: 4
#     Node 19, Type 0, BuildingBlock: NAHDIM_clean_sbu_0, # of connection points: 4
#     Node 20, Type 0, BuildingBlock: NAHDIM_clean_sbu_0, # of connection points: 4
#     Node 21, Type 0, BuildingBlock: NAHDIM_clean_sbu_0, # of connection points: 4
#     Node 22, Type 0, BuildingBlock: NAHDIM_clean_sbu_0, # of connection points: 4
#     Node 23, Type 0, BuildingBlock: NAHDIM_clean_sbu_0, # of connection points: 4
#     Edge 24, Type (0, 0), BuildingBlock: OJICUG_clean_linker_0, # of connection points: 2
#     Edge 25, Type (0, 0), BuildingBlock: OJICUG_clean_linker_0, # of connection points: 2
#     Edge 26, Type (0, 0), BuildingBlock: OJICUG_clean_linker_0, # of connection points: 2
#     Edge 27, Type (0, 0), BuildingBlock: OJICUG_clean_linker_0, # of connection points: 2
#     Edge 28, Type (0, 0), BuildingBlock: OJICUG_clean_linker_0, # of connection points: 2
#     Edge 29, Type (0, 0), BuildingBlock: OJICUG_clean_linker_0, # of connection points: 2
#     Edge 30, Type (0, 0), BuildingBlock: OJICUG_clean_linker_0, # of connection points: 2
#     Edge 31, Type (0, 0), BuildingBlock: OJICUG_clean_linker_0, # of connection points: 2
#     Edge 32, Type (0, 0), BuildingBlock: OJICUG_clean_linker_0, # of connection points: 2
#     Edge 33, Type (0, 0), BuildingBlock: OJICUG_clean_linker_0, # of connection points: 2
#     Edge 34, Type (0, 0), BuildingBlock: OJICUG_clean_linker_0, # of connection points: 2
#     Edge 35, Type (0, 0), BuildingBlock: OJICUG_clean_linker_0, # of connection points: 2
#     Edge 36, Type (0, 0), BuildingBlock: OJICUG_clean_linker_0, # of connection points: 2
#     Edge 37, Type (0, 0), BuildingBlock: OJICUG_clean_linker_0, # of connection points: 2
#     Edge 38, Type (0, 0), BuildingBlock: OJICUG_clean_linker_0, # of connection points: 2
#     Edge 39, Type (0, 0), BuildingBlock: OJICUG_clean_linker_0, # of connection points: 2
#     Edge 40, Type (0, 0), BuildingBlock: OJICUG_clean_linker_0, # of connection points: 2
#     Edge 41, Type (0, 0), BuildingBlock: OJICUG_clean_linker_0, # of connection points: 2
#     Edge 42, Type (0, 0), BuildingBlock: OJICUG_clean_linker_0, # of connection points: 2
#     Edge 43, Type (0, 0), BuildingBlock: OJICUG_clean_linker_0, # of connection points: 2
#     Edge 44, Type (0, 0), BuildingBlock: OJICUG_clean_linker_0, # of connection points: 2
#     Edge 45, Type (0, 0), BuildingBlock: OJICUG_clean_linker_0, # of connection points: 2
#     Edge 46, Type (0, 0), BuildingBlock: OJICUG_clean_linker_0, # of connection points: 2
#     Edge 47, Type (0, 0), BuildingBlock: OJICUG_clean_linker_0, # of connection points: 2
#     Edge 48, Type (0, 0), BuildingBlock: OJICUG_clean_linker_0, # of connection points: 2
#     Edge 49, Type (0, 0), BuildingBlock: OJICUG_clean_linker_0, # of connection points: 2
#     Edge 50, Type (0, 0), BuildingBlock: OJICUG_clean_linker_0, # of connection points: 2
#     Edge 51, Type (0, 0), BuildingBlock: OJICUG_clean_linker_0, # of connection points: 2
#     Edge 52, Type (0, 0), BuildingBlock: OJICUG_clean_linker_0, # of connection points: 2
#     Edge 53, Type (0, 0), BuildingBlock: OJICUG_clean_linker_0, # of connection points: 2
#     Edge 54, Type (0, 0), BuildingBlock: OJICUG_clean_linker_0, # of connection points: 2
#     Edge 55, Type (0, 0), BuildingBlock: OJICUG_clean_linker_0, # of connection points: 2
#     Edge 56, Type (0, 0), BuildingBlock: OJICUG_clean_linker_0, # of connection points: 2
#     Edge 57, Type (0, 0), BuildingBlock: OJICUG_clean_linker_0, # of connection points: 2
#     Edge 58, Type (0, 0), BuildingBlock: OJICUG_clean_linker_0, # of connection points: 2
#     Edge 59, Type (0, 0), BuildingBlock: OJICUG_clean_linker_0, # of connection points: 2
#     Edge 60, Type (0, 0), BuildingBlock: OJICUG_clean_linker_0, # of connection points: 2
#     Edge 61, Type (0, 0), BuildingBlock: OJICUG_clean_linker_0, # of connection points: 2
#     Edge 62, Type (0, 0), BuildingBlock: OJICUG_clean_linker_0, # of connection points: 2
#     Edge 63, Type (0, 0), BuildingBlock: OJICUG_clean_linker_0, # of connection points: 2
#     Edge 64, Type (0, 0), BuildingBlock: OJICUG_clean_linker_0, # of connection points: 2
#     Edge 65, Type (0, 0), BuildingBlock: OJICUG_clean_linker_0, # of connection points: 2
#     Edge 66, Type (0, 0), BuildingBlock: OJICUG_clean_linker_0, # of connection points: 2
#     Edge 67, Type (0, 0), BuildingBlock: OJICUG_clean_linker_0, # of connection points: 2
#     Edge 68, Type (0, 0), BuildingBlock: OJICUG_clean_linker_0, # of connection points: 2
#     Edge 69, Type (0, 0), BuildingBlock: OJICUG_clean_linker_0, # of connection points: 2
#     Edge 70, Type (0, 0), BuildingBlock: OJICUG_clean_linker_0, # of connection points: 2
#     Edge 71, Type (0, 0), BuildingBlock: OJICUG_clean_linker_0, # of connection points: 2
# Relax obj value: 0.113
# Max RMSD: 0.134
# Mean RMSD: 0.134
data_MOF--net-umk--node1-NAHDIM_clean_sbu_0--edge1-OJICUG_clean_linker_0
_symmetry_space_group_name_H-M    P1
_symmetry_Int_Tables_number       1
_symmetry_cell_setting            triclinic
loop_
_symmetry_equiv_pos_as_xyz
'x, y, z'
_cell_length_a     49.263387
_cell_length_b     49.410328
_cell_length_c     30.456573
_cell_angle_alpha  90.002555
_cell_angle_beta   90.015029
_cell_angle_gamma 119.78436
loop_
_atom_site_label
_atom_site_type_symbol
_atom_site_fract_x
_atom_site_fract_y
_atom_site_fract_z
_atom_type_partial_charge
C0 C 0.29887 0.49197 0.03107 0.0
O1 O 0.32431 0.51876 0.03838 0.0
O2 O 0.33999 0.47918 0.13353 0.0
Zn3 Zn 0.33763 0.47012 0.06829 0.0
O4 O 0.37573 0.50316 0.0369 0.0
C5 C 0.32932 0.40875 0.08804 0.0
O6 O 0.31448 0.41028 0.12296 0.0
O7 O 0.29862 0.46688 0.04122 0.0
C8 C 0.39308 0.53098 0.05007 0.0
O9 O 0.38609 0.54017 0.08671 0.0
C10 C 0.31815 0.48021 0.15437 0.0
O11 O 0.29342 0.47643 0.13277 0.0
O12 O 0.33932 0.43063 0.05996 0.0
C13 C 0.82219 0.26057 0.55216 0.0
O14 O 0.81453 0.27608 0.5798 0.0
O15 O 0.87407 0.31218 0.63491 0.0
Zn16 Zn 0.87973 0.3135 0.56903 0.0
O17 O 0.86927 0.34398 0.5407 0.0
C18 C 0.94163 0.3224 0.58274 0.0
O19 O 0.92821 0.30413 0.61665 0.0
O20 O 0.85085 0.27158 0.54243 0.0
C21 C 0.88549 0.37316 0.54727 0.0
O22 O 0.90916 0.38381 0.57476 0.0
C23 C 0.85988 0.32377 0.65575 0.0
O24 O 0.8469 0.3373 0.63386 0.0
O25 O 0.92502 0.32814 0.55656 0.0
C26 C 0.56322 0.82914 0.04738 0.0
O27 O 0.58177 0.84115 0.08147 0.0
O28 O 0.53511 0.85977 0.13922 0.0
Zn29 Zn 0.53562 0.86739 0.07408 0.0
O30 O 0.49457 0.86279 0.05441 0.0
C31 C 0.59301 0.92626 0.08468 0.0
O32 O 0.59841 0.91141 0.11622 0.0
O33 O 0.54301 0.83727 0.0391 0.0
C34 C 0.48349 0.8784 0.07242 0.0
O35 O 0.49851 0.89673 0.10566 0.0
C36 C 0.51117 0.83983 0.16019 0.0
O37 O 0.48516 0.82204 0.13864 0.0
O38 O 0.56842 0.91166 0.06158 0.0
C39 C 0.69636 0.4976 0.53917 0.0
O40 O 0.67154 0.47105 0.54968 0.0
O41 O 0.65355 0.51281 0.63322 0.0
Zn42 Zn 0.65539 0.51862 0.56736 0.0
O43 O 0.61907 0.48282 0.53661 0.0
C44 C 0.66418 0.58053 0.57964 0.0
O45 O 0.68162 0.58129 0.6128 0.0
O46 O 0.69552 0.52274 0.54391 0.0
C47 C 0.5917 0.46828 0.55274 0.0
O48 O 0.58656 0.47592 0.59193 0.0
C49 C 0.64476 0.48736 0.65367 0.0
O50 O 0.63566 0.46151 0.63135 0.0
O51 O 0.65201 0.55676 0.55474 0.0
C52 C 0.16589 0.7303 0.05478 0.0
O53 O 0.17413 0.71746 0.08597 0.0
O54 O 0.11561 0.67535 0.13397 0.0
Zn55 Zn 0.10978 0.67402 0.0681 0.0
O56 O 0.12106 0.64416 0.03958 0.0
C57 C 0.04781 0.66467 0.08217 0.0
O58 O 0.06148 0.68342 0.11557 0.0
O59 O 0.1377 0.71625 0.04155 0.0
C60 C 0.10595 0.61507 0.04732 0.0
O61 O 0.08291 0.6042 0.07586 0.0
C62 C 0.13072 0.66472 0.15467 0.0
O63 O 0.14463 0.65218 0.13264 0.0
O64 O 0.06425 0.65863 0.05609 0.0
C65 C 0.42398 0.16126 0.5531 0.0
O66 O 0.41878 0.15877 0.59562 0.0
O67 O 0.45377 0.12978 0.63394 0.0
Zn68 Zn 0.44891 0.11966 0.56909 0.0
O69 O 0.48892 0.125 0.54317 0.0
C70 C 0.39318 0.06053 0.58742 0.0
O71 O 0.38883 0.07631 0.6187 0.0
O72 O 0.43619 0.14656 0.53542 0.0
C73 C 0.48765 0.11425 0.50481 0.0
O74 O 0.46078 0.10098 0.48385 0.0
C75 C 0.47987 0.14325 0.65393 0.0
O76 O 0.50578 0.15247 0.63152 0.0
O77 O 0.41656 0.07456 0.562 0.0
C78 C 0.55784 0.72692 0.94847 0.0
O79 O 0.53474 0.71231 0.92048 0.0
O80 O 0.55614 0.67373 0.86583 0.0
Zn81 Zn 0.56012 0.67244 0.93187 0.0
O82 O 0.51877 0.64315 0.95991 0.0
C83 C 0.61278 0.66263 0.92058 0.0
O84 O 0.61926 0.68232 0.88797 0.0
O85 O 0.57446 0.71473 0.95838 0.0
C86 C 0.50472 0.61399 0.95271 0.0
O87 O 0.51692 0.60267 0.92488 0.0
C88 C 0.53045 0.66336 0.84511 0.0
O89 O 0.5041 0.65141 0.8672 0.0
O90 O 0.58948 0.65623 0.94509 0.0
C91 C 0.80506 0.49701 0.46862 0.0
O92 O 0.80405 0.47027 0.46192 0.0
O93 O 0.86 0.51113 0.36586 0.0
Zn94 Zn 0.86583 0.51952 0.43134 0.0
O95 O 0.87123 0.48646 0.46241 0.0
C96 C 0.91684 0.58229 0.41418 0.0
O97 O 0.90006 0.58089 0.37982 0.0
O98 O 0.8296 0.52211 0.45795 0.0
C99 C 0.86039 0.4586 0.44911 0.0
O100 O 0.84395 0.44965 0.41268 0.0
C101 C 0.83604 0.50744 0.34496 0.0
O102 O 0.81326 0.508 0.36658 0.0
O103 O 0.90611 0.55952 0.44084 0.0
C104 C 0.26375 0.83269 0.95826 0.0
O105 O 0.25812 0.84246 0.92107 0.0
O106 O 0.32418 0.86184 0.87093 0.0
Zn107 Zn 0.32991 0.87186 0.93563 0.0
O108 O 0.36625 0.86859 0.95968 0.0
C109 C 0.33001 0.92956 0.9177 0.0
O110 O 0.31094 0.91339 0.88567 0.0
O111 O 0.29186 0.84248 0.96999 0.0
C112 C 0.37582 0.87918 0.99806 0.0
O113 O 0.36173 0.89163 0.0199 0.0
C114 C 0.33504 0.8466 0.85114 0.0
O115 O 0.34999 0.83542 0.87375 0.0
O116 O 0.33989 0.91621 0.94366 0.0
C117 C 0.41446 0.25409 0.45008 0.0
O118 O 0.41811 0.25505 0.40729 0.0
O119 O 0.43413 0.31644 0.37421 0.0
Zn120 Zn 0.42778 0.3182 0.43954 0.0
O121 O 0.46684 0.35127 0.46923 0.0
C122 C 0.3739 0.32486 0.41963 0.0
O123 O 0.37159 0.30777 0.38526 0.0
O124 O 0.41611 0.27755 0.46974 0.0
C125 C 0.48856 0.37532 0.45066 0.0
O126 O 0.48667 0.37968 0.40848 0.0
C127 C 0.45737 0.31691 0.35532 0.0
O128 O 0.48022 0.31822 0.37918 0.0
O129 O 0.395 0.33065 0.44806 0.0
C130 C 0.18969 0.4911 0.95926 0.0
O131 O 0.19227 0.51691 0.94304 0.0
O132 O 0.13302 0.47765 0.86714 0.0
Zn133 Zn 0.12687 0.46913 0.93253 0.0
O134 O 0.12228 0.5026 0.96382 0.0
C135 C 0.07526 0.40606 0.91656 0.0
O136 O 0.09211 0.40632 0.88296 0.0
O137 O 0.16311 0.46642 0.95867 0.0
C138 C 0.13292 0.53042 0.95042 0.0
O139 O 0.14877 0.53922 0.9135 0.0
C140 C 0.14992 0.46975 0.84514 0.0
O141 O 0.16408 0.45684 0.86565 0.0
O142 O 0.08618 0.42944 0.94216 0.0
C143 C 0.72332 0.15934 0.45483 0.0
O144 O 0.72923 0.14652 0.42108 0.0
O145 O 0.66436 0.12942 0.3638 0.0
Zn146 Zn 0.65749 0.12193 0.42893 0.0
O147 O 0.62128 0.12689 0.44904 0.0
C148 C 0.65793 0.06402 0.41875 0.0
O149 O 0.67861 0.07967 0.38809 0.0
O150 O 0.69524 0.15203 0.46328 0.0
C151 C 0.5949 0.11293 0.4299 0.0
O152 O 0.59151 0.09567 0.39526 0.0
C153 C 0.6613 0.14996 0.34276 0.0
O154 O 0.65402 0.16855 0.3642 0.0
O155 O 0.6466 0.07773 0.44127 0.0
C156 C 0.69354 0.49529 0.95988 0.0
O157 O 0.66942 0.46889 0.94703 0.0
O158 O 0.6534 0.51248 0.86449 0.0
Zn159 Zn 0.65303 0.51674 0.93032 0.0
O160 O 0.61538 0.47968 0.95677 0.0
C161 C 0.66264 0.57911 0.91968 0.0
O162 O 0.68114 0.58045 0.88767 0.0
O163 O 0.69234 0.52029 0.95614 0.0
C164 C 0.6075 0.48213 0.99569 0.0
O165 O 0.62434 0.50837 0.01713 0.0
C166 C 0.64207 0.48679 0.84379 0.0
O167 O 0.62915 0.46048 0.86589 0.0
O168 O 0.64935 0.55473 0.94332 0.0
C169 C 0.1685 0.72911 0.4491 0.0
O170 O 0.17659 0.71313 0.42302 0.0
O171 O 0.11712 0.67737 0.36526 0.0
Zn172 Zn 0.1112 0.67631 0.43104 0.0
O173 O 0.12175 0.64607 0.45998 0.0
C174 C 0.04938 0.66722 0.41626 0.0
O175 O 0.06298 0.68531 0.38226 0.0
O176 O 0.13967 0.71841 0.45736 0.0
C177 C 0.10587 0.6169 0.45307 0.0
O178 O 0.08254 0.60618 0.42502 0.0
C179 C 0.13161 0.66599 0.34472 0.0
O180 O 0.14492 0.65291 0.36692 0.0
O181 O 0.06584 0.66161 0.44291 0.0
C182 C 0.43187 0.16697 0.95072 0.0
O183 O 0.42354 0.16413 0.90924 0.0
O184 O 0.4563 0.13202 0.86499 0.0
Zn185 Zn 0.45304 0.12249 0.92995 0.0
O186 O 0.49279 0.12568 0.95325 0.0
C187 C 0.39587 0.06375 0.91385 0.0
O188 O 0.39208 0.07883 0.88106 0.0
O189 O 0.44412 0.15144 0.96542 0.0
C190 C 0.49176 0.1157 0.99205 0.0
O191 O 0.46552 0.10459 0.0143 0.0
C192 C 0.48194 0.14486 0.84385 0.0
O193 O 0.50827 0.15393 0.86513 0.0
O194 O 0.41932 0.07809 0.93909 0.0
C195 C 0.29687 0.49381 0.46714 0.0
O196 O 0.3225 0.5205 0.46016 0.0
O197 O 0.33837 0.47937 0.36592 0.0
Zn198 Zn 0.33512 0.47063 0.43129 0.0
O199 O 0.37348 0.50309 0.46305 0.0
C200 C 0.32406 0.408 0.41322 0.0
O201 O 0.31039 0.41015 0.3774 0.0
O202 O 0.29643 0.46861 0.45723 0.0
C203 C 0.39112 0.53087 0.44996 0.0
O204 O 0.38431 0.54027 0.41335 0.0
C205 C 0.31691 0.48055 0.34424 0.0
O206 O 0.29203 0.4771 0.365 0.0
O207 O 0.33474 0.43021 0.44084 0.0
C208 C 0.82384 0.25793 0.94653 0.0
O209 O 0.81572 0.27146 0.9162 0.0
O210 O 0.87471 0.3121 0.86634 0.0
Zn211 Zn 0.88045 0.31325 0.93223 0.0
O212 O 0.86946 0.34326 0.96083 0.0
C213 C 0.94237 0.32233 0.91846 0.0
O214 O 0.92879 0.30364 0.88497 0.0
O215 O 0.85223 0.27112 0.95878 0.0
C216 C 0.88499 0.3724 0.95361 0.0
O217 O 0.90828 0.38323 0.92547 0.0
C218 C 0.86 0.32326 0.84581 0.0
O219 O 0.84647 0.33609 0.86805 0.0
O220 O 0.92588 0.32838 0.94442 0.0
C221 C 0.56573 0.83074 0.45724 0.0
O222 O 0.57942 0.83884 0.41869 0.0
O223 O 0.53733 0.86188 0.36999 0.0
Zn224 Zn 0.53908 0.87042 0.43501 0.0
O225 O 0.49794 0.86471 0.45626 0.0
C226 C 0.59534 0.92982 0.42197 0.0
O227 O 0.60101 0.9146 0.39128 0.0
O228 O 0.54857 0.84172 0.46992 0.0
C229 C 0.4857 0.87922 0.4381 0.0
O230 O 0.49963 0.89704 0.40397 0.0
C231 C 0.51315 0.84129 0.35014 0.0
O232 O 0.48773 0.82347 0.37283 0.0
O233 O 0.57105 0.91527 0.44562 0.0
C234 C 0.43277 0.26246 0.06103 0.0
O235 O 0.44442 0.26651 0.10083 0.0
O236 O 0.4399 0.31741 0.14352 0.0
Zn237 Zn 0.43864 0.32262 0.07782 0.0
O238 O 0.48058 0.35593 0.05567 0.0
C239 C 0.38436 0.32979 0.09045 0.0
O240 O 0.37903 0.31054 0.12329 0.0
O241 O 0.42723 0.28294 0.04489 0.0
C242 C 0.49446 0.38288 0.07297 0.0
O243 O 0.48156 0.38867 0.10678 0.0
C244 C 0.46381 0.32214 0.16552 0.0
O245 O 0.49018 0.33017 0.14496 0.0
O246 O 0.40774 0.33713 0.06559 0.0
C247 C 0.18803 0.49292 0.54015 0.0
O248 O 0.1906 0.51874 0.55626 0.0
O249 O 0.13206 0.47858 0.63402 0.0
Zn250 Zn 0.12543 0.47037 0.5686 0.0
O251 O 0.12041 0.50379 0.53797 0.0
C252 C 0.0743 0.407 0.58438 0.0
O253 O 0.09138 0.40731 0.6177 0.0
O254 O 0.1616 0.46808 0.54152 0.0
C255 C 0.13135 0.53168 0.5512 0.0
O256 O 0.14766 0.54059 0.58774 0.0
C257 C 0.14922 0.47062 0.65526 0.0
O258 O 0.1633 0.45797 0.6339 0.0
O259 O 0.08487 0.43051 0.55904 0.0
C260 C 0.72558 0.15699 0.04468 0.0
O261 O 0.73133 0.14681 0.08141 0.0
O262 O 0.66599 0.12746 0.1333 0.0
Zn263 Zn 0.65942 0.11878 0.06834 0.0
O264 O 0.62376 0.12413 0.04686 0.0
C265 C 0.65872 0.06053 0.08133 0.0
O266 O 0.67977 0.07655 0.11143 0.0
O267 O 0.69746 0.14782 0.03368 0.0
C268 C 0.59744 0.11095 0.06618 0.0
O269 O 0.59386 0.09425 0.10154 0.0
C270 C 0.66281 0.14844 0.15286 0.0
O271 O 0.65585 0.16667 0.12986 0.0
O272 O 0.64769 0.07414 0.05801 0.0
C273 C 0.56126 0.72891 0.55565 0.0
O274 O 0.54119 0.71726 0.58817 0.0
O275 O 0.55541 0.67259 0.63406 0.0
Zn276 Zn 0.55915 0.67127 0.56798 0.0
O277 O 0.51769 0.64214 0.53993 0.0
C278 C 0.61219 0.66221 0.57895 0.0
O279 O 0.61871 0.68228 0.61106 0.0
O280 O 0.57396 0.71365 0.54147 0.0
C281 C 0.50321 0.613 0.54737 0.0
O282 O 0.51504 0.60148 0.5755 0.0
C283 C 0.52987 0.66269 0.65498 0.0
O284 O 0.50345 0.65116 0.6331 0.0
O285 O 0.58854 0.65511 0.5548 0.0
C286 C 0.80219 0.49521 0.032 0.0
O287 O 0.80123 0.46854 0.03918 0.0
O288 O 0.85832 0.51005 0.13348 0.0
Zn289 Zn 0.86345 0.51807 0.0679 0.0
O290 O 0.86864 0.48487 0.03689 0.0
C291 C 0.91497 0.58071 0.08445 0.0
O292 O 0.89851 0.57951 0.11908 0.0
O293 O 0.8269 0.52043 0.04186 0.0
C294 C 0.85828 0.45717 0.05059 0.0
O295 O 0.84233 0.44838 0.08743 0.0
C296 C 0.83472 0.50673 0.15499 0.0
O297 O 0.81179 0.5074 0.13396 0.0
O298 O 0.9038 0.55795 0.05774 0.0
C299 C 0.26542 0.83194 0.54659 0.0
O300 O 0.25899 0.84648 0.57743 0.0
O301 O 0.32483 0.85992 0.64035 0.0
Zn302 Zn 0.33076 0.86894 0.57542 0.0
O303 O 0.368 0.86682 0.55261 0.0
C304 C 0.32967 0.92639 0.59086 0.0
O305 O 0.3115 0.91095 0.62403 0.0
O306 O 0.29348 0.83814 0.54102 0.0
C307 C 0.37669 0.87654 0.51366 0.0
O308 O 0.36118 0.88718 0.4912 0.0
C309 C 0.33575 0.84519 0.66131 0.0
O310 O 0.35103 0.83386 0.63984 0.0
O311 O 0.33938 0.91267 0.56535 0.0
C312 C 0.29481 0.48347 0.22587 0.0
C313 C 0.31929 0.48297 0.20287 0.0
H314 H 0.27495 0.4833 0.28838 0.0
C315 C 0.34401 0.4836 0.22681 0.0
H316 H 0.27548 0.48316 0.20847 0.0
C317 C 0.3437 0.48367 0.27275 0.0
C318 C 0.31868 0.48313 0.29573 0.0
H319 H 0.36327 0.4833 0.21013 0.0
H320 H 0.36274 0.48343 0.2902 0.0
C321 C 0.2945 0.48355 0.27175 0.0
C322 C 0.87373 0.30916 0.72768 0.0
C323 C 0.85892 0.32276 0.70436 0.0
H324 H 0.88566 0.29859 0.7904 0.0
C325 C 0.84378 0.3359 0.72799 0.0
H326 H 0.88561 0.29881 0.71054 0.0
C327 C 0.8438 0.33577 0.77393 0.0
C328 C 0.85897 0.32251 0.7972 0.0
H329 H 0.83212 0.34655 0.71104 0.0
H330 H 0.83216 0.34632 0.79115 0.0
C331 C 0.87377 0.30904 0.77354 0.0
C332 C 0.4857 0.81854 0.27874 0.0
C333 C 0.51309 0.83916 0.3016 0.0
H334 H 0.46359 0.80247 0.21615 0.0
C335 C 0.54021 0.85877 0.27751 0.0
H336 H 0.46442 0.80308 0.29629 0.0
C337 C 0.53974 0.85841 0.23165 0.0
C338 C 0.51213 0.83844 0.20874 0.0
H339 H 0.56175 0.87487 0.29404 0.0
H340 H 0.56093 0.87425 0.2142 0.0
C341 C 0.48522 0.81819 0.23278 0.0
C342 C 0.65511 0.51489 0.77176 0.0
C343 C 0.64305 0.48673 0.79517 0.0
H344 H 0.66507 0.53716 0.70902 0.0
C345 C 0.63178 0.45869 0.77163 0.0
H346 H 0.66398 0.53693 0.78881 0.0
C347 C 0.63248 0.45884 0.72567 0.0
C348 C 0.64436 0.48701 0.70232 0.0
H349 H 0.62236 0.4366 0.78866 0.0
H350 H 0.62354 0.43684 0.70849 0.0
C351 C 0.65571 0.51502 0.72592 0.0
C352 C 0.14781 0.65358 0.27275 0.0
C353 C 0.13242 0.66657 0.2961 0.0
H354 H 0.15943 0.64283 0.2098 0.0
C355 C 0.11713 0.67957 0.2725 0.0
H356 H 0.15983 0.6434 0.28993 0.0
C357 C 0.11688 0.67922 0.22665 0.0
C358 C 0.13193 0.66589 0.20327 0.0
H359 H 0.10504 0.68978 0.28942 0.0
H360 H 0.10462 0.6892 0.20958 0.0
C361 C 0.14758 0.65325 0.22681 0.0
C362 C 0.45337 0.13557 0.77238 0.0
C363 C 0.48175 0.14697 0.79531 0.0
H364 H 0.43051 0.1256 0.70993 0.0
C365 C 0.50973 0.1589 0.77126 0.0
H366 H 0.43138 0.12631 0.78985 0.0
C367 C 0.50923 0.1585 0.72532 0.0
C368 C 0.48074 0.14614 0.70243 0.0
H369 H 0.53201 0.16794 0.78787 0.0
H370 H 0.53114 0.16724 0.70781 0.0
C371 C 0.45286 0.13516 0.72649 0.0
C372 C 0.50187 0.65203 0.72722 0.0
C373 C 0.53 0.66364 0.70361 0.0
H374 H 0.47993 0.64287 0.79034 0.0
C375 C 0.55828 0.67573 0.72695 0.0
H376 H 0.47968 0.64257 0.71026 0.0
C377 C 0.55843 0.67592 0.77283 0.0
C378 C 0.53029 0.66401 0.79648 0.0
H379 H 0.58039 0.68488 0.70982 0.0
H380 H 0.58064 0.68519 0.78973 0.0
C381 C 0.50202 0.65221 0.77316 0.0
C382 C 0.80873 0.50178 0.27327 0.0
C383 C 0.83481 0.50488 0.29643 0.0
H384 H 0.78815 0.49975 0.21061 0.0
C385 C 0.8602 0.50688 0.27262 0.0
H386 H 0.78871 0.50005 0.29055 0.0
C387 C 0.85988 0.5067 0.22669 0.0
C388 C 0.83416 0.50453 0.20355 0.0
H389 H 0.88064 0.50922 0.28943 0.0
H390 H 0.88008 0.50891 0.20936 0.0
C391 C 0.80841 0.50161 0.22737 0.0
C392 C 0.31817 0.85653 0.73269 0.0
C393 C 0.3334 0.84316 0.70983 0.0
H394 H 0.30659 0.86794 0.79505 0.0
C395 C 0.34758 0.82923 0.7339 0.0
H396 H 0.30689 0.86735 0.71521 0.0
C397 C 0.34739 0.82956 0.77985 0.0
C398 C 0.33303 0.84384 0.80266 0.0
H399 H 0.35943 0.81865 0.71731 0.0
H400 H 0.35912 0.81924 0.79742 0.0
C401 C 0.31799 0.85686 0.77855 0.0
C402 C 0.43312 0.31299 0.28172 0.0
C403 C 0.45885 0.31701 0.30674 0.0
H404 H 0.41444 0.31126 0.2178 0.0
C405 C 0.48603 0.32185 0.28487 0.0
H406 H 0.41176 0.30911 0.29748 0.0
C407 C 0.48762 0.32322 0.23895 0.0
C408 C 0.46199 0.31959 0.21402 0.0
H409 H 0.50626 0.32504 0.30319 0.0
H410 H 0.50901 0.32736 0.22306 0.0
C411 C 0.43464 0.31418 0.23595 0.0
C412 C 0.13375 0.48338 0.72767 0.0
C413 C 0.15124 0.47295 0.70378 0.0
H414 H 0.11966 0.49068 0.7911 0.0
C415 C 0.16965 0.46328 0.72685 0.0
H416 H 0.11937 0.49105 0.7109 0.0
C417 C 0.16981 0.46306 0.7727 0.0
C418 C 0.15157 0.47251 0.79664 0.0
H419 H 0.18354 0.45526 0.70952 0.0
H420 H 0.18382 0.45488 0.78933 0.0
C421 C 0.13391 0.48316 0.77364 0.0
C422 C 0.65794 0.17201 0.26995 0.0
C423 C 0.66383 0.15127 0.29424 0.0
H424 H 0.6531 0.18751 0.20623 0.0
C425 C 0.67097 0.1308 0.2716 0.0
H426 H 0.65243 0.18813 0.28637 0.0
C427 C 0.67136 0.13044 0.22576 0.0
C428 C 0.66462 0.15056 0.20141 0.0
H429 H 0.67575 0.11458 0.28924 0.0
H430 H 0.67641 0.11396 0.20945 0.0
C431 C 0.65833 0.17166 0.224 0.0
C432 C 0.24606 0.51896 0.98098 0.0
C433 C 0.21746 0.49095 0.97751 0.0
H434 H 0.29401 0.5412 1.00056 0.0
C435 C 0.21584 0.46306 0.9915 0.0
H436 H 0.24814 0.54086 0.97052 0.0
C437 C 0.2423 0.46323 0.00864 0.0
C438 C 0.27084 0.49133 0.0123 0.0
H439 H 0.19415 0.44107 0.98917 0.0
H440 H 0.24033 0.4414 0.01924 0.0
C441 C 0.27239 0.51915 0.99826 0.0
C442 C 0.74209 0.1967 0.51773 0.0
C443 C 0.74902 0.18345 0.48165 0.0
H444 H 0.7597 0.23109 0.56839 0.0
C445 C 0.78051 0.19431 0.47077 0.0
H446 H 0.71812 0.18875 0.52728 0.0
C447 C 0.80451 0.21873 0.49457 0.0
C448 C 0.79742 0.23269 0.52963 0.0
H449 H 0.78661 0.18449 0.44326 0.0
H450 H 0.82853 0.22719 0.48473 0.0
C451 C 0.76599 0.22101 0.5414 0.0
C452 C 0.58388 0.7928 0.03096 0.0
C453 C 0.56422 0.80487 0.02006 0.0
H454 H 0.5975 0.75872 0.01667 0.0
C455 C 0.54431 0.79258 0.98353 0.0
H456 H 0.59958 0.80185 0.05879 0.0
C457 C 0.54316 0.76803 0.95949 0.0
C458 C 0.56189 0.75511 0.97132 0.0
H459 H 0.52903 0.80147 0.97395 0.0
H460 H 0.52699 0.7587 0.93219 0.0
C461 C 0.58273 0.76814 0.00678 0.0
C462 C 0.72471 0.46973 0.5164 0.0
C463 C 0.72451 0.49789 0.52165 0.0
H464 H 0.75016 0.44741 0.4957 0.0
C465 C 0.75126 0.52597 0.50976 0.0
H466 H 0.70453 0.44767 0.52528 0.0
C467 C 0.77758 0.52583 0.49273 0.0
C468 C 0.77762 0.49759 0.48726 0.0
H469 H 0.75185 0.54806 0.51343 0.0
H470 H 0.79779 0.54781 0.48367 0.0
C471 C 0.75092 0.46958 0.49941 0.0
C472 C 0.24455 0.79853 0.02456 0.0
C473 C 0.23792 0.80862 0.98491 0.0
H474 H 0.22701 0.7662 0.0778 0.0
C475 C 0.20678 0.79438 0.97021 0.0
H476 H 0.26823 0.80915 0.03708 0.0
C477 C 0.18299 0.76963 0.99377 0.0
C478 C 0.18995 0.75869 0.03239 0.0
H479 H 0.20089 0.80172 0.93989 0.0
H480 H 0.15936 0.75845 0.98095 0.0
C481 C 0.22087 0.77387 0.04799 0.0
C482 C 0.42107 0.18337 0.48046 0.0
C483 C 0.41808 0.18282 0.52641 0.0
H484 H 0.42178 0.20598 0.42026 0.0
C485 C 0.41106 0.20418 0.54662 0.0
H486 H 0.42621 0.16705 0.46383 0.0
C487 C 0.40864 0.22662 0.52161 0.0
C488 C 0.41296 0.22799 0.47585 0.0
H489 H 0.40848 0.20428 0.58193 0.0
H490 H 0.40426 0.24342 0.53832 0.0
C491 C 0.41841 0.20563 0.45544 0.0
C492 C 0.77437 0.52374 0.00804 0.0
C493 C 0.77462 0.4956 0.01341 0.0
H494 H 0.74853 0.54579 0.98701 0.0
C495 C 0.74807 0.46754 1.00101 0.0
H496 H 0.79446 0.54577 0.01733 0.0
C497 C 0.72186 0.46755 0.98364 0.0
C498 C 0.72151 0.49563 0.97832 0.0
H499 H 0.74746 0.44544 0.00466 0.0
H500 H 0.70183 0.44546 0.97445 0.0
C501 C 0.74805 0.52375 0.99072 0.0
C502 C 0.22455 0.76825 0.46209 0.0
C503 C 0.19288 0.75727 0.47158 0.0
H504 H 0.27211 0.80036 0.47808 0.0
C505 C 0.18509 0.77231 0.50436 0.0
H506 H 0.23138 0.75734 0.43689 0.0
C507 C 0.20861 0.79714 0.52818 0.0
C508 C 0.24029 0.80732 0.51964 0.0
H509 H 0.16087 0.76441 0.51238 0.0
H510 H 0.20195 0.80783 0.55391 0.0
C511 C 0.24795 0.79294 0.48581 0.0
C512 C 0.41971 0.2101 0.96287 0.0
C513 C 0.42922 0.18963 0.97965 0.0
H514 H 0.4132 0.24915 0.97547 0.0
C515 C 0.43766 0.19192 0.02417 0.0
H516 H 0.41296 0.20887 0.92877 0.0
C517 C 0.43773 0.21489 0.0509 0.0
C518 C 0.42942 0.23617 0.03376 0.0
H519 H 0.44489 0.17637 0.03827 0.0
H520 H 0.44509 0.21642 0.08476 0.0
C521 C 0.41984 0.23318 0.98966 0.0
C522 C 0.24415 0.52095 0.51714 0.0
C523 C 0.21569 0.49288 0.52128 0.0
H524 H 0.29195 0.54326 0.4968 0.0
C525 C 0.21407 0.46497 0.50745 0.0
H526 H 0.2462 0.54288 0.52743 0.0
C527 C 0.24044 0.46517 0.48997 0.0
C528 C 0.26888 0.4933 0.4858 0.0
H529 H 0.19249 0.44293 0.51026 0.0
H530 H 0.23849 0.44329 0.47962 0.0
C531 C 0.27041 0.52118 0.49952 0.0
C532 C 0.76841 0.2156 0.95468 0.0
C533 C 0.79954 0.22986 0.96926 0.0
H534 H 0.72082 0.1814 0.96678 0.0
C535 C 0.80658 0.21839 0.00729 0.0
H536 H 0.7622 0.2237 0.92535 0.0
C537 C 0.7827 0.19402 0.03127 0.0
C538 C 0.75139 0.18069 0.01759 0.0
H539 H 0.83037 0.22887 0.01933 0.0
H540 H 0.78868 0.18625 0.06112 0.0
C541 C 0.74464 0.19131 0.97852 0.0
C542 C 0.55255 0.79829 0.5252 0.0
C543 C 0.56777 0.80695 0.48435 0.0
H544 H 0.53887 0.76716 0.57984 0.0
C545 C 0.5833 0.79144 0.46887 0.0
H546 H 0.54058 0.80991 0.53832 0.0
C547 C 0.58236 0.76683 0.49288 0.0
C548 C 0.56584 0.75728 0.53275 0.0
H549 H 0.59537 0.79766 0.43762 0.0
H550 H 0.59367 0.75464 0.47946 0.0
C551 C 0.55158 0.77375 0.54909 0.0
C552 C 0.33168 0.3628 0.11857 0.0
C553 C 0.3391 0.3849 0.08498 0.0
H554 H 0.33993 0.32777 0.14645 0.0
C555 C 0.35866 0.38603 0.05055 0.0
H556 H 0.31654 0.36119 0.14543 0.0
C557 C 0.37216 0.36699 0.05122 0.0
C558 C 0.3663 0.34627 0.08623 0.0
H559 H 0.36469 0.4026 0.02396 0.0
H560 H 0.38814 0.36939 0.02512 0.0
C561 C 0.3451 0.34363 0.11914 0.0
C562 C 0.02272 0.38261 0.54558 0.0
C563 C 0.04131 0.38193 0.58012 0.0
H564 H 0.97671 0.3641 0.51901 0.0
C565 C 0.0273 0.35883 0.61261 0.0
H566 H 0.0328 0.3999 0.51977 0.0
C567 C -0.00498 0.33822 0.61215 0.0
C568 C 0.97615 0.34031 0.57919 0.0
H569 H 0.04099 0.35754 0.63952 0.0
H570 H 0.98473 0.32162 0.63875 0.0
C571 C 0.9905 0.36203 0.54512 0.0
C572 C 0.63758 0.97764 0.10925 0.0
C573 C 0.61281 0.96046 0.07996 0.0
H574 H 0.67173 0.02282 0.1325 0.0
C575 C 0.60547 0.97653 0.04831 0.0
H576 H 0.64393 0.96597 0.1339 0.0
C577 C 0.62136 0.00908 0.04754 0.0
C578 C 0.64498 0.0263 0.07837 0.0
H579 H 0.58666 0.96402 0.02505 0.0
H580 H 0.61436 0.0207 0.02368 0.0
C581 C 0.65352 0.01025 0.10845 0.0
C582 C 0.63344 0.60189 0.54257 0.0
C583 C 0.65474 0.60457 0.57535 0.0
H584 H 0.60348 0.61815 0.51775 0.0
C585 C 0.6646 0.62874 0.60632 0.0
H586 H 0.62552 0.58368 0.51799 0.0
C587 C 0.65195 0.64859 0.60615 0.0
C588 C 0.62917 0.64462 0.57503 0.0
H589 H 0.68112 0.63158 0.63185 0.0
H590 H 0.65908 0.66616 0.63155 0.0
C591 C 0.62078 0.62168 0.54243 0.0
C592 C 0.96233 0.62844 0.11298 0.0
C593 C 0.94801 0.60566 0.08014 0.0
H594 H 0.00514 0.66524 0.1392 0.0
C595 C 0.96637 0.60511 0.04518 0.0
H596 H 0.94883 0.62963 0.14023 0.0
C597 C -0.00136 0.62547 0.04462 0.0
C598 C 0.01326 0.64688 0.07896 0.0
H599 H 0.95607 0.58805 0.01911 0.0
H600 H 0.01225 0.6235 0.01816 0.0
C601 C -0.00536 0.64887 0.11238 0.0
C602 C 0.37879 0.00956 0.55184 0.0
C603 C 0.3736 0.0262 0.58506 0.0
H604 H 0.36875 0.96502 0.52732 0.0
C605 C 0.35129 0.00956 0.61772 0.0
H606 H 0.39561 0.02164 0.52595 0.0
C607 C 0.33584 0.97696 0.61853 0.0
C608 C 0.34238 0.96041 0.58666 0.0
H609 H 0.34664 0.02169 0.64367 0.0
H610 H 0.31968 0.96483 0.64508 0.0
C611 C 0.36335 0.97704 0.55261 0.0
C612 C 0.62001 0.62109 0.95667 0.0
C613 C 0.6292 0.64448 0.92457 0.0
H614 H 0.62357 0.58229 0.98057 0.0
C615 C 0.65218 0.64834 0.8939 0.0
H616 H 0.60252 0.6176 0.98098 0.0
C617 C 0.66428 0.62804 0.89367 0.0
C618 C 0.65364 0.60346 0.92409 0.0
H619 H 0.65992 0.66624 0.86888 0.0
H620 H 0.68101 0.63087 0.86848 0.0
C621 C 0.63208 0.60081 0.95642 0.0
C622 C 0.9639 0.63 0.38504 0.0
C623 C 0.94974 0.60757 0.41834 0.0
H624 H 0.00657 0.66675 0.35844 0.0
C625 C 0.96814 0.6077 0.45372 0.0
H626 H 0.95035 0.63067 0.35747 0.0
C627 C 0.00033 0.62834 0.45427 0.0
C628 C 0.01485 0.64935 0.41948 0.0
H629 H 0.95794 0.59095 0.48016 0.0
H630 H 0.014 0.62688 0.48108 0.0
C631 C -0.00385 0.65071 0.38562 0.0
C632 C 0.35295 0.01236 0.88618 0.0
C633 C 0.37567 0.02957 0.91811 0.0
H634 H 0.32045 0.96712 0.86112 0.0
C635 C 0.38074 0.01355 0.9524 0.0
H636 H 0.34838 0.024 0.85946 0.0
C637 C 0.36477 0.98102 0.95335 0.0
C638 C 0.34336 0.96376 0.92004 0.0
H639 H 0.39788 0.02609 0.97776 0.0
H640 H 0.37008 0.96945 0.9794 0.0
C641 C 0.33693 0.97974 0.88714 0.0
C642 C 0.32582 0.36146 0.38388 0.0
C643 C 0.33176 0.38275 0.41814 0.0
H644 H 0.33426 0.32611 0.35761 0.0
C645 C 0.34805 0.38173 0.45544 0.0
H646 H 0.31315 0.36148 0.35482 0.0
C647 C 0.36014 0.3615 0.45704 0.0
C648 C 0.35619 0.34181 0.42139 0.0
H649 H 0.35273 0.39757 0.48266 0.0
H650 H 0.3738 0.36235 0.48541 0.0
C651 C 0.33792 0.34116 0.38549 0.0
C652 C 0.0237 0.38223 0.95532 0.0
C653 C 0.04217 0.38125 0.92085 0.0
H654 H 0.97775 0.36419 0.98188 0.0
C655 C 0.02795 0.35811 0.88844 0.0
H656 H 0.03393 0.39958 0.98105 0.0
C657 C -0.00437 0.33773 0.88895 0.0
C658 C 0.97691 0.34011 0.92186 0.0
H659 H 0.04153 0.35658 0.86158 0.0
H660 H 0.9852 0.32106 0.86244 0.0
C661 C 0.99144 0.3619 0.95581 0.0
C662 C 0.63878 0.98113 0.39512 0.0
C663 C 0.61439 0.96419 0.42502 0.0
H664 H 0.67188 0.02605 0.36983 0.0
C665 C 0.60664 0.98056 0.45564 0.0
H666 H 0.64543 0.96924 0.37123 0.0
C667 C 0.62176 0.01309 0.4548 0.0
C668 C 0.64499 0.02998 0.42337 0.0
H669 H 0.5881 0.96825 0.47933 0.0
H670 H 0.61445 0.0249 0.4779 0.0
C671 C 0.65395 0.01372 0.39431 0.0
C672 C 0.45814 0.56126 0.96565 0.0
C673 C 0.47559 0.593 0.97668 0.0
H674 H 0.41836 0.51687 0.97995 0.0
C675 C 0.46533 0.60436 0.01154 0.0
H676 H 0.46536 0.55179 0.93893 0.0
C677 C 0.43848 0.58428 0.03532 0.0
C678 C 0.42116 0.55248 0.02448 0.0
H679 H 0.47827 0.62871 0.02091 0.0
H680 H 0.43135 0.59368 0.06223 0.0
C681 C 0.43116 0.54125 0.98916 0.0
C682 C 0.85669 0.38401 0.48827 0.0
C683 C 0.87844 0.39487 0.52294 0.0
H684 H 0.83408 0.39561 0.43758 0.0
C685 C 0.89386 0.42675 0.53345 0.0
H686 H 0.84444 0.35957 0.47928 0.0
C687 C 0.88777 0.44736 0.50971 0.0
C688 C 0.86633 0.43658 0.47467 0.0
H689 H 0.91071 0.43585 0.55999 0.0
H690 H 0.90015 0.47182 0.51858 0.0
C691 C 0.85081 0.40468 0.46426 0.0
C692 C 0.41562 0.89327 0.0577 0.0
C693 C 0.40273 0.87808 0.0177 0.0
H694 H 0.45118 0.90529 0.10634 0.0
C695 C 0.41603 0.86216 0.99654 0.0
H696 H 0.40592 0.90572 0.07487 0.0
C697 C 0.44186 0.86173 0.01477 0.0
C698 C 0.4551 0.87741 0.05438 0.0
H699 H 0.40657 0.85012 0.96578 0.0
H700 H 0.45173 0.8495 0.99742 0.0
C701 C 0.44159 0.89303 0.07576 0.0
C702 C 0.54326 0.42018 0.45621 0.0
C703 C 0.51526 0.39861 0.47681 0.0
H704 H 0.58959 0.45881 0.46419 0.0
C705 C 0.51283 0.39971 0.5227 0.0
H706 H 0.54586 0.4198 0.42093 0.0
C707 C 0.53768 0.42233 0.54739 0.0
C708 C 0.56567 0.4439 0.5268 0.0
H709 H 0.4915 0.38344 0.5395 0.0
H710 H 0.53498 0.42284 0.58263 0.0
C711 C 0.56833 0.44242 0.48101 0.0
C712 C 0.10591 0.54159 0.0116 0.0
C713 C 0.12675 0.55233 0.97587 0.0
H714 H 0.08294 0.5529 0.06204 0.0
C715 C 0.14122 0.58403 0.96446 0.0
H716 H 0.09434 0.51729 0.02127 0.0
C717 C 0.13483 0.6045 0.98809 0.0
C718 C 0.11362 0.59365 0.02338 0.0
H719 H 0.15746 0.59307 0.93722 0.0
H720 H 0.14624 0.62877 0.97828 0.0
C721 C 0.09933 0.56199 0.03497 0.0
C722 C 0.51307 0.10049 0.4443 0.0
C723 C 0.51552 0.11529 0.48473 0.0
H724 H 0.53613 0.08814 0.3953 0.0
C725 C 0.54462 0.13033 0.50617 0.0
H726 H 0.491 0.08872 0.42688 0.0
C727 C 0.57056 0.13011 0.48793 0.0
C728 C 0.56792 0.1147 0.44796 0.0
H729 H 0.54733 0.14203 0.53729 0.0
H730 H 0.59255 0.14159 0.50556 0.0
C731 C 0.53895 0.10014 0.42618 0.0
C732 C 0.54087 0.43678 0.07522 0.0
C733 C 0.52408 0.4078 0.05406 0.0
H734 H 0.58043 0.48286 0.07358 0.0
C735 C 0.53542 0.40315 0.01404 0.0
H736 H 0.53283 0.44109 0.10614 0.0
C737 C 0.56264 0.42718 0.9952 0.0
C738 C 0.57923 0.45629 0.01614 0.0
H739 H 0.52303 0.38109 0.99686 0.0
H740 H 0.57057 0.42298 0.9641 0.0
C741 C 0.5682 0.46072 0.05656 0.0
C742 C 0.09791 0.56344 0.46667 0.0
C743 C 0.11303 0.59527 0.47745 0.0
H744 H 0.09194 0.51847 0.4813 0.0
C745 C 0.13458 0.60614 0.51235 0.0
H746 H 0.08123 0.55433 0.43994 0.0
C747 C 0.14057 0.58553 0.53633 0.0
C748 C 0.12534 0.55367 0.52566 0.0
H749 H 0.1466 0.63054 0.52154 0.0
H750 H 0.15714 0.59459 0.5632 0.0
C751 C 0.1041 0.54289 0.49039 0.0
C752 C 0.54221 0.10024 0.07051 0.0
C753 C 0.57082 0.11328 0.04794 0.0
H754 H 0.49492 0.09091 0.07069 0.0
C755 C 0.5735 0.12788 0.00725 0.0
H756 H 0.53938 0.0889 0.10195 0.0
C757 C 0.54793 0.12891 0.98919 0.0
C758 C 0.5192 0.11553 0.01155 0.0
H759 H 0.59523 0.13816 0.989 0.0
H760 H 0.55064 0.14003 0.95758 0.0
C761 C 0.51671 0.10143 0.05257 0.0
C762 C 0.45615 0.56054 0.53452 0.0
C763 C 0.47398 0.59223 0.52338 0.0
H764 H 0.41596 0.51639 0.52032 0.0
C765 C 0.464 0.60375 0.48838 0.0
H766 H 0.46315 0.55094 0.56134 0.0
C767 C 0.43704 0.58388 0.46461 0.0
C768 C 0.41934 0.55214 0.47557 0.0
H769 H 0.47724 0.62806 0.47891 0.0
H770 H 0.43014 0.59342 0.43761 0.0
C771 C 0.42906 0.54074 0.511 0.0
C772 C 0.89204 0.4256 0.96632 0.0
C773 C 0.87748 0.39389 0.97765 0.0
H774 H 0.89727 0.47037 0.98023 0.0
C775 C 0.85614 0.38302 0.01279 0.0
H776 H 0.90854 0.4347 0.93938 0.0
C777 C 0.84984 0.40352 0.03647 0.0
C778 C 0.86452 0.43527 0.02526 0.0
H779 H 0.84455 0.35871 0.02241 0.0
H780 H 0.83347 0.39447 0.06355 0.0
C781 C 0.88553 0.44603 0.98973 0.0
C782 C 0.44503 0.86256 0.49714 0.0
C783 C 0.4571 0.87743 0.45668 0.0
H784 H 0.41031 0.85076 0.54705 0.0
C785 C 0.44213 0.89143 0.4348 0.0
H786 H 0.45606 0.85159 0.51489 0.0
C787 C 0.41584 0.89082 0.45315 0.0
C788 C 0.40407 0.8764 0.49393 0.0
H789 H 0.45079 0.90303 0.40356 0.0
H790 H 0.40497 0.902 0.43552 0.0
C791 C 0.41887 0.86216 0.51566 0.0
loop_
_geom_bond_atom_site_label_1
_geom_bond_atom_site_label_2
_geom_bond_distance
_geom_bond_site_symmetry_2
_ccdc_geom_bond_type
C0 O1 1.160 . S
C0 O7 1.185 . S
O1 C0 1.160 . S
O2 Zn3 1.899 . S
O2 C10 1.284 . S
Zn3 O2 1.899 . S
Zn3 O4 2.032 . S
Zn3 O7 2.086 . S
Zn3 O12 1.977 . S
O4 Zn3 2.032 . S
O4 C8 1.278 . S
C5 O6 1.203 . S
C5 O12 1.267 . S
O6 C5 1.203 . S
O7 C0 1.185 . S
O7 Zn3 2.086 . S
C8 O4 1.278 . S
C8 O9 1.211 . S
O9 C8 1.211 . S
C10 O2 1.284 . S
C10 O11 1.273 . S
O11 C10 1.273 . S
O12 Zn3 1.977 . S
O12 C5 1.267 . S
C13 O14 1.160 . S
C13 O20 1.185 . S
O14 C13 1.160 . S
O15 Zn16 1.899 . S
O15 C23 1.284 . S
Zn16 O15 1.899 . S
Zn16 O17 2.032 . S
Zn16 O20 2.086 . S
Zn16 O25 1.977 . S
O17 Zn16 2.032 . S
O17 C21 1.278 . S
C18 O19 1.203 . S
C18 O25 1.267 . S
O19 C18 1.203 . S
O20 C13 1.185 . S
O20 Zn16 2.086 . S
C21 O17 1.278 . S
C21 O22 1.211 . S
O22 C21 1.211 . S
C23 O15 1.284 . S
C23 O24 1.273 . S
O24 C23 1.273 . S
O25 Zn16 1.977 . S
O25 C18 1.267 . S
C26 O27 1.160 . S
C26 O33 1.185 . S
O27 C26 1.160 . S
O28 Zn29 1.899 . S
O28 C36 1.284 . S
Zn29 O28 1.899 . S
Zn29 O30 2.032 . S
Zn29 O33 2.086 . S
Zn29 O38 1.977 . S
O30 Zn29 2.032 . S
O30 C34 1.278 . S
C31 O32 1.203 . S
C31 O38 1.267 . S
O32 C31 1.203 . S
O33 C26 1.185 . S
O33 Zn29 2.086 . S
C34 O30 1.278 . S
C34 O35 1.211 . S
O35 C34 1.211 . S
C36 O28 1.284 . S
C36 O37 1.273 . S
O37 C36 1.273 . S
O38 Zn29 1.977 . S
O38 C31 1.267 . S
C39 O40 1.160 . S
C39 O46 1.185 . S
O40 C39 1.160 . S
O41 Zn42 1.899 . S
O41 C49 1.284 . S
Zn42 O41 1.899 . S
Zn42 O43 2.032 . S
Zn42 O46 2.086 . S
Zn42 O51 1.977 . S
O43 Zn42 2.032 . S
O43 C47 1.278 . S
C44 O45 1.203 . S
C44 O51 1.267 . S
O45 C44 1.203 . S
O46 C39 1.185 . S
O46 Zn42 2.086 . S
C47 O43 1.278 . S
C47 O48 1.211 . S
O48 C47 1.211 . S
C49 O41 1.284 . S
C49 O50 1.273 . S
O50 C49 1.273 . S
O51 Zn42 1.977 . S
O51 C44 1.267 . S
C52 O53 1.160 . S
C52 O59 1.185 . S
O53 C52 1.160 . S
O54 Zn55 1.899 . S
O54 C62 1.284 . S
Zn55 O54 1.899 . S
Zn55 O56 2.032 . S
Zn55 O59 2.086 . S
Zn55 O64 1.977 . S
O56 Zn55 2.032 . S
O56 C60 1.278 . S
C57 O58 1.203 . S
C57 O64 1.267 . S
O58 C57 1.203 . S
O59 C52 1.185 . S
O59 Zn55 2.086 . S
C60 O56 1.278 . S
C60 O61 1.211 . S
O61 C60 1.211 . S
C62 O54 1.284 . S
C62 O63 1.273 . S
O63 C62 1.273 . S
O64 Zn55 1.977 . S
O64 C57 1.267 . S
C65 O66 1.160 . S
C65 O72 1.185 . S
O66 C65 1.160 . S
O67 Zn68 1.899 . S
O67 C75 1.284 . S
Zn68 O67 1.899 . S
Zn68 O69 2.032 . S
Zn68 O72 2.086 . S
Zn68 O77 1.977 . S
O69 Zn68 2.032 . S
O69 C73 1.278 . S
C70 O71 1.203 . S
C70 O77 1.267 . S
O71 C70 1.203 . S
O72 C65 1.185 . S
O72 Zn68 2.086 . S
C73 O69 1.278 . S
C73 O74 1.211 . S
O74 C73 1.211 . S
C75 O67 1.284 . S
C75 O76 1.273 . S
O76 C75 1.273 . S
O77 Zn68 1.977 . S
O77 C70 1.267 . S
C78 O79 1.160 . S
C78 O85 1.185 . S
O79 C78 1.160 . S
O80 Zn81 1.899 . S
O80 C88 1.284 . S
Zn81 O80 1.899 . S
Zn81 O82 2.032 . S
Zn81 O85 2.086 . S
Zn81 O90 1.977 . S
O82 Zn81 2.032 . S
O82 C86 1.278 . S
C83 O84 1.203 . S
C83 O90 1.267 . S
O84 C83 1.203 . S
O85 C78 1.185 . S
O85 Zn81 2.086 . S
C86 O82 1.278 . S
C86 O87 1.211 . S
O87 C86 1.211 . S
C88 O80 1.284 . S
C88 O89 1.273 . S
O89 C88 1.273 . S
O90 Zn81 1.977 . S
O90 C83 1.267 . S
C91 O92 1.160 . S
C91 O98 1.185 . S
O92 C91 1.160 . S
O93 Zn94 1.899 . S
O93 C101 1.284 . S
Zn94 O93 1.899 . S
Zn94 O95 2.032 . S
Zn94 O98 2.086 . S
Zn94 O103 1.977 . S
O95 Zn94 2.032 . S
O95 C99 1.278 . S
C96 O97 1.203 . S
C96 O103 1.267 . S
O97 C96 1.203 . S
O98 C91 1.185 . S
O98 Zn94 2.086 . S
C99 O95 1.278 . S
C99 O100 1.211 . S
O100 C99 1.211 . S
C101 O93 1.284 . S
C101 O102 1.273 . S
O102 C101 1.273 . S
O103 Zn94 1.977 . S
O103 C96 1.267 . S
C104 O105 1.160 . S
C104 O111 1.185 . S
O105 C104 1.160 . S
O106 Zn107 1.899 . S
O106 C114 1.284 . S
Zn107 O106 1.899 . S
Zn107 O108 2.032 . S
Zn107 O111 2.086 . S
Zn107 O116 1.977 . S
O108 Zn107 2.032 . S
O108 C112 1.278 . S
C109 O110 1.203 . S
C109 O116 1.267 . S
O110 C109 1.203 . S
O111 C104 1.185 . S
O111 Zn107 2.086 . S
C112 O108 1.278 . S
C112 O113 1.211 . S
O113 C112 1.211 . S
C114 O106 1.284 . S
C114 O115 1.273 . S
O115 C114 1.273 . S
O116 Zn107 1.977 . S
O116 C109 1.267 . S
C117 O118 1.160 . S
C117 O124 1.185 . S
O118 C117 1.160 . S
O119 Zn120 1.899 . S
O119 C127 1.284 . S
Zn120 O119 1.899 . S
Zn120 O121 2.032 . S
Zn120 O124 2.086 . S
Zn120 O129 1.977 . S
O121 Zn120 2.032 . S
O121 C125 1.278 . S
C122 O123 1.203 . S
C122 O129 1.267 . S
O123 C122 1.203 . S
O124 C117 1.185 . S
O124 Zn120 2.086 . S
C125 O121 1.278 . S
C125 O126 1.211 . S
O126 C125 1.211 . S
C127 O119 1.284 . S
C127 O128 1.273 . S
O128 C127 1.273 . S
O129 Zn120 1.977 . S
O129 C122 1.267 . S
C130 O131 1.160 . S
C130 O137 1.185 . S
O131 C130 1.160 . S
O132 Zn133 1.899 . S
O132 C140 1.284 . S
Zn133 O132 1.899 . S
Zn133 O134 2.032 . S
Zn133 O137 2.086 . S
Zn133 O142 1.977 . S
O134 Zn133 2.032 . S
O134 C138 1.278 . S
C135 O136 1.203 . S
C135 O142 1.267 . S
O136 C135 1.203 . S
O137 C130 1.185 . S
O137 Zn133 2.086 . S
C138 O134 1.278 . S
C138 O139 1.211 . S
O139 C138 1.211 . S
C140 O132 1.284 . S
C140 O141 1.273 . S
O141 C140 1.273 . S
O142 Zn133 1.977 . S
O142 C135 1.267 . S
C143 O144 1.160 . S
C143 O150 1.185 . S
O144 C143 1.160 . S
O145 Zn146 1.899 . S
O145 C153 1.284 . S
Zn146 O145 1.899 . S
Zn146 O147 2.032 . S
Zn146 O150 2.086 . S
Zn146 O155 1.977 . S
O147 Zn146 2.032 . S
O147 C151 1.278 . S
C148 O149 1.203 . S
C148 O155 1.267 . S
O149 C148 1.203 . S
O150 C143 1.185 . S
O150 Zn146 2.086 . S
C151 O147 1.278 . S
C151 O152 1.211 . S
O152 C151 1.211 . S
C153 O145 1.284 . S
C153 O154 1.273 . S
O154 C153 1.273 . S
O155 Zn146 1.977 . S
O155 C148 1.267 . S
C156 O157 1.160 . S
C156 O163 1.185 . S
O157 C156 1.160 . S
O158 Zn159 1.899 . S
O158 C166 1.284 . S
Zn159 O158 1.899 . S
Zn159 O160 2.032 . S
Zn159 O163 2.086 . S
Zn159 O168 1.977 . S
O160 Zn159 2.032 . S
O160 C164 1.278 . S
C161 O162 1.203 . S
C161 O168 1.267 . S
O162 C161 1.203 . S
O163 C156 1.185 . S
O163 Zn159 2.086 . S
C164 O160 1.278 . S
C164 O165 1.211 . S
O165 C164 1.211 . S
C166 O158 1.284 . S
C166 O167 1.273 . S
O167 C166 1.273 . S
O168 Zn159 1.977 . S
O168 C161 1.267 . S
C169 O170 1.160 . S
C169 O176 1.185 . S
O170 C169 1.160 . S
O171 Zn172 1.899 . S
O171 C179 1.284 . S
Zn172 O171 1.899 . S
Zn172 O173 2.032 . S
Zn172 O176 2.086 . S
Zn172 O181 1.977 . S
O173 Zn172 2.032 . S
O173 C177 1.278 . S
C174 O175 1.203 . S
C174 O181 1.267 . S
O175 C174 1.203 . S
O176 C169 1.185 . S
O176 Zn172 2.086 . S
C177 O173 1.278 . S
C177 O178 1.211 . S
O178 C177 1.211 . S
C179 O171 1.284 . S
C179 O180 1.273 . S
O180 C179 1.273 . S
O181 Zn172 1.977 . S
O181 C174 1.267 . S
C182 O183 1.160 . S
C182 O189 1.185 . S
O183 C182 1.160 . S
O184 Zn185 1.899 . S
O184 C192 1.284 . S
Zn185 O184 1.899 . S
Zn185 O186 2.032 . S
Zn185 O189 2.086 . S
Zn185 O194 1.977 . S
O186 Zn185 2.032 . S
O186 C190 1.278 . S
C187 O188 1.203 . S
C187 O194 1.267 . S
O188 C187 1.203 . S
O189 C182 1.185 . S
O189 Zn185 2.086 . S
C190 O186 1.278 . S
C190 O191 1.211 . S
O191 C190 1.211 . S
C192 O184 1.284 . S
C192 O193 1.273 . S
O193 C192 1.273 . S
O194 Zn185 1.977 . S
O194 C187 1.267 . S
C195 O196 1.160 . S
C195 O202 1.185 . S
O196 C195 1.160 . S
O197 Zn198 1.899 . S
O197 C205 1.284 . S
Zn198 O197 1.899 . S
Zn198 O199 2.032 . S
Zn198 O202 2.086 . S
Zn198 O207 1.977 . S
O199 Zn198 2.032 . S
O199 C203 1.278 . S
C200 O201 1.203 . S
C200 O207 1.267 . S
O201 C200 1.203 . S
O202 C195 1.185 . S
O202 Zn198 2.086 . S
C203 O199 1.278 . S
C203 O204 1.211 . S
O204 C203 1.211 . S
C205 O197 1.284 . S
C205 O206 1.273 . S
O206 C205 1.273 . S
O207 Zn198 1.977 . S
O207 C200 1.267 . S
C208 O209 1.160 . S
C208 O215 1.185 . S
O209 C208 1.160 . S
O210 Zn211 1.899 . S
O210 C218 1.284 . S
Zn211 O210 1.899 . S
Zn211 O212 2.032 . S
Zn211 O215 2.086 . S
Zn211 O220 1.977 . S
O212 Zn211 2.032 . S
O212 C216 1.278 . S
C213 O214 1.203 . S
C213 O220 1.267 . S
O214 C213 1.203 . S
O215 C208 1.185 . S
O215 Zn211 2.086 . S
C216 O212 1.278 . S
C216 O217 1.211 . S
O217 C216 1.211 . S
C218 O210 1.284 . S
C218 O219 1.273 . S
O219 C218 1.273 . S
O220 Zn211 1.977 . S
O220 C213 1.267 . S
C221 O222 1.160 . S
C221 O228 1.185 . S
O222 C221 1.160 . S
O223 Zn224 1.899 . S
O223 C231 1.284 . S
Zn224 O223 1.899 . S
Zn224 O225 2.032 . S
Zn224 O228 2.086 . S
Zn224 O233 1.977 . S
O225 Zn224 2.032 . S
O225 C229 1.278 . S
C226 O227 1.203 . S
C226 O233 1.267 . S
O227 C226 1.203 . S
O228 C221 1.185 . S
O228 Zn224 2.086 . S
C229 O225 1.278 . S
C229 O230 1.211 . S
O230 C229 1.211 . S
C231 O223 1.284 . S
C231 O232 1.273 . S
O232 C231 1.273 . S
O233 Zn224 1.977 . S
O233 C226 1.267 . S
C234 O235 1.160 . S
C234 O241 1.185 . S
O235 C234 1.160 . S
O236 Zn237 1.899 . S
O236 C244 1.284 . S
Zn237 O236 1.899 . S
Zn237 O238 2.032 . S
Zn237 O241 2.086 . S
Zn237 O246 1.977 . S
O238 Zn237 2.032 . S
O238 C242 1.278 . S
C239 O240 1.203 . S
C239 O246 1.267 . S
O240 C239 1.203 . S
O241 C234 1.185 . S
O241 Zn237 2.086 . S
C242 O238 1.278 . S
C242 O243 1.211 . S
O243 C242 1.211 . S
C244 O236 1.284 . S
C244 O245 1.273 . S
O245 C244 1.273 . S
O246 Zn237 1.977 . S
O246 C239 1.267 . S
C247 O248 1.160 . S
C247 O254 1.185 . S
O248 C247 1.160 . S
O249 Zn250 1.899 . S
O249 C257 1.284 . S
Zn250 O249 1.899 . S
Zn250 O251 2.032 . S
Zn250 O254 2.086 . S
Zn250 O259 1.977 . S
O251 Zn250 2.032 . S
O251 C255 1.278 . S
C252 O253 1.203 . S
C252 O259 1.267 . S
O253 C252 1.203 . S
O254 C247 1.185 . S
O254 Zn250 2.086 . S
C255 O251 1.278 . S
C255 O256 1.211 . S
O256 C255 1.211 . S
C257 O249 1.284 . S
C257 O258 1.273 . S
O258 C257 1.273 . S
O259 Zn250 1.977 . S
O259 C252 1.267 . S
C260 O261 1.160 . S
C260 O267 1.185 . S
O261 C260 1.160 . S
O262 Zn263 1.899 . S
O262 C270 1.284 . S
Zn263 O262 1.899 . S
Zn263 O264 2.032 . S
Zn263 O267 2.086 . S
Zn263 O272 1.977 . S
O264 Zn263 2.032 . S
O264 C268 1.278 . S
C265 O266 1.203 . S
C265 O272 1.267 . S
O266 C265 1.203 . S
O267 C260 1.185 . S
O267 Zn263 2.086 . S
C268 O264 1.278 . S
C268 O269 1.211 . S
O269 C268 1.211 . S
C270 O262 1.284 . S
C270 O271 1.273 . S
O271 C270 1.273 . S
O272 Zn263 1.977 . S
O272 C265 1.267 . S
C273 O274 1.160 . S
C273 O280 1.185 . S
O274 C273 1.160 . S
O275 Zn276 1.899 . S
O275 C283 1.284 . S
Zn276 O275 1.899 . S
Zn276 O277 2.032 . S
Zn276 O280 2.086 . S
Zn276 O285 1.977 . S
O277 Zn276 2.032 . S
O277 C281 1.278 . S
C278 O279 1.203 . S
C278 O285 1.267 . S
O279 C278 1.203 . S
O280 C273 1.185 . S
O280 Zn276 2.086 . S
C281 O277 1.278 . S
C281 O282 1.211 . S
O282 C281 1.211 . S
C283 O275 1.284 . S
C283 O284 1.273 . S
O284 C283 1.273 . S
O285 Zn276 1.977 . S
O285 C278 1.267 . S
C286 O287 1.160 . S
C286 O293 1.185 . S
O287 C286 1.160 . S
O288 Zn289 1.899 . S
O288 C296 1.284 . S
Zn289 O288 1.899 . S
Zn289 O290 2.032 . S
Zn289 O293 2.086 . S
Zn289 O298 1.977 . S
O290 Zn289 2.032 . S
O290 C294 1.278 . S
C291 O292 1.203 . S
C291 O298 1.267 . S
O292 C291 1.203 . S
O293 C286 1.185 . S
O293 Zn289 2.086 . S
C294 O290 1.278 . S
C294 O295 1.211 . S
O295 C294 1.211 . S
C296 O288 1.284 . S
C296 O297 1.273 . S
O297 C296 1.273 . S
O298 Zn289 1.977 . S
O298 C291 1.267 . S
C299 O300 1.160 . S
C299 O306 1.185 . S
O300 C299 1.160 . S
O301 Zn302 1.899 . S
O301 C309 1.284 . S
Zn302 O301 1.899 . S
Zn302 O303 2.032 . S
Zn302 O306 2.086 . S
Zn302 O311 1.977 . S
O303 Zn302 2.032 . S
O303 C307 1.278 . S
C304 O305 1.203 . S
C304 O311 1.267 . S
O305 C304 1.203 . S
O306 C299 1.185 . S
O306 Zn302 2.086 . S
C307 O303 1.278 . S
C307 O308 1.211 . S
O308 C307 1.211 . S
C309 O301 1.284 . S
C309 O310 1.273 . S
O310 C309 1.273 . S
O311 Zn302 1.977 . S
O311 C304 1.267 . S
C312 C313 1.387 . S
C312 H316 0.950 . S
C312 C321 1.390 . S
C313 C312 1.387 . S
C313 C315 1.387 . S
H314 C321 0.950 . S
C315 C313 1.387 . S
C315 C317 1.390 . S
C315 H319 0.950 . S
H316 C312 0.950 . S
C317 C315 1.390 . S
C317 C318 1.387 . S
C317 H320 0.950 . S
C318 C317 1.387 . S
C318 C321 1.387 . S
H319 C315 0.950 . S
H320 C317 0.950 . S
C321 C312 1.390 . S
C321 H314 0.950 . S
C321 C318 1.387 . S
C322 C323 1.387 . S
C322 H326 0.950 . S
C322 C331 1.390 . S
C323 C322 1.387 . S
C323 C325 1.387 . S
H324 C331 0.950 . S
C325 C323 1.387 . S
C325 C327 1.390 . S
C325 H329 0.950 . S
H326 C322 0.950 . S
C327 C325 1.390 . S
C327 C328 1.387 . S
C327 H330 0.950 . S
C328 C327 1.387 . S
C328 C331 1.387 . S
H329 C325 0.950 . S
H330 C327 0.950 . S
C331 C322 1.390 . S
C331 H324 0.950 . S
C331 C328 1.387 . S
C332 C333 1.387 . S
C332 H336 0.950 . S
C332 C341 1.390 . S
C333 C332 1.387 . S
C333 C335 1.387 . S
H334 C341 0.950 . S
C335 C333 1.387 . S
C335 C337 1.390 . S
C335 H339 0.950 . S
H336 C332 0.950 . S
C337 C335 1.390 . S
C337 C338 1.387 . S
C337 H340 0.950 . S
C338 C337 1.387 . S
C338 C341 1.387 . S
H339 C335 0.950 . S
H340 C337 0.950 . S
C341 C332 1.390 . S
C341 H334 0.950 . S
C341 C338 1.387 . S
C342 C343 1.387 . S
C342 H346 0.950 . S
C342 C351 1.390 . S
C343 C342 1.387 . S
C343 C345 1.387 . S
H344 C351 0.950 . S
C345 C343 1.387 . S
C345 C347 1.390 . S
C345 H349 0.950 . S
H346 C342 0.950 . S
C347 C345 1.390 . S
C347 C348 1.387 . S
C347 H350 0.950 . S
C348 C347 1.387 . S
C348 C351 1.387 . S
H349 C345 0.950 . S
H350 C347 0.950 . S
C351 C342 1.390 . S
C351 H344 0.950 . S
C351 C348 1.387 . S
C352 C353 1.387 . S
C352 H356 0.950 . S
C352 C361 1.390 . S
C353 C352 1.387 . S
C353 C355 1.387 . S
H354 C361 0.950 . S
C355 C353 1.387 . S
C355 C357 1.390 . S
C355 H359 0.950 . S
H356 C352 0.950 . S
C357 C355 1.390 . S
C357 C358 1.387 . S
C357 H360 0.950 . S
C358 C357 1.387 . S
C358 C361 1.387 . S
H359 C355 0.950 . S
H360 C357 0.950 . S
C361 C352 1.390 . S
C361 H354 0.950 . S
C361 C358 1.387 . S
C362 C363 1.387 . S
C362 H366 0.950 . S
C362 C371 1.390 . S
C363 C362 1.387 . S
C363 C365 1.387 . S
H364 C371 0.950 . S
C365 C363 1.387 . S
C365 C367 1.390 . S
C365 H369 0.950 . S
H366 C362 0.950 . S
C367 C365 1.390 . S
C367 C368 1.387 . S
C367 H370 0.950 . S
C368 C367 1.387 . S
C368 C371 1.387 . S
H369 C365 0.950 . S
H370 C367 0.950 . S
C371 C362 1.390 . S
C371 H364 0.950 . S
C371 C368 1.387 . S
C372 C373 1.387 . S
C372 H376 0.950 . S
C372 C381 1.390 . S
C373 C372 1.387 . S
C373 C375 1.387 . S
H374 C381 0.950 . S
C375 C373 1.387 . S
C375 C377 1.390 . S
C375 H379 0.950 . S
H376 C372 0.950 . S
C377 C375 1.390 . S
C377 C378 1.387 . S
C377 H380 0.950 . S
C378 C377 1.387 . S
C378 C381 1.387 . S
H379 C375 0.950 . S
H380 C377 0.950 . S
C381 C372 1.390 . S
C381 H374 0.950 . S
C381 C378 1.387 . S
C382 C383 1.387 . S
C382 H386 0.950 . S
C382 C391 1.390 . S
C383 C382 1.387 . S
C383 C385 1.387 . S
H384 C391 0.950 . S
C385 C383 1.387 . S
C385 C387 1.390 . S
C385 H389 0.950 . S
H386 C382 0.950 . S
C387 C385 1.390 . S
C387 C388 1.387 . S
C387 H390 0.950 . S
C388 C387 1.387 . S
C388 C391 1.387 . S
H389 C385 0.950 . S
H390 C387 0.950 . S
C391 C382 1.390 . S
C391 H384 0.950 . S
C391 C388 1.387 . S
C392 C393 1.387 . S
C392 H396 0.950 . S
C392 C401 1.390 . S
C393 C392 1.387 . S
C393 C395 1.387 . S
H394 C401 0.950 . S
C395 C393 1.387 . S
C395 C397 1.390 . S
C395 H399 0.950 . S
H396 C392 0.950 . S
C397 C395 1.390 . S
C397 C398 1.387 . S
C397 H400 0.950 . S
C398 C397 1.387 . S
C398 C401 1.387 . S
H399 C395 0.950 . S
H400 C397 0.950 . S
C401 C392 1.390 . S
C401 H394 0.950 . S
C401 C398 1.387 . S
C402 C403 1.387 . S
C402 H406 0.950 . S
C402 C411 1.390 . S
C403 C402 1.387 . S
C403 C405 1.387 . S
H404 C411 0.950 . S
C405 C403 1.387 . S
C405 C407 1.390 . S
C405 H409 0.950 . S
H406 C402 0.950 . S
C407 C405 1.390 . S
C407 C408 1.387 . S
C407 H410 0.950 . S
C408 C407 1.387 . S
C408 C411 1.387 . S
H409 C405 0.950 . S
H410 C407 0.950 . S
C411 C402 1.390 . S
C411 H404 0.950 . S
C411 C408 1.387 . S
C412 C413 1.387 . S
C412 H416 0.950 . S
C412 C421 1.390 . S
C413 C412 1.387 . S
C413 C415 1.387 . S
H414 C421 0.950 . S
C415 C413 1.387 . S
C415 C417 1.390 . S
C415 H419 0.950 . S
H416 C412 0.950 . S
C417 C415 1.390 . S
C417 C418 1.387 . S
C417 H420 0.950 . S
C418 C417 1.387 . S
C418 C421 1.387 . S
H419 C415 0.950 . S
H420 C417 0.950 . S
C421 C412 1.390 . S
C421 H414 0.950 . S
C421 C418 1.387 . S
C422 C423 1.387 . S
C422 H426 0.950 . S
C422 C431 1.390 . S
C423 C422 1.387 . S
C423 C425 1.387 . S
H424 C431 0.950 . S
C425 C423 1.387 . S
C425 C427 1.390 . S
C425 H429 0.950 . S
H426 C422 0.950 . S
C427 C425 1.390 . S
C427 C428 1.387 . S
C427 H430 0.950 . S
C428 C427 1.387 . S
C428 C431 1.387 . S
H429 C425 0.950 . S
H430 C427 0.950 . S
C431 C422 1.390 . S
C431 H424 0.950 . S
C431 C428 1.387 . S
C432 C433 1.387 . S
C432 H436 0.950 . S
C432 C441 1.390 1_556 S
C433 C432 1.387 . S
C433 C435 1.387 . S
H434 C441 0.950 . S
C435 C433 1.387 . S
C435 C437 1.390 1_556 S
C435 H439 0.950 . S
H436 C432 0.950 . S
C437 C435 1.390 1_554 S
C437 C438 1.387 . S
C437 H440 0.950 . S
C438 C437 1.387 . S
C438 C441 1.387 . S
H439 C435 0.950 . S
H440 C437 0.950 . S
C441 C432 1.390 1_554 S
C441 H434 0.950 . S
C441 C438 1.387 . S
C442 C443 1.387 . S
C442 H446 0.950 . S
C442 C451 1.390 . S
C443 C442 1.387 . S
C443 C445 1.387 . S
H444 C451 0.950 . S
C445 C443 1.387 . S
C445 C447 1.390 . S
C445 H449 0.950 . S
H446 C442 0.950 . S
C447 C445 1.390 . S
C447 C448 1.387 . S
C447 H450 0.950 . S
C448 C447 1.387 . S
C448 C451 1.387 . S
H449 C445 0.950 . S
H450 C447 0.950 . S
C451 C442 1.390 . S
C451 H444 0.950 . S
C451 C448 1.387 . S
C452 C453 1.387 . S
C452 H456 0.950 . S
C452 C461 1.390 . S
C453 C452 1.387 . S
C453 C455 1.387 1_554 S
H454 C461 0.950 . S
C455 C453 1.387 1_556 S
C455 C457 1.390 . S
C455 H459 0.950 . S
H456 C452 0.950 . S
C457 C455 1.390 . S
C457 C458 1.387 . S
C457 H460 0.950 . S
C458 C457 1.387 . S
C458 C461 1.387 1_556 S
H459 C455 0.950 . S
H460 C457 0.950 . S
C461 C452 1.390 . S
C461 H454 0.950 . S
C461 C458 1.387 1_554 S
C462 C463 1.387 . S
C462 H466 0.950 . S
C462 C471 1.390 . S
C463 C462 1.387 . S
C463 C465 1.387 . S
H464 C471 0.950 . S
C465 C463 1.387 . S
C465 C467 1.390 . S
C465 H469 0.950 . S
H466 C462 0.950 . S
C467 C465 1.390 . S
C467 C468 1.387 . S
C467 H470 0.950 . S
C468 C467 1.387 . S
C468 C471 1.387 . S
H469 C465 0.950 . S
H470 C467 0.950 . S
C471 C462 1.390 . S
C471 H464 0.950 . S
C471 C468 1.387 . S
C472 C473 1.387 1_554 S
C472 H476 0.950 . S
C472 C481 1.390 . S
C473 C472 1.387 1_556 S
C473 C475 1.387 . S
H474 C481 0.950 . S
C475 C473 1.387 . S
C475 C477 1.390 . S
C475 H479 0.950 . S
H476 C472 0.950 . S
C477 C475 1.390 . S
C477 C478 1.387 1_556 S
C477 H480 0.950 . S
C478 C477 1.387 1_554 S
C478 C481 1.387 . S
H479 C475 0.950 . S
H480 C477 0.950 . S
C481 C472 1.390 . S
C481 H474 0.950 . S
C481 C478 1.387 . S
C482 C483 1.387 . S
C482 H486 0.950 . S
C482 C491 1.390 . S
C483 C482 1.387 . S
C483 C485 1.387 . S
H484 C491 0.950 . S
C485 C483 1.387 . S
C485 C487 1.390 . S
C485 H489 0.950 . S
H486 C482 0.950 . S
C487 C485 1.390 . S
C487 C488 1.387 . S
C487 H490 0.950 . S
C488 C487 1.387 . S
C488 C491 1.387 . S
H489 C485 0.950 . S
H490 C487 0.950 . S
C491 C482 1.390 . S
C491 H484 0.950 . S
C491 C488 1.387 . S
C492 C493 1.387 . S
C492 H496 0.950 . S
C492 C501 1.390 1_554 S
C493 C492 1.387 . S
C493 C495 1.387 . S
H494 C501 0.950 . S
C495 C493 1.387 . S
C495 C497 1.390 1_554 S
C495 H499 0.950 . S
H496 C492 0.950 . S
C497 C495 1.390 1_556 S
C497 C498 1.387 . S
C497 H500 0.950 . S
C498 C497 1.387 . S
C498 C501 1.387 . S
H499 C495 0.950 . S
H500 C497 0.950 . S
C501 C492 1.390 1_556 S
C501 H494 0.950 . S
C501 C498 1.387 . S
C502 C503 1.387 . S
C502 H506 0.950 . S
C502 C511 1.390 . S
C503 C502 1.387 . S
C503 C505 1.387 . S
H504 C511 0.950 . S
C505 C503 1.387 . S
C505 C507 1.390 . S
C505 H509 0.950 . S
H506 C502 0.950 . S
C507 C505 1.390 . S
C507 C508 1.387 . S
C507 H510 0.950 . S
C508 C507 1.387 . S
C508 C511 1.387 . S
H509 C505 0.950 . S
H510 C507 0.950 . S
C511 C502 1.390 . S
C511 H504 0.950 . S
C511 C508 1.387 . S
C512 C513 1.387 . S
C512 H516 0.950 . S
C512 C521 1.390 . S
C513 C512 1.387 . S
C513 C515 1.387 1_556 S
H514 C521 0.950 . S
C515 C513 1.387 1_554 S
C515 C517 1.390 . S
C515 H519 0.950 . S
H516 C512 0.950 . S
C517 C515 1.390 . S
C517 C518 1.387 . S
C517 H520 0.950 . S
C518 C517 1.387 . S
C518 C521 1.387 1_554 S
H519 C515 0.950 . S
H520 C517 0.950 . S
C521 C512 1.390 . S
C521 H514 0.950 . S
C521 C518 1.387 1_556 S
C522 C523 1.387 . S
C522 H526 0.950 . S
C522 C531 1.390 . S
C523 C522 1.387 . S
C523 C525 1.387 . S
H524 C531 0.950 . S
C525 C523 1.387 . S
C525 C527 1.390 . S
C525 H529 0.950 . S
H526 C522 0.950 . S
C527 C525 1.390 . S
C527 C528 1.387 . S
C527 H530 0.950 . S
C528 C527 1.387 . S
C528 C531 1.387 . S
H529 C525 0.950 . S
H530 C527 0.950 . S
C531 C522 1.390 . S
C531 H524 0.950 . S
C531 C528 1.387 . S
C532 C533 1.387 . S
C532 H536 0.950 . S
C532 C541 1.390 . S
C533 C532 1.387 . S
C533 C535 1.387 1_556 S
H534 C541 0.950 . S
C535 C533 1.387 1_554 S
C535 C537 1.390 . S
C535 H539 0.950 . S
H536 C532 0.950 . S
C537 C535 1.390 . S
C537 C538 1.387 . S
C537 H540 0.950 . S
C538 C537 1.387 . S
C538 C541 1.387 1_554 S
H539 C535 0.950 . S
H540 C537 0.950 . S
C541 C532 1.390 . S
C541 H534 0.950 . S
C541 C538 1.387 1_556 S
C542 C543 1.387 . S
C542 H546 0.950 . S
C542 C551 1.390 . S
C543 C542 1.387 . S
C543 C545 1.387 . S
H544 C551 0.950 . S
C545 C543 1.387 . S
C545 C547 1.390 . S
C545 H549 0.950 . S
H546 C542 0.950 . S
C547 C545 1.390 . S
C547 C548 1.387 . S
C547 H550 0.950 . S
C548 C547 1.387 . S
C548 C551 1.387 . S
H549 C545 0.950 . S
H550 C547 0.950 . S
C551 C542 1.390 . S
C551 H544 0.950 . S
C551 C548 1.387 . S
C552 C553 1.387 . S
C552 H556 0.950 . S
C552 C561 1.390 . S
C553 C552 1.387 . S
C553 C555 1.387 . S
H554 C561 0.950 . S
C555 C553 1.387 . S
C555 C557 1.390 . S
C555 H559 0.950 1_554 S
H556 C552 0.950 . S
C557 C555 1.390 . S
C557 C558 1.387 . S
C557 H560 0.950 1_554 S
C558 C557 1.387 . S
C558 C561 1.387 . S
H559 C555 0.950 1_556 S
H560 C557 0.950 1_556 S
C561 C552 1.390 . S
C561 H554 0.950 . S
C561 C558 1.387 . S
C562 C563 1.387 . S
C562 H566 0.950 . S
C562 C571 1.390 1_455 S
C563 C562 1.387 . S
C563 C565 1.387 . S
H564 C571 0.950 . S
C565 C563 1.387 . S
C565 C567 1.390 1_455 S
C565 H569 0.950 . S
H566 C562 0.950 . S
C567 C565 1.390 1_655 S
C567 C568 1.387 . S
C567 H570 0.950 . S
C568 C567 1.387 . S
C568 C571 1.387 . S
H569 C565 0.950 . S
H570 C567 0.950 . S
C571 C562 1.390 1_655 S
C571 H564 0.950 . S
C571 C568 1.387 . S
C572 C573 1.387 . S
C572 H576 0.950 . S
C572 C581 1.390 1_565 S
C573 C572 1.387 . S
C573 C575 1.387 . S
H574 C581 0.950 . S
C575 C573 1.387 . S
C575 C577 1.390 1_565 S
C575 H579 0.950 . S
H576 C572 0.950 . S
C577 C575 1.390 1_545 S
C577 C578 1.387 . S
C577 H580 0.950 . S
C578 C577 1.387 . S
C578 C581 1.387 . S
H579 C575 0.950 . S
H580 C577 0.950 . S
C581 C572 1.390 1_545 S
C581 H574 0.950 . S
C581 C578 1.387 . S
C582 C583 1.387 . S
C582 H586 0.950 . S
C582 C591 1.390 . S
C583 C582 1.387 . S
C583 C585 1.387 . S
H584 C591 0.950 . S
C585 C583 1.387 . S
C585 C587 1.390 . S
C585 H589 0.950 . S
H586 C582 0.950 . S
C587 C585 1.390 . S
C587 C588 1.387 . S
C587 H590 0.950 . S
C588 C587 1.387 . S
C588 C591 1.387 . S
H589 C585 0.950 . S
H590 C587 0.950 . S
C591 C582 1.390 . S
C591 H584 0.950 . S
C591 C588 1.387 . S
C592 C593 1.387 . S
C592 H596 0.950 . S
C592 C601 1.390 1_655 S
C593 C592 1.387 . S
C593 C595 1.387 . S
H594 C601 0.950 . S
C595 C593 1.387 . S
C595 C597 1.390 1_655 S
C595 H599 0.950 1_554 S
H596 C592 0.950 . S
C597 C595 1.390 1_455 S
C597 C598 1.387 . S
C597 H600 0.950 1_554 S
C598 C597 1.387 . S
C598 C601 1.387 . S
H599 C595 0.950 1_556 S
H600 C597 0.950 1_556 S
C601 C592 1.390 1_455 S
C601 H594 0.950 . S
C601 C598 1.387 . S
C602 C603 1.387 . S
C602 H606 0.950 . S
C602 C611 1.390 1_545 S
C603 C602 1.387 . S
C603 C605 1.387 . S
H604 C611 0.950 . S
C605 C603 1.387 . S
C605 C607 1.390 1_545 S
C605 H609 0.950 . S
H606 C602 0.950 . S
C607 C605 1.390 1_565 S
C607 C608 1.387 . S
C607 H610 0.950 . S
C608 C607 1.387 . S
C608 C611 1.387 . S
H609 C605 0.950 . S
H610 C607 0.950 . S
C611 C602 1.390 1_565 S
C611 H604 0.950 . S
C611 C608 1.387 . S
C612 C613 1.387 . S
C612 H616 0.950 1_556 S
C612 C621 1.390 . S
C613 C612 1.387 . S
C613 C615 1.387 . S
H614 C621 0.950 1_554 S
C615 C613 1.387 . S
C615 C617 1.390 . S
C615 H619 0.950 . S
H616 C612 0.950 1_554 S
C617 C615 1.390 . S
C617 C618 1.387 . S
C617 H620 0.950 . S
C618 C617 1.387 . S
C618 C621 1.387 . S
H619 C615 0.950 . S
H620 C617 0.950 . S
C621 C612 1.390 . S
C621 H614 0.950 1_556 S
C621 C618 1.387 . S
C622 C623 1.387 . S
C622 H626 0.950 . S
C622 C631 1.390 1_655 S
C623 C622 1.387 . S
C623 C625 1.387 . S
H624 C631 0.950 . S
C625 C623 1.387 . S
C625 C627 1.390 1_655 S
C625 H629 0.950 . S
H626 C622 0.950 . S
C627 C625 1.390 1_455 S
C627 C628 1.387 . S
C627 H630 0.950 . S
C628 C627 1.387 . S
C628 C631 1.387 . S
H629 C625 0.950 . S
H630 C627 0.950 . S
C631 C622 1.390 1_455 S
C631 H624 0.950 . S
C631 C628 1.387 . S
C632 C633 1.387 . S
C632 H636 0.950 . S
C632 C641 1.390 1_545 S
C633 C632 1.387 . S
C633 C635 1.387 . S
H634 C641 0.950 . S
C635 C633 1.387 . S
C635 C637 1.390 1_545 S
C635 H639 0.950 1_556 S
H636 C632 0.950 . S
C637 C635 1.390 1_565 S
C637 C638 1.387 . S
C637 H640 0.950 1_556 S
C638 C637 1.387 . S
C638 C641 1.387 . S
H639 C635 0.950 1_554 S
H640 C637 0.950 1_554 S
C641 C632 1.390 1_565 S
C641 H634 0.950 . S
C641 C638 1.387 . S
C642 C643 1.387 . S
C642 H646 0.950 . S
C642 C651 1.390 . S
C643 C642 1.387 . S
C643 C645 1.387 . S
H644 C651 0.950 . S
C645 C643 1.387 . S
C645 C647 1.390 . S
C645 H649 0.950 . S
H646 C642 0.950 . S
C647 C645 1.390 . S
C647 C648 1.387 . S
C647 H650 0.950 . S
C648 C647 1.387 . S
C648 C651 1.387 . S
H649 C645 0.950 . S
H650 C647 0.950 . S
C651 C642 1.390 . S
C651 H644 0.950 . S
C651 C648 1.387 . S
C652 C653 1.387 . S
C652 H656 0.950 1_556 S
C652 C661 1.390 1_455 S
C653 C652 1.387 . S
C653 C655 1.387 . S
H654 C661 0.950 1_554 S
C655 C653 1.387 . S
C655 C657 1.390 1_455 S
C655 H659 0.950 . S
H656 C652 0.950 1_554 S
C657 C655 1.390 1_655 S
C657 C658 1.387 . S
C657 H660 0.950 . S
C658 C657 1.387 . S
C658 C661 1.387 . S
H659 C655 0.950 . S
H660 C657 0.950 . S
C661 C652 1.390 1_655 S
C661 H654 0.950 1_556 S
C661 C658 1.387 . S
C662 C663 1.387 . S
C662 H666 0.950 . S
C662 C671 1.390 1_565 S
C663 C662 1.387 . S
C663 C665 1.387 . S
H664 C671 0.950 . S
C665 C663 1.387 . S
C665 C667 1.390 1_565 S
C665 H669 0.950 . S
H666 C662 0.950 . S
C667 C665 1.390 1_545 S
C667 C668 1.387 . S
C667 H670 0.950 . S
C668 C667 1.387 . S
C668 C671 1.387 . S
H669 C665 0.950 . S
H670 C667 0.950 . S
C671 C662 1.390 1_545 S
C671 H664 0.950 . S
C671 C668 1.387 . S
C672 C673 1.387 . S
C672 H676 0.950 . S
C672 C681 1.390 . S
C673 C672 1.387 . S
C673 C675 1.387 1_556 S
H674 C681 0.950 . S
C675 C673 1.387 1_554 S
C675 C677 1.390 . S
C675 H679 0.950 . S
H676 C672 0.950 . S
C677 C675 1.390 . S
C677 C678 1.387 . S
C677 H680 0.950 . S
C678 C677 1.387 . S
C678 C681 1.387 1_554 S
H679 C675 0.950 . S
H680 C677 0.950 . S
C681 C672 1.390 . S
C681 H674 0.950 . S
C681 C678 1.387 1_556 S
C682 C683 1.387 . S
C682 H686 0.950 . S
C682 C691 1.390 . S
C683 C682 1.387 . S
C683 C685 1.387 . S
H684 C691 0.950 . S
C685 C683 1.387 . S
C685 C687 1.390 . S
C685 H689 0.950 . S
H686 C682 0.950 . S
C687 C685 1.390 . S
C687 C688 1.387 . S
C687 H690 0.950 . S
C688 C687 1.387 . S
C688 C691 1.387 . S
H689 C685 0.950 . S
H690 C687 0.950 . S
C691 C682 1.390 . S
C691 H684 0.950 . S
C691 C688 1.387 . S
C692 C693 1.387 . S
C692 H696 0.950 . S
C692 C701 1.390 1_556 S
C693 C692 1.387 . S
C693 C695 1.387 . S
H694 C701 0.950 . S
C695 C693 1.387 . S
C695 C697 1.390 1_556 S
C695 H699 0.950 . S
H696 C692 0.950 . S
C697 C695 1.390 1_554 S
C697 C698 1.387 . S
C697 H700 0.950 . S
C698 C697 1.387 . S
C698 C701 1.387 . S
H699 C695 0.950 . S
H700 C697 0.950 . S
C701 C692 1.390 1_554 S
C701 H694 0.950 . S
C701 C698 1.387 . S
C702 C703 1.387 . S
C702 H706 0.950 . S
C702 C711 1.390 . S
C703 C702 1.387 . S
C703 C705 1.387 . S
H704 C711 0.950 . S
C705 C703 1.387 . S
C705 C707 1.390 . S
C705 H709 0.950 . S
H706 C702 0.950 . S
C707 C705 1.390 . S
C707 C708 1.387 . S
C707 H710 0.950 . S
C708 C707 1.387 . S
C708 C711 1.387 . S
H709 C705 0.950 . S
H710 C707 0.950 . S
C711 C702 1.390 . S
C711 H704 0.950 . S
C711 C708 1.387 . S
C712 C713 1.387 1_554 S
C712 H716 0.950 . S
C712 C721 1.390 . S
C713 C712 1.387 1_556 S
C713 C715 1.387 . S
H714 C721 0.950 . S
C715 C713 1.387 . S
C715 C717 1.390 . S
C715 H719 0.950 . S
H716 C712 0.950 . S
C717 C715 1.390 . S
C717 C718 1.387 1_556 S
C717 H720 0.950 . S
C718 C717 1.387 1_554 S
C718 C721 1.387 . S
H719 C715 0.950 . S
H720 C717 0.950 . S
C721 C712 1.390 . S
C721 H714 0.950 . S
C721 C718 1.387 . S
C722 C723 1.387 . S
C722 H726 0.950 . S
C722 C731 1.390 . S
C723 C722 1.387 . S
C723 C725 1.387 . S
H724 C731 0.950 . S
C725 C723 1.387 . S
C725 C727 1.390 . S
C725 H729 0.950 . S
H726 C722 0.950 . S
C727 C725 1.390 . S
C727 C728 1.387 . S
C727 H730 0.950 . S
C728 C727 1.387 . S
C728 C731 1.387 . S
H729 C725 0.950 . S
H730 C727 0.950 . S
C731 C722 1.390 . S
C731 H724 0.950 . S
C731 C728 1.387 . S
C732 C733 1.387 . S
C732 H736 0.950 . S
C732 C741 1.390 . S
C733 C732 1.387 . S
C733 C735 1.387 1_554 S
H734 C741 0.950 . S
C735 C733 1.387 1_556 S
C735 C737 1.390 . S
C735 H739 0.950 . S
H736 C732 0.950 . S
C737 C735 1.390 . S
C737 C738 1.387 . S
C737 H740 0.950 . S
C738 C737 1.387 . S
C738 C741 1.387 1_556 S
H739 C735 0.950 . S
H740 C737 0.950 . S
C741 C732 1.390 . S
C741 H734 0.950 . S
C741 C738 1.387 1_554 S
C742 C743 1.387 . S
C742 H746 0.950 . S
C742 C751 1.390 . S
C743 C742 1.387 . S
C743 C745 1.387 . S
H744 C751 0.950 . S
C745 C743 1.387 . S
C745 C747 1.390 . S
C745 H749 0.950 . S
H746 C742 0.950 . S
C747 C745 1.390 . S
C747 C748 1.387 . S
C747 H750 0.950 . S
C748 C747 1.387 . S
C748 C751 1.387 . S
H749 C745 0.950 . S
H750 C747 0.950 . S
C751 C742 1.390 . S
C751 H744 0.950 . S
C751 C748 1.387 . S
C752 C753 1.387 . S
C752 H756 0.950 . S
C752 C761 1.390 1_554 S
C753 C752 1.387 . S
C753 C755 1.387 . S
H754 C761 0.950 . S
C755 C753 1.387 . S
C755 C757 1.390 1_554 S
C755 H759 0.950 . S
H756 C752 0.950 . S
C757 C755 1.390 1_556 S
C757 C758 1.387 . S
C757 H760 0.950 . S
C758 C757 1.387 . S
C758 C761 1.387 . S
H759 C755 0.950 . S
H760 C757 0.950 . S
C761 C752 1.390 1_556 S
C761 H754 0.950 . S
C761 C758 1.387 . S
C762 C763 1.387 . S
C762 H766 0.950 . S
C762 C771 1.390 . S
C763 C762 1.387 . S
C763 C765 1.387 . S
H764 C771 0.950 . S
C765 C763 1.387 . S
C765 C767 1.390 . S
C765 H769 0.950 . S
H766 C762 0.950 . S
C767 C765 1.390 . S
C767 C768 1.387 . S
C767 H770 0.950 . S
C768 C767 1.387 . S
C768 C771 1.387 . S
H769 C765 0.950 . S
H770 C767 0.950 . S
C771 C762 1.390 . S
C771 H764 0.950 . S
C771 C768 1.387 . S
C772 C773 1.387 . S
C772 H776 0.950 . S
C772 C781 1.390 . S
C773 C772 1.387 . S
C773 C775 1.387 1_556 S
H774 C781 0.950 . S
C775 C773 1.387 1_554 S
C775 C777 1.390 . S
C775 H779 0.950 . S
H776 C772 0.950 . S
C777 C775 1.390 . S
C777 C778 1.387 . S
C777 H780 0.950 . S
C778 C777 1.387 . S
C778 C781 1.387 1_554 S
H779 C775 0.950 . S
H780 C777 0.950 . S
C781 C772 1.390 . S
C781 H774 0.950 . S
C781 C778 1.387 1_556 S
C782 C783 1.387 . S
C782 H786 0.950 . S
C782 C791 1.390 . S
C783 C782 1.387 . S
C783 C785 1.387 . S
H784 C791 0.950 . S
C785 C783 1.387 . S
C785 C787 1.390 . S
C785 H789 0.950 . S
H786 C782 0.950 . S
C787 C785 1.390 . S
C787 C788 1.387 . S
C787 H790 0.950 . S
C788 C787 1.387 . S
C788 C791 1.387 . S
H789 C785 0.950 . S
H790 C787 0.950 . S
C791 C782 1.390 . S
C791 H784 0.950 . S
C791 C788 1.387 . S
C313 C10 1.467 . S
C318 C205 1.468 . S
C323 C23 1.468 . S
C328 C218 1.467 . S
C333 C231 1.468 . S
C338 C36 1.467 . S
C343 C166 1.467 . S
C348 C49 1.468 . S
C353 C179 1.468 . S
C358 C62 1.467 . S
C363 C192 1.467 . S
C368 C75 1.468 . S
C373 C283 1.468 . S
C378 C88 1.467 . S
C383 C101 1.467 . S
C388 C296 1.468 . S
C393 C309 1.467 . S
C398 C114 1.468 . S
C403 C127 1.468 . S
C408 C244 1.467 . S
C413 C257 1.467 . S
C418 C140 1.468 . S
C423 C153 1.467 . S
C428 C270 1.468 . S
C433 C130 1.208 . S
C438 C0 1.208 . S
C443 C143 1.210 . S
C448 C13 1.211 . S
C453 C26 1.211 . S
C458 C78 1.211 . S
C463 C39 1.208 . S
C468 C91 1.208 . S
C473 C104 1.210 . S
C478 C52 1.211 . S
C483 C65 1.209 . S
C488 C117 1.210 . S
C493 C286 1.208 . S
C498 C156 1.208 . S
C503 C169 1.210 . S
C508 C299 1.211 . S
C513 C182 1.209 . S
C518 C234 1.210 . S
C523 C247 1.212 . S
C528 C195 1.212 . S
C533 C208 1.210 . S
C538 C260 1.211 . S
C543 C221 1.211 . S
C548 C273 1.210 . S
C553 C5 1.280 . S
C558 C239 1.282 . S
C563 C252 1.280 . S
C568 C18 1.282 . S
C573 C31 1.279 . S
C578 C265 1.283 . S
C583 C44 1.282 . S
C588 C278 1.280 . S
C593 C291 1.282 . S
C598 C57 1.280 . S
C603 C70 1.283 . S
C608 C304 1.279 . S
C613 C83 1.282 . S
C618 C161 1.280 . S
C623 C96 1.280 . S
C628 C174 1.282 . S
C633 C187 1.282 . S
C638 C109 1.280 . S
C643 C200 1.282 . S
C648 C122 1.280 . S
C653 C135 1.282 . S
C658 C213 1.280 . S
C663 C226 1.283 . S
C668 C148 1.279 . S
C673 C86 1.496 . S
C678 C8 1.493 . S
C683 C21 1.493 . S
C688 C99 1.496 . S
C693 C112 1.495 . S
C698 C34 1.495 . S
C703 C125 1.497 . S
C708 C47 1.494 . S
C713 C138 1.494 . S
C718 C60 1.496 . S
C723 C73 1.495 . S
C728 C151 1.495 . S
C733 C242 1.494 . S
C738 C164 1.496 . S
C743 C177 1.494 . S
C748 C255 1.496 . S
C753 C268 1.495 . S
C758 C190 1.495 . S
C763 C281 1.494 . S
C768 C203 1.496 . S
C773 C216 1.494 . S
C778 C294 1.496 . S
C783 C229 1.495 . S
C788 C307 1.495 . S
