# Generated by pormake.
# Topology wiv, (6)-cn, num edge types: 1
# Building blocks:
#     Node 0, Type 0, BuildingBlock: CUWYAW_clean_sbu_0, # of connection points: 6
#     Node 1, Type 0, BuildingBlock: CUWYAW_clean_sbu_0, # of connection points: 6
#     Node 2, Type 0, BuildingBlock: CUWYAW_clean_sbu_0, # of connection points: 6
#     Node 3, Type 0, BuildingBlock: CUWYAW_clean_sbu_0, # of connection points: 6
#     Node 4, Type 0, BuildingBlock: CUWYAW_clean_sbu_0, # of connection points: 6
#     Node 5, Type 0, BuildingBlock: CUWYAW_clean_sbu_0, # of connection points: 6
#     Node 6, Type 0, BuildingBlock: CUWYAW_clean_sbu_0, # of connection points: 6
#     Node 7, Type 0, BuildingBlock: CUWYAW_clean_sbu_0, # of connection points: 6
#     Node 8, Type 0, BuildingBlock: CUWYAW_clean_sbu_0, # of connection points: 6
#     Node 9, Type 0, BuildingBlock: CUWYAW_clean_sbu_0, # of connection points: 6
#     Node 10, Type 0, BuildingBlock: CUWYAW_clean_sbu_0, # of connection points: 6
#     Node 11, Type 0, BuildingBlock: CUWYAW_clean_sbu_0, # of connection points: 6
#     Node 12, Type 0, BuildingBlock: CUWYAW_clean_sbu_0, # of connection points: 6
#     Node 13, Type 0, BuildingBlock: CUWYAW_clean_sbu_0, # of connection points: 6
#     Node 14, Type 0, BuildingBlock: CUWYAW_clean_sbu_0, # of connection points: 6
#     Node 15, Type 0, BuildingBlock: CUWYAW_clean_sbu_0, # of connection points: 6
#     Edge 16, Type (0, 0), BuildingBlock: TEMPAE_clean_linker_10, # of connection points: 2
#     Edge 17, Type (0, 0), BuildingBlock: TEMPAE_clean_linker_10, # of connection points: 2
#     Edge 18, Type (0, 0), BuildingBlock: TEMPAE_clean_linker_10, # of connection points: 2
#     Edge 19, Type (0, 0), BuildingBlock: TEMPAE_clean_linker_10, # of connection points: 2
#     Edge 20, Type (0, 0), BuildingBlock: TEMPAE_clean_linker_10, # of connection points: 2
#     Edge 21, Type (0, 0), BuildingBlock: TEMPAE_clean_linker_10, # of connection points: 2
#     Edge 22, Type (0, 0), BuildingBlock: TEMPAE_clean_linker_10, # of connection points: 2
#     Edge 23, Type (0, 0), BuildingBlock: TEMPAE_clean_linker_10, # of connection points: 2
#     Edge 24, Type (0, 0), BuildingBlock: TEMPAE_clean_linker_10, # of connection points: 2
#     Edge 25, Type (0, 0), BuildingBlock: TEMPAE_clean_linker_10, # of connection points: 2
#     Edge 26, Type (0, 0), BuildingBlock: TEMPAE_clean_linker_10, # of connection points: 2
#     Edge 27, Type (0, 0), BuildingBlock: TEMPAE_clean_linker_10, # of connection points: 2
#     Edge 28, Type (0, 0), BuildingBlock: TEMPAE_clean_linker_10, # of connection points: 2
#     Edge 29, Type (0, 0), BuildingBlock: TEMPAE_clean_linker_10, # of connection points: 2
#     Edge 30, Type (0, 0), BuildingBlock: TEMPAE_clean_linker_10, # of connection points: 2
#     Edge 31, Type (0, 0), BuildingBlock: TEMPAE_clean_linker_10, # of connection points: 2
#     Edge 32, Type (0, 0), BuildingBlock: TEMPAE_clean_linker_10, # of connection points: 2
#     Edge 33, Type (0, 0), BuildingBlock: TEMPAE_clean_linker_10, # of connection points: 2
#     Edge 34, Type (0, 0), BuildingBlock: TEMPAE_clean_linker_10, # of connection points: 2
#     Edge 35, Type (0, 0), BuildingBlock: TEMPAE_clean_linker_10, # of connection points: 2
#     Edge 36, Type (0, 0), BuildingBlock: TEMPAE_clean_linker_10, # of connection points: 2
#     Edge 37, Type (0, 0), BuildingBlock: TEMPAE_clean_linker_10, # of connection points: 2
#     Edge 38, Type (0, 0), BuildingBlock: TEMPAE_clean_linker_10, # of connection points: 2
#     Edge 39, Type (0, 0), BuildingBlock: TEMPAE_clean_linker_10, # of connection points: 2
#     Edge 40, Type (0, 0), BuildingBlock: TEMPAE_clean_linker_10, # of connection points: 2
#     Edge 41, Type (0, 0), BuildingBlock: TEMPAE_clean_linker_10, # of connection points: 2
#     Edge 42, Type (0, 0), BuildingBlock: TEMPAE_clean_linker_10, # of connection points: 2
#     Edge 43, Type (0, 0), BuildingBlock: TEMPAE_clean_linker_10, # of connection points: 2
#     Edge 44, Type (0, 0), BuildingBlock: TEMPAE_clean_linker_10, # of connection points: 2
#     Edge 45, Type (0, 0), BuildingBlock: TEMPAE_clean_linker_10, # of connection points: 2
#     Edge 46, Type (0, 0), BuildingBlock: TEMPAE_clean_linker_10, # of connection points: 2
#     Edge 47, Type (0, 0), BuildingBlock: TEMPAE_clean_linker_10, # of connection points: 2
#     Edge 48, Type (0, 0), BuildingBlock: TEMPAE_clean_linker_10, # of connection points: 2
#     Edge 49, Type (0, 0), BuildingBlock: TEMPAE_clean_linker_10, # of connection points: 2
#     Edge 50, Type (0, 0), BuildingBlock: TEMPAE_clean_linker_10, # of connection points: 2
#     Edge 51, Type (0, 0), BuildingBlock: TEMPAE_clean_linker_10, # of connection points: 2
#     Edge 52, Type (0, 0), BuildingBlock: TEMPAE_clean_linker_10, # of connection points: 2
#     Edge 53, Type (0, 0), BuildingBlock: TEMPAE_clean_linker_10, # of connection points: 2
#     Edge 54, Type (0, 0), BuildingBlock: TEMPAE_clean_linker_10, # of connection points: 2
#     Edge 55, Type (0, 0), BuildingBlock: TEMPAE_clean_linker_10, # of connection points: 2
#     Edge 56, Type (0, 0), BuildingBlock: TEMPAE_clean_linker_10, # of connection points: 2
#     Edge 57, Type (0, 0), BuildingBlock: TEMPAE_clean_linker_10, # of connection points: 2
#     Edge 58, Type (0, 0), BuildingBlock: TEMPAE_clean_linker_10, # of connection points: 2
#     Edge 59, Type (0, 0), BuildingBlock: TEMPAE_clean_linker_10, # of connection points: 2
#     Edge 60, Type (0, 0), BuildingBlock: TEMPAE_clean_linker_10, # of connection points: 2
#     Edge 61, Type (0, 0), BuildingBlock: TEMPAE_clean_linker_10, # of connection points: 2
#     Edge 62, Type (0, 0), BuildingBlock: TEMPAE_clean_linker_10, # of connection points: 2
#     Edge 63, Type (0, 0), BuildingBlock: TEMPAE_clean_linker_10, # of connection points: 2
# Relax obj value: 0.129
# Max RMSD: 0.186
# Mean RMSD: 0.186
data_MOF--net-wiv--node1-CUWYAW_clean_sbu_0--edge1-TEMPAE_clean_linker_10
_symmetry_space_group_name_H-M    P1
_symmetry_Int_Tables_number       1
_symmetry_cell_setting            triclinic
loop_
_symmetry_equiv_pos_as_xyz
'x, y, z'
_cell_length_a     51.663403
_cell_length_b     51.616884
_cell_length_c     25.169081
_cell_angle_alpha  90.05082
_cell_angle_beta   90.007112
_cell_angle_gamma 90.029035
loop_
_atom_site_label
_atom_site_type_symbol
_atom_site_fract_x
_atom_site_fract_y
_atom_site_fract_z
_atom_type_partial_charge
C0 C 0.39886 0.12538 0.97907 0.0
Eu1 Eu 0.37979 0.1121 0.07113 0.0
C2 C 0.39042 0.12251 0.92314 0.0
C3 C 0.37274 0.10313 0.90816 0.0
C4 C 0.36511 0.10043 0.85496 0.0
C5 C 0.37497 0.11709 0.81553 0.0
C6 C 0.39244 0.13667 0.83096 0.0
C7 C 0.40007 0.13933 0.88416 0.0
C8 C 0.37859 0.06416 0.11545 0.0
C9 C 0.31753 0.10152 0.05018 0.0
C10 C 0.32351 0.0827 0.25448 0.0
Eu11 Eu 0.34258 0.10412 0.16927 0.0
C12 C 0.32667 0.08764 0.31197 0.0
C13 C 0.3442 0.1065 0.33003 0.0
C14 C 0.34845 0.11005 0.38454 0.0
C15 C 0.33518 0.09489 0.42226 0.0
C16 C 0.31734 0.07625 0.40386 0.0
C17 C 0.31322 0.07261 0.34925 0.0
C18 C 0.35038 0.1559 0.15579 0.0
C19 C 0.40481 0.11886 0.18549 0.0
O20 O 0.38513 0.14107 1.00874 0.0
O21 O 0.40515 0.10402 1.00396 0.0
O22 O 0.39945 0.07475 0.09631 0.0
O23 O 0.35934 0.07882 0.10786 0.0
O24 O 0.34105 0.1056 0.03135 0.0
O25 O 0.31269 0.09981 0.10207 0.0
O26 O 0.34431 0.07433 0.2302 0.0
O27 O 0.31116 0.10042 0.227 0.0
O28 O 0.33563 0.14592 0.19204 0.0
O29 O 0.35963 0.13784 0.12755 0.0
O30 O 0.38352 0.10763 0.20447 0.0
O31 O 0.4068 0.12602 0.13513 0.0
H32 H 0.36492 0.08997 0.93756 0.0
H33 H 0.35136 0.08537 0.84476 0.0
H34 H 0.40065 0.14967 0.8017 0.0
H35 H 0.41369 0.15444 0.89481 0.0
H36 H 0.35481 0.1183 0.30188 0.0
H37 H 0.36209 0.12477 0.39714 0.0
H38 H 0.30701 0.06403 0.43165 0.0
H39 H 0.2998 0.0578 0.33613 0.0
C40 C 0.09472 0.68225 0.79482 0.0
Eu41 Eu 0.10729 0.66099 0.8857 0.0
C42 C 0.0967 0.67535 0.73788 0.0
C43 C 0.11417 0.65636 0.7202 0.0
C44 C 0.11593 0.65018 0.66601 0.0
C45 C 0.10033 0.66295 0.62828 0.0
C46 C 0.0827 0.68181 0.64645 0.0
C47 C 0.0809 0.68788 0.70063 0.0
C48 C 0.15664 0.65552 0.92142 0.0
C49 C 0.11764 0.59822 0.86327 0.0
C50 C 0.12368 0.60223 0.06749 0.0
Eu51 Eu 0.11182 0.62386 0.97683 0.0
C52 C 0.12093 0.60895 0.12446 0.0
C53 C 0.10104 0.62537 0.14225 0.0
C54 C 0.09879 0.63165 0.19631 0.0
C55 C 0.11639 0.62166 0.23385 0.0
C56 C 0.13633 0.60528 0.21564 0.0
C57 C 0.13856 0.59904 0.1616 0.0
C58 C 0.06395 0.62672 0.93273 0.0
C59 C 0.10206 0.68584 1.00237 0.0
O60 O 0.07874 0.66841 0.82333 0.0
O61 O 0.11643 0.68687 0.81976 0.0
O62 O 0.14636 0.6774 0.90732 0.0
O63 O 0.14028 0.63745 0.91628 0.0
O64 O 0.10924 0.62093 0.84528 0.0
O65 O 0.12354 0.59512 0.91396 0.0
O66 O 0.13991 0.61635 0.03997 0.0
O67 O 0.10233 0.59732 0.04134 0.0
O68 O 0.07417 0.60546 0.95056 0.0
O69 O 0.07873 0.64571 0.94224 0.0
O70 O 0.10896 0.66264 1.01927 0.0
O71 O 0.09794 0.69034 0.95115 0.0
H72 H 0.12659 0.64644 0.74825 0.0
H73 H 0.12987 0.63574 0.65358 0.0
H74 H 0.07009 0.69176 0.61881 0.0
H75 H 0.06716 0.70246 0.71344 0.0
H76 H 0.08723 0.63332 0.11432 0.0
H77 H 0.0834 0.64456 0.20861 0.0
H78 H 0.15004 0.59694 0.24329 0.0
H79 H 0.15405 0.58634 0.14881 0.0
C80 C 0.59494 0.88728 0.97072 0.0
Eu81 Eu 0.61784 0.89549 0.06195 0.0
C82 C 0.6019 0.88854 0.91341 0.0
C83 C 0.58683 0.9036 0.87877 0.0
C84 C 0.59303 0.90534 0.82466 0.0
C85 C 0.61448 0.89199 0.80363 0.0
C86 C 0.62952 0.87681 0.83841 0.0
C87 C 0.62333 0.87511 0.89262 0.0
C88 C 0.62145 0.94282 0.10902 0.0
C89 C 0.67972 0.90236 0.03511 0.0
C90 C 0.67757 0.90857 0.24252 0.0
Eu91 Eu 0.65547 0.89834 0.15125 0.0
C92 C 0.67041 0.90722 0.29964 0.0
C93 C 0.6874 0.89549 0.33585 0.0
C94 C 0.68117 0.89399 0.38997 0.0
C95 C 0.65774 0.90426 0.4094 0.0
C96 C 0.64069 0.916 0.37291 0.0
C97 C 0.64694 0.91747 0.31872 0.0
C98 C 0.64918 0.84948 0.11191 0.0
C99 C 0.59284 0.8891 0.17525 0.0
O100 O 0.60536 0.86887 0.99941 0.0
O101 O 0.59396 0.90935 0.99612 0.0
O102 O 0.59997 0.93262 0.09246 0.0
O103 O 0.6403 0.92819 0.09758 0.0
O104 O 0.65675 0.89388 1.02012 0.0
O105 O 0.68397 0.90897 0.08529 0.0
O106 O 0.66587 0.92596 0.21342 0.0
O107 O 0.68028 0.88654 0.21755 0.0
O108 O 0.67133 0.85966 0.1245 0.0
O109 O 0.63134 0.86578 0.12006 0.0
O110 O 0.61571 0.89731 0.19261 0.0
O111 O 0.58929 0.88339 0.1246 0.0
H112 H 0.57014 0.91406 0.89362 0.0
H113 H 0.58075 0.91691 0.79913 0.0
H114 H 0.64631 0.86646 0.82387 0.0
H115 H 0.63537 0.86333 0.91819 0.0
H116 H 0.70557 0.88738 0.32221 0.0
H117 H 0.69463 0.88447 0.41652 0.0
H118 H 0.62263 0.92441 0.3863 0.0
H119 H 0.63341 0.9267 0.29185 0.0
C120 C 0.91135 0.32721 0.79622 0.0
Eu121 Eu 0.89987 0.34901 0.88718 0.0
C122 C 0.90938 0.33372 0.73892 0.0
C123 C 0.90001 0.31511 0.70308 0.0
C124 C 0.89806 0.3207 0.64874 0.0
C125 C 0.90547 0.34509 0.62881 0.0
C126 C 0.91491 0.36373 0.6649 0.0
C127 C 0.91683 0.35813 0.7193 0.0
C128 C 0.8508 0.35425 0.92533 0.0
C129 C 0.88938 0.41166 0.86476 0.0
C130 C 0.88746 0.40871 0.06908 0.0
Eu131 Eu 0.89599 0.38605 0.97761 0.0
C132 C 0.88802 0.40139 0.12599 0.0
C133 C 0.89406 0.42017 0.16434 0.0
C134 C 0.89547 0.41358 0.21827 0.0
C135 C 0.89095 0.38796 0.23518 0.0
C136 C 0.88487 0.36914 0.19651 0.0
C137 C 0.88338 0.37582 0.14257 0.0
C138 C 0.94353 0.38325 0.93121 0.0
C139 C 0.90304 0.32416 1.0025 0.0
O140 O 0.92785 0.34052 0.82466 0.0
O141 O 0.88965 0.32306 0.8215 0.0
O142 O 0.86121 0.33236 0.91166 0.0
O143 O 0.86684 0.37245 0.91849 0.0
O144 O 0.89779 0.38897 0.84666 0.0
O145 O 0.88376 0.41485 0.91556 0.0
O146 O 0.86916 0.39858 0.03965 0.0
O147 O 0.90979 0.4091 0.04476 0.0
O148 O 0.93294 0.40456 0.94764 0.0
O149 O 0.9291 0.3642 0.9423 0.0
O150 O 0.89348 0.34668 1.01751 0.0
O151 O 0.91095 0.32061 0.95294 0.0
H152 H 0.89426 0.29612 0.71713 0.0
H153 H 0.89106 0.30573 0.6222 0.0
H154 H 0.92053 0.38281 0.65124 0.0
H155 H 0.92413 0.37291 0.74594 0.0
H156 H 0.89789 0.43999 0.15251 0.0
H157 H 0.90056 0.42851 0.24665 0.0
H158 H 0.88099 0.34929 0.20795 0.0
H159 H 0.87862 0.36098 0.11386 0.0
C160 C 0.40761 0.38658 0.31357 0.0
Eu161 Eu 0.38477 0.39556 0.22262 0.0
C162 C 0.40098 0.38795 0.371 0.0
C163 C 0.41685 0.40228 0.40551 0.0
C164 C 0.41093 0.40424 0.45971 0.0
C165 C 0.38893 0.39187 0.48095 0.0
C166 C 0.37314 0.37736 0.44628 0.0
C167 C 0.37908 0.3754 0.39201 0.0
C168 C 0.3829 0.44312 0.17601 0.0
C169 C 0.32297 0.40366 0.24906 0.0
C170 C 0.32635 0.41214 0.04164 0.0
Eu171 Eu 0.34764 0.4001 0.13271 0.0
C172 C 0.33349 0.41052 0.98457 0.0
C173 C 0.31569 0.40029 0.94803 0.0
C174 C 0.32191 0.39846 0.89396 0.0
C175 C 0.34614 0.4069 0.87493 0.0
C176 C 0.36399 0.41714 0.91176 0.0
C177 C 0.35775 0.41894 0.9659 0.0
C178 C 0.3518 0.3508 0.16996 0.0
C179 C 0.40997 0.38843 0.10956 0.0
O180 O 0.39653 0.36852 0.28489 0.0
O181 O 0.40909 0.40867 0.28843 0.0
O182 O 0.40398 0.43207 0.1923 0.0
O183 O 0.36356 0.42912 0.18732 0.0
O184 O 0.34577 0.39479 0.26413 0.0
O185 O 0.31904 0.41062 0.19894 0.0
O186 O 0.33916 0.42861 0.07113 0.0
O187 O 0.32218 0.39023 0.06611 0.0
O188 O 0.33023 0.3618 0.15615 0.0
O189 O 0.37043 0.36647 0.1638 0.0
O190 O 0.38745 0.39733 0.09176 0.0
O191 O 0.41309 0.38262 0.16026 0.0
H192 H 0.43392 0.41202 0.39048 0.0
H193 H 0.42382 0.41522 0.48512 0.0
H194 H 0.35595 0.36774 0.46096 0.0
H195 H 0.36649 0.36413 0.36654 0.0
H196 H 0.29691 0.39359 0.96138 0.0
H197 H 0.3078 0.3901 0.86715 0.0
H198 H 0.38271 0.42412 0.89868 0.0
H199 H 0.37192 0.42695 0.99307 0.0
C200 C 0.4135 0.68736 0.99592 0.0
Eu201 Eu 0.40003 0.66085 0.91205 0.0
C202 C 0.41084 0.68286 0.05412 0.0
C203 C 0.40325 0.70311 0.08801 0.0
C204 C 0.40064 0.69898 0.14295 0.0
C205 C 0.40569 0.67449 0.16543 0.0
C206 C 0.41325 0.65423 0.13124 0.0
C207 C 0.41572 0.65833 0.07639 0.0
C208 C 0.35103 0.64391 0.89589 0.0
C209 C 0.39155 0.59879 0.92881 0.0
C210 C 0.38533 0.60634 0.72286 0.0
Eu211 Eu 0.39544 0.62631 0.81637 0.0
C212 C 0.38496 0.61515 0.66674 0.0
C213 C 0.38886 0.59702 0.626 0.0
C214 C 0.38988 0.60486 0.57273 0.0
C215 C 0.38706 0.63114 0.55869 0.0
C216 C 0.38306 0.64931 0.59977 0.0
C217 C 0.38201 0.64141 0.65318 0.0
C218 C 0.44239 0.62565 0.8655 0.0
C219 C 0.40364 0.68771 0.79499 0.0
O220 O 0.42919 0.67179 0.97035 0.0
O221 O 0.39216 0.69194 0.96932 0.0
O222 O 0.36205 0.64637 0.94174 0.0
O223 O 0.36628 0.65113 0.85904 0.0
O224 O 0.40299 0.62007 0.94704 0.0
O225 O 0.38288 0.59761 0.87932 0.0
O226 O 0.3675 0.61542 0.75484 0.0
O227 O 0.40805 0.60545 0.74545 0.0
O228 O 0.43105 0.60513 0.8467 0.0
O229 O 0.42879 0.64547 0.85626 0.0
O230 O 0.40488 0.66401 0.77597 0.0
O231 O 0.40021 0.69211 0.84659 0.0
H232 H 0.39937 0.72219 0.07198 0.0
H233 H 0.39501 0.71511 0.16795 0.0
H234 H 0.41692 0.63502 0.14677 0.0
H235 H 0.42142 0.64222 0.0514 0.0
H236 H 0.39145 0.57671 0.63545 0.0
H237 H 0.39343 0.59032 0.54257 0.0
H238 H 0.3805 0.66963 0.59067 0.0
H239 H 0.37901 0.65584 0.6838 0.0
C240 C 0.59791 0.61859 0.32203 0.0
Eu241 Eu 0.62092 0.61064 0.23086 0.0
C242 C 0.60488 0.6175 0.37928 0.0
C243 C 0.58902 0.60365 0.41454 0.0
C244 C 0.59529 0.60192 0.4686 0.0
C245 C 0.61764 0.61403 0.4889 0.0
C246 C 0.63348 0.62801 0.45346 0.0
C247 C 0.62717 0.62973 0.39933 0.0
C248 C 0.62468 0.5634 0.18351 0.0
C249 C 0.68295 0.60464 0.25681 0.0
C250 C 0.68051 0.59791 0.04981 0.0
Eu251 Eu 0.65834 0.60813 0.14098 0.0
C252 C 0.67343 0.59907 0.99269 0.0
C253 C 0.69096 0.60971 0.95613 0.0
C254 C 0.6848 0.61105 0.90197 0.0
C255 C 0.66089 0.60175 0.88293 0.0
C256 C 0.64331 0.5911 0.91975 0.0
C257 C 0.64951 0.58975 0.97397 0.0
C258 C 0.65149 0.65698 0.18009 0.0
C259 C 0.59561 0.6167 0.11774 0.0
O260 O 0.60811 0.63713 0.29331 0.0
O261 O 0.59731 0.59647 0.29681 0.0
O262 O 0.60322 0.57341 0.20053 0.0
O263 O 0.64348 0.57816 0.19477 0.0
O264 O 0.65995 0.61288 0.27213 0.0
O265 O 0.68707 0.59791 0.20667 0.0
O266 O 0.66883 0.58051 0.07895 0.0
O267 O 0.68303 0.62002 0.07457 0.0
O268 O 0.67374 0.64714 0.16715 0.0
O269 O 0.63389 0.64038 0.17234 0.0
O270 O 0.61849 0.60876 0.10003 0.0
O271 O 0.59217 0.62242 0.16842 0.0
H272 H 0.57168 0.59411 0.4002 0.0
H273 H 0.58241 0.59131 0.49465 0.0
H274 H 0.65097 0.63736 0.46742 0.0
H275 H 0.63979 0.64058 0.37319 0.0
H276 H 0.70949 0.61707 0.96953 0.0
H277 H 0.69869 0.6197 0.87508 0.0
H278 H 0.62486 0.58346 0.90661 0.0
H279 H 0.63559 0.58135 1.00115 0.0
C280 C 0.59707 0.32632 0.9959 0.0
Eu281 Eu 0.60863 0.34807 0.9049 0.0
C282 C 0.59917 0.33307 0.05293 0.0
C283 C 0.61666 0.35202 0.0708 0.0
C284 C 0.61838 0.35814 0.12505 0.0
C285 C 0.60272 0.34535 0.16266 0.0
C286 C 0.58509 0.32652 0.14432 0.0
C287 C 0.58332 0.32051 0.0901 0.0
C288 C 0.65766 0.35372 0.86681 0.0
C289 C 0.61899 0.41078 0.92823 0.0
C290 C 0.62201 0.40742 0.72347 0.0
Eu291 Eu 0.61236 0.38548 0.815 0.0
C292 C 0.62038 0.39972 0.66677 0.0
C293 C 0.60209 0.38144 0.64915 0.0
C294 C 0.60042 0.37485 0.59515 0.0
C295 C 0.61712 0.38624 0.55758 0.0
C296 C 0.6357 0.40419 0.57564 0.0
C297 C 0.63725 0.41087 0.62958 0.0
C298 C 0.56479 0.38235 0.86084 0.0
C299 C 0.60445 0.32349 0.78872 0.0
O300 O 0.58065 0.33989 0.96794 0.0
O301 O 0.6187 0.32221 0.97035 0.0
O302 O 0.64741 0.33174 0.88039 0.0
O303 O 0.6415 0.37177 0.87393 0.0
O304 O 0.6107 0.38798 0.94591 0.0
O305 O 0.62454 0.41418 0.87746 0.0
O306 O 0.63973 0.39591 0.75211 0.0
O307 O 0.6001 0.40989 0.74897 0.0
O308 O 0.57514 0.40372 0.84402 0.0
O309 O 0.57936 0.36337 0.84996 0.0
O310 O 0.61292 0.34644 0.77352 0.0
O311 O 0.59808 0.31934 0.83906 0.0
H312 H 0.62911 0.36198 0.04284 0.0
H313 H 0.63233 0.37257 0.13762 0.0
H314 H 0.57244 0.31656 0.17186 0.0
H315 H 0.56954 0.30598 0.07717 0.0
H316 H 0.58902 0.37232 0.67712 0.0
H317 H 0.58616 0.36067 0.58283 0.0
H318 H 0.64873 0.4135 0.54786 0.0
H319 H 0.65155 0.42496 0.64221 0.0
C320 C 0.90549 0.62472 0.48123 0.0
Eu321 Eu 0.88327 0.6145 0.57224 0.0
C322 C 0.89865 0.62314 0.42403 0.0
C323 C 0.91612 0.61175 0.38829 0.0
C324 C 0.90996 0.60944 0.33427 0.0
C325 C 0.8861 0.61847 0.31456 0.0
C326 C 0.86864 0.63002 0.35048 0.0
C327 C 0.87485 0.63233 0.40456 0.0
C328 C 0.8814 0.5662 0.61549 0.0
C329 C 0.82154 0.60588 0.54748 0.0
C330 C 0.82578 0.59518 0.75379 0.0
Eu331 Eu 0.84668 0.60853 0.66314 0.0
C332 C 0.8325 0.59719 0.81098 0.0
C333 C 0.81369 0.60549 0.84741 0.0
C334 C 0.81953 0.60759 0.90162 0.0
C335 C 0.8444 0.60144 0.92079 0.0
C336 C 0.86325 0.59311 0.8841 0.0
C337 C 0.85736 0.59097 0.82986 0.0
C338 C 0.85033 0.65824 0.62804 0.0
C339 C 0.90898 0.62053 0.68518 0.0
O340 O 0.89367 0.64219 0.51017 0.0
O341 O 0.908 0.60267 0.5061 0.0
O342 O 0.90245 0.57737 0.5994 0.0
O343 O 0.86212 0.58052 0.60586 0.0
O344 O 0.84393 0.61568 0.53224 0.0
O345 O 0.81822 0.59782 0.59704 0.0
O346 O 0.8398 0.5796 0.72466 0.0
O347 O 0.82037 0.6168 0.72924 0.0
O348 O 0.82895 0.64706 0.64251 0.0
O349 O 0.86908 0.64264 0.63295 0.0
O350 O 0.88665 0.61123 0.70315 0.0
O351 O 0.91179 0.62692 0.6347 0.0
H352 H 0.93462 0.60457 0.40222 0.0
H353 H 0.92405 0.60079 0.30782 0.0
H354 H 0.84998 0.63694 0.33697 0.0
H355 H 0.86099 0.64122 0.43114 0.0
H356 H 0.7944 0.61044 0.83388 0.0
H357 H 0.80462 0.6144 0.92844 0.0
H358 H 0.88249 0.58788 0.89737 0.0
H359 H 0.87228 0.5844 0.80278 0.0
C360 C 0.59567 0.18213 0.29017 0.0
Eu361 Eu 0.60706 0.16035 0.3811 0.0
C362 C 0.59777 0.17561 0.23291 0.0
C363 C 0.60679 0.19435 0.19706 0.0
C364 C 0.60882 0.18874 0.14272 0.0
C365 C 0.60183 0.1642 0.12284 0.0
C366 C 0.59276 0.14542 0.15895 0.0
C367 C 0.59076 0.15105 0.21333 0.0
C368 C 0.65618 0.15511 0.41922 0.0
C369 C 0.6173 0.09764 0.35873 0.0
C370 C 0.61922 0.10103 0.5628 0.0
Eu371 Eu 0.61081 0.12361 0.4713 0.0
C372 C 0.61876 0.10837 0.61971 0.0
C373 C 0.61314 0.08949 0.65803 0.0
C374 C 0.61182 0.09604 0.712 0.0
C375 C 0.61602 0.12172 0.72897 0.0
C376 C 0.62167 0.14064 0.69032 0.0
C377 C 0.62306 0.13402 0.63631 0.0
C378 C 0.56319 0.12642 0.42508 0.0
C379 C 0.60391 0.18546 0.4962 0.0
O380 O 0.57916 0.16876 0.31842 0.0
O381 O 0.61731 0.18635 0.31563 0.0
O382 O 0.64576 0.177 0.40564 0.0
O383 O 0.64013 0.13691 0.41231 0.0
O384 O 0.60901 0.12033 0.34053 0.0
O385 O 0.62288 0.09454 0.40955 0.0
O386 O 0.63757 0.11101 0.53336 0.0
O387 O 0.59687 0.1008 0.53856 0.0
O388 O 0.57385 0.10512 0.44124 0.0
O389 O 0.57762 0.14548 0.43613 0.0
O390 O 0.61363 0.16303 0.51119 0.0
O391 O 0.59588 0.18885 0.44671 0.0
H392 H 0.61219 0.21346 0.2111 0.0
H393 H 0.61553 0.20381 0.11615 0.0
H394 H 0.58749 0.12623 0.1453 0.0
H395 H 0.58374 0.13616 0.24 0.0
H396 H 0.60957 0.06962 0.64616 0.0
H397 H 0.60705 0.08102 0.74037 0.0
H398 H 0.62529 0.16055 0.70182 0.0
H399 H 0.62748 0.14896 0.60762 0.0
C400 C 0.10148 0.38558 0.47769 0.0
Eu401 Eu 0.12397 0.39531 0.56884 0.0
C402 C 0.10857 0.3865 0.42063 0.0
C403 C 0.08977 0.39316 0.38284 0.0
C404 C 0.09618 0.39493 0.32884 0.0
C405 C 0.12163 0.39015 0.3113 0.0
C406 C 0.14046 0.38344 0.3494 0.0
C407 C 0.13396 0.38159 0.4034 0.0
C408 C 0.12597 0.44354 0.61286 0.0
C409 C 0.18569 0.40325 0.54366 0.0
C410 C 0.18155 0.41394 0.75026 0.0
Eu411 Eu 0.16054 0.4009 0.65941 0.0
C412 C 0.17509 0.41161 0.80758 0.0
C413 C 0.19366 0.40192 0.84307 0.0
C414 C 0.18811 0.39961 0.89737 0.0
C415 C 0.1638 0.40701 0.91766 0.0
C416 C 0.1452 0.4168 0.88197 0.0
C417 C 0.15076 0.41905 0.8276 0.0
C418 C 0.15638 0.35109 0.62459 0.0
C419 C 0.09808 0.3894 0.68162 0.0
O420 O 0.11257 0.36781 0.507 0.0
O421 O 0.10005 0.40789 0.50203 0.0
O422 O 0.1049 0.43237 0.59685 0.0
O423 O 0.14523 0.42924 0.60279 0.0
O424 O 0.16331 0.39328 0.52888 0.0
O425 O 0.18901 0.4116 0.59307 0.0
O426 O 0.16734 0.42955 0.72164 0.0
O427 O 0.1871 0.39251 0.72505 0.0
O428 O 0.17789 0.36218 0.63861 0.0
O429 O 0.13779 0.36689 0.62943 0.0
O430 O 0.12054 0.39841 0.69961 0.0
O431 O 0.0952 0.38314 0.63105 0.0
H432 H 0.07008 0.39721 0.39517 0.0
H433 H 0.08124 0.4005 0.30092 0.0
H434 H 0.16018 0.37934 0.33747 0.0
H435 H 0.14878 0.37633 0.43167 0.0
H436 H 0.21259 0.39618 0.82876 0.0
H437 H 0.20304 0.39234 0.92362 0.0
H438 H 0.12619 0.42242 0.89593 0.0
H439 H 0.13597 0.42658 0.80129 0.0
C440 C 0.42232 0.8259 0.28821 0.0
Eu441 Eu 0.40051 0.84437 0.37367 0.0
C442 C 0.4174 0.82919 0.23075 0.0
C443 C 0.39768 0.84577 0.21299 0.0
C444 C 0.39412 0.85029 0.15857 0.0
C445 C 0.41016 0.83824 0.12061 0.0
C446 C 0.42973 0.82139 0.13872 0.0
C447 C 0.43335 0.81701 0.19324 0.0
C448 C 0.34857 0.85095 0.38732 0.0
C449 C 0.38515 0.90644 0.35683 0.0
C450 C 0.37771 0.90094 0.56338 0.0
Eu451 Eu 0.39148 0.88185 0.47154 0.0
C452 C 0.38085 0.89285 0.61949 0.0
C453 C 0.40144 0.87679 0.63514 0.0
C454 C 0.40443 0.86956 0.6885 0.0
C455 C 0.38684 0.87818 0.72747 0.0
C456 C 0.36605 0.89401 0.71138 0.0
C457 C 0.36312 0.90125 0.65801 0.0
C458 C 0.43957 0.88126 0.42784 0.0
C459 C 0.40316 0.81967 0.49298 0.0
O460 O 0.43028 0.84679 0.3128 0.0
O461 O 0.40484 0.81313 0.31552 0.0
O462 O 0.35888 0.83601 0.35174 0.0
O463 O 0.36644 0.8609 0.41499 0.0
O464 O 0.39663 0.88518 0.33837 0.0
O465 O 0.37757 0.90851 0.40694 0.0
O466 O 0.36239 0.88664 0.53397 0.0
O467 O 0.39884 0.90775 0.53828 0.0
O468 O 0.42868 0.90199 0.44692 0.0
O469 O 0.42511 0.86185 0.43544 0.0
O470 O 0.39833 0.84316 0.51148 0.0
O471 O 0.40547 0.81477 0.44117 0.0
H472 H 0.3852 0.85547 0.24131 0.0
H473 H 0.3787 0.86315 0.14622 0.0
H474 H 0.44266 0.81205 0.11079 0.0
H475 H 0.44887 0.80438 0.20613 0.0
H476 H 0.41533 0.86995 0.60612 0.0
H477 H 0.42044 0.85708 0.69918 0.0
H478 H 0.35229 0.90125 0.74024 0.0
H479 H 0.34707 0.91362 0.64688 0.0
C480 C 0.89912 0.88236 0.8157 0.0
Eu481 Eu 0.88011 0.89532 0.7233 0.0
C482 C 0.88977 0.88382 0.87125 0.0
C483 C 0.86992 0.90106 0.88572 0.0
C484 C 0.86223 0.90342 0.93892 0.0
C485 C 0.87417 0.88853 0.97887 0.0
C486 C 0.89359 0.87081 0.96393 0.0
C487 C 0.90133 0.86854 0.9107 0.0
C488 C 0.87935 0.94408 0.68217 0.0
C489 C 0.81746 0.90436 0.74262 0.0
C490 C 0.82512 0.92757 0.53948 0.0
Eu491 Eu 0.84333 0.90553 0.62475 0.0
C492 C 0.82821 0.92226 0.4821 0.0
C493 C 0.84639 0.90395 0.46446 0.0
C494 C 0.85048 0.89995 0.41004 0.0
C495 C 0.8363 0.91403 0.37198 0.0
C496 C 0.81778 0.93206 0.38991 0.0
C497 C 0.81388 0.93622 0.44445 0.0
C498 C 0.85012 0.8534 0.63621 0.0
C499 C 0.9055 0.89017 0.60935 0.0
O500 O 0.88735 0.86591 0.78423 0.0
O501 O 0.90366 0.90457 0.79248 0.0
O502 O 0.90002 0.93292 0.70054 0.0
O503 O 0.86001 0.92942 0.68855 0.0
O504 O 0.84034 0.89697 0.76052 0.0
O505 O 0.81367 0.9109 0.69199 0.0
O506 O 0.84618 0.93524 0.56384 0.0
O507 O 0.81203 0.91042 0.5671 0.0
O508 O 0.83555 0.86396 0.60037 0.0
O509 O 0.85955 0.87108 0.66502 0.0
O510 O 0.88455 0.90229 0.59107 0.0
O511 O 0.90712 0.88184 0.65903 0.0
H512 H 0.86062 0.91302 0.85599 0.0
H513 H 0.84696 0.91696 0.94882 0.0
H514 H 0.90335 0.8592 0.99363 0.0
H515 H 0.91667 0.85513 0.90048 0.0
H516 H 0.8576 0.89289 0.49286 0.0
H517 H 0.86467 0.88572 0.39776 0.0
H518 H 0.80672 0.94341 0.36176 0.0
H519 H 0.79989 0.95055 0.45721 0.0
C520 C 0.90859 0.18298 0.5003 0.0
Eu521 Eu 0.89856 0.16093 0.40888 0.0
C522 C 0.90726 0.17573 0.55732 0.0
C523 C 0.89636 0.19308 0.59395 0.0
C524 C 0.89483 0.18674 0.648 0.0
C525 C 0.90422 0.16284 0.66689 0.0
C526 C 0.9151 0.14542 0.62995 0.0
C527 C 0.91661 0.15179 0.57584 0.0
C528 C 0.85001 0.15508 0.36823 0.0
C529 C 0.8888 0.09834 0.43238 0.0
C530 C 0.88848 0.10026 0.22822 0.0
Eu531 Eu 0.89618 0.12347 0.31936 0.0
C532 C 0.88942 0.10699 0.17084 0.0
C533 C 0.9041 0.09163 0.13602 0.0
C534 C 0.90557 0.09762 0.0818 0.0
C535 C 0.89236 0.11918 0.06085 0.0
C536 C 0.87751 0.13447 0.09583 0.0
C537 C 0.87607 0.12848 0.15014 0.0
C538 C 0.9431 0.12663 0.36811 0.0
C539 C 0.903 0.18555 0.2932 0.0
O540 O 0.92607 0.17141 0.47114 0.0
O541 O 0.88656 0.18552 0.4754 0.0
O542 O 0.86016 0.17714 0.38166 0.0
O543 O 0.86609 0.13705 0.37644 0.0
O544 O 0.89688 0.12119 0.45019 0.0
O545 O 0.88359 0.09486 0.3815 0.0
O546 O 0.86988 0.11031 0.25693 0.0
O547 O 0.91061 0.09999 0.25337 0.0
O548 O 0.93276 0.10522 0.35149 0.0
O549 O 0.92881 0.14565 0.356 0.0
O550 O 0.8949 0.16249 0.27767 0.0
O551 O 0.90918 0.18974 0.3436 0.0
H552 H 0.88894 0.21161 0.5807 0.0
H553 H 0.88596 0.2005 0.6749 0.0
H554 H 0.92281 0.12698 0.64293 0.0
H555 H 0.92516 0.13798 0.54858 0.0
H556 H 0.91447 0.07488 0.15083 0.0
H557 H 0.91685 0.08511 0.05615 0.0
H558 H 0.86723 0.15131 0.08137 0.0
H559 H 0.86455 0.14071 0.17588 0.0
C560 C 0.10686 0.12578 0.81407 0.0
Eu561 Eu 0.12616 0.1125 0.72226 0.0
C562 C 0.1152 0.1236 0.87027 0.0
C563 C 0.09691 0.11746 0.90946 0.0
C564 C 0.10439 0.11468 0.96266 0.0
C565 C 0.1304 0.11804 0.97809 0.0
C566 C 0.14873 0.12415 0.93856 0.0
C567 C 0.14123 0.12687 0.88528 0.0
C568 C 0.12647 0.06468 0.67727 0.0
C569 C 0.18828 0.10157 0.74369 0.0
C570 C 0.18212 0.08245 0.53911 0.0
Eu571 Eu 0.16344 0.10412 0.62444 0.0
C572 C 0.17843 0.08593 0.48082 0.0
C573 C 0.19875 0.09524 0.44896 0.0
C574 C 0.19539 0.09854 0.39402 0.0
C575 C 0.17165 0.0924 0.36949 0.0
C576 C 0.15138 0.08297 0.40144 0.0
C577 C 0.1547 0.07978 0.45626 0.0
C578 C 0.15632 0.156 0.63817 0.0
C579 C 0.10139 0.11944 0.60773 0.0
O580 O 0.11991 0.14171 0.7836 0.0
O581 O 0.10116 0.10401 0.79006 0.0
O582 O 0.10579 0.07569 0.69617 0.0
O583 O 0.14604 0.07891 0.68532 0.0
O584 O 0.16474 0.10568 0.76234 0.0
O585 O 0.19323 0.09984 0.69183 0.0
O586 O 0.16231 0.07331 0.56567 0.0
O587 O 0.19433 0.10085 0.56504 0.0
O588 O 0.17098 0.14584 0.60196 0.0
O589 O 0.14675 0.13804 0.66622 0.0
O590 O 0.12265 0.10812 0.58879 0.0
O591 O 0.09938 0.12658 0.65813 0.0
H592 H 0.07679 0.11461 0.89883 0.0
H593 H 0.08978 0.1095 0.9916 0.0
H594 H 0.16885 0.12717 0.9488 0.0
H595 H 0.15581 0.13155 0.85592 0.0
H596 H 0.2173 0.09996 0.46656 0.0
H597 H 0.21151 0.10558 0.37063 0.0
H598 H 0.13272 0.07837 0.38417 0.0
H599 H 0.13853 0.07254 0.47931 0.0
C600 C 0.07993 0.82505 0.5084 0.0
Eu601 Eu 0.10186 0.84341 0.42318 0.0
C602 C 0.08353 0.82871 0.56663 0.0
C603 C 0.09183 0.80801 0.59861 0.0
C604 C 0.09536 0.81134 0.65349 0.0
C605 C 0.09049 0.83544 0.67779 0.0
C606 C 0.08206 0.8561 0.64571 0.0
C607 C 0.07864 0.85281 0.59095 0.0
C608 C 0.15382 0.85007 0.40962 0.0
C609 C 0.11698 0.9056 0.43888 0.0
C610 C 0.12479 0.8995 0.23291 0.0
Eu611 Eu 0.11105 0.8802 0.32442 0.0
C612 C 0.12311 0.89118 0.17666 0.0
C613 C 0.11779 0.90961 0.13726 0.0
C614 C 0.11522 0.90216 0.084 0.0
C615 C 0.11793 0.87602 0.06877 0.0
C616 C 0.12333 0.85756 0.10847 0.0
C617 C 0.12587 0.86505 0.16181 0.0
C618 C 0.06295 0.87991 0.36806 0.0
C619 C 0.10027 0.8178 0.30456 0.0
O620 O 0.07108 0.84499 0.48185 0.0
O621 O 0.09815 0.81257 0.48254 0.0
O622 O 0.14352 0.8354 0.44566 0.0
O623 O 0.13593 0.85973 0.38166 0.0
O624 O 0.10556 0.88442 0.45789 0.0
O625 O 0.12459 0.90734 0.38872 0.0
O626 O 0.1406 0.88659 0.26389 0.0
O627 O 0.10279 0.90492 0.25614 0.0
O628 O 0.07399 0.90055 0.34899 0.0
O629 O 0.07733 0.86042 0.36077 0.0
O630 O 0.1052 0.84106 0.28513 0.0
O631 O 0.09735 0.81343 0.35638 0.0
H632 H 0.09558 0.78919 0.58115 0.0
H633 H 0.1016 0.79493 0.67701 0.0
H634 H 0.07846 0.87502 0.66283 0.0
H635 H 0.07224 0.86927 0.56774 0.0
H636 H 0.11536 0.92982 0.14778 0.0
H637 H 0.11062 0.91687 0.05485 0.0
H638 H 0.12585 0.83734 0.0983 0.0
H639 H 0.12994 0.85038 0.19137 0.0
C640 C 0.38556 0.92626 0.26532 0.0
C641 C 0.38191 0.92907 0.32036 0.0
C642 C 0.38381 0.94764 0.23069 0.0
C643 C 0.37867 0.97267 0.25141 0.0
C644 C 0.37465 0.9756 0.30684 0.0
C645 C 0.37614 0.95381 0.34048 0.0
C646 C 0.38783 0.94344 0.17189 0.0
C647 C 0.36945 1.00191 0.33087 0.0
C648 C 0.40158 0.0313 0.17146 0.0
C649 C 0.37846 0.04042 0.149 0.0
C650 C 0.40187 0.00943 0.20486 0.0
C651 C 0.37853 0.99593 0.21552 0.0
C652 C 0.35516 0.00485 0.19224 0.0
C653 C 0.35538 0.02705 0.15956 0.0
C654 C 0.42718 1.00096 0.22934 0.0
C655 C 0.32989 0.99097 0.20195 0.0
H656 H 0.3899 0.9073 0.24912 0.0
H657 H 0.37341 0.95634 0.38286 0.0
H658 H 0.37122 0.95143 0.14927 0.0
H659 H 0.40542 0.95395 0.15863 0.0
H660 H 0.39006 0.92262 0.16163 0.0
H661 H 0.366 1.0009 0.37438 0.0
H662 H 0.38618 0.01491 0.32349 0.0
H663 H 0.35232 0.01092 0.31177 0.0
H664 H 0.41947 0.04161 0.16373 0.0
H665 H 0.33747 0.03397 0.1422 0.0
H666 H 0.43169 0.9808 0.21721 0.0
H667 H 0.42556 1.00113 0.27331 0.0
H668 H 0.44358 0.01365 0.21759 0.0
H669 H 0.33167 0.97032 0.19022 0.0
H670 H 0.31359 0.99978 0.17957 0.0
H671 H 0.32515 0.99141 0.24493 0.0
C672 C 0.95633 0.62803 0.70322 0.0
C673 C 0.93119 0.62374 0.72255 0.0
C674 C 0.97767 0.62987 0.73788 0.0
C675 C 0.97386 0.62768 0.79348 0.0
C676 C 0.94843 0.62404 0.81334 0.0
C677 C 0.9275 0.62195 0.77772 0.0
C678 C 0.00443 0.63345 0.71484 0.0
C679 C 0.94336 0.62188 0.87225 0.0
C680 C 0.03046 0.60417 0.87798 0.0
C681 C 0.04047 0.62738 0.89858 0.0
C682 C 0.00888 0.60405 0.84393 0.0
C683 C 0.99663 0.62771 0.83049 0.0
C684 C 0.00644 0.65122 0.8518 0.0
C685 C 0.02833 0.65079 0.88535 0.0
C686 C 0.99941 0.57856 0.8217 0.0
C687 C 0.99386 0.67684 0.83897 0.0
H688 H 0.95949 0.62938 0.66074 0.0
H689 H 0.90818 0.61887 0.79324 0.0
H690 H 0.0139 0.65069 0.73265 0.0
H691 H 0.01661 0.61641 0.72463 0.0
H692 H 0.00407 0.63583 0.67098 0.0
H693 H 0.92234 0.6214 0.88157 0.0
H694 H 0.95237 0.60392 0.88782 0.0
H695 H 0.95229 0.63844 0.8936 0.0
H696 H 0.03981 0.586 0.88776 0.0
H697 H 0.03594 0.66877 0.90126 0.0
H698 H 1.00016 0.57902 0.77765 0.0
H699 H 0.97893 0.57535 0.83319 0.0
H700 H 0.01109 0.56187 0.83586 0.0
H701 H 0.99488 0.68048 0.79559 0.0
H702 H 0.00323 0.69327 0.86005 0.0
H703 H 0.97307 0.67629 0.85 0.0
C704 C 0.64607 0.97794 0.15743 0.0
C705 C 0.62253 0.96603 0.14414 0.0
C706 C 0.64681 0.99967 0.19156 0.0
C707 C 0.62347 0.00962 0.21331 0.0
C708 C 0.5997 0.99756 0.19995 0.0
C709 C 0.59952 0.9761 0.16544 0.0
C710 C 0.67255 0.01198 0.2044 0.0
C711 C 0.57438 0.00717 0.22255 0.0
C712 C 0.62423 0.05008 0.34066 0.0
C713 C 0.62024 0.07531 0.32133 0.0
C714 C 0.62586 0.02867 0.306 0.0
C715 C 0.62371 0.03245 0.25038 0.0
C716 C 0.62032 0.05793 0.23055 0.0
C717 C 0.6185 0.07896 0.26614 0.0
C718 C 0.6292 1.00187 0.32907 0.0
C719 C 0.61812 0.06298 0.17165 0.0
H720 H 0.66391 0.9703 0.14106 0.0
H721 H 0.58124 0.96695 0.15568 0.0
H722 H 0.67228 0.03275 0.19305 0.0
H723 H 0.67612 0.0111 0.24782 0.0
H724 H 0.68886 1.00232 0.18356 0.0
H725 H 0.55757 0.99558 0.20856 0.0
H726 H 0.57497 0.00639 0.26659 0.0
H727 H 0.57127 0.02769 0.21118 0.0
H728 H 0.62555 0.04693 0.38314 0.0
H729 H 0.61564 0.0983 0.25058 0.0
H730 H 0.64625 0.99219 0.31108 0.0
H731 H 0.61201 0.98984 0.31949 0.0
H732 H 0.63171 1.00224 0.3729 0.0
H733 H 0.63465 0.05403 0.1503 0.0
H734 H 0.61765 0.08401 0.1623 0.0
H735 H 0.60017 0.05394 0.15611 0.0
C736 C 0.9762 0.40571 0.87427 0.0
C737 C 0.96673 0.38256 0.89613 0.0
C738 C 0.99762 0.40588 0.83977 0.0
C739 C 0.01028 0.38233 0.82707 0.0
C740 C 1.00096 0.35887 0.84944 0.0
C741 C 0.97922 0.35924 0.88347 0.0
C742 C 0.00654 0.43132 0.81644 0.0
C743 C 0.01395 0.33336 0.83739 0.0
C744 C 0.05073 0.38152 0.69981 0.0
C745 C 0.07582 0.38633 0.71904 0.0
C746 C 0.02937 0.3797 0.73448 0.0
C747 C 0.03309 0.38245 0.79003 0.0
C748 C 0.05845 0.3867 0.80978 0.0
C749 C 0.07941 0.38874 0.77416 0.0
C750 C 0.00269 0.37549 0.71149 0.0
C751 C 0.06344 0.38955 0.8686 0.0
H752 H 0.96659 0.42382 0.88354 0.0
H753 H 0.97204 0.3413 0.90029 0.0
H754 H 0.02695 0.43509 0.82778 0.0
H755 H 0.0058 0.43037 0.77242 0.0
H756 H 0.9945 0.4479 0.8299 0.0
H757 H 0.00477 0.31693 0.85875 0.0
H758 H 0.01314 0.32942 0.79409 0.0
H759 H 0.03469 0.33432 0.84869 0.0
H760 H 0.04763 0.3797 0.65739 0.0
H761 H 0.09866 0.39228 0.78965 0.0
H762 H 0.99022 0.39241 0.72067 0.0
H763 H 0.99349 0.35827 0.72988 0.0
H764 H 0.00311 0.37273 0.66772 0.0
H765 H 0.05384 0.40734 0.88357 0.0
H766 H 0.08442 0.39079 0.87794 0.0
H767 H 0.05503 0.3729 0.89046 0.0
C768 C 0.35992 0.47968 0.12889 0.0
C769 C 0.38273 0.46597 0.13986 0.0
C770 C 0.36006 0.50131 0.09452 0.0
C771 C 0.3835 0.50924 0.06991 0.0
C772 C 0.40647 0.49516 0.08043 0.0
C773 C 0.40584 0.47393 0.11547 0.0
C774 C 0.33517 0.51584 0.0849 0.0
C775 C 0.43182 0.5025 0.05459 0.0
C776 C 0.38205 0.5514 0.94473 0.0
C777 C 0.3887 0.57593 0.96481 0.0
C778 C 0.37997 0.52964 0.97841 0.0
C779 C 0.38427 0.53242 0.03381 0.0
C780 C 0.39049 0.55724 0.05438 0.0
C781 C 0.39279 0.57855 1.01974 0.0
C782 C 0.3737 0.50353 0.95454 0.0
C783 C 0.395 0.56128 0.11307 0.0
H784 H 0.342 0.47363 0.14757 0.0
H785 H 0.42353 0.46332 0.12329 0.0
H786 H 0.33748 0.53636 0.09718 0.0
H787 H 0.3305 0.5158 0.04188 0.0
H788 H 0.31861 0.50732 0.10698 0.0
H789 H 0.44778 0.4891 0.06553 0.0
H790 H 0.42968 0.50242 1.01072 0.0
H791 H 0.43738 0.52243 0.06651 0.0
H792 H 0.3789 0.54906 0.90243 0.0
H793 H 0.39774 0.59738 0.03593 0.0
H794 H 0.3563 0.49519 0.97389 0.0
H795 H 0.38994 0.48991 0.96175 0.0
H796 H 0.37017 0.50465 0.91106 0.0
H797 H 0.3781 0.55416 0.13602 0.0
H798 H 0.39832 0.58198 0.1232 0.0
H799 H 0.41209 0.54993 0.12607 0.0
C800 C 0.54827 0.62366 0.09852 0.0
C801 C 0.57351 0.61922 0.07985 0.0
C802 C 0.52712 0.6253 0.06335 0.0
C803 C 0.53121 0.62266 1.00791 0.0
C804 C 0.55669 0.61858 0.98874 0.0
C805 C 0.57745 0.61679 0.02485 0.0
C806 C 0.50029 0.62946 0.08562 0.0
C807 C 0.56204 0.61585 0.93002 0.0
C808 C 0.47426 0.60141 0.92149 0.0
C809 C 0.46554 0.62503 0.90057 0.0
C810 C 0.49557 0.60038 0.95629 0.0
C811 C 0.50874 0.62351 0.97021 0.0
C812 C 0.50017 0.6474 0.94864 0.0
C813 C 0.47864 0.64788 0.91426 0.0
C814 C 0.50376 0.57453 0.97872 0.0
C815 C 0.5137 0.67248 0.96209 0.0
H816 H 0.54491 0.62549 0.14086 0.0
H817 H 0.59682 0.61352 1.00982 0.0
H818 H 0.49148 0.64705 0.06794 0.0
H819 H 0.48768 0.61284 0.07499 0.0
H820 H 0.50036 0.63162 0.12954 0.0
H821 H 0.58304 0.61412 0.9213 0.0
H822 H 0.55206 0.59841 0.91434 0.0
H823 H 0.55425 0.63283 0.90826 0.0
H824 H 0.46414 0.58369 0.91133 0.0
H825 H 0.47204 0.66617 0.89803 0.0
H826 H 0.5026 0.575 0.02274 0.0
H827 H 0.52421 0.57052 0.96808 0.0
H828 H 0.49155 0.55834 0.96396 0.0
H829 H 0.51263 0.67606 1.0055 0.0
H830 H 0.50509 0.68932 0.94108 0.0
H831 H 0.5345 0.67116 0.95144 0.0
C832 C 0.64902 0.52838 0.13421 0.0
C833 C 0.62562 0.54058 0.14732 0.0
C834 C 0.64957 0.50694 0.09929 0.0
C835 C 0.6262 0.49765 0.07645 0.0
C836 C 0.60258 0.51006 0.0895 0.0
C837 C 0.60258 0.53115 0.1249 0.0
C838 C 0.67513 0.4942 0.08687 0.0
C839 C 0.57724 0.50119 0.06569 0.0
C840 C 0.62695 0.45807 0.94789 0.0
C841 C 0.62213 0.43282 0.96632 0.0
C842 C 0.62887 0.47919 0.98325 0.0
C843 C 0.6262 0.47508 0.03869 0.0
C844 C 0.62196 0.44956 0.05763 0.0
C845 C 0.6198 0.42886 1.02134 0.0
C846 C 0.63304 0.50607 0.96111 0.0
C847 C 0.61924 0.44415 0.11631 0.0
H848 H 0.66688 0.53553 0.15143 0.0
H849 H 0.58441 0.54056 0.13447 0.0
H850 H 0.67433 0.47337 0.09757 0.0
H851 H 0.67905 0.49532 0.0436 0.0
H852 H 0.69149 0.50337 0.10851 0.0
H853 H 0.5606 0.51309 0.07933 0.0
H854 H 0.57825 0.5022 1.0217 0.0
H855 H 0.57353 0.48068 0.07644 0.0
H856 H 0.62872 0.46148 0.90557 0.0
H857 H 0.61614 0.40952 0.03624 0.0
H858 H 0.65018 0.5152 0.97991 0.0
H859 H 0.61608 0.51844 0.97053 0.0
H860 H 0.63586 0.50595 0.91736 0.0
H861 H 0.63611 0.45209 0.13821 0.0
H862 H 0.61767 0.4231 0.12492 0.0
H863 H 0.60171 0.45394 0.13193 0.0
C864 C 0.42841 0.38738 1.01679 0.0
C865 C 0.43211 0.38516 0.07191 0.0
C866 C 0.44931 0.38525 0.98102 0.0
C867 C 0.47472 0.38113 1.00064 0.0
C868 C 0.47852 0.37852 0.05618 0.0
C869 C 0.45723 0.38042 0.09098 0.0
C870 C 0.44422 0.3879 0.92221 0.0
C871 C 0.50524 0.37446 0.07906 0.0
C872 C 0.52901 0.35815 0.90794 0.0
C873 C 0.54138 0.38155 0.89535 0.0
C874 C 0.5071 0.35769 0.94151 0.0
C875 C 0.49751 0.38113 0.96355 0.0
C876 C 0.51003 0.40475 0.95086 0.0
C877 C 0.5316 0.40468 0.91676 0.0
C878 C 0.49424 0.33211 0.95351 0.0
C879 C 0.50086 0.43017 0.97391 0.0
H880 H 0.40913 0.39087 1.00143 0.0
H881 H 0.46041 0.37874 0.13339 0.0
H882 H 0.45363 0.40574 0.90704 0.0
H883 H 0.45274 0.37127 0.9004 0.0
H884 H 0.42321 0.38891 0.91302 0.0
H885 H 0.50488 0.37176 0.12283 0.0
H886 H 0.51449 0.35726 0.06068 0.0
H887 H 0.51763 0.39144 0.06979 0.0
H888 H 0.53643 0.34022 0.89147 0.0
H889 H 0.54112 0.42285 0.90753 0.0
H890 H 0.47347 0.33294 0.94241 0.0
H891 H 0.49518 0.32814 0.99677 0.0
H892 H 0.50346 0.31574 0.93197 0.0
H893 H 0.48042 0.4337 0.9625 0.0
H894 H 0.51274 0.44684 0.96033 0.0
H895 H 0.50158 0.42937 1.01794 0.0
C896 C 0.88828 0.43008 0.77205 0.0
C897 C 0.88623 0.43384 0.82718 0.0
C898 C 0.88612 0.45095 0.73627 0.0
C899 C 0.88204 0.47639 0.75586 0.0
C900 C 0.87963 0.48029 0.81141 0.0
C901 C 0.88163 0.45902 0.84626 0.0
C902 C 0.88864 0.4458 0.67744 0.0
C903 C 0.87554 0.50706 0.83419 0.0
C904 C 0.90451 0.53339 0.67102 0.0
C905 C 0.88119 0.54274 0.64985 0.0
C906 C 0.90502 0.5119 0.70534 0.0
C907 C 0.88163 0.49909 0.7186 0.0
C908 C 0.858 0.50825 0.69678 0.0
C909 C 0.85805 0.53001 0.66284 0.0
C910 C 0.93062 0.50311 0.728 0.0
C911 C 0.83266 0.49512 0.70952 0.0
H912 H 0.89164 0.41076 0.75668 0.0
H913 H 0.88005 0.46225 0.88869 0.0
H914 H 0.87186 0.45412 0.65586 0.0
H915 H 0.9063 0.45541 0.66198 0.0
H916 H 0.88984 0.42477 0.66829 0.0
H917 H 0.87307 0.50677 0.87803 0.0
H918 H 0.89235 0.51956 0.82442 0.0
H919 H 0.85819 0.51616 0.81615 0.0
H920 H 0.92248 0.54318 0.66143 0.0
H921 H 0.83997 0.5371 0.64654 0.0
H922 H 0.9343 0.48263 0.71695 0.0
H923 H 0.93003 0.50408 0.77203 0.0
H924 H 0.94707 0.51511 0.71378 0.0
H925 H 0.83367 0.47431 0.69861 0.0
H926 H 0.81608 0.5041 0.68829 0.0
H927 H 0.82892 0.49613 0.75287 0.0
C928 C 0.52988 0.10401 0.36946 0.0
C929 C 0.53951 0.12713 0.39125 0.0
C930 C 0.5079 0.10382 0.33644 0.0
C931 C 0.49477 0.12729 0.3253 0.0
C932 C 0.50428 0.15073 0.34756 0.0
C933 C 0.52664 0.15041 0.37993 0.0
C934 C 0.49887 0.07841 0.31304 0.0
C935 C 0.4908 0.17615 0.33724 0.0
C936 C 0.45218 0.12812 0.2009 0.0
C937 C 0.42753 0.12257 0.22162 0.0
C938 C 0.47405 0.13022 0.23417 0.0
C939 C 0.47132 0.12711 0.28987 0.0
C940 C 0.44636 0.12225 0.31118 0.0
C941 C 0.42489 0.11984 0.2769 0.0
C942 C 0.50026 0.135 0.20946 0.0
C943 C 0.44238 0.1191 0.37024 0.0
H944 H 0.53979 0.08595 0.37764 0.0
H945 H 0.53395 0.16833 0.39665 0.0
H946 H 0.47876 0.07428 0.32594 0.0
H947 H 0.49872 0.07966 0.26903 0.0
H948 H 0.51138 0.06191 0.32495 0.0
H949 H 0.50017 0.19256 0.35841 0.0
H950 H 0.4908 0.18037 0.29404 0.0
H951 H 0.47028 0.17489 0.35003 0.0
H952 H 0.45458 0.13017 0.15834 0.0
H953 H 0.40599 0.11571 0.29356 0.0
H954 H 0.51311 0.11819 0.21714 0.0
H955 H 0.50953 0.15221 0.2278 0.0
H956 H 0.49906 0.13808 0.16586 0.0
H957 H 0.45266 0.10153 0.38429 0.0
H958 H 0.42159 0.1173 0.38094 0.0
H959 H 0.45071 0.1359 0.39181 0.0
C960 C 0.12608 0.55093 0.84448 0.0
C961 C 0.12071 0.57598 0.82558 0.0
C962 C 0.12813 0.52962 0.80961 0.0
C963 C 0.12506 0.53333 0.75413 0.0
C964 C 0.12017 0.55865 0.73469 0.0
C965 C 0.11789 0.57954 0.77053 0.0
C966 C 0.133 0.50298 0.83231 0.0
C967 C 0.117 0.56366 0.67596 0.0
C968 C 0.1492 0.47998 0.66011 0.0
C969 C 0.12617 0.46689 0.64775 0.0
C970 C 0.14916 0.50177 0.69414 0.0
C971 C 0.12558 0.51055 0.71687 0.0
C972 C 0.10232 0.49729 0.70445 0.0
C973 C 0.10289 0.47584 0.6699 0.0
C974 C 0.17437 0.51539 0.70586 0.0
C975 C 0.07678 0.50557 0.72818 0.0
H976 H 0.12823 0.54781 0.88682 0.0
H977 H 0.11378 0.59872 0.75525 0.0
H978 H 0.11639 0.4901 0.82312 0.0
H979 H 0.15039 0.49424 0.81372 0.0
H980 H 0.13581 0.50339 0.87607 0.0
H981 H 0.11472 0.5846 0.66691 0.0
H982 H 0.13403 0.55616 0.65394 0.0
H983 H 0.09973 0.55319 0.66089 0.0
H984 H 0.16725 0.47321 0.64311 0.0
H985 H 0.085 0.46577 0.66089 0.0
H986 H 0.17851 0.51456 0.74907 0.0
H987 H 0.17287 0.53615 0.69486 0.0
H988 H 0.19091 0.50668 0.68405 0.0
H989 H 0.07787 0.50479 0.77218 0.0
H990 H 0.06045 0.49315 0.71485 0.0
H991 H 0.07251 0.52592 0.71707 0.0
C992 C 0.5457 0.88107 0.19539 0.0
C993 C 0.57088 0.8864 0.21351 0.0
C994 C 0.52466 0.87937 0.23088 0.0
C995 C 0.52878 0.88291 0.28612 0.0
C996 C 0.55422 0.88782 0.30477 0.0
C997 C 0.57486 0.88961 0.26836 0.0
C998 C 0.49788 0.87426 0.2091 0.0
C999 C 0.55963 0.89148 0.36325 0.0
C1000 C 0.47155 0.90491 0.37098 0.0
C1001 C 0.46297 0.88156 0.3934 0.0
C1002 C 0.4929 0.9056 0.33627 0.0
C1003 C 0.50635 0.88241 0.32402 0.0
C1004 C 0.49803 0.85882 0.34738 0.0
C1005 C 0.47643 0.85867 0.38166 0.0
C1006 C 0.50082 0.93115 0.31199 0.0
C1007 C 0.51182 0.83368 0.33577 0.0
H1008 H 0.54229 0.87859 0.15321 0.0
H1009 H 0.59418 0.89358 0.28302 0.0
H1010 H 0.48939 0.85687 0.22825 0.0
H1011 H 0.485 0.89085 0.21843 0.0
H1012 H 0.49795 0.87125 0.16539 0.0
H1013 H 0.58062 0.89368 0.37167 0.0
H1014 H 0.54942 0.90898 0.37794 0.0
H1015 H 0.55215 0.8747 0.38611 0.0
H1016 H 0.46119 0.92267 0.37971 0.0
H1017 H 0.46994 0.84058 0.39902 0.0
H1018 H 0.49956 0.92994 0.26805 0.0
H1019 H 0.52125 0.93554 0.32215 0.0
H1020 H 0.48849 0.94746 0.32574 0.0
H1021 H 0.51039 0.82914 0.29278 0.0
H1022 H 0.50365 0.8172 0.35864 0.0
H1023 H 0.5327 0.83555 0.34545 0.0
C1024 C 0.8569 0.98093 0.63566 0.0
C1025 C 0.87979 0.96772 0.64839 0.0
C1026 C 0.85721 1.00271 0.60184 0.0
C1027 C 0.88098 0.01147 0.57999 0.0
C1028 C 0.90416 0.9983 0.59331 0.0
C1029 C 0.90329 0.97676 0.62751 0.0
C1030 C 0.83207 0.0162 0.58904 0.0
C1031 C 0.92989 0.0067 0.57067 0.0
C1032 C 0.88095 0.05107 0.4517 0.0
C1033 C 0.88574 0.07629 0.47033 0.0
C1034 C 0.87899 0.02993 0.4869 0.0
C1035 C 0.88167 0.03401 0.54235 0.0
C1036 C 0.88598 0.0595 0.5615 0.0
C1037 C 0.88807 0.08024 0.52537 0.0
C1038 C 0.87456 1.00311 0.46461 0.0
C1039 C 0.88872 0.06485 0.62022 0.0
H1040 H 0.83869 0.97409 0.65182 0.0
H1041 H 0.92106 0.96661 0.63701 0.0
H1042 H 0.83352 0.03709 0.59902 0.0
H1043 H 0.82812 0.0148 0.54581 0.0
H1044 H 0.81542 0.00774 0.61092 0.0
H1045 H 0.94618 0.99461 0.58528 0.0
H1046 H 0.92935 0.00551 0.52666 0.0
H1047 H 0.93379 0.0272 0.58127 0.0
H1048 H 0.87915 0.04769 0.40936 0.0
H1049 H 0.89159 0.09959 0.5404 0.0
H1050 H 0.85707 0.99432 0.48271 0.0
H1051 H 0.8912 0.99045 0.47472 0.0
H1052 H 0.87215 0.00323 0.42075 0.0
H1053 H 0.87185 0.0569 0.64209 0.0
H1054 H 0.89029 0.08589 0.62896 0.0
H1055 H 0.90625 0.05503 0.63573 0.0
C1056 C 0.08113 0.11985 0.51647 0.0
C1057 C 0.07868 0.12319 0.57165 0.0
C1058 C 0.05961 0.12222 0.48234 0.0
C1059 C 0.03479 0.12769 0.50371 0.0
C1060 C 0.03225 0.13142 0.55928 0.0
C1061 C 0.05416 0.12931 0.5924 0.0
C1062 C 0.06337 0.11837 0.42338 0.0
C1063 C 0.00617 0.13682 0.58406 0.0
C1064 C 0.97968 0.15076 0.413 0.0
C1065 C 0.96657 0.12752 0.40247 0.0
C1066 C 1.00204 0.15116 0.44538 0.0
C1067 C 0.01127 0.12783 0.46852 0.0
C1068 C 0.99782 0.10441 0.45838 0.0
C1069 C 0.97587 0.10452 0.42528 0.0
C1070 C 0.01588 0.1765 0.45462 0.0
C1071 C 0.00649 0.07915 0.48284 0.0
H1072 H 0.09992 0.11524 0.49979 0.0
H1073 H 0.05189 0.13182 0.63489 0.0
H1074 H 0.05259 0.10093 0.41009 0.0
H1075 H 0.05543 0.13517 0.40127 0.0
H1076 H 0.08408 0.11593 0.41258 0.0
H1077 H 0.00755 0.14036 0.62751 0.0
H1078 H 0.99711 0.15395 0.5651 0.0
H1079 H 0.99306 0.12011 0.57723 0.0
H1080 H 0.97262 0.16859 0.39549 0.0
H1081 H 0.96575 0.08649 0.41775 0.0
H1082 H 0.03631 0.17488 0.44144 0.0
H1083 H 0.01615 0.18109 0.49768 0.0
H1084 H 0.00661 0.19283 0.43311 0.0
H1085 H 0.02649 0.07455 0.46987 0.0
H1086 H 0.99367 0.06271 0.47185 0.0
H1087 H 0.00681 0.0809 0.52678 0.0
C1088 C 0.12709 0.95291 0.45413 0.0
C1089 C 0.1203 0.92852 0.47474 0.0
C1090 C 0.12895 0.97494 0.48713 0.0
C1091 C 0.12421 0.97264 0.54243 0.0
C1092 C 0.11788 0.94799 0.56364 0.0
C1093 C 0.11585 0.92636 0.52964 0.0
C1094 C 0.13541 1.00084 0.46256 0.0
C1095 C 0.11295 0.94449 0.62231 0.0
C1096 C 0.14873 0.02659 0.63439 0.0
C1097 C 0.12611 0.04092 0.64366 0.0
C1098 C 0.1484 0.00426 0.60197 0.0
C1099 C 0.12495 0.99616 0.57768 0.0
C1100 C 0.10209 0.01068 0.58692 0.0
C1101 C 0.10292 0.03267 0.62006 0.0
C1102 C 0.17317 0.98931 0.59372 0.0
C1103 C 0.07675 0.00314 0.56133 0.0
H1104 H 0.13046 0.95496 0.41185 0.0
H1105 H 0.11068 0.90769 0.54625 0.0
H1106 H 0.11914 0.01454 0.46887 0.0
H1107 H 0.15269 0.00934 0.4821 0.0
H1108 H 0.13922 0.99935 0.41923 0.0
H1109 H 0.10935 0.92391 0.63299 0.0
H1110 H 0.12977 0.95164 0.64549 0.0
H1111 H 0.0959 0.95612 0.63448 0.0
H1112 H 0.1667 0.03282 0.65263 0.0
H1113 H 0.08538 0.04373 0.62676 0.0
H1114 H 0.17826 0.98906 0.55091 0.0
H1115 H 0.17047 0.96888 0.60628 0.0
H1116 H 0.18964 0.99772 0.6163 0.0
H1117 H 0.07889 1.00292 0.51747 0.0
H1118 H 0.06079 0.01661 0.57192 0.0
H1119 H 0.0712 0.98328 0.57373 0.0
C1120 C 0.02505 0.85779 0.41157 0.0
C1121 C 0.03937 0.88039 0.40195 0.0
C1122 C 0.00294 0.8582 0.44448 0.0
C1123 C 0.99509 0.88173 0.46885 0.0
C1124 C 0.00958 0.90457 0.4592 0.0
C1125 C 0.03135 0.90366 0.4256 0.0
C1126 C 0.98798 0.83345 0.45319 0.0
C1127 C 1.00227 0.92999 0.48485 0.0
C1128 C 0.92573 0.89117 0.51828 0.0
C1129 C 0.9282 0.88681 0.57315 0.0
C1130 C 0.94711 0.88894 0.48382 0.0
C1131 C 0.97182 0.88256 0.50457 0.0
C1132 C 0.97443 0.87793 0.55985 0.0
C1133 C 0.95262 0.87993 0.5933 0.0
C1134 C 0.94328 0.89372 0.42517 0.0
C1135 C 1.00042 0.87142 0.58388 0.0
H1136 H 0.03113 0.83977 0.39328 0.0
H1137 H 0.04242 0.92118 0.41861 0.0
H1138 H 0.98802 0.8284 0.49602 0.0
H1139 H 0.9675 0.83618 0.44116 0.0
H1140 H 0.99619 0.81693 0.43044 0.0
H1141 H 0.01571 0.94592 0.47392 0.0
H1142 H 0.98238 0.93557 0.47283 0.0
H1143 H 1.00227 0.9279 0.52872 0.0
H1144 H 0.90703 0.8964 0.50205 0.0
H1145 H 0.95488 0.87662 0.63556 0.0
H1146 H 0.95052 0.87695 0.40192 0.0
H1147 H 0.95463 0.91093 0.41274 0.0
H1148 H 0.92263 0.89702 0.41483 0.0
H1149 H 0.00873 0.85407 0.56423 0.0
H1150 H 0.99916 0.86767 0.62726 0.0
H1151 H 0.01413 0.88766 0.57719 0.0
C1152 C 0.36219 0.19739 0.10799 0.0
C1153 C 0.35695 0.18386 0.15499 0.0
C1154 C 0.36438 0.22471 0.10832 0.0
C1155 C 0.36169 0.23858 0.15686 0.0
C1156 C 0.35808 0.22465 0.20466 0.0
C1157 C 0.35553 0.19762 0.203 0.0
C1158 C 0.3681 0.23881 0.05644 0.0
C1159 C 0.35552 0.23836 0.25746 0.0
C1160 C 0.37921 0.31036 0.17114 0.0
C1161 C 0.35475 0.32213 0.16838 0.0
C1162 C 0.38196 0.28326 0.16611 0.0
C1163 C 0.35977 0.26756 0.15776 0.0
C1164 C 0.3351 0.27946 0.1547 0.0
C1165 C 0.3329 0.30645 0.16037 0.0
C1166 C 0.40855 0.27138 0.17038 0.0
C1167 C 0.31087 0.26361 0.14596 0.0
H1168 H 0.36323 0.18682 0.07082 0.0
H1169 H 0.35178 0.18721 0.23961 0.0
H1170 H 0.35007 0.24938 0.04622 0.0
H1171 H 0.38377 0.2534 0.06005 0.0
H1172 H 0.37283 0.22536 0.02335 0.0
H1173 H 0.35563 0.22464 0.29145 0.0
H1174 H 0.37152 0.25246 0.2629 0.0
H1175 H 0.3371 0.2494 0.25843 0.0
H1176 H 0.3962 0.32235 0.17703 0.0
H1177 H 0.31392 0.31533 0.15796 0.0
H1178 H 0.41264 0.25932 0.13485 0.0
H1179 H 0.40937 0.2584 0.20546 0.0
H1180 H 0.42399 0.28626 0.17429 0.0
H1181 H 0.31304 0.25131 0.11006 0.0
H1182 H 0.29339 0.2759 0.14112 0.0
H1183 H 0.30775 0.25048 0.18024 0.0
C1184 C 0.30906 0.63316 0.93821 0.0
C1185 C 0.32248 0.64098 0.89241 0.0
C1186 C 0.28197 0.63372 0.94071 0.0
C1187 C 0.26763 0.64193 0.89594 0.0
C1188 C 0.28095 0.64842 0.84835 0.0
C1189 C 0.30831 0.64799 0.84717 0.0
C1190 C 0.26879 0.62678 0.99239 0.0
C1191 C 0.26634 0.65676 0.7994 0.0
C1192 C 0.19514 0.62749 0.90122 0.0
C1193 C 0.18501 0.65143 0.91762 0.0
C1194 C 0.22187 0.62432 0.89217 0.0
C1195 C 0.23896 0.64541 0.90084 0.0
C1196 C 0.22878 0.6695 0.91812 0.0
C1197 C 0.20196 0.67226 0.92578 0.0
C1198 C 0.23181 0.59844 0.87311 0.0
C1199 C 0.24627 0.69233 0.9291 0.0
H1200 H 0.31986 0.62742 0.97323 0.0
H1201 H 0.31854 0.65398 0.81164 0.0
H1202 H 0.25888 0.64411 1.00873 0.0
H1203 H 0.2538 0.61176 0.98563 0.0
H1204 H 0.28264 0.6195 0.02266 0.0
H1205 H 0.27916 0.65831 0.76409 0.0
H1206 H 0.25055 0.64284 0.79052 0.0
H1207 H 0.25725 0.67592 0.80656 0.0
H1208 H 0.18211 0.6114 0.89407 0.0
H1209 H 0.19419 0.69081 0.93822 0.0
H1210 H 0.24499 0.58999 0.90325 0.0
H1211 H 0.2432 0.601 0.8361 0.0
H1212 H 0.21591 0.58445 0.8653 0.0
H1213 H 0.26024 0.6873 0.96096 0.0
H1214 H 0.23531 0.70982 0.94155 0.0
H1215 H 0.25767 0.69712 0.89308 0.0
C1216 C 0.62707 0.81129 0.15306 0.0
C1217 C 0.6453 0.82113 0.11702 0.0
C1218 C 0.62605 0.78462 0.16488 0.0
C1219 C 0.64308 0.76725 0.13871 0.0
C1220 C 0.66062 0.77706 0.10027 0.0
C1221 C 0.66189 0.80392 0.09077 0.0
C1222 C 0.60767 0.77526 0.20735 0.0
C1223 C 0.67849 0.75925 0.06998 0.0
C1224 C 0.66354 0.70285 0.20038 0.0
C1225 C 0.64708 0.68524 0.17483 0.0
C1226 C 0.66159 0.72966 0.19087 0.0
C1227 C 0.64347 0.73905 0.15312 0.0
C1228 C 0.6266 0.72127 0.12763 0.0
C1229 C 0.62831 0.69466 0.13947 0.0
C1230 C 0.67934 0.7479 0.22043 0.0
C1231 C 0.60762 0.73018 0.08587 0.0
H1232 H 0.61453 0.82462 0.17418 0.0
H1233 H 0.67607 0.81154 0.06312 0.0
H1234 H 0.5953 0.75942 0.19182 0.0
H1235 H 0.6189 0.76724 0.24113 0.0
H1236 H 0.595 0.79101 0.22248 0.0
H1237 H 0.68896 0.7695 0.03768 0.0
H1238 H 0.69296 0.75078 0.09748 0.0
H1239 H 0.66736 0.74296 0.05241 0.0
H1240 H 0.67813 0.69557 0.22751 0.0
H1241 H 0.61585 0.68103 0.1189 0.0
H1242 H 0.66801 0.76391 0.23848 0.0
H1243 H 0.69333 0.75673 0.19235 0.0
H1244 H 0.69037 0.73791 0.25228 0.0
H1245 H 0.59501 0.74571 0.1019 0.0
H1246 H 0.5952 0.71413 0.07117 0.0
H1247 H 0.61835 0.7385 0.05169 0.0
C1248 C 0.81217 0.37666 0.88698 0.0
C1249 C 0.82243 0.35791 0.92134 0.0
C1250 C 0.7854 0.37782 0.87658 0.0
C1251 C 0.76838 0.36041 0.90262 0.0
C1252 C 0.77865 0.34226 0.93933 0.0
C1253 C 0.80559 0.34087 0.94733 0.0
C1254 C 0.77552 0.39684 0.83583 0.0
C1255 C 0.76122 0.32396 0.96945 0.0
C1256 C 0.69605 0.37574 0.90714 0.0
C1257 C 0.68599 0.3576 0.8711 0.0
C1258 C 0.7228 0.37701 0.91762 0.0
C1259 C 0.74001 0.36037 0.89001 0.0
C1260 C 0.72993 0.34287 0.85169 0.0
C1261 C 0.703 0.34131 0.8436 0.0
C1262 C 0.73249 0.39529 0.96006 0.0
C1263 C 0.74755 0.32543 0.81992 0.0
H1264 H 0.82522 0.38958 0.86609 0.0
H1265 H 0.81355 0.32631 0.97372 0.0
H1266 H 0.76676 0.38611 0.80207 0.0
H1267 H 0.76013 0.40918 0.85321 0.0
H1268 H 0.79112 0.40956 0.82024 0.0
H1269 H 0.77189 0.31292 1.00035 0.0
H1270 H 0.74529 0.33487 0.98881 0.0
H1271 H 0.75225 0.30996 0.94152 0.0
H1272 H 0.68286 0.38805 0.92918 0.0
H1273 H 0.69519 0.32721 0.81594 0.0
H1274 H 0.74773 0.40816 0.94382 0.0
H1275 H 0.74137 0.38398 0.99281 0.0
H1276 H 0.71675 0.40748 0.97679 0.0
H1277 H 0.76335 0.33693 0.80158 0.0
H1278 H 0.737 0.31491 0.78805 0.0
H1279 H 0.75669 0.31098 0.84655 0.0
C1280 C 0.83158 0.70246 0.64023 0.0
C1281 C 0.85319 0.6869 0.62914 0.0
C1282 C 0.8338 0.72949 0.64488 0.0
C1283 C 0.85819 0.74152 0.63749 0.0
C1284 C 0.88013 0.72594 0.62614 0.0
C1285 C 0.87739 0.6988 0.62234 0.0
C1286 C 0.80988 0.74522 0.65708 0.0
C1287 C 0.90637 0.73798 0.61715 0.0
C1288 C 0.85213 0.81102 0.59034 0.0
C1289 C 0.85566 0.82523 0.63734 0.0
C1290 C 0.85442 0.78397 0.58942 0.0
C1291 C 0.85993 0.77049 0.63701 0.0
C1292 C 0.86453 0.78479 0.68439 0.0
C1293 C 0.86257 0.81212 0.68391 0.0
C1294 C 0.84976 0.76976 0.53778 0.0
C1295 C 0.87025 0.77117 0.73605 0.0
H1296 H 0.81282 0.69347 0.64582 0.0
H1297 H 0.89418 0.68689 0.61399 0.0
H1298 H 0.81338 0.7579 0.69198 0.0
H1299 H 0.80526 0.75798 0.62292 0.0
H1300 H 0.79276 0.73284 0.66539 0.0
H1301 H 0.92174 0.72319 0.61148 0.0
H1302 H 0.90575 0.75056 0.58145 0.0
H1303 H 0.91168 0.75047 0.65137 0.0
H1304 H 0.84709 0.82111 0.55401 0.0
H1305 H 0.86526 0.82304 0.72029 0.0
H1306 H 0.83148 0.75855 0.54048 0.0
H1307 H 0.8656 0.75576 0.53007 0.0
H1308 H 0.84832 0.78316 0.50339 0.0
H1309 H 0.85278 0.76045 0.74926 0.0
H1310 H 0.87597 0.78494 0.76792 0.0
H1311 H 0.88594 0.75676 0.73056 0.0
C1312 C 0.80495 0.16782 0.34335 0.0
C1313 C 0.82161 0.15128 0.37115 0.0
C1314 C 0.77793 0.16638 0.35024 0.0
C1315 C 0.76734 0.14876 0.38765 0.0
C1316 C 0.78418 0.13186 0.41554 0.0
C1317 C 0.81105 0.13302 0.40625 0.0
C1318 C 0.76074 0.1841 0.31816 0.0
C1319 C 0.77396 0.11343 0.45709 0.0
C1320 C 0.70128 0.16832 0.44283 0.0
C1321 C 0.68459 0.15147 0.41585 0.0
C1322 C 0.72829 0.16685 0.4358 0.0
C1323 C 0.73883 0.14884 0.39907 0.0
C1324 C 0.72194 0.13165 0.37194 0.0
C1325 C 0.69508 0.13286 0.38139 0.0
C1326 C 0.74552 0.18491 0.46708 0.0
C1327 C 0.7321 0.1128 0.3311 0.0
H1328 H 0.81312 0.18202 0.3164 0.0
H1329 H 0.82394 0.12051 0.42855 0.0
H1330 H 0.74504 0.17281 0.29889 0.0
H1331 H 0.75145 0.1985 0.34475 0.0
H1332 H 0.77168 0.19469 0.28699 0.0
H1333 H 0.78944 0.10105 0.47418 0.0
H1334 H 0.76481 0.12462 0.48974 0.0
H1335 H 0.7588 0.10074 0.43987 0.0
H1336 H 0.69315 0.18277 0.46932 0.0
H1337 H 0.68216 0.12009 0.35975 0.0
H1338 H 0.75486 0.19897 0.43986 0.0
H1339 H 0.76118 0.17381 0.48686 0.0
H1340 H 0.73462 0.19588 0.49776 0.0
H1341 H 0.74131 0.12364 0.29806 0.0
H1342 H 0.71657 0.1003 0.31443 0.0
H1343 H 0.7472 0.10023 0.34882 0.0
C1344 C 0.12887 0.31068 0.62251 0.0
C1345 C 0.1533 0.32243 0.6268 0.0
C1346 C 0.12597 0.28359 0.62756 0.0
C1347 C 0.14797 0.26788 0.63753 0.0
C1348 C 0.17259 0.27977 0.64236 0.0
C1349 C 0.17495 0.30674 0.63661 0.0
C1350 C 0.09944 0.27174 0.6214 0.0
C1351 C 0.19662 0.26391 0.6529 0.0
C1352 C 0.14435 0.19752 0.68601 0.0
C1353 C 0.15024 0.18409 0.63916 0.0
C1354 C 0.1424 0.22487 0.686 0.0
C1355 C 0.146 0.23889 0.63791 0.0
C1356 C 0.15035 0.22507 0.59019 0.0
C1357 C 0.15263 0.19802 0.59155 0.0
C1358 C 0.13787 0.23884 0.7378 0.0
C1359 C 0.15392 0.23893 0.53784 0.0
H1360 H 0.11202 0.32267 0.61522 0.0
H1361 H 0.1939 0.3156 0.64026 0.0
H1362 H 0.09913 0.25894 0.58596 0.0
H1363 H 0.09482 0.25951 0.65636 0.0
H1364 H 0.08409 0.28663 0.61687 0.0
H1365 H 0.214 0.27621 0.6593 0.0
H1366 H 0.19376 0.25154 0.68845 0.0
H1367 H 0.2004 0.25086 0.61874 0.0
H1368 H 0.14256 0.18685 0.72289 0.0
H1369 H 0.15688 0.18771 0.55502 0.0
H1370 H 0.12228 0.25344 0.73332 0.0
H1371 H 0.15573 0.24937 0.7494 0.0
H1372 H 0.13258 0.22531 0.77036 0.0
H1373 H 0.13802 0.253 0.53132 0.0
H1374 H 0.15448 0.2253 0.50365 0.0
H1375 H 0.17233 0.25 0.53852 0.0
C1376 C 0.30897 0.87299 0.42626 0.0
C1377 C 0.32017 0.85507 0.39127 0.0
C1378 C 0.28179 0.87611 0.42846 0.0
C1379 C 0.26557 0.86084 0.39521 0.0
C1380 C 0.277 0.84323 0.3591 0.0
C1381 C 0.30399 0.84065 0.35754 0.0
C1382 C 0.27038 0.89527 0.46717 0.0
C1383 C 0.26068 0.82625 0.32338 0.0
C1384 C 0.19849 0.84 0.43916 0.0
C1385 C 0.1822 0.85436 0.40564 0.0
C1386 C 0.22546 0.84285 0.43767 0.0
C1387 C 0.23675 0.86069 0.40187 0.0
C1388 C 0.2204 0.87589 0.36882 0.0
C1389 C 0.19325 0.87248 0.37093 0.0
C1390 C 0.24192 0.82592 0.47312 0.0
C1391 C 0.23165 0.89528 0.33044 0.0
H1392 H 0.32137 0.8844 0.45195 0.0
H1393 H 0.31243 0.82685 0.33007 0.0
H1394 H 0.25617 0.90793 0.44674 0.0
H1395 H 0.25982 0.88474 0.49888 0.0
H1396 H 0.28545 0.90759 0.48601 0.0
H1397 H 0.27258 0.81475 0.29515 0.0
H1398 H 0.24912 0.81264 0.34791 0.0
H1399 H 0.24688 0.83821 0.30026 0.0
H1400 H 0.19015 0.82605 0.46639 0.0
H1401 H 0.18076 0.88386 0.34543 0.0
H1402 H 0.25561 0.83795 0.49644 0.0
H1403 H 0.2536 0.8125 0.44838 0.0
H1404 H 0.23012 0.81422 0.50114 0.0
H1405 H 0.24572 0.90803 0.35112 0.0
H1406 H 0.21647 0.90749 0.31176 0.0
H1407 H 0.24234 0.88496 0.2986 0.0
C1408 C 0.23136 0.11391 0.78485 0.0
C1409 C 0.20906 0.09839 0.78471 0.0
C1410 C 0.24845 0.11416 0.82898 0.0
C1411 C 0.24365 0.0979 0.8736 0.0
C1412 C 0.22162 0.0815 0.87246 0.0
C1413 C 0.20445 0.08236 0.82885 0.0
C1414 C 0.27108 0.13264 0.82881 0.0
C1415 C 0.21597 0.06309 0.91757 0.0
C1416 C 0.3016 0.08302 0.96413 0.0
C1417 C 0.29667 0.09826 1.00933 0.0
C1418 C 0.2843 0.0822 0.92077 0.0
C1419 C 0.2617 0.0978 0.92108 0.0
C1420 C 0.25648 0.11313 0.96694 0.0
C1421 C 0.27377 0.11284 1.01075 0.0
C1422 C 0.29042 0.06471 0.87432 0.0
C1423 C 0.23297 0.1304 0.96931 0.0
H1424 H 0.23473 0.12686 0.75168 0.0
H1425 H 0.1871 0.07053 0.82945 0.0
H1426 H 0.2698 0.14576 0.86369 0.0
H1427 H 0.28951 0.12178 0.83236 0.0
H1428 H 0.27182 0.14455 0.7921 0.0
H1429 H 0.1999 0.04955 0.90799 0.0
H1430 H 0.23348 0.05159 0.92736 0.0
H1431 H 0.21057 0.07419 0.95361 0.0
H1432 H 0.31929 0.07176 0.96251 0.0
H1433 H 0.27001 0.12503 0.04498 0.0
H1434 H 0.29471 0.07653 0.83863 0.0
H1435 H 0.27343 0.05237 0.8648 0.0
H1436 H 0.30732 0.052 0.88227 0.0
H1437 H 0.23122 0.14192 0.93226 0.0
H1438 H 0.23359 0.14386 1.00375 0.0
H1439 H 0.21531 0.11834 0.97282 0.0
C1440 C 0.10728 0.73195 0.03676 0.0
C1441 C 0.09853 0.70643 0.04393 0.0
C1442 C 0.10692 0.7501 0.07919 0.0
C1443 C 0.097 0.74284 0.12985 0.0
C1444 C 0.0871 0.71741 0.13624 0.0
C1445 C 0.08836 0.69958 0.09381 0.0
C1446 C 0.11813 0.77674 0.07035 0.0
C1447 C 0.07551 0.70872 0.18834 0.0
C1448 C 0.11788 0.77848 0.25753 0.0
C1449 C 0.0978 0.79642 0.26479 0.0
C1450 C 0.11802 0.76124 0.21371 0.0
C1451 C 0.09733 0.76148 0.17644 0.0
C1452 C 0.07669 0.7792 0.18458 0.0
C1453 C 0.07745 0.7967 0.22783 0.0
C1454 C 0.14075 0.74325 0.20643 0.0
C1455 C 0.0538 0.77982 0.14735 0.0
H1456 H 0.11546 0.73741 0.99873 0.0
H1457 H 0.08137 0.68002 0.09981 0.0
H1458 H 0.1041 0.79183 0.08264 0.0
H1459 H 0.13565 0.77919 0.09539 0.0
H1460 H 0.12351 0.78009 0.02817 0.0
H1461 H 0.06496 0.69005 0.18443 0.0
H1462 H 0.0911 0.70619 0.21818 0.0
H1463 H 0.06192 0.72355 0.2039 0.0
H1464 H 0.13407 0.77869 0.28494 0.0
H1465 H 0.06216 0.81091 0.23249 0.0
H1466 H 0.14971 0.74656 0.16692 0.0
H1467 H 0.13412 0.72282 0.20749 0.0
H1468 H 0.15575 0.74599 0.23756 0.0
H1469 H 0.0602 0.78566 0.10704 0.0
H1470 H 0.03858 0.79352 0.16086 0.0
H1471 H 0.04519 0.76018 0.14395 0.0
C1472 C 0.69707 0.89032 0.94502 0.0
C1473 C 0.70049 0.90378 0.99323 0.0
C1474 C 0.71548 0.89139 0.90377 0.0
C1475 C 0.73806 0.90671 0.90967 0.0
C1476 C 0.74167 0.92054 0.95807 0.0
C1477 C 0.72302 0.91875 0.99933 0.0
C1478 C 0.71079 0.87575 0.85391 0.0
C1479 C 0.76526 0.93733 0.96618 0.0
C1480 C 0.79738 0.88798 0.82684 0.0
C1481 C 0.79601 0.90481 0.78293 0.0
C1482 C 0.77888 0.88853 0.86793 0.0
C1483 C 0.75843 0.90679 0.86645 0.0
C1484 C 0.7569 0.92399 0.82237 0.0
C1485 C 0.77548 0.9226 0.78089 0.0
C1486 C 0.78111 0.8692 0.91274 0.0
C1487 C 0.73582 0.94413 0.81943 0.0
H1488 H 0.67996 0.87851 0.93951 0.0
H1489 H 0.72592 0.92939 0.036 0.0
H1490 H 0.70832 0.88895 0.81954 0.0
H1491 H 0.72773 0.86321 0.84538 0.0
H1492 H 0.69331 0.86332 0.857 0.0
H1493 H 0.76463 0.94802 1.00449 0.0
H1494 H 0.78298 0.92521 0.96545 0.0
H1495 H 0.76692 0.95151 0.93324 0.0
H1496 H 0.81303 0.87403 0.82903 0.0
H1497 H 0.77436 0.93593 0.74773 0.0
H1498 H 0.76327 0.85727 0.91483 0.0
H1499 H 0.78303 0.87948 0.95124 0.0
H1500 H 0.79799 0.85608 0.9079 0.0
H1501 H 0.71664 0.93454 0.81712 0.0
H1502 H 0.73806 0.95706 0.78447 0.0
H1503 H 0.73594 0.95612 0.85606 0.0
C1504 C 0.88542 0.30271 0.08427 0.0
C1505 C 0.90396 0.30302 0.04335 0.0
C1506 C 0.88626 0.28437 0.12569 0.0
C1507 C 0.90642 0.26576 0.12735 0.0
C1508 C 0.92531 0.26597 0.0862 0.0
C1509 C 0.92371 0.28436 0.04448 0.0
C1510 C 0.8652 0.28467 0.16728 0.0
C1511 C 0.9474 0.24688 0.08659 0.0
C1512 C 0.91688 0.23038 0.26077 0.0
C1513 C 0.90435 0.20659 0.25182 0.0
C1514 C 0.91827 0.24958 0.22051 0.0
C1515 C 0.90654 0.24518 0.17012 0.0
C1516 C 0.89371 0.2213 0.16126 0.0
C1517 C 0.89299 0.20243 0.20164 0.0
C1518 C 0.93225 0.27464 0.23195 0.0
C1519 C 0.88041 0.21566 0.10905 0.0
H1520 H 0.86985 0.31677 0.08359 0.0
H1521 H 0.9383 0.28456 1.01355 0.0
H1522 H 0.85475 0.26588 0.16704 0.0
H1523 H 0.87377 0.28712 0.20736 0.0
H1524 H 0.85097 0.30047 0.16068 0.0
H1525 H 0.96141 0.25049 0.05396 0.0
H1526 H 0.9578 0.24793 0.12513 0.0
H1527 H 0.93979 0.22688 0.08253 0.0
H1528 H 0.9258 0.23394 0.29905 0.0
H1529 H 0.88311 0.18433 0.19378 0.0
H1530 H 0.91832 0.29098 0.23139 0.0
H1531 H 0.94687 0.27846 0.20061 0.0
H1532 H 0.94208 0.2744 0.2712 0.0
H1533 H 0.8671 0.23171 0.09841 0.0
H1534 H 0.86913 0.19736 0.11019 0.0
H1535 H 0.89505 0.21414 0.07697 0.0
C1536 C 0.30582 0.39231 0.33982 0.0
C1537 C 0.30203 0.40499 0.29085 0.0
C1538 C 0.28727 0.39309 0.38086 0.0
C1539 C 0.26405 0.40728 0.37403 0.0
C1540 C 0.25997 0.42026 0.32482 0.0
C1541 C 0.27886 0.41884 0.28383 0.0
C1542 C 0.29258 0.37842 0.43162 0.0
C1543 C 0.23559 0.43564 0.31543 0.0
C1544 C 0.20637 0.38648 0.46005 0.0
C1545 C 0.20677 0.40431 0.5024 0.0
C1546 C 0.22437 0.38761 0.41799 0.0
C1547 C 0.24368 0.40712 0.41743 0.0
C1548 C 0.24441 0.42515 0.46027 0.0
C1549 C 0.22611 0.42346 0.50228 0.0
C1550 C 0.22292 0.3675 0.37448 0.0
C1551 C 0.26445 0.44638 0.46149 0.0
H1552 H 0.32339 0.38135 0.34621 0.0
H1553 H 0.27556 0.4288 0.24656 0.0
H1554 H 0.29515 0.39229 0.46487 0.0
H1555 H 0.27595 0.36574 0.44174 0.0
H1556 H 0.31021 0.36621 0.42876 0.0
H1557 H 0.23586 0.4459 0.27666 0.0
H1558 H 0.21854 0.42256 0.31629 0.0
H1559 H 0.23296 0.45008 0.34768 0.0
H1560 H 0.19198 0.37122 0.45999 0.0
H1561 H 0.2266 0.43747 0.53436 0.0
H1562 H 0.24114 0.35612 0.37351 0.0
H1563 H 0.22086 0.37705 0.33526 0.0
H1564 H 0.20643 0.35393 0.37994 0.0
H1565 H 0.28408 0.4378 0.46421 0.0
H1566 H 0.26167 0.45978 0.49559 0.0
H1567 H 0.26366 0.4577 0.42406 0.0
C1568 C 0.42463 0.70715 0.71455 0.0
C1569 C 0.40607 0.70916 0.7552 0.0
C1570 C 0.42537 0.72474 0.67167 0.0
C1571 C 0.4064 0.74449 0.66754 0.0
C1572 C 0.38758 0.74669 0.70863 0.0
C1573 C 0.38787 0.72929 0.75224 0.0
C1574 C 0.44647 0.72202 0.63056 0.0
C1575 C 0.36653 0.76687 0.70554 0.0
C1576 C 0.41875 0.80488 0.5823 0.0
C1577 C 0.40635 0.79887 0.53408 0.0
C1578 C 0.4194 0.78728 0.62512 0.0
C1579 C 0.40662 0.76305 0.6209 0.0
C1580 C 0.39431 0.75666 0.57196 0.0
C1581 C 0.39463 0.77445 0.529 0.0
C1582 C 0.43364 0.79486 0.67519 0.0
C1583 C 0.38016 0.73129 0.56541 0.0
H1584 H 0.43861 0.6915 0.71612 0.0
H1585 H 0.37306 0.73063 0.78261 0.0
H1586 H 0.43797 0.71598 0.59204 0.0
H1587 H 0.45622 0.74093 0.62415 0.0
H1588 H 0.46127 0.7075 0.64227 0.0
H1589 H 0.35279 0.76557 0.73939 0.0
H1590 H 0.37516 0.78654 0.70518 0.0
H1591 H 0.35557 0.76453 0.6679 0.0
H1592 H 0.42794 0.82363 0.58672 0.0
H1593 H 0.38467 0.76973 0.49233 0.0
H1594 H 0.4468 0.77903 0.68786 0.0
H1595 H 0.41957 0.79812 0.70779 0.0
H1596 H 0.44519 0.81283 0.66992 0.0
H1597 H 0.39402 0.715 0.56868 0.0
H1598 H 0.37014 0.72984 0.52646 0.0
H1599 H 0.36569 0.72894 0.59764 0.0
C1600 C 0.7011 0.61814 0.34527 0.0
C1601 C 0.70394 0.60369 0.29817 0.0
C1602 C 0.71968 0.61742 0.38621 0.0
C1603 C 0.7419 0.60154 0.38099 0.0
C1604 C 0.74495 0.58675 0.33365 0.0
C1605 C 0.7261 0.58815 0.29272 0.0
C1606 C 0.71561 0.63402 0.43495 0.0
C1607 C 0.76813 0.56936 0.32633 0.0
C1608 C 0.80162 0.62095 0.46191 0.0
C1609 C 0.80035 0.60463 0.5066 0.0
C1610 C 0.78309 0.61986 0.42091 0.0
C1611 C 0.76248 0.60181 0.42374 0.0
C1612 C 0.76095 0.58522 0.46877 0.0
C1613 C 0.77974 0.58694 0.50977 0.0
C1614 C 0.78546 0.6384 0.37476 0.0
C1615 C 0.73952 0.5655 0.47346 0.0
H1616 H 0.68432 0.63047 0.35007 0.0
H1617 H 0.72853 0.57675 0.25689 0.0
H1618 H 0.71405 0.62157 0.47069 0.0
H1619 H 0.73247 0.64703 0.44092 0.0
H1620 H 0.69786 0.64608 0.43214 0.0
H1621 H 0.76712 0.55807 0.2888 0.0
H1622 H 0.7861 0.58114 0.32597 0.0
H1623 H 0.76963 0.55569 0.36019 0.0
H1624 H 0.81711 0.63502 0.4591 0.0
H1625 H 0.77857 0.57411 0.54373 0.0
H1626 H 0.76781 0.65058 0.37208 0.0
H1627 H 0.78705 0.62745 0.33697 0.0
H1628 H 0.80257 0.65132 0.37841 0.0
H1629 H 0.72053 0.57547 0.47532 0.0
H1630 H 0.74164 0.55316 0.50932 0.0
H1631 H 0.73927 0.55289 0.43774 0.0
C1632 C 0.62264 0.20823 0.57549 0.0
C1633 C 0.60303 0.20671 0.53686 0.0
C1634 C 0.62193 0.22672 0.61676 0.0
C1635 C 0.60067 0.24396 0.62104 0.0
C1636 C 0.58061 0.24238 0.5824 0.0
C1637 C 0.58221 0.22409 0.54042 0.0
C1638 C 0.6442 0.22794 0.65553 0.0
C1639 C 0.55722 0.25977 0.58594 0.0
C1640 C 0.59201 0.2781 0.75655 0.0
C1641 C 0.60267 0.3027 0.74673 0.0
C1642 C 0.59058 0.25903 0.71594 0.0
C1643 C 0.6003 0.26443 0.66418 0.0
C1644 C 0.61097 0.28924 0.65421 0.0
C1645 C 0.6119 0.30788 0.69509 0.0
C1646 C 0.57881 0.23301 0.72861 0.0
C1647 C 0.622 0.29604 0.6004 0.0
H1648 H 0.63887 0.19498 0.57312 0.0
H1649 H 0.56675 0.22284 0.5114 0.0
H1650 H 0.65284 0.24763 0.65526 0.0
H1651 H 0.63713 0.22421 0.69641 0.0
H1652 H 0.65959 0.21364 0.64612 0.0
H1653 H 0.54269 0.25538 0.55467 0.0
H1654 H 0.54794 0.2576 0.62546 0.0
H1655 H 0.56318 0.28033 0.58207 0.0
H1656 H 0.58473 0.27373 0.79591 0.0
H1657 H 0.62028 0.32665 0.68636 0.0
H1658 H 0.59408 0.21791 0.72821 0.0
H1659 H 0.56432 0.22763 0.69795 0.0
H1660 H 0.56931 0.23281 0.7682 0.0
H1661 H 0.6382 0.28273 0.59071 0.0
H1662 H 0.62926 0.31629 0.59865 0.0
H1663 H 0.60706 0.29353 0.56918 0.0
C1664 C 0.36562 0.10162 0.49926 0.0
C1665 C 0.34025 0.09822 0.48043 0.0
C1666 C 0.37079 0.10464 0.55382 0.0
C1667 C 0.35011 0.10436 0.59082 0.0
C1668 C 0.32444 0.101 0.57213 0.0
C1669 C 0.31984 0.0979 0.51731 0.0
C1670 C 0.39846 0.10798 0.5719 0.0
C1671 C 0.3018 0.10077 0.61005 0.0
C1672 C 0.36614 0.08898 0.73556 0.0
C1673 C 0.36754 0.11378 0.75844 0.0
C1674 C 0.36022 0.08563 0.68137 0.0
C1675 C 0.35542 0.10757 0.64901 0.0
C1676 C 0.35633 0.13262 0.67206 0.0
C1677 C 0.36242 0.13541 0.7263 0.0
C1678 C 0.35958 0.05859 0.65851 0.0
C1679 C 0.3511 0.15652 0.63926 0.0
H1680 H 0.38158 0.10153 0.4713 0.0
H1681 H 0.30015 0.09559 0.50321 0.0
H1682 H 0.40061 0.12657 0.59363 0.0
H1683 H 0.40373 0.09223 0.59986 0.0
H1684 H 0.41235 0.10779 0.5382 0.0
H1685 H 0.28302 0.09805 0.58928 0.0
H1686 H 0.30421 0.08496 0.63947 0.0
H1687 H 0.30112 0.11925 0.63255 0.0
H1688 H 0.37033 0.07215 0.75978 0.0
H1689 H 0.36306 0.15462 0.74367 0.0
H1690 H 0.37454 0.05668 0.62712 0.0
H1691 H 0.34055 0.05484 0.63958 0.0
H1692 H 0.36306 0.04351 0.68915 0.0
H1693 H 0.36561 0.15805 0.60692 0.0
H1694 H 0.3518 0.17454 0.66338 0.0
H1695 H 0.33178 0.15507 0.62027 0.0
C1696 C 0.10185 0.67678 0.53221 0.0
C1697 C 0.10257 0.65687 0.57024 0.0
C1698 C 0.10399 0.67142 0.47752 0.0
C1699 C 0.1069 0.64548 0.46003 0.0
C1700 C 0.10762 0.62528 0.49815 0.0
C1701 C 0.10548 0.63121 0.55263 0.0
C1702 C 0.10327 0.69358 0.43842 0.0
C1703 C 0.11058 0.59735 0.48138 0.0
C1704 C 0.0895 0.62906 0.31627 0.0
C1705 C 0.11391 0.62809 0.29172 0.0
C1706 C 0.08694 0.63466 0.3708 0.0
C1707 C 0.10931 0.63951 0.4019 0.0
C1708 C 0.13398 0.63872 0.37736 0.0
C1709 C 0.13598 0.63303 0.32277 0.0
C1710 C 0.06027 0.63525 0.39525 0.0
C1711 C 0.15833 0.64392 0.40879 0.0
H1712 H 0.09999 0.6967 0.54526 0.0
H1713 H 0.10574 0.61563 0.58147 0.0
H1714 H 0.12147 0.69402 0.41505 0.0
H1715 H 0.08714 0.69076 0.40989 0.0
H1716 H 0.10077 0.71264 0.4583 0.0
H1717 H 0.11082 0.58391 0.51582 0.0
H1718 H 0.09443 0.59178 0.45464 0.0
H1719 H 0.12882 0.59486 0.4587 0.0
H1720 H 0.07233 0.62496 0.29299 0.0
H1721 H 0.15491 0.63275 0.30423 0.0
H1722 H 0.05659 0.65451 0.41329 0.0
H1723 H 0.05899 0.6207 0.42758 0.0
H1724 H 0.0448 0.63117 0.36573 0.0
H1725 H 0.15746 0.66356 0.42666 0.0
H1726 H 0.17605 0.64255 0.38395 0.0
H1727 H 0.15995 0.62986 0.44194 0.0
C1728 C 0.67042 0.90656 0.5062 0.0
C1729 C 0.65122 0.90272 0.46739 0.0
C1730 C 0.6647 0.90487 0.5608 0.0
C1731 C 0.6391 0.89925 0.57745 0.0
C1732 C 0.6196 0.89547 0.53857 0.0
C1733 C 0.62587 0.89723 0.48421 0.0
C1734 C 0.6861 0.90915 0.60073 0.0
C1735 C 0.59207 0.8894 0.55439 0.0
C1736 C 0.629 0.8719 0.71707 0.0
C1737 C 0.621 0.89386 0.74571 0.0
C1738 C 0.63486 0.87335 0.66247 0.0
C1739 C 0.63277 0.89736 0.63551 0.0
C1740 C 0.6248 0.91962 0.66418 0.0
C1741 C 0.61902 0.9176 0.71871 0.0
C1742 C 0.6432 0.84912 0.63355 0.0
C1743 C 0.62246 0.94563 0.63725 0.0
H1744 H 0.68998 0.91121 0.49392 0.0
H1745 H 0.61093 0.89388 0.45479 0.0
H1746 H 0.68112 0.92562 0.62716 0.0
H1747 H 0.68825 0.89177 0.62624 0.0
H1748 H 0.705 0.91326 0.58145 0.0
H1749 H 0.5791 0.8872 0.51945 0.0
H1750 H 0.59153 0.87122 0.57783 0.0
H1751 H 0.58437 0.90506 0.58014 0.0
H1752 H 0.63029 0.85339 0.73718 0.0
H1753 H 0.61324 0.93478 0.74044 0.0
H1754 H 0.66267 0.852 0.61592 0.0
H1755 H 0.62965 0.84501 0.60039 0.0
H1756 H 0.64386 0.83195 0.66009 0.0
H1757 H 0.64143 0.9514 0.62033 0.0
H1758 H 0.61587 0.96105 0.66493 0.0
H1759 H 0.60855 0.94436 0.60377 0.0
C1760 C 0.90445 0.35775 0.30905 0.0
C1761 C 0.89269 0.38098 0.29283 0.0
C1762 C 0.90668 0.3513 0.36324 0.0
C1763 C 0.89688 0.36842 0.40246 0.0
C1764 C 0.88478 0.39176 0.38634 0.0
C1765 C 0.88285 0.39774 0.33194 0.0
C1766 C 0.91978 0.32625 0.37852 0.0
C1767 C 0.87385 0.41048 0.42665 0.0
C1768 C 0.88184 0.34254 0.54121 0.0
C1769 C 0.90335 0.35099 0.5707 0.0
C1770 C 0.87959 0.34789 0.48655 0.0
C1771 C 0.89931 0.36205 0.46035 0.0
C1772 C 0.92112 0.37055 0.48978 0.0
C1773 C 0.92286 0.36497 0.54443 0.0
C1774 C 0.85594 0.33856 0.45691 0.0
C1775 C 0.94266 0.3856 0.46349 0.0
H1776 H 0.91238 0.34478 0.27935 0.0
H1777 H 0.87336 0.41552 0.31997 0.0
H1778 H 0.93705 0.33042 0.40332 0.0
H1779 H 0.90648 0.31422 0.40278 0.0
H1780 H 0.92595 0.31482 0.34331 0.0
H1781 H 0.86486 0.4277 0.40772 0.0
H1782 H 0.85905 0.40062 0.45135 0.0
H1783 H 0.88942 0.41715 0.45379 0.0
H1784 H 0.86647 0.33205 0.56108 0.0
H1785 H 0.93974 0.37129 0.5665 0.0
H1786 H 0.86181 0.3261 0.42305 0.0
H1787 H 0.84532 0.35535 0.44017 0.0
H1788 H 0.84254 0.3274 0.48273 0.0
H1789 H 0.95091 0.37418 0.43021 0.0
H1790 H 0.95848 0.39054 0.49164 0.0
H1791 H 0.9349 0.40382 0.44641 0.0
C1792 C 0.38612 0.41769 0.56603 0.0
C1793 C 0.38258 0.39413 0.53891 0.0
C1794 C 0.38047 0.42006 0.62055 0.0
C1795 C 0.37095 0.3984 0.64905 0.0
C1796 C 0.36724 0.37459 0.62198 0.0
C1797 C 0.37309 0.37274 0.56744 0.0
C1798 C 0.38464 0.44584 0.64766 0.0
C1799 C 0.35714 0.35101 0.65071 0.0
C1800 C 0.37756 0.39766 0.80034 0.0
C1801 C 0.35265 0.40498 0.817 0.0
C1802 C 0.38379 0.3955 0.74603 0.0
C1803 C 0.36468 0.40071 0.70704 0.0
C1804 C 0.33954 0.40817 0.72353 0.0
C1805 C 0.33386 0.41026 0.77808 0.0
C1806 C 0.41083 0.38749 0.73036 0.0
C1807 C 0.31857 0.41399 0.68346 0.0
H1808 H 0.39302 0.43447 0.54442 0.0
H1809 H 0.37059 0.35435 0.54729 0.0
H1810 H 0.36609 0.45296 0.66438 0.0
H1811 H 0.39832 0.44355 0.68131 0.0
H1812 H 0.39242 0.46075 0.62015 0.0
H1813 H 0.35525 0.33394 0.62406 0.0
H1814 H 0.37031 0.34591 0.6839 0.0
H1815 H 0.33791 0.35527 0.66828 0.0
H1816 H 0.39215 0.39318 0.82984 0.0
H1817 H 0.31468 0.41633 0.79023 0.0
H1818 H 0.41967 0.40254 0.70467 0.0
H1819 H 0.4101 0.36929 0.7069 0.0
H1820 H 0.42356 0.3844 0.76537 0.0
H1821 H 0.32476 0.4301 0.65722 0.0
H1822 H 0.29997 0.41939 0.70263 0.0
H1823 H 0.31524 0.39682 0.65778 0.0
C1824 C 0.38216 0.68041 0.25277 0.0
C1825 C 0.40305 0.66996 0.2241 0.0
C1826 C 0.37906 0.67557 0.30757 0.0
C1827 C 0.39734 0.65998 0.33483 0.0
C1828 C 0.41871 0.64979 0.30634 0.0
C1829 C 0.42126 0.65481 0.25156 0.0
C1830 C 0.3559 0.68672 0.33609 0.0
C1831 C 0.43882 0.63329 0.33366 0.0
C1832 C 0.40177 0.66212 0.48679 0.0
C1833 C 0.38865 0.63937 0.50154 0.0
C1834 C 0.40437 0.66934 0.43298 0.0
C1835 C 0.39364 0.65344 0.39255 0.0
C1836 C 0.37993 0.63077 0.40725 0.0
C1837 C 0.3776 0.62405 0.46127 0.0
C1838 C 0.41912 0.69369 0.4194 0.0
C1839 C 0.36791 0.61336 0.36577 0.0
H1840 H 0.36782 0.69192 0.23206 0.0
H1841 H 0.43769 0.64696 0.23019 0.0
H1842 H 0.34355 0.67078 0.35131 0.0
H1843 H 0.36229 0.69827 0.3709 0.0
H1844 H 0.34399 0.69927 0.30989 0.0
H1845 H 0.45478 0.62758 0.30649 0.0
H1846 H 0.44718 0.64395 0.3679 0.0
H1847 H 0.42965 0.61546 0.34953 0.0
H1848 H 0.41065 0.674 0.51727 0.0
H1849 H 0.367 0.60671 0.47199 0.0
H1850 H 0.40728 0.70635 0.39341 0.0
H1851 H 0.43689 0.68857 0.39699 0.0
H1852 H 0.42477 0.70484 0.45537 0.0
H1853 H 0.35441 0.62463 0.34049 0.0
H1854 H 0.35716 0.59689 0.38363 0.0
H1855 H 0.38321 0.60548 0.33938 0.0
C1856 C 0.67328 0.59791 0.78626 0.0
C1857 C 0.65441 0.60322 0.82497 0.0
C1858 C 0.66762 0.59955 0.73164 0.0
C1859 C 0.64241 0.60667 0.71491 0.0
C1860 C 0.62323 0.61194 0.75371 0.0
C1861 C 0.62943 0.61015 0.80809 0.0
C1862 C 0.68864 0.5936 0.69178 0.0
C1863 C 0.59614 0.61967 0.73778 0.0
C1864 C 0.63383 0.63368 0.57464 0.0
C1865 C 0.62428 0.61211 0.54674 0.0
C1866 C 0.63976 0.6322 0.62919 0.0
C1867 C 0.63615 0.60856 0.65685 0.0
C1868 C 0.62665 0.58668 0.62891 0.0
C1869 C 0.62085 0.58872 0.5744 0.0
C1870 C 0.64977 0.65602 0.65734 0.0
C1871 C 0.62267 0.56105 0.6566 0.0
H1872 H 0.69253 0.59216 0.79866 0.0
H1873 H 0.61477 0.61462 0.83748 0.0
H1874 H 0.68254 0.57733 0.66582 0.0
H1875 H 0.69193 0.61064 0.66578 0.0
H1876 H 0.70724 0.58838 0.71113 0.0
H1877 H 0.58338 0.62293 0.77268 0.0
H1878 H 0.59677 0.63769 0.71383 0.0
H1879 H 0.5874 0.60438 0.71249 0.0
H1880 H 0.63627 0.65193 0.554 0.0
H1881 H 0.61387 0.57181 0.55324 0.0
H1882 H 0.66902 0.65196 0.675 0.0
H1883 H 0.63657 0.66126 0.69041 0.0
H1884 H 0.65157 0.67291 0.63028 0.0
H1885 H 0.64124 0.55422 0.67369 0.0
H1886 H 0.61508 0.54589 0.62938 0.0
H1887 H 0.60888 0.56344 0.69005 0.0
C1888 C 0.59066 0.37837 0.4749 0.0
C1889 C 0.61497 0.37978 0.49974 0.0
C1890 C 0.58838 0.37298 0.4202 0.0
C1891 C 0.61093 0.36862 0.38936 0.0
C1892 C 0.63551 0.36978 0.41431 0.0
C1893 C 0.63723 0.37544 0.46896 0.0
C1894 C 0.56181 0.37217 0.39531 0.0
C1895 C 0.66003 0.36496 0.38325 0.0
C1896 C 0.60415 0.33145 0.25871 0.0
C1897 C 0.60486 0.35139 0.22076 0.0
C1898 C 0.60613 0.33676 0.31345 0.0
C1899 C 0.60881 0.3627 0.33113 0.0
C1900 C 0.60951 0.38294 0.29309 0.0
C1901 C 0.6076 0.37706 0.23853 0.0
C1902 C 0.60548 0.31455 0.35243 0.0
C1903 C 0.61215 0.41088 0.31003 0.0
H1904 H 0.57337 0.38199 0.4981 0.0
H1905 H 0.65608 0.37619 0.48783 0.0
H1906 H 0.56055 0.3867 0.36294 0.0
H1907 H 0.55834 0.35287 0.37722 0.0
H1908 H 0.5462 0.37613 0.42456 0.0
H1909 H 0.67763 0.3664 0.40846 0.0
H1910 H 0.65942 0.34539 0.36502 0.0
H1911 H 0.66167 0.37918 0.35039 0.0
H1912 H 0.60242 0.31153 0.24554 0.0
H1913 H 0.60784 0.39266 0.20975 0.0
H1914 H 0.58914 0.3171 0.38056 0.0
H1915 H 0.62354 0.31435 0.37626 0.0
H1916 H 0.60334 0.29548 0.3324 0.0
H1917 H 0.59586 0.41625 0.33655 0.0
H1918 H 0.61238 0.42437 0.27565 0.0
H1919 H 0.63029 0.41355 0.333 0.0
C1920 C 0.87442 0.61385 0.99571 0.0
C1921 C 0.85056 0.60373 0.97874 0.0
C1922 C 0.88032 0.61637 0.0501 0.0
C1923 C 0.86198 0.60856 0.08879 0.0
C1924 C 0.83791 0.59824 0.07197 0.0
C1925 C 0.83251 0.59597 1.01734 0.0
C1926 C 0.90618 0.62755 0.06616 0.0
C1927 C 0.81785 0.58951 0.11174 0.0
C1928 C 0.88594 0.59317 0.22878 0.0
C1929 C 0.87957 0.61584 0.25682 0.0
C1930 C 0.8803 0.59054 0.17432 0.0
C1931 C 0.86799 0.61106 0.14683 0.0
C1932 C 0.86139 0.63395 0.17489 0.0
C1933 C 0.86721 0.63605 0.2294 0.0
C1934 C 0.88751 0.56572 0.14618 0.0
C1935 C 0.84832 0.65634 0.1472 0.0
H1936 H 0.8884 0.62023 0.96638 0.0
H1937 H 0.81418 0.58776 1.00482 0.0
H1938 H 0.90322 0.64525 0.09044 0.0
H1939 H 0.91685 0.61345 0.09117 0.0
H1940 H 0.91838 0.63258 0.03132 0.0
H1941 H 0.80005 0.58199 0.09231 0.0
H1942 H 0.82599 0.57407 0.13741 0.0
H1943 H 0.81242 0.60589 0.13804 0.0
H1944 H 0.89511 0.57727 0.24962 0.0
H1945 H 0.86247 0.65376 0.25038 0.0
H1946 H 0.90087 0.56998 0.11279 0.0
H1947 H 0.86996 0.55661 0.12894 0.0
H1948 H 0.89697 0.55157 0.17313 0.0
H1949 H 0.86069 0.6634 0.11421 0.0
H1950 H 0.84435 0.67275 0.17458 0.0
H1951 H 0.82975 0.64984 0.12948 0.0
C1952 C 0.60233 0.15166 0.80321 0.0
C1953 C 0.61438 0.12863 0.78667 0.0
C1954 C 0.60015 0.15801 0.85747 0.0
C1955 C 0.61032 0.141 0.89642 0.0
C1956 C 0.62272 0.11786 0.87998 0.0
C1957 C 0.62458 0.11197 0.82552 0.0
C1958 C 0.58674 0.18285 0.87313 0.0
C1959 C 0.63402 0.09926 0.92001 0.0
C1960 C 0.62529 0.16705 0.03513 0.0
C1961 C 0.60395 0.1583 0.06473 0.0
C1962 C 0.62752 0.16173 0.98045 0.0
C1963 C 0.60795 0.14728 0.95436 0.0
C1964 C 0.58633 0.13844 0.98392 0.0
C1965 C 0.58461 0.14401 0.03859 0.0
C1966 C 0.65097 0.17139 0.95066 0.0
C1967 C 0.56496 0.12308 0.95775 0.0
H1968 H 0.59412 0.16455 0.77371 0.0
H1969 H 0.6343 0.09435 0.81329 0.0
H1970 H 0.56983 0.17846 0.89877 0.0
H1971 H 0.60008 0.1952 0.89663 0.0
H1972 H 0.57997 0.19405 0.83812 0.0
H1973 H 0.64321 0.08219 0.90085 0.0
H1974 H 0.64875 0.1093 0.94465 0.0
H1975 H 0.61863 0.09233 0.94726 0.0
H1976 H 0.64053 0.17778 0.05493 0.0
H1977 H 0.56787 0.13745 0.06076 0.0
H1978 H 0.64485 0.18382 0.91698 0.0
H1979 H 0.66177 0.15476 0.93365 0.0
H1980 H 0.66429 0.18269 0.97645 0.0
H1981 H 0.55644 0.13441 0.92465 0.0
H1982 H 0.5493 0.11785 0.98603 0.0
H1983 H 0.57296 0.105 0.94042 0.0
C1984 C 0.11141 0.383 0.2144 0.0
C1985 C 0.12843 0.39227 0.25361 0.0
C1986 C 0.11727 0.38524 0.15998 0.0
C1987 C 0.14074 0.39711 0.14394 0.0
C1988 C 0.15811 0.40636 0.18326 0.0
C1989 C 0.15178 0.40381 0.23746 0.0
C1990 C 0.09829 0.37488 0.11957 0.0
C1991 C 0.1833 0.41921 0.16808 0.0
C1992 C 0.16613 0.38269 1.00445 0.0
C1993 C 0.15795 0.40454 0.97574 0.0
C1994 C 0.16082 0.3801 0.05907 0.0
C1995 C 0.14702 0.39985 0.08605 0.0
C1996 C 0.13879 0.422 0.0574 0.0
C1997 C 0.1443 0.42405 1.00274 0.0
C1998 C 0.16982 0.35608 0.08785 0.0
C1999 C 0.12415 0.44358 0.08452 0.0
H2000 H 0.09353 0.37368 0.2263 0.0
H2001 H 0.16496 0.41131 0.26725 0.0
H2002 H 0.09182 0.39074 0.09301 0.0
H2003 H 0.10783 0.36008 0.09428 0.0
H2004 H 0.08098 0.36602 0.13843 0.0
H2005 H 0.19491 0.42497 0.20334 0.0
H2006 H 0.19505 0.4059 0.14326 0.0
H2007 H 0.17935 0.43673 0.14389 0.0
H2008 H 0.17638 0.36732 0.98398 0.0
H2009 H 0.13819 0.44118 0.98126 0.0
H2010 H 0.15291 0.34561 0.1045 0.0
H2011 H 0.18246 0.36153 0.1217 0.0
H2012 H 0.18066 0.34267 0.06145 0.0
H2013 H 0.10586 0.43596 0.10154 0.0
H2014 H 0.11941 0.45968 0.05693 0.0
H2015 H 0.13576 0.45143 0.11794 0.0
C2016 C 0.40169 0.86878 0.04443 0.0
C2017 C 0.40672 0.84354 0.06253 0.0
C2018 C 0.39851 0.87413 0.98998 0.0
C2019 C 0.40031 0.85377 0.95231 0.0
C2020 C 0.40535 0.82824 0.97027 0.0
C2021 C 0.40854 0.82346 0.02499 0.0
C2022 C 0.39333 0.90165 0.97272 0.0
C2023 C 0.40727 0.80593 0.93165 0.0
C2024 C 0.36904 0.86443 0.81648 0.0
C2025 C 0.39038 0.87112 0.78472 0.0
C2026 C 0.37202 0.85845 0.87073 0.0
C2027 C 0.39695 0.85925 0.89421 0.0
C2028 C 0.4186 0.86573 0.86229 0.0
C2029 C 0.41508 0.87152 0.80809 0.0
C2030 C 0.34843 0.85142 0.90304 0.0
C2031 C 0.4455 0.86694 0.8856 0.0
H2032 H 0.40061 0.88452 0.07288 0.0
H2033 H 0.41212 0.80385 0.03848 0.0
H2034 H 0.40876 0.90821 0.94518 0.0
H2035 H 0.37474 0.90265 0.95077 0.0
H2036 H 0.39244 0.91528 1.00686 0.0
H2037 H 0.41121 0.78722 0.95187 0.0
H2038 H 0.38898 0.80411 0.90886 0.0
H2039 H 0.42297 0.80966 0.90255 0.0
H2040 H 0.34993 0.86368 0.79877 0.0
H2041 H 0.43167 0.87694 0.78421 0.0
H2042 H 0.34587 0.86556 0.93586 0.0
H2043 H 0.35107 0.83207 0.92139 0.0
H2044 H 0.33048 0.85113 0.87873 0.0
H2045 H 0.44618 0.88177 0.91753 0.0
H2046 H 0.46039 0.87178 0.85535 0.0
H2047 H 0.45056 0.84808 0.90393 0.0
C2048 C 0.82044 0.90837 0.27786 0.0
C2049 C 0.84112 0.91014 0.31391 0.0
C2050 C 0.8248 0.9046 0.22314 0.0
C2051 C 0.85048 0.90278 0.20367 0.0
C2052 C 0.87143 0.90467 0.23985 0.0
C2053 C 0.86651 0.90821 0.29438 0.0
C2054 C 0.80189 0.90243 0.18615 0.0
C2055 C 0.89912 0.90315 0.2209 0.0
C2056 C 0.86412 0.87062 0.06979 0.0
C2057 C 0.86705 0.89207 0.03603 0.0
C2058 C 0.85828 0.87379 0.12407 0.0
C2059 C 0.85553 0.89905 0.14551 0.0
C2060 C 0.85822 0.92077 0.11154 0.0
C2061 C 0.86382 0.91702 0.05733 0.0
C2062 C 0.85526 0.85009 0.1586 0.0
C2063 C 0.85567 0.94803 0.13268 0.0
H2064 H 0.80076 0.90955 0.29259 0.0
H2065 H 0.88263 0.90989 0.32174 0.0
H2066 H 0.80279 0.91789 0.15563 0.0
H2067 H 0.80247 0.88359 0.16491 0.0
H2068 H 0.78314 0.90399 0.20751 0.0
H2069 H 0.91323 0.90501 0.254 0.0
H2070 H 0.9025 0.88441 0.20046 0.0
H2071 H 0.90292 0.91874 0.19161 0.0
H2072 H 0.86626 0.85127 0.05363 0.0
H2073 H 0.86634 0.93374 0.03181 0.0
H2074 H 0.83608 0.85034 0.17843 0.0
H2075 H 0.87017 0.8502 0.19032 0.0
H2076 H 0.85709 0.8318 0.1356 0.0
H2077 H 0.83654 0.9506 0.15196 0.0
H2078 H 0.85779 0.96284 0.10098 0.0
H2079 H 0.87065 0.95158 0.16344 0.0
C2080 C 0.91759 0.12293 0.97528 0.0
C2081 C 0.89408 0.1256 1.00286 0.0
C2082 C 0.91949 0.12869 0.92074 0.0
C2083 C 0.89739 0.13745 0.89269 0.0
C2084 C 0.87362 0.14027 0.92022 0.0
C2085 C 0.87225 0.13432 0.97477 0.0
C2086 C 0.94524 0.12549 0.89314 0.0
C2087 C 0.84957 0.14953 0.89198 0.0
C2088 C 0.90737 0.17515 0.76377 0.0
C2089 C 0.90265 0.15621 0.72479 0.0
C2090 C 0.90569 0.16934 0.81831 0.0
C2091 C 0.8992 0.14389 0.83471 0.0
C2092 C 0.89452 0.12464 0.79566 0.0
C2093 C 0.89628 0.13101 0.74136 0.0
C2094 C 0.91091 0.19047 0.85845 0.0
C2095 C 0.88754 0.09728 0.81123 0.0
H2096 H 0.9347 0.11662 0.99653 0.0
H2097 H 0.8539 0.13615 0.99527 0.0
H2098 H 0.94327 0.11178 0.85939 0.0
H2099 H 0.95163 0.14432 0.87648 0.0
H2100 H 0.96053 0.11818 0.92031 0.0
H2101 H 0.83258 0.15073 0.91893 0.0
H2102 H 0.85304 0.16895 0.87451 0.0
H2103 H 0.84482 0.13621 0.85875 0.0
H2104 H 0.91271 0.19458 0.75166 0.0
H2105 H 0.89223 0.11628 0.71181 0.0
H2106 H 0.92734 0.18484 0.88437 0.0
H2107 H 0.89377 0.19312 0.88444 0.0
H2108 H 0.91554 0.2093 0.83934 0.0
H2109 H 0.903 0.08894 0.83657 0.0
H2110 H 0.88472 0.08449 0.77617 0.0
H2111 H 0.86946 0.09732 0.83502 0.0
C2112 C 0.12211 0.12411 0.07605 0.0
C2113 C 0.13825 0.11508 0.0351 0.0
C2114 C 0.12869 0.12072 0.12983 0.0
C2115 C 0.1521 0.10808 0.14348 0.0
C2116 C 0.16878 0.09939 0.10244 0.0
C2117 C 0.16164 0.10292 0.04889 0.0
C2118 C 0.11038 0.13045 0.17215 0.0
C2119 C 0.19397 0.08592 0.11503 0.0
C2120 C 0.17715 0.11808 0.28491 0.0
C2121 C 0.16787 0.09588 0.31095 0.0
C2122 C 0.17267 0.12206 0.2303 0.0
C2123 C 0.15862 0.10338 0.20071 0.0
C2124 C 0.14972 0.08066 0.22649 0.0
C2125 C 0.1544 0.07722 0.28112 0.0
C2126 C 0.18244 0.14658 0.20454 0.0
C2127 C 0.13485 0.06013 0.19653 0.0
H2128 H 0.10427 0.134 0.06608 0.0
H2129 H 0.17416 0.09558 1.0178 0.0
H2130 H 0.10356 0.114 0.19682 0.0
H2131 H 0.12059 0.14413 0.19897 0.0
H2132 H 0.09324 0.14041 0.15508 0.0
H2133 H 0.20558 0.0819 0.07878 0.0
H2134 H 0.20574 0.09792 0.14251 0.0
H2135 H 0.18995 0.0673 0.13544 0.0
H2136 H 0.18737 0.13273 0.30757 0.0
H2137 H 0.14751 0.0598 0.30055 0.0
H2138 H 0.16582 0.15832 0.19042 0.0
H2139 H 0.19442 0.14182 0.16927 0.0
H2140 H 0.19417 0.15857 0.23223 0.0
H2141 H 0.1165 0.06841 0.1812 0.0
H2142 H 0.13018 0.04311 0.22174 0.0
H2143 H 0.14621 0.05345 0.16171 0.0
C2144 C 0.11604 0.8289 0.76216 0.0
C2145 C 0.09427 0.83919 0.73623 0.0
C2146 C 0.12033 0.83328 0.81671 0.0
C2147 C 0.1024 0.84824 0.84631 0.0
C2148 C 0.08011 0.85818 0.82061 0.0
C2149 C 0.07636 0.85359 0.76605 0.0
C2150 C 0.14437 0.82239 0.84241 0.0
C2151 C 0.06039 0.87404 0.85063 0.0
C2152 C 0.10174 0.8453 0.99801 0.0
C2153 C 0.1149 0.86818 1.01182 0.0
C2154 C 0.09798 0.83826 0.94448 0.0
C2155 C 0.10744 0.85453 0.90349 0.0
C2156 C 0.12112 0.87739 0.91716 0.0
C2157 C 0.12471 0.88387 0.97094 0.0
C2158 C 0.08338 0.81368 0.93184 0.0
C2159 C 0.13172 0.89522 0.87487 0.0
H2160 H 0.13012 0.81796 0.73947 0.0
H2161 H 0.05927 0.86126 0.74667 0.0
H2162 H 0.15688 0.83848 0.85648 0.0
H2163 H 0.1391 0.81065 0.87769 0.0
H2164 H 0.15575 0.81011 0.81468 0.0
H2165 H 0.0436 0.87953 0.82545 0.0
H2166 H 0.05319 0.86301 0.88544 0.0
H2167 H 0.06956 0.89199 0.86596 0.0
H2168 H 0.09378 0.83317 0.02908 0.0
H2169 H 0.13533 0.90132 0.98099 0.0
H2170 H 0.09487 0.80132 0.90455 0.0
H2171 H 0.06504 0.81851 0.91119 0.0
H2172 H 0.07875 0.80231 0.96808 0.0
H2173 H 0.14482 0.88434 0.84798 0.0
H2174 H 0.14255 0.91185 0.89197 0.0
H2175 H 0.11563 0.90286 0.85028 0.0
loop_
_geom_bond_atom_site_label_1
_geom_bond_atom_site_label_2
_geom_bond_distance
_geom_bond_site_symmetry_2
_ccdc_geom_bond_type
C0 Eu1 2.835 1_556 S
C0 C2 1.500 . S
C0 O20 1.257 . S
C0 O21 1.260 . S
Eu1 C0 2.835 1_554 S
Eu1 O20 2.473 1_554 S
Eu1 O21 2.480 1_554 S
Eu1 O22 2.430 . S
Eu1 O23 2.670 . S
Eu1 O24 2.394 . S
Eu1 O29 2.355 . S
Eu1 O31 2.374 . S
C2 C0 1.500 . S
C2 C3 1.377 . S
C2 C7 1.377 . S
C3 C2 1.377 . S
C3 C4 1.395 . S
C3 H32 0.931 . S
C4 C3 1.395 . S
C4 C5 1.383 . S
C4 H33 0.931 . S
C5 C4 1.383 . S
C5 C6 1.394 . S
C6 C5 1.394 . S
C6 C7 1.378 . S
C6 H34 0.931 . S
C7 C2 1.377 . S
C7 C6 1.378 . S
C7 H35 0.931 . S
C8 O22 1.259 . S
C8 O23 1.270 . S
C9 O24 1.251 . S
C9 O25 1.251 . S
C10 Eu11 2.835 . S
C10 C12 1.500 . S
C10 O26 1.257 . S
C10 O27 1.260 . S
Eu11 C10 2.835 . S
Eu11 O23 2.355 . S
Eu11 O25 2.374 . S
Eu11 O26 2.473 . S
Eu11 O27 2.480 . S
Eu11 O28 2.430 . S
Eu11 O29 2.670 . S
Eu11 O30 2.394 . S
C12 C10 1.500 . S
C12 C13 1.377 . S
C12 C17 1.377 . S
C13 C12 1.377 . S
C13 C14 1.395 . S
C13 H36 0.931 . S
C14 C13 1.395 . S
C14 C15 1.383 . S
C14 H37 0.931 . S
C15 C14 1.383 . S
C15 C16 1.394 . S
C16 C15 1.394 . S
C16 C17 1.378 . S
C16 H38 0.931 . S
C17 C12 1.377 . S
C17 C16 1.378 . S
C17 H39 0.931 . S
C18 O28 1.259 . S
C18 O29 1.270 . S
C19 O30 1.251 . S
C19 O31 1.251 . S
O20 C0 1.257 . S
O20 Eu1 2.473 1_556 S
O21 C0 1.260 . S
O21 Eu1 2.480 1_556 S
O22 Eu1 2.430 . S
O22 C8 1.259 . S
O23 Eu1 2.670 . S
O23 C8 1.270 . S
O23 Eu11 2.355 . S
O24 Eu1 2.394 . S
O24 C9 1.251 . S
O25 C9 1.251 . S
O25 Eu11 2.374 . S
O26 C10 1.257 . S
O26 Eu11 2.473 . S
O27 C10 1.260 . S
O27 Eu11 2.480 . S
O28 Eu11 2.430 . S
O28 C18 1.259 . S
O29 Eu1 2.355 . S
O29 Eu11 2.670 . S
O29 C18 1.270 . S
O30 Eu11 2.394 . S
O30 C19 1.251 . S
O31 Eu1 2.374 . S
O31 C19 1.251 . S
H32 C3 0.931 . S
H33 C4 0.931 . S
H34 C6 0.931 . S
H35 C7 0.931 . S
H36 C13 0.931 . S
H37 C14 0.931 . S
H38 C16 0.931 . S
H39 C17 0.931 . S
C40 Eu41 2.835 . S
C40 C42 1.500 . S
C40 O60 1.257 . S
C40 O61 1.260 . S
Eu41 C40 2.835 . S
Eu41 O60 2.473 . S
Eu41 O61 2.480 . S
Eu41 O62 2.430 . S
Eu41 O63 2.670 . S
Eu41 O64 2.394 . S
Eu41 O69 2.355 . S
Eu41 O71 2.374 . S
C42 C40 1.500 . S
C42 C43 1.377 . S
C42 C47 1.377 . S
C43 C42 1.377 . S
C43 C44 1.395 . S
C43 H72 0.931 . S
C44 C43 1.395 . S
C44 C45 1.383 . S
C44 H73 0.931 . S
C45 C44 1.383 . S
C45 C46 1.394 . S
C46 C45 1.394 . S
C46 C47 1.378 . S
C46 H74 0.931 . S
C47 C42 1.377 . S
C47 C46 1.378 . S
C47 H75 0.931 . S
C48 O62 1.259 . S
C48 O63 1.270 . S
C49 O64 1.251 . S
C49 O65 1.251 . S
C50 Eu51 2.835 1_554 S
C50 C52 1.500 . S
C50 O66 1.257 . S
C50 O67 1.260 . S
Eu51 C50 2.835 1_556 S
Eu51 O63 2.355 . S
Eu51 O65 2.374 . S
Eu51 O66 2.473 1_556 S
Eu51 O67 2.480 1_556 S
Eu51 O68 2.430 . S
Eu51 O69 2.670 . S
Eu51 O70 2.394 . S
C52 C50 1.500 . S
C52 C53 1.377 . S
C52 C57 1.377 . S
C53 C52 1.377 . S
C53 C54 1.395 . S
C53 H76 0.931 . S
C54 C53 1.395 . S
C54 C55 1.383 . S
C54 H77 0.931 . S
C55 C54 1.383 . S
C55 C56 1.394 . S
C56 C55 1.394 . S
C56 C57 1.378 . S
C56 H78 0.931 . S
C57 C52 1.377 . S
C57 C56 1.378 . S
C57 H79 0.931 . S
C58 O68 1.259 . S
C58 O69 1.270 . S
C59 O70 1.251 . S
C59 O71 1.251 . S
O60 C40 1.257 . S
O60 Eu41 2.473 . S
O61 C40 1.260 . S
O61 Eu41 2.480 . S
O62 Eu41 2.430 . S
O62 C48 1.259 . S
O63 Eu41 2.670 . S
O63 C48 1.270 . S
O63 Eu51 2.355 . S
O64 Eu41 2.394 . S
O64 C49 1.251 . S
O65 C49 1.251 . S
O65 Eu51 2.374 . S
O66 C50 1.257 . S
O66 Eu51 2.473 1_554 S
O67 C50 1.260 . S
O67 Eu51 2.480 1_554 S
O68 Eu51 2.430 . S
O68 C58 1.259 . S
O69 Eu41 2.355 . S
O69 Eu51 2.670 . S
O69 C58 1.270 . S
O70 Eu51 2.394 . S
O70 C59 1.251 . S
O71 Eu41 2.374 . S
O71 C59 1.251 . S
H72 C43 0.931 . S
H73 C44 0.931 . S
H74 C46 0.931 . S
H75 C47 0.931 . S
H76 C53 0.931 . S
H77 C54 0.931 . S
H78 C56 0.931 . S
H79 C57 0.931 . S
C80 Eu81 2.835 1_556 S
C80 C82 1.500 . S
C80 O100 1.257 . S
C80 O101 1.260 . S
Eu81 C80 2.835 1_554 S
Eu81 O100 2.473 1_554 S
Eu81 O101 2.480 1_554 S
Eu81 O102 2.430 . S
Eu81 O103 2.670 . S
Eu81 O104 2.394 . S
Eu81 O109 2.355 . S
Eu81 O111 2.374 . S
C82 C80 1.500 . S
C82 C83 1.377 . S
C82 C87 1.377 . S
C83 C82 1.377 . S
C83 C84 1.395 . S
C83 H112 0.931 . S
C84 C83 1.395 . S
C84 C85 1.383 . S
C84 H113 0.931 . S
C85 C84 1.383 . S
C85 C86 1.394 . S
C86 C85 1.394 . S
C86 C87 1.378 . S
C86 H114 0.931 . S
C87 C82 1.377 . S
C87 C86 1.378 . S
C87 H115 0.931 . S
C88 O102 1.259 . S
C88 O103 1.270 . S
C89 O104 1.251 . S
C89 O105 1.251 . S
C90 Eu91 2.835 . S
C90 C92 1.500 . S
C90 O106 1.257 . S
C90 O107 1.260 . S
Eu91 C90 2.835 . S
Eu91 O103 2.355 . S
Eu91 O105 2.374 . S
Eu91 O106 2.473 . S
Eu91 O107 2.480 . S
Eu91 O108 2.430 . S
Eu91 O109 2.670 . S
Eu91 O110 2.394 . S
C92 C90 1.500 . S
C92 C93 1.377 . S
C92 C97 1.377 . S
C93 C92 1.377 . S
C93 C94 1.395 . S
C93 H116 0.931 . S
C94 C93 1.395 . S
C94 C95 1.383 . S
C94 H117 0.931 . S
C95 C94 1.383 . S
C95 C96 1.394 . S
C96 C95 1.394 . S
C96 C97 1.378 . S
C96 H118 0.931 . S
C97 C92 1.377 . S
C97 C96 1.378 . S
C97 H119 0.931 . S
C98 O108 1.259 . S
C98 O109 1.270 . S
C99 O110 1.251 . S
C99 O111 1.251 . S
O100 C80 1.257 . S
O100 Eu81 2.473 1_556 S
O101 C80 1.260 . S
O101 Eu81 2.480 1_556 S
O102 Eu81 2.430 . S
O102 C88 1.259 . S
O103 Eu81 2.670 . S
O103 C88 1.270 . S
O103 Eu91 2.355 . S
O104 Eu81 2.394 . S
O104 C89 1.251 . S
O105 C89 1.251 . S
O105 Eu91 2.374 . S
O106 C90 1.257 . S
O106 Eu91 2.473 . S
O107 C90 1.260 . S
O107 Eu91 2.480 . S
O108 Eu91 2.430 . S
O108 C98 1.259 . S
O109 Eu81 2.355 . S
O109 Eu91 2.670 . S
O109 C98 1.270 . S
O110 Eu91 2.394 . S
O110 C99 1.251 . S
O111 Eu81 2.374 . S
O111 C99 1.251 . S
H112 C83 0.931 . S
H113 C84 0.931 . S
H114 C86 0.931 . S
H115 C87 0.931 . S
H116 C93 0.931 . S
H117 C94 0.931 . S
H118 C96 0.931 . S
H119 C97 0.931 . S
C120 Eu121 2.835 . S
C120 C122 1.500 . S
C120 O140 1.257 . S
C120 O141 1.260 . S
Eu121 C120 2.835 . S
Eu121 O140 2.473 . S
Eu121 O141 2.480 . S
Eu121 O142 2.430 . S
Eu121 O143 2.670 . S
Eu121 O144 2.394 . S
Eu121 O149 2.355 . S
Eu121 O151 2.374 . S
C122 C120 1.500 . S
C122 C123 1.377 . S
C122 C127 1.377 . S
C123 C122 1.377 . S
C123 C124 1.395 . S
C123 H152 0.931 . S
C124 C123 1.395 . S
C124 C125 1.383 . S
C124 H153 0.931 . S
C125 C124 1.383 . S
C125 C126 1.394 . S
C126 C125 1.394 . S
C126 C127 1.378 . S
C126 H154 0.931 . S
C127 C122 1.377 . S
C127 C126 1.378 . S
C127 H155 0.931 . S
C128 O142 1.259 . S
C128 O143 1.270 . S
C129 O144 1.251 . S
C129 O145 1.251 . S
C130 Eu131 2.835 1_554 S
C130 C132 1.500 . S
C130 O146 1.257 . S
C130 O147 1.260 . S
Eu131 C130 2.835 1_556 S
Eu131 O143 2.355 . S
Eu131 O145 2.374 . S
Eu131 O146 2.473 1_556 S
Eu131 O147 2.480 1_556 S
Eu131 O148 2.430 . S
Eu131 O149 2.670 . S
Eu131 O150 2.394 . S
C132 C130 1.500 . S
C132 C133 1.377 . S
C132 C137 1.377 . S
C133 C132 1.377 . S
C133 C134 1.395 . S
C133 H156 0.931 . S
C134 C133 1.395 . S
C134 C135 1.383 . S
C134 H157 0.931 . S
C135 C134 1.383 . S
C135 C136 1.394 . S
C136 C135 1.394 . S
C136 C137 1.378 . S
C136 H158 0.931 . S
C137 C132 1.377 . S
C137 C136 1.378 . S
C137 H159 0.931 . S
C138 O148 1.259 . S
C138 O149 1.270 . S
C139 O150 1.251 . S
C139 O151 1.251 . S
O140 C120 1.257 . S
O140 Eu121 2.473 . S
O141 C120 1.260 . S
O141 Eu121 2.480 . S
O142 Eu121 2.430 . S
O142 C128 1.259 . S
O143 Eu121 2.670 . S
O143 C128 1.270 . S
O143 Eu131 2.355 . S
O144 Eu121 2.394 . S
O144 C129 1.251 . S
O145 C129 1.251 . S
O145 Eu131 2.374 . S
O146 C130 1.257 . S
O146 Eu131 2.473 1_554 S
O147 C130 1.260 . S
O147 Eu131 2.480 1_554 S
O148 Eu131 2.430 . S
O148 C138 1.259 . S
O149 Eu121 2.355 . S
O149 Eu131 2.670 . S
O149 C138 1.270 . S
O150 Eu131 2.394 . S
O150 C139 1.251 . S
O151 Eu121 2.374 . S
O151 C139 1.251 . S
H152 C123 0.931 . S
H153 C124 0.931 . S
H154 C126 0.931 . S
H155 C127 0.931 . S
H156 C133 0.931 . S
H157 C134 0.931 . S
H158 C136 0.931 . S
H159 C137 0.931 . S
C160 Eu161 2.835 . S
C160 C162 1.500 . S
C160 O180 1.257 . S
C160 O181 1.260 . S
Eu161 C160 2.835 . S
Eu161 O180 2.473 . S
Eu161 O181 2.480 . S
Eu161 O182 2.430 . S
Eu161 O183 2.670 . S
Eu161 O184 2.394 . S
Eu161 O189 2.355 . S
Eu161 O191 2.374 . S
C162 C160 1.500 . S
C162 C163 1.377 . S
C162 C167 1.377 . S
C163 C162 1.377 . S
C163 C164 1.395 . S
C163 H192 0.931 . S
C164 C163 1.395 . S
C164 C165 1.383 . S
C164 H193 0.931 . S
C165 C164 1.383 . S
C165 C166 1.394 . S
C166 C165 1.394 . S
C166 C167 1.378 . S
C166 H194 0.931 . S
C167 C162 1.377 . S
C167 C166 1.378 . S
C167 H195 0.931 . S
C168 O182 1.259 . S
C168 O183 1.270 . S
C169 O184 1.251 . S
C169 O185 1.251 . S
C170 Eu171 2.835 1_556 S
C170 C172 1.500 . S
C170 O186 1.257 . S
C170 O187 1.260 . S
Eu171 C170 2.835 1_554 S
Eu171 O183 2.355 . S
Eu171 O185 2.374 . S
Eu171 O186 2.473 1_554 S
Eu171 O187 2.480 1_554 S
Eu171 O188 2.430 . S
Eu171 O189 2.670 . S
Eu171 O190 2.394 . S
C172 C170 1.500 . S
C172 C173 1.377 . S
C172 C177 1.377 . S
C173 C172 1.377 . S
C173 C174 1.395 . S
C173 H196 0.931 . S
C174 C173 1.395 . S
C174 C175 1.383 . S
C174 H197 0.931 . S
C175 C174 1.383 . S
C175 C176 1.394 . S
C176 C175 1.394 . S
C176 C177 1.378 . S
C176 H198 0.931 . S
C177 C172 1.377 . S
C177 C176 1.378 . S
C177 H199 0.931 . S
C178 O188 1.259 . S
C178 O189 1.270 . S
C179 O190 1.251 . S
C179 O191 1.251 . S
O180 C160 1.257 . S
O180 Eu161 2.473 . S
O181 C160 1.260 . S
O181 Eu161 2.480 . S
O182 Eu161 2.430 . S
O182 C168 1.259 . S
O183 Eu161 2.670 . S
O183 C168 1.270 . S
O183 Eu171 2.355 . S
O184 Eu161 2.394 . S
O184 C169 1.251 . S
O185 C169 1.251 . S
O185 Eu171 2.374 . S
O186 C170 1.257 . S
O186 Eu171 2.473 1_556 S
O187 C170 1.260 . S
O187 Eu171 2.480 1_556 S
O188 Eu171 2.430 . S
O188 C178 1.259 . S
O189 Eu161 2.355 . S
O189 Eu171 2.670 . S
O189 C178 1.270 . S
O190 Eu171 2.394 . S
O190 C179 1.251 . S
O191 Eu161 2.374 . S
O191 C179 1.251 . S
H192 C163 0.931 . S
H193 C164 0.931 . S
H194 C166 0.931 . S
H195 C167 0.931 . S
H196 C173 0.931 . S
H197 C174 0.931 . S
H198 C176 0.931 . S
H199 C177 0.931 . S
C200 Eu201 2.835 1_554 S
C200 C202 1.500 . S
C200 O220 1.257 . S
C200 O221 1.260 . S
Eu201 C200 2.835 1_556 S
Eu201 O220 2.473 1_556 S
Eu201 O221 2.480 1_556 S
Eu201 O222 2.430 . S
Eu201 O223 2.670 . S
Eu201 O224 2.394 . S
Eu201 O229 2.355 . S
Eu201 O231 2.374 . S
C202 C200 1.500 . S
C202 C203 1.377 . S
C202 C207 1.377 . S
C203 C202 1.377 . S
C203 C204 1.395 . S
C203 H232 0.931 . S
C204 C203 1.395 . S
C204 C205 1.383 . S
C204 H233 0.931 . S
C205 C204 1.383 . S
C205 C206 1.394 . S
C206 C205 1.394 . S
C206 C207 1.378 . S
C206 H234 0.931 . S
C207 C202 1.377 . S
C207 C206 1.378 . S
C207 H235 0.931 . S
C208 O222 1.259 . S
C208 O223 1.270 . S
C209 O224 1.251 . S
C209 O225 1.251 . S
C210 Eu211 2.835 . S
C210 C212 1.500 . S
C210 O226 1.257 . S
C210 O227 1.260 . S
Eu211 C210 2.835 . S
Eu211 O223 2.355 . S
Eu211 O225 2.374 . S
Eu211 O226 2.473 . S
Eu211 O227 2.480 . S
Eu211 O228 2.430 . S
Eu211 O229 2.670 . S
Eu211 O230 2.394 . S
C212 C210 1.500 . S
C212 C213 1.377 . S
C212 C217 1.377 . S
C213 C212 1.377 . S
C213 C214 1.395 . S
C213 H236 0.931 . S
C214 C213 1.395 . S
C214 C215 1.383 . S
C214 H237 0.931 . S
C215 C214 1.383 . S
C215 C216 1.394 . S
C216 C215 1.394 . S
C216 C217 1.378 . S
C216 H238 0.931 . S
C217 C212 1.377 . S
C217 C216 1.378 . S
C217 H239 0.931 . S
C218 O228 1.259 . S
C218 O229 1.270 . S
C219 O230 1.251 . S
C219 O231 1.251 . S
O220 C200 1.257 . S
O220 Eu201 2.473 1_554 S
O221 C200 1.260 . S
O221 Eu201 2.480 1_554 S
O222 Eu201 2.430 . S
O222 C208 1.259 . S
O223 Eu201 2.670 . S
O223 C208 1.270 . S
O223 Eu211 2.355 . S
O224 Eu201 2.394 . S
O224 C209 1.251 . S
O225 C209 1.251 . S
O225 Eu211 2.374 . S
O226 C210 1.257 . S
O226 Eu211 2.473 . S
O227 C210 1.260 . S
O227 Eu211 2.480 . S
O228 Eu211 2.430 . S
O228 C218 1.259 . S
O229 Eu201 2.355 . S
O229 Eu211 2.670 . S
O229 C218 1.270 . S
O230 Eu211 2.394 . S
O230 C219 1.251 . S
O231 Eu201 2.374 . S
O231 C219 1.251 . S
H232 C203 0.931 . S
H233 C204 0.931 . S
H234 C206 0.931 . S
H235 C207 0.931 . S
H236 C213 0.931 . S
H237 C214 0.931 . S
H238 C216 0.931 . S
H239 C217 0.931 . S
C240 Eu241 2.835 . S
C240 C242 1.500 . S
C240 O260 1.257 . S
C240 O261 1.260 . S
Eu241 C240 2.835 . S
Eu241 O260 2.473 . S
Eu241 O261 2.480 . S
Eu241 O262 2.430 . S
Eu241 O263 2.670 . S
Eu241 O264 2.394 . S
Eu241 O269 2.355 . S
Eu241 O271 2.374 . S
C242 C240 1.500 . S
C242 C243 1.377 . S
C242 C247 1.377 . S
C243 C242 1.377 . S
C243 C244 1.395 . S
C243 H272 0.931 . S
C244 C243 1.395 . S
C244 C245 1.383 . S
C244 H273 0.931 . S
C245 C244 1.383 . S
C245 C246 1.394 . S
C246 C245 1.394 . S
C246 C247 1.378 . S
C246 H274 0.931 . S
C247 C242 1.377 . S
C247 C246 1.378 . S
C247 H275 0.931 . S
C248 O262 1.259 . S
C248 O263 1.270 . S
C249 O264 1.251 . S
C249 O265 1.251 . S
C250 Eu251 2.835 1_556 S
C250 C252 1.500 . S
C250 O266 1.257 . S
C250 O267 1.260 . S
Eu251 C250 2.835 1_554 S
Eu251 O263 2.355 . S
Eu251 O265 2.374 . S
Eu251 O266 2.473 1_554 S
Eu251 O267 2.480 1_554 S
Eu251 O268 2.430 . S
Eu251 O269 2.670 . S
Eu251 O270 2.394 . S
C252 C250 1.500 . S
C252 C253 1.377 . S
C252 C257 1.377 . S
C253 C252 1.377 . S
C253 C254 1.395 . S
C253 H276 0.931 . S
C254 C253 1.395 . S
C254 C255 1.383 . S
C254 H277 0.931 . S
C255 C254 1.383 . S
C255 C256 1.394 . S
C256 C255 1.394 . S
C256 C257 1.378 . S
C256 H278 0.931 . S
C257 C252 1.377 . S
C257 C256 1.378 . S
C257 H279 0.931 . S
C258 O268 1.259 . S
C258 O269 1.270 . S
C259 O270 1.251 . S
C259 O271 1.251 . S
O260 C240 1.257 . S
O260 Eu241 2.473 . S
O261 C240 1.260 . S
O261 Eu241 2.480 . S
O262 Eu241 2.430 . S
O262 C248 1.259 . S
O263 Eu241 2.670 . S
O263 C248 1.270 . S
O263 Eu251 2.355 . S
O264 Eu241 2.394 . S
O264 C249 1.251 . S
O265 C249 1.251 . S
O265 Eu251 2.374 . S
O266 C250 1.257 . S
O266 Eu251 2.473 1_556 S
O267 C250 1.260 . S
O267 Eu251 2.480 1_556 S
O268 Eu251 2.430 . S
O268 C258 1.259 . S
O269 Eu241 2.355 . S
O269 Eu251 2.670 . S
O269 C258 1.270 . S
O270 Eu251 2.394 . S
O270 C259 1.251 . S
O271 Eu241 2.374 . S
O271 C259 1.251 . S
H272 C243 0.931 . S
H273 C244 0.931 . S
H274 C246 0.931 . S
H275 C247 0.931 . S
H276 C253 0.931 . S
H277 C254 0.931 . S
H278 C256 0.931 . S
H279 C257 0.931 . S
C280 Eu281 2.835 1_554 S
C280 C282 1.500 . S
C280 O300 1.257 . S
C280 O301 1.260 . S
Eu281 C280 2.835 1_556 S
Eu281 O300 2.473 1_556 S
Eu281 O301 2.480 1_556 S
Eu281 O302 2.430 . S
Eu281 O303 2.670 . S
Eu281 O304 2.394 . S
Eu281 O309 2.355 . S
Eu281 O311 2.374 . S
C282 C280 1.500 . S
C282 C283 1.377 . S
C282 C287 1.377 . S
C283 C282 1.377 . S
C283 C284 1.395 . S
C283 H312 0.931 . S
C284 C283 1.395 . S
C284 C285 1.383 . S
C284 H313 0.931 . S
C285 C284 1.383 . S
C285 C286 1.394 . S
C286 C285 1.394 . S
C286 C287 1.378 . S
C286 H314 0.931 . S
C287 C282 1.377 . S
C287 C286 1.378 . S
C287 H315 0.931 . S
C288 O302 1.259 . S
C288 O303 1.270 . S
C289 O304 1.251 . S
C289 O305 1.251 . S
C290 Eu291 2.835 . S
C290 C292 1.500 . S
C290 O306 1.257 . S
C290 O307 1.260 . S
Eu291 C290 2.835 . S
Eu291 O303 2.355 . S
Eu291 O305 2.374 . S
Eu291 O306 2.473 . S
Eu291 O307 2.480 . S
Eu291 O308 2.430 . S
Eu291 O309 2.670 . S
Eu291 O310 2.394 . S
C292 C290 1.500 . S
C292 C293 1.377 . S
C292 C297 1.377 . S
C293 C292 1.377 . S
C293 C294 1.395 . S
C293 H316 0.931 . S
C294 C293 1.395 . S
C294 C295 1.383 . S
C294 H317 0.931 . S
C295 C294 1.383 . S
C295 C296 1.394 . S
C296 C295 1.394 . S
C296 C297 1.378 . S
C296 H318 0.931 . S
C297 C292 1.377 . S
C297 C296 1.378 . S
C297 H319 0.931 . S
C298 O308 1.259 . S
C298 O309 1.270 . S
C299 O310 1.251 . S
C299 O311 1.251 . S
O300 C280 1.257 . S
O300 Eu281 2.473 1_554 S
O301 C280 1.260 . S
O301 Eu281 2.480 1_554 S
O302 Eu281 2.430 . S
O302 C288 1.259 . S
O303 Eu281 2.670 . S
O303 C288 1.270 . S
O303 Eu291 2.355 . S
O304 Eu281 2.394 . S
O304 C289 1.251 . S
O305 C289 1.251 . S
O305 Eu291 2.374 . S
O306 C290 1.257 . S
O306 Eu291 2.473 . S
O307 C290 1.260 . S
O307 Eu291 2.480 . S
O308 Eu291 2.430 . S
O308 C298 1.259 . S
O309 Eu281 2.355 . S
O309 Eu291 2.670 . S
O309 C298 1.270 . S
O310 Eu291 2.394 . S
O310 C299 1.251 . S
O311 Eu281 2.374 . S
O311 C299 1.251 . S
H312 C283 0.931 . S
H313 C284 0.931 . S
H314 C286 0.931 . S
H315 C287 0.931 . S
H316 C293 0.931 . S
H317 C294 0.931 . S
H318 C296 0.931 . S
H319 C297 0.931 . S
C320 Eu321 2.835 . S
C320 C322 1.500 . S
C320 O340 1.257 . S
C320 O341 1.260 . S
Eu321 C320 2.835 . S
Eu321 O340 2.473 . S
Eu321 O341 2.480 . S
Eu321 O342 2.430 . S
Eu321 O343 2.670 . S
Eu321 O344 2.394 . S
Eu321 O349 2.355 . S
Eu321 O351 2.374 . S
C322 C320 1.500 . S
C322 C323 1.377 . S
C322 C327 1.377 . S
C323 C322 1.377 . S
C323 C324 1.395 . S
C323 H352 0.931 . S
C324 C323 1.395 . S
C324 C325 1.383 . S
C324 H353 0.931 . S
C325 C324 1.383 . S
C325 C326 1.394 . S
C326 C325 1.394 . S
C326 C327 1.378 . S
C326 H354 0.931 . S
C327 C322 1.377 . S
C327 C326 1.378 . S
C327 H355 0.931 . S
C328 O342 1.259 . S
C328 O343 1.270 . S
C329 O344 1.251 . S
C329 O345 1.251 . S
C330 Eu331 2.835 . S
C330 C332 1.500 . S
C330 O346 1.257 . S
C330 O347 1.260 . S
Eu331 C330 2.835 . S
Eu331 O343 2.355 . S
Eu331 O345 2.374 . S
Eu331 O346 2.473 . S
Eu331 O347 2.480 . S
Eu331 O348 2.430 . S
Eu331 O349 2.670 . S
Eu331 O350 2.394 . S
C332 C330 1.500 . S
C332 C333 1.377 . S
C332 C337 1.377 . S
C333 C332 1.377 . S
C333 C334 1.395 . S
C333 H356 0.931 . S
C334 C333 1.395 . S
C334 C335 1.383 . S
C334 H357 0.931 . S
C335 C334 1.383 . S
C335 C336 1.394 . S
C336 C335 1.394 . S
C336 C337 1.378 . S
C336 H358 0.931 . S
C337 C332 1.377 . S
C337 C336 1.378 . S
C337 H359 0.931 . S
C338 O348 1.259 . S
C338 O349 1.270 . S
C339 O350 1.251 . S
C339 O351 1.251 . S
O340 C320 1.257 . S
O340 Eu321 2.473 . S
O341 C320 1.260 . S
O341 Eu321 2.480 . S
O342 Eu321 2.430 . S
O342 C328 1.259 . S
O343 Eu321 2.670 . S
O343 C328 1.270 . S
O343 Eu331 2.355 . S
O344 Eu321 2.394 . S
O344 C329 1.251 . S
O345 C329 1.251 . S
O345 Eu331 2.374 . S
O346 C330 1.257 . S
O346 Eu331 2.473 . S
O347 C330 1.260 . S
O347 Eu331 2.480 . S
O348 Eu331 2.430 . S
O348 C338 1.259 . S
O349 Eu321 2.355 . S
O349 Eu331 2.670 . S
O349 C338 1.270 . S
O350 Eu331 2.394 . S
O350 C339 1.251 . S
O351 Eu321 2.374 . S
O351 C339 1.251 . S
H352 C323 0.931 . S
H353 C324 0.931 . S
H354 C326 0.931 . S
H355 C327 0.931 . S
H356 C333 0.931 . S
H357 C334 0.931 . S
H358 C336 0.931 . S
H359 C337 0.931 . S
C360 Eu361 2.835 . S
C360 C362 1.500 . S
C360 O380 1.257 . S
C360 O381 1.260 . S
Eu361 C360 2.835 . S
Eu361 O380 2.473 . S
Eu361 O381 2.480 . S
Eu361 O382 2.430 . S
Eu361 O383 2.670 . S
Eu361 O384 2.394 . S
Eu361 O389 2.355 . S
Eu361 O391 2.374 . S
C362 C360 1.500 . S
C362 C363 1.377 . S
C362 C367 1.377 . S
C363 C362 1.377 . S
C363 C364 1.395 . S
C363 H392 0.931 . S
C364 C363 1.395 . S
C364 C365 1.383 . S
C364 H393 0.931 . S
C365 C364 1.383 . S
C365 C366 1.394 . S
C366 C365 1.394 . S
C366 C367 1.378 . S
C366 H394 0.931 . S
C367 C362 1.377 . S
C367 C366 1.378 . S
C367 H395 0.931 . S
C368 O382 1.259 . S
C368 O383 1.270 . S
C369 O384 1.251 . S
C369 O385 1.251 . S
C370 Eu371 2.835 . S
C370 C372 1.500 . S
C370 O386 1.257 . S
C370 O387 1.260 . S
Eu371 C370 2.835 . S
Eu371 O383 2.355 . S
Eu371 O385 2.374 . S
Eu371 O386 2.473 . S
Eu371 O387 2.480 . S
Eu371 O388 2.430 . S
Eu371 O389 2.670 . S
Eu371 O390 2.394 . S
C372 C370 1.500 . S
C372 C373 1.377 . S
C372 C377 1.377 . S
C373 C372 1.377 . S
C373 C374 1.395 . S
C373 H396 0.931 . S
C374 C373 1.395 . S
C374 C375 1.383 . S
C374 H397 0.931 . S
C375 C374 1.383 . S
C375 C376 1.394 . S
C376 C375 1.394 . S
C376 C377 1.378 . S
C376 H398 0.931 . S
C377 C372 1.377 . S
C377 C376 1.378 . S
C377 H399 0.931 . S
C378 O388 1.259 . S
C378 O389 1.270 . S
C379 O390 1.251 . S
C379 O391 1.251 . S
O380 C360 1.257 . S
O380 Eu361 2.473 . S
O381 C360 1.260 . S
O381 Eu361 2.480 . S
O382 Eu361 2.430 . S
O382 C368 1.259 . S
O383 Eu361 2.670 . S
O383 C368 1.270 . S
O383 Eu371 2.355 . S
O384 Eu361 2.394 . S
O384 C369 1.251 . S
O385 C369 1.251 . S
O385 Eu371 2.374 . S
O386 C370 1.257 . S
O386 Eu371 2.473 . S
O387 C370 1.260 . S
O387 Eu371 2.480 . S
O388 Eu371 2.430 . S
O388 C378 1.259 . S
O389 Eu361 2.355 . S
O389 Eu371 2.670 . S
O389 C378 1.270 . S
O390 Eu371 2.394 . S
O390 C379 1.251 . S
O391 Eu361 2.374 . S
O391 C379 1.251 . S
H392 C363 0.931 . S
H393 C364 0.931 . S
H394 C366 0.931 . S
H395 C367 0.931 . S
H396 C373 0.931 . S
H397 C374 0.931 . S
H398 C376 0.931 . S
H399 C377 0.931 . S
C400 Eu401 2.835 . S
C400 C402 1.500 . S
C400 O420 1.257 . S
C400 O421 1.260 . S
Eu401 C400 2.835 . S
Eu401 O420 2.473 . S
Eu401 O421 2.480 . S
Eu401 O422 2.430 . S
Eu401 O423 2.670 . S
Eu401 O424 2.394 . S
Eu401 O429 2.355 . S
Eu401 O431 2.374 . S
C402 C400 1.500 . S
C402 C403 1.377 . S
C402 C407 1.377 . S
C403 C402 1.377 . S
C403 C404 1.395 . S
C403 H432 0.931 . S
C404 C403 1.395 . S
C404 C405 1.383 . S
C404 H433 0.931 . S
C405 C404 1.383 . S
C405 C406 1.394 . S
C406 C405 1.394 . S
C406 C407 1.378 . S
C406 H434 0.931 . S
C407 C402 1.377 . S
C407 C406 1.378 . S
C407 H435 0.931 . S
C408 O422 1.259 . S
C408 O423 1.270 . S
C409 O424 1.251 . S
C409 O425 1.251 . S
C410 Eu411 2.835 . S
C410 C412 1.500 . S
C410 O426 1.257 . S
C410 O427 1.260 . S
Eu411 C410 2.835 . S
Eu411 O423 2.355 . S
Eu411 O425 2.374 . S
Eu411 O426 2.473 . S
Eu411 O427 2.480 . S
Eu411 O428 2.430 . S
Eu411 O429 2.670 . S
Eu411 O430 2.394 . S
C412 C410 1.500 . S
C412 C413 1.377 . S
C412 C417 1.377 . S
C413 C412 1.377 . S
C413 C414 1.395 . S
C413 H436 0.931 . S
C414 C413 1.395 . S
C414 C415 1.383 . S
C414 H437 0.931 . S
C415 C414 1.383 . S
C415 C416 1.394 . S
C416 C415 1.394 . S
C416 C417 1.378 . S
C416 H438 0.931 . S
C417 C412 1.377 . S
C417 C416 1.378 . S
C417 H439 0.931 . S
C418 O428 1.259 . S
C418 O429 1.270 . S
C419 O430 1.251 . S
C419 O431 1.251 . S
O420 C400 1.257 . S
O420 Eu401 2.473 . S
O421 C400 1.260 . S
O421 Eu401 2.480 . S
O422 Eu401 2.430 . S
O422 C408 1.259 . S
O423 Eu401 2.670 . S
O423 C408 1.270 . S
O423 Eu411 2.355 . S
O424 Eu401 2.394 . S
O424 C409 1.251 . S
O425 C409 1.251 . S
O425 Eu411 2.374 . S
O426 C410 1.257 . S
O426 Eu411 2.473 . S
O427 C410 1.260 . S
O427 Eu411 2.480 . S
O428 Eu411 2.430 . S
O428 C418 1.259 . S
O429 Eu401 2.355 . S
O429 Eu411 2.670 . S
O429 C418 1.270 . S
O430 Eu411 2.394 . S
O430 C419 1.251 . S
O431 Eu401 2.374 . S
O431 C419 1.251 . S
H432 C403 0.931 . S
H433 C404 0.931 . S
H434 C406 0.931 . S
H435 C407 0.931 . S
H436 C413 0.931 . S
H437 C414 0.931 . S
H438 C416 0.931 . S
H439 C417 0.931 . S
C440 Eu441 2.835 . S
C440 C442 1.500 . S
C440 O460 1.257 . S
C440 O461 1.260 . S
Eu441 C440 2.835 . S
Eu441 O460 2.473 . S
Eu441 O461 2.480 . S
Eu441 O462 2.430 . S
Eu441 O463 2.670 . S
Eu441 O464 2.394 . S
Eu441 O469 2.355 . S
Eu441 O471 2.374 . S
C442 C440 1.500 . S
C442 C443 1.377 . S
C442 C447 1.377 . S
C443 C442 1.377 . S
C443 C444 1.395 . S
C443 H472 0.931 . S
C444 C443 1.395 . S
C444 C445 1.383 . S
C444 H473 0.931 . S
C445 C444 1.383 . S
C445 C446 1.394 . S
C446 C445 1.394 . S
C446 C447 1.378 . S
C446 H474 0.931 . S
C447 C442 1.377 . S
C447 C446 1.378 . S
C447 H475 0.931 . S
C448 O462 1.259 . S
C448 O463 1.270 . S
C449 O464 1.251 . S
C449 O465 1.251 . S
C450 Eu451 2.835 . S
C450 C452 1.500 . S
C450 O466 1.257 . S
C450 O467 1.260 . S
Eu451 C450 2.835 . S
Eu451 O463 2.355 . S
Eu451 O465 2.374 . S
Eu451 O466 2.473 . S
Eu451 O467 2.480 . S
Eu451 O468 2.430 . S
Eu451 O469 2.670 . S
Eu451 O470 2.394 . S
C452 C450 1.500 . S
C452 C453 1.377 . S
C452 C457 1.377 . S
C453 C452 1.377 . S
C453 C454 1.395 . S
C453 H476 0.931 . S
C454 C453 1.395 . S
C454 C455 1.383 . S
C454 H477 0.931 . S
C455 C454 1.383 . S
C455 C456 1.394 . S
C456 C455 1.394 . S
C456 C457 1.378 . S
C456 H478 0.931 . S
C457 C452 1.377 . S
C457 C456 1.378 . S
C457 H479 0.931 . S
C458 O468 1.259 . S
C458 O469 1.270 . S
C459 O470 1.251 . S
C459 O471 1.251 . S
O460 C440 1.257 . S
O460 Eu441 2.473 . S
O461 C440 1.260 . S
O461 Eu441 2.480 . S
O462 Eu441 2.430 . S
O462 C448 1.259 . S
O463 Eu441 2.670 . S
O463 C448 1.270 . S
O463 Eu451 2.355 . S
O464 Eu441 2.394 . S
O464 C449 1.251 . S
O465 C449 1.251 . S
O465 Eu451 2.374 . S
O466 C450 1.257 . S
O466 Eu451 2.473 . S
O467 C450 1.260 . S
O467 Eu451 2.480 . S
O468 Eu451 2.430 . S
O468 C458 1.259 . S
O469 Eu441 2.355 . S
O469 Eu451 2.670 . S
O469 C458 1.270 . S
O470 Eu451 2.394 . S
O470 C459 1.251 . S
O471 Eu441 2.374 . S
O471 C459 1.251 . S
H472 C443 0.931 . S
H473 C444 0.931 . S
H474 C446 0.931 . S
H475 C447 0.931 . S
H476 C453 0.931 . S
H477 C454 0.931 . S
H478 C456 0.931 . S
H479 C457 0.931 . S
C480 Eu481 2.835 . S
C480 C482 1.500 . S
C480 O500 1.257 . S
C480 O501 1.260 . S
Eu481 C480 2.835 . S
Eu481 O500 2.473 . S
Eu481 O501 2.480 . S
Eu481 O502 2.430 . S
Eu481 O503 2.670 . S
Eu481 O504 2.394 . S
Eu481 O509 2.355 . S
Eu481 O511 2.374 . S
C482 C480 1.500 . S
C482 C483 1.377 . S
C482 C487 1.377 . S
C483 C482 1.377 . S
C483 C484 1.395 . S
C483 H512 0.931 . S
C484 C483 1.395 . S
C484 C485 1.383 . S
C484 H513 0.931 . S
C485 C484 1.383 . S
C485 C486 1.394 . S
C486 C485 1.394 . S
C486 C487 1.378 . S
C486 H514 0.931 . S
C487 C482 1.377 . S
C487 C486 1.378 . S
C487 H515 0.931 . S
C488 O502 1.259 . S
C488 O503 1.270 . S
C489 O504 1.251 . S
C489 O505 1.251 . S
C490 Eu491 2.835 . S
C490 C492 1.500 . S
C490 O506 1.257 . S
C490 O507 1.260 . S
Eu491 C490 2.835 . S
Eu491 O503 2.355 . S
Eu491 O505 2.374 . S
Eu491 O506 2.473 . S
Eu491 O507 2.480 . S
Eu491 O508 2.430 . S
Eu491 O509 2.670 . S
Eu491 O510 2.394 . S
C492 C490 1.500 . S
C492 C493 1.377 . S
C492 C497 1.377 . S
C493 C492 1.377 . S
C493 C494 1.395 . S
C493 H516 0.931 . S
C494 C493 1.395 . S
C494 C495 1.383 . S
C494 H517 0.931 . S
C495 C494 1.383 . S
C495 C496 1.394 . S
C496 C495 1.394 . S
C496 C497 1.378 . S
C496 H518 0.931 . S
C497 C492 1.377 . S
C497 C496 1.378 . S
C497 H519 0.931 . S
C498 O508 1.259 . S
C498 O509 1.270 . S
C499 O510 1.251 . S
C499 O511 1.251 . S
O500 C480 1.257 . S
O500 Eu481 2.473 . S
O501 C480 1.260 . S
O501 Eu481 2.480 . S
O502 Eu481 2.430 . S
O502 C488 1.259 . S
O503 Eu481 2.670 . S
O503 C488 1.270 . S
O503 Eu491 2.355 . S
O504 Eu481 2.394 . S
O504 C489 1.251 . S
O505 C489 1.251 . S
O505 Eu491 2.374 . S
O506 C490 1.257 . S
O506 Eu491 2.473 . S
O507 C490 1.260 . S
O507 Eu491 2.480 . S
O508 Eu491 2.430 . S
O508 C498 1.259 . S
O509 Eu481 2.355 . S
O509 Eu491 2.670 . S
O509 C498 1.270 . S
O510 Eu491 2.394 . S
O510 C499 1.251 . S
O511 Eu481 2.374 . S
O511 C499 1.251 . S
H512 C483 0.931 . S
H513 C484 0.931 . S
H514 C486 0.931 . S
H515 C487 0.931 . S
H516 C493 0.931 . S
H517 C494 0.931 . S
H518 C496 0.931 . S
H519 C497 0.931 . S
C520 Eu521 2.835 . S
C520 C522 1.500 . S
C520 O540 1.257 . S
C520 O541 1.260 . S
Eu521 C520 2.835 . S
Eu521 O540 2.473 . S
Eu521 O541 2.480 . S
Eu521 O542 2.430 . S
Eu521 O543 2.670 . S
Eu521 O544 2.394 . S
Eu521 O549 2.355 . S
Eu521 O551 2.374 . S
C522 C520 1.500 . S
C522 C523 1.377 . S
C522 C527 1.377 . S
C523 C522 1.377 . S
C523 C524 1.395 . S
C523 H552 0.931 . S
C524 C523 1.395 . S
C524 C525 1.383 . S
C524 H553 0.931 . S
C525 C524 1.383 . S
C525 C526 1.394 . S
C526 C525 1.394 . S
C526 C527 1.378 . S
C526 H554 0.931 . S
C527 C522 1.377 . S
C527 C526 1.378 . S
C527 H555 0.931 . S
C528 O542 1.259 . S
C528 O543 1.270 . S
C529 O544 1.251 . S
C529 O545 1.251 . S
C530 Eu531 2.835 . S
C530 C532 1.500 . S
C530 O546 1.257 . S
C530 O547 1.260 . S
Eu531 C530 2.835 . S
Eu531 O543 2.355 . S
Eu531 O545 2.374 . S
Eu531 O546 2.473 . S
Eu531 O547 2.480 . S
Eu531 O548 2.430 . S
Eu531 O549 2.670 . S
Eu531 O550 2.394 . S
C532 C530 1.500 . S
C532 C533 1.377 . S
C532 C537 1.377 . S
C533 C532 1.377 . S
C533 C534 1.395 . S
C533 H556 0.931 . S
C534 C533 1.395 . S
C534 C535 1.383 . S
C534 H557 0.931 . S
C535 C534 1.383 . S
C535 C536 1.394 . S
C536 C535 1.394 . S
C536 C537 1.378 . S
C536 H558 0.931 . S
C537 C532 1.377 . S
C537 C536 1.378 . S
C537 H559 0.931 . S
C538 O548 1.259 . S
C538 O549 1.270 . S
C539 O550 1.251 . S
C539 O551 1.251 . S
O540 C520 1.257 . S
O540 Eu521 2.473 . S
O541 C520 1.260 . S
O541 Eu521 2.480 . S
O542 Eu521 2.430 . S
O542 C528 1.259 . S
O543 Eu521 2.670 . S
O543 C528 1.270 . S
O543 Eu531 2.355 . S
O544 Eu521 2.394 . S
O544 C529 1.251 . S
O545 C529 1.251 . S
O545 Eu531 2.374 . S
O546 C530 1.257 . S
O546 Eu531 2.473 . S
O547 C530 1.260 . S
O547 Eu531 2.480 . S
O548 Eu531 2.430 . S
O548 C538 1.259 . S
O549 Eu521 2.355 . S
O549 Eu531 2.670 . S
O549 C538 1.270 . S
O550 Eu531 2.394 . S
O550 C539 1.251 . S
O551 Eu521 2.374 . S
O551 C539 1.251 . S
H552 C523 0.931 . S
H553 C524 0.931 . S
H554 C526 0.931 . S
H555 C527 0.931 . S
H556 C533 0.931 . S
H557 C534 0.931 . S
H558 C536 0.931 . S
H559 C537 0.931 . S
C560 Eu561 2.835 . S
C560 C562 1.500 . S
C560 O580 1.257 . S
C560 O581 1.260 . S
Eu561 C560 2.835 . S
Eu561 O580 2.473 . S
Eu561 O581 2.480 . S
Eu561 O582 2.430 . S
Eu561 O583 2.670 . S
Eu561 O584 2.394 . S
Eu561 O589 2.355 . S
Eu561 O591 2.374 . S
C562 C560 1.500 . S
C562 C563 1.377 . S
C562 C567 1.377 . S
C563 C562 1.377 . S
C563 C564 1.395 . S
C563 H592 0.931 . S
C564 C563 1.395 . S
C564 C565 1.383 . S
C564 H593 0.931 . S
C565 C564 1.383 . S
C565 C566 1.394 . S
C566 C565 1.394 . S
C566 C567 1.378 . S
C566 H594 0.931 . S
C567 C562 1.377 . S
C567 C566 1.378 . S
C567 H595 0.931 . S
C568 O582 1.259 . S
C568 O583 1.270 . S
C569 O584 1.251 . S
C569 O585 1.251 . S
C570 Eu571 2.835 . S
C570 C572 1.500 . S
C570 O586 1.257 . S
C570 O587 1.260 . S
Eu571 C570 2.835 . S
Eu571 O583 2.355 . S
Eu571 O585 2.374 . S
Eu571 O586 2.473 . S
Eu571 O587 2.480 . S
Eu571 O588 2.430 . S
Eu571 O589 2.670 . S
Eu571 O590 2.394 . S
C572 C570 1.500 . S
C572 C573 1.377 . S
C572 C577 1.377 . S
C573 C572 1.377 . S
C573 C574 1.395 . S
C573 H596 0.931 . S
C574 C573 1.395 . S
C574 C575 1.383 . S
C574 H597 0.931 . S
C575 C574 1.383 . S
C575 C576 1.394 . S
C576 C575 1.394 . S
C576 C577 1.378 . S
C576 H598 0.931 . S
C577 C572 1.377 . S
C577 C576 1.378 . S
C577 H599 0.931 . S
C578 O588 1.259 . S
C578 O589 1.270 . S
C579 O590 1.251 . S
C579 O591 1.251 . S
O580 C560 1.257 . S
O580 Eu561 2.473 . S
O581 C560 1.260 . S
O581 Eu561 2.480 . S
O582 Eu561 2.430 . S
O582 C568 1.259 . S
O583 Eu561 2.670 . S
O583 C568 1.270 . S
O583 Eu571 2.355 . S
O584 Eu561 2.394 . S
O584 C569 1.251 . S
O585 C569 1.251 . S
O585 Eu571 2.374 . S
O586 C570 1.257 . S
O586 Eu571 2.473 . S
O587 C570 1.260 . S
O587 Eu571 2.480 . S
O588 Eu571 2.430 . S
O588 C578 1.259 . S
O589 Eu561 2.355 . S
O589 Eu571 2.670 . S
O589 C578 1.270 . S
O590 Eu571 2.394 . S
O590 C579 1.251 . S
O591 Eu561 2.374 . S
O591 C579 1.251 . S
H592 C563 0.931 . S
H593 C564 0.931 . S
H594 C566 0.931 . S
H595 C567 0.931 . S
H596 C573 0.931 . S
H597 C574 0.931 . S
H598 C576 0.931 . S
H599 C577 0.931 . S
C600 Eu601 2.835 . S
C600 C602 1.500 . S
C600 O620 1.257 . S
C600 O621 1.260 . S
Eu601 C600 2.835 . S
Eu601 O620 2.473 . S
Eu601 O621 2.480 . S
Eu601 O622 2.430 . S
Eu601 O623 2.670 . S
Eu601 O624 2.394 . S
Eu601 O629 2.355 . S
Eu601 O631 2.374 . S
C602 C600 1.500 . S
C602 C603 1.377 . S
C602 C607 1.377 . S
C603 C602 1.377 . S
C603 C604 1.395 . S
C603 H632 0.931 . S
C604 C603 1.395 . S
C604 C605 1.383 . S
C604 H633 0.931 . S
C605 C604 1.383 . S
C605 C606 1.394 . S
C606 C605 1.394 . S
C606 C607 1.378 . S
C606 H634 0.931 . S
C607 C602 1.377 . S
C607 C606 1.378 . S
C607 H635 0.931 . S
C608 O622 1.259 . S
C608 O623 1.270 . S
C609 O624 1.251 . S
C609 O625 1.251 . S
C610 Eu611 2.835 . S
C610 C612 1.500 . S
C610 O626 1.257 . S
C610 O627 1.260 . S
Eu611 C610 2.835 . S
Eu611 O623 2.355 . S
Eu611 O625 2.374 . S
Eu611 O626 2.473 . S
Eu611 O627 2.480 . S
Eu611 O628 2.430 . S
Eu611 O629 2.670 . S
Eu611 O630 2.394 . S
C612 C610 1.500 . S
C612 C613 1.377 . S
C612 C617 1.377 . S
C613 C612 1.377 . S
C613 C614 1.395 . S
C613 H636 0.931 . S
C614 C613 1.395 . S
C614 C615 1.383 . S
C614 H637 0.931 . S
C615 C614 1.383 . S
C615 C616 1.394 . S
C616 C615 1.394 . S
C616 C617 1.378 . S
C616 H638 0.931 . S
C617 C612 1.377 . S
C617 C616 1.378 . S
C617 H639 0.931 . S
C618 O628 1.259 . S
C618 O629 1.270 . S
C619 O630 1.251 . S
C619 O631 1.251 . S
O620 C600 1.257 . S
O620 Eu601 2.473 . S
O621 C600 1.260 . S
O621 Eu601 2.480 . S
O622 Eu601 2.430 . S
O622 C608 1.259 . S
O623 Eu601 2.670 . S
O623 C608 1.270 . S
O623 Eu611 2.355 . S
O624 Eu601 2.394 . S
O624 C609 1.251 . S
O625 C609 1.251 . S
O625 Eu611 2.374 . S
O626 C610 1.257 . S
O626 Eu611 2.473 . S
O627 C610 1.260 . S
O627 Eu611 2.480 . S
O628 Eu611 2.430 . S
O628 C618 1.259 . S
O629 Eu601 2.355 . S
O629 Eu611 2.670 . S
O629 C618 1.270 . S
O630 Eu611 2.394 . S
O630 C619 1.251 . S
O631 Eu601 2.374 . S
O631 C619 1.251 . S
H632 C603 0.931 . S
H633 C604 0.931 . S
H634 C606 0.931 . S
H635 C607 0.931 . S
H636 C613 0.931 . S
H637 C614 0.931 . S
H638 C616 0.931 . S
H639 C617 0.931 . S
C640 C641 1.391 . S
C640 C642 1.394 . S
C640 H656 0.931 . S
C641 C640 1.391 . S
C641 C645 1.376 . S
C642 C640 1.394 . S
C642 C643 1.369 . S
C642 C646 1.531 . S
C643 C642 1.369 . S
C643 C644 1.410 . S
C643 C651 1.503 . S
C644 C643 1.410 . S
C644 C645 1.392 . S
C644 C647 1.511 . S
C645 C641 1.376 . S
C645 C644 1.392 . S
C645 H657 0.929 . S
C646 C642 1.531 . S
C646 H658 0.960 . S
C646 H659 0.962 . S
C646 H660 0.960 . S
C647 C644 1.511 . S
C647 H661 0.961 . S
C647 H662 0.961 . S
C647 H663 0.961 . S
C648 C649 1.370 . S
C648 C650 1.353 1_545 S
C648 H664 0.931 . S
C649 C648 1.370 . S
C649 C653 1.408 . S
C650 C648 1.353 1_565 S
C650 C651 1.376 . S
C650 C654 1.529 . S
C651 C643 1.503 . S
C651 C650 1.376 . S
C651 C652 1.403 . S
C652 C651 1.403 . S
C652 C653 1.404 1_565 S
C652 C655 1.539 . S
C653 C649 1.408 . S
C653 C652 1.404 1_545 S
C653 H665 0.930 . S
C654 C650 1.529 . S
C654 H666 0.956 . S
C654 H667 0.961 . S
C654 H668 0.941 1_565 S
C655 C652 1.539 . S
C655 H669 0.958 . S
C655 H670 0.961 . S
C655 H671 0.960 . S
H656 C640 0.931 . S
H657 C645 0.929 . S
H658 C646 0.960 . S
H659 C646 0.962 . S
H660 C646 0.960 . S
H661 C647 0.961 . S
H662 C647 0.961 . S
H663 C647 0.961 . S
H664 C648 0.931 . S
H665 C653 0.930 . S
H666 C654 0.956 . S
H667 C654 0.961 . S
H668 C654 0.941 1_545 S
H669 C655 0.958 . S
H670 C655 0.961 . S
H671 C655 0.960 . S
C672 C673 1.391 . S
C672 C674 1.394 . S
C672 H688 0.931 . S
C673 C672 1.391 . S
C673 C677 1.376 . S
C674 C672 1.394 . S
C674 C675 1.369 . S
C674 C678 1.531 . S
C675 C674 1.369 . S
C675 C676 1.410 . S
C675 C683 1.503 . S
C676 C675 1.410 . S
C676 C677 1.392 . S
C676 C679 1.511 . S
C677 C673 1.376 . S
C677 C676 1.392 . S
C677 H689 0.929 . S
C678 C674 1.531 . S
C678 H690 0.976 . S
C678 H691 0.962 . S
C678 H692 0.960 . S
C679 C676 1.511 . S
C679 H693 0.961 . S
C679 H694 0.961 . S
C679 H695 0.961 . S
C680 C681 1.370 . S
C680 C682 1.363 1_455 S
C680 H696 0.931 . S
C681 C680 1.370 . S
C681 C685 1.408 . S
C682 C680 1.363 1_655 S
C682 C683 1.370 . S
C682 C686 1.524 . S
C683 C675 1.503 . S
C683 C682 1.370 . S
C683 C684 1.403 1_655 S
C684 C683 1.403 1_455 S
C684 C685 1.404 . S
C684 C687 1.537 1_455 S
C685 C681 1.408 . S
C685 C684 1.404 . S
C685 H697 0.930 . S
C686 C682 1.524 . S
C686 H698 0.956 . S
C686 H699 0.961 . S
C686 H700 0.961 . S
C687 C684 1.537 1_655 S
C687 H701 0.955 1_655 S
C687 H702 0.957 1_655 S
C687 H703 0.969 . S
H688 C672 0.931 . S
H689 C677 0.929 . S
H690 C678 0.976 . S
H691 C678 0.962 . S
H692 C678 0.960 . S
H693 C679 0.961 . S
H694 C679 0.961 . S
H695 C679 0.961 . S
H696 C680 0.931 . S
H697 C685 0.930 . S
H698 C686 0.956 . S
H699 C686 0.961 . S
H700 C686 0.961 . S
H701 C687 0.955 1_455 S
H702 C687 0.957 1_455 S
H703 C687 0.969 . S
C704 C705 1.391 . S
C704 C706 1.394 1_565 S
C704 H720 0.931 . S
C705 C704 1.391 . S
C705 C709 1.376 . S
C706 C704 1.394 1_545 S
C706 C707 1.369 . S
C706 C710 1.531 . S
C707 C706 1.369 . S
C707 C708 1.410 1_545 S
C707 C715 1.503 . S
C708 C707 1.410 1_565 S
C708 C709 1.392 . S
C708 C711 1.507 1_565 S
C709 C705 1.376 . S
C709 C708 1.392 . S
C709 H721 0.929 . S
C710 C706 1.531 . S
C710 H722 0.960 . S
C710 H723 0.962 . S
C710 H724 0.960 . S
C711 C708 1.507 1_545 S
C711 H725 0.940 1_545 S
C711 H726 0.977 . S
C711 H727 0.970 . S
C712 C713 1.370 . S
C712 C714 1.363 . S
C712 H728 0.931 . S
C713 C712 1.370 . S
C713 C717 1.408 . S
C714 C712 1.363 . S
C714 C715 1.370 . S
C714 C718 1.524 . S
C715 C707 1.503 . S
C715 C714 1.370 . S
C715 C716 1.403 . S
C716 C715 1.403 . S
C716 C717 1.404 . S
C716 C719 1.539 . S
C717 C713 1.408 . S
C717 C716 1.404 . S
C717 H729 0.930 . S
C718 C714 1.524 . S
C718 H730 0.956 . S
C718 H731 0.961 . S
C718 H732 0.961 . S
C719 C716 1.539 . S
C719 H733 0.958 . S
C719 H734 0.961 . S
C719 H735 0.960 . S
H720 C704 0.931 . S
H721 C709 0.929 . S
H722 C710 0.960 . S
H723 C710 0.962 . S
H724 C710 0.960 . S
H725 C711 0.940 1_565 S
H726 C711 0.977 . S
H727 C711 0.970 . S
H728 C712 0.931 . S
H729 C717 0.930 . S
H730 C718 0.956 . S
H731 C718 0.961 . S
H732 C718 0.961 . S
H733 C719 0.958 . S
H734 C719 0.961 . S
H735 C719 0.960 . S
C736 C737 1.391 . S
C736 C738 1.394 . S
C736 H752 0.931 . S
C737 C736 1.391 . S
C737 C741 1.376 . S
C738 C736 1.394 . S
C738 C739 1.369 1_655 S
C738 C742 1.531 . S
C739 C738 1.369 1_455 S
C739 C740 1.410 . S
C739 C747 1.503 . S
C740 C739 1.410 . S
C740 C741 1.392 1_455 S
C740 C743 1.511 . S
C741 C737 1.376 . S
C741 C740 1.392 1_655 S
C741 H753 0.929 . S
C742 C738 1.531 . S
C742 H754 0.960 1_655 S
C742 H755 0.962 . S
C742 H756 0.960 . S
C743 C740 1.511 . S
C743 H757 0.961 . S
C743 H758 0.961 . S
C743 H759 0.961 . S
C744 C745 1.370 . S
C744 C746 1.363 . S
C744 H760 0.931 . S
C745 C744 1.370 . S
C745 C749 1.408 . S
C746 C744 1.363 . S
C746 C747 1.370 . S
C746 C750 1.524 . S
C747 C739 1.503 . S
C747 C746 1.370 . S
C747 C748 1.403 . S
C748 C747 1.403 . S
C748 C749 1.404 . S
C748 C751 1.539 . S
C749 C745 1.408 . S
C749 C748 1.404 . S
C749 H761 0.930 . S
C750 C746 1.524 . S
C750 H762 0.956 . S
C750 H763 0.961 . S
C750 H764 0.961 . S
C751 C748 1.539 . S
C751 H765 0.958 . S
C751 H766 0.961 . S
C751 H767 0.960 . S
H752 C736 0.931 . S
H753 C741 0.929 . S
H754 C742 0.960 1_455 S
H755 C742 0.962 . S
H756 C742 0.960 . S
H757 C743 0.961 . S
H758 C743 0.961 . S
H759 C743 0.961 . S
H760 C744 0.931 . S
H761 C749 0.930 . S
H762 C750 0.956 . S
H763 C750 0.961 . S
H764 C750 0.961 . S
H765 C751 0.958 . S
H766 C751 0.961 . S
H767 C751 0.960 . S
C768 C769 1.391 . S
C768 C770 1.394 . S
C768 H784 0.931 . S
C769 C768 1.391 . S
C769 C773 1.376 . S
C770 C768 1.394 . S
C770 C771 1.369 . S
C770 C774 1.531 . S
C771 C770 1.369 . S
C771 C772 1.410 . S
C771 C779 1.503 . S
C772 C771 1.410 . S
C772 C773 1.392 . S
C772 C775 1.511 . S
C773 C769 1.376 . S
C773 C772 1.392 . S
C773 H785 0.929 . S
C774 C770 1.531 . S
C774 H786 0.960 . S
C774 H787 0.962 . S
C774 H788 0.960 . S
C775 C772 1.511 . S
C775 H789 0.961 . S
C775 H790 0.961 . S
C775 H791 0.961 . S
C776 C777 1.370 . S
C776 C778 1.363 . S
C776 H792 0.931 . S
C777 C776 1.370 . S
C777 C781 1.408 1_556 S
C778 C776 1.363 . S
C778 C779 1.370 1_556 S
C778 C782 1.524 . S
C779 C771 1.503 . S
C779 C778 1.370 1_554 S
C779 C780 1.403 . S
C780 C779 1.403 . S
C780 C781 1.404 . S
C780 C783 1.539 . S
C781 C777 1.408 1_554 S
C781 C780 1.404 . S
C781 H793 0.930 . S
C782 C778 1.524 . S
C782 H794 0.956 . S
C782 H795 0.961 . S
C782 H796 0.961 . S
C783 C780 1.539 . S
C783 H797 0.958 . S
C783 H798 0.961 . S
C783 H799 0.960 . S
H784 C768 0.931 . S
H785 C773 0.929 . S
H786 C774 0.960 . S
H787 C774 0.962 . S
H788 C774 0.960 . S
H789 C775 0.961 . S
H790 C775 0.961 . S
H791 C775 0.961 . S
H792 C776 0.931 . S
H793 C781 0.930 . S
H794 C782 0.956 . S
H795 C782 0.961 . S
H796 C782 0.961 . S
H797 C783 0.958 . S
H798 C783 0.961 . S
H799 C783 0.960 . S
C800 C801 1.391 . S
C800 C802 1.394 . S
C800 H816 0.931 . S
C801 C800 1.391 . S
C801 C805 1.376 1_554 S
C802 C800 1.394 . S
C802 C803 1.369 1_554 S
C802 C806 1.531 . S
C803 C802 1.369 1_556 S
C803 C804 1.410 . S
C803 C811 1.503 . S
C804 C803 1.410 . S
C804 C805 1.392 . S
C804 C807 1.511 . S
C805 C801 1.376 1_556 S
C805 C804 1.392 . S
C805 H817 0.929 . S
C806 C802 1.531 . S
C806 H818 0.960 . S
C806 H819 0.962 . S
C806 H820 0.960 . S
C807 C804 1.511 . S
C807 H821 0.961 . S
C807 H822 0.961 . S
C807 H823 0.961 . S
C808 C809 1.370 . S
C808 C810 1.363 . S
C808 H824 0.931 . S
C809 C808 1.370 . S
C809 C813 1.408 . S
C810 C808 1.363 . S
C810 C811 1.370 . S
C810 C814 1.524 . S
C811 C803 1.503 . S
C811 C810 1.370 . S
C811 C812 1.403 . S
C812 C811 1.403 . S
C812 C813 1.404 . S
C812 C815 1.539 . S
C813 C809 1.408 . S
C813 C812 1.404 . S
C813 H825 0.930 . S
C814 C810 1.524 . S
C814 H826 0.956 . S
C814 H827 0.961 . S
C814 H828 0.961 . S
C815 C812 1.539 . S
C815 H829 0.958 1_556 S
C815 H830 0.961 . S
C815 H831 0.960 . S
H816 C800 0.931 . S
H817 C805 0.929 . S
H818 C806 0.960 . S
H819 C806 0.962 . S
H820 C806 0.960 . S
H821 C807 0.961 . S
H822 C807 0.961 . S
H823 C807 0.961 . S
H824 C808 0.931 . S
H825 C813 0.930 . S
H826 C814 0.956 . S
H827 C814 0.961 . S
H828 C814 0.961 . S
H829 C815 0.958 1_554 S
H830 C815 0.961 . S
H831 C815 0.960 . S
C832 C833 1.391 . S
C832 C834 1.394 . S
C832 H848 0.931 . S
C833 C832 1.391 . S
C833 C837 1.376 . S
C834 C832 1.394 . S
C834 C835 1.369 . S
C834 C838 1.531 . S
C835 C834 1.369 . S
C835 C836 1.410 . S
C835 C843 1.503 . S
C836 C835 1.410 . S
C836 C837 1.392 . S
C836 C839 1.511 . S
C837 C833 1.376 . S
C837 C836 1.392 . S
C837 H849 0.929 . S
C838 C834 1.531 . S
C838 H850 0.960 . S
C838 H851 0.962 . S
C838 H852 0.960 . S
C839 C836 1.511 . S
C839 H853 0.970 . S
C839 H854 0.961 1_554 S
C839 H855 0.961 . S
C840 C841 1.370 . S
C840 C842 1.363 . S
C840 H856 0.931 . S
C841 C840 1.370 . S
C841 C845 1.408 1_556 S
C842 C840 1.363 . S
C842 C843 1.370 1_556 S
C842 C846 1.524 . S
C843 C835 1.503 . S
C843 C842 1.370 1_554 S
C843 C844 1.403 . S
C844 C843 1.403 . S
C844 C845 1.404 . S
C844 C847 1.539 . S
C845 C841 1.408 1_554 S
C845 C844 1.404 . S
C845 H857 0.930 . S
C846 C842 1.524 . S
C846 H858 0.956 . S
C846 H859 0.961 . S
C846 H860 0.961 . S
C847 C844 1.539 . S
C847 H861 0.958 . S
C847 H862 0.961 . S
C847 H863 0.960 . S
H848 C832 0.931 . S
H849 C837 0.929 . S
H850 C838 0.960 . S
H851 C838 0.962 . S
H852 C838 0.960 . S
H853 C839 0.970 . S
H854 C839 0.961 1_556 S
H855 C839 0.961 . S
H856 C840 0.931 . S
H857 C845 0.930 . S
H858 C846 0.956 . S
H859 C846 0.961 . S
H860 C846 0.961 . S
H861 C847 0.958 . S
H862 C847 0.961 . S
H863 C847 0.960 . S
C864 C865 1.391 1_556 S
C864 C866 1.394 . S
C864 H880 0.931 . S
C865 C864 1.391 1_554 S
C865 C869 1.376 . S
C866 C864 1.394 . S
C866 C867 1.369 . S
C866 C870 1.531 . S
C867 C866 1.369 . S
C867 C868 1.410 1_556 S
C867 C875 1.503 . S
C868 C867 1.410 1_554 S
C868 C869 1.392 . S
C868 C871 1.511 . S
C869 C865 1.376 . S
C869 C868 1.392 . S
C869 H881 0.929 . S
C870 C866 1.531 . S
C870 H882 0.960 . S
C870 H883 0.962 . S
C870 H884 0.960 . S
C871 C868 1.511 . S
C871 H885 0.961 . S
C871 H886 0.961 . S
C871 H887 0.961 . S
C872 C873 1.370 . S
C872 C874 1.363 . S
C872 H888 0.931 . S
C873 C872 1.370 . S
C873 C877 1.408 . S
C874 C872 1.363 . S
C874 C875 1.370 . S
C874 C878 1.524 1_556 S
C875 C867 1.503 . S
C875 C874 1.370 . S
C875 C876 1.403 . S
C876 C875 1.403 . S
C876 C877 1.404 . S
C876 C879 1.539 . S
C877 C873 1.408 . S
C877 C876 1.404 . S
C877 H889 0.930 . S
C878 C874 1.524 1_554 S
C878 H890 0.956 . S
C878 H891 0.961 . S
C878 H892 0.961 . S
C879 C876 1.539 . S
C879 H893 0.958 . S
C879 H894 0.961 . S
C879 H895 0.960 . S
H880 C864 0.931 . S
H881 C869 0.929 . S
H882 C870 0.960 . S
H883 C870 0.962 . S
H884 C870 0.960 . S
H885 C871 0.961 . S
H886 C871 0.961 . S
H887 C871 0.961 . S
H888 C872 0.931 . S
H889 C877 0.930 . S
H890 C878 0.956 . S
H891 C878 0.961 . S
H892 C878 0.961 . S
H893 C879 0.958 . S
H894 C879 0.961 . S
H895 C879 0.960 . S
C896 C897 1.391 . S
C896 C898 1.394 . S
C896 H912 0.931 . S
C897 C896 1.391 . S
C897 C901 1.376 . S
C898 C896 1.394 . S
C898 C899 1.369 . S
C898 C902 1.531 . S
C899 C898 1.369 . S
C899 C900 1.410 . S
C899 C907 1.503 . S
C900 C899 1.410 . S
C900 C901 1.392 . S
C900 C903 1.511 . S
C901 C897 1.376 . S
C901 C900 1.392 . S
C901 H913 0.929 . S
C902 C898 1.531 . S
C902 H914 0.960 . S
C902 H915 0.962 . S
C902 H916 0.960 . S
C903 C900 1.511 . S
C903 H917 0.961 . S
C903 H918 0.961 . S
C903 H919 0.961 . S
C904 C905 1.370 . S
C904 C906 1.363 . S
C904 H920 0.931 . S
C905 C904 1.370 . S
C905 C909 1.408 . S
C906 C904 1.363 . S
C906 C907 1.370 . S
C906 C910 1.524 . S
C907 C899 1.503 . S
C907 C906 1.370 . S
C907 C908 1.403 . S
C908 C907 1.403 . S
C908 C909 1.404 . S
C908 C911 1.539 . S
C909 C905 1.408 . S
C909 C908 1.404 . S
C909 H921 0.930 . S
C910 C906 1.524 . S
C910 H922 0.956 . S
C910 H923 0.961 . S
C910 H924 0.961 . S
C911 C908 1.539 . S
C911 H925 0.958 . S
C911 H926 0.961 . S
C911 H927 0.960 . S
H912 C896 0.931 . S
H913 C901 0.929 . S
H914 C902 0.960 . S
H915 C902 0.962 . S
H916 C902 0.960 . S
H917 C903 0.961 . S
H918 C903 0.961 . S
H919 C903 0.961 . S
H920 C904 0.931 . S
H921 C909 0.930 . S
H922 C910 0.956 . S
H923 C910 0.961 . S
H924 C910 0.961 . S
H925 C911 0.958 . S
H926 C911 0.961 . S
H927 C911 0.960 . S
C928 C929 1.391 . S
C928 C930 1.394 . S
C928 H944 0.931 . S
C929 C928 1.391 . S
C929 C933 1.376 . S
C930 C928 1.394 . S
C930 C931 1.369 . S
C930 C934 1.531 . S
C931 C930 1.369 . S
C931 C932 1.410 . S
C931 C939 1.503 . S
C932 C931 1.410 . S
C932 C933 1.392 . S
C932 C935 1.511 . S
C933 C929 1.376 . S
C933 C932 1.392 . S
C933 H945 0.929 . S
C934 C930 1.531 . S
C934 H946 0.960 . S
C934 H947 0.962 . S
C934 H948 0.960 . S
C935 C932 1.511 . S
C935 H949 0.961 . S
C935 H950 0.961 . S
C935 H951 0.961 . S
C936 C937 1.370 . S
C936 C938 1.363 . S
C936 H952 0.931 . S
C937 C936 1.370 . S
C937 C941 1.408 . S
C938 C936 1.363 . S
C938 C939 1.370 . S
C938 C942 1.524 . S
C939 C931 1.503 . S
C939 C938 1.370 . S
C939 C940 1.403 . S
C940 C939 1.403 . S
C940 C941 1.404 . S
C940 C943 1.539 . S
C941 C937 1.408 . S
C941 C940 1.404 . S
C941 H953 0.930 . S
C942 C938 1.524 . S
C942 H954 0.956 . S
C942 H955 0.961 . S
C942 H956 0.961 . S
C943 C940 1.539 . S
C943 H957 0.958 . S
C943 H958 0.961 . S
C943 H959 0.960 . S
H944 C928 0.931 . S
H945 C933 0.929 . S
H946 C934 0.960 . S
H947 C934 0.962 . S
H948 C934 0.960 . S
H949 C935 0.961 . S
H950 C935 0.961 . S
H951 C935 0.961 . S
H952 C936 0.931 . S
H953 C941 0.930 . S
H954 C942 0.956 . S
H955 C942 0.961 . S
H956 C942 0.961 . S
H957 C943 0.958 . S
H958 C943 0.961 . S
H959 C943 0.960 . S
C960 C961 1.391 . S
C960 C962 1.394 . S
C960 H976 0.931 . S
C961 C960 1.391 . S
C961 C965 1.376 . S
C962 C960 1.394 . S
C962 C963 1.369 . S
C962 C966 1.531 . S
C963 C962 1.369 . S
C963 C964 1.410 . S
C963 C971 1.503 . S
C964 C963 1.410 . S
C964 C965 1.392 . S
C964 C967 1.511 . S
C965 C961 1.376 . S
C965 C964 1.392 . S
C965 H977 0.929 . S
C966 C962 1.531 . S
C966 H978 0.960 . S
C966 H979 0.962 . S
C966 H980 0.960 . S
C967 C964 1.511 . S
C967 H981 0.961 . S
C967 H982 0.961 . S
C967 H983 0.961 . S
C968 C969 1.370 . S
C968 C970 1.363 . S
C968 H984 0.931 . S
C969 C968 1.370 . S
C969 C973 1.408 . S
C970 C968 1.363 . S
C970 C971 1.370 . S
C970 C974 1.524 . S
C971 C963 1.503 . S
C971 C970 1.370 . S
C971 C972 1.403 . S
C972 C971 1.403 . S
C972 C973 1.404 . S
C972 C975 1.539 . S
C973 C969 1.408 . S
C973 C972 1.404 . S
C973 H985 0.930 . S
C974 C970 1.524 . S
C974 H986 0.956 . S
C974 H987 0.961 . S
C974 H988 0.961 . S
C975 C972 1.539 . S
C975 H989 0.958 . S
C975 H990 0.961 . S
C975 H991 0.960 . S
H976 C960 0.931 . S
H977 C965 0.929 . S
H978 C966 0.960 . S
H979 C966 0.962 . S
H980 C966 0.960 . S
H981 C967 0.961 . S
H982 C967 0.961 . S
H983 C967 0.961 . S
H984 C968 0.931 . S
H985 C973 0.930 . S
H986 C974 0.956 . S
H987 C974 0.961 . S
H988 C974 0.961 . S
H989 C975 0.958 . S
H990 C975 0.961 . S
H991 C975 0.960 . S
C992 C993 1.391 . S
C992 C994 1.394 . S
C992 H1008 0.931 . S
C993 C992 1.391 . S
C993 C997 1.376 . S
C994 C992 1.394 . S
C994 C995 1.369 . S
C994 C998 1.531 . S
C995 C994 1.369 . S
C995 C996 1.410 . S
C995 C1003 1.503 . S
C996 C995 1.410 . S
C996 C997 1.392 . S
C996 C999 1.511 . S
C997 C993 1.376 . S
C997 C996 1.392 . S
C997 H1009 0.929 . S
C998 C994 1.531 . S
C998 H1010 0.960 . S
C998 H1011 0.962 . S
C998 H1012 0.960 . S
C999 C996 1.511 . S
C999 H1013 0.961 . S
C999 H1014 0.961 . S
C999 H1015 0.961 . S
C1000 C1001 1.370 . S
C1000 C1002 1.363 . S
C1000 H1016 0.931 . S
C1001 C1000 1.370 . S
C1001 C1005 1.408 . S
C1002 C1000 1.363 . S
C1002 C1003 1.370 . S
C1002 C1006 1.524 . S
C1003 C995 1.503 . S
C1003 C1002 1.370 . S
C1003 C1004 1.403 . S
C1004 C1003 1.403 . S
C1004 C1005 1.404 . S
C1004 C1007 1.539 . S
C1005 C1001 1.408 . S
C1005 C1004 1.404 . S
C1005 H1017 0.930 . S
C1006 C1002 1.524 . S
C1006 H1018 0.956 . S
C1006 H1019 0.961 . S
C1006 H1020 0.961 . S
C1007 C1004 1.539 . S
C1007 H1021 0.958 . S
C1007 H1022 0.961 . S
C1007 H1023 0.960 . S
H1008 C992 0.931 . S
H1009 C997 0.929 . S
H1010 C998 0.960 . S
H1011 C998 0.962 . S
H1012 C998 0.960 . S
H1013 C999 0.961 . S
H1014 C999 0.961 . S
H1015 C999 0.961 . S
H1016 C1000 0.931 . S
H1017 C1005 0.930 . S
H1018 C1006 0.956 . S
H1019 C1006 0.961 . S
H1020 C1006 0.961 . S
H1021 C1007 0.958 . S
H1022 C1007 0.961 . S
H1023 C1007 0.960 . S
C1024 C1025 1.391 . S
C1024 C1026 1.394 1_565 S
C1024 H1040 0.931 . S
C1025 C1024 1.391 . S
C1025 C1029 1.376 . S
C1026 C1024 1.394 1_545 S
C1026 C1027 1.369 . S
C1026 C1030 1.531 . S
C1027 C1026 1.369 . S
C1027 C1028 1.410 1_545 S
C1027 C1035 1.503 . S
C1028 C1027 1.410 1_565 S
C1028 C1029 1.392 . S
C1028 C1031 1.511 1_565 S
C1029 C1025 1.376 . S
C1029 C1028 1.392 . S
C1029 H1041 0.929 . S
C1030 C1026 1.531 . S
C1030 H1042 0.960 . S
C1030 H1043 0.962 . S
C1030 H1044 0.960 . S
C1031 C1028 1.511 1_545 S
C1031 H1045 0.961 1_545 S
C1031 H1046 0.961 . S
C1031 H1047 0.961 . S
C1032 C1033 1.370 . S
C1032 C1034 1.363 . S
C1032 H1048 0.931 . S
C1033 C1032 1.370 . S
C1033 C1037 1.408 . S
C1034 C1032 1.363 . S
C1034 C1035 1.370 . S
C1034 C1038 1.524 . S
C1035 C1027 1.503 . S
C1035 C1034 1.370 . S
C1035 C1036 1.403 . S
C1036 C1035 1.403 . S
C1036 C1037 1.404 . S
C1036 C1039 1.539 . S
C1037 C1033 1.408 . S
C1037 C1036 1.404 . S
C1037 H1049 0.930 . S
C1038 C1034 1.524 . S
C1038 H1050 0.956 . S
C1038 H1051 0.961 . S
C1038 H1052 0.961 . S
C1039 C1036 1.539 . S
C1039 H1053 0.958 . S
C1039 H1054 0.961 . S
C1039 H1055 0.960 . S
H1040 C1024 0.931 . S
H1041 C1029 0.929 . S
H1042 C1030 0.960 . S
H1043 C1030 0.962 . S
H1044 C1030 0.960 . S
H1045 C1031 0.961 1_565 S
H1046 C1031 0.961 . S
H1047 C1031 0.961 . S
H1048 C1032 0.931 . S
H1049 C1037 0.930 . S
H1050 C1038 0.956 . S
H1051 C1038 0.961 . S
H1052 C1038 0.961 . S
H1053 C1039 0.958 . S
H1054 C1039 0.961 . S
H1055 C1039 0.960 . S
C1056 C1057 1.391 . S
C1056 C1058 1.394 . S
C1056 H1072 0.931 . S
C1057 C1056 1.391 . S
C1057 C1061 1.376 . S
C1058 C1056 1.394 . S
C1058 C1059 1.369 . S
C1058 C1062 1.531 . S
C1059 C1058 1.369 . S
C1059 C1060 1.410 . S
C1059 C1067 1.503 . S
C1060 C1059 1.410 . S
C1060 C1061 1.392 . S
C1060 C1063 1.511 . S
C1061 C1057 1.376 . S
C1061 C1060 1.392 . S
C1061 H1073 0.929 . S
C1062 C1058 1.531 . S
C1062 H1074 0.960 . S
C1062 H1075 0.962 . S
C1062 H1076 0.960 . S
C1063 C1060 1.511 . S
C1063 H1077 0.961 . S
C1063 H1078 0.961 . S
C1063 H1079 0.961 . S
C1064 C1065 1.370 . S
C1064 C1066 1.363 1_655 S
C1064 H1080 0.931 . S
C1065 C1064 1.370 . S
C1065 C1069 1.408 . S
C1066 C1064 1.363 1_455 S
C1066 C1067 1.370 . S
C1066 C1070 1.524 . S
C1067 C1059 1.503 . S
C1067 C1066 1.370 . S
C1067 C1068 1.403 1_455 S
C1068 C1067 1.403 1_655 S
C1068 C1069 1.404 . S
C1068 C1071 1.547 . S
C1069 C1065 1.408 . S
C1069 C1068 1.404 . S
C1069 H1081 0.930 . S
C1070 C1066 1.524 . S
C1070 H1082 0.956 . S
C1070 H1083 0.961 . S
C1070 H1084 0.961 . S
C1071 C1068 1.547 . S
C1071 H1085 0.940 1_655 S
C1071 H1086 1.000 . S
C1071 H1087 0.933 1_655 S
H1072 C1056 0.931 . S
H1073 C1061 0.929 . S
H1074 C1062 0.960 . S
H1075 C1062 0.962 . S
H1076 C1062 0.960 . S
H1077 C1063 0.961 . S
H1078 C1063 0.961 . S
H1079 C1063 0.961 . S
H1080 C1064 0.931 . S
H1081 C1069 0.930 . S
H1082 C1070 0.956 . S
H1083 C1070 0.961 . S
H1084 C1070 0.961 . S
H1085 C1071 0.940 1_455 S
H1086 C1071 1.000 . S
H1087 C1071 0.933 1_455 S
C1088 C1089 1.391 . S
C1088 C1090 1.394 . S
C1088 H1104 0.931 . S
C1089 C1088 1.391 . S
C1089 C1093 1.376 . S
C1090 C1088 1.394 . S
C1090 C1091 1.369 . S
C1090 C1094 1.531 . S
C1091 C1090 1.369 . S
C1091 C1092 1.410 . S
C1091 C1099 1.503 . S
C1092 C1091 1.410 . S
C1092 C1093 1.392 . S
C1092 C1095 1.511 . S
C1093 C1089 1.376 . S
C1093 C1092 1.392 . S
C1093 H1105 0.929 . S
C1094 C1090 1.531 . S
C1094 H1106 0.960 . S
C1094 H1107 0.962 . S
C1094 H1108 0.960 . S
C1095 C1092 1.511 . S
C1095 H1109 0.961 . S
C1095 H1110 0.961 . S
C1095 H1111 0.961 . S
C1096 C1097 1.370 . S
C1096 C1098 1.363 1_545 S
C1096 H1112 0.931 . S
C1097 C1096 1.370 . S
C1097 C1101 1.408 . S
C1098 C1096 1.363 1_565 S
C1098 C1099 1.370 . S
C1098 C1102 1.524 . S
C1099 C1091 1.503 . S
C1099 C1098 1.370 . S
C1099 C1100 1.420 . S
C1100 C1099 1.420 . S
C1100 C1101 1.371 1_565 S
C1100 C1103 1.556 . S
C1101 C1097 1.408 . S
C1101 C1100 1.371 1_545 S
C1101 H1113 0.930 . S
C1102 C1098 1.524 . S
C1102 H1114 0.956 . S
C1102 H1115 0.961 . S
C1102 H1116 0.961 . S
C1103 C1100 1.556 . S
C1103 H1117 0.958 . S
C1103 H1118 0.961 . S
C1103 H1119 0.960 . S
H1104 C1088 0.931 . S
H1105 C1093 0.929 . S
H1106 C1094 0.960 . S
H1107 C1094 0.962 . S
H1108 C1094 0.960 . S
H1109 C1095 0.961 . S
H1110 C1095 0.961 . S
H1111 C1095 0.961 . S
H1112 C1096 0.931 . S
H1113 C1101 0.930 . S
H1114 C1102 0.956 . S
H1115 C1102 0.961 . S
H1116 C1102 0.961 . S
H1117 C1103 0.958 . S
H1118 C1103 0.961 . S
H1119 C1103 0.960 . S
C1120 C1121 1.391 . S
C1120 C1122 1.394 1_455 S
C1120 H1136 0.931 . S
C1121 C1120 1.391 . S
C1121 C1125 1.376 . S
C1122 C1120 1.394 1_655 S
C1122 C1123 1.369 . S
C1122 C1126 1.531 . S
C1123 C1122 1.369 . S
C1123 C1124 1.410 1_655 S
C1123 C1131 1.503 . S
C1124 C1123 1.410 1_455 S
C1124 C1125 1.392 . S
C1124 C1127 1.511 . S
C1125 C1121 1.376 . S
C1125 C1124 1.392 . S
C1125 H1137 0.929 . S
C1126 C1122 1.531 . S
C1126 H1138 0.960 . S
C1126 H1139 0.962 . S
C1126 H1140 0.960 . S
C1127 C1124 1.511 . S
C1127 H1141 0.961 . S
C1127 H1142 0.961 1_455 S
C1127 H1143 0.961 . S
C1128 C1129 1.370 . S
C1128 C1130 1.363 . S
C1128 H1144 0.931 . S
C1129 C1128 1.370 . S
C1129 C1133 1.408 . S
C1130 C1128 1.363 . S
C1130 C1131 1.370 . S
C1130 C1134 1.524 . S
C1131 C1123 1.503 . S
C1131 C1130 1.370 . S
C1131 C1132 1.403 . S
C1132 C1131 1.403 . S
C1132 C1133 1.404 . S
C1132 C1135 1.539 . S
C1133 C1129 1.408 . S
C1133 C1132 1.404 . S
C1133 H1145 0.930 . S
C1134 C1130 1.524 . S
C1134 H1146 0.956 . S
C1134 H1147 0.961 . S
C1134 H1148 0.961 . S
C1135 C1132 1.539 . S
C1135 H1149 0.958 . S
C1135 H1150 0.961 . S
C1135 H1151 0.960 . S
H1136 C1120 0.931 . S
H1137 C1125 0.929 . S
H1138 C1126 0.960 . S
H1139 C1126 0.962 . S
H1140 C1126 0.960 . S
H1141 C1127 0.961 . S
H1142 C1127 0.961 1_655 S
H1143 C1127 0.961 . S
H1144 C1128 0.931 . S
H1145 C1133 0.930 . S
H1146 C1134 0.956 . S
H1147 C1134 0.961 . S
H1148 C1134 0.961 . S
H1149 C1135 0.958 . S
H1150 C1135 0.961 . S
H1151 C1135 0.960 . S
C1152 C1153 1.391 . S
C1152 C1154 1.394 . S
C1152 H1168 0.931 . S
C1153 C1152 1.391 . S
C1153 C1157 1.376 . S
C1154 C1152 1.394 . S
C1154 C1155 1.369 . S
C1154 C1158 1.531 . S
C1155 C1154 1.369 . S
C1155 C1156 1.410 . S
C1155 C1163 1.503 . S
C1156 C1155 1.410 . S
C1156 C1157 1.392 . S
C1156 C1159 1.511 . S
C1157 C1153 1.376 . S
C1157 C1156 1.392 . S
C1157 H1169 0.929 . S
C1158 C1154 1.531 . S
C1158 H1170 0.960 . S
C1158 H1171 0.962 . S
C1158 H1172 0.960 . S
C1159 C1156 1.511 . S
C1159 H1173 0.961 . S
C1159 H1174 0.961 . S
C1159 H1175 0.961 . S
C1160 C1161 1.370 . S
C1160 C1162 1.363 . S
C1160 H1176 0.931 . S
C1161 C1160 1.370 . S
C1161 C1165 1.408 . S
C1162 C1160 1.363 . S
C1162 C1163 1.370 . S
C1162 C1166 1.524 . S
C1163 C1155 1.503 . S
C1163 C1162 1.370 . S
C1163 C1164 1.403 . S
C1164 C1163 1.403 . S
C1164 C1165 1.404 . S
C1164 C1167 1.539 . S
C1165 C1161 1.408 . S
C1165 C1164 1.404 . S
C1165 H1177 0.930 . S
C1166 C1162 1.524 . S
C1166 H1178 0.956 . S
C1166 H1179 0.961 . S
C1166 H1180 0.961 . S
C1167 C1164 1.539 . S
C1167 H1181 0.958 . S
C1167 H1182 0.961 . S
C1167 H1183 0.960 . S
H1168 C1152 0.931 . S
H1169 C1157 0.929 . S
H1170 C1158 0.960 . S
H1171 C1158 0.962 . S
H1172 C1158 0.960 . S
H1173 C1159 0.961 . S
H1174 C1159 0.961 . S
H1175 C1159 0.961 . S
H1176 C1160 0.931 . S
H1177 C1165 0.930 . S
H1178 C1166 0.956 . S
H1179 C1166 0.961 . S
H1180 C1166 0.961 . S
H1181 C1167 0.958 . S
H1182 C1167 0.961 . S
H1183 C1167 0.960 . S
C1184 C1185 1.391 . S
C1184 C1186 1.394 . S
C1184 H1200 0.931 . S
C1185 C1184 1.391 . S
C1185 C1189 1.376 . S
C1186 C1184 1.394 . S
C1186 C1187 1.369 . S
C1186 C1190 1.531 . S
C1187 C1186 1.369 . S
C1187 C1188 1.410 . S
C1187 C1195 1.503 . S
C1188 C1187 1.410 . S
C1188 C1189 1.392 . S
C1188 C1191 1.511 . S
C1189 C1185 1.376 . S
C1189 C1188 1.392 . S
C1189 H1201 0.929 . S
C1190 C1186 1.531 . S
C1190 H1202 0.960 . S
C1190 H1203 0.962 . S
C1190 H1204 0.960 . S
C1191 C1188 1.511 . S
C1191 H1205 0.961 . S
C1191 H1206 0.961 . S
C1191 H1207 0.961 . S
C1192 C1193 1.370 . S
C1192 C1194 1.363 . S
C1192 H1208 0.931 . S
C1193 C1192 1.370 . S
C1193 C1197 1.408 . S
C1194 C1192 1.363 . S
C1194 C1195 1.370 . S
C1194 C1198 1.524 . S
C1195 C1187 1.503 . S
C1195 C1194 1.370 . S
C1195 C1196 1.403 . S
C1196 C1195 1.403 . S
C1196 C1197 1.404 . S
C1196 C1199 1.539 . S
C1197 C1193 1.408 . S
C1197 C1196 1.404 . S
C1197 H1209 0.930 . S
C1198 C1194 1.524 . S
C1198 H1210 0.956 . S
C1198 H1211 0.961 . S
C1198 H1212 0.961 . S
C1199 C1196 1.539 . S
C1199 H1213 0.958 . S
C1199 H1214 0.961 . S
C1199 H1215 0.960 . S
H1200 C1184 0.931 . S
H1201 C1189 0.929 . S
H1202 C1190 0.960 . S
H1203 C1190 0.962 . S
H1204 C1190 0.960 . S
H1205 C1191 0.961 . S
H1206 C1191 0.961 . S
H1207 C1191 0.961 . S
H1208 C1192 0.931 . S
H1209 C1197 0.930 . S
H1210 C1198 0.956 . S
H1211 C1198 0.961 . S
H1212 C1198 0.961 . S
H1213 C1199 0.958 . S
H1214 C1199 0.961 . S
H1215 C1199 0.960 . S
C1216 C1217 1.391 . S
C1216 C1218 1.394 . S
C1216 H1232 0.931 . S
C1217 C1216 1.391 . S
C1217 C1221 1.376 . S
C1218 C1216 1.394 . S
C1218 C1219 1.369 . S
C1218 C1222 1.531 . S
C1219 C1218 1.369 . S
C1219 C1220 1.410 . S
C1219 C1227 1.503 . S
C1220 C1219 1.410 . S
C1220 C1221 1.392 . S
C1220 C1223 1.511 . S
C1221 C1217 1.376 . S
C1221 C1220 1.392 . S
C1221 H1233 0.929 . S
C1222 C1218 1.531 . S
C1222 H1234 0.960 . S
C1222 H1235 0.962 . S
C1222 H1236 0.960 . S
C1223 C1220 1.511 . S
C1223 H1237 0.961 . S
C1223 H1238 0.961 . S
C1223 H1239 0.961 . S
C1224 C1225 1.370 . S
C1224 C1226 1.363 . S
C1224 H1240 0.931 . S
C1225 C1224 1.370 . S
C1225 C1229 1.408 . S
C1226 C1224 1.363 . S
C1226 C1227 1.370 . S
C1226 C1230 1.524 . S
C1227 C1219 1.503 . S
C1227 C1226 1.370 . S
C1227 C1228 1.403 . S
C1228 C1227 1.403 . S
C1228 C1229 1.404 . S
C1228 C1231 1.539 . S
C1229 C1225 1.408 . S
C1229 C1228 1.404 . S
C1229 H1241 0.930 . S
C1230 C1226 1.524 . S
C1230 H1242 0.956 . S
C1230 H1243 0.961 . S
C1230 H1244 0.961 . S
C1231 C1228 1.539 . S
C1231 H1245 0.958 . S
C1231 H1246 0.961 . S
C1231 H1247 0.960 . S
H1232 C1216 0.931 . S
H1233 C1221 0.929 . S
H1234 C1222 0.960 . S
H1235 C1222 0.962 . S
H1236 C1222 0.960 . S
H1237 C1223 0.961 . S
H1238 C1223 0.961 . S
H1239 C1223 0.961 . S
H1240 C1224 0.931 . S
H1241 C1229 0.930 . S
H1242 C1230 0.956 . S
H1243 C1230 0.961 . S
H1244 C1230 0.961 . S
H1245 C1231 0.958 . S
H1246 C1231 0.961 . S
H1247 C1231 0.960 . S
C1248 C1249 1.391 . S
C1248 C1250 1.394 . S
C1248 H1264 0.931 . S
C1249 C1248 1.391 . S
C1249 C1253 1.376 . S
C1250 C1248 1.394 . S
C1250 C1251 1.369 . S
C1250 C1254 1.531 . S
C1251 C1250 1.369 . S
C1251 C1252 1.410 . S
C1251 C1259 1.503 . S
C1252 C1251 1.410 . S
C1252 C1253 1.392 . S
C1252 C1255 1.511 . S
C1253 C1249 1.376 . S
C1253 C1252 1.392 . S
C1253 H1265 0.929 . S
C1254 C1250 1.531 . S
C1254 H1266 0.960 . S
C1254 H1267 0.962 . S
C1254 H1268 0.960 . S
C1255 C1252 1.511 . S
C1255 H1269 0.961 . S
C1255 H1270 0.961 . S
C1255 H1271 0.961 . S
C1256 C1257 1.370 . S
C1256 C1258 1.363 . S
C1256 H1272 0.931 . S
C1257 C1256 1.370 . S
C1257 C1261 1.408 . S
C1258 C1256 1.363 . S
C1258 C1259 1.370 . S
C1258 C1262 1.524 . S
C1259 C1251 1.503 . S
C1259 C1258 1.370 . S
C1259 C1260 1.403 . S
C1260 C1259 1.403 . S
C1260 C1261 1.404 . S
C1260 C1263 1.539 . S
C1261 C1257 1.408 . S
C1261 C1260 1.404 . S
C1261 H1273 0.930 . S
C1262 C1258 1.524 . S
C1262 H1274 0.956 . S
C1262 H1275 0.961 . S
C1262 H1276 0.961 . S
C1263 C1260 1.539 . S
C1263 H1277 0.958 . S
C1263 H1278 0.961 . S
C1263 H1279 0.960 . S
H1264 C1248 0.931 . S
H1265 C1253 0.929 . S
H1266 C1254 0.960 . S
H1267 C1254 0.962 . S
H1268 C1254 0.960 . S
H1269 C1255 0.961 . S
H1270 C1255 0.961 . S
H1271 C1255 0.961 . S
H1272 C1256 0.931 . S
H1273 C1261 0.930 . S
H1274 C1262 0.956 . S
H1275 C1262 0.961 . S
H1276 C1262 0.961 . S
H1277 C1263 0.958 . S
H1278 C1263 0.961 . S
H1279 C1263 0.960 . S
C1280 C1281 1.391 . S
C1280 C1282 1.394 . S
C1280 H1296 0.931 . S
C1281 C1280 1.391 . S
C1281 C1285 1.376 . S
C1282 C1280 1.394 . S
C1282 C1283 1.369 . S
C1282 C1286 1.531 . S
C1283 C1282 1.369 . S
C1283 C1284 1.410 . S
C1283 C1291 1.503 . S
C1284 C1283 1.410 . S
C1284 C1285 1.392 . S
C1284 C1287 1.511 . S
C1285 C1281 1.376 . S
C1285 C1284 1.392 . S
C1285 H1297 0.929 . S
C1286 C1282 1.531 . S
C1286 H1298 0.960 . S
C1286 H1299 0.962 . S
C1286 H1300 0.960 . S
C1287 C1284 1.511 . S
C1287 H1301 0.961 . S
C1287 H1302 0.961 . S
C1287 H1303 0.961 . S
C1288 C1289 1.370 . S
C1288 C1290 1.363 . S
C1288 H1304 0.931 . S
C1289 C1288 1.370 . S
C1289 C1293 1.408 . S
C1290 C1288 1.363 . S
C1290 C1291 1.370 . S
C1290 C1294 1.524 . S
C1291 C1283 1.503 . S
C1291 C1290 1.370 . S
C1291 C1292 1.403 . S
C1292 C1291 1.403 . S
C1292 C1293 1.404 . S
C1292 C1295 1.539 . S
C1293 C1289 1.408 . S
C1293 C1292 1.404 . S
C1293 H1305 0.930 . S
C1294 C1290 1.524 . S
C1294 H1306 0.956 . S
C1294 H1307 0.961 . S
C1294 H1308 0.961 . S
C1295 C1292 1.539 . S
C1295 H1309 0.958 . S
C1295 H1310 0.961 . S
C1295 H1311 0.960 . S
H1296 C1280 0.931 . S
H1297 C1285 0.929 . S
H1298 C1286 0.960 . S
H1299 C1286 0.962 . S
H1300 C1286 0.960 . S
H1301 C1287 0.961 . S
H1302 C1287 0.961 . S
H1303 C1287 0.961 . S
H1304 C1288 0.931 . S
H1305 C1293 0.930 . S
H1306 C1294 0.956 . S
H1307 C1294 0.961 . S
H1308 C1294 0.961 . S
H1309 C1295 0.958 . S
H1310 C1295 0.961 . S
H1311 C1295 0.960 . S
C1312 C1313 1.391 . S
C1312 C1314 1.394 . S
C1312 H1328 0.931 . S
C1313 C1312 1.391 . S
C1313 C1317 1.376 . S
C1314 C1312 1.394 . S
C1314 C1315 1.369 . S
C1314 C1318 1.531 . S
C1315 C1314 1.369 . S
C1315 C1316 1.410 . S
C1315 C1323 1.503 . S
C1316 C1315 1.410 . S
C1316 C1317 1.392 . S
C1316 C1319 1.511 . S
C1317 C1313 1.376 . S
C1317 C1316 1.392 . S
C1317 H1329 0.929 . S
C1318 C1314 1.531 . S
C1318 H1330 0.960 . S
C1318 H1331 0.962 . S
C1318 H1332 0.960 . S
C1319 C1316 1.511 . S
C1319 H1333 0.961 . S
C1319 H1334 0.961 . S
C1319 H1335 0.961 . S
C1320 C1321 1.370 . S
C1320 C1322 1.363 . S
C1320 H1336 0.931 . S
C1321 C1320 1.370 . S
C1321 C1325 1.408 . S
C1322 C1320 1.363 . S
C1322 C1323 1.370 . S
C1322 C1326 1.524 . S
C1323 C1315 1.503 . S
C1323 C1322 1.370 . S
C1323 C1324 1.403 . S
C1324 C1323 1.403 . S
C1324 C1325 1.404 . S
C1324 C1327 1.539 . S
C1325 C1321 1.408 . S
C1325 C1324 1.404 . S
C1325 H1337 0.930 . S
C1326 C1322 1.524 . S
C1326 H1338 0.956 . S
C1326 H1339 0.961 . S
C1326 H1340 0.961 . S
C1327 C1324 1.539 . S
C1327 H1341 0.958 . S
C1327 H1342 0.961 . S
C1327 H1343 0.960 . S
H1328 C1312 0.931 . S
H1329 C1317 0.929 . S
H1330 C1318 0.960 . S
H1331 C1318 0.962 . S
H1332 C1318 0.960 . S
H1333 C1319 0.961 . S
H1334 C1319 0.961 . S
H1335 C1319 0.961 . S
H1336 C1320 0.931 . S
H1337 C1325 0.930 . S
H1338 C1326 0.956 . S
H1339 C1326 0.961 . S
H1340 C1326 0.961 . S
H1341 C1327 0.958 . S
H1342 C1327 0.961 . S
H1343 C1327 0.960 . S
C1344 C1345 1.391 . S
C1344 C1346 1.394 . S
C1344 H1360 0.931 . S
C1345 C1344 1.391 . S
C1345 C1349 1.376 . S
C1346 C1344 1.394 . S
C1346 C1347 1.369 . S
C1346 C1350 1.531 . S
C1347 C1346 1.369 . S
C1347 C1348 1.410 . S
C1347 C1355 1.503 . S
C1348 C1347 1.410 . S
C1348 C1349 1.392 . S
C1348 C1351 1.511 . S
C1349 C1345 1.376 . S
C1349 C1348 1.392 . S
C1349 H1361 0.929 . S
C1350 C1346 1.531 . S
C1350 H1362 0.960 . S
C1350 H1363 0.962 . S
C1350 H1364 0.960 . S
C1351 C1348 1.511 . S
C1351 H1365 0.961 . S
C1351 H1366 0.961 . S
C1351 H1367 0.961 . S
C1352 C1353 1.370 . S
C1352 C1354 1.363 . S
C1352 H1368 0.931 . S
C1353 C1352 1.370 . S
C1353 C1357 1.408 . S
C1354 C1352 1.363 . S
C1354 C1355 1.370 . S
C1354 C1358 1.524 . S
C1355 C1347 1.503 . S
C1355 C1354 1.370 . S
C1355 C1356 1.403 . S
C1356 C1355 1.403 . S
C1356 C1357 1.404 . S
C1356 C1359 1.539 . S
C1357 C1353 1.408 . S
C1357 C1356 1.404 . S
C1357 H1369 0.930 . S
C1358 C1354 1.524 . S
C1358 H1370 0.956 . S
C1358 H1371 0.961 . S
C1358 H1372 0.961 . S
C1359 C1356 1.539 . S
C1359 H1373 0.958 . S
C1359 H1374 0.961 . S
C1359 H1375 0.960 . S
H1360 C1344 0.931 . S
H1361 C1349 0.929 . S
H1362 C1350 0.960 . S
H1363 C1350 0.962 . S
H1364 C1350 0.960 . S
H1365 C1351 0.961 . S
H1366 C1351 0.961 . S
H1367 C1351 0.961 . S
H1368 C1352 0.931 . S
H1369 C1357 0.930 . S
H1370 C1358 0.956 . S
H1371 C1358 0.961 . S
H1372 C1358 0.961 . S
H1373 C1359 0.958 . S
H1374 C1359 0.961 . S
H1375 C1359 0.960 . S
C1376 C1377 1.391 . S
C1376 C1378 1.394 . S
C1376 H1392 0.931 . S
C1377 C1376 1.391 . S
C1377 C1381 1.376 . S
C1378 C1376 1.394 . S
C1378 C1379 1.369 . S
C1378 C1382 1.531 . S
C1379 C1378 1.369 . S
C1379 C1380 1.410 . S
C1379 C1387 1.503 . S
C1380 C1379 1.410 . S
C1380 C1381 1.392 . S
C1380 C1383 1.511 . S
C1381 C1377 1.376 . S
C1381 C1380 1.392 . S
C1381 H1393 0.929 . S
C1382 C1378 1.531 . S
C1382 H1394 0.960 . S
C1382 H1395 0.962 . S
C1382 H1396 0.960 . S
C1383 C1380 1.511 . S
C1383 H1397 0.961 . S
C1383 H1398 0.961 . S
C1383 H1399 0.961 . S
C1384 C1385 1.370 . S
C1384 C1386 1.363 . S
C1384 H1400 0.931 . S
C1385 C1384 1.370 . S
C1385 C1389 1.408 . S
C1386 C1384 1.363 . S
C1386 C1387 1.370 . S
C1386 C1390 1.524 . S
C1387 C1379 1.503 . S
C1387 C1386 1.370 . S
C1387 C1388 1.403 . S
C1388 C1387 1.403 . S
C1388 C1389 1.404 . S
C1388 C1391 1.539 . S
C1389 C1385 1.408 . S
C1389 C1388 1.404 . S
C1389 H1401 0.930 . S
C1390 C1386 1.524 . S
C1390 H1402 0.956 . S
C1390 H1403 0.961 . S
C1390 H1404 0.961 . S
C1391 C1388 1.539 . S
C1391 H1405 0.958 . S
C1391 H1406 0.961 . S
C1391 H1407 0.960 . S
H1392 C1376 0.931 . S
H1393 C1381 0.929 . S
H1394 C1382 0.960 . S
H1395 C1382 0.962 . S
H1396 C1382 0.960 . S
H1397 C1383 0.961 . S
H1398 C1383 0.961 . S
H1399 C1383 0.961 . S
H1400 C1384 0.931 . S
H1401 C1389 0.930 . S
H1402 C1390 0.956 . S
H1403 C1390 0.961 . S
H1404 C1390 0.961 . S
H1405 C1391 0.958 . S
H1406 C1391 0.961 . S
H1407 C1391 0.960 . S
C1408 C1409 1.391 . S
C1408 C1410 1.394 . S
C1408 H1424 0.931 . S
C1409 C1408 1.391 . S
C1409 C1413 1.376 . S
C1410 C1408 1.394 . S
C1410 C1411 1.369 . S
C1410 C1414 1.531 . S
C1411 C1410 1.369 . S
C1411 C1412 1.410 . S
C1411 C1419 1.503 . S
C1412 C1411 1.410 . S
C1412 C1413 1.392 . S
C1412 C1415 1.511 . S
C1413 C1409 1.376 . S
C1413 C1412 1.392 . S
C1413 H1425 0.929 . S
C1414 C1410 1.531 . S
C1414 H1426 0.960 . S
C1414 H1427 0.962 . S
C1414 H1428 0.960 . S
C1415 C1412 1.511 . S
C1415 H1429 0.961 . S
C1415 H1430 0.961 . S
C1415 H1431 0.961 . S
C1416 C1417 1.370 . S
C1416 C1418 1.363 . S
C1416 H1432 0.931 . S
C1417 C1416 1.370 . S
C1417 C1421 1.408 . S
C1418 C1416 1.363 . S
C1418 C1419 1.370 . S
C1418 C1422 1.524 . S
C1419 C1411 1.503 . S
C1419 C1418 1.370 . S
C1419 C1420 1.403 . S
C1420 C1419 1.403 . S
C1420 C1421 1.404 . S
C1420 C1423 1.539 . S
C1421 C1417 1.408 . S
C1421 C1420 1.404 . S
C1421 H1433 0.930 1_556 S
C1422 C1418 1.524 . S
C1422 H1434 0.956 . S
C1422 H1435 0.961 . S
C1422 H1436 0.961 . S
C1423 C1420 1.539 . S
C1423 H1437 0.958 . S
C1423 H1438 0.961 . S
C1423 H1439 0.960 . S
H1424 C1408 0.931 . S
H1425 C1413 0.929 . S
H1426 C1414 0.960 . S
H1427 C1414 0.962 . S
H1428 C1414 0.960 . S
H1429 C1415 0.961 . S
H1430 C1415 0.961 . S
H1431 C1415 0.961 . S
H1432 C1416 0.931 . S
H1433 C1421 0.930 1_554 S
H1434 C1422 0.956 . S
H1435 C1422 0.961 . S
H1436 C1422 0.961 . S
H1437 C1423 0.958 . S
H1438 C1423 0.961 . S
H1439 C1423 0.960 . S
C1440 C1441 1.391 . S
C1440 C1442 1.394 . S
C1440 H1456 0.931 1_554 S
C1441 C1440 1.391 . S
C1441 C1445 1.376 . S
C1442 C1440 1.394 . S
C1442 C1443 1.369 . S
C1442 C1446 1.531 . S
C1443 C1442 1.369 . S
C1443 C1444 1.410 . S
C1443 C1451 1.503 . S
C1444 C1443 1.410 . S
C1444 C1445 1.392 . S
C1444 C1447 1.511 . S
C1445 C1441 1.376 . S
C1445 C1444 1.392 . S
C1445 H1457 0.929 . S
C1446 C1442 1.531 . S
C1446 H1458 0.960 . S
C1446 H1459 0.962 . S
C1446 H1460 0.960 . S
C1447 C1444 1.511 . S
C1447 H1461 0.961 . S
C1447 H1462 0.961 . S
C1447 H1463 0.961 . S
C1448 C1449 1.370 . S
C1448 C1450 1.363 . S
C1448 H1464 0.931 . S
C1449 C1448 1.370 . S
C1449 C1453 1.408 . S
C1450 C1448 1.363 . S
C1450 C1451 1.370 . S
C1450 C1454 1.524 . S
C1451 C1443 1.503 . S
C1451 C1450 1.370 . S
C1451 C1452 1.403 . S
C1452 C1451 1.403 . S
C1452 C1453 1.404 . S
C1452 C1455 1.539 . S
C1453 C1449 1.408 . S
C1453 C1452 1.404 . S
C1453 H1465 0.930 . S
C1454 C1450 1.524 . S
C1454 H1466 0.956 . S
C1454 H1467 0.961 . S
C1454 H1468 0.961 . S
C1455 C1452 1.539 . S
C1455 H1469 0.958 . S
C1455 H1470 0.961 . S
C1455 H1471 0.960 . S
H1456 C1440 0.931 1_556 S
H1457 C1445 0.929 . S
H1458 C1446 0.960 . S
H1459 C1446 0.962 . S
H1460 C1446 0.960 . S
H1461 C1447 0.961 . S
H1462 C1447 0.961 . S
H1463 C1447 0.961 . S
H1464 C1448 0.931 . S
H1465 C1453 0.930 . S
H1466 C1454 0.956 . S
H1467 C1454 0.961 . S
H1468 C1454 0.961 . S
H1469 C1455 0.958 . S
H1470 C1455 0.961 . S
H1471 C1455 0.960 . S
C1472 C1473 1.391 . S
C1472 C1474 1.394 . S
C1472 H1488 0.931 . S
C1473 C1472 1.391 . S
C1473 C1477 1.376 . S
C1474 C1472 1.394 . S
C1474 C1475 1.369 . S
C1474 C1478 1.531 . S
C1475 C1474 1.369 . S
C1475 C1476 1.410 . S
C1475 C1483 1.503 . S
C1476 C1475 1.410 . S
C1476 C1477 1.392 . S
C1476 C1479 1.511 . S
C1477 C1473 1.376 . S
C1477 C1476 1.392 . S
C1477 H1489 0.929 1_556 S
C1478 C1474 1.531 . S
C1478 H1490 0.960 . S
C1478 H1491 0.962 . S
C1478 H1492 0.960 . S
C1479 C1476 1.511 . S
C1479 H1493 0.961 . S
C1479 H1494 0.961 . S
C1479 H1495 0.961 . S
C1480 C1481 1.370 . S
C1480 C1482 1.363 . S
C1480 H1496 0.931 . S
C1481 C1480 1.370 . S
C1481 C1485 1.408 . S
C1482 C1480 1.363 . S
C1482 C1483 1.370 . S
C1482 C1486 1.524 . S
C1483 C1475 1.503 . S
C1483 C1482 1.370 . S
C1483 C1484 1.403 . S
C1484 C1483 1.403 . S
C1484 C1485 1.404 . S
C1484 C1487 1.539 . S
C1485 C1481 1.408 . S
C1485 C1484 1.404 . S
C1485 H1497 0.930 . S
C1486 C1482 1.524 . S
C1486 H1498 0.956 . S
C1486 H1499 0.961 . S
C1486 H1500 0.961 . S
C1487 C1484 1.539 . S
C1487 H1501 0.958 . S
C1487 H1502 0.961 . S
C1487 H1503 0.960 . S
H1488 C1472 0.931 . S
H1489 C1477 0.929 1_554 S
H1490 C1478 0.960 . S
H1491 C1478 0.962 . S
H1492 C1478 0.960 . S
H1493 C1479 0.961 . S
H1494 C1479 0.961 . S
H1495 C1479 0.961 . S
H1496 C1480 0.931 . S
H1497 C1485 0.930 . S
H1498 C1486 0.956 . S
H1499 C1486 0.961 . S
H1500 C1486 0.961 . S
H1501 C1487 0.958 . S
H1502 C1487 0.961 . S
H1503 C1487 0.960 . S
C1504 C1505 1.391 . S
C1504 C1506 1.394 . S
C1504 H1520 0.931 1_554 S
C1505 C1504 1.391 . S
C1505 C1509 1.376 . S
C1506 C1504 1.394 . S
C1506 C1507 1.369 . S
C1506 C1510 1.531 . S
C1507 C1506 1.369 . S
C1507 C1508 1.410 . S
C1507 C1515 1.503 . S
C1508 C1507 1.410 . S
C1508 C1509 1.392 . S
C1508 C1511 1.511 . S
C1509 C1505 1.376 . S
C1509 C1508 1.392 . S
C1509 H1521 0.929 . S
C1510 C1506 1.531 . S
C1510 H1522 0.960 . S
C1510 H1523 0.962 . S
C1510 H1524 0.960 . S
C1511 C1508 1.511 . S
C1511 H1525 0.961 . S
C1511 H1526 0.961 . S
C1511 H1527 0.961 . S
C1512 C1513 1.370 . S
C1512 C1514 1.363 . S
C1512 H1528 0.931 . S
C1513 C1512 1.370 . S
C1513 C1517 1.408 . S
C1514 C1512 1.363 . S
C1514 C1515 1.370 . S
C1514 C1518 1.524 . S
C1515 C1507 1.503 . S
C1515 C1514 1.370 . S
C1515 C1516 1.403 . S
C1516 C1515 1.403 . S
C1516 C1517 1.404 . S
C1516 C1519 1.539 . S
C1517 C1513 1.408 . S
C1517 C1516 1.404 . S
C1517 H1529 0.930 . S
C1518 C1514 1.524 . S
C1518 H1530 0.956 . S
C1518 H1531 0.961 . S
C1518 H1532 0.961 . S
C1519 C1516 1.539 . S
C1519 H1533 0.958 . S
C1519 H1534 0.961 . S
C1519 H1535 0.960 . S
H1520 C1504 0.931 1_556 S
H1521 C1509 0.929 . S
H1522 C1510 0.960 . S
H1523 C1510 0.962 . S
H1524 C1510 0.960 . S
H1525 C1511 0.961 . S
H1526 C1511 0.961 . S
H1527 C1511 0.961 . S
H1528 C1512 0.931 . S
H1529 C1517 0.930 . S
H1530 C1518 0.956 . S
H1531 C1518 0.961 . S
H1532 C1518 0.961 . S
H1533 C1519 0.958 . S
H1534 C1519 0.961 . S
H1535 C1519 0.960 . S
C1536 C1537 1.391 . S
C1536 C1538 1.394 . S
C1536 H1552 0.931 . S
C1537 C1536 1.391 . S
C1537 C1541 1.376 . S
C1538 C1536 1.394 . S
C1538 C1539 1.369 . S
C1538 C1542 1.531 . S
C1539 C1538 1.369 . S
C1539 C1540 1.410 . S
C1539 C1547 1.503 . S
C1540 C1539 1.410 . S
C1540 C1541 1.392 . S
C1540 C1543 1.511 . S
C1541 C1537 1.376 . S
C1541 C1540 1.392 . S
C1541 H1553 0.929 . S
C1542 C1538 1.531 . S
C1542 H1554 0.960 . S
C1542 H1555 0.962 . S
C1542 H1556 0.960 . S
C1543 C1540 1.511 . S
C1543 H1557 0.961 . S
C1543 H1558 0.961 . S
C1543 H1559 0.961 . S
C1544 C1545 1.370 . S
C1544 C1546 1.363 . S
C1544 H1560 0.931 . S
C1545 C1544 1.370 . S
C1545 C1549 1.408 . S
C1546 C1544 1.363 . S
C1546 C1547 1.370 . S
C1546 C1550 1.524 . S
C1547 C1539 1.503 . S
C1547 C1546 1.370 . S
C1547 C1548 1.403 . S
C1548 C1547 1.403 . S
C1548 C1549 1.404 . S
C1548 C1551 1.539 . S
C1549 C1545 1.408 . S
C1549 C1548 1.404 . S
C1549 H1561 0.930 . S
C1550 C1546 1.524 . S
C1550 H1562 0.956 . S
C1550 H1563 0.961 . S
C1550 H1564 0.961 . S
C1551 C1548 1.539 . S
C1551 H1565 0.958 . S
C1551 H1566 0.961 . S
C1551 H1567 0.960 . S
H1552 C1536 0.931 . S
H1553 C1541 0.929 . S
H1554 C1542 0.960 . S
H1555 C1542 0.962 . S
H1556 C1542 0.960 . S
H1557 C1543 0.961 . S
H1558 C1543 0.961 . S
H1559 C1543 0.961 . S
H1560 C1544 0.931 . S
H1561 C1549 0.930 . S
H1562 C1550 0.956 . S
H1563 C1550 0.961 . S
H1564 C1550 0.961 . S
H1565 C1551 0.958 . S
H1566 C1551 0.961 . S
H1567 C1551 0.960 . S
C1568 C1569 1.391 . S
C1568 C1570 1.394 . S
C1568 H1584 0.931 . S
C1569 C1568 1.391 . S
C1569 C1573 1.376 . S
C1570 C1568 1.394 . S
C1570 C1571 1.369 . S
C1570 C1574 1.531 . S
C1571 C1570 1.369 . S
C1571 C1572 1.410 . S
C1571 C1579 1.503 . S
C1572 C1571 1.410 . S
C1572 C1573 1.392 . S
C1572 C1575 1.511 . S
C1573 C1569 1.376 . S
C1573 C1572 1.392 . S
C1573 H1585 0.929 . S
C1574 C1570 1.531 . S
C1574 H1586 0.960 . S
C1574 H1587 0.962 . S
C1574 H1588 0.960 . S
C1575 C1572 1.511 . S
C1575 H1589 0.961 . S
C1575 H1590 0.961 . S
C1575 H1591 0.961 . S
C1576 C1577 1.370 . S
C1576 C1578 1.363 . S
C1576 H1592 0.931 . S
C1577 C1576 1.370 . S
C1577 C1581 1.408 . S
C1578 C1576 1.363 . S
C1578 C1579 1.370 . S
C1578 C1582 1.524 . S
C1579 C1571 1.503 . S
C1579 C1578 1.370 . S
C1579 C1580 1.403 . S
C1580 C1579 1.403 . S
C1580 C1581 1.404 . S
C1580 C1583 1.539 . S
C1581 C1577 1.408 . S
C1581 C1580 1.404 . S
C1581 H1593 0.930 . S
C1582 C1578 1.524 . S
C1582 H1594 0.956 . S
C1582 H1595 0.961 . S
C1582 H1596 0.961 . S
C1583 C1580 1.539 . S
C1583 H1597 0.958 . S
C1583 H1598 0.961 . S
C1583 H1599 0.960 . S
H1584 C1568 0.931 . S
H1585 C1573 0.929 . S
H1586 C1574 0.960 . S
H1587 C1574 0.962 . S
H1588 C1574 0.960 . S
H1589 C1575 0.961 . S
H1590 C1575 0.961 . S
H1591 C1575 0.961 . S
H1592 C1576 0.931 . S
H1593 C1581 0.930 . S
H1594 C1582 0.956 . S
H1595 C1582 0.961 . S
H1596 C1582 0.961 . S
H1597 C1583 0.958 . S
H1598 C1583 0.961 . S
H1599 C1583 0.960 . S
C1600 C1601 1.391 . S
C1600 C1602 1.394 . S
C1600 H1616 0.931 . S
C1601 C1600 1.391 . S
C1601 C1605 1.376 . S
C1602 C1600 1.394 . S
C1602 C1603 1.369 . S
C1602 C1606 1.531 . S
C1603 C1602 1.369 . S
C1603 C1604 1.410 . S
C1603 C1611 1.503 . S
C1604 C1603 1.410 . S
C1604 C1605 1.392 . S
C1604 C1607 1.511 . S
C1605 C1601 1.376 . S
C1605 C1604 1.392 . S
C1605 H1617 0.929 . S
C1606 C1602 1.531 . S
C1606 H1618 0.960 . S
C1606 H1619 0.962 . S
C1606 H1620 0.960 . S
C1607 C1604 1.511 . S
C1607 H1621 0.961 . S
C1607 H1622 0.961 . S
C1607 H1623 0.961 . S
C1608 C1609 1.370 . S
C1608 C1610 1.363 . S
C1608 H1624 0.931 . S
C1609 C1608 1.370 . S
C1609 C1613 1.408 . S
C1610 C1608 1.363 . S
C1610 C1611 1.370 . S
C1610 C1614 1.524 . S
C1611 C1603 1.503 . S
C1611 C1610 1.370 . S
C1611 C1612 1.403 . S
C1612 C1611 1.403 . S
C1612 C1613 1.404 . S
C1612 C1615 1.539 . S
C1613 C1609 1.408 . S
C1613 C1612 1.404 . S
C1613 H1625 0.930 . S
C1614 C1610 1.524 . S
C1614 H1626 0.956 . S
C1614 H1627 0.961 . S
C1614 H1628 0.961 . S
C1615 C1612 1.539 . S
C1615 H1629 0.958 . S
C1615 H1630 0.961 . S
C1615 H1631 0.960 . S
H1616 C1600 0.931 . S
H1617 C1605 0.929 . S
H1618 C1606 0.960 . S
H1619 C1606 0.962 . S
H1620 C1606 0.960 . S
H1621 C1607 0.961 . S
H1622 C1607 0.961 . S
H1623 C1607 0.961 . S
H1624 C1608 0.931 . S
H1625 C1613 0.930 . S
H1626 C1614 0.956 . S
H1627 C1614 0.961 . S
H1628 C1614 0.961 . S
H1629 C1615 0.958 . S
H1630 C1615 0.961 . S
H1631 C1615 0.960 . S
C1632 C1633 1.391 . S
C1632 C1634 1.394 . S
C1632 H1648 0.931 . S
C1633 C1632 1.391 . S
C1633 C1637 1.376 . S
C1634 C1632 1.394 . S
C1634 C1635 1.369 . S
C1634 C1638 1.531 . S
C1635 C1634 1.369 . S
C1635 C1636 1.410 . S
C1635 C1643 1.503 . S
C1636 C1635 1.410 . S
C1636 C1637 1.392 . S
C1636 C1639 1.511 . S
C1637 C1633 1.376 . S
C1637 C1636 1.392 . S
C1637 H1649 0.929 . S
C1638 C1634 1.531 . S
C1638 H1650 0.960 . S
C1638 H1651 0.962 . S
C1638 H1652 0.960 . S
C1639 C1636 1.511 . S
C1639 H1653 0.961 . S
C1639 H1654 0.961 . S
C1639 H1655 0.961 . S
C1640 C1641 1.370 . S
C1640 C1642 1.363 . S
C1640 H1656 0.931 . S
C1641 C1640 1.370 . S
C1641 C1645 1.408 . S
C1642 C1640 1.363 . S
C1642 C1643 1.370 . S
C1642 C1646 1.524 . S
C1643 C1635 1.503 . S
C1643 C1642 1.370 . S
C1643 C1644 1.403 . S
C1644 C1643 1.403 . S
C1644 C1645 1.404 . S
C1644 C1647 1.539 . S
C1645 C1641 1.408 . S
C1645 C1644 1.404 . S
C1645 H1657 0.930 . S
C1646 C1642 1.524 . S
C1646 H1658 0.956 . S
C1646 H1659 0.961 . S
C1646 H1660 0.961 . S
C1647 C1644 1.539 . S
C1647 H1661 0.958 . S
C1647 H1662 0.961 . S
C1647 H1663 0.960 . S
H1648 C1632 0.931 . S
H1649 C1637 0.929 . S
H1650 C1638 0.960 . S
H1651 C1638 0.962 . S
H1652 C1638 0.960 . S
H1653 C1639 0.961 . S
H1654 C1639 0.961 . S
H1655 C1639 0.961 . S
H1656 C1640 0.931 . S
H1657 C1645 0.930 . S
H1658 C1646 0.956 . S
H1659 C1646 0.961 . S
H1660 C1646 0.961 . S
H1661 C1647 0.958 . S
H1662 C1647 0.961 . S
H1663 C1647 0.960 . S
C1664 C1665 1.391 . S
C1664 C1666 1.394 . S
C1664 H1680 0.931 . S
C1665 C1664 1.391 . S
C1665 C1669 1.376 . S
C1666 C1664 1.394 . S
C1666 C1667 1.369 . S
C1666 C1670 1.531 . S
C1667 C1666 1.369 . S
C1667 C1668 1.410 . S
C1667 C1675 1.503 . S
C1668 C1667 1.410 . S
C1668 C1669 1.392 . S
C1668 C1671 1.511 . S
C1669 C1665 1.376 . S
C1669 C1668 1.392 . S
C1669 H1681 0.929 . S
C1670 C1666 1.531 . S
C1670 H1682 0.960 . S
C1670 H1683 0.962 . S
C1670 H1684 0.960 . S
C1671 C1668 1.511 . S
C1671 H1685 0.961 . S
C1671 H1686 0.961 . S
C1671 H1687 0.961 . S
C1672 C1673 1.370 . S
C1672 C1674 1.363 . S
C1672 H1688 0.931 . S
C1673 C1672 1.370 . S
C1673 C1677 1.408 . S
C1674 C1672 1.363 . S
C1674 C1675 1.370 . S
C1674 C1678 1.524 . S
C1675 C1667 1.503 . S
C1675 C1674 1.370 . S
C1675 C1676 1.403 . S
C1676 C1675 1.403 . S
C1676 C1677 1.404 . S
C1676 C1679 1.539 . S
C1677 C1673 1.408 . S
C1677 C1676 1.404 . S
C1677 H1689 0.930 . S
C1678 C1674 1.524 . S
C1678 H1690 0.956 . S
C1678 H1691 0.961 . S
C1678 H1692 0.961 . S
C1679 C1676 1.539 . S
C1679 H1693 0.958 . S
C1679 H1694 0.961 . S
C1679 H1695 0.960 . S
H1680 C1664 0.931 . S
H1681 C1669 0.929 . S
H1682 C1670 0.960 . S
H1683 C1670 0.962 . S
H1684 C1670 0.960 . S
H1685 C1671 0.961 . S
H1686 C1671 0.961 . S
H1687 C1671 0.961 . S
H1688 C1672 0.931 . S
H1689 C1677 0.930 . S
H1690 C1678 0.956 . S
H1691 C1678 0.961 . S
H1692 C1678 0.961 . S
H1693 C1679 0.958 . S
H1694 C1679 0.961 . S
H1695 C1679 0.960 . S
C1696 C1697 1.391 . S
C1696 C1698 1.394 . S
C1696 H1712 0.931 . S
C1697 C1696 1.391 . S
C1697 C1701 1.376 . S
C1698 C1696 1.394 . S
C1698 C1699 1.369 . S
C1698 C1702 1.531 . S
C1699 C1698 1.369 . S
C1699 C1700 1.410 . S
C1699 C1707 1.503 . S
C1700 C1699 1.410 . S
C1700 C1701 1.392 . S
C1700 C1703 1.511 . S
C1701 C1697 1.376 . S
C1701 C1700 1.392 . S
C1701 H1713 0.929 . S
C1702 C1698 1.531 . S
C1702 H1714 0.960 . S
C1702 H1715 0.962 . S
C1702 H1716 0.960 . S
C1703 C1700 1.511 . S
C1703 H1717 0.961 . S
C1703 H1718 0.961 . S
C1703 H1719 0.961 . S
C1704 C1705 1.370 . S
C1704 C1706 1.363 . S
C1704 H1720 0.931 . S
C1705 C1704 1.370 . S
C1705 C1709 1.408 . S
C1706 C1704 1.363 . S
C1706 C1707 1.370 . S
C1706 C1710 1.524 . S
C1707 C1699 1.503 . S
C1707 C1706 1.370 . S
C1707 C1708 1.403 . S
C1708 C1707 1.403 . S
C1708 C1709 1.404 . S
C1708 C1711 1.539 . S
C1709 C1705 1.408 . S
C1709 C1708 1.404 . S
C1709 H1721 0.930 . S
C1710 C1706 1.524 . S
C1710 H1722 0.956 . S
C1710 H1723 0.961 . S
C1710 H1724 0.961 . S
C1711 C1708 1.539 . S
C1711 H1725 0.958 . S
C1711 H1726 0.961 . S
C1711 H1727 0.960 . S
H1712 C1696 0.931 . S
H1713 C1701 0.929 . S
H1714 C1702 0.960 . S
H1715 C1702 0.962 . S
H1716 C1702 0.960 . S
H1717 C1703 0.961 . S
H1718 C1703 0.961 . S
H1719 C1703 0.961 . S
H1720 C1704 0.931 . S
H1721 C1709 0.930 . S
H1722 C1710 0.956 . S
H1723 C1710 0.961 . S
H1724 C1710 0.961 . S
H1725 C1711 0.958 . S
H1726 C1711 0.961 . S
H1727 C1711 0.960 . S
C1728 C1729 1.391 . S
C1728 C1730 1.394 . S
C1728 H1744 0.931 . S
C1729 C1728 1.391 . S
C1729 C1733 1.376 . S
C1730 C1728 1.394 . S
C1730 C1731 1.369 . S
C1730 C1734 1.531 . S
C1731 C1730 1.369 . S
C1731 C1732 1.410 . S
C1731 C1739 1.503 . S
C1732 C1731 1.410 . S
C1732 C1733 1.392 . S
C1732 C1735 1.511 . S
C1733 C1729 1.376 . S
C1733 C1732 1.392 . S
C1733 H1745 0.929 . S
C1734 C1730 1.531 . S
C1734 H1746 0.960 . S
C1734 H1747 0.962 . S
C1734 H1748 0.960 . S
C1735 C1732 1.511 . S
C1735 H1749 0.961 . S
C1735 H1750 0.961 . S
C1735 H1751 0.961 . S
C1736 C1737 1.370 . S
C1736 C1738 1.363 . S
C1736 H1752 0.931 . S
C1737 C1736 1.370 . S
C1737 C1741 1.408 . S
C1738 C1736 1.363 . S
C1738 C1739 1.370 . S
C1738 C1742 1.524 . S
C1739 C1731 1.503 . S
C1739 C1738 1.370 . S
C1739 C1740 1.403 . S
C1740 C1739 1.403 . S
C1740 C1741 1.404 . S
C1740 C1743 1.539 . S
C1741 C1737 1.408 . S
C1741 C1740 1.404 . S
C1741 H1753 0.930 . S
C1742 C1738 1.524 . S
C1742 H1754 0.956 . S
C1742 H1755 0.961 . S
C1742 H1756 0.961 . S
C1743 C1740 1.539 . S
C1743 H1757 0.958 . S
C1743 H1758 0.961 . S
C1743 H1759 0.960 . S
H1744 C1728 0.931 . S
H1745 C1733 0.929 . S
H1746 C1734 0.960 . S
H1747 C1734 0.962 . S
H1748 C1734 0.960 . S
H1749 C1735 0.961 . S
H1750 C1735 0.961 . S
H1751 C1735 0.961 . S
H1752 C1736 0.931 . S
H1753 C1741 0.930 . S
H1754 C1742 0.956 . S
H1755 C1742 0.961 . S
H1756 C1742 0.961 . S
H1757 C1743 0.958 . S
H1758 C1743 0.961 . S
H1759 C1743 0.960 . S
C1760 C1761 1.391 . S
C1760 C1762 1.394 . S
C1760 H1776 0.931 . S
C1761 C1760 1.391 . S
C1761 C1765 1.376 . S
C1762 C1760 1.394 . S
C1762 C1763 1.369 . S
C1762 C1766 1.531 . S
C1763 C1762 1.369 . S
C1763 C1764 1.410 . S
C1763 C1771 1.503 . S
C1764 C1763 1.410 . S
C1764 C1765 1.392 . S
C1764 C1767 1.511 . S
C1765 C1761 1.376 . S
C1765 C1764 1.392 . S
C1765 H1777 0.929 . S
C1766 C1762 1.531 . S
C1766 H1778 0.960 . S
C1766 H1779 0.962 . S
C1766 H1780 0.960 . S
C1767 C1764 1.511 . S
C1767 H1781 0.961 . S
C1767 H1782 0.961 . S
C1767 H1783 0.961 . S
C1768 C1769 1.370 . S
C1768 C1770 1.363 . S
C1768 H1784 0.931 . S
C1769 C1768 1.370 . S
C1769 C1773 1.408 . S
C1770 C1768 1.363 . S
C1770 C1771 1.370 . S
C1770 C1774 1.524 . S
C1771 C1763 1.503 . S
C1771 C1770 1.370 . S
C1771 C1772 1.403 . S
C1772 C1771 1.403 . S
C1772 C1773 1.404 . S
C1772 C1775 1.539 . S
C1773 C1769 1.408 . S
C1773 C1772 1.404 . S
C1773 H1785 0.930 . S
C1774 C1770 1.524 . S
C1774 H1786 0.956 . S
C1774 H1787 0.961 . S
C1774 H1788 0.961 . S
C1775 C1772 1.539 . S
C1775 H1789 0.958 . S
C1775 H1790 0.961 . S
C1775 H1791 0.960 . S
H1776 C1760 0.931 . S
H1777 C1765 0.929 . S
H1778 C1766 0.960 . S
H1779 C1766 0.962 . S
H1780 C1766 0.960 . S
H1781 C1767 0.961 . S
H1782 C1767 0.961 . S
H1783 C1767 0.961 . S
H1784 C1768 0.931 . S
H1785 C1773 0.930 . S
H1786 C1774 0.956 . S
H1787 C1774 0.961 . S
H1788 C1774 0.961 . S
H1789 C1775 0.958 . S
H1790 C1775 0.961 . S
H1791 C1775 0.960 . S
C1792 C1793 1.391 . S
C1792 C1794 1.394 . S
C1792 H1808 0.931 . S
C1793 C1792 1.391 . S
C1793 C1797 1.376 . S
C1794 C1792 1.394 . S
C1794 C1795 1.369 . S
C1794 C1798 1.531 . S
C1795 C1794 1.369 . S
C1795 C1796 1.410 . S
C1795 C1803 1.503 . S
C1796 C1795 1.410 . S
C1796 C1797 1.392 . S
C1796 C1799 1.511 . S
C1797 C1793 1.376 . S
C1797 C1796 1.392 . S
C1797 H1809 0.929 . S
C1798 C1794 1.531 . S
C1798 H1810 0.960 . S
C1798 H1811 0.962 . S
C1798 H1812 0.960 . S
C1799 C1796 1.511 . S
C1799 H1813 0.961 . S
C1799 H1814 0.961 . S
C1799 H1815 0.961 . S
C1800 C1801 1.370 . S
C1800 C1802 1.363 . S
C1800 H1816 0.931 . S
C1801 C1800 1.370 . S
C1801 C1805 1.408 . S
C1802 C1800 1.363 . S
C1802 C1803 1.370 . S
C1802 C1806 1.524 . S
C1803 C1795 1.503 . S
C1803 C1802 1.370 . S
C1803 C1804 1.403 . S
C1804 C1803 1.403 . S
C1804 C1805 1.404 . S
C1804 C1807 1.539 . S
C1805 C1801 1.408 . S
C1805 C1804 1.404 . S
C1805 H1817 0.930 . S
C1806 C1802 1.524 . S
C1806 H1818 0.956 . S
C1806 H1819 0.961 . S
C1806 H1820 0.961 . S
C1807 C1804 1.539 . S
C1807 H1821 0.958 . S
C1807 H1822 0.961 . S
C1807 H1823 0.960 . S
H1808 C1792 0.931 . S
H1809 C1797 0.929 . S
H1810 C1798 0.960 . S
H1811 C1798 0.962 . S
H1812 C1798 0.960 . S
H1813 C1799 0.961 . S
H1814 C1799 0.961 . S
H1815 C1799 0.961 . S
H1816 C1800 0.931 . S
H1817 C1805 0.930 . S
H1818 C1806 0.956 . S
H1819 C1806 0.961 . S
H1820 C1806 0.961 . S
H1821 C1807 0.958 . S
H1822 C1807 0.961 . S
H1823 C1807 0.960 . S
C1824 C1825 1.391 . S
C1824 C1826 1.394 . S
C1824 H1840 0.931 . S
C1825 C1824 1.391 . S
C1825 C1829 1.376 . S
C1826 C1824 1.394 . S
C1826 C1827 1.369 . S
C1826 C1830 1.531 . S
C1827 C1826 1.369 . S
C1827 C1828 1.410 . S
C1827 C1835 1.503 . S
C1828 C1827 1.410 . S
C1828 C1829 1.392 . S
C1828 C1831 1.511 . S
C1829 C1825 1.376 . S
C1829 C1828 1.392 . S
C1829 H1841 0.929 . S
C1830 C1826 1.531 . S
C1830 H1842 0.960 . S
C1830 H1843 0.962 . S
C1830 H1844 0.960 . S
C1831 C1828 1.511 . S
C1831 H1845 0.961 . S
C1831 H1846 0.961 . S
C1831 H1847 0.961 . S
C1832 C1833 1.370 . S
C1832 C1834 1.363 . S
C1832 H1848 0.931 . S
C1833 C1832 1.370 . S
C1833 C1837 1.408 . S
C1834 C1832 1.363 . S
C1834 C1835 1.370 . S
C1834 C1838 1.524 . S
C1835 C1827 1.503 . S
C1835 C1834 1.370 . S
C1835 C1836 1.403 . S
C1836 C1835 1.403 . S
C1836 C1837 1.404 . S
C1836 C1839 1.539 . S
C1837 C1833 1.408 . S
C1837 C1836 1.404 . S
C1837 H1849 0.930 . S
C1838 C1834 1.524 . S
C1838 H1850 0.956 . S
C1838 H1851 0.961 . S
C1838 H1852 0.961 . S
C1839 C1836 1.539 . S
C1839 H1853 0.958 . S
C1839 H1854 0.961 . S
C1839 H1855 0.960 . S
H1840 C1824 0.931 . S
H1841 C1829 0.929 . S
H1842 C1830 0.960 . S
H1843 C1830 0.962 . S
H1844 C1830 0.960 . S
H1845 C1831 0.961 . S
H1846 C1831 0.961 . S
H1847 C1831 0.961 . S
H1848 C1832 0.931 . S
H1849 C1837 0.930 . S
H1850 C1838 0.956 . S
H1851 C1838 0.961 . S
H1852 C1838 0.961 . S
H1853 C1839 0.958 . S
H1854 C1839 0.961 . S
H1855 C1839 0.960 . S
C1856 C1857 1.391 . S
C1856 C1858 1.394 . S
C1856 H1872 0.931 . S
C1857 C1856 1.391 . S
C1857 C1861 1.376 . S
C1858 C1856 1.394 . S
C1858 C1859 1.369 . S
C1858 C1862 1.531 . S
C1859 C1858 1.369 . S
C1859 C1860 1.410 . S
C1859 C1867 1.503 . S
C1860 C1859 1.410 . S
C1860 C1861 1.392 . S
C1860 C1863 1.511 . S
C1861 C1857 1.376 . S
C1861 C1860 1.392 . S
C1861 H1873 0.929 . S
C1862 C1858 1.531 . S
C1862 H1874 0.960 . S
C1862 H1875 0.962 . S
C1862 H1876 0.960 . S
C1863 C1860 1.511 . S
C1863 H1877 0.961 . S
C1863 H1878 0.961 . S
C1863 H1879 0.961 . S
C1864 C1865 1.370 . S
C1864 C1866 1.363 . S
C1864 H1880 0.931 . S
C1865 C1864 1.370 . S
C1865 C1869 1.408 . S
C1866 C1864 1.363 . S
C1866 C1867 1.370 . S
C1866 C1870 1.524 . S
C1867 C1859 1.503 . S
C1867 C1866 1.370 . S
C1867 C1868 1.403 . S
C1868 C1867 1.403 . S
C1868 C1869 1.404 . S
C1868 C1871 1.539 . S
C1869 C1865 1.408 . S
C1869 C1868 1.404 . S
C1869 H1881 0.930 . S
C1870 C1866 1.524 . S
C1870 H1882 0.956 . S
C1870 H1883 0.961 . S
C1870 H1884 0.961 . S
C1871 C1868 1.539 . S
C1871 H1885 0.958 . S
C1871 H1886 0.961 . S
C1871 H1887 0.960 . S
H1872 C1856 0.931 . S
H1873 C1861 0.929 . S
H1874 C1862 0.960 . S
H1875 C1862 0.962 . S
H1876 C1862 0.960 . S
H1877 C1863 0.961 . S
H1878 C1863 0.961 . S
H1879 C1863 0.961 . S
H1880 C1864 0.931 . S
H1881 C1869 0.930 . S
H1882 C1870 0.956 . S
H1883 C1870 0.961 . S
H1884 C1870 0.961 . S
H1885 C1871 0.958 . S
H1886 C1871 0.961 . S
H1887 C1871 0.960 . S
C1888 C1889 1.391 . S
C1888 C1890 1.394 . S
C1888 H1904 0.931 . S
C1889 C1888 1.391 . S
C1889 C1893 1.376 . S
C1890 C1888 1.394 . S
C1890 C1891 1.369 . S
C1890 C1894 1.531 . S
C1891 C1890 1.369 . S
C1891 C1892 1.410 . S
C1891 C1899 1.503 . S
C1892 C1891 1.410 . S
C1892 C1893 1.392 . S
C1892 C1895 1.511 . S
C1893 C1889 1.376 . S
C1893 C1892 1.392 . S
C1893 H1905 0.929 . S
C1894 C1890 1.531 . S
C1894 H1906 0.960 . S
C1894 H1907 0.962 . S
C1894 H1908 0.960 . S
C1895 C1892 1.511 . S
C1895 H1909 0.961 . S
C1895 H1910 0.961 . S
C1895 H1911 0.961 . S
C1896 C1897 1.370 . S
C1896 C1898 1.363 . S
C1896 H1912 0.931 . S
C1897 C1896 1.370 . S
C1897 C1901 1.408 . S
C1898 C1896 1.363 . S
C1898 C1899 1.370 . S
C1898 C1902 1.524 . S
C1899 C1891 1.503 . S
C1899 C1898 1.370 . S
C1899 C1900 1.403 . S
C1900 C1899 1.403 . S
C1900 C1901 1.404 . S
C1900 C1903 1.539 . S
C1901 C1897 1.408 . S
C1901 C1900 1.404 . S
C1901 H1913 0.930 . S
C1902 C1898 1.524 . S
C1902 H1914 0.956 . S
C1902 H1915 0.961 . S
C1902 H1916 0.961 . S
C1903 C1900 1.539 . S
C1903 H1917 0.958 . S
C1903 H1918 0.961 . S
C1903 H1919 0.960 . S
H1904 C1888 0.931 . S
H1905 C1893 0.929 . S
H1906 C1894 0.960 . S
H1907 C1894 0.962 . S
H1908 C1894 0.960 . S
H1909 C1895 0.961 . S
H1910 C1895 0.961 . S
H1911 C1895 0.961 . S
H1912 C1896 0.931 . S
H1913 C1901 0.930 . S
H1914 C1902 0.956 . S
H1915 C1902 0.961 . S
H1916 C1902 0.961 . S
H1917 C1903 0.958 . S
H1918 C1903 0.961 . S
H1919 C1903 0.960 . S
C1920 C1921 1.391 1_554 S
C1920 C1922 1.394 . S
C1920 H1936 0.931 1_554 S
C1921 C1920 1.391 1_556 S
C1921 C1925 1.376 1_556 S
C1922 C1920 1.394 . S
C1922 C1923 1.369 . S
C1922 C1926 1.531 . S
C1923 C1922 1.369 . S
C1923 C1924 1.410 . S
C1923 C1931 1.503 . S
C1924 C1923 1.410 . S
C1924 C1925 1.392 . S
C1924 C1927 1.511 . S
C1925 C1921 1.376 1_554 S
C1925 C1924 1.392 . S
C1925 H1937 0.929 . S
C1926 C1922 1.531 . S
C1926 H1938 0.960 . S
C1926 H1939 0.962 . S
C1926 H1940 0.960 . S
C1927 C1924 1.511 . S
C1927 H1941 0.961 . S
C1927 H1942 0.961 . S
C1927 H1943 0.961 . S
C1928 C1929 1.370 . S
C1928 C1930 1.363 . S
C1928 H1944 0.931 . S
C1929 C1928 1.370 . S
C1929 C1933 1.408 . S
C1930 C1928 1.363 . S
C1930 C1931 1.370 . S
C1930 C1934 1.524 . S
C1931 C1923 1.503 . S
C1931 C1930 1.370 . S
C1931 C1932 1.403 . S
C1932 C1931 1.403 . S
C1932 C1933 1.404 . S
C1932 C1935 1.539 . S
C1933 C1929 1.408 . S
C1933 C1932 1.404 . S
C1933 H1945 0.930 . S
C1934 C1930 1.524 . S
C1934 H1946 0.956 . S
C1934 H1947 0.961 . S
C1934 H1948 0.961 . S
C1935 C1932 1.539 . S
C1935 H1949 0.958 . S
C1935 H1950 0.961 . S
C1935 H1951 0.960 . S
H1936 C1920 0.931 1_556 S
H1937 C1925 0.929 . S
H1938 C1926 0.960 . S
H1939 C1926 0.962 . S
H1940 C1926 0.960 . S
H1941 C1927 0.961 . S
H1942 C1927 0.961 . S
H1943 C1927 0.961 . S
H1944 C1928 0.931 . S
H1945 C1933 0.930 . S
H1946 C1934 0.956 . S
H1947 C1934 0.961 . S
H1948 C1934 0.961 . S
H1949 C1935 0.958 . S
H1950 C1935 0.961 . S
H1951 C1935 0.960 . S
C1952 C1953 1.391 . S
C1952 C1954 1.394 . S
C1952 H1968 0.931 . S
C1953 C1952 1.391 . S
C1953 C1957 1.376 . S
C1954 C1952 1.394 . S
C1954 C1955 1.369 . S
C1954 C1958 1.531 . S
C1955 C1954 1.369 . S
C1955 C1956 1.410 . S
C1955 C1963 1.503 . S
C1956 C1955 1.410 . S
C1956 C1957 1.392 . S
C1956 C1959 1.511 . S
C1957 C1953 1.376 . S
C1957 C1956 1.392 . S
C1957 H1969 0.929 . S
C1958 C1954 1.531 . S
C1958 H1970 0.960 . S
C1958 H1971 0.962 . S
C1958 H1972 0.960 . S
C1959 C1956 1.511 . S
C1959 H1973 0.961 . S
C1959 H1974 0.961 . S
C1959 H1975 0.961 . S
C1960 C1961 1.370 1_556 S
C1960 C1962 1.363 . S
C1960 H1976 0.931 . S
C1961 C1960 1.370 1_554 S
C1961 C1965 1.408 1_554 S
C1962 C1960 1.363 . S
C1962 C1963 1.370 . S
C1962 C1966 1.524 . S
C1963 C1955 1.503 . S
C1963 C1962 1.370 . S
C1963 C1964 1.403 . S
C1964 C1963 1.403 . S
C1964 C1965 1.404 . S
C1964 C1967 1.539 . S
C1965 C1961 1.408 1_556 S
C1965 C1964 1.404 . S
C1965 H1977 0.930 1_556 S
C1966 C1962 1.524 . S
C1966 H1978 0.956 . S
C1966 H1979 0.961 . S
C1966 H1980 0.961 . S
C1967 C1964 1.539 . S
C1967 H1981 0.958 . S
C1967 H1982 0.961 . S
C1967 H1983 0.960 . S
H1968 C1952 0.931 . S
H1969 C1957 0.929 . S
H1970 C1958 0.960 . S
H1971 C1958 0.962 . S
H1972 C1958 0.960 . S
H1973 C1959 0.961 . S
H1974 C1959 0.961 . S
H1975 C1959 0.961 . S
H1976 C1960 0.931 . S
H1977 C1965 0.930 1_554 S
H1978 C1966 0.956 . S
H1979 C1966 0.961 . S
H1980 C1966 0.961 . S
H1981 C1967 0.958 . S
H1982 C1967 0.961 . S
H1983 C1967 0.960 . S
C1984 C1985 1.391 . S
C1984 C1986 1.394 . S
C1984 H2000 0.931 . S
C1985 C1984 1.391 . S
C1985 C1989 1.376 . S
C1986 C1984 1.394 . S
C1986 C1987 1.369 . S
C1986 C1990 1.531 . S
C1987 C1986 1.369 . S
C1987 C1988 1.410 . S
C1987 C1995 1.503 . S
C1988 C1987 1.410 . S
C1988 C1989 1.392 . S
C1988 C1991 1.511 . S
C1989 C1985 1.376 . S
C1989 C1988 1.392 . S
C1989 H2001 0.929 . S
C1990 C1986 1.531 . S
C1990 H2002 0.960 . S
C1990 H2003 0.962 . S
C1990 H2004 0.960 . S
C1991 C1988 1.511 . S
C1991 H2005 0.961 . S
C1991 H2006 0.961 . S
C1991 H2007 0.961 . S
C1992 C1993 1.370 1_554 S
C1992 C1994 1.363 . S
C1992 H2008 0.931 . S
C1993 C1992 1.370 1_556 S
C1993 C1997 1.408 1_556 S
C1994 C1992 1.363 . S
C1994 C1995 1.370 . S
C1994 C1998 1.524 . S
C1995 C1987 1.503 . S
C1995 C1994 1.370 . S
C1995 C1996 1.403 . S
C1996 C1995 1.403 . S
C1996 C1997 1.404 . S
C1996 C1999 1.539 . S
C1997 C1993 1.408 1_554 S
C1997 C1996 1.404 . S
C1997 H2009 0.930 1_554 S
C1998 C1994 1.524 . S
C1998 H2010 0.956 . S
C1998 H2011 0.961 . S
C1998 H2012 0.961 . S
C1999 C1996 1.539 . S
C1999 H2013 0.958 . S
C1999 H2014 0.961 . S
C1999 H2015 0.960 . S
H2000 C1984 0.931 . S
H2001 C1989 0.929 . S
H2002 C1990 0.960 . S
H2003 C1990 0.962 . S
H2004 C1990 0.960 . S
H2005 C1991 0.961 . S
H2006 C1991 0.961 . S
H2007 C1991 0.961 . S
H2008 C1992 0.931 . S
H2009 C1997 0.930 1_556 S
H2010 C1998 0.956 . S
H2011 C1998 0.961 . S
H2012 C1998 0.961 . S
H2013 C1999 0.958 . S
H2014 C1999 0.961 . S
H2015 C1999 0.960 . S
C2016 C2017 1.391 1_556 S
C2016 C2018 1.394 . S
C2016 H2032 0.931 . S
C2017 C2016 1.391 1_554 S
C2017 C2021 1.376 1_554 S
C2018 C2016 1.394 . S
C2018 C2019 1.369 . S
C2018 C2022 1.531 . S
C2019 C2018 1.369 . S
C2019 C2020 1.410 . S
C2019 C2027 1.503 . S
C2020 C2019 1.410 . S
C2020 C2021 1.392 . S
C2020 C2023 1.511 . S
C2021 C2017 1.376 1_556 S
C2021 C2020 1.392 . S
C2021 H2033 0.929 . S
C2022 C2018 1.531 . S
C2022 H2034 0.960 . S
C2022 H2035 0.962 . S
C2022 H2036 0.960 . S
C2023 C2020 1.511 . S
C2023 H2037 0.961 . S
C2023 H2038 0.961 . S
C2023 H2039 0.961 . S
C2024 C2025 1.370 . S
C2024 C2026 1.363 . S
C2024 H2040 0.931 . S
C2025 C2024 1.370 . S
C2025 C2029 1.408 . S
C2026 C2024 1.363 . S
C2026 C2027 1.370 . S
C2026 C2030 1.524 . S
C2027 C2019 1.503 . S
C2027 C2026 1.370 . S
C2027 C2028 1.403 . S
C2028 C2027 1.403 . S
C2028 C2029 1.404 . S
C2028 C2031 1.539 . S
C2029 C2025 1.408 . S
C2029 C2028 1.404 . S
C2029 H2041 0.930 . S
C2030 C2026 1.524 . S
C2030 H2042 0.956 . S
C2030 H2043 0.961 . S
C2030 H2044 0.961 . S
C2031 C2028 1.539 . S
C2031 H2045 0.958 . S
C2031 H2046 0.961 . S
C2031 H2047 0.960 . S
H2032 C2016 0.931 . S
H2033 C2021 0.929 . S
H2034 C2022 0.960 . S
H2035 C2022 0.962 . S
H2036 C2022 0.960 . S
H2037 C2023 0.961 . S
H2038 C2023 0.961 . S
H2039 C2023 0.961 . S
H2040 C2024 0.931 . S
H2041 C2029 0.930 . S
H2042 C2030 0.956 . S
H2043 C2030 0.961 . S
H2044 C2030 0.961 . S
H2045 C2031 0.958 . S
H2046 C2031 0.961 . S
H2047 C2031 0.960 . S
C2048 C2049 1.391 . S
C2048 C2050 1.394 . S
C2048 H2064 0.931 . S
C2049 C2048 1.391 . S
C2049 C2053 1.376 . S
C2050 C2048 1.394 . S
C2050 C2051 1.369 . S
C2050 C2054 1.531 . S
C2051 C2050 1.369 . S
C2051 C2052 1.410 . S
C2051 C2059 1.503 . S
C2052 C2051 1.410 . S
C2052 C2053 1.392 . S
C2052 C2055 1.511 . S
C2053 C2049 1.376 . S
C2053 C2052 1.392 . S
C2053 H2065 0.929 . S
C2054 C2050 1.531 . S
C2054 H2066 0.960 . S
C2054 H2067 0.962 . S
C2054 H2068 0.960 . S
C2055 C2052 1.511 . S
C2055 H2069 0.961 . S
C2055 H2070 0.961 . S
C2055 H2071 0.961 . S
C2056 C2057 1.370 1_554 S
C2056 C2058 1.363 . S
C2056 H2072 0.931 1_554 S
C2057 C2056 1.370 1_556 S
C2057 C2061 1.408 1_556 S
C2058 C2056 1.363 . S
C2058 C2059 1.370 . S
C2058 C2062 1.524 . S
C2059 C2051 1.503 . S
C2059 C2058 1.370 . S
C2059 C2060 1.403 . S
C2060 C2059 1.403 . S
C2060 C2061 1.404 . S
C2060 C2063 1.539 . S
C2061 C2057 1.408 1_554 S
C2061 C2060 1.404 . S
C2061 H2073 0.930 1_554 S
C2062 C2058 1.524 . S
C2062 H2074 0.956 . S
C2062 H2075 0.961 . S
C2062 H2076 0.961 . S
C2063 C2060 1.539 . S
C2063 H2077 0.958 . S
C2063 H2078 0.961 . S
C2063 H2079 0.960 . S
H2064 C2048 0.931 . S
H2065 C2053 0.929 . S
H2066 C2054 0.960 . S
H2067 C2054 0.962 . S
H2068 C2054 0.960 . S
H2069 C2055 0.961 . S
H2070 C2055 0.961 . S
H2071 C2055 0.961 . S
H2072 C2056 0.931 1_556 S
H2073 C2061 0.930 1_556 S
H2074 C2062 0.956 . S
H2075 C2062 0.961 . S
H2076 C2062 0.961 . S
H2077 C2063 0.958 . S
H2078 C2063 0.961 . S
H2079 C2063 0.960 . S
C2080 C2081 1.391 1_556 S
C2080 C2082 1.394 . S
C2080 H2096 0.931 1_556 S
C2081 C2080 1.391 1_554 S
C2081 C2085 1.376 1_554 S
C2082 C2080 1.394 . S
C2082 C2083 1.369 . S
C2082 C2086 1.531 . S
C2083 C2082 1.369 . S
C2083 C2084 1.410 . S
C2083 C2091 1.503 . S
C2084 C2083 1.410 . S
C2084 C2085 1.392 . S
C2084 C2087 1.511 . S
C2085 C2081 1.376 1_556 S
C2085 C2084 1.392 . S
C2085 H2097 0.929 1_556 S
C2086 C2082 1.531 . S
C2086 H2098 0.960 . S
C2086 H2099 0.962 . S
C2086 H2100 0.960 . S
C2087 C2084 1.511 . S
C2087 H2101 0.961 . S
C2087 H2102 0.961 . S
C2087 H2103 0.961 . S
C2088 C2089 1.370 . S
C2088 C2090 1.363 . S
C2088 H2104 0.931 . S
C2089 C2088 1.370 . S
C2089 C2093 1.408 . S
C2090 C2088 1.363 . S
C2090 C2091 1.370 . S
C2090 C2094 1.524 . S
C2091 C2083 1.503 . S
C2091 C2090 1.370 . S
C2091 C2092 1.403 . S
C2092 C2091 1.403 . S
C2092 C2093 1.404 . S
C2092 C2095 1.539 . S
C2093 C2089 1.408 . S
C2093 C2092 1.404 . S
C2093 H2105 0.930 . S
C2094 C2090 1.524 . S
C2094 H2106 0.956 . S
C2094 H2107 0.961 . S
C2094 H2108 0.961 . S
C2095 C2092 1.539 . S
C2095 H2109 0.958 . S
C2095 H2110 0.961 . S
C2095 H2111 0.960 . S
H2096 C2080 0.931 1_554 S
H2097 C2085 0.929 1_554 S
H2098 C2086 0.960 . S
H2099 C2086 0.962 . S
H2100 C2086 0.960 . S
H2101 C2087 0.961 . S
H2102 C2087 0.961 . S
H2103 C2087 0.961 . S
H2104 C2088 0.931 . S
H2105 C2093 0.930 . S
H2106 C2094 0.956 . S
H2107 C2094 0.961 . S
H2108 C2094 0.961 . S
H2109 C2095 0.958 . S
H2110 C2095 0.961 . S
H2111 C2095 0.960 . S
C2112 C2113 1.391 1_554 S
C2112 C2114 1.394 . S
C2112 H2128 0.931 . S
C2113 C2112 1.391 1_556 S
C2113 C2117 1.376 1_556 S
C2114 C2112 1.394 . S
C2114 C2115 1.369 . S
C2114 C2118 1.531 . S
C2115 C2114 1.369 . S
C2115 C2116 1.410 . S
C2115 C2123 1.503 . S
C2116 C2115 1.410 . S
C2116 C2117 1.392 . S
C2116 C2119 1.511 . S
C2117 C2113 1.376 1_554 S
C2117 C2116 1.392 . S
C2117 H2129 0.929 1_554 S
C2118 C2114 1.531 . S
C2118 H2130 0.960 . S
C2118 H2131 0.962 . S
C2118 H2132 0.960 . S
C2119 C2116 1.511 . S
C2119 H2133 0.961 . S
C2119 H2134 0.961 . S
C2119 H2135 0.961 . S
C2120 C2121 1.370 . S
C2120 C2122 1.363 . S
C2120 H2136 0.931 . S
C2121 C2120 1.370 . S
C2121 C2125 1.408 . S
C2122 C2120 1.363 . S
C2122 C2123 1.370 . S
C2122 C2126 1.524 . S
C2123 C2115 1.503 . S
C2123 C2122 1.370 . S
C2123 C2124 1.403 . S
C2124 C2123 1.403 . S
C2124 C2125 1.404 . S
C2124 C2127 1.539 . S
C2125 C2121 1.408 . S
C2125 C2124 1.404 . S
C2125 H2137 0.930 . S
C2126 C2122 1.524 . S
C2126 H2138 0.956 . S
C2126 H2139 0.961 . S
C2126 H2140 0.961 . S
C2127 C2124 1.539 . S
C2127 H2141 0.958 . S
C2127 H2142 0.961 . S
C2127 H2143 0.960 . S
H2128 C2112 0.931 . S
H2129 C2117 0.929 1_556 S
H2130 C2118 0.960 . S
H2131 C2118 0.962 . S
H2132 C2118 0.960 . S
H2133 C2119 0.961 . S
H2134 C2119 0.961 . S
H2135 C2119 0.961 . S
H2136 C2120 0.931 . S
H2137 C2125 0.930 . S
H2138 C2126 0.956 . S
H2139 C2126 0.961 . S
H2140 C2126 0.961 . S
H2141 C2127 0.958 . S
H2142 C2127 0.961 . S
H2143 C2127 0.960 . S
C2144 C2145 1.391 . S
C2144 C2146 1.394 . S
C2144 H2160 0.931 . S
C2145 C2144 1.391 . S
C2145 C2149 1.376 . S
C2146 C2144 1.394 . S
C2146 C2147 1.369 . S
C2146 C2150 1.531 . S
C2147 C2146 1.369 . S
C2147 C2148 1.410 . S
C2147 C2155 1.503 . S
C2148 C2147 1.410 . S
C2148 C2149 1.392 . S
C2148 C2151 1.511 . S
C2149 C2145 1.376 . S
C2149 C2148 1.392 . S
C2149 H2161 0.929 . S
C2150 C2146 1.531 . S
C2150 H2162 0.960 . S
C2150 H2163 0.962 . S
C2150 H2164 0.960 . S
C2151 C2148 1.511 . S
C2151 H2165 0.961 . S
C2151 H2166 0.961 . S
C2151 H2167 0.961 . S
C2152 C2153 1.370 1_556 S
C2152 C2154 1.363 . S
C2152 H2168 0.931 1_556 S
C2153 C2152 1.370 1_554 S
C2153 C2157 1.408 1_554 S
C2154 C2152 1.363 . S
C2154 C2155 1.370 . S
C2154 C2158 1.524 . S
C2155 C2147 1.503 . S
C2155 C2154 1.370 . S
C2155 C2156 1.403 . S
C2156 C2155 1.403 . S
C2156 C2157 1.404 . S
C2156 C2159 1.539 . S
C2157 C2153 1.408 1_556 S
C2157 C2156 1.404 . S
C2157 H2169 0.930 1_556 S
C2158 C2154 1.524 . S
C2158 H2170 0.956 . S
C2158 H2171 0.961 . S
C2158 H2172 0.961 . S
C2159 C2156 1.539 . S
C2159 H2173 0.958 . S
C2159 H2174 0.961 . S
C2159 H2175 0.960 . S
H2160 C2144 0.931 . S
H2161 C2149 0.929 . S
H2162 C2150 0.960 . S
H2163 C2150 0.962 . S
H2164 C2150 0.960 . S
H2165 C2151 0.961 . S
H2166 C2151 0.961 . S
H2167 C2151 0.961 . S
H2168 C2152 0.931 1_554 S
H2169 C2157 0.930 1_554 S
H2170 C2158 0.956 . S
H2171 C2158 0.961 . S
H2172 C2158 0.961 . S
H2173 C2159 0.958 . S
H2174 C2159 0.961 . S
H2175 C2159 0.960 . S
C641 C449 1.700 . S
C649 C8 1.706 . S
C673 C339 1.695 . S
C681 C58 1.705 . S
C705 C88 1.679 . S
C713 C369 1.728 . S
C737 C138 1.665 . S
C745 C419 1.727 . S
C769 C168 1.680 . S
C777 C209 1.728 . S
C801 C259 1.698 . S
C809 C218 1.706 . S
C833 C248 1.675 . S
C841 C289 1.728 . S
C865 C179 1.735 . S
C873 C298 1.685 . S
C897 C129 1.707 . S
C905 C328 1.706 . S
C929 C378 1.665 . S
C937 C19 1.726 . S
C961 C49 1.735 . S
C969 C408 1.688 . S
C993 C99 1.707 . S
C1001 C458 1.704 . S
C1025 C488 1.680 . S
C1033 C529 1.728 . S
C1057 C579 1.728 . S
C1065 C538 1.685 . S
C1089 C609 1.734 . S
C1097 C568 1.686 . S
C1121 C618 1.707 . S
C1129 C499 1.712 . S
C1153 C18 1.230 . S
C1161 C178 1.181 . S
C1185 C208 1.226 . S
C1193 C48 1.182 . S
C1217 C98 1.245 . S
C1225 C258 1.191 . S
C1249 C128 1.156 . S
C1257 C288 1.199 . S
C1281 C338 1.202 . S
C1289 C498 1.216 . S
C1313 C528 1.244 . S
C1321 C368 1.198 . S
C1345 C418 1.182 . S
C1353 C578 1.191 . S
C1377 C448 1.190 . S
C1385 C608 1.220 . S
C1409 C569 2.302 . S
C1417 C9 2.310 1_556 S
C1441 C59 2.311 1_554 S
C1449 C619 2.301 . S
C1473 C89 2.305 1_556 S
C1481 C489 2.302 . S
C1505 C139 2.310 1_554 S
C1513 C539 2.302 . S
C1537 C169 2.306 . S
C1545 C409 2.302 . S
C1569 C219 2.292 . S
C1577 C459 2.312 . S
C1601 C249 2.304 . S
C1609 C329 2.302 . S
C1633 C379 2.314 . S
C1641 C299 2.301 . S
C1665 C15 1.016 . S
C1673 C5 1.008 . S
C1697 C45 1.015 . S
C1705 C55 1.009 . S
C1729 C95 1.008 . S
C1737 C85 1.013 . S
C1761 C135 1.002 . S
C1769 C125 1.014 . S
C1793 C165 0.999 . S
C1801 C175 1.016 . S
C1825 C205 0.999 . S
C1833 C215 1.016 . S
C1857 C255 1.005 . S
C1865 C245 1.014 . S
C1889 C295 1.018 . S
C1897 C285 1.008 . S
C1921 C335 1.014 . S
C1929 C325 1.009 . S
C1953 C375 1.005 . S
C1961 C365 1.012 . S
C1985 C405 1.009 . S
C1993 C415 1.012 . S
C2017 C445 1.000 . S
C2025 C455 1.015 . S
C2049 C495 1.003 . S
C2057 C485 1.015 . S
C2081 C535 1.020 . S
C2089 C525 1.007 . S
C2113 C565 1.007 . S
C2121 C575 1.013 . S
C2145 C605 1.000 . S
C2153 C615 1.015 . S
