# Generated by pormake.
# Topology uon, (4)-cn, num edge types: 1
# Building blocks:
#     Node 0, Type 0, BuildingBlock: ICAMEG_clean_sbu_1, # of connection points: 4
#     Node 1, Type 0, BuildingBlock: ICAMEG_clean_sbu_1, # of connection points: 4
#     Node 2, Type 0, BuildingBlock: ICAMEG_clean_sbu_1, # of connection points: 4
#     Node 3, Type 0, BuildingBlock: ICAMEG_clean_sbu_1, # of connection points: 4
#     Node 4, Type 0, BuildingBlock: ICAMEG_clean_sbu_1, # of connection points: 4
#     Node 5, Type 0, BuildingBlock: ICAMEG_clean_sbu_1, # of connection points: 4
#     Edge 6, Type (0, 0), BuildingBlock: OJICUG_clean_linker_0, # of connection points: 2
#     Edge 7, Type (0, 0), BuildingBlock: OJICUG_clean_linker_0, # of connection points: 2
#     Edge 8, Type (0, 0), BuildingBlock: OJICUG_clean_linker_0, # of connection points: 2
#     Edge 9, Type (0, 0), BuildingBlock: OJICUG_clean_linker_0, # of connection points: 2
#     Edge 10, Type (0, 0), BuildingBlock: OJICUG_clean_linker_0, # of connection points: 2
#     Edge 11, Type (0, 0), BuildingBlock: OJICUG_clean_linker_0, # of connection points: 2
#     Edge 12, Type (0, 0), BuildingBlock: OJICUG_clean_linker_0, # of connection points: 2
#     Edge 13, Type (0, 0), BuildingBlock: OJICUG_clean_linker_0, # of connection points: 2
#     Edge 14, Type (0, 0), BuildingBlock: OJICUG_clean_linker_0, # of connection points: 2
#     Edge 15, Type (0, 0), BuildingBlock: OJICUG_clean_linker_0, # of connection points: 2
#     Edge 16, Type (0, 0), BuildingBlock: OJICUG_clean_linker_0, # of connection points: 2
#     Edge 17, Type (0, 0), BuildingBlock: OJICUG_clean_linker_0, # of connection points: 2
# Relax obj value: 0.158
# Max RMSD: 0.296
# Mean RMSD: 0.272
data_MOF--net-uon--node1-ICAMEG_clean_sbu_1--edge1-OJICUG_clean_linker_0
_symmetry_space_group_name_H-M    P1
_symmetry_Int_Tables_number       1
_symmetry_cell_setting            triclinic
loop_
_symmetry_equiv_pos_as_xyz
'x, y, z'
_cell_length_a     27.348073
_cell_length_b     27.333496
_cell_length_c     12.779174
_cell_angle_alpha  89.597591
_cell_angle_beta   90.417738
_cell_angle_gamma 120.00397
loop_
_atom_site_label
_atom_site_type_symbol
_atom_site_fract_x
_atom_site_fract_y
_atom_site_fract_z
_atom_type_partial_charge
Co0 Co 0.17946 0.43639 0.03273 0.0
Co1 Co 0.26604 0.43344 0.2282 0.0
O2 O 0.24483 0.43242 0.0821 0.0
C3 C 0.27629 0.5021 0.89999 0.0
O4 O 0.27679 0.45485 0.88458 0.0
C5 C 0.25355 0.32027 0.16939 0.0
O6 O 0.2014 0.29252 0.20346 0.0
O7 O 0.18584 0.3765 0.26436 0.0
O8 O 0.12925 0.37575 0.13372 0.0
H9 H 0.24809 0.44063 0.61835 0.0
H10 H 0.17372 0.32523 0.02975 0.0
O11 O 0.23291 0.50015 0.94033 0.0
H12 H 0.13866 0.3605 0.66561 0.0
H13 H 0.08429 0.54696 0.94095 0.0
H14 H 0.0563 0.35673 0.00472 0.0
H15 H 0.15408 0.42899 0.80504 0.0
H16 H 0.16566 0.53315 0.96821 0.0
O17 O 0.28436 0.37325 0.18558 0.0
H18 H 0.22097 0.44148 0.43395 0.0
H19 H 0.35604 0.4192 0.33239 0.0
H20 H 0.97328 0.36845 0.97872 0.0
H21 H 0.15906 0.2556 0.89321 0.0
H22 H 0.98746 0.4649 0.95343 0.0
H23 H 0.14155 0.27329 0.70937 0.0
O24 O 0.19255 0.49264 0.13707 0.0
H25 H 0.44746 0.51859 0.02375 0.0
H26 H 0.35124 0.54094 0.32867 0.0
H27 H 0.45038 0.61219 0.29416 0.0
H28 H 0.49946 0.60094 0.14139 0.0
H29 H 0.34702 0.45073 0.05694 0.0
H30 H 0.38435 0.41758 0.51569 0.0
H31 H 0.33036 0.42871 0.66012 0.0
O32 O 0.25109 0.49678 0.26428 0.0
C33 C 0.13701 0.35885 0.22286 0.0
C34 C 0.27193 0.43575 0.5561 0.0
C35 C 0.34837 0.42275 0.49849 0.0
N36 N 0.28712 0.43078 0.37259 0.0
C37 C 0.25687 0.43636 0.45157 0.0
C38 C 0.33203 0.42348 0.39489 0.0
C39 C 0.3181 0.42904 0.57949 0.0
C40 C 0.16597 0.33288 0.95019 0.0
N41 N 0.16479 0.38088 0.92531 0.0
C42 C 0.15774 0.29345 0.87309 0.0
C43 C 0.14797 0.30343 0.76995 0.0
C44 C 0.14631 0.35234 0.74534 0.0
C45 C 0.15476 0.39079 0.82458 0.0
C46 C 0.07776 0.50485 0.95289 0.0
C47 C 0.06255 0.39811 0.98803 0.0
C48 C 0.12377 0.49659 0.96694 0.0
N49 N 0.11579 0.4438 0.98612 0.0
C50 C 0.01546 0.40468 0.9743 0.0
C51 C 0.02334 0.45865 0.95883 0.0
C52 C 0.22067 0.51418 0.21946 0.0
C53 C 0.42657 0.5239 0.0907 0.0
C54 C 0.37184 0.53611 0.2609 0.0
C55 C 0.42819 0.57651 0.2422 0.0
C56 C 0.45573 0.57011 0.15668 0.0
N57 N 0.34349 0.49064 0.19609 0.0
C58 C 0.36985 0.48507 0.11053 0.0
Co59 Co 0.76204 0.22366 0.49379 0.0
Co60 Co 0.87849 0.26547 0.65349 0.0
O61 O 0.84231 0.27042 0.52529 0.0
C62 C 0.78182 0.33881 0.52346 0.0
O63 O 0.81881 0.34386 0.5942 0.0
C64 C 0.9359 0.24495 0.47559 0.0
O65 O 0.8859 0.21323 0.43334 0.0
O66 O 0.83448 0.18172 0.65041 0.0
O67 O 0.76473 0.15303 0.53025 0.0
H68 H 0.88242 0.18268 0.00239 0.0
H69 H 0.83559 0.31022 0.33956 0.0
O70 O 0.75703 0.29422 0.46707 0.0
H71 H 0.75457 0.12843 0.15369 0.0
H72 H 0.58588 0.17414 0.28761 0.0
H73 H 0.66432 0.12389 0.59152 0.0
H74 H 0.73199 0.13165 0.33954 0.0
H75 H 0.688 0.22796 0.32657 0.0
O76 O 0.94009 0.26575 0.56658 0.0
H77 H 0.83743 0.20247 0.85284 0.0
H78 H 0.99836 0.31399 0.72255 0.0
H79 H 0.56204 0.06867 0.55511 0.0
H80 H 0.85907 0.3091 0.15372 0.0
H81 H 0.52213 0.09436 0.4032 0.0
H82 H 0.81743 0.21781 0.05923 0.0
O83 O 0.7404 0.22593 0.63834 0.0
H84 H 0.99249 0.45811 0.49309 0.0
H85 H 0.89841 0.35277 0.81414 0.0
H86 H 0.93763 0.45608 0.80699 0.0
H87 H 0.98752 0.50971 0.64803 0.0
H88 H 0.94766 0.35469 0.49885 0.0
H89 H 0.0444 0.29173 0.86687 0.0
H90 H 0.98667 0.22642 0.00844 0.0
O91 O 0.81744 0.26586 0.74153 0.0
C92 C 0.79207 0.143 0.60145 0.0
C93 C 0.90814 0.21186 0.94167 0.0
C94 C 0.9991 0.27304 0.86538 0.0
N95 N 0.91521 0.25976 0.77934 0.0
C96 C 0.88297 0.22384 0.8574 0.0
C97 C 0.97271 0.28534 0.78382 0.0
C98 C 0.96661 0.2363 0.94496 0.0
C99 C 0.81772 0.27033 0.29897 0.0
N100 N 0.78216 0.22109 0.34976 0.0
C101 C 0.83123 0.26994 0.1939 0.0
C102 C 0.8081 0.21865 0.14104 0.0
C103 C 0.77264 0.1685 0.19397 0.0
C104 C 0.76019 0.17052 0.29916 0.0
C105 C 0.60281 0.16252 0.35397 0.0
C106 C 0.64747 0.1344 0.5238 0.0
C107 C 0.6606 0.19274 0.37628 0.0
N108 N 0.68226 0.17838 0.4601 0.0
C109 C 0.58945 0.10326 0.504 0.0
C110 C 0.56707 0.11763 0.41865 0.0
C111 C 0.76458 0.24535 0.7253 0.0
C112 C 0.97251 0.43545 0.56427 0.0
C113 C 0.91939 0.37568 0.74387 0.0
C114 C 0.9422 0.43425 0.74098 0.0
C115 C 0.96952 0.46432 0.65105 0.0
N116 N 0.92116 0.34749 0.65738 0.0
C117 C 0.94758 0.37674 0.56854 0.0
Co118 Co 0.56783 0.74352 0.69537 0.0
Co119 Co 0.57052 0.83287 0.88811 0.0
O120 O 0.57183 0.81297 0.74262 0.0
C121 C 0.50107 0.77411 0.56261 0.0
O122 O 0.54806 0.82182 0.54481 0.0
C123 C 0.68493 0.93237 0.83115 0.0
O124 O 0.7118 0.90724 0.8674 0.0
O125 O 0.6262 0.80809 0.92676 0.0
O126 O 0.62894 0.75432 0.79593 0.0
H127 H 0.56075 0.80585 0.27851 0.0
H128 H 0.67868 0.84918 0.68944 0.0
O129 O 0.50357 0.7328 0.60343 0.0
H130 H 0.64193 0.77838 0.32714 0.0
H131 H 0.45762 0.53772 0.60715 0.0
H132 H 0.64755 0.70017 0.66931 0.0
H133 H 0.57424 0.72527 0.46813 0.0
H134 H 0.47112 0.63274 0.63309 0.0
O135 O 0.63198 0.911 0.84573 0.0
H136 H 0.56039 0.77845 0.0947 0.0
H137 H 0.58601 0.9374 0.99039 0.0
H138 H 0.63613 0.60558 0.64474 0.0
H139 H 0.74748 0.90421 0.55126 0.0
H140 H 0.53988 0.52321 0.61997 0.0
H141 H 0.72904 0.86878 0.36834 0.0
O142 O 0.51209 0.70029 0.80099 0.0
H143 H 0.49065 0.93457 0.68054 0.0
H144 H 0.46265 0.81143 0.98439 0.0
H145 H 0.39311 0.84148 0.94702 0.0
H146 H 0.40721 0.90411 0.79485 0.0
H147 H 0.55675 0.89989 0.71641 0.0
H148 H 0.58717 0.96676 0.17307 0.0
H149 H 0.57415 0.90057 0.31858 0.0
O150 O 0.50602 0.75496 0.9236 0.0
C151 C 0.64476 0.77786 0.88569 0.0
C152 C 0.56647 0.83504 0.21579 0.0
C153 C 0.58135 0.92538 0.15662 0.0
N154 N 0.57276 0.85613 0.03201 0.0
C155 C 0.56613 0.81969 0.11159 0.0
C156 C 0.58086 0.90861 0.05337 0.0
C157 C 0.574 0.88821 0.23823 0.0
C158 C 0.67071 0.83368 0.61027 0.0
N159 N 0.62274 0.78434 0.58677 0.0
C160 C 0.70966 0.86491 0.53224 0.0
C161 C 0.69926 0.84504 0.42963 0.0
C162 C 0.6504 0.7943 0.40644 0.0
C163 C 0.61242 0.76427 0.48657 0.0
C164 C 0.49966 0.57336 0.61878 0.0
C165 C 0.60623 0.665 0.65302 0.0
C166 C 0.50775 0.62754 0.63207 0.0
N167 N 0.56047 0.67243 0.65067 0.0
C168 C 0.59983 0.61143 0.64008 0.0
C169 C 0.54596 0.56527 0.62496 0.0
C170 C 0.48936 0.70701 0.881 0.0
C171 C 0.48412 0.9074 0.74729 0.0
C172 C 0.46866 0.83777 0.91674 0.0
C173 C 0.42927 0.855 0.89649 0.0
C174 C 0.43729 0.89027 0.81135 0.0
N175 N 0.51468 0.85485 0.85365 0.0
C176 C 0.52189 0.88819 0.76853 0.0
Co177 Co 0.78083 0.53892 0.16666 0.0
Co178 Co 0.73765 0.61285 0.32224 0.0
O179 O 0.73377 0.5723 0.19491 0.0
C180 C 0.66539 0.44335 0.19306 0.0
O181 O 0.65945 0.4748 0.26269 0.0
C182 C 0.7595 0.69153 0.14278 0.0
O183 O 0.79123 0.67323 0.10174 0.0
O184 O 0.82141 0.65239 0.32217 0.0
O185 O 0.85107 0.61203 0.20417 0.0
H186 H 0.81828 0.69859 0.67134 0.0
H187 H 0.69593 0.52684 0.00839 0.0
O188 O 0.71061 0.46355 0.13861 0.0
H189 H 0.87947 0.62754 0.82844 0.0
H190 H 0.83261 0.41314 0.96758 0.0
H191 H 0.87958 0.54063 0.26952 0.0
H192 H 0.87436 0.60137 0.01517 0.0
H193 H 0.77827 0.46118 0.00197 0.0
O194 O 0.73843 0.67475 0.23368 0.0
H195 H 0.7985 0.63337 0.52414 0.0
H196 H 0.68928 0.68464 0.38656 0.0
H197 H 0.93524 0.49381 0.23776 0.0
H198 H 0.69896 0.55185 0.82157 0.0
H199 H 0.91128 0.42889 0.08675 0.0
H200 H 0.79114 0.60137 0.73006 0.0
O201 O 0.77707 0.5143 0.31174 0.0
H202 H 0.54659 0.5367 0.15552 0.0
H203 H 0.64871 0.54511 0.48074 0.0
H204 H 0.54525 0.48236 0.47122 0.0
H205 H 0.49331 0.48002 0.31004 0.0
H206 H 0.65004 0.59391 0.16385 0.0
H207 H 0.71173 0.75345 0.52829 0.0
H208 H 0.77596 0.76039 0.67221 0.0
O209 O 0.73607 0.55077 0.41197 0.0
C210 C 0.86052 0.64896 0.27495 0.0
C211 C 0.78958 0.6954 0.60954 0.0
C212 C 0.72985 0.72632 0.52896 0.0
N213 N 0.74239 0.6548 0.44706 0.0
C214 C 0.77757 0.65799 0.52662 0.0
C215 C 0.71741 0.6873 0.44892 0.0
C216 C 0.76595 0.73018 0.60991 0.0
C217 C 0.73621 0.54888 0.96911 0.0
N218 N 0.78489 0.56229 0.02205 0.0
C219 C 0.73768 0.563 0.86348 0.0
C220 C 0.78946 0.5911 0.81228 0.0
C221 C 0.83903 0.60559 0.86741 0.0
C222 C 0.83593 0.5909 0.97309 0.0
C223 C 0.8435 0.44142 0.03355 0.0
C224 C 0.86977 0.51351 0.20224 0.0
C225 C 0.81298 0.46884 0.05327 0.0
N226 N 0.82644 0.50455 0.13653 0.0
C227 C 0.90117 0.48677 0.18508 0.0
C228 C 0.88775 0.45039 0.10026 0.0
C229 C 0.75666 0.51845 0.39754 0.0
C230 C 0.56856 0.53867 0.22753 0.0
C231 C 0.62653 0.54374 0.40949 0.0
C232 C 0.56788 0.50873 0.40524 0.0
C233 C 0.53875 0.50678 0.31409 0.0
N234 N 0.65564 0.57382 0.32332 0.0
C235 C 0.62729 0.57168 0.23326 0.0
Co236 Co 0.25796 0.82347 0.36653 0.0
Co237 Co 0.17065 0.73795 0.56367 0.0
O238 O 0.18903 0.75851 0.41723 0.0
C239 C 0.22537 0.72533 0.2367 0.0
O240 O 0.17723 0.72424 0.22155 0.0
C241 C 0.07051 0.75215 0.50716 0.0
O242 O 0.09559 0.8042 0.54198 0.0
O243 O 0.1954 0.81857 0.59928 0.0
O244 O 0.24878 0.87446 0.46655 0.0
H245 H 0.201 0.75706 0.95316 0.0
H246 H 0.15302 0.82999 0.36396 0.0
O247 O 0.26715 0.76933 0.27524 0.0
H248 H 0.21927 0.86221 0.99882 0.0
H249 H 0.46236 0.91697 0.27062 0.0
H250 H 0.30199 0.94675 0.33709 0.0
H251 H 0.27334 0.84687 0.13818 0.0
H252 H 0.36736 0.83619 0.30046 0.0
O253 O 0.0921 0.72071 0.52267 0.0
H254 H 0.22672 0.78338 0.76816 0.0
H255 H 0.06731 0.64909 0.67009 0.0
H256 H 0.39669 0.02924 0.30869 0.0
H257 H 0.09709 0.84459 0.22752 0.0
H258 H 0.47805 0.01411 0.28187 0.0
H259 H 0.13025 0.86072 0.04321 0.0
O260 O 0.3021 0.81091 0.47091 0.0
H261 H 0.06997 0.55586 0.36095 0.0
H262 H 0.19325 0.65229 0.66294 0.0
H263 H 0.16461 0.55303 0.62789 0.0
H264 H 0.10211 0.50392 0.47641 0.0
H265 H 0.10293 0.65627 0.39488 0.0
H266 H 0.03959 0.62163 0.85403 0.0
H267 H 0.10688 0.67565 0.99702 0.0
O268 O 0.24898 0.7519 0.59786 0.0
C269 C 0.22569 0.8672 0.55656 0.0
C270 C 0.17134 0.73323 0.89156 0.0
C271 C 0.08072 0.65724 0.83593 0.0
N272 N 0.14871 0.71754 0.70853 0.0
C273 C 0.18573 0.74782 0.7867 0.0
C274 C 0.09655 0.67309 0.73196 0.0
C275 C 0.1185 0.68753 0.91612 0.0
C276 C 0.16751 0.83709 0.28416 0.0
N277 N 0.21612 0.83756 0.25896 0.0
C278 C 0.13579 0.84531 0.20713 0.0
C279 C 0.15438 0.85429 0.10373 0.0
C280 C 0.20433 0.85514 0.07875 0.0
C281 C 0.23489 0.84671 0.15794 0.0
C282 C 0.42716 0.92388 0.28311 0.0
C283 C 0.33667 0.94009 0.31982 0.0
C284 C 0.37296 0.8782 0.29859 0.0
N285 N 0.32866 0.88667 0.31842 0.0
C286 C 0.39031 0.98689 0.3047 0.0
C287 C 0.43589 0.9785 0.28835 0.0
C288 C 0.29633 0.78241 0.55263 0.0
C289 C 0.09718 0.5768 0.42728 0.0
C290 C 0.16678 0.63166 0.5958 0.0
C291 C 0.15041 0.57524 0.57679 0.0
C292 C 0.11523 0.54766 0.49203 0.0
N293 N 0.14889 0.66007 0.53194 0.0
C294 C 0.11542 0.63356 0.44744 0.0
Co295 Co 0.46707 0.24391 0.82934 0.0
Co296 Co 0.39128 0.1267 0.98699 0.0
O297 O 0.43234 0.16334 0.85956 0.0
C298 C 0.56116 0.22188 0.85512 0.0
O299 O 0.53018 0.18596 0.92774 0.0
C300 C 0.3134 0.06933 0.80709 0.0
O301 O 0.33147 0.11929 0.76453 0.0
O302 O 0.35143 0.17064 0.98309 0.0
O303 O 0.39533 0.24315 0.86917 0.0
H304 H 0.30357 0.12068 0.33334 0.0
H305 H 0.47531 0.16971 0.67126 0.0
O306 O 0.54113 0.24694 0.7992 0.0
H307 H 0.3761 0.25621 0.49419 0.0
H308 H 0.59405 0.42006 0.62441 0.0
H309 H 0.46985 0.34269 0.93169 0.0
H310 H 0.40475 0.27709 0.67971 0.0
H311 H 0.54372 0.3176 0.66112 0.0
O312 O 0.33009 0.06529 0.89864 0.0
H313 H 0.36903 0.16668 0.18632 0.0
H314 H 0.32003 0.00648 0.0535 0.0
H315 H 0.51905 0.44533 0.89768 0.0
H316 H 0.44775 0.14784 0.48555 0.0
H317 H 0.58238 0.48469 0.74401 0.0
H318 H 0.39891 0.19228 0.39549 0.0
O319 O 0.49333 0.26433 0.97329 0.0
H320 H 0.46979 0.01287 0.82911 0.0
H321 H 0.45924 0.107 0.14898 0.0
H322 H 0.52382 0.06849 0.14314 0.0
H323 H 0.52716 0.01847 0.98481 0.0
H324 H 0.41107 0.05752 0.83324 0.0
H325 H 0.25089 0.95952 0.19468 0.0
H326 H 0.24289 0.01638 0.33652 0.0
O327 O 0.45254 0.18746 0.07693 0.0
C328 C 0.35689 0.21472 0.9373 0.0
C329 C 0.30729 0.09537 0.2726 0.0
C330 C 0.27762 0.00485 0.19458 0.0
N331 N 0.34876 0.08933 0.11167 0.0
C332 C 0.34482 0.12109 0.1898 0.0
C333 C 0.31678 0.03177 0.11473 0.0
C334 C 0.27312 0.03685 0.27425 0.0
C335 C 0.45361 0.18875 0.63258 0.0
N336 N 0.44196 0.22491 0.68567 0.0
C337 C 0.43804 0.17616 0.5276 0.0
C338 C 0.41033 0.20085 0.47722 0.0
C339 C 0.39771 0.23691 0.53252 0.0
C340 C 0.41379 0.2484 0.63753 0.0
C341 C 0.56647 0.40337 0.69152 0.0
C342 C 0.49618 0.35933 0.86321 0.0
C343 C 0.53774 0.3454 0.71254 0.0
N344 N 0.50294 0.32404 0.79729 0.0
C345 C 0.52429 0.41755 0.84479 0.0
C346 C 0.55978 0.43961 0.75848 0.0
C347 C 0.48713 0.23986 0.06059 0.0
C348 C 0.46734 0.03295 0.89996 0.0
C349 C 0.46109 0.08613 0.07884 0.0
C350 C 0.49712 0.06367 0.07673 0.0
C351 C 0.49963 0.03627 0.98718 0.0
N352 N 0.43079 0.08418 0.99186 0.0
C353 C 0.43344 0.05774 0.90335 0.0
C354 C 0.31686 0.32187 0.02618 0.0
C355 C 0.2758 0.29137 0.10278 0.0
H356 H 0.37251 0.32141 0.90982 0.0
C357 C 0.25572 0.23322 0.1128 0.0
H358 H 0.33189 0.36614 0.0133 0.0
C359 C 0.27924 0.20727 0.05314 0.0
C360 C 0.32279 0.23865 0.98059 0.0
H361 H 0.22342 0.20822 0.1696 0.0
H362 H 0.26481 0.16298 0.06717 0.0
C363 C 0.33968 0.29585 0.96526 0.0
C364 C 0.98362 0.26449 0.30087 0.0
C365 C 0.98748 0.26556 0.41075 0.0
H366 H 0.02763 0.29301 0.15549 0.0
C367 C 0.04135 0.29203 0.45749 0.0
H368 H 0.94283 0.24476 0.26215 0.0
C369 C 0.09012 0.31902 0.39596 0.0
C370 C 0.08619 0.32118 0.28622 0.0
H371 H 0.04582 0.29352 0.5419 0.0
H372 H 0.13075 0.34077 0.43503 0.0
C373 C 0.03234 0.29236 0.23948 0.0
C374 C 0.79854 0.07316 0.7219 0.0
C375 C 0.76863 0.08461 0.64401 0.0
H376 H 0.79567 0.01647 0.84226 0.0
C377 C 0.71276 0.04282 0.62203 0.0
H378 H 0.84186 0.10406 0.74089 0.0
C379 C 0.68621 0.9932 0.68186 0.0
C380 C 0.71488 0.98363 0.76433 0.0
H381 H 0.68849 0.04945 0.56206 0.0
H382 H 0.64298 0.96253 0.66364 0.0
C383 C 0.77207 0.0231 0.78083 0.0
C384 C 0.73981 0.71954 0.96685 0.0
C385 C 0.73881 0.72241 0.07662 0.0
H386 H 0.71093 0.73466 0.82061 0.0
C387 C 0.71207 0.74954 0.12212 0.0
H388 H 0.75972 0.69866 0.92909 0.0
C389 C 0.68471 0.77094 0.05958 0.0
C390 C 0.68249 0.76478 0.95001 0.0
H391 H 0.7106 0.75255 0.20643 0.0
H392 H 0.66277 0.78961 0.09777 0.0
C393 C 0.7116 0.74005 0.90443 0.0
C394 C 0.92947 0.72434 0.39684 0.0
C395 C 0.91859 0.68366 0.31886 0.0
H396 H 0.98562 0.77761 0.51762 0.0
C397 C 0.96073 0.67013 0.29753 0.0
H398 H 0.89829 0.73632 0.41537 0.0
C399 C 0.01019 0.69313 0.35784 0.0
C400 C 0.01925 0.73073 0.44021 0.0
H401 H 0.95454 0.63975 0.23756 0.0
H402 H 0.0412 0.6811 0.33994 0.0
C403 C 0.97937 0.74786 0.45626 0.0
C404 C 0.25545 0.96377 0.78973 0.0
C405 C 0.28246 0.01754 0.74247 0.0
H406 H 0.2151 0.87429 0.76839 0.0
C407 C 0.28492 0.02104 0.63256 0.0
H408 H 0.25272 0.95955 0.87417 0.0
C409 C 0.26405 0.97209 0.57176 0.0
C410 C 0.23937 0.91835 0.61913 0.0
H411 H 0.30567 0.06174 0.59346 0.0
H412 H 0.26902 0.97653 0.48776 0.0
C413 C 0.23371 0.91479 0.72882 0.0
C414 C 0.27356 0.66819 0.26967 0.0
C415 C 0.22554 0.67131 0.23863 0.0
H416 H 0.30973 0.61455 0.29112 0.0
C417 C 0.17497 0.62111 0.21889 0.0
H418 H 0.313 0.70622 0.28731 0.0
C419 C 0.17237 0.56927 0.22776 0.0
C420 C 0.22088 0.56592 0.25161 0.0
H421 H 0.13687 0.62152 0.1967 0.0
H422 H 0.13279 0.53157 0.20881 0.0
C423 C 0.27138 0.61574 0.27513 0.0
C424 C 0.66171 0.2856 0.80241 0.0
C425 C 0.61965 0.23373 0.84257 0.0
H426 H 0.74599 0.33277 0.74421 0.0
C427 C 0.63403 0.19288 0.87274 0.0
H428 H 0.65222 0.31847 0.78159 0.0
C429 C 0.68765 0.20108 0.85133 0.0
C430 C 0.72798 0.25067 0.80146 0.0
H431 H 0.60263 0.15283 0.90588 0.0
H432 H 0.69541 0.16622 0.86306 0.0
C433 C 0.71583 0.29435 0.7838 0.0
C434 C 0.38763 0.65711 0.93622 0.0
C435 C 0.43687 0.65565 0.91191 0.0
H436 H 0.29719 0.60931 0.95004 0.0
C437 C 0.43247 0.6035 0.88759 0.0
H438 H 0.3896 0.69688 0.9527 0.0
C439 C 0.38023 0.55482 0.87939 0.0
C440 C 0.33062 0.55595 0.90038 0.0
H441 H 0.46965 0.6009 0.86832 0.0
H442 H 0.37909 0.51609 0.85715 0.0
C443 C 0.33475 0.60734 0.93151 0.0
C444 C 0.70758 0.42025 0.45514 0.0
C445 C 0.75068 0.47606 0.47444 0.0
H446 H 0.68471 0.33286 0.44995 0.0
C447 C 0.79996 0.48512 0.52569 0.0
H448 H 0.66932 0.41215 0.41479 0.0
C449 C 0.80883 0.43984 0.54569 0.0
C450 C 0.76887 0.38494 0.51313 0.0
H451 H 0.83434 0.52775 0.53897 0.0
H452 H 0.84884 0.44857 0.57944 0.0
C453 C 0.71698 0.37504 0.47246 0.0
C454 C 0.34683 0.73073 0.60715 0.0
C455 C 0.34797 0.78144 0.58253 0.0
H456 H 0.39473 0.68801 0.61873 0.0
C457 C 0.39974 0.82914 0.55566 0.0
H458 H 0.30732 0.69296 0.62552 0.0
C459 C 0.44819 0.82547 0.54491 0.0
C460 C 0.44733 0.77471 0.566 0.0
H461 H 0.40205 0.8689 0.536 0.0
H462 H 0.48655 0.86299 0.52047 0.0
C463 C 0.39646 0.72755 0.6 0.0
C464 C 0.51923 0.31496 0.19015 0.0
C465 C 0.5289 0.27559 0.13845 0.0
H466 H 0.55512 0.3996 0.24625 0.0
C467 C 0.58488 0.2887 0.12053 0.0
H468 H 0.47646 0.30641 0.20228 0.0
C469 C 0.62982 0.34302 0.1401 0.0
C470 C 0.61945 0.38435 0.18131 0.0
H471 H 0.5934 0.25926 0.07947 0.0
H472 H 0.67219 0.35334 0.11865 0.0
C473 C 0.56424 0.36884 0.21224 0.0
loop_
_geom_bond_atom_site_label_1
_geom_bond_atom_site_label_2
_geom_bond_distance
_geom_bond_site_symmetry_2
_ccdc_geom_bond_type
Co0 O2 2.143 . S
Co0 O8 2.074 1_556 S
Co0 O11 2.093 . S
Co0 O24 2.097 1_556 S
Co0 N41 2.151 . S
Co0 N49 2.214 . S
Co1 O2 2.160 1_554 S
Co1 O7 2.058 . S
Co1 O17 2.057 . S
Co1 O32 2.037 . S
Co1 N36 2.145 . S
Co1 N57 2.257 . S
O2 Co0 2.143 . S
O2 Co1 2.160 1_556 S
C3 O4 1.278 . S
C3 O11 1.224 . S
O4 C3 1.278 . S
C5 O6 1.245 1_554 S
C5 O17 1.232 . S
O6 C5 1.245 1_556 S
O7 Co1 2.058 . S
O7 C33 1.269 . S
O8 Co0 2.074 1_554 S
O8 C33 1.257 . S
H9 C34 0.930 . S
H10 C40 0.930 . S
O11 Co0 2.093 . S
O11 C3 1.224 . S
H12 C44 0.929 1_655 S
H13 C46 0.930 . S
H14 C47 0.930 . S
H15 C45 0.929 . S
H16 C48 0.928 . S
O17 Co1 2.057 . S
O17 C5 1.232 . S
H18 C37 0.929 . S
H19 C38 0.929 . S
H20 C50 0.931 . S
H21 C42 0.929 . S
H22 C51 0.930 1_655 S
H23 C43 0.931 . S
O24 Co0 2.097 1_554 S
O24 C52 1.214 . S
H25 C53 0.929 . S
H26 C54 0.929 . S
H27 C55 0.930 . S
H28 C56 0.929 . S
H29 C58 0.930 . S
H30 C35 0.930 . S
H31 C39 0.930 . S
O32 Co1 2.037 . S
O32 C52 1.234 . S
C33 O7 1.269 . S
C33 O8 1.257 . S
C34 H9 0.930 . S
C34 C37 1.388 . S
C34 C39 1.418 . S
C35 H30 0.930 . S
C35 C38 1.404 . S
C35 C39 1.353 . S
N36 Co1 2.145 . S
N36 C37 1.397 . S
N36 C38 1.334 . S
C37 H18 0.929 . S
C37 C34 1.388 . S
C37 N36 1.397 . S
C38 H19 0.929 . S
C38 C35 1.404 . S
C38 N36 1.334 . S
C39 H31 0.930 . S
C39 C34 1.418 . S
C39 C35 1.353 . S
C40 H10 0.930 . S
C40 N41 1.330 . S
C40 C42 1.446 . S
N41 Co0 2.151 . S
N41 C40 1.330 . S
N41 C45 1.418 . S
C42 H21 0.929 . S
C42 C40 1.446 . S
C42 C43 1.332 . S
C43 H23 0.931 . S
C43 C42 1.332 . S
C43 C44 1.267 . S
C44 H12 0.929 1_455 S
C44 C43 1.267 . S
C44 C45 1.251 . S
C45 H15 0.929 . S
C45 N41 1.418 . S
C45 C44 1.251 . S
C46 H13 0.930 . S
C46 C48 1.406 . S
C46 C51 1.261 . S
C47 H14 0.930 . S
C47 N49 1.325 . S
C47 C50 1.357 . S
C48 H16 0.928 . S
C48 C46 1.406 . S
C48 N49 1.261 . S
N49 Co0 2.214 . S
N49 C47 1.325 . S
N49 C48 1.261 . S
C50 H20 0.931 . S
C50 C47 1.357 . S
C50 C51 1.312 . S
C51 H22 0.930 1_455 S
C51 C46 1.261 . S
C51 C50 1.312 . S
C52 O24 1.214 . S
C52 O32 1.234 . S
C53 H25 0.929 . S
C53 C56 1.391 . S
C53 C58 1.391 . S
C54 H26 0.929 . S
C54 C55 1.390 . S
C54 N57 1.391 . S
C55 H27 0.930 . S
C55 C54 1.390 . S
C55 C56 1.392 . S
C56 H28 0.929 . S
C56 C53 1.391 . S
C56 C55 1.392 . S
N57 Co1 2.257 . S
N57 C54 1.391 . S
N57 C58 1.388 . S
C58 H29 0.930 . S
C58 C53 1.391 . S
C58 N57 1.388 . S
Co59 O61 2.143 . S
Co59 O67 2.074 . S
Co59 O70 2.093 . S
Co59 O83 2.097 . S
Co59 N100 2.151 . S
Co59 N108 2.214 . S
Co60 O61 2.160 . S
Co60 O66 2.058 . S
Co60 O76 2.057 . S
Co60 O91 2.037 . S
Co60 N95 2.145 . S
Co60 N116 2.257 . S
O61 Co59 2.143 . S
O61 Co60 2.160 . S
C62 O63 1.278 . S
C62 O70 1.224 . S
O63 C62 1.278 . S
C64 O65 1.245 . S
C64 O76 1.232 . S
O65 C64 1.245 . S
O66 Co60 2.058 . S
O66 C92 1.269 . S
O67 Co59 2.074 . S
O67 C92 1.257 . S
H68 C93 0.930 . S
H69 C99 0.930 . S
O70 Co59 2.093 . S
O70 C62 1.224 . S
H71 C103 0.929 . S
H72 C105 0.930 . S
H73 C106 0.930 . S
H74 C104 0.929 . S
H75 C107 0.928 . S
O76 Co60 2.057 . S
O76 C64 1.232 . S
H77 C96 0.929 . S
H78 C97 0.929 1_455 S
H79 C109 0.931 . S
H80 C101 0.929 . S
H81 C110 0.930 . S
H82 C102 0.931 . S
O83 Co59 2.097 . S
O83 C111 1.214 . S
H84 C112 0.929 1_455 S
H85 C113 0.929 1_554 S
H86 C114 0.930 . S
H87 C115 0.928 . S
H88 C117 0.930 . S
H89 C94 0.930 . S
H90 C98 0.930 . S
O91 Co60 2.037 . S
O91 C111 1.234 . S
C92 O66 1.269 . S
C92 O67 1.257 . S
C93 H68 0.930 . S
C93 C96 1.388 1_554 S
C93 C98 1.418 . S
C94 H89 0.930 . S
C94 C97 1.411 1_455 S
C94 C98 1.345 1_456 S
N95 Co60 2.145 . S
N95 C96 1.397 . S
N95 C97 1.334 . S
C96 H77 0.929 . S
C96 C93 1.388 1_556 S
C96 N95 1.397 . S
C97 H78 0.929 1_655 S
C97 C94 1.411 1_655 S
C97 N95 1.334 . S
C98 H90 0.930 . S
C98 C93 1.418 . S
C98 C94 1.345 1_654 S
C99 H69 0.930 . S
C99 N100 1.330 . S
C99 C101 1.446 . S
N100 Co59 2.151 . S
N100 C99 1.330 . S
N100 C104 1.418 . S
C101 H80 0.929 . S
C101 C99 1.446 . S
C101 C102 1.332 . S
C102 H82 0.931 . S
C102 C101 1.332 . S
C102 C103 1.267 . S
C103 H71 0.929 . S
C103 C102 1.267 . S
C103 C104 1.251 . S
C104 H74 0.929 . S
C104 N100 1.418 . S
C104 C103 1.251 . S
C105 H72 0.930 . S
C105 C107 1.406 . S
C105 C110 1.261 . S
C106 H73 0.930 . S
C106 N108 1.325 . S
C106 C109 1.357 . S
C107 H75 0.928 . S
C107 C105 1.406 . S
C107 N108 1.261 . S
N108 Co59 2.214 . S
N108 C106 1.325 . S
N108 C107 1.261 . S
C109 H79 0.931 . S
C109 C106 1.357 . S
C109 C110 1.312 . S
C110 H81 0.930 . S
C110 C105 1.261 . S
C110 C109 1.312 . S
C111 O83 1.214 . S
C111 O91 1.234 . S
C112 H84 0.929 1_655 S
C112 C115 1.391 . S
C112 C117 1.391 . S
C113 H85 0.929 1_556 S
C113 C114 1.390 1_556 S
C113 N116 1.391 . S
C114 H86 0.930 . S
C114 C113 1.390 1_554 S
C114 C115 1.392 1_554 S
C115 H87 0.928 . S
C115 C112 1.391 . S
C115 C114 1.392 1_556 S
N116 Co60 2.257 . S
N116 C113 1.391 . S
N116 C117 1.388 . S
C117 H88 0.930 . S
C117 C112 1.391 . S
C117 N116 1.388 . S
Co118 O120 2.143 . S
Co118 O126 2.074 . S
Co118 O129 2.093 . S
Co118 O142 2.097 . S
Co118 N159 2.151 . S
Co118 N167 2.214 . S
Co119 O120 2.160 . S
Co119 O125 2.058 . S
Co119 O135 2.057 . S
Co119 O150 2.037 . S
Co119 N154 2.145 . S
Co119 N175 2.257 . S
O120 Co118 2.143 . S
O120 Co119 2.160 . S
C121 O122 1.278 . S
C121 O129 1.224 . S
O122 C121 1.278 . S
C123 O124 1.245 . S
C123 O135 1.232 . S
O124 C123 1.245 . S
O125 Co119 2.058 . S
O125 C151 1.269 . S
O126 Co118 2.074 . S
O126 C151 1.257 . S
H127 C152 0.930 . S
H128 C158 0.930 . S
O129 Co118 2.093 . S
O129 C121 1.224 . S
H130 C162 0.929 . S
H131 C164 0.930 . S
H132 C165 0.930 . S
H133 C163 0.929 . S
H134 C166 0.928 . S
O135 Co119 2.057 . S
O135 C123 1.232 . S
H136 C155 0.929 1_556 S
H137 C156 0.929 . S
H138 C168 0.931 . S
H139 C160 0.929 . S
H140 C169 0.930 . S
H141 C161 0.931 . S
O142 Co118 2.097 . S
O142 C170 1.214 . S
H143 C171 0.929 . S
H144 C172 0.929 . S
H145 C173 0.930 . S
H146 C174 0.929 . S
H147 C176 0.930 . S
H148 C153 0.930 . S
H149 C157 0.930 . S
O150 Co119 2.037 . S
O150 C170 1.234 . S
C151 O125 1.269 . S
C151 O126 1.257 . S
C152 H127 0.930 . S
C152 C155 1.388 . S
C152 C157 1.418 . S
C153 H148 0.930 . S
C153 C156 1.404 1_554 S
C153 C157 1.353 . S
N154 Co119 2.145 . S
N154 C155 1.397 1_556 S
N154 C156 1.334 . S
C155 H136 0.929 1_554 S
C155 C152 1.388 . S
C155 N154 1.397 1_554 S
C156 H137 0.929 . S
C156 C153 1.404 1_556 S
C156 N154 1.334 . S
C157 H149 0.930 . S
C157 C152 1.418 . S
C157 C153 1.353 . S
C158 H128 0.930 . S
C158 N159 1.330 . S
C158 C160 1.446 . S
N159 Co118 2.151 . S
N159 C158 1.330 . S
N159 C163 1.418 . S
C160 H139 0.929 . S
C160 C158 1.446 . S
C160 C161 1.332 . S
C161 H141 0.931 . S
C161 C160 1.332 . S
C161 C162 1.267 . S
C162 H130 0.929 . S
C162 C161 1.267 . S
C162 C163 1.251 . S
C163 H133 0.929 . S
C163 N159 1.418 . S
C163 C162 1.251 . S
C164 H131 0.930 . S
C164 C166 1.406 . S
C164 C169 1.261 . S
C165 H132 0.930 . S
C165 N167 1.325 . S
C165 C168 1.357 . S
C166 H134 0.928 . S
C166 C164 1.406 . S
C166 N167 1.261 . S
N167 Co118 2.214 . S
N167 C165 1.325 . S
N167 C166 1.261 . S
C168 H138 0.931 . S
C168 C165 1.357 . S
C168 C169 1.312 . S
C169 H140 0.930 . S
C169 C164 1.261 . S
C169 C168 1.312 . S
C170 O142 1.214 . S
C170 O150 1.234 . S
C171 H143 0.929 . S
C171 C174 1.391 . S
C171 C176 1.391 . S
C172 H144 0.929 . S
C172 C173 1.390 . S
C172 N175 1.391 . S
C173 H145 0.930 . S
C173 C172 1.390 . S
C173 C174 1.392 . S
C174 H146 0.929 . S
C174 C171 1.391 . S
C174 C173 1.392 . S
N175 Co119 2.257 . S
N175 C172 1.391 . S
N175 C176 1.388 . S
C176 H147 0.930 . S
C176 C171 1.391 . S
C176 N175 1.388 . S
Co177 O179 2.143 . S
Co177 O185 2.074 . S
Co177 O188 2.093 . S
Co177 O201 2.097 . S
Co177 N218 2.151 . S
Co177 N226 2.214 . S
Co178 O179 2.160 . S
Co178 O184 2.058 . S
Co178 O194 2.057 . S
Co178 O209 2.037 . S
Co178 N213 2.145 . S
Co178 N234 2.257 . S
O179 Co177 2.143 . S
O179 Co178 2.160 . S
C180 O181 1.278 . S
C180 O188 1.224 . S
O181 C180 1.278 . S
C182 O183 1.245 . S
C182 O194 1.232 . S
O183 C182 1.245 . S
O184 Co178 2.058 . S
O184 C210 1.269 . S
O185 Co177 2.074 . S
O185 C210 1.257 . S
H186 C211 0.930 . S
H187 C217 0.930 . S
O188 Co177 2.093 . S
O188 C180 1.224 . S
H189 C221 0.929 . S
H190 C223 0.930 . S
H191 C224 0.930 . S
H192 C222 0.929 . S
H193 C225 0.928 . S
O194 Co178 2.057 . S
O194 C182 1.232 . S
H195 C214 0.929 . S
H196 C215 0.929 . S
H197 C227 0.931 . S
H198 C219 0.929 . S
H199 C228 0.930 . S
H200 C220 0.931 . S
O201 Co177 2.097 . S
O201 C229 1.214 . S
H202 C230 0.929 . S
H203 C231 0.929 . S
H204 C232 0.930 . S
H205 C233 0.929 . S
H206 C235 0.930 . S
H207 C212 0.930 . S
H208 C216 0.930 . S
O209 Co178 2.037 . S
O209 C229 1.234 . S
C210 O184 1.269 . S
C210 O185 1.257 . S
C211 H186 0.930 . S
C211 C214 1.388 . S
C211 C216 1.418 . S
C212 H207 0.930 . S
C212 C215 1.404 . S
C212 C216 1.353 . S
N213 Co178 2.145 . S
N213 C214 1.397 . S
N213 C215 1.334 . S
C214 H195 0.929 . S
C214 C211 1.388 . S
C214 N213 1.397 . S
C215 H196 0.929 . S
C215 C212 1.404 . S
C215 N213 1.334 . S
C216 H208 0.930 . S
C216 C211 1.418 . S
C216 C212 1.353 . S
C217 H187 0.930 . S
C217 N218 1.330 . S
C217 C219 1.446 1_554 S
N218 Co177 2.151 . S
N218 C217 1.330 . S
N218 C222 1.418 . S
C219 H198 0.929 . S
C219 C217 1.446 1_556 S
C219 C220 1.332 . S
C220 H200 0.931 . S
C220 C219 1.332 . S
C220 C221 1.267 . S
C221 H189 0.929 . S
C221 C220 1.267 . S
C221 C222 1.251 1_556 S
C222 H192 0.929 . S
C222 N218 1.418 . S
C222 C221 1.251 1_554 S
C223 H190 0.930 . S
C223 C225 1.406 . S
C223 C228 1.261 . S
C224 H191 0.930 . S
C224 N226 1.325 . S
C224 C227 1.357 . S
C225 H193 0.928 . S
C225 C223 1.406 . S
C225 N226 1.261 . S
N226 Co177 2.214 . S
N226 C224 1.325 . S
N226 C225 1.261 . S
C227 H197 0.931 . S
C227 C224 1.357 . S
C227 C228 1.312 . S
C228 H199 0.930 . S
C228 C223 1.261 . S
C228 C227 1.312 . S
C229 O201 1.214 . S
C229 O209 1.234 . S
C230 H202 0.929 . S
C230 C233 1.391 . S
C230 C235 1.391 . S
C231 H203 0.929 . S
C231 C232 1.390 . S
C231 N234 1.391 . S
C232 H204 0.930 . S
C232 C231 1.390 . S
C232 C233 1.392 . S
C233 H205 0.929 . S
C233 C230 1.391 . S
C233 C232 1.392 . S
N234 Co178 2.257 . S
N234 C231 1.391 . S
N234 C235 1.388 . S
C235 H206 0.930 . S
C235 C230 1.391 . S
C235 N234 1.388 . S
Co236 O238 2.143 . S
Co236 O244 2.074 . S
Co236 O247 2.093 . S
Co236 O260 2.097 . S
Co236 N277 2.151 . S
Co236 N285 2.214 . S
Co237 O238 2.160 . S
Co237 O243 2.058 . S
Co237 O253 2.057 . S
Co237 O268 2.037 . S
Co237 N272 2.145 . S
Co237 N293 2.257 . S
O238 Co236 2.143 . S
O238 Co237 2.160 . S
C239 O240 1.278 . S
C239 O247 1.224 . S
O240 C239 1.278 . S
C241 O242 1.245 . S
C241 O253 1.232 . S
O242 C241 1.245 . S
O243 Co237 2.058 . S
O243 C269 1.269 . S
O244 Co236 2.074 . S
O244 C269 1.257 . S
H245 C270 0.930 . S
H246 C276 0.930 . S
O247 Co236 2.093 . S
O247 C239 1.224 . S
H248 C280 0.929 1_545 S
H249 C282 0.930 1_556 S
H250 C283 0.930 . S
H251 C281 0.929 . S
H252 C284 0.928 1_556 S
O253 Co237 2.057 . S
O253 C241 1.232 . S
H254 C273 0.929 . S
H255 C274 0.929 . S
H256 C286 0.931 . S
H257 C278 0.929 . S
H258 C287 0.930 1_545 S
H259 C279 0.931 . S
O260 Co236 2.097 . S
O260 C288 1.214 . S
H261 C289 0.929 . S
H262 C290 0.929 . S
H263 C291 0.930 . S
H264 C292 0.929 . S
H265 C294 0.930 . S
H266 C271 0.930 . S
H267 C275 0.930 . S
O268 Co237 2.037 . S
O268 C288 1.234 . S
C269 O243 1.269 . S
C269 O244 1.257 . S
C270 H245 0.930 . S
C270 C273 1.388 . S
C270 C275 1.418 . S
C271 H266 0.930 . S
C271 C274 1.404 . S
C271 C275 1.353 . S
N272 Co237 2.145 . S
N272 C273 1.397 . S
N272 C274 1.334 . S
C273 H254 0.929 . S
C273 C270 1.388 . S
C273 N272 1.397 . S
C274 H255 0.929 . S
C274 C271 1.404 . S
C274 N272 1.334 . S
C275 H267 0.930 . S
C275 C270 1.418 . S
C275 C271 1.353 . S
C276 H246 0.930 . S
C276 N277 1.330 . S
C276 C278 1.446 1_554 S
N277 Co236 2.151 . S
N277 C276 1.330 . S
N277 C281 1.418 . S
C278 H257 0.929 . S
C278 C276 1.446 1_556 S
C278 C279 1.332 . S
C279 H259 0.931 . S
C279 C278 1.332 . S
C279 C280 1.267 . S
C280 H248 0.929 1_565 S
C280 C279 1.267 . S
C280 C281 1.251 1_556 S
C281 H251 0.929 . S
C281 N277 1.418 . S
C281 C280 1.251 1_554 S
C282 H249 0.930 1_554 S
C282 C284 1.406 . S
C282 C287 1.261 . S
C283 H250 0.930 . S
C283 N285 1.325 . S
C283 C286 1.357 . S
C284 H252 0.928 1_554 S
C284 C282 1.406 . S
C284 N285 1.261 . S
N285 Co236 2.214 . S
N285 C283 1.325 . S
N285 C284 1.261 . S
C286 H256 0.931 . S
C286 C283 1.357 . S
C286 C287 1.312 . S
C287 H258 0.930 1_565 S
C287 C282 1.261 . S
C287 C286 1.312 . S
C288 O260 1.214 . S
C288 O268 1.234 . S
C289 H261 0.929 . S
C289 C292 1.391 . S
C289 C294 1.391 . S
C290 H262 0.929 . S
C290 C291 1.390 . S
C290 N293 1.391 . S
C291 H263 0.930 . S
C291 C290 1.390 . S
C291 C292 1.392 . S
C292 H264 0.929 . S
C292 C289 1.391 . S
C292 C291 1.392 . S
N293 Co237 2.257 . S
N293 C290 1.391 . S
N293 C294 1.388 . S
C294 H265 0.930 . S
C294 C289 1.391 . S
C294 N293 1.388 . S
Co295 O297 2.143 . S
Co295 O303 2.074 . S
Co295 O306 2.093 . S
Co295 O319 2.097 1_556 S
Co295 N336 2.151 . S
Co295 N344 2.214 . S
Co296 O297 2.160 1_554 S
Co296 O302 2.058 . S
Co296 O312 2.057 . S
Co296 O327 2.037 . S
Co296 N331 2.145 . S
Co296 N352 2.257 . S
O297 Co295 2.143 . S
O297 Co296 2.160 1_556 S
C298 O299 1.278 . S
C298 O306 1.224 . S
O299 C298 1.278 . S
C300 O301 1.245 . S
C300 O312 1.232 1_556 S
O301 C300 1.245 . S
O302 Co296 2.058 . S
O302 C328 1.269 1_554 S
O303 Co295 2.074 . S
O303 C328 1.257 . S
H304 C329 0.930 . S
H305 C335 0.930 . S
O306 Co295 2.093 . S
O306 C298 1.224 . S
H307 C339 0.929 . S
H308 C341 0.930 . S
H309 C342 0.930 . S
H310 C340 0.929 . S
H311 C343 0.928 . S
O312 Co296 2.057 . S
O312 C300 1.232 1_554 S
H313 C332 0.929 . S
H314 C333 0.929 1_565 S
H315 C345 0.931 . S
H316 C337 0.929 . S
H317 C346 0.930 . S
H318 C338 0.931 . S
O319 Co295 2.097 1_554 S
O319 C347 1.214 . S
H320 C348 0.929 1_565 S
H321 C349 0.929 . S
H322 C350 0.930 . S
H323 C351 0.929 1_565 S
H324 C353 0.930 . S
H325 C330 0.930 . S
H326 C334 0.930 1_565 S
O327 Co296 2.037 . S
O327 C347 1.234 . S
C328 O302 1.269 1_556 S
C328 O303 1.257 . S
C329 H304 0.930 . S
C329 C332 1.388 . S
C329 C334 1.418 . S
C330 H325 0.930 . S
C330 C333 1.404 1_565 S
C330 C334 1.353 1_565 S
N331 Co296 2.145 . S
N331 C332 1.397 . S
N331 C333 1.334 . S
C332 H313 0.929 . S
C332 C329 1.388 . S
C332 N331 1.397 . S
C333 H314 0.929 1_545 S
C333 C330 1.404 1_545 S
C333 N331 1.334 . S
C334 H326 0.930 1_545 S
C334 C329 1.418 . S
C334 C330 1.353 1_545 S
C335 H305 0.930 . S
C335 N336 1.330 . S
C335 C337 1.446 . S
N336 Co295 2.151 . S
N336 C335 1.330 . S
N336 C340 1.418 . S
C337 H316 0.929 . S
C337 C335 1.446 . S
C337 C338 1.332 . S
C338 H318 0.931 . S
C338 C337 1.332 . S
C338 C339 1.267 . S
C339 H307 0.929 . S
C339 C338 1.267 . S
C339 C340 1.251 . S
C340 H310 0.929 . S
C340 N336 1.418 . S
C340 C339 1.251 . S
C341 H308 0.930 . S
C341 C343 1.406 . S
C341 C346 1.261 . S
C342 H309 0.930 . S
C342 N344 1.325 1_554 S
C342 C345 1.357 . S
C343 H311 0.928 . S
C343 C341 1.406 . S
C343 N344 1.261 . S
N344 Co295 2.214 . S
N344 C342 1.325 1_556 S
N344 C343 1.261 . S
C345 H315 0.931 . S
C345 C342 1.357 . S
C345 C346 1.312 1_554 S
C346 H317 0.930 . S
C346 C341 1.261 . S
C346 C345 1.312 1_556 S
C347 O319 1.214 . S
C347 O327 1.234 . S
C348 H320 0.929 1_545 S
C348 C351 1.391 . S
C348 C353 1.391 . S
C349 H321 0.929 . S
C349 C350 1.390 . S
C349 N352 1.391 . S
C350 H322 0.930 . S
C350 C349 1.390 . S
C350 C351 1.392 . S
C351 H323 0.929 1_545 S
C351 C348 1.391 . S
C351 C350 1.392 . S
N352 Co296 2.257 . S
N352 C349 1.391 . S
N352 C353 1.388 . S
C353 H324 0.930 . S
C353 C348 1.391 . S
C353 N352 1.388 . S
C354 C355 1.387 1_556 S
C354 H358 0.950 . S
C354 C363 1.390 . S
C355 C354 1.387 1_554 S
C355 C357 1.387 . S
H356 C363 0.950 . S
C357 C355 1.387 . S
C357 C359 1.390 . S
C357 H361 0.950 . S
H358 C354 0.950 . S
C359 C357 1.390 . S
C359 C360 1.387 . S
C359 H362 0.950 . S
C360 C359 1.387 . S
C360 C363 1.387 1_554 S
H361 C357 0.950 . S
H362 C359 0.950 . S
C363 C354 1.390 . S
C363 H356 0.950 . S
C363 C360 1.387 1_556 S
C364 C365 1.387 . S
C364 H368 0.950 1_455 S
C364 C373 1.390 . S
C365 C364 1.387 . S
C365 C367 1.387 . S
H366 C373 0.950 1_655 S
C367 C365 1.387 . S
C367 C369 1.390 . S
C367 H371 0.950 . S
H368 C364 0.950 1_655 S
C369 C367 1.390 . S
C369 C370 1.387 . S
C369 H372 0.950 . S
C370 C369 1.387 . S
C370 C373 1.387 . S
H371 C367 0.950 . S
H372 C369 0.950 . S
C373 C364 1.390 . S
C373 H366 0.950 1_455 S
C373 C370 1.387 . S
C374 C375 1.387 . S
C374 H378 0.950 . S
C374 C383 1.390 . S
C375 C374 1.387 . S
C375 C377 1.387 . S
H376 C383 0.950 1_565 S
C377 C375 1.387 . S
C377 C379 1.390 . S
C377 H381 0.950 . S
H378 C374 0.950 . S
C379 C377 1.390 . S
C379 C380 1.387 1_545 S
C379 H382 0.950 1_545 S
C380 C379 1.387 1_565 S
C380 C383 1.387 1_565 S
H381 C377 0.950 . S
H382 C379 0.950 1_565 S
C383 C374 1.390 . S
C383 H376 0.950 1_545 S
C383 C380 1.387 1_545 S
C384 C385 1.387 . S
C384 H388 0.950 . S
C384 C393 1.390 1_554 S
C385 C384 1.387 . S
C385 C387 1.387 . S
H386 C393 0.950 . S
C387 C385 1.387 . S
C387 C389 1.390 1_554 S
C387 H391 0.950 . S
H388 C384 0.950 . S
C389 C387 1.390 1_556 S
C389 C390 1.387 . S
C389 H392 0.950 . S
C390 C389 1.387 . S
C390 C393 1.387 . S
H391 C387 0.950 . S
H392 C389 0.950 . S
C393 C384 1.390 1_556 S
C393 H386 0.950 . S
C393 C390 1.387 . S
C394 C395 1.387 . S
C394 H398 0.950 . S
C394 C403 1.390 . S
C395 C394 1.387 . S
C395 C397 1.387 . S
H396 C403 0.950 1_455 S
C397 C395 1.387 . S
C397 C399 1.390 . S
C397 H401 0.950 . S
H398 C394 0.950 . S
C399 C397 1.390 . S
C399 C400 1.387 1_655 S
C399 H402 0.950 1_655 S
C400 C399 1.387 1_455 S
C400 C403 1.387 1_455 S
H401 C397 0.950 . S
H402 C399 0.950 1_455 S
C403 C394 1.390 . S
C403 H396 0.950 1_655 S
C403 C400 1.387 1_655 S
C404 C405 1.387 . S
C404 H408 0.950 . S
C404 C413 1.390 . S
C405 C404 1.387 . S
C405 C407 1.387 . S
H406 C413 0.950 . S
C407 C405 1.387 . S
C407 C409 1.390 . S
C407 H411 0.950 . S
H408 C404 0.950 . S
C409 C407 1.390 . S
C409 C410 1.387 . S
C409 H412 0.950 . S
C410 C409 1.387 . S
C410 C413 1.387 . S
H411 C407 0.950 . S
H412 C409 0.950 . S
C413 C404 1.390 . S
C413 H406 0.950 . S
C413 C410 1.387 . S
C414 C415 1.387 . S
C414 H418 0.950 . S
C414 C423 1.390 . S
C415 C414 1.387 . S
C415 C417 1.387 1_554 S
H416 C423 0.950 . S
C417 C415 1.387 1_556 S
C417 C419 1.390 1_556 S
C417 H421 0.950 . S
H418 C414 0.950 . S
C419 C417 1.390 1_554 S
C419 C420 1.387 . S
C419 H422 0.950 1_554 S
C420 C419 1.387 . S
C420 C423 1.387 . S
H421 C417 0.950 . S
H422 C419 0.950 1_556 S
C423 C414 1.390 . S
C423 H416 0.950 . S
C423 C420 1.387 . S
C424 C425 1.387 . S
C424 H428 0.950 . S
C424 C433 1.390 . S
C425 C424 1.387 . S
C425 C427 1.387 . S
H426 C433 0.950 . S
C427 C425 1.387 . S
C427 C429 1.390 . S
C427 H431 0.950 1_556 S
H428 C424 0.950 . S
C429 C427 1.390 . S
C429 C430 1.387 . S
C429 H432 0.950 1_556 S
C430 C429 1.387 . S
C430 C433 1.387 . S
H431 C427 0.950 1_554 S
H432 C429 0.950 1_554 S
C433 C424 1.390 . S
C433 H426 0.950 . S
C433 C430 1.387 . S
C434 C435 1.387 . S
C434 H438 0.950 . S
C434 C443 1.390 . S
C435 C434 1.387 . S
C435 C437 1.387 . S
H436 C443 0.950 . S
C437 C435 1.387 . S
C437 C439 1.390 . S
C437 H441 0.950 . S
H438 C434 0.950 . S
C439 C437 1.390 . S
C439 C440 1.387 . S
C439 H442 0.950 . S
C440 C439 1.387 . S
C440 C443 1.387 . S
H441 C437 0.950 . S
H442 C439 0.950 . S
C443 C434 1.390 . S
C443 H436 0.950 . S
C443 C440 1.387 . S
C444 C445 1.387 . S
C444 H448 0.950 . S
C444 C453 1.390 . S
C445 C444 1.387 . S
C445 C447 1.387 . S
H446 C453 0.950 . S
C447 C445 1.387 . S
C447 C449 1.390 . S
C447 H451 0.950 . S
H448 C444 0.950 . S
C449 C447 1.390 . S
C449 C450 1.387 . S
C449 H452 0.950 . S
C450 C449 1.387 . S
C450 C453 1.387 . S
H451 C447 0.950 . S
H452 C449 0.950 . S
C453 C444 1.390 . S
C453 H446 0.950 . S
C453 C450 1.387 . S
C454 C455 1.387 . S
C454 H458 0.950 . S
C454 C463 1.390 . S
C455 C454 1.387 . S
C455 C457 1.387 . S
H456 C463 0.950 . S
C457 C455 1.387 . S
C457 C459 1.390 . S
C457 H461 0.950 . S
H458 C454 0.950 . S
C459 C457 1.390 . S
C459 C460 1.387 . S
C459 H462 0.950 . S
C460 C459 1.387 . S
C460 C463 1.387 . S
H461 C457 0.950 . S
H462 C459 0.950 . S
C463 C454 1.390 . S
C463 H456 0.950 . S
C463 C460 1.387 . S
C464 C465 1.387 . S
C464 H468 0.950 . S
C464 C473 1.390 . S
C465 C464 1.387 . S
C465 C467 1.387 . S
H466 C473 0.950 . S
C467 C465 1.387 . S
C467 C469 1.390 . S
C467 H471 0.950 . S
H468 C464 0.950 . S
C469 C467 1.390 . S
C469 C470 1.387 . S
C469 H472 0.950 . S
C470 C469 1.387 . S
C470 C473 1.387 . S
H471 C467 0.950 . S
H472 C469 0.950 . S
C473 C464 1.390 . S
C473 H466 0.950 . S
C473 C470 1.387 . S
C355 C5 1.434 . S
C360 C328 1.434 1_554 S
C365 C64 2.290 1_455 S
C370 C33 2.292 . S
C375 C92 1.458 . S
C380 C123 1.458 . S
C385 C182 2.296 . S
C390 C151 2.286 . S
C395 C210 1.464 . S
C400 C241 1.462 . S
C405 C300 2.304 1_565 S
C410 C269 2.279 . S
C415 C239 1.641 . S
C420 C52 1.857 . S
C425 C298 1.751 . S
C430 C111 1.606 . S
C435 C170 1.825 . S
C440 C3 1.624 . S
C445 C229 1.615 . S
C450 C62 1.745 . S
C455 C288 1.829 . S
C460 C121 1.632 . S
C465 C347 1.619 . S
C470 C180 1.753 . S
