# Generated by pormake.
# Topology ecc, (8)-cn, num edge types: 1
# Building blocks:
#     Node 0, Type 0, BuildingBlock: TAGTUT_clean_sbu_3, # of connection points: 8
#     Node 1, Type 0, BuildingBlock: TAGTUT_clean_sbu_3, # of connection points: 8
#     Node 2, Type 0, BuildingBlock: TAGTUT_clean_sbu_3, # of connection points: 8
#     Node 3, Type 0, BuildingBlock: TAGTUT_clean_sbu_3, # of connection points: 8
#     Node 4, Type 0, BuildingBlock: TAGTUT_clean_sbu_3, # of connection points: 8
#     Node 5, Type 0, BuildingBlock: TAGTUT_clean_sbu_3, # of connection points: 8
#     Node 6, Type 0, BuildingBlock: TAGTUT_clean_sbu_3, # of connection points: 8
#     Node 7, Type 0, BuildingBlock: TAGTUT_clean_sbu_3, # of connection points: 8
#     Node 8, Type 0, BuildingBlock: TAGTUT_clean_sbu_3, # of connection points: 8
#     Node 9, Type 0, BuildingBlock: TAGTUT_clean_sbu_3, # of connection points: 8
#     Node 10, Type 0, BuildingBlock: TAGTUT_clean_sbu_3, # of connection points: 8
#     Node 11, Type 0, BuildingBlock: TAGTUT_clean_sbu_3, # of connection points: 8
#     Node 12, Type 0, BuildingBlock: TAGTUT_clean_sbu_3, # of connection points: 8
#     Node 13, Type 0, BuildingBlock: TAGTUT_clean_sbu_3, # of connection points: 8
#     Node 14, Type 0, BuildingBlock: TAGTUT_clean_sbu_3, # of connection points: 8
#     Node 15, Type 0, BuildingBlock: TAGTUT_clean_sbu_3, # of connection points: 8
#     Node 16, Type 0, BuildingBlock: TAGTUT_clean_sbu_3, # of connection points: 8
#     Node 17, Type 0, BuildingBlock: TAGTUT_clean_sbu_3, # of connection points: 8
#     Edge 18, Type (0, 0), BuildingBlock: CIFDUS_clean_linker_0, # of connection points: 2
#     Edge 19, Type (0, 0), BuildingBlock: CIFDUS_clean_linker_0, # of connection points: 2
#     Edge 20, Type (0, 0), BuildingBlock: CIFDUS_clean_linker_0, # of connection points: 2
#     Edge 21, Type (0, 0), BuildingBlock: CIFDUS_clean_linker_0, # of connection points: 2
#     Edge 22, Type (0, 0), BuildingBlock: CIFDUS_clean_linker_0, # of connection points: 2
#     Edge 23, Type (0, 0), BuildingBlock: CIFDUS_clean_linker_0, # of connection points: 2
#     Edge 24, Type (0, 0), BuildingBlock: CIFDUS_clean_linker_0, # of connection points: 2
#     Edge 25, Type (0, 0), BuildingBlock: CIFDUS_clean_linker_0, # of connection points: 2
#     Edge 26, Type (0, 0), BuildingBlock: CIFDUS_clean_linker_0, # of connection points: 2
#     Edge 27, Type (0, 0), BuildingBlock: CIFDUS_clean_linker_0, # of connection points: 2
#     Edge 28, Type (0, 0), BuildingBlock: CIFDUS_clean_linker_0, # of connection points: 2
#     Edge 29, Type (0, 0), BuildingBlock: CIFDUS_clean_linker_0, # of connection points: 2
#     Edge 30, Type (0, 0), BuildingBlock: CIFDUS_clean_linker_0, # of connection points: 2
#     Edge 31, Type (0, 0), BuildingBlock: CIFDUS_clean_linker_0, # of connection points: 2
#     Edge 32, Type (0, 0), BuildingBlock: CIFDUS_clean_linker_0, # of connection points: 2
#     Edge 33, Type (0, 0), BuildingBlock: CIFDUS_clean_linker_0, # of connection points: 2
#     Edge 34, Type (0, 0), BuildingBlock: CIFDUS_clean_linker_0, # of connection points: 2
#     Edge 35, Type (0, 0), BuildingBlock: CIFDUS_clean_linker_0, # of connection points: 2
#     Edge 36, Type (0, 0), BuildingBlock: CIFDUS_clean_linker_0, # of connection points: 2
#     Edge 37, Type (0, 0), BuildingBlock: CIFDUS_clean_linker_0, # of connection points: 2
#     Edge 38, Type (0, 0), BuildingBlock: CIFDUS_clean_linker_0, # of connection points: 2
#     Edge 39, Type (0, 0), BuildingBlock: CIFDUS_clean_linker_0, # of connection points: 2
#     Edge 40, Type (0, 0), BuildingBlock: CIFDUS_clean_linker_0, # of connection points: 2
#     Edge 41, Type (0, 0), BuildingBlock: CIFDUS_clean_linker_0, # of connection points: 2
#     Edge 42, Type (0, 0), BuildingBlock: CIFDUS_clean_linker_0, # of connection points: 2
#     Edge 43, Type (0, 0), BuildingBlock: CIFDUS_clean_linker_0, # of connection points: 2
#     Edge 44, Type (0, 0), BuildingBlock: CIFDUS_clean_linker_0, # of connection points: 2
#     Edge 45, Type (0, 0), BuildingBlock: CIFDUS_clean_linker_0, # of connection points: 2
#     Edge 46, Type (0, 0), BuildingBlock: CIFDUS_clean_linker_0, # of connection points: 2
#     Edge 47, Type (0, 0), BuildingBlock: CIFDUS_clean_linker_0, # of connection points: 2
#     Edge 48, Type (0, 0), BuildingBlock: CIFDUS_clean_linker_0, # of connection points: 2
#     Edge 49, Type (0, 0), BuildingBlock: CIFDUS_clean_linker_0, # of connection points: 2
#     Edge 50, Type (0, 0), BuildingBlock: CIFDUS_clean_linker_0, # of connection points: 2
#     Edge 51, Type (0, 0), BuildingBlock: CIFDUS_clean_linker_0, # of connection points: 2
#     Edge 52, Type (0, 0), BuildingBlock: CIFDUS_clean_linker_0, # of connection points: 2
#     Edge 53, Type (0, 0), BuildingBlock: CIFDUS_clean_linker_0, # of connection points: 2
#     Edge 54, Type (0, 0), BuildingBlock: CIFDUS_clean_linker_0, # of connection points: 2
#     Edge 55, Type (0, 0), BuildingBlock: CIFDUS_clean_linker_0, # of connection points: 2
#     Edge 56, Type (0, 0), BuildingBlock: CIFDUS_clean_linker_0, # of connection points: 2
#     Edge 57, Type (0, 0), BuildingBlock: CIFDUS_clean_linker_0, # of connection points: 2
#     Edge 58, Type (0, 0), BuildingBlock: CIFDUS_clean_linker_0, # of connection points: 2
#     Edge 59, Type (0, 0), BuildingBlock: CIFDUS_clean_linker_0, # of connection points: 2
#     Edge 60, Type (0, 0), BuildingBlock: CIFDUS_clean_linker_0, # of connection points: 2
#     Edge 61, Type (0, 0), BuildingBlock: CIFDUS_clean_linker_0, # of connection points: 2
#     Edge 62, Type (0, 0), BuildingBlock: CIFDUS_clean_linker_0, # of connection points: 2
#     Edge 63, Type (0, 0), BuildingBlock: CIFDUS_clean_linker_0, # of connection points: 2
#     Edge 64, Type (0, 0), BuildingBlock: CIFDUS_clean_linker_0, # of connection points: 2
#     Edge 65, Type (0, 0), BuildingBlock: CIFDUS_clean_linker_0, # of connection points: 2
#     Edge 66, Type (0, 0), BuildingBlock: CIFDUS_clean_linker_0, # of connection points: 2
#     Edge 67, Type (0, 0), BuildingBlock: CIFDUS_clean_linker_0, # of connection points: 2
#     Edge 68, Type (0, 0), BuildingBlock: CIFDUS_clean_linker_0, # of connection points: 2
#     Edge 69, Type (0, 0), BuildingBlock: CIFDUS_clean_linker_0, # of connection points: 2
#     Edge 70, Type (0, 0), BuildingBlock: CIFDUS_clean_linker_0, # of connection points: 2
#     Edge 71, Type (0, 0), BuildingBlock: CIFDUS_clean_linker_0, # of connection points: 2
#     Edge 72, Type (0, 0), BuildingBlock: CIFDUS_clean_linker_0, # of connection points: 2
#     Edge 73, Type (0, 0), BuildingBlock: CIFDUS_clean_linker_0, # of connection points: 2
#     Edge 74, Type (0, 0), BuildingBlock: CIFDUS_clean_linker_0, # of connection points: 2
#     Edge 75, Type (0, 0), BuildingBlock: CIFDUS_clean_linker_0, # of connection points: 2
#     Edge 76, Type (0, 0), BuildingBlock: CIFDUS_clean_linker_0, # of connection points: 2
#     Edge 77, Type (0, 0), BuildingBlock: CIFDUS_clean_linker_0, # of connection points: 2
#     Edge 78, Type (0, 0), BuildingBlock: CIFDUS_clean_linker_0, # of connection points: 2
#     Edge 79, Type (0, 0), BuildingBlock: CIFDUS_clean_linker_0, # of connection points: 2
#     Edge 80, Type (0, 0), BuildingBlock: CIFDUS_clean_linker_0, # of connection points: 2
#     Edge 81, Type (0, 0), BuildingBlock: CIFDUS_clean_linker_0, # of connection points: 2
#     Edge 82, Type (0, 0), BuildingBlock: CIFDUS_clean_linker_0, # of connection points: 2
#     Edge 83, Type (0, 0), BuildingBlock: CIFDUS_clean_linker_0, # of connection points: 2
#     Edge 84, Type (0, 0), BuildingBlock: CIFDUS_clean_linker_0, # of connection points: 2
#     Edge 85, Type (0, 0), BuildingBlock: CIFDUS_clean_linker_0, # of connection points: 2
#     Edge 86, Type (0, 0), BuildingBlock: CIFDUS_clean_linker_0, # of connection points: 2
#     Edge 87, Type (0, 0), BuildingBlock: CIFDUS_clean_linker_0, # of connection points: 2
#     Edge 88, Type (0, 0), BuildingBlock: CIFDUS_clean_linker_0, # of connection points: 2
#     Edge 89, Type (0, 0), BuildingBlock: CIFDUS_clean_linker_0, # of connection points: 2
# Relax obj value: 0.274
# Max RMSD: 0.219
# Mean RMSD: 0.204
data_MOF--net-ecc--node1-TAGTUT_clean_sbu_3--edge1-CIFDUS_clean_linker_0
_symmetry_space_group_name_H-M    P1
_symmetry_Int_Tables_number       1
_symmetry_cell_setting            triclinic
loop_
_symmetry_equiv_pos_as_xyz
'x, y, z'
_cell_length_a     53.840558
_cell_length_b     50.474703
_cell_length_c     23.771142
_cell_angle_alpha  88.345473
_cell_angle_beta   90.940809
_cell_angle_gamma 126.44303
loop_
_atom_site_label
_atom_site_type_symbol
_atom_site_fract_x
_atom_site_fract_y
_atom_site_fract_z
_atom_type_partial_charge
C0 C 0.25413 0.10009 0.62295 0.0
C1 C 0.19648 0.11365 0.76867 0.0
C2 C 0.20745 0.04872 0.87409 0.0
Mg3 Mg 0.26043 0.04188 0.60159 0.0
Mg4 Mg 0.20511 0.96538 0.63707 0.0
O5 O 0.23385 0.00762 0.66208 0.0
Mg6 Mg 0.21735 0.03042 0.69427 0.0
O7 O 0.20572 0.05797 0.72454 0.0
Mg8 Mg 0.24653 0.09463 0.7578 0.0
Mg9 Mg 0.17151 0.04003 0.77029 0.0
C10 C 0.17951 0.95759 0.75879 0.0
O11 O 0.16875 0.99761 0.65224 0.0
O12 O 0.27623 0.00969 0.57909 0.0
O13 O 0.14003 -0.00027 0.71793 0.0
O14 O 0.22265 0.01625 0.53211 0.0
O15 O 0.23636 0.95749 0.6021 0.0
O16 O 0.18168 0.96983 0.57025 0.0
O17 O 0.2626 0.06172 0.74178 0.0
O18 O 0.29467 0.06573 0.67785 0.0
C19 C 0.28941 0.07036 0.728 0.0
C20 C 0.26327 0.97858 0.58117 0.0
O21 O 0.19317 0.98884 0.76194 0.0
O22 O 0.22431 0.12253 0.76586 0.0
O23 O 0.18035 0.94399 0.71483 0.0
O24 O 0.23083 0.07284 0.84734 0.0
O25 O 0.17288 0.08342 0.77106 0.0
O26 O 0.1817 0.02906 0.84988 0.0
O27 O 0.23993 0.06889 0.62384 0.0
O28 O 0.26034 0.11548 0.6687 0.0
C29 C 0.19424 0.99126 0.5304 0.0
C30 C 0.14264 0.9879 0.67336 0.0
C31 C 0.06459 0.27554 0.65615 0.0
C32 C 0.96232 0.23675 0.78066 0.0
C33 C 0.97248 0.16741 0.84341 0.0
Mg34 Mg 0.09095 0.23426 0.63598 0.0
Mg35 Mg 0.04494 0.15487 0.61271 0.0
O36 O 0.05483 0.18816 0.66083 0.0
Mg37 Mg 0.02456 0.19658 0.68334 0.0
O38 O -0.00119 0.21113 0.70813 0.0
Mg39 Mg 0.02536 0.23874 0.77379 0.0
Mg40 Mg 0.9582 0.17806 0.72755 0.0
C41 C 0.98421 0.11505 0.68882 0.0
O42 O 0.9925 0.17328 0.60743 0.0
O43 O 0.12018 0.21381 0.63883 0.0
O44 O 0.94659 0.15222 0.64962 0.0
O45 O 0.08208 0.22297 0.54297 0.0
O46 O 0.0866 0.15888 0.62741 0.0
O47 O 0.04555 0.16988 0.52833 0.0
O48 O 0.05364 0.21836 0.76306 0.0
O49 O 0.10082 0.24556 0.7267 0.0
C50 C 0.08298 0.23603 0.76886 0.0
C51 C 0.11388 0.18497 0.63634 0.0
O52 O 0.99108 0.14063 0.71571 0.0
O53 O 0.99183 0.25293 0.78479 0.0
O54 O 0.00085 0.11689 0.64871 0.0
O55 O -0.0047 0.19795 0.84155 0.0
O56 O 0.94507 0.20803 0.75926 0.0
O57 O 0.95812 0.15225 0.799 0.0
O58 O 0.05678 0.24737 0.64178 0.0
O59 O 0.05543 0.27905 0.70316 0.0
C60 C 0.06536 0.19912 0.50996 0.0
C61 C 0.96277 0.15447 0.60803 0.0
C62 C 0.82999 0.76988 0.72489 0.0
C63 C 0.74663 0.77409 0.59312 0.0
C64 C 0.8269 0.86463 0.54544 0.0
Mg65 Mg 0.90229 0.82947 0.74391 0.0
Mg66 Mg 0.92366 0.90285 0.77823 0.0
O67 O 0.90093 0.86816 0.729 0.0
Mg68 Mg 0.85753 0.84665 0.70333 0.0
O69 O 0.81316 0.8193 0.67492 0.0
Mg70 Mg 0.81945 0.79976 0.6082 0.0
Mg71 Mg 0.79437 0.83968 0.65699 0.0
C72 C 0.8889 0.92654 0.70714 0.0
O73 O 0.84031 0.85818 0.77851 0.0
O74 O 0.95604 0.86659 0.73503 0.0
O75 O 0.80429 0.86264 0.73837 0.0
O76 O 0.90535 0.83638 0.83684 0.0
O77 O 0.96642 0.91657 0.74443 0.0
O78 O 0.91939 0.88516 0.86389 0.0
O79 O 0.87084 0.83472 0.62308 0.0
O80 O 0.90174 0.82226 0.65357 0.0
C81 C 0.88787 0.8256 0.61386 0.0
C82 C 0.9744 0.89823 0.73062 0.0
O83 O 0.87281 0.90041 0.67662 0.0
O84 O 0.76725 0.76895 0.59033 0.0
O85 O 0.90578 0.92916 0.74861 0.0
O86 O 0.82548 0.83845 0.54518 0.0
O87 O 0.75153 0.79901 0.61828 0.0
O88 O 0.8198 0.87299 0.58886 0.0
O89 O 0.84842 0.79958 0.74075 0.0
O90 O 0.81556 0.76308 0.67757 0.0
C91 C 0.91235 0.85664 0.87543 0.0
C92 C 0.82203 0.86674 0.77959 0.0
C93 C 0.76276 0.95892 0.18556 0.0
C94 C 0.79216 0.06143 0.30674 0.0
C95 C 0.87569 0.07009 0.32889 0.0
Mg96 Mg 0.8083 0.94154 0.13953 0.0
Mg97 Mg 0.87646 0.00161 0.09245 0.0
O98 O 0.85012 0.98411 0.15412 0.0
Mg99 Mg 0.83683 0.01026 0.18529 0.0
O100 O 0.81985 0.03249 0.21933 0.0
Mg101 Mg 0.8048 0.0048 0.29107 0.0
Mg102 Mg 0.84583 0.07827 0.22745 0.0
C103 C 0.91208 0.0621 0.17422 0.0
O104 O 0.84686 0.04168 0.10667 0.0
O105 O 0.83503 0.91934 0.12156 0.0
O106 O 0.86131 0.09061 0.13964 0.0
O107 O 0.80955 0.95284 0.04505 0.0
O108 O 0.88129 0.96209 0.0881 0.0
O109 O 0.85208 0.00197 0.02194 0.0
O110 O 0.82722 0.98096 0.2647 0.0
O111 O 0.80862 0.93145 0.23249 0.0
C112 C 0.81681 0.95097 0.27323 0.0
C113 C 0.86223 0.93157 0.10276 0.0
O114 O 0.88841 0.05099 0.2057 0.0
O115 O 0.78552 0.03272 0.31522 0.0
O116 O 0.91116 0.04809 0.12927 0.0
O117 O 0.84968 0.04233 0.33864 0.0
O118 O 0.81436 0.08345 0.27451 0.0
O119 O 0.88054 0.08735 0.28466 0.0
O120 O 0.7882 0.96995 0.16075 0.0
O121 O 0.76252 0.96854 0.23496 0.0
C122 C 0.82608 0.97587 0.00873 0.0
C123 C 0.85827 0.07224 0.09956 0.0
C124 C -0.00312 0.76244 0.22488 0.0
C125 C 0.10444 0.82167 0.14333 0.0
C126 C 0.08579 0.86882 0.03775 0.0
Mg127 Mg 0.96482 0.80044 0.23009 0.0
Mg128 Mg 0.00617 0.88041 0.24817 0.0
O129 O 0.0011 0.84657 0.20883 0.0
Mg130 Mg 0.03389 0.84089 0.1945 0.0
O131 O 0.06342 0.82935 0.17461 0.0
Mg132 Mg 0.03576 0.79607 0.10668 0.0
Mg133 Mg 0.1042 0.87179 0.16296 0.0
C134 C 0.07054 0.92162 0.18467 0.0
O135 O 0.06058 0.86516 0.27544 0.0
O136 O 0.93342 0.81883 0.21485 0.0
O137 O 0.10849 0.8969 0.23863 0.0
O138 O 0.96849 0.81202 0.32304 0.0
O139 O 0.96626 0.87437 0.21473 0.0
O140 O -0.00166 0.86643 0.3344 0.0
O141 O 0.00984 0.81919 0.11273 0.0
O142 O 0.96061 0.78972 0.13929 0.0
C143 C 0.98103 0.80158 0.10105 0.0
C144 C 0.93943 0.84752 0.20688 0.0
O145 O 0.06604 0.89635 0.16089 0.0
O146 O 0.07909 0.81647 0.15864 0.0
O147 O 0.05165 0.91931 0.22015 0.0
O148 O 0.06653 0.83727 0.03995 0.0
O149 O 0.12891 0.8504 0.15208 0.0
O150 O 0.09885 0.88658 0.08101 0.0
O151 O 0.00157 0.78968 0.23644 0.0
O152 O 0.00655 0.75897 0.17869 0.0
C153 C 0.98109 0.83707 0.35413 0.0
C154 C 0.08941 0.88912 0.27865 0.0
C155 C 0.23058 0.2668 0.16056 0.0
C156 C 0.30399 0.24932 0.29235 0.0
C157 C 0.22319 0.16322 0.33878 0.0
Mg158 Mg 0.15803 0.21178 0.134 0.0
Mg159 Mg 0.1334 0.13729 0.09931 0.0
O160 O 0.15465 0.17044 0.15165 0.0
Mg161 Mg 0.19679 0.18874 0.17982 0.0
O162 O 0.24003 0.21212 0.2098 0.0
Mg163 Mg 0.23508 0.23188 0.2776 0.0
Mg164 Mg 0.25347 0.18647 0.22648 0.0
C165 C 0.16263 0.10905 0.17495 0.0
O166 O 0.21237 0.17591 0.10441 0.0
O167 O 0.10402 0.17785 0.13548 0.0
O168 O 0.2431 0.16405 0.14515 0.0
O169 O 0.15812 0.2063 0.04044 0.0
O170 O 0.09039 0.1265 0.12446 0.0
O171 O 0.14355 0.15711 0.01474 0.0
O172 O 0.18347 0.20094 0.26026 0.0
O173 O 0.15669 0.21786 0.22471 0.0
C174 C 0.16794 0.21229 0.26659 0.0
C175 C 0.08385 0.14631 0.13647 0.0
O176 O 0.1785 0.13461 0.20641 0.0
O177 O 0.28632 0.25843 0.29443 0.0
O178 O 0.14732 0.10768 0.13173 0.0
O179 O 0.22759 0.19108 0.34136 0.0
O180 O 0.29645 0.22322 0.26753 0.0
O181 O 0.22585 0.15294 0.29272 0.0
O182 O 0.21081 0.23773 0.14303 0.0
O183 O 0.24313 0.27151 0.20942 0.0
C184 C 0.1522 0.18615 0.00231 0.0
C185 C 0.22719 0.16323 0.10339 0.0
C186 C 0.92592 0.38258 0.09934 0.0
C187 C 0.87225 0.27508 -0.0131 0.0
C188 C 0.79841 0.28431 -0.02869 0.0
Mg189 Mg 0.89999 0.41905 0.15586 0.0
Mg190 Mg 0.83468 0.37397 0.22418 0.0
O191 O 0.85397 0.38215 0.15541 0.0
Mg192 Mg 0.85309 0.34659 0.11877 0.0
O193 O 0.85699 0.31515 0.07697 0.0
Mg194 Mg 0.87295 0.34141 0.0037 0.0
Mg195 Mg 0.82543 0.26997 0.07199 0.0
C196 C 0.78133 0.31022 0.15803 0.0
O197 O 0.84206 0.31458 0.19819 0.0
O198 O 0.88561 0.45328 0.17457 0.0
O199 O 0.81355 0.26324 0.16239 0.0
O200 O 0.90548 0.41469 0.24929 0.0
O201 O 0.84043 0.41989 0.22119 0.0
O202 O 0.86197 0.3743 0.29062 0.0
O203 O 0.86198 0.37535 0.03641 0.0
O204 O 0.89622 0.42638 0.06596 0.0
C205 C 0.88044 0.40638 0.02717 0.0
C206 C 0.86173 0.44788 0.19868 0.0
O207 O 0.79888 0.31497 0.11644 0.0
O208 O 0.88149 0.3046 -0.02444 0.0
O209 O 0.79166 0.32842 0.20151 0.0
O210 O 0.82561 0.31044 0.96239 0.0
O211 O 0.85143 0.25679 0.02443 0.0
O212 O 0.79203 0.2656 0.01438 0.0
O213 O 0.90507 0.37822 0.13182 0.0
O214 O 0.91948 0.37136 0.04944 0.0
C215 C 0.89055 0.39798 0.29309 0.0
C216 C 0.82323 0.28302 0.20398 0.0
C217 C 0.68338 0.56352 0.07903 0.0
C218 C 0.79018 0.64639 -0.01561 0.0
C219 C 0.79736 0.56876 -0.01271 0.0
Mg220 Mg 0.65085 0.4944 0.1355 0.0
Mg221 Mg 0.68444 0.47507 0.22459 0.0
O222 O 0.68613 0.49127 0.15286 0.0
Mg223 Mg 0.72209 0.53503 0.11954 0.0
O224 O 0.75231 0.57854 0.07793 0.0
Mg225 Mg 0.73341 0.56566 0.00015 0.0
Mg226 Mg 0.7953 0.60698 0.08191 0.0
C227 C 0.75204 0.50048 0.17893 0.0
O228 O 0.74699 0.56182 0.20346 0.0
O229 O 0.61684 0.43964 0.15563 0.0
O230 O 0.79581 0.60272 0.17384 0.0
O231 O 0.64617 0.50446 0.22475 0.0
O232 O 0.64115 0.42627 0.21454 0.0
O233 O 0.67659 0.50093 0.28337 0.0
O234 O 0.70392 0.51202 0.03334 0.0
O235 O 0.65344 0.48173 0.04862 0.0
C236 C 0.6762 0.4906 0.01745 0.0
C237 C 0.61761 0.4186 0.18516 0.0
O238 O 0.75321 0.51703 0.13503 0.0
O239 O 0.76509 0.61904 -0.02927 0.0
O240 O 0.72951 0.48611 0.21432 0.0
O241 O 0.77113 0.56134 -0.02824 0.0
O242 O 0.80535 0.64906 0.02892 0.0
O243 O 0.81054 0.58406 0.03252 0.0
O244 O 0.68865 0.54832 0.11503 0.0
O245 O 0.69749 0.57339 0.03176 0.0
C246 C 0.65658 0.50632 0.27384 0.0
C247 C 0.77581 0.58515 0.21303 0.0
C248 C 0.46053 0.07883 0.1396 0.0
C249 C 0.38435 0.09588 0.00923 0.0
C250 C 0.46638 0.1891 -0.00482 0.0
Mg251 Mg 0.52887 0.13527 0.18346 0.0
Mg252 Mg 0.54804 0.206 0.2244 0.0
O253 O 0.53273 0.17677 0.16506 0.0
Mg254 Mg 0.49004 0.15612 0.13462 0.0
O255 O 0.44691 0.13049 0.10234 0.0
Mg256 Mg 0.45673 0.11814 0.03048 0.0
Mg257 Mg 0.42638 0.14972 0.09655 0.0
C258 C 0.52137 0.23484 0.1431 0.0
O259 O 0.4709 0.16344 0.21335 0.0
O260 O 0.58197 0.16924 0.19967 0.0
O261 O 0.43005 0.16239 0.18439 0.0
O262 O 0.51962 0.13597 0.27502 0.0
O263 O 0.59388 0.2183 0.22465 0.0
O264 O 0.52568 0.18123 0.30151 0.0
O265 O 0.5071 0.14751 0.05604 0.0
O266 O 0.53702 0.13465 0.09326 0.0
C267 C 0.52505 0.13892 0.05068 0.0
C268 C 0.60164 0.19945 0.21336 0.0
O269 O 0.50551 0.20942 0.11166 0.0
O270 O 0.40596 0.09263 0.00107 0.0
O271 O 0.5366 0.23622 0.18641 0.0
O272 O 0.46764 0.16516 -0.01575 0.0
O273 O 0.38615 0.11441 0.04743 0.0
O274 O 0.4539 0.18962 0.03977 0.0
O275 O 0.47739 0.10725 0.16141 0.0
O276 O 0.44834 0.0747 0.09022 0.0
C277 C 0.51822 0.15257 0.31236 0.0
C278 C 0.44904 0.16614 0.22252 0.0
C279 C 0.55666 0.40292 0.52129 0.0
C280 C 0.64964 0.4255 0.59604 0.0
C281 C 0.60074 0.38136 0.75448 0.0
Mg282 Mg 0.48796 0.34421 0.53014 0.0
Mg283 Mg 0.45533 0.27353 0.60117 0.0
O284 O 0.48356 0.31941 0.60154 0.0
Mg285 Mg 0.52885 0.34192 0.61077 0.0
O286 O 0.57401 0.36824 0.61643 0.0
Mg287 Mg 0.58364 0.4106 0.64374 0.0
Mg288 Mg 0.59861 0.35513 0.63828 0.0
C289 C 0.49528 0.28365 0.70902 0.0
O290 O 0.52772 0.29892 0.57218 0.0
O291 O 0.43577 0.31485 0.5313 0.0
O292 O 0.5704 0.30548 0.60631 0.0
O293 O 0.48286 0.30454 0.47337 0.0
O294 O 0.41299 0.26771 0.58182 0.0
O295 O 0.46557 0.25932 0.52693 0.0
O296 O 0.53008 0.38224 0.65653 0.0
O297 O 0.49629 0.38091 0.59679 0.0
C298 C 0.51323 0.39162 0.64144 0.0
C299 C 0.41154 0.28767 0.54987 0.0
O300 O 0.51835 0.31216 0.69183 0.0
O301 O 0.63466 0.43531 0.61736 0.0
O302 O 0.47001 0.26517 0.68128 0.0
O303 O 0.59304 0.39856 0.73092 0.0
O304 O 0.63925 0.39515 0.59632 0.0
O305 O 0.60442 0.36249 0.72737 0.0
O306 O 0.53888 0.37157 0.52878 0.0
O307 O 0.57536 0.42154 0.55928 0.0
C308 C 0.47519 0.27527 0.48017 0.0
C309 C 0.54436 0.28857 0.58065 0.0
C310 C 0.60093 0.11069 0.51761 0.0
C311 C 0.55938 0.15231 0.6389 0.0
C312 C 0.59837 0.12866 0.77909 0.0
Mg313 Mg 0.66042 0.11194 0.52457 0.0
Mg314 Mg 0.7234 0.17018 0.59058 0.0
O315 O 0.68152 0.1348 0.5968 0.0
Mg316 Mg 0.65164 0.14438 0.61748 0.0
O317 O 0.61867 0.14939 0.63317 0.0
Mg318 Mg 0.58169 0.10201 0.64619 0.0
Mg319 Mg 0.62428 0.17863 0.68604 0.0
C320 C 0.70493 0.18042 0.71161 0.0
O321 O 0.68548 0.20148 0.59501 0.0
O322 O 0.69633 0.10164 0.51822 0.0
O323 O 0.66849 0.22 0.65816 0.0
O324 O 0.69286 0.15781 0.4678 0.0
O325 O 0.73962 0.14222 0.56188 0.0
O326 O 0.73013 0.20009 0.51765 0.0
O327 O 0.618 0.09086 0.6497 0.0
O328 O 0.6282 0.06701 0.58586 0.0
C329 C 0.6147 0.06536 0.6314 0.0
C330 C 0.7248 0.1163 0.53178 0.0
O331 O 0.67588 0.16138 0.70139 0.0
O332 O 0.55324 0.12376 0.63125 0.0
O333 O 0.72593 0.18846 0.67503 0.0
O334 O 0.58196 0.10771 0.74137 0.0
O335 O 0.58439 0.1758 0.66205 0.0
O336 O 0.62048 0.15829 0.76692 0.0
O337 O 0.62941 0.1286 0.53146 0.0
O338 O 0.57997 0.0947 0.5547 0.0
C339 C 0.7163 0.18794 0.47102 0.0
C340 C 0.68805 0.22508 0.62128 0.0
C341 C 0.94637 0.55447 0.6388 0.0
C342 C 0.96293 0.65585 0.50352 0.0
C343 C 0.87069 0.58275 0.46759 0.0
Mg344 Mg 0.87765 0.48388 0.67046 0.0
Mg345 Mg 0.819 0.48632 0.69266 0.0
O346 O 0.85009 0.49559 0.64278 0.0
Mg347 Mg 0.88136 0.54145 0.61612 0.0
O348 O 0.91463 0.58698 0.58776 0.0
Mg349 Mg 0.92461 0.57282 0.519 0.0
Mg350 Mg 0.90483 0.61666 0.57674 0.0
C351 C 0.81615 0.53175 0.60255 0.0
O352 O 0.87672 0.56516 0.69208 0.0
O353 O 0.83206 0.42906 0.67373 0.0
O354 O 0.88809 0.6138 0.6606 0.0
O355 O 0.87111 0.49123 0.75958 0.0
O356 O 0.79358 0.43437 0.68194 0.0
O357 O 0.83457 0.49729 0.77792 0.0
O358 O 0.88793 0.5192 0.54067 0.0
O359 O 0.8845 0.47744 0.58334 0.0
C360 C 0.88974 0.49497 0.5395 0.0
C361 C 0.80307 0.41662 0.67489 0.0
O362 O 0.8412 0.54063 0.57814 0.0
O363 O 0.9592 0.62868 0.49426 0.0
O364 O 0.80614 0.51431 0.64827 0.0
O365 O 0.8877 0.57278 0.46267 0.0
O366 O 0.94653 0.65773 0.53926 0.0
O367 O 0.87235 0.59855 0.51003 0.0
O368 O 0.9186 0.54028 0.65636 0.0
O369 O 0.9552 0.5694 0.58975 0.0
C370 C 0.85657 0.4962 0.79408 0.0
C371 C 0.87926 0.59175 0.6996 0.0
C372 C 0.56379 0.71452 0.26647 0.0
C373 C 0.52501 0.74592 0.42091 0.0
C374 C 0.55267 0.6946 0.52969 0.0
Mg375 Mg 0.57128 0.6558 0.25927 0.0
Mg376 Mg 0.52811 0.5849 0.33155 0.0
O377 O 0.55472 0.63082 0.33319 0.0
Mg378 Mg 0.53996 0.65645 0.36051 0.0
O379 O 0.53006 0.68648 0.38523 0.0
Mg380 Mg 0.57377 0.72702 0.39942 0.0
Mg381 Mg 0.50257 0.6736 0.44367 0.0
C382 C 0.51567 0.59699 0.45511 0.0
O383 O 0.4872 0.61715 0.3412 0.0
O384 O 0.58704 0.62363 0.24122 0.0
O385 O 0.46593 0.6263 0.41227 0.0
O386 O 0.52479 0.61855 0.21514 0.0
O387 O 0.55855 0.57601 0.29108 0.0
O388 O 0.49398 0.57538 0.27305 0.0
O389 O 0.58922 0.69466 0.38408 0.0
O390 O 0.61512 0.69217 0.31472 0.0
C391 C 0.6146 0.70387 0.36175 0.0
C392 C 0.57993 0.59519 0.25514 0.0
O393 O 0.52781 0.62741 0.44364 0.0
O394 O 0.55216 0.7545 0.41011 0.0
O395 O 0.51258 0.57685 0.41869 0.0
O396 O 0.57177 0.71664 0.49407 0.0
O397 O 0.50249 0.71633 0.43496 0.0
O398 O 0.52479 0.67238 0.51648 0.0
O399 O 0.55155 0.68411 0.27738 0.0
O400 O 0.57436 0.73534 0.30576 0.0
C401 C 0.49843 0.59177 0.22786 0.0
C402 C 0.46384 0.60914 0.37126 0.0
C403 C 0.42238 0.86396 0.41225 0.0
C404 C 0.45044 0.8199 0.25901 0.0
C405 C 0.40522 0.8486 0.14809 0.0
Mg406 Mg 0.36832 0.87323 0.42069 0.0
Mg407 Mg 0.30044 0.81787 0.36782 0.0
O408 O 0.34199 0.84895 0.35291 0.0
Mg409 Mg 0.36642 0.83445 0.32264 0.0
O410 O 0.39506 0.82507 0.29548 0.0
Mg411 Mg 0.4324 0.87186 0.2787 0.0
Mg412 Mg 0.38265 0.79591 0.2369 0.0
C413 C 0.30525 0.79691 0.24626 0.0
O414 O 0.33244 0.77869 0.34878 0.0
O415 O 0.33754 0.89028 0.43213 0.0
O416 O 0.33879 0.75669 0.27358 0.0
O417 O 0.33677 0.83053 0.48303 0.0
O418 O 0.2915 0.852 0.39305 0.0
O419 O 0.29526 0.78907 0.43946 0.0
O420 O 0.40015 0.88688 0.28884 0.0
O421 O 0.39913 0.91556 0.35655 0.0
C422 C 0.4081 0.91423 0.30784 0.0
C423 C 0.30968 0.87904 0.41911 0.0
O424 O 0.33497 0.81555 0.24524 0.0
O425 O 0.45836 0.84858 0.27144 0.0
O426 O 0.28931 0.79399 0.28872 0.0
O427 O 0.42365 0.86774 0.18602 0.0
O428 O 0.42303 0.79645 0.2434 0.0
O429 O 0.38307 0.81877 0.15963 0.0
O430 O 0.39384 0.85058 0.40345 0.0
O431 O 0.44141 0.87572 0.37148 0.0
C432 C 0.31173 0.8013 0.4834 0.0
C433 C 0.3241 0.75391 0.31806 0.0
C434 C 0.1388 0.40479 0.39685 0.0
C435 C 0.07013 0.42913 0.27997 0.0
C436 C 0.15412 0.50796 0.20482 0.0
Mg437 Mg 0.21166 0.45159 0.42312 0.0
Mg438 Mg 0.2514 0.53157 0.43874 0.0
O439 O 0.22321 0.49565 0.39551 0.0
Mg440 Mg 0.1825 0.48338 0.36837 0.0
O441 O 0.14035 0.46552 0.33969 0.0
Mg442 Mg 0.13753 0.43889 0.27573 0.0
Mg443 Mg 0.12876 0.49255 0.32298 0.0
C444 C 0.22811 0.56426 0.35739 0.0
O445 O 0.17368 0.5055 0.44136 0.0
O446 O 0.26494 0.47572 0.42429 0.0
O447 O 0.14349 0.51777 0.39908 0.0
O448 O 0.21381 0.46382 0.5145 0.0
O449 O 0.28958 0.53075 0.41849 0.0
O450 O 0.24119 0.51798 0.52612 0.0
O451 O 0.1891 0.46223 0.29102 0.0
O452 O 0.21012 0.44011 0.33405 0.0
C453 C 0.20059 0.4462 0.28985 0.0
C454 C 0.2896 0.50538 0.41781 0.0
O455 O 0.20751 0.53734 0.33208 0.0
O456 O 0.08627 0.41938 0.26498 0.0
O457 O 0.24427 0.56545 0.39894 0.0
O458 O 0.14974 0.47996 0.20706 0.0
O459 O 0.08155 0.45593 0.30574 0.0
O460 O 0.15073 0.51974 0.24809 0.0
O461 O 0.16101 0.43364 0.41241 0.0
O462 O 0.12602 0.40025 0.34824 0.0
C463 C 0.22602 0.4886 0.54604 0.0
C464 C 0.15945 0.51887 0.44059 0.0
C465 C 0.13803 0.59646 0.9388 0.0
C466 C 0.17532 0.55694 0.78375 0.0
C467 C 0.15767 0.61544 0.67697 0.0
Mg468 Mg 0.13702 0.66145 0.93555 0.0
Mg469 Mg 0.18698 0.72877 0.85987 0.0
O470 O 0.157 0.68347 0.86135 0.0
Mg471 Mg 0.16871 0.65393 0.84179 0.0
O472 O 0.17554 0.62022 0.82424 0.0
Mg473 Mg 0.13121 0.58265 0.80553 0.0
Mg474 Mg 0.20299 0.63102 0.76668 0.0
C475 C 0.19925 0.71213 0.74203 0.0
O476 O 0.22189 0.69014 0.86449 0.0
O477 O 0.12675 0.70045 0.94472 0.0
O478 O 0.24188 0.67589 0.79928 0.0
O479 O 0.18334 0.69653 -0.01735 0.0
O480 O 0.16092 0.74493 0.89106 0.0
O481 O 0.21813 0.73622 0.92282 0.0
O482 O 0.1194 0.61913 0.81402 0.0
O483 O 0.09383 0.62674 0.87641 0.0
C484 C 0.0943 0.61375 0.83081 0.0
C485 C 0.13847 0.72994 0.92625 0.0
O486 O 0.18504 0.68167 0.7565 0.0
O487 O 0.14955 0.55077 0.79941 0.0
O488 O 0.20355 0.734 0.77551 0.0
O489 O 0.13722 0.59287 0.71042 0.0
O490 O 0.19844 0.58571 0.76762 0.0
O491 O 0.1848 0.63741 0.69369 0.0
O492 O 0.15254 0.62738 0.92716 0.0
O493 O 0.12711 0.57542 0.89967 0.0
C494 C 0.21106 0.72113 -0.02976 0.0
C495 C 0.24498 0.69469 0.8381 0.0
C496 C 0.29399 0.43547 0.77663 0.0
C497 C 0.2525 0.47788 0.90598 0.0
C498 C 0.29905 0.46258 0.03642 0.0
Mg499 Mg 0.35224 0.43146 0.78793 0.0
Mg500 Mg 0.41691 0.49319 0.84225 0.0
O501 O 0.37522 0.46017 0.85456 0.0
Mg502 Mg 0.34696 0.47253 0.87221 0.0
O503 O 0.31438 0.47893 0.88721 0.0
Mg504 Mg 0.27851 0.43166 0.90771 0.0
Mg505 Mg 0.3213 0.5099 0.93815 0.0
C506 C 0.40456 0.51609 0.9555 0.0
O507 O 0.37988 0.52831 0.8423 0.0
O508 O 0.38741 0.41885 0.79075 0.0
O509 O 0.36604 0.54975 0.90644 0.0
O510 O 0.38404 0.47241 0.72205 0.0
O511 O 0.43158 0.46225 0.82782 0.0
O512 O 0.42214 0.51773 0.76444 0.0
O513 O 0.31438 0.42133 0.91066 0.0
O514 O 0.31998 0.39048 0.85554 0.0
C515 C 0.30837 0.39361 0.8993 0.0
C516 C 0.41579 0.4337 0.80574 0.0
O517 O 0.37492 0.49583 0.95269 0.0
O518 O 0.2475 0.44978 0.90075 0.0
O519 O 0.42289 0.51928 0.91741 0.0
O520 O 0.28315 0.44033 0.00048 0.0
O521 O 0.27888 0.50406 0.91953 0.0
O522 O 0.31948 0.49241 0.02166 0.0
O523 O 0.32267 0.45127 0.78862 0.0
O524 O 0.27371 0.42288 0.81545 0.0
C525 C 0.4076 0.5026 0.72008 0.0
C526 C 0.38456 0.55301 0.86878 0.0
C527 C 0.56422 0.90266 0.80698 0.0
C528 C 0.63467 0.88625 0.94728 0.0
C529 C 0.5493 0.80106 -0.00164 0.0
Mg530 Mg 0.49455 0.84994 0.76865 0.0
Mg531 Mg 0.46055 0.77085 0.756 0.0
O532 O 0.48619 0.80777 0.79894 0.0
Mg533 Mg 0.52691 0.82419 0.83286 0.0
O534 O 0.56888 0.84649 0.86724 0.0
Mg535 Mg 0.56431 0.86945 0.92964 0.0
Mg536 Mg 0.58382 0.82276 0.88759 0.0
C537 C 0.48533 0.74259 0.84402 0.0
O538 O 0.5423 0.80605 0.7646 0.0
O539 O 0.44087 0.82167 0.76076 0.0
O540 O 0.57536 0.79878 0.80956 0.0
O541 O 0.4981 0.83847 0.67929 0.0
O542 O 0.41982 0.76771 0.77247 0.0
O543 O 0.47362 0.78454 0.66949 0.0
O544 O 0.51348 0.84217 0.90505 0.0
O545 O 0.49071 0.86039 0.85513 0.0
C546 C 0.49973 0.85589 0.90163 0.0
C547 C 0.41753 0.79154 0.76959 0.0
O548 O 0.50434 0.77009 0.86946 0.0
O549 O 0.61548 0.89325 0.95341 0.0
O550 O 0.46951 0.73994 0.80079 0.0
O551 O 0.55152 0.82785 -0.00373 0.0
O552 O 0.62803 0.86129 0.92002 0.0
O553 O 0.5572 0.79212 0.95698 0.0
O554 O 0.54576 0.87328 0.78918 0.0
O555 O 0.5753 0.90833 0.8574 0.0
C556 C 0.48862 0.81377 0.64889 0.0
C557 C 0.55909 0.79565 0.7668 0.0
H558 H 0.13894 0.19028 0.73806 0.0
H559 H 0.14044 0.16761 0.56538 0.0
H560 H 0.17205 0.14893 0.59143 0.0
H561 H 0.19222 0.13144 0.66507 0.0
H562 H 0.18497 0.14717 0.83922 0.0
H563 H 0.16348 0.17708 0.81138 0.0
C564 C 0.14708 0.18215 0.70615 0.0
C565 C 0.13795 0.18062 0.64987 0.0
C566 C 0.16392 0.17 0.72201 0.0
C567 C 0.14766 0.16926 0.60876 0.0
C568 C 0.1655 0.15842 0.62375 0.0
C569 C 0.18668 0.14229 0.69668 0.0
C570 C 0.19047 0.13777 0.75386 0.0
C571 C 0.1728 0.15762 0.68044 0.0
C572 C 0.18259 0.15096 0.79493 0.0
C573 C 0.17001 0.16765 0.779 0.0
H574 H 0.94798 0.06765 0.6145 0.0
H575 H 0.95785 0.08653 0.79226 0.0
H576 H 0.92125 0.02711 0.81262 0.0
H577 H 0.89612 0.9706 0.78015 0.0
H578 H 0.89037 0.95226 0.60261 0.0
H579 H 0.91481 0.01073 0.58148 0.0
C580 C 0.94159 0.05881 0.65776 0.0
C581 C 0.95619 0.08136 0.70204 0.0
C582 C 0.92146 0.02473 0.66891 0.0
C583 C 0.94717 0.06971 0.75763 0.0
C584 C 0.92644 0.03572 0.76914 0.0
C585 C 0.89939 0.97923 0.73669 0.0
C586 C 0.89206 0.95724 0.69291 0.0
C587 C 0.91483 0.01305 0.72521 0.0
C588 C 0.89586 0.96858 0.63694 0.0
C589 C 0.91025 0.00213 0.625 0.0
H590 H 0.01142 0.87755 0.72357 0.0
H591 H 0.00368 0.95472 0.66886 0.0
H592 H 0.05385 0.98454 0.62386 0.0
H593 H 0.10355 0.99429 0.61707 0.0
H594 H 0.11532 0.9223 0.68326 0.0
H595 H 0.05992 0.88398 0.70294 0.0
C596 C 0.02069 0.90072 0.70132 0.0
C597 C 0.00431 0.91443 0.70131 0.0
C598 C 0.05022 0.91843 0.67648 0.0
C599 C 0.01629 0.94418 0.67138 0.0
C600 C 0.04486 0.96112 0.64489 0.0
C601 C 0.09355 0.96943 0.6327 0.0
C602 C 0.11325 0.96112 0.64915 0.0
C603 C 0.06253 0.94918 0.64917 0.0
C604 C 0.10041 0.92907 0.66981 0.0
C605 C 0.06886 0.90756 0.6827 0.0
H606 H 0.94565 0.88358 0.11671 0.0
H607 H 0.88122 0.82041 0.24759 0.0
H608 H 0.84827 0.83758 0.22094 0.0
H609 H 0.84254 0.87717 0.16933 0.0
H610 H 0.90863 0.94087 0.03998 0.0
H611 H 0.93586 0.91639 0.05617 0.0
C612 C 0.92393 0.87293 0.13833 0.0
C613 C 0.91582 0.85097 0.18407 0.0
C614 C 0.90561 0.88326 0.12326 0.0
C615 C 0.88775 0.83723 0.21202 0.0
C616 C 0.86911 0.84728 0.19703 0.0
C617 C 0.86238 0.88503 0.14364 0.0
C618 C 0.87381 0.91123 0.10407 0.0
C619 C 0.87842 0.87123 0.15399 0.0
C620 C 0.89961 0.92114 0.07124 0.0
C621 C 0.91525 0.90718 0.0805 0.0
H622 H 0.15873 0.06696 0.1018 0.0
H623 H 0.15707 0.08158 0.27905 0.0
H624 H 0.1341 0.02334 0.29859 0.0
H625 H 0.10342 0.96729 0.26254 0.0
H626 H 0.10016 0.95175 0.08458 0.0
H627 H 0.13652 0.01149 0.06741 0.0
C628 C 0.15416 0.05755 0.14489 0.0
C629 C 0.1591 0.07829 0.18906 0.0
C630 C 0.13948 0.02382 0.15516 0.0
C631 C 0.15362 0.06612 0.24465 0.0
C632 C 0.14003 0.03273 0.25557 0.0
C633 C 0.11142 0.97697 0.2201 0.0
C634 C 0.09881 0.95534 0.17453 0.0
C635 C 0.13118 0.01114 0.2108 0.0
C636 C 0.10954 0.96795 0.12 0.0
C637 C 0.13003 0.00209 0.11034 0.0
H638 H 0.04818 0.16862 0.12748 0.0
H639 H 0.05114 0.09144 0.20159 0.0
H640 H -0.00091 0.06345 0.23775 0.0
H641 H 0.95003 0.05546 0.23322 0.0
H642 H 0.94355 0.12753 0.14882 0.0
H643 H -0.00044 0.16375 0.13412 0.0
C644 C 0.03742 0.14589 0.15205 0.0
C645 C 0.05303 0.13159 0.16041 0.0
C646 C 0.00689 0.12923 0.17152 0.0
C647 C 0.03914 0.10236 0.19298 0.0
C648 C 0.0095 0.08648 0.21428 0.0
C649 C 0.96123 0.07989 0.2143 0.0
C650 C 0.94305 0.08906 0.19226 0.0
C651 C 0.99277 0.099 0.20199 0.0
C652 C 0.95736 0.12028 0.16654 0.0
C653 C 0.98928 0.14062 0.15716 0.0
H654 H 0.83485 0.46094 0.27512 0.0
H655 H 0.87161 0.48714 0.10679 0.0
H656 H 0.84321 0.51038 0.08609 0.0
H657 H 0.80017 0.51362 0.11159 0.0
H658 H 0.76073 0.48023 0.27835 0.0
H659 H 0.79779 0.47003 0.3037 0.0
C660 C 0.83741 0.47273 0.23449 0.0
C661 C 0.85495 0.47213 0.19253 0.0
C662 C 0.81984 0.48422 0.2221 0.0
C663 C 0.85832 0.48756 0.14003 0.0
C664 C 0.84164 0.50032 0.12788 0.0
C665 C 0.80005 0.50456 0.15357 0.0
C666 C 0.77741 0.49765 0.19269 0.0
C667 C 0.82101 0.49721 0.16777 0.0
C668 C 0.77771 0.48589 0.24703 0.0
C669 C 0.79895 0.47989 0.26189 0.0
H670 H 0.59507 0.38215 0.09221 0.0
H671 H 0.58102 0.37849 0.27109 0.0
H672 H 0.53929 0.3194 0.26731 0.0
H673 H 0.51472 0.26845 0.21706 0.0
H674 H 0.53676 0.27004 0.04314 0.0
H675 H 0.56576 0.33028 0.03911 0.0
C676 C 0.58241 0.36828 0.12999 0.0
C677 C 0.591 0.38403 0.18204 0.0
C678 C 0.55969 0.33413 0.12779 0.0
C679 C 0.57483 0.36639 0.23099 0.0
C680 C 0.55097 0.33281 0.22865 0.0
C681 C 0.52496 0.28197 0.17771 0.0
C682 C 0.52427 0.26523 0.1308 0.0
C683 C 0.54418 0.31631 0.17778 0.0
C684 C 0.5371 0.28256 0.07973 0.0
C685 C 0.55424 0.317 0.07794 0.0
H686 H 0.74416 0.28386 0.24877 0.0
H687 H 0.74292 0.27495 0.06851 0.0
H688 H 0.68631 0.2356 0.07105 0.0
H689 H 0.63701 0.20915 0.12398 0.0
H690 H 0.64001 0.2232 0.30262 0.0
H691 H 0.69634 0.25508 0.30155 0.0
C692 C 0.73166 0.27338 0.20977 0.0
C693 C 0.74775 0.28304 0.15823 0.0
C694 C 0.69942 0.25174 0.21151 0.0
C695 C 0.73111 0.26826 0.10861 0.0
C696 C 0.69875 0.24588 0.1101 0.0
C697 C 0.65014 0.21873 0.16265 0.0
C698 C 0.63471 0.21391 0.21345 0.0
C699 C 0.68263 0.23821 0.16115 0.0
C700 C 0.65163 0.22669 0.2633 0.0
C701 C 0.68373 0.24496 0.26256 0.0
H702 H 0.56124 0.25913 0.51213 0.0
H703 H 0.49673 0.23886 0.64132 0.0
H704 H 0.49039 0.18823 0.66874 0.0
H705 H 0.51408 0.15826 0.67015 0.0
H706 H 0.57284 0.17407 0.5326 0.0
H707 H 0.5695 0.21684 0.49234 0.0
C708 C 0.54453 0.24269 0.54415 0.0
C709 C 0.53011 0.25311 0.57581 0.0
C710 C 0.54023 0.21291 0.55849 0.0
C711 C 0.50841 0.23155 0.61698 0.0
C712 C 0.50494 0.20264 0.63298 0.0
C713 C 0.52458 0.16969 0.62968 0.0
C714 C 0.54384 0.16324 0.60452 0.0
C715 C 0.52227 0.19417 0.60627 0.0
C716 C 0.55765 0.17849 0.55237 0.0
C717 C 0.55618 0.20339 0.52978 0.0
H718 H 0.81043 0.368 0.65102 0.0
H719 H 0.74136 0.3855 0.6679 0.0
H720 H 0.70146 0.32986 0.64084 0.0
H721 H 0.68484 0.2755 0.61789 0.0
H722 H 0.75029 0.25301 0.60969 0.0
H723 H 0.79291 0.31139 0.6251 0.0
C724 C 0.78664 0.35954 0.64907 0.0
C725 C 0.77921 0.38127 0.66206 0.0
C726 C 0.76312 0.32673 0.63382 0.0
C727 C 0.74813 0.36971 0.65876 0.0
C728 C 0.72509 0.33778 0.64278 0.0
C729 C 0.70853 0.28346 0.61832 0.0
C730 C 0.71444 0.26007 0.61258 0.0
C731 C 0.73226 0.31613 0.63061 0.0
C732 C 0.74519 0.27068 0.61307 0.0
C733 C 0.76944 0.30393 0.62302 0.0
H734 H 0.78384 0.49826 0.51277 0.0
H735 H 0.79657 0.56829 0.6308 0.0
H736 H 0.7413 0.54285 0.62921 0.0
H737 H 0.6897 0.49051 0.61953 0.0
H738 H 0.67786 0.41536 0.51475 0.0
H739 H 0.73187 0.45215 0.48629 0.0
C740 C 0.77461 0.50907 0.53531 0.0
C741 C 0.79371 0.53434 0.57289 0.0
C742 C 0.74257 0.49195 0.53909 0.0
C743 C 0.78198 0.54857 0.60184 0.0
C744 C 0.75026 0.53341 0.60212 0.0
C745 C 0.6988 0.48256 0.58937 0.0
C746 C 0.68026 0.44997 0.57084 0.0
C747 C 0.73023 0.50334 0.57513 0.0
C748 C 0.69209 0.44003 0.5311 0.0
C749 C 0.7229 0.46112 0.51446 0.0
H750 H 0.5082 0.7458 0.31603 0.0
H751 H 0.52446 0.7932 0.47419 0.0
H752 H 0.50768 0.82548 0.43281 0.0
H753 H 0.48313 0.83521 0.35469 0.0
H754 H 0.46223 0.78311 0.20005 0.0
H755 H 0.48687 0.75804 0.23632 0.0
C756 C 0.50827 0.76349 0.34112 0.0
C757 C 0.51718 0.76725 0.39781 0.0
C758 C 0.498 0.78108 0.31751 0.0
C759 C 0.51743 0.79003 0.43047 0.0
C760 C 0.5079 0.80837 0.40681 0.0
C761 C 0.48488 0.81917 0.32839 0.0
C762 C 0.47131 0.81119 0.27458 0.0
C763 C 0.49753 0.80355 0.35073 0.0
C764 C 0.47283 0.78969 0.24134 0.0
C765 C 0.48662 0.7752 0.26225 0.0
H766 H 0.28749 0.70321 0.24865 0.0
H767 H 0.30133 0.72871 0.4239 0.0
H768 H 0.26679 0.6702 0.45096 0.0
H769 H 0.24172 0.61292 0.42492 0.0
H770 H 0.22969 0.58713 0.25015 0.0
H771 H 0.25423 0.64492 0.22233 0.0
C772 C 0.28253 0.69596 0.2928 0.0
C773 C 0.29765 0.72011 0.33443 0.0
C774 C 0.26338 0.66238 0.30787 0.0
C775 C 0.2903 0.71057 0.39124 0.0
C776 C 0.27074 0.67713 0.40664 0.0
C777 C 0.24382 0.61982 0.38069 0.0
C778 C 0.23467 0.59609 0.33949 0.0
C779 C 0.25853 0.65296 0.36537 0.0
C780 C 0.23685 0.60507 0.28245 0.0
C781 C 0.25109 0.63811 0.26669 0.0
H782 H 0.32475 0.52987 0.3242 0.0
H783 H 0.32158 0.49555 0.49384 0.0
H784 H 0.37659 0.51932 0.48894 0.0
H785 H 0.42669 0.55945 0.4434 0.0
H786 H 0.43052 0.59504 0.27464 0.0
H787 H 0.37391 0.56015 0.2708 0.0
C788 C 0.33602 0.52674 0.35925 0.0
C789 C 0.31952 0.51131 0.40946 0.0
C790 C 0.36766 0.54076 0.35615 0.0
C791 C 0.334 0.50724 0.45484 0.0
C792 C 0.36542 0.521 0.45209 0.0
C793 C 0.41503 0.55833 0.4049 0.0
C794 C 0.43249 0.57974 0.35944 0.0
C795 C 0.3827 0.53912 0.40395 0.0
C796 C 0.41742 0.57853 0.30987 0.0
C797 C 0.38509 0.55899 0.30811 0.0
H798 H 0.23891 0.48665 0.80145 0.0
H799 H 0.2137 0.47932 -0.02482 0.0
H800 H 0.18118 0.497 0.94956 0.0
H801 H 0.16711 0.52308 0.87983 0.0
H802 H 0.19834 0.53724 0.70846 0.0
H803 H 0.22063 0.50767 0.7301 0.0
C804 C 0.22552 0.48808 0.83325 0.0
C805 C 0.22823 0.48153 0.88989 0.0
C806 C 0.20812 0.49966 0.8184 0.0
C807 C 0.21152 0.48401 0.93127 0.0
C808 C 0.19313 0.49427 0.91661 0.0
C809 C 0.17783 0.51856 0.84692 0.0
C810 C 0.18086 0.53186 0.79254 0.0
C811 C 0.19216 0.50331 0.8606 0.0
C812 C 0.19556 0.52685 0.75044 0.0
C813 C 0.20851 0.51023 0.76295 0.0
H814 H 0.41415 0.60144 0.94419 0.0
H815 H 0.41771 0.58111 0.77056 0.0
H816 H 0.45647 0.64024 0.7511 0.0
H817 H 0.48049 0.69697 0.77982 0.0
H818 H 0.47483 0.71732 0.95207 0.0
H819 H 0.44628 0.65847 -0.02336 0.0
C820 C 0.42374 0.60988 0.90216 0.0
C821 C 0.41243 0.58708 0.8583 0.0
C822 C 0.44551 0.64373 0.89139 0.0
C823 C 0.42573 0.59818 0.80467 0.0
C824 C 0.44777 0.63196 0.79364 0.0
C825 C 0.47402 0.6887 0.82318 0.0
C826 C 0.47934 0.7113 0.86402 0.0
C827 C 0.45663 0.65491 0.83611 0.0
C828 C 0.47101 0.7004 0.92006 0.0
C829 C 0.4543 0.66672 0.93377 0.0
H830 H 0.38395 0.76355 0.86439 0.0
H831 H 0.38349 0.8027 0.70121 0.0
H832 H 0.32975 0.78205 0.7154 0.0
H833 H 0.28116 0.74496 0.7672 0.0
H834 H 0.2808 0.70452 0.92915 0.0
H835 H 0.33707 0.73493 0.92423 0.0
C836 C 0.37212 0.76806 0.83255 0.0
C837 C 0.38716 0.784 0.7814 0.0
C838 C 0.34136 0.75635 0.84131 0.0
C839 C 0.37212 0.7903 0.74063 0.0
C840 C 0.34147 0.77855 0.74883 0.0
C841 C 0.29367 0.74434 0.80272 0.0
C842 C 0.27705 0.72296 0.84874 0.0
C843 C 0.32561 0.76064 0.79816 0.0
C844 C 0.29323 0.72135 0.89389 0.0
C845 C 0.32529 0.7382 0.89043 0.0
H846 H 0.22242 0.07205 0.52585 0.0
H847 H 0.28604 0.16625 0.60298 0.0
H848 H 0.27882 0.19357 0.52509 0.0
H849 H 0.25425 0.19085 0.43533 0.0
H850 H 0.19233 0.09715 0.35639 0.0
H851 H 0.19861 0.06941 0.43523 0.0
C852 C 0.23529 0.09863 0.5251 0.0
C853 C 0.25487 0.11702 0.57026 0.0
C854 C 0.23074 0.11421 0.48049 0.0
C855 C 0.27093 0.15145 0.56874 0.0
C856 C 0.2666 0.1671 0.52445 0.0
C857 C 0.2415 0.16426 0.43617 0.0
C858 C 0.22218 0.14593 0.39085 0.0
C859 C 0.24623 0.1487 0.48052 0.0
C860 C 0.20677 0.11165 0.3914 0.0
C861 C 0.21069 0.09587 0.4361 0.0
H862 H 0.97993 0.16443 0.49813 0.0
H863 H 0.90856 0.09399 0.61472 0.0
H864 H 0.87769 0.05802 0.53777 0.0
H865 H 0.86781 0.05042 0.43766 0.0
H866 H 0.93661 0.12253 0.31914 0.0
H867 H 0.97202 0.15362 0.39649 0.0
C868 C 0.95775 0.14106 0.50643 0.0
C869 C 0.94603 0.1322 0.5614 0.0
C870 C 0.93967 0.12088 0.46178 0.0
C871 C 0.91752 0.10172 0.57224 0.0
C872 C 0.89997 0.08103 0.52844 0.0
C873 C 0.89076 0.07257 0.42856 0.0
C874 C 0.89936 0.08461 0.37311 0.0
C875 C 0.91032 0.09095 0.47298 0.0
C876 C 0.9293 0.11315 0.36185 0.0
C877 C 0.94949 0.13099 0.40597 0.0
H878 H 0.90844 0.79137 0.58106 0.0
H879 H 0.88815 0.85799 0.51978 0.0
H880 H 0.91783 0.86898 0.43432 0.0
H881 H 0.95351 0.86381 0.38258 0.0
H882 H 0.97278 0.79616 0.44149 0.0
H883 H 0.94045 0.78238 0.52497 0.0
C884 C 0.91006 0.80783 0.54844 0.0
C885 C 0.89663 0.82428 0.55669 0.0
C886 C 0.92795 0.81485 0.50083 0.0
C887 C 0.89826 0.84503 0.51405 0.0
C888 C 0.91567 0.85176 0.46583 0.0
C889 C 0.95113 0.8466 0.4145 0.0
C890 C 0.96635 0.83199 0.40803 0.0
C891 C 0.93155 0.83781 0.4601 0.0
C892 C 0.96199 0.80841 0.44739 0.0
C893 C 0.94323 0.80025 0.49425 0.0
H894 H 0.0778 0.18206 0.7972 0.0
H895 H 0.12002 0.28175 0.84681 0.0
H896 H 0.15154 0.27726 0.91678 0.0
H897 H 0.16573 0.2444 0.96399 0.0
H898 H 0.12275 0.14415 0.91449 0.0
H899 H 0.09467 0.15043 0.84018 0.0
C900 C 0.09325 0.20237 0.82476 0.0
C901 C 0.09569 0.2316 0.81959 0.0
C902 C 0.11208 0.20003 0.86243 0.0
C903 C 0.11694 0.25859 0.85251 0.0
C904 C 0.13534 0.25622 0.89131 0.0
C905 C 0.15064 0.22402 0.93636 0.0
C906 C 0.1457 0.19353 0.94582 0.0
C907 C 0.13314 0.22708 0.89632 0.0
C908 C 0.12676 0.16778 0.9086 0.0
C909 C 0.11019 0.17111 0.86689 0.0
H910 H 0.86806 0.97409 0.95955 0.0
H911 H 0.77709 0.9492 0.93544 0.0
H912 H 0.76736 0.9118 0.8598 0.0
H913 H 0.78323 0.88181 0.80955 0.0
H914 H 0.8713 0.90126 0.84925 0.0
H915 H 0.88323 0.94429 0.91228 0.0
C916 C 0.84651 0.96143 0.9362 0.0
C917 C 0.82343 0.96459 0.95179 0.0
C918 C 0.84017 0.93793 0.89774 0.0
C919 C 0.7952 0.94727 0.92309 0.0
C920 C 0.78955 0.92557 0.88084 0.0
C921 C 0.80488 0.89528 0.83246 0.0
C922 C 0.82628 0.88828 0.82482 0.0
C923 C 0.81144 0.9197 0.86965 0.0
C924 C 0.85422 0.90582 0.85482 0.0
C925 C 0.86132 0.93081 0.89024 0.0
H926 H 0.14946 0.96787 0.83427 0.0
H927 H 0.16622 0.89785 0.7877 0.0
H928 H 0.13466 0.86161 0.8667 0.0
H929 H 0.1055 0.85195 0.95279 0.0
H930 H 0.09132 0.92351 0.00204 0.0
H931 H 0.1188 0.9574 0.9181 0.0
C932 C 0.14668 0.94503 0.84215 0.0
C933 C 0.16078 0.93595 0.80649 0.0
C934 C 0.12878 0.92457 0.88763 0.0
C935 C 0.15581 0.90548 0.81523 0.0
C936 C 0.13775 0.88475 0.86019 0.0
C937 C 0.10786 0.87459 0.94418 0.0
C938 C 0.09663 0.88552 -0.0171 0.0
C939 C 0.12442 0.89424 0.89698 0.0
C940 C 0.10014 0.91505 -0.02747 0.0
C941 C 0.11583 0.93433 0.92479 0.0
H942 H 0.82376 0.91594 0.52592 0.0
H943 H 0.84225 0.85379 0.44449 0.0
H944 H 0.84073 0.87554 0.3529 0.0
H945 H 0.82951 0.90803 0.296 0.0
H946 H 0.81208 0.9713 0.37543 0.0
H947 H 0.81752 0.95289 0.46843 0.0
C948 C 0.82793 0.90751 0.48823 0.0
C949 C 0.83247 0.88278 0.49195 0.0
C950 C 0.82655 0.91971 0.43558 0.0
C951 C 0.83828 0.87248 0.44278 0.0
C952 C 0.83724 0.88473 0.39035 0.0
C953 C 0.82664 0.91759 0.33371 0.0
C954 C 0.81955 0.94019 0.32935 0.0
C955 C 0.83038 0.90747 0.38631 0.0
C956 C 0.81703 0.9534 0.37818 0.0
C957 C 0.82027 0.94301 0.43112 0.0
H958 H 0.14352 0.94942 0.28851 0.0
H959 H 0.06207 0.87418 0.38223 0.0
H960 H 0.08586 0.90422 0.46893 0.0
H961 H 0.13258 0.94648 0.51886 0.0
H962 H 0.21511 0.01965 0.42552 0.0
H963 H 0.18748 0.99644 0.33715 0.0
C964 C 0.13083 0.93963 0.32786 0.0
C965 C 0.10153 0.90906 0.32948 0.0
C966 C 0.14478 0.95673 0.37729 0.0
C967 C 0.08492 0.89732 0.38023 0.0
C968 C 0.0985 0.9145 0.42969 0.0
C969 C 0.14446 0.95771 0.47915 0.0
C970 C 0.17614 0.98395 0.47854 0.0
C971 C 0.12887 0.94342 0.42891 0.0
C972 C 0.1909 0.99903 0.42701 0.0
C973 C 0.17518 0.98559 0.37655 0.0
H974 H 0.14817 0.2478 0.29619 0.0
H975 H 0.15933 0.17428 0.3589 0.0
H976 H 0.12431 0.16091 0.4369 0.0
H977 H 0.08788 0.16727 0.48212 0.0
H978 H 0.07836 0.24238 0.42326 0.0
H979 H 0.11427 0.25684 0.34554 0.0
C980 C 0.14335 0.22925 0.32758 0.0
C981 C 0.15591 0.21172 0.32173 0.0
C982 C 0.12245 0.22094 0.37068 0.0
C983 C 0.15002 0.18817 0.36286 0.0
C984 C 0.12955 0.18007 0.40664 0.0
C985 C 0.09295 0.18609 0.45107 0.0
C986 C 0.07961 0.20282 0.45611 0.0
C987 C 0.11484 0.19546 0.40952 0.0
C988 C 0.08755 0.22846 0.4182 0.0
C989 C 0.10846 0.23707 0.37483 0.0
H990 H 0.99207 0.85853 0.07046 0.0
H991 H 0.94407 0.7577 0.02146 0.0
H992 H 0.91344 0.76453 0.95343 0.0
H993 H 0.90016 0.79879 0.91034 0.0
H994 H 0.94757 0.89978 0.95952 0.0
H995 H 0.97745 0.89265 0.02859 0.0
C996 C 0.97574 0.83855 0.04309 0.0
C997 C 0.97111 0.8081 0.04856 0.0
C998 C 0.95717 0.84219 0.00684 0.0
C999 C 0.94878 0.78167 0.0157 0.0
C1000 C 0.93084 0.78538 -0.02189 0.0
C1001 C 0.91642 0.8191 0.93712 0.0
C1002 C 0.9217 0.84986 0.92946 0.0
C1003 C 0.9345 0.81533 -0.02575 0.0
C1004 C 0.94286 0.8758 0.9647 0.0
C1005 C 0.96043 0.87193 0.00328 0.0
H1006 H 0.25303 0.13153 0.08398 0.0
H1007 H 0.18297 0.14198 0.0235 0.0
H1008 H 0.16362 0.09696 0.96009 0.0
H1009 H 0.16913 0.05845 0.91633 0.0
H1010 H 0.24445 0.05429 0.96103 0.0
H1011 H 0.25794 0.09119 0.0399 0.0
C1012 C 0.23373 0.12417 0.05653 0.0
C1013 C 0.21962 0.1403 0.05828 0.0
C1014 C 0.22299 0.09855 0.01921 0.0
C1015 C 0.19458 0.13038 0.02255 0.0
C1016 C 0.18311 0.10423 -0.01308 0.0
C1017 C 0.18774 0.06455 0.94484 0.0
C1018 C 0.20619 0.05431 0.93324 0.0
C1019 C 0.19722 0.08834 -0.01518 0.0
C1020 C 0.23042 0.06251 -0.03051 0.0
C1021 C 0.23831 0.08394 0.01357 0.0
H1022 H 0.91807 0.10753 0.86063 0.0
H1023 H 0.9925 0.19254 0.9488 0.0
H1024 H 0.9618 0.17203 0.03511 0.0
H1025 H 0.91274 0.13154 0.08372 0.0
H1026 H 0.83905 0.04642 -0.00436 0.0
H1027 H 0.87004 0.0665 0.90958 0.0
C1028 C 0.92788 0.12146 0.8988 0.0
C1029 C 0.95752 0.15167 0.89804 0.0
C1030 C 0.90981 0.11017 0.94754 0.0
C1031 C 0.96977 0.1692 0.94814 0.0
C1032 C 0.95208 0.15774 -0.0027 0.0
C1033 C 0.90341 0.11767 0.04544 0.0
C1034 C 0.87377 0.08766 0.04566 0.0
C1035 C 0.9218 0.12872 -0.003 0.0
C1036 C 0.86185 0.06969 -0.00392 0.0
C1037 C 0.87965 0.08096 0.94723 0.0
H1038 H 0.83345 0.40751 -0.00397 0.0
H1039 H 0.92579 0.44265 0.9518 0.0
H1040 H 0.93028 0.48387 0.88709 0.0
H1041 H 0.90741 0.50834 0.84218 0.0
H1042 H 0.81302 0.46949 0.87765 0.0
H1043 H 0.8109 0.43377 0.95231 0.0
C1044 C 0.85398 0.42341 -0.02963 0.0
C1045 C 0.87876 0.4214 -0.02398 0.0
C1046 C 0.85668 0.44762 0.93506 0.0
C1047 C 0.90605 0.4431 0.94553 0.0
C1048 C 0.9089 0.46714 0.91006 0.0
C1049 C 0.88664 0.49266 0.8674 0.0
C1050 C 0.86011 0.49055 0.85342 0.0
C1051 C 0.88446 0.46974 0.90501 0.0
C1052 C 0.83365 0.47119 0.88732 0.0
C1053 C 0.83212 0.45004 0.92869 0.0
H1054 H 0.65797 0.43108 0.7792 0.0
H1055 H 0.57044 0.3542 0.85371 0.0
H1056 H 0.58827 0.38086 0.9452 0.0
H1057 H 0.62565 0.42953 -0.00145 0.0
H1058 H 0.71209 0.5089 0.92282 0.0
H1059 H 0.69787 0.47765 0.8361 0.0
C1060 C 0.64333 0.41977 0.81618 0.0
C1061 C 0.61325 0.39077 0.81093 0.0
C1062 C 0.65323 0.43605 0.86726 0.0
C1063 C 0.59385 0.37629 0.85785 0.0
C1064 C 0.60392 0.39173 0.90958 0.0
C1065 C 0.64146 0.44012 0.96308 0.0
C1066 C 0.66951 0.47186 0.96618 0.0
C1067 C 0.63302 0.42227 0.91392 0.0
C1068 C 0.69019 0.48473 0.92081 0.0
C1069 C 0.68208 0.46688 0.8715 0.0
H1070 H 0.54306 0.11229 0.80362 0.0
H1071 H 0.62673 0.13422 0.87814 0.0
H1072 H 0.60957 0.13736 -0.029 0.0
H1073 H 0.57399 0.14005 0.02703 0.0
H1074 H 0.49308 0.12484 0.95116 0.0
H1075 H 0.50641 0.11372 0.86106 0.0
C1076 C 0.55693 0.11664 0.84075 0.0
C1077 C 0.58561 0.1222 0.83529 0.0
C1078 C 0.54791 0.12064 0.89258 0.0
C1079 C 0.60426 0.12916 0.88244 0.0
C1080 C 0.59464 0.13138 0.93496 0.0
C1081 C 0.559 0.13398 -0.00902 0.0
C1082 C 0.53251 0.1331 -0.00448 0.0
C1083 C 0.56704 0.12822 0.93993 0.0
C1084 C 0.51366 0.1258 0.94838 0.0
C1085 C 0.52115 0.11923 0.8972 0.0
H1086 H 0.76827 0.53711 0.28192 0.0
H1087 H 0.81426 0.64183 0.2694 0.0
H1088 H 0.84704 0.65008 0.34964 0.0
H1089 H 0.8665 0.62812 0.41627 0.0
H1090 H 0.82485 0.52424 0.4217 0.0
H1091 H 0.78619 0.51476 0.35282 0.0
C1092 C 0.7849 0.56157 0.29777 0.0
C1093 C 0.78861 0.5888 0.2702 0.0
C1094 C 0.80503 0.56628 0.34159 0.0
C1095 C 0.8107 0.6205 0.29048 0.0
C1096 C 0.82972 0.62524 0.3358 0.0
C1097 C 0.84911 0.60345 0.40162 0.0
C1098 C 0.84877 0.57695 0.42288 0.0
C1099 C 0.82786 0.59846 0.36024 0.0
C1100 C 0.82602 0.54507 0.40449 0.0
C1101 C 0.80391 0.53969 0.36512 0.0
H1102 H 0.42757 0.21779 0.44004 0.0
H1103 H 0.52427 0.29527 0.41377 0.0
H1104 H 0.52528 0.26539 0.33519 0.0
H1105 H 0.49803 0.21803 0.27306 0.0
H1106 H 0.39979 0.14489 0.29015 0.0
H1107 H 0.39977 0.1717 0.37468 0.0
C1108 C 0.44879 0.22796 0.41691 0.0
C1109 C 0.47584 0.25837 0.43205 0.0
C1110 C 0.44883 0.21126 0.37101 0.0
C1111 C 0.50324 0.27186 0.40208 0.0
C1112 C 0.50382 0.25475 0.35763 0.0
C1113 C 0.47674 0.20787 0.29574 0.0
C1114 C 0.44902 0.17947 0.27638 0.0
C1115 C 0.47671 0.22451 0.3417 0.0
C1116 C 0.42136 0.16664 0.30505 0.0
C1117 C 0.42137 0.18203 0.35294 0.0
H1118 H 0.77545 0.24254 0.4545 0.0
H1119 H 0.68944 0.17541 0.36748 0.0
H1120 H 0.71541 0.19861 0.27711 0.0
H1121 H 0.76318 0.23445 0.22275 0.0
H1122 H 0.84898 0.30316 0.3084 0.0
H1123 H 0.82258 0.28235 0.39959 0.0
C1124 C 0.76224 0.23341 0.41584 0.0
C1125 C 0.73058 0.20698 0.41785 0.0
C1126 C 0.77746 0.24641 0.36384 0.0
C1127 C 0.71387 0.1955 0.36722 0.0
C1128 C 0.72874 0.20856 0.31546 0.0
C1129 C 0.77615 0.24452 0.26147 0.0
C1130 C 0.80812 0.26945 0.25919 0.0
C1131 C 0.76068 0.2332 0.31331 0.0
C1132 C 0.82447 0.28337 0.30939 0.0
C1133 C 0.80934 0.27167 0.36137 0.0
H1134 H 0.46987 0.27991 0.80717 0.0
H1135 H 0.52846 0.26006 0.72829 0.0
H1136 H 0.52751 0.2311 0.81371 0.0
H1137 H 0.50484 0.20633 0.90666 0.0
H1138 H 0.44849 0.22927 -0.01322 0.0
H1139 H 0.45457 0.26316 0.90579 0.0
C1140 C 0.48271 0.26958 0.80939 0.0
C1141 C 0.4984 0.27091 0.76203 0.0
C1142 C 0.48254 0.25374 0.85867 0.0
C1143 C 0.51563 0.25833 0.76457 0.0
C1144 C 0.51518 0.24199 0.81324 0.0
C1145 C 0.49436 0.21921 0.90667 0.0
C1146 C 0.4757 0.21471 0.95185 0.0
C1147 C 0.49791 0.23868 0.85995 0.0
C1148 C 0.46277 0.23209 0.95215 0.0
C1149 C 0.46604 0.25133 0.90575 0.0
H1150 H 0.74415 0.22329 0.9604 0.0
H1151 H 0.80291 0.31843 0.87622 0.0
H1152 H 0.77719 0.29427 0.78731 0.0
H1153 H 0.74482 0.24476 0.73118 0.0
H1154 H 0.685 0.14981 0.81411 0.0
H1155 H 0.70455 0.1752 0.90617 0.0
C1156 C 0.75075 0.23894 0.92301 0.0
C1157 C 0.77613 0.27235 0.92452 0.0
C1158 C 0.73638 0.22476 0.87163 0.0
C1159 C 0.78392 0.29243 0.87592 0.0
C1160 C 0.76942 0.27862 0.8249 0.0
C1161 C 0.73608 0.2298 0.7696 0.0
C1162 C 0.71459 0.19558 0.76662 0.0
C1163 C 0.74693 0.24458 0.82184 0.0
C1164 C 0.70224 0.17624 0.81609 0.0
C1165 C 0.71327 0.19073 0.86845 0.0
H1166 H 0.81346 0.60656 0.89692 0.0
H1167 H 0.82527 0.53747 -0.02117 0.0
H1168 H 0.85534 0.54151 0.89752 0.0
H1169 H 0.87442 0.5619 0.80022 0.0
H1170 H 0.86086 0.63033 0.72021 0.0
H1171 H 0.8359 0.63015 0.80483 0.0
C1172 C 0.82266 0.59236 0.89678 0.0
C1173 C 0.81683 0.57119 0.9424 0.0
C1174 C 0.83955 0.59484 0.85061 0.0
C1175 C 0.82931 0.55351 0.9433 0.0
C1176 C 0.84635 0.55583 0.89698 0.0
C1177 C 0.86588 0.57663 0.80141 0.0
C1178 C 0.86875 0.59544 0.75363 0.0
C1179 C 0.85099 0.5759 0.8499 0.0
C1180 C 0.85878 0.61552 0.75628 0.0
C1181 C 0.84432 0.61525 0.80445 0.0
H1182 H 0.56951 0.1898 0.36952 0.0
H1183 H 0.47938 0.09662 0.37495 0.0
H1184 H 0.49958 0.07269 0.43358 0.0
H1185 H 0.54416 0.07683 0.47178 0.0
H1186 H 0.63529 0.16902 0.45785 0.0
H1187 H 0.61391 0.1939 0.40718 0.0
C1188 C 0.55402 0.16469 0.38592 0.0
C1189 C 0.52302 0.14496 0.36892 0.0
C1190 C 0.5665 0.15029 0.41332 0.0
C1191 C 0.50316 0.11231 0.38897 0.0
C1192 C 0.51498 0.0984 0.42049 0.0
C1193 C 0.55945 0.1022 0.4566 0.0
C1194 C 0.59118 0.12112 0.46912 0.0
C1195 C 0.54687 0.11676 0.43021 0.0
C1196 C 0.61081 0.1538 0.44857 0.0
C1197 C 0.5985 0.16833 0.42102 0.0
H1198 H 0.89195 0.44345 0.53112 0.0
H1199 H 0.90617 0.52523 0.43394 0.0
H1200 H 0.91542 0.50508 0.34979 0.0
H1201 H 0.9123 0.46058 0.30337 0.0
H1202 H 0.88925 0.37476 0.3992 0.0
H1203 H 0.89174 0.40108 0.48636 0.0
C1204 C 0.89734 0.45732 0.49183 0.0
C1205 C 0.89797 0.4857 0.48861 0.0
C1206 C 0.90143 0.44502 0.44409 0.0
C1207 C 0.90524 0.50321 0.43732 0.0
C1208 C 0.91059 0.49172 0.38947 0.0
C1209 C 0.90899 0.44814 0.3436 0.0
C1210 C 0.9012 0.41605 0.34551 0.0
C1211 C 0.9079 0.46221 0.39231 0.0
C1212 C 0.89585 0.39965 0.39731 0.0
C1213 C 0.89685 0.41452 0.44669 0.0
H1214 H 0.58829 0.468 0.50103 0.0
H1215 H 0.53372 0.37448 0.41802 0.0
H1216 H 0.55628 0.4029 0.3275 0.0
H1217 H 0.60067 0.45098 0.27901 0.0
H1218 H 0.66421 0.54035 0.36879 0.0
H1219 H 0.6296 0.51701 0.45087 0.0
C1220 C 0.58088 0.45372 0.46304 0.0
C1221 C 0.5603 0.41902 0.46629 0.0
C1222 C 0.59638 0.46962 0.41301 0.0
C1223 C 0.54993 0.4011 0.41664 0.0
C1224 C 0.56315 0.41733 0.36516 0.0
C1225 C 0.60638 0.46564 0.31616 0.0
C1226 C 0.6346 0.49722 0.31869 0.0
C1227 C 0.58786 0.45108 0.36385 0.0
C1228 C 0.64247 0.51605 0.36662 0.0
C1229 C 0.62277 0.50263 0.41317 0.0
H1230 H 0.55614 0.76204 0.24665 0.0
H1231 H 0.55732 0.68796 0.16324 0.0
H1232 H 0.54791 0.70518 0.07264 0.0
H1233 H 0.54358 0.74419 0.01734 0.0
H1234 H 0.54267 0.81819 0.1023 0.0
H1235 H 0.5466 0.79705 0.19295 0.0
C1236 C 0.55463 0.74977 0.20862 0.0
C1237 C 0.55844 0.72446 0.21122 0.0
C1238 C 0.54878 0.75942 0.15736 0.0
C1239 C 0.55515 0.70797 0.16198 0.0
C1240 C 0.5496 0.71769 0.11039 0.0
C1241 C 0.54373 0.75543 0.05568 0.0
C1242 C 0.54343 0.78322 0.05282 0.0
C1243 C 0.54688 0.74375 0.10757 0.0
C1244 C 0.54307 0.79698 0.10306 0.0
C1245 C 0.54565 0.78512 0.15493 0.0
H1246 H 0.32047 0.80886 0.13532 0.0
H1247 H 0.25175 0.73604 0.25317 0.0
H1248 H 0.21817 0.70266 0.1762 0.0
H1249 H 0.205 0.69874 0.0773 0.0
H1250 H 0.27223 0.77244 0.95838 0.0
H1251 H 0.30991 0.80043 0.03367 0.0
C1252 C 0.29834 0.78547 0.14379 0.0
C1253 C 0.28796 0.77539 0.19924 0.0
C1254 C 0.27876 0.7667 0.09936 0.0
C1255 C 0.2596 0.74477 0.21034 0.0
C1256 C 0.24046 0.72557 0.16654 0.0
C1257 C 0.228 0.72065 0.06766 0.0
C1258 C 0.23542 0.73415 0.01298 0.0
C1259 C 0.24922 0.73707 0.11106 0.0
C1260 C 0.26563 0.76205 0.00073 0.0
C1261 C 0.28724 0.77813 0.04366 0.0
H1262 H 0.23921 0.42328 0.06128 0.0
H1263 H 0.32954 0.48924 0.13537 0.0
H1264 H 0.30562 0.48894 0.22258 0.0
H1265 H 0.25967 0.4746 0.27217 0.0
H1266 H 0.17006 0.41409 0.19383 0.0
H1267 H 0.19337 0.40848 0.11111 0.0
C1268 C 0.25368 0.43683 0.09709 0.0
C1269 C 0.28602 0.45597 0.09273 0.0
C1270 C 0.23999 0.43843 0.14467 0.0
C1271 C 0.30459 0.4741 0.13858 0.0
C1272 C 0.29097 0.47427 0.18776 0.0
C1273 C 0.24533 0.46019 0.23676 0.0
C1274 C 0.21342 0.44475 0.23798 0.0
C1275 C 0.25885 0.45745 0.19023 0.0
C1276 C 0.19475 0.42635 0.19262 0.0
C1277 C 0.208 0.4229 0.14611 0.0
H1278 H 0.4799 0.88467 0.44402 0.0
H1279 H 0.38368 0.81766 0.49154 0.0
H1280 H 0.39599 0.78973 0.5585 0.0
H1281 H 0.43364 0.78482 0.60443 0.0
H1282 H 0.5305 0.85626 0.56877 0.0
H1283 H 0.51817 0.8805 0.49245 0.0
C1284 C 0.46166 0.86425 0.4696 0.0
C1285 C 0.43089 0.85324 0.4625 0.0
C1286 C 0.46882 0.8481 0.50781 0.0
C1287 C 0.40759 0.82688 0.49628 0.0
C1288 C 0.41449 0.81045 0.53384 0.0
C1289 C 0.45195 0.80475 0.57815 0.0
C1290 C 0.48282 0.81823 0.59063 0.0
C1291 C 0.44488 0.82053 0.53916 0.0
C1292 C 0.50655 0.84496 0.55834 0.0
C1293 C 0.49951 0.85935 0.51607 0.0
H1294 H 0.11646 0.52293 0.48342 0.0
H1295 H 0.21296 0.56336 0.4938 0.0
H1296 H 0.22256 0.60742 0.55296 0.0
H1297 H 0.20268 0.63073 0.60672 0.0
H1298 H 0.10445 0.58253 0.61469 0.0
H1299 H 0.09645 0.5472 0.53732 0.0
C1300 C 0.13947 0.54122 0.49946 0.0
C1301 C 0.16401 0.54009 0.48547 0.0
C1302 C 0.14453 0.56577 0.53388 0.0
C1303 C 0.19379 0.56367 0.50556 0.0
C1304 C 0.19931 0.58908 0.53815 0.0
C1305 C 0.17952 0.61313 0.5906 0.0
C1306 C 0.154 0.6083 0.6172 0.0
C1307 C 0.17478 0.59013 0.55275 0.0
C1308 C 0.12432 0.5862 0.59497 0.0
C1309 C 0.11972 0.5655 0.55205 0.0
H1310 H 0.46136 0.56312 0.7001 0.0
H1311 H 0.38525 0.4775 0.61572 0.0
H1312 H 0.41306 0.49875 0.5266 0.0
H1313 H 0.46027 0.53961 0.47405 0.0
H1314 H 0.53574 0.62587 0.55715 0.0
H1315 H 0.5071 0.60594 0.64611 0.0
C1316 C 0.45061 0.54925 0.66216 0.0
C1317 C 0.42142 0.5185 0.66484 0.0
C1318 C 0.46693 0.56127 0.61128 0.0
C1319 C 0.40778 0.5011 0.61504 0.0
C1320 C 0.42376 0.51307 0.56411 0.0
C1321 C 0.47058 0.55374 0.51193 0.0
C1322 C 0.50021 0.58373 0.50976 0.0
C1323 C 0.45367 0.5426 0.56215 0.0
C1324 C 0.51303 0.60248 0.55837 0.0
C1325 C 0.49662 0.59121 0.60895 0.0
H1326 H 0.13911 0.54421 0.95863 0.0
H1327 H 0.14979 0.62523 0.04234 0.0
H1328 H 0.15954 0.60701 0.13158 0.0
H1329 H 0.16233 0.56635 0.18569 0.0
H1330 H 0.15214 0.48614 0.09953 0.0
H1331 H 0.1459 0.50671 0.01035 0.0
C1332 C 0.14319 0.55785 -0.00362 0.0
C1333 C 0.14278 0.58559 -0.00593 0.0
C1334 C 0.14941 0.54771 0.0467 0.0
C1335 C 0.14932 0.60347 0.04317 0.0
C1336 C 0.1551 0.59315 0.094 0.0
C1337 C 0.15919 0.55355 0.14735 0.0
C1338 C 0.15736 0.52438 0.14966 0.0
C1339 C 0.15493 0.56512 0.09626 0.0
C1340 C 0.15362 0.5085 0.09929 0.0
C1341 C 0.14973 0.52008 0.04829 0.0
H1342 H 0.38878 0.50157 0.06568 0.0
H1343 H 0.45286 0.57998 0.94991 0.0
H1344 H 0.48486 0.61418 0.02772 0.0
H1345 H 0.49993 0.61687 0.12514 0.0
H1346 H 0.43896 0.53652 0.24109 0.0
H1347 H 0.40026 0.50828 0.16728 0.0
C1348 C 0.40934 0.52645 0.05799 0.0
C1349 C 0.41901 0.53818 0.00277 0.0
C1350 C 0.4285 0.54533 0.10279 0.0
C1351 C 0.44547 0.57043 -0.00747 0.0
C1352 C 0.46378 0.58993 0.03685 0.0
C1353 C 0.47801 0.59343 0.1346 0.0
C1354 C 0.47281 0.57818 0.18761 0.0
C1355 C 0.45644 0.57685 0.09174 0.0
C1356 C 0.44391 0.54829 0.19981 0.0
C1357 C 0.42174 0.5321 0.15772 0.0
H1358 H 0.44104 0.83016 0.91743 0.0
H1359 H 0.53118 0.89274 -0.00687 0.0
H1360 H 0.50921 0.90441 0.06998 0.0
H1361 H 0.46427 0.89278 0.11755 0.0
H1362 H 0.37295 0.82233 0.05 0.0
H1363 H 0.39589 0.82003 0.96388 0.0
C1364 C 0.45576 0.84628 0.95108 0.0
C1365 C 0.48739 0.86033 0.95108 0.0
C1366 C 0.44295 0.85231 -0.00545 0.0
C1367 C 0.50662 0.88124 -0.00615 0.0
C1368 C 0.49416 0.88824 0.03681 0.0
C1369 C 0.44922 0.87751 0.08352 0.0
C1370 C 0.41692 0.85718 0.09033 0.0
C1371 C 0.46233 0.87357 0.03769 0.0
C1372 C 0.39786 0.83798 0.04558 0.0
C1373 C 0.41094 0.83617 -0.00289 0.0
H1374 H 0.23666 0.41585 0.74608 0.0
H1375 H 0.33212 0.47868 0.69245 0.0
H1376 H 0.3198 0.50628 0.62411 0.0
H1377 H 0.28231 0.51307 0.58111 0.0
H1378 H 0.18663 0.44823 0.63024 0.0
H1379 H 0.19928 0.42275 0.7034 0.0
C1380 C 0.25485 0.43537 0.71917 0.0
C1381 C 0.28541 0.44535 0.725 0.0
C1382 C 0.24791 0.45196 0.68173 0.0
C1383 C 0.30842 0.47036 0.68896 0.0
C1384 C 0.30153 0.48662 0.65066 0.0
C1385 C 0.2645 0.49433 0.6096 0.0
C1386 C 0.23379 0.48317 0.60206 0.0
C1387 C 0.27156 0.47813 0.6478 0.0
C1388 C 0.21054 0.45783 0.63699 0.0
C1389 C 0.21768 0.44276 0.67753 0.0
H1390 H 0.60152 0.78927 0.72371 0.0
H1391 H 0.50522 0.75012 0.71768 0.0
H1392 H 0.49363 0.70447 0.66208 0.0
H1393 H 0.51116 0.67958 0.60763 0.0
H1394 H 0.60883 0.72904 0.58424 0.0
H1395 H 0.61981 0.76468 0.66346 0.0
C1396 C 0.57815 0.77085 0.70943 0.0
C1397 C 0.55417 0.77276 0.72449 0.0
C1398 C 0.57197 0.74585 0.6743 0.0
C1399 C 0.52397 0.74911 0.70605 0.0
C1400 C 0.51727 0.72279 0.67504 0.0
C1401 C 0.53492 0.69758 0.62057 0.0
C1402 C 0.5592 0.70246 0.58931 0.0
C1403 C 0.54113 0.72121 0.65842 0.0
C1404 C 0.58976 0.7252 0.60757 0.0
C1405 C 0.59603 0.7461 0.65164 0.0
H1406 H 0.25589 0.76727 0.72431 0.0
H1407 H 0.17984 0.68195 0.6404 0.0
H1408 H 0.21049 0.69921 0.55383 0.0
H1409 H 0.25797 0.74044 0.50163 0.0
H1410 H 0.33399 0.82526 0.5879 0.0
H1411 H 0.30438 0.80573 0.6748 0.0
C1412 C 0.24601 0.75253 0.68695 0.0
C1413 C 0.21583 0.72343 0.6883 0.0
C1414 C 0.26388 0.76222 0.63833 0.0
C1415 C 0.20325 0.7043 0.64009 0.0
C1416 C 0.22074 0.71413 0.59085 0.0
C1417 C 0.26838 0.75426 0.53975 0.0
C1418 C 0.29794 0.78458 0.53796 0.0
C1419 C 0.2511 0.74314 0.58956 0.0
C1420 C 0.31122 0.80194 0.58789 0.0
C1421 C 0.29421 0.79099 0.63756 0.0
H1422 H 0.23401 0.92345 0.52255 0.0
H1423 H 0.32489 0.00604 0.57253 0.0
H1424 H 0.34786 0.98342 0.52277 0.0
H1425 H 0.3413 0.93877 0.46871 0.0
H1426 H 0.24977 0.85748 0.41694 0.0
H1427 H 0.22781 0.88155 0.46311 0.0
C1428 C 0.25886 0.93638 0.5229 0.0
C1429 C 0.2778 0.96585 0.55202 0.0
C1430 C 0.27169 0.9237 0.49352 0.0
C1431 C 0.30996 0.98304 0.55077 0.0
C1432 C 0.32301 0.97017 0.52232 0.0
C1433 C 0.31658 0.92646 0.46706 0.0
C1434 C 0.29719 0.89616 0.43998 0.0
C1435 C 0.304 0.94034 0.49395 0.0
C1436 C 0.26525 0.88075 0.43762 0.0
C1437 C 0.25261 0.89437 0.46429 0.0
H1438 H 0.06782 0.27266 0.54298 0.0
H1439 H 0.10181 0.34171 0.67766 0.0
H1440 H 0.12994 0.38771 0.60929 0.0
H1441 H 0.14266 0.40813 0.51096 0.0
H1442 H 0.1049 0.33883 0.37612 0.0
H1443 H 0.08049 0.29302 0.44496 0.0
C1444 C 0.08159 0.29777 0.55755 0.0
C1445 C 0.08279 0.30372 0.61553 0.0
C1446 C 0.09691 0.324 0.51789 0.0
C1447 C 0.10042 0.33643 0.6334 0.0
C1448 C 0.11651 0.36272 0.59428 0.0
C1449 C 0.12938 0.383 0.49655 0.0
C1450 C 0.12575 0.37693 0.43829 0.0
C1451 C 0.11463 0.35678 0.53637 0.0
C1452 C 0.10807 0.3442 0.42054 0.0
C1453 C 0.0941 0.31801 0.45993 0.0
H1454 H 0.64959 0.68609 0.40461 0.0
H1455 H 0.63869 0.76398 0.40311 0.0
H1456 H 0.67652 0.79123 0.47914 0.0
H1457 H 0.71191 0.79223 0.54732 0.0
H1458 H 0.72154 0.71319 0.55106 0.0
H1459 H 0.68437 0.68656 0.47431 0.0
C1460 C 0.65631 0.70956 0.4199 0.0
C1461 C 0.64236 0.72375 0.39705 0.0
C1462 C 0.67705 0.72427 0.46529 0.0
C1463 C 0.64999 0.75328 0.41893 0.0
C1464 C 0.67121 0.76853 0.46297 0.0
C1465 C 0.7054 0.76881 0.53227 0.0
C1466 C 0.71938 0.75464 0.5555 0.0
C1467 C 0.68454 0.75399 0.48709 0.0
C1468 C 0.71101 0.72457 0.53442 0.0
C1469 C 0.69 0.70948 0.49002 0.0
H1470 H 0.92366 0.31044 0.92186 0.0
H1471 H 0.85054 0.2106 -0.02632 0.0
H1472 H 0.87056 0.18996 0.91013 0.0
H1473 H 0.909 0.20049 0.84005 0.0
H1474 H 0.98337 0.30056 0.79268 0.0
H1475 H 0.96215 0.32097 0.85348 0.0
C1476 C 0.912 0.28411 0.91947 0.0
C1477 C 0.8855 0.26209 0.95256 0.0
C1478 C 0.92359 0.2725 0.88292 0.0
C1479 C 0.87103 0.22811 0.94908 0.0
C1480 C 0.88234 0.2163 0.91238 0.0
C1481 C 0.92018 0.22675 0.84217 0.0
C1482 C 0.94739 0.24904 0.81099 0.0
C1483 C 0.90848 0.23828 0.87883 0.0
C1484 C 0.96222 0.28299 0.81562 0.0
C1485 C 0.95021 0.29462 0.85068 0.0
H1486 H 0.77911 0.64168 0.87295 0.0
H1487 H 0.82958 0.71329 0.00248 0.0
H1488 H 0.84728 0.75786 0.93253 0.0
H1489 H 0.84728 0.77603 0.83506 0.0
H1490 H 0.79596 0.70362 0.7067 0.0
H1491 H 0.78028 0.65959 0.77601 0.0
C1492 C 0.79402 0.66707 0.88613 0.0
C1493 C 0.80264 0.67417 0.94317 0.0
C1494 C 0.80432 0.69233 0.84572 0.0
C1495 C 0.82254 0.70718 0.95901 0.0
C1496 C 0.83274 0.73262 0.91891 0.0
C1497 C 0.83296 0.75066 0.82188 0.0
C1498 C 0.82281 0.74321 0.76542 0.0
C1499 C 0.82366 0.72544 0.86219 0.0
C1500 C 0.80408 0.71012 0.7496 0.0
C1501 C 0.79506 0.68493 0.78929 0.0
H1502 H 0.28285 0.0747 0.84037 0.0
H1503 H 0.34588 0.08168 0.72014 0.0
H1504 H 0.37872 0.08605 0.79705 0.0
H1505 H 0.38959 0.08785 0.89849 0.0
H1506 H 0.32759 0.08314 0.01815 0.0
H1507 H 0.29438 0.0777 0.94119 0.0
C1508 C 0.30391 0.07749 0.83067 0.0
C1509 C 0.31174 0.07789 0.77409 0.0
C1510 C 0.32256 0.07962 0.87516 0.0
C1511 C 0.3392 0.08147 0.76297 0.0
C1512 C 0.35789 0.08365 0.80706 0.0
C1513 C 0.36827 0.08457 0.90799 0.0
C1514 C 0.36079 0.08516 0.96441 0.0
C1515 C 0.3496 0.08233 0.86336 0.0
C1516 C 0.33363 0.0821 -0.02456 0.0
C1517 C 0.31467 0.07918 0.93135 0.0
H1518 H 0.81657 0.11128 0.37938 0.0
H1519 H 0.73038 0.02784 0.31462 0.0
H1520 H 0.70184 0.03511 0.38378 0.0
H1521 H 0.7015 0.06482 0.46229 0.0
H1522 H 0.78756 0.14803 0.52921 0.0
H1523 H 0.81616 0.14026 0.46122 0.0
C1524 C 0.79152 0.09529 0.37979 0.0
C1525 C 0.77539 0.06971 0.34117 0.0
C1526 C 0.77537 0.09887 0.42108 0.0
C1527 C 0.74305 0.04817 0.34324 0.0
C1528 C 0.72683 0.05206 0.38316 0.0
C1529 C 0.72654 0.08108 0.46276 0.0
C1530 C 0.74226 0.10709 0.50087 0.0
C1531 C 0.74277 0.07712 0.42258 0.0
C1532 C 0.77476 0.12767 0.50072 0.0
C1533 C 0.79116 0.12355 0.46126 0.0
H1534 H -0.00048 0.77228 0.3375 0.0
H1535 H 0.97672 0.69867 0.21657 0.0
H1536 H 0.96958 0.66123 0.2928 0.0
H1537 H 0.96842 0.64887 0.3933 0.0
H1538 H 0.98935 0.72143 0.51473 0.0
H1539 H 1e-05 0.76047 0.43835 0.0
C1540 C 0.99258 0.74788 0.32773 0.0
C1541 C 0.98828 0.73816 0.27127 0.0
C1542 C 0.98914 0.72672 0.3717 0.0
C1543 C 0.97988 0.70667 0.25958 0.0
C1544 C 0.97611 0.68538 0.30312 0.0
C1545 C 0.97631 0.67358 0.40323 0.0
C1546 C 0.97852 0.68236 0.45978 0.0
C1547 C 0.98088 0.69523 0.35925 0.0
C1548 C 0.98793 0.71424 0.47162 0.0
C1549 C -0.00647 0.73635 0.42796 0.0
H1550 H 0.399 0.32399 0.48709 0.0
H1551 H 0.36038 0.22388 0.53981 0.0
H1552 H 0.32539 0.20342 0.45953 0.0
H1553 H 0.30989 0.21413 0.36937 0.0
H1554 H 0.34818 0.31385 0.31606 0.0
H1555 H 0.3806 0.3346 0.40068 0.0
C1556 C 0.38236 0.29763 0.48193 0.0
C1557 C 0.38281 0.27554 0.51876 0.0
C1558 C 0.36343 0.28611 0.43428 0.0
C1559 C 0.36066 0.24149 0.51216 0.0
C1560 C 0.34105 0.22976 0.46558 0.0
C1561 C 0.32601 0.24046 0.37561 0.0
C1562 C 0.32792 0.26268 0.33565 0.0
C1563 C 0.34331 0.25191 0.42517 0.0
C1564 C 0.3474 0.29657 0.34547 0.0
C1565 C 0.36538 0.30828 0.39419 0.0
H1566 H 0.13772 0.83868 0.04718 0.0
H1567 H 0.06986 0.75507 0.15038 0.0
H1568 H 0.07165 0.71808 0.0888 0.0
H1569 H 0.09596 0.7104 0.01007 0.0
H1570 H 0.16184 0.79429 0.90424 0.0
H1571 H 0.15665 0.82996 0.9613 0.0
C1572 C 0.12334 0.81234 0.05601 0.0
C1573 C 0.1043 0.79956 0.10387 0.0
C1574 C 0.12395 0.79123 0.01971 0.0
C1575 C 0.08501 0.76537 0.11407 0.0
C1576 C 0.08601 0.74427 0.07886 0.0
C1577 C 0.10876 0.73634 -0.00124 0.0
C1578 C 0.12968 0.74954 0.9533 0.0
C1579 C 0.10584 0.75699 0.03208 0.0
C1580 C 0.14578 0.78328 0.93919 0.0
C1581 C 0.14302 0.80389 -0.02791 0.0
H1582 H 0.30214 0.39765 0.01097 0.0
H1583 H 0.27279 0.3273 0.87992 0.0
H1584 H 0.24346 0.28198 0.94914 0.0
H1585 H 0.22882 0.26271 0.04701 0.0
H1586 H 0.26207 0.333 0.17957 0.0
H1587 H 0.28702 0.37824 0.10924 0.0
C1588 C 0.28906 0.37238 -0.00263 0.0
C1589 C 0.28951 0.36583 0.94018 0.0
C1590 C 0.27308 0.34658 0.03766 0.0
C1591 C 0.27288 0.33299 0.92355 0.0
C1592 C 0.25611 0.30712 0.96313 0.0
C1593 C 0.24117 0.28789 0.06073 0.0
C1594 C 0.24339 0.29444 0.11871 0.0
C1595 C 0.25639 0.31367 0.02034 0.0
C1596 C 0.25995 0.32728 0.13541 0.0
C1597 C 0.27428 0.35311 0.09519 0.0
H1598 H 0.64187 0.91095 0.05043 0.0
H1599 H 0.68904 0.89613 0.9244 0.0
H1600 H 0.73137 0.91383 -0.00995 0.0
H1601 H 0.75482 0.93347 0.08248 0.0
H1602 H 0.7073 0.94711 0.20974 0.0
H1603 H 0.66473 0.92898 0.14452 0.0
C1604 C 0.66185 0.91251 0.03681 0.0
C1605 C 0.66272 0.90301 -0.01775 0.0
C1606 C 0.68565 0.9218 0.07521 0.0
C1607 C 0.68818 0.90395 0.96584 0.0
C1608 C 0.71224 0.91382 0.00342 0.0
C1609 C 0.73508 0.93226 0.09624 0.0
C1610 C 0.73443 0.94187 0.15085 0.0
C1611 C 0.71108 0.92253 0.05827 0.0
C1612 C 0.70841 0.93972 0.16808 0.0
C1613 C 0.68423 0.92978 0.13056 0.0
H1614 H 0.63258 0.52622 0.14421 0.0
H1615 H 0.68637 0.61841 0.05131 0.0
H1616 H 0.65832 0.63622 0.09757 0.0
H1617 H 0.6225 0.6275 0.17124 0.0
H1618 H 0.57199 0.5365 0.2695 0.0
H1619 H 0.59632 0.51687 0.21639 0.0
C1620 C 0.63846 0.55031 0.13452 0.0
C1621 C 0.66206 0.57126 0.0956 0.0
C1622 C 0.62345 0.56085 0.1633 0.0
C1623 C 0.66823 0.60178 0.08108 0.0
C1624 C 0.65253 0.61212 0.10815 0.0
C1625 C 0.61679 0.60338 0.18134 0.0
C1626 C 0.59558 0.58362 0.22486 0.0
C1627 C 0.63082 0.59224 0.15063 0.0
C1628 C 0.58836 0.55233 0.2367 0.0
C1629 C 0.60209 0.541 0.20607 0.0
H1630 H 0.44355 0.01753 0.10999 0.0
H1631 H 0.46166 0.07764 0.25292 0.0
H1632 H 0.45049 0.03374 0.31694 0.0
H1633 H 0.43261 0.97725 0.33384 0.0
H1634 H 0.41426 0.91584 0.19321 0.0
H1635 H 0.42896 0.96108 0.12764 0.0
C1636 C 0.44501 0.02088 0.15508 0.0
C1637 C 0.45341 0.05088 0.17629 0.0
C1638 C 0.43864 0.99529 0.1925 0.0
C1639 C 0.45551 0.05497 0.23505 0.0
C1640 C 0.44904 0.02979 0.27204 0.0
C1641 C 0.43221 0.97385 0.28888 0.0
C1642 C 0.42217 0.94313 0.26872 0.0
C1643 C 0.44029 -0.00023 0.25137 0.0
C1644 C 0.42203 0.93929 0.21017 0.0
C1645 C 0.43016 0.96509 0.17245 0.0
H1646 H 0.05323 0.41344 0.17275 0.0
H1647 H 0.01925 0.41285 0.336 0.0
H1648 H 0.9716 0.3999 0.29336 0.0
H1649 H 0.94159 0.3923 0.20951 0.0
H1650 H 0.97661 0.39554 0.04519 0.0
H1651 H 0.0227 0.40518 0.08841 0.0
C1652 C 0.03489 0.4094 0.19895 0.0
C1653 C 0.03909 0.41322 0.25728 0.0
C1654 C 0.00847 0.4037 0.17388 0.0
C1655 C 0.01593 0.40927 0.29102 0.0
C1656 C 0.98903 0.40239 0.26661 0.0
C1657 C 0.9594 0.39546 0.18293 0.0
C1658 C 0.95572 0.39335 0.12417 0.0
C1659 C 0.98547 0.40041 0.20798 0.0
C1660 C 0.97897 0.39726 0.09054 0.0
C1661 C 0.00517 0.40242 0.1152 0.0
H1662 H 0.45833 0.35678 0.69093 0.0
H1663 H 0.54525 0.45323 0.68655 0.0
H1664 H 0.52341 0.47406 0.74562 0.0
H1665 H 0.47742 0.46585 0.78734 0.0
H1666 H 0.38999 0.36933 0.78588 0.0
H1667 H 0.4143 0.34721 0.74102 0.0
C1668 C 0.4726 0.38223 0.70395 0.0
C1669 C 0.50317 0.40362 0.68462 0.0
C1670 C 0.4597 0.39391 0.73647 0.0
C1671 C 0.52166 0.43646 0.70135 0.0
C1672 C 0.50909 0.4483 0.73473 0.0
C1673 C 0.46385 0.43981 0.77849 0.0
C1674 C 0.43182 0.41929 0.78958 0.0
C1675 C 0.47783 0.42743 0.75105 0.0
C1676 C 0.41456 0.38567 0.77742 0.0
C1677 C 0.42843 0.37303 0.7516 0.0
H1678 H 0.59878 0.00442 0.6071 0.0
H1679 H 0.60069 0.0605 0.74305 0.0
H1680 H 0.58618 0.0159 0.80973 0.0
H1681 H 0.57547 0.9617 0.83088 0.0
H1682 H 0.57041 0.90445 0.69393 0.0
H1683 H 0.58373 0.94857 0.62686 0.0
C1684 C 0.59566 0.00675 0.65118 0.0
C1685 C 0.60109 0.036 0.66975 0.0
C1686 C 0.58713 0.98086 0.68958 0.0
C1687 C 0.59666 0.03835 0.72717 0.0
C1688 C 0.58856 0.01289 0.76565 0.0
C1689 C 0.57743 0.95904 0.78639 0.0
C1690 C 0.57244 0.93007 0.76758 0.0
C1691 C 0.5843 0.98425 0.74757 0.0
C1692 C 0.57433 0.92661 0.70959 0.0
C1693 C 0.58191 0.95182 0.67111 0.0
H1694 H 0.00544 0.57374 0.62114 0.0
H1695 H 0.93961 0.5469 0.75294 0.0
H1696 H 0.97842 0.56127 0.82413 0.0
H1697 H 0.03268 0.58563 0.84994 0.0
H1698 H 0.09741 0.60927 0.71784 0.0
H1699 H 0.05781 0.59189 0.64721 0.0
C1700 C -0.00051 0.57069 0.66539 0.0
C1701 C 0.96958 0.5595 0.68112 0.0
C1702 C 0.02196 0.57866 0.70675 0.0
C1703 C 0.96235 0.55543 0.73902 0.0
C1704 C 0.98466 0.56384 0.78014 0.0
C1705 C 0.03798 0.58656 0.80579 0.0
C1706 C 0.06818 0.59886 0.78978 0.0
C1707 C 0.01478 0.57611 0.76463 0.0
C1708 C 0.07444 0.59967 0.73206 0.0
C1709 C 0.05177 0.58994 0.69118 0.0
loop_
_geom_bond_atom_site_label_1
_geom_bond_atom_site_label_2
_geom_bond_distance
_geom_bond_site_symmetry_2
_ccdc_geom_bond_type
C0 O27 1.312 . S
C0 O28 1.208 . S
C1 O22 1.331 . S
C1 O25 1.244 . S
C2 O24 1.264 . S
C2 O26 1.273 . S
Mg3 O5 1.936 1_545 S
Mg3 O12 2.081 1_545 S
Mg3 O14 2.023 1_545 S
Mg3 O18 2.031 . S
Mg3 O27 2.291 . S
Mg4 O5 1.963 . S
Mg4 O15 1.942 . S
Mg4 O16 1.955 . S
Mg4 O23 1.986 . S
O5 Mg3 1.936 1_565 S
O5 Mg4 1.963 . S
O5 Mg6 1.915 1_565 S
Mg6 O5 1.915 1_545 S
Mg6 O7 1.915 . S
Mg6 O11 2.013 1_545 S
Mg6 O17 2.114 . S
Mg6 O21 2.013 1_545 S
Mg6 O27 2.114 . S
O7 Mg6 1.915 . S
O7 Mg8 1.936 . S
O7 Mg9 1.963 . S
Mg8 O7 1.936 . S
Mg8 O17 2.291 . S
Mg8 O22 2.081 . S
Mg8 O24 2.023 . S
Mg8 O28 2.031 . S
Mg9 O7 1.963 . S
Mg9 O13 1.986 1_545 S
Mg9 O25 1.942 . S
Mg9 O26 1.955 . S
C10 O21 1.191 . S
C10 O23 1.307 . S
O11 Mg6 2.013 1_565 S
O11 C30 1.191 . S
O12 Mg3 2.081 1_565 S
O12 C20 1.331 . S
O13 Mg9 1.986 1_565 S
O13 C30 1.307 . S
O14 Mg3 2.023 1_565 S
O14 C29 1.264 . S
O15 Mg4 1.942 . S
O15 C20 1.244 . S
O16 Mg4 1.955 . S
O16 C29 1.273 . S
O17 Mg6 2.114 . S
O17 Mg8 2.291 . S
O17 C19 1.312 . S
O18 Mg3 2.031 . S
O18 C19 1.208 . S
C19 O17 1.312 . S
C19 O18 1.208 . S
C20 O12 1.331 . S
C20 O15 1.244 . S
O21 Mg6 2.013 1_565 S
O21 C10 1.191 . S
O22 C1 1.331 . S
O22 Mg8 2.081 . S
O23 Mg4 1.986 . S
O23 C10 1.307 . S
O24 C2 1.264 . S
O24 Mg8 2.023 . S
O25 C1 1.244 . S
O25 Mg9 1.942 . S
O26 C2 1.273 . S
O26 Mg9 1.955 . S
O27 C0 1.312 . S
O27 Mg3 2.291 . S
O27 Mg6 2.114 . S
O28 C0 1.208 . S
O28 Mg8 2.031 . S
C29 O14 1.264 . S
C29 O16 1.273 . S
C30 O11 1.191 . S
C30 O13 1.307 . S
C31 O58 1.312 . S
C31 O59 1.208 . S
C32 O53 1.331 . S
C32 O56 1.244 . S
C33 O55 1.264 . S
C33 O57 1.273 . S
Mg34 O36 1.936 . S
Mg34 O43 2.081 . S
Mg34 O45 2.023 . S
Mg34 O49 2.031 . S
Mg34 O58 2.291 . S
Mg35 O36 1.963 . S
Mg35 O46 1.942 . S
Mg35 O47 1.955 . S
Mg35 O54 1.991 . S
O36 Mg34 1.936 . S
O36 Mg35 1.963 . S
O36 Mg37 1.915 . S
Mg37 O36 1.915 . S
Mg37 O38 1.915 1_455 S
Mg37 O42 2.013 . S
Mg37 O48 2.114 . S
Mg37 O52 2.013 1_455 S
Mg37 O58 2.114 . S
O38 Mg37 1.915 1_655 S
O38 Mg39 1.936 1_655 S
O38 Mg40 1.963 . S
Mg39 O38 1.936 1_455 S
Mg39 O48 2.291 . S
Mg39 O53 2.081 1_455 S
Mg39 O55 2.023 1_455 S
Mg39 O59 2.031 . S
Mg40 O38 1.963 . S
Mg40 O44 1.986 . S
Mg40 O56 1.942 . S
Mg40 O57 1.955 . S
C41 O52 1.191 . S
C41 O54 1.299 1_655 S
O42 Mg37 2.013 . S
O42 C61 1.191 1_455 S
O43 Mg34 2.081 . S
O43 C51 1.331 . S
O44 Mg40 1.986 . S
O44 C61 1.307 . S
O45 Mg34 2.023 . S
O45 C60 1.264 . S
O46 Mg35 1.942 . S
O46 C51 1.244 . S
O47 Mg35 1.955 . S
O47 C60 1.273 . S
O48 Mg37 2.114 . S
O48 Mg39 2.291 . S
O48 C50 1.312 . S
O49 Mg34 2.031 . S
O49 C50 1.208 . S
C50 O48 1.312 . S
C50 O49 1.208 . S
C51 O43 1.331 . S
C51 O46 1.244 . S
O52 Mg37 2.013 1_655 S
O52 C41 1.191 . S
O53 C32 1.331 . S
O53 Mg39 2.081 1_655 S
O54 Mg35 1.991 . S
O54 C41 1.299 1_455 S
O55 C33 1.264 . S
O55 Mg39 2.023 1_655 S
O56 C32 1.244 . S
O56 Mg40 1.942 . S
O57 C33 1.273 . S
O57 Mg40 1.955 . S
O58 C31 1.312 . S
O58 Mg34 2.291 . S
O58 Mg37 2.114 . S
O59 C31 1.208 . S
O59 Mg39 2.031 . S
C60 O45 1.264 . S
C60 O47 1.273 . S
C61 O42 1.191 1_655 S
C61 O44 1.307 . S
C62 O89 1.312 . S
C62 O90 1.208 . S
C63 O84 1.331 . S
C63 O87 1.244 . S
C64 O86 1.264 . S
C64 O88 1.273 . S
Mg65 O67 1.936 . S
Mg65 O74 2.081 . S
Mg65 O76 2.023 . S
Mg65 O80 2.031 . S
Mg65 O89 2.291 . S
Mg66 O67 1.963 . S
Mg66 O77 1.942 . S
Mg66 O78 1.955 . S
Mg66 O85 1.986 . S
O67 Mg65 1.936 . S
O67 Mg66 1.963 . S
O67 Mg68 1.915 . S
Mg68 O67 1.915 . S
Mg68 O69 1.915 . S
Mg68 O73 2.013 . S
Mg68 O79 2.114 . S
Mg68 O83 2.013 . S
Mg68 O89 2.114 . S
O69 Mg68 1.915 . S
O69 Mg70 1.936 . S
O69 Mg71 1.963 . S
Mg70 O69 1.936 . S
Mg70 O79 2.291 . S
Mg70 O84 2.081 . S
Mg70 O86 2.023 . S
Mg70 O90 2.031 . S
Mg71 O69 1.963 . S
Mg71 O75 1.986 . S
Mg71 O87 1.942 . S
Mg71 O88 1.955 . S
C72 O83 1.191 . S
C72 O85 1.307 . S
O73 Mg68 2.013 . S
O73 C92 1.191 . S
O74 Mg65 2.081 . S
O74 C82 1.331 . S
O75 Mg71 1.986 . S
O75 C92 1.307 . S
O76 Mg65 2.023 . S
O76 C91 1.264 . S
O77 Mg66 1.942 . S
O77 C82 1.244 . S
O78 Mg66 1.955 . S
O78 C91 1.273 . S
O79 Mg68 2.114 . S
O79 Mg70 2.291 . S
O79 C81 1.312 . S
O80 Mg65 2.031 . S
O80 C81 1.208 . S
C81 O79 1.312 . S
C81 O80 1.208 . S
C82 O74 1.331 . S
C82 O77 1.244 . S
O83 Mg68 2.013 . S
O83 C72 1.191 . S
O84 C63 1.331 . S
O84 Mg70 2.081 . S
O85 Mg66 1.986 . S
O85 C72 1.307 . S
O86 C64 1.264 . S
O86 Mg70 2.023 . S
O87 C63 1.244 . S
O87 Mg71 1.942 . S
O88 C64 1.273 . S
O88 Mg71 1.955 . S
O89 C62 1.312 . S
O89 Mg65 2.291 . S
O89 Mg68 2.114 . S
O90 C62 1.208 . S
O90 Mg70 2.031 . S
C91 O76 1.264 . S
C91 O78 1.273 . S
C92 O73 1.191 . S
C92 O75 1.307 . S
C93 O120 1.312 . S
C93 O121 1.208 . S
C94 O115 1.331 . S
C94 O118 1.244 . S
C95 O117 1.264 . S
C95 O119 1.273 . S
Mg96 O98 1.936 . S
Mg96 O105 2.081 . S
Mg96 O107 2.023 . S
Mg96 O111 2.031 . S
Mg96 O120 2.291 . S
Mg97 O98 1.963 . S
Mg97 O108 1.942 . S
Mg97 O109 1.955 . S
Mg97 O116 1.986 1_565 S
O98 Mg96 1.936 . S
O98 Mg97 1.963 . S
O98 Mg99 1.915 1_565 S
Mg99 O98 1.915 1_545 S
Mg99 O100 1.915 . S
Mg99 O104 2.013 . S
Mg99 O110 2.114 1_545 S
Mg99 O114 2.013 . S
Mg99 O120 2.114 1_545 S
O100 Mg99 1.915 . S
O100 Mg101 1.936 . S
O100 Mg102 1.963 . S
Mg101 O100 1.936 . S
Mg101 O110 2.291 1_545 S
Mg101 O115 2.081 . S
Mg101 O117 2.023 . S
Mg101 O121 2.031 1_545 S
Mg102 O100 1.963 . S
Mg102 O106 1.986 . S
Mg102 O118 1.942 . S
Mg102 O119 1.955 . S
C103 O114 1.191 . S
C103 O116 1.307 . S
O104 Mg99 2.013 . S
O104 C123 1.191 . S
O105 Mg96 2.081 . S
O105 C113 1.331 . S
O106 Mg102 1.986 . S
O106 C123 1.307 . S
O107 Mg96 2.023 . S
O107 C122 1.264 . S
O108 Mg97 1.942 . S
O108 C113 1.244 . S
O109 Mg97 1.955 . S
O109 C122 1.273 . S
O110 Mg99 2.114 1_565 S
O110 Mg101 2.291 1_565 S
O110 C112 1.312 . S
O111 Mg96 2.031 . S
O111 C112 1.208 . S
C112 O110 1.312 . S
C112 O111 1.208 . S
C113 O105 1.331 . S
C113 O108 1.244 . S
O114 Mg99 2.013 . S
O114 C103 1.191 . S
O115 C94 1.331 . S
O115 Mg101 2.081 . S
O116 Mg97 1.986 1_545 S
O116 C103 1.307 . S
O117 C95 1.264 . S
O117 Mg101 2.023 . S
O118 C94 1.244 . S
O118 Mg102 1.942 . S
O119 C95 1.273 . S
O119 Mg102 1.955 . S
O120 C93 1.312 . S
O120 Mg96 2.291 . S
O120 Mg99 2.114 1_565 S
O121 C93 1.208 . S
O121 Mg101 2.031 1_565 S
C122 O107 1.264 . S
C122 O109 1.273 . S
C123 O104 1.191 . S
C123 O106 1.307 . S
C124 O151 1.312 . S
C124 O152 1.208 . S
C125 O146 1.331 . S
C125 O149 1.244 . S
C126 O148 1.264 . S
C126 O150 1.273 . S
Mg127 O129 1.936 1_655 S
Mg127 O136 2.081 . S
Mg127 O138 2.023 . S
Mg127 O142 2.031 . S
Mg127 O151 2.291 1_655 S
Mg128 O129 1.963 . S
Mg128 O139 1.942 1_455 S
Mg128 O140 1.955 . S
Mg128 O147 1.986 . S
O129 Mg127 1.936 1_455 S
O129 Mg128 1.963 . S
O129 Mg130 1.915 . S
Mg130 O129 1.915 . S
Mg130 O131 1.915 . S
Mg130 O135 2.013 . S
Mg130 O141 2.114 . S
Mg130 O145 2.013 . S
Mg130 O151 2.114 . S
O131 Mg130 1.915 . S
O131 Mg132 1.936 . S
O131 Mg133 1.963 . S
Mg132 O131 1.936 . S
Mg132 O141 2.291 . S
Mg132 O146 2.081 . S
Mg132 O148 2.023 . S
Mg132 O152 2.031 . S
Mg133 O131 1.963 . S
Mg133 O137 1.986 . S
Mg133 O149 1.942 . S
Mg133 O150 1.955 . S
C134 O145 1.191 . S
C134 O147 1.307 . S
O135 Mg130 2.013 . S
O135 C154 1.191 . S
O136 Mg127 2.081 . S
O136 C144 1.331 . S
O137 Mg133 1.986 . S
O137 C154 1.307 . S
O138 Mg127 2.023 . S
O138 C153 1.264 . S
O139 Mg128 1.942 1_655 S
O139 C144 1.244 . S
O140 Mg128 1.955 . S
O140 C153 1.273 1_455 S
O141 Mg130 2.114 . S
O141 Mg132 2.291 . S
O141 C143 1.312 1_455 S
O142 Mg127 2.031 . S
O142 C143 1.208 . S
C143 O141 1.312 1_655 S
C143 O142 1.208 . S
C144 O136 1.331 . S
C144 O139 1.244 . S
O145 Mg130 2.013 . S
O145 C134 1.191 . S
O146 C125 1.331 . S
O146 Mg132 2.081 . S
O147 Mg128 1.986 . S
O147 C134 1.307 . S
O148 C126 1.264 . S
O148 Mg132 2.023 . S
O149 C125 1.244 . S
O149 Mg133 1.942 . S
O150 C126 1.273 . S
O150 Mg133 1.955 . S
O151 C124 1.312 . S
O151 Mg127 2.291 1_455 S
O151 Mg130 2.114 . S
O152 C124 1.208 . S
O152 Mg132 2.031 . S
C153 O138 1.264 . S
C153 O140 1.273 1_655 S
C154 O135 1.191 . S
C154 O137 1.307 . S
C155 O182 1.312 . S
C155 O183 1.208 . S
C156 O177 1.331 . S
C156 O180 1.244 . S
C157 O179 1.264 . S
C157 O181 1.273 . S
Mg158 O160 1.936 . S
Mg158 O167 2.081 . S
Mg158 O169 2.023 . S
Mg158 O173 2.031 . S
Mg158 O182 2.291 . S
Mg159 O160 1.963 . S
Mg159 O170 1.942 . S
Mg159 O171 1.955 . S
Mg159 O178 1.986 . S
O160 Mg158 1.936 . S
O160 Mg159 1.963 . S
O160 Mg161 1.915 . S
Mg161 O160 1.915 . S
Mg161 O162 1.915 . S
Mg161 O166 2.013 . S
Mg161 O172 2.114 . S
Mg161 O176 2.013 . S
Mg161 O182 2.114 . S
O162 Mg161 1.915 . S
O162 Mg163 1.936 . S
O162 Mg164 1.963 . S
Mg163 O162 1.936 . S
Mg163 O172 2.291 . S
Mg163 O177 2.081 . S
Mg163 O179 2.023 . S
Mg163 O183 2.031 . S
Mg164 O162 1.963 . S
Mg164 O168 1.986 . S
Mg164 O180 1.942 . S
Mg164 O181 1.955 . S
C165 O176 1.191 . S
C165 O178 1.307 . S
O166 Mg161 2.013 . S
O166 C185 1.191 . S
O167 Mg158 2.081 . S
O167 C175 1.331 . S
O168 Mg164 1.986 . S
O168 C185 1.307 . S
O169 Mg158 2.023 . S
O169 C184 1.264 . S
O170 Mg159 1.942 . S
O170 C175 1.244 . S
O171 Mg159 1.955 . S
O171 C184 1.273 . S
O172 Mg161 2.114 . S
O172 Mg163 2.291 . S
O172 C174 1.312 . S
O173 Mg158 2.031 . S
O173 C174 1.208 . S
C174 O172 1.312 . S
C174 O173 1.208 . S
C175 O167 1.331 . S
C175 O170 1.244 . S
O176 Mg161 2.013 . S
O176 C165 1.191 . S
O177 C156 1.331 . S
O177 Mg163 2.081 . S
O178 Mg159 1.986 . S
O178 C165 1.307 . S
O179 C157 1.264 . S
O179 Mg163 2.023 . S
O180 C156 1.244 . S
O180 Mg164 1.942 . S
O181 C157 1.273 . S
O181 Mg164 1.955 . S
O182 C155 1.312 . S
O182 Mg158 2.291 . S
O182 Mg161 2.114 . S
O183 C155 1.208 . S
O183 Mg163 2.031 . S
C184 O169 1.264 . S
C184 O171 1.273 . S
C185 O166 1.191 . S
C185 O168 1.307 . S
C186 O213 1.312 . S
C186 O214 1.208 . S
C187 O208 1.331 . S
C187 O211 1.244 . S
C188 O210 1.264 . S
C188 O212 1.273 . S
Mg189 O191 1.936 . S
Mg189 O198 2.081 . S
Mg189 O200 2.023 . S
Mg189 O204 2.031 . S
Mg189 O213 2.291 . S
Mg190 O191 1.963 . S
Mg190 O201 1.942 . S
Mg190 O202 1.955 . S
Mg190 O209 1.986 . S
O191 Mg189 1.936 . S
O191 Mg190 1.963 . S
O191 Mg192 1.915 . S
Mg192 O191 1.915 . S
Mg192 O193 1.915 . S
Mg192 O197 2.013 . S
Mg192 O203 2.114 . S
Mg192 O207 2.013 . S
Mg192 O213 2.114 . S
O193 Mg192 1.915 . S
O193 Mg194 1.936 1_554 S
O193 Mg195 1.963 . S
Mg194 O193 1.936 1_556 S
Mg194 O203 2.291 1_556 S
Mg194 O208 2.081 1_556 S
Mg194 O210 2.023 . S
Mg194 O214 2.031 1_556 S
Mg195 O193 1.963 . S
Mg195 O199 1.986 . S
Mg195 O211 1.942 . S
Mg195 O212 1.955 1_554 S
C196 O207 1.191 . S
C196 O209 1.307 . S
O197 Mg192 2.013 . S
O197 C216 1.191 . S
O198 Mg189 2.081 . S
O198 C206 1.331 . S
O199 Mg195 1.986 . S
O199 C216 1.307 . S
O200 Mg189 2.023 . S
O200 C215 1.264 . S
O201 Mg190 1.942 . S
O201 C206 1.244 . S
O202 Mg190 1.955 . S
O202 C215 1.273 . S
O203 Mg192 2.114 . S
O203 Mg194 2.291 1_554 S
O203 C205 1.312 1_554 S
O204 Mg189 2.031 . S
O204 C205 1.208 1_554 S
C205 O203 1.312 1_556 S
C205 O204 1.208 1_556 S
C206 O198 1.331 . S
C206 O201 1.244 . S
O207 Mg192 2.013 . S
O207 C196 1.191 . S
O208 C187 1.331 . S
O208 Mg194 2.081 1_554 S
O209 Mg190 1.986 . S
O209 C196 1.307 . S
O210 C188 1.264 . S
O210 Mg194 2.023 . S
O211 C187 1.244 . S
O211 Mg195 1.942 . S
O212 C188 1.273 . S
O212 Mg195 1.955 1_556 S
O213 C186 1.312 . S
O213 Mg189 2.291 . S
O213 Mg192 2.114 . S
O214 C186 1.208 . S
O214 Mg194 2.031 1_554 S
C215 O200 1.264 . S
C215 O202 1.273 . S
C216 O197 1.191 . S
C216 O199 1.307 . S
C217 O244 1.312 . S
C217 O245 1.208 . S
C218 O239 1.331 . S
C218 O242 1.244 . S
C219 O241 1.264 . S
C219 O243 1.273 . S
Mg220 O222 1.936 . S
Mg220 O229 2.081 . S
Mg220 O231 2.023 . S
Mg220 O235 2.031 . S
Mg220 O244 2.291 . S
Mg221 O222 1.963 . S
Mg221 O232 1.942 . S
Mg221 O233 1.955 . S
Mg221 O240 1.986 . S
O222 Mg220 1.936 . S
O222 Mg221 1.963 . S
O222 Mg223 1.915 . S
Mg223 O222 1.915 . S
Mg223 O224 1.915 . S
Mg223 O228 2.013 . S
Mg223 O234 2.114 . S
Mg223 O238 2.013 . S
Mg223 O244 2.114 . S
O224 Mg223 1.915 . S
O224 Mg225 1.936 . S
O224 Mg226 1.963 . S
Mg225 O224 1.936 . S
Mg225 O234 2.291 . S
Mg225 O239 2.081 . S
Mg225 O241 2.023 1_554 S
Mg225 O245 2.031 . S
Mg226 O224 1.963 . S
Mg226 O230 1.986 . S
Mg226 O242 1.942 . S
Mg226 O243 1.955 1_554 S
C227 O238 1.191 . S
C227 O240 1.307 . S
O228 Mg223 2.013 . S
O228 C247 1.191 . S
O229 Mg220 2.081 . S
O229 C237 1.331 . S
O230 Mg226 1.986 . S
O230 C247 1.307 . S
O231 Mg220 2.023 . S
O231 C246 1.264 . S
O232 Mg221 1.942 . S
O232 C237 1.244 . S
O233 Mg221 1.955 . S
O233 C246 1.273 . S
O234 Mg223 2.114 . S
O234 Mg225 2.291 . S
O234 C236 1.312 . S
O235 Mg220 2.031 . S
O235 C236 1.208 . S
C236 O234 1.312 . S
C236 O235 1.208 . S
C237 O229 1.331 . S
C237 O232 1.244 . S
O238 Mg223 2.013 . S
O238 C227 1.191 . S
O239 C218 1.331 . S
O239 Mg225 2.081 . S
O240 Mg221 1.986 . S
O240 C227 1.307 . S
O241 C219 1.264 . S
O241 Mg225 2.023 1_556 S
O242 C218 1.244 . S
O242 Mg226 1.942 . S
O243 C219 1.273 . S
O243 Mg226 1.955 1_556 S
O244 C217 1.312 . S
O244 Mg220 2.291 . S
O244 Mg223 2.114 . S
O245 C217 1.208 . S
O245 Mg225 2.031 . S
C246 O231 1.264 . S
C246 O233 1.273 . S
C247 O228 1.191 . S
C247 O230 1.307 . S
C248 O275 1.312 . S
C248 O276 1.208 . S
C249 O270 1.331 . S
C249 O273 1.244 . S
C250 O272 1.264 . S
C250 O274 1.273 . S
Mg251 O253 1.936 . S
Mg251 O260 2.081 . S
Mg251 O262 2.023 . S
Mg251 O266 2.031 . S
Mg251 O275 2.291 . S
Mg252 O253 1.963 . S
Mg252 O263 1.942 . S
Mg252 O264 1.955 . S
Mg252 O271 1.986 . S
O253 Mg251 1.936 . S
O253 Mg252 1.963 . S
O253 Mg254 1.915 . S
Mg254 O253 1.915 . S
Mg254 O255 1.915 . S
Mg254 O259 2.013 . S
Mg254 O265 2.114 . S
Mg254 O269 2.013 . S
Mg254 O275 2.114 . S
O255 Mg254 1.915 . S
O255 Mg256 1.936 1_554 S
O255 Mg257 1.963 . S
Mg256 O255 1.936 1_556 S
Mg256 O265 2.291 1_556 S
Mg256 O270 2.081 1_556 S
Mg256 O272 2.023 . S
Mg256 O276 2.031 1_556 S
Mg257 O255 1.963 . S
Mg257 O261 1.986 . S
Mg257 O273 1.942 . S
Mg257 O274 1.955 1_554 S
C258 O269 1.191 . S
C258 O271 1.307 . S
O259 Mg254 2.013 . S
O259 C278 1.191 . S
O260 Mg251 2.081 . S
O260 C268 1.331 . S
O261 Mg257 1.986 . S
O261 C278 1.307 . S
O262 Mg251 2.023 . S
O262 C277 1.264 . S
O263 Mg252 1.942 . S
O263 C268 1.244 . S
O264 Mg252 1.955 . S
O264 C277 1.273 . S
O265 Mg254 2.114 . S
O265 Mg256 2.291 1_554 S
O265 C267 1.312 1_554 S
O266 Mg251 2.031 . S
O266 C267 1.208 1_554 S
C267 O265 1.312 1_556 S
C267 O266 1.208 1_556 S
C268 O260 1.331 . S
C268 O263 1.244 . S
O269 Mg254 2.013 . S
O269 C258 1.191 . S
O270 C249 1.331 . S
O270 Mg256 2.081 1_554 S
O271 Mg252 1.986 . S
O271 C258 1.307 . S
O272 C250 1.264 . S
O272 Mg256 2.023 . S
O273 C249 1.244 . S
O273 Mg257 1.942 . S
O274 C250 1.273 . S
O274 Mg257 1.955 1_556 S
O275 C248 1.312 . S
O275 Mg251 2.291 . S
O275 Mg254 2.114 . S
O276 C248 1.208 . S
O276 Mg256 2.031 1_554 S
C277 O262 1.264 . S
C277 O264 1.273 . S
C278 O259 1.191 . S
C278 O261 1.307 . S
C279 O306 1.312 . S
C279 O307 1.208 . S
C280 O301 1.331 . S
C280 O304 1.244 . S
C281 O303 1.264 . S
C281 O305 1.273 . S
Mg282 O284 1.936 . S
Mg282 O291 2.081 . S
Mg282 O293 2.023 . S
Mg282 O297 2.031 . S
Mg282 O306 2.291 . S
Mg283 O284 1.963 . S
Mg283 O294 1.942 . S
Mg283 O295 1.955 . S
Mg283 O302 1.986 . S
O284 Mg282 1.936 . S
O284 Mg283 1.963 . S
O284 Mg285 1.915 . S
Mg285 O284 1.915 . S
Mg285 O286 1.915 . S
Mg285 O290 2.013 . S
Mg285 O296 2.114 . S
Mg285 O300 2.013 . S
Mg285 O306 2.114 . S
O286 Mg285 1.915 . S
O286 Mg287 1.936 . S
O286 Mg288 1.963 . S
Mg287 O286 1.936 . S
Mg287 O296 2.291 . S
Mg287 O301 2.081 . S
Mg287 O303 2.023 . S
Mg287 O307 2.031 . S
Mg288 O286 1.963 . S
Mg288 O292 1.986 . S
Mg288 O304 1.942 . S
Mg288 O305 1.955 . S
C289 O300 1.191 . S
C289 O302 1.307 . S
O290 Mg285 2.013 . S
O290 C309 1.191 . S
O291 Mg282 2.081 . S
O291 C299 1.331 . S
O292 Mg288 1.986 . S
O292 C309 1.307 . S
O293 Mg282 2.023 . S
O293 C308 1.264 . S
O294 Mg283 1.942 . S
O294 C299 1.244 . S
O295 Mg283 1.955 . S
O295 C308 1.273 . S
O296 Mg285 2.114 . S
O296 Mg287 2.291 . S
O296 C298 1.312 . S
O297 Mg282 2.031 . S
O297 C298 1.208 . S
C298 O296 1.312 . S
C298 O297 1.208 . S
C299 O291 1.331 . S
C299 O294 1.244 . S
O300 Mg285 2.013 . S
O300 C289 1.191 . S
O301 C280 1.331 . S
O301 Mg287 2.081 . S
O302 Mg283 1.986 . S
O302 C289 1.307 . S
O303 C281 1.264 . S
O303 Mg287 2.023 . S
O304 C280 1.244 . S
O304 Mg288 1.942 . S
O305 C281 1.273 . S
O305 Mg288 1.955 . S
O306 C279 1.312 . S
O306 Mg282 2.291 . S
O306 Mg285 2.114 . S
O307 C279 1.208 . S
O307 Mg287 2.031 . S
C308 O293 1.264 . S
C308 O295 1.273 . S
C309 O290 1.191 . S
C309 O292 1.307 . S
C310 O337 1.312 . S
C310 O338 1.208 . S
C311 O332 1.331 . S
C311 O335 1.244 . S
C312 O334 1.264 . S
C312 O336 1.273 . S
Mg313 O315 1.936 . S
Mg313 O322 2.081 . S
Mg313 O324 2.023 . S
Mg313 O328 2.031 . S
Mg313 O337 2.291 . S
Mg314 O315 1.963 . S
Mg314 O325 1.942 . S
Mg314 O326 1.955 . S
Mg314 O333 1.986 . S
O315 Mg313 1.936 . S
O315 Mg314 1.963 . S
O315 Mg316 1.915 . S
Mg316 O315 1.915 . S
Mg316 O317 1.915 . S
Mg316 O321 2.013 . S
Mg316 O327 2.114 . S
Mg316 O331 2.013 . S
Mg316 O337 2.114 . S
O317 Mg316 1.915 . S
O317 Mg318 1.936 . S
O317 Mg319 1.963 . S
Mg318 O317 1.936 . S
Mg318 O327 2.291 . S
Mg318 O332 2.081 . S
Mg318 O334 2.023 . S
Mg318 O338 2.031 . S
Mg319 O317 1.963 . S
Mg319 O323 1.986 . S
Mg319 O335 1.942 . S
Mg319 O336 1.955 . S
C320 O331 1.191 . S
C320 O333 1.307 . S
O321 Mg316 2.013 . S
O321 C340 1.191 . S
O322 Mg313 2.081 . S
O322 C330 1.331 . S
O323 Mg319 1.986 . S
O323 C340 1.307 . S
O324 Mg313 2.023 . S
O324 C339 1.264 . S
O325 Mg314 1.942 . S
O325 C330 1.244 . S
O326 Mg314 1.955 . S
O326 C339 1.273 . S
O327 Mg316 2.114 . S
O327 Mg318 2.291 . S
O327 C329 1.312 . S
O328 Mg313 2.031 . S
O328 C329 1.208 . S
C329 O327 1.312 . S
C329 O328 1.208 . S
C330 O322 1.331 . S
C330 O325 1.244 . S
O331 Mg316 2.013 . S
O331 C320 1.191 . S
O332 C311 1.331 . S
O332 Mg318 2.081 . S
O333 Mg314 1.986 . S
O333 C320 1.307 . S
O334 C312 1.264 . S
O334 Mg318 2.023 . S
O335 C311 1.244 . S
O335 Mg319 1.942 . S
O336 C312 1.273 . S
O336 Mg319 1.955 . S
O337 C310 1.312 . S
O337 Mg313 2.291 . S
O337 Mg316 2.114 . S
O338 C310 1.208 . S
O338 Mg318 2.031 . S
C339 O324 1.264 . S
C339 O326 1.273 . S
C340 O321 1.191 . S
C340 O323 1.307 . S
C341 O368 1.312 . S
C341 O369 1.208 . S
C342 O363 1.331 . S
C342 O366 1.244 . S
C343 O365 1.264 . S
C343 O367 1.273 . S
Mg344 O346 1.936 . S
Mg344 O353 2.081 . S
Mg344 O355 2.023 . S
Mg344 O359 2.031 . S
Mg344 O368 2.291 . S
Mg345 O346 1.963 . S
Mg345 O356 1.942 . S
Mg345 O357 1.955 . S
Mg345 O364 1.986 . S
O346 Mg344 1.936 . S
O346 Mg345 1.963 . S
O346 Mg347 1.915 . S
Mg347 O346 1.915 . S
Mg347 O348 1.915 . S
Mg347 O352 2.013 . S
Mg347 O358 2.114 . S
Mg347 O362 2.013 . S
Mg347 O368 2.114 . S
O348 Mg347 1.915 . S
O348 Mg349 1.936 . S
O348 Mg350 1.963 . S
Mg349 O348 1.936 . S
Mg349 O358 2.291 . S
Mg349 O363 2.081 . S
Mg349 O365 2.023 . S
Mg349 O369 2.031 . S
Mg350 O348 1.963 . S
Mg350 O354 1.986 . S
Mg350 O366 1.942 . S
Mg350 O367 1.955 . S
C351 O362 1.191 . S
C351 O364 1.307 . S
O352 Mg347 2.013 . S
O352 C371 1.191 . S
O353 Mg344 2.081 . S
O353 C361 1.331 . S
O354 Mg350 1.986 . S
O354 C371 1.307 . S
O355 Mg344 2.023 . S
O355 C370 1.264 . S
O356 Mg345 1.942 . S
O356 C361 1.244 . S
O357 Mg345 1.955 . S
O357 C370 1.273 . S
O358 Mg347 2.114 . S
O358 Mg349 2.291 . S
O358 C360 1.312 . S
O359 Mg344 2.031 . S
O359 C360 1.208 . S
C360 O358 1.312 . S
C360 O359 1.208 . S
C361 O353 1.331 . S
C361 O356 1.244 . S
O362 Mg347 2.013 . S
O362 C351 1.191 . S
O363 C342 1.331 . S
O363 Mg349 2.081 . S
O364 Mg345 1.986 . S
O364 C351 1.307 . S
O365 C343 1.264 . S
O365 Mg349 2.023 . S
O366 C342 1.244 . S
O366 Mg350 1.942 . S
O367 C343 1.273 . S
O367 Mg350 1.955 . S
O368 C341 1.312 . S
O368 Mg344 2.291 . S
O368 Mg347 2.114 . S
O369 C341 1.208 . S
O369 Mg349 2.031 . S
C370 O355 1.264 . S
C370 O357 1.273 . S
C371 O352 1.191 . S
C371 O354 1.307 . S
C372 O399 1.312 . S
C372 O400 1.208 . S
C373 O394 1.331 . S
C373 O397 1.244 . S
C374 O396 1.264 . S
C374 O398 1.273 . S
Mg375 O377 1.936 . S
Mg375 O384 2.081 . S
Mg375 O386 2.023 . S
Mg375 O390 2.031 . S
Mg375 O399 2.291 . S
Mg376 O377 1.963 . S
Mg376 O387 1.942 . S
Mg376 O388 1.955 . S
Mg376 O395 1.986 . S
O377 Mg375 1.936 . S
O377 Mg376 1.963 . S
O377 Mg378 1.915 . S
Mg378 O377 1.915 . S
Mg378 O379 1.915 . S
Mg378 O383 2.013 . S
Mg378 O389 2.114 . S
Mg378 O393 2.013 . S
Mg378 O399 2.114 . S
O379 Mg378 1.915 . S
O379 Mg380 1.936 . S
O379 Mg381 1.963 . S
Mg380 O379 1.936 . S
Mg380 O389 2.291 . S
Mg380 O394 2.081 . S
Mg380 O396 2.023 . S
Mg380 O400 2.031 . S
Mg381 O379 1.963 . S
Mg381 O385 1.986 . S
Mg381 O397 1.942 . S
Mg381 O398 1.955 . S
C382 O393 1.191 . S
C382 O395 1.307 . S
O383 Mg378 2.013 . S
O383 C402 1.191 . S
O384 Mg375 2.081 . S
O384 C392 1.331 . S
O385 Mg381 1.986 . S
O385 C402 1.307 . S
O386 Mg375 2.023 . S
O386 C401 1.264 . S
O387 Mg376 1.942 . S
O387 C392 1.244 . S
O388 Mg376 1.955 . S
O388 C401 1.273 . S
O389 Mg378 2.114 . S
O389 Mg380 2.291 . S
O389 C391 1.312 . S
O390 Mg375 2.031 . S
O390 C391 1.208 . S
C391 O389 1.312 . S
C391 O390 1.208 . S
C392 O384 1.331 . S
C392 O387 1.244 . S
O393 Mg378 2.013 . S
O393 C382 1.191 . S
O394 C373 1.331 . S
O394 Mg380 2.081 . S
O395 Mg376 1.986 . S
O395 C382 1.307 . S
O396 C374 1.264 . S
O396 Mg380 2.023 . S
O397 C373 1.244 . S
O397 Mg381 1.942 . S
O398 C374 1.273 . S
O398 Mg381 1.955 . S
O399 C372 1.312 . S
O399 Mg375 2.291 . S
O399 Mg378 2.114 . S
O400 C372 1.208 . S
O400 Mg380 2.031 . S
C401 O386 1.264 . S
C401 O388 1.273 . S
C402 O383 1.191 . S
C402 O385 1.307 . S
C403 O430 1.312 . S
C403 O431 1.208 . S
C404 O425 1.331 . S
C404 O428 1.244 . S
C405 O427 1.264 . S
C405 O429 1.273 . S
Mg406 O408 1.936 . S
Mg406 O415 2.081 . S
Mg406 O417 2.023 . S
Mg406 O421 2.031 . S
Mg406 O430 2.291 . S
Mg407 O408 1.963 . S
Mg407 O418 1.942 . S
Mg407 O419 1.955 . S
Mg407 O426 1.986 . S
O408 Mg406 1.936 . S
O408 Mg407 1.963 . S
O408 Mg409 1.915 . S
Mg409 O408 1.915 . S
Mg409 O410 1.915 . S
Mg409 O414 2.013 . S
Mg409 O420 2.114 . S
Mg409 O424 2.013 . S
Mg409 O430 2.114 . S
O410 Mg409 1.915 . S
O410 Mg411 1.936 . S
O410 Mg412 1.963 . S
Mg411 O410 1.936 . S
Mg411 O420 2.291 . S
Mg411 O425 2.081 . S
Mg411 O427 2.023 . S
Mg411 O431 2.031 . S
Mg412 O410 1.963 . S
Mg412 O416 1.986 . S
Mg412 O428 1.942 . S
Mg412 O429 1.955 . S
C413 O424 1.191 . S
C413 O426 1.307 . S
O414 Mg409 2.013 . S
O414 C433 1.191 . S
O415 Mg406 2.081 . S
O415 C423 1.331 . S
O416 Mg412 1.986 . S
O416 C433 1.307 . S
O417 Mg406 2.023 . S
O417 C432 1.264 . S
O418 Mg407 1.942 . S
O418 C423 1.244 . S
O419 Mg407 1.955 . S
O419 C432 1.273 . S
O420 Mg409 2.114 . S
O420 Mg411 2.291 . S
O420 C422 1.312 . S
O421 Mg406 2.031 . S
O421 C422 1.208 . S
C422 O420 1.312 . S
C422 O421 1.208 . S
C423 O415 1.331 . S
C423 O418 1.244 . S
O424 Mg409 2.013 . S
O424 C413 1.191 . S
O425 C404 1.331 . S
O425 Mg411 2.081 . S
O426 Mg407 1.986 . S
O426 C413 1.307 . S
O427 C405 1.264 . S
O427 Mg411 2.023 . S
O428 C404 1.244 . S
O428 Mg412 1.942 . S
O429 C405 1.273 . S
O429 Mg412 1.955 . S
O430 C403 1.312 . S
O430 Mg406 2.291 . S
O430 Mg409 2.114 . S
O431 C403 1.208 . S
O431 Mg411 2.031 . S
C432 O417 1.264 . S
C432 O419 1.273 . S
C433 O414 1.191 . S
C433 O416 1.307 . S
C434 O461 1.312 . S
C434 O462 1.208 . S
C435 O456 1.331 . S
C435 O459 1.244 . S
C436 O458 1.264 . S
C436 O460 1.273 . S
Mg437 O439 1.936 . S
Mg437 O446 2.081 . S
Mg437 O448 2.023 . S
Mg437 O452 2.031 . S
Mg437 O461 2.291 . S
Mg438 O439 1.963 . S
Mg438 O449 1.942 . S
Mg438 O450 1.955 . S
Mg438 O457 1.986 . S
O439 Mg437 1.936 . S
O439 Mg438 1.963 . S
O439 Mg440 1.915 . S
Mg440 O439 1.915 . S
Mg440 O441 1.915 . S
Mg440 O445 2.013 . S
Mg440 O451 2.114 . S
Mg440 O455 2.013 . S
Mg440 O461 2.114 . S
O441 Mg440 1.915 . S
O441 Mg442 1.936 . S
O441 Mg443 1.963 . S
Mg442 O441 1.936 . S
Mg442 O451 2.291 . S
Mg442 O456 2.081 . S
Mg442 O458 2.023 . S
Mg442 O462 2.031 . S
Mg443 O441 1.963 . S
Mg443 O447 1.986 . S
Mg443 O459 1.942 . S
Mg443 O460 1.955 . S
C444 O455 1.191 . S
C444 O457 1.307 . S
O445 Mg440 2.013 . S
O445 C464 1.191 . S
O446 Mg437 2.081 . S
O446 C454 1.331 . S
O447 Mg443 1.986 . S
O447 C464 1.307 . S
O448 Mg437 2.023 . S
O448 C463 1.264 . S
O449 Mg438 1.942 . S
O449 C454 1.244 . S
O450 Mg438 1.955 . S
O450 C463 1.273 . S
O451 Mg440 2.114 . S
O451 Mg442 2.291 . S
O451 C453 1.312 . S
O452 Mg437 2.031 . S
O452 C453 1.208 . S
C453 O451 1.312 . S
C453 O452 1.208 . S
C454 O446 1.331 . S
C454 O449 1.244 . S
O455 Mg440 2.013 . S
O455 C444 1.191 . S
O456 C435 1.331 . S
O456 Mg442 2.081 . S
O457 Mg438 1.986 . S
O457 C444 1.307 . S
O458 C436 1.264 . S
O458 Mg442 2.023 . S
O459 C435 1.244 . S
O459 Mg443 1.942 . S
O460 C436 1.273 . S
O460 Mg443 1.955 . S
O461 C434 1.312 . S
O461 Mg437 2.291 . S
O461 Mg440 2.114 . S
O462 C434 1.208 . S
O462 Mg442 2.031 . S
C463 O448 1.264 . S
C463 O450 1.273 . S
C464 O445 1.191 . S
C464 O447 1.307 . S
C465 O492 1.312 1_554 S
C465 O493 1.208 1_554 S
C466 O487 1.331 . S
C466 O490 1.244 . S
C467 O489 1.264 . S
C467 O491 1.273 . S
Mg468 O470 1.936 1_554 S
Mg468 O477 2.081 1_554 S
Mg468 O479 2.023 . S
Mg468 O483 2.031 1_554 S
Mg468 O492 2.291 1_554 S
Mg469 O470 1.963 . S
Mg469 O480 1.942 . S
Mg469 O481 1.955 1_556 S
Mg469 O488 1.986 . S
O470 Mg468 1.936 1_556 S
O470 Mg469 1.963 . S
O470 Mg471 1.915 . S
Mg471 O470 1.915 . S
Mg471 O472 1.915 . S
Mg471 O476 2.013 . S
Mg471 O482 2.114 . S
Mg471 O486 2.013 . S
Mg471 O492 2.114 . S
O472 Mg471 1.915 . S
O472 Mg473 1.936 . S
O472 Mg474 1.963 . S
Mg473 O472 1.936 . S
Mg473 O482 2.291 . S
Mg473 O487 2.081 . S
Mg473 O489 2.023 . S
Mg473 O493 2.031 . S
Mg474 O472 1.963 . S
Mg474 O478 1.986 . S
Mg474 O490 1.942 . S
Mg474 O491 1.955 . S
C475 O486 1.191 . S
C475 O488 1.307 . S
O476 Mg471 2.013 . S
O476 C495 1.191 . S
O477 Mg468 2.081 1_556 S
O477 C485 1.331 . S
O478 Mg474 1.986 . S
O478 C495 1.307 . S
O479 Mg468 2.023 . S
O479 C494 1.264 . S
O480 Mg469 1.942 . S
O480 C485 1.244 . S
O481 Mg469 1.955 1_554 S
O481 C494 1.273 . S
O482 Mg471 2.114 . S
O482 Mg473 2.291 . S
O482 C484 1.312 . S
O483 Mg468 2.031 1_556 S
O483 C484 1.208 . S
C484 O482 1.312 . S
C484 O483 1.208 . S
C485 O477 1.331 . S
C485 O480 1.244 . S
O486 Mg471 2.013 . S
O486 C475 1.191 . S
O487 C466 1.331 . S
O487 Mg473 2.081 . S
O488 Mg469 1.986 . S
O488 C475 1.307 . S
O489 C467 1.264 . S
O489 Mg473 2.023 . S
O490 C466 1.244 . S
O490 Mg474 1.942 . S
O491 C467 1.273 . S
O491 Mg474 1.955 . S
O492 C465 1.312 1_556 S
O492 Mg468 2.291 1_556 S
O492 Mg471 2.114 . S
O493 C465 1.208 1_556 S
O493 Mg473 2.031 . S
C494 O479 1.264 . S
C494 O481 1.273 . S
C495 O476 1.191 . S
C495 O478 1.307 . S
C496 O523 1.312 . S
C496 O524 1.208 . S
C497 O518 1.331 . S
C497 O521 1.244 . S
C498 O520 1.264 . S
C498 O522 1.273 . S
Mg499 O501 1.936 . S
Mg499 O508 2.081 . S
Mg499 O510 2.023 . S
Mg499 O514 2.031 . S
Mg499 O523 2.291 . S
Mg500 O501 1.963 . S
Mg500 O511 1.942 . S
Mg500 O512 1.955 . S
Mg500 O519 1.986 . S
O501 Mg499 1.936 . S
O501 Mg500 1.963 . S
O501 Mg502 1.915 . S
Mg502 O501 1.915 . S
Mg502 O503 1.915 . S
Mg502 O507 2.013 . S
Mg502 O513 2.114 . S
Mg502 O517 2.000 1_556 S
Mg502 O523 2.114 . S
O503 Mg502 1.915 . S
O503 Mg504 1.936 . S
O503 Mg505 1.963 1_556 S
Mg504 O503 1.936 . S
Mg504 O513 2.291 . S
Mg504 O518 2.081 . S
Mg504 O520 2.023 1_556 S
Mg504 O524 2.031 . S
Mg505 O503 1.963 1_554 S
Mg505 O509 1.986 1_554 S
Mg505 O521 1.942 1_554 S
Mg505 O522 1.955 . S
C506 O517 1.195 . S
C506 O519 1.307 1_554 S
O507 Mg502 2.013 . S
O507 C526 1.191 . S
O508 Mg499 2.081 . S
O508 C516 1.331 . S
O509 Mg505 1.986 1_556 S
O509 C526 1.307 . S
O510 Mg499 2.023 . S
O510 C525 1.264 . S
O511 Mg500 1.942 . S
O511 C516 1.244 . S
O512 Mg500 1.955 . S
O512 C525 1.273 . S
O513 Mg502 2.114 . S
O513 Mg504 2.291 . S
O513 C515 1.312 . S
O514 Mg499 2.031 . S
O514 C515 1.208 . S
C515 O513 1.312 . S
C515 O514 1.208 . S
C516 O508 1.331 . S
C516 O511 1.244 . S
O517 Mg502 2.000 1_554 S
O517 C506 1.195 . S
O518 C497 1.331 . S
O518 Mg504 2.081 . S
O519 Mg500 1.986 . S
O519 C506 1.307 1_556 S
O520 C498 1.264 . S
O520 Mg504 2.023 1_554 S
O521 C497 1.244 . S
O521 Mg505 1.942 1_556 S
O522 C498 1.273 . S
O522 Mg505 1.955 . S
O523 C496 1.312 . S
O523 Mg499 2.291 . S
O523 Mg502 2.114 . S
O524 C496 1.208 . S
O524 Mg504 2.031 . S
C525 O510 1.264 . S
C525 O512 1.273 . S
C526 O507 1.191 . S
C526 O509 1.307 . S
C527 O554 1.312 . S
C527 O555 1.208 . S
C528 O549 1.331 . S
C528 O552 1.244 . S
C529 O551 1.264 . S
C529 O553 1.273 . S
Mg530 O532 1.936 . S
Mg530 O539 2.081 . S
Mg530 O541 2.023 . S
Mg530 O545 2.031 . S
Mg530 O554 2.291 . S
Mg531 O532 1.963 . S
Mg531 O542 1.942 . S
Mg531 O543 1.955 . S
Mg531 O550 1.986 . S
O532 Mg530 1.936 . S
O532 Mg531 1.963 . S
O532 Mg533 1.915 . S
Mg533 O532 1.915 . S
Mg533 O534 1.915 . S
Mg533 O538 2.013 . S
Mg533 O544 2.114 . S
Mg533 O548 2.013 . S
Mg533 O554 2.114 . S
O534 Mg533 1.915 . S
O534 Mg535 1.936 1_556 S
O534 Mg536 1.963 . S
Mg535 O534 1.936 1_554 S
Mg535 O544 2.291 1_554 S
Mg535 O549 2.081 1_554 S
Mg535 O551 2.023 . S
Mg535 O555 2.031 1_554 S
Mg536 O534 1.963 . S
Mg536 O540 1.986 . S
Mg536 O552 1.942 . S
Mg536 O553 1.955 1_556 S
C537 O548 1.191 . S
C537 O550 1.307 . S
O538 Mg533 2.013 . S
O538 C557 1.191 . S
O539 Mg530 2.081 . S
O539 C547 1.331 . S
O540 Mg536 1.986 . S
O540 C557 1.307 . S
O541 Mg530 2.023 . S
O541 C556 1.264 . S
O542 Mg531 1.942 . S
O542 C547 1.244 . S
O543 Mg531 1.955 . S
O543 C556 1.273 . S
O544 Mg533 2.114 . S
O544 Mg535 2.291 1_556 S
O544 C546 1.312 1_556 S
O545 Mg530 2.031 . S
O545 C546 1.208 1_556 S
C546 O544 1.312 1_554 S
C546 O545 1.208 1_554 S
C547 O539 1.331 . S
C547 O542 1.244 . S
O548 Mg533 2.013 . S
O548 C537 1.191 . S
O549 C528 1.331 . S
O549 Mg535 2.081 1_556 S
O550 Mg531 1.986 . S
O550 C537 1.307 . S
O551 C529 1.264 . S
O551 Mg535 2.023 . S
O552 C528 1.244 . S
O552 Mg536 1.942 . S
O553 C529 1.273 . S
O553 Mg536 1.955 1_554 S
O554 C527 1.312 . S
O554 Mg530 2.291 . S
O554 Mg533 2.114 . S
O555 C527 1.208 . S
O555 Mg535 2.031 1_556 S
C556 O541 1.264 . S
C556 O543 1.273 . S
C557 O538 1.191 . S
C557 O540 1.307 . S
H558 C564 0.930 . S
H559 C567 0.930 . S
H560 C568 0.930 . S
H561 C569 0.930 . S
H562 C572 0.930 . S
H563 C573 0.930 . S
C564 H558 0.930 . S
C564 C565 1.355 . S
C564 C566 1.415 . S
C565 C564 1.355 . S
C565 C567 1.419 . S
C566 C564 1.415 . S
C566 C571 1.425 . S
C566 C573 1.409 . S
C567 H559 0.930 . S
C567 C565 1.419 . S
C567 C568 1.362 . S
C568 H560 0.930 . S
C568 C567 1.362 . S
C568 C571 1.409 . S
C569 H561 0.930 . S
C569 C570 1.355 . S
C569 C571 1.415 . S
C570 C569 1.355 . S
C570 C572 1.419 . S
C571 C566 1.425 . S
C571 C568 1.409 . S
C571 C569 1.415 . S
C572 H562 0.930 . S
C572 C570 1.419 . S
C572 C573 1.362 . S
C573 H563 0.930 . S
C573 C566 1.409 . S
C573 C572 1.362 . S
H574 C580 0.930 . S
H575 C583 0.930 . S
H576 C584 0.930 . S
H577 C585 0.930 . S
H578 C588 0.930 . S
H579 C589 0.930 . S
C580 H574 0.930 . S
C580 C581 1.355 . S
C580 C582 1.415 . S
C581 C580 1.355 . S
C581 C583 1.419 . S
C582 C580 1.415 . S
C582 C587 1.425 . S
C582 C589 1.409 . S
C583 H575 0.930 . S
C583 C581 1.419 . S
C583 C584 1.362 . S
C584 H576 0.930 . S
C584 C583 1.362 . S
C584 C587 1.409 . S
C585 H577 0.930 . S
C585 C586 1.355 . S
C585 C587 1.415 1_565 S
C586 C585 1.355 . S
C586 C588 1.419 . S
C587 C582 1.425 . S
C587 C584 1.409 . S
C587 C585 1.415 1_545 S
C588 H578 0.930 . S
C588 C586 1.419 . S
C588 C589 1.362 1_565 S
C589 H579 0.930 . S
C589 C582 1.409 . S
C589 C588 1.362 1_545 S
H590 C596 0.930 . S
H591 C599 0.930 . S
H592 C600 0.930 . S
H593 C601 0.930 1_545 S
H594 C604 0.930 . S
H595 C605 0.930 . S
C596 H590 0.930 . S
C596 C597 1.355 . S
C596 C598 1.415 . S
C597 C596 1.355 . S
C597 C599 1.419 . S
C598 C596 1.415 . S
C598 C603 1.425 . S
C598 C605 1.409 . S
C599 H591 0.930 . S
C599 C597 1.419 . S
C599 C600 1.362 . S
C600 H592 0.930 . S
C600 C599 1.362 . S
C600 C603 1.409 . S
C601 H593 0.930 1_565 S
C601 C602 1.355 . S
C601 C603 1.415 . S
C602 C601 1.355 . S
C602 C604 1.419 . S
C603 C598 1.425 . S
C603 C600 1.409 . S
C603 C601 1.415 . S
C604 H594 0.930 . S
C604 C602 1.419 . S
C604 C605 1.362 . S
C605 H595 0.930 . S
C605 C598 1.409 . S
C605 C604 1.362 . S
H606 C612 0.930 . S
H607 C615 0.930 . S
H608 C616 0.930 . S
H609 C617 0.930 . S
H610 C620 0.930 . S
H611 C621 0.930 . S
C612 H606 0.930 . S
C612 C613 1.355 . S
C612 C614 1.415 . S
C613 C612 1.355 . S
C613 C615 1.419 . S
C614 C612 1.415 . S
C614 C619 1.425 . S
C614 C621 1.409 . S
C615 H607 0.930 . S
C615 C613 1.419 . S
C615 C616 1.362 . S
C616 H608 0.930 . S
C616 C615 1.362 . S
C616 C619 1.409 . S
C617 H609 0.930 . S
C617 C618 1.355 . S
C617 C619 1.415 . S
C618 C617 1.355 . S
C618 C620 1.419 . S
C619 C614 1.425 . S
C619 C616 1.409 . S
C619 C617 1.415 . S
C620 H610 0.930 . S
C620 C618 1.419 . S
C620 C621 1.362 . S
C621 H611 0.930 . S
C621 C614 1.409 . S
C621 C620 1.362 . S
H622 C628 0.930 . S
H623 C631 0.930 . S
H624 C632 0.930 . S
H625 C633 0.930 . S
H626 C636 0.930 . S
H627 C637 0.930 . S
C628 H622 0.930 . S
C628 C629 1.355 . S
C628 C630 1.415 . S
C629 C628 1.355 . S
C629 C631 1.419 . S
C630 C628 1.415 . S
C630 C635 1.425 . S
C630 C637 1.409 . S
C631 H623 0.930 . S
C631 C629 1.419 . S
C631 C632 1.362 . S
C632 H624 0.930 . S
C632 C631 1.362 . S
C632 C635 1.409 . S
C633 H625 0.930 . S
C633 C634 1.355 . S
C633 C635 1.415 1_565 S
C634 C633 1.355 . S
C634 C636 1.419 . S
C635 C630 1.425 . S
C635 C632 1.409 . S
C635 C633 1.415 1_545 S
C636 H626 0.930 . S
C636 C634 1.419 . S
C636 C637 1.362 1_565 S
C637 H627 0.930 . S
C637 C630 1.409 . S
C637 C636 1.362 1_545 S
H638 C644 0.930 . S
H639 C647 0.930 . S
H640 C648 0.930 . S
H641 C649 0.930 . S
H642 C652 0.930 . S
H643 C653 0.930 . S
C644 H638 0.930 . S
C644 C645 1.355 . S
C644 C646 1.415 . S
C645 C644 1.355 . S
C645 C647 1.419 . S
C646 C644 1.415 . S
C646 C651 1.425 1_455 S
C646 C653 1.409 1_455 S
C647 H639 0.930 . S
C647 C645 1.419 . S
C647 C648 1.362 . S
C648 H640 0.930 . S
C648 C647 1.362 . S
C648 C651 1.409 1_455 S
C649 H641 0.930 . S
C649 C650 1.355 . S
C649 C651 1.415 . S
C650 C649 1.355 . S
C650 C652 1.419 . S
C651 C646 1.425 1_655 S
C651 C648 1.409 1_655 S
C651 C649 1.415 . S
C652 H642 0.930 . S
C652 C650 1.419 . S
C652 C653 1.362 . S
C653 H643 0.930 . S
C653 C646 1.409 1_655 S
C653 C652 1.362 . S
H654 C660 0.930 . S
H655 C663 0.930 . S
H656 C664 0.930 . S
H657 C665 0.930 . S
H658 C668 0.930 . S
H659 C669 0.930 . S
C660 H654 0.930 . S
C660 C661 1.355 . S
C660 C662 1.415 . S
C661 C660 1.355 . S
C661 C663 1.419 . S
C662 C660 1.415 . S
C662 C667 1.425 . S
C662 C669 1.409 . S
C663 H655 0.930 . S
C663 C661 1.419 . S
C663 C664 1.362 . S
C664 H656 0.930 . S
C664 C663 1.362 . S
C664 C667 1.409 . S
C665 H657 0.930 . S
C665 C666 1.355 . S
C665 C667 1.415 . S
C666 C665 1.355 . S
C666 C668 1.419 . S
C667 C662 1.425 . S
C667 C664 1.409 . S
C667 C665 1.415 . S
C668 H658 0.930 . S
C668 C666 1.419 . S
C668 C669 1.362 . S
C669 H659 0.930 . S
C669 C662 1.409 . S
C669 C668 1.362 . S
H670 C676 0.930 . S
H671 C679 0.930 . S
H672 C680 0.930 . S
H673 C681 0.930 . S
H674 C684 0.930 . S
H675 C685 0.930 . S
C676 H670 0.930 . S
C676 C677 1.355 . S
C676 C678 1.415 . S
C677 C676 1.355 . S
C677 C679 1.419 . S
C678 C676 1.415 . S
C678 C683 1.425 . S
C678 C685 1.409 . S
C679 H671 0.930 . S
C679 C677 1.419 . S
C679 C680 1.362 . S
C680 H672 0.930 . S
C680 C679 1.362 . S
C680 C683 1.409 . S
C681 H673 0.930 . S
C681 C682 1.355 . S
C681 C683 1.415 . S
C682 C681 1.355 . S
C682 C684 1.419 . S
C683 C678 1.425 . S
C683 C680 1.409 . S
C683 C681 1.415 . S
C684 H674 0.930 . S
C684 C682 1.419 . S
C684 C685 1.362 . S
C685 H675 0.930 . S
C685 C678 1.409 . S
C685 C684 1.362 . S
H686 C692 0.930 . S
H687 C695 0.930 1_556 S
H688 C696 0.930 . S
H689 C697 0.930 . S
H690 C700 0.930 . S
H691 C701 0.930 . S
C692 H686 0.930 . S
C692 C693 1.355 . S
C692 C694 1.415 . S
C693 C692 1.355 . S
C693 C695 1.419 . S
C694 C692 1.415 . S
C694 C699 1.425 . S
C694 C701 1.409 . S
C695 H687 0.930 1_554 S
C695 C693 1.419 . S
C695 C696 1.362 . S
C696 H688 0.930 . S
C696 C695 1.362 . S
C696 C699 1.409 . S
C697 H689 0.930 . S
C697 C698 1.355 . S
C697 C699 1.415 . S
C698 C697 1.355 . S
C698 C700 1.419 . S
C699 C694 1.425 . S
C699 C696 1.409 . S
C699 C697 1.415 . S
C700 H690 0.930 . S
C700 C698 1.419 . S
C700 C701 1.362 . S
C701 H691 0.930 . S
C701 C694 1.409 . S
C701 C700 1.362 . S
H702 C708 0.930 . S
H703 C711 0.930 . S
H704 C712 0.930 . S
H705 C713 0.930 . S
H706 C716 0.930 . S
H707 C717 0.930 . S
C708 H702 0.930 . S
C708 C709 1.355 . S
C708 C710 1.415 . S
C709 C708 1.355 . S
C709 C711 1.419 . S
C710 C708 1.415 . S
C710 C715 1.425 . S
C710 C717 1.409 . S
C711 H703 0.930 . S
C711 C709 1.419 . S
C711 C712 1.362 . S
C712 H704 0.930 . S
C712 C711 1.362 . S
C712 C715 1.409 . S
C713 H705 0.930 . S
C713 C714 1.355 . S
C713 C715 1.415 . S
C714 C713 1.355 . S
C714 C716 1.419 . S
C715 C710 1.425 . S
C715 C712 1.409 . S
C715 C713 1.415 . S
C716 H706 0.930 . S
C716 C714 1.419 . S
C716 C717 1.362 . S
C717 H707 0.930 . S
C717 C710 1.409 . S
C717 C716 1.362 . S
H718 C724 0.930 . S
H719 C727 0.930 . S
H720 C728 0.930 . S
H721 C729 0.930 . S
H722 C732 0.930 . S
H723 C733 0.930 . S
C724 H718 0.930 . S
C724 C725 1.355 . S
C724 C726 1.415 . S
C725 C724 1.355 . S
C725 C727 1.419 . S
C726 C724 1.415 . S
C726 C731 1.425 . S
C726 C733 1.409 . S
C727 H719 0.930 . S
C727 C725 1.419 . S
C727 C728 1.362 . S
C728 H720 0.930 . S
C728 C727 1.362 . S
C728 C731 1.409 . S
C729 H721 0.930 . S
C729 C730 1.355 . S
C729 C731 1.415 . S
C730 C729 1.355 . S
C730 C732 1.419 . S
C731 C726 1.425 . S
C731 C728 1.409 . S
C731 C729 1.415 . S
C732 H722 0.930 . S
C732 C730 1.419 . S
C732 C733 1.362 . S
C733 H723 0.930 . S
C733 C726 1.409 . S
C733 C732 1.362 . S
H734 C740 0.930 . S
H735 C743 0.930 . S
H736 C744 0.930 . S
H737 C745 0.930 . S
H738 C748 0.930 . S
H739 C749 0.930 . S
C740 H734 0.930 . S
C740 C741 1.355 . S
C740 C742 1.415 . S
C741 C740 1.355 . S
C741 C743 1.419 . S
C742 C740 1.415 . S
C742 C747 1.425 . S
C742 C749 1.409 . S
C743 H735 0.930 . S
C743 C741 1.419 . S
C743 C744 1.362 . S
C744 H736 0.930 . S
C744 C743 1.362 . S
C744 C747 1.409 . S
C745 H737 0.930 . S
C745 C746 1.355 . S
C745 C747 1.415 . S
C746 C745 1.355 . S
C746 C748 1.419 . S
C747 C742 1.425 . S
C747 C744 1.409 . S
C747 C745 1.415 . S
C748 H738 0.930 . S
C748 C746 1.419 . S
C748 C749 1.362 . S
C749 H739 0.930 . S
C749 C742 1.409 . S
C749 C748 1.362 . S
H750 C756 0.930 . S
H751 C759 0.930 . S
H752 C760 0.930 . S
H753 C761 0.930 . S
H754 C764 0.930 . S
H755 C765 0.930 . S
C756 H750 0.930 . S
C756 C757 1.355 . S
C756 C758 1.415 . S
C757 C756 1.355 . S
C757 C759 1.419 . S
C758 C756 1.415 . S
C758 C763 1.425 . S
C758 C765 1.409 . S
C759 H751 0.930 . S
C759 C757 1.419 . S
C759 C760 1.362 . S
C760 H752 0.930 . S
C760 C759 1.362 . S
C760 C763 1.409 . S
C761 H753 0.930 . S
C761 C762 1.355 . S
C761 C763 1.415 . S
C762 C761 1.355 . S
C762 C764 1.419 . S
C763 C758 1.425 . S
C763 C760 1.409 . S
C763 C761 1.415 . S
C764 H754 0.930 . S
C764 C762 1.419 . S
C764 C765 1.362 . S
C765 H755 0.930 . S
C765 C758 1.409 . S
C765 C764 1.362 . S
H766 C772 0.930 . S
H767 C775 0.930 . S
H768 C776 0.930 . S
H769 C777 0.930 . S
H770 C780 0.930 . S
H771 C781 0.930 . S
C772 H766 0.930 . S
C772 C773 1.355 . S
C772 C774 1.415 . S
C773 C772 1.355 . S
C773 C775 1.419 . S
C774 C772 1.415 . S
C774 C779 1.425 . S
C774 C781 1.409 . S
C775 H767 0.930 . S
C775 C773 1.419 . S
C775 C776 1.362 . S
C776 H768 0.930 . S
C776 C775 1.362 . S
C776 C779 1.409 . S
C777 H769 0.930 . S
C777 C778 1.355 . S
C777 C779 1.415 . S
C778 C777 1.355 . S
C778 C780 1.419 . S
C779 C774 1.425 . S
C779 C776 1.409 . S
C779 C777 1.415 . S
C780 H770 0.930 . S
C780 C778 1.419 . S
C780 C781 1.362 . S
C781 H771 0.930 . S
C781 C774 1.409 . S
C781 C780 1.362 . S
H782 C788 0.930 . S
H783 C791 0.930 . S
H784 C792 0.930 . S
H785 C793 0.930 . S
H786 C796 0.930 . S
H787 C797 0.930 . S
C788 H782 0.930 . S
C788 C789 1.355 . S
C788 C790 1.415 . S
C789 C788 1.355 . S
C789 C791 1.419 . S
C790 C788 1.415 . S
C790 C795 1.425 . S
C790 C797 1.409 . S
C791 H783 0.930 . S
C791 C789 1.419 . S
C791 C792 1.362 . S
C792 H784 0.930 . S
C792 C791 1.362 . S
C792 C795 1.409 . S
C793 H785 0.930 . S
C793 C794 1.355 . S
C793 C795 1.415 . S
C794 C793 1.355 . S
C794 C796 1.419 . S
C795 C790 1.425 . S
C795 C792 1.409 . S
C795 C793 1.415 . S
C796 H786 0.930 . S
C796 C794 1.419 . S
C796 C797 1.362 . S
C797 H787 0.930 . S
C797 C790 1.409 . S
C797 C796 1.362 . S
H798 C804 0.930 . S
H799 C807 0.930 . S
H800 C808 0.930 . S
H801 C809 0.930 . S
H802 C812 0.930 . S
H803 C813 0.930 . S
C804 H798 0.930 . S
C804 C805 1.355 . S
C804 C806 1.415 . S
C805 C804 1.355 . S
C805 C807 1.419 . S
C806 C804 1.415 . S
C806 C811 1.425 . S
C806 C813 1.409 . S
C807 H799 0.930 . S
C807 C805 1.419 . S
C807 C808 1.362 . S
C808 H800 0.930 . S
C808 C807 1.362 . S
C808 C811 1.409 . S
C809 H801 0.930 . S
C809 C810 1.355 . S
C809 C811 1.415 . S
C810 C809 1.355 . S
C810 C812 1.419 . S
C811 C806 1.425 . S
C811 C808 1.409 . S
C811 C809 1.415 . S
C812 H802 0.930 . S
C812 C810 1.419 . S
C812 C813 1.362 . S
C813 H803 0.930 . S
C813 C806 1.409 . S
C813 C812 1.362 . S
H814 C820 0.930 . S
H815 C823 0.930 . S
H816 C824 0.930 1_554 S
H817 C825 0.930 . S
H818 C828 0.930 . S
H819 C829 0.930 . S
C820 H814 0.930 . S
C820 C821 1.355 . S
C820 C822 1.415 . S
C821 C820 1.355 . S
C821 C823 1.419 . S
C822 C820 1.415 . S
C822 C827 1.425 . S
C822 C829 1.409 . S
C823 H815 0.930 . S
C823 C821 1.419 . S
C823 C824 1.362 . S
C824 H816 0.930 1_556 S
C824 C823 1.362 . S
C824 C827 1.409 . S
C825 H817 0.930 . S
C825 C826 1.355 . S
C825 C827 1.415 . S
C826 C825 1.355 . S
C826 C828 1.419 . S
C827 C822 1.425 . S
C827 C824 1.409 . S
C827 C825 1.415 . S
C828 H818 0.930 . S
C828 C826 1.419 . S
C828 C829 1.362 . S
C829 H819 0.930 . S
C829 C822 1.409 . S
C829 C828 1.362 . S
H830 C836 0.930 . S
H831 C839 0.930 . S
H832 C840 0.930 . S
H833 C841 0.930 . S
H834 C844 0.930 . S
H835 C845 0.930 . S
C836 H830 0.930 . S
C836 C837 1.355 . S
C836 C838 1.415 . S
C837 C836 1.355 . S
C837 C839 1.419 . S
C838 C836 1.415 . S
C838 C843 1.425 . S
C838 C845 1.409 . S
C839 H831 0.930 . S
C839 C837 1.419 . S
C839 C840 1.362 . S
C840 H832 0.930 . S
C840 C839 1.362 . S
C840 C843 1.409 . S
C841 H833 0.930 . S
C841 C842 1.355 . S
C841 C843 1.415 . S
C842 C841 1.355 . S
C842 C844 1.419 . S
C843 C838 1.425 . S
C843 C840 1.409 . S
C843 C841 1.415 . S
C844 H834 0.930 . S
C844 C842 1.419 . S
C844 C845 1.362 . S
C845 H835 0.930 . S
C845 C838 1.409 . S
C845 C844 1.362 . S
H846 C852 0.930 . S
H847 C855 0.930 . S
H848 C856 0.930 . S
H849 C857 0.930 . S
H850 C860 0.930 . S
H851 C861 0.930 . S
C852 H846 0.930 . S
C852 C853 1.355 . S
C852 C854 1.415 . S
C853 C852 1.355 . S
C853 C855 1.419 . S
C854 C852 1.415 . S
C854 C859 1.425 . S
C854 C861 1.409 . S
C855 H847 0.930 . S
C855 C853 1.419 . S
C855 C856 1.362 . S
C856 H848 0.930 . S
C856 C855 1.362 . S
C856 C859 1.409 . S
C857 H849 0.930 . S
C857 C858 1.355 . S
C857 C859 1.415 . S
C858 C857 1.355 . S
C858 C860 1.419 . S
C859 C854 1.425 . S
C859 C856 1.409 . S
C859 C857 1.415 . S
C860 H850 0.930 . S
C860 C858 1.419 . S
C860 C861 1.362 . S
C861 H851 0.930 . S
C861 C854 1.409 . S
C861 C860 1.362 . S
H862 C868 0.930 . S
H863 C871 0.930 . S
H864 C872 0.930 . S
H865 C873 0.930 . S
H866 C876 0.930 . S
H867 C877 0.930 . S
C868 H862 0.930 . S
C868 C869 1.355 . S
C868 C870 1.415 . S
C869 C868 1.355 . S
C869 C871 1.419 . S
C870 C868 1.415 . S
C870 C875 1.425 . S
C870 C877 1.409 . S
C871 H863 0.930 . S
C871 C869 1.419 . S
C871 C872 1.362 . S
C872 H864 0.930 . S
C872 C871 1.362 . S
C872 C875 1.409 . S
C873 H865 0.930 . S
C873 C874 1.355 . S
C873 C875 1.415 . S
C874 C873 1.355 . S
C874 C876 1.419 . S
C875 C870 1.425 . S
C875 C872 1.409 . S
C875 C873 1.415 . S
C876 H866 0.930 . S
C876 C874 1.419 . S
C876 C877 1.362 . S
C877 H867 0.930 . S
C877 C870 1.409 . S
C877 C876 1.362 . S
H878 C884 0.930 . S
H879 C887 0.930 . S
H880 C888 0.930 . S
H881 C889 0.930 . S
H882 C892 0.930 . S
H883 C893 0.930 . S
C884 H878 0.930 . S
C884 C885 1.355 . S
C884 C886 1.415 . S
C885 C884 1.355 . S
C885 C887 1.419 . S
C886 C884 1.415 . S
C886 C891 1.425 . S
C886 C893 1.409 . S
C887 H879 0.930 . S
C887 C885 1.419 . S
C887 C888 1.362 . S
C888 H880 0.930 . S
C888 C887 1.362 . S
C888 C891 1.409 . S
C889 H881 0.930 . S
C889 C890 1.355 . S
C889 C891 1.415 . S
C890 C889 1.355 . S
C890 C892 1.419 . S
C891 C886 1.425 . S
C891 C888 1.409 . S
C891 C889 1.415 . S
C892 H882 0.930 . S
C892 C890 1.419 . S
C892 C893 1.362 . S
C893 H883 0.930 . S
C893 C886 1.409 . S
C893 C892 1.362 . S
H894 C900 0.930 . S
H895 C903 0.930 . S
H896 C904 0.930 1_554 S
H897 C905 0.930 . S
H898 C908 0.930 . S
H899 C909 0.930 . S
C900 H894 0.930 . S
C900 C901 1.355 . S
C900 C902 1.415 . S
C901 C900 1.355 . S
C901 C903 1.419 . S
C902 C900 1.415 . S
C902 C907 1.425 . S
C902 C909 1.409 . S
C903 H895 0.930 . S
C903 C901 1.419 . S
C903 C904 1.362 . S
C904 H896 0.930 1_556 S
C904 C903 1.362 . S
C904 C907 1.409 . S
C905 H897 0.930 . S
C905 C906 1.355 . S
C905 C907 1.415 1_554 S
C906 C905 1.355 . S
C906 C908 1.419 1_554 S
C907 C902 1.425 . S
C907 C904 1.409 . S
C907 C905 1.415 1_556 S
C908 H898 0.930 . S
C908 C906 1.419 1_556 S
C908 C909 1.362 . S
C909 H899 0.930 . S
C909 C902 1.409 . S
C909 C908 1.362 . S
H910 C916 0.930 . S
H911 C919 0.930 . S
H912 C920 0.930 . S
H913 C921 0.930 . S
H914 C924 0.930 . S
H915 C925 0.930 . S
C916 H910 0.930 . S
C916 C917 1.355 1_556 S
C916 C918 1.415 . S
C917 C916 1.355 1_554 S
C917 C919 1.419 . S
C918 C916 1.415 . S
C918 C923 1.425 . S
C918 C925 1.409 . S
C919 H911 0.930 . S
C919 C917 1.419 . S
C919 C920 1.362 . S
C920 H912 0.930 . S
C920 C919 1.362 . S
C920 C923 1.409 1_554 S
C921 H913 0.930 . S
C921 C922 1.355 . S
C921 C923 1.415 . S
C922 C921 1.355 . S
C922 C924 1.419 . S
C923 C918 1.425 . S
C923 C920 1.409 1_556 S
C923 C921 1.415 . S
C924 H914 0.930 . S
C924 C922 1.419 . S
C924 C925 1.362 . S
C925 H915 0.930 . S
C925 C918 1.409 . S
C925 C924 1.362 . S
H926 C932 0.930 . S
H927 C935 0.930 . S
H928 C936 0.930 . S
H929 C937 0.930 1_556 S
H930 C940 0.930 . S
H931 C941 0.930 . S
C932 H926 0.930 . S
C932 C933 1.355 . S
C932 C934 1.415 . S
C933 C932 1.355 . S
C933 C935 1.419 . S
C934 C932 1.415 . S
C934 C939 1.425 . S
C934 C941 1.409 1_556 S
C935 H927 0.930 . S
C935 C933 1.419 . S
C935 C936 1.362 . S
C936 H928 0.930 . S
C936 C935 1.362 . S
C936 C939 1.409 . S
C937 H929 0.930 1_554 S
C937 C938 1.355 . S
C937 C939 1.415 1_554 S
C938 C937 1.355 . S
C938 C940 1.419 . S
C939 C934 1.425 . S
C939 C936 1.409 . S
C939 C937 1.415 1_556 S
C940 H930 0.930 . S
C940 C938 1.419 . S
C940 C941 1.362 . S
C941 H931 0.930 . S
C941 C934 1.409 1_554 S
C941 C940 1.362 . S
H942 C948 0.930 . S
H943 C951 0.930 . S
H944 C952 0.930 . S
H945 C953 0.930 . S
H946 C956 0.930 . S
H947 C957 0.930 . S
C948 H942 0.930 . S
C948 C949 1.355 . S
C948 C950 1.415 . S
C949 C948 1.355 . S
C949 C951 1.419 . S
C950 C948 1.415 . S
C950 C955 1.425 . S
C950 C957 1.409 . S
C951 H943 0.930 . S
C951 C949 1.419 . S
C951 C952 1.362 . S
C952 H944 0.930 . S
C952 C951 1.362 . S
C952 C955 1.409 . S
C953 H945 0.930 . S
C953 C954 1.355 . S
C953 C955 1.415 . S
C954 C953 1.355 . S
C954 C956 1.419 . S
C955 C950 1.425 . S
C955 C952 1.409 . S
C955 C953 1.415 . S
C956 H946 0.930 . S
C956 C954 1.419 . S
C956 C957 1.362 . S
C957 H947 0.930 . S
C957 C950 1.409 . S
C957 C956 1.362 . S
H958 C964 0.930 . S
H959 C967 0.930 . S
H960 C968 0.930 . S
H961 C969 0.930 . S
H962 C972 0.930 . S
H963 C973 0.930 . S
C964 H958 0.930 . S
C964 C965 1.355 . S
C964 C966 1.415 . S
C965 C964 1.355 . S
C965 C967 1.419 . S
C966 C964 1.415 . S
C966 C971 1.425 . S
C966 C973 1.409 . S
C967 H959 0.930 . S
C967 C965 1.419 . S
C967 C968 1.362 . S
C968 H960 0.930 . S
C968 C967 1.362 . S
C968 C971 1.409 . S
C969 H961 0.930 . S
C969 C970 1.355 . S
C969 C971 1.415 . S
C970 C969 1.355 . S
C970 C972 1.419 . S
C971 C966 1.425 . S
C971 C968 1.409 . S
C971 C969 1.415 . S
C972 H962 0.930 . S
C972 C970 1.419 . S
C972 C973 1.362 . S
C973 H963 0.930 . S
C973 C966 1.409 . S
C973 C972 1.362 . S
H974 C980 0.930 . S
H975 C983 0.930 . S
H976 C984 0.930 . S
H977 C985 0.930 . S
H978 C988 0.930 . S
H979 C989 0.930 . S
C980 H974 0.930 . S
C980 C981 1.355 . S
C980 C982 1.415 . S
C981 C980 1.355 . S
C981 C983 1.419 . S
C982 C980 1.415 . S
C982 C987 1.425 . S
C982 C989 1.409 . S
C983 H975 0.930 . S
C983 C981 1.419 . S
C983 C984 1.362 . S
C984 H976 0.930 . S
C984 C983 1.362 . S
C984 C987 1.409 . S
C985 H977 0.930 . S
C985 C986 1.355 . S
C985 C987 1.415 . S
C986 C985 1.355 . S
C986 C988 1.419 . S
C987 C982 1.425 . S
C987 C984 1.409 . S
C987 C985 1.415 . S
C988 H978 0.930 . S
C988 C986 1.419 . S
C988 C989 1.362 . S
C989 H979 0.930 . S
C989 C982 1.409 . S
C989 C988 1.362 . S
H990 C996 0.930 1_455 S
H991 C999 0.930 . S
H992 C1000 0.930 . S
H993 C1001 0.930 . S
H994 C1004 0.930 . S
H995 C1005 0.930 . S
C996 H990 0.930 1_655 S
C996 C997 1.355 . S
C996 C998 1.415 . S
C997 C996 1.355 . S
C997 C999 1.419 . S
C998 C996 1.415 . S
C998 C1003 1.425 . S
C998 C1005 1.409 . S
C999 H991 0.930 . S
C999 C997 1.419 . S
C999 C1000 1.362 . S
C1000 H992 0.930 . S
C1000 C999 1.362 . S
C1000 C1003 1.409 . S
C1001 H993 0.930 . S
C1001 C1002 1.355 . S
C1001 C1003 1.415 1_556 S
C1002 C1001 1.355 . S
C1002 C1004 1.419 . S
C1003 C998 1.425 . S
C1003 C1000 1.409 . S
C1003 C1001 1.415 1_554 S
C1004 H994 0.930 . S
C1004 C1002 1.419 . S
C1004 C1005 1.362 1_556 S
C1005 H995 0.930 . S
C1005 C998 1.409 . S
C1005 C1004 1.362 1_554 S
H1006 C1012 0.930 . S
H1007 C1015 0.930 . S
H1008 C1016 0.930 . S
H1009 C1017 0.930 . S
H1010 C1020 0.930 . S
H1011 C1021 0.930 . S
C1012 H1006 0.930 . S
C1012 C1013 1.355 . S
C1012 C1014 1.415 . S
C1013 C1012 1.355 . S
C1013 C1015 1.419 . S
C1014 C1012 1.415 . S
C1014 C1019 1.425 1_554 S
C1014 C1021 1.409 . S
C1015 H1007 0.930 . S
C1015 C1013 1.419 . S
C1015 C1016 1.362 1_554 S
C1016 H1008 0.930 . S
C1016 C1015 1.362 1_556 S
C1016 C1019 1.409 . S
C1017 H1009 0.930 . S
C1017 C1018 1.355 . S
C1017 C1019 1.415 . S
C1018 C1017 1.355 . S
C1018 C1020 1.419 1_556 S
C1019 C1014 1.425 1_556 S
C1019 C1016 1.409 . S
C1019 C1017 1.415 . S
C1020 H1010 0.930 . S
C1020 C1018 1.419 1_554 S
C1020 C1021 1.362 . S
C1021 H1011 0.930 . S
C1021 C1014 1.409 . S
C1021 C1020 1.362 . S
H1022 C1028 0.930 . S
H1023 C1031 0.930 . S
H1024 C1032 0.930 . S
H1025 C1033 0.930 . S
H1026 C1036 0.930 . S
H1027 C1037 0.930 1_556 S
C1028 H1022 0.930 . S
C1028 C1029 1.355 . S
C1028 C1030 1.415 . S
C1029 C1028 1.355 . S
C1029 C1031 1.419 . S
C1030 C1028 1.415 . S
C1030 C1035 1.425 1_556 S
C1030 C1037 1.409 1_556 S
C1031 H1023 0.930 . S
C1031 C1029 1.419 . S
C1031 C1032 1.362 1_556 S
C1032 H1024 0.930 . S
C1032 C1031 1.362 1_554 S
C1032 C1035 1.409 . S
C1033 H1025 0.930 . S
C1033 C1034 1.355 . S
C1033 C1035 1.415 . S
C1034 C1033 1.355 . S
C1034 C1036 1.419 . S
C1035 C1030 1.425 1_554 S
C1035 C1032 1.409 . S
C1035 C1033 1.415 . S
C1036 H1026 0.930 . S
C1036 C1034 1.419 . S
C1036 C1037 1.362 . S
C1037 H1027 0.930 1_554 S
C1037 C1030 1.409 1_554 S
C1037 C1036 1.362 . S
H1038 C1044 0.930 . S
H1039 C1047 0.930 . S
H1040 C1048 0.930 . S
H1041 C1049 0.930 . S
H1042 C1052 0.930 . S
H1043 C1053 0.930 . S
C1044 H1038 0.930 . S
C1044 C1045 1.355 . S
C1044 C1046 1.415 . S
C1045 C1044 1.355 . S
C1045 C1047 1.419 . S
C1046 C1044 1.415 . S
C1046 C1051 1.425 . S
C1046 C1053 1.409 . S
C1047 H1039 0.930 . S
C1047 C1045 1.419 . S
C1047 C1048 1.362 . S
C1048 H1040 0.930 . S
C1048 C1047 1.362 . S
C1048 C1051 1.409 . S
C1049 H1041 0.930 . S
C1049 C1050 1.355 . S
C1049 C1051 1.415 . S
C1050 C1049 1.355 . S
C1050 C1052 1.419 . S
C1051 C1046 1.425 . S
C1051 C1048 1.409 . S
C1051 C1049 1.415 . S
C1052 H1042 0.930 . S
C1052 C1050 1.419 . S
C1052 C1053 1.362 . S
C1053 H1043 0.930 . S
C1053 C1046 1.409 . S
C1053 C1052 1.362 . S
H1054 C1060 0.930 . S
H1055 C1063 0.930 . S
H1056 C1064 0.930 . S
H1057 C1065 0.930 . S
H1058 C1068 0.930 . S
H1059 C1069 0.930 . S
C1060 H1054 0.930 . S
C1060 C1061 1.355 . S
C1060 C1062 1.415 . S
C1061 C1060 1.355 . S
C1061 C1063 1.419 . S
C1062 C1060 1.415 . S
C1062 C1067 1.425 . S
C1062 C1069 1.409 . S
C1063 H1055 0.930 . S
C1063 C1061 1.419 . S
C1063 C1064 1.362 . S
C1064 H1056 0.930 . S
C1064 C1063 1.362 . S
C1064 C1067 1.409 . S
C1065 H1057 0.930 . S
C1065 C1066 1.355 . S
C1065 C1067 1.415 . S
C1066 C1065 1.355 . S
C1066 C1068 1.419 . S
C1067 C1062 1.425 . S
C1067 C1064 1.409 . S
C1067 C1065 1.415 . S
C1068 H1058 0.930 . S
C1068 C1066 1.419 . S
C1068 C1069 1.362 . S
C1069 H1059 0.930 . S
C1069 C1062 1.409 . S
C1069 C1068 1.362 . S
H1070 C1076 0.930 . S
H1071 C1079 0.930 . S
H1072 C1080 0.930 . S
H1073 C1081 0.930 . S
H1074 C1084 0.930 . S
H1075 C1085 0.930 . S
C1076 H1070 0.930 . S
C1076 C1077 1.355 . S
C1076 C1078 1.415 . S
C1077 C1076 1.355 . S
C1077 C1079 1.419 . S
C1078 C1076 1.415 . S
C1078 C1083 1.425 . S
C1078 C1085 1.409 . S
C1079 H1071 0.930 . S
C1079 C1077 1.419 . S
C1079 C1080 1.362 . S
C1080 H1072 0.930 . S
C1080 C1079 1.362 . S
C1080 C1083 1.409 . S
C1081 H1073 0.930 . S
C1081 C1082 1.355 . S
C1081 C1083 1.415 . S
C1082 C1081 1.355 . S
C1082 C1084 1.419 . S
C1083 C1078 1.425 . S
C1083 C1080 1.409 . S
C1083 C1081 1.415 . S
C1084 H1074 0.930 . S
C1084 C1082 1.419 . S
C1084 C1085 1.362 . S
C1085 H1075 0.930 . S
C1085 C1078 1.409 . S
C1085 C1084 1.362 . S
H1086 C1092 0.930 . S
H1087 C1095 0.930 . S
H1088 C1096 0.930 . S
H1089 C1097 0.930 . S
H1090 C1100 0.930 . S
H1091 C1101 0.930 . S
C1092 H1086 0.930 . S
C1092 C1093 1.355 . S
C1092 C1094 1.415 . S
C1093 C1092 1.355 . S
C1093 C1095 1.419 . S
C1094 C1092 1.415 . S
C1094 C1099 1.425 . S
C1094 C1101 1.409 . S
C1095 H1087 0.930 . S
C1095 C1093 1.419 . S
C1095 C1096 1.362 . S
C1096 H1088 0.930 . S
C1096 C1095 1.362 . S
C1096 C1099 1.409 . S
C1097 H1089 0.930 . S
C1097 C1098 1.355 . S
C1097 C1099 1.415 . S
C1098 C1097 1.355 . S
C1098 C1100 1.419 . S
C1099 C1094 1.425 . S
C1099 C1096 1.409 . S
C1099 C1097 1.415 . S
C1100 H1090 0.930 . S
C1100 C1098 1.419 . S
C1100 C1101 1.362 . S
C1101 H1091 0.930 . S
C1101 C1094 1.409 . S
C1101 C1100 1.362 . S
H1102 C1108 0.930 . S
H1103 C1111 0.930 . S
H1104 C1112 0.930 . S
H1105 C1113 0.930 . S
H1106 C1116 0.930 . S
H1107 C1117 0.930 . S
C1108 H1102 0.930 . S
C1108 C1109 1.355 . S
C1108 C1110 1.415 . S
C1109 C1108 1.355 . S
C1109 C1111 1.419 . S
C1110 C1108 1.415 . S
C1110 C1115 1.425 . S
C1110 C1117 1.409 . S
C1111 H1103 0.930 . S
C1111 C1109 1.419 . S
C1111 C1112 1.362 . S
C1112 H1104 0.930 . S
C1112 C1111 1.362 . S
C1112 C1115 1.409 . S
C1113 H1105 0.930 . S
C1113 C1114 1.355 . S
C1113 C1115 1.415 . S
C1114 C1113 1.355 . S
C1114 C1116 1.419 . S
C1115 C1110 1.425 . S
C1115 C1112 1.409 . S
C1115 C1113 1.415 . S
C1116 H1106 0.930 . S
C1116 C1114 1.419 . S
C1116 C1117 1.362 . S
C1117 H1107 0.930 . S
C1117 C1110 1.409 . S
C1117 C1116 1.362 . S
H1118 C1124 0.930 . S
H1119 C1127 0.930 . S
H1120 C1128 0.930 . S
H1121 C1129 0.930 . S
H1122 C1132 0.930 . S
H1123 C1133 0.930 . S
C1124 H1118 0.930 . S
C1124 C1125 1.355 . S
C1124 C1126 1.415 . S
C1125 C1124 1.355 . S
C1125 C1127 1.419 . S
C1126 C1124 1.415 . S
C1126 C1131 1.425 . S
C1126 C1133 1.409 . S
C1127 H1119 0.930 . S
C1127 C1125 1.419 . S
C1127 C1128 1.362 . S
C1128 H1120 0.930 . S
C1128 C1127 1.362 . S
C1128 C1131 1.409 . S
C1129 H1121 0.930 . S
C1129 C1130 1.355 . S
C1129 C1131 1.415 . S
C1130 C1129 1.355 . S
C1130 C1132 1.419 . S
C1131 C1126 1.425 . S
C1131 C1128 1.409 . S
C1131 C1129 1.415 . S
C1132 H1122 0.930 . S
C1132 C1130 1.419 . S
C1132 C1133 1.362 . S
C1133 H1123 0.930 . S
C1133 C1126 1.409 . S
C1133 C1132 1.362 . S
H1134 C1140 0.930 . S
H1135 C1143 0.930 . S
H1136 C1144 0.930 . S
H1137 C1145 0.930 . S
H1138 C1148 0.930 . S
H1139 C1149 0.930 . S
C1140 H1134 0.930 . S
C1140 C1141 1.355 . S
C1140 C1142 1.415 . S
C1141 C1140 1.355 . S
C1141 C1143 1.419 . S
C1142 C1140 1.415 . S
C1142 C1147 1.425 . S
C1142 C1149 1.409 . S
C1143 H1135 0.930 . S
C1143 C1141 1.419 . S
C1143 C1144 1.362 . S
C1144 H1136 0.930 . S
C1144 C1143 1.362 . S
C1144 C1147 1.409 . S
C1145 H1137 0.930 . S
C1145 C1146 1.355 . S
C1145 C1147 1.415 . S
C1146 C1145 1.355 . S
C1146 C1148 1.419 . S
C1147 C1142 1.425 . S
C1147 C1144 1.409 . S
C1147 C1145 1.415 . S
C1148 H1138 0.930 . S
C1148 C1146 1.419 . S
C1148 C1149 1.362 . S
C1149 H1139 0.930 . S
C1149 C1142 1.409 . S
C1149 C1148 1.362 . S
H1150 C1156 0.930 . S
H1151 C1159 0.930 . S
H1152 C1160 0.930 . S
H1153 C1161 0.930 . S
H1154 C1164 0.930 . S
H1155 C1165 0.930 . S
C1156 H1150 0.930 . S
C1156 C1157 1.355 . S
C1156 C1158 1.415 . S
C1157 C1156 1.355 . S
C1157 C1159 1.419 . S
C1158 C1156 1.415 . S
C1158 C1163 1.425 . S
C1158 C1165 1.409 . S
C1159 H1151 0.930 . S
C1159 C1157 1.419 . S
C1159 C1160 1.362 . S
C1160 H1152 0.930 . S
C1160 C1159 1.362 . S
C1160 C1163 1.409 . S
C1161 H1153 0.930 . S
C1161 C1162 1.355 . S
C1161 C1163 1.415 . S
C1162 C1161 1.355 . S
C1162 C1164 1.419 . S
C1163 C1158 1.425 . S
C1163 C1160 1.409 . S
C1163 C1161 1.415 . S
C1164 H1154 0.930 . S
C1164 C1162 1.419 . S
C1164 C1165 1.362 . S
C1165 H1155 0.930 . S
C1165 C1158 1.409 . S
C1165 C1164 1.362 . S
H1166 C1172 0.930 . S
H1167 C1175 0.930 . S
H1168 C1176 0.930 . S
H1169 C1177 0.930 . S
H1170 C1180 0.930 . S
H1171 C1181 0.930 . S
C1172 H1166 0.930 . S
C1172 C1173 1.355 . S
C1172 C1174 1.415 . S
C1173 C1172 1.355 . S
C1173 C1175 1.419 . S
C1174 C1172 1.415 . S
C1174 C1179 1.425 . S
C1174 C1181 1.409 . S
C1175 H1167 0.930 . S
C1175 C1173 1.419 . S
C1175 C1176 1.362 . S
C1176 H1168 0.930 . S
C1176 C1175 1.362 . S
C1176 C1179 1.409 . S
C1177 H1169 0.930 . S
C1177 C1178 1.355 . S
C1177 C1179 1.415 . S
C1178 C1177 1.355 . S
C1178 C1180 1.419 . S
C1179 C1174 1.425 . S
C1179 C1176 1.409 . S
C1179 C1177 1.415 . S
C1180 H1170 0.930 . S
C1180 C1178 1.419 . S
C1180 C1181 1.362 . S
C1181 H1171 0.930 . S
C1181 C1174 1.409 . S
C1181 C1180 1.362 . S
H1182 C1188 0.930 . S
H1183 C1191 0.930 . S
H1184 C1192 0.930 . S
H1185 C1193 0.930 . S
H1186 C1196 0.930 . S
H1187 C1197 0.930 . S
C1188 H1182 0.930 . S
C1188 C1189 1.355 . S
C1188 C1190 1.415 . S
C1189 C1188 1.355 . S
C1189 C1191 1.419 . S
C1190 C1188 1.415 . S
C1190 C1195 1.425 . S
C1190 C1197 1.409 . S
C1191 H1183 0.930 . S
C1191 C1189 1.419 . S
C1191 C1192 1.362 . S
C1192 H1184 0.930 . S
C1192 C1191 1.362 . S
C1192 C1195 1.409 . S
C1193 H1185 0.930 . S
C1193 C1194 1.355 . S
C1193 C1195 1.415 . S
C1194 C1193 1.355 . S
C1194 C1196 1.419 . S
C1195 C1190 1.425 . S
C1195 C1192 1.409 . S
C1195 C1193 1.415 . S
C1196 H1186 0.930 . S
C1196 C1194 1.419 . S
C1196 C1197 1.362 . S
C1197 H1187 0.930 . S
C1197 C1190 1.409 . S
C1197 C1196 1.362 . S
H1198 C1204 0.930 . S
H1199 C1207 0.930 . S
H1200 C1208 0.930 . S
H1201 C1209 0.930 . S
H1202 C1212 0.930 . S
H1203 C1213 0.930 . S
C1204 H1198 0.930 . S
C1204 C1205 1.355 . S
C1204 C1206 1.415 . S
C1205 C1204 1.355 . S
C1205 C1207 1.419 . S
C1206 C1204 1.415 . S
C1206 C1211 1.425 . S
C1206 C1213 1.409 . S
C1207 H1199 0.930 . S
C1207 C1205 1.419 . S
C1207 C1208 1.362 . S
C1208 H1200 0.930 . S
C1208 C1207 1.362 . S
C1208 C1211 1.409 . S
C1209 H1201 0.930 . S
C1209 C1210 1.355 . S
C1209 C1211 1.415 . S
C1210 C1209 1.355 . S
C1210 C1212 1.419 . S
C1211 C1206 1.425 . S
C1211 C1208 1.409 . S
C1211 C1209 1.415 . S
C1212 H1202 0.930 . S
C1212 C1210 1.419 . S
C1212 C1213 1.362 . S
C1213 H1203 0.930 . S
C1213 C1206 1.409 . S
C1213 C1212 1.362 . S
H1214 C1220 0.930 . S
H1215 C1223 0.930 . S
H1216 C1224 0.930 . S
H1217 C1225 0.930 . S
H1218 C1228 0.930 . S
H1219 C1229 0.930 . S
C1220 H1214 0.930 . S
C1220 C1221 1.355 . S
C1220 C1222 1.415 . S
C1221 C1220 1.355 . S
C1221 C1223 1.419 . S
C1222 C1220 1.415 . S
C1222 C1227 1.425 . S
C1222 C1229 1.409 . S
C1223 H1215 0.930 . S
C1223 C1221 1.419 . S
C1223 C1224 1.362 . S
C1224 H1216 0.930 . S
C1224 C1223 1.362 . S
C1224 C1227 1.409 . S
C1225 H1217 0.930 . S
C1225 C1226 1.355 . S
C1225 C1227 1.415 . S
C1226 C1225 1.355 . S
C1226 C1228 1.419 . S
C1227 C1222 1.425 . S
C1227 C1224 1.409 . S
C1227 C1225 1.415 . S
C1228 H1218 0.930 . S
C1228 C1226 1.419 . S
C1228 C1229 1.362 . S
C1229 H1219 0.930 . S
C1229 C1222 1.409 . S
C1229 C1228 1.362 . S
H1230 C1236 0.930 . S
H1231 C1239 0.930 . S
H1232 C1240 0.930 . S
H1233 C1241 0.930 . S
H1234 C1244 0.930 . S
H1235 C1245 0.930 . S
C1236 H1230 0.930 . S
C1236 C1237 1.355 . S
C1236 C1238 1.415 . S
C1237 C1236 1.355 . S
C1237 C1239 1.419 . S
C1238 C1236 1.415 . S
C1238 C1243 1.425 . S
C1238 C1245 1.409 . S
C1239 H1231 0.930 . S
C1239 C1237 1.419 . S
C1239 C1240 1.362 . S
C1240 H1232 0.930 . S
C1240 C1239 1.362 . S
C1240 C1243 1.409 . S
C1241 H1233 0.930 . S
C1241 C1242 1.355 . S
C1241 C1243 1.415 . S
C1242 C1241 1.355 . S
C1242 C1244 1.419 . S
C1243 C1238 1.425 . S
C1243 C1240 1.409 . S
C1243 C1241 1.415 . S
C1244 H1234 0.930 . S
C1244 C1242 1.419 . S
C1244 C1245 1.362 . S
C1245 H1235 0.930 . S
C1245 C1238 1.409 . S
C1245 C1244 1.362 . S
H1246 C1252 0.930 . S
H1247 C1255 0.930 . S
H1248 C1256 0.930 . S
H1249 C1257 0.930 . S
H1250 C1260 0.930 . S
H1251 C1261 0.930 . S
C1252 H1246 0.930 . S
C1252 C1253 1.355 . S
C1252 C1254 1.415 . S
C1253 C1252 1.355 . S
C1253 C1255 1.419 . S
C1254 C1252 1.415 . S
C1254 C1259 1.425 . S
C1254 C1261 1.409 . S
C1255 H1247 0.930 . S
C1255 C1253 1.419 . S
C1255 C1256 1.362 . S
C1256 H1248 0.930 . S
C1256 C1255 1.362 . S
C1256 C1259 1.409 . S
C1257 H1249 0.930 . S
C1257 C1258 1.355 . S
C1257 C1259 1.415 . S
C1258 C1257 1.355 . S
C1258 C1260 1.419 . S
C1259 C1254 1.425 . S
C1259 C1256 1.409 . S
C1259 C1257 1.415 . S
C1260 H1250 0.930 . S
C1260 C1258 1.419 . S
C1260 C1261 1.362 . S
C1261 H1251 0.930 . S
C1261 C1254 1.409 . S
C1261 C1260 1.362 . S
H1262 C1268 0.930 . S
H1263 C1271 0.930 . S
H1264 C1272 0.930 . S
H1265 C1273 0.930 . S
H1266 C1276 0.930 . S
H1267 C1277 0.930 . S
C1268 H1262 0.930 . S
C1268 C1269 1.355 . S
C1268 C1270 1.415 . S
C1269 C1268 1.355 . S
C1269 C1271 1.419 . S
C1270 C1268 1.415 . S
C1270 C1275 1.425 . S
C1270 C1277 1.409 . S
C1271 H1263 0.930 . S
C1271 C1269 1.419 . S
C1271 C1272 1.362 . S
C1272 H1264 0.930 . S
C1272 C1271 1.362 . S
C1272 C1275 1.409 . S
C1273 H1265 0.930 . S
C1273 C1274 1.355 . S
C1273 C1275 1.415 . S
C1274 C1273 1.355 . S
C1274 C1276 1.419 . S
C1275 C1270 1.425 . S
C1275 C1272 1.409 . S
C1275 C1273 1.415 . S
C1276 H1266 0.930 . S
C1276 C1274 1.419 . S
C1276 C1277 1.362 . S
C1277 H1267 0.930 . S
C1277 C1270 1.409 . S
C1277 C1276 1.362 . S
H1278 C1284 0.930 . S
H1279 C1287 0.930 . S
H1280 C1288 0.930 . S
H1281 C1289 0.930 . S
H1282 C1292 0.930 . S
H1283 C1293 0.930 . S
C1284 H1278 0.930 . S
C1284 C1285 1.355 . S
C1284 C1286 1.415 . S
C1285 C1284 1.355 . S
C1285 C1287 1.419 . S
C1286 C1284 1.415 . S
C1286 C1291 1.425 . S
C1286 C1293 1.409 . S
C1287 H1279 0.930 . S
C1287 C1285 1.419 . S
C1287 C1288 1.362 . S
C1288 H1280 0.930 . S
C1288 C1287 1.362 . S
C1288 C1291 1.409 . S
C1289 H1281 0.930 . S
C1289 C1290 1.355 . S
C1289 C1291 1.415 . S
C1290 C1289 1.355 . S
C1290 C1292 1.419 . S
C1291 C1286 1.425 . S
C1291 C1288 1.409 . S
C1291 C1289 1.415 . S
C1292 H1282 0.930 . S
C1292 C1290 1.419 . S
C1292 C1293 1.362 . S
C1293 H1283 0.930 . S
C1293 C1286 1.409 . S
C1293 C1292 1.362 . S
H1294 C1300 0.930 . S
H1295 C1303 0.930 . S
H1296 C1304 0.930 . S
H1297 C1305 0.930 . S
H1298 C1308 0.930 . S
H1299 C1309 0.930 . S
C1300 H1294 0.930 . S
C1300 C1301 1.355 . S
C1300 C1302 1.415 . S
C1301 C1300 1.355 . S
C1301 C1303 1.419 . S
C1302 C1300 1.415 . S
C1302 C1307 1.425 . S
C1302 C1309 1.409 . S
C1303 H1295 0.930 . S
C1303 C1301 1.419 . S
C1303 C1304 1.362 . S
C1304 H1296 0.930 . S
C1304 C1303 1.362 . S
C1304 C1307 1.409 . S
C1305 H1297 0.930 . S
C1305 C1306 1.355 . S
C1305 C1307 1.415 . S
C1306 C1305 1.355 . S
C1306 C1308 1.419 . S
C1307 C1302 1.425 . S
C1307 C1304 1.409 . S
C1307 C1305 1.415 . S
C1308 H1298 0.930 . S
C1308 C1306 1.419 . S
C1308 C1309 1.362 . S
C1309 H1299 0.930 . S
C1309 C1302 1.409 . S
C1309 C1308 1.362 . S
H1310 C1316 0.930 . S
H1311 C1319 0.930 . S
H1312 C1320 0.930 . S
H1313 C1321 0.930 . S
H1314 C1324 0.930 . S
H1315 C1325 0.930 . S
C1316 H1310 0.930 . S
C1316 C1317 1.355 . S
C1316 C1318 1.415 . S
C1317 C1316 1.355 . S
C1317 C1319 1.419 . S
C1318 C1316 1.415 . S
C1318 C1323 1.425 . S
C1318 C1325 1.409 . S
C1319 H1311 0.930 . S
C1319 C1317 1.419 . S
C1319 C1320 1.362 . S
C1320 H1312 0.930 . S
C1320 C1319 1.362 . S
C1320 C1323 1.409 . S
C1321 H1313 0.930 . S
C1321 C1322 1.355 . S
C1321 C1323 1.415 . S
C1322 C1321 1.355 . S
C1322 C1324 1.419 . S
C1323 C1318 1.425 . S
C1323 C1320 1.409 . S
C1323 C1321 1.415 . S
C1324 H1314 0.930 . S
C1324 C1322 1.419 . S
C1324 C1325 1.362 . S
C1325 H1315 0.930 . S
C1325 C1318 1.409 . S
C1325 C1324 1.362 . S
H1326 C1332 0.930 . S
H1327 C1335 0.930 . S
H1328 C1336 0.930 . S
H1329 C1337 0.930 . S
H1330 C1340 0.930 . S
H1331 C1341 0.930 . S
C1332 H1326 0.930 . S
C1332 C1333 1.355 . S
C1332 C1334 1.415 . S
C1333 C1332 1.355 . S
C1333 C1335 1.419 . S
C1334 C1332 1.415 . S
C1334 C1339 1.425 . S
C1334 C1341 1.409 . S
C1335 H1327 0.930 . S
C1335 C1333 1.419 . S
C1335 C1336 1.362 . S
C1336 H1328 0.930 . S
C1336 C1335 1.362 . S
C1336 C1339 1.409 . S
C1337 H1329 0.930 . S
C1337 C1338 1.355 . S
C1337 C1339 1.415 . S
C1338 C1337 1.355 . S
C1338 C1340 1.419 . S
C1339 C1334 1.425 . S
C1339 C1336 1.409 . S
C1339 C1337 1.415 . S
C1340 H1330 0.930 . S
C1340 C1338 1.419 . S
C1340 C1341 1.362 . S
C1341 H1331 0.930 . S
C1341 C1334 1.409 . S
C1341 C1340 1.362 . S
H1342 C1348 0.930 . S
H1343 C1351 0.930 1_556 S
H1344 C1352 0.930 . S
H1345 C1353 0.930 . S
H1346 C1356 0.930 . S
H1347 C1357 0.930 . S
C1348 H1342 0.930 . S
C1348 C1349 1.355 . S
C1348 C1350 1.415 . S
C1349 C1348 1.355 . S
C1349 C1351 1.419 . S
C1350 C1348 1.415 . S
C1350 C1355 1.425 . S
C1350 C1357 1.409 . S
C1351 H1343 0.930 1_554 S
C1351 C1349 1.419 . S
C1351 C1352 1.362 . S
C1352 H1344 0.930 . S
C1352 C1351 1.362 . S
C1352 C1355 1.409 . S
C1353 H1345 0.930 . S
C1353 C1354 1.355 . S
C1353 C1355 1.415 . S
C1354 C1353 1.355 . S
C1354 C1356 1.419 . S
C1355 C1350 1.425 . S
C1355 C1352 1.409 . S
C1355 C1353 1.415 . S
C1356 H1346 0.930 . S
C1356 C1354 1.419 . S
C1356 C1357 1.362 . S
C1357 H1347 0.930 . S
C1357 C1350 1.409 . S
C1357 C1356 1.362 . S
H1358 C1364 0.930 . S
H1359 C1367 0.930 . S
H1360 C1368 0.930 . S
H1361 C1369 0.930 . S
H1362 C1372 0.930 . S
H1363 C1373 0.930 . S
C1364 H1358 0.930 . S
C1364 C1365 1.355 . S
C1364 C1366 1.415 . S
C1365 C1364 1.355 . S
C1365 C1367 1.419 . S
C1366 C1364 1.415 . S
C1366 C1371 1.425 . S
C1366 C1373 1.409 . S
C1367 H1359 0.930 . S
C1367 C1365 1.419 . S
C1367 C1368 1.362 . S
C1368 H1360 0.930 . S
C1368 C1367 1.362 . S
C1368 C1371 1.409 . S
C1369 H1361 0.930 . S
C1369 C1370 1.355 . S
C1369 C1371 1.415 . S
C1370 C1369 1.355 . S
C1370 C1372 1.419 . S
C1371 C1366 1.425 . S
C1371 C1368 1.409 . S
C1371 C1369 1.415 . S
C1372 H1362 0.930 . S
C1372 C1370 1.419 . S
C1372 C1373 1.362 . S
C1373 H1363 0.930 . S
C1373 C1366 1.409 . S
C1373 C1372 1.362 . S
H1374 C1380 0.930 . S
H1375 C1383 0.930 . S
H1376 C1384 0.930 . S
H1377 C1385 0.930 . S
H1378 C1388 0.930 . S
H1379 C1389 0.930 . S
C1380 H1374 0.930 . S
C1380 C1381 1.355 . S
C1380 C1382 1.415 . S
C1381 C1380 1.355 . S
C1381 C1383 1.419 . S
C1382 C1380 1.415 . S
C1382 C1387 1.425 . S
C1382 C1389 1.409 . S
C1383 H1375 0.930 . S
C1383 C1381 1.419 . S
C1383 C1384 1.362 . S
C1384 H1376 0.930 . S
C1384 C1383 1.362 . S
C1384 C1387 1.409 . S
C1385 H1377 0.930 . S
C1385 C1386 1.355 . S
C1385 C1387 1.415 . S
C1386 C1385 1.355 . S
C1386 C1388 1.419 . S
C1387 C1382 1.425 . S
C1387 C1384 1.409 . S
C1387 C1385 1.415 . S
C1388 H1378 0.930 . S
C1388 C1386 1.419 . S
C1388 C1389 1.362 . S
C1389 H1379 0.930 . S
C1389 C1382 1.409 . S
C1389 C1388 1.362 . S
H1390 C1396 0.930 . S
H1391 C1399 0.930 . S
H1392 C1400 0.930 . S
H1393 C1401 0.930 . S
H1394 C1404 0.930 . S
H1395 C1405 0.930 . S
C1396 H1390 0.930 . S
C1396 C1397 1.355 . S
C1396 C1398 1.415 . S
C1397 C1396 1.355 . S
C1397 C1399 1.419 . S
C1398 C1396 1.415 . S
C1398 C1403 1.425 . S
C1398 C1405 1.409 . S
C1399 H1391 0.930 . S
C1399 C1397 1.419 . S
C1399 C1400 1.362 . S
C1400 H1392 0.930 . S
C1400 C1399 1.362 . S
C1400 C1403 1.409 . S
C1401 H1393 0.930 . S
C1401 C1402 1.355 . S
C1401 C1403 1.415 . S
C1402 C1401 1.355 . S
C1402 C1404 1.419 . S
C1403 C1398 1.425 . S
C1403 C1400 1.409 . S
C1403 C1401 1.415 . S
C1404 H1394 0.930 . S
C1404 C1402 1.419 . S
C1404 C1405 1.362 . S
C1405 H1395 0.930 . S
C1405 C1398 1.409 . S
C1405 C1404 1.362 . S
H1406 C1412 0.930 . S
H1407 C1415 0.930 . S
H1408 C1416 0.930 . S
H1409 C1417 0.930 . S
H1410 C1420 0.930 . S
H1411 C1421 0.930 . S
C1412 H1406 0.930 . S
C1412 C1413 1.355 . S
C1412 C1414 1.415 . S
C1413 C1412 1.355 . S
C1413 C1415 1.419 . S
C1414 C1412 1.415 . S
C1414 C1419 1.425 . S
C1414 C1421 1.409 . S
C1415 H1407 0.930 . S
C1415 C1413 1.419 . S
C1415 C1416 1.362 . S
C1416 H1408 0.930 . S
C1416 C1415 1.362 . S
C1416 C1419 1.409 . S
C1417 H1409 0.930 . S
C1417 C1418 1.355 . S
C1417 C1419 1.415 . S
C1418 C1417 1.355 . S
C1418 C1420 1.419 . S
C1419 C1414 1.425 . S
C1419 C1416 1.409 . S
C1419 C1417 1.415 . S
C1420 H1410 0.930 . S
C1420 C1418 1.419 . S
C1420 C1421 1.362 . S
C1421 H1411 0.930 . S
C1421 C1414 1.409 . S
C1421 C1420 1.362 . S
H1422 C1428 0.930 . S
H1423 C1431 0.930 . S
H1424 C1432 0.930 . S
H1425 C1433 0.930 . S
H1426 C1436 0.930 . S
H1427 C1437 0.930 . S
C1428 H1422 0.930 . S
C1428 C1429 1.355 . S
C1428 C1430 1.415 . S
C1429 C1428 1.355 . S
C1429 C1431 1.419 . S
C1430 C1428 1.415 . S
C1430 C1435 1.425 . S
C1430 C1437 1.409 . S
C1431 H1423 0.930 . S
C1431 C1429 1.419 . S
C1431 C1432 1.362 . S
C1432 H1424 0.930 . S
C1432 C1431 1.362 . S
C1432 C1435 1.409 . S
C1433 H1425 0.930 . S
C1433 C1434 1.355 . S
C1433 C1435 1.415 . S
C1434 C1433 1.355 . S
C1434 C1436 1.419 . S
C1435 C1430 1.425 . S
C1435 C1432 1.409 . S
C1435 C1433 1.415 . S
C1436 H1426 0.930 . S
C1436 C1434 1.419 . S
C1436 C1437 1.362 . S
C1437 H1427 0.930 . S
C1437 C1430 1.409 . S
C1437 C1436 1.362 . S
H1438 C1444 0.930 . S
H1439 C1447 0.930 . S
H1440 C1448 0.930 . S
H1441 C1449 0.930 . S
H1442 C1452 0.930 . S
H1443 C1453 0.930 . S
C1444 H1438 0.930 . S
C1444 C1445 1.355 . S
C1444 C1446 1.415 . S
C1445 C1444 1.355 . S
C1445 C1447 1.419 . S
C1446 C1444 1.415 . S
C1446 C1451 1.425 . S
C1446 C1453 1.409 . S
C1447 H1439 0.930 . S
C1447 C1445 1.419 . S
C1447 C1448 1.362 . S
C1448 H1440 0.930 . S
C1448 C1447 1.362 . S
C1448 C1451 1.409 . S
C1449 H1441 0.930 . S
C1449 C1450 1.355 . S
C1449 C1451 1.415 . S
C1450 C1449 1.355 . S
C1450 C1452 1.419 . S
C1451 C1446 1.425 . S
C1451 C1448 1.409 . S
C1451 C1449 1.415 . S
C1452 H1442 0.930 . S
C1452 C1450 1.419 . S
C1452 C1453 1.362 . S
C1453 H1443 0.930 . S
C1453 C1446 1.409 . S
C1453 C1452 1.362 . S
H1454 C1460 0.930 . S
H1455 C1463 0.930 . S
H1456 C1464 0.930 . S
H1457 C1465 0.930 . S
H1458 C1468 0.930 . S
H1459 C1469 0.930 . S
C1460 H1454 0.930 . S
C1460 C1461 1.355 . S
C1460 C1462 1.415 . S
C1461 C1460 1.355 . S
C1461 C1463 1.419 . S
C1462 C1460 1.415 . S
C1462 C1467 1.425 . S
C1462 C1469 1.409 . S
C1463 H1455 0.930 . S
C1463 C1461 1.419 . S
C1463 C1464 1.362 . S
C1464 H1456 0.930 . S
C1464 C1463 1.362 . S
C1464 C1467 1.409 . S
C1465 H1457 0.930 . S
C1465 C1466 1.355 . S
C1465 C1467 1.415 . S
C1466 C1465 1.355 . S
C1466 C1468 1.419 . S
C1467 C1462 1.425 . S
C1467 C1464 1.409 . S
C1467 C1465 1.415 . S
C1468 H1458 0.930 . S
C1468 C1466 1.419 . S
C1468 C1469 1.362 . S
C1469 H1459 0.930 . S
C1469 C1462 1.409 . S
C1469 C1468 1.362 . S
H1470 C1476 0.930 . S
H1471 C1479 0.930 . S
H1472 C1480 0.930 . S
H1473 C1481 0.930 . S
H1474 C1484 0.930 . S
H1475 C1485 0.930 . S
C1476 H1470 0.930 . S
C1476 C1477 1.355 1_556 S
C1476 C1478 1.415 . S
C1477 C1476 1.355 1_554 S
C1477 C1479 1.419 . S
C1478 C1476 1.415 . S
C1478 C1483 1.425 . S
C1478 C1485 1.409 . S
C1479 H1471 0.930 . S
C1479 C1477 1.419 . S
C1479 C1480 1.362 1_554 S
C1480 H1472 0.930 . S
C1480 C1479 1.362 1_556 S
C1480 C1483 1.409 . S
C1481 H1473 0.930 . S
C1481 C1482 1.355 . S
C1481 C1483 1.415 . S
C1482 C1481 1.355 . S
C1482 C1484 1.419 . S
C1483 C1478 1.425 . S
C1483 C1480 1.409 . S
C1483 C1481 1.415 . S
C1484 H1474 0.930 . S
C1484 C1482 1.419 . S
C1484 C1485 1.362 . S
C1485 H1475 0.930 . S
C1485 C1478 1.409 . S
C1485 C1484 1.362 . S
H1486 C1492 0.930 . S
H1487 C1495 0.930 . S
H1488 C1496 0.930 . S
H1489 C1497 0.930 . S
H1490 C1500 0.930 . S
H1491 C1501 0.930 . S
C1492 H1486 0.930 . S
C1492 C1493 1.355 1_556 S
C1492 C1494 1.415 . S
C1493 C1492 1.355 1_554 S
C1493 C1495 1.419 . S
C1494 C1492 1.415 . S
C1494 C1499 1.425 . S
C1494 C1501 1.409 . S
C1495 H1487 0.930 . S
C1495 C1493 1.419 . S
C1495 C1496 1.362 1_554 S
C1496 H1488 0.930 . S
C1496 C1495 1.362 1_556 S
C1496 C1499 1.409 . S
C1497 H1489 0.930 . S
C1497 C1498 1.355 . S
C1497 C1499 1.415 . S
C1498 C1497 1.355 . S
C1498 C1500 1.419 . S
C1499 C1494 1.425 . S
C1499 C1496 1.409 . S
C1499 C1497 1.415 . S
C1500 H1490 0.930 . S
C1500 C1498 1.419 . S
C1500 C1501 1.362 . S
C1501 H1491 0.930 . S
C1501 C1494 1.409 . S
C1501 C1500 1.362 . S
H1502 C1508 0.930 . S
H1503 C1511 0.930 . S
H1504 C1512 0.930 . S
H1505 C1513 0.930 . S
H1506 C1516 0.930 1_554 S
H1507 C1517 0.930 . S
C1508 H1502 0.930 . S
C1508 C1509 1.355 . S
C1508 C1510 1.415 . S
C1509 C1508 1.355 . S
C1509 C1511 1.419 . S
C1510 C1508 1.415 . S
C1510 C1515 1.425 . S
C1510 C1517 1.409 . S
C1511 H1503 0.930 . S
C1511 C1509 1.419 . S
C1511 C1512 1.362 . S
C1512 H1504 0.930 . S
C1512 C1511 1.362 . S
C1512 C1515 1.409 . S
C1513 H1505 0.930 . S
C1513 C1514 1.355 1_556 S
C1513 C1515 1.415 . S
C1514 C1513 1.355 1_554 S
C1514 C1516 1.419 1_554 S
C1515 C1510 1.425 . S
C1515 C1512 1.409 . S
C1515 C1513 1.415 . S
C1516 H1506 0.930 1_556 S
C1516 C1514 1.419 1_556 S
C1516 C1517 1.362 . S
C1517 H1507 0.930 . S
C1517 C1510 1.409 . S
C1517 C1516 1.362 . S
H1518 C1524 0.930 . S
H1519 C1527 0.930 . S
H1520 C1528 0.930 . S
H1521 C1529 0.930 . S
H1522 C1532 0.930 . S
H1523 C1533 0.930 . S
C1524 H1518 0.930 . S
C1524 C1525 1.355 . S
C1524 C1526 1.415 . S
C1525 C1524 1.355 . S
C1525 C1527 1.419 . S
C1526 C1524 1.415 . S
C1526 C1531 1.425 . S
C1526 C1533 1.409 . S
C1527 H1519 0.930 . S
C1527 C1525 1.419 . S
C1527 C1528 1.362 . S
C1528 H1520 0.930 . S
C1528 C1527 1.362 . S
C1528 C1531 1.409 . S
C1529 H1521 0.930 . S
C1529 C1530 1.355 . S
C1529 C1531 1.415 . S
C1530 C1529 1.355 . S
C1530 C1532 1.419 . S
C1531 C1526 1.425 . S
C1531 C1528 1.409 . S
C1531 C1529 1.415 . S
C1532 H1522 0.930 . S
C1532 C1530 1.419 . S
C1532 C1533 1.362 . S
C1533 H1523 0.930 . S
C1533 C1526 1.409 . S
C1533 C1532 1.362 . S
H1534 C1540 0.930 . S
H1535 C1543 0.930 . S
H1536 C1544 0.930 . S
H1537 C1545 0.930 . S
H1538 C1548 0.930 . S
H1539 C1549 0.930 . S
C1540 H1534 0.930 . S
C1540 C1541 1.355 . S
C1540 C1542 1.415 . S
C1541 C1540 1.355 . S
C1541 C1543 1.419 1_655 S
C1542 C1540 1.415 . S
C1542 C1547 1.425 . S
C1542 C1549 1.409 . S
C1543 H1535 0.930 . S
C1543 C1541 1.419 1_455 S
C1543 C1544 1.362 . S
C1544 H1536 0.930 . S
C1544 C1543 1.362 . S
C1544 C1547 1.409 1_455 S
C1545 H1537 0.930 . S
C1545 C1546 1.355 . S
C1545 C1547 1.415 . S
C1546 C1545 1.355 . S
C1546 C1548 1.419 . S
C1547 C1542 1.425 . S
C1547 C1544 1.409 1_655 S
C1547 C1545 1.415 . S
C1548 H1538 0.930 . S
C1548 C1546 1.419 . S
C1548 C1549 1.362 . S
C1549 H1539 0.930 . S
C1549 C1542 1.409 . S
C1549 C1548 1.362 . S
H1550 C1556 0.930 . S
H1551 C1559 0.930 . S
H1552 C1560 0.930 . S
H1553 C1561 0.930 . S
H1554 C1564 0.930 . S
H1555 C1565 0.930 . S
C1556 H1550 0.930 . S
C1556 C1557 1.355 . S
C1556 C1558 1.415 . S
C1557 C1556 1.355 . S
C1557 C1559 1.419 . S
C1558 C1556 1.415 . S
C1558 C1563 1.425 . S
C1558 C1565 1.409 . S
C1559 H1551 0.930 . S
C1559 C1557 1.419 . S
C1559 C1560 1.362 . S
C1560 H1552 0.930 . S
C1560 C1559 1.362 . S
C1560 C1563 1.409 . S
C1561 H1553 0.930 . S
C1561 C1562 1.355 . S
C1561 C1563 1.415 . S
C1562 C1561 1.355 . S
C1562 C1564 1.419 . S
C1563 C1558 1.425 . S
C1563 C1560 1.409 . S
C1563 C1561 1.415 . S
C1564 H1554 0.930 . S
C1564 C1562 1.419 . S
C1564 C1565 1.362 . S
C1565 H1555 0.930 . S
C1565 C1558 1.409 . S
C1565 C1564 1.362 . S
H1566 C1572 0.930 . S
H1567 C1575 0.930 . S
H1568 C1576 0.930 . S
H1569 C1577 0.930 1_556 S
H1570 C1580 0.930 . S
H1571 C1581 0.930 . S
C1572 H1566 0.930 . S
C1572 C1573 1.355 . S
C1572 C1574 1.415 . S
C1573 C1572 1.355 . S
C1573 C1575 1.419 . S
C1574 C1572 1.415 . S
C1574 C1579 1.425 . S
C1574 C1581 1.409 . S
C1575 H1567 0.930 . S
C1575 C1573 1.419 . S
C1575 C1576 1.362 . S
C1576 H1568 0.930 . S
C1576 C1575 1.362 . S
C1576 C1579 1.409 . S
C1577 H1569 0.930 1_554 S
C1577 C1578 1.355 1_554 S
C1577 C1579 1.415 . S
C1578 C1577 1.355 1_556 S
C1578 C1580 1.419 1_556 S
C1579 C1574 1.425 . S
C1579 C1576 1.409 . S
C1579 C1577 1.415 . S
C1580 H1570 0.930 . S
C1580 C1578 1.419 1_554 S
C1580 C1581 1.362 . S
C1581 H1571 0.930 . S
C1581 C1574 1.409 . S
C1581 C1580 1.362 . S
H1582 C1588 0.930 . S
H1583 C1591 0.932 . S
H1584 C1592 0.930 . S
H1585 C1593 0.930 . S
H1586 C1596 0.930 . S
H1587 C1597 0.930 . S
C1588 H1582 0.930 . S
C1588 C1589 1.355 1_554 S
C1588 C1590 1.415 . S
C1589 C1588 1.355 1_556 S
C1589 C1591 1.419 . S
C1590 C1588 1.415 . S
C1590 C1595 1.425 . S
C1590 C1597 1.409 . S
C1591 H1583 0.932 . S
C1591 C1589 1.419 . S
C1591 C1592 1.360 1_556 S
C1592 H1584 0.930 . S
C1592 C1591 1.360 1_554 S
C1592 C1595 1.409 . S
C1593 H1585 0.930 . S
C1593 C1594 1.355 . S
C1593 C1595 1.415 . S
C1594 C1593 1.355 . S
C1594 C1596 1.419 . S
C1595 C1590 1.425 . S
C1595 C1592 1.409 . S
C1595 C1593 1.415 . S
C1596 H1586 0.930 . S
C1596 C1594 1.419 . S
C1596 C1597 1.362 . S
C1597 H1587 0.930 . S
C1597 C1590 1.409 . S
C1597 C1596 1.362 . S
H1598 C1604 0.930 . S
H1599 C1607 0.930 . S
H1600 C1608 0.930 . S
H1601 C1609 0.930 . S
H1602 C1612 0.930 . S
H1603 C1613 0.930 . S
C1604 H1598 0.930 . S
C1604 C1605 1.355 1_554 S
C1604 C1606 1.415 . S
C1605 C1604 1.355 1_556 S
C1605 C1607 1.419 . S
C1606 C1604 1.415 . S
C1606 C1611 1.425 . S
C1606 C1613 1.409 . S
C1607 H1599 0.930 . S
C1607 C1605 1.419 . S
C1607 C1608 1.362 1_556 S
C1608 H1600 0.930 . S
C1608 C1607 1.362 1_554 S
C1608 C1611 1.409 . S
C1609 H1601 0.930 . S
C1609 C1610 1.355 . S
C1609 C1611 1.415 . S
C1610 C1609 1.355 . S
C1610 C1612 1.419 . S
C1611 C1606 1.425 . S
C1611 C1608 1.409 . S
C1611 C1609 1.415 . S
C1612 H1602 0.930 . S
C1612 C1610 1.419 . S
C1612 C1613 1.362 . S
C1613 H1603 0.930 . S
C1613 C1606 1.409 . S
C1613 C1612 1.362 . S
H1614 C1620 0.930 . S
H1615 C1623 0.930 . S
H1616 C1624 0.930 . S
H1617 C1625 0.930 . S
H1618 C1628 0.930 . S
H1619 C1629 0.930 . S
C1620 H1614 0.930 . S
C1620 C1621 1.355 . S
C1620 C1622 1.415 . S
C1621 C1620 1.355 . S
C1621 C1623 1.419 . S
C1622 C1620 1.415 . S
C1622 C1627 1.425 . S
C1622 C1629 1.409 . S
C1623 H1615 0.930 . S
C1623 C1621 1.419 . S
C1623 C1624 1.362 . S
C1624 H1616 0.930 . S
C1624 C1623 1.362 . S
C1624 C1627 1.409 . S
C1625 H1617 0.930 . S
C1625 C1626 1.355 . S
C1625 C1627 1.415 . S
C1626 C1625 1.355 . S
C1626 C1628 1.419 . S
C1627 C1622 1.425 . S
C1627 C1624 1.409 . S
C1627 C1625 1.415 . S
C1628 H1618 0.930 . S
C1628 C1626 1.419 . S
C1628 C1629 1.362 . S
C1629 H1619 0.930 . S
C1629 C1622 1.409 . S
C1629 C1628 1.362 . S
H1630 C1636 0.930 . S
H1631 C1639 0.930 . S
H1632 C1640 0.930 . S
H1633 C1641 0.930 . S
H1634 C1644 0.930 . S
H1635 C1645 0.930 . S
C1636 H1630 0.930 . S
C1636 C1637 1.355 . S
C1636 C1638 1.415 1_545 S
C1637 C1636 1.355 . S
C1637 C1639 1.419 . S
C1638 C1636 1.415 1_565 S
C1638 C1643 1.425 . S
C1638 C1645 1.409 . S
C1639 H1631 0.930 . S
C1639 C1637 1.419 . S
C1639 C1640 1.362 . S
C1640 H1632 0.930 . S
C1640 C1639 1.362 . S
C1640 C1643 1.409 1_545 S
C1641 H1633 0.930 . S
C1641 C1642 1.355 . S
C1641 C1643 1.415 . S
C1642 C1641 1.355 . S
C1642 C1644 1.419 . S
C1643 C1638 1.425 . S
C1643 C1640 1.409 1_565 S
C1643 C1641 1.415 . S
C1644 H1634 0.930 . S
C1644 C1642 1.419 . S
C1644 C1645 1.362 . S
C1645 H1635 0.930 . S
C1645 C1638 1.409 . S
C1645 C1644 1.362 . S
H1646 C1652 0.930 . S
H1647 C1655 0.930 . S
H1648 C1656 0.930 . S
H1649 C1657 0.930 . S
H1650 C1660 0.930 . S
H1651 C1661 0.930 . S
C1652 H1646 0.930 . S
C1652 C1653 1.355 . S
C1652 C1654 1.415 . S
C1653 C1652 1.355 . S
C1653 C1655 1.419 . S
C1654 C1652 1.415 . S
C1654 C1659 1.425 1_455 S
C1654 C1661 1.409 1_455 S
C1655 H1647 0.930 . S
C1655 C1653 1.419 . S
C1655 C1656 1.362 . S
C1656 H1648 0.930 . S
C1656 C1655 1.362 . S
C1656 C1659 1.409 1_455 S
C1657 H1649 0.930 . S
C1657 C1658 1.355 . S
C1657 C1659 1.415 . S
C1658 C1657 1.355 . S
C1658 C1660 1.419 . S
C1659 C1654 1.425 1_655 S
C1659 C1656 1.409 1_655 S
C1659 C1657 1.415 . S
C1660 H1650 0.930 . S
C1660 C1658 1.419 . S
C1660 C1661 1.362 . S
C1661 H1651 0.930 . S
C1661 C1654 1.409 1_655 S
C1661 C1660 1.362 . S
H1662 C1668 0.930 . S
H1663 C1671 0.930 . S
H1664 C1672 0.930 . S
H1665 C1673 0.930 . S
H1666 C1676 0.930 . S
H1667 C1677 0.930 . S
C1668 H1662 0.930 . S
C1668 C1669 1.355 . S
C1668 C1670 1.415 . S
C1669 C1668 1.355 . S
C1669 C1671 1.419 . S
C1670 C1668 1.415 . S
C1670 C1675 1.425 . S
C1670 C1677 1.409 . S
C1671 H1663 0.930 . S
C1671 C1669 1.419 . S
C1671 C1672 1.362 . S
C1672 H1664 0.930 . S
C1672 C1671 1.362 . S
C1672 C1675 1.409 . S
C1673 H1665 0.930 . S
C1673 C1674 1.355 . S
C1673 C1675 1.415 . S
C1674 C1673 1.355 . S
C1674 C1676 1.419 . S
C1675 C1670 1.425 . S
C1675 C1672 1.409 . S
C1675 C1673 1.415 . S
C1676 H1666 0.930 . S
C1676 C1674 1.419 . S
C1676 C1677 1.362 . S
C1677 H1667 0.930 . S
C1677 C1670 1.409 . S
C1677 C1676 1.362 . S
H1678 C1684 0.930 . S
H1679 C1687 0.930 . S
H1680 C1688 0.930 . S
H1681 C1689 0.930 . S
H1682 C1692 0.930 . S
H1683 C1693 0.930 . S
C1684 H1678 0.930 . S
C1684 C1685 1.355 . S
C1684 C1686 1.415 1_545 S
C1685 C1684 1.355 . S
C1685 C1687 1.419 . S
C1686 C1684 1.415 1_565 S
C1686 C1691 1.425 1_565 S
C1686 C1693 1.409 . S
C1687 H1679 0.930 . S
C1687 C1685 1.419 . S
C1687 C1688 1.362 . S
C1688 H1680 0.930 . S
C1688 C1687 1.362 . S
C1688 C1691 1.409 . S
C1689 H1681 0.930 . S
C1689 C1690 1.355 . S
C1689 C1691 1.415 1_565 S
C1690 C1689 1.355 . S
C1690 C1692 1.419 . S
C1691 C1686 1.425 1_545 S
C1691 C1688 1.409 . S
C1691 C1689 1.415 1_545 S
C1692 H1682 0.930 . S
C1692 C1690 1.419 . S
C1692 C1693 1.362 . S
C1693 H1683 0.930 . S
C1693 C1686 1.409 . S
C1693 C1692 1.362 . S
H1694 C1700 0.930 . S
H1695 C1703 0.930 . S
H1696 C1704 0.930 . S
H1697 C1705 0.930 . S
H1698 C1708 0.930 . S
H1699 C1709 0.930 . S
C1700 H1694 0.930 . S
C1700 C1701 1.355 1_455 S
C1700 C1702 1.415 . S
C1701 C1700 1.355 1_655 S
C1701 C1703 1.419 . S
C1702 C1700 1.415 . S
C1702 C1707 1.425 . S
C1702 C1709 1.409 . S
C1703 H1695 0.930 . S
C1703 C1701 1.419 . S
C1703 C1704 1.362 . S
C1704 H1696 0.930 . S
C1704 C1703 1.362 . S
C1704 C1707 1.409 1_655 S
C1705 H1697 0.930 . S
C1705 C1706 1.355 . S
C1705 C1707 1.415 . S
C1706 C1705 1.355 . S
C1706 C1708 1.419 . S
C1707 C1702 1.425 . S
C1707 C1704 1.409 1_455 S
C1707 C1705 1.415 . S
C1708 H1698 0.930 . S
C1708 C1706 1.419 . S
C1708 C1709 1.362 . S
C1709 H1699 0.930 . S
C1709 C1702 1.409 . S
C1709 C1708 1.362 . S
C565 C51 0.963 . S
C570 C1 0.971 . S
C581 C41 1.366 . S
C586 C72 1.364 . S
C597 C82 1.057 1_455 S
C602 C30 1.059 . S
C613 C144 0.845 . S
C618 C113 0.844 . S
C629 C165 1.213 . S
C634 C134 1.208 . S
C645 C175 1.142 . S
C650 C103 0.996 . S
C661 C206 1.215 . S
C666 C227 1.187 . S
C677 C237 1.292 . S
C682 C258 1.134 . S
C693 C196 1.212 . S
C698 C268 1.249 . S
C709 C309 1.156 . S
C714 C311 1.228 . S
C725 C361 1.277 . S
C730 C340 1.189 . S
C741 C351 1.215 . S
C746 C280 1.231 . S
C757 C373 1.086 . S
C762 C404 1.090 . S
C773 C433 1.554 . S
C778 C444 1.554 . S
C789 C454 1.407 . S
C794 C402 1.283 . S
C805 C497 1.205 . S
C810 C466 1.209 . S
C821 C526 1.585 . S
C826 C537 1.593 . S
C837 C547 1.320 . S
C842 C495 1.272 . S
C853 C0 1.079 . S
C858 C157 1.120 . S
C869 C61 1.085 . S
C874 C95 1.150 . S
C885 C81 1.192 . S
C890 C153 1.148 . S
C901 C50 1.291 . S
C906 C184 1.256 . S
C917 C122 1.093 . S
C922 C92 1.076 . S
C933 C10 1.025 . S
C938 C126 1.072 . S
C949 C64 1.183 . S
C954 C112 1.146 . S
C965 C154 1.065 . S
C970 C29 1.071 . S
C981 C174 1.172 . S
C986 C60 1.102 . S
C997 C143 1.174 . S
C1002 C91 1.102 . S
C1013 C185 1.207 . S
C1018 C2 1.168 . S
C1029 C33 1.206 . S
C1034 C123 1.182 . S
C1045 C205 1.173 . S
C1050 C370 1.088 . S
C1061 C281 1.193 . S
C1066 C236 1.234 1_556 S
C1077 C312 1.264 . S
C1082 C267 1.358 . S
C1093 C247 1.175 . S
C1098 C343 1.252 . S
C1109 C308 1.225 . S
C1114 C278 1.151 . S
C1125 C339 1.055 . S
C1130 C216 1.033 . S
C1141 C289 1.026 . S
C1146 C250 1.090 . S
C1157 C188 1.075 . S
C1162 C320 1.049 . S
C1173 C219 1.286 . S
C1178 C371 1.203 . S
C1189 C277 1.319 . S
C1194 C310 1.376 . S
C1205 C360 1.280 . S
C1210 C215 1.201 . S
C1221 C279 1.088 . S
C1226 C246 1.011 . S
C1237 C372 1.311 . S
C1242 C529 1.315 . S
C1253 C413 1.084 . S
C1258 C494 1.163 . S
C1269 C498 1.307 . S
C1274 C453 1.376 . S
C1285 C403 1.229 . S
C1290 C556 1.180 . S
C1301 C464 1.194 . S
C1306 C467 1.192 . S
C1317 C525 1.288 . S
C1322 C382 1.247 . S
C1333 C465 1.185 . S
C1338 C436 1.240 . S
C1349 C506 1.144 . S
C1354 C401 1.231 . S
C1365 C546 1.250 . S
C1370 C405 1.170 . S
C1381 C496 1.424 . S
C1386 C463 1.361 . S
C1397 C557 1.271 . S
C1402 C374 1.259 . S
C1413 C475 1.178 . S
C1418 C432 1.218 . S
C1429 C20 1.575 . S
C1434 C423 1.593 . S
C1445 C31 2.284 . S
C1450 C434 2.284 . S
C1461 C391 2.096 . S
C1466 C63 1.815 . S
C1477 C187 1.665 . S
C1482 C32 1.644 . S
C1493 C218 1.786 . S
C1498 C62 2.073 . S
C1509 C19 1.925 . S
C1514 C249 1.595 . S
C1525 C94 1.526 . S
C1530 C330 1.488 . S
C1541 C124 1.913 1_655 S
C1546 C342 1.548 . S
C1557 C299 1.717 . S
C1562 C156 1.673 . S
C1573 C125 1.609 . S
C1578 C485 1.584 . S
C1589 C515 2.291 . S
C1594 C155 2.283 . S
C1605 C528 1.824 . S
C1610 C93 2.075 . S
C1621 C217 2.267 . S
C1626 C392 2.051 . S
C1637 C248 2.386 . S
C1642 C422 2.385 . S
C1653 C435 2.046 . S
C1658 C186 2.319 . S
C1669 C298 2.347 . S
C1674 C516 2.111 . S
C1685 C329 2.477 . S
C1690 C527 2.483 . S
C1701 C341 2.454 . S
C1706 C484 2.437 . S
