# Generated by pormake.
# Topology umk, (4)-cn, num edge types: 1
# Building blocks:
#     Node 0, Type 0, BuildingBlock: KUFVIS_clean_sbu_0, # of connection points: 4
#     Node 1, Type 0, BuildingBlock: KUFVIS_clean_sbu_0, # of connection points: 4
#     Node 2, Type 0, BuildingBlock: KUFVIS_clean_sbu_0, # of connection points: 4
#     Node 3, Type 0, BuildingBlock: KUFVIS_clean_sbu_0, # of connection points: 4
#     Node 4, Type 0, BuildingBlock: KUFVIS_clean_sbu_0, # of connection points: 4
#     Node 5, Type 0, BuildingBlock: KUFVIS_clean_sbu_0, # of connection points: 4
#     Node 6, Type 0, BuildingBlock: KUFVIS_clean_sbu_0, # of connection points: 4
#     Node 7, Type 0, BuildingBlock: KUFVIS_clean_sbu_0, # of connection points: 4
#     Node 8, Type 0, BuildingBlock: KUFVIS_clean_sbu_0, # of connection points: 4
#     Node 9, Type 0, BuildingBlock: KUFVIS_clean_sbu_0, # of connection points: 4
#     Node 10, Type 0, BuildingBlock: KUFVIS_clean_sbu_0, # of connection points: 4
#     Node 11, Type 0, BuildingBlock: KUFVIS_clean_sbu_0, # of connection points: 4
#     Node 12, Type 0, BuildingBlock: KUFVIS_clean_sbu_0, # of connection points: 4
#     Node 13, Type 0, BuildingBlock: KUFVIS_clean_sbu_0, # of connection points: 4
#     Node 14, Type 0, BuildingBlock: KUFVIS_clean_sbu_0, # of connection points: 4
#     Node 15, Type 0, BuildingBlock: KUFVIS_clean_sbu_0, # of connection points: 4
#     Node 16, Type 0, BuildingBlock: KUFVIS_clean_sbu_0, # of connection points: 4
#     Node 17, Type 0, BuildingBlock: KUFVIS_clean_sbu_0, # of connection points: 4
#     Node 18, Type 0, BuildingBlock: KUFVIS_clean_sbu_0, # of connection points: 4
#     Node 19, Type 0, BuildingBlock: KUFVIS_clean_sbu_0, # of connection points: 4
#     Node 20, Type 0, BuildingBlock: KUFVIS_clean_sbu_0, # of connection points: 4
#     Node 21, Type 0, BuildingBlock: KUFVIS_clean_sbu_0, # of connection points: 4
#     Node 22, Type 0, BuildingBlock: KUFVIS_clean_sbu_0, # of connection points: 4
#     Node 23, Type 0, BuildingBlock: KUFVIS_clean_sbu_0, # of connection points: 4
#     Edge 24, Type (0, 0), BuildingBlock: OJICUG_clean_linker_0, # of connection points: 2
#     Edge 25, Type (0, 0), BuildingBlock: OJICUG_clean_linker_0, # of connection points: 2
#     Edge 26, Type (0, 0), BuildingBlock: OJICUG_clean_linker_0, # of connection points: 2
#     Edge 27, Type (0, 0), BuildingBlock: OJICUG_clean_linker_0, # of connection points: 2
#     Edge 28, Type (0, 0), BuildingBlock: OJICUG_clean_linker_0, # of connection points: 2
#     Edge 29, Type (0, 0), BuildingBlock: OJICUG_clean_linker_0, # of connection points: 2
#     Edge 30, Type (0, 0), BuildingBlock: OJICUG_clean_linker_0, # of connection points: 2
#     Edge 31, Type (0, 0), BuildingBlock: OJICUG_clean_linker_0, # of connection points: 2
#     Edge 32, Type (0, 0), BuildingBlock: OJICUG_clean_linker_0, # of connection points: 2
#     Edge 33, Type (0, 0), BuildingBlock: OJICUG_clean_linker_0, # of connection points: 2
#     Edge 34, Type (0, 0), BuildingBlock: OJICUG_clean_linker_0, # of connection points: 2
#     Edge 35, Type (0, 0), BuildingBlock: OJICUG_clean_linker_0, # of connection points: 2
#     Edge 36, Type (0, 0), BuildingBlock: OJICUG_clean_linker_0, # of connection points: 2
#     Edge 37, Type (0, 0), BuildingBlock: OJICUG_clean_linker_0, # of connection points: 2
#     Edge 38, Type (0, 0), BuildingBlock: OJICUG_clean_linker_0, # of connection points: 2
#     Edge 39, Type (0, 0), BuildingBlock: OJICUG_clean_linker_0, # of connection points: 2
#     Edge 40, Type (0, 0), BuildingBlock: OJICUG_clean_linker_0, # of connection points: 2
#     Edge 41, Type (0, 0), BuildingBlock: OJICUG_clean_linker_0, # of connection points: 2
#     Edge 42, Type (0, 0), BuildingBlock: OJICUG_clean_linker_0, # of connection points: 2
#     Edge 43, Type (0, 0), BuildingBlock: OJICUG_clean_linker_0, # of connection points: 2
#     Edge 44, Type (0, 0), BuildingBlock: OJICUG_clean_linker_0, # of connection points: 2
#     Edge 45, Type (0, 0), BuildingBlock: OJICUG_clean_linker_0, # of connection points: 2
#     Edge 46, Type (0, 0), BuildingBlock: OJICUG_clean_linker_0, # of connection points: 2
#     Edge 47, Type (0, 0), BuildingBlock: OJICUG_clean_linker_0, # of connection points: 2
#     Edge 48, Type (0, 0), BuildingBlock: OJICUG_clean_linker_0, # of connection points: 2
#     Edge 49, Type (0, 0), BuildingBlock: OJICUG_clean_linker_0, # of connection points: 2
#     Edge 50, Type (0, 0), BuildingBlock: OJICUG_clean_linker_0, # of connection points: 2
#     Edge 51, Type (0, 0), BuildingBlock: OJICUG_clean_linker_0, # of connection points: 2
#     Edge 52, Type (0, 0), BuildingBlock: OJICUG_clean_linker_0, # of connection points: 2
#     Edge 53, Type (0, 0), BuildingBlock: OJICUG_clean_linker_0, # of connection points: 2
#     Edge 54, Type (0, 0), BuildingBlock: OJICUG_clean_linker_0, # of connection points: 2
#     Edge 55, Type (0, 0), BuildingBlock: OJICUG_clean_linker_0, # of connection points: 2
#     Edge 56, Type (0, 0), BuildingBlock: OJICUG_clean_linker_0, # of connection points: 2
#     Edge 57, Type (0, 0), BuildingBlock: OJICUG_clean_linker_0, # of connection points: 2
#     Edge 58, Type (0, 0), BuildingBlock: OJICUG_clean_linker_0, # of connection points: 2
#     Edge 59, Type (0, 0), BuildingBlock: OJICUG_clean_linker_0, # of connection points: 2
#     Edge 60, Type (0, 0), BuildingBlock: OJICUG_clean_linker_0, # of connection points: 2
#     Edge 61, Type (0, 0), BuildingBlock: OJICUG_clean_linker_0, # of connection points: 2
#     Edge 62, Type (0, 0), BuildingBlock: OJICUG_clean_linker_0, # of connection points: 2
#     Edge 63, Type (0, 0), BuildingBlock: OJICUG_clean_linker_0, # of connection points: 2
#     Edge 64, Type (0, 0), BuildingBlock: OJICUG_clean_linker_0, # of connection points: 2
#     Edge 65, Type (0, 0), BuildingBlock: OJICUG_clean_linker_0, # of connection points: 2
#     Edge 66, Type (0, 0), BuildingBlock: OJICUG_clean_linker_0, # of connection points: 2
#     Edge 67, Type (0, 0), BuildingBlock: OJICUG_clean_linker_0, # of connection points: 2
#     Edge 68, Type (0, 0), BuildingBlock: OJICUG_clean_linker_0, # of connection points: 2
#     Edge 69, Type (0, 0), BuildingBlock: OJICUG_clean_linker_0, # of connection points: 2
#     Edge 70, Type (0, 0), BuildingBlock: OJICUG_clean_linker_0, # of connection points: 2
#     Edge 71, Type (0, 0), BuildingBlock: OJICUG_clean_linker_0, # of connection points: 2
# Relax obj value: 0.070
# Max RMSD: 0.063
# Mean RMSD: 0.063
data_MOF--net-umk--node1-KUFVIS_clean_sbu_0--edge1-OJICUG_clean_linker_0
_symmetry_space_group_name_H-M    P1
_symmetry_Int_Tables_number       1
_symmetry_cell_setting            triclinic
loop_
_symmetry_equiv_pos_as_xyz
'x, y, z'
_cell_length_a     48.607222
_cell_length_b     48.443962
_cell_length_c     30.945629
_cell_angle_alpha  89.990199
_cell_angle_beta   90.012126
_cell_angle_gamma 120.1112
loop_
_atom_site_label
_atom_site_type_symbol
_atom_site_fract_x
_atom_site_fract_y
_atom_site_fract_z
_atom_type_partial_charge
Mn0 Mn 0.34871 0.48664 0.07338 0.0
Mn1 Mn 0.41697 0.51413 0.13142 0.0
C2 C 0.39626 0.52726 0.0446 0.0
C3 C 0.30265 0.48631 0.04968 0.0
C4 C 0.38745 0.45248 0.08166 0.0
O5 O 0.33145 0.47194 0.13465 0.0
O6 O 0.37862 0.48988 0.16774 0.0
C7 C 0.40828 0.56055 0.18303 0.0
N8 N 0.4274 0.55303 0.15989 0.0
C9 C 0.47308 0.60474 0.17266 0.0
C10 C 0.45402 0.6129 0.19738 0.0
C11 C 0.42135 0.59093 0.20178 0.0
C12 C 0.45862 0.57429 0.15416 0.0
H13 H 0.38319 0.54364 0.18645 0.0
C14 C 0.34826 0.47536 0.16806 0.0
O15 O 0.30546 0.46112 0.04785 0.0
O16 O 0.32593 0.51146 0.06761 0.0
N17 N 0.45719 0.53819 0.10323 0.0
C18 C 0.4706 0.52866 0.07229 0.0
C19 C 0.50271 0.54875 0.06124 0.0
C20 C 0.52061 0.57836 0.08191 0.0
C21 C 0.50635 0.58755 0.11384 0.0
C22 C 0.4746 0.56618 0.12448 0.0
H23 H 0.457 0.50576 0.05663 0.0
O24 O 0.3727 0.50789 0.02022 0.0
O25 O 0.3922 0.52189 0.08626 0.0
O26 O 0.36267 0.45286 0.06917 0.0
O27 O 0.40945 0.47454 0.10393 0.0
C28 C 0.52205 0.61755 0.1344 0.0
C29 C 0.50534 0.62625 0.16352 0.0
H30 H 0.46395 0.63636 0.2118 0.0
H31 H 0.4062 0.59753 0.21908 0.0
H32 H 0.51383 0.54143 0.03711 0.0
H33 H 0.54518 0.59396 0.07273 0.0
H34 H 0.54662 0.63457 0.12684 0.0
H35 H 0.51727 0.64988 0.17769 0.0
Mn36 Mn 0.87482 0.33592 0.57384 0.0
Mn37 Mn 0.91195 0.40458 0.63273 0.0
C38 C 0.87829 0.38229 0.54552 0.0
C39 C 0.82959 0.28774 0.55339 0.0
C40 C 0.94731 0.37895 0.58189 0.0
O41 O 0.87509 0.31926 0.63449 0.0
O42 O 0.89929 0.36647 0.66902 0.0
C43 C 0.85536 0.39266 0.68308 0.0
N44 N 0.88189 0.41291 0.66041 0.0
C45 C 0.8733 0.45699 0.67293 0.0
C46 C 0.84611 0.43676 0.69713 0.0
C47 C 0.83677 0.40432 0.70142 0.0
C48 C 0.89058 0.4439 0.65478 0.0
H49 H 0.84827 0.36777 0.68648 0.0
C50 C 0.88628 0.33613 0.66846 0.0
O51 O 0.85808 0.29229 0.54852 0.0
O52 O 0.82734 0.31064 0.57171 0.0
N53 N 0.92668 0.44472 0.60459 0.0
C54 C 0.94984 0.45924 0.57413 0.0
C55 C 0.9607 0.49127 0.56329 0.0
C56 C 0.94765 0.50796 0.58372 0.0
C57 C 0.924 0.49259 0.61518 0.0
C58 C 0.91478 0.46098 0.6256 0.0
H59 H 0.9602 0.44661 0.55869 0.0
O60 O 0.87443 0.35888 0.52107 0.0
O61 O 0.88057 0.37852 0.58705 0.0
O62 O 0.92325 0.35373 0.56731 0.0
O63 O 0.94539 0.39914 0.60604 0.0
C64 C 0.90837 0.50697 0.63544 0.0
C65 C 0.88285 0.4891 0.66401 0.0
H66 H 0.83163 0.4456 0.71126 0.0
H67 H 0.8151 0.38826 0.71837 0.0
H68 H 0.97929 0.50325 0.53953 0.0
H69 H 0.95574 0.53246 0.57467 0.0
H70 H 0.91501 0.53139 0.62804 0.0
H71 H 0.87014 0.49999 0.67793 0.0
Mn72 Mn 0.54124 0.87515 0.07603 0.0
Mn73 Mn 0.4948 0.88978 0.14238 0.0
C74 C 0.50265 0.88464 0.04716 0.0
C75 C 0.54792 0.83567 0.04135 0.0
C76 C 0.56287 0.94 0.11873 0.0
O77 O 0.5502 0.86285 0.13562 0.0
O78 O 0.51375 0.86801 0.17412 0.0
C79 C 0.44521 0.82223 0.15524 0.0
N80 N 0.45354 0.85243 0.14297 0.0
C81 C 0.39944 0.83609 0.12417 0.0
C82 C 0.39025 0.80486 0.13695 0.0
C83 C 0.41326 0.79789 0.15243 0.0
C84 C 0.43169 0.85926 0.12729 0.0
H85 H 0.46285 0.81671 0.16684 0.0
C86 C 0.53501 0.86003 0.17046 0.0
O87 O 0.57204 0.86413 0.04788 0.0
O88 O 0.52076 0.83026 0.05595 0.0
N89 N 0.4742 0.91077 0.11725 0.0
C90 C 0.48652 0.94262 0.11028 0.0
C91 C 0.46637 0.95394 0.09677 0.0
C92 C 0.43368 0.93256 0.09156 0.0
C93 C 0.42133 0.90011 0.1007 0.0
C94 C 0.44251 0.89029 0.11456 0.0
H95 H 0.51153 0.95928 0.11492 0.0
O96 O 0.52514 0.88632 0.02291 0.0
O97 O 0.50271 0.87619 0.08688 0.0
O98 O 0.56835 0.92298 0.09205 0.0
O99 O 0.537 0.92927 0.14051 0.0
C100 C 0.38876 0.87722 0.0973 0.0
C101 C 0.37787 0.84516 0.10862 0.0
H102 H 0.3656 0.78606 0.135 0.0
H103 H 0.40639 0.77382 0.16216 0.0
H104 H 0.47599 0.97907 0.0904 0.0
H105 H 0.41825 0.94136 0.08088 0.0
H106 H 0.37187 0.88404 0.08621 0.0
H107 H 0.35278 0.82775 0.10579 0.0
Mn108 Mn 0.67432 0.53175 0.5729 0.0
Mn109 Mn 0.60605 0.50417 0.63092 0.0
C110 C 0.62678 0.49114 0.54408 0.0
C111 C 0.72038 0.5321 0.54921 0.0
C112 C 0.63556 0.56588 0.58129 0.0
O113 O 0.69156 0.54641 0.63419 0.0
O114 O 0.64438 0.52838 0.66729 0.0
C115 C 0.61473 0.45768 0.6824 0.0
N116 N 0.59561 0.46523 0.6593 0.0
C117 C 0.54994 0.41348 0.67192 0.0
C118 C 0.569 0.40529 0.69661 0.0
C119 C 0.60166 0.42726 0.70106 0.0
C120 C 0.5644 0.44397 0.65351 0.0
H121 H 0.63982 0.47459 0.68586 0.0
C122 C 0.67474 0.54293 0.66761 0.0
O123 O 0.71757 0.55729 0.5474 0.0
O124 O 0.69709 0.50695 0.56712 0.0
N125 N 0.56584 0.48014 0.60268 0.0
C126 C 0.55243 0.4897 0.57176 0.0
C127 C 0.52033 0.46962 0.56066 0.0
C128 C 0.50243 0.43998 0.58126 0.0
C129 C 0.51668 0.43075 0.61316 0.0
C130 C 0.54843 0.45212 0.62385 0.0
H131 H 0.56603 0.51263 0.55616 0.0
O132 O 0.65033 0.51053 0.51972 0.0
O133 O 0.63083 0.49648 0.58574 0.0
O134 O 0.66034 0.56552 0.56877 0.0
O135 O 0.61356 0.5438 0.60354 0.0
C136 C 0.50099 0.40071 0.63364 0.0
C137 C 0.51769 0.39198 0.66273 0.0
H138 H 0.55907 0.3818 0.71096 0.0
H139 H 0.61681 0.42064 0.71832 0.0
H140 H 0.50921 0.47697 0.53655 0.0
H141 H 0.47786 0.42439 0.57204 0.0
H142 H 0.47641 0.3837 0.62604 0.0
H143 H 0.50576 0.36832 0.67683 0.0
Mn144 Mn 0.14821 0.68249 0.074 0.0
Mn145 Mn 0.11107 0.61386 0.13295 0.0
C146 C 0.14473 0.63611 0.04575 0.0
C147 C 0.19343 0.73066 0.05351 0.0
C148 C 0.07571 0.63944 0.08198 0.0
O149 O 0.14795 0.69919 0.13462 0.0
O150 O 0.12368 0.65198 0.16917 0.0
C151 C 0.16766 0.62587 0.18341 0.0
N152 N 0.14114 0.60558 0.16073 0.0
C153 C 0.14979 0.56155 0.17341 0.0
C154 C 0.17695 0.58183 0.19761 0.0
C155 C 0.18626 0.61426 0.20184 0.0
C156 C 0.13249 0.5746 0.15517 0.0
H157 H 0.17472 0.65077 0.18675 0.0
C158 C 0.13672 0.68233 0.16858 0.0
O159 O 0.16495 0.72611 0.04863 0.0
O160 O 0.19569 0.70777 0.07187 0.0
N161 N 0.09638 0.5737 0.1049 0.0
C162 C 0.07323 0.55913 0.07443 0.0
C163 C 0.06239 0.5271 0.06367 0.0
C164 C 0.07547 0.51045 0.08418 0.0
C165 C 0.09911 0.52587 0.11565 0.0
C166 C 0.1083 0.55748 0.12598 0.0
H167 H 0.06285 0.57173 0.05893 0.0
O168 O 0.14859 0.65951 0.02127 0.0
O169 O 0.14246 0.6399 0.08727 0.0
O170 O 0.09977 0.66468 0.06745 0.0
O171 O 0.07762 0.61924 0.10615 0.0
C172 C 0.11476 0.51153 0.13598 0.0
C173 C 0.14027 0.52945 0.16456 0.0
H174 H 0.19145 0.57302 0.21181 0.0
H175 H 0.20791 0.63035 0.2188 0.0
H176 H 0.04381 0.51507 0.03991 0.0
H177 H 0.06741 0.48594 0.07519 0.0
H178 H 0.10814 0.48711 0.12864 0.0
H179 H 0.15299 0.51859 0.17855 0.0
Mn180 Mn 0.48179 0.14328 0.57582 0.0
Mn181 Mn 0.52821 0.12868 0.64228 0.0
C182 C 0.52039 0.13378 0.54705 0.0
C183 C 0.47512 0.18274 0.54104 0.0
C184 C 0.46015 0.07845 0.6186 0.0
O185 O 0.47281 0.15561 0.63537 0.0
O186 O 0.50921 0.15042 0.67396 0.0
C187 C 0.57775 0.19625 0.65517 0.0
N188 N 0.56946 0.16605 0.64292 0.0
C189 C 0.62357 0.18245 0.62418 0.0
C190 C 0.63273 0.21367 0.63695 0.0
C191 C 0.60969 0.22061 0.65238 0.0
C192 C 0.59133 0.15925 0.62727 0.0
H193 H 0.56009 0.20174 0.66674 0.0
C194 C 0.48796 0.15841 0.67024 0.0
O195 O 0.451 0.15428 0.54759 0.0
O196 O 0.50227 0.18816 0.55568 0.0
N197 N 0.54885 0.10772 0.61723 0.0
C198 C 0.53658 0.07587 0.6103 0.0
C199 C 0.55675 0.06458 0.59684 0.0
C200 C 0.58944 0.08599 0.59164 0.0
C201 C 0.60175 0.11844 0.60075 0.0
C202 C 0.58054 0.12823 0.61457 0.0
H203 H 0.51157 0.05919 0.61493 0.0
O204 O 0.4979 0.13208 0.52276 0.0
O205 O 0.52032 0.14225 0.58675 0.0
O206 O 0.45467 0.09545 0.5919 0.0
O207 O 0.48603 0.08917 0.64038 0.0
C208 C 0.63431 0.14136 0.59736 0.0
C209 C 0.64517 0.17341 0.60866 0.0
H210 H 0.65737 0.23249 0.63502 0.0
H211 H 0.61654 0.24467 0.66211 0.0
H212 H 0.54716 0.03946 0.5905 0.0
H213 H 0.60489 0.07721 0.581 0.0
H214 H 0.65122 0.13456 0.58631 0.0
H215 H 0.67025 0.19083 0.60585 0.0
Mn216 Mn 0.54829 0.68162 0.93882 0.0
Mn217 Mn 0.51659 0.61265 0.88061 0.0
C218 C 0.50531 0.63545 0.96741 0.0
C219 C 0.55139 0.72994 0.95883 0.0
C220 C 0.57758 0.6384 0.93144 0.0
O221 O 0.56514 0.69797 0.87806 0.0
O222 O 0.54216 0.65055 0.84404 0.0
C223 C 0.47207 0.62452 0.82975 0.0
N224 N 0.47825 0.60431 0.85273 0.0
C225 C 0.42551 0.5603 0.84037 0.0
C226 C 0.41867 0.58049 0.81586 0.0
C227 C 0.44185 0.61288 0.81134 0.0
C228 C 0.45586 0.57338 0.85859 0.0
H229 H 0.48995 0.64938 0.82619 0.0
C230 C 0.5595 0.6809 0.8443 0.0
O231 O 0.57529 0.72535 0.9638 0.0
O232 O 0.52619 0.707 0.94065 0.0
N233 N 0.49103 0.57268 0.9091 0.0
C234 C 0.49958 0.55824 0.93981 0.0
C235 C 0.47833 0.52629 0.9509 0.0
C236 C 0.44858 0.50959 0.93047 0.0
C237 C 0.4404 0.52487 0.89875 0.0
C238 C 0.46287 0.55639 0.88809 0.0
H239 H 0.52258 0.57088 0.95525 0.0
O240 O 0.52495 0.65891 0.99173 0.0
O241 O 0.51137 0.63903 0.92588 0.0
O242 O 0.57889 0.66379 0.94557 0.0
O243 O 0.55537 0.61806 0.90755 0.0
C244 C 0.4104 0.51048 0.87844 0.0
C245 C 0.40286 0.52827 0.84956 0.0
H246 H 0.39536 0.57166 0.80166 0.0
H247 H 0.43632 0.62892 0.79419 0.0
H248 H 0.48487 0.51436 0.97484 0.0
H249 H 0.4321 0.48515 0.9397 0.0
H250 H 0.39254 0.48612 0.88602 0.0
H251 H 0.37926 0.51739 0.83559 0.0
Mn252 Mn 0.87211 0.53186 0.43919 0.0
Mn253 Mn 0.91303 0.50433 0.38167 0.0
C254 C 0.87896 0.49127 0.46824 0.0
C255 C 0.82633 0.53217 0.46265 0.0
C256 C 0.94503 0.56607 0.43116 0.0
O257 O 0.86961 0.54641 0.3778 0.0
O258 O 0.89905 0.52856 0.34509 0.0
C259 C 0.85811 0.45788 0.32977 0.0
N260 N 0.88466 0.46541 0.35315 0.0
C261 C 0.87865 0.41368 0.34064 0.0
C262 C 0.85153 0.40552 0.31566 0.0
C263 C 0.84087 0.42749 0.31101 0.0
C264 C 0.89458 0.44414 0.35912 0.0
H265 H 0.84995 0.47479 0.32615 0.0
C266 C 0.88315 0.54302 0.34454 0.0
O267 O 0.85431 0.55739 0.46446 0.0
O268 O 0.82452 0.50701 0.44486 0.0
N269 N 0.92907 0.48027 0.41019 0.0
C270 C 0.95187 0.48979 0.44134 0.0
C271 C 0.96382 0.46969 0.45268 0.0
C272 C 0.95218 0.44007 0.43206 0.0
C273 C 0.92886 0.43087 0.39994 0.0
C274 C 0.91855 0.45226 0.38902 0.0
H275 H 0.96111 0.5127 0.45696 0.0
O276 O 0.87482 0.51071 0.4925 0.0
O277 O 0.88037 0.4966 0.42657 0.0
O278 O 0.91983 0.56571 0.44338 0.0
O279 O 0.94504 0.54394 0.40918 0.0
C280 C 0.91462 0.40086 0.37942 0.0
C281 C 0.88935 0.39216 0.35005 0.0
H282 H 0.83806 0.38205 0.30124 0.0
H283 H 0.81919 0.42089 0.29353 0.0
H284 H 0.98215 0.47701 0.47699 0.0
H285 H 0.9611 0.42446 0.44144 0.0
H286 H 0.92214 0.38383 0.38718 0.0
H287 H 0.87769 0.36852 0.33591 0.0
Mn288 Mn 0.3491 0.87608 0.93695 0.0
Mn289 Mn 0.41087 0.89131 0.87175 0.0
C290 C 0.39699 0.88564 0.9667 0.0
C291 C 0.30272 0.83633 0.97093 0.0
C292 C 0.39206 0.94098 0.89444 0.0
O293 O 0.3285 0.8639 0.8769 0.0
O294 O 0.37045 0.86891 0.83938 0.0
C295 C 0.39423 0.82408 0.8594 0.0
N296 N 0.41562 0.85445 0.87168 0.0
C297 C 0.45413 0.83921 0.8909 0.0
C298 C 0.43261 0.80783 0.87812 0.0
C299 C 0.40249 0.80022 0.86244 0.0
C300 C 0.44442 0.86188 0.88758 0.0
H301 H 0.37098 0.8181 0.84761 0.0
C302 C 0.34118 0.86093 0.84244 0.0
O303 O 0.30696 0.86475 0.96434 0.0
O304 O 0.32469 0.8311 0.95673 0.0
N305 N 0.45219 0.91293 0.89767 0.0
C306 C 0.47103 0.94479 0.90534 0.0
C307 C 0.50246 0.95668 0.91942 0.0
C308 C 0.51448 0.93587 0.92445 0.0
C309 C 0.49507 0.9034 0.91474 0.0
C310 C 0.46404 0.89299 0.90045 0.0
H311 H 0.46215 0.96104 0.90084 0.0
O312 O 0.37591 0.88716 0.99059 0.0
O313 O 0.38886 0.8774 0.92685 0.0
O314 O 0.36965 0.92393 0.92118 0.0
O315 O 0.40741 0.93038 0.87288 0.0
C316 C 0.50543 0.88104 0.91817 0.0
C317 C 0.48485 0.84889 0.9067 0.0
H318 H 0.43896 0.78939 0.88023 0.0
H319 H 0.38569 0.77603 0.8527 0.0
H320 H 0.51738 0.9818 0.92641 0.0
H321 H 0.53868 0.94511 0.93555 0.0
H322 H 0.52921 0.88834 0.92949 0.0
H323 H 0.49303 0.83189 0.90965 0.0
Mn324 Mn 0.47473 0.33675 0.43836 0.0
Mn325 Mn 0.50633 0.40572 0.38014 0.0
C326 C 0.51773 0.38293 0.46689 0.0
C327 C 0.47165 0.28844 0.45838 0.0
C328 C 0.44542 0.37996 0.43111 0.0
O329 O 0.45783 0.32038 0.37762 0.0
O330 O 0.48069 0.36781 0.34361 0.0
C331 C 0.55074 0.39382 0.32912 0.0
N332 N 0.54461 0.41404 0.35213 0.0
C333 C 0.59733 0.45803 0.33961 0.0
C334 C 0.60412 0.43783 0.31505 0.0
C335 C 0.58092 0.40545 0.3106 0.0
C336 C 0.56702 0.44497 0.35793 0.0
H337 H 0.53286 0.36895 0.3256 0.0
C338 C 0.46339 0.33745 0.34388 0.0
O339 O 0.44775 0.29304 0.46337 0.0
O340 O 0.49683 0.31137 0.44017 0.0
N341 N 0.53194 0.4457 0.40856 0.0
C342 C 0.52345 0.46016 0.43931 0.0
C343 C 0.54473 0.49212 0.45033 0.0
C344 C 0.57444 0.5088 0.42981 0.0
C345 C 0.58256 0.4935 0.39805 0.0
C346 C 0.56007 0.46197 0.38746 0.0
H347 H 0.50048 0.44754 0.45481 0.0
O348 O 0.49811 0.35947 0.49124 0.0
O349 O 0.51163 0.37935 0.42537 0.0
O350 O 0.44413 0.35457 0.44518 0.0
O351 O 0.4676 0.40033 0.4072 0.0
C352 C 0.61252 0.50788 0.37765 0.0
C353 C 0.62 0.49007 0.34873 0.0
H354 H 0.6274 0.44665 0.30077 0.0
H355 H 0.58641 0.38939 0.2934 0.0
H356 H 0.53824 0.50407 0.4743 0.0
H357 H 0.59095 0.53325 0.439 0.0
H358 H 0.63039 0.53224 0.38518 0.0
H359 H 0.64357 0.50094 0.33469 0.0
Mn360 Mn 0.15091 0.48652 0.93956 0.0
Mn361 Mn 0.10994 0.51403 0.88204 0.0
C362 C 0.14403 0.5271 0.9686 0.0
C363 C 0.19669 0.48624 0.96305 0.0
C364 C 0.07798 0.45228 0.93153 0.0
O365 O 0.15341 0.47199 0.87817 0.0
O366 O 0.12393 0.4898 0.84546 0.0
C367 C 0.16483 0.56048 0.83011 0.0
N368 N 0.13829 0.55295 0.8535 0.0
C369 C 0.14426 0.60467 0.84099 0.0
C370 C 0.17137 0.61284 0.81599 0.0
C371 C 0.18204 0.59087 0.81134 0.0
C372 C 0.12835 0.5742 0.85948 0.0
H373 H 0.173 0.54358 0.82649 0.0
C374 C 0.13984 0.47536 0.84491 0.0
O375 O 0.16873 0.46101 0.96484 0.0
O376 O 0.19849 0.51139 0.94525 0.0
N377 N 0.09389 0.53807 0.91056 0.0
C378 C 0.07111 0.52853 0.94172 0.0
C379 C 0.05915 0.54862 0.95306 0.0
C380 C 0.07076 0.57824 0.93243 0.0
C381 C 0.09407 0.58745 0.9003 0.0
C382 C 0.1044 0.56608 0.88939 0.0
H383 H 0.06188 0.50563 0.95735 0.0
O384 O 0.14819 0.50766 0.99287 0.0
O385 O 0.14262 0.52177 0.92693 0.0
O386 O 0.10319 0.45265 0.94373 0.0
O387 O 0.07795 0.47441 0.90956 0.0
C388 C 0.10828 0.61746 0.87977 0.0
C389 C 0.13354 0.62617 0.8504 0.0
H390 H 0.18482 0.6363 0.80156 0.0
H391 H 0.20372 0.59749 0.79385 0.0
H392 H 0.04083 0.5413 0.97738 0.0
H393 H 0.06183 0.59384 0.9418 0.0
H394 H 0.10076 0.63448 0.88753 0.0
H395 H 0.14519 0.64981 0.83625 0.0
Mn396 Mn 0.6739 0.14228 0.43691 0.0
Mn397 Mn 0.61209 0.12702 0.37173 0.0
C398 C 0.62603 0.13273 0.46667 0.0
C399 C 0.72029 0.18204 0.47085 0.0
C400 C 0.63092 0.07736 0.39447 0.0
O401 O 0.69447 0.15444 0.37685 0.0
O402 O 0.65249 0.1494 0.33933 0.0
C403 C 0.62873 0.19423 0.35931 0.0
N404 N 0.60734 0.16387 0.37162 0.0
C405 C 0.56883 0.17912 0.39081 0.0
C406 C 0.59034 0.21049 0.37799 0.0
C407 C 0.62046 0.2181 0.36231 0.0
C408 C 0.57855 0.15644 0.38752 0.0
H409 H 0.65196 0.20022 0.34752 0.0
C410 C 0.68177 0.15739 0.34238 0.0
O411 O 0.71605 0.15362 0.46428 0.0
O412 O 0.69832 0.18727 0.45664 0.0
N413 N 0.57079 0.1054 0.39767 0.0
C414 C 0.55196 0.07354 0.40538 0.0
C415 C 0.52053 0.06166 0.41947 0.0
C416 C 0.50851 0.08247 0.42446 0.0
C417 C 0.52791 0.11493 0.41472 0.0
C418 C 0.55893 0.12534 0.40042 0.0
H419 H 0.56084 0.0573 0.40091 0.0
O420 O 0.64711 0.13122 0.49056 0.0
O421 O 0.63414 0.14095 0.42681 0.0
O422 O 0.65334 0.09442 0.42119 0.0
O423 O 0.61556 0.08794 0.3729 0.0
C424 C 0.51754 0.13729 0.41811 0.0
C425 C 0.53811 0.16944 0.4066 0.0
H426 H 0.58399 0.22893 0.38008 0.0
H427 H 0.63726 0.24229 0.35255 0.0
H428 H 0.50562 0.03655 0.42649 0.0
H429 H 0.48431 0.07324 0.43557 0.0
H430 H 0.49377 0.12999 0.42943 0.0
H431 H 0.52993 0.18644 0.40953 0.0
Mn432 Mn 0.67439 0.53167 0.93908 0.0
Mn433 Mn 0.60611 0.50415 0.88106 0.0
C434 C 0.62685 0.49103 0.96787 0.0
C435 C 0.72046 0.53202 0.96275 0.0
C436 C 0.63561 0.56579 0.93083 0.0
O437 O 0.69163 0.54638 0.8778 0.0
O438 O 0.64444 0.52842 0.84474 0.0
C439 C 0.61484 0.45776 0.82944 0.0
N440 N 0.5957 0.46526 0.85258 0.0
C441 C 0.55006 0.41353 0.83982 0.0
C442 C 0.56913 0.40539 0.81509 0.0
C443 C 0.60179 0.42738 0.81069 0.0
C444 C 0.56449 0.44398 0.85832 0.0
H445 H 0.63992 0.47469 0.82601 0.0
C446 C 0.6748 0.54296 0.8444 0.0
O447 O 0.71764 0.5572 0.96459 0.0
O448 O 0.69718 0.50687 0.94482 0.0
N449 N 0.56589 0.48006 0.90926 0.0
C450 C 0.55247 0.48957 0.9402 0.0
C451 C 0.52036 0.46946 0.95125 0.0
C452 C 0.50248 0.43985 0.93058 0.0
C453 C 0.51675 0.43067 0.89865 0.0
C454 C 0.5485 0.45207 0.888 0.0
H455 H 0.56605 0.51247 0.95587 0.0
O456 O 0.65041 0.51041 0.99224 0.0
O457 O 0.63089 0.4964 0.92621 0.0
O458 O 0.6604 0.56543 0.94329 0.0
O459 O 0.6136 0.54373 0.90857 0.0
C460 C 0.50108 0.40067 0.87808 0.0
C461 C 0.5178 0.392 0.84896 0.0
H462 H 0.55922 0.38193 0.80066 0.0
H463 H 0.61695 0.4208 0.79338 0.0
H464 H 0.50923 0.47676 0.97539 0.0
H465 H 0.47791 0.42423 0.93977 0.0
H466 H 0.4765 0.38364 0.88564 0.0
H467 H 0.50588 0.36837 0.83478 0.0
Mn468 Mn 0.14811 0.68246 0.43867 0.0
Mn469 Mn 0.111 0.61383 0.37974 0.0
C470 C 0.14463 0.63608 0.46698 0.0
C471 C 0.19334 0.73064 0.45915 0.0
C472 C 0.07563 0.63944 0.43058 0.0
O473 O 0.14787 0.69915 0.37803 0.0
O474 O 0.12367 0.65194 0.34348 0.0
C475 C 0.1676 0.62576 0.32941 0.0
N476 N 0.14106 0.6055 0.35207 0.0
C477 C 0.14966 0.56143 0.33952 0.0
C478 C 0.17685 0.58167 0.31534 0.0
C479 C 0.1862 0.61411 0.31107 0.0
C480 C 0.13238 0.57451 0.35768 0.0
H481 H 0.17469 0.65066 0.32603 0.0
C482 C 0.13669 0.68229 0.34405 0.0
O483 O 0.16486 0.72609 0.46401 0.0
O484 O 0.19559 0.70774 0.44083 0.0
N485 N 0.09626 0.57367 0.40785 0.0
C486 C 0.07309 0.55914 0.4383 0.0
C487 C 0.06222 0.52711 0.44912 0.0
C488 C 0.07529 0.51043 0.42868 0.0
C489 C 0.09894 0.52581 0.39723 0.0
C490 C 0.10817 0.55742 0.38684 0.0
H491 H 0.06273 0.57177 0.45374 0.0
O492 O 0.14849 0.65949 0.49143 0.0
O493 O 0.14236 0.63987 0.42545 0.0
O494 O 0.09968 0.66466 0.44517 0.0
O495 O 0.07755 0.61925 0.40643 0.0
C496 C 0.11458 0.51144 0.37697 0.0
C497 C 0.14011 0.52932 0.34842 0.0
H498 H 0.19135 0.57284 0.3012 0.0
H499 H 0.20787 0.63018 0.29413 0.0
H500 H 0.04363 0.51511 0.47286 0.0
H501 H 0.06719 0.48592 0.43771 0.0
H502 H 0.10794 0.48701 0.38435 0.0
H503 H 0.15282 0.51843 0.33449 0.0
Mn504 Mn 0.48178 0.14318 0.93638 0.0
Mn505 Mn 0.52819 0.12857 0.86994 0.0
C506 C 0.52039 0.13368 0.96517 0.0
C507 C 0.47512 0.18264 0.97113 0.0
C508 C 0.46014 0.07834 0.89362 0.0
O509 O 0.4728 0.1555 0.87682 0.0
O510 O 0.50921 0.15034 0.83824 0.0
C511 C 0.57776 0.19614 0.85705 0.0
N512 N 0.56945 0.16593 0.86931 0.0
C513 C 0.62356 0.1823 0.88807 0.0
C514 C 0.63273 0.21353 0.8753 0.0
C515 C 0.6097 0.22048 0.85985 0.0
C516 C 0.59132 0.15912 0.88497 0.0
H517 H 0.56011 0.20164 0.84547 0.0
C518 C 0.48796 0.15832 0.84196 0.0
O519 O 0.45099 0.15418 0.96459 0.0
O520 O 0.50227 0.18806 0.9565 0.0
N521 N 0.54882 0.1076 0.89501 0.0
C522 C 0.53653 0.07575 0.90196 0.0
C523 C 0.5567 0.06444 0.91545 0.0
C524 C 0.58939 0.08584 0.92065 0.0
C525 C 0.60171 0.11829 0.91152 0.0
C526 C 0.58051 0.1281 0.89768 0.0
H527 H 0.51152 0.05908 0.89733 0.0
O528 O 0.49791 0.13198 0.98945 0.0
O529 O 0.52031 0.14215 0.92546 0.0
O530 O 0.45467 0.09535 0.92032 0.0
O531 O 0.48601 0.08907 0.87183 0.0
C532 C 0.63428 0.1412 0.91492 0.0
C533 C 0.64515 0.17326 0.90361 0.0
H534 H 0.65738 0.23234 0.87724 0.0
H535 H 0.61656 0.24455 0.85012 0.0
H536 H 0.54709 0.03932 0.92181 0.0
H537 H 0.60482 0.07705 0.93131 0.0
H538 H 0.65118 0.13439 0.92599 0.0
H539 H 0.67023 0.19067 0.90643 0.0
Mn540 Mn 0.34865 0.48672 0.43955 0.0
Mn541 Mn 0.41693 0.51434 0.38153 0.0
C542 C 0.39618 0.52735 0.46838 0.0
C543 C 0.30258 0.48634 0.46324 0.0
C544 C 0.38745 0.45263 0.43116 0.0
O545 O 0.33141 0.47205 0.37826 0.0
O546 O 0.37859 0.4901 0.34517 0.0
C547 C 0.40818 0.56079 0.33006 0.0
N548 N 0.42733 0.55326 0.35315 0.0
C549 C 0.47296 0.60503 0.34051 0.0
C550 C 0.45388 0.6132 0.31584 0.0
C551 C 0.42123 0.59121 0.3114 0.0
C552 C 0.45853 0.57454 0.35893 0.0
H553 H 0.3831 0.54387 0.3266 0.0
C554 C 0.34823 0.47553 0.34485 0.0
O555 O 0.3054 0.46116 0.46505 0.0
O556 O 0.32585 0.5115 0.44533 0.0
N557 N 0.45714 0.5384 0.40976 0.0
C558 C 0.47056 0.52885 0.44067 0.0
C559 C 0.50267 0.54895 0.45175 0.0
C560 C 0.52054 0.57859 0.43115 0.0
C561 C 0.50627 0.58781 0.39926 0.0
C562 C 0.47452 0.56642 0.38858 0.0
H563 H 0.45698 0.50592 0.45628 0.0
O564 O 0.37263 0.50795 0.49273 0.0
O565 O 0.39213 0.52201 0.42671 0.0
O566 O 0.36266 0.45297 0.44368 0.0
O567 O 0.40944 0.47472 0.40893 0.0
C568 C 0.52194 0.61784 0.37878 0.0
C569 C 0.50522 0.62655 0.34969 0.0
H570 H 0.46379 0.63668 0.30149 0.0
H571 H 0.40606 0.59781 0.29414 0.0
H572 H 0.5138 0.54161 0.47586 0.0
H573 H 0.54511 0.5942 0.44036 0.0
H574 H 0.54651 0.63486 0.38637 0.0
H575 H 0.51712 0.65021 0.33559 0.0
Mn576 Mn 0.87491 0.33586 0.93853 0.0
Mn577 Mn 0.91213 0.40452 0.87966 0.0
C578 C 0.87841 0.38225 0.96681 0.0
C579 C 0.82966 0.2877 0.95898 0.0
C580 C 0.94741 0.37887 0.93063 0.0
O581 O 0.87517 0.31919 0.87789 0.0
O582 O 0.89951 0.36642 0.84341 0.0
C583 C 0.8556 0.39259 0.82912 0.0
N584 N 0.8821 0.41285 0.85186 0.0
C585 C 0.87351 0.45692 0.83919 0.0
C586 C 0.84636 0.43668 0.81493 0.0
C587 C 0.83703 0.40424 0.81068 0.0
C588 C 0.89077 0.44384 0.85745 0.0
H589 H 0.84852 0.3677 0.82575 0.0
C590 C 0.88644 0.33607 0.84395 0.0
O591 O 0.85814 0.29223 0.96387 0.0
O592 O 0.82743 0.3106 0.94063 0.0
N593 N 0.92683 0.44467 0.90776 0.0
C594 C 0.94996 0.45921 0.93826 0.0
C595 C 0.96081 0.49124 0.94906 0.0
C596 C 0.94776 0.50792 0.92854 0.0
C597 C 0.92415 0.49253 0.89704 0.0
C598 C 0.91494 0.46092 0.88667 0.0
H599 H 0.96031 0.44658 0.95376 0.0
O600 O 0.87453 0.35883 0.99128 0.0
O601 O 0.8807 0.37847 0.92529 0.0
O602 O 0.92334 0.35363 0.94512 0.0
O603 O 0.94554 0.3991 0.90649 0.0
C604 C 0.90854 0.50691 0.87669 0.0
C605 C 0.88305 0.48902 0.84807 0.0
H606 H 0.83189 0.44551 0.80072 0.0
H607 H 0.81539 0.38817 0.79367 0.0
H608 H 0.97937 0.50323 0.97284 0.0
H609 H 0.95584 0.53242 0.93756 0.0
H610 H 0.91516 0.53133 0.88405 0.0
H611 H 0.87035 0.49991 0.83407 0.0
Mn612 Mn 0.54116 0.87517 0.43662 0.0
Mn613 Mn 0.49474 0.88977 0.37016 0.0
C614 C 0.50256 0.88468 0.46539 0.0
C615 C 0.54783 0.83571 0.47141 0.0
C616 C 0.5628 0.93999 0.39382 0.0
O617 O 0.55013 0.86283 0.37707 0.0
O618 O 0.51371 0.86799 0.33848 0.0
C619 C 0.44517 0.8222 0.35732 0.0
N620 N 0.45348 0.85241 0.36955 0.0
C621 C 0.39937 0.83605 0.38829 0.0
C622 C 0.39019 0.80482 0.37555 0.0
C623 C 0.41322 0.79786 0.36012 0.0
C624 C 0.43162 0.85923 0.38519 0.0
H625 H 0.46281 0.8167 0.34575 0.0
C626 C 0.53496 0.86001 0.3422 0.0
O627 O 0.57195 0.86416 0.46485 0.0
O628 O 0.52067 0.83029 0.45677 0.0
N629 N 0.47412 0.91075 0.3952 0.0
C630 C 0.48642 0.9426 0.40212 0.0
C631 C 0.46626 0.95392 0.41558 0.0
C632 C 0.43357 0.93253 0.42079 0.0
C633 C 0.42123 0.90007 0.41169 0.0
C634 C 0.44243 0.89026 0.39788 0.0
H635 H 0.51143 0.95927 0.39749 0.0
O636 O 0.52505 0.88637 0.48968 0.0
O637 O 0.50263 0.8762 0.42569 0.0
O638 O 0.56827 0.92299 0.42053 0.0
O639 O 0.53693 0.92926 0.37203 0.0
C640 C 0.38867 0.87717 0.41509 0.0
C641 C 0.37779 0.84511 0.40381 0.0
H642 H 0.36555 0.78602 0.37749 0.0
H643 H 0.40635 0.77379 0.35041 0.0
H644 H 0.47587 0.97905 0.42192 0.0
H645 H 0.41813 0.94132 0.43143 0.0
H646 H 0.37177 0.88399 0.42614 0.0
H647 H 0.35271 0.8277 0.40663 0.0
Mn648 Mn 0.4748 0.3367 0.07367 0.0
Mn649 Mn 0.50652 0.40569 0.13183 0.0
C650 C 0.5178 0.38285 0.04507 0.0
C651 C 0.47169 0.28837 0.05369 0.0
C652 C 0.44554 0.37994 0.081 0.0
O653 O 0.45794 0.32037 0.13444 0.0
O654 O 0.48092 0.3678 0.16842 0.0
C655 C 0.55101 0.3938 0.18273 0.0
N656 N 0.54484 0.41401 0.15975 0.0
C657 C 0.5976 0.45801 0.1721 0.0
C658 C 0.60442 0.43782 0.19663 0.0
C659 C 0.58123 0.40543 0.20115 0.0
C660 C 0.56725 0.44494 0.15388 0.0
H661 H 0.53312 0.36894 0.1863 0.0
C662 C 0.46358 0.33745 0.16817 0.0
O663 O 0.4478 0.29297 0.04871 0.0
O664 O 0.49689 0.3113 0.07187 0.0
N665 N 0.53209 0.44565 0.10334 0.0
C666 C 0.52356 0.46009 0.07261 0.0
C667 C 0.54483 0.49204 0.06152 0.0
C668 C 0.57458 0.50873 0.08196 0.0
C669 C 0.58274 0.49344 0.1137 0.0
C670 C 0.56026 0.46193 0.12436 0.0
H671 H 0.50057 0.44746 0.05716 0.0
O672 O 0.49815 0.35939 0.02075 0.0
O673 O 0.51173 0.37929 0.0866 0.0
O674 O 0.44422 0.35454 0.06689 0.0
O675 O 0.46775 0.40029 0.10487 0.0
C676 C 0.61273 0.50783 0.13401 0.0
C677 C 0.62026 0.49003 0.16291 0.0
H678 H 0.62773 0.44664 0.21084 0.0
H679 H 0.58675 0.38938 0.21832 0.0
H680 H 0.5383 0.50397 0.03756 0.0
H681 H 0.59107 0.53317 0.07272 0.0
H682 H 0.6306 0.53218 0.12642 0.0
H683 H 0.64385 0.50091 0.17688 0.0
Mn684 Mn 0.15083 0.48652 0.5733 0.0
Mn685 Mn 0.10989 0.51404 0.63083 0.0
C686 C 0.14395 0.5271 0.54425 0.0
C687 C 0.19661 0.48623 0.54983 0.0
C688 C 0.07791 0.45228 0.58134 0.0
O689 O 0.15333 0.47197 0.63469 0.0
O690 O 0.1239 0.48983 0.66742 0.0
C691 C 0.1648 0.56052 0.68271 0.0
N692 N 0.13825 0.55297 0.65932 0.0
C693 C 0.14421 0.60469 0.6718 0.0
C694 C 0.17134 0.61288 0.69678 0.0
C695 C 0.18202 0.59092 0.70144 0.0
C696 C 0.1283 0.57421 0.65334 0.0
H697 H 0.17298 0.54363 0.68634 0.0
C698 C 0.1398 0.47537 0.66796 0.0
O699 O 0.16864 0.461 0.54803 0.0
O700 O 0.19841 0.51138 0.56763 0.0
N701 N 0.09382 0.53806 0.60229 0.0
C702 C 0.07103 0.52851 0.57113 0.0
C703 C 0.05905 0.5486 0.55977 0.0
C704 C 0.07068 0.57822 0.58037 0.0
C705 C 0.09399 0.58744 0.6125 0.0
C706 C 0.10433 0.56608 0.62344 0.0
H707 H 0.0618 0.5056 0.55552 0.0
O708 O 0.14811 0.50766 0.51999 0.0
O709 O 0.14255 0.52177 0.58592 0.0
O710 O 0.10311 0.45265 0.56911 0.0
O711 O 0.07789 0.47441 0.60334 0.0
C712 C 0.10821 0.61746 0.633 0.0
C713 C 0.13349 0.62618 0.66237 0.0
H714 H 0.1848 0.63635 0.71119 0.0
H715 H 0.20371 0.59755 0.71892 0.0
H716 H 0.04073 0.54126 0.53546 0.0
H717 H 0.06174 0.59381 0.57098 0.0
H718 H 0.10068 0.63447 0.62523 0.0
H719 H 0.14513 0.64983 0.6765 0.0
Mn720 Mn 0.67394 0.14227 0.07544 0.0
Mn721 Mn 0.61213 0.12703 0.14057 0.0
C722 C 0.62607 0.13271 0.04563 0.0
C723 C 0.72033 0.18202 0.04149 0.0
C724 C 0.63095 0.07736 0.11791 0.0
O725 O 0.69451 0.15445 0.1355 0.0
O726 O 0.65253 0.14941 0.17298 0.0
C727 C 0.62878 0.19426 0.15292 0.0
N728 N 0.60739 0.1639 0.14063 0.0
C729 C 0.5689 0.17916 0.12138 0.0
C730 C 0.59041 0.21053 0.13419 0.0
C731 C 0.62053 0.21813 0.14989 0.0
C732 C 0.5786 0.15647 0.12471 0.0
H733 H 0.65202 0.20024 0.16473 0.0
C734 C 0.6818 0.1574 0.16995 0.0
O735 O 0.71609 0.15361 0.0481 0.0
O736 O 0.69836 0.18725 0.05567 0.0
N737 N 0.57083 0.10542 0.11461 0.0
C738 C 0.55198 0.07356 0.10692 0.0
C739 C 0.52056 0.06169 0.09281 0.0
C740 C 0.50854 0.0825 0.08778 0.0
C741 C 0.52795 0.11497 0.09751 0.0
C742 C 0.55898 0.12537 0.11182 0.0
H743 H 0.56085 0.05731 0.11142 0.0
O744 O 0.64715 0.13119 0.02177 0.0
O745 O 0.63418 0.14094 0.08549 0.0
O746 O 0.65338 0.09442 0.0912 0.0
O747 O 0.61558 0.08795 0.13944 0.0
C748 C 0.5176 0.13733 0.09408 0.0
C749 C 0.53818 0.16948 0.10557 0.0
H750 H 0.58407 0.22897 0.13207 0.0
H751 H 0.63733 0.24232 0.15964 0.0
H752 H 0.50563 0.03657 0.08581 0.0
H753 H 0.48435 0.07327 0.07667 0.0
H754 H 0.49383 0.13004 0.08275 0.0
H755 H 0.53 0.18649 0.10261 0.0
Mn756 Mn 0.54824 0.68172 0.57412 0.0
Mn757 Mn 0.51664 0.61273 0.6323 0.0
C758 C 0.50523 0.63554 0.54557 0.0
C759 C 0.55131 0.73003 0.55412 0.0
C760 C 0.57755 0.63851 0.58133 0.0
O761 O 0.56514 0.69807 0.63487 0.0
O762 O 0.54228 0.65063 0.66884 0.0
C763 C 0.47223 0.62461 0.68336 0.0
N764 N 0.47836 0.6044 0.66032 0.0
C765 C 0.42564 0.56039 0.67283 0.0
C766 C 0.41886 0.58058 0.69742 0.0
C767 C 0.44204 0.61297 0.70189 0.0
C768 C 0.45595 0.57347 0.6545 0.0
H769 H 0.49011 0.64947 0.68689 0.0
C770 C 0.55957 0.68099 0.66859 0.0
O771 O 0.57521 0.72544 0.54912 0.0
O772 O 0.52613 0.7071 0.57233 0.0
N773 N 0.49103 0.57276 0.60385 0.0
C774 C 0.49952 0.55831 0.57309 0.0
C775 C 0.47825 0.52636 0.56204 0.0
C776 C 0.44854 0.50966 0.58257 0.0
C777 C 0.44042 0.52495 0.61434 0.0
C778 C 0.46291 0.55647 0.62495 0.0
H779 H 0.52249 0.57095 0.55758 0.0
O780 O 0.52485 0.65901 0.52123 0.0
O781 O 0.51133 0.63911 0.58709 0.0
O782 O 0.57884 0.66391 0.56728 0.0
O783 O 0.55537 0.61814 0.60522 0.0
C784 C 0.41046 0.51056 0.63475 0.0
C785 C 0.40298 0.52836 0.6637 0.0
H786 H 0.39558 0.57175 0.7117 0.0
H787 H 0.43655 0.62901 0.7191 0.0
H788 H 0.48473 0.51442 0.53805 0.0
H789 H 0.43204 0.48522 0.57337 0.0
H790 H 0.39259 0.4862 0.62721 0.0
H791 H 0.37941 0.51747 0.67774 0.0
Mn792 Mn 0.87219 0.53183 0.07294 0.0
Mn793 Mn 0.91309 0.5043 0.13059 0.0
C794 C 0.87908 0.49124 0.04395 0.0
C795 C 0.82642 0.53212 0.04939 0.0
C796 C 0.94511 0.56605 0.0811 0.0
O797 O 0.86966 0.54638 0.13431 0.0
O798 O 0.89906 0.52851 0.16712 0.0
C799 C 0.85814 0.45782 0.18241 0.0
N800 N 0.88471 0.46536 0.15908 0.0
C801 C 0.87871 0.41364 0.1716 0.0
C802 C 0.85157 0.40546 0.19653 0.0
C803 C 0.8409 0.42742 0.20114 0.0
C804 C 0.89465 0.44411 0.15314 0.0
H805 H 0.84996 0.47472 0.186 0.0
C806 C 0.88317 0.54298 0.16761 0.0
O807 O 0.85439 0.55734 0.0476 0.0
O808 O 0.82461 0.50696 0.06721 0.0
N809 N 0.92917 0.48026 0.10212 0.0
C810 C 0.95198 0.48981 0.07101 0.0
C811 C 0.96396 0.46972 0.05971 0.0
C812 C 0.95231 0.44009 0.08032 0.0
C813 C 0.92897 0.43087 0.1124 0.0
C814 C 0.91864 0.45225 0.12328 0.0
H815 H 0.96123 0.51272 0.05539 0.0
O816 O 0.87494 0.51068 0.01966 0.0
O817 O 0.88046 0.49658 0.08562 0.0
O818 O 0.91992 0.56569 0.06882 0.0
O819 O 0.94511 0.54392 0.10312 0.0
C820 C 0.91473 0.40085 0.13291 0.0
C821 C 0.88944 0.39214 0.16223 0.0
H822 H 0.8381 0.38199 0.21094 0.0
H823 H 0.81919 0.4208 0.21858 0.0
H824 H 0.98231 0.47705 0.03543 0.0
H825 H 0.96125 0.4245 0.07098 0.0
H826 H 0.92226 0.38384 0.12518 0.0
H827 H 0.87777 0.36849 0.17636 0.0
Mn828 Mn 0.34904 0.87617 0.57552 0.0
Mn829 Mn 0.41086 0.89145 0.6407 0.0
C830 C 0.39692 0.88573 0.54576 0.0
C831 C 0.30266 0.83638 0.54159 0.0
C832 C 0.392 0.94108 0.61797 0.0
O833 O 0.32848 0.86399 0.63558 0.0
O834 O 0.37046 0.86903 0.67309 0.0
C835 C 0.39428 0.82424 0.65309 0.0
N836 N 0.41564 0.85461 0.64079 0.0
C837 C 0.45419 0.83941 0.6216 0.0
C838 C 0.4327 0.80803 0.63441 0.0
C839 C 0.40257 0.8004 0.65008 0.0
C840 C 0.44445 0.86207 0.6249 0.0
H841 H 0.37103 0.81824 0.66488 0.0
C842 C 0.34118 0.86103 0.67004 0.0
O843 O 0.30689 0.8648 0.54816 0.0
O844 O 0.32464 0.83117 0.5558 0.0
N845 N 0.45216 0.91309 0.61476 0.0
C846 C 0.47097 0.94495 0.60705 0.0
C847 C 0.5024 0.95686 0.59296 0.0
C848 C 0.51446 0.93608 0.58797 0.0
C849 C 0.49508 0.90361 0.59771 0.0
C850 C 0.46404 0.89318 0.61201 0.0
H851 H 0.46207 0.96118 0.61152 0.0
O852 O 0.37583 0.88723 0.52187 0.0
O853 O 0.38882 0.87751 0.58562 0.0
O854 O 0.36959 0.92402 0.59124 0.0
O855 O 0.40736 0.9305 0.63955 0.0
C856 C 0.50547 0.88128 0.59432 0.0
C857 C 0.48492 0.84912 0.60582 0.0
H858 H 0.43907 0.78961 0.63232 0.0
H859 H 0.38579 0.7762 0.65984 0.0
H860 H 0.5173 0.98198 0.58594 0.0
H861 H 0.53865 0.94533 0.57687 0.0
H862 H 0.52925 0.8886 0.58301 0.0
H863 H 0.49312 0.83214 0.60288 0.0
C864 C 0.32262 0.48206 0.23367 0.0
C865 C 0.33353 0.4643 0.21091 0.0
H866 H 0.31787 0.49888 0.29596 0.0
C867 C 0.3406 0.44367 0.23396 0.0
H868 H 0.31788 0.49879 0.21667 0.0
C869 C 0.34058 0.44371 0.27911 0.0
C870 C 0.33351 0.46439 0.30201 0.0
H871 H 0.34967 0.43025 0.21718 0.0
H872 H 0.34965 0.43032 0.296 0.0
C873 C 0.32261 0.4821 0.27909 0.0
C874 C 0.91155 0.32968 0.73357 0.0
C875 C 0.88345 0.32116 0.71077 0.0
H876 H 0.93418 0.33995 0.7955 0.0
C877 C 0.85466 0.30868 0.73358 0.0
H878 H 0.93409 0.33998 0.71667 0.0
C879 C 0.85471 0.30866 0.77892 0.0
C880 C 0.88354 0.32112 0.80161 0.0
H881 H 0.83286 0.3028 0.71669 0.0
H882 H 0.83294 0.30276 0.79589 0.0
C883 C 0.91159 0.32965 0.77869 0.0
C884 C 0.51912 0.82461 0.2789 0.0
C885 C 0.54348 0.85029 0.3017 0.0
H886 H 0.49803 0.80692 0.217 0.0
C887 C 0.57037 0.87308 0.27901 0.0
H888 H 0.49802 0.80692 0.29568 0.0
C889 C 0.57038 0.87308 0.23369 0.0
C890 C 0.54349 0.85029 0.21099 0.0
H891 H 0.58917 0.89342 0.29587 0.0
H892 H 0.58919 0.89342 0.21686 0.0
C893 C 0.51913 0.82461 0.23377 0.0
C894 C 0.68242 0.5747 0.77858 0.0
C895 C 0.68952 0.55406 0.80155 0.0
H896 H 0.67331 0.58808 0.7166 0.0
C897 C 0.70042 0.53633 0.77871 0.0
H898 H 0.67335 0.5881 0.79542 0.0
C899 C 0.7004 0.53631 0.73329 0.0
C900 C 0.68947 0.55404 0.71045 0.0
H901 H 0.70518 0.51958 0.79565 0.0
H902 H 0.70514 0.51956 0.71636 0.0
C903 C 0.6824 0.57469 0.73343 0.0
C904 C 0.11151 0.68878 0.27887 0.0
C905 C 0.13958 0.69727 0.30174 0.0
H906 H 0.08895 0.6785 0.21689 0.0
C907 C 0.16839 0.70973 0.27899 0.0
H908 H 0.08895 0.67848 0.29573 0.0
C909 C 0.16839 0.70975 0.23366 0.0
C910 C 0.13959 0.6973 0.2109 0.0
H911 H 0.19017 0.71559 0.29594 0.0
H912 H 0.19017 0.71562 0.21673 0.0
C913 C 0.11151 0.68879 0.23375 0.0
C914 C 0.45256 0.14527 0.77876 0.0
C915 C 0.47944 0.16807 0.80146 0.0
H916 H 0.43376 0.12495 0.71659 0.0
C917 C 0.50379 0.19377 0.77868 0.0
H918 H 0.43378 0.12491 0.7956 0.0
C919 C 0.50378 0.19379 0.73355 0.0
C920 C 0.47943 0.16812 0.71075 0.0
H921 H 0.52488 0.21147 0.79547 0.0
H922 H 0.52487 0.21151 0.71679 0.0
C923 C 0.45255 0.1453 0.73343 0.0
C924 C 0.59084 0.68666 0.73391 0.0
C925 C 0.5717 0.6957 0.71104 0.0
H926 H 0.60276 0.67598 0.79588 0.0
C927 C 0.55576 0.70862 0.73378 0.0
H928 H 0.6028 0.67604 0.71705 0.0
C929 C 0.55573 0.70858 0.77912 0.0
C930 C 0.57164 0.69564 0.80187 0.0
H931 H 0.54018 0.71492 0.71683 0.0
H932 H 0.54013 0.71486 0.79606 0.0
C933 C 0.59082 0.68663 0.77902 0.0
C934 C 0.85097 0.53649 0.27877 0.0
C935 C 0.87964 0.55409 0.30161 0.0
H936 H 0.82943 0.51983 0.21642 0.0
C937 C 0.90742 0.5746 0.27863 0.0
H938 H 0.82944 0.51986 0.29571 0.0
C939 C 0.90742 0.57458 0.23349 0.0
C940 C 0.87964 0.55406 0.21051 0.0
H941 H 0.92991 0.5879 0.29548 0.0
H942 H 0.92991 0.58788 0.21665 0.0
C943 C 0.85097 0.53648 0.23335 0.0
C944 C 0.31852 0.87343 0.73359 0.0
C945 C 0.32332 0.8511 0.71086 0.0
H946 H 0.31941 0.89345 0.79579 0.0
C947 C 0.32283 0.82581 0.73365 0.0
H948 H 0.31942 0.89348 0.71675 0.0
C949 C 0.32283 0.82579 0.77878 0.0
C950 C 0.32331 0.85105 0.80161 0.0
H951 H 0.3268 0.80849 0.71685 0.0
H952 H 0.3268 0.80845 0.79553 0.0
C953 C 0.31851 0.87341 0.77893 0.0
C954 C 0.43217 0.33176 0.2785 0.0
C955 C 0.45129 0.32272 0.30143 0.0
H956 H 0.4203 0.34242 0.21649 0.0
C957 C 0.46723 0.30978 0.27875 0.0
H958 H 0.42022 0.34241 0.29532 0.0
C959 C 0.46728 0.30979 0.23341 0.0
C960 C 0.4514 0.32273 0.2106 0.0
H961 H 0.48279 0.30347 0.29575 0.0
H962 H 0.48289 0.30349 0.21653 0.0
C963 C 0.43222 0.33177 0.23339 0.0
C964 C 0.11555 0.4438 0.73386 0.0
C965 C 0.14333 0.4643 0.71089 0.0
H966 H 0.09306 0.43051 0.79584 0.0
C967 C 0.172 0.48187 0.73372 0.0
H968 H 0.09305 0.43052 0.71702 0.0
C969 C 0.17201 0.48186 0.77914 0.0
C970 C 0.14334 0.46429 0.80198 0.0
H971 H 0.19354 0.4985 0.71678 0.0
H972 H 0.19355 0.49849 0.79608 0.0
C973 C 0.11555 0.44379 0.77901 0.0
C974 C 0.70442 0.14494 0.27886 0.0
C975 C 0.69963 0.16729 0.30155 0.0
H976 H 0.70353 0.12489 0.21669 0.0
C977 C 0.70012 0.19256 0.27872 0.0
H978 H 0.70351 0.12489 0.29574 0.0
C979 C 0.70013 0.19257 0.2336 0.0
C980 C 0.69965 0.16729 0.2108 0.0
H981 H 0.69616 0.2099 0.29549 0.0
H982 H 0.69618 0.2099 0.21681 0.0
C983 C 0.70444 0.14494 0.23352 0.0
C984 C 0.25176 0.51556 0.9951 0.0
C985 C 0.22446 0.48665 0.9838 0.0
H986 H 0.29761 0.5382 0.02579 0.0
C987 C 0.22291 0.45784 0.99531 0.0
H988 H 0.25353 0.53817 0.98712 0.0
C989 C 0.2481 0.45785 0.01722 0.0
C990 C 0.2753 0.48669 0.02887 0.0
H991 H 0.20217 0.43515 0.98732 0.0
H992 H 0.24621 0.43518 0.02511 0.0
C993 C 0.27683 0.51558 0.0177 0.0
C994 C 0.74607 0.23339 0.51173 0.0
C995 C 0.74807 0.2076 0.49438 0.0
H996 H 0.76977 0.27829 0.5445 0.0
C997 C 0.77671 0.20735 0.49895 0.0
H998 H 0.72426 0.23422 0.5092 0.0
C999 C 0.80314 0.23303 0.519 0.0
C1000 C 0.8012 0.25912 0.53552 0.0
H1001 H 0.77896 0.18781 0.486 0.0
H1002 H 0.8252 0.23267 0.521 0.0
C1003 C 0.77216 0.25865 0.53226 0.0
C1004 C 0.57903 0.81043 0.01305 0.0
C1005 C 0.55015 0.81021 0.01758 0.0
H1006 H 0.60214 0.78502 0.99111 0.0
C1007 C 0.52237 0.78448 1.00015 0.0
H1008 H 0.60082 0.82992 0.02608 0.0
C1009 C 0.52316 0.75919 0.97965 0.0
C1010 C 0.55169 0.75865 0.9765 0.0
H1011 H 0.49975 0.78369 1.00265 0.0
H1012 H 0.50111 0.73958 0.96739 0.0
C1013 C 0.57974 0.78472 0.99303 0.0
C1014 C 0.7462 0.50284 0.51724 0.0
C1015 C 0.74773 0.53173 0.52841 0.0
H1016 H 0.76949 0.48024 0.48669 0.0
C1017 C 0.77493 0.56057 0.51678 0.0
H1018 H 0.72541 0.48022 0.52532 0.0
C1019 C 0.80013 0.56058 0.49489 0.0
C1020 C 0.79857 0.53176 0.48339 0.0
H1021 H 0.77683 0.58324 0.52467 0.0
H1022 H 0.82087 0.58327 0.48691 0.0
C1023 C 0.77126 0.50285 0.49466 0.0
C1024 C 0.24631 0.81104 0.99902 0.0
C1025 C 0.27495 0.81078 0.99447 0.0
H1026 H 0.19782 0.78573 0.02106 0.0
C1027 C 0.27695 0.78501 0.01185 0.0
H1028 H 0.24405 0.83057 0.98604 0.0
C1029 C 0.25086 0.75975 0.0324 0.0
C1030 C 0.22182 0.75928 0.03563 0.0
H1031 H 0.29876 0.78418 0.00934 0.0
H1032 H 0.25326 0.74011 0.04466 0.0
C1033 C 0.21988 0.78536 0.01908 0.0
C1034 C 0.44401 0.20797 0.51265 0.0
C1035 C 0.47288 0.20818 0.51722 0.0
H1036 H 0.4209 0.23336 0.49066 0.0
C1037 C 0.50067 0.23391 0.49978 0.0
H1038 H 0.42222 0.18848 0.5257 0.0
C1039 C 0.49988 0.25919 0.47924 0.0
C1040 C 0.47134 0.25973 0.47607 0.0
H1041 H 0.52329 0.2347 0.50231 0.0
H1042 H 0.52192 0.2788 0.46697 0.0
C1043 C 0.4433 0.23367 0.4926 0.0
C1044 C 0.80022 0.56052 0.01708 0.0
C1045 C 0.79866 0.5317 0.02861 0.0
H1046 H 0.77691 0.58317 0.98727 0.0
C1047 C 0.77136 0.50279 0.01733 0.0
H1048 H 0.82095 0.58321 0.02506 0.0
C1049 C 0.74629 0.50277 0.99473 0.0
C1050 C 0.74782 0.53166 0.98354 0.0
H1051 H 0.76959 0.48018 0.02532 0.0
H1052 H 0.72551 0.48014 0.98665 0.0
C1053 C 0.77502 0.56049 0.99517 0.0
C1054 C 0.21979 0.78536 0.49351 0.0
C1055 C 0.22173 0.75927 0.477 0.0
H1056 H 0.24397 0.8306 0.52647 0.0
C1057 C 0.25078 0.75975 0.48025 0.0
H1058 H 0.19773 0.78572 0.49151 0.0
C1059 C 0.27688 0.78502 0.50076 0.0
C1060 C 0.27487 0.81081 0.51809 0.0
H1061 H 0.25317 0.7401 0.46802 0.0
H1062 H 0.29868 0.7842 0.50328 0.0
C1063 C 0.24623 0.81106 0.51353 0.0
C1064 C 0.50068 0.2338 0.01238 0.0
C1065 C 0.47289 0.20808 0.99493 0.0
H1066 H 0.52194 0.27869 0.04517 0.0
C1067 C 0.44402 0.20788 0.99946 0.0
H1068 H 0.52329 0.23458 0.00988 0.0
C1069 C 0.44332 0.23359 0.01949 0.0
C1070 C 0.47137 0.25965 0.03603 0.0
H1071 H 0.42222 0.1884 0.98641 0.0
H1072 H 0.42092 0.2333 0.0214 0.0
C1073 C 0.49989 0.25909 0.0329 0.0
C1074 C 0.25167 0.51556 0.51781 0.0
C1075 C 0.22438 0.48665 0.52909 0.0
H1076 H 0.29752 0.53821 0.48714 0.0
C1077 C 0.22283 0.45783 0.51758 0.0
H1078 H 0.25344 0.53817 0.52578 0.0
C1079 C 0.24803 0.45786 0.49569 0.0
C1080 C 0.27522 0.4867 0.48405 0.0
H1081 H 0.2021 0.43514 0.52557 0.0
H1082 H 0.24614 0.43519 0.4878 0.0
C1083 C 0.27674 0.51559 0.49522 0.0
C1084 C 0.80319 0.23298 0.99338 0.0
C1085 C 0.80126 0.25908 0.97684 0.0
H1086 H 0.77899 0.18776 0.02639 0.0
C1087 C 0.77223 0.25862 0.98008 0.0
H1088 H 0.82524 0.23261 0.99139 0.0
C1089 C 0.74613 0.23337 1.0006 0.0
C1090 C 0.74812 0.20758 0.01797 0.0
H1091 H 0.76985 0.27827 0.96782 0.0
H1092 H 0.72433 0.23421 1.00312 0.0
C1093 C 0.77675 0.20731 0.01342 0.0
C1094 C 0.57894 0.81049 0.49982 0.0
C1095 C 0.55007 0.81027 0.49524 0.0
H1096 H 0.60206 0.78511 0.52184 0.0
C1097 C 0.52228 0.78455 0.51268 0.0
H1098 H 0.60073 0.82998 0.48678 0.0
C1099 C 0.52307 0.75927 0.53324 0.0
C1100 C 0.55161 0.75873 0.53642 0.0
H1101 H 0.49966 0.78375 0.51014 0.0
H1102 H 0.50103 0.73966 0.5455 0.0
C1103 C 0.57966 0.7848 0.51989 0.0
C1104 C 0.41356 0.42953 0.03768 0.0
C1105 C 0.39196 0.42554 0.07053 0.0
H1106 H 0.44698 0.41647 0.01427 0.0
C1107 C 0.3826 0.4005 0.10021 0.0
H1108 H 0.42172 0.44927 0.01519 0.0
C1109 C 0.39707 0.38175 0.09971 0.0
C1110 C 0.42098 0.38783 0.06946 0.0
H1111 H 0.36665 0.39763 0.1265 0.0
H1112 H 0.39211 0.36495 0.12578 0.0
C1113 C 0.42792 0.41071 0.03707 0.0
C1114 C 0.0286 0.42871 0.53777 0.0
C1115 C 0.04648 0.42513 0.5706 0.0
H1116 H 0.9819 0.41511 0.51466 0.0
C1117 C 0.0311 0.40029 0.60065 0.0
H1118 H 0.03993 0.44829 0.51501 0.0
C1119 C 0.99789 0.38136 0.6005 0.0
C1120 C 0.97978 0.38701 0.57021 0.0
H1121 H 0.0444 0.39774 0.62693 0.0
H1122 H 0.98628 0.36474 0.62682 0.0
C1123 C 0.99543 0.40967 0.53749 0.0
C1124 C 0.60715 0.99191 0.08853 0.0
C1125 C 0.58586 0.97486 0.12224 0.0
H1126 H 0.63844 0.03791 0.06065 0.0
C1127 C 0.58357 0.99212 0.15724 0.0
H1128 H 0.60945 0.9794 0.061 0.0
C1129 C 0.60008 0.02543 0.15703 0.0
C1130 C 0.61942 0.04259 0.12182 0.0
H1131 H 0.56777 0.97989 0.18406 0.0
H1132 H 0.59643 0.03772 0.1837 0.0
C1133 C 0.62379 0.02548 0.08832 0.0
C1134 C 0.60941 0.58893 0.53757 0.0
C1135 C 0.63106 0.59286 0.57032 0.0
H1136 H 0.57598 0.60207 0.51443 0.0
C1137 C 0.64048 0.61785 0.6001 0.0
H1138 H 0.6012 0.56924 0.51502 0.0
C1139 C 0.62602 0.63661 0.59978 0.0
C1140 C 0.60207 0.6306 0.56963 0.0
H1141 H 0.65648 0.62067 0.62631 0.0
H1142 H 0.63103 0.65337 0.62592 0.0
C1143 C 0.59506 0.60778 0.53715 0.0
C1144 C 0.99188 0.61806 0.10044 0.0
C1145 C 0.97654 0.59321 0.07041 0.0
H1146 H 0.03665 0.65365 0.12671 0.0
C1147 C 0.99449 0.58962 0.03768 0.0
H1148 H 0.97853 0.62062 0.12664 0.0
C1149 C 0.02766 0.60867 0.03749 0.0
C1150 C 0.04325 0.63135 0.07021 0.0
H1151 H 0.98319 0.57003 0.01493 0.0
H1152 H 0.04122 0.60323 0.01475 0.0
C1153 C 0.02508 0.63701 0.10039 0.0
C1154 C 0.41585 0.02653 0.58843 0.0
C1155 C 0.43715 0.04359 0.62214 0.0
H1156 H 0.38454 0.98052 0.5606 0.0
C1157 C 0.43941 0.02634 0.65718 0.0
H1158 H 0.41357 0.03902 0.56087 0.0
C1159 C 0.42288 0.99304 0.65703 0.0
C1160 C 0.40354 0.97586 0.62183 0.0
H1161 H 0.45522 0.03859 0.68401 0.0
H1162 H 0.42652 0.98075 0.68374 0.0
C1163 C 0.39919 0.99296 0.58828 0.0
C1164 C 0.62602 0.63655 0.91274 0.0
C1165 C 0.60212 0.63049 0.94299 0.0
H1166 H 0.65643 0.62064 0.88596 0.0
C1167 C 0.59516 0.60761 0.97538 0.0
H1168 H 0.63099 0.65335 0.88666 0.0
C1169 C 0.6095 0.58877 0.97478 0.0
C1170 C 0.6311 0.59274 0.94194 0.0
H1171 H 0.57612 0.60189 0.99818 0.0
H1172 H 0.60133 0.56904 0.99728 0.0
C1173 C 0.64048 0.61778 0.91225 0.0
C1174 C 0.99182 0.61807 0.41188 0.0
C1175 C 0.97645 0.59322 0.44191 0.0
H1176 H 0.03663 0.65365 0.3857 0.0
C1177 C 0.99436 0.58963 0.47471 0.0
H1178 H 0.97851 0.62063 0.38562 0.0
C1179 C 0.02753 0.60869 0.47498 0.0
C1180 C 0.04316 0.63137 0.44227 0.0
H1181 H 0.98304 0.57004 0.49746 0.0
H1182 H 0.04107 0.60325 0.49779 0.0
C1183 C 0.02503 0.63702 0.41201 0.0
C1184 C 0.41586 0.02643 0.92384 0.0
C1185 C 0.43715 0.04348 0.89012 0.0
H1186 H 0.38458 0.98044 0.95172 0.0
C1187 C 0.43943 0.02622 0.85512 0.0
H1188 H 0.41357 0.03894 0.95136 0.0
C1189 C 0.42292 0.99291 0.85532 0.0
C1190 C 0.40359 0.97575 0.89053 0.0
H1191 H 0.45523 0.03846 0.82829 0.0
H1192 H 0.42657 0.98062 0.82864 0.0
C1193 C 0.39923 0.99286 0.92404 0.0
C1194 C 0.41362 0.42958 0.47486 0.0
C1195 C 0.39195 0.42566 0.44213 0.0
H1196 H 0.44704 0.41643 0.49799 0.0
C1197 C 0.38251 0.40065 0.41237 0.0
H1198 H 0.42184 0.44929 0.4974 0.0
C1199 C 0.39696 0.38188 0.41268 0.0
C1200 C 0.42092 0.38789 0.44282 0.0
H1201 H 0.3665 0.39783 0.38617 0.0
H1202 H 0.39193 0.36511 0.38655 0.0
C1203 C 0.42795 0.41073 0.47528 0.0
C1204 C 0.02862 0.4287 0.97497 0.0
C1205 C 0.04657 0.4251 0.94225 0.0
H1206 H 0.98189 0.41508 0.9979 0.0
C1207 C 0.03124 0.40023 0.91224 0.0
H1208 H 0.03991 0.4483 0.99771 0.0
C1209 C 0.99803 0.38128 0.91229 0.0
C1210 C 0.97987 0.38694 0.94246 0.0
H1211 H 0.04459 0.39767 0.88604 0.0
H1212 H 0.98647 0.36463 0.88598 0.0
C1213 C 0.99546 0.40963 0.97517 0.0
C1214 C 0.58352 0.9921 0.35525 0.0
C1215 C 0.5858 0.97485 0.39028 0.0
H1216 H 0.59639 0.03769 0.32871 0.0
C1217 C 0.60709 0.99191 0.42399 0.0
H1218 H 0.56771 0.97985 0.32842 0.0
C1219 C 0.62374 0.02549 0.42415 0.0
C1220 C 0.61938 0.04258 0.39061 0.0
H1221 H 0.60939 0.97942 0.45154 0.0
H1222 H 0.6384 0.03793 0.45182 0.0
C1223 C 0.60004 0.0254 0.35541 0.0
C1224 C 0.47165 0.60742 0.03206 0.0
C1225 C 0.47562 0.60952 0.98696 0.0
H1226 H 0.43895 0.58355 0.08376 0.0
C1227 C 0.44931 0.58903 0.96191 0.0
H1228 H 0.48928 0.62547 0.05312 0.0
C1229 C 0.42408 0.56148 0.98009 0.0
C1230 C 0.42251 0.55682 0.02507 0.0
H1231 H 0.44816 0.59467 0.92874 0.0
H1232 H 0.4054 0.54453 0.95911 0.0
C1233 C 0.44397 0.58252 0.05033 0.0
C1234 C 0.86921 0.42905 0.55093 0.0
C1235 C 0.87496 0.40848 0.52597 0.0
H1236 H 0.87019 0.47377 0.55369 0.0
C1237 C 0.87345 0.41078 0.48085 0.0
H1238 H 0.86217 0.42335 0.58401 0.0
C1239 C 0.87105 0.43589 0.46252 0.0
C1240 C 0.87533 0.46158 0.48782 0.0
H1241 H 0.87302 0.39274 0.45977 0.0
H1242 H 0.86523 0.435 0.42903 0.0
C1243 C 0.87192 0.45679 0.53276 0.0
C1244 C 0.42276 0.85681 0.99636 0.0
C1245 C 0.42437 0.88585 0.98673 0.0
H1246 H 0.44645 0.83392 0.02473 0.0
C1247 C 0.45142 0.9146 0.99835 0.0
H1248 H 0.40178 0.83437 0.98817 0.0
C1249 C 0.47756 0.91435 0.01681 0.0
C1250 C 0.47559 0.88534 0.02761 0.0
H1251 H 0.45261 0.93718 0.99223 0.0
H1252 H 0.49902 0.93676 0.02348 0.0
C1253 C 0.4481 0.85655 0.01723 0.0
C1254 C 0.55145 0.41093 0.53151 0.0
C1255 C 0.54743 0.40887 0.48642 0.0
H1256 H 0.58419 0.4348 0.58319 0.0
C1257 C 0.5737 0.42941 0.46135 0.0
H1258 H 0.53386 0.39285 0.55258 0.0
C1259 C 0.59892 0.45697 0.47953 0.0
C1260 C 0.60054 0.46159 0.52452 0.0
H1261 H 0.57483 0.4238 0.42817 0.0
H1262 H 0.61757 0.47395 0.45856 0.0
C1263 C 0.57913 0.43585 0.54978 0.0
C1264 C 0.15196 0.58248 0.96283 0.0
C1265 C 0.14767 0.55679 0.98816 0.0
H1266 H 0.15 0.62564 0.96003 0.0
C1267 C 0.15109 0.56159 0.0331 0.0
H1268 H 0.15777 0.58336 0.92934 0.0
C1269 C 0.15381 0.58934 0.05123 0.0
C1270 C 0.14806 0.60991 0.02624 0.0
H1271 H 0.15281 0.54462 0.05404 0.0
H1272 H 0.16085 0.59505 0.08432 0.0
C1273 C 0.14956 0.60759 0.98112 0.0
C1274 C 0.54547 0.10405 0.51679 0.0
C1275 C 0.54745 0.13307 0.52754 0.0
H1276 H 0.57042 0.08121 0.49227 0.0
C1277 C 0.57493 0.16185 0.51714 0.0
H1278 H 0.52402 0.08165 0.52349 0.0
C1279 C 0.60027 0.16158 0.49628 0.0
C1280 C 0.59866 0.13253 0.4867 0.0
H1281 H 0.57659 0.18449 0.52459 0.0
H1282 H 0.62125 0.18402 0.48806 0.0
C1283 C 0.57161 0.10379 0.49835 0.0
C1284 C 0.55148 0.41086 0.98042 0.0
C1285 C 0.5475 0.40877 0.02552 0.0
H1286 H 0.58418 0.43472 0.92872 0.0
C1287 C 0.5738 0.42926 0.05056 0.0
H1288 H 0.53385 0.3928 0.95936 0.0
C1289 C 0.59904 0.45682 0.03239 0.0
C1290 C 0.60061 0.46147 0.98741 0.0
H1291 H 0.57495 0.42363 0.08374 0.0
H1292 H 0.61772 0.47377 0.05336 0.0
C1293 C 0.57916 0.43576 0.96214 0.0
C1294 C 0.1537 0.58931 0.46156 0.0
C1295 C 0.14796 0.60989 0.48653 0.0
H1296 H 0.15271 0.5446 0.4588 0.0
C1297 C 0.14945 0.60758 0.53165 0.0
H1298 H 0.16075 0.59503 0.42848 0.0
C1299 C 0.15185 0.58248 0.54997 0.0
C1300 C 0.14758 0.55678 0.52467 0.0
H1301 H 0.14988 0.62563 0.55273 0.0
H1302 H 0.15767 0.58337 0.58346 0.0
C1303 C 0.15099 0.56158 0.47973 0.0
C1304 C 0.57165 0.10375 0.01393 0.0
C1305 C 0.59869 0.13249 0.02557 0.0
H1306 H 0.52405 0.08157 0.98878 0.0
C1307 C 0.60028 0.16153 0.01595 0.0
H1308 H 0.57048 0.08117 0.02004 0.0
C1309 C 0.57494 0.16178 0.99508 0.0
C1310 C 0.54746 0.13299 0.98468 0.0
H1311 H 0.62126 0.18398 0.02417 0.0
H1312 H 0.57658 0.18441 0.9876 0.0
C1313 C 0.54551 0.10398 0.99546 0.0
C1314 C 0.4715 0.60756 0.48095 0.0
C1315 C 0.47553 0.60961 0.52604 0.0
H1316 H 0.43876 0.58371 0.42927 0.0
C1317 C 0.44926 0.58907 0.55111 0.0
H1318 H 0.48908 0.62565 0.45989 0.0
C1319 C 0.42404 0.56151 0.53292 0.0
C1320 C 0.42242 0.5569 0.48794 0.0
H1321 H 0.44814 0.59466 0.5843 0.0
H1322 H 0.40539 0.54452 0.5539 0.0
C1323 C 0.44382 0.58265 0.46268 0.0
C1324 C 0.87356 0.41075 0.03144 0.0
C1325 C 0.87508 0.40845 0.98632 0.0
H1326 H 0.86532 0.43497 0.08321 0.0
C1327 C 0.86935 0.42902 0.96132 0.0
H1328 H 0.87311 0.3927 0.05254 0.0
C1329 C 0.87206 0.45676 0.97946 0.0
C1330 C 0.87546 0.46156 0.02441 0.0
H1331 H 0.86233 0.42332 0.92823 0.0
H1332 H 0.87036 0.47374 0.95851 0.0
C1333 C 0.87116 0.43586 0.04973 0.0
C1334 C 0.47748 0.91441 0.49564 0.0
C1335 C 0.47551 0.88539 0.4849 0.0
H1336 H 0.45253 0.93725 0.52015 0.0
C1337 C 0.44802 0.85661 0.4953 0.0
H1338 H 0.49894 0.93681 0.48895 0.0
C1339 C 0.42269 0.85688 0.51615 0.0
C1340 C 0.42429 0.88593 0.52573 0.0
H1341 H 0.44637 0.83397 0.48785 0.0
H1342 H 0.4017 0.83444 0.52437 0.0
C1343 C 0.45135 0.91467 0.51408 0.0
loop_
_geom_bond_atom_site_label_1
_geom_bond_atom_site_label_2
_geom_bond_distance
_geom_bond_site_symmetry_2
_ccdc_geom_bond_type
Mn0 O5 2.095 . S
Mn0 O15 2.162 . S
Mn0 O16 2.297 . S
Mn0 O24 2.385 . S
Mn0 O25 2.209 . S
Mn0 O26 2.094 . S
Mn1 O6 2.121 . S
Mn1 N8 2.257 . S
Mn1 N17 2.282 . S
Mn1 O25 2.215 . S
Mn1 O27 2.117 . S
C2 O24 1.234 . S
C2 O25 1.283 . S
C3 O15 1.281 . S
C3 O16 1.236 . S
C4 O26 1.240 . S
C4 O27 1.264 . S
O5 Mn0 2.095 . S
O5 C14 1.250 . S
O6 Mn1 2.121 . S
O6 C14 1.258 . S
C7 N8 1.326 . S
C7 C11 1.460 . S
C7 H13 0.929 . S
N8 Mn1 2.257 . S
N8 C7 1.326 . S
N8 C12 1.362 . S
C9 C10 1.258 . S
C9 C12 1.431 . S
C9 C29 1.449 . S
C10 C9 1.258 . S
C10 C11 1.477 . S
C10 H30 0.931 . S
C11 C7 1.460 . S
C11 C10 1.477 . S
C11 H31 0.930 . S
C12 N8 1.362 . S
C12 C9 1.431 . S
C12 C22 1.476 . S
H13 C7 0.929 . S
C14 O5 1.250 . S
C14 O6 1.258 . S
O15 Mn0 2.162 . S
O15 C3 1.281 . S
O16 Mn0 2.297 . S
O16 C3 1.236 . S
N17 Mn1 2.282 . S
N17 C18 1.328 . S
N17 C22 1.318 . S
C18 N17 1.328 . S
C18 C19 1.457 . S
C18 H23 0.929 . S
C19 C18 1.457 . S
C19 C20 1.291 . S
C19 H32 0.931 1_554 S
C20 C19 1.291 . S
C20 C21 1.373 . S
C20 H33 0.929 . S
C21 C20 1.373 . S
C21 C22 1.396 . S
C21 C28 1.403 . S
C22 C12 1.476 . S
C22 N17 1.318 . S
C22 C21 1.396 . S
H23 C18 0.929 . S
O24 Mn0 2.385 . S
O24 C2 1.234 . S
O25 Mn0 2.209 . S
O25 Mn1 2.215 . S
O25 C2 1.283 . S
O26 Mn0 2.094 . S
O26 C4 1.240 . S
O27 Mn1 2.117 . S
O27 C4 1.264 . S
C28 C21 1.403 . S
C28 C29 1.399 . S
C28 H34 0.929 . S
C29 C9 1.449 . S
C29 C28 1.399 . S
C29 H35 0.930 . S
H30 C10 0.931 . S
H31 C11 0.930 . S
H32 C19 0.931 1_556 S
H33 C20 0.929 . S
H34 C28 0.929 . S
H35 C29 0.930 . S
Mn36 O41 2.095 . S
Mn36 O51 2.162 . S
Mn36 O52 2.297 . S
Mn36 O60 2.385 . S
Mn36 O61 2.209 . S
Mn36 O62 2.094 . S
Mn37 O42 2.121 . S
Mn37 N44 2.257 . S
Mn37 N53 2.282 . S
Mn37 O61 2.215 . S
Mn37 O63 2.117 . S
C38 O60 1.234 . S
C38 O61 1.283 . S
C39 O51 1.281 . S
C39 O52 1.236 . S
C40 O62 1.240 . S
C40 O63 1.264 . S
O41 Mn36 2.095 . S
O41 C50 1.250 . S
O42 Mn37 2.121 . S
O42 C50 1.258 . S
C43 N44 1.326 . S
C43 C47 1.460 . S
C43 H49 0.929 . S
N44 Mn37 2.257 . S
N44 C43 1.326 . S
N44 C48 1.362 . S
C45 C46 1.258 . S
C45 C48 1.431 . S
C45 C65 1.449 . S
C46 C45 1.258 . S
C46 C47 1.477 . S
C46 H66 0.931 . S
C47 C43 1.460 . S
C47 C46 1.477 . S
C47 H67 0.930 . S
C48 N44 1.362 . S
C48 C45 1.431 . S
C48 C58 1.476 . S
H49 C43 0.929 . S
C50 O41 1.250 . S
C50 O42 1.258 . S
O51 Mn36 2.162 . S
O51 C39 1.281 . S
O52 Mn36 2.297 . S
O52 C39 1.236 . S
N53 Mn37 2.282 . S
N53 C54 1.328 . S
N53 C58 1.318 . S
C54 N53 1.328 . S
C54 C55 1.457 . S
C54 H59 0.929 . S
C55 C54 1.457 . S
C55 C56 1.291 . S
C55 H68 0.931 . S
C56 C55 1.291 . S
C56 C57 1.373 . S
C56 H69 0.929 . S
C57 C56 1.373 . S
C57 C58 1.396 . S
C57 C64 1.403 . S
C58 C48 1.476 . S
C58 N53 1.318 . S
C58 C57 1.396 . S
H59 C54 0.929 . S
O60 Mn36 2.385 . S
O60 C38 1.234 . S
O61 Mn36 2.209 . S
O61 Mn37 2.215 . S
O61 C38 1.283 . S
O62 Mn36 2.094 . S
O62 C40 1.240 . S
O63 Mn37 2.117 . S
O63 C40 1.264 . S
C64 C57 1.403 . S
C64 C65 1.399 . S
C64 H70 0.929 . S
C65 C45 1.449 . S
C65 C64 1.399 . S
C65 H71 0.930 . S
H66 C46 0.931 . S
H67 C47 0.930 . S
H68 C55 0.931 . S
H69 C56 0.929 . S
H70 C64 0.929 . S
H71 C65 0.930 . S
Mn72 O77 2.095 . S
Mn72 O87 2.162 . S
Mn72 O88 2.297 . S
Mn72 O96 2.385 . S
Mn72 O97 2.209 . S
Mn72 O98 2.094 . S
Mn73 O78 2.121 . S
Mn73 N80 2.257 . S
Mn73 N89 2.282 . S
Mn73 O97 2.215 . S
Mn73 O99 2.117 . S
C74 O96 1.234 . S
C74 O97 1.283 . S
C75 O87 1.281 . S
C75 O88 1.236 . S
C76 O98 1.240 . S
C76 O99 1.264 . S
O77 Mn72 2.095 . S
O77 C86 1.250 . S
O78 Mn73 2.121 . S
O78 C86 1.258 . S
C79 N80 1.326 . S
C79 C83 1.460 . S
C79 H85 0.929 . S
N80 Mn73 2.257 . S
N80 C79 1.326 . S
N80 C84 1.362 . S
C81 C82 1.258 . S
C81 C84 1.431 . S
C81 C101 1.449 . S
C82 C81 1.258 . S
C82 C83 1.477 . S
C82 H102 0.931 . S
C83 C79 1.460 . S
C83 C82 1.477 . S
C83 H103 0.930 . S
C84 N80 1.362 . S
C84 C81 1.431 . S
C84 C94 1.476 . S
H85 C79 0.929 . S
C86 O77 1.250 . S
C86 O78 1.258 . S
O87 Mn72 2.162 . S
O87 C75 1.281 . S
O88 Mn72 2.297 . S
O88 C75 1.236 . S
N89 Mn73 2.282 . S
N89 C90 1.328 . S
N89 C94 1.318 . S
C90 N89 1.328 . S
C90 C91 1.457 . S
C90 H95 0.929 . S
C91 C90 1.457 . S
C91 C92 1.291 . S
C91 H104 0.931 1_554 S
C92 C91 1.291 . S
C92 C93 1.373 . S
C92 H105 0.929 . S
C93 C92 1.373 . S
C93 C94 1.396 . S
C93 C100 1.403 . S
C94 C84 1.476 . S
C94 N89 1.318 . S
C94 C93 1.396 . S
H95 C90 0.929 . S
O96 Mn72 2.385 . S
O96 C74 1.234 . S
O97 Mn72 2.209 . S
O97 Mn73 2.215 . S
O97 C74 1.283 . S
O98 Mn72 2.094 . S
O98 C76 1.240 . S
O99 Mn73 2.117 . S
O99 C76 1.264 . S
C100 C93 1.403 . S
C100 C101 1.399 . S
C100 H106 0.929 . S
C101 C81 1.449 . S
C101 C100 1.399 . S
C101 H107 0.930 . S
H102 C82 0.931 . S
H103 C83 0.930 . S
H104 C91 0.931 1_556 S
H105 C92 0.929 . S
H106 C100 0.929 . S
H107 C101 0.930 . S
Mn108 O113 2.095 . S
Mn108 O123 2.162 . S
Mn108 O124 2.297 . S
Mn108 O132 2.385 . S
Mn108 O133 2.209 . S
Mn108 O134 2.094 . S
Mn109 O114 2.121 . S
Mn109 N116 2.257 . S
Mn109 N125 2.282 . S
Mn109 O133 2.215 . S
Mn109 O135 2.117 . S
C110 O132 1.234 . S
C110 O133 1.283 . S
C111 O123 1.281 . S
C111 O124 1.236 . S
C112 O134 1.240 . S
C112 O135 1.264 . S
O113 Mn108 2.095 . S
O113 C122 1.250 . S
O114 Mn109 2.121 . S
O114 C122 1.258 . S
C115 N116 1.326 . S
C115 C119 1.460 . S
C115 H121 0.929 . S
N116 Mn109 2.257 . S
N116 C115 1.326 . S
N116 C120 1.362 . S
C117 C118 1.258 . S
C117 C120 1.431 . S
C117 C137 1.449 . S
C118 C117 1.258 . S
C118 C119 1.477 . S
C118 H138 0.931 . S
C119 C115 1.460 . S
C119 C118 1.477 . S
C119 H139 0.930 . S
C120 N116 1.362 . S
C120 C117 1.431 . S
C120 C130 1.476 . S
H121 C115 0.929 . S
C122 O113 1.250 . S
C122 O114 1.258 . S
O123 Mn108 2.162 . S
O123 C111 1.281 . S
O124 Mn108 2.297 . S
O124 C111 1.236 . S
N125 Mn109 2.282 . S
N125 C126 1.328 . S
N125 C130 1.318 . S
C126 N125 1.328 . S
C126 C127 1.457 . S
C126 H131 0.929 . S
C127 C126 1.457 . S
C127 C128 1.291 . S
C127 H140 0.931 . S
C128 C127 1.291 . S
C128 C129 1.373 . S
C128 H141 0.929 . S
C129 C128 1.373 . S
C129 C130 1.396 . S
C129 C136 1.403 . S
C130 C120 1.476 . S
C130 N125 1.318 . S
C130 C129 1.396 . S
H131 C126 0.929 . S
O132 Mn108 2.385 . S
O132 C110 1.234 . S
O133 Mn108 2.209 . S
O133 Mn109 2.215 . S
O133 C110 1.283 . S
O134 Mn108 2.094 . S
O134 C112 1.240 . S
O135 Mn109 2.117 . S
O135 C112 1.264 . S
C136 C129 1.403 . S
C136 C137 1.399 . S
C136 H142 0.929 . S
C137 C117 1.449 . S
C137 C136 1.399 . S
C137 H143 0.930 . S
H138 C118 0.931 . S
H139 C119 0.930 . S
H140 C127 0.931 . S
H141 C128 0.929 . S
H142 C136 0.929 . S
H143 C137 0.930 . S
Mn144 O149 2.095 . S
Mn144 O159 2.162 . S
Mn144 O160 2.297 . S
Mn144 O168 2.385 . S
Mn144 O169 2.209 . S
Mn144 O170 2.094 . S
Mn145 O150 2.121 . S
Mn145 N152 2.257 . S
Mn145 N161 2.282 . S
Mn145 O169 2.215 . S
Mn145 O171 2.117 . S
C146 O168 1.234 . S
C146 O169 1.283 . S
C147 O159 1.281 . S
C147 O160 1.236 . S
C148 O170 1.240 . S
C148 O171 1.264 . S
O149 Mn144 2.095 . S
O149 C158 1.250 . S
O150 Mn145 2.121 . S
O150 C158 1.258 . S
C151 N152 1.326 . S
C151 C155 1.460 . S
C151 H157 0.929 . S
N152 Mn145 2.257 . S
N152 C151 1.326 . S
N152 C156 1.362 . S
C153 C154 1.258 . S
C153 C156 1.431 . S
C153 C173 1.449 . S
C154 C153 1.258 . S
C154 C155 1.477 . S
C154 H174 0.931 . S
C155 C151 1.460 . S
C155 C154 1.477 . S
C155 H175 0.930 . S
C156 N152 1.362 . S
C156 C153 1.431 . S
C156 C166 1.476 . S
H157 C151 0.929 . S
C158 O149 1.250 . S
C158 O150 1.258 . S
O159 Mn144 2.162 . S
O159 C147 1.281 . S
O160 Mn144 2.297 . S
O160 C147 1.236 . S
N161 Mn145 2.282 . S
N161 C162 1.328 . S
N161 C166 1.318 . S
C162 N161 1.328 . S
C162 C163 1.457 . S
C162 H167 0.929 . S
C163 C162 1.457 . S
C163 C164 1.291 . S
C163 H176 0.931 1_554 S
C164 C163 1.291 . S
C164 C165 1.373 . S
C164 H177 0.929 . S
C165 C164 1.373 . S
C165 C166 1.396 . S
C165 C172 1.403 . S
C166 C156 1.476 . S
C166 N161 1.318 . S
C166 C165 1.396 . S
H167 C162 0.929 . S
O168 Mn144 2.385 . S
O168 C146 1.234 . S
O169 Mn144 2.209 . S
O169 Mn145 2.215 . S
O169 C146 1.283 . S
O170 Mn144 2.094 . S
O170 C148 1.240 . S
O171 Mn145 2.117 . S
O171 C148 1.264 . S
C172 C165 1.403 . S
C172 C173 1.399 . S
C172 H178 0.929 . S
C173 C153 1.449 . S
C173 C172 1.399 . S
C173 H179 0.930 . S
H174 C154 0.931 . S
H175 C155 0.930 . S
H176 C163 0.931 1_556 S
H177 C164 0.929 . S
H178 C172 0.929 . S
H179 C173 0.930 . S
Mn180 O185 2.095 . S
Mn180 O195 2.162 . S
Mn180 O196 2.297 . S
Mn180 O204 2.385 . S
Mn180 O205 2.209 . S
Mn180 O206 2.094 . S
Mn181 O186 2.121 . S
Mn181 N188 2.257 . S
Mn181 N197 2.282 . S
Mn181 O205 2.215 . S
Mn181 O207 2.117 . S
C182 O204 1.234 . S
C182 O205 1.283 . S
C183 O195 1.281 . S
C183 O196 1.236 . S
C184 O206 1.240 . S
C184 O207 1.264 . S
O185 Mn180 2.095 . S
O185 C194 1.250 . S
O186 Mn181 2.121 . S
O186 C194 1.258 . S
C187 N188 1.326 . S
C187 C191 1.460 . S
C187 H193 0.929 . S
N188 Mn181 2.257 . S
N188 C187 1.326 . S
N188 C192 1.362 . S
C189 C190 1.258 . S
C189 C192 1.431 . S
C189 C209 1.449 . S
C190 C189 1.258 . S
C190 C191 1.477 . S
C190 H210 0.931 . S
C191 C187 1.460 . S
C191 C190 1.477 . S
C191 H211 0.930 . S
C192 N188 1.362 . S
C192 C189 1.431 . S
C192 C202 1.476 . S
H193 C187 0.929 . S
C194 O185 1.250 . S
C194 O186 1.258 . S
O195 Mn180 2.162 . S
O195 C183 1.281 . S
O196 Mn180 2.297 . S
O196 C183 1.236 . S
N197 Mn181 2.282 . S
N197 C198 1.328 . S
N197 C202 1.318 . S
C198 N197 1.328 . S
C198 C199 1.457 . S
C198 H203 0.929 . S
C199 C198 1.457 . S
C199 C200 1.291 . S
C199 H212 0.931 . S
C200 C199 1.291 . S
C200 C201 1.373 . S
C200 H213 0.929 . S
C201 C200 1.373 . S
C201 C202 1.396 . S
C201 C208 1.403 . S
C202 C192 1.476 . S
C202 N197 1.318 . S
C202 C201 1.396 . S
H203 C198 0.929 . S
O204 Mn180 2.385 . S
O204 C182 1.234 . S
O205 Mn180 2.209 . S
O205 Mn181 2.215 . S
O205 C182 1.283 . S
O206 Mn180 2.094 . S
O206 C184 1.240 . S
O207 Mn181 2.117 . S
O207 C184 1.264 . S
C208 C201 1.403 . S
C208 C209 1.399 . S
C208 H214 0.929 . S
C209 C189 1.449 . S
C209 C208 1.399 . S
C209 H215 0.930 . S
H210 C190 0.931 . S
H211 C191 0.930 . S
H212 C199 0.931 . S
H213 C200 0.929 . S
H214 C208 0.929 . S
H215 C209 0.930 . S
Mn216 O221 2.095 . S
Mn216 O231 2.162 . S
Mn216 O232 2.297 . S
Mn216 O240 2.385 . S
Mn216 O241 2.209 . S
Mn216 O242 2.094 . S
Mn217 O222 2.121 . S
Mn217 N224 2.257 . S
Mn217 N233 2.282 . S
Mn217 O241 2.215 . S
Mn217 O243 2.117 . S
C218 O240 1.234 . S
C218 O241 1.283 . S
C219 O231 1.281 . S
C219 O232 1.236 . S
C220 O242 1.240 . S
C220 O243 1.264 . S
O221 Mn216 2.095 . S
O221 C230 1.250 . S
O222 Mn217 2.121 . S
O222 C230 1.258 . S
C223 N224 1.326 . S
C223 C227 1.460 . S
C223 H229 0.929 . S
N224 Mn217 2.257 . S
N224 C223 1.326 . S
N224 C228 1.362 . S
C225 C226 1.258 . S
C225 C228 1.431 . S
C225 C245 1.449 . S
C226 C225 1.258 . S
C226 C227 1.477 . S
C226 H246 0.931 . S
C227 C223 1.460 . S
C227 C226 1.477 . S
C227 H247 0.930 . S
C228 N224 1.362 . S
C228 C225 1.431 . S
C228 C238 1.476 . S
H229 C223 0.929 . S
C230 O221 1.250 . S
C230 O222 1.258 . S
O231 Mn216 2.162 . S
O231 C219 1.281 . S
O232 Mn216 2.297 . S
O232 C219 1.236 . S
N233 Mn217 2.282 . S
N233 C234 1.328 . S
N233 C238 1.318 . S
C234 N233 1.328 . S
C234 C235 1.457 . S
C234 H239 0.929 . S
C235 C234 1.457 . S
C235 C236 1.291 . S
C235 H248 0.931 1_556 S
C236 C235 1.291 . S
C236 C237 1.373 . S
C236 H249 0.929 . S
C237 C236 1.373 . S
C237 C238 1.396 . S
C237 C244 1.403 . S
C238 C228 1.476 . S
C238 N233 1.318 . S
C238 C237 1.396 . S
H239 C234 0.929 . S
O240 Mn216 2.385 . S
O240 C218 1.234 . S
O241 Mn216 2.209 . S
O241 Mn217 2.215 . S
O241 C218 1.283 . S
O242 Mn216 2.094 . S
O242 C220 1.240 . S
O243 Mn217 2.117 . S
O243 C220 1.264 . S
C244 C237 1.403 . S
C244 C245 1.399 . S
C244 H250 0.929 . S
C245 C225 1.449 . S
C245 C244 1.399 . S
C245 H251 0.930 . S
H246 C226 0.931 . S
H247 C227 0.930 . S
H248 C235 0.931 1_554 S
H249 C236 0.929 . S
H250 C244 0.929 . S
H251 C245 0.930 . S
Mn252 O257 2.095 . S
Mn252 O267 2.162 . S
Mn252 O268 2.297 . S
Mn252 O276 2.385 . S
Mn252 O277 2.209 . S
Mn252 O278 2.094 . S
Mn253 O258 2.121 . S
Mn253 N260 2.257 . S
Mn253 N269 2.282 . S
Mn253 O277 2.215 . S
Mn253 O279 2.117 . S
C254 O276 1.234 . S
C254 O277 1.283 . S
C255 O267 1.281 . S
C255 O268 1.236 . S
C256 O278 1.240 . S
C256 O279 1.264 . S
O257 Mn252 2.095 . S
O257 C266 1.250 . S
O258 Mn253 2.121 . S
O258 C266 1.258 . S
C259 N260 1.326 . S
C259 C263 1.460 . S
C259 H265 0.929 . S
N260 Mn253 2.257 . S
N260 C259 1.326 . S
N260 C264 1.362 . S
C261 C262 1.258 . S
C261 C264 1.431 . S
C261 C281 1.449 . S
C262 C261 1.258 . S
C262 C263 1.477 . S
C262 H282 0.931 . S
C263 C259 1.460 . S
C263 C262 1.477 . S
C263 H283 0.930 . S
C264 N260 1.362 . S
C264 C261 1.431 . S
C264 C274 1.476 . S
H265 C259 0.929 . S
C266 O257 1.250 . S
C266 O258 1.258 . S
O267 Mn252 2.162 . S
O267 C255 1.281 . S
O268 Mn252 2.297 . S
O268 C255 1.236 . S
N269 Mn253 2.282 . S
N269 C270 1.328 . S
N269 C274 1.318 . S
C270 N269 1.328 . S
C270 C271 1.457 . S
C270 H275 0.929 . S
C271 C270 1.457 . S
C271 C272 1.291 . S
C271 H284 0.931 . S
C272 C271 1.291 . S
C272 C273 1.373 . S
C272 H285 0.929 . S
C273 C272 1.373 . S
C273 C274 1.396 . S
C273 C280 1.403 . S
C274 C264 1.476 . S
C274 N269 1.318 . S
C274 C273 1.396 . S
H275 C270 0.929 . S
O276 Mn252 2.385 . S
O276 C254 1.234 . S
O277 Mn252 2.209 . S
O277 Mn253 2.215 . S
O277 C254 1.283 . S
O278 Mn252 2.094 . S
O278 C256 1.240 . S
O279 Mn253 2.117 . S
O279 C256 1.264 . S
C280 C273 1.403 . S
C280 C281 1.399 . S
C280 H286 0.929 . S
C281 C261 1.449 . S
C281 C280 1.399 . S
C281 H287 0.930 . S
H282 C262 0.931 . S
H283 C263 0.930 . S
H284 C271 0.931 . S
H285 C272 0.929 . S
H286 C280 0.929 . S
H287 C281 0.930 . S
Mn288 O293 2.095 . S
Mn288 O303 2.162 . S
Mn288 O304 2.297 . S
Mn288 O312 2.385 . S
Mn288 O313 2.209 . S
Mn288 O314 2.094 . S
Mn289 O294 2.121 . S
Mn289 N296 2.257 . S
Mn289 N305 2.282 . S
Mn289 O313 2.215 . S
Mn289 O315 2.117 . S
C290 O312 1.234 . S
C290 O313 1.283 . S
C291 O303 1.281 . S
C291 O304 1.236 . S
C292 O314 1.240 . S
C292 O315 1.264 . S
O293 Mn288 2.095 . S
O293 C302 1.250 . S
O294 Mn289 2.121 . S
O294 C302 1.258 . S
C295 N296 1.326 . S
C295 C299 1.460 . S
C295 H301 0.929 . S
N296 Mn289 2.257 . S
N296 C295 1.326 . S
N296 C300 1.362 . S
C297 C298 1.258 . S
C297 C300 1.431 . S
C297 C317 1.449 . S
C298 C297 1.258 . S
C298 C299 1.477 . S
C298 H318 0.931 . S
C299 C295 1.460 . S
C299 C298 1.477 . S
C299 H319 0.930 . S
C300 N296 1.362 . S
C300 C297 1.431 . S
C300 C310 1.476 . S
H301 C295 0.929 . S
C302 O293 1.250 . S
C302 O294 1.258 . S
O303 Mn288 2.162 . S
O303 C291 1.281 . S
O304 Mn288 2.297 . S
O304 C291 1.236 . S
N305 Mn289 2.282 . S
N305 C306 1.328 . S
N305 C310 1.318 . S
C306 N305 1.328 . S
C306 C307 1.457 . S
C306 H311 0.929 . S
C307 C306 1.457 . S
C307 C308 1.291 . S
C307 H320 0.931 1_556 S
C308 C307 1.291 . S
C308 C309 1.373 . S
C308 H321 0.929 . S
C309 C308 1.373 . S
C309 C310 1.396 . S
C309 C316 1.403 . S
C310 C300 1.476 . S
C310 N305 1.318 . S
C310 C309 1.396 . S
H311 C306 0.929 . S
O312 Mn288 2.385 . S
O312 C290 1.234 . S
O313 Mn288 2.209 . S
O313 Mn289 2.215 . S
O313 C290 1.283 . S
O314 Mn288 2.094 . S
O314 C292 1.240 . S
O315 Mn289 2.117 . S
O315 C292 1.264 . S
C316 C309 1.403 . S
C316 C317 1.399 . S
C316 H322 0.929 . S
C317 C297 1.449 . S
C317 C316 1.399 . S
C317 H323 0.930 . S
H318 C298 0.931 . S
H319 C299 0.930 . S
H320 C307 0.931 1_554 S
H321 C308 0.929 . S
H322 C316 0.929 . S
H323 C317 0.930 . S
Mn324 O329 2.095 . S
Mn324 O339 2.162 . S
Mn324 O340 2.297 . S
Mn324 O348 2.385 . S
Mn324 O349 2.209 . S
Mn324 O350 2.094 . S
Mn325 O330 2.121 . S
Mn325 N332 2.257 . S
Mn325 N341 2.282 . S
Mn325 O349 2.215 . S
Mn325 O351 2.117 . S
C326 O348 1.234 . S
C326 O349 1.283 . S
C327 O339 1.281 . S
C327 O340 1.236 . S
C328 O350 1.240 . S
C328 O351 1.264 . S
O329 Mn324 2.095 . S
O329 C338 1.250 . S
O330 Mn325 2.121 . S
O330 C338 1.258 . S
C331 N332 1.326 . S
C331 C335 1.460 . S
C331 H337 0.929 . S
N332 Mn325 2.257 . S
N332 C331 1.326 . S
N332 C336 1.362 . S
C333 C334 1.258 . S
C333 C336 1.431 . S
C333 C353 1.449 . S
C334 C333 1.258 . S
C334 C335 1.477 . S
C334 H354 0.931 . S
C335 C331 1.460 . S
C335 C334 1.477 . S
C335 H355 0.930 . S
C336 N332 1.362 . S
C336 C333 1.431 . S
C336 C346 1.476 . S
H337 C331 0.929 . S
C338 O329 1.250 . S
C338 O330 1.258 . S
O339 Mn324 2.162 . S
O339 C327 1.281 . S
O340 Mn324 2.297 . S
O340 C327 1.236 . S
N341 Mn325 2.282 . S
N341 C342 1.328 . S
N341 C346 1.318 . S
C342 N341 1.328 . S
C342 C343 1.457 . S
C342 H347 0.929 . S
C343 C342 1.457 . S
C343 C344 1.291 . S
C343 H356 0.931 . S
C344 C343 1.291 . S
C344 C345 1.373 . S
C344 H357 0.929 . S
C345 C344 1.373 . S
C345 C346 1.396 . S
C345 C352 1.403 . S
C346 C336 1.476 . S
C346 N341 1.318 . S
C346 C345 1.396 . S
H347 C342 0.929 . S
O348 Mn324 2.385 . S
O348 C326 1.234 . S
O349 Mn324 2.209 . S
O349 Mn325 2.215 . S
O349 C326 1.283 . S
O350 Mn324 2.094 . S
O350 C328 1.240 . S
O351 Mn325 2.117 . S
O351 C328 1.264 . S
C352 C345 1.403 . S
C352 C353 1.399 . S
C352 H358 0.929 . S
C353 C333 1.449 . S
C353 C352 1.399 . S
C353 H359 0.930 . S
H354 C334 0.931 . S
H355 C335 0.930 . S
H356 C343 0.931 . S
H357 C344 0.929 . S
H358 C352 0.929 . S
H359 C353 0.930 . S
Mn360 O365 2.095 . S
Mn360 O375 2.162 . S
Mn360 O376 2.297 . S
Mn360 O384 2.385 . S
Mn360 O385 2.209 . S
Mn360 O386 2.094 . S
Mn361 O366 2.121 . S
Mn361 N368 2.257 . S
Mn361 N377 2.282 . S
Mn361 O385 2.215 . S
Mn361 O387 2.117 . S
C362 O384 1.234 . S
C362 O385 1.283 . S
C363 O375 1.281 . S
C363 O376 1.236 . S
C364 O386 1.240 . S
C364 O387 1.264 . S
O365 Mn360 2.095 . S
O365 C374 1.250 . S
O366 Mn361 2.121 . S
O366 C374 1.258 . S
C367 N368 1.326 . S
C367 C371 1.460 . S
C367 H373 0.929 . S
N368 Mn361 2.257 . S
N368 C367 1.326 . S
N368 C372 1.362 . S
C369 C370 1.258 . S
C369 C372 1.431 . S
C369 C389 1.449 . S
C370 C369 1.258 . S
C370 C371 1.477 . S
C370 H390 0.931 . S
C371 C367 1.460 . S
C371 C370 1.477 . S
C371 H391 0.930 . S
C372 N368 1.362 . S
C372 C369 1.431 . S
C372 C382 1.476 . S
H373 C367 0.929 . S
C374 O365 1.250 . S
C374 O366 1.258 . S
O375 Mn360 2.162 . S
O375 C363 1.281 . S
O376 Mn360 2.297 . S
O376 C363 1.236 . S
N377 Mn361 2.282 . S
N377 C378 1.328 . S
N377 C382 1.318 . S
C378 N377 1.328 . S
C378 C379 1.457 . S
C378 H383 0.929 . S
C379 C378 1.457 . S
C379 C380 1.291 . S
C379 H392 0.931 1_556 S
C380 C379 1.291 . S
C380 C381 1.373 . S
C380 H393 0.929 . S
C381 C380 1.373 . S
C381 C382 1.396 . S
C381 C388 1.403 . S
C382 C372 1.476 . S
C382 N377 1.318 . S
C382 C381 1.396 . S
H383 C378 0.929 . S
O384 Mn360 2.385 . S
O384 C362 1.234 . S
O385 Mn360 2.209 . S
O385 Mn361 2.215 . S
O385 C362 1.283 . S
O386 Mn360 2.094 . S
O386 C364 1.240 . S
O387 Mn361 2.117 . S
O387 C364 1.264 . S
C388 C381 1.403 . S
C388 C389 1.399 . S
C388 H394 0.929 . S
C389 C369 1.449 . S
C389 C388 1.399 . S
C389 H395 0.930 . S
H390 C370 0.931 . S
H391 C371 0.930 . S
H392 C379 0.931 1_554 S
H393 C380 0.929 . S
H394 C388 0.929 . S
H395 C389 0.930 . S
Mn396 O401 2.095 . S
Mn396 O411 2.162 . S
Mn396 O412 2.297 . S
Mn396 O420 2.385 . S
Mn396 O421 2.209 . S
Mn396 O422 2.094 . S
Mn397 O402 2.121 . S
Mn397 N404 2.257 . S
Mn397 N413 2.282 . S
Mn397 O421 2.215 . S
Mn397 O423 2.117 . S
C398 O420 1.234 . S
C398 O421 1.283 . S
C399 O411 1.281 . S
C399 O412 1.236 . S
C400 O422 1.240 . S
C400 O423 1.264 . S
O401 Mn396 2.095 . S
O401 C410 1.250 . S
O402 Mn397 2.121 . S
O402 C410 1.258 . S
C403 N404 1.326 . S
C403 C407 1.460 . S
C403 H409 0.929 . S
N404 Mn397 2.257 . S
N404 C403 1.326 . S
N404 C408 1.362 . S
C405 C406 1.258 . S
C405 C408 1.431 . S
C405 C425 1.449 . S
C406 C405 1.258 . S
C406 C407 1.477 . S
C406 H426 0.931 . S
C407 C403 1.460 . S
C407 C406 1.477 . S
C407 H427 0.930 . S
C408 N404 1.362 . S
C408 C405 1.431 . S
C408 C418 1.476 . S
H409 C403 0.929 . S
C410 O401 1.250 . S
C410 O402 1.258 . S
O411 Mn396 2.162 . S
O411 C399 1.281 . S
O412 Mn396 2.297 . S
O412 C399 1.236 . S
N413 Mn397 2.282 . S
N413 C414 1.328 . S
N413 C418 1.318 . S
C414 N413 1.328 . S
C414 C415 1.457 . S
C414 H419 0.929 . S
C415 C414 1.457 . S
C415 C416 1.291 . S
C415 H428 0.931 . S
C416 C415 1.291 . S
C416 C417 1.373 . S
C416 H429 0.929 . S
C417 C416 1.373 . S
C417 C418 1.396 . S
C417 C424 1.403 . S
C418 C408 1.476 . S
C418 N413 1.318 . S
C418 C417 1.396 . S
H419 C414 0.929 . S
O420 Mn396 2.385 . S
O420 C398 1.234 . S
O421 Mn396 2.209 . S
O421 Mn397 2.215 . S
O421 C398 1.283 . S
O422 Mn396 2.094 . S
O422 C400 1.240 . S
O423 Mn397 2.117 . S
O423 C400 1.264 . S
C424 C417 1.403 . S
C424 C425 1.399 . S
C424 H430 0.929 . S
C425 C405 1.449 . S
C425 C424 1.399 . S
C425 H431 0.930 . S
H426 C406 0.931 . S
H427 C407 0.930 . S
H428 C415 0.931 . S
H429 C416 0.929 . S
H430 C424 0.929 . S
H431 C425 0.930 . S
Mn432 O437 2.095 . S
Mn432 O447 2.162 . S
Mn432 O448 2.297 . S
Mn432 O456 2.385 . S
Mn432 O457 2.209 . S
Mn432 O458 2.094 . S
Mn433 O438 2.121 . S
Mn433 N440 2.257 . S
Mn433 N449 2.282 . S
Mn433 O457 2.215 . S
Mn433 O459 2.117 . S
C434 O456 1.234 . S
C434 O457 1.283 . S
C435 O447 1.281 . S
C435 O448 1.236 . S
C436 O458 1.240 . S
C436 O459 1.264 . S
O437 Mn432 2.095 . S
O437 C446 1.250 . S
O438 Mn433 2.121 . S
O438 C446 1.258 . S
C439 N440 1.326 . S
C439 C443 1.460 . S
C439 H445 0.929 . S
N440 Mn433 2.257 . S
N440 C439 1.326 . S
N440 C444 1.362 . S
C441 C442 1.258 . S
C441 C444 1.431 . S
C441 C461 1.449 . S
C442 C441 1.258 . S
C442 C443 1.477 . S
C442 H462 0.931 . S
C443 C439 1.460 . S
C443 C442 1.477 . S
C443 H463 0.930 . S
C444 N440 1.362 . S
C444 C441 1.431 . S
C444 C454 1.476 . S
H445 C439 0.929 . S
C446 O437 1.250 . S
C446 O438 1.258 . S
O447 Mn432 2.162 . S
O447 C435 1.281 . S
O448 Mn432 2.297 . S
O448 C435 1.236 . S
N449 Mn433 2.282 . S
N449 C450 1.328 . S
N449 C454 1.318 . S
C450 N449 1.328 . S
C450 C451 1.457 . S
C450 H455 0.929 . S
C451 C450 1.457 . S
C451 C452 1.291 . S
C451 H464 0.931 1_556 S
C452 C451 1.291 . S
C452 C453 1.373 . S
C452 H465 0.929 . S
C453 C452 1.373 . S
C453 C454 1.396 . S
C453 C460 1.403 . S
C454 C444 1.476 . S
C454 N449 1.318 . S
C454 C453 1.396 . S
H455 C450 0.929 . S
O456 Mn432 2.385 . S
O456 C434 1.234 . S
O457 Mn432 2.209 . S
O457 Mn433 2.215 . S
O457 C434 1.283 . S
O458 Mn432 2.094 . S
O458 C436 1.240 . S
O459 Mn433 2.117 . S
O459 C436 1.264 . S
C460 C453 1.403 . S
C460 C461 1.399 . S
C460 H466 0.929 . S
C461 C441 1.449 . S
C461 C460 1.399 . S
C461 H467 0.930 . S
H462 C442 0.931 . S
H463 C443 0.930 . S
H464 C451 0.931 1_554 S
H465 C452 0.929 . S
H466 C460 0.929 . S
H467 C461 0.930 . S
Mn468 O473 2.095 . S
Mn468 O483 2.162 . S
Mn468 O484 2.297 . S
Mn468 O492 2.385 . S
Mn468 O493 2.209 . S
Mn468 O494 2.094 . S
Mn469 O474 2.121 . S
Mn469 N476 2.257 . S
Mn469 N485 2.282 . S
Mn469 O493 2.215 . S
Mn469 O495 2.117 . S
C470 O492 1.234 . S
C470 O493 1.283 . S
C471 O483 1.281 . S
C471 O484 1.236 . S
C472 O494 1.240 . S
C472 O495 1.264 . S
O473 Mn468 2.095 . S
O473 C482 1.250 . S
O474 Mn469 2.121 . S
O474 C482 1.258 . S
C475 N476 1.326 . S
C475 C479 1.460 . S
C475 H481 0.929 . S
N476 Mn469 2.257 . S
N476 C475 1.326 . S
N476 C480 1.362 . S
C477 C478 1.258 . S
C477 C480 1.431 . S
C477 C497 1.449 . S
C478 C477 1.258 . S
C478 C479 1.477 . S
C478 H498 0.931 . S
C479 C475 1.460 . S
C479 C478 1.477 . S
C479 H499 0.930 . S
C480 N476 1.362 . S
C480 C477 1.431 . S
C480 C490 1.476 . S
H481 C475 0.929 . S
C482 O473 1.250 . S
C482 O474 1.258 . S
O483 Mn468 2.162 . S
O483 C471 1.281 . S
O484 Mn468 2.297 . S
O484 C471 1.236 . S
N485 Mn469 2.282 . S
N485 C486 1.328 . S
N485 C490 1.318 . S
C486 N485 1.328 . S
C486 C487 1.457 . S
C486 H491 0.929 . S
C487 C486 1.457 . S
C487 C488 1.291 . S
C487 H500 0.931 . S
C488 C487 1.291 . S
C488 C489 1.373 . S
C488 H501 0.929 . S
C489 C488 1.373 . S
C489 C490 1.396 . S
C489 C496 1.403 . S
C490 C480 1.476 . S
C490 N485 1.318 . S
C490 C489 1.396 . S
H491 C486 0.929 . S
O492 Mn468 2.385 . S
O492 C470 1.234 . S
O493 Mn468 2.209 . S
O493 Mn469 2.215 . S
O493 C470 1.283 . S
O494 Mn468 2.094 . S
O494 C472 1.240 . S
O495 Mn469 2.117 . S
O495 C472 1.264 . S
C496 C489 1.403 . S
C496 C497 1.399 . S
C496 H502 0.929 . S
C497 C477 1.449 . S
C497 C496 1.399 . S
C497 H503 0.930 . S
H498 C478 0.931 . S
H499 C479 0.930 . S
H500 C487 0.931 . S
H501 C488 0.929 . S
H502 C496 0.929 . S
H503 C497 0.930 . S
Mn504 O509 2.095 . S
Mn504 O519 2.162 . S
Mn504 O520 2.297 . S
Mn504 O528 2.385 . S
Mn504 O529 2.209 . S
Mn504 O530 2.094 . S
Mn505 O510 2.121 . S
Mn505 N512 2.257 . S
Mn505 N521 2.282 . S
Mn505 O529 2.215 . S
Mn505 O531 2.117 . S
C506 O528 1.234 . S
C506 O529 1.283 . S
C507 O519 1.281 . S
C507 O520 1.236 . S
C508 O530 1.240 . S
C508 O531 1.264 . S
O509 Mn504 2.095 . S
O509 C518 1.250 . S
O510 Mn505 2.121 . S
O510 C518 1.258 . S
C511 N512 1.326 . S
C511 C515 1.460 . S
C511 H517 0.929 . S
N512 Mn505 2.257 . S
N512 C511 1.326 . S
N512 C516 1.362 . S
C513 C514 1.258 . S
C513 C516 1.431 . S
C513 C533 1.449 . S
C514 C513 1.258 . S
C514 C515 1.477 . S
C514 H534 0.931 . S
C515 C511 1.460 . S
C515 C514 1.477 . S
C515 H535 0.930 . S
C516 N512 1.362 . S
C516 C513 1.431 . S
C516 C526 1.476 . S
H517 C511 0.929 . S
C518 O509 1.250 . S
C518 O510 1.258 . S
O519 Mn504 2.162 . S
O519 C507 1.281 . S
O520 Mn504 2.297 . S
O520 C507 1.236 . S
N521 Mn505 2.282 . S
N521 C522 1.328 . S
N521 C526 1.318 . S
C522 N521 1.328 . S
C522 C523 1.457 . S
C522 H527 0.929 . S
C523 C522 1.457 . S
C523 C524 1.291 . S
C523 H536 0.931 1_556 S
C524 C523 1.291 . S
C524 C525 1.373 . S
C524 H537 0.929 . S
C525 C524 1.373 . S
C525 C526 1.396 . S
C525 C532 1.403 . S
C526 C516 1.476 . S
C526 N521 1.318 . S
C526 C525 1.396 . S
H527 C522 0.929 . S
O528 Mn504 2.385 . S
O528 C506 1.234 . S
O529 Mn504 2.209 . S
O529 Mn505 2.215 . S
O529 C506 1.283 . S
O530 Mn504 2.094 . S
O530 C508 1.240 . S
O531 Mn505 2.117 . S
O531 C508 1.264 . S
C532 C525 1.403 . S
C532 C533 1.399 . S
C532 H538 0.929 . S
C533 C513 1.449 . S
C533 C532 1.399 . S
C533 H539 0.930 . S
H534 C514 0.931 . S
H535 C515 0.930 . S
H536 C523 0.931 1_554 S
H537 C524 0.929 . S
H538 C532 0.929 . S
H539 C533 0.930 . S
Mn540 O545 2.095 . S
Mn540 O555 2.162 . S
Mn540 O556 2.297 . S
Mn540 O564 2.385 . S
Mn540 O565 2.209 . S
Mn540 O566 2.094 . S
Mn541 O546 2.121 . S
Mn541 N548 2.257 . S
Mn541 N557 2.282 . S
Mn541 O565 2.215 . S
Mn541 O567 2.117 . S
C542 O564 1.234 . S
C542 O565 1.283 . S
C543 O555 1.281 . S
C543 O556 1.236 . S
C544 O566 1.240 . S
C544 O567 1.264 . S
O545 Mn540 2.095 . S
O545 C554 1.250 . S
O546 Mn541 2.121 . S
O546 C554 1.258 . S
C547 N548 1.326 . S
C547 C551 1.460 . S
C547 H553 0.929 . S
N548 Mn541 2.257 . S
N548 C547 1.326 . S
N548 C552 1.362 . S
C549 C550 1.258 . S
C549 C552 1.431 . S
C549 C569 1.449 . S
C550 C549 1.258 . S
C550 C551 1.477 . S
C550 H570 0.931 . S
C551 C547 1.460 . S
C551 C550 1.477 . S
C551 H571 0.930 . S
C552 N548 1.362 . S
C552 C549 1.431 . S
C552 C562 1.476 . S
H553 C547 0.929 . S
C554 O545 1.250 . S
C554 O546 1.258 . S
O555 Mn540 2.162 . S
O555 C543 1.281 . S
O556 Mn540 2.297 . S
O556 C543 1.236 . S
N557 Mn541 2.282 . S
N557 C558 1.328 . S
N557 C562 1.318 . S
C558 N557 1.328 . S
C558 C559 1.457 . S
C558 H563 0.929 . S
C559 C558 1.457 . S
C559 C560 1.291 . S
C559 H572 0.931 . S
C560 C559 1.291 . S
C560 C561 1.373 . S
C560 H573 0.929 . S
C561 C560 1.373 . S
C561 C562 1.396 . S
C561 C568 1.403 . S
C562 C552 1.476 . S
C562 N557 1.318 . S
C562 C561 1.396 . S
H563 C558 0.929 . S
O564 Mn540 2.385 . S
O564 C542 1.234 . S
O565 Mn540 2.209 . S
O565 Mn541 2.215 . S
O565 C542 1.283 . S
O566 Mn540 2.094 . S
O566 C544 1.240 . S
O567 Mn541 2.117 . S
O567 C544 1.264 . S
C568 C561 1.403 . S
C568 C569 1.399 . S
C568 H574 0.929 . S
C569 C549 1.449 . S
C569 C568 1.399 . S
C569 H575 0.930 . S
H570 C550 0.931 . S
H571 C551 0.930 . S
H572 C559 0.931 . S
H573 C560 0.929 . S
H574 C568 0.929 . S
H575 C569 0.930 . S
Mn576 O581 2.095 . S
Mn576 O591 2.162 . S
Mn576 O592 2.297 . S
Mn576 O600 2.385 . S
Mn576 O601 2.209 . S
Mn576 O602 2.094 . S
Mn577 O582 2.121 . S
Mn577 N584 2.257 . S
Mn577 N593 2.282 . S
Mn577 O601 2.215 . S
Mn577 O603 2.117 . S
C578 O600 1.234 . S
C578 O601 1.283 . S
C579 O591 1.281 . S
C579 O592 1.236 . S
C580 O602 1.240 . S
C580 O603 1.264 . S
O581 Mn576 2.095 . S
O581 C590 1.250 . S
O582 Mn577 2.121 . S
O582 C590 1.258 . S
C583 N584 1.326 . S
C583 C587 1.460 . S
C583 H589 0.929 . S
N584 Mn577 2.257 . S
N584 C583 1.326 . S
N584 C588 1.362 . S
C585 C586 1.258 . S
C585 C588 1.431 . S
C585 C605 1.449 . S
C586 C585 1.258 . S
C586 C587 1.477 . S
C586 H606 0.931 . S
C587 C583 1.460 . S
C587 C586 1.477 . S
C587 H607 0.930 . S
C588 N584 1.362 . S
C588 C585 1.431 . S
C588 C598 1.476 . S
H589 C583 0.929 . S
C590 O581 1.250 . S
C590 O582 1.258 . S
O591 Mn576 2.162 . S
O591 C579 1.281 . S
O592 Mn576 2.297 . S
O592 C579 1.236 . S
N593 Mn577 2.282 . S
N593 C594 1.328 . S
N593 C598 1.318 . S
C594 N593 1.328 . S
C594 C595 1.457 . S
C594 H599 0.929 . S
C595 C594 1.457 . S
C595 C596 1.291 . S
C595 H608 0.931 1_556 S
C596 C595 1.291 . S
C596 C597 1.373 . S
C596 H609 0.929 . S
C597 C596 1.373 . S
C597 C598 1.396 . S
C597 C604 1.403 . S
C598 C588 1.476 . S
C598 N593 1.318 . S
C598 C597 1.396 . S
H599 C594 0.929 . S
O600 Mn576 2.385 . S
O600 C578 1.234 . S
O601 Mn576 2.209 . S
O601 Mn577 2.215 . S
O601 C578 1.283 . S
O602 Mn576 2.094 . S
O602 C580 1.240 . S
O603 Mn577 2.117 . S
O603 C580 1.264 . S
C604 C597 1.403 . S
C604 C605 1.399 . S
C604 H610 0.929 . S
C605 C585 1.449 . S
C605 C604 1.399 . S
C605 H611 0.930 . S
H606 C586 0.931 . S
H607 C587 0.930 . S
H608 C595 0.931 1_554 S
H609 C596 0.929 . S
H610 C604 0.929 . S
H611 C605 0.930 . S
Mn612 O617 2.095 . S
Mn612 O627 2.162 . S
Mn612 O628 2.297 . S
Mn612 O636 2.385 . S
Mn612 O637 2.209 . S
Mn612 O638 2.094 . S
Mn613 O618 2.121 . S
Mn613 N620 2.257 . S
Mn613 N629 2.282 . S
Mn613 O637 2.215 . S
Mn613 O639 2.117 . S
C614 O636 1.234 . S
C614 O637 1.283 . S
C615 O627 1.281 . S
C615 O628 1.236 . S
C616 O638 1.240 . S
C616 O639 1.264 . S
O617 Mn612 2.095 . S
O617 C626 1.250 . S
O618 Mn613 2.121 . S
O618 C626 1.258 . S
C619 N620 1.326 . S
C619 C623 1.460 . S
C619 H625 0.929 . S
N620 Mn613 2.257 . S
N620 C619 1.326 . S
N620 C624 1.362 . S
C621 C622 1.258 . S
C621 C624 1.431 . S
C621 C641 1.449 . S
C622 C621 1.258 . S
C622 C623 1.477 . S
C622 H642 0.931 . S
C623 C619 1.460 . S
C623 C622 1.477 . S
C623 H643 0.930 . S
C624 N620 1.362 . S
C624 C621 1.431 . S
C624 C634 1.476 . S
H625 C619 0.929 . S
C626 O617 1.250 . S
C626 O618 1.258 . S
O627 Mn612 2.162 . S
O627 C615 1.281 . S
O628 Mn612 2.297 . S
O628 C615 1.236 . S
N629 Mn613 2.282 . S
N629 C630 1.328 . S
N629 C634 1.318 . S
C630 N629 1.328 . S
C630 C631 1.457 . S
C630 H635 0.929 . S
C631 C630 1.457 . S
C631 C632 1.291 . S
C631 H644 0.931 . S
C632 C631 1.291 . S
C632 C633 1.373 . S
C632 H645 0.929 . S
C633 C632 1.373 . S
C633 C634 1.396 . S
C633 C640 1.403 . S
C634 C624 1.476 . S
C634 N629 1.318 . S
C634 C633 1.396 . S
H635 C630 0.929 . S
O636 Mn612 2.385 . S
O636 C614 1.234 . S
O637 Mn612 2.209 . S
O637 Mn613 2.215 . S
O637 C614 1.283 . S
O638 Mn612 2.094 . S
O638 C616 1.240 . S
O639 Mn613 2.117 . S
O639 C616 1.264 . S
C640 C633 1.403 . S
C640 C641 1.399 . S
C640 H646 0.929 . S
C641 C621 1.449 . S
C641 C640 1.399 . S
C641 H647 0.930 . S
H642 C622 0.931 . S
H643 C623 0.930 . S
H644 C631 0.931 . S
H645 C632 0.929 . S
H646 C640 0.929 . S
H647 C641 0.930 . S
Mn648 O653 2.095 . S
Mn648 O663 2.162 . S
Mn648 O664 2.297 . S
Mn648 O672 2.385 . S
Mn648 O673 2.209 . S
Mn648 O674 2.094 . S
Mn649 O654 2.121 . S
Mn649 N656 2.257 . S
Mn649 N665 2.282 . S
Mn649 O673 2.215 . S
Mn649 O675 2.117 . S
C650 O672 1.234 . S
C650 O673 1.283 . S
C651 O663 1.281 . S
C651 O664 1.236 . S
C652 O674 1.240 . S
C652 O675 1.264 . S
O653 Mn648 2.095 . S
O653 C662 1.250 . S
O654 Mn649 2.121 . S
O654 C662 1.258 . S
C655 N656 1.326 . S
C655 C659 1.460 . S
C655 H661 0.929 . S
N656 Mn649 2.257 . S
N656 C655 1.326 . S
N656 C660 1.362 . S
C657 C658 1.258 . S
C657 C660 1.431 . S
C657 C677 1.449 . S
C658 C657 1.258 . S
C658 C659 1.477 . S
C658 H678 0.931 . S
C659 C655 1.460 . S
C659 C658 1.477 . S
C659 H679 0.930 . S
C660 N656 1.362 . S
C660 C657 1.431 . S
C660 C670 1.476 . S
H661 C655 0.929 . S
C662 O653 1.250 . S
C662 O654 1.258 . S
O663 Mn648 2.162 . S
O663 C651 1.281 . S
O664 Mn648 2.297 . S
O664 C651 1.236 . S
N665 Mn649 2.282 . S
N665 C666 1.328 . S
N665 C670 1.318 . S
C666 N665 1.328 . S
C666 C667 1.457 . S
C666 H671 0.929 . S
C667 C666 1.457 . S
C667 C668 1.291 . S
C667 H680 0.931 1_554 S
C668 C667 1.291 . S
C668 C669 1.373 . S
C668 H681 0.929 . S
C669 C668 1.373 . S
C669 C670 1.396 . S
C669 C676 1.403 . S
C670 C660 1.476 . S
C670 N665 1.318 . S
C670 C669 1.396 . S
H671 C666 0.929 . S
O672 Mn648 2.385 . S
O672 C650 1.234 . S
O673 Mn648 2.209 . S
O673 Mn649 2.215 . S
O673 C650 1.283 . S
O674 Mn648 2.094 . S
O674 C652 1.240 . S
O675 Mn649 2.117 . S
O675 C652 1.264 . S
C676 C669 1.403 . S
C676 C677 1.399 . S
C676 H682 0.929 . S
C677 C657 1.449 . S
C677 C676 1.399 . S
C677 H683 0.930 . S
H678 C658 0.931 . S
H679 C659 0.930 . S
H680 C667 0.931 1_556 S
H681 C668 0.929 . S
H682 C676 0.929 . S
H683 C677 0.930 . S
Mn684 O689 2.095 . S
Mn684 O699 2.162 . S
Mn684 O700 2.297 . S
Mn684 O708 2.385 . S
Mn684 O709 2.209 . S
Mn684 O710 2.094 . S
Mn685 O690 2.121 . S
Mn685 N692 2.257 . S
Mn685 N701 2.282 . S
Mn685 O709 2.215 . S
Mn685 O711 2.117 . S
C686 O708 1.234 . S
C686 O709 1.283 . S
C687 O699 1.281 . S
C687 O700 1.236 . S
C688 O710 1.240 . S
C688 O711 1.264 . S
O689 Mn684 2.095 . S
O689 C698 1.250 . S
O690 Mn685 2.121 . S
O690 C698 1.258 . S
C691 N692 1.326 . S
C691 C695 1.460 . S
C691 H697 0.929 . S
N692 Mn685 2.257 . S
N692 C691 1.326 . S
N692 C696 1.362 . S
C693 C694 1.258 . S
C693 C696 1.431 . S
C693 C713 1.449 . S
C694 C693 1.258 . S
C694 C695 1.477 . S
C694 H714 0.931 . S
C695 C691 1.460 . S
C695 C694 1.477 . S
C695 H715 0.930 . S
C696 N692 1.362 . S
C696 C693 1.431 . S
C696 C706 1.476 . S
H697 C691 0.929 . S
C698 O689 1.250 . S
C698 O690 1.258 . S
O699 Mn684 2.162 . S
O699 C687 1.281 . S
O700 Mn684 2.297 . S
O700 C687 1.236 . S
N701 Mn685 2.282 . S
N701 C702 1.328 . S
N701 C706 1.318 . S
C702 N701 1.328 . S
C702 C703 1.457 . S
C702 H707 0.929 . S
C703 C702 1.457 . S
C703 C704 1.291 . S
C703 H716 0.931 . S
C704 C703 1.291 . S
C704 C705 1.373 . S
C704 H717 0.929 . S
C705 C704 1.373 . S
C705 C706 1.396 . S
C705 C712 1.403 . S
C706 C696 1.476 . S
C706 N701 1.318 . S
C706 C705 1.396 . S
H707 C702 0.929 . S
O708 Mn684 2.385 . S
O708 C686 1.234 . S
O709 Mn684 2.209 . S
O709 Mn685 2.215 . S
O709 C686 1.283 . S
O710 Mn684 2.094 . S
O710 C688 1.240 . S
O711 Mn685 2.117 . S
O711 C688 1.264 . S
C712 C705 1.403 . S
C712 C713 1.399 . S
C712 H718 0.929 . S
C713 C693 1.449 . S
C713 C712 1.399 . S
C713 H719 0.930 . S
H714 C694 0.931 . S
H715 C695 0.930 . S
H716 C703 0.931 . S
H717 C704 0.929 . S
H718 C712 0.929 . S
H719 C713 0.930 . S
Mn720 O725 2.095 . S
Mn720 O735 2.162 . S
Mn720 O736 2.297 . S
Mn720 O744 2.385 . S
Mn720 O745 2.209 . S
Mn720 O746 2.094 . S
Mn721 O726 2.121 . S
Mn721 N728 2.257 . S
Mn721 N737 2.282 . S
Mn721 O745 2.215 . S
Mn721 O747 2.117 . S
C722 O744 1.234 . S
C722 O745 1.283 . S
C723 O735 1.281 . S
C723 O736 1.236 . S
C724 O746 1.240 . S
C724 O747 1.264 . S
O725 Mn720 2.095 . S
O725 C734 1.250 . S
O726 Mn721 2.121 . S
O726 C734 1.258 . S
C727 N728 1.326 . S
C727 C731 1.460 . S
C727 H733 0.929 . S
N728 Mn721 2.257 . S
N728 C727 1.326 . S
N728 C732 1.362 . S
C729 C730 1.258 . S
C729 C732 1.431 . S
C729 C749 1.449 . S
C730 C729 1.258 . S
C730 C731 1.477 . S
C730 H750 0.931 . S
C731 C727 1.460 . S
C731 C730 1.477 . S
C731 H751 0.930 . S
C732 N728 1.362 . S
C732 C729 1.431 . S
C732 C742 1.476 . S
H733 C727 0.929 . S
C734 O725 1.250 . S
C734 O726 1.258 . S
O735 Mn720 2.162 . S
O735 C723 1.281 . S
O736 Mn720 2.297 . S
O736 C723 1.236 . S
N737 Mn721 2.282 . S
N737 C738 1.328 . S
N737 C742 1.318 . S
C738 N737 1.328 . S
C738 C739 1.457 . S
C738 H743 0.929 . S
C739 C738 1.457 . S
C739 C740 1.291 . S
C739 H752 0.931 1_554 S
C740 C739 1.291 . S
C740 C741 1.373 . S
C740 H753 0.929 . S
C741 C740 1.373 . S
C741 C742 1.396 . S
C741 C748 1.403 . S
C742 C732 1.476 . S
C742 N737 1.318 . S
C742 C741 1.396 . S
H743 C738 0.929 . S
O744 Mn720 2.385 . S
O744 C722 1.234 . S
O745 Mn720 2.209 . S
O745 Mn721 2.215 . S
O745 C722 1.283 . S
O746 Mn720 2.094 . S
O746 C724 1.240 . S
O747 Mn721 2.117 . S
O747 C724 1.264 . S
C748 C741 1.403 . S
C748 C749 1.399 . S
C748 H754 0.929 . S
C749 C729 1.449 . S
C749 C748 1.399 . S
C749 H755 0.930 . S
H750 C730 0.931 . S
H751 C731 0.930 . S
H752 C739 0.931 1_556 S
H753 C740 0.929 . S
H754 C748 0.929 . S
H755 C749 0.930 . S
Mn756 O761 2.095 . S
Mn756 O771 2.162 . S
Mn756 O772 2.297 . S
Mn756 O780 2.385 . S
Mn756 O781 2.209 . S
Mn756 O782 2.094 . S
Mn757 O762 2.121 . S
Mn757 N764 2.257 . S
Mn757 N773 2.282 . S
Mn757 O781 2.215 . S
Mn757 O783 2.117 . S
C758 O780 1.234 . S
C758 O781 1.283 . S
C759 O771 1.281 . S
C759 O772 1.236 . S
C760 O782 1.240 . S
C760 O783 1.264 . S
O761 Mn756 2.095 . S
O761 C770 1.250 . S
O762 Mn757 2.121 . S
O762 C770 1.258 . S
C763 N764 1.326 . S
C763 C767 1.460 . S
C763 H769 0.929 . S
N764 Mn757 2.257 . S
N764 C763 1.326 . S
N764 C768 1.362 . S
C765 C766 1.258 . S
C765 C768 1.431 . S
C765 C785 1.449 . S
C766 C765 1.258 . S
C766 C767 1.477 . S
C766 H786 0.931 . S
C767 C763 1.460 . S
C767 C766 1.477 . S
C767 H787 0.930 . S
C768 N764 1.362 . S
C768 C765 1.431 . S
C768 C778 1.476 . S
H769 C763 0.929 . S
C770 O761 1.250 . S
C770 O762 1.258 . S
O771 Mn756 2.162 . S
O771 C759 1.281 . S
O772 Mn756 2.297 . S
O772 C759 1.236 . S
N773 Mn757 2.282 . S
N773 C774 1.328 . S
N773 C778 1.318 . S
C774 N773 1.328 . S
C774 C775 1.457 . S
C774 H779 0.929 . S
C775 C774 1.457 . S
C775 C776 1.291 . S
C775 H788 0.931 . S
C776 C775 1.291 . S
C776 C777 1.373 . S
C776 H789 0.929 . S
C777 C776 1.373 . S
C777 C778 1.396 . S
C777 C784 1.403 . S
C778 C768 1.476 . S
C778 N773 1.318 . S
C778 C777 1.396 . S
H779 C774 0.929 . S
O780 Mn756 2.385 . S
O780 C758 1.234 . S
O781 Mn756 2.209 . S
O781 Mn757 2.215 . S
O781 C758 1.283 . S
O782 Mn756 2.094 . S
O782 C760 1.240 . S
O783 Mn757 2.117 . S
O783 C760 1.264 . S
C784 C777 1.403 . S
C784 C785 1.399 . S
C784 H790 0.929 . S
C785 C765 1.449 . S
C785 C784 1.399 . S
C785 H791 0.930 . S
H786 C766 0.931 . S
H787 C767 0.930 . S
H788 C775 0.931 . S
H789 C776 0.929 . S
H790 C784 0.929 . S
H791 C785 0.930 . S
Mn792 O797 2.095 . S
Mn792 O807 2.162 . S
Mn792 O808 2.297 . S
Mn792 O816 2.385 . S
Mn792 O817 2.209 . S
Mn792 O818 2.094 . S
Mn793 O798 2.121 . S
Mn793 N800 2.257 . S
Mn793 N809 2.282 . S
Mn793 O817 2.215 . S
Mn793 O819 2.117 . S
C794 O816 1.234 . S
C794 O817 1.283 . S
C795 O807 1.281 . S
C795 O808 1.236 . S
C796 O818 1.240 . S
C796 O819 1.264 . S
O797 Mn792 2.095 . S
O797 C806 1.250 . S
O798 Mn793 2.121 . S
O798 C806 1.258 . S
C799 N800 1.326 . S
C799 C803 1.460 . S
C799 H805 0.929 . S
N800 Mn793 2.257 . S
N800 C799 1.326 . S
N800 C804 1.362 . S
C801 C802 1.258 . S
C801 C804 1.431 . S
C801 C821 1.449 . S
C802 C801 1.258 . S
C802 C803 1.477 . S
C802 H822 0.931 . S
C803 C799 1.460 . S
C803 C802 1.477 . S
C803 H823 0.930 . S
C804 N800 1.362 . S
C804 C801 1.431 . S
C804 C814 1.476 . S
H805 C799 0.929 . S
C806 O797 1.250 . S
C806 O798 1.258 . S
O807 Mn792 2.162 . S
O807 C795 1.281 . S
O808 Mn792 2.297 . S
O808 C795 1.236 . S
N809 Mn793 2.282 . S
N809 C810 1.328 . S
N809 C814 1.318 . S
C810 N809 1.328 . S
C810 C811 1.457 . S
C810 H815 0.929 . S
C811 C810 1.457 . S
C811 C812 1.291 . S
C811 H824 0.931 1_554 S
C812 C811 1.291 . S
C812 C813 1.373 . S
C812 H825 0.929 . S
C813 C812 1.373 . S
C813 C814 1.396 . S
C813 C820 1.403 . S
C814 C804 1.476 . S
C814 N809 1.318 . S
C814 C813 1.396 . S
H815 C810 0.929 . S
O816 Mn792 2.385 . S
O816 C794 1.234 . S
O817 Mn792 2.209 . S
O817 Mn793 2.215 . S
O817 C794 1.283 . S
O818 Mn792 2.094 . S
O818 C796 1.240 . S
O819 Mn793 2.117 . S
O819 C796 1.264 . S
C820 C813 1.403 . S
C820 C821 1.399 . S
C820 H826 0.929 . S
C821 C801 1.449 . S
C821 C820 1.399 . S
C821 H827 0.930 . S
H822 C802 0.931 . S
H823 C803 0.930 . S
H824 C811 0.931 1_556 S
H825 C812 0.929 . S
H826 C820 0.929 . S
H827 C821 0.930 . S
Mn828 O833 2.095 . S
Mn828 O843 2.162 . S
Mn828 O844 2.297 . S
Mn828 O852 2.385 . S
Mn828 O853 2.209 . S
Mn828 O854 2.094 . S
Mn829 O834 2.121 . S
Mn829 N836 2.257 . S
Mn829 N845 2.282 . S
Mn829 O853 2.215 . S
Mn829 O855 2.117 . S
C830 O852 1.234 . S
C830 O853 1.283 . S
C831 O843 1.281 . S
C831 O844 1.236 . S
C832 O854 1.240 . S
C832 O855 1.264 . S
O833 Mn828 2.095 . S
O833 C842 1.250 . S
O834 Mn829 2.121 . S
O834 C842 1.258 . S
C835 N836 1.326 . S
C835 C839 1.460 . S
C835 H841 0.929 . S
N836 Mn829 2.257 . S
N836 C835 1.326 . S
N836 C840 1.362 . S
C837 C838 1.258 . S
C837 C840 1.431 . S
C837 C857 1.449 . S
C838 C837 1.258 . S
C838 C839 1.477 . S
C838 H858 0.931 . S
C839 C835 1.460 . S
C839 C838 1.477 . S
C839 H859 0.930 . S
C840 N836 1.362 . S
C840 C837 1.431 . S
C840 C850 1.476 . S
H841 C835 0.929 . S
C842 O833 1.250 . S
C842 O834 1.258 . S
O843 Mn828 2.162 . S
O843 C831 1.281 . S
O844 Mn828 2.297 . S
O844 C831 1.236 . S
N845 Mn829 2.282 . S
N845 C846 1.328 . S
N845 C850 1.318 . S
C846 N845 1.328 . S
C846 C847 1.457 . S
C846 H851 0.929 . S
C847 C846 1.457 . S
C847 C848 1.291 . S
C847 H860 0.931 . S
C848 C847 1.291 . S
C848 C849 1.373 . S
C848 H861 0.929 . S
C849 C848 1.373 . S
C849 C850 1.396 . S
C849 C856 1.403 . S
C850 C840 1.476 . S
C850 N845 1.318 . S
C850 C849 1.396 . S
H851 C846 0.929 . S
O852 Mn828 2.385 . S
O852 C830 1.234 . S
O853 Mn828 2.209 . S
O853 Mn829 2.215 . S
O853 C830 1.283 . S
O854 Mn828 2.094 . S
O854 C832 1.240 . S
O855 Mn829 2.117 . S
O855 C832 1.264 . S
C856 C849 1.403 . S
C856 C857 1.399 . S
C856 H862 0.929 . S
C857 C837 1.449 . S
C857 C856 1.399 . S
C857 H863 0.930 . S
H858 C838 0.931 . S
H859 C839 0.930 . S
H860 C847 0.931 . S
H861 C848 0.929 . S
H862 C856 0.929 . S
H863 C857 0.930 . S
C864 C865 1.387 . S
C864 H868 0.950 . S
C864 C873 1.390 . S
C865 C864 1.387 . S
C865 C867 1.387 . S
H866 C873 0.950 . S
C867 C865 1.387 . S
C867 C869 1.390 . S
C867 H871 0.950 . S
H868 C864 0.950 . S
C869 C867 1.390 . S
C869 C870 1.387 . S
C869 H872 0.950 . S
C870 C869 1.387 . S
C870 C873 1.387 . S
H871 C867 0.950 . S
H872 C869 0.950 . S
C873 C864 1.390 . S
C873 H866 0.950 . S
C873 C870 1.387 . S
C874 C875 1.387 . S
C874 H878 0.950 . S
C874 C883 1.390 . S
C875 C874 1.387 . S
C875 C877 1.387 . S
H876 C883 0.950 . S
C877 C875 1.387 . S
C877 C879 1.390 . S
C877 H881 0.950 . S
H878 C874 0.950 . S
C879 C877 1.390 . S
C879 C880 1.387 . S
C879 H882 0.950 . S
C880 C879 1.387 . S
C880 C883 1.387 . S
H881 C877 0.950 . S
H882 C879 0.950 . S
C883 C874 1.390 . S
C883 H876 0.950 . S
C883 C880 1.387 . S
C884 C885 1.387 . S
C884 H888 0.950 . S
C884 C893 1.390 . S
C885 C884 1.387 . S
C885 C887 1.387 . S
H886 C893 0.950 . S
C887 C885 1.387 . S
C887 C889 1.390 . S
C887 H891 0.950 . S
H888 C884 0.950 . S
C889 C887 1.390 . S
C889 C890 1.387 . S
C889 H892 0.950 . S
C890 C889 1.387 . S
C890 C893 1.387 . S
H891 C887 0.950 . S
H892 C889 0.950 . S
C893 C884 1.390 . S
C893 H886 0.950 . S
C893 C890 1.387 . S
C894 C895 1.387 . S
C894 H898 0.950 . S
C894 C903 1.390 . S
C895 C894 1.387 . S
C895 C897 1.387 . S
H896 C903 0.950 . S
C897 C895 1.387 . S
C897 C899 1.390 . S
C897 H901 0.950 . S
H898 C894 0.950 . S
C899 C897 1.390 . S
C899 C900 1.387 . S
C899 H902 0.950 . S
C900 C899 1.387 . S
C900 C903 1.387 . S
H901 C897 0.950 . S
H902 C899 0.950 . S
C903 C894 1.390 . S
C903 H896 0.950 . S
C903 C900 1.387 . S
C904 C905 1.387 . S
C904 H908 0.950 . S
C904 C913 1.390 . S
C905 C904 1.387 . S
C905 C907 1.387 . S
H906 C913 0.950 . S
C907 C905 1.387 . S
C907 C909 1.390 . S
C907 H911 0.950 . S
H908 C904 0.950 . S
C909 C907 1.390 . S
C909 C910 1.387 . S
C909 H912 0.950 . S
C910 C909 1.387 . S
C910 C913 1.387 . S
H911 C907 0.950 . S
H912 C909 0.950 . S
C913 C904 1.390 . S
C913 H906 0.950 . S
C913 C910 1.387 . S
C914 C915 1.387 . S
C914 H918 0.950 . S
C914 C923 1.390 . S
C915 C914 1.387 . S
C915 C917 1.387 . S
H916 C923 0.950 . S
C917 C915 1.387 . S
C917 C919 1.390 . S
C917 H921 0.950 . S
H918 C914 0.950 . S
C919 C917 1.390 . S
C919 C920 1.387 . S
C919 H922 0.950 . S
C920 C919 1.387 . S
C920 C923 1.387 . S
H921 C917 0.950 . S
H922 C919 0.950 . S
C923 C914 1.390 . S
C923 H916 0.950 . S
C923 C920 1.387 . S
C924 C925 1.387 . S
C924 H928 0.950 . S
C924 C933 1.390 . S
C925 C924 1.387 . S
C925 C927 1.387 . S
H926 C933 0.950 . S
C927 C925 1.387 . S
C927 C929 1.390 . S
C927 H931 0.950 . S
H928 C924 0.950 . S
C929 C927 1.390 . S
C929 C930 1.387 . S
C929 H932 0.950 . S
C930 C929 1.387 . S
C930 C933 1.387 . S
H931 C927 0.950 . S
H932 C929 0.950 . S
C933 C924 1.390 . S
C933 H926 0.950 . S
C933 C930 1.387 . S
C934 C935 1.387 . S
C934 H938 0.950 . S
C934 C943 1.390 . S
C935 C934 1.387 . S
C935 C937 1.387 . S
H936 C943 0.950 . S
C937 C935 1.387 . S
C937 C939 1.390 . S
C937 H941 0.950 . S
H938 C934 0.950 . S
C939 C937 1.390 . S
C939 C940 1.387 . S
C939 H942 0.950 . S
C940 C939 1.387 . S
C940 C943 1.387 . S
H941 C937 0.950 . S
H942 C939 0.950 . S
C943 C934 1.390 . S
C943 H936 0.950 . S
C943 C940 1.387 . S
C944 C945 1.387 . S
C944 H948 0.950 . S
C944 C953 1.390 . S
C945 C944 1.387 . S
C945 C947 1.387 . S
H946 C953 0.950 . S
C947 C945 1.387 . S
C947 C949 1.390 . S
C947 H951 0.950 . S
H948 C944 0.950 . S
C949 C947 1.390 . S
C949 C950 1.387 . S
C949 H952 0.950 . S
C950 C949 1.387 . S
C950 C953 1.387 . S
H951 C947 0.950 . S
H952 C949 0.950 . S
C953 C944 1.390 . S
C953 H946 0.950 . S
C953 C950 1.387 . S
C954 C955 1.387 . S
C954 H958 0.950 . S
C954 C963 1.390 . S
C955 C954 1.387 . S
C955 C957 1.387 . S
H956 C963 0.950 . S
C957 C955 1.387 . S
C957 C959 1.390 . S
C957 H961 0.950 . S
H958 C954 0.950 . S
C959 C957 1.390 . S
C959 C960 1.387 . S
C959 H962 0.950 . S
C960 C959 1.387 . S
C960 C963 1.387 . S
H961 C957 0.950 . S
H962 C959 0.950 . S
C963 C954 1.390 . S
C963 H956 0.950 . S
C963 C960 1.387 . S
C964 C965 1.387 . S
C964 H968 0.950 . S
C964 C973 1.390 . S
C965 C964 1.387 . S
C965 C967 1.387 . S
H966 C973 0.950 . S
C967 C965 1.387 . S
C967 C969 1.390 . S
C967 H971 0.950 . S
H968 C964 0.950 . S
C969 C967 1.390 . S
C969 C970 1.387 . S
C969 H972 0.950 . S
C970 C969 1.387 . S
C970 C973 1.387 . S
H971 C967 0.950 . S
H972 C969 0.950 . S
C973 C964 1.390 . S
C973 H966 0.950 . S
C973 C970 1.387 . S
C974 C975 1.387 . S
C974 H978 0.950 . S
C974 C983 1.390 . S
C975 C974 1.387 . S
C975 C977 1.387 . S
H976 C983 0.950 . S
C977 C975 1.387 . S
C977 C979 1.390 . S
C977 H981 0.950 . S
H978 C974 0.950 . S
C979 C977 1.390 . S
C979 C980 1.387 . S
C979 H982 0.950 . S
C980 C979 1.387 . S
C980 C983 1.387 . S
H981 C977 0.950 . S
H982 C979 0.950 . S
C983 C974 1.390 . S
C983 H976 0.950 . S
C983 C980 1.387 . S
C984 C985 1.387 . S
C984 H988 0.950 . S
C984 C993 1.390 1_556 S
C985 C984 1.387 . S
C985 C987 1.387 . S
H986 C993 0.950 . S
C987 C985 1.387 . S
C987 C989 1.390 1_556 S
C987 H991 0.950 . S
H988 C984 0.950 . S
C989 C987 1.390 1_554 S
C989 C990 1.387 . S
C989 H992 0.950 . S
C990 C989 1.387 . S
C990 C993 1.387 . S
H991 C987 0.950 . S
H992 C989 0.950 . S
C993 C984 1.390 1_554 S
C993 H986 0.950 . S
C993 C990 1.387 . S
C994 C995 1.387 . S
C994 H998 0.950 . S
C994 C1003 1.390 . S
C995 C994 1.387 . S
C995 C997 1.387 . S
H996 C1003 0.950 . S
C997 C995 1.387 . S
C997 C999 1.390 . S
C997 H1001 0.950 . S
H998 C994 0.950 . S
C999 C997 1.390 . S
C999 C1000 1.387 . S
C999 H1002 0.950 . S
C1000 C999 1.387 . S
C1000 C1003 1.387 . S
H1001 C997 0.950 . S
H1002 C999 0.950 . S
C1003 C994 1.390 . S
C1003 H996 0.950 . S
C1003 C1000 1.387 . S
C1004 C1005 1.387 1_556 S
C1004 H1008 0.950 . S
C1004 C1013 1.390 . S
C1005 C1004 1.387 1_554 S
C1005 C1007 1.387 . S
H1006 C1013 0.950 . S
C1007 C1005 1.387 . S
C1007 C1009 1.390 . S
C1007 H1011 0.950 . S
H1008 C1004 0.950 . S
C1009 C1007 1.390 . S
C1009 C1010 1.387 1_554 S
C1009 H1012 0.950 . S
C1010 C1009 1.387 1_556 S
C1010 C1013 1.387 . S
H1011 C1007 0.950 . S
H1012 C1009 0.950 . S
C1013 C1004 1.390 . S
C1013 H1006 0.950 . S
C1013 C1010 1.387 . S
C1014 C1015 1.387 . S
C1014 H1018 0.950 . S
C1014 C1023 1.390 . S
C1015 C1014 1.387 . S
C1015 C1017 1.387 . S
H1016 C1023 0.950 . S
C1017 C1015 1.387 . S
C1017 C1019 1.390 . S
C1017 H1021 0.950 . S
H1018 C1014 0.950 . S
C1019 C1017 1.390 . S
C1019 C1020 1.387 . S
C1019 H1022 0.950 . S
C1020 C1019 1.387 . S
C1020 C1023 1.387 . S
H1021 C1017 0.950 . S
H1022 C1019 0.950 . S
C1023 C1014 1.390 . S
C1023 H1016 0.950 . S
C1023 C1020 1.387 . S
C1024 C1025 1.387 . S
C1024 H1028 0.950 . S
C1024 C1033 1.390 . S
C1025 C1024 1.387 . S
C1025 C1027 1.387 1_556 S
H1026 C1033 0.950 . S
C1027 C1025 1.387 1_554 S
C1027 C1029 1.390 . S
C1027 H1031 0.950 . S
H1028 C1024 0.950 . S
C1029 C1027 1.390 . S
C1029 C1030 1.387 . S
C1029 H1032 0.950 . S
C1030 C1029 1.387 . S
C1030 C1033 1.387 1_554 S
H1031 C1027 0.950 . S
H1032 C1029 0.950 . S
C1033 C1024 1.390 . S
C1033 H1026 0.950 . S
C1033 C1030 1.387 1_556 S
C1034 C1035 1.387 . S
C1034 H1038 0.950 . S
C1034 C1043 1.390 . S
C1035 C1034 1.387 . S
C1035 C1037 1.387 . S
H1036 C1043 0.950 . S
C1037 C1035 1.387 . S
C1037 C1039 1.390 . S
C1037 H1041 0.950 . S
H1038 C1034 0.950 . S
C1039 C1037 1.390 . S
C1039 C1040 1.387 . S
C1039 H1042 0.950 . S
C1040 C1039 1.387 . S
C1040 C1043 1.387 . S
H1041 C1037 0.950 . S
H1042 C1039 0.950 . S
C1043 C1034 1.390 . S
C1043 H1036 0.950 . S
C1043 C1040 1.387 . S
C1044 C1045 1.387 . S
C1044 H1048 0.950 . S
C1044 C1053 1.390 1_554 S
C1045 C1044 1.387 . S
C1045 C1047 1.387 . S
H1046 C1053 0.950 . S
C1047 C1045 1.387 . S
C1047 C1049 1.390 1_554 S
C1047 H1051 0.950 . S
H1048 C1044 0.950 . S
C1049 C1047 1.390 1_556 S
C1049 C1050 1.387 . S
C1049 H1052 0.950 . S
C1050 C1049 1.387 . S
C1050 C1053 1.387 . S
H1051 C1047 0.950 . S
H1052 C1049 0.950 . S
C1053 C1044 1.390 1_556 S
C1053 H1046 0.950 . S
C1053 C1050 1.387 . S
C1054 C1055 1.387 . S
C1054 H1058 0.950 . S
C1054 C1063 1.390 . S
C1055 C1054 1.387 . S
C1055 C1057 1.387 . S
H1056 C1063 0.950 . S
C1057 C1055 1.387 . S
C1057 C1059 1.390 . S
C1057 H1061 0.950 . S
H1058 C1054 0.950 . S
C1059 C1057 1.390 . S
C1059 C1060 1.387 . S
C1059 H1062 0.950 . S
C1060 C1059 1.387 . S
C1060 C1063 1.387 . S
H1061 C1057 0.950 . S
H1062 C1059 0.950 . S
C1063 C1054 1.390 . S
C1063 H1056 0.950 . S
C1063 C1060 1.387 . S
C1064 C1065 1.387 . S
C1064 H1068 0.950 . S
C1064 C1073 1.390 . S
C1065 C1064 1.387 . S
C1065 C1067 1.387 1_556 S
H1066 C1073 0.950 . S
C1067 C1065 1.387 1_554 S
C1067 C1069 1.390 . S
C1067 H1071 0.950 . S
H1068 C1064 0.950 . S
C1069 C1067 1.390 . S
C1069 C1070 1.387 . S
C1069 H1072 0.950 . S
C1070 C1069 1.387 . S
C1070 C1073 1.387 1_554 S
H1071 C1067 0.950 . S
H1072 C1069 0.950 . S
C1073 C1064 1.390 . S
C1073 H1066 0.950 . S
C1073 C1070 1.387 1_556 S
C1074 C1075 1.387 . S
C1074 H1078 0.950 . S
C1074 C1083 1.390 . S
C1075 C1074 1.387 . S
C1075 C1077 1.387 . S
H1076 C1083 0.950 . S
C1077 C1075 1.387 . S
C1077 C1079 1.390 . S
C1077 H1081 0.950 . S
H1078 C1074 0.950 . S
C1079 C1077 1.390 . S
C1079 C1080 1.387 . S
C1079 H1082 0.950 . S
C1080 C1079 1.387 . S
C1080 C1083 1.387 . S
H1081 C1077 0.950 . S
H1082 C1079 0.950 . S
C1083 C1074 1.390 . S
C1083 H1076 0.950 . S
C1083 C1080 1.387 . S
C1084 C1085 1.387 1_554 S
C1084 H1088 0.950 . S
C1084 C1093 1.390 . S
C1085 C1084 1.387 1_556 S
C1085 C1087 1.387 . S
H1086 C1093 0.950 . S
C1087 C1085 1.387 . S
C1087 C1089 1.390 . S
C1087 H1091 0.950 . S
H1088 C1084 0.950 . S
C1089 C1087 1.390 . S
C1089 C1090 1.387 1_556 S
C1089 H1092 0.950 . S
C1090 C1089 1.387 1_554 S
C1090 C1093 1.387 . S
H1091 C1087 0.950 . S
H1092 C1089 0.950 . S
C1093 C1084 1.390 . S
C1093 H1086 0.950 . S
C1093 C1090 1.387 . S
C1094 C1095 1.387 . S
C1094 H1098 0.950 . S
C1094 C1103 1.390 . S
C1095 C1094 1.387 . S
C1095 C1097 1.387 . S
H1096 C1103 0.950 . S
C1097 C1095 1.387 . S
C1097 C1099 1.390 . S
C1097 H1101 0.950 . S
H1098 C1094 0.950 . S
C1099 C1097 1.390 . S
C1099 C1100 1.387 . S
C1099 H1102 0.950 . S
C1100 C1099 1.387 . S
C1100 C1103 1.387 . S
H1101 C1097 0.950 . S
H1102 C1099 0.950 . S
C1103 C1094 1.390 . S
C1103 H1096 0.950 . S
C1103 C1100 1.387 . S
C1104 C1105 1.387 . S
C1104 H1108 0.950 . S
C1104 C1113 1.390 . S
C1105 C1104 1.387 . S
C1105 C1107 1.387 . S
H1106 C1113 0.950 . S
C1107 C1105 1.387 . S
C1107 C1109 1.390 . S
C1107 H1111 0.950 . S
H1108 C1104 0.950 . S
C1109 C1107 1.390 . S
C1109 C1110 1.387 . S
C1109 H1112 0.950 . S
C1110 C1109 1.387 . S
C1110 C1113 1.387 . S
H1111 C1107 0.950 . S
H1112 C1109 0.950 . S
C1113 C1104 1.390 . S
C1113 H1106 0.950 . S
C1113 C1110 1.387 . S
C1114 C1115 1.387 . S
C1114 H1118 0.950 . S
C1114 C1123 1.390 1_455 S
C1115 C1114 1.387 . S
C1115 C1117 1.387 . S
H1116 C1123 0.950 . S
C1117 C1115 1.387 . S
C1117 C1119 1.390 1_455 S
C1117 H1121 0.950 . S
H1118 C1114 0.950 . S
C1119 C1117 1.390 1_655 S
C1119 C1120 1.387 . S
C1119 H1122 0.950 . S
C1120 C1119 1.387 . S
C1120 C1123 1.387 . S
H1121 C1117 0.950 . S
H1122 C1119 0.950 . S
C1123 C1114 1.390 1_655 S
C1123 H1116 0.950 . S
C1123 C1120 1.387 . S
C1124 C1125 1.387 . S
C1124 H1128 0.950 . S
C1124 C1133 1.390 1_565 S
C1125 C1124 1.387 . S
C1125 C1127 1.387 . S
H1126 C1133 0.950 . S
C1127 C1125 1.387 . S
C1127 C1129 1.390 1_565 S
C1127 H1131 0.950 . S
H1128 C1124 0.950 . S
C1129 C1127 1.390 1_545 S
C1129 C1130 1.387 . S
C1129 H1132 0.950 . S
C1130 C1129 1.387 . S
C1130 C1133 1.387 . S
H1131 C1127 0.950 . S
H1132 C1129 0.950 . S
C1133 C1124 1.390 1_545 S
C1133 H1126 0.950 . S
C1133 C1130 1.387 . S
C1134 C1135 1.387 . S
C1134 H1138 0.950 . S
C1134 C1143 1.390 . S
C1135 C1134 1.387 . S
C1135 C1137 1.387 . S
H1136 C1143 0.950 . S
C1137 C1135 1.387 . S
C1137 C1139 1.390 . S
C1137 H1141 0.950 . S
H1138 C1134 0.950 . S
C1139 C1137 1.390 . S
C1139 C1140 1.387 . S
C1139 H1142 0.950 . S
C1140 C1139 1.387 . S
C1140 C1143 1.387 . S
H1141 C1137 0.950 . S
H1142 C1139 0.950 . S
C1143 C1134 1.390 . S
C1143 H1136 0.950 . S
C1143 C1140 1.387 . S
C1144 C1145 1.387 . S
C1144 H1148 0.950 . S
C1144 C1153 1.390 1_655 S
C1145 C1144 1.387 . S
C1145 C1147 1.387 . S
H1146 C1153 0.950 . S
C1147 C1145 1.387 . S
C1147 C1149 1.390 1_655 S
C1147 H1151 0.950 . S
H1148 C1144 0.950 . S
C1149 C1147 1.390 1_455 S
C1149 C1150 1.387 . S
C1149 H1152 0.950 . S
C1150 C1149 1.387 . S
C1150 C1153 1.387 . S
H1151 C1147 0.950 . S
H1152 C1149 0.950 . S
C1153 C1144 1.390 1_455 S
C1153 H1146 0.950 . S
C1153 C1150 1.387 . S
C1154 C1155 1.387 . S
C1154 H1158 0.950 . S
C1154 C1163 1.390 1_545 S
C1155 C1154 1.387 . S
C1155 C1157 1.387 . S
H1156 C1163 0.950 . S
C1157 C1155 1.387 . S
C1157 C1159 1.390 1_545 S
C1157 H1161 0.950 . S
H1158 C1154 0.950 . S
C1159 C1157 1.390 1_565 S
C1159 C1160 1.387 . S
C1159 H1162 0.950 . S
C1160 C1159 1.387 . S
C1160 C1163 1.387 . S
H1161 C1157 0.950 . S
H1162 C1159 0.950 . S
C1163 C1154 1.390 1_565 S
C1163 H1156 0.950 . S
C1163 C1160 1.387 . S
C1164 C1165 1.387 . S
C1164 H1168 0.950 . S
C1164 C1173 1.390 . S
C1165 C1164 1.387 . S
C1165 C1167 1.387 . S
H1166 C1173 0.950 . S
C1167 C1165 1.387 . S
C1167 C1169 1.390 . S
C1167 H1171 0.950 . S
H1168 C1164 0.950 . S
C1169 C1167 1.390 . S
C1169 C1170 1.387 . S
C1169 H1172 0.950 . S
C1170 C1169 1.387 . S
C1170 C1173 1.387 . S
H1171 C1167 0.950 . S
H1172 C1169 0.950 . S
C1173 C1164 1.390 . S
C1173 H1166 0.950 . S
C1173 C1170 1.387 . S
C1174 C1175 1.387 . S
C1174 H1178 0.950 . S
C1174 C1183 1.390 1_655 S
C1175 C1174 1.387 . S
C1175 C1177 1.387 . S
H1176 C1183 0.950 . S
C1177 C1175 1.387 . S
C1177 C1179 1.390 1_655 S
C1177 H1181 0.950 . S
H1178 C1174 0.950 . S
C1179 C1177 1.390 1_455 S
C1179 C1180 1.387 . S
C1179 H1182 0.950 . S
C1180 C1179 1.387 . S
C1180 C1183 1.387 . S
H1181 C1177 0.950 . S
H1182 C1179 0.950 . S
C1183 C1174 1.390 1_455 S
C1183 H1176 0.950 . S
C1183 C1180 1.387 . S
C1184 C1185 1.387 . S
C1184 H1188 0.950 . S
C1184 C1193 1.390 1_545 S
C1185 C1184 1.387 . S
C1185 C1187 1.387 . S
H1186 C1193 0.950 . S
C1187 C1185 1.387 . S
C1187 C1189 1.390 1_545 S
C1187 H1191 0.950 . S
H1188 C1184 0.950 . S
C1189 C1187 1.390 1_565 S
C1189 C1190 1.387 . S
C1189 H1192 0.950 . S
C1190 C1189 1.387 . S
C1190 C1193 1.387 . S
H1191 C1187 0.950 . S
H1192 C1189 0.950 . S
C1193 C1184 1.390 1_565 S
C1193 H1186 0.950 . S
C1193 C1190 1.387 . S
C1194 C1195 1.387 . S
C1194 H1198 0.950 . S
C1194 C1203 1.390 . S
C1195 C1194 1.387 . S
C1195 C1197 1.387 . S
H1196 C1203 0.950 . S
C1197 C1195 1.387 . S
C1197 C1199 1.390 . S
C1197 H1201 0.950 . S
H1198 C1194 0.950 . S
C1199 C1197 1.390 . S
C1199 C1200 1.387 . S
C1199 H1202 0.950 . S
C1200 C1199 1.387 . S
C1200 C1203 1.387 . S
H1201 C1197 0.950 . S
H1202 C1199 0.950 . S
C1203 C1194 1.390 . S
C1203 H1196 0.950 . S
C1203 C1200 1.387 . S
C1204 C1205 1.387 . S
C1204 H1208 0.950 . S
C1204 C1213 1.390 1_455 S
C1205 C1204 1.387 . S
C1205 C1207 1.387 . S
H1206 C1213 0.950 . S
C1207 C1205 1.387 . S
C1207 C1209 1.390 1_455 S
C1207 H1211 0.950 . S
H1208 C1204 0.950 . S
C1209 C1207 1.390 1_655 S
C1209 C1210 1.387 . S
C1209 H1212 0.950 . S
C1210 C1209 1.387 . S
C1210 C1213 1.387 . S
H1211 C1207 0.950 . S
H1212 C1209 0.950 . S
C1213 C1204 1.390 1_655 S
C1213 H1206 0.950 . S
C1213 C1210 1.387 . S
C1214 C1215 1.387 . S
C1214 H1218 0.950 . S
C1214 C1223 1.390 1_565 S
C1215 C1214 1.387 . S
C1215 C1217 1.387 . S
H1216 C1223 0.950 . S
C1217 C1215 1.387 . S
C1217 C1219 1.390 1_565 S
C1217 H1221 0.950 . S
H1218 C1214 0.950 . S
C1219 C1217 1.390 1_545 S
C1219 C1220 1.387 . S
C1219 H1222 0.950 . S
C1220 C1219 1.387 . S
C1220 C1223 1.387 . S
H1221 C1217 0.950 . S
H1222 C1219 0.950 . S
C1223 C1214 1.390 1_545 S
C1223 H1216 0.950 . S
C1223 C1220 1.387 . S
C1224 C1225 1.387 1_554 S
C1224 H1228 0.950 . S
C1224 C1233 1.390 . S
C1225 C1224 1.387 1_556 S
C1225 C1227 1.387 . S
H1226 C1233 0.950 . S
C1227 C1225 1.387 . S
C1227 C1229 1.390 . S
C1227 H1231 0.950 . S
H1228 C1224 0.950 . S
C1229 C1227 1.390 . S
C1229 C1230 1.387 1_556 S
C1229 H1232 0.950 . S
C1230 C1229 1.387 1_554 S
C1230 C1233 1.387 . S
H1231 C1227 0.950 . S
H1232 C1229 0.950 . S
C1233 C1224 1.390 . S
C1233 H1226 0.950 . S
C1233 C1230 1.387 . S
C1234 C1235 1.387 . S
C1234 H1238 0.950 . S
C1234 C1243 1.390 . S
C1235 C1234 1.387 . S
C1235 C1237 1.387 . S
H1236 C1243 0.950 . S
C1237 C1235 1.387 . S
C1237 C1239 1.390 . S
C1237 H1241 0.950 . S
H1238 C1234 0.950 . S
C1239 C1237 1.390 . S
C1239 C1240 1.387 . S
C1239 H1242 0.950 . S
C1240 C1239 1.387 . S
C1240 C1243 1.387 . S
H1241 C1237 0.950 . S
H1242 C1239 0.950 . S
C1243 C1234 1.390 . S
C1243 H1236 0.950 . S
C1243 C1240 1.387 . S
C1244 C1245 1.387 . S
C1244 H1248 0.950 . S
C1244 C1253 1.390 1_556 S
C1245 C1244 1.387 . S
C1245 C1247 1.387 . S
H1246 C1253 0.950 . S
C1247 C1245 1.387 . S
C1247 C1249 1.390 1_556 S
C1247 H1251 0.950 . S
H1248 C1244 0.950 . S
C1249 C1247 1.390 1_554 S
C1249 C1250 1.387 . S
C1249 H1252 0.950 . S
C1250 C1249 1.387 . S
C1250 C1253 1.387 . S
H1251 C1247 0.950 . S
H1252 C1249 0.950 . S
C1253 C1244 1.390 1_554 S
C1253 H1246 0.950 . S
C1253 C1250 1.387 . S
C1254 C1255 1.387 . S
C1254 H1258 0.950 . S
C1254 C1263 1.390 . S
C1255 C1254 1.387 . S
C1255 C1257 1.387 . S
H1256 C1263 0.950 . S
C1257 C1255 1.387 . S
C1257 C1259 1.390 . S
C1257 H1261 0.950 . S
H1258 C1254 0.950 . S
C1259 C1257 1.390 . S
C1259 C1260 1.387 . S
C1259 H1262 0.950 . S
C1260 C1259 1.387 . S
C1260 C1263 1.387 . S
H1261 C1257 0.950 . S
H1262 C1259 0.950 . S
C1263 C1254 1.390 . S
C1263 H1256 0.950 . S
C1263 C1260 1.387 . S
C1264 C1265 1.387 . S
C1264 H1268 0.950 . S
C1264 C1273 1.390 . S
C1265 C1264 1.387 . S
C1265 C1267 1.387 1_556 S
H1266 C1273 0.950 . S
C1267 C1265 1.387 1_554 S
C1267 C1269 1.390 . S
C1267 H1271 0.950 . S
H1268 C1264 0.950 . S
C1269 C1267 1.390 . S
C1269 C1270 1.387 . S
C1269 H1272 0.950 . S
C1270 C1269 1.387 . S
C1270 C1273 1.387 1_554 S
H1271 C1267 0.950 . S
H1272 C1269 0.950 . S
C1273 C1264 1.390 . S
C1273 H1266 0.950 . S
C1273 C1270 1.387 1_556 S
C1274 C1275 1.387 . S
C1274 H1278 0.950 . S
C1274 C1283 1.390 . S
C1275 C1274 1.387 . S
C1275 C1277 1.387 . S
H1276 C1283 0.950 . S
C1277 C1275 1.387 . S
C1277 C1279 1.390 . S
C1277 H1281 0.950 . S
H1278 C1274 0.950 . S
C1279 C1277 1.390 . S
C1279 C1280 1.387 . S
C1279 H1282 0.950 . S
C1280 C1279 1.387 . S
C1280 C1283 1.387 . S
H1281 C1277 0.950 . S
H1282 C1279 0.950 . S
C1283 C1274 1.390 . S
C1283 H1276 0.950 . S
C1283 C1280 1.387 . S
C1284 C1285 1.387 1_556 S
C1284 H1288 0.950 . S
C1284 C1293 1.390 . S
C1285 C1284 1.387 1_554 S
C1285 C1287 1.387 . S
H1286 C1293 0.950 . S
C1287 C1285 1.387 . S
C1287 C1289 1.390 . S
C1287 H1291 0.950 . S
H1288 C1284 0.950 . S
C1289 C1287 1.390 . S
C1289 C1290 1.387 1_554 S
C1289 H1292 0.950 . S
C1290 C1289 1.387 1_556 S
C1290 C1293 1.387 . S
H1291 C1287 0.950 . S
H1292 C1289 0.950 . S
C1293 C1284 1.390 . S
C1293 H1286 0.950 . S
C1293 C1290 1.387 . S
C1294 C1295 1.387 . S
C1294 H1298 0.950 . S
C1294 C1303 1.390 . S
C1295 C1294 1.387 . S
C1295 C1297 1.387 . S
H1296 C1303 0.950 . S
C1297 C1295 1.387 . S
C1297 C1299 1.390 . S
C1297 H1301 0.950 . S
H1298 C1294 0.950 . S
C1299 C1297 1.390 . S
C1299 C1300 1.387 . S
C1299 H1302 0.950 . S
C1300 C1299 1.387 . S
C1300 C1303 1.387 . S
H1301 C1297 0.950 . S
H1302 C1299 0.950 . S
C1303 C1294 1.390 . S
C1303 H1296 0.950 . S
C1303 C1300 1.387 . S
C1304 C1305 1.387 . S
C1304 H1308 0.950 . S
C1304 C1313 1.390 1_554 S
C1305 C1304 1.387 . S
C1305 C1307 1.387 . S
H1306 C1313 0.950 . S
C1307 C1305 1.387 . S
C1307 C1309 1.390 1_554 S
C1307 H1311 0.950 . S
H1308 C1304 0.950 . S
C1309 C1307 1.390 1_556 S
C1309 C1310 1.387 . S
C1309 H1312 0.950 . S
C1310 C1309 1.387 . S
C1310 C1313 1.387 . S
H1311 C1307 0.950 . S
H1312 C1309 0.950 . S
C1313 C1304 1.390 1_556 S
C1313 H1306 0.950 . S
C1313 C1310 1.387 . S
C1314 C1315 1.387 . S
C1314 H1318 0.950 . S
C1314 C1323 1.390 . S
C1315 C1314 1.387 . S
C1315 C1317 1.387 . S
H1316 C1323 0.950 . S
C1317 C1315 1.387 . S
C1317 C1319 1.390 . S
C1317 H1321 0.950 . S
H1318 C1314 0.950 . S
C1319 C1317 1.390 . S
C1319 C1320 1.387 . S
C1319 H1322 0.950 . S
C1320 C1319 1.387 . S
C1320 C1323 1.387 . S
H1321 C1317 0.950 . S
H1322 C1319 0.950 . S
C1323 C1314 1.390 . S
C1323 H1316 0.950 . S
C1323 C1320 1.387 . S
C1324 C1325 1.387 1_554 S
C1324 H1328 0.950 . S
C1324 C1333 1.390 . S
C1325 C1324 1.387 1_556 S
C1325 C1327 1.387 . S
H1326 C1333 0.950 . S
C1327 C1325 1.387 . S
C1327 C1329 1.390 . S
C1327 H1331 0.950 . S
H1328 C1324 0.950 . S
C1329 C1327 1.390 . S
C1329 C1330 1.387 1_556 S
C1329 H1332 0.950 . S
C1330 C1329 1.387 1_554 S
C1330 C1333 1.387 . S
H1331 C1327 0.950 . S
H1332 C1329 0.950 . S
C1333 C1324 1.390 . S
C1333 H1326 0.950 . S
C1333 C1330 1.387 . S
C1334 C1335 1.387 . S
C1334 H1338 0.950 . S
C1334 C1343 1.390 . S
C1335 C1334 1.387 . S
C1335 C1337 1.387 . S
H1336 C1343 0.950 . S
C1337 C1335 1.387 . S
C1337 C1339 1.390 . S
C1337 H1341 0.950 . S
H1338 C1334 0.950 . S
C1339 C1337 1.390 . S
C1339 C1340 1.387 . S
C1339 H1342 0.950 . S
C1340 C1339 1.387 . S
C1340 C1343 1.387 . S
H1341 C1337 0.950 . S
H1342 C1339 0.950 . S
C1343 C1334 1.390 . S
C1343 H1336 0.950 . S
C1343 C1340 1.387 . S
C865 C14 1.402 . S
C870 C554 1.405 . S
C875 C50 1.403 . S
C880 C590 1.404 . S
C885 C626 1.403 . S
C890 C86 1.404 . S
C895 C446 1.403 . S
C900 C122 1.404 . S
C905 C482 1.404 . S
C910 C158 1.403 . S
C915 C518 1.402 . S
C920 C194 1.405 . S
C925 C770 1.402 . S
C930 C230 1.405 . S
C935 C266 1.402 . S
C940 C806 1.406 . S
C945 C842 1.403 . S
C950 C302 1.404 . S
C955 C338 1.403 . S
C960 C662 1.404 . S
C965 C698 1.402 . S
C970 C374 1.405 . S
C975 C410 1.406 . S
C980 C734 1.402 . S
C985 C363 1.350 . S
C990 C3 1.350 . S
C995 C399 1.349 . S
C1000 C39 1.350 . S
C1005 C75 1.349 . S
C1010 C219 1.349 . S
C1015 C111 1.350 . S
C1020 C255 1.350 . S
C1025 C291 1.349 . S
C1030 C147 1.349 . S
C1035 C183 1.349 . S
C1040 C327 1.349 . S
C1045 C795 1.350 . S
C1050 C435 1.350 . S
C1055 C471 1.350 . S
C1060 C831 1.350 . S
C1065 C507 1.349 . S
C1070 C651 1.349 . S
C1075 C687 1.349 . S
C1080 C543 1.349 . S
C1085 C579 1.350 . S
C1090 C723 1.350 . S
C1095 C615 1.350 . S
C1100 C759 1.350 . S
C1105 C4 1.412 . S
C1110 C652 1.410 . S
C1115 C688 1.410 . S
C1120 C40 1.412 . S
C1125 C76 1.412 . S
C1130 C724 1.410 . S
C1135 C112 1.412 . S
C1140 C760 1.410 . S
C1145 C796 1.412 . S
C1150 C148 1.409 . S
C1155 C184 1.412 . S
C1160 C832 1.409 . S
C1165 C220 1.409 . S
C1170 C436 1.411 . S
C1175 C256 1.410 . S
C1180 C472 1.412 . S
C1185 C508 1.410 . S
C1190 C292 1.412 . S
C1195 C544 1.409 . S
C1200 C328 1.411 . S
C1205 C364 1.412 . S
C1210 C580 1.409 . S
C1215 C616 1.412 . S
C1220 C400 1.410 . S
C1225 C218 1.495 . S
C1230 C2 1.496 . S
C1235 C38 1.496 . S
C1240 C254 1.495 . S
C1245 C290 1.496 . S
C1250 C74 1.496 . S
C1255 C326 1.495 . S
C1260 C110 1.496 . S
C1265 C362 1.496 . S
C1270 C146 1.496 . S
C1275 C182 1.496 . S
C1280 C398 1.496 . S
C1285 C650 1.496 . S
C1290 C434 1.495 . S
C1295 C470 1.495 . S
C1300 C686 1.496 . S
C1305 C722 1.496 . S
C1310 C506 1.496 . S
C1315 C758 1.496 . S
C1320 C542 1.495 . S
C1325 C578 1.496 . S
C1330 C794 1.495 . S
C1335 C614 1.496 . S
C1340 C830 1.496 . S
