# Generated by pormake.
# Topology dia, (4)-cn, num edge types: 1
# Building blocks:
#     Node 0, Type 0, BuildingBlock: TATPOV_clean_sbu_0, # of connection points: 4
#     Node 1, Type 0, BuildingBlock: TATPOV_clean_sbu_0, # of connection points: 4
#     Node 2, Type 0, BuildingBlock: TATPOV_clean_sbu_0, # of connection points: 4
#     Node 3, Type 0, BuildingBlock: TATPOV_clean_sbu_0, # of connection points: 4
#     Node 4, Type 0, BuildingBlock: TATPOV_clean_sbu_0, # of connection points: 4
#     Node 5, Type 0, BuildingBlock: TATPOV_clean_sbu_0, # of connection points: 4
#     Node 6, Type 0, BuildingBlock: TATPOV_clean_sbu_0, # of connection points: 4
#     Node 7, Type 0, BuildingBlock: TATPOV_clean_sbu_0, # of connection points: 4
#     Edge 8, Type (0, 0), BuildingBlock: KIFKEQ_clean_linker_1, # of connection points: 2
#     Edge 9, Type (0, 0), BuildingBlock: KIFKEQ_clean_linker_1, # of connection points: 2
#     Edge 10, Type (0, 0), BuildingBlock: KIFKEQ_clean_linker_1, # of connection points: 2
#     Edge 11, Type (0, 0), BuildingBlock: KIFKEQ_clean_linker_1, # of connection points: 2
#     Edge 12, Type (0, 0), BuildingBlock: KIFKEQ_clean_linker_1, # of connection points: 2
#     Edge 13, Type (0, 0), BuildingBlock: KIFKEQ_clean_linker_1, # of connection points: 2
#     Edge 14, Type (0, 0), BuildingBlock: KIFKEQ_clean_linker_1, # of connection points: 2
#     Edge 15, Type (0, 0), BuildingBlock: KIFKEQ_clean_linker_1, # of connection points: 2
#     Edge 16, Type (0, 0), BuildingBlock: KIFKEQ_clean_linker_1, # of connection points: 2
#     Edge 17, Type (0, 0), BuildingBlock: KIFKEQ_clean_linker_1, # of connection points: 2
#     Edge 18, Type (0, 0), BuildingBlock: KIFKEQ_clean_linker_1, # of connection points: 2
#     Edge 19, Type (0, 0), BuildingBlock: KIFKEQ_clean_linker_1, # of connection points: 2
#     Edge 20, Type (0, 0), BuildingBlock: KIFKEQ_clean_linker_1, # of connection points: 2
#     Edge 21, Type (0, 0), BuildingBlock: KIFKEQ_clean_linker_1, # of connection points: 2
#     Edge 22, Type (0, 0), BuildingBlock: KIFKEQ_clean_linker_1, # of connection points: 2
#     Edge 23, Type (0, 0), BuildingBlock: KIFKEQ_clean_linker_1, # of connection points: 2
# Relax obj value: 0.006
# Max RMSD: 0.038
# Mean RMSD: 0.038
data_MOF--net-dia--node1-TATPOV_clean_sbu_0--edge1-KIFKEQ_clean_linker_1
_symmetry_space_group_name_H-M    P1
_symmetry_Int_Tables_number       1
_symmetry_cell_setting            triclinic
loop_
_symmetry_equiv_pos_as_xyz
'x, y, z'
_cell_length_a     33.970637
_cell_length_b     36.370981
_cell_length_c     36.271082
_cell_angle_alpha  96.907307
_cell_angle_beta   88.524558
_cell_angle_gamma 88.319398
loop_
_atom_site_label
_atom_site_type_symbol
_atom_site_fract_x
_atom_site_fract_y
_atom_site_fract_z
_atom_type_partial_charge
Zn0 Zn 0.14994 0.08162 0.55906 0.0
Zn1 Zn 0.10258 0.12563 0.60926 0.0
O2 O 0.12851 0.08738 0.63898 0.0
O3 O 0.16326 0.04903 0.59808 0.0
O4 O 0.06949 0.15913 0.64795 0.0
O5 O 0.18272 0.12522 0.55193 0.0
O6 O 0.14053 0.16115 0.58806 0.0
C7 C 0.1507 0.05848 0.6311 0.0
C8 C 0.06811 0.0837 0.54005 0.0
O9 O 0.06336 0.10358 0.57137 0.0
O10 O 0.10218 0.07207 0.52829 0.0
C11 C 0.05009 0.14626 0.67375 0.0
O12 O 0.05079 0.11027 0.67487 0.0
C13 C 0.1711 0.15712 0.56664 0.0
Zn14 Zn 0.80782 0.42712 0.95688 0.0
Zn15 Zn 0.85201 0.37857 0.90927 0.0
O16 O 0.83084 0.34641 0.94791 0.0
O17 O 0.79923 0.38701 0.98914 0.0
O18 O 0.88245 0.34306 0.87035 0.0
O19 O 0.7702 0.43665 0.9173 0.0
O20 O 0.81072 0.40218 0.87822 0.0
C21 C 0.81154 0.35416 0.97864 0.0
C22 C 0.8889 0.44652 0.9503 0.0
O23 O 0.89276 0.4154 0.93003 0.0
O24 O 0.85543 0.45821 0.96367 0.0
C25 C 0.90498 0.31658 0.87789 0.0
O26 O 0.90928 0.31133 0.91279 0.0
C27 C 0.78019 0.4235 0.88442 0.0
Zn28 Zn 0.65693 0.0857 0.08623 0.0
Zn29 Zn 0.61305 0.12993 0.13648 0.0
O30 O 0.62925 0.08568 0.16431 0.0
O31 O 0.65999 0.04702 0.12076 0.0
O32 O 0.58117 0.16575 0.17421 0.0
O33 O 0.69864 0.12304 0.08546 0.0
O34 O 0.65854 0.16172 0.12088 0.0
C35 C 0.64658 0.05441 0.15375 0.0
C36 C 0.57941 0.09978 0.06177 0.0
O37 O 0.57437 0.11614 0.09474 0.0
O38 O 0.61287 0.08595 0.05067 0.0
C39 C 0.55517 0.15532 0.19627 0.0
O40 O 0.54861 0.11978 0.19517 0.0
C41 C 0.69058 0.15518 0.10177 0.0
Zn42 Zn 0.76887 0.92041 0.42096 0.0
Zn43 Zn 0.82114 0.87489 0.37782 0.0
O44 O 0.80287 0.84429 0.41913 0.0
O45 O 0.76081 0.88138 0.45428 0.0
O46 O 0.8593 0.83946 0.34549 0.0
O47 O 0.73451 0.92313 0.37771 0.0
O48 O 0.77908 0.89003 0.3417 0.0
C49 C 0.77945 0.85061 0.4474 0.0
C50 C 0.8467 0.94881 0.41844 0.0
O51 O 0.85455 0.91813 0.39834 0.0
O52 O 0.81195 0.95682 0.43087 0.0
C53 C 0.88932 0.85046 0.32866 0.0
O54 O 0.8959 0.8861 0.33163 0.0
C55 C 0.74638 0.90848 0.34583 0.0
Zn56 Zn 0.196 0.59473 0.0819 0.0
Zn57 Zn 0.14375 0.6418 0.12483 0.0
O58 O 0.16963 0.61141 0.16234 0.0
O59 O 0.21292 0.57468 0.12828 0.0
O60 O 0.1048 0.6776 0.15547 0.0
O61 O 0.22225 0.63812 0.06462 0.0
O62 O 0.18054 0.67586 0.09943 0.0
C63 C 0.19657 0.586 0.15949 0.0
C64 C 0.11562 0.58479 0.0622 0.0
O65 O 0.10899 0.6107 0.08877 0.0
O66 O 0.15047 0.57298 0.05364 0.0
C67 C 0.08305 0.66778 0.18145 0.0
O68 O 0.08604 0.63344 0.18915 0.0
C69 C 0.20973 0.67062 0.07635 0.0
Zn70 Zn 0.29546 0.44929 0.45121 0.0
Zn71 Zn 0.3431 0.40279 0.40288 0.0
O72 O 0.31345 0.36847 0.43437 0.0
O73 O 0.2752 0.40566 0.47338 0.0
O74 O 0.37767 0.36753 0.36683 0.0
O75 O 0.27006 0.46822 0.40764 0.0
O76 O 0.30855 0.43071 0.36914 0.0
C77 C 0.28808 0.3734 0.46117 0.0
C78 C 0.37765 0.46287 0.45861 0.0
O79 O 0.38196 0.4365 0.43213 0.0
O80 O 0.3437 0.47313 0.47175 0.0
C81 C 0.39604 0.33985 0.3775 0.0
O82 O 0.39285 0.33438 0.41259 0.0
C83 C 0.28134 0.45582 0.37486 0.0
Zn84 Zn 0.28474 0.95275 0.91715 0.0
Zn85 Zn 0.33938 0.90834 0.87487 0.0
O86 O 0.31776 0.87519 0.91241 0.0
O87 O 0.27445 0.91127 0.94713 0.0
O88 O 0.37909 0.87543 0.84184 0.0
O89 O 0.25341 0.9574 0.87212 0.0
O90 O 0.2994 0.92449 0.83771 0.0
C91 C 0.29255 0.88031 0.93935 0.0
C92 C 0.36289 0.98074 0.92037 0.0
O93 O 0.37167 0.95086 0.89924 0.0
O94 O 0.32755 0.98834 0.93125 0.0
C95 C 0.39929 0.84906 0.85295 0.0
O96 O 0.395 0.8425 0.88764 0.0
C97 C 0.2668 0.94306 0.84063 0.0
Zn98 Zn 0.69119 0.57962 0.60593 0.0
Zn99 Zn 0.64391 0.62763 0.65093 0.0
O100 O 0.66606 0.59123 0.68542 0.0
O101 O 0.70305 0.55127 0.64803 0.0
O102 O 0.60908 0.66394 0.68568 0.0
O103 O 0.72411 0.62106 0.59324 0.0
O104 O 0.68373 0.66048 0.62754 0.0
C105 C 0.68815 0.562 0.67994 0.0
C106 C 0.61111 0.57879 0.58436 0.0
O107 O 0.60606 0.60287 0.61282 0.0
O108 O 0.64509 0.56503 0.57519 0.0
C109 C 0.58013 0.682 0.67417 0.0
O110 O 0.57263 0.67747 0.63859 0.0
C111 C 0.71366 0.65403 0.60547 0.0
H112 H 0.25011 0.37537 0.52831 0.0
H113 H 0.2942 0.29989 0.43415 0.0
H114 H 0.22551 0.32361 0.55757 0.0
H115 H 0.26804 0.24804 0.46276 0.0
H116 H 0.24463 0.15884 0.53523 0.0
H117 H 0.27584 0.21148 0.51248 0.0
H118 H 0.17394 0.28119 0.55044 0.0
H119 H 0.14352 0.22889 0.57448 0.0
C120 C 0.2543 0.34768 0.51373 0.0
C121 C 0.27383 0.34166 0.4788 0.0
C122 C 0.24005 0.31802 0.53047 0.0
C123 C 0.24456 0.2817 0.51245 0.0
C124 C 0.26457 0.27563 0.47767 0.0
C125 C 0.2793 0.30532 0.46112 0.0
C126 C 0.22914 0.18555 0.5391 0.0
C127 C 0.19157 0.18976 0.55647 0.0
C128 C 0.24689 0.21563 0.52581 0.0
C129 C 0.22723 0.25045 0.52925 0.0
C130 C 0.19015 0.25487 0.54771 0.0
C131 C 0.17261 0.22487 0.56141 0.0
H132 H 0.7089 0.489 0.67259 0.0
H133 H 0.68322 0.58316 0.75507 0.0
H134 H 0.72378 0.45089 0.72125 0.0
H135 H 0.69994 0.54531 0.80408 0.0
H136 H 0.71083 0.46394 0.88702 0.0
H137 H 0.68264 0.49451 0.8371 0.0
H138 H 0.77604 0.44563 0.76202 0.0
H139 H 0.8032 0.41416 0.81131 0.0
C140 C 0.70668 0.50161 0.70122 0.0
C141 C 0.69549 0.53919 0.71009 0.0
C142 C 0.71528 0.47976 0.7291 0.0
C143 C 0.71354 0.49511 0.76653 0.0
C144 C 0.70115 0.53249 0.77553 0.0
C145 C 0.6919 0.55429 0.74752 0.0
C146 C 0.72485 0.45918 0.85962 0.0
C147 C 0.75942 0.43687 0.85315 0.0
C148 C 0.70889 0.47695 0.83113 0.0
C149 C 0.72733 0.47292 0.7957 0.0
C150 C 0.76075 0.44907 0.78884 0.0
C151 C 0.77647 0.43106 0.81719 0.0
H152 H 0.50105 0.10202 0.08118 0.0
H153 H 0.58224 0.08312 0.98664 0.0
H154 H 0.44756 0.07971 0.04184 0.0
H155 H 0.52862 0.06196 0.94707 0.0
H156 H 0.44248 0.96844 0.91233 0.0
H157 H 0.49348 1.00535 0.94274 0.0
H158 H 0.40519 0.08651 0.99046 0.0
H159 H 0.35393 0.04901 0.96078 0.0
C160 C 0.50722 0.0941 0.0518 0.0
C161 C 0.54586 0.09362 0.03709 0.0
C162 C 0.47656 0.08144 0.02918 0.0
C163 C 0.48402 0.06848 0.99143 0.0
C164 C 0.52214 0.07091 0.97622 0.0
C165 C 0.55279 0.08317 0.99886 0.0
C166 C 0.43397 0.99441 0.92884 0.0
C167 C 0.39415 1.00553 0.93453 0.0
C168 C 0.46324 0.01576 0.9461 0.0
C169 C 0.45334 0.04881 0.96921 0.0
C170 C 0.41367 0.0609 0.97331 0.0
C171 C 0.38436 0.03945 0.95618 0.0
H172 H 0.88213 0.77537 0.31162 0.0
H173 H 0.9596 0.86451 0.29554 0.0
H174 H 0.92801 0.73149 0.27535 0.0
H175 H 0.00598 0.82062 0.26034 0.0
H176 H 0.06354 0.73871 0.16845 0.0
H177 H 0.016 0.7822 0.20288 0.0
H178 H -0.00905 0.70134 0.27766 0.0
H179 H 0.03756 0.65753 0.24252 0.0
C180 C 0.90902 0.78561 0.30049 0.0
C181 C 0.91708 0.82353 0.3065 0.0
C182 C 0.93552 0.76038 0.27985 0.0
C183 C 0.97089 0.77236 0.26482 0.0
C184 C 0.97884 0.81034 0.27088 0.0
C185 C 0.95228 0.83556 0.29133 0.0
C186 C 0.04788 0.7302 0.19222 0.0
C187 C 0.05443 0.69457 0.20267 0.0
C188 C 0.0207 0.75525 0.21216 0.0
C189 C -0.0005 0.74544 0.24321 0.0
C190 C 0.00616 0.70977 0.25361 0.0
C191 C 0.03317 0.68467 0.23356 0.0
H192 H 0.18985 0.96448 0.83686 0.0
H193 H 0.29621 0.93965 0.76945 0.0
H194 H 0.15737 0.9867 0.7844 0.0
H195 H 0.26417 0.96311 0.71722 0.0
H196 H 0.1901 0.99133 0.62289 0.0
H197 H 0.2138 0.95661 0.67171 0.0
H198 H 0.16375 0.04158 0.7547 0.0
H199 H 0.13901 0.07565 0.70599 0.0
C200 C 0.20616 0.96348 0.81068 0.0
C201 C 0.24571 0.95081 0.80731 0.0
C202 C 0.18763 0.9764 0.78071 0.0
C203 C 0.20839 0.97731 0.74687 0.0
C204 C 0.24725 0.96257 0.74285 0.0
C205 C 0.26568 0.94923 0.77278 0.0
C206 C 0.18386 1.00243 0.65158 0.0
C207 C 0.16292 0.03638 0.66062 0.0
C208 C 0.19757 0.98257 0.67952 0.0
C209 C 0.1908 0.99636 0.71706 0.0
C210 C 0.16896 0.02985 0.72605 0.0
C211 C 0.15501 0.04957 0.69812 0.0
H212 H 0.96613 0.42304 0.94916 0.0
H213 H 0.88938 0.52027 0.9735 0.0
H214 H 0.02164 0.45876 0.97306 0.0
H215 H 0.94491 0.55629 0.99598 0.0
H216 H 0.03737 0.59161 0.08144 0.0
H217 H -0.01646 0.55962 0.05001 0.0
H218 H 0.06537 0.50777 0.96472 0.0
H219 H 0.11944 0.53879 0.99693 0.0
C220 C 0.96134 0.45221 0.9589 0.0
C221 C 0.92344 0.46878 0.95999 0.0
C222 C -0.00689 0.47274 0.97246 0.0
C223 C -0.01244 0.51028 0.98687 0.0
C224 C 0.94998 0.52722 0.98596 0.0
C225 C 0.91822 0.50663 0.97289 0.0
C226 C 0.04381 0.5736 0.05585 0.0
C227 C 0.08262 0.56753 0.04179 0.0
C228 C 0.01294 0.55542 0.03767 0.0
C229 C 0.02018 0.53112 1.00482 0.0
C230 C 0.0589 0.52584 0.99026 0.0
C231 C 0.08984 0.54376 1.00863 0.0
H232 H 0.41264 0.34434 0.30364 0.0
H233 H 0.43409 0.2757 0.39079 0.0
H234 H 0.45126 0.30023 0.25983 0.0
H235 H 0.4729 0.23198 0.34719 0.0
H236 H 0.50113 0.14183 0.24985 0.0
H237 H 0.46314 0.18672 0.293 0.0
H238 H 0.51936 0.2762 0.2462 0.0
H239 H 0.55717 0.23124 0.20264 0.0
C240 C 0.42567 0.31994 0.31351 0.0
C241 C 0.42013 0.31358 0.35077 0.0
C242 C 0.448 0.29475 0.28843 0.0
C243 C 0.46512 0.26246 0.29993 0.0
C244 C 0.45972 0.25626 0.33723 0.0
C245 C 0.43761 0.2815 0.36231 0.0
C246 C 0.50546 0.17106 0.2487 0.0
C247 C 0.53229 0.18285 0.22273 0.0
C248 C 0.48379 0.19683 0.27363 0.0
C249 C 0.48822 0.23512 0.27317 0.0
C250 C 0.51492 0.24695 0.24708 0.0
C251 C 0.53678 0.22114 0.22225 0.0
H252 H 0.71684 0.84452 0.4939 0.0
H253 H 0.83073 0.79425 0.45953 0.0
H254 H 0.70772 0.79926 0.53699 0.0
H255 H 0.8227 0.74983 0.50433 0.0
H256 H 0.76665 0.64857 0.54739 0.0
H257 H 0.78698 0.69757 0.5124 0.0
H258 H 0.72602 0.77844 0.59282 0.0
H259 H 0.70363 0.72871 0.62688 0.0
C260 C 0.74016 0.82395 0.49592 0.0
C261 C 0.77433 0.82264 0.47316 0.0
C262 C 0.73519 0.79824 0.52103 0.0
C263 C 0.7646 0.77097 0.5245 0.0
C264 C 0.79918 0.77011 0.50208 0.0
C265 C 0.80383 0.7955 0.47639 0.0
C266 C 0.75807 0.67685 0.55806 0.0
C267 C 0.73284 0.68469 0.58955 0.0
C268 C 0.77001 0.70511 0.53801 0.0
C269 C 0.75757 0.742 0.54931 0.0
C270 C 0.73515 0.75018 0.58267 0.0
C271 C 0.72262 0.72176 0.60243 0.0
H272 H 0.26397 0.54612 0.16757 0.0
H273 H 0.15475 0.58517 0.22478 0.0
H274 H 0.28186 0.51366 0.21969 0.0
H275 H 0.17188 0.55129 0.27655 0.0
H276 H 0.23721 0.51988 0.37797 0.0
H277 H 0.21567 0.55143 0.3264 0.0
H278 H 0.26533 0.46119 0.24906 0.0
H279 H 0.28846 0.43033 0.30086 0.0
C280 C 0.24369 0.5476 0.19129 0.0
C281 C 0.20797 0.56817 0.19216 0.0
C282 C 0.25376 0.52868 0.22103 0.0
C283 C 0.2281 0.52945 0.25214 0.0
C284 C 0.1925 0.55039 0.25317 0.0
C285 C 0.18264 0.56977 0.22353 0.0
C286 C 0.24325 0.50658 0.34996 0.0
C287 C 0.26481 0.47273 0.34344 0.0
C288 C 0.2307 0.52463 0.32036 0.0
C289 C 0.23902 0.50902 0.28357 0.0
C290 C 0.25922 0.4744 0.27708 0.0
C291 C 0.27222 0.45655 0.30672 0.0
H292 H 0.81554 0.27909 0.9592 0.0
H293 H 0.78658 0.36336 0.05115 0.0
H294 H 0.79279 0.23174 0.99611 0.0
H295 H 0.76513 0.316 0.08846 0.0
H296 H 0.76567 0.14975 0.07281 0.0
H297 H 0.80247 0.1986 0.04874 0.0
H298 H 0.70894 0.27799 0.08792 0.0
H299 H 0.67281 0.22942 0.11296 0.0
C300 C 0.80503 0.2874 0.98751 0.0
C301 C 0.80222 0.32493 1.00205 0.0
C302 C 0.79226 0.26026 1.00882 0.0
C303 C 0.77685 0.27016 0.04519 0.0
C304 C 0.77611 0.30756 0.06032 0.0
C305 C 0.78849 0.33466 0.03894 0.0
C306 C 0.75339 0.17782 0.07699 0.0
C307 C 0.71609 0.1857 0.09429 0.0
C308 C 0.77437 0.20573 0.06298 0.0
C309 C 0.75833 0.24202 0.06577 0.0
C310 C 0.72232 0.25038 0.08548 0.0
C311 C 0.70148 0.2225 0.09978 0.0
H312 H 0.66993 0.93268 0.34483 0.0
H313 H 0.77359 0.90614 0.27399 0.0
H314 H 0.63861 0.96191 0.29569 0.0
H315 H 0.74264 0.93616 0.22512 0.0
H316 H 0.63388 0.06364 0.22919 0.0
H317 H 0.65183 0.02029 0.27266 0.0
H318 H 0.6908 0.9393 0.18096 0.0
H319 H 0.67376 0.98288 0.13758 0.0
C320 C 0.68573 0.93247 0.31846 0.0
C321 C 0.72446 0.91767 0.3134 0.0
C322 C 0.66787 0.94943 0.29044 0.0
C323 C 0.68845 0.95208 0.25687 0.0
C324 C 0.72591 0.93449 0.25065 0.0
C325 C 0.74371 0.91728 0.27866 0.0
C326 C 0.64579 0.03643 0.21831 0.0
C327 C 0.65292 0.02693 0.18003 0.0
C328 C 0.65583 0.01144 0.24317 0.0
C329 C 0.67296 0.97639 0.23021 0.0
C330 C 0.67825 0.96627 0.19181 0.0
C331 C 0.66838 0.99127 0.16699 0.0
H332 H 0.92597 0.93544 0.40847 0.0
H333 H 0.83938 0.01937 0.45387 0.0
H334 H 0.97826 0.97398 0.43413 0.0
H335 H 0.89187 0.05848 0.47858 0.0
H336 H -0.0091 0.08441 0.56327 0.0
H337 H 0.93641 0.05658 0.52885 0.0
H338 H 0.01353 0.02972 0.43206 0.0
H339 H 0.06821 0.05639 0.46686 0.0
C340 C 0.91814 0.96244 0.42328 0.0
C341 C 0.87855 0.97415 0.42957 0.0
C342 C 0.94815 0.98468 0.43781 0.0
C343 C 0.93918 0.01922 0.45864 0.0
C344 C 0.89966 0.03173 0.46325 0.0
C345 C 0.86963 0.00938 0.44894 0.0
C346 C -0.00399 0.07307 0.53448 0.0
C347 C 0.03388 0.07203 0.51793 0.0
C348 C 0.96476 0.05728 0.51466 0.0
C349 C 0.97078 0.04054 0.47782 0.0
C350 C 0.00816 0.04165 0.46064 0.0
C351 C 0.03943 0.05706 0.48054 0.0
H352 H 0.90491 0.32116 0.80295 0.0
H353 H 0.95292 0.25597 0.8842 0.0
H354 H 0.93921 0.28022 0.75335 0.0
H355 H -0.0124 0.21541 0.83468 0.0
H356 H 0.00928 0.12763 0.73441 0.0
H357 H 0.97395 0.16874 0.783 0.0
H358 H 0.00577 0.2632 0.72831 0.0
H359 H 0.04075 0.22198 0.6793 0.0
C360 C 0.92285 0.29817 0.81028 0.0
C361 C 0.92607 0.29187 0.84762 0.0
C362 C 0.94271 0.27481 0.78182 0.0
C363 C 0.96616 0.24446 0.78997 0.0
C364 C 0.96938 0.23821 0.82732 0.0
C365 C 0.94965 0.26163 0.85578 0.0
C366 C 0.0087 0.15715 0.73263 0.0
C367 C 0.02793 0.17145 0.7029 0.0
C368 C -0.01138 0.18077 0.76067 0.0
C369 C -0.01289 0.21933 0.7597 0.0
C370 C 0.006 0.23363 0.72976 0.0
C371 C 0.02623 0.20999 0.70174 0.0
H372 H 0.58991 0.70207 0.7487 0.0
H373 H 0.51246 0.71939 0.65934 0.0
H374 H 0.54767 0.74345 0.79171 0.0
H375 H 0.46966 0.7598 0.70243 0.0
H376 H 0.42003 0.85804 0.78107 0.0
H377 H 0.46485 0.81904 0.73846 0.0
H378 H 0.48485 0.747 0.82305 0.0
H379 H 0.44101 0.78662 0.86593 0.0
C380 C 0.5638 0.71458 0.73824 0.0
C381 C 0.55465 0.70737 0.70052 0.0
C382 C 0.53939 0.73819 0.76297 0.0
C383 C 0.50508 0.75507 0.75069 0.0
C384 C 0.49608 0.74786 0.71289 0.0
C385 C 0.52056 0.72442 0.68816 0.0
C386 C 0.43408 0.83394 0.79062 0.0
C387 C 0.42685 0.82551 0.82697 0.0
C388 C 0.45965 0.81138 0.76607 0.0
C389 C 0.47854 0.77968 0.77715 0.0
C390 C 0.47139 0.77142 0.81361 0.0
C391 C 0.44598 0.79407 0.8382 0.0
H392 H 0.25782 0.6678 0.01496 0.0
H393 H 0.20118 0.74448 0.10191 0.0
H394 H 0.28085 0.71914 0.98449 0.0
H395 H 0.22606 0.79628 0.07228 0.0
H396 H 0.22752 0.87473 0.98313 0.0
H397 H 0.21167 0.82507 0.01938 0.0
H398 H 0.32294 0.76911 0.98441 0.0
H399 H 0.33787 0.81828 0.94648 0.0
C400 C 0.25098 0.69571 0.02803 0.0
C401 C 0.22732 0.70213 0.06066 0.0
C402 C 0.26448 0.72523 1.01063 0.0
C403 C 0.25514 0.76192 0.02574 0.0
C404 C 0.23306 0.76834 0.05942 0.0
C405 C 0.21901 0.73872 0.07656 0.0
C406 C 0.24866 0.85186 0.98324 0.0
C407 C 0.28383 0.85022 0.9618 0.0
C408 C 0.23975 0.82352 1.00437 0.0
C409 C 0.26608 0.7931 1.00504 0.0
C410 C 0.3017 0.79185 0.9841 0.0
C411 C 0.31033 0.82001 0.96243 0.0
H412 H 0.38095 0.50437 0.52578 0.0
H413 H 0.45182 0.46429 0.42772 0.0
H414 H 0.43739 0.53491 0.55348 0.0
H415 H 0.50822 0.49646 0.45478 0.0
H416 H 0.60943 0.51679 0.53465 0.0
H417 H 0.55322 0.49102 0.50227 0.0
H418 H 0.48022 0.58456 0.55134 0.0
H419 H 0.5365 0.60958 0.58533 0.0
C420 C 0.40856 0.50249 0.50993 0.0
C421 C 0.41209 0.48178 0.47467 0.0
C422 C 0.44086 0.52033 0.52569 0.0
C423 C 0.47735 0.51832 0.50633 0.0
C424 C 0.48069 0.49811 0.4707 0.0
C425 C 0.44842 0.47975 0.45513 0.0
C426 C 0.58146 0.53205 0.53837 0.0
C427 C 0.57727 0.56509 0.56276 0.0
C428 C 0.54923 0.51737 0.51952 0.0
C429 C 0.51213 0.53564 0.52421 0.0
C430 C 0.50824 0.56941 0.54765 0.0
C431 C 0.54046 0.58387 0.56698 0.0
loop_
_geom_bond_atom_site_label_1
_geom_bond_atom_site_label_2
_geom_bond_distance
_geom_bond_site_symmetry_2
_ccdc_geom_bond_type
Zn0 O3 2.031 . S
Zn0 O5 2.049 . S
Zn0 O10 2.067 . S
Zn1 O2 1.962 . S
Zn1 O4 1.986 . S
Zn1 O6 1.996 . S
Zn1 O9 1.943 . S
O2 Zn1 1.962 . S
O2 C7 1.254 . S
O3 Zn0 2.031 . S
O3 C7 1.269 . S
O4 Zn1 1.986 . S
O4 C11 1.262 . S
O5 Zn0 2.049 . S
O5 C13 1.260 . S
O6 Zn1 1.996 . S
O6 C13 1.257 . S
C7 O2 1.254 . S
C7 O3 1.269 . S
C8 O9 1.249 . S
C8 O10 1.270 . S
O9 Zn1 1.943 . S
O9 C8 1.249 . S
O10 Zn0 2.067 . S
O10 C8 1.270 . S
C11 O4 1.262 . S
C11 O12 1.232 . S
O12 C11 1.232 . S
C13 O5 1.260 . S
C13 O6 1.257 . S
Zn14 O17 2.031 . S
Zn14 O19 2.049 . S
Zn14 O24 2.067 . S
Zn15 O16 1.962 . S
Zn15 O18 1.986 . S
Zn15 O20 1.996 . S
Zn15 O23 1.943 . S
O16 Zn15 1.962 . S
O16 C21 1.254 . S
O17 Zn14 2.031 . S
O17 C21 1.269 . S
O18 Zn15 1.986 . S
O18 C25 1.262 . S
O19 Zn14 2.049 . S
O19 C27 1.260 . S
O20 Zn15 1.996 . S
O20 C27 1.257 . S
C21 O16 1.254 . S
C21 O17 1.269 . S
C22 O23 1.249 . S
C22 O24 1.270 . S
O23 Zn15 1.943 . S
O23 C22 1.249 . S
O24 Zn14 2.067 . S
O24 C22 1.270 . S
C25 O18 1.262 . S
C25 O26 1.232 . S
O26 C25 1.232 . S
C27 O19 1.260 . S
C27 O20 1.257 . S
Zn28 O31 2.031 . S
Zn28 O33 2.049 . S
Zn28 O38 2.067 . S
Zn29 O30 1.962 . S
Zn29 O32 1.986 . S
Zn29 O34 1.996 . S
Zn29 O37 1.943 . S
O30 Zn29 1.962 . S
O30 C35 1.254 . S
O31 Zn28 2.031 . S
O31 C35 1.269 . S
O32 Zn29 1.986 . S
O32 C39 1.262 . S
O33 Zn28 2.049 . S
O33 C41 1.260 . S
O34 Zn29 1.996 . S
O34 C41 1.257 . S
C35 O30 1.254 . S
C35 O31 1.269 . S
C36 O37 1.249 . S
C36 O38 1.270 . S
O37 Zn29 1.943 . S
O37 C36 1.249 . S
O38 Zn28 2.067 . S
O38 C36 1.270 . S
C39 O32 1.262 . S
C39 O40 1.232 . S
O40 C39 1.232 . S
C41 O33 1.260 . S
C41 O34 1.257 . S
Zn42 O45 2.031 . S
Zn42 O47 2.049 . S
Zn42 O52 2.067 . S
Zn43 O44 1.962 . S
Zn43 O46 1.986 . S
Zn43 O48 1.996 . S
Zn43 O51 1.943 . S
O44 Zn43 1.962 . S
O44 C49 1.254 . S
O45 Zn42 2.031 . S
O45 C49 1.269 . S
O46 Zn43 1.986 . S
O46 C53 1.262 . S
O47 Zn42 2.049 . S
O47 C55 1.260 . S
O48 Zn43 1.996 . S
O48 C55 1.257 . S
C49 O44 1.254 . S
C49 O45 1.269 . S
C50 O51 1.249 . S
C50 O52 1.270 . S
O51 Zn43 1.943 . S
O51 C50 1.249 . S
O52 Zn42 2.067 . S
O52 C50 1.270 . S
C53 O46 1.262 . S
C53 O54 1.232 . S
O54 C53 1.232 . S
C55 O47 1.260 . S
C55 O48 1.257 . S
Zn56 O59 2.031 . S
Zn56 O61 2.049 . S
Zn56 O66 2.067 . S
Zn57 O58 1.962 . S
Zn57 O60 1.986 . S
Zn57 O62 1.996 . S
Zn57 O65 1.943 . S
O58 Zn57 1.962 . S
O58 C63 1.254 . S
O59 Zn56 2.031 . S
O59 C63 1.269 . S
O60 Zn57 1.986 . S
O60 C67 1.262 . S
O61 Zn56 2.049 . S
O61 C69 1.260 . S
O62 Zn57 1.996 . S
O62 C69 1.257 . S
C63 O58 1.254 . S
C63 O59 1.269 . S
C64 O65 1.249 . S
C64 O66 1.270 . S
O65 Zn57 1.943 . S
O65 C64 1.249 . S
O66 Zn56 2.067 . S
O66 C64 1.270 . S
C67 O60 1.262 . S
C67 O68 1.232 . S
O68 C67 1.232 . S
C69 O61 1.260 . S
C69 O62 1.257 . S
Zn70 O73 2.031 . S
Zn70 O75 2.049 . S
Zn70 O80 2.067 . S
Zn71 O72 1.962 . S
Zn71 O74 1.986 . S
Zn71 O76 1.996 . S
Zn71 O79 1.943 . S
O72 Zn71 1.962 . S
O72 C77 1.254 . S
O73 Zn70 2.031 . S
O73 C77 1.269 . S
O74 Zn71 1.986 . S
O74 C81 1.262 . S
O75 Zn70 2.049 . S
O75 C83 1.260 . S
O76 Zn71 1.996 . S
O76 C83 1.257 . S
C77 O72 1.254 . S
C77 O73 1.269 . S
C78 O79 1.249 . S
C78 O80 1.270 . S
O79 Zn71 1.943 . S
O79 C78 1.249 . S
O80 Zn70 2.067 . S
O80 C78 1.270 . S
C81 O74 1.262 . S
C81 O82 1.232 . S
O82 C81 1.232 . S
C83 O75 1.260 . S
C83 O76 1.257 . S
Zn84 O87 2.031 . S
Zn84 O89 2.049 . S
Zn84 O94 2.067 . S
Zn85 O86 1.962 . S
Zn85 O88 1.986 . S
Zn85 O90 1.996 . S
Zn85 O93 1.943 . S
O86 Zn85 1.962 . S
O86 C91 1.254 . S
O87 Zn84 2.031 . S
O87 C91 1.269 . S
O88 Zn85 1.986 . S
O88 C95 1.262 . S
O89 Zn84 2.049 . S
O89 C97 1.260 . S
O90 Zn85 1.996 . S
O90 C97 1.257 . S
C91 O86 1.254 . S
C91 O87 1.269 . S
C92 O93 1.249 . S
C92 O94 1.270 . S
O93 Zn85 1.943 . S
O93 C92 1.249 . S
O94 Zn84 2.067 . S
O94 C92 1.270 . S
C95 O88 1.262 . S
C95 O96 1.232 . S
O96 C95 1.232 . S
C97 O89 1.260 . S
C97 O90 1.257 . S
Zn98 O101 2.031 . S
Zn98 O103 2.049 . S
Zn98 O108 2.067 . S
Zn99 O100 1.962 . S
Zn99 O102 1.986 . S
Zn99 O104 1.996 . S
Zn99 O107 1.943 . S
O100 Zn99 1.962 . S
O100 C105 1.254 . S
O101 Zn98 2.031 . S
O101 C105 1.269 . S
O102 Zn99 1.986 . S
O102 C109 1.262 . S
O103 Zn98 2.049 . S
O103 C111 1.260 . S
O104 Zn99 1.996 . S
O104 C111 1.257 . S
C105 O100 1.254 . S
C105 O101 1.269 . S
C106 O107 1.249 . S
C106 O108 1.270 . S
O107 Zn99 1.943 . S
O107 C106 1.249 . S
O108 Zn98 2.067 . S
O108 C106 1.270 . S
C109 O102 1.262 . S
C109 O110 1.232 . S
O110 C109 1.232 . S
C111 O103 1.260 . S
C111 O104 1.257 . S
H112 C120 0.950 . S
H113 C125 0.950 . S
H114 C122 0.950 . S
H115 C124 0.950 . S
H116 C126 0.950 . S
H117 C128 0.950 . S
H118 C130 0.950 . S
H119 C131 0.950 . S
C120 H112 0.950 . S
C120 C121 1.386 . S
C120 C122 1.391 . S
C121 C120 1.386 . S
C121 C125 1.393 . S
C122 H114 0.950 . S
C122 C120 1.391 . S
C122 C123 1.400 . S
C123 C122 1.400 . S
C123 C124 1.398 . S
C123 C129 1.491 . S
C124 H115 0.950 . S
C124 C123 1.398 . S
C124 C125 1.391 . S
C125 H113 0.950 . S
C125 C121 1.393 . S
C125 C124 1.391 . S
C126 H116 0.950 . S
C126 C127 1.386 . S
C126 C128 1.391 . S
C127 C126 1.386 . S
C127 C131 1.393 . S
C128 H117 0.950 . S
C128 C126 1.391 . S
C128 C129 1.400 . S
C129 C123 1.491 . S
C129 C128 1.400 . S
C129 C130 1.398 . S
C130 H118 0.950 . S
C130 C129 1.398 . S
C130 C131 1.391 . S
C131 H119 0.950 . S
C131 C127 1.393 . S
C131 C130 1.391 . S
H132 C140 0.950 . S
H133 C145 0.950 . S
H134 C142 0.950 . S
H135 C144 0.950 . S
H136 C146 0.950 . S
H137 C148 0.950 . S
H138 C150 0.950 . S
H139 C151 0.950 . S
C140 H132 0.950 . S
C140 C141 1.386 . S
C140 C142 1.391 . S
C141 C140 1.386 . S
C141 C145 1.393 . S
C142 H134 0.950 . S
C142 C140 1.391 . S
C142 C143 1.400 . S
C143 C142 1.400 . S
C143 C144 1.398 . S
C143 C149 1.491 . S
C144 H135 0.950 . S
C144 C143 1.398 . S
C144 C145 1.391 . S
C145 H133 0.950 . S
C145 C141 1.393 . S
C145 C144 1.391 . S
C146 H136 0.950 . S
C146 C147 1.386 . S
C146 C148 1.391 . S
C147 C146 1.386 . S
C147 C151 1.393 . S
C148 H137 0.950 . S
C148 C146 1.391 . S
C148 C149 1.400 . S
C149 C143 1.491 . S
C149 C148 1.400 . S
C149 C150 1.398 . S
C150 H138 0.950 . S
C150 C149 1.398 . S
C150 C151 1.391 . S
C151 H139 0.950 . S
C151 C147 1.393 . S
C151 C150 1.391 . S
H152 C160 0.950 . S
H153 C165 0.950 . S
H154 C162 0.950 1_565 S
H155 C164 0.950 1_556 S
H156 C166 0.950 . S
H157 C168 0.950 1_545 S
H158 C170 0.950 . S
H159 C171 0.950 . S
C160 H152 0.950 . S
C160 C161 1.386 . S
C160 C162 1.391 . S
C161 C160 1.386 . S
C161 C165 1.393 . S
C162 H154 0.950 1_545 S
C162 C160 1.391 . S
C162 C163 1.400 . S
C163 C162 1.400 . S
C163 C164 1.398 . S
C163 C169 1.491 1_544 S
C164 H155 0.950 1_554 S
C164 C163 1.398 . S
C164 C165 1.391 . S
C165 H153 0.950 . S
C165 C161 1.393 . S
C165 C164 1.391 . S
C166 H156 0.950 . S
C166 C167 1.386 . S
C166 C168 1.391 . S
C167 C166 1.386 . S
C167 C171 1.393 . S
C168 H157 0.950 1_565 S
C168 C166 1.391 . S
C168 C169 1.400 . S
C169 C163 1.491 1_566 S
C169 C168 1.400 . S
C169 C170 1.398 1_556 S
C170 H158 0.950 . S
C170 C169 1.398 1_554 S
C170 C171 1.391 1_554 S
C171 H159 0.950 . S
C171 C167 1.393 . S
C171 C170 1.391 1_556 S
H172 C180 0.950 . S
H173 C185 0.950 . S
H174 C182 0.950 . S
H175 C184 0.950 . S
H176 C186 0.950 . S
H177 C188 0.950 . S
H178 C190 0.950 . S
H179 C191 0.950 . S
C180 H172 0.950 . S
C180 C181 1.386 . S
C180 C182 1.391 . S
C181 C180 1.386 . S
C181 C185 1.393 . S
C182 H174 0.950 . S
C182 C180 1.391 . S
C182 C183 1.400 . S
C183 C182 1.400 . S
C183 C184 1.398 1_655 S
C183 C189 1.491 1_655 S
C184 H175 0.950 . S
C184 C183 1.398 1_455 S
C184 C185 1.391 1_455 S
C185 H173 0.950 . S
C185 C181 1.393 . S
C185 C184 1.391 1_655 S
C186 H176 0.950 . S
C186 C187 1.386 . S
C186 C188 1.391 . S
C187 C186 1.386 . S
C187 C191 1.393 . S
C188 H177 0.950 . S
C188 C186 1.391 . S
C188 C189 1.400 . S
C189 C183 1.491 1_455 S
C189 C188 1.400 . S
C189 C190 1.398 1_455 S
C190 H178 0.950 . S
C190 C189 1.398 1_655 S
C190 C191 1.391 1_655 S
C191 H179 0.950 . S
C191 C187 1.393 . S
C191 C190 1.391 1_455 S
H192 C200 0.950 . S
H193 C205 0.950 . S
H194 C202 0.950 . S
H195 C204 0.950 . S
H196 C206 0.950 . S
H197 C208 0.944 1_565 S
H198 C210 0.950 . S
H199 C211 0.950 . S
C200 H192 0.950 . S
C200 C201 1.386 . S
C200 C202 1.391 . S
C201 C200 1.386 . S
C201 C205 1.393 . S
C202 H194 0.950 . S
C202 C200 1.391 . S
C202 C203 1.400 . S
C203 C202 1.400 . S
C203 C204 1.398 . S
C203 C209 1.491 1_565 S
C204 H195 0.950 . S
C204 C203 1.398 . S
C204 C205 1.391 . S
C205 H193 0.950 . S
C205 C201 1.393 . S
C205 C204 1.391 . S
C206 H196 0.950 . S
C206 C207 1.386 . S
C206 C208 1.391 . S
C207 C206 1.386 . S
C207 C211 1.393 . S
C208 H197 0.944 1_545 S
C208 C206 1.391 . S
C208 C209 1.400 . S
C209 C203 1.491 1_545 S
C209 C208 1.400 . S
C209 C210 1.398 . S
C210 H198 0.950 . S
C210 C209 1.398 . S
C210 C211 1.391 . S
C211 H199 0.950 . S
C211 C207 1.393 . S
C211 C210 1.391 . S
H212 C220 0.950 . S
H213 C225 0.950 . S
H214 C222 0.950 1_454 S
H215 C224 0.950 . S
H216 C226 0.950 . S
H217 C228 0.950 1_656 S
H218 C230 0.950 . S
H219 C231 0.950 . S
C220 H212 0.950 . S
C220 C221 1.386 . S
C220 C222 1.391 . S
C221 C220 1.386 . S
C221 C225 1.393 . S
C222 H214 0.950 1_656 S
C222 C220 1.391 . S
C222 C223 1.400 . S
C223 C222 1.400 . S
C223 C224 1.398 . S
C223 C229 1.491 1_656 S
C224 H215 0.950 . S
C224 C223 1.398 . S
C224 C225 1.391 . S
C225 H213 0.950 . S
C225 C221 1.393 . S
C225 C224 1.391 . S
C226 H216 0.950 . S
C226 C227 1.386 . S
C226 C228 1.391 . S
C227 C226 1.386 . S
C227 C231 1.393 . S
C228 H217 0.950 1_454 S
C228 C226 1.391 . S
C228 C229 1.400 . S
C229 C223 1.491 1_454 S
C229 C228 1.400 . S
C229 C230 1.398 . S
C230 H218 0.950 . S
C230 C229 1.398 . S
C230 C231 1.391 . S
C231 H219 0.950 . S
C231 C227 1.393 . S
C231 C230 1.391 . S
H232 C240 0.950 . S
H233 C245 0.950 . S
H234 C242 0.950 . S
H235 C244 0.950 . S
H236 C246 0.950 . S
H237 C248 0.950 . S
H238 C250 0.950 . S
H239 C251 0.950 . S
C240 H232 0.950 . S
C240 C241 1.386 . S
C240 C242 1.391 . S
C241 C240 1.386 . S
C241 C245 1.393 . S
C242 H234 0.950 . S
C242 C240 1.391 . S
C242 C243 1.400 . S
C243 C242 1.400 . S
C243 C244 1.398 . S
C243 C249 1.491 . S
C244 H235 0.950 . S
C244 C243 1.398 . S
C244 C245 1.391 . S
C245 H233 0.950 . S
C245 C241 1.393 . S
C245 C244 1.391 . S
C246 H236 0.950 . S
C246 C247 1.386 . S
C246 C248 1.391 . S
C247 C246 1.386 . S
C247 C251 1.393 . S
C248 H237 0.950 . S
C248 C246 1.391 . S
C248 C249 1.400 . S
C249 C243 1.491 . S
C249 C248 1.400 . S
C249 C250 1.398 . S
C250 H238 0.950 . S
C250 C249 1.398 . S
C250 C251 1.391 . S
C251 H239 0.950 . S
C251 C247 1.393 . S
C251 C250 1.391 . S
H252 C260 0.950 . S
H253 C265 0.950 . S
H254 C262 0.950 . S
H255 C264 0.950 . S
H256 C266 0.950 . S
H257 C268 0.950 . S
H258 C270 0.950 . S
H259 C271 0.950 . S
C260 H252 0.950 . S
C260 C261 1.386 . S
C260 C262 1.391 . S
C261 C260 1.386 . S
C261 C265 1.393 . S
C262 H254 0.950 . S
C262 C260 1.391 . S
C262 C263 1.400 . S
C263 C262 1.400 . S
C263 C264 1.398 . S
C263 C269 1.491 . S
C264 H255 0.950 . S
C264 C263 1.398 . S
C264 C265 1.391 . S
C265 H253 0.950 . S
C265 C261 1.393 . S
C265 C264 1.391 . S
C266 H256 0.950 . S
C266 C267 1.386 . S
C266 C268 1.391 . S
C267 C266 1.386 . S
C267 C271 1.393 . S
C268 H257 0.950 . S
C268 C266 1.391 . S
C268 C269 1.400 . S
C269 C263 1.491 . S
C269 C268 1.400 . S
C269 C270 1.398 . S
C270 H258 0.950 . S
C270 C269 1.398 . S
C270 C271 1.391 . S
C271 H259 0.950 . S
C271 C267 1.393 . S
C271 C270 1.391 . S
H272 C280 0.950 . S
H273 C285 0.950 . S
H274 C282 0.950 . S
H275 C284 0.950 . S
H276 C286 0.950 . S
H277 C288 0.950 . S
H278 C290 0.950 . S
H279 C291 0.950 . S
C280 H272 0.950 . S
C280 C281 1.386 . S
C280 C282 1.391 . S
C281 C280 1.386 . S
C281 C285 1.393 . S
C282 H274 0.950 . S
C282 C280 1.391 . S
C282 C283 1.400 . S
C283 C282 1.400 . S
C283 C284 1.398 . S
C283 C289 1.491 . S
C284 H275 0.950 . S
C284 C283 1.398 . S
C284 C285 1.391 . S
C285 H273 0.950 . S
C285 C281 1.393 . S
C285 C284 1.391 . S
C286 H276 0.950 . S
C286 C287 1.386 . S
C286 C288 1.391 . S
C287 C286 1.386 . S
C287 C291 1.393 . S
C288 H277 0.950 . S
C288 C286 1.391 . S
C288 C289 1.400 . S
C289 C283 1.491 . S
C289 C288 1.400 . S
C289 C290 1.398 . S
C290 H278 0.950 . S
C290 C289 1.398 . S
C290 C291 1.391 . S
C291 H279 0.950 . S
C291 C287 1.393 . S
C291 C290 1.391 . S
H292 C300 0.950 . S
H293 C305 0.950 . S
H294 C302 0.950 . S
H295 C304 0.950 . S
H296 C306 0.950 . S
H297 C308 0.950 . S
H298 C310 0.931 1_556 S
H299 C311 0.950 . S
C300 H292 0.950 . S
C300 C301 1.386 . S
C300 C302 1.391 . S
C301 C300 1.386 . S
C301 C305 1.393 . S
C302 H294 0.950 . S
C302 C300 1.391 . S
C302 C303 1.400 . S
C303 C302 1.400 . S
C303 C304 1.398 1_556 S
C303 C309 1.491 1_556 S
C304 H295 0.950 . S
C304 C303 1.398 1_554 S
C304 C305 1.391 1_554 S
C305 H293 0.950 . S
C305 C301 1.393 . S
C305 C304 1.391 1_556 S
C306 H296 0.950 . S
C306 C307 1.386 . S
C306 C308 1.391 . S
C307 C306 1.386 . S
C307 C311 1.393 . S
C308 H297 0.950 . S
C308 C306 1.391 . S
C308 C309 1.400 . S
C309 C303 1.491 1_554 S
C309 C308 1.400 . S
C309 C310 1.404 . S
C310 H298 0.931 1_554 S
C310 C309 1.404 . S
C310 C311 1.404 . S
C311 H299 0.950 . S
C311 C307 1.393 . S
C311 C310 1.404 . S
H312 C320 0.950 . S
H313 C325 0.950 . S
H314 C322 0.950 . S
H315 C324 0.950 1_545 S
H316 C326 0.950 . S
H317 C328 0.950 . S
H318 C330 0.950 . S
H319 C331 0.950 . S
C320 H312 0.950 . S
C320 C321 1.386 . S
C320 C322 1.391 . S
C321 C320 1.386 . S
C321 C325 1.393 . S
C322 H314 0.950 . S
C322 C320 1.391 . S
C322 C323 1.400 . S
C323 C322 1.400 . S
C323 C324 1.398 . S
C323 C329 1.491 1_565 S
C324 H315 0.950 1_565 S
C324 C323 1.398 . S
C324 C325 1.391 . S
C325 H313 0.950 . S
C325 C321 1.393 . S
C325 C324 1.391 . S
C326 H316 0.950 . S
C326 C327 1.386 . S
C326 C328 1.391 . S
C327 C326 1.386 . S
C327 C331 1.393 . S
C328 H317 0.950 . S
C328 C326 1.391 . S
C328 C329 1.400 . S
C329 C323 1.491 1_545 S
C329 C328 1.400 . S
C329 C330 1.398 1_545 S
C330 H318 0.950 . S
C330 C329 1.398 1_565 S
C330 C331 1.391 1_565 S
C331 H319 0.950 . S
C331 C327 1.393 . S
C331 C330 1.391 1_545 S
H332 C340 0.950 . S
H333 C345 0.950 . S
H334 C342 0.950 1_545 S
H335 C344 0.950 . S
H336 C346 0.950 . S
H337 C348 0.950 1_565 S
H338 C350 0.950 . S
H339 C351 0.950 . S
C340 H332 0.950 . S
C340 C341 1.386 . S
C340 C342 1.391 . S
C341 C340 1.386 . S
C341 C345 1.393 . S
C342 H334 0.950 1_565 S
C342 C340 1.391 . S
C342 C343 1.400 . S
C343 C342 1.400 . S
C343 C344 1.398 . S
C343 C349 1.491 1_665 S
C344 H335 0.950 . S
C344 C343 1.398 . S
C344 C345 1.391 . S
C345 H333 0.950 . S
C345 C341 1.393 . S
C345 C344 1.391 . S
C346 H336 0.950 . S
C346 C347 1.386 . S
C346 C348 1.391 . S
C347 C346 1.386 . S
C347 C351 1.393 . S
C348 H337 0.950 1_545 S
C348 C346 1.391 . S
C348 C349 1.400 . S
C349 C343 1.491 1_445 S
C349 C348 1.400 . S
C349 C350 1.398 . S
C350 H338 0.950 . S
C350 C349 1.398 . S
C350 C351 1.391 . S
C351 H339 0.950 . S
C351 C347 1.393 . S
C351 C350 1.391 . S
H352 C360 0.950 . S
H353 C365 0.950 . S
H354 C362 0.950 . S
H355 C364 0.950 1_455 S
H356 C366 0.950 . S
H357 C368 0.950 . S
H358 C370 0.950 1_655 S
H359 C371 0.950 . S
C360 H352 0.950 . S
C360 C361 1.386 . S
C360 C362 1.391 . S
C361 C360 1.386 . S
C361 C365 1.393 . S
C362 H354 0.950 . S
C362 C360 1.391 . S
C362 C363 1.400 . S
C363 C362 1.400 . S
C363 C364 1.398 . S
C363 C369 1.491 1_655 S
C364 H355 0.950 1_655 S
C364 C363 1.398 . S
C364 C365 1.391 . S
C365 H353 0.950 . S
C365 C361 1.393 . S
C365 C364 1.391 . S
C366 H356 0.950 . S
C366 C367 1.386 . S
C366 C368 1.391 . S
C367 C366 1.386 . S
C367 C371 1.393 . S
C368 H357 0.950 . S
C368 C366 1.391 . S
C368 C369 1.400 . S
C369 C363 1.491 1_455 S
C369 C368 1.400 . S
C369 C370 1.398 . S
C370 H358 0.950 1_455 S
C370 C369 1.398 . S
C370 C371 1.391 . S
C371 H359 0.950 . S
C371 C367 1.393 . S
C371 C370 1.391 . S
H372 C380 0.950 . S
H373 C385 0.950 . S
H374 C382 0.950 . S
H375 C384 0.950 . S
H376 C386 0.950 . S
H377 C388 0.950 . S
H378 C390 0.950 . S
H379 C391 0.950 . S
C380 H372 0.950 . S
C380 C381 1.386 . S
C380 C382 1.391 . S
C381 C380 1.386 . S
C381 C385 1.393 . S
C382 H374 0.950 . S
C382 C380 1.391 . S
C382 C383 1.400 . S
C383 C382 1.400 . S
C383 C384 1.398 . S
C383 C389 1.491 . S
C384 H375 0.950 . S
C384 C383 1.398 . S
C384 C385 1.391 . S
C385 H373 0.950 . S
C385 C381 1.393 . S
C385 C384 1.391 . S
C386 H376 0.950 . S
C386 C387 1.386 . S
C386 C388 1.391 . S
C387 C386 1.386 . S
C387 C391 1.393 . S
C388 H377 0.950 . S
C388 C386 1.391 . S
C388 C389 1.400 . S
C389 C383 1.491 . S
C389 C388 1.400 . S
C389 C390 1.398 . S
C390 H378 0.950 . S
C390 C389 1.398 . S
C390 C391 1.391 . S
C391 H379 0.950 . S
C391 C387 1.393 . S
C391 C390 1.391 . S
H392 C400 0.950 . S
H393 C405 0.950 . S
H394 C402 0.950 1_556 S
H395 C404 0.950 . S
H396 C406 0.950 . S
H397 C408 0.929 1_554 S
H398 C410 0.950 . S
H399 C411 0.950 . S
C400 H392 0.950 . S
C400 C401 1.386 . S
C400 C402 1.391 . S
C401 C400 1.386 . S
C401 C405 1.393 . S
C402 H394 0.950 1_554 S
C402 C400 1.391 . S
C402 C403 1.400 . S
C403 C402 1.400 . S
C403 C404 1.398 . S
C403 C409 1.491 1_554 S
C404 H395 0.950 . S
C404 C403 1.398 . S
C404 C405 1.391 . S
C405 H393 0.950 . S
C405 C401 1.393 . S
C405 C404 1.391 . S
C406 H396 0.950 . S
C406 C407 1.386 . S
C406 C408 1.407 . S
C407 C406 1.386 . S
C407 C411 1.393 . S
C408 H397 0.929 1_556 S
C408 C406 1.407 . S
C408 C409 1.406 . S
C409 C403 1.491 1_556 S
C409 C408 1.406 . S
C409 C410 1.398 . S
C410 H398 0.950 . S
C410 C409 1.398 . S
C410 C411 1.391 . S
C411 H399 0.950 . S
C411 C407 1.393 . S
C411 C410 1.391 . S
H412 C420 0.950 . S
H413 C425 0.950 . S
H414 C422 0.950 . S
H415 C424 0.950 . S
H416 C426 0.950 . S
H417 C428 0.950 . S
H418 C430 0.950 . S
H419 C431 0.950 . S
C420 H412 0.950 . S
C420 C421 1.386 . S
C420 C422 1.391 . S
C421 C420 1.386 . S
C421 C425 1.393 . S
C422 H414 0.950 . S
C422 C420 1.391 . S
C422 C423 1.400 . S
C423 C422 1.400 . S
C423 C424 1.398 . S
C423 C429 1.491 . S
C424 H415 0.950 . S
C424 C423 1.398 . S
C424 C425 1.391 . S
C425 H413 0.950 . S
C425 C421 1.393 . S
C425 C424 1.391 . S
C426 H416 0.950 . S
C426 C427 1.386 . S
C426 C428 1.391 . S
C427 C426 1.386 . S
C427 C431 1.393 . S
C428 H417 0.950 . S
C428 C426 1.391 . S
C428 C429 1.400 . S
C429 C423 1.491 . S
C429 C428 1.400 . S
C429 C430 1.398 . S
C430 H418 0.950 . S
C430 C429 1.398 . S
C430 C431 1.391 . S
C431 H419 0.950 . S
C431 C427 1.393 . S
C431 C430 1.391 . S
C121 C77 1.495 . S
C127 C13 1.412 . S
C141 C105 1.493 . S
C147 C27 1.406 . S
C161 C36 1.466 . S
C167 C92 1.472 . S
C181 C53 1.497 . S
C187 C67 1.490 . S
C201 C97 1.401 . S
C207 C7 1.495 . S
C221 C22 1.464 . S
C227 C64 1.472 . S
C241 C81 1.496 . S
C247 C39 1.493 . S
C261 C49 1.497 . S
C267 C111 1.416 . S
C281 C63 1.497 . S
C287 C83 1.416 . S
C301 C21 1.498 . S
C307 C41 1.415 . S
C321 C55 1.381 . S
C327 C35 1.488 . S
C341 C50 1.452 . S
C347 C8 1.454 . S
C361 C25 1.495 . S
C367 C11 1.494 . S
C381 C109 1.497 . S
C387 C95 1.490 . S
C401 C69 1.412 . S
C407 C91 1.497 . S
C421 C78 1.470 . S
C427 C106 1.455 . S
