# Generated by pormake.
# Topology afw, (4)-cn, num edge types: 1
# Building blocks:
#     Node 0, Type 0, BuildingBlock: QUQFOY_clean_sbu_1, # of connection points: 4
#     Node 1, Type 0, BuildingBlock: QUQFOY_clean_sbu_1, # of connection points: 4
#     Node 2, Type 0, BuildingBlock: QUQFOY_clean_sbu_1, # of connection points: 4
#     Node 3, Type 0, BuildingBlock: QUQFOY_clean_sbu_1, # of connection points: 4
#     Node 4, Type 0, BuildingBlock: QUQFOY_clean_sbu_1, # of connection points: 4
#     Node 5, Type 0, BuildingBlock: QUQFOY_clean_sbu_1, # of connection points: 4
#     Node 6, Type 0, BuildingBlock: QUQFOY_clean_sbu_1, # of connection points: 4
#     Node 7, Type 0, BuildingBlock: QUQFOY_clean_sbu_1, # of connection points: 4
#     Node 8, Type 0, BuildingBlock: QUQFOY_clean_sbu_1, # of connection points: 4
#     Edge 9, Type (0, 0), BuildingBlock: AJUNOK_clean_linker_0, # of connection points: 2
#     Edge 10, Type (0, 0), BuildingBlock: AJUNOK_clean_linker_0, # of connection points: 2
#     Edge 11, Type (0, 0), BuildingBlock: AJUNOK_clean_linker_0, # of connection points: 2
#     Edge 12, Type (0, 0), BuildingBlock: AJUNOK_clean_linker_0, # of connection points: 2
#     Edge 13, Type (0, 0), BuildingBlock: AJUNOK_clean_linker_0, # of connection points: 2
#     Edge 14, Type (0, 0), BuildingBlock: AJUNOK_clean_linker_0, # of connection points: 2
#     Edge 15, Type (0, 0), BuildingBlock: AJUNOK_clean_linker_0, # of connection points: 2
#     Edge 16, Type (0, 0), BuildingBlock: AJUNOK_clean_linker_0, # of connection points: 2
#     Edge 17, Type (0, 0), BuildingBlock: AJUNOK_clean_linker_0, # of connection points: 2
#     Edge 18, Type (0, 0), BuildingBlock: AJUNOK_clean_linker_0, # of connection points: 2
#     Edge 19, Type (0, 0), BuildingBlock: AJUNOK_clean_linker_0, # of connection points: 2
#     Edge 20, Type (0, 0), BuildingBlock: AJUNOK_clean_linker_0, # of connection points: 2
#     Edge 21, Type (0, 0), BuildingBlock: AJUNOK_clean_linker_0, # of connection points: 2
#     Edge 22, Type (0, 0), BuildingBlock: AJUNOK_clean_linker_0, # of connection points: 2
#     Edge 23, Type (0, 0), BuildingBlock: AJUNOK_clean_linker_0, # of connection points: 2
#     Edge 24, Type (0, 0), BuildingBlock: AJUNOK_clean_linker_0, # of connection points: 2
#     Edge 25, Type (0, 0), BuildingBlock: AJUNOK_clean_linker_0, # of connection points: 2
#     Edge 26, Type (0, 0), BuildingBlock: AJUNOK_clean_linker_0, # of connection points: 2
# Relax obj value: 0.118
# Max RMSD: 0.155
# Mean RMSD: 0.155
data_MOF--net-afw--node1-QUQFOY_clean_sbu_1--edge1-AJUNOK_clean_linker_0
_symmetry_space_group_name_H-M    P1
_symmetry_Int_Tables_number       1
_symmetry_cell_setting            triclinic
loop_
_symmetry_equiv_pos_as_xyz
'x, y, z'
_cell_length_a     31.789361
_cell_length_b     31.865184
_cell_length_c     27.474873
_cell_angle_alpha  89.966722
_cell_angle_beta   90.001177
_cell_angle_gamma 119.92973
loop_
_atom_site_label
_atom_site_type_symbol
_atom_site_fract_x
_atom_site_fract_y
_atom_site_fract_z
_atom_type_partial_charge
O0 O 0.07615 0.2011 1.00904 0.0
Cd1 Cd 0.01585 0.20859 0.99934 0.0
Cd2 Cd 0.01764 0.20987 0.09583 0.0
O3 O 0.08379 0.2131 0.08817 0.0
O4 O 0.01925 0.22909 0.93023 0.0
O5 O 0.02449 0.27527 0.99256 0.0
C6 C 0.02545 0.26987 0.94603 0.0
C7 C 0.00677 0.26243 0.14653 0.0
C8 C 0.099 0.20519 0.04835 0.0
C9 C 0.93489 0.12304 0.04773 0.0
O10 O 0.95777 0.14201 0.0869 0.0
O11 O 0.94999 0.14572 1.00766 0.0
O12 O 0.01361 0.22876 0.16408 0.0
O13 O 0.00826 0.26758 0.09979 0.0
O14 O 0.89476 0.83766 0.08766 0.0
Cd15 Cd 0.82675 0.82992 0.09618 0.0
Cd16 Cd 0.82865 0.82923 0.99958 0.0
O17 O 0.89133 0.82578 1.00852 0.0
O18 O 0.80856 0.80913 0.16506 0.0
O19 O 0.7688 0.76308 0.10218 0.0
C20 C 0.77436 0.76834 0.1488 0.0
C21 C 0.76723 0.77777 0.94634 0.0
C22 C 0.91389 0.83348 0.04869 0.0
C23 C 0.8321 0.9158 0.04777 0.0
O24 O 0.83659 0.89709 1.00865 0.0
O25 O 0.82368 0.89269 0.08763 0.0
O26 O 0.80836 0.81185 0.93049 0.0
O27 O 0.76156 0.77173 0.9929 0.0
O28 O 0.14005 0.96093 1.00912 0.0
Cd29 Cd 0.20775 0.02103 0.9992 0.0
Cd30 Cd 0.20773 0.01904 0.09572 0.0
O31 O 0.14491 0.9531 0.08816 0.0
O32 O 0.22457 0.01784 0.92993 0.0
O33 O 0.26577 0.01216 0.99192 0.0
C34 C 0.25922 0.01143 0.94543 0.0
C35 C 0.27124 0.02961 0.14632 0.0
C36 C 0.12157 0.93803 0.04846 0.0
C37 C 0.20337 0.10188 0.04809 0.0
O38 O 0.19957 0.07889 0.08717 0.0
O39 O 0.21081 0.08687 1.00791 0.0
O40 O 0.23068 0.02278 0.16391 0.0
O41 O 0.27491 0.02828 0.09957 0.0
O42 O 0.6234 0.47446 0.4185 0.0
Cd43 Cd 0.68312 0.54241 0.4278 0.0
Cd44 Cd 0.68128 0.54159 0.33151 0.0
O45 O 0.61543 0.47864 0.33939 0.0
O46 O 0.67896 0.56118 0.49608 0.0
O47 O 0.67348 0.59994 0.43181 0.0
C48 C 0.67202 0.5948 0.47854 0.0
C49 C 0.69174 0.6047 0.28054 0.0
C50 C 0.60052 0.4556 0.37927 0.0
C51 C 0.76469 0.53847 0.37994 0.0
O52 O 0.74159 0.53411 0.34077 0.0
O53 O 0.74947 0.5461 0.41993 0.0
O54 O 0.68529 0.56432 0.26316 0.0
O55 O 0.69 0.60835 0.32724 0.0
O56 O 0.56122 0.17148 0.42152 0.0
Cd57 Cd 0.49306 0.16343 0.4298 0.0
Cd58 Cd 0.49505 0.16187 0.33301 0.0
O59 O 0.55795 0.15892 0.34249 0.0
O60 O 0.4749 0.14293 0.49874 0.0
O61 O 0.43535 0.09647 0.43604 0.0
C62 C 0.44088 0.10197 0.48265 0.0
C63 C 0.43425 0.11028 0.27927 0.0
C64 C 0.58047 0.16707 0.38274 0.0
C65 C 0.49758 0.24842 0.38032 0.0
O66 O 0.50239 0.22951 0.34153 0.0
O67 O 0.48951 0.22589 0.42053 0.0
O68 O 0.47542 0.14459 0.26377 0.0
O69 O 0.42824 0.10405 0.32578 0.0
O70 O 0.86568 0.41296 0.42016 0.0
Cd71 Cd 0.87414 0.35338 0.42961 0.0
Cd72 Cd 0.87434 0.35434 0.33311 0.0
O73 O 0.87705 0.42009 0.34093 0.0
O74 O 0.8971 0.3578 0.49789 0.0
O75 O 0.9414 0.36286 0.43376 0.0
C76 C 0.9377 0.36455 0.48047 0.0
C77 C 0.92562 0.34446 0.27929 0.0
C78 C 0.86928 0.43542 0.38072 0.0
C79 C 0.78817 0.27175 0.38281 0.0
O80 O 0.80671 0.29423 0.3433 0.0
O81 O 0.81142 0.28728 0.4225 0.0
O82 O 0.8908 0.35062 0.26384 0.0
O83 O 0.93246 0.34561 0.32576 0.0
O84 O 0.40803 0.86718 0.67419 0.0
Cd85 Cd 0.34797 0.87522 0.66549 0.0
Cd86 Cd 0.35091 0.87694 0.76165 0.0
O87 O 0.41705 0.8803 0.75311 0.0
O88 O 0.35148 0.89789 0.59717 0.0
O89 O 0.3573 0.94221 0.66139 0.0
C90 C 0.3585 0.93845 0.61465 0.0
C91 C 0.34045 0.92967 0.8125 0.0
C92 C 0.43157 0.87181 0.71314 0.0
C93 C 0.26742 0.78996 0.71432 0.0
O94 O 0.29093 0.80902 0.75321 0.0
O95 O 0.2819 0.81268 0.67421 0.0
O96 O 0.34754 0.89613 0.82996 0.0
O97 O 0.3415 0.9346 0.76576 0.0
O98 O 0.22801 0.50652 0.75616 0.0
Cd99 Cd 0.15971 0.49796 0.76476 0.0
Cd100 Cd 0.16085 0.49645 0.66828 0.0
O101 O 0.22386 0.49357 0.67721 0.0
O102 O 0.14008 0.47447 0.83274 0.0
O103 O 0.10233 0.43072 0.76792 0.0
C104 C 0.10691 0.434 0.81472 0.0
C105 C 0.10025 0.44529 0.61406 0.0
C106 C 0.24693 0.50209 0.71714 0.0
C107 C 0.16353 0.58287 0.71634 0.0
O108 O 0.16808 0.564 0.67739 0.0
O109 O 0.15578 0.56031 0.7565 0.0
O110 O 0.14141 0.47985 0.59887 0.0
O111 O 0.0941 0.43858 0.6605 0.0
O112 O 0.47305 0.62745 0.67628 0.0
Cd113 Cd 0.54059 0.68748 0.66562 0.0
Cd114 Cd 0.54083 0.68686 0.76246 0.0
O115 O 0.47775 0.62103 0.75562 0.0
O116 O 0.55652 0.68337 0.59626 0.0
O117 O 0.59862 0.67865 0.65793 0.0
C118 C 0.59143 0.67725 0.61151 0.0
C119 C 0.60408 0.69753 0.81355 0.0
C120 C 0.4546 0.60522 0.7159 0.0
C121 C 0.53648 0.76909 0.71324 0.0
O122 O 0.53309 0.74684 0.75274 0.0
O123 O 0.54346 0.75332 0.67331 0.0
O124 O 0.56367 0.6914 0.83081 0.0
O125 O 0.60778 0.69554 0.76687 0.0
C126 C 0.17576 0.15269 1.00443 0.0
C127 C 0.18997 0.14039 0.0482 0.0
C128 C 0.15013 0.1779 1.00458 0.0
C129 C 0.13777 0.19196 0.04848 0.0
H130 H 0.18102 0.13958 0.96989 0.0
H131 H 0.137 0.18329 0.97007 0.0
S132 S 0.17782 0.1797 0.17207 0.0
N133 N 0.19818 0.15242 0.1359 0.0
N134 N 0.1501 0.19988 0.13623 0.0
C135 C 0.15695 0.18508 0.09203 0.0
C136 C 0.18299 0.15924 0.09188 0.0
C137 C 0.85987 0.9941 1.00389 0.0
C138 C 0.84529 0.96765 0.04774 0.0
C139 C 0.88489 0.04483 1.0038 0.0
C140 C 0.8965 0.07118 0.04758 0.0
H141 H 0.85501 0.97572 0.96943 0.0
H142 H 0.89843 0.06326 0.96935 0.0
S143 S 0.85576 0.01952 0.17118 0.0
N144 N 0.8362 0.97181 0.13535 0.0
N145 N 0.88335 0.06714 0.13511 0.0
C146 C 0.87718 0.04528 0.09113 0.0
C147 C 0.85151 0.99353 0.09123 0.0
C148 C 0.99229 0.86087 1.00494 0.0
C149 C 0.96587 0.84688 0.04878 0.0
C150 C 0.04313 0.8866 1.00496 0.0
C151 C 0.06966 0.89927 0.0488 0.0
H152 H 0.9738 0.85536 0.97041 0.0
H153 H 0.06154 0.89954 0.97038 0.0
S154 S 0.01773 0.85995 0.17263 0.0
N155 N 0.96997 0.83927 0.13654 0.0
N156 N 0.06553 0.88751 0.13665 0.0
C157 C 0.04374 0.88032 0.09246 0.0
C158 C 0.99186 0.85419 0.09243 0.0
C159 C 0.84111 0.4859 0.42421 0.0
C160 C 0.85568 0.47384 0.38044 0.0
C161 C 0.81562 0.51125 0.42411 0.0
C162 C 0.80353 0.52546 0.38021 0.0
H163 H 0.84632 0.47276 0.45878 0.0
H164 H 0.8021 0.51628 0.45852 0.0
S165 S 0.84413 0.51402 0.25668 0.0
N166 N 0.86429 0.48645 0.29274 0.0
N167 N 0.81628 0.53398 0.2926 0.0
C168 C 0.82287 0.51876 0.3367 0.0
C169 C 0.849 0.49302 0.3368 0.0
C170 C 0.52456 0.3267 0.42366 0.0
C171 C 0.51054 0.30013 0.37999 0.0
C172 C 0.54988 0.37743 0.42332 0.0
C173 C 0.56207 0.40365 0.37931 0.0
H174 H 0.51943 0.30847 0.45827 0.0
H175 H 0.56289 0.39601 0.45776 0.0
S176 S 0.52236 0.35104 0.25587 0.0
N177 N 0.50231 0.30363 0.29225 0.0
N178 N 0.54977 0.39896 0.29154 0.0
C179 C 0.54305 0.3775 0.33584 0.0
C180 C 0.51736 0.32575 0.33619 0.0
C181 C 0.65896 0.19416 0.33927 0.0
C182 C 0.63248 0.18058 0.38308 0.0
C183 C 0.7098 0.21989 0.33936 0.0
C184 C 0.73627 0.23298 0.38325 0.0
H185 H 0.64052 0.18831 0.30467 0.0
H186 H 0.72826 0.2325 0.30477 0.0
S187 S 0.68416 0.19488 0.50719 0.0
N188 N 0.63646 0.17384 0.47098 0.0
N189 N 0.73201 0.22209 0.47122 0.0
C190 C 0.71029 0.21446 0.42696 0.0
C191 C 0.6584 0.18834 0.42685 0.0
C192 C 0.48148 0.84327 0.66903 0.0
C193 C 0.4704 0.85868 0.71282 0.0
C194 C 0.50731 0.81826 0.66896 0.0
C195 C 0.523 0.80752 0.7127 0.0
H196 H 0.46721 0.84742 0.63469 0.0
H197 H 0.51154 0.80403 0.63465 0.0
S198 S 0.51461 0.85085 0.83578 0.0
N199 N 0.48555 0.86963 0.80006 0.0
N200 N 0.53397 0.82249 0.79987 0.0
C201 C 0.51727 0.82773 0.75604 0.0
C202 C 0.49105 0.85337 0.75611 0.0
C203 C 0.21728 0.7121 0.75905 0.0
C204 C 0.22871 0.73812 0.71494 0.0
C205 C 0.19168 0.66137 0.75965 0.0
C206 C 0.17659 0.6346 0.71614 0.0
H207 H 0.23113 0.73082 0.7933 0.0
H208 H 0.1872 0.64327 0.79424 0.0
S209 S 0.18605 0.68501 0.59216 0.0
N210 N 0.2145 0.73308 0.62748 0.0
N211 N 0.16651 0.63775 0.62867 0.0
C212 C 0.18263 0.66006 0.67239 0.0
C213 C 0.20861 0.71181 0.67177 0.0
C214 C 0.32568 0.53124 0.76092 0.0
C215 C 0.29895 0.51542 0.71729 0.0
C216 C 0.37653 0.55634 0.76071 0.0
C217 C 0.40272 0.56675 0.71684 0.0
H218 H 0.30743 0.52734 0.79532 0.0
H219 H 0.39518 0.57089 0.79487 0.0
S220 S 0.35037 0.52239 0.59417 0.0
N221 N 0.30272 0.5038 0.63012 0.0
N222 N 0.39828 0.55111 0.62979 0.0
C223 C 0.37657 0.54618 0.6737 0.0
C224 C 0.32469 0.52044 0.6739 0.0
C225 C 0.06146 0.35845 0.92974 0.0
C226 C 0.03817 0.31069 0.91202 0.0
C227 C 0.08139 0.39813 0.89789 0.0
C228 C 0.0784 0.39169 0.84703 0.0
H229 H 0.06659 0.3654 0.96849 0.0
H230 H 0.10086 0.43414 0.9134 0.0
S231 S 0.01499 0.27391 0.78213 0.0
N232 N 0.00881 0.25913 0.84034 0.0
N233 N 0.04586 0.33365 0.78054 0.0
C234 C 0.0522 0.34414 0.82885 0.0
C235 C 0.03225 0.30367 0.86132 0.0
C236 C 0.67835 0.72772 0.92954 0.0
C237 C 0.72636 0.75003 0.91228 0.0
C238 C 0.63892 0.70863 0.89731 0.0
C239 C 0.64586 0.71062 0.84653 0.0
H240 H 0.6711 0.72718 0.96814 0.0
H241 H 0.60278 0.69381 0.91241 0.0
S242 S 0.76424 0.75886 0.78309 0.0
N243 N 0.77854 0.76846 0.84137 0.0
N244 N 0.70447 0.73219 0.78082 0.0
C245 C 0.69355 0.72973 0.82895 0.0
C246 C 0.73377 0.74958 0.8618 0.0
C247 C 0.33028 0.95435 0.89612 0.0
C248 C 0.32715 0.95823 0.84533 0.0
C249 C 0.31089 0.97437 0.92837 0.0
C250 C 0.28711 0.99865 0.91113 0.0
H251 H 0.34624 0.93409 0.91125 0.0
H252 H 0.31238 0.96851 0.96703 0.0
S253 S 0.27488 0.0246 0.78172 0.0
N254 N 0.30293 0.99282 0.77949 0.0
N255 N 0.26607 0.02999 0.84006 0.0
C256 C 0.28642 0.00549 0.86055 0.0
C257 C 0.30658 0.98546 0.82767 0.0
C258 C 0.34559 0.05847 0.2621 0.0
C259 C 0.39366 0.08253 0.24488 0.0
C260 C 0.30618 0.03924 0.22985 0.0
C261 C 0.3132 0.04283 0.17906 0.0
H262 H 0.3382 0.05661 0.30078 0.0
H263 H 0.26993 0.02302 0.24499 0.0
S264 S 0.43191 0.09623 0.11539 0.0
N265 N 0.44609 0.10445 0.17374 0.0
N266 N 0.37206 0.06797 0.11318 0.0
C267 C 0.36103 0.06374 0.16138 0.0
C268 C 0.40123 0.08371 0.19426 0.0
C269 C 0.99672 0.28737 0.23007 0.0
C270 C 0.99335 0.29096 0.17927 0.0
C271 C 0.97738 0.30748 0.26228 0.0
C272 C 0.9534 0.33154 0.24499 0.0
H273 H 0.01287 0.26732 0.24525 0.0
H274 H 0.97908 0.30187 0.30096 0.0
S275 S 0.94026 0.35647 0.11549 0.0
N276 N 0.9685 0.32488 0.11334 0.0
N277 N 0.93178 0.36224 0.17383 0.0
C278 C 0.9524 0.33803 0.19437 0.0
C279 C 0.9725 0.31791 0.16154 0.0
C280 C 0.70369 0.64002 0.19694 0.0
C281 C 0.7052 0.6466 0.24774 0.0
C282 C 0.72342 0.6796 0.16496 0.0
C283 C 0.74592 0.72738 0.18251 0.0
H284 H 0.6888 0.60406 0.18165 0.0
H285 H 0.72327 0.67262 0.12634 0.0
S286 S 0.75347 0.76432 0.31183 0.0
N287 N 0.72636 0.70466 0.31374 0.0
N288 N 0.76387 0.77898 0.25367 0.0
C289 C 0.74493 0.73445 0.23299 0.0
C290 C 0.72441 0.69409 0.26558 0.0
C291 C 0.0117 0.39329 0.59649 0.0
C292 C 0.05983 0.41771 0.57945 0.0
C293 C 0.9724 0.37405 0.56409 0.0
C294 C 0.97961 0.37799 0.51333 0.0
H295 H 1.00415 0.39109 0.63515 0.0
H296 H 0.93609 0.3575 0.5791 0.0
S297 S 0.0986 0.4326 0.45006 0.0
N298 N 0.11256 0.44049 0.50848 0.0
N299 N 0.03874 0.40398 0.44764 0.0
C300 C 0.02753 0.39933 0.49581 0.0
C301 C 0.06761 0.41932 0.52884 0.0
C302 C 0.66238 0.62009 0.56206 0.0
C303 C 0.6586 0.62333 0.51127 0.0
C304 C 0.64318 0.64031 0.5943 0.0
C305 C 0.61894 0.66412 0.57706 0.0
H306 H 0.67879 0.60026 0.5772 0.0
H307 H 0.64525 0.63501 0.63299 0.0
S308 S 0.60457 0.68798 0.44753 0.0
N309 N 0.63301 0.65658 0.44534 0.0
N310 N 0.59651 0.69411 0.5059 0.0
C311 C 0.61746 0.67021 0.52643 0.0
C312 C 0.63744 0.64999 0.49356 0.0
C313 C 0.36996 0.97373 0.53107 0.0
C314 C 0.372 0.98038 0.58188 0.0
C315 C 0.38964 0.01327 0.49904 0.0
C316 C 0.4126 0.06109 0.51653 0.0
H317 H 0.35468 0.93772 0.51578 0.0
H318 H 0.38904 0.00621 0.4604 0.0
S319 S 0.42171 0.09826 0.64596 0.0
N320 N 0.39423 0.03858 0.6479 0.0
N321 N 0.43161 0.11283 0.58775 0.0
C322 C 0.41216 0.06825 0.56707 0.0
C323 C 0.39172 0.02792 0.59971 0.0
loop_
_geom_bond_atom_site_label_1
_geom_bond_atom_site_label_2
_geom_bond_distance
_geom_bond_site_symmetry_2
_ccdc_geom_bond_type
O0 Cd1 2.225 . S
O0 C8 1.315 . S
Cd1 O0 2.225 . S
Cd1 O4 2.298 . S
Cd1 O5 2.439 . S
Cd1 O11 2.239 1_456 S
Cd2 O3 2.240 . S
Cd2 O10 2.223 1_455 S
Cd2 O12 2.297 1_455 S
Cd2 O13 2.439 1_455 S
O3 Cd2 2.240 . S
O3 C8 1.279 1_554 S
O4 Cd1 2.298 . S
O4 C6 1.247 . S
O5 Cd1 2.439 . S
O5 C6 1.208 . S
C6 O4 1.247 . S
C6 O5 1.208 . S
C7 O12 1.247 . S
C7 O13 1.208 . S
C8 O0 1.315 . S
C8 O3 1.279 1_556 S
C9 O10 1.315 . S
C9 O11 1.279 . S
O10 Cd2 2.223 1_655 S
O10 C9 1.315 . S
O11 Cd1 2.239 1_654 S
O11 C9 1.279 . S
O12 Cd2 2.297 1_655 S
O12 C7 1.247 . S
O13 Cd2 2.439 1_655 S
O13 C7 1.208 . S
O14 Cd15 2.223 . S
O14 C22 1.315 . S
Cd15 O14 2.223 . S
Cd15 O18 2.297 . S
Cd15 O19 2.439 . S
Cd15 O25 2.240 . S
Cd16 O17 2.240 1_556 S
Cd16 O24 2.223 . S
Cd16 O26 2.297 . S
Cd16 O27 2.439 . S
O17 Cd16 2.240 1_554 S
O17 C22 1.279 . S
O18 Cd15 2.297 . S
O18 C20 1.247 . S
O19 Cd15 2.439 . S
O19 C20 1.208 . S
C20 O18 1.247 . S
C20 O19 1.208 . S
C21 O26 1.247 . S
C21 O27 1.208 . S
C22 O14 1.315 . S
C22 O17 1.279 . S
C23 O24 1.315 . S
C23 O25 1.279 1_556 S
O24 Cd16 2.223 . S
O24 C23 1.315 . S
O25 Cd15 2.240 . S
O25 C23 1.279 1_554 S
O26 Cd16 2.297 . S
O26 C21 1.247 . S
O27 Cd16 2.439 . S
O27 C21 1.208 . S
O28 Cd29 2.223 1_565 S
O28 C36 1.315 . S
Cd29 O28 2.223 1_545 S
Cd29 O32 2.297 1_545 S
Cd29 O33 2.439 1_545 S
Cd29 O39 2.240 1_556 S
Cd30 O31 2.240 1_545 S
Cd30 O38 2.223 . S
Cd30 O40 2.297 . S
Cd30 O41 2.439 . S
O31 Cd30 2.240 1_565 S
O31 C36 1.279 1_554 S
O32 Cd29 2.297 1_565 S
O32 C34 1.247 . S
O33 Cd29 2.439 1_565 S
O33 C34 1.208 . S
C34 O32 1.247 . S
C34 O33 1.208 . S
C35 O40 1.247 . S
C35 O41 1.208 . S
C36 O28 1.315 . S
C36 O31 1.279 1_556 S
C37 O38 1.315 . S
C37 O39 1.279 . S
O38 Cd30 2.223 . S
O38 C37 1.315 . S
O39 Cd29 2.240 1_554 S
O39 C37 1.279 . S
O40 Cd30 2.297 . S
O40 C35 1.247 . S
O41 Cd30 2.439 . S
O41 C35 1.208 . S
O42 Cd43 2.223 . S
O42 C50 1.315 . S
Cd43 O42 2.223 . S
Cd43 O46 2.297 . S
Cd43 O47 2.439 . S
Cd43 O53 2.240 . S
Cd44 O45 2.240 . S
Cd44 O52 2.223 . S
Cd44 O54 2.297 . S
Cd44 O55 2.439 . S
O45 Cd44 2.240 . S
O45 C50 1.279 . S
O46 Cd43 2.297 . S
O46 C48 1.247 . S
O47 Cd43 2.439 . S
O47 C48 1.208 . S
C48 O46 1.247 . S
C48 O47 1.208 . S
C49 O54 1.247 . S
C49 O55 1.208 . S
C50 O42 1.315 . S
C50 O45 1.279 . S
C51 O52 1.315 . S
C51 O53 1.279 . S
O52 Cd44 2.223 . S
O52 C51 1.315 . S
O53 Cd43 2.240 . S
O53 C51 1.279 . S
O54 Cd44 2.297 . S
O54 C49 1.247 . S
O55 Cd44 2.439 . S
O55 C49 1.208 . S
O56 Cd57 2.223 . S
O56 C64 1.315 . S
Cd57 O56 2.223 . S
Cd57 O60 2.297 . S
Cd57 O61 2.439 . S
Cd57 O67 2.240 . S
Cd58 O59 2.240 . S
Cd58 O66 2.223 . S
Cd58 O68 2.297 . S
Cd58 O69 2.439 . S
O59 Cd58 2.240 . S
O59 C64 1.279 . S
O60 Cd57 2.297 . S
O60 C62 1.247 . S
O61 Cd57 2.439 . S
O61 C62 1.208 . S
C62 O60 1.247 . S
C62 O61 1.208 . S
C63 O68 1.247 . S
C63 O69 1.208 . S
C64 O56 1.315 . S
C64 O59 1.279 . S
C65 O66 1.315 . S
C65 O67 1.279 . S
O66 Cd58 2.223 . S
O66 C65 1.315 . S
O67 Cd57 2.240 . S
O67 C65 1.279 . S
O68 Cd58 2.297 . S
O68 C63 1.247 . S
O69 Cd58 2.439 . S
O69 C63 1.208 . S
O70 Cd71 2.223 . S
O70 C78 1.315 . S
Cd71 O70 2.223 . S
Cd71 O74 2.297 . S
Cd71 O75 2.439 . S
Cd71 O81 2.240 . S
Cd72 O73 2.240 . S
Cd72 O80 2.223 . S
Cd72 O82 2.297 . S
Cd72 O83 2.439 . S
O73 Cd72 2.240 . S
O73 C78 1.279 . S
O74 Cd71 2.297 . S
O74 C76 1.247 . S
O75 Cd71 2.439 . S
O75 C76 1.208 . S
C76 O74 1.247 . S
C76 O75 1.208 . S
C77 O82 1.247 . S
C77 O83 1.208 . S
C78 O70 1.315 . S
C78 O73 1.279 . S
C79 O80 1.315 . S
C79 O81 1.279 . S
O80 Cd72 2.223 . S
O80 C79 1.315 . S
O81 Cd71 2.240 . S
O81 C79 1.279 . S
O82 Cd72 2.297 . S
O82 C77 1.247 . S
O83 Cd72 2.439 . S
O83 C77 1.208 . S
O84 Cd85 2.223 . S
O84 C92 1.315 . S
Cd85 O84 2.223 . S
Cd85 O88 2.297 . S
Cd85 O89 2.439 . S
Cd85 O95 2.240 . S
Cd86 O87 2.240 . S
Cd86 O94 2.223 . S
Cd86 O96 2.297 . S
Cd86 O97 2.439 . S
O87 Cd86 2.240 . S
O87 C92 1.279 . S
O88 Cd85 2.297 . S
O88 C90 1.247 . S
O89 Cd85 2.439 . S
O89 C90 1.208 . S
C90 O88 1.247 . S
C90 O89 1.208 . S
C91 O96 1.247 . S
C91 O97 1.208 . S
C92 O84 1.315 . S
C92 O87 1.279 . S
C93 O94 1.315 . S
C93 O95 1.279 . S
O94 Cd86 2.223 . S
O94 C93 1.315 . S
O95 Cd85 2.240 . S
O95 C93 1.279 . S
O96 Cd86 2.297 . S
O96 C91 1.247 . S
O97 Cd86 2.439 . S
O97 C91 1.208 . S
O98 Cd99 2.223 . S
O98 C106 1.315 . S
Cd99 O98 2.223 . S
Cd99 O102 2.297 . S
Cd99 O103 2.439 . S
Cd99 O109 2.240 . S
Cd100 O101 2.240 . S
Cd100 O108 2.223 . S
Cd100 O110 2.297 . S
Cd100 O111 2.439 . S
O101 Cd100 2.240 . S
O101 C106 1.279 . S
O102 Cd99 2.297 . S
O102 C104 1.247 . S
O103 Cd99 2.439 . S
O103 C104 1.208 . S
C104 O102 1.247 . S
C104 O103 1.208 . S
C105 O110 1.247 . S
C105 O111 1.208 . S
C106 O98 1.315 . S
C106 O101 1.279 . S
C107 O108 1.315 . S
C107 O109 1.279 . S
O108 Cd100 2.223 . S
O108 C107 1.315 . S
O109 Cd99 2.240 . S
O109 C107 1.279 . S
O110 Cd100 2.297 . S
O110 C105 1.247 . S
O111 Cd100 2.439 . S
O111 C105 1.208 . S
O112 Cd113 2.223 . S
O112 C120 1.315 . S
Cd113 O112 2.223 . S
Cd113 O116 2.297 . S
Cd113 O117 2.439 . S
Cd113 O123 2.240 . S
Cd114 O115 2.240 . S
Cd114 O122 2.223 . S
Cd114 O124 2.297 . S
Cd114 O125 2.439 . S
O115 Cd114 2.240 . S
O115 C120 1.279 . S
O116 Cd113 2.297 . S
O116 C118 1.247 . S
O117 Cd113 2.439 . S
O117 C118 1.208 . S
C118 O116 1.247 . S
C118 O117 1.208 . S
C119 O124 1.247 . S
C119 O125 1.208 . S
C120 O112 1.315 . S
C120 O115 1.279 . S
C121 O122 1.315 . S
C121 O123 1.279 . S
O122 Cd114 2.223 . S
O122 C121 1.315 . S
O123 Cd113 2.240 . S
O123 C121 1.279 . S
O124 Cd114 2.297 . S
O124 C119 1.247 . S
O125 Cd114 2.439 . S
O125 C119 1.208 . S
C126 C127 1.369 1_556 S
C126 C128 1.419 . S
C126 H130 0.930 . S
C127 C126 1.369 1_554 S
C127 C136 1.429 . S
C128 C126 1.419 . S
C128 C129 1.363 1_556 S
C128 H131 0.929 . S
C129 C128 1.363 1_554 S
C129 C135 1.428 . S
H130 C126 0.930 . S
H131 C128 0.929 . S
S132 N133 1.613 . S
S132 N134 1.610 . S
N133 S132 1.613 . S
N133 C136 1.350 . S
N134 S132 1.610 . S
N134 C135 1.351 . S
C135 C129 1.428 . S
C135 N134 1.351 . S
C135 C136 1.434 . S
C136 C127 1.429 . S
C136 N133 1.350 . S
C136 C135 1.434 . S
C137 C138 1.369 1_556 S
C137 C139 1.419 1_565 S
C137 H141 0.930 . S
C138 C137 1.369 1_554 S
C138 C147 1.429 . S
C139 C137 1.419 1_545 S
C139 C140 1.363 1_556 S
C139 H142 0.929 . S
C140 C139 1.363 1_554 S
C140 C146 1.428 . S
H141 C137 0.930 . S
H142 C139 0.929 . S
S143 N144 1.613 1_545 S
S143 N145 1.610 . S
N144 S143 1.613 1_565 S
N144 C147 1.350 . S
N145 S143 1.610 . S
N145 C146 1.351 . S
C146 C140 1.428 . S
C146 N145 1.351 . S
C146 C147 1.434 1_545 S
C147 C138 1.429 . S
C147 N144 1.350 . S
C147 C146 1.434 1_565 S
C148 C149 1.369 1_556 S
C148 C150 1.419 1_655 S
C148 H152 0.930 . S
C149 C148 1.369 1_554 S
C149 C158 1.429 . S
C150 C148 1.419 1_455 S
C150 C151 1.363 1_556 S
C150 H153 0.929 . S
C151 C150 1.363 1_554 S
C151 C157 1.428 . S
H152 C148 0.930 . S
H153 C150 0.929 . S
S154 N155 1.613 1_455 S
S154 N156 1.610 . S
N155 S154 1.613 1_655 S
N155 C158 1.350 . S
N156 S154 1.610 . S
N156 C157 1.351 . S
C157 C151 1.428 . S
C157 N156 1.351 . S
C157 C158 1.434 1_455 S
C158 C149 1.429 . S
C158 N155 1.350 . S
C158 C157 1.434 1_655 S
C159 C160 1.369 . S
C159 C161 1.419 . S
C159 H163 0.930 . S
C160 C159 1.369 . S
C160 C169 1.429 . S
C161 C159 1.419 . S
C161 C162 1.363 . S
C161 H164 0.929 . S
C162 C161 1.363 . S
C162 C168 1.428 . S
H163 C159 0.930 . S
H164 C161 0.929 . S
S165 N166 1.613 . S
S165 N167 1.610 . S
N166 S165 1.613 . S
N166 C169 1.350 . S
N167 S165 1.610 . S
N167 C168 1.351 . S
C168 C162 1.428 . S
C168 N167 1.351 . S
C168 C169 1.434 . S
C169 C160 1.429 . S
C169 N166 1.350 . S
C169 C168 1.434 . S
C170 C171 1.369 . S
C170 C172 1.419 . S
C170 H174 0.930 . S
C171 C170 1.369 . S
C171 C180 1.429 . S
C172 C170 1.419 . S
C172 C173 1.363 . S
C172 H175 0.929 . S
C173 C172 1.363 . S
C173 C179 1.428 . S
H174 C170 0.930 . S
H175 C172 0.929 . S
S176 N177 1.613 . S
S176 N178 1.610 . S
N177 S176 1.613 . S
N177 C180 1.350 . S
N178 S176 1.610 . S
N178 C179 1.351 . S
C179 C173 1.428 . S
C179 N178 1.351 . S
C179 C180 1.434 . S
C180 C171 1.429 . S
C180 N177 1.350 . S
C180 C179 1.434 . S
C181 C182 1.369 . S
C181 C183 1.419 . S
C181 H185 0.930 . S
C182 C181 1.369 . S
C182 C191 1.429 . S
C183 C181 1.419 . S
C183 C184 1.363 . S
C183 H186 0.929 . S
C184 C183 1.363 . S
C184 C190 1.428 . S
H185 C181 0.930 . S
H186 C183 0.929 . S
S187 N188 1.613 . S
S187 N189 1.610 . S
N188 S187 1.613 . S
N188 C191 1.350 . S
N189 S187 1.610 . S
N189 C190 1.351 . S
C190 C184 1.428 . S
C190 N189 1.351 . S
C190 C191 1.434 . S
C191 C182 1.429 . S
C191 N188 1.350 . S
C191 C190 1.434 . S
C192 C193 1.369 . S
C192 C194 1.419 . S
C192 H196 0.930 . S
C193 C192 1.369 . S
C193 C202 1.429 . S
C194 C192 1.419 . S
C194 C195 1.363 . S
C194 H197 0.929 . S
C195 C194 1.363 . S
C195 C201 1.428 . S
H196 C192 0.930 . S
H197 C194 0.929 . S
S198 N199 1.613 . S
S198 N200 1.610 . S
N199 S198 1.613 . S
N199 C202 1.350 . S
N200 S198 1.610 . S
N200 C201 1.351 . S
C201 C195 1.428 . S
C201 N200 1.351 . S
C201 C202 1.434 . S
C202 C193 1.429 . S
C202 N199 1.350 . S
C202 C201 1.434 . S
C203 C204 1.369 . S
C203 C205 1.419 . S
C203 H207 0.930 . S
C204 C203 1.369 . S
C204 C213 1.429 . S
C205 C203 1.419 . S
C205 C206 1.363 . S
C205 H208 0.929 . S
C206 C205 1.363 . S
C206 C212 1.428 . S
H207 C203 0.930 . S
H208 C205 0.929 . S
S209 N210 1.613 . S
S209 N211 1.610 . S
N210 S209 1.613 . S
N210 C213 1.350 . S
N211 S209 1.610 . S
N211 C212 1.351 . S
C212 C206 1.428 . S
C212 N211 1.351 . S
C212 C213 1.434 . S
C213 C204 1.429 . S
C213 N210 1.350 . S
C213 C212 1.434 . S
C214 C215 1.369 . S
C214 C216 1.419 . S
C214 H218 0.930 . S
C215 C214 1.369 . S
C215 C224 1.429 . S
C216 C214 1.419 . S
C216 C217 1.363 . S
C216 H219 0.929 . S
C217 C216 1.363 . S
C217 C223 1.428 . S
H218 C214 0.930 . S
H219 C216 0.929 . S
S220 N221 1.613 . S
S220 N222 1.610 . S
N221 S220 1.613 . S
N221 C224 1.350 . S
N222 S220 1.610 . S
N222 C223 1.351 . S
C223 C217 1.428 . S
C223 N222 1.351 . S
C223 C224 1.434 . S
C224 C215 1.429 . S
C224 N221 1.350 . S
C224 C223 1.434 . S
C225 C226 1.369 . S
C225 C227 1.419 . S
C225 H229 0.930 . S
C226 C225 1.369 . S
C226 C235 1.429 . S
C227 C225 1.419 . S
C227 C228 1.363 . S
C227 H230 0.929 . S
C228 C227 1.363 . S
C228 C234 1.428 . S
H229 C225 0.930 . S
H230 C227 0.929 . S
S231 N232 1.613 . S
S231 N233 1.610 . S
N232 S231 1.613 . S
N232 C235 1.350 . S
N233 S231 1.610 . S
N233 C234 1.351 . S
C234 C228 1.428 . S
C234 N233 1.351 . S
C234 C235 1.434 . S
C235 C226 1.429 . S
C235 N232 1.350 . S
C235 C234 1.434 . S
C236 C237 1.369 . S
C236 C238 1.419 . S
C236 H240 0.930 . S
C237 C236 1.369 . S
C237 C246 1.429 . S
C238 C236 1.419 . S
C238 C239 1.363 . S
C238 H241 0.929 . S
C239 C238 1.363 . S
C239 C245 1.428 . S
H240 C236 0.930 . S
H241 C238 0.929 . S
S242 N243 1.613 . S
S242 N244 1.610 . S
N243 S242 1.613 . S
N243 C246 1.350 . S
N244 S242 1.610 . S
N244 C245 1.351 . S
C245 C239 1.428 . S
C245 N244 1.351 . S
C245 C246 1.434 . S
C246 C237 1.429 . S
C246 N243 1.350 . S
C246 C245 1.434 . S
C247 C248 1.369 . S
C247 C249 1.419 . S
C247 H251 0.930 . S
C248 C247 1.369 . S
C248 C257 1.429 . S
C249 C247 1.419 . S
C249 C250 1.363 . S
C249 H252 0.929 . S
C250 C249 1.363 . S
C250 C256 1.428 . S
H251 C247 0.930 . S
H252 C249 0.929 . S
S253 N254 1.613 . S
S253 N255 1.610 . S
N254 S253 1.613 . S
N254 C257 1.350 . S
N255 S253 1.610 . S
N255 C256 1.351 . S
C256 C250 1.428 . S
C256 N255 1.351 . S
C256 C257 1.434 . S
C257 C248 1.429 . S
C257 N254 1.350 . S
C257 C256 1.434 . S
C258 C259 1.369 . S
C258 C260 1.419 . S
C258 H262 0.930 . S
C259 C258 1.369 . S
C259 C268 1.429 . S
C260 C258 1.419 . S
C260 C261 1.363 . S
C260 H263 0.929 . S
C261 C260 1.363 . S
C261 C267 1.428 . S
H262 C258 0.930 . S
H263 C260 0.929 . S
S264 N265 1.613 . S
S264 N266 1.610 . S
N265 S264 1.613 . S
N265 C268 1.350 . S
N266 S264 1.610 . S
N266 C267 1.351 . S
C267 C261 1.428 . S
C267 N266 1.351 . S
C267 C268 1.434 . S
C268 C259 1.429 . S
C268 N265 1.350 . S
C268 C267 1.434 . S
C269 C270 1.369 . S
C269 C271 1.419 . S
C269 H273 0.930 . S
C270 C269 1.369 . S
C270 C279 1.429 . S
C271 C269 1.419 . S
C271 C272 1.363 . S
C271 H274 0.929 . S
C272 C271 1.363 . S
C272 C278 1.428 . S
H273 C269 0.930 . S
H274 C271 0.929 . S
S275 N276 1.613 . S
S275 N277 1.610 . S
N276 S275 1.613 . S
N276 C279 1.350 . S
N277 S275 1.610 . S
N277 C278 1.351 . S
C278 C272 1.428 . S
C278 N277 1.351 . S
C278 C279 1.434 . S
C279 C270 1.429 . S
C279 N276 1.350 . S
C279 C278 1.434 . S
C280 C281 1.369 . S
C280 C282 1.419 . S
C280 H284 0.930 . S
C281 C280 1.369 . S
C281 C290 1.429 . S
C282 C280 1.419 . S
C282 C283 1.363 . S
C282 H285 0.929 . S
C283 C282 1.363 . S
C283 C289 1.428 . S
H284 C280 0.930 . S
H285 C282 0.929 . S
S286 N287 1.613 . S
S286 N288 1.610 . S
N287 S286 1.613 . S
N287 C290 1.350 . S
N288 S286 1.610 . S
N288 C289 1.351 . S
C289 C283 1.428 . S
C289 N288 1.351 . S
C289 C290 1.434 . S
C290 C281 1.429 . S
C290 N287 1.350 . S
C290 C289 1.434 . S
C291 C292 1.369 . S
C291 C293 1.419 1_455 S
C291 H295 0.930 . S
C292 C291 1.369 . S
C292 C301 1.429 . S
C293 C291 1.419 1_655 S
C293 C294 1.363 . S
C293 H296 0.929 . S
C294 C293 1.363 . S
C294 C300 1.428 1_655 S
H295 C291 0.930 . S
H296 C293 0.929 . S
S297 N298 1.613 . S
S297 N299 1.610 . S
N298 S297 1.613 . S
N298 C301 1.350 . S
N299 S297 1.610 . S
N299 C300 1.351 . S
C300 C294 1.428 1_455 S
C300 N299 1.351 . S
C300 C301 1.434 . S
C301 C292 1.429 . S
C301 N298 1.350 . S
C301 C300 1.434 . S
C302 C303 1.369 . S
C302 C304 1.419 . S
C302 H306 0.930 . S
C303 C302 1.369 . S
C303 C312 1.429 . S
C304 C302 1.419 . S
C304 C305 1.363 . S
C304 H307 0.929 . S
C305 C304 1.363 . S
C305 C311 1.428 . S
H306 C302 0.930 . S
H307 C304 0.929 . S
S308 N309 1.613 . S
S308 N310 1.610 . S
N309 S308 1.613 . S
N309 C312 1.350 . S
N310 S308 1.610 . S
N310 C311 1.351 . S
C311 C305 1.428 . S
C311 N310 1.351 . S
C311 C312 1.434 . S
C312 C303 1.429 . S
C312 N309 1.350 . S
C312 C311 1.434 . S
C313 C314 1.369 . S
C313 C315 1.422 . S
C313 H317 0.930 . S
C314 C313 1.369 . S
C314 C323 1.429 1_565 S
C315 C313 1.422 . S
C315 C316 1.358 1_565 S
C315 H318 0.931 . S
C316 C315 1.358 1_545 S
C316 C322 1.428 . S
H317 C313 0.930 . S
H318 C315 0.931 . S
S319 N320 1.613 . S
S319 N321 1.610 . S
N320 S319 1.613 . S
N320 C323 1.350 . S
N321 S319 1.610 . S
N321 C322 1.351 . S
C322 C316 1.428 . S
C322 N321 1.351 . S
C322 C323 1.434 . S
C323 C314 1.429 1_545 S
C323 N320 1.350 . S
C323 C322 1.434 . S
C127 C37 1.336 . S
C129 C8 1.339 1_554 S
C138 C23 1.339 1_554 S
C140 C9 1.337 . S
C149 C22 1.336 . S
C151 C36 1.338 1_554 S
C160 C78 1.340 . S
C162 C51 1.337 . S
C171 C65 1.336 . S
C173 C50 1.338 . S
C182 C64 1.336 . S
C184 C79 1.338 . S
C193 C92 1.340 . S
C195 C121 1.341 . S
C204 C93 1.341 . S
C206 C107 1.338 . S
C215 C106 1.341 . S
C217 C120 1.340 . S
C226 C6 1.472 . S
C228 C104 1.474 . S
C237 C21 1.470 . S
C239 C119 1.474 . S
C248 C91 1.477 . S
C250 C34 1.470 . S
C259 C63 1.473 . S
C261 C35 1.474 . S
C270 C7 1.477 . S
C272 C77 1.470 . S
C281 C49 1.474 . S
C283 C20 1.471 . S
C292 C105 1.473 . S
C294 C76 1.474 . S
C303 C48 1.477 . S
C305 C118 1.471 . S
C314 C90 1.477 . S
C316 C62 1.470 . S
