# Generated by pormake.
# Topology wiv, (6)-cn, num edge types: 1
# Building blocks:
#     Node 0, Type 0, BuildingBlock: CUWYAW_clean_sbu_0, # of connection points: 6
#     Node 1, Type 0, BuildingBlock: CUWYAW_clean_sbu_0, # of connection points: 6
#     Node 2, Type 0, BuildingBlock: CUWYAW_clean_sbu_0, # of connection points: 6
#     Node 3, Type 0, BuildingBlock: CUWYAW_clean_sbu_0, # of connection points: 6
#     Node 4, Type 0, BuildingBlock: CUWYAW_clean_sbu_0, # of connection points: 6
#     Node 5, Type 0, BuildingBlock: CUWYAW_clean_sbu_0, # of connection points: 6
#     Node 6, Type 0, BuildingBlock: CUWYAW_clean_sbu_0, # of connection points: 6
#     Node 7, Type 0, BuildingBlock: CUWYAW_clean_sbu_0, # of connection points: 6
#     Node 8, Type 0, BuildingBlock: CUWYAW_clean_sbu_0, # of connection points: 6
#     Node 9, Type 0, BuildingBlock: CUWYAW_clean_sbu_0, # of connection points: 6
#     Node 10, Type 0, BuildingBlock: CUWYAW_clean_sbu_0, # of connection points: 6
#     Node 11, Type 0, BuildingBlock: CUWYAW_clean_sbu_0, # of connection points: 6
#     Node 12, Type 0, BuildingBlock: CUWYAW_clean_sbu_0, # of connection points: 6
#     Node 13, Type 0, BuildingBlock: CUWYAW_clean_sbu_0, # of connection points: 6
#     Node 14, Type 0, BuildingBlock: CUWYAW_clean_sbu_0, # of connection points: 6
#     Node 15, Type 0, BuildingBlock: CUWYAW_clean_sbu_0, # of connection points: 6
#     Edge 16, Type (0, 0), None
#     Edge 17, Type (0, 0), None
#     Edge 18, Type (0, 0), None
#     Edge 19, Type (0, 0), None
#     Edge 20, Type (0, 0), None
#     Edge 21, Type (0, 0), None
#     Edge 22, Type (0, 0), None
#     Edge 23, Type (0, 0), None
#     Edge 24, Type (0, 0), None
#     Edge 25, Type (0, 0), None
#     Edge 26, Type (0, 0), None
#     Edge 27, Type (0, 0), None
#     Edge 28, Type (0, 0), None
#     Edge 29, Type (0, 0), None
#     Edge 30, Type (0, 0), None
#     Edge 31, Type (0, 0), None
#     Edge 32, Type (0, 0), None
#     Edge 33, Type (0, 0), None
#     Edge 34, Type (0, 0), None
#     Edge 35, Type (0, 0), None
#     Edge 36, Type (0, 0), None
#     Edge 37, Type (0, 0), None
#     Edge 38, Type (0, 0), None
#     Edge 39, Type (0, 0), None
#     Edge 40, Type (0, 0), None
#     Edge 41, Type (0, 0), None
#     Edge 42, Type (0, 0), None
#     Edge 43, Type (0, 0), None
#     Edge 44, Type (0, 0), None
#     Edge 45, Type (0, 0), None
#     Edge 46, Type (0, 0), None
#     Edge 47, Type (0, 0), None
#     Edge 48, Type (0, 0), None
#     Edge 49, Type (0, 0), None
#     Edge 50, Type (0, 0), None
#     Edge 51, Type (0, 0), None
#     Edge 52, Type (0, 0), None
#     Edge 53, Type (0, 0), None
#     Edge 54, Type (0, 0), None
#     Edge 55, Type (0, 0), None
#     Edge 56, Type (0, 0), None
#     Edge 57, Type (0, 0), None
#     Edge 58, Type (0, 0), None
#     Edge 59, Type (0, 0), None
#     Edge 60, Type (0, 0), None
#     Edge 61, Type (0, 0), None
#     Edge 62, Type (0, 0), None
#     Edge 63, Type (0, 0), None
# Relax obj value: 0.363
# Max RMSD: 0.351
# Mean RMSD: 0.351
data_MOF--net-wiv--node1-CUWYAW_clean_sbu_0--edge1-none
_symmetry_space_group_name_H-M    P1
_symmetry_Int_Tables_number       1
_symmetry_cell_setting            triclinic
loop_
_symmetry_equiv_pos_as_xyz
'x, y, z'
_cell_length_a     19.786996
_cell_length_b     19.790267
_cell_length_c     14.94227
_cell_angle_alpha  90.055653
_cell_angle_beta   89.977071
_cell_angle_gamma 89.956637
loop_
_atom_site_label
_atom_site_type_symbol
_atom_site_fract_x
_atom_site_fract_y
_atom_site_fract_z
_atom_type_partial_charge
C0 C 0.27156 -0.01192 1.00492 0.0
Eu1 Eu 0.21452 -0.04852 0.15531 0.0
C2 C 0.24139 0.00355 0.91893 0.0
C3 C 0.26135 -0.033 0.84861 0.0
C4 C 0.21616 -0.04191 0.7812 0.0
C5 C 0.1416 -0.01364 0.77007 0.0
C6 C 0.13515 0.03419 0.84401 0.0
C7 C 0.18566 0.04597 0.90926 0.0
C8 C 0.20637 0.78104 0.22237 0.0
C9 C 0.10129 0.8743 1.00651 0.0
C10 C -0.01636 -0.09192 0.39016 0.0
Eu11 Eu 0.07881 -0.06235 0.28172 0.0
C12 C 0.00129 -0.06344 0.47566 0.0
C13 C -0.03162 -0.0756 0.5533 0.0
C14 C -0.00429 -0.0657 0.64098 0.0
C15 C 0.07372 -0.03548 0.64944 0.0
C16 C 0.10006 -0.05868 0.55863 0.0
C17 C 0.06639 -0.04719 0.47974 0.0
C18 C 0.09325 0.0877 0.24793 0.0
C19 C 0.22914 0.0483 0.37076 0.0
O20 O 0.25536 0.02912 1.06677 0.0
O21 O 0.27479 -0.07397 1.03455 0.0
O22 O 0.1753 0.83566 0.21103 0.0
O23 O 0.16865 0.84107 0.21164 0.0
O24 O 0.12882 0.87299 1.08662 0.0
O25 O 0.11751 0.87057 0.09822 0.0
O26 O 0.02964 0.86448 0.37009 0.0
O27 O -0.02736 -0.04908 0.32503 0.0
O28 O 0.03809 0.05066 0.25547 0.0
O29 O 0.14556 0.04856 0.25852 0.0
O30 O 0.1632 0.02107 0.38819 0.0
O31 O 0.24965 0.04297 0.28113 0.0
H32 H 0.30695 -0.06361 0.85142 0.0
H33 H 0.23484 -0.08446 0.74245 0.0
H34 H 0.1011 0.07607 0.84021 0.0
H35 H 0.18146 0.08906 0.95312 0.0
H36 H -0.07788 -0.0929 0.53776 0.0
H37 H -0.0367 -0.07496 0.69787 0.0
H38 H 0.09184 -0.03456 0.62088 0.0
H39 H 0.10171 -0.08017 0.51014 0.0
C40 C -0.09158 0.77925 0.78627 0.0
Eu41 Eu -0.06157 0.68444 0.89466 0.0
C42 C -0.06324 0.7614 0.70067 0.0
C43 C -0.07489 0.79447 0.62317 0.0
C44 C -0.06471 0.7672 0.53532 0.0
C45 C -0.03496 0.68882 0.52654 0.0
C46 C -0.05903 0.66292 0.61701 0.0
C47 C -0.04762 0.69625 0.6961 0.0
C48 C 0.08818 0.66946 0.92859 0.0
C49 C 0.04918 0.53454 0.80517 0.0
C50 C -0.01204 0.49046 0.1699 0.0
Eu51 Eu -0.04813 0.54867 1.0206 0.0
C52 C 0.00273 0.52156 0.25578 0.0
C53 C -0.03299 0.50127 0.32652 0.0
C54 C -0.04082 0.54586 0.39505 0.0
C55 C -0.01314 0.62065 0.40619 0.0
C56 C 0.03436 0.62718 0.33202 0.0
C57 C 0.04537 0.57712 0.26575 0.0
C58 C 0.78129 0.56144 0.95277 0.0
C59 C -0.1188 0.66011 0.17226 0.0
O60 O 0.86488 0.73334 0.80658 0.0
O61 O -0.04865 0.79046 0.85128 0.0
O62 O 0.05135 0.72487 0.9215 0.0
O63 O 0.04908 0.61736 0.91801 0.0
O64 O 0.02191 0.60042 0.78786 0.0
O65 O 0.04358 0.5141 0.89467 0.0
O66 O 0.02913 0.50692 0.10842 0.0
O67 O -0.07396 0.48681 0.13969 0.0
O68 O 0.83677 0.5909 0.96508 0.0
O69 O 0.84213 0.59697 0.96471 0.0
O70 O 0.87474 0.63298 0.09263 0.0
O71 O 0.87191 0.64551 1.08043 0.0
H72 H -0.09268 0.84048 0.63928 0.0
H73 H -0.07392 0.79958 0.47852 0.0
H74 H -0.03424 0.67079 0.55509 0.0
H75 H -0.08128 0.66182 0.66505 0.0
H76 H -0.06325 0.45549 0.32389 0.0
H77 H -0.08266 0.52633 0.43428 0.0
H78 H 0.07647 0.66091 0.33616 0.0
H79 H 0.08848 0.58116 0.22198 0.0
C80 C 0.48859 0.77209 1.00435 0.0
Eu81 Eu 0.54757 0.80634 0.15449 0.0
C82 C 0.5193 0.75851 0.91765 0.0
C83 C 0.49956 0.79614 0.84824 0.0
C84 C 0.54472 0.80586 0.78069 0.0
C85 C 0.61948 0.77799 0.76913 0.0
C86 C 0.62564 0.72887 0.84141 0.0
C87 C 0.57509 0.71617 0.90653 0.0
C88 C 0.55769 -0.02339 0.22345 0.0
C89 C 0.66113 -0.11649 1.0077 0.0
C90 C 0.78044 0.84757 0.38844 0.0
Eu91 Eu 0.68345 0.81655 0.28182 0.0
C92 C 0.76021 0.82904 0.47786 0.0
C93 C 0.79478 0.83905 0.55475 0.0
C94 C 0.76685 0.83058 0.64283 0.0
C95 C 0.68809 0.80208 0.65031 0.0
C96 C 0.66271 0.83075 0.56292 0.0
C97 C 0.69411 0.82118 0.48377 0.0
C98 C 0.66446 0.66674 0.24262 0.0
C99 C 0.53487 0.70957 0.37305 0.0
O100 O 0.50597 0.73029 1.06452 0.0
O101 O 0.48502 0.83351 1.03636 0.0
O102 O 0.58774 -0.07842 0.21165 0.0
O103 O 0.59466 -0.08409 0.21229 0.0
O104 O 0.63432 -0.1154 1.08804 0.0
O105 O 0.646 -0.11316 0.09969 0.0
O106 O 0.73794 -0.10841 0.35952 0.0
O107 O 0.78766 0.79821 0.33107 0.0
O108 O 0.7206 0.70246 0.25152 0.0
O109 O 0.61337 0.70721 0.25419 0.0
O110 O 0.60028 0.73737 0.39068 0.0
O111 O 0.51489 0.71388 0.28275 0.0
H112 H 0.45382 0.82641 0.85175 0.0
H113 H 0.52583 0.84868 0.74257 0.0
H114 H 0.65971 0.68721 0.83601 0.0
H115 H 0.57916 0.67221 0.94893 0.0
H116 H 0.84132 0.85463 0.53806 0.0
H117 H 0.79952 0.83803 0.69986 0.0
H118 H 0.66985 0.80254 0.62144 0.0
H119 H 0.6645 0.85942 0.51686 0.0
C120 C 0.85151 -0.01519 0.79024 0.0
Eu121 Eu 0.81997 0.08092 0.89767 0.0
C122 C 0.82753 0.0029 0.70255 0.0
C123 C 0.839 -0.03114 0.62529 0.0
C124 C 0.82875 -0.00389 0.5374 0.0
C125 C 0.79886 0.07444 0.52922 0.0
C126 C 0.8247 0.10057 0.61825 0.0
C127 C 0.8139 0.0684 0.69737 0.0
C128 C 0.67028 0.09559 0.93336 0.0
C129 C 0.70952 0.23232 0.81066 0.0
C130 C 0.77124 0.2728 0.1759 0.0
Eu131 Eu 0.80723 0.21652 1.02469 0.0
C132 C 0.75694 0.24232 0.2618 0.0
C133 C 0.79393 0.2624 0.33148 0.0
C134 C 0.80362 0.21721 0.39851 0.0
C135 C 0.77604 0.14238 0.4095 0.0
C136 C 0.72816 0.13544 0.33589 0.0
C137 C 0.71512 0.18626 0.27166 0.0
C138 C -0.02199 0.20659 0.9556 0.0
C139 C -0.11567 0.10308 0.17218 0.0
O140 O -0.10537 0.03006 0.81418 0.0
O141 O 0.80541 -0.02466 0.85173 0.0
O142 O 0.70736 0.04044 0.92506 0.0
O143 O 0.70922 0.14811 0.9228 0.0
O144 O 0.73646 0.16607 0.79231 0.0
O145 O 0.71526 0.25336 0.90023 0.0
O146 O 0.7298 0.25594 0.11492 0.0
O147 O 0.83304 0.27685 0.14516 0.0
O148 O -0.07722 0.17651 0.96725 0.0
O149 O -0.08269 0.17007 0.96667 0.0
O150 O -0.11402 0.13074 0.09223 0.0
O151 O -0.11179 0.11936 1.08062 0.0
H152 H 0.85614 -0.07753 0.64099 0.0
H153 H 0.83684 -0.03671 0.48053 0.0
H154 H 0.79846 0.09259 0.55768 0.0
H155 H 0.84934 0.10108 0.6655 0.0
H156 H 0.82415 0.30818 0.32839 0.0
H157 H 0.84623 0.23605 0.43694 0.0
H158 H 0.68685 0.10091 0.33993 0.0
H159 H 0.67149 0.18209 0.22873 0.0
C160 C 0.27295 0.27098 0.43161 0.0
Eu161 Eu 0.21794 0.2995 0.27597 0.0
C162 C 0.24401 0.26137 0.51996 0.0
C163 C 0.26671 0.29967 0.58716 0.0
C164 C 0.22289 0.31367 0.6551 0.0
C165 C 0.14696 0.29064 0.66808 0.0
C166 C 0.13772 0.23944 0.59871 0.0
C167 C 0.18717 0.22157 0.53479 0.0
C168 C 0.18902 0.46739 0.1876 0.0
C169 C 0.1099 0.38314 0.42066 0.0
C170 C -0.00831 0.35306 1.04487 0.0
Eu171 Eu 0.08206 0.30147 0.15238 0.0
C172 C 0.00845 0.35954 0.94963 0.0
C173 C -0.03028 0.34327 0.87792 0.0
C174 C -0.00383 0.33535 0.78956 0.0
C175 C 0.07825 0.32212 0.78283 0.0
C176 C 0.10301 0.36942 0.85942 0.0
C177 C 0.0686 0.38768 0.93492 0.0
C178 C 0.09399 0.15602 0.2001 0.0
C179 C 0.2402 0.1905 1.07501 0.0
O180 O 0.25195 0.22723 0.37592 0.0
O181 O 0.27814 0.33107 0.39484 0.0
O182 O 0.16667 0.40749 0.2005 0.0
O183 O 0.16419 0.40244 0.20112 0.0
O184 O 0.13566 0.37976 0.3398 0.0
O185 O 0.12693 0.37858 0.32941 0.0
O186 O 0.03476 0.38511 0.09226 0.0
O187 O -0.01641 0.29396 1.08062 0.0
O188 O 0.0386 0.19347 0.19112 0.0
O189 O 0.14857 0.19268 0.18568 0.0
O190 O 0.16889 0.20396 1.06227 0.0
O191 O 0.26619 0.20836 0.15915 0.0
H192 H 0.31346 0.32776 0.58073 0.0
H193 H 0.24396 0.35717 0.68961 0.0
H194 H 0.10168 0.20019 0.60707 0.0
H195 H 0.18165 0.17566 0.49643 0.0
H196 H -0.07983 0.34434 0.89567 0.0
H197 H -0.03838 0.3275 0.73491 0.0
H198 H 0.09648 0.33321 0.8106 0.0
H199 H 0.10591 0.40771 0.8898 0.0
C200 C 0.35351 0.76566 0.13195 0.0
Eu201 Eu 0.30196 0.67577 1.0236 0.0
C202 C 0.35967 0.74972 0.22733 0.0
C203 C 0.34318 0.78923 0.29855 0.0
C204 C 0.33539 0.76326 0.3873 0.0
C205 C 0.32262 0.68121 0.39487 0.0
C206 C 0.37025 0.65606 0.31876 0.0
C207 C 0.38818 0.68975 0.24272 0.0
C208 C 0.15617 0.66753 0.9765 0.0
C209 C 0.18736 0.51834 0.09972 0.0
C210 C 0.2682 0.48447 0.74487 0.0
Eu211 Eu 0.29658 0.53959 0.90087 0.0
C212 C 0.25974 0.51427 0.65657 0.0
C213 C 0.29947 0.49252 0.59015 0.0
C214 C 0.31416 0.53688 0.52309 0.0
C215 C 0.29099 0.61281 0.51003 0.0
C216 C 0.23934 0.62169 0.57902 0.0
C217 C 0.22048 0.57162 0.64177 0.0
C218 C 0.46524 0.55844 0.98437 0.0
C219 C 0.38741 0.64772 0.75952 0.0
O220 O 0.38542 0.72207 1.08495 0.0
O221 O 0.29442 0.77399 0.09632 0.0
O222 O 0.19482 0.72193 0.98532 0.0
O223 O 0.19132 0.61199 0.99107 0.0
O224 O 0.20138 0.5897 0.11255 0.0
O225 O 0.20428 0.49244 1.01538 0.0
O226 O 0.22421 0.50557 0.80019 0.0
O227 O 0.32803 0.47913 0.78227 0.0
O228 O 0.40645 0.5845 0.97635 0.0
O229 O 0.40126 0.58764 0.97631 0.0
O230 O 0.37947 0.62162 0.83982 0.0
O231 O 0.37902 0.63024 0.84991 0.0
H232 H 0.3447 0.83913 0.28065 0.0
H233 H 0.32768 0.79789 0.44192 0.0
H234 H 0.33414 0.66288 0.36752 0.0
H235 H 0.40839 0.65289 0.28826 0.0
H236 H 0.32791 0.44595 0.59664 0.0
H237 H 0.35825 0.51631 0.48925 0.0
H238 H 0.20032 0.65798 0.5709 0.0
H239 H 0.17433 0.57732 0.67958 0.0
C240 C 0.48458 0.49118 0.43076 0.0
Eu241 Eu 0.54185 0.45816 0.27866 0.0
C242 C 0.51564 0.5009 0.51766 0.0
C243 C 0.49443 0.4628 0.58573 0.0
C244 C 0.5384 0.45165 0.65415 0.0
C245 C 0.61405 0.47647 0.66555 0.0
C246 C 0.62272 0.52547 0.59374 0.0
C247 C 0.57254 0.54135 0.53008 0.0
C248 C 0.5597 0.28852 0.19843 0.0
C249 C 0.65234 0.3833 0.4261 0.0
C250 C 0.77605 0.41557 1.04442 0.0
Eu251 Eu 0.67791 0.4516 0.15142 0.0
C252 C 0.75669 0.41802 0.95005 0.0
C253 C 0.79453 0.42374 0.87527 0.0
C254 C 0.76576 0.43283 0.78761 0.0
C255 C 0.68339 0.44938 0.78156 0.0
C256 C 0.65953 0.40909 0.86222 0.0
C257 C 0.69256 0.40386 0.93954 0.0
C258 C 0.66263 0.59859 0.19298 0.0
C259 C 0.52059 0.55658 1.06696 0.0
O260 O 0.50602 0.53363 0.37389 0.0
O261 O 0.4783 0.43065 0.39565 0.0
O262 O 0.58735 0.34456 0.21563 0.0
O263 O 0.59327 0.35024 0.21587 0.0
O264 O 0.62619 0.37983 0.34567 0.0
O265 O 0.63784 0.37885 0.33399 0.0
O266 O 0.73692 0.37529 1.08672 0.0
O267 O 0.77811 0.47199 1.08872 0.0
O268 O 0.71814 0.56192 0.18475 0.0
O269 O 0.60917 0.55991 0.18077 0.0
O270 O 0.58896 0.53504 1.04825 0.0
O271 O 0.49846 0.54754 0.15554 0.0
H272 H 0.44806 0.43382 0.58088 0.0
H273 H 0.51741 0.40957 0.6917 0.0
H274 H 0.65866 0.56513 0.5998 0.0
H275 H 0.57769 0.58632 0.48988 0.0
H276 H 0.84371 0.41191 0.8901 0.0
H277 H 0.79921 0.43423 0.73074 0.0
H278 H 0.66557 0.44068 0.80939 0.0
H279 H 0.66722 0.36624 0.89879 0.0
C280 C 0.41188 -0.01477 0.13485 0.0
Eu281 Eu 0.45607 0.0792 1.02708 0.0
C282 C 0.40778 0.00378 0.22984 0.0
C283 C 0.4213 -0.03439 0.30266 0.0
C284 C 0.42863 -0.0065 0.39075 0.0
C285 C 0.44277 0.07569 0.39643 0.0
C286 C 0.39654 0.09912 0.3191 0.0
C287 C 0.37995 0.06395 0.24355 0.0
C288 C 0.60229 0.09544 0.9824 0.0
C289 C 0.56162 0.23521 0.11227 0.0
C290 C 0.48777 0.27224 0.74775 0.0
Eu291 Eu 0.4586 0.21539 0.90164 0.0
C292 C 0.49845 0.24309 0.65971 0.0
C293 C 0.46057 0.26515 0.59165 0.0
C294 C 0.44829 0.22125 0.52309 0.0
C295 C 0.47257 0.14551 0.51096 0.0
C296 C 0.52326 0.13736 0.58121 0.0
C297 C 0.53931 0.18691 0.64576 0.0
C298 C 0.2903 0.19106 0.98655 0.0
C299 C 0.37935 0.10559 0.75562 0.0
O300 O 0.37617 0.0255 1.08811 0.0
O301 O 0.47033 -0.01957 0.09614 0.0
O302 O 0.56618 0.03937 0.99096 0.0
O303 O 0.56387 0.1488 0.99566 0.0
O304 O 0.54411 0.16546 0.12709 0.0
O305 O 0.54965 0.2583 1.02464 0.0
O306 O 0.53157 0.2531 0.8046 0.0
O307 O 0.42737 0.27644 0.78362 0.0
O308 O 0.34832 0.16638 0.97107 0.0
O309 O 0.3538 0.16202 0.97079 0.0
O310 O 0.38044 0.13083 0.83672 0.0
O311 O 0.38075 0.12119 0.84752 0.0
H312 H 0.41419 -0.08408 0.28606 0.0
H313 H 0.43334 -0.04032 0.44678 0.0
H314 H 0.43327 0.09369 0.36803 0.0
H315 H 0.35806 0.10007 0.28906 0.0
H316 H 0.43201 0.31177 0.59725 0.0
H317 H 0.40545 0.24229 0.48692 0.0
H318 H 0.5636 0.10235 0.57352 0.0
H319 H 0.58477 0.18211 0.68517 0.0
C320 C 0.77359 0.48897 0.50439 0.0
Eu321 Eu 0.71515 0.45652 0.65565 0.0
C322 C 0.74296 0.50198 0.41733 0.0
C323 C 0.76388 0.46527 0.34745 0.0
C324 C 0.71908 0.45468 0.27945 0.0
C325 C 0.64312 0.47953 0.26859 0.0
C326 C 0.63617 0.52896 0.34077 0.0
C327 C 0.68636 0.543 0.40594 0.0
C328 C 0.70283 0.28633 0.72859 0.0
C329 C 0.6048 0.37693 0.5097 0.0
C330 C 0.4851 0.40842 0.89155 0.0
Eu331 Eu 0.57953 0.44705 0.78246 0.0
C332 C 0.5048 0.40945 0.98557 0.0
C333 C 0.46699 0.42277 1.058 0.0
C334 C 0.49378 0.42916 0.1468 0.0
C335 C 0.5744 0.45037 0.153 0.0
C336 C 0.60049 0.40832 1.07349 0.0
C337 C 0.5674 0.39012 0.99799 0.0
C338 C 0.59261 0.59397 0.74209 0.0
C339 C 0.72793 0.55773 0.86966 0.0
O340 O 0.75672 0.53153 0.56418 0.0
O341 O 0.77676 0.42776 0.53714 0.0
O342 O 0.67412 0.34279 0.71941 0.0
O343 O 0.6686 0.34819 0.72016 0.0
O344 O 0.63111 0.3765 0.59011 0.0
O345 O 0.62025 0.37493 0.60173 0.0
O346 O 0.52436 0.36935 0.84744 0.0
O347 O 0.48061 0.46558 0.84954 0.0
O348 O 0.53718 0.5572 0.74931 0.0
O349 O 0.64589 0.55668 0.75396 0.0
O350 O 0.66116 0.53298 0.88678 0.0
O351 O 0.74939 0.55053 0.7804 0.0
H352 H 0.81029 0.436 0.35097 0.0
H353 H 0.73939 0.41219 0.24186 0.0
H354 H 0.60171 0.57015 0.33525 0.0
H355 H 0.68166 0.58725 0.44771 0.0
H356 H 0.41845 0.42109 1.03792 0.0
H357 H 0.45864 0.43243 0.20169 0.0
H358 H 0.59264 0.44618 0.12075 0.0
H359 H 0.60151 0.36792 1.04585 0.0
C360 C 0.40577 0.27529 0.28756 0.0
Eu361 Eu 0.44009 0.17946 0.39521 0.0
C362 C 0.42126 0.25503 0.19676 0.0
C363 C 0.42066 0.29177 0.1208 0.0
C364 C 0.43042 0.26363 1.03325 0.0
C365 C 0.45562 0.18313 1.02705 0.0
C366 C 0.42134 0.15767 0.11076 0.0
C367 C 0.42356 0.189 0.18923 0.0
C368 C 0.58909 0.16663 0.43051 0.0
C369 C 0.5511 0.03092 0.30564 0.0
C370 C 0.48956 -0.01323 0.67274 0.0
Eu371 Eu 0.45399 0.04426 0.52237 0.0
C372 C 0.50273 0.01713 0.75936 0.0
C373 C 0.46717 -0.0048 0.82942 0.0
C374 C 0.45765 0.03904 0.89845 0.0
C375 C 0.48249 0.1148 0.90973 0.0
C376 C 0.53055 0.12305 0.83651 0.0
C377 C 0.54385 0.0736 0.77051 0.0
C378 C 0.28296 0.05478 0.45327 0.0
C379 C 0.37999 0.15392 0.67223 0.0
O380 O 0.36369 0.23243 0.32014 0.0
O381 O 0.45672 0.28309 0.34198 0.0
O382 O 0.55168 0.22156 0.42315 0.0
O383 O 0.55116 0.1135 0.42013 0.0
O384 O 0.52318 0.09653 0.28764 0.0
O385 O 0.54614 0.01056 0.39552 0.0
O386 O 0.53095 0.00547 0.61276 0.0
O387 O 0.42815 -0.01846 0.64095 0.0
O388 O 0.33843 0.08452 0.46495 0.0
O389 O 0.34376 0.09082 0.46447 0.0
O390 O 0.37558 0.12817 0.59187 0.0
O391 O 0.37241 0.14032 0.57979 0.0
H392 H 0.40946 0.34009 0.13684 0.0
H393 H 0.42735 0.29748 0.97678 0.0
H394 H 0.45163 0.16512 1.05539 0.0
H395 H 0.38465 0.16144 0.15336 0.0
H396 H 0.43798 -0.05119 0.82562 0.0
H397 H 0.41597 0.01808 0.93676 0.0
H398 H 0.57142 0.15802 0.84144 0.0
H399 H 0.58741 0.07886 0.7277 0.0
C400 C -0.01282 0.27398 0.50743 0.0
Eu401 Eu 0.04578 0.30961 0.65704 0.0
C402 C 0.01836 0.26002 0.42118 0.0
C403 C -0.00206 0.29582 0.35046 0.0
C404 C 0.04222 0.30328 0.28128 0.0
C405 C 0.11725 0.27606 0.27019 0.0
C406 C 0.12366 0.2284 0.34427 0.0
C407 C 0.07385 0.21738 0.41072 0.0
C408 C 0.05672 0.48087 0.72271 0.0
C409 C 0.15681 0.38011 0.50561 0.0
C410 C 0.27755 0.35369 0.89069 0.0
Eu411 Eu 0.1819 0.32376 0.78304 0.0
C412 C 0.25902 0.32779 0.97732 0.0
C413 C 0.29326 0.33748 1.05447 0.0
C414 C 0.26491 0.32745 0.1424 0.0
C415 C 0.18582 0.29894 0.15048 0.0
C416 C 0.16049 0.32581 1.06167 0.0
C417 C 0.19316 0.31563 0.98252 0.0
C418 C 0.16751 0.17414 0.74947 0.0
C419 C 0.03224 0.21337 0.87332 0.0
O420 O 0.00424 0.23256 0.56829 0.0
O421 O -0.01685 0.33561 0.53861 0.0
O422 O 0.08641 0.42531 0.71175 0.0
O423 O 0.09309 0.42008 0.71243 0.0
O424 O 0.1302 0.38673 0.58538 0.0
O425 O 0.14329 0.39048 0.5978 0.0
O426 O 0.23256 0.39765 0.86832 0.0
O427 O 0.28765 0.30906 0.82742 0.0
O428 O 0.22271 0.21108 0.75658 0.0
O429 O 0.11511 0.21306 0.76015 0.0
O430 O 0.09789 0.24136 0.89071 0.0
O431 O 0.01198 0.21803 0.78355 0.0
H432 H -0.04786 0.32611 0.35334 0.0
H433 H 0.02229 0.34489 0.24198 0.0
H434 H 0.15721 0.1861 0.34015 0.0
H435 H 0.07799 0.17416 0.45425 0.0
H436 H 0.34056 0.35538 1.03801 0.0
H437 H 0.29755 0.33492 0.19946 0.0
H438 H 0.16781 0.29926 0.12205 0.0
H439 H 0.1609 0.35142 1.01473 0.0
C440 C 0.3527 0.48256 0.28726 0.0
Eu441 Eu 0.32407 0.57767 0.39527 0.0
C442 C 0.32428 0.50084 0.20187 0.0
C443 C 0.33273 0.4661 0.12501 0.0
C444 C 0.32229 0.493 1.03638 0.0
C445 C 0.29651 0.57257 1.02644 0.0
C446 C 0.32327 0.59824 0.11595 0.0
C447 C 0.31183 0.56655 0.19582 0.0
C448 C 0.17428 0.59293 0.42806 0.0
C449 C 0.21347 0.727 0.30438 0.0
C450 C 0.2734 0.77239 0.66963 0.0
Eu451 Eu 0.30959 0.71415 0.52046 0.0
C452 C 0.25997 0.74 0.75516 0.0
C453 C 0.29616 0.75979 0.82567 0.0
C454 C 0.30305 0.71554 0.8947 0.0
C455 C 0.27512 0.64078 0.90597 0.0
C456 C 0.22751 0.63469 0.83188 0.0
C457 C 0.2169 0.68476 0.76544 0.0
C458 C 0.48082 0.70309 0.45563 0.0
C459 C 0.3762 0.60382 0.67296 0.0
O460 O 0.39712 0.52769 0.30747 0.0
O461 O 0.30996 0.47159 0.35256 0.0
O462 O 0.21106 0.53748 0.42151 0.0
O463 O 0.21351 0.64487 0.41767 0.0
O464 O 0.24169 0.66147 0.28731 0.0
O465 O 0.21811 0.74738 0.39403 0.0
O466 O 0.23205 0.75582 0.60843 0.0
O467 O 0.33503 0.77717 0.6386 0.0
O468 O 0.42541 0.67315 0.46702 0.0
O469 O 0.42022 0.66653 0.46645 0.0
O470 O 0.38631 0.63063 0.5941 0.0
O471 O 0.39075 0.61595 0.58116 0.0
H472 H 0.35179 0.41999 0.14184 0.0
H473 H 0.32871 0.46001 0.97959 0.0
H474 H 0.29737 0.59084 1.05524 0.0
H475 H 0.34739 0.59881 0.16363 0.0
H476 H 0.32663 0.80545 0.82314 0.0
H477 H 0.34466 0.73547 0.93418 0.0
H478 H 0.18504 0.60147 0.83637 0.0
H479 H 0.17347 0.68119 0.72214 0.0
C480 C 0.77653 0.76928 0.92922 0.0
Eu481 Eu 0.72032 0.80014 0.77569 0.0
C482 C 0.74629 0.75944 1.01676 0.0
C483 C 0.76876 0.7965 1.08525 0.0
C484 C 0.72523 0.80829 0.15421 0.0
C485 C 0.64884 0.78579 0.16564 0.0
C486 C 0.63954 0.73646 0.09403 0.0
C487 C 0.68915 0.7197 1.02993 0.0
C488 C 0.6923 -0.03159 0.69034 0.0
C489 C 0.61389 0.87641 0.92398 0.0
C490 C 0.49344 0.85211 0.54221 0.0
Eu491 Eu 0.58421 0.8044 0.65181 0.0
C492 C 0.51027 0.8554 0.44692 0.0
C493 C 0.4712 0.8387 0.37594 0.0
C494 C 0.49769 0.83088 0.28734 0.0
C495 C 0.58008 0.81708 0.2804 0.0
C496 C 0.60525 0.86391 0.35703 0.0
C497 C 0.57034 -0.11692 0.43127 0.0
C498 C 0.59397 0.66047 0.69441 0.0
C499 C 0.74434 0.69404 0.57508 0.0
O500 O 0.75546 0.72608 0.87272 0.0
O501 O 0.78193 0.8298 0.89371 0.0
O502 O 0.66871 -0.09067 0.70395 0.0
O503 O 0.66598 -0.09573 0.70461 0.0
O504 O 0.63982 0.87994 0.84342 0.0
O505 O 0.62966 0.8789 0.8322 0.0
O506 O 0.53649 -0.11428 0.58773 0.0
O507 O 0.48548 0.79399 0.58077 0.0
O508 O 0.53894 0.69815 0.68729 0.0
O509 O 0.64944 0.69585 0.68149 0.0
O510 O 0.67305 0.70779 0.56135 0.0
O511 O 0.77005 0.71145 0.6591 0.0
H512 H 0.81538 0.82497 1.07994 0.0
H513 H 0.74689 0.8507 0.19078 0.0
H514 H 0.60351 0.69698 0.1002 0.0
H515 H 0.68349 0.6745 0.99027 0.0
H516 H 0.42121 0.84362 0.3935 0.0
H517 H 0.46339 0.82497 0.2321 0.0
H518 H 0.59798 0.82869 0.30726 0.0
H519 H 0.60894 -0.09751 0.3874 0.0
C520 C 0.84901 0.26972 0.63576 0.0
Eu521 Eu 0.8004 0.17821 0.52719 0.0
C522 C 0.8556 0.2534 0.7309 0.0
C523 C 0.84017 0.29271 0.80231 0.0
C524 C 0.83239 0.26653 0.89136 0.0
C525 C 0.81834 0.18445 0.89852 0.0
C526 C 0.86502 0.15946 0.82123 0.0
C527 C -0.11632 0.19348 0.74587 0.0
C528 C 0.65619 0.16647 0.47939 0.0
C529 C 0.69069 0.01833 0.60253 0.0
C530 C 0.7705 -0.01357 0.2487 0.0
Eu531 Eu 0.79916 0.04177 0.4038 0.0
C532 C 0.76057 0.01694 0.16125 0.0
C533 C 0.79835 -0.00498 0.09309 0.0
C534 C 0.81106 0.03927 1.02525 0.0
C535 C 0.78754 0.1153 1.01337 0.0
C536 C 0.73695 0.12356 1.08378 0.0
C537 C 0.72024 0.0736 0.14765 0.0
C538 C -0.03331 0.07216 0.49102 0.0
C539 C 0.8763 0.14924 0.25713 0.0
O540 O -0.11732 0.22779 0.58834 0.0
O541 O 0.78948 0.27551 0.60049 0.0
O542 O 0.69337 0.22194 0.4875 0.0
O543 O 0.69246 0.11171 0.49411 0.0
O544 O 0.70279 0.08991 0.61528 0.0
O545 O 0.70958 -0.00801 0.51922 0.0
O546 O 0.72626 0.00498 0.30553 0.0
O547 O 0.83089 -0.0177 0.2848 0.0
O548 O -0.09324 0.09442 0.47838 0.0
O549 O -0.09825 0.09683 0.47774 0.0
O550 O 0.87929 0.12253 0.33743 0.0
O551 O 0.87768 0.13255 0.34867 0.0
H552 H 0.84402 0.34232 0.78316 0.0
H553 H 0.82467 0.30138 0.94599 0.0
H554 H 0.82898 0.16627 0.87028 0.0
H555 H -0.09613 0.15649 0.79129 0.0
H556 H 0.82666 -0.0518 0.09815 0.0
H557 H 0.85446 0.01849 0.98986 0.0
H558 H 0.69678 0.15885 1.07642 0.0
H559 H 0.67438 0.07823 0.18626 0.0
C560 C -0.0145 -0.009 0.93032 0.0
Eu561 Eu 0.04098 -0.0366 0.77487 0.0
C562 C 0.01603 -0.0007 1.01813 0.0
C563 C -0.0063 -0.03888 1.08554 0.0
C564 C 0.03748 -0.05209 0.15385 0.0
C565 C 0.11341 -0.02905 0.16659 0.0
C566 C 0.12231 0.02187 0.09693 0.0
C567 C 0.07274 0.0393 1.03294 0.0
C568 C 0.07201 0.79601 0.68605 0.0
C569 C 0.14699 -0.11382 0.92172 0.0
C570 C 0.26751 -0.09031 0.54443 0.0
Eu571 Eu 0.17728 -0.0381 0.65235 0.0
C572 C 0.25147 -0.09745 0.44899 0.0
C573 C 0.29098 -0.08264 0.37713 0.0
C574 C 0.26443 -0.07437 0.28846 0.0
C575 C 0.18236 -0.06051 0.28139 0.0
C576 C 0.15753 -0.10754 0.35823 0.0
C577 C 0.19136 0.87432 0.43412 0.0
C578 C 0.16661 0.10637 0.70115 0.0
C579 C 0.01665 0.07332 0.57908 0.0
O580 O 0.00577 0.0354 0.87503 0.0
O581 O -0.01971 -0.0688 0.89261 0.0
O582 O 0.0939 0.85625 0.69867 0.0
O583 O 0.09594 0.86112 0.69947 0.0
O584 O 0.12065 -0.1173 0.84128 0.0
O585 O 0.13064 -0.11547 0.8299 0.0
O586 O 0.22425 0.8778 0.59189 0.0
O587 O 0.2752 -0.03092 0.5796 0.0
O588 O 0.22183 0.06864 0.6926 0.0
O589 O 0.11159 0.07043 0.68592 0.0
O590 O 0.08854 0.06201 0.56675 0.0
O591 O -0.00978 0.05325 0.66158 0.0
H592 H -0.05321 -0.06678 1.07964 0.0
H593 H 0.0165 -0.09556 0.18841 0.0
H594 H 0.1579 0.06158 0.10522 0.0
H595 H 0.07766 0.08553 0.99526 0.0
H596 H 0.34099 -0.08716 0.39468 0.0
H597 H 0.29888 -0.06737 0.23346 0.0
H598 H 0.16413 -0.07126 0.30958 0.0
H599 H 0.1549 0.85378 0.38826 0.0
C600 C -0.08895 0.49433 0.63176 0.0
Eu601 Eu -0.03842 0.58535 0.52401 0.0
C602 C -0.09553 0.51088 0.72702 0.0
C603 C -0.08042 0.47179 0.79905 0.0
C604 C -0.07393 0.49871 0.88784 0.0
C605 C -0.05984 0.58068 0.89464 0.0
C606 C -0.10624 0.60534 0.81752 0.0
C607 C 0.87645 0.57115 0.74144 0.0
C608 C 0.10633 0.59492 0.47579 0.0
C609 C 0.07355 0.74558 0.5979 0.0
C610 C -0.00829 0.77739 0.24589 0.0
Eu611 Eu -0.03622 0.72138 0.40114 0.0
C612 C 0.00053 0.74761 0.15752 0.0
C613 C -0.03845 0.76957 0.09054 0.0
C614 C -0.05217 0.72553 1.02261 0.0
C615 C -0.02873 0.64969 1.00968 0.0
C616 C 0.02233 0.64078 1.07925 0.0
C617 C 0.04032 0.69064 0.14266 0.0
C618 C 0.79553 0.693 0.48793 0.0
C619 C 0.87973 0.61352 0.25736 0.0
O620 O 0.87829 0.53688 0.58426 0.0
O621 O -0.02963 0.4874 0.59625 0.0
O622 O 0.0683 0.54012 0.48472 0.0
O623 O 0.07085 0.65045 0.49043 0.0
O624 O 0.06191 0.67376 0.61032 0.0
O625 O 0.0541 0.77173 0.51493 0.0
O626 O 0.03586 0.7564 0.30102 0.0
O627 O -0.06823 0.78217 0.28331 0.0
O628 O 0.856 0.67111 0.47772 0.0
O629 O 0.86093 0.66865 0.4774 0.0
O630 O -0.11752 0.6399 0.33801 0.0
O631 O -0.11602 0.63096 0.34837 0.0
H632 H -0.08439 0.42151 0.78199 0.0
H633 H -0.06794 0.46443 0.9432 0.0
H634 H -0.06992 0.59898 0.86659 0.0
H635 H 0.85629 0.60843 0.78646 0.0
H636 H -0.06693 0.81609 0.09696 0.0
H637 H -0.09601 0.74609 0.98829 0.0
H638 H 0.06159 0.60465 1.07133 0.0
H639 H 0.08638 0.68525 0.18065 0.0
loop_
_geom_bond_atom_site_label_1
_geom_bond_atom_site_label_2
_geom_bond_distance
_geom_bond_site_symmetry_2
_ccdc_geom_bond_type
C0 Eu1 2.835 1_556 S
C0 C2 1.500 . S
C0 O20 1.257 . S
C0 O21 1.260 1_545 S
Eu1 C0 2.835 1_554 S
Eu1 O20 2.473 1_554 S
Eu1 O21 2.480 1_544 S
Eu1 O22 2.430 1_545 S
Eu1 O23 2.670 1_545 S
Eu1 O24 2.394 1_545 S
Eu1 O29 2.355 . S
Eu1 O31 2.374 . S
C2 C0 1.500 . S
C2 C3 1.377 1_545 S
C2 C7 1.377 . S
C3 C2 1.377 1_565 S
C3 C4 1.395 . S
C3 H32 0.931 . S
C4 C3 1.395 . S
C4 C5 1.383 1_565 S
C4 H33 0.931 . S
C5 C4 1.383 1_545 S
C5 C6 1.394 . S
C6 C5 1.394 . S
C6 C7 1.378 . S
C6 H34 0.931 . S
C7 C2 1.377 . S
C7 C6 1.378 . S
C7 H35 0.931 . S
C8 O22 1.259 . S
C8 O23 1.270 . S
C9 O24 1.251 . S
C9 O25 1.251 . S
C10 Eu11 2.835 . S
C10 C12 1.500 . S
C10 O26 1.257 1_545 S
C10 O27 1.260 . S
Eu11 C10 2.835 . S
Eu11 O23 2.355 1_545 S
Eu11 O25 2.374 1_545 S
Eu11 O26 2.473 1_545 S
Eu11 O27 2.480 . S
Eu11 O28 2.430 . S
Eu11 O29 2.670 . S
Eu11 O30 2.394 . S
C12 C10 1.500 . S
C12 C13 1.377 . S
C12 C17 1.377 1_545 S
C13 C12 1.377 . S
C13 C14 1.395 . S
C13 H36 0.931 . S
C14 C13 1.395 . S
C14 C15 1.383 . S
C14 H37 0.931 . S
C15 C14 1.383 . S
C15 C16 1.394 1_545 S
C16 C15 1.394 1_565 S
C16 C17 1.378 . S
C16 H38 0.931 . S
C17 C12 1.377 1_565 S
C17 C16 1.378 . S
C17 H39 0.931 . S
C18 O28 1.259 . S
C18 O29 1.270 . S
C19 O30 1.251 . S
C19 O31 1.251 . S
O20 C0 1.257 . S
O20 Eu1 2.473 1_556 S
O21 C0 1.260 1_565 S
O21 Eu1 2.480 1_566 S
O22 Eu1 2.430 1_565 S
O22 C8 1.259 . S
O23 Eu1 2.670 1_565 S
O23 C8 1.270 . S
O23 Eu11 2.355 1_565 S
O24 Eu1 2.394 1_565 S
O24 C9 1.251 . S
O25 C9 1.251 . S
O25 Eu11 2.374 1_565 S
O26 C10 1.257 1_565 S
O26 Eu11 2.473 1_565 S
O27 C10 1.260 . S
O27 Eu11 2.480 . S
O28 Eu11 2.430 . S
O28 C18 1.259 . S
O29 Eu1 2.355 . S
O29 Eu11 2.670 . S
O29 C18 1.270 . S
O30 Eu11 2.394 . S
O30 C19 1.251 . S
O31 Eu1 2.374 . S
O31 C19 1.251 . S
H32 C3 0.931 . S
H33 C4 0.931 . S
H34 C6 0.931 . S
H35 C7 0.931 . S
H36 C13 0.931 . S
H37 C14 0.931 . S
H38 C16 0.931 . S
H39 C17 0.931 . S
C40 Eu41 2.835 . S
C40 C42 1.500 . S
C40 O60 1.257 1_455 S
C40 O61 1.260 . S
Eu41 C40 2.835 . S
Eu41 O60 2.473 1_455 S
Eu41 O61 2.480 . S
Eu41 O62 2.430 . S
Eu41 O63 2.670 . S
Eu41 O64 2.394 . S
Eu41 O69 2.355 1_455 S
Eu41 O71 2.374 1_455 S
C42 C40 1.500 . S
C42 C43 1.377 . S
C42 C47 1.377 1_455 S
C43 C42 1.377 . S
C43 C44 1.395 . S
C43 H72 0.931 . S
C44 C43 1.395 . S
C44 C45 1.383 . S
C44 H73 0.931 . S
C45 C44 1.383 . S
C45 C46 1.394 1_455 S
C46 C45 1.394 1_655 S
C46 C47 1.378 . S
C46 H74 0.931 . S
C47 C42 1.377 1_655 S
C47 C46 1.378 . S
C47 H75 0.931 . S
C48 O62 1.259 . S
C48 O63 1.270 . S
C49 O64 1.251 . S
C49 O65 1.251 . S
C50 Eu51 2.835 1_554 S
C50 C52 1.500 . S
C50 O66 1.257 . S
C50 O67 1.260 1_455 S
Eu51 C50 2.835 1_556 S
Eu51 O63 2.355 . S
Eu51 O65 2.374 . S
Eu51 O66 2.473 1_556 S
Eu51 O67 2.480 1_456 S
Eu51 O68 2.430 1_455 S
Eu51 O69 2.670 1_455 S
Eu51 O70 2.394 1_455 S
C52 C50 1.500 . S
C52 C53 1.377 1_455 S
C52 C57 1.377 . S
C53 C52 1.377 1_655 S
C53 C54 1.395 . S
C53 H76 0.931 . S
C54 C53 1.395 . S
C54 C55 1.383 1_655 S
C54 H77 0.931 . S
C55 C54 1.383 1_455 S
C55 C56 1.394 . S
C56 C55 1.394 . S
C56 C57 1.378 . S
C56 H78 0.931 . S
C57 C52 1.377 . S
C57 C56 1.378 . S
C57 H79 0.931 . S
C58 O68 1.259 . S
C58 O69 1.270 . S
C59 O70 1.251 . S
C59 O71 1.251 . S
O60 C40 1.257 1_655 S
O60 Eu41 2.473 1_655 S
O61 C40 1.260 . S
O61 Eu41 2.480 . S
O62 Eu41 2.430 . S
O62 C48 1.259 . S
O63 Eu41 2.670 . S
O63 C48 1.270 . S
O63 Eu51 2.355 . S
O64 Eu41 2.394 . S
O64 C49 1.251 . S
O65 C49 1.251 . S
O65 Eu51 2.374 . S
O66 C50 1.257 . S
O66 Eu51 2.473 1_554 S
O67 C50 1.260 1_655 S
O67 Eu51 2.480 1_654 S
O68 Eu51 2.430 1_655 S
O68 C58 1.259 . S
O69 Eu41 2.355 1_655 S
O69 Eu51 2.670 1_655 S
O69 C58 1.270 . S
O70 Eu51 2.394 1_655 S
O70 C59 1.251 . S
O71 Eu41 2.374 1_655 S
O71 C59 1.251 . S
H72 C43 0.931 . S
H73 C44 0.931 . S
H74 C46 0.931 . S
H75 C47 0.931 . S
H76 C53 0.931 . S
H77 C54 0.931 . S
H78 C56 0.931 . S
H79 C57 0.931 . S
C80 Eu81 2.835 1_556 S
C80 C82 1.500 . S
C80 O100 1.257 . S
C80 O101 1.260 1_565 S
Eu81 C80 2.835 1_554 S
Eu81 O100 2.473 1_554 S
Eu81 O101 2.480 1_564 S
Eu81 O102 2.430 1_565 S
Eu81 O103 2.670 1_565 S
Eu81 O104 2.394 1_565 S
Eu81 O109 2.355 . S
Eu81 O111 2.374 . S
C82 C80 1.500 . S
C82 C83 1.377 1_565 S
C82 C87 1.377 . S
C83 C82 1.377 1_545 S
C83 C84 1.395 . S
C83 H112 0.931 . S
C84 C83 1.395 . S
C84 C85 1.383 1_545 S
C84 H113 0.931 . S
C85 C84 1.383 1_565 S
C85 C86 1.394 . S
C86 C85 1.394 . S
C86 C87 1.378 . S
C86 H114 0.931 . S
C87 C82 1.377 . S
C87 C86 1.378 . S
C87 H115 0.931 . S
C88 O102 1.259 . S
C88 O103 1.270 . S
C89 O104 1.251 . S
C89 O105 1.251 . S
C90 Eu91 2.835 . S
C90 C92 1.500 . S
C90 O106 1.257 1_565 S
C90 O107 1.260 . S
Eu91 C90 2.835 . S
Eu91 O103 2.355 1_565 S
Eu91 O105 2.374 1_565 S
Eu91 O106 2.473 1_565 S
Eu91 O107 2.480 . S
Eu91 O108 2.430 . S
Eu91 O109 2.670 . S
Eu91 O110 2.394 . S
C92 C90 1.500 . S
C92 C93 1.377 . S
C92 C97 1.377 1_565 S
C93 C92 1.377 . S
C93 C94 1.395 . S
C93 H116 0.931 . S
C94 C93 1.395 . S
C94 C95 1.383 . S
C94 H117 0.931 . S
C95 C94 1.383 . S
C95 C96 1.394 1_565 S
C96 C95 1.394 1_545 S
C96 C97 1.378 . S
C96 H118 0.931 . S
C97 C92 1.377 1_545 S
C97 C96 1.378 . S
C97 H119 0.931 . S
C98 O108 1.259 . S
C98 O109 1.270 . S
C99 O110 1.251 . S
C99 O111 1.251 . S
O100 C80 1.257 . S
O100 Eu81 2.473 1_556 S
O101 C80 1.260 1_545 S
O101 Eu81 2.480 1_546 S
O102 Eu81 2.430 1_545 S
O102 C88 1.259 . S
O103 Eu81 2.670 1_545 S
O103 C88 1.270 . S
O103 Eu91 2.355 1_545 S
O104 Eu81 2.394 1_545 S
O104 C89 1.251 . S
O105 C89 1.251 . S
O105 Eu91 2.374 1_545 S
O106 C90 1.257 1_545 S
O106 Eu91 2.473 1_545 S
O107 C90 1.260 . S
O107 Eu91 2.480 . S
O108 Eu91 2.430 . S
O108 C98 1.259 . S
O109 Eu81 2.355 . S
O109 Eu91 2.670 . S
O109 C98 1.270 . S
O110 Eu91 2.394 . S
O110 C99 1.251 . S
O111 Eu81 2.374 . S
O111 C99 1.251 . S
H112 C83 0.931 . S
H113 C84 0.931 . S
H114 C86 0.931 . S
H115 C87 0.931 . S
H116 C93 0.931 . S
H117 C94 0.931 . S
H118 C96 0.931 . S
H119 C97 0.931 . S
C120 Eu121 2.835 . S
C120 C122 1.500 . S
C120 O140 1.257 1_655 S
C120 O141 1.260 . S
Eu121 C120 2.835 . S
Eu121 O140 2.473 1_655 S
Eu121 O141 2.480 . S
Eu121 O142 2.430 . S
Eu121 O143 2.670 . S
Eu121 O144 2.394 . S
Eu121 O149 2.355 1_655 S
Eu121 O151 2.374 1_655 S
C122 C120 1.500 . S
C122 C123 1.377 . S
C122 C127 1.377 1_655 S
C123 C122 1.377 . S
C123 C124 1.395 . S
C123 H152 0.931 . S
C124 C123 1.395 . S
C124 C125 1.383 . S
C124 H153 0.931 . S
C125 C124 1.383 . S
C125 C126 1.394 1_655 S
C126 C125 1.394 1_455 S
C126 C127 1.378 . S
C126 H154 0.931 . S
C127 C122 1.377 1_455 S
C127 C126 1.378 . S
C127 H155 0.931 . S
C128 O142 1.259 . S
C128 O143 1.270 . S
C129 O144 1.251 . S
C129 O145 1.251 . S
C130 Eu131 2.835 1_554 S
C130 C132 1.500 . S
C130 O146 1.257 . S
C130 O147 1.260 1_655 S
Eu131 C130 2.835 1_556 S
Eu131 O143 2.355 . S
Eu131 O145 2.374 . S
Eu131 O146 2.473 1_556 S
Eu131 O147 2.480 1_656 S
Eu131 O148 2.430 1_655 S
Eu131 O149 2.670 1_655 S
Eu131 O150 2.394 1_655 S
C132 C130 1.500 . S
C132 C133 1.377 1_655 S
C132 C137 1.377 . S
C133 C132 1.377 1_455 S
C133 C134 1.395 . S
C133 H156 0.931 . S
C134 C133 1.395 . S
C134 C135 1.383 1_455 S
C134 H157 0.931 . S
C135 C134 1.383 1_655 S
C135 C136 1.394 . S
C136 C135 1.394 . S
C136 C137 1.378 . S
C136 H158 0.931 . S
C137 C132 1.377 . S
C137 C136 1.378 . S
C137 H159 0.931 . S
C138 O148 1.259 . S
C138 O149 1.270 . S
C139 O150 1.251 . S
C139 O151 1.251 . S
O140 C120 1.257 1_455 S
O140 Eu121 2.473 1_455 S
O141 C120 1.260 . S
O141 Eu121 2.480 . S
O142 Eu121 2.430 . S
O142 C128 1.259 . S
O143 Eu121 2.670 . S
O143 C128 1.270 . S
O143 Eu131 2.355 . S
O144 Eu121 2.394 . S
O144 C129 1.251 . S
O145 C129 1.251 . S
O145 Eu131 2.374 . S
O146 C130 1.257 . S
O146 Eu131 2.473 1_554 S
O147 C130 1.260 1_455 S
O147 Eu131 2.480 1_454 S
O148 Eu131 2.430 1_455 S
O148 C138 1.259 . S
O149 Eu121 2.355 1_455 S
O149 Eu131 2.670 1_455 S
O149 C138 1.270 . S
O150 Eu131 2.394 1_455 S
O150 C139 1.251 . S
O151 Eu121 2.374 1_455 S
O151 C139 1.251 . S
H152 C123 0.931 . S
H153 C124 0.931 . S
H154 C126 0.931 . S
H155 C127 0.931 . S
H156 C133 0.931 . S
H157 C134 0.931 . S
H158 C136 0.931 . S
H159 C137 0.931 . S
C160 Eu161 2.835 . S
C160 C162 1.500 . S
C160 O180 1.257 . S
C160 O181 1.260 . S
Eu161 C160 2.835 . S
Eu161 O180 2.473 . S
Eu161 O181 2.480 . S
Eu161 O182 2.430 . S
Eu161 O183 2.670 . S
Eu161 O184 2.394 . S
Eu161 O189 2.355 . S
Eu161 O191 2.374 . S
C162 C160 1.500 . S
C162 C163 1.377 . S
C162 C167 1.377 . S
C163 C162 1.377 . S
C163 C164 1.395 . S
C163 H192 0.931 . S
C164 C163 1.395 . S
C164 C165 1.383 . S
C164 H193 0.931 . S
C165 C164 1.383 . S
C165 C166 1.394 . S
C166 C165 1.394 . S
C166 C167 1.378 . S
C166 H194 0.931 . S
C167 C162 1.377 . S
C167 C166 1.378 . S
C167 H195 0.931 . S
C168 O182 1.259 . S
C168 O183 1.270 . S
C169 O184 1.251 . S
C169 O185 1.251 . S
C170 Eu171 2.835 1_556 S
C170 C172 1.500 . S
C170 O186 1.257 . S
C170 O187 1.260 . S
Eu171 C170 2.835 1_554 S
Eu171 O183 2.355 . S
Eu171 O185 2.374 . S
Eu171 O186 2.473 1_554 S
Eu171 O187 2.480 1_554 S
Eu171 O188 2.430 . S
Eu171 O189 2.670 . S
Eu171 O190 2.394 . S
C172 C170 1.500 . S
C172 C173 1.377 . S
C172 C177 1.377 . S
C173 C172 1.377 . S
C173 C174 1.395 . S
C173 H196 0.931 . S
C174 C173 1.395 . S
C174 C175 1.383 . S
C174 H197 0.931 . S
C175 C174 1.383 . S
C175 C176 1.394 . S
C176 C175 1.394 . S
C176 C177 1.378 . S
C176 H198 0.931 . S
C177 C172 1.377 . S
C177 C176 1.378 . S
C177 H199 0.931 . S
C178 O188 1.259 . S
C178 O189 1.270 . S
C179 O190 1.251 . S
C179 O191 1.251 . S
O180 C160 1.257 . S
O180 Eu161 2.473 . S
O181 C160 1.260 . S
O181 Eu161 2.480 . S
O182 Eu161 2.430 . S
O182 C168 1.259 . S
O183 Eu161 2.670 . S
O183 C168 1.270 . S
O183 Eu171 2.355 . S
O184 Eu161 2.394 . S
O184 C169 1.251 . S
O185 C169 1.251 . S
O185 Eu171 2.374 . S
O186 C170 1.257 . S
O186 Eu171 2.473 1_556 S
O187 C170 1.260 . S
O187 Eu171 2.480 1_556 S
O188 Eu171 2.430 . S
O188 C178 1.259 . S
O189 Eu161 2.355 . S
O189 Eu171 2.670 . S
O189 C178 1.270 . S
O190 Eu171 2.394 . S
O190 C179 1.251 . S
O191 Eu161 2.374 . S
O191 C179 1.251 . S
H192 C163 0.931 . S
H193 C164 0.931 . S
H194 C166 0.931 . S
H195 C167 0.931 . S
H196 C173 0.931 . S
H197 C174 0.931 . S
H198 C176 0.931 . S
H199 C177 0.931 . S
C200 Eu201 2.835 1_554 S
C200 C202 1.500 . S
C200 O220 1.257 . S
C200 O221 1.260 . S
Eu201 C200 2.835 1_556 S
Eu201 O220 2.473 1_556 S
Eu201 O221 2.480 1_556 S
Eu201 O222 2.430 . S
Eu201 O223 2.670 . S
Eu201 O224 2.394 . S
Eu201 O229 2.355 . S
Eu201 O231 2.374 . S
C202 C200 1.500 . S
C202 C203 1.377 . S
C202 C207 1.377 . S
C203 C202 1.377 . S
C203 C204 1.395 . S
C203 H232 0.931 . S
C204 C203 1.395 . S
C204 C205 1.383 . S
C204 H233 0.931 . S
C205 C204 1.383 . S
C205 C206 1.394 . S
C206 C205 1.394 . S
C206 C207 1.378 . S
C206 H234 0.931 . S
C207 C202 1.377 . S
C207 C206 1.378 . S
C207 H235 0.931 . S
C208 O222 1.259 . S
C208 O223 1.270 . S
C209 O224 1.251 . S
C209 O225 1.251 . S
C210 Eu211 2.835 . S
C210 C212 1.500 . S
C210 O226 1.257 . S
C210 O227 1.260 . S
Eu211 C210 2.835 . S
Eu211 O223 2.355 . S
Eu211 O225 2.374 . S
Eu211 O226 2.473 . S
Eu211 O227 2.480 . S
Eu211 O228 2.430 . S
Eu211 O229 2.670 . S
Eu211 O230 2.394 . S
C212 C210 1.500 . S
C212 C213 1.377 . S
C212 C217 1.377 . S
C213 C212 1.377 . S
C213 C214 1.395 . S
C213 H236 0.931 . S
C214 C213 1.395 . S
C214 C215 1.383 . S
C214 H237 0.931 . S
C215 C214 1.383 . S
C215 C216 1.394 . S
C216 C215 1.394 . S
C216 C217 1.378 . S
C216 H238 0.931 . S
C217 C212 1.377 . S
C217 C216 1.378 . S
C217 H239 0.931 . S
C218 O228 1.259 . S
C218 O229 1.270 . S
C219 O230 1.251 . S
C219 O231 1.251 . S
O220 C200 1.257 . S
O220 Eu201 2.473 1_554 S
O221 C200 1.260 . S
O221 Eu201 2.480 1_554 S
O222 Eu201 2.430 . S
O222 C208 1.259 . S
O223 Eu201 2.670 . S
O223 C208 1.270 . S
O223 Eu211 2.355 . S
O224 Eu201 2.394 . S
O224 C209 1.251 . S
O225 C209 1.251 . S
O225 Eu211 2.374 . S
O226 C210 1.257 . S
O226 Eu211 2.473 . S
O227 C210 1.260 . S
O227 Eu211 2.480 . S
O228 Eu211 2.430 . S
O228 C218 1.259 . S
O229 Eu201 2.355 . S
O229 Eu211 2.670 . S
O229 C218 1.270 . S
O230 Eu211 2.394 . S
O230 C219 1.251 . S
O231 Eu201 2.374 . S
O231 C219 1.251 . S
H232 C203 0.931 . S
H233 C204 0.931 . S
H234 C206 0.931 . S
H235 C207 0.931 . S
H236 C213 0.931 . S
H237 C214 0.931 . S
H238 C216 0.931 . S
H239 C217 0.931 . S
C240 Eu241 2.835 . S
C240 C242 1.500 . S
C240 O260 1.257 . S
C240 O261 1.260 . S
Eu241 C240 2.835 . S
Eu241 O260 2.473 . S
Eu241 O261 2.480 . S
Eu241 O262 2.430 . S
Eu241 O263 2.670 . S
Eu241 O264 2.394 . S
Eu241 O269 2.355 . S
Eu241 O271 2.374 . S
C242 C240 1.500 . S
C242 C243 1.377 . S
C242 C247 1.377 . S
C243 C242 1.377 . S
C243 C244 1.395 . S
C243 H272 0.931 . S
C244 C243 1.395 . S
C244 C245 1.383 . S
C244 H273 0.931 . S
C245 C244 1.383 . S
C245 C246 1.394 . S
C246 C245 1.394 . S
C246 C247 1.378 . S
C246 H274 0.931 . S
C247 C242 1.377 . S
C247 C246 1.378 . S
C247 H275 0.931 . S
C248 O262 1.259 . S
C248 O263 1.270 . S
C249 O264 1.251 . S
C249 O265 1.251 . S
C250 Eu251 2.835 1_556 S
C250 C252 1.500 . S
C250 O266 1.257 . S
C250 O267 1.260 . S
Eu251 C250 2.835 1_554 S
Eu251 O263 2.355 . S
Eu251 O265 2.374 . S
Eu251 O266 2.473 1_554 S
Eu251 O267 2.480 1_554 S
Eu251 O268 2.430 . S
Eu251 O269 2.670 . S
Eu251 O270 2.394 . S
C252 C250 1.500 . S
C252 C253 1.377 . S
C252 C257 1.377 . S
C253 C252 1.377 . S
C253 C254 1.395 . S
C253 H276 0.931 . S
C254 C253 1.395 . S
C254 C255 1.383 . S
C254 H277 0.931 . S
C255 C254 1.383 . S
C255 C256 1.394 . S
C256 C255 1.394 . S
C256 C257 1.378 . S
C256 H278 0.931 . S
C257 C252 1.377 . S
C257 C256 1.378 . S
C257 H279 0.931 . S
C258 O268 1.259 . S
C258 O269 1.270 . S
C259 O270 1.251 . S
C259 O271 1.251 . S
O260 C240 1.257 . S
O260 Eu241 2.473 . S
O261 C240 1.260 . S
O261 Eu241 2.480 . S
O262 Eu241 2.430 . S
O262 C248 1.259 . S
O263 Eu241 2.670 . S
O263 C248 1.270 . S
O263 Eu251 2.355 . S
O264 Eu241 2.394 . S
O264 C249 1.251 . S
O265 C249 1.251 . S
O265 Eu251 2.374 . S
O266 C250 1.257 . S
O266 Eu251 2.473 1_556 S
O267 C250 1.260 . S
O267 Eu251 2.480 1_556 S
O268 Eu251 2.430 . S
O268 C258 1.259 . S
O269 Eu241 2.355 . S
O269 Eu251 2.670 . S
O269 C258 1.270 . S
O270 Eu251 2.394 . S
O270 C259 1.251 . S
O271 Eu241 2.374 . S
O271 C259 1.251 . S
H272 C243 0.931 . S
H273 C244 0.931 . S
H274 C246 0.931 . S
H275 C247 0.931 . S
H276 C253 0.931 . S
H277 C254 0.931 . S
H278 C256 0.931 . S
H279 C257 0.931 . S
C280 Eu281 2.835 1_554 S
C280 C282 1.500 . S
C280 O300 1.257 . S
C280 O301 1.260 . S
Eu281 C280 2.835 1_556 S
Eu281 O300 2.473 1_556 S
Eu281 O301 2.480 1_556 S
Eu281 O302 2.430 . S
Eu281 O303 2.670 . S
Eu281 O304 2.394 . S
Eu281 O309 2.355 . S
Eu281 O311 2.374 . S
C282 C280 1.500 . S
C282 C283 1.377 . S
C282 C287 1.377 . S
C283 C282 1.377 . S
C283 C284 1.395 . S
C283 H312 0.931 . S
C284 C283 1.395 . S
C284 C285 1.383 . S
C284 H313 0.931 . S
C285 C284 1.383 . S
C285 C286 1.394 . S
C286 C285 1.394 . S
C286 C287 1.378 . S
C286 H314 0.931 . S
C287 C282 1.377 . S
C287 C286 1.378 . S
C287 H315 0.931 . S
C288 O302 1.259 . S
C288 O303 1.270 . S
C289 O304 1.251 . S
C289 O305 1.251 . S
C290 Eu291 2.835 . S
C290 C292 1.500 . S
C290 O306 1.257 . S
C290 O307 1.260 . S
Eu291 C290 2.835 . S
Eu291 O303 2.355 . S
Eu291 O305 2.374 . S
Eu291 O306 2.473 . S
Eu291 O307 2.480 . S
Eu291 O308 2.430 . S
Eu291 O309 2.670 . S
Eu291 O310 2.394 . S
C292 C290 1.500 . S
C292 C293 1.377 . S
C292 C297 1.377 . S
C293 C292 1.377 . S
C293 C294 1.395 . S
C293 H316 0.931 . S
C294 C293 1.395 . S
C294 C295 1.383 . S
C294 H317 0.931 . S
C295 C294 1.383 . S
C295 C296 1.394 . S
C296 C295 1.394 . S
C296 C297 1.378 . S
C296 H318 0.931 . S
C297 C292 1.377 . S
C297 C296 1.378 . S
C297 H319 0.931 . S
C298 O308 1.259 . S
C298 O309 1.270 . S
C299 O310 1.251 . S
C299 O311 1.251 . S
O300 C280 1.257 . S
O300 Eu281 2.473 1_554 S
O301 C280 1.260 . S
O301 Eu281 2.480 1_554 S
O302 Eu281 2.430 . S
O302 C288 1.259 . S
O303 Eu281 2.670 . S
O303 C288 1.270 . S
O303 Eu291 2.355 . S
O304 Eu281 2.394 . S
O304 C289 1.251 . S
O305 C289 1.251 . S
O305 Eu291 2.374 . S
O306 C290 1.257 . S
O306 Eu291 2.473 . S
O307 C290 1.260 . S
O307 Eu291 2.480 . S
O308 Eu291 2.430 . S
O308 C298 1.259 . S
O309 Eu281 2.355 . S
O309 Eu291 2.670 . S
O309 C298 1.270 . S
O310 Eu291 2.394 . S
O310 C299 1.251 . S
O311 Eu281 2.374 . S
O311 C299 1.251 . S
H312 C283 0.931 . S
H313 C284 0.931 . S
H314 C286 0.931 . S
H315 C287 0.931 . S
H316 C293 0.931 . S
H317 C294 0.931 . S
H318 C296 0.931 . S
H319 C297 0.931 . S
C320 Eu321 2.835 . S
C320 C322 1.500 . S
C320 O340 1.257 . S
C320 O341 1.260 . S
Eu321 C320 2.835 . S
Eu321 O340 2.473 . S
Eu321 O341 2.480 . S
Eu321 O342 2.430 . S
Eu321 O343 2.670 . S
Eu321 O344 2.394 . S
Eu321 O349 2.355 . S
Eu321 O351 2.374 . S
C322 C320 1.500 . S
C322 C323 1.377 . S
C322 C327 1.377 . S
C323 C322 1.377 . S
C323 C324 1.395 . S
C323 H352 0.931 . S
C324 C323 1.395 . S
C324 C325 1.383 . S
C324 H353 0.931 . S
C325 C324 1.383 . S
C325 C326 1.394 . S
C326 C325 1.394 . S
C326 C327 1.378 . S
C326 H354 0.931 . S
C327 C322 1.377 . S
C327 C326 1.378 . S
C327 H355 0.931 . S
C328 O342 1.259 . S
C328 O343 1.270 . S
C329 O344 1.251 . S
C329 O345 1.251 . S
C330 Eu331 2.835 . S
C330 C332 1.500 . S
C330 O346 1.257 . S
C330 O347 1.260 . S
Eu331 C330 2.835 . S
Eu331 O343 2.355 . S
Eu331 O345 2.374 . S
Eu331 O346 2.473 . S
Eu331 O347 2.480 . S
Eu331 O348 2.430 . S
Eu331 O349 2.670 . S
Eu331 O350 2.394 . S
C332 C330 1.500 . S
C332 C333 1.377 . S
C332 C337 1.377 . S
C333 C332 1.377 . S
C333 C334 1.395 1_556 S
C333 H356 0.931 . S
C334 C333 1.395 1_554 S
C334 C335 1.383 . S
C334 H357 0.931 . S
C335 C334 1.383 . S
C335 C336 1.394 . S
C336 C335 1.394 . S
C336 C337 1.378 1_554 S
C336 H358 0.931 . S
C337 C332 1.377 . S
C337 C336 1.378 1_556 S
C337 H359 0.931 . S
C338 O348 1.259 . S
C338 O349 1.270 . S
C339 O350 1.251 . S
C339 O351 1.251 . S
O340 C320 1.257 . S
O340 Eu321 2.473 . S
O341 C320 1.260 . S
O341 Eu321 2.480 . S
O342 Eu321 2.430 . S
O342 C328 1.259 . S
O343 Eu321 2.670 . S
O343 C328 1.270 . S
O343 Eu331 2.355 . S
O344 Eu321 2.394 . S
O344 C329 1.251 . S
O345 C329 1.251 . S
O345 Eu331 2.374 . S
O346 C330 1.257 . S
O346 Eu331 2.473 . S
O347 C330 1.260 . S
O347 Eu331 2.480 . S
O348 Eu331 2.430 . S
O348 C338 1.259 . S
O349 Eu321 2.355 . S
O349 Eu331 2.670 . S
O349 C338 1.270 . S
O350 Eu331 2.394 . S
O350 C339 1.251 . S
O351 Eu321 2.374 . S
O351 C339 1.251 . S
H352 C323 0.931 . S
H353 C324 0.931 . S
H354 C326 0.931 . S
H355 C327 0.931 . S
H356 C333 0.931 . S
H357 C334 0.931 . S
H358 C336 0.931 . S
H359 C337 0.931 . S
C360 Eu361 2.835 . S
C360 C362 1.500 . S
C360 O380 1.257 . S
C360 O381 1.260 . S
Eu361 C360 2.835 . S
Eu361 O380 2.473 . S
Eu361 O381 2.480 . S
Eu361 O382 2.430 . S
Eu361 O383 2.670 . S
Eu361 O384 2.394 . S
Eu361 O389 2.355 . S
Eu361 O391 2.374 . S
C362 C360 1.500 . S
C362 C363 1.377 . S
C362 C367 1.377 . S
C363 C362 1.377 . S
C363 C364 1.395 1_554 S
C363 H392 0.931 . S
C364 C363 1.395 1_556 S
C364 C365 1.383 . S
C364 H393 0.931 . S
C365 C364 1.383 . S
C365 C366 1.394 . S
C366 C365 1.394 . S
C366 C367 1.378 1_556 S
C366 H394 0.931 . S
C367 C362 1.377 . S
C367 C366 1.378 1_554 S
C367 H395 0.931 . S
C368 O382 1.259 . S
C368 O383 1.270 . S
C369 O384 1.251 . S
C369 O385 1.251 . S
C370 Eu371 2.835 . S
C370 C372 1.500 . S
C370 O386 1.257 . S
C370 O387 1.260 . S
Eu371 C370 2.835 . S
Eu371 O383 2.355 . S
Eu371 O385 2.374 . S
Eu371 O386 2.473 . S
Eu371 O387 2.480 . S
Eu371 O388 2.430 . S
Eu371 O389 2.670 . S
Eu371 O390 2.394 . S
C372 C370 1.500 . S
C372 C373 1.377 . S
C372 C377 1.377 . S
C373 C372 1.377 . S
C373 C374 1.395 . S
C373 H396 0.931 . S
C374 C373 1.395 . S
C374 C375 1.383 . S
C374 H397 0.931 . S
C375 C374 1.383 . S
C375 C376 1.394 . S
C376 C375 1.394 . S
C376 C377 1.378 . S
C376 H398 0.931 . S
C377 C372 1.377 . S
C377 C376 1.378 . S
C377 H399 0.931 . S
C378 O388 1.259 . S
C378 O389 1.270 . S
C379 O390 1.251 . S
C379 O391 1.251 . S
O380 C360 1.257 . S
O380 Eu361 2.473 . S
O381 C360 1.260 . S
O381 Eu361 2.480 . S
O382 Eu361 2.430 . S
O382 C368 1.259 . S
O383 Eu361 2.670 . S
O383 C368 1.270 . S
O383 Eu371 2.355 . S
O384 Eu361 2.394 . S
O384 C369 1.251 . S
O385 C369 1.251 . S
O385 Eu371 2.374 . S
O386 C370 1.257 . S
O386 Eu371 2.473 . S
O387 C370 1.260 . S
O387 Eu371 2.480 . S
O388 Eu371 2.430 . S
O388 C378 1.259 . S
O389 Eu361 2.355 . S
O389 Eu371 2.670 . S
O389 C378 1.270 . S
O390 Eu371 2.394 . S
O390 C379 1.251 . S
O391 Eu361 2.374 . S
O391 C379 1.251 . S
H392 C363 0.931 . S
H393 C364 0.931 . S
H394 C366 0.931 . S
H395 C367 0.931 . S
H396 C373 0.931 . S
H397 C374 0.931 . S
H398 C376 0.931 . S
H399 C377 0.931 . S
C400 Eu401 2.835 . S
C400 C402 1.500 . S
C400 O420 1.257 . S
C400 O421 1.260 . S
Eu401 C400 2.835 . S
Eu401 O420 2.473 . S
Eu401 O421 2.480 . S
Eu401 O422 2.430 . S
Eu401 O423 2.670 . S
Eu401 O424 2.394 . S
Eu401 O429 2.355 . S
Eu401 O431 2.374 . S
C402 C400 1.500 . S
C402 C403 1.377 . S
C402 C407 1.377 . S
C403 C402 1.377 . S
C403 C404 1.395 . S
C403 H432 0.931 . S
C404 C403 1.395 . S
C404 C405 1.383 . S
C404 H433 0.931 . S
C405 C404 1.383 . S
C405 C406 1.394 . S
C406 C405 1.394 . S
C406 C407 1.378 . S
C406 H434 0.931 . S
C407 C402 1.377 . S
C407 C406 1.378 . S
C407 H435 0.931 . S
C408 O422 1.259 . S
C408 O423 1.270 . S
C409 O424 1.251 . S
C409 O425 1.251 . S
C410 Eu411 2.835 . S
C410 C412 1.500 . S
C410 O426 1.257 . S
C410 O427 1.260 . S
Eu411 C410 2.835 . S
Eu411 O423 2.355 . S
Eu411 O425 2.374 . S
Eu411 O426 2.473 . S
Eu411 O427 2.480 . S
Eu411 O428 2.430 . S
Eu411 O429 2.670 . S
Eu411 O430 2.394 . S
C412 C410 1.500 . S
C412 C413 1.377 . S
C412 C417 1.377 . S
C413 C412 1.377 . S
C413 C414 1.395 1_556 S
C413 H436 0.931 . S
C414 C413 1.395 1_554 S
C414 C415 1.383 . S
C414 H437 0.931 . S
C415 C414 1.383 . S
C415 C416 1.394 . S
C416 C415 1.394 . S
C416 C417 1.378 1_554 S
C416 H438 0.931 . S
C417 C412 1.377 . S
C417 C416 1.378 1_556 S
C417 H439 0.931 . S
C418 O428 1.259 . S
C418 O429 1.270 . S
C419 O430 1.251 . S
C419 O431 1.251 . S
O420 C400 1.257 . S
O420 Eu401 2.473 . S
O421 C400 1.260 . S
O421 Eu401 2.480 . S
O422 Eu401 2.430 . S
O422 C408 1.259 . S
O423 Eu401 2.670 . S
O423 C408 1.270 . S
O423 Eu411 2.355 . S
O424 Eu401 2.394 . S
O424 C409 1.251 . S
O425 C409 1.251 . S
O425 Eu411 2.374 . S
O426 C410 1.257 . S
O426 Eu411 2.473 . S
O427 C410 1.260 . S
O427 Eu411 2.480 . S
O428 Eu411 2.430 . S
O428 C418 1.259 . S
O429 Eu401 2.355 . S
O429 Eu411 2.670 . S
O429 C418 1.270 . S
O430 Eu411 2.394 . S
O430 C419 1.251 . S
O431 Eu401 2.374 . S
O431 C419 1.251 . S
H432 C403 0.931 . S
H433 C404 0.931 . S
H434 C406 0.931 . S
H435 C407 0.931 . S
H436 C413 0.931 . S
H437 C414 0.931 . S
H438 C416 0.931 . S
H439 C417 0.931 . S
C440 Eu441 2.835 . S
C440 C442 1.500 . S
C440 O460 1.257 . S
C440 O461 1.260 . S
Eu441 C440 2.835 . S
Eu441 O460 2.473 . S
Eu441 O461 2.480 . S
Eu441 O462 2.430 . S
Eu441 O463 2.670 . S
Eu441 O464 2.394 . S
Eu441 O469 2.355 . S
Eu441 O471 2.374 . S
C442 C440 1.500 . S
C442 C443 1.377 . S
C442 C447 1.377 . S
C443 C442 1.377 . S
C443 C444 1.395 1_554 S
C443 H472 0.931 . S
C444 C443 1.395 1_556 S
C444 C445 1.383 . S
C444 H473 0.931 . S
C445 C444 1.383 . S
C445 C446 1.394 . S
C446 C445 1.394 . S
C446 C447 1.378 1_556 S
C446 H474 0.931 . S
C447 C442 1.377 . S
C447 C446 1.378 1_554 S
C447 H475 0.931 . S
C448 O462 1.259 . S
C448 O463 1.270 . S
C449 O464 1.251 . S
C449 O465 1.251 . S
C450 Eu451 2.835 . S
C450 C452 1.500 . S
C450 O466 1.257 . S
C450 O467 1.260 . S
Eu451 C450 2.835 . S
Eu451 O463 2.355 . S
Eu451 O465 2.374 . S
Eu451 O466 2.473 . S
Eu451 O467 2.480 . S
Eu451 O468 2.430 . S
Eu451 O469 2.670 . S
Eu451 O470 2.394 . S
C452 C450 1.500 . S
C452 C453 1.377 . S
C452 C457 1.377 . S
C453 C452 1.377 . S
C453 C454 1.395 . S
C453 H476 0.931 . S
C454 C453 1.395 . S
C454 C455 1.383 . S
C454 H477 0.931 . S
C455 C454 1.383 . S
C455 C456 1.394 . S
C456 C455 1.394 . S
C456 C457 1.378 . S
C456 H478 0.931 . S
C457 C452 1.377 . S
C457 C456 1.378 . S
C457 H479 0.931 . S
C458 O468 1.259 . S
C458 O469 1.270 . S
C459 O470 1.251 . S
C459 O471 1.251 . S
O460 C440 1.257 . S
O460 Eu441 2.473 . S
O461 C440 1.260 . S
O461 Eu441 2.480 . S
O462 Eu441 2.430 . S
O462 C448 1.259 . S
O463 Eu441 2.670 . S
O463 C448 1.270 . S
O463 Eu451 2.355 . S
O464 Eu441 2.394 . S
O464 C449 1.251 . S
O465 C449 1.251 . S
O465 Eu451 2.374 . S
O466 C450 1.257 . S
O466 Eu451 2.473 . S
O467 C450 1.260 . S
O467 Eu451 2.480 . S
O468 Eu451 2.430 . S
O468 C458 1.259 . S
O469 Eu441 2.355 . S
O469 Eu451 2.670 . S
O469 C458 1.270 . S
O470 Eu451 2.394 . S
O470 C459 1.251 . S
O471 Eu441 2.374 . S
O471 C459 1.251 . S
H472 C443 0.931 . S
H473 C444 0.931 . S
H474 C446 0.931 . S
H475 C447 0.931 . S
H476 C453 0.931 . S
H477 C454 0.931 . S
H478 C456 0.931 . S
H479 C457 0.931 . S
C480 Eu481 2.835 . S
C480 C482 1.500 . S
C480 O500 1.257 . S
C480 O501 1.260 1_565 S
Eu481 C480 2.835 . S
Eu481 O500 2.473 . S
Eu481 O501 2.480 1_565 S
Eu481 O502 2.430 1_565 S
Eu481 O503 2.670 1_565 S
Eu481 O504 2.394 1_565 S
Eu481 O509 2.355 . S
Eu481 O511 2.374 . S
C482 C480 1.500 . S
C482 C483 1.377 1_565 S
C482 C487 1.377 . S
C483 C482 1.377 1_545 S
C483 C484 1.395 1_556 S
C483 H512 0.931 . S
C484 C483 1.395 1_554 S
C484 C485 1.383 1_545 S
C484 H513 0.931 . S
C485 C484 1.383 1_565 S
C485 C486 1.394 . S
C486 C485 1.394 . S
C486 C487 1.378 1_554 S
C486 H514 0.931 . S
C487 C482 1.377 . S
C487 C486 1.378 1_556 S
C487 H515 0.931 . S
C488 O502 1.259 . S
C488 O503 1.270 . S
C489 O504 1.251 . S
C489 O505 1.251 . S
C490 Eu491 2.835 . S
C490 C492 1.500 . S
C490 O506 1.257 1_565 S
C490 O507 1.260 . S
Eu491 C490 2.835 . S
Eu491 O503 2.355 1_565 S
Eu491 O505 2.374 1_565 S
Eu491 O506 2.473 1_565 S
Eu491 O507 2.480 . S
Eu491 O508 2.430 . S
Eu491 O509 2.670 . S
Eu491 O510 2.394 . S
C492 C490 1.500 . S
C492 C493 1.377 . S
C492 C497 1.377 1_565 S
C493 C492 1.377 . S
C493 C494 1.395 . S
C493 H516 0.931 . S
C494 C493 1.395 . S
C494 C495 1.383 . S
C494 H517 0.931 . S
C495 C494 1.383 . S
C495 C496 1.394 1_565 S
C496 C495 1.394 1_545 S
C496 C497 1.378 . S
C496 H518 0.931 . S
C497 C492 1.377 1_545 S
C497 C496 1.378 . S
C497 H519 0.931 . S
C498 O508 1.259 . S
C498 O509 1.270 . S
C499 O510 1.251 . S
C499 O511 1.251 . S
O500 C480 1.257 . S
O500 Eu481 2.473 . S
O501 C480 1.260 1_545 S
O501 Eu481 2.480 1_545 S
O502 Eu481 2.430 1_545 S
O502 C488 1.259 . S
O503 Eu481 2.670 1_545 S
O503 C488 1.270 . S
O503 Eu491 2.355 1_545 S
O504 Eu481 2.394 1_545 S
O504 C489 1.251 . S
O505 C489 1.251 . S
O505 Eu491 2.374 1_545 S
O506 C490 1.257 1_545 S
O506 Eu491 2.473 1_545 S
O507 C490 1.260 . S
O507 Eu491 2.480 . S
O508 Eu491 2.430 . S
O508 C498 1.259 . S
O509 Eu481 2.355 . S
O509 Eu491 2.670 . S
O509 C498 1.270 . S
O510 Eu491 2.394 . S
O510 C499 1.251 . S
O511 Eu481 2.374 . S
O511 C499 1.251 . S
H512 C483 0.931 . S
H513 C484 0.931 . S
H514 C486 0.931 . S
H515 C487 0.931 . S
H516 C493 0.931 . S
H517 C494 0.931 . S
H518 C496 0.931 . S
H519 C497 0.931 . S
C520 Eu521 2.835 . S
C520 C522 1.500 . S
C520 O540 1.257 1_655 S
C520 O541 1.260 . S
Eu521 C520 2.835 . S
Eu521 O540 2.473 1_655 S
Eu521 O541 2.480 . S
Eu521 O542 2.430 . S
Eu521 O543 2.670 . S
Eu521 O544 2.394 . S
Eu521 O549 2.355 1_655 S
Eu521 O551 2.374 1_655 S
C522 C520 1.500 . S
C522 C523 1.377 . S
C522 C527 1.377 1_655 S
C523 C522 1.377 . S
C523 C524 1.395 . S
C523 H552 0.931 . S
C524 C523 1.395 . S
C524 C525 1.383 . S
C524 H553 0.931 . S
C525 C524 1.383 . S
C525 C526 1.394 1_655 S
C526 C525 1.394 1_455 S
C526 C527 1.378 . S
C526 H554 0.931 . S
C527 C522 1.377 1_455 S
C527 C526 1.378 . S
C527 H555 0.931 . S
C528 O542 1.259 . S
C528 O543 1.270 . S
C529 O544 1.251 . S
C529 O545 1.251 . S
C530 Eu531 2.835 . S
C530 C532 1.500 . S
C530 O546 1.257 . S
C530 O547 1.260 1_655 S
Eu531 C530 2.835 . S
Eu531 O543 2.355 . S
Eu531 O545 2.374 . S
Eu531 O546 2.473 . S
Eu531 O547 2.480 1_655 S
Eu531 O548 2.430 1_655 S
Eu531 O549 2.670 1_655 S
Eu531 O550 2.394 1_655 S
C532 C530 1.500 . S
C532 C533 1.377 1_655 S
C532 C537 1.377 . S
C533 C532 1.377 1_455 S
C533 C534 1.395 1_554 S
C533 H556 0.931 . S
C534 C533 1.395 1_556 S
C534 C535 1.383 1_455 S
C534 H557 0.931 . S
C535 C534 1.383 1_655 S
C535 C536 1.394 . S
C536 C535 1.394 . S
C536 C537 1.378 1_556 S
C536 H558 0.931 . S
C537 C532 1.377 . S
C537 C536 1.378 1_554 S
C537 H559 0.931 . S
C538 O548 1.259 . S
C538 O549 1.270 . S
C539 O550 1.251 . S
C539 O551 1.251 . S
O540 C520 1.257 1_455 S
O540 Eu521 2.473 1_455 S
O541 C520 1.260 . S
O541 Eu521 2.480 . S
O542 Eu521 2.430 . S
O542 C528 1.259 . S
O543 Eu521 2.670 . S
O543 C528 1.270 . S
O543 Eu531 2.355 . S
O544 Eu521 2.394 . S
O544 C529 1.251 . S
O545 C529 1.251 . S
O545 Eu531 2.374 . S
O546 C530 1.257 . S
O546 Eu531 2.473 . S
O547 C530 1.260 1_455 S
O547 Eu531 2.480 1_455 S
O548 Eu531 2.430 1_455 S
O548 C538 1.259 . S
O549 Eu521 2.355 1_455 S
O549 Eu531 2.670 1_455 S
O549 C538 1.270 . S
O550 Eu531 2.394 1_455 S
O550 C539 1.251 . S
O551 Eu521 2.374 1_455 S
O551 C539 1.251 . S
H552 C523 0.931 . S
H553 C524 0.931 . S
H554 C526 0.931 . S
H555 C527 0.931 . S
H556 C533 0.931 . S
H557 C534 0.931 . S
H558 C536 0.931 . S
H559 C537 0.931 . S
C560 Eu561 2.835 . S
C560 C562 1.500 . S
C560 O580 1.257 . S
C560 O581 1.260 1_545 S
Eu561 C560 2.835 . S
Eu561 O580 2.473 . S
Eu561 O581 2.480 1_545 S
Eu561 O582 2.430 1_545 S
Eu561 O583 2.670 1_545 S
Eu561 O584 2.394 1_545 S
Eu561 O589 2.355 . S
Eu561 O591 2.374 . S
C562 C560 1.500 . S
C562 C563 1.377 1_545 S
C562 C567 1.377 . S
C563 C562 1.377 1_565 S
C563 C564 1.395 1_556 S
C563 H592 0.931 . S
C564 C563 1.395 1_554 S
C564 C565 1.383 1_565 S
C564 H593 0.931 . S
C565 C564 1.383 1_545 S
C565 C566 1.394 . S
C566 C565 1.394 . S
C566 C567 1.378 1_554 S
C566 H594 0.931 . S
C567 C562 1.377 . S
C567 C566 1.378 1_556 S
C567 H595 0.931 . S
C568 O582 1.259 . S
C568 O583 1.270 . S
C569 O584 1.251 . S
C569 O585 1.251 . S
C570 Eu571 2.835 . S
C570 C572 1.500 . S
C570 O586 1.257 1_545 S
C570 O587 1.260 . S
Eu571 C570 2.835 . S
Eu571 O583 2.355 1_545 S
Eu571 O585 2.374 1_545 S
Eu571 O586 2.473 1_545 S
Eu571 O587 2.480 . S
Eu571 O588 2.430 . S
Eu571 O589 2.670 . S
Eu571 O590 2.394 . S
C572 C570 1.500 . S
C572 C573 1.377 . S
C572 C577 1.377 1_545 S
C573 C572 1.377 . S
C573 C574 1.395 . S
C573 H596 0.931 . S
C574 C573 1.395 . S
C574 C575 1.383 . S
C574 H597 0.931 . S
C575 C574 1.383 . S
C575 C576 1.394 1_545 S
C576 C575 1.394 1_565 S
C576 C577 1.378 . S
C576 H598 0.931 . S
C577 C572 1.377 1_565 S
C577 C576 1.378 . S
C577 H599 0.931 . S
C578 O588 1.259 . S
C578 O589 1.270 . S
C579 O590 1.251 . S
C579 O591 1.251 . S
O580 C560 1.257 . S
O580 Eu561 2.473 . S
O581 C560 1.260 1_565 S
O581 Eu561 2.480 1_565 S
O582 Eu561 2.430 1_565 S
O582 C568 1.259 . S
O583 Eu561 2.670 1_565 S
O583 C568 1.270 . S
O583 Eu571 2.355 1_565 S
O584 Eu561 2.394 1_565 S
O584 C569 1.251 . S
O585 C569 1.251 . S
O585 Eu571 2.374 1_565 S
O586 C570 1.257 1_565 S
O586 Eu571 2.473 1_565 S
O587 C570 1.260 . S
O587 Eu571 2.480 . S
O588 Eu571 2.430 . S
O588 C578 1.259 . S
O589 Eu561 2.355 . S
O589 Eu571 2.670 . S
O589 C578 1.270 . S
O590 Eu571 2.394 . S
O590 C579 1.251 . S
O591 Eu561 2.374 . S
O591 C579 1.251 . S
H592 C563 0.931 . S
H593 C564 0.931 . S
H594 C566 0.931 . S
H595 C567 0.931 . S
H596 C573 0.931 . S
H597 C574 0.931 . S
H598 C576 0.931 . S
H599 C577 0.931 . S
C600 Eu601 2.835 . S
C600 C602 1.500 . S
C600 O620 1.257 1_455 S
C600 O621 1.260 . S
Eu601 C600 2.835 . S
Eu601 O620 2.473 1_455 S
Eu601 O621 2.480 . S
Eu601 O622 2.430 . S
Eu601 O623 2.670 . S
Eu601 O624 2.394 . S
Eu601 O629 2.355 1_455 S
Eu601 O631 2.374 1_455 S
C602 C600 1.500 . S
C602 C603 1.377 . S
C602 C607 1.377 1_455 S
C603 C602 1.377 . S
C603 C604 1.395 . S
C603 H632 0.931 . S
C604 C603 1.395 . S
C604 C605 1.383 . S
C604 H633 0.931 . S
C605 C604 1.383 . S
C605 C606 1.394 1_455 S
C606 C605 1.394 1_655 S
C606 C607 1.378 . S
C606 H634 0.931 . S
C607 C602 1.377 1_655 S
C607 C606 1.378 . S
C607 H635 0.931 . S
C608 O622 1.259 . S
C608 O623 1.270 . S
C609 O624 1.251 . S
C609 O625 1.251 . S
C610 Eu611 2.835 . S
C610 C612 1.500 . S
C610 O626 1.257 . S
C610 O627 1.260 1_455 S
Eu611 C610 2.835 . S
Eu611 O623 2.355 . S
Eu611 O625 2.374 . S
Eu611 O626 2.473 . S
Eu611 O627 2.480 1_455 S
Eu611 O628 2.430 1_455 S
Eu611 O629 2.670 1_455 S
Eu611 O630 2.394 1_455 S
C612 C610 1.500 . S
C612 C613 1.377 1_455 S
C612 C617 1.377 . S
C613 C612 1.377 1_655 S
C613 C614 1.395 1_554 S
C613 H636 0.931 . S
C614 C613 1.395 1_556 S
C614 C615 1.383 1_655 S
C614 H637 0.931 . S
C615 C614 1.383 1_455 S
C615 C616 1.394 . S
C616 C615 1.394 . S
C616 C617 1.378 1_556 S
C616 H638 0.931 . S
C617 C612 1.377 . S
C617 C616 1.378 1_554 S
C617 H639 0.931 . S
C618 O628 1.259 . S
C618 O629 1.270 . S
C619 O630 1.251 . S
C619 O631 1.251 . S
O620 C600 1.257 1_655 S
O620 Eu601 2.473 1_655 S
O621 C600 1.260 . S
O621 Eu601 2.480 . S
O622 Eu601 2.430 . S
O622 C608 1.259 . S
O623 Eu601 2.670 . S
O623 C608 1.270 . S
O623 Eu611 2.355 . S
O624 Eu601 2.394 . S
O624 C609 1.251 . S
O625 C609 1.251 . S
O625 Eu611 2.374 . S
O626 C610 1.257 . S
O626 Eu611 2.473 . S
O627 C610 1.260 1_655 S
O627 Eu611 2.480 1_655 S
O628 Eu611 2.430 1_655 S
O628 C618 1.259 . S
O629 Eu601 2.355 1_655 S
O629 Eu611 2.670 1_655 S
O629 C618 1.270 . S
O630 Eu611 2.394 1_655 S
O630 C619 1.251 . S
O631 Eu601 2.374 1_655 S
O631 C619 1.251 . S
H632 C603 0.931 . S
H633 C604 0.931 . S
H634 C606 0.931 . S
H635 C607 0.931 . S
H636 C613 0.931 . S
H637 C614 0.931 . S
H638 C616 0.931 . S
H639 C617 0.931 . S
C449 C8 2.360 . S
C339 C58 2.360 . S
C88 C369 2.360 . S
C138 C419 2.360 . S
C168 C209 2.360 1_554 S
C259 C218 2.360 1_554 S
C248 C289 2.360 1_554 S
C179 C298 2.360 1_554 S
C129 C328 2.360 . S
C378 C19 2.360 . S
C49 C408 2.360 . S
C99 C458 2.360 . S
C488 C529 2.360 . S
C579 C538 2.360 . S
C609 C568 2.360 . S
C618 C499 2.360 . S
C18 C178 1.463 . S
C208 C48 1.463 . S
C98 C258 1.463 . S
C128 C288 1.463 . S
C338 C498 1.463 . S
C528 C368 1.463 . S
C418 C578 1.463 . S
C448 C608 1.463 . S
C569 C9 5.851 1_556 S
C59 C619 5.852 1_556 S
C89 C489 5.852 1_554 S
C139 C539 5.852 1_556 S
C169 C409 5.852 . S
C219 C459 5.852 . S
C249 C329 5.851 . S
C379 C299 5.852 . S
C15 C5 4.846 . S
C45 C55 4.846 . S
C95 C85 4.846 . S
C135 C125 4.846 . S
C165 C175 4.846 . S
C205 C215 4.846 . S
C255 C245 4.846 . S
C295 C285 4.846 . S
C335 C325 4.846 . S
C375 C365 4.846 . S
C405 C415 4.846 . S
C445 C455 4.846 . S
C495 C485 4.846 . S
C535 C525 4.846 . S
C565 C575 4.846 . S
C605 C615 4.846 . S
