# Generated by pormake.
# Topology hbo, (4)-cn, num edge types: 1
# Building blocks:
#     Node 0, Type 0, BuildingBlock: CEKHIL_clean_sbu_0, # of connection points: 4
#     Node 1, Type 0, BuildingBlock: CEKHIL_clean_sbu_0, # of connection points: 4
#     Node 2, Type 0, BuildingBlock: CEKHIL_clean_sbu_0, # of connection points: 4
#     Node 3, Type 0, BuildingBlock: CEKHIL_clean_sbu_0, # of connection points: 4
#     Node 4, Type 0, BuildingBlock: CEKHIL_clean_sbu_0, # of connection points: 4
#     Node 5, Type 0, BuildingBlock: CEKHIL_clean_sbu_0, # of connection points: 4
#     Node 6, Type 0, BuildingBlock: CEKHIL_clean_sbu_0, # of connection points: 4
#     Node 7, Type 0, BuildingBlock: CEKHIL_clean_sbu_0, # of connection points: 4
#     Node 8, Type 0, BuildingBlock: CEKHIL_clean_sbu_0, # of connection points: 4
#     Node 9, Type 0, BuildingBlock: CEKHIL_clean_sbu_0, # of connection points: 4
#     Node 10, Type 0, BuildingBlock: CEKHIL_clean_sbu_0, # of connection points: 4
#     Node 11, Type 0, BuildingBlock: CEKHIL_clean_sbu_0, # of connection points: 4
#     Node 12, Type 0, BuildingBlock: CEKHIL_clean_sbu_0, # of connection points: 4
#     Node 13, Type 0, BuildingBlock: CEKHIL_clean_sbu_0, # of connection points: 4
#     Node 14, Type 0, BuildingBlock: CEKHIL_clean_sbu_0, # of connection points: 4
#     Node 15, Type 0, BuildingBlock: CEKHIL_clean_sbu_0, # of connection points: 4
#     Node 16, Type 0, BuildingBlock: CEKHIL_clean_sbu_0, # of connection points: 4
#     Node 17, Type 0, BuildingBlock: CEKHIL_clean_sbu_0, # of connection points: 4
#     Node 18, Type 0, BuildingBlock: CEKHIL_clean_sbu_0, # of connection points: 4
#     Node 19, Type 0, BuildingBlock: CEKHIL_clean_sbu_0, # of connection points: 4
#     Node 20, Type 0, BuildingBlock: CEKHIL_clean_sbu_0, # of connection points: 4
#     Node 21, Type 0, BuildingBlock: CEKHIL_clean_sbu_0, # of connection points: 4
#     Node 22, Type 0, BuildingBlock: CEKHIL_clean_sbu_0, # of connection points: 4
#     Node 23, Type 0, BuildingBlock: CEKHIL_clean_sbu_0, # of connection points: 4
#     Edge 24, Type (0, 0), BuildingBlock: AJUNOK_clean_linker_0, # of connection points: 2
#     Edge 25, Type (0, 0), BuildingBlock: AJUNOK_clean_linker_0, # of connection points: 2
#     Edge 26, Type (0, 0), BuildingBlock: AJUNOK_clean_linker_0, # of connection points: 2
#     Edge 27, Type (0, 0), BuildingBlock: AJUNOK_clean_linker_0, # of connection points: 2
#     Edge 28, Type (0, 0), BuildingBlock: AJUNOK_clean_linker_0, # of connection points: 2
#     Edge 29, Type (0, 0), BuildingBlock: AJUNOK_clean_linker_0, # of connection points: 2
#     Edge 30, Type (0, 0), BuildingBlock: AJUNOK_clean_linker_0, # of connection points: 2
#     Edge 31, Type (0, 0), BuildingBlock: AJUNOK_clean_linker_0, # of connection points: 2
#     Edge 32, Type (0, 0), BuildingBlock: AJUNOK_clean_linker_0, # of connection points: 2
#     Edge 33, Type (0, 0), BuildingBlock: AJUNOK_clean_linker_0, # of connection points: 2
#     Edge 34, Type (0, 0), BuildingBlock: AJUNOK_clean_linker_0, # of connection points: 2
#     Edge 35, Type (0, 0), BuildingBlock: AJUNOK_clean_linker_0, # of connection points: 2
#     Edge 36, Type (0, 0), BuildingBlock: AJUNOK_clean_linker_0, # of connection points: 2
#     Edge 37, Type (0, 0), BuildingBlock: AJUNOK_clean_linker_0, # of connection points: 2
#     Edge 38, Type (0, 0), BuildingBlock: AJUNOK_clean_linker_0, # of connection points: 2
#     Edge 39, Type (0, 0), BuildingBlock: AJUNOK_clean_linker_0, # of connection points: 2
#     Edge 40, Type (0, 0), BuildingBlock: AJUNOK_clean_linker_0, # of connection points: 2
#     Edge 41, Type (0, 0), BuildingBlock: AJUNOK_clean_linker_0, # of connection points: 2
#     Edge 42, Type (0, 0), BuildingBlock: AJUNOK_clean_linker_0, # of connection points: 2
#     Edge 43, Type (0, 0), BuildingBlock: AJUNOK_clean_linker_0, # of connection points: 2
#     Edge 44, Type (0, 0), BuildingBlock: AJUNOK_clean_linker_0, # of connection points: 2
#     Edge 45, Type (0, 0), BuildingBlock: AJUNOK_clean_linker_0, # of connection points: 2
#     Edge 46, Type (0, 0), BuildingBlock: AJUNOK_clean_linker_0, # of connection points: 2
#     Edge 47, Type (0, 0), BuildingBlock: AJUNOK_clean_linker_0, # of connection points: 2
#     Edge 48, Type (0, 0), BuildingBlock: AJUNOK_clean_linker_0, # of connection points: 2
#     Edge 49, Type (0, 0), BuildingBlock: AJUNOK_clean_linker_0, # of connection points: 2
#     Edge 50, Type (0, 0), BuildingBlock: AJUNOK_clean_linker_0, # of connection points: 2
#     Edge 51, Type (0, 0), BuildingBlock: AJUNOK_clean_linker_0, # of connection points: 2
#     Edge 52, Type (0, 0), BuildingBlock: AJUNOK_clean_linker_0, # of connection points: 2
#     Edge 53, Type (0, 0), BuildingBlock: AJUNOK_clean_linker_0, # of connection points: 2
#     Edge 54, Type (0, 0), BuildingBlock: AJUNOK_clean_linker_0, # of connection points: 2
#     Edge 55, Type (0, 0), BuildingBlock: AJUNOK_clean_linker_0, # of connection points: 2
#     Edge 56, Type (0, 0), BuildingBlock: AJUNOK_clean_linker_0, # of connection points: 2
#     Edge 57, Type (0, 0), BuildingBlock: AJUNOK_clean_linker_0, # of connection points: 2
#     Edge 58, Type (0, 0), BuildingBlock: AJUNOK_clean_linker_0, # of connection points: 2
#     Edge 59, Type (0, 0), BuildingBlock: AJUNOK_clean_linker_0, # of connection points: 2
#     Edge 60, Type (0, 0), BuildingBlock: AJUNOK_clean_linker_0, # of connection points: 2
#     Edge 61, Type (0, 0), BuildingBlock: AJUNOK_clean_linker_0, # of connection points: 2
#     Edge 62, Type (0, 0), BuildingBlock: AJUNOK_clean_linker_0, # of connection points: 2
#     Edge 63, Type (0, 0), BuildingBlock: AJUNOK_clean_linker_0, # of connection points: 2
#     Edge 64, Type (0, 0), BuildingBlock: AJUNOK_clean_linker_0, # of connection points: 2
#     Edge 65, Type (0, 0), BuildingBlock: AJUNOK_clean_linker_0, # of connection points: 2
#     Edge 66, Type (0, 0), BuildingBlock: AJUNOK_clean_linker_0, # of connection points: 2
#     Edge 67, Type (0, 0), BuildingBlock: AJUNOK_clean_linker_0, # of connection points: 2
#     Edge 68, Type (0, 0), BuildingBlock: AJUNOK_clean_linker_0, # of connection points: 2
#     Edge 69, Type (0, 0), BuildingBlock: AJUNOK_clean_linker_0, # of connection points: 2
#     Edge 70, Type (0, 0), BuildingBlock: AJUNOK_clean_linker_0, # of connection points: 2
#     Edge 71, Type (0, 0), BuildingBlock: AJUNOK_clean_linker_0, # of connection points: 2
# Relax obj value: 0.229
# Max RMSD: 0.248
# Mean RMSD: 0.240
data_MOF--net-hbo--node1-CEKHIL_clean_sbu_0--edge1-AJUNOK_clean_linker_0
_symmetry_space_group_name_H-M    P1
_symmetry_Int_Tables_number       1
_symmetry_cell_setting            triclinic
loop_
_symmetry_equiv_pos_as_xyz
'x, y, z'
_cell_length_a     38.711307
_cell_length_b     38.173572
_cell_length_c     38.1843
_cell_angle_alpha  90.026634
_cell_angle_beta   89.894231
_cell_angle_gamma 89.341727
loop_
_atom_site_label
_atom_site_type_symbol
_atom_site_fract_x
_atom_site_fract_y
_atom_site_fract_z
_atom_type_partial_charge
Co0 Co 0.12171 0.3483 0.24093 0.0
O1 O 0.07799 0.36388 0.25805 0.0
O2 O 0.08932 0.35229 0.20221 0.0
C3 C 0.1317 0.30636 0.28069 0.0
O4 O 0.16494 0.33052 0.21562 0.0
Co5 Co 0.18407 0.36239 0.28996 0.0
O6 O 0.20847 0.33296 0.25488 0.0
C7 C 0.15345 0.42056 0.25118 0.0
C8 C 0.06724 0.36252 0.22602 0.0
C9 C 0.19639 0.32419 0.22512 0.0
O10 O 0.13557 0.3983 0.23404 0.0
O11 O 0.17226 0.41213 0.27743 0.0
O12 O 0.11188 0.30043 0.25402 0.0
O13 O 0.14022 0.33879 0.28511 0.0
Co14 Co 0.11997 0.65842 0.73843 0.0
O15 O 0.07288 0.6512 0.72476 0.0
O16 O 0.09106 0.65571 0.77956 0.0
C17 C 0.1337 0.70167 0.70136 0.0
O18 O 0.166 0.66797 0.76217 0.0
Co19 Co 0.17907 0.64098 0.68612 0.0
O20 O 0.20789 0.6656 0.72113 0.0
C21 C 0.14186 0.58362 0.71895 0.0
C22 C 0.06553 0.65126 0.75798 0.0
C23 C 0.19729 0.67301 0.75192 0.0
O24 O 0.12781 0.60607 0.73986 0.0
O25 O 0.16101 0.59251 0.6932 0.0
O26 O 0.11587 0.70843 0.72948 0.0
O27 O 0.13731 0.6687 0.69395 0.0
Co28 Co 0.88434 0.64322 0.23484 0.0
O29 O 0.93138 0.62912 0.24263 0.0
O30 O 0.90689 0.63432 0.19039 0.0
C31 C 0.88448 0.6894 0.27139 0.0
O32 O 0.83688 0.65857 0.21686 0.0
Co33 Co 0.83098 0.64349 0.29636 0.0
O34 O 0.80051 0.66741 0.26221 0.0
C35 C 0.85374 0.57681 0.26405 0.0
C36 C 0.93438 0.62751 0.20883 0.0
C37 C 0.80759 0.66882 0.22964 0.0
O38 O 0.86934 0.59304 0.23918 0.0
O39 O 0.83986 0.59228 0.29037 0.0
O40 O 0.89664 0.69248 0.23982 0.0
O41 O 0.87591 0.65818 0.28048 0.0
Co42 Co 0.88282 0.33575 0.72316 0.0
O43 O 0.93117 0.34124 0.71358 0.0
O44 O 0.90807 0.33739 0.7667 0.0
C45 C 0.87038 0.29301 0.68475 0.0
O46 O 0.83449 0.32895 0.74294 0.0
Co47 Co 0.82932 0.35617 0.66649 0.0
O48 O 0.79621 0.33366 0.69898 0.0
C49 C 0.86506 0.41174 0.70369 0.0
C50 C 0.93536 0.34161 0.74734 0.0
C51 C 0.80362 0.32637 0.73068 0.0
O52 O 0.87715 0.3882 0.72446 0.0
O53 O 0.84733 0.40422 0.67653 0.0
O54 O 0.8855 0.28562 0.71426 0.0
O55 O 0.86879 0.3261 0.67722 0.0
Co56 Co 0.22192 0.13859 0.37046 0.0
O57 O 0.19963 0.14044 0.41488 0.0
O58 O 0.25578 0.13166 0.40738 0.0
C59 C 0.19597 0.1869 0.34915 0.0
O60 O 0.25343 0.13688 0.32761 0.0
Co61 Co 0.17642 0.12645 0.30502 0.0
O62 O 0.22003 0.13512 0.27933 0.0
C63 C 0.19191 0.06738 0.35163 0.0
C64 C 0.2298 0.13583 0.4288 0.0
C65 C 0.24947 0.13686 0.29409 0.0
O66 O 0.21366 0.08674 0.36782 0.0
O67 O 0.17204 0.07916 0.32751 0.0
O68 O 0.2231 0.18936 0.36884 0.0
O69 O 0.1836 0.15572 0.3458 0.0
Co70 Co 0.37331 0.77006 0.84166 0.0
O71 O 0.42075 0.77966 0.85156 0.0
O72 O 0.39742 0.72687 0.85284 0.0
C73 C 0.36959 0.80252 0.7926 0.0
O74 O 0.32581 0.74991 0.83114 0.0
Co75 Co 0.31823 0.83029 0.84039 0.0
O76 O 0.28784 0.79383 0.82085 0.0
C77 C 0.34707 0.8055 0.90751 0.0
C78 C 0.42474 0.74615 0.85596 0.0
C79 C 0.29579 0.76136 0.82167 0.0
O80 O 0.36107 0.77865 0.89245 0.0
O81 O 0.33257 0.83052 0.89057 0.0
O82 O 0.38268 0.77103 0.79132 0.0
O83 O 0.36264 0.8141 0.82353 0.0
Co84 Co 0.79136 0.84963 0.36727 0.0
O85 O 0.81274 0.85113 0.41225 0.0
O86 O 0.75621 0.85167 0.40363 0.0
C87 C 0.82426 0.80575 0.34644 0.0
O88 O 0.76047 0.84673 0.32417 0.0
Co89 Co 0.83486 0.86716 0.30111 0.0
O90 O 0.7932 0.85156 0.27563 0.0
C91 C 0.81026 0.92403 0.34699 0.0
C92 C 0.78193 0.85093 0.42557 0.0
C93 C 0.76426 0.8463 0.29062 0.0
O94 O 0.79204 0.90196 0.36417 0.0
O95 O 0.83144 0.91504 0.32273 0.0
O96 O 0.79765 0.79927 0.36602 0.0
O97 O 0.83199 0.83839 0.34272 0.0
Co98 Co 0.62858 0.2413 0.841 0.0
O99 O 0.58299 0.22834 0.8553 0.0
O100 O 0.60075 0.28302 0.84861 0.0
C101 C 0.63407 0.20428 0.79563 0.0
O102 O 0.67324 0.26421 0.82472 0.0
Co103 Co 0.6889 0.1864 0.84494 0.0
O104 O 0.7148 0.22252 0.81922 0.0
C105 C 0.66084 0.21784 0.90945 0.0
C106 C 0.57592 0.26163 0.85623 0.0
C107 C 0.70369 0.2538 0.81534 0.0
O108 O 0.64374 0.24066 0.89151 0.0
O109 O 0.6778 0.19243 0.89559 0.0
O110 O 0.617 0.23355 0.79209 0.0
O111 O 0.64306 0.19655 0.82727 0.0
Co112 Co 0.25855 0.87404 0.63279 0.0
O113 O 0.27477 0.92018 0.62169 0.0
O114 O 0.21998 0.9064 0.63034 0.0
C115 C 0.29756 0.8632 0.67509 0.0
O116 O 0.23197 0.83028 0.64622 0.0
Co117 Co 0.30553 0.8077 0.62345 0.0
O118 O 0.26677 0.78259 0.64547 0.0
C119 C 0.27125 0.84018 0.56197 0.0
C120 C 0.24281 0.93047 0.62462 0.0
C121 C 0.2376 0.79733 0.65104 0.0
O122 O 0.25455 0.86199 0.58157 0.0
O123 O 0.29428 0.81886 0.5736 0.0
O124 O 0.26995 0.88164 0.68169 0.0
O125 O 0.30219 0.85436 0.64277 0.0
Co126 Co 0.63113 0.77764 0.1513 0.0
O127 O 0.58712 0.80038 0.14889 0.0
O128 O 0.59485 0.74277 0.14905 0.0
C129 C 0.65412 0.80987 0.19456 0.0
O130 O 0.67396 0.74624 0.15531 0.0
Co131 Co 0.69403 0.82233 0.12894 0.0
O132 O 0.71993 0.7814 0.14778 0.0
C133 C 0.64908 0.79464 0.0748 0.0
C134 C 0.57365 0.7695 0.14761 0.0
C135 C 0.7068 0.75185 0.15536 0.0
O136 O 0.63387 0.77684 0.09869 0.0
O137 O 0.67221 0.81729 0.08161 0.0
O138 O 0.63303 0.78463 0.2018 0.0
O139 O 0.65589 0.81805 0.1617 0.0
Co140 Co 0.7396 0.12013 0.6346 0.0
O141 O 0.72037 0.07398 0.63223 0.0
O142 O 0.77632 0.08551 0.63146 0.0
C143 C 0.7064 0.13893 0.67941 0.0
O144 O 0.76919 0.16396 0.63821 0.0
Co145 Co 0.69433 0.18643 0.62087 0.0
O146 O 0.73624 0.21272 0.63343 0.0
C147 C 0.71333 0.13921 0.56302 0.0
C148 C 0.75198 0.0623 0.63147 0.0
C149 C 0.76532 0.19754 0.63816 0.0
O150 O 0.73666 0.1244 0.58207 0.0
O151 O 0.69149 0.16164 0.57491 0.0
O152 O 0.73406 0.12027 0.6853 0.0
O153 O 0.69836 0.14314 0.64691 0.0
Co154 Co 0.37246 0.21276 0.15261 0.0
O155 O 0.41883 0.19615 0.14754 0.0
O156 O 0.40332 0.25233 0.14998 0.0
C157 C 0.35493 0.17681 0.19556 0.0
O158 O 0.32654 0.23866 0.15822 0.0
Co159 Co 0.31419 0.16229 0.13118 0.0
O160 O 0.28389 0.19976 0.15081 0.0
C161 C 0.35577 0.19435 0.0766 0.0
C162 C 0.42757 0.22881 0.14559 0.0
C163 C 0.29433 0.23038 0.15846 0.0
O164 O 0.36829 0.2141 0.10039 0.0
O165 O 0.33537 0.16916 0.08358 0.0
O166 O 0.37296 0.20441 0.20288 0.0
O167 O 0.35307 0.16924 0.16255 0.0
Co168 Co 0.85158 0.60872 0.77399 0.0
O169 O 0.86148 0.5605 0.78487 0.0
O170 O 0.85944 0.58285 0.73126 0.0
C171 C 0.80501 0.61607 0.80859 0.0
O172 O 0.84114 0.65644 0.75268 0.0
Co173 Co 0.8585 0.66599 0.83097 0.0
O174 O 0.83841 0.69754 0.79487 0.0
C175 C 0.92125 0.63742 0.79797 0.0
C176 C 0.86399 0.55566 0.75129 0.0
C177 C 0.83519 0.68804 0.76305 0.0
O178 O 0.90208 0.61999 0.77694 0.0
O179 O 0.90901 0.65552 0.82344 0.0
O180 O 0.80237 0.6008 0.77837 0.0
O181 O 0.8363 0.62219 0.81883 0.0
Co182 Co 0.867 0.35331 0.25132 0.0
O183 O 0.91283 0.36269 0.26708 0.0
O184 O 0.89744 0.35726 0.21131 0.0
C185 C 0.85446 0.30946 0.28845 0.0
O186 O 0.82242 0.34246 0.22567 0.0
Co187 Co 0.80452 0.36603 0.30134 0.0
O188 O 0.77843 0.34166 0.26429 0.0
C189 C 0.84048 0.42589 0.27049 0.0
C190 C 0.92149 0.36318 0.23422 0.0
C191 C 0.79075 0.33628 0.23377 0.0
O192 O 0.85706 0.4051 0.24986 0.0
O193 O 0.82062 0.41512 0.29494 0.0
O194 O 0.87294 0.30342 0.26058 0.0
O195 O 0.84856 0.34217 0.29518 0.0
Co196 Co 0.14726 0.38183 0.77821 0.0
O197 O 0.14036 0.42991 0.79133 0.0
O198 O 0.14132 0.41029 0.73675 0.0
C199 C 0.19294 0.37061 0.81277 0.0
O200 O 0.15495 0.33422 0.7551 0.0
Co201 Co 0.13519 0.32411 0.83364 0.0
O202 O 0.15353 0.29247 0.7967 0.0
C203 C 0.07513 0.3563 0.79917 0.0
C204 C 0.13856 0.43677 0.7581 0.0
C205 C 0.15783 0.30206 0.76505 0.0
O206 O 0.09615 0.37371 0.78007 0.0
O207 O 0.08533 0.33636 0.82414 0.0
O208 O 0.19674 0.38653 0.78303 0.0
O209 O 0.16124 0.36597 0.8227 0.0
Co210 Co 0.15129 0.623 0.19237 0.0
O211 O 0.15213 0.57574 0.17507 0.0
O212 O 0.14907 0.59103 0.23108 0.0
C213 C 0.19494 0.64444 0.16036 0.0
O214 O 0.15179 0.66819 0.22045 0.0
Co215 Co 0.13116 0.68491 0.14459 0.0
O216 O 0.14824 0.71411 0.18389 0.0
C217 C 0.07695 0.63808 0.16896 0.0
C218 C 0.15041 0.56628 0.20774 0.0
C219 C 0.15322 0.70128 0.21429 0.0
O220 O 0.09937 0.62388 0.18941 0.0
O221 O 0.08492 0.66156 0.14654 0.0
O222 O 0.20108 0.62577 0.18814 0.0
O223 O 0.16295 0.64533 0.15025 0.0
Co224 Co 0.76403 0.83799 0.63558 0.0
O225 O 0.79346 0.84263 0.59582 0.0
O226 O 0.73645 0.8395 0.59305 0.0
C227 C 0.79367 0.79501 0.66265 0.0
O228 O 0.72648 0.83065 0.67241 0.0
Co229 Co 0.795 0.85929 0.70729 0.0
O230 O 0.75274 0.8363 0.72488 0.0
C231 C 0.77565 0.91413 0.65777 0.0
C232 C 0.76591 0.84177 0.57668 0.0
C233 C 0.72684 0.8281 0.70611 0.0
O234 O 0.76049 0.89063 0.63946 0.0
O235 O 0.79414 0.90669 0.68454 0.0
O236 O 0.77291 0.78794 0.63702 0.0
O237 O 0.7996 0.82804 0.66733 0.0
Co238 Co 0.62829 0.22714 0.13179 0.0
O239 O 0.58466 0.20742 0.12078 0.0
O240 O 0.59408 0.26434 0.12646 0.0
C241 C 0.64064 0.19129 0.17686 0.0
O242 O 0.67037 0.256 0.14456 0.0
Co243 Co 0.69412 0.17967 0.12337 0.0
O244 O 0.71674 0.21963 0.14636 0.0
C245 C 0.66058 0.21015 0.06103 0.0
C246 C 0.57232 0.23911 0.12119 0.0
C247 C 0.70256 0.24961 0.15072 0.0
O248 O 0.64045 0.22885 0.08048 0.0
O249 O 0.68146 0.18697 0.07322 0.0
O250 O 0.6206 0.21839 0.18128 0.0
O251 O 0.64914 0.18458 0.14479 0.0
Co252 Co 0.2332 0.15384 0.63859 0.0
O253 O 0.20702 0.14939 0.59665 0.0
O254 O 0.26412 0.15308 0.59867 0.0
C255 C 0.20087 0.19557 0.66468 0.0
O256 O 0.26808 0.16083 0.67776 0.0
Co257 Co 0.19874 0.13045 0.70772 0.0
O258 O 0.23926 0.15387 0.72863 0.0
C259 C 0.21968 0.07737 0.65693 0.0
C260 C 0.23625 0.14967 0.57999 0.0
C261 C 0.26598 0.16284 0.71138 0.0
O262 O 0.23703 0.10122 0.64135 0.0
O263 O 0.19955 0.08416 0.68272 0.0
O264 O 0.22325 0.20383 0.64073 0.0
O265 O 0.19542 0.16231 0.66807 0.0
Co266 Co 0.36761 0.78087 0.12932 0.0
O267 O 0.4112 0.80346 0.12998 0.0
O268 O 0.40463 0.74661 0.12145 0.0
C269 C 0.34815 0.80666 0.17874 0.0
O270 O 0.32548 0.74914 0.12875 0.0
Co271 Co 0.30124 0.82807 0.12281 0.0
O272 O 0.27738 0.78322 0.13035 0.0
C273 C 0.34338 0.81175 0.06005 0.0
C274 C 0.42539 0.77285 0.1261 0.0
C275 C 0.29236 0.75331 0.12997 0.0
O276 O 0.36242 0.79006 0.07749 0.0
O277 O 0.32058 0.83157 0.07445 0.0
O278 O 0.36785 0.77902 0.18035 0.0
O279 O 0.34352 0.8194 0.14782 0.0
Co280 Co 0.7471 0.12323 0.343 0.0
O281 O 0.73585 0.07485 0.34816 0.0
O282 O 0.78886 0.09643 0.35027 0.0
C283 C 0.71367 0.13344 0.29597 0.0
O284 O 0.76897 0.17097 0.33734 0.0
Co285 Co 0.69108 0.18146 0.35124 0.0
O286 O 0.72853 0.21381 0.33787 0.0
C287 C 0.71478 0.14113 0.41239 0.0
C288 C 0.76884 0.06935 0.35157 0.0
C289 C 0.75975 0.20331 0.33484 0.0
O290 O 0.74105 0.12999 0.39485 0.0
O291 O 0.6902 0.15908 0.39866 0.0
O292 O 0.74417 0.11929 0.29222 0.0
O293 O 0.70351 0.138 0.32787 0.0
Co294 Co 0.35895 0.26463 0.88035 0.0
O295 O 0.36534 0.27529 0.92904 0.0
O296 O 0.36517 0.22177 0.9061 0.0
C297 C 0.31295 0.29991 0.87117 0.0
O298 O 0.35158 0.24272 0.83262 0.0
Co299 Co 0.36844 0.31965 0.82235 0.0
O300 O 0.34762 0.28397 0.79111 0.0
C301 C 0.42955 0.29136 0.8584 0.0
C302 C 0.36749 0.24159 0.93362 0.0
C303 C 0.34505 0.25224 0.80105 0.0
O304 O 0.41014 0.26819 0.8725 0.0
O305 O 0.41756 0.31621 0.8393 0.0
O306 O 0.30924 0.26932 0.88546 0.0
O307 O 0.34457 0.3096 0.86616 0.0
Co308 Co 0.23453 0.86463 0.34302 0.0
O309 O 0.24787 0.9104 0.35799 0.0
O310 O 0.19384 0.89362 0.34974 0.0
C311 C 0.2727 0.8595 0.299 0.0
O312 O 0.21124 0.82023 0.32546 0.0
Co313 Co 0.28651 0.80192 0.34745 0.0
O314 O 0.25193 0.77811 0.3182 0.0
C315 C 0.2558 0.8316 0.41163 0.0
C316 C 0.21521 0.91842 0.35775 0.0
C317 C 0.2213 0.78996 0.31415 0.0
O318 O 0.23358 0.849 0.3934 0.0
O319 O 0.28047 0.81358 0.39806 0.0
O320 O 0.24398 0.87685 0.29454 0.0
O321 O 0.27881 0.84923 0.33062 0.0
Co322 Co 0.64074 0.72548 0.87694 0.0
O323 O 0.63605 0.71455 0.92584 0.0
O324 O 0.63654 0.76816 0.90362 0.0
C325 C 0.68543 0.68904 0.86568 0.0
O326 O 0.64678 0.74749 0.82889 0.0
Co327 Co 0.62715 0.67107 0.81935 0.0
O328 O 0.64644 0.70652 0.78687 0.0
C329 C 0.56819 0.70263 0.85647 0.0
C330 C 0.63504 0.74819 0.93111 0.0
C331 C 0.65054 0.73809 0.79674 0.0
O332 O 0.58927 0.72382 0.87114 0.0
O333 O 0.57833 0.6775 0.83663 0.0
O334 O 0.69035 0.71944 0.87997 0.0
O335 O 0.65342 0.68009 0.86188 0.0
C336 C 0.15901 0.51967 0.2527 0.0
C337 C 0.15056 0.52905 0.21811 0.0
C338 C 0.16019 0.48452 0.26313 0.0
C339 C 0.15245 0.45749 0.23948 0.0
H340 H 0.16517 0.53959 0.27184 0.0
H341 H 0.16689 0.47855 0.29002 0.0
S342 S 0.12831 0.46833 0.14591 0.0
N343 N 0.1341 0.50862 0.16024 0.0
N344 N 0.136 0.44258 0.17977 0.0
C345 C 0.14367 0.46658 0.20483 0.0
C346 C 0.14283 0.50235 0.19415 0.0
C347 C 0.97062 0.62883 0.75659 0.0
C348 C 0.95882 0.63881 0.7901 0.0
C349 C 0.00517 0.63267 0.74679 0.0
C350 C 0.02961 0.64623 0.77015 0.0
H351 H 0.95287 0.61882 0.7372 0.0
H352 H 0.01266 0.62511 0.72047 0.0
S353 S 0.01297 0.67427 0.86178 0.0
N354 N 0.97494 0.66156 0.84731 0.0
N355 N 0.04015 0.66837 0.82886 0.0
C356 C 0.01862 0.65528 0.80415 0.0
C357 C 0.98319 0.65171 0.8141 0.0
C358 C 0.81981 0.48654 0.2824 0.0
C359 C 0.84396 0.46417 0.266 0.0
C360 C 0.82297 0.52278 0.28073 0.0
C361 C 0.85042 0.53838 0.26258 0.0
H362 H 0.79824 0.47609 0.297 0.0
H363 H 0.80371 0.5387 0.29411 0.0
S364 S 0.92042 0.49184 0.21437 0.0
N365 N 0.89607 0.46028 0.23016 0.0
N366 N 0.90198 0.52892 0.22717 0.0
C367 C 0.87438 0.51655 0.24518 0.0
C368 C 0.87117 0.47934 0.24688 0.0
C369 C 0.01483 0.33287 0.8047 0.0
C370 C 0.03796 0.35658 0.78911 0.0
C371 C 0.98109 0.32896 0.79191 0.0
C372 C 0.96953 0.34816 0.76277 0.0
H373 H 0.02313 0.31627 0.82615 0.0
H374 H 0.96447 0.30974 0.80396 0.0
S375 S 0.01706 0.4177 0.71602 0.0
N376 N 0.0446 0.40291 0.74561 0.0
N377 N 0.98174 0.39447 0.72125 0.0
C378 C 0.99144 0.37323 0.74816 0.0
C379 C 0.02549 0.37776 0.76145 0.0
C380 C 0.12721 0.49999 0.77004 0.0
C381 C 0.13565 0.47346 0.74582 0.0
C382 C 0.12802 0.53538 0.76066 0.0
C383 C 0.1377 0.5458 0.72672 0.0
H384 H 0.12064 0.49348 0.79683 0.0
H385 H 0.12218 0.5547 0.78066 0.0
S386 S 0.15881 0.4864 0.65241 0.0
N387 N 0.15137 0.45981 0.6856 0.0
N388 N 0.15317 0.52646 0.6679 0.0
C389 C 0.14473 0.51947 0.70173 0.0
C390 C 0.14358 0.48329 0.71127 0.0
C391 C 0.979 0.64579 0.16582 0.0
C392 C 0.96882 0.62323 0.19287 0.0
C393 C 0.01395 0.64894 0.15667 0.0
C394 C 0.03986 0.62939 0.17409 0.0
H395 H 0.96024 0.66304 0.15347 0.0
H396 H 0.02075 0.66827 0.13716 0.0
S397 S 0.02479 0.56071 0.24134 0.0
N398 N 0.98604 0.57727 0.23324 0.0
N399 N 0.05158 0.58211 0.21559 0.0
C400 C 0.0293 0.60411 0.19876 0.0
C401 C 0.9938 0.60135 0.2083 0.0
C402 C 0.85163 0.51054 0.70601 0.0
C403 C 0.86902 0.52023 0.7367 0.0
C404 C 0.85167 0.47561 0.69463 0.0
C405 C 0.86944 0.44919 0.71335 0.0
H406 H 0.83641 0.5297 0.69166 0.0
H407 H 0.83653 0.46918 0.67173 0.0
S408 S 0.92453 0.46298 0.79178 0.0
N409 N 0.90789 0.50205 0.78322 0.0
N410 N 0.90901 0.43659 0.76154 0.0
C411 C 0.88916 0.45929 0.74265 0.0
C412 C 0.88863 0.49475 0.75444 0.0
C413 C 0.97485 0.34675 0.20086 0.0
C414 C 0.95753 0.36947 0.22419 0.0
C415 C 0.0111 0.34691 0.19831 0.0
C416 C 0.03059 0.36997 0.21886 0.0
H417 H 0.96065 0.32687 0.18686 0.0
H418 H 0.02393 0.32693 0.18268 0.0
S419 S 0.99649 0.44006 0.27706 0.0
N420 N 0.96185 0.41932 0.26336 0.0
N421 N 0.02967 0.42016 0.25806 0.0
C422 C 0.01312 0.39536 0.23902 0.0
C423 C 0.97656 0.39494 0.24188 0.0
C424 C 0.20537 0.14955 0.52342 0.0
C425 C 0.23673 0.14583 0.54151 0.0
C426 C 0.20375 0.14559 0.48725 0.0
C427 C 0.23343 0.13774 0.4673 0.0
H428 H 0.18162 0.15584 0.53722 0.0
H429 H 0.17879 0.14915 0.4749 0.0
S430 S 0.3219 0.12361 0.50214 0.0
N431 N 0.29824 0.13263 0.53712 0.0
N432 N 0.29522 0.12532 0.46843 0.0
C433 C 0.26508 0.1335 0.48495 0.0
C434 C 0.26674 0.13757 0.52219 0.0
C435 C 0.37034 0.78855 0.96668 0.0
C436 C 0.34652 0.80772 0.94628 0.0
C437 C 0.36991 0.79071 0.00341 0.0
C438 C 0.34557 0.81205 0.02114 0.0
H439 H 0.38952 0.77181 0.95422 0.0
H440 H 0.38856 0.77519 0.01797 0.0
S441 S 0.27674 0.86675 0.97953 0.0
N442 N 0.29735 0.8481 0.94653 0.0
N443 N 0.29671 0.85256 0.01494 0.0
C444 C 0.32171 0.8315 0.00084 0.0
C445 C 0.32212 0.8292 0.96363 0.0
C446 C 0.74572 0.85718 0.4802 0.0
C447 C 0.77713 0.84766 0.4639 0.0
C448 C 0.7417 0.85465 0.51678 0.0
C449 C 0.76896 0.8425 0.53806 0.0
H450 H 0.72438 0.86718 0.46471 0.0
H451 H 0.71745 0.86295 0.52849 0.0
S452 S 0.8547 0.80992 0.50768 0.0
N453 N 0.83474 0.82266 0.47169 0.0
N454 N 0.82719 0.81791 0.5398 0.0
C455 C 0.79995 0.83173 0.52184 0.0
C456 C 0.80403 0.83432 0.48492 0.0
C457 C 0.6881 0.20166 0.00276 0.0
C458 C 0.66055 0.21559 0.02262 0.0
C459 C 0.68837 0.20387 0.96637 0.0
C460 C 0.66114 0.22014 0.94806 0.0
H461 H 0.70966 0.18841 0.01531 0.0
H462 H 0.71 0.1921 0.95246 0.0
S463 S 0.5837 0.26284 0.98742 0.0
N464 N 0.60591 0.24792 0.02128 0.0
N465 N 0.60652 0.25205 0.95237 0.0
C466 C 0.63402 0.23559 0.96744 0.0
C467 C 0.63369 0.23328 0.00482 0.0
C468 C 0.26848 0.80525 0.46951 0.0
C469 C 0.25434 0.83321 0.45021 0.0
C470 C 0.2728 0.80765 0.50564 0.0
C471 C 0.26328 0.83819 0.52413 0.0
H472 H 0.27716 0.7815 0.45647 0.0
H473 H 0.28435 0.78542 0.51902 0.0
S474 S 0.22296 0.91819 0.48605 0.0
N475 N 0.22902 0.89182 0.45222 0.0
N476 N 0.23717 0.89641 0.52062 0.0
C477 C 0.24752 0.86583 0.50545 0.0
C478 C 0.24302 0.86332 0.46838 0.0
C479 C 0.62897 0.75215 0.02983 0.0
C480 C 0.64182 0.78559 0.03781 0.0
C481 C 0.62573 0.74083 -0.00483 0.0
C482 C 0.63467 0.76264 0.96704 0.0
H483 H 0.62267 0.73386 0.0505 0.0
H484 H 0.61688 0.71442 0.99048 0.0
S485 S 0.66569 0.85408 0.97351 0.0
N486 N 0.66089 0.84146 0.01457 0.0
N487 N 0.65429 0.82032 0.94925 0.0
C488 C 0.64567 0.79687 0.97447 0.0
C489 C 0.64942 0.80828 0.00989 0.0
C490 C 0.74404 0.12889 0.50632 0.0
C491 C 0.71292 0.13286 0.52499 0.0
C492 C 0.74438 0.12989 0.46961 0.0
C493 C 0.7136 0.13489 0.45055 0.0
H494 H 0.76843 0.12709 0.52012 0.0
H495 H 0.76906 0.12856 0.45624 0.0
S496 S 0.62481 0.13926 0.48736 0.0
N497 N 0.65028 0.13674 0.5219 0.0
N498 N 0.6508 0.13847 0.45304 0.0
C499 C 0.68212 0.136 0.46898 0.0
C500 C 0.68182 0.13501 0.5062 0.0
C501 C 0.34576 0.18626 0.01222 0.0
C502 C 0.36327 0.20332 0.03953 0.0
C503 C 0.3489 0.19756 0.97746 0.0
C504 C 0.36926 0.22656 0.96894 0.0
H505 H 0.32843 0.16488 0.01777 0.0
H506 H 0.33381 0.1847 0.95744 0.0
S507 S 0.42537 0.27639 0.02897 0.0
N508 N 0.40589 0.2477 0.05435 0.0
N509 N 0.4105 0.26936 0.98913 0.0
C510 C 0.3886 0.24246 -0.00466 0.0
C511 C 0.38598 0.23068 0.03062 0.0
C512 C 0.51479 0.21877 0.10355 0.0
C513 C 0.53458 0.24432 0.12042 0.0
C514 C 0.47967 0.21542 0.11069 0.0
C515 C 0.4629 0.23766 0.13476 0.0
H516 H 0.52702 0.19968 0.08639 0.0
H517 H 0.46584 0.19422 0.09833 0.0
S518 S 0.50179 0.31215 0.18199 0.0
N519 N 0.53417 0.2948 0.15936 0.0
N520 N 0.46741 0.28877 0.17233 0.0
C521 C 0.48145 0.26548 0.14931 0.0
C522 C 0.51756 0.26879 0.14219 0.0
C523 C 0.51981 0.74169 0.87624 0.0
C524 C 0.53059 0.70993 0.86062 0.0
C525 C 0.48513 0.75217 0.87627 0.0
C526 C 0.45962 0.73115 0.86124 0.0
H527 H 0.53841 0.75957 0.88724 0.0
H528 H 0.47841 0.77758 0.88717 0.0
S529 S 0.47298 0.64364 0.82093 0.0
N530 N 0.51209 0.65597 0.8325 0.0
N531 N 0.44663 0.67576 0.83306 0.0
C532 C 0.4694 0.69825 0.84772 0.0
C533 C 0.50496 0.68764 0.84725 0.0
C534 C 0.77108 0.97204 0.36709 0.0
C535 C 0.80316 0.9617 0.35281 0.0
C536 C 0.76088 0.0072 0.36787 0.0
C537 C 0.78257 0.03344 0.35498 0.0
H538 H 0.75281 0.95275 0.37617 0.0
H539 H 0.73536 0.01374 0.37776 0.0
S540 S 0.8709 0.02093 0.31902 0.0
N541 N 0.85789 0.98095 0.32835 0.0
N542 N 0.83873 0.04739 0.33035 0.0
C543 C 0.81563 0.02391 0.34279 0.0
C544 C 0.8259 0.98792 0.34153 0.0
C545 C 0.49007 0.30661 0.84064 0.0
C546 C 0.46761 0.28759 0.86247 0.0
C547 C 0.52579 0.29993 0.8406 0.0
C548 C 0.54018 0.27382 0.86216 0.0
H549 H 0.47993 0.32569 0.82224 0.0
H550 H 0.54187 0.31373 0.82204 0.0
S551 S 0.49431 0.22168 0.92911 0.0
N552 N 0.46366 0.24538 0.91023 0.0
N553 N 0.53058 0.23233 0.90916 0.0
C554 C 0.51862 0.25649 0.88587 0.0
C555 C 0.48238 0.26352 0.88631 0.0
C556 C 0.22625 0.97852 0.37942 0.0
C557 C 0.20403 0.95521 0.36243 0.0
C558 C 0.22068 0.01471 0.37778 0.0
C559 C 0.19286 0.02911 0.35865 0.0
H560 H 0.24912 0.96882 0.39278 0.0
H561 H 0.23958 0.03145 0.39 0.0
S562 S 0.124 0.97874 0.31424 0.0
N563 N 0.15075 0.94851 0.32964 0.0
N564 N 0.1402 0.01672 0.32624 0.0
C565 C 0.16882 0.00588 0.34393 0.0
C566 C 0.1744 0.96887 0.34594 0.0
C567 C 0.51527 0.79445 0.15625 0.0
C568 C 0.53579 0.76642 0.14418 0.0
C569 C 0.47984 0.79567 0.15021 0.0
C570 C 0.46307 0.76888 0.13178 0.0
H571 H 0.52674 0.81613 0.1702 0.0
H572 H 0.46553 0.81812 0.16017 0.0
S573 S 0.50484 0.68894 0.09526 0.0
N574 N 0.53693 0.71057 0.11347 0.0
N575 N 0.46952 0.71271 0.10228 0.0
C576 C 0.48295 0.73996 0.12038 0.0
C577 C 0.5195 0.73875 0.12656 0.0
C578 C 0.79438 0.97682 0.65917 0.0
C579 C 0.7705 0.95153 0.64815 0.0
C580 C 0.78916 0.01254 0.65198 0.0
C581 C 0.75954 0.02436 0.63409 0.0
H582 H 0.81715 0.96905 0.6738 0.0
H583 H 0.80775 0.03112 0.66179 0.0
S584 S 0.69016 0.96904 0.59764 0.0
N585 N 0.71697 0.94098 0.61658 0.0
N586 N 0.70699 0.00809 0.60381 0.0
C587 C 0.73597 -0.0006 0.62204 0.0
C588 C 0.74151 0.96301 0.62884 0.0
C589 C 0.20215 0.01428 0.6586 0.0
C590 C 0.22399 0.04036 0.64519 0.0
C591 C 0.20694 0.9789 0.64978 0.0
C592 C 0.23402 0.96812 0.62755 0.0
H593 H 0.18155 0.02105 0.6767 0.0
H594 H 0.19037 0.95972 0.66195 0.0
S595 S 0.29597 0.0258 0.58193 0.0
N596 N 0.27186 0.05281 0.60559 0.0
N597 N 0.28106 0.98623 0.5898 0.0
C598 C 0.25501 0.99387 0.61257 0.0
C599 C 0.24994 0.02999 0.62117 0.0
C600 C 0.13854 0.24238 0.29102 0.0
C601 C 0.14727 0.27687 0.30033 0.0
C602 C 0.15432 0.21348 0.30706 0.0
C603 C 0.17959 0.21793 0.33291 0.0
H604 H 0.11962 0.23748 0.27079 0.0
H605 H 0.14691 0.18749 0.29877 0.0
S606 S 0.2105 0.30267 0.36819 0.0
N607 N 0.18175 0.3138 0.33821 0.0
N608 N 0.21185 0.25943 0.36819 0.0
C609 C 0.18825 0.25224 0.34295 0.0
C610 C 0.17194 0.28173 0.32674 0.0
C611 C 0.28073 0.70571 0.79099 0.0
C612 C 0.2699 0.7361 0.80896 0.0
C613 C 0.25684 0.68426 0.77398 0.0
C614 C 0.22122 0.69193 0.77509 0.0
H615 H 0.30799 0.69947 0.7884 0.0
H616 H 0.2664 0.66212 0.75891 0.0
S617 S 0.17929 0.76681 0.82097 0.0
N618 N 0.22095 0.77162 0.82853 0.0
N619 N 0.17611 0.73094 0.79708 0.0
C620 C 0.20988 0.7211 0.79458 0.0
C621 C 0.23422 0.7433 0.81136 0.0
C622 C 0.87275 0.75364 0.27763 0.0
C623 C 0.87404 0.71998 0.29264 0.0
C624 C 0.85795 0.78198 0.29583 0.0
C625 C 0.8437 0.77731 0.32933 0.0
H626 H 0.8819 0.75786 0.25115 0.0
H627 H 0.8562 0.80721 0.28296 0.0
S628 S 0.84569 0.69602 0.38235 0.0
N629 N 0.86386 0.68483 0.34479 0.0
N630 N 0.83529 0.73788 0.37844 0.0
C631 C 0.84666 0.74439 0.34538 0.0
C632 C 0.86209 0.71574 0.32716 0.0
C633 C 0.78462 0.29995 0.78747 0.0
C634 C 0.77606 0.31238 0.75379 0.0
C635 C 0.76034 0.28266 0.80825 0.0
C636 C 0.7264 0.27791 0.79654 0.0
H637 H 0.81068 0.3022 0.79743 0.0
H638 H 0.76846 0.27193 0.83322 0.0
S639 S 0.68983 0.3059 0.71142 0.0
N640 N 0.73028 0.31916 0.71028 0.0
N641 N 0.68482 0.2871 0.74999 0.0
C642 C 0.71685 0.29135 0.7638 0.0
C643 C 0.74163 0.30851 0.74227 0.0
C644 C 0.20622 0.74092 0.64841 0.0
C645 C 0.2088 0.77493 0.66218 0.0
C646 C 0.18037 0.7182 0.65965 0.0
C647 C 0.15652 0.72835 0.68566 0.0
H648 H 0.22456 0.73163 0.62894 0.0
H649 H 0.17995 0.69205 0.64868 0.0
S650 S 0.1516 0.8154 0.72916 0.0
N651 N 0.18464 0.81842 0.70195 0.0
N652 N 0.1363 0.77555 0.72383 0.0
C653 C 0.15812 0.76282 0.69884 0.0
C654 C 0.18424 0.78613 0.68696 0.0
C655 C 0.72137 0.70445 0.19784 0.0
C656 C 0.73078 0.72463 0.16869 0.0
C657 C 0.7462 0.68499 0.2164 0.0
C658 C 0.78124 0.68463 0.2062 0.0
H659 H 0.69517 0.7056 0.20786 0.0
H660 H 0.73807 0.67122 0.23975 0.0
S661 S 0.81804 0.72948 0.12868 0.0
N662 N 0.77665 0.74042 0.12828 0.0
N663 N 0.82326 0.70357 0.16292 0.0
C664 C 0.79042 0.70258 0.17549 0.0
C665 C 0.7652 0.72268 0.15683 0.0
C666 C 0.8194 0.20992 0.67127 0.0
C667 C 0.79546 0.2198 0.64541 0.0
C668 C 0.84507 0.23307 0.68229 0.0
C669 C 0.84799 0.26679 0.66756 0.0
H670 H 0.81712 0.18492 0.68445 0.0
H671 H 0.86168 0.22499 0.70367 0.0
S672 S 0.79566 0.30221 0.59402 0.0
N673 N 0.77882 0.26352 0.60223 0.0
N674 N 0.82782 0.30654 0.62197 0.0
C675 C 0.82603 0.27568 0.63954 0.0
C676 C 0.7995 0.25235 0.62879 0.0
C677 C 0.25559 0.3098 0.20394 0.0
C678 C 0.21984 0.30384 0.20214 0.0
C679 C 0.27938 0.28689 0.18816 0.0
C680 C 0.26839 0.25681 0.17028 0.0
H681 H 0.26539 0.3317 0.21884 0.0
H682 H 0.30664 0.29204 0.19152 0.0
S683 S 0.17717 0.23125 0.15525 0.0
N684 N 0.1743 0.26735 0.17894 0.0
N685 N 0.21888 0.22404 0.14908 0.0
C686 C 0.23251 0.25164 0.16657 0.0
C687 C 0.20826 0.27525 0.18249 0.0
C688 C 0.33123 0.17495 0.25646 0.0
C689 C 0.33199 0.16104 0.22225 0.0
C690 C 0.30572 0.1652 0.28057 0.0
C691 C 0.27988 0.14147 0.2712 0.0
H692 H 0.34947 0.19477 0.26427 0.0
H693 H 0.30504 0.17793 0.30594 0.0
S694 S 0.27391 0.09269 0.18742 0.0
N695 N 0.30756 0.11837 0.18223 0.0
N696 N 0.25908 0.10085 0.2272 0.0
C697 C 0.28179 0.12547 0.23806 0.0
C698 C 0.30803 0.135 0.21369 0.0
C699 C 0.35428 0.80272 0.72905 0.0
C700 C 0.35612 0.82057 0.76122 0.0
C701 C 0.33662 0.81741 0.70052 0.0
C702 C 0.3199 0.85016 0.70345 0.0
H703 H 0.36529 0.77665 0.72627 0.0
H704 H 0.3347 0.80226 0.67665 0.0
S705 S 0.32191 0.90996 0.77987 0.0
N706 N 0.34368 0.87482 0.79266 0.0
N707 N 0.30963 0.90178 0.73935 0.0
C708 C 0.32331 0.86914 0.73467 0.0
C709 C 0.3417 0.85451 0.76349 0.0
C710 C 0.73432 0.85088 0.23282 0.0
C711 C 0.73401 0.83945 0.2679 0.0
C712 C 0.70748 0.84274 0.20979 0.0
C713 C 0.67941 0.82242 0.22072 0.0
H714 H 0.75575 0.86592 0.22283 0.0
H715 H 0.70941 0.85153 0.18291 0.0
S716 S 0.66498 0.78786 0.31046 0.0
N717 N 0.70221 0.80835 0.31296 0.0
N718 N 0.65185 0.79275 0.26962 0.0
C719 C 0.67806 0.81191 0.25607 0.0
C720 C 0.70531 0.82049 0.27966 0.0
C721 C 0.69218 0.14405 0.74277 0.0
C722 C 0.68587 0.15466 0.70813 0.0
C723 C 0.67404 0.1591 0.77076 0.0
C724 C 0.64931 0.1858 0.76525 0.0
H725 H 0.71146 0.12406 0.74843 0.0
H726 H 0.68019 0.15024 0.79696 0.0
S727 S 0.62149 0.22151 0.67931 0.0
N728 N 0.6515 0.19201 0.66962 0.0
N729 N 0.61807 0.22099 0.72238 0.0
C730 C 0.64196 0.19597 0.73066 0.0
C731 C 0.66012 0.18027 0.70206 0.0
C732 C 0.82192 0.77624 0.71864 0.0
C733 C 0.80542 0.76732 0.68718 0.0
C734 C 0.83128 0.75047 0.74312 0.0
C735 C 0.82482 0.71476 0.73688 0.0
H736 H 0.82727 0.80336 0.72469 0.0
H737 H 0.8439 0.75863 0.76702 0.0
S738 S 0.78182 0.67759 0.65868 0.0
N739 N 0.78279 0.72013 0.6512 0.0
N740 N 0.80046 0.6719 0.69711 0.0
C741 C 0.8085 0.70547 0.70543 0.0
C742 C 0.79878 0.73168 0.68062 0.0
C743 C 0.71034 0.29915 0.19225 0.0
C744 C 0.7241 0.27709 0.16621 0.0
C745 C 0.73202 0.31987 0.21277 0.0
C746 C 0.7681 0.31951 0.20765 0.0
H747 H 0.68301 0.29869 0.19838 0.0
H748 H 0.7205 0.33512 0.23378 0.0
S749 S 0.81593 0.26996 0.13894 0.0
N750 N 0.77519 0.2589 0.13355 0.0
N751 N 0.816 0.29796 0.17188 0.0
C752 C 0.78175 0.29962 0.17975 0.0
C753 C 0.75971 0.27833 0.15911 0.0
C754 C 0.18596 0.28344 0.70894 0.0
C755 C 0.16661 0.27479 0.7388 0.0
C756 C 0.19616 0.25769 0.68478 0.0
C757 C 0.18709 0.22233 0.68929 0.0
H758 H 0.19411 0.31016 0.70464 0.0
H759 H 0.21181 0.26559 0.66267 0.0
S760 S 0.13363 0.18661 0.76141 0.0
N761 N 0.13683 0.22873 0.77049 0.0
N762 N 0.15554 0.18051 0.72475 0.0
C763 C 0.16661 0.21354 0.71835 0.0
C764 C 0.15654 0.23971 0.74319 0.0
C765 C 0.25475 0.66822 0.16189 0.0
C766 C 0.22144 0.66875 0.14694 0.0
C767 C 0.27868 0.69451 0.15451 0.0
C768 C 0.26995 0.72243 0.13225 0.0
H769 H 0.26199 0.64819 0.18065 0.0
H770 H 0.30332 0.69407 0.16792 0.0
S771 S 0.18868 0.73307 0.0818 0.0
N772 N 0.18302 0.6971 0.105 0.0
N773 N 0.22762 0.74701 0.09195 0.0
C774 C 0.23775 0.72202 0.11526 0.0
C775 C 0.21359 0.695 0.12234 0.0
C776 C 0.83492 0.24738 0.2904 0.0
C777 C 0.83395 0.28134 0.30482 0.0
C778 C 0.81168 0.22174 0.30134 0.0
C779 C 0.78636 0.22933 0.3267 0.0
H780 H 0.85285 0.24086 0.26952 0.0
H781 H 0.81251 0.19632 0.2887 0.0
S782 S 0.77631 0.31204 0.37668 0.0
N783 N 0.80846 0.31947 0.3493 0.0
N784 N 0.7639 0.27158 0.36873 0.0
C785 C 0.78625 0.26241 0.34271 0.0
C786 C 0.81035 0.28832 0.33212 0.0
C787 C 0.21982 0.32565 0.85213 0.0
C788 C 0.2232 0.35558 0.83114 0.0
C789 C 0.24903 0.30832 0.86561 0.0
C790 C 0.28265 0.32054 0.85894 0.0
H791 H 0.1946 0.31467 0.85703 0.0
H792 H 0.24519 0.28469 0.88076 0.0
S793 S 0.30492 0.40057 0.809 0.0
N794 N 0.26242 0.39853 0.80668 0.0
N795 N 0.3172 0.36633 0.83245 0.0
C796 C 0.28618 0.35156 0.83953 0.0
C797 C 0.25648 0.36898 0.82553 0.0
C798 C 0.19966 0.73182 0.29564 0.0
C799 C 0.19767 0.7685 0.29306 0.0
C800 C 0.1832 0.71034 0.2713 0.0
C801 C 0.16466 0.72471 0.24294 0.0
H802 H 0.21527 0.7196 0.31586 0.0
H803 H 0.18682 0.68227 0.2737 0.0
S804 S 0.14918 0.81946 0.22633 0.0
N805 N 0.17358 0.81845 0.26176 0.0
N806 N 0.14287 0.77813 0.2155 0.0
C807 C 0.16087 0.76143 0.24119 0.0
C808 C 0.17728 0.78332 0.2664 0.0
C809 C 0.77776 0.65887 0.85002 0.0
C810 C 0.77418 0.63111 0.82622 0.0
C811 C 0.74877 0.67682 0.86316 0.0
C812 C 0.71504 0.66738 0.85344 0.0
H813 H 0.80312 0.66778 0.85758 0.0
H814 H 0.75296 0.69872 0.88062 0.0
S815 S 0.69157 0.59369 0.7951 0.0
N816 N 0.73422 0.59308 0.79559 0.0
N817 N 0.67973 0.62647 0.82083 0.0
C818 C 0.71102 0.63841 0.83118 0.0
C819 C 0.74059 0.62036 0.81745 0.0
C820 C 0.68936 0.77628 0.71372 0.0
C821 C 0.69864 0.81007 0.72445 0.0
C822 C 0.67177 0.75378 0.73653 0.0
C823 C 0.66277 0.76437 0.77082 0.0
H824 H 0.69829 0.76609 0.68876 0.0
H825 H 0.66712 0.72723 0.72786 0.0
S826 S 0.67573 0.85313 0.80841 0.0
N827 N 0.6938 0.85486 0.76927 0.0
N828 N 0.66007 0.81325 0.81197 0.0
C829 C 0.66907 0.79942 0.78038 0.0
C830 C 0.68721 0.82208 0.75724 0.0
C831 C 0.70598 0.14136 0.23158 0.0
C832 C 0.69309 0.14577 0.26578 0.0
C833 C 0.68805 0.15476 0.20264 0.0
C834 C 0.65684 0.17344 0.20695 0.0
H835 H 0.73043 0.12802 0.22709 0.0
H836 H 0.69939 0.15144 0.17692 0.0
S837 S 0.60998 0.18875 0.29051 0.0
N838 N 0.64547 0.16735 0.30193 0.0
N839 N 0.61222 0.19311 0.24758 0.0
C840 C 0.64291 0.17676 0.24081 0.0
C841 C 0.66094 0.1628 0.27023 0.0
C842 C 0.30591 0.21288 0.71892 0.0
C843 C 0.29334 0.18072 0.73108 0.0
C844 C 0.3244 0.23512 0.74114 0.0
C845 C 0.33123 0.22581 0.77622 0.0
H846 H 0.29923 0.22212 0.69294 0.0
H847 H 0.33187 0.2605 0.73119 0.0
S848 S 0.30861 0.14122 0.81835 0.0
N849 N 0.29223 0.13861 0.77858 0.0
N850 N 0.32756 0.17968 0.82029 0.0
C851 C 0.32128 0.19219 0.78756 0.0
C852 C 0.30214 0.16986 0.76501 0.0
C853 C 0.28321 0.8558 0.23476 0.0
C854 C 0.29394 0.84775 0.26901 0.0
C855 C 0.30133 0.84294 0.20568 0.0
C856 C 0.33059 0.82125 0.2098 0.0
H857 H 0.26029 0.8717 0.23025 0.0
H858 H 0.29179 0.84945 0.17983 0.0
S859 S 0.37128 0.79496 0.2938 0.0
N860 N 0.33732 0.81885 0.30537 0.0
N861 N 0.37091 0.79405 0.25059 0.0
C862 C 0.34221 0.81375 0.24384 0.0
C863 C 0.32401 0.82719 0.2735 0.0
loop_
_geom_bond_atom_site_label_1
_geom_bond_atom_site_label_2
_geom_bond_distance
_geom_bond_site_symmetry_2
_ccdc_geom_bond_type
Co0 O1 2.216 . S
Co0 O2 2.091 . S
Co0 O4 2.004 . S
Co0 O10 2.021 . S
Co0 O12 2.137 . S
Co0 O13 2.244 . S
O1 Co0 2.216 . S
O1 C8 1.247 . S
O2 Co0 2.091 . S
O2 C8 1.261 . S
C3 O12 1.247 . S
C3 O13 1.272 . S
O4 Co0 2.004 . S
O4 C9 1.259 . S
Co5 O6 2.061 . S
Co5 O11 2.052 . S
Co5 O13 2.135 . S
O6 Co5 2.061 . S
O6 C9 1.235 . S
C7 O10 1.238 . S
C7 O11 1.241 . S
C8 O1 1.247 . S
C8 O2 1.261 . S
C9 O4 1.259 . S
C9 O6 1.235 . S
O10 Co0 2.021 . S
O10 C7 1.238 . S
O11 Co5 2.052 . S
O11 C7 1.241 . S
O12 Co0 2.137 . S
O12 C3 1.247 . S
O13 Co0 2.244 . S
O13 C3 1.272 . S
O13 Co5 2.135 . S
Co14 O15 2.216 . S
Co14 O16 2.091 . S
Co14 O18 2.004 . S
Co14 O24 2.021 . S
Co14 O26 2.137 . S
Co14 O27 2.244 . S
O15 Co14 2.216 . S
O15 C22 1.247 . S
O16 Co14 2.091 . S
O16 C22 1.261 . S
C17 O26 1.247 . S
C17 O27 1.272 . S
O18 Co14 2.004 . S
O18 C23 1.259 . S
Co19 O20 2.061 . S
Co19 O25 2.052 . S
Co19 O27 2.135 . S
O20 Co19 2.061 . S
O20 C23 1.235 . S
C21 O24 1.238 . S
C21 O25 1.241 . S
C22 O15 1.247 . S
C22 O16 1.261 . S
C23 O18 1.259 . S
C23 O20 1.235 . S
O24 Co14 2.021 . S
O24 C21 1.238 . S
O25 Co19 2.052 . S
O25 C21 1.241 . S
O26 Co14 2.137 . S
O26 C17 1.247 . S
O27 Co14 2.244 . S
O27 C17 1.272 . S
O27 Co19 2.135 . S
Co28 O29 2.216 . S
Co28 O30 2.091 . S
Co28 O32 2.004 . S
Co28 O38 2.021 . S
Co28 O40 2.137 . S
Co28 O41 2.244 . S
O29 Co28 2.216 . S
O29 C36 1.247 . S
O30 Co28 2.091 . S
O30 C36 1.261 . S
C31 O40 1.247 . S
C31 O41 1.272 . S
O32 Co28 2.004 . S
O32 C37 1.259 . S
Co33 O34 2.061 . S
Co33 O39 2.052 . S
Co33 O41 2.135 . S
O34 Co33 2.061 . S
O34 C37 1.235 . S
C35 O38 1.238 . S
C35 O39 1.241 . S
C36 O29 1.247 . S
C36 O30 1.261 . S
C37 O32 1.259 . S
C37 O34 1.235 . S
O38 Co28 2.021 . S
O38 C35 1.238 . S
O39 Co33 2.052 . S
O39 C35 1.241 . S
O40 Co28 2.137 . S
O40 C31 1.247 . S
O41 Co28 2.244 . S
O41 C31 1.272 . S
O41 Co33 2.135 . S
Co42 O43 2.216 . S
Co42 O44 2.091 . S
Co42 O46 2.004 . S
Co42 O52 2.021 . S
Co42 O54 2.137 . S
Co42 O55 2.244 . S
O43 Co42 2.216 . S
O43 C50 1.247 . S
O44 Co42 2.091 . S
O44 C50 1.261 . S
C45 O54 1.247 . S
C45 O55 1.272 . S
O46 Co42 2.004 . S
O46 C51 1.259 . S
Co47 O48 2.061 . S
Co47 O53 2.052 . S
Co47 O55 2.135 . S
O48 Co47 2.061 . S
O48 C51 1.235 . S
C49 O52 1.238 . S
C49 O53 1.241 . S
C50 O43 1.247 . S
C50 O44 1.261 . S
C51 O46 1.259 . S
C51 O48 1.235 . S
O52 Co42 2.021 . S
O52 C49 1.238 . S
O53 Co47 2.052 . S
O53 C49 1.241 . S
O54 Co42 2.137 . S
O54 C45 1.247 . S
O55 Co42 2.244 . S
O55 C45 1.272 . S
O55 Co47 2.135 . S
Co56 O57 2.216 . S
Co56 O58 2.091 . S
Co56 O60 2.004 . S
Co56 O66 2.021 . S
Co56 O68 2.137 . S
Co56 O69 2.244 . S
O57 Co56 2.216 . S
O57 C64 1.247 . S
O58 Co56 2.091 . S
O58 C64 1.261 . S
C59 O68 1.247 . S
C59 O69 1.272 . S
O60 Co56 2.004 . S
O60 C65 1.259 . S
Co61 O62 2.061 . S
Co61 O67 2.052 . S
Co61 O69 2.135 . S
O62 Co61 2.061 . S
O62 C65 1.235 . S
C63 O66 1.238 . S
C63 O67 1.241 . S
C64 O57 1.247 . S
C64 O58 1.261 . S
C65 O60 1.259 . S
C65 O62 1.235 . S
O66 Co56 2.021 . S
O66 C63 1.238 . S
O67 Co61 2.052 . S
O67 C63 1.241 . S
O68 Co56 2.137 . S
O68 C59 1.247 . S
O69 Co56 2.244 . S
O69 C59 1.272 . S
O69 Co61 2.135 . S
Co70 O71 2.216 . S
Co70 O72 2.091 . S
Co70 O74 2.004 . S
Co70 O80 2.021 . S
Co70 O82 2.137 . S
Co70 O83 2.244 . S
O71 Co70 2.216 . S
O71 C78 1.247 . S
O72 Co70 2.091 . S
O72 C78 1.261 . S
C73 O82 1.247 . S
C73 O83 1.272 . S
O74 Co70 2.004 . S
O74 C79 1.259 . S
Co75 O76 2.061 . S
Co75 O81 2.052 . S
Co75 O83 2.135 . S
O76 Co75 2.061 . S
O76 C79 1.235 . S
C77 O80 1.238 . S
C77 O81 1.241 . S
C78 O71 1.247 . S
C78 O72 1.261 . S
C79 O74 1.259 . S
C79 O76 1.235 . S
O80 Co70 2.021 . S
O80 C77 1.238 . S
O81 Co75 2.052 . S
O81 C77 1.241 . S
O82 Co70 2.137 . S
O82 C73 1.247 . S
O83 Co70 2.244 . S
O83 C73 1.272 . S
O83 Co75 2.135 . S
Co84 O85 2.216 . S
Co84 O86 2.091 . S
Co84 O88 2.004 . S
Co84 O94 2.021 . S
Co84 O96 2.137 . S
Co84 O97 2.244 . S
O85 Co84 2.216 . S
O85 C92 1.247 . S
O86 Co84 2.091 . S
O86 C92 1.261 . S
C87 O96 1.247 . S
C87 O97 1.272 . S
O88 Co84 2.004 . S
O88 C93 1.259 . S
Co89 O90 2.061 . S
Co89 O95 2.052 . S
Co89 O97 2.135 . S
O90 Co89 2.061 . S
O90 C93 1.235 . S
C91 O94 1.238 . S
C91 O95 1.241 . S
C92 O85 1.247 . S
C92 O86 1.261 . S
C93 O88 1.259 . S
C93 O90 1.235 . S
O94 Co84 2.021 . S
O94 C91 1.238 . S
O95 Co89 2.052 . S
O95 C91 1.241 . S
O96 Co84 2.137 . S
O96 C87 1.247 . S
O97 Co84 2.244 . S
O97 C87 1.272 . S
O97 Co89 2.135 . S
Co98 O99 2.216 . S
Co98 O100 2.091 . S
Co98 O102 2.004 . S
Co98 O108 2.021 . S
Co98 O110 2.137 . S
Co98 O111 2.244 . S
O99 Co98 2.216 . S
O99 C106 1.247 . S
O100 Co98 2.091 . S
O100 C106 1.261 . S
C101 O110 1.247 . S
C101 O111 1.272 . S
O102 Co98 2.004 . S
O102 C107 1.259 . S
Co103 O104 2.061 . S
Co103 O109 2.052 . S
Co103 O111 2.135 . S
O104 Co103 2.061 . S
O104 C107 1.235 . S
C105 O108 1.238 . S
C105 O109 1.241 . S
C106 O99 1.247 . S
C106 O100 1.261 . S
C107 O102 1.259 . S
C107 O104 1.235 . S
O108 Co98 2.021 . S
O108 C105 1.238 . S
O109 Co103 2.052 . S
O109 C105 1.241 . S
O110 Co98 2.137 . S
O110 C101 1.247 . S
O111 Co98 2.244 . S
O111 C101 1.272 . S
O111 Co103 2.135 . S
Co112 O113 2.216 . S
Co112 O114 2.091 . S
Co112 O116 2.004 . S
Co112 O122 2.021 . S
Co112 O124 2.137 . S
Co112 O125 2.244 . S
O113 Co112 2.216 . S
O113 C120 1.247 . S
O114 Co112 2.091 . S
O114 C120 1.261 . S
C115 O124 1.247 . S
C115 O125 1.272 . S
O116 Co112 2.004 . S
O116 C121 1.259 . S
Co117 O118 2.061 . S
Co117 O123 2.052 . S
Co117 O125 2.135 . S
O118 Co117 2.061 . S
O118 C121 1.235 . S
C119 O122 1.238 . S
C119 O123 1.241 . S
C120 O113 1.247 . S
C120 O114 1.261 . S
C121 O116 1.259 . S
C121 O118 1.235 . S
O122 Co112 2.021 . S
O122 C119 1.238 . S
O123 Co117 2.052 . S
O123 C119 1.241 . S
O124 Co112 2.137 . S
O124 C115 1.247 . S
O125 Co112 2.244 . S
O125 C115 1.272 . S
O125 Co117 2.135 . S
Co126 O127 2.216 . S
Co126 O128 2.091 . S
Co126 O130 2.004 . S
Co126 O136 2.021 . S
Co126 O138 2.137 . S
Co126 O139 2.244 . S
O127 Co126 2.216 . S
O127 C134 1.247 . S
O128 Co126 2.091 . S
O128 C134 1.261 . S
C129 O138 1.247 . S
C129 O139 1.272 . S
O130 Co126 2.004 . S
O130 C135 1.259 . S
Co131 O132 2.061 . S
Co131 O137 2.052 . S
Co131 O139 2.135 . S
O132 Co131 2.061 . S
O132 C135 1.235 . S
C133 O136 1.238 . S
C133 O137 1.241 . S
C134 O127 1.247 . S
C134 O128 1.261 . S
C135 O130 1.259 . S
C135 O132 1.235 . S
O136 Co126 2.021 . S
O136 C133 1.238 . S
O137 Co131 2.052 . S
O137 C133 1.241 . S
O138 Co126 2.137 . S
O138 C129 1.247 . S
O139 Co126 2.244 . S
O139 C129 1.272 . S
O139 Co131 2.135 . S
Co140 O141 2.216 . S
Co140 O142 2.091 . S
Co140 O144 2.004 . S
Co140 O150 2.021 . S
Co140 O152 2.137 . S
Co140 O153 2.244 . S
O141 Co140 2.216 . S
O141 C148 1.247 . S
O142 Co140 2.091 . S
O142 C148 1.261 . S
C143 O152 1.247 . S
C143 O153 1.272 . S
O144 Co140 2.004 . S
O144 C149 1.259 . S
Co145 O146 2.061 . S
Co145 O151 2.052 . S
Co145 O153 2.135 . S
O146 Co145 2.061 . S
O146 C149 1.235 . S
C147 O150 1.238 . S
C147 O151 1.241 . S
C148 O141 1.247 . S
C148 O142 1.261 . S
C149 O144 1.259 . S
C149 O146 1.235 . S
O150 Co140 2.021 . S
O150 C147 1.238 . S
O151 Co145 2.052 . S
O151 C147 1.241 . S
O152 Co140 2.137 . S
O152 C143 1.247 . S
O153 Co140 2.244 . S
O153 C143 1.272 . S
O153 Co145 2.135 . S
Co154 O155 2.216 . S
Co154 O156 2.091 . S
Co154 O158 2.004 . S
Co154 O164 2.021 . S
Co154 O166 2.137 . S
Co154 O167 2.244 . S
O155 Co154 2.216 . S
O155 C162 1.247 . S
O156 Co154 2.091 . S
O156 C162 1.261 . S
C157 O166 1.247 . S
C157 O167 1.272 . S
O158 Co154 2.004 . S
O158 C163 1.259 . S
Co159 O160 2.061 . S
Co159 O165 2.052 . S
Co159 O167 2.135 . S
O160 Co159 2.061 . S
O160 C163 1.235 . S
C161 O164 1.238 . S
C161 O165 1.241 . S
C162 O155 1.247 . S
C162 O156 1.261 . S
C163 O158 1.259 . S
C163 O160 1.235 . S
O164 Co154 2.021 . S
O164 C161 1.238 . S
O165 Co159 2.052 . S
O165 C161 1.241 . S
O166 Co154 2.137 . S
O166 C157 1.247 . S
O167 Co154 2.244 . S
O167 C157 1.272 . S
O167 Co159 2.135 . S
Co168 O169 2.216 . S
Co168 O170 2.091 . S
Co168 O172 2.004 . S
Co168 O178 2.021 . S
Co168 O180 2.137 . S
Co168 O181 2.244 . S
O169 Co168 2.216 . S
O169 C176 1.247 . S
O170 Co168 2.091 . S
O170 C176 1.261 . S
C171 O180 1.247 . S
C171 O181 1.272 . S
O172 Co168 2.004 . S
O172 C177 1.259 . S
Co173 O174 2.061 . S
Co173 O179 2.052 . S
Co173 O181 2.135 . S
O174 Co173 2.061 . S
O174 C177 1.235 . S
C175 O178 1.238 . S
C175 O179 1.241 . S
C176 O169 1.247 . S
C176 O170 1.261 . S
C177 O172 1.259 . S
C177 O174 1.235 . S
O178 Co168 2.021 . S
O178 C175 1.238 . S
O179 Co173 2.052 . S
O179 C175 1.241 . S
O180 Co168 2.137 . S
O180 C171 1.247 . S
O181 Co168 2.244 . S
O181 C171 1.272 . S
O181 Co173 2.135 . S
Co182 O183 2.216 . S
Co182 O184 2.091 . S
Co182 O186 2.004 . S
Co182 O192 2.021 . S
Co182 O194 2.137 . S
Co182 O195 2.244 . S
O183 Co182 2.216 . S
O183 C190 1.247 . S
O184 Co182 2.091 . S
O184 C190 1.261 . S
C185 O194 1.247 . S
C185 O195 1.272 . S
O186 Co182 2.004 . S
O186 C191 1.259 . S
Co187 O188 2.061 . S
Co187 O193 2.052 . S
Co187 O195 2.135 . S
O188 Co187 2.061 . S
O188 C191 1.235 . S
C189 O192 1.238 . S
C189 O193 1.241 . S
C190 O183 1.247 . S
C190 O184 1.261 . S
C191 O186 1.259 . S
C191 O188 1.235 . S
O192 Co182 2.021 . S
O192 C189 1.238 . S
O193 Co187 2.052 . S
O193 C189 1.241 . S
O194 Co182 2.137 . S
O194 C185 1.247 . S
O195 Co182 2.244 . S
O195 C185 1.272 . S
O195 Co187 2.135 . S
Co196 O197 2.216 . S
Co196 O198 2.091 . S
Co196 O200 2.004 . S
Co196 O206 2.021 . S
Co196 O208 2.137 . S
Co196 O209 2.244 . S
O197 Co196 2.216 . S
O197 C204 1.247 . S
O198 Co196 2.091 . S
O198 C204 1.261 . S
C199 O208 1.247 . S
C199 O209 1.272 . S
O200 Co196 2.004 . S
O200 C205 1.259 . S
Co201 O202 2.061 . S
Co201 O207 2.052 . S
Co201 O209 2.135 . S
O202 Co201 2.061 . S
O202 C205 1.235 . S
C203 O206 1.238 . S
C203 O207 1.241 . S
C204 O197 1.247 . S
C204 O198 1.261 . S
C205 O200 1.259 . S
C205 O202 1.235 . S
O206 Co196 2.021 . S
O206 C203 1.238 . S
O207 Co201 2.052 . S
O207 C203 1.241 . S
O208 Co196 2.137 . S
O208 C199 1.247 . S
O209 Co196 2.244 . S
O209 C199 1.272 . S
O209 Co201 2.135 . S
Co210 O211 2.216 . S
Co210 O212 2.091 . S
Co210 O214 2.004 . S
Co210 O220 2.021 . S
Co210 O222 2.137 . S
Co210 O223 2.244 . S
O211 Co210 2.216 . S
O211 C218 1.247 . S
O212 Co210 2.091 . S
O212 C218 1.261 . S
C213 O222 1.247 . S
C213 O223 1.272 . S
O214 Co210 2.004 . S
O214 C219 1.259 . S
Co215 O216 2.061 . S
Co215 O221 2.052 . S
Co215 O223 2.135 . S
O216 Co215 2.061 . S
O216 C219 1.235 . S
C217 O220 1.238 . S
C217 O221 1.241 . S
C218 O211 1.247 . S
C218 O212 1.261 . S
C219 O214 1.259 . S
C219 O216 1.235 . S
O220 Co210 2.021 . S
O220 C217 1.238 . S
O221 Co215 2.052 . S
O221 C217 1.241 . S
O222 Co210 2.137 . S
O222 C213 1.247 . S
O223 Co210 2.244 . S
O223 C213 1.272 . S
O223 Co215 2.135 . S
Co224 O225 2.216 . S
Co224 O226 2.091 . S
Co224 O228 2.004 . S
Co224 O234 2.021 . S
Co224 O236 2.137 . S
Co224 O237 2.244 . S
O225 Co224 2.216 . S
O225 C232 1.247 . S
O226 Co224 2.091 . S
O226 C232 1.261 . S
C227 O236 1.247 . S
C227 O237 1.272 . S
O228 Co224 2.004 . S
O228 C233 1.259 . S
Co229 O230 2.061 . S
Co229 O235 2.052 . S
Co229 O237 2.135 . S
O230 Co229 2.061 . S
O230 C233 1.235 . S
C231 O234 1.238 . S
C231 O235 1.241 . S
C232 O225 1.247 . S
C232 O226 1.261 . S
C233 O228 1.259 . S
C233 O230 1.235 . S
O234 Co224 2.021 . S
O234 C231 1.238 . S
O235 Co229 2.052 . S
O235 C231 1.241 . S
O236 Co224 2.137 . S
O236 C227 1.247 . S
O237 Co224 2.244 . S
O237 C227 1.272 . S
O237 Co229 2.135 . S
Co238 O239 2.216 . S
Co238 O240 2.091 . S
Co238 O242 2.004 . S
Co238 O248 2.021 . S
Co238 O250 2.137 . S
Co238 O251 2.244 . S
O239 Co238 2.216 . S
O239 C246 1.247 . S
O240 Co238 2.091 . S
O240 C246 1.261 . S
C241 O250 1.247 . S
C241 O251 1.272 . S
O242 Co238 2.004 . S
O242 C247 1.259 . S
Co243 O244 2.061 . S
Co243 O249 2.052 . S
Co243 O251 2.135 . S
O244 Co243 2.061 . S
O244 C247 1.235 . S
C245 O248 1.238 . S
C245 O249 1.241 . S
C246 O239 1.247 . S
C246 O240 1.261 . S
C247 O242 1.259 . S
C247 O244 1.235 . S
O248 Co238 2.021 . S
O248 C245 1.238 . S
O249 Co243 2.052 . S
O249 C245 1.241 . S
O250 Co238 2.137 . S
O250 C241 1.247 . S
O251 Co238 2.244 . S
O251 C241 1.272 . S
O251 Co243 2.135 . S
Co252 O253 2.216 . S
Co252 O254 2.091 . S
Co252 O256 2.004 . S
Co252 O262 2.021 . S
Co252 O264 2.137 . S
Co252 O265 2.244 . S
O253 Co252 2.216 . S
O253 C260 1.247 . S
O254 Co252 2.091 . S
O254 C260 1.261 . S
C255 O264 1.247 . S
C255 O265 1.272 . S
O256 Co252 2.004 . S
O256 C261 1.259 . S
Co257 O258 2.061 . S
Co257 O263 2.052 . S
Co257 O265 2.135 . S
O258 Co257 2.061 . S
O258 C261 1.235 . S
C259 O262 1.238 . S
C259 O263 1.241 . S
C260 O253 1.247 . S
C260 O254 1.261 . S
C261 O256 1.259 . S
C261 O258 1.235 . S
O262 Co252 2.021 . S
O262 C259 1.238 . S
O263 Co257 2.052 . S
O263 C259 1.241 . S
O264 Co252 2.137 . S
O264 C255 1.247 . S
O265 Co252 2.244 . S
O265 C255 1.272 . S
O265 Co257 2.135 . S
Co266 O267 2.216 . S
Co266 O268 2.091 . S
Co266 O270 2.004 . S
Co266 O276 2.021 . S
Co266 O278 2.137 . S
Co266 O279 2.244 . S
O267 Co266 2.216 . S
O267 C274 1.247 . S
O268 Co266 2.091 . S
O268 C274 1.261 . S
C269 O278 1.247 . S
C269 O279 1.272 . S
O270 Co266 2.004 . S
O270 C275 1.259 . S
Co271 O272 2.061 . S
Co271 O277 2.052 . S
Co271 O279 2.135 . S
O272 Co271 2.061 . S
O272 C275 1.235 . S
C273 O276 1.238 . S
C273 O277 1.241 . S
C274 O267 1.247 . S
C274 O268 1.261 . S
C275 O270 1.259 . S
C275 O272 1.235 . S
O276 Co266 2.021 . S
O276 C273 1.238 . S
O277 Co271 2.052 . S
O277 C273 1.241 . S
O278 Co266 2.137 . S
O278 C269 1.247 . S
O279 Co266 2.244 . S
O279 C269 1.272 . S
O279 Co271 2.135 . S
Co280 O281 2.216 . S
Co280 O282 2.091 . S
Co280 O284 2.004 . S
Co280 O290 2.021 . S
Co280 O292 2.137 . S
Co280 O293 2.244 . S
O281 Co280 2.216 . S
O281 C288 1.247 . S
O282 Co280 2.091 . S
O282 C288 1.261 . S
C283 O292 1.247 . S
C283 O293 1.272 . S
O284 Co280 2.004 . S
O284 C289 1.259 . S
Co285 O286 2.061 . S
Co285 O291 2.052 . S
Co285 O293 2.135 . S
O286 Co285 2.061 . S
O286 C289 1.235 . S
C287 O290 1.238 . S
C287 O291 1.241 . S
C288 O281 1.247 . S
C288 O282 1.261 . S
C289 O284 1.259 . S
C289 O286 1.235 . S
O290 Co280 2.021 . S
O290 C287 1.238 . S
O291 Co285 2.052 . S
O291 C287 1.241 . S
O292 Co280 2.137 . S
O292 C283 1.247 . S
O293 Co280 2.244 . S
O293 C283 1.272 . S
O293 Co285 2.135 . S
Co294 O295 2.216 . S
Co294 O296 2.091 . S
Co294 O298 2.004 . S
Co294 O304 2.021 . S
Co294 O306 2.137 . S
Co294 O307 2.244 . S
O295 Co294 2.216 . S
O295 C302 1.247 . S
O296 Co294 2.091 . S
O296 C302 1.261 . S
C297 O306 1.247 . S
C297 O307 1.272 . S
O298 Co294 2.004 . S
O298 C303 1.259 . S
Co299 O300 2.061 . S
Co299 O305 2.052 . S
Co299 O307 2.135 . S
O300 Co299 2.061 . S
O300 C303 1.235 . S
C301 O304 1.238 . S
C301 O305 1.241 . S
C302 O295 1.247 . S
C302 O296 1.261 . S
C303 O298 1.259 . S
C303 O300 1.235 . S
O304 Co294 2.021 . S
O304 C301 1.238 . S
O305 Co299 2.052 . S
O305 C301 1.241 . S
O306 Co294 2.137 . S
O306 C297 1.247 . S
O307 Co294 2.244 . S
O307 C297 1.272 . S
O307 Co299 2.135 . S
Co308 O309 2.216 . S
Co308 O310 2.091 . S
Co308 O312 2.004 . S
Co308 O318 2.021 . S
Co308 O320 2.137 . S
Co308 O321 2.244 . S
O309 Co308 2.216 . S
O309 C316 1.247 . S
O310 Co308 2.091 . S
O310 C316 1.261 . S
C311 O320 1.247 . S
C311 O321 1.272 . S
O312 Co308 2.004 . S
O312 C317 1.259 . S
Co313 O314 2.061 . S
Co313 O319 2.052 . S
Co313 O321 2.135 . S
O314 Co313 2.061 . S
O314 C317 1.235 . S
C315 O318 1.238 . S
C315 O319 1.241 . S
C316 O309 1.247 . S
C316 O310 1.261 . S
C317 O312 1.259 . S
C317 O314 1.235 . S
O318 Co308 2.021 . S
O318 C315 1.238 . S
O319 Co313 2.052 . S
O319 C315 1.241 . S
O320 Co308 2.137 . S
O320 C311 1.247 . S
O321 Co308 2.244 . S
O321 C311 1.272 . S
O321 Co313 2.135 . S
Co322 O323 2.216 . S
Co322 O324 2.091 . S
Co322 O326 2.004 . S
Co322 O332 2.021 . S
Co322 O334 2.137 . S
Co322 O335 2.244 . S
O323 Co322 2.216 . S
O323 C330 1.247 . S
O324 Co322 2.091 . S
O324 C330 1.261 . S
C325 O334 1.247 . S
C325 O335 1.272 . S
O326 Co322 2.004 . S
O326 C331 1.259 . S
Co327 O328 2.061 . S
Co327 O333 2.052 . S
Co327 O335 2.135 . S
O328 Co327 2.061 . S
O328 C331 1.235 . S
C329 O332 1.238 . S
C329 O333 1.241 . S
C330 O323 1.247 . S
C330 O324 1.261 . S
C331 O326 1.259 . S
C331 O328 1.235 . S
O332 Co322 2.021 . S
O332 C329 1.238 . S
O333 Co327 2.052 . S
O333 C329 1.241 . S
O334 Co322 2.137 . S
O334 C325 1.247 . S
O335 Co322 2.244 . S
O335 C325 1.272 . S
O335 Co327 2.135 . S
C336 C337 1.369 . S
C336 C338 1.419 . S
C336 H340 0.930 . S
C337 C336 1.369 . S
C337 C346 1.429 . S
C338 C336 1.419 . S
C338 C339 1.363 . S
C338 H341 0.929 . S
C339 C338 1.363 . S
C339 C345 1.428 . S
H340 C336 0.930 . S
H341 C338 0.929 . S
S342 N343 1.613 . S
S342 N344 1.610 . S
N343 S342 1.613 . S
N343 C346 1.350 . S
N344 S342 1.610 . S
N344 C345 1.351 . S
C345 C339 1.428 . S
C345 N344 1.351 . S
C345 C346 1.434 . S
C346 C337 1.429 . S
C346 N343 1.350 . S
C346 C345 1.434 . S
C347 C348 1.369 . S
C347 C349 1.419 1_655 S
C347 H351 0.930 . S
C348 C347 1.369 . S
C348 C357 1.429 . S
C349 C347 1.419 1_455 S
C349 C350 1.363 . S
C349 H352 0.929 . S
C350 C349 1.363 . S
C350 C356 1.428 . S
H351 C347 0.930 . S
H352 C349 0.929 . S
S353 N354 1.613 . S
S353 N355 1.610 1_655 S
N354 S353 1.613 . S
N354 C357 1.350 . S
N355 S353 1.610 1_455 S
N355 C356 1.351 . S
C356 C350 1.428 . S
C356 N355 1.351 . S
C356 C357 1.434 1_455 S
C357 C348 1.429 . S
C357 N354 1.350 . S
C357 C356 1.434 1_655 S
C358 C359 1.369 . S
C358 C360 1.419 . S
C358 H362 0.930 . S
C359 C358 1.369 . S
C359 C368 1.429 . S
C360 C358 1.419 . S
C360 C361 1.363 . S
C360 H363 0.929 . S
C361 C360 1.363 . S
C361 C367 1.428 . S
H362 C358 0.930 . S
H363 C360 0.929 . S
S364 N365 1.613 . S
S364 N366 1.610 . S
N365 S364 1.613 . S
N365 C368 1.350 . S
N366 S364 1.610 . S
N366 C367 1.351 . S
C367 C361 1.428 . S
C367 N366 1.351 . S
C367 C368 1.434 . S
C368 C359 1.429 . S
C368 N365 1.350 . S
C368 C367 1.434 . S
C369 C370 1.369 . S
C369 C371 1.419 1_455 S
C369 H373 0.930 . S
C370 C369 1.369 . S
C370 C379 1.429 . S
C371 C369 1.419 1_655 S
C371 C372 1.363 . S
C371 H374 0.929 . S
C372 C371 1.363 . S
C372 C378 1.428 . S
H373 C369 0.930 . S
H374 C371 0.929 . S
S375 N376 1.613 . S
S375 N377 1.610 1_455 S
N376 S375 1.613 . S
N376 C379 1.350 . S
N377 S375 1.610 1_655 S
N377 C378 1.351 . S
C378 C372 1.428 . S
C378 N377 1.351 . S
C378 C379 1.434 1_655 S
C379 C370 1.429 . S
C379 N376 1.350 . S
C379 C378 1.434 1_455 S
C380 C381 1.369 . S
C380 C382 1.419 . S
C380 H384 0.930 . S
C381 C380 1.369 . S
C381 C390 1.429 . S
C382 C380 1.419 . S
C382 C383 1.363 . S
C382 H385 0.929 . S
C383 C382 1.363 . S
C383 C389 1.428 . S
H384 C380 0.930 . S
H385 C382 0.929 . S
S386 N387 1.613 . S
S386 N388 1.610 . S
N387 S386 1.613 . S
N387 C390 1.350 . S
N388 S386 1.610 . S
N388 C389 1.351 . S
C389 C383 1.428 . S
C389 N388 1.351 . S
C389 C390 1.434 . S
C390 C381 1.429 . S
C390 N387 1.350 . S
C390 C389 1.434 . S
C391 C392 1.369 . S
C391 C393 1.419 1_655 S
C391 H395 0.930 . S
C392 C391 1.369 . S
C392 C401 1.429 . S
C393 C391 1.419 1_455 S
C393 C394 1.363 . S
C393 H396 0.929 . S
C394 C393 1.363 . S
C394 C400 1.428 . S
H395 C391 0.930 . S
H396 C393 0.929 . S
S397 N398 1.613 1_455 S
S397 N399 1.610 . S
N398 S397 1.613 1_655 S
N398 C401 1.350 . S
N399 S397 1.610 . S
N399 C400 1.351 . S
C400 C394 1.428 . S
C400 N399 1.351 . S
C400 C401 1.434 1_455 S
C401 C392 1.429 . S
C401 N398 1.350 . S
C401 C400 1.434 1_655 S
C402 C403 1.369 . S
C402 C404 1.419 . S
C402 H406 0.930 . S
C403 C402 1.369 . S
C403 C412 1.429 . S
C404 C402 1.419 . S
C404 C405 1.363 . S
C404 H407 0.929 . S
C405 C404 1.363 . S
C405 C411 1.428 . S
H406 C402 0.930 . S
H407 C404 0.929 . S
S408 N409 1.613 . S
S408 N410 1.610 . S
N409 S408 1.613 . S
N409 C412 1.350 . S
N410 S408 1.610 . S
N410 C411 1.351 . S
C411 C405 1.428 . S
C411 N410 1.351 . S
C411 C412 1.434 . S
C412 C403 1.429 . S
C412 N409 1.350 . S
C412 C411 1.434 . S
C413 C414 1.369 . S
C413 C415 1.419 1_655 S
C413 H417 0.930 . S
C414 C413 1.369 . S
C414 C423 1.429 . S
C415 C413 1.419 1_455 S
C415 C416 1.363 . S
C415 H418 0.929 . S
C416 C415 1.363 . S
C416 C422 1.428 . S
H417 C413 0.930 . S
H418 C415 0.929 . S
S419 N420 1.613 1_455 S
S419 N421 1.610 . S
N420 S419 1.613 1_655 S
N420 C423 1.350 . S
N421 S419 1.610 . S
N421 C422 1.351 . S
C422 C416 1.428 . S
C422 N421 1.351 . S
C422 C423 1.434 1_455 S
C423 C414 1.429 . S
C423 N420 1.350 . S
C423 C422 1.434 1_655 S
C424 C425 1.369 . S
C424 C426 1.419 . S
C424 H428 0.930 . S
C425 C424 1.369 . S
C425 C434 1.429 . S
C426 C424 1.419 . S
C426 C427 1.363 . S
C426 H429 0.929 . S
C427 C426 1.363 . S
C427 C433 1.428 . S
H428 C424 0.930 . S
H429 C426 0.929 . S
S430 N431 1.613 . S
S430 N432 1.610 . S
N431 S430 1.613 . S
N431 C434 1.350 . S
N432 S430 1.610 . S
N432 C433 1.351 . S
C433 C427 1.428 . S
C433 N432 1.351 . S
C433 C434 1.434 . S
C434 C425 1.429 . S
C434 N431 1.350 . S
C434 C433 1.434 . S
C435 C436 1.369 . S
C435 C437 1.419 1_556 S
C435 H439 0.930 . S
C436 C435 1.369 . S
C436 C445 1.429 . S
C437 C435 1.419 1_554 S
C437 C438 1.363 . S
C437 H440 0.929 . S
C438 C437 1.363 . S
C438 C444 1.428 . S
H439 C435 0.930 . S
H440 C437 0.929 . S
S441 N442 1.613 . S
S441 N443 1.610 1_556 S
N442 S441 1.613 . S
N442 C445 1.350 . S
N443 S441 1.610 1_554 S
N443 C444 1.351 . S
C444 C438 1.428 . S
C444 N443 1.351 . S
C444 C445 1.434 1_554 S
C445 C436 1.429 . S
C445 N442 1.350 . S
C445 C444 1.434 1_556 S
C446 C447 1.369 . S
C446 C448 1.419 . S
C446 H450 0.930 . S
C447 C446 1.369 . S
C447 C456 1.429 . S
C448 C446 1.419 . S
C448 C449 1.363 . S
C448 H451 0.929 . S
C449 C448 1.363 . S
C449 C455 1.428 . S
H450 C446 0.930 . S
H451 C448 0.929 . S
S452 N453 1.613 . S
S452 N454 1.610 . S
N453 S452 1.613 . S
N453 C456 1.350 . S
N454 S452 1.610 . S
N454 C455 1.351 . S
C455 C449 1.428 . S
C455 N454 1.351 . S
C455 C456 1.434 . S
C456 C447 1.429 . S
C456 N453 1.350 . S
C456 C455 1.434 . S
C457 C458 1.369 . S
C457 C459 1.419 1_554 S
C457 H461 0.930 . S
C458 C457 1.369 . S
C458 C467 1.429 . S
C459 C457 1.419 1_556 S
C459 C460 1.363 . S
C459 H462 0.929 . S
C460 C459 1.363 . S
C460 C466 1.428 . S
H461 C457 0.930 . S
H462 C459 0.929 . S
S463 N464 1.613 1_556 S
S463 N465 1.610 . S
N464 S463 1.613 1_554 S
N464 C467 1.350 . S
N465 S463 1.610 . S
N465 C466 1.351 . S
C466 C460 1.428 . S
C466 N465 1.351 . S
C466 C467 1.434 1_556 S
C467 C458 1.429 . S
C467 N464 1.350 . S
C467 C466 1.434 1_554 S
C468 C469 1.369 . S
C468 C470 1.419 . S
C468 H472 0.930 . S
C469 C468 1.369 . S
C469 C478 1.429 . S
C470 C468 1.419 . S
C470 C471 1.363 . S
C470 H473 0.929 . S
C471 C470 1.363 . S
C471 C477 1.428 . S
H472 C468 0.930 . S
H473 C470 0.929 . S
S474 N475 1.613 . S
S474 N476 1.610 . S
N475 S474 1.613 . S
N475 C478 1.350 . S
N476 S474 1.610 . S
N476 C477 1.351 . S
C477 C471 1.428 . S
C477 N476 1.351 . S
C477 C478 1.434 . S
C478 C469 1.429 . S
C478 N475 1.350 . S
C478 C477 1.434 . S
C479 C480 1.369 . S
C479 C481 1.419 1_554 S
C479 H483 0.930 . S
C480 C479 1.369 . S
C480 C489 1.429 . S
C481 C479 1.419 1_556 S
C481 C482 1.363 . S
C481 H484 0.929 . S
C482 C481 1.363 . S
C482 C488 1.428 . S
H483 C479 0.930 . S
H484 C481 0.929 . S
S485 N486 1.613 . S
S485 N487 1.610 1_554 S
N486 S485 1.613 . S
N486 C489 1.350 . S
N487 S485 1.610 1_556 S
N487 C488 1.351 . S
C488 C482 1.428 . S
C488 N487 1.351 . S
C488 C489 1.434 1_556 S
C489 C480 1.429 . S
C489 N486 1.350 . S
C489 C488 1.434 1_554 S
C490 C491 1.369 . S
C490 C492 1.419 . S
C490 H494 0.930 . S
C491 C490 1.369 . S
C491 C500 1.429 . S
C492 C490 1.419 . S
C492 C493 1.363 . S
C492 H495 0.929 . S
C493 C492 1.363 . S
C493 C499 1.428 . S
H494 C490 0.930 . S
H495 C492 0.929 . S
S496 N497 1.613 . S
S496 N498 1.610 . S
N497 S496 1.613 . S
N497 C500 1.350 . S
N498 S496 1.610 . S
N498 C499 1.351 . S
C499 C493 1.428 . S
C499 N498 1.351 . S
C499 C500 1.434 . S
C500 C491 1.429 . S
C500 N497 1.350 . S
C500 C499 1.434 . S
C501 C502 1.369 . S
C501 C503 1.419 1_554 S
C501 H505 0.930 . S
C502 C501 1.369 . S
C502 C511 1.429 . S
C503 C501 1.419 1_556 S
C503 C504 1.363 . S
C503 H506 0.929 . S
C504 C503 1.363 . S
C504 C510 1.428 . S
H505 C501 0.930 . S
H506 C503 0.929 . S
S507 N508 1.613 . S
S507 N509 1.610 1_554 S
N508 S507 1.613 . S
N508 C511 1.350 . S
N509 S507 1.610 1_556 S
N509 C510 1.351 . S
C510 C504 1.428 . S
C510 N509 1.351 . S
C510 C511 1.434 1_556 S
C511 C502 1.429 . S
C511 N508 1.350 . S
C511 C510 1.434 1_554 S
C512 C513 1.369 . S
C512 C514 1.419 . S
C512 H516 0.930 . S
C513 C512 1.369 . S
C513 C522 1.429 . S
C514 C512 1.419 . S
C514 C515 1.363 . S
C514 H517 0.929 . S
C515 C514 1.363 . S
C515 C521 1.428 . S
H516 C512 0.930 . S
H517 C514 0.929 . S
S518 N519 1.613 . S
S518 N520 1.610 . S
N519 S518 1.613 . S
N519 C522 1.350 . S
N520 S518 1.610 . S
N520 C521 1.351 . S
C521 C515 1.428 . S
C521 N520 1.351 . S
C521 C522 1.434 . S
C522 C513 1.429 . S
C522 N519 1.350 . S
C522 C521 1.434 . S
C523 C524 1.369 . S
C523 C525 1.419 . S
C523 H527 0.930 . S
C524 C523 1.369 . S
C524 C533 1.429 . S
C525 C523 1.419 . S
C525 C526 1.363 . S
C525 H528 0.929 . S
C526 C525 1.363 . S
C526 C532 1.428 . S
H527 C523 0.930 . S
H528 C525 0.929 . S
S529 N530 1.613 . S
S529 N531 1.610 . S
N530 S529 1.613 . S
N530 C533 1.350 . S
N531 S529 1.610 . S
N531 C532 1.351 . S
C532 C526 1.428 . S
C532 N531 1.351 . S
C532 C533 1.434 . S
C533 C524 1.429 . S
C533 N530 1.350 . S
C533 C532 1.434 . S
C534 C535 1.369 . S
C534 C536 1.419 1_565 S
C534 H538 0.930 . S
C535 C534 1.369 . S
C535 C544 1.429 . S
C536 C534 1.419 1_545 S
C536 C537 1.363 . S
C536 H539 0.929 . S
C537 C536 1.363 . S
C537 C543 1.428 . S
H538 C534 0.930 . S
H539 C536 0.929 . S
S540 N541 1.593 1_545 S
S540 N542 1.629 . S
N541 S540 1.593 1_565 S
N541 C544 1.350 . S
N542 S540 1.629 . S
N542 C543 1.351 . S
C543 C537 1.428 . S
C543 N542 1.351 . S
C543 C544 1.434 1_545 S
C544 C535 1.429 . S
C544 N541 1.350 . S
C544 C543 1.434 1_565 S
C545 C546 1.369 . S
C545 C547 1.419 . S
C545 H549 0.930 . S
C546 C545 1.369 . S
C546 C555 1.429 . S
C547 C545 1.419 . S
C547 C548 1.363 . S
C547 H550 0.929 . S
C548 C547 1.363 . S
C548 C554 1.428 . S
H549 C545 0.930 . S
H550 C547 0.929 . S
S551 N552 1.613 . S
S551 N553 1.610 . S
N552 S551 1.613 . S
N552 C555 1.350 . S
N553 S551 1.610 . S
N553 C554 1.351 . S
C554 C548 1.428 . S
C554 N553 1.351 . S
C554 C555 1.434 . S
C555 C546 1.429 . S
C555 N552 1.350 . S
C555 C554 1.434 . S
C556 C557 1.369 . S
C556 C558 1.419 1_565 S
C556 H560 0.930 . S
C557 C556 1.369 . S
C557 C566 1.429 . S
C558 C556 1.419 1_545 S
C558 C559 1.363 . S
C558 H561 0.929 . S
C559 C558 1.363 . S
C559 C565 1.428 . S
H560 C556 0.930 . S
H561 C558 0.929 . S
S562 N563 1.613 1_545 S
S562 N564 1.610 . S
N563 S562 1.613 1_565 S
N563 C566 1.350 . S
N564 S562 1.610 . S
N564 C565 1.351 . S
C565 C559 1.428 . S
C565 N564 1.351 . S
C565 C566 1.434 1_545 S
C566 C557 1.429 . S
C566 N563 1.350 . S
C566 C565 1.434 1_565 S
C567 C568 1.369 . S
C567 C569 1.419 . S
C567 H571 0.930 . S
C568 C567 1.369 . S
C568 C577 1.429 . S
C569 C567 1.419 . S
C569 C570 1.363 . S
C569 H572 0.929 . S
C570 C569 1.363 . S
C570 C576 1.428 . S
H571 C567 0.930 . S
H572 C569 0.929 . S
S573 N574 1.613 . S
S573 N575 1.610 . S
N574 S573 1.613 . S
N574 C577 1.350 . S
N575 S573 1.610 . S
N575 C576 1.351 . S
C576 C570 1.428 . S
C576 N575 1.351 . S
C576 C577 1.434 . S
C577 C568 1.429 . S
C577 N574 1.350 . S
C577 C576 1.434 . S
C578 C579 1.369 . S
C578 C580 1.419 1_565 S
C578 H582 0.930 . S
C579 C578 1.369 . S
C579 C588 1.429 . S
C580 C578 1.419 1_545 S
C580 C581 1.363 . S
C580 H583 0.929 . S
C581 C580 1.363 . S
C581 C587 1.428 . S
H582 C578 0.930 . S
H583 C580 0.929 . S
S584 N585 1.613 . S
S584 N586 1.610 1_565 S
N585 S584 1.613 . S
N585 C588 1.350 . S
N586 S584 1.610 1_545 S
N586 C587 1.351 . S
C587 C581 1.428 . S
C587 N586 1.351 . S
C587 C588 1.434 1_545 S
C588 C579 1.429 . S
C588 N585 1.350 . S
C588 C587 1.434 1_565 S
C589 C590 1.369 . S
C589 C591 1.419 1_545 S
C589 H593 0.930 . S
C590 C589 1.369 . S
C590 C599 1.429 . S
C591 C589 1.419 1_565 S
C591 C592 1.363 . S
C591 H594 0.929 . S
C592 C591 1.363 . S
C592 C598 1.428 . S
H593 C589 0.930 . S
H594 C591 0.929 . S
S595 N596 1.613 . S
S595 N597 1.610 1_545 S
N596 S595 1.613 . S
N596 C599 1.350 . S
N597 S595 1.610 1_565 S
N597 C598 1.351 . S
C598 C592 1.428 . S
C598 N597 1.351 . S
C598 C599 1.434 1_565 S
C599 C590 1.429 . S
C599 N596 1.350 . S
C599 C598 1.434 1_545 S
C600 C601 1.369 . S
C600 C602 1.419 . S
C600 H604 0.930 . S
C601 C600 1.369 . S
C601 C610 1.429 . S
C602 C600 1.419 . S
C602 C603 1.363 . S
C602 H605 0.929 . S
C603 C602 1.363 . S
C603 C609 1.428 . S
H604 C600 0.930 . S
H605 C602 0.929 . S
S606 N607 1.613 . S
S606 N608 1.610 . S
N607 S606 1.613 . S
N607 C610 1.350 . S
N608 S606 1.610 . S
N608 C609 1.351 . S
C609 C603 1.428 . S
C609 N608 1.351 . S
C609 C610 1.434 . S
C610 C601 1.429 . S
C610 N607 1.350 . S
C610 C609 1.434 . S
C611 C612 1.369 . S
C611 C613 1.419 . S
C611 H615 0.930 . S
C612 C611 1.369 . S
C612 C621 1.429 . S
C613 C611 1.419 . S
C613 C614 1.363 . S
C613 H616 0.929 . S
C614 C613 1.363 . S
C614 C620 1.428 . S
H615 C611 0.930 . S
H616 C613 0.929 . S
S617 N618 1.613 . S
S617 N619 1.610 . S
N618 S617 1.613 . S
N618 C621 1.350 . S
N619 S617 1.610 . S
N619 C620 1.351 . S
C620 C614 1.428 . S
C620 N619 1.351 . S
C620 C621 1.434 . S
C621 C612 1.429 . S
C621 N618 1.350 . S
C621 C620 1.434 . S
C622 C623 1.369 . S
C622 C624 1.419 . S
C622 H626 0.930 . S
C623 C622 1.369 . S
C623 C632 1.429 . S
C624 C622 1.419 . S
C624 C625 1.363 . S
C624 H627 0.929 . S
C625 C624 1.363 . S
C625 C631 1.428 . S
H626 C622 0.930 . S
H627 C624 0.929 . S
S628 N629 1.613 . S
S628 N630 1.610 . S
N629 S628 1.613 . S
N629 C632 1.350 . S
N630 S628 1.610 . S
N630 C631 1.351 . S
C631 C625 1.428 . S
C631 N630 1.351 . S
C631 C632 1.434 . S
C632 C623 1.429 . S
C632 N629 1.350 . S
C632 C631 1.434 . S
C633 C634 1.369 . S
C633 C635 1.419 . S
C633 H637 0.930 . S
C634 C633 1.369 . S
C634 C643 1.429 . S
C635 C633 1.419 . S
C635 C636 1.363 . S
C635 H638 0.929 . S
C636 C635 1.363 . S
C636 C642 1.428 . S
H637 C633 0.930 . S
H638 C635 0.929 . S
S639 N640 1.613 . S
S639 N641 1.610 . S
N640 S639 1.613 . S
N640 C643 1.350 . S
N641 S639 1.610 . S
N641 C642 1.351 . S
C642 C636 1.428 . S
C642 N641 1.351 . S
C642 C643 1.434 . S
C643 C634 1.429 . S
C643 N640 1.350 . S
C643 C642 1.434 . S
C644 C645 1.369 . S
C644 C646 1.419 . S
C644 H648 0.930 . S
C645 C644 1.369 . S
C645 C654 1.429 . S
C646 C644 1.419 . S
C646 C647 1.363 . S
C646 H649 0.929 . S
C647 C646 1.363 . S
C647 C653 1.428 . S
H648 C644 0.930 . S
H649 C646 0.929 . S
S650 N651 1.613 . S
S650 N652 1.610 . S
N651 S650 1.613 . S
N651 C654 1.350 . S
N652 S650 1.610 . S
N652 C653 1.351 . S
C653 C647 1.428 . S
C653 N652 1.351 . S
C653 C654 1.434 . S
C654 C645 1.429 . S
C654 N651 1.350 . S
C654 C653 1.434 . S
C655 C656 1.369 . S
C655 C657 1.419 . S
C655 H659 0.930 . S
C656 C655 1.369 . S
C656 C665 1.429 . S
C657 C655 1.419 . S
C657 C658 1.363 . S
C657 H660 0.929 . S
C658 C657 1.363 . S
C658 C664 1.428 . S
H659 C655 0.930 . S
H660 C657 0.929 . S
S661 N662 1.613 . S
S661 N663 1.610 . S
N662 S661 1.613 . S
N662 C665 1.350 . S
N663 S661 1.610 . S
N663 C664 1.351 . S
C664 C658 1.428 . S
C664 N663 1.351 . S
C664 C665 1.434 . S
C665 C656 1.429 . S
C665 N662 1.350 . S
C665 C664 1.434 . S
C666 C667 1.369 . S
C666 C668 1.419 . S
C666 H670 0.930 . S
C667 C666 1.369 . S
C667 C676 1.429 . S
C668 C666 1.419 . S
C668 C669 1.363 . S
C668 H671 0.929 . S
C669 C668 1.363 . S
C669 C675 1.428 . S
H670 C666 0.930 . S
H671 C668 0.929 . S
S672 N673 1.613 . S
S672 N674 1.610 . S
N673 S672 1.613 . S
N673 C676 1.350 . S
N674 S672 1.610 . S
N674 C675 1.351 . S
C675 C669 1.428 . S
C675 N674 1.351 . S
C675 C676 1.434 . S
C676 C667 1.429 . S
C676 N673 1.350 . S
C676 C675 1.434 . S
C677 C678 1.369 . S
C677 C679 1.419 . S
C677 H681 0.930 . S
C678 C677 1.369 . S
C678 C687 1.429 . S
C679 C677 1.419 . S
C679 C680 1.363 . S
C679 H682 0.929 . S
C680 C679 1.363 . S
C680 C686 1.428 . S
H681 C677 0.930 . S
H682 C679 0.929 . S
S683 N684 1.613 . S
S683 N685 1.610 . S
N684 S683 1.613 . S
N684 C687 1.350 . S
N685 S683 1.610 . S
N685 C686 1.351 . S
C686 C680 1.428 . S
C686 N685 1.351 . S
C686 C687 1.434 . S
C687 C678 1.429 . S
C687 N684 1.350 . S
C687 C686 1.434 . S
C688 C689 1.369 . S
C688 C690 1.419 . S
C688 H692 0.930 . S
C689 C688 1.369 . S
C689 C698 1.429 . S
C690 C688 1.419 . S
C690 C691 1.363 . S
C690 H693 0.929 . S
C691 C690 1.363 . S
C691 C697 1.428 . S
H692 C688 0.930 . S
H693 C690 0.929 . S
S694 N695 1.613 . S
S694 N696 1.610 . S
N695 S694 1.613 . S
N695 C698 1.350 . S
N696 S694 1.610 . S
N696 C697 1.351 . S
C697 C691 1.428 . S
C697 N696 1.351 . S
C697 C698 1.434 . S
C698 C689 1.429 . S
C698 N695 1.350 . S
C698 C697 1.434 . S
C699 C700 1.369 . S
C699 C701 1.419 . S
C699 H703 0.930 . S
C700 C699 1.369 . S
C700 C709 1.429 . S
C701 C699 1.419 . S
C701 C702 1.363 . S
C701 H704 0.929 . S
C702 C701 1.363 . S
C702 C708 1.428 . S
H703 C699 0.930 . S
H704 C701 0.929 . S
S705 N706 1.613 . S
S705 N707 1.610 . S
N706 S705 1.613 . S
N706 C709 1.350 . S
N707 S705 1.610 . S
N707 C708 1.351 . S
C708 C702 1.428 . S
C708 N707 1.351 . S
C708 C709 1.434 . S
C709 C700 1.429 . S
C709 N706 1.350 . S
C709 C708 1.434 . S
C710 C711 1.369 . S
C710 C712 1.419 . S
C710 H714 0.930 . S
C711 C710 1.369 . S
C711 C720 1.429 . S
C712 C710 1.419 . S
C712 C713 1.363 . S
C712 H715 0.929 . S
C713 C712 1.363 . S
C713 C719 1.428 . S
H714 C710 0.930 . S
H715 C712 0.929 . S
S716 N717 1.613 . S
S716 N718 1.610 . S
N717 S716 1.613 . S
N717 C720 1.350 . S
N718 S716 1.610 . S
N718 C719 1.351 . S
C719 C713 1.428 . S
C719 N718 1.351 . S
C719 C720 1.434 . S
C720 C711 1.429 . S
C720 N717 1.350 . S
C720 C719 1.434 . S
C721 C722 1.369 . S
C721 C723 1.419 . S
C721 H725 0.930 . S
C722 C721 1.369 . S
C722 C731 1.429 . S
C723 C721 1.419 . S
C723 C724 1.363 . S
C723 H726 0.929 . S
C724 C723 1.363 . S
C724 C730 1.428 . S
H725 C721 0.930 . S
H726 C723 0.929 . S
S727 N728 1.613 . S
S727 N729 1.610 . S
N728 S727 1.613 . S
N728 C731 1.350 . S
N729 S727 1.610 . S
N729 C730 1.351 . S
C730 C724 1.428 . S
C730 N729 1.351 . S
C730 C731 1.434 . S
C731 C722 1.429 . S
C731 N728 1.350 . S
C731 C730 1.434 . S
C732 C733 1.369 . S
C732 C734 1.419 . S
C732 H736 0.930 . S
C733 C732 1.369 . S
C733 C742 1.429 . S
C734 C732 1.419 . S
C734 C735 1.363 . S
C734 H737 0.929 . S
C735 C734 1.363 . S
C735 C741 1.428 . S
H736 C732 0.930 . S
H737 C734 0.929 . S
S738 N739 1.613 . S
S738 N740 1.610 . S
N739 S738 1.613 . S
N739 C742 1.350 . S
N740 S738 1.610 . S
N740 C741 1.351 . S
C741 C735 1.428 . S
C741 N740 1.351 . S
C741 C742 1.434 . S
C742 C733 1.429 . S
C742 N739 1.350 . S
C742 C741 1.434 . S
C743 C744 1.369 . S
C743 C745 1.419 . S
C743 H747 0.930 . S
C744 C743 1.369 . S
C744 C753 1.429 . S
C745 C743 1.419 . S
C745 C746 1.363 . S
C745 H748 0.929 . S
C746 C745 1.363 . S
C746 C752 1.428 . S
H747 C743 0.930 . S
H748 C745 0.929 . S
S749 N750 1.613 . S
S749 N751 1.610 . S
N750 S749 1.613 . S
N750 C753 1.350 . S
N751 S749 1.610 . S
N751 C752 1.351 . S
C752 C746 1.428 . S
C752 N751 1.351 . S
C752 C753 1.434 . S
C753 C744 1.429 . S
C753 N750 1.350 . S
C753 C752 1.434 . S
C754 C755 1.369 . S
C754 C756 1.419 . S
C754 H758 0.930 . S
C755 C754 1.369 . S
C755 C764 1.429 . S
C756 C754 1.419 . S
C756 C757 1.363 . S
C756 H759 0.929 . S
C757 C756 1.363 . S
C757 C763 1.428 . S
H758 C754 0.930 . S
H759 C756 0.929 . S
S760 N761 1.613 . S
S760 N762 1.610 . S
N761 S760 1.613 . S
N761 C764 1.350 . S
N762 S760 1.610 . S
N762 C763 1.351 . S
C763 C757 1.428 . S
C763 N762 1.351 . S
C763 C764 1.434 . S
C764 C755 1.429 . S
C764 N761 1.350 . S
C764 C763 1.434 . S
C765 C766 1.369 . S
C765 C767 1.419 . S
C765 H769 0.930 . S
C766 C765 1.369 . S
C766 C775 1.429 . S
C767 C765 1.419 . S
C767 C768 1.363 . S
C767 H770 0.929 . S
C768 C767 1.363 . S
C768 C774 1.428 . S
H769 C765 0.930 . S
H770 C767 0.929 . S
S771 N772 1.613 . S
S771 N773 1.610 . S
N772 S771 1.613 . S
N772 C775 1.350 . S
N773 S771 1.610 . S
N773 C774 1.351 . S
C774 C768 1.428 . S
C774 N773 1.351 . S
C774 C775 1.434 . S
C775 C766 1.429 . S
C775 N772 1.350 . S
C775 C774 1.434 . S
C776 C777 1.369 . S
C776 C778 1.419 . S
C776 H780 0.930 . S
C777 C776 1.369 . S
C777 C786 1.429 . S
C778 C776 1.419 . S
C778 C779 1.363 . S
C778 H781 0.929 . S
C779 C778 1.363 . S
C779 C785 1.428 . S
H780 C776 0.930 . S
H781 C778 0.929 . S
S782 N783 1.613 . S
S782 N784 1.610 . S
N783 S782 1.613 . S
N783 C786 1.350 . S
N784 S782 1.610 . S
N784 C785 1.351 . S
C785 C779 1.428 . S
C785 N784 1.351 . S
C785 C786 1.434 . S
C786 C777 1.429 . S
C786 N783 1.350 . S
C786 C785 1.434 . S
C787 C788 1.369 . S
C787 C789 1.419 . S
C787 H791 0.930 . S
C788 C787 1.369 . S
C788 C797 1.429 . S
C789 C787 1.419 . S
C789 C790 1.363 . S
C789 H792 0.929 . S
C790 C789 1.363 . S
C790 C796 1.428 . S
H791 C787 0.930 . S
H792 C789 0.929 . S
S793 N794 1.613 . S
S793 N795 1.610 . S
N794 S793 1.613 . S
N794 C797 1.350 . S
N795 S793 1.610 . S
N795 C796 1.351 . S
C796 C790 1.428 . S
C796 N795 1.351 . S
C796 C797 1.434 . S
C797 C788 1.429 . S
C797 N794 1.350 . S
C797 C796 1.434 . S
C798 C799 1.369 . S
C798 C800 1.419 . S
C798 H802 0.930 . S
C799 C798 1.369 . S
C799 C808 1.429 . S
C800 C798 1.419 . S
C800 C801 1.363 . S
C800 H803 0.929 . S
C801 C800 1.363 . S
C801 C807 1.428 . S
H802 C798 0.930 . S
H803 C800 0.929 . S
S804 N805 1.613 . S
S804 N806 1.610 . S
N805 S804 1.613 . S
N805 C808 1.350 . S
N806 S804 1.610 . S
N806 C807 1.351 . S
C807 C801 1.428 . S
C807 N806 1.351 . S
C807 C808 1.434 . S
C808 C799 1.429 . S
C808 N805 1.350 . S
C808 C807 1.434 . S
C809 C810 1.369 . S
C809 C811 1.419 . S
C809 H813 0.930 . S
C810 C809 1.369 . S
C810 C819 1.429 . S
C811 C809 1.419 . S
C811 C812 1.363 . S
C811 H814 0.929 . S
C812 C811 1.363 . S
C812 C818 1.428 . S
H813 C809 0.930 . S
H814 C811 0.929 . S
S815 N816 1.613 . S
S815 N817 1.610 . S
N816 S815 1.613 . S
N816 C819 1.350 . S
N817 S815 1.610 . S
N817 C818 1.351 . S
C818 C812 1.428 . S
C818 N817 1.351 . S
C818 C819 1.434 . S
C819 C810 1.429 . S
C819 N816 1.350 . S
C819 C818 1.434 . S
C820 C821 1.369 . S
C820 C822 1.419 . S
C820 H824 0.930 . S
C821 C820 1.369 . S
C821 C830 1.429 . S
C822 C820 1.419 . S
C822 C823 1.363 . S
C822 H825 0.929 . S
C823 C822 1.363 . S
C823 C829 1.428 . S
H824 C820 0.930 . S
H825 C822 0.929 . S
S826 N827 1.613 . S
S826 N828 1.610 . S
N827 S826 1.613 . S
N827 C830 1.350 . S
N828 S826 1.610 . S
N828 C829 1.351 . S
C829 C823 1.428 . S
C829 N828 1.351 . S
C829 C830 1.434 . S
C830 C821 1.429 . S
C830 N827 1.350 . S
C830 C829 1.434 . S
C831 C832 1.369 . S
C831 C833 1.419 . S
C831 H835 0.930 . S
C832 C831 1.369 . S
C832 C841 1.429 . S
C833 C831 1.419 . S
C833 C834 1.363 . S
C833 H836 0.929 . S
C834 C833 1.363 . S
C834 C840 1.428 . S
H835 C831 0.930 . S
H836 C833 0.929 . S
S837 N838 1.613 . S
S837 N839 1.610 . S
N838 S837 1.613 . S
N838 C841 1.350 . S
N839 S837 1.610 . S
N839 C840 1.351 . S
C840 C834 1.428 . S
C840 N839 1.351 . S
C840 C841 1.434 . S
C841 C832 1.429 . S
C841 N838 1.350 . S
C841 C840 1.434 . S
C842 C843 1.369 . S
C842 C844 1.419 . S
C842 H846 0.930 . S
C843 C842 1.369 . S
C843 C852 1.429 . S
C844 C842 1.419 . S
C844 C845 1.363 . S
C844 H847 0.929 . S
C845 C844 1.363 . S
C845 C851 1.428 . S
H846 C842 0.930 . S
H847 C844 0.929 . S
S848 N849 1.613 . S
S848 N850 1.610 . S
N849 S848 1.613 . S
N849 C852 1.350 . S
N850 S848 1.610 . S
N850 C851 1.351 . S
C851 C845 1.428 . S
C851 N850 1.351 . S
C851 C852 1.434 . S
C852 C843 1.429 . S
C852 N849 1.350 . S
C852 C851 1.434 . S
C853 C854 1.369 . S
C853 C855 1.419 . S
C853 H857 0.930 . S
C854 C853 1.369 . S
C854 C863 1.429 . S
C855 C853 1.419 . S
C855 C856 1.363 . S
C855 H858 0.929 . S
C856 C855 1.363 . S
C856 C862 1.428 . S
H857 C853 0.930 . S
H858 C855 0.929 . S
S859 N860 1.613 . S
S859 N861 1.610 . S
N860 S859 1.613 . S
N860 C863 1.350 . S
N861 S859 1.610 . S
N861 C862 1.351 . S
C862 C856 1.428 . S
C862 N861 1.351 . S
C862 C863 1.434 . S
C863 C854 1.429 . S
C863 N860 1.350 . S
C863 C862 1.434 . S
C337 C218 1.303 . S
C339 C7 1.291 . S
C348 C175 1.385 . S
C350 C22 1.401 . S
C359 C189 1.399 . S
C361 C35 1.390 . S
C370 C203 1.391 . S
C372 C50 1.403 . S
C381 C204 1.391 . S
C383 C21 1.374 . S
C392 C36 1.394 . S
C394 C217 1.379 . S
C403 C176 1.388 . S
C405 C49 1.372 . S
C414 C190 1.300 . S
C416 C8 1.298 . S
C425 C260 1.245 . S
C427 C64 1.245 . S
C436 C77 1.452 . S
C438 C273 1.463 . S
C447 C92 1.267 . S
C449 C232 1.266 . S
C458 C245 1.450 . S
C460 C105 1.441 . S
C469 C315 1.490 . S
C471 C119 1.494 . S
C480 C133 1.264 . S
C482 C330 1.279 . S
C491 C147 1.503 . S
C493 C287 1.500 . S
C502 C161 1.248 . S
C504 C302 1.260 . S
C513 C246 1.297 . S
C515 C162 1.297 . S
C524 C329 1.428 . S
C526 C78 1.442 . S
C535 C91 1.400 . S
C537 C288 1.408 . S
C546 C301 1.424 . S
C548 C106 1.434 . S
C557 C316 1.355 . S
C559 C63 1.347 . S
C568 C134 1.349 . S
C570 C274 1.349 . S
C579 C231 1.364 . S
C581 C148 1.374 . S
C590 C259 1.361 . S
C592 C120 1.369 . S
C601 C3 1.075 . S
C603 C59 1.076 . S
C612 C79 1.083 . S
C614 C23 1.091 . S
C623 C31 1.141 . S
C625 C87 1.137 . S
C634 C51 1.077 . S
C636 C107 1.081 . S
C645 C121 1.105 . S
C647 C17 1.124 . S
C656 C135 1.051 . S
C658 C37 1.059 . S
C667 C149 1.111 . S
C669 C45 1.135 . S
C678 C9 1.008 . S
C680 C163 1.001 . S
C689 C157 1.040 . S
C691 C65 1.022 . S
C700 C73 1.199 . S
C702 C115 1.194 . S
C711 C93 1.037 . S
C713 C129 1.041 . S
C722 C143 1.200 . S
C724 C101 1.191 . S
C733 C227 1.080 . S
C735 C177 1.052 . S
C744 C247 1.044 . S
C746 C191 1.052 . S
C755 C205 1.051 . S
C757 C255 1.085 . S
C766 C213 1.108 . S
C768 C275 1.084 . S
C777 C185 1.134 . S
C779 C289 1.107 . S
C788 C199 1.159 . S
C790 C297 1.163 . S
C799 C317 1.066 . S
C801 C219 1.061 . S
C810 C171 1.159 . S
C812 C325 1.161 . S
C821 C233 1.021 . S
C823 C331 1.032 . S
C832 C283 1.181 . S
C834 C241 1.169 . S
C843 C261 1.003 . S
C845 C303 1.014 . S
C854 C311 1.180 . S
C856 C269 1.171 . S
