# Generated by pormake.
# Topology wgz, (6)-cn, num edge types: 1
# Building blocks:
#     Node 0, Type 0, BuildingBlock: VOLQOD_clean_sbu_1, # of connection points: 6
#     Node 1, Type 0, BuildingBlock: VOLQOD_clean_sbu_1, # of connection points: 6
#     Node 2, Type 0, BuildingBlock: VOLQOD_clean_sbu_1, # of connection points: 6
#     Node 3, Type 0, BuildingBlock: VOLQOD_clean_sbu_1, # of connection points: 6
#     Node 4, Type 0, BuildingBlock: VOLQOD_clean_sbu_1, # of connection points: 6
#     Node 5, Type 0, BuildingBlock: VOLQOD_clean_sbu_1, # of connection points: 6
#     Node 6, Type 0, BuildingBlock: VOLQOD_clean_sbu_1, # of connection points: 6
#     Node 7, Type 0, BuildingBlock: VOLQOD_clean_sbu_1, # of connection points: 6
#     Node 8, Type 0, BuildingBlock: VOLQOD_clean_sbu_1, # of connection points: 6
#     Node 9, Type 0, BuildingBlock: VOLQOD_clean_sbu_1, # of connection points: 6
#     Node 10, Type 0, BuildingBlock: VOLQOD_clean_sbu_1, # of connection points: 6
#     Node 11, Type 0, BuildingBlock: VOLQOD_clean_sbu_1, # of connection points: 6
#     Node 12, Type 0, BuildingBlock: VOLQOD_clean_sbu_1, # of connection points: 6
#     Node 13, Type 0, BuildingBlock: VOLQOD_clean_sbu_1, # of connection points: 6
#     Node 14, Type 0, BuildingBlock: VOLQOD_clean_sbu_1, # of connection points: 6
#     Node 15, Type 0, BuildingBlock: VOLQOD_clean_sbu_1, # of connection points: 6
#     Edge 16, Type (0, 0), BuildingBlock: CIFDUS_clean_linker_0, # of connection points: 2
#     Edge 17, Type (0, 0), BuildingBlock: CIFDUS_clean_linker_0, # of connection points: 2
#     Edge 18, Type (0, 0), BuildingBlock: CIFDUS_clean_linker_0, # of connection points: 2
#     Edge 19, Type (0, 0), BuildingBlock: CIFDUS_clean_linker_0, # of connection points: 2
#     Edge 20, Type (0, 0), BuildingBlock: CIFDUS_clean_linker_0, # of connection points: 2
#     Edge 21, Type (0, 0), BuildingBlock: CIFDUS_clean_linker_0, # of connection points: 2
#     Edge 22, Type (0, 0), BuildingBlock: CIFDUS_clean_linker_0, # of connection points: 2
#     Edge 23, Type (0, 0), BuildingBlock: CIFDUS_clean_linker_0, # of connection points: 2
#     Edge 24, Type (0, 0), BuildingBlock: CIFDUS_clean_linker_0, # of connection points: 2
#     Edge 25, Type (0, 0), BuildingBlock: CIFDUS_clean_linker_0, # of connection points: 2
#     Edge 26, Type (0, 0), BuildingBlock: CIFDUS_clean_linker_0, # of connection points: 2
#     Edge 27, Type (0, 0), BuildingBlock: CIFDUS_clean_linker_0, # of connection points: 2
#     Edge 28, Type (0, 0), BuildingBlock: CIFDUS_clean_linker_0, # of connection points: 2
#     Edge 29, Type (0, 0), BuildingBlock: CIFDUS_clean_linker_0, # of connection points: 2
#     Edge 30, Type (0, 0), BuildingBlock: CIFDUS_clean_linker_0, # of connection points: 2
#     Edge 31, Type (0, 0), BuildingBlock: CIFDUS_clean_linker_0, # of connection points: 2
#     Edge 32, Type (0, 0), BuildingBlock: CIFDUS_clean_linker_0, # of connection points: 2
#     Edge 33, Type (0, 0), BuildingBlock: CIFDUS_clean_linker_0, # of connection points: 2
#     Edge 34, Type (0, 0), BuildingBlock: CIFDUS_clean_linker_0, # of connection points: 2
#     Edge 35, Type (0, 0), BuildingBlock: CIFDUS_clean_linker_0, # of connection points: 2
#     Edge 36, Type (0, 0), BuildingBlock: CIFDUS_clean_linker_0, # of connection points: 2
#     Edge 37, Type (0, 0), BuildingBlock: CIFDUS_clean_linker_0, # of connection points: 2
#     Edge 38, Type (0, 0), BuildingBlock: CIFDUS_clean_linker_0, # of connection points: 2
#     Edge 39, Type (0, 0), BuildingBlock: CIFDUS_clean_linker_0, # of connection points: 2
#     Edge 40, Type (0, 0), BuildingBlock: CIFDUS_clean_linker_0, # of connection points: 2
#     Edge 41, Type (0, 0), BuildingBlock: CIFDUS_clean_linker_0, # of connection points: 2
#     Edge 42, Type (0, 0), BuildingBlock: CIFDUS_clean_linker_0, # of connection points: 2
#     Edge 43, Type (0, 0), BuildingBlock: CIFDUS_clean_linker_0, # of connection points: 2
#     Edge 44, Type (0, 0), BuildingBlock: CIFDUS_clean_linker_0, # of connection points: 2
#     Edge 45, Type (0, 0), BuildingBlock: CIFDUS_clean_linker_0, # of connection points: 2
#     Edge 46, Type (0, 0), BuildingBlock: CIFDUS_clean_linker_0, # of connection points: 2
#     Edge 47, Type (0, 0), BuildingBlock: CIFDUS_clean_linker_0, # of connection points: 2
#     Edge 48, Type (0, 0), BuildingBlock: CIFDUS_clean_linker_0, # of connection points: 2
#     Edge 49, Type (0, 0), BuildingBlock: CIFDUS_clean_linker_0, # of connection points: 2
#     Edge 50, Type (0, 0), BuildingBlock: CIFDUS_clean_linker_0, # of connection points: 2
#     Edge 51, Type (0, 0), BuildingBlock: CIFDUS_clean_linker_0, # of connection points: 2
#     Edge 52, Type (0, 0), BuildingBlock: CIFDUS_clean_linker_0, # of connection points: 2
#     Edge 53, Type (0, 0), BuildingBlock: CIFDUS_clean_linker_0, # of connection points: 2
#     Edge 54, Type (0, 0), BuildingBlock: CIFDUS_clean_linker_0, # of connection points: 2
#     Edge 55, Type (0, 0), BuildingBlock: CIFDUS_clean_linker_0, # of connection points: 2
#     Edge 56, Type (0, 0), BuildingBlock: CIFDUS_clean_linker_0, # of connection points: 2
#     Edge 57, Type (0, 0), BuildingBlock: CIFDUS_clean_linker_0, # of connection points: 2
#     Edge 58, Type (0, 0), BuildingBlock: CIFDUS_clean_linker_0, # of connection points: 2
#     Edge 59, Type (0, 0), BuildingBlock: CIFDUS_clean_linker_0, # of connection points: 2
#     Edge 60, Type (0, 0), BuildingBlock: CIFDUS_clean_linker_0, # of connection points: 2
#     Edge 61, Type (0, 0), BuildingBlock: CIFDUS_clean_linker_0, # of connection points: 2
#     Edge 62, Type (0, 0), BuildingBlock: CIFDUS_clean_linker_0, # of connection points: 2
#     Edge 63, Type (0, 0), BuildingBlock: CIFDUS_clean_linker_0, # of connection points: 2
# Relax obj value: 0.567
# Max RMSD: 0.288
# Mean RMSD: 0.288
data_MOF--net-wgz--node1-VOLQOD_clean_sbu_1--edge1-CIFDUS_clean_linker_0
_symmetry_space_group_name_H-M    P1
_symmetry_Int_Tables_number       1
_symmetry_cell_setting            triclinic
loop_
_symmetry_equiv_pos_as_xyz
'x, y, z'
_cell_length_a     31.278138
_cell_length_b     31.27339
_cell_length_c     48.983273
_cell_angle_alpha  90.036331
_cell_angle_beta   89.972008
_cell_angle_gamma 90.510939
loop_
_atom_site_label
_atom_site_type_symbol
_atom_site_fract_x
_atom_site_fract_y
_atom_site_fract_z
_atom_type_partial_charge
O0 O 0.15259 0.33143 0.13771 0.0
Zn1 Zn 0.16746 0.36172 0.10031 0.0
O2 O 0.21678 0.39624 0.10811 0.0
Zn3 Zn 0.25443 0.40195 0.07793 0.0
Zn4 Zn 0.25026 0.37721 0.13764 0.0
Zn5 Zn 0.19909 0.44913 0.12316 0.0
O6 O 0.27307 0.46406 0.07477 0.0
O7 O 0.23783 0.49424 0.10911 0.0
O8 O 0.18501 0.32583 0.06544 0.0
O9 O 0.22605 0.37545 0.04505 0.0
O10 O 0.30686 0.36612 0.08337 0.0
O11 O 0.29836 0.34248 0.12571 0.0
O12 O 0.27169 0.42733 0.15924 0.0
O13 O 0.11788 0.40336 0.09094 0.0
O14 O 0.20635 0.45061 0.16372 0.0
O15 O 0.14003 0.46316 0.11129 0.0
C16 C 0.17475 0.33035 0.15984 0.0
C17 C 0.26517 0.49635 0.08995 0.0
C18 C 0.31875 0.34306 0.10331 0.0
C19 C 0.20569 0.3398 0.0444 0.0
C20 C 0.24545 0.45239 0.17077 0.0
C21 C 0.11199 0.44256 0.09767 0.0
O22 O 0.21237 0.34557 0.16115 0.0
O23 O 0.67311 0.12376 0.17109 0.0
Zn24 Zn 0.67035 0.12166 0.12752 0.0
O25 O 0.64258 0.1749 0.11697 0.0
Zn26 Zn 0.67826 0.21287 0.09722 0.0
Zn27 Zn 0.62252 0.21009 0.14624 0.0
Zn28 Zn 0.5979 0.16355 0.09125 0.0
O29 O 0.64708 0.24049 0.06686 0.0
O30 O 0.61549 0.18057 0.05329 0.0
O31 O 0.72842 0.11856 0.10322 0.0
O32 O 0.72436 0.18094 0.08121 0.0
O33 O 0.7043 0.25835 0.11944 0.0
O34 O 0.65592 0.26509 0.15188 0.0
O35 O 0.56168 0.22497 0.14132 0.0
O36 O 0.62757 0.07111 0.11866 0.0
O37 O 0.54732 0.19905 0.10007 0.0
O38 O 0.57709 0.10327 0.09438 0.0
C39 C 0.65116 0.14675 0.18788 0.0
C40 C 0.62874 0.21847 0.0485 0.0
C41 C 0.68984 0.27794 0.14006 0.0
C42 C 0.74236 0.14541 0.0851 0.0
C43 C 0.53658 0.21998 0.12118 0.0
C44 C 0.59144 0.07016 0.10619 0.0
O45 O 0.62895 0.17791 0.17965 0.0
O46 O 0.8439 0.67633 0.14155 0.0
Zn47 Zn 0.8425 0.65845 0.1005 0.0
O48 O 0.79678 0.61654 0.09705 0.0
Zn49 Zn 0.75078 0.63918 0.07707 0.0
Zn50 Zn 0.77027 0.59839 0.13057 0.0
Zn51 Zn 0.81482 0.56796 0.07658 0.0
O52 O 0.7205 0.59177 0.05799 0.0
O53 O 0.77896 0.56009 0.04302 0.0
O54 O 0.8305 0.70811 0.07213 0.0
O55 O 0.77184 0.68277 0.05147 0.0
O56 O 0.70857 0.66603 0.10147 0.0
O57 O 0.71031 0.62001 0.13569 0.0
O58 O 0.77065 0.53507 0.13566 0.0
O59 O 0.89928 0.62674 0.09232 0.0
O60 O 0.80513 0.51488 0.09833 0.0
O61 O 0.87751 0.5687 0.06984 0.0
C62 C 0.82806 0.65691 0.16242 0.0
C63 C 0.73848 0.56431 0.04295 0.0
C64 C 0.6929 0.65114 0.12345 0.0
C65 C 0.80227 0.70982 0.05304 0.0
C66 C 0.78705 0.50608 0.12091 0.0
C67 C 0.90746 0.59186 0.0796 0.0
O68 O 0.80266 0.62527 0.15988 0.0
O69 O 0.31896 0.84223 0.17705 0.0
Zn70 Zn 0.32741 0.84186 0.13404 0.0
O71 O 0.35366 0.7871 0.12616 0.0
Zn72 Zn 0.31318 0.74734 0.1109 0.0
Zn73 Zn 0.3777 0.75674 0.15657 0.0
Zn74 Zn 0.39612 0.79706 0.09905 0.0
O75 O 0.33864 0.71656 0.07886 0.0
O76 O 0.37724 0.77178 0.06362 0.0
O77 O 0.27538 0.84622 0.1056 0.0
O78 O 0.2649 0.7777 0.09491 0.0
O79 O 0.29134 0.70548 0.1379 0.0
O80 O 0.34811 0.70039 0.16467 0.0
O81 O 0.44099 0.74711 0.15257 0.0
O82 O 0.37168 0.89041 0.12578 0.0
O83 O 0.44967 0.76891 0.10977 0.0
O84 O 0.41577 0.8582 0.09705 0.0
C85 C 0.34025 0.82141 0.19526 0.0
C86 C 0.35853 0.73589 0.05981 0.0
C87 C 0.31117 0.68754 0.1573 0.0
C88 C 0.25487 0.81666 0.09248 0.0
C89 C 0.46436 0.75294 0.13162 0.0
C90 C 0.40483 0.8912 0.11041 0.0
O91 O 0.36567 0.79157 0.18877 0.0
O92 O 0.12104 0.67005 0.88022 0.0
Zn93 Zn 0.12428 0.65825 0.92236 0.0
O94 O 0.1781 0.63189 0.92558 0.0
Zn95 Zn 0.22041 0.67571 0.93032 0.0
Zn96 Zn 0.18976 0.59969 0.8939 0.0
Zn97 Zn 0.17819 0.59449 0.95591 0.0
O98 O 0.25904 0.65619 0.96002 0.0
O99 O 0.20933 0.62562 0.98637 0.0
O100 O 0.12813 0.70851 0.95101 0.0
O101 O 0.19573 0.7295 0.94602 0.0
O102 O 0.25567 0.68405 0.89644 0.0
O103 O 0.2423 0.62247 0.87521 0.0
O104 O 0.20265 0.53945 0.90253 0.0
O105 O 0.07972 0.61253 0.93384 0.0
O106 O 0.21318 0.54258 0.94725 0.0
O107 O 0.1177 0.57086 0.9615 0.0
C108 C 0.12726 0.64144 0.8617 0.0
C109 C 0.24629 0.64298 0.98322 0.0
C110 C 0.26327 0.65732 0.87741 0.0
C111 C 0.15937 0.73367 0.95737 0.0
C112 C 0.21634 0.52305 0.92456 0.0
C113 C 0.08255 0.57995 0.9496 0.0
O114 O 0.14173 0.60496 0.86812 0.0
O115 O 0.3408 0.17436 0.83668 0.0
Zn116 Zn 0.35989 0.17457 0.87766 0.0
O117 O 0.40323 0.21818 0.87931 0.0
Zn118 Zn 0.40244 0.24805 0.91308 0.0
Zn119 Zn 0.40091 0.26013 0.85134 0.0
Zn120 Zn 0.45701 0.19416 0.87081 0.0
O121 O 0.46247 0.25275 0.92774 0.0
O122 O 0.49984 0.2172 0.89657 0.0
O123 O 0.3152 0.19221 0.90793 0.0
O124 O 0.36106 0.21918 0.93853 0.0
O125 O 0.37663 0.30619 0.90815 0.0
O126 O 0.36825 0.31042 0.86327 0.0
O127 O 0.46055 0.2772 0.84049 0.0
O128 O 0.38868 0.11579 0.8864 0.0
O129 O 0.4768 0.2102 0.83348 0.0
O130 O 0.45617 0.13189 0.87625 0.0
C131 C 0.35104 0.19919 0.8167 0.0
C132 C 0.49798 0.23942 0.91824 0.0
C133 C 0.3626 0.32536 0.88711 0.0
C134 C 0.32359 0.20627 0.93209 0.0
C135 C 0.4865 0.24957 0.83135 0.0
C136 C 0.42796 0.10487 0.88369 0.0
O137 O 0.37349 0.23274 0.8203 0.0
O138 O 0.86106 0.30609 0.87665 0.0
Zn139 Zn 0.85897 0.31287 0.92 0.0
O140 O 0.80499 0.34126 0.92665 0.0
Zn141 Zn 0.76207 0.30302 0.94022 0.0
Zn142 Zn 0.78129 0.36649 0.89473 0.0
Zn143 Zn 0.81056 0.38416 0.95425 0.0
O144 O 0.72787 0.33355 0.96843 0.0
O145 O 0.78475 0.36089 0.98894 0.0
O146 O 0.85819 0.25604 0.94515 0.0
O147 O 0.78971 0.25458 0.95805 0.0
O148 O 0.72332 0.28136 0.91096 0.0
O149 O 0.7309 0.33319 0.88049 0.0
O150 O 0.7625 0.42648 0.90061 0.0
O151 O 0.90741 0.35627 0.93167 0.0
O152 O 0.77789 0.43753 0.94421 0.0
O153 O 0.87184 0.4033 0.95698 0.0
C154 C 0.84729 0.33285 0.85865 0.0
C155 C 0.74512 0.35089 0.98921 0.0
C156 C 0.71304 0.29876 0.8885 0.0
C157 C 0.82704 0.2391 0.95885 0.0
C158 C 0.76201 0.45016 0.9217 0.0
C159 C 0.90652 0.3906 0.94612 0.0
O160 O 0.82373 0.36398 0.86548 0.0
O161 O 0.63286 0.81909 0.84432 0.0
Zn162 Zn 0.62198 0.81879 0.88559 0.0
O163 O 0.58462 0.77047 0.89211 0.0
Zn164 Zn 0.60317 0.74096 0.92394 0.0
Zn165 Zn 0.58029 0.72955 0.8624 0.0
Zn166 Zn 0.52746 0.78969 0.89652 0.0
O167 O 0.55312 0.72365 0.94686 0.0
O168 O 0.49913 0.75655 0.92653 0.0
O169 O 0.67605 0.81218 0.91036 0.0
O170 O 0.64659 0.7755 0.94465 0.0
O171 O 0.63254 0.68695 0.91333 0.0
O172 O 0.61511 0.67656 0.86991 0.0
O173 O 0.51816 0.71393 0.85432 0.0
O174 O 0.58974 0.87495 0.8939 0.0
O175 O 0.49382 0.77852 0.86298 0.0
O176 O 0.52373 0.85235 0.90286 0.0
C177 C 0.6213 0.79429 0.82475 0.0
C178 C 0.51335 0.73126 0.94469 0.0
C179 C 0.63429 0.6648 0.89157 0.0
C180 C 0.6775 0.79734 0.93478 0.0
C181 C 0.489 0.74196 0.85213 0.0
C182 C 0.55072 0.88264 0.90006 0.0
O183 O 0.60171 0.7591 0.82915 0.0
O184 O 0.62945 0.82593 0.64347 0.0
Zn185 Zn 0.64799 0.84947 0.60495 0.0
O186 O 0.70085 0.88133 0.61112 0.0
Zn187 Zn 0.74726 0.85967 0.59021 0.0
Zn188 Zn 0.7224 0.88345 0.64769 0.0
Zn189 Zn 0.69168 0.94073 0.60573 0.0
O190 O 0.78352 0.90851 0.57646 0.0
O191 O 0.74352 0.96448 0.58763 0.0
O192 O 0.65863 0.8058 0.5726 0.0
O193 O 0.72507 0.82379 0.55992 0.0
O194 O 0.78333 0.82117 0.61266 0.0
O195 O 0.77024 0.84347 0.65474 0.0
O196 O 0.74065 0.94239 0.6602 0.0
O197 O 0.60183 0.8921 0.59175 0.0
O198 O 0.68599 0.9732 0.6406 0.0
O199 O 0.6381 0.95276 0.58543 0.0
C200 C 0.64226 0.8394 0.66696 0.0
C201 C 0.77771 0.94875 0.57787 0.0
C202 C 0.78978 0.81932 0.63822 0.0
C203 C 0.69076 0.8024 0.55631 0.0
C204 C 0.71654 0.97455 0.65757 0.0
C205 C 0.60353 0.93118 0.58388 0.0
O206 O 0.67511 0.86322 0.66968 0.0
O207 O 0.16252 0.64016 0.67956 0.0
Zn208 Zn 0.14858 0.6469 0.63705 0.0
O209 O 0.12094 0.70337 0.63307 0.0
Zn210 Zn 0.15624 0.74212 0.61193 0.0
Zn211 Zn 0.11043 0.73507 0.66671 0.0
Zn212 Zn 0.0664 0.69566 0.61553 0.0
O213 O 0.12253 0.77112 0.5828 0.0
O214 O 0.06289 0.73172 0.58222 0.0
O215 O 0.19882 0.64397 0.60678 0.0
O216 O 0.20086 0.71144 0.59235 0.0
O217 O 0.18503 0.78668 0.63422 0.0
O218 O 0.14388 0.78982 0.67086 0.0
O219 O 0.04876 0.74765 0.6748 0.0
O220 O 0.1034 0.59901 0.62823 0.0
O221 O 0.01992 0.71557 0.63905 0.0
O222 O 0.04985 0.6346 0.60938 0.0
C223 C 0.14983 0.66373 0.6996 0.0
C224 C 0.08615 0.76189 0.5728 0.0
C225 C 0.17497 0.80392 0.65674 0.0
C226 C 0.21463 0.67356 0.59127 0.0
C227 C 0.01614 0.73542 0.66145 0.0
C228 C 0.06623 0.59964 0.61719 0.0
O229 O 0.12984 0.69816 0.69547 0.0
O230 O 0.35369 0.17898 0.63457 0.0
Zn231 Zn 0.34663 0.1586 0.59372 0.0
O232 O 0.29628 0.1212 0.59271 0.0
Zn233 Zn 0.25282 0.14238 0.56897 0.0
Zn234 Zn 0.26769 0.1116 0.62679 0.0
Zn235 Zn 0.3121 0.0651 0.58222 0.0
O236 O 0.22258 0.09493 0.54912 0.0
O237 O 0.26588 0.04107 0.55902 0.0
O238 O 0.33847 0.20647 0.56349 0.0
O239 O 0.27776 0.18441 0.54362 0.0
O240 O 0.20807 0.17266 0.58996 0.0
O241 O 0.21173 0.1408 0.63017 0.0
O242 O 0.26097 0.05028 0.63752 0.0
O243 O 0.39922 0.12123 0.58375 0.0
O244 O 0.31482 0.02482 0.61369 0.0
O245 O 0.36985 0.06272 0.56564 0.0
C246 C 0.33476 0.16377 0.65584 0.0
C247 C 0.23194 0.05552 0.54824 0.0
C248 C 0.19379 0.16661 0.61393 0.0
C249 C 0.31009 0.20926 0.54454 0.0
C250 C 0.28707 0.02047 0.63241 0.0
C251 C 0.40275 0.08499 0.57168 0.0
O252 O 0.30373 0.13768 0.65389 0.0
O253 O 0.81538 0.3442 0.67704 0.0
Zn254 Zn 0.82043 0.34842 0.63388 0.0
O255 O 0.85534 0.29981 0.62407 0.0
Zn256 Zn 0.82541 0.2547 0.60637 0.0
Zn257 Zn 0.8855 0.27259 0.65329 0.0
Zn258 Zn 0.8932 0.31764 0.59601 0.0
O259 O 0.85943 0.23212 0.57483 0.0
O260 O 0.87336 0.29719 0.55946 0.0
O261 O 0.76437 0.34341 0.60795 0.0
O262 O 0.77327 0.2779 0.59069 0.0
O263 O 0.81026 0.2077 0.63175 0.0
O264 O 0.86361 0.21263 0.66139 0.0
O265 O 0.94836 0.26943 0.64534 0.0
O266 O 0.85693 0.40423 0.62642 0.0
O267 O 0.94964 0.29209 0.60237 0.0
O268 O 0.90603 0.37963 0.59787 0.0
C269 C 0.84204 0.32834 0.69441 0.0
C270 C 0.86976 0.25711 0.55541 0.0
C271 C 0.83068 0.19338 0.65214 0.0
C272 C 0.75242 0.3124 0.59209 0.0
C273 C 0.96828 0.27662 0.6231 0.0
C274 C 0.89063 0.41001 0.61185 0.0
O275 O 0.873 0.30498 0.6868 0.0
O276 O 0.62511 0.17215 0.37017 0.0
Zn277 Zn 0.63656 0.16189 0.41293 0.0
O278 O 0.69183 0.13297 0.41483 0.0
Zn279 Zn 0.73414 0.16277 0.43641 0.0
Zn280 Zn 0.72096 0.12443 0.38111 0.0
Zn281 Zn 0.68379 0.07474 0.4258 0.0
O282 O 0.76805 0.12067 0.45802 0.0
O283 O 0.73212 0.05993 0.45031 0.0
O284 O 0.64098 0.21476 0.44147 0.0
O285 O 0.70503 0.20367 0.46053 0.0
O286 O 0.77692 0.19656 0.41389 0.0
O287 O 0.76982 0.16279 0.37451 0.0
O288 O 0.74179 0.06577 0.37435 0.0
O289 O 0.58902 0.11833 0.42605 0.0
O290 O 0.68849 0.03305 0.395 0.0
O291 O 0.62596 0.06277 0.44124 0.0
C292 C 0.64496 0.15458 0.34997 0.0
C293 C 0.76365 0.0804 0.46055 0.0
C294 C 0.78825 0.19055 0.38926 0.0
C295 C 0.66972 0.22345 0.45974 0.0
C296 C 0.71966 0.03231 0.37846 0.0
C297 C 0.59038 0.08114 0.43717 0.0
O298 O 0.67999 0.13543 0.35332 0.0
O299 O 0.83982 0.67491 0.34347 0.0
Zn300 Zn 0.85927 0.67721 0.38407 0.0
O301 O 0.89827 0.72659 0.38779 0.0
Zn302 Zn 0.87249 0.76873 0.41085 0.0
Zn303 Zn 0.91266 0.75597 0.3537 0.0
Zn304 Zn 0.95135 0.70862 0.40334 0.0
O305 O 0.91365 0.79179 0.43848 0.0
O306 O 0.96667 0.74511 0.43521 0.0
O307 O 0.80986 0.68074 0.4135 0.0
O308 O 0.8233 0.74497 0.43121 0.0
O309 O 0.84993 0.8159 0.38874 0.0
O310 O 0.88806 0.81505 0.35054 0.0
O311 O 0.97549 0.75667 0.34377 0.0
O312 O 0.89417 0.62271 0.39075 0.0
O313 O -0.00132 0.71506 0.37699 0.0
O314 O 0.95281 0.64645 0.41164 0.0
C315 C 0.85541 0.69454 0.32264 0.0
C316 C 0.94982 0.7779 0.44605 0.0
C317 C 0.85999 0.83186 0.36579 0.0
C318 C 0.8012 0.71081 0.43046 0.0
C319 C 0.00504 0.73513 0.35487 0.0
C320 C 0.92994 0.6158 0.40256 0.0
O321 O 0.8837 0.7236 0.32513 0.0
O322 O 0.36497 0.80855 0.37672 0.0
Zn323 Zn 0.35758 0.8249 0.41837 0.0
O324 O 0.30465 0.85515 0.41773 0.0
Zn325 Zn 0.2588 0.81685 0.42574 0.0
Zn326 Zn 0.29699 0.87916 0.38247 0.0
Zn327 Zn 0.30463 0.90023 0.44342 0.0
O328 O 0.2181 0.84826 0.44994 0.0
O329 O 0.26886 0.87969 0.47495 0.0
O330 O 0.3492 0.77699 0.44886 0.0
O331 O 0.27857 0.76759 0.44843 0.0
O332 O 0.22966 0.79852 0.39135 0.0
O333 O 0.25296 0.84612 0.36092 0.0
O334 O 0.27724 0.93925 0.38369 0.0
O335 O 0.40371 0.86945 0.42974 0.0
O336 O 0.2747 0.95184 0.42815 0.0
O337 O 0.36574 0.9198 0.45069 0.0
C338 C 0.36317 0.83746 0.35802 0.0
C339 C 0.23037 0.86636 0.4719 0.0
C340 C 0.22959 0.81414 0.36731 0.0
C341 C 0.3152 0.75793 0.45775 0.0
C342 C 0.26785 0.96338 0.40363 0.0
C343 C 0.40155 0.9053 0.44243 0.0
O344 O 0.35279 0.8752 0.36448 0.0
O345 O 0.1577 0.3365 0.33883 0.0
Zn346 Zn 0.14147 0.33925 0.3801 0.0
O347 O 0.10262 0.29193 0.3849 0.0
Zn348 Zn 0.10746 0.26703 0.41999 0.0
Zn349 Zn 0.10657 0.24711 0.35835 0.0
Zn350 Zn 0.04642 0.31116 0.37787 0.0
O351 O 0.04922 0.25941 0.43707 0.0
O352 O 0.0067 0.28618 0.40511 0.0
O353 O 0.18943 0.33146 0.40968 0.0
O354 O 0.14842 0.30213 0.44223 0.0
O355 O 0.13521 0.2097 0.4171 0.0
O356 O 0.14097 0.19812 0.37254 0.0
O357 O 0.04671 0.22712 0.34905 0.0
O358 O 0.10867 0.39621 0.38733 0.0
O359 O 0.02692 0.2929 0.34118 0.0
O360 O 0.04204 0.37315 0.38167 0.0
C361 C 0.14979 0.30871 0.32004 0.0
C362 C 0.01201 0.2674 0.42782 0.0
C363 C 0.14805 0.18709 0.39716 0.0
C364 C 0.18337 0.31982 0.4346 0.0
C365 C 0.01903 0.25313 0.34 0.0
C366 C 0.06838 0.40331 0.38632 0.0
O367 O 0.13154 0.27314 0.32534 0.0
H368 H 0.17405 0.38374 0.20162 0.0
H369 H 0.13706 0.25556 0.17886 0.0
H370 H 0.12661 0.23754 0.22741 0.0
H371 H 0.13486 0.25705 0.27601 0.0
H372 H 0.17738 0.38452 0.29782 0.0
H373 H 0.18069 0.40363 0.24953 0.0
C374 C 0.16274 0.35203 0.20728 0.0
C375 C 0.15585 0.32104 0.18679 0.0
C376 C 0.15944 0.34153 0.23494 0.0
C377 C 0.14164 0.28008 0.19423 0.0
C378 C 0.13655 0.2697 0.22198 0.0
C379 C 0.14512 0.28903 0.27031 0.0
C380 C 0.15628 0.31926 0.29073 0.0
C381 C 0.14669 0.29987 0.24247 0.0
C382 C 0.16917 0.36049 0.28273 0.0
C383 C 0.17061 0.37156 0.25512 0.0
H384 H 0.65858 0.09388 0.31237 0.0
H385 H 0.60193 0.21834 0.32202 0.0
H386 H 0.59799 0.22534 0.27204 0.0
H387 H 0.6183 0.19953 0.22657 0.0
H388 H 0.68079 0.07759 0.21735 0.0
H389 H 0.67642 0.06689 0.26692 0.0
C390 C 0.64476 0.12248 0.30361 0.0
C391 C 0.63074 0.15581 0.32101 0.0
C392 C 0.645 0.12714 0.27516 0.0
C393 C 0.61249 0.19217 0.30927 0.0
C394 C 0.61098 0.19635 0.28071 0.0
C395 C 0.63094 0.17033 0.23518 0.0
C396 C 0.65019 0.13932 0.21799 0.0
C397 C 0.6285 0.16465 0.26358 0.0
C398 C 0.66629 0.10204 0.22989 0.0
C399 C 0.66347 0.09587 0.25821 0.0
H400 H 0.79741 0.62093 0.20883 0.0
H401 H 0.87865 0.72412 0.18013 0.0
H402 H 0.89202 0.74567 0.22751 0.0
H403 H 0.88155 0.7342 0.27632 0.0
H404 H 0.80146 0.63009 0.30495 0.0
H405 H 0.78605 0.61016 0.25755 0.0
C406 C 0.81813 0.64825 0.21271 0.0
C407 C 0.8372 0.67086 0.19078 0.0
C408 C 0.82558 0.66029 0.2398 0.0
C409 C 0.86374 0.7061 0.1965 0.0
C410 C 0.87127 0.71842 0.22357 0.0
C411 C 0.86055 0.70711 0.2724 0.0
C412 C 0.84277 0.68347 0.29432 0.0
C413 C 0.85244 0.6956 0.24528 0.0
C414 C 0.8155 0.64879 0.28859 0.0
C415 C 0.80688 0.63735 0.26151 0.0
H416 H 0.33666 0.88897 0.31679 0.0
H417 H 0.38561 0.76242 0.33205 0.0
H418 H 0.37991 0.74618 0.28314 0.0
H419 H 0.36191 0.76827 0.23656 0.0
H420 H 0.31226 0.89448 0.22138 0.0
H421 H 0.3163 0.91016 0.27046 0.0
C422 C 0.3465 0.85777 0.3096 0.0
C423 C 0.36225 0.82704 0.32828 0.0
C424 C 0.34239 0.84854 0.28164 0.0
C425 C 0.3739 0.78675 0.31829 0.0
C426 C 0.37041 0.77746 0.29034 0.0
C427 C 0.3518 0.79934 0.24385 0.0
C428 C 0.33707 0.83042 0.22509 0.0
C429 C 0.35475 0.80815 0.27191 0.0
C430 C 0.32353 0.87002 0.23519 0.0
C431 C 0.32622 0.87902 0.26323 0.0
H432 H 0.14122 0.58705 0.81899 0.0
H433 H 0.11426 0.71933 0.83735 0.0
H434 H 0.1242 0.73751 0.78922 0.0
H435 H 0.14143 0.71652 0.74279 0.0
H436 H 0.16534 0.58427 0.72297 0.0
H437 H 0.15795 0.5657 0.77159 0.0
C438 C 0.13704 0.6199 0.81254 0.0
C439 C 0.12667 0.65184 0.832 0.0
C440 C 0.14346 0.63021 0.78485 0.0
C441 C 0.12166 0.69407 0.82301 0.0
C442 C 0.12785 0.70453 0.79551 0.0
C443 C 0.14523 0.68343 0.74887 0.0
C444 C 0.15383 0.65171 0.72898 0.0
C445 C 0.13912 0.67295 0.77641 0.0
C446 C 0.15917 0.60935 0.73767 0.0
C447 C 0.15431 0.59874 0.76543 0.0
H448 H 0.31617 0.11883 0.7011 0.0
H449 H 0.37805 0.23573 0.67464 0.0
H450 H 0.38636 0.25755 0.72262 0.0
H451 H 0.3733 0.24415 0.77129 0.0
H452 H 0.31018 0.12731 0.79701 0.0
H453 H 0.30333 0.10541 0.74924 0.0
C454 C 0.33155 0.14926 0.70563 0.0
C455 C 0.3462 0.17591 0.68419 0.0
C456 C 0.33501 0.16184 0.7329 0.0
C457 C 0.36672 0.21462 0.69066 0.0
C458 C 0.37098 0.2272 0.71804 0.0
C459 C 0.35769 0.21393 0.76662 0.0
C460 C 0.34202 0.18741 0.78791 0.0
C461 C 0.35461 0.20128 0.73922 0.0
C462 C 0.32215 0.14844 0.78119 0.0
C463 C 0.3186 0.13579 0.75391 0.0
H464 H 0.80657 0.37522 0.818 0.0
H465 H 0.90057 0.27688 0.83107 0.0
H466 H 0.90683 0.26753 0.78141 0.0
H467 H 0.88496 0.28684 0.73481 0.0
H468 H 0.7893 0.38375 0.72227 0.0
H469 H 0.78421 0.39385 0.7718 0.0
C470 C 0.82886 0.35179 0.81024 0.0
C471 C 0.85351 0.32699 0.82858 0.0
C472 C 0.83171 0.34624 0.78183 0.0
C473 C 0.88146 0.29654 0.81769 0.0
C474 C 0.88491 0.29119 0.78927 0.0
C475 C 0.86296 0.3104 0.74273 0.0
C476 C 0.8376 0.33478 0.72454 0.0
C477 C 0.86009 0.3158 0.77121 0.0
C478 C 0.80914 0.36462 0.73554 0.0
C479 C 0.80634 0.37041 0.76389 0.0
H480 H 0.63601 0.88744 0.71156 0.0
H481 H 0.60741 0.76091 0.68131 0.0
H482 H 0.59776 0.73549 0.7285 0.0
H483 H 0.60628 0.74813 0.7782 0.0
H484 H 0.64333 0.87394 0.8068 0.0
H485 H 0.64305 0.90035 0.76008 0.0
C486 C 0.6269 0.85435 0.71523 0.0
C487 C 0.62262 0.82597 0.69304 0.0
C488 C 0.6247 0.8396 0.74208 0.0
C489 C 0.61039 0.78343 0.69802 0.0
C490 C 0.60579 0.76881 0.725 0.0
C491 C 0.61454 0.78129 0.77422 0.0
C492 C 0.62529 0.80892 0.79609 0.0
C493 C 0.61457 0.79631 0.74716 0.0
C494 C 0.63561 0.8518 0.79048 0.0
C495 C 0.63495 0.86708 0.76378 0.0
H496 H 0.93216 0.51373 0.06074 0.0
H497 H 0.98141 0.62718 0.10056 0.0
H498 H 0.04941 0.59123 0.10849 0.0
H499 H 0.0925 0.52602 0.10751 0.0
H500 H 0.04225 0.41167 0.06929 0.0
H501 H 0.97675 0.44973 0.05753 0.0
C502 C 0.95788 0.53105 0.07081 0.0
C503 C 0.95131 0.57334 0.08012 0.0
C504 C 0.99648 0.50974 0.076 0.0
C505 C 0.9853 0.59483 0.09313 0.0
C506 C 0.02416 0.57411 0.09785 0.0
C507 C 0.06736 0.50922 0.09654 0.0
C508 C 0.07236 0.46564 0.08959 0.0
C509 C 0.02968 0.53125 0.08999 0.0
C510 C 0.03935 0.44492 0.07513 0.0
C511 C 0.00187 0.46676 0.06835 0.0
H512 H 0.4917 0.89194 0.10687 0.0
H513 H 0.38369 0.97609 0.11335 0.0
H514 H 0.43199 0.03831 0.1119 0.0
H515 H 0.50483 0.06876 0.10864 0.0
H516 H 0.61346 0.98492 0.10649 0.0
H517 H 0.56512 0.92252 0.10654 0.0
C518 C 0.47869 0.92394 0.10783 0.0
C519 C 0.4339 0.92934 0.10979 0.0
C520 C 0.50685 0.95953 0.10785 0.0
C521 C 0.4178 0.97099 0.11168 0.0
C522 C 0.44548 0.00655 0.11084 0.0
C523 C 0.51802 0.03681 0.10809 0.0
C524 C 0.56288 0.0316 0.10717 0.0
C525 C 0.49003 0.00121 0.10888 0.0
C526 C 0.57926 0.98993 0.10711 0.0
C527 C 0.55154 0.95427 0.10708 0.0
H528 H 0.90721 0.47683 0.95265 0.0
H529 H 0.99218 0.36991 0.94364 0.0
H530 H 0.05404 0.41874 0.94625 0.0
H531 H 0.08394 0.49258 0.9496 0.0
H532 H -0.00218 0.59925 0.95371 0.0
H533 H 0.93656 0.54991 0.95476 0.0
C534 C 0.93927 0.464 0.9515 0.0
C535 C 0.94488 0.41945 0.94826 0.0
C536 C 0.97454 0.49243 0.95215 0.0
C537 C 0.98677 0.40383 0.94621 0.0
C538 C 0.02217 0.43183 0.94773 0.0
C539 C 0.05174 0.50495 0.95107 0.0
C540 C 0.04552 0.54969 0.95199 0.0
C541 C 0.01647 0.47627 0.95055 0.0
C542 C 0.00355 0.56515 0.95316 0.0
C543 C 0.96851 0.53688 0.95371 0.0
H544 H 0.46776 0.90893 0.90402 0.0
H545 H 0.59712 0.9573 0.89687 0.0
H546 H 0.56995 0.02993 0.89235 0.0
H547 H 0.51011 0.07876 0.8877 0.0
H548 H 0.38029 0.03146 0.89357 0.0
H549 H 0.40727 0.95899 0.90139 0.0
C550 C 0.49018 0.93534 0.90182 0.0
C551 C 0.53466 0.92738 0.90075 0.0
C552 C 0.47425 0.97706 0.89872 0.0
C553 C 0.56291 0.96223 0.89777 0.0
C554 C 0.54734 0.0038 0.89507 0.0
C555 C 0.48741 0.05276 0.89068 0.0
C556 C 0.44299 0.06071 0.88971 0.0
C557 C 0.50313 0.01142 0.89501 0.0
C558 C 0.41449 0.02642 0.89405 0.0
C559 C 0.42998 0.98497 0.89851 0.0
H560 H 0.59159 0.01724 0.58122 0.0
H561 H 0.52596 0.89675 0.56878 0.0
H562 H 0.45923 0.93479 0.5603 0.0
H563 H 0.41853 0.0013 0.56074 0.0
H564 H 0.4828 0.12142 0.57703 0.0
H565 H 0.55136 0.08435 0.57928 0.0
C566 C 0.56288 -0.00083 0.57626 0.0
C567 C 0.56392 0.95399 0.5757 0.0
C568 C 0.52436 0.02122 0.57222 0.0
C569 C 0.52617 0.93137 0.56946 0.0
C570 C 0.48798 0.95316 0.56464 0.0
C571 C 0.44753 0.01972 0.56432 0.0
C572 C 0.44529 0.06433 0.56873 0.0
C573 C 0.48653 -0.00202 0.56658 0.0
C574 C 0.48341 0.08722 0.57356 0.0
C575 C 0.52261 0.06595 0.57497 0.0
H576 H 0.97937 0.59347 0.62011 0.0
H577 H 0.09231 0.51661 0.61079 0.0
H578 H 0.04752 0.45206 0.60751 0.0
H579 H 0.97659 0.41755 0.60738 0.0
H580 H 0.86365 0.49297 0.62054 0.0
H581 H 0.90814 0.55816 0.62232 0.0
C582 C 0.99423 0.56259 0.6172 0.0
C583 C 0.03933 0.56002 0.61531 0.0
C584 C 0.96823 0.52547 0.61609 0.0
C585 C 0.05791 0.51962 0.61219 0.0
C586 C 0.03223 0.48272 0.61029 0.0
C587 C 0.96151 0.44828 0.61047 0.0
C588 C 0.91655 0.45035 0.61339 0.0
C589 C 0.98741 0.48528 0.61218 0.0
C590 C 0.89794 0.49038 0.61808 0.0
C591 C 0.92346 0.52763 0.61907 0.0
H592 H 0.40667 0.9927 0.44538 0.0
H593 H 0.48485 0.87973 0.4451 0.0
H594 H 0.54941 0.92441 0.44607 0.0
H595 H 0.58377 0.99499 0.44404 0.0
H596 H 0.50662 0.10854 0.44026 0.0
H597 H 0.44166 0.06428 0.44401 0.0
C598 C 0.43784 0.97782 0.44592 0.0
C599 C 0.44075 0.93267 0.44535 0.0
C600 C 0.47505 0.00389 0.44558 0.0
C601 C 0.48151 0.91417 0.44554 0.0
C602 C 0.51849 0.93979 0.44607 0.0
C603 C 0.55284 0.01039 0.44441 0.0
C604 C 0.5504 0.05541 0.44205 0.0
C605 C 0.51567 0.98463 0.44568 0.0
C606 C 0.50973 0.07421 0.44213 0.0
C607 C 0.47251 0.0488 0.44421 0.0
H608 H 0.98468 0.42466 0.38487 0.0
H609 H 0.11009 0.47909 0.39928 0.0
H610 H 0.07754 0.54902 0.40774 0.0
H611 H 0.0136 0.59464 0.40958 0.0
H612 H 0.88904 0.53934 0.39358 0.0
H613 H 0.92148 0.46915 0.38762 0.0
C614 C 0.00525 0.45164 0.38987 0.0
C615 C 0.05004 0.44643 0.3913 0.0
C616 C 0.98639 0.49144 0.39463 0.0
C617 C 0.07569 0.48206 0.3979 0.0
C618 C 0.05702 0.522 0.40281 0.0
C619 C 0.99336 0.56715 0.4052 0.0
C620 C 0.94872 0.57232 0.4022 0.0
C621 C 0.0124 0.52704 0.40114 0.0
C622 C 0.92329 0.53636 0.3961 0.0
C623 C 0.94189 0.49626 0.39256 0.0
H624 H 0.36353 0.31088 0.14509 0.0
H625 H 0.362 0.31957 0.0571 0.0
H626 H 0.42888 0.27957 0.05483 0.0
H627 H 0.48868 0.24467 0.07822 0.0
H628 H 0.49086 0.24006 0.16634 0.0
H629 H 0.42209 0.27604 0.16819 0.0
C630 C 0.37756 0.30377 0.12535 0.0
C631 C 0.35801 0.318 0.1013 0.0
C632 C 0.41595 0.28168 0.12427 0.0
C633 C 0.37675 0.309 0.0759 0.0
C634 C 0.41482 0.28614 0.0746 0.0
C635 C 0.4738 0.25123 0.09778 0.0
C636 C 0.49448 0.23986 0.12211 0.0
C637 C 0.43482 0.27267 0.0987 0.0
C638 C 0.47543 0.24886 0.14738 0.0
C639 C 0.43621 0.2693 0.14845 0.0
H640 H 0.72892 0.47209 0.15613 0.0
H641 H 0.83309 0.4387 0.1025 0.0
H642 H 0.81639 0.36307 0.10838 0.0
H643 H 0.76615 0.30806 0.12285 0.0
H644 H 0.65796 0.34094 0.17319 0.0
H645 H 0.68321 0.41513 0.17531 0.0
C646 C 0.74853 0.4482 0.14624 0.0
C647 C 0.78174 0.46087 0.12858 0.0
C648 C 0.73794 0.40478 0.14904 0.0
C649 C 0.80696 0.42967 0.11589 0.0
C650 C 0.79747 0.38645 0.11925 0.0
C651 C 0.74839 0.33124 0.13471 0.0
C652 C 0.70975 0.3193 0.14732 0.0
C653 C 0.76203 0.37385 0.13486 0.0
C654 C 0.68764 0.34946 0.16308 0.0
C655 C 0.70187 0.39193 0.16411 0.0
H656 H 0.6581 0.72575 0.10876 0.0
H657 H 0.63649 0.61576 0.16026 0.0
H658 H 0.56401 0.64048 0.17025 0.0
H659 H 0.50411 0.68909 0.15947 0.0
H660 H 0.52687 0.79597 0.10547 0.0
H661 H 0.60173 0.77676 0.10139 0.0
C662 C 0.63773 0.70728 0.12238 0.0
C663 C 0.65219 0.66863 0.13332 0.0
C664 C 0.59617 0.72096 0.12736 0.0
C665 C 0.62583 0.64555 0.15141 0.0
C666 C 0.58437 0.65953 0.15701 0.0
C667 C 0.52577 0.70836 0.14719 0.0
C668 C 0.51012 0.74332 0.1324 0.0
C669 C 0.56875 0.69651 0.14436 0.0
C670 C 0.53822 0.76834 0.11658 0.0
C671 C 0.58098 0.75751 0.11429 0.0
H672 H 0.20162 0.52534 0.17937 0.0
H673 H 0.32724 0.47072 0.18732 0.0
H674 H 0.35894 0.5423 0.18939 0.0
H675 H 0.35207 0.61863 0.17795 0.0
H676 H 0.22677 0.67077 0.16388 0.0
H677 H 0.19381 0.60209 0.1751 0.0
C678 C 0.23582 0.52894 0.18241 0.0
C679 C 0.26217 0.4928 0.18236 0.0
C680 C 0.25399 0.56992 0.18172 0.0
C681 C 0.30632 0.49812 0.1868 0.0
C682 C 0.32451 0.53905 0.1877 0.0
C683 C 0.31753 0.61512 0.17812 0.0
C684 C 0.29182 0.64923 0.1697 0.0
C685 C 0.2989 0.575 0.1834 0.0
C686 C 0.24714 0.64455 0.16989 0.0
C687 C 0.22829 0.60536 0.17633 0.0
H688 H 0.29323 0.73103 0.85565 0.0
H689 H 0.32088 0.59687 0.8635 0.0
H690 H 0.3949 0.61002 0.84968 0.0
H691 H 0.45421 0.66212 0.8461 0.0
H692 H 0.42559 0.79629 0.83785 0.0
H693 H 0.34942 0.78049 0.84004 0.0
C694 C 0.3152 0.7046 0.85341 0.0
C695 C 0.30224 0.66337 0.86109 0.0
C696 C 0.35765 0.71242 0.84566 0.0
C697 C 0.33046 0.62903 0.85778 0.0
C698 C 0.37286 0.63656 0.85009 0.0
C699 C 0.43129 0.68768 0.84372 0.0
C700 C 0.44548 0.7304 0.84292 0.0
C701 C 0.38734 0.6785 0.84553 0.0
C702 C 0.41542 0.76315 0.83931 0.0
C703 C 0.3718 0.75424 0.8407 0.0
H704 H 0.24935 0.48878 0.87906 0.0
H705 H 0.23905 0.46852 0.96601 0.0
H706 H 0.28431 0.40516 0.96221 0.0
H707 H 0.32784 0.35682 0.93393 0.0
H708 H 0.33869 0.38033 0.84721 0.0
H709 H 0.29223 0.44184 0.85135 0.0
C710 C 0.25655 0.47038 0.89723 0.0
C711 C 0.24071 0.48311 0.92275 0.0
C712 C 0.28311 0.43503 0.89498 0.0
C713 C 0.25088 0.45922 0.94611 0.0
C714 C 0.27684 0.42318 0.94395 0.0
C715 C 0.32037 0.37568 0.91601 0.0
C716 C 0.33683 0.36415 0.89032 0.0
C717 C 0.29349 0.4111 0.91848 0.0
C718 C 0.32646 0.38853 0.86722 0.0
C719 C 0.29982 0.42364 0.86952 0.0
H720 H 0.66028 0.3403 0.85389 0.0
H721 H 0.68616 0.21586 0.88786 0.0
H722 H 0.62148 0.18707 0.86663 0.0
H723 H 0.55307 0.19996 0.84494 0.0
H724 H 0.52165 0.32655 0.81677 0.0
H725 H 0.59383 0.35162 0.82826 0.0
C726 C 0.65217 0.30668 0.85613 0.0
C727 C 0.67761 0.28025 0.87253 0.0
C728 C 0.61401 0.29083 0.84487 0.0
C729 C 0.66673 0.23686 0.87551 0.0
C730 C 0.62985 0.22039 0.86336 0.0
C731 C 0.56234 0.23273 0.84046 0.0
C732 C 0.5321 0.26149 0.83012 0.0
C733 C 0.60255 0.24745 0.84885 0.0
C734 C 0.5445 0.30391 0.82474 0.0
C735 C 0.58554 0.3183 0.83158 0.0
H736 H 0.7156 0.48197 0.87961 0.0
H737 H 0.76467 0.51478 0.95941 0.0
H738 H 0.73121 0.58489 0.95635 0.0
H739 H 0.6856 0.63536 0.93203 0.0
H740 H 0.63648 0.60258 0.85223 0.0
H741 H 0.67249 0.53368 0.85442 0.0
C742 C 0.71906 0.5044 0.89638 0.0
C743 C 0.74236 0.49294 0.91981 0.0
C744 C 0.69949 0.54447 0.8946 0.0
C745 C 0.74661 0.52256 0.94124 0.0
C746 C 0.72746 0.56265 0.93953 0.0
C747 C 0.68278 0.61325 0.91504 0.0
C748 C 0.65806 0.62407 0.89206 0.0
C749 C 0.70341 0.5737 0.91646 0.0
C750 C 0.65519 0.59511 0.87018 0.0
C751 C 0.67569 0.55565 0.87144 0.0
H752 H 0.84918 0.83781 0.67637 0.0
H753 H 0.80512 0.73847 0.62186 0.0
H754 H 0.86958 0.69731 0.63077 0.0
H755 H 0.94307 0.69713 0.64625 0.0
H756 H 0.99223 0.80127 0.69516 0.0
H757 H 0.92072 0.83246 0.69725 0.0
C758 C 0.85336 0.80657 0.66714 0.0
C759 C 0.82318 0.7911 0.6483 0.0
C760 C 0.89151 0.78435 0.67119 0.0
C761 C 0.82852 0.75089 0.63619 0.0
C762 C 0.86526 0.72751 0.64125 0.0
C763 C 0.93799 0.72627 0.65782 0.0
C764 C 0.97284 0.74769 0.66981 0.0
C765 C 0.8978 0.74507 0.6575 0.0
C766 C 0.96581 0.78458 0.68546 0.0
C767 C 0.92507 0.80258 0.68642 0.0
H768 H 0.2237 0.99541 0.6671 0.0
H769 H 0.33574 0.94945 0.62502 0.0
H770 H 0.31403 0.87596 0.63411 0.0
H771 H 0.25621 0.82594 0.64517 0.0
H772 H 0.14252 0.87124 0.68529 0.0
H773 H 0.17234 0.94381 0.68637 0.0
C774 C 0.24395 0.96936 0.66053 0.0
C775 C 0.28048 0.97783 0.64461 0.0
C776 C 0.23069 0.92708 0.66516 0.0
C777 C 0.30689 0.94379 0.63677 0.0
C778 C 0.29446 0.9017 0.64187 0.0
C779 C 0.23846 0.85158 0.65474 0.0
C780 C 0.19694 0.84381 0.66447 0.0
C781 C 0.25527 0.8931 0.65464 0.0
C782 C 0.17448 0.87676 0.67744 0.0
C783 C 0.19137 0.91825 0.67786 0.0
H784 H 0.01505 0.22659 0.65698 0.0
H785 H 0.02315 0.30195 0.5832 0.0
H786 H 0.0956 0.2773 0.57539 0.0
H787 H 0.15364 0.22976 0.58704 0.0
H788 H 0.1458 0.15219 0.65982 0.0
H789 H 0.07631 0.18293 0.6707 0.0
C790 C 0.03292 0.23803 0.63942 0.0
C791 C 0.01361 0.26547 0.62051 0.0
C792 C 0.07439 0.22323 0.63476 0.0
C793 C 0.03712 0.28025 0.59787 0.0
C794 C 0.07855 0.26625 0.59337 0.0
C795 C 0.13693 0.21973 0.6054 0.0
C796 C 0.15442 0.1883 0.62234 0.0
C797 C 0.09699 0.23692 0.61128 0.0
C798 C 0.13275 0.17616 0.64631 0.0
C799 C 0.09301 0.19362 0.65251 0.0
H800 H 0.74973 0.16902 0.66155 0.0
H801 H 0.87989 0.12653 0.66859 0.0
H802 H 0.85473 0.05325 0.67717 0.0
H803 H 0.79612 0.0003 0.67335 0.0
H804 H 0.66626 0.04392 0.66476 0.0
H805 H 0.69073 0.11799 0.66706 0.0
C806 C 0.77247 0.14381 0.66566 0.0
C807 C 0.81642 0.15255 0.66395 0.0
C808 C 0.75779 0.10205 0.67017 0.0
C809 C 0.84583 0.12018 0.66971 0.0
C810 C 0.83144 0.07834 0.67443 0.0
C811 C 0.77306 0.02599 0.67298 0.0
C812 C 0.72958 0.01677 0.66825 0.0
C813 C 0.78753 0.06862 0.67341 0.0
C814 C 0.7 0.05033 0.66794 0.0
C815 C 0.71397 0.09268 0.66907 0.0
H816 H 0.84475 0.15702 0.35431 0.0
H817 H 0.81759 0.27133 0.40029 0.0
H818 H 0.88426 0.30413 0.38385 0.0
H819 H 0.95296 0.29684 0.36073 0.0
H820 H 0.98509 0.17811 0.3211 0.0
H821 H 0.91289 0.1504 0.33018 0.0
C822 C 0.85319 0.18937 0.36042 0.0
C823 C 0.82648 0.212 0.37832 0.0
C824 C 0.89227 0.20693 0.35203 0.0
C825 C 0.83791 0.25347 0.38655 0.0
C826 C 0.87588 0.2721 0.37717 0.0
C827 C 0.94388 0.26524 0.35351 0.0
C828 C 0.97399 0.23949 0.34007 0.0
C829 C 0.90369 0.24869 0.36045 0.0
C830 C 0.96217 0.19841 0.3313 0.0
C831 C 0.92115 0.18256 0.33669 0.0
H832 H 0.79364 0.01662 0.35137 0.0
H833 H 0.67903 0.95512 0.38203 0.0
H834 H 0.71135 0.88531 0.37564 0.0
H835 H 0.77627 0.84375 0.3702 0.0
H836 H 0.89241 0.90433 0.34204 0.0
H837 H 0.85517 0.97287 0.33814 0.0
C838 C 0.77534 0.98792 0.35604 0.0
C839 C 0.73454 0.99098 0.36794 0.0
C840 C 0.79459 0.94796 0.35312 0.0
C841 C 0.71088 0.95357 0.3734 0.0
C842 C 0.72934 0.91366 0.36983 0.0
C843 C 0.79309 0.87188 0.36266 0.0
C844 C 0.83692 0.86982 0.357 0.0
C845 C 0.77186 0.91078 0.36114 0.0
C846 C 0.85858 0.90572 0.34667 0.0
C847 C 0.83739 0.94476 0.34464 0.0
H848 H 0.19962 0.73397 0.36054 0.0
H849 H 0.18183 0.86372 0.33367 0.0
H850 H 0.10853 0.84676 0.31996 0.0
H851 H 0.04534 0.80079 0.32862 0.0
H852 H 0.06355 0.67238 0.35826 0.0
H853 H 0.14077 0.68246 0.35711 0.0
C854 C 0.18018 0.75795 0.35058 0.0
C855 C 0.19528 0.80014 0.34881 0.0
C856 C 0.13776 0.74836 0.34378 0.0
C857 C 0.1705 0.831 0.33546 0.0
C858 C 0.12839 0.82145 0.32795 0.0
C859 C 0.06633 0.77454 0.3337 0.0
C860 C 0.04909 0.73649 0.34439 0.0
C861 C 0.11082 0.7811 0.33396 0.0
C862 C 0.07638 0.70241 0.35065 0.0
C863 C 0.12051 0.70816 0.35009 0.0
H864 H 0.24368 0.02393 0.4404 0.0
H865 H 0.24572 0.99589 0.35401 0.0
H866 H 0.20942 0.06272 0.34444 0.0
H867 H 0.17571 0.12828 0.36048 0.0
H868 H 0.17382 0.1568 0.44678 0.0
H869 H 0.21201 0.09088 0.45627 0.0
C870 C 0.23637 0.03249 0.41946 0.0
C871 C 0.24736 0.00484 0.398 0.0
C872 C 0.21541 0.07102 0.41402 0.0
C873 C 0.23764 0.01651 0.37098 0.0
C874 C 0.2168 0.05473 0.36544 0.0
C875 C 0.18359 0.12012 0.38139 0.0
C876 C 0.17163 0.14735 0.40285 0.0
C877 C 0.2053 0.08207 0.38681 0.0
C878 C 0.1823 0.13629 0.42983 0.0
C879 C 0.20409 0.09854 0.43534 0.0
H880 H 0.22904 0.25557 0.04057 0.0
H881 H 0.19954 0.36615 0.9919 0.0
H882 H 0.22681 0.3306 0.95113 0.0
H883 H 0.26921 0.27277 0.93063 0.0
H884 H 0.30558 0.16525 0.97988 0.0
H885 H 0.26519 0.19395 0.01862 0.0
C886 C 0.22709 0.27114 0.02085 0.0
C887 C 0.21152 0.31331 0.01931 0.0
C888 C 0.24462 0.25099 0.99747 0.0
C889 C 0.21072 0.33356 0.99366 0.0
C890 C 0.22667 0.31332 0.97031 0.0
C891 C 0.26667 0.25476 0.9495 0.0
C892 C 0.28924 0.21617 0.95208 0.0
C893 C 0.24502 0.27262 0.97209 0.0
C894 C 0.28746 0.19428 0.97711 0.0
C895 C 0.26476 0.21105 0.99939 0.0
H896 H 0.86548 0.23278 0.00915 0.0
H897 H 0.79164 0.16159 0.95025 0.0
H898 H 0.7646 0.11467 0.98616 0.0
H899 H 0.74719 0.10735 0.03523 0.0
H900 H 0.82143 0.17743 0.09432 0.0
H901 H 0.86392 0.20977 0.05786 0.0
C902 C 0.84566 0.20535 1.00392 0.0
C903 C 0.83101 0.20073 0.97677 0.0
C904 C 0.82936 0.17862 0.02504 0.0
C905 C 0.80412 0.16562 0.97074 0.0
C906 C 0.78797 0.13908 0.99146 0.0
C907 C 0.77461 0.12731 0.04027 0.0
C908 C 0.78096 0.13958 0.06774 0.0
C909 C 0.79831 0.14692 0.0189 0.0
C910 C 0.81609 0.1666 0.07357 0.0
C911 C 0.83985 0.18607 0.05254 0.0
H912 H 0.69372 0.82969 0.98533 0.0
H913 H 0.7502 0.75745 0.91997 0.0
H914 H 0.80391 0.72942 0.95135 0.0
H915 H 0.82269 0.71263 0.99927 0.0
H916 H 0.7674 0.78622 0.06437 0.0
H917 H 0.72655 0.82771 0.03133 0.0
C918 C 0.71915 0.80953 0.97772 0.0
C919 C 0.71809 0.79576 0.95034 0.0
C920 C 0.74992 0.79339 0.99601 0.0
C921 C 0.75074 0.76905 0.94082 0.0
C922 C 0.78115 0.75254 0.95889 0.0
C923 C 0.80374 0.73953 1.00604 0.0
C924 C 0.79841 0.74657 0.03426 0.0
C925 C 0.77959 0.76272 0.98682 0.0
C926 C 0.77279 0.78075 0.0428 0.0
C927 C 0.7487 0.80394 0.02387 0.0
H928 H 0.20775 0.80458 0.97064 0.0
H929 H 0.11121 0.71945 1.00314 0.0
H930 H 0.12647 0.74525 0.04921 0.0
H931 H 0.17736 0.78089 0.08077 0.0
H932 H 0.27307 0.86683 0.04857 0.0
H933 H 0.24735 0.85293 1.00219 0.0
C934 C 0.18888 0.7928 0.98767 0.0
C935 C 0.1584 0.75973 0.98315 0.0
C936 C 0.19803 0.80777 0.01438 0.0
C937 C 0.13451 0.74498 1.00566 0.0
C938 C 0.14361 0.75946 0.03221 0.0
C939 C 0.19107 0.79842 0.06373 0.0
C940 C 0.22699 0.82531 0.06839 0.0
C941 C 0.1766 0.78943 0.03693 0.0
C942 C 0.24489 0.84687 0.04588 0.0
C943 C 0.23068 0.83814 0.01918 0.0
H944 H 0.72848 0.75636 0.43619 0.0
H945 H 0.80401 0.65948 0.47502 0.0
H946 H 0.76931 0.67448 0.51879 0.0
H947 H 0.72927 0.72619 0.54729 0.0
H948 H 0.6535 0.82272 0.50828 0.0
H949 H 0.67545 0.79646 0.46337 0.0
C950 C 0.73565 0.737 0.45395 0.0
C951 C 0.76842 0.7064 0.45224 0.0
C952 C 0.71595 0.74641 0.47919 0.0
C953 C 0.77826 0.68242 0.4756 0.0
C954 C 0.75886 0.69156 0.50078 0.0
C955 C 0.71585 0.73997 0.52891 0.0
C956 C 0.68921 0.776 0.53113 0.0
C957 C 0.72924 0.72496 0.50307 0.0
C958 C 0.67313 0.7944 0.50715 0.0
C959 C 0.68626 0.77974 0.48143 0.0
H960 H 0.29248 0.70958 0.58068 0.0
H961 H 0.19761 0.62441 0.54674 0.0
H962 H 0.22481 0.63896 0.50078 0.0
H963 H 0.26566 0.68763 0.47 0.0
H964 H 0.36215 0.77114 0.50404 0.0
H965 H 0.34497 0.7451 0.5499 0.0
C966 C 0.27931 0.69231 0.56337 0.0
C967 C 0.24325 0.66531 0.56743 0.0
C968 C 0.29482 0.70153 0.53679 0.0
C969 C 0.22593 0.64431 0.54453 0.0
C970 C 0.24101 0.65342 0.51806 0.0
C971 C 0.28415 0.69889 0.48734 0.0
C972 C 0.31528 0.73151 0.48335 0.0
C973 C 0.27401 0.68364 0.51385 0.0
C974 C 0.33854 0.74581 0.50622 0.0
C975 C 0.32828 0.73122 0.53261 0.0
H976 H 0.26091 0.28063 0.43255 0.0
H977 H 0.18085 0.35766 0.48409 0.0
H978 H 0.22285 0.33769 0.52402 0.0
H979 H 0.27053 0.28522 0.54523 0.0
H980 H 0.34678 0.20353 0.4945 0.0
H981 H 0.31945 0.23881 0.45354 0.0
C982 C 0.25411 0.29468 0.45232 0.0
C983 C 0.21802 0.32099 0.4553 0.0
C984 C 0.27748 0.28146 0.47554 0.0
C985 C 0.20874 0.33783 0.48121 0.0
C986 C 0.23251 0.32599 0.50414 0.0
C987 C 0.28301 0.27693 0.52526 0.0
C988 C 0.31135 0.24238 0.52297 0.0
C989 C 0.26543 0.29604 0.50176 0.0
C990 C 0.32594 0.23077 0.49688 0.0
C991 C 0.3096 0.25046 0.47339 0.0
H992 H 0.7477 0.35024 0.54198 0.0
H993 H 0.67685 0.27116 0.59814 0.0
H994 H 0.63616 0.24011 0.56038 0.0
H995 H 0.63403 0.22287 0.51085 0.0
H996 H 0.70484 0.30204 0.4547 0.0
H997 H 0.73123 0.34589 0.49248 0.0
C998 C 0.72145 0.3283 0.54614 0.0
C999 C 0.71506 0.31377 0.57317 0.0
C1000 C 0.69878 0.3095 0.52398 0.0
C1001 C 0.68189 0.28389 0.5778 0.0
C1002 C 0.65912 0.26535 0.55602 0.0
C1003 C 0.6531 0.25127 0.50673 0.0
C1004 C 0.66664 0.25944 0.47969 0.0
C1005 C 0.66899 0.27611 0.52888 0.0
C1006 C 0.69288 0.29553 0.47506 0.0
C1007 C 0.70867 0.32028 0.49684 0.0
H1008 H 0.23963 0.66381 0.03647 0.0
H1009 H 0.32309 0.60523 0.97772 0.0
H1010 H 0.35054 0.55731 0.01261 0.0
H1011 H 0.32686 0.51586 0.05257 0.0
H1012 H 0.24152 0.57376 0.1109 0.0
H1013 H 0.24051 0.63912 0.08419 0.0
C1014 C 0.26566 0.64224 0.03185 0.0
C1015 C 0.27783 0.63594 1.00468 0.0
C1016 C 0.28004 0.61382 0.05178 0.0
C1017 C 0.31251 0.60941 0.99861 0.0
C1018 C 0.32783 0.58162 0.01849 0.0
C1019 C 0.30951 0.54341 0.06001 0.0
C1020 C 0.28154 0.53901 0.08225 0.0
C1021 C 0.30812 0.58058 0.04417 0.0
C1022 C 0.26136 0.57558 0.09279 0.0
C1023 C 0.26066 0.61309 0.07752 0.0
H1024 H 0.64208 0.19114 0.9973 0.0
H1025 H 0.58426 0.29157 0.04443 0.0
H1026 H 0.54312 0.31429 1.00464 0.0
H1027 H 0.51244 0.29409 0.96032 0.0
H1028 H 0.57126 0.19375 0.91317 0.0
H1029 H 0.62454 0.18369 0.94862 0.0
C1030 C 0.62149 0.21885 0.99842 0.0
C1031 C 0.61504 0.2392 0.02346 0.0
C1032 C 0.59797 0.23145 0.97562 0.0
C1033 C 0.58912 0.27547 0.0251 0.0
C1034 C 0.56548 0.28823 1.00248 0.0
C1035 C 0.53763 0.27086 0.95752 0.0
C1036 C 0.53687 0.24346 0.93487 0.0
C1037 C 0.56782 0.26474 0.97816 0.0
C1038 C 0.57051 0.21454 0.93086 0.0
C1039 C 0.60091 0.20853 0.95118 0.0
H1040 H 0.73086 0.49169 0.06978 0.0
H1041 H 0.6915 0.55517 0.9962 0.0
H1042 H 0.67234 0.48598 0.9756 0.0
H1043 H 0.68959 0.40992 0.97419 0.0
H1044 H 0.74474 0.34946 0.04471 0.0
H1045 H 0.73269 0.41389 0.07177 0.0
C1046 C 0.71662 0.49016 0.04959 0.0
C1047 C 0.71352 0.52747 0.03396 0.0
C1048 C 0.70871 0.45051 0.03755 0.0
C1049 C 0.69474 0.52621 1.00809 0.0
C1050 C 0.68398 0.48678 0.99644 0.0
C1051 C 0.69665 0.41026 0.9959 0.0
C1052 C 0.71843 0.37576 1.00758 0.0
C1053 C 0.69407 0.44878 0.01024 0.0
C1054 C 0.72801 0.37601 0.03551 0.0
C1055 C 0.72183 0.41306 0.05076 0.0
H1056 H 0.42051 0.68018 0.05146 0.0
H1057 H 0.31893 0.74731 0.0113 0.0
H1058 H 0.35688 0.74263 0.96772 0.0
H1059 H 0.42692 0.73861 0.94564 0.0
H1060 H 0.53228 0.68017 0.98822 0.0
H1061 H 0.48523 0.66204 0.02618 0.0
C1062 C 0.40588 0.69164 0.03278 0.0
C1063 C 0.36759 0.71429 0.0342 0.0
C1064 C 0.42952 0.69203 0.00856 0.0
C1065 C 0.34857 0.72967 0.01031 0.0
C1066 C 0.37062 0.72766 0.9856 0.0
C1067 C 0.43944 0.72118 0.96298 0.0
C1068 C 0.48336 0.71237 0.96465 0.0
C1069 C 0.41257 0.71214 0.98512 0.0
C1070 C 0.49882 0.68852 0.98682 0.0
C1071 C 0.47192 0.67799 0.00852 0.0
H1072 H 0.79536 0.10343 0.50948 0.0
H1073 H 0.79817 0.00363 0.44887 0.0
H1074 H 0.82362 0.9528 0.48277 0.0
H1075 H 0.81775 0.93294 0.53059 0.0
H1076 H 0.79987 0.03041 0.59158 0.0
H1077 H 0.81023 0.08608 0.5573 0.0
C1078 C 0.8035 0.07104 0.5036 0.0
C1079 C 0.79372 0.05646 0.4773 0.0
C1080 C 0.81488 0.04137 0.52364 0.0
C1081 C 0.80456 0.0148 0.46943 0.0
C1082 C 0.81896 0.9858 0.4888 0.0
C1083 C 0.81844 0.96638 0.53654 0.0
C1084 C 0.80621 0.97795 0.563 0.0
C1085 C 0.82019 -0.00215 0.51632 0.0
C1086 C 0.80803 0.02112 0.57092 0.0
C1087 C 0.81338 0.0529 0.55126 0.0
H1088 H 0.03423 0.79019 0.45377 0.0
H1089 H 0.91133 0.80567 0.49227 0.0
H1090 H 0.94572 0.81195 0.53687 0.0
H1091 H 0.00823 0.7942 0.56476 0.0
H1092 H 0.13112 0.77798 0.52651 0.0
H1093 H 0.0996 0.79202 0.4817 0.0
C1094 C 0.01528 0.79644 0.47188 0.0
C1095 C 0.97052 0.79625 0.47017 0.0
C1096 C 0.03519 0.79925 0.49736 0.0
C1097 C 0.94593 0.80529 0.49338 0.0
C1098 C 0.96552 0.80849 0.51885 0.0
C1099 C 0.02819 0.79526 0.54663 0.0
C1100 C 0.07132 0.784 0.54841 0.0
C1101 C 0.00975 0.80264 0.52114 0.0
C1102 C 0.09758 0.78618 0.52525 0.0
C1103 C 0.07953 0.79383 0.4997 0.0
H1104 H 0.17917 0.93094 0.46023 0.0
H1105 H 0.21489 0.84485 0.52461 0.0
H1106 H 0.2031 0.90068 0.55852 0.0
H1107 H 0.21146 0.97737 0.56594 0.0
H1108 H 0.18894 0.06565 0.50021 0.0
H1109 H 0.16646 0.00647 0.47053 0.0
C1110 C 0.18162 0.92392 0.48188 0.0
C1111 C 0.19888 0.8848 0.4902 0.0
C1112 C 0.17927 0.95744 0.5007 0.0
C1113 C 0.20203 0.87522 0.51803 0.0
C1114 C 0.19612 0.9074 0.53729 0.0
C1115 C 0.20004 0.98359 0.5454 0.0
C1116 C 0.20363 0.02491 0.53451 0.0
C1117 C 0.18934 0.94941 0.52839 0.0
C1118 C 0.18753 0.03355 0.50844 0.0
C1119 C 0.17481 -0.00025 0.49157 0.0
H1120 H 0.85576 0.28614 0.50475 0.0
H1121 H 0.92494 0.19131 0.55019 0.0
H1122 H 0.97336 0.18075 0.5116 0.0
H1123 H 0.00431 0.21027 0.46933 0.0
H1124 H 0.93474 0.30578 0.42435 0.0
H1125 H 0.87755 0.30358 0.45799 0.0
C1126 C 0.88053 0.26208 0.50569 0.0
C1127 C 0.88759 0.24006 0.53012 0.0
C1128 C 0.90856 0.25692 0.48375 0.0
C1129 C 0.9192 0.20858 0.5314 0.0
C1130 C 0.94715 0.20296 0.5095 0.0
C1131 C 0.97622 0.22995 0.46669 0.0
C1132 C 0.97424 0.25903 0.44493 0.0
C1133 C 0.94358 0.22884 0.48626 0.0
C1134 C 0.93722 0.28351 0.44118 0.0
C1135 C 0.90455 0.28244 0.46046 0.0
loop_
_geom_bond_atom_site_label_1
_geom_bond_atom_site_label_2
_geom_bond_distance
_geom_bond_site_symmetry_2
_ccdc_geom_bond_type
O0 Zn1 1.953 . S
O0 C16 1.225 . S
Zn1 O0 1.953 . S
Zn1 O2 1.949 . S
Zn1 O8 1.919 . S
Zn1 O13 1.924 . S
O2 Zn1 1.949 . S
O2 Zn3 1.923 . S
O2 Zn4 1.950 . S
O2 Zn5 1.945 . S
Zn3 O2 1.923 . S
Zn3 O6 1.933 . S
Zn3 O9 1.941 . S
Zn3 O10 1.965 . S
Zn4 O2 1.950 . S
Zn4 O11 1.938 . S
Zn4 O12 1.906 . S
Zn4 O22 1.953 . S
Zn5 O2 1.945 . S
Zn5 O7 1.932 . S
Zn5 O14 1.977 . S
Zn5 O15 1.910 . S
O6 Zn3 1.933 . S
O6 C17 1.226 . S
O7 Zn5 1.932 . S
O7 C17 1.307 . S
O8 Zn1 1.919 . S
O8 C19 1.253 . S
O9 Zn3 1.941 . S
O9 C19 1.283 . S
O10 Zn3 1.965 . S
O10 C18 1.303 . S
O11 Zn4 1.938 . S
O11 C18 1.247 . S
O12 Zn4 1.906 . S
O12 C20 1.304 . S
O13 Zn1 1.924 . S
O13 C21 1.311 . S
O14 Zn5 1.977 . S
O14 C20 1.272 . S
O15 Zn5 1.910 . S
O15 C21 1.231 . S
C16 O0 1.225 . S
C16 O22 1.298 . S
C17 O6 1.226 . S
C17 O7 1.307 . S
C18 O10 1.303 . S
C18 O11 1.247 . S
C19 O8 1.253 . S
C19 O9 1.283 . S
C20 O12 1.304 . S
C20 O14 1.272 . S
C21 O13 1.311 . S
C21 O15 1.231 . S
O22 Zn4 1.953 . S
O22 C16 1.298 . S
O23 Zn24 1.953 . S
O23 C39 1.225 . S
Zn24 O23 1.953 . S
Zn24 O25 1.949 . S
Zn24 O31 1.919 . S
Zn24 O36 1.924 . S
O25 Zn24 1.949 . S
O25 Zn26 1.923 . S
O25 Zn27 1.950 . S
O25 Zn28 1.945 . S
Zn26 O25 1.923 . S
Zn26 O29 1.933 . S
Zn26 O32 1.941 . S
Zn26 O33 1.965 . S
Zn27 O25 1.950 . S
Zn27 O34 1.938 . S
Zn27 O35 1.906 . S
Zn27 O45 1.953 . S
Zn28 O25 1.945 . S
Zn28 O30 1.932 . S
Zn28 O37 1.977 . S
Zn28 O38 1.910 . S
O29 Zn26 1.933 . S
O29 C40 1.226 . S
O30 Zn28 1.932 . S
O30 C40 1.307 . S
O31 Zn24 1.919 . S
O31 C42 1.253 . S
O32 Zn26 1.941 . S
O32 C42 1.283 . S
O33 Zn26 1.965 . S
O33 C41 1.303 . S
O34 Zn27 1.938 . S
O34 C41 1.247 . S
O35 Zn27 1.906 . S
O35 C43 1.304 . S
O36 Zn24 1.924 . S
O36 C44 1.311 . S
O37 Zn28 1.977 . S
O37 C43 1.272 . S
O38 Zn28 1.910 . S
O38 C44 1.231 . S
C39 O23 1.225 . S
C39 O45 1.298 . S
C40 O29 1.226 . S
C40 O30 1.307 . S
C41 O33 1.303 . S
C41 O34 1.247 . S
C42 O31 1.253 . S
C42 O32 1.283 . S
C43 O35 1.304 . S
C43 O37 1.272 . S
C44 O36 1.311 . S
C44 O38 1.231 . S
O45 Zn27 1.953 . S
O45 C39 1.298 . S
O46 Zn47 1.953 . S
O46 C62 1.225 . S
Zn47 O46 1.953 . S
Zn47 O48 1.949 . S
Zn47 O54 1.919 . S
Zn47 O59 1.924 . S
O48 Zn47 1.949 . S
O48 Zn49 1.923 . S
O48 Zn50 1.950 . S
O48 Zn51 1.945 . S
Zn49 O48 1.923 . S
Zn49 O52 1.933 . S
Zn49 O55 1.941 . S
Zn49 O56 1.965 . S
Zn50 O48 1.950 . S
Zn50 O57 1.938 . S
Zn50 O58 1.906 . S
Zn50 O68 1.953 . S
Zn51 O48 1.945 . S
Zn51 O53 1.932 . S
Zn51 O60 1.977 . S
Zn51 O61 1.910 . S
O52 Zn49 1.933 . S
O52 C63 1.226 . S
O53 Zn51 1.932 . S
O53 C63 1.307 . S
O54 Zn47 1.919 . S
O54 C65 1.253 . S
O55 Zn49 1.941 . S
O55 C65 1.283 . S
O56 Zn49 1.965 . S
O56 C64 1.303 . S
O57 Zn50 1.938 . S
O57 C64 1.247 . S
O58 Zn50 1.906 . S
O58 C66 1.304 . S
O59 Zn47 1.924 . S
O59 C67 1.311 . S
O60 Zn51 1.977 . S
O60 C66 1.272 . S
O61 Zn51 1.910 . S
O61 C67 1.231 . S
C62 O46 1.225 . S
C62 O68 1.298 . S
C63 O52 1.226 . S
C63 O53 1.307 . S
C64 O56 1.303 . S
C64 O57 1.247 . S
C65 O54 1.253 . S
C65 O55 1.283 . S
C66 O58 1.304 . S
C66 O60 1.272 . S
C67 O59 1.311 . S
C67 O61 1.231 . S
O68 Zn50 1.953 . S
O68 C62 1.298 . S
O69 Zn70 1.953 . S
O69 C85 1.225 . S
Zn70 O69 1.953 . S
Zn70 O71 1.949 . S
Zn70 O77 1.919 . S
Zn70 O82 1.924 . S
O71 Zn70 1.949 . S
O71 Zn72 1.923 . S
O71 Zn73 1.950 . S
O71 Zn74 1.945 . S
Zn72 O71 1.923 . S
Zn72 O75 1.933 . S
Zn72 O78 1.941 . S
Zn72 O79 1.965 . S
Zn73 O71 1.950 . S
Zn73 O80 1.938 . S
Zn73 O81 1.906 . S
Zn73 O91 1.953 . S
Zn74 O71 1.945 . S
Zn74 O76 1.932 . S
Zn74 O83 1.977 . S
Zn74 O84 1.910 . S
O75 Zn72 1.933 . S
O75 C86 1.226 . S
O76 Zn74 1.932 . S
O76 C86 1.307 . S
O77 Zn70 1.919 . S
O77 C88 1.253 . S
O78 Zn72 1.941 . S
O78 C88 1.283 . S
O79 Zn72 1.965 . S
O79 C87 1.303 . S
O80 Zn73 1.938 . S
O80 C87 1.247 . S
O81 Zn73 1.906 . S
O81 C89 1.304 . S
O82 Zn70 1.924 . S
O82 C90 1.311 . S
O83 Zn74 1.977 . S
O83 C89 1.272 . S
O84 Zn74 1.910 . S
O84 C90 1.231 . S
C85 O69 1.225 . S
C85 O91 1.298 . S
C86 O75 1.226 . S
C86 O76 1.307 . S
C87 O79 1.303 . S
C87 O80 1.247 . S
C88 O77 1.253 . S
C88 O78 1.283 . S
C89 O81 1.304 . S
C89 O83 1.272 . S
C90 O82 1.311 . S
C90 O84 1.231 . S
O91 Zn73 1.953 . S
O91 C85 1.298 . S
O92 Zn93 1.953 . S
O92 C108 1.225 . S
Zn93 O92 1.953 . S
Zn93 O94 1.949 . S
Zn93 O100 1.919 . S
Zn93 O105 1.924 . S
O94 Zn93 1.949 . S
O94 Zn95 1.923 . S
O94 Zn96 1.950 . S
O94 Zn97 1.945 . S
Zn95 O94 1.923 . S
Zn95 O98 1.933 . S
Zn95 O101 1.941 . S
Zn95 O102 1.965 . S
Zn96 O94 1.950 . S
Zn96 O103 1.938 . S
Zn96 O104 1.906 . S
Zn96 O114 1.953 . S
Zn97 O94 1.945 . S
Zn97 O99 1.932 . S
Zn97 O106 1.977 . S
Zn97 O107 1.910 . S
O98 Zn95 1.933 . S
O98 C109 1.226 . S
O99 Zn97 1.932 . S
O99 C109 1.307 . S
O100 Zn93 1.919 . S
O100 C111 1.253 . S
O101 Zn95 1.941 . S
O101 C111 1.283 . S
O102 Zn95 1.965 . S
O102 C110 1.303 . S
O103 Zn96 1.938 . S
O103 C110 1.247 . S
O104 Zn96 1.906 . S
O104 C112 1.304 . S
O105 Zn93 1.924 . S
O105 C113 1.311 . S
O106 Zn97 1.977 . S
O106 C112 1.272 . S
O107 Zn97 1.910 . S
O107 C113 1.231 . S
C108 O92 1.225 . S
C108 O114 1.298 . S
C109 O98 1.226 . S
C109 O99 1.307 . S
C110 O102 1.303 . S
C110 O103 1.247 . S
C111 O100 1.253 . S
C111 O101 1.283 . S
C112 O104 1.304 . S
C112 O106 1.272 . S
C113 O105 1.311 . S
C113 O107 1.231 . S
O114 Zn96 1.953 . S
O114 C108 1.298 . S
O115 Zn116 1.953 . S
O115 C131 1.225 . S
Zn116 O115 1.953 . S
Zn116 O117 1.949 . S
Zn116 O123 1.919 . S
Zn116 O128 1.924 . S
O117 Zn116 1.949 . S
O117 Zn118 1.923 . S
O117 Zn119 1.950 . S
O117 Zn120 1.945 . S
Zn118 O117 1.923 . S
Zn118 O121 1.933 . S
Zn118 O124 1.941 . S
Zn118 O125 1.965 . S
Zn119 O117 1.950 . S
Zn119 O126 1.938 . S
Zn119 O127 1.906 . S
Zn119 O137 1.953 . S
Zn120 O117 1.945 . S
Zn120 O122 1.932 . S
Zn120 O129 1.977 . S
Zn120 O130 1.910 . S
O121 Zn118 1.933 . S
O121 C132 1.226 . S
O122 Zn120 1.932 . S
O122 C132 1.307 . S
O123 Zn116 1.919 . S
O123 C134 1.253 . S
O124 Zn118 1.941 . S
O124 C134 1.283 . S
O125 Zn118 1.965 . S
O125 C133 1.303 . S
O126 Zn119 1.938 . S
O126 C133 1.247 . S
O127 Zn119 1.906 . S
O127 C135 1.304 . S
O128 Zn116 1.924 . S
O128 C136 1.311 . S
O129 Zn120 1.977 . S
O129 C135 1.272 . S
O130 Zn120 1.910 . S
O130 C136 1.231 . S
C131 O115 1.225 . S
C131 O137 1.298 . S
C132 O121 1.226 . S
C132 O122 1.307 . S
C133 O125 1.303 . S
C133 O126 1.247 . S
C134 O123 1.253 . S
C134 O124 1.283 . S
C135 O127 1.304 . S
C135 O129 1.272 . S
C136 O128 1.311 . S
C136 O130 1.231 . S
O137 Zn119 1.953 . S
O137 C131 1.298 . S
O138 Zn139 1.953 . S
O138 C154 1.225 . S
Zn139 O138 1.953 . S
Zn139 O140 1.949 . S
Zn139 O146 1.919 . S
Zn139 O151 1.924 . S
O140 Zn139 1.949 . S
O140 Zn141 1.923 . S
O140 Zn142 1.950 . S
O140 Zn143 1.945 . S
Zn141 O140 1.923 . S
Zn141 O144 1.933 . S
Zn141 O147 1.941 . S
Zn141 O148 1.965 . S
Zn142 O140 1.950 . S
Zn142 O149 1.938 . S
Zn142 O150 1.906 . S
Zn142 O160 1.953 . S
Zn143 O140 1.945 . S
Zn143 O145 1.932 . S
Zn143 O152 1.977 . S
Zn143 O153 1.910 . S
O144 Zn141 1.933 . S
O144 C155 1.226 . S
O145 Zn143 1.932 . S
O145 C155 1.307 . S
O146 Zn139 1.919 . S
O146 C157 1.253 . S
O147 Zn141 1.941 . S
O147 C157 1.283 . S
O148 Zn141 1.965 . S
O148 C156 1.303 . S
O149 Zn142 1.938 . S
O149 C156 1.247 . S
O150 Zn142 1.906 . S
O150 C158 1.304 . S
O151 Zn139 1.924 . S
O151 C159 1.311 . S
O152 Zn143 1.977 . S
O152 C158 1.272 . S
O153 Zn143 1.910 . S
O153 C159 1.231 . S
C154 O138 1.225 . S
C154 O160 1.298 . S
C155 O144 1.226 . S
C155 O145 1.307 . S
C156 O148 1.303 . S
C156 O149 1.247 . S
C157 O146 1.253 . S
C157 O147 1.283 . S
C158 O150 1.304 . S
C158 O152 1.272 . S
C159 O151 1.311 . S
C159 O153 1.231 . S
O160 Zn142 1.953 . S
O160 C154 1.298 . S
O161 Zn162 1.953 . S
O161 C177 1.225 . S
Zn162 O161 1.953 . S
Zn162 O163 1.949 . S
Zn162 O169 1.919 . S
Zn162 O174 1.924 . S
O163 Zn162 1.949 . S
O163 Zn164 1.923 . S
O163 Zn165 1.950 . S
O163 Zn166 1.945 . S
Zn164 O163 1.923 . S
Zn164 O167 1.933 . S
Zn164 O170 1.941 . S
Zn164 O171 1.965 . S
Zn165 O163 1.950 . S
Zn165 O172 1.938 . S
Zn165 O173 1.906 . S
Zn165 O183 1.953 . S
Zn166 O163 1.945 . S
Zn166 O168 1.932 . S
Zn166 O175 1.977 . S
Zn166 O176 1.910 . S
O167 Zn164 1.933 . S
O167 C178 1.226 . S
O168 Zn166 1.932 . S
O168 C178 1.307 . S
O169 Zn162 1.919 . S
O169 C180 1.253 . S
O170 Zn164 1.941 . S
O170 C180 1.283 . S
O171 Zn164 1.965 . S
O171 C179 1.303 . S
O172 Zn165 1.938 . S
O172 C179 1.247 . S
O173 Zn165 1.906 . S
O173 C181 1.304 . S
O174 Zn162 1.924 . S
O174 C182 1.311 . S
O175 Zn166 1.977 . S
O175 C181 1.272 . S
O176 Zn166 1.910 . S
O176 C182 1.231 . S
C177 O161 1.225 . S
C177 O183 1.298 . S
C178 O167 1.226 . S
C178 O168 1.307 . S
C179 O171 1.303 . S
C179 O172 1.247 . S
C180 O169 1.253 . S
C180 O170 1.283 . S
C181 O173 1.304 . S
C181 O175 1.272 . S
C182 O174 1.311 . S
C182 O176 1.231 . S
O183 Zn165 1.953 . S
O183 C177 1.298 . S
O184 Zn185 1.953 . S
O184 C200 1.225 . S
Zn185 O184 1.953 . S
Zn185 O186 1.949 . S
Zn185 O192 1.919 . S
Zn185 O197 1.924 . S
O186 Zn185 1.949 . S
O186 Zn187 1.923 . S
O186 Zn188 1.950 . S
O186 Zn189 1.945 . S
Zn187 O186 1.923 . S
Zn187 O190 1.933 . S
Zn187 O193 1.941 . S
Zn187 O194 1.965 . S
Zn188 O186 1.950 . S
Zn188 O195 1.938 . S
Zn188 O196 1.906 . S
Zn188 O206 1.953 . S
Zn189 O186 1.945 . S
Zn189 O191 1.932 . S
Zn189 O198 1.977 . S
Zn189 O199 1.910 . S
O190 Zn187 1.933 . S
O190 C201 1.226 . S
O191 Zn189 1.932 . S
O191 C201 1.307 . S
O192 Zn185 1.919 . S
O192 C203 1.253 . S
O193 Zn187 1.941 . S
O193 C203 1.283 . S
O194 Zn187 1.965 . S
O194 C202 1.303 . S
O195 Zn188 1.938 . S
O195 C202 1.247 . S
O196 Zn188 1.906 . S
O196 C204 1.304 . S
O197 Zn185 1.924 . S
O197 C205 1.311 . S
O198 Zn189 1.977 . S
O198 C204 1.272 . S
O199 Zn189 1.910 . S
O199 C205 1.231 . S
C200 O184 1.225 . S
C200 O206 1.298 . S
C201 O190 1.226 . S
C201 O191 1.307 . S
C202 O194 1.303 . S
C202 O195 1.247 . S
C203 O192 1.253 . S
C203 O193 1.283 . S
C204 O196 1.304 . S
C204 O198 1.272 . S
C205 O197 1.311 . S
C205 O199 1.231 . S
O206 Zn188 1.953 . S
O206 C200 1.298 . S
O207 Zn208 1.953 . S
O207 C223 1.225 . S
Zn208 O207 1.953 . S
Zn208 O209 1.949 . S
Zn208 O215 1.919 . S
Zn208 O220 1.924 . S
O209 Zn208 1.949 . S
O209 Zn210 1.923 . S
O209 Zn211 1.950 . S
O209 Zn212 1.945 . S
Zn210 O209 1.923 . S
Zn210 O213 1.933 . S
Zn210 O216 1.941 . S
Zn210 O217 1.965 . S
Zn211 O209 1.950 . S
Zn211 O218 1.938 . S
Zn211 O219 1.906 . S
Zn211 O229 1.953 . S
Zn212 O209 1.945 . S
Zn212 O214 1.932 . S
Zn212 O221 1.977 . S
Zn212 O222 1.910 . S
O213 Zn210 1.933 . S
O213 C224 1.226 . S
O214 Zn212 1.932 . S
O214 C224 1.307 . S
O215 Zn208 1.919 . S
O215 C226 1.253 . S
O216 Zn210 1.941 . S
O216 C226 1.283 . S
O217 Zn210 1.965 . S
O217 C225 1.303 . S
O218 Zn211 1.938 . S
O218 C225 1.247 . S
O219 Zn211 1.906 . S
O219 C227 1.304 . S
O220 Zn208 1.924 . S
O220 C228 1.311 . S
O221 Zn212 1.977 . S
O221 C227 1.272 . S
O222 Zn212 1.910 . S
O222 C228 1.231 . S
C223 O207 1.225 . S
C223 O229 1.298 . S
C224 O213 1.226 . S
C224 O214 1.307 . S
C225 O217 1.303 . S
C225 O218 1.247 . S
C226 O215 1.253 . S
C226 O216 1.283 . S
C227 O219 1.304 . S
C227 O221 1.272 . S
C228 O220 1.311 . S
C228 O222 1.231 . S
O229 Zn211 1.953 . S
O229 C223 1.298 . S
O230 Zn231 1.953 . S
O230 C246 1.225 . S
Zn231 O230 1.953 . S
Zn231 O232 1.949 . S
Zn231 O238 1.919 . S
Zn231 O243 1.924 . S
O232 Zn231 1.949 . S
O232 Zn233 1.923 . S
O232 Zn234 1.950 . S
O232 Zn235 1.945 . S
Zn233 O232 1.923 . S
Zn233 O236 1.933 . S
Zn233 O239 1.941 . S
Zn233 O240 1.965 . S
Zn234 O232 1.950 . S
Zn234 O241 1.938 . S
Zn234 O242 1.906 . S
Zn234 O252 1.953 . S
Zn235 O232 1.945 . S
Zn235 O237 1.932 . S
Zn235 O244 1.977 . S
Zn235 O245 1.910 . S
O236 Zn233 1.933 . S
O236 C247 1.226 . S
O237 Zn235 1.932 . S
O237 C247 1.307 . S
O238 Zn231 1.919 . S
O238 C249 1.253 . S
O239 Zn233 1.941 . S
O239 C249 1.283 . S
O240 Zn233 1.965 . S
O240 C248 1.303 . S
O241 Zn234 1.938 . S
O241 C248 1.247 . S
O242 Zn234 1.906 . S
O242 C250 1.304 . S
O243 Zn231 1.924 . S
O243 C251 1.311 . S
O244 Zn235 1.977 . S
O244 C250 1.272 . S
O245 Zn235 1.910 . S
O245 C251 1.231 . S
C246 O230 1.225 . S
C246 O252 1.298 . S
C247 O236 1.226 . S
C247 O237 1.307 . S
C248 O240 1.303 . S
C248 O241 1.247 . S
C249 O238 1.253 . S
C249 O239 1.283 . S
C250 O242 1.304 . S
C250 O244 1.272 . S
C251 O243 1.311 . S
C251 O245 1.231 . S
O252 Zn234 1.953 . S
O252 C246 1.298 . S
O253 Zn254 1.953 . S
O253 C269 1.225 . S
Zn254 O253 1.953 . S
Zn254 O255 1.949 . S
Zn254 O261 1.919 . S
Zn254 O266 1.924 . S
O255 Zn254 1.949 . S
O255 Zn256 1.923 . S
O255 Zn257 1.950 . S
O255 Zn258 1.945 . S
Zn256 O255 1.923 . S
Zn256 O259 1.933 . S
Zn256 O262 1.941 . S
Zn256 O263 1.965 . S
Zn257 O255 1.950 . S
Zn257 O264 1.938 . S
Zn257 O265 1.906 . S
Zn257 O275 1.953 . S
Zn258 O255 1.945 . S
Zn258 O260 1.932 . S
Zn258 O267 1.977 . S
Zn258 O268 1.910 . S
O259 Zn256 1.933 . S
O259 C270 1.226 . S
O260 Zn258 1.932 . S
O260 C270 1.307 . S
O261 Zn254 1.919 . S
O261 C272 1.253 . S
O262 Zn256 1.941 . S
O262 C272 1.283 . S
O263 Zn256 1.965 . S
O263 C271 1.303 . S
O264 Zn257 1.938 . S
O264 C271 1.247 . S
O265 Zn257 1.906 . S
O265 C273 1.304 . S
O266 Zn254 1.924 . S
O266 C274 1.311 . S
O267 Zn258 1.977 . S
O267 C273 1.272 . S
O268 Zn258 1.910 . S
O268 C274 1.231 . S
C269 O253 1.225 . S
C269 O275 1.298 . S
C270 O259 1.226 . S
C270 O260 1.307 . S
C271 O263 1.303 . S
C271 O264 1.247 . S
C272 O261 1.253 . S
C272 O262 1.283 . S
C273 O265 1.304 . S
C273 O267 1.272 . S
C274 O266 1.311 . S
C274 O268 1.231 . S
O275 Zn257 1.953 . S
O275 C269 1.298 . S
O276 Zn277 1.953 . S
O276 C292 1.225 . S
Zn277 O276 1.953 . S
Zn277 O278 1.949 . S
Zn277 O284 1.919 . S
Zn277 O289 1.924 . S
O278 Zn277 1.949 . S
O278 Zn279 1.923 . S
O278 Zn280 1.950 . S
O278 Zn281 1.945 . S
Zn279 O278 1.923 . S
Zn279 O282 1.933 . S
Zn279 O285 1.941 . S
Zn279 O286 1.965 . S
Zn280 O278 1.950 . S
Zn280 O287 1.938 . S
Zn280 O288 1.906 . S
Zn280 O298 1.953 . S
Zn281 O278 1.945 . S
Zn281 O283 1.932 . S
Zn281 O290 1.977 . S
Zn281 O291 1.910 . S
O282 Zn279 1.933 . S
O282 C293 1.226 . S
O283 Zn281 1.932 . S
O283 C293 1.307 . S
O284 Zn277 1.919 . S
O284 C295 1.253 . S
O285 Zn279 1.941 . S
O285 C295 1.283 . S
O286 Zn279 1.965 . S
O286 C294 1.303 . S
O287 Zn280 1.938 . S
O287 C294 1.247 . S
O288 Zn280 1.906 . S
O288 C296 1.304 . S
O289 Zn277 1.924 . S
O289 C297 1.311 . S
O290 Zn281 1.977 . S
O290 C296 1.272 . S
O291 Zn281 1.910 . S
O291 C297 1.231 . S
C292 O276 1.225 . S
C292 O298 1.298 . S
C293 O282 1.226 . S
C293 O283 1.307 . S
C294 O286 1.303 . S
C294 O287 1.247 . S
C295 O284 1.253 . S
C295 O285 1.283 . S
C296 O288 1.304 . S
C296 O290 1.272 . S
C297 O289 1.311 . S
C297 O291 1.231 . S
O298 Zn280 1.953 . S
O298 C292 1.298 . S
O299 Zn300 1.953 . S
O299 C315 1.225 . S
Zn300 O299 1.953 . S
Zn300 O301 1.949 . S
Zn300 O307 1.919 . S
Zn300 O312 1.924 . S
O301 Zn300 1.949 . S
O301 Zn302 1.923 . S
O301 Zn303 1.950 . S
O301 Zn304 1.945 . S
Zn302 O301 1.923 . S
Zn302 O305 1.933 . S
Zn302 O308 1.941 . S
Zn302 O309 1.965 . S
Zn303 O301 1.950 . S
Zn303 O310 1.938 . S
Zn303 O311 1.906 . S
Zn303 O321 1.953 . S
Zn304 O301 1.945 . S
Zn304 O306 1.932 . S
Zn304 O313 1.977 . S
Zn304 O314 1.910 . S
O305 Zn302 1.933 . S
O305 C316 1.226 . S
O306 Zn304 1.932 . S
O306 C316 1.307 . S
O307 Zn300 1.919 . S
O307 C318 1.253 . S
O308 Zn302 1.941 . S
O308 C318 1.283 . S
O309 Zn302 1.965 . S
O309 C317 1.303 . S
O310 Zn303 1.938 . S
O310 C317 1.247 . S
O311 Zn303 1.906 . S
O311 C319 1.304 . S
O312 Zn300 1.924 . S
O312 C320 1.311 . S
O313 Zn304 1.977 . S
O313 C319 1.272 . S
O314 Zn304 1.910 . S
O314 C320 1.231 . S
C315 O299 1.225 . S
C315 O321 1.298 . S
C316 O305 1.226 . S
C316 O306 1.307 . S
C317 O309 1.303 . S
C317 O310 1.247 . S
C318 O307 1.253 . S
C318 O308 1.283 . S
C319 O311 1.304 . S
C319 O313 1.272 . S
C320 O312 1.311 . S
C320 O314 1.231 . S
O321 Zn303 1.953 . S
O321 C315 1.298 . S
O322 Zn323 1.953 . S
O322 C338 1.225 . S
Zn323 O322 1.953 . S
Zn323 O324 1.949 . S
Zn323 O330 1.919 . S
Zn323 O335 1.924 . S
O324 Zn323 1.949 . S
O324 Zn325 1.923 . S
O324 Zn326 1.950 . S
O324 Zn327 1.945 . S
Zn325 O324 1.923 . S
Zn325 O328 1.933 . S
Zn325 O331 1.941 . S
Zn325 O332 1.965 . S
Zn326 O324 1.950 . S
Zn326 O333 1.938 . S
Zn326 O334 1.906 . S
Zn326 O344 1.953 . S
Zn327 O324 1.945 . S
Zn327 O329 1.932 . S
Zn327 O336 1.977 . S
Zn327 O337 1.910 . S
O328 Zn325 1.933 . S
O328 C339 1.226 . S
O329 Zn327 1.932 . S
O329 C339 1.307 . S
O330 Zn323 1.919 . S
O330 C341 1.253 . S
O331 Zn325 1.941 . S
O331 C341 1.283 . S
O332 Zn325 1.965 . S
O332 C340 1.303 . S
O333 Zn326 1.938 . S
O333 C340 1.247 . S
O334 Zn326 1.906 . S
O334 C342 1.304 . S
O335 Zn323 1.924 . S
O335 C343 1.311 . S
O336 Zn327 1.977 . S
O336 C342 1.272 . S
O337 Zn327 1.910 . S
O337 C343 1.231 . S
C338 O322 1.225 . S
C338 O344 1.298 . S
C339 O328 1.226 . S
C339 O329 1.307 . S
C340 O332 1.303 . S
C340 O333 1.247 . S
C341 O330 1.253 . S
C341 O331 1.283 . S
C342 O334 1.304 . S
C342 O336 1.272 . S
C343 O335 1.311 . S
C343 O337 1.231 . S
O344 Zn326 1.953 . S
O344 C338 1.298 . S
O345 Zn346 1.953 . S
O345 C361 1.225 . S
Zn346 O345 1.953 . S
Zn346 O347 1.949 . S
Zn346 O353 1.919 . S
Zn346 O358 1.924 . S
O347 Zn346 1.949 . S
O347 Zn348 1.923 . S
O347 Zn349 1.950 . S
O347 Zn350 1.945 . S
Zn348 O347 1.923 . S
Zn348 O351 1.933 . S
Zn348 O354 1.941 . S
Zn348 O355 1.965 . S
Zn349 O347 1.950 . S
Zn349 O356 1.938 . S
Zn349 O357 1.906 . S
Zn349 O367 1.953 . S
Zn350 O347 1.945 . S
Zn350 O352 1.932 . S
Zn350 O359 1.977 . S
Zn350 O360 1.910 . S
O351 Zn348 1.933 . S
O351 C362 1.226 . S
O352 Zn350 1.932 . S
O352 C362 1.307 . S
O353 Zn346 1.919 . S
O353 C364 1.253 . S
O354 Zn348 1.941 . S
O354 C364 1.283 . S
O355 Zn348 1.965 . S
O355 C363 1.303 . S
O356 Zn349 1.938 . S
O356 C363 1.247 . S
O357 Zn349 1.906 . S
O357 C365 1.304 . S
O358 Zn346 1.924 . S
O358 C366 1.311 . S
O359 Zn350 1.977 . S
O359 C365 1.272 . S
O360 Zn350 1.910 . S
O360 C366 1.231 . S
C361 O345 1.225 . S
C361 O367 1.298 . S
C362 O351 1.226 . S
C362 O352 1.307 . S
C363 O355 1.303 . S
C363 O356 1.247 . S
C364 O353 1.253 . S
C364 O354 1.283 . S
C365 O357 1.304 . S
C365 O359 1.272 . S
C366 O358 1.311 . S
C366 O360 1.231 . S
O367 Zn349 1.953 . S
O367 C361 1.298 . S
H368 C374 0.930 . S
H369 C377 0.930 . S
H370 C378 0.930 . S
H371 C379 0.930 . S
H372 C382 0.930 . S
H373 C383 0.930 . S
C374 H368 0.930 . S
C374 C375 1.355 . S
C374 C376 1.415 . S
C375 C374 1.355 . S
C375 C377 1.419 . S
C376 C374 1.415 . S
C376 C381 1.425 . S
C376 C383 1.409 . S
C377 H369 0.930 . S
C377 C375 1.419 . S
C377 C378 1.362 . S
C378 H370 0.930 . S
C378 C377 1.362 . S
C378 C381 1.409 . S
C379 H371 0.930 . S
C379 C380 1.355 . S
C379 C381 1.415 . S
C380 C379 1.355 . S
C380 C382 1.419 . S
C381 C376 1.425 . S
C381 C378 1.409 . S
C381 C379 1.415 . S
C382 H372 0.930 . S
C382 C380 1.419 . S
C382 C383 1.362 . S
C383 H373 0.930 . S
C383 C376 1.409 . S
C383 C382 1.362 . S
H384 C390 0.930 . S
H385 C393 0.930 . S
H386 C394 0.930 . S
H387 C395 0.930 . S
H388 C398 0.930 . S
H389 C399 0.930 . S
C390 H384 0.930 . S
C390 C391 1.355 . S
C390 C392 1.415 . S
C391 C390 1.355 . S
C391 C393 1.419 . S
C392 C390 1.415 . S
C392 C397 1.425 . S
C392 C399 1.409 . S
C393 H385 0.930 . S
C393 C391 1.419 . S
C393 C394 1.362 . S
C394 H386 0.930 . S
C394 C393 1.362 . S
C394 C397 1.409 . S
C395 H387 0.930 . S
C395 C396 1.355 . S
C395 C397 1.415 . S
C396 C395 1.355 . S
C396 C398 1.419 . S
C397 C392 1.425 . S
C397 C394 1.409 . S
C397 C395 1.415 . S
C398 H388 0.930 . S
C398 C396 1.419 . S
C398 C399 1.362 . S
C399 H389 0.930 . S
C399 C392 1.409 . S
C399 C398 1.362 . S
H400 C406 0.930 . S
H401 C409 0.930 . S
H402 C410 0.930 . S
H403 C411 0.930 . S
H404 C414 0.930 . S
H405 C415 0.930 . S
C406 H400 0.930 . S
C406 C407 1.355 . S
C406 C408 1.415 . S
C407 C406 1.355 . S
C407 C409 1.419 . S
C408 C406 1.415 . S
C408 C413 1.425 . S
C408 C415 1.409 . S
C409 H401 0.930 . S
C409 C407 1.419 . S
C409 C410 1.362 . S
C410 H402 0.930 . S
C410 C409 1.362 . S
C410 C413 1.409 . S
C411 H403 0.930 . S
C411 C412 1.355 . S
C411 C413 1.415 . S
C412 C411 1.355 . S
C412 C414 1.419 . S
C413 C408 1.425 . S
C413 C410 1.409 . S
C413 C411 1.415 . S
C414 H404 0.930 . S
C414 C412 1.419 . S
C414 C415 1.362 . S
C415 H405 0.930 . S
C415 C408 1.409 . S
C415 C414 1.362 . S
H416 C422 0.930 . S
H417 C425 0.930 . S
H418 C426 0.930 . S
H419 C427 0.930 . S
H420 C430 0.930 . S
H421 C431 0.930 . S
C422 H416 0.930 . S
C422 C423 1.355 . S
C422 C424 1.415 . S
C423 C422 1.355 . S
C423 C425 1.419 . S
C424 C422 1.415 . S
C424 C429 1.425 . S
C424 C431 1.409 . S
C425 H417 0.930 . S
C425 C423 1.419 . S
C425 C426 1.362 . S
C426 H418 0.930 . S
C426 C425 1.362 . S
C426 C429 1.409 . S
C427 H419 0.930 . S
C427 C428 1.355 . S
C427 C429 1.415 . S
C428 C427 1.355 . S
C428 C430 1.419 . S
C429 C424 1.425 . S
C429 C426 1.409 . S
C429 C427 1.415 . S
C430 H420 0.930 . S
C430 C428 1.419 . S
C430 C431 1.362 . S
C431 H421 0.930 . S
C431 C424 1.409 . S
C431 C430 1.362 . S
H432 C438 0.930 . S
H433 C441 0.930 . S
H434 C442 0.930 . S
H435 C443 0.930 . S
H436 C446 0.930 . S
H437 C447 0.930 . S
C438 H432 0.930 . S
C438 C439 1.355 . S
C438 C440 1.415 . S
C439 C438 1.355 . S
C439 C441 1.419 . S
C440 C438 1.415 . S
C440 C445 1.425 . S
C440 C447 1.409 . S
C441 H433 0.930 . S
C441 C439 1.419 . S
C441 C442 1.362 . S
C442 H434 0.930 . S
C442 C441 1.362 . S
C442 C445 1.409 . S
C443 H435 0.930 . S
C443 C444 1.355 . S
C443 C445 1.415 . S
C444 C443 1.355 . S
C444 C446 1.419 . S
C445 C440 1.425 . S
C445 C442 1.409 . S
C445 C443 1.415 . S
C446 H436 0.930 . S
C446 C444 1.419 . S
C446 C447 1.362 . S
C447 H437 0.930 . S
C447 C440 1.409 . S
C447 C446 1.362 . S
H448 C454 0.930 . S
H449 C457 0.930 . S
H450 C458 0.930 . S
H451 C459 0.930 . S
H452 C462 0.930 . S
H453 C463 0.930 . S
C454 H448 0.930 . S
C454 C455 1.355 . S
C454 C456 1.415 . S
C455 C454 1.355 . S
C455 C457 1.419 . S
C456 C454 1.415 . S
C456 C461 1.425 . S
C456 C463 1.409 . S
C457 H449 0.930 . S
C457 C455 1.419 . S
C457 C458 1.362 . S
C458 H450 0.930 . S
C458 C457 1.362 . S
C458 C461 1.409 . S
C459 H451 0.930 . S
C459 C460 1.355 . S
C459 C461 1.415 . S
C460 C459 1.355 . S
C460 C462 1.419 . S
C461 C456 1.425 . S
C461 C458 1.409 . S
C461 C459 1.415 . S
C462 H452 0.930 . S
C462 C460 1.419 . S
C462 C463 1.362 . S
C463 H453 0.930 . S
C463 C456 1.409 . S
C463 C462 1.362 . S
H464 C470 0.930 . S
H465 C473 0.930 . S
H466 C474 0.930 . S
H467 C475 0.930 . S
H468 C478 0.930 . S
H469 C479 0.930 . S
C470 H464 0.930 . S
C470 C471 1.355 . S
C470 C472 1.415 . S
C471 C470 1.355 . S
C471 C473 1.419 . S
C472 C470 1.415 . S
C472 C477 1.425 . S
C472 C479 1.409 . S
C473 H465 0.930 . S
C473 C471 1.419 . S
C473 C474 1.362 . S
C474 H466 0.930 . S
C474 C473 1.362 . S
C474 C477 1.409 . S
C475 H467 0.930 . S
C475 C476 1.355 . S
C475 C477 1.415 . S
C476 C475 1.355 . S
C476 C478 1.419 . S
C477 C472 1.425 . S
C477 C474 1.409 . S
C477 C475 1.415 . S
C478 H468 0.930 . S
C478 C476 1.419 . S
C478 C479 1.362 . S
C479 H469 0.930 . S
C479 C472 1.409 . S
C479 C478 1.362 . S
H480 C486 0.930 . S
H481 C489 0.930 . S
H482 C490 0.930 . S
H483 C491 0.930 . S
H484 C494 0.930 . S
H485 C495 0.930 . S
C486 H480 0.930 . S
C486 C487 1.355 . S
C486 C488 1.415 . S
C487 C486 1.355 . S
C487 C489 1.419 . S
C488 C486 1.415 . S
C488 C493 1.425 . S
C488 C495 1.409 . S
C489 H481 0.930 . S
C489 C487 1.419 . S
C489 C490 1.362 . S
C490 H482 0.930 . S
C490 C489 1.362 . S
C490 C493 1.409 . S
C491 H483 0.930 . S
C491 C492 1.355 . S
C491 C493 1.415 . S
C492 C491 1.355 . S
C492 C494 1.419 . S
C493 C488 1.425 . S
C493 C490 1.409 . S
C493 C491 1.415 . S
C494 H484 0.930 . S
C494 C492 1.419 . S
C494 C495 1.362 . S
C495 H485 0.930 . S
C495 C488 1.409 . S
C495 C494 1.362 . S
H496 C502 0.930 . S
H497 C505 0.930 . S
H498 C506 0.930 . S
H499 C507 0.930 . S
H500 C510 0.930 . S
H501 C511 0.930 . S
C502 H496 0.930 . S
C502 C503 1.355 . S
C502 C504 1.415 . S
C503 C502 1.355 . S
C503 C505 1.419 . S
C504 C502 1.415 . S
C504 C509 1.425 1_655 S
C504 C511 1.409 . S
C505 H497 0.930 . S
C505 C503 1.419 . S
C505 C506 1.362 1_655 S
C506 H498 0.930 . S
C506 C505 1.362 1_455 S
C506 C509 1.409 . S
C507 H499 0.930 . S
C507 C508 1.355 . S
C507 C509 1.415 . S
C508 C507 1.355 . S
C508 C510 1.419 . S
C509 C504 1.425 1_455 S
C509 C506 1.409 . S
C509 C507 1.415 . S
C510 H500 0.930 . S
C510 C508 1.419 . S
C510 C511 1.362 1_455 S
C511 H501 0.930 . S
C511 C504 1.409 . S
C511 C510 1.362 1_655 S
H512 C518 0.918 1_545 S
H513 C521 0.930 . S
H514 C522 0.930 . S
H515 C523 0.918 1_565 S
H516 C526 0.930 . S
H517 C527 0.930 . S
C518 H512 0.918 1_565 S
C518 C519 1.355 . S
C518 C520 1.415 1_565 S
C519 C518 1.355 . S
C519 C521 1.419 . S
C520 C518 1.415 1_545 S
C520 C525 1.425 1_545 S
C520 C527 1.409 . S
C521 H513 0.930 . S
C521 C519 1.419 . S
C521 C522 1.362 . S
C522 H514 0.930 . S
C522 C521 1.362 . S
C522 C525 1.409 . S
C523 H515 0.918 1_545 S
C523 C524 1.355 . S
C523 C525 1.415 1_545 S
C524 C523 1.355 . S
C524 C526 1.419 . S
C525 C520 1.425 1_565 S
C525 C522 1.409 . S
C525 C523 1.415 1_565 S
C526 H516 0.930 . S
C526 C524 1.419 . S
C526 C527 1.362 . S
C527 H517 0.930 . S
C527 C520 1.409 . S
C527 C526 1.362 . S
H528 C534 0.930 . S
H529 C537 0.930 . S
H530 C538 0.930 . S
H531 C539 0.930 . S
H532 C542 0.930 . S
H533 C543 0.930 . S
C534 H528 0.930 . S
C534 C535 1.355 . S
C534 C536 1.415 . S
C535 C534 1.355 . S
C535 C537 1.419 . S
C536 C534 1.415 . S
C536 C541 1.425 1_655 S
C536 C543 1.409 . S
C537 H529 0.930 . S
C537 C535 1.419 . S
C537 C538 1.362 1_655 S
C538 H530 0.930 . S
C538 C537 1.362 1_455 S
C538 C541 1.409 . S
C539 H531 0.930 . S
C539 C540 1.355 . S
C539 C541 1.415 . S
C540 C539 1.355 . S
C540 C542 1.419 . S
C541 C536 1.425 1_455 S
C541 C538 1.409 . S
C541 C539 1.415 . S
C542 H532 0.930 . S
C542 C540 1.419 . S
C542 C543 1.362 1_455 S
C543 H533 0.930 . S
C543 C536 1.409 . S
C543 C542 1.362 1_655 S
H544 C550 0.930 . S
H545 C553 0.930 . S
H546 C554 0.930 . S
H547 C555 0.930 . S
H548 C558 0.930 . S
H549 C559 0.930 . S
C550 H544 0.930 . S
C550 C551 1.355 . S
C550 C552 1.415 . S
C551 C550 1.355 . S
C551 C553 1.419 . S
C552 C550 1.415 . S
C552 C557 1.425 1_565 S
C552 C559 1.409 . S
C553 H545 0.930 . S
C553 C551 1.419 . S
C553 C554 1.362 1_565 S
C554 H546 0.930 . S
C554 C553 1.362 1_545 S
C554 C557 1.409 . S
C555 H547 0.930 . S
C555 C556 1.355 . S
C555 C557 1.415 . S
C556 C555 1.355 . S
C556 C558 1.419 . S
C557 C552 1.425 1_545 S
C557 C554 1.409 . S
C557 C555 1.415 . S
C558 H548 0.930 . S
C558 C556 1.419 . S
C558 C559 1.362 1_545 S
C559 H549 0.930 . S
C559 C552 1.409 . S
C559 C558 1.362 1_565 S
H560 C566 0.930 . S
H561 C569 0.930 . S
H562 C570 0.930 . S
H563 C571 0.930 . S
H564 C574 0.930 . S
H565 C575 0.930 . S
C566 H560 0.930 . S
C566 C567 1.355 . S
C566 C568 1.415 1_565 S
C567 C566 1.355 . S
C567 C569 1.419 . S
C568 C566 1.415 1_545 S
C568 C573 1.425 1_545 S
C568 C575 1.409 . S
C569 H561 0.930 . S
C569 C567 1.419 . S
C569 C570 1.362 . S
C570 H562 0.930 . S
C570 C569 1.362 . S
C570 C573 1.409 . S
C571 H563 0.930 . S
C571 C572 1.355 . S
C571 C573 1.415 1_545 S
C572 C571 1.355 . S
C572 C574 1.419 . S
C573 C568 1.425 1_565 S
C573 C570 1.409 . S
C573 C571 1.415 1_565 S
C574 H564 0.930 . S
C574 C572 1.419 . S
C574 C575 1.362 . S
C575 H565 0.930 . S
C575 C568 1.409 . S
C575 C574 1.362 . S
H576 C582 0.930 . S
H577 C585 0.930 . S
H578 C586 0.930 . S
H579 C587 0.930 . S
H580 C590 0.930 . S
H581 C591 0.930 . S
C582 H576 0.930 . S
C582 C583 1.355 . S
C582 C584 1.415 . S
C583 C582 1.355 . S
C583 C585 1.419 . S
C584 C582 1.415 . S
C584 C589 1.425 1_455 S
C584 C591 1.409 . S
C585 H577 0.930 . S
C585 C583 1.419 . S
C585 C586 1.362 1_455 S
C586 H578 0.930 . S
C586 C585 1.362 1_655 S
C586 C589 1.409 . S
C587 H579 0.930 . S
C587 C588 1.355 . S
C587 C589 1.415 . S
C588 C587 1.355 . S
C588 C590 1.419 . S
C589 C584 1.425 1_655 S
C589 C586 1.409 . S
C589 C587 1.415 . S
C590 H580 0.930 . S
C590 C588 1.419 . S
C590 C591 1.362 1_655 S
C591 H581 0.930 . S
C591 C584 1.409 . S
C591 C590 1.362 1_455 S
H592 C598 0.930 . S
H593 C601 0.930 . S
H594 C602 0.930 . S
H595 C603 0.930 . S
H596 C606 0.930 . S
H597 C607 0.930 . S
C598 H592 0.930 . S
C598 C599 1.355 . S
C598 C600 1.415 1_565 S
C599 C598 1.355 . S
C599 C601 1.419 . S
C600 C598 1.415 1_545 S
C600 C605 1.425 1_545 S
C600 C607 1.409 . S
C601 H593 0.930 . S
C601 C599 1.419 . S
C601 C602 1.362 . S
C602 H594 0.930 . S
C602 C601 1.362 . S
C602 C605 1.409 . S
C603 H595 0.930 . S
C603 C604 1.355 . S
C603 C605 1.415 1_545 S
C604 C603 1.355 . S
C604 C606 1.419 . S
C605 C600 1.425 1_565 S
C605 C602 1.409 . S
C605 C603 1.415 1_565 S
C606 H596 0.930 . S
C606 C604 1.419 . S
C606 C607 1.362 . S
C607 H597 0.930 . S
C607 C600 1.409 . S
C607 C606 1.362 . S
H608 C614 0.930 . S
H609 C617 0.930 . S
H610 C618 0.930 . S
H611 C619 0.930 . S
H612 C622 0.930 . S
H613 C623 0.930 . S
C614 H608 0.930 . S
C614 C615 1.355 . S
C614 C616 1.415 . S
C615 C614 1.355 . S
C615 C617 1.419 . S
C616 C614 1.415 . S
C616 C621 1.425 1_455 S
C616 C623 1.409 . S
C617 H609 0.930 . S
C617 C615 1.419 . S
C617 C618 1.362 1_455 S
C618 H610 0.930 . S
C618 C617 1.362 1_655 S
C618 C621 1.409 . S
C619 H611 0.930 . S
C619 C620 1.355 . S
C619 C621 1.415 . S
C620 C619 1.355 . S
C620 C622 1.419 . S
C621 C616 1.425 1_655 S
C621 C618 1.409 . S
C621 C619 1.415 . S
C622 H612 0.930 . S
C622 C620 1.419 . S
C622 C623 1.362 1_655 S
C623 H613 0.930 . S
C623 C616 1.409 . S
C623 C622 1.362 1_455 S
H624 C630 0.930 . S
H625 C633 0.930 . S
H626 C634 0.930 . S
H627 C635 0.930 . S
H628 C638 0.930 . S
H629 C639 0.930 . S
C630 H624 0.930 . S
C630 C631 1.355 . S
C630 C632 1.415 . S
C631 C630 1.355 . S
C631 C633 1.419 . S
C632 C630 1.415 . S
C632 C637 1.425 . S
C632 C639 1.409 . S
C633 H625 0.930 . S
C633 C631 1.419 . S
C633 C634 1.362 . S
C634 H626 0.930 . S
C634 C633 1.362 . S
C634 C637 1.409 . S
C635 H627 0.930 . S
C635 C636 1.355 . S
C635 C637 1.415 . S
C636 C635 1.355 . S
C636 C638 1.419 . S
C637 C632 1.425 . S
C637 C634 1.409 . S
C637 C635 1.415 . S
C638 H628 0.930 . S
C638 C636 1.419 . S
C638 C639 1.362 . S
C639 H629 0.930 . S
C639 C632 1.409 . S
C639 C638 1.362 . S
H640 C646 0.930 . S
H641 C649 0.930 . S
H642 C650 0.930 . S
H643 C651 0.930 . S
H644 C654 0.930 . S
H645 C655 0.930 . S
C646 H640 0.930 . S
C646 C647 1.355 . S
C646 C648 1.415 . S
C647 C646 1.355 . S
C647 C649 1.419 . S
C648 C646 1.415 . S
C648 C653 1.425 . S
C648 C655 1.409 . S
C649 H641 0.930 . S
C649 C647 1.419 . S
C649 C650 1.362 . S
C650 H642 0.930 . S
C650 C649 1.362 . S
C650 C653 1.409 . S
C651 H643 0.930 . S
C651 C652 1.355 . S
C651 C653 1.415 . S
C652 C651 1.355 . S
C652 C654 1.419 . S
C653 C648 1.425 . S
C653 C650 1.409 . S
C653 C651 1.415 . S
C654 H644 0.930 . S
C654 C652 1.419 . S
C654 C655 1.362 . S
C655 H645 0.930 . S
C655 C648 1.409 . S
C655 C654 1.362 . S
H656 C662 0.930 . S
H657 C665 0.930 . S
H658 C666 0.930 . S
H659 C667 0.930 . S
H660 C670 0.930 . S
H661 C671 0.930 . S
C662 H656 0.930 . S
C662 C663 1.355 . S
C662 C664 1.415 . S
C663 C662 1.355 . S
C663 C665 1.419 . S
C664 C662 1.415 . S
C664 C669 1.425 . S
C664 C671 1.409 . S
C665 H657 0.930 . S
C665 C663 1.419 . S
C665 C666 1.362 . S
C666 H658 0.930 . S
C666 C665 1.362 . S
C666 C669 1.409 . S
C667 H659 0.930 . S
C667 C668 1.355 . S
C667 C669 1.415 . S
C668 C667 1.355 . S
C668 C670 1.419 . S
C669 C664 1.425 . S
C669 C666 1.409 . S
C669 C667 1.415 . S
C670 H660 0.930 . S
C670 C668 1.419 . S
C670 C671 1.362 . S
C671 H661 0.930 . S
C671 C664 1.409 . S
C671 C670 1.362 . S
H672 C678 0.930 . S
H673 C681 0.930 . S
H674 C682 0.930 . S
H675 C683 0.930 . S
H676 C686 0.930 . S
H677 C687 0.930 . S
C678 H672 0.930 . S
C678 C679 1.355 . S
C678 C680 1.415 . S
C679 C678 1.355 . S
C679 C681 1.419 . S
C680 C678 1.415 . S
C680 C685 1.425 . S
C680 C687 1.409 . S
C681 H673 0.930 . S
C681 C679 1.419 . S
C681 C682 1.362 . S
C682 H674 0.930 . S
C682 C681 1.362 . S
C682 C685 1.409 . S
C683 H675 0.930 . S
C683 C684 1.355 . S
C683 C685 1.415 . S
C684 C683 1.355 . S
C684 C686 1.419 . S
C685 C680 1.425 . S
C685 C682 1.409 . S
C685 C683 1.415 . S
C686 H676 0.930 . S
C686 C684 1.419 . S
C686 C687 1.362 . S
C687 H677 0.930 . S
C687 C680 1.409 . S
C687 C686 1.362 . S
H688 C694 0.930 . S
H689 C697 0.930 . S
H690 C698 0.930 . S
H691 C699 0.930 . S
H692 C702 0.930 . S
H693 C703 0.930 . S
C694 H688 0.930 . S
C694 C695 1.355 . S
C694 C696 1.415 . S
C695 C694 1.355 . S
C695 C697 1.419 . S
C696 C694 1.415 . S
C696 C701 1.425 . S
C696 C703 1.409 . S
C697 H689 0.930 . S
C697 C695 1.419 . S
C697 C698 1.362 . S
C698 H690 0.930 . S
C698 C697 1.362 . S
C698 C701 1.409 . S
C699 H691 0.930 . S
C699 C700 1.355 . S
C699 C701 1.415 . S
C700 C699 1.355 . S
C700 C702 1.419 . S
C701 C696 1.425 . S
C701 C698 1.409 . S
C701 C699 1.415 . S
C702 H692 0.930 . S
C702 C700 1.419 . S
C702 C703 1.362 . S
C703 H693 0.930 . S
C703 C696 1.409 . S
C703 C702 1.362 . S
H704 C710 0.930 . S
H705 C713 0.930 . S
H706 C714 0.930 . S
H707 C715 0.930 . S
H708 C718 0.930 . S
H709 C719 0.930 . S
C710 H704 0.930 . S
C710 C711 1.355 . S
C710 C712 1.415 . S
C711 C710 1.355 . S
C711 C713 1.419 . S
C712 C710 1.415 . S
C712 C717 1.425 . S
C712 C719 1.409 . S
C713 H705 0.930 . S
C713 C711 1.419 . S
C713 C714 1.362 . S
C714 H706 0.930 . S
C714 C713 1.362 . S
C714 C717 1.409 . S
C715 H707 0.930 . S
C715 C716 1.355 . S
C715 C717 1.415 . S
C716 C715 1.355 . S
C716 C718 1.419 . S
C717 C712 1.425 . S
C717 C714 1.409 . S
C717 C715 1.415 . S
C718 H708 0.930 . S
C718 C716 1.419 . S
C718 C719 1.362 . S
C719 H709 0.930 . S
C719 C712 1.409 . S
C719 C718 1.362 . S
H720 C726 0.930 . S
H721 C729 0.930 . S
H722 C730 0.930 . S
H723 C731 0.930 . S
H724 C734 0.930 . S
H725 C735 0.930 . S
C726 H720 0.930 . S
C726 C727 1.355 . S
C726 C728 1.415 . S
C727 C726 1.355 . S
C727 C729 1.419 . S
C728 C726 1.415 . S
C728 C733 1.425 . S
C728 C735 1.409 . S
C729 H721 0.930 . S
C729 C727 1.419 . S
C729 C730 1.362 . S
C730 H722 0.930 . S
C730 C729 1.362 . S
C730 C733 1.409 . S
C731 H723 0.930 . S
C731 C732 1.355 . S
C731 C733 1.415 . S
C732 C731 1.355 . S
C732 C734 1.419 . S
C733 C728 1.425 . S
C733 C730 1.409 . S
C733 C731 1.415 . S
C734 H724 0.930 . S
C734 C732 1.419 . S
C734 C735 1.362 . S
C735 H725 0.930 . S
C735 C728 1.409 . S
C735 C734 1.362 . S
H736 C742 0.930 . S
H737 C745 0.930 . S
H738 C746 0.930 . S
H739 C747 0.930 . S
H740 C750 0.930 . S
H741 C751 0.930 . S
C742 H736 0.930 . S
C742 C743 1.355 . S
C742 C744 1.415 . S
C743 C742 1.355 . S
C743 C745 1.419 . S
C744 C742 1.415 . S
C744 C749 1.425 . S
C744 C751 1.409 . S
C745 H737 0.930 . S
C745 C743 1.419 . S
C745 C746 1.362 . S
C746 H738 0.930 . S
C746 C745 1.362 . S
C746 C749 1.409 . S
C747 H739 0.930 . S
C747 C748 1.355 . S
C747 C749 1.415 . S
C748 C747 1.355 . S
C748 C750 1.419 . S
C749 C744 1.425 . S
C749 C746 1.409 . S
C749 C747 1.415 . S
C750 H740 0.930 . S
C750 C748 1.419 . S
C750 C751 1.362 . S
C751 H741 0.930 . S
C751 C744 1.409 . S
C751 C750 1.362 . S
H752 C758 0.930 . S
H753 C761 0.930 . S
H754 C762 0.930 . S
H755 C763 0.930 . S
H756 C766 0.930 1_455 S
H757 C767 0.930 . S
C758 H752 0.930 . S
C758 C759 1.355 . S
C758 C760 1.415 . S
C759 C758 1.355 . S
C759 C761 1.419 . S
C760 C758 1.415 . S
C760 C765 1.425 . S
C760 C767 1.409 . S
C761 H753 0.930 . S
C761 C759 1.419 . S
C761 C762 1.362 . S
C762 H754 0.930 . S
C762 C761 1.362 . S
C762 C765 1.409 . S
C763 H755 0.930 . S
C763 C764 1.355 . S
C763 C765 1.415 . S
C764 C763 1.355 . S
C764 C766 1.419 . S
C765 C760 1.425 . S
C765 C762 1.409 . S
C765 C763 1.415 . S
C766 H756 0.930 1_655 S
C766 C764 1.419 . S
C766 C767 1.362 . S
C767 H757 0.930 . S
C767 C760 1.409 . S
C767 C766 1.362 . S
H768 C774 0.930 . S
H769 C777 0.930 . S
H770 C778 0.930 . S
H771 C779 0.930 . S
H772 C782 0.930 . S
H773 C783 0.930 . S
C774 H768 0.930 . S
C774 C775 1.355 . S
C774 C776 1.415 . S
C775 C774 1.355 . S
C775 C777 1.419 . S
C776 C774 1.415 . S
C776 C781 1.425 . S
C776 C783 1.409 . S
C777 H769 0.930 . S
C777 C775 1.419 . S
C777 C778 1.362 . S
C778 H770 0.930 . S
C778 C777 1.362 . S
C778 C781 1.409 . S
C779 H771 0.930 . S
C779 C780 1.355 . S
C779 C781 1.415 . S
C780 C779 1.355 . S
C780 C782 1.419 . S
C781 C776 1.425 . S
C781 C778 1.409 . S
C781 C779 1.415 . S
C782 H772 0.930 . S
C782 C780 1.419 . S
C782 C783 1.362 . S
C783 H773 0.930 . S
C783 C776 1.409 . S
C783 C782 1.362 . S
H784 C790 0.930 . S
H785 C793 0.930 . S
H786 C794 0.930 . S
H787 C795 0.930 . S
H788 C798 0.930 . S
H789 C799 0.930 . S
C790 H784 0.930 . S
C790 C791 1.355 . S
C790 C792 1.415 . S
C791 C790 1.355 . S
C791 C793 1.419 . S
C792 C790 1.415 . S
C792 C797 1.425 . S
C792 C799 1.409 . S
C793 H785 0.930 . S
C793 C791 1.419 . S
C793 C794 1.362 . S
C794 H786 0.930 . S
C794 C793 1.362 . S
C794 C797 1.409 . S
C795 H787 0.930 . S
C795 C796 1.355 . S
C795 C797 1.415 . S
C796 C795 1.355 . S
C796 C798 1.419 . S
C797 C792 1.425 . S
C797 C794 1.409 . S
C797 C795 1.415 . S
C798 H788 0.930 . S
C798 C796 1.419 . S
C798 C799 1.362 . S
C799 H789 0.930 . S
C799 C792 1.409 . S
C799 C798 1.362 . S
H800 C806 0.930 . S
H801 C809 0.930 . S
H802 C810 0.930 . S
H803 C811 0.930 . S
H804 C814 0.930 . S
H805 C815 0.930 . S
C806 H800 0.930 . S
C806 C807 1.355 . S
C806 C808 1.415 . S
C807 C806 1.355 . S
C807 C809 1.419 . S
C808 C806 1.415 . S
C808 C813 1.425 . S
C808 C815 1.409 . S
C809 H801 0.930 . S
C809 C807 1.419 . S
C809 C810 1.362 . S
C810 H802 0.930 . S
C810 C809 1.362 . S
C810 C813 1.409 . S
C811 H803 0.930 . S
C811 C812 1.355 . S
C811 C813 1.415 . S
C812 C811 1.355 . S
C812 C814 1.419 . S
C813 C808 1.425 . S
C813 C810 1.409 . S
C813 C811 1.415 . S
C814 H804 0.930 . S
C814 C812 1.419 . S
C814 C815 1.362 . S
C815 H805 0.930 . S
C815 C808 1.409 . S
C815 C814 1.362 . S
H816 C822 0.930 . S
H817 C825 0.930 . S
H818 C826 0.930 . S
H819 C827 0.930 . S
H820 C830 0.930 1_455 S
H821 C831 0.930 . S
C822 H816 0.930 . S
C822 C823 1.355 . S
C822 C824 1.415 . S
C823 C822 1.355 . S
C823 C825 1.419 . S
C824 C822 1.415 . S
C824 C829 1.425 . S
C824 C831 1.409 . S
C825 H817 0.930 . S
C825 C823 1.419 . S
C825 C826 1.362 . S
C826 H818 0.930 . S
C826 C825 1.362 . S
C826 C829 1.409 . S
C827 H819 0.930 . S
C827 C828 1.355 . S
C827 C829 1.415 . S
C828 C827 1.355 . S
C828 C830 1.419 . S
C829 C824 1.425 . S
C829 C826 1.409 . S
C829 C827 1.415 . S
C830 H820 0.930 1_655 S
C830 C828 1.419 . S
C830 C831 1.362 . S
C831 H821 0.930 . S
C831 C824 1.409 . S
C831 C830 1.362 . S
H832 C838 0.930 . S
H833 C841 0.930 . S
H834 C842 0.930 . S
H835 C843 0.930 . S
H836 C846 0.930 . S
H837 C847 0.930 . S
C838 H832 0.930 . S
C838 C839 1.355 . S
C838 C840 1.415 . S
C839 C838 1.355 . S
C839 C841 1.419 . S
C840 C838 1.415 . S
C840 C845 1.425 . S
C840 C847 1.409 . S
C841 H833 0.930 . S
C841 C839 1.419 . S
C841 C842 1.362 . S
C842 H834 0.930 . S
C842 C841 1.362 . S
C842 C845 1.409 . S
C843 H835 0.930 . S
C843 C844 1.355 . S
C843 C845 1.415 . S
C844 C843 1.355 . S
C844 C846 1.419 . S
C845 C840 1.425 . S
C845 C842 1.409 . S
C845 C843 1.415 . S
C846 H836 0.930 . S
C846 C844 1.419 . S
C846 C847 1.362 . S
C847 H837 0.930 . S
C847 C840 1.409 . S
C847 C846 1.362 . S
H848 C854 0.930 . S
H849 C857 0.930 . S
H850 C858 0.930 . S
H851 C859 0.930 . S
H852 C862 0.930 . S
H853 C863 0.930 . S
C854 H848 0.930 . S
C854 C855 1.355 . S
C854 C856 1.415 . S
C855 C854 1.355 . S
C855 C857 1.419 . S
C856 C854 1.415 . S
C856 C861 1.425 . S
C856 C863 1.409 . S
C857 H849 0.930 . S
C857 C855 1.419 . S
C857 C858 1.362 . S
C858 H850 0.930 . S
C858 C857 1.362 . S
C858 C861 1.409 . S
C859 H851 0.930 . S
C859 C860 1.355 . S
C859 C861 1.415 . S
C860 C859 1.355 . S
C860 C862 1.419 . S
C861 C856 1.425 . S
C861 C858 1.409 . S
C861 C859 1.415 . S
C862 H852 0.930 . S
C862 C860 1.419 . S
C862 C863 1.362 . S
C863 H853 0.930 . S
C863 C856 1.409 . S
C863 C862 1.362 . S
H864 C870 0.930 . S
H865 C873 0.930 . S
H866 C874 0.930 . S
H867 C875 0.930 . S
H868 C878 0.930 . S
H869 C879 0.930 . S
C870 H864 0.930 . S
C870 C871 1.355 . S
C870 C872 1.415 . S
C871 C870 1.355 . S
C871 C873 1.419 . S
C872 C870 1.415 . S
C872 C877 1.425 . S
C872 C879 1.409 . S
C873 H865 0.930 . S
C873 C871 1.419 . S
C873 C874 1.362 . S
C874 H866 0.930 . S
C874 C873 1.362 . S
C874 C877 1.409 . S
C875 H867 0.930 . S
C875 C876 1.355 . S
C875 C877 1.415 . S
C876 C875 1.355 . S
C876 C878 1.419 . S
C877 C872 1.425 . S
C877 C874 1.409 . S
C877 C875 1.415 . S
C878 H868 0.930 . S
C878 C876 1.419 . S
C878 C879 1.362 . S
C879 H869 0.930 . S
C879 C872 1.409 . S
C879 C878 1.362 . S
H880 C886 0.930 . S
H881 C889 0.930 . S
H882 C890 0.930 1_556 S
H883 C891 0.930 . S
H884 C894 0.930 . S
H885 C895 0.930 1_554 S
C886 H880 0.930 . S
C886 C887 1.355 . S
C886 C888 1.415 . S
C887 C886 1.355 . S
C887 C889 1.419 . S
C888 C886 1.415 . S
C888 C893 1.425 1_554 S
C888 C895 1.409 1_554 S
C889 H881 0.930 . S
C889 C887 1.419 . S
C889 C890 1.362 . S
C890 H882 0.930 1_554 S
C890 C889 1.362 . S
C890 C893 1.409 1_554 S
C891 H883 0.930 . S
C891 C892 1.355 . S
C891 C893 1.415 . S
C892 C891 1.355 . S
C892 C894 1.419 . S
C893 C888 1.425 1_556 S
C893 C890 1.409 1_556 S
C893 C891 1.415 . S
C894 H884 0.930 . S
C894 C892 1.419 . S
C894 C895 1.362 . S
C895 H885 0.930 1_556 S
C895 C888 1.409 1_556 S
C895 C894 1.362 . S
H896 C902 0.930 . S
H897 C905 0.930 . S
H898 C906 0.930 . S
H899 C907 0.930 . S
H900 C910 0.930 . S
H901 C911 0.930 . S
C902 H896 0.930 . S
C902 C903 1.355 . S
C902 C904 1.386 1_556 S
C903 C902 1.355 . S
C903 C905 1.419 . S
C904 C902 1.386 1_554 S
C904 C909 1.423 1_554 S
C904 C911 1.440 . S
C905 H897 0.930 . S
C905 C903 1.419 . S
C905 C906 1.362 . S
C906 H898 0.930 . S
C906 C905 1.362 . S
C906 C909 1.440 . S
C907 H899 0.930 . S
C907 C908 1.355 . S
C907 C909 1.386 1_554 S
C908 C907 1.355 . S
C908 C910 1.419 . S
C909 C904 1.423 1_556 S
C909 C906 1.440 . S
C909 C907 1.386 1_556 S
C910 H900 0.930 . S
C910 C908 1.419 . S
C910 C911 1.362 . S
C911 H901 0.930 . S
C911 C904 1.440 . S
C911 C910 1.362 . S
H912 C918 0.930 . S
H913 C921 0.930 . S
H914 C922 0.930 . S
H915 C923 0.930 . S
H916 C926 0.930 . S
H917 C927 0.930 . S
C918 H912 0.930 . S
C918 C919 1.355 . S
C918 C920 1.415 1_556 S
C919 C918 1.355 . S
C919 C921 1.419 . S
C920 C918 1.415 1_554 S
C920 C925 1.425 1_554 S
C920 C927 1.409 . S
C921 H913 0.930 . S
C921 C919 1.419 . S
C921 C922 1.362 . S
C922 H914 0.930 . S
C922 C921 1.362 . S
C922 C925 1.409 . S
C923 H915 0.930 . S
C923 C924 1.355 . S
C923 C925 1.415 1_554 S
C924 C923 1.355 . S
C924 C926 1.419 . S
C925 C920 1.425 1_556 S
C925 C922 1.409 . S
C925 C923 1.415 1_556 S
C926 H916 0.930 . S
C926 C924 1.419 . S
C926 C927 1.362 . S
C927 H917 0.930 . S
C927 C920 1.409 . S
C927 C926 1.362 . S
H928 C934 0.930 . S
H929 C937 0.930 . S
H930 C938 0.930 . S
H931 C939 0.930 . S
H932 C942 0.930 . S
H933 C943 0.930 . S
C934 H928 0.930 . S
C934 C935 1.355 . S
C934 C936 1.415 . S
C935 C934 1.355 . S
C935 C937 1.419 . S
C936 C934 1.415 . S
C936 C941 1.425 1_556 S
C936 C943 1.409 1_556 S
C937 H929 0.930 . S
C937 C935 1.419 . S
C937 C938 1.362 . S
C938 H930 0.930 . S
C938 C937 1.362 . S
C938 C941 1.409 1_556 S
C939 H931 0.930 . S
C939 C940 1.355 . S
C939 C941 1.415 . S
C940 C939 1.355 . S
C940 C942 1.419 . S
C941 C936 1.425 1_554 S
C941 C938 1.409 1_554 S
C941 C939 1.415 . S
C942 H932 0.930 . S
C942 C940 1.419 . S
C942 C943 1.362 . S
C943 H933 0.930 . S
C943 C936 1.409 1_554 S
C943 C942 1.362 . S
H944 C950 0.930 . S
H945 C953 0.930 . S
H946 C954 0.930 . S
H947 C955 0.930 . S
H948 C958 0.930 . S
H949 C959 0.930 . S
C950 H944 0.930 . S
C950 C951 1.355 . S
C950 C952 1.415 . S
C951 C950 1.355 . S
C951 C953 1.419 . S
C952 C950 1.415 . S
C952 C957 1.425 . S
C952 C959 1.409 . S
C953 H945 0.930 . S
C953 C951 1.419 . S
C953 C954 1.362 . S
C954 H946 0.930 . S
C954 C953 1.362 . S
C954 C957 1.409 . S
C955 H947 0.930 . S
C955 C956 1.355 . S
C955 C957 1.415 . S
C956 C955 1.355 . S
C956 C958 1.419 . S
C957 C952 1.425 . S
C957 C954 1.409 . S
C957 C955 1.415 . S
C958 H948 0.930 . S
C958 C956 1.419 . S
C958 C959 1.362 . S
C959 H949 0.930 . S
C959 C952 1.409 . S
C959 C958 1.362 . S
H960 C966 0.930 . S
H961 C969 0.930 . S
H962 C970 0.930 . S
H963 C971 0.930 . S
H964 C974 0.930 . S
H965 C975 0.930 . S
C966 H960 0.930 . S
C966 C967 1.355 . S
C966 C968 1.415 . S
C967 C966 1.355 . S
C967 C969 1.419 . S
C968 C966 1.415 . S
C968 C973 1.425 . S
C968 C975 1.409 . S
C969 H961 0.930 . S
C969 C967 1.419 . S
C969 C970 1.362 . S
C970 H962 0.930 . S
C970 C969 1.362 . S
C970 C973 1.409 . S
C971 H963 0.930 . S
C971 C972 1.355 . S
C971 C973 1.415 . S
C972 C971 1.355 . S
C972 C974 1.419 . S
C973 C968 1.425 . S
C973 C970 1.409 . S
C973 C971 1.415 . S
C974 H964 0.930 . S
C974 C972 1.419 . S
C974 C975 1.362 . S
C975 H965 0.930 . S
C975 C968 1.409 . S
C975 C974 1.362 . S
H976 C982 0.930 . S
H977 C985 0.930 . S
H978 C986 0.930 . S
H979 C987 0.930 . S
H980 C990 0.930 . S
H981 C991 0.930 . S
C982 H976 0.930 . S
C982 C983 1.355 . S
C982 C984 1.415 . S
C983 C982 1.355 . S
C983 C985 1.419 . S
C984 C982 1.415 . S
C984 C989 1.425 . S
C984 C991 1.409 . S
C985 H977 0.930 . S
C985 C983 1.419 . S
C985 C986 1.362 . S
C986 H978 0.930 . S
C986 C985 1.362 . S
C986 C989 1.409 . S
C987 H979 0.930 . S
C987 C988 1.355 . S
C987 C989 1.415 . S
C988 C987 1.355 . S
C988 C990 1.419 . S
C989 C984 1.425 . S
C989 C986 1.409 . S
C989 C987 1.415 . S
C990 H980 0.930 . S
C990 C988 1.419 . S
C990 C991 1.362 . S
C991 H981 0.930 . S
C991 C984 1.409 . S
C991 C990 1.362 . S
H992 C998 0.930 . S
H993 C1001 0.930 . S
H994 C1002 0.930 . S
H995 C1003 0.930 . S
H996 C1006 0.930 . S
H997 C1007 0.930 . S
C998 H992 0.930 . S
C998 C999 1.355 . S
C998 C1000 1.415 . S
C999 C998 1.355 . S
C999 C1001 1.419 . S
C1000 C998 1.415 . S
C1000 C1005 1.425 . S
C1000 C1007 1.409 . S
C1001 H993 0.930 . S
C1001 C999 1.419 . S
C1001 C1002 1.362 . S
C1002 H994 0.930 . S
C1002 C1001 1.362 . S
C1002 C1005 1.409 . S
C1003 H995 0.930 . S
C1003 C1004 1.355 . S
C1003 C1005 1.415 . S
C1004 C1003 1.355 . S
C1004 C1006 1.419 . S
C1005 C1000 1.425 . S
C1005 C1002 1.409 . S
C1005 C1003 1.415 . S
C1006 H996 0.930 . S
C1006 C1004 1.419 . S
C1006 C1007 1.362 . S
C1007 H997 0.930 . S
C1007 C1000 1.409 . S
C1007 C1006 1.362 . S
H1008 C1014 0.930 . S
H1009 C1017 0.930 . S
H1010 C1018 0.930 . S
H1011 C1019 0.930 . S
H1012 C1022 0.930 . S
H1013 C1023 0.930 . S
C1014 H1008 0.930 . S
C1014 C1015 1.355 . S
C1014 C1016 1.415 1_556 S
C1015 C1014 1.355 . S
C1015 C1017 1.419 . S
C1016 C1014 1.415 1_554 S
C1016 C1021 1.425 1_554 S
C1016 C1023 1.409 . S
C1017 H1009 0.930 . S
C1017 C1015 1.419 . S
C1017 C1018 1.362 . S
C1018 H1010 0.930 . S
C1018 C1017 1.362 . S
C1018 C1021 1.409 . S
C1019 H1011 0.930 . S
C1019 C1020 1.355 . S
C1019 C1021 1.415 1_554 S
C1020 C1019 1.355 . S
C1020 C1022 1.419 . S
C1021 C1016 1.425 1_556 S
C1021 C1018 1.409 . S
C1021 C1019 1.415 1_556 S
C1022 H1012 0.930 . S
C1022 C1020 1.419 . S
C1022 C1023 1.362 . S
C1023 H1013 0.930 . S
C1023 C1016 1.409 . S
C1023 C1022 1.362 . S
H1024 C1030 0.930 . S
H1025 C1033 0.930 . S
H1026 C1034 0.930 . S
H1027 C1035 0.930 . S
H1028 C1038 0.930 . S
H1029 C1039 0.930 . S
C1030 H1024 0.930 . S
C1030 C1031 1.355 . S
C1030 C1032 1.415 1_554 S
C1031 C1030 1.355 . S
C1031 C1033 1.419 . S
C1032 C1030 1.415 1_556 S
C1032 C1037 1.425 1_556 S
C1032 C1039 1.409 . S
C1033 H1025 0.930 . S
C1033 C1031 1.419 . S
C1033 C1034 1.362 . S
C1034 H1026 0.930 . S
C1034 C1033 1.362 . S
C1034 C1037 1.409 . S
C1035 H1027 0.930 . S
C1035 C1036 1.355 . S
C1035 C1037 1.415 1_556 S
C1036 C1035 1.355 . S
C1036 C1038 1.419 . S
C1037 C1032 1.425 1_554 S
C1037 C1034 1.409 . S
C1037 C1035 1.415 1_554 S
C1038 H1028 0.930 . S
C1038 C1036 1.419 . S
C1038 C1039 1.362 . S
C1039 H1029 0.930 . S
C1039 C1032 1.409 . S
C1039 C1038 1.362 . S
H1040 C1046 0.930 . S
H1041 C1049 0.930 . S
H1042 C1050 0.930 . S
H1043 C1051 0.930 . S
H1044 C1054 0.930 . S
H1045 C1055 0.930 . S
C1046 H1040 0.930 . S
C1046 C1047 1.355 . S
C1046 C1048 1.415 1_554 S
C1047 C1046 1.355 . S
C1047 C1049 1.419 . S
C1048 C1046 1.415 1_556 S
C1048 C1053 1.425 1_556 S
C1048 C1055 1.409 . S
C1049 H1041 0.930 . S
C1049 C1047 1.419 . S
C1049 C1050 1.362 . S
C1050 H1042 0.930 . S
C1050 C1049 1.362 . S
C1050 C1053 1.409 . S
C1051 H1043 0.930 . S
C1051 C1052 1.355 . S
C1051 C1053 1.415 1_556 S
C1052 C1051 1.355 . S
C1052 C1054 1.419 . S
C1053 C1048 1.425 1_554 S
C1053 C1050 1.409 . S
C1053 C1051 1.415 1_554 S
C1054 H1044 0.930 . S
C1054 C1052 1.419 . S
C1054 C1055 1.362 . S
C1055 H1045 0.930 . S
C1055 C1048 1.409 . S
C1055 C1054 1.362 . S
H1056 C1062 0.930 . S
H1057 C1065 0.930 . S
H1058 C1066 0.930 . S
H1059 C1067 0.930 . S
H1060 C1070 0.930 . S
H1061 C1071 0.930 . S
C1062 H1056 0.930 . S
C1062 C1063 1.355 . S
C1062 C1064 1.415 . S
C1063 C1062 1.355 . S
C1063 C1065 1.419 . S
C1064 C1062 1.415 . S
C1064 C1069 1.425 1_554 S
C1064 C1071 1.409 . S
C1065 H1057 0.930 . S
C1065 C1063 1.419 . S
C1065 C1066 1.362 1_554 S
C1066 H1058 0.930 . S
C1066 C1065 1.362 1_556 S
C1066 C1069 1.409 . S
C1067 H1059 0.930 . S
C1067 C1068 1.355 . S
C1067 C1069 1.415 . S
C1068 C1067 1.355 . S
C1068 C1070 1.419 . S
C1069 C1064 1.425 1_556 S
C1069 C1066 1.409 . S
C1069 C1067 1.415 . S
C1070 H1060 0.930 . S
C1070 C1068 1.419 . S
C1070 C1071 1.362 1_556 S
C1071 H1061 0.930 . S
C1071 C1064 1.409 . S
C1071 C1070 1.362 1_554 S
H1072 C1078 0.930 . S
H1073 C1081 0.930 . S
H1074 C1082 0.930 . S
H1075 C1083 0.930 . S
H1076 C1086 0.930 . S
H1077 C1087 0.930 . S
C1078 H1072 0.930 . S
C1078 C1079 1.355 . S
C1078 C1080 1.415 . S
C1079 C1078 1.355 . S
C1079 C1081 1.419 . S
C1080 C1078 1.415 . S
C1080 C1085 1.425 1_545 S
C1080 C1087 1.409 . S
C1081 H1073 0.930 . S
C1081 C1079 1.419 . S
C1081 C1082 1.362 1_545 S
C1082 H1074 0.930 . S
C1082 C1081 1.362 1_565 S
C1082 C1085 1.409 . S
C1083 H1075 0.930 . S
C1083 C1084 1.355 . S
C1083 C1085 1.415 . S
C1084 C1083 1.355 . S
C1084 C1086 1.419 . S
C1085 C1080 1.425 1_565 S
C1085 C1082 1.409 . S
C1085 C1083 1.415 . S
C1086 H1076 0.930 . S
C1086 C1084 1.419 . S
C1086 C1087 1.362 1_565 S
C1087 H1077 0.930 . S
C1087 C1080 1.409 . S
C1087 C1086 1.362 1_545 S
H1088 C1094 0.930 . S
H1089 C1097 0.930 . S
H1090 C1098 0.930 . S
H1091 C1099 0.930 . S
H1092 C1102 0.930 . S
H1093 C1103 0.930 . S
C1094 H1088 0.930 . S
C1094 C1095 1.355 . S
C1094 C1096 1.415 1_655 S
C1095 C1094 1.355 . S
C1095 C1097 1.419 . S
C1096 C1094 1.415 1_455 S
C1096 C1101 1.425 1_455 S
C1096 C1103 1.409 . S
C1097 H1089 0.930 . S
C1097 C1095 1.419 . S
C1097 C1098 1.362 . S
C1098 H1090 0.930 . S
C1098 C1097 1.362 . S
C1098 C1101 1.409 . S
C1099 H1091 0.930 . S
C1099 C1100 1.355 . S
C1099 C1101 1.415 1_455 S
C1100 C1099 1.355 . S
C1100 C1102 1.419 . S
C1101 C1096 1.425 1_655 S
C1101 C1098 1.409 . S
C1101 C1099 1.415 1_655 S
C1102 H1092 0.930 . S
C1102 C1100 1.419 . S
C1102 C1103 1.362 . S
C1103 H1093 0.930 . S
C1103 C1096 1.409 . S
C1103 C1102 1.362 . S
H1104 C1110 0.930 . S
H1105 C1113 0.930 . S
H1106 C1114 0.930 . S
H1107 C1115 0.930 . S
H1108 C1118 0.930 . S
H1109 C1119 0.930 . S
C1110 H1104 0.930 . S
C1110 C1111 1.355 . S
C1110 C1112 1.415 1_565 S
C1111 C1110 1.355 . S
C1111 C1113 1.419 . S
C1112 C1110 1.415 1_545 S
C1112 C1117 1.425 1_545 S
C1112 C1119 1.409 . S
C1113 H1105 0.930 . S
C1113 C1111 1.419 . S
C1113 C1114 1.362 . S
C1114 H1106 0.930 . S
C1114 C1113 1.362 . S
C1114 C1117 1.409 . S
C1115 H1107 0.930 . S
C1115 C1116 1.355 . S
C1115 C1117 1.415 1_545 S
C1116 C1115 1.355 . S
C1116 C1118 1.419 . S
C1117 C1112 1.425 1_565 S
C1117 C1114 1.409 . S
C1117 C1115 1.415 1_565 S
C1118 H1108 0.930 . S
C1118 C1116 1.419 . S
C1118 C1119 1.362 . S
C1119 H1109 0.930 . S
C1119 C1112 1.409 . S
C1119 C1118 1.362 . S
H1120 C1126 0.930 . S
H1121 C1129 0.930 . S
H1122 C1130 0.930 . S
H1123 C1131 0.930 . S
H1124 C1134 0.930 . S
H1125 C1135 0.930 . S
C1126 H1120 0.930 . S
C1126 C1127 1.355 . S
C1126 C1128 1.415 . S
C1127 C1126 1.355 . S
C1127 C1129 1.419 . S
C1128 C1126 1.415 . S
C1128 C1133 1.425 1_655 S
C1128 C1135 1.409 . S
C1129 H1121 0.930 . S
C1129 C1127 1.419 . S
C1129 C1130 1.362 1_655 S
C1130 H1122 0.930 . S
C1130 C1129 1.362 1_455 S
C1130 C1133 1.409 . S
C1131 H1123 0.930 . S
C1131 C1132 1.355 . S
C1131 C1133 1.415 . S
C1132 C1131 1.355 . S
C1132 C1134 1.419 . S
C1133 C1128 1.425 1_455 S
C1133 C1130 1.409 . S
C1133 C1131 1.415 . S
C1134 H1124 0.930 . S
C1134 C1132 1.419 . S
C1134 C1135 1.362 1_455 S
C1135 H1125 0.930 . S
C1135 C1128 1.409 . S
C1135 C1134 1.362 1_655 S
C375 C16 1.277 . S
C380 C361 1.273 . S
C391 C292 1.240 . S
C396 C39 1.269 . S
C407 C62 1.268 . S
C412 C315 1.238 . S
C423 C338 1.279 . S
C428 C85 1.268 . S
C439 C108 1.235 . S
C444 C223 1.265 . S
C455 C246 1.268 . S
C460 C131 1.239 . S
C471 C154 1.247 . S
C476 C269 1.221 . S
C487 C200 1.255 . S
C492 C177 1.226 . S
C503 C67 1.715 . S
C508 C21 1.684 . S
C519 C90 1.636 . S
C524 C44 1.653 . S
C535 C159 1.714 . S
C540 C113 1.697 . S
C551 C182 1.715 . S
C556 C136 1.685 . S
C567 C205 1.715 . S
C572 C251 1.684 . S
C583 C228 1.644 . S
C588 C274 1.641 . S
C599 C343 1.713 . S
C604 C297 1.675 . S
C615 C366 1.654 . S
C620 C320 1.636 . S
C631 C18 1.067 . S
C636 C43 1.098 . S
C647 C66 1.099 . S
C652 C41 1.053 . S
C663 C64 1.075 . S
C668 C89 1.066 . S
C679 C20 1.066 . S
C684 C87 1.102 . S
C695 C110 1.052 . S
C700 C181 1.088 . S
C711 C112 1.088 . S
C716 C133 1.052 . S
C727 C156 1.051 . S
C732 C135 1.097 . S
C743 C158 1.061 . S
C748 C179 1.086 . S
C759 C202 1.096 . S
C764 C227 1.078 1_655 S
C775 C250 1.094 1_565 S
C780 C225 1.050 . S
C791 C273 1.092 1_455 S
C796 C248 1.050 . S
C807 C271 1.060 . S
C812 C204 1.077 1_545 S
C823 C294 1.091 . S
C828 C365 1.084 1_655 S
C839 C296 1.076 1_565 S
C844 C317 1.061 . S
C855 C340 1.050 . S
C860 C319 1.093 1_455 S
C871 C342 1.100 1_545 S
C876 C363 1.061 . S
C887 C19 1.919 . S
C892 C134 1.873 . S
C903 C157 1.909 . S
C908 C42 1.852 . S
C919 C180 1.893 . S
C924 C65 1.855 . S
C935 C111 1.854 . S
C940 C88 1.914 . S
C951 C318 1.878 . S
C956 C203 1.918 . S
C967 C226 1.889 . S
C972 C341 1.912 . S
C983 C364 1.893 . S
C988 C249 1.910 . S
C999 C272 1.869 . S
C1004 C295 1.873 . S
C1015 C109 0.681 . S
C1020 C17 0.658 . S
C1031 C40 0.701 . S
C1036 C132 0.672 . S
C1047 C63 0.664 . S
C1052 C155 0.651 . S
C1063 C86 0.737 . S
C1068 C178 0.749 . S
C1079 C293 0.657 . S
C1084 C201 0.651 . S
C1095 C316 0.733 . S
C1100 C224 0.748 . S
C1111 C339 0.739 . S
C1116 C247 0.749 . S
C1127 C270 0.681 . S
C1132 C362 0.658 . S
