# Generated by pormake.
# Topology lcy-a-x, (5)-cn, num edge types: 1
# Building blocks:
#     Node 0, Type 0, BuildingBlock: XOMCOT_clean_sbu_1, # of connection points: 5
#     Node 1, Type 0, BuildingBlock: XOMCOT_clean_sbu_1, # of connection points: 5
#     Node 2, Type 0, BuildingBlock: XOMCOT_clean_sbu_1, # of connection points: 5
#     Node 3, Type 0, BuildingBlock: XOMCOT_clean_sbu_1, # of connection points: 5
#     Node 4, Type 0, BuildingBlock: XOMCOT_clean_sbu_1, # of connection points: 5
#     Node 5, Type 0, BuildingBlock: XOMCOT_clean_sbu_1, # of connection points: 5
#     Node 6, Type 0, BuildingBlock: XOMCOT_clean_sbu_1, # of connection points: 5
#     Node 7, Type 0, BuildingBlock: XOMCOT_clean_sbu_1, # of connection points: 5
#     Node 8, Type 0, BuildingBlock: XOMCOT_clean_sbu_1, # of connection points: 5
#     Node 9, Type 0, BuildingBlock: XOMCOT_clean_sbu_1, # of connection points: 5
#     Node 10, Type 0, BuildingBlock: XOMCOT_clean_sbu_1, # of connection points: 5
#     Node 11, Type 0, BuildingBlock: XOMCOT_clean_sbu_1, # of connection points: 5
#     Node 12, Type 0, BuildingBlock: XOMCOT_clean_sbu_1, # of connection points: 5
#     Node 13, Type 0, BuildingBlock: XOMCOT_clean_sbu_1, # of connection points: 5
#     Node 14, Type 0, BuildingBlock: XOMCOT_clean_sbu_1, # of connection points: 5
#     Node 15, Type 0, BuildingBlock: XOMCOT_clean_sbu_1, # of connection points: 5
#     Node 16, Type 0, BuildingBlock: XOMCOT_clean_sbu_1, # of connection points: 5
#     Node 17, Type 0, BuildingBlock: XOMCOT_clean_sbu_1, # of connection points: 5
#     Node 18, Type 0, BuildingBlock: XOMCOT_clean_sbu_1, # of connection points: 5
#     Node 19, Type 0, BuildingBlock: XOMCOT_clean_sbu_1, # of connection points: 5
#     Node 20, Type 0, BuildingBlock: XOMCOT_clean_sbu_1, # of connection points: 5
#     Node 21, Type 0, BuildingBlock: XOMCOT_clean_sbu_1, # of connection points: 5
#     Node 22, Type 0, BuildingBlock: XOMCOT_clean_sbu_1, # of connection points: 5
#     Node 23, Type 0, BuildingBlock: XOMCOT_clean_sbu_1, # of connection points: 5
#     Edge 24, Type (0, 0), BuildingBlock: MIFKUJ_clean_linker_0, # of connection points: 2
#     Edge 25, Type (0, 0), BuildingBlock: MIFKUJ_clean_linker_0, # of connection points: 2
#     Edge 26, Type (0, 0), BuildingBlock: MIFKUJ_clean_linker_0, # of connection points: 2
#     Edge 27, Type (0, 0), BuildingBlock: MIFKUJ_clean_linker_0, # of connection points: 2
#     Edge 28, Type (0, 0), BuildingBlock: MIFKUJ_clean_linker_0, # of connection points: 2
#     Edge 29, Type (0, 0), BuildingBlock: MIFKUJ_clean_linker_0, # of connection points: 2
#     Edge 30, Type (0, 0), BuildingBlock: MIFKUJ_clean_linker_0, # of connection points: 2
#     Edge 31, Type (0, 0), BuildingBlock: MIFKUJ_clean_linker_0, # of connection points: 2
#     Edge 32, Type (0, 0), BuildingBlock: MIFKUJ_clean_linker_0, # of connection points: 2
#     Edge 33, Type (0, 0), BuildingBlock: MIFKUJ_clean_linker_0, # of connection points: 2
#     Edge 34, Type (0, 0), BuildingBlock: MIFKUJ_clean_linker_0, # of connection points: 2
#     Edge 35, Type (0, 0), BuildingBlock: MIFKUJ_clean_linker_0, # of connection points: 2
#     Edge 36, Type (0, 0), BuildingBlock: MIFKUJ_clean_linker_0, # of connection points: 2
#     Edge 37, Type (0, 0), BuildingBlock: MIFKUJ_clean_linker_0, # of connection points: 2
#     Edge 38, Type (0, 0), BuildingBlock: MIFKUJ_clean_linker_0, # of connection points: 2
#     Edge 39, Type (0, 0), BuildingBlock: MIFKUJ_clean_linker_0, # of connection points: 2
#     Edge 40, Type (0, 0), BuildingBlock: MIFKUJ_clean_linker_0, # of connection points: 2
#     Edge 41, Type (0, 0), BuildingBlock: MIFKUJ_clean_linker_0, # of connection points: 2
#     Edge 42, Type (0, 0), BuildingBlock: MIFKUJ_clean_linker_0, # of connection points: 2
#     Edge 43, Type (0, 0), BuildingBlock: MIFKUJ_clean_linker_0, # of connection points: 2
#     Edge 44, Type (0, 0), BuildingBlock: MIFKUJ_clean_linker_0, # of connection points: 2
#     Edge 45, Type (0, 0), BuildingBlock: MIFKUJ_clean_linker_0, # of connection points: 2
#     Edge 46, Type (0, 0), BuildingBlock: MIFKUJ_clean_linker_0, # of connection points: 2
#     Edge 47, Type (0, 0), BuildingBlock: MIFKUJ_clean_linker_0, # of connection points: 2
#     Edge 48, Type (0, 0), BuildingBlock: MIFKUJ_clean_linker_0, # of connection points: 2
#     Edge 49, Type (0, 0), BuildingBlock: MIFKUJ_clean_linker_0, # of connection points: 2
#     Edge 50, Type (0, 0), BuildingBlock: MIFKUJ_clean_linker_0, # of connection points: 2
#     Edge 51, Type (0, 0), BuildingBlock: MIFKUJ_clean_linker_0, # of connection points: 2
#     Edge 52, Type (0, 0), BuildingBlock: MIFKUJ_clean_linker_0, # of connection points: 2
#     Edge 53, Type (0, 0), BuildingBlock: MIFKUJ_clean_linker_0, # of connection points: 2
#     Edge 54, Type (0, 0), BuildingBlock: MIFKUJ_clean_linker_0, # of connection points: 2
#     Edge 55, Type (0, 0), BuildingBlock: MIFKUJ_clean_linker_0, # of connection points: 2
#     Edge 56, Type (0, 0), BuildingBlock: MIFKUJ_clean_linker_0, # of connection points: 2
#     Edge 57, Type (0, 0), BuildingBlock: MIFKUJ_clean_linker_0, # of connection points: 2
#     Edge 58, Type (0, 0), BuildingBlock: MIFKUJ_clean_linker_0, # of connection points: 2
#     Edge 59, Type (0, 0), BuildingBlock: MIFKUJ_clean_linker_0, # of connection points: 2
#     Edge 60, Type (0, 0), BuildingBlock: MIFKUJ_clean_linker_0, # of connection points: 2
#     Edge 61, Type (0, 0), BuildingBlock: MIFKUJ_clean_linker_0, # of connection points: 2
#     Edge 62, Type (0, 0), BuildingBlock: MIFKUJ_clean_linker_0, # of connection points: 2
#     Edge 63, Type (0, 0), BuildingBlock: MIFKUJ_clean_linker_0, # of connection points: 2
#     Edge 64, Type (0, 0), BuildingBlock: MIFKUJ_clean_linker_0, # of connection points: 2
#     Edge 65, Type (0, 0), BuildingBlock: MIFKUJ_clean_linker_0, # of connection points: 2
#     Edge 66, Type (0, 0), BuildingBlock: MIFKUJ_clean_linker_0, # of connection points: 2
#     Edge 67, Type (0, 0), BuildingBlock: MIFKUJ_clean_linker_0, # of connection points: 2
#     Edge 68, Type (0, 0), BuildingBlock: MIFKUJ_clean_linker_0, # of connection points: 2
#     Edge 69, Type (0, 0), BuildingBlock: MIFKUJ_clean_linker_0, # of connection points: 2
#     Edge 70, Type (0, 0), BuildingBlock: MIFKUJ_clean_linker_0, # of connection points: 2
#     Edge 71, Type (0, 0), BuildingBlock: MIFKUJ_clean_linker_0, # of connection points: 2
#     Edge 72, Type (0, 0), BuildingBlock: MIFKUJ_clean_linker_0, # of connection points: 2
#     Edge 73, Type (0, 0), BuildingBlock: MIFKUJ_clean_linker_0, # of connection points: 2
#     Edge 74, Type (0, 0), BuildingBlock: MIFKUJ_clean_linker_0, # of connection points: 2
#     Edge 75, Type (0, 0), BuildingBlock: MIFKUJ_clean_linker_0, # of connection points: 2
#     Edge 76, Type (0, 0), BuildingBlock: MIFKUJ_clean_linker_0, # of connection points: 2
#     Edge 77, Type (0, 0), BuildingBlock: MIFKUJ_clean_linker_0, # of connection points: 2
#     Edge 78, Type (0, 0), BuildingBlock: MIFKUJ_clean_linker_0, # of connection points: 2
#     Edge 79, Type (0, 0), BuildingBlock: MIFKUJ_clean_linker_0, # of connection points: 2
#     Edge 80, Type (0, 0), BuildingBlock: MIFKUJ_clean_linker_0, # of connection points: 2
#     Edge 81, Type (0, 0), BuildingBlock: MIFKUJ_clean_linker_0, # of connection points: 2
#     Edge 82, Type (0, 0), BuildingBlock: MIFKUJ_clean_linker_0, # of connection points: 2
#     Edge 83, Type (0, 0), BuildingBlock: MIFKUJ_clean_linker_0, # of connection points: 2
# Relax obj value: 0.869
# Max RMSD: 0.219
# Mean RMSD: 0.219
data_MOF--net-lcy-a-x--node1-XOMCOT_clean_sbu_1--edge1-MIFKUJ_clean_linker_0
_symmetry_space_group_name_H-M    P1
_symmetry_Int_Tables_number       1
_symmetry_cell_setting            triclinic
loop_
_symmetry_equiv_pos_as_xyz
'x, y, z'
_cell_length_a     72.735608
_cell_length_b     72.73845
_cell_length_c     72.754895
_cell_angle_alpha  90.007697
_cell_angle_beta   89.991007
_cell_angle_gamma 90.002859
loop_
_atom_site_label
_atom_site_type_symbol
_atom_site_fract_x
_atom_site_fract_y
_atom_site_fract_z
_atom_type_partial_charge
C0 C 0.03933 0.0547 0.75093 0.0
C1 C 0.0229 0.05629 0.76032 0.0
N2 N 0.00923 0.05761 0.74789 0.0
N3 N 0.03591 0.055 0.73272 0.0
C4 C 0.01751 0.05697 0.73134 0.0
H5 H 0.05287 0.05346 0.75693 0.0
Co6 Co 0.05283 0.0544 0.71352 0.0
C7 C 0.02978 0.03321 0.68581 0.0
O8 O 0.04121 0.01944 0.68353 0.0
N9 N 0.07007 0.05462 0.69394 0.0
C10 C 0.08671 0.04832 0.66894 0.0
C11 C 0.07633 0.04097 0.68293 0.0
C12 C 0.07759 0.06999 0.68667 0.0
N13 N 0.08746 0.0666 0.67139 0.0
O14 O 0.0455 0.07861 0.70761 0.0
H15 H 0.07336 0.02655 0.68454 0.0
H16 H 0.07494 0.08373 0.69161 0.0
O17 O 0.03367 0.04631 0.69679 0.0
C18 C 0.04977 0.09268 0.71696 0.0
O19 O 0.06166 0.09108 0.73046 0.0
N20 N 0.05929 0.03019 0.71993 0.0
C21 C 0.06828 0.99334 0.72383 0.0
C22 C 0.04992 0.99903 0.72449 0.0
C23 C 0.04572 0.01752 0.72267 0.0
C24 C 0.07729 0.02528 0.72198 0.0
C25 C 0.08217 0.00672 0.72356 0.0
H26 H 0.03141 0.02148 0.72231 0.0
H27 H 0.08795 0.03561 0.72103 0.0
H28 H 0.01026 0.05832 0.71844 0.0
H29 H 0.02113 0.05623 0.77509 0.0
H30 H 0.09252 0.04094 0.65739 0.0
H31 H 0.0388 0.98916 0.72558 0.0
H32 H 0.09654 0.00286 0.72355 0.0
C33 C 0.28284 0.81081 0.99909 0.0
C34 C 0.28583 0.79431 0.00792 0.0
N35 N 0.27629 0.78103 0.99909 0.0
N36 N 0.27166 0.80793 0.98464 0.0
C37 C 0.26767 0.78982 0.98517 0.0
H38 H 0.28872 0.82398 0.00272 0.0
Co39 Co 0.26335 0.8249 0.96745 0.0
C40 C 0.27148 0.80555 0.93247 0.0
O41 O 0.27899 0.82055 0.92573 0.0
N42 N 0.25383 0.84213 0.95084 0.0
C43 C 0.2387 0.86703 0.94122 0.0
C44 C 0.2499 0.85988 0.95472 0.0
C45 C 0.24419 0.83868 0.93536 0.0
N46 N 0.23533 0.8536 0.929 0.0
O47 O 0.23899 0.81776 0.97264 0.0
H48 H 0.25352 0.86675 0.96739 0.0
H49 H 0.2418 0.82507 0.92992 0.0
O50 O 0.26431 0.80579 0.9485 0.0
C51 C 0.22885 0.82593 0.98422 0.0
O52 O 0.23547 0.83992 0.99353 0.0
N53 N 0.28803 0.83182 0.96222 0.0
C54 C 0.32345 0.84095 0.95069 0.0
C55 C 0.31837 0.82256 0.95313 0.0
C56 C 0.30075 0.81831 0.9591 0.0
C57 C 0.29331 0.84983 0.96159 0.0
C58 C 0.3109 0.85473 0.95558 0.0
H59 H 0.29715 0.80397 0.96056 0.0
H60 H 0.28399 0.86057 0.9656 0.0
H61 H 0.2585 0.78334 0.97546 0.0
H62 H 0.29466 0.79235 0.01971 0.0
H63 H 0.2326 0.8806 0.94101 0.0
H64 H 0.32796 0.81147 0.95046 0.0
H65 H 0.31453 0.86913 0.95454 0.0
C66 C 0.54813 0.01477 0.28051 0.0
C67 C 0.56463 0.01397 0.2899 0.0
N68 N 0.5783 0.01755 0.27792 0.0
N69 N 0.55152 0.01876 0.26274 0.0
C70 C 0.56997 0.02037 0.26162 0.0
H71 H 0.53466 0.01175 0.28604 0.0
Co72 Co 0.53543 0.01771 0.24303 0.0
C73 C 0.54815 0.04677 0.21763 0.0
O74 O 0.53115 0.05234 0.21506 0.0
N75 N 0.51954 0.01599 0.22233 0.0
C76 C 0.49712 0.00992 0.20228 0.0
C77 C 0.50109 0.01474 0.22016 0.0
C78 C 0.52627 0.0119 0.20547 0.0
N79 N 0.51305 0.00791 0.19317 0.0
O80 O 0.54878 0.99707 0.23414 0.0
H81 H 0.49095 0.01562 0.23089 0.0
H82 H 0.54081 0.01068 0.20256 0.0
O83 O 0.55151 0.03362 0.22877 0.0
C84 C 0.54137 0.98136 0.23239 0.0
O85 O 0.52394 0.97925 0.23662 0.0
N86 N 0.52227 0.03757 0.25276 0.0
C87 C 0.49913 0.06663 0.26052 0.0
C88 C 0.51806 0.06962 0.25856 0.0
C89 C 0.52956 0.05471 0.25501 0.0
C90 C 0.50477 0.0341 0.25843 0.0
C91 C 0.4926 0.04857 0.26159 0.0
H92 H 0.54406 0.05714 0.25291 0.0
H93 H 0.49995 0.02008 0.25932 0.0
H94 H 0.57732 0.02223 0.24883 0.0
H95 H 0.56645 0.01051 0.30425 0.0
H96 H 0.48366 0.00648 0.19693 0.0
H97 H 0.52371 0.0834 0.25827 0.0
H98 H 0.47816 0.04576 0.26391 0.0
C99 C 0.28274 0.29473 0.52267 0.0
C100 C 0.2792 0.31233 0.5288 0.0
N101 N 0.28872 0.32427 0.51826 0.0
N102 N 0.29432 0.29562 0.50824 0.0
C103 C 0.29795 0.31368 0.50613 0.0
H104 H 0.27675 0.28218 0.52792 0.0
Co105 Co 0.30245 0.27684 0.49298 0.0
C106 C 0.29493 0.29116 0.45556 0.0
O107 O 0.28999 0.27459 0.45027 0.0
N108 N 0.31147 0.25796 0.47751 0.0
C109 C 0.32082 0.23184 0.46437 0.0
C110 C 0.30988 0.23941 0.47787 0.0
C111 C 0.32399 0.2611 0.46414 0.0
N112 N 0.32952 0.24562 0.45567 0.0
O113 O 0.32713 0.2845 0.49721 0.0
H114 H 0.30203 0.23156 0.48765 0.0
H115 H 0.32937 0.2746 0.46096 0.0
O116 O 0.30084 0.29366 0.47193 0.0
C117 C 0.33852 0.27393 0.50521 0.0
O118 O 0.33316 0.25759 0.51074 0.0
N119 N 0.27777 0.26937 0.48955 0.0
C120 C 0.24221 0.25721 0.48286 0.0
C121 C 0.2474 0.27505 0.4781 0.0
C122 C 0.26503 0.2811 0.48222 0.0
C123 C 0.2722 0.25279 0.49633 0.0
C124 C 0.25446 0.24623 0.49284 0.0
H125 H 0.26835 0.29529 0.47946 0.0
H126 H 0.28143 0.24473 0.50468 0.0
H127 H 0.30716 0.31891 0.49571 0.0
H128 H 0.26981 0.31599 0.53974 0.0
H129 H 0.32236 0.21736 0.4613 0.0
H130 H 0.2378 0.28435 0.47152 0.0
H131 H 0.25041 0.23276 0.49774 0.0
C132 C 0.51398 0.52275 0.29168 0.0
C133 C 0.49665 0.52315 0.28414 0.0
N134 N 0.48421 0.52257 0.2979 0.0
N135 N 0.51251 0.5221 0.31011 0.0
C136 C 0.49428 0.52203 0.31351 0.0
H137 H 0.52682 0.52214 0.2842 0.0
Co138 Co 0.53147 0.51825 0.32658 0.0
C139 C 0.52494 0.54536 0.35646 0.0
O140 O 0.5425 0.5496 0.35705 0.0
N141 N 0.55078 0.51342 0.34338 0.0
C142 C 0.57622 0.5016 0.35577 0.0
C143 C 0.56836 0.50834 0.33999 0.0
C144 C 0.54836 0.50934 0.36138 0.0
N145 N 0.56357 0.5022 0.36918 0.0
O146 O 0.51825 0.49797 0.33647 0.0
H147 H 0.57475 0.50749 0.32669 0.0
H148 H 0.53511 0.50975 0.36816 0.0
O149 O 0.51912 0.53361 0.34476 0.0
C150 C 0.5237 0.48142 0.33601 0.0
O151 O 0.53936 0.47744 0.32792 0.0
N152 N 0.54413 0.53838 0.31634 0.0
C153 C 0.56593 0.56768 0.30562 0.0
C154 C 0.5481 0.57075 0.31221 0.0
C155 C 0.53723 0.55582 0.31715 0.0
C156 C 0.55994 0.53514 0.30682 0.0
C157 C 0.57154 0.54965 0.30201 0.0
H158 H 0.52354 0.55839 0.32228 0.0
H159 H 0.56377 0.52127 0.30329 0.0
H160 H 0.4886 0.52089 0.3272 0.0
H161 H 0.49353 0.52282 0.2696 0.0
H162 H 0.5897 0.49538 0.35691 0.0
H163 H 0.54303 0.58454 0.31468 0.0
H164 H 0.5849 0.54682 0.29607 0.0
C165 C 0.81239 0.29529 0.56021 0.0
C166 C 0.80984 0.28032 0.54888 0.0
N167 N 0.8042 0.26605 0.55928 0.0
N168 N 0.80834 0.29043 0.57761 0.0
C169 C 0.80333 0.27258 0.57661 0.0
H170 H 0.81775 0.30857 0.55621 0.0
Co171 Co 0.81334 0.30388 0.59866 0.0
C172 C 0.77785 0.2927 0.619 0.0
O173 O 0.76799 0.30779 0.618 0.0
N174 N 0.81892 0.31704 0.62008 0.0
C175 C 0.81751 0.33248 0.64644 0.0
C176 C 0.80773 0.32673 0.6313 0.0
C177 C 0.83542 0.31741 0.62854 0.0
N178 N 0.8349 0.3264 0.64473 0.0
O179 O 0.82855 0.28432 0.60677 0.0
H180 H 0.79331 0.32922 0.62886 0.0
H181 H 0.8476 0.31088 0.62313 0.0
O182 O 0.79376 0.29185 0.61172 0.0
C183 C 0.84456 0.2824 0.60016 0.0
O184 O 0.85077 0.29462 0.58839 0.0
N185 N 0.79851 0.32314 0.59018 0.0
C186 C 0.7769 0.35295 0.57988 0.0
C187 C 0.77016 0.33493 0.57839 0.0
C188 C 0.7813 0.32018 0.58339 0.0
C189 C 0.80591 0.34038 0.59004 0.0
C190 C 0.79521 0.35558 0.58528 0.0
H191 H 0.77587 0.30638 0.58239 0.0
H192 H 0.82 0.34245 0.59429 0.0
H193 H 0.80046 0.26417 0.58855 0.0
H194 H 0.81254 0.27981 0.53426 0.0
H195 H 0.812 0.33978 0.65818 0.0
H196 H 0.75613 0.33222 0.57421 0.0
H197 H 0.80107 0.36923 0.58615 0.0
C198 C 0.04643 0.53184 0.80843 0.0
C199 C 0.06084 0.52891 0.79644 0.0
N200 N 0.07637 0.52698 0.80638 0.0
N201 N 0.05296 0.53182 0.82577 0.0
C202 C 0.07114 0.52871 0.82406 0.0
H203 H 0.03233 0.53478 0.80475 0.0
Co204 Co 0.04111 0.53872 0.84734 0.0
C205 C 0.05728 0.50914 0.87224 0.0
O206 O 0.04213 0.49993 0.87558 0.0
N207 N 0.02966 0.54602 0.86954 0.0
C208 C 0.01757 0.54536 0.89764 0.0
C209 C 0.0202 0.53563 0.88171 0.0
C210 C 0.03223 0.56217 0.87843 0.0
N211 N 0.02536 0.56204 0.89568 0.0
O212 O 0.05913 0.5574 0.85062 0.0
H213 H 0.01614 0.52152 0.87965 0.0
H214 H 0.0397 0.57362 0.87265 0.0
O215 O 0.05713 0.52303 0.86156 0.0
C216 C 0.06091 0.57049 0.83924 0.0
O217 O 0.04961 0.57163 0.8252 0.0
N218 N 0.0234 0.52043 0.84339 0.0
C219 C 0.99646 0.49357 0.84112 0.0
C220 C 0.01499 0.48909 0.83827 0.0
C221 C 0.02827 0.5028 0.8393 0.0
C222 C 0.00531 0.52541 0.84381 0.0
C223 C 0.99153 0.51204 0.84332 0.0
H224 H 0.04258 0.49909 0.83773 0.0
H225 H 0.00159 0.53967 0.84581 0.0
H226 H 0.08063 0.52924 0.83551 0.0
H227 H 0.06007 0.52895 0.78158 0.0
H228 H 0.01149 0.53999 0.9101 0.0
H229 H 0.01931 0.47495 0.83647 0.0
H230 H 0.97731 0.51597 0.84529 0.0
C231 C 0.77389 0.80231 0.04788 0.0
C232 C 0.77398 0.81733 0.03625 0.0
N233 N 0.77527 0.8326 0.04663 0.0
N234 N 0.77517 0.80821 0.06543 0.0
C235 C 0.77565 0.82671 0.06415 0.0
H236 H 0.7724 0.78807 0.04386 0.0
Co237 Co 0.77261 0.79477 0.08708 0.0
C238 C 0.80595 0.8191 0.09665 0.0
O239 O 0.81093 0.82411 0.08004 0.0
N240 N 0.76938 0.78165 0.1089 0.0
C241 C 0.77296 0.7692 0.13649 0.0
C242 C 0.78184 0.7774 0.12193 0.0
C243 C 0.75322 0.77551 0.11558 0.0
N244 N 0.75485 0.76812 0.13254 0.0
O245 O 0.75593 0.81274 0.09594 0.0
H246 H 0.79635 0.78056 0.12118 0.0
H247 H 0.74045 0.77675 0.10818 0.0
O248 O 0.79227 0.80837 0.09909 0.0
C249 C 0.73926 0.81084 0.09128 0.0
O250 O 0.73471 0.79733 0.08017 0.0
N251 N 0.78853 0.77636 0.07838 0.0
C252 C 0.81211 0.74707 0.07177 0.0
C253 C 0.8178 0.76515 0.06838 0.0
C254 C 0.80574 0.77964 0.07175 0.0
C255 C 0.78211 0.75875 0.0796 0.0
C256 C 0.79385 0.74383 0.07685 0.0
H257 H 0.81043 0.79339 0.06935 0.0
H258 H 0.76809 0.75621 0.08381 0.0
H259 H 0.77562 0.8358 0.07594 0.0
H260 H 0.77299 0.81708 0.02141 0.0
H261 H 0.77937 0.76516 0.14927 0.0
H262 H 0.83178 0.76817 0.06424 0.0
H263 H 0.78894 0.72999 0.0793 0.0
C264 C 0.75333 0.05476 0.02902 0.0
C265 C 0.76298 0.03939 0.02349 0.0
N266 N 0.75187 0.0247 0.0253 0.0
N267 N 0.73635 0.04965 0.03441 0.0
C268 C 0.73588 0.03128 0.03194 0.0
H269 H 0.75862 0.06862 0.02996 0.0
Co270 Co 0.71968 0.06459 0.04651 0.0
C271 C 0.68381 0.04516 0.04424 0.0
O272 O 0.6753 0.06084 0.04133 0.0
N273 N 0.70332 0.07987 0.05962 0.0
C274 C 0.68672 0.10253 0.07187 0.0
C275 C 0.69918 0.09796 0.05838 0.0
C276 C 0.69368 0.07405 0.0744 0.0
N277 N 0.68329 0.0874 0.08192 0.0
O278 O 0.7283 0.05505 0.06898 0.0
H279 H 0.7049 0.10757 0.0487 0.0
H280 H 0.69398 0.06001 0.0793 0.0
O281 O 0.70126 0.04495 0.04636 0.0
C282 C 0.73991 0.06293 0.07932 0.0
O283 O 0.74641 0.07913 0.07469 0.0
N284 N 0.71171 0.07368 0.02363 0.0
C285 C 0.69985 0.08802 0.9902 0.0
C286 C 0.69682 0.06954 0.99456 0.0
C287 C 0.70336 0.06251 0.01104 0.0
C288 C 0.71656 0.09112 0.01876 0.0
C289 C 0.71042 0.09876 0.00221 0.0
H290 H 0.70195 0.04795 0.0134 0.0
H291 H 0.72532 0.09912 0.02771 0.0
H292 H 0.72454 0.02262 0.03605 0.0
H293 H 0.77717 0.03896 0.01903 0.0
H294 H 0.6809 0.11601 0.07427 0.0
H295 H 0.68994 0.06039 0.98502 0.0
H296 H 0.71392 0.11284 0.99884 0.0
C297 C 0.26249 0.4831 0.27176 0.0
C298 C 0.27903 0.49149 0.26761 0.0
N299 N 0.2922 0.48395 0.27826 0.0
N300 N 0.26538 0.47024 0.28479 0.0
C301 C 0.28353 0.4711 0.28837 0.0
H302 H 0.2492 0.48653 0.26607 0.0
Co303 Co 0.24908 0.45567 0.29791 0.0
C304 C 0.26718 0.41862 0.29919 0.0
O305 O 0.2516 0.40962 0.30072 0.0
N306 N 0.23279 0.44109 0.31193 0.0
C307 C 0.21049 0.42329 0.32326 0.0
C308 C 0.21598 0.43384 0.30847 0.0
C309 C 0.23691 0.43495 0.32897 0.0
N310 N 0.22369 0.42422 0.33614 0.0
O311 O 0.25994 0.46447 0.31977 0.0
H312 H 0.20829 0.43543 0.29591 0.0
H313 H 0.25 0.43721 0.33565 0.0
O314 O 0.2672 0.4361 0.2979 0.0
C315 C 0.25539 0.47897 0.32828 0.0
O316 O 0.24149 0.48885 0.32232 0.0
N317 N 0.23861 0.44776 0.27573 0.0
C318 C 0.22449 0.44324 0.24038 0.0
C319 C 0.24067 0.43427 0.24576 0.0
C320 C 0.24766 0.43695 0.26333 0.0
C321 C 0.22273 0.45646 0.27085 0.0
C322 C 0.21528 0.45421 0.25329 0.0
H323 H 0.26107 0.43141 0.26619 0.0
H324 H 0.21622 0.46575 0.28047 0.0
H325 H 0.29018 0.46265 0.29863 0.0
H326 H 0.28102 0.50272 0.25807 0.0
H327 H 0.19801 0.41524 0.32428 0.0
H328 H 0.24875 0.42641 0.23603 0.0
H329 H 0.20293 0.46166 0.2496 0.0
C330 C 0.79451 0.04529 0.53372 0.0
C331 C 0.78556 0.06104 0.52806 0.0
N332 N 0.79824 0.07432 0.52557 0.0
N333 N 0.81267 0.0488 0.53493 0.0
C334 C 0.81449 0.06648 0.52971 0.0
H335 H 0.7881 0.03255 0.53794 0.0
Co336 Co 0.83081 0.03471 0.54616 0.0
C337 C 0.8615 0.04298 0.51846 0.0
O338 O 0.86424 0.02638 0.51195 0.0
N339 N 0.84928 0.02089 0.5579 0.0
C340 C 0.87372 0.00358 0.56412 0.0
C341 C 0.86115 0.00844 0.55088 0.0
C342 C 0.85475 0.02302 0.57552 0.0
N343 N 0.86978 0.01295 0.57958 0.0
O344 O 0.83529 0.05436 0.56278 0.0
H345 H 0.86106 0.00345 0.53692 0.0
H346 H 0.84821 0.03226 0.58513 0.0
O347 O 0.84923 0.04588 0.53061 0.0
C348 C 0.82322 0.05994 0.57406 0.0
O349 O 0.80705 0.05191 0.57449 0.0
N350 N 0.82589 0.01539 0.52997 0.0
C351 C 0.82095 0.9852 0.50725 0.0
C352 C 0.82264 0.00289 0.49978 0.0
C353 C 0.82506 0.01788 0.51142 0.0
C354 C 0.82223 0.99859 0.5375 0.0
C355 C 0.82031 0.98311 0.52633 0.0
H356 H 0.82682 0.03141 0.50554 0.0
H357 H 0.82181 0.99703 0.55228 0.0
H358 H 0.82726 0.07404 0.53075 0.0
H359 H 0.77084 0.06289 0.52693 0.0
H360 H 0.8855 0.9947 0.56213 0.0
H361 H 0.82302 0.00501 0.48505 0.0
H362 H 0.81877 0.96965 0.5325 0.0
C363 C 0.29365 0.56758 0.77881 0.0
C364 C 0.28037 0.55458 0.77498 0.0
N365 N 0.26428 0.56336 0.77232 0.0
N366 N 0.2858 0.58437 0.77876 0.0
C367 C 0.26801 0.58135 0.77453 0.0
H368 H 0.3077 0.56487 0.78287 0.0
Co369 Co 0.29523 0.60612 0.78833 0.0
C370 C 0.27961 0.6321 0.75949 0.0
O371 O 0.29536 0.63743 0.75248 0.0
N372 N 0.30425 0.62831 0.79849 0.0
C373 C 0.31516 0.65666 0.80233 0.0
C374 C 0.31352 0.6422 0.79032 0.0
C375 C 0.3007 0.6347 0.81561 0.0
N376 N 0.30692 0.65199 0.81821 0.0
O377 O 0.27589 0.60606 0.80597 0.0
H378 H 0.31853 0.64217 0.77637 0.0
H379 H 0.29326 0.62705 0.82592 0.0
O380 O 0.27914 0.62033 0.77249 0.0
C381 C 0.27575 0.59352 0.8181 0.0
O382 O 0.28918 0.58144 0.81847 0.0
N383 N 0.31449 0.6053 0.77123 0.0
C384 C 0.34361 0.60641 0.74672 0.0
C385 C 0.32579 0.60263 0.74051 0.0
C386 C 0.31137 0.602 0.75304 0.0
C387 C 0.33204 0.60685 0.77772 0.0
C388 C 0.34685 0.60813 0.76557 0.0
H389 H 0.29758 0.59956 0.74806 0.0
H390 H 0.33447 0.60812 0.79233 0.0
H391 H 0.25756 0.59193 0.77508 0.0
H392 H 0.28213 0.5398 0.77533 0.0
H393 H 0.32109 0.66994 0.79919 0.0
H394 H 0.32291 0.601 0.72599 0.0
H395 H 0.36056 0.61074 0.77077 0.0
C396 C 0.28204 0.55683 0.02633 0.0
C397 C 0.28813 0.57474 0.02765 0.0
N398 N 0.27372 0.58603 0.02472 0.0
N399 N 0.26385 0.55689 0.02279 0.0
C400 C 0.2592 0.57482 0.02189 0.0
H401 H 0.2904 0.54458 0.02738 0.0
Co402 Co 0.24847 0.53722 0.01777 0.0
C403 C 0.21652 0.54235 0.04244 0.0
O404 O 0.21596 0.5246 0.04579 0.0
N405 N 0.23246 0.51746 0.01184 0.0
C406 C 0.22012 0.49186 0.00027 0.0
C407 C 0.23531 0.49933 0.00875 0.0
C408 C 0.2154 0.52049 0.00508 0.0
N409 N 0.20774 0.50533 0.99772 0.0
O410 O 0.23995 0.54977 0.99645 0.0
H411 H 0.24802 0.49203 0.01077 0.0
H412 H 0.20921 0.53399 0.00441 0.0
O413 O 0.22888 0.54892 0.0318 0.0
C414 C 0.24299 0.54344 0.98048 0.0
O415 O 0.25298 0.52849 0.97867 0.0
N416 N 0.25752 0.52499 0.03865 0.0
C417 C 0.26685 0.50322 0.06844 0.0
C418 C 0.25947 0.52079 0.0712 0.0
C419 C 0.25523 0.53167 0.05605 0.0
C420 C 0.26769 0.50951 0.03592 0.0
C421 C 0.27189 0.49793 0.05063 0.0
H422 H 0.24945 0.54514 0.05836 0.0
H423 H 0.27196 0.50579 0.0222 0.0
H424 H 0.24543 0.57954 0.01884 0.0
H425 H 0.30219 0.57909 0.02983 0.0
H426 H 0.21903 0.47804 0.99487 0.0
H427 H 0.25589 0.52562 0.08483 0.0
H428 H 0.2784 0.48478 0.04809 0.0
C429 C 0.80385 0.00238 0.28718 0.0
C430 C 0.78671 0.01018 0.28952 0.0
N431 N 0.77394 0.99751 0.28512 0.0
N432 N 0.80179 0.98491 0.28134 0.0
C433 C 0.78343 0.98243 0.28005 0.0
H434 H 0.81696 0.00908 0.28922 0.0
Co435 Co 0.82041 0.96906 0.2738 0.0
C436 C 0.80736 0.93257 0.28533 0.0
O437 O 0.82406 0.92885 0.29116 0.0
N438 N 0.83928 0.95383 0.26468 0.0
C439 C 0.86499 0.94581 0.24995 0.0
C440 C 0.85676 0.95889 0.26087 0.0
C441 C 0.83701 0.93812 0.25502 0.0
N442 N 0.85247 0.9327 0.24637 0.0
O443 O 0.8117 0.97166 0.24944 0.0
H444 H 0.86266 0.97212 0.26421 0.0
H445 H 0.82377 0.93179 0.25265 0.0
O446 O 0.80404 0.94792 0.2774 0.0
C447 C 0.81991 0.98169 0.23776 0.0
O448 O 0.83509 0.99024 0.24254 0.0
N449 N 0.82865 0.96656 0.29868 0.0
C450 C 0.83897 0.95603 0.33424 0.0
C451 C 0.82043 0.95858 0.32965 0.0
C452 C 0.81559 0.9637 0.31192 0.0
C453 C 0.84679 0.96651 0.30357 0.0
C454 C 0.85227 0.96077 0.32109 0.0
H455 H 0.80113 0.96426 0.30867 0.0
H456 H 0.85727 0.97043 0.294 0.0
H457 H 0.77708 0.97006 0.27479 0.0
H458 H 0.78384 0.02406 0.29406 0.0
H459 H 0.87864 0.94657 0.24409 0.0
H460 H 0.80953 0.95628 0.33952 0.0
H461 H 0.86681 0.95964 0.324 0.0
C462 C 0.31573 0.54492 0.5399 0.0
C463 C 0.30193 0.53181 0.53955 0.0
N464 N 0.30727 0.51809 0.5283 0.0
N465 N 0.32985 0.53919 0.52928 0.0
C466 C 0.32402 0.52302 0.52223 0.0
H467 H 0.31565 0.5575 0.54782 0.0
Co468 Co 0.35323 0.54917 0.52436 0.0
C469 C 0.36179 0.51392 0.54526 0.0
O470 O 0.34515 0.51139 0.55178 0.0
N471 N 0.37652 0.55868 0.51903 0.0
C472 C 0.40646 0.56466 0.52047 0.0
C473 C 0.39141 0.5585 0.53012 0.0
C474 C 0.38281 0.56524 0.50286 0.0
N475 N 0.40103 0.56872 0.50324 0.0
O476 O 0.35301 0.53709 0.50124 0.0
H477 H 0.39149 0.5534 0.54408 0.0
H478 H 0.37435 0.56686 0.49078 0.0
O479 O 0.3655 0.52785 0.53519 0.0
C480 C 0.34427 0.54568 0.4888 0.0
O481 O 0.33767 0.56209 0.49252 0.0
N482 N 0.35327 0.56232 0.54653 0.0
C483 C 0.36031 0.58526 0.57633 0.0
C484 C 0.3575 0.56635 0.57888 0.0
C485 C 0.35399 0.55511 0.5638 0.0
C486 C 0.35418 0.58089 0.544 0.0
C487 C 0.35791 0.59264 0.55871 0.0
H488 H 0.35228 0.54069 0.56619 0.0
H489 H 0.35316 0.58648 0.53026 0.0
H490 H 0.33261 0.51409 0.51403 0.0
H491 H 0.28923 0.53212 0.54729 0.0
H492 H 0.42048 0.56498 0.52542 0.0
H493 H 0.3584 0.56018 0.5924 0.0
H494 H 0.35975 0.60719 0.55613 0.0
C495 C 0.78498 0.06387 0.77012 0.0
C496 C 0.80166 0.055 0.77181 0.0
N497 N 0.81483 0.06785 0.77396 0.0
N498 N 0.78775 0.08216 0.77111 0.0
C499 C 0.80604 0.08414 0.77348 0.0
H500 H 0.77185 0.05748 0.76731 0.0
Co501 Co 0.77108 0.10046 0.76555 0.0
C502 C 0.78164 0.13163 0.78991 0.0
O503 O 0.76445 0.13575 0.79366 0.0
N504 N 0.75428 0.11927 0.75904 0.0
C505 C 0.73076 0.13456 0.74671 0.0
C506 C 0.73599 0.11879 0.75572 0.0
C507 C 0.75969 0.1356 0.75195 0.0
N508 N 0.74578 0.14502 0.74407 0.0
O509 O 0.78567 0.10677 0.74499 0.0
H510 H 0.72701 0.10726 0.75796 0.0
H511 H 0.77392 0.13987 0.75145 0.0
O512 O 0.78539 0.11795 0.7796 0.0
C513 C 0.78032 0.10444 0.72858 0.0
O514 O 0.76414 0.09699 0.72552 0.0
N515 N 0.75689 0.09347 0.78586 0.0
C516 C 0.73313 0.08475 0.81434 0.0
C517 C 0.75085 0.09129 0.81811 0.0
C518 C 0.76269 0.09528 0.80361 0.0
C519 C 0.74082 0.08459 0.78214 0.0
C520 C 0.72831 0.08075 0.79617 0.0
H521 H 0.77641 0.09995 0.80676 0.0
H522 H 0.73752 0.08084 0.76816 0.0
H523 H 0.81301 0.09728 0.77334 0.0
H524 H 0.80403 0.04035 0.77079 0.0
H525 H 0.71726 0.13725 0.74106 0.0
H526 H 0.75527 0.09392 0.83208 0.0
H527 H 0.71503 0.07488 0.79288 0.0
C528 C 0.03217 0.7349 0.05577 0.0
C529 C 0.02954 0.7429 0.03879 0.0
N530 N 0.04027 0.73412 0.02647 0.0
N531 N 0.04433 0.72102 0.05408 0.0
C532 C 0.04906 0.72096 0.03614 0.0
H533 H 0.0259 0.73911 0.06857 0.0
Co534 Co 0.05434 0.70634 0.07241 0.0
C535 C 0.05435 0.66877 0.05648 0.0
O536 O 0.04902 0.66155 0.07216 0.0
N537 N 0.06525 0.69165 0.09087 0.0
C538 C 0.07327 0.67493 0.11532 0.0
C539 C 0.06036 0.68679 0.10818 0.0
C540 C 0.0814 0.68287 0.08816 0.0
N541 N 0.0865 0.67261 0.10267 0.0
O542 O 0.07787 0.71432 0.06493 0.0
H543 H 0.04814 0.69102 0.11536 0.0
H544 H 0.08884 0.68317 0.07528 0.0
O545 O 0.05651 0.68613 0.05507 0.0
C546 C 0.08385 0.72992 0.06988 0.0
O547 O 0.07439 0.73953 0.0819 0.0
N548 N 0.03049 0.69947 0.07945 0.0
C549 C 0.99353 0.69532 0.08928 0.0
C550 C 0.00019 0.68847 0.07249 0.0
C551 C 0.0186 0.69082 0.06778 0.0
C552 C 0.02411 0.7071 0.0953 0.0
C553 C 0.00594 0.70455 0.10087 0.0
H554 H 0.02286 0.68675 0.05418 0.0
H555 H 0.03312 0.71561 0.10352 0.0
H556 H 0.05894 0.71149 0.03033 0.0
H557 H 0.02079 0.75457 0.03586 0.0
H558 H 0.07282 0.66831 0.12864 0.0
H559 H 0.99112 0.68227 0.06246 0.0
H560 H 0.00164 0.71031 0.11388 0.0
C561 C 0.53598 0.81622 0.05161 0.0
C562 C 0.53355 0.8092 0.06904 0.0
N563 N 0.53681 0.82273 0.08131 0.0
N564 N 0.54073 0.83408 0.05293 0.0
C565 C 0.54087 0.83769 0.07113 0.0
H566 H 0.53541 0.80856 0.03888 0.0
Co567 Co 0.54984 0.8491 0.03437 0.0
C568 C 0.53043 0.88489 0.04204 0.0
O569 O 0.52467 0.88781 0.0252 0.0
N570 N 0.55954 0.86468 0.01562 0.0
C571 C 0.56258 0.88522 0.99298 0.0
C572 C 0.55135 0.87208 0.0006 0.0
C573 C 0.57599 0.87337 0.01633 0.0
N574 N 0.57804 0.88607 0.00303 0.0
O575 O 0.57074 0.85385 0.04919 0.0
H576 H 0.5374 0.86953 0.99621 0.0
H577 H 0.58583 0.87174 0.0273 0.0
O578 O 0.53913 0.87025 0.04611 0.0
C579 C 0.5821 0.84229 0.05557 0.0
O580 O 0.58027 0.82477 0.05156 0.0
N581 N 0.52908 0.84396 0.02026 0.0
C582 C 0.49991 0.83973 0.99612 0.0
C583 C 0.497 0.84661 0.0139 0.0
C584 C 0.51178 0.84841 0.02589 0.0
C585 C 0.53178 0.83487 0.00409 0.0
C586 C 0.51738 0.83294 0.99154 0.0
H587 H 0.50939 0.85387 0.03949 0.0
H588 H 0.54547 0.83042 0.00035 0.0
H589 H 0.54551 0.85062 0.07685 0.0
H590 H 0.53046 0.79504 0.07241 0.0
H591 H 0.55907 0.89435 0.98177 0.0
H592 H 0.48349 0.85102 0.01836 0.0
H593 H 0.52014 0.82715 0.97812 0.0
C594 C 0.51494 0.28938 0.29217 0.0
C595 C 0.5277 0.29027 0.30618 0.0
N596 N 0.51864 0.29005 0.32237 0.0
N597 N 0.49797 0.28848 0.29953 0.0
C598 C 0.50068 0.28885 0.31786 0.0
H599 H 0.51779 0.29006 0.27759 0.0
Co600 Co 0.47524 0.29029 0.28785 0.0
C601 C 0.45654 0.25847 0.30772 0.0
O602 O 0.45499 0.24757 0.29343 0.0
N603 N 0.45195 0.29264 0.27651 0.0
C604 C 0.42401 0.2871 0.2652 0.0
C605 C 0.44081 0.27956 0.26936 0.0
C606 C 0.44163 0.30812 0.27602 0.0
N607 N 0.42456 0.30505 0.26952 0.0
O608 O 0.4693 0.31014 0.30367 0.0
H609 H 0.4444 0.26532 0.26743 0.0
H610 H 0.44608 0.32126 0.28133 0.0
O611 O 0.46428 0.27415 0.30619 0.0
C612 C 0.478 0.32513 0.30187 0.0
O613 O 0.49041 0.32665 0.28882 0.0
N614 N 0.48177 0.27107 0.27195 0.0
C615 C 0.48589 0.24183 0.24794 0.0
C616 C 0.49135 0.24014 0.26635 0.0
C617 C 0.4893 0.25506 0.27816 0.0
C618 C 0.47923 0.27378 0.25356 0.0
C619 C 0.4806 0.25909 0.24131 0.0
H620 H 0.4925 0.25334 0.29257 0.0
H621 H 0.47466 0.28702 0.24857 0.0
H622 H 0.48952 0.2895 0.32766 0.0
H623 H 0.54242 0.29148 0.30449 0.0
H624 H 0.41214 0.27985 0.25989 0.0
H625 H 0.49568 0.22703 0.27192 0.0
H626 H 0.47667 0.26093 0.22707 0.0
C627 C 0.01807 0.26424 0.55011 0.0
C628 C 0.02177 0.27343 0.56626 0.0
N629 N 0.02683 0.26098 0.57904 0.0
N630 N 0.02086 0.24612 0.55272 0.0
C631 C 0.02607 0.24456 0.57045 0.0
H632 H 0.01331 0.27029 0.53739 0.0
Co633 Co 0.01632 0.227 0.53632 0.0
C634 C 0.0514 0.20592 0.54546 0.0
O635 O 0.06023 0.20933 0.5301 0.0
N636 N 0.01099 0.20739 0.5202 0.0
C637 C 0.01196 0.18242 0.50256 0.0
C638 C 0.02221 0.19606 0.5107 0.0
C639 C 0.99398 0.2006 0.51711 0.0
N640 N 0.99413 0.18518 0.50676 0.0
O641 O 0.99905 0.21726 0.55346 0.0
H642 H 0.03692 0.19732 0.5098 0.0
H643 H 0.98167 0.20671 0.52265 0.0
O644 O 0.03519 0.21216 0.54814 0.0
C645 C 0.98363 0.22542 0.55383 0.0
O646 O 0.98089 0.23929 0.54256 0.0
N647 N 0.03293 0.23741 0.5193 0.0
C648 C 0.05767 0.25106 0.49353 0.0
C649 C 0.06172 0.25179 0.51234 0.0
C650 C 0.04912 0.24504 0.525 0.0
C651 C 0.02798 0.23835 0.50121 0.0
C652 C 0.0404 0.24466 0.48797 0.0
H653 H 0.05289 0.24499 0.53936 0.0
H654 H 0.0146 0.23359 0.49685 0.0
H655 H 0.02838 0.2315 0.57719 0.0
H656 H 0.02054 0.28809 0.56848 0.0
H657 H 0.01742 0.17095 0.49484 0.0
H658 H 0.075 0.25647 0.51721 0.0
H659 H 0.03672 0.24416 0.47355 0.0
C660 C 0.04988 0.75527 0.80201 0.0
C661 C 0.04207 0.75447 0.81928 0.0
N662 N 0.05528 0.75793 0.8318 0.0
N663 N 0.06785 0.75948 0.80372 0.0
C664 C 0.07072 0.76094 0.82198 0.0
H665 H 0.04306 0.75252 0.78909 0.0
Co666 Co 0.08586 0.76051 0.78563 0.0
C667 C 0.10242 0.79702 0.79857 0.0
O668 O 0.0969 0.80723 0.78476 0.0
N669 N 0.10452 0.76093 0.76755 0.0
C670 C 0.12681 0.76879 0.74803 0.0
C671 C 0.11265 0.7752 0.7588 0.0
C672 C 0.11363 0.74601 0.76128 0.0
N673 N 0.12735 0.75041 0.74966 0.0
O674 O 0.09981 0.74316 0.79941 0.0
H675 H 0.10871 0.78938 0.76001 0.0
H676 H 0.11095 0.73214 0.76578 0.0
O677 O 0.09853 0.77989 0.79922 0.0
C678 C 0.09535 0.72638 0.79772 0.0
O679 O 0.08201 0.72195 0.78636 0.0
N680 N 0.07151 0.77711 0.77193 0.0
C681 C 0.0575 0.80457 0.74965 0.0
C682 C 0.05597 0.8059 0.76883 0.0
C683 C 0.0629 0.79181 0.77979 0.0
C684 C 0.06995 0.7741 0.75348 0.0
C685 C 0.06339 0.78793 0.74196 0.0
H686 H 0.06307 0.79365 0.79454 0.0
H687 H 0.0753 0.7616 0.74747 0.0
H688 H 0.08404 0.76374 0.82796 0.0
H689 H 0.02797 0.75085 0.82239 0.0
H690 H 0.13624 0.77703 0.73998 0.0
H691 H 0.05132 0.81844 0.77537 0.0
H692 H 0.0642 0.78618 0.72719 0.0
C693 C 0.57689 0.33912 0.53492 0.0
C694 C 0.58058 0.33104 0.51814 0.0
N695 N 0.56643 0.33471 0.5068 0.0
N696 N 0.56065 0.34806 0.53389 0.0
C697 C 0.55463 0.34501 0.51663 0.0
H698 H 0.58548 0.33852 0.54703 0.0
Co699 Co 0.54804 0.36167 0.55143 0.0
C700 C 0.54438 0.3984 0.53404 0.0
O701 O 0.54826 0.4064 0.54978 0.0
N702 N 0.53448 0.37517 0.56901 0.0
C703 C 0.52163 0.38794 0.59378 0.0
C704 C 0.53589 0.37716 0.58746 0.0
C705 C 0.51884 0.38421 0.56473 0.0
N706 N 0.51108 0.39247 0.57932 0.0
O707 O 0.52587 0.35011 0.5439 0.0
H708 H 0.54626 0.37107 0.59609 0.0
H709 H 0.51312 0.38469 0.55101 0.0
O710 O 0.54386 0.38086 0.53302 0.0
C711 C 0.51707 0.33904 0.55413 0.0
O712 O 0.52305 0.33564 0.57083 0.0
N713 N 0.57044 0.3724 0.55893 0.0
C714 C 0.60413 0.38596 0.57123 0.0
C715 C 0.59781 0.39002 0.55351 0.0
C716 C 0.5812 0.38269 0.54745 0.0
C717 C 0.57707 0.36713 0.57563 0.0
C718 C 0.59368 0.37409 0.58226 0.0
H719 H 0.57743 0.3848 0.53327 0.0
H720 H 0.56974 0.35699 0.58361 0.0
H721 H 0.54182 0.35037 0.51129 0.0
H722 H 0.59248 0.3228 0.51467 0.0
H723 H 0.51937 0.39234 0.60782 0.0
H724 H 0.60602 0.39813 0.54409 0.0
H725 H 0.59844 0.36995 0.59574 0.0
C726 C 0.01555 0.27115 0.80356 0.0
C727 C 0.02597 0.27218 0.7877 0.0
N728 N 0.01447 0.27446 0.77333 0.0
N729 N 0.99764 0.27279 0.79911 0.0
C730 C 0.99747 0.27478 0.78067 0.0
H731 H 0.02061 0.2685 0.81728 0.0
Co732 Co 0.9769 0.26863 0.81354 0.0
C733 C 0.95344 0.29946 0.79748 0.0
O734 O 0.95241 0.30963 0.81235 0.0
N735 N 0.95557 0.26366 0.82762 0.0
C736 C 0.92858 0.26543 0.842 0.0
C737 C 0.94374 0.27513 0.83621 0.0
C738 C 0.94747 0.247 0.82903 0.0
N739 N 0.93084 0.2477 0.8372 0.0
O740 O 0.97098 0.24895 0.79753 0.0
H741 H 0.94566 0.28972 0.83793 0.0
H742 H 0.95339 0.23455 0.82362 0.0
O743 O 0.96244 0.2844 0.79753 0.0
C744 C 0.97984 0.234 0.79904 0.0
O745 O 0.99155 0.23204 0.81266 0.0
N746 N 0.98362 0.28799 0.82926 0.0
C747 C 0.98965 0.3173 0.85293 0.0
C748 C 0.99232 0.31935 0.83397 0.0
C749 C 0.98938 0.30445 0.82236 0.0
C750 C 0.98326 0.28515 0.84782 0.0
C751 C 0.98565 0.29984 0.85996 0.0
H752 H 0.99062 0.30649 0.8077 0.0
H753 H 0.97998 0.2717 0.85322 0.0
H754 H 0.98498 0.27508 0.7726 0.0
H755 H 0.04075 0.27081 0.78677 0.0
H756 H 0.9164 0.27126 0.84825 0.0
H757 H 0.99541 0.33264 0.82801 0.0
H758 H 0.98379 0.29774 0.87459 0.0
C759 C 0.57944 0.80009 0.30237 0.0
C760 C 0.5671 0.80226 0.2881 0.0
N761 N 0.57621 0.79956 0.27223 0.0
N762 N 0.59615 0.79609 0.29537 0.0
C763 C 0.59371 0.79596 0.27701 0.0
H764 H 0.57663 0.80206 0.31684 0.0
Co765 Co 0.61845 0.79514 0.30779 0.0
C766 C 0.63768 0.7653 0.28581 0.0
O767 O 0.64052 0.75424 0.29975 0.0
N768 N 0.6413 0.7951 0.32053 0.0
C769 C 0.6675 0.78859 0.33523 0.0
C770 C 0.65142 0.78147 0.32821 0.0
C771 C 0.65142 0.81035 0.32369 0.0
N772 N 0.66737 0.80682 0.33237 0.0
O773 O 0.62574 0.81614 0.29416 0.0
H774 H 0.64743 0.76722 0.32909 0.0
H775 H 0.64763 0.82392 0.31919 0.0
O776 O 0.62925 0.78053 0.28803 0.0
C777 C 0.6203 0.83212 0.29851 0.0
O778 O 0.61117 0.83448 0.31392 0.0
N779 N 0.61039 0.77441 0.32079 0.0
C780 C 0.60165 0.74242 0.33949 0.0
C781 C 0.59828 0.74388 0.32061 0.0
C782 C 0.60271 0.76003 0.31151 0.0
C783 C 0.61161 0.77404 0.33951 0.0
C784 C 0.60793 0.75781 0.34916 0.0
H785 H 0.60078 0.76066 0.29679 0.0
H786 H 0.61661 0.78596 0.34687 0.0
H787 H 0.60478 0.79455 0.26723 0.0
H788 H 0.55274 0.80601 0.28924 0.0
H789 H 0.67845 0.78095 0.3418 0.0
H790 H 0.59339 0.73222 0.31273 0.0
H791 H 0.6105 0.75711 0.3638 0.0
H792 H 0.09427 0.97307 0.74233 0.0
H793 H 0.09819 0.93952 0.74132 0.0
H794 H 0.05493 0.93581 0.70084 0.0
H795 H 0.05158 0.96899 0.70125 0.0
H796 H 0.07417 0.91565 0.75179 0.0
H797 H 0.05786 0.89925 0.67444 0.0
H798 H 0.06582 0.91157 0.6439 0.0
H799 H 0.11447 0.93645 0.66623 0.0
H800 H 0.10697 0.92406 0.69686 0.0
H801 H 0.03181 0.83208 0.75043 0.0
H802 H 0.03685 0.86366 0.73999 0.0
H803 H 0.08774 0.84719 0.71437 0.0
H804 H 0.08269 0.81567 0.7245 0.0
H805 H 0.07232 0.876 0.69626 0.0
H806 H 0.08899 0.85971 0.75721 0.0
H807 H 0.0839 0.84608 0.78779 0.0
H808 H 0.04178 0.8859 0.7989 0.0
H809 H 0.04622 0.89944 0.76812 0.0
C810 C 0.08597 0.96506 0.73293 0.0
C811 C 0.07241 0.97353 0.72212 0.0
C812 C 0.08815 0.94594 0.73239 0.0
C813 C 0.07693 0.93516 0.72092 0.0
C814 C 0.064 0.94379 0.70954 0.0
C815 C 0.06188 0.96277 0.71002 0.0
C816 C 0.07689 0.91485 0.72228 0.0
C817 C 0.074 0.907 0.73964 0.0
C818 C 0.07706 0.90346 0.70648 0.0
C819 C 0.08177 0.91078 0.688 0.0
C820 C 0.07032 0.90724 0.67283 0.0
C821 C 0.07474 0.91427 0.6555 0.0
C822 C 0.09062 0.92482 0.65313 0.0
C823 C 0.10214 0.92833 0.66809 0.0
C824 C 0.09779 0.92132 0.68545 0.0
C825 C 0.04369 0.83509 0.74197 0.0
C826 C 0.05697 0.82152 0.7385 0.0
C827 C 0.04659 0.85309 0.73606 0.0
C828 C 0.06294 0.85776 0.7269 0.0
C829 C 0.07511 0.84385 0.72153 0.0
C830 C 0.07214 0.82581 0.72728 0.0
C831 C 0.06864 0.87721 0.72558 0.0
C832 C 0.07271 0.88474 0.70833 0.0
C833 C 0.07019 0.88825 0.74153 0.0
C834 C 0.06785 0.88051 0.76029 0.0
C835 C 0.07857 0.86551 0.76612 0.0
C836 C 0.0758 0.85778 0.78349 0.0
C837 C 0.06255 0.86513 0.79529 0.0
C838 C 0.05204 0.88022 0.78974 0.0
C839 C 0.05466 0.88792 0.77232 0.0
H840 H 0.06043 0.85912 0.80874 0.0
H841 H 0.09401 0.93025 0.63971 0.0
H842 H 0.49025 0.81389 0.97022 0.0
H843 H 0.46414 0.81522 0.94894 0.0
H844 H 0.44969 0.86871 0.97025 0.0
H845 H 0.47604 0.86787 0.99062 0.0
H846 H 0.43034 0.81514 0.95854 0.0
H847 H 0.42603 0.89442 0.94262 0.0
H848 H 0.44705 0.91932 0.93335 0.0
H849 H 0.48503 0.87968 0.91168 0.0
H850 H 0.46413 0.85452 0.92054 0.0
H851 H 0.34699 0.86715 0.96383 0.0
H852 H 0.37997 0.86908 0.95785 0.0
H853 H 0.37531 0.82631 0.91707 0.0
H854 H 0.34222 0.82454 0.92268 0.0
H855 H 0.40681 0.87083 0.92687 0.0
H856 H 0.40526 0.79385 0.93244 0.0
H857 H 0.38401 0.76883 0.94122 0.0
H858 H 0.35959 0.8036 0.98222 0.0
H859 H 0.3809 0.82865 0.97388 0.0
C860 C 0.48174 0.82609 0.97 0.0
C861 C 0.48499 0.84064 0.98231 0.0
C862 C 0.46684 0.82684 0.95786 0.0
C863 C 0.45506 0.84216 0.9578 0.0
C864 C 0.45877 0.85693 0.96964 0.0
C865 C 0.47365 0.85625 0.98161 0.0
C866 C 0.43742 0.84183 0.94765 0.0
C867 C 0.42548 0.82706 0.951 0.0
C868 C 0.43093 0.85739 0.93786 0.0
C869 C 0.44348 0.87254 0.9323 0.0
C870 C 0.43878 0.89099 0.93574 0.0
C871 C 0.45071 0.90516 0.93059 0.0
C872 C 0.46737 0.90108 0.92195 0.0
C873 C 0.47213 0.88282 0.91841 0.0
C874 C 0.46026 0.86859 0.92352 0.0
C875 C 0.35283 0.8587 0.95306 0.0
C876 C 0.34216 0.84536 0.94407 0.0
C877 C 0.37166 0.85988 0.94958 0.0
C878 C 0.38 0.84767 0.93719 0.0
C879 C 0.36906 0.83577 0.92673 0.0
C880 C 0.35024 0.83464 0.93013 0.0
C881 C 0.39997 0.84456 0.93853 0.0
C882 C 0.41213 0.85865 0.93363 0.0
C883 C 0.40681 0.82832 0.94671 0.0
C884 C 0.3945 0.81312 0.9524 0.0
C885 C 0.39542 0.79607 0.9434 0.0
C886 C 0.38337 0.78191 0.94829 0.0
C887 C 0.37042 0.78465 0.96223 0.0
C888 C 0.36959 0.80151 0.97141 0.0
C889 C 0.38166 0.81568 0.96661 0.0
H890 H 0.36105 0.7737 0.96594 0.0
H891 H 0.47658 0.91207 0.91799 0.0
H892 H 0.50997 0.21396 0.2412 0.0
H893 H 0.50157 0.18266 0.2324 0.0
H894 H 0.44571 0.20018 0.22285 0.0
H895 H 0.45415 0.23159 0.23147 0.0
H896 H 0.44892 0.17497 0.25055 0.0
H897 H 0.46625 0.17877 0.1885 0.0
H898 H 0.48514 0.18722 0.16167 0.0
H899 H 0.52909 0.15315 0.18143 0.0
H900 H 0.51061 0.1447 0.20853 0.0
H901 H 0.47244 0.06982 0.23489 0.0
H902 H 0.45783 0.09847 0.22485 0.0
H903 H 0.4832 0.12716 0.27012 0.0
H904 H 0.49815 0.09866 0.27993 0.0
H905 H 0.4819 0.12725 0.21476 0.0
H906 H 0.45518 0.1625 0.28189 0.0
H907 H 0.43682 0.15413 0.3091 0.0
H908 H 0.41135 0.1103 0.27887 0.0
H909 H 0.42934 0.11856 0.25137 0.0
C910 C 0.49613 0.21126 0.2364 0.0
C911 C 0.48269 0.22505 0.23707 0.0
C912 C 0.49133 0.19342 0.23131 0.0
C913 C 0.47299 0.18914 0.22702 0.0
C914 C 0.45993 0.20327 0.22601 0.0
C915 C 0.4648 0.22119 0.23086 0.0
C916 C 0.46711 0.16973 0.22775 0.0
C917 C 0.45578 0.16447 0.24247 0.0
C918 C 0.47572 0.15613 0.2169 0.0
C919 C 0.48698 0.16108 0.20058 0.0
C920 C 0.47998 0.17314 0.18719 0.0
C921 C 0.49062 0.17793 0.17192 0.0
C922 C 0.5083 0.17072 0.16984 0.0
C923 C 0.51537 0.15869 0.18304 0.0
C924 C 0.50479 0.15386 0.19834 0.0
C925 C 0.47425 0.08211 0.24312 0.0
C926 C 0.48638 0.08216 0.25817 0.0
C927 C 0.46598 0.09842 0.23732 0.0
C928 C 0.46944 0.11484 0.24677 0.0
C929 C 0.48021 0.11455 0.26279 0.0
C930 C 0.48876 0.09833 0.26838 0.0
C931 C 0.46491 0.13273 0.23838 0.0
C932 C 0.47437 0.13768 0.22231 0.0
C933 C 0.45467 0.14606 0.24804 0.0
C934 C 0.44366 0.14115 0.26454 0.0
C935 C 0.44556 0.15116 0.28098 0.0
C936 C 0.43524 0.14641 0.29648 0.0
C937 C 0.42294 0.13168 0.29572 0.0
C938 C 0.42091 0.12168 0.27945 0.0
C939 C 0.4312 0.12638 0.26391 0.0
H940 H 0.41496 0.12803 0.30774 0.0
H941 H 0.51651 0.17445 0.15801 0.0
H942 H 0.06846 0.22893 0.46543 0.0
H943 H 0.09922 0.22856 0.45191 0.0
H944 H 0.11173 0.27982 0.479 0.0
H945 H 0.08092 0.28041 0.49223 0.0
H946 H 0.13294 0.27514 0.44827 0.0
H947 H 0.11552 0.24209 0.50344 0.0
H948 H 0.09657 0.22017 0.52102 0.0
H949 H 0.11249 0.17666 0.48442 0.0
H950 H 0.13137 0.19846 0.46646 0.0
H951 H 0.2152 0.24708 0.50649 0.0
H952 H 0.18262 0.24315 0.49911 0.0
H953 H 0.19491 0.24914 0.44133 0.0
H954 H 0.22741 0.25393 0.44887 0.0
H955 H 0.161 0.22204 0.48072 0.0
H956 H 0.16081 0.27411 0.42102 0.0
H957 H 0.17959 0.2998 0.40918 0.0
H958 H 0.19933 0.31088 0.46369 0.0
H959 H 0.18049 0.28544 0.47586 0.0
C960 C 0.07741 0.24061 0.46766 0.0
C961 C 0.07256 0.2545 0.48019 0.0
C962 C 0.09501 0.24035 0.45999 0.0
C963 C 0.10785 0.2539 0.4649 0.0
C964 C 0.10205 0.26916 0.47516 0.0
C965 C 0.08449 0.26944 0.4828 0.0
C966 C 0.12777 0.25023 0.46336 0.0
C967 C 0.13912 0.26333 0.45496 0.0
C968 C 0.13578 0.23512 0.47267 0.0
C969 C 0.12464 0.22192 0.48349 0.0
C970 C 0.11487 0.22787 0.49908 0.0
C971 C 0.10415 0.21547 0.50911 0.0
C972 C 0.10326 0.19703 0.5038 0.0
C973 C 0.11315 0.19096 0.48848 0.0
C974 C 0.12386 0.20332 0.47837 0.0
C975 C 0.21093 0.24711 0.49222 0.0
C976 C 0.22359 0.25091 0.47823 0.0
C977 C 0.19236 0.24487 0.48798 0.0
C978 C 0.18629 0.24621 0.46968 0.0
C979 C 0.19924 0.24844 0.45556 0.0
C980 C 0.21775 0.25106 0.45984 0.0
C981 C 0.16632 0.24707 0.4658 0.0
C982 C 0.15492 0.23346 0.4733 0.0
C983 C 0.15831 0.26217 0.45639 0.0
C984 C 0.16944 0.27772 0.44928 0.0
C985 C 0.16912 0.28207 0.43047 0.0
C986 C 0.17977 0.29659 0.42371 0.0
C987 C 0.1907 0.30692 0.43567 0.0
C988 C 0.19091 0.30283 0.45443 0.0
C989 C 0.18026 0.28836 0.46126 0.0
H990 H 0.19897 0.31811 0.43041 0.0
H991 H 0.09495 0.18745 0.51159 0.0
H992 H 0.59908 0.56911 0.32246 0.0
H993 H 0.6152 0.59724 0.33141 0.0
H994 H 0.57795 0.62915 0.29809 0.0
H995 H 0.56177 0.60108 0.28918 0.0
H996 H 0.61332 0.64492 0.3009 0.0
H997 H 0.56438 0.61888 0.33887 0.0
H998 H 0.55056 0.59352 0.35666 0.0
H999 H 0.59765 0.59254 0.39225 0.0
H1000 H 0.61189 0.61768 0.37441 0.0
H1001 H 0.57249 0.71929 0.3416 0.0
H1002 H 0.57501 0.68581 0.3425 0.0
H1003 H 0.63272 0.69035 0.35519 0.0
H1004 H 0.63023 0.72393 0.35439 0.0
H1005 H 0.59572 0.6544 0.36623 0.0
H1006 H 0.6455 0.68091 0.32195 0.0
H1007 H 0.65452 0.70729 0.3025 0.0
H1008 H 0.60045 0.70863 0.27886 0.0
H1009 H 0.59114 0.68235 0.29827 0.0
C1010 C 0.59493 0.58203 0.31634 0.0
C1011 C 0.57909 0.58307 0.30533 0.0
C1012 C 0.60409 0.59807 0.32153 0.0
C1013 C 0.59752 0.6152 0.31565 0.0
C1014 C 0.58318 0.61601 0.30278 0.0
C1015 C 0.57391 0.60002 0.29773 0.0
C1016 C 0.60275 0.63216 0.32544 0.0
C1017 C 0.61005 0.64681 0.31533 0.0
C1018 C 0.59805 0.63472 0.34419 0.0
C1019 C 0.58929 0.61998 0.3552 0.0
C1020 C 0.57182 0.61318 0.35043 0.0
C1021 C 0.56392 0.59885 0.36051 0.0
C1022 C 0.57325 0.59139 0.37555 0.0
C1023 C 0.59047 0.5983 0.38057 0.0
C1024 C 0.59847 0.61258 0.37047 0.0
C1025 C 0.58544 0.71312 0.34565 0.0
C1026 C 0.60119 0.72402 0.34782 0.0
C1027 C 0.58688 0.69404 0.34616 0.0
C1028 C 0.60409 0.68575 0.3487 0.0
C1029 C 0.61934 0.6966 0.35328 0.0
C1030 C 0.61787 0.71574 0.3529 0.0
C1031 C 0.60666 0.66694 0.34178 0.0
C1032 C 0.60026 0.6521 0.35221 0.0
C1033 C 0.61201 0.66419 0.3233 0.0
C1034 C 0.61768 0.67974 0.31148 0.0
C1035 C 0.63558 0.68685 0.31257 0.0
C1036 C 0.64073 0.70178 0.30159 0.0
C1037 C 0.62808 0.70959 0.28942 0.0
C1038 C 0.61025 0.70253 0.28824 0.0
C1039 C 0.60504 0.68764 0.29922 0.0
H1040 H 0.63209 0.72109 0.28087 0.0
H1041 H 0.56713 0.58029 0.38334 0.0
H1042 H 0.63085 0.36623 0.58843 0.0
H1043 H 0.66239 0.37547 0.5942 0.0
H1044 H 0.65075 0.42966 0.57299 0.0
H1045 H 0.61892 0.42032 0.56698 0.0
H1046 H 0.67949 0.41718 0.55701 0.0
H1047 H 0.66463 0.42426 0.6187 0.0
H1048 H 0.65011 0.41811 0.64869 0.0
H1049 H 0.68057 0.36779 0.6535 0.0
H1050 H 0.69506 0.37344 0.62343 0.0
H1051 H 0.77408 0.38366 0.60135 0.0
H1052 H 0.74867 0.40563 0.60171 0.0
H1053 H 0.72516 0.37891 0.5542 0.0
H1054 H 0.75086 0.35764 0.55328 0.0
H1055 H 0.71662 0.39557 0.60989 0.0
H1056 H 0.69558 0.40222 0.53165 0.0
H1057 H 0.71051 0.41094 0.50256 0.0
H1058 H 0.75282 0.43934 0.53234 0.0
H1059 H 0.738 0.43106 0.56165 0.0
C1060 C 0.6348 0.38029 0.58552 0.0
C1061 C 0.62243 0.39254 0.57723 0.0
C1062 C 0.65287 0.38562 0.5889 0.0
C1063 C 0.65893 0.40338 0.58428 0.0
C1064 C 0.64637 0.41593 0.57674 0.0
C1065 C 0.62825 0.41056 0.57325 0.0
C1066 C 0.67886 0.40755 0.58501 0.0
C1067 C 0.68768 0.41279 0.56866 0.0
C1068 C 0.68957 0.40288 0.60054 0.0
C1069 C 0.68099 0.39933 0.61876 0.0
C1070 C 0.66819 0.41184 0.62611 0.0
C1071 C 0.65995 0.40844 0.64313 0.0
C1072 C 0.66443 0.39258 0.653 0.0
C1073 C 0.67715 0.3801 0.64586 0.0
C1074 C 0.68543 0.38342 0.62884 0.0
C1075 C 0.76391 0.38301 0.5905 0.0
C1076 C 0.76427 0.36874 0.57745 0.0
C1077 C 0.74933 0.39553 0.59079 0.0
C1078 C 0.73494 0.39397 0.57803 0.0
C1079 C 0.73619 0.38071 0.56404 0.0
C1080 C 0.75078 0.3683 0.56367 0.0
C1081 C 0.71706 0.40326 0.58126 0.0
C1082 C 0.7086 0.40068 0.59842 0.0
C1083 C 0.70677 0.41086 0.56662 0.0
C1084 C 0.71562 0.41602 0.54892 0.0
C1085 C 0.70795 0.41049 0.53204 0.0
C1086 C 0.71644 0.41531 0.51549 0.0
C1087 C 0.7326 0.42569 0.5156 0.0
C1088 C 0.74031 0.43127 0.53227 0.0
C1089 C 0.73188 0.4265 0.54887 0.0
H1090 H 0.73915 0.4294 0.50277 0.0
H1091 H 0.65803 0.38997 0.66618 0.0
H1092 H 0.96149 0.32725 0.87534 0.0
H1093 H 0.95443 0.35876 0.88479 0.0
H1094 H 0.0074 0.37651 0.86484 0.0
H1095 H 0.01453 0.34508 0.85558 0.0
H1096 H 0.99488 0.39889 0.89256 0.0
H1097 H 0.97342 0.37192 0.83445 0.0
H1098 H 0.95632 0.34842 0.81697 0.0
H1099 H 0.90674 0.36281 0.84565 0.0
H1100 H 0.92367 0.38629 0.86344 0.0
H1101 H 0.98948 0.46397 0.81937 0.0
H1102 H 0.97714 0.43469 0.83011 0.0
H1103 H 0.96215 0.45978 0.88171 0.0
H1104 H 0.97456 0.48916 0.87098 0.0
H1105 H 0.9475 0.41695 0.84682 0.0
H1106 H 0.98354 0.43411 0.91365 0.0
H1107 H 0.00512 0.45717 0.9262 0.0
H1108 H 0.03123 0.46188 0.87346 0.0
H1109 H 0.00996 0.43873 0.86071 0.0
C1110 C 0.97198 0.33772 0.87388 0.0
C1111 C 0.98843 0.33391 0.86448 0.0
C1112 C 0.9679 0.35571 0.87922 0.0
C1113 C 0.98023 0.36998 0.87514 0.0
C1114 C 0.99767 0.3657 0.86806 0.0
C1115 C 0.00172 0.34777 0.86269 0.0
C1116 C 0.97389 0.38925 0.87405 0.0
C1117 C 0.98407 0.40288 0.88308 0.0
C1118 C 0.96008 0.39443 0.86131 0.0
C1119 C 0.94981 0.38067 0.85038 0.0
C1120 C 0.95888 0.37001 0.83704 0.0
C1121 C 0.94923 0.35669 0.8271 0.0
C1122 C 0.93046 0.35407 0.83024 0.0
C1123 C 0.92129 0.36483 0.84327 0.0
C1124 C 0.9309 0.37814 0.85329 0.0
C1125 C 0.98276 0.46341 0.83265 0.0
C1126 C 0.9832 0.47863 0.84448 0.0
C1127 C 0.97562 0.44672 0.83876 0.0
C1128 C 0.96907 0.44505 0.85683 0.0
C1129 C 0.96725 0.46083 0.86776 0.0
C1130 C 0.97429 0.4776 0.86159 0.0
C1131 C 0.96862 0.42655 0.86518 0.0
C1132 C 0.95737 0.41306 0.8573 0.0
C1133 C 0.98186 0.42144 0.87852 0.0
C1134 C 0.99507 0.43488 0.88623 0.0
C1135 C 0.99395 0.44003 0.90479 0.0
C1136 C 0.00611 0.45312 0.91192 0.0
C1137 C 0.01949 0.46104 0.90062 0.0
C1138 C 0.02083 0.45579 0.88219 0.0
C1139 C 0.00874 0.44269 0.87502 0.0
H1140 H 0.02884 0.47121 0.90615 0.0
H1141 H 0.923 0.34374 0.82257 0.0
H1142 H 0.97298 0.72038 0.10894 0.0
H1143 H 0.93989 0.72204 0.11139 0.0
H1144 H 0.93482 0.6722 0.07959 0.0
H1145 H 0.96806 0.66914 0.07899 0.0
H1146 H 0.92015 0.72933 0.08521 0.0
H1147 H 0.89237 0.65386 0.08143 0.0
H1148 H 0.89935 0.62353 0.09487 0.0
H1149 H 0.9259 0.64961 0.14068 0.0
H1150 H 0.91887 0.68009 0.12766 0.0
H1151 H 0.83701 0.73758 0.04544 0.0
H1152 H 0.86551 0.72054 0.05074 0.0
H1153 H 0.8476 0.70751 0.10574 0.0
H1154 H 0.81885 0.72408 0.1003 0.0
H1155 H 0.87216 0.68133 0.09218 0.0
H1156 H 0.8681 0.74618 0.10104 0.0
H1157 H 0.85977 0.77791 0.09248 0.0
H1158 H 0.89632 0.7753 0.04619 0.0
H1159 H 0.90464 0.74342 0.05433 0.0
C1160 C 0.96502 0.70923 0.10317 0.0
C1161 C 0.97344 0.69477 0.09343 0.0
C1162 C 0.94594 0.71036 0.10438 0.0
C1163 C 0.93475 0.69741 0.09547 0.0
C1164 C 0.94305 0.68233 0.08676 0.0
C1165 C 0.96217 0.68083 0.08607 0.0
C1166 C 0.91483 0.70117 0.09305 0.0
C1167 C 0.90976 0.71877 0.08695 0.0
C1168 C 0.90105 0.68758 0.09545 0.0
C1169 C 0.90522 0.66928 0.10346 0.0
C1170 C 0.89963 0.65313 0.09441 0.0
C1171 C 0.90361 0.63591 0.10195 0.0
C1172 C 0.91311 0.63464 0.11859 0.0
C1173 C 0.91861 0.6506 0.12775 0.0
C1174 C 0.91465 0.66786 0.12028 0.0
C1175 C 0.83884 0.73038 0.05835 0.0
C1176 C 0.82597 0.73231 0.07256 0.0
C1177 C 0.85507 0.72065 0.06137 0.0
C1178 C 0.85878 0.71319 0.07879 0.0
C1179 C 0.84498 0.7132 0.09224 0.0
C1180 C 0.82859 0.7227 0.08912 0.0
C1181 C 0.87797 0.70917 0.08406 0.0
C1182 C 0.88277 0.6917 0.09064 0.0
C1183 C 0.89151 0.72307 0.08295 0.0
C1184 C 0.88686 0.74237 0.07819 0.0
C1185 C 0.87428 0.75235 0.08898 0.0
C1186 C 0.86957 0.77036 0.08422 0.0
C1187 C 0.87748 0.7786 0.06878 0.0
C1188 C 0.89018 0.76888 0.05813 0.0
C1189 C 0.89491 0.75084 0.06281 0.0
H1190 H 0.8738 0.79254 0.0651 0.0
H1191 H 0.91619 0.6213 0.1244 0.0
H1192 H 0.71952 0.10742 0.96491 0.0
H1193 H 0.7115 0.11192 0.93272 0.0
H1194 H 0.65783 0.08858 0.9426 0.0
H1195 H 0.66592 0.08391 0.97491 0.0
H1196 H 0.67486 0.06979 0.91764 0.0
H1197 H 0.66152 0.13236 0.92454 0.0
H1198 H 0.66477 0.16424 0.93554 0.0
H1199 H 0.71603 0.16932 0.90674 0.0
H1200 H 0.71328 0.13739 0.89578 0.0
H1201 H 0.69944 0.10072 0.81604 0.0
H1202 H 0.67985 0.10362 0.8434 0.0
H1203 H 0.71732 0.06898 0.87366 0.0
H1204 H 0.73689 0.06622 0.8465 0.0
H1205 H 0.69273 0.11982 0.87496 0.0
H1206 H 0.69507 0.04517 0.90511 0.0
H1207 H 0.69118 0.01345 0.89387 0.0
H1208 H 0.65927 0.03313 0.84831 0.0
H1209 H 0.6627 0.06496 0.8594 0.0
C1210 C 0.70577 0.10393 0.96039 0.0
C1211 C 0.69343 0.09508 0.97228 0.0
C1212 C 0.70113 0.10657 0.94197 0.0
C1213 C 0.68404 0.10057 0.93523 0.0
C1214 C 0.67109 0.09327 0.94751 0.0
C1215 C 0.67575 0.09056 0.96591 0.0
C1216 C 0.6814 0.09861 0.91516 0.0
C1217 C 0.67837 0.08082 0.90826 0.0
C1218 C 0.68537 0.11311 0.90286 0.0
C1219 C 0.68716 0.13242 0.90932 0.0
C1220 C 0.67354 0.14023 0.92062 0.0
C1221 C 0.67529 0.15833 0.92685 0.0
C1222 C 0.69059 0.1688 0.92183 0.0
C1223 C 0.70417 0.16121 0.91057 0.0
C1224 C 0.70249 0.14311 0.90431 0.0
C1225 C 0.7031 0.09328 0.82841 0.0
C1226 C 0.71961 0.08328 0.82932 0.0
C1227 C 0.69199 0.09501 0.84398 0.0
C1228 C 0.6971 0.08644 0.86046 0.0
C1229 C 0.71299 0.07548 0.86098 0.0
C1230 C 0.7242 0.07397 0.84554 0.0
C1231 C 0.68766 0.0908 0.87789 0.0
C1232 C 0.68845 0.10899 0.88427 0.0
C1233 C 0.68147 0.07671 0.8897 0.0
C1234 C 0.67916 0.05751 0.88311 0.0
C1235 C 0.68707 0.04275 0.89278 0.0
C1236 C 0.68499 0.02473 0.88641 0.0
C1237 C 0.67499 0.02128 0.87038 0.0
C1238 C 0.66704 0.03583 0.8607 0.0
C1239 C 0.66907 0.05387 0.86702 0.0
H1240 H 0.6734 0.00732 0.86547 0.0
H1241 H 0.69192 0.18281 0.92668 0.0
H1242 H 0.25174 0.46921 0.06817 0.0
H1243 H 0.24305 0.45115 0.09517 0.0
H1244 H 0.27185 0.48945 0.13009 0.0
H1245 H 0.28044 0.50767 0.10312 0.0
H1246 H 0.2728 0.45171 0.14254 0.0
H1247 H 0.23089 0.49953 0.12187 0.0
H1248 H 0.21202 0.51477 0.09819 0.0
H1249 H 0.18024 0.46547 0.09142 0.0
H1250 H 0.19922 0.44982 0.11483 0.0
H1251 H 0.214 0.47299 0.22013 0.0
H1252 H 0.21673 0.47591 0.18693 0.0
H1253 H 0.22783 0.41786 0.18248 0.0
H1254 H 0.22469 0.41468 0.2158 0.0
H1255 H 0.20576 0.46043 0.15255 0.0
H1256 H 0.26971 0.41601 0.1613 0.0
H1257 H 0.28937 0.40388 0.1862 0.0
H1258 H 0.27777 0.4516 0.21898 0.0
H1259 H 0.25835 0.46411 0.19416 0.0
C1260 C 0.25687 0.47333 0.08153 0.0
C1261 C 0.26663 0.48987 0.08367 0.0
C1262 C 0.25183 0.46306 0.09691 0.0
C1263 C 0.25665 0.46914 0.11454 0.0
C1264 C 0.26804 0.48457 0.11654 0.0
C1265 C 0.27288 0.49498 0.10119 0.0
C1266 C 0.24743 0.46149 0.13088 0.0
C1267 C 0.2581 0.45324 0.14458 0.0
C1268 C 0.2283 0.46392 0.13363 0.0
C1269 C 0.2166 0.47344 0.11992 0.0
C1270 C 0.21997 0.4919 0.11523 0.0
C1271 C 0.20926 0.50062 0.10187 0.0
C1272 C 0.19497 0.49108 0.09327 0.0
C1273 C 0.19134 0.47283 0.09807 0.0
C1274 C 0.20207 0.46402 0.11137 0.0
C1275 C 0.21604 0.46064 0.21207 0.0
C1276 C 0.21959 0.44367 0.22062 0.0
C1277 C 0.21763 0.46235 0.19304 0.0
C1278 C 0.22288 0.44717 0.18239 0.0
C1279 C 0.22396 0.42976 0.19057 0.0
C1280 C 0.22227 0.428 0.20959 0.0
C1281 C 0.2311 0.45043 0.16414 0.0
C1282 C 0.22031 0.45814 0.15018 0.0
C1283 C 0.25021 0.44789 0.16129 0.0
C1284 C 0.26244 0.44085 0.17598 0.0
C1285 C 0.27146 0.42393 0.17379 0.0
C1286 C 0.28255 0.417 0.18788 0.0
C1287 C 0.28477 0.42694 0.20418 0.0
C1288 C 0.27602 0.4439 0.20637 0.0
C1289 C 0.26498 0.45091 0.19229 0.0
H1290 H 0.29329 0.42151 0.2151 0.0
H1291 H 0.18669 0.49785 0.08293 0.0
H1292 H 0.84573 0.95735 0.50875 0.0
H1293 H 0.85498 0.9383 0.48255 0.0
H1294 H 0.80873 0.95864 0.45159 0.0
H1295 H 0.79957 0.97778 0.47759 0.0
H1296 H 0.83396 0.91484 0.44716 0.0
H1297 H 0.83386 0.99025 0.42904 0.0
H1298 H 0.83811 0.02037 0.44413 0.0
H1299 H 0.87712 0.99649 0.48143 0.0
H1300 H 0.87333 0.96633 0.46633 0.0
H1301 H 0.81968 0.93165 0.35552 0.0
H1302 H 0.82396 0.92537 0.38773 0.0
H1303 H 0.87574 0.95448 0.38665 0.0
H1304 H 0.87005 0.96329 0.35495 0.0
H1305 H 0.85927 0.9674 0.41179 0.0
H1306 H 0.86917 0.90505 0.39919 0.0
H1307 H 0.86523 0.87465 0.38476 0.0
H1308 H 0.81161 0.86974 0.40892 0.0
H1309 H 0.81502 0.90024 0.42321 0.0
C1310 C 0.83699 0.95693 0.49671 0.0
C1311 C 0.82214 0.96918 0.49494 0.0
C1312 C 0.84224 0.94599 0.48181 0.0
C1313 C 0.83261 0.94727 0.46519 0.0
C1314 C 0.81626 0.95747 0.46439 0.0
C1315 C 0.81111 0.96849 0.47916 0.0
C1316 C 0.84194 0.94324 0.44771 0.0
C1317 C 0.83986 0.92606 0.43932 0.0
C1318 C 0.8503 0.9578 0.438 0.0
C1319 C 0.85324 0.97606 0.44663 0.0
C1320 C 0.84345 0.99149 0.44036 0.0
C1321 C 0.84578 0.00855 0.44892 0.0
C1322 C 0.85789 0.01035 0.46372 0.0
C1323 C 0.86775 0.99509 0.46996 0.0
C1324 C 0.86553 0.97802 0.4614 0.0
C1325 C 0.8319 0.93698 0.36211 0.0
C1326 C 0.84402 0.94877 0.35272 0.0
C1327 C 0.83469 0.93277 0.38056 0.0
C1328 C 0.85026 0.93935 0.38987 0.0
C1329 C 0.86348 0.94938 0.37992 0.0
C1330 C 0.86027 0.95431 0.36163 0.0
C1331 C 0.85077 0.9389 0.41033 0.0
C1332 C 0.85442 0.95555 0.41943 0.0
C1333 C 0.84453 0.92355 0.4207 0.0
C1334 C 0.8424 0.90501 0.41232 0.0
C1335 C 0.8565 0.89754 0.40138 0.0
C1336 C 0.85435 0.88028 0.39321 0.0
C1337 C 0.83819 0.87026 0.39594 0.0
C1338 C 0.82416 0.87748 0.40689 0.0
C1339 C 0.82621 0.89476 0.41505 0.0
H1340 H 0.83653 0.85693 0.38956 0.0
H1341 H 0.85959 0.02354 0.47039 0.0
H1342 H 0.34918 0.62035 0.58509 0.0
H1343 H 0.35693 0.63778 0.61283 0.0
H1344 H 0.39197 0.59332 0.63073 0.0
H1345 H 0.3852 0.57654 0.60279 0.0
H1346 H 0.347 0.62831 0.64446 0.0
H1347 H 0.42251 0.60297 0.66067 0.0
H1348 H 0.4522 0.60116 0.64451 0.0
H1349 H 0.43441 0.64259 0.60644 0.0
H1350 H 0.4047 0.64491 0.62254 0.0
H1351 H 0.35695 0.58309 0.72103 0.0
H1352 H 0.37172 0.59236 0.69235 0.0
H1353 H 0.37613 0.64798 0.71234 0.0
H1354 H 0.36149 0.63865 0.74128 0.0
H1355 H 0.40536 0.62473 0.67965 0.0
H1356 H 0.34687 0.65705 0.69302 0.0
H1357 H 0.31754 0.65798 0.71011 0.0
H1358 H 0.30239 0.60562 0.68747 0.0
H1359 H 0.33176 0.60428 0.67049 0.0
C1360 C 0.35898 0.61459 0.5947 0.0
C1361 C 0.36627 0.5969 0.59196 0.0
C1362 C 0.3634 0.62456 0.61054 0.0
C1363 C 0.37518 0.617 0.62386 0.0
C1364 C 0.38322 0.59976 0.62056 0.0
C1365 C 0.37897 0.58993 0.60473 0.0
C1366 C 0.37647 0.62506 0.64256 0.0
C1367 C 0.35992 0.62835 0.65191 0.0
C1368 C 0.39328 0.62536 0.65245 0.0
C1369 C 0.41131 0.62414 0.64288 0.0
C1370 C 0.42496 0.61186 0.64899 0.0
C1371 C 0.4418 0.61069 0.63979 0.0
C1372 C 0.44519 0.62175 0.62446 0.0
C1373 C 0.43176 0.63401 0.6183 0.0
C1374 C 0.4149 0.63523 0.62745 0.0
C1375 C 0.36198 0.59705 0.71966 0.0
C1376 C 0.35805 0.61022 0.73313 0.0
C1377 C 0.37049 0.60232 0.70336 0.0
C1378 C 0.37484 0.62086 0.70029 0.0
C1379 C 0.37298 0.63361 0.7146 0.0
C1380 C 0.3646 0.62827 0.73106 0.0
C1381 C 0.37597 0.62702 0.68107 0.0
C1382 C 0.39277 0.62603 0.67177 0.0
C1383 C 0.3595 0.62944 0.67107 0.0
C1384 C 0.34147 0.63057 0.68053 0.0
C1385 C 0.33726 0.64575 0.6917 0.0
C1386 C 0.32065 0.64634 0.70139 0.0
C1387 C 0.3081 0.63187 0.69987 0.0
C1388 C 0.3121 0.61683 0.6886 0.0
C1389 C 0.32871 0.61616 0.67894 0.0
H1390 H 0.2953 0.63231 0.70744 0.0
H1391 H 0.45823 0.62082 0.61735 0.0
H1392 H 0.08749 0.19569 0.54807 0.0
H1393 H 0.10119 0.17482 0.5706 0.0
H1394 H 0.04824 0.1683 0.59665 0.0
H1395 H 0.03469 0.18963 0.57472 0.0
H1396 H 0.07329 0.16972 0.62171 0.0
H1397 H 0.06607 0.13693 0.56395 0.0
H1398 H 0.07142 0.13212 0.5308 0.0
H1399 H 0.12963 0.12945 0.54029 0.0
H1400 H 0.12461 0.13445 0.57349 0.0
H1401 H 0.07946 0.06611 0.63539 0.0
H1402 H 0.08114 0.0922 0.61446 0.0
H1403 H 0.10885 0.12402 0.65627 0.0
H1404 H 0.10599 0.09806 0.67764 0.0
H1405 H 0.10322 0.11314 0.59817 0.0
H1406 H 0.09677 0.16821 0.65354 0.0
H1407 H 0.08674 0.17229 0.6857 0.0
H1408 H 0.04818 0.12802 0.67953 0.0
H1409 H 0.05803 0.12366 0.64739 0.0
C1410 C 0.07882 0.1899 0.5587 0.0
C1411 C 0.05998 0.19413 0.55952 0.0
C1412 C 0.08666 0.17796 0.57154 0.0
C1413 C 0.07569 0.16977 0.58515 0.0
C1414 C 0.057 0.17447 0.5863 0.0
C1415 C 0.04924 0.1866 0.57368 0.0
C1416 C 0.08319 0.15556 0.59767 0.0
C1417 C 0.08001 0.15742 0.61658 0.0
C1418 C 0.09197 0.13952 0.59101 0.0
C1419 C 0.09498 0.13627 0.57113 0.0
C1420 C 0.08001 0.13541 0.55894 0.0
C1421 C 0.08298 0.13265 0.54015 0.0
C1422 C 0.10086 0.13054 0.53344 0.0
C1423 C 0.1158 0.13112 0.54551 0.0
C1424 C 0.1129 0.13391 0.5643 0.0
C1425 C 0.08633 0.07852 0.63991 0.0
C1426 C 0.09251 0.08021 0.65808 0.0
C1427 C 0.08728 0.09348 0.62797 0.0
C1428 C 0.09473 0.1103 0.63389 0.0
C1429 C 0.10254 0.1114 0.65153 0.0
C1430 C 0.10109 0.09656 0.66367 0.0
C1431 C 0.09249 0.12687 0.62216 0.0
C1432 C 0.09687 0.12559 0.60339 0.0
C1433 C 0.08419 0.1432 0.62885 0.0
C1434 C 0.07833 0.14544 0.64821 0.0
C1435 C 0.08622 0.1593 0.65911 0.0
C1436 C 0.08061 0.16162 0.67734 0.0
C1437 C 0.06698 0.15029 0.68472 0.0
C1438 C 0.05888 0.13664 0.67389 0.0
C1439 C 0.0645 0.13422 0.65567 0.0
H1440 H 0.06258 0.15227 0.69878 0.0
H1441 H 0.10314 0.12842 0.51889 0.0
H1442 H 0.20197 0.87013 0.92833 0.0
H1443 H 0.17772 0.86487 0.90544 0.0
H1444 H 0.21483 0.83087 0.87402 0.0
H1445 H 0.239 0.8362 0.89676 0.0
H1446 H 0.19304 0.85166 0.85183 0.0
H1447 H 0.18741 0.81104 0.90367 0.0
H1448 H 0.18448 0.8035 0.93658 0.0
H1449 H 0.13351 0.83316 0.93915 0.0
H1450 H 0.13627 0.8411 0.90626 0.0
H1451 H 0.11954 0.7795 0.82709 0.0
H1452 H 0.14065 0.7929 0.84949 0.0
H1453 H 0.13218 0.84654 0.82563 0.0
H1454 H 0.1115 0.83321 0.80286 0.0
H1455 H 0.13867 0.81805 0.87577 0.0
H1456 H 0.17261 0.86977 0.82578 0.0
H1457 H 0.1782 0.8734 0.79251 0.0
H1458 H 0.1766 0.81479 0.78555 0.0
H1459 H 0.17125 0.81082 0.81879 0.0
C1460 C 0.20504 0.862 0.91625 0.0
C1461 C 0.22224 0.85345 0.91427 0.0
C1462 C 0.19119 0.8589 0.90329 0.0
C1463 C 0.19447 0.84731 0.88819 0.0
C1464 C 0.21204 0.83984 0.88558 0.0
C1465 C 0.22578 0.84281 0.89857 0.0
C1466 C 0.17932 0.84149 0.876 0.0
C1467 C 0.18102 0.84454 0.85705 0.0
C1468 C 0.16395 0.83172 0.88284 0.0
C1469 C 0.16216 0.82686 0.90257 0.0
C1470 C 0.17565 0.81609 0.91129 0.0
C1471 C 0.17402 0.81173 0.92993 0.0
C1472 C 0.15886 0.81791 0.93998 0.0
C1473 C 0.14527 0.82842 0.93136 0.0
C1474 C 0.14686 0.83285 0.91272 0.0
C1475 C 0.12207 0.79417 0.82666 0.0
C1476 C 0.11399 0.80527 0.81306 0.0
C1477 C 0.13407 0.80182 0.83954 0.0
C1478 C 0.13816 0.82067 0.83907 0.0
C1479 C 0.12945 0.83191 0.82604 0.0
C1480 C 0.11759 0.82426 0.81306 0.0
C1481 C 0.1523 0.82833 0.85154 0.0
C1482 C 0.15046 0.82555 0.87054 0.0
C1483 C 0.16786 0.83782 0.8447 0.0
C1484 C 0.17131 0.84004 0.82472 0.0
C1485 C 0.1735 0.85767 0.81714 0.0
C1486 C 0.17663 0.85978 0.7983 0.0
C1487 C 0.17768 0.84434 0.78692 0.0
C1488 C 0.1757 0.82675 0.79437 0.0
C1489 C 0.1726 0.82456 0.81321 0.0
H1490 H 0.18008 0.846 0.77233 0.0
H1491 H 0.15761 0.81452 0.95441 0.0
H1492 H 0.54813 0.88714 0.07481 0.0
H1493 H 0.54414 0.91011 0.09875 0.0
H1494 H 0.50285 0.9374 0.06604 0.0
H1495 H 0.50715 0.91455 0.04159 0.0
H1496 H 0.52549 0.96183 0.08178 0.0
H1497 H 0.49094 0.90982 0.1022 0.0
H1498 H 0.48567 0.8771 0.10933 0.0
H1499 H 0.52769 0.87901 0.15071 0.0
H1500 H 0.53354 0.91164 0.14354 0.0
H1501 H 0.49134 0.01012 0.16305 0.0
H1502 H 0.494 0.99149 0.13495 0.0
H1503 H 0.54292 0.96592 0.15653 0.0
H1504 H 0.54039 0.98429 0.18439 0.0
H1505 H 0.51345 0.94141 0.14574 0.0
H1506 H 0.54968 0.99231 0.12325 0.0
H1507 H 0.5557 0.02478 0.11548 0.0
H1508 H 0.50972 0.02475 0.07849 0.0
H1509 H 0.50334 0.99231 0.08614 0.0
C1510 C 0.53809 0.89793 0.07271 0.0
C1511 C 0.52772 0.89889 0.05643 0.0
C1512 C 0.53581 0.91105 0.08644 0.0
C1513 C 0.52289 0.9252 0.08435 0.0
C1514 C 0.51279 0.92648 0.06796 0.0
C1515 C 0.51521 0.91341 0.05405 0.0
C1516 C 0.52009 0.9386 0.0994 0.0
C1517 C 0.52251 0.9574 0.0957 0.0
C1518 C 0.51649 0.93275 0.11761 0.0
C1519 C 0.51278 0.91318 0.12221 0.0
C1520 C 0.49916 0.90324 0.11273 0.0
C1521 C 0.49607 0.88471 0.11678 0.0
C1522 C 0.50639 0.87597 0.13041 0.0
C1523 C 0.51975 0.88578 0.1401 0.0
C1524 C 0.52296 0.90431 0.13606 0.0
C1525 C 0.50277 0.0007 0.16162 0.0
C1526 C 0.51564 0.99869 0.17587 0.0
C1527 C 0.50432 0.99017 0.1456 0.0
C1528 C 0.51864 0.97738 0.14378 0.0
C1529 C 0.5318 0.97577 0.15773 0.0
C1530 C 0.5304 0.9864 0.17358 0.0
C1531 C 0.51912 0.9645 0.12813 0.0
C1532 C 0.51622 0.9458 0.13176 0.0
C1533 C 0.52218 0.97044 0.10991 0.0
C1534 C 0.52588 0.98998 0.10546 0.0
C1535 C 0.54073 -0.00071 0.11363 0.0
C1536 C 0.54424 0.01767 0.1092 0.0
C1537 C 0.53304 0.02684 0.09659 0.0
C1538 C 0.51835 0.01764 0.0883 0.0
C1539 C 0.5148 -0.00074 0.09265 0.0
H1540 H 0.53579 0.04106 0.09318 0.0
H1541 H 0.50403 0.86161 0.13344 0.0
H1542 H 0.35394 0.21833 0.44869 0.0
H1543 H 0.37678 0.21764 0.42383 0.0
H1544 H 0.35665 0.26977 0.40394 0.0
H1545 H 0.33375 0.27036 0.42847 0.0
H1546 H 0.3633 0.24614 0.37599 0.0
H1547 H 0.39307 0.26822 0.43024 0.0
H1548 H 0.40249 0.26654 0.46271 0.0
H1549 H 0.43512 0.21875 0.45114 0.0
H1550 H 0.42528 0.21966 0.41869 0.0
H1551 H 0.45599 0.27803 0.33987 0.0
H1552 H 0.43609 0.27276 0.36643 0.0
H1553 H 0.41543 0.22319 0.3413 0.0
H1554 H 0.43518 0.22834 0.31465 0.0
H1555 H 0.42964 0.24495 0.39204 0.0
H1556 H 0.36871 0.22484 0.34514 0.0
H1557 H 0.35849 0.22965 0.31314 0.0
H1558 H 0.38845 0.28048 0.3109 0.0
H1559 H 0.39859 0.2761 0.34293 0.0
C1560 C 0.35428 0.22949 0.43885 0.0
C1561 C 0.34224 0.24449 0.44059 0.0
C1562 C 0.36735 0.22913 0.42475 0.0
C1563 C 0.36847 0.24374 0.41217 0.0
C1564 C 0.35602 0.25838 0.41353 0.0
C1565 C 0.34308 0.25879 0.42764 0.0
C1566 C 0.38304 0.24428 0.39798 0.0
C1567 C 0.37779 0.24569 0.37949 0.0
C1568 C 0.40195 0.24419 0.40264 0.0
C1569 C 0.40824 0.24387 0.42206 0.0
C1570 C 0.40212 0.25724 0.43463 0.0
C1571 C 0.40755 0.25645 0.45304 0.0
C1572 C 0.41944 0.24259 0.45898 0.0
C1573 C 0.4259 0.22947 0.44652 0.0
C1574 C 0.42034 0.23008 0.42812 0.0
C1575 C 0.44747 0.26582 0.34012 0.0
C1576 C 0.44694 0.25376 0.325 0.0
C1577 C 0.43618 0.26279 0.35536 0.0
C1578 C 0.42414 0.24773 0.35568 0.0
C1579 C 0.42451 0.235 0.3412 0.0
C1580 C 0.43581 0.23798 0.32598 0.0
C1581 C 0.40984 0.24644 0.37008 0.0
C1582 C 0.41514 0.24504 0.38857 0.0
C1583 C 0.39094 0.24707 0.36551 0.0
C1584 C 0.38458 0.25001 0.34635 0.0
C1585 C 0.37305 0.23707 0.33783 0.0
C1586 C 0.36727 0.23972 0.31969 0.0
C1587 C 0.37287 0.25532 0.30997 0.0
C1588 C 0.38418 0.26836 0.3184 0.0
C1589 C 0.38995 0.26579 0.33655 0.0
H1590 H 0.36841 0.25734 0.29592 0.0
H1591 H 0.42364 0.24203 0.47324 0.0
H1592 H 0.53144 0.38809 0.50025 0.0
H1593 H 0.53373 0.40551 0.47143 0.0
H1594 H 0.55892 0.45054 0.50057 0.0
H1595 H 0.55627 0.43357 0.5294 0.0
H1596 H 0.52169 0.44369 0.46128 0.0
H1597 H 0.5984 0.45912 0.47431 0.0
H1598 H 0.62451 0.4454 0.49106 0.0
H1599 H 0.60076 0.39172 0.48477 0.0
H1600 H 0.57469 0.40506 0.46775 0.0
H1601 H 0.549 0.51367 0.4012 0.0
H1602 H 0.54672 0.49573 0.42975 0.0
H1603 H 0.57647 0.45127 0.40431 0.0
H1604 H 0.57934 0.46932 0.37608 0.0
H1605 H 0.58563 0.45451 0.43988 0.0
H1606 H 0.53079 0.45358 0.40404 0.0
H1607 H 0.50462 0.46695 0.38746 0.0
H1608 H 0.48343 0.48921 0.43781 0.0
H1609 H 0.50994 0.47655 0.45472 0.0
C1610 C 0.53718 0.40183 0.50054 0.0
C1611 C 0.54376 0.40945 0.51705 0.0
C1612 C 0.53844 0.41173 0.48411 0.0
C1613 C 0.54666 0.42916 0.48395 0.0
C1614 C 0.5526 0.43705 0.50049 0.0
C1615 C 0.55105 0.42734 0.51693 0.0
C1616 C 0.55036 0.43868 0.46644 0.0
C1617 C 0.53562 0.44611 0.45654 0.0
C1618 C 0.56856 0.44138 0.46019 0.0
C1619 C 0.58451 0.43313 0.46988 0.0
C1620 C 0.59882 0.44438 0.47639 0.0
C1621 C 0.6136 0.43667 0.48596 0.0
C1622 C 0.61427 0.41771 0.48902 0.0
C1623 C 0.6002 0.40641 0.48244 0.0
C1624 C 0.58541 0.41404 0.47284 0.0
C1625 C 0.5553 0.5002 0.4019 0.0
C1626 C 0.56427 0.49281 0.38651 0.0
C1627 C 0.55397 0.49001 0.4181 0.0
C1628 C 0.56106 0.47209 0.41896 0.0
C1629 C 0.57088 0.46507 0.40392 0.0
C1630 C 0.57252 0.47538 0.38783 0.0
C1631 C 0.55697 0.46017 0.43494 0.0
C1632 C 0.57166 0.45217 0.44454 0.0
C1633 C 0.53866 0.45681 0.44077 0.0
C1634 C 0.52252 0.46424 0.43066 0.0
C1635 C 0.52072 0.46155 0.41158 0.0
C1636 C 0.50577 0.46897 0.40211 0.0
C1637 C 0.49233 0.47891 0.41154 0.0
C1638 C 0.49383 0.48145 0.43051 0.0
C1639 C 0.50885 0.47418 0.44006 0.0
H1640 H 0.48076 0.48464 0.40415 0.0
H1641 H 0.6257 0.41178 0.49648 0.0
H1642 H 0.93463 0.33148 0.79145 0.0
H1643 H 0.91687 0.3399 0.7642 0.0
H1644 H 0.93216 0.28877 0.73831 0.0
H1645 H 0.95013 0.28034 0.76533 0.0
H1646 H 0.93309 0.31702 0.71414 0.0
H1647 H 0.89131 0.29358 0.7602 0.0
H1648 H 0.87687 0.2929 0.79087 0.0
H1649 H 0.85712 0.34797 0.78318 0.0
H1650 H 0.87181 0.34915 0.75263 0.0
H1651 H 0.86193 0.30132 0.65003 0.0
H1652 H 0.88456 0.30094 0.67465 0.0
H1653 H 0.86284 0.35202 0.69559 0.0
H1654 H 0.84 0.35245 0.67086 0.0
H1655 H 0.86619 0.32761 0.72221 0.0
H1656 H 0.90487 0.34968 0.67442 0.0
H1657 H 0.91965 0.35055 0.64396 0.0
H1658 H 0.94556 0.29864 0.65461 0.0
H1659 H 0.9305 0.29713 0.68496 0.0
C1660 C 0.9343 0.32207 0.77993 0.0
C1661 C 0.94362 0.30515 0.78065 0.0
C1662 C 0.92415 0.32691 0.76437 0.0
C1663 C 0.92301 0.31484 0.74935 0.0
C1664 C 0.93285 0.29827 0.74976 0.0
C1665 C 0.94306 0.29345 0.76527 0.0
C1666 C 0.91085 0.31897 0.73357 0.0
C1667 C 0.91843 0.31921 0.71583 0.0
C1668 C 0.89183 0.32232 0.73592 0.0
C1669 C 0.88284 0.32153 0.75421 0.0
C1670 C 0.88401 0.30559 0.76511 0.0
C1671 C 0.87576 0.30511 0.78246 0.0
C1672 C 0.86609 0.32037 0.78897 0.0
C1673 C 0.86464 0.33616 0.77813 0.0
C1674 C 0.87293 0.33676 0.7608 0.0
C1675 C 0.86219 0.31271 0.65959 0.0
C1676 C 0.84918 0.32698 0.65844 0.0
C1677 C 0.87516 0.31246 0.6737 0.0
C1678 C 0.87554 0.32656 0.68685 0.0
C1679 C 0.8628 0.34101 0.68557 0.0
C1680 C 0.84974 0.34122 0.67148 0.0
C1681 C 0.88835 0.32545 0.70265 0.0
C1682 C 0.88088 0.32569 0.72044 0.0
C1683 C 0.90746 0.32252 0.70031 0.0
C1684 C 0.91637 0.32321 0.68194 0.0
C1685 C 0.91352 0.33831 0.6702 0.0
C1686 C 0.92196 0.33892 0.65294 0.0
C1687 C 0.93345 0.3246 0.64732 0.0
C1688 C 0.93655 0.30964 0.65896 0.0
C1689 C 0.92806 0.30891 0.67618 0.0
H1690 H 0.94001 0.32512 0.63398 0.0
H1691 H 0.85971 0.31995 0.8024 0.0
H1692 H 0.04116 0.63396 0.05151 0.0
H1693 H 0.04055 0.61632 0.023 0.0
H1694 H 0.07019 0.65969 0.99539 0.0
H1695 H 0.07049 0.67758 0.02381 0.0
H1696 H 0.04239 0.65127 0.97599 0.0
H1697 H 0.09028 0.61604 0.00162 0.0
H1698 H 0.1083 0.59744 0.02349 0.0
H1699 H 0.06493 0.55747 0.02575 0.0
H1700 H 0.04668 0.57577 0.00378 0.0
H1701 H 0.05192 0.58862 0.89691 0.0
H1702 H 0.05928 0.60842 0.92297 0.0
H1703 H 0.01442 0.58507 0.95371 0.0
H1704 H 0.0064 0.56563 0.92762 0.0
H1705 H 0.05375 0.58439 0.96947 0.0
H1706 H 0.00764 0.62292 0.93977 0.0
H1707 H 0.99488 0.64215 0.91501 0.0
H1708 H 0.04142 0.67822 0.91863 0.0
H1709 H 0.05489 0.6588 0.94279 0.0
C1710 C 0.04777 0.63963 0.03944 0.0
C1711 C 0.05572 0.65722 0.03985 0.0
C1712 C 0.04755 0.62946 0.02315 0.0
C1713 C 0.05542 0.63662 0.00703 0.0
C1714 C 0.06399 0.6539 0.00763 0.0
C1715 C 0.06412 0.66412 0.02387 0.0
C1716 C 0.05296 0.62694 0.98923 0.0
C1717 C 0.04526 0.63671 0.97445 0.0
C1718 C 0.05663 0.60795 0.98719 0.0
C1719 C 0.06705 0.59735 0.00115 0.0
C1720 C 0.08451 0.60337 0.00691 0.0
C1721 C 0.09483 0.5928 0.0192 0.0
C1722 C 0.08778 0.57626 0.02596 0.0
C1723 C 0.07039 0.57026 0.02046 0.0
C1724 C 0.06008 0.58069 0.00803 0.0
C1725 C 0.04324 0.58796 0.90895 0.0
C1726 C 0.02857 0.57531 0.9101 0.0
C1727 C 0.04755 0.59931 0.92385 0.0
C1728 C 0.03734 0.5982 0.94012 0.0
C1729 C 0.02245 0.58605 0.9412 0.0
C1730 C 0.01797 0.57487 0.92629 0.0
C1731 C 0.04289 0.60868 0.95655 0.0
C1732 C 0.05116 0.599 0.97102 0.0
C1733 C 0.04038 0.62789 0.95801 0.0
C1734 C 0.03248 0.63912 0.94289 0.0
C1735 C 0.0154 0.63468 0.93499 0.0
C1736 C 0.008 0.64568 0.92107 0.0
C1737 C 0.0174 0.66134 0.91512 0.0
C1738 C 0.03422 0.66603 0.92309 0.0
C1739 C 0.04177 0.65499 0.93687 0.0
H1740 H 0.01162 0.66988 0.9044 0.0
H1741 H 0.09578 0.56814 0.03552 0.0
H1742 H 0.71791 0.77397 0.12805 0.0
H1743 H 0.6938 0.76818 0.15027 0.0
H1744 H 0.73349 0.74499 0.18767 0.0
H1745 H 0.75772 0.74973 0.16512 0.0
H1746 H 0.70085 0.72702 0.18974 0.0
H1747 H 0.72117 0.7914 0.1883 0.0
H1748 H 0.72606 0.82099 0.17242 0.0
H1749 H 0.66853 0.8239 0.15959 0.0
H1750 H 0.66339 0.79412 0.17494 0.0
H1751 H 0.66833 0.74509 0.27892 0.0
H1752 H 0.68399 0.74124 0.24952 0.0
H1753 H 0.64048 0.77113 0.22237 0.0
H1754 H 0.62534 0.77586 0.25194 0.0
H1755 H 0.67076 0.78418 0.2116 0.0
H1756 H 0.64832 0.72337 0.21605 0.0
H1757 H 0.64167 0.69354 0.23068 0.0
H1758 H 0.69949 0.68294 0.23606 0.0
H1759 H 0.70651 0.71286 0.22176 0.0
C1760 C 0.72167 0.76725 0.14074 0.0
C1761 C 0.7401 0.76272 0.14478 0.0
C1762 C 0.70774 0.76405 0.15354 0.0
C1763 C 0.71191 0.75659 0.17081 0.0
C1764 C 0.72998 0.75094 0.17447 0.0
C1765 C 0.74391 0.7539 0.16159 0.0
C1766 C 0.69796 0.75619 0.18566 0.0
C1767 C 0.69427 0.73949 0.1946 0.0
C1768 C 0.68883 0.77236 0.1915 0.0
C1769 C 0.69193 0.79046 0.18262 0.0
C1770 C 0.70959 0.79831 0.18199 0.0
C1771 C 0.71241 0.8151 0.17304 0.0
C1772 C 0.69762 0.82427 0.16489 0.0
C1773 C 0.67998 0.81674 0.16578 0.0
C1774 C 0.67711 0.79991 0.1746 0.0
C1775 C 0.66199 0.75062 0.26663 0.0
C1776 C 0.64573 0.76094 0.26773 0.0
C1777 C 0.67088 0.74831 0.24978 0.0
C1778 C 0.66337 0.75577 0.23362 0.0
C1779 C 0.64664 0.76537 0.23463 0.0
C1780 C 0.63798 0.76806 0.25154 0.0
C1781 C 0.67381 0.75502 0.21606 0.0
C1782 C 0.67692 0.77155 0.2066 0.0
C1783 C 0.68206 0.73862 0.20955 0.0
C1784 C 0.67794 0.72044 0.21791 0.0
C1785 C 0.65963 0.71473 0.22044 0.0
C1786 C 0.65579 0.6978 0.22868 0.0
C1787 C 0.67015 0.68636 0.23432 0.0
C1788 C 0.68838 0.69182 0.23169 0.0
C1789 C 0.6923 0.70876 0.22349 0.0
H1790 H 0.66715 0.67327 0.24071 0.0
H1791 H 0.69983 0.83724 0.15794 0.0
H1792 H 0.65243 0.10738 0.08809 0.0
H1793 H 0.62987 0.10262 0.11256 0.0
H1794 H 0.66248 0.05801 0.13406 0.0
H1795 H 0.68517 0.06281 0.10982 0.0
H1796 H 0.62644 0.04861 0.13067 0.0
H1797 H 0.66153 0.09884 0.15578 0.0
H1798 H 0.67567 0.12965 0.15564 0.0
H1799 H 0.62246 0.15437 0.14904 0.0
H1800 H 0.60803 0.12366 0.14889 0.0
H1801 H 0.58359 0.03465 0.2156 0.0
H1802 H 0.60708 0.04422 0.19368 0.0
H1803 H 0.57017 0.08501 0.17157 0.0
H1804 H 0.54647 0.07554 0.19351 0.0
H1805 H 0.6074 0.09701 0.17487 0.0
H1806 H 0.57212 0.04707 0.15051 0.0
H1807 H 0.55764 0.01647 0.15189 0.0
H1808 H 0.61077 0.99122 0.15675 0.0
H1809 H 0.62556 0.02175 0.15598 0.0
C1810 C 0.65495 0.09675 0.09819 0.0
C1811 C 0.67056 0.08543 0.09696 0.0
C1812 C 0.64202 0.09401 0.11212 0.0
C1813 C 0.64455 0.07998 0.12512 0.0
C1814 C 0.66023 0.06883 0.12408 0.0
C1815 C 0.67315 0.07157 0.11018 0.0
C1816 C 0.63063 0.07658 0.13956 0.0
C1817 C 0.62245 0.05912 0.14048 0.0
C1818 C 0.62507 0.09047 0.15199 0.0
C1819 C 0.63372 0.10894 0.15213 0.0
C1820 C 0.65286 0.11083 0.15414 0.0
C1821 C 0.66092 0.12828 0.15415 0.0
C1822 C 0.64998 0.14395 0.15228 0.0
C1823 C 0.63093 0.14221 0.15046 0.0
C1824 C 0.6228 0.12479 0.15043 0.0
C1825 C 0.58052 0.04586 0.2063 0.0
C1826 C 0.56309 0.0542 0.20613 0.0
C1827 C 0.59396 0.05128 0.19377 0.0
C1828 C 0.59021 0.06513 0.18091 0.0
C1829 C 0.57325 0.07425 0.1814 0.0
C1830 C 0.55973 0.06877 0.19388 0.0
C1831 C 0.60349 0.06902 0.16609 0.0
C1832 C 0.61143 0.08654 0.16504 0.0
C1833 C 0.60878 0.05521 0.15347 0.0
C1834 C 0.59996 0.03675 0.15338 0.0
C1835 C 0.58072 0.03502 0.15203 0.0
C1836 C 0.57245 0.01768 0.15271 0.0
C1837 C 0.58327 0.00191 0.15441 0.0
C1838 C 0.6024 0.00346 0.15544 0.0
C1839 C 0.61074 0.02078 0.15491 0.0
H1840 H 0.57683 0.9885 0.1549 0.0
H1841 H 0.65624 0.15745 0.15229 0.0
H1842 H 0.21382 0.38886 0.3415 0.0
H1843 H 0.22288 0.36954 0.36745 0.0
H1844 H 0.24665 0.4168 0.39439 0.0
H1845 H 0.23801 0.43598 0.36813 0.0
H1846 H 0.27081 0.39152 0.39279 0.0
H1847 H 0.20924 0.39251 0.41315 0.0
H1848 H 0.17544 0.39058 0.41177 0.0
H1849 H 0.17899 0.33392 0.39563 0.0
H1850 H 0.21283 0.33556 0.39662 0.0
H1851 H 0.29921 0.32774 0.46364 0.0
H1852 H 0.28465 0.35376 0.44803 0.0
H1853 H 0.2622 0.31683 0.40743 0.0
H1854 H 0.27646 0.29081 0.42298 0.0
H1855 H 0.2361 0.34079 0.42225 0.0
H1856 H 0.29832 0.34299 0.39715 0.0
H1857 H 0.33203 0.34546 0.39991 0.0
H1858 H 0.32628 0.39749 0.42721 0.0
H1859 H 0.29253 0.39523 0.42477 0.0
C1860 C 0.22044 0.39518 0.35324 0.0
C1861 C 0.22535 0.41382 0.35283 0.0
C1862 C 0.2256 0.38416 0.3681 0.0
C1863 C 0.23544 0.39171 0.38295 0.0
C1864 C 0.23916 0.41065 0.38308 0.0
C1865 C 0.23422 0.42158 0.36813 0.0
C1866 C 0.24397 0.37947 0.39687 0.0
C1867 C 0.26307 0.38073 0.39959 0.0
C1868 C 0.234 0.36527 0.40567 0.0
C1869 C 0.21362 0.36422 0.40483 0.0
C1870 C 0.20284 0.37968 0.40913 0.0
C1871 C 0.18366 0.37863 0.40846 0.0
C1872 C 0.17508 0.36215 0.40358 0.0
C1873 C 0.18566 0.34668 0.39939 0.0
C1874 C 0.20484 0.34766 0.40003 0.0
C1875 C 0.29135 0.32519 0.45128 0.0
C1876 C 0.28891 0.30719 0.44462 0.0
C1877 C 0.28302 0.34006 0.44242 0.0
C1878 C 0.27224 0.33714 0.42669 0.0
C1879 C 0.27032 0.3193 0.41968 0.0
C1880 C 0.27864 0.30447 0.42849 0.0
C1881 C 0.26282 0.35255 0.4174 0.0
C1882 C 0.24362 0.35188 0.41569 0.0
C1883 C 0.27262 0.36741 0.40969 0.0
C1884 C 0.29291 0.36883 0.411 0.0
C1885 C 0.30425 0.35489 0.40388 0.0
C1886 C 0.32336 0.35626 0.40535 0.0
C1887 C 0.3313 0.37159 0.41379 0.0
C1888 C 0.32012 0.38561 0.42072 0.0
C1889 C 0.301 0.38429 0.41929 0.0
H1890 H 0.3461 0.37263 0.41493 0.0
H1891 H 0.16023 0.36135 0.40309 0.0
H1892 H 0.87302 0.04269 0.60193 0.0
H1893 H 0.89621 0.04745 0.62559 0.0
H1894 H 0.91666 0.9925 0.61682 0.0
H1895 H 0.8931 0.98741 0.59336 0.0
H1896 H 0.9181 0.00387 0.65415 0.0
H1897 H 0.93501 0.02629 0.59312 0.0
H1898 H 0.92985 0.04508 0.56538 0.0
H1899 H 0.92914 0.09406 0.59833 0.0
H1900 H 0.93405 0.0755 0.62631 0.0
H1901 H 0.01327 0.00391 0.66926 0.0
H1902 H 0.98237 0.00255 0.65623 0.0
H1903 H 0.97369 0.05953 0.67019 0.0
H1904 H 0.00466 0.06106 0.68331 0.0
H1905 H 0.96348 0.05089 0.63438 0.0
H1906 H 0.9521 0.02961 0.69468 0.0
H1907 H 0.95769 0.01136 0.72266 0.0
H1908 H 0.94762 0.96158 0.69259 0.0
H1909 H 0.94231 0.9795 0.6643 0.0
C1910 C 0.88203 0.03138 0.60537 0.0
C1911 C 0.88136 0.01471 0.59555 0.0
C1912 C 0.89535 0.03418 0.61887 0.0
C1913 C 0.90828 0.02042 0.62273 0.0
C1914 C 0.90681 0.0033 0.61398 0.0
C1915 C 0.89348 0.00049 0.60046 0.0
C1916 C 0.92465 0.02456 0.63402 0.0
C1917 C 0.92805 0.01411 0.64986 0.0
C1918 C 0.93733 0.03833 0.62866 0.0
C1919 C 0.93469 0.0495 0.61181 0.0
C1920 C 0.93364 0.04105 0.59445 0.0
C1921 C 0.93077 0.05166 0.57869 0.0
C1922 C 0.92912 0.07075 0.58009 0.0
C1923 C 0.93039 0.07927 0.59726 0.0
C1924 C 0.93322 0.06872 0.61308 0.0
C1925 C 0.00483 0.01618 0.66952 0.0
C1926 C 0.01139 0.03258 0.67731 0.0
C1927 C 0.98714 0.01533 0.66221 0.0
C1928 C 0.97573 0.03088 0.66248 0.0
C1929 C 0.9823 0.04737 0.66997 0.0
C1930 C -4e-05 0.04819 0.67745 0.0
C1931 C 0.95718 0.02989 0.65428 0.0
C1932 C 0.95337 0.04092 0.63896 0.0
C1933 C 0.9441 0.01679 0.66025 0.0
C1934 C 0.94693 0.00592 0.6773 0.0
C1935 C 0.95119 0.01477 0.69398 0.0
C1936 C 0.9543 0.00448 0.70991 0.0
C1937 C 0.95305 0.98532 0.70939 0.0
C1938 C 0.9486 0.97642 0.69296 0.0
C1939 C 0.94552 0.98664 0.67697 0.0
H1940 H 0.95552 0.97737 0.72171 0.0
H1941 H 0.92689 0.07894 0.56787 0.0
H1942 H 0.255 0.77258 0.9405 0.0
H1943 H 0.25805 0.7436 0.92361 0.0
H1944 H 0.29411 0.77018 0.88468 0.0
H1945 H 0.29072 0.79912 0.90108 0.0
H1946 H 0.27055 0.74986 0.86722 0.0
H1947 H 0.30937 0.74193 0.92074 0.0
H1948 H 0.31611 0.74011 0.95391 0.0
H1949 H 0.27808 0.69533 0.95952 0.0
H1950 H 0.27087 0.69707 0.9264 0.0
H1951 H 0.32644 0.68186 0.82871 0.0
H1952 H 0.31722 0.70496 0.85126 0.0
H1953 H 0.26936 0.67288 0.86496 0.0
H1954 H 0.2782 0.6498 0.84217 0.0
H1955 H 0.29387 0.6928 0.89649 0.0
H1956 H 0.25587 0.70094 0.84217 0.0
H1957 H 0.25096 0.70259 0.80866 0.0
H1958 H 0.28946 0.74719 0.80495 0.0
H1959 H 0.29476 0.74564 0.83842 0.0
C1960 C 0.26349 0.77224 0.92827 0.0
C1961 C 0.27259 0.78815 0.92208 0.0
C1962 C 0.2653 0.75565 0.91871 0.0
C1963 C 0.27645 0.75467 0.90298 0.0
C1964 C 0.28538 0.7706 0.89675 0.0
C1965 C 0.28343 0.78717 0.90615 0.0
C1966 C 0.27891 0.73723 0.89271 0.0
C1967 C 0.27566 0.73743 0.8737 0.0
C1968 C 0.28512 0.7208 0.90119 0.0
C1969 C 0.28941 0.71979 0.92112 0.0
C1970 C 0.30231 0.73181 0.92907 0.0
C1971 C 0.30624 0.73077 0.94785 0.0
C1972 C 0.29751 0.71762 0.95881 0.0
C1973 C 0.28481 0.70551 0.95101 0.0
C1974 C 0.28079 0.70652 0.93223 0.0
C1975 C 0.31405 0.67959 0.83661 0.0
C1976 C 0.30298 0.66407 0.83342 0.0
C1977 C 0.30889 0.69272 0.84958 0.0
C1978 C 0.29266 0.69051 0.85971 0.0
C1979 C 0.28205 0.67463 0.85738 0.0
C1980 C 0.28716 0.66147 0.84433 0.0
C1981 C 0.28598 0.70584 0.87116 0.0
C1982 C 0.28841 0.7052 0.89025 0.0
C1983 C 0.2791 0.72195 0.86284 0.0
C1984 C 0.27583 0.72305 0.84275 0.0
C1985 C 0.26341 0.71098 0.83417 0.0
C1986 C 0.26052 0.71193 0.8152 0.0
C1987 C 0.26993 0.72495 0.80467 0.0
C1988 C 0.2822 0.7371 0.81311 0.0
C1989 C 0.28513 0.73621 0.83209 0.0
H1990 H 0.26769 0.72566 0.78998 0.0
H1991 H 0.30064 0.7168 0.97333 0.0
H1992 H 0.18509 0.47635 0.99206 0.0
H1993 H 0.15901 0.47497 0.97073 0.0
H1994 H 0.16864 0.53145 0.95538 0.0
H1995 H 0.19457 0.53286 0.97637 0.0
H1996 H 0.13314 0.52575 0.95935 0.0
H1997 H 0.1826 0.49643 0.92781 0.0
H1998 H 0.20793 0.47437 0.92326 0.0
H1999 H 0.17003 0.42937 0.92819 0.0
H2000 H 0.14448 0.45119 0.93298 0.0
H2001 H 0.08836 0.53003 0.8739 0.0
H2002 H 0.11386 0.52683 0.8954 0.0
H2003 H 0.08979 0.47716 0.91698 0.0
H2004 H 0.06389 0.48033 0.89562 0.0
H2005 H 0.13127 0.47809 0.91051 0.0
H2006 H 0.08122 0.51002 0.94056 0.0
H2007 H 0.05712 0.53381 0.94217 0.0
H2008 H 0.09806 0.57605 0.9374 0.0
H2009 H 0.1224 0.55249 0.9354 0.0
C2010 C 0.18158 0.48844 0.98413 0.0
C2011 C 0.1918 0.50472 0.98601 0.0
C2012 C 0.16672 0.48765 0.97195 0.0
C2013 C 0.162 0.50307 0.96133 0.0
C2014 C 0.17199 0.51941 0.96345 0.0
C2015 C 0.18677 0.52022 0.9756 0.0
C2016 C 0.14687 0.50218 0.94772 0.0
C2017 C 0.13281 0.51537 0.94864 0.0
C2018 C 0.14636 0.48858 0.93379 0.0
C2019 C 0.16167 0.47543 0.93097 0.0
C2020 C 0.17969 0.48183 0.92807 0.0
C2021 C 0.19408 0.46937 0.92542 0.0
C2022 C 0.1906 0.45048 0.92549 0.0
C2023 C 0.17271 0.44401 0.92817 0.0
C2024 C 0.15826 0.45641 0.93085 0.0
C2025 C 0.08856 0.51823 0.88298 0.0
C2026 C 0.07397 0.50552 0.88321 0.0
C2027 C 0.10315 0.51647 0.89526 0.0
C2028 C 0.10351 0.5019 0.90782 0.0
C2029 C 0.08964 0.48852 0.90736 0.0
C2030 C 0.07487 0.49038 0.8952 0.0
C2031 C 0.11767 0.50155 0.9223 0.0
C2032 C 0.13154 0.48824 0.92145 0.0
C2033 C 0.1182 0.51523 0.93609 0.0
C2034 C 0.10363 0.52946 0.93765 0.0
C2035 C 0.08509 0.52437 0.93969 0.0
C2036 C 0.07138 0.53782 0.9407 0.0
C2037 C 0.07606 0.55642 0.93985 0.0
C2038 C 0.09446 0.56163 0.93804 0.0
C2039 C 0.10822 0.54823 0.93697 0.0
H2040 H 0.06544 0.56678 0.94066 0.0
H2041 H 0.20176 0.44086 0.92343 0.0
H2042 H 0.83635 0.84132 0.0974 0.0
H2043 H 0.84865 0.85811 0.12385 0.0
H2044 H 0.8076 0.83335 0.15875 0.0
H2045 H 0.79522 0.81656 0.13252 0.0
H2046 H 0.8085 0.87133 0.16099 0.0
H2047 H 0.85087 0.8205 0.16291 0.0
H2048 H 0.87399 0.79929 0.15008 0.0
H2049 H 0.91023 0.84468 0.13952 0.0
H2050 H 0.88719 0.86621 0.15203 0.0
H2051 H 0.83427 0.90052 0.2475 0.0
H2052 H 0.83128 0.87839 0.22242 0.0
H2053 H 0.87023 0.90937 0.19022 0.0
H2054 H 0.87311 0.93176 0.21522 0.0
H2055 H 0.87202 0.86897 0.18589 0.0
H2056 H 0.83008 0.91982 0.18237 0.0
H2057 H 0.80759 0.9417 0.19522 0.0
H2058 H 0.77097 0.89711 0.20772 0.0
H2059 H 0.79341 0.87492 0.19524 0.0
C2060 C 0.8301 0.83927 0.11075 0.0
C2061 C 0.81475 0.82769 0.11282 0.0
C2062 C 0.83718 0.84882 0.12584 0.0
C2063 C 0.829 0.84694 0.14321 0.0
C2064 C 0.81406 0.83497 0.14543 0.0
C2065 C 0.80706 0.82535 0.13041 0.0
C2066 C 0.8351 0.85842 0.15883 0.0
C2067 C 0.82232 0.87063 0.16656 0.0
C2068 C 0.85331 0.85793 0.16565 0.0
C2069 C 0.86722 0.84499 0.15823 0.0
C2070 C 0.8637 0.82598 0.1577 0.0
C2071 C 0.87681 0.81389 0.15051 0.0
C2072 C 0.89355 0.82064 0.14394 0.0
C2073 C 0.89724 0.83948 0.14459 0.0
C2074 C 0.88417 0.85163 0.15174 0.0
C2075 C 0.84242 0.90245 0.2352 0.0
C2076 C 0.85364 0.91803 0.23317 0.0
C2077 C 0.8408 0.88975 0.22097 0.0
C2078 C 0.85037 0.89244 0.20446 0.0
C2079 C 0.86279 0.9071 0.20292 0.0
C2080 C 0.8644 0.91987 0.2172 0.0
C2081 C 0.84531 0.88151 0.18815 0.0
C2082 C 0.85823 0.86959 0.18025 0.0
C2083 C 0.82727 0.88236 0.18096 0.0
C2084 C 0.8135 0.89569 0.18803 0.0
C2085 C 0.81729 0.91467 0.18798 0.0
C2086 C 0.80455 0.92713 0.19519 0.0
C2087 C 0.78788 0.92079 0.20233 0.0
C2088 C 0.7839 0.90199 0.2022 0.0
C2089 C 0.79662 0.88947 0.19505 0.0
H2090 H 0.77804 0.93046 0.20792 0.0
H2091 H 0.90368 0.81126 0.13838 0.0
H2092 H 0.53285 0.56872 0.38487 0.0
H2093 H 0.51197 0.57921 0.40906 0.0
H2094 H 0.46719 0.55022 0.38315 0.0
H2095 H 0.48787 0.53979 0.35887 0.0
H2096 H 0.4564 0.58398 0.39697 0.0
H2097 H 0.49036 0.53039 0.41692 0.0
H2098 H 0.51863 0.51292 0.42316 0.0
H2099 H 0.53564 0.55373 0.4623 0.0
H2100 H 0.50761 0.57175 0.45589 0.0
H2101 H 0.39488 0.55965 0.46762 0.0
H2102 H 0.41624 0.5627 0.44212 0.0
H2103 H 0.45557 0.58895 0.47791 0.0
H2104 H 0.43411 0.5859 0.50368 0.0
H2105 H 0.47097 0.5616 0.45973 0.0
H2106 H 0.43427 0.61303 0.44286 0.0
H2107 H 0.40572 0.63012 0.43642 0.0
H2108 H 0.3933 0.59326 0.39202 0.0
H2109 H 0.42165 0.57578 0.39834 0.0
C2110 C 0.51851 0.56477 0.38418 0.0
C2111 C 0.51206 0.55325 0.37006 0.0
C2112 C 0.50661 0.57078 0.39802 0.0
C2113 C 0.48809 0.56533 0.39797 0.0
C2114 C 0.48143 0.55459 0.38342 0.0
C2115 C 0.49331 0.54856 0.3696 0.0
C2116 C 0.47596 0.5695 0.41379 0.0
C2117 C 0.45951 0.57908 0.41071 0.0
C2118 C 0.48029 0.56345 0.43175 0.0
C2119 C 0.49702 0.55253 0.43575 0.0
C2120 C 0.50021 0.53573 0.42674 0.0
C2121 C 0.51619 0.52571 0.43033 0.0
C2122 C 0.52896 0.5322 0.44313 0.0
C2123 C 0.52575 0.54873 0.45236 0.0
C2124 C 0.50984 0.55887 0.44874 0.0
C2125 C 0.40784 0.56653 0.47003 0.0
C2126 C 0.41278 0.57253 0.48774 0.0
C2127 C 0.42008 0.56827 0.45538 0.0
C2128 C 0.43746 0.57622 0.45804 0.0
C2129 C 0.44222 0.58279 0.47555 0.0
C2130 C 0.42998 0.58099 0.49026 0.0
C2131 C 0.45119 0.57593 0.44296 0.0
C2132 C 0.46796 0.56693 0.44613 0.0
C2133 C 0.44709 0.58249 0.4251 0.0
C2134 C 0.43006 0.59303 0.42116 0.0
C2135 C 0.42539 0.60849 0.4318 0.0
C2136 C 0.40925 0.61826 0.42815 0.0
C2137 C 0.39769 0.61277 0.41384 0.0
C2138 C 0.40227 0.59751 0.40311 0.0
C2139 C 0.41839 0.58768 0.4067 0.0
H2140 H 0.38519 0.62035 0.41104 0.0
H2141 H 0.54133 0.52444 0.44594 0.0
H2142 H 0.79916 0.26524 0.63252 0.0
H2143 H 0.79023 0.24059 0.6531 0.0
H2144 H 0.73418 0.26004 0.65264 0.0
H2145 H 0.74327 0.28556 0.63245 0.0
H2146 H 0.74502 0.25092 0.6868 0.0
H2147 H 0.74687 0.22092 0.62779 0.0
H2148 H 0.7618 0.21495 0.59793 0.0
H2149 H 0.80816 0.19104 0.62555 0.0
H2150 H 0.79353 0.19687 0.65556 0.0
H2151 H 0.71885 0.1691 0.73476 0.0
H2152 H 0.72088 0.19397 0.71225 0.0
H2153 H 0.77824 0.18154 0.70365 0.0
H2154 H 0.77611 0.15619 0.72523 0.0
H2155 H 0.76219 0.18658 0.67196 0.0
H2156 H 0.76332 0.21894 0.72986 0.0
H2157 H 0.75165 0.22794 0.7604 0.0
H2158 H 0.70233 0.24897 0.73571 0.0
H2159 H 0.71362 0.23988 0.70503 0.0
C2160 C 0.78487 0.26427 0.63663 0.0
C2161 C 0.77186 0.27727 0.63072 0.0
C2162 C 0.77978 0.25009 0.64838 0.0
C2163 C 0.76145 0.2482 0.65406 0.0
C2164 C 0.74838 0.26118 0.64829 0.0
C2165 C 0.75356 0.27568 0.63673 0.0
C2166 C 0.75628 0.23277 0.66631 0.0
C2167 C 0.74835 0.23678 0.68342 0.0
C2168 C 0.76102 0.21439 0.662 0.0
C2169 C 0.76911 0.20938 0.64393 0.0
C2170 C 0.7602 0.21428 0.62748 0.0
C2171 C 0.76862 0.21096 0.61053 0.0
C2172 C 0.78594 0.20268 0.60985 0.0
C2173 C 0.79474 0.19745 0.6261 0.0
C2174 C 0.78634 0.20066 0.64308 0.0
C2175 C 0.73188 0.17164 0.72806 0.0
C2176 C 0.74731 0.16066 0.73197 0.0
C2177 C 0.73305 0.18595 0.71528 0.0
C2178 C 0.74975 0.18972 0.70636 0.0
C2179 C 0.76521 0.1789 0.71036 0.0
C2180 C 0.76401 0.16453 0.72298 0.0
C2181 C 0.75126 0.20476 0.69268 0.0
C2182 C 0.75847 0.20064 0.67525 0.0
C2183 C 0.74601 0.22306 0.69677 0.0
C2184 C 0.73921 0.22853 0.71519 0.0
C2185 C 0.74992 0.22535 0.73097 0.0
C2186 C 0.74339 0.23049 0.74829 0.0
C2187 C 0.72623 0.23897 0.75 0.0
C2188 C 0.7156 0.24237 0.73437 0.0
C2189 C 0.72206 0.23724 0.71701 0.0
H2190 H 0.7212 0.24294 0.76342 0.0
H2191 H 0.79253 0.20033 0.59673 0.0
H2192 H 0.21579 0.57983 0.04096 0.0
H2193 H 0.19428 0.6005 0.05629 0.0
H2194 H 0.16616 0.55401 0.08005 0.0
H2195 H 0.18765 0.53312 0.06471 0.0
H2196 H 0.14239 0.57988 0.06477 0.0
H2197 H 0.19294 0.57873 0.10686 0.0
H2198 H 0.22555 0.58062 0.11588 0.0
H2199 H 0.22787 0.63651 0.09703 0.0
H2200 H 0.19532 0.63487 0.08764 0.0
H2201 H 0.08684 0.63874 0.1179 0.0
H2202 H 0.11055 0.61519 0.11349 0.0
H2203 H 0.14369 0.65415 0.08346 0.0
H2204 H 0.12004 0.67769 0.08789 0.0
H2205 H 0.16448 0.62962 0.106 0.0
H2206 H 0.11718 0.62938 0.05932 0.0
H2207 H 0.08475 0.62927 0.04972 0.0
H2208 H 0.07672 0.57712 0.07619 0.0
H2209 H 0.10919 0.57706 0.08619 0.0
C2210 C 0.20505 0.57396 0.04945 0.0
C2211 C 0.20344 0.55483 0.05164 0.0
C2212 C 0.19282 0.5858 0.05826 0.0
C2213 C 0.17878 0.57876 0.06945 0.0
C2214 C 0.17696 0.55968 0.07151 0.0
C2215 C 0.18926 0.5478 0.06276 0.0
C2216 C 0.16587 0.59144 0.07869 0.0
C2217 C 0.14715 0.59047 0.07412 0.0
C2218 C 0.17219 0.6055 0.09057 0.0
C2219 C 0.19171 0.60663 0.09644 0.0
C2220 C 0.20043 0.59139 0.10453 0.0
C2221 C 0.2189 0.59242 0.10973 0.0
C2222 C 0.22878 0.60866 0.10701 0.0
C2223 C 0.22019 0.62393 0.09913 0.0
C2224 C 0.20172 0.62297 0.09389 0.0
C2225 C 0.09943 0.64239 0.11086 0.0
C2226 C 0.1016 0.65991 0.10305 0.0
C2227 C 0.11291 0.62896 0.1083 0.0
C2228 C 0.12874 0.63295 0.09802 0.0
C2229 C 0.13156 0.65084 0.09145 0.0
C2230 C 0.11802 0.6642 0.09385 0.0
C2231 C 0.14114 0.61807 0.09197 0.0
C2232 C 0.15972 0.61872 0.09701 0.0
C2233 C 0.13477 0.60381 0.08039 0.0
C2234 C 0.11552 0.60333 0.0737 0.0
C2235 C 0.10846 0.61794 0.0632 0.0
C2236 C 0.09005 0.61795 0.05774 0.0
C2237 C 0.07859 0.6033 0.06252 0.0
C2238 C 0.08559 0.58853 0.07263 0.0
C2239 C 0.10401 0.58848 0.07816 0.0
H2240 H 0.06435 0.60329 0.0582 0.0
H2241 H 0.24309 0.60943 0.11103 0.0
H2242 H 0.69676 0.01008 0.04925 0.0
H2243 H 0.68058 0.98134 0.04276 0.0
H2244 H 0.63185 0.01189 0.02839 0.0
H2245 H 0.64782 0.04064 0.03481 0.0
H2246 H 0.62338 0.98235 0.04849 0.0
H2247 H 0.66288 0.99603 0.99685 0.0
H2248 H 0.69228 0.00159 0.98095 0.0
H2249 H 0.71108 0.94776 0.99625 0.0
H2250 H 0.68208 0.94213 0.0128 0.0
H2251 H 0.57189 0.92186 0.99511 0.0
H2252 H 0.59228 0.94753 0.00227 0.0
H2253 H 0.63414 0.90953 0.02014 0.0
H2254 H 0.61377 0.88368 0.0128 0.0
H2255 H 0.64781 0.94049 0.00045 0.0
H2256 H 0.60877 0.92618 0.05122 0.0
H2257 H 0.57928 0.91967 0.0666 0.0
H2258 H 0.55976 0.97361 0.05271 0.0
H2259 H 0.58899 0.98031 0.03684 0.0
C2260 C 0.68258 0.0107 0.04477 0.0
C2261 C 0.67366 0.02768 0.04228 0.0
C2262 C 0.67337 0.99424 0.0411 0.0
C2263 C 0.65512 0.9945 0.03486 0.0
C2264 C 0.64596 0.01138 0.03314 0.0
C2265 C 0.65513 0.02782 0.03679 0.0
C2266 C 0.64559 0.97732 0.02954 0.0
C2267 C 0.62867 0.97328 0.03789 0.0
C2268 C 0.6528 0.96519 0.01609 0.0
C2269 C 0.67039 0.96878 0.00636 0.0
C2270 C 0.67339 0.98549 0.99709 0.0
C2271 C 0.68999 0.98865 0.98793 0.0
C2272 C 0.70358 0.97508 0.98766 0.0
C2273 C 0.7006 0.95832 0.99655 0.0
C2274 C 0.68411 0.95517 0.00589 0.0
C2275 C 0.58563 0.91892 -1e-05 0.0
C2276 C 0.59123 0.90077 0.0035 0.0
C2277 C 0.59719 0.9336 0.00425 0.0
C2278 C 0.61453 0.93036 0.01203 0.0
C2279 C 0.62074 0.91226 0.01425 0.0
C2280 C 0.60911 0.89755 0.0101 0.0
C2281 C 0.62551 0.9459 0.01908 0.0
C2282 C 0.64267 0.94953 0.01114 0.0
C2283 C 0.6186 0.95762 0.03297 0.0
C2284 C 0.60104 0.95369 0.04266 0.0
C2285 C 0.59814 0.9366 0.05127 0.0
C2286 C 0.58147 0.93288 0.0601 0.0
C2287 C 0.56765 0.94621 0.06059 0.0
C2288 C 0.57047 0.96329 0.05228 0.0
C2289 C 0.58709 0.96706 0.04336 0.0
H2290 H 0.55478 0.94334 0.06744 0.0
H2291 H 0.7164 0.97753 0.98052 0.0
H2292 H 0.38961 0.29691 0.2786 0.0
H2293 H 0.36412 0.31834 0.28201 0.0
H2294 H 0.39943 0.36313 0.26544 0.0
H2295 H 0.42528 0.3416 0.26281 0.0
H2296 H 0.37988 0.37426 0.29208 0.0
H2297 H 0.36496 0.34462 0.23633 0.0
H2298 H 0.35999 0.31905 0.21465 0.0
H2299 H 0.31608 0.29857 0.24837 0.0
H2300 H 0.32095 0.32388 0.2704 0.0
H2301 H 0.29958 0.43184 0.28549 0.0
H2302 H 0.3276 0.41461 0.27897 0.0
H2303 H 0.30227 0.36534 0.3002 0.0
H2304 H 0.27398 0.38242 0.30634 0.0
H2305 H 0.318 0.35937 0.26763 0.0
H2306 H 0.33666 0.39154 0.32427 0.0
H2307 H 0.34249 0.41959 0.34245 0.0
H2308 H 0.38026 0.43876 0.30132 0.0
H2309 H 0.37458 0.41091 0.28289 0.0
C2310 C 0.39185 0.31127 0.27542 0.0
C2311 C 0.40932 0.31759 0.27021 0.0
C2312 C 0.37727 0.32354 0.27733 0.0
C2313 C 0.37969 0.34234 0.27356 0.0
C2314 C 0.39717 0.34869 0.26833 0.0
C2315 C 0.4119 0.33642 0.26677 0.0
C2316 C 0.36404 0.35528 0.27571 0.0
C2317 C 0.36643 0.37115 0.28646 0.0
C2318 C 0.34646 0.35135 0.26833 0.0
C2319 C 0.34342 0.33609 0.25509 0.0
C2320 C 0.35433 0.3346 0.23919 0.0
C2321 C 0.35152 0.32016 0.22683 0.0
C2322 C 0.33776 0.30718 0.23015 0.0
C2323 C 0.32675 0.30863 0.24582 0.0
C2324 C 0.32951 0.32304 0.25824 0.0
C2325 C 0.30003 0.41739 0.289 0.0
C2326 C 0.28456 0.40847 0.29647 0.0
C2327 C 0.31611 0.40757 0.2853 0.0
C2328 C 0.31712 0.38872 0.28928 0.0
C2329 C 0.30179 0.37988 0.29702 0.0
C2330 C 0.28564 0.38965 0.30055 0.0
C2331 C 0.33372 0.37788 0.28456 0.0
C2332 C 0.3315 0.36248 0.27316 0.0
C2333 C 0.35153 0.38262 0.29083 0.0
C2334 C 0.35506 0.39922 0.30213 0.0
C2335 C 0.34614 0.40178 0.31908 0.0
C2336 C 0.34945 0.41764 0.32945 0.0
C2337 C 0.36172 0.43098 0.32304 0.0
C2338 C 0.37076 0.42845 0.30629 0.0
C2339 C 0.36752 0.41262 0.29589 0.0
H2340 H 0.36424 0.44326 0.33106 0.0
H2341 H 0.3356 0.296 0.22056 0.0
H2342 H 0.96106 0.18411 0.52453 0.0
H2343 H 0.93705 0.16121 0.52097 0.0
H2344 H 0.96827 0.1346 0.47826 0.0
H2345 H 0.9923 0.15784 0.4812 0.0
H2346 H 0.91521 0.14804 0.49083 0.0
H2347 H 0.96647 0.08818 0.48891 0.0
H2348 H 0.99828 0.08113 0.49843 0.0
H2349 H 0.9941 0.12033 0.54237 0.0
H2350 H 0.96221 0.12739 0.53328 0.0
H2351 H 0.88988 0.04248 0.49362 0.0
H2352 H 0.91099 0.06766 0.48623 0.0
H2353 H 0.88169 0.10331 0.52349 0.0
H2354 H 0.86065 0.07841 0.53094 0.0
H2355 H 0.93393 0.0851 0.50934 0.0
H2356 H 0.88429 0.1489 0.50645 0.0
H2357 H 0.8524 0.1555 0.49714 0.0
H2358 H 0.85232 0.10794 0.46228 0.0
H2359 H 0.88439 0.10135 0.47082 0.0
C2360 C 0.96278 0.17377 0.514 0.0
C2361 C 0.97891 0.17285 0.50328 0.0
C2362 C 0.94893 0.16062 0.51203 0.0
C2363 C 0.95095 0.14616 0.49948 0.0
C2364 C 0.96654 0.14561 0.48815 0.0
C2365 C 0.98035 0.15886 0.48997 0.0
C2366 C 0.93759 0.1308 0.49953 0.0
C2367 C 0.91918 0.13428 0.49495 0.0
C2368 C 0.943 0.1128 0.50448 0.0
C2369 C 0.96207 0.10847 0.51025 0.0
C2370 C 0.97234 0.09525 0.50062 0.0
C2371 C 0.99038 0.09125 0.50595 0.0
C2372 C 0.99823 0.10033 0.52095 0.0
C2373 C 0.98804 0.11337 0.53071 0.0
C2374 C 0.96999 0.11739 0.52546 0.0
C2375 C 0.88782 0.05573 0.50009 0.0
C2376 C 0.87354 0.0584 0.51284 0.0
C2377 C 0.8999 0.07009 0.49587 0.0
C2378 C 0.89781 0.0874 0.50418 0.0
C2379 C 0.88338 0.09017 0.51667 0.0
C2380 C 0.87136 0.07586 0.52093 0.0
C2381 C 0.91134 0.10226 0.5008 0.0
C2382 C 0.92986 0.09874 0.50488 0.0
C2383 C 0.90594 0.12018 0.49533 0.0
C2384 C 0.88673 0.12439 0.48965 0.0
C2385 C 0.87753 0.13984 0.49678 0.0
C2386 C 0.8594 0.1436 0.49162 0.0
C2387 C 0.85027 0.13203 0.47932 0.0
C2388 C 0.85935 0.11681 0.47194 0.0
C2389 C 0.87752 0.11306 0.47693 0.0
H2390 H 0.83621 0.13493 0.47541 0.0
H2391 H 0.0122 0.09724 0.52503 0.0
H2392 H 0.24508 0.62627 0.77301 0.0
H2393 H 0.21733 0.64384 0.76631 0.0
H2394 H 0.24725 0.67632 0.72672 0.0
H2395 H 0.27513 0.65867 0.7332 0.0
H2396 H 0.21377 0.67996 0.77275 0.0
H2397 H 0.21639 0.69189 0.69406 0.0
H2398 H 0.22666 0.67565 0.66612 0.0
H2399 H 0.21886 0.62371 0.69306 0.0
H2400 H 0.2083 0.63962 0.72106 0.0
H2401 H 0.16363 0.75783 0.74846 0.0
H2402 H 0.18838 0.73534 0.74475 0.0
H2403 H 0.1484 0.69286 0.7342 0.0
H2404 H 0.12351 0.71533 0.73823 0.0
H2405 H 0.18474 0.69213 0.71221 0.0
H2406 H 0.15785 0.69306 0.77278 0.0
H2407 H 0.14651 0.70805 0.80092 0.0
H2408 H 0.20033 0.72984 0.81143 0.0
H2409 H 0.21192 0.71539 0.78302 0.0
C2410 C 0.24574 0.63694 0.76265 0.0
C2411 C 0.26237 0.64119 0.75375 0.0
C2412 C 0.22985 0.64699 0.75887 0.0
C2413 C 0.23025 0.66137 0.74604 0.0
C2414 C 0.24662 0.66515 0.73655 0.0
C2415 C 0.26255 0.6551 0.74033 0.0
C2416 C 0.21401 0.67342 0.74386 0.0
C2417 C 0.20733 0.68244 0.75953 0.0
C2418 C 0.20565 0.6767 0.72659 0.0
C2419 C 0.21172 0.66697 0.70972 0.0
C2420 C 0.21679 0.677 0.694 0.0
C2421 C 0.22267 0.66785 0.67815 0.0
C2422 C 0.22347 0.64866 0.67783 0.0
C2423 C 0.21831 0.63857 0.69334 0.0
C2424 C 0.2124 0.64765 0.70922 0.0
C2425 C 0.16015 0.74384 0.74476 0.0
C2426 C 0.14171 0.73823 0.74373 0.0
C2427 C 0.17427 0.73103 0.74269 0.0
C2428 C 0.17013 0.71251 0.73928 0.0
C2429 C 0.1518 0.70714 0.73674 0.0
C2430 C 0.13765 0.7199 0.73915 0.0
C2431 C 0.18467 0.69851 0.7411 0.0
C2432 C 0.19109 0.68935 0.72541 0.0
C2433 C 0.19259 0.69474 0.75842 0.0
C2434 C 0.18568 0.70342 0.77556 0.0
C2435 C 0.1672 0.70134 0.78088 0.0
C2436 C 0.16072 0.7097 0.79692 0.0
C2437 C 0.17264 0.71999 0.8079 0.0
C2438 C 0.19109 0.72192 0.80287 0.0
C2439 C 0.19762 0.71366 0.78679 0.0
H2440 H 0.16761 0.72637 0.82036 0.0
H2441 H 0.22805 0.6416 0.66556 0.0
H2442 H 0.50277 0.41619 0.55225 0.0
H2443 H 0.47655 0.43703 0.55088 0.0
H2444 H 0.45829 0.41788 0.60395 0.0
H2445 H 0.48475 0.39677 0.60536 0.0
H2446 H 0.43013 0.41984 0.57549 0.0
H2447 H 0.47591 0.45765 0.6037 0.0
H2448 H 0.50675 0.47126 0.60724 0.0
H2449 H 0.50178 0.49707 0.5544 0.0
H2450 H 0.47101 0.48339 0.55042 0.0
H2451 H 0.36236 0.49103 0.57492 0.0
H2452 H 0.38709 0.47032 0.58434 0.0
H2453 H 0.41975 0.48832 0.53818 0.0
H2454 H 0.39512 0.50917 0.5288 0.0
H2455 H 0.43994 0.48699 0.56845 0.0
H2456 H 0.39739 0.44624 0.53781 0.0
H2457 H 0.36742 0.43145 0.53207 0.0
H2458 H 0.36663 0.41087 0.58737 0.0
H2459 H 0.39662 0.42559 0.59345 0.0
C2460 C 0.49311 0.41631 0.56357 0.0
C2461 C 0.49569 0.40482 0.57887 0.0
C2462 C 0.47824 0.42831 0.56284 0.0
C2463 C 0.4656 0.42903 0.57736 0.0
C2464 C 0.46798 0.4175 0.59265 0.0
C2465 C 0.48307 0.40558 0.59349 0.0
C2466 C 0.44991 0.44185 0.57618 0.0
C2467 C 0.43215 0.43458 0.57439 0.0
C2468 C 0.45273 0.46098 0.57431 0.0
C2469 C 0.47118 0.46939 0.57672 0.0
C2470 C 0.48144 0.46612 0.59278 0.0
C2471 C 0.4989 0.47386 0.59487 0.0
C2472 C 0.50623 0.485 0.58104 0.0
C2473 C 0.49609 0.48844 0.56511 0.0
C2474 C 0.47862 0.48072 0.56293 0.0
C2475 C 0.37477 0.49046 0.56671 0.0
C2476 C 0.37674 0.5015 0.55098 0.0
C2477 C 0.38887 0.47863 0.57211 0.0
C2478 C 0.40516 0.47761 0.56183 0.0
C2479 C 0.40727 0.48887 0.54629 0.0
C2480 C 0.39319 0.50074 0.54093 0.0
C2481 C 0.42015 0.46498 0.56728 0.0
C2482 C 0.4378 0.4723 0.56989 0.0
C2483 C 0.41723 0.44588 0.5697 0.0
C2484 C 0.39916 0.43715 0.56613 0.0
C2485 C 0.39078 0.43865 0.54877 0.0
C2486 C 0.37384 0.4302 0.54543 0.0
C2487 C 0.36515 0.42019 0.55934 0.0
C2488 C 0.3734 0.41859 0.57661 0.0
C2489 C 0.39039 0.42694 0.57999 0.0
H2490 H 0.35198 0.41375 0.55675 0.0
H2491 H 0.51976 0.49097 0.58269 0.0
H2492 H 0.8176 0.13128 0.77949 0.0
H2493 H 0.84279 0.14936 0.79208 0.0
H2494 H 0.80554 0.17458 0.83078 0.0
H2495 H 0.78003 0.15676 0.81788 0.0
H2496 H 0.82701 0.19956 0.81507 0.0
H2497 H 0.83675 0.14078 0.84345 0.0
H2498 H 0.84057 0.1071 0.84359 0.0
H2499 H 0.88941 0.11215 0.81085 0.0
H2500 H 0.88569 0.14584 0.81016 0.0
H2501 H 0.90046 0.24559 0.85895 0.0
H2502 H 0.875 0.22386 0.85578 0.0
H2503 H 0.90433 0.1956 0.81272 0.0
H2504 H 0.92949 0.21725 0.81541 0.0
H2505 H 0.88594 0.17152 0.83498 0.0
H2506 H 0.87389 0.22675 0.8009 0.0
H2507 H 0.87063 0.26018 0.79664 0.0
H2508 H 0.82727 0.26136 0.83671 0.0
H2509 H 0.83044 0.22787 0.84133 0.0
C2510 C 0.81475 0.14056 0.79078 0.0
C2511 C 0.79684 0.14251 0.79778 0.0
C2512 C 0.8292 0.15084 0.79802 0.0
C2513 C 0.82612 0.16305 0.81263 0.0
C2514 C 0.80823 0.16513 0.81959 0.0
C2515 C 0.79369 0.15496 0.81221 0.0
C2516 C 0.84147 0.17418 0.82007 0.0
C2517 C 0.83972 0.19339 0.81987 0.0
C2518 C 0.85827 0.16613 0.82578 0.0
C2519 C 0.86083 0.14587 0.82662 0.0
C2520 C 0.84825 0.13472 0.83617 0.0
C2521 C 0.85039 0.11562 0.83633 0.0
C2522 C 0.86517 0.10749 0.82716 0.0
C2523 C 0.87791 0.11846 0.81787 0.0
C2524 C 0.8758 0.13757 0.8176 0.0
C2525 C 0.90158 0.2347 0.84889 0.0
C2526 C 0.91704 0.23342 0.83733 0.0
C2527 C 0.88705 0.22223 0.84718 0.0
C2528 C 0.88774 0.20825 0.83389 0.0
C2529 C 0.90356 0.20624 0.82311 0.0
C2530 C 0.91802 0.21871 0.82474 0.0
C2531 C 0.87141 0.19679 0.8299 0.0
C2532 C 0.87303 0.17759 0.83064 0.0
C2533 C 0.85457 0.20478 0.82436 0.0
C2534 C 0.85257 0.22488 0.82163 0.0
C2535 C 0.86377 0.23417 0.80892 0.0
C2536 C 0.86192 0.25313 0.80642 0.0
C2537 C 0.84881 0.26293 0.81646 0.0
C2538 C 0.83746 0.25376 0.82898 0.0
C2539 C 0.83927 0.23479 0.83153 0.0
H2540 H 0.8474 0.27762 0.8145 0.0
H2541 H 0.86679 0.0927 0.82728 0.0
H2542 H 0.66406 0.84312 0.33946 0.0
H2543 H 0.6882 0.86619 0.33584 0.0
H2544 H 0.72816 0.82319 0.32755 0.0
H2545 H 0.70396 0.80001 0.33076 0.0
H2546 H 0.74084 0.85665 0.34808 0.0
H2547 H 0.70888 0.83763 0.29161 0.0
H2548 H 0.68059 0.83277 0.27355 0.0
H2549 H 0.66635 0.8897 0.27995 0.0
H2550 H 0.69444 0.89483 0.29831 0.0
H2551 H 0.81014 0.8967 0.29533 0.0
H2552 H 0.78572 0.8767 0.30662 0.0
H2553 H 0.74614 0.92013 0.29838 0.0
H2554 H 0.77048 0.94007 0.28658 0.0
H2555 H 0.73173 0.88885 0.28856 0.0
H2556 H 0.76208 0.91045 0.34152 0.0
H2557 H 0.78831 0.91824 0.36147 0.0
H2558 H 0.80314 0.8612 0.36479 0.0
H2559 H 0.77701 0.85306 0.3447 0.0
C2560 C 0.67805 0.83857 0.33721 0.0
C2561 C 0.68207 0.81979 0.33494 0.0
C2562 C 0.69181 0.85174 0.33528 0.0
C2563 C 0.70983 0.84633 0.33115 0.0
C2564 C 0.71428 0.82757 0.33073 0.0
C2565 C 0.70046 0.81435 0.33259 0.0
C2566 C 0.72323 0.86004 0.32457 0.0
C2567 C 0.73901 0.8636 0.33502 0.0
C2568 C 0.72033 0.86959 0.30787 0.0
C2569 C 0.70368 0.86657 0.29645 0.0
C2570 C 0.69966 0.84908 0.28926 0.0
C2571 C 0.68367 0.84628 0.27896 0.0
C2572 C 0.67169 0.86092 0.27561 0.0
C2573 C 0.67566 0.87838 0.28255 0.0
C2574 C 0.69162 0.88124 0.29289 0.0
C2575 C 0.79621 0.90194 0.29576 0.0
C2576 C 0.79223 0.91998 0.29015 0.0
C2577 C 0.78229 0.89054 0.30235 0.0
C2578 C 0.76418 0.89707 0.30377 0.0
C2579 C 0.76004 0.91485 0.29751 0.0
C2580 C 0.77395 0.92621 0.29072 0.0
C2581 C 0.74969 0.88527 0.31187 0.0
C2582 C 0.73363 0.88206 0.3017 0.0
C2583 C 0.7521 0.87648 0.32909 0.0
C2584 C 0.76768 0.88116 0.34144 0.0
C2585 C 0.77099 0.89956 0.3464 0.0
C2586 C 0.78583 0.90405 0.35775 0.0
C2587 C 0.79746 0.89024 0.36429 0.0
C2588 C 0.79415 0.87189 0.35965 0.0
C2589 C 0.77929 0.86732 0.34832 0.0
H2590 H 0.80901 0.89378 0.37297 0.0
H2591 H 0.65936 0.85874 0.26758 0.0
H2592 H 0.01759 0.09699 0.69819 0.0
H2593 H 0.99707 0.12358 0.69919 0.0
H2594 H 0.03712 0.15329 0.73125 0.0
H2595 H 0.05759 0.12669 0.73062 0.0
H2596 H 0.98453 0.13458 0.73329 0.0
H2597 H 0.03238 0.19932 0.72116 0.0
H2598 H 0.0542 0.21031 0.69772 0.0
H2599 H 0.0314 0.17273 0.65835 0.0
H2600 H 0.00919 0.16171 0.68141 0.0
H2601 H 0.99026 0.19828 0.80169 0.0
H2602 H 0.99164 0.1757 0.77702 0.0
H2603 H 0.96762 0.21484 0.73946 0.0
H2604 H 0.96617 0.23764 0.76425 0.0
H2605 H -0.00068 0.20077 0.72642 0.0
H2606 H 0.94403 0.17672 0.74829 0.0
H2607 H 0.92098 0.16689 0.77108 0.0
H2608 H 0.95652 0.12322 0.78873 0.0
H2609 H 0.98002 0.13303 0.76643 0.0
C2610 C 0.02225 0.10936 0.70505 0.0
C2611 C 0.03912 0.10973 0.71455 0.0
C2612 C 0.01052 0.12454 0.70551 0.0
C2613 C 0.01565 0.14039 0.71515 0.0
C2614 C 0.03303 0.14124 0.7235 0.0
C2615 C 0.04465 0.12599 0.72329 0.0
C2616 C 0.00189 0.15449 0.71992 0.0
C2617 C 0.98746 0.14909 0.73153 0.0
C2618 C 0.0053 0.17335 0.7169 0.0
C2619 C 0.01905 0.17965 0.7031 0.0
C2620 C 0.0319 0.19345 0.70749 0.0
C2621 C 0.04436 0.19969 0.69425 0.0
C2622 C 0.04413 0.19228 0.67654 0.0
C2623 C 0.03151 0.17852 0.67206 0.0
C2624 C 0.01903 0.17221 0.68524 0.0
C2625 C 0.98493 0.20197 0.78828 0.0
C2626 C 0.97821 0.21969 0.78484 0.0
C2627 C 0.98557 0.18902 0.77422 0.0
C2628 C 0.97954 0.19356 0.75646 0.0
C2629 C 0.97217 0.21105 0.75312 0.0
C2630 C 0.97134 0.22401 0.76728 0.0
C2631 C 0.98339 0.18068 0.74124 0.0
C2632 C 0.99589 0.18631 0.72765 0.0
C2633 C 0.97811 0.16201 0.74235 0.0
C2634 C 0.96386 0.15568 0.75562 0.0
C2635 C 0.94701 0.16507 0.75709 0.0
C2636 C 0.93386 0.15952 0.76995 0.0
C2637 C 0.93733 0.1445 0.7814 0.0
C2638 C 0.95388 0.13489 0.77988 0.0
C2639 C 0.96712 0.14044 0.7671 0.0
H2640 H 0.9272 0.14032 0.79146 0.0
H2641 H 0.0538 0.19712 0.66631 0.0
H2642 H 0.10052 0.7628 0.07679 0.0
H2643 H 0.12301 0.77858 0.05752 0.0
H2644 H 0.12368 0.7325 0.02016 0.0
H2645 H 0.10145 0.71644 0.03955 0.0
H2646 H 0.15715 0.74539 0.0239 0.0
H2647 H 0.10011 0.76964 0.00868 0.0
H2648 H 0.06897 0.78219 0.01298 0.0
H2649 H 0.09163 0.83078 0.03771 0.0
H2650 H 0.12296 0.81832 0.03396 0.0
H2651 H 0.20943 0.801 0.96407 0.0
H2652 H 0.18111 0.78531 0.97305 0.0
H2653 H 0.17845 0.81818 0.02232 0.0
H2654 H 0.20655 0.83424 0.01327 0.0
H2655 H 0.14323 0.80985 0.00614 0.0
H2656 H 0.20219 0.77754 0.02188 0.0
H2657 H 0.23104 0.7637 0.01043 0.0
H2658 H 0.20014 0.72776 0.97526 0.0
H2659 H 0.17118 0.74151 0.98634 0.0
C2660 C 0.10562 0.75592 0.06461 0.0
C2661 C 0.09914 0.73844 0.05964 0.0
C2662 C 0.11837 0.765 0.05354 0.0
C2663 C 0.12469 0.75686 0.03721 0.0
C2664 C 0.11889 0.73906 0.03265 0.0
C2665 C 0.10621 0.72991 0.04377 0.0
C2666 C 0.13708 0.76721 0.02484 0.0
C2667 C 0.15397 0.75938 0.01982 0.0
C2668 C 0.1327 0.78524 0.01893 0.0
C2669 C 0.11392 0.79296 0.02119 0.0
C2670 C 0.09847 0.78293 0.0152 0.0
C2671 C 0.08078 0.79003 0.01754 0.0
C2672 C 0.07832 0.80726 0.02565 0.0
C2673 C 0.09357 0.81743 0.03144 0.0
C2674 C 0.11131 0.81035 0.02922 0.0
C2675 C 0.20263 0.80513 0.97666 0.0
C2676 C 0.2104 0.81856 0.9882 0.0
C2677 C 0.18643 0.79619 0.98171 0.0
C2678 C 0.17795 0.80038 0.9985 0.0
C2679 C 0.18487 0.81475 0.00933 0.0
C2680 C 0.20098 0.82383 0.0042 0.0
C2681 C 0.16351 0.78831 0.0061 0.0
C2682 C 0.14623 0.7958 0.01014 0.0
C2683 C 0.16717 0.76967 0.01032 0.0
C2684 C 0.18456 0.76061 0.00484 0.0
C2685 C 0.20158 0.76667 0.01173 0.0
C2686 C 0.21794 0.75891 0.00524 0.0
C2687 C 0.21738 0.74496 0.99203 0.0
C2688 C 0.20052 0.73863 0.9854 0.0
C2689 C 0.18415 0.74635 0.99182 0.0
H2690 H 0.22997 0.73892 0.98698 0.0
H2691 H 0.0646 0.81277 0.02739 0.0
H2692 H 0.57879 0.97896 0.23199 0.0
H2693 H 0.59683 0.95077 0.23096 0.0
H2694 H 0.54771 0.91948 0.21989 0.0
H2695 H 0.52943 0.94761 0.22135 0.0
H2696 H 0.56199 0.9102 0.25112 0.0
H2697 H 0.58517 0.91737 0.19121 0.0
H2698 H 0.59887 0.93322 0.16462 0.0
H2699 H 0.64906 0.94104 0.19466 0.0
H2700 H 0.63566 0.92541 0.22151 0.0
H2701 H 0.62121 0.82945 0.26121 0.0
H2702 H 0.61435 0.85428 0.2396 0.0
H2703 H 0.61615 0.89348 0.28403 0.0
H2704 H 0.62235 0.86867 0.30581 0.0
H2705 H 0.62457 0.89366 0.2295 0.0
H2706 H 0.57314 0.90908 0.28654 0.0
H2707 H 0.55993 0.89401 0.3139 0.0
H2708 H 0.56519 0.84138 0.28782 0.0
H2709 H 0.57788 0.85615 0.26005 0.0
C2710 C 0.57189 0.96615 0.22878 0.0
C2711 C 0.55264 0.96533 0.22734 0.0
C2712 C 0.58228 0.95006 0.22798 0.0
C2713 C 0.57361 0.93302 0.22551 0.0
C2714 C 0.55465 0.9325 0.22192 0.0
C2715 C 0.54421 0.94855 0.22292 0.0
C2716 C 0.58325 0.91607 0.23127 0.0
C2717 C 0.57549 0.90641 0.24602 0.0
C2718 C 0.60095 0.91117 0.22477 0.0
C2719 C 0.60928 0.92036 0.20853 0.0
C2720 C 0.59908 0.9226 0.19224 0.0
C2721 C 0.60682 0.93151 0.17707 0.0
C2722 C 0.6248 0.93819 0.17797 0.0
C2723 C 0.63512 0.93588 0.194 0.0
C2724 C 0.62746 0.92696 0.20919 0.0
C2725 C 0.62085 0.84347 0.26625 0.0
C2726 C 0.62177 0.84721 0.2852 0.0
C2727 C 0.61712 0.85764 0.25384 0.0
C2728 C 0.61448 0.87557 0.26033 0.0
C2729 C 0.61803 0.87964 0.27886 0.0
C2730 C 0.62138 0.86547 0.2913 0.0
C2731 C 0.60338 0.88858 0.2495 0.0
C2732 C 0.61086 0.89735 0.23404 0.0
C2733 C 0.58526 0.89274 0.25516 0.0
C2734 C 0.5766 0.88372 0.27129 0.0
C2735 C 0.57127 0.8943 0.28656 0.0
C2736 C 0.56388 0.88581 0.30213 0.0
C2737 C 0.56174 0.86673 0.30258 0.0
C2738 C 0.56684 0.85613 0.2874 0.0
C2739 C 0.5741 0.86456 0.27174 0.0
H2740 H 0.55612 0.86015 0.31469 0.0
H2741 H 0.63076 0.94511 0.16622 0.0
H2742 H 0.48807 0.32708 0.57452 0.0
H2743 H 0.45909 0.31438 0.56329 0.0
H2744 H 0.47877 0.31873 0.50744 0.0
H2745 H 0.50737 0.33241 0.51863 0.0
H2746 H 0.44587 0.32892 0.50748 0.0
H2747 H 0.47553 0.27621 0.5313 0.0
H2748 H 0.49233 0.25704 0.55363 0.0
H2749 H 0.447 0.26063 0.59127 0.0
H2750 H 0.43002 0.28004 0.56926 0.0
H2751 H 0.36873 0.25195 0.50534 0.0
H2752 H 0.40078 0.26126 0.50944 0.0
H2753 H 0.3835 0.31778 0.51534 0.0
H2754 H 0.35163 0.3086 0.51007 0.0
H2755 H 0.41752 0.27404 0.53635 0.0
H2756 H 0.41535 0.34766 0.50411 0.0
H2757 H 0.40077 0.36332 0.47779 0.0
H2758 H 0.3954 0.31169 0.44966 0.0
H2759 H 0.41018 0.29581 0.47572 0.0
C2760 C 0.48621 0.32523 0.55986 0.0
C2761 C 0.49992 0.33066 0.54743 0.0
C2762 C 0.4697 0.31787 0.55344 0.0
C2763 C 0.46683 0.31526 0.53451 0.0
C2764 C 0.48062 0.32061 0.52209 0.0
C2765 C 0.49696 0.32837 0.52849 0.0
C2766 C 0.44922 0.30749 0.52769 0.0
C2767 C 0.43973 0.31685 0.51373 0.0
C2768 C 0.44142 0.29139 0.53536 0.0
C2769 C 0.45156 0.2797 0.54867 0.0
C2770 C 0.4692 0.27302 0.54439 0.0
C2771 C 0.47875 0.26209 0.55698 0.0
C2772 C 0.47076 0.25765 0.57387 0.0
C2773 C 0.45318 0.2641 0.57819 0.0
C2774 C 0.44357 0.27504 0.56565 0.0
C2775 C 0.37186 0.26637 0.50737 0.0
C2776 C 0.3578 0.27958 0.50746 0.0
C2777 C 0.39015 0.27168 0.50972 0.0
C2778 C 0.39466 0.29025 0.51256 0.0
C2779 C 0.38052 0.30344 0.51269 0.0
C2780 C 0.36228 0.29818 0.50985 0.0
C2781 C 0.41395 0.29572 0.51646 0.0
C2782 C 0.42375 0.28596 0.52992 0.0
C2783 C 0.42238 0.31094 0.50772 0.0
C2784 C 0.41369 0.32051 0.49194 0.0
C2785 C 0.41113 0.33967 0.49228 0.0
C2786 C 0.40282 0.34859 0.47742 0.0
C2787 C 0.39711 0.3385 0.46209 0.0
C2788 C 0.39975 0.31949 0.46157 0.0
C2789 C 0.40806 0.31052 0.47639 0.0
H2790 H 0.39066 0.34543 0.45061 0.0
H2791 H 0.47817 0.24919 0.58361 0.0
H2792 H 0.48781 0.48336 0.34732 0.0
H2793 H 0.46875 0.45815 0.35895 0.0
H2794 H 0.51548 0.42166 0.35543 0.0
H2795 H 0.53445 0.44668 0.3444 0.0
H2796 H 0.45911 0.43082 0.34046 0.0
H2797 H 0.51789 0.3897 0.37695 0.0
H2798 H 0.53805 0.39262 0.40396 0.0
H2799 H 0.49971 0.42992 0.42894 0.0
H2800 H 0.47968 0.42787 0.40164 0.0
H2801 H 0.50272 0.35106 0.31149 0.0
H2802 H 0.49844 0.37646 0.33284 0.0
H2803 H 0.44279 0.35881 0.34337 0.0
H2804 H 0.44717 0.33279 0.32208 0.0
H2805 H 0.48566 0.37681 0.3724 0.0
H2806 H 0.42185 0.40422 0.3453 0.0
H2807 H 0.39923 0.40061 0.32026 0.0
H2808 H 0.44297 0.39066 0.28186 0.0
H2809 H 0.46582 0.39426 0.30674 0.0
C2810 C 0.49407 0.47002 0.34947 0.0
C2811 C 0.51256 0.46687 0.34471 0.0
C2812 C 0.48318 0.45566 0.35624 0.0
C2813 C 0.49066 0.438 0.3585 0.0
C2814 C 0.5094 0.43521 0.35455 0.0
C2815 C 0.52022 0.44948 0.3478 0.0
C2816 C 0.47866 0.42166 0.36091 0.0
C2817 C 0.46434 0.41918 0.34815 0.0
C2818 C 0.48464 0.40642 0.37141 0.0
C2819 C 0.49728 0.40862 0.38726 0.0
C2820 C 0.51381 0.39862 0.38816 0.0
C2821 C 0.52528 0.40022 0.40348 0.0
C2822 C 0.52021 0.41149 0.41818 0.0
C2823 C 0.50371 0.42131 0.41749 0.0
C2824 C 0.49241 0.42013 0.40197 0.0
C2825 C 0.48961 0.35248 0.31842 0.0
C2826 C 0.47523 0.34013 0.31508 0.0
C2827 C 0.48724 0.36684 0.33077 0.0
C2828 C 0.47038 0.3693 0.33979 0.0
C2829 C 0.45596 0.35691 0.33669 0.0
C2830 C 0.45845 0.34221 0.32451 0.0
C2831 C 0.46798 0.38619 0.35064 0.0
C2832 C 0.47946 0.38871 0.36589 0.0
C2833 C 0.4589 0.40147 0.34293 0.0
C2834 C 0.44545 0.39935 0.32785 0.0
C2835 C 0.4266 0.40124 0.33151 0.0
C2836 C 0.41375 0.39923 0.31735 0.0
C2837 C 0.41965 0.39541 0.29947 0.0
C2838 C 0.43842 0.39359 0.29572 0.0
C2839 C 0.45132 0.39559 0.30984 0.0
H2840 H 0.4097 0.39388 0.28852 0.0
H2841 H 0.52904 0.41261 0.4301 0.0
H2842 H 0.98556 0.20473 0.58546 0.0
H2843 H 0.95968 0.19582 0.60547 0.0
H2844 H 0.9221 0.22254 0.56809 0.0
H2845 H 0.94744 0.23125 0.54843 0.0
H2846 H 0.93698 0.2176 0.6239 0.0
H2847 H 0.8839 0.20336 0.56291 0.0
H2848 H 0.88345 0.18345 0.53559 0.0
H2849 H 0.92557 0.14948 0.55906 0.0
H2850 H 0.92599 0.16883 0.58684 0.0
H2851 H 0.88165 0.28134 0.6006 0.0
H2852 H 0.90121 0.2552 0.60748 0.0
H2853 H 0.85344 0.22196 0.61922 0.0
H2854 H 0.83357 0.24856 0.6125 0.0
H2855 H 0.8768 0.20558 0.5942 0.0
H2856 H 0.88388 0.22178 0.65422 0.0
H2857 H 0.8847 0.24133 0.68189 0.0
H2858 H 0.93374 0.26759 0.66226 0.0
H2859 H 0.9327 0.2488 0.63411 0.0
C2860 C 0.97168 0.20834 0.58146 0.0
C2861 C 0.96845 0.21874 0.56546 0.0
C2862 C 0.95696 0.20321 0.59284 0.0
C2863 C 0.93888 0.20806 0.58807 0.0
C2864 C 0.93581 0.21807 0.57184 0.0
C2865 C 0.95037 0.22332 0.56069 0.0
C2866 C 0.92314 0.20538 0.60075 0.0
C2867 C 0.92378 0.21447 0.61775 0.0
C2868 C 0.90591 0.19976 0.59362 0.0
C2869 C 0.9049 0.18758 0.57716 0.0
C2870 C 0.89285 0.19147 0.5625 0.0
C2871 C 0.89268 0.18033 0.54684 0.0
C2872 C 0.90453 0.16527 0.54558 0.0
C2873 C 0.91643 0.16119 0.56006 0.0
C2874 C 0.91663 0.17223 0.57577 0.0
C2875 C 0.8753 0.26858 0.60492 0.0
C2876 C 0.85617 0.2669 0.60591 0.0
C2877 C 0.88648 0.25367 0.60911 0.0
C2878 C 0.87879 0.23669 0.61423 0.0
C2879 C 0.85963 0.23502 0.6156 0.0
C2880 C 0.84836 0.25015 0.61171 0.0
C2881 C 0.89117 0.2206 0.61522 0.0
C2882 C 0.8899 0.20766 0.60099 0.0
C2883 C 0.9077 0.22205 0.62529 0.0
C2884 C 0.9085 0.23353 0.64219 0.0
C2885 C 0.89484 0.23174 0.65578 0.0
C2886 C 0.89526 0.24279 0.67151 0.0
C2887 C 0.9093 0.25568 0.67386 0.0
C2888 C 0.92289 0.25759 0.66045 0.0
C2889 C 0.92245 0.24669 0.64463 0.0
H2890 H 0.90961 0.26422 0.68604 0.0
H2891 H 0.90449 0.15674 0.53339 0.0
H2892 H 0.08005 0.57882 0.87058 0.0
H2893 H 0.10253 0.60374 0.87457 0.0
H2894 H 0.09789 0.61692 0.81692 0.0
H2895 H 0.07551 0.59237 0.81292 0.0
H2896 H 0.13466 0.62122 0.83183 0.0
H2897 H 0.06806 0.63728 0.84583 0.0
H2898 H 0.04083 0.63167 0.86533 0.0
H2899 H 0.07346 0.64035 0.91375 0.0
H2900 H 0.1009 0.64579 0.89449 0.0
H2901 H 0.10263 0.69213 0.78558 0.0
H2902 H 0.11474 0.6665 0.80321 0.0
H2903 H 0.12233 0.70204 0.85015 0.0
H2904 H 0.11037 0.72808 0.83216 0.0
H2905 H 0.09997 0.67386 0.85782 0.0
H2906 H 0.16051 0.67564 0.83779 0.0
H2907 H 0.18791 0.67977 0.81825 0.0
H2908 H 0.16877 0.63746 0.78186 0.0
H2909 H 0.1413 0.63298 0.80115 0.0
C2910 C 0.08413 0.58687 0.85873 0.0
C2911 C 0.0758 0.58399 0.8415 0.0
C2912 C 0.09703 0.60095 0.86102 0.0
C2913 C 0.10187 0.61209 0.84603 0.0
C2914 C 0.09446 0.60835 0.82862 0.0
C2915 C 0.08147 0.59451 0.82639 0.0
C2916 C 0.11176 0.62963 0.84849 0.0
C2917 C 0.12749 0.63283 0.83784 0.0
C2918 C 0.10297 0.64455 0.85727 0.0
C2919 C 0.08646 0.64183 0.86879 0.0
C2920 C 0.06937 0.63798 0.86064 0.0
C2921 C 0.05394 0.6348 0.87163 0.0
C2922 C 0.05543 0.63561 0.89076 0.0
C2923 C 0.07234 0.63968 0.89894 0.0
C2924 C 0.08784 0.64279 0.888 0.0
C2925 C 0.10731 0.69458 0.79951 0.0
C2926 C 0.10534 0.71191 0.80765 0.0
C2927 C 0.11453 0.67999 0.80953 0.0
C2928 C 0.11969 0.68235 0.82799 0.0
C2929 C 0.11869 0.69997 0.83587 0.0
C2930 C 0.11178 0.71476 0.82564 0.0
C2931 C 0.12184 0.66568 0.83947 0.0
C2932 C 0.10826 0.6625 0.85283 0.0
C2933 C 0.13278 0.65083 0.8333 0.0
C2934 C 0.14887 0.65387 0.82107 0.0
C2935 C 0.16209 0.66725 0.82559 0.0
C2936 C 0.17769 0.66959 0.81459 0.0
C2937 C 0.18011 0.65881 0.79889 0.0
C2938 C 0.16692 0.64572 0.79409 0.0
C2939 C 0.15138 0.64319 0.80513 0.0
H2940 H 0.1922 0.66059 0.79045 0.0
H2941 H 0.04348 0.63304 0.89922 0.0
H2942 H 0.60322 0.82141 0.07828 0.0
H2943 H 0.62853 0.83162 0.09761 0.0
H2944 H 0.6192 0.88777 0.08084 0.0
H2945 H 0.5936 0.87762 0.06147 0.0
H2946 H 0.65402 0.87697 0.07465 0.0
H2947 H 0.61848 0.88087 0.12724 0.0
H2948 H 0.59379 0.87379 0.14936 0.0
H2949 H 0.61808 0.82107 0.15993 0.0
H2950 H 0.64269 0.82765 0.13775 0.0
H2951 H 0.74205 0.84707 0.10104 0.0
H2952 H 0.71652 0.86759 0.10956 0.0
H2953 H 0.67923 0.82145 0.10796 0.0
H2954 H 0.70439 0.8012 0.0993 0.0
H2955 H 0.66918 0.84856 0.13472 0.0
H2956 H 0.68819 0.84433 0.06636 0.0
H2957 H 0.71222 0.85043 0.04311 0.0
H2958 H 0.71853 0.90538 0.06381 0.0
H2959 H 0.6946 0.89953 0.08712 0.0
C2960 C 0.60638 0.83595 0.07887 0.0
C2961 C 0.59665 0.84864 0.06814 0.0
C2962 C 0.62065 0.84185 0.09018 0.0
C2963 C 0.62554 0.86053 0.09092 0.0
C2964 C 0.61547 0.87336 0.08066 0.0
C2965 C 0.60098 0.86748 0.06949 0.0
C2966 C 0.64312 0.86559 0.09975 0.0
C2967 C 0.65729 0.87166 0.0882 0.0
C2968 C 0.64741 0.85913 0.11755 0.0
C2969 C 0.63261 0.85488 0.13098 0.0
C2970 C 0.61855 0.86774 0.13428 0.0
C2971 C 0.60453 0.86381 0.14683 0.0
C2972 C 0.6044 0.84703 0.15615 0.0
C2973 C 0.61824 0.83412 0.15286 0.0
C2974 C 0.63229 0.83798 0.14035 0.0
C2975 C 0.72844 0.84134 0.10296 0.0
C2976 C 0.72495 0.82274 0.09906 0.0
C2977 C 0.71396 0.85301 0.10796 0.0
C2978 C 0.696 0.84603 0.10933 0.0
C2979 C 0.69299 0.82711 0.1071 0.0
C2980 C 0.7073 0.8156 0.10184 0.0
C2981 C 0.67974 0.85815 0.10882 0.0
C2982 C 0.66583 0.85534 0.12189 0.0
C2983 C 0.67562 0.86792 0.09254 0.0
C2984 C 0.68973 0.87151 0.0784 0.0
C2985 C 0.69472 0.85771 0.06585 0.0
C2986 C 0.70831 0.86111 0.0527 0.0
C2987 C 0.71686 0.87829 0.05193 0.0
C2988 C 0.71187 0.8921 0.06435 0.0
C2989 C 0.69831 0.88876 0.07754 0.0
H2990 H 0.72731 0.88089 0.0417 0.0
H2991 H 0.59356 0.84404 0.16587 0.0
H2992 H 0.83625 0.99646 0.20745 0.0
H2993 H 0.82116 0.00606 0.17895 0.0
H2994 H 0.76959 0.98467 0.19885 0.0
H2995 H 0.78458 0.97472 0.22727 0.0
H2996 H 0.79575 0.98666 0.15137 0.0
H2997 H 0.74099 0.02246 0.19281 0.0
H2998 H 0.73542 0.03321 0.22453 0.0
H2999 H 0.79278 0.04577 0.23062 0.0
H3000 H 0.79861 0.03531 0.19888 0.0
H3001 H 0.73084 0.02841 0.09077 0.0
H3002 H 0.74283 0.01184 0.11736 0.0
H3003 H 0.77568 0.05896 0.13208 0.0
H3004 H 0.76372 0.07575 0.10548 0.0
H3005 H 0.75736 0.04212 0.16218 0.0
H3006 H 0.79505 0.02463 0.10905 0.0
H3007 H 0.7982 0.01225 0.07762 0.0
H3008 H 0.77313 0.96162 0.09471 0.0
H3009 H 0.76962 0.97379 0.12619 0.0
C3010 C 0.82178 0.99348 0.2056 0.0
C3011 C 0.81153 0.9851 0.21965 0.0
C3012 C 0.81324 0.99882 0.18928 0.0
C3013 C 0.79431 0.99611 0.18694 0.0
C3014 C 0.78424 0.98682 0.20048 0.0
C3015 C 0.79282 0.98122 0.21669 0.0
C3016 C 0.78477 0.00526 0.17161 0.0
C3017 C 0.78728 0.99872 0.15367 0.0
C3018 C 0.77366 0.02089 0.17477 0.0
C3019 C 0.77024 0.02798 0.19356 0.0
C3020 C 0.75237 0.02763 0.2009 0.0
C3021 C 0.74918 0.03365 0.21888 0.0
C3022 C 0.76374 0.04013 0.22959 0.0
C3023 C 0.78152 0.0407 0.22232 0.0
C3024 C 0.78478 0.03472 0.20435 0.0
C3025 C 0.74053 0.03533 0.09971 0.0
C3026 C 0.74645 0.05337 0.09596 0.0
C3027 C 0.74736 0.02581 0.11487 0.0
C3028 C 0.76023 0.03415 0.12652 0.0
C3029 C 0.76575 0.05233 0.12318 0.0
C3030 C 0.75897 0.06186 0.10796 0.0
C3031 C 0.76851 0.02371 0.14181 0.0
C3032 C 0.76572 0.02999 0.1598 0.0
C3033 C 0.77915 0.00771 0.13868 0.0
C3034 C 0.78198 0.00016 0.11994 0.0
C3035 C 0.79018 0.01087 0.10609 0.0
C3036 C 0.79201 0.0039 0.08827 0.0
C3037 C 0.78584 0.98617 0.08417 0.0
C3038 C 0.77791 0.97535 0.09791 0.0
C3039 C 0.77602 0.98226 0.11574 0.0
H3040 H 0.78724 0.98081 0.07037 0.0
H3041 H 0.76125 0.04475 0.24351 0.0
H3042 H 0.33597 0.56259 0.4567 0.0
H3043 H 0.32421 0.54827 0.42867 0.0
H3044 H 0.32993 0.49468 0.4534 0.0
H3045 H 0.34218 0.50891 0.48141 0.0
H3046 H 0.33864 0.51974 0.40479 0.0
H3047 H 0.28686 0.47321 0.44083 0.0
H3048 H 0.27077 0.47 0.47053 0.0
H3049 H 0.2734 0.52842 0.47859 0.0
H3050 H 0.28916 0.53201 0.44879 0.0
H3051 H 0.28813 0.46492 0.33982 0.0
H3052 H 0.30612 0.47416 0.3666 0.0
H3053 H 0.26531 0.51505 0.38001 0.0
H3054 H 0.24714 0.50589 0.35319 0.0
H3055 H 0.27592 0.49338 0.40992 0.0
H3056 H 0.30475 0.52733 0.35959 0.0
H3057 H 0.32165 0.53113 0.3304 0.0
H3058 H 0.36556 0.49755 0.35103 0.0
H3059 H 0.34885 0.49333 0.38023 0.0
C3060 C 0.33504 0.54773 0.45603 0.0
C3061 C 0.33982 0.53684 0.47121 0.0
C3062 C 0.3284 0.53959 0.44003 0.0
C3063 C 0.32611 0.52049 0.43913 0.0
C3064 C 0.33159 0.50947 0.45395 0.0
C3065 C 0.3386 0.5176 0.46988 0.0
C3066 C 0.31662 0.51248 0.42315 0.0
C3067 C 0.32501 0.51377 0.40587 0.0
C3068 C 0.29887 0.50473 0.42473 0.0
C3069 C 0.28939 0.50283 0.44268 0.0
C3070 C 0.28396 0.48537 0.44892 0.0
C3071 C 0.27484 0.48349 0.46574 0.0
C3072 C 0.27103 0.499 0.47641 0.0
C3073 C 0.27636 0.51642 0.47031 0.0
C3074 C 0.2854 0.51838 0.45346 0.0
C3075 C 0.28294 0.47588 0.34847 0.0
C3076 C 0.26618 0.48469 0.34444 0.0
C3077 C 0.2933 0.48117 0.3637 0.0
C3078 C 0.28706 0.49532 0.37516 0.0
C3079 C 0.27031 0.50408 0.37126 0.0
C3080 C 0.25999 0.49889 0.35594 0.0
C3081 C 0.29782 0.50088 0.39142 0.0
C3082 C 0.28967 0.49905 0.4088 0.0
C3083 C 0.31588 0.50795 0.38994 0.0
C3084 C 0.32547 0.50989 0.37205 0.0
C3085 C 0.3179 0.52056 0.35782 0.0
C3086 C 0.32748 0.52285 0.3413 0.0
C3087 C 0.34469 0.51465 0.33893 0.0
C3088 C 0.35226 0.50394 0.35294 0.0
C3089 C 0.34274 0.5016 0.36945 0.0
H3090 H 0.35224 0.51661 0.32628 0.0
H3091 H 0.26401 0.49751 0.48945 0.0
H3092 H 0.79897 0.08224 0.59129 0.0
H3093 H 0.80541 0.10465 0.6151 0.0
H3094 H 0.86363 0.0943 0.60962 0.0
H3095 H 0.85712 0.07149 0.58561 0.0
H3096 H 0.85309 0.08926 0.64357 0.0
H3097 H 0.84971 0.14315 0.60813 0.0
H3098 H 0.84002 0.16392 0.58312 0.0
H3099 H 0.78406 0.16053 0.6016 0.0
H3100 H 0.7935 0.1403 0.62709 0.0
H3101 H 0.81616 0.11588 0.72997 0.0
H3102 H 0.83611 0.12344 0.70388 0.0
H3103 H 0.7906 0.11474 0.66681 0.0
H3104 H 0.7707 0.10732 0.69262 0.0
H3105 H 0.81363 0.14357 0.65545 0.0
H3106 H 0.81916 0.07905 0.68105 0.0
H3107 H 0.82906 0.05822 0.70597 0.0
H3108 H 0.8831 0.08199 0.70469 0.0
H3109 H 0.87336 0.1032 0.68003 0.0
C3110 C 0.81316 0.08496 0.59491 0.0
C3111 C 0.8275 0.07497 0.58686 0.0
C3112 C 0.81691 0.09809 0.60828 0.0
C3113 C 0.83508 0.1015 0.61394 0.0
C3114 C 0.84955 0.0921 0.60529 0.0
C3115 C 0.8458 0.079 0.59172 0.0
C3116 C 0.83795 0.11165 0.63133 0.0
C3117 C 0.84525 0.10169 0.64615 0.0
C3118 C 0.82824 0.1281 0.63482 0.0
C3119 C 0.82235 0.1403 0.61958 0.0
C3120 C 0.83535 0.1469 0.6069 0.0
C3121 C 0.82992 0.15868 0.59272 0.0
C3122 C 0.81144 0.16356 0.59082 0.0
C3123 C 0.79838 0.15678 0.60315 0.0
C3124 C 0.8038 0.14538 0.61761 0.0
C3125 C 0.81036 0.11589 0.71625 0.0
C3126 C 0.79196 0.11064 0.71324 0.0
C3127 C 0.82175 0.12034 0.70143 0.0
C3128 C 0.81483 0.11962 0.68346 0.0
C3129 C 0.79618 0.11552 0.6806 0.0
C3130 C 0.78486 0.11101 0.69534 0.0
C3131 C 0.82705 0.11998 0.66727 0.0
C3132 C 0.8227 0.13202 0.65285 0.0
C3133 C 0.83973 0.10557 0.66416 0.0
C3134 C 0.84549 0.09282 0.67892 0.0
C3135 C 0.83311 0.07989 0.68619 0.0
C3136 C 0.83868 0.06804 0.70027 0.0
C3137 C 0.85667 0.06883 0.70695 0.0
C3138 C 0.86914 0.08145 0.69956 0.0
C3139 C 0.86359 0.09341 0.68558 0.0
H3140 H 0.86098 0.05963 0.71782 0.0
H3141 H 0.80721 0.17261 0.57982 0.0
H3142 H 0.25344 0.62137 0.83011 0.0
H3143 H 0.23188 0.62012 0.8561 0.0
H3144 H 0.24325 0.56223 0.86252 0.0
H3145 H 0.26467 0.56342 0.83685 0.0
H3146 H 0.2067 0.57088 0.8706 0.0
H3147 H 0.26991 0.59397 0.88336 0.0
H3148 H 0.29481 0.61686 0.88064 0.0
H3149 H 0.25824 0.65929 0.89928 0.0
H3150 H 0.23302 0.63665 0.9018 0.0
H3151 H 0.23973 0.52897 0.94619 0.0
H3152 H 0.22828 0.54412 0.91874 0.0
H3153 H 0.21471 0.5923 0.95062 0.0
H3154 H 0.22635 0.57712 0.97835 0.0
H3155 H 0.23708 0.60063 0.92387 0.0
H3156 H 0.17945 0.57235 0.92404 0.0
H3157 H 0.15559 0.54861 0.92797 0.0
H3158 H 0.18144 0.51525 0.88676 0.0
H3159 H 0.20542 0.53881 0.88244 0.0
C3160 C 0.25097 0.60833 0.83686 0.0
C3161 C 0.26094 0.59255 0.83181 0.0
C3162 C 0.23862 0.60762 0.8516 0.0
C3163 C 0.23605 0.5911 0.86124 0.0
C3164 C 0.24495 0.5751 0.8552 0.0
C3165 C 0.25738 0.57584 0.8407 0.0
C3166 C 0.22692 0.59063 0.87936 0.0
C3167 C 0.21302 0.57757 0.88233 0.0
C3168 C 0.23458 0.60006 0.89454 0.0
C3169 C 0.24955 0.61371 0.89249 0.0
C3170 C 0.26714 0.60822 0.88667 0.0
C3171 C 0.28131 0.62113 0.8852 0.0
C3172 C 0.2781 0.6395 0.88979 0.0
C3173 C 0.26068 0.64504 0.89572 0.0
C3174 C 0.24644 0.6322 0.89712 0.0
C3175 C 0.23406 0.54268 0.94745 0.0
C3176 C 0.23432 0.55202 0.96431 0.0
C3177 C 0.22716 0.55123 0.93177 0.0
C3178 C 0.22038 0.5693 0.93263 0.0
C3179 C 0.21969 0.5783 0.94968 0.0
C3180 C 0.22649 0.56967 0.96545 0.0
C3181 C 0.21801 0.57962 0.91525 0.0
C3182 C 0.22975 0.59465 0.91234 0.0
C3183 C 0.20839 0.57194 0.9002 0.0
C3184 C 0.19423 0.55744 0.90288 0.0
C3185 C 0.18011 0.55993 0.91585 0.0
C3186 C 0.16651 0.54652 0.9181 0.0
C3187 C 0.16698 0.53046 0.9076 0.0
C3188 C 0.18107 0.52774 0.89485 0.0
C3189 C 0.1946 0.54118 0.8924 0.0
H3190 H 0.15641 0.52014 0.90932 0.0
H3191 H 0.28914 0.64944 0.8888 0.0
H3192 H 0.84004 0.08669 0.79349 0.0
H3193 H 0.87353 0.08444 0.79073 0.0
H3194 H 0.86724 0.0418 0.74993 0.0
H3195 H 0.8338 0.0436 0.75323 0.0
H3196 H 0.89487 0.03369 0.77021 0.0
H3197 H 0.87543 0.08757 0.73915 0.0
H3198 H 0.85954 0.11724 0.73531 0.0
H3199 H 0.89418 0.1414 0.77652 0.0
H3200 H 0.91016 0.11173 0.78073 0.0
H3201 H 0.98199 0.04329 0.7271 0.0
H3202 H 0.94891 0.04531 0.73279 0.0
H3203 H 0.95915 0.07693 0.78188 0.0
H3204 H 0.9924 0.07497 0.77621 0.0
H3205 H 0.93008 0.09089 0.75811 0.0
H3206 H 0.94999 0.0342 0.78689 0.0
H3207 H 0.96516 0.0039 0.78726 0.0
H3208 H 0.92836 0.98459 0.74536 0.0
H3209 H 0.9133 0.01494 0.74435 0.0
C3210 C 0.84589 0.07671 0.78411 0.0
C3211 C 0.83442 0.06531 0.77357 0.0
C3212 C 0.86498 0.07549 0.78245 0.0
C3213 C 0.87294 0.06321 0.76983 0.0
C3214 C 0.86146 0.05139 0.75975 0.0
C3215 C 0.84237 0.05237 0.76166 0.0
C3216 C 0.89314 0.06306 0.76671 0.0
C3217 C 0.9025 0.0462 0.76738 0.0
C3218 C 0.90318 0.07939 0.7631 0.0
C3219 C 0.89391 0.09738 0.76035 0.0
C3220 C 0.87964 0.09919 0.74741 0.0
C3221 C 0.8706 0.116 0.74519 0.0
C3222 C 0.87583 0.13119 0.75572 0.0
C3223 C 0.89016 0.12961 0.7684 0.0
C3224 C 0.89923 0.11281 0.77069 0.0
C3225 C 0.9772 0.05079 0.73903 0.0
C3226 C 0.98977 0.05894 0.75127 0.0
C3227 C 0.95832 0.05186 0.7423 0.0
C3228 C 0.95164 0.06116 0.75781 0.0
C3229 C 0.96409 0.06965 0.76986 0.0
C3230 C 0.98303 0.0684 0.76671 0.0
C3231 C 0.93164 0.06155 0.76164 0.0
C3232 C 0.92237 0.07845 0.76105 0.0
C3233 C 0.92158 0.0452 0.76477 0.0
C3234 C 0.93062 0.02692 0.76543 0.0
C3235 C 0.94526 0.02357 0.77761 0.0
C3236 C 0.95384 0.00637 0.77793 0.0
C3237 C 0.94778 0.99235 0.76628 0.0
C3238 C 0.93308 0.99548 0.75433 0.0
C3239 C 0.92453 0.01268 0.75386 0.0
H3240 H 0.95443 0.97904 0.76656 0.0
H3241 H 0.86879 0.14419 0.75404 0.0
H3242 H 0.26252 0.7534 0.97761 0.0
H3243 H 0.26135 0.72082 0.98479 0.0
H3244 H 0.28883 0.73077 0.03622 0.0
H3245 H 0.2892 0.76369 0.02985 0.0
H3246 H 0.30337 0.701 0.00767 0.0
H3247 H 0.25219 0.72197 0.04405 0.0
H3248 H 0.22267 0.73718 0.05071 0.0
H3249 H 0.19556 0.7025 0.01142 0.0
H3250 H 0.22505 0.68748 0.00406 0.0
H3251 H 0.29675 0.60955 0.04221 0.0
H3252 H 0.29732 0.6431 0.03955 0.0
H3253 H 0.25195 0.64087 0.00142 0.0
H3254 H 0.25127 0.60746 0.00409 0.0
H3255 H 0.24661 0.66752 0.02526 0.0
H3256 H 0.29655 0.64819 0.98679 0.0
H3257 H 0.32536 0.63201 0.97919 0.0
H3258 H 0.35398 0.66289 0.02057 0.0
H3259 H 0.32527 0.6791 0.02857 0.0
C3260 C 0.26804 0.74895 0.99065 0.0
C3261 C 0.27578 0.76154 0.00321 0.0
C3262 C 0.2674 0.73019 0.99466 0.0
C3263 C 0.27482 0.7235 0.01108 0.0
C3264 C 0.28291 0.73578 0.0235 0.0
C3265 C 0.28319 0.75463 0.01973 0.0
C3266 C 0.27477 0.70353 0.01478 0.0
C3267 C 0.29106 0.69367 0.01183 0.0
C3268 C 0.25852 0.69404 0.01961 0.0
C3269 C 0.24094 0.70377 0.0233 0.0
C3270 C 0.24003 0.71783 0.03654 0.0
C3271 C 0.22326 0.72635 0.04054 0.0
C3272 C 0.20724 0.72077 0.03154 0.0
C3273 C 0.20797 0.70676 0.01843 0.0
C3274 C 0.22473 0.6983 0.01428 0.0
C3275 C 0.28697 0.61622 0.03319 0.0
C3276 C 0.27397 0.60581 0.02339 0.0
C3277 C 0.28731 0.63539 0.03168 0.0
C3278 C 0.27479 0.64452 0.02014 0.0
C3279 C 0.2617 0.63416 0.01046 0.0
C3280 C 0.26129 0.61503 0.01206 0.0
C3281 C 0.27523 0.66485 0.01811 0.0
C3282 C 0.25899 0.67481 0.02124 0.0
C3283 C 0.29146 0.67442 0.01319 0.0
C3284 C 0.30873 0.6647 0.00842 0.0
C3285 C 0.30896 0.65142 0.99437 0.0
C3286 C 0.32527 0.64226 0.98997 0.0
C3287 C 0.34148 0.64637 -0.00057 0.0
C3288 C 0.34141 0.65969 0.01328 0.0
C3289 C 0.32513 0.66887 0.01774 0.0
H3290 H 0.3541 0.63928 0.996 0.0
H3291 H 0.19427 0.72737 0.03466 0.0
H3292 H 0.75443 0.02708 0.2741 0.0
H3293 H 0.72093 0.03037 0.27405 0.0
H3294 H 0.71563 0.9761 0.29755 0.0
H3295 H 0.7491 0.9725 0.29652 0.0
H3296 H 0.69048 0.9793 0.27425 0.0
H3297 H 0.70985 0.01835 0.32309 0.0
H3298 H 0.72754 0.04289 0.3384 0.0
H3299 H 0.70459 0.08286 0.30154 0.0
H3300 H 0.68694 0.05852 0.28585 0.0
H3301 H 0.59635 0.99388 0.30032 0.0
H3302 H 0.6298 0.9904 0.30329 0.0
H3303 H 0.63787 0.03504 0.26514 0.0
H3304 H 0.60448 0.03845 0.26204 0.0
H3305 H 0.66088 0.03606 0.29783 0.0
H3306 H 0.64283 0.99431 0.24849 0.0
H3307 H 0.62408 0.96905 0.23595 0.0
H3308 H 0.64365 0.93299 0.2784 0.0
H3309 H 0.66258 0.95813 0.29118 0.0
C3310 C 0.74604 0.01593 0.27929 0.0
C3311 C 0.75427 -0.00041 0.28541 0.0
C3312 C 0.7269 0.01782 0.27938 0.0
C3313 C 0.71562 0.00365 0.28621 0.0
C3314 C 0.72392 0.98726 0.29224 0.0
C3315 C 0.74304 0.98521 0.29169 0.0
C3316 C 0.6952 0.00579 0.2868 0.0
C3317 C 0.6841 0.99162 0.2797 0.0
C3318 C 0.68663 0.02187 0.29378 0.0
C3319 C 0.6972 0.03657 0.30319 0.0
C3320 C 0.70867 0.03235 0.31817 0.0
C3321 C 0.71868 0.04623 0.32692 0.0
C3322 C 0.71722 0.06442 0.32091 0.0
C3323 C 0.70572 0.06877 0.30616 0.0
C3324 C 0.69569 0.05494 0.29735 0.0
C3325 C 0.60527 0.0031 0.2928 0.0
C3326 C 0.59785 0.01643 0.28095 0.0
C3327 C 0.62435 0.00103 0.2944 0.0
C3328 C 0.63628 0.01241 0.28435 0.0
C3329 C 0.62889 0.02612 0.273 0.0
C3330 C 0.60986 0.028 0.27118 0.0
C3331 C 0.65648 0.00971 0.28518 0.0
C3332 C 0.66744 0.02375 0.29254 0.0
C3333 C 0.66489 0.99337 0.27886 0.0
C3334 C 0.65395 0.97813 0.27089 0.0
C3335 C 0.64307 0.98102 0.25519 0.0
C3336 C 0.63241 0.96671 0.24803 0.0
C3337 C 0.63253 0.94945 0.25648 0.0
C3338 C 0.64352 0.94639 0.27193 0.0
C3339 C 0.65426 0.96064 0.27909 0.0
H3340 H 0.62412 0.93844 0.25107 0.0
H3341 H 0.72498 0.07514 0.32771 0.0
H3342 H 0.28739 0.49823 0.55283 0.0
H3343 H 0.27943 0.46558 0.5501 0.0
H3344 H 0.30152 0.4647 0.49509 0.0
H3345 H 0.30916 0.49731 0.49765 0.0
H3346 H 0.27196 0.44195 0.49782 0.0
H3347 H 0.32812 0.45295 0.52852 0.0
H3348 H 0.34911 0.46663 0.55112 0.0
H3349 H 0.31905 0.4411 0.59505 0.0
H3350 H 0.29749 0.42756 0.57259 0.0
H3351 H 0.29823 0.34816 0.49098 0.0
H3352 H 0.29775 0.3815 0.49214 0.0
H3353 H 0.27675 0.37946 0.54754 0.0
H3354 H 0.27806 0.34592 0.54687 0.0
H3355 H 0.30395 0.40387 0.54452 0.0
H3356 H 0.24929 0.38967 0.50886 0.0
H3357 H 0.23316 0.37488 0.48296 0.0
H3358 H 0.26602 0.40541 0.44462 0.0
H3359 H 0.28262 0.42014 0.47028 0.0
C3360 C 0.28999 0.49122 0.53997 0.0
C3361 C 0.2991 0.50025 0.52554 0.0
C3362 C 0.28556 0.47254 0.53845 0.0
C3363 C 0.29014 0.46264 0.52249 0.0
C3364 C 0.2979 0.47202 0.50755 0.0
C3365 C 0.30239 0.49061 0.50909 0.0
C3366 C 0.28888 0.44225 0.5221 0.0
C3367 C 0.27891 0.43359 0.50802 0.0
C3368 C 0.2982 0.43135 0.53526 0.0
C3369 C 0.31098 0.43952 0.54889 0.0
C3370 C 0.32579 0.45048 0.54302 0.0
C3371 C 0.33779 0.45824 0.55582 0.0
C3372 C 0.33536 0.45488 0.57457 0.0
C3373 C 0.32087 0.44376 0.58053 0.0
C3374 C 0.30871 0.43607 0.56776 0.0
C3375 C 0.29367 0.35465 0.50353 0.0
C3376 C 0.28823 0.34415 0.51887 0.0
C3377 C 0.29315 0.37384 0.50405 0.0
C3378 C 0.28687 0.38303 0.5198 0.0
C3379 C 0.2815 0.37266 0.53517 0.0
C3380 C 0.28215 0.35344 0.53471 0.0
C3381 C 0.28661 0.40345 0.52052 0.0
C3382 C 0.29655 0.41216 0.53457 0.0
C3383 C 0.27773 0.41431 0.50697 0.0
C3384 C 0.26729 0.40592 0.49153 0.0
C3385 C 0.25314 0.39318 0.49491 0.0
C3386 C 0.24393 0.38478 0.48026 0.0
C3387 C 0.24863 0.38914 0.46215 0.0
C3388 C 0.26246 0.402 0.45865 0.0
C3389 C 0.27175 0.41039 0.47325 0.0
H3390 H 0.24153 0.38259 0.45083 0.0
H3391 H 0.3448 0.46076 0.58446 0.0
H3392 H 0.46027 0.50877 0.32322 0.0
H3393 H 0.42743 0.50385 0.31937 0.0
H3394 H 0.43034 0.52594 0.26444 0.0
H3395 H 0.4631 0.53185 0.2685 0.0
H3396 H 0.40008 0.53744 0.28077 0.0
H3397 H 0.42932 0.47896 0.2724 0.0
H3398 H 0.44971 0.45318 0.28072 0.0
H3399 H 0.41773 0.44315 0.32929 0.0
H3400 H 0.39726 0.46903 0.32139 0.0
H3401 H 0.31345 0.5001 0.25209 0.0
H3402 H 0.34613 0.5079 0.25457 0.0
H3403 H 0.34698 0.48664 0.30991 0.0
H3404 H 0.31452 0.47946 0.30781 0.0
H3405 H 0.37556 0.47479 0.29198 0.0
H3406 H 0.3457 0.53369 0.29931 0.0
H3407 H 0.32585 0.55957 0.29031 0.0
H3408 H 0.35902 0.56867 0.24234 0.0
H3409 H 0.37898 0.54265 0.25097 0.0
C3410 C 0.45398 0.51292 0.31042 0.0
C3411 C 0.46452 0.5206 0.2961 0.0
C3412 C 0.43516 0.50987 0.30816 0.0
C3413 C 0.42648 0.51415 0.29147 0.0
C3414 C 0.43677 0.52238 0.27739 0.0
C3415 C 0.45558 0.52559 0.27968 0.0
C3416 C 0.40677 0.50967 0.28857 0.0
C3417 C 0.39474 0.52369 0.28298 0.0
C3418 C 0.39976 0.49178 0.29169 0.0
C3419 C 0.41189 0.47606 0.2964 0.0
C3420 C 0.42671 0.47133 0.28492 0.0
C3421 C 0.43826 0.45669 0.28954 0.0
C3422 C 0.43506 0.4466 0.30555 0.0
C3423 C 0.42022 0.45102 0.31692 0.0
C3424 C 0.40864 0.46568 0.31237 0.0
C3425 C 0.32055 0.49736 0.26486 0.0
C3426 C 0.31132 0.48906 0.27968 0.0
C3427 C 0.33924 0.50179 0.26626 0.0
C3428 C 0.34896 0.49811 0.28255 0.0
C3429 C 0.33977 0.48975 0.29727 0.0
C3430 C 0.32116 0.48546 0.29595 0.0
C3431 C 0.36878 0.50261 0.28436 0.0
C3432 C 0.38087 0.48855 0.28973 0.0
C3433 C 0.37581 0.52044 0.28092 0.0
C3434 C 0.36376 0.53608 0.27573 0.0
C3435 C 0.34872 0.5411 0.28679 0.0
C3436 C 0.33744 0.55582 0.28176 0.0
C3437 C 0.34114 0.56574 0.26573 0.0
C3438 C 0.35615 0.56097 0.25474 0.0
C3439 C 0.36746 0.54624 0.25971 0.0
H3440 H 0.3324 0.57714 0.26186 0.0
H3441 H 0.44409 0.43536 0.30912 0.0
H3442 H 0.81962 0.09826 0.5071 0.0
H3443 H 0.81833 0.13183 0.50912 0.0
H3444 H 0.76951 0.12795 0.5426 0.0
H3445 H 0.77058 0.0944 0.54027 0.0
H3446 H 0.76796 0.158 0.52149 0.0
H3447 H 0.81057 0.12988 0.56143 0.0
H3448 H 0.83618 0.10968 0.57003 0.0
H3449 H 0.87349 0.14273 0.5387 0.0
H3450 H 0.84805 0.16333 0.52975 0.0
H3451 H 0.78057 0.241 0.57331 0.0
H3452 H 0.77781 0.20856 0.56446 0.0
H3453 H 0.82068 0.21584 0.52417 0.0
H3454 H 0.82339 0.24826 0.53284 0.0
H3455 H 0.82503 0.18449 0.54797 0.0
H3456 H 0.77928 0.21286 0.50891 0.0
H3457 H 0.7521 0.2322 0.50286 0.0
H3458 H 0.71939 0.19773 0.53789 0.0
H3459 H 0.74645 0.17832 0.54435 0.0
C3460 C 0.80837 0.10464 0.51449 0.0
C3461 C 0.79528 0.09377 0.52364 0.0
C3462 C 0.80766 0.12378 0.51567 0.0
C3463 C 0.79405 0.13237 0.52634 0.0
C3464 C 0.78015 0.12161 0.53432 0.0
C3465 C 0.78074 0.10244 0.53296 0.0
C3466 C 0.79548 0.15224 0.5308 0.0
C3467 C 0.78039 0.16376 0.5274 0.0
C3468 C 0.81169 0.15975 0.53859 0.0
C3469 C 0.82727 0.14792 0.54452 0.0
C3470 C 0.8242 0.13278 0.55617 0.0
C3471 C 0.83873 0.12132 0.56122 0.0
C3472 C 0.85648 0.12487 0.55489 0.0
C3473 C 0.85975 0.14005 0.54361 0.0
C3474 C 0.84527 0.15165 0.53854 0.0
C3475 C 0.78934 0.23567 0.56253 0.0
C3476 C 0.80209 0.24718 0.55366 0.0
C3477 C 0.78773 0.2172 0.55746 0.0
C3478 C 0.79899 0.20988 0.54361 0.0
C3479 C 0.81182 0.22128 0.53484 0.0
C3480 C 0.81324 0.23981 0.5397 0.0
C3481 C 0.7976 0.19023 0.53847 0.0
C3482 C 0.8127 0.17873 0.54184 0.0
C3483 C 0.78123 0.18267 0.53121 0.0
C3484 C 0.76492 0.19424 0.52723 0.0
C3485 C 0.76632 0.20949 0.51543 0.0
C3486 C 0.75093 0.22045 0.51191 0.0
C3487 C 0.73404 0.21622 0.52002 0.0
C3488 C 0.73249 0.201 0.53163 0.0
C3489 C 0.74784 0.19 0.53521 0.0
H3490 H 0.72214 0.22472 0.51728 0.0
H3491 H 0.86771 0.1159 0.55875 0.0
H3492 H 0.10525 0.51075 0.82304 0.0
H3493 H 0.13765 0.51387 0.81472 0.0
H3494 H 0.12242 0.54561 0.767 0.0
H3495 H 0.08993 0.54249 0.77528 0.0
H3496 H 0.15091 0.52306 0.75935 0.0
H3497 H 0.13562 0.56702 0.8051 0.0
H3498 H 0.12302 0.57844 0.83437 0.0
H3499 H 0.16223 0.54609 0.86428 0.0
H3500 H 0.17488 0.53411 0.83516 0.0
H3501 H 0.23544 0.57492 0.75227 0.0
H3502 H 0.20337 0.56486 0.75547 0.0
H3503 H 0.21994 0.52507 0.79616 0.0
H3504 H 0.25204 0.53489 0.79273 0.0
H3505 H 0.19106 0.55109 0.80687 0.0
H3506 H 0.20674 0.50854 0.75844 0.0
H3507 H 0.21888 0.49997 0.72798 0.0
H3508 H 0.17843 0.53414 0.70191 0.0
H3509 H 0.1662 0.54313 0.73225 0.0
C3510 C 0.10881 0.51825 0.81068 0.0
C3511 C 0.09507 0.52654 0.79992 0.0
C3512 C 0.1273 0.52002 0.80594 0.0
C3513 C 0.13245 0.53027 0.79044 0.0
C3514 C 0.11874 0.53768 0.77906 0.0
C3515 C 0.10018 0.53583 0.78376 0.0
C3516 C 0.15214 0.53414 0.78679 0.0
C3517 C 0.15965 0.52933 0.76968 0.0
C3518 C 0.16355 0.5423 0.80031 0.0
C3519 C 0.15605 0.54947 0.81792 0.0
C3520 C 0.14145 0.56217 0.81792 0.0
C3521 C 0.13431 0.56878 0.83449 0.0
C3522 C 0.14178 0.56295 0.85119 0.0
C3523 C 0.15644 0.55054 0.85134 0.0
C3524 C 0.1636 0.54383 0.8348 0.0
C3525 C 0.23222 0.56374 0.76156 0.0
C3526 C 0.24614 0.55556 0.77214 0.0
C3527 C 0.21397 0.55803 0.76339 0.0
C3528 C 0.20935 0.54423 0.77604 0.0
C3529 C 0.22329 0.53569 0.78628 0.0
C3530 C 0.24159 0.54118 0.7842 0.0
C3531 C 0.18984 0.53974 0.77957 0.0
C3532 C 0.18233 0.54463 0.79664 0.0
C3533 C 0.17838 0.53208 0.76588 0.0
C3534 C 0.18567 0.52664 0.74763 0.0
C3535 C 0.20054 0.51436 0.74622 0.0
C3536 C 0.20741 0.5094 0.72898 0.0
C3537 C 0.19946 0.51654 0.71302 0.0
C3538 C 0.18459 0.52863 0.71428 0.0
C3539 C 0.17767 0.53365 0.7315 0.0
H3540 H 0.2048 0.51268 0.69968 0.0
H3541 H 0.13623 0.56809 0.86401 0.0
H3542 H 0.72995 0.99808 0.01206 0.0
H3543 H 0.73621 0.96504 0.01192 0.0
H3544 H 0.79011 0.97499 0.03444 0.0
H3545 H 0.78405 0.00819 0.03412 0.0
H3546 H 0.79181 0.94715 0.0113 0.0
H3547 H 0.75398 0.96265 0.06217 0.0
H3548 H 0.72778 0.97641 0.07869 0.0
H3549 H 0.69032 0.94255 0.0481 0.0
H3550 H 0.71631 0.92882 0.03113 0.0
H3551 H 0.79585 0.86001 0.0605 0.0
H3552 H 0.79404 0.89275 0.05256 0.0
H3553 H 0.75244 0.88066 0.01213 0.0
H3554 H 0.75448 0.84777 0.01982 0.0
H3555 H 0.74527 0.90916 0.04353 0.0
H3556 H 0.78663 0.89248 0.99398 0.0
H3557 H 0.81486 0.87854 0.98141 0.0
H3558 H 0.8478 0.91459 0.01457 0.0
H3559 H 0.81975 0.92856 0.02756 0.0
C3560 C 0.74321 0.99319 0.01674 0.0
C3561 C 0.75648 0.0056 0.02319 0.0
C3562 C 0.74675 0.97436 0.0167 0.0
C3563 C 0.76343 0.9675 0.02355 0.0
C3564 C 0.7771 0.97995 0.02915 0.0
C3565 C 0.77366 0.99889 0.02893 0.0
C3566 C 0.76601 0.94738 0.02589 0.0
C3567 C 0.78167 0.93887 0.01844 0.0
C3568 C 0.75281 0.93652 0.03525 0.0
C3569 C 0.73709 0.94481 0.04528 0.0
C3570 C 0.74014 0.95825 0.05886 0.0
C3571 C 0.72533 0.96603 0.06831 0.0
C3572 C 0.7074 0.96036 0.06444 0.0
C3573 C 0.70423 0.94693 0.05107 0.0
C3574 C 0.71899 0.93915 0.04151 0.0
C3575 C 0.7865 0.86436 0.04976 0.0
C3576 C 0.77529 0.85146 0.04074 0.0
C3577 C 0.78554 0.88298 0.0452 0.0
C3578 C 0.77317 0.88902 0.03174 0.0
C3579 C 0.76217 0.87616 0.02246 0.0
C3580 C 0.76338 0.85745 0.02679 0.0
C3581 C 0.77069 0.90894 0.02853 0.0
C3582 C 0.75517 0.91742 0.0361 0.0
C3583 C 0.78422 0.91976 0.01974 0.0
C3584 C 0.80108 0.91143 0.01188 0.0
C3585 C 0.79989 0.89731 0.99873 0.0
C3586 C 0.81586 0.88943 0.9915 0.0
C3587 C 0.83311 0.89564 0.99723 0.0
C3588 C 0.83443 0.90978 0.01016 0.0
C3589 C 0.8185 0.91769 0.01745 0.0
H3590 H 0.84546 0.88952 0.99161 0.0
H3591 H 0.69595 0.96636 0.0718 0.0
H3592 H 0.08182 0.74778 0.85585 0.0
H3593 H 0.07911 0.7454 0.88919 0.0
H3594 H 0.02259 0.76303 0.88605 0.0
H3595 H 0.02531 0.76575 0.85253 0.0
H3596 H 0.0429 0.77976 0.9151 0.0
H3597 H 0.02978 0.7193 0.89151 0.0
H3598 H 0.03671 0.69299 0.87128 0.0
H3599 H 0.08797 0.68455 0.89928 0.0
H3600 H 0.08141 0.71096 0.91961 0.0
H3601 H 0.01499 0.74978 0.00397 0.0
H3602 H 0.01788 0.75524 0.97095 0.0
H3603 H 0.07267 0.73259 0.97186 0.0
H3604 H 0.06997 0.72727 0.00489 0.0
H3605 H 0.05297 0.71862 0.9437 0.0
H3606 H 0.06661 0.77863 0.96735 0.0
H3607 H 0.06171 0.80677 0.98562 0.0
H3608 H 0.01099 0.81683 0.95721 0.0
H3609 H 0.01557 0.78874 0.93873 0.0
C3610 C 0.06888 0.75142 0.86223 0.0
C3611 C 0.05376 0.75697 0.85153 0.0
C3612 C 0.06732 0.74993 0.88129 0.0
C3613 C 0.05062 0.75393 0.89006 0.0
C3614 C 0.0356 0.75988 0.87952 0.0
C3615 C 0.03712 0.76127 0.86039 0.0
C3616 C 0.04873 0.75118 0.91017 0.0
C3617 C 0.04482 0.76637 0.92137 0.0
C3618 C 0.0517 0.73377 0.91832 0.0
C3619 C 0.05519 0.7172 0.90696 0.0
C3620 C 0.04254 0.71184 0.89334 0.0
C3621 C 0.04641 0.69694 0.88185 0.0
C3622 C 0.06283 0.68722 0.88392 0.0
C3623 C 0.07529 0.69216 0.89767 0.0
C3624 C 0.07148 0.70707 0.90922 0.0
C3625 C 0.02774 0.74617 0.99721 0.0
C3626 C 0.04219 0.73799 0.0071 0.0
C3627 C 0.02937 0.74927 0.97831 0.0
C3628 C 0.04552 0.74438 0.96893 0.0
C3629 C 0.06003 0.73637 0.97878 0.0
C3630 C 0.05842 0.73326 0.99767 0.0
C3631 C 0.04712 0.74725 0.94878 0.0
C3632 C 0.05098 0.73204 0.93751 0.0
C3633 C 0.0442 0.76468 0.9406 0.0
C3634 C 0.04133 0.78149 0.95178 0.0
C3635 C 0.05433 0.78676 0.9651 0.0
C3636 C 0.05163 0.80271 0.97547 0.0
C3637 C 0.036 0.81351 0.97266 0.0
C3638 C 0.02307 0.80843 0.9594 0.0
C3639 C 0.02573 0.79252 0.94893 0.0
H3640 H 0.03394 0.82585 0.98072 0.0
H3641 H 0.06586 0.67587 0.87484 0.0
H3642 H 0.58304 0.77727 0.24371 0.0
H3643 H 0.57444 0.78224 0.21163 0.0
H3644 H 0.54714 0.83275 0.2268 0.0
H3645 H 0.55465 0.82691 0.25916 0.0
H3646 H 0.52858 0.81831 0.20112 0.0
H3647 H 0.59178 0.83248 0.20619 0.0
H3648 H 0.62415 0.82829 0.21535 0.0
H3649 H 0.62755 0.77953 0.18226 0.0
H3650 H 0.5951 0.78336 0.17297 0.0
H3651 H 0.53184 0.84925 0.10701 0.0
H3652 H 0.53772 0.84673 0.1401 0.0
H3653 H 0.55288 0.78987 0.13315 0.0
H3654 H 0.54735 0.79233 0.10012 0.0
H3655 H 0.57798 0.81075 0.15466 0.0
H3656 H 0.51175 0.80012 0.15008 0.0
H3657 H 0.48035 0.80911 0.14095 0.0
H3658 H 0.4845 0.85803 0.17374 0.0
H3659 H 0.51604 0.84946 0.18283 0.0
C3660 C 0.575 0.78928 0.24014 0.0
C3661 C 0.56961 0.80179 0.25377 0.0
C3662 C 0.57024 0.79225 0.22182 0.0
C3663 C 0.56065 0.8082 0.21662 0.0
C3664 C 0.55466 0.8204 0.23038 0.0
C3665 C 0.55896 0.81711 0.24885 0.0
C3666 C 0.55727 0.81218 0.19683 0.0
C3667 C 0.53947 0.81692 0.19103 0.0
C3668 C 0.57145 0.81056 0.18356 0.0
C3669 C 0.591 0.80816 0.18895 0.0
C3670 C 0.59941 0.82081 0.20093 0.0
C3671 C 0.61776 0.81852 0.20612 0.0
C3672 C 0.62789 0.80366 0.19938 0.0
C3673 C 0.61967 0.79104 0.18745 0.0
C3674 C 0.60131 0.79328 0.18218 0.0
C3675 C 0.53639 0.83621 0.11255 0.0
C3676 C 0.539 0.82096 0.10093 0.0
C3677 C 0.53967 0.83478 0.13144 0.0
C3678 C 0.54563 0.81809 0.13906 0.0
C3679 C 0.54824 0.80286 0.12753 0.0
C3680 C 0.54487 0.80424 0.10868 0.0
C3681 C 0.54926 0.81642 0.15904 0.0
C3682 C 0.56716 0.81219 0.16483 0.0
C3683 C 0.53533 0.81923 0.17231 0.0
C3684 C 0.51628 0.82421 0.16703 0.0
C3685 C 0.506 0.81285 0.15525 0.0
C3686 C 0.48818 0.81786 0.1501 0.0
C3687 C 0.48044 0.83414 0.15676 0.0
C3688 C 0.49049 0.84541 0.16863 0.0
C3689 C 0.50834 0.84048 0.17378 0.0
H3690 H 0.46665 0.83801 0.15273 0.0
H3691 H 0.6421 0.80195 0.2034 0.0
H3692 H 0.59197 0.33352 0.47984 0.0
H3693 H 0.58682 0.32471 0.44755 0.0
H3694 H 0.52999 0.31307 0.45986 0.0
H3695 H 0.53501 0.32223 0.49189 0.0
H3696 H 0.55029 0.28507 0.43823 0.0
H3697 H 0.53643 0.35019 0.44119 0.0
H3698 H 0.5439 0.38242 0.44842 0.0
H3699 H 0.58931 0.38068 0.41077 0.0
H3700 H 0.58234 0.34825 0.4036 0.0
H3701 H 0.50264 0.28075 0.35477 0.0
H3702 H 0.51381 0.28747 0.38551 0.0
H3703 H 0.56308 0.31131 0.36267 0.0
H3704 H 0.55149 0.30555 0.33167 0.0
H3705 H 0.55057 0.33247 0.38918 0.0
H3706 H 0.56333 0.26841 0.38395 0.0
H3707 H 0.5569 0.23582 0.37718 0.0
H3708 H 0.51524 0.23501 0.41898 0.0
H3709 H 0.52124 0.26767 0.42585 0.0
C3710 C 0.57846 0.32893 0.47559 0.0
C3711 C 0.56386 0.32858 0.48821 0.0
C3712 C 0.57552 0.32399 0.45723 0.0
C3713 C 0.55802 0.31829 0.45141 0.0
C3714 C 0.54358 0.31743 0.46414 0.0
C3715 C 0.54642 0.32273 0.48234 0.0
C3716 C 0.55449 0.31364 0.43194 0.0
C3717 C 0.55025 0.2954 0.42748 0.0
C3718 C 0.55498 0.32711 0.41795 0.0
C3719 C 0.55903 0.34669 0.42206 0.0
C3720 C 0.54815 0.35659 0.43462 0.0
C3721 C 0.55229 0.37491 0.43871 0.0
C3722 C 0.56715 0.38357 0.43016 0.0
C3723 C 0.57786 0.37393 0.41745 0.0
C3724 C 0.57382 0.35558 0.41337 0.0
C3725 C 0.51581 0.28752 0.35618 0.0
C3726 C 0.52608 0.29266 0.34061 0.0
C3727 C 0.52231 0.29115 0.37385 0.0
C3728 C 0.53943 0.29967 0.37647 0.0
C3729 C 0.54985 0.30466 0.36101 0.0
C3730 C 0.54327 0.30117 0.34326 0.0
C3731 C 0.54605 0.30381 0.39536 0.0
C3732 C 0.55086 0.322 0.39979 0.0
C3733 C 0.54624 0.29024 0.40933 0.0
C3734 C 0.54266 0.27054 0.40533 0.0
C3735 C 0.55271 0.26132 0.39162 0.0
C3736 C 0.54916 0.24283 0.38778 0.0
C3737 C 0.53565 0.23336 0.39762 0.0
C3738 C 0.5257 0.24236 0.41136 0.0
C3739 C 0.52919 0.26086 0.41526 0.0
H3740 H 0.53292 0.21905 0.39461 0.0
H3741 H 0.57025 0.3978 0.43325 0.0
H3742 H 0.0428 0.25692 0.75642 0.0
H3743 H 0.04831 0.25482 0.72326 0.0
H3744 H 0.00118 0.2894 0.71324 0.0
H3745 H 0.9956 0.29145 0.74626 0.0
H3746 H 0.0004 0.26042 0.69107 0.0
H3747 H 0.04559 0.30558 0.70891 0.0
H3748 H 0.07189 0.31762 0.7266 0.0
H3749 H 0.10598 0.27394 0.70622 0.0
H3750 H 0.07979 0.2615 0.68859 0.0
H3751 H 0.01304 0.28838 0.60018 0.0
H3752 H 0.01575 0.29139 0.6335 0.0
H3753 H 0.05049 0.24344 0.63528 0.0
H3754 H 0.04809 0.24045 0.60179 0.0
H3755 H 0.05944 0.27733 0.66117 0.0
H3756 H 0.01276 0.23005 0.64732 0.0
H3757 H 0.98853 0.22058 0.6255 0.0
H3758 H 0.95911 0.27065 0.63616 0.0
H3759 H 0.98302 0.28024 0.65824 0.0
C3760 C 0.03381 0.2643 0.74716 0.0
C3761 C 0.01876 0.27435 0.75397 0.0
C3762 C 0.03693 0.26305 0.7282 0.0
C3763 C 0.02519 0.27201 0.71573 0.0
C3764 C 0.01035 0.28227 0.72256 0.0
C3765 C 0.00718 0.28345 0.74145 0.0
C3766 C 0.02802 0.27045 0.69555 0.0
C3767 C 0.01332 0.26422 0.68465 0.0
C3768 C 0.04494 0.27505 0.68702 0.0
C3769 C 0.06069 0.2825 0.6976 0.0
C3770 C 0.05865 0.29846 0.70833 0.0
C3771 C 0.07355 0.30537 0.71832 0.0
C3772 C 0.09058 0.29652 0.71758 0.0
C3773 C 0.09277 0.28076 0.7068 0.0
C3774 C 0.07791 0.27378 0.6968 0.0
C3775 C 0.02166 0.27876 0.60754 0.0
C3776 C 0.0302 0.26407 0.59833 0.0
C3777 C 0.02319 0.2805 0.62659 0.0
C3778 C 0.03334 0.26765 0.63678 0.0
C3779 C 0.04272 0.25355 0.6276 0.0
C3780 C 0.04113 0.25175 0.60851 0.0
C3781 C 0.03186 0.26754 0.65705 0.0
C3782 C 0.04669 0.27338 0.66783 0.0
C3783 C 0.01516 0.26259 0.66557 0.0
C3784 C -0.00045 0.25577 0.65447 0.0
C3785 C 0.00092 0.23885 0.64523 0.0
C3786 C 0.98729 0.23349 0.6328 0.0
C3787 C 0.97228 0.24499 0.62947 0.0
C3788 C 0.97067 0.26169 0.63886 0.0
C3789 C 0.98418 0.26704 0.65144 0.0
H3790 H 0.96199 0.24101 0.6195 0.0
H3791 H 0.10209 0.30189 0.72532 0.0
loop_
_geom_bond_atom_site_label_1
_geom_bond_atom_site_label_2
_geom_bond_distance
_geom_bond_site_symmetry_2
_ccdc_geom_bond_type
C0 C1 1.351 1_455 S
C0 N3 1.368 . S
C0 H5 0.931 . S
C1 C0 1.351 1_655 S
C1 N2 1.373 . S
C1 H29 0.930 . S
N2 C1 1.373 . S
N2 C4 1.340 . S
N3 C0 1.368 . S
N3 C4 1.321 1_455 S
N3 Co6 2.135 . S
C4 N2 1.340 . S
C4 N3 1.321 1_655 S
C4 H28 0.930 . S
H5 C0 0.931 . S
Co6 N3 2.135 . S
Co6 N9 2.121 . S
Co6 O14 2.055 . S
Co6 O17 2.039 . S
Co6 N20 2.140 . S
C7 O8 1.227 . S
C7 O17 1.265 . S
O8 C7 1.227 . S
N9 Co6 2.121 . S
N9 C11 1.375 . S
N9 C12 1.313 . S
C10 C11 1.338 . S
C10 N13 1.377 . S
C10 H30 0.930 . S
C11 N9 1.375 . S
C11 C10 1.338 . S
C11 H15 0.931 . S
C12 N9 1.313 . S
C12 N13 1.344 . S
C12 H16 0.930 . S
N13 C10 1.377 . S
N13 C12 1.344 . S
O14 Co6 2.055 . S
O14 C18 1.253 . S
H15 C11 0.931 . S
H16 C12 0.930 . S
O17 Co6 2.039 . S
O17 C7 1.265 . S
C18 O14 1.253 . S
C18 O19 1.227 . S
O19 C18 1.227 . S
N20 Co6 2.140 . S
N20 C23 1.346 . S
N20 C24 1.345 . S
C21 C22 1.387 . S
C21 C25 1.391 1_565 S
C22 C21 1.387 . S
C22 C23 1.369 1_565 S
C22 H31 0.929 . S
C23 N20 1.346 . S
C23 C22 1.369 1_545 S
C23 H26 0.928 . S
C24 N20 1.345 . S
C24 C25 1.371 . S
C24 H27 0.931 . S
C25 C21 1.391 1_545 S
C25 C24 1.371 . S
C25 H32 0.930 . S
H26 C23 0.928 . S
H27 C24 0.931 . S
H28 C4 0.930 . S
H29 C1 0.930 . S
H30 C10 0.930 . S
H31 C22 0.929 . S
H32 C25 0.930 . S
C33 C34 1.351 . S
C33 N36 1.325 1_554 S
C33 H38 0.931 . S
C34 C33 1.351 . S
C34 N35 1.373 . S
C34 H62 0.930 . S
N35 C34 1.373 . S
N35 C37 1.340 1_554 S
N36 C33 1.325 1_556 S
N36 C37 1.323 . S
N36 Co39 2.167 . S
C37 N35 1.340 1_556 S
C37 N36 1.323 . S
C37 H61 0.930 . S
H38 C33 0.931 . S
Co39 N36 2.167 . S
Co39 N42 2.121 . S
Co39 O47 2.055 . S
Co39 O50 2.039 . S
Co39 N53 2.140 . S
C40 O41 1.227 . S
C40 O50 1.265 . S
O41 C40 1.227 . S
N42 Co39 2.121 . S
N42 C44 1.375 . S
N42 C45 1.313 . S
C43 C44 1.338 . S
C43 N46 1.377 . S
C43 H63 0.930 . S
C44 N42 1.375 . S
C44 C43 1.338 . S
C44 H48 0.931 . S
C45 N42 1.313 . S
C45 N46 1.344 . S
C45 H49 0.930 . S
N46 C43 1.377 . S
N46 C45 1.344 . S
O47 Co39 2.055 . S
O47 C51 1.253 . S
H48 C44 0.931 . S
H49 C45 0.930 . S
O50 Co39 2.039 . S
O50 C40 1.265 . S
C51 O47 1.253 . S
C51 O52 1.218 1_556 S
O52 C51 1.218 1_554 S
N53 Co39 2.140 . S
N53 C56 1.346 . S
N53 C57 1.345 . S
C54 C55 1.387 . S
C54 C58 1.391 . S
C55 C54 1.387 . S
C55 C56 1.369 . S
C55 H64 0.929 . S
C56 N53 1.346 . S
C56 C55 1.369 . S
C56 H59 0.928 . S
C57 N53 1.345 . S
C57 C58 1.371 . S
C57 H60 0.931 . S
C58 C54 1.391 . S
C58 C57 1.371 . S
C58 H65 0.930 . S
H59 C56 0.928 . S
H60 C57 0.931 . S
H61 C37 0.930 . S
H62 C34 0.930 . S
H63 C43 0.930 . S
H64 C55 0.929 . S
H65 C58 0.930 . S
C66 C67 1.351 . S
C66 N69 1.368 . S
C66 H71 0.931 . S
C67 C66 1.351 . S
C67 N68 1.373 . S
C67 H95 0.930 . S
N68 C67 1.373 . S
N68 C70 1.340 . S
N69 C66 1.368 . S
N69 C70 1.321 . S
N69 Co72 2.135 . S
C70 N68 1.340 . S
C70 N69 1.321 . S
C70 H94 0.930 . S
H71 C66 0.931 . S
Co72 N69 2.135 . S
Co72 N75 2.121 . S
Co72 O80 2.048 1_545 S
Co72 O83 2.039 . S
Co72 N86 2.140 . S
C73 O74 1.227 . S
C73 O83 1.265 . S
O74 C73 1.227 . S
N75 Co72 2.121 . S
N75 C77 1.375 . S
N75 C78 1.313 . S
C76 C77 1.338 . S
C76 N79 1.377 . S
C76 H96 0.930 . S
C77 N75 1.375 . S
C77 C76 1.338 . S
C77 H81 0.931 . S
C78 N75 1.313 . S
C78 N79 1.344 . S
C78 H82 0.935 . S
N79 C76 1.377 . S
N79 C78 1.344 . S
O80 Co72 2.048 1_565 S
O80 C84 1.253 . S
H81 C77 0.931 . S
H82 C78 0.935 . S
O83 Co72 2.039 . S
O83 C73 1.265 . S
C84 O80 1.253 . S
C84 O85 1.227 1_565 S
O85 C84 1.227 1_545 S
N86 Co72 2.140 . S
N86 C89 1.346 . S
N86 C90 1.345 . S
C87 C88 1.387 . S
C87 C91 1.391 . S
C88 C87 1.387 . S
C88 C89 1.369 . S
C88 H97 0.929 . S
C89 N86 1.346 . S
C89 C88 1.369 . S
C89 H92 0.928 . S
C90 N86 1.345 . S
C90 C91 1.371 . S
C90 H93 0.931 . S
C91 C87 1.391 . S
C91 C90 1.371 . S
C91 H98 0.930 . S
H92 C89 0.928 . S
H93 C90 0.931 . S
H94 C70 0.930 . S
H95 C67 0.930 . S
H96 C76 0.930 . S
H97 C88 0.929 . S
H98 C91 0.930 . S
C99 C100 1.351 . S
C99 N102 1.368 . S
C99 H104 0.931 . S
C100 C99 1.351 . S
C100 N101 1.373 . S
C100 H128 0.930 . S
N101 C100 1.373 . S
N101 C103 1.340 . S
N102 C99 1.368 . S
N102 C103 1.321 . S
N102 Co105 2.135 . S
C103 N101 1.340 . S
C103 N102 1.321 . S
C103 H127 0.930 . S
H104 C99 0.931 . S
Co105 N102 2.135 . S
Co105 N108 2.121 . S
Co105 O113 2.055 . S
Co105 O116 2.039 . S
Co105 N119 2.140 . S
C106 O107 1.227 . S
C106 O116 1.265 . S
O107 C106 1.227 . S
N108 Co105 2.121 . S
N108 C110 1.375 . S
N108 C111 1.313 . S
C109 C110 1.338 . S
C109 N112 1.377 . S
C109 H129 0.930 . S
C110 N108 1.375 . S
C110 C109 1.338 . S
C110 H114 0.931 . S
C111 N108 1.313 . S
C111 N112 1.344 . S
C111 H115 0.930 . S
N112 C109 1.377 . S
N112 C111 1.344 . S
O113 Co105 2.055 . S
O113 C117 1.253 . S
H114 C110 0.931 . S
H115 C111 0.930 . S
O116 Co105 2.039 . S
O116 C106 1.265 . S
C117 O113 1.253 . S
C117 O118 1.227 . S
O118 C117 1.227 . S
N119 Co105 2.140 . S
N119 C122 1.346 . S
N119 C123 1.345 . S
C120 C121 1.387 . S
C120 C124 1.391 . S
C121 C120 1.387 . S
C121 C122 1.369 . S
C121 H130 0.929 . S
C122 N119 1.346 . S
C122 C121 1.369 . S
C122 H125 0.928 . S
C123 N119 1.345 . S
C123 C124 1.371 . S
C123 H126 0.931 . S
C124 C120 1.391 . S
C124 C123 1.371 . S
C124 H131 0.930 . S
H125 C122 0.928 . S
H126 C123 0.931 . S
H127 C103 0.930 . S
H128 C100 0.930 . S
H129 C109 0.930 . S
H130 C121 0.929 . S
H131 C124 0.930 . S
C132 C133 1.351 . S
C132 N135 1.368 . S
C132 H137 0.931 . S
C133 C132 1.351 . S
C133 N134 1.373 . S
C133 H161 0.930 . S
N134 C133 1.373 . S
N134 C136 1.340 . S
N135 C132 1.368 . S
N135 C136 1.321 . S
N135 Co138 2.135 . S
C136 N134 1.340 . S
C136 N135 1.321 . S
C136 H160 0.930 . S
H137 C132 0.931 . S
Co138 N135 2.135 . S
Co138 N141 2.121 . S
Co138 O146 2.055 . S
Co138 O149 2.039 . S
Co138 N152 2.140 . S
C139 O140 1.227 . S
C139 O149 1.265 . S
O140 C139 1.227 . S
N141 Co138 2.121 . S
N141 C143 1.375 . S
N141 C144 1.313 . S
C142 C143 1.338 . S
C142 N145 1.377 . S
C142 H162 0.930 . S
C143 N141 1.375 . S
C143 C142 1.338 . S
C143 H147 0.931 . S
C144 N141 1.313 . S
C144 N145 1.344 . S
C144 H148 0.930 . S
N145 C142 1.377 . S
N145 C144 1.344 . S
O146 Co138 2.055 . S
O146 C150 1.253 . S
H147 C143 0.931 . S
H148 C144 0.930 . S
O149 Co138 2.039 . S
O149 C139 1.265 . S
C150 O146 1.253 . S
C150 O151 1.227 . S
O151 C150 1.227 . S
N152 Co138 2.140 . S
N152 C155 1.346 . S
N152 C156 1.345 . S
C153 C154 1.387 . S
C153 C157 1.391 . S
C154 C153 1.387 . S
C154 C155 1.369 . S
C154 H163 0.929 . S
C155 N152 1.346 . S
C155 C154 1.369 . S
C155 H158 0.928 . S
C156 N152 1.345 . S
C156 C157 1.371 . S
C156 H159 0.931 . S
C157 C153 1.391 . S
C157 C156 1.371 . S
C157 H164 0.930 . S
H158 C155 0.928 . S
H159 C156 0.931 . S
H160 C136 0.930 . S
H161 C133 0.930 . S
H162 C142 0.930 . S
H163 C154 0.929 . S
H164 C157 0.930 . S
C165 C166 1.351 . S
C165 N168 1.368 . S
C165 H170 0.931 . S
C166 C165 1.351 . S
C166 N167 1.373 . S
C166 H194 0.930 . S
N167 C166 1.373 . S
N167 C169 1.340 . S
N168 C165 1.368 . S
N168 C169 1.321 . S
N168 Co171 2.135 . S
C169 N167 1.340 . S
C169 N168 1.321 . S
C169 H193 0.930 . S
H170 C165 0.931 . S
Co171 N168 2.135 . S
Co171 N174 2.121 . S
Co171 O179 2.055 . S
Co171 O182 2.039 . S
Co171 N185 2.140 . S
C172 O173 1.227 . S
C172 O182 1.265 . S
O173 C172 1.227 . S
N174 Co171 2.121 . S
N174 C176 1.375 . S
N174 C177 1.313 . S
C175 C176 1.338 . S
C175 N178 1.377 . S
C175 H195 0.930 . S
C176 N174 1.375 . S
C176 C175 1.338 . S
C176 H180 0.931 . S
C177 N174 1.313 . S
C177 N178 1.344 . S
C177 H181 0.930 . S
N178 C175 1.377 . S
N178 C177 1.344 . S
O179 Co171 2.055 . S
O179 C183 1.253 . S
H180 C176 0.931 . S
H181 C177 0.930 . S
O182 Co171 2.039 . S
O182 C172 1.265 . S
C183 O179 1.253 . S
C183 O184 1.227 . S
O184 C183 1.227 . S
N185 Co171 2.140 . S
N185 C188 1.346 . S
N185 C189 1.345 . S
C186 C187 1.387 . S
C186 C190 1.391 . S
C187 C186 1.387 . S
C187 C188 1.369 . S
C187 H196 0.929 . S
C188 N185 1.346 . S
C188 C187 1.369 . S
C188 H191 0.928 . S
C189 N185 1.345 . S
C189 C190 1.371 . S
C189 H192 0.931 . S
C190 C186 1.391 . S
C190 C189 1.371 . S
C190 H197 0.930 . S
H191 C188 0.928 . S
H192 C189 0.931 . S
H193 C169 0.930 . S
H194 C166 0.930 . S
H195 C175 0.930 . S
H196 C187 0.929 . S
H197 C190 0.930 . S
C198 C199 1.351 . S
C198 N201 1.368 . S
C198 H203 0.931 . S
C199 C198 1.351 . S
C199 N200 1.373 . S
C199 H227 0.930 . S
N200 C199 1.373 . S
N200 C202 1.340 . S
N201 C198 1.368 . S
N201 C202 1.321 . S
N201 Co204 2.135 . S
C202 N200 1.340 . S
C202 N201 1.321 . S
C202 H226 0.930 . S
H203 C198 0.931 . S
Co204 N201 2.135 . S
Co204 N207 2.121 . S
Co204 O212 2.055 . S
Co204 O215 2.039 . S
Co204 N218 2.140 . S
C205 O206 1.227 . S
C205 O215 1.265 . S
O206 C205 1.227 . S
N207 Co204 2.121 . S
N207 C209 1.375 . S
N207 C210 1.313 . S
C208 C209 1.338 . S
C208 N211 1.377 . S
C208 H228 0.930 . S
C209 N207 1.375 . S
C209 C208 1.338 . S
C209 H213 0.931 . S
C210 N207 1.313 . S
C210 N211 1.344 . S
C210 H214 0.930 . S
N211 C208 1.377 . S
N211 C210 1.344 . S
O212 Co204 2.055 . S
O212 C216 1.253 . S
H213 C209 0.931 . S
H214 C210 0.930 . S
O215 Co204 2.039 . S
O215 C205 1.265 . S
C216 O212 1.253 . S
C216 O217 1.227 . S
O217 C216 1.227 . S
N218 Co204 2.140 . S
N218 C221 1.346 . S
N218 C222 1.345 . S
C219 C220 1.387 . S
C219 C223 1.391 . S
C220 C219 1.387 . S
C220 C221 1.369 . S
C220 H229 0.929 . S
C221 N218 1.346 . S
C221 C220 1.369 . S
C221 H224 0.928 . S
C222 N218 1.345 . S
C222 C223 1.371 . S
C222 H225 0.931 . S
C223 C219 1.391 . S
C223 C222 1.371 . S
C223 H230 0.930 1_455 S
H224 C221 0.928 . S
H225 C222 0.931 . S
H226 C202 0.930 . S
H227 C199 0.930 . S
H228 C208 0.930 . S
H229 C220 0.929 . S
H230 C223 0.930 1_655 S
C231 C232 1.351 . S
C231 N234 1.368 . S
C231 H236 0.931 . S
C232 C231 1.351 . S
C232 N233 1.373 . S
C232 H260 0.930 . S
N233 C232 1.373 . S
N233 C235 1.340 . S
N234 C231 1.368 . S
N234 C235 1.321 . S
N234 Co237 2.135 . S
C235 N233 1.340 . S
C235 N234 1.321 . S
C235 H259 0.930 . S
H236 C231 0.931 . S
Co237 N234 2.135 . S
Co237 N240 2.121 . S
Co237 O245 2.055 . S
Co237 O248 2.039 . S
Co237 N251 2.140 . S
C238 O239 1.227 . S
C238 O248 1.265 . S
O239 C238 1.227 . S
N240 Co237 2.121 . S
N240 C242 1.375 . S
N240 C243 1.313 . S
C241 C242 1.338 . S
C241 N244 1.377 . S
C241 H261 0.930 . S
C242 N240 1.375 . S
C242 C241 1.338 . S
C242 H246 0.931 . S
C243 N240 1.313 . S
C243 N244 1.344 . S
C243 H247 0.930 . S
N244 C241 1.377 . S
N244 C243 1.344 . S
O245 Co237 2.055 . S
O245 C249 1.253 . S
H246 C242 0.931 . S
H247 C243 0.930 . S
O248 Co237 2.039 . S
O248 C238 1.265 . S
C249 O245 1.253 . S
C249 O250 1.227 . S
O250 C249 1.227 . S
N251 Co237 2.140 . S
N251 C254 1.346 . S
N251 C255 1.345 . S
C252 C253 1.387 . S
C252 C256 1.391 . S
C253 C252 1.387 . S
C253 C254 1.369 . S
C253 H262 0.929 . S
C254 N251 1.346 . S
C254 C253 1.369 . S
C254 H257 0.928 . S
C255 N251 1.345 . S
C255 C256 1.371 . S
C255 H258 0.931 . S
C256 C252 1.391 . S
C256 C255 1.371 . S
C256 H263 0.930 . S
H257 C254 0.928 . S
H258 C255 0.931 . S
H259 C235 0.930 . S
H260 C232 0.930 . S
H261 C241 0.930 . S
H262 C253 0.929 . S
H263 C256 0.930 . S
C264 C265 1.351 1_545 S
C264 N267 1.368 . S
C264 H269 0.931 . S
C265 C264 1.351 1_565 S
C265 N266 1.373 . S
C265 H293 0.930 . S
N266 C265 1.373 . S
N266 C268 1.340 . S
N267 C264 1.368 . S
N267 C268 1.321 1_545 S
N267 Co270 2.135 . S
C268 N266 1.340 . S
C268 N267 1.321 1_565 S
C268 H292 0.930 . S
H269 C264 0.931 . S
Co270 N267 2.135 . S
Co270 N273 2.121 . S
Co270 O278 2.055 . S
Co270 O281 2.039 . S
Co270 N284 2.140 . S
C271 O272 1.227 . S
C271 O281 1.265 . S
O272 C271 1.227 . S
N273 Co270 2.121 . S
N273 C275 1.375 . S
N273 C276 1.313 . S
C274 C275 1.338 . S
C274 N277 1.377 . S
C274 H294 0.930 . S
C275 N273 1.375 . S
C275 C274 1.338 . S
C275 H279 0.931 . S
C276 N273 1.313 . S
C276 N277 1.344 . S
C276 H280 0.930 . S
N277 C274 1.377 . S
N277 C276 1.344 . S
O278 Co270 2.055 . S
O278 C282 1.253 . S
H279 C275 0.931 . S
H280 C276 0.930 . S
O281 Co270 2.039 . S
O281 C271 1.265 . S
C282 O278 1.253 . S
C282 O283 1.227 . S
O283 C282 1.227 . S
N284 Co270 2.140 . S
N284 C287 1.346 . S
N284 C288 1.345 . S
C285 C286 1.387 . S
C285 C289 1.391 1_556 S
C286 C285 1.387 . S
C286 C287 1.369 1_556 S
C286 H295 0.929 . S
C287 N284 1.346 . S
C287 C286 1.369 1_554 S
C287 H290 0.928 . S
C288 N284 1.345 . S
C288 C289 1.371 . S
C288 H291 0.931 . S
C289 C285 1.391 1_554 S
C289 C288 1.371 . S
C289 H296 0.930 . S
H290 C287 0.928 . S
H291 C288 0.931 . S
H292 C268 0.930 . S
H293 C265 0.930 . S
H294 C274 0.930 . S
H295 C286 0.929 . S
H296 C289 0.930 . S
C297 C298 1.351 . S
C297 N300 1.368 . S
C297 H302 0.931 . S
C298 C297 1.351 . S
C298 N299 1.373 . S
C298 H326 0.930 . S
N299 C298 1.373 . S
N299 C301 1.340 . S
N300 C297 1.368 . S
N300 C301 1.321 . S
N300 Co303 2.135 . S
C301 N299 1.340 . S
C301 N300 1.321 . S
C301 H325 0.930 . S
H302 C297 0.931 . S
Co303 N300 2.135 . S
Co303 N306 2.121 . S
Co303 O311 2.055 . S
Co303 O314 2.039 . S
Co303 N317 2.140 . S
C304 O305 1.227 . S
C304 O314 1.265 . S
O305 C304 1.227 . S
N306 Co303 2.121 . S
N306 C308 1.375 . S
N306 C309 1.313 . S
C307 C308 1.338 . S
C307 N310 1.377 . S
C307 H327 0.930 . S
C308 N306 1.375 . S
C308 C307 1.338 . S
C308 H312 0.931 . S
C309 N306 1.313 . S
C309 N310 1.344 . S
C309 H313 0.930 . S
N310 C307 1.377 . S
N310 C309 1.344 . S
O311 Co303 2.055 . S
O311 C315 1.253 . S
H312 C308 0.931 . S
H313 C309 0.930 . S
O314 Co303 2.039 . S
O314 C304 1.265 . S
C315 O311 1.253 . S
C315 O316 1.227 . S
O316 C315 1.227 . S
N317 Co303 2.140 . S
N317 C320 1.346 . S
N317 C321 1.345 . S
C318 C319 1.387 . S
C318 C322 1.391 . S
C319 C318 1.387 . S
C319 C320 1.369 . S
C319 H328 0.929 . S
C320 N317 1.346 . S
C320 C319 1.369 . S
C320 H323 0.928 . S
C321 N317 1.345 . S
C321 C322 1.371 . S
C321 H324 0.931 . S
C322 C318 1.391 . S
C322 C321 1.371 . S
C322 H329 0.930 . S
H323 C320 0.928 . S
H324 C321 0.931 . S
H325 C301 0.930 . S
H326 C298 0.930 . S
H327 C307 0.930 . S
H328 C319 0.929 . S
H329 C322 0.930 . S
C330 C331 1.351 . S
C330 N333 1.368 . S
C330 H335 0.931 . S
C331 C330 1.351 . S
C331 N332 1.373 . S
C331 H359 0.930 . S
N332 C331 1.373 . S
N332 C334 1.340 . S
N333 C330 1.368 . S
N333 C334 1.321 . S
N333 Co336 2.135 . S
C334 N332 1.340 . S
C334 N333 1.321 . S
C334 H358 0.930 . S
H335 C330 0.931 . S
Co336 N333 2.135 . S
Co336 N339 2.121 . S
Co336 O344 2.055 . S
Co336 O347 2.039 . S
Co336 N350 2.140 . S
C337 O338 1.227 . S
C337 O347 1.265 . S
O338 C337 1.227 . S
N339 Co336 2.121 . S
N339 C341 1.375 . S
N339 C342 1.313 . S
C340 C341 1.338 . S
C340 N343 1.377 . S
C340 H360 0.930 . S
C341 N339 1.375 . S
C341 C340 1.338 . S
C341 H345 0.931 . S
C342 N339 1.313 . S
C342 N343 1.344 . S
C342 H346 0.930 . S
N343 C340 1.377 . S
N343 C342 1.344 . S
O344 Co336 2.055 . S
O344 C348 1.253 . S
H345 C341 0.931 . S
H346 C342 0.930 . S
O347 Co336 2.039 . S
O347 C337 1.265 . S
C348 O344 1.253 . S
C348 O349 1.227 . S
O349 C348 1.227 . S
N350 Co336 2.140 . S
N350 C353 1.346 . S
N350 C354 1.345 . S
C351 C352 1.387 . S
C351 C355 1.391 . S
C352 C351 1.387 . S
C352 C353 1.369 . S
C352 H361 0.929 . S
C353 N350 1.346 . S
C353 C352 1.369 . S
C353 H356 0.928 . S
C354 N350 1.345 . S
C354 C355 1.371 . S
C354 H357 0.931 . S
C355 C351 1.391 . S
C355 C354 1.371 . S
C355 H362 0.930 1_545 S
H356 C353 0.928 . S
H357 C354 0.931 . S
H358 C334 0.930 . S
H359 C331 0.930 . S
H360 C340 0.930 . S
H361 C352 0.929 . S
H362 C355 0.930 1_565 S
C363 C364 1.351 . S
C363 N366 1.368 . S
C363 H368 0.931 . S
C364 C363 1.351 . S
C364 N365 1.373 . S
C364 H392 0.930 . S
N365 C364 1.373 . S
N365 C367 1.340 . S
N366 C363 1.368 . S
N366 C367 1.321 . S
N366 Co369 2.135 . S
C367 N365 1.340 . S
C367 N366 1.321 . S
C367 H391 0.930 . S
H368 C363 0.931 . S
Co369 N366 2.135 . S
Co369 N372 2.121 . S
Co369 O377 2.055 . S
Co369 O380 2.039 . S
Co369 N383 2.140 . S
C370 O371 1.227 . S
C370 O380 1.265 . S
O371 C370 1.227 . S
N372 Co369 2.121 . S
N372 C374 1.375 . S
N372 C375 1.313 . S
C373 C374 1.338 . S
C373 N376 1.377 . S
C373 H393 0.930 . S
C374 N372 1.375 . S
C374 C373 1.338 . S
C374 H378 0.931 . S
C375 N372 1.313 . S
C375 N376 1.344 . S
C375 H379 0.930 . S
N376 C373 1.377 . S
N376 C375 1.344 . S
O377 Co369 2.055 . S
O377 C381 1.253 . S
H378 C374 0.931 . S
H379 C375 0.930 . S
O380 Co369 2.039 . S
O380 C370 1.265 . S
C381 O377 1.253 . S
C381 O382 1.227 . S
O382 C381 1.227 . S
N383 Co369 2.140 . S
N383 C386 1.346 . S
N383 C387 1.345 . S
C384 C385 1.387 . S
C384 C388 1.391 . S
C385 C384 1.387 . S
C385 C386 1.369 . S
C385 H394 0.929 . S
C386 N383 1.346 . S
C386 C385 1.369 . S
C386 H389 0.928 . S
C387 N383 1.345 . S
C387 C388 1.371 . S
C387 H390 0.931 . S
C388 C384 1.391 . S
C388 C387 1.371 . S
C388 H395 0.930 . S
H389 C386 0.928 . S
H390 C387 0.931 . S
H391 C367 0.930 . S
H392 C364 0.930 . S
H393 C373 0.930 . S
H394 C385 0.929 . S
H395 C388 0.930 . S
C396 C397 1.351 . S
C396 N399 1.368 . S
C396 H401 0.931 . S
C397 C396 1.351 . S
C397 N398 1.373 . S
C397 H425 0.930 . S
N398 C397 1.373 . S
N398 C400 1.340 . S
N399 C396 1.368 . S
N399 C400 1.321 . S
N399 Co402 2.135 . S
C400 N398 1.340 . S
C400 N399 1.321 . S
C400 H424 0.930 . S
H401 C396 0.931 . S
Co402 N399 2.135 . S
Co402 N405 2.121 . S
Co402 O410 2.048 1_554 S
Co402 O413 2.039 . S
Co402 N416 2.140 . S
C403 O404 1.227 . S
C403 O413 1.265 . S
O404 C403 1.227 . S
N405 Co402 2.121 . S
N405 C407 1.375 . S
N405 C408 1.313 . S
C406 C407 1.338 . S
C406 N409 1.377 . S
C406 H426 0.930 . S
C407 N405 1.375 . S
C407 C406 1.338 . S
C407 H411 0.931 . S
C408 N405 1.313 . S
C408 N409 1.344 . S
C408 H412 0.935 . S
N409 C406 1.377 . S
N409 C408 1.344 . S
O410 Co402 2.048 1_556 S
O410 C414 1.253 . S
H411 C407 0.931 . S
H412 C408 0.935 . S
O413 Co402 2.039 . S
O413 C403 1.265 . S
C414 O410 1.253 . S
C414 O415 1.227 1_556 S
O415 C414 1.227 1_554 S
N416 Co402 2.140 . S
N416 C419 1.346 . S
N416 C420 1.345 . S
C417 C418 1.387 . S
C417 C421 1.391 . S
C418 C417 1.387 . S
C418 C419 1.369 . S
C418 H427 0.929 . S
C419 N416 1.346 . S
C419 C418 1.369 . S
C419 H422 0.928 . S
C420 N416 1.345 . S
C420 C421 1.371 . S
C420 H423 0.931 . S
C421 C417 1.391 . S
C421 C420 1.371 . S
C421 H428 0.930 . S
H422 C419 0.928 . S
H423 C420 0.931 . S
H424 C400 0.930 . S
H425 C397 0.930 . S
H426 C406 0.930 . S
H427 C418 0.929 . S
H428 C421 0.930 . S
C429 C430 1.351 . S
C429 N432 1.325 1_545 S
C429 H434 0.931 . S
C430 C429 1.351 . S
C430 N431 1.373 . S
C430 H458 0.930 . S
N431 C430 1.373 . S
N431 C433 1.340 1_545 S
N432 C429 1.325 1_565 S
N432 C433 1.323 . S
N432 Co435 2.167 . S
C433 N431 1.340 1_565 S
C433 N432 1.323 . S
C433 H457 0.930 . S
H434 C429 0.931 . S
Co435 N432 2.167 . S
Co435 N438 2.121 . S
Co435 O443 2.055 . S
Co435 O446 2.039 . S
Co435 N449 2.140 . S
C436 O437 1.227 . S
C436 O446 1.265 . S
O437 C436 1.227 . S
N438 Co435 2.121 . S
N438 C440 1.375 . S
N438 C441 1.313 . S
C439 C440 1.338 . S
C439 N442 1.377 . S
C439 H459 0.930 . S
C440 N438 1.375 . S
C440 C439 1.338 . S
C440 H444 0.931 . S
C441 N438 1.313 . S
C441 N442 1.344 . S
C441 H445 0.930 . S
N442 C439 1.377 . S
N442 C441 1.344 . S
O443 Co435 2.055 . S
O443 C447 1.253 . S
H444 C440 0.931 . S
H445 C441 0.930 . S
O446 Co435 2.039 . S
O446 C436 1.265 . S
C447 O443 1.253 . S
C447 O448 1.218 1_565 S
O448 C447 1.218 1_545 S
N449 Co435 2.140 . S
N449 C452 1.346 . S
N449 C453 1.345 . S
C450 C451 1.387 . S
C450 C454 1.391 . S
C451 C450 1.387 . S
C451 C452 1.369 . S
C451 H460 0.929 . S
C452 N449 1.346 . S
C452 C451 1.369 . S
C452 H455 0.928 . S
C453 N449 1.345 . S
C453 C454 1.371 . S
C453 H456 0.931 . S
C454 C450 1.391 . S
C454 C453 1.371 . S
C454 H461 0.930 . S
H455 C452 0.928 . S
H456 C453 0.931 . S
H457 C433 0.930 . S
H458 C430 0.930 . S
H459 C439 0.930 . S
H460 C451 0.929 . S
H461 C454 0.930 . S
C462 C463 1.351 . S
C462 N465 1.368 . S
C462 H467 0.931 . S
C463 C462 1.351 . S
C463 N464 1.373 . S
C463 H491 0.930 . S
N464 C463 1.373 . S
N464 C466 1.340 . S
N465 C462 1.368 . S
N465 C466 1.321 . S
N465 Co468 2.135 . S
C466 N464 1.340 . S
C466 N465 1.321 . S
C466 H490 0.930 . S
H467 C462 0.931 . S
Co468 N465 2.135 . S
Co468 N471 2.121 . S
Co468 O476 2.055 . S
Co468 O479 2.039 . S
Co468 N482 2.140 . S
C469 O470 1.227 . S
C469 O479 1.265 . S
O470 C469 1.227 . S
N471 Co468 2.121 . S
N471 C473 1.375 . S
N471 C474 1.313 . S
C472 C473 1.338 . S
C472 N475 1.377 . S
C472 H492 0.930 . S
C473 N471 1.375 . S
C473 C472 1.338 . S
C473 H477 0.931 . S
C474 N471 1.313 . S
C474 N475 1.344 . S
C474 H478 0.930 . S
N475 C472 1.377 . S
N475 C474 1.344 . S
O476 Co468 2.055 . S
O476 C480 1.253 . S
H477 C473 0.931 . S
H478 C474 0.930 . S
O479 Co468 2.039 . S
O479 C469 1.265 . S
C480 O476 1.253 . S
C480 O481 1.227 . S
O481 C480 1.227 . S
N482 Co468 2.140 . S
N482 C485 1.346 . S
N482 C486 1.345 . S
C483 C484 1.387 . S
C483 C487 1.391 . S
C484 C483 1.387 . S
C484 C485 1.369 . S
C484 H493 0.929 . S
C485 N482 1.346 . S
C485 C484 1.369 . S
C485 H488 0.928 . S
C486 N482 1.345 . S
C486 C487 1.371 . S
C486 H489 0.931 . S
C487 C483 1.391 . S
C487 C486 1.371 . S
C487 H494 0.930 . S
H488 C485 0.928 . S
H489 C486 0.931 . S
H490 C466 0.930 . S
H491 C463 0.930 . S
H492 C472 0.930 . S
H493 C484 0.929 . S
H494 C487 0.930 . S
C495 C496 1.351 . S
C495 N498 1.368 . S
C495 H500 0.931 . S
C496 C495 1.351 . S
C496 N497 1.373 . S
C496 H524 0.930 . S
N497 C496 1.373 . S
N497 C499 1.340 . S
N498 C495 1.368 . S
N498 C499 1.321 . S
N498 Co501 2.135 . S
C499 N497 1.340 . S
C499 N498 1.321 . S
C499 H523 0.930 . S
H500 C495 0.931 . S
Co501 N498 2.135 . S
Co501 N504 2.121 . S
Co501 O509 2.055 . S
Co501 O512 2.039 . S
Co501 N515 2.140 . S
C502 O503 1.227 . S
C502 O512 1.265 . S
O503 C502 1.227 . S
N504 Co501 2.121 . S
N504 C506 1.375 . S
N504 C507 1.313 . S
C505 C506 1.338 . S
C505 N508 1.377 . S
C505 H525 0.930 . S
C506 N504 1.375 . S
C506 C505 1.338 . S
C506 H510 0.931 . S
C507 N504 1.313 . S
C507 N508 1.344 . S
C507 H511 0.930 . S
N508 C505 1.377 . S
N508 C507 1.344 . S
O509 Co501 2.055 . S
O509 C513 1.253 . S
H510 C506 0.931 . S
H511 C507 0.930 . S
O512 Co501 2.039 . S
O512 C502 1.265 . S
C513 O509 1.253 . S
C513 O514 1.227 . S
O514 C513 1.227 . S
N515 Co501 2.140 . S
N515 C518 1.346 . S
N515 C519 1.345 . S
C516 C517 1.387 . S
C516 C520 1.391 . S
C517 C516 1.387 . S
C517 C518 1.369 . S
C517 H526 0.929 . S
C518 N515 1.346 . S
C518 C517 1.369 . S
C518 H521 0.928 . S
C519 N515 1.345 . S
C519 C520 1.371 . S
C519 H522 0.931 . S
C520 C516 1.391 . S
C520 C519 1.371 . S
C520 H527 0.930 . S
H521 C518 0.928 . S
H522 C519 0.931 . S
H523 C499 0.930 . S
H524 C496 0.930 . S
H525 C505 0.930 . S
H526 C517 0.929 . S
H527 C520 0.930 . S
C528 C529 1.351 1_554 S
C528 N531 1.368 . S
C528 H533 0.931 . S
C529 C528 1.351 1_556 S
C529 N530 1.373 . S
C529 H557 0.930 . S
N530 C529 1.373 . S
N530 C532 1.340 . S
N531 C528 1.368 . S
N531 C532 1.321 1_554 S
N531 Co534 2.135 . S
C532 N530 1.340 . S
C532 N531 1.321 1_556 S
C532 H556 0.930 . S
H533 C528 0.931 . S
Co534 N531 2.135 . S
Co534 N537 2.121 . S
Co534 O542 2.055 . S
Co534 O545 2.039 . S
Co534 N548 2.140 . S
C535 O536 1.227 . S
C535 O545 1.265 . S
O536 C535 1.227 . S
N537 Co534 2.121 . S
N537 C539 1.375 . S
N537 C540 1.313 . S
C538 C539 1.338 . S
C538 N541 1.377 . S
C538 H558 0.930 . S
C539 N537 1.375 . S
C539 C538 1.338 . S
C539 H543 0.931 . S
C540 N537 1.313 . S
C540 N541 1.344 . S
C540 H544 0.930 . S
N541 C538 1.377 . S
N541 C540 1.344 . S
O542 Co534 2.055 . S
O542 C546 1.253 . S
H543 C539 0.931 . S
H544 C540 0.930 . S
O545 Co534 2.039 . S
O545 C535 1.265 . S
C546 O542 1.253 . S
C546 O547 1.227 . S
O547 C546 1.227 . S
N548 Co534 2.140 . S
N548 C551 1.346 . S
N548 C552 1.345 . S
C549 C550 1.387 . S
C549 C553 1.391 1_655 S
C550 C549 1.387 . S
C550 C551 1.369 1_655 S
C550 H559 0.929 . S
C551 N548 1.346 . S
C551 C550 1.369 1_455 S
C551 H554 0.928 . S
C552 N548 1.345 . S
C552 C553 1.371 . S
C552 H555 0.931 . S
C553 C549 1.391 1_455 S
C553 C552 1.371 . S
C553 H560 0.930 . S
H554 C551 0.928 . S
H555 C552 0.931 . S
H556 C532 0.930 . S
H557 C529 0.930 . S
H558 C538 0.930 . S
H559 C550 0.929 . S
H560 C553 0.930 . S
C561 C562 1.351 . S
C561 N564 1.368 . S
C561 H566 0.931 . S
C562 C561 1.351 . S
C562 N563 1.373 . S
C562 H590 0.930 . S
N563 C562 1.373 . S
N563 C565 1.340 . S
N564 C561 1.368 . S
N564 C565 1.321 . S
N564 Co567 2.135 . S
C565 N563 1.340 . S
C565 N564 1.321 . S
C565 H589 0.930 . S
H566 C561 0.931 . S
Co567 N564 2.135 . S
Co567 N570 2.121 . S
Co567 O575 2.055 . S
Co567 O578 2.039 . S
Co567 N581 2.140 . S
C568 O569 1.227 . S
C568 O578 1.265 . S
O569 C568 1.227 . S
N570 Co567 2.121 . S
N570 C572 1.375 . S
N570 C573 1.313 . S
C571 C572 1.338 . S
C571 N574 1.377 . S
C571 H591 0.930 . S
C572 N570 1.375 . S
C572 C571 1.338 . S
C572 H576 0.931 . S
C573 N570 1.313 . S
C573 N574 1.344 . S
C573 H577 0.930 . S
N574 C571 1.377 . S
N574 C573 1.344 . S
O575 Co567 2.055 . S
O575 C579 1.253 . S
H576 C572 0.931 . S
H577 C573 0.930 . S
O578 Co567 2.039 . S
O578 C568 1.265 . S
C579 O575 1.253 . S
C579 O580 1.227 . S
O580 C579 1.227 . S
N581 Co567 2.140 . S
N581 C584 1.346 . S
N581 C585 1.345 . S
C582 C583 1.387 . S
C582 C586 1.391 . S
C583 C582 1.387 . S
C583 C584 1.369 . S
C583 H592 0.929 . S
C584 N581 1.346 . S
C584 C583 1.369 . S
C584 H587 0.928 . S
C585 N581 1.345 . S
C585 C586 1.371 . S
C585 H588 0.931 . S
C586 C582 1.391 . S
C586 C585 1.371 . S
C586 H593 0.930 1_554 S
H587 C584 0.928 . S
H588 C585 0.931 . S
H589 C565 0.930 . S
H590 C562 0.930 . S
H591 C571 0.930 . S
H592 C583 0.929 . S
H593 C586 0.930 1_556 S
C594 C595 1.351 . S
C594 N597 1.368 . S
C594 H599 0.931 . S
C595 C594 1.351 . S
C595 N596 1.373 . S
C595 H623 0.930 . S
N596 C595 1.373 . S
N596 C598 1.340 . S
N597 C594 1.368 . S
N597 C598 1.321 . S
N597 Co600 2.135 . S
C598 N596 1.340 . S
C598 N597 1.321 . S
C598 H622 0.930 . S
H599 C594 0.931 . S
Co600 N597 2.135 . S
Co600 N603 2.121 . S
Co600 O608 2.055 . S
Co600 O611 2.039 . S
Co600 N614 2.140 . S
C601 O602 1.227 . S
C601 O611 1.265 . S
O602 C601 1.227 . S
N603 Co600 2.121 . S
N603 C605 1.375 . S
N603 C606 1.313 . S
C604 C605 1.338 . S
C604 N607 1.377 . S
C604 H624 0.930 . S
C605 N603 1.375 . S
C605 C604 1.338 . S
C605 H609 0.931 . S
C606 N603 1.313 . S
C606 N607 1.344 . S
C606 H610 0.930 . S
N607 C604 1.377 . S
N607 C606 1.344 . S
O608 Co600 2.055 . S
O608 C612 1.253 . S
H609 C605 0.931 . S
H610 C606 0.930 . S
O611 Co600 2.039 . S
O611 C601 1.265 . S
C612 O608 1.253 . S
C612 O613 1.227 . S
O613 C612 1.227 . S
N614 Co600 2.140 . S
N614 C617 1.346 . S
N614 C618 1.345 . S
C615 C616 1.387 . S
C615 C619 1.391 . S
C616 C615 1.387 . S
C616 C617 1.369 . S
C616 H625 0.929 . S
C617 N614 1.346 . S
C617 C616 1.369 . S
C617 H620 0.928 . S
C618 N614 1.345 . S
C618 C619 1.371 . S
C618 H621 0.931 . S
C619 C615 1.391 . S
C619 C618 1.371 . S
C619 H626 0.930 . S
H620 C617 0.928 . S
H621 C618 0.931 . S
H622 C598 0.930 . S
H623 C595 0.930 . S
H624 C604 0.930 . S
H625 C616 0.929 . S
H626 C619 0.930 . S
C627 C628 1.351 . S
C627 N630 1.368 . S
C627 H632 0.931 . S
C628 C627 1.351 . S
C628 N629 1.373 . S
C628 H656 0.930 . S
N629 C628 1.373 . S
N629 C631 1.340 . S
N630 C627 1.368 . S
N630 C631 1.321 . S
N630 Co633 2.135 . S
C631 N629 1.340 . S
C631 N630 1.321 . S
C631 H655 0.930 . S
H632 C627 0.931 . S
Co633 N630 2.135 . S
Co633 N636 2.121 . S
Co633 O641 2.048 1_455 S
Co633 O644 2.039 . S
Co633 N647 2.140 . S
C634 O635 1.227 . S
C634 O644 1.265 . S
O635 C634 1.227 . S
N636 Co633 2.121 . S
N636 C638 1.375 . S
N636 C639 1.313 . S
C637 C638 1.338 . S
C637 N640 1.377 . S
C637 H657 0.930 . S
C638 N636 1.375 . S
C638 C637 1.338 . S
C638 H642 0.931 . S
C639 N636 1.313 . S
C639 N640 1.344 . S
C639 H643 0.935 . S
N640 C637 1.377 . S
N640 C639 1.344 . S
O641 Co633 2.048 1_655 S
O641 C645 1.253 . S
H642 C638 0.931 . S
H643 C639 0.935 . S
O644 Co633 2.039 . S
O644 C634 1.265 . S
C645 O641 1.253 . S
C645 O646 1.227 1_655 S
O646 C645 1.227 1_455 S
N647 Co633 2.140 . S
N647 C650 1.346 . S
N647 C651 1.345 . S
C648 C649 1.387 . S
C648 C652 1.391 . S
C649 C648 1.387 . S
C649 C650 1.369 . S
C649 H658 0.929 . S
C650 N647 1.346 . S
C650 C649 1.369 . S
C650 H653 0.928 . S
C651 N647 1.345 . S
C651 C652 1.371 . S
C651 H654 0.931 . S
C652 C648 1.391 . S
C652 C651 1.371 . S
C652 H659 0.930 . S
H653 C650 0.928 . S
H654 C651 0.931 . S
H655 C631 0.930 . S
H656 C628 0.930 . S
H657 C637 0.930 . S
H658 C649 0.929 . S
H659 C652 0.930 . S
C660 C661 1.351 . S
C660 N663 1.368 . S
C660 H665 0.931 . S
C661 C660 1.351 . S
C661 N662 1.373 . S
C661 H689 0.930 . S
N662 C661 1.373 . S
N662 C664 1.340 . S
N663 C660 1.368 . S
N663 C664 1.321 . S
N663 Co666 2.135 . S
C664 N662 1.340 . S
C664 N663 1.321 . S
C664 H688 0.930 . S
H665 C660 0.931 . S
Co666 N663 2.135 . S
Co666 N669 2.121 . S
Co666 O674 2.055 . S
Co666 O677 2.039 . S
Co666 N680 2.140 . S
C667 O668 1.227 . S
C667 O677 1.265 . S
O668 C667 1.227 . S
N669 Co666 2.121 . S
N669 C671 1.375 . S
N669 C672 1.313 . S
C670 C671 1.338 . S
C670 N673 1.377 . S
C670 H690 0.930 . S
C671 N669 1.375 . S
C671 C670 1.338 . S
C671 H675 0.931 . S
C672 N669 1.313 . S
C672 N673 1.344 . S
C672 H676 0.930 . S
N673 C670 1.377 . S
N673 C672 1.344 . S
O674 Co666 2.055 . S
O674 C678 1.253 . S
H675 C671 0.931 . S
H676 C672 0.930 . S
O677 Co666 2.039 . S
O677 C667 1.265 . S
C678 O674 1.253 . S
C678 O679 1.227 . S
O679 C678 1.227 . S
N680 Co666 2.140 . S
N680 C683 1.346 . S
N680 C684 1.345 . S
C681 C682 1.387 . S
C681 C685 1.391 . S
C682 C681 1.387 . S
C682 C683 1.369 . S
C682 H691 0.929 . S
C683 N680 1.346 . S
C683 C682 1.369 . S
C683 H686 0.928 . S
C684 N680 1.345 . S
C684 C685 1.371 . S
C684 H687 0.931 . S
C685 C681 1.391 . S
C685 C684 1.371 . S
C685 H692 0.930 . S
H686 C683 0.928 . S
H687 C684 0.931 . S
H688 C664 0.930 . S
H689 C661 0.930 . S
H690 C670 0.930 . S
H691 C682 0.929 . S
H692 C685 0.930 . S
C693 C694 1.351 . S
C693 N696 1.368 . S
C693 H698 0.931 . S
C694 C693 1.351 . S
C694 N695 1.373 . S
C694 H722 0.930 . S
N695 C694 1.373 . S
N695 C697 1.340 . S
N696 C693 1.368 . S
N696 C697 1.321 . S
N696 Co699 2.135 . S
C697 N695 1.340 . S
C697 N696 1.321 . S
C697 H721 0.930 . S
H698 C693 0.931 . S
Co699 N696 2.135 . S
Co699 N702 2.121 . S
Co699 O707 2.055 . S
Co699 O710 2.039 . S
Co699 N713 2.140 . S
C700 O701 1.227 . S
C700 O710 1.265 . S
O701 C700 1.227 . S
N702 Co699 2.121 . S
N702 C704 1.375 . S
N702 C705 1.313 . S
C703 C704 1.338 . S
C703 N706 1.377 . S
C703 H723 0.930 . S
C704 N702 1.375 . S
C704 C703 1.338 . S
C704 H708 0.931 . S
C705 N702 1.313 . S
C705 N706 1.344 . S
C705 H709 0.930 . S
N706 C703 1.377 . S
N706 C705 1.344 . S
O707 Co699 2.055 . S
O707 C711 1.253 . S
H708 C704 0.931 . S
H709 C705 0.930 . S
O710 Co699 2.039 . S
O710 C700 1.265 . S
C711 O707 1.253 . S
C711 O712 1.227 . S
O712 C711 1.227 . S
N713 Co699 2.140 . S
N713 C716 1.346 . S
N713 C717 1.345 . S
C714 C715 1.387 . S
C714 C718 1.391 . S
C715 C714 1.387 . S
C715 C716 1.369 . S
C715 H724 0.929 . S
C716 N713 1.346 . S
C716 C715 1.369 . S
C716 H719 0.928 . S
C717 N713 1.345 . S
C717 C718 1.371 . S
C717 H720 0.931 . S
C718 C714 1.391 . S
C718 C717 1.371 . S
C718 H725 0.930 . S
H719 C716 0.928 . S
H720 C717 0.931 . S
H721 C697 0.930 . S
H722 C694 0.930 . S
H723 C703 0.930 . S
H724 C715 0.929 . S
H725 C718 0.930 . S
C726 C727 1.351 . S
C726 N729 1.325 1_455 S
C726 H731 0.931 . S
C727 C726 1.351 . S
C727 N728 1.373 . S
C727 H755 0.930 . S
N728 C727 1.373 . S
N728 C730 1.340 1_455 S
N729 C726 1.325 1_655 S
N729 C730 1.323 . S
N729 Co732 2.167 . S
C730 N728 1.340 1_655 S
C730 N729 1.323 . S
C730 H754 0.930 . S
H731 C726 0.931 . S
Co732 N729 2.167 . S
Co732 N735 2.121 . S
Co732 O740 2.055 . S
Co732 O743 2.039 . S
Co732 N746 2.140 . S
C733 O734 1.227 . S
C733 O743 1.265 . S
O734 C733 1.227 . S
N735 Co732 2.121 . S
N735 C737 1.375 . S
N735 C738 1.313 . S
C736 C737 1.338 . S
C736 N739 1.377 . S
C736 H756 0.930 . S
C737 N735 1.375 . S
C737 C736 1.338 . S
C737 H741 0.931 . S
C738 N735 1.313 . S
C738 N739 1.344 . S
C738 H742 0.930 . S
N739 C736 1.377 . S
N739 C738 1.344 . S
O740 Co732 2.055 . S
O740 C744 1.253 . S
H741 C737 0.931 . S
H742 C738 0.930 . S
O743 Co732 2.039 . S
O743 C733 1.265 . S
C744 O740 1.253 . S
C744 O745 1.218 1_655 S
O745 C744 1.218 1_455 S
N746 Co732 2.140 . S
N746 C749 1.346 . S
N746 C750 1.345 . S
C747 C748 1.387 . S
C747 C751 1.391 . S
C748 C747 1.387 . S
C748 C749 1.369 . S
C748 H757 0.929 . S
C749 N746 1.346 . S
C749 C748 1.369 . S
C749 H752 0.928 . S
C750 N746 1.345 . S
C750 C751 1.371 . S
C750 H753 0.931 . S
C751 C747 1.391 . S
C751 C750 1.371 . S
C751 H758 0.930 . S
H752 C749 0.928 . S
H753 C750 0.931 . S
H754 C730 0.930 . S
H755 C727 0.930 . S
H756 C736 0.930 . S
H757 C748 0.929 . S
H758 C751 0.930 . S
C759 C760 1.351 . S
C759 N762 1.368 . S
C759 H764 0.931 . S
C760 C759 1.351 . S
C760 N761 1.373 . S
C760 H788 0.930 . S
N761 C760 1.373 . S
N761 C763 1.340 . S
N762 C759 1.368 . S
N762 C763 1.321 . S
N762 Co765 2.135 . S
C763 N761 1.340 . S
C763 N762 1.321 . S
C763 H787 0.930 . S
H764 C759 0.931 . S
Co765 N762 2.135 . S
Co765 N768 2.121 . S
Co765 O773 2.055 . S
Co765 O776 2.039 . S
Co765 N779 2.140 . S
C766 O767 1.227 . S
C766 O776 1.265 . S
O767 C766 1.227 . S
N768 Co765 2.121 . S
N768 C770 1.375 . S
N768 C771 1.313 . S
C769 C770 1.338 . S
C769 N772 1.377 . S
C769 H789 0.930 . S
C770 N768 1.375 . S
C770 C769 1.338 . S
C770 H774 0.931 . S
C771 N768 1.313 . S
C771 N772 1.344 . S
C771 H775 0.930 . S
N772 C769 1.377 . S
N772 C771 1.344 . S
O773 Co765 2.055 . S
O773 C777 1.253 . S
H774 C770 0.931 . S
H775 C771 0.930 . S
O776 Co765 2.039 . S
O776 C766 1.265 . S
C777 O773 1.253 . S
C777 O778 1.227 . S
O778 C777 1.227 . S
N779 Co765 2.140 . S
N779 C782 1.346 . S
N779 C783 1.345 . S
C780 C781 1.387 . S
C780 C784 1.391 . S
C781 C780 1.387 . S
C781 C782 1.369 . S
C781 H790 0.929 . S
C782 N779 1.346 . S
C782 C781 1.369 . S
C782 H785 0.928 . S
C783 N779 1.345 . S
C783 C784 1.371 . S
C783 H786 0.931 . S
C784 C780 1.391 . S
C784 C783 1.371 . S
C784 H791 0.930 . S
H785 C782 0.928 . S
H786 C783 0.931 . S
H787 C763 0.930 . S
H788 C760 0.930 . S
H789 C769 0.930 . S
H790 C781 0.929 . S
H791 C784 0.930 . S
H792 C810 0.951 . S
H793 C812 0.951 . S
H794 C814 0.950 . S
H795 C815 0.950 . S
H796 C817 0.950 . S
H797 C820 0.950 . S
H798 C821 0.950 . S
H799 C823 0.950 . S
H800 C824 0.950 . S
H801 C825 0.951 . S
H802 C827 0.951 . S
H803 C829 0.950 . S
H804 C830 0.950 . S
H805 C832 0.950 . S
H806 C835 0.950 . S
H807 C836 0.950 . S
H808 C838 0.950 1_655 S
H809 C839 0.950 . S
C810 H792 0.951 . S
C810 C811 1.366 . S
C810 C812 1.388 . S
C811 C810 1.366 . S
C811 C815 1.385 . S
C812 H793 0.951 . S
C812 C810 1.388 . S
C812 C813 1.366 . S
C813 C812 1.366 . S
C813 C814 1.414 . S
C813 C816 1.499 . S
C814 H794 0.950 . S
C814 C813 1.414 . S
C814 C815 1.374 . S
C815 H795 0.950 . S
C815 C811 1.385 . S
C815 C814 1.374 . S
C816 C813 1.499 . S
C816 C817 1.373 . S
C816 C818 1.389 . S
C817 H796 0.950 . S
C817 C816 1.373 . S
C817 C833 1.377 . S
C818 C816 1.389 . S
C818 C819 1.524 . S
C818 C832 1.377 . S
C819 C818 1.524 . S
C819 C820 1.397 . S
C819 C824 1.363 . S
C820 H797 0.950 . S
C820 C819 1.397 . S
C820 C821 1.334 . S
C821 H798 0.950 . S
C821 C820 1.334 . S
C821 C822 1.287 . S
C822 C821 1.287 . S
C822 C823 1.524 . S
C822 H841 0.913 . S
C823 H799 0.950 . S
C823 C822 1.524 . S
C823 C824 1.415 . S
C824 H800 0.950 . S
C824 C819 1.363 . S
C824 C823 1.415 . S
C825 H801 0.951 . S
C825 C826 1.366 . S
C825 C827 1.388 . S
C826 C825 1.366 . S
C826 C830 1.385 . S
C827 H802 0.951 . S
C827 C825 1.388 . S
C827 C828 1.366 . S
C828 C827 1.366 . S
C828 C829 1.414 . S
C828 C831 1.499 . S
C829 H803 0.950 . S
C829 C828 1.414 . S
C829 C830 1.374 . S
C830 H804 0.950 . S
C830 C826 1.385 . S
C830 C829 1.374 . S
C831 C828 1.499 . S
C831 C832 1.373 . S
C831 C833 1.389 . S
C832 H805 0.950 . S
C832 C818 1.377 . S
C832 C831 1.373 . S
C833 C817 1.377 . S
C833 C831 1.389 . S
C833 C834 1.524 . S
C834 C833 1.524 . S
C834 C835 1.397 . S
C834 C839 1.363 . S
C835 H806 0.950 . S
C835 C834 1.397 . S
C835 C836 1.334 . S
C836 H807 0.950 . S
C836 C835 1.334 . S
C836 C837 1.287 . S
C837 C836 1.287 . S
C837 C838 1.524 . S
C837 H840 0.999 . S
C838 H808 0.950 1_455 S
C838 C837 1.524 . S
C838 C839 1.415 . S
C839 H809 0.950 . S
C839 C834 1.363 . S
C839 C838 1.415 . S
H840 C837 0.999 . S
H841 C822 0.913 . S
H842 C860 0.951 . S
H843 C862 0.951 . S
H844 C864 0.950 . S
H845 C865 0.950 . S
H846 C867 0.950 . S
H847 C870 0.950 . S
H848 C871 0.950 . S
H849 C873 0.950 . S
H850 C874 0.950 . S
H851 C875 0.951 . S
H852 C877 0.951 . S
H853 C879 0.950 . S
H854 C880 0.950 . S
H855 C882 0.950 . S
H856 C885 0.950 . S
H857 C886 0.950 . S
H858 C888 0.950 . S
H859 C889 0.950 . S
C860 H842 0.951 . S
C860 C861 1.366 1_556 S
C860 C862 1.388 . S
C861 C860 1.366 1_554 S
C861 C865 1.385 . S
C862 H843 0.951 . S
C862 C860 1.388 . S
C862 C863 1.366 1_556 S
C863 C862 1.366 1_554 S
C863 C864 1.414 . S
C863 C866 1.499 . S
C864 H844 0.950 . S
C864 C863 1.414 . S
C864 C865 1.374 . S
C865 H845 0.950 . S
C865 C861 1.385 . S
C865 C864 1.374 . S
C866 C863 1.499 . S
C866 C867 1.373 . S
C866 C868 1.389 1_554 S
C867 H846 0.950 . S
C867 C866 1.373 . S
C867 C883 1.377 . S
C868 C866 1.389 1_556 S
C868 C869 1.524 . S
C868 C882 1.377 . S
C869 C868 1.524 . S
C869 C870 1.397 . S
C869 C874 1.363 . S
C870 H847 0.950 . S
C870 C869 1.397 . S
C870 C871 1.334 . S
C871 H848 0.950 . S
C871 C870 1.334 . S
C871 C872 1.287 . S
C872 C871 1.287 . S
C872 C873 1.524 . S
C872 H891 0.913 . S
C873 H849 0.950 . S
C873 C872 1.524 . S
C873 C874 1.415 . S
C874 H850 0.950 . S
C874 C869 1.363 . S
C874 C873 1.415 . S
C875 H851 0.951 . S
C875 C876 1.400 . S
C875 C877 1.388 . S
C876 C875 1.400 . S
C876 C880 1.353 1_554 S
C877 H852 0.951 . S
C877 C875 1.388 . S
C877 C878 1.366 . S
C878 C877 1.366 . S
C878 C879 1.414 1_554 S
C878 C881 1.499 . S
C879 H853 0.950 . S
C879 C878 1.414 1_556 S
C879 C880 1.374 . S
C880 H854 0.950 . S
C880 C876 1.353 1_556 S
C880 C879 1.374 . S
C881 C878 1.499 . S
C881 C882 1.373 1_554 S
C881 C883 1.389 . S
C882 H855 0.950 . S
C882 C868 1.377 . S
C882 C881 1.373 1_556 S
C883 C867 1.377 . S
C883 C881 1.389 . S
C883 C884 1.524 . S
C884 C883 1.524 . S
C884 C885 1.397 . S
C884 C889 1.363 . S
C885 H856 0.950 . S
C885 C884 1.397 . S
C885 C886 1.334 . S
C886 H857 0.950 . S
C886 C885 1.334 . S
C886 C887 1.287 . S
C887 C886 1.287 . S
C887 C888 1.524 . S
C887 H890 0.999 . S
C888 H858 0.950 . S
C888 C887 1.524 . S
C888 C889 1.415 . S
C889 H859 0.950 . S
C889 C884 1.363 . S
C889 C888 1.415 . S
H890 C887 0.999 . S
H891 C872 0.913 . S
H892 C910 0.951 . S
H893 C912 0.951 . S
H894 C914 0.950 . S
H895 C915 0.950 . S
H896 C917 0.950 . S
H897 C920 0.950 . S
H898 C921 0.950 . S
H899 C923 0.950 . S
H900 C924 0.950 . S
H901 C925 0.951 . S
H902 C927 0.951 . S
H903 C929 0.950 . S
H904 C930 0.950 . S
H905 C932 0.950 . S
H906 C935 0.950 . S
H907 C936 0.950 . S
H908 C938 0.950 . S
H909 C939 0.950 . S
C910 H892 0.951 . S
C910 C911 1.366 . S
C910 C912 1.388 . S
C911 C910 1.366 . S
C911 C915 1.385 . S
C912 H893 0.951 . S
C912 C910 1.388 . S
C912 C913 1.366 . S
C913 C912 1.366 . S
C913 C914 1.414 . S
C913 C916 1.499 . S
C914 H894 0.950 . S
C914 C913 1.414 . S
C914 C915 1.374 . S
C915 H895 0.950 . S
C915 C911 1.385 . S
C915 C914 1.374 . S
C916 C913 1.499 . S
C916 C917 1.373 . S
C916 C918 1.389 . S
C917 H896 0.950 . S
C917 C916 1.373 . S
C917 C933 1.377 . S
C918 C916 1.389 . S
C918 C919 1.524 . S
C918 C932 1.377 . S
C919 C918 1.524 . S
C919 C920 1.397 . S
C919 C924 1.363 . S
C920 H897 0.950 . S
C920 C919 1.397 . S
C920 C921 1.334 . S
C921 H898 0.950 . S
C921 C920 1.334 . S
C921 C922 1.287 . S
C922 C921 1.287 . S
C922 C923 1.524 . S
C922 H941 0.913 . S
C923 H899 0.950 . S
C923 C922 1.524 . S
C923 C924 1.415 . S
C924 H900 0.950 . S
C924 C919 1.363 . S
C924 C923 1.415 . S
C925 H901 0.951 . S
C925 C926 1.366 . S
C925 C927 1.388 . S
C926 C925 1.366 . S
C926 C930 1.385 . S
C927 H902 0.951 . S
C927 C925 1.388 . S
C927 C928 1.366 . S
C928 C927 1.366 . S
C928 C929 1.414 . S
C928 C931 1.499 . S
C929 H903 0.950 . S
C929 C928 1.414 . S
C929 C930 1.374 . S
C930 H904 0.950 . S
C930 C926 1.385 . S
C930 C929 1.374 . S
C931 C928 1.499 . S
C931 C932 1.373 . S
C931 C933 1.389 . S
C932 H905 0.950 . S
C932 C918 1.377 . S
C932 C931 1.373 . S
C933 C917 1.377 . S
C933 C931 1.389 . S
C933 C934 1.524 . S
C934 C933 1.524 . S
C934 C935 1.397 . S
C934 C939 1.363 . S
C935 H906 0.950 . S
C935 C934 1.397 . S
C935 C936 1.334 . S
C936 H907 0.950 . S
C936 C935 1.334 . S
C936 C937 1.287 . S
C937 C936 1.287 . S
C937 C938 1.524 . S
C937 H940 0.999 . S
C938 H908 0.950 . S
C938 C937 1.524 . S
C938 C939 1.415 . S
C939 H909 0.950 . S
C939 C934 1.363 . S
C939 C938 1.415 . S
H940 C937 0.999 . S
H941 C922 0.913 . S
H942 C960 0.951 . S
H943 C962 0.951 . S
H944 C964 0.950 . S
H945 C965 0.950 . S
H946 C967 0.950 . S
H947 C970 0.950 . S
H948 C971 0.950 . S
H949 C973 0.950 . S
H950 C974 0.950 . S
H951 C975 0.951 . S
H952 C977 0.951 . S
H953 C979 0.950 . S
H954 C980 0.950 . S
H955 C982 0.950 . S
H956 C985 0.950 . S
H957 C986 0.950 . S
H958 C988 0.950 . S
H959 C989 0.950 . S
C960 H942 0.951 . S
C960 C961 1.366 . S
C960 C962 1.388 . S
C961 C960 1.366 . S
C961 C965 1.385 . S
C962 H943 0.951 . S
C962 C960 1.388 . S
C962 C963 1.366 . S
C963 C962 1.366 . S
C963 C964 1.414 . S
C963 C966 1.499 . S
C964 H944 0.950 . S
C964 C963 1.414 . S
C964 C965 1.374 . S
C965 H945 0.950 . S
C965 C961 1.385 . S
C965 C964 1.374 . S
C966 C963 1.499 . S
C966 C967 1.373 . S
C966 C968 1.389 . S
C967 H946 0.950 . S
C967 C966 1.373 . S
C967 C983 1.377 . S
C968 C966 1.389 . S
C968 C969 1.524 . S
C968 C982 1.377 . S
C969 C968 1.524 . S
C969 C970 1.397 . S
C969 C974 1.363 . S
C970 H947 0.950 . S
C970 C969 1.397 . S
C970 C971 1.334 . S
C971 H948 0.950 . S
C971 C970 1.334 . S
C971 C972 1.287 . S
C972 C971 1.287 . S
C972 C973 1.524 . S
C972 H991 0.913 . S
C973 H949 0.950 . S
C973 C972 1.524 . S
C973 C974 1.415 . S
C974 H950 0.950 . S
C974 C969 1.363 . S
C974 C973 1.415 . S
C975 H951 0.951 . S
C975 C976 1.366 . S
C975 C977 1.388 . S
C976 C975 1.366 . S
C976 C980 1.385 . S
C977 H952 0.951 . S
C977 C975 1.388 . S
C977 C978 1.366 . S
C978 C977 1.366 . S
C978 C979 1.414 . S
C978 C981 1.499 . S
C979 H953 0.950 . S
C979 C978 1.414 . S
C979 C980 1.374 . S
C980 H954 0.950 . S
C980 C976 1.385 . S
C980 C979 1.374 . S
C981 C978 1.499 . S
C981 C982 1.373 . S
C981 C983 1.389 . S
C982 H955 0.950 . S
C982 C968 1.377 . S
C982 C981 1.373 . S
C983 C967 1.377 . S
C983 C981 1.389 . S
C983 C984 1.524 . S
C984 C983 1.524 . S
C984 C985 1.397 . S
C984 C989 1.363 . S
C985 H956 0.950 . S
C985 C984 1.397 . S
C985 C986 1.334 . S
C986 H957 0.950 . S
C986 C985 1.334 . S
C986 C987 1.287 . S
C987 C986 1.287 . S
C987 C988 1.524 . S
C987 H990 0.999 . S
C988 H958 0.950 . S
C988 C987 1.524 . S
C988 C989 1.415 . S
C989 H959 0.950 . S
C989 C984 1.363 . S
C989 C988 1.415 . S
H990 C987 0.999 . S
H991 C972 0.913 . S
H992 C1010 0.951 . S
H993 C1012 0.951 . S
H994 C1014 0.950 . S
H995 C1015 0.950 . S
H996 C1017 0.950 . S
H997 C1020 0.950 . S
H998 C1021 0.950 . S
H999 C1023 0.950 . S
H1000 C1024 0.950 . S
H1001 C1025 0.951 . S
H1002 C1027 0.951 . S
H1003 C1029 0.950 . S
H1004 C1030 0.950 . S
H1005 C1032 0.950 . S
H1006 C1035 0.950 . S
H1007 C1036 0.950 . S
H1008 C1038 0.950 . S
H1009 C1039 0.950 . S
C1010 H992 0.951 . S
C1010 C1011 1.366 . S
C1010 C1012 1.388 . S
C1011 C1010 1.366 . S
C1011 C1015 1.385 . S
C1012 H993 0.951 . S
C1012 C1010 1.388 . S
C1012 C1013 1.366 . S
C1013 C1012 1.366 . S
C1013 C1014 1.414 . S
C1013 C1016 1.499 . S
C1014 H994 0.950 . S
C1014 C1013 1.414 . S
C1014 C1015 1.374 . S
C1015 H995 0.950 . S
C1015 C1011 1.385 . S
C1015 C1014 1.374 . S
C1016 C1013 1.499 . S
C1016 C1017 1.373 . S
C1016 C1018 1.389 . S
C1017 H996 0.950 . S
C1017 C1016 1.373 . S
C1017 C1033 1.377 . S
C1018 C1016 1.389 . S
C1018 C1019 1.524 . S
C1018 C1032 1.377 . S
C1019 C1018 1.524 . S
C1019 C1020 1.397 . S
C1019 C1024 1.363 . S
C1020 H997 0.950 . S
C1020 C1019 1.397 . S
C1020 C1021 1.334 . S
C1021 H998 0.950 . S
C1021 C1020 1.334 . S
C1021 C1022 1.287 . S
C1022 C1021 1.287 . S
C1022 C1023 1.524 . S
C1022 H1041 0.913 . S
C1023 H999 0.950 . S
C1023 C1022 1.524 . S
C1023 C1024 1.415 . S
C1024 H1000 0.950 . S
C1024 C1019 1.363 . S
C1024 C1023 1.415 . S
C1025 H1001 0.951 . S
C1025 C1026 1.366 . S
C1025 C1027 1.388 . S
C1026 C1025 1.366 . S
C1026 C1030 1.385 . S
C1027 H1002 0.951 . S
C1027 C1025 1.388 . S
C1027 C1028 1.366 . S
C1028 C1027 1.366 . S
C1028 C1029 1.414 . S
C1028 C1031 1.499 . S
C1029 H1003 0.950 . S
C1029 C1028 1.414 . S
C1029 C1030 1.374 . S
C1030 H1004 0.950 . S
C1030 C1026 1.385 . S
C1030 C1029 1.374 . S
C1031 C1028 1.499 . S
C1031 C1032 1.373 . S
C1031 C1033 1.389 . S
C1032 H1005 0.950 . S
C1032 C1018 1.377 . S
C1032 C1031 1.373 . S
C1033 C1017 1.377 . S
C1033 C1031 1.389 . S
C1033 C1034 1.524 . S
C1034 C1033 1.524 . S
C1034 C1035 1.397 . S
C1034 C1039 1.363 . S
C1035 H1006 0.950 . S
C1035 C1034 1.397 . S
C1035 C1036 1.334 . S
C1036 H1007 0.950 . S
C1036 C1035 1.334 . S
C1036 C1037 1.287 . S
C1037 C1036 1.287 . S
C1037 C1038 1.524 . S
C1037 H1040 0.999 . S
C1038 H1008 0.950 . S
C1038 C1037 1.524 . S
C1038 C1039 1.415 . S
C1039 H1009 0.950 . S
C1039 C1034 1.363 . S
C1039 C1038 1.415 . S
H1040 C1037 0.999 . S
H1041 C1022 0.913 . S
H1042 C1060 0.951 . S
H1043 C1062 0.951 . S
H1044 C1064 0.950 . S
H1045 C1065 0.950 . S
H1046 C1067 0.950 . S
H1047 C1070 0.950 . S
H1048 C1071 0.950 . S
H1049 C1073 0.950 . S
H1050 C1074 0.950 . S
H1051 C1075 0.951 . S
H1052 C1077 0.951 . S
H1053 C1079 0.950 . S
H1054 C1080 0.950 . S
H1055 C1082 0.950 . S
H1056 C1085 0.950 . S
H1057 C1086 0.950 . S
H1058 C1088 0.950 . S
H1059 C1089 0.950 . S
C1060 H1042 0.951 . S
C1060 C1061 1.366 . S
C1060 C1062 1.388 . S
C1061 C1060 1.366 . S
C1061 C1065 1.385 . S
C1062 H1043 0.951 . S
C1062 C1060 1.388 . S
C1062 C1063 1.366 . S
C1063 C1062 1.366 . S
C1063 C1064 1.414 . S
C1063 C1066 1.499 . S
C1064 H1044 0.950 . S
C1064 C1063 1.414 . S
C1064 C1065 1.374 . S
C1065 H1045 0.950 . S
C1065 C1061 1.385 . S
C1065 C1064 1.374 . S
C1066 C1063 1.499 . S
C1066 C1067 1.373 . S
C1066 C1068 1.389 . S
C1067 H1046 0.950 . S
C1067 C1066 1.373 . S
C1067 C1083 1.377 . S
C1068 C1066 1.389 . S
C1068 C1069 1.524 . S
C1068 C1082 1.377 . S
C1069 C1068 1.524 . S
C1069 C1070 1.397 . S
C1069 C1074 1.363 . S
C1070 H1047 0.950 . S
C1070 C1069 1.397 . S
C1070 C1071 1.334 . S
C1071 H1048 0.950 . S
C1071 C1070 1.334 . S
C1071 C1072 1.287 . S
C1072 C1071 1.287 . S
C1072 C1073 1.524 . S
C1072 H1091 0.913 . S
C1073 H1049 0.950 . S
C1073 C1072 1.524 . S
C1073 C1074 1.415 . S
C1074 H1050 0.950 . S
C1074 C1069 1.363 . S
C1074 C1073 1.415 . S
C1075 H1051 0.951 . S
C1075 C1076 1.366 . S
C1075 C1077 1.388 . S
C1076 C1075 1.366 . S
C1076 C1080 1.385 . S
C1077 H1052 0.951 . S
C1077 C1075 1.388 . S
C1077 C1078 1.366 . S
C1078 C1077 1.366 . S
C1078 C1079 1.414 . S
C1078 C1081 1.499 . S
C1079 H1053 0.950 . S
C1079 C1078 1.414 . S
C1079 C1080 1.374 . S
C1080 H1054 0.950 . S
C1080 C1076 1.385 . S
C1080 C1079 1.374 . S
C1081 C1078 1.499 . S
C1081 C1082 1.373 . S
C1081 C1083 1.389 . S
C1082 H1055 0.950 . S
C1082 C1068 1.377 . S
C1082 C1081 1.373 . S
C1083 C1067 1.377 . S
C1083 C1081 1.389 . S
C1083 C1084 1.524 . S
C1084 C1083 1.524 . S
C1084 C1085 1.397 . S
C1084 C1089 1.363 . S
C1085 H1056 0.950 . S
C1085 C1084 1.397 . S
C1085 C1086 1.334 . S
C1086 H1057 0.950 . S
C1086 C1085 1.334 . S
C1086 C1087 1.287 . S
C1087 C1086 1.287 . S
C1087 C1088 1.524 . S
C1087 H1090 0.999 . S
C1088 H1058 0.950 . S
C1088 C1087 1.524 . S
C1088 C1089 1.415 . S
C1089 H1059 0.950 . S
C1089 C1084 1.363 . S
C1089 C1088 1.415 . S
H1090 C1087 0.999 . S
H1091 C1072 0.913 . S
H1092 C1110 0.951 . S
H1093 C1112 0.951 . S
H1094 C1114 0.950 . S
H1095 C1115 0.950 . S
H1096 C1117 0.950 . S
H1097 C1120 0.950 . S
H1098 C1121 0.950 . S
H1099 C1123 0.950 . S
H1100 C1124 0.950 . S
H1101 C1125 0.951 . S
H1102 C1127 0.951 . S
H1103 C1129 0.950 . S
H1104 C1130 0.950 . S
H1105 C1132 0.966 . S
H1106 C1135 0.974 . S
H1107 C1136 0.950 1_655 S
H1108 C1138 0.950 . S
H1109 C1139 0.950 . S
C1110 H1092 0.951 . S
C1110 C1111 1.335 1_655 S
C1110 C1112 1.388 . S
C1111 C1110 1.335 1_455 S
C1111 C1115 1.418 . S
C1112 H1093 0.951 . S
C1112 C1110 1.388 . S
C1112 C1113 1.366 1_655 S
C1113 C1112 1.366 1_455 S
C1113 C1114 1.414 . S
C1113 C1116 1.499 . S
C1114 H1094 0.950 . S
C1114 C1113 1.414 . S
C1114 C1115 1.374 . S
C1115 H1095 0.950 . S
C1115 C1111 1.418 . S
C1115 C1114 1.374 . S
C1116 C1113 1.499 . S
C1116 C1117 1.373 . S
C1116 C1118 1.381 1_455 S
C1117 H1096 0.950 . S
C1117 C1116 1.373 . S
C1117 C1133 1.377 . S
C1118 C1116 1.381 1_655 S
C1118 C1119 1.532 . S
C1118 C1132 1.376 . S
C1119 C1118 1.532 . S
C1119 C1120 1.397 1_655 S
C1119 C1124 1.363 . S
C1120 H1097 0.950 . S
C1120 C1119 1.397 1_455 S
C1120 C1121 1.334 . S
C1121 H1098 0.950 . S
C1121 C1120 1.334 . S
C1121 C1122 1.287 1_455 S
C1122 C1121 1.287 1_655 S
C1122 C1123 1.524 . S
C1122 H1141 0.913 . S
C1123 H1099 0.950 . S
C1123 C1122 1.524 . S
C1123 C1124 1.415 . S
C1124 H1100 0.950 . S
C1124 C1119 1.363 . S
C1124 C1123 1.415 . S
C1125 H1101 0.951 . S
C1125 C1126 1.366 . S
C1125 C1127 1.388 . S
C1126 C1125 1.366 . S
C1126 C1130 1.385 1_455 S
C1127 H1102 0.951 . S
C1127 C1125 1.388 . S
C1127 C1128 1.366 . S
C1128 C1127 1.366 . S
C1128 C1129 1.414 1_455 S
C1128 C1131 1.499 . S
C1129 H1103 0.950 . S
C1129 C1128 1.414 1_655 S
C1129 C1130 1.374 . S
C1130 H1104 0.950 . S
C1130 C1126 1.385 1_655 S
C1130 C1129 1.374 . S
C1131 C1128 1.499 . S
C1131 C1132 1.360 1_455 S
C1131 C1133 1.389 . S
C1132 H1105 0.966 . S
C1132 C1118 1.376 . S
C1132 C1131 1.360 1_655 S
C1133 C1117 1.377 . S
C1133 C1131 1.389 . S
C1133 C1134 1.524 . S
C1134 C1133 1.524 . S
C1134 C1135 1.376 1_455 S
C1134 C1139 1.363 . S
C1135 H1106 0.974 . S
C1135 C1134 1.376 1_655 S
C1135 C1136 1.331 1_655 S
C1136 H1107 0.950 1_455 S
C1136 C1135 1.331 1_455 S
C1136 C1137 1.287 . S
C1137 C1136 1.287 . S
C1137 C1138 1.524 . S
C1137 H1140 0.999 . S
C1138 H1108 0.950 . S
C1138 C1137 1.524 . S
C1138 C1139 1.415 . S
C1139 H1109 0.950 . S
C1139 C1134 1.363 . S
C1139 C1138 1.415 . S
H1140 C1137 0.999 . S
H1141 C1122 0.913 . S
H1142 C1160 0.951 . S
H1143 C1162 0.951 . S
H1144 C1164 0.950 . S
H1145 C1165 0.950 . S
H1146 C1167 0.950 . S
H1147 C1170 0.950 . S
H1148 C1171 0.950 . S
H1149 C1173 0.950 . S
H1150 C1174 0.950 . S
H1151 C1175 0.951 . S
H1152 C1177 0.951 . S
H1153 C1179 0.950 . S
H1154 C1180 0.950 . S
H1155 C1182 0.950 . S
H1156 C1185 0.950 . S
H1157 C1186 0.950 . S
H1158 C1188 0.950 1_556 S
H1159 C1189 0.950 . S
C1160 H1142 0.951 . S
C1160 C1161 1.366 . S
C1160 C1162 1.388 . S
C1161 C1160 1.366 . S
C1161 C1165 1.385 . S
C1162 H1143 0.951 . S
C1162 C1160 1.388 . S
C1162 C1163 1.366 . S
C1163 C1162 1.366 . S
C1163 C1164 1.414 . S
C1163 C1166 1.499 . S
C1164 H1144 0.950 . S
C1164 C1163 1.414 . S
C1164 C1165 1.374 . S
C1165 H1145 0.950 . S
C1165 C1161 1.385 . S
C1165 C1164 1.374 . S
C1166 C1163 1.499 . S
C1166 C1167 1.373 . S
C1166 C1168 1.389 . S
C1167 H1146 0.950 . S
C1167 C1166 1.373 . S
C1167 C1183 1.377 . S
C1168 C1166 1.389 . S
C1168 C1169 1.524 . S
C1168 C1182 1.377 . S
C1169 C1168 1.524 . S
C1169 C1170 1.397 . S
C1169 C1174 1.363 . S
C1170 H1147 0.950 . S
C1170 C1169 1.397 . S
C1170 C1171 1.334 . S
C1171 H1148 0.950 . S
C1171 C1170 1.334 . S
C1171 C1172 1.287 . S
C1172 C1171 1.287 . S
C1172 C1173 1.524 . S
C1172 H1191 0.913 . S
C1173 H1149 0.950 . S
C1173 C1172 1.524 . S
C1173 C1174 1.415 . S
C1174 H1150 0.950 . S
C1174 C1169 1.363 . S
C1174 C1173 1.415 . S
C1175 H1151 0.951 . S
C1175 C1176 1.366 . S
C1175 C1177 1.388 . S
C1176 C1175 1.366 . S
C1176 C1180 1.385 . S
C1177 H1152 0.951 . S
C1177 C1175 1.388 . S
C1177 C1178 1.366 . S
C1178 C1177 1.366 . S
C1178 C1179 1.414 . S
C1178 C1181 1.499 . S
C1179 H1153 0.950 . S
C1179 C1178 1.414 . S
C1179 C1180 1.374 . S
C1180 H1154 0.950 . S
C1180 C1176 1.385 . S
C1180 C1179 1.374 . S
C1181 C1178 1.499 . S
C1181 C1182 1.373 . S
C1181 C1183 1.389 . S
C1182 H1155 0.950 . S
C1182 C1168 1.377 . S
C1182 C1181 1.373 . S
C1183 C1167 1.377 . S
C1183 C1181 1.389 . S
C1183 C1184 1.524 . S
C1184 C1183 1.524 . S
C1184 C1185 1.397 . S
C1184 C1189 1.363 . S
C1185 H1156 0.950 . S
C1185 C1184 1.397 . S
C1185 C1186 1.334 . S
C1186 H1157 0.950 . S
C1186 C1185 1.334 . S
C1186 C1187 1.287 . S
C1187 C1186 1.287 . S
C1187 C1188 1.524 . S
C1187 H1190 0.999 1_554 S
C1188 H1158 0.950 1_554 S
C1188 C1187 1.524 . S
C1188 C1189 1.415 . S
C1189 H1159 0.950 . S
C1189 C1184 1.363 . S
C1189 C1188 1.415 . S
H1190 C1187 0.999 1_556 S
H1191 C1172 0.913 . S
H1192 C1210 0.951 . S
H1193 C1212 0.951 . S
H1194 C1214 0.950 . S
H1195 C1215 0.950 . S
H1196 C1217 0.950 . S
H1197 C1220 0.950 . S
H1198 C1221 0.950 . S
H1199 C1223 0.950 . S
H1200 C1224 0.950 . S
H1201 C1225 0.951 . S
H1202 C1227 0.951 . S
H1203 C1229 0.950 . S
H1204 C1230 0.950 . S
H1205 C1232 0.950 . S
H1206 C1235 0.950 . S
H1207 C1236 0.950 . S
H1208 C1238 0.950 . S
H1209 C1239 0.950 . S
C1210 H1192 0.951 . S
C1210 C1211 1.366 . S
C1210 C1212 1.388 . S
C1211 C1210 1.366 . S
C1211 C1215 1.385 . S
C1212 H1193 0.951 . S
C1212 C1210 1.388 . S
C1212 C1213 1.366 . S
C1213 C1212 1.366 . S
C1213 C1214 1.414 . S
C1213 C1216 1.499 . S
C1214 H1194 0.950 . S
C1214 C1213 1.414 . S
C1214 C1215 1.374 . S
C1215 H1195 0.950 . S
C1215 C1211 1.385 . S
C1215 C1214 1.374 . S
C1216 C1213 1.499 . S
C1216 C1217 1.373 . S
C1216 C1218 1.389 . S
C1217 H1196 0.950 . S
C1217 C1216 1.373 . S
C1217 C1233 1.377 . S
C1218 C1216 1.389 . S
C1218 C1219 1.524 . S
C1218 C1232 1.377 . S
C1219 C1218 1.524 . S
C1219 C1220 1.397 . S
C1219 C1224 1.363 . S
C1220 H1197 0.950 . S
C1220 C1219 1.397 . S
C1220 C1221 1.334 . S
C1221 H1198 0.950 . S
C1221 C1220 1.334 . S
C1221 C1222 1.287 . S
C1222 C1221 1.287 . S
C1222 C1223 1.524 . S
C1222 H1241 0.913 . S
C1223 H1199 0.950 . S
C1223 C1222 1.524 . S
C1223 C1224 1.415 . S
C1224 H1200 0.950 . S
C1224 C1219 1.363 . S
C1224 C1223 1.415 . S
C1225 H1201 0.951 . S
C1225 C1226 1.366 . S
C1225 C1227 1.388 . S
C1226 C1225 1.366 . S
C1226 C1230 1.385 . S
C1227 H1202 0.951 . S
C1227 C1225 1.388 . S
C1227 C1228 1.366 . S
C1228 C1227 1.366 . S
C1228 C1229 1.414 . S
C1228 C1231 1.499 . S
C1229 H1203 0.950 . S
C1229 C1228 1.414 . S
C1229 C1230 1.374 . S
C1230 H1204 0.950 . S
C1230 C1226 1.385 . S
C1230 C1229 1.374 . S
C1231 C1228 1.499 . S
C1231 C1232 1.373 . S
C1231 C1233 1.389 . S
C1232 H1205 0.950 . S
C1232 C1218 1.377 . S
C1232 C1231 1.373 . S
C1233 C1217 1.377 . S
C1233 C1231 1.389 . S
C1233 C1234 1.524 . S
C1234 C1233 1.524 . S
C1234 C1235 1.397 . S
C1234 C1239 1.363 . S
C1235 H1206 0.950 . S
C1235 C1234 1.397 . S
C1235 C1236 1.334 . S
C1236 H1207 0.950 . S
C1236 C1235 1.334 . S
C1236 C1237 1.287 . S
C1237 C1236 1.287 . S
C1237 C1238 1.524 . S
C1237 H1240 0.999 . S
C1238 H1208 0.950 . S
C1238 C1237 1.524 . S
C1238 C1239 1.415 . S
C1239 H1209 0.950 . S
C1239 C1234 1.363 . S
C1239 C1238 1.415 . S
H1240 C1237 0.999 . S
H1241 C1222 0.913 . S
H1242 C1260 0.951 . S
H1243 C1262 0.951 . S
H1244 C1264 0.950 . S
H1245 C1265 0.950 . S
H1246 C1267 0.950 . S
H1247 C1270 0.950 . S
H1248 C1271 0.950 . S
H1249 C1273 0.950 . S
H1250 C1274 0.950 . S
H1251 C1275 0.951 . S
H1252 C1277 0.951 . S
H1253 C1279 0.950 . S
H1254 C1280 0.950 . S
H1255 C1282 0.950 . S
H1256 C1285 0.950 . S
H1257 C1286 0.950 . S
H1258 C1288 0.950 . S
H1259 C1289 0.950 . S
C1260 H1242 0.951 . S
C1260 C1261 1.366 . S
C1260 C1262 1.388 . S
C1261 C1260 1.366 . S
C1261 C1265 1.385 . S
C1262 H1243 0.951 . S
C1262 C1260 1.388 . S
C1262 C1263 1.366 . S
C1263 C1262 1.366 . S
C1263 C1264 1.414 . S
C1263 C1266 1.499 . S
C1264 H1244 0.950 . S
C1264 C1263 1.414 . S
C1264 C1265 1.374 . S
C1265 H1245 0.950 . S
C1265 C1261 1.385 . S
C1265 C1264 1.374 . S
C1266 C1263 1.499 . S
C1266 C1267 1.373 . S
C1266 C1268 1.389 . S
C1267 H1246 0.950 . S
C1267 C1266 1.373 . S
C1267 C1283 1.377 . S
C1268 C1266 1.389 . S
C1268 C1269 1.524 . S
C1268 C1282 1.377 . S
C1269 C1268 1.524 . S
C1269 C1270 1.397 . S
C1269 C1274 1.363 . S
C1270 H1247 0.950 . S
C1270 C1269 1.397 . S
C1270 C1271 1.334 . S
C1271 H1248 0.950 . S
C1271 C1270 1.334 . S
C1271 C1272 1.287 . S
C1272 C1271 1.287 . S
C1272 C1273 1.524 . S
C1272 H1291 0.913 . S
C1273 H1249 0.950 . S
C1273 C1272 1.524 . S
C1273 C1274 1.415 . S
C1274 H1250 0.950 . S
C1274 C1269 1.363 . S
C1274 C1273 1.415 . S
C1275 H1251 0.951 . S
C1275 C1276 1.366 . S
C1275 C1277 1.388 . S
C1276 C1275 1.366 . S
C1276 C1280 1.385 . S
C1277 H1252 0.951 . S
C1277 C1275 1.388 . S
C1277 C1278 1.366 . S
C1278 C1277 1.366 . S
C1278 C1279 1.414 . S
C1278 C1281 1.499 . S
C1279 H1253 0.950 . S
C1279 C1278 1.414 . S
C1279 C1280 1.374 . S
C1280 H1254 0.950 . S
C1280 C1276 1.385 . S
C1280 C1279 1.374 . S
C1281 C1278 1.499 . S
C1281 C1282 1.373 . S
C1281 C1283 1.389 . S
C1282 H1255 0.950 . S
C1282 C1268 1.377 . S
C1282 C1281 1.373 . S
C1283 C1267 1.377 . S
C1283 C1281 1.389 . S
C1283 C1284 1.524 . S
C1284 C1283 1.524 . S
C1284 C1285 1.397 . S
C1284 C1289 1.363 . S
C1285 H1256 0.950 . S
C1285 C1284 1.397 . S
C1285 C1286 1.334 . S
C1286 H1257 0.950 . S
C1286 C1285 1.334 . S
C1286 C1287 1.287 . S
C1287 C1286 1.287 . S
C1287 C1288 1.524 . S
C1287 H1290 0.999 . S
C1288 H1258 0.950 . S
C1288 C1287 1.524 . S
C1288 C1289 1.415 . S
C1289 H1259 0.950 . S
C1289 C1284 1.363 . S
C1289 C1288 1.415 . S
H1290 C1287 0.999 . S
H1291 C1272 0.913 . S
H1292 C1310 0.951 . S
H1293 C1312 0.951 . S
H1294 C1314 0.935 1_565 S
H1295 C1315 0.950 1_565 S
H1296 C1317 0.950 . S
H1297 C1320 0.950 . S
H1298 C1321 0.950 . S
H1299 C1323 0.950 . S
H1300 C1324 0.950 . S
H1301 C1325 0.951 . S
H1302 C1327 0.951 . S
H1303 C1329 0.950 . S
H1304 C1330 0.950 . S
H1305 C1332 0.950 . S
H1306 C1335 0.950 . S
H1307 C1336 0.950 . S
H1308 C1338 0.950 . S
H1309 C1339 0.950 . S
C1310 H1292 0.951 . S
C1310 C1311 1.366 . S
C1310 C1312 1.388 . S
C1311 C1310 1.366 . S
C1311 C1315 1.385 . S
C1312 H1293 0.951 . S
C1312 C1310 1.388 . S
C1312 C1313 1.366 . S
C1313 C1312 1.366 . S
C1313 C1314 1.430 . S
C1313 C1316 1.499 . S
C1314 H1294 0.935 1_545 S
C1314 C1313 1.430 . S
C1314 C1315 1.376 . S
C1315 H1295 0.950 1_545 S
C1315 C1311 1.385 . S
C1315 C1314 1.376 . S
C1316 C1313 1.499 . S
C1316 C1317 1.373 1_545 S
C1316 C1318 1.389 . S
C1317 H1296 0.950 . S
C1317 C1316 1.373 1_565 S
C1317 C1333 1.377 . S
C1318 C1316 1.389 . S
C1318 C1319 1.524 . S
C1318 C1332 1.377 . S
C1319 C1318 1.524 . S
C1319 C1320 1.397 . S
C1319 C1324 1.363 . S
C1320 H1297 0.950 . S
C1320 C1319 1.397 . S
C1320 C1321 1.334 . S
C1321 H1298 0.950 . S
C1321 C1320 1.334 . S
C1321 C1322 1.287 . S
C1322 C1321 1.287 . S
C1322 C1323 1.524 . S
C1322 H1341 0.913 . S
C1323 H1299 0.950 . S
C1323 C1322 1.524 . S
C1323 C1324 1.415 . S
C1324 H1300 0.950 . S
C1324 C1319 1.363 . S
C1324 C1323 1.415 . S
C1325 H1301 0.951 . S
C1325 C1326 1.354 1_565 S
C1325 C1327 1.388 . S
C1326 C1325 1.354 1_545 S
C1326 C1330 1.399 . S
C1327 H1302 0.951 . S
C1327 C1325 1.388 . S
C1327 C1328 1.366 1_565 S
C1328 C1327 1.366 1_545 S
C1328 C1329 1.414 . S
C1328 C1331 1.499 . S
C1329 H1303 0.950 . S
C1329 C1328 1.414 . S
C1329 C1330 1.374 . S
C1330 H1304 0.950 . S
C1330 C1326 1.399 . S
C1330 C1329 1.374 . S
C1331 C1328 1.499 . S
C1331 C1332 1.373 . S
C1331 C1333 1.389 1_545 S
C1332 H1305 0.950 . S
C1332 C1318 1.377 . S
C1332 C1331 1.373 . S
C1333 C1317 1.377 . S
C1333 C1331 1.389 1_565 S
C1333 C1334 1.524 . S
C1334 C1333 1.524 . S
C1334 C1335 1.397 . S
C1334 C1339 1.363 . S
C1335 H1306 0.950 . S
C1335 C1334 1.397 . S
C1335 C1336 1.334 . S
C1336 H1307 0.950 . S
C1336 C1335 1.334 . S
C1336 C1337 1.287 . S
C1337 C1336 1.287 . S
C1337 C1338 1.524 . S
C1337 H1340 0.999 . S
C1338 H1308 0.950 . S
C1338 C1337 1.524 . S
C1338 C1339 1.415 . S
C1339 H1309 0.950 . S
C1339 C1334 1.363 . S
C1339 C1338 1.415 . S
H1340 C1337 0.999 . S
H1341 C1322 0.913 . S
H1342 C1360 0.951 . S
H1343 C1362 0.951 . S
H1344 C1364 0.950 . S
H1345 C1365 0.950 . S
H1346 C1367 0.950 . S
H1347 C1370 0.950 . S
H1348 C1371 0.950 . S
H1349 C1373 0.950 . S
H1350 C1374 0.950 . S
H1351 C1375 0.951 . S
H1352 C1377 0.951 . S
H1353 C1379 0.950 . S
H1354 C1380 0.950 . S
H1355 C1382 0.950 . S
H1356 C1385 0.950 . S
H1357 C1386 0.950 . S
H1358 C1388 0.950 . S
H1359 C1389 0.950 . S
C1360 H1342 0.951 . S
C1360 C1361 1.366 . S
C1360 C1362 1.388 . S
C1361 C1360 1.366 . S
C1361 C1365 1.385 . S
C1362 H1343 0.951 . S
C1362 C1360 1.388 . S
C1362 C1363 1.366 . S
C1363 C1362 1.366 . S
C1363 C1364 1.414 . S
C1363 C1366 1.499 . S
C1364 H1344 0.950 . S
C1364 C1363 1.414 . S
C1364 C1365 1.374 . S
C1365 H1345 0.950 . S
C1365 C1361 1.385 . S
C1365 C1364 1.374 . S
C1366 C1363 1.499 . S
C1366 C1367 1.373 . S
C1366 C1368 1.389 . S
C1367 H1346 0.950 . S
C1367 C1366 1.373 . S
C1367 C1383 1.377 . S
C1368 C1366 1.389 . S
C1368 C1369 1.524 . S
C1368 C1382 1.377 . S
C1369 C1368 1.524 . S
C1369 C1370 1.397 . S
C1369 C1374 1.363 . S
C1370 H1347 0.950 . S
C1370 C1369 1.397 . S
C1370 C1371 1.334 . S
C1371 H1348 0.950 . S
C1371 C1370 1.334 . S
C1371 C1372 1.287 . S
C1372 C1371 1.287 . S
C1372 C1373 1.524 . S
C1372 H1391 0.913 . S
C1373 H1349 0.950 . S
C1373 C1372 1.524 . S
C1373 C1374 1.415 . S
C1374 H1350 0.950 . S
C1374 C1369 1.363 . S
C1374 C1373 1.415 . S
C1375 H1351 0.951 . S
C1375 C1376 1.366 . S
C1375 C1377 1.388 . S
C1376 C1375 1.366 . S
C1376 C1380 1.385 . S
C1377 H1352 0.951 . S
C1377 C1375 1.388 . S
C1377 C1378 1.366 . S
C1378 C1377 1.366 . S
C1378 C1379 1.414 . S
C1378 C1381 1.499 . S
C1379 H1353 0.950 . S
C1379 C1378 1.414 . S
C1379 C1380 1.374 . S
C1380 H1354 0.950 . S
C1380 C1376 1.385 . S
C1380 C1379 1.374 . S
C1381 C1378 1.499 . S
C1381 C1382 1.373 . S
C1381 C1383 1.389 . S
C1382 H1355 0.950 . S
C1382 C1368 1.377 . S
C1382 C1381 1.373 . S
C1383 C1367 1.377 . S
C1383 C1381 1.389 . S
C1383 C1384 1.524 . S
C1384 C1383 1.524 . S
C1384 C1385 1.397 . S
C1384 C1389 1.363 . S
C1385 H1356 0.950 . S
C1385 C1384 1.397 . S
C1385 C1386 1.334 . S
C1386 H1357 0.950 . S
C1386 C1385 1.334 . S
C1386 C1387 1.287 . S
C1387 C1386 1.287 . S
C1387 C1388 1.524 . S
C1387 H1390 0.999 . S
C1388 H1358 0.950 . S
C1388 C1387 1.524 . S
C1388 C1389 1.415 . S
C1389 H1359 0.950 . S
C1389 C1384 1.363 . S
C1389 C1388 1.415 . S
H1390 C1387 0.999 . S
H1391 C1372 0.913 . S
H1392 C1410 0.951 . S
H1393 C1412 0.951 . S
H1394 C1414 0.950 . S
H1395 C1415 0.950 . S
H1396 C1417 0.950 . S
H1397 C1420 0.950 . S
H1398 C1421 0.950 . S
H1399 C1423 0.950 . S
H1400 C1424 0.950 . S
H1401 C1425 0.951 . S
H1402 C1427 0.951 . S
H1403 C1429 0.950 . S
H1404 C1430 0.950 . S
H1405 C1432 0.950 . S
H1406 C1435 0.950 . S
H1407 C1436 0.950 . S
H1408 C1438 0.950 1_655 S
H1409 C1439 0.950 . S
C1410 H1392 0.951 . S
C1410 C1411 1.366 . S
C1410 C1412 1.388 . S
C1411 C1410 1.366 . S
C1411 C1415 1.385 . S
C1412 H1393 0.951 . S
C1412 C1410 1.388 . S
C1412 C1413 1.366 . S
C1413 C1412 1.366 . S
C1413 C1414 1.414 . S
C1413 C1416 1.499 . S
C1414 H1394 0.950 . S
C1414 C1413 1.414 . S
C1414 C1415 1.374 . S
C1415 H1395 0.950 . S
C1415 C1411 1.385 . S
C1415 C1414 1.374 . S
C1416 C1413 1.499 . S
C1416 C1417 1.373 . S
C1416 C1418 1.389 . S
C1417 H1396 0.950 . S
C1417 C1416 1.373 . S
C1417 C1433 1.377 . S
C1418 C1416 1.389 . S
C1418 C1419 1.524 . S
C1418 C1432 1.377 . S
C1419 C1418 1.524 . S
C1419 C1420 1.397 . S
C1419 C1424 1.363 . S
C1420 H1397 0.950 . S
C1420 C1419 1.397 . S
C1420 C1421 1.334 . S
C1421 H1398 0.950 . S
C1421 C1420 1.334 . S
C1421 C1422 1.287 . S
C1422 C1421 1.287 . S
C1422 C1423 1.524 . S
C1422 H1441 0.913 . S
C1423 H1399 0.950 . S
C1423 C1422 1.524 . S
C1423 C1424 1.415 . S
C1424 H1400 0.950 . S
C1424 C1419 1.363 . S
C1424 C1423 1.415 . S
C1425 H1401 0.951 . S
C1425 C1426 1.366 . S
C1425 C1427 1.388 . S
C1426 C1425 1.366 . S
C1426 C1430 1.385 . S
C1427 H1402 0.951 . S
C1427 C1425 1.388 . S
C1427 C1428 1.366 . S
C1428 C1427 1.366 . S
C1428 C1429 1.414 . S
C1428 C1431 1.499 . S
C1429 H1403 0.950 . S
C1429 C1428 1.414 . S
C1429 C1430 1.374 . S
C1430 H1404 0.950 . S
C1430 C1426 1.385 . S
C1430 C1429 1.374 . S
C1431 C1428 1.499 . S
C1431 C1432 1.373 . S
C1431 C1433 1.389 . S
C1432 H1405 0.950 . S
C1432 C1418 1.377 . S
C1432 C1431 1.373 . S
C1433 C1417 1.377 . S
C1433 C1431 1.389 . S
C1433 C1434 1.524 . S
C1434 C1433 1.524 . S
C1434 C1435 1.397 . S
C1434 C1439 1.363 . S
C1435 H1406 0.950 . S
C1435 C1434 1.397 . S
C1435 C1436 1.334 . S
C1436 H1407 0.950 . S
C1436 C1435 1.334 . S
C1436 C1437 1.287 . S
C1437 C1436 1.287 . S
C1437 C1438 1.524 . S
C1437 H1440 0.999 1_455 S
C1438 H1408 0.950 1_455 S
C1438 C1437 1.524 . S
C1438 C1439 1.415 . S
C1439 H1409 0.950 . S
C1439 C1434 1.363 . S
C1439 C1438 1.415 . S
H1440 C1437 0.999 1_655 S
H1441 C1422 0.913 . S
H1442 C1460 0.951 . S
H1443 C1462 0.951 . S
H1444 C1464 0.950 . S
H1445 C1465 0.950 . S
H1446 C1467 0.950 . S
H1447 C1470 0.950 . S
H1448 C1471 0.950 . S
H1449 C1473 0.950 . S
H1450 C1474 0.950 . S
H1451 C1475 0.951 . S
H1452 C1477 0.951 . S
H1453 C1479 0.950 . S
H1454 C1480 0.950 . S
H1455 C1482 0.950 . S
H1456 C1485 0.950 . S
H1457 C1486 0.950 . S
H1458 C1488 0.950 . S
H1459 C1489 0.950 . S
C1460 H1442 0.951 . S
C1460 C1461 1.366 . S
C1460 C1462 1.388 . S
C1461 C1460 1.366 . S
C1461 C1465 1.385 . S
C1462 H1443 0.951 . S
C1462 C1460 1.388 . S
C1462 C1463 1.366 . S
C1463 C1462 1.366 . S
C1463 C1464 1.414 . S
C1463 C1466 1.499 . S
C1464 H1444 0.950 . S
C1464 C1463 1.414 . S
C1464 C1465 1.374 . S
C1465 H1445 0.950 . S
C1465 C1461 1.385 . S
C1465 C1464 1.374 . S
C1466 C1463 1.499 . S
C1466 C1467 1.373 . S
C1466 C1468 1.389 . S
C1467 H1446 0.950 . S
C1467 C1466 1.373 . S
C1467 C1483 1.377 . S
C1468 C1466 1.389 . S
C1468 C1469 1.524 . S
C1468 C1482 1.377 . S
C1469 C1468 1.524 . S
C1469 C1470 1.397 . S
C1469 C1474 1.363 . S
C1470 H1447 0.950 . S
C1470 C1469 1.397 . S
C1470 C1471 1.334 . S
C1471 H1448 0.950 . S
C1471 C1470 1.334 . S
C1471 C1472 1.287 . S
C1472 C1471 1.287 . S
C1472 C1473 1.524 . S
C1472 H1491 0.913 . S
C1473 H1449 0.950 . S
C1473 C1472 1.524 . S
C1473 C1474 1.415 . S
C1474 H1450 0.950 . S
C1474 C1469 1.363 . S
C1474 C1473 1.415 . S
C1475 H1451 0.951 . S
C1475 C1476 1.366 . S
C1475 C1477 1.388 . S
C1476 C1475 1.366 . S
C1476 C1480 1.385 . S
C1477 H1452 0.951 . S
C1477 C1475 1.388 . S
C1477 C1478 1.366 . S
C1478 C1477 1.366 . S
C1478 C1479 1.414 . S
C1478 C1481 1.499 . S
C1479 H1453 0.950 . S
C1479 C1478 1.414 . S
C1479 C1480 1.374 . S
C1480 H1454 0.950 . S
C1480 C1476 1.385 . S
C1480 C1479 1.374 . S
C1481 C1478 1.499 . S
C1481 C1482 1.373 . S
C1481 C1483 1.389 . S
C1482 H1455 0.950 . S
C1482 C1468 1.377 . S
C1482 C1481 1.373 . S
C1483 C1467 1.377 . S
C1483 C1481 1.389 . S
C1483 C1484 1.524 . S
C1484 C1483 1.524 . S
C1484 C1485 1.397 . S
C1484 C1489 1.363 . S
C1485 H1456 0.950 . S
C1485 C1484 1.397 . S
C1485 C1486 1.334 . S
C1486 H1457 0.950 . S
C1486 C1485 1.334 . S
C1486 C1487 1.287 . S
C1487 C1486 1.287 . S
C1487 C1488 1.524 . S
C1487 H1490 0.999 . S
C1488 H1458 0.950 . S
C1488 C1487 1.524 . S
C1488 C1489 1.415 . S
C1489 H1459 0.950 . S
C1489 C1484 1.363 . S
C1489 C1488 1.415 . S
H1490 C1487 0.999 . S
H1491 C1472 0.913 . S
H1492 C1510 0.951 . S
H1493 C1512 0.951 . S
H1494 C1514 0.950 . S
H1495 C1515 0.950 . S
H1496 C1517 0.950 . S
H1497 C1520 0.950 . S
H1498 C1521 0.950 . S
H1499 C1523 0.950 . S
H1500 C1524 0.950 . S
H1501 C1525 0.951 1_545 S
H1502 C1527 0.951 . S
H1503 C1529 0.950 . S
H1504 C1530 0.950 . S
H1505 C1532 0.950 . S
H1506 C1535 0.950 . S
H1507 C1536 0.950 . S
H1508 C1538 0.950 . S
H1509 C1539 0.950 . S
C1510 H1492 0.951 . S
C1510 C1511 1.366 . S
C1510 C1512 1.388 . S
C1511 C1510 1.366 . S
C1511 C1515 1.385 . S
C1512 H1493 0.951 . S
C1512 C1510 1.388 . S
C1512 C1513 1.366 . S
C1513 C1512 1.366 . S
C1513 C1514 1.414 . S
C1513 C1516 1.499 . S
C1514 H1494 0.950 . S
C1514 C1513 1.414 . S
C1514 C1515 1.374 . S
C1515 H1495 0.950 . S
C1515 C1511 1.385 . S
C1515 C1514 1.374 . S
C1516 C1513 1.499 . S
C1516 C1517 1.373 . S
C1516 C1518 1.389 . S
C1517 H1496 0.950 . S
C1517 C1516 1.373 . S
C1517 C1533 1.377 . S
C1518 C1516 1.389 . S
C1518 C1519 1.524 . S
C1518 C1532 1.377 . S
C1519 C1518 1.524 . S
C1519 C1520 1.397 . S
C1519 C1524 1.363 . S
C1520 H1497 0.950 . S
C1520 C1519 1.397 . S
C1520 C1521 1.334 . S
C1521 H1498 0.950 . S
C1521 C1520 1.334 . S
C1521 C1522 1.287 . S
C1522 C1521 1.287 . S
C1522 C1523 1.524 . S
C1522 H1541 0.913 . S
C1523 H1499 0.950 . S
C1523 C1522 1.524 . S
C1523 C1524 1.415 . S
C1524 H1500 0.950 . S
C1524 C1519 1.363 . S
C1524 C1523 1.415 . S
C1525 H1501 0.951 1_565 S
C1525 C1526 1.366 1_565 S
C1525 C1527 1.388 . S
C1526 C1525 1.366 1_545 S
C1526 C1530 1.385 1_545 S
C1527 H1502 0.951 . S
C1527 C1525 1.388 . S
C1527 C1528 1.366 . S
C1528 C1527 1.366 . S
C1528 C1529 1.414 . S
C1528 C1531 1.499 . S
C1529 H1503 0.950 . S
C1529 C1528 1.414 . S
C1529 C1530 1.374 . S
C1530 H1504 0.950 . S
C1530 C1526 1.385 1_565 S
C1530 C1529 1.374 . S
C1531 C1528 1.499 . S
C1531 C1532 1.373 . S
C1531 C1533 1.389 . S
C1532 H1505 0.950 . S
C1532 C1518 1.377 . S
C1532 C1531 1.373 . S
C1533 C1517 1.377 . S
C1533 C1531 1.389 . S
C1533 C1534 1.524 . S
C1534 C1533 1.524 . S
C1534 C1535 1.397 . S
C1534 C1539 1.363 . S
C1535 H1506 0.950 . S
C1535 C1534 1.397 . S
C1535 C1536 1.334 1_565 S
C1536 H1507 0.950 . S
C1536 C1535 1.334 1_545 S
C1536 C1537 1.287 . S
C1537 C1536 1.287 . S
C1537 C1538 1.524 1_545 S
C1537 H1540 0.999 . S
C1538 H1508 0.950 . S
C1538 C1537 1.524 1_565 S
C1538 C1539 1.415 . S
C1539 H1509 0.950 . S
C1539 C1534 1.363 . S
C1539 C1538 1.415 . S
H1540 C1537 0.999 . S
H1541 C1522 0.913 . S
H1542 C1560 0.951 . S
H1543 C1562 0.951 . S
H1544 C1564 0.950 . S
H1545 C1565 0.950 . S
H1546 C1567 0.950 . S
H1547 C1570 0.950 . S
H1548 C1571 0.950 . S
H1549 C1573 0.950 . S
H1550 C1574 0.950 . S
H1551 C1575 0.951 . S
H1552 C1577 0.951 . S
H1553 C1579 0.950 . S
H1554 C1580 0.950 . S
H1555 C1582 0.950 . S
H1556 C1585 0.950 . S
H1557 C1586 0.950 . S
H1558 C1588 0.950 . S
H1559 C1589 0.950 . S
C1560 H1542 0.951 . S
C1560 C1561 1.366 . S
C1560 C1562 1.388 . S
C1561 C1560 1.366 . S
C1561 C1565 1.385 . S
C1562 H1543 0.951 . S
C1562 C1560 1.388 . S
C1562 C1563 1.366 . S
C1563 C1562 1.366 . S
C1563 C1564 1.414 . S
C1563 C1566 1.499 . S
C1564 H1544 0.950 . S
C1564 C1563 1.414 . S
C1564 C1565 1.374 . S
C1565 H1545 0.950 . S
C1565 C1561 1.385 . S
C1565 C1564 1.374 . S
C1566 C1563 1.499 . S
C1566 C1567 1.373 . S
C1566 C1568 1.389 . S
C1567 H1546 0.950 . S
C1567 C1566 1.373 . S
C1567 C1583 1.377 . S
C1568 C1566 1.389 . S
C1568 C1569 1.524 . S
C1568 C1582 1.377 . S
C1569 C1568 1.524 . S
C1569 C1570 1.397 . S
C1569 C1574 1.363 . S
C1570 H1547 0.950 . S
C1570 C1569 1.397 . S
C1570 C1571 1.334 . S
C1571 H1548 0.950 . S
C1571 C1570 1.334 . S
C1571 C1572 1.287 . S
C1572 C1571 1.287 . S
C1572 C1573 1.524 . S
C1572 H1591 0.913 . S
C1573 H1549 0.950 . S
C1573 C1572 1.524 . S
C1573 C1574 1.415 . S
C1574 H1550 0.950 . S
C1574 C1569 1.363 . S
C1574 C1573 1.415 . S
C1575 H1551 0.951 . S
C1575 C1576 1.366 . S
C1575 C1577 1.388 . S
C1576 C1575 1.366 . S
C1576 C1580 1.385 . S
C1577 H1552 0.951 . S
C1577 C1575 1.388 . S
C1577 C1578 1.366 . S
C1578 C1577 1.366 . S
C1578 C1579 1.414 . S
C1578 C1581 1.499 . S
C1579 H1553 0.950 . S
C1579 C1578 1.414 . S
C1579 C1580 1.374 . S
C1580 H1554 0.950 . S
C1580 C1576 1.385 . S
C1580 C1579 1.374 . S
C1581 C1578 1.499 . S
C1581 C1582 1.373 . S
C1581 C1583 1.389 . S
C1582 H1555 0.950 . S
C1582 C1568 1.377 . S
C1582 C1581 1.373 . S
C1583 C1567 1.377 . S
C1583 C1581 1.389 . S
C1583 C1584 1.524 . S
C1584 C1583 1.524 . S
C1584 C1585 1.397 . S
C1584 C1589 1.363 . S
C1585 H1556 0.950 . S
C1585 C1584 1.397 . S
C1585 C1586 1.334 . S
C1586 H1557 0.950 . S
C1586 C1585 1.334 . S
C1586 C1587 1.287 . S
C1587 C1586 1.287 . S
C1587 C1588 1.524 . S
C1587 H1590 0.999 . S
C1588 H1558 0.950 . S
C1588 C1587 1.524 . S
C1588 C1589 1.415 . S
C1589 H1559 0.950 . S
C1589 C1584 1.363 . S
C1589 C1588 1.415 . S
H1590 C1587 0.999 . S
H1591 C1572 0.913 . S
H1592 C1610 0.951 . S
H1593 C1612 0.951 . S
H1594 C1614 0.950 . S
H1595 C1615 0.950 . S
H1596 C1617 0.950 . S
H1597 C1620 0.950 . S
H1598 C1621 0.950 . S
H1599 C1623 0.950 . S
H1600 C1624 0.950 . S
H1601 C1625 0.951 . S
H1602 C1627 0.951 . S
H1603 C1629 0.950 . S
H1604 C1630 0.950 . S
H1605 C1632 0.950 . S
H1606 C1635 0.950 . S
H1607 C1636 0.950 . S
H1608 C1638 0.950 . S
H1609 C1639 0.950 . S
C1610 H1592 0.951 . S
C1610 C1611 1.366 . S
C1610 C1612 1.388 . S
C1611 C1610 1.366 . S
C1611 C1615 1.385 . S
C1612 H1593 0.951 . S
C1612 C1610 1.388 . S
C1612 C1613 1.366 . S
C1613 C1612 1.366 . S
C1613 C1614 1.414 . S
C1613 C1616 1.499 . S
C1614 H1594 0.950 . S
C1614 C1613 1.414 . S
C1614 C1615 1.374 . S
C1615 H1595 0.950 . S
C1615 C1611 1.385 . S
C1615 C1614 1.374 . S
C1616 C1613 1.499 . S
C1616 C1617 1.373 . S
C1616 C1618 1.389 . S
C1617 H1596 0.950 . S
C1617 C1616 1.373 . S
C1617 C1633 1.377 . S
C1618 C1616 1.389 . S
C1618 C1619 1.524 . S
C1618 C1632 1.377 . S
C1619 C1618 1.524 . S
C1619 C1620 1.397 . S
C1619 C1624 1.363 . S
C1620 H1597 0.950 . S
C1620 C1619 1.397 . S
C1620 C1621 1.334 . S
C1621 H1598 0.950 . S
C1621 C1620 1.334 . S
C1621 C1622 1.287 . S
C1622 C1621 1.287 . S
C1622 C1623 1.524 . S
C1622 H1641 0.913 . S
C1623 H1599 0.950 . S
C1623 C1622 1.524 . S
C1623 C1624 1.415 . S
C1624 H1600 0.950 . S
C1624 C1619 1.363 . S
C1624 C1623 1.415 . S
C1625 H1601 0.951 . S
C1625 C1626 1.366 . S
C1625 C1627 1.388 . S
C1626 C1625 1.366 . S
C1626 C1630 1.385 . S
C1627 H1602 0.951 . S
C1627 C1625 1.388 . S
C1627 C1628 1.366 . S
C1628 C1627 1.366 . S
C1628 C1629 1.414 . S
C1628 C1631 1.499 . S
C1629 H1603 0.950 . S
C1629 C1628 1.414 . S
C1629 C1630 1.374 . S
C1630 H1604 0.950 . S
C1630 C1626 1.385 . S
C1630 C1629 1.374 . S
C1631 C1628 1.499 . S
C1631 C1632 1.373 . S
C1631 C1633 1.389 . S
C1632 H1605 0.950 . S
C1632 C1618 1.377 . S
C1632 C1631 1.373 . S
C1633 C1617 1.377 . S
C1633 C1631 1.389 . S
C1633 C1634 1.524 . S
C1634 C1633 1.524 . S
C1634 C1635 1.397 . S
C1634 C1639 1.363 . S
C1635 H1606 0.950 . S
C1635 C1634 1.397 . S
C1635 C1636 1.334 . S
C1636 H1607 0.950 . S
C1636 C1635 1.334 . S
C1636 C1637 1.287 . S
C1637 C1636 1.287 . S
C1637 C1638 1.524 . S
C1637 H1640 0.999 . S
C1638 H1608 0.950 . S
C1638 C1637 1.524 . S
C1638 C1639 1.415 . S
C1639 H1609 0.950 . S
C1639 C1634 1.363 . S
C1639 C1638 1.415 . S
H1640 C1637 0.999 . S
H1641 C1622 0.913 . S
H1642 C1660 0.951 . S
H1643 C1662 0.951 . S
H1644 C1664 0.950 . S
H1645 C1665 0.950 . S
H1646 C1667 0.950 . S
H1647 C1670 0.950 . S
H1648 C1671 0.950 . S
H1649 C1673 0.950 . S
H1650 C1674 0.950 . S
H1651 C1675 0.951 . S
H1652 C1677 0.951 . S
H1653 C1679 0.950 . S
H1654 C1680 0.950 . S
H1655 C1682 0.950 . S
H1656 C1685 0.950 . S
H1657 C1686 0.950 . S
H1658 C1688 0.950 . S
H1659 C1689 0.950 . S
C1660 H1642 0.951 . S
C1660 C1661 1.366 . S
C1660 C1662 1.388 . S
C1661 C1660 1.366 . S
C1661 C1665 1.385 . S
C1662 H1643 0.951 . S
C1662 C1660 1.388 . S
C1662 C1663 1.366 . S
C1663 C1662 1.366 . S
C1663 C1664 1.414 . S
C1663 C1666 1.499 . S
C1664 H1644 0.950 . S
C1664 C1663 1.414 . S
C1664 C1665 1.374 . S
C1665 H1645 0.950 . S
C1665 C1661 1.385 . S
C1665 C1664 1.374 . S
C1666 C1663 1.499 . S
C1666 C1667 1.373 . S
C1666 C1668 1.389 . S
C1667 H1646 0.950 . S
C1667 C1666 1.373 . S
C1667 C1683 1.377 . S
C1668 C1666 1.389 . S
C1668 C1669 1.524 . S
C1668 C1682 1.377 . S
C1669 C1668 1.524 . S
C1669 C1670 1.397 . S
C1669 C1674 1.363 . S
C1670 H1647 0.950 . S
C1670 C1669 1.397 . S
C1670 C1671 1.334 . S
C1671 H1648 0.950 . S
C1671 C1670 1.334 . S
C1671 C1672 1.287 . S
C1672 C1671 1.287 . S
C1672 C1673 1.524 . S
C1672 H1691 0.913 . S
C1673 H1649 0.950 . S
C1673 C1672 1.524 . S
C1673 C1674 1.415 . S
C1674 H1650 0.950 . S
C1674 C1669 1.363 . S
C1674 C1673 1.415 . S
C1675 H1651 0.951 . S
C1675 C1676 1.366 . S
C1675 C1677 1.388 . S
C1676 C1675 1.366 . S
C1676 C1680 1.385 . S
C1677 H1652 0.951 . S
C1677 C1675 1.388 . S
C1677 C1678 1.366 . S
C1678 C1677 1.366 . S
C1678 C1679 1.414 . S
C1678 C1681 1.499 . S
C1679 H1653 0.950 . S
C1679 C1678 1.414 . S
C1679 C1680 1.374 . S
C1680 H1654 0.950 . S
C1680 C1676 1.385 . S
C1680 C1679 1.374 . S
C1681 C1678 1.499 . S
C1681 C1682 1.373 . S
C1681 C1683 1.389 . S
C1682 H1655 0.950 . S
C1682 C1668 1.377 . S
C1682 C1681 1.373 . S
C1683 C1667 1.377 . S
C1683 C1681 1.389 . S
C1683 C1684 1.524 . S
C1684 C1683 1.524 . S
C1684 C1685 1.397 . S
C1684 C1689 1.363 . S
C1685 H1656 0.950 . S
C1685 C1684 1.397 . S
C1685 C1686 1.334 . S
C1686 H1657 0.950 . S
C1686 C1685 1.334 . S
C1686 C1687 1.287 . S
C1687 C1686 1.287 . S
C1687 C1688 1.524 . S
C1687 H1690 0.999 . S
C1688 H1658 0.950 . S
C1688 C1687 1.524 . S
C1688 C1689 1.415 . S
C1689 H1659 0.950 . S
C1689 C1684 1.363 . S
C1689 C1688 1.415 . S
H1690 C1687 0.999 . S
H1691 C1672 0.913 . S
H1692 C1710 0.951 1_554 S
H1693 C1712 0.941 1_655 S
H1694 C1714 0.950 . S
H1695 C1715 0.950 . S
H1696 C1717 0.950 . S
H1697 C1720 0.950 . S
H1698 C1721 0.950 . S
H1699 C1723 0.950 . S
H1700 C1724 0.950 . S
H1701 C1725 0.951 . S
H1702 C1727 0.951 . S
H1703 C1729 0.950 . S
H1704 C1730 0.950 . S
H1705 C1732 0.950 . S
H1706 C1735 0.950 1_655 S
H1707 C1736 0.950 1_655 S
H1708 C1738 0.950 . S
H1709 C1739 0.950 . S
C1710 H1692 0.951 1_556 S
C1710 C1711 1.366 . S
C1710 C1712 1.388 . S
C1711 C1710 1.366 . S
C1711 C1715 1.385 . S
C1712 H1693 0.941 1_455 S
C1712 C1710 1.388 . S
C1712 C1713 1.366 . S
C1713 C1712 1.366 . S
C1713 C1714 1.414 . S
C1713 C1716 1.499 . S
C1714 H1694 0.950 . S
C1714 C1713 1.414 . S
C1714 C1715 1.374 . S
C1715 H1695 0.950 . S
C1715 C1711 1.385 . S
C1715 C1714 1.374 . S
C1716 C1713 1.499 . S
C1716 C1717 1.373 . S
C1716 C1718 1.389 . S
C1717 H1696 0.950 . S
C1717 C1716 1.373 . S
C1717 C1733 1.377 . S
C1718 C1716 1.389 . S
C1718 C1719 1.524 . S
C1718 C1732 1.377 . S
C1719 C1718 1.524 . S
C1719 C1720 1.397 . S
C1719 C1724 1.363 1_455 S
C1720 H1697 0.950 . S
C1720 C1719 1.397 . S
C1720 C1721 1.334 1_556 S
C1721 H1698 0.950 . S
C1721 C1720 1.334 1_554 S
C1721 C1722 1.287 . S
C1722 C1721 1.287 . S
C1722 C1723 1.524 1_455 S
C1722 H1741 0.913 . S
C1723 H1699 0.950 . S
C1723 C1722 1.524 1_655 S
C1723 C1724 1.415 1_554 S
C1724 H1700 0.950 . S
C1724 C1719 1.363 1_655 S
C1724 C1723 1.415 1_556 S
C1725 H1701 0.951 . S
C1725 C1726 1.366 1_455 S
C1725 C1727 1.388 . S
C1726 C1725 1.366 1_655 S
C1726 C1730 1.385 . S
C1727 H1702 0.951 . S
C1727 C1725 1.388 . S
C1727 C1728 1.366 . S
C1728 C1727 1.366 . S
C1728 C1729 1.414 1_455 S
C1728 C1731 1.499 . S
C1729 H1703 0.950 . S
C1729 C1728 1.414 1_655 S
C1729 C1730 1.374 . S
C1730 H1704 0.950 . S
C1730 C1726 1.385 . S
C1730 C1729 1.374 . S
C1731 C1728 1.499 . S
C1731 C1732 1.373 . S
C1731 C1733 1.389 . S
C1732 H1705 0.950 . S
C1732 C1718 1.377 . S
C1732 C1731 1.373 . S
C1733 C1717 1.377 . S
C1733 C1731 1.389 . S
C1733 C1734 1.524 . S
C1734 C1733 1.524 . S
C1734 C1735 1.397 . S
C1734 C1739 1.363 . S
C1735 H1706 0.950 1_455 S
C1735 C1734 1.397 . S
C1735 C1736 1.334 . S
C1736 H1707 0.950 1_455 S
C1736 C1735 1.334 . S
C1736 C1737 1.287 . S
C1737 C1736 1.287 . S
C1737 C1738 1.524 . S
C1737 H1740 0.999 . S
C1738 H1708 0.950 . S
C1738 C1737 1.524 . S
C1738 C1739 1.415 . S
C1739 H1709 0.950 . S
C1739 C1734 1.363 . S
C1739 C1738 1.415 . S
H1740 C1737 0.999 . S
H1741 C1722 0.913 . S
H1742 C1760 0.951 . S
H1743 C1762 0.951 . S
H1744 C1764 0.950 . S
H1745 C1765 0.950 . S
H1746 C1767 0.950 . S
H1747 C1770 0.950 . S
H1748 C1771 0.950 . S
H1749 C1773 0.950 . S
H1750 C1774 0.950 . S
H1751 C1775 0.951 . S
H1752 C1777 0.951 . S
H1753 C1779 0.950 . S
H1754 C1780 0.950 . S
H1755 C1782 0.950 . S
H1756 C1785 0.950 . S
H1757 C1786 0.950 . S
H1758 C1788 0.950 . S
H1759 C1789 0.950 . S
C1760 H1742 0.951 . S
C1760 C1761 1.366 . S
C1760 C1762 1.388 . S
C1761 C1760 1.366 . S
C1761 C1765 1.385 . S
C1762 H1743 0.951 . S
C1762 C1760 1.388 . S
C1762 C1763 1.366 . S
C1763 C1762 1.366 . S
C1763 C1764 1.414 . S
C1763 C1766 1.499 . S
C1764 H1744 0.950 . S
C1764 C1763 1.414 . S
C1764 C1765 1.374 . S
C1765 H1745 0.950 . S
C1765 C1761 1.385 . S
C1765 C1764 1.374 . S
C1766 C1763 1.499 . S
C1766 C1767 1.373 . S
C1766 C1768 1.389 . S
C1767 H1746 0.950 . S
C1767 C1766 1.373 . S
C1767 C1783 1.377 . S
C1768 C1766 1.389 . S
C1768 C1769 1.524 . S
C1768 C1782 1.377 . S
C1769 C1768 1.524 . S
C1769 C1770 1.397 . S
C1769 C1774 1.363 . S
C1770 H1747 0.950 . S
C1770 C1769 1.397 . S
C1770 C1771 1.334 . S
C1771 H1748 0.950 . S
C1771 C1770 1.334 . S
C1771 C1772 1.287 . S
C1772 C1771 1.287 . S
C1772 C1773 1.524 . S
C1772 H1791 0.913 . S
C1773 H1749 0.950 . S
C1773 C1772 1.524 . S
C1773 C1774 1.415 . S
C1774 H1750 0.950 . S
C1774 C1769 1.363 . S
C1774 C1773 1.415 . S
C1775 H1751 0.951 . S
C1775 C1776 1.366 . S
C1775 C1777 1.388 . S
C1776 C1775 1.366 . S
C1776 C1780 1.385 . S
C1777 H1752 0.951 . S
C1777 C1775 1.388 . S
C1777 C1778 1.366 . S
C1778 C1777 1.366 . S
C1778 C1779 1.414 . S
C1778 C1781 1.499 . S
C1779 H1753 0.950 . S
C1779 C1778 1.414 . S
C1779 C1780 1.374 . S
C1780 H1754 0.950 . S
C1780 C1776 1.385 . S
C1780 C1779 1.374 . S
C1781 C1778 1.499 . S
C1781 C1782 1.373 . S
C1781 C1783 1.389 . S
C1782 H1755 0.950 . S
C1782 C1768 1.377 . S
C1782 C1781 1.373 . S
C1783 C1767 1.377 . S
C1783 C1781 1.389 . S
C1783 C1784 1.524 . S
C1784 C1783 1.524 . S
C1784 C1785 1.397 . S
C1784 C1789 1.363 . S
C1785 H1756 0.950 . S
C1785 C1784 1.397 . S
C1785 C1786 1.334 . S
C1786 H1757 0.950 . S
C1786 C1785 1.334 . S
C1786 C1787 1.287 . S
C1787 C1786 1.287 . S
C1787 C1788 1.524 . S
C1787 H1790 0.999 . S
C1788 H1758 0.950 . S
C1788 C1787 1.524 . S
C1788 C1789 1.415 . S
C1789 H1759 0.950 . S
C1789 C1784 1.363 . S
C1789 C1788 1.415 . S
H1790 C1787 0.999 . S
H1791 C1772 0.913 . S
H1792 C1810 0.951 . S
H1793 C1812 0.951 . S
H1794 C1814 0.950 . S
H1795 C1815 0.950 . S
H1796 C1817 0.950 . S
H1797 C1820 0.950 . S
H1798 C1821 0.950 . S
H1799 C1823 0.950 . S
H1800 C1824 0.950 . S
H1801 C1825 0.951 . S
H1802 C1827 0.951 . S
H1803 C1829 0.950 . S
H1804 C1830 0.950 . S
H1805 C1832 0.950 . S
H1806 C1835 0.950 . S
H1807 C1836 0.939 1_565 S
H1808 C1838 0.950 . S
H1809 C1839 0.950 . S
C1810 H1792 0.951 . S
C1810 C1811 1.366 . S
C1810 C1812 1.388 . S
C1811 C1810 1.366 . S
C1811 C1815 1.385 . S
C1812 H1793 0.951 . S
C1812 C1810 1.388 . S
C1812 C1813 1.366 . S
C1813 C1812 1.366 . S
C1813 C1814 1.414 . S
C1813 C1816 1.499 . S
C1814 H1794 0.950 . S
C1814 C1813 1.414 . S
C1814 C1815 1.374 . S
C1815 H1795 0.950 . S
C1815 C1811 1.385 . S
C1815 C1814 1.374 . S
C1816 C1813 1.499 . S
C1816 C1817 1.373 . S
C1816 C1818 1.389 . S
C1817 H1796 0.950 . S
C1817 C1816 1.373 . S
C1817 C1833 1.377 . S
C1818 C1816 1.389 . S
C1818 C1819 1.524 . S
C1818 C1832 1.377 . S
C1819 C1818 1.524 . S
C1819 C1820 1.397 . S
C1819 C1824 1.363 . S
C1820 H1797 0.950 . S
C1820 C1819 1.397 . S
C1820 C1821 1.334 . S
C1821 H1798 0.950 . S
C1821 C1820 1.334 . S
C1821 C1822 1.287 . S
C1822 C1821 1.287 . S
C1822 C1823 1.524 . S
C1822 H1841 0.913 . S
C1823 H1799 0.950 . S
C1823 C1822 1.524 . S
C1823 C1824 1.415 . S
C1824 H1800 0.950 . S
C1824 C1819 1.363 . S
C1824 C1823 1.415 . S
C1825 H1801 0.951 . S
C1825 C1826 1.366 . S
C1825 C1827 1.388 . S
C1826 C1825 1.366 . S
C1826 C1830 1.385 . S
C1827 H1802 0.951 . S
C1827 C1825 1.388 . S
C1827 C1828 1.366 . S
C1828 C1827 1.366 . S
C1828 C1829 1.414 . S
C1828 C1831 1.499 . S
C1829 H1803 0.950 . S
C1829 C1828 1.414 . S
C1829 C1830 1.374 . S
C1830 H1804 0.950 . S
C1830 C1826 1.385 . S
C1830 C1829 1.374 . S
C1831 C1828 1.499 . S
C1831 C1832 1.373 . S
C1831 C1833 1.389 . S
C1832 H1805 0.950 . S
C1832 C1818 1.377 . S
C1832 C1831 1.373 . S
C1833 C1817 1.377 . S
C1833 C1831 1.389 . S
C1833 C1834 1.524 . S
C1834 C1833 1.524 . S
C1834 C1835 1.397 . S
C1834 C1839 1.363 . S
C1835 H1806 0.950 . S
C1835 C1834 1.397 . S
C1835 C1836 1.349 . S
C1836 H1807 0.939 1_545 S
C1836 C1835 1.349 . S
C1836 C1837 1.284 1_545 S
C1837 C1836 1.284 1_565 S
C1837 C1838 1.524 1_565 S
C1837 H1840 0.999 . S
C1838 H1808 0.950 . S
C1838 C1837 1.524 1_545 S
C1838 C1839 1.415 . S
C1839 H1809 0.950 . S
C1839 C1834 1.363 . S
C1839 C1838 1.415 . S
H1840 C1837 0.999 . S
H1841 C1822 0.913 . S
H1842 C1860 0.951 . S
H1843 C1862 0.951 . S
H1844 C1864 0.950 . S
H1845 C1865 0.950 . S
H1846 C1867 0.950 . S
H1847 C1870 0.950 . S
H1848 C1871 0.950 . S
H1849 C1873 0.950 . S
H1850 C1874 0.950 . S
H1851 C1875 0.951 . S
H1852 C1877 0.951 . S
H1853 C1879 0.950 . S
H1854 C1880 0.950 . S
H1855 C1882 0.950 . S
H1856 C1885 0.950 . S
H1857 C1886 0.950 . S
H1858 C1888 0.950 . S
H1859 C1889 0.950 . S
C1860 H1842 0.951 . S
C1860 C1861 1.366 . S
C1860 C1862 1.388 . S
C1861 C1860 1.366 . S
C1861 C1865 1.385 . S
C1862 H1843 0.951 . S
C1862 C1860 1.388 . S
C1862 C1863 1.366 . S
C1863 C1862 1.366 . S
C1863 C1864 1.414 . S
C1863 C1866 1.499 . S
C1864 H1844 0.950 . S
C1864 C1863 1.414 . S
C1864 C1865 1.374 . S
C1865 H1845 0.950 . S
C1865 C1861 1.385 . S
C1865 C1864 1.374 . S
C1866 C1863 1.499 . S
C1866 C1867 1.373 . S
C1866 C1868 1.389 . S
C1867 H1846 0.950 . S
C1867 C1866 1.373 . S
C1867 C1883 1.377 . S
C1868 C1866 1.389 . S
C1868 C1869 1.524 . S
C1868 C1882 1.377 . S
C1869 C1868 1.524 . S
C1869 C1870 1.397 . S
C1869 C1874 1.363 . S
C1870 H1847 0.950 . S
C1870 C1869 1.397 . S
C1870 C1871 1.334 . S
C1871 H1848 0.950 . S
C1871 C1870 1.334 . S
C1871 C1872 1.287 . S
C1872 C1871 1.287 . S
C1872 C1873 1.524 . S
C1872 H1891 0.913 . S
C1873 H1849 0.950 . S
C1873 C1872 1.524 . S
C1873 C1874 1.415 . S
C1874 H1850 0.950 . S
C1874 C1869 1.363 . S
C1874 C1873 1.415 . S
C1875 H1851 0.951 . S
C1875 C1876 1.366 . S
C1875 C1877 1.388 . S
C1876 C1875 1.366 . S
C1876 C1880 1.385 . S
C1877 H1852 0.951 . S
C1877 C1875 1.388 . S
C1877 C1878 1.366 . S
C1878 C1877 1.366 . S
C1878 C1879 1.414 . S
C1878 C1881 1.499 . S
C1879 H1853 0.950 . S
C1879 C1878 1.414 . S
C1879 C1880 1.374 . S
C1880 H1854 0.950 . S
C1880 C1876 1.385 . S
C1880 C1879 1.374 . S
C1881 C1878 1.499 . S
C1881 C1882 1.373 . S
C1881 C1883 1.389 . S
C1882 H1855 0.950 . S
C1882 C1868 1.377 . S
C1882 C1881 1.373 . S
C1883 C1867 1.377 . S
C1883 C1881 1.389 . S
C1883 C1884 1.524 . S
C1884 C1883 1.524 . S
C1884 C1885 1.397 . S
C1884 C1889 1.363 . S
C1885 H1856 0.950 . S
C1885 C1884 1.397 . S
C1885 C1886 1.334 . S
C1886 H1857 0.950 . S
C1886 C1885 1.334 . S
C1886 C1887 1.287 . S
C1887 C1886 1.287 . S
C1887 C1888 1.524 . S
C1887 H1890 0.999 . S
C1888 H1858 0.950 . S
C1888 C1887 1.524 . S
C1888 C1889 1.415 . S
C1889 H1859 0.950 . S
C1889 C1884 1.363 . S
C1889 C1888 1.415 . S
H1890 C1887 0.999 . S
H1891 C1872 0.913 . S
H1892 C1910 0.951 . S
H1893 C1912 0.951 . S
H1894 C1914 0.950 . S
H1895 C1915 0.950 . S
H1896 C1917 0.950 1_565 S
H1897 C1920 0.950 . S
H1898 C1921 0.950 . S
H1899 C1923 0.950 . S
H1900 C1924 0.950 . S
H1901 C1925 0.951 . S
H1902 C1927 0.951 1_565 S
H1903 C1929 0.950 . S
H1904 C1930 0.950 . S
H1905 C1932 0.950 . S
H1906 C1935 0.950 . S
H1907 C1936 0.950 . S
H1908 C1938 0.950 . S
H1909 C1939 0.950 . S
C1910 H1892 0.951 . S
C1910 C1911 1.366 1_545 S
C1910 C1912 1.388 . S
C1911 C1910 1.366 1_565 S
C1911 C1915 1.385 . S
C1912 H1893 0.951 . S
C1912 C1910 1.388 . S
C1912 C1913 1.366 . S
C1913 C1912 1.366 . S
C1913 C1914 1.414 1_545 S
C1913 C1916 1.499 . S
C1914 H1894 0.950 . S
C1914 C1913 1.414 1_565 S
C1914 C1915 1.374 . S
C1915 H1895 0.950 . S
C1915 C1911 1.385 . S
C1915 C1914 1.374 . S
C1916 C1913 1.499 . S
C1916 C1917 1.373 . S
C1916 C1918 1.389 . S
C1917 H1896 0.950 1_545 S
C1917 C1916 1.373 . S
C1917 C1933 1.377 . S
C1918 C1916 1.389 . S
C1918 C1919 1.524 . S
C1918 C1932 1.377 . S
C1919 C1918 1.524 . S
C1919 C1920 1.397 . S
C1919 C1924 1.363 . S
C1920 H1897 0.950 . S
C1920 C1919 1.397 . S
C1920 C1921 1.334 . S
C1921 H1898 0.950 . S
C1921 C1920 1.334 . S
C1921 C1922 1.287 . S
C1922 C1921 1.287 . S
C1922 C1923 1.524 . S
C1922 H1941 0.913 . S
C1923 H1899 0.950 . S
C1923 C1922 1.524 . S
C1923 C1924 1.415 . S
C1924 H1900 0.950 . S
C1924 C1919 1.363 . S
C1924 C1923 1.415 . S
C1925 H1901 0.951 . S
C1925 C1926 1.366 . S
C1925 C1927 1.388 . S
C1926 C1925 1.366 . S
C1926 C1930 1.385 . S
C1927 H1902 0.951 1_545 S
C1927 C1925 1.388 . S
C1927 C1928 1.366 . S
C1928 C1927 1.366 . S
C1928 C1929 1.414 . S
C1928 C1931 1.499 . S
C1929 H1903 0.950 . S
C1929 C1928 1.414 . S
C1929 C1930 1.374 . S
C1930 H1904 0.950 . S
C1930 C1926 1.385 . S
C1930 C1929 1.374 . S
C1931 C1928 1.499 . S
C1931 C1932 1.373 . S
C1931 C1933 1.389 . S
C1932 H1905 0.950 . S
C1932 C1918 1.377 . S
C1932 C1931 1.373 . S
C1933 C1917 1.377 . S
C1933 C1931 1.389 . S
C1933 C1934 1.501 1_545 S
C1934 C1933 1.501 1_565 S
C1934 C1935 1.356 1_565 S
C1934 C1939 1.425 . S
C1935 H1906 0.950 . S
C1935 C1934 1.356 1_545 S
C1935 C1936 1.334 . S
C1936 H1907 0.950 . S
C1936 C1935 1.334 . S
C1936 C1937 1.287 1_545 S
C1937 C1936 1.287 1_565 S
C1937 C1938 1.524 . S
C1937 H1940 0.999 . S
C1938 H1908 0.950 . S
C1938 C1937 1.524 . S
C1938 C1939 1.415 . S
C1939 H1909 0.950 . S
C1939 C1934 1.425 . S
C1939 C1938 1.415 . S
H1940 C1937 0.999 . S
H1941 C1922 0.913 . S
H1942 C1960 0.951 . S
H1943 C1962 0.951 . S
H1944 C1964 0.950 . S
H1945 C1965 0.950 . S
H1946 C1967 0.950 . S
H1947 C1970 0.950 . S
H1948 C1971 0.950 . S
H1949 C1973 0.950 . S
H1950 C1974 0.950 . S
H1951 C1975 0.951 . S
H1952 C1977 0.951 . S
H1953 C1979 0.950 . S
H1954 C1980 0.950 . S
H1955 C1982 0.950 . S
H1956 C1985 0.950 . S
H1957 C1986 0.950 . S
H1958 C1988 0.950 . S
H1959 C1989 0.950 . S
C1960 H1942 0.951 . S
C1960 C1961 1.366 . S
C1960 C1962 1.388 . S
C1961 C1960 1.366 . S
C1961 C1965 1.385 . S
C1962 H1943 0.951 . S
C1962 C1960 1.388 . S
C1962 C1963 1.366 . S
C1963 C1962 1.366 . S
C1963 C1964 1.414 . S
C1963 C1966 1.499 . S
C1964 H1944 0.950 . S
C1964 C1963 1.414 . S
C1964 C1965 1.374 . S
C1965 H1945 0.950 . S
C1965 C1961 1.385 . S
C1965 C1964 1.374 . S
C1966 C1963 1.499 . S
C1966 C1967 1.373 . S
C1966 C1968 1.389 . S
C1967 H1946 0.950 . S
C1967 C1966 1.373 . S
C1967 C1983 1.377 . S
C1968 C1966 1.389 . S
C1968 C1969 1.524 . S
C1968 C1982 1.377 . S
C1969 C1968 1.524 . S
C1969 C1970 1.397 . S
C1969 C1974 1.363 . S
C1970 H1947 0.950 . S
C1970 C1969 1.397 . S
C1970 C1971 1.334 . S
C1971 H1948 0.950 . S
C1971 C1970 1.334 . S
C1971 C1972 1.287 . S
C1972 C1971 1.287 . S
C1972 C1973 1.524 . S
C1972 H1991 0.913 . S
C1973 H1949 0.950 . S
C1973 C1972 1.524 . S
C1973 C1974 1.415 . S
C1974 H1950 0.950 . S
C1974 C1969 1.363 . S
C1974 C1973 1.415 . S
C1975 H1951 0.951 . S
C1975 C1976 1.366 . S
C1975 C1977 1.388 . S
C1976 C1975 1.366 . S
C1976 C1980 1.385 . S
C1977 H1952 0.951 . S
C1977 C1975 1.388 . S
C1977 C1978 1.366 . S
C1978 C1977 1.366 . S
C1978 C1979 1.414 . S
C1978 C1981 1.499 . S
C1979 H1953 0.950 . S
C1979 C1978 1.414 . S
C1979 C1980 1.374 . S
C1980 H1954 0.950 . S
C1980 C1976 1.385 . S
C1980 C1979 1.374 . S
C1981 C1978 1.499 . S
C1981 C1982 1.373 . S
C1981 C1983 1.389 . S
C1982 H1955 0.950 . S
C1982 C1968 1.377 . S
C1982 C1981 1.373 . S
C1983 C1967 1.377 . S
C1983 C1981 1.389 . S
C1983 C1984 1.524 . S
C1984 C1983 1.524 . S
C1984 C1985 1.397 . S
C1984 C1989 1.363 . S
C1985 H1956 0.950 . S
C1985 C1984 1.397 . S
C1985 C1986 1.334 . S
C1986 H1957 0.950 . S
C1986 C1985 1.334 . S
C1986 C1987 1.287 . S
C1987 C1986 1.287 . S
C1987 C1988 1.524 . S
C1987 H1990 0.999 . S
C1988 H1958 0.950 . S
C1988 C1987 1.524 . S
C1988 C1989 1.415 . S
C1989 H1959 0.950 . S
C1989 C1984 1.363 . S
C1989 C1988 1.415 . S
H1990 C1987 0.999 . S
H1991 C1972 0.913 . S
H1992 C2010 0.951 . S
H1993 C2012 0.951 . S
H1994 C2014 0.950 . S
H1995 C2015 0.950 . S
H1996 C2017 0.950 . S
H1997 C2020 0.950 . S
H1998 C2021 0.950 . S
H1999 C2023 0.950 . S
H2000 C2024 0.950 . S
H2001 C2025 0.951 . S
H2002 C2027 0.951 . S
H2003 C2029 0.950 . S
H2004 C2030 0.950 . S
H2005 C2032 0.950 . S
H2006 C2035 0.950 . S
H2007 C2036 0.950 . S
H2008 C2038 0.950 . S
H2009 C2039 0.950 . S
C2010 H1992 0.951 . S
C2010 C2011 1.366 . S
C2010 C2012 1.388 1_554 S
C2011 C2010 1.366 . S
C2011 C2015 1.385 1_554 S
C2012 H1993 0.951 . S
C2012 C2010 1.388 1_556 S
C2012 C2013 1.366 . S
C2013 C2012 1.366 . S
C2013 C2014 1.414 . S
C2013 C2016 1.499 . S
C2014 H1994 0.950 . S
C2014 C2013 1.414 . S
C2014 C2015 1.374 . S
C2015 H1995 0.950 . S
C2015 C2011 1.385 1_556 S
C2015 C2014 1.374 . S
C2016 C2013 1.499 . S
C2016 C2017 1.373 . S
C2016 C2018 1.389 . S
C2017 H1996 0.950 . S
C2017 C2016 1.373 . S
C2017 C2033 1.377 . S
C2018 C2016 1.389 . S
C2018 C2019 1.524 . S
C2018 C2032 1.377 . S
C2019 C2018 1.524 . S
C2019 C2020 1.397 . S
C2019 C2024 1.363 . S
C2020 H1997 0.950 . S
C2020 C2019 1.397 . S
C2020 C2021 1.334 . S
C2021 H1998 0.950 . S
C2021 C2020 1.334 . S
C2021 C2022 1.287 . S
C2022 C2021 1.287 . S
C2022 C2023 1.524 . S
C2022 H2041 0.913 . S
C2023 H1999 0.950 . S
C2023 C2022 1.524 . S
C2023 C2024 1.415 . S
C2024 H2000 0.950 . S
C2024 C2019 1.363 . S
C2024 C2023 1.415 . S
C2025 H2001 0.951 . S
C2025 C2026 1.366 . S
C2025 C2027 1.388 . S
C2026 C2025 1.366 . S
C2026 C2030 1.385 . S
C2027 H2002 0.951 . S
C2027 C2025 1.388 . S
C2027 C2028 1.366 . S
C2028 C2027 1.366 . S
C2028 C2029 1.414 . S
C2028 C2031 1.499 . S
C2029 H2003 0.950 . S
C2029 C2028 1.414 . S
C2029 C2030 1.374 . S
C2030 H2004 0.950 . S
C2030 C2026 1.385 . S
C2030 C2029 1.374 . S
C2031 C2028 1.499 . S
C2031 C2032 1.373 . S
C2031 C2033 1.389 . S
C2032 H2005 0.950 . S
C2032 C2018 1.377 . S
C2032 C2031 1.373 . S
C2033 C2017 1.377 . S
C2033 C2031 1.389 . S
C2033 C2034 1.524 . S
C2034 C2033 1.524 . S
C2034 C2035 1.397 . S
C2034 C2039 1.363 . S
C2035 H2006 0.950 . S
C2035 C2034 1.397 . S
C2035 C2036 1.334 . S
C2036 H2007 0.950 . S
C2036 C2035 1.334 . S
C2036 C2037 1.287 . S
C2037 C2036 1.287 . S
C2037 C2038 1.524 . S
C2037 H2040 0.999 . S
C2038 H2008 0.950 . S
C2038 C2037 1.524 . S
C2038 C2039 1.415 . S
C2039 H2009 0.950 . S
C2039 C2034 1.363 . S
C2039 C2038 1.415 . S
H2040 C2037 0.999 . S
H2041 C2022 0.913 . S
H2042 C2060 0.951 . S
H2043 C2062 0.951 . S
H2044 C2064 0.950 . S
H2045 C2065 0.950 . S
H2046 C2067 0.950 . S
H2047 C2070 0.950 . S
H2048 C2071 0.950 . S
H2049 C2073 0.950 . S
H2050 C2074 0.950 . S
H2051 C2075 0.951 . S
H2052 C2077 0.951 . S
H2053 C2079 0.950 . S
H2054 C2080 0.950 . S
H2055 C2082 0.950 . S
H2056 C2085 0.950 . S
H2057 C2086 0.950 . S
H2058 C2088 0.950 . S
H2059 C2089 0.950 . S
C2060 H2042 0.951 . S
C2060 C2061 1.366 . S
C2060 C2062 1.388 . S
C2061 C2060 1.366 . S
C2061 C2065 1.385 . S
C2062 H2043 0.951 . S
C2062 C2060 1.388 . S
C2062 C2063 1.366 . S
C2063 C2062 1.366 . S
C2063 C2064 1.414 . S
C2063 C2066 1.499 . S
C2064 H2044 0.950 . S
C2064 C2063 1.414 . S
C2064 C2065 1.374 . S
C2065 H2045 0.950 . S
C2065 C2061 1.385 . S
C2065 C2064 1.374 . S
C2066 C2063 1.499 . S
C2066 C2067 1.373 . S
C2066 C2068 1.389 . S
C2067 H2046 0.950 . S
C2067 C2066 1.373 . S
C2067 C2083 1.377 . S
C2068 C2066 1.389 . S
C2068 C2069 1.524 . S
C2068 C2082 1.377 . S
C2069 C2068 1.524 . S
C2069 C2070 1.397 . S
C2069 C2074 1.363 . S
C2070 H2047 0.950 . S
C2070 C2069 1.397 . S
C2070 C2071 1.334 . S
C2071 H2048 0.950 . S
C2071 C2070 1.334 . S
C2071 C2072 1.287 . S
C2072 C2071 1.287 . S
C2072 C2073 1.524 . S
C2072 H2091 0.913 . S
C2073 H2049 0.950 . S
C2073 C2072 1.524 . S
C2073 C2074 1.415 . S
C2074 H2050 0.950 . S
C2074 C2069 1.363 . S
C2074 C2073 1.415 . S
C2075 H2051 0.951 . S
C2075 C2076 1.366 . S
C2075 C2077 1.388 . S
C2076 C2075 1.366 . S
C2076 C2080 1.385 . S
C2077 H2052 0.951 . S
C2077 C2075 1.388 . S
C2077 C2078 1.366 . S
C2078 C2077 1.366 . S
C2078 C2079 1.414 . S
C2078 C2081 1.499 . S
C2079 H2053 0.950 . S
C2079 C2078 1.414 . S
C2079 C2080 1.374 . S
C2080 H2054 0.950 . S
C2080 C2076 1.385 . S
C2080 C2079 1.374 . S
C2081 C2078 1.499 . S
C2081 C2082 1.373 . S
C2081 C2083 1.389 . S
C2082 H2055 0.950 . S
C2082 C2068 1.377 . S
C2082 C2081 1.373 . S
C2083 C2067 1.377 . S
C2083 C2081 1.389 . S
C2083 C2084 1.524 . S
C2084 C2083 1.524 . S
C2084 C2085 1.397 . S
C2084 C2089 1.363 . S
C2085 H2056 0.950 . S
C2085 C2084 1.397 . S
C2085 C2086 1.334 . S
C2086 H2057 0.950 . S
C2086 C2085 1.334 . S
C2086 C2087 1.287 . S
C2087 C2086 1.287 . S
C2087 C2088 1.524 . S
C2087 H2090 0.999 . S
C2088 H2058 0.950 . S
C2088 C2087 1.524 . S
C2088 C2089 1.415 . S
C2089 H2059 0.950 . S
C2089 C2084 1.363 . S
C2089 C2088 1.415 . S
H2090 C2087 0.999 . S
H2091 C2072 0.913 . S
H2092 C2110 0.951 . S
H2093 C2112 0.951 . S
H2094 C2114 0.950 . S
H2095 C2115 0.950 . S
H2096 C2117 0.950 . S
H2097 C2120 0.950 . S
H2098 C2121 0.950 . S
H2099 C2123 0.950 . S
H2100 C2124 0.950 . S
H2101 C2125 0.951 . S
H2102 C2127 0.951 . S
H2103 C2129 0.950 . S
H2104 C2130 0.950 . S
H2105 C2132 0.950 . S
H2106 C2135 0.950 . S
H2107 C2136 0.950 . S
H2108 C2138 0.950 . S
H2109 C2139 0.950 . S
C2110 H2092 0.951 . S
C2110 C2111 1.366 . S
C2110 C2112 1.388 . S
C2111 C2110 1.366 . S
C2111 C2115 1.385 . S
C2112 H2093 0.951 . S
C2112 C2110 1.388 . S
C2112 C2113 1.366 . S
C2113 C2112 1.366 . S
C2113 C2114 1.414 . S
C2113 C2116 1.499 . S
C2114 H2094 0.950 . S
C2114 C2113 1.414 . S
C2114 C2115 1.374 . S
C2115 H2095 0.950 . S
C2115 C2111 1.385 . S
C2115 C2114 1.374 . S
C2116 C2113 1.499 . S
C2116 C2117 1.373 . S
C2116 C2118 1.389 . S
C2117 H2096 0.950 . S
C2117 C2116 1.373 . S
C2117 C2133 1.377 . S
C2118 C2116 1.389 . S
C2118 C2119 1.524 . S
C2118 C2132 1.377 . S
C2119 C2118 1.524 . S
C2119 C2120 1.397 . S
C2119 C2124 1.363 . S
C2120 H2097 0.950 . S
C2120 C2119 1.397 . S
C2120 C2121 1.334 . S
C2121 H2098 0.950 . S
C2121 C2120 1.334 . S
C2121 C2122 1.287 . S
C2122 C2121 1.287 . S
C2122 C2123 1.524 . S
C2122 H2141 0.913 . S
C2123 H2099 0.950 . S
C2123 C2122 1.524 . S
C2123 C2124 1.415 . S
C2124 H2100 0.950 . S
C2124 C2119 1.363 . S
C2124 C2123 1.415 . S
C2125 H2101 0.951 . S
C2125 C2126 1.366 . S
C2125 C2127 1.388 . S
C2126 C2125 1.366 . S
C2126 C2130 1.385 . S
C2127 H2102 0.951 . S
C2127 C2125 1.388 . S
C2127 C2128 1.366 . S
C2128 C2127 1.366 . S
C2128 C2129 1.414 . S
C2128 C2131 1.499 . S
C2129 H2103 0.950 . S
C2129 C2128 1.414 . S
C2129 C2130 1.374 . S
C2130 H2104 0.950 . S
C2130 C2126 1.385 . S
C2130 C2129 1.374 . S
C2131 C2128 1.499 . S
C2131 C2132 1.373 . S
C2131 C2133 1.389 . S
C2132 H2105 0.950 . S
C2132 C2118 1.377 . S
C2132 C2131 1.373 . S
C2133 C2117 1.377 . S
C2133 C2131 1.389 . S
C2133 C2134 1.524 . S
C2134 C2133 1.524 . S
C2134 C2135 1.397 . S
C2134 C2139 1.363 . S
C2135 H2106 0.950 . S
C2135 C2134 1.397 . S
C2135 C2136 1.334 . S
C2136 H2107 0.950 . S
C2136 C2135 1.334 . S
C2136 C2137 1.287 . S
C2137 C2136 1.287 . S
C2137 C2138 1.524 . S
C2137 H2140 0.999 . S
C2138 H2108 0.950 . S
C2138 C2137 1.524 . S
C2138 C2139 1.415 . S
C2139 H2109 0.950 . S
C2139 C2134 1.363 . S
C2139 C2138 1.415 . S
H2140 C2137 0.999 . S
H2141 C2122 0.913 . S
H2142 C2160 0.951 . S
H2143 C2162 0.951 . S
H2144 C2164 0.950 . S
H2145 C2165 0.950 . S
H2146 C2167 0.950 . S
H2147 C2170 0.950 . S
H2148 C2171 0.950 . S
H2149 C2173 0.950 . S
H2150 C2174 0.950 . S
H2151 C2175 0.951 . S
H2152 C2177 0.951 . S
H2153 C2179 0.950 . S
H2154 C2180 0.950 . S
H2155 C2182 0.950 . S
H2156 C2185 0.950 . S
H2157 C2186 0.950 . S
H2158 C2188 0.950 . S
H2159 C2189 0.950 . S
C2160 H2142 0.951 . S
C2160 C2161 1.366 . S
C2160 C2162 1.388 . S
C2161 C2160 1.366 . S
C2161 C2165 1.385 . S
C2162 H2143 0.951 . S
C2162 C2160 1.388 . S
C2162 C2163 1.366 . S
C2163 C2162 1.366 . S
C2163 C2164 1.414 . S
C2163 C2166 1.499 . S
C2164 H2144 0.950 . S
C2164 C2163 1.414 . S
C2164 C2165 1.374 . S
C2165 H2145 0.950 . S
C2165 C2161 1.385 . S
C2165 C2164 1.374 . S
C2166 C2163 1.499 . S
C2166 C2167 1.373 . S
C2166 C2168 1.389 . S
C2167 H2146 0.950 . S
C2167 C2166 1.373 . S
C2167 C2183 1.377 . S
C2168 C2166 1.389 . S
C2168 C2169 1.524 . S
C2168 C2182 1.377 . S
C2169 C2168 1.524 . S
C2169 C2170 1.397 . S
C2169 C2174 1.363 . S
C2170 H2147 0.950 . S
C2170 C2169 1.397 . S
C2170 C2171 1.334 . S
C2171 H2148 0.950 . S
C2171 C2170 1.334 . S
C2171 C2172 1.287 . S
C2172 C2171 1.287 . S
C2172 C2173 1.524 . S
C2172 H2191 0.913 . S
C2173 H2149 0.950 . S
C2173 C2172 1.524 . S
C2173 C2174 1.415 . S
C2174 H2150 0.950 . S
C2174 C2169 1.363 . S
C2174 C2173 1.415 . S
C2175 H2151 0.951 . S
C2175 C2176 1.366 . S
C2175 C2177 1.388 . S
C2176 C2175 1.366 . S
C2176 C2180 1.385 . S
C2177 H2152 0.951 . S
C2177 C2175 1.388 . S
C2177 C2178 1.366 . S
C2178 C2177 1.366 . S
C2178 C2179 1.414 . S
C2178 C2181 1.499 . S
C2179 H2153 0.950 . S
C2179 C2178 1.414 . S
C2179 C2180 1.374 . S
C2180 H2154 0.950 . S
C2180 C2176 1.385 . S
C2180 C2179 1.374 . S
C2181 C2178 1.499 . S
C2181 C2182 1.373 . S
C2181 C2183 1.389 . S
C2182 H2155 0.950 . S
C2182 C2168 1.377 . S
C2182 C2181 1.373 . S
C2183 C2167 1.377 . S
C2183 C2181 1.389 . S
C2183 C2184 1.524 . S
C2184 C2183 1.524 . S
C2184 C2185 1.397 . S
C2184 C2189 1.363 . S
C2185 H2156 0.950 . S
C2185 C2184 1.397 . S
C2185 C2186 1.334 . S
C2186 H2157 0.950 . S
C2186 C2185 1.334 . S
C2186 C2187 1.287 . S
C2187 C2186 1.287 . S
C2187 C2188 1.524 . S
C2187 H2190 0.999 . S
C2188 H2158 0.950 . S
C2188 C2187 1.524 . S
C2188 C2189 1.415 . S
C2189 H2159 0.950 . S
C2189 C2184 1.363 . S
C2189 C2188 1.415 . S
H2190 C2187 0.999 . S
H2191 C2172 0.913 . S
H2192 C2210 0.951 . S
H2193 C2212 0.951 . S
H2194 C2214 0.950 . S
H2195 C2215 0.950 . S
H2196 C2217 0.950 . S
H2197 C2220 0.950 . S
H2198 C2221 0.950 . S
H2199 C2223 0.950 . S
H2200 C2224 0.950 . S
H2201 C2225 0.951 . S
H2202 C2227 0.951 . S
H2203 C2229 0.950 . S
H2204 C2230 0.950 . S
H2205 C2232 0.950 . S
H2206 C2235 0.950 . S
H2207 C2236 0.950 . S
H2208 C2238 0.950 . S
H2209 C2239 0.950 . S
C2210 H2192 0.951 . S
C2210 C2211 1.366 . S
C2210 C2212 1.388 . S
C2211 C2210 1.366 . S
C2211 C2215 1.385 . S
C2212 H2193 0.951 . S
C2212 C2210 1.388 . S
C2212 C2213 1.366 . S
C2213 C2212 1.366 . S
C2213 C2214 1.414 . S
C2213 C2216 1.499 . S
C2214 H2194 0.950 . S
C2214 C2213 1.414 . S
C2214 C2215 1.374 . S
C2215 H2195 0.950 . S
C2215 C2211 1.385 . S
C2215 C2214 1.374 . S
C2216 C2213 1.499 . S
C2216 C2217 1.373 . S
C2216 C2218 1.389 . S
C2217 H2196 0.950 . S
C2217 C2216 1.373 . S
C2217 C2233 1.377 . S
C2218 C2216 1.389 . S
C2218 C2219 1.524 . S
C2218 C2232 1.377 . S
C2219 C2218 1.524 . S
C2219 C2220 1.397 . S
C2219 C2224 1.363 . S
C2220 H2197 0.950 . S
C2220 C2219 1.397 . S
C2220 C2221 1.334 . S
C2221 H2198 0.950 . S
C2221 C2220 1.334 . S
C2221 C2222 1.287 . S
C2222 C2221 1.287 . S
C2222 C2223 1.524 . S
C2222 H2241 0.913 . S
C2223 H2199 0.950 . S
C2223 C2222 1.524 . S
C2223 C2224 1.415 . S
C2224 H2200 0.950 . S
C2224 C2219 1.363 . S
C2224 C2223 1.415 . S
C2225 H2201 0.951 . S
C2225 C2226 1.366 . S
C2225 C2227 1.388 . S
C2226 C2225 1.366 . S
C2226 C2230 1.385 . S
C2227 H2202 0.951 . S
C2227 C2225 1.388 . S
C2227 C2228 1.366 . S
C2228 C2227 1.366 . S
C2228 C2229 1.414 . S
C2228 C2231 1.499 . S
C2229 H2203 0.950 . S
C2229 C2228 1.414 . S
C2229 C2230 1.374 . S
C2230 H2204 0.950 . S
C2230 C2226 1.385 . S
C2230 C2229 1.374 . S
C2231 C2228 1.499 . S
C2231 C2232 1.373 . S
C2231 C2233 1.389 . S
C2232 H2205 0.950 . S
C2232 C2218 1.377 . S
C2232 C2231 1.373 . S
C2233 C2217 1.377 . S
C2233 C2231 1.389 . S
C2233 C2234 1.524 . S
C2234 C2233 1.524 . S
C2234 C2235 1.397 . S
C2234 C2239 1.363 . S
C2235 H2206 0.950 . S
C2235 C2234 1.397 . S
C2235 C2236 1.334 . S
C2236 H2207 0.950 . S
C2236 C2235 1.334 . S
C2236 C2237 1.287 . S
C2237 C2236 1.287 . S
C2237 C2238 1.524 . S
C2237 H2240 0.999 . S
C2238 H2208 0.950 . S
C2238 C2237 1.524 . S
C2238 C2239 1.415 . S
C2239 H2209 0.950 . S
C2239 C2234 1.363 . S
C2239 C2238 1.415 . S
H2240 C2237 0.999 . S
H2241 C2222 0.913 . S
H2242 C2260 0.951 . S
H2243 C2262 0.951 . S
H2244 C2264 0.950 . S
H2245 C2265 0.950 . S
H2246 C2267 0.950 . S
H2247 C2270 0.950 . S
H2248 C2271 0.950 . S
H2249 C2273 0.950 . S
H2250 C2274 0.950 . S
H2251 C2275 0.951 . S
H2252 C2277 0.951 . S
H2253 C2279 0.950 . S
H2254 C2280 0.950 . S
H2255 C2282 0.950 1_556 S
H2256 C2285 0.950 . S
H2257 C2286 0.950 . S
H2258 C2288 0.950 . S
H2259 C2289 0.950 . S
C2260 H2242 0.951 . S
C2260 C2261 1.366 . S
C2260 C2262 1.388 . S
C2261 C2260 1.366 . S
C2261 C2265 1.385 1_565 S
C2262 H2243 0.951 . S
C2262 C2260 1.388 . S
C2262 C2263 1.366 . S
C2263 C2262 1.366 . S
C2263 C2264 1.414 . S
C2263 C2266 1.499 . S
C2264 H2244 0.950 . S
C2264 C2263 1.414 . S
C2264 C2265 1.374 1_565 S
C2265 H2245 0.950 . S
C2265 C2261 1.385 1_545 S
C2265 C2264 1.374 1_545 S
C2266 C2263 1.499 . S
C2266 C2267 1.373 . S
C2266 C2268 1.389 . S
C2267 H2246 0.950 . S
C2267 C2266 1.373 . S
C2267 C2283 1.377 . S
C2268 C2266 1.389 . S
C2268 C2269 1.524 1_554 S
C2268 C2282 1.377 . S
C2269 C2268 1.524 1_556 S
C2269 C2270 1.397 . S
C2269 C2274 1.363 . S
C2270 H2247 0.950 . S
C2270 C2269 1.397 . S
C2270 C2271 1.334 . S
C2271 H2248 0.950 . S
C2271 C2270 1.334 . S
C2271 C2272 1.287 . S
C2272 C2271 1.287 . S
C2272 C2273 1.524 . S
C2272 H2291 0.913 . S
C2273 H2249 0.950 . S
C2273 C2272 1.524 . S
C2273 C2274 1.415 . S
C2274 H2250 0.950 . S
C2274 C2269 1.363 . S
C2274 C2273 1.415 . S
C2275 H2251 0.951 . S
C2275 C2276 1.366 . S
C2275 C2277 1.388 1_556 S
C2276 C2275 1.366 . S
C2276 C2280 1.385 1_556 S
C2277 H2252 0.951 . S
C2277 C2275 1.388 1_554 S
C2277 C2278 1.366 . S
C2278 C2277 1.366 . S
C2278 C2279 1.414 . S
C2278 C2281 1.499 . S
C2279 H2253 0.950 . S
C2279 C2278 1.414 . S
C2279 C2280 1.374 . S
C2280 H2254 0.950 . S
C2280 C2276 1.385 1_554 S
C2280 C2279 1.374 . S
C2281 C2278 1.499 . S
C2281 C2282 1.373 . S
C2281 C2283 1.389 . S
C2282 H2255 0.950 1_554 S
C2282 C2268 1.377 . S
C2282 C2281 1.373 . S
C2283 C2267 1.377 . S
C2283 C2281 1.389 . S
C2283 C2284 1.524 . S
C2284 C2283 1.524 . S
C2284 C2285 1.397 . S
C2284 C2289 1.363 . S
C2285 H2256 0.950 . S
C2285 C2284 1.397 . S
C2285 C2286 1.334 . S
C2286 H2257 0.950 . S
C2286 C2285 1.334 . S
C2286 C2287 1.287 . S
C2287 C2286 1.287 . S
C2287 C2288 1.524 . S
C2287 H2290 0.999 . S
C2288 H2258 0.950 . S
C2288 C2287 1.524 . S
C2288 C2289 1.415 . S
C2289 H2259 0.950 . S
C2289 C2284 1.363 . S
C2289 C2288 1.415 . S
H2290 C2287 0.999 . S
H2291 C2272 0.913 . S
H2292 C2310 0.951 . S
H2293 C2312 0.951 . S
H2294 C2314 0.950 . S
H2295 C2315 0.950 . S
H2296 C2317 0.950 . S
H2297 C2320 0.950 . S
H2298 C2321 0.950 . S
H2299 C2323 0.950 . S
H2300 C2324 0.950 . S
H2301 C2325 0.951 . S
H2302 C2327 0.951 . S
H2303 C2329 0.950 . S
H2304 C2330 0.950 . S
H2305 C2332 0.950 . S
H2306 C2335 0.950 . S
H2307 C2336 0.950 . S
H2308 C2338 0.950 . S
H2309 C2339 0.950 . S
C2310 H2292 0.951 . S
C2310 C2311 1.366 . S
C2310 C2312 1.388 . S
C2311 C2310 1.366 . S
C2311 C2315 1.385 . S
C2312 H2293 0.951 . S
C2312 C2310 1.388 . S
C2312 C2313 1.366 . S
C2313 C2312 1.366 . S
C2313 C2314 1.414 . S
C2313 C2316 1.499 . S
C2314 H2294 0.950 . S
C2314 C2313 1.414 . S
C2314 C2315 1.374 . S
C2315 H2295 0.950 . S
C2315 C2311 1.385 . S
C2315 C2314 1.374 . S
C2316 C2313 1.499 . S
C2316 C2317 1.373 . S
C2316 C2318 1.389 . S
C2317 H2296 0.950 . S
C2317 C2316 1.373 . S
C2317 C2333 1.377 . S
C2318 C2316 1.389 . S
C2318 C2319 1.524 . S
C2318 C2332 1.377 . S
C2319 C2318 1.524 . S
C2319 C2320 1.397 . S
C2319 C2324 1.363 . S
C2320 H2297 0.950 . S
C2320 C2319 1.397 . S
C2320 C2321 1.334 . S
C2321 H2298 0.950 . S
C2321 C2320 1.334 . S
C2321 C2322 1.287 . S
C2322 C2321 1.287 . S
C2322 C2323 1.524 . S
C2322 H2341 0.913 . S
C2323 H2299 0.950 . S
C2323 C2322 1.524 . S
C2323 C2324 1.415 . S
C2324 H2300 0.950 . S
C2324 C2319 1.363 . S
C2324 C2323 1.415 . S
C2325 H2301 0.951 . S
C2325 C2326 1.366 . S
C2325 C2327 1.388 . S
C2326 C2325 1.366 . S
C2326 C2330 1.385 . S
C2327 H2302 0.951 . S
C2327 C2325 1.388 . S
C2327 C2328 1.366 . S
C2328 C2327 1.366 . S
C2328 C2329 1.414 . S
C2328 C2331 1.499 . S
C2329 H2303 0.950 . S
C2329 C2328 1.414 . S
C2329 C2330 1.374 . S
C2330 H2304 0.950 . S
C2330 C2326 1.385 . S
C2330 C2329 1.374 . S
C2331 C2328 1.499 . S
C2331 C2332 1.373 . S
C2331 C2333 1.389 . S
C2332 H2305 0.950 . S
C2332 C2318 1.377 . S
C2332 C2331 1.373 . S
C2333 C2317 1.377 . S
C2333 C2331 1.389 . S
C2333 C2334 1.524 . S
C2334 C2333 1.524 . S
C2334 C2335 1.397 . S
C2334 C2339 1.363 . S
C2335 H2306 0.950 . S
C2335 C2334 1.397 . S
C2335 C2336 1.334 . S
C2336 H2307 0.950 . S
C2336 C2335 1.334 . S
C2336 C2337 1.287 . S
C2337 C2336 1.287 . S
C2337 C2338 1.524 . S
C2337 H2340 0.999 . S
C2338 H2308 0.950 . S
C2338 C2337 1.524 . S
C2338 C2339 1.415 . S
C2339 H2309 0.950 . S
C2339 C2334 1.363 . S
C2339 C2338 1.415 . S
H2340 C2337 0.999 . S
H2341 C2322 0.913 . S
H2342 C2360 0.951 . S
H2343 C2362 0.951 . S
H2344 C2364 0.950 . S
H2345 C2365 0.950 . S
H2346 C2367 0.950 . S
H2347 C2370 0.950 . S
H2348 C2371 0.950 . S
H2349 C2373 0.950 . S
H2350 C2374 0.950 . S
H2351 C2375 0.951 . S
H2352 C2377 0.951 . S
H2353 C2379 0.950 . S
H2354 C2380 0.950 . S
H2355 C2382 0.950 . S
H2356 C2385 0.950 . S
H2357 C2386 0.950 . S
H2358 C2388 0.950 . S
H2359 C2389 0.950 . S
C2360 H2342 0.951 . S
C2360 C2361 1.366 . S
C2360 C2362 1.388 1_455 S
C2361 C2360 1.366 . S
C2361 C2365 1.385 1_455 S
C2362 H2343 0.951 . S
C2362 C2360 1.388 1_655 S
C2362 C2363 1.366 . S
C2363 C2362 1.366 . S
C2363 C2364 1.414 . S
C2363 C2366 1.499 . S
C2364 H2344 0.950 . S
C2364 C2363 1.414 . S
C2364 C2365 1.374 . S
C2365 H2345 0.950 . S
C2365 C2361 1.385 1_655 S
C2365 C2364 1.374 . S
C2366 C2363 1.499 . S
C2366 C2367 1.373 . S
C2366 C2368 1.389 . S
C2367 H2346 0.950 . S
C2367 C2366 1.373 . S
C2367 C2383 1.377 . S
C2368 C2366 1.389 . S
C2368 C2369 1.524 . S
C2368 C2382 1.377 . S
C2369 C2368 1.524 . S
C2369 C2370 1.397 . S
C2369 C2374 1.363 . S
C2370 H2347 0.950 . S
C2370 C2369 1.397 . S
C2370 C2371 1.334 1_655 S
C2371 H2348 0.950 . S
C2371 C2370 1.334 1_455 S
C2371 C2372 1.287 . S
C2372 C2371 1.287 . S
C2372 C2373 1.524 . S
C2372 H2391 0.913 . S
C2373 H2349 0.950 . S
C2373 C2372 1.524 . S
C2373 C2374 1.415 1_455 S
C2374 H2350 0.950 . S
C2374 C2369 1.363 . S
C2374 C2373 1.415 1_655 S
C2375 H2351 0.951 . S
C2375 C2376 1.366 . S
C2375 C2377 1.388 . S
C2376 C2375 1.366 . S
C2376 C2380 1.385 . S
C2377 H2352 0.951 . S
C2377 C2375 1.388 . S
C2377 C2378 1.366 . S
C2378 C2377 1.366 . S
C2378 C2379 1.414 . S
C2378 C2381 1.499 . S
C2379 H2353 0.950 . S
C2379 C2378 1.414 . S
C2379 C2380 1.374 . S
C2380 H2354 0.950 . S
C2380 C2376 1.385 . S
C2380 C2379 1.374 . S
C2381 C2378 1.499 . S
C2381 C2382 1.373 . S
C2381 C2383 1.389 . S
C2382 H2355 0.950 . S
C2382 C2368 1.377 . S
C2382 C2381 1.373 . S
C2383 C2367 1.377 . S
C2383 C2381 1.389 . S
C2383 C2384 1.524 . S
C2384 C2383 1.524 . S
C2384 C2385 1.397 . S
C2384 C2389 1.363 . S
C2385 H2356 0.950 . S
C2385 C2384 1.397 . S
C2385 C2386 1.334 . S
C2386 H2357 0.950 . S
C2386 C2385 1.334 . S
C2386 C2387 1.287 . S
C2387 C2386 1.287 . S
C2387 C2388 1.524 . S
C2387 H2390 0.999 . S
C2388 H2358 0.950 . S
C2388 C2387 1.524 . S
C2388 C2389 1.415 . S
C2389 H2359 0.950 . S
C2389 C2384 1.363 . S
C2389 C2388 1.415 . S
H2390 C2387 0.999 . S
H2391 C2372 0.913 . S
H2392 C2410 0.951 . S
H2393 C2412 0.951 . S
H2394 C2414 0.950 . S
H2395 C2415 0.950 . S
H2396 C2417 0.950 . S
H2397 C2420 0.950 . S
H2398 C2421 0.950 . S
H2399 C2423 0.950 . S
H2400 C2424 0.950 . S
H2401 C2425 0.951 . S
H2402 C2427 0.951 . S
H2403 C2429 0.950 . S
H2404 C2430 0.950 . S
H2405 C2432 0.950 . S
H2406 C2435 0.950 . S
H2407 C2436 0.950 . S
H2408 C2438 0.950 . S
H2409 C2439 0.950 . S
C2410 H2392 0.951 . S
C2410 C2411 1.366 . S
C2410 C2412 1.388 . S
C2411 C2410 1.366 . S
C2411 C2415 1.385 . S
C2412 H2393 0.951 . S
C2412 C2410 1.388 . S
C2412 C2413 1.366 . S
C2413 C2412 1.366 . S
C2413 C2414 1.414 . S
C2413 C2416 1.499 . S
C2414 H2394 0.950 . S
C2414 C2413 1.414 . S
C2414 C2415 1.374 . S
C2415 H2395 0.950 . S
C2415 C2411 1.385 . S
C2415 C2414 1.374 . S
C2416 C2413 1.499 . S
C2416 C2417 1.373 . S
C2416 C2418 1.389 . S
C2417 H2396 0.950 . S
C2417 C2416 1.373 . S
C2417 C2433 1.377 . S
C2418 C2416 1.389 . S
C2418 C2419 1.524 . S
C2418 C2432 1.377 . S
C2419 C2418 1.524 . S
C2419 C2420 1.397 . S
C2419 C2424 1.363 . S
C2420 H2397 0.950 . S
C2420 C2419 1.397 . S
C2420 C2421 1.334 . S
C2421 H2398 0.950 . S
C2421 C2420 1.334 . S
C2421 C2422 1.287 . S
C2422 C2421 1.287 . S
C2422 C2423 1.524 . S
C2422 H2441 0.913 . S
C2423 H2399 0.950 . S
C2423 C2422 1.524 . S
C2423 C2424 1.415 . S
C2424 H2400 0.950 . S
C2424 C2419 1.363 . S
C2424 C2423 1.415 . S
C2425 H2401 0.951 . S
C2425 C2426 1.366 . S
C2425 C2427 1.388 . S
C2426 C2425 1.366 . S
C2426 C2430 1.385 . S
C2427 H2402 0.951 . S
C2427 C2425 1.388 . S
C2427 C2428 1.366 . S
C2428 C2427 1.366 . S
C2428 C2429 1.414 . S
C2428 C2431 1.499 . S
C2429 H2403 0.950 . S
C2429 C2428 1.414 . S
C2429 C2430 1.374 . S
C2430 H2404 0.950 . S
C2430 C2426 1.385 . S
C2430 C2429 1.374 . S
C2431 C2428 1.499 . S
C2431 C2432 1.373 . S
C2431 C2433 1.389 . S
C2432 H2405 0.950 . S
C2432 C2418 1.377 . S
C2432 C2431 1.373 . S
C2433 C2417 1.377 . S
C2433 C2431 1.389 . S
C2433 C2434 1.524 . S
C2434 C2433 1.524 . S
C2434 C2435 1.397 . S
C2434 C2439 1.363 . S
C2435 H2406 0.950 . S
C2435 C2434 1.397 . S
C2435 C2436 1.334 . S
C2436 H2407 0.950 . S
C2436 C2435 1.334 . S
C2436 C2437 1.287 . S
C2437 C2436 1.287 . S
C2437 C2438 1.524 . S
C2437 H2440 0.999 . S
C2438 H2408 0.950 . S
C2438 C2437 1.524 . S
C2438 C2439 1.415 . S
C2439 H2409 0.950 . S
C2439 C2434 1.363 . S
C2439 C2438 1.415 . S
H2440 C2437 0.999 . S
H2441 C2422 0.913 . S
H2442 C2460 0.951 . S
H2443 C2462 0.951 . S
H2444 C2464 0.950 . S
H2445 C2465 0.950 . S
H2446 C2467 0.950 . S
H2447 C2470 0.950 . S
H2448 C2471 0.950 . S
H2449 C2473 0.950 . S
H2450 C2474 0.950 . S
H2451 C2475 0.951 . S
H2452 C2477 0.951 . S
H2453 C2479 0.950 . S
H2454 C2480 0.950 . S
H2455 C2482 0.950 . S
H2456 C2485 0.950 . S
H2457 C2486 0.950 . S
H2458 C2488 0.950 . S
H2459 C2489 0.950 . S
C2460 H2442 0.951 . S
C2460 C2461 1.366 . S
C2460 C2462 1.388 . S
C2461 C2460 1.366 . S
C2461 C2465 1.385 . S
C2462 H2443 0.951 . S
C2462 C2460 1.388 . S
C2462 C2463 1.366 . S
C2463 C2462 1.366 . S
C2463 C2464 1.414 . S
C2463 C2466 1.499 . S
C2464 H2444 0.950 . S
C2464 C2463 1.414 . S
C2464 C2465 1.374 . S
C2465 H2445 0.950 . S
C2465 C2461 1.385 . S
C2465 C2464 1.374 . S
C2466 C2463 1.499 . S
C2466 C2467 1.373 . S
C2466 C2468 1.389 . S
C2467 H2446 0.950 . S
C2467 C2466 1.373 . S
C2467 C2483 1.377 . S
C2468 C2466 1.389 . S
C2468 C2469 1.524 . S
C2468 C2482 1.377 . S
C2469 C2468 1.524 . S
C2469 C2470 1.397 . S
C2469 C2474 1.363 . S
C2470 H2447 0.950 . S
C2470 C2469 1.397 . S
C2470 C2471 1.334 . S
C2471 H2448 0.950 . S
C2471 C2470 1.334 . S
C2471 C2472 1.287 . S
C2472 C2471 1.287 . S
C2472 C2473 1.524 . S
C2472 H2491 0.913 . S
C2473 H2449 0.950 . S
C2473 C2472 1.524 . S
C2473 C2474 1.415 . S
C2474 H2450 0.950 . S
C2474 C2469 1.363 . S
C2474 C2473 1.415 . S
C2475 H2451 0.951 . S
C2475 C2476 1.366 . S
C2475 C2477 1.388 . S
C2476 C2475 1.366 . S
C2476 C2480 1.385 . S
C2477 H2452 0.951 . S
C2477 C2475 1.388 . S
C2477 C2478 1.366 . S
C2478 C2477 1.366 . S
C2478 C2479 1.414 . S
C2478 C2481 1.499 . S
C2479 H2453 0.950 . S
C2479 C2478 1.414 . S
C2479 C2480 1.374 . S
C2480 H2454 0.950 . S
C2480 C2476 1.385 . S
C2480 C2479 1.374 . S
C2481 C2478 1.499 . S
C2481 C2482 1.373 . S
C2481 C2483 1.389 . S
C2482 H2455 0.950 . S
C2482 C2468 1.377 . S
C2482 C2481 1.373 . S
C2483 C2467 1.377 . S
C2483 C2481 1.389 . S
C2483 C2484 1.524 . S
C2484 C2483 1.524 . S
C2484 C2485 1.397 . S
C2484 C2489 1.363 . S
C2485 H2456 0.950 . S
C2485 C2484 1.397 . S
C2485 C2486 1.334 . S
C2486 H2457 0.950 . S
C2486 C2485 1.334 . S
C2486 C2487 1.287 . S
C2487 C2486 1.287 . S
C2487 C2488 1.524 . S
C2487 H2490 0.999 . S
C2488 H2458 0.950 . S
C2488 C2487 1.524 . S
C2488 C2489 1.415 . S
C2489 H2459 0.950 . S
C2489 C2484 1.363 . S
C2489 C2488 1.415 . S
H2490 C2487 0.999 . S
H2491 C2472 0.913 . S
H2492 C2510 0.951 . S
H2493 C2512 0.951 . S
H2494 C2514 0.950 . S
H2495 C2515 0.950 . S
H2496 C2517 0.950 . S
H2497 C2520 0.950 . S
H2498 C2521 0.950 . S
H2499 C2523 0.950 . S
H2500 C2524 0.950 . S
H2501 C2525 0.951 . S
H2502 C2527 0.951 . S
H2503 C2529 0.950 . S
H2504 C2530 0.950 . S
H2505 C2532 0.950 . S
H2506 C2535 0.950 . S
H2507 C2536 0.950 . S
H2508 C2538 0.950 . S
H2509 C2539 0.950 . S
C2510 H2492 0.951 . S
C2510 C2511 1.366 . S
C2510 C2512 1.388 . S
C2511 C2510 1.366 . S
C2511 C2515 1.385 . S
C2512 H2493 0.951 . S
C2512 C2510 1.388 . S
C2512 C2513 1.366 . S
C2513 C2512 1.366 . S
C2513 C2514 1.414 . S
C2513 C2516 1.499 . S
C2514 H2494 0.950 . S
C2514 C2513 1.414 . S
C2514 C2515 1.374 . S
C2515 H2495 0.950 . S
C2515 C2511 1.385 . S
C2515 C2514 1.374 . S
C2516 C2513 1.499 . S
C2516 C2517 1.373 . S
C2516 C2518 1.389 . S
C2517 H2496 0.950 . S
C2517 C2516 1.373 . S
C2517 C2533 1.377 . S
C2518 C2516 1.389 . S
C2518 C2519 1.524 . S
C2518 C2532 1.377 . S
C2519 C2518 1.524 . S
C2519 C2520 1.397 . S
C2519 C2524 1.363 . S
C2520 H2497 0.950 . S
C2520 C2519 1.397 . S
C2520 C2521 1.334 . S
C2521 H2498 0.950 . S
C2521 C2520 1.334 . S
C2521 C2522 1.287 . S
C2522 C2521 1.287 . S
C2522 C2523 1.524 . S
C2522 H2541 0.913 . S
C2523 H2499 0.950 . S
C2523 C2522 1.524 . S
C2523 C2524 1.415 . S
C2524 H2500 0.950 . S
C2524 C2519 1.363 . S
C2524 C2523 1.415 . S
C2525 H2501 0.951 . S
C2525 C2526 1.366 . S
C2525 C2527 1.388 . S
C2526 C2525 1.366 . S
C2526 C2530 1.385 . S
C2527 H2502 0.951 . S
C2527 C2525 1.388 . S
C2527 C2528 1.366 . S
C2528 C2527 1.366 . S
C2528 C2529 1.414 . S
C2528 C2531 1.499 . S
C2529 H2503 0.950 . S
C2529 C2528 1.414 . S
C2529 C2530 1.374 . S
C2530 H2504 0.950 . S
C2530 C2526 1.385 . S
C2530 C2529 1.374 . S
C2531 C2528 1.499 . S
C2531 C2532 1.373 . S
C2531 C2533 1.389 . S
C2532 H2505 0.950 . S
C2532 C2518 1.377 . S
C2532 C2531 1.373 . S
C2533 C2517 1.377 . S
C2533 C2531 1.389 . S
C2533 C2534 1.524 . S
C2534 C2533 1.524 . S
C2534 C2535 1.397 . S
C2534 C2539 1.363 . S
C2535 H2506 0.950 . S
C2535 C2534 1.397 . S
C2535 C2536 1.334 . S
C2536 H2507 0.950 . S
C2536 C2535 1.334 . S
C2536 C2537 1.287 . S
C2537 C2536 1.287 . S
C2537 C2538 1.524 . S
C2537 H2540 0.999 . S
C2538 H2508 0.950 . S
C2538 C2537 1.524 . S
C2538 C2539 1.415 . S
C2539 H2509 0.950 . S
C2539 C2534 1.363 . S
C2539 C2538 1.415 . S
H2540 C2537 0.999 . S
H2541 C2522 0.913 . S
H2542 C2560 0.951 . S
H2543 C2562 0.951 . S
H2544 C2564 0.950 . S
H2545 C2565 0.950 . S
H2546 C2567 0.950 . S
H2547 C2570 0.950 . S
H2548 C2571 0.950 . S
H2549 C2573 0.950 . S
H2550 C2574 0.950 . S
H2551 C2575 0.951 . S
H2552 C2577 0.951 . S
H2553 C2579 0.950 . S
H2554 C2580 0.950 . S
H2555 C2582 0.950 . S
H2556 C2585 0.950 . S
H2557 C2586 0.950 . S
H2558 C2588 0.950 . S
H2559 C2589 0.950 . S
C2560 H2542 0.951 . S
C2560 C2561 1.366 . S
C2560 C2562 1.388 . S
C2561 C2560 1.366 . S
C2561 C2565 1.385 . S
C2562 H2543 0.951 . S
C2562 C2560 1.388 . S
C2562 C2563 1.366 . S
C2563 C2562 1.366 . S
C2563 C2564 1.414 . S
C2563 C2566 1.499 . S
C2564 H2544 0.950 . S
C2564 C2563 1.414 . S
C2564 C2565 1.374 . S
C2565 H2545 0.950 . S
C2565 C2561 1.385 . S
C2565 C2564 1.374 . S
C2566 C2563 1.499 . S
C2566 C2567 1.373 . S
C2566 C2568 1.389 . S
C2567 H2546 0.950 . S
C2567 C2566 1.373 . S
C2567 C2583 1.377 . S
C2568 C2566 1.389 . S
C2568 C2569 1.524 . S
C2568 C2582 1.377 . S
C2569 C2568 1.524 . S
C2569 C2570 1.397 . S
C2569 C2574 1.363 . S
C2570 H2547 0.950 . S
C2570 C2569 1.397 . S
C2570 C2571 1.334 . S
C2571 H2548 0.950 . S
C2571 C2570 1.334 . S
C2571 C2572 1.287 . S
C2572 C2571 1.287 . S
C2572 C2573 1.524 . S
C2572 H2591 0.913 . S
C2573 H2549 0.950 . S
C2573 C2572 1.524 . S
C2573 C2574 1.415 . S
C2574 H2550 0.950 . S
C2574 C2569 1.363 . S
C2574 C2573 1.415 . S
C2575 H2551 0.951 . S
C2575 C2576 1.366 . S
C2575 C2577 1.388 . S
C2576 C2575 1.366 . S
C2576 C2580 1.385 . S
C2577 H2552 0.951 . S
C2577 C2575 1.388 . S
C2577 C2578 1.366 . S
C2578 C2577 1.366 . S
C2578 C2579 1.414 . S
C2578 C2581 1.499 . S
C2579 H2553 0.950 . S
C2579 C2578 1.414 . S
C2579 C2580 1.374 . S
C2580 H2554 0.950 . S
C2580 C2576 1.385 . S
C2580 C2579 1.374 . S
C2581 C2578 1.499 . S
C2581 C2582 1.373 . S
C2581 C2583 1.389 . S
C2582 H2555 0.950 . S
C2582 C2568 1.377 . S
C2582 C2581 1.373 . S
C2583 C2567 1.377 . S
C2583 C2581 1.389 . S
C2583 C2584 1.524 . S
C2584 C2583 1.524 . S
C2584 C2585 1.397 . S
C2584 C2589 1.363 . S
C2585 H2556 0.950 . S
C2585 C2584 1.397 . S
C2585 C2586 1.334 . S
C2586 H2557 0.950 . S
C2586 C2585 1.334 . S
C2586 C2587 1.287 . S
C2587 C2586 1.287 . S
C2587 C2588 1.524 . S
C2587 H2590 0.999 . S
C2588 H2558 0.950 . S
C2588 C2587 1.524 . S
C2588 C2589 1.415 . S
C2589 H2559 0.950 . S
C2589 C2584 1.363 . S
C2589 C2588 1.415 . S
H2590 C2587 0.999 . S
H2591 C2572 0.913 . S
H2592 C2610 0.951 . S
H2593 C2612 0.951 . S
H2594 C2614 0.950 . S
H2595 C2615 0.950 . S
H2596 C2617 0.950 . S
H2597 C2620 0.950 . S
H2598 C2621 0.950 . S
H2599 C2623 0.950 . S
H2600 C2624 0.950 . S
H2601 C2625 0.951 . S
H2602 C2627 0.951 . S
H2603 C2629 0.950 . S
H2604 C2630 0.940 1_655 S
H2605 C2632 0.950 . S
H2606 C2635 0.950 . S
H2607 C2636 0.950 . S
H2608 C2638 0.950 . S
H2609 C2639 0.950 1_455 S
C2610 H2592 0.951 . S
C2610 C2611 1.366 . S
C2610 C2612 1.388 . S
C2611 C2610 1.366 . S
C2611 C2615 1.385 . S
C2612 H2593 0.951 . S
C2612 C2610 1.388 . S
C2612 C2613 1.366 . S
C2613 C2612 1.366 . S
C2613 C2614 1.414 . S
C2613 C2616 1.499 . S
C2614 H2594 0.950 . S
C2614 C2613 1.414 . S
C2614 C2615 1.374 . S
C2615 H2595 0.950 . S
C2615 C2611 1.385 . S
C2615 C2614 1.374 . S
C2616 C2613 1.499 . S
C2616 C2617 1.373 . S
C2616 C2618 1.389 . S
C2617 H2596 0.950 . S
C2617 C2616 1.373 . S
C2617 C2633 1.377 . S
C2618 C2616 1.389 . S
C2618 C2619 1.524 . S
C2618 C2632 1.377 . S
C2619 C2618 1.524 . S
C2619 C2620 1.397 . S
C2619 C2624 1.363 . S
C2620 H2597 0.950 . S
C2620 C2619 1.397 . S
C2620 C2621 1.334 . S
C2621 H2598 0.950 . S
C2621 C2620 1.334 . S
C2621 C2622 1.287 . S
C2622 C2621 1.287 . S
C2622 C2623 1.524 . S
C2622 H2641 0.913 . S
C2623 H2599 0.950 . S
C2623 C2622 1.524 . S
C2623 C2624 1.415 . S
C2624 H2600 0.950 . S
C2624 C2619 1.363 . S
C2624 C2623 1.415 . S
C2625 H2601 0.951 . S
C2625 C2626 1.366 . S
C2625 C2627 1.388 . S
C2626 C2625 1.366 . S
C2626 C2630 1.386 . S
C2627 H2602 0.951 . S
C2627 C2625 1.388 . S
C2627 C2628 1.366 . S
C2628 C2627 1.366 . S
C2628 C2629 1.414 . S
C2628 C2631 1.499 . S
C2629 H2603 0.950 . S
C2629 C2628 1.414 . S
C2629 C2630 1.383 . S
C2630 H2604 0.940 1_455 S
C2630 C2626 1.386 . S
C2630 C2629 1.383 . S
C2631 C2628 1.499 . S
C2631 C2632 1.373 . S
C2631 C2633 1.389 . S
C2632 H2605 0.950 . S
C2632 C2618 1.377 . S
C2632 C2631 1.373 . S
C2633 C2617 1.377 . S
C2633 C2631 1.389 . S
C2633 C2634 1.524 1_455 S
C2634 C2633 1.524 1_655 S
C2634 C2635 1.397 . S
C2634 C2639 1.363 . S
C2635 H2606 0.950 . S
C2635 C2634 1.397 . S
C2635 C2636 1.334 . S
C2636 H2607 0.950 . S
C2636 C2635 1.334 . S
C2636 C2637 1.287 . S
C2637 C2636 1.287 . S
C2637 C2638 1.524 . S
C2637 H2640 0.999 . S
C2638 H2608 0.950 . S
C2638 C2637 1.524 . S
C2638 C2639 1.415 . S
C2639 H2609 0.950 1_655 S
C2639 C2634 1.363 . S
C2639 C2638 1.415 . S
H2640 C2637 0.999 . S
H2641 C2622 0.913 . S
H2642 C2660 0.951 . S
H2643 C2662 0.951 . S
H2644 C2664 0.950 . S
H2645 C2665 0.950 . S
H2646 C2667 0.950 . S
H2647 C2670 0.950 . S
H2648 C2671 0.950 . S
H2649 C2673 0.950 . S
H2650 C2674 0.950 . S
H2651 C2675 0.951 . S
H2652 C2677 0.951 . S
H2653 C2679 0.950 . S
H2654 C2680 0.950 . S
H2655 C2682 0.950 . S
H2656 C2685 0.950 . S
H2657 C2686 0.950 1_554 S
H2658 C2688 0.950 . S
H2659 C2689 0.950 . S
C2660 H2642 0.951 . S
C2660 C2661 1.366 . S
C2660 C2662 1.388 . S
C2661 C2660 1.366 . S
C2661 C2665 1.385 . S
C2662 H2643 0.951 . S
C2662 C2660 1.388 . S
C2662 C2663 1.366 . S
C2663 C2662 1.366 . S
C2663 C2664 1.414 . S
C2663 C2666 1.499 . S
C2664 H2644 0.950 . S
C2664 C2663 1.414 . S
C2664 C2665 1.374 . S
C2665 H2645 0.950 . S
C2665 C2661 1.385 . S
C2665 C2664 1.374 . S
C2666 C2663 1.499 . S
C2666 C2667 1.373 . S
C2666 C2668 1.389 . S
C2667 H2646 0.950 . S
C2667 C2666 1.373 . S
C2667 C2683 1.377 . S
C2668 C2666 1.389 . S
C2668 C2669 1.524 . S
C2668 C2682 1.377 . S
C2669 C2668 1.524 . S
C2669 C2670 1.397 . S
C2669 C2674 1.363 . S
C2670 H2647 0.950 . S
C2670 C2669 1.397 . S
C2670 C2671 1.334 . S
C2671 H2648 0.950 . S
C2671 C2670 1.334 . S
C2671 C2672 1.287 . S
C2672 C2671 1.287 . S
C2672 C2673 1.524 . S
C2672 H2691 0.913 . S
C2673 H2649 0.950 . S
C2673 C2672 1.524 . S
C2673 C2674 1.415 . S
C2674 H2650 0.950 . S
C2674 C2669 1.363 . S
C2674 C2673 1.415 . S
C2675 H2651 0.951 . S
C2675 C2676 1.366 1_556 S
C2675 C2677 1.388 . S
C2676 C2675 1.366 1_554 S
C2676 C2680 1.385 . S
C2677 H2652 0.951 . S
C2677 C2675 1.388 . S
C2677 C2678 1.366 1_556 S
C2678 C2677 1.366 1_554 S
C2678 C2679 1.414 . S
C2678 C2681 1.499 . S
C2679 H2653 0.950 . S
C2679 C2678 1.414 . S
C2679 C2680 1.374 . S
C2680 H2654 0.950 . S
C2680 C2676 1.385 . S
C2680 C2679 1.374 . S
C2681 C2678 1.499 . S
C2681 C2682 1.373 . S
C2681 C2683 1.389 . S
C2682 H2655 0.950 . S
C2682 C2668 1.377 . S
C2682 C2681 1.373 . S
C2683 C2667 1.377 . S
C2683 C2681 1.389 . S
C2683 C2684 1.524 1_554 S
C2684 C2683 1.524 1_556 S
C2684 C2685 1.397 1_556 S
C2684 C2689 1.363 . S
C2685 H2656 0.950 . S
C2685 C2684 1.397 1_554 S
C2685 C2686 1.334 1_554 S
C2686 H2657 0.950 1_556 S
C2686 C2685 1.334 1_556 S
C2686 C2687 1.287 . S
C2687 C2686 1.287 . S
C2687 C2688 1.524 . S
C2687 H2690 0.999 . S
C2688 H2658 0.950 . S
C2688 C2687 1.524 . S
C2688 C2689 1.415 . S
C2689 H2659 0.950 . S
C2689 C2684 1.363 . S
C2689 C2688 1.415 . S
H2690 C2687 0.999 . S
H2691 C2672 0.913 . S
H2692 C2710 0.951 . S
H2693 C2712 0.951 . S
H2694 C2714 0.950 . S
H2695 C2715 0.950 . S
H2696 C2717 0.950 . S
H2697 C2720 0.950 . S
H2698 C2721 0.950 . S
H2699 C2723 0.950 . S
H2700 C2724 0.950 . S
H2701 C2725 0.951 . S
H2702 C2727 0.951 . S
H2703 C2729 0.950 . S
H2704 C2730 0.950 . S
H2705 C2732 0.950 . S
H2706 C2735 0.950 . S
H2707 C2736 0.950 . S
H2708 C2738 0.950 . S
H2709 C2739 0.950 . S
C2710 H2692 0.951 . S
C2710 C2711 1.366 . S
C2710 C2712 1.388 . S
C2711 C2710 1.366 . S
C2711 C2715 1.385 . S
C2712 H2693 0.951 . S
C2712 C2710 1.388 . S
C2712 C2713 1.366 . S
C2713 C2712 1.366 . S
C2713 C2714 1.414 . S
C2713 C2716 1.499 . S
C2714 H2694 0.950 . S
C2714 C2713 1.414 . S
C2714 C2715 1.374 . S
C2715 H2695 0.950 . S
C2715 C2711 1.385 . S
C2715 C2714 1.374 . S
C2716 C2713 1.499 . S
C2716 C2717 1.373 . S
C2716 C2718 1.389 . S
C2717 H2696 0.950 . S
C2717 C2716 1.373 . S
C2717 C2733 1.377 . S
C2718 C2716 1.389 . S
C2718 C2719 1.524 . S
C2718 C2732 1.377 . S
C2719 C2718 1.524 . S
C2719 C2720 1.397 . S
C2719 C2724 1.363 . S
C2720 H2697 0.950 . S
C2720 C2719 1.397 . S
C2720 C2721 1.334 . S
C2721 H2698 0.950 . S
C2721 C2720 1.334 . S
C2721 C2722 1.287 . S
C2722 C2721 1.287 . S
C2722 C2723 1.524 . S
C2722 H2741 0.913 . S
C2723 H2699 0.950 . S
C2723 C2722 1.524 . S
C2723 C2724 1.415 . S
C2724 H2700 0.950 . S
C2724 C2719 1.363 . S
C2724 C2723 1.415 . S
C2725 H2701 0.951 . S
C2725 C2726 1.366 . S
C2725 C2727 1.388 . S
C2726 C2725 1.366 . S
C2726 C2730 1.385 . S
C2727 H2702 0.951 . S
C2727 C2725 1.388 . S
C2727 C2728 1.366 . S
C2728 C2727 1.366 . S
C2728 C2729 1.414 . S
C2728 C2731 1.499 . S
C2729 H2703 0.950 . S
C2729 C2728 1.414 . S
C2729 C2730 1.374 . S
C2730 H2704 0.950 . S
C2730 C2726 1.385 . S
C2730 C2729 1.374 . S
C2731 C2728 1.499 . S
C2731 C2732 1.373 . S
C2731 C2733 1.389 . S
C2732 H2705 0.950 . S
C2732 C2718 1.377 . S
C2732 C2731 1.373 . S
C2733 C2717 1.377 . S
C2733 C2731 1.389 . S
C2733 C2734 1.524 . S
C2734 C2733 1.524 . S
C2734 C2735 1.397 . S
C2734 C2739 1.363 . S
C2735 H2706 0.950 . S
C2735 C2734 1.397 . S
C2735 C2736 1.334 . S
C2736 H2707 0.950 . S
C2736 C2735 1.334 . S
C2736 C2737 1.287 . S
C2737 C2736 1.287 . S
C2737 C2738 1.524 . S
C2737 H2740 0.999 . S
C2738 H2708 0.950 . S
C2738 C2737 1.524 . S
C2738 C2739 1.415 . S
C2739 H2709 0.950 . S
C2739 C2734 1.363 . S
C2739 C2738 1.415 . S
H2740 C2737 0.999 . S
H2741 C2722 0.913 . S
H2742 C2760 0.951 . S
H2743 C2762 0.951 . S
H2744 C2764 0.950 . S
H2745 C2765 0.950 . S
H2746 C2767 0.950 . S
H2747 C2770 0.950 . S
H2748 C2771 0.950 . S
H2749 C2773 0.950 . S
H2750 C2774 0.950 . S
H2751 C2775 0.951 . S
H2752 C2777 0.951 . S
H2753 C2779 0.950 . S
H2754 C2780 0.950 . S
H2755 C2782 0.950 . S
H2756 C2785 0.950 . S
H2757 C2786 0.950 . S
H2758 C2788 0.950 . S
H2759 C2789 0.950 . S
C2760 H2742 0.951 . S
C2760 C2761 1.366 . S
C2760 C2762 1.388 . S
C2761 C2760 1.366 . S
C2761 C2765 1.385 . S
C2762 H2743 0.951 . S
C2762 C2760 1.388 . S
C2762 C2763 1.366 . S
C2763 C2762 1.366 . S
C2763 C2764 1.414 . S
C2763 C2766 1.499 . S
C2764 H2744 0.950 . S
C2764 C2763 1.414 . S
C2764 C2765 1.374 . S
C2765 H2745 0.950 . S
C2765 C2761 1.385 . S
C2765 C2764 1.374 . S
C2766 C2763 1.499 . S
C2766 C2767 1.373 . S
C2766 C2768 1.389 . S
C2767 H2746 0.950 . S
C2767 C2766 1.373 . S
C2767 C2783 1.377 . S
C2768 C2766 1.389 . S
C2768 C2769 1.524 . S
C2768 C2782 1.377 . S
C2769 C2768 1.524 . S
C2769 C2770 1.397 . S
C2769 C2774 1.363 . S
C2770 H2747 0.950 . S
C2770 C2769 1.397 . S
C2770 C2771 1.334 . S
C2771 H2748 0.950 . S
C2771 C2770 1.334 . S
C2771 C2772 1.287 . S
C2772 C2771 1.287 . S
C2772 C2773 1.524 . S
C2772 H2791 0.913 . S
C2773 H2749 0.950 . S
C2773 C2772 1.524 . S
C2773 C2774 1.415 . S
C2774 H2750 0.950 . S
C2774 C2769 1.363 . S
C2774 C2773 1.415 . S
C2775 H2751 0.951 . S
C2775 C2776 1.366 . S
C2775 C2777 1.388 . S
C2776 C2775 1.366 . S
C2776 C2780 1.385 . S
C2777 H2752 0.951 . S
C2777 C2775 1.388 . S
C2777 C2778 1.366 . S
C2778 C2777 1.366 . S
C2778 C2779 1.414 . S
C2778 C2781 1.499 . S
C2779 H2753 0.950 . S
C2779 C2778 1.414 . S
C2779 C2780 1.374 . S
C2780 H2754 0.950 . S
C2780 C2776 1.385 . S
C2780 C2779 1.374 . S
C2781 C2778 1.499 . S
C2781 C2782 1.373 . S
C2781 C2783 1.389 . S
C2782 H2755 0.950 . S
C2782 C2768 1.377 . S
C2782 C2781 1.373 . S
C2783 C2767 1.377 . S
C2783 C2781 1.389 . S
C2783 C2784 1.524 . S
C2784 C2783 1.524 . S
C2784 C2785 1.397 . S
C2784 C2789 1.363 . S
C2785 H2756 0.950 . S
C2785 C2784 1.397 . S
C2785 C2786 1.334 . S
C2786 H2757 0.950 . S
C2786 C2785 1.334 . S
C2786 C2787 1.287 . S
C2787 C2786 1.287 . S
C2787 C2788 1.524 . S
C2787 H2790 0.999 . S
C2788 H2758 0.950 . S
C2788 C2787 1.524 . S
C2788 C2789 1.415 . S
C2789 H2759 0.950 . S
C2789 C2784 1.363 . S
C2789 C2788 1.415 . S
H2790 C2787 0.999 . S
H2791 C2772 0.913 . S
H2792 C2810 0.951 . S
H2793 C2812 0.951 . S
H2794 C2814 0.950 . S
H2795 C2815 0.950 . S
H2796 C2817 0.950 . S
H2797 C2820 0.950 . S
H2798 C2821 0.950 . S
H2799 C2823 0.950 . S
H2800 C2824 0.950 . S
H2801 C2825 0.951 . S
H2802 C2827 0.951 . S
H2803 C2829 0.950 . S
H2804 C2830 0.950 . S
H2805 C2832 0.950 . S
H2806 C2835 0.950 . S
H2807 C2836 0.950 . S
H2808 C2838 0.950 . S
H2809 C2839 0.950 . S
C2810 H2792 0.951 . S
C2810 C2811 1.366 . S
C2810 C2812 1.388 . S
C2811 C2810 1.366 . S
C2811 C2815 1.385 . S
C2812 H2793 0.951 . S
C2812 C2810 1.388 . S
C2812 C2813 1.366 . S
C2813 C2812 1.366 . S
C2813 C2814 1.414 . S
C2813 C2816 1.499 . S
C2814 H2794 0.950 . S
C2814 C2813 1.414 . S
C2814 C2815 1.374 . S
C2815 H2795 0.950 . S
C2815 C2811 1.385 . S
C2815 C2814 1.374 . S
C2816 C2813 1.499 . S
C2816 C2817 1.373 . S
C2816 C2818 1.389 . S
C2817 H2796 0.950 . S
C2817 C2816 1.373 . S
C2817 C2833 1.377 . S
C2818 C2816 1.389 . S
C2818 C2819 1.524 . S
C2818 C2832 1.377 . S
C2819 C2818 1.524 . S
C2819 C2820 1.397 . S
C2819 C2824 1.363 . S
C2820 H2797 0.950 . S
C2820 C2819 1.397 . S
C2820 C2821 1.334 . S
C2821 H2798 0.950 . S
C2821 C2820 1.334 . S
C2821 C2822 1.287 . S
C2822 C2821 1.287 . S
C2822 C2823 1.524 . S
C2822 H2841 0.913 . S
C2823 H2799 0.950 . S
C2823 C2822 1.524 . S
C2823 C2824 1.415 . S
C2824 H2800 0.950 . S
C2824 C2819 1.363 . S
C2824 C2823 1.415 . S
C2825 H2801 0.951 . S
C2825 C2826 1.366 . S
C2825 C2827 1.388 . S
C2826 C2825 1.366 . S
C2826 C2830 1.385 . S
C2827 H2802 0.951 . S
C2827 C2825 1.388 . S
C2827 C2828 1.366 . S
C2828 C2827 1.366 . S
C2828 C2829 1.414 . S
C2828 C2831 1.499 . S
C2829 H2803 0.950 . S
C2829 C2828 1.414 . S
C2829 C2830 1.374 . S
C2830 H2804 0.950 . S
C2830 C2826 1.385 . S
C2830 C2829 1.374 . S
C2831 C2828 1.499 . S
C2831 C2832 1.373 . S
C2831 C2833 1.389 . S
C2832 H2805 0.950 . S
C2832 C2818 1.377 . S
C2832 C2831 1.373 . S
C2833 C2817 1.377 . S
C2833 C2831 1.389 . S
C2833 C2834 1.524 . S
C2834 C2833 1.524 . S
C2834 C2835 1.397 . S
C2834 C2839 1.363 . S
C2835 H2806 0.950 . S
C2835 C2834 1.397 . S
C2835 C2836 1.334 . S
C2836 H2807 0.950 . S
C2836 C2835 1.334 . S
C2836 C2837 1.287 . S
C2837 C2836 1.287 . S
C2837 C2838 1.524 . S
C2837 H2840 0.999 . S
C2838 H2808 0.950 . S
C2838 C2837 1.524 . S
C2838 C2839 1.415 . S
C2839 H2809 0.950 . S
C2839 C2834 1.363 . S
C2839 C2838 1.415 . S
H2840 C2837 0.999 . S
H2841 C2822 0.913 . S
H2842 C2860 0.951 . S
H2843 C2862 0.951 . S
H2844 C2864 0.950 . S
H2845 C2865 0.950 . S
H2846 C2867 0.950 . S
H2847 C2870 0.950 . S
H2848 C2871 0.950 . S
H2849 C2873 0.950 . S
H2850 C2874 0.950 . S
H2851 C2875 0.951 . S
H2852 C2877 0.951 . S
H2853 C2879 0.950 . S
H2854 C2880 0.950 . S
H2855 C2882 0.950 . S
H2856 C2885 0.950 . S
H2857 C2886 0.950 . S
H2858 C2888 0.950 . S
H2859 C2889 0.950 . S
C2860 H2842 0.951 . S
C2860 C2861 1.366 . S
C2860 C2862 1.388 . S
C2861 C2860 1.366 . S
C2861 C2865 1.385 . S
C2862 H2843 0.951 . S
C2862 C2860 1.388 . S
C2862 C2863 1.366 . S
C2863 C2862 1.366 . S
C2863 C2864 1.414 . S
C2863 C2866 1.499 . S
C2864 H2844 0.950 . S
C2864 C2863 1.414 . S
C2864 C2865 1.374 . S
C2865 H2845 0.950 . S
C2865 C2861 1.385 . S
C2865 C2864 1.374 . S
C2866 C2863 1.499 . S
C2866 C2867 1.373 . S
C2866 C2868 1.389 . S
C2867 H2846 0.950 . S
C2867 C2866 1.373 . S
C2867 C2883 1.377 . S
C2868 C2866 1.389 . S
C2868 C2869 1.524 . S
C2868 C2882 1.377 . S
C2869 C2868 1.524 . S
C2869 C2870 1.397 . S
C2869 C2874 1.363 . S
C2870 H2847 0.950 . S
C2870 C2869 1.397 . S
C2870 C2871 1.334 . S
C2871 H2848 0.950 . S
C2871 C2870 1.334 . S
C2871 C2872 1.287 . S
C2872 C2871 1.287 . S
C2872 C2873 1.524 . S
C2872 H2891 0.913 . S
C2873 H2849 0.950 . S
C2873 C2872 1.524 . S
C2873 C2874 1.415 . S
C2874 H2850 0.950 . S
C2874 C2869 1.363 . S
C2874 C2873 1.415 . S
C2875 H2851 0.951 . S
C2875 C2876 1.366 . S
C2875 C2877 1.388 . S
C2876 C2875 1.366 . S
C2876 C2880 1.385 . S
C2877 H2852 0.951 . S
C2877 C2875 1.388 . S
C2877 C2878 1.366 . S
C2878 C2877 1.366 . S
C2878 C2879 1.414 . S
C2878 C2881 1.499 . S
C2879 H2853 0.950 . S
C2879 C2878 1.414 . S
C2879 C2880 1.374 . S
C2880 H2854 0.950 . S
C2880 C2876 1.385 . S
C2880 C2879 1.374 . S
C2881 C2878 1.499 . S
C2881 C2882 1.373 . S
C2881 C2883 1.389 . S
C2882 H2855 0.950 . S
C2882 C2868 1.377 . S
C2882 C2881 1.373 . S
C2883 C2867 1.377 . S
C2883 C2881 1.389 . S
C2883 C2884 1.524 . S
C2884 C2883 1.524 . S
C2884 C2885 1.397 . S
C2884 C2889 1.363 . S
C2885 H2856 0.950 . S
C2885 C2884 1.397 . S
C2885 C2886 1.334 . S
C2886 H2857 0.950 . S
C2886 C2885 1.334 . S
C2886 C2887 1.287 . S
C2887 C2886 1.287 . S
C2887 C2888 1.524 . S
C2887 H2890 0.999 . S
C2888 H2858 0.950 . S
C2888 C2887 1.524 . S
C2888 C2889 1.415 . S
C2889 H2859 0.950 . S
C2889 C2884 1.363 . S
C2889 C2888 1.415 . S
H2890 C2887 0.999 . S
H2891 C2872 0.913 . S
H2892 C2910 0.951 . S
H2893 C2912 0.951 . S
H2894 C2914 0.950 . S
H2895 C2915 0.950 . S
H2896 C2917 0.950 . S
H2897 C2920 0.950 . S
H2898 C2921 0.950 . S
H2899 C2923 0.950 . S
H2900 C2924 0.950 . S
H2901 C2925 0.951 . S
H2902 C2927 0.951 . S
H2903 C2929 0.950 . S
H2904 C2930 0.950 . S
H2905 C2932 0.950 . S
H2906 C2935 0.950 . S
H2907 C2936 0.950 . S
H2908 C2938 0.950 . S
H2909 C2939 0.950 . S
C2910 H2892 0.951 . S
C2910 C2911 1.366 . S
C2910 C2912 1.388 . S
C2911 C2910 1.366 . S
C2911 C2915 1.385 . S
C2912 H2893 0.951 . S
C2912 C2910 1.388 . S
C2912 C2913 1.366 . S
C2913 C2912 1.366 . S
C2913 C2914 1.414 . S
C2913 C2916 1.499 . S
C2914 H2894 0.950 . S
C2914 C2913 1.414 . S
C2914 C2915 1.374 . S
C2915 H2895 0.950 . S
C2915 C2911 1.385 . S
C2915 C2914 1.374 . S
C2916 C2913 1.499 . S
C2916 C2917 1.373 . S
C2916 C2918 1.389 . S
C2917 H2896 0.950 . S
C2917 C2916 1.373 . S
C2917 C2933 1.377 . S
C2918 C2916 1.389 . S
C2918 C2919 1.524 . S
C2918 C2932 1.377 . S
C2919 C2918 1.524 . S
C2919 C2920 1.397 . S
C2919 C2924 1.363 . S
C2920 H2897 0.950 . S
C2920 C2919 1.397 . S
C2920 C2921 1.334 . S
C2921 H2898 0.950 . S
C2921 C2920 1.334 . S
C2921 C2922 1.287 . S
C2922 C2921 1.287 . S
C2922 C2923 1.524 . S
C2922 H2941 0.913 . S
C2923 H2899 0.950 . S
C2923 C2922 1.524 . S
C2923 C2924 1.415 . S
C2924 H2900 0.950 . S
C2924 C2919 1.363 . S
C2924 C2923 1.415 . S
C2925 H2901 0.951 . S
C2925 C2926 1.366 . S
C2925 C2927 1.388 . S
C2926 C2925 1.366 . S
C2926 C2930 1.385 . S
C2927 H2902 0.951 . S
C2927 C2925 1.388 . S
C2927 C2928 1.366 . S
C2928 C2927 1.366 . S
C2928 C2929 1.414 . S
C2928 C2931 1.499 . S
C2929 H2903 0.950 . S
C2929 C2928 1.414 . S
C2929 C2930 1.374 . S
C2930 H2904 0.950 . S
C2930 C2926 1.385 . S
C2930 C2929 1.374 . S
C2931 C2928 1.499 . S
C2931 C2932 1.373 . S
C2931 C2933 1.389 . S
C2932 H2905 0.950 . S
C2932 C2918 1.377 . S
C2932 C2931 1.373 . S
C2933 C2917 1.377 . S
C2933 C2931 1.389 . S
C2933 C2934 1.524 . S
C2934 C2933 1.524 . S
C2934 C2935 1.397 . S
C2934 C2939 1.363 . S
C2935 H2906 0.950 . S
C2935 C2934 1.397 . S
C2935 C2936 1.334 . S
C2936 H2907 0.950 . S
C2936 C2935 1.334 . S
C2936 C2937 1.287 . S
C2937 C2936 1.287 . S
C2937 C2938 1.524 . S
C2937 H2940 0.999 . S
C2938 H2908 0.950 . S
C2938 C2937 1.524 . S
C2938 C2939 1.415 . S
C2939 H2909 0.950 . S
C2939 C2934 1.363 . S
C2939 C2938 1.415 . S
H2940 C2937 0.999 . S
H2941 C2922 0.913 . S
H2942 C2960 0.951 . S
H2943 C2962 0.951 . S
H2944 C2964 0.950 . S
H2945 C2965 0.950 . S
H2946 C2967 0.950 . S
H2947 C2970 0.950 . S
H2948 C2971 0.950 . S
H2949 C2973 0.950 . S
H2950 C2974 0.950 . S
H2951 C2975 0.951 . S
H2952 C2977 0.951 . S
H2953 C2979 0.950 . S
H2954 C2980 0.950 . S
H2955 C2982 0.950 . S
H2956 C2985 0.950 . S
H2957 C2986 0.950 . S
H2958 C2988 0.939 1_556 S
H2959 C2989 0.950 . S
C2960 H2942 0.951 . S
C2960 C2961 1.366 . S
C2960 C2962 1.388 . S
C2961 C2960 1.366 . S
C2961 C2965 1.385 . S
C2962 H2943 0.951 . S
C2962 C2960 1.388 . S
C2962 C2963 1.366 . S
C2963 C2962 1.366 . S
C2963 C2964 1.414 . S
C2963 C2966 1.499 . S
C2964 H2944 0.950 . S
C2964 C2963 1.414 . S
C2964 C2965 1.374 . S
C2965 H2945 0.950 . S
C2965 C2961 1.385 . S
C2965 C2964 1.374 . S
C2966 C2963 1.499 . S
C2966 C2967 1.373 . S
C2966 C2968 1.389 . S
C2967 H2946 0.950 . S
C2967 C2966 1.373 . S
C2967 C2983 1.377 . S
C2968 C2966 1.389 . S
C2968 C2969 1.524 . S
C2968 C2982 1.377 . S
C2969 C2968 1.524 . S
C2969 C2970 1.397 . S
C2969 C2974 1.363 . S
C2970 H2947 0.950 . S
C2970 C2969 1.397 . S
C2970 C2971 1.334 . S
C2971 H2948 0.950 . S
C2971 C2970 1.334 . S
C2971 C2972 1.287 . S
C2972 C2971 1.287 . S
C2972 C2973 1.524 . S
C2972 H2991 0.913 . S
C2973 H2949 0.950 . S
C2973 C2972 1.524 . S
C2973 C2974 1.415 . S
C2974 H2950 0.950 . S
C2974 C2969 1.363 . S
C2974 C2973 1.415 . S
C2975 H2951 0.951 . S
C2975 C2976 1.366 . S
C2975 C2977 1.388 . S
C2976 C2975 1.366 . S
C2976 C2980 1.385 . S
C2977 H2952 0.951 . S
C2977 C2975 1.388 . S
C2977 C2978 1.366 . S
C2978 C2977 1.366 . S
C2978 C2979 1.414 . S
C2978 C2981 1.499 . S
C2979 H2953 0.950 . S
C2979 C2978 1.414 . S
C2979 C2980 1.374 . S
C2980 H2954 0.950 . S
C2980 C2976 1.385 . S
C2980 C2979 1.374 . S
C2981 C2978 1.499 . S
C2981 C2982 1.373 . S
C2981 C2983 1.389 . S
C2982 H2955 0.950 . S
C2982 C2968 1.377 . S
C2982 C2981 1.373 . S
C2983 C2967 1.377 . S
C2983 C2981 1.389 . S
C2983 C2984 1.524 . S
C2984 C2983 1.524 . S
C2984 C2985 1.397 . S
C2984 C2989 1.363 . S
C2985 H2956 0.950 . S
C2985 C2984 1.397 . S
C2985 C2986 1.334 . S
C2986 H2957 0.950 . S
C2986 C2985 1.334 . S
C2986 C2987 1.287 1_554 S
C2987 C2986 1.287 1_556 S
C2987 C2988 1.522 1_556 S
C2987 H2990 0.999 . S
C2988 H2958 0.939 1_554 S
C2988 C2987 1.522 1_554 S
C2988 C2989 1.428 . S
C2989 H2959 0.950 . S
C2989 C2984 1.363 . S
C2989 C2988 1.428 . S
H2990 C2987 0.999 . S
H2991 C2972 0.913 . S
H2992 C3010 0.951 . S
H2993 C3012 0.951 . S
H2994 C3014 0.950 . S
H2995 C3015 0.950 . S
H2996 C3017 0.950 1_565 S
H2997 C3020 0.950 . S
H2998 C3021 0.950 . S
H2999 C3023 0.950 . S
H3000 C3024 0.950 . S
H3001 C3025 0.951 . S
H3002 C3027 0.951 . S
H3003 C3029 0.950 . S
H3004 C3030 0.950 . S
H3005 C3032 0.950 . S
H3006 C3035 0.950 . S
H3007 C3036 0.950 . S
H3008 C3038 0.950 . S
H3009 C3039 0.950 . S
C3010 H2992 0.951 . S
C3010 C3011 1.366 . S
C3010 C3012 1.388 . S
C3011 C3010 1.366 . S
C3011 C3015 1.385 1_545 S
C3012 H2993 0.951 . S
C3012 C3010 1.388 . S
C3012 C3013 1.366 . S
C3013 C3012 1.366 . S
C3013 C3014 1.414 1_545 S
C3013 C3016 1.499 . S
C3014 H2994 0.950 . S
C3014 C3013 1.414 1_565 S
C3014 C3015 1.374 . S
C3015 H2995 0.950 . S
C3015 C3011 1.385 1_565 S
C3015 C3014 1.374 . S
C3016 C3013 1.499 . S
C3016 C3017 1.373 . S
C3016 C3018 1.389 . S
C3017 H2996 0.950 1_545 S
C3017 C3016 1.373 . S
C3017 C3033 1.377 . S
C3018 C3016 1.389 . S
C3018 C3019 1.524 . S
C3018 C3032 1.377 . S
C3019 C3018 1.524 . S
C3019 C3020 1.397 . S
C3019 C3024 1.363 . S
C3020 H2997 0.950 . S
C3020 C3019 1.397 . S
C3020 C3021 1.334 . S
C3021 H2998 0.950 . S
C3021 C3020 1.334 . S
C3021 C3022 1.287 . S
C3022 C3021 1.287 . S
C3022 C3023 1.524 . S
C3022 H3041 0.913 . S
C3023 H2999 0.950 . S
C3023 C3022 1.524 . S
C3023 C3024 1.415 . S
C3024 H3000 0.950 . S
C3024 C3019 1.363 . S
C3024 C3023 1.415 . S
C3025 H3001 0.951 . S
C3025 C3026 1.366 . S
C3025 C3027 1.388 . S
C3026 C3025 1.366 . S
C3026 C3030 1.385 . S
C3027 H3002 0.951 . S
C3027 C3025 1.388 . S
C3027 C3028 1.366 . S
C3028 C3027 1.366 . S
C3028 C3029 1.414 . S
C3028 C3031 1.499 . S
C3029 H3003 0.950 . S
C3029 C3028 1.414 . S
C3029 C3030 1.374 . S
C3030 H3004 0.950 . S
C3030 C3026 1.385 . S
C3030 C3029 1.374 . S
C3031 C3028 1.499 . S
C3031 C3032 1.373 . S
C3031 C3033 1.389 . S
C3032 H3005 0.950 . S
C3032 C3018 1.377 . S
C3032 C3031 1.373 . S
C3033 C3017 1.377 . S
C3033 C3031 1.389 . S
C3033 C3034 1.524 1_545 S
C3034 C3033 1.524 1_565 S
C3034 C3035 1.397 1_565 S
C3034 C3039 1.363 . S
C3035 H3006 0.950 . S
C3035 C3034 1.397 1_545 S
C3035 C3036 1.334 1_545 S
C3036 H3007 0.950 . S
C3036 C3035 1.334 1_565 S
C3036 C3037 1.287 . S
C3037 C3036 1.287 . S
C3037 C3038 1.524 . S
C3037 H3040 0.999 . S
C3038 H3008 0.950 . S
C3038 C3037 1.524 . S
C3038 C3039 1.415 . S
C3039 H3009 0.950 . S
C3039 C3034 1.363 . S
C3039 C3038 1.415 . S
H3040 C3037 0.999 . S
H3041 C3022 0.913 . S
H3042 C3060 0.951 . S
H3043 C3062 0.951 . S
H3044 C3064 0.950 . S
H3045 C3065 0.950 . S
H3046 C3067 0.950 . S
H3047 C3070 0.950 . S
H3048 C3071 0.950 . S
H3049 C3073 0.950 . S
H3050 C3074 0.950 . S
H3051 C3075 0.951 . S
H3052 C3077 0.951 . S
H3053 C3079 0.950 . S
H3054 C3080 0.950 . S
H3055 C3082 0.950 . S
H3056 C3085 0.950 . S
H3057 C3086 0.950 . S
H3058 C3088 0.950 . S
H3059 C3089 0.950 . S
C3060 H3042 0.951 . S
C3060 C3061 1.366 . S
C3060 C3062 1.388 . S
C3061 C3060 1.366 . S
C3061 C3065 1.385 . S
C3062 H3043 0.951 . S
C3062 C3060 1.388 . S
C3062 C3063 1.366 . S
C3063 C3062 1.366 . S
C3063 C3064 1.414 . S
C3063 C3066 1.499 . S
C3064 H3044 0.950 . S
C3064 C3063 1.414 . S
C3064 C3065 1.374 . S
C3065 H3045 0.950 . S
C3065 C3061 1.385 . S
C3065 C3064 1.374 . S
C3066 C3063 1.499 . S
C3066 C3067 1.373 . S
C3066 C3068 1.389 . S
C3067 H3046 0.950 . S
C3067 C3066 1.373 . S
C3067 C3083 1.377 . S
C3068 C3066 1.389 . S
C3068 C3069 1.524 . S
C3068 C3082 1.377 . S
C3069 C3068 1.524 . S
C3069 C3070 1.397 . S
C3069 C3074 1.363 . S
C3070 H3047 0.950 . S
C3070 C3069 1.397 . S
C3070 C3071 1.334 . S
C3071 H3048 0.950 . S
C3071 C3070 1.334 . S
C3071 C3072 1.287 . S
C3072 C3071 1.287 . S
C3072 C3073 1.524 . S
C3072 H3091 0.913 . S
C3073 H3049 0.950 . S
C3073 C3072 1.524 . S
C3073 C3074 1.415 . S
C3074 H3050 0.950 . S
C3074 C3069 1.363 . S
C3074 C3073 1.415 . S
C3075 H3051 0.951 . S
C3075 C3076 1.366 . S
C3075 C3077 1.388 . S
C3076 C3075 1.366 . S
C3076 C3080 1.385 . S
C3077 H3052 0.951 . S
C3077 C3075 1.388 . S
C3077 C3078 1.366 . S
C3078 C3077 1.366 . S
C3078 C3079 1.414 . S
C3078 C3081 1.499 . S
C3079 H3053 0.950 . S
C3079 C3078 1.414 . S
C3079 C3080 1.374 . S
C3080 H3054 0.950 . S
C3080 C3076 1.385 . S
C3080 C3079 1.374 . S
C3081 C3078 1.499 . S
C3081 C3082 1.373 . S
C3081 C3083 1.389 . S
C3082 H3055 0.950 . S
C3082 C3068 1.377 . S
C3082 C3081 1.373 . S
C3083 C3067 1.377 . S
C3083 C3081 1.389 . S
C3083 C3084 1.524 . S
C3084 C3083 1.524 . S
C3084 C3085 1.397 . S
C3084 C3089 1.363 . S
C3085 H3056 0.950 . S
C3085 C3084 1.397 . S
C3085 C3086 1.334 . S
C3086 H3057 0.950 . S
C3086 C3085 1.334 . S
C3086 C3087 1.287 . S
C3087 C3086 1.287 . S
C3087 C3088 1.524 . S
C3087 H3090 0.999 . S
C3088 H3058 0.950 . S
C3088 C3087 1.524 . S
C3088 C3089 1.415 . S
C3089 H3059 0.950 . S
C3089 C3084 1.363 . S
C3089 C3088 1.415 . S
H3090 C3087 0.999 . S
H3091 C3072 0.913 . S
H3092 C3110 0.951 . S
H3093 C3112 0.951 . S
H3094 C3114 0.950 . S
H3095 C3115 0.950 . S
H3096 C3117 0.950 . S
H3097 C3120 0.950 . S
H3098 C3121 0.950 . S
H3099 C3123 0.950 . S
H3100 C3124 0.950 . S
H3101 C3125 0.951 . S
H3102 C3127 0.951 . S
H3103 C3129 0.950 . S
H3104 C3130 0.950 . S
H3105 C3132 0.950 . S
H3106 C3135 0.950 . S
H3107 C3136 0.950 . S
H3108 C3138 0.950 . S
H3109 C3139 0.950 . S
C3110 H3092 0.951 . S
C3110 C3111 1.366 . S
C3110 C3112 1.388 . S
C3111 C3110 1.366 . S
C3111 C3115 1.385 . S
C3112 H3093 0.951 . S
C3112 C3110 1.388 . S
C3112 C3113 1.366 . S
C3113 C3112 1.366 . S
C3113 C3114 1.414 . S
C3113 C3116 1.499 . S
C3114 H3094 0.950 . S
C3114 C3113 1.414 . S
C3114 C3115 1.374 . S
C3115 H3095 0.950 . S
C3115 C3111 1.385 . S
C3115 C3114 1.374 . S
C3116 C3113 1.499 . S
C3116 C3117 1.373 . S
C3116 C3118 1.389 . S
C3117 H3096 0.950 . S
C3117 C3116 1.373 . S
C3117 C3133 1.377 . S
C3118 C3116 1.389 . S
C3118 C3119 1.524 . S
C3118 C3132 1.377 . S
C3119 C3118 1.524 . S
C3119 C3120 1.397 . S
C3119 C3124 1.363 . S
C3120 H3097 0.950 . S
C3120 C3119 1.397 . S
C3120 C3121 1.334 . S
C3121 H3098 0.950 . S
C3121 C3120 1.334 . S
C3121 C3122 1.287 . S
C3122 C3121 1.287 . S
C3122 C3123 1.524 . S
C3122 H3141 0.913 . S
C3123 H3099 0.950 . S
C3123 C3122 1.524 . S
C3123 C3124 1.415 . S
C3124 H3100 0.950 . S
C3124 C3119 1.363 . S
C3124 C3123 1.415 . S
C3125 H3101 0.951 . S
C3125 C3126 1.366 . S
C3125 C3127 1.388 . S
C3126 C3125 1.366 . S
C3126 C3130 1.385 . S
C3127 H3102 0.951 . S
C3127 C3125 1.388 . S
C3127 C3128 1.366 . S
C3128 C3127 1.366 . S
C3128 C3129 1.414 . S
C3128 C3131 1.499 . S
C3129 H3103 0.950 . S
C3129 C3128 1.414 . S
C3129 C3130 1.374 . S
C3130 H3104 0.950 . S
C3130 C3126 1.385 . S
C3130 C3129 1.374 . S
C3131 C3128 1.499 . S
C3131 C3132 1.373 . S
C3131 C3133 1.389 . S
C3132 H3105 0.950 . S
C3132 C3118 1.377 . S
C3132 C3131 1.373 . S
C3133 C3117 1.377 . S
C3133 C3131 1.389 . S
C3133 C3134 1.524 . S
C3134 C3133 1.524 . S
C3134 C3135 1.397 . S
C3134 C3139 1.363 . S
C3135 H3106 0.950 . S
C3135 C3134 1.397 . S
C3135 C3136 1.334 . S
C3136 H3107 0.950 . S
C3136 C3135 1.334 . S
C3136 C3137 1.287 . S
C3137 C3136 1.287 . S
C3137 C3138 1.524 . S
C3137 H3140 0.999 1_545 S
C3138 H3108 0.950 . S
C3138 C3137 1.524 . S
C3138 C3139 1.415 . S
C3139 H3109 0.950 . S
C3139 C3134 1.363 . S
C3139 C3138 1.415 . S
H3140 C3137 0.999 1_565 S
H3141 C3122 0.913 . S
H3142 C3160 0.951 . S
H3143 C3162 0.951 . S
H3144 C3164 0.950 . S
H3145 C3165 0.950 . S
H3146 C3167 0.950 . S
H3147 C3170 0.950 . S
H3148 C3171 0.950 . S
H3149 C3173 0.950 . S
H3150 C3174 0.950 . S
H3151 C3175 0.951 . S
H3152 C3177 0.951 . S
H3153 C3179 0.950 . S
H3154 C3180 0.950 . S
H3155 C3182 0.950 . S
H3156 C3185 0.950 . S
H3157 C3186 0.950 . S
H3158 C3188 0.950 . S
H3159 C3189 0.950 . S
C3160 H3142 0.951 . S
C3160 C3161 1.366 . S
C3160 C3162 1.388 . S
C3161 C3160 1.366 . S
C3161 C3165 1.385 . S
C3162 H3143 0.951 . S
C3162 C3160 1.388 . S
C3162 C3163 1.366 . S
C3163 C3162 1.366 . S
C3163 C3164 1.414 . S
C3163 C3166 1.499 . S
C3164 H3144 0.950 . S
C3164 C3163 1.414 . S
C3164 C3165 1.374 . S
C3165 H3145 0.950 . S
C3165 C3161 1.385 . S
C3165 C3164 1.374 . S
C3166 C3163 1.499 . S
C3166 C3167 1.373 . S
C3166 C3168 1.389 . S
C3167 H3146 0.950 . S
C3167 C3166 1.373 . S
C3167 C3183 1.377 . S
C3168 C3166 1.389 . S
C3168 C3169 1.524 . S
C3168 C3182 1.377 . S
C3169 C3168 1.524 . S
C3169 C3170 1.397 . S
C3169 C3174 1.363 . S
C3170 H3147 0.950 . S
C3170 C3169 1.397 . S
C3170 C3171 1.334 . S
C3171 H3148 0.950 . S
C3171 C3170 1.334 . S
C3171 C3172 1.287 . S
C3172 C3171 1.287 . S
C3172 C3173 1.524 . S
C3172 H3191 0.913 . S
C3173 H3149 0.950 . S
C3173 C3172 1.524 . S
C3173 C3174 1.415 . S
C3174 H3150 0.950 . S
C3174 C3169 1.363 . S
C3174 C3173 1.415 . S
C3175 H3151 0.951 . S
C3175 C3176 1.366 . S
C3175 C3177 1.388 . S
C3176 C3175 1.366 . S
C3176 C3180 1.385 . S
C3177 H3152 0.951 . S
C3177 C3175 1.388 . S
C3177 C3178 1.366 . S
C3178 C3177 1.366 . S
C3178 C3179 1.414 . S
C3178 C3181 1.499 . S
C3179 H3153 0.950 . S
C3179 C3178 1.414 . S
C3179 C3180 1.374 . S
C3180 H3154 0.950 . S
C3180 C3176 1.385 . S
C3180 C3179 1.374 . S
C3181 C3178 1.499 . S
C3181 C3182 1.373 . S
C3181 C3183 1.389 . S
C3182 H3155 0.950 . S
C3182 C3168 1.377 . S
C3182 C3181 1.373 . S
C3183 C3167 1.377 . S
C3183 C3181 1.389 . S
C3183 C3184 1.524 . S
C3184 C3183 1.524 . S
C3184 C3185 1.397 . S
C3184 C3189 1.363 . S
C3185 H3156 0.950 . S
C3185 C3184 1.397 . S
C3185 C3186 1.334 . S
C3186 H3157 0.950 . S
C3186 C3185 1.334 . S
C3186 C3187 1.287 . S
C3187 C3186 1.287 . S
C3187 C3188 1.524 . S
C3187 H3190 0.999 . S
C3188 H3158 0.950 . S
C3188 C3187 1.524 . S
C3188 C3189 1.415 . S
C3189 H3159 0.950 . S
C3189 C3184 1.363 . S
C3189 C3188 1.415 . S
H3190 C3187 0.999 . S
H3191 C3172 0.913 . S
H3192 C3210 0.951 . S
H3193 C3212 0.951 . S
H3194 C3214 0.950 . S
H3195 C3215 0.950 . S
H3196 C3217 0.950 . S
H3197 C3220 0.950 . S
H3198 C3221 0.950 . S
H3199 C3223 0.950 . S
H3200 C3224 0.950 . S
H3201 C3225 0.951 . S
H3202 C3227 0.951 . S
H3203 C3229 0.950 . S
H3204 C3230 0.950 . S
H3205 C3232 0.950 . S
H3206 C3235 0.950 . S
H3207 C3236 0.950 . S
H3208 C3238 0.950 . S
H3209 C3239 0.950 . S
C3210 H3192 0.951 . S
C3210 C3211 1.366 . S
C3210 C3212 1.388 . S
C3211 C3210 1.366 . S
C3211 C3215 1.385 . S
C3212 H3193 0.951 . S
C3212 C3210 1.388 . S
C3212 C3213 1.366 . S
C3213 C3212 1.366 . S
C3213 C3214 1.414 . S
C3213 C3216 1.499 . S
C3214 H3194 0.950 . S
C3214 C3213 1.414 . S
C3214 C3215 1.374 . S
C3215 H3195 0.950 . S
C3215 C3211 1.385 . S
C3215 C3214 1.374 . S
C3216 C3213 1.499 . S
C3216 C3217 1.373 . S
C3216 C3218 1.389 . S
C3217 H3196 0.950 . S
C3217 C3216 1.373 . S
C3217 C3233 1.377 . S
C3218 C3216 1.389 . S
C3218 C3219 1.524 . S
C3218 C3232 1.377 . S
C3219 C3218 1.524 . S
C3219 C3220 1.397 . S
C3219 C3224 1.363 . S
C3220 H3197 0.950 . S
C3220 C3219 1.397 . S
C3220 C3221 1.334 . S
C3221 H3198 0.950 . S
C3221 C3220 1.334 . S
C3221 C3222 1.287 . S
C3222 C3221 1.287 . S
C3222 C3223 1.524 . S
C3222 H3241 0.913 . S
C3223 H3199 0.950 . S
C3223 C3222 1.524 . S
C3223 C3224 1.415 . S
C3224 H3200 0.950 . S
C3224 C3219 1.363 . S
C3224 C3223 1.415 . S
C3225 H3201 0.951 . S
C3225 C3226 1.366 . S
C3225 C3227 1.388 . S
C3226 C3225 1.366 . S
C3226 C3230 1.385 . S
C3227 H3202 0.951 . S
C3227 C3225 1.388 . S
C3227 C3228 1.366 . S
C3228 C3227 1.366 . S
C3228 C3229 1.414 . S
C3228 C3231 1.499 . S
C3229 H3203 0.950 . S
C3229 C3228 1.414 . S
C3229 C3230 1.374 . S
C3230 H3204 0.950 . S
C3230 C3226 1.385 . S
C3230 C3229 1.374 . S
C3231 C3228 1.499 . S
C3231 C3232 1.373 . S
C3231 C3233 1.389 . S
C3232 H3205 0.950 . S
C3232 C3218 1.377 . S
C3232 C3231 1.373 . S
C3233 C3217 1.377 . S
C3233 C3231 1.389 . S
C3233 C3234 1.524 . S
C3234 C3233 1.524 . S
C3234 C3235 1.397 . S
C3234 C3239 1.363 1_545 S
C3235 H3206 0.950 . S
C3235 C3234 1.397 . S
C3235 C3236 1.334 1_545 S
C3236 H3207 0.950 . S
C3236 C3235 1.334 1_565 S
C3236 C3237 1.287 . S
C3237 C3236 1.287 . S
C3237 C3238 1.524 . S
C3237 H3240 0.999 . S
C3238 H3208 0.950 . S
C3238 C3237 1.524 . S
C3238 C3239 1.415 . S
C3239 H3209 0.950 . S
C3239 C3234 1.363 1_565 S
C3239 C3238 1.415 . S
H3240 C3237 0.999 . S
H3241 C3222 0.913 . S
H3242 C3260 0.951 1_556 S
H3243 C3262 0.951 . S
H3244 C3264 0.950 . S
H3245 C3265 0.950 . S
H3246 C3267 0.950 . S
H3247 C3270 0.950 . S
H3248 C3271 0.950 . S
H3249 C3273 0.950 . S
H3250 C3274 0.950 . S
H3251 C3275 0.951 . S
H3252 C3277 0.951 . S
H3253 C3279 0.950 . S
H3254 C3280 0.950 . S
H3255 C3282 0.950 . S
H3256 C3285 0.950 . S
H3257 C3286 0.950 . S
H3258 C3288 0.950 . S
H3259 C3289 0.950 . S
C3260 H3242 0.951 1_554 S
C3260 C3261 1.366 . S
C3260 C3262 1.388 . S
C3261 C3260 1.366 . S
C3261 C3265 1.385 . S
C3262 H3243 0.951 . S
C3262 C3260 1.388 . S
C3262 C3263 1.366 . S
C3263 C3262 1.366 . S
C3263 C3264 1.414 . S
C3263 C3266 1.499 . S
C3264 H3244 0.950 . S
C3264 C3263 1.414 . S
C3264 C3265 1.374 . S
C3265 H3245 0.950 . S
C3265 C3261 1.385 . S
C3265 C3264 1.374 . S
C3266 C3263 1.499 . S
C3266 C3267 1.373 . S
C3266 C3268 1.389 . S
C3267 H3246 0.950 . S
C3267 C3266 1.373 . S
C3267 C3283 1.377 . S
C3268 C3266 1.389 . S
C3268 C3269 1.524 . S
C3268 C3282 1.377 . S
C3269 C3268 1.524 . S
C3269 C3270 1.397 . S
C3269 C3274 1.363 . S
C3270 H3247 0.950 . S
C3270 C3269 1.397 . S
C3270 C3271 1.334 . S
C3271 H3248 0.950 . S
C3271 C3270 1.334 . S
C3271 C3272 1.287 . S
C3272 C3271 1.287 . S
C3272 C3273 1.524 . S
C3272 H3291 0.913 . S
C3273 H3249 0.950 . S
C3273 C3272 1.524 . S
C3273 C3274 1.415 . S
C3274 H3250 0.950 . S
C3274 C3269 1.363 . S
C3274 C3273 1.415 . S
C3275 H3251 0.951 . S
C3275 C3276 1.366 . S
C3275 C3277 1.388 . S
C3276 C3275 1.366 . S
C3276 C3280 1.385 . S
C3277 H3252 0.951 . S
C3277 C3275 1.388 . S
C3277 C3278 1.366 . S
C3278 C3277 1.366 . S
C3278 C3279 1.414 . S
C3278 C3281 1.499 . S
C3279 H3253 0.950 . S
C3279 C3278 1.414 . S
C3279 C3280 1.374 . S
C3280 H3254 0.950 . S
C3280 C3276 1.385 . S
C3280 C3279 1.374 . S
C3281 C3278 1.499 . S
C3281 C3282 1.373 . S
C3281 C3283 1.389 . S
C3282 H3255 0.950 . S
C3282 C3268 1.377 . S
C3282 C3281 1.373 . S
C3283 C3267 1.377 . S
C3283 C3281 1.389 . S
C3283 C3284 1.524 . S
C3284 C3283 1.524 . S
C3284 C3285 1.397 . S
C3284 C3289 1.363 . S
C3285 H3256 0.950 . S
C3285 C3284 1.397 . S
C3285 C3286 1.334 . S
C3286 H3257 0.950 . S
C3286 C3285 1.334 . S
C3286 C3287 1.287 . S
C3287 C3286 1.287 . S
C3287 C3288 1.524 . S
C3287 H3290 0.999 . S
C3288 H3258 0.950 . S
C3288 C3287 1.524 . S
C3288 C3289 1.415 . S
C3289 H3259 0.950 . S
C3289 C3284 1.363 . S
C3289 C3288 1.415 . S
H3290 C3287 0.999 . S
H3291 C3272 0.913 . S
H3292 C3310 0.951 . S
H3293 C3312 0.951 . S
H3294 C3314 0.950 . S
H3295 C3315 0.950 . S
H3296 C3317 0.950 . S
H3297 C3320 0.950 . S
H3298 C3321 0.950 . S
H3299 C3323 0.950 . S
H3300 C3324 0.950 . S
H3301 C3325 0.951 . S
H3302 C3327 0.951 . S
H3303 C3329 0.950 . S
H3304 C3330 0.950 . S
H3305 C3332 0.950 . S
H3306 C3335 0.950 . S
H3307 C3336 0.950 . S
H3308 C3338 0.950 . S
H3309 C3339 0.950 . S
C3310 H3292 0.951 . S
C3310 C3311 1.366 . S
C3310 C3312 1.388 . S
C3311 C3310 1.366 . S
C3311 C3315 1.385 . S
C3312 H3293 0.951 . S
C3312 C3310 1.388 . S
C3312 C3313 1.366 . S
C3313 C3312 1.366 . S
C3313 C3314 1.414 . S
C3313 C3316 1.499 . S
C3314 H3294 0.950 . S
C3314 C3313 1.414 . S
C3314 C3315 1.374 . S
C3315 H3295 0.950 . S
C3315 C3311 1.385 . S
C3315 C3314 1.374 . S
C3316 C3313 1.499 . S
C3316 C3317 1.373 . S
C3316 C3318 1.389 . S
C3317 H3296 0.950 . S
C3317 C3316 1.373 . S
C3317 C3333 1.377 . S
C3318 C3316 1.389 . S
C3318 C3319 1.524 . S
C3318 C3332 1.377 . S
C3319 C3318 1.524 . S
C3319 C3320 1.397 . S
C3319 C3324 1.363 . S
C3320 H3297 0.950 . S
C3320 C3319 1.397 . S
C3320 C3321 1.334 . S
C3321 H3298 0.950 . S
C3321 C3320 1.334 . S
C3321 C3322 1.287 . S
C3322 C3321 1.287 . S
C3322 C3323 1.524 . S
C3322 H3341 0.913 . S
C3323 H3299 0.950 . S
C3323 C3322 1.524 . S
C3323 C3324 1.415 . S
C3324 H3300 0.950 . S
C3324 C3319 1.363 . S
C3324 C3323 1.415 . S
C3325 H3301 0.951 . S
C3325 C3326 1.366 . S
C3325 C3327 1.388 . S
C3326 C3325 1.366 . S
C3326 C3330 1.385 . S
C3327 H3302 0.951 . S
C3327 C3325 1.388 . S
C3327 C3328 1.366 . S
C3328 C3327 1.366 . S
C3328 C3329 1.414 . S
C3328 C3331 1.499 . S
C3329 H3303 0.950 . S
C3329 C3328 1.414 . S
C3329 C3330 1.374 . S
C3330 H3304 0.950 . S
C3330 C3326 1.385 . S
C3330 C3329 1.374 . S
C3331 C3328 1.499 . S
C3331 C3332 1.373 . S
C3331 C3333 1.389 . S
C3332 H3305 0.950 . S
C3332 C3318 1.377 . S
C3332 C3331 1.373 . S
C3333 C3317 1.377 . S
C3333 C3331 1.389 . S
C3333 C3334 1.524 . S
C3334 C3333 1.524 . S
C3334 C3335 1.397 . S
C3334 C3339 1.363 1_545 S
C3335 H3306 0.950 . S
C3335 C3334 1.397 . S
C3335 C3336 1.334 1_545 S
C3336 H3307 0.950 . S
C3336 C3335 1.334 1_565 S
C3336 C3337 1.287 . S
C3337 C3336 1.287 . S
C3337 C3338 1.524 . S
C3337 H3340 0.999 . S
C3338 H3308 0.950 . S
C3338 C3337 1.524 . S
C3338 C3339 1.415 . S
C3339 H3309 0.950 . S
C3339 C3334 1.363 1_565 S
C3339 C3338 1.415 . S
H3340 C3337 0.999 . S
H3341 C3322 0.913 . S
H3342 C3360 0.951 . S
H3343 C3362 0.951 . S
H3344 C3364 0.950 . S
H3345 C3365 0.950 . S
H3346 C3367 0.950 . S
H3347 C3370 0.950 . S
H3348 C3371 0.950 . S
H3349 C3373 0.950 . S
H3350 C3374 0.950 . S
H3351 C3375 0.951 . S
H3352 C3377 0.951 . S
H3353 C3379 0.950 . S
H3354 C3380 0.950 . S
H3355 C3382 0.950 . S
H3356 C3385 0.950 . S
H3357 C3386 0.950 . S
H3358 C3388 0.950 . S
H3359 C3389 0.950 . S
C3360 H3342 0.951 . S
C3360 C3361 1.366 . S
C3360 C3362 1.388 . S
C3361 C3360 1.366 . S
C3361 C3365 1.385 . S
C3362 H3343 0.951 . S
C3362 C3360 1.388 . S
C3362 C3363 1.366 . S
C3363 C3362 1.366 . S
C3363 C3364 1.414 . S
C3363 C3366 1.499 . S
C3364 H3344 0.950 . S
C3364 C3363 1.414 . S
C3364 C3365 1.374 . S
C3365 H3345 0.950 . S
C3365 C3361 1.385 . S
C3365 C3364 1.374 . S
C3366 C3363 1.499 . S
C3366 C3367 1.373 . S
C3366 C3368 1.389 . S
C3367 H3346 0.950 . S
C3367 C3366 1.373 . S
C3367 C3383 1.377 . S
C3368 C3366 1.389 . S
C3368 C3369 1.524 . S
C3368 C3382 1.377 . S
C3369 C3368 1.524 . S
C3369 C3370 1.397 . S
C3369 C3374 1.363 . S
C3370 H3347 0.950 . S
C3370 C3369 1.397 . S
C3370 C3371 1.334 . S
C3371 H3348 0.950 . S
C3371 C3370 1.334 . S
C3371 C3372 1.287 . S
C3372 C3371 1.287 . S
C3372 C3373 1.524 . S
C3372 H3391 0.913 . S
C3373 H3349 0.950 . S
C3373 C3372 1.524 . S
C3373 C3374 1.415 . S
C3374 H3350 0.950 . S
C3374 C3369 1.363 . S
C3374 C3373 1.415 . S
C3375 H3351 0.951 . S
C3375 C3376 1.366 . S
C3375 C3377 1.388 . S
C3376 C3375 1.366 . S
C3376 C3380 1.385 . S
C3377 H3352 0.951 . S
C3377 C3375 1.388 . S
C3377 C3378 1.366 . S
C3378 C3377 1.366 . S
C3378 C3379 1.414 . S
C3378 C3381 1.499 . S
C3379 H3353 0.950 . S
C3379 C3378 1.414 . S
C3379 C3380 1.374 . S
C3380 H3354 0.950 . S
C3380 C3376 1.385 . S
C3380 C3379 1.374 . S
C3381 C3378 1.499 . S
C3381 C3382 1.373 . S
C3381 C3383 1.389 . S
C3382 H3355 0.950 . S
C3382 C3368 1.377 . S
C3382 C3381 1.373 . S
C3383 C3367 1.377 . S
C3383 C3381 1.389 . S
C3383 C3384 1.524 . S
C3384 C3383 1.524 . S
C3384 C3385 1.397 . S
C3384 C3389 1.363 . S
C3385 H3356 0.950 . S
C3385 C3384 1.397 . S
C3385 C3386 1.334 . S
C3386 H3357 0.950 . S
C3386 C3385 1.334 . S
C3386 C3387 1.287 . S
C3387 C3386 1.287 . S
C3387 C3388 1.524 . S
C3387 H3390 0.999 . S
C3388 H3358 0.950 . S
C3388 C3387 1.524 . S
C3388 C3389 1.415 . S
C3389 H3359 0.950 . S
C3389 C3384 1.363 . S
C3389 C3388 1.415 . S
H3390 C3387 0.999 . S
H3391 C3372 0.913 . S
H3392 C3410 0.951 . S
H3393 C3412 0.951 . S
H3394 C3414 0.950 . S
H3395 C3415 0.950 . S
H3396 C3417 0.950 . S
H3397 C3420 0.950 . S
H3398 C3421 0.950 . S
H3399 C3423 0.950 . S
H3400 C3424 0.950 . S
H3401 C3425 0.951 . S
H3402 C3427 0.951 . S
H3403 C3429 0.950 . S
H3404 C3430 0.950 . S
H3405 C3432 0.950 . S
H3406 C3435 0.950 . S
H3407 C3436 0.950 . S
H3408 C3438 0.950 . S
H3409 C3439 0.950 . S
C3410 H3392 0.951 . S
C3410 C3411 1.366 . S
C3410 C3412 1.388 . S
C3411 C3410 1.366 . S
C3411 C3415 1.385 . S
C3412 H3393 0.951 . S
C3412 C3410 1.388 . S
C3412 C3413 1.366 . S
C3413 C3412 1.366 . S
C3413 C3414 1.414 . S
C3413 C3416 1.499 . S
C3414 H3394 0.950 . S
C3414 C3413 1.414 . S
C3414 C3415 1.374 . S
C3415 H3395 0.950 . S
C3415 C3411 1.385 . S
C3415 C3414 1.374 . S
C3416 C3413 1.499 . S
C3416 C3417 1.373 . S
C3416 C3418 1.389 . S
C3417 H3396 0.950 . S
C3417 C3416 1.373 . S
C3417 C3433 1.377 . S
C3418 C3416 1.389 . S
C3418 C3419 1.524 . S
C3418 C3432 1.377 . S
C3419 C3418 1.524 . S
C3419 C3420 1.397 . S
C3419 C3424 1.363 . S
C3420 H3397 0.950 . S
C3420 C3419 1.397 . S
C3420 C3421 1.334 . S
C3421 H3398 0.950 . S
C3421 C3420 1.334 . S
C3421 C3422 1.287 . S
C3422 C3421 1.287 . S
C3422 C3423 1.524 . S
C3422 H3441 0.913 . S
C3423 H3399 0.950 . S
C3423 C3422 1.524 . S
C3423 C3424 1.415 . S
C3424 H3400 0.950 . S
C3424 C3419 1.363 . S
C3424 C3423 1.415 . S
C3425 H3401 0.951 . S
C3425 C3426 1.366 . S
C3425 C3427 1.388 . S
C3426 C3425 1.366 . S
C3426 C3430 1.385 . S
C3427 H3402 0.951 . S
C3427 C3425 1.388 . S
C3427 C3428 1.366 . S
C3428 C3427 1.366 . S
C3428 C3429 1.414 . S
C3428 C3431 1.499 . S
C3429 H3403 0.950 . S
C3429 C3428 1.414 . S
C3429 C3430 1.374 . S
C3430 H3404 0.950 . S
C3430 C3426 1.385 . S
C3430 C3429 1.374 . S
C3431 C3428 1.499 . S
C3431 C3432 1.373 . S
C3431 C3433 1.389 . S
C3432 H3405 0.950 . S
C3432 C3418 1.377 . S
C3432 C3431 1.373 . S
C3433 C3417 1.377 . S
C3433 C3431 1.389 . S
C3433 C3434 1.524 . S
C3434 C3433 1.524 . S
C3434 C3435 1.397 . S
C3434 C3439 1.363 . S
C3435 H3406 0.950 . S
C3435 C3434 1.397 . S
C3435 C3436 1.334 . S
C3436 H3407 0.950 . S
C3436 C3435 1.334 . S
C3436 C3437 1.287 . S
C3437 C3436 1.287 . S
C3437 C3438 1.524 . S
C3437 H3440 0.999 . S
C3438 H3408 0.950 . S
C3438 C3437 1.524 . S
C3438 C3439 1.415 . S
C3439 H3409 0.950 . S
C3439 C3434 1.363 . S
C3439 C3438 1.415 . S
H3440 C3437 0.999 . S
H3441 C3422 0.913 . S
H3442 C3460 0.951 . S
H3443 C3462 0.951 . S
H3444 C3464 0.950 . S
H3445 C3465 0.950 . S
H3446 C3467 0.950 . S
H3447 C3470 0.950 . S
H3448 C3471 0.950 . S
H3449 C3473 0.950 . S
H3450 C3474 0.950 . S
H3451 C3475 0.951 . S
H3452 C3477 0.951 . S
H3453 C3479 0.950 . S
H3454 C3480 0.950 . S
H3455 C3482 0.950 . S
H3456 C3485 0.950 . S
H3457 C3486 0.950 . S
H3458 C3488 0.950 . S
H3459 C3489 0.950 . S
C3460 H3442 0.951 . S
C3460 C3461 1.366 . S
C3460 C3462 1.388 . S
C3461 C3460 1.366 . S
C3461 C3465 1.385 . S
C3462 H3443 0.951 . S
C3462 C3460 1.388 . S
C3462 C3463 1.366 . S
C3463 C3462 1.366 . S
C3463 C3464 1.414 . S
C3463 C3466 1.499 . S
C3464 H3444 0.950 . S
C3464 C3463 1.414 . S
C3464 C3465 1.374 . S
C3465 H3445 0.950 . S
C3465 C3461 1.385 . S
C3465 C3464 1.374 . S
C3466 C3463 1.499 . S
C3466 C3467 1.373 . S
C3466 C3468 1.389 . S
C3467 H3446 0.950 . S
C3467 C3466 1.373 . S
C3467 C3483 1.377 . S
C3468 C3466 1.389 . S
C3468 C3469 1.524 . S
C3468 C3482 1.377 . S
C3469 C3468 1.524 . S
C3469 C3470 1.397 . S
C3469 C3474 1.363 . S
C3470 H3447 0.950 . S
C3470 C3469 1.397 . S
C3470 C3471 1.334 . S
C3471 H3448 0.950 . S
C3471 C3470 1.334 . S
C3471 C3472 1.287 . S
C3472 C3471 1.287 . S
C3472 C3473 1.524 . S
C3472 H3491 0.913 . S
C3473 H3449 0.950 . S
C3473 C3472 1.524 . S
C3473 C3474 1.415 . S
C3474 H3450 0.950 . S
C3474 C3469 1.363 . S
C3474 C3473 1.415 . S
C3475 H3451 0.951 . S
C3475 C3476 1.366 . S
C3475 C3477 1.388 . S
C3476 C3475 1.366 . S
C3476 C3480 1.385 . S
C3477 H3452 0.951 . S
C3477 C3475 1.388 . S
C3477 C3478 1.366 . S
C3478 C3477 1.366 . S
C3478 C3479 1.414 . S
C3478 C3481 1.499 . S
C3479 H3453 0.950 . S
C3479 C3478 1.414 . S
C3479 C3480 1.374 . S
C3480 H3454 0.950 . S
C3480 C3476 1.385 . S
C3480 C3479 1.374 . S
C3481 C3478 1.499 . S
C3481 C3482 1.373 . S
C3481 C3483 1.389 . S
C3482 H3455 0.950 . S
C3482 C3468 1.377 . S
C3482 C3481 1.373 . S
C3483 C3467 1.377 . S
C3483 C3481 1.389 . S
C3483 C3484 1.524 . S
C3484 C3483 1.524 . S
C3484 C3485 1.397 . S
C3484 C3489 1.363 . S
C3485 H3456 0.950 . S
C3485 C3484 1.397 . S
C3485 C3486 1.334 . S
C3486 H3457 0.950 . S
C3486 C3485 1.334 . S
C3486 C3487 1.287 . S
C3487 C3486 1.287 . S
C3487 C3488 1.524 . S
C3487 H3490 0.999 . S
C3488 H3458 0.950 . S
C3488 C3487 1.524 . S
C3488 C3489 1.415 . S
C3489 H3459 0.950 . S
C3489 C3484 1.363 . S
C3489 C3488 1.415 . S
H3490 C3487 0.999 . S
H3491 C3472 0.913 . S
H3492 C3510 0.951 . S
H3493 C3512 0.951 . S
H3494 C3514 0.950 . S
H3495 C3515 0.950 . S
H3496 C3517 0.950 . S
H3497 C3520 0.950 . S
H3498 C3521 0.950 . S
H3499 C3523 0.950 . S
H3500 C3524 0.950 . S
H3501 C3525 0.951 . S
H3502 C3527 0.951 . S
H3503 C3529 0.950 . S
H3504 C3530 0.950 . S
H3505 C3532 0.950 . S
H3506 C3535 0.950 . S
H3507 C3536 0.950 . S
H3508 C3538 0.950 . S
H3509 C3539 0.950 . S
C3510 H3492 0.951 . S
C3510 C3511 1.366 . S
C3510 C3512 1.388 . S
C3511 C3510 1.366 . S
C3511 C3515 1.385 . S
C3512 H3493 0.951 . S
C3512 C3510 1.388 . S
C3512 C3513 1.366 . S
C3513 C3512 1.366 . S
C3513 C3514 1.414 . S
C3513 C3516 1.499 . S
C3514 H3494 0.950 . S
C3514 C3513 1.414 . S
C3514 C3515 1.374 . S
C3515 H3495 0.950 . S
C3515 C3511 1.385 . S
C3515 C3514 1.374 . S
C3516 C3513 1.499 . S
C3516 C3517 1.373 . S
C3516 C3518 1.389 . S
C3517 H3496 0.950 . S
C3517 C3516 1.373 . S
C3517 C3533 1.377 . S
C3518 C3516 1.389 . S
C3518 C3519 1.524 . S
C3518 C3532 1.377 . S
C3519 C3518 1.524 . S
C3519 C3520 1.397 . S
C3519 C3524 1.363 . S
C3520 H3497 0.950 . S
C3520 C3519 1.397 . S
C3520 C3521 1.334 . S
C3521 H3498 0.950 . S
C3521 C3520 1.334 . S
C3521 C3522 1.287 . S
C3522 C3521 1.287 . S
C3522 C3523 1.524 . S
C3522 H3541 0.913 . S
C3523 H3499 0.950 . S
C3523 C3522 1.524 . S
C3523 C3524 1.415 . S
C3524 H3500 0.950 . S
C3524 C3519 1.363 . S
C3524 C3523 1.415 . S
C3525 H3501 0.951 . S
C3525 C3526 1.366 . S
C3525 C3527 1.388 . S
C3526 C3525 1.366 . S
C3526 C3530 1.385 . S
C3527 H3502 0.951 . S
C3527 C3525 1.388 . S
C3527 C3528 1.366 . S
C3528 C3527 1.366 . S
C3528 C3529 1.414 . S
C3528 C3531 1.499 . S
C3529 H3503 0.950 . S
C3529 C3528 1.414 . S
C3529 C3530 1.374 . S
C3530 H3504 0.950 . S
C3530 C3526 1.385 . S
C3530 C3529 1.374 . S
C3531 C3528 1.499 . S
C3531 C3532 1.373 . S
C3531 C3533 1.389 . S
C3532 H3505 0.950 . S
C3532 C3518 1.377 . S
C3532 C3531 1.373 . S
C3533 C3517 1.377 . S
C3533 C3531 1.389 . S
C3533 C3534 1.524 . S
C3534 C3533 1.524 . S
C3534 C3535 1.397 . S
C3534 C3539 1.363 . S
C3535 H3506 0.950 . S
C3535 C3534 1.397 . S
C3535 C3536 1.334 . S
C3536 H3507 0.950 . S
C3536 C3535 1.334 . S
C3536 C3537 1.287 . S
C3537 C3536 1.287 . S
C3537 C3538 1.524 . S
C3537 H3540 0.999 . S
C3538 H3508 0.950 . S
C3538 C3537 1.524 . S
C3538 C3539 1.415 . S
C3539 H3509 0.950 . S
C3539 C3534 1.363 . S
C3539 C3538 1.415 . S
H3540 C3537 0.999 . S
H3541 C3522 0.913 . S
H3542 C3560 0.951 . S
H3543 C3562 0.951 . S
H3544 C3564 0.950 . S
H3545 C3565 0.950 . S
H3546 C3567 0.950 . S
H3547 C3570 0.950 . S
H3548 C3571 0.950 . S
H3549 C3573 0.950 . S
H3550 C3574 0.950 . S
H3551 C3575 0.951 . S
H3552 C3577 0.951 . S
H3553 C3579 0.950 . S
H3554 C3580 0.950 . S
H3555 C3582 0.950 . S
H3556 C3585 0.950 . S
H3557 C3586 0.950 . S
H3558 C3588 0.950 . S
H3559 C3589 0.950 . S
C3560 H3542 0.951 . S
C3560 C3561 1.366 . S
C3560 C3562 1.388 . S
C3561 C3560 1.366 . S
C3561 C3565 1.385 . S
C3562 H3543 0.951 . S
C3562 C3560 1.388 . S
C3562 C3563 1.366 . S
C3563 C3562 1.366 . S
C3563 C3564 1.414 . S
C3563 C3566 1.499 . S
C3564 H3544 0.950 . S
C3564 C3563 1.414 . S
C3564 C3565 1.374 . S
C3565 H3545 0.950 . S
C3565 C3561 1.385 . S
C3565 C3564 1.374 . S
C3566 C3563 1.499 . S
C3566 C3567 1.373 . S
C3566 C3568 1.389 . S
C3567 H3546 0.950 . S
C3567 C3566 1.373 . S
C3567 C3583 1.377 . S
C3568 C3566 1.389 . S
C3568 C3569 1.524 . S
C3568 C3582 1.377 . S
C3569 C3568 1.524 . S
C3569 C3570 1.397 . S
C3569 C3574 1.363 . S
C3570 H3547 0.950 . S
C3570 C3569 1.397 . S
C3570 C3571 1.334 . S
C3571 H3548 0.950 . S
C3571 C3570 1.334 . S
C3571 C3572 1.287 . S
C3572 C3571 1.287 . S
C3572 C3573 1.524 . S
C3572 H3591 0.913 . S
C3573 H3549 0.950 . S
C3573 C3572 1.524 . S
C3573 C3574 1.415 . S
C3574 H3550 0.950 . S
C3574 C3569 1.363 . S
C3574 C3573 1.415 . S
C3575 H3551 0.951 . S
C3575 C3576 1.366 . S
C3575 C3577 1.388 . S
C3576 C3575 1.366 . S
C3576 C3580 1.385 . S
C3577 H3552 0.951 . S
C3577 C3575 1.388 . S
C3577 C3578 1.366 . S
C3578 C3577 1.366 . S
C3578 C3579 1.414 . S
C3578 C3581 1.499 . S
C3579 H3553 0.950 . S
C3579 C3578 1.414 . S
C3579 C3580 1.374 . S
C3580 H3554 0.950 . S
C3580 C3576 1.385 . S
C3580 C3579 1.374 . S
C3581 C3578 1.499 . S
C3581 C3582 1.373 . S
C3581 C3583 1.389 . S
C3582 H3555 0.950 . S
C3582 C3568 1.377 . S
C3582 C3581 1.373 . S
C3583 C3567 1.377 . S
C3583 C3581 1.389 . S
C3583 C3584 1.524 . S
C3584 C3583 1.524 . S
C3584 C3585 1.397 . S
C3584 C3589 1.363 . S
C3585 H3556 0.950 . S
C3585 C3584 1.397 . S
C3585 C3586 1.334 . S
C3586 H3557 0.950 . S
C3586 C3585 1.334 . S
C3586 C3587 1.287 . S
C3587 C3586 1.287 . S
C3587 C3588 1.524 . S
C3587 H3590 0.999 . S
C3588 H3558 0.950 . S
C3588 C3587 1.524 . S
C3588 C3589 1.415 . S
C3589 H3559 0.950 . S
C3589 C3584 1.363 . S
C3589 C3588 1.415 . S
H3590 C3587 0.999 . S
H3591 C3572 0.913 . S
H3592 C3610 0.951 . S
H3593 C3612 0.951 . S
H3594 C3614 0.950 . S
H3595 C3615 0.950 . S
H3596 C3617 0.950 . S
H3597 C3620 0.950 . S
H3598 C3621 0.950 . S
H3599 C3623 0.950 . S
H3600 C3624 0.950 . S
H3601 C3625 0.951 . S
H3602 C3627 0.951 . S
H3603 C3629 0.950 . S
H3604 C3630 0.950 . S
H3605 C3632 0.950 . S
H3606 C3635 0.950 . S
H3607 C3636 0.950 . S
H3608 C3638 0.950 . S
H3609 C3639 0.950 . S
C3610 H3592 0.951 . S
C3610 C3611 1.366 . S
C3610 C3612 1.388 . S
C3611 C3610 1.366 . S
C3611 C3615 1.385 . S
C3612 H3593 0.951 . S
C3612 C3610 1.388 . S
C3612 C3613 1.366 . S
C3613 C3612 1.366 . S
C3613 C3614 1.414 . S
C3613 C3616 1.499 . S
C3614 H3594 0.950 . S
C3614 C3613 1.414 . S
C3614 C3615 1.374 . S
C3615 H3595 0.950 . S
C3615 C3611 1.385 . S
C3615 C3614 1.374 . S
C3616 C3613 1.499 . S
C3616 C3617 1.373 . S
C3616 C3618 1.389 . S
C3617 H3596 0.950 . S
C3617 C3616 1.373 . S
C3617 C3633 1.377 . S
C3618 C3616 1.389 . S
C3618 C3619 1.524 . S
C3618 C3632 1.377 . S
C3619 C3618 1.524 . S
C3619 C3620 1.397 . S
C3619 C3624 1.363 . S
C3620 H3597 0.950 . S
C3620 C3619 1.397 . S
C3620 C3621 1.334 . S
C3621 H3598 0.950 . S
C3621 C3620 1.334 . S
C3621 C3622 1.287 . S
C3622 C3621 1.287 . S
C3622 C3623 1.524 . S
C3622 H3641 0.913 . S
C3623 H3599 0.950 . S
C3623 C3622 1.524 . S
C3623 C3624 1.415 . S
C3624 H3600 0.950 . S
C3624 C3619 1.363 . S
C3624 C3623 1.415 . S
C3625 H3601 0.951 . S
C3625 C3626 1.366 . S
C3625 C3627 1.388 . S
C3626 C3625 1.366 . S
C3626 C3630 1.385 . S
C3627 H3602 0.951 . S
C3627 C3625 1.388 . S
C3627 C3628 1.366 . S
C3628 C3627 1.366 . S
C3628 C3629 1.414 . S
C3628 C3631 1.499 . S
C3629 H3603 0.950 . S
C3629 C3628 1.414 . S
C3629 C3630 1.374 . S
C3630 H3604 0.950 . S
C3630 C3626 1.385 . S
C3630 C3629 1.374 . S
C3631 C3628 1.499 . S
C3631 C3632 1.373 . S
C3631 C3633 1.389 . S
C3632 H3605 0.950 . S
C3632 C3618 1.377 . S
C3632 C3631 1.373 . S
C3633 C3617 1.377 . S
C3633 C3631 1.389 . S
C3633 C3634 1.524 . S
C3634 C3633 1.524 . S
C3634 C3635 1.397 . S
C3634 C3639 1.363 . S
C3635 H3606 0.950 . S
C3635 C3634 1.397 . S
C3635 C3636 1.334 . S
C3636 H3607 0.950 . S
C3636 C3635 1.334 . S
C3636 C3637 1.287 . S
C3637 C3636 1.287 . S
C3637 C3638 1.524 . S
C3637 H3640 0.999 . S
C3638 H3608 0.950 . S
C3638 C3637 1.524 . S
C3638 C3639 1.415 . S
C3639 H3609 0.950 . S
C3639 C3634 1.363 . S
C3639 C3638 1.415 . S
H3640 C3637 0.999 . S
H3641 C3622 0.913 . S
H3642 C3660 0.951 . S
H3643 C3662 0.951 . S
H3644 C3664 0.950 . S
H3645 C3665 0.950 . S
H3646 C3667 0.950 . S
H3647 C3670 0.950 . S
H3648 C3671 0.950 . S
H3649 C3673 0.950 . S
H3650 C3674 0.950 . S
H3651 C3675 0.951 . S
H3652 C3677 0.951 . S
H3653 C3679 0.950 . S
H3654 C3680 0.950 . S
H3655 C3682 0.950 . S
H3656 C3685 0.950 . S
H3657 C3686 0.950 . S
H3658 C3688 0.950 . S
H3659 C3689 0.950 . S
C3660 H3642 0.951 . S
C3660 C3661 1.366 . S
C3660 C3662 1.388 . S
C3661 C3660 1.366 . S
C3661 C3665 1.385 . S
C3662 H3643 0.951 . S
C3662 C3660 1.388 . S
C3662 C3663 1.366 . S
C3663 C3662 1.366 . S
C3663 C3664 1.414 . S
C3663 C3666 1.499 . S
C3664 H3644 0.950 . S
C3664 C3663 1.414 . S
C3664 C3665 1.374 . S
C3665 H3645 0.950 . S
C3665 C3661 1.385 . S
C3665 C3664 1.374 . S
C3666 C3663 1.499 . S
C3666 C3667 1.373 . S
C3666 C3668 1.389 . S
C3667 H3646 0.950 . S
C3667 C3666 1.373 . S
C3667 C3683 1.377 . S
C3668 C3666 1.389 . S
C3668 C3669 1.524 . S
C3668 C3682 1.377 . S
C3669 C3668 1.524 . S
C3669 C3670 1.397 . S
C3669 C3674 1.363 . S
C3670 H3647 0.950 . S
C3670 C3669 1.397 . S
C3670 C3671 1.334 . S
C3671 H3648 0.950 . S
C3671 C3670 1.334 . S
C3671 C3672 1.287 . S
C3672 C3671 1.287 . S
C3672 C3673 1.524 . S
C3672 H3691 0.913 . S
C3673 H3649 0.950 . S
C3673 C3672 1.524 . S
C3673 C3674 1.415 . S
C3674 H3650 0.950 . S
C3674 C3669 1.363 . S
C3674 C3673 1.415 . S
C3675 H3651 0.951 . S
C3675 C3676 1.366 . S
C3675 C3677 1.388 . S
C3676 C3675 1.366 . S
C3676 C3680 1.385 . S
C3677 H3652 0.951 . S
C3677 C3675 1.388 . S
C3677 C3678 1.366 . S
C3678 C3677 1.366 . S
C3678 C3679 1.414 . S
C3678 C3681 1.499 . S
C3679 H3653 0.950 . S
C3679 C3678 1.414 . S
C3679 C3680 1.374 . S
C3680 H3654 0.950 . S
C3680 C3676 1.385 . S
C3680 C3679 1.374 . S
C3681 C3678 1.499 . S
C3681 C3682 1.373 . S
C3681 C3683 1.389 . S
C3682 H3655 0.950 . S
C3682 C3668 1.377 . S
C3682 C3681 1.373 . S
C3683 C3667 1.377 . S
C3683 C3681 1.389 . S
C3683 C3684 1.524 . S
C3684 C3683 1.524 . S
C3684 C3685 1.397 . S
C3684 C3689 1.363 . S
C3685 H3656 0.950 . S
C3685 C3684 1.397 . S
C3685 C3686 1.334 . S
C3686 H3657 0.950 . S
C3686 C3685 1.334 . S
C3686 C3687 1.287 . S
C3687 C3686 1.287 . S
C3687 C3688 1.524 . S
C3687 H3690 0.999 . S
C3688 H3658 0.950 . S
C3688 C3687 1.524 . S
C3688 C3689 1.415 . S
C3689 H3659 0.950 . S
C3689 C3684 1.363 . S
C3689 C3688 1.415 . S
H3690 C3687 0.999 . S
H3691 C3672 0.913 . S
H3692 C3710 0.951 . S
H3693 C3712 0.951 . S
H3694 C3714 0.950 . S
H3695 C3715 0.950 . S
H3696 C3717 0.950 . S
H3697 C3720 0.950 . S
H3698 C3721 0.950 . S
H3699 C3723 0.950 . S
H3700 C3724 0.950 . S
H3701 C3725 0.951 . S
H3702 C3727 0.951 . S
H3703 C3729 0.950 . S
H3704 C3730 0.950 . S
H3705 C3732 0.950 . S
H3706 C3735 0.950 . S
H3707 C3736 0.950 . S
H3708 C3738 0.950 . S
H3709 C3739 0.950 . S
C3710 H3692 0.951 . S
C3710 C3711 1.366 . S
C3710 C3712 1.388 . S
C3711 C3710 1.366 . S
C3711 C3715 1.385 . S
C3712 H3693 0.951 . S
C3712 C3710 1.388 . S
C3712 C3713 1.366 . S
C3713 C3712 1.366 . S
C3713 C3714 1.414 . S
C3713 C3716 1.499 . S
C3714 H3694 0.950 . S
C3714 C3713 1.414 . S
C3714 C3715 1.374 . S
C3715 H3695 0.950 . S
C3715 C3711 1.385 . S
C3715 C3714 1.374 . S
C3716 C3713 1.499 . S
C3716 C3717 1.373 . S
C3716 C3718 1.389 . S
C3717 H3696 0.950 . S
C3717 C3716 1.373 . S
C3717 C3733 1.377 . S
C3718 C3716 1.389 . S
C3718 C3719 1.524 . S
C3718 C3732 1.377 . S
C3719 C3718 1.524 . S
C3719 C3720 1.397 . S
C3719 C3724 1.363 . S
C3720 H3697 0.950 . S
C3720 C3719 1.397 . S
C3720 C3721 1.334 . S
C3721 H3698 0.950 . S
C3721 C3720 1.334 . S
C3721 C3722 1.287 . S
C3722 C3721 1.287 . S
C3722 C3723 1.524 . S
C3722 H3741 0.913 . S
C3723 H3699 0.950 . S
C3723 C3722 1.524 . S
C3723 C3724 1.415 . S
C3724 H3700 0.950 . S
C3724 C3719 1.363 . S
C3724 C3723 1.415 . S
C3725 H3701 0.951 . S
C3725 C3726 1.366 . S
C3725 C3727 1.388 . S
C3726 C3725 1.366 . S
C3726 C3730 1.385 . S
C3727 H3702 0.951 . S
C3727 C3725 1.388 . S
C3727 C3728 1.366 . S
C3728 C3727 1.366 . S
C3728 C3729 1.414 . S
C3728 C3731 1.499 . S
C3729 H3703 0.950 . S
C3729 C3728 1.414 . S
C3729 C3730 1.374 . S
C3730 H3704 0.950 . S
C3730 C3726 1.385 . S
C3730 C3729 1.374 . S
C3731 C3728 1.499 . S
C3731 C3732 1.373 . S
C3731 C3733 1.389 . S
C3732 H3705 0.950 . S
C3732 C3718 1.377 . S
C3732 C3731 1.373 . S
C3733 C3717 1.377 . S
C3733 C3731 1.389 . S
C3733 C3734 1.524 . S
C3734 C3733 1.524 . S
C3734 C3735 1.397 . S
C3734 C3739 1.363 . S
C3735 H3706 0.950 . S
C3735 C3734 1.397 . S
C3735 C3736 1.334 . S
C3736 H3707 0.950 . S
C3736 C3735 1.334 . S
C3736 C3737 1.287 . S
C3737 C3736 1.287 . S
C3737 C3738 1.524 . S
C3737 H3740 0.999 . S
C3738 H3708 0.950 . S
C3738 C3737 1.524 . S
C3738 C3739 1.415 . S
C3739 H3709 0.950 . S
C3739 C3734 1.363 . S
C3739 C3738 1.415 . S
H3740 C3737 0.999 . S
H3741 C3722 0.913 . S
H3742 C3760 0.951 . S
H3743 C3762 0.951 . S
H3744 C3764 0.950 . S
H3745 C3765 0.950 . S
H3746 C3767 0.950 . S
H3747 C3770 0.950 . S
H3748 C3771 0.950 . S
H3749 C3773 0.950 . S
H3750 C3774 0.950 . S
H3751 C3775 0.951 . S
H3752 C3777 0.951 . S
H3753 C3779 0.950 . S
H3754 C3780 0.950 . S
H3755 C3782 0.950 . S
H3756 C3785 0.944 1_455 S
H3757 C3786 0.950 . S
H3758 C3788 0.950 . S
H3759 C3789 0.950 . S
C3760 H3742 0.951 . S
C3760 C3761 1.366 . S
C3760 C3762 1.388 . S
C3761 C3760 1.366 . S
C3761 C3765 1.385 . S
C3762 H3743 0.951 . S
C3762 C3760 1.388 . S
C3762 C3763 1.366 . S
C3763 C3762 1.366 . S
C3763 C3764 1.414 . S
C3763 C3766 1.499 . S
C3764 H3744 0.950 . S
C3764 C3763 1.414 . S
C3764 C3765 1.374 . S
C3765 H3745 0.950 . S
C3765 C3761 1.385 . S
C3765 C3764 1.374 . S
C3766 C3763 1.499 . S
C3766 C3767 1.373 . S
C3766 C3768 1.389 . S
C3767 H3746 0.950 . S
C3767 C3766 1.373 . S
C3767 C3783 1.377 . S
C3768 C3766 1.389 . S
C3768 C3769 1.524 . S
C3768 C3782 1.377 . S
C3769 C3768 1.524 . S
C3769 C3770 1.397 . S
C3769 C3774 1.363 . S
C3770 H3747 0.950 . S
C3770 C3769 1.397 . S
C3770 C3771 1.334 . S
C3771 H3748 0.950 . S
C3771 C3770 1.334 . S
C3771 C3772 1.287 . S
C3772 C3771 1.287 . S
C3772 C3773 1.524 . S
C3772 H3791 0.913 . S
C3773 H3749 0.950 . S
C3773 C3772 1.524 . S
C3773 C3774 1.415 . S
C3774 H3750 0.950 . S
C3774 C3769 1.363 . S
C3774 C3773 1.415 . S
C3775 H3751 0.951 . S
C3775 C3776 1.366 . S
C3775 C3777 1.388 . S
C3776 C3775 1.366 . S
C3776 C3780 1.385 . S
C3777 H3752 0.951 . S
C3777 C3775 1.388 . S
C3777 C3778 1.366 . S
C3778 C3777 1.366 . S
C3778 C3779 1.414 . S
C3778 C3781 1.499 . S
C3779 H3753 0.950 . S
C3779 C3778 1.414 . S
C3779 C3780 1.374 . S
C3780 H3754 0.950 . S
C3780 C3776 1.385 . S
C3780 C3779 1.374 . S
C3781 C3778 1.499 . S
C3781 C3782 1.373 . S
C3781 C3783 1.389 . S
C3782 H3755 0.950 . S
C3782 C3768 1.377 . S
C3782 C3781 1.373 . S
C3783 C3767 1.377 . S
C3783 C3781 1.389 . S
C3783 C3784 1.524 . S
C3784 C3783 1.524 . S
C3784 C3785 1.394 1_455 S
C3784 C3789 1.363 1_455 S
C3785 H3756 0.944 1_655 S
C3785 C3784 1.394 1_655 S
C3785 C3786 1.343 . S
C3786 H3757 0.950 . S
C3786 C3785 1.343 . S
C3786 C3787 1.287 . S
C3787 C3786 1.287 . S
C3787 C3788 1.524 . S
C3787 H3790 0.999 . S
C3788 H3758 0.950 . S
C3788 C3787 1.524 . S
C3788 C3789 1.415 . S
C3789 H3759 0.950 . S
C3789 C3784 1.363 1_655 S
C3789 C3788 1.415 . S
H3790 C3787 0.999 . S
H3791 C3772 0.913 . S
C811 C21 0.527 . S
C826 C681 0.529 . S
C861 C582 0.527 . S
C876 C54 0.514 1_554 S
C911 C615 0.526 . S
C926 C87 0.526 . S
C961 C648 0.529 . S
C976 C120 0.529 . S
C1011 C153 0.529 . S
C1026 C780 0.529 . S
C1061 C714 0.527 . S
C1076 C186 0.526 . S
C1111 C747 0.514 1_455 S
C1126 C219 0.528 . S
C1161 C549 0.526 . S
C1176 C252 0.528 . S
C1211 C285 0.527 . S
C1226 C516 0.526 . S
C1261 C417 0.529 . S
C1276 C318 0.529 . S
C1311 C351 0.529 . S
C1326 C450 0.512 1_545 S
C1361 C483 0.527 . S
C1376 C384 0.528 . S
C1411 C634 1.201 . S
C1426 N13 1.024 . S
C1461 N46 1.023 . S
C1476 C667 1.201 . S
C1511 C568 1.201 . S
C1526 N79 1.023 . S
C1561 N112 1.024 . S
C1576 C601 1.201 . S
C1611 C700 1.201 . S
C1626 N145 1.024 . S
C1661 C733 1.201 . S
C1676 N178 1.022 . S
C1711 C535 1.201 1_556 S
C1726 N211 1.023 1_655 S
C1761 N244 1.024 . S
C1776 C766 1.202 . S
C1811 N277 1.022 . S
C1826 C73 1.201 . S
C1861 N310 1.022 . S
C1876 C106 1.201 . S
C1911 N343 1.024 1_565 S
C1926 C7 1.202 1_655 S
C1961 C40 1.201 . S
C1976 N376 1.024 . S
C2011 N409 1.022 . S
C2026 C205 1.201 . S
C2061 C238 1.201 . S
C2076 N442 1.024 . S
C2111 C139 1.201 . S
C2126 N475 1.022 . S
C2161 C172 1.201 . S
C2176 N508 1.023 . S
C2211 C403 1.201 . S
C2226 N541 1.024 . S
C2261 C271 1.202 1_565 S
C2276 N574 1.025 1_556 S
C2311 N607 1.022 . S
C2326 C304 1.201 . S
C2361 N640 1.023 . S
C2376 C337 1.201 . S
C2411 C370 1.201 . S
C2426 N673 1.024 . S
C2461 N706 1.023 . S
C2476 C469 1.201 . S
C2511 C502 1.201 . S
C2526 N739 1.024 . S
C2561 N772 1.024 . S
C2576 C436 1.201 . S
C2611 C18 0.873 . S
C2626 C744 0.874 1_455 S
C2661 C546 0.873 . S
C2676 C51 0.874 1_554 S
C2711 C84 0.874 . S
C2726 C777 0.873 . S
C2761 C711 0.873 . S
C2776 C117 0.874 . S
C2811 C150 0.874 . S
C2826 C612 0.873 . S
C2861 C645 0.873 . S
C2876 C183 0.874 . S
C2911 C216 0.874 . S
C2926 C678 0.873 . S
C2961 C579 0.874 . S
C2976 C249 0.873 . S
C3011 C447 0.874 1_545 S
C3026 C282 0.874 . S
C3061 C480 0.873 . S
C3076 C315 0.874 . S
C3111 C348 0.874 . S
C3126 C513 0.873 . S
C3161 C381 0.873 . S
C3176 C414 0.874 . S
C3211 N497 0.598 . S
C3226 N2 0.595 . S
C3261 N35 0.599 . S
C3276 N398 0.598 . S
C3311 N431 0.596 . S
C3326 N68 0.599 . S
C3361 N464 0.596 . S
C3376 N101 0.595 . S
C3411 N134 0.599 . S
C3426 N299 0.598 . S
C3461 N332 0.599 . S
C3476 N167 0.597 . S
C3511 N200 0.597 . S
C3526 N365 0.595 . S
C3561 N266 0.599 . S
C3576 N233 0.595 . S
C3611 N662 0.598 . S
C3626 N530 0.598 . S
C3661 N761 0.599 . S
C3676 N563 0.595 . S
C3711 N695 0.598 . S
C3726 N596 0.595 . S
C3761 N728 0.597 . S
C3776 N629 0.599 . S
