# Generated by pormake.
# Topology pem, (4)-cn, num edge types: 1
# Building blocks:
#     Node 0, Type 0, BuildingBlock: QUQFOY_clean_sbu_1, # of connection points: 4
#     Node 1, Type 0, BuildingBlock: QUQFOY_clean_sbu_1, # of connection points: 4
#     Node 2, Type 0, BuildingBlock: QUQFOY_clean_sbu_1, # of connection points: 4
#     Node 3, Type 0, BuildingBlock: QUQFOY_clean_sbu_1, # of connection points: 4
#     Node 4, Type 0, BuildingBlock: QUQFOY_clean_sbu_1, # of connection points: 4
#     Node 5, Type 0, BuildingBlock: QUQFOY_clean_sbu_1, # of connection points: 4
#     Node 6, Type 0, BuildingBlock: QUQFOY_clean_sbu_1, # of connection points: 4
#     Node 7, Type 0, BuildingBlock: QUQFOY_clean_sbu_1, # of connection points: 4
#     Node 8, Type 0, BuildingBlock: QUQFOY_clean_sbu_1, # of connection points: 4
#     Node 9, Type 0, BuildingBlock: QUQFOY_clean_sbu_1, # of connection points: 4
#     Node 10, Type 0, BuildingBlock: QUQFOY_clean_sbu_1, # of connection points: 4
#     Node 11, Type 0, BuildingBlock: QUQFOY_clean_sbu_1, # of connection points: 4
#     Node 12, Type 0, BuildingBlock: QUQFOY_clean_sbu_1, # of connection points: 4
#     Node 13, Type 0, BuildingBlock: QUQFOY_clean_sbu_1, # of connection points: 4
#     Node 14, Type 0, BuildingBlock: QUQFOY_clean_sbu_1, # of connection points: 4
#     Node 15, Type 0, BuildingBlock: QUQFOY_clean_sbu_1, # of connection points: 4
#     Node 16, Type 0, BuildingBlock: QUQFOY_clean_sbu_1, # of connection points: 4
#     Node 17, Type 0, BuildingBlock: QUQFOY_clean_sbu_1, # of connection points: 4
#     Node 18, Type 0, BuildingBlock: QUQFOY_clean_sbu_1, # of connection points: 4
#     Node 19, Type 0, BuildingBlock: QUQFOY_clean_sbu_1, # of connection points: 4
#     Node 20, Type 0, BuildingBlock: QUQFOY_clean_sbu_1, # of connection points: 4
#     Node 21, Type 0, BuildingBlock: QUQFOY_clean_sbu_1, # of connection points: 4
#     Node 22, Type 0, BuildingBlock: QUQFOY_clean_sbu_1, # of connection points: 4
#     Node 23, Type 0, BuildingBlock: QUQFOY_clean_sbu_1, # of connection points: 4
#     Node 24, Type 0, BuildingBlock: QUQFOY_clean_sbu_1, # of connection points: 4
#     Node 25, Type 0, BuildingBlock: QUQFOY_clean_sbu_1, # of connection points: 4
#     Node 26, Type 0, BuildingBlock: QUQFOY_clean_sbu_1, # of connection points: 4
#     Node 27, Type 0, BuildingBlock: QUQFOY_clean_sbu_1, # of connection points: 4
#     Node 28, Type 0, BuildingBlock: QUQFOY_clean_sbu_1, # of connection points: 4
#     Node 29, Type 0, BuildingBlock: QUQFOY_clean_sbu_1, # of connection points: 4
#     Node 30, Type 0, BuildingBlock: QUQFOY_clean_sbu_1, # of connection points: 4
#     Node 31, Type 0, BuildingBlock: QUQFOY_clean_sbu_1, # of connection points: 4
#     Edge 32, Type (0, 0), BuildingBlock: XUDNAN_clean_linker_2, # of connection points: 2
#     Edge 33, Type (0, 0), BuildingBlock: XUDNAN_clean_linker_2, # of connection points: 2
#     Edge 34, Type (0, 0), BuildingBlock: XUDNAN_clean_linker_2, # of connection points: 2
#     Edge 35, Type (0, 0), BuildingBlock: XUDNAN_clean_linker_2, # of connection points: 2
#     Edge 36, Type (0, 0), BuildingBlock: XUDNAN_clean_linker_2, # of connection points: 2
#     Edge 37, Type (0, 0), BuildingBlock: XUDNAN_clean_linker_2, # of connection points: 2
#     Edge 38, Type (0, 0), BuildingBlock: XUDNAN_clean_linker_2, # of connection points: 2
#     Edge 39, Type (0, 0), BuildingBlock: XUDNAN_clean_linker_2, # of connection points: 2
#     Edge 40, Type (0, 0), BuildingBlock: XUDNAN_clean_linker_2, # of connection points: 2
#     Edge 41, Type (0, 0), BuildingBlock: XUDNAN_clean_linker_2, # of connection points: 2
#     Edge 42, Type (0, 0), BuildingBlock: XUDNAN_clean_linker_2, # of connection points: 2
#     Edge 43, Type (0, 0), BuildingBlock: XUDNAN_clean_linker_2, # of connection points: 2
#     Edge 44, Type (0, 0), BuildingBlock: XUDNAN_clean_linker_2, # of connection points: 2
#     Edge 45, Type (0, 0), BuildingBlock: XUDNAN_clean_linker_2, # of connection points: 2
#     Edge 46, Type (0, 0), BuildingBlock: XUDNAN_clean_linker_2, # of connection points: 2
#     Edge 47, Type (0, 0), BuildingBlock: XUDNAN_clean_linker_2, # of connection points: 2
#     Edge 48, Type (0, 0), BuildingBlock: XUDNAN_clean_linker_2, # of connection points: 2
#     Edge 49, Type (0, 0), BuildingBlock: XUDNAN_clean_linker_2, # of connection points: 2
#     Edge 50, Type (0, 0), BuildingBlock: XUDNAN_clean_linker_2, # of connection points: 2
#     Edge 51, Type (0, 0), BuildingBlock: XUDNAN_clean_linker_2, # of connection points: 2
#     Edge 52, Type (0, 0), BuildingBlock: XUDNAN_clean_linker_2, # of connection points: 2
#     Edge 53, Type (0, 0), BuildingBlock: XUDNAN_clean_linker_2, # of connection points: 2
#     Edge 54, Type (0, 0), BuildingBlock: XUDNAN_clean_linker_2, # of connection points: 2
#     Edge 55, Type (0, 0), BuildingBlock: XUDNAN_clean_linker_2, # of connection points: 2
#     Edge 56, Type (0, 0), BuildingBlock: XUDNAN_clean_linker_2, # of connection points: 2
#     Edge 57, Type (0, 0), BuildingBlock: XUDNAN_clean_linker_2, # of connection points: 2
#     Edge 58, Type (0, 0), BuildingBlock: XUDNAN_clean_linker_2, # of connection points: 2
#     Edge 59, Type (0, 0), BuildingBlock: XUDNAN_clean_linker_2, # of connection points: 2
#     Edge 60, Type (0, 0), BuildingBlock: XUDNAN_clean_linker_2, # of connection points: 2
#     Edge 61, Type (0, 0), BuildingBlock: XUDNAN_clean_linker_2, # of connection points: 2
#     Edge 62, Type (0, 0), BuildingBlock: XUDNAN_clean_linker_2, # of connection points: 2
#     Edge 63, Type (0, 0), BuildingBlock: XUDNAN_clean_linker_2, # of connection points: 2
#     Edge 64, Type (0, 0), BuildingBlock: XUDNAN_clean_linker_2, # of connection points: 2
#     Edge 65, Type (0, 0), BuildingBlock: XUDNAN_clean_linker_2, # of connection points: 2
#     Edge 66, Type (0, 0), BuildingBlock: XUDNAN_clean_linker_2, # of connection points: 2
#     Edge 67, Type (0, 0), BuildingBlock: XUDNAN_clean_linker_2, # of connection points: 2
#     Edge 68, Type (0, 0), BuildingBlock: XUDNAN_clean_linker_2, # of connection points: 2
#     Edge 69, Type (0, 0), BuildingBlock: XUDNAN_clean_linker_2, # of connection points: 2
#     Edge 70, Type (0, 0), BuildingBlock: XUDNAN_clean_linker_2, # of connection points: 2
#     Edge 71, Type (0, 0), BuildingBlock: XUDNAN_clean_linker_2, # of connection points: 2
#     Edge 72, Type (0, 0), BuildingBlock: XUDNAN_clean_linker_2, # of connection points: 2
#     Edge 73, Type (0, 0), BuildingBlock: XUDNAN_clean_linker_2, # of connection points: 2
#     Edge 74, Type (0, 0), BuildingBlock: XUDNAN_clean_linker_2, # of connection points: 2
#     Edge 75, Type (0, 0), BuildingBlock: XUDNAN_clean_linker_2, # of connection points: 2
#     Edge 76, Type (0, 0), BuildingBlock: XUDNAN_clean_linker_2, # of connection points: 2
#     Edge 77, Type (0, 0), BuildingBlock: XUDNAN_clean_linker_2, # of connection points: 2
#     Edge 78, Type (0, 0), BuildingBlock: XUDNAN_clean_linker_2, # of connection points: 2
#     Edge 79, Type (0, 0), BuildingBlock: XUDNAN_clean_linker_2, # of connection points: 2
#     Edge 80, Type (0, 0), BuildingBlock: XUDNAN_clean_linker_2, # of connection points: 2
#     Edge 81, Type (0, 0), BuildingBlock: XUDNAN_clean_linker_2, # of connection points: 2
#     Edge 82, Type (0, 0), BuildingBlock: XUDNAN_clean_linker_2, # of connection points: 2
#     Edge 83, Type (0, 0), BuildingBlock: XUDNAN_clean_linker_2, # of connection points: 2
#     Edge 84, Type (0, 0), BuildingBlock: XUDNAN_clean_linker_2, # of connection points: 2
#     Edge 85, Type (0, 0), BuildingBlock: XUDNAN_clean_linker_2, # of connection points: 2
#     Edge 86, Type (0, 0), BuildingBlock: XUDNAN_clean_linker_2, # of connection points: 2
#     Edge 87, Type (0, 0), BuildingBlock: XUDNAN_clean_linker_2, # of connection points: 2
#     Edge 88, Type (0, 0), BuildingBlock: XUDNAN_clean_linker_2, # of connection points: 2
#     Edge 89, Type (0, 0), BuildingBlock: XUDNAN_clean_linker_2, # of connection points: 2
#     Edge 90, Type (0, 0), BuildingBlock: XUDNAN_clean_linker_2, # of connection points: 2
#     Edge 91, Type (0, 0), BuildingBlock: XUDNAN_clean_linker_2, # of connection points: 2
#     Edge 92, Type (0, 0), BuildingBlock: XUDNAN_clean_linker_2, # of connection points: 2
#     Edge 93, Type (0, 0), BuildingBlock: XUDNAN_clean_linker_2, # of connection points: 2
#     Edge 94, Type (0, 0), BuildingBlock: XUDNAN_clean_linker_2, # of connection points: 2
#     Edge 95, Type (0, 0), BuildingBlock: XUDNAN_clean_linker_2, # of connection points: 2
# Relax obj value: 0.278
# Max RMSD: 0.272
# Mean RMSD: 0.235
data_MOF--net-pem--node1-QUQFOY_clean_sbu_1--edge1-XUDNAN_clean_linker_2
_symmetry_space_group_name_H-M    P1
_symmetry_Int_Tables_number       1
_symmetry_cell_setting            triclinic
loop_
_symmetry_equiv_pos_as_xyz
'x, y, z'
_cell_length_a     44.361385
_cell_length_b     44.777203
_cell_length_c     44.16024
_cell_angle_alpha  89.546029
_cell_angle_beta   89.705427
_cell_angle_gamma 95.866573
loop_
_atom_site_label
_atom_site_type_symbol
_atom_site_fract_x
_atom_site_fract_y
_atom_site_fract_z
_atom_type_partial_charge
O0 O 0.11436 0.07725 0.1213 0.0
Cd1 Cd 0.10004 0.09523 0.08103 0.0
Cd2 Cd 0.05445 0.12146 0.14066 0.0
O3 O 0.08693 0.09554 0.1589 0.0
O4 O 0.10854 0.07357 0.04283 0.0
O5 O 0.1298 0.11917 0.05458 0.0
C6 C 0.1264 0.09724 0.03555 0.0
C7 C 0.04532 0.1708 0.14475 0.0
C8 C 0.10706 0.0792 0.14926 0.0
C9 C 0.03677 0.09391 0.09006 0.0
O10 O 0.02363 0.09639 0.11519 0.0
O11 O 0.05977 0.11225 0.08449 0.0
O12 O 0.03575 0.15148 0.16552 0.0
O13 O 0.06278 0.16264 0.12342 0.0
O14 O 0.14466 0.90519 0.29724 0.0
Cd15 Cd 0.14545 0.86521 0.32289 0.0
Cd16 Cd 0.20229 0.90077 0.3351 0.0
O17 O 0.18032 0.93525 0.31968 0.0
O18 O 0.11074 0.84715 0.34915 0.0
O19 O 0.116 0.8364 0.30088 0.0
C20 C 0.10158 0.83131 0.32604 0.0
C21 C 0.23146 0.8993 0.37818 0.0
C22 C 0.15922 0.93108 0.30038 0.0
C23 C 0.2062 0.84569 0.30966 0.0
O24 O 0.21557 0.87252 0.30305 0.0
O25 O 0.18175 0.83987 0.32439 0.0
O26 O 0.24039 0.91647 0.35558 0.0
O27 O 0.20455 0.88514 0.37744 0.0
O28 O 0.41339 0.94605 0.59623 0.0
Cd29 Cd 0.42544 0.91157 0.56893 0.0
Cd30 Cd 0.44845 0.90024 0.62215 0.0
O31 O 0.41077 0.91858 0.63768 0.0
O32 O 0.40842 0.92195 0.52904 0.0
O33 O 0.39313 0.88019 0.55413 0.0
C34 C 0.39063 0.8974 0.53085 0.0
C35 C 0.46926 0.85766 0.63695 0.0
C36 C 0.40497 0.94221 0.62363 0.0
C37 C 0.48991 0.92298 0.57788 0.0
O38 O 0.48182 0.92962 0.6043 0.0
O39 O 0.4709 0.90881 0.56048 0.0
O40 O 0.46854 0.87986 0.65533 0.0
O41 O 0.45503 0.85829 0.61149 0.0
O42 O 0.35843 0.12584 0.78957 0.0
Cd43 Cd 0.34888 0.15852 0.82095 0.0
Cd44 Cd 0.29261 0.1156 0.82032 0.0
O45 O 0.32073 0.08998 0.79694 0.0
O46 O 0.38505 0.18876 0.81613 0.0
O47 O 0.37265 0.16645 0.8597 0.0
C48 C 0.39048 0.18565 0.84446 0.0
C49 C 0.2585 0.09911 0.8588 0.0
C50 C 0.34558 0.09968 0.78397 0.0
C51 C 0.2896 0.17895 0.80067 0.0
O52 O 0.27843 0.15189 0.79787 0.0
O53 O 0.31543 0.18541 0.81231 0.0
O54 O 0.25356 0.09104 0.83116 0.0
O55 O 0.28407 0.11431 0.86492 0.0
O56 O 0.13243 0.95783 0.3956 0.0
Cd57 Cd 0.1305 0.92851 0.43258 0.0
Cd58 Cd 0.07103 0.90439 0.40586 0.0
O59 O 0.0855 0.94278 0.38159 0.0
O60 O 0.17033 0.92928 0.45377 0.0
O61 O 0.1466 0.88817 0.43392 0.0
C62 C 0.1687 0.90061 0.44997 0.0
C63 C 0.03456 0.87222 0.38049 0.0
C64 C 0.1095 0.96082 0.37896 0.0
C65 C 0.07431 0.92451 0.47082 0.0
O66 O 0.06104 0.90787 0.45084 0.0
O67 O 0.10093 0.93712 0.46644 0.0
O68 O 0.02798 0.89716 0.39153 0.0
O69 O 0.06185 0.86528 0.38359 0.0
O70 O 0.3902 0.78235 0.60798 0.0
Cd71 Cd 0.34792 0.79525 0.6191 0.0
Cd72 Cd 0.3816 0.82179 0.66637 0.0
O73 O 0.41753 0.80915 0.64186 0.0
O74 O 0.32123 0.78347 0.58379 0.0
O75 O 0.32852 0.83006 0.60001 0.0
C76 C 0.31524 0.81093 0.5814 0.0
C77 C 0.37553 0.86715 0.69025 0.0
C78 C 0.41561 0.79064 0.62009 0.0
C79 C 0.33809 0.76915 0.68154 0.0
O80 O 0.3609 0.7864 0.68984 0.0
O81 O 0.32736 0.77119 0.65503 0.0
O82 O 0.39667 0.85112 0.69847 0.0
O83 O 0.35966 0.85887 0.66673 0.0
O84 O 0.38898 0.12812 0.91487 0.0
Cd85 Cd 0.42118 0.11393 0.88495 0.0
Cd86 Cd 0.37034 0.06568 0.88994 0.0
O87 O 0.34654 0.09927 0.90624 0.0
O88 O 0.456 0.143 0.89723 0.0
O89 O 0.43609 0.14352 0.85168 0.0
C90 C 0.45461 0.15601 0.87136 0.0
C91 C 0.35703 0.03279 0.851 0.0
C92 C 0.36053 0.12212 0.91867 0.0
C93 C 0.43041 0.05368 0.90925 0.0
O94 O 0.40273 0.05054 0.91717 0.0
O95 O 0.44029 0.07445 0.89099 0.0
O96 O 0.34361 0.02931 0.877 0.0
O97 O 0.37584 0.05653 0.84654 0.0
O98 O 0.16326 0.20778 0.12978 0.0
Cd99 Cd 0.19791 0.18205 0.11631 0.0
Cd100 Cd 0.16391 0.15068 0.18986 0.0
O101 O 0.14752 0.18976 0.17538 0.0
O102 O 0.22711 0.20912 0.0916 0.0
O103 O 0.20407 0.16677 0.07401 0.0
C104 C 0.22431 0.18943 0.07044 0.0
C105 C 0.14207 0.1243 0.23121 0.0
C106 C 0.14712 0.20886 0.15382 0.0
C107 C 0.22316 0.14757 0.1665 0.0
O108 O 0.19742 0.13253 0.16648 0.0
O109 O 0.22739 0.16955 0.14825 0.0
O110 O 0.16479 0.14434 0.23495 0.0
O111 O 0.13118 0.12042 0.20431 0.0
O112 O 0.59724 0.45291 0.86843 0.0
Cd113 Cd 0.59868 0.43026 0.90985 0.0
Cd114 Cd 0.54563 0.39667 0.87605 0.0
O115 O 0.56216 0.4254 0.84214 0.0
O116 O 0.63248 0.45477 0.93156 0.0
O117 O 0.63277 0.40626 0.92338 0.0
C118 C 0.64567 0.43069 0.9349 0.0
C119 C 0.53235 0.34553 0.87432 0.0
C120 C 0.58182 0.44805 0.84433 0.0
C121 C 0.53388 0.42464 0.93496 0.0
O122 O 0.52333 0.41442 0.91011 0.0
O123 O 0.56221 0.43051 0.93907 0.0
O124 O 0.51625 0.36342 0.86003 0.0
O125 O 0.55726 0.35672 0.8867 0.0
O126 O 0.89081 0.31562 0.08955 0.0
Cd127 Cd 0.84631 0.32482 0.08154 0.0
Cd128 Cd 0.86254 0.36213 0.14244 0.0
O129 O 0.90109 0.34286 0.13082 0.0
O130 O 0.83356 0.32918 0.038 0.0
O131 O 0.8351 0.3652 0.07238 0.0
C132 C 0.82949 0.35647 0.04494 0.0
C133 C 0.86726 0.39205 0.18708 0.0
C134 C 0.90868 0.32449 0.11099 0.0
C135 C 0.80769 0.31204 0.13431 0.0
O136 O 0.8237 0.33363 0.14672 0.0
O137 O 0.81357 0.30275 0.10809 0.0
O138 O 0.86996 0.36385 0.18729 0.0
O139 O 0.86321 0.40428 0.16109 0.0
O140 O 0.86877 0.63527 0.42616 0.0
Cd141 Cd 0.91025 0.63313 0.40432 0.0
Cd142 Cd 0.87987 0.56875 0.3919 0.0
O143 O 0.84967 0.58789 0.41959 0.0
O144 O 0.93463 0.67294 0.40951 0.0
O145 O 0.92423 0.65285 0.36478 0.0
C146 C 0.93874 0.67375 0.38061 0.0
C147 C 0.86199 0.53092 0.35765 0.0
C148 C 0.84818 0.61372 0.43111 0.0
C149 C 0.94102 0.57811 0.42262 0.0
O150 O 0.92038 0.56046 0.4106 0.0
O151 O 0.93958 0.6062 0.42314 0.0
O152 O 0.86084 0.52643 0.38645 0.0
O153 O 0.87186 0.55749 0.34817 0.0
O154 O 0.86467 0.63534 0.29171 0.0
Cd155 Cd 0.84981 0.66737 0.32111 0.0
Cd156 Cd 0.80623 0.61125 0.32961 0.0
O157 O 0.83866 0.59257 0.30575 0.0
O158 O 0.87964 0.69308 0.3465 0.0
O159 O 0.86797 0.70427 0.29948 0.0
C160 C 0.8829 0.7113 0.32367 0.0
C161 C 0.78242 0.58972 0.3722 0.0
C162 C 0.85941 0.60694 0.29004 0.0
C163 C 0.78187 0.66556 0.31477 0.0
O164 O 0.78013 0.63844 0.30664 0.0
O165 O 0.80591 0.67809 0.32639 0.0
O166 O 0.77702 0.57827 0.34586 0.0
O167 O 0.8027 0.61243 0.37465 0.0
O168 O 0.68109 0.37156 0.796 0.0
Cd169 Cd 0.69211 0.33421 0.82062 0.0
Cd170 Cd 0.75057 0.36586 0.80346 0.0
O171 O 0.72509 0.39641 0.78287 0.0
O172 O 0.67606 0.32739 0.86323 0.0
O173 O 0.65407 0.30693 0.82242 0.0
C174 C 0.65491 0.30928 0.8514 0.0
C175 C 0.76574 0.36957 0.8536 0.0
C176 C 0.69622 0.3938 0.78285 0.0
C177 C 0.74192 0.30321 0.78828 0.0
O178 O 0.75774 0.32741 0.78098 0.0
O179 O 0.71843 0.30315 0.80457 0.0
O180 O 0.7841 0.37999 0.83232 0.0
O181 O 0.73906 0.3579 0.84619 0.0
O182 O 0.85901 0.91961 0.95309 0.0
Cd183 Cd 0.8983 0.93348 0.92745 0.0
Cd184 Cd 0.91214 0.88137 0.95413 0.0
O185 O 0.86685 0.87287 0.9643 0.0
O186 O 0.89021 0.97129 0.90563 0.0
O187 O 0.90265 0.93118 0.88182 0.0
C188 C 0.89719 0.95897 0.88064 0.0
C189 C 0.94567 0.84803 0.93883 0.0
C190 C 0.85015 0.8943 0.96552 0.0
C191 C 0.94671 0.9356 0.97445 0.0
O192 O 0.93506 0.90998 0.98287 0.0
O193 O 0.93728 0.94779 0.95077 0.0
O194 O 0.93167 0.84497 0.96448 0.0
O195 O 0.93769 0.86795 0.91996 0.0
O196 O 0.90357 0.1812 0.66467 0.0
Cd197 Cd 0.88153 0.14285 0.68502 0.0
Cd198 Cd 0.83925 0.15046 0.62053 0.0
O199 O 0.87624 0.1825 0.62242 0.0
O200 O 0.8997 0.13499 0.72579 0.0
O201 O 0.89856 0.10308 0.68802 0.0
C202 C 0.90398 0.10865 0.71614 0.0
C203 C 0.8109 0.15323 0.57561 0.0
C204 C 0.89786 0.1932 0.63928 0.0
C205 C 0.81209 0.14414 0.68482 0.0
O206 O 0.80972 0.14499 0.65625 0.0
O207 O 0.83755 0.14438 0.69775 0.0
O208 O 0.81316 0.17452 0.5949 0.0
O209 O 0.82532 0.13023 0.58098 0.0
O210 O 0.64449 0.13732 0.41083 0.0
Cd211 Cd 0.61581 0.09995 0.39873 0.0
Cd212 Cd 0.57545 0.12855 0.43592 0.0
O213 O 0.6164 0.15048 0.44887 0.0
O214 O 0.63925 0.07539 0.37093 0.0
O215 O 0.59439 0.08917 0.35948 0.0
C216 C 0.6163 0.07331 0.35307 0.0
C217 C 0.53339 0.15574 0.42848 0.0
C218 C 0.6418 0.15171 0.43524 0.0
C219 C 0.58709 0.06704 0.4527 0.0
O220 O 0.56872 0.08685 0.45543 0.0
O221 O 0.60796 0.06954 0.43295 0.0
O222 O 0.54419 0.1516 0.45503 0.0
O223 O 0.54653 0.14437 0.40575 0.0
O224 O 0.58163 0.81032 0.16915 0.0
Cd225 Cd 0.61205 0.83793 0.19428 0.0
Cd226 Cd 0.65176 0.82167 0.14988 0.0
O227 O 0.61238 0.79996 0.13182 0.0
O228 O 0.58905 0.86358 0.22067 0.0
O229 O 0.6255 0.88168 0.18883 0.0
C230 C 0.60634 0.88618 0.21006 0.0
C231 C 0.69045 0.84557 0.11867 0.0
C232 C 0.58648 0.79666 0.14471 0.0
C233 C 0.65863 0.8007 0.21494 0.0
O234 O 0.66719 0.80068 0.18745 0.0
O235 O 0.63709 0.81528 0.22324 0.0
O236 O 0.68505 0.81678 0.11993 0.0
O237 O 0.67305 0.86113 0.13429 0.0
O238 O 0.87816 0.07382 0.64078 0.0
Cd239 Cd 0.91037 0.08688 0.60822 0.0
Cd240 Cd 0.86905 0.05203 0.5713 0.0
O241 O 0.85398 0.03764 0.61406 0.0
O242 O 0.94192 0.11336 0.63067 0.0
O243 O 0.91998 0.12783 0.5891 0.0
C244 C 0.94013 0.13335 0.60987 0.0
C245 C 0.83504 0.06605 0.53441 0.0
C246 C 0.85974 0.05027 0.63935 0.0
C247 C 0.93119 0.03464 0.57292 0.0
O248 O 0.90659 0.03214 0.55808 0.0
O249 O 0.93546 0.05365 0.59402 0.0
O250 O 0.83497 0.03859 0.54342 0.0
O251 O 0.85451 0.08593 0.54627 0.0
O252 O 0.66064 0.12031 0.2952 0.0
Cd253 Cd 0.68687 0.1489 0.32365 0.0
Cd254 Cd 0.6301 0.176 0.32286 0.0
O255 O 0.61559 0.13749 0.29953 0.0
O256 O 0.72289 0.12899 0.33927 0.0
O257 O 0.68558 0.14167 0.36822 0.0
C258 C 0.71081 0.12986 0.36586 0.0
C259 C 0.5985 0.20234 0.35347 0.0
C260 C 0.63265 0.11914 0.28825 0.0
C261 C 0.68606 0.20759 0.29252 0.0
O262 O 0.65775 0.20475 0.29712 0.0
O263 O 0.70295 0.18926 0.30402 0.0
O264 O 0.59464 0.20033 0.32469 0.0
O265 O 0.61891 0.18746 0.36546 0.0
O266 O 0.56432 0.94056 0.13739 0.0
Cd267 Cd 0.54971 0.91062 0.10381 0.0
Cd268 Cd 0.60715 0.93211 0.08073 0.0
O269 O 0.61097 0.95555 0.12153 0.0
O270 O 0.51317 0.88596 0.12044 0.0
O271 O 0.55272 0.86617 0.10109 0.0
C272 C 0.52557 0.86251 0.1122 0.0
C273 C 0.64558 0.91073 0.05487 0.0
C274 C 0.58934 0.9569 0.14046 0.0
C275 C 0.55095 0.94487 0.04622 0.0
O276 O 0.57948 0.94839 0.04908 0.0
O277 O 0.53438 0.93014 0.06576 0.0
O278 O 0.64613 0.93938 0.05785 0.0
O279 O 0.62501 0.89385 0.06958 0.0
O280 O 0.82796 0.89863 0.82248 0.0
Cd281 Cd 0.8149 0.86072 0.84899 0.0
Cd282 Cd 0.86896 0.84771 0.82317 0.0
O283 O 0.87479 0.89167 0.80877 0.0
O284 O 0.7759 0.87145 0.86675 0.0
O285 O 0.81479 0.86113 0.89472 0.0
C286 C 0.78733 0.86815 0.89311 0.0
C287 C 0.89728 0.81874 0.85321 0.0
C288 C 0.85262 0.90762 0.80884 0.0
C289 C 0.81592 0.80923 0.80579 0.0
O290 O 0.84127 0.82133 0.79643 0.0
O291 O 0.80302 0.81949 0.82866 0.0
O292 O 0.9058 0.82577 0.8258 0.0
O293 O 0.8747 0.8312 0.86456 0.0
O294 O 0.39087 0.54967 0.1574 0.0
Cd295 Cd 0.4154 0.56964 0.12154 0.0
Cd296 Cd 0.36369 0.55662 0.09256 0.0
O297 O 0.34635 0.5443 0.13489 0.0
O298 O 0.4518 0.59408 0.13775 0.0
O299 O 0.41902 0.61226 0.10654 0.0
C300 C 0.44409 0.61607 0.12145 0.0
C301 C 0.34239 0.58509 0.05517 0.0
C302 C 0.36294 0.5398 0.15761 0.0
C303 C 0.41438 0.52062 0.0775 0.0
O304 O 0.38642 0.52357 0.07455 0.0
O305 O 0.4311 0.53847 0.09392 0.0
O306 O 0.32888 0.55982 0.06452 0.0
O307 O 0.3669 0.59554 0.06875 0.0
O308 O 0.16613 0.6334 0.81593 0.0
Cd309 Cd 0.19206 0.65977 0.84646 0.0
Cd310 Cd 0.12682 0.69996 0.82533 0.0
O311 O 0.12461 0.65677 0.80551 0.0
O312 O 0.20003 0.64096 0.88602 0.0
O313 O 0.23594 0.65412 0.8518 0.0
C314 C 0.22839 0.64329 0.87834 0.0
C315 C 0.09172 0.72222 0.85371 0.0
C316 C 0.14076 0.63463 0.80243 0.0
C317 C 0.18616 0.71911 0.82737 0.0
O318 O 0.16387 0.72844 0.814 0.0
O319 O 0.18018 0.70176 0.8498 0.0
O320 O 0.09079 0.7231 0.82443 0.0
O321 O 0.11094 0.70632 0.86658 0.0
O322 O 0.07349 0.44651 0.63907 0.0
Cd323 Cd 0.06251 0.42317 0.60004 0.0
Cd324 Cd 0.12092 0.44995 0.58744 0.0
O325 O 0.12262 0.45934 0.63333 0.0
O326 O 0.02131 0.4036 0.61091 0.0
O327 O 0.05871 0.37822 0.59549 0.0
C328 C 0.03083 0.37839 0.60393 0.0
C329 C 0.15883 0.43252 0.55752 0.0
C330 C 0.09846 0.45894 0.64908 0.0
C331 C 0.07022 0.47125 0.55266 0.0
O332 O 0.09693 0.47775 0.56227 0.0
O333 O 0.05387 0.44845 0.56288 0.0
O334 O 0.16246 0.4585 0.57014 0.0
O335 O 0.13472 0.41501 0.56437 0.0
O336 O 0.08681 0.32084 0.6695 0.0
Cd337 Cd 0.11911 0.3538 0.68796 0.0
Cd338 Cd 0.14838 0.32778 0.63155 0.0
O339 O 0.10317 0.32244 0.622 0.0
O340 O 0.10418 0.36019 0.72997 0.0
O341 O 0.11364 0.39773 0.69775 0.0
C342 C 0.10719 0.38869 0.72507 0.0
C343 C 0.18369 0.327 0.59167 0.0
C344 C 0.08346 0.31315 0.64181 0.0
C345 C 0.16976 0.31591 0.69279 0.0
O346 O 0.16198 0.3041 0.66773 0.0
O347 O 0.16022 0.34036 0.70074 0.0
O348 O 0.16495 0.30406 0.59829 0.0
O349 O 0.18148 0.35133 0.60664 0.0
O350 O 0.3831 0.67096 0.17085 0.0
Cd351 Cd 0.34909 0.64677 0.19602 0.0
Cd352 Cd 0.31346 0.66592 0.1458 0.0
O353 O 0.35647 0.68269 0.13069 0.0
O354 O 0.36792 0.62529 0.22985 0.0
O355 O 0.33541 0.60265 0.1975 0.0
C356 C 0.35094 0.60151 0.22212 0.0
C357 C 0.27455 0.64508 0.11365 0.0
C358 C 0.38133 0.6841 0.14528 0.0
C359 C 0.30338 0.68914 0.2089 0.0
O360 O 0.29725 0.6896 0.18088 0.0
O361 O 0.32269 0.67294 0.21934 0.0
O362 O 0.28347 0.67337 0.11321 0.0
O363 O 0.28897 0.62812 0.13103 0.0
O364 O 0.62207 0.54263 0.62604 0.0
Cd365 Cd 0.61017 0.56272 0.58578 0.0
Cd366 Cd 0.57064 0.58936 0.63048 0.0
O367 O 0.59257 0.56238 0.6594 0.0
O368 O 0.63179 0.53779 0.55728 0.0
O369 O 0.64047 0.58717 0.55862 0.0
C370 C 0.64601 0.56208 0.5467 0.0
C371 C 0.55945 0.63891 0.63378 0.0
C372 C 0.61234 0.5447 0.653 0.0
C373 C 0.54065 0.55668 0.58037 0.0
O374 O 0.53735 0.56668 0.60669 0.0
O375 O 0.56679 0.55526 0.56894 0.0
O376 O 0.54783 0.61865 0.65261 0.0
O377 O 0.58073 0.63186 0.61583 0.0
O378 O 0.92634 0.43951 0.12023 0.0
Cd379 Cd 0.92884 0.41385 0.08261 0.0
Cd380 Cd 0.99748 0.41586 0.12623 0.0
O381 O 0.96757 0.44136 0.14948 0.0
O382 O 0.90831 0.43321 0.0483 0.0
O383 O 0.89133 0.38983 0.0702 0.0
C384 C 0.8876 0.41096 0.05087 0.0
C385 C 0.02079 0.3761 0.14448 0.0
C386 C 0.94116 0.44902 0.14345 0.0
C387 C 0.98914 0.42182 0.06535 0.0
O388 O 0.0101 0.43031 0.08356 0.0
O389 O 0.97028 0.40034 0.07408 0.0
O390 O 0.03215 0.40333 0.14968 0.0
O391 O 0.99525 0.37159 0.13043 0.0
O392 O 0.63503 0.71253 0.62122 0.0
Cd393 Cd 0.67316 0.69002 0.61828 0.0
Cd394 Cd 0.6452 0.65488 0.67208 0.0
O395 O 0.62361 0.69352 0.66683 0.0
O396 O 0.69712 0.69831 0.58027 0.0
O397 O 0.67734 0.65287 0.59479 0.0
C398 C 0.69468 0.66959 0.5764 0.0
C399 C 0.62069 0.61946 0.70546 0.0
C400 C 0.61986 0.71238 0.64578 0.0
C401 C 0.70962 0.67669 0.67006 0.0
O402 O 0.69128 0.65326 0.67291 0.0
O403 O 0.70347 0.69767 0.65244 0.0
O404 O 0.63636 0.64302 0.71546 0.0
O405 O 0.61834 0.61636 0.67655 0.0
O406 O 0.35175 0.38358 0.43728 0.0
Cd407 Cd 0.38127 0.40846 0.40718 0.0
Cd408 Cd 0.41317 0.36164 0.4354 0.0
O409 O 0.37056 0.33968 0.43864 0.0
O410 O 0.36131 0.44606 0.39972 0.0
O411 O 0.37064 0.41491 0.36315 0.0
C412 C 0.36096 0.43983 0.37139 0.0
C413 C 0.45625 0.33613 0.42919 0.0
C414 C 0.34945 0.35584 0.44466 0.0
C415 C 0.42544 0.42424 0.45155 0.0
O416 O 0.41883 0.39828 0.4626 0.0
O417 O 0.42096 0.42913 0.42381 0.0
O418 O 0.44089 0.3345 0.45408 0.0
O419 O 0.44658 0.35168 0.40716 0.0
O420 O 0.09958 0.58489 0.95378 0.0
Cd421 Cd 0.06918 0.57183 0.91877 0.0
Cd422 Cd 0.04983 0.62929 0.94624 0.0
O423 O 0.09159 0.63103 0.96718 0.0
O424 O 0.07805 0.52907 0.9138 0.0
O425 O 0.08323 0.56222 0.87651 0.0
C426 C 0.08426 0.53495 0.88581 0.0
C427 C 0.02344 0.66977 0.93323 0.0
C428 C 0.10661 0.60836 0.96953 0.0
C429 C 0.00724 0.57469 0.94597 0.0
O430 O 0.01792 0.59698 0.96133 0.0
O431 O 0.02288 0.56465 0.92501 0.0
O432 O 0.03041 0.66449 0.96089 0.0
O433 O 0.03495 0.65434 0.91228 0.0
O434 O 0.3069 0.35928 0.31385 0.0
Cd435 Cd 0.29737 0.33036 0.35036 0.0
Cd436 Cd 0.356 0.32042 0.33293 0.0
O437 O 0.35694 0.36206 0.31158 0.0
O438 O 0.25898 0.34243 0.36912 0.0
O439 O 0.30364 0.34896 0.3914 0.0
C440 C 0.27511 0.35255 0.39171 0.0
C441 C 0.39328 0.29836 0.35989 0.0
C442 C 0.33202 0.37127 0.30304 0.0
C443 C 0.30477 0.27352 0.3209 0.0
O444 O 0.32954 0.28739 0.31187 0.0
O445 O 0.28917 0.28471 0.34133 0.0
O446 O 0.396 0.30317 0.33111 0.0
O447 O 0.37129 0.30942 0.37388 0.0
H448 H 0.03549 0.08284 0.03028 0.0
H449 H 0.03234 0.03949 0.1184 0.0
H450 H 0.02216 0.99006 0.09432 0.0
H451 H 0.97438 0.04622 0.00376 0.0
H452 H 0.98616 0.042 0.96502 0.0
H453 H 0.00383 0.07213 0.98718 0.0
H454 H 0.05661 0.0542 0.97664 0.0
H455 H 0.03897 0.02392 0.95408 0.0
H456 H 0.06312 0.01598 0.98521 0.0
H457 H 0.00074 0.94867 0.06377 0.0
H458 H 0.96648 0.9186 0.0297 0.0
H459 H 0.98055 0.98837 0.96078 0.0
C460 C 0.03372 0.06269 0.04418 0.0
C461 C 0.03442 0.06453 0.07588 0.0
C462 C 0.0315 0.0382 0.09392 0.0
C463 C 0.02625 0.01009 0.08042 0.0
C464 C 0.02404 0.0089 0.04899 0.0
C465 C 0.02783 0.03452 0.03099 0.0
C466 C 0.01822 0.02792 0.99874 0.0
C467 C 0.99421 0.04825 0.98811 0.0
C468 C 0.04588 0.03066 0.97741 0.0
C469 C 0.00517 0.99556 0.00232 0.0
C470 C 0.01028 0.98459 0.03102 0.0
C471 C 0.99722 0.95664 0.04099 0.0
C472 C 0.97754 0.93986 0.02156 0.0
C473 C 0.97066 0.95145 0.9928 0.0
C474 C 0.98553 0.97906 0.98268 0.0
H475 H 0.28767 0.74468 0.19586 0.0
H476 H 0.28869 0.67865 0.26819 0.0
H477 H 0.26649 0.71334 0.30332 0.0
H478 H 0.3089 0.80932 0.2432 0.0
H479 H 0.2854 0.83313 0.22288 0.0
H480 H 0.30139 0.8031 0.20354 0.0
H481 H 0.24771 0.7813 0.18674 0.0
H482 H 0.2316 0.81134 0.20579 0.0
H483 H 0.21847 0.77289 0.21494 0.0
H484 H 0.24078 0.7532 0.32882 0.0
H485 H 0.21512 0.79722 0.34421 0.0
H486 H 0.23535 0.83883 0.25646 0.0
C487 C 0.283 0.73753 0.21906 0.0
C488 C 0.28936 0.70907 0.22945 0.0
C489 C 0.2837 0.70047 0.26 0.0
C490 C 0.27125 0.71997 0.28002 0.0
C491 C 0.26537 0.74803 0.2691 0.0
C492 C 0.27132 0.75693 0.23945 0.0
C493 C 0.26313 0.78833 0.23348 0.0
C494 C 0.29139 0.80973 0.2253 0.0
C495 C 0.23877 0.78845 0.20879 0.0
C496 C 0.25074 0.79537 0.2642 0.0
C497 C 0.25221 0.7718 0.28441 0.0
C498 C 0.23996 0.77205 0.31346 0.0
C499 C 0.22542 0.79696 0.32192 0.0
C500 C 0.22378 0.8212 0.30149 0.0
C501 C 0.23705 0.82071 0.27257 0.0
H502 H 0.51737 0.97756 0.59047 0.0
H503 H 0.52517 0.89898 0.53578 0.0
H504 H 0.56501 0.92729 0.50494 0.0
H505 H 0.51087 0.02151 0.53553 0.0
H506 H 0.53137 0.05554 0.54921 0.0
H507 H 0.51548 0.02776 0.57564 0.0
H508 H 0.568 0.02419 0.59986 0.0
H509 H 0.58419 0.05284 0.5739 0.0
H510 H 0.59985 0.01731 0.57634 0.0
H511 H 0.59092 0.96559 0.47208 0.0
H512 H 0.59943 0.01047 0.43916 0.0
H513 H 0.56995 0.06552 0.51162 0.0
C514 C 0.5289 0.966 0.57312 0.0
C515 C 0.51876 0.9363 0.56544 0.0
C516 C 0.53307 0.92181 0.54193 0.0
C517 C 0.55584 0.93767 0.52452 0.0
C518 C 0.56361 0.96795 0.53086 0.0
C519 C 0.55073 0.98197 0.55488 0.0
C520 C 0.55651 0.01578 0.55236 0.0
C521 C 0.5268 0.03098 0.55319 0.0
C522 C 0.57846 0.02826 0.57708 0.0
C523 C 0.57144 0.01856 0.52157 0.0
C524 C 0.57696 0.99085 0.51035 0.0
C525 C 0.5875 0.98747 0.48092 0.0
C526 C 0.59194 0.01294 0.46231 0.0
C527 C 0.58484 0.04105 0.47301 0.0
C528 C 0.57528 0.04404 0.50311 0.0
H529 H 0.24627 0.17615 0.75698 0.0
H530 H 0.29556 0.23698 0.81973 0.0
H531 H 0.26877 0.27875 0.80015 0.0
H532 H 0.24993 0.22723 0.69528 0.0
H533 H 0.21274 0.21465 0.68127 0.0
H534 H 0.23394 0.18907 0.70189 0.0
H535 H 0.18946 0.1784 0.7401 0.0
H536 H 0.16803 0.20385 0.71949 0.0
H537 H 0.17488 0.20929 0.75936 0.0
H538 H 0.23711 0.31381 0.77334 0.0
H539 H 0.20443 0.34029 0.73924 0.0
H540 H 0.17844 0.25671 0.69252 0.0
C541 C 0.25109 0.19818 0.76686 0.0
C542 C 0.27274 0.20343 0.78991 0.0
C543 C 0.27897 0.23261 0.80198 0.0
C544 C 0.26384 0.2564 0.79111 0.0
C545 C 0.24285 0.25056 0.76807 0.0
C546 C 0.23659 0.22222 0.75598 0.0
C547 C 0.21436 0.22224 0.73022 0.0
C548 C 0.22861 0.21274 0.70041 0.0
C549 C 0.18494 0.20227 0.73776 0.0
C550 C 0.20926 0.25505 0.72961 0.0
C551 C 0.22558 0.27097 0.75183 0.0
C552 C 0.22424 0.30164 0.75579 0.0
C553 C 0.20567 0.31644 0.73638 0.0
C554 C 0.18921 0.30052 0.71319 0.0
C555 C 0.19108 0.26949 0.70985 0.0
H556 H 0.01305 0.92002 0.47561 0.0
H557 H 0.09546 0.95102 0.52336 0.0
H558 H 0.06528 0.97638 0.56055 0.0
H559 H 0.98391 0.9853 0.47689 0.0
H560 H 0.94462 0.97117 0.48151 0.0
H561 H 0.97053 0.9482 0.46401 0.0
H562 H 0.95674 0.90582 0.50342 0.0
H563 H 0.93008 0.92835 0.52078 0.0
H564 H 0.95931 0.91408 0.54327 0.0
H565 H 0.02839 0.00595 0.5858 0.0
H566 H 0.98738 0.03687 0.59837 0.0
H567 H 0.92938 0.9886 0.5322 0.0
C568 C 0.02465 0.93094 0.49468 0.0
C569 C 0.05653 0.93338 0.49684 0.0
C570 C 0.071 0.94875 0.5215 0.0
C571 C 0.05403 0.96312 0.54274 0.0
C572 C 0.02275 0.9618 0.53888 0.0
C573 C 0.00813 0.94583 0.51562 0.0
C574 C 0.97526 0.95185 0.51339 0.0
C575 C 0.96821 0.96491 0.48211 0.0
C576 C 0.9541 0.92333 0.52067 0.0
C577 C 0.97408 0.97492 0.538 0.0
C578 C 0.00146 0.9798 0.5529 0.0
C579 C 0.00664 0.00188 0.57477 0.0
C580 C 0.98325 0.01948 0.58156 0.0
C581 C 0.95517 0.01516 0.5662 0.0
C582 C 0.95051 0.99232 0.54443 0.0
H583 H 0.28058 0.74171 0.67878 0.0
H584 H 0.36013 0.75215 0.73587 0.0
H585 H 0.33026 0.72886 0.77847 0.0
H586 H 0.23409 0.76634 0.72662 0.0
H587 H 0.20059 0.74133 0.71885 0.0
H588 H 0.22921 0.74853 0.69022 0.0
H589 H 0.23454 0.69166 0.68583 0.0
H590 H 0.20528 0.68405 0.71417 0.0
H591 H 0.24166 0.67018 0.71927 0.0
H592 H 0.29045 0.71812 0.81723 0.0
H593 H 0.24373 0.71813 0.8482 0.0
H594 H 0.19014 0.71493 0.76628 0.0
C595 C 0.29198 0.73772 0.69983 0.0
C596 C 0.32246 0.74882 0.70417 0.0
C597 C 0.33664 0.7439 0.73217 0.0
C598 C 0.31992 0.73045 0.75645 0.0
C599 C 0.28925 0.72172 0.75217 0.0
C600 C 0.27549 0.72457 0.72432 0.0
C601 C 0.24144 0.71854 0.72686 0.0
C602 C 0.22544 0.74529 0.71496 0.0
C603 C 0.23007 0.68937 0.71057 0.0
C604 C 0.23815 0.71487 0.76075 0.0
C605 C 0.26591 0.71568 0.77492 0.0
C606 C 0.26852 0.71647 0.8064 0.0
C607 C 0.24204 0.71674 0.82378 0.0
C608 C 0.21366 0.71666 0.80949 0.0
C609 C 0.21169 0.71501 0.77771 0.0
H610 H 0.42053 0.01571 0.95774 0.0
H611 H 0.48867 0.04864 0.89122 0.0
H612 H 0.52596 0.01997 0.91667 0.0
H613 H 0.46792 0.02286 0.0197 0.0
H614 H 0.45136 0.98967 0.03931 0.0
H615 H 0.42879 0.0092 0.01359 0.0
H616 H 0.41596 0.96029 0.98315 0.0
H617 H 0.43836 0.9405 0.00897 0.0
H618 H 0.44626 0.9403 0.96889 0.0
H619 H 0.55695 0.9928 0.95211 0.0
H620 H 0.57968 0.96785 0.99504 0.0
H621 H 0.49124 0.95274 0.03839 0.0
C622 C 0.44308 0.01632 0.94808 0.0
C623 C 0.45173 0.03428 0.92251 0.0
C624 C 0.4816 0.03498 0.91085 0.0
C625 C 0.50289 0.0187 0.92503 0.0
C626 C 0.49382 0.00182 0.95068 0.0
C627 C 0.46461 0.00036 0.96202 0.0
C628 C 0.46137 0.98269 0.99135 0.0
C629 C 0.45181 0.00228 0.01752 0.0
C630 C 0.43917 0.95425 0.98786 0.0
C631 C 0.49352 0.97506 0.99508 0.0
C632 C 0.51181 0.98608 0.97126 0.0
C633 C 0.54281 0.98363 0.97068 0.0
C634 C 0.5555 0.96959 0.99523 0.0
C635 C 0.53714 0.95831 0.01994 0.0
C636 C 0.50573 0.9608 0.01961 0.0
H637 H 0.32108 0.25788 0.26507 0.0
H638 H 0.26306 0.22692 0.34063 0.0
H639 H 0.2446 0.18152 0.31134 0.0
H640 H 0.26736 0.24153 0.21179 0.0
H641 H 0.29357 0.23233 0.18282 0.0
H642 H 0.30628 0.25769 0.21235 0.0
H643 H 0.34843 0.22366 0.22575 0.0
H644 H 0.33526 0.19778 0.19648 0.0
H645 H 0.33831 0.1846 0.23492 0.0
H646 H 0.22939 0.1419 0.27098 0.0
H647 H 0.211 0.11991 0.22223 0.0
H648 H 0.27709 0.18063 0.17407 0.0
C649 C 0.30517 0.24116 0.27597 0.0
C650 C 0.29383 0.24558 0.30526 0.0
C651 C 0.27215 0.22375 0.31822 0.0
C652 C 0.26188 0.1978 0.30189 0.0
C653 C 0.27353 0.1943 0.27278 0.0
C654 C 0.29444 0.21578 0.25994 0.0
C655 C 0.29958 0.21031 0.22678 0.0
C656 C 0.29117 0.23701 0.20732 0.0
C657 C 0.33235 0.20368 0.22064 0.0
C658 C 0.2776 0.18277 0.22244 0.0
C659 C 0.26342 0.17312 0.24929 0.0
C660 C 0.24026 0.14952 0.24991 0.0
C661 C 0.22973 0.13739 0.22217 0.0
C662 C 0.24127 0.15015 0.19454 0.0
C663 C 0.26726 0.17103 0.19491 0.0
H664 H 0.47429 0.51375 0.07076 0.0
H665 H 0.38421 0.47427 0.04662 0.0
H666 H 0.4067 0.43807 0.01398 0.0
H667 H 0.50364 0.51503 0.00122 0.0
H668 H 0.54107 0.50599 0.01101 0.0
H669 H 0.51877 0.52359 0.03834 0.0
H670 H 0.52405 0.48017 0.0765 0.0
H671 H 0.54674 0.46246 0.04929 0.0
H672 H 0.51329 0.44194 0.06534 0.0
H673 H 0.43733 0.41384 0.97725 0.0
H674 H 0.47448 0.40242 0.93865 0.0
H675 H 0.54503 0.45759 0.98616 0.0
C676 C 0.45933 0.49684 0.05938 0.0
C677 C 0.4276 0.49677 0.06108 0.0
C678 C 0.40865 0.47472 0.04549 0.0
C679 C 0.42119 0.45389 0.02716 0.0
C680 C 0.45261 0.45531 0.02501 0.0
C681 C 0.47149 0.47603 0.0409 0.0
C682 C 0.5042 0.47578 0.03129 0.0
C683 C 0.51767 0.50693 0.01977 0.0
C684 C 0.52319 0.4644 0.05715 0.0
C685 C 0.50043 0.4533 0.00596 0.0
C686 C 0.47062 0.44116 0.0033 0.0
C687 C 0.46088 0.42253 0.9795 0.0
C688 C 0.48208 0.41648 0.95754 0.0
C689 C 0.51255 0.42927 0.9595 0.0
C690 C 0.52195 0.44724 0.9844 0.0
H691 H 0.81487 0.29323 0.19113 0.0
H692 H 0.7484 0.29531 0.11973 0.0
H693 H 0.70833 0.27312 0.15522 0.0
H694 H 0.78615 0.2222 0.22201 0.0
H695 H 0.79508 0.23288 0.26046 0.0
H696 H 0.81735 0.25013 0.22967 0.0
H697 H 0.80628 0.30262 0.24871 0.0
H698 H 0.78346 0.28545 0.27926 0.0
H699 H 0.76757 0.31077 0.2533 0.0
H700 H 0.67616 0.25291 0.19908 0.0
H701 H 0.65492 0.2265 0.24464 0.0
H702 H 0.74402 0.23445 0.28582 0.0
C703 C 0.79183 0.28888 0.18301 0.0
C704 C 0.78428 0.29592 0.15307 0.0
C705 C 0.75426 0.28978 0.14274 0.0
C706 C 0.73151 0.27759 0.16275 0.0
C707 C 0.73964 0.27157 0.19253 0.0
C708 C 0.7692 0.27638 0.20237 0.0
C709 C 0.77255 0.2662 0.23474 0.0
C710 C 0.79404 0.24137 0.23682 0.0
C711 C 0.78309 0.29285 0.2552 0.0
C712 C 0.74021 0.25429 0.24157 0.0
C713 C 0.72146 0.25844 0.21725 0.0
C714 C 0.69059 0.24942 0.21821 0.0
C715 C 0.67876 0.23466 0.24428 0.0
C716 C 0.69799 0.22846 0.26862 0.0
C717 C 0.72894 0.23897 0.2675 0.0
H718 H 0.01799 0.45918 0.52083 0.0
H719 H 0.09421 0.5269 0.53313 0.0
H720 H 0.07137 0.56029 0.49699 0.0
H721 H 0.0067 0.47394 0.4398 0.0
H722 H 0.96605 0.46741 0.44329 0.0
H723 H 0.98986 0.44786 0.46789 0.0
H724 H 0.96316 0.46797 0.51479 0.0
H725 H 0.93934 0.48756 0.4904 0.0
H726 H 0.96192 0.50786 0.51881 0.0
H727 H 0.03773 0.58803 0.46426 0.0
H728 H 0.99625 0.60775 0.43568 0.0
H729 H 0.94316 0.52102 0.44368 0.0
C730 C 0.03011 0.48088 0.51566 0.0
C731 C 0.0578 0.49053 0.52977 0.0
C732 C 0.07296 0.51907 0.52245 0.0
C733 C 0.06023 0.53814 0.50194 0.0
C734 C 0.03264 0.52807 0.48877 0.0
C735 C 0.0179 0.50001 0.49513 0.0
C736 C 0.98776 0.49513 0.47924 0.0
C737 C 0.9876 0.46957 0.45618 0.0
C738 C 0.96151 0.48931 0.50218 0.0
C739 C 0.98741 0.5252 0.46365 0.0
C740 C 0.01355 0.54384 0.46928 0.0
C741 C 0.01738 0.57352 0.45921 0.0
C742 C 0.99368 0.58452 0.44316 0.0
C743 C 0.96668 0.56578 0.43736 0.0
C744 C 0.96379 0.53565 0.44732 0.0
H745 H 0.74815 0.66508 0.26398 0.0
H746 H 0.76188 0.70822 0.351 0.0
H747 H 0.7258 0.74459 0.33705 0.0
H748 H 0.75209 0.73021 0.22357 0.0
H749 H 0.72449 0.71779 0.19535 0.0
H750 H 0.74527 0.69092 0.21446 0.0
H751 H 0.69505 0.66082 0.23192 0.0
H752 H 0.674 0.68739 0.21239 0.0
H753 H 0.66717 0.67968 0.2521 0.0
H754 H 0.69293 0.77928 0.31151 0.0
H755 H 0.66786 0.8112 0.27527 0.0
H756 H 0.68023 0.74761 0.20381 0.0
C757 C 0.74254 0.68147 0.28047 0.0
C758 C 0.75708 0.68377 0.30865 0.0
C759 C 0.75047 0.70614 0.32937 0.0
C760 C 0.72999 0.72672 0.32171 0.0
C761 C 0.71679 0.72464 0.29317 0.0
C762 C 0.72284 0.7026 0.27284 0.0
C763 C 0.70952 0.70786 0.24211 0.0
C764 C 0.73432 0.71195 0.21745 0.0
C765 C 0.68497 0.68243 0.23418 0.0
C766 C 0.69593 0.7368 0.24804 0.0
C767 C 0.6996 0.74575 0.27778 0.0
C768 C 0.68965 0.77238 0.28822 0.0
C769 C 0.67562 0.79037 0.26758 0.0
C770 C 0.67258 0.78184 0.2369 0.0
C771 C 0.68266 0.7547 0.22715 0.0
H772 H 0.77239 0.18226 0.66811 0.0
H773 H 0.7981 0.12793 0.74338 0.0
H774 H 0.77341 0.16018 0.77878 0.0
H775 H 0.79817 0.24398 0.69709 0.0
H776 H 0.77079 0.26832 0.68435 0.0
H777 H 0.7764 0.23525 0.66333 0.0
H778 H 0.71978 0.2153 0.66828 0.0
H779 H 0.71328 0.24926 0.68786 0.0
H780 H 0.7018 0.21321 0.70504 0.0
H781 H 0.76004 0.20477 0.80599 0.0
H782 H 0.75399 0.25632 0.82309 0.0
H783 H 0.74429 0.28496 0.73007 0.0
C784 C 0.77085 0.1759 0.69183 0.0
C785 C 0.78678 0.1526 0.70316 0.0
C786 C 0.78556 0.14552 0.7344 0.0
C787 C 0.77172 0.16385 0.75462 0.0
C788 C 0.75951 0.18903 0.74306 0.0
C789 C 0.7584 0.19481 0.71224 0.0
C790 C 0.7508 0.22645 0.70581 0.0
C791 C 0.77552 0.24452 0.68653 0.0
C792 C 0.71955 0.22602 0.69088 0.0
C793 C 0.75018 0.23826 0.73764 0.0
C794 C 0.75418 0.21608 0.75882 0.0
C795 C 0.7563 0.22213 0.78965 0.0
C796 C 0.7534 0.25142 0.7991 0.0
C797 C 0.7495 0.27426 0.77765 0.0
C798 C 0.74795 0.26774 0.74664 0.0
H799 H 0.81979 0.79708 0.74626 0.0
H800 H 0.7822 0.76091 0.83127 0.0
H801 H 0.76146 0.71466 0.80508 0.0
H802 H 0.75713 0.77615 0.7047 0.0
H803 H 0.77712 0.76823 0.6705 0.0
H804 H 0.7945 0.79458 0.69711 0.0
H805 H 0.84082 0.76361 0.7001 0.0
H806 H 0.82302 0.73674 0.67384 0.0
H807 H 0.83519 0.72437 0.71032 0.0
H808 H 0.74038 0.67576 0.76941 0.0
H809 H 0.71116 0.65279 0.72688 0.0
H810 H 0.76014 0.71587 0.66469 0.0
C811 C 0.80772 0.77908 0.7594 0.0
C812 C 0.80264 0.78217 0.79063 0.0
C813 C 0.78612 0.75876 0.80719 0.0
C814 C 0.77481 0.73231 0.79263 0.0
C815 C 0.78021 0.7299 0.76163 0.0
C816 C 0.79585 0.75294 0.74514 0.0
C817 C 0.79387 0.74741 0.71151 0.0
C818 C 0.77979 0.77309 0.69502 0.0
C819 C 0.82509 0.74275 0.69817 0.0
C820 C 0.77307 0.71855 0.71151 0.0
C821 C 0.76664 0.70805 0.74064 0.0
C822 C 0.74558 0.68342 0.74649 0.0
C823 C 0.72917 0.67045 0.72215 0.0
C824 C 0.73344 0.68285 0.69266 0.0
C825 C 0.75677 0.70597 0.68707 0.0
H826 H 0.46754 0.47171 0.44217 0.0
H827 H 0.40032 0.43244 0.50628 0.0
H828 H 0.41521 0.47283 0.54247 0.0
H829 H 0.52292 0.48292 0.4918 0.0
H830 H 0.54086 0.51795 0.47686 0.0
H831 H 0.51885 0.4926 0.45241 0.0
H832 H 0.48546 0.53474 0.43793 0.0
H833 H 0.50751 0.56033 0.46257 0.0
H834 H 0.46696 0.55405 0.46726 0.0
H835 H 0.44279 0.50986 0.57467 0.0
H836 H 0.48472 0.53699 0.60279 0.0
H837 H 0.53664 0.55054 0.51941 0.0
C838 C 0.45542 0.47242 0.46347 0.0
C839 C 0.43294 0.4494 0.47173 0.0
C840 C 0.41782 0.45007 0.4999 0.0
C841 C 0.42575 0.47313 0.5203 0.0
C842 C 0.4489 0.49511 0.51211 0.0
C843 C 0.46366 0.49491 0.48439 0.0
C844 C 0.49168 0.51712 0.4836 0.0
C845 C 0.52024 0.5017 0.47574 0.0
C846 C 0.48764 0.54311 0.46153 0.0
C847 C 0.49186 0.52763 0.51602 0.0
C848 C 0.46616 0.51591 0.5316 0.0
C849 C 0.46271 0.51976 0.56264 0.0
C850 C 0.48668 0.53502 0.57844 0.0
C851 C 0.51386 0.54541 0.56314 0.0
C852 C 0.516 0.54268 0.53149 0.0
H853 H 0.98517 0.51909 0.92723 0.0
H854 H 0.96835 0.58897 0.99035 0.0
H855 H 0.9419 0.55161 0.02418 0.0
H856 H 0.91351 0.45937 0.96134 0.0
H857 H 0.93684 0.42972 0.95341 0.0
H858 H 0.93546 0.46035 0.92683 0.0
H859 H 0.99388 0.46939 0.9289 0.0
H860 H 0.99541 0.43998 0.95615 0.0
H861 H 0.01218 0.47731 0.96483 0.0
H862 H 0.9495 0.51308 0.0593 0.0
H863 H 0.97156 0.47325 0.08752 0.0
H864 H 0.9797 0.42346 0.00489 0.0
C865 C 0.97402 0.52648 0.94726 0.0
C866 C 0.97991 0.55639 0.95706 0.0
C867 C 0.96485 0.56588 0.98292 0.0
C868 C 0.94951 0.5447 0.00224 0.0
C869 C 0.94907 0.51443 0.99492 0.0
C870 C 0.95898 0.5052 0.96693 0.0
C871 C 0.96236 0.47176 0.96728 0.0
C872 C 0.93543 0.45429 0.95128 0.0
C873 C 0.99278 0.46426 0.95355 0.0
C874 C 0.96057 0.46585 0.00097 0.0
C875 C 0.95133 0.49027 0.01634 0.0
C876 C 0.95492 0.49317 0.04758 0.0
C877 C 0.96808 0.47082 0.06338 0.0
C878 C 0.97694 0.44558 0.04804 0.0
C879 C 0.97246 0.44258 0.01676 0.0
H880 H 0.07804 0.03201 0.18061 0.0
H881 H 0.16623 0.0807 0.16506 0.0
H882 H 0.18886 0.04773 0.20203 0.0
H883 H 0.08225 0.01286 0.25828 0.0
H884 H 0.06482 0.97521 0.25419 0.0
H885 H 0.05623 0.00402 0.22776 0.0
H886 H 0.07292 0.97046 0.18413 0.0
H887 H 0.08248 0.94264 0.21119 0.0
H888 H 0.11053 0.95858 0.1844 0.0
H889 H 0.20128 0.01105 0.24117 0.0
H890 H 0.20382 0.97228 0.28049 0.0
H891 H 0.10836 0.9431 0.26789 0.0
C892 C 0.10206 0.03572 0.18531 0.0
C893 C 0.12047 0.05942 0.17102 0.0
C894 C 0.15191 0.06311 0.17652 0.0
C895 C 0.16486 0.0444 0.19727 0.0
C896 C 0.14615 0.02129 0.21118 0.0
C897 C 0.11556 0.01638 0.20503 0.0
C898 C 0.10115 0.98856 0.2216 0.0
C899 C 0.07446 0.9956 0.24161 0.0
C900 C 0.09119 0.96358 0.19898 0.0
C901 C 0.12778 0.98047 0.24031 0.0
C902 C 0.15363 0.9992 0.23317 0.0
C903 C 0.18121 0.99628 0.24702 0.0
C904 C 0.18229 0.97439 0.26962 0.0
C905 C 0.15612 0.95508 0.27773 0.0
C906 C 0.12859 0.95785 0.26247 0.0
H907 H 0.37394 0.93435 0.4858 0.0
H908 H 0.35395 0.8447 0.52365 0.0
H909 H 0.31288 0.83445 0.48631 0.0
H910 H 0.29968 0.95047 0.47518 0.0
H911 H 0.30688 0.97035 0.43993 0.0
H912 H 0.33683 0.96903 0.46707 0.0
H913 H 0.37014 0.94733 0.42584 0.0
H914 H 0.33991 0.94857 0.3989 0.0
H915 H 0.35586 0.91378 0.4061 0.0
H916 H 0.27181 0.83531 0.44731 0.0
H917 H 0.23348 0.84727 0.40982 0.0
H918 H 0.27926 0.93699 0.39901 0.0
C919 C 0.36126 0.91236 0.48597 0.0
C920 C 0.36726 0.89022 0.50752 0.0
C921 C 0.34982 0.86193 0.50727 0.0
C922 C 0.32651 0.85589 0.48613 0.0
C923 C 0.32085 0.87842 0.46557 0.0
C924 C 0.33778 0.90609 0.46529 0.0
C925 C 0.32593 0.92714 0.44219 0.0
C926 C 0.31679 0.9559 0.45702 0.0
C927 C 0.34936 0.93463 0.41675 0.0
C928 C 0.29862 0.90757 0.43073 0.0
C929 C 0.29645 0.87937 0.44403 0.0
C930 C 0.2731 0.8574 0.43699 0.0
C931 C 0.25125 0.86451 0.41601 0.0
C932 C 0.25293 0.89331 0.40233 0.0
C933 C 0.27713 0.91496 0.40959 0.0
H934 H 0.33428 0.03949 0.77898 0.0
H935 H 0.383 0.1186 0.73761 0.0
H936 H 0.40286 0.09145 0.69524 0.0
H937 H 0.39685 0.94899 0.80377 0.0
H938 H 0.39821 0.92177 0.77704 0.0
H939 H 0.36683 0.92348 0.79808 0.0
H940 H 0.30337 0.97634 0.7454 0.0
H941 H 0.31459 0.96074 0.71003 0.0
H942 H 0.31308 0.99964 0.71473 0.0
H943 H 0.41641 0.04487 0.64454 0.0
H944 H 0.42101 0.00101 0.61278 0.0
H945 H 0.3648 0.93862 0.66971 0.0
C946 C 0.35118 0.04915 0.76305 0.0
C947 C 0.35919 0.0805 0.76133 0.0
C948 C 0.3785 0.09437 0.73789 0.0
C949 C 0.39063 0.07913 0.71342 0.0
C950 C 0.38621 0.04828 0.71287 0.0
C951 C 0.36528 0.03047 0.74419 0.0
C952 C 0.35556 0.98244 0.73491 0.0
C953 C 0.38306 0.93923 0.78415 0.0
C954 C 0.31973 0.97928 0.72635 0.0
C955 C 0.37718 0.98143 0.68972 0.0
C956 C 0.39328 0.019 0.68002 0.0
C957 C 0.40641 0.02294 0.65187 0.0
C958 C 0.40807 0.99744 0.6336 0.0
C959 C 0.39524 0.96756 0.64114 0.0
C960 C 0.37715 0.96052 0.66708 0.0
H961 H 0.23239 0.05485 0.89855 0.0
H962 H 0.2263 0.14538 0.86536 0.0
H963 H 0.18687 0.15227 0.90337 0.0
H964 H 0.14573 0.04403 0.91651 0.0
H965 H 0.15108 0.01978 0.94835 0.0
H966 H 0.17566 0.01968 0.91568 0.0
H967 H 0.22297 0.03163 0.94975 0.0
H968 H 0.19772 0.03003 0.98183 0.0
H969 H 0.2239 0.0627 0.97547 0.0
H970 H 0.15997 0.15455 0.95165 0.0
H971 H 0.1351 0.14774 0.00157 0.0
H972 H 0.15153 0.05389 0.00219 0.0
C973 C 0.22226 0.07583 0.89922 0.0
C974 C 0.23273 0.1 0.87976 0.0
C975 C 0.21876 0.12691 0.88051 0.0
C976 C 0.19627 0.13096 0.90188 0.0
C977 C 0.18765 0.10763 0.92206 0.0
C978 C 0.19911 0.08009 0.92029 0.0
C979 C 0.18489 0.05888 0.94479 0.0
C980 C 0.16305 0.03413 0.93048 0.0
C981 C 0.20884 0.04508 0.96404 0.0
C982 C 0.1674 0.08029 0.96291 0.0
C983 C 0.16889 0.10809 0.94883 0.0
C984 C 0.15752 0.13262 0.96238 0.0
C985 C 0.14377 0.12864 0.99088 0.0
C986 C 0.14111 0.10028 0.00545 0.0
C987 C 0.15277 0.07566 0.99114 0.0
H988 H 0.17257 0.1057 0.28077 0.0
H989 H 0.08461 0.0979 0.23747 0.0
H990 H 0.0655 0.05966 0.27513 0.0
H991 H 0.17842 0.03345 0.29244 0.0
H992 H 0.1945 0.03369 0.32976 0.0
H993 H 0.20054 0.0665 0.30576 0.0
H994 H 0.17759 0.09964 0.34495 0.0
H995 H 0.17291 0.06792 0.37057 0.0
H996 H 0.14091 0.08795 0.36125 0.0
H997 H 0.0587 0.01638 0.30994 0.0
H998 H 0.06227 0.97341 0.34373 0.0
H999 H 0.15505 0.00681 0.36556 0.0
C1000 C 0.14906 0.09648 0.27989 0.0
C1001 C 0.12991 0.1048 0.2564 0.0
C1002 C 0.09954 0.09185 0.25534 0.0
C1003 C 0.08852 0.07014 0.27666 0.0
C1004 C 0.10835 0.06112 0.29851 0.0
C1005 C 0.1378 0.07425 0.3008 0.0
C1006 C 0.15481 0.05874 0.32521 0.0
C1007 C 0.18383 0.04741 0.31257 0.0
C1008 C 0.16196 0.07982 0.35209 0.0
C1009 C 0.13123 0.03304 0.33397 0.0
C1010 C 0.10436 0.0356 0.31892 0.0
C1011 C 0.07947 0.01433 0.32218 0.0
C1012 C 0.08188 0.98979 0.34138 0.0
C1013 C 0.10898 0.98653 0.35748 0.0
C1014 C 0.13403 0.00858 0.35365 0.0
H1015 H 0.29273 0.86588 0.57345 0.0
H1016 H 0.28701 0.77533 0.53798 0.0
H1017 H 0.24867 0.7882 0.50125 0.0
H1018 H 0.21138 0.87295 0.56548 0.0
H1019 H 0.21708 0.9123 0.55582 0.0
H1020 H 0.2437 0.89598 0.58004 0.0
H1021 H 0.28474 0.90548 0.50421 0.0
H1022 H 0.28778 0.91485 0.54365 0.0
H1023 H 0.26105 0.93168 0.51999 0.0
H1024 H 0.20964 0.81016 0.46927 0.0
H1025 H 0.17594 0.84123 0.44133 0.0
H1026 H 0.20839 0.91817 0.4956 0.0
C1027 C 0.28351 0.84881 0.55788 0.0
C1028 C 0.293 0.81956 0.55866 0.0
C1029 C 0.28016 0.79786 0.53795 0.0
C1030 C 0.25824 0.80491 0.51701 0.0
C1031 C 0.24922 0.83378 0.51699 0.0
C1032 C 0.26147 0.85546 0.53678 0.0
C1033 C 0.24751 0.88471 0.53207 0.0
C1034 C 0.22881 0.8919 0.56001 0.0
C1035 C 0.27173 0.91073 0.52455 0.0
C1036 C 0.22708 0.87661 0.50524 0.0
C1037 C 0.22755 0.8468 0.49768 0.0
C1038 C 0.20923 0.83361 0.47484 0.0
C1039 C 0.19025 0.85146 0.45899 0.0
C1040 C 0.19 0.8823 0.46572 0.0
C1041 C 0.20866 0.89488 0.48928 0.0
H1042 H 0.3985 0.02131 0.80907 0.0
H1043 H 0.30834 0.99132 0.84355 0.0
H1044 H 0.29899 0.95132 0.80575 0.0
H1045 H 0.35797 0.01371 0.70552 0.0
H1046 H 0.42447 0.99911 0.71439 0.0
H1047 H 0.41761 0.02168 0.74289 0.0
H1048 H 0.44472 0.99294 0.77533 0.0
H1049 H 0.45074 0.97031 0.74268 0.0
H1050 H 0.43896 0.95312 0.77699 0.0
H1051 H 0.30408 0.90281 0.75462 0.0
H1052 H 0.32211 0.8681 0.71741 0.0
H1053 H 0.41119 0.91759 0.70737 0.0
C1054 C 0.37727 0.00719 0.80719 0.0
C1055 C 0.35301 0.00921 0.82765 0.0
C1056 C 0.32569 0.9892 0.82659 0.0
C1057 C 0.31961 0.96643 0.80471 0.0
C1058 C 0.34062 0.96384 0.78187 0.0
C1059 C 0.37322 0.98771 0.7833 0.0
C1060 C 0.40242 0.97632 0.75179 0.0
C1061 C 0.40462 0.00351 0.7292 0.0
C1062 C 0.43573 0.97274 0.76253 0.0
C1063 C 0.37899 0.93962 0.73322 0.0
C1064 C 0.34405 0.93371 0.75086 0.0
C1065 C 0.32604 0.90781 0.74396 0.0
C1066 C 0.33703 0.88801 0.72285 0.0
C1067 C 0.36681 0.89147 0.70986 0.0
C1068 C 0.38832 0.91617 0.71632 0.0
H1069 H 0.29895 0.1228 0.92612 0.0
H1070 H 0.3854 0.16388 0.95879 0.0
H1071 H 0.35887 0.19178 0.9968 0.0
H1072 H 0.25689 0.19325 0.94313 0.0
H1073 H 0.22327 0.16792 0.94979 0.0
H1074 H 0.25164 0.15885 0.92257 0.0
H1075 H 0.25173 0.10771 0.95311 0.0
H1076 H 0.22638 0.11983 0.98138 0.0
H1077 H 0.26292 0.10926 0.9923 0.0
H1078 H 0.32295 0.21121 0.03473 0.0
H1079 H 0.28161 0.21754 0.07093 0.0
H1080 H 0.21876 0.16227 0.01474 0.0
C1081 C 0.31229 0.13812 0.94084 0.0
C1082 C 0.34427 0.1411 0.93935 0.0
C1083 C 0.36086 0.16133 0.95922 0.0
C1084 C 0.34599 0.1774 0.98089 0.0
C1085 C 0.31445 0.17347 0.98215 0.0
C1086 C 0.29782 0.15462 0.96241 0.0
C1087 C 0.26433 0.15307 0.96966 0.0
C1088 C 0.24794 0.16916 0.94482 0.0
C1089 C 0.25052 0.12053 0.97441 0.0
C1090 C 0.26492 0.17084 0.99861 0.0
C1091 C 0.29387 0.18384 0.00453 0.0
C1092 C 0.30017 0.20134 0.03009 0.0
C1093 C 0.27645 0.20489 0.05047 0.0
C1094 C 0.24696 0.19035 0.04565 0.0
C1095 C 0.24105 0.17365 0.01899 0.0
H1096 H 0.93251 0.2805 0.07712 0.0
H1097 H 0.94647 0.33242 0.15951 0.0
H1098 H 0.98556 0.30076 0.17536 0.0
H1099 H 0.93968 0.21075 0.1115 0.0
H1100 H 0.95893 0.19534 0.08013 0.0
H1101 H 0.93378 0.22375 0.07346 0.0
H1102 H 0.97651 0.2557 0.04557 0.0
H1103 H 0.00316 0.22874 0.05291 0.0
H1104 H 0.01145 0.2672 0.06456 0.0
H1105 H 0.01736 0.25927 0.18637 0.0
H1106 H 0.04453 0.21358 0.18833 0.0
H1107 H 0.01418 0.19094 0.09758 0.0
C1108 C 0.94454 0.28593 0.09795 0.0
C1109 C 0.93642 0.3093 0.1168 0.0
C1110 C 0.9523 0.31498 0.14434 0.0
C1111 C 0.97467 0.29709 0.15366 0.0
C1112 C 0.98153 0.27384 0.13503 0.0
C1113 C 0.96731 0.26844 0.10753 0.0
C1114 C 0.97763 0.2407 0.09281 0.0
C1115 C 0.95092 0.2162 0.08928 0.0
C1116 C 0.99315 0.24854 0.06217 0.0
C1117 C -9e-05 0.23158 0.1163 0.0
C1118 C 0.00134 0.25068 0.14077 0.0
C1119 C 0.01742 0.2448 0.16688 0.0
C1120 C 0.03277 0.2189 0.16786 0.0
C1121 C 0.03241 0.1997 0.14267 0.0
C1122 C 0.01592 0.2062 0.11656 0.0
H1123 H 0.51861 0.30467 0.82555 0.0
H1124 H 0.52185 0.31673 0.93199 0.0
H1125 H 0.5014 0.26062 0.94884 0.0
H1126 H 0.4626 0.27594 0.81082 0.0
H1127 H 0.46801 0.24914 0.78151 0.0
H1128 H 0.49616 0.27937 0.78712 0.0
H1129 H 0.54308 0.24175 0.80786 0.0
H1130 H 0.51654 0.22589 0.78125 0.0
H1131 H 0.5228 0.20419 0.813 0.0
H1132 H 0.45313 0.20868 0.93931 0.0
H1133 H 0.40362 0.18833 0.90834 0.0
H1134 H 0.43862 0.21581 0.8094 0.0
C1135 C 0.51439 0.29348 0.84715 0.0
C1136 C 0.52145 0.31355 0.87836 0.0
C1137 C 0.51741 0.30052 0.91411 0.0
C1138 C 0.50602 0.26568 0.92517 0.0
C1139 C 0.49786 0.2399 0.89879 0.0
C1140 C 0.502 0.25581 0.84962 0.0
C1141 C 0.49634 0.2434 0.82165 0.0
C1142 C 0.47965 0.26323 0.79936 0.0
C1143 C 0.52122 0.2276 0.80589 0.0
C1144 C 0.47937 0.23046 0.84528 0.0
C1145 C 0.48399 0.22459 0.89624 0.0
C1146 C 0.45371 0.20915 0.91481 0.0
C1147 C 0.42282 0.19824 0.89531 0.0
C1148 C 0.4182 0.20114 0.85781 0.0
C1149 C 0.4441 0.21631 0.83321 0.0
H1150 H 0.98299 0.71056 0.40905 0.0
H1151 H 0.94698 0.68683 0.32028 0.0
H1152 H 0.98584 0.72335 0.29674 0.0
H1153 H 0.00672 0.78956 0.40011 0.0
H1154 H 0.04116 0.78654 0.42021 0.0
H1155 H 0.00852 0.76025 0.42809 0.0
H1156 H 0.04428 0.71831 0.41687 0.0
H1157 H 0.07488 0.74615 0.4064 0.0
H1158 H 0.06184 0.71722 0.38005 0.0
H1159 H 0.0268 0.76408 0.28295 0.0
H1160 H 0.06845 0.80505 0.27973 0.0
H1161 H 0.07883 0.80162 0.37731 0.0
C1162 C 0.98291 0.71346 0.38469 0.0
C1163 C 0.96126 0.69653 0.36653 0.0
C1164 C 0.96287 0.69998 0.33467 0.0
C1165 C 0.98493 0.7206 0.3211 0.0
C1166 C 0.0055 0.73732 0.33965 0.0
C1167 C 0.00505 0.73369 0.37075 0.0
C1168 C 0.03147 0.75264 0.38517 0.0
C1169 C 0.02127 0.77342 0.40987 0.0
C1170 C 0.05448 0.73237 0.39786 0.0
C1171 C 0.0444 0.77017 0.35775 0.0
C1172 C 0.02988 0.76008 0.33159 0.0
C1173 C 0.03836 0.77214 0.30328 0.0
C1174 C 0.06193 0.79551 0.3017 0.0
C1175 C 0.07647 0.80692 0.32832 0.0
C1176 C 0.06768 0.79383 0.35666 0.0
H1177 H 0.05247 0.34465 0.10558 0.0
H1178 H 0.02836 0.35187 0.20021 0.0
H1179 H 0.05833 0.30961 0.21276 0.0
H1180 H 0.05367 0.26463 0.1008 0.0
H1181 H 0.08659 0.26728 0.07673 0.0
H1182 H 0.06174 0.29669 0.07604 0.0
H1183 H 0.10828 0.33501 0.08767 0.0
H1184 H 0.13244 0.30506 0.08943 0.0
H1185 H 0.1303 0.32984 0.12116 0.0
H1186 H 0.08879 0.26582 0.21439 0.0
H1187 H 0.12101 0.2251 0.20641 0.0
H1188 H 0.12883 0.24839 0.11076 0.0
C1189 C 0.05346 0.33706 0.12887 0.0
C1190 C 0.03798 0.35088 0.15203 0.0
C1191 C 0.04006 0.34119 0.18234 0.0
C1192 C 0.05699 0.31734 0.18958 0.0
C1193 C 0.07213 0.30412 0.16624 0.0
C1194 C 0.07087 0.31382 0.13655 0.0
C1195 C 0.09063 0.2968 0.1161 0.0
C1196 C 0.07202 0.2804 0.09091 0.0
C1197 C 0.11698 0.31794 0.10282 0.0
C1198 C 0.10191 0.27493 0.13868 0.0
C1199 C 0.09108 0.27975 0.16746 0.0
C1200 C 0.09771 0.26205 0.19204 0.0
C1201 C 0.11593 0.23882 0.18716 0.0
C1202 C 0.12762 0.23352 0.15792 0.0
C1203 C 0.12048 0.25196 0.13339 0.0
H1204 H 0.60811 0.76095 0.60993 0.0
H1205 H 0.5808 0.71342 0.69341 0.0
H1206 H 0.54233 0.7479 0.7021 0.0
H1207 H 0.59013 0.83658 0.64415 0.0
H1208 H 0.58017 0.85017 0.60738 0.0
H1209 H 0.60932 0.82509 0.61082 0.0
H1210 H 0.58113 0.79228 0.57219 0.0
H1211 H 0.54836 0.81286 0.57043 0.0
H1212 H 0.54458 0.77369 0.58079 0.0
H1213 H 0.50261 0.78381 0.69936 0.0
H1214 H 0.46692 0.8209 0.68638 0.0
H1215 H 0.51718 0.84348 0.60358 0.0
C1216 C 0.59391 0.75776 0.62994 0.0
C1217 C 0.59722 0.73406 0.65067 0.0
C1218 C 0.57857 0.73107 0.67691 0.0
C1219 C 0.55636 0.75046 0.68199 0.0
C1220 C 0.55271 0.77265 0.66055 0.0
C1221 C 0.57151 0.77706 0.63549 0.0
C1222 C 0.56307 0.80332 0.61651 0.0
C1223 C 0.58709 0.83039 0.61993 0.0
C1224 C 0.55894 0.79509 0.583 0.0
C1225 C 0.53374 0.80943 0.63211 0.0
C1226 C 0.52936 0.79286 0.65858 0.0
C1227 C 0.50542 0.79646 0.6784 0.0
C1228 C 0.48527 0.81747 0.67092 0.0
C1229 C 0.48884 0.83396 0.64357 0.0
C1230 C 0.5134 0.83003 0.624 0.0
H1231 H 0.89342 0.74924 0.37148 0.0
H1232 H 0.91863 0.73579 0.27801 0.0
H1233 H 0.95728 0.77955 0.28077 0.0
H1234 H 0.90666 0.83587 0.36333 0.0
H1235 H 0.91794 0.839 0.40243 0.0
H1236 H 0.88958 0.80955 0.39103 0.0
H1237 H 0.92062 0.77267 0.4165 0.0
H1238 H 0.95275 0.79906 0.42488 0.0
H1239 H 0.95716 0.7665 0.40202 0.0
H1240 H 0.99767 0.81933 0.29602 0.0
H1241 H 0.03559 0.85458 0.32198 0.0
H1242 H 0.98135 0.84599 0.40398 0.0
C1243 C 0.90674 0.75597 0.3515 0.0
C1244 C 0.90356 0.7391 0.32469 0.0
C1245 C 0.92088 0.74858 0.29874 0.0
C1246 C 0.94273 0.77344 0.30005 0.0
C1247 C 0.94597 0.78919 0.3271 0.0
C1248 C 0.92769 0.78154 0.35201 0.0
C1249 C 0.93603 0.80211 0.37838 0.0
C1250 C 0.91107 0.82286 0.38412 0.0
C1251 C 0.94211 0.78409 0.40714 0.0
C1252 C 0.9643 0.81989 0.36566 0.0
C1253 C 0.96898 0.81275 0.33571 0.0
C1254 C 0.99419 0.82529 0.31938 0.0
C1255 C 0.01564 0.84505 0.33426 0.0
C1256 C 0.0114 0.85235 0.36488 0.0
C1257 C 0.98496 0.84048 0.38049 0.0
H1258 H 0.52067 0.17198 0.86294 0.0
H1259 H 0.42341 0.25123 0.87958 0.0
H1260 H 0.46783 0.29992 0.88758 0.0
H1261 H 0.5747 0.21454 0.91923 0.0
H1262 H 0.60681 0.20302 0.89902 0.0
H1263 H 0.57074 0.18059 0.89732 0.0
H1264 H 0.56791 0.18535 0.83674 0.0
H1265 H 0.60642 0.19961 0.8434 0.0
H1266 H 0.58337 0.22112 0.82102 0.0
H1267 H 0.57324 0.31493 0.91324 0.0
H1268 H 0.62382 0.33367 0.8962 0.0
H1269 H 0.63161 0.25014 0.85036 0.0
C1270 C 0.51099 0.19291 0.86629 0.0
C1271 C 0.46881 0.18788 0.8681 0.0
C1272 C 0.44678 0.24581 0.8772 0.0
C1273 C 0.4765 0.27835 0.88327 0.0
C1274 C 0.53822 0.26407 0.88191 0.0
C1275 C 0.53965 0.22488 0.87146 0.0
C1276 C 0.57343 0.22194 0.87001 0.0
C1277 C 0.58189 0.20397 0.89802 0.0
C1278 C 0.58304 0.20615 0.84109 0.0
C1279 C 0.58848 0.25443 0.87234 0.0
C1280 C 0.57051 0.27533 0.88458 0.0
C1281 C 0.5845 0.30167 0.89748 0.0
C1282 C 0.61422 0.31156 0.88928 0.0
C1283 C 0.62997 0.29436 0.86951 0.0
C1284 C 0.61829 0.26452 0.86332 0.0
H1285 H 0.89495 0.10628 0.7775 0.0
H1286 H 0.92571 0.05518 0.70238 0.0
H1287 H 0.92966 0.01194 0.73685 0.0
H1288 H 0.94099 0.07342 0.83675 0.0
H1289 H 0.91126 0.07383 0.86467 0.0
H1290 H 0.91502 0.10182 0.83498 0.0
H1291 H 0.85947 0.08721 0.82048 0.0
H1292 H 0.85526 0.05804 0.84891 0.0
H1293 H 0.84726 0.04924 0.80986 0.0
H1294 H 0.92669 0.97276 0.77893 0.0
H1295 H 0.91827 0.94176 0.82544 0.0
H1296 H 0.88607 0.01758 0.87181 0.0
C1297 C 0.90323 0.08623 0.76841 0.0
C1298 C 0.91056 0.08431 0.73733 0.0
C1299 C 0.92039 0.05733 0.72618 0.0
C1300 C 0.92245 0.03255 0.74552 0.0
C1301 C 0.91412 0.03486 0.77583 0.0
C1302 C 0.90485 0.0611 0.78724 0.0
C1303 C 0.89568 0.05735 0.82028 0.0
C1304 C 0.91702 0.07782 0.84035 0.0
C1305 C 0.86245 0.06327 0.82516 0.0
C1306 C 0.90019 0.02459 0.82538 0.0
C1307 C 0.91147 0.01216 0.79969 0.0
C1308 C 0.91796 0.98232 0.7992 0.0
C1309 C 0.91287 0.9648 0.82567 0.0
C1310 C 0.90101 0.977 0.85218 0.0
C1311 C 0.89471 0.00736 0.85185 0.0
H1312 H 0.65115 0.1407 0.49432 0.0
H1313 H 0.69565 0.18143 0.41442 0.0
H1314 H 0.74436 0.18762 0.44227 0.0
H1315 H 0.6975 0.1842 0.55256 0.0
H1316 H 0.69696 0.15156 0.57679 0.0
H1317 H 0.66542 0.15604 0.5522 0.0
H1318 H 0.6712 0.10407 0.53094 0.0
H1319 H 0.70484 0.09935 0.55237 0.0
H1320 H 0.70547 0.09723 0.51164 0.0
H1321 H 0.78778 0.19092 0.48102 0.0
H1322 H 0.82416 0.18101 0.52149 0.0
H1323 H 0.75143 0.13261 0.57309 0.0
C1324 C 0.67085 0.15213 0.48305 0.0
C1325 C 0.66951 0.16145 0.45249 0.0
C1326 C 0.69613 0.17475 0.438 0.0
C1327 C 0.72383 0.17834 0.45368 0.0
C1328 C 0.72447 0.16812 0.48364 0.0
C1329 C 0.69862 0.15516 0.49807 0.0
C1330 C 0.70568 0.14281 0.52898 0.0
C1331 C 0.6905 0.15967 0.55411 0.0
C1332 C 0.69627 0.10884 0.53114 0.0
C1333 C 0.73976 0.14991 0.5294 0.0
C1334 C 0.75006 0.16555 0.5036 0.0
C1335 C 0.78032 0.17711 0.50036 0.0
C1336 C 0.80076 0.17154 0.52346 0.0
C1337 C 0.79069 0.15488 0.54953 0.0
C1338 C 0.75983 0.14415 0.55261 0.0
H1339 H 0.65022 0.91171 0.24589 0.0
H1340 H 0.56133 0.92127 0.20819 0.0
H1341 H 0.55565 0.96983 0.23186 0.0
H1342 H 0.63391 0.94952 0.32768 0.0
H1343 H 0.67108 0.96489 0.3383 0.0
H1344 H 0.66589 0.93189 0.31459 0.0
H1345 H 0.70539 0.95816 0.28528 0.0
H1346 H 0.70585 0.9952 0.30105 0.0
H1347 H 0.70153 0.9889 0.26135 0.0
H1348 H 0.5588 0.02577 0.27522 0.0
H1349 H 0.56893 0.06197 0.3157 0.0
H1350 H 0.6574 0.03396 0.33855 0.0
C1351 C 0.63173 0.9254 0.24256 0.0
C1352 C 0.60643 0.91566 0.22435 0.0
C1353 C 0.5801 0.93142 0.22145 0.0
C1354 C 0.57648 0.95949 0.23454 0.0
C1355 C 0.60019 0.97363 0.25062 0.0
C1356 C 0.63198 0.95246 0.257 0.0
C1357 C 0.66013 0.9743 0.29082 0.0
C1358 C 0.65764 0.95396 0.31951 0.0
C1359 C 0.69491 0.97965 0.28395 0.0
C1360 C 0.63628 0.01241 0.30029 0.0
C1361 C 0.60271 0.01035 0.27729 0.0
C1362 C 0.58059 0.02775 0.28632 0.0
C1363 C 0.58681 0.04813 0.31023 0.0
C1364 C 0.61417 0.05146 0.32767 0.0
C1365 C 0.63814 0.03291 0.32352 0.0
H1366 H 0.828 0.8458 0.00122 0.0
H1367 H 0.81273 0.93758 0.97854 0.0
H1368 H 0.77468 0.93673 0.01956 0.0
H1369 H 0.74944 0.81258 0.02563 0.0
H1370 H 0.76886 0.79314 0.05351 0.0
H1371 H 0.78788 0.80429 0.0185 0.0
H1372 H 0.82905 0.8277 0.05941 0.0
H1373 H 0.8027 0.82138 0.09059 0.0
H1374 H 0.81932 0.85885 0.08181 0.0
H1375 H 0.73613 0.92584 0.06093 0.0
H1376 H 0.69933 0.90426 0.09947 0.0
H1377 H 0.73818 0.81936 0.09421 0.0
C1378 C 0.81583 0.86537 0.00399 0.0
C1379 C 0.82317 0.89161 0.98608 0.0
C1380 C 0.80733 0.91703 0.9914 0.0
C1381 C 0.78553 0.91678 0.01458 0.0
C1382 C 0.77901 0.89077 0.03181 0.0
C1383 C 0.79351 0.86538 0.02673 0.0
C1384 C 0.78386 0.84122 0.05025 0.0
C1385 C 0.77189 0.81113 0.03596 0.0
C1386 C 0.8103 0.83705 0.07178 0.0
C1387 C 0.75901 0.85572 0.06662 0.0
C1388 C 0.75769 0.88487 0.05671 0.0
C1389 C 0.73694 0.903 0.06885 0.0
C1390 C 0.71607 0.89054 0.0907 0.0
C1391 C 0.71536 0.85994 0.09928 0.0
C1392 C 0.73775 0.84267 0.08768 0.0
H1393 H 0.86599 0.99179 0.64963 0.0
H1394 H 0.83924 0.07129 0.6934 0.0
H1395 H 0.83423 0.04347 0.74241 0.0
H1396 H 0.81879 0.93564 0.69459 0.0
H1397 H 0.84769 0.91014 0.69523 0.0
H1398 H 0.84532 0.93536 0.66356 0.0
H1399 H 0.90136 0.95587 0.67154 0.0
H1400 H 0.90368 0.93096 0.70345 0.0
H1401 H 0.91317 0.9707 0.70782 0.0
H1402 H 0.82932 0.00468 0.78594 0.0
H1403 H 0.83308 0.96221 0.82172 0.0
H1404 H 0.87066 0.91161 0.75008 0.0
C1405 C 0.85815 0.00306 0.66936 0.0
C1406 C 0.85196 0.03333 0.66765 0.0
C1407 C 0.84326 0.04784 0.69419 0.0
C1408 C 0.84046 0.03224 0.72205 0.0
C1409 C 0.84718 0.00242 0.723 0.0
C1410 C 0.85623 0.98817 0.69734 0.0
C1411 C 0.86442 0.95689 0.70457 0.0
C1412 C 0.84276 0.93311 0.68854 0.0
C1413 C 0.89762 0.95345 0.69637 0.0
C1414 C 0.85927 0.9559 0.73847 0.0
C1415 C 0.84834 0.98192 0.74858 0.0
C1416 C 0.83891 0.98474 0.77852 0.0
C1417 C 0.84102 0.96053 0.79862 0.0
C1418 C 0.85324 0.93423 0.78885 0.0
C1419 C 0.86254 0.93204 0.75843 0.0
H1420 H 0.84423 0.09878 0.48125 0.0
H1421 H 0.77485 0.04988 0.53696 0.0
H1422 H 0.73607 0.06028 0.49961 0.0
H1423 H 0.80209 0.15721 0.44728 0.0
H1424 H 0.81955 0.15277 0.41122 0.0
H1425 H 0.83915 0.14416 0.44536 0.0
H1426 H 0.84354 0.09143 0.42073 0.0
H1427 H 0.82078 0.10074 0.38899 0.0
H1428 H 0.80932 0.06795 0.41179 0.0
H1429 H 0.70407 0.07935 0.45869 0.0
H1430 H 0.68193 0.09866 0.41243 0.0
H1431 H 0.77158 0.13188 0.37992 0.0
C1432 C 0.8207 0.09109 0.48583 0.0
C1433 C 0.81226 0.07424 0.51235 0.0
C1434 C 0.78158 0.06327 0.51705 0.0
C1435 C 0.75936 0.06935 0.49611 0.0
C1436 C 0.76817 0.08627 0.47036 0.0
C1437 C 0.79817 0.09641 0.46467 0.0
C1438 C 0.80177 0.11062 0.43324 0.0
C1439 C 0.81657 0.1431 0.43442 0.0
C1440 C 0.81992 0.09154 0.41247 0.0
C1441 C 0.76884 0.10914 0.42342 0.0
C1442 C 0.74996 0.09472 0.44514 0.0
C1443 C 0.71864 0.09076 0.44159 0.0
C1444 C 0.70619 0.10208 0.41532 0.0
C1445 C 0.7249 0.1172 0.39282 0.0
C1446 C 0.75672 0.12037 0.39676 0.0
H1447 H 0.63536 0.97681 0.1801 0.0
H1448 H 0.54563 0.99344 0.15006 0.0
H1449 H 0.54687 0.03747 0.18348 0.0
H1450 H 0.61744 0.9738 0.29014 0.0
H1451 H 0.66624 0.01872 0.2587 0.0
H1452 H 0.66134 0.99012 0.23537 0.0
H1453 H 0.67802 0.01784 0.19337 0.0
H1454 H 0.68608 0.04861 0.21898 0.0
H1455 H 0.6632 0.05305 0.18612 0.0
H1456 H 0.55815 0.08041 0.2201 0.0
H1457 H 0.57792 0.11693 0.25877 0.0
H1458 H 0.6599 0.07214 0.26515 0.0
C1459 C 0.61596 0.98965 0.18078 0.0
C1460 C 0.59043 0.98181 0.16244 0.0
C1461 C 0.56532 0.99895 0.16413 0.0
C1462 C 0.56579 0.02402 0.18302 0.0
C1463 C 0.59118 0.0312 0.2009 0.0
C1464 C 0.61529 0.01385 0.20088 0.0
C1465 C 0.63939 0.02612 0.22303 0.0
C1466 C 0.64664 0.0033 0.24992 0.0
C1467 C 0.66834 0.03701 0.20431 0.0
C1468 C 0.62583 0.05373 0.23416 0.0
C1469 C 0.59782 0.05613 0.22147 0.0
C1470 C 0.58025 0.07887 0.22989 0.0
C1471 C 0.59163 0.09944 0.25198 0.0
C1472 C 0.62045 0.09734 0.26515 0.0
C1473 C 0.63787 0.07448 0.25551 0.0
H1474 H 0.6715 0.93816 0.00442 0.0
H1475 H 0.66428 0.85408 0.05455 0.0
H1476 H 0.70072 0.8344 0.01901 0.0
H1477 H 0.6728 0.89658 0.93099 0.0
H1478 H 0.69516 0.92735 0.91246 0.0
H1479 H 0.66889 0.93463 0.94213 0.0
H1480 H 0.71214 0.96472 0.97087 0.0
H1481 H 0.73853 0.95724 0.94146 0.0
H1482 H 0.74576 0.94747 0.98001 0.0
H1483 H 0.74027 0.82531 0.97909 0.0
H1484 H 0.77747 0.82612 0.93734 0.0
H1485 H 0.75299 0.91312 0.90866 0.0
C1486 C 0.67791 0.91573 0.00813 0.0
C1487 C 0.66631 0.8981 0.03311 0.0
C1488 C 0.67368 0.86823 0.03611 0.0
C1489 C 0.69429 0.85688 0.016 0.0
C1490 C 0.70608 0.87522 0.99216 0.0
C1491 C 0.69728 0.9036 0.98748 0.0
C1492 C 0.71051 0.91737 0.95818 0.0
C1493 C 0.68535 0.91907 0.93455 0.0
C1494 C 0.72777 0.9485 0.96297 0.0
C1495 C 0.73132 0.89405 0.94931 0.0
C1496 C 0.7278 0.86955 0.96874 0.0
C1497 C 0.74403 0.84483 0.96467 0.0
C1498 C 0.76495 0.84538 0.94074 0.0
C1499 C 0.76838 0.8699 0.92032 0.0
C1500 C 0.75112 0.89438 0.92444 0.0
H1501 H 0.98102 0.84817 0.88705 0.0
H1502 H 0.96812 0.80745 0.97641 0.0
H1503 H 0.00863 0.77546 0.96598 0.0
H1504 H 0.98835 0.7947 0.84646 0.0
H1505 H 0.02186 0.80127 0.82293 0.0
H1506 H 0.00244 0.83204 0.83623 0.0
H1507 H 0.0436 0.85991 0.86557 0.0
H1508 H 0.06868 0.8357 0.84818 0.0
H1509 H 0.06851 0.84019 0.8887 0.0
H1510 H 0.04566 0.74399 0.94471 0.0
H1511 H 0.07663 0.7137 0.91309 0.0
H1512 H 0.06552 0.7729 0.83653 0.0
C1513 C 0.98704 0.83279 0.90452 0.0
C1514 C 0.971 0.82995 0.93233 0.0
C1515 C 0.97975 0.8098 0.95477 0.0
C1516 C 0.00293 0.79165 0.94918 0.0
C1517 C 0.01744 0.79407 0.92119 0.0
C1518 C 0.01056 0.81467 0.89948 0.0
C1519 C 0.02929 0.81183 0.87097 0.0
C1520 C 0.0094 0.80966 0.84246 0.0
C1521 C 0.05398 0.83848 0.86821 0.0
C1522 C 0.04366 0.7832 0.87842 0.0
C1523 C 0.03812 0.77476 0.90825 0.0
C1524 C 0.05 0.7501 0.92122 0.0
C1525 C 0.06746 0.73296 0.90307 0.0
C1526 C 0.07263 0.74035 0.87218 0.0
C1527 C 0.06102 0.76615 0.85985 0.0
H1528 H 0.47845 0.64451 0.16566 0.0
H1529 H 0.45613 0.65008 0.07052 0.0
H1530 H 0.49214 0.69596 0.06508 0.0
H1531 H 0.47805 0.71559 0.1819 0.0
H1532 H 0.49118 0.68607 0.20419 0.0
H1533 H 0.51091 0.72315 0.20594 0.0
H1534 H 0.53564 0.65984 0.18678 0.0
H1535 H 0.55914 0.69459 0.19246 0.0
H1536 H 0.55988 0.67566 0.15663 0.0
H1537 H 0.53279 0.74016 0.0702 0.0
H1538 H 0.56796 0.78364 0.08673 0.0
H1539 H 0.55666 0.7532 0.17983 0.0
C1540 C 0.48128 0.65539 0.14368 0.0
C1541 C 0.46452 0.64404 0.11853 0.0
C1542 C 0.46865 0.65874 0.09011 0.0
C1543 C 0.48927 0.68454 0.08676 0.0
C1544 C 0.50501 0.69564 0.11221 0.0
C1545 C 0.50118 0.68152 0.14012 0.0
C1546 C 0.51928 0.6989 0.16432 0.0
C1547 C 0.49869 0.70652 0.19063 0.0
C1548 C 0.545 0.6812 0.17571 0.0
C1549 C 0.53197 0.7263 0.14616 0.0
C1550 C 0.52503 0.72309 0.11581 0.0
C1551 C 0.53773 0.7434 0.09399 0.0
C1552 C 0.55756 0.76801 0.10351 0.0
C1553 C 0.56379 0.77242 0.13458 0.0
C1554 C 0.55089 0.7512 0.15608 0.0
H1555 H 0.9965 0.35301 0.65074 0.0
H1556 H 0.01719 0.34314 0.55559 0.0
H1557 H 0.98079 0.29747 0.55357 0.0
H1558 H 0.99488 0.28188 0.67298 0.0
H1559 H 0.96207 0.27817 0.69754 0.0
H1560 H 0.98319 0.31421 0.69156 0.0
H1561 H 0.93705 0.33812 0.67296 0.0
H1562 H 0.91409 0.30323 0.68052 0.0
H1563 H 0.91371 0.32049 0.64354 0.0
H1564 H 0.94324 0.25314 0.56195 0.0
H1565 H 0.91259 0.20793 0.58121 0.0
H1566 H 0.92136 0.24198 0.67274 0.0
C1567 C 0.99306 0.34119 0.62953 0.0
C1568 C 0.0096 0.35109 0.60333 0.0
C1569 C 0.00477 0.33549 0.57585 0.0
C1570 C 0.98392 0.30986 0.57445 0.0
C1571 C 0.96851 0.30005 0.60086 0.0
C1572 C 0.97274 0.31516 0.62792 0.0
C1573 C 0.95471 0.29858 0.65331 0.0
C1574 C 0.97489 0.29278 0.68044 0.0
C1575 C 0.92833 0.31616 0.66315 0.0
C1576 C 0.94283 0.27003 0.63702 0.0
C1577 C 0.94933 0.2725 0.6064 0.0
C1578 C 0.93843 0.25063 0.58594 0.0
C1579 C 0.9212 0.22498 0.59712 0.0
C1580 C 0.91603 0.22079 0.62857 0.0
C1581 C 0.92639 0.24396 0.64874 0.0
H1582 H 0.00015 0.6841 0.87766 0.0
H1583 H 0.99459 0.70259 0.97381 0.0
H1584 H 0.95647 0.7375 0.96371 0.0
H1585 H 0.00039 0.74682 0.84868 0.0
H1586 H 0.97268 0.74555 0.81874 0.0
H1587 H 0.99007 0.71252 0.82951 0.0
H1588 H 0.94335 0.67991 0.84407 0.0
H1589 H 0.92207 0.7085 0.82829 0.0
H1590 H 0.91404 0.69452 0.86616 0.0
H1591 H 0.92076 0.772 0.94353 0.0
H1592 H 0.89585 0.80959 0.91423 0.0
H1593 H 0.9282 0.77326 0.83077 0.0
C1594 C 0.99068 0.69531 0.89657 0.0
C1595 C 0.0007 0.69089 0.92648 0.0
C1596 C 0.98754 0.70576 0.95066 0.0
C1597 C 0.96555 0.72538 0.94523 0.0
C1598 C 0.95672 0.72986 0.91551 0.0
C1599 C 0.96841 0.71492 0.89157 0.0
C1600 C 0.95589 0.72508 0.86171 0.0
C1601 C 0.98118 0.73313 0.83826 0.0
C1602 C 0.93245 0.70055 0.84934 0.0
C1603 C 0.94004 0.75178 0.87237 0.0
C1604 C 0.93851 0.7522 0.90361 0.0
C1605 C 0.92234 0.77243 0.91907 0.0
C1606 C 0.90846 0.79383 0.90228 0.0
C1607 C 0.91162 0.79549 0.87044 0.0
C1608 C 0.92686 0.77355 0.85525 0.0
H1609 H 0.42636 0.25563 0.33502 0.0
H1610 H 0.40154 0.29308 0.42078 0.0
H1611 H 0.43188 0.25823 0.44777 0.0
H1612 H 0.41783 0.17943 0.37003 0.0
H1613 H 0.44573 0.16495 0.34599 0.0
H1614 H 0.42365 0.19368 0.33193 0.0
H1615 H 0.47375 0.232 0.32048 0.0
H1616 H 0.49086 0.19804 0.32822 0.0
H1617 H 0.50351 0.23115 0.34839 0.0
H1618 H 0.46864 0.22301 0.46512 0.0
H1619 H 0.50628 0.18682 0.47205 0.0
H1620 H 0.50354 0.16795 0.37577 0.0
C1621 C 0.42803 0.25701 0.35943 0.0
C1622 C 0.41278 0.27821 0.37578 0.0
C1623 C 0.41384 0.27788 0.40777 0.0
C1624 C 0.43087 0.258 0.4233 0.0
C1625 C 0.44602 0.23784 0.40659 0.0
C1626 C 0.44428 0.23662 0.37538 0.0
C1627 C 0.45943 0.20993 0.36351 0.0
C1628 C 0.43522 0.18556 0.3522 0.0
C1629 C 0.48319 0.21849 0.33866 0.0
C1630 C 0.47395 0.19966 0.3923 0.0
C1631 C 0.46486 0.21528 0.41702 0.0
C1632 C 0.47572 0.21044 0.44597 0.0
C1633 C 0.4972 0.18985 0.44964 0.0
C1634 C 0.508 0.17457 0.42444 0.0
C1635 C 0.49569 0.17917 0.39549 0.0
H1636 H 0.97466 0.15882 0.65644 0.0
H1637 H 0.9555 0.16918 0.56088 0.0
H1638 H 0.99088 0.21543 0.55894 0.0
H1639 H 0.97735 0.2295 0.67886 0.0
H1640 H 0.01074 0.23352 0.70222 0.0
H1641 H 0.9895 0.19736 0.69774 0.0
H1642 H 0.0336 0.17198 0.67723 0.0
H1643 H 0.0577 0.20602 0.68456 0.0
H1644 H 0.05715 0.18957 0.64742 0.0
H1645 H 0.02576 0.26146 0.5676 0.0
H1646 H 0.05967 0.30452 0.58574 0.0
H1647 H 0.05606 0.26597 0.67628 0.0
C1648 C 0.97801 0.17082 0.6351 0.0
C1649 C 0.96177 0.16083 0.60893 0.0
C1650 C 0.96721 0.17675 0.58132 0.0
C1651 C 0.98746 0.2029 0.57994 0.0
C1652 C 0.00208 0.21288 0.60639 0.0
C1653 C 0.9982 0.19705 0.63332 0.0
C1654 C 0.01716 0.21265 0.65827 0.0
C1655 C 0.99756 0.2187 0.6859 0.0
C1656 C 0.04293 0.19394 0.6674 0.0
C1657 C 0.02975 0.24129 0.64185 0.0
C1658 C 0.02164 0.24022 0.61167 0.0
C1659 C 0.03199 0.2628 0.59125 0.0
C1660 C 0.05108 0.28729 0.60183 0.0
C1661 C 0.05961 0.28929 0.63265 0.0
C1662 C 0.04887 0.26579 0.65288 0.0
H1663 H 0.40903 0.7298 0.17822 0.0
H1664 H 0.40782 0.69005 0.08911 0.0
H1665 H 0.44617 0.73078 0.07143 0.0
H1666 H 0.41047 0.80364 0.14608 0.0
H1667 H 0.43186 0.82235 0.17624 0.0
H1668 H 0.40777 0.78824 0.18396 0.0
H1669 H 0.45443 0.76046 0.20491 0.0
H1670 H 0.47366 0.79774 0.20137 0.0
H1671 H 0.48959 0.7672 0.18371 0.0
H1672 H 0.48656 0.77468 0.06444 0.0
H1673 H 0.52045 0.82217 0.06649 0.0
H1674 H 0.48926 0.83715 0.15771 0.0
C1675 C 0.41779 0.7291 0.15532 0.0
C1676 C 0.40662 0.7061 0.13528 0.0
C1677 C 0.41684 0.707 0.10492 0.0
C1678 C 0.43855 0.73002 0.09477 0.0
C1679 C 0.44932 0.75227 0.11512 0.0
C1680 C 0.43881 0.75238 0.14464 0.0
C1681 C 0.45006 0.7815 0.16032 0.0
C1682 C 0.42346 0.80002 0.16704 0.0
C1683 C 0.46791 0.77625 0.18929 0.0
C1684 C 0.47061 0.79641 0.13595 0.0
C1685 C 0.46978 0.77928 0.11001 0.0
C1686 C 0.48736 0.78824 0.08465 0.0
C1687 C 0.50674 0.81502 0.08611 0.0
C1688 C 0.50769 0.83291 0.11241 0.0
C1689 C 0.48914 0.82363 0.13747 0.0
H1690 H 0.71731 0.43568 0.73919 0.0
H1691 H 0.63705 0.40339 0.79128 0.0
H1692 H 0.6079 0.43925 0.76449 0.0
H1693 H 0.70402 0.51399 0.73594 0.0
H1694 H 0.71665 0.51968 0.69731 0.0
H1695 H 0.73214 0.49192 0.72072 0.0
H1696 H 0.71668 0.4509 0.68145 0.0
H1697 H 0.70143 0.4784 0.65756 0.0
H1698 H 0.67787 0.44504 0.66912 0.0
H1699 H 0.58656 0.47588 0.73046 0.0
H1700 H 0.57477 0.51467 0.69367 0.0
H1701 H 0.6682 0.52415 0.66281 0.0
C1702 C 0.69369 0.43637 0.74514 0.0
C1703 C 0.67949 0.4166 0.76735 0.0
C1704 C 0.64843 0.41807 0.77425 0.0
C1705 C 0.63164 0.43842 0.75918 0.0
C1706 C 0.64612 0.45714 0.73709 0.0
C1707 C 0.67643 0.45648 0.73009 0.0
C1708 C 0.68608 0.47869 0.70477 0.0
C1709 C 0.71119 0.50248 0.71533 0.0
C1710 C 0.6961 0.46227 0.67656 0.0
C1711 C 0.65657 0.49225 0.69912 0.0
C1712 C 0.63382 0.47917 0.71786 0.0
C1713 C 0.60432 0.48697 0.71632 0.0
C1714 C 0.5979 0.50915 0.6955 0.0
C1715 C 0.62078 0.52316 0.67624 0.0
C1716 C 0.65045 0.51429 0.67781 0.0
H1717 H 0.88512 0.38381 0.99336 0.0
H1718 H 0.83108 0.43448 0.06859 0.0
H1719 H 0.77632 0.42921 0.03984 0.0
H1720 H 0.85948 0.41711 0.92826 0.0
H1721 H 0.86846 0.38809 0.90269 0.0
H1722 H 0.88746 0.39233 0.93834 0.0
H1723 H 0.87011 0.33701 0.95257 0.0
H1724 H 0.85143 0.33229 0.91653 0.0
H1725 H 0.83043 0.32355 0.95107 0.0
H1726 H 0.73781 0.37985 0.95154 0.0
H1727 H 0.72712 0.37466 0.89956 0.0
H1728 H 0.82141 0.36705 0.8806 0.0
C1729 C 0.86287 0.38998 0.99913 0.0
C1730 C 0.86044 0.40928 0.03198 0.0
C1731 C 0.82922 0.42292 0.04716 0.0
C1732 C 0.79484 0.41846 0.02946 0.0
C1733 C 0.79946 0.38877 0.97872 0.0
C1734 C 0.83527 0.38031 0.97384 0.0
C1735 C 0.84041 0.37171 0.94169 0.0
C1736 C 0.86538 0.39361 0.92691 0.0
C1737 C 0.84856 0.33922 0.9404 0.0
C1738 C 0.80968 0.37457 0.9275 0.0
C1739 C 0.78667 0.38103 0.94784 0.0
C1740 C 0.75681 0.37903 0.93732 0.0
C1741 C 0.75048 0.37505 0.90681 0.0
C1742 C 0.77373 0.37225 0.88586 0.0
C1743 C 0.80349 0.37105 0.89633 0.0
H1744 H 0.91521 0.58566 0.28661 0.0
H1745 H 0.831 0.59559 0.23902 0.0
H1746 H 0.83906 0.55974 0.19911 0.0
H1747 H 0.9665 0.56675 0.20755 0.0
H1748 H 0.99196 0.5419 0.2223 0.0
H1749 H 0.98029 0.57215 0.24525 0.0
H1750 H 0.96528 0.53748 0.28676 0.0
H1751 H 0.97942 0.50846 0.26427 0.0
H1752 H 0.94403 0.50211 0.28266 0.0
H1753 H 0.86173 0.50862 0.15725 0.0
H1754 H 0.88894 0.47218 0.13154 0.0
H1755 H 0.96559 0.47779 0.19392 0.0
C1756 C 0.90063 0.58005 0.26747 0.0
C1757 C 0.87187 0.59109 0.2647 0.0
C1758 C 0.85187 0.58492 0.23967 0.0
C1759 C 0.85583 0.56423 0.21663 0.0
C1760 C 0.88 0.54764 0.21885 0.0
C1761 C 0.90847 0.55966 0.24627 0.0
C1762 C 0.94575 0.53342 0.24106 0.0
C1763 C 0.97269 0.55478 0.22834 0.0
C1764 C 0.95883 0.51941 0.27021 0.0
C1765 C 0.92992 0.50415 0.20531 0.0
C1766 C 0.89307 0.51351 0.19371 0.0
C1767 C 0.88249 0.50203 0.16681 0.0
C1768 C 0.89911 0.48123 0.15219 0.0
C1769 C 0.92743 0.47148 0.16231 0.0
C1770 C 0.94333 0.48376 0.18795 0.0
H1771 H 0.73483 0.61546 0.39509 0.0
H1772 H 0.78724 0.53975 0.40652 0.0
H1773 H 0.75571 0.52268 0.45124 0.0
H1774 H 0.72312 0.63459 0.4669 0.0
H1775 H 0.68369 0.64053 0.46578 0.0
H1776 H 0.70661 0.64523 0.43196 0.0
H1777 H 0.67165 0.6066 0.40302 0.0
H1778 H 0.64692 0.60246 0.43564 0.0
H1779 H 0.66125 0.56993 0.41929 0.0
H1780 H 0.72134 0.51646 0.49654 0.0
H1781 H 0.68509 0.52009 0.53875 0.0
H1782 H 0.65504 0.60017 0.49788 0.0
C1783 C 0.73943 0.59523 0.40708 0.0
C1784 C 0.7636 0.57906 0.39816 0.0
C1785 C 0.76887 0.55237 0.41352 0.0
C1786 C 0.75099 0.5425 0.43867 0.0
C1787 C 0.72762 0.55928 0.44743 0.0
C1788 C 0.72132 0.5847 0.4317 0.0
C1789 C 0.69463 0.59836 0.44562 0.0
C1790 C 0.70245 0.63167 0.45303 0.0
C1791 C 0.66698 0.59407 0.42465 0.0
C1792 C 0.68953 0.57898 0.47381 0.0
C1793 C 0.70787 0.55577 0.47366 0.0
C1794 C 0.70675 0.53441 0.49682 0.0
C1795 C 0.68624 0.53671 0.52071 0.0
C1796 C 0.66778 0.56065 0.52164 0.0
C1797 C 0.6694 0.58202 0.49788 0.0
H1798 H 0.62711 0.49396 0.83352 0.0
H1799 H 0.53904 0.456 0.80172 0.0
H1800 H 0.53736 0.4987 0.76653 0.0
H1801 H 0.61227 0.57212 0.82882 0.0
H1802 H 0.64986 0.58521 0.81562 0.0
H1803 H 0.64402 0.55229 0.83953 0.0
H1804 H 0.66947 0.52087 0.79929 0.0
H1805 H 0.67614 0.55413 0.77601 0.0
H1806 H 0.65584 0.52075 0.76098 0.0
H1807 H 0.5446 0.54548 0.73513 0.0
H1808 H 0.56413 0.58935 0.70379 0.0
H1809 H 0.64799 0.59651 0.75432 0.0
C1810 C 0.60759 0.49454 0.81899 0.0
C1811 C 0.5832 0.4716 0.82045 0.0
C1812 C 0.55811 0.47315 0.80095 0.0
C1813 C 0.55672 0.49755 0.78115 0.0
C1814 C 0.58079 0.52006 0.78073 0.0
C1815 C 0.60603 0.51854 0.79867 0.0
C1816 C 0.62943 0.54506 0.79261 0.0
C1817 C 0.63416 0.56484 0.82083 0.0
C1818 C 0.65951 0.53457 0.78159 0.0
C1819 C 0.61381 0.56105 0.7677 0.0
C1820 C 0.58543 0.54667 0.7618 0.0
C1821 C 0.56682 0.55691 0.73946 0.0
C1822 C 0.57811 0.58166 0.72167 0.0
C1823 C 0.6076 0.59584 0.72644 0.0
C1824 C 0.6253 0.58598 0.75032 0.0
H1825 H 0.7659 0.34813 0.03575 0.0
H1826 H 0.84974 0.44135 0.98983 0.0
H1827 H 0.79792 0.4622 0.96814 0.0
H1828 H 0.71008 0.34708 0.97855 0.0
H1829 H 0.67983 0.3513 0.00464 0.0
H1830 H 0.71398 0.33761 0.01773 0.0
H1831 H 0.71728 0.37861 0.0582 0.0
H1832 H 0.68371 0.39295 0.04348 0.0
H1833 H 0.71819 0.41752 0.0472 0.0
H1834 H 0.74613 0.46903 0.94805 0.0
H1835 H 0.69535 0.47039 0.92588 0.0
H1836 H 0.6616 0.39294 0.97957 0.0
C1837 C 0.77563 0.36765 0.02321 0.0
C1838 C 0.81416 0.37644 0.02342 0.0
C1839 C 0.82821 0.42766 0.99395 0.0
C1840 C 0.79603 0.44131 0.98077 0.0
C1841 C 0.76135 0.42273 0.98755 0.0
C1842 C 0.75228 0.39026 0.00635 0.0
C1843 C 0.71805 0.38625 0.00906 0.0
C1844 C 0.70486 0.35381 0.0019 0.0
C1845 C 0.7088 0.3943 0.04137 0.0
C1846 C 0.70849 0.4099 0.98671 0.0
C1847 C 0.73222 0.43113 0.97723 0.0
C1848 C 0.72757 0.45322 0.9558 0.0
C1849 C 0.69874 0.45364 0.94302 0.0
C1850 C 0.67502 0.43144 0.9508 0.0
C1851 C 0.67979 0.40984 0.97324 0.0
H1852 H 0.85737 0.53338 0.29592 0.0
H1853 H 0.85428 0.47081 0.3714 0.0
H1854 H 0.85512 0.42878 0.33571 0.0
H1855 H 0.82883 0.51966 0.24581 0.0
H1856 H 0.81543 0.48173 0.24038 0.0
H1857 H 0.83709 0.50034 0.21092 0.0
H1858 H 0.9013 0.51525 0.26979 0.0
H1859 H 0.9214 0.54472 0.20869 0.0
H1860 H 0.91057 0.48825 0.25045 0.0
H1861 H 0.86066 0.39432 0.29243 0.0
H1862 H 0.866 0.36834 0.24413 0.0
H1863 H 0.86568 0.45262 0.19596 0.0
C1864 C 0.85581 0.51074 0.3049 0.0
C1865 C 0.85586 0.5055 0.33642 0.0
C1866 C 0.85428 0.47553 0.34731 0.0
C1867 C 0.85491 0.45148 0.32717 0.0
C1868 C 0.8571 0.45775 0.2962 0.0
C1869 C 0.85696 0.48654 0.285 0.0
C1870 C 0.86396 0.4885 0.25089 0.0
C1871 C 0.83522 0.49857 0.23584 0.0
C1872 C 0.89726 0.50787 0.2459 0.0
C1873 C 0.86484 0.45483 0.24468 0.0
C1874 C 0.86191 0.43807 0.27123 0.0
C1875 C 0.86272 0.40707 0.27147 0.0
C1876 C 0.86571 0.3925 0.24383 0.0
C1877 C 0.86695 0.40871 0.21609 0.0
C1878 C 0.86626 0.44019 0.21673 0.0
H1879 H 0.82712 0.6662 0.45206 0.0
H1880 H 0.81416 0.56908 0.46118 0.0
H1881 H 0.774 0.57327 0.49887 0.0
H1882 H 0.81402 0.67945 0.53319 0.0
H1883 H 0.7955 0.71282 0.52624 0.0
H1884 H 0.82412 0.70251 0.50032 0.0
H1885 H 0.78648 0.70426 0.45662 0.0
H1886 H 0.75695 0.71342 0.482 0.0
H1887 H 0.75091 0.6812 0.45784 0.0
H1888 H 0.73489 0.587 0.53451 0.0
H1889 H 0.69884 0.60997 0.56734 0.0
H1890 H 0.73588 0.69848 0.53613 0.0
C1891 C 0.81565 0.64586 0.46185 0.0
C1892 C 0.8234 0.61726 0.45307 0.0
C1893 C 0.80819 0.59122 0.46685 0.0
C1894 C 0.78546 0.59333 0.48853 0.0
C1895 C 0.77808 0.62166 0.49637 0.0
C1896 C 0.79268 0.64754 0.48365 0.0
C1897 C 0.78042 0.67517 0.49678 0.0
C1898 C 0.80498 0.69357 0.51523 0.0
C1899 C 0.76791 0.6946 0.47185 0.0
C1900 C 0.7555 0.66054 0.5174 0.0
C1901 C 0.75521 0.62968 0.51734 0.0
C1902 C 0.73474 0.61113 0.53476 0.0
C1903 C 0.71411 0.6244 0.55312 0.0
C1904 C 0.71402 0.65599 0.55394 0.0
C1905 C 0.73498 0.67424 0.53565 0.0
H1906 H 0.51284 0.65851 0.66669 0.0
H1907 H 0.57119 0.68157 0.5891 0.0
H1908 H 0.53992 0.72205 0.57542 0.0
H1909 H 0.44503 0.6717 0.62582 0.0
H1910 H 0.42599 0.68456 0.65863 0.0
H1911 H 0.45338 0.65779 0.66294 0.0
H1912 H 0.4851 0.69316 0.70035 0.0
H1913 H 0.45567 0.71789 0.69717 0.0
H1914 H 0.49421 0.73185 0.68953 0.0
H1915 H 0.49762 0.75758 0.56748 0.0
H1916 H 0.45699 0.79139 0.57319 0.0
H1917 H 0.42825 0.74574 0.65674 0.0
C1918 C 0.51971 0.67272 0.64741 0.0
C1919 C 0.54484 0.66704 0.62925 0.0
C1920 C 0.55238 0.68568 0.60367 0.0
C1921 C 0.53461 0.70876 0.59564 0.0
C1922 C 0.50953 0.71328 0.61361 0.0
C1923 C 0.50235 0.69592 0.63921 0.0
C1924 C 0.47321 0.70386 0.65368 0.0
C1925 C 0.44792 0.67794 0.65004 0.0
C1926 C 0.47735 0.71215 0.68717 0.0
C1927 C 0.46699 0.73053 0.63427 0.0
C1928 C 0.48705 0.73465 0.61021 0.0
C1929 C 0.48331 0.75585 0.58741 0.0
C1930 C 0.45992 0.77466 0.59047 0.0
C1931 C 0.44048 0.77172 0.61592 0.0
C1932 C 0.44374 0.74907 0.63768 0.0
H1933 H 0.384 0.5901 0.27285 0.0
H1934 H 0.3069 0.55446 0.21955 0.0
H1935 H 0.29824 0.51131 0.25479 0.0
H1936 H 0.41507 0.52625 0.29267 0.0
H1937 H 0.42202 0.53405 0.33207 0.0
H1938 H 0.42108 0.56436 0.30525 0.0
H1939 H 0.38005 0.58736 0.33534 0.0
H1940 H 0.38117 0.55822 0.36361 0.0
H1941 H 0.34575 0.56463 0.34613 0.0
H1942 H 0.30144 0.46925 0.29196 0.0
H1943 H 0.31492 0.43245 0.33069 0.0
H1944 H 0.38719 0.49674 0.36237 0.0
C1945 C 0.36553 0.57301 0.26836 0.0
C1946 C 0.34687 0.575 0.24265 0.0
C1947 C 0.32225 0.55278 0.23831 0.0
C1948 C 0.31696 0.52834 0.25837 0.0
C1949 C 0.33623 0.52658 0.28293 0.0
C1950 C 0.35968 0.54861 0.2884 0.0
C1951 C 0.37638 0.54175 0.31715 0.0
C1952 C 0.41061 0.5415 0.31141 0.0
C1953 C 0.37047 0.56433 0.34202 0.0
C1954 C 0.3608 0.51083 0.32491 0.0
C1955 C 0.337 0.50299 0.30548 0.0
C1956 C 0.31996 0.47506 0.30733 0.0
C1957 C 0.32779 0.4543 0.32918 0.0
C1958 C 0.35211 0.46184 0.34907 0.0
C1959 C 0.3684 0.49062 0.34732 0.0
H1960 H 0.22931 0.67574 0.09014 0.0
H1961 H 0.25955 0.58681 0.09647 0.0
H1962 H 0.21687 0.567 0.06417 0.0
H1963 H 0.14517 0.64619 0.0892 0.0
H1964 H 0.13643 0.67635 0.06454 0.0
H1965 H 0.16659 0.68251 0.0917 0.0
H1966 H 0.20357 0.70095 0.04866 0.0
H1967 H 0.1736 0.69456 0.0215 0.0
H1968 H 0.20809 0.6773 0.01659 0.0
H1969 H 0.1767 0.55883 0.02459 0.0
H1970 H 0.13781 0.56097 0.98533 0.0
H1971 H 0.13128 0.65477 0.00602 0.0
C1972 C 0.22669 0.65202 0.08502 0.0
C1973 C 0.248 0.63284 0.09553 0.0
C1974 C 0.24359 0.6019 0.08867 0.0
C1975 C 0.21925 0.59041 0.07051 0.0
C1976 C 0.19901 0.61 0.05996 0.0
C1977 C 0.20207 0.64008 0.06747 0.0
C1978 C 0.17785 0.65652 0.05216 0.0
C1979 C 0.15516 0.66594 0.0758 0.0
C1980 C 0.19164 0.68388 0.03362 0.0
C1981 C 0.16307 0.63183 0.03212 0.0
C1982 C 0.17514 0.60503 0.03759 0.0
C1983 C 0.1665 0.57946 0.02073 0.0
C1984 C 0.14454 0.58103 0.99818 0.0
C1985 C 0.13122 0.60801 0.99246 0.0
C1986 C 0.14078 0.63374 0.00981 0.0
H1987 H 0.07388 0.53093 0.82523 0.0
H1988 H 0.11037 0.48421 0.9005 0.0
H1989 H 0.12415 0.44467 0.86591 0.0
H1990 H 0.04434 0.4717 0.78489 0.0
H1991 H 0.05505 0.48031 0.74687 0.0
H1992 H 0.05 0.51033 0.7729 0.0
H1993 H 0.12995 0.52192 0.78647 0.0
H1994 H 0.0995 0.53404 0.78188 0.0
H1995 H 0.13117 0.54336 0.71919 0.0
H1996 H 0.12907 0.40888 0.82572 0.0
H1997 H 0.12703 0.37695 0.78089 0.0
H1998 H 0.08848 0.44582 0.72941 0.0
C1999 C 0.08501 0.51231 0.83409 0.0
C2000 C 0.09175 0.51088 0.86519 0.0
C2001 C 0.10538 0.48597 0.87661 0.0
C2002 C 0.11332 0.46347 0.85709 0.0
C2003 C 0.10752 0.46625 0.82621 0.0
C2004 C 0.09329 0.48967 0.81463 0.0
C2005 C 0.09236 0.48927 0.77961 0.0
C2006 C 0.05862 0.48803 0.77043 0.0
C2007 C 0.11299 0.51947 0.76774 0.0
C2008 C 0.10427 0.45846 0.77451 0.0
C2009 C 0.11372 0.44667 0.80172 0.0
C2010 C 0.12214 0.41768 0.80424 0.0
C2011 C 0.12017 0.39941 0.77878 0.0
C2012 C 0.10878 0.40956 0.75116 0.0
C2013 C 0.10009 0.4391 0.74929 0.0
H2014 H 0.23661 0.36385 0.58348 0.0
H2015 H 0.18539 0.28384 0.54864 0.0
H2016 H 0.22506 0.27924 0.51005 0.0
H2017 H 0.26665 0.39761 0.51768 0.0
H2018 H 0.30332 0.40832 0.5332 0.0
H2019 H 0.27071 0.40307 0.55787 0.0
H2020 H 0.30004 0.36445 0.58799 0.0
H2021 H 0.33087 0.36901 0.56103 0.0
H2022 H 0.31172 0.33225 0.56858 0.0
H2023 H 0.26694 0.28718 0.47107 0.0
H2024 H 0.31012 0.3052 0.43737 0.0
H2025 H 0.33371 0.37958 0.49778 0.0
C2026 C 0.23374 0.34548 0.56763 0.0
C2027 C 0.20761 0.32462 0.56858 0.0
C2028 C 0.2051 0.30026 0.54814 0.0
C2029 C 0.22764 0.29727 0.5263 0.0
C2030 C 0.25272 0.31867 0.52539 0.0
C2031 C 0.2563 0.34187 0.546 0.0
C2032 C 0.28591 0.36127 0.54059 0.0
C2033 C 0.28134 0.3946 0.53724 0.0
C2034 C 0.30847 0.35644 0.56606 0.0
C2035 C 0.29589 0.34812 0.51114 0.0
C2036 C 0.27724 0.32273 0.50345 0.0
C2037 C 0.28187 0.30686 0.47701 0.0
C2038 C 0.30621 0.31729 0.45794 0.0
C2039 C 0.32463 0.34393 0.4649 0.0
C2040 C 0.31953 0.35933 0.49189 0.0
H2041 H 0.38013 0.40773 0.27763 0.0
H2042 H 0.28207 0.38955 0.27556 0.0
H2043 H 0.27945 0.43009 0.23817 0.0
H2044 H 0.38515 0.48481 0.27365 0.0
H2045 H 0.41675 0.49082 0.24783 0.0
H2046 H 0.41249 0.45794 0.2719 0.0
H2047 H 0.41291 0.42314 0.2259 0.0
H2048 H 0.41841 0.45562 0.20136 0.0
H2049 H 0.3872 0.42735 0.19504 0.0
H2050 H 0.2869 0.47287 0.2012 0.0
H2051 H 0.30427 0.51629 0.16844 0.0
H2052 H 0.39689 0.50934 0.19683 0.0
C2053 C 0.35816 0.41212 0.26913 0.0
C2054 C 0.33134 0.39539 0.27976 0.0
C2055 C 0.30301 0.40197 0.26798 0.0
C2056 C 0.30122 0.42491 0.24653 0.0
C2057 C 0.32793 0.44128 0.23694 0.0
C2058 C 0.3559 0.4351 0.24762 0.0
C2059 C 0.38099 0.45655 0.23378 0.0
C2060 C 0.40001 0.47355 0.25825 0.0
C2061 C 0.40105 0.43966 0.21277 0.0
C2062 C 0.3625 0.47714 0.21571 0.0
C2063 C 0.33205 0.46714 0.21686 0.0
C2064 C 0.31069 0.4811 0.20029 0.0
C2065 C 0.32072 0.50593 0.18195 0.0
C2066 C 0.3518 0.51696 0.18072 0.0
C2067 C 0.37282 0.50233 0.1981 0.0
H2068 H 0.28397 0.58833 0.03805 0.0
H2069 H 0.37673 0.61326 0.0096 0.0
H2070 H 0.35862 0.62959 0.95959 0.0
H2071 H 0.25266 0.55968 0.97277 0.0
H2072 H 0.21783 0.57705 0.97489 0.0
H2073 H 0.23785 0.56959 0.009 0.0
H2074 H 0.24543 0.62853 0.02414 0.0
H2075 H 0.21894 0.63085 0.99327 0.0
H2076 H 0.25417 0.65473 0.99405 0.0
H2077 H 0.3287 0.64109 0.91109 0.0
H2078 H 0.2907 0.65072 0.8721 0.0
H2079 H 0.21851 0.61856 0.93447 0.0
C2080 C 0.30043 0.59765 0.02145 0.0
C2081 C 0.33167 0.59956 0.02759 0.0
C2082 C 0.3526 0.61198 0.00539 0.0
C2083 C 0.34253 0.62104 0.97686 0.0
C2084 C 0.31144 0.61806 0.9712 0.0
C2085 C 0.2908 0.60741 0.99328 0.0
C2086 C 0.25868 0.60785 0.98242 0.0
C2087 C 0.2407 0.57669 0.98493 0.0
C2088 C 0.24324 0.63183 0.99949 0.0
C2089 C 0.26415 0.61763 0.95002 0.0
C2090 C 0.29468 0.62433 0.94394 0.0
C2091 C 0.30477 0.63585 0.91578 0.0
C2092 C 0.28301 0.6412 0.89375 0.0
C2093 C 0.25158 0.63515 0.90013 0.0
C2094 C 0.2423 0.62298 0.92859 0.0
H2095 H 0.14326 0.47142 0.6909 0.0
H2096 H 0.05336 0.49084 0.6628 0.0
H2097 H 0.05004 0.53181 0.69776 0.0
H2098 H 0.18505 0.52143 0.78468 0.0
H2099 H 0.19446 0.49452 0.75701 0.0
H2100 H 0.16021 0.48784 0.77691 0.0
H2101 H 0.1918 0.51355 0.70697 0.0
H2102 H 0.17619 0.54829 0.70029 0.0
H2103 H 0.20433 0.54655 0.72892 0.0
H2104 H 0.06287 0.58644 0.74343 0.0
H2105 H 0.08595 0.62597 0.77593 0.0
H2106 H 0.17292 0.58867 0.78415 0.0
C2107 C 0.12304 0.48233 0.69539 0.0
C2108 C 0.09758 0.47832 0.67601 0.0
C2109 C 0.07153 0.49463 0.67907 0.0
C2110 C 0.06861 0.51801 0.6995 0.0
C2111 C 0.09076 0.52416 0.72061 0.0
C2112 C 0.12221 0.50102 0.72013 0.0
C2113 C 0.15965 0.52444 0.74233 0.0
C2114 C 0.17562 0.50609 0.76666 0.0
C2115 C 0.18446 0.53373 0.71822 0.0
C2116 C 0.14089 0.56453 0.7556 0.0
C2117 C 0.10257 0.5633 0.74189 0.0
C2118 C 0.08618 0.58622 0.7504 0.0
C2119 C 0.10002 0.60864 0.76953 0.0
C2120 C 0.13017 0.60964 0.7816 0.0
C2121 C 0.15046 0.58783 0.77456 0.0
H2122 H 0.15077 0.38754 0.51508 0.0
H2123 H 0.21489 0.46091 0.54515 0.0
H2124 H 0.24947 0.45096 0.50344 0.0
H2125 H 0.20141 0.3379 0.49482 0.0
H2126 H 0.18312 0.3238 0.46077 0.0
H2127 H 0.16114 0.33816 0.49081 0.0
H2128 H 0.14094 0.37685 0.45459 0.0
H2129 H 0.1619 0.36236 0.42386 0.0
H2130 H 0.16726 0.40177 0.43268 0.0
H2131 H 0.27977 0.42952 0.46253 0.0
H2132 H 0.30149 0.40116 0.42147 0.0
H2133 H 0.21787 0.34234 0.41642 0.0
C2134 C 0.17221 0.40133 0.513 0.0
C2135 C 0.18034 0.4247 0.53374 0.0
C2136 C 0.20826 0.4427 0.52979 0.0
C2137 C 0.22792 0.43745 0.50593 0.0
C2138 C 0.21945 0.41405 0.48612 0.0
C2139 C 0.19208 0.39657 0.48905 0.0
C2140 C 0.18865 0.3728 0.46462 0.0
C2141 C 0.18319 0.34122 0.47855 0.0
C2142 C 0.16317 0.37881 0.44263 0.0
C2143 C 0.21946 0.37801 0.44925 0.0
C2144 C 0.23666 0.40225 0.46173 0.0
C2145 C 0.26637 0.41073 0.45233 0.0
C2146 C 0.27875 0.39415 0.42941 0.0
C2147 C 0.26163 0.36925 0.41627 0.0
C2148 C 0.23146 0.36132 0.42612 0.0
H2149 H 0.49367 0.33398 0.37953 0.0
H2150 H 0.47875 0.29913 0.47097 0.0
H2151 H 0.51812 0.26498 0.46316 0.0
H2152 H 0.49706 0.27991 0.34375 0.0
H2153 H 0.53021 0.28041 0.31954 0.0
H2154 H 0.51486 0.31461 0.32966 0.0
H2155 H 0.55662 0.34217 0.35778 0.0
H2156 H 0.57981 0.31554 0.34149 0.0
H2157 H 0.58088 0.32244 0.38165 0.0
H2158 H 0.55546 0.23121 0.44403 0.0
H2159 H 0.58603 0.19866 0.41413 0.0
H2160 H 0.57353 0.25255 0.33403 0.0
C2161 C 0.49932 0.3198 0.3982 0.0
C2162 C 0.48292 0.31905 0.42574 0.0
C2163 C 0.49092 0.30008 0.4496 0.0
C2164 C 0.51339 0.28065 0.44547 0.0
C2165 C 0.52816 0.28091 0.41758 0.0
C2166 C 0.52216 0.30063 0.39464 0.0
C2167 C 0.53999 0.29501 0.36624 0.0
C2168 C 0.51942 0.29209 0.33816 0.0
C2169 C 0.56585 0.32028 0.36152 0.0
C2170 C 0.55294 0.26609 0.37537 0.0
C2171 C 0.54772 0.25975 0.40573 0.0
C2172 C 0.55948 0.2357 0.42016 0.0
C2173 C 0.57666 0.21724 0.40302 0.0
C2174 C 0.58106 0.22236 0.37163 0.0
C2175 C 0.56946 0.24743 0.35779 0.0
loop_
_geom_bond_atom_site_label_1
_geom_bond_atom_site_label_2
_geom_bond_distance
_geom_bond_site_symmetry_2
_ccdc_geom_bond_type
O0 Cd1 2.223 . S
O0 C8 1.315 . S
Cd1 O0 2.223 . S
Cd1 O4 2.297 . S
Cd1 O5 2.439 . S
Cd1 O11 2.240 . S
Cd2 O3 2.240 . S
Cd2 O10 2.223 . S
Cd2 O12 2.297 1_455 S
Cd2 O13 2.439 . S
O3 Cd2 2.240 . S
O3 C8 1.279 . S
O4 Cd1 2.297 . S
O4 C6 1.247 . S
O5 Cd1 2.439 . S
O5 C6 1.208 . S
C6 O4 1.247 . S
C6 O5 1.208 . S
C7 O12 1.247 1_455 S
C7 O13 1.208 . S
C8 O0 1.315 . S
C8 O3 1.279 . S
C9 O10 1.315 . S
C9 O11 1.279 . S
O10 Cd2 2.223 . S
O10 C9 1.315 . S
O11 Cd1 2.240 . S
O11 C9 1.279 . S
O12 Cd2 2.297 1_655 S
O12 C7 1.247 1_655 S
O13 Cd2 2.439 . S
O13 C7 1.208 . S
O14 Cd15 2.223 . S
O14 C22 1.315 . S
Cd15 O14 2.223 . S
Cd15 O18 2.297 . S
Cd15 O19 2.439 . S
Cd15 O25 2.240 . S
Cd16 O17 2.240 . S
Cd16 O24 2.223 . S
Cd16 O26 2.297 . S
Cd16 O27 2.439 . S
O17 Cd16 2.240 . S
O17 C22 1.279 . S
O18 Cd15 2.297 . S
O18 C20 1.247 . S
O19 Cd15 2.439 . S
O19 C20 1.208 . S
C20 O18 1.247 . S
C20 O19 1.208 . S
C21 O26 1.247 . S
C21 O27 1.208 . S
C22 O14 1.315 . S
C22 O17 1.279 . S
C23 O24 1.315 . S
C23 O25 1.279 . S
O24 Cd16 2.223 . S
O24 C23 1.315 . S
O25 Cd15 2.240 . S
O25 C23 1.279 . S
O26 Cd16 2.297 . S
O26 C21 1.247 . S
O27 Cd16 2.439 . S
O27 C21 1.208 . S
O28 Cd29 2.223 . S
O28 C36 1.315 . S
Cd29 O28 2.223 . S
Cd29 O32 2.297 . S
Cd29 O33 2.439 . S
Cd29 O39 2.240 . S
Cd30 O31 2.240 . S
Cd30 O38 2.223 . S
Cd30 O40 2.297 . S
Cd30 O41 2.439 . S
O31 Cd30 2.240 . S
O31 C36 1.279 . S
O32 Cd29 2.297 . S
O32 C34 1.247 . S
O33 Cd29 2.439 . S
O33 C34 1.208 . S
C34 O32 1.247 . S
C34 O33 1.208 . S
C35 O40 1.247 . S
C35 O41 1.208 . S
C36 O28 1.315 . S
C36 O31 1.279 . S
C37 O38 1.315 . S
C37 O39 1.279 . S
O38 Cd30 2.223 . S
O38 C37 1.315 . S
O39 Cd29 2.240 . S
O39 C37 1.279 . S
O40 Cd30 2.297 . S
O40 C35 1.247 . S
O41 Cd30 2.439 . S
O41 C35 1.208 . S
O42 Cd43 2.223 . S
O42 C50 1.315 . S
Cd43 O42 2.223 . S
Cd43 O46 2.297 . S
Cd43 O47 2.439 . S
Cd43 O53 2.240 . S
Cd44 O45 2.240 . S
Cd44 O52 2.223 . S
Cd44 O54 2.297 . S
Cd44 O55 2.439 . S
O45 Cd44 2.240 . S
O45 C50 1.279 . S
O46 Cd43 2.297 . S
O46 C48 1.247 . S
O47 Cd43 2.439 . S
O47 C48 1.208 . S
C48 O46 1.247 . S
C48 O47 1.208 . S
C49 O54 1.247 . S
C49 O55 1.208 . S
C50 O42 1.315 . S
C50 O45 1.279 . S
C51 O52 1.315 . S
C51 O53 1.279 . S
O52 Cd44 2.223 . S
O52 C51 1.315 . S
O53 Cd43 2.240 . S
O53 C51 1.279 . S
O54 Cd44 2.297 . S
O54 C49 1.247 . S
O55 Cd44 2.439 . S
O55 C49 1.208 . S
O56 Cd57 2.223 . S
O56 C64 1.315 . S
Cd57 O56 2.223 . S
Cd57 O60 2.297 . S
Cd57 O61 2.439 . S
Cd57 O67 2.240 . S
Cd58 O59 2.240 . S
Cd58 O66 2.223 . S
Cd58 O68 2.297 . S
Cd58 O69 2.439 . S
O59 Cd58 2.240 . S
O59 C64 1.279 . S
O60 Cd57 2.297 . S
O60 C62 1.247 . S
O61 Cd57 2.439 . S
O61 C62 1.208 . S
C62 O60 1.247 . S
C62 O61 1.208 . S
C63 O68 1.247 . S
C63 O69 1.208 . S
C64 O56 1.315 . S
C64 O59 1.279 . S
C65 O66 1.315 . S
C65 O67 1.279 . S
O66 Cd58 2.223 . S
O66 C65 1.315 . S
O67 Cd57 2.240 . S
O67 C65 1.279 . S
O68 Cd58 2.297 . S
O68 C63 1.247 . S
O69 Cd58 2.439 . S
O69 C63 1.208 . S
O70 Cd71 2.223 . S
O70 C78 1.315 . S
Cd71 O70 2.223 . S
Cd71 O74 2.297 . S
Cd71 O75 2.439 . S
Cd71 O81 2.240 . S
Cd72 O73 2.240 . S
Cd72 O80 2.223 . S
Cd72 O82 2.297 . S
Cd72 O83 2.439 . S
O73 Cd72 2.240 . S
O73 C78 1.279 . S
O74 Cd71 2.297 . S
O74 C76 1.247 . S
O75 Cd71 2.439 . S
O75 C76 1.208 . S
C76 O74 1.247 . S
C76 O75 1.208 . S
C77 O82 1.247 . S
C77 O83 1.208 . S
C78 O70 1.315 . S
C78 O73 1.279 . S
C79 O80 1.315 . S
C79 O81 1.279 . S
O80 Cd72 2.223 . S
O80 C79 1.315 . S
O81 Cd71 2.240 . S
O81 C79 1.279 . S
O82 Cd72 2.297 . S
O82 C77 1.247 . S
O83 Cd72 2.439 . S
O83 C77 1.208 . S
O84 Cd85 2.223 . S
O84 C92 1.315 . S
Cd85 O84 2.223 . S
Cd85 O88 2.297 . S
Cd85 O89 2.439 . S
Cd85 O95 2.240 . S
Cd86 O87 2.240 . S
Cd86 O94 2.223 . S
Cd86 O96 2.297 . S
Cd86 O97 2.439 . S
O87 Cd86 2.240 . S
O87 C92 1.279 . S
O88 Cd85 2.297 . S
O88 C90 1.247 . S
O89 Cd85 2.439 . S
O89 C90 1.208 . S
C90 O88 1.247 . S
C90 O89 1.208 . S
C91 O96 1.247 . S
C91 O97 1.208 . S
C92 O84 1.315 . S
C92 O87 1.279 . S
C93 O94 1.315 . S
C93 O95 1.279 . S
O94 Cd86 2.223 . S
O94 C93 1.315 . S
O95 Cd85 2.240 . S
O95 C93 1.279 . S
O96 Cd86 2.297 . S
O96 C91 1.247 . S
O97 Cd86 2.439 . S
O97 C91 1.208 . S
O98 Cd99 2.223 . S
O98 C106 1.315 . S
Cd99 O98 2.223 . S
Cd99 O102 2.297 . S
Cd99 O103 2.439 . S
Cd99 O109 2.240 . S
Cd100 O101 2.240 . S
Cd100 O108 2.223 . S
Cd100 O110 2.297 . S
Cd100 O111 2.439 . S
O101 Cd100 2.240 . S
O101 C106 1.279 . S
O102 Cd99 2.297 . S
O102 C104 1.247 . S
O103 Cd99 2.439 . S
O103 C104 1.208 . S
C104 O102 1.247 . S
C104 O103 1.208 . S
C105 O110 1.247 . S
C105 O111 1.208 . S
C106 O98 1.315 . S
C106 O101 1.279 . S
C107 O108 1.315 . S
C107 O109 1.279 . S
O108 Cd100 2.223 . S
O108 C107 1.315 . S
O109 Cd99 2.240 . S
O109 C107 1.279 . S
O110 Cd100 2.297 . S
O110 C105 1.247 . S
O111 Cd100 2.439 . S
O111 C105 1.208 . S
O112 Cd113 2.223 . S
O112 C120 1.315 . S
Cd113 O112 2.223 . S
Cd113 O116 2.297 . S
Cd113 O117 2.439 . S
Cd113 O123 2.240 . S
Cd114 O115 2.240 . S
Cd114 O122 2.223 . S
Cd114 O124 2.297 . S
Cd114 O125 2.439 . S
O115 Cd114 2.240 . S
O115 C120 1.279 . S
O116 Cd113 2.297 . S
O116 C118 1.247 . S
O117 Cd113 2.439 . S
O117 C118 1.208 . S
C118 O116 1.247 . S
C118 O117 1.208 . S
C119 O124 1.247 . S
C119 O125 1.208 . S
C120 O112 1.315 . S
C120 O115 1.279 . S
C121 O122 1.315 . S
C121 O123 1.279 . S
O122 Cd114 2.223 . S
O122 C121 1.315 . S
O123 Cd113 2.240 . S
O123 C121 1.279 . S
O124 Cd114 2.297 . S
O124 C119 1.247 . S
O125 Cd114 2.439 . S
O125 C119 1.208 . S
O126 Cd127 2.223 . S
O126 C134 1.315 . S
Cd127 O126 2.223 . S
Cd127 O130 2.297 . S
Cd127 O131 2.439 . S
Cd127 O137 2.240 . S
Cd128 O129 2.240 . S
Cd128 O136 2.223 . S
Cd128 O138 2.297 . S
Cd128 O139 2.439 . S
O129 Cd128 2.240 . S
O129 C134 1.279 . S
O130 Cd127 2.297 . S
O130 C132 1.247 . S
O131 Cd127 2.439 . S
O131 C132 1.208 . S
C132 O130 1.247 . S
C132 O131 1.208 . S
C133 O138 1.247 . S
C133 O139 1.208 . S
C134 O126 1.315 . S
C134 O129 1.279 . S
C135 O136 1.315 . S
C135 O137 1.279 . S
O136 Cd128 2.223 . S
O136 C135 1.315 . S
O137 Cd127 2.240 . S
O137 C135 1.279 . S
O138 Cd128 2.297 . S
O138 C133 1.247 . S
O139 Cd128 2.439 . S
O139 C133 1.208 . S
O140 Cd141 2.223 . S
O140 C148 1.315 . S
Cd141 O140 2.223 . S
Cd141 O144 2.297 . S
Cd141 O145 2.439 . S
Cd141 O151 2.240 . S
Cd142 O143 2.240 . S
Cd142 O150 2.223 . S
Cd142 O152 2.297 . S
Cd142 O153 2.439 . S
O143 Cd142 2.240 . S
O143 C148 1.279 . S
O144 Cd141 2.297 . S
O144 C146 1.247 . S
O145 Cd141 2.439 . S
O145 C146 1.208 . S
C146 O144 1.247 . S
C146 O145 1.208 . S
C147 O152 1.247 . S
C147 O153 1.208 . S
C148 O140 1.315 . S
C148 O143 1.279 . S
C149 O150 1.315 . S
C149 O151 1.279 . S
O150 Cd142 2.223 . S
O150 C149 1.315 . S
O151 Cd141 2.240 . S
O151 C149 1.279 . S
O152 Cd142 2.297 . S
O152 C147 1.247 . S
O153 Cd142 2.439 . S
O153 C147 1.208 . S
O154 Cd155 2.223 . S
O154 C162 1.315 . S
Cd155 O154 2.223 . S
Cd155 O158 2.297 . S
Cd155 O159 2.439 . S
Cd155 O165 2.240 . S
Cd156 O157 2.240 . S
Cd156 O164 2.223 . S
Cd156 O166 2.297 . S
Cd156 O167 2.439 . S
O157 Cd156 2.240 . S
O157 C162 1.279 . S
O158 Cd155 2.297 . S
O158 C160 1.247 . S
O159 Cd155 2.439 . S
O159 C160 1.208 . S
C160 O158 1.247 . S
C160 O159 1.208 . S
C161 O166 1.247 . S
C161 O167 1.208 . S
C162 O154 1.315 . S
C162 O157 1.279 . S
C163 O164 1.315 . S
C163 O165 1.279 . S
O164 Cd156 2.223 . S
O164 C163 1.315 . S
O165 Cd155 2.240 . S
O165 C163 1.279 . S
O166 Cd156 2.297 . S
O166 C161 1.247 . S
O167 Cd156 2.439 . S
O167 C161 1.208 . S
O168 Cd169 2.223 . S
O168 C176 1.315 . S
Cd169 O168 2.223 . S
Cd169 O172 2.297 . S
Cd169 O173 2.439 . S
Cd169 O179 2.240 . S
Cd170 O171 2.240 . S
Cd170 O178 2.223 . S
Cd170 O180 2.297 . S
Cd170 O181 2.439 . S
O171 Cd170 2.240 . S
O171 C176 1.279 . S
O172 Cd169 2.297 . S
O172 C174 1.247 . S
O173 Cd169 2.439 . S
O173 C174 1.208 . S
C174 O172 1.247 . S
C174 O173 1.208 . S
C175 O180 1.247 . S
C175 O181 1.208 . S
C176 O168 1.315 . S
C176 O171 1.279 . S
C177 O178 1.315 . S
C177 O179 1.279 . S
O178 Cd170 2.223 . S
O178 C177 1.315 . S
O179 Cd169 2.240 . S
O179 C177 1.279 . S
O180 Cd170 2.297 . S
O180 C175 1.247 . S
O181 Cd170 2.439 . S
O181 C175 1.208 . S
O182 Cd183 2.223 . S
O182 C190 1.315 . S
Cd183 O182 2.223 . S
Cd183 O186 2.297 . S
Cd183 O187 2.439 . S
Cd183 O193 2.240 . S
Cd184 O185 2.240 . S
Cd184 O192 2.223 . S
Cd184 O194 2.297 . S
Cd184 O195 2.439 . S
O185 Cd184 2.240 . S
O185 C190 1.279 . S
O186 Cd183 2.297 . S
O186 C188 1.247 . S
O187 Cd183 2.439 . S
O187 C188 1.208 . S
C188 O186 1.247 . S
C188 O187 1.208 . S
C189 O194 1.247 . S
C189 O195 1.208 . S
C190 O182 1.315 . S
C190 O185 1.279 . S
C191 O192 1.315 . S
C191 O193 1.279 . S
O192 Cd184 2.223 . S
O192 C191 1.315 . S
O193 Cd183 2.240 . S
O193 C191 1.279 . S
O194 Cd184 2.297 . S
O194 C189 1.247 . S
O195 Cd184 2.439 . S
O195 C189 1.208 . S
O196 Cd197 2.223 . S
O196 C204 1.315 . S
Cd197 O196 2.223 . S
Cd197 O200 2.297 . S
Cd197 O201 2.439 . S
Cd197 O207 2.240 . S
Cd198 O199 2.240 . S
Cd198 O206 2.223 . S
Cd198 O208 2.297 . S
Cd198 O209 2.439 . S
O199 Cd198 2.240 . S
O199 C204 1.279 . S
O200 Cd197 2.297 . S
O200 C202 1.247 . S
O201 Cd197 2.439 . S
O201 C202 1.208 . S
C202 O200 1.247 . S
C202 O201 1.208 . S
C203 O208 1.247 . S
C203 O209 1.208 . S
C204 O196 1.315 . S
C204 O199 1.279 . S
C205 O206 1.315 . S
C205 O207 1.279 . S
O206 Cd198 2.223 . S
O206 C205 1.315 . S
O207 Cd197 2.240 . S
O207 C205 1.279 . S
O208 Cd198 2.297 . S
O208 C203 1.247 . S
O209 Cd198 2.439 . S
O209 C203 1.208 . S
O210 Cd211 2.223 . S
O210 C218 1.315 . S
Cd211 O210 2.223 . S
Cd211 O214 2.297 . S
Cd211 O215 2.439 . S
Cd211 O221 2.240 . S
Cd212 O213 2.240 . S
Cd212 O220 2.223 . S
Cd212 O222 2.297 . S
Cd212 O223 2.439 . S
O213 Cd212 2.240 . S
O213 C218 1.279 . S
O214 Cd211 2.297 . S
O214 C216 1.247 . S
O215 Cd211 2.439 . S
O215 C216 1.208 . S
C216 O214 1.247 . S
C216 O215 1.208 . S
C217 O222 1.247 . S
C217 O223 1.208 . S
C218 O210 1.315 . S
C218 O213 1.279 . S
C219 O220 1.315 . S
C219 O221 1.279 . S
O220 Cd212 2.223 . S
O220 C219 1.315 . S
O221 Cd211 2.240 . S
O221 C219 1.279 . S
O222 Cd212 2.297 . S
O222 C217 1.247 . S
O223 Cd212 2.439 . S
O223 C217 1.208 . S
O224 Cd225 2.223 . S
O224 C232 1.315 . S
Cd225 O224 2.223 . S
Cd225 O228 2.297 . S
Cd225 O229 2.439 . S
Cd225 O235 2.240 . S
Cd226 O227 2.240 . S
Cd226 O234 2.223 . S
Cd226 O236 2.297 . S
Cd226 O237 2.439 . S
O227 Cd226 2.240 . S
O227 C232 1.279 . S
O228 Cd225 2.297 . S
O228 C230 1.247 . S
O229 Cd225 2.439 . S
O229 C230 1.208 . S
C230 O228 1.247 . S
C230 O229 1.208 . S
C231 O236 1.247 . S
C231 O237 1.208 . S
C232 O224 1.315 . S
C232 O227 1.279 . S
C233 O234 1.315 . S
C233 O235 1.279 . S
O234 Cd226 2.223 . S
O234 C233 1.315 . S
O235 Cd225 2.240 . S
O235 C233 1.279 . S
O236 Cd226 2.297 . S
O236 C231 1.247 . S
O237 Cd226 2.439 . S
O237 C231 1.208 . S
O238 Cd239 2.223 . S
O238 C246 1.315 . S
Cd239 O238 2.223 . S
Cd239 O242 2.297 . S
Cd239 O243 2.439 . S
Cd239 O249 2.240 . S
Cd240 O241 2.240 . S
Cd240 O248 2.223 . S
Cd240 O250 2.297 . S
Cd240 O251 2.439 . S
O241 Cd240 2.240 . S
O241 C246 1.279 . S
O242 Cd239 2.297 . S
O242 C244 1.247 . S
O243 Cd239 2.439 . S
O243 C244 1.208 . S
C244 O242 1.247 . S
C244 O243 1.208 . S
C245 O250 1.247 . S
C245 O251 1.208 . S
C246 O238 1.315 . S
C246 O241 1.279 . S
C247 O248 1.315 . S
C247 O249 1.279 . S
O248 Cd240 2.223 . S
O248 C247 1.315 . S
O249 Cd239 2.240 . S
O249 C247 1.279 . S
O250 Cd240 2.297 . S
O250 C245 1.247 . S
O251 Cd240 2.439 . S
O251 C245 1.208 . S
O252 Cd253 2.223 . S
O252 C260 1.315 . S
Cd253 O252 2.223 . S
Cd253 O256 2.297 . S
Cd253 O257 2.439 . S
Cd253 O263 2.240 . S
Cd254 O255 2.240 . S
Cd254 O262 2.223 . S
Cd254 O264 2.297 . S
Cd254 O265 2.439 . S
O255 Cd254 2.240 . S
O255 C260 1.279 . S
O256 Cd253 2.297 . S
O256 C258 1.247 . S
O257 Cd253 2.439 . S
O257 C258 1.208 . S
C258 O256 1.247 . S
C258 O257 1.208 . S
C259 O264 1.247 . S
C259 O265 1.208 . S
C260 O252 1.315 . S
C260 O255 1.279 . S
C261 O262 1.315 . S
C261 O263 1.279 . S
O262 Cd254 2.223 . S
O262 C261 1.315 . S
O263 Cd253 2.240 . S
O263 C261 1.279 . S
O264 Cd254 2.297 . S
O264 C259 1.247 . S
O265 Cd254 2.439 . S
O265 C259 1.208 . S
O266 Cd267 2.223 . S
O266 C274 1.315 . S
Cd267 O266 2.223 . S
Cd267 O270 2.297 . S
Cd267 O271 2.439 . S
Cd267 O277 2.240 . S
Cd268 O269 2.240 . S
Cd268 O276 2.223 . S
Cd268 O278 2.297 . S
Cd268 O279 2.439 . S
O269 Cd268 2.240 . S
O269 C274 1.279 . S
O270 Cd267 2.297 . S
O270 C272 1.247 . S
O271 Cd267 2.439 . S
O271 C272 1.208 . S
C272 O270 1.247 . S
C272 O271 1.208 . S
C273 O278 1.247 . S
C273 O279 1.208 . S
C274 O266 1.315 . S
C274 O269 1.279 . S
C275 O276 1.315 . S
C275 O277 1.279 . S
O276 Cd268 2.223 . S
O276 C275 1.315 . S
O277 Cd267 2.240 . S
O277 C275 1.279 . S
O278 Cd268 2.297 . S
O278 C273 1.247 . S
O279 Cd268 2.439 . S
O279 C273 1.208 . S
O280 Cd281 2.223 . S
O280 C288 1.315 . S
Cd281 O280 2.223 . S
Cd281 O284 2.297 . S
Cd281 O285 2.439 . S
Cd281 O291 2.240 . S
Cd282 O283 2.240 . S
Cd282 O290 2.223 . S
Cd282 O292 2.297 . S
Cd282 O293 2.439 . S
O283 Cd282 2.240 . S
O283 C288 1.279 . S
O284 Cd281 2.297 . S
O284 C286 1.247 . S
O285 Cd281 2.439 . S
O285 C286 1.208 . S
C286 O284 1.247 . S
C286 O285 1.208 . S
C287 O292 1.247 . S
C287 O293 1.208 . S
C288 O280 1.315 . S
C288 O283 1.279 . S
C289 O290 1.315 . S
C289 O291 1.279 . S
O290 Cd282 2.223 . S
O290 C289 1.315 . S
O291 Cd281 2.240 . S
O291 C289 1.279 . S
O292 Cd282 2.297 . S
O292 C287 1.247 . S
O293 Cd282 2.439 . S
O293 C287 1.208 . S
O294 Cd295 2.223 . S
O294 C302 1.315 . S
Cd295 O294 2.223 . S
Cd295 O298 2.297 . S
Cd295 O299 2.439 . S
Cd295 O305 2.240 . S
Cd296 O297 2.240 . S
Cd296 O304 2.223 . S
Cd296 O306 2.297 . S
Cd296 O307 2.439 . S
O297 Cd296 2.240 . S
O297 C302 1.279 . S
O298 Cd295 2.297 . S
O298 C300 1.247 . S
O299 Cd295 2.439 . S
O299 C300 1.208 . S
C300 O298 1.247 . S
C300 O299 1.208 . S
C301 O306 1.247 . S
C301 O307 1.208 . S
C302 O294 1.315 . S
C302 O297 1.279 . S
C303 O304 1.315 . S
C303 O305 1.279 . S
O304 Cd296 2.223 . S
O304 C303 1.315 . S
O305 Cd295 2.240 . S
O305 C303 1.279 . S
O306 Cd296 2.297 . S
O306 C301 1.247 . S
O307 Cd296 2.439 . S
O307 C301 1.208 . S
O308 Cd309 2.223 . S
O308 C316 1.315 . S
Cd309 O308 2.223 . S
Cd309 O312 2.297 . S
Cd309 O313 2.439 . S
Cd309 O319 2.240 . S
Cd310 O311 2.240 . S
Cd310 O318 2.223 . S
Cd310 O320 2.297 . S
Cd310 O321 2.439 . S
O311 Cd310 2.240 . S
O311 C316 1.279 . S
O312 Cd309 2.297 . S
O312 C314 1.247 . S
O313 Cd309 2.439 . S
O313 C314 1.208 . S
C314 O312 1.247 . S
C314 O313 1.208 . S
C315 O320 1.247 . S
C315 O321 1.208 . S
C316 O308 1.315 . S
C316 O311 1.279 . S
C317 O318 1.315 . S
C317 O319 1.279 . S
O318 Cd310 2.223 . S
O318 C317 1.315 . S
O319 Cd309 2.240 . S
O319 C317 1.279 . S
O320 Cd310 2.297 . S
O320 C315 1.247 . S
O321 Cd310 2.439 . S
O321 C315 1.208 . S
O322 Cd323 2.223 . S
O322 C330 1.315 . S
Cd323 O322 2.223 . S
Cd323 O326 2.297 . S
Cd323 O327 2.439 . S
Cd323 O333 2.240 . S
Cd324 O325 2.240 . S
Cd324 O332 2.223 . S
Cd324 O334 2.297 . S
Cd324 O335 2.439 . S
O325 Cd324 2.240 . S
O325 C330 1.279 . S
O326 Cd323 2.297 . S
O326 C328 1.247 . S
O327 Cd323 2.439 . S
O327 C328 1.208 . S
C328 O326 1.247 . S
C328 O327 1.208 . S
C329 O334 1.247 . S
C329 O335 1.208 . S
C330 O322 1.315 . S
C330 O325 1.279 . S
C331 O332 1.315 . S
C331 O333 1.279 . S
O332 Cd324 2.223 . S
O332 C331 1.315 . S
O333 Cd323 2.240 . S
O333 C331 1.279 . S
O334 Cd324 2.297 . S
O334 C329 1.247 . S
O335 Cd324 2.439 . S
O335 C329 1.208 . S
O336 Cd337 2.223 . S
O336 C344 1.315 . S
Cd337 O336 2.223 . S
Cd337 O340 2.297 . S
Cd337 O341 2.439 . S
Cd337 O347 2.240 . S
Cd338 O339 2.240 . S
Cd338 O346 2.223 . S
Cd338 O348 2.297 . S
Cd338 O349 2.439 . S
O339 Cd338 2.240 . S
O339 C344 1.279 . S
O340 Cd337 2.297 . S
O340 C342 1.247 . S
O341 Cd337 2.439 . S
O341 C342 1.208 . S
C342 O340 1.247 . S
C342 O341 1.208 . S
C343 O348 1.247 . S
C343 O349 1.208 . S
C344 O336 1.315 . S
C344 O339 1.279 . S
C345 O346 1.315 . S
C345 O347 1.279 . S
O346 Cd338 2.223 . S
O346 C345 1.315 . S
O347 Cd337 2.240 . S
O347 C345 1.279 . S
O348 Cd338 2.297 . S
O348 C343 1.247 . S
O349 Cd338 2.439 . S
O349 C343 1.208 . S
O350 Cd351 2.223 . S
O350 C358 1.315 . S
Cd351 O350 2.223 . S
Cd351 O354 2.297 . S
Cd351 O355 2.439 . S
Cd351 O361 2.240 . S
Cd352 O353 2.240 . S
Cd352 O360 2.223 . S
Cd352 O362 2.297 . S
Cd352 O363 2.439 . S
O353 Cd352 2.240 . S
O353 C358 1.279 . S
O354 Cd351 2.297 . S
O354 C356 1.247 . S
O355 Cd351 2.439 . S
O355 C356 1.208 . S
C356 O354 1.247 . S
C356 O355 1.208 . S
C357 O362 1.247 . S
C357 O363 1.208 . S
C358 O350 1.315 . S
C358 O353 1.279 . S
C359 O360 1.315 . S
C359 O361 1.279 . S
O360 Cd352 2.223 . S
O360 C359 1.315 . S
O361 Cd351 2.240 . S
O361 C359 1.279 . S
O362 Cd352 2.297 . S
O362 C357 1.247 . S
O363 Cd352 2.439 . S
O363 C357 1.208 . S
O364 Cd365 2.223 . S
O364 C372 1.315 . S
Cd365 O364 2.223 . S
Cd365 O368 2.297 . S
Cd365 O369 2.439 . S
Cd365 O375 2.240 . S
Cd366 O367 2.240 . S
Cd366 O374 2.223 . S
Cd366 O376 2.297 . S
Cd366 O377 2.439 . S
O367 Cd366 2.240 . S
O367 C372 1.279 . S
O368 Cd365 2.297 . S
O368 C370 1.247 . S
O369 Cd365 2.439 . S
O369 C370 1.208 . S
C370 O368 1.247 . S
C370 O369 1.208 . S
C371 O376 1.247 . S
C371 O377 1.208 . S
C372 O364 1.315 . S
C372 O367 1.279 . S
C373 O374 1.315 . S
C373 O375 1.279 . S
O374 Cd366 2.223 . S
O374 C373 1.315 . S
O375 Cd365 2.240 . S
O375 C373 1.279 . S
O376 Cd366 2.297 . S
O376 C371 1.247 . S
O377 Cd366 2.439 . S
O377 C371 1.208 . S
O378 Cd379 2.223 . S
O378 C386 1.315 . S
Cd379 O378 2.223 . S
Cd379 O382 2.297 . S
Cd379 O383 2.439 . S
Cd379 O389 2.240 . S
Cd380 O381 2.240 . S
Cd380 O388 2.223 . S
Cd380 O390 2.297 1_655 S
Cd380 O391 2.439 . S
O381 Cd380 2.240 . S
O381 C386 1.279 . S
O382 Cd379 2.297 . S
O382 C384 1.247 . S
O383 Cd379 2.439 . S
O383 C384 1.208 . S
C384 O382 1.247 . S
C384 O383 1.208 . S
C385 O390 1.247 1_655 S
C385 O391 1.208 . S
C386 O378 1.315 . S
C386 O381 1.279 . S
C387 O388 1.315 . S
C387 O389 1.279 . S
O388 Cd380 2.223 . S
O388 C387 1.315 . S
O389 Cd379 2.240 . S
O389 C387 1.279 . S
O390 Cd380 2.297 1_455 S
O390 C385 1.247 1_455 S
O391 Cd380 2.439 . S
O391 C385 1.208 . S
O392 Cd393 2.223 . S
O392 C400 1.315 . S
Cd393 O392 2.223 . S
Cd393 O396 2.297 . S
Cd393 O397 2.439 . S
Cd393 O403 2.240 . S
Cd394 O395 2.240 . S
Cd394 O402 2.223 . S
Cd394 O404 2.297 . S
Cd394 O405 2.439 . S
O395 Cd394 2.240 . S
O395 C400 1.279 . S
O396 Cd393 2.297 . S
O396 C398 1.247 . S
O397 Cd393 2.439 . S
O397 C398 1.208 . S
C398 O396 1.247 . S
C398 O397 1.208 . S
C399 O404 1.247 . S
C399 O405 1.208 . S
C400 O392 1.315 . S
C400 O395 1.279 . S
C401 O402 1.315 . S
C401 O403 1.279 . S
O402 Cd394 2.223 . S
O402 C401 1.315 . S
O403 Cd393 2.240 . S
O403 C401 1.279 . S
O404 Cd394 2.297 . S
O404 C399 1.247 . S
O405 Cd394 2.439 . S
O405 C399 1.208 . S
O406 Cd407 2.223 . S
O406 C414 1.315 . S
Cd407 O406 2.223 . S
Cd407 O410 2.297 . S
Cd407 O411 2.439 . S
Cd407 O417 2.240 . S
Cd408 O409 2.240 . S
Cd408 O416 2.223 . S
Cd408 O418 2.297 . S
Cd408 O419 2.439 . S
O409 Cd408 2.240 . S
O409 C414 1.279 . S
O410 Cd407 2.297 . S
O410 C412 1.247 . S
O411 Cd407 2.439 . S
O411 C412 1.208 . S
C412 O410 1.247 . S
C412 O411 1.208 . S
C413 O418 1.247 . S
C413 O419 1.208 . S
C414 O406 1.315 . S
C414 O409 1.279 . S
C415 O416 1.315 . S
C415 O417 1.279 . S
O416 Cd408 2.223 . S
O416 C415 1.315 . S
O417 Cd407 2.240 . S
O417 C415 1.279 . S
O418 Cd408 2.297 . S
O418 C413 1.247 . S
O419 Cd408 2.439 . S
O419 C413 1.208 . S
O420 Cd421 2.223 . S
O420 C428 1.315 . S
Cd421 O420 2.223 . S
Cd421 O424 2.297 . S
Cd421 O425 2.439 . S
Cd421 O431 2.240 . S
Cd422 O423 2.240 . S
Cd422 O430 2.223 . S
Cd422 O432 2.297 . S
Cd422 O433 2.439 . S
O423 Cd422 2.240 . S
O423 C428 1.279 . S
O424 Cd421 2.297 . S
O424 C426 1.247 . S
O425 Cd421 2.439 . S
O425 C426 1.208 . S
C426 O424 1.247 . S
C426 O425 1.208 . S
C427 O432 1.247 . S
C427 O433 1.208 . S
C428 O420 1.315 . S
C428 O423 1.279 . S
C429 O430 1.315 . S
C429 O431 1.279 . S
O430 Cd422 2.223 . S
O430 C429 1.315 . S
O431 Cd421 2.240 . S
O431 C429 1.279 . S
O432 Cd422 2.297 . S
O432 C427 1.247 . S
O433 Cd422 2.439 . S
O433 C427 1.208 . S
O434 Cd435 2.223 . S
O434 C442 1.315 . S
Cd435 O434 2.223 . S
Cd435 O438 2.297 . S
Cd435 O439 2.439 . S
Cd435 O445 2.240 . S
Cd436 O437 2.240 . S
Cd436 O444 2.223 . S
Cd436 O446 2.297 . S
Cd436 O447 2.439 . S
O437 Cd436 2.240 . S
O437 C442 1.279 . S
O438 Cd435 2.297 . S
O438 C440 1.247 . S
O439 Cd435 2.439 . S
O439 C440 1.208 . S
C440 O438 1.247 . S
C440 O439 1.208 . S
C441 O446 1.247 . S
C441 O447 1.208 . S
C442 O434 1.315 . S
C442 O437 1.279 . S
C443 O444 1.315 . S
C443 O445 1.279 . S
O444 Cd436 2.223 . S
O444 C443 1.315 . S
O445 Cd435 2.240 . S
O445 C443 1.279 . S
O446 Cd436 2.297 . S
O446 C441 1.247 . S
O447 Cd436 2.439 . S
O447 C441 1.208 . S
H448 C460 0.930 . S
H449 C462 0.930 . S
H450 C463 0.930 . S
H451 C467 0.959 . S
H452 C467 0.959 . S
H453 C467 0.961 1_455 S
H454 C468 0.960 . S
H455 C468 0.961 . S
H456 C468 0.959 1_554 S
H457 C471 0.929 . S
H458 C472 0.931 . S
H459 C474 0.930 . S
C460 H448 0.930 . S
C460 C461 1.399 . S
C460 C465 1.399 1_445 S
C461 C460 1.399 . S
C461 C462 1.376 1_445 S
C462 H449 0.930 . S
C462 C461 1.376 1_665 S
C462 C463 1.388 . S
C463 H450 0.930 . S
C463 C462 1.388 . S
C463 C464 1.390 . S
C464 C463 1.390 . S
C464 C465 1.394 . S
C464 C470 1.465 . S
C465 C460 1.399 1_665 S
C465 C464 1.394 . S
C465 C466 1.516 . S
C466 C465 1.516 . S
C466 C467 1.502 1_564 S
C466 C468 1.561 1_654 S
C466 C469 1.525 1_554 S
C467 H451 0.959 . S
C467 H452 0.959 . S
C467 H453 0.961 1_655 S
C467 C466 1.502 1_546 S
C468 H454 0.960 . S
C468 H455 0.961 . S
C468 H456 0.959 1_556 S
C468 C466 1.561 1_456 S
C469 C466 1.525 1_556 S
C469 C470 1.383 1_556 S
C469 C474 1.401 . S
C470 C464 1.465 . S
C470 C469 1.383 1_554 S
C470 C471 1.399 . S
C471 H457 0.929 . S
C471 C470 1.399 . S
C471 C472 1.385 . S
C472 H458 0.931 . S
C472 C471 1.385 . S
C472 C473 1.389 1_554 S
C473 C472 1.389 1_556 S
C473 C474 1.387 . S
C474 H459 0.930 . S
C474 C469 1.401 . S
C474 C473 1.387 . S
H475 C487 0.930 . S
H476 C489 0.930 . S
H477 C490 0.930 . S
H478 C494 0.959 . S
H479 C494 0.959 . S
H480 C494 0.961 . S
H481 C495 0.960 . S
H482 C495 0.961 . S
H483 C495 0.959 . S
H484 C498 0.929 . S
H485 C499 0.931 . S
H486 C501 0.930 . S
C487 H475 0.930 . S
C487 C488 1.399 . S
C487 C492 1.399 . S
C488 C487 1.399 . S
C488 C489 1.376 . S
C489 H476 0.930 . S
C489 C488 1.376 . S
C489 C490 1.388 . S
C490 H477 0.930 . S
C490 C489 1.388 . S
C490 C491 1.390 . S
C491 C490 1.390 . S
C491 C492 1.394 . S
C491 C497 1.465 . S
C492 C487 1.399 . S
C492 C491 1.394 . S
C492 C493 1.516 . S
C493 C492 1.516 . S
C493 C494 1.502 . S
C493 C495 1.561 . S
C493 C496 1.526 . S
C494 H478 0.959 . S
C494 H479 0.959 . S
C494 H480 0.961 . S
C494 C493 1.502 . S
C495 H481 0.960 . S
C495 H482 0.961 . S
C495 H483 0.959 . S
C495 C493 1.561 . S
C496 C493 1.526 . S
C496 C497 1.396 . S
C496 C501 1.390 . S
C497 C491 1.465 . S
C497 C496 1.396 . S
C497 C498 1.399 . S
C498 H484 0.929 . S
C498 C497 1.399 . S
C498 C499 1.385 . S
C499 H485 0.931 . S
C499 C498 1.385 . S
C499 C500 1.389 . S
C500 C499 1.389 . S
C500 C501 1.387 . S
C501 H486 0.930 . S
C501 C496 1.390 . S
C501 C500 1.387 . S
H502 C514 0.930 . S
H503 C516 0.930 . S
H504 C517 0.930 . S
H505 C521 0.959 . S
H506 C521 0.959 . S
H507 C521 0.961 . S
H508 C522 0.960 . S
H509 C522 0.961 . S
H510 C522 0.959 . S
H511 C525 0.929 . S
H512 C526 0.931 . S
H513 C528 0.930 . S
C514 H502 0.930 . S
C514 C515 1.399 1_545 S
C514 C519 1.399 . S
C515 C514 1.399 1_565 S
C515 C516 1.376 . S
C516 H503 0.930 . S
C516 C515 1.376 . S
C516 C517 1.388 . S
C517 H504 0.930 . S
C517 C516 1.388 . S
C517 C518 1.390 1_565 S
C518 C517 1.390 1_545 S
C518 C519 1.394 . S
C518 C524 1.465 . S
C519 C514 1.399 . S
C519 C518 1.394 . S
C519 C520 1.516 . S
C520 C519 1.516 . S
C520 C521 1.502 . S
C520 C522 1.561 . S
C520 C523 1.526 . S
C521 H505 0.959 . S
C521 H506 0.959 . S
C521 H507 0.961 . S
C521 C520 1.502 . S
C522 H508 0.960 . S
C522 H509 0.961 . S
C522 H510 0.959 . S
C522 C520 1.561 . S
C523 C520 1.526 . S
C523 C524 1.396 . S
C523 C528 1.390 . S
C524 C518 1.465 . S
C524 C523 1.396 . S
C524 C525 1.399 . S
C525 H511 0.929 . S
C525 C524 1.399 . S
C525 C526 1.385 . S
C526 H512 0.931 . S
C526 C525 1.385 . S
C526 C527 1.389 . S
C527 C526 1.389 . S
C527 C528 1.387 . S
C528 H513 0.930 . S
C528 C523 1.390 . S
C528 C527 1.387 . S
H529 C541 0.930 . S
H530 C543 0.930 . S
H531 C544 0.930 . S
H532 C548 0.959 . S
H533 C548 0.959 . S
H534 C548 0.961 . S
H535 C549 0.960 . S
H536 C549 0.961 . S
H537 C549 0.959 . S
H538 C552 0.929 . S
H539 C553 0.931 . S
H540 C555 0.930 . S
C541 H529 0.930 . S
C541 C542 1.399 . S
C541 C546 1.399 . S
C542 C541 1.399 . S
C542 C543 1.376 . S
C543 H530 0.930 . S
C543 C542 1.376 . S
C543 C544 1.388 . S
C544 H531 0.930 . S
C544 C543 1.388 . S
C544 C545 1.390 . S
C545 C544 1.390 . S
C545 C546 1.394 . S
C545 C551 1.465 . S
C546 C541 1.399 . S
C546 C545 1.394 . S
C546 C547 1.516 . S
C547 C546 1.516 . S
C547 C548 1.502 . S
C547 C549 1.561 . S
C547 C550 1.526 . S
C548 H532 0.959 . S
C548 H533 0.959 . S
C548 H534 0.961 . S
C548 C547 1.502 . S
C549 H535 0.960 . S
C549 H536 0.961 . S
C549 H537 0.959 . S
C549 C547 1.561 . S
C550 C547 1.526 . S
C550 C551 1.396 . S
C550 C555 1.390 . S
C551 C545 1.465 . S
C551 C550 1.396 . S
C551 C552 1.399 . S
C552 H538 0.929 . S
C552 C551 1.399 . S
C552 C553 1.385 . S
C553 H539 0.931 . S
C553 C552 1.385 . S
C553 C554 1.389 . S
C554 C553 1.389 . S
C554 C555 1.387 . S
C555 H540 0.930 . S
C555 C550 1.390 . S
C555 C554 1.387 . S
H556 C568 0.930 . S
H557 C570 0.930 . S
H558 C571 0.930 . S
H559 C575 0.959 1_545 S
H560 C575 0.959 1_545 S
H561 C575 0.961 . S
H562 C576 0.960 . S
H563 C576 0.961 . S
H564 C576 0.959 . S
H565 C579 0.929 . S
H566 C580 0.923 1_545 S
H567 C582 0.930 1_545 S
C568 H556 0.930 . S
C568 C569 1.399 1_655 S
C568 C573 1.399 . S
C569 C568 1.399 1_455 S
C569 C570 1.376 . S
C570 H557 0.930 . S
C570 C569 1.376 . S
C570 C571 1.388 . S
C571 H558 0.930 . S
C571 C570 1.388 . S
C571 C572 1.390 1_455 S
C572 C571 1.390 1_655 S
C572 C573 1.394 . S
C572 C578 1.465 . S
C573 C568 1.399 . S
C573 C572 1.394 . S
C573 C574 1.516 . S
C574 C573 1.516 . S
C574 C575 1.502 . S
C574 C576 1.561 . S
C574 C577 1.526 . S
C575 H559 0.959 1_565 S
C575 H560 0.959 1_565 S
C575 H561 0.961 . S
C575 C574 1.502 . S
C576 H562 0.960 . S
C576 H563 0.961 . S
C576 H564 0.959 . S
C576 C574 1.561 . S
C577 C574 1.526 . S
C577 C578 1.396 . S
C577 C582 1.390 . S
C578 C572 1.465 . S
C578 C577 1.396 . S
C578 C579 1.399 . S
C579 H565 0.929 . S
C579 C578 1.399 . S
C579 C580 1.385 . S
C580 H566 0.923 1_565 S
C580 C579 1.385 . S
C580 C581 1.389 1_565 S
C581 C580 1.389 1_545 S
C581 C582 1.387 1_545 S
C582 H567 0.930 1_565 S
C582 C577 1.390 . S
C582 C581 1.387 1_565 S
H583 C595 0.930 . S
H584 C597 0.930 . S
H585 C598 0.930 . S
H586 C602 0.959 . S
H587 C602 0.959 . S
H588 C602 0.961 . S
H589 C603 0.960 . S
H590 C603 0.961 . S
H591 C603 0.959 . S
H592 C606 0.929 . S
H593 C607 0.931 . S
H594 C609 0.930 . S
C595 H583 0.930 . S
C595 C596 1.399 . S
C595 C600 1.399 . S
C596 C595 1.399 . S
C596 C597 1.376 . S
C597 H584 0.930 . S
C597 C596 1.376 . S
C597 C598 1.388 . S
C598 H585 0.930 . S
C598 C597 1.388 . S
C598 C599 1.390 . S
C599 C598 1.390 . S
C599 C600 1.394 . S
C599 C605 1.465 . S
C600 C595 1.399 . S
C600 C599 1.394 . S
C600 C601 1.516 . S
C601 C600 1.516 . S
C601 C602 1.502 . S
C601 C603 1.561 . S
C601 C604 1.526 . S
C602 H586 0.959 . S
C602 H587 0.959 . S
C602 H588 0.961 . S
C602 C601 1.502 . S
C603 H589 0.960 . S
C603 H590 0.961 . S
C603 H591 0.959 . S
C603 C601 1.561 . S
C604 C601 1.526 . S
C604 C605 1.396 . S
C604 C609 1.390 . S
C605 C599 1.465 . S
C605 C604 1.396 . S
C605 C606 1.399 . S
C606 H592 0.929 . S
C606 C605 1.399 . S
C606 C607 1.385 . S
C607 H593 0.931 . S
C607 C606 1.385 . S
C607 C608 1.389 . S
C608 C607 1.389 . S
C608 C609 1.387 . S
C609 H594 0.930 . S
C609 C604 1.390 . S
C609 C608 1.387 . S
H610 C622 0.930 1_554 S
H611 C624 0.930 . S
H612 C625 0.930 1_565 S
H613 C629 0.959 . S
H614 C629 0.959 . S
H615 C629 0.961 . S
H616 C630 0.960 . S
H617 C630 0.961 . S
H618 C630 0.959 . S
H619 C633 0.929 1_556 S
H620 C634 0.931 . S
H621 C636 0.930 . S
C622 H610 0.930 1_556 S
C622 C623 1.399 . S
C622 C627 1.399 1_556 S
C623 C622 1.399 . S
C623 C624 1.376 . S
C624 H611 0.930 . S
C624 C623 1.376 . S
C624 C625 1.388 . S
C625 H612 0.930 1_545 S
C625 C624 1.388 . S
C625 C626 1.390 . S
C626 C625 1.390 . S
C626 C627 1.394 1_556 S
C626 C632 1.465 1_546 S
C627 C622 1.399 1_554 S
C627 C626 1.394 1_554 S
C627 C628 1.516 . S
C628 C627 1.516 . S
C628 C629 1.502 . S
C628 C630 1.561 . S
C628 C631 1.526 . S
C629 H613 0.959 . S
C629 H614 0.959 . S
C629 H615 0.961 . S
C629 C628 1.502 . S
C630 H616 0.960 . S
C630 H617 0.961 . S
C630 H618 0.959 . S
C630 C628 1.561 . S
C631 C628 1.526 . S
C631 C632 1.396 1_545 S
C631 C636 1.390 . S
C632 C626 1.465 1_564 S
C632 C631 1.396 1_565 S
C632 C633 1.399 . S
C633 H619 0.929 1_554 S
C633 C632 1.399 . S
C633 C634 1.385 . S
C634 H620 0.931 . S
C634 C633 1.385 . S
C634 C635 1.389 . S
C635 C634 1.389 . S
C635 C636 1.387 1_565 S
C636 H621 0.930 . S
C636 C631 1.390 . S
C636 C635 1.387 1_545 S
H637 C649 0.930 . S
H638 C651 0.930 . S
H639 C652 0.930 . S
H640 C656 0.959 . S
H641 C656 0.959 . S
H642 C656 0.961 . S
H643 C657 0.960 . S
H644 C657 0.961 . S
H645 C657 0.959 . S
H646 C660 0.929 . S
H647 C661 0.931 . S
H648 C663 0.930 . S
C649 H637 0.930 . S
C649 C650 1.399 . S
C649 C654 1.399 . S
C650 C649 1.399 . S
C650 C651 1.376 . S
C651 H638 0.930 . S
C651 C650 1.376 . S
C651 C652 1.388 . S
C652 H639 0.930 . S
C652 C651 1.388 . S
C652 C653 1.390 . S
C653 C652 1.390 . S
C653 C654 1.394 . S
C653 C659 1.465 . S
C654 C649 1.399 . S
C654 C653 1.394 . S
C654 C655 1.516 . S
C655 C654 1.516 . S
C655 C656 1.502 . S
C655 C657 1.561 . S
C655 C658 1.526 . S
C656 H640 0.959 . S
C656 H641 0.959 . S
C656 H642 0.961 . S
C656 C655 1.502 . S
C657 H643 0.960 . S
C657 H644 0.961 . S
C657 H645 0.959 . S
C657 C655 1.561 . S
C658 C655 1.526 . S
C658 C659 1.396 . S
C658 C663 1.390 . S
C659 C653 1.465 . S
C659 C658 1.396 . S
C659 C660 1.399 . S
C660 H646 0.929 . S
C660 C659 1.399 . S
C660 C661 1.385 . S
C661 H647 0.931 . S
C661 C660 1.385 . S
C661 C662 1.389 . S
C662 C661 1.389 . S
C662 C663 1.387 . S
C663 H648 0.930 . S
C663 C658 1.390 . S
C663 C662 1.387 . S
H664 C676 0.930 . S
H665 C678 0.930 . S
H666 C679 0.930 1_556 S
H667 C683 0.959 . S
H668 C683 0.959 . S
H669 C683 0.961 1_554 S
H670 C684 0.960 . S
H671 C684 0.961 . S
H672 C684 0.959 . S
H673 C687 0.929 . S
H674 C688 0.931 . S
H675 C690 0.930 . S
C676 H664 0.930 . S
C676 C677 1.399 . S
C676 C681 1.399 . S
C677 C676 1.399 . S
C677 C678 1.376 . S
C678 H665 0.930 . S
C678 C677 1.376 . S
C678 C679 1.388 . S
C679 H666 0.930 1_554 S
C679 C678 1.388 . S
C679 C680 1.390 1_554 S
C680 C679 1.390 1_556 S
C680 C681 1.394 1_556 S
C680 C686 1.465 . S
C681 C676 1.399 . S
C681 C680 1.394 1_554 S
C681 C682 1.516 . S
C682 C681 1.516 . S
C682 C683 1.502 1_554 S
C682 C684 1.561 . S
C682 C685 1.526 1_554 S
C683 H667 0.959 . S
C683 H668 0.959 . S
C683 H669 0.961 1_556 S
C683 C682 1.502 1_556 S
C684 H670 0.960 . S
C684 H671 0.961 . S
C684 H672 0.959 . S
C684 C682 1.561 . S
C685 C682 1.526 1_556 S
C685 C686 1.396 . S
C685 C690 1.390 . S
C686 C680 1.465 . S
C686 C685 1.396 . S
C686 C687 1.399 . S
C687 H673 0.929 . S
C687 C686 1.399 . S
C687 C688 1.385 . S
C688 H674 0.931 . S
C688 C687 1.385 . S
C688 C689 1.389 . S
C689 C688 1.389 . S
C689 C690 1.387 . S
C690 H675 0.930 . S
C690 C685 1.390 . S
C690 C689 1.387 . S
H691 C703 0.930 . S
H692 C705 0.930 . S
H693 C706 0.930 . S
H694 C710 0.959 . S
H695 C710 0.959 . S
H696 C710 0.961 . S
H697 C711 0.960 . S
H698 C711 0.961 . S
H699 C711 0.959 . S
H700 C714 0.929 . S
H701 C715 0.931 . S
H702 C717 0.930 . S
C703 H691 0.930 . S
C703 C704 1.399 . S
C703 C708 1.399 . S
C704 C703 1.399 . S
C704 C705 1.376 . S
C705 H692 0.930 . S
C705 C704 1.376 . S
C705 C706 1.388 . S
C706 H693 0.930 . S
C706 C705 1.388 . S
C706 C707 1.390 . S
C707 C706 1.390 . S
C707 C708 1.394 . S
C707 C713 1.465 . S
C708 C703 1.399 . S
C708 C707 1.394 . S
C708 C709 1.516 . S
C709 C708 1.516 . S
C709 C710 1.502 . S
C709 C711 1.561 . S
C709 C712 1.526 . S
C710 H694 0.959 . S
C710 H695 0.959 . S
C710 H696 0.961 . S
C710 C709 1.502 . S
C711 H697 0.960 . S
C711 H698 0.961 . S
C711 H699 0.959 . S
C711 C709 1.561 . S
C712 C709 1.526 . S
C712 C713 1.396 . S
C712 C717 1.390 . S
C713 C707 1.465 . S
C713 C712 1.396 . S
C713 C714 1.399 . S
C714 H700 0.929 . S
C714 C713 1.399 . S
C714 C715 1.385 . S
C715 H701 0.931 . S
C715 C714 1.385 . S
C715 C716 1.389 . S
C716 C715 1.389 . S
C716 C717 1.387 . S
C717 H702 0.930 . S
C717 C712 1.390 . S
C717 C716 1.387 . S
H718 C730 0.930 . S
H719 C732 0.930 . S
H720 C733 0.930 . S
H721 C737 0.959 . S
H722 C737 0.959 . S
H723 C737 0.961 . S
H724 C738 0.960 . S
H725 C738 0.961 . S
H726 C738 0.959 . S
H727 C741 0.929 1_455 S
H728 C742 0.931 . S
H729 C744 0.930 . S
C730 H718 0.930 . S
C730 C731 1.399 . S
C730 C735 1.399 . S
C731 C730 1.399 . S
C731 C732 1.376 . S
C732 H719 0.930 . S
C732 C731 1.376 . S
C732 C733 1.388 . S
C733 H720 0.930 . S
C733 C732 1.388 . S
C733 C734 1.390 . S
C734 C733 1.390 . S
C734 C735 1.394 . S
C734 C740 1.465 1_455 S
C735 C730 1.399 . S
C735 C734 1.394 . S
C735 C736 1.516 1_455 S
C736 C735 1.516 1_655 S
C736 C737 1.502 . S
C736 C738 1.561 . S
C736 C739 1.526 . S
C737 H721 0.959 . S
C737 H722 0.959 . S
C737 H723 0.961 . S
C737 C736 1.502 . S
C738 H724 0.960 . S
C738 H725 0.961 . S
C738 H726 0.959 . S
C738 C736 1.561 . S
C739 C736 1.526 . S
C739 C740 1.396 . S
C739 C744 1.390 . S
C740 C734 1.465 1_655 S
C740 C739 1.396 . S
C740 C741 1.399 . S
C741 H727 0.929 1_655 S
C741 C740 1.399 . S
C741 C742 1.385 . S
C742 H728 0.931 . S
C742 C741 1.385 . S
C742 C743 1.389 . S
C743 C742 1.389 . S
C743 C744 1.387 . S
C744 H729 0.930 . S
C744 C739 1.390 . S
C744 C743 1.387 . S
H745 C757 0.930 . S
H746 C759 0.930 . S
H747 C760 0.930 . S
H748 C764 0.959 . S
H749 C764 0.959 . S
H750 C764 0.961 . S
H751 C765 0.960 . S
H752 C765 0.961 . S
H753 C765 0.959 . S
H754 C768 0.929 . S
H755 C769 0.931 . S
H756 C771 0.930 . S
C757 H745 0.930 . S
C757 C758 1.399 . S
C757 C762 1.399 . S
C758 C757 1.399 . S
C758 C759 1.376 . S
C759 H746 0.930 . S
C759 C758 1.376 . S
C759 C760 1.388 . S
C760 H747 0.930 . S
C760 C759 1.388 . S
C760 C761 1.390 . S
C761 C760 1.390 . S
C761 C762 1.394 . S
C761 C767 1.465 . S
C762 C757 1.399 . S
C762 C761 1.394 . S
C762 C763 1.516 . S
C763 C762 1.516 . S
C763 C764 1.502 . S
C763 C765 1.561 . S
C763 C766 1.526 . S
C764 H748 0.959 . S
C764 H749 0.959 . S
C764 H750 0.961 . S
C764 C763 1.502 . S
C765 H751 0.960 . S
C765 H752 0.961 . S
C765 H753 0.959 . S
C765 C763 1.561 . S
C766 C763 1.526 . S
C766 C767 1.396 . S
C766 C771 1.390 . S
C767 C761 1.465 . S
C767 C766 1.396 . S
C767 C768 1.399 . S
C768 H754 0.929 . S
C768 C767 1.399 . S
C768 C769 1.385 . S
C769 H755 0.931 . S
C769 C768 1.385 . S
C769 C770 1.389 . S
C770 C769 1.389 . S
C770 C771 1.387 . S
C771 H756 0.930 . S
C771 C766 1.390 . S
C771 C770 1.387 . S
H772 C784 0.930 . S
H773 C786 0.930 . S
H774 C787 0.930 . S
H775 C791 0.959 . S
H776 C791 0.959 . S
H777 C791 0.961 . S
H778 C792 0.960 . S
H779 C792 0.961 . S
H780 C792 0.959 . S
H781 C795 0.929 . S
H782 C796 0.931 . S
H783 C798 0.930 . S
C784 H772 0.930 . S
C784 C785 1.399 . S
C784 C789 1.399 . S
C785 C784 1.399 . S
C785 C786 1.376 . S
C786 H773 0.930 . S
C786 C785 1.376 . S
C786 C787 1.388 . S
C787 H774 0.930 . S
C787 C786 1.388 . S
C787 C788 1.390 . S
C788 C787 1.390 . S
C788 C789 1.394 . S
C788 C794 1.465 . S
C789 C784 1.399 . S
C789 C788 1.394 . S
C789 C790 1.516 . S
C790 C789 1.516 . S
C790 C791 1.502 . S
C790 C792 1.561 . S
C790 C793 1.526 . S
C791 H775 0.959 . S
C791 H776 0.959 . S
C791 H777 0.961 . S
C791 C790 1.502 . S
C792 H778 0.960 . S
C792 H779 0.961 . S
C792 H780 0.959 . S
C792 C790 1.561 . S
C793 C790 1.526 . S
C793 C794 1.396 . S
C793 C798 1.390 . S
C794 C788 1.465 . S
C794 C793 1.396 . S
C794 C795 1.399 . S
C795 H781 0.929 . S
C795 C794 1.399 . S
C795 C796 1.385 . S
C796 H782 0.931 . S
C796 C795 1.385 . S
C796 C797 1.389 . S
C797 C796 1.389 . S
C797 C798 1.387 . S
C798 H783 0.930 . S
C798 C793 1.390 . S
C798 C797 1.387 . S
H799 C811 0.930 . S
H800 C813 0.930 . S
H801 C814 0.930 . S
H802 C818 0.959 . S
H803 C818 0.959 . S
H804 C818 0.961 . S
H805 C819 0.960 . S
H806 C819 0.961 . S
H807 C819 0.959 . S
H808 C822 0.929 . S
H809 C823 0.931 . S
H810 C825 0.930 . S
C811 H799 0.930 . S
C811 C812 1.399 . S
C811 C816 1.399 . S
C812 C811 1.399 . S
C812 C813 1.376 . S
C813 H800 0.930 . S
C813 C812 1.376 . S
C813 C814 1.388 . S
C814 H801 0.930 . S
C814 C813 1.388 . S
C814 C815 1.390 . S
C815 C814 1.390 . S
C815 C816 1.394 . S
C815 C821 1.465 . S
C816 C811 1.399 . S
C816 C815 1.394 . S
C816 C817 1.516 . S
C817 C816 1.516 . S
C817 C818 1.502 . S
C817 C819 1.561 . S
C817 C820 1.526 . S
C818 H802 0.959 . S
C818 H803 0.959 . S
C818 H804 0.961 . S
C818 C817 1.502 . S
C819 H805 0.960 . S
C819 H806 0.961 . S
C819 H807 0.959 . S
C819 C817 1.561 . S
C820 C817 1.526 . S
C820 C821 1.396 . S
C820 C825 1.390 . S
C821 C815 1.465 . S
C821 C820 1.396 . S
C821 C822 1.399 . S
C822 H808 0.929 . S
C822 C821 1.399 . S
C822 C823 1.385 . S
C823 H809 0.931 . S
C823 C822 1.385 . S
C823 C824 1.389 . S
C824 C823 1.389 . S
C824 C825 1.387 . S
C825 H810 0.930 . S
C825 C820 1.390 . S
C825 C824 1.387 . S
H826 C838 0.930 . S
H827 C840 0.930 . S
H828 C841 0.930 . S
H829 C845 0.959 . S
H830 C845 0.959 . S
H831 C845 0.961 . S
H832 C846 0.960 . S
H833 C846 0.961 . S
H834 C846 0.959 . S
H835 C849 0.929 . S
H836 C850 0.931 . S
H837 C852 0.930 . S
C838 H826 0.930 . S
C838 C839 1.399 . S
C838 C843 1.399 . S
C839 C838 1.399 . S
C839 C840 1.376 . S
C840 H827 0.930 . S
C840 C839 1.376 . S
C840 C841 1.388 . S
C841 H828 0.930 . S
C841 C840 1.388 . S
C841 C842 1.390 . S
C842 C841 1.390 . S
C842 C843 1.394 . S
C842 C848 1.465 . S
C843 C838 1.399 . S
C843 C842 1.394 . S
C843 C844 1.516 . S
C844 C843 1.516 . S
C844 C845 1.502 . S
C844 C846 1.561 . S
C844 C847 1.526 . S
C845 H829 0.959 . S
C845 H830 0.959 . S
C845 H831 0.961 . S
C845 C844 1.502 . S
C846 H832 0.960 . S
C846 H833 0.961 . S
C846 H834 0.959 . S
C846 C844 1.561 . S
C847 C844 1.526 . S
C847 C848 1.396 . S
C847 C852 1.390 . S
C848 C842 1.465 . S
C848 C847 1.396 . S
C848 C849 1.399 . S
C849 H835 0.929 . S
C849 C848 1.399 . S
C849 C850 1.385 . S
C850 H836 0.931 . S
C850 C849 1.385 . S
C850 C851 1.389 . S
C851 C850 1.389 . S
C851 C852 1.387 . S
C852 H837 0.930 . S
C852 C847 1.390 . S
C852 C851 1.387 . S
H853 C865 0.930 . S
H854 C867 0.930 . S
H855 C868 0.930 . S
H856 C872 0.959 1_655 S
H857 C872 0.959 . S
H858 C872 0.961 . S
H859 C873 0.960 1_556 S
H860 C873 0.961 . S
H861 C873 0.959 . S
H862 C876 0.929 . S
H863 C877 0.931 . S
H864 C879 0.932 1_655 S
C865 H853 0.930 . S
C865 C866 1.399 . S
C865 C870 1.399 1_556 S
C866 C865 1.399 . S
C866 C867 1.376 1_556 S
C867 H854 0.930 . S
C867 C866 1.376 1_554 S
C867 C868 1.388 . S
C868 H855 0.930 . S
C868 C867 1.388 . S
C868 C869 1.390 . S
C869 C868 1.390 . S
C869 C870 1.394 . S
C869 C875 1.465 . S
C870 C865 1.399 1_554 S
C870 C869 1.394 . S
C870 C871 1.516 . S
C871 C870 1.516 . S
C871 C872 1.502 1_554 S
C871 C873 1.561 . S
C871 C874 1.526 . S
C872 H856 0.959 1_455 S
C872 H857 0.959 . S
C872 H858 0.961 . S
C872 C871 1.502 1_556 S
C873 H859 0.960 1_554 S
C873 H860 0.961 . S
C873 H861 0.959 . S
C873 C871 1.561 . S
C874 C871 1.526 . S
C874 C875 1.396 . S
C874 C879 1.389 . S
C875 C869 1.465 . S
C875 C874 1.396 . S
C875 C876 1.399 . S
C876 H862 0.929 . S
C876 C875 1.399 . S
C876 C877 1.385 1_455 S
C877 H863 0.931 . S
C877 C876 1.385 1_655 S
C877 C878 1.389 . S
C878 C877 1.389 . S
C878 C879 1.387 1_655 S
C879 H864 0.932 1_455 S
C879 C874 1.389 . S
C879 C878 1.387 1_455 S
H880 C892 0.930 . S
H881 C894 0.930 . S
H882 C895 0.930 . S
H883 C899 0.965 . S
H884 C899 0.952 1_565 S
H885 C899 0.989 . S
H886 C900 0.960 . S
H887 C900 0.961 . S
H888 C900 0.959 . S
H889 C903 0.929 . S
H890 C904 0.931 . S
H891 C906 0.930 . S
C892 H880 0.930 . S
C892 C893 1.399 . S
C892 C897 1.399 1_545 S
C893 C892 1.399 . S
C893 C894 1.376 1_545 S
C894 H881 0.930 . S
C894 C893 1.376 1_565 S
C894 C895 1.388 . S
C895 H882 0.930 . S
C895 C894 1.388 . S
C895 C896 1.390 . S
C896 C895 1.390 . S
C896 C897 1.394 . S
C896 C902 1.465 . S
C897 C892 1.399 1_565 S
C897 C896 1.394 . S
C897 C898 1.516 . S
C898 C897 1.516 . S
C898 C899 1.476 1_565 S
C898 C900 1.561 . S
C898 C901 1.526 . S
C899 H883 0.965 . S
C899 H884 0.952 1_545 S
C899 H885 0.989 . S
C899 C898 1.476 1_545 S
C900 H886 0.960 . S
C900 H887 0.961 . S
C900 H888 0.959 . S
C900 C898 1.561 . S
C901 C898 1.526 . S
C901 C902 1.396 . S
C901 C906 1.390 . S
C902 C896 1.465 . S
C902 C901 1.396 . S
C902 C903 1.399 . S
C903 H889 0.929 . S
C903 C902 1.399 . S
C903 C904 1.385 . S
C904 H890 0.931 . S
C904 C903 1.385 . S
C904 C905 1.389 . S
C905 C904 1.389 . S
C905 C906 1.387 . S
C906 H891 0.930 . S
C906 C901 1.390 . S
C906 C905 1.387 . S
H907 C919 0.930 . S
H908 C921 0.930 . S
H909 C922 0.930 . S
H910 C926 0.959 . S
H911 C926 0.959 . S
H912 C926 0.961 . S
H913 C927 0.960 . S
H914 C927 0.961 . S
H915 C927 0.959 . S
H916 C930 0.929 . S
H917 C931 0.931 . S
H918 C933 0.930 . S
C919 H907 0.930 . S
C919 C920 1.399 . S
C919 C924 1.399 . S
C920 C919 1.399 . S
C920 C921 1.376 . S
C921 H908 0.930 . S
C921 C920 1.376 . S
C921 C922 1.388 . S
C922 H909 0.930 . S
C922 C921 1.388 . S
C922 C923 1.390 . S
C923 C922 1.390 . S
C923 C924 1.394 . S
C923 C929 1.465 . S
C924 C919 1.399 . S
C924 C923 1.394 . S
C924 C925 1.516 . S
C925 C924 1.516 . S
C925 C926 1.502 . S
C925 C927 1.561 . S
C925 C928 1.526 . S
C926 H910 0.959 . S
C926 H911 0.959 . S
C926 H912 0.961 . S
C926 C925 1.502 . S
C927 H913 0.960 . S
C927 H914 0.961 . S
C927 H915 0.959 . S
C927 C925 1.561 . S
C928 C925 1.526 . S
C928 C929 1.396 . S
C928 C933 1.390 . S
C929 C923 1.465 . S
C929 C928 1.396 . S
C929 C930 1.399 . S
C930 H916 0.929 . S
C930 C929 1.399 . S
C930 C931 1.385 . S
C931 H917 0.931 . S
C931 C930 1.385 . S
C931 C932 1.389 . S
C932 C931 1.389 . S
C932 C933 1.387 . S
C933 H918 0.930 . S
C933 C928 1.390 . S
C933 C932 1.387 . S
H934 C946 0.930 . S
H935 C948 0.930 . S
H936 C949 0.930 . S
H937 C953 0.959 . S
H938 C953 0.959 1_565 S
H939 C953 0.961 . S
H940 C954 0.960 . S
H941 C954 0.961 . S
H942 C954 0.959 . S
H943 C957 0.929 . S
H944 C958 0.931 . S
H945 C960 0.930 . S
C946 H934 0.930 . S
C946 C947 1.399 . S
C946 C951 1.399 . S
C947 C946 1.399 . S
C947 C948 1.376 . S
C948 H935 0.930 . S
C948 C947 1.376 . S
C948 C949 1.388 . S
C949 H936 0.930 . S
C949 C948 1.388 . S
C949 C950 1.390 . S
C950 C949 1.390 . S
C950 C951 1.394 . S
C950 C956 1.465 . S
C951 C946 1.399 . S
C951 C950 1.394 . S
C951 C952 1.516 . S
C952 C951 1.516 . S
C952 C953 1.502 . S
C952 C954 1.561 1_545 S
C952 C955 1.526 . S
C953 H937 0.959 . S
C953 H938 0.959 1_545 S
C953 H939 0.961 . S
C953 C952 1.502 . S
C954 H940 0.960 . S
C954 H941 0.961 . S
C954 H942 0.959 . S
C954 C952 1.561 1_565 S
C955 C952 1.526 . S
C955 C956 1.396 . S
C955 C960 1.390 1_545 S
C956 C950 1.465 . S
C956 C955 1.396 . S
C956 C957 1.399 . S
C957 H943 0.929 . S
C957 C956 1.399 . S
C957 C958 1.385 . S
C958 H944 0.931 . S
C958 C957 1.385 . S
C958 C959 1.389 1_545 S
C959 C958 1.389 1_565 S
C959 C960 1.387 . S
C960 H945 0.930 . S
C960 C955 1.390 1_565 S
C960 C959 1.387 . S
H961 C973 0.930 . S
H962 C975 0.930 . S
H963 C976 0.930 . S
H964 C980 0.959 . S
H965 C980 0.959 . S
H966 C980 0.961 . S
H967 C981 0.960 . S
H968 C981 0.961 . S
H969 C981 0.959 . S
H970 C984 0.929 . S
H971 C985 0.931 . S
H972 C987 0.930 . S
C973 H961 0.930 . S
C973 C974 1.399 . S
C973 C978 1.399 . S
C974 C973 1.399 . S
C974 C975 1.376 . S
C975 H962 0.930 . S
C975 C974 1.376 . S
C975 C976 1.388 . S
C976 H963 0.930 . S
C976 C975 1.388 . S
C976 C977 1.390 . S
C977 C976 1.390 . S
C977 C978 1.394 . S
C977 C983 1.465 . S
C978 C973 1.399 . S
C978 C977 1.394 . S
C978 C979 1.516 . S
C979 C978 1.516 . S
C979 C980 1.502 . S
C979 C981 1.561 . S
C979 C982 1.526 . S
C980 H964 0.959 . S
C980 H965 0.959 . S
C980 H966 0.961 . S
C980 C979 1.502 . S
C981 H967 0.960 . S
C981 H968 0.961 . S
C981 H969 0.959 . S
C981 C979 1.561 . S
C982 C979 1.526 . S
C982 C983 1.396 . S
C982 C987 1.390 1_556 S
C983 C977 1.465 . S
C983 C982 1.396 . S
C983 C984 1.399 1_556 S
C984 H970 0.929 . S
C984 C983 1.399 1_554 S
C984 C985 1.385 . S
C985 H971 0.931 . S
C985 C984 1.385 . S
C985 C986 1.389 . S
C986 C985 1.389 . S
C986 C987 1.387 . S
C987 H972 0.930 . S
C987 C982 1.390 1_554 S
C987 C986 1.387 . S
H988 C1000 0.930 . S
H989 C1002 0.930 . S
H990 C1003 0.930 . S
H991 C1007 0.959 . S
H992 C1007 0.959 . S
H993 C1007 0.961 . S
H994 C1008 0.960 . S
H995 C1008 0.961 . S
H996 C1008 0.959 . S
H997 C1011 0.929 . S
H998 C1012 0.931 . S
H999 C1014 0.930 . S
C1000 H988 0.930 . S
C1000 C1001 1.399 . S
C1000 C1005 1.399 . S
C1001 C1000 1.399 . S
C1001 C1002 1.376 . S
C1002 H989 0.930 . S
C1002 C1001 1.376 . S
C1002 C1003 1.388 . S
C1003 H990 0.930 . S
C1003 C1002 1.388 . S
C1003 C1004 1.390 . S
C1004 C1003 1.390 . S
C1004 C1005 1.394 . S
C1004 C1010 1.465 . S
C1005 C1000 1.399 . S
C1005 C1004 1.394 . S
C1005 C1006 1.516 1_545 S
C1006 C1005 1.516 1_565 S
C1006 C1007 1.502 . S
C1006 C1008 1.561 . S
C1006 C1009 1.526 . S
C1007 H991 0.959 . S
C1007 H992 0.959 . S
C1007 H993 0.961 . S
C1007 C1006 1.502 . S
C1008 H994 0.960 . S
C1008 H995 0.961 . S
C1008 H996 0.959 . S
C1008 C1006 1.561 . S
C1009 C1006 1.526 . S
C1009 C1010 1.396 1_565 S
C1009 C1014 1.390 . S
C1010 C1004 1.465 . S
C1010 C1009 1.396 1_545 S
C1010 C1011 1.399 . S
C1011 H997 0.929 . S
C1011 C1010 1.399 . S
C1011 C1012 1.385 1_545 S
C1012 H998 0.931 . S
C1012 C1011 1.385 1_565 S
C1012 C1013 1.389 . S
C1013 C1012 1.389 . S
C1013 C1014 1.387 . S
C1014 H999 0.930 . S
C1014 C1009 1.390 . S
C1014 C1013 1.387 . S
H1015 C1027 0.930 . S
H1016 C1029 0.930 . S
H1017 C1030 0.930 . S
H1018 C1034 0.959 . S
H1019 C1034 0.959 . S
H1020 C1034 0.961 . S
H1021 C1035 0.960 . S
H1022 C1035 0.961 . S
H1023 C1035 0.959 . S
H1024 C1038 0.929 . S
H1025 C1039 0.931 . S
H1026 C1041 0.930 . S
C1027 H1015 0.930 . S
C1027 C1028 1.399 . S
C1027 C1032 1.399 . S
C1028 C1027 1.399 . S
C1028 C1029 1.376 . S
C1029 H1016 0.930 . S
C1029 C1028 1.376 . S
C1029 C1030 1.388 . S
C1030 H1017 0.930 . S
C1030 C1029 1.388 . S
C1030 C1031 1.390 . S
C1031 C1030 1.390 . S
C1031 C1032 1.394 . S
C1031 C1037 1.465 . S
C1032 C1027 1.399 . S
C1032 C1031 1.394 . S
C1032 C1033 1.516 . S
C1033 C1032 1.516 . S
C1033 C1034 1.502 . S
C1033 C1035 1.561 . S
C1033 C1036 1.526 . S
C1034 H1018 0.959 . S
C1034 H1019 0.959 . S
C1034 H1020 0.961 . S
C1034 C1033 1.502 . S
C1035 H1021 0.960 . S
C1035 H1022 0.961 . S
C1035 H1023 0.959 . S
C1035 C1033 1.561 . S
C1036 C1033 1.526 . S
C1036 C1037 1.396 . S
C1036 C1041 1.390 . S
C1037 C1031 1.465 . S
C1037 C1036 1.396 . S
C1037 C1038 1.399 . S
C1038 H1024 0.929 . S
C1038 C1037 1.399 . S
C1038 C1039 1.385 . S
C1039 H1025 0.931 . S
C1039 C1038 1.385 . S
C1039 C1040 1.389 . S
C1040 C1039 1.389 . S
C1040 C1041 1.387 . S
C1041 H1026 0.930 . S
C1041 C1036 1.390 . S
C1041 C1040 1.387 . S
H1042 C1054 0.930 . S
H1043 C1056 0.930 . S
H1044 C1057 0.930 . S
H1045 C1061 0.959 . S
H1046 C1061 0.959 . S
H1047 C1061 0.961 . S
H1048 C1062 0.960 . S
H1049 C1062 0.961 . S
H1050 C1062 0.942 1_565 S
H1051 C1065 0.929 . S
H1052 C1066 0.931 . S
H1053 C1068 0.930 . S
C1054 H1042 0.930 . S
C1054 C1055 1.399 . S
C1054 C1059 1.399 . S
C1055 C1054 1.399 . S
C1055 C1056 1.376 . S
C1056 H1043 0.930 . S
C1056 C1055 1.376 . S
C1056 C1057 1.388 1_545 S
C1057 H1044 0.930 . S
C1057 C1056 1.388 1_565 S
C1057 C1058 1.390 . S
C1058 C1057 1.390 . S
C1058 C1059 1.394 1_565 S
C1058 C1064 1.465 . S
C1059 C1054 1.399 . S
C1059 C1058 1.394 1_545 S
C1059 C1060 1.516 . S
C1060 C1059 1.516 . S
C1060 C1061 1.502 . S
C1060 C1062 1.561 . S
C1060 C1063 1.526 1_545 S
C1061 H1045 0.959 . S
C1061 H1046 0.959 . S
C1061 H1047 0.961 . S
C1061 C1060 1.502 . S
C1062 H1048 0.960 . S
C1062 H1049 0.961 . S
C1062 H1050 0.942 1_545 S
C1062 C1060 1.561 . S
C1063 C1060 1.526 1_565 S
C1063 C1064 1.396 . S
C1063 C1068 1.390 . S
C1064 C1058 1.465 . S
C1064 C1063 1.396 . S
C1064 C1065 1.399 . S
C1065 H1051 0.929 . S
C1065 C1064 1.399 . S
C1065 C1066 1.385 . S
C1066 H1052 0.931 . S
C1066 C1065 1.385 . S
C1066 C1067 1.389 . S
C1067 C1066 1.389 . S
C1067 C1068 1.387 . S
C1068 H1053 0.930 . S
C1068 C1063 1.390 . S
C1068 C1067 1.387 . S
H1069 C1081 0.930 . S
H1070 C1083 0.930 . S
H1071 C1084 0.930 . S
H1072 C1088 0.959 . S
H1073 C1088 0.959 . S
H1074 C1088 0.961 . S
H1075 C1089 0.960 . S
H1076 C1089 0.961 . S
H1077 C1089 0.959 . S
H1078 C1092 0.929 . S
H1079 C1093 0.931 . S
H1080 C1095 0.930 . S
C1081 H1069 0.930 . S
C1081 C1082 1.399 . S
C1081 C1086 1.399 . S
C1082 C1081 1.399 . S
C1082 C1083 1.376 . S
C1083 H1070 0.930 . S
C1083 C1082 1.376 . S
C1083 C1084 1.388 1_556 S
C1084 H1071 0.930 . S
C1084 C1083 1.388 1_554 S
C1084 C1085 1.390 . S
C1085 C1084 1.390 . S
C1085 C1086 1.394 1_554 S
C1085 C1091 1.465 . S
C1086 C1081 1.399 . S
C1086 C1085 1.394 1_556 S
C1086 C1087 1.516 . S
C1087 C1086 1.516 . S
C1087 C1088 1.502 . S
C1087 C1089 1.561 . S
C1087 C1090 1.526 1_556 S
C1088 H1072 0.959 . S
C1088 H1073 0.959 . S
C1088 H1074 0.961 . S
C1088 C1087 1.502 . S
C1089 H1075 0.960 . S
C1089 H1076 0.961 . S
C1089 H1077 0.959 . S
C1089 C1087 1.561 . S
C1090 C1087 1.526 1_554 S
C1090 C1091 1.396 . S
C1090 C1095 1.390 . S
C1091 C1085 1.465 . S
C1091 C1090 1.396 . S
C1091 C1092 1.399 . S
C1092 H1078 0.929 . S
C1092 C1091 1.399 . S
C1092 C1093 1.385 . S
C1093 H1079 0.931 . S
C1093 C1092 1.385 . S
C1093 C1094 1.389 . S
C1094 C1093 1.389 . S
C1094 C1095 1.387 . S
C1095 H1080 0.930 . S
C1095 C1090 1.390 . S
C1095 C1094 1.387 . S
H1096 C1108 0.930 . S
H1097 C1110 0.930 . S
H1098 C1111 0.930 . S
H1099 C1115 0.959 . S
H1100 C1115 0.959 . S
H1101 C1115 0.961 . S
H1102 C1116 0.960 . S
H1103 C1116 0.961 . S
H1104 C1116 0.959 . S
H1105 C1119 0.929 . S
H1106 C1120 0.932 1_455 S
H1107 C1122 0.930 . S
C1108 H1096 0.930 . S
C1108 C1109 1.399 . S
C1108 C1113 1.399 . S
C1109 C1108 1.399 . S
C1109 C1110 1.376 . S
C1110 H1097 0.930 . S
C1110 C1109 1.376 . S
C1110 C1111 1.388 . S
C1111 H1098 0.930 . S
C1111 C1110 1.388 . S
C1111 C1112 1.390 . S
C1112 C1111 1.390 . S
C1112 C1113 1.394 . S
C1112 C1118 1.465 . S
C1113 C1108 1.399 . S
C1113 C1112 1.394 . S
C1113 C1114 1.516 . S
C1114 C1113 1.516 . S
C1114 C1115 1.502 . S
C1114 C1116 1.561 . S
C1114 C1117 1.526 . S
C1115 H1099 0.959 . S
C1115 H1100 0.959 . S
C1115 H1101 0.961 . S
C1115 C1114 1.502 . S
C1116 H1102 0.960 . S
C1116 H1103 0.961 . S
C1116 H1104 0.959 . S
C1116 C1114 1.561 . S
C1117 C1114 1.526 . S
C1117 C1118 1.396 . S
C1117 C1122 1.390 . S
C1118 C1112 1.465 . S
C1118 C1117 1.396 . S
C1118 C1119 1.399 . S
C1119 H1105 0.929 . S
C1119 C1118 1.399 . S
C1119 C1120 1.385 . S
C1120 H1106 0.932 1_655 S
C1120 C1119 1.385 . S
C1120 C1121 1.389 . S
C1121 C1120 1.389 . S
C1121 C1122 1.387 . S
C1122 H1107 0.930 . S
C1122 C1117 1.390 . S
C1122 C1121 1.387 . S
H1123 C1135 0.930 . S
H1124 C1137 0.930 . S
H1125 C1138 0.930 . S
H1126 C1142 0.959 . S
H1127 C1142 0.959 . S
H1128 C1142 0.961 . S
H1129 C1143 0.960 . S
H1130 C1143 0.961 . S
H1131 C1143 0.959 . S
H1132 C1146 0.929 . S
H1133 C1147 0.931 . S
H1134 C1149 0.930 . S
C1135 H1123 0.930 . S
C1135 C1136 1.399 . S
C1135 C1140 1.399 . S
C1136 C1135 1.399 . S
C1136 C1137 1.376 . S
C1137 H1124 0.930 . S
C1137 C1136 1.376 . S
C1137 C1138 1.388 . S
C1138 H1125 0.930 . S
C1138 C1137 1.388 . S
C1138 C1139 1.390 . S
C1139 C1138 1.390 . S
C1139 C1140 1.394 . S
C1139 C1145 1.465 . S
C1140 C1135 1.399 . S
C1140 C1139 1.394 . S
C1140 C1141 1.516 . S
C1141 C1140 1.516 . S
C1141 C1142 1.502 . S
C1141 C1143 1.561 . S
C1141 C1144 1.526 . S
C1142 H1126 0.959 . S
C1142 H1127 0.959 . S
C1142 H1128 0.961 . S
C1142 C1141 1.502 . S
C1143 H1129 0.960 . S
C1143 H1130 0.961 . S
C1143 H1131 0.959 . S
C1143 C1141 1.561 . S
C1144 C1141 1.526 . S
C1144 C1145 1.396 . S
C1144 C1149 1.390 . S
C1145 C1139 1.465 . S
C1145 C1144 1.396 . S
C1145 C1146 1.399 . S
C1146 H1132 0.929 . S
C1146 C1145 1.399 . S
C1146 C1147 1.385 . S
C1147 H1133 0.931 . S
C1147 C1146 1.385 . S
C1147 C1148 1.389 . S
C1148 C1147 1.389 . S
C1148 C1149 1.387 . S
C1149 H1134 0.930 . S
C1149 C1144 1.390 . S
C1149 C1148 1.387 . S
H1150 C1162 0.930 . S
H1151 C1164 0.930 . S
H1152 C1165 0.930 . S
H1153 C1169 0.959 . S
H1154 C1169 0.959 1_455 S
H1155 C1169 0.961 . S
H1156 C1170 0.960 . S
H1157 C1170 0.961 . S
H1158 C1170 0.959 . S
H1159 C1173 0.929 . S
H1160 C1174 0.931 . S
H1161 C1176 0.930 . S
C1162 H1150 0.930 . S
C1162 C1163 1.399 . S
C1162 C1167 1.399 . S
C1163 C1162 1.399 . S
C1163 C1164 1.376 . S
C1164 H1151 0.930 . S
C1164 C1163 1.376 . S
C1164 C1165 1.388 . S
C1165 H1152 0.930 . S
C1165 C1164 1.388 . S
C1165 C1166 1.390 1_655 S
C1166 C1165 1.390 1_455 S
C1166 C1167 1.394 1_455 S
C1166 C1172 1.465 . S
C1167 C1162 1.399 . S
C1167 C1166 1.394 1_655 S
C1167 C1168 1.516 1_655 S
C1168 C1167 1.516 1_455 S
C1168 C1169 1.502 1_455 S
C1168 C1170 1.561 . S
C1168 C1171 1.526 . S
C1169 H1153 0.959 . S
C1169 H1154 0.959 1_655 S
C1169 H1155 0.961 . S
C1169 C1168 1.502 1_655 S
C1170 H1156 0.960 . S
C1170 H1157 0.961 . S
C1170 H1158 0.959 . S
C1170 C1168 1.561 . S
C1171 C1168 1.526 . S
C1171 C1172 1.396 . S
C1171 C1176 1.390 . S
C1172 C1166 1.465 . S
C1172 C1171 1.396 . S
C1172 C1173 1.399 . S
C1173 H1159 0.929 . S
C1173 C1172 1.399 . S
C1173 C1174 1.385 . S
C1174 H1160 0.931 . S
C1174 C1173 1.385 . S
C1174 C1175 1.389 . S
C1175 C1174 1.389 . S
C1175 C1176 1.387 . S
C1176 H1161 0.930 . S
C1176 C1171 1.390 . S
C1176 C1175 1.387 . S
H1177 C1189 0.930 . S
H1178 C1191 0.930 . S
H1179 C1192 0.930 . S
H1180 C1196 0.959 . S
H1181 C1196 0.959 . S
H1182 C1196 0.961 . S
H1183 C1197 0.960 . S
H1184 C1197 0.961 . S
H1185 C1197 0.959 . S
H1186 C1200 0.929 . S
H1187 C1201 0.931 . S
H1188 C1203 0.930 . S
C1189 H1177 0.930 . S
C1189 C1190 1.399 . S
C1189 C1194 1.399 . S
C1190 C1189 1.399 . S
C1190 C1191 1.376 . S
C1191 H1178 0.930 . S
C1191 C1190 1.376 . S
C1191 C1192 1.388 . S
C1192 H1179 0.930 . S
C1192 C1191 1.388 . S
C1192 C1193 1.390 . S
C1193 C1192 1.390 . S
C1193 C1194 1.394 . S
C1193 C1199 1.465 . S
C1194 C1189 1.399 . S
C1194 C1193 1.394 . S
C1194 C1195 1.516 . S
C1195 C1194 1.516 . S
C1195 C1196 1.502 . S
C1195 C1197 1.561 . S
C1195 C1198 1.526 . S
C1196 H1180 0.959 . S
C1196 H1181 0.959 . S
C1196 H1182 0.961 . S
C1196 C1195 1.502 . S
C1197 H1183 0.960 . S
C1197 H1184 0.961 . S
C1197 H1185 0.959 . S
C1197 C1195 1.561 . S
C1198 C1195 1.526 . S
C1198 C1199 1.396 . S
C1198 C1203 1.390 . S
C1199 C1193 1.465 . S
C1199 C1198 1.396 . S
C1199 C1200 1.399 . S
C1200 H1186 0.929 . S
C1200 C1199 1.399 . S
C1200 C1201 1.385 . S
C1201 H1187 0.931 . S
C1201 C1200 1.385 . S
C1201 C1202 1.389 . S
C1202 C1201 1.389 . S
C1202 C1203 1.387 . S
C1203 H1188 0.930 . S
C1203 C1198 1.390 . S
C1203 C1202 1.387 . S
H1204 C1216 0.930 . S
H1205 C1218 0.930 . S
H1206 C1219 0.930 . S
H1207 C1223 0.959 . S
H1208 C1223 0.959 . S
H1209 C1223 0.961 . S
H1210 C1224 0.960 . S
H1211 C1224 0.961 . S
H1212 C1224 0.959 . S
H1213 C1227 0.929 . S
H1214 C1228 0.931 . S
H1215 C1230 0.930 . S
C1216 H1204 0.930 . S
C1216 C1217 1.399 . S
C1216 C1221 1.399 . S
C1217 C1216 1.399 . S
C1217 C1218 1.376 . S
C1218 H1205 0.930 . S
C1218 C1217 1.376 . S
C1218 C1219 1.388 . S
C1219 H1206 0.930 . S
C1219 C1218 1.388 . S
C1219 C1220 1.390 . S
C1220 C1219 1.390 . S
C1220 C1221 1.394 . S
C1220 C1226 1.465 . S
C1221 C1216 1.399 . S
C1221 C1220 1.394 . S
C1221 C1222 1.516 . S
C1222 C1221 1.516 . S
C1222 C1223 1.502 . S
C1222 C1224 1.561 . S
C1222 C1225 1.526 . S
C1223 H1207 0.959 . S
C1223 H1208 0.959 . S
C1223 H1209 0.961 . S
C1223 C1222 1.502 . S
C1224 H1210 0.960 . S
C1224 H1211 0.961 . S
C1224 H1212 0.959 . S
C1224 C1222 1.561 . S
C1225 C1222 1.526 . S
C1225 C1226 1.396 . S
C1225 C1230 1.390 . S
C1226 C1220 1.465 . S
C1226 C1225 1.396 . S
C1226 C1227 1.399 . S
C1227 H1213 0.929 . S
C1227 C1226 1.399 . S
C1227 C1228 1.385 . S
C1228 H1214 0.931 . S
C1228 C1227 1.385 . S
C1228 C1229 1.389 . S
C1229 C1228 1.389 . S
C1229 C1230 1.387 . S
C1230 H1215 0.930 . S
C1230 C1225 1.390 . S
C1230 C1229 1.387 . S
H1231 C1243 0.930 . S
H1232 C1245 0.930 . S
H1233 C1246 0.930 . S
H1234 C1250 0.959 . S
H1235 C1250 0.959 . S
H1236 C1250 0.961 . S
H1237 C1251 0.960 . S
H1238 C1251 0.961 1_455 S
H1239 C1251 0.959 1_455 S
H1240 C1254 0.936 . S
H1241 C1255 0.931 . S
H1242 C1257 0.930 . S
C1243 H1231 0.930 . S
C1243 C1244 1.399 . S
C1243 C1248 1.399 . S
C1244 C1243 1.399 . S
C1244 C1245 1.376 . S
C1245 H1232 0.930 . S
C1245 C1244 1.376 . S
C1245 C1246 1.388 . S
C1246 H1233 0.930 . S
C1246 C1245 1.388 . S
C1246 C1247 1.390 . S
C1247 C1246 1.390 . S
C1247 C1248 1.394 . S
C1247 C1253 1.465 . S
C1248 C1243 1.399 . S
C1248 C1247 1.394 . S
C1248 C1249 1.516 . S
C1249 C1248 1.516 . S
C1249 C1250 1.502 . S
C1249 C1251 1.561 . S
C1249 C1252 1.526 . S
C1250 H1234 0.959 . S
C1250 H1235 0.959 . S
C1250 H1236 0.961 . S
C1250 C1249 1.502 . S
C1251 H1237 0.960 . S
C1251 H1238 0.961 1_655 S
C1251 H1239 0.959 1_655 S
C1251 C1249 1.561 . S
C1252 C1249 1.526 . S
C1252 C1253 1.396 . S
C1252 C1257 1.390 1_655 S
C1253 C1247 1.465 . S
C1253 C1252 1.396 . S
C1253 C1254 1.413 . S
C1254 H1240 0.936 . S
C1254 C1253 1.413 . S
C1254 C1255 1.365 1_655 S
C1255 H1241 0.931 . S
C1255 C1254 1.365 1_455 S
C1255 C1256 1.389 . S
C1256 C1255 1.389 . S
C1256 C1257 1.387 . S
C1257 H1242 0.930 . S
C1257 C1252 1.390 1_455 S
C1257 C1256 1.387 . S
H1258 C1270 0.930 . S
H1259 C1272 0.930 . S
H1260 C1273 0.930 . S
H1261 C1277 0.959 . S
H1262 C1277 0.959 . S
H1263 C1277 0.961 . S
H1264 C1278 0.960 . S
H1265 C1278 0.961 . S
H1266 C1278 0.959 . S
H1267 C1281 0.929 . S
H1268 C1282 0.931 . S
H1269 C1284 0.930 . S
C1270 H1258 0.930 . S
C1270 C1271 1.399 . S
C1270 C1275 1.399 . S
C1271 C1270 1.399 . S
C1271 C1272 1.376 . S
C1272 H1259 0.930 . S
C1272 C1271 1.376 . S
C1272 C1273 1.388 . S
C1273 H1260 0.930 . S
C1273 C1272 1.388 . S
C1273 C1274 1.390 . S
C1274 C1273 1.390 . S
C1274 C1275 1.394 . S
C1274 C1280 1.465 . S
C1275 C1270 1.399 . S
C1275 C1274 1.394 . S
C1275 C1276 1.516 . S
C1276 C1275 1.516 . S
C1276 C1277 1.502 . S
C1276 C1278 1.561 . S
C1276 C1279 1.526 . S
C1277 H1261 0.959 . S
C1277 H1262 0.959 . S
C1277 H1263 0.961 . S
C1277 C1276 1.502 . S
C1278 H1264 0.960 . S
C1278 H1265 0.961 . S
C1278 H1266 0.959 . S
C1278 C1276 1.561 . S
C1279 C1276 1.526 . S
C1279 C1280 1.396 . S
C1279 C1284 1.390 . S
C1280 C1274 1.465 . S
C1280 C1279 1.396 . S
C1280 C1281 1.399 . S
C1281 H1267 0.929 . S
C1281 C1280 1.399 . S
C1281 C1282 1.385 . S
C1282 H1268 0.931 . S
C1282 C1281 1.385 . S
C1282 C1283 1.389 . S
C1283 C1282 1.389 . S
C1283 C1284 1.387 . S
C1284 H1269 0.930 . S
C1284 C1279 1.390 . S
C1284 C1283 1.387 . S
H1285 C1297 0.930 . S
H1286 C1299 0.930 . S
H1287 C1300 0.930 . S
H1288 C1304 0.959 . S
H1289 C1304 0.959 . S
H1290 C1304 0.961 . S
H1291 C1305 0.960 . S
H1292 C1305 0.961 . S
H1293 C1305 0.959 . S
H1294 C1308 0.929 . S
H1295 C1309 0.931 . S
H1296 C1311 0.930 . S
C1297 H1285 0.930 . S
C1297 C1298 1.399 . S
C1297 C1302 1.399 . S
C1298 C1297 1.399 . S
C1298 C1299 1.376 . S
C1299 H1286 0.930 . S
C1299 C1298 1.376 . S
C1299 C1300 1.388 . S
C1300 H1287 0.930 . S
C1300 C1299 1.388 . S
C1300 C1301 1.390 . S
C1301 C1300 1.390 . S
C1301 C1302 1.394 . S
C1301 C1307 1.465 1_545 S
C1302 C1297 1.399 . S
C1302 C1301 1.394 . S
C1302 C1303 1.516 . S
C1303 C1302 1.516 . S
C1303 C1304 1.502 . S
C1303 C1305 1.561 . S
C1303 C1306 1.526 1_545 S
C1304 H1288 0.959 . S
C1304 H1289 0.959 . S
C1304 H1290 0.961 . S
C1304 C1303 1.502 . S
C1305 H1291 0.960 . S
C1305 H1292 0.961 . S
C1305 H1293 0.959 . S
C1305 C1303 1.561 . S
C1306 C1303 1.526 1_565 S
C1306 C1307 1.396 . S
C1306 C1311 1.390 . S
C1307 C1301 1.465 1_565 S
C1307 C1306 1.396 . S
C1307 C1308 1.399 . S
C1308 H1294 0.929 . S
C1308 C1307 1.399 . S
C1308 C1309 1.385 . S
C1309 H1295 0.931 . S
C1309 C1308 1.385 . S
C1309 C1310 1.389 . S
C1310 C1309 1.389 . S
C1310 C1311 1.387 . S
C1311 H1296 0.930 . S
C1311 C1306 1.390 . S
C1311 C1310 1.387 . S
H1312 C1324 0.930 . S
H1313 C1326 0.930 . S
H1314 C1327 0.930 . S
H1315 C1331 0.959 . S
H1316 C1331 0.959 . S
H1317 C1331 0.961 . S
H1318 C1332 0.960 . S
H1319 C1332 0.961 . S
H1320 C1332 0.959 . S
H1321 C1335 0.929 . S
H1322 C1336 0.931 . S
H1323 C1338 0.930 . S
C1324 H1312 0.930 . S
C1324 C1325 1.399 . S
C1324 C1329 1.399 . S
C1325 C1324 1.399 . S
C1325 C1326 1.376 . S
C1326 H1313 0.930 . S
C1326 C1325 1.376 . S
C1326 C1327 1.388 . S
C1327 H1314 0.930 . S
C1327 C1326 1.388 . S
C1327 C1328 1.390 . S
C1328 C1327 1.390 . S
C1328 C1329 1.394 . S
C1328 C1334 1.465 . S
C1329 C1324 1.399 . S
C1329 C1328 1.394 . S
C1329 C1330 1.516 . S
C1330 C1329 1.516 . S
C1330 C1331 1.502 . S
C1330 C1332 1.561 . S
C1330 C1333 1.526 . S
C1331 H1315 0.959 . S
C1331 H1316 0.959 . S
C1331 H1317 0.961 . S
C1331 C1330 1.502 . S
C1332 H1318 0.960 . S
C1332 H1319 0.961 . S
C1332 H1320 0.959 . S
C1332 C1330 1.561 . S
C1333 C1330 1.526 . S
C1333 C1334 1.396 . S
C1333 C1338 1.390 . S
C1334 C1328 1.465 . S
C1334 C1333 1.396 . S
C1334 C1335 1.399 . S
C1335 H1321 0.929 . S
C1335 C1334 1.399 . S
C1335 C1336 1.385 . S
C1336 H1322 0.931 . S
C1336 C1335 1.385 . S
C1336 C1337 1.389 . S
C1337 C1336 1.389 . S
C1337 C1338 1.387 . S
C1338 H1323 0.930 . S
C1338 C1333 1.390 . S
C1338 C1337 1.387 . S
H1339 C1351 0.930 . S
H1340 C1353 0.930 . S
H1341 C1354 0.930 1_545 S
H1342 C1358 0.959 . S
H1343 C1358 0.959 . S
H1344 C1358 0.961 . S
H1345 C1359 0.960 . S
H1346 C1359 0.961 . S
H1347 C1359 0.959 . S
H1348 C1362 0.929 . S
H1349 C1363 0.931 . S
H1350 C1365 0.930 . S
C1351 H1339 0.930 . S
C1351 C1352 1.399 . S
C1351 C1356 1.399 . S
C1352 C1351 1.399 . S
C1352 C1353 1.376 . S
C1353 H1340 0.930 . S
C1353 C1352 1.376 . S
C1353 C1354 1.388 . S
C1354 H1341 0.930 1_565 S
C1354 C1353 1.388 . S
C1354 C1355 1.390 . S
C1355 C1354 1.390 . S
C1355 C1356 1.394 . S
C1355 C1361 1.465 1_565 S
C1356 C1351 1.399 . S
C1356 C1355 1.394 . S
C1356 C1357 1.516 . S
C1357 C1356 1.516 . S
C1357 C1358 1.502 . S
C1357 C1359 1.561 . S
C1357 C1360 1.526 . S
C1358 H1342 0.959 . S
C1358 H1343 0.959 . S
C1358 H1344 0.961 . S
C1358 C1357 1.502 . S
C1359 H1345 0.960 . S
C1359 H1346 0.961 . S
C1359 H1347 0.959 . S
C1359 C1357 1.561 . S
C1360 C1357 1.526 . S
C1360 C1361 1.396 1_565 S
C1360 C1365 1.390 1_565 S
C1361 C1355 1.465 1_545 S
C1361 C1360 1.396 1_545 S
C1361 C1362 1.399 . S
C1362 H1348 0.929 . S
C1362 C1361 1.399 . S
C1362 C1363 1.385 . S
C1363 H1349 0.931 . S
C1363 C1362 1.385 . S
C1363 C1364 1.389 . S
C1364 C1363 1.389 . S
C1364 C1365 1.387 . S
C1365 H1350 0.930 . S
C1365 C1360 1.390 1_545 S
C1365 C1364 1.387 . S
H1366 C1378 0.930 . S
H1367 C1380 0.931 . S
H1368 C1381 0.930 . S
H1369 C1385 0.959 1_556 S
H1370 C1385 0.959 . S
H1371 C1385 0.961 1_556 S
H1372 C1386 0.960 . S
H1373 C1386 0.961 . S
H1374 C1386 0.959 . S
H1375 C1389 0.929 . S
H1376 C1390 0.931 . S
H1377 C1392 0.930 . S
C1378 H1366 0.930 . S
C1378 C1379 1.399 . S
C1378 C1383 1.399 1_556 S
C1379 C1378 1.399 . S
C1379 C1380 1.378 . S
C1380 H1367 0.931 . S
C1380 C1379 1.378 . S
C1380 C1381 1.386 1_556 S
C1381 H1368 0.930 . S
C1381 C1380 1.386 1_554 S
C1381 C1382 1.390 . S
C1382 C1381 1.390 . S
C1382 C1383 1.394 . S
C1382 C1388 1.465 . S
C1383 C1378 1.399 1_554 S
C1383 C1382 1.394 . S
C1383 C1384 1.516 . S
C1384 C1383 1.516 . S
C1384 C1385 1.502 . S
C1384 C1386 1.561 . S
C1384 C1387 1.526 . S
C1385 H1369 0.959 1_554 S
C1385 H1370 0.959 . S
C1385 H1371 0.961 1_554 S
C1385 C1384 1.502 . S
C1386 H1372 0.960 . S
C1386 H1373 0.961 . S
C1386 H1374 0.959 . S
C1386 C1384 1.561 . S
C1387 C1384 1.526 . S
C1387 C1388 1.396 . S
C1387 C1392 1.390 . S
C1388 C1382 1.465 . S
C1388 C1387 1.396 . S
C1388 C1389 1.399 . S
C1389 H1375 0.929 . S
C1389 C1388 1.399 . S
C1389 C1390 1.385 . S
C1390 H1376 0.931 . S
C1390 C1389 1.385 . S
C1390 C1391 1.389 . S
C1391 C1390 1.389 . S
C1391 C1392 1.387 . S
C1392 H1377 0.930 . S
C1392 C1387 1.390 . S
C1392 C1391 1.387 . S
H1393 C1405 0.930 . S
H1394 C1407 0.930 . S
H1395 C1408 0.930 . S
H1396 C1412 0.959 . S
H1397 C1412 0.959 . S
H1398 C1412 0.961 . S
H1399 C1413 0.960 . S
H1400 C1413 0.961 . S
H1401 C1413 0.959 . S
H1402 C1416 0.929 . S
H1403 C1417 0.931 . S
H1404 C1419 0.930 . S
C1405 H1393 0.930 . S
C1405 C1406 1.399 1_565 S
C1405 C1410 1.399 . S
C1406 C1405 1.399 1_545 S
C1406 C1407 1.376 . S
C1407 H1394 0.930 . S
C1407 C1406 1.376 . S
C1407 C1408 1.388 . S
C1408 H1395 0.930 . S
C1408 C1407 1.388 . S
C1408 C1409 1.390 1_545 S
C1409 C1408 1.390 1_565 S
C1409 C1410 1.394 . S
C1409 C1415 1.465 . S
C1410 C1405 1.399 . S
C1410 C1409 1.394 . S
C1410 C1411 1.516 . S
C1411 C1410 1.516 . S
C1411 C1412 1.502 . S
C1411 C1413 1.561 . S
C1411 C1414 1.526 . S
C1412 H1396 0.959 . S
C1412 H1397 0.959 . S
C1412 H1398 0.961 . S
C1412 C1411 1.502 . S
C1413 H1399 0.960 . S
C1413 H1400 0.961 . S
C1413 H1401 0.959 . S
C1413 C1411 1.561 . S
C1414 C1411 1.526 . S
C1414 C1415 1.396 . S
C1414 C1419 1.390 . S
C1415 C1409 1.465 . S
C1415 C1414 1.396 . S
C1415 C1416 1.399 . S
C1416 H1402 0.929 . S
C1416 C1415 1.399 . S
C1416 C1417 1.385 . S
C1417 H1403 0.931 . S
C1417 C1416 1.385 . S
C1417 C1418 1.389 . S
C1418 C1417 1.389 . S
C1418 C1419 1.387 . S
C1419 H1404 0.930 . S
C1419 C1414 1.390 . S
C1419 C1418 1.387 . S
H1420 C1432 0.930 . S
H1421 C1434 0.930 . S
H1422 C1435 0.930 . S
H1423 C1439 0.959 . S
H1424 C1439 0.959 . S
H1425 C1439 0.961 . S
H1426 C1440 0.960 . S
H1427 C1440 0.961 . S
H1428 C1440 0.959 . S
H1429 C1443 0.929 . S
H1430 C1444 0.931 . S
H1431 C1446 0.930 . S
C1432 H1420 0.930 . S
C1432 C1433 1.399 . S
C1432 C1437 1.399 . S
C1433 C1432 1.399 . S
C1433 C1434 1.376 . S
C1434 H1421 0.930 . S
C1434 C1433 1.376 . S
C1434 C1435 1.388 . S
C1435 H1422 0.930 . S
C1435 C1434 1.388 . S
C1435 C1436 1.390 . S
C1436 C1435 1.390 . S
C1436 C1437 1.394 . S
C1436 C1442 1.465 . S
C1437 C1432 1.399 . S
C1437 C1436 1.394 . S
C1437 C1438 1.516 . S
C1438 C1437 1.516 . S
C1438 C1439 1.502 . S
C1438 C1440 1.561 . S
C1438 C1441 1.526 . S
C1439 H1423 0.959 . S
C1439 H1424 0.959 . S
C1439 H1425 0.961 . S
C1439 C1438 1.502 . S
C1440 H1426 0.960 . S
C1440 H1427 0.961 . S
C1440 H1428 0.959 . S
C1440 C1438 1.561 . S
C1441 C1438 1.526 . S
C1441 C1442 1.396 . S
C1441 C1446 1.390 . S
C1442 C1436 1.465 . S
C1442 C1441 1.396 . S
C1442 C1443 1.399 . S
C1443 H1429 0.929 . S
C1443 C1442 1.399 . S
C1443 C1444 1.385 . S
C1444 H1430 0.931 . S
C1444 C1443 1.385 . S
C1444 C1445 1.389 . S
C1445 C1444 1.389 . S
C1445 C1446 1.387 . S
C1446 H1431 0.930 . S
C1446 C1441 1.390 . S
C1446 C1445 1.387 . S
H1447 C1459 0.930 . S
H1448 C1461 0.930 . S
H1449 C1462 0.930 . S
H1450 C1466 0.959 . S
H1451 C1466 0.959 . S
H1452 C1466 0.961 . S
H1453 C1467 0.960 1_565 S
H1454 C1467 0.961 . S
H1455 C1467 0.959 . S
H1456 C1470 0.929 . S
H1457 C1471 0.931 . S
H1458 C1473 0.930 . S
C1459 H1447 0.930 . S
C1459 C1460 1.399 . S
C1459 C1464 1.399 1_565 S
C1460 C1459 1.399 . S
C1460 C1461 1.376 1_565 S
C1461 H1448 0.930 . S
C1461 C1460 1.376 1_545 S
C1461 C1462 1.388 . S
C1462 H1449 0.930 . S
C1462 C1461 1.388 . S
C1462 C1463 1.390 . S
C1463 C1462 1.390 . S
C1463 C1464 1.394 . S
C1463 C1469 1.465 . S
C1464 C1459 1.399 1_545 S
C1464 C1463 1.394 . S
C1464 C1465 1.516 . S
C1465 C1464 1.516 . S
C1465 C1466 1.502 1_545 S
C1465 C1467 1.561 . S
C1465 C1468 1.526 . S
C1466 H1450 0.959 . S
C1466 H1451 0.959 . S
C1466 H1452 0.961 . S
C1466 C1465 1.502 1_565 S
C1467 H1453 0.960 1_545 S
C1467 H1454 0.961 . S
C1467 H1455 0.959 . S
C1467 C1465 1.561 . S
C1468 C1465 1.526 . S
C1468 C1469 1.396 . S
C1468 C1473 1.390 . S
C1469 C1463 1.465 . S
C1469 C1468 1.396 . S
C1469 C1470 1.399 . S
C1470 H1456 0.929 . S
C1470 C1469 1.399 . S
C1470 C1471 1.385 . S
C1471 H1457 0.931 . S
C1471 C1470 1.385 . S
C1471 C1472 1.389 . S
C1472 C1471 1.389 . S
C1472 C1473 1.387 . S
C1473 H1458 0.930 . S
C1473 C1468 1.390 . S
C1473 C1472 1.387 . S
H1474 C1486 0.930 . S
H1475 C1488 0.930 . S
H1476 C1489 0.930 . S
H1477 C1493 0.959 . S
H1478 C1493 0.959 . S
H1479 C1493 0.961 . S
H1480 C1494 0.972 . S
H1481 C1494 0.946 1_556 S
H1482 C1494 0.975 . S
H1483 C1497 0.929 . S
H1484 C1498 0.931 . S
H1485 C1500 0.930 . S
C1486 H1474 0.930 . S
C1486 C1487 1.399 . S
C1486 C1491 1.399 . S
C1487 C1486 1.399 . S
C1487 C1488 1.376 . S
C1488 H1475 0.930 . S
C1488 C1487 1.376 . S
C1488 C1489 1.388 . S
C1489 H1476 0.930 . S
C1489 C1488 1.388 . S
C1489 C1490 1.390 . S
C1490 C1489 1.390 . S
C1490 C1491 1.394 . S
C1490 C1496 1.465 1_554 S
C1491 C1486 1.399 . S
C1491 C1490 1.394 . S
C1491 C1492 1.516 1_554 S
C1492 C1491 1.516 1_556 S
C1492 C1493 1.502 . S
C1492 C1494 1.549 1_556 S
C1492 C1495 1.526 . S
C1493 H1477 0.959 . S
C1493 H1478 0.959 . S
C1493 H1479 0.961 . S
C1493 C1492 1.502 . S
C1494 H1480 0.972 . S
C1494 H1481 0.946 1_554 S
C1494 H1482 0.975 . S
C1494 C1492 1.549 1_554 S
C1495 C1492 1.526 . S
C1495 C1496 1.396 . S
C1495 C1500 1.390 . S
C1496 C1490 1.465 1_556 S
C1496 C1495 1.396 . S
C1496 C1497 1.399 . S
C1497 H1483 0.929 . S
C1497 C1496 1.399 . S
C1497 C1498 1.385 . S
C1498 H1484 0.931 . S
C1498 C1497 1.385 . S
C1498 C1499 1.389 . S
C1499 C1498 1.389 . S
C1499 C1500 1.387 . S
C1500 H1485 0.930 . S
C1500 C1495 1.390 . S
C1500 C1499 1.387 . S
H1501 C1513 0.922 1_655 S
H1502 C1515 0.930 . S
H1503 C1516 0.930 . S
H1504 C1520 0.959 . S
H1505 C1520 0.959 . S
H1506 C1520 0.961 . S
H1507 C1521 0.960 . S
H1508 C1521 0.961 . S
H1509 C1521 0.959 . S
H1510 C1524 0.929 . S
H1511 C1525 0.931 . S
H1512 C1527 0.930 . S
C1513 H1501 0.922 1_455 S
C1513 C1514 1.386 1_455 S
C1513 C1518 1.420 . S
C1514 C1513 1.386 1_655 S
C1514 C1515 1.376 . S
C1515 H1502 0.930 . S
C1515 C1514 1.376 . S
C1515 C1516 1.388 1_655 S
C1516 H1503 0.930 . S
C1516 C1515 1.388 1_455 S
C1516 C1517 1.390 . S
C1517 C1516 1.390 . S
C1517 C1518 1.394 . S
C1517 C1523 1.465 . S
C1518 C1513 1.420 . S
C1518 C1517 1.394 . S
C1518 C1519 1.516 . S
C1519 C1518 1.516 . S
C1519 C1520 1.502 . S
C1519 C1521 1.561 . S
C1519 C1522 1.526 . S
C1520 H1504 0.959 . S
C1520 H1505 0.959 . S
C1520 H1506 0.961 . S
C1520 C1519 1.502 . S
C1521 H1507 0.960 . S
C1521 H1508 0.961 . S
C1521 H1509 0.959 . S
C1521 C1519 1.561 . S
C1522 C1519 1.526 . S
C1522 C1523 1.396 . S
C1522 C1527 1.390 . S
C1523 C1517 1.465 . S
C1523 C1522 1.396 . S
C1523 C1524 1.399 . S
C1524 H1510 0.929 . S
C1524 C1523 1.399 . S
C1524 C1525 1.385 . S
C1525 H1511 0.931 . S
C1525 C1524 1.385 . S
C1525 C1526 1.389 . S
C1526 C1525 1.389 . S
C1526 C1527 1.387 . S
C1527 H1512 0.930 . S
C1527 C1522 1.390 . S
C1527 C1526 1.387 . S
H1528 C1540 0.930 . S
H1529 C1542 0.930 . S
H1530 C1543 0.930 . S
H1531 C1547 0.959 . S
H1532 C1547 0.959 . S
H1533 C1547 0.961 . S
H1534 C1548 0.960 . S
H1535 C1548 0.961 . S
H1536 C1548 0.959 . S
H1537 C1551 0.929 . S
H1538 C1552 0.931 . S
H1539 C1554 0.930 . S
C1540 H1528 0.930 . S
C1540 C1541 1.399 . S
C1540 C1545 1.399 . S
C1541 C1540 1.399 . S
C1541 C1542 1.376 . S
C1542 H1529 0.930 . S
C1542 C1541 1.376 . S
C1542 C1543 1.388 . S
C1543 H1530 0.930 . S
C1543 C1542 1.388 . S
C1543 C1544 1.390 . S
C1544 C1543 1.390 . S
C1544 C1545 1.394 . S
C1544 C1550 1.465 . S
C1545 C1540 1.399 . S
C1545 C1544 1.394 . S
C1545 C1546 1.516 . S
C1546 C1545 1.516 . S
C1546 C1547 1.502 . S
C1546 C1548 1.561 . S
C1546 C1549 1.526 . S
C1547 H1531 0.959 . S
C1547 H1532 0.959 . S
C1547 H1533 0.961 . S
C1547 C1546 1.502 . S
C1548 H1534 0.960 . S
C1548 H1535 0.961 . S
C1548 H1536 0.959 . S
C1548 C1546 1.561 . S
C1549 C1546 1.526 . S
C1549 C1550 1.396 . S
C1549 C1554 1.390 . S
C1550 C1544 1.465 . S
C1550 C1549 1.396 . S
C1550 C1551 1.399 . S
C1551 H1537 0.929 . S
C1551 C1550 1.399 . S
C1551 C1552 1.385 . S
C1552 H1538 0.931 . S
C1552 C1551 1.385 . S
C1552 C1553 1.389 . S
C1553 C1552 1.389 . S
C1553 C1554 1.387 . S
C1554 H1539 0.930 . S
C1554 C1549 1.390 . S
C1554 C1553 1.387 . S
H1555 C1567 0.930 . S
H1556 C1569 0.930 . S
H1557 C1570 0.930 . S
H1558 C1574 0.959 . S
H1559 C1574 0.959 1_655 S
H1560 C1574 0.961 . S
H1561 C1575 0.960 . S
H1562 C1575 0.961 . S
H1563 C1575 0.959 . S
H1564 C1578 0.929 . S
H1565 C1579 0.931 . S
H1566 C1581 0.930 . S
C1567 H1555 0.930 . S
C1567 C1568 1.399 . S
C1567 C1572 1.399 1_455 S
C1568 C1567 1.399 . S
C1568 C1569 1.376 . S
C1569 H1556 0.930 . S
C1569 C1568 1.376 . S
C1569 C1570 1.388 1_455 S
C1570 H1557 0.930 . S
C1570 C1569 1.388 1_655 S
C1570 C1571 1.390 . S
C1571 C1570 1.390 . S
C1571 C1572 1.394 . S
C1571 C1577 1.465 . S
C1572 C1567 1.399 1_655 S
C1572 C1571 1.394 . S
C1572 C1573 1.516 . S
C1573 C1572 1.516 . S
C1573 C1574 1.502 1_655 S
C1573 C1575 1.561 . S
C1573 C1576 1.526 . S
C1574 H1558 0.959 . S
C1574 H1559 0.959 1_455 S
C1574 H1560 0.961 . S
C1574 C1573 1.502 1_455 S
C1575 H1561 0.960 . S
C1575 H1562 0.961 . S
C1575 H1563 0.959 . S
C1575 C1573 1.561 . S
C1576 C1573 1.526 . S
C1576 C1577 1.396 . S
C1576 C1581 1.390 . S
C1577 C1571 1.465 . S
C1577 C1576 1.396 . S
C1577 C1578 1.399 . S
C1578 H1564 0.929 . S
C1578 C1577 1.399 . S
C1578 C1579 1.385 . S
C1579 H1565 0.931 . S
C1579 C1578 1.385 . S
C1579 C1580 1.389 . S
C1580 C1579 1.389 . S
C1580 C1581 1.387 . S
C1581 H1566 0.930 . S
C1581 C1576 1.390 . S
C1581 C1580 1.387 . S
H1582 C1594 0.930 . S
H1583 C1596 0.930 1_455 S
H1584 C1597 0.930 . S
H1585 C1601 0.954 1_455 S
H1586 C1601 0.959 . S
H1587 C1601 0.961 1_455 S
H1588 C1602 0.960 . S
H1589 C1602 0.961 . S
H1590 C1602 0.959 . S
H1591 C1605 0.929 . S
H1592 C1606 0.931 . S
H1593 C1608 0.930 . S
C1594 H1582 0.930 . S
C1594 C1595 1.399 . S
C1594 C1599 1.399 1_455 S
C1595 C1594 1.399 . S
C1595 C1596 1.376 1_455 S
C1596 H1583 0.930 1_655 S
C1596 C1595 1.376 1_655 S
C1596 C1597 1.388 . S
C1597 H1584 0.930 . S
C1597 C1596 1.388 . S
C1597 C1598 1.390 . S
C1598 C1597 1.390 . S
C1598 C1599 1.394 . S
C1598 C1604 1.465 . S
C1599 C1594 1.399 1_655 S
C1599 C1598 1.394 . S
C1599 C1600 1.516 . S
C1600 C1599 1.516 . S
C1600 C1601 1.502 . S
C1600 C1602 1.561 . S
C1600 C1603 1.526 . S
C1601 H1585 0.954 1_655 S
C1601 H1586 0.959 . S
C1601 H1587 0.961 1_655 S
C1601 C1600 1.502 . S
C1602 H1588 0.960 . S
C1602 H1589 0.961 . S
C1602 H1590 0.959 . S
C1602 C1600 1.561 . S
C1603 C1600 1.526 . S
C1603 C1604 1.396 . S
C1603 C1608 1.390 . S
C1604 C1598 1.465 . S
C1604 C1603 1.396 . S
C1604 C1605 1.399 . S
C1605 H1591 0.929 . S
C1605 C1604 1.399 . S
C1605 C1606 1.385 . S
C1606 H1592 0.931 . S
C1606 C1605 1.385 . S
C1606 C1607 1.389 . S
C1607 C1606 1.389 . S
C1607 C1608 1.387 . S
C1608 H1593 0.930 . S
C1608 C1603 1.390 . S
C1608 C1607 1.387 . S
H1609 C1621 0.930 . S
H1610 C1623 0.930 . S
H1611 C1624 0.930 . S
H1612 C1628 0.959 . S
H1613 C1628 0.959 . S
H1614 C1628 0.961 . S
H1615 C1629 0.960 . S
H1616 C1629 0.961 . S
H1617 C1629 0.959 . S
H1618 C1632 0.929 . S
H1619 C1633 0.931 . S
H1620 C1635 0.930 . S
C1621 H1609 0.930 . S
C1621 C1622 1.399 . S
C1621 C1626 1.399 . S
C1622 C1621 1.399 . S
C1622 C1623 1.376 . S
C1623 H1610 0.930 . S
C1623 C1622 1.376 . S
C1623 C1624 1.388 . S
C1624 H1611 0.930 . S
C1624 C1623 1.388 . S
C1624 C1625 1.390 . S
C1625 C1624 1.390 . S
C1625 C1626 1.394 . S
C1625 C1631 1.465 . S
C1626 C1621 1.399 . S
C1626 C1625 1.394 . S
C1626 C1627 1.516 . S
C1627 C1626 1.516 . S
C1627 C1628 1.502 . S
C1627 C1629 1.561 . S
C1627 C1630 1.526 . S
C1628 H1612 0.959 . S
C1628 H1613 0.959 . S
C1628 H1614 0.961 . S
C1628 C1627 1.502 . S
C1629 H1615 0.960 . S
C1629 H1616 0.961 . S
C1629 H1617 0.959 . S
C1629 C1627 1.561 . S
C1630 C1627 1.526 . S
C1630 C1631 1.396 . S
C1630 C1635 1.390 . S
C1631 C1625 1.465 . S
C1631 C1630 1.396 . S
C1631 C1632 1.399 . S
C1632 H1618 0.929 . S
C1632 C1631 1.399 . S
C1632 C1633 1.385 . S
C1633 H1619 0.931 . S
C1633 C1632 1.385 . S
C1633 C1634 1.389 . S
C1634 C1633 1.389 . S
C1634 C1635 1.387 . S
C1635 H1620 0.930 . S
C1635 C1630 1.390 . S
C1635 C1634 1.387 . S
H1636 C1648 0.930 . S
H1637 C1650 0.930 . S
H1638 C1651 0.930 1_455 S
H1639 C1655 0.959 . S
H1640 C1655 0.959 . S
H1641 C1655 0.961 . S
H1642 C1656 0.960 1_655 S
H1643 C1656 0.961 . S
H1644 C1656 0.959 . S
H1645 C1659 0.929 . S
H1646 C1660 0.931 . S
H1647 C1662 0.930 . S
C1648 H1636 0.930 . S
C1648 C1649 1.399 . S
C1648 C1653 1.399 . S
C1649 C1648 1.399 . S
C1649 C1650 1.376 . S
C1650 H1637 0.930 . S
C1650 C1649 1.376 . S
C1650 C1651 1.388 . S
C1651 H1638 0.930 1_655 S
C1651 C1650 1.388 . S
C1651 C1652 1.393 . S
C1652 C1651 1.393 . S
C1652 C1653 1.403 . S
C1652 C1658 1.454 1_655 S
C1653 C1648 1.399 . S
C1653 C1652 1.403 . S
C1653 C1654 1.516 . S
C1654 C1653 1.516 . S
C1654 C1655 1.502 . S
C1654 C1656 1.561 1_655 S
C1654 C1657 1.526 1_655 S
C1655 H1639 0.959 . S
C1655 H1640 0.959 . S
C1655 H1641 0.961 . S
C1655 C1654 1.502 . S
C1656 H1642 0.960 1_455 S
C1656 H1643 0.961 . S
C1656 H1644 0.959 . S
C1656 C1654 1.561 1_455 S
C1657 C1654 1.526 1_455 S
C1657 C1658 1.396 . S
C1657 C1662 1.390 . S
C1658 C1652 1.454 1_455 S
C1658 C1657 1.396 . S
C1658 C1659 1.399 . S
C1659 H1645 0.929 . S
C1659 C1658 1.399 . S
C1659 C1660 1.385 . S
C1660 H1646 0.931 . S
C1660 C1659 1.385 . S
C1660 C1661 1.389 . S
C1661 C1660 1.389 . S
C1661 C1662 1.387 . S
C1662 H1647 0.930 . S
C1662 C1657 1.390 . S
C1662 C1661 1.387 . S
H1663 C1675 0.930 . S
H1664 C1677 0.930 . S
H1665 C1678 0.930 . S
H1666 C1682 0.959 . S
H1667 C1682 0.959 . S
H1668 C1682 0.961 . S
H1669 C1683 0.960 . S
H1670 C1683 0.961 . S
H1671 C1683 0.959 . S
H1672 C1686 0.929 . S
H1673 C1687 0.931 . S
H1674 C1689 0.930 . S
C1675 H1663 0.930 . S
C1675 C1676 1.399 . S
C1675 C1680 1.399 . S
C1676 C1675 1.399 . S
C1676 C1677 1.376 . S
C1677 H1664 0.930 . S
C1677 C1676 1.376 . S
C1677 C1678 1.388 . S
C1678 H1665 0.930 . S
C1678 C1677 1.388 . S
C1678 C1679 1.390 . S
C1679 C1678 1.390 . S
C1679 C1680 1.394 . S
C1679 C1685 1.465 . S
C1680 C1675 1.399 . S
C1680 C1679 1.394 . S
C1680 C1681 1.516 . S
C1681 C1680 1.516 . S
C1681 C1682 1.502 . S
C1681 C1683 1.561 . S
C1681 C1684 1.526 . S
C1682 H1666 0.959 . S
C1682 H1667 0.959 . S
C1682 H1668 0.961 . S
C1682 C1681 1.502 . S
C1683 H1669 0.960 . S
C1683 H1670 0.961 . S
C1683 H1671 0.959 . S
C1683 C1681 1.561 . S
C1684 C1681 1.526 . S
C1684 C1685 1.396 . S
C1684 C1689 1.390 . S
C1685 C1679 1.465 . S
C1685 C1684 1.396 . S
C1685 C1686 1.399 . S
C1686 H1672 0.929 . S
C1686 C1685 1.399 . S
C1686 C1687 1.385 . S
C1687 H1673 0.931 . S
C1687 C1686 1.385 . S
C1687 C1688 1.389 . S
C1688 C1687 1.389 . S
C1688 C1689 1.387 . S
C1689 H1674 0.930 . S
C1689 C1684 1.390 . S
C1689 C1688 1.387 . S
H1690 C1702 0.930 . S
H1691 C1704 0.930 . S
H1692 C1705 0.930 . S
H1693 C1709 0.959 . S
H1694 C1709 0.959 . S
H1695 C1709 0.961 . S
H1696 C1710 0.960 . S
H1697 C1710 0.961 . S
H1698 C1710 0.959 . S
H1699 C1713 0.929 . S
H1700 C1714 0.931 . S
H1701 C1716 0.930 . S
C1702 H1690 0.930 . S
C1702 C1703 1.399 . S
C1702 C1707 1.399 . S
C1703 C1702 1.399 . S
C1703 C1704 1.376 . S
C1704 H1691 0.930 . S
C1704 C1703 1.376 . S
C1704 C1705 1.388 . S
C1705 H1692 0.930 . S
C1705 C1704 1.388 . S
C1705 C1706 1.390 . S
C1706 C1705 1.390 . S
C1706 C1707 1.394 . S
C1706 C1712 1.465 . S
C1707 C1702 1.399 . S
C1707 C1706 1.394 . S
C1707 C1708 1.516 . S
C1708 C1707 1.516 . S
C1708 C1709 1.502 . S
C1708 C1710 1.561 . S
C1708 C1711 1.526 . S
C1709 H1693 0.959 . S
C1709 H1694 0.959 . S
C1709 H1695 0.961 . S
C1709 C1708 1.502 . S
C1710 H1696 0.960 . S
C1710 H1697 0.961 . S
C1710 H1698 0.959 . S
C1710 C1708 1.561 . S
C1711 C1708 1.526 . S
C1711 C1712 1.396 . S
C1711 C1716 1.390 . S
C1712 C1706 1.465 . S
C1712 C1711 1.396 . S
C1712 C1713 1.399 . S
C1713 H1699 0.929 . S
C1713 C1712 1.399 . S
C1713 C1714 1.385 . S
C1714 H1700 0.931 . S
C1714 C1713 1.385 . S
C1714 C1715 1.389 . S
C1715 C1714 1.389 . S
C1715 C1716 1.387 . S
C1716 H1701 0.930 . S
C1716 C1711 1.390 . S
C1716 C1715 1.387 . S
H1717 C1729 0.930 . S
H1718 C1731 0.930 . S
H1719 C1732 0.930 . S
H1720 C1736 0.959 . S
H1721 C1736 0.959 . S
H1722 C1736 0.961 . S
H1723 C1737 0.960 . S
H1724 C1737 0.961 . S
H1725 C1737 0.959 . S
H1726 C1740 0.929 . S
H1727 C1741 0.931 . S
H1728 C1743 0.930 . S
C1729 H1717 0.930 . S
C1729 C1730 1.399 . S
C1729 C1734 1.399 1_554 S
C1730 C1729 1.399 . S
C1730 C1731 1.376 . S
C1731 H1718 0.930 . S
C1731 C1730 1.376 . S
C1731 C1732 1.388 . S
C1732 H1719 0.930 . S
C1732 C1731 1.388 . S
C1732 C1733 1.390 1_554 S
C1733 C1732 1.390 1_556 S
C1733 C1734 1.394 . S
C1733 C1739 1.465 . S
C1734 C1729 1.399 1_556 S
C1734 C1733 1.394 . S
C1734 C1735 1.516 . S
C1735 C1734 1.516 . S
C1735 C1736 1.502 . S
C1735 C1737 1.561 . S
C1735 C1738 1.526 . S
C1736 H1720 0.959 . S
C1736 H1721 0.959 . S
C1736 H1722 0.961 . S
C1736 C1735 1.502 . S
C1737 H1723 0.960 . S
C1737 H1724 0.961 . S
C1737 H1725 0.959 . S
C1737 C1735 1.561 . S
C1738 C1735 1.526 . S
C1738 C1739 1.396 . S
C1738 C1743 1.390 . S
C1739 C1733 1.465 . S
C1739 C1738 1.396 . S
C1739 C1740 1.399 . S
C1740 H1726 0.929 . S
C1740 C1739 1.399 . S
C1740 C1741 1.385 . S
C1741 H1727 0.931 . S
C1741 C1740 1.385 . S
C1741 C1742 1.389 . S
C1742 C1741 1.389 . S
C1742 C1743 1.387 . S
C1743 H1728 0.930 . S
C1743 C1738 1.390 . S
C1743 C1742 1.387 . S
H1744 C1756 0.930 . S
H1745 C1758 0.930 . S
H1746 C1759 0.930 . S
H1747 C1763 0.959 . S
H1748 C1763 0.959 . S
H1749 C1763 0.961 . S
H1750 C1764 0.960 . S
H1751 C1764 0.961 . S
H1752 C1764 0.959 . S
H1753 C1767 0.929 . S
H1754 C1768 0.931 . S
H1755 C1770 0.930 . S
C1756 H1744 0.930 . S
C1756 C1757 1.399 . S
C1756 C1761 1.399 . S
C1757 C1756 1.399 . S
C1757 C1758 1.376 . S
C1758 H1745 0.930 . S
C1758 C1757 1.376 . S
C1758 C1759 1.388 . S
C1759 H1746 0.930 . S
C1759 C1758 1.388 . S
C1759 C1760 1.390 . S
C1760 C1759 1.390 . S
C1760 C1761 1.394 . S
C1760 C1766 1.465 . S
C1761 C1756 1.399 . S
C1761 C1760 1.394 . S
C1761 C1762 1.516 . S
C1762 C1761 1.516 . S
C1762 C1763 1.502 . S
C1762 C1764 1.561 . S
C1762 C1765 1.526 . S
C1763 H1747 0.959 . S
C1763 H1748 0.959 . S
C1763 H1749 0.961 . S
C1763 C1762 1.502 . S
C1764 H1750 0.960 . S
C1764 H1751 0.961 . S
C1764 H1752 0.959 . S
C1764 C1762 1.561 . S
C1765 C1762 1.526 . S
C1765 C1766 1.396 . S
C1765 C1770 1.390 . S
C1766 C1760 1.465 . S
C1766 C1765 1.396 . S
C1766 C1767 1.399 . S
C1767 H1753 0.929 . S
C1767 C1766 1.399 . S
C1767 C1768 1.385 . S
C1768 H1754 0.931 . S
C1768 C1767 1.385 . S
C1768 C1769 1.389 . S
C1769 C1768 1.389 . S
C1769 C1770 1.387 . S
C1770 H1755 0.930 . S
C1770 C1765 1.390 . S
C1770 C1769 1.387 . S
H1771 C1783 0.930 . S
H1772 C1785 0.930 . S
H1773 C1786 0.930 . S
H1774 C1790 0.959 . S
H1775 C1790 0.959 . S
H1776 C1790 0.961 . S
H1777 C1791 0.960 . S
H1778 C1791 0.961 . S
H1779 C1791 0.959 . S
H1780 C1794 0.929 . S
H1781 C1795 0.931 . S
H1782 C1797 0.930 . S
C1783 H1771 0.930 . S
C1783 C1784 1.399 . S
C1783 C1788 1.399 . S
C1784 C1783 1.399 . S
C1784 C1785 1.376 . S
C1785 H1772 0.930 . S
C1785 C1784 1.376 . S
C1785 C1786 1.388 . S
C1786 H1773 0.930 . S
C1786 C1785 1.388 . S
C1786 C1787 1.390 . S
C1787 C1786 1.390 . S
C1787 C1788 1.394 . S
C1787 C1793 1.465 . S
C1788 C1783 1.399 . S
C1788 C1787 1.394 . S
C1788 C1789 1.516 . S
C1789 C1788 1.516 . S
C1789 C1790 1.502 . S
C1789 C1791 1.561 . S
C1789 C1792 1.526 . S
C1790 H1774 0.959 . S
C1790 H1775 0.959 . S
C1790 H1776 0.961 . S
C1790 C1789 1.502 . S
C1791 H1777 0.960 . S
C1791 H1778 0.961 . S
C1791 H1779 0.959 . S
C1791 C1789 1.561 . S
C1792 C1789 1.526 . S
C1792 C1793 1.396 . S
C1792 C1797 1.390 . S
C1793 C1787 1.465 . S
C1793 C1792 1.396 . S
C1793 C1794 1.399 . S
C1794 H1780 0.929 . S
C1794 C1793 1.399 . S
C1794 C1795 1.385 . S
C1795 H1781 0.931 . S
C1795 C1794 1.385 . S
C1795 C1796 1.389 . S
C1796 C1795 1.389 . S
C1796 C1797 1.387 . S
C1797 H1782 0.930 . S
C1797 C1792 1.390 . S
C1797 C1796 1.387 . S
H1798 C1810 0.930 . S
H1799 C1812 0.930 . S
H1800 C1813 0.930 . S
H1801 C1817 0.959 . S
H1802 C1817 0.959 . S
H1803 C1817 0.961 . S
H1804 C1818 0.960 . S
H1805 C1818 0.961 . S
H1806 C1818 0.959 . S
H1807 C1821 0.929 . S
H1808 C1822 0.931 . S
H1809 C1824 0.930 . S
C1810 H1798 0.930 . S
C1810 C1811 1.399 . S
C1810 C1815 1.399 . S
C1811 C1810 1.399 . S
C1811 C1812 1.376 . S
C1812 H1799 0.930 . S
C1812 C1811 1.376 . S
C1812 C1813 1.388 . S
C1813 H1800 0.930 . S
C1813 C1812 1.388 . S
C1813 C1814 1.390 . S
C1814 C1813 1.390 . S
C1814 C1815 1.394 . S
C1814 C1820 1.465 . S
C1815 C1810 1.399 . S
C1815 C1814 1.394 . S
C1815 C1816 1.516 . S
C1816 C1815 1.516 . S
C1816 C1817 1.502 . S
C1816 C1818 1.561 . S
C1816 C1819 1.526 . S
C1817 H1801 0.959 . S
C1817 H1802 0.959 . S
C1817 H1803 0.961 . S
C1817 C1816 1.502 . S
C1818 H1804 0.960 . S
C1818 H1805 0.961 . S
C1818 H1806 0.959 . S
C1818 C1816 1.561 . S
C1819 C1816 1.526 . S
C1819 C1820 1.396 . S
C1819 C1824 1.390 . S
C1820 C1814 1.465 . S
C1820 C1819 1.396 . S
C1820 C1821 1.399 . S
C1821 H1807 0.929 . S
C1821 C1820 1.399 . S
C1821 C1822 1.385 . S
C1822 H1808 0.931 . S
C1822 C1821 1.385 . S
C1822 C1823 1.389 . S
C1823 C1822 1.389 . S
C1823 C1824 1.387 . S
C1824 H1809 0.930 . S
C1824 C1819 1.390 . S
C1824 C1823 1.387 . S
H1825 C1837 0.930 . S
H1826 C1839 0.930 . S
H1827 C1840 0.930 . S
H1828 C1844 0.959 . S
H1829 C1844 0.959 . S
H1830 C1844 0.961 . S
H1831 C1845 0.960 . S
H1832 C1845 0.961 1_556 S
H1833 C1845 0.959 . S
H1834 C1848 0.929 . S
H1835 C1849 0.931 . S
H1836 C1851 0.930 . S
C1837 H1825 0.930 . S
C1837 C1838 1.399 . S
C1837 C1842 1.399 1_554 S
C1838 C1837 1.399 . S
C1838 C1839 1.376 . S
C1839 H1826 0.930 . S
C1839 C1838 1.376 . S
C1839 C1840 1.388 . S
C1840 H1827 0.930 . S
C1840 C1839 1.388 . S
C1840 C1841 1.390 1_554 S
C1841 C1840 1.390 1_556 S
C1841 C1842 1.394 . S
C1841 C1847 1.465 . S
C1842 C1837 1.399 1_556 S
C1842 C1841 1.394 . S
C1842 C1843 1.516 . S
C1843 C1842 1.516 . S
C1843 C1844 1.502 . S
C1843 C1845 1.561 1_556 S
C1843 C1846 1.526 . S
C1844 H1828 0.959 . S
C1844 H1829 0.959 . S
C1844 H1830 0.961 . S
C1844 C1843 1.502 . S
C1845 H1831 0.960 . S
C1845 H1832 0.961 1_554 S
C1845 H1833 0.959 . S
C1845 C1843 1.561 1_554 S
C1846 C1843 1.526 . S
C1846 C1847 1.396 . S
C1846 C1851 1.390 . S
C1847 C1841 1.465 . S
C1847 C1846 1.396 . S
C1847 C1848 1.399 . S
C1848 H1834 0.929 . S
C1848 C1847 1.399 . S
C1848 C1849 1.385 . S
C1849 H1835 0.931 . S
C1849 C1848 1.385 . S
C1849 C1850 1.389 . S
C1850 C1849 1.389 . S
C1850 C1851 1.387 . S
C1851 H1836 0.930 . S
C1851 C1846 1.390 . S
C1851 C1850 1.387 . S
H1852 C1864 0.930 . S
H1853 C1866 0.930 . S
H1854 C1867 0.930 . S
H1855 C1871 0.959 . S
H1856 C1871 0.959 . S
H1857 C1871 0.961 . S
H1858 C1872 0.960 . S
H1859 C1872 0.961 . S
H1860 C1872 0.959 . S
H1861 C1875 0.929 . S
H1862 C1876 0.931 . S
H1863 C1878 0.930 . S
C1864 H1852 0.930 . S
C1864 C1865 1.399 . S
C1864 C1869 1.399 . S
C1865 C1864 1.399 . S
C1865 C1866 1.376 . S
C1866 H1853 0.930 . S
C1866 C1865 1.376 . S
C1866 C1867 1.388 . S
C1867 H1854 0.930 . S
C1867 C1866 1.388 . S
C1867 C1868 1.390 . S
C1868 C1867 1.390 . S
C1868 C1869 1.394 . S
C1868 C1874 1.465 . S
C1869 C1864 1.399 . S
C1869 C1868 1.394 . S
C1869 C1870 1.516 . S
C1870 C1869 1.516 . S
C1870 C1871 1.502 . S
C1870 C1872 1.561 . S
C1870 C1873 1.526 . S
C1871 H1855 0.959 . S
C1871 H1856 0.959 . S
C1871 H1857 0.961 . S
C1871 C1870 1.502 . S
C1872 H1858 0.960 . S
C1872 H1859 0.961 . S
C1872 H1860 0.959 . S
C1872 C1870 1.561 . S
C1873 C1870 1.526 . S
C1873 C1874 1.396 . S
C1873 C1878 1.390 . S
C1874 C1868 1.465 . S
C1874 C1873 1.396 . S
C1874 C1875 1.399 . S
C1875 H1861 0.929 . S
C1875 C1874 1.399 . S
C1875 C1876 1.385 . S
C1876 H1862 0.931 . S
C1876 C1875 1.385 . S
C1876 C1877 1.389 . S
C1877 C1876 1.389 . S
C1877 C1878 1.387 . S
C1878 H1863 0.930 . S
C1878 C1873 1.390 . S
C1878 C1877 1.387 . S
H1879 C1891 0.930 . S
H1880 C1893 0.930 . S
H1881 C1894 0.930 . S
H1882 C1898 0.959 . S
H1883 C1898 0.959 . S
H1884 C1898 0.961 . S
H1885 C1899 0.960 . S
H1886 C1899 0.961 . S
H1887 C1899 0.959 . S
H1888 C1902 0.929 . S
H1889 C1903 0.931 . S
H1890 C1905 0.930 . S
C1891 H1879 0.930 . S
C1891 C1892 1.399 . S
C1891 C1896 1.399 . S
C1892 C1891 1.399 . S
C1892 C1893 1.376 . S
C1893 H1880 0.930 . S
C1893 C1892 1.376 . S
C1893 C1894 1.388 . S
C1894 H1881 0.930 . S
C1894 C1893 1.388 . S
C1894 C1895 1.390 . S
C1895 C1894 1.390 . S
C1895 C1896 1.394 . S
C1895 C1901 1.465 . S
C1896 C1891 1.399 . S
C1896 C1895 1.394 . S
C1896 C1897 1.516 . S
C1897 C1896 1.516 . S
C1897 C1898 1.502 . S
C1897 C1899 1.561 . S
C1897 C1900 1.526 . S
C1898 H1882 0.959 . S
C1898 H1883 0.959 . S
C1898 H1884 0.961 . S
C1898 C1897 1.502 . S
C1899 H1885 0.960 . S
C1899 H1886 0.961 . S
C1899 H1887 0.959 . S
C1899 C1897 1.561 . S
C1900 C1897 1.526 . S
C1900 C1901 1.396 . S
C1900 C1905 1.390 . S
C1901 C1895 1.465 . S
C1901 C1900 1.396 . S
C1901 C1902 1.399 . S
C1902 H1888 0.929 . S
C1902 C1901 1.399 . S
C1902 C1903 1.385 . S
C1903 H1889 0.931 . S
C1903 C1902 1.385 . S
C1903 C1904 1.389 . S
C1904 C1903 1.389 . S
C1904 C1905 1.387 . S
C1905 H1890 0.930 . S
C1905 C1900 1.390 . S
C1905 C1904 1.387 . S
H1906 C1918 0.930 . S
H1907 C1920 0.930 . S
H1908 C1921 0.930 . S
H1909 C1925 0.959 . S
H1910 C1925 0.959 . S
H1911 C1925 0.961 . S
H1912 C1926 0.960 . S
H1913 C1926 0.961 . S
H1914 C1926 0.959 . S
H1915 C1929 0.929 . S
H1916 C1930 0.931 . S
H1917 C1932 0.930 . S
C1918 H1906 0.930 . S
C1918 C1919 1.399 . S
C1918 C1923 1.399 . S
C1919 C1918 1.399 . S
C1919 C1920 1.376 . S
C1920 H1907 0.930 . S
C1920 C1919 1.376 . S
C1920 C1921 1.388 . S
C1921 H1908 0.930 . S
C1921 C1920 1.388 . S
C1921 C1922 1.390 . S
C1922 C1921 1.390 . S
C1922 C1923 1.394 . S
C1922 C1928 1.465 . S
C1923 C1918 1.399 . S
C1923 C1922 1.394 . S
C1923 C1924 1.516 . S
C1924 C1923 1.516 . S
C1924 C1925 1.502 . S
C1924 C1926 1.561 . S
C1924 C1927 1.526 . S
C1925 H1909 0.959 . S
C1925 H1910 0.959 . S
C1925 H1911 0.961 . S
C1925 C1924 1.502 . S
C1926 H1912 0.960 . S
C1926 H1913 0.961 . S
C1926 H1914 0.959 . S
C1926 C1924 1.561 . S
C1927 C1924 1.526 . S
C1927 C1928 1.396 . S
C1927 C1932 1.390 . S
C1928 C1922 1.465 . S
C1928 C1927 1.396 . S
C1928 C1929 1.399 . S
C1929 H1915 0.929 . S
C1929 C1928 1.399 . S
C1929 C1930 1.385 . S
C1930 H1916 0.931 . S
C1930 C1929 1.385 . S
C1930 C1931 1.389 . S
C1931 C1930 1.389 . S
C1931 C1932 1.387 . S
C1932 H1917 0.930 . S
C1932 C1927 1.390 . S
C1932 C1931 1.387 . S
H1933 C1945 0.930 . S
H1934 C1947 0.930 . S
H1935 C1948 0.930 . S
H1936 C1952 0.959 . S
H1937 C1952 0.959 . S
H1938 C1952 0.961 . S
H1939 C1953 0.960 . S
H1940 C1953 0.961 . S
H1941 C1953 0.959 . S
H1942 C1956 0.929 . S
H1943 C1957 0.931 . S
H1944 C1959 0.930 . S
C1945 H1933 0.930 . S
C1945 C1946 1.399 . S
C1945 C1950 1.399 . S
C1946 C1945 1.399 . S
C1946 C1947 1.376 . S
C1947 H1934 0.930 . S
C1947 C1946 1.376 . S
C1947 C1948 1.388 . S
C1948 H1935 0.930 . S
C1948 C1947 1.388 . S
C1948 C1949 1.390 . S
C1949 C1948 1.390 . S
C1949 C1950 1.394 . S
C1949 C1955 1.465 . S
C1950 C1945 1.399 . S
C1950 C1949 1.394 . S
C1950 C1951 1.516 . S
C1951 C1950 1.516 . S
C1951 C1952 1.502 . S
C1951 C1953 1.561 . S
C1951 C1954 1.526 . S
C1952 H1936 0.959 . S
C1952 H1937 0.959 . S
C1952 H1938 0.961 . S
C1952 C1951 1.502 . S
C1953 H1939 0.960 . S
C1953 H1940 0.961 . S
C1953 H1941 0.959 . S
C1953 C1951 1.561 . S
C1954 C1951 1.526 . S
C1954 C1955 1.396 . S
C1954 C1959 1.390 . S
C1955 C1949 1.465 . S
C1955 C1954 1.396 . S
C1955 C1956 1.399 . S
C1956 H1942 0.929 . S
C1956 C1955 1.399 . S
C1956 C1957 1.385 . S
C1957 H1943 0.931 . S
C1957 C1956 1.385 . S
C1957 C1958 1.389 . S
C1958 C1957 1.389 . S
C1958 C1959 1.387 . S
C1959 H1944 0.930 . S
C1959 C1954 1.390 . S
C1959 C1958 1.387 . S
H1960 C1972 0.930 . S
H1961 C1974 0.930 . S
H1962 C1975 0.930 . S
H1963 C1979 0.959 . S
H1964 C1979 0.959 . S
H1965 C1979 0.961 . S
H1966 C1980 0.960 . S
H1967 C1980 0.961 . S
H1968 C1980 0.959 . S
H1969 C1983 0.929 . S
H1970 C1984 0.931 . S
H1971 C1986 0.930 . S
C1972 H1960 0.930 . S
C1972 C1973 1.399 . S
C1972 C1977 1.399 . S
C1973 C1972 1.399 . S
C1973 C1974 1.376 . S
C1974 H1961 0.930 . S
C1974 C1973 1.376 . S
C1974 C1975 1.388 . S
C1975 H1962 0.930 . S
C1975 C1974 1.388 . S
C1975 C1976 1.390 . S
C1976 C1975 1.390 . S
C1976 C1977 1.394 . S
C1976 C1982 1.465 . S
C1977 C1972 1.399 . S
C1977 C1976 1.394 . S
C1977 C1978 1.516 . S
C1978 C1977 1.516 . S
C1978 C1979 1.502 . S
C1978 C1980 1.561 . S
C1978 C1981 1.526 . S
C1979 H1963 0.959 . S
C1979 H1964 0.959 . S
C1979 H1965 0.961 . S
C1979 C1978 1.502 . S
C1980 H1966 0.960 . S
C1980 H1967 0.961 . S
C1980 H1968 0.959 . S
C1980 C1978 1.561 . S
C1981 C1978 1.526 . S
C1981 C1982 1.396 . S
C1981 C1986 1.390 1_554 S
C1982 C1976 1.465 . S
C1982 C1981 1.396 . S
C1982 C1983 1.399 . S
C1983 H1969 0.929 . S
C1983 C1982 1.399 . S
C1983 C1984 1.385 1_554 S
C1984 H1970 0.931 . S
C1984 C1983 1.385 1_556 S
C1984 C1985 1.389 . S
C1985 C1984 1.389 . S
C1985 C1986 1.387 . S
C1986 H1971 0.930 . S
C1986 C1981 1.390 1_556 S
C1986 C1985 1.387 . S
H1987 C1999 0.930 . S
H1988 C2001 0.930 . S
H1989 C2002 0.930 . S
H1990 C2006 0.959 . S
H1991 C2006 0.959 . S
H1992 C2006 0.961 . S
H1993 C2007 0.960 . S
H1994 C2007 0.961 . S
H1995 C2007 0.959 . S
H1996 C2010 0.929 . S
H1997 C2011 0.931 . S
H1998 C2013 0.930 . S
C1999 H1987 0.930 . S
C1999 C2000 1.399 . S
C1999 C2004 1.399 . S
C2000 C1999 1.399 . S
C2000 C2001 1.376 . S
C2001 H1988 0.930 . S
C2001 C2000 1.376 . S
C2001 C2002 1.388 . S
C2002 H1989 0.930 . S
C2002 C2001 1.388 . S
C2002 C2003 1.390 . S
C2003 C2002 1.390 . S
C2003 C2004 1.394 . S
C2003 C2009 1.465 . S
C2004 C1999 1.399 . S
C2004 C2003 1.394 . S
C2004 C2005 1.516 . S
C2005 C2004 1.516 . S
C2005 C2006 1.502 . S
C2005 C2007 1.561 . S
C2005 C2008 1.526 . S
C2006 H1990 0.959 . S
C2006 H1991 0.959 . S
C2006 H1992 0.961 . S
C2006 C2005 1.502 . S
C2007 H1993 0.960 . S
C2007 H1994 0.961 . S
C2007 H1995 0.959 . S
C2007 C2005 1.561 . S
C2008 C2005 1.526 . S
C2008 C2009 1.396 . S
C2008 C2013 1.390 . S
C2009 C2003 1.465 . S
C2009 C2008 1.396 . S
C2009 C2010 1.399 . S
C2010 H1996 0.929 . S
C2010 C2009 1.399 . S
C2010 C2011 1.385 . S
C2011 H1997 0.931 . S
C2011 C2010 1.385 . S
C2011 C2012 1.389 . S
C2012 C2011 1.389 . S
C2012 C2013 1.387 . S
C2013 H1998 0.930 . S
C2013 C2008 1.390 . S
C2013 C2012 1.387 . S
H2014 C2026 0.930 . S
H2015 C2028 0.930 . S
H2016 C2029 0.930 . S
H2017 C2033 0.959 . S
H2018 C2033 0.959 . S
H2019 C2033 0.961 . S
H2020 C2034 0.960 . S
H2021 C2034 0.961 . S
H2022 C2034 0.959 . S
H2023 C2037 0.929 . S
H2024 C2038 0.931 . S
H2025 C2040 0.930 . S
C2026 H2014 0.930 . S
C2026 C2027 1.399 . S
C2026 C2031 1.399 . S
C2027 C2026 1.399 . S
C2027 C2028 1.376 . S
C2028 H2015 0.930 . S
C2028 C2027 1.376 . S
C2028 C2029 1.388 . S
C2029 H2016 0.930 . S
C2029 C2028 1.388 . S
C2029 C2030 1.390 . S
C2030 C2029 1.390 . S
C2030 C2031 1.394 . S
C2030 C2036 1.465 . S
C2031 C2026 1.399 . S
C2031 C2030 1.394 . S
C2031 C2032 1.516 . S
C2032 C2031 1.516 . S
C2032 C2033 1.502 . S
C2032 C2034 1.561 . S
C2032 C2035 1.526 . S
C2033 H2017 0.959 . S
C2033 H2018 0.959 . S
C2033 H2019 0.961 . S
C2033 C2032 1.502 . S
C2034 H2020 0.960 . S
C2034 H2021 0.961 . S
C2034 H2022 0.959 . S
C2034 C2032 1.561 . S
C2035 C2032 1.526 . S
C2035 C2036 1.396 . S
C2035 C2040 1.390 . S
C2036 C2030 1.465 . S
C2036 C2035 1.396 . S
C2036 C2037 1.399 . S
C2037 H2023 0.929 . S
C2037 C2036 1.399 . S
C2037 C2038 1.385 . S
C2038 H2024 0.931 . S
C2038 C2037 1.385 . S
C2038 C2039 1.389 . S
C2039 C2038 1.389 . S
C2039 C2040 1.387 . S
C2040 H2025 0.930 . S
C2040 C2035 1.390 . S
C2040 C2039 1.387 . S
H2041 C2053 0.930 . S
H2042 C2055 0.930 . S
H2043 C2056 0.930 . S
H2044 C2060 0.959 . S
H2045 C2060 0.959 . S
H2046 C2060 0.961 . S
H2047 C2061 0.960 . S
H2048 C2061 0.961 . S
H2049 C2061 0.959 . S
H2050 C2064 0.929 . S
H2051 C2065 0.931 . S
H2052 C2067 0.930 . S
C2053 H2041 0.930 . S
C2053 C2054 1.399 . S
C2053 C2058 1.399 . S
C2054 C2053 1.399 . S
C2054 C2055 1.376 . S
C2055 H2042 0.930 . S
C2055 C2054 1.376 . S
C2055 C2056 1.388 . S
C2056 H2043 0.930 . S
C2056 C2055 1.388 . S
C2056 C2057 1.390 . S
C2057 C2056 1.390 . S
C2057 C2058 1.394 . S
C2057 C2063 1.465 . S
C2058 C2053 1.399 . S
C2058 C2057 1.394 . S
C2058 C2059 1.516 . S
C2059 C2058 1.516 . S
C2059 C2060 1.502 . S
C2059 C2061 1.561 . S
C2059 C2062 1.526 . S
C2060 H2044 0.959 . S
C2060 H2045 0.959 . S
C2060 H2046 0.961 . S
C2060 C2059 1.502 . S
C2061 H2047 0.960 . S
C2061 H2048 0.961 . S
C2061 H2049 0.959 . S
C2061 C2059 1.561 . S
C2062 C2059 1.526 . S
C2062 C2063 1.396 . S
C2062 C2067 1.390 . S
C2063 C2057 1.465 . S
C2063 C2062 1.396 . S
C2063 C2064 1.399 . S
C2064 H2050 0.929 . S
C2064 C2063 1.399 . S
C2064 C2065 1.385 . S
C2065 H2051 0.931 . S
C2065 C2064 1.385 . S
C2065 C2066 1.389 . S
C2066 C2065 1.389 . S
C2066 C2067 1.387 . S
C2067 H2052 0.930 . S
C2067 C2062 1.390 . S
C2067 C2066 1.387 . S
H2068 C2080 0.930 . S
H2069 C2082 0.930 . S
H2070 C2083 0.930 . S
H2071 C2087 0.959 . S
H2072 C2087 0.959 . S
H2073 C2087 0.961 . S
H2074 C2088 0.960 . S
H2075 C2088 0.961 . S
H2076 C2088 0.959 . S
H2077 C2091 0.929 . S
H2078 C2092 0.931 . S
H2079 C2094 0.930 . S
C2080 H2068 0.930 . S
C2080 C2081 1.399 . S
C2080 C2085 1.399 . S
C2081 C2080 1.399 . S
C2081 C2082 1.376 1_554 S
C2082 H2069 0.930 . S
C2082 C2081 1.376 1_556 S
C2082 C2083 1.388 . S
C2083 H2070 0.930 . S
C2083 C2082 1.388 . S
C2083 C2084 1.390 . S
C2084 C2083 1.390 . S
C2084 C2085 1.394 1_556 S
C2084 C2090 1.465 . S
C2085 C2080 1.399 . S
C2085 C2084 1.394 1_554 S
C2085 C2086 1.516 1_554 S
C2086 C2085 1.516 1_556 S
C2086 C2087 1.502 1_556 S
C2086 C2088 1.561 1_556 S
C2086 C2089 1.526 . S
C2087 H2071 0.959 . S
C2087 H2072 0.959 . S
C2087 H2073 0.961 . S
C2087 C2086 1.502 1_554 S
C2088 H2074 0.960 . S
C2088 H2075 0.961 . S
C2088 H2076 0.959 . S
C2088 C2086 1.561 1_554 S
C2089 C2086 1.526 . S
C2089 C2090 1.396 . S
C2089 C2094 1.390 . S
C2090 C2084 1.465 . S
C2090 C2089 1.396 . S
C2090 C2091 1.399 . S
C2091 H2077 0.929 . S
C2091 C2090 1.399 . S
C2091 C2092 1.385 . S
C2092 H2078 0.931 . S
C2092 C2091 1.385 . S
C2092 C2093 1.389 . S
C2093 C2092 1.389 . S
C2093 C2094 1.387 . S
C2094 H2079 0.930 . S
C2094 C2089 1.390 . S
C2094 C2093 1.387 . S
H2095 C2107 0.930 . S
H2096 C2109 0.930 . S
H2097 C2110 0.930 . S
H2098 C2114 0.959 . S
H2099 C2114 0.959 . S
H2100 C2114 0.961 . S
H2101 C2115 0.960 . S
H2102 C2115 0.961 . S
H2103 C2115 0.959 . S
H2104 C2118 0.929 . S
H2105 C2119 0.931 . S
H2106 C2121 0.930 . S
C2107 H2095 0.930 . S
C2107 C2108 1.399 . S
C2107 C2112 1.399 . S
C2108 C2107 1.399 . S
C2108 C2109 1.376 . S
C2109 H2096 0.930 . S
C2109 C2108 1.376 . S
C2109 C2110 1.388 . S
C2110 H2097 0.930 . S
C2110 C2109 1.388 . S
C2110 C2111 1.390 . S
C2111 C2110 1.390 . S
C2111 C2112 1.394 . S
C2111 C2117 1.465 . S
C2112 C2107 1.399 . S
C2112 C2111 1.394 . S
C2112 C2113 1.516 . S
C2113 C2112 1.516 . S
C2113 C2114 1.502 . S
C2113 C2115 1.561 . S
C2113 C2116 1.526 . S
C2114 H2098 0.959 . S
C2114 H2099 0.959 . S
C2114 H2100 0.961 . S
C2114 C2113 1.502 . S
C2115 H2101 0.960 . S
C2115 H2102 0.961 . S
C2115 H2103 0.959 . S
C2115 C2113 1.561 . S
C2116 C2113 1.526 . S
C2116 C2117 1.396 . S
C2116 C2121 1.390 . S
C2117 C2111 1.465 . S
C2117 C2116 1.396 . S
C2117 C2118 1.399 . S
C2118 H2104 0.929 . S
C2118 C2117 1.399 . S
C2118 C2119 1.385 . S
C2119 H2105 0.931 . S
C2119 C2118 1.385 . S
C2119 C2120 1.389 . S
C2120 C2119 1.389 . S
C2120 C2121 1.387 . S
C2121 H2106 0.930 . S
C2121 C2116 1.390 . S
C2121 C2120 1.387 . S
H2122 C2134 0.930 . S
H2123 C2136 0.930 . S
H2124 C2137 0.930 . S
H2125 C2141 0.959 . S
H2126 C2141 0.959 . S
H2127 C2141 0.961 . S
H2128 C2142 0.960 . S
H2129 C2142 0.961 . S
H2130 C2142 0.959 . S
H2131 C2145 0.929 . S
H2132 C2146 0.931 . S
H2133 C2148 0.930 . S
C2134 H2122 0.930 . S
C2134 C2135 1.399 . S
C2134 C2139 1.399 . S
C2135 C2134 1.399 . S
C2135 C2136 1.376 . S
C2136 H2123 0.930 . S
C2136 C2135 1.376 . S
C2136 C2137 1.388 . S
C2137 H2124 0.930 . S
C2137 C2136 1.388 . S
C2137 C2138 1.390 . S
C2138 C2137 1.390 . S
C2138 C2139 1.394 . S
C2138 C2144 1.465 . S
C2139 C2134 1.399 . S
C2139 C2138 1.394 . S
C2139 C2140 1.516 . S
C2140 C2139 1.516 . S
C2140 C2141 1.502 . S
C2140 C2142 1.561 . S
C2140 C2143 1.526 . S
C2141 H2125 0.959 . S
C2141 H2126 0.959 . S
C2141 H2127 0.961 . S
C2141 C2140 1.502 . S
C2142 H2128 0.960 . S
C2142 H2129 0.961 . S
C2142 H2130 0.959 . S
C2142 C2140 1.561 . S
C2143 C2140 1.526 . S
C2143 C2144 1.396 . S
C2143 C2148 1.390 . S
C2144 C2138 1.465 . S
C2144 C2143 1.396 . S
C2144 C2145 1.399 . S
C2145 H2131 0.929 . S
C2145 C2144 1.399 . S
C2145 C2146 1.385 . S
C2146 H2132 0.931 . S
C2146 C2145 1.385 . S
C2146 C2147 1.389 . S
C2147 C2146 1.389 . S
C2147 C2148 1.387 . S
C2148 H2133 0.930 . S
C2148 C2143 1.390 . S
C2148 C2147 1.387 . S
H2149 C2161 0.930 . S
H2150 C2163 0.930 . S
H2151 C2164 0.930 . S
H2152 C2168 0.959 . S
H2153 C2168 0.959 . S
H2154 C2168 0.961 . S
H2155 C2169 0.960 . S
H2156 C2169 0.961 . S
H2157 C2169 0.959 . S
H2158 C2172 0.929 . S
H2159 C2173 0.931 . S
H2160 C2175 0.930 . S
C2161 H2149 0.930 . S
C2161 C2162 1.399 . S
C2161 C2166 1.399 . S
C2162 C2161 1.399 . S
C2162 C2163 1.376 . S
C2163 H2150 0.930 . S
C2163 C2162 1.376 . S
C2163 C2164 1.388 . S
C2164 H2151 0.930 . S
C2164 C2163 1.388 . S
C2164 C2165 1.390 . S
C2165 C2164 1.390 . S
C2165 C2166 1.394 . S
C2165 C2171 1.465 . S
C2166 C2161 1.399 . S
C2166 C2165 1.394 . S
C2166 C2167 1.516 . S
C2167 C2166 1.516 . S
C2167 C2168 1.502 . S
C2167 C2169 1.561 . S
C2167 C2170 1.526 . S
C2168 H2152 0.959 . S
C2168 H2153 0.959 . S
C2168 H2154 0.961 . S
C2168 C2167 1.502 . S
C2169 H2155 0.960 . S
C2169 H2156 0.961 . S
C2169 H2157 0.959 . S
C2169 C2167 1.561 . S
C2170 C2167 1.526 . S
C2170 C2171 1.396 . S
C2170 C2175 1.390 . S
C2171 C2165 1.465 . S
C2171 C2170 1.396 . S
C2171 C2172 1.399 . S
C2172 H2158 0.929 . S
C2172 C2171 1.399 . S
C2172 C2173 1.385 . S
C2173 H2159 0.931 . S
C2173 C2172 1.385 . S
C2173 C2174 1.389 . S
C2174 C2173 1.389 . S
C2174 C2175 1.387 . S
C2175 H2160 0.930 . S
C2175 C2170 1.390 . S
C2175 C2174 1.387 . S
C461 C9 0.489 . S
C473 C191 0.407 . S
C488 C359 1.619 . S
C500 C23 1.595 . S
C515 C37 0.367 . S
C527 C219 0.359 . S
C542 C51 1.625 . S
C554 C345 1.646 . S
C569 C65 2.373 . S
C581 C247 2.387 . S
C596 C79 1.594 . S
C608 C317 1.588 . S
C623 C93 2.272 . S
C635 C275 2.259 . S
C650 C443 0.791 . S
C662 C107 0.782 . S
C677 C303 2.383 . S
C689 C121 2.365 . S
C704 C135 1.585 . S
C716 C261 1.610 . S
C731 C331 2.282 . S
C743 C149 2.272 . S
C758 C163 1.620 . S
C770 C233 1.658 . S
C785 C205 1.623 . S
C797 C177 1.591 . S
C812 C289 0.786 . S
C824 C401 0.785 . S
C839 C415 0.406 . S
C851 C373 0.459 . S
C866 C429 0.363 . S
C878 C387 0.438 . S
C893 C8 1.545 . S
C905 C22 1.549 . S
C920 C34 1.671 . S
C932 C21 1.862 . S
C947 C50 1.661 . S
C959 C36 1.652 . S
C974 C49 1.534 . S
C986 C6 1.457 . S
C1001 C105 1.925 . S
C1013 C64 1.986 . S
C1028 C76 1.190 . S
C1040 C62 1.296 . S
C1055 C91 1.712 . S
C1067 C77 1.684 . S
C1082 C92 1.485 . S
C1094 C104 1.329 . S
C1109 C134 1.791 . S
C1121 C7 1.772 1_655 S
C1136 C119 1.260 . S
C1148 C48 1.200 . S
C1163 C146 1.206 . S
C1175 C20 1.117 . S
C1190 C385 2.141 1_455 S
C1202 C106 2.219 . S
C1217 C400 2.221 . S
C1229 C35 2.151 . S
C1244 C160 1.111 . S
C1256 C63 1.203 . S
C1271 C90 1.190 . S
C1283 C174 1.250 . S
C1298 C202 1.674 . S
C1310 C188 1.634 . S
C1325 C218 1.471 . S
C1337 C203 1.363 . S
C1352 C230 1.786 . S
C1364 C216 1.796 . S
C1379 C190 1.533 . S
C1391 C231 1.533 . S
C1406 C246 1.731 . S
C1418 C288 1.730 . S
C1433 C245 1.196 . S
C1445 C258 1.203 . S
C1460 C274 1.683 . S
C1472 C260 1.692 . S
C1487 C273 1.478 . S
C1499 C286 1.400 . S
C1514 C189 1.438 . S
C1526 C315 1.485 . S
C1541 C300 1.733 . S
C1553 C232 1.927 . S
C1568 C328 1.424 . S
C1580 C204 1.613 . S
C1595 C427 1.402 . S
C1607 C287 1.462 . S
C1622 C441 1.438 . S
C1634 C217 1.377 . S
C1649 C244 1.732 . S
C1661 C344 1.926 . S
C1676 C358 1.614 . S
C1688 C272 1.463 . S
C1703 C176 1.543 . S
C1715 C372 1.572 . S
C1730 C384 1.747 . S
C1742 C175 1.881 . S
C1757 C162 1.674 . S
C1769 C386 1.667 . S
C1784 C161 1.505 . S
C1796 C370 1.347 . S
C1811 C120 1.992 . S
C1823 C399 1.912 . S
C1838 C132 1.220 . S
C1850 C118 1.185 . S
C1865 C147 1.728 . S
C1877 C133 1.676 . S
C1892 C148 1.493 . S
C1904 C398 1.419 . S
C1919 C371 1.802 . S
C1931 C78 1.800 . S
C1946 C356 1.618 . S
C1958 C412 1.668 . S
C1973 C357 1.421 . S
C1985 C428 1.442 . S
C2000 C426 1.754 . S
C2012 C342 1.721 . S
C2027 C343 1.480 . S
C2039 C414 1.562 . S
C2054 C442 1.722 . S
C2066 C302 1.741 . S
C2081 C301 1.260 . S
C2093 C314 1.118 . S
C2108 C330 1.687 . S
C2120 C316 1.687 . S
C2135 C329 1.448 . S
C2147 C440 1.419 . S
C2162 C413 1.432 . S
C2174 C259 1.477 . S
